# Generated by pormake.
# Topology wjd, (6)-cn, num edge types: 1
# Building blocks:
#     Node 0, Type 0, BuildingBlock: KUMBUR_clean_sbu_0, # of connection points: 6
#     Node 1, Type 0, BuildingBlock: KUMBUR_clean_sbu_0, # of connection points: 6
#     Node 2, Type 0, BuildingBlock: KUMBUR_clean_sbu_0, # of connection points: 6
#     Node 3, Type 0, BuildingBlock: KUMBUR_clean_sbu_0, # of connection points: 6
#     Node 4, Type 0, BuildingBlock: KUMBUR_clean_sbu_0, # of connection points: 6
#     Node 5, Type 0, BuildingBlock: KUMBUR_clean_sbu_0, # of connection points: 6
#     Node 6, Type 0, BuildingBlock: KUMBUR_clean_sbu_0, # of connection points: 6
#     Node 7, Type 0, BuildingBlock: KUMBUR_clean_sbu_0, # of connection points: 6
#     Node 8, Type 0, BuildingBlock: KUMBUR_clean_sbu_0, # of connection points: 6
#     Node 9, Type 0, BuildingBlock: KUMBUR_clean_sbu_0, # of connection points: 6
#     Node 10, Type 0, BuildingBlock: KUMBUR_clean_sbu_0, # of connection points: 6
#     Node 11, Type 0, BuildingBlock: KUMBUR_clean_sbu_0, # of connection points: 6
#     Edge 12, Type (0, 0), BuildingBlock: ZUJKAS_clean_linker_0, # of connection points: 2
#     Edge 13, Type (0, 0), BuildingBlock: ZUJKAS_clean_linker_0, # of connection points: 2
#     Edge 14, Type (0, 0), BuildingBlock: ZUJKAS_clean_linker_0, # of connection points: 2
#     Edge 15, Type (0, 0), BuildingBlock: ZUJKAS_clean_linker_0, # of connection points: 2
#     Edge 16, Type (0, 0), BuildingBlock: ZUJKAS_clean_linker_0, # of connection points: 2
#     Edge 17, Type (0, 0), BuildingBlock: ZUJKAS_clean_linker_0, # of connection points: 2
#     Edge 18, Type (0, 0), BuildingBlock: ZUJKAS_clean_linker_0, # of connection points: 2
#     Edge 19, Type (0, 0), BuildingBlock: ZUJKAS_clean_linker_0, # of connection points: 2
#     Edge 20, Type (0, 0), BuildingBlock: ZUJKAS_clean_linker_0, # of connection points: 2
#     Edge 21, Type (0, 0), BuildingBlock: ZUJKAS_clean_linker_0, # of connection points: 2
#     Edge 22, Type (0, 0), BuildingBlock: ZUJKAS_clean_linker_0, # of connection points: 2
#     Edge 23, Type (0, 0), BuildingBlock: ZUJKAS_clean_linker_0, # of connection points: 2
#     Edge 24, Type (0, 0), BuildingBlock: ZUJKAS_clean_linker_0, # of connection points: 2
#     Edge 25, Type (0, 0), BuildingBlock: ZUJKAS_clean_linker_0, # of connection points: 2
#     Edge 26, Type (0, 0), BuildingBlock: ZUJKAS_clean_linker_0, # of connection points: 2
#     Edge 27, Type (0, 0), BuildingBlock: ZUJKAS_clean_linker_0, # of connection points: 2
#     Edge 28, Type (0, 0), BuildingBlock: ZUJKAS_clean_linker_0, # of connection points: 2
#     Edge 29, Type (0, 0), BuildingBlock: ZUJKAS_clean_linker_0, # of connection points: 2
#     Edge 30, Type (0, 0), BuildingBlock: ZUJKAS_clean_linker_0, # of connection points: 2
#     Edge 31, Type (0, 0), BuildingBlock: ZUJKAS_clean_linker_0, # of connection points: 2
#     Edge 32, Type (0, 0), BuildingBlock: ZUJKAS_clean_linker_0, # of connection points: 2
#     Edge 33, Type (0, 0), BuildingBlock: ZUJKAS_clean_linker_0, # of connection points: 2
#     Edge 34, Type (0, 0), BuildingBlock: ZUJKAS_clean_linker_0, # of connection points: 2
#     Edge 35, Type (0, 0), BuildingBlock: ZUJKAS_clean_linker_0, # of connection points: 2
#     Edge 36, Type (0, 0), BuildingBlock: ZUJKAS_clean_linker_0, # of connection points: 2
#     Edge 37, Type (0, 0), BuildingBlock: ZUJKAS_clean_linker_0, # of connection points: 2
#     Edge 38, Type (0, 0), BuildingBlock: ZUJKAS_clean_linker_0, # of connection points: 2
#     Edge 39, Type (0, 0), BuildingBlock: ZUJKAS_clean_linker_0, # of connection points: 2
#     Edge 40, Type (0, 0), BuildingBlock: ZUJKAS_clean_linker_0, # of connection points: 2
#     Edge 41, Type (0, 0), BuildingBlock: ZUJKAS_clean_linker_0, # of connection points: 2
#     Edge 42, Type (0, 0), BuildingBlock: ZUJKAS_clean_linker_0, # of connection points: 2
#     Edge 43, Type (0, 0), BuildingBlock: ZUJKAS_clean_linker_0, # of connection points: 2
#     Edge 44, Type (0, 0), BuildingBlock: ZUJKAS_clean_linker_0, # of connection points: 2
#     Edge 45, Type (0, 0), BuildingBlock: ZUJKAS_clean_linker_0, # of connection points: 2
#     Edge 46, Type (0, 0), BuildingBlock: ZUJKAS_clean_linker_0, # of connection points: 2
#     Edge 47, Type (0, 0), BuildingBlock: ZUJKAS_clean_linker_0, # of connection points: 2
# Relax obj value: 0.099
# Max RMSD: 0.208
# Mean RMSD: 0.208
data_MOF--net-wjd--node1-KUMBUR_clean_sbu_0--edge1-ZUJKAS_clean_linker_0
_symmetry_space_group_name_H-M    P1
_symmetry_Int_Tables_number       1
_symmetry_cell_setting            triclinic
loop_
_symmetry_equiv_pos_as_xyz
'x, y, z'
_cell_length_a     46.876461
_cell_length_b     46.8915
_cell_length_c     71.15628
_cell_angle_alpha  90.093105
_cell_angle_beta   89.946092
_cell_angle_gamma 119.99633
loop_
_atom_site_label
_atom_site_type_symbol
_atom_site_fract_x
_atom_site_fract_y
_atom_site_fract_z
_atom_type_partial_charge
Tb0 Tb 0.37491 0.18711 0.11568 0.0
C1 C 0.36938 0.08071 0.16926 0.0
C2 C 0.40524 0.06355 0.15512 0.0
C3 C 0.39801 0.06082 0.18902 0.0
C4 C 0.38387 0.07647 0.15354 0.0
C5 C 0.37564 0.07232 0.18719 0.0
C6 C 0.41284 0.05648 0.17298 0.0
C7 C 0.33527 0.08472 0.19982 0.0
N8 N 0.34795 0.09182 0.16683 0.0
C9 C 0.3301 0.09297 0.18176 0.0
C10 C 0.35854 0.07487 0.20262 0.0
Tb11 Tb 0.34177 0.10585 0.13681 0.0
N12 N 0.37552 0.08329 0.1366 0.0
C13 C 0.3858 0.07514 0.12049 0.0
C14 C 0.41747 0.05722 0.13868 0.0
C15 C 0.40725 0.06253 0.12128 0.0
H16 H 0.31223 0.10081 0.17994 0.0
H17 H 0.41601 0.05707 0.10845 0.0
H18 H 0.42945 0.04685 0.17451 0.0
H19 H 0.3212 0.08587 0.21155 0.0
H20 H 0.37855 0.07924 0.10686 0.0
H21 H 0.31248 0.24667 0.1463 0.0
H22 H 0.43406 0.04743 0.13926 0.0
H23 H 0.3987 0.18889 0.0716 0.0
H24 H 0.34664 0.22058 0.14652 0.0
H25 H 0.38432 0.19977 0.04009 0.0
H26 H 0.40341 0.0545 0.20269 0.0
H27 H 0.2891 0.25279 0.11649 0.0
H28 H 0.28461 0.24583 0.08134 0.0
H29 H 0.36252 0.06854 0.21664 0.0
H30 H 0.30396 0.23254 0.0522 0.0
N31 N 0.3421 0.21061 0.11709 0.0
C32 C 0.33661 0.22276 0.13335 0.0
C33 C 0.30387 0.24093 0.11648 0.0
C34 C 0.31089 0.23001 0.09974 0.0
C35 C 0.3172 0.23771 0.13331 0.0
C36 C 0.33063 0.21515 0.10053 0.0
H37 H 0.34191 0.21612 0.03664 0.0
N38 N 0.36372 0.19753 0.08585 0.0
C39 C 0.37199 0.20203 0.05239 0.0
C40 C 0.34168 0.20807 0.08424 0.0
C41 C 0.38015 0.19599 0.07028 0.0
C42 C 0.34791 0.21107 0.05049 0.0
C43 C 0.33303 0.21504 0.06657 0.0
O44 O 0.42246 0.22194 0.10608 0.0
O45 O 0.3846 0.14992 0.12669 0.0
O46 O 0.37416 0.14135 0.1575 0.0
O47 O 0.37385 0.1886 0.14723 0.0
O48 O 0.41099 0.17536 0.10377 0.0
O49 O 0.40189 0.23208 0.13031 0.0
O50 O 0.29194 0.07292 0.14321 0.0
O51 O 0.3326 0.14371 0.12622 0.0
O52 O 0.3425 0.14935 0.09484 0.0
O53 O 0.34547 0.10439 0.10615 0.0
O54 O 0.30631 0.11817 0.14919 0.0
O55 O 0.31698 0.06112 0.12192 0.0
C56 C 0.40712 0.15317 0.11567 0.0
C57 C 0.43779 0.27766 0.11142 0.0
C58 C 0.48003 0.336 0.10818 0.0
C59 C 0.4695 0.30429 0.1157 0.0
C60 C 0.45816 0.3406 0.09678 0.0
C61 C 0.41686 0.28331 0.09993 0.0
C62 C 0.42688 0.31449 0.09274 0.0
C63 C 0.37829 0.17104 0.16053 0.0
C64 C 0.4265 0.24396 0.11857 0.0
C65 C 0.31125 0.2274 0.06564 0.0
C66 C 0.30025 0.23497 0.08223 0.0
C67 C 0.31069 0.14086 0.13757 0.0
C68 C 0.27253 1.01664 0.13773 0.0
C69 C 0.23846 0.99662 0.13452 0.0
C70 C 0.22151 0.96354 0.14053 0.0
C71 C 0.23934 0.95103 0.14994 0.0
C72 C 0.28969 1.00364 0.14719 0.0
C73 C 0.2731 0.97097 0.15324 0.0
C74 C 0.33851 0.11935 0.09266 0.0
C75 C 0.28958 0.05099 0.13116 0.0
H76 H 0.48603 0.30025 0.12448 0.0
H77 H 0.46521 0.36463 0.09104 0.0
H78 H 0.39273 0.26364 0.09644 0.0
H79 H 0.41033 0.31841 0.08394 0.0
H80 H 0.2253 1.00671 0.12712 0.0
H81 H 0.22708 0.9259 0.15502 0.0
H82 H 0.31584 0.0187 0.14986 0.0
H83 H 0.28644 0.96105 0.16058 0.0
Tb84 Tb 0.80392 0.70761 0.3812 0.0
C85 C 0.90363 0.70123 0.43378 0.0
C86 C 0.95604 0.7275 0.41775 0.0
C87 C 0.95441 0.72707 0.45188 0.0
C88 C 0.92132 0.71099 0.41731 0.0
C89 C 0.9199 0.70828 0.45128 0.0
C90 C 0.97249 0.73639 0.43512 0.0
C91 C 0.8675 0.67205 0.46584 0.0
N92 N 0.87061 0.68105 0.43245 0.0
C93 C 0.85272 0.665 0.44809 0.0
C94 C 0.90119 0.69426 0.46749 0.0
Tb95 Tb 0.84795 0.67074 0.40288 0.0
N96 N 0.90444 0.70065 0.40091 0.0
C97 C 0.92113 0.70459 0.38444 0.0
C98 C 0.97312 0.73292 0.4008 0.0
C99 C 0.95556 0.72116 0.3841 0.0
H100 H 0.82671 0.64752 0.44696 0.0
H101 H 0.96849 0.72467 0.37094 0.0
H102 H 0.99915 0.74938 0.43574 0.0
H103 H 0.85296 0.6601 0.4782 0.0
H104 H 0.90819 0.6954 0.37136 0.0
H105 H 0.68169 0.64124 0.4114 0.0
H106 H 0.99978 0.74533 0.40053 0.0
H107 H 0.82785 0.73238 0.33729 0.0
H108 H 0.74186 0.67635 0.41205 0.0
H109 H 0.80298 0.72072 0.30575 0.0
H110 H 0.96739 0.73298 0.46518 0.0
H111 H 0.65248 0.62169 0.38106 0.0
H112 H 0.65517 0.62299 0.34572 0.0
H113 H 0.91273 0.69914 0.4812 0.0
H114 H 0.68818 0.64495 0.31689 0.0
N115 N 0.74747 0.67635 0.38229 0.0
C116 C 0.72974 0.6683 0.39864 0.0
C117 C 0.67905 0.63719 0.38123 0.0
C118 C 0.69706 0.64719 0.3645 0.0
C119 C 0.69543 0.64826 0.39837 0.0
C120 C 0.7316 0.66723 0.36554 0.0
H121 H 0.74334 0.68181 0.30185 0.0
N122 N 0.78289 0.69984 0.3513 0.0
C123 C 0.78777 0.70889 0.31793 0.0
C124 C 0.74997 0.67955 0.34944 0.0
C125 C 0.80177 0.71551 0.33589 0.0
C126 C 0.75412 0.68685 0.31577 0.0
C127 C 0.73465 0.67222 0.33167 0.0
O128 O 0.82301 0.75716 0.37342 0.0
O129 O 0.85021 0.7146 0.39201 0.0
O130 O 0.84505 0.70429 0.42386 0.0
O131 O 0.80075 0.70841 0.41195 0.0
O132 O 0.85221 0.7398 0.36828 0.0
O133 O 0.78541 0.73506 0.39464 0.0
O134 O 0.83242 0.62259 0.41255 0.0
O135 O 0.80182 0.66372 0.39221 0.0
O136 O 0.80326 0.67217 0.3613 0.0
O137 O 0.8497 0.67037 0.37136 0.0
O138 O 0.79979 0.63807 0.41559 0.0
O139 O 0.86287 0.64127 0.38814 0.0
C140 C 0.86988 0.735 0.3802 0.0
C141 C 0.78798 0.77923 0.37718 0.0
C142 C 0.78696 0.8308 0.3741 0.0
C143 C 0.80057 0.81256 0.3819 0.0
C144 C 0.76028 0.8147 0.36154 0.0
C145 C 0.76126 0.76377 0.36481 0.0
C146 C 0.7475 0.78147 0.35706 0.0
C147 C 0.82177 0.71255 0.42553 0.0
C148 C 0.80382 0.76149 0.38486 0.0
C149 C 0.70042 0.65114 0.33042 0.0
C150 C 0.68164 0.63862 0.34683 0.0
C151 C 0.78195 0.64279 0.40374 0.0
C152 C 0.87022 0.60392 0.40699 0.0
C153 C 0.86477 0.57264 0.40137 0.0
C154 C 0.88447 0.56028 0.40877 0.0
C155 C 0.90991 0.57982 0.4214 0.0
C156 C 0.89579 0.62263 0.41963 0.0
C157 C 0.91554 0.61078 0.42671 0.0
C158 C 0.82763 0.66626 0.35821 0.0
C159 C 0.8492 0.61697 0.39998 0.0
H160 H 0.82093 0.82413 0.39171 0.0
H161 H 0.74955 0.82785 0.35486 0.0
H162 H 0.75122 0.73817 0.36105 0.0
H163 H 0.72704 0.76947 0.34738 0.0
H164 H 0.84499 0.55778 0.39168 0.0
H165 H 0.92558 0.57111 0.42714 0.0
H166 H 0.90049 0.64636 0.42417 0.0
H167 H 0.9352 0.62561 0.43645 0.0
Tb168 Tb 0.85824 0.19604 0.11463 0.0
C169 C 0.96837 0.29543 0.16664 0.0
C170 C 0.98819 0.348 0.15137 0.0
C171 C 0.99152 0.34548 0.18536 0.0
C172 C 0.97329 0.31342 0.15051 0.0
C173 C 0.97806 0.3112 0.18425 0.0
C174 C 0.99656 0.36387 0.16893 0.0
C175 C 0.96333 0.25854 0.19796 0.0
N176 N 0.95554 0.26247 0.16489 0.0
C177 C 0.95393 0.24403 0.18018 0.0
C178 C 0.97492 0.29218 0.20008 0.0
Tb179 Tb 0.94025 0.24072 0.13525 0.0
N180 N 0.96519 0.29713 0.13387 0.0
C181 C 0.97369 0.31446 0.11738 0.0
C182 C 0.99514 0.36562 0.13456 0.0
C183 C 0.98824 0.34879 0.11748 0.0
H184 H 0.94483 0.21798 0.17885 0.0
H185 H 0.99407 0.36223 0.10437 0.0
H186 H 1.00773 0.39039 0.16991 0.0
H187 H 0.96177 0.24378 0.20999 0.0
H188 H 0.96852 0.30201 0.10401 0.0
H189 H 0.78829 0.07742 0.14793 0.0
H190 H 1.00661 0.39221 0.13461 0.0
H191 H 0.85766 0.21613 0.0701 0.0
H192 H 0.82208 0.13724 0.14693 0.0
H193 H 0.84342 0.18859 0.03916 0.0
H194 H 0.99888 0.35807 0.19878 0.0
H195 H 0.77766 0.04449 0.11884 0.0
H196 H 0.78282 0.04355 0.08368 0.0
H197 H 0.98221 0.30335 0.21387 0.0
H198 H 0.79851 0.07415 0.05383 0.0
N199 N 0.83002 0.13967 0.11731 0.0
C200 C 0.81763 0.12377 0.134 0.0
C201 C 0.79232 0.0711 0.11823 0.0
C202 C 0.80401 0.08739 0.1011 0.0
C203 C 0.79849 0.0895 0.13468 0.0
C204 C 0.82245 0.12211 0.1011 0.0
H205 H 0.82068 0.12837 0.03704 0.0
N206 N 0.84556 0.17238 0.08528 0.0
C207 C 0.84013 0.17439 0.05177 0.0
C208 C 0.8311 0.13915 0.08444 0.0
C209 C 0.84824 0.18992 0.06933 0.0
C210 C 0.82743 0.14043 0.05062 0.0
C211 C 0.8218 0.12221 0.06713 0.0
O212 O 0.82651 0.2125 0.1048 0.0
O213 O 0.89769 0.24235 0.12496 0.0
O214 O 0.90649 0.24108 0.156 0.0
O215 O 0.85731 0.19519 0.14617 0.0
O216 O 0.87346 0.24388 0.10166 0.0
O217 O 0.81364 0.18163 0.12911 0.0
O218 O 0.971 0.22141 0.14195 0.0
O219 O 0.9001 0.19415 0.12539 0.0
O220 O 0.89409 0.19717 0.09381 0.0
O221 O 0.94227 0.24317 0.10447 0.0
O222 O 0.92539 0.19294 0.14839 0.0
O223 O 0.98555 0.25926 0.12104 0.0
C224 C 0.89608 0.26193 0.11346 0.0
C225 C 0.76971 0.17491 0.1096 0.0
C226 C 0.71018 0.15477 0.11093 0.0
C227 C 0.74235 0.17449 0.11832 0.0
C228 C 0.70613 0.13581 0.09473 0.0
C229 C 0.7645 0.15572 0.09346 0.0
C230 C 0.73303 0.13627 0.08615 0.0
C231 C 0.87607 0.21707 0.15924 0.0
C232 C 0.80359 0.19555 0.11707 0.0
C233 C 0.80553 0.08764 0.06697 0.0
C234 C 0.79655 0.07022 0.08396 0.0
C235 C 0.90189 0.17488 0.13708 0.0
C236 C 1.02789 0.25672 0.13779 0.0
C237 C 0.04816 0.24345 0.13335 0.0
C238 C 0.08017 0.2571 0.14098 0.0
C239 C 0.09134 0.28447 0.15309 0.0
C240 C 0.03977 0.28414 0.14968 0.0
C241 C 0.07136 0.29792 0.15726 0.0
C242 C 0.92526 0.22087 0.09148 0.0
C243 C 0.99406 0.24082 0.1304 0.0
H244 H 0.7461 0.1893 0.13077 0.0
H245 H 0.68213 0.12108 0.08833 0.0
H246 H 0.78472 0.15601 0.08623 0.0
H247 H 0.72953 0.12178 0.07361 0.0
H248 H 0.0389 0.22254 0.12391 0.0
H249 H 0.11535 0.29526 0.15965 0.0
H250 H 1.02461 0.29475 0.1532 0.0
H251 H 0.08029 0.31892 0.16659 0.0
Tb252 Tb 0.34085 0.1094 0.38144 0.0
C253 C 0.34411 0.21066 0.4368 0.0
C254 C 0.31571 0.23583 0.42209 0.0
C255 C 0.3155 0.23127 0.45611 0.0
C256 C 0.33422 0.2197 0.42079 0.0
C257 C 0.3358 0.21725 0.4547 0.0
C258 C 0.30548 0.24059 0.4398 0.0
C259 C 0.37206 0.20016 0.46828 0.0
N260 N 0.36455 0.19824 0.43477 0.0
C261 C 0.37987 0.19445 0.45019 0.0
C262 C 0.34948 0.21108 0.47056 0.0
Tb263 Tb 0.37566 0.18916 0.4046 0.0
N264 N 0.34501 0.21501 0.40402 0.0
C265 C 0.34017 0.2283 0.38805 0.0
C266 C 0.30926 0.2479 0.40565 0.0
C267 C 0.32196 0.24451 0.38859 0.0
H268 H 0.39729 0.18593 0.44859 0.0
H269 H 0.31766 0.25431 0.37582 0.0
H270 H 0.29083 0.2525 0.44107 0.0
H271 H 0.38349 0.19616 0.48043 0.0
H272 H 0.3497 0.22597 0.37471 0.0
H273 H 0.40983 0.05391 0.40826 0.0
H274 H 0.29538 0.26068 0.40604 0.0
H275 H 0.31535 0.11124 0.33794 0.0
H276 H 0.37417 0.07815 0.41052 0.0
H277 H 0.32664 0.10026 0.30583 0.0
H278 H 0.30849 0.23618 0.46972 0.0
H279 H 0.4285 0.04592 0.37718 0.0
H280 H 0.42602 0.04896 0.34197 0.0
H281 H 0.34372 0.21579 0.48457 0.0
H282 H 0.40309 0.06129 0.31403 0.0
N283 N 0.37275 0.08484 0.38095 0.0
C284 C 0.38172 0.07476 0.39679 0.0
C285 C 0.41269 0.05658 0.37806 0.0
C286 C 0.40189 0.06511 0.36184 0.0
C287 C 0.40213 0.06097 0.39561 0.0
C288 C 0.38148 0.07907 0.36381 0.0
H289 H 0.3657 0.08012 0.30041 0.0
N290 N 0.34813 0.09803 0.35095 0.0
C291 C 0.33867 0.09612 0.31763 0.0
C292 C 0.36858 0.08578 0.34821 0.0
C293 C 0.33227 0.10223 0.33596 0.0
C294 C 0.36078 0.08483 0.31462 0.0
C295 C 0.37573 0.07909 0.33003 0.0
O296 O 0.291 0.0787 0.37423 0.0
O297 O 0.33271 0.1475 0.39303 0.0
O298 O 0.34148 0.15062 0.4245 0.0
O299 O 0.34269 0.10528 0.41207 0.0
O300 O 0.30741 0.1245 0.36924 0.0
O301 O 0.31426 0.0631 0.39458 0.0
O302 O 0.42351 0.22209 0.4145 0.0
O303 O 0.38406 0.1515 0.39292 0.0
O304 O 0.37597 0.14589 0.36217 0.0
O305 O 0.37573 0.19275 0.37312 0.0
O306 O 0.41017 0.17505 0.41627 0.0
O307 O 0.40389 0.23484 0.39085 0.0
C308 C 0.31181 0.14641 0.38148 0.0
C309 C 0.26929 0.02163 0.37733 0.0
C310 C 0.21707 0.97007 0.37303 0.0
C311 C 0.23528 1.00194 0.38082 0.0
C312 C 0.23371 0.95845 0.36163 0.0
C313 C 0.28526 1.00948 0.36598 0.0
C314 C 0.26748 0.978 0.3582 0.0
C315 C 0.33627 0.12005 0.42597 0.0
C316 C 0.28733 0.05506 0.38528 0.0
C317 C 0.39706 0.06638 0.32788 0.0
C318 C 0.41014 0.0594 0.34378 0.0
C319 C 0.4058 0.15312 0.40402 0.0
C320 C 0.44066 0.27861 0.41058 0.0
C321 C 0.46822 0.30644 0.40268 0.0
C322 C 0.47983 0.33823 0.41045 0.0
C323 C 0.46347 0.34137 0.42625 0.0
C324 C 0.42511 0.28287 0.42629 0.0
C325 C 0.43638 0.31397 0.43402 0.0
C326 C 0.38076 0.17589 0.35962 0.0
C327 C 0.4283 0.24519 0.40264 0.0
H328 H 0.22314 1.01141 0.38974 0.0
H329 H 0.22056 0.93439 0.3551 0.0
H330 H 0.31134 0.02432 0.36308 0.0
H331 H 0.27989 0.96877 0.34935 0.0
H332 H 0.48035 0.30335 0.39052 0.0
H333 H 0.47202 0.36504 0.43294 0.0
H334 H 0.40445 0.26217 0.43279 0.0
H335 H 0.42422 0.31681 0.44623 0.0
Tb336 Tb 0.85113 0.66917 0.11453 0.0
C337 C 0.74938 0.67728 0.16563 0.0
C338 C 0.69737 0.64453 0.14973 0.0
C339 C 0.69882 0.64902 0.1838 0.0
C340 C 0.73194 0.66466 0.14927 0.0
C341 C 0.73309 0.67015 0.18311 0.0
C342 C 0.68097 0.63621 0.16713 0.0
C343 C 0.78541 0.70705 0.19763 0.0
N344 N 0.78237 0.69762 0.16428 0.0
C345 C 0.80039 0.71346 0.17993 0.0
C346 C 0.75166 0.68501 0.19926 0.0
Tb347 Tb 0.80512 0.70527 0.13484 0.0
N348 N 0.74876 0.67357 0.13281 0.0
C349 C 0.73193 0.66515 0.11614 0.0
C350 C 0.68031 0.63417 0.13271 0.0
C351 C 0.69764 0.64497 0.11584 0.0
H352 H 0.82653 0.7303 0.17894 0.0
H353 H 0.68463 0.63765 0.10258 0.0
H354 H 0.65446 0.62053 0.1678 0.0
H355 H 0.79994 0.71902 0.21 0.0
H356 H 0.74473 0.67298 0.10291 0.0
H357 H 0.96912 0.71855 0.14879 0.0
H358 H 0.65376 0.61858 0.13244 0.0
H359 H 0.83309 0.6477 0.0699 0.0
H360 H 0.90926 0.6911 0.1472 0.0
H361 H 0.86146 0.66225 0.03921 0.0
H362 H 0.68583 0.64299 0.1971 0.0
H363 H 1.00276 0.74307 0.12019 0.0
H364 H 1.00456 0.75064 0.08512 0.0
H365 H 0.7401 0.68013 0.21298 0.0
H366 H 0.97481 0.73561 0.05495 0.0
N367 N 0.90748 0.69823 0.11772 0.0
C368 C 0.92301 0.70117 0.13447 0.0
C369 C 0.97613 0.73058 0.11932 0.0
C370 C 0.96025 0.7264 0.10207 0.0
C371 C 0.95732 0.71708 0.13549 0.0
C372 C 0.9255 0.70938 0.10173 0.0
H373 H 0.9213 0.70192 0.03763 0.0
N374 N 0.87589 0.68063 0.08546 0.0
C375 C 0.87512 0.67352 0.05195 0.0
C376 C 0.90897 0.70079 0.0849 0.0
C377 C 0.85913 0.66534 0.06937 0.0
C378 C 0.90884 0.69606 0.0511 0.0
C379 C 0.92642 0.70916 0.06777 0.0
O380 O 0.83766 0.6219 0.10408 0.0
O381 O 0.80425 0.66155 0.12438 0.0
O382 O 0.8044 0.67051 0.15524 0.0
O383 O 0.85168 0.66946 0.14606 0.0
O384 O 0.80368 0.63598 0.10119 0.0
O385 O 0.86325 0.63855 0.13024 0.0
O386 O 0.822 0.75441 0.14294 0.0
O387 O 0.85226 0.71271 0.1252 0.0
O388 O 0.84904 0.70289 0.09339 0.0
O389 O 0.80323 0.70547 0.10405 0.0
O390 O 0.85253 0.73859 0.14831 0.0
O391 O 0.78833 0.73257 0.11979 0.0
C392 C 0.78511 0.64031 0.11271 0.0
C393 C 0.87492 0.60349 0.112 0.0
C394 C 0.89453 0.56399 0.11452 0.0
C395 C 0.87151 0.57393 0.11933 0.0
C396 C 0.92057 0.5837 0.1023 0.0
C397 C 0.90082 0.62214 0.09953 0.0
C398 C 0.92352 0.61244 0.09478 0.0
C399 C 0.82904 0.66524 0.15887 0.0
C400 C 0.85219 0.61539 0.11761 0.0
C401 C 0.96094 0.72853 0.06796 0.0
C402 C 0.97787 0.73705 0.08513 0.0
C403 C 0.87111 0.73385 0.13703 0.0
C404 C 0.78652 0.77524 0.13651 0.0
C405 C 0.80021 0.80921 0.13328 0.0
C406 C 0.78329 0.82564 0.13884 0.0
C407 C 0.75255 0.80742 0.14782 0.0
C408 C 0.7559 0.75764 0.14547 0.0
C409 C 0.73906 0.77373 0.1511 0.0
C410 C 0.8253 0.71029 0.09101 0.0
C411 C 0.80448 0.75866 0.13027 0.0
H412 H 0.85146 0.55907 0.12887 0.0
H413 H 0.93839 0.5765 0.09828 0.0
H414 H 0.90357 0.64422 0.09338 0.0
H415 H 0.94345 0.62723 0.08519 0.0
H416 H 0.82377 0.82269 0.1262 0.0
H417 H 0.7391 0.81931 0.15255 0.0
H418 H 0.745 0.73153 0.14806 0.0
H419 H 0.71546 0.76004 0.15806 0.0
Tb420 Tb 0.93905 0.24359 0.38128 0.0
C421 C 0.83647 0.14238 0.43466 0.0
C422 C 0.81233 0.08943 0.41921 0.0
C423 C 0.81594 0.09252 0.45329 0.0
C424 C 0.82809 0.12408 0.41839 0.0
C425 C 0.82962 0.12684 0.45235 0.0
C426 C 0.80725 0.07381 0.43672 0.0
C427 C 0.84586 0.17954 0.46664 0.0
N428 N 0.84855 0.17525 0.43308 0.0
C429 C 0.85178 0.1937 0.44875 0.0
C430 C 0.83523 0.14604 0.46848 0.0
Tb431 Tb 0.85824 0.19655 0.40319 0.0
N432 N 0.83311 0.14014 0.40181 0.0
C433 C 0.82064 0.12258 0.38557 0.0
C434 C 0.80096 0.07151 0.4025 0.0
C435 C 0.80476 0.08816 0.38564 0.0
H436 H 0.86007 0.21963 0.44749 0.0
H437 H 0.79555 0.07453 0.37266 0.0
H438 H 0.79563 0.04724 0.43763 0.0
H439 H 0.84944 0.19445 0.479 0.0
H440 H 0.8233 0.13489 0.37237 0.0
H441 H 0.99073 0.36686 0.40954 0.0
H442 H 0.78845 0.04485 0.40252 0.0
H443 H 0.93993 0.21793 0.33765 0.0
H444 H 0.96697 0.30696 0.41115 0.0
H445 H 0.95231 0.24128 0.30582 0.0
H446 H 0.81084 0.08011 0.46674 0.0
H447 H 1.00087 0.39458 0.37871 0.0
H448 H 0.99966 0.39025 0.34346 0.0
H449 H 0.83033 0.13506 0.48234 0.0
H450 H 0.98934 0.35606 0.31518 0.0
N451 N 0.96249 0.29991 0.38143 0.0
C452 C 0.97116 0.31838 0.39753 0.0
C453 C 0.99022 0.36809 0.37931 0.0
C454 C 0.98285 0.34936 0.36287 0.0
C455 C 0.98467 0.35255 0.39672 0.0
C456 C 0.96917 0.31498 0.36445 0.0
H457 H 0.97196 0.30048 0.30101 0.0
N458 N 0.95169 0.26327 0.35106 0.0
C459 C 0.95557 0.25697 0.31776 0.0
C460 C 0.96361 0.29597 0.34867 0.0
C461 C 0.94864 0.24383 0.33592 0.0
C462 C 0.96657 0.29037 0.31509 0.0
C463 C 0.97117 0.31044 0.33067 0.0
O464 O 0.97084 0.22537 0.3748 0.0
O465 O 0.90083 0.19679 0.39194 0.0
O466 O 0.89632 0.20034 0.42322 0.0
O467 O 0.94135 0.24833 0.41199 0.0
O468 O 0.92565 0.19566 0.36868 0.0
O469 O 0.98495 0.26416 0.39507 0.0
O470 O 0.82457 0.21055 0.41307 0.0
O471 O 0.89583 0.24324 0.39221 0.0
O472 O 0.90312 0.24165 0.36135 0.0
O473 O 0.85589 0.19417 0.37168 0.0
O474 O 0.87123 0.24448 0.41543 0.0
O475 O 0.81284 0.17898 0.38906 0.0
C476 C 0.90298 0.17756 0.3804 0.0
C477 C 1.02766 0.26157 0.37858 0.0
C478 C 0.08039 0.26264 0.37556 0.0
C479 C 0.04841 0.24895 0.3833 0.0
C480 C 0.09099 0.28935 0.36305 0.0
C481 C 0.03896 0.28827 0.36623 0.0
C482 C 0.0705 0.30207 0.35855 0.0
C483 C 0.92652 0.22606 0.42534 0.0
C484 C 0.99387 0.24563 0.3861 0.0
C485 C 0.9836 0.34448 0.32889 0.0
C486 C 0.98945 0.36393 0.34498 0.0
C487 C 0.89331 0.26272 0.40343 0.0
C488 C 0.76828 0.17098 0.40844 0.0
C489 C 0.74068 0.17166 0.4009 0.0
C490 C 0.70871 0.15109 0.40836 0.0
C491 C 0.7052 0.13028 0.42352 0.0
C492 C 0.7636 0.14982 0.42348 0.0
C493 C 0.73236 0.12964 0.43092 0.0
C494 C 0.8732 0.21641 0.35846 0.0
C495 C 0.8019 0.19249 0.40088 0.0
H496 H 0.03956 0.22851 0.39303 0.0
H497 H 0.11493 0.30015 0.3564 0.0
H498 H 1.02334 0.29822 0.36241 0.0
H499 H 0.07901 0.32253 0.34888 0.0
H500 H 0.74409 0.18792 0.38925 0.0
H501 H 0.68142 0.11483 0.43 0.0
H502 H 0.78411 0.14907 0.42968 0.0
H503 H 0.72922 0.11361 0.44263 0.0
Tb504 Tb 0.11385 0.329 0.6353 0.0
C505 C 0.22029 0.33274 0.58398 0.0
C506 C 0.24385 0.30401 0.60001 0.0
C507 C 0.24258 0.30432 0.56588 0.0
C508 C 0.22768 0.32256 0.60044 0.0
C509 C 0.22865 0.32476 0.56648 0.0
C510 C 0.25024 0.29399 0.58266 0.0
C511 C 0.21406 0.36212 0.55185 0.0
N512 N 0.20812 0.3535 0.58526 0.0
C513 C 0.20673 0.36971 0.56959 0.0
C514 C 0.22448 0.33906 0.55024 0.0
Tb515 Tb 0.19593 0.36409 0.61485 0.0
N516 N 0.2215 0.3332 0.61685 0.0
C517 C 0.23319 0.32805 0.63336 0.0
C518 C 0.25435 0.29733 0.61697 0.0
C519 C 0.24941 0.30982 0.63369 0.0
H520 H 0.19884 0.3877 0.57068 0.0
H521 H 0.25798 0.30534 0.64687 0.0
H522 H 0.26218 0.27932 0.58205 0.0
H523 H 0.21182 0.3742 0.53945 0.0
H524 H 0.22966 0.3374 0.64646 0.0
H525 H 0.0638 0.39955 0.60364 0.0
H526 H 0.26703 0.28335 0.61724 0.0
H527 H 0.10791 0.30187 0.67899 0.0
H528 H 0.08691 0.36275 0.60366 0.0
H529 H 0.09184 0.31229 0.71005 0.0
H530 H 0.24882 0.29755 0.55258 0.0
H531 H 0.05312 0.4192 0.63367 0.0
H532 H 0.05184 0.41682 0.66903 0.0
H533 H 0.23057 0.33355 0.53652 0.0
H534 H 0.05927 0.39282 0.69811 0.0
N535 N 0.09048 0.36188 0.63354 0.0
C536 C 0.08238 0.37082 0.61696 0.0
C537 C 0.06333 0.40296 0.6338 0.0
C538 C 0.0696 0.39202 0.65073 0.0
C539 C 0.06923 0.39184 0.61684 0.0
C540 C 0.08307 0.37105 0.65008 0.0
H541 H 0.07366 0.35329 0.71355 0.0
N542 N 0.09882 0.33653 0.66477 0.0
C543 C 0.09082 0.32558 0.6979 0.0
C544 C 0.08722 0.35771 0.66631 0.0
C545 C 0.09971 0.31957 0.68019 0.0
C546 C 0.08051 0.34868 0.69981 0.0
C547 C 0.07813 0.36476 0.68385 0.0
O548 O 0.08189 0.27939 0.64252 0.0
O549 O 0.15302 0.32107 0.62543 0.0
O550 O 0.1598 0.33063 0.59377 0.0
O551 O 0.112 0.3293 0.60449 0.0
O552 O 0.1273 0.29507 0.64852 0.0
O553 O 0.06882 0.30272 0.62083 0.0
O554 O 0.22934 0.41239 0.60576 0.0
O555 O 0.15728 0.37234 0.6251 0.0
O556 O 0.14838 0.36248 0.65603 0.0
O557 O 0.19662 0.36352 0.64636 0.0
O558 O 0.18243 0.39825 0.60209 0.0
O559 O 0.24066 0.39207 0.6296 0.0
C560 C 0.15045 0.29973 0.63713 0.0
C561 C 1.02527 0.25873 0.6375 0.0
C562 C 0.97312 0.20715 0.64173 0.0
C563 C 1.00561 0.2245 0.63474 0.0
C564 C 0.96063 0.22483 0.65137 0.0
C565 C 1.01231 0.27576 0.64718 0.0
C566 C 0.9801 0.25883 0.65402 0.0
C567 C 0.12882 0.32379 0.59146 0.0
C568 C 0.05942 0.27594 0.63056 0.0
C569 C 0.06611 0.38682 0.68476 0.0
C570 C 0.06189 0.40048 0.6682 0.0
C571 C 0.15969 0.39402 0.61371 0.0
C572 C 0.28563 0.4296 0.61083 0.0
C573 C 0.31277 0.4582 0.61846 0.0
C574 C 0.34497 0.46996 0.61125 0.0
C575 C 0.34919 0.45278 0.59624 0.0
C576 C 0.29104 0.41323 0.59597 0.0
C577 C 0.32249 0.42469 0.58876 0.0
C578 C 0.17836 0.36761 0.65936 0.0
C579 C 0.25171 0.4169 0.61811 0.0
H580 H 1.01589 0.21134 0.62748 0.0
H581 H 0.93566 0.21242 0.65672 0.0
H582 H 1.02706 0.30204 0.64946 0.0
H583 H 0.97017 0.27211 0.66145 0.0
H584 H 0.30884 0.471 0.62997 0.0
H585 H 0.37317 0.4614 0.58995 0.0
H586 H 0.27097 0.39173 0.58973 0.0
H587 H 0.32616 0.41186 0.57717 0.0
Tb588 Tb 0.20993 0.84959 0.90316 0.0
C589 C 0.30745 0.95652 0.84934 0.0
C590 C 0.36044 0.97769 0.86439 0.0
C591 C 0.35703 0.9782 0.83031 0.0
C592 C 0.32587 0.9628 0.86544 0.0
C593 C 0.32274 0.96464 0.83157 0.0
C594 C 0.37587 0.98471 0.84671 0.0
C595 C 0.26945 0.94742 0.81783 0.0
N596 N 0.27447 0.94348 0.85121 0.0
C597 C 0.25547 0.93992 0.8358 0.0
C598 C 0.30319 0.95949 0.81567 0.0
Tb599 Tb 0.25349 0.93013 0.8811 0.0
N600 N 0.30998 0.95587 0.88219 0.0
C601 C 0.32772 0.96574 0.89853 0.0
C602 C 0.37848 0.9859 0.88111 0.0
C603 C 0.36206 0.98037 0.89825 0.0
H604 H 0.22933 0.93036 0.83722 0.0
H605 H 0.37582 0.98725 0.91128 0.0
H606 H 0.40238 0.99587 0.84559 0.0
H607 H 0.25416 0.94378 0.80566 0.0
H608 H 0.31562 0.96157 0.91196 0.0
H609 H 0.08966 0.78468 0.87066 0.0
H610 H 0.40508 0.99726 0.88093 0.0
H611 H 0.23096 0.84909 0.94749 0.0
H612 H 0.14996 0.81507 0.87129 0.0
H613 H 0.20427 0.83579 0.97865 0.0
H614 H 0.36927 0.98438 0.81678 0.0
H615 H 0.05811 0.7737 0.90018 0.0
H616 H 0.0584 0.77826 0.93541 0.0
H617 H 0.31396 0.96533 0.80174 0.0
H618 H 0.08982 0.79335 0.96498 0.0
N619 N 0.15348 0.82306 0.90093 0.0
C620 C 0.13692 0.81102 0.88435 0.0
C621 C 0.08479 0.78761 0.90056 0.0
C622 C 0.10171 0.79872 0.91759 0.0
C623 C 0.10249 0.7936 0.88389 0.0
C624 C 0.13645 0.81632 0.91728 0.0
H625 H 0.14433 0.81445 0.98128 0.0
N626 N 0.18708 0.83793 0.93269 0.0
C627 C 0.18984 0.83276 0.96617 0.0
C628 C 0.15396 0.82447 0.93381 0.0
C629 C 0.20489 0.84035 0.94849 0.0
C630 C 0.15604 0.82087 0.9676 0.0
C631 C 0.13748 0.81562 0.95126 0.0
O632 O 0.22603 0.81756 0.913 0.0
O633 O 0.25592 0.88854 0.8922 0.0
O634 O 0.25436 0.89537 0.86127 0.0
O635 O 0.20847 0.84692 0.87162 0.0
O636 O 0.25815 0.86543 0.91583 0.0
O637 O 0.19381 0.80419 0.88925 0.0
O638 O 0.23386 0.95999 0.873 0.0
O639 O 0.20757 0.89093 0.89217 0.0
O640 O 0.21276 0.8863 0.92391 0.0
O641 O 0.25696 0.9346 0.91184 0.0
O642 O 0.20496 0.91326 0.86829 0.0
O643 O 0.27106 0.97597 0.8945 0.0
C644 C 0.27582 0.88777 0.90383 0.0
C645 C 0.18742 0.76076 0.909 0.0
C646 C 0.16628 0.70106 0.90813 0.0
C647 C 0.18629 0.73292 0.90047 0.0
C648 C 0.14781 0.69778 0.92443 0.0
C649 C 0.16869 0.75633 0.92524 0.0
C650 C 0.14902 0.72516 0.93283 0.0
C651 C 0.23023 0.86493 0.85835 0.0
C652 C 0.2081 0.79427 0.9011 0.0
C653 C 0.10296 0.80009 0.95172 0.0
C654 C 0.08507 0.79148 0.93489 0.0
C655 C 0.18758 0.89115 0.88046 0.0
C656 C 0.26803 1.01717 0.87688 0.0
C657 C 0.25376 0.0368 0.88062 0.0
C658 C 0.26762 0.0689 0.87321 0.0
C659 C 0.29605 0.08085 0.86195 0.0
C660 C 0.29637 0.02965 0.8657 0.0
C661 C 0.31027 0.06136 0.85829 0.0
C662 C 0.23605 0.91781 0.92548 0.0
C663 C 0.25253 0.98359 0.88451 0.0
H664 H 0.20071 0.73605 0.88794 0.0
H665 H 0.13287 0.67401 0.93101 0.0
H666 H 0.16943 0.77692 0.93228 0.0
H667 H 0.13487 0.72226 0.94544 0.0
H668 H 0.23205 0.0271 0.88946 0.0
H669 H 0.3071 0.10511 0.8557 0.0
H670 H 0.30766 1.01491 0.86268 0.0
H671 H 0.33206 0.07084 0.84957 0.0
Tb672 Tb 0.71442 0.79311 0.63677 0.0
C673 C 0.71336 0.89557 0.58469 0.0
C674 C 0.74262 0.94803 0.60061 0.0
C675 C 0.743 0.94591 0.56649 0.0
C676 C 0.72368 0.91335 0.60112 0.0
C677 C 0.72202 0.91162 0.56714 0.0
C678 C 0.75321 0.96413 0.58322 0.0
C679 C 0.68462 0.85958 0.55249 0.0
N680 N 0.692 0.86279 0.58602 0.0
C681 C 0.67636 0.84493 0.57027 0.0
C682 C 0.70797 0.89298 0.55089 0.0
Tb683 Tb 0.68059 0.8405 0.61568 0.0
N684 N 0.71235 0.89684 0.61755 0.0
C685 C 0.71723 0.91397 0.63395 0.0
C686 C 0.74894 0.96548 0.61748 0.0
C687 C 0.73585 0.94837 0.63419 0.0
H688 H 0.65837 0.81906 0.57137 0.0
H689 H 0.74006 0.96166 0.64729 0.0
H690 H 0.76825 0.99071 0.58255 0.0
H691 H 0.67293 0.84511 0.54005 0.0
H692 H 0.70729 0.90137 0.64704 0.0
H693 H 0.64341 0.67038 0.60757 0.0
H694 H 0.76296 0.99214 0.61769 0.0
H695 H 0.74271 0.8172 0.68016 0.0
H696 H 0.67908 0.73028 0.60639 0.0
H697 H 0.73348 0.79275 0.71163 0.0
H698 H 0.75029 0.95871 0.55315 0.0
H699 H 0.62581 0.6419 0.63817 0.0
H700 H 0.62879 0.64538 0.67345 0.0
H701 H 0.71402 0.90436 0.53713 0.0
H702 H 0.65334 0.67879 0.70191 0.0
N703 N 0.68138 0.73675 0.63617 0.0
C704 C 0.67184 0.71862 0.61994 0.0
C705 C 0.64139 0.66844 0.63778 0.0
C706 C 0.65252 0.6868 0.65436 0.0
C707 C 0.65142 0.6844 0.6205 0.0
C708 C 0.67299 0.72125 0.65303 0.0
H709 H 0.69293 0.73377 0.71628 0.0
N710 N 0.70775 0.77253 0.66671 0.0
C711 C 0.71981 0.77764 0.69978 0.0
C712 C 0.68678 0.73982 0.66891 0.0
C713 C 0.72513 0.79138 0.6818 0.0
C714 C 0.69697 0.74433 0.70233 0.0
C715 C 0.68047 0.72483 0.68674 0.0
O716 O 0.7645 0.81148 0.64306 0.0
O717 O 0.72331 0.84017 0.62621 0.0
O718 O 0.71392 0.83624 0.59502 0.0
O719 O 0.71158 0.78847 0.60607 0.0
O720 O 0.74889 0.84088 0.64953 0.0
O721 O 0.73977 0.7728 0.62273 0.0
O722 O 0.63383 0.8292 0.6054 0.0
O723 O 0.67143 0.79364 0.62631 0.0
O724 O 0.68115 0.79505 0.65729 0.0
O725 O 0.68123 0.84256 0.64723 0.0
O726 O 0.645 0.79265 0.60348 0.0
O727 O 0.65228 0.85585 0.63118 0.0
C728 C 0.74469 0.85921 0.63782 0.0
C729 C 0.78488 0.77518 0.63921 0.0
C730 C 0.83684 0.77522 0.64323 0.0
C731 C 0.81884 0.78926 0.63567 0.0
C732 C 0.81999 0.74674 0.6544 0.0
C733 C 0.7687 0.74681 0.65031 0.0
C734 C 0.78624 0.73269 0.65783 0.0
C735 C 0.71844 0.81057 0.59271 0.0
C736 C 0.76719 0.79122 0.63172 0.0
C737 C 0.65877 0.69077 0.68832 0.0
C738 C 0.6448 0.67176 0.67213 0.0
C739 C 0.64915 0.77429 0.61521 0.0
C740 C 0.61792 0.86857 0.61306 0.0
C741 C 0.58781 0.86515 0.6195 0.0
C742 C 0.57888 0.88892 0.61471 0.0
C743 C 0.60015 0.91569 0.60335 0.0
C744 C 0.63818 0.89525 0.60144 0.0
C745 C 0.62945 0.91866 0.59668 0.0
C746 C 0.67664 0.82035 0.66041 0.0
C747 C 0.6287 0.84506 0.61881 0.0
H748 H 0.83111 0.81105 0.62694 0.0
H749 H 0.83297 0.73555 0.66078 0.0
H750 H 0.74264 0.73572 0.65323 0.0
H751 H 0.77367 0.71088 0.66649 0.0
H752 H 0.57175 0.84454 0.62839 0.0
H753 H 0.59377 0.93411 0.59936 0.0
H754 H 0.66082 0.89809 0.59602 0.0
H755 H 0.64546 0.93919 0.58776 0.0
Tb756 Tb 0.19512 0.36567 0.90334 0.0
C757 C 0.08996 0.35653 0.84808 0.0
C758 C 0.06847 0.38883 0.86218 0.0
C759 C 0.06942 0.38438 0.82817 0.0
C760 C 0.08321 0.36909 0.86384 0.0
C761 C 0.08276 0.36355 0.83002 0.0
C762 C 0.06225 0.397 0.84424 0.0
C763 C 0.1005 0.32726 0.81719 0.0
N764 N 0.10273 0.33649 0.85055 0.0
C765 C 0.10705 0.32093 0.83542 0.0
C766 C 0.08862 0.34895 0.81445 0.0
Tb767 Tb 0.11484 0.32929 0.88084 0.0
N768 N 0.08952 0.36047 0.88085 0.0
C769 C 0.07934 0.36896 0.89687 0.0
C770 C 0.05959 0.39895 0.87857 0.0
C771 C 0.06468 0.38862 0.89598 0.0
H772 H 0.11655 0.30439 0.83724 0.0
H773 H 0.05743 0.39585 0.90876 0.0
H774 H 0.05128 0.41244 0.84266 0.0
H775 H 0.10475 0.31551 0.80527 0.0
H776 H 0.08319 0.36153 0.91049 0.0
H777 H 0.26502 0.3134 0.87387 0.0
H778 H 0.0481 0.41403 0.87792 0.0
H779 H 0.19044 0.38597 0.94745 0.0
H780 H 0.23287 0.34151 0.87304 0.0
H781 H 0.20205 0.37321 0.97916 0.0
H782 H 0.06394 0.39032 0.81442 0.0
H783 H 0.27476 0.29368 0.90403 0.0
H784 H 0.26759 0.28926 0.93913 0.0
H785 H 0.08354 0.35379 0.80033 0.0
H786 H 0.2493 0.30457 0.96792 0.0
N787 N 0.22243 0.3365 0.90243 0.0
C788 C 0.23619 0.33265 0.88634 0.0
C789 C 0.26002 0.30557 0.90375 0.0
C790 C 0.24707 0.31069 0.9203 0.0
C791 C 0.25469 0.31677 0.88672 0.0
C792 C 0.22837 0.32662 0.91915 0.0
H793 H 0.22525 0.33638 0.98302 0.0
N794 N 0.20503 0.35509 0.93342 0.0
C795 C 0.20679 0.36242 0.96695 0.0
C796 C 0.21886 0.33587 0.93528 0.0
C797 C 0.2003 0.36965 0.94893 0.0
C798 C 0.21968 0.34146 0.96907 0.0
C799 C 0.22677 0.32865 0.95311 0.0
O800 O 0.22862 0.41292 0.9139 0.0
O801 O 0.15666 0.37305 0.89202 0.0
O802 O 0.15071 0.3646 0.86136 0.0
O803 O 0.1982 0.3653 0.87189 0.0
O804 O 0.18016 0.3994 0.91527 0.0
O805 O 0.23901 0.39549 0.88836 0.0
O806 O 0.08328 0.27997 0.87278 0.0
O807 O 0.15382 0.32233 0.89198 0.0
O808 O 0.15736 0.33035 0.92312 0.0
O809 O 0.11137 0.33112 0.91153 0.0
O810 O 0.13028 0.29588 0.86869 0.0
O811 O 0.07001 0.30186 0.89526 0.0
C812 C 0.15791 0.39455 0.90317 0.0
C813 C 0.28471 0.43106 0.90708 0.0
C814 C 0.34391 0.47021 0.90479 0.0
C815 C 0.31117 0.46005 0.89943 0.0
C816 C 0.34979 0.45125 0.9178 0.0
C817 C 0.29141 0.41319 0.92041 0.0
C818 C 0.32367 0.42308 0.92564 0.0
C819 C 0.18085 0.36988 0.85856 0.0
C820 C 0.2504 0.41896 0.90082 0.0
C821 C 0.24319 0.31058 0.95436 0.0
C822 C 0.2536 0.30186 0.93797 0.0
C823 C 0.15291 0.3013 0.88061 0.0
C824 C 1.02656 0.25875 0.87817 0.0
C825 C 1.00647 0.22464 0.8811 0.0
C826 C 0.97334 0.20799 0.87513 0.0
C827 C 0.96086 0.22609 0.86602 0.0
C828 C 1.0136 0.27621 0.869 0.0
C829 C 0.9809 0.25988 0.86296 0.0
C830 C 0.12674 0.32479 0.92508 0.0
C831 C 0.06079 0.27567 0.88497 0.0
H832 H 0.3064 0.47435 0.88927 0.0
H833 H 0.3747 0.45867 0.92217 0.0
H834 H 0.27176 0.39162 0.92685 0.0
H835 H 0.32843 0.40889 0.93586 0.0
H836 H 1.01648 0.21121 0.88829 0.0
H837 H 0.93567 0.21403 0.86103 0.0
H838 H 0.02867 0.3024 0.86659 0.0
H839 H 0.97102 0.27348 0.85587 0.0
Tb840 Tb 0.2504 0.92921 0.63644 0.0
C841 C 0.15198 0.82123 0.58378 0.0
C842 C 0.0996 0.79332 0.59984 0.0
C843 C 0.10116 0.79431 0.56571 0.0
C844 C 0.13427 0.81256 0.60026 0.0
C845 C 0.13573 0.81149 0.56629 0.0
C846 C 0.08311 0.785 0.58248 0.0
C847 C 0.18865 0.8308 0.55157 0.0
N848 N 0.18522 0.83603 0.58502 0.0
C849 C 0.20348 0.83909 0.5693 0.0
C850 C 0.15465 0.81743 0.55002 0.0
Tb851 Tb 0.20765 0.84821 0.61464 0.0
N852 N 0.15117 0.82028 0.61669 0.0
C853 C 0.13462 0.80786 0.63323 0.0
C854 C 0.08263 0.78178 0.61682 0.0
C855 C 0.10026 0.78893 0.63357 0.0
H856 H 0.22971 0.84882 0.57039 0.0
H857 H 0.08742 0.77972 0.64677 0.0
H858 H 0.05648 0.77052 0.58187 0.0
H859 H 0.20341 0.83433 0.53916 0.0
H860 H 0.14764 0.81264 0.64635 0.0
H861 H 0.37256 0.98659 0.60601 0.0
H862 H 0.05602 0.76676 0.6171 0.0
H863 H 0.22635 0.92957 0.68036 0.0
H864 H 0.3123 0.96036 0.60545 0.0
H865 H 0.25134 0.94358 0.71187 0.0
H866 H 0.0882 0.78681 0.55241 0.0
H867 H 0.40207 0.99757 0.63631 0.0
H868 H 0.3996 0.99679 0.67166 0.0
H869 H 0.14311 0.81038 0.53631 0.0
H870 H 0.3666 0.98534 0.70053 0.0
N871 N 0.3069 0.9553 0.63525 0.0
C872 C 0.32452 0.96494 0.61886 0.0
C873 C 0.37546 0.98596 0.63618 0.0
C874 C 0.35752 0.9779 0.65295 0.0
C875 C 0.35889 0.97989 0.61907 0.0
C876 C 0.32291 0.96266 0.65197 0.0
H877 H 0.31127 0.96584 0.71568 0.0
N878 N 0.27152 0.943 0.66629 0.0
C879 C 0.26661 0.94727 0.69967 0.0
C880 C 0.30455 0.9564 0.6681 0.0
C881 C 0.25254 0.93943 0.68173 0.0
C882 C 0.30042 0.95973 0.70177 0.0
C883 C 0.31994 0.9649 0.68584 0.0
O884 O 0.23124 0.9595 0.6447 0.0
O885 O 0.20454 0.88929 0.62562 0.0
O886 O 0.2095 0.88443 0.59388 0.0
O887 O 0.25361 0.93309 0.60569 0.0
O888 O 0.20186 0.9124 0.64926 0.0
O889 O 0.26731 0.97451 0.62263 0.0
O890 O 0.22491 0.81696 0.60499 0.0
O891 O 0.25338 0.88772 0.62554 0.0
O892 O 0.25162 0.89488 0.65639 0.0
O893 O 0.20609 0.84594 0.64617 0.0
O894 O 0.25602 0.86449 0.60204 0.0
O895 O 0.19219 0.80292 0.62852 0.0
C896 C 0.18458 0.88966 0.63736 0.0
C897 C 0.26625 1.01657 0.64051 0.0
C898 C 0.2673 0.06883 0.64531 0.0
C899 C 0.25225 0.03674 0.63772 0.0
C900 C 0.29673 0.08041 0.65556 0.0
C901 C 0.2956 0.02873 0.65074 0.0
C902 C 0.31074 0.06051 0.65819 0.0
C903 C 0.23261 0.91599 0.59215 0.0
C904 C 0.24962 0.98279 0.63296 0.0
C905 C 0.35429 0.97886 0.68703 0.0
C906 C 0.37306 0.98535 0.67059 0.0
C907 C 0.27351 0.88699 0.61404 0.0
C908 C 0.18719 0.75984 0.60875 0.0
C909 C 0.18617 0.73215 0.61739 0.0
C910 C 0.16694 0.70026 0.60951 0.0
C911 C 0.14916 0.69682 0.59292 0.0
C912 C 0.1692 0.75522 0.59218 0.0
C913 C 0.15029 0.72404 0.5844 0.0
C914 C 0.22779 0.86432 0.65939 0.0
C915 C 0.20711 0.79347 0.61678 0.0
H916 H 0.2294 0.02723 0.62994 0.0
H917 H 0.30917 0.10507 0.66138 0.0
H918 H 0.30682 1.01373 0.65296 0.0
H919 H 0.33344 0.06977 0.66605 0.0
H920 H 0.20007 0.7354 0.63015 0.0
H921 H 0.13484 0.67305 0.58619 0.0
H922 H 0.17 0.77567 0.58499 0.0
H923 H 0.13671 0.72101 0.57155 0.0
Tb924 Tb 0.67933 0.83722 0.90409 0.0
C925 C 0.68063 0.73824 0.84952 0.0
C926 C 0.64949 0.68587 0.86549 0.0
C927 C 0.6483 0.68803 0.83142 0.0
C928 C 0.67046 0.72039 0.86613 0.0
C929 C 0.67023 0.7221 0.832 0.0
C930 C 0.63792 0.66997 0.84812 0.0
C931 C 0.70573 0.77401 0.81676 0.0
N932 N 0.70176 0.77122 0.85049 0.0
C933 C 0.71539 0.78899 0.83439 0.0
C934 C 0.68272 0.74052 0.81554 0.0
Tb935 Tb 0.71361 0.79307 0.88024 0.0
N936 N 0.68201 0.73654 0.88278 0.0
C937 C 0.67559 0.71874 0.89908 0.0
C938 C 0.64127 0.66813 0.88228 0.0
C939 C 0.65483 0.68458 0.89908 0.0
H940 H 0.73245 0.81508 0.83496 0.0
H941 H 0.64919 0.67095 0.91212 0.0
H942 H 0.62153 0.64357 0.84744 0.0
H943 H 0.71583 0.7884 0.80411 0.0
H944 H 0.68521 0.73008 0.91244 0.0
H945 H 0.73057 0.96068 0.87717 0.0
H946 H 0.62513 0.64166 0.88237 0.0
H947 H 0.65985 0.81052 0.94799 0.0
H948 H 0.70289 0.90068 0.87508 0.0
H949 H 0.67351 0.83356 0.98001 0.0
H950 H 0.63977 0.67529 0.81811 0.0
H951 H 0.75441 0.98891 0.90733 0.0
H952 H 0.76073 0.9844 0.94211 0.0
H953 H 0.67524 0.72901 0.80184 0.0
H954 H 0.74505 0.94947 0.97035 0.0
N955 N 0.70901 0.89372 0.90412 0.0
C956 C 0.71255 0.91217 0.88848 0.0
C957 C 0.74177 0.96227 0.9066 0.0
C958 C 0.73693 0.94336 0.92272 0.0
C959 C 0.7287 0.9465 0.88953 0.0
C960 C 0.71969 0.90874 0.92103 0.0
H961 H 0.71176 0.89315 0.98466 0.0
N962 N 0.69117 0.85636 0.93447 0.0
C963 C 0.68435 0.84951 0.96798 0.0
C964 C 0.71076 0.88928 0.93681 0.0
C965 C 0.67663 0.83655 0.94978 0.0
C966 C 0.70608 0.88312 0.97055 0.0
C967 C 0.71895 0.90361 0.95486 0.0
O968 O 0.63208 0.8221 0.91507 0.0
O969 O 0.67019 0.79106 0.89189 0.0
O970 O 0.67999 0.7973 0.86084 0.0
O971 O 0.67692 0.84191 0.87298 0.0
O972 O 0.64542 0.78844 0.91578 0.0
O973 O 0.64999 0.85422 0.89123 0.0
O974 O 0.76041 0.81131 0.89286 0.0
O975 O 0.72214 0.83996 0.89075 0.0
O976 O 0.71494 0.83314 0.92297 0.0
O977 O 0.71188 0.78569 0.91065 0.0
O978 O 0.74336 0.84009 0.86563 0.0
O979 O 0.74539 0.77653 0.87045 0.0
C980 C 0.64899 0.77093 0.90317 0.0
C981 C 0.6143 0.86114 0.9119 0.0
C982 C 0.57608 0.88273 0.91192 0.0
C983 C 0.58761 0.86275 0.90379 0.0
C984 C 0.59175 0.90083 0.92825 0.0
C985 C 0.62913 0.87946 0.92819 0.0
C986 C 0.61802 0.89921 0.93623 0.0
C987 C 0.6731 0.82123 0.85908 0.0
C988 C 0.62641 0.84021 0.90351 0.0
C989 C 0.73818 0.93798 0.95662 0.0
C990 C 0.74711 0.95786 0.94055 0.0
C991 C 0.74092 0.85871 0.87801 0.0
C992 C 0.80209 0.8165 0.87222 0.0
C993 C 0.83106 0.82045 0.8807 0.0
C994 C 0.8621 0.84137 0.8725 0.0
C995 C 0.86379 0.85814 0.85583 0.0
C996 C 0.80454 0.83285 0.85526 0.0
C997 C 0.83517 0.85369 0.84723 0.0
C998 C 0.71966 0.80744 0.92439 0.0
C999 C 0.76963 0.79611 0.88128 0.0
H1000 H 0.57602 0.84865 0.89121 0.0
H1001 H 0.58323 0.91577 0.93519 0.0
H1002 H 0.64905 0.87826 0.93489 0.0
H1003 H 0.62961 0.91306 0.94887 0.0
H1004 H 0.82951 0.80764 0.89367 0.0
H1005 H 0.88731 0.87414 0.8492 0.0
H1006 H 0.78287 0.82957 0.84811 0.0
H1007 H 0.83672 0.86631 0.83421 0.0
H1008 H 0.14763 0.28924 0.13704 0.0
H1009 H 0.18281 0.26528 0.13296 0.0
H1010 H 0.09708 0.1683 0.13001 0.0
H1011 H 0.0617 0.19183 0.13558 0.0
H1012 H 0.13938 0.16605 0.15175 0.0
H1013 H 0.20738 0.23222 0.08818 0.0
H1014 H 0.21196 0.26103 0.10612 0.0
H1015 H 0.17175 0.23375 0.09641 0.0
C1016 C 0.1361 0.26277 0.13566 0.0
C1017 C 0.10161 0.24259 0.13678 0.0
C1018 C 0.15636 0.24911 0.13293 0.0
C1019 C 0.14274 0.21495 0.13075 0.0
C1020 C 0.10831 0.19475 0.13149 0.0
H1021 H 0.27923 0.14134 0.10517 0.0
H1022 H 0.2351 0.15497 0.10217 0.0
C1023 C 0.08801 0.20835 0.13451 0.0
C1024 C 0.16447 0.20022 0.12919 0.0
H1025 H 0.23283 0.20833 0.107 0.0
C1026 C 0.1596 0.17514 0.14181 0.0
C1027 C 0.19043 0.21121 0.11592 0.0
C1028 C 0.19542 0.23575 0.10077 0.0
C1029 C 0.18078 0.16204 0.14216 0.0
C1030 C 0.20853 0.17521 0.13008 0.0
C1031 C 0.21229 0.19888 0.11671 0.0
C1032 C 0.23464 0.16599 0.13173 0.0
C1033 C 0.17281 0.13392 0.15542 0.0
C1034 C 0.2494 0.1679 0.14923 0.0
C1035 C 0.27412 0.15972 0.15094 0.0
C1036 C 0.28578 0.15095 0.13507 0.0
C1037 C 0.27122 0.14896 0.11752 0.0
C1038 C 0.24592 0.15655 0.11585 0.0
H1039 H 0.14584 0.11884 0.15785 0.0
H1040 H 0.18175 0.11759 0.14995 0.0
H1041 H 0.18458 0.14397 0.16923 0.0
H1042 H 0.24208 0.1761 0.16161 0.0
H1043 H 0.28476 0.161 0.16465 0.0
H1044 H 0.18193 0.90342 0.37921 0.0
H1045 H 0.12252 0.86838 0.38307 0.0
H1046 H 0.11052 0.95357 0.37967 0.0
H1047 H 0.16995 0.98879 0.375 0.0
H1048 H 0.0802 0.86798 0.40999 0.0
H1049 H 0.04628 0.89381 0.33988 0.0
H1050 H 0.08815 0.90581 0.34597 0.0
H1051 H 0.06999 0.92922 0.3545 0.0
C1052 C 0.16671 0.91478 0.37906 0.0
C1053 C 0.18088 0.949 0.37653 0.0
C1054 C 0.13268 0.89468 0.38144 0.0
C1055 C 0.11186 0.90818 0.38135 0.0
C1056 C 0.12593 0.94243 0.37941 0.0
H1057 H 0.90169 0.77045 0.41178 0.0
H1058 H 0.95879 0.81587 0.41388 0.0
C1059 C 0.16004 0.96261 0.37697 0.0
C1060 C 0.07552 0.88605 0.38314 0.0
H1061 H 1.00293 0.85797 0.35957 0.0
C1062 C 0.0632 0.86563 0.39896 0.0
C1063 C 0.05333 0.88331 0.36885 0.0
C1064 C 0.065 0.90398 0.35126 0.0
C1065 C 0.02966 0.84163 0.4006 0.0
C1066 C 1.00734 0.83799 0.386 0.0
C1067 C 1.01968 0.85982 0.37063 0.0
C1068 C 0.97198 0.81059 0.38533 0.0
C1069 C 1.01929 0.82013 0.41782 0.0
C1070 C 0.95914 0.79315 0.36841 0.0
C1071 C 0.9261 0.76854 0.36697 0.0
C1072 C 0.90525 0.75928 0.38266 0.0
C1073 C 0.91767 0.77631 0.39966 0.0
C1074 C 0.95049 0.80218 0.40087 0.0
H1075 H 0.04014 0.81844 0.42403 0.0
H1076 H 1.01029 0.83086 0.42861 0.0
H1077 H 0.9994 0.79506 0.41454 0.0
H1078 H 0.97469 0.79866 0.35613 0.0
H1079 H 0.91689 0.7562 0.35361 0.0
H1080 H 0.88972 0.13679 0.10533 0.0
H1081 H 0.8695 0.07732 0.10401 0.0
H1082 H 0.87177 0.07458 0.1646 0.0
H1083 H 0.88883 0.13297 0.16582 0.0
H1084 H 0.89199 0.04022 0.11308 0.0
H1085 H 0.78307 1.00075 0.15854 0.0
H1086 H 0.80907 0.04313 0.15224 0.0
H1087 H 0.81994 0.02593 0.17164 0.0
C1088 C 0.88467 0.12308 0.11831 0.0
C1089 C 0.88886 0.13897 0.13567 0.0
C1090 C 0.87366 0.08919 0.1176 0.0
C1091 C 0.86771 0.07079 0.13425 0.0
C1092 C 0.87431 0.08745 0.15154 0.0
H1093 H 0.84725 0.87532 0.14382 0.0
H1094 H 0.86912 0.93475 0.14082 0.0
C1095 C 0.88436 0.12097 0.15224 0.0
C1096 C 0.85555 0.03453 0.13355 0.0
H1097 H 0.79884 0.96043 0.15241 0.0
C1098 C 0.87138 0.02282 0.12157 0.0
C1099 C 0.82862 1.01137 0.14461 0.0
C1100 C 0.80906 0.02096 0.15733 0.0
C1101 C 0.86132 0.98907 0.12047 0.0
C1102 C 0.835 0.96633 0.13185 0.0
C1103 C 0.81907 0.97787 0.1437 0.0
C1104 C 0.82302 0.93032 0.13174 0.0
C1105 C 0.87864 0.97799 0.10694 0.0
C1106 C 0.78981 0.90796 0.12772 0.0
C1107 C 0.77722 0.87406 0.12954 0.0
C1108 C 0.79751 0.86164 0.1355 0.0
C1109 C 0.83103 0.88401 0.13901 0.0
C1110 C 0.84361 0.91803 0.13724 0.0
H1111 H 0.89211 0.99673 0.09589 0.0
H1112 H 0.8968 0.974 0.11477 0.0
H1113 H 0.86087 0.95443 0.10005 0.0
H1114 H 0.77342 0.91682 0.12348 0.0
H1115 H 0.75144 0.85754 0.12645 0.0
H1116 H 0.2801 0.14805 0.41367 0.0
H1117 H 0.23709 0.16342 0.4162 0.0
H1118 H 0.2466 0.18529 0.35686 0.0
H1119 H 0.28835 0.16881 0.35428 0.0
H1120 H 0.23592 0.21827 0.41062 0.0
H1121 H 0.14973 0.12703 0.35994 0.0
H1122 H 0.18529 0.12588 0.36857 0.0
H1123 H 0.18899 0.15197 0.34902 0.0
C1124 C 0.27298 0.15631 0.40125 0.0
C1125 C 0.2879 0.15794 0.38385 0.0
C1126 C 0.24832 0.16491 0.40265 0.0
C1127 C 0.23796 0.17491 0.38664 0.0
C1128 C 0.25325 0.17674 0.36933 0.0
H1129 H 0.14795 0.29593 0.37928 0.0
H1130 H 0.18406 0.27313 0.38372 0.0
C1131 C 0.27741 0.16769 0.36789 0.0
C1132 C 0.21181 0.18421 0.38788 0.0
H1133 H 0.1423 0.17352 0.36591 0.0
C1134 C 0.21534 0.2083 0.40093 0.0
C1135 C 0.1841 0.17046 0.37575 0.0
C1136 C 0.1766 0.14213 0.36271 0.0
C1137 C 0.19313 0.22028 0.40143 0.0
C1138 C 0.16704 0.20849 0.3882 0.0
C1139 C 0.16255 0.18316 0.37585 0.0
C1140 C 0.1447 0.22258 0.38645 0.0
C1141 C 0.19786 0.24525 0.41629 0.0
C1142 C 0.11031 0.20188 0.38591 0.0
C1143 C 0.08944 0.2148 0.38274 0.0
C1144 C 0.10241 0.24886 0.38005 0.0
C1145 C 0.13687 0.26956 0.38097 0.0
C1146 C 0.15769 0.25657 0.3839 0.0
H1147 H 0.2102 0.24255 0.42894 0.0
H1148 H 0.21391 0.27039 0.41064 0.0
H1149 H 0.17403 0.24292 0.42064 0.0
H1150 H 0.09954 0.17554 0.38767 0.0
H1151 H 0.06319 0.19788 0.38185 0.0
H1152 H 0.18868 0.89916 0.12907 0.0
H1153 H 0.12927 0.86244 0.12613 0.0
H1154 H 0.1128 0.94194 0.14174 0.0
H1155 H 0.17239 0.97895 0.14466 0.0
H1156 H 0.08531 0.84556 0.15445 0.0
H1157 H 0.0509 0.90225 0.097 0.0
H1158 H 0.09303 0.91306 0.10156 0.0
H1159 H 0.0734 0.92994 0.11585 0.0
C1160 C 0.17247 0.90893 0.13179 0.0
C1161 C 0.18538 0.94201 0.13722 0.0
C1162 C 0.13846 0.88793 0.13 0.0
C1163 C 0.11643 0.8994 0.13352 0.0
C1164 C 0.12922 0.93261 0.13852 0.0
H1165 H 0.91228 0.76244 0.16621 0.0
H1166 H 0.9706 0.80412 0.1656 0.0
C1167 C 0.16335 0.95375 0.14025 0.0
C1168 C 0.08023 0.87576 0.13356 0.0
H1169 H 1.00685 0.85934 0.11416 0.0
C1170 C 0.06816 0.84845 0.14553 0.0
C1171 C 0.05782 0.87943 0.12192 0.0
C1172 C 0.06939 0.90758 0.10822 0.0
C1173 C 0.03452 0.82473 0.14628 0.0
C1174 C 1.01169 0.82857 0.13493 0.0
C1175 C 1.02393 0.85602 0.12287 0.0
C1176 C 0.9753 0.80456 0.13528 0.0
C1177 C 1.02452 0.79573 0.15914 0.0
C1178 C 0.95726 0.79248 0.11845 0.0
C1179 C 0.92336 0.76943 0.11882 0.0
C1180 C 0.90705 0.75711 0.136 0.0
C1181 C 0.9246 0.77036 0.15275 0.0
C1182 C 0.95812 0.79404 0.1524 0.0
H1183 H 1.01945 0.80193 0.17335 0.0
H1184 H 1.00231 0.77358 0.15403 0.0
H1185 H 0.04455 0.78974 0.16057 0.0
H1186 H 0.96944 0.80054 0.10498 0.0
H1187 H 0.90998 0.76105 0.1057 0.0
H1188 H 0.85176 0.87798 0.38049 0.0
H1189 H 0.87438 0.93661 0.38654 0.0
H1190 H 0.77705 0.92423 0.38234 0.0
H1191 H 0.75391 0.8653 0.37773 0.0
H1192 H 0.87681 0.98135 0.36481 0.0
H1193 H 0.80778 0.98072 0.42774 0.0
H1194 H 0.80714 0.94405 0.4194 0.0
H1195 H 0.77988 0.95672 0.4094 0.0
C1196 C 0.83494 0.88744 0.38138 0.0
C1197 C 0.80086 0.86656 0.3786 0.0
C1198 C 0.84802 0.92118 0.38468 0.0
C1199 C 0.82746 0.93501 0.38521 0.0
C1200 C 0.79346 0.91424 0.38254 0.0
H1201 H 0.88185 0.13198 0.353 0.0
H1202 H 0.86579 0.07388 0.35557 0.0
C1203 C 0.78029 0.88045 0.37951 0.0
C1204 C 0.84177 0.97138 0.38703 0.0
H1205 H 0.83227 0.03065 0.40944 0.0
C1206 C 0.86722 0.99207 0.37473 0.0
C1207 C 0.83006 0.98578 0.40026 0.0
C1208 C 0.80499 0.96564 0.41508 0.0
C1209 C 0.88009 0.02631 0.37466 0.0
C1210 C 0.86633 0.04035 0.38673 0.0
C1211 C 0.84219 0.01995 0.39976 0.0
C1212 C 0.87561 0.07571 0.38543 0.0
C1213 C 0.90859 0.04701 0.36172 0.0
C1214 C 0.88514 0.09601 0.40149 0.0
C1215 C 0.8934 0.12913 0.40008 0.0
C1216 C 0.89193 0.14231 0.38264 0.0
C1217 C 0.88279 0.12219 0.36662 0.0
C1218 C 0.87402 0.08909 0.36806 0.0
H1219 H 0.92373 0.03523 0.35914 0.0
H1220 H 0.89892 0.04939 0.34793 0.0
H1221 H 0.92477 0.07202 0.36756 0.0
H1222 H 0.88645 0.08633 0.41507 0.0
H1223 H 0.90124 0.14447 0.41255 0.0
H1224 H 0.24154 0.07964 0.61316 0.0
H1225 H 0.22099 0.11821 0.60886 0.0
H1226 H 0.23868 0.14459 0.6675 0.0
H1227 H 0.25951 0.1066 0.6718 0.0
H1228 H 0.17039 0.12338 0.62475 0.0
H1229 H 0.28907 0.23371 0.64275 0.0
H1230 H 0.28554 0.19419 0.63826 0.0
H1231 H 0.27523 0.20338 0.66102 0.0
C1232 C 0.24083 0.09353 0.62514 0.0
C1233 C 0.2526 0.09038 0.64277 0.0
C1234 C 0.22919 0.11564 0.62266 0.0
C1235 C 0.22907 0.13498 0.63775 0.0
C1236 C 0.2395 0.13078 0.6555 0.0
H1237 H 0.16859 0.27445 0.66551 0.0
H1238 H 0.1863 0.2334 0.66386 0.0
C1239 C 0.25133 0.10895 0.65796 0.0
C1240 C 0.21814 0.15962 0.63512 0.0
H1241 H 0.24157 0.24022 0.64328 0.0
C1242 C 0.18611 0.14905 0.62851 0.0
C1243 C 0.23872 0.19323 0.63986 0.0
C1244 C 0.27416 0.20688 0.64567 0.0
C1245 C 0.17365 0.17083 0.62742 0.0
C1246 C 0.19381 0.20405 0.63297 0.0
C1247 C 0.22609 0.21477 0.63905 0.0
C1248 C 0.18152 0.22778 0.63365 0.0
C1249 C 0.13861 0.1579 0.62107 0.0
C1250 C 0.17278 0.2382 0.6172 0.0
C1251 C 0.16294 0.26196 0.61813 0.0
C1252 C 0.16215 0.27589 0.63549 0.0
C1253 C 0.16979 0.2646 0.65193 0.0
C1254 C 0.1798 0.24113 0.651 0.0
H1255 H 0.1245 0.13057 0.62047 0.0
H1256 H 0.12573 0.16649 0.63065 0.0
H1257 H 0.13868 0.16748 0.60681 0.0
H1258 H 0.17419 0.22847 0.60364 0.0
H1259 H 0.15614 0.26957 0.60533 0.0
H1260 H 0.15803 0.89355 0.91335 0.0
H1261 H 0.10218 0.88492 0.91696 0.0
H1262 H 0.0831 0.85822 0.85831 0.0
H1263 H 0.13949 0.86925 0.85453 0.0
H1264 H 0.06399 0.89811 0.86496 0.0
H1265 H 1.01423 0.80828 0.92345 0.0
H1266 H 0.04983 0.84636 0.93014 0.0
H1267 H 0.05345 0.82049 0.91278 0.0
C1268 C 0.14159 0.8853 0.90137 0.0
C1269 C 0.15274 0.88146 0.88372 0.0
C1270 C 0.10953 0.88014 0.90344 0.0
C1271 C 0.08784 0.87033 0.88799 0.0
C1272 C 0.09908 0.86582 0.8705 0.0
H1273 H 0.87784 0.79355 0.87924 0.0
H1274 H 0.933 0.80184 0.88557 0.0
C1275 C 0.13128 0.87195 0.86832 0.0
C1276 C 0.05449 0.86726 0.88927 0.0
H1277 H 0.98103 0.83031 0.91301 0.0
C1278 C 0.04592 0.88309 0.87546 0.0
C1279 C 0.03065 0.84801 0.90306 0.0
C1280 C 0.03735 0.82959 0.91812 0.0
C1281 C 1.01434 0.87942 0.87461 0.0
C1282 C 0.99066 0.86035 0.88841 0.0
C1283 C 0.99923 0.84505 0.90249 0.0
C1284 C 0.95652 0.85491 0.88778 0.0
C1285 C 1.00637 0.89509 0.85844 0.0
C1286 C 0.95104 0.88174 0.88787 0.0
C1287 C 0.91972 0.87706 0.88405 0.0
C1288 C 0.8931 0.84535 0.88052 0.0
C1289 C 0.89793 0.8182 0.88202 0.0
C1290 C 0.92945 0.82295 0.88557 0.0
H1291 H 1.02396 0.90122 0.8466 0.0
H1292 H 0.98107 0.87858 0.85308 0.0
H1293 H 1.00794 0.91833 0.8633 0.0
H1294 H 0.97131 0.90652 0.89006 0.0
H1295 H 0.91655 0.89836 0.88308 0.0
H1296 H 0.77573 0.89287 0.60563 0.0
H1297 H 0.8192 0.95106 0.60325 0.0
H1298 H 0.81286 0.96226 0.66306 0.0
H1299 H 0.77042 0.90426 0.66545 0.0
H1300 H 0.81969 1.00699 0.61061 0.0
H1301 H 0.90988 1.00104 0.65761 0.0
H1302 H 0.87403 0.96449 0.64901 0.0
H1303 H 0.87123 0.98575 0.66946 0.0
C1304 C 0.78364 0.90795 0.61819 0.0
C1305 C 0.76929 0.89446 0.63567 0.0
C1306 C 0.80859 0.94108 0.61687 0.0
C1307 C 0.81987 0.96105 0.63303 0.0
C1308 C 0.80539 0.94732 0.65045 0.0
H1309 H 0.93287 0.16171 0.66766 0.0
H1310 H 0.8975 0.10229 0.66354 0.0
C1311 C 0.78085 0.91426 0.65179 0.0
C1312 C 0.84582 0.99652 0.63185 0.0
H1313 H 0.91655 0.05508 0.65305 0.0
C1314 C 0.84094 1.01743 0.61981 0.0
C1315 C 0.87422 1.01025 0.64344 0.0
C1316 C 0.88284 0.9891 0.65543 0.0
C1317 C 0.86222 0.05178 0.62007 0.0
C1318 C 0.88952 0.06558 0.63243 0.0
C1319 C 0.89535 0.04456 0.64377 0.0
C1320 C 0.91135 0.10181 0.63459 0.0
C1321 C 0.8545 0.07317 0.60772 0.0
C1322 C 0.93129 0.12136 0.61975 0.0
C1323 C 0.95162 0.15548 0.62206 0.0
C1324 C 0.95231 0.17074 0.63926 0.0
C1325 C 0.93258 0.15092 0.65414 0.0
C1326 C 0.91247 0.11689 0.65185 0.0
H1327 H 0.82934 0.0593 0.60163 0.0
H1328 H 0.85669 0.09447 0.61579 0.0
H1329 H 0.87246 0.08295 0.59598 0.0
H1330 H 0.93122 0.11022 0.60639 0.0
H1331 H 0.96636 0.16998 0.61029 0.0
H1332 H 0.14946 0.26629 0.91219 0.0
H1333 H 0.16224 0.22167 0.91446 0.0
H1334 H 0.19739 0.24025 0.85713 0.0
H1335 H 0.18102 0.28192 0.85439 0.0
H1336 H 0.1659 0.18074 0.86019 0.0
H1337 H 0.24135 0.21978 0.9252 0.0
H1338 H 0.1989 0.20685 0.92956 0.0
H1339 H 0.22376 0.24299 0.9158 0.0
C1340 C 0.16032 0.26094 0.90022 0.0
C1341 C 0.16513 0.27803 0.88325 0.0
C1342 C 0.16787 0.23553 0.90153 0.0
C1343 C 0.18172 0.2277 0.88613 0.0
C1344 C 0.18674 0.24536 0.86928 0.0
H1345 H 0.29909 0.13535 0.88012 0.0
H1346 H 0.27465 0.17027 0.88429 0.0
C1347 C 0.17772 0.2695 0.86773 0.0
C1348 C 0.18978 0.20043 0.88681 0.0
H1349 H 0.23219 0.17027 0.91103 0.0
C1350 C 0.1806 0.17879 0.87133 0.0
C1351 C 0.20815 0.19668 0.90154 0.0
C1352 C 0.21881 0.21794 0.91889 0.0
C1353 C 0.19083 0.15538 0.86957 0.0
C1354 C 0.20998 0.15251 0.88398 0.0
C1355 C 0.21776 0.17274 0.8999 0.0
C1356 C 0.22423 0.13046 0.8822 0.0
C1357 C 0.18222 0.13495 0.85186 0.0
C1358 C 0.20407 0.09627 0.87997 0.0
C1359 C 0.21803 0.07619 0.87731 0.0
C1360 C 0.25249 0.08985 0.87698 0.0
C1361 C 0.27252 0.12399 0.87987 0.0
C1362 C 0.25855 0.144 0.88244 0.0
H1363 H 0.17395 0.14529 0.84045 0.0
H1364 H 0.20365 0.13318 0.84671 0.0
H1365 H 0.16187 0.10968 0.85489 0.0
H1366 H 0.17751 0.08511 0.88011 0.0
H1367 H 0.20179 0.05007 0.87507 0.0
H1368 H 0.13752 0.86398 0.66392 0.0
H1369 H 0.07947 0.8476 0.66114 0.0
H1370 H 0.09509 0.8786 0.60307 0.0
H1371 H 0.15253 0.89147 0.60548 0.0
H1372 H 0.05085 0.87831 0.65696 0.0
H1373 H 1.01426 0.79838 0.59372 0.0
H1374 H 0.05499 0.81643 0.60333 0.0
H1375 H 0.04398 0.8404 0.58855 0.0
C1376 C 0.12822 0.86644 0.65044 0.0
C1377 C 0.14911 0.87787 0.63477 0.0
C1378 C 0.09503 0.85738 0.64885 0.0
C1379 C 0.08209 0.86115 0.63177 0.0
C1380 C 0.10355 0.87392 0.61622 0.0
H1381 H 0.88405 0.84101 0.64123 0.0
H1382 H 0.94342 0.86507 0.63658 0.0
C1383 C 0.13655 0.88154 0.6176 0.0
C1384 C 0.04665 0.85278 0.63094 0.0
H1385 H 0.97398 0.80851 0.60699 0.0
C1386 C 0.03417 0.86285 0.64601 0.0
C1387 C 1.02445 0.83329 0.61649 0.0
C1388 C 0.03501 0.8213 0.59967 0.0
C1389 C 1.00048 0.85256 0.64764 0.0
C1390 C 0.97841 0.83247 0.63346 0.0
C1391 C 0.99088 0.82371 0.61793 0.0
C1392 C 0.94206 0.8183 0.63508 0.0
C1393 C 0.98869 0.86216 0.665 0.0
C1394 C 0.92121 0.78399 0.63501 0.0
C1395 C 0.88718 0.77013 0.63729 0.0
C1396 C 0.87303 0.79023 0.63976 0.0
C1397 C 0.89391 0.82467 0.6393 0.0
C1398 C 0.92801 0.83853 0.63689 0.0
H1399 H 1.00723 0.87079 0.67648 0.0
H1400 H 0.98407 0.88254 0.66149 0.0
H1401 H 0.96535 0.84113 0.6703 0.0
H1402 H 0.93136 0.76781 0.63347 0.0
H1403 H 0.87195 0.74357 0.63713 0.0
H1404 H 0.90961 0.17564 0.88756 0.0
H1405 H 0.87253 0.11629 0.89037 0.0
H1406 H 0.95045 0.09906 0.87221 0.0
H1407 H 0.98785 0.1586 0.86959 0.0
H1408 H 0.85281 0.07267 0.86232 0.0
H1409 H 0.91373 0.03665 0.91639 0.0
H1410 H 0.92507 0.07899 0.91224 0.0
H1411 H 0.94002 0.05871 0.89699 0.0
C1412 C 0.91895 0.15924 0.88428 0.0
C1413 C 0.95168 0.1719 0.87825 0.0
C1414 C 0.89775 0.12528 0.88597 0.0
C1415 C 0.90867 0.10306 0.88169 0.0
C1416 C 0.94156 0.11561 0.87603 0.0
H1417 H 0.76801 0.90029 0.84885 0.0
H1418 H 0.81028 0.95842 0.84948 0.0
C1419 C 0.96291 0.14969 0.87446 0.0
C1420 C 0.88477 0.06693 0.88166 0.0
H1421 H 0.86964 0.99301 0.89951 0.0
C1422 C 0.85637 0.05527 0.87058 0.0
C1423 C 0.88929 0.04418 0.89247 0.0
C1424 C 0.91851 0.05523 0.90534 0.0
C1425 C 0.83243 0.02172 0.86989 0.0
C1426 C 0.83721 0.99858 0.88029 0.0
C1427 C 0.86568 1.01037 0.89149 0.0
C1428 C 0.81308 0.9623 0.87986 0.0
C1429 C 0.80217 1.01208 0.85814 0.0
C1430 C 0.80219 0.94393 0.89662 0.0
C1431 C 0.77886 0.91016 0.8962 0.0
C1432 C 0.76507 0.89438 0.87907 0.0
C1433 C 0.77715 0.91224 0.86231 0.0
C1434 C 0.80116 0.94562 0.86268 0.0
H1435 H 0.80697 1.00743 0.84349 0.0
H1436 H 0.78045 0.98969 0.86352 0.0
H1437 H 0.79616 0.03218 0.85767 0.0
H1438 H 0.81136 0.95577 0.9101 0.0
H1439 H 0.77133 0.8965 0.90925 0.0
H1440 H 0.41417 0.16211 0.33347 0.0
H1441 H 0.41661 0.17185 0.29973 0.0
H1442 H 0.36594 0.22653 0.30717 0.0
H1443 H 0.36318 0.2166 0.34128 0.0
H1444 H 0.35469 0.14839 0.27916 0.0
H1445 H 0.44329 0.28186 0.26823 0.0
H1446 H 0.4453 0.26008 0.28867 0.0
H1447 H 0.413 0.26979 0.28666 0.0
C1448 C 0.40423 0.17694 0.32804 0.0
C1449 C 0.38841 0.18854 0.34008 0.0
C1450 C 0.40565 0.18246 0.30871 0.0
C1451 C 0.39155 0.19997 0.30089 0.0
C1452 C 0.37736 0.2133 0.31293 0.0
H1453 H 0.36264 0.21348 0.17878 0.0
H1454 H 0.36559 0.22404 0.21284 0.0
C1455 C 0.3759 0.20773 0.33242 0.0
C1456 C 0.38857 0.20058 0.28008 0.0
H1457 H 0.41966 0.24934 0.24112 0.0
C1458 C 0.36867 0.17055 0.27087 0.0
C1459 C 0.40657 0.22951 0.26928 0.0
C1460 C 0.42842 0.26225 0.27858 0.0
C1461 C 0.36693 0.16845 0.25119 0.0
C1462 C 0.38616 0.19704 0.24028 0.0
C1463 C 0.40508 0.22741 0.24946 0.0
C1464 C 0.38829 0.19489 0.21947 0.0
C1465 C 0.34474 0.13543 0.24221 0.0
C1466 C 0.40126 0.17617 0.21182 0.0
C1467 C 0.39967 0.17021 0.19251 0.0
C1468 C 0.3852 0.18293 0.18029 0.0
C1469 C 0.37409 0.20347 0.18777 0.0
C1470 C 0.37563 0.2094 0.20725 0.0
H1471 H 0.32512 0.11845 0.25201 0.0
H1472 H 0.33299 0.13815 0.22931 0.0
H1473 H 0.35963 0.12394 0.23825 0.0
H1474 H 0.41162 0.16515 0.22091 0.0
H1475 H 0.40879 0.15457 0.18724 0.0
H1476 H 0.77938 0.63556 0.33213 0.0
H1477 H 0.78557 0.63004 0.29854 0.0
H1478 H 0.89052 0.67345 0.30563 0.0
H1479 H 0.88449 0.67959 0.33951 0.0
H1480 H 0.87273 0.70288 0.2771 0.0
H1481 H 0.80462 0.56753 0.2683 0.0
H1482 H 0.78146 0.58226 0.28101 0.0
H1483 H 0.81894 0.58708 0.29092 0.0
C1484 C 0.80378 0.64339 0.32665 0.0
C1485 C 0.83146 0.65794 0.33856 0.0
C1486 C 0.80724 0.64003 0.3074 0.0
C1487 C 0.83845 0.6509 0.29951 0.0
C1488 C 0.86614 0.66462 0.31141 0.0
H1489 H 0.88542 0.67769 0.17782 0.0
H1490 H 0.89126 0.67244 0.21173 0.0
C1491 C 0.86265 0.66787 0.3308 0.0
C1492 C 0.842 0.65022 0.27869 0.0
H1493 H 0.81221 0.59944 0.24041 0.0
C1494 C 0.86007 0.68021 0.26907 0.0
C1495 C 0.82533 0.62067 0.26818 0.0
C1496 C 0.80676 0.58753 0.27764 0.0
C1497 C 0.86047 0.68161 0.24929 0.0
C1498 C 0.84283 0.65214 0.23879 0.0
C1499 C 0.82575 0.62204 0.24841 0.0
C1500 C 0.83948 0.65235 0.21794 0.0
C1501 C 0.87828 0.7148 0.23981 0.0
C1502 C 0.80832 0.64145 0.21 0.0
C1503 C 0.80491 0.64408 0.19066 0.0
C1504 C 0.83258 0.65767 0.17873 0.0
C1505 C 0.8636 0.66702 0.18654 0.0
C1506 C 0.86702 0.66439 0.20598 0.0
H1507 H 0.88529 0.73534 0.24991 0.0
H1508 H 0.90111 0.71802 0.23314 0.0
H1509 H 0.86272 0.71655 0.22862 0.0
H1510 H 0.78668 0.63193 0.21887 0.0
H1511 H 0.78059 0.63638 0.18512 0.0
H1512 H 0.89557 0.2652 0.1856 0.0
H1513 H 0.8855 0.25873 0.21936 0.0
H1514 H 0.82166 0.15421 0.212 0.0
H1515 H 0.83163 0.16053 0.17792 0.0
H1516 H 0.79943 0.18496 0.24011 0.0
H1517 H 0.92912 0.21643 0.2505 0.0
H1518 H 0.92495 0.24629 0.23683 0.0
H1519 H 0.90908 0.20516 0.22787 0.0
C1520 C 0.87895 0.24084 0.19106 0.0
C1521 C 0.86463 0.21332 0.17903 0.0
C1522 C 0.8733 0.23719 0.21041 0.0
C1523 C 0.85334 0.20591 0.21827 0.0
C1524 C 0.83728 0.17857 0.20624 0.0
H1525 H 0.83134 0.15876 0.33981 0.0
H1526 H 0.82124 0.15218 0.3057 0.0
C1527 C 0.84287 0.18223 0.18674 0.0
C1528 C 0.85141 0.20202 0.23909 0.0
H1529 H 0.90016 0.21743 0.27778 0.0
C1530 C 0.8213 0.19159 0.24837 0.0
C1531 C 0.87991 0.21036 0.24988 0.0
C1532 C 0.91255 0.21988 0.24078 0.0
C1533 C 0.81943 0.19101 0.26818 0.0
C1534 C 0.84833 0.20092 0.27887 0.0
C1535 C 0.87806 0.21006 0.26956 0.0
C1536 C 0.84925 0.20435 0.29968 0.0
C1537 C 0.78702 0.18118 0.27761 0.0
C1538 C 0.86767 0.2358 0.30763 0.0
C1539 C 0.87331 0.23958 0.32696 0.0
C1540 C 0.86092 0.21197 0.33885 0.0
C1541 C 0.84089 0.1805 0.33106 0.0
C1542 C 0.83519 0.17671 0.31157 0.0
H1543 H 0.76754 0.17728 0.26735 0.0
H1544 H 0.77875 0.15799 0.28555 0.0
H1545 H 0.79003 0.20041 0.28784 0.0
H1546 H 0.87883 0.25745 0.29875 0.0
H1547 H 0.88872 0.2642 0.33249 0.0
H1548 H 0.22136 0.35356 0.67811 0.0
H1549 H 0.23128 0.3571 0.71222 0.0
H1550 H 0.17027 0.40107 0.71939 0.0
H1551 H 0.16027 0.3976 0.68563 0.0
H1552 H 0.25505 0.41066 0.74024 0.0
H1553 H 0.1243 0.31523 0.75067 0.0
H1554 H 0.14427 0.32341 0.72803 0.0
H1555 H 0.12953 0.34964 0.73697 0.0
C1556 C 0.21073 0.36468 0.68692 0.0
C1557 C 0.18977 0.37499 0.67917 0.0
C1558 C 0.2163 0.36656 0.70642 0.0
C1559 C 0.201 0.37877 0.7184 0.0
C1560 C 0.18187 0.39102 0.71049 0.0
H1561 H 0.16563 0.40238 0.83263 0.0
H1562 H 0.17557 0.40548 0.79887 0.0
C1563 C 0.17625 0.38908 0.69114 0.0
C1564 C 0.20281 0.37685 0.73923 0.0
H1565 H 0.15371 0.34488 0.77792 0.0
C1566 C 0.23303 0.39595 0.74851 0.0
C1567 C 0.17411 0.35742 0.75002 0.0
C1568 C 0.14125 0.33499 0.74093 0.0
C1569 C 0.23487 0.39739 0.76832 0.0
C1570 C 0.20582 0.37912 0.77902 0.0
C1571 C 0.17594 0.35909 0.7697 0.0
C1572 C 0.20495 0.38174 0.79983 0.0
C1573 C 0.26746 0.41941 0.77772 0.0
C1574 C 0.21892 0.36809 0.81174 0.0
C1575 C 0.21323 0.36625 0.83123 0.0
C1576 C 0.19329 0.37782 0.839 0.0
C1577 C 0.18101 0.39312 0.8271 0.0
C1578 C 0.18666 0.39493 0.80777 0.0
H1579 H 0.28697 0.43492 0.76746 0.0
H1580 H 0.26488 0.43568 0.78812 0.0
H1581 H 0.27544 0.40406 0.78546 0.0
H1582 H 0.23276 0.35736 0.80589 0.0
H1583 H 0.22267 0.35397 0.83999 0.0
H1584 H 0.17336 0.82056 0.83995 0.0
H1585 H 0.16692 0.8082 0.80611 0.0
H1586 H 0.27158 0.87092 0.79844 0.0
H1587 H 0.27817 0.88287 0.832 0.0
H1588 H 0.18371 0.85533 0.77749 0.0
H1589 H 0.25306 0.78942 0.76821 0.0
H1590 H 0.23883 0.79445 0.79091 0.0
H1591 H 0.27599 0.82737 0.78088 0.0
C1592 C 0.19507 0.83092 0.83113 0.0
C1593 C 0.22628 0.85259 0.83872 0.0
C1594 C 0.19134 0.82406 0.81175 0.0
C1595 C 0.21881 0.83831 0.79969 0.0
C1596 C 0.25007 0.85904 0.80741 0.0
H1597 H 0.276 0.88344 0.68567 0.0
H1598 H 0.26975 0.8719 0.71928 0.0
C1599 C 0.25377 0.86599 0.82666 0.0
C1600 C 0.21495 0.83395 0.77888 0.0
H1601 H 0.24476 0.81344 0.7404 0.0
C1602 C 0.19648 0.84553 0.76938 0.0
C1603 C 0.23174 0.82132 0.76825 0.0
C1604 C 0.25077 0.80713 0.77759 0.0
C1605 C 0.19583 0.8465 0.7496 0.0
C1606 C 0.21362 0.83497 0.73897 0.0
C1607 C 0.23107 0.82223 0.74849 0.0
C1608 C 0.21706 0.83893 0.71814 0.0
C1609 C 0.17765 0.86159 0.74023 0.0
C1610 C 0.18967 0.82341 0.70607 0.0
C1611 C 0.19319 0.82998 0.68667 0.0
C1612 C 0.22418 0.85226 0.67905 0.0
C1613 C 0.25172 0.86633 0.69107 0.0
C1614 C 0.24821 0.85973 0.71034 0.0
H1615 H 0.17022 0.87466 0.75042 0.0
H1616 H 0.19314 0.87925 0.72916 0.0
H1617 H 0.15505 0.84189 0.73343 0.0
H1618 H 0.16544 0.80682 0.71171 0.0
H1619 H 0.17149 0.81885 0.67785 0.0
H1620 H 0.69128 0.87798 0.67884 0.0
H1621 H 0.68754 0.88507 0.71288 0.0
H1622 H 0.64245 0.78015 0.72056 0.0
H1623 H 0.6461 0.77292 0.6869 0.0
H1624 H 0.63333 0.85594 0.74077 0.0
H1625 H 0.72804 0.81996 0.75227 0.0
H1626 H 0.72055 0.83198 0.72953 0.0
H1627 H 0.69388 0.79101 0.73828 0.0
C1628 C 0.67988 0.8564 0.68774 0.0
C1629 C 0.66929 0.82493 0.68015 0.0
C1630 C 0.67788 0.86049 0.7072 0.0
C1631 C 0.66526 0.83319 0.71933 0.0
C1632 C 0.65279 0.80165 0.71156 0.0
H1633 H 0.6378 0.77419 0.83331 0.0
H1634 H 0.63482 0.78154 0.79959 0.0
C1635 C 0.65484 0.79757 0.69226 0.0
C1636 C 0.66695 0.83726 0.74015 0.0
H1637 H 0.698 0.82014 0.77923 0.0
C1638 C 0.64782 0.84861 0.74921 0.0
C1639 C 0.6861 0.82795 0.75118 0.0
C1640 C 0.70858 0.81734 0.74235 0.0
C1641 C 0.64608 0.84918 0.76902 0.0
C1642 C 0.66398 0.83829 0.77993 0.0
C1643 C 0.68407 0.82825 0.77085 0.0
C1644 C 0.66081 0.83474 0.80073 0.0
C1645 C 0.62412 0.86006 0.7782 0.0
C1646 C 0.67561 0.86226 0.81274 0.0
C1647 C 0.67732 0.8581 0.83221 0.0
C1648 C 0.66446 0.82635 0.83983 0.0
C1649 C 0.6479 0.79896 0.82787 0.0
C1650 C 0.64622 0.80311 0.80856 0.0
H1651 H 0.60971 0.86527 0.76776 0.0
H1652 H 0.60681 0.84076 0.78804 0.0
H1653 H 0.63938 0.8827 0.78656 0.0
H1654 H 0.68741 0.88691 0.80696 0.0
H1655 H 0.69068 0.87964 0.84102 0.0
H1656 H 0.2449 0.90301 0.96166 0.0
H1657 H 0.25866 0.93847 0.98948 0.0
H1658 H 0.25208 1.01187 0.95639 0.0
H1659 H 0.23799 0.97629 0.92864 0.0
H1660 H 0.31596 1.0053 0.99046 0.0
H1661 H 0.19902 1.00435 1.00539 0.0
H1662 H 0.20022 0.97205 0.99213 0.0
H1663 H 0.21296 1.01119 0.98138 0.0
C1664 C 0.24511 0.92606 0.96047 0.0
C1665 C 0.23954 0.93644 0.94304 0.0
C1666 C 0.25343 0.94658 0.97634 0.0
C1667 C 0.25604 0.97775 0.97513 0.0
C1668 C 0.24969 0.98778 0.95781 0.0
H1669 H 0.31551 0.13552 0.06064 0.0
H1670 H 0.29671 0.10398 0.03109 0.0
C1671 C 0.24171 0.96743 0.94194 0.0
C1672 C 0.26805 1.00084 0.9915 0.0
H1673 H 0.24547 0.04052 0.02353 0.0
C1674 C 0.30051 1.01294 0.9977 0.0
C1675 C 0.24816 1.0114 1.00073 0.0
C1676 C 0.21305 0.99902 0.99473 0.0
C1677 C 0.31354 0.03503 0.0129 0.0
C1678 C 0.29332 0.0447 0.02264 0.0
C1679 C 0.26104 0.0332 0.01615 0.0
C1680 C 0.30454 0.06447 0.0404 0.0
C1681 C 0.34912 0.04809 0.01821 0.0
C1682 C 0.31461 0.05267 0.05561 0.0
C1683 C 0.32569 0.07072 0.07226 0.0
C1684 C 0.32674 0.10113 0.07445 0.0
C1685 C 0.31581 0.11267 0.05938 0.0
C1686 C 0.30479 0.09449 0.04252 0.0
H1687 H 0.36379 0.04784 1.006 0.0
H1688 H 0.36056 0.07363 0.02373 0.0
H1689 H 0.35049 0.03214 0.02926 0.0
H1690 H 0.31377 0.0292 0.05466 0.0
H1691 H 0.33336 0.06046 0.08346 0.0
H1692 H 0.81688 0.7675 0.42841 0.0
H1693 H 0.80451 0.78991 0.45631 0.0
H1694 H 0.8038 0.71319 0.49001 0.0
H1695 H 0.8166 0.6911 0.4621 0.0
H1696 H 0.75167 0.76296 0.47757 0.0
H1697 H 0.85788 0.79056 0.5232 0.0
H1698 H 0.8571 0.78099 0.49857 0.0
H1699 H 0.83672 0.74848 0.51556 0.0
C1700 C 0.81474 0.7558 0.44185 0.0
C1701 C 0.81853 0.72793 0.44309 0.0
C1702 C 0.80755 0.76859 0.45782 0.0
C1703 C 0.80368 0.75372 0.47548 0.0
C1704 C 0.80768 0.72592 0.47676 0.0
H1705 H 0.72512 0.75779 0.58319 0.0
H1706 H 0.74685 0.74798 0.55452 0.0
C1707 C 0.81522 0.7133 0.46076 0.0
C1708 C 0.79337 0.76601 0.49218 0.0
H1709 H 0.81143 0.78914 0.53827 0.0
C1710 C 0.76507 0.76911 0.49075 0.0
C1711 C 0.81076 0.77428 0.50945 0.0
C1712 C 0.84248 0.77375 0.51176 0.0
C1713 C 0.75309 0.77892 0.50619 0.0
C1714 C 0.76987 0.78606 0.52359 0.0
C1715 C 0.79853 0.78369 0.52494 0.0
C1716 C 0.75654 0.79314 0.54097 0.0
C1717 C 0.72181 0.78033 0.50403 0.0
C1718 C 0.75473 0.82208 0.5431 0.0
C1719 C 0.74229 0.82805 0.55978 0.0
C1720 C 0.7312 0.80506 0.57459 0.0
C1721 C 0.73317 0.7762 0.57224 0.0
C1722 C 0.74573 0.77044 0.55576 0.0
H1723 H 0.70927 0.76969 0.49045 0.0
H1724 H 0.70451 0.76685 0.51569 0.0
H1725 H 0.72772 0.80636 0.5047 0.0
H1726 H 0.76332 0.84023 0.53197 0.0
H1727 H 0.7418 0.85078 0.56116 0.0
H1728 H 0.06692 0.31736 0.9344 0.0
H1729 H 0.03522 0.29513 0.96296 0.0
H1730 H 0.11133 0.27906 0.98549 0.0
H1731 H 0.14361 0.30126 0.95648 0.0
H1732 H 1.01139 0.23147 0.97867 0.0
H1733 H 0.09508 0.3312 0.02754 0.0
H1734 H 0.09785 0.33642 1.00234 0.0
H1735 H 0.11302 0.3123 0.01345 0.0
C1736 C 0.07728 0.30928 0.94534 0.0
C1737 C 0.10825 0.31157 0.94306 0.0
C1738 C 0.05889 0.29644 0.96174 0.0
C1739 C 0.07086 0.28563 0.9765 0.0
C1740 C 0.10174 0.28771 0.97441 0.0
H1741 H 0.98308 0.22157 0.08842 0.0
H1742 H 1.01796 0.23364 0.06055 0.0
C1743 C 0.12023 0.30048 0.95782 0.0
C1744 C 0.05038 0.27198 0.9938 0.0
H1745 H 0.04587 0.2885 0.04018 0.0
C1746 C 1.01904 0.2438 0.99217 0.0
C1747 C 0.06029 0.28798 0.01142 0.0
C1748 C 0.09328 0.31879 0.01392 0.0
C1749 C 0.99731 0.23136 1.00757 0.0
C1750 C 1.00674 0.248 0.02507 0.0
C1751 C 0.03846 0.27572 0.02681 0.0
C1752 C 0.984 0.23764 0.04164 0.0
C1753 C 0.96458 0.20031 1.00494 0.0
C1754 C 0.953 0.23553 0.04044 0.0
C1755 C 0.93285 0.22826 0.05639 0.0
C1756 C 0.94333 0.22314 0.0739 0.0
C1757 C 0.97414 0.22494 0.07505 0.0
C1758 C 0.99417 0.232 0.05913 0.0
H1759 H 0.96544 0.18518 0.99315 0.0
H1760 H 0.95689 0.18509 0.01789 0.0
H1761 H 0.94555 0.20697 1.00151 0.0
H1762 H 0.9449 0.24082 0.02733 0.0
H1763 H 0.91008 0.22863 0.05518 0.0
H1764 H 0.31422 0.13582 0.45859 0.0
H1765 H 0.29506 0.10332 0.48775 0.0
H1766 H 0.30884 0.02757 0.46238 0.0
H1767 H 0.32876 0.05974 0.4339 0.0
H1768 H 0.24266 0.04017 0.49487 0.0
H1769 H 0.35971 0.04347 0.5106 0.0
H1770 H 0.35698 0.07031 0.49345 0.0
H1771 H 0.3455 0.02865 0.48729 0.0
C1772 C 0.31371 0.11252 0.45936 0.0
C1773 C 0.3239 0.10101 0.44389 0.0
C1774 C 0.30248 0.0938 0.476 0.0
C1775 C 0.30123 0.06322 0.47751 0.0
C1776 C 0.31045 0.05142 0.46189 0.0
H1777 H 0.2422 0.90141 0.55599 0.0
H1778 H 0.25589 0.93676 0.52821 0.0
C1779 C 0.32174 0.07 0.44545 0.0
C1780 C 0.28991 0.04297 0.49509 0.0
H1781 H 0.31184 1.00196 0.52645 0.0
C1782 C 0.25794 0.03216 0.50192 0.0
C1783 C 0.30974 0.03238 0.50439 0.0
C1784 C 0.345 0.04458 0.49868 0.0
C1785 C 0.24497 1.01022 0.51725 0.0
C1786 C 0.26449 0.99886 0.52611 0.0
C1787 C 0.29664 1.01021 0.51953 0.0
C1788 C 0.25246 0.97574 0.54247 0.0
C1789 C 0.21012 0.99857 0.52352 0.0
C1790 C 0.24563 0.98556 0.55975 0.0
C1791 C 0.23757 0.9652 0.5756 0.0
C1792 C 0.23583 0.93439 0.57454 0.0
C1793 C 0.24195 0.92423 0.55715 0.0
C1794 C 0.25029 0.94474 0.5413 0.0
H1795 H 0.19596 1.00353 0.51278 0.0
H1796 H 0.19702 0.97177 0.52659 0.0
H1797 H 0.21062 1.01169 0.53662 0.0
H1798 H 0.24775 1.00954 0.56119 0.0
H1799 H 0.23351 0.97395 0.58888 0.0
H1800 H 0.81877 0.68672 0.05484 0.0
H1801 H 0.80554 0.70775 0.02658 0.0
H1802 H 0.80866 0.78688 0.05912 0.0
H1803 H 0.82249 0.76625 0.08723 0.0
H1804 H 0.7487 0.71411 0.02312 0.0
H1805 H 0.86177 0.83497 0.01193 0.0
H1806 H 0.8614 0.80294 0.02619 0.0
H1807 H 0.84542 0.82786 0.03539 0.0
C1808 C 0.818 0.7093 0.05582 0.0
C1809 C 0.82254 0.72526 0.0732 0.0
C1810 C 0.80994 0.7211 0.03969 0.0
C1811 C 0.8065 0.74924 0.04058 0.0
C1812 C 0.81181 0.76559 0.05788 0.0
H1813 H 0.74062 0.84438 0.95737 0.0
H1814 H 0.76069 0.8313 0.98621 0.0
C1815 C 0.8196 0.75367 0.07398 0.0
C1816 C 0.79468 0.75985 0.02391 0.0
H1817 H 0.81514 0.82383 0.9935 0.0
C1818 C 0.76334 0.73804 0.0166 0.0
C1819 C 0.81343 0.79132 0.01555 0.0
C1820 C 0.84749 0.81561 0.02253 0.0
C1821 C 0.75025 0.74676 1.0013 0.0
C1822 C 0.76929 0.77792 0.9926 0.0
C1823 C 0.80046 0.79998 1.00009 0.0
C1824 C 0.7579 0.78696 0.9751 0.0
C1825 C 0.71577 0.72257 0.99481 0.0
C1826 C 0.75055 0.76715 0.95903 0.0
C1827 C 0.73864 0.77425 0.94276 0.0
C1828 C 0.73378 0.80158 0.94188 0.0
C1829 C 0.74272 0.82246 0.95768 0.0
C1830 C 0.75457 0.81517 0.97414 0.0
H1831 H 0.70099 0.70538 1.00625 0.0
H1832 H 0.70275 0.73541 0.98976 0.0
H1833 H 0.71704 0.70763 0.98308 0.0
H1834 H 0.754 0.74596 0.95906 0.0
H1835 H 0.73333 0.75807 0.93082 0.0
H1836 H 0.07061 0.26718 0.58839 0.0
H1837 H 0.03583 0.24457 0.5605 0.0
H1838 H 0.10957 0.32431 0.52727 0.0
H1839 H 0.14442 0.34663 0.55518 0.0
H1840 H 1.0082 0.27121 0.54018 0.0
H1841 H 0.08858 0.24851 0.49299 0.0
H1842 H 0.09735 0.25716 0.51769 0.0
H1843 H 0.10846 0.29023 0.50123 0.0
C1844 C 0.0797 0.27943 0.57502 0.0
C1845 C 0.11068 0.30821 0.57388 0.0
C1846 C 0.05973 0.26656 0.55908 0.0
C1847 C 0.07011 0.28229 0.54158 0.0
C1848 C 0.10129 0.31097 0.54039 0.0
H1849 H 0.98561 0.27929 0.43483 0.0
H1850 H 1.01766 0.28893 0.46327 0.0
C1851 C 0.12142 0.32371 0.55637 0.0
C1852 C 0.04737 0.26999 0.525 0.0
H1853 H 0.04255 0.24885 0.47857 0.0
C1854 C 1.0156 0.26588 0.52679 0.0
C1855 C 0.05676 0.26284 0.50746 0.0
C1856 C 0.08952 0.26457 0.50475 0.0
C1857 C 0.99367 0.25617 0.51146 0.0
C1858 C 1.00353 0.25012 0.49381 0.0
C1859 C 0.03495 0.25347 0.4921 0.0
C1860 C 0.98289 0.24317 0.47658 0.0
C1861 C 0.96057 0.25372 0.51403 0.0
C1862 C 0.95239 0.21397 0.47442 0.0
C1863 C 0.93371 0.20812 0.4579 0.0
C1864 C 0.94512 0.23148 0.44329 0.0
C1865 C 0.9757 0.2606 0.44565 0.0
C1866 C 0.99429 0.26625 0.46198 0.0
H1867 H 0.95857 0.2639 0.52776 0.0
H1868 H 0.95602 0.26705 0.50259 0.0
H1869 H 0.94093 0.22748 0.51331 0.0
H1870 H 0.94324 0.19553 0.4854 0.0
H1871 H 0.91066 0.1852 0.45648 0.0
H1872 H 0.70454 0.2068 0.1246 0.0
H1873 H 0.6537 0.20671 0.13285 0.0
H1874 H 0.59777 0.10209 0.12253 0.0
H1875 H 0.64831 0.10172 0.11553 0.0
H1876 H 0.60654 0.19501 0.11042 0.0
H1877 H 0.54989 0.10457 0.16742 0.0
H1878 H 0.59211 0.12022 0.16035 0.0
H1879 H 0.55899 0.08586 0.14814 0.0
C1880 C 0.68155 0.1836 0.12476 0.0
C1881 C 0.6806 0.15434 0.11919 0.0
C1882 C 0.65237 0.18359 0.12934 0.0
C1883 C 0.62162 0.15433 0.12849 0.0
C1884 C 0.62096 0.12491 0.12379 0.0
H1885 H 0.4424 0.14121 0.09035 0.0
H1886 H 0.49365 0.14058 0.09541 0.0
C1887 C 0.65002 0.12484 0.11946 0.0
C1888 C 0.59012 0.155 0.13015 0.0
H1889 H 0.51181 0.11294 0.14802 0.0
C1890 C 0.58611 0.17739 0.11894 0.0
C1891 C 0.56329 0.13246 0.14144 0.0
C1892 C 0.56647 0.10972 0.15516 0.0
C1893 C 0.5559 0.17682 0.11797 0.0
C1894 C 0.5283 0.15238 0.12795 0.0
C1895 C 0.53265 0.13114 0.13998 0.0
C1896 C 0.49478 0.14814 0.12549 0.0
C1897 C 0.55395 0.20252 0.10617 0.0
C1898 C 0.47701 0.15029 0.14085 0.0
C1899 C 0.44716 0.14991 0.13799 0.0
C1900 C 0.43457 0.1471 0.11972 0.0
C1901 C 0.45157 0.14335 0.10455 0.0
C1902 C 0.48101 0.14331 0.10743 0.0
H1903 H 0.57845 0.22513 0.10482 0.0
H1904 H 0.54548 0.1926 0.09182 0.0
H1905 H 0.53643 0.20945 0.11225 0.0
H1906 H 0.48693 0.15372 0.15494 0.0
H1907 H 0.43487 0.15339 0.14991 0.0
H1908 H 0.73438 0.61023 0.42933 0.0
H1909 H 0.68221 0.55893 0.4251 0.0
H1910 H 0.70166 0.56102 0.36572 0.0
H1911 H 0.75374 0.61306 0.36989 0.0
H1912 H 0.63558 0.53675 0.37277 0.0
H1913 H 0.68225 0.47346 0.41807 0.0
H1914 H 0.6829 0.50745 0.43003 0.0
H1915 H 0.7084 0.51482 0.4096 0.0
C1916 C 0.72716 0.6001 0.4153 0.0
C1917 C 0.74799 0.61577 0.39995 0.0
C1918 C 0.6975 0.5706 0.41292 0.0
C1919 C 0.68838 0.55547 0.39519 0.0
C1920 C 0.70827 0.572 0.37958 0.0
H1921 H 0.53858 0.34503 0.39777 0.0
H1922 H 0.58917 0.39627 0.3899 0.0
C1923 C 0.73795 0.60188 0.38194 0.0
C1924 C 0.65905 0.52175 0.39337 0.0
H1925 H 0.62416 0.44457 0.41233 0.0
C1926 C 0.6332 0.51648 0.38127 0.0
C1927 C 0.6562 0.49487 0.40398 0.0
C1928 C 0.68408 0.49779 0.41598 0.0
C1929 C 0.60398 0.48566 0.38028 0.0
C1930 C 0.60008 0.45955 0.39208 0.0
C1931 C 0.62668 0.46446 0.40342 0.0
C1932 C 0.56817 0.4278 0.39395 0.0
C1933 C 0.57775 0.48147 0.36648 0.0
C1934 C 0.53912 0.42804 0.39847 0.0
C1935 C 0.5101 0.39876 0.40265 0.0
C1936 C 0.50936 0.36833 0.40287 0.0
C1937 C 0.53807 0.36786 0.39762 0.0
C1938 C 0.56715 0.39727 0.39326 0.0
H1939 H 0.5888 0.49772 0.35407 0.0
H1940 H 0.56303 0.45562 0.36153 0.0
H1941 H 0.56099 0.48862 0.37336 0.0
H1942 H 0.53913 0.45106 0.39961 0.0
H1943 H 0.4884 0.40014 0.40633 0.0
H1944 H 0.90464 0.30765 0.08787 0.0
H1945 H 0.90701 0.36029 0.09308 0.0
H1946 H 0.90297 0.34474 0.15298 0.0
H1947 H 0.89961 0.29138 0.14772 0.0
H1948 H 0.85889 0.36335 0.14142 0.0
H1949 H 0.98096 0.44793 0.11091 0.0
H1950 H 0.95549 0.41603 0.09464 0.0
H1951 H 0.9679 0.40556 0.11628 0.0
C1952 C 0.90494 0.31578 0.10217 0.0
C1953 C 0.90273 0.29575 0.11738 0.0
C1954 C 0.90641 0.34595 0.10515 0.0
C1955 C 0.90572 0.35687 0.12344 0.0
C1956 C 0.90383 0.33702 0.13874 0.0
H1957 H 0.9404 0.55729 0.13426 0.0
H1958 H 0.94179 0.50656 0.14002 0.0
C1959 C 0.90227 0.30667 0.13574 0.0
C1960 C 0.90481 0.38793 0.12629 0.0
H1961 H 0.94361 0.46892 0.11353 0.0
C1962 C 0.87766 0.38657 0.13557 0.0
C1963 C 0.92942 0.41838 0.11887 0.0
C1964 C 0.96024 0.42218 0.10979 0.0
C1965 C 0.87382 0.41446 0.13693 0.0
C1966 C 0.89744 0.44441 0.12847 0.0
C1967 C 0.92523 0.446 0.11987 0.0
C1968 C 0.89383 0.47431 0.12788 0.0
C1969 C 0.84452 0.41149 0.14746 0.0
C1970 C 0.86597 0.47322 0.11968 0.0
C1971 C 0.86493 0.50228 0.11669 0.0
C1972 C 0.89196 0.53298 0.12155 0.0
C1973 C 0.91915 0.53391 0.13048 0.0
C1974 C 0.92002 0.50493 0.13368 0.0
H1975 H 0.83541 0.39148 0.15808 0.0
H1976 H 0.85061 0.43488 0.15467 0.0
H1977 H 0.82419 0.40537 0.13739 0.0
H1978 H 0.84575 0.45014 0.11464 0.0
H1979 H 0.84396 0.50096 0.10947 0.0
H1980 H 0.43802 0.13704 0.42922 0.0
H1981 H 0.489 0.13565 0.4247 0.0
H1982 H 0.48724 0.15477 0.36557 0.0
H1983 H 0.43544 0.15525 0.37004 0.0
H1984 H 0.51097 0.11263 0.37169 0.0
H1985 H 0.57512 0.22036 0.41865 0.0
H1986 H 0.54092 0.18678 0.43029 0.0
H1987 H 0.53381 0.20593 0.41028 0.0
C1988 C 0.44815 0.14025 0.41518 0.0
C1989 C 0.43263 0.14599 0.39998 0.0
C1990 C 0.47749 0.1398 0.41263 0.0
C1991 C 0.49265 0.14615 0.39491 0.0
C1992 C 0.47626 0.15014 0.37943 0.0
H1993 H 0.70261 0.20421 0.39725 0.0
H1994 H 0.65172 0.20465 0.38991 0.0
C1995 C 0.44652 0.15019 0.38196 0.0
C1996 C 0.52624 0.15016 0.39296 0.0
H1997 H 0.60336 0.19071 0.41221 0.0
C1998 C 0.53128 0.12995 0.3804 0.0
C1999 C 0.55322 0.17346 0.40385 0.0
C2000 C 0.55063 0.19811 0.41635 0.0
C2001 C 0.56194 0.13119 0.37921 0.0
C2002 C 0.58811 0.1526 0.39127 0.0
C2003 C 0.58344 0.17395 0.4031 0.0
C2004 C 0.61969 0.15196 0.39287 0.0
C2005 C 0.56588 0.10965 0.36489 0.0
C2006 C 0.61908 0.12227 0.39659 0.0
C2007 C 0.64818 0.12193 0.40043 0.0
C2008 C 0.6788 0.15138 0.40114 0.0
C2009 C 0.67964 0.18103 0.39671 0.0
C2010 C 0.65042 0.18131 0.39266 0.0
H2011 H 0.5498 0.10533 0.3525 0.0
H2012 H 0.59176 0.12072 0.36 0.0
H2013 H 0.55833 0.08532 0.37127 0.0
H2014 H 0.59591 0.09933 0.39735 0.0
H2015 H 0.64649 0.0985 0.40346 0.0
H2016 H 0.51256 0.35914 0.14196 0.0
H2017 H 0.56352 0.41199 0.14753 0.0
H2018 H 0.57338 0.4308 0.08792 0.0
H2019 H 0.52295 0.37852 0.08234 0.0
H2020 H 0.63026 0.44047 0.13315 0.0
H2021 H 0.57055 0.51079 0.1101 0.0
H2022 H 0.54737 0.46763 0.11611 0.0
H2023 H 0.56638 0.48025 0.09336 0.0
C2024 C 0.526 0.37432 0.13006 0.0
C2025 C 0.51349 0.36484 0.11173 0.0
C2026 C 0.55497 0.40459 0.13325 0.0
C2027 C 0.57182 0.42581 0.11817 0.0
C2028 C 0.56039 0.41533 0.09983 0.0
H2029 H 0.7397 0.60502 0.08648 0.0
H2030 H 0.68677 0.55449 0.09074 0.0
C2031 C 0.53161 0.38532 0.09665 0.0
C2032 C 0.60081 0.45932 0.12129 0.0
H2033 H 0.62948 0.54059 0.11142 0.0
C2034 C 0.62999 0.46245 0.12873 0.0
C2035 C 0.60042 0.48808 0.11563 0.0
C2036 C 0.56941 0.48666 0.10853 0.0
C2037 C 0.65924 0.49328 0.12955 0.0
C2038 C 0.65919 0.52179 0.123 0.0
C2039 C 0.62961 0.51879 0.11638 0.0
C2040 C 0.69011 0.5542 0.12105 0.0
C2041 C 0.69041 0.49485 0.13647 0.0
C2042 C 0.70929 0.57155 0.13672 0.0
C2043 C 0.73963 0.60069 0.13428 0.0
C2044 C 0.75106 0.6131 0.11615 0.0
C2045 C 0.73131 0.59622 0.10062 0.0
C2046 C 0.70109 0.56731 0.10304 0.0
H2047 H 0.68752 0.46999 0.13812 0.0
H2048 H 0.71107 0.50934 0.12662 0.0
H2049 H 0.69716 0.50737 0.15034 0.0
H2050 H 0.70116 0.56221 0.15078 0.0
H2051 H 0.75456 0.61273 0.14651 0.0
H2052 H 0.88299 0.53416 0.37388 0.0
H2053 H 0.88253 0.48233 0.36704 0.0
H2054 H 0.87485 0.46077 0.42632 0.0
H2055 H 0.87519 0.51199 0.43312 0.0
H2056 H 0.92959 0.46499 0.38098 0.0
H2057 H 0.803 0.37415 0.40327 0.0
H2058 H 0.81529 0.4164 0.39789 0.0
H2059 H 0.82445 0.40578 0.4205 0.0
C2060 C 0.8804 0.51787 0.38535 0.0
C2061 C 0.87896 0.52698 0.40402 0.0
C2062 C 0.88042 0.48846 0.38146 0.0
C2063 C 0.8784 0.46749 0.39616 0.0
C2064 C 0.87592 0.4762 0.41472 0.0
H2065 H 0.90248 0.30872 0.42896 0.0
H2066 H 0.90088 0.3595 0.42398 0.0
C2067 C 0.87619 0.50554 0.4186 0.0
C2068 C 0.88073 0.4374 0.39259 0.0
H2069 H 0.84226 0.35529 0.40286 0.0
C2070 C 0.91021 0.44083 0.38532 0.0
C2071 C 0.85547 0.40587 0.39828 0.0
C2072 C 0.82264 0.4002 0.40525 0.0
C2073 C 0.91576 0.41393 0.3847 0.0
C2074 C 0.89123 0.38294 0.39146 0.0
C2075 C 0.86117 0.37917 0.3978 0.0
C2076 C 0.89707 0.35475 0.39374 0.0
C2077 C 0.9485 0.4191 0.37797 0.0
C2078 C 0.89625 0.33558 0.37831 0.0
C2079 C 0.89718 0.30641 0.38115 0.0
C2080 C 0.89919 0.29621 0.39945 0.0
C2081 C 0.90133 0.31621 0.41471 0.0
C2082 C 0.90033 0.34516 0.41189 0.0
H2083 H 0.96512 0.44472 0.37313 0.0
H2084 H 0.96074 0.41345 0.38956 0.0
H2085 H 0.9447 0.40194 0.36623 0.0
H2086 H 0.89338 0.34237 0.36419 0.0
H2087 H 0.89465 0.29113 0.36915 0.0
H2088 H 0.11313 0.63879 0.61345 0.0
H2089 H 0.1123 0.58759 0.6202 0.0
H2090 H 0.2167 0.64174 0.6314 0.0
H2091 H 0.21797 0.6933 0.62353 0.0
H2092 H 0.20444 0.59451 0.60847 0.0
H2093 H 0.11283 0.53855 0.66507 0.0
H2094 H 0.09501 0.54859 0.64576 0.0
H2095 H 0.12952 0.58101 0.65825 0.0
C2096 C 0.13593 0.63996 0.61756 0.0
C2097 C 0.16573 0.67027 0.61768 0.0
C2098 C 0.13531 0.61052 0.62172 0.0
C2099 C 0.16433 0.61048 0.62657 0.0
C2100 C 0.19388 0.64094 0.62776 0.0
H2101 H 0.16 0.42223 0.6479 0.0
H2102 H 0.16103 0.47463 0.65281 0.0
C2103 C 0.19457 0.67052 0.62341 0.0
C2104 C 0.16428 0.57859 0.62809 0.0
H2105 H 0.12088 0.50024 0.64572 0.0
C2106 C 0.18648 0.57416 0.6169 0.0
C2107 C 0.14127 0.55185 0.63926 0.0
C2108 C 0.11861 0.55541 0.65291 0.0
C2109 C 0.18531 0.54365 0.61585 0.0
C2110 C 0.16049 0.51621 0.62575 0.0
C2111 C 0.13939 0.52096 0.63774 0.0
C2112 C 0.1558 0.48247 0.62333 0.0
C2113 C 0.21083 0.54124 0.60407 0.0
C2114 C 0.15092 0.46855 0.6053 0.0
C2115 C 0.15049 0.43884 0.60249 0.0
C2116 C 0.15389 0.42174 0.61771 0.0
C2117 C 0.15676 0.43453 0.63594 0.0
C2118 C 0.15755 0.46461 0.63874 0.0
H2119 H 0.23365 0.56556 0.60271 0.0
H2120 H 0.21741 0.52351 0.61019 0.0
H2121 H 0.20088 0.53277 0.58973 0.0
H2122 H 0.1485 0.48125 0.59324 0.0
H2123 H 0.14834 0.42956 0.5883 0.0
H2124 H 0.30449 0.88688 0.87003 0.0
H2125 H 0.35679 0.8873 0.86598 0.0
H2126 H 0.37555 0.90408 0.92543 0.0
H2127 H 0.32321 0.90295 0.92955 0.0
H2128 H 0.42343 0.92981 0.87387 0.0
H2129 H 0.37443 0.81771 0.91763 0.0
H2130 H 0.34875 0.83336 0.90895 0.0
H2131 H 0.37336 0.85072 0.92975 0.0
C2132 C 0.32019 0.89148 0.88212 0.0
C2133 C 0.30989 0.89504 0.90012 0.0
C2134 C 0.34999 0.89152 0.87982 0.0
C2135 C 0.36973 0.89482 0.89549 0.0
C2136 C 0.36039 0.90059 0.91321 0.0
H2137 H 0.56845 0.93682 0.90891 0.0
H2138 H 0.5184 0.93816 0.90176 0.0
C2139 C 0.33062 0.90024 0.91553 0.0
C2140 C 0.39896 0.8903 0.89377 0.0
H2141 H 0.43259 0.8466 0.91235 0.0
C2142 C 0.42534 0.9114 0.88212 0.0
C2143 C 0.40119 0.86565 0.90408 0.0
C2144 C 0.37277 0.84034 0.91564 0.0
C2145 C 0.45448 0.90962 0.88131 0.0
C2146 C 0.45767 0.88665 0.8928 0.0
C2147 C 0.43057 0.8645 0.90368 0.0
C2148 C 0.48931 0.88636 0.89484 0.0
C2149 C 0.48142 0.93233 0.86806 0.0
C2150 C 0.49002 0.85674 0.89354 0.0
C2151 C 0.51865 0.85573 0.89811 0.0
C2152 C 0.54721 0.88431 0.90419 0.0
C2153 C 0.54684 0.91418 0.90458 0.0
C2154 C 0.51823 0.91511 0.90017 0.0
H2155 H 0.47108 0.93856 0.85572 0.0
H2156 H 0.4981 0.95569 0.87547 0.0
H2157 H 0.4961 0.92123 0.86297 0.0
H2158 H 0.46805 0.83412 0.88956 0.0
H2159 H 0.51786 0.83226 0.89777 0.0
H2160 H 0.61954 0.7472 0.64912 0.0
H2161 H 0.56748 0.69554 0.6537 0.0
H2162 H 0.56477 0.67425 0.59448 0.0
H2163 H 0.61571 0.72649 0.58984 0.0
H2164 H 0.50894 0.66707 0.60414 0.0
H2165 H 0.54045 0.60099 0.65733 0.0
H2166 H 0.5485 0.64078 0.66505 0.0
H2167 H 0.57139 0.63755 0.64568 0.0
C2168 C 0.60823 0.73101 0.63722 0.0
C2169 C 0.6219 0.74057 0.61915 0.0
C2170 C 0.57841 0.70137 0.63983 0.0
C2171 C 0.56201 0.68055 0.62447 0.0
C2172 C 0.57662 0.68972 0.60659 0.0
H2173 H 0.40712 0.48012 0.61709 0.0
H2174 H 0.45748 0.53213 0.62269 0.0
C2175 C 0.60589 0.7195 0.60394 0.0
C2176 C 0.52849 0.6507 0.62636 0.0
H2177 H 0.48405 0.577 0.64912 0.0
C2178 C 0.50359 0.6474 0.614 0.0
C2179 C 0.52118 0.62493 0.63926 0.0
C2180 C 0.54684 0.626 0.65247 0.0
C2181 C 0.47231 0.61888 0.61363 0.0
C2182 C 0.46492 0.5931 0.62655 0.0
C2183 C 0.48946 0.59677 0.63932 0.0
C2184 C 0.43328 0.56091 0.62563 0.0
C2185 C 0.44819 0.61611 0.59869 0.0
C2186 C 0.40236 0.55908 0.62621 0.0
C2187 C 0.37327 0.52921 0.62255 0.0
C2188 C 0.37449 0.50044 0.61851 0.0
C2189 C 0.40522 0.50191 0.61957 0.0
C2190 C 0.43416 0.5317 0.62297 0.0
H2191 H 0.46052 0.63411 0.58715 0.0
H2192 H 0.4352 0.59101 0.59251 0.0
H2193 H 0.42959 0.62122 0.60506 0.0
H2194 H 0.40076 0.58098 0.62885 0.0
H2195 H 0.35012 0.52906 0.62198 0.0
H2196 H 0.11216 0.63992 0.90356 0.0
H2197 H 0.11108 0.58837 0.89703 0.0
H2198 H 0.21579 0.64186 0.88687 0.0
H2199 H 0.21734 0.69368 0.89448 0.0
H2200 H 0.12601 0.55977 0.86926 0.0
H2201 H 0.21068 0.58335 0.92933 0.0
H2202 H 0.19322 0.60916 0.92453 0.0
H2203 H 0.22771 0.61362 0.91104 0.0
C2204 C 0.13503 0.64083 0.89989 0.0
C2205 C 0.165 0.67096 0.90007 0.0
C2206 C 0.13431 0.61124 0.89599 0.0
C2207 C 0.16348 0.61095 0.892 0.0
C2208 C 0.19306 0.64126 0.89048 0.0
H2209 H 0.16078 0.42377 0.86908 0.0
H2210 H 0.16079 0.47554 0.86424 0.0
C2211 C 0.19386 0.67098 0.89459 0.0
C2212 C 0.16286 0.5788 0.89103 0.0
H2213 H 0.19222 0.53384 0.91291 0.0
C2214 C 0.14065 0.55414 0.87872 0.0
C2215 C 0.18156 0.57116 0.90356 0.0
C2216 C 0.20441 0.59555 0.91798 0.0
C2217 C 0.13621 0.52209 0.87885 0.0
C2218 C 0.15497 0.51457 0.89139 0.0
C2219 C 0.17776 0.53948 0.90331 0.0
C2220 C 0.15049 0.48083 0.89333 0.0
C2221 C 0.11051 0.49626 0.86615 0.0
C2222 C 0.14436 0.46616 0.91119 0.0
C2223 C 0.1448 0.43691 0.91398 0.0
C2224 C 0.1507 0.42118 0.89893 0.0
C2225 C 0.15527 0.43484 0.88084 0.0
C2226 C 0.1553 0.46452 0.87808 0.0
H2227 H 0.09263 0.5035 0.86107 0.0
H2228 H 0.12278 0.49286 0.8537 0.0
H2229 H 0.09678 0.47227 0.8735 0.0
H2230 H 0.14049 0.47808 0.92319 0.0
H2231 H 0.1416 0.42708 0.92808 0.0
H2232 H 0.31982 0.89776 0.58835 0.0
H2233 H 0.37257 0.9002 0.59316 0.0
H2234 H 0.35695 0.8943 0.65312 0.0
H2235 H 0.30333 0.89052 0.64823 0.0
H2236 H 0.42833 0.94117 0.61104 0.0
H2237 H 0.3721 0.81767 0.64428 0.0
H2238 H 0.34779 0.83283 0.63308 0.0
H2239 H 0.36416 0.84674 0.65625 0.0
C2240 C 0.32786 0.89743 0.60258 0.0
C2241 C 0.30761 0.89437 0.6179 0.0
C2242 C 0.35802 0.89879 0.60533 0.0
C2243 C 0.36862 0.89681 0.62348 0.0
C2244 C 0.34906 0.89513 0.63894 0.0
H2245 H 0.57098 0.93375 0.63496 0.0
H2246 H 0.52001 0.93521 0.63992 0.0
C2247 C 0.31862 0.89354 0.63616 0.0
C2248 C 0.39962 0.8955 0.62581 0.0
H2249 H 0.42992 0.84649 0.64094 0.0
C2250 C 0.42871 0.92057 0.61771 0.0
C2251 C 0.40008 0.86833 0.63423 0.0
C2252 C 0.36935 0.83968 0.64232 0.0
C2253 C 0.45794 0.91907 0.61748 0.0
C2254 C 0.45858 0.89217 0.62614 0.0
C2255 C 0.4296 0.86725 0.63446 0.0
C2256 C 0.48869 0.88885 0.62585 0.0
C2257 C 0.48741 0.94569 0.60718 0.0
C2258 C 0.48788 0.8612 0.61753 0.0
C2259 C 0.51699 0.85996 0.61511 0.0
C2260 C 0.5474 0.88643 0.62091 0.0
C2261 C 0.54786 0.91308 0.63028 0.0
C2262 C 0.51878 0.91409 0.63293 0.0
H2263 H 0.48023 0.95904 0.59707 0.0
H2264 H 0.50468 0.96392 0.61749 0.0
H2265 H 0.50065 0.93531 0.59936 0.0
H2266 H 0.46498 0.84126 0.61207 0.0
H2267 H 0.51599 0.83927 0.60772 0.0
H2268 H 0.62147 0.74353 0.86883 0.0
H2269 H 0.57118 0.69039 0.86342 0.0
H2270 H 0.56277 0.67147 0.92307 0.0
H2271 H 0.61351 0.72365 0.92834 0.0
H2272 H 0.54745 0.61679 0.90397 0.0
H2273 H 0.47988 0.67511 0.87363 0.0
H2274 H 0.51647 0.68325 0.86112 0.0
H2275 H 0.51968 0.69875 0.88461 0.0
C2276 C 0.60931 0.72757 0.88068 0.0
C2277 C 0.62169 0.73737 0.89898 0.0
C2278 C 0.58025 0.69745 0.87763 0.0
C2279 C 0.5627 0.67709 0.89288 0.0
C2280 C 0.57571 0.68663 0.91106 0.0
H2281 H 0.359 0.53354 0.91135 0.0
H2282 H 0.41224 0.58352 0.90573 0.0
C2283 C 0.60472 0.71646 0.91407 0.0
C2284 C 0.53028 0.64634 0.89036 0.0
H2285 H 0.45052 0.61733 0.87651 0.0
C2286 C 0.52632 0.61686 0.89782 0.0
C2287 C 0.50252 0.64647 0.88257 0.0
C2288 C 0.50461 0.67759 0.87516 0.0
C2289 C 0.49543 0.58787 0.8982 0.0
C2290 C 0.46766 0.58787 0.89028 0.0
C2291 C 0.47175 0.61717 0.88243 0.0
C2292 C 0.43393 0.55834 0.89119 0.0
C2293 C 0.49268 0.55803 0.90798 0.0
C2294 C 0.4277 0.52774 0.88412 0.0
C2295 C 0.39748 0.49921 0.88754 0.0
C2296 C 0.37252 0.50085 0.8976 0.0
C2297 C 0.37773 0.53172 0.90338 0.0
C2298 C 0.40821 0.56023 0.90024 0.0
H2299 H 0.5138 0.56471 0.91756 0.0
H2300 H 0.46958 0.54507 0.91628 0.0
H2301 H 0.49255 0.54069 0.89731 0.0
H2302 H 0.44667 0.52567 0.87659 0.0
H2303 H 0.39402 0.47564 0.88296 0.0
loop_
_geom_bond_atom_site_label_1
_geom_bond_atom_site_label_2
_geom_bond_distance
_geom_bond_site_symmetry_2
_ccdc_geom_bond_type
Tb0 N31 2.660 . S
Tb0 N38 2.600 . S
Tb0 O44 2.546 . S
Tb0 O45 2.610 . S
Tb0 O47 2.320 . S
Tb0 O48 2.552 . S
Tb0 O49 2.413 . S
Tb0 O51 2.362 . S
Tb0 O52 2.421 . S
Tb0 C64 2.833 . S
C1 C4 1.432 . S
C1 C5 1.414 . S
C1 N8 1.359 . S
C2 C4 1.417 . S
C2 C6 1.432 . S
C2 C14 1.410 . S
C3 C5 1.444 . S
C3 C6 1.317 . S
C3 H26 0.929 . S
C4 C1 1.432 . S
C4 C2 1.417 . S
C4 N12 1.360 . S
C5 C1 1.414 . S
C5 C3 1.444 . S
C5 C10 1.385 . S
C6 C2 1.432 . S
C6 C3 1.317 . S
C6 H18 0.930 . S
C7 C9 1.392 . S
C7 C10 1.370 . S
C7 H19 0.931 . S
N8 C1 1.359 . S
N8 C9 1.327 . S
N8 Tb11 2.600 . S
C9 C7 1.392 . S
C9 N8 1.327 . S
C9 H16 0.930 . S
C10 C5 1.385 . S
C10 C7 1.370 . S
C10 H29 0.930 . S
Tb11 N8 2.600 . S
Tb11 N12 2.660 . S
Tb11 O45 2.362 . S
Tb11 O46 2.421 . S
Tb11 O50 2.546 . S
Tb11 O51 2.610 . S
Tb11 O53 2.320 . S
Tb11 O54 2.552 . S
Tb11 O55 2.413 . S
Tb11 C75 2.833 . S
N12 C4 1.360 . S
N12 Tb11 2.660 . S
N12 C13 1.305 . S
C13 N12 1.305 . S
C13 C15 1.407 . S
C13 H20 0.930 . S
C14 C2 1.410 . S
C14 C15 1.345 . S
C14 H22 0.930 . S
C15 C13 1.407 . S
C15 C14 1.345 . S
C15 H17 0.930 . S
H16 C9 0.930 . S
H17 C15 0.930 . S
H18 C6 0.930 . S
H19 C7 0.931 . S
H20 C13 0.930 . S
H21 C35 0.930 . S
H22 C14 0.930 . S
H23 C41 0.930 . S
H24 C32 0.930 . S
H25 C39 0.931 . S
H26 C3 0.929 . S
H27 C33 0.930 . S
H28 C66 0.930 . S
H29 C10 0.930 . S
H30 C65 0.929 . S
N31 Tb0 2.660 . S
N31 C32 1.305 . S
N31 C36 1.360 . S
C32 H24 0.930 . S
C32 N31 1.305 . S
C32 C35 1.407 . S
C33 H27 0.930 . S
C33 C34 1.410 . S
C33 C35 1.345 . S
C34 C33 1.410 . S
C34 C36 1.417 . S
C34 C66 1.432 . S
C35 H21 0.930 . S
C35 C32 1.407 . S
C35 C33 1.345 . S
C36 N31 1.360 . S
C36 C34 1.417 . S
C36 C40 1.432 . S
H37 C42 0.930 . S
N38 Tb0 2.600 . S
N38 C40 1.359 . S
N38 C41 1.327 . S
C39 H25 0.931 . S
C39 C41 1.392 . S
C39 C42 1.370 . S
C40 C36 1.432 . S
C40 N38 1.359 . S
C40 C43 1.414 . S
C41 H23 0.930 . S
C41 N38 1.327 . S
C41 C39 1.392 . S
C42 H37 0.930 . S
C42 C39 1.370 . S
C42 C43 1.385 . S
C43 C40 1.414 . S
C43 C42 1.385 . S
C43 C65 1.444 . S
O44 Tb0 2.546 . S
O44 C64 1.251 . S
O45 Tb0 2.610 . S
O45 Tb11 2.362 . S
O45 C56 1.283 . S
O46 Tb11 2.421 . S
O46 C63 1.262 . S
O47 Tb0 2.320 . S
O47 C63 1.260 . S
O48 Tb0 2.552 . S
O48 C56 1.243 . S
O49 Tb0 2.413 . S
O49 C64 1.256 . S
O50 Tb11 2.546 . S
O50 C75 1.251 . S
O51 Tb0 2.362 . S
O51 Tb11 2.610 . S
O51 C67 1.283 . S
O52 Tb0 2.421 . S
O52 C74 1.262 . S
O53 Tb11 2.320 . S
O53 C74 1.260 . S
O54 Tb11 2.552 . S
O54 C67 1.243 . S
O55 Tb11 2.413 . S
O55 C75 1.256 . S
C56 O45 1.283 . S
C56 O48 1.243 . S
C57 C59 1.382 . S
C57 C61 1.393 . S
C57 C64 1.500 . S
C58 C59 1.400 . S
C58 C60 1.384 . S
C59 C57 1.382 . S
C59 C58 1.400 . S
C59 H76 0.930 . S
C60 C58 1.384 . S
C60 C62 1.392 . S
C60 H77 0.931 . S
C61 C57 1.393 . S
C61 C62 1.401 . S
C61 H78 0.930 . S
C62 C60 1.392 . S
C62 C61 1.401 . S
C62 H79 0.930 . S
C63 O46 1.262 . S
C63 O47 1.260 . S
C64 Tb0 2.833 . S
C64 O44 1.251 . S
C64 O49 1.256 . S
C64 C57 1.500 . S
C65 H30 0.929 . S
C65 C43 1.444 . S
C65 C66 1.317 . S
C66 H28 0.930 . S
C66 C34 1.432 . S
C66 C65 1.317 . S
C67 O51 1.283 . S
C67 O54 1.243 . S
C68 C69 1.382 . S
C68 C72 1.393 . S
C68 C75 1.500 . S
C69 C68 1.382 . S
C69 C70 1.400 1_545 S
C69 H80 0.930 . S
C70 C69 1.400 1_565 S
C70 C71 1.384 . S
C71 C70 1.384 . S
C71 C73 1.392 . S
C71 H81 0.931 . S
C72 C68 1.393 . S
C72 C73 1.401 1_545 S
C72 H82 0.930 . S
C73 C71 1.392 . S
C73 C72 1.401 1_565 S
C73 H83 0.930 . S
C74 O52 1.262 . S
C74 O53 1.260 . S
C75 Tb11 2.833 . S
C75 O50 1.251 . S
C75 O55 1.256 . S
C75 C68 1.500 . S
H76 C59 0.930 . S
H77 C60 0.931 . S
H78 C61 0.930 . S
H79 C62 0.930 . S
H80 C69 0.930 . S
H81 C71 0.931 . S
H82 C72 0.930 . S
H83 C73 0.930 . S
Tb84 N115 2.660 . S
Tb84 N122 2.600 . S
Tb84 O128 2.546 . S
Tb84 O129 2.610 . S
Tb84 O131 2.320 . S
Tb84 O132 2.552 . S
Tb84 O133 2.413 . S
Tb84 O135 2.362 . S
Tb84 O136 2.421 . S
Tb84 C148 2.833 . S
C85 C88 1.432 . S
C85 C89 1.414 . S
C85 N92 1.359 . S
C86 C88 1.417 . S
C86 C90 1.432 . S
C86 C98 1.410 . S
C87 C89 1.444 . S
C87 C90 1.317 . S
C87 H110 0.929 . S
C88 C85 1.432 . S
C88 C86 1.417 . S
C88 N96 1.360 . S
C89 C85 1.414 . S
C89 C87 1.444 . S
C89 C94 1.385 . S
C90 C86 1.432 . S
C90 C87 1.317 . S
C90 H102 0.930 1_655 S
C91 C93 1.392 . S
C91 C94 1.370 . S
C91 H103 0.931 . S
N92 C85 1.359 . S
N92 C93 1.327 . S
N92 Tb95 2.600 . S
C93 C91 1.392 . S
C93 N92 1.327 . S
C93 H100 0.930 . S
C94 C89 1.385 . S
C94 C91 1.370 . S
C94 H113 0.930 . S
Tb95 N92 2.600 . S
Tb95 N96 2.660 . S
Tb95 O129 2.362 . S
Tb95 O130 2.421 . S
Tb95 O134 2.546 . S
Tb95 O135 2.610 . S
Tb95 O137 2.320 . S
Tb95 O138 2.552 . S
Tb95 O139 2.413 . S
Tb95 C159 2.833 . S
N96 C88 1.360 . S
N96 Tb95 2.660 . S
N96 C97 1.305 . S
C97 N96 1.305 . S
C97 C99 1.407 . S
C97 H104 0.930 . S
C98 C86 1.410 . S
C98 C99 1.345 . S
C98 H106 0.930 . S
C99 C97 1.407 . S
C99 C98 1.345 . S
C99 H101 0.930 . S
H100 C93 0.930 . S
H101 C99 0.930 . S
H102 C90 0.930 1_455 S
H103 C91 0.931 . S
H104 C97 0.930 . S
H105 C119 0.930 . S
H106 C98 0.930 . S
H107 C125 0.930 . S
H108 C116 0.930 . S
H109 C123 0.931 . S
H110 C87 0.929 . S
H111 C117 0.930 . S
H112 C150 0.930 . S
H113 C94 0.930 . S
H114 C149 0.929 . S
N115 Tb84 2.660 . S
N115 C116 1.305 . S
N115 C120 1.360 . S
C116 H108 0.930 . S
C116 N115 1.305 . S
C116 C119 1.407 . S
C117 H111 0.930 . S
C117 C118 1.410 . S
C117 C119 1.345 . S
C118 C117 1.410 . S
C118 C120 1.417 . S
C118 C150 1.432 . S
C119 H105 0.930 . S
C119 C116 1.407 . S
C119 C117 1.345 . S
C120 N115 1.360 . S
C120 C118 1.417 . S
C120 C124 1.432 . S
H121 C126 0.930 . S
N122 Tb84 2.600 . S
N122 C124 1.359 . S
N122 C125 1.327 . S
C123 H109 0.931 . S
C123 C125 1.392 . S
C123 C126 1.370 . S
C124 C120 1.432 . S
C124 N122 1.359 . S
C124 C127 1.414 . S
C125 H107 0.930 . S
C125 N122 1.327 . S
C125 C123 1.392 . S
C126 H121 0.930 . S
C126 C123 1.370 . S
C126 C127 1.385 . S
C127 C124 1.414 . S
C127 C126 1.385 . S
C127 C149 1.444 . S
O128 Tb84 2.546 . S
O128 C148 1.251 . S
O129 Tb84 2.610 . S
O129 Tb95 2.362 . S
O129 C140 1.283 . S
O130 Tb95 2.421 . S
O130 C147 1.262 . S
O131 Tb84 2.320 . S
O131 C147 1.260 . S
O132 Tb84 2.552 . S
O132 C140 1.243 . S
O133 Tb84 2.413 . S
O133 C148 1.256 . S
O134 Tb95 2.546 . S
O134 C159 1.251 . S
O135 Tb84 2.362 . S
O135 Tb95 2.610 . S
O135 C151 1.283 . S
O136 Tb84 2.421 . S
O136 C158 1.262 . S
O137 Tb95 2.320 . S
O137 C158 1.260 . S
O138 Tb95 2.552 . S
O138 C151 1.243 . S
O139 Tb95 2.413 . S
O139 C159 1.256 . S
C140 O129 1.283 . S
C140 O132 1.243 . S
C141 C143 1.382 . S
C141 C145 1.393 . S
C141 C148 1.500 . S
C142 C143 1.400 . S
C142 C144 1.384 . S
C143 C141 1.382 . S
C143 C142 1.400 . S
C143 H160 0.930 . S
C144 C142 1.384 . S
C144 C146 1.392 . S
C144 H161 0.931 . S
C145 C141 1.393 . S
C145 C146 1.401 . S
C145 H162 0.930 . S
C146 C144 1.392 . S
C146 C145 1.401 . S
C146 H163 0.930 . S
C147 O130 1.262 . S
C147 O131 1.260 . S
C148 Tb84 2.833 . S
C148 O128 1.251 . S
C148 O133 1.256 . S
C148 C141 1.500 . S
C149 H114 0.929 . S
C149 C127 1.444 . S
C149 C150 1.317 . S
C150 H112 0.930 . S
C150 C118 1.432 . S
C150 C149 1.317 . S
C151 O135 1.283 . S
C151 O138 1.243 . S
C152 C153 1.382 . S
C152 C156 1.393 . S
C152 C159 1.500 . S
C153 C152 1.382 . S
C153 C154 1.400 . S
C153 H164 0.930 . S
C154 C153 1.400 . S
C154 C155 1.384 . S
C155 C154 1.384 . S
C155 C157 1.392 . S
C155 H165 0.931 . S
C156 C152 1.393 . S
C156 C157 1.401 . S
C156 H166 0.930 . S
C157 C155 1.392 . S
C157 C156 1.401 . S
C157 H167 0.930 . S
C158 O136 1.262 . S
C158 O137 1.260 . S
C159 Tb95 2.833 . S
C159 O134 1.251 . S
C159 O139 1.256 . S
C159 C152 1.500 . S
H160 C143 0.930 . S
H161 C144 0.931 . S
H162 C145 0.930 . S
H163 C146 0.930 . S
H164 C153 0.930 . S
H165 C155 0.931 . S
H166 C156 0.930 . S
H167 C157 0.930 . S
Tb168 N199 2.660 . S
Tb168 N206 2.600 . S
Tb168 O212 2.546 . S
Tb168 O213 2.610 . S
Tb168 O215 2.320 . S
Tb168 O216 2.552 . S
Tb168 O217 2.413 . S
Tb168 O219 2.362 . S
Tb168 O220 2.421 . S
Tb168 C232 2.833 . S
C169 C172 1.432 . S
C169 C173 1.414 . S
C169 N176 1.359 . S
C170 C172 1.417 . S
C170 C174 1.432 . S
C170 C182 1.410 . S
C171 C173 1.444 . S
C171 C174 1.317 . S
C171 H194 0.929 . S
C172 C169 1.432 . S
C172 C170 1.417 . S
C172 N180 1.360 . S
C173 C169 1.414 . S
C173 C171 1.444 . S
C173 C178 1.385 . S
C174 C170 1.432 . S
C174 C171 1.317 . S
C174 H186 0.930 . S
C175 C177 1.392 . S
C175 C178 1.370 . S
C175 H187 0.931 . S
N176 C169 1.359 . S
N176 C177 1.327 . S
N176 Tb179 2.600 . S
C177 C175 1.392 . S
C177 N176 1.327 . S
C177 H184 0.930 . S
C178 C173 1.385 . S
C178 C175 1.370 . S
C178 H197 0.930 . S
Tb179 N176 2.600 . S
Tb179 N180 2.660 . S
Tb179 O213 2.362 . S
Tb179 O214 2.421 . S
Tb179 O218 2.546 . S
Tb179 O219 2.610 . S
Tb179 O221 2.320 . S
Tb179 O222 2.552 . S
Tb179 O223 2.413 . S
Tb179 C243 2.833 . S
N180 C172 1.360 . S
N180 Tb179 2.660 . S
N180 C181 1.305 . S
C181 N180 1.305 . S
C181 C183 1.407 . S
C181 H188 0.930 . S
C182 C170 1.410 . S
C182 C183 1.345 . S
C182 H190 0.930 . S
C183 C181 1.407 . S
C183 C182 1.345 . S
C183 H185 0.930 . S
H184 C177 0.930 . S
H185 C183 0.930 . S
H186 C174 0.930 . S
H187 C175 0.931 . S
H188 C181 0.930 . S
H189 C203 0.930 . S
H190 C182 0.930 . S
H191 C209 0.930 . S
H192 C200 0.930 . S
H193 C207 0.931 . S
H194 C171 0.929 . S
H195 C201 0.930 . S
H196 C234 0.930 1_565 S
H197 C178 0.930 . S
H198 C233 0.929 . S
N199 Tb168 2.660 . S
N199 C200 1.305 . S
N199 C204 1.360 . S
C200 H192 0.930 . S
C200 N199 1.305 . S
C200 C203 1.407 . S
C201 H195 0.930 . S
C201 C202 1.410 . S
C201 C203 1.345 . S
C202 C201 1.410 . S
C202 C204 1.417 . S
C202 C234 1.432 . S
C203 H189 0.930 . S
C203 C200 1.407 . S
C203 C201 1.345 . S
C204 N199 1.360 . S
C204 C202 1.417 . S
C204 C208 1.432 . S
H205 C210 0.930 . S
N206 Tb168 2.600 . S
N206 C208 1.359 . S
N206 C209 1.327 . S
C207 H193 0.931 . S
C207 C209 1.392 . S
C207 C210 1.370 . S
C208 C204 1.432 . S
C208 N206 1.359 . S
C208 C211 1.414 . S
C209 H191 0.930 . S
C209 N206 1.327 . S
C209 C207 1.392 . S
C210 H205 0.930 . S
C210 C207 1.370 . S
C210 C211 1.385 . S
C211 C208 1.414 . S
C211 C210 1.385 . S
C211 C233 1.444 . S
O212 Tb168 2.546 . S
O212 C232 1.251 . S
O213 Tb168 2.610 . S
O213 Tb179 2.362 . S
O213 C224 1.283 . S
O214 Tb179 2.421 . S
O214 C231 1.262 . S
O215 Tb168 2.320 . S
O215 C231 1.260 . S
O216 Tb168 2.552 . S
O216 C224 1.243 . S
O217 Tb168 2.413 . S
O217 C232 1.256 . S
O218 Tb179 2.546 . S
O218 C243 1.251 . S
O219 Tb168 2.362 . S
O219 Tb179 2.610 . S
O219 C235 1.283 . S
O220 Tb168 2.421 . S
O220 C242 1.262 . S
O221 Tb179 2.320 . S
O221 C242 1.260 . S
O222 Tb179 2.552 . S
O222 C235 1.243 . S
O223 Tb179 2.413 . S
O223 C243 1.256 . S
C224 O213 1.283 . S
C224 O216 1.243 . S
C225 C227 1.382 . S
C225 C229 1.393 . S
C225 C232 1.500 . S
C226 C227 1.400 . S
C226 C228 1.384 . S
C227 C225 1.382 . S
C227 C226 1.400 . S
C227 H244 0.930 . S
C228 C226 1.384 . S
C228 C230 1.392 . S
C228 H245 0.931 . S
C229 C225 1.393 . S
C229 C230 1.401 . S
C229 H246 0.930 . S
C230 C228 1.392 . S
C230 C229 1.401 . S
C230 H247 0.930 . S
C231 O214 1.262 . S
C231 O215 1.260 . S
C232 Tb168 2.833 . S
C232 O212 1.251 . S
C232 O217 1.256 . S
C232 C225 1.500 . S
C233 H198 0.929 . S
C233 C211 1.444 . S
C233 C234 1.317 . S
C234 H196 0.930 1_545 S
C234 C202 1.432 . S
C234 C233 1.317 . S
C235 O219 1.283 . S
C235 O222 1.243 . S
C236 C237 1.382 . S
C236 C240 1.393 . S
C236 C243 1.500 . S
C237 C236 1.382 . S
C237 C238 1.400 1_655 S
C237 H248 0.930 . S
C238 C237 1.400 1_455 S
C238 C239 1.384 . S
C239 C238 1.384 . S
C239 C241 1.392 . S
C239 H249 0.931 . S
C240 C236 1.393 . S
C240 C241 1.401 1_655 S
C240 H250 0.930 . S
C241 C239 1.392 . S
C241 C240 1.401 1_455 S
C241 H251 0.930 . S
C242 O220 1.262 . S
C242 O221 1.260 . S
C243 Tb179 2.833 . S
C243 O218 1.251 . S
C243 O223 1.256 . S
C243 C236 1.500 . S
H244 C227 0.930 . S
H245 C228 0.931 . S
H246 C229 0.930 . S
H247 C230 0.930 . S
H248 C237 0.930 . S
H249 C239 0.931 . S
H250 C240 0.930 . S
H251 C241 0.930 . S
Tb252 N283 2.660 . S
Tb252 N290 2.600 . S
Tb252 O296 2.546 . S
Tb252 O297 2.610 . S
Tb252 O299 2.320 . S
Tb252 O300 2.552 . S
Tb252 O301 2.413 . S
Tb252 O303 2.362 . S
Tb252 O304 2.421 . S
Tb252 C316 2.833 . S
C253 C256 1.432 . S
C253 C257 1.414 . S
C253 N260 1.359 . S
C254 C256 1.417 . S
C254 C258 1.432 . S
C254 C266 1.410 . S
C255 C257 1.444 . S
C255 C258 1.317 . S
C255 H278 0.929 . S
C256 C253 1.432 . S
C256 C254 1.417 . S
C256 N264 1.360 . S
C257 C253 1.414 . S
C257 C255 1.444 . S
C257 C262 1.385 . S
C258 C254 1.432 . S
C258 C255 1.317 . S
C258 H270 0.930 . S
C259 C261 1.392 . S
C259 C262 1.370 . S
C259 H271 0.931 . S
N260 C253 1.359 . S
N260 C261 1.327 . S
N260 Tb263 2.600 . S
C261 C259 1.392 . S
C261 N260 1.327 . S
C261 H268 0.930 . S
C262 C257 1.385 . S
C262 C259 1.370 . S
C262 H281 0.930 . S
Tb263 N260 2.600 . S
Tb263 N264 2.660 . S
Tb263 O297 2.362 . S
Tb263 O298 2.421 . S
Tb263 O302 2.546 . S
Tb263 O303 2.610 . S
Tb263 O305 2.320 . S
Tb263 O306 2.552 . S
Tb263 O307 2.413 . S
Tb263 C327 2.833 . S
N264 C256 1.360 . S
N264 Tb263 2.660 . S
N264 C265 1.305 . S
C265 N264 1.305 . S
C265 C267 1.407 . S
C265 H272 0.930 . S
C266 C254 1.410 . S
C266 C267 1.345 . S
C266 H274 0.930 . S
C267 C265 1.407 . S
C267 C266 1.345 . S
C267 H269 0.930 . S
H268 C261 0.930 . S
H269 C267 0.930 . S
H270 C258 0.930 . S
H271 C259 0.931 . S
H272 C265 0.930 . S
H273 C287 0.930 . S
H274 C266 0.930 . S
H275 C293 0.930 . S
H276 C284 0.930 . S
H277 C291 0.931 . S
H278 C255 0.929 . S
H279 C285 0.930 . S
H280 C318 0.930 . S
H281 C262 0.930 . S
H282 C317 0.929 . S
N283 Tb252 2.660 . S
N283 C284 1.305 . S
N283 C288 1.360 . S
C284 H276 0.930 . S
C284 N283 1.305 . S
C284 C287 1.407 . S
C285 H279 0.930 . S
C285 C286 1.410 . S
C285 C287 1.345 . S
C286 C285 1.410 . S
C286 C288 1.417 . S
C286 C318 1.432 . S
C287 H273 0.930 . S
C287 C284 1.407 . S
C287 C285 1.345 . S
C288 N283 1.360 . S
C288 C286 1.417 . S
C288 C292 1.432 . S
H289 C294 0.930 . S
N290 Tb252 2.600 . S
N290 C292 1.359 . S
N290 C293 1.327 . S
C291 H277 0.931 . S
C291 C293 1.392 . S
C291 C294 1.370 . S
C292 C288 1.432 . S
C292 N290 1.359 . S
C292 C295 1.414 . S
C293 H275 0.930 . S
C293 N290 1.327 . S
C293 C291 1.392 . S
C294 H289 0.930 . S
C294 C291 1.370 . S
C294 C295 1.385 . S
C295 C292 1.414 . S
C295 C294 1.385 . S
C295 C317 1.444 . S
O296 Tb252 2.546 . S
O296 C316 1.251 . S
O297 Tb252 2.610 . S
O297 Tb263 2.362 . S
O297 C308 1.283 . S
O298 Tb263 2.421 . S
O298 C315 1.262 . S
O299 Tb252 2.320 . S
O299 C315 1.260 . S
O300 Tb252 2.552 . S
O300 C308 1.243 . S
O301 Tb252 2.413 . S
O301 C316 1.256 . S
O302 Tb263 2.546 . S
O302 C327 1.251 . S
O303 Tb252 2.362 . S
O303 Tb263 2.610 . S
O303 C319 1.283 . S
O304 Tb252 2.421 . S
O304 C326 1.262 . S
O305 Tb263 2.320 . S
O305 C326 1.260 . S
O306 Tb263 2.552 . S
O306 C319 1.243 . S
O307 Tb263 2.413 . S
O307 C327 1.256 . S
C308 O297 1.283 . S
C308 O300 1.243 . S
C309 C311 1.382 . S
C309 C313 1.393 . S
C309 C316 1.500 . S
C310 C311 1.400 1_565 S
C310 C312 1.384 . S
C311 C309 1.382 . S
C311 C310 1.400 1_545 S
C311 H328 0.930 . S
C312 C310 1.384 . S
C312 C314 1.392 . S
C312 H329 0.931 . S
C313 C309 1.393 . S
C313 C314 1.401 1_545 S
C313 H330 0.930 . S
C314 C312 1.392 . S
C314 C313 1.401 1_565 S
C314 H331 0.930 . S
C315 O298 1.262 . S
C315 O299 1.260 . S
C316 Tb252 2.833 . S
C316 O296 1.251 . S
C316 O301 1.256 . S
C316 C309 1.500 . S
C317 H282 0.929 . S
C317 C295 1.444 . S
C317 C318 1.317 . S
C318 H280 0.930 . S
C318 C286 1.432 . S
C318 C317 1.317 . S
C319 O303 1.283 . S
C319 O306 1.243 . S
C320 C321 1.382 . S
C320 C324 1.393 . S
C320 C327 1.500 . S
C321 C320 1.382 . S
C321 C322 1.400 . S
C321 H332 0.930 . S
C322 C321 1.400 . S
C322 C323 1.384 . S
C323 C322 1.384 . S
C323 C325 1.392 . S
C323 H333 0.931 . S
C324 C320 1.393 . S
C324 C325 1.401 . S
C324 H334 0.930 . S
C325 C323 1.392 . S
C325 C324 1.401 . S
C325 H335 0.930 . S
C326 O304 1.262 . S
C326 O305 1.260 . S
C327 Tb263 2.833 . S
C327 O302 1.251 . S
C327 O307 1.256 . S
C327 C320 1.500 . S
H328 C311 0.930 . S
H329 C312 0.931 . S
H330 C313 0.930 . S
H331 C314 0.930 . S
H332 C321 0.930 . S
H333 C323 0.931 . S
H334 C324 0.930 . S
H335 C325 0.930 . S
Tb336 N367 2.660 . S
Tb336 N374 2.600 . S
Tb336 O380 2.546 . S
Tb336 O381 2.610 . S
Tb336 O383 2.320 . S
Tb336 O384 2.552 . S
Tb336 O385 2.413 . S
Tb336 O387 2.362 . S
Tb336 O388 2.421 . S
Tb336 C400 2.833 . S
C337 C340 1.432 . S
C337 C341 1.414 . S
C337 N344 1.359 . S
C338 C340 1.417 . S
C338 C342 1.432 . S
C338 C350 1.410 . S
C339 C341 1.444 . S
C339 C342 1.317 . S
C339 H362 0.929 . S
C340 C337 1.432 . S
C340 C338 1.417 . S
C340 N348 1.360 . S
C341 C337 1.414 . S
C341 C339 1.444 . S
C341 C346 1.385 . S
C342 C338 1.432 . S
C342 C339 1.317 . S
C342 H354 0.930 . S
C343 C345 1.392 . S
C343 C346 1.370 . S
C343 H355 0.931 . S
N344 C337 1.359 . S
N344 C345 1.327 . S
N344 Tb347 2.600 . S
C345 C343 1.392 . S
C345 N344 1.327 . S
C345 H352 0.930 . S
C346 C341 1.385 . S
C346 C343 1.370 . S
C346 H365 0.930 . S
Tb347 N344 2.600 . S
Tb347 N348 2.660 . S
Tb347 O381 2.362 . S
Tb347 O382 2.421 . S
Tb347 O386 2.546 . S
Tb347 O387 2.610 . S
Tb347 O389 2.320 . S
Tb347 O390 2.552 . S
Tb347 O391 2.413 . S
Tb347 C411 2.833 . S
N348 C340 1.360 . S
N348 Tb347 2.660 . S
N348 C349 1.305 . S
C349 N348 1.305 . S
C349 C351 1.407 . S
C349 H356 0.930 . S
C350 C338 1.410 . S
C350 C351 1.345 . S
C350 H358 0.930 . S
C351 C349 1.407 . S
C351 C350 1.345 . S
C351 H353 0.930 . S
H352 C345 0.930 . S
H353 C351 0.930 . S
H354 C342 0.930 . S
H355 C343 0.931 . S
H356 C349 0.930 . S
H357 C371 0.930 . S
H358 C350 0.930 . S
H359 C377 0.930 . S
H360 C368 0.930 . S
H361 C375 0.931 . S
H362 C339 0.929 . S
H363 C369 0.930 . S
H364 C402 0.930 1_455 S
H365 C346 0.930 . S
H366 C401 0.929 . S
N367 Tb336 2.660 . S
N367 C368 1.305 . S
N367 C372 1.360 . S
C368 H360 0.930 . S
C368 N367 1.305 . S
C368 C371 1.407 . S
C369 H363 0.930 . S
C369 C370 1.410 . S
C369 C371 1.345 . S
C370 C369 1.410 . S
C370 C372 1.417 . S
C370 C402 1.432 . S
C371 H357 0.930 . S
C371 C368 1.407 . S
C371 C369 1.345 . S
C372 N367 1.360 . S
C372 C370 1.417 . S
C372 C376 1.432 . S
H373 C378 0.930 . S
N374 Tb336 2.600 . S
N374 C376 1.359 . S
N374 C377 1.327 . S
C375 H361 0.931 . S
C375 C377 1.392 . S
C375 C378 1.370 . S
C376 C372 1.432 . S
C376 N374 1.359 . S
C376 C379 1.414 . S
C377 H359 0.930 . S
C377 N374 1.327 . S
C377 C375 1.392 . S
C378 H373 0.930 . S
C378 C375 1.370 . S
C378 C379 1.385 . S
C379 C376 1.414 . S
C379 C378 1.385 . S
C379 C401 1.444 . S
O380 Tb336 2.546 . S
O380 C400 1.251 . S
O381 Tb336 2.610 . S
O381 Tb347 2.362 . S
O381 C392 1.283 . S
O382 Tb347 2.421 . S
O382 C399 1.262 . S
O383 Tb336 2.320 . S
O383 C399 1.260 . S
O384 Tb336 2.552 . S
O384 C392 1.243 . S
O385 Tb336 2.413 . S
O385 C400 1.256 . S
O386 Tb347 2.546 . S
O386 C411 1.251 . S
O387 Tb336 2.362 . S
O387 Tb347 2.610 . S
O387 C403 1.283 . S
O388 Tb336 2.421 . S
O388 C410 1.262 . S
O389 Tb347 2.320 . S
O389 C410 1.260 . S
O390 Tb347 2.552 . S
O390 C403 1.243 . S
O391 Tb347 2.413 . S
O391 C411 1.256 . S
C392 O381 1.283 . S
C392 O384 1.243 . S
C393 C395 1.382 . S
C393 C397 1.393 . S
C393 C400 1.500 . S
C394 C395 1.400 . S
C394 C396 1.384 . S
C395 C393 1.382 . S
C395 C394 1.400 . S
C395 H412 0.930 . S
C396 C394 1.384 . S
C396 C398 1.392 . S
C396 H413 0.931 . S
C397 C393 1.393 . S
C397 C398 1.401 . S
C397 H414 0.930 . S
C398 C396 1.392 . S
C398 C397 1.401 . S
C398 H415 0.930 . S
C399 O382 1.262 . S
C399 O383 1.260 . S
C400 Tb336 2.833 . S
C400 O380 1.251 . S
C400 O385 1.256 . S
C400 C393 1.500 . S
C401 H366 0.929 . S
C401 C379 1.444 . S
C401 C402 1.317 . S
C402 H364 0.930 1_655 S
C402 C370 1.432 . S
C402 C401 1.317 . S
C403 O387 1.283 . S
C403 O390 1.243 . S
C404 C405 1.382 . S
C404 C408 1.393 . S
C404 C411 1.500 . S
C405 C404 1.382 . S
C405 C406 1.400 . S
C405 H416 0.930 . S
C406 C405 1.400 . S
C406 C407 1.384 . S
C407 C406 1.384 . S
C407 C409 1.392 . S
C407 H417 0.931 . S
C408 C404 1.393 . S
C408 C409 1.401 . S
C408 H418 0.930 . S
C409 C407 1.392 . S
C409 C408 1.401 . S
C409 H419 0.930 . S
C410 O388 1.262 . S
C410 O389 1.260 . S
C411 Tb347 2.833 . S
C411 O386 1.251 . S
C411 O391 1.256 . S
C411 C404 1.500 . S
H412 C395 0.930 . S
H413 C396 0.931 . S
H414 C397 0.930 . S
H415 C398 0.930 . S
H416 C405 0.930 . S
H417 C407 0.931 . S
H418 C408 0.930 . S
H419 C409 0.930 . S
Tb420 N451 2.660 . S
Tb420 N458 2.600 . S
Tb420 O464 2.546 . S
Tb420 O465 2.610 . S
Tb420 O467 2.320 . S
Tb420 O468 2.552 . S
Tb420 O469 2.413 . S
Tb420 O471 2.362 . S
Tb420 O472 2.421 . S
Tb420 C484 2.833 . S
C421 C424 1.432 . S
C421 C425 1.414 . S
C421 N428 1.359 . S
C422 C424 1.417 . S
C422 C426 1.432 . S
C422 C434 1.410 . S
C423 C425 1.444 . S
C423 C426 1.317 . S
C423 H446 0.929 . S
C424 C421 1.432 . S
C424 C422 1.417 . S
C424 N432 1.360 . S
C425 C421 1.414 . S
C425 C423 1.444 . S
C425 C430 1.385 . S
C426 C422 1.432 . S
C426 C423 1.317 . S
C426 H438 0.930 1_545 S
C427 C429 1.392 . S
C427 C430 1.370 . S
C427 H439 0.931 . S
N428 C421 1.359 . S
N428 C429 1.327 . S
N428 Tb431 2.600 . S
C429 C427 1.392 . S
C429 N428 1.327 . S
C429 H436 0.930 . S
C430 C425 1.385 . S
C430 C427 1.370 . S
C430 H449 0.930 . S
Tb431 N428 2.600 . S
Tb431 N432 2.660 . S
Tb431 O465 2.362 . S
Tb431 O466 2.421 . S
Tb431 O470 2.546 . S
Tb431 O471 2.610 . S
Tb431 O473 2.320 . S
Tb431 O474 2.552 . S
Tb431 O475 2.413 . S
Tb431 C495 2.833 . S
N432 C424 1.360 . S
N432 Tb431 2.660 . S
N432 C433 1.305 . S
C433 N432 1.305 . S
C433 C435 1.407 . S
C433 H440 0.930 . S
C434 C422 1.410 . S
C434 C435 1.345 . S
C434 H442 0.930 . S
C435 C433 1.407 . S
C435 C434 1.345 . S
C435 H437 0.930 . S
H436 C429 0.930 . S
H437 C435 0.930 . S
H438 C426 0.930 1_565 S
H439 C427 0.931 . S
H440 C433 0.930 . S
H441 C455 0.930 . S
H442 C434 0.930 . S
H443 C461 0.930 . S
H444 C452 0.930 . S
H445 C459 0.931 . S
H446 C423 0.929 . S
H447 C453 0.930 . S
H448 C486 0.930 . S
H449 C430 0.930 . S
H450 C485 0.929 . S
N451 Tb420 2.660 . S
N451 C452 1.305 . S
N451 C456 1.360 . S
C452 H444 0.930 . S
C452 N451 1.305 . S
C452 C455 1.407 . S
C453 H447 0.930 . S
C453 C454 1.410 . S
C453 C455 1.345 . S
C454 C453 1.410 . S
C454 C456 1.417 . S
C454 C486 1.432 . S
C455 H441 0.930 . S
C455 C452 1.407 . S
C455 C453 1.345 . S
C456 N451 1.360 . S
C456 C454 1.417 . S
C456 C460 1.432 . S
H457 C462 0.930 . S
N458 Tb420 2.600 . S
N458 C460 1.359 . S
N458 C461 1.327 . S
C459 H445 0.931 . S
C459 C461 1.392 . S
C459 C462 1.370 . S
C460 C456 1.432 . S
C460 N458 1.359 . S
C460 C463 1.414 . S
C461 H443 0.930 . S
C461 N458 1.327 . S
C461 C459 1.392 . S
C462 H457 0.930 . S
C462 C459 1.370 . S
C462 C463 1.385 . S
C463 C460 1.414 . S
C463 C462 1.385 . S
C463 C485 1.444 . S
O464 Tb420 2.546 . S
O464 C484 1.251 . S
O465 Tb420 2.610 . S
O465 Tb431 2.362 . S
O465 C476 1.283 . S
O466 Tb431 2.421 . S
O466 C483 1.262 . S
O467 Tb420 2.320 . S
O467 C483 1.260 . S
O468 Tb420 2.552 . S
O468 C476 1.243 . S
O469 Tb420 2.413 . S
O469 C484 1.256 . S
O470 Tb431 2.546 . S
O470 C495 1.251 . S
O471 Tb420 2.362 . S
O471 Tb431 2.610 . S
O471 C487 1.283 . S
O472 Tb420 2.421 . S
O472 C494 1.262 . S
O473 Tb431 2.320 . S
O473 C494 1.260 . S
O474 Tb431 2.552 . S
O474 C487 1.243 . S
O475 Tb431 2.413 . S
O475 C495 1.256 . S
C476 O465 1.283 . S
C476 O468 1.243 . S
C477 C479 1.382 . S
C477 C481 1.393 . S
C477 C484 1.500 . S
C478 C479 1.400 1_455 S
C478 C480 1.384 . S
C479 C477 1.382 . S
C479 C478 1.400 1_655 S
C479 H496 0.930 . S
C480 C478 1.384 . S
C480 C482 1.392 . S
C480 H497 0.931 . S
C481 C477 1.393 . S
C481 C482 1.401 1_655 S
C481 H498 0.930 . S
C482 C480 1.392 . S
C482 C481 1.401 1_455 S
C482 H499 0.930 . S
C483 O466 1.262 . S
C483 O467 1.260 . S
C484 Tb420 2.833 . S
C484 O464 1.251 . S
C484 O469 1.256 . S
C484 C477 1.500 . S
C485 H450 0.929 . S
C485 C463 1.444 . S
C485 C486 1.317 . S
C486 H448 0.930 . S
C486 C454 1.432 . S
C486 C485 1.317 . S
C487 O471 1.283 . S
C487 O474 1.243 . S
C488 C489 1.382 . S
C488 C492 1.393 . S
C488 C495 1.500 . S
C489 C488 1.382 . S
C489 C490 1.400 . S
C489 H500 0.930 . S
C490 C489 1.400 . S
C490 C491 1.384 . S
C491 C490 1.384 . S
C491 C493 1.392 . S
C491 H501 0.931 . S
C492 C488 1.393 . S
C492 C493 1.401 . S
C492 H502 0.930 . S
C493 C491 1.392 . S
C493 C492 1.401 . S
C493 H503 0.930 . S
C494 O472 1.262 . S
C494 O473 1.260 . S
C495 Tb431 2.833 . S
C495 O470 1.251 . S
C495 O475 1.256 . S
C495 C488 1.500 . S
H496 C479 0.930 . S
H497 C480 0.931 . S
H498 C481 0.930 . S
H499 C482 0.930 . S
H500 C489 0.930 . S
H501 C491 0.931 . S
H502 C492 0.930 . S
H503 C493 0.930 . S
Tb504 N535 2.660 . S
Tb504 N542 2.600 . S
Tb504 O548 2.546 . S
Tb504 O549 2.610 . S
Tb504 O551 2.320 . S
Tb504 O552 2.552 . S
Tb504 O553 2.413 . S
Tb504 O555 2.362 . S
Tb504 O556 2.421 . S
Tb504 C568 2.833 . S
C505 C508 1.432 . S
C505 C509 1.414 . S
C505 N512 1.359 . S
C506 C508 1.417 . S
C506 C510 1.432 . S
C506 C518 1.410 . S
C507 C509 1.444 . S
C507 C510 1.317 . S
C507 H530 0.929 . S
C508 C505 1.432 . S
C508 C506 1.417 . S
C508 N516 1.360 . S
C509 C505 1.414 . S
C509 C507 1.444 . S
C509 C514 1.385 . S
C510 C506 1.432 . S
C510 C507 1.317 . S
C510 H522 0.930 . S
C511 C513 1.392 . S
C511 C514 1.370 . S
C511 H523 0.931 . S
N512 C505 1.359 . S
N512 C513 1.327 . S
N512 Tb515 2.600 . S
C513 C511 1.392 . S
C513 N512 1.327 . S
C513 H520 0.930 . S
C514 C509 1.385 . S
C514 C511 1.370 . S
C514 H533 0.930 . S
Tb515 N512 2.600 . S
Tb515 N516 2.660 . S
Tb515 O549 2.362 . S
Tb515 O550 2.421 . S
Tb515 O554 2.546 . S
Tb515 O555 2.610 . S
Tb515 O557 2.320 . S
Tb515 O558 2.552 . S
Tb515 O559 2.413 . S
Tb515 C579 2.833 . S
N516 C508 1.360 . S
N516 Tb515 2.660 . S
N516 C517 1.305 . S
C517 N516 1.305 . S
C517 C519 1.407 . S
C517 H524 0.930 . S
C518 C506 1.410 . S
C518 C519 1.345 . S
C518 H526 0.930 . S
C519 C517 1.407 . S
C519 C518 1.345 . S
C519 H521 0.930 . S
H520 C513 0.930 . S
H521 C519 0.930 . S
H522 C510 0.930 . S
H523 C511 0.931 . S
H524 C517 0.930 . S
H525 C539 0.930 . S
H526 C518 0.930 . S
H527 C545 0.930 . S
H528 C536 0.930 . S
H529 C543 0.931 . S
H530 C507 0.929 . S
H531 C537 0.930 . S
H532 C570 0.930 . S
H533 C514 0.930 . S
H534 C569 0.929 . S
N535 Tb504 2.660 . S
N535 C536 1.305 . S
N535 C540 1.360 . S
C536 H528 0.930 . S
C536 N535 1.305 . S
C536 C539 1.407 . S
C537 H531 0.930 . S
C537 C538 1.410 . S
C537 C539 1.345 . S
C538 C537 1.410 . S
C538 C540 1.417 . S
C538 C570 1.432 . S
C539 H525 0.930 . S
C539 C536 1.407 . S
C539 C537 1.345 . S
C540 N535 1.360 . S
C540 C538 1.417 . S
C540 C544 1.432 . S
H541 C546 0.930 . S
N542 Tb504 2.600 . S
N542 C544 1.359 . S
N542 C545 1.327 . S
C543 H529 0.931 . S
C543 C545 1.392 . S
C543 C546 1.370 . S
C544 C540 1.432 . S
C544 N542 1.359 . S
C544 C547 1.414 . S
C545 H527 0.930 . S
C545 N542 1.327 . S
C545 C543 1.392 . S
C546 H541 0.930 . S
C546 C543 1.370 . S
C546 C547 1.385 . S
C547 C544 1.414 . S
C547 C546 1.385 . S
C547 C569 1.444 . S
O548 Tb504 2.546 . S
O548 C568 1.251 . S
O549 Tb504 2.610 . S
O549 Tb515 2.362 . S
O549 C560 1.283 . S
O550 Tb515 2.421 . S
O550 C567 1.262 . S
O551 Tb504 2.320 . S
O551 C567 1.260 . S
O552 Tb504 2.552 . S
O552 C560 1.243 . S
O553 Tb504 2.413 . S
O553 C568 1.256 . S
O554 Tb515 2.546 . S
O554 C579 1.251 . S
O555 Tb504 2.362 . S
O555 Tb515 2.610 . S
O555 C571 1.283 . S
O556 Tb504 2.421 . S
O556 C578 1.262 . S
O557 Tb515 2.320 . S
O557 C578 1.260 . S
O558 Tb515 2.552 . S
O558 C571 1.243 . S
O559 Tb515 2.413 . S
O559 C579 1.256 . S
C560 O549 1.283 . S
C560 O552 1.243 . S
C561 C563 1.382 . S
C561 C565 1.393 . S
C561 C568 1.500 . S
C562 C563 1.400 1_655 S
C562 C564 1.384 . S
C563 C561 1.382 . S
C563 C562 1.400 1_455 S
C563 H580 0.930 . S
C564 C562 1.384 . S
C564 C566 1.392 . S
C564 H581 0.931 . S
C565 C561 1.393 . S
C565 C566 1.401 1_455 S
C565 H582 0.930 . S
C566 C564 1.392 . S
C566 C565 1.401 1_655 S
C566 H583 0.930 . S
C567 O550 1.262 . S
C567 O551 1.260 . S
C568 Tb504 2.833 . S
C568 O548 1.251 . S
C568 O553 1.256 . S
C568 C561 1.500 . S
C569 H534 0.929 . S
C569 C547 1.444 . S
C569 C570 1.317 . S
C570 H532 0.930 . S
C570 C538 1.432 . S
C570 C569 1.317 . S
C571 O555 1.283 . S
C571 O558 1.243 . S
C572 C573 1.382 . S
C572 C576 1.393 . S
C572 C579 1.500 . S
C573 C572 1.382 . S
C573 C574 1.400 . S
C573 H584 0.930 . S
C574 C573 1.400 . S
C574 C575 1.384 . S
C575 C574 1.384 . S
C575 C577 1.392 . S
C575 H585 0.931 . S
C576 C572 1.393 . S
C576 C577 1.401 . S
C576 H586 0.930 . S
C577 C575 1.392 . S
C577 C576 1.401 . S
C577 H587 0.930 . S
C578 O556 1.262 . S
C578 O557 1.260 . S
C579 Tb515 2.833 . S
C579 O554 1.251 . S
C579 O559 1.256 . S
C579 C572 1.500 . S
H580 C563 0.930 . S
H581 C564 0.931 . S
H582 C565 0.930 . S
H583 C566 0.930 . S
H584 C573 0.930 . S
H585 C575 0.931 . S
H586 C576 0.930 . S
H587 C577 0.930 . S
Tb588 N619 2.660 . S
Tb588 N626 2.600 . S
Tb588 O632 2.546 . S
Tb588 O633 2.610 . S
Tb588 O635 2.320 . S
Tb588 O636 2.552 . S
Tb588 O637 2.413 . S
Tb588 O639 2.362 . S
Tb588 O640 2.421 . S
Tb588 C652 2.833 . S
C589 C592 1.432 . S
C589 C593 1.414 . S
C589 N596 1.359 . S
C590 C592 1.417 . S
C590 C594 1.432 . S
C590 C602 1.410 . S
C591 C593 1.444 . S
C591 C594 1.317 . S
C591 H614 0.929 . S
C592 C589 1.432 . S
C592 C590 1.417 . S
C592 N600 1.360 . S
C593 C589 1.414 . S
C593 C591 1.444 . S
C593 C598 1.385 . S
C594 C590 1.432 . S
C594 C591 1.317 . S
C594 H606 0.930 . S
C595 C597 1.392 . S
C595 C598 1.370 . S
C595 H607 0.931 . S
N596 C589 1.359 . S
N596 C597 1.327 . S
N596 Tb599 2.600 . S
C597 C595 1.392 . S
C597 N596 1.327 . S
C597 H604 0.930 . S
C598 C593 1.385 . S
C598 C595 1.370 . S
C598 H617 0.930 . S
Tb599 N596 2.600 . S
Tb599 N600 2.660 . S
Tb599 O633 2.362 . S
Tb599 O634 2.421 . S
Tb599 O638 2.546 . S
Tb599 O639 2.610 . S
Tb599 O641 2.320 . S
Tb599 O642 2.552 . S
Tb599 O643 2.413 . S
Tb599 C663 2.833 . S
N600 C592 1.360 . S
N600 Tb599 2.660 . S
N600 C601 1.305 . S
C601 N600 1.305 . S
C601 C603 1.407 . S
C601 H608 0.930 . S
C602 C590 1.410 . S
C602 C603 1.345 . S
C602 H610 0.930 . S
C603 C601 1.407 . S
C603 C602 1.345 . S
C603 H605 0.930 . S
H604 C597 0.930 . S
H605 C603 0.930 . S
H606 C594 0.930 . S
H607 C595 0.931 . S
H608 C601 0.930 . S
H609 C623 0.930 . S
H610 C602 0.930 . S
H611 C629 0.930 . S
H612 C620 0.930 . S
H613 C627 0.931 . S
H614 C591 0.929 . S
H615 C621 0.930 . S
H616 C654 0.930 1_655 S
H617 C598 0.930 . S
H618 C653 0.929 . S
N619 Tb588 2.660 . S
N619 C620 1.305 . S
N619 C624 1.360 . S
C620 H612 0.930 . S
C620 N619 1.305 . S
C620 C623 1.407 . S
C621 H615 0.930 . S
C621 C622 1.410 . S
C621 C623 1.345 . S
C622 C621 1.410 . S
C622 C624 1.417 . S
C622 C654 1.432 . S
C623 H609 0.930 . S
C623 C620 1.407 . S
C623 C621 1.345 . S
C624 N619 1.360 . S
C624 C622 1.417 . S
C624 C628 1.432 . S
H625 C630 0.930 . S
N626 Tb588 2.600 . S
N626 C628 1.359 . S
N626 C629 1.327 . S
C627 H613 0.931 . S
C627 C629 1.392 . S
C627 C630 1.370 . S
C628 C624 1.432 . S
C628 N626 1.359 . S
C628 C631 1.414 . S
C629 H611 0.930 . S
C629 N626 1.327 . S
C629 C627 1.392 . S
C630 H625 0.930 . S
C630 C627 1.370 . S
C630 C631 1.385 . S
C631 C628 1.414 . S
C631 C630 1.385 . S
C631 C653 1.444 . S
O632 Tb588 2.546 . S
O632 C652 1.251 . S
O633 Tb588 2.610 . S
O633 Tb599 2.362 . S
O633 C644 1.283 . S
O634 Tb599 2.421 . S
O634 C651 1.262 . S
O635 Tb588 2.320 . S
O635 C651 1.260 . S
O636 Tb588 2.552 . S
O636 C644 1.243 . S
O637 Tb588 2.413 . S
O637 C652 1.256 . S
O638 Tb599 2.546 . S
O638 C663 1.251 . S
O639 Tb588 2.362 . S
O639 Tb599 2.610 . S
O639 C655 1.283 . S
O640 Tb588 2.421 . S
O640 C662 1.262 . S
O641 Tb599 2.320 . S
O641 C662 1.260 . S
O642 Tb599 2.552 . S
O642 C655 1.243 . S
O643 Tb599 2.413 . S
O643 C663 1.256 . S
C644 O633 1.283 . S
C644 O636 1.243 . S
C645 C647 1.382 . S
C645 C649 1.393 . S
C645 C652 1.500 . S
C646 C647 1.400 . S
C646 C648 1.384 . S
C647 C645 1.382 . S
C647 C646 1.400 . S
C647 H664 0.930 . S
C648 C646 1.384 . S
C648 C650 1.392 . S
C648 H665 0.931 . S
C649 C645 1.393 . S
C649 C650 1.401 . S
C649 H666 0.930 . S
C650 C648 1.392 . S
C650 C649 1.401 . S
C650 H667 0.930 . S
C651 O634 1.262 . S
C651 O635 1.260 . S
C652 Tb588 2.833 . S
C652 O632 1.251 . S
C652 O637 1.256 . S
C652 C645 1.500 . S
C653 H618 0.929 . S
C653 C631 1.444 . S
C653 C654 1.317 . S
C654 H616 0.930 1_455 S
C654 C622 1.432 . S
C654 C653 1.317 . S
C655 O639 1.283 . S
C655 O642 1.243 . S
C656 C657 1.382 . S
C656 C660 1.393 . S
C656 C663 1.500 . S
C657 C656 1.382 . S
C657 C658 1.400 1_565 S
C657 H668 0.930 . S
C658 C657 1.400 1_545 S
C658 C659 1.384 . S
C659 C658 1.384 . S
C659 C661 1.392 . S
C659 H669 0.931 . S
C660 C656 1.393 . S
C660 C661 1.401 1_565 S
C660 H670 0.930 . S
C661 C659 1.392 . S
C661 C660 1.401 1_545 S
C661 H671 0.930 . S
C662 O640 1.262 . S
C662 O641 1.260 . S
C663 Tb599 2.833 . S
C663 O638 1.251 . S
C663 O643 1.256 . S
C663 C656 1.500 . S
H664 C647 0.930 . S
H665 C648 0.931 . S
H666 C649 0.930 . S
H667 C650 0.930 . S
H668 C657 0.930 . S
H669 C659 0.931 . S
H670 C660 0.930 . S
H671 C661 0.930 . S
Tb672 N703 2.660 . S
Tb672 N710 2.600 . S
Tb672 O716 2.546 . S
Tb672 O717 2.610 . S
Tb672 O719 2.320 . S
Tb672 O720 2.552 . S
Tb672 O721 2.413 . S
Tb672 O723 2.362 . S
Tb672 O724 2.421 . S
Tb672 C736 2.833 . S
C673 C676 1.432 . S
C673 C677 1.414 . S
C673 N680 1.359 . S
C674 C676 1.417 . S
C674 C678 1.432 . S
C674 C686 1.410 . S
C675 C677 1.444 . S
C675 C678 1.317 . S
C675 H698 0.929 . S
C676 C673 1.432 . S
C676 C674 1.417 . S
C676 N684 1.360 . S
C677 C673 1.414 . S
C677 C675 1.444 . S
C677 C682 1.385 . S
C678 C674 1.432 . S
C678 C675 1.317 . S
C678 H690 0.930 1_565 S
C679 C681 1.392 . S
C679 C682 1.370 . S
C679 H691 0.931 . S
N680 C673 1.359 . S
N680 C681 1.327 . S
N680 Tb683 2.600 . S
C681 C679 1.392 . S
C681 N680 1.327 . S
C681 H688 0.930 . S
C682 C677 1.385 . S
C682 C679 1.370 . S
C682 H701 0.930 . S
Tb683 N680 2.600 . S
Tb683 N684 2.660 . S
Tb683 O717 2.362 . S
Tb683 O718 2.421 . S
Tb683 O722 2.546 . S
Tb683 O723 2.610 . S
Tb683 O725 2.320 . S
Tb683 O726 2.552 . S
Tb683 O727 2.413 . S
Tb683 C747 2.833 . S
N684 C676 1.360 . S
N684 Tb683 2.660 . S
N684 C685 1.305 . S
C685 N684 1.305 . S
C685 C687 1.407 . S
C685 H692 0.930 . S
C686 C674 1.410 . S
C686 C687 1.345 . S
C686 H694 0.930 . S
C687 C685 1.407 . S
C687 C686 1.345 . S
C687 H689 0.930 . S
H688 C681 0.930 . S
H689 C687 0.930 . S
H690 C678 0.930 1_545 S
H691 C679 0.931 . S
H692 C685 0.930 . S
H693 C707 0.930 . S
H694 C686 0.930 . S
H695 C713 0.930 . S
H696 C704 0.930 . S
H697 C711 0.931 . S
H698 C675 0.929 . S
H699 C705 0.930 . S
H700 C738 0.930 . S
H701 C682 0.930 . S
H702 C737 0.929 . S
N703 Tb672 2.660 . S
N703 C704 1.305 . S
N703 C708 1.360 . S
C704 H696 0.930 . S
C704 N703 1.305 . S
C704 C707 1.407 . S
C705 H699 0.930 . S
C705 C706 1.410 . S
C705 C707 1.345 . S
C706 C705 1.410 . S
C706 C708 1.417 . S
C706 C738 1.432 . S
C707 H693 0.930 . S
C707 C704 1.407 . S
C707 C705 1.345 . S
C708 N703 1.360 . S
C708 C706 1.417 . S
C708 C712 1.432 . S
H709 C714 0.930 . S
N710 Tb672 2.600 . S
N710 C712 1.359 . S
N710 C713 1.327 . S
C711 H697 0.931 . S
C711 C713 1.392 . S
C711 C714 1.370 . S
C712 C708 1.432 . S
C712 N710 1.359 . S
C712 C715 1.414 . S
C713 H695 0.930 . S
C713 N710 1.327 . S
C713 C711 1.392 . S
C714 H709 0.930 . S
C714 C711 1.370 . S
C714 C715 1.385 . S
C715 C712 1.414 . S
C715 C714 1.385 . S
C715 C737 1.444 . S
O716 Tb672 2.546 . S
O716 C736 1.251 . S
O717 Tb672 2.610 . S
O717 Tb683 2.362 . S
O717 C728 1.283 . S
O718 Tb683 2.421 . S
O718 C735 1.262 . S
O719 Tb672 2.320 . S
O719 C735 1.260 . S
O720 Tb672 2.552 . S
O720 C728 1.243 . S
O721 Tb672 2.413 . S
O721 C736 1.256 . S
O722 Tb683 2.546 . S
O722 C747 1.251 . S
O723 Tb672 2.362 . S
O723 Tb683 2.610 . S
O723 C739 1.283 . S
O724 Tb672 2.421 . S
O724 C746 1.262 . S
O725 Tb683 2.320 . S
O725 C746 1.260 . S
O726 Tb683 2.552 . S
O726 C739 1.243 . S
O727 Tb683 2.413 . S
O727 C747 1.256 . S
C728 O717 1.283 . S
C728 O720 1.243 . S
C729 C731 1.382 . S
C729 C733 1.393 . S
C729 C736 1.500 . S
C730 C731 1.400 . S
C730 C732 1.384 . S
C731 C729 1.382 . S
C731 C730 1.400 . S
C731 H748 0.930 . S
C732 C730 1.384 . S
C732 C734 1.392 . S
C732 H749 0.931 . S
C733 C729 1.393 . S
C733 C734 1.401 . S
C733 H750 0.930 . S
C734 C732 1.392 . S
C734 C733 1.401 . S
C734 H751 0.930 . S
C735 O718 1.262 . S
C735 O719 1.260 . S
C736 Tb672 2.833 . S
C736 O716 1.251 . S
C736 O721 1.256 . S
C736 C729 1.500 . S
C737 H702 0.929 . S
C737 C715 1.444 . S
C737 C738 1.317 . S
C738 H700 0.930 . S
C738 C706 1.432 . S
C738 C737 1.317 . S
C739 O723 1.283 . S
C739 O726 1.243 . S
C740 C741 1.382 . S
C740 C744 1.393 . S
C740 C747 1.500 . S
C741 C740 1.382 . S
C741 C742 1.400 . S
C741 H752 0.930 . S
C742 C741 1.400 . S
C742 C743 1.384 . S
C743 C742 1.384 . S
C743 C745 1.392 . S
C743 H753 0.931 . S
C744 C740 1.393 . S
C744 C745 1.401 . S
C744 H754 0.930 . S
C745 C743 1.392 . S
C745 C744 1.401 . S
C745 H755 0.930 . S
C746 O724 1.262 . S
C746 O725 1.260 . S
C747 Tb683 2.833 . S
C747 O722 1.251 . S
C747 O727 1.256 . S
C747 C740 1.500 . S
H748 C731 0.930 . S
H749 C732 0.931 . S
H750 C733 0.930 . S
H751 C734 0.930 . S
H752 C741 0.930 . S
H753 C743 0.931 . S
H754 C744 0.930 . S
H755 C745 0.930 . S
Tb756 N787 2.660 . S
Tb756 N794 2.600 . S
Tb756 O800 2.546 . S
Tb756 O801 2.610 . S
Tb756 O803 2.320 . S
Tb756 O804 2.552 . S
Tb756 O805 2.413 . S
Tb756 O807 2.362 . S
Tb756 O808 2.421 . S
Tb756 C820 2.833 . S
C757 C760 1.432 . S
C757 C761 1.414 . S
C757 N764 1.359 . S
C758 C760 1.417 . S
C758 C762 1.432 . S
C758 C770 1.410 . S
C759 C761 1.444 . S
C759 C762 1.317 . S
C759 H782 0.929 . S
C760 C757 1.432 . S
C760 C758 1.417 . S
C760 N768 1.360 . S
C761 C757 1.414 . S
C761 C759 1.444 . S
C761 C766 1.385 . S
C762 C758 1.432 . S
C762 C759 1.317 . S
C762 H774 0.930 . S
C763 C765 1.392 . S
C763 C766 1.370 . S
C763 H775 0.931 . S
N764 C757 1.359 . S
N764 C765 1.327 . S
N764 Tb767 2.600 . S
C765 C763 1.392 . S
C765 N764 1.327 . S
C765 H772 0.930 . S
C766 C761 1.385 . S
C766 C763 1.370 . S
C766 H785 0.930 . S
Tb767 N764 2.600 . S
Tb767 N768 2.660 . S
Tb767 O801 2.362 . S
Tb767 O802 2.421 . S
Tb767 O806 2.546 . S
Tb767 O807 2.610 . S
Tb767 O809 2.320 . S
Tb767 O810 2.552 . S
Tb767 O811 2.413 . S
Tb767 C831 2.833 . S
N768 C760 1.360 . S
N768 Tb767 2.660 . S
N768 C769 1.305 . S
C769 N768 1.305 . S
C769 C771 1.407 . S
C769 H776 0.930 . S
C770 C758 1.410 . S
C770 C771 1.345 . S
C770 H778 0.930 . S
C771 C769 1.407 . S
C771 C770 1.345 . S
C771 H773 0.930 . S
H772 C765 0.930 . S
H773 C771 0.930 . S
H774 C762 0.930 . S
H775 C763 0.931 . S
H776 C769 0.930 . S
H777 C791 0.930 . S
H778 C770 0.930 . S
H779 C797 0.930 . S
H780 C788 0.930 . S
H781 C795 0.931 . S
H782 C759 0.929 . S
H783 C789 0.930 . S
H784 C822 0.930 . S
H785 C766 0.930 . S
H786 C821 0.929 . S
N787 Tb756 2.660 . S
N787 C788 1.305 . S
N787 C792 1.360 . S
C788 H780 0.930 . S
C788 N787 1.305 . S
C788 C791 1.407 . S
C789 H783 0.930 . S
C789 C790 1.410 . S
C789 C791 1.345 . S
C790 C789 1.410 . S
C790 C792 1.417 . S
C790 C822 1.432 . S
C791 H777 0.930 . S
C791 C788 1.407 . S
C791 C789 1.345 . S
C792 N787 1.360 . S
C792 C790 1.417 . S
C792 C796 1.432 . S
H793 C798 0.930 . S
N794 Tb756 2.600 . S
N794 C796 1.359 . S
N794 C797 1.327 . S
C795 H781 0.931 . S
C795 C797 1.392 . S
C795 C798 1.370 . S
C796 C792 1.432 . S
C796 N794 1.359 . S
C796 C799 1.414 . S
C797 H779 0.930 . S
C797 N794 1.327 . S
C797 C795 1.392 . S
C798 H793 0.930 . S
C798 C795 1.370 . S
C798 C799 1.385 . S
C799 C796 1.414 . S
C799 C798 1.385 . S
C799 C821 1.444 . S
O800 Tb756 2.546 . S
O800 C820 1.251 . S
O801 Tb756 2.610 . S
O801 Tb767 2.362 . S
O801 C812 1.283 . S
O802 Tb767 2.421 . S
O802 C819 1.262 . S
O803 Tb756 2.320 . S
O803 C819 1.260 . S
O804 Tb756 2.552 . S
O804 C812 1.243 . S
O805 Tb756 2.413 . S
O805 C820 1.256 . S
O806 Tb767 2.546 . S
O806 C831 1.251 . S
O807 Tb756 2.362 . S
O807 Tb767 2.610 . S
O807 C823 1.283 . S
O808 Tb756 2.421 . S
O808 C830 1.262 . S
O809 Tb767 2.320 . S
O809 C830 1.260 . S
O810 Tb767 2.552 . S
O810 C823 1.243 . S
O811 Tb767 2.413 . S
O811 C831 1.256 . S
C812 O801 1.283 . S
C812 O804 1.243 . S
C813 C815 1.382 . S
C813 C817 1.393 . S
C813 C820 1.500 . S
C814 C815 1.400 . S
C814 C816 1.384 . S
C815 C813 1.382 . S
C815 C814 1.400 . S
C815 H832 0.930 . S
C816 C814 1.384 . S
C816 C818 1.392 . S
C816 H833 0.931 . S
C817 C813 1.393 . S
C817 C818 1.401 . S
C817 H834 0.930 . S
C818 C816 1.392 . S
C818 C817 1.401 . S
C818 H835 0.930 . S
C819 O802 1.262 . S
C819 O803 1.260 . S
C820 Tb756 2.833 . S
C820 O800 1.251 . S
C820 O805 1.256 . S
C820 C813 1.500 . S
C821 H786 0.929 . S
C821 C799 1.444 . S
C821 C822 1.317 . S
C822 H784 0.930 . S
C822 C790 1.432 . S
C822 C821 1.317 . S
C823 O807 1.283 . S
C823 O810 1.243 . S
C824 C825 1.382 . S
C824 C828 1.393 . S
C824 C831 1.500 . S
C825 C824 1.382 . S
C825 C826 1.400 1_455 S
C825 H836 0.930 . S
C826 C825 1.400 1_655 S
C826 C827 1.384 . S
C827 C826 1.384 . S
C827 C829 1.392 . S
C827 H837 0.931 . S
C828 C824 1.393 . S
C828 C829 1.401 1_455 S
C828 H838 0.930 . S
C829 C827 1.392 . S
C829 C828 1.401 1_655 S
C829 H839 0.930 . S
C830 O808 1.262 . S
C830 O809 1.260 . S
C831 Tb767 2.833 . S
C831 O806 1.251 . S
C831 O811 1.256 . S
C831 C824 1.500 . S
H832 C815 0.930 . S
H833 C816 0.931 . S
H834 C817 0.930 . S
H835 C818 0.930 . S
H836 C825 0.930 . S
H837 C827 0.931 . S
H838 C828 0.930 . S
H839 C829 0.930 . S
Tb840 N871 2.660 . S
Tb840 N878 2.600 . S
Tb840 O884 2.546 . S
Tb840 O885 2.610 . S
Tb840 O887 2.320 . S
Tb840 O888 2.552 . S
Tb840 O889 2.413 . S
Tb840 O891 2.362 . S
Tb840 O892 2.421 . S
Tb840 C904 2.833 . S
C841 C844 1.432 . S
C841 C845 1.414 . S
C841 N848 1.359 . S
C842 C844 1.417 . S
C842 C846 1.432 . S
C842 C854 1.410 . S
C843 C845 1.444 . S
C843 C846 1.317 . S
C843 H866 0.929 . S
C844 C841 1.432 . S
C844 C842 1.417 . S
C844 N852 1.360 . S
C845 C841 1.414 . S
C845 C843 1.444 . S
C845 C850 1.385 . S
C846 C842 1.432 . S
C846 C843 1.317 . S
C846 H858 0.930 1_455 S
C847 C849 1.392 . S
C847 C850 1.370 . S
C847 H859 0.931 . S
N848 C841 1.359 . S
N848 C849 1.327 . S
N848 Tb851 2.600 . S
C849 C847 1.392 . S
C849 N848 1.327 . S
C849 H856 0.930 . S
C850 C845 1.385 . S
C850 C847 1.370 . S
C850 H869 0.930 . S
Tb851 N848 2.600 . S
Tb851 N852 2.660 . S
Tb851 O885 2.362 . S
Tb851 O886 2.421 . S
Tb851 O890 2.546 . S
Tb851 O891 2.610 . S
Tb851 O893 2.320 . S
Tb851 O894 2.552 . S
Tb851 O895 2.413 . S
Tb851 C915 2.833 . S
N852 C844 1.360 . S
N852 Tb851 2.660 . S
N852 C853 1.305 . S
C853 N852 1.305 . S
C853 C855 1.407 . S
C853 H860 0.930 . S
C854 C842 1.410 . S
C854 C855 1.345 . S
C854 H862 0.930 . S
C855 C853 1.407 . S
C855 C854 1.345 . S
C855 H857 0.930 . S
H856 C849 0.930 . S
H857 C855 0.930 . S
H858 C846 0.930 1_655 S
H859 C847 0.931 . S
H860 C853 0.930 . S
H861 C875 0.930 . S
H862 C854 0.930 . S
H863 C881 0.930 . S
H864 C872 0.930 . S
H865 C879 0.931 . S
H866 C843 0.929 . S
H867 C873 0.930 . S
H868 C906 0.930 . S
H869 C850 0.930 . S
H870 C905 0.929 . S
N871 Tb840 2.660 . S
N871 C872 1.305 . S
N871 C876 1.360 . S
C872 H864 0.930 . S
C872 N871 1.305 . S
C872 C875 1.407 . S
C873 H867 0.930 . S
C873 C874 1.410 . S
C873 C875 1.345 . S
C874 C873 1.410 . S
C874 C876 1.417 . S
C874 C906 1.432 . S
C875 H861 0.930 . S
C875 C872 1.407 . S
C875 C873 1.345 . S
C876 N871 1.360 . S
C876 C874 1.417 . S
C876 C880 1.432 . S
H877 C882 0.930 . S
N878 Tb840 2.600 . S
N878 C880 1.359 . S
N878 C881 1.327 . S
C879 H865 0.931 . S
C879 C881 1.392 . S
C879 C882 1.370 . S
C880 C876 1.432 . S
C880 N878 1.359 . S
C880 C883 1.414 . S
C881 H863 0.930 . S
C881 N878 1.327 . S
C881 C879 1.392 . S
C882 H877 0.930 . S
C882 C879 1.370 . S
C882 C883 1.385 . S
C883 C880 1.414 . S
C883 C882 1.385 . S
C883 C905 1.444 . S
O884 Tb840 2.546 . S
O884 C904 1.251 . S
O885 Tb840 2.610 . S
O885 Tb851 2.362 . S
O885 C896 1.283 . S
O886 Tb851 2.421 . S
O886 C903 1.262 . S
O887 Tb840 2.320 . S
O887 C903 1.260 . S
O888 Tb840 2.552 . S
O888 C896 1.243 . S
O889 Tb840 2.413 . S
O889 C904 1.256 . S
O890 Tb851 2.546 . S
O890 C915 1.251 . S
O891 Tb840 2.362 . S
O891 Tb851 2.610 . S
O891 C907 1.283 . S
O892 Tb840 2.421 . S
O892 C914 1.262 . S
O893 Tb851 2.320 . S
O893 C914 1.260 . S
O894 Tb851 2.552 . S
O894 C907 1.243 . S
O895 Tb851 2.413 . S
O895 C915 1.256 . S
C896 O885 1.283 . S
C896 O888 1.243 . S
C897 C899 1.382 . S
C897 C901 1.393 . S
C897 C904 1.500 . S
C898 C899 1.400 1_545 S
C898 C900 1.384 . S
C899 C897 1.382 . S
C899 C898 1.400 1_565 S
C899 H916 0.930 . S
C900 C898 1.384 . S
C900 C902 1.392 . S
C900 H917 0.931 . S
C901 C897 1.393 . S
C901 C902 1.401 1_565 S
C901 H918 0.930 . S
C902 C900 1.392 . S
C902 C901 1.401 1_545 S
C902 H919 0.930 . S
C903 O886 1.262 . S
C903 O887 1.260 . S
C904 Tb840 2.833 . S
C904 O884 1.251 . S
C904 O889 1.256 . S
C904 C897 1.500 . S
C905 H870 0.929 . S
C905 C883 1.444 . S
C905 C906 1.317 . S
C906 H868 0.930 . S
C906 C874 1.432 . S
C906 C905 1.317 . S
C907 O891 1.283 . S
C907 O894 1.243 . S
C908 C909 1.382 . S
C908 C912 1.393 . S
C908 C915 1.500 . S
C909 C908 1.382 . S
C909 C910 1.400 . S
C909 H920 0.930 . S
C910 C909 1.400 . S
C910 C911 1.384 . S
C911 C910 1.384 . S
C911 C913 1.392 . S
C911 H921 0.931 . S
C912 C908 1.393 . S
C912 C913 1.401 . S
C912 H922 0.930 . S
C913 C911 1.392 . S
C913 C912 1.401 . S
C913 H923 0.930 . S
C914 O892 1.262 . S
C914 O893 1.260 . S
C915 Tb851 2.833 . S
C915 O890 1.251 . S
C915 O895 1.256 . S
C915 C908 1.500 . S
H916 C899 0.930 . S
H917 C900 0.931 . S
H918 C901 0.930 . S
H919 C902 0.930 . S
H920 C909 0.930 . S
H921 C911 0.931 . S
H922 C912 0.930 . S
H923 C913 0.930 . S
Tb924 N955 2.660 . S
Tb924 N962 2.600 . S
Tb924 O968 2.546 . S
Tb924 O969 2.610 . S
Tb924 O971 2.320 . S
Tb924 O972 2.552 . S
Tb924 O973 2.413 . S
Tb924 O975 2.362 . S
Tb924 O976 2.421 . S
Tb924 C988 2.833 . S
C925 C928 1.432 . S
C925 C929 1.414 . S
C925 N932 1.359 . S
C926 C928 1.417 . S
C926 C930 1.432 . S
C926 C938 1.410 . S
C927 C929 1.444 . S
C927 C930 1.317 . S
C927 H950 0.929 . S
C928 C925 1.432 . S
C928 C926 1.417 . S
C928 N936 1.360 . S
C929 C925 1.414 . S
C929 C927 1.444 . S
C929 C934 1.385 . S
C930 C926 1.432 . S
C930 C927 1.317 . S
C930 H942 0.930 . S
C931 C933 1.392 . S
C931 C934 1.370 . S
C931 H943 0.931 . S
N932 C925 1.359 . S
N932 C933 1.327 . S
N932 Tb935 2.600 . S
C933 C931 1.392 . S
C933 N932 1.327 . S
C933 H940 0.930 . S
C934 C929 1.385 . S
C934 C931 1.370 . S
C934 H953 0.930 . S
Tb935 N932 2.600 . S
Tb935 N936 2.660 . S
Tb935 O969 2.362 . S
Tb935 O970 2.421 . S
Tb935 O974 2.546 . S
Tb935 O975 2.610 . S
Tb935 O977 2.320 . S
Tb935 O978 2.552 . S
Tb935 O979 2.413 . S
Tb935 C999 2.833 . S
N936 C928 1.360 . S
N936 Tb935 2.660 . S
N936 C937 1.305 . S
C937 N936 1.305 . S
C937 C939 1.407 . S
C937 H944 0.930 . S
C938 C926 1.410 . S
C938 C939 1.345 . S
C938 H946 0.930 . S
C939 C937 1.407 . S
C939 C938 1.345 . S
C939 H941 0.930 . S
H940 C933 0.930 . S
H941 C939 0.930 . S
H942 C930 0.930 . S
H943 C931 0.931 . S
H944 C937 0.930 . S
H945 C959 0.930 . S
H946 C938 0.930 . S
H947 C965 0.930 . S
H948 C956 0.930 . S
H949 C963 0.931 . S
H950 C927 0.929 . S
H951 C957 0.930 . S
H952 C990 0.930 1_545 S
H953 C934 0.930 . S
H954 C989 0.929 . S
N955 Tb924 2.660 . S
N955 C956 1.305 . S
N955 C960 1.360 . S
C956 H948 0.930 . S
C956 N955 1.305 . S
C956 C959 1.407 . S
C957 H951 0.930 . S
C957 C958 1.410 . S
C957 C959 1.345 . S
C958 C957 1.410 . S
C958 C960 1.417 . S
C958 C990 1.432 . S
C959 H945 0.930 . S
C959 C956 1.407 . S
C959 C957 1.345 . S
C960 N955 1.360 . S
C960 C958 1.417 . S
C960 C964 1.432 . S
H961 C966 0.930 . S
N962 Tb924 2.600 . S
N962 C964 1.359 . S
N962 C965 1.327 . S
C963 H949 0.931 . S
C963 C965 1.392 . S
C963 C966 1.370 . S
C964 C960 1.432 . S
C964 N962 1.359 . S
C964 C967 1.414 . S
C965 H947 0.930 . S
C965 N962 1.327 . S
C965 C963 1.392 . S
C966 H961 0.930 . S
C966 C963 1.370 . S
C966 C967 1.385 . S
C967 C964 1.414 . S
C967 C966 1.385 . S
C967 C989 1.444 . S
O968 Tb924 2.546 . S
O968 C988 1.251 . S
O969 Tb924 2.610 . S
O969 Tb935 2.362 . S
O969 C980 1.283 . S
O970 Tb935 2.421 . S
O970 C987 1.262 . S
O971 Tb924 2.320 . S
O971 C987 1.260 . S
O972 Tb924 2.552 . S
O972 C980 1.243 . S
O973 Tb924 2.413 . S
O973 C988 1.256 . S
O974 Tb935 2.546 . S
O974 C999 1.251 . S
O975 Tb924 2.362 . S
O975 Tb935 2.610 . S
O975 C991 1.283 . S
O976 Tb924 2.421 . S
O976 C998 1.262 . S
O977 Tb935 2.320 . S
O977 C998 1.260 . S
O978 Tb935 2.552 . S
O978 C991 1.243 . S
O979 Tb935 2.413 . S
O979 C999 1.256 . S
C980 O969 1.283 . S
C980 O972 1.243 . S
C981 C983 1.382 . S
C981 C985 1.393 . S
C981 C988 1.500 . S
C982 C983 1.400 . S
C982 C984 1.384 . S
C983 C981 1.382 . S
C983 C982 1.400 . S
C983 H1000 0.930 . S
C984 C982 1.384 . S
C984 C986 1.392 . S
C984 H1001 0.931 . S
C985 C981 1.393 . S
C985 C986 1.401 . S
C985 H1002 0.930 . S
C986 C984 1.392 . S
C986 C985 1.401 . S
C986 H1003 0.930 . S
C987 O970 1.262 . S
C987 O971 1.260 . S
C988 Tb924 2.833 . S
C988 O968 1.251 . S
C988 O973 1.256 . S
C988 C981 1.500 . S
C989 H954 0.929 . S
C989 C967 1.444 . S
C989 C990 1.317 . S
C990 H952 0.930 1_565 S
C990 C958 1.432 . S
C990 C989 1.317 . S
C991 O975 1.283 . S
C991 O978 1.243 . S
C992 C993 1.382 . S
C992 C996 1.393 . S
C992 C999 1.500 . S
C993 C992 1.382 . S
C993 C994 1.400 . S
C993 H1004 0.930 . S
C994 C993 1.400 . S
C994 C995 1.384 . S
C995 C994 1.384 . S
C995 C997 1.392 . S
C995 H1005 0.931 . S
C996 C992 1.393 . S
C996 C997 1.401 . S
C996 H1006 0.930 . S
C997 C995 1.392 . S
C997 C996 1.401 . S
C997 H1007 0.930 . S
C998 O976 1.262 . S
C998 O977 1.260 . S
C999 Tb935 2.833 . S
C999 O974 1.251 . S
C999 O979 1.256 . S
C999 C992 1.500 . S
H1000 C983 0.930 . S
H1001 C984 0.931 . S
H1002 C985 0.930 . S
H1003 C986 0.930 . S
H1004 C993 0.930 . S
H1005 C995 0.931 . S
H1006 C996 0.930 . S
H1007 C997 0.930 . S
H1008 C1016 0.929 . S
H1009 C1018 0.930 . S
H1010 C1020 0.930 . S
H1011 C1023 0.929 . S
H1012 C1026 0.930 . S
H1013 C1028 0.960 . S
H1014 C1028 0.960 . S
H1015 C1028 0.960 . S
C1016 H1008 0.929 . S
C1016 C1017 1.377 . S
C1016 C1018 1.384 . S
C1017 C1016 1.377 . S
C1017 C1023 1.390 . S
C1018 H1009 0.930 . S
C1018 C1016 1.384 . S
C1018 C1019 1.372 . S
C1019 C1018 1.372 . S
C1019 C1020 1.400 . S
C1019 C1024 1.490 . S
C1020 H1010 0.930 . S
C1020 C1019 1.400 . S
C1020 C1023 1.386 . S
H1021 C1037 0.930 . S
H1022 C1038 0.931 . S
C1023 H1011 0.929 . S
C1023 C1017 1.390 . S
C1023 C1020 1.386 . S
C1024 C1019 1.490 . S
C1024 C1026 1.395 . S
C1024 C1027 1.403 . S
H1025 C1031 0.930 . S
C1026 H1012 0.930 . S
C1026 C1024 1.395 . S
C1026 C1029 1.403 . S
C1027 C1024 1.403 . S
C1027 C1028 1.524 . S
C1027 C1031 1.400 . S
C1028 H1013 0.960 . S
C1028 H1014 0.960 . S
C1028 H1015 0.960 . S
C1028 C1027 1.524 . S
C1029 C1026 1.403 . S
C1029 C1030 1.392 . S
C1029 C1033 1.495 . S
C1030 C1029 1.392 . S
C1030 C1031 1.385 . S
C1030 C1032 1.478 . S
C1031 H1025 0.930 . S
C1031 C1027 1.400 . S
C1031 C1030 1.385 . S
C1032 C1030 1.478 . S
C1032 C1034 1.381 . S
C1032 C1038 1.383 . S
C1033 C1029 1.495 . S
C1033 H1039 0.959 . S
C1033 H1040 0.961 . S
C1033 H1041 0.960 . S
C1034 C1032 1.381 . S
C1034 C1035 1.394 . S
C1034 H1042 0.930 . S
C1035 C1034 1.394 . S
C1035 C1036 1.383 . S
C1035 H1043 0.929 . S
C1036 C1035 1.383 . S
C1036 C1037 1.377 . S
C1037 H1021 0.930 . S
C1037 C1036 1.377 . S
C1037 C1038 1.379 . S
C1038 H1022 0.931 . S
C1038 C1032 1.383 . S
C1038 C1037 1.379 . S
H1039 C1033 0.959 . S
H1040 C1033 0.961 . S
H1041 C1033 0.960 . S
H1042 C1034 0.930 . S
H1043 C1035 0.929 . S
H1044 C1052 0.929 . S
H1045 C1054 0.930 . S
H1046 C1056 0.930 . S
H1047 C1059 0.929 . S
H1048 C1062 0.930 . S
H1049 C1064 0.960 . S
H1050 C1064 0.960 . S
H1051 C1064 0.960 . S
C1052 H1044 0.929 . S
C1052 C1053 1.377 . S
C1052 C1054 1.384 . S
C1053 C1052 1.377 . S
C1053 C1059 1.390 . S
C1054 H1045 0.930 . S
C1054 C1052 1.384 . S
C1054 C1055 1.372 . S
C1055 C1054 1.372 . S
C1055 C1056 1.400 . S
C1055 C1060 1.490 . S
C1056 H1046 0.930 . S
C1056 C1055 1.400 . S
C1056 C1059 1.386 . S
H1057 C1073 0.930 . S
H1058 C1074 0.931 . S
C1059 H1047 0.929 . S
C1059 C1053 1.390 . S
C1059 C1056 1.386 . S
C1060 C1055 1.490 . S
C1060 C1062 1.395 . S
C1060 C1063 1.403 . S
H1061 C1067 0.930 . S
C1062 H1048 0.930 . S
C1062 C1060 1.395 . S
C1062 C1065 1.403 . S
C1063 C1060 1.403 . S
C1063 C1064 1.524 . S
C1063 C1067 1.400 1_455 S
C1064 H1049 0.960 . S
C1064 H1050 0.960 . S
C1064 H1051 0.960 . S
C1064 C1063 1.524 . S
C1065 C1062 1.403 . S
C1065 C1066 1.392 1_455 S
C1065 C1069 1.495 . S
C1066 C1065 1.392 1_655 S
C1066 C1067 1.385 . S
C1066 C1068 1.478 . S
C1067 H1061 0.930 . S
C1067 C1063 1.400 1_655 S
C1067 C1066 1.385 . S
C1068 C1066 1.478 . S
C1068 C1070 1.381 . S
C1068 C1074 1.383 . S
C1069 C1065 1.495 . S
C1069 H1075 0.959 . S
C1069 H1076 0.961 . S
C1069 H1077 0.960 . S
C1070 C1068 1.381 . S
C1070 C1071 1.394 . S
C1070 H1078 0.930 . S
C1071 C1070 1.394 . S
C1071 C1072 1.383 . S
C1071 H1079 0.929 . S
C1072 C1071 1.383 . S
C1072 C1073 1.377 . S
C1073 H1057 0.930 . S
C1073 C1072 1.377 . S
C1073 C1074 1.379 . S
C1074 H1058 0.931 . S
C1074 C1068 1.383 . S
C1074 C1073 1.379 . S
H1075 C1069 0.959 . S
H1076 C1069 0.961 . S
H1077 C1069 0.960 . S
H1078 C1070 0.930 . S
H1079 C1071 0.929 . S
H1080 C1088 0.929 . S
H1081 C1090 0.930 . S
H1082 C1092 0.930 . S
H1083 C1095 0.929 . S
H1084 C1098 0.930 . S
H1085 C1100 0.960 . S
H1086 C1100 0.960 . S
H1087 C1100 0.960 1_545 S
C1088 H1080 0.929 . S
C1088 C1089 1.377 . S
C1088 C1090 1.384 . S
C1089 C1088 1.377 . S
C1089 C1095 1.390 . S
C1090 H1081 0.930 . S
C1090 C1088 1.384 . S
C1090 C1091 1.372 . S
C1091 C1090 1.372 . S
C1091 C1092 1.400 . S
C1091 C1096 1.490 . S
C1092 H1082 0.930 . S
C1092 C1091 1.400 . S
C1092 C1095 1.386 . S
H1093 C1109 0.930 . S
H1094 C1110 0.931 . S
C1095 H1083 0.929 . S
C1095 C1089 1.390 . S
C1095 C1092 1.386 . S
C1096 C1091 1.490 . S
C1096 C1098 1.395 . S
C1096 C1099 1.403 1_545 S
H1097 C1103 0.930 . S
C1098 H1084 0.930 . S
C1098 C1096 1.395 . S
C1098 C1101 1.403 1_545 S
C1099 C1096 1.403 1_565 S
C1099 C1100 1.524 . S
C1099 C1103 1.400 . S
C1100 H1085 0.960 . S
C1100 H1086 0.960 . S
C1100 H1087 0.960 1_565 S
C1100 C1099 1.524 . S
C1101 C1098 1.403 1_565 S
C1101 C1102 1.392 . S
C1101 C1105 1.495 . S
C1102 C1101 1.392 . S
C1102 C1103 1.385 . S
C1102 C1104 1.478 . S
C1103 H1097 0.930 . S
C1103 C1099 1.400 . S
C1103 C1102 1.385 . S
C1104 C1102 1.478 . S
C1104 C1106 1.381 . S
C1104 C1110 1.383 . S
C1105 C1101 1.495 . S
C1105 H1111 0.959 . S
C1105 H1112 0.961 . S
C1105 H1113 0.960 . S
C1106 C1104 1.381 . S
C1106 C1107 1.394 . S
C1106 H1114 0.930 . S
C1107 C1106 1.394 . S
C1107 C1108 1.383 . S
C1107 H1115 0.929 . S
C1108 C1107 1.383 . S
C1108 C1109 1.377 . S
C1109 H1093 0.930 . S
C1109 C1108 1.377 . S
C1109 C1110 1.379 . S
C1110 H1094 0.931 . S
C1110 C1104 1.383 . S
C1110 C1109 1.379 . S
H1111 C1105 0.959 . S
H1112 C1105 0.961 . S
H1113 C1105 0.960 . S
H1114 C1106 0.930 . S
H1115 C1107 0.929 . S
H1116 C1124 0.929 . S
H1117 C1126 0.930 . S
H1118 C1128 0.930 . S
H1119 C1131 0.929 . S
H1120 C1134 0.930 . S
H1121 C1136 0.960 . S
H1122 C1136 0.960 . S
H1123 C1136 0.960 . S
C1124 H1116 0.929 . S
C1124 C1125 1.377 . S
C1124 C1126 1.384 . S
C1125 C1124 1.377 . S
C1125 C1131 1.390 . S
C1126 H1117 0.930 . S
C1126 C1124 1.384 . S
C1126 C1127 1.372 . S
C1127 C1126 1.372 . S
C1127 C1128 1.400 . S
C1127 C1132 1.490 . S
C1128 H1118 0.930 . S
C1128 C1127 1.400 . S
C1128 C1131 1.386 . S
H1129 C1145 0.930 . S
H1130 C1146 0.931 . S
C1131 H1119 0.929 . S
C1131 C1125 1.390 . S
C1131 C1128 1.386 . S
C1132 C1127 1.490 . S
C1132 C1134 1.395 . S
C1132 C1135 1.403 . S
H1133 C1139 0.930 . S
C1134 H1120 0.930 . S
C1134 C1132 1.395 . S
C1134 C1137 1.403 . S
C1135 C1132 1.403 . S
C1135 C1136 1.524 . S
C1135 C1139 1.400 . S
C1136 H1121 0.960 . S
C1136 H1122 0.960 . S
C1136 H1123 0.960 . S
C1136 C1135 1.524 . S
C1137 C1134 1.403 . S
C1137 C1138 1.392 . S
C1137 C1141 1.495 . S
C1138 C1137 1.392 . S
C1138 C1139 1.385 . S
C1138 C1140 1.478 . S
C1139 H1133 0.930 . S
C1139 C1135 1.400 . S
C1139 C1138 1.385 . S
C1140 C1138 1.478 . S
C1140 C1142 1.381 . S
C1140 C1146 1.383 . S
C1141 C1137 1.495 . S
C1141 H1147 0.959 . S
C1141 H1148 0.961 . S
C1141 H1149 0.960 . S
C1142 C1140 1.381 . S
C1142 C1143 1.394 . S
C1142 H1150 0.930 . S
C1143 C1142 1.394 . S
C1143 C1144 1.383 . S
C1143 H1151 0.929 . S
C1144 C1143 1.383 . S
C1144 C1145 1.377 . S
C1145 H1129 0.930 . S
C1145 C1144 1.377 . S
C1145 C1146 1.379 . S
C1146 H1130 0.931 . S
C1146 C1140 1.383 . S
C1146 C1145 1.379 . S
H1147 C1141 0.959 . S
H1148 C1141 0.961 . S
H1149 C1141 0.960 . S
H1150 C1142 0.930 . S
H1151 C1143 0.929 . S
H1152 C1160 0.929 . S
H1153 C1162 0.930 . S
H1154 C1164 0.930 . S
H1155 C1167 0.929 . S
H1156 C1170 0.930 . S
H1157 C1172 0.960 . S
H1158 C1172 0.960 . S
H1159 C1172 0.960 . S
C1160 H1152 0.929 . S
C1160 C1161 1.377 . S
C1160 C1162 1.384 . S
C1161 C1160 1.377 . S
C1161 C1167 1.390 . S
C1162 H1153 0.930 . S
C1162 C1160 1.384 . S
C1162 C1163 1.372 . S
C1163 C1162 1.372 . S
C1163 C1164 1.400 . S
C1163 C1168 1.490 . S
C1164 H1154 0.930 . S
C1164 C1163 1.400 . S
C1164 C1167 1.386 . S
H1165 C1181 0.930 . S
H1166 C1182 0.931 . S
C1167 H1155 0.929 . S
C1167 C1161 1.390 . S
C1167 C1164 1.386 . S
C1168 C1163 1.490 . S
C1168 C1170 1.395 . S
C1168 C1171 1.403 . S
H1169 C1175 0.930 . S
C1170 H1156 0.930 . S
C1170 C1168 1.395 . S
C1170 C1173 1.403 . S
C1171 C1168 1.403 . S
C1171 C1172 1.524 . S
C1171 C1175 1.400 1_455 S
C1172 H1157 0.960 . S
C1172 H1158 0.960 . S
C1172 H1159 0.960 . S
C1172 C1171 1.524 . S
C1173 C1170 1.403 . S
C1173 C1174 1.392 1_455 S
C1173 C1177 1.495 . S
C1174 C1173 1.392 1_655 S
C1174 C1175 1.385 . S
C1174 C1176 1.478 . S
C1175 H1169 0.930 . S
C1175 C1171 1.400 1_655 S
C1175 C1174 1.385 . S
C1176 C1174 1.478 . S
C1176 C1178 1.381 . S
C1176 C1182 1.383 . S
C1177 C1173 1.495 . S
C1177 H1183 0.959 . S
C1177 H1184 0.961 . S
C1177 H1185 0.960 . S
C1178 C1176 1.381 . S
C1178 C1179 1.394 . S
C1178 H1186 0.930 . S
C1179 C1178 1.394 . S
C1179 C1180 1.383 . S
C1179 H1187 0.929 . S
C1180 C1179 1.383 . S
C1180 C1181 1.377 . S
C1181 H1165 0.930 . S
C1181 C1180 1.377 . S
C1181 C1182 1.379 . S
C1182 H1166 0.931 . S
C1182 C1176 1.383 . S
C1182 C1181 1.379 . S
H1183 C1177 0.959 . S
H1184 C1177 0.961 . S
H1185 C1177 0.960 . S
H1186 C1178 0.930 . S
H1187 C1179 0.929 . S
H1188 C1196 0.929 . S
H1189 C1198 0.930 . S
H1190 C1200 0.930 . S
H1191 C1203 0.929 . S
H1192 C1206 0.930 . S
H1193 C1208 0.960 . S
H1194 C1208 0.960 . S
H1195 C1208 0.960 . S
C1196 H1188 0.929 . S
C1196 C1197 1.377 . S
C1196 C1198 1.384 . S
C1197 C1196 1.377 . S
C1197 C1203 1.390 . S
C1198 H1189 0.930 . S
C1198 C1196 1.384 . S
C1198 C1199 1.372 . S
C1199 C1198 1.372 . S
C1199 C1200 1.400 . S
C1199 C1204 1.490 . S
C1200 H1190 0.930 . S
C1200 C1199 1.400 . S
C1200 C1203 1.386 . S
H1201 C1217 0.930 . S
H1202 C1218 0.931 . S
C1203 H1191 0.929 . S
C1203 C1197 1.390 . S
C1203 C1200 1.386 . S
C1204 C1199 1.490 . S
C1204 C1206 1.395 . S
C1204 C1207 1.403 . S
H1205 C1211 0.930 . S
C1206 H1192 0.930 . S
C1206 C1204 1.395 . S
C1206 C1209 1.403 1_565 S
C1207 C1204 1.403 . S
C1207 C1208 1.524 . S
C1207 C1211 1.400 . S
C1208 H1193 0.960 . S
C1208 H1194 0.960 . S
C1208 H1195 0.960 . S
C1208 C1207 1.524 . S
C1209 C1206 1.403 1_545 S
C1209 C1210 1.392 . S
C1209 C1213 1.495 . S
C1210 C1209 1.392 . S
C1210 C1211 1.385 1_545 S
C1210 C1212 1.478 . S
C1211 H1205 0.930 . S
C1211 C1207 1.400 . S
C1211 C1210 1.385 1_565 S
C1212 C1210 1.478 . S
C1212 C1214 1.381 . S
C1212 C1218 1.383 . S
C1213 C1209 1.495 . S
C1213 H1219 0.959 . S
C1213 H1220 0.961 . S
C1213 H1221 0.960 . S
C1214 C1212 1.381 . S
C1214 C1215 1.394 . S
C1214 H1222 0.930 . S
C1215 C1214 1.394 . S
C1215 C1216 1.383 . S
C1215 H1223 0.929 . S
C1216 C1215 1.383 . S
C1216 C1217 1.377 . S
C1217 H1201 0.930 . S
C1217 C1216 1.377 . S
C1217 C1218 1.379 . S
C1218 H1202 0.931 . S
C1218 C1212 1.383 . S
C1218 C1217 1.379 . S
H1219 C1213 0.959 . S
H1220 C1213 0.961 . S
H1221 C1213 0.960 . S
H1222 C1214 0.930 . S
H1223 C1215 0.929 . S
H1224 C1232 0.929 . S
H1225 C1234 0.930 . S
H1226 C1236 0.930 . S
H1227 C1239 0.929 . S
H1228 C1242 0.930 . S
H1229 C1244 0.960 . S
H1230 C1244 0.960 . S
H1231 C1244 0.960 . S
C1232 H1224 0.929 . S
C1232 C1233 1.377 . S
C1232 C1234 1.384 . S
C1233 C1232 1.377 . S
C1233 C1239 1.390 . S
C1234 H1225 0.930 . S
C1234 C1232 1.384 . S
C1234 C1235 1.372 . S
C1235 C1234 1.372 . S
C1235 C1236 1.400 . S
C1235 C1240 1.490 . S
C1236 H1226 0.930 . S
C1236 C1235 1.400 . S
C1236 C1239 1.386 . S
H1237 C1253 0.930 . S
H1238 C1254 0.931 . S
C1239 H1227 0.929 . S
C1239 C1233 1.390 . S
C1239 C1236 1.386 . S
C1240 C1235 1.490 . S
C1240 C1242 1.395 . S
C1240 C1243 1.403 . S
H1241 C1247 0.930 . S
C1242 H1228 0.930 . S
C1242 C1240 1.395 . S
C1242 C1245 1.403 . S
C1243 C1240 1.403 . S
C1243 C1244 1.524 . S
C1243 C1247 1.400 . S
C1244 H1229 0.960 . S
C1244 H1230 0.960 . S
C1244 H1231 0.960 . S
C1244 C1243 1.524 . S
C1245 C1242 1.403 . S
C1245 C1246 1.392 . S
C1245 C1249 1.495 . S
C1246 C1245 1.392 . S
C1246 C1247 1.385 . S
C1246 C1248 1.478 . S
C1247 H1241 0.930 . S
C1247 C1243 1.400 . S
C1247 C1246 1.385 . S
C1248 C1246 1.478 . S
C1248 C1250 1.381 . S
C1248 C1254 1.383 . S
C1249 C1245 1.495 . S
C1249 H1255 0.959 . S
C1249 H1256 0.961 . S
C1249 H1257 0.960 . S
C1250 C1248 1.381 . S
C1250 C1251 1.394 . S
C1250 H1258 0.930 . S
C1251 C1250 1.394 . S
C1251 C1252 1.383 . S
C1251 H1259 0.929 . S
C1252 C1251 1.383 . S
C1252 C1253 1.377 . S
C1253 H1237 0.930 . S
C1253 C1252 1.377 . S
C1253 C1254 1.379 . S
C1254 H1238 0.931 . S
C1254 C1248 1.383 . S
C1254 C1253 1.379 . S
H1255 C1249 0.959 . S
H1256 C1249 0.961 . S
H1257 C1249 0.960 . S
H1258 C1250 0.930 . S
H1259 C1251 0.929 . S
H1260 C1268 0.929 . S
H1261 C1270 0.930 . S
H1262 C1272 0.930 . S
H1263 C1275 0.929 . S
H1264 C1278 0.930 . S
H1265 C1280 0.960 . S
H1266 C1280 0.960 . S
H1267 C1280 0.960 . S
C1268 H1260 0.929 . S
C1268 C1269 1.377 . S
C1268 C1270 1.384 . S
C1269 C1268 1.377 . S
C1269 C1275 1.390 . S
C1270 H1261 0.930 . S
C1270 C1268 1.384 . S
C1270 C1271 1.372 . S
C1271 C1270 1.372 . S
C1271 C1272 1.400 . S
C1271 C1276 1.490 . S
C1272 H1262 0.930 . S
C1272 C1271 1.400 . S
C1272 C1275 1.386 . S
H1273 C1289 0.930 . S
H1274 C1290 0.931 . S
C1275 H1263 0.929 . S
C1275 C1269 1.390 . S
C1275 C1272 1.386 . S
C1276 C1271 1.490 . S
C1276 C1278 1.395 . S
C1276 C1279 1.403 1_455 S
H1277 C1283 0.930 . S
C1278 H1264 0.930 . S
C1278 C1276 1.395 . S
C1278 C1281 1.403 1_455 S
C1279 C1276 1.403 1_655 S
C1279 C1280 1.524 . S
C1279 C1283 1.400 . S
C1280 H1265 0.960 . S
C1280 H1266 0.960 . S
C1280 H1267 0.960 . S
C1280 C1279 1.524 . S
C1281 C1278 1.403 1_655 S
C1281 C1282 1.392 . S
C1281 C1285 1.495 . S
C1282 C1281 1.392 . S
C1282 C1283 1.385 . S
C1282 C1284 1.478 . S
C1283 H1277 0.930 . S
C1283 C1279 1.400 . S
C1283 C1282 1.385 . S
C1284 C1282 1.478 . S
C1284 C1286 1.381 . S
C1284 C1290 1.383 . S
C1285 C1281 1.495 . S
C1285 H1291 0.959 . S
C1285 H1292 0.961 . S
C1285 H1293 0.960 . S
C1286 C1284 1.381 . S
C1286 C1287 1.394 . S
C1286 H1294 0.930 . S
C1287 C1286 1.394 . S
C1287 C1288 1.383 . S
C1287 H1295 0.929 . S
C1288 C1287 1.383 . S
C1288 C1289 1.377 . S
C1289 H1273 0.930 . S
C1289 C1288 1.377 . S
C1289 C1290 1.379 . S
C1290 H1274 0.931 . S
C1290 C1284 1.383 . S
C1290 C1289 1.379 . S
H1291 C1285 0.959 . S
H1292 C1285 0.961 . S
H1293 C1285 0.960 . S
H1294 C1286 0.930 . S
H1295 C1287 0.929 . S
H1296 C1304 0.929 . S
H1297 C1306 0.930 . S
H1298 C1308 0.930 . S
H1299 C1311 0.929 . S
H1300 C1314 0.930 . S
H1301 C1316 0.960 . S
H1302 C1316 0.960 . S
H1303 C1316 0.960 . S
C1304 H1296 0.929 . S
C1304 C1305 1.377 . S
C1304 C1306 1.384 . S
C1305 C1304 1.377 . S
C1305 C1311 1.390 . S
C1306 H1297 0.930 . S
C1306 C1304 1.384 . S
C1306 C1307 1.372 . S
C1307 C1306 1.372 . S
C1307 C1308 1.400 . S
C1307 C1312 1.490 . S
C1308 H1298 0.930 . S
C1308 C1307 1.400 . S
C1308 C1311 1.386 . S
H1309 C1325 0.930 . S
H1310 C1326 0.931 . S
C1311 H1299 0.929 . S
C1311 C1305 1.390 . S
C1311 C1308 1.386 . S
C1312 C1307 1.490 . S
C1312 C1314 1.395 1_565 S
C1312 C1315 1.389 . S
H1313 C1319 0.930 . S
C1314 H1300 0.930 . S
C1314 C1312 1.395 1_545 S
C1314 C1317 1.403 . S
C1315 C1312 1.389 . S
C1315 C1316 1.564 . S
C1315 C1319 1.372 1_565 S
C1316 H1301 0.960 . S
C1316 H1302 0.960 . S
C1316 H1303 0.960 . S
C1316 C1315 1.564 . S
C1317 C1314 1.403 . S
C1317 C1318 1.392 . S
C1317 C1321 1.495 . S
C1318 C1317 1.392 . S
C1318 C1319 1.385 . S
C1318 C1320 1.478 . S
C1319 H1313 0.930 . S
C1319 C1315 1.372 1_545 S
C1319 C1318 1.385 . S
C1320 C1318 1.478 . S
C1320 C1322 1.381 . S
C1320 C1326 1.383 . S
C1321 C1317 1.495 . S
C1321 H1327 0.959 . S
C1321 H1328 0.961 . S
C1321 H1329 0.960 . S
C1322 C1320 1.381 . S
C1322 C1323 1.394 . S
C1322 H1330 0.930 . S
C1323 C1322 1.394 . S
C1323 C1324 1.383 . S
C1323 H1331 0.929 . S
C1324 C1323 1.383 . S
C1324 C1325 1.377 . S
C1325 H1309 0.930 . S
C1325 C1324 1.377 . S
C1325 C1326 1.379 . S
C1326 H1310 0.931 . S
C1326 C1320 1.383 . S
C1326 C1325 1.379 . S
H1327 C1321 0.959 . S
H1328 C1321 0.961 . S
H1329 C1321 0.960 . S
H1330 C1322 0.930 . S
H1331 C1323 0.929 . S
H1332 C1340 0.929 . S
H1333 C1342 0.930 . S
H1334 C1344 0.930 . S
H1335 C1347 0.929 . S
H1336 C1350 0.930 . S
H1337 C1352 0.960 . S
H1338 C1352 0.960 . S
H1339 C1352 0.960 . S
C1340 H1332 0.929 . S
C1340 C1341 1.377 . S
C1340 C1342 1.384 . S
C1341 C1340 1.377 . S
C1341 C1347 1.390 . S
C1342 H1333 0.930 . S
C1342 C1340 1.384 . S
C1342 C1343 1.372 . S
C1343 C1342 1.372 . S
C1343 C1344 1.400 . S
C1343 C1348 1.490 . S
C1344 H1334 0.930 . S
C1344 C1343 1.400 . S
C1344 C1347 1.386 . S
H1345 C1361 0.930 . S
H1346 C1362 0.931 . S
C1347 H1335 0.929 . S
C1347 C1341 1.390 . S
C1347 C1344 1.386 . S
C1348 C1343 1.490 . S
C1348 C1350 1.395 . S
C1348 C1351 1.403 . S
H1349 C1355 0.930 . S
C1350 H1336 0.930 . S
C1350 C1348 1.395 . S
C1350 C1353 1.403 . S
C1351 C1348 1.403 . S
C1351 C1352 1.524 . S
C1351 C1355 1.400 . S
C1352 H1337 0.960 . S
C1352 H1338 0.960 . S
C1352 H1339 0.960 . S
C1352 C1351 1.524 . S
C1353 C1350 1.403 . S
C1353 C1354 1.392 . S
C1353 C1357 1.495 . S
C1354 C1353 1.392 . S
C1354 C1355 1.385 . S
C1354 C1356 1.478 . S
C1355 H1349 0.930 . S
C1355 C1351 1.400 . S
C1355 C1354 1.385 . S
C1356 C1354 1.478 . S
C1356 C1358 1.381 . S
C1356 C1362 1.383 . S
C1357 C1353 1.495 . S
C1357 H1363 0.959 . S
C1357 H1364 0.961 . S
C1357 H1365 0.960 . S
C1358 C1356 1.381 . S
C1358 C1359 1.394 . S
C1358 H1366 0.930 . S
C1359 C1358 1.394 . S
C1359 C1360 1.383 . S
C1359 H1367 0.929 . S
C1360 C1359 1.383 . S
C1360 C1361 1.377 . S
C1361 H1345 0.930 . S
C1361 C1360 1.377 . S
C1361 C1362 1.379 . S
C1362 H1346 0.931 . S
C1362 C1356 1.383 . S
C1362 C1361 1.379 . S
H1363 C1357 0.959 . S
H1364 C1357 0.961 . S
H1365 C1357 0.960 . S
H1366 C1358 0.930 . S
H1367 C1359 0.929 . S
H1368 C1376 0.929 . S
H1369 C1378 0.930 . S
H1370 C1380 0.930 . S
H1371 C1383 0.929 . S
H1372 C1386 0.930 . S
H1373 C1388 0.960 . S
H1374 C1388 0.960 . S
H1375 C1388 0.960 1_455 S
C1376 H1368 0.929 . S
C1376 C1377 1.377 . S
C1376 C1378 1.384 . S
C1377 C1376 1.377 . S
C1377 C1383 1.390 . S
C1378 H1369 0.930 . S
C1378 C1376 1.384 . S
C1378 C1379 1.372 . S
C1379 C1378 1.372 . S
C1379 C1380 1.400 . S
C1379 C1384 1.490 . S
C1380 H1370 0.930 . S
C1380 C1379 1.400 . S
C1380 C1383 1.386 . S
H1381 C1397 0.930 . S
H1382 C1398 0.931 . S
C1383 H1371 0.929 . S
C1383 C1377 1.390 . S
C1383 C1380 1.386 . S
C1384 C1379 1.490 . S
C1384 C1386 1.395 . S
C1384 C1387 1.403 1_455 S
H1385 C1391 0.930 . S
C1386 H1372 0.930 . S
C1386 C1384 1.395 . S
C1386 C1389 1.403 1_455 S
C1387 C1384 1.403 1_655 S
C1387 C1388 1.524 . S
C1387 C1391 1.400 . S
C1388 H1373 0.960 . S
C1388 H1374 0.960 . S
C1388 H1375 0.960 1_655 S
C1388 C1387 1.524 . S
C1389 C1386 1.403 1_655 S
C1389 C1390 1.392 . S
C1389 C1393 1.495 . S
C1390 C1389 1.392 . S
C1390 C1391 1.385 . S
C1390 C1392 1.478 . S
C1391 H1385 0.930 . S
C1391 C1387 1.400 . S
C1391 C1390 1.385 . S
C1392 C1390 1.478 . S
C1392 C1394 1.381 . S
C1392 C1398 1.383 . S
C1393 C1389 1.495 . S
C1393 H1399 0.959 . S
C1393 H1400 0.961 . S
C1393 H1401 0.960 . S
C1394 C1392 1.381 . S
C1394 C1395 1.394 . S
C1394 H1402 0.930 . S
C1395 C1394 1.394 . S
C1395 C1396 1.383 . S
C1395 H1403 0.929 . S
C1396 C1395 1.383 . S
C1396 C1397 1.377 . S
C1397 H1381 0.930 . S
C1397 C1396 1.377 . S
C1397 C1398 1.379 . S
C1398 H1382 0.931 . S
C1398 C1392 1.383 . S
C1398 C1397 1.379 . S
H1399 C1393 0.959 . S
H1400 C1393 0.961 . S
H1401 C1393 0.960 . S
H1402 C1394 0.930 . S
H1403 C1395 0.929 . S
H1404 C1412 0.929 . S
H1405 C1414 0.930 . S
H1406 C1416 0.930 . S
H1407 C1419 0.929 . S
H1408 C1422 0.930 . S
H1409 C1424 0.960 . S
H1410 C1424 0.960 . S
H1411 C1424 0.960 . S
C1412 H1404 0.929 . S
C1412 C1413 1.377 . S
C1412 C1414 1.384 . S
C1413 C1412 1.377 . S
C1413 C1419 1.390 . S
C1414 H1405 0.930 . S
C1414 C1412 1.384 . S
C1414 C1415 1.372 . S
C1415 C1414 1.372 . S
C1415 C1416 1.400 . S
C1415 C1420 1.490 . S
C1416 H1406 0.930 . S
C1416 C1415 1.400 . S
C1416 C1419 1.386 . S
H1417 C1433 0.930 . S
H1418 C1434 0.931 . S
C1419 H1407 0.929 . S
C1419 C1413 1.390 . S
C1419 C1416 1.386 . S
C1420 C1415 1.490 . S
C1420 C1422 1.395 . S
C1420 C1423 1.403 . S
H1421 C1427 0.930 . S
C1422 H1408 0.930 . S
C1422 C1420 1.395 . S
C1422 C1425 1.403 . S
C1423 C1420 1.403 . S
C1423 C1424 1.524 . S
C1423 C1427 1.400 1_545 S
C1424 H1409 0.960 . S
C1424 H1410 0.960 . S
C1424 H1411 0.960 . S
C1424 C1423 1.524 . S
C1425 C1422 1.403 . S
C1425 C1426 1.392 1_545 S
C1425 C1429 1.495 . S
C1426 C1425 1.392 1_565 S
C1426 C1427 1.385 . S
C1426 C1428 1.478 . S
C1427 H1421 0.930 . S
C1427 C1423 1.400 1_565 S
C1427 C1426 1.385 . S
C1428 C1426 1.478 . S
C1428 C1430 1.381 . S
C1428 C1434 1.383 . S
C1429 C1425 1.495 . S
C1429 H1435 0.959 . S
C1429 H1436 0.961 . S
C1429 H1437 0.960 . S
C1430 C1428 1.381 . S
C1430 C1431 1.394 . S
C1430 H1438 0.930 . S
C1431 C1430 1.394 . S
C1431 C1432 1.383 . S
C1431 H1439 0.929 . S
C1432 C1431 1.383 . S
C1432 C1433 1.377 . S
C1433 H1417 0.930 . S
C1433 C1432 1.377 . S
C1433 C1434 1.379 . S
C1434 H1418 0.931 . S
C1434 C1428 1.383 . S
C1434 C1433 1.379 . S
H1435 C1429 0.959 . S
H1436 C1429 0.961 . S
H1437 C1429 0.960 . S
H1438 C1430 0.930 . S
H1439 C1431 0.929 . S
H1440 C1448 0.929 . S
H1441 C1450 0.930 . S
H1442 C1452 0.930 . S
H1443 C1455 0.929 . S
H1444 C1458 0.930 . S
H1445 C1460 0.960 . S
H1446 C1460 0.960 . S
H1447 C1460 0.960 . S
C1448 H1440 0.929 . S
C1448 C1449 1.377 . S
C1448 C1450 1.384 . S
C1449 C1448 1.377 . S
C1449 C1455 1.390 . S
C1450 H1441 0.930 . S
C1450 C1448 1.384 . S
C1450 C1451 1.372 . S
C1451 C1450 1.372 . S
C1451 C1452 1.400 . S
C1451 C1456 1.490 . S
C1452 H1442 0.930 . S
C1452 C1451 1.400 . S
C1452 C1455 1.386 . S
H1453 C1469 0.930 . S
H1454 C1470 0.931 . S
C1455 H1443 0.929 . S
C1455 C1449 1.390 . S
C1455 C1452 1.386 . S
C1456 C1451 1.490 . S
C1456 C1458 1.395 . S
C1456 C1459 1.403 . S
H1457 C1463 0.930 . S
C1458 H1444 0.930 . S
C1458 C1456 1.395 . S
C1458 C1461 1.403 . S
C1459 C1456 1.403 . S
C1459 C1460 1.524 . S
C1459 C1463 1.400 . S
C1460 H1445 0.960 . S
C1460 H1446 0.960 . S
C1460 H1447 0.960 . S
C1460 C1459 1.524 . S
C1461 C1458 1.403 . S
C1461 C1462 1.392 . S
C1461 C1465 1.495 . S
C1462 C1461 1.392 . S
C1462 C1463 1.385 . S
C1462 C1464 1.478 . S
C1463 H1457 0.930 . S
C1463 C1459 1.400 . S
C1463 C1462 1.385 . S
C1464 C1462 1.478 . S
C1464 C1466 1.381 . S
C1464 C1470 1.383 . S
C1465 C1461 1.495 . S
C1465 H1471 0.959 . S
C1465 H1472 0.961 . S
C1465 H1473 0.960 . S
C1466 C1464 1.381 . S
C1466 C1467 1.394 . S
C1466 H1474 0.930 . S
C1467 C1466 1.394 . S
C1467 C1468 1.383 . S
C1467 H1475 0.929 . S
C1468 C1467 1.383 . S
C1468 C1469 1.377 . S
C1469 H1453 0.930 . S
C1469 C1468 1.377 . S
C1469 C1470 1.379 . S
C1470 H1454 0.931 . S
C1470 C1464 1.383 . S
C1470 C1469 1.379 . S
H1471 C1465 0.959 . S
H1472 C1465 0.961 . S
H1473 C1465 0.960 . S
H1474 C1466 0.930 . S
H1475 C1467 0.929 . S
H1476 C1484 0.929 . S
H1477 C1486 0.930 . S
H1478 C1488 0.930 . S
H1479 C1491 0.929 . S
H1480 C1494 0.930 . S
H1481 C1496 0.960 . S
H1482 C1496 0.960 . S
H1483 C1496 0.960 . S
C1484 H1476 0.929 . S
C1484 C1485 1.377 . S
C1484 C1486 1.384 . S
C1485 C1484 1.377 . S
C1485 C1491 1.390 . S
C1486 H1477 0.930 . S
C1486 C1484 1.384 . S
C1486 C1487 1.372 . S
C1487 C1486 1.372 . S
C1487 C1488 1.400 . S
C1487 C1492 1.490 . S
C1488 H1478 0.930 . S
C1488 C1487 1.400 . S
C1488 C1491 1.386 . S
H1489 C1505 0.930 . S
H1490 C1506 0.931 . S
C1491 H1479 0.929 . S
C1491 C1485 1.390 . S
C1491 C1488 1.386 . S
C1492 C1487 1.490 . S
C1492 C1494 1.395 . S
C1492 C1495 1.403 . S
H1493 C1499 0.930 . S
C1494 H1480 0.930 . S
C1494 C1492 1.395 . S
C1494 C1497 1.403 . S
C1495 C1492 1.403 . S
C1495 C1496 1.524 . S
C1495 C1499 1.400 . S
C1496 H1481 0.960 . S
C1496 H1482 0.960 . S
C1496 H1483 0.960 . S
C1496 C1495 1.524 . S
C1497 C1494 1.403 . S
C1497 C1498 1.392 . S
C1497 C1501 1.495 . S
C1498 C1497 1.392 . S
C1498 C1499 1.385 . S
C1498 C1500 1.478 . S
C1499 H1493 0.930 . S
C1499 C1495 1.400 . S
C1499 C1498 1.385 . S
C1500 C1498 1.478 . S
C1500 C1502 1.381 . S
C1500 C1506 1.383 . S
C1501 C1497 1.495 . S
C1501 H1507 0.959 . S
C1501 H1508 0.961 . S
C1501 H1509 0.960 . S
C1502 C1500 1.381 . S
C1502 C1503 1.394 . S
C1502 H1510 0.930 . S
C1503 C1502 1.394 . S
C1503 C1504 1.383 . S
C1503 H1511 0.929 . S
C1504 C1503 1.383 . S
C1504 C1505 1.377 . S
C1505 H1489 0.930 . S
C1505 C1504 1.377 . S
C1505 C1506 1.379 . S
C1506 H1490 0.931 . S
C1506 C1500 1.383 . S
C1506 C1505 1.379 . S
H1507 C1501 0.959 . S
H1508 C1501 0.961 . S
H1509 C1501 0.960 . S
H1510 C1502 0.930 . S
H1511 C1503 0.929 . S
H1512 C1520 0.929 . S
H1513 C1522 0.930 . S
H1514 C1524 0.930 . S
H1515 C1527 0.929 . S
H1516 C1530 0.930 . S
H1517 C1532 0.960 . S
H1518 C1532 0.960 . S
H1519 C1532 0.960 . S
C1520 H1512 0.929 . S
C1520 C1521 1.377 . S
C1520 C1522 1.384 . S
C1521 C1520 1.377 . S
C1521 C1527 1.390 . S
C1522 H1513 0.930 . S
C1522 C1520 1.384 . S
C1522 C1523 1.372 . S
C1523 C1522 1.372 . S
C1523 C1524 1.400 . S
C1523 C1528 1.490 . S
C1524 H1514 0.930 . S
C1524 C1523 1.400 . S
C1524 C1527 1.386 . S
H1525 C1541 0.930 . S
H1526 C1542 0.931 . S
C1527 H1515 0.929 . S
C1527 C1521 1.390 . S
C1527 C1524 1.386 . S
C1528 C1523 1.490 . S
C1528 C1530 1.395 . S
C1528 C1531 1.403 . S
H1529 C1535 0.930 . S
C1530 H1516 0.930 . S
C1530 C1528 1.395 . S
C1530 C1533 1.403 . S
C1531 C1528 1.403 . S
C1531 C1532 1.524 . S
C1531 C1535 1.400 . S
C1532 H1517 0.960 . S
C1532 H1518 0.960 . S
C1532 H1519 0.960 . S
C1532 C1531 1.524 . S
C1533 C1530 1.403 . S
C1533 C1534 1.392 . S
C1533 C1537 1.495 . S
C1534 C1533 1.392 . S
C1534 C1535 1.385 . S
C1534 C1536 1.478 . S
C1535 H1529 0.930 . S
C1535 C1531 1.400 . S
C1535 C1534 1.385 . S
C1536 C1534 1.478 . S
C1536 C1538 1.381 . S
C1536 C1542 1.383 . S
C1537 C1533 1.495 . S
C1537 H1543 0.959 . S
C1537 H1544 0.961 . S
C1537 H1545 0.960 . S
C1538 C1536 1.381 . S
C1538 C1539 1.394 . S
C1538 H1546 0.930 . S
C1539 C1538 1.394 . S
C1539 C1540 1.383 . S
C1539 H1547 0.929 . S
C1540 C1539 1.383 . S
C1540 C1541 1.377 . S
C1541 H1525 0.930 . S
C1541 C1540 1.377 . S
C1541 C1542 1.379 . S
C1542 H1526 0.931 . S
C1542 C1536 1.383 . S
C1542 C1541 1.379 . S
H1543 C1537 0.959 . S
H1544 C1537 0.961 . S
H1545 C1537 0.960 . S
H1546 C1538 0.930 . S
H1547 C1539 0.929 . S
H1548 C1556 0.929 . S
H1549 C1558 0.930 . S
H1550 C1560 0.930 . S
H1551 C1563 0.929 . S
H1552 C1566 0.930 . S
H1553 C1568 0.960 . S
H1554 C1568 0.960 . S
H1555 C1568 0.960 . S
C1556 H1548 0.929 . S
C1556 C1557 1.377 . S
C1556 C1558 1.384 . S
C1557 C1556 1.377 . S
C1557 C1563 1.390 . S
C1558 H1549 0.930 . S
C1558 C1556 1.384 . S
C1558 C1559 1.372 . S
C1559 C1558 1.372 . S
C1559 C1560 1.400 . S
C1559 C1564 1.490 . S
C1560 H1550 0.930 . S
C1560 C1559 1.400 . S
C1560 C1563 1.386 . S
H1561 C1577 0.930 . S
H1562 C1578 0.931 . S
C1563 H1551 0.929 . S
C1563 C1557 1.390 . S
C1563 C1560 1.386 . S
C1564 C1559 1.490 . S
C1564 C1566 1.395 . S
C1564 C1567 1.403 . S
H1565 C1571 0.930 . S
C1566 H1552 0.930 . S
C1566 C1564 1.395 . S
C1566 C1569 1.403 . S
C1567 C1564 1.403 . S
C1567 C1568 1.524 . S
C1567 C1571 1.400 . S
C1568 H1553 0.960 . S
C1568 H1554 0.960 . S
C1568 H1555 0.960 . S
C1568 C1567 1.524 . S
C1569 C1566 1.403 . S
C1569 C1570 1.392 . S
C1569 C1573 1.495 . S
C1570 C1569 1.392 . S
C1570 C1571 1.385 . S
C1570 C1572 1.478 . S
C1571 H1565 0.930 . S
C1571 C1567 1.400 . S
C1571 C1570 1.385 . S
C1572 C1570 1.478 . S
C1572 C1574 1.381 . S
C1572 C1578 1.383 . S
C1573 C1569 1.495 . S
C1573 H1579 0.959 . S
C1573 H1580 0.961 . S
C1573 H1581 0.960 . S
C1574 C1572 1.381 . S
C1574 C1575 1.394 . S
C1574 H1582 0.930 . S
C1575 C1574 1.394 . S
C1575 C1576 1.383 . S
C1575 H1583 0.929 . S
C1576 C1575 1.383 . S
C1576 C1577 1.377 . S
C1577 H1561 0.930 . S
C1577 C1576 1.377 . S
C1577 C1578 1.379 . S
C1578 H1562 0.931 . S
C1578 C1572 1.383 . S
C1578 C1577 1.379 . S
H1579 C1573 0.959 . S
H1580 C1573 0.961 . S
H1581 C1573 0.960 . S
H1582 C1574 0.930 . S
H1583 C1575 0.929 . S
H1584 C1592 0.929 . S
H1585 C1594 0.930 . S
H1586 C1596 0.930 . S
H1587 C1599 0.929 . S
H1588 C1602 0.930 . S
H1589 C1604 0.960 . S
H1590 C1604 0.960 . S
H1591 C1604 0.960 . S
C1592 H1584 0.929 . S
C1592 C1593 1.377 . S
C1592 C1594 1.384 . S
C1593 C1592 1.377 . S
C1593 C1599 1.390 . S
C1594 H1585 0.930 . S
C1594 C1592 1.384 . S
C1594 C1595 1.372 . S
C1595 C1594 1.372 . S
C1595 C1596 1.400 . S
C1595 C1600 1.490 . S
C1596 H1586 0.930 . S
C1596 C1595 1.400 . S
C1596 C1599 1.386 . S
H1597 C1613 0.930 . S
H1598 C1614 0.931 . S
C1599 H1587 0.929 . S
C1599 C1593 1.390 . S
C1599 C1596 1.386 . S
C1600 C1595 1.490 . S
C1600 C1602 1.395 . S
C1600 C1603 1.403 . S
H1601 C1607 0.930 . S
C1602 H1588 0.930 . S
C1602 C1600 1.395 . S
C1602 C1605 1.403 . S
C1603 C1600 1.403 . S
C1603 C1604 1.524 . S
C1603 C1607 1.400 . S
C1604 H1589 0.960 . S
C1604 H1590 0.960 . S
C1604 H1591 0.960 . S
C1604 C1603 1.524 . S
C1605 C1602 1.403 . S
C1605 C1606 1.392 . S
C1605 C1609 1.495 . S
C1606 C1605 1.392 . S
C1606 C1607 1.385 . S
C1606 C1608 1.478 . S
C1607 H1601 0.930 . S
C1607 C1603 1.400 . S
C1607 C1606 1.385 . S
C1608 C1606 1.478 . S
C1608 C1610 1.381 . S
C1608 C1614 1.383 . S
C1609 C1605 1.495 . S
C1609 H1615 0.959 . S
C1609 H1616 0.961 . S
C1609 H1617 0.960 . S
C1610 C1608 1.381 . S
C1610 C1611 1.394 . S
C1610 H1618 0.930 . S
C1611 C1610 1.394 . S
C1611 C1612 1.383 . S
C1611 H1619 0.929 . S
C1612 C1611 1.383 . S
C1612 C1613 1.377 . S
C1613 H1597 0.930 . S
C1613 C1612 1.377 . S
C1613 C1614 1.379 . S
C1614 H1598 0.931 . S
C1614 C1608 1.383 . S
C1614 C1613 1.379 . S
H1615 C1609 0.959 . S
H1616 C1609 0.961 . S
H1617 C1609 0.960 . S
H1618 C1610 0.930 . S
H1619 C1611 0.929 . S
H1620 C1628 0.929 . S
H1621 C1630 0.930 . S
H1622 C1632 0.930 . S
H1623 C1635 0.929 . S
H1624 C1638 0.930 . S
H1625 C1640 0.960 . S
H1626 C1640 0.960 . S
H1627 C1640 0.960 . S
C1628 H1620 0.929 . S
C1628 C1629 1.377 . S
C1628 C1630 1.384 . S
C1629 C1628 1.377 . S
C1629 C1635 1.390 . S
C1630 H1621 0.930 . S
C1630 C1628 1.384 . S
C1630 C1631 1.372 . S
C1631 C1630 1.372 . S
C1631 C1632 1.400 . S
C1631 C1636 1.490 . S
C1632 H1622 0.930 . S
C1632 C1631 1.400 . S
C1632 C1635 1.386 . S
H1633 C1649 0.930 . S
H1634 C1650 0.931 . S
C1635 H1623 0.929 . S
C1635 C1629 1.390 . S
C1635 C1632 1.386 . S
C1636 C1631 1.490 . S
C1636 C1638 1.395 . S
C1636 C1639 1.403 . S
H1637 C1643 0.930 . S
C1638 H1624 0.930 . S
C1638 C1636 1.395 . S
C1638 C1641 1.403 . S
C1639 C1636 1.403 . S
C1639 C1640 1.524 . S
C1639 C1643 1.400 . S
C1640 H1625 0.960 . S
C1640 H1626 0.960 . S
C1640 H1627 0.960 . S
C1640 C1639 1.524 . S
C1641 C1638 1.403 . S
C1641 C1642 1.392 . S
C1641 C1645 1.495 . S
C1642 C1641 1.392 . S
C1642 C1643 1.385 . S
C1642 C1644 1.478 . S
C1643 H1637 0.930 . S
C1643 C1639 1.400 . S
C1643 C1642 1.385 . S
C1644 C1642 1.478 . S
C1644 C1646 1.381 . S
C1644 C1650 1.383 . S
C1645 C1641 1.495 . S
C1645 H1651 0.959 . S
C1645 H1652 0.961 . S
C1645 H1653 0.960 . S
C1646 C1644 1.381 . S
C1646 C1647 1.394 . S
C1646 H1654 0.930 . S
C1647 C1646 1.394 . S
C1647 C1648 1.383 . S
C1647 H1655 0.929 . S
C1648 C1647 1.383 . S
C1648 C1649 1.377 . S
C1649 H1633 0.930 . S
C1649 C1648 1.377 . S
C1649 C1650 1.379 . S
C1650 H1634 0.931 . S
C1650 C1644 1.383 . S
C1650 C1649 1.379 . S
H1651 C1645 0.959 . S
H1652 C1645 0.961 . S
H1653 C1645 0.960 . S
H1654 C1646 0.930 . S
H1655 C1647 0.929 . S
H1656 C1664 0.929 . S
H1657 C1666 0.930 . S
H1658 C1668 0.930 . S
H1659 C1671 0.929 . S
H1660 C1674 0.930 . S
H1661 C1676 0.960 . S
H1662 C1676 0.960 . S
H1663 C1676 0.960 1_556 S
C1664 H1656 0.929 . S
C1664 C1665 1.377 . S
C1664 C1666 1.384 . S
C1665 C1664 1.377 . S
C1665 C1671 1.390 . S
C1666 H1657 0.930 . S
C1666 C1664 1.384 . S
C1666 C1667 1.372 . S
C1667 C1666 1.372 . S
C1667 C1668 1.400 . S
C1667 C1672 1.490 . S
C1668 H1658 0.930 . S
C1668 C1667 1.400 . S
C1668 C1671 1.386 . S
H1669 C1685 0.930 . S
H1670 C1686 0.931 . S
C1671 H1659 0.929 . S
C1671 C1665 1.390 . S
C1671 C1668 1.386 . S
C1672 C1667 1.490 . S
C1672 C1674 1.395 . S
C1672 C1675 1.407 1_556 S
H1673 C1679 0.930 . S
C1674 H1660 0.930 . S
C1674 C1672 1.395 . S
C1674 C1677 1.408 1_566 S
C1675 C1672 1.407 1_554 S
C1675 C1676 1.523 . S
C1675 C1679 1.396 1_565 S
C1676 H1661 0.960 . S
C1676 H1662 0.960 . S
C1676 H1663 0.960 1_554 S
C1676 C1675 1.523 . S
C1677 C1674 1.408 1_544 S
C1677 C1678 1.388 . S
C1677 C1681 1.495 1_554 S
C1678 C1677 1.388 . S
C1678 C1679 1.385 . S
C1678 C1680 1.478 . S
C1679 H1673 0.930 . S
C1679 C1675 1.396 1_545 S
C1679 C1678 1.385 . S
C1680 C1678 1.478 . S
C1680 C1682 1.381 . S
C1680 C1686 1.383 . S
C1681 C1677 1.495 1_556 S
C1681 H1687 0.986 . S
C1681 H1688 0.970 . S
C1681 H1689 0.926 1_556 S
C1682 C1680 1.381 . S
C1682 C1683 1.394 . S
C1682 H1690 0.930 . S
C1683 C1682 1.394 . S
C1683 C1684 1.383 . S
C1683 H1691 0.929 . S
C1684 C1683 1.383 . S
C1684 C1685 1.377 . S
C1685 H1669 0.930 . S
C1685 C1684 1.377 . S
C1685 C1686 1.379 . S
C1686 H1670 0.931 . S
C1686 C1680 1.383 . S
C1686 C1685 1.379 . S
H1687 C1681 0.986 . S
H1688 C1681 0.970 . S
H1689 C1681 0.926 1_554 S
H1690 C1682 0.930 . S
H1691 C1683 0.929 . S
H1692 C1700 0.929 . S
H1693 C1702 0.930 . S
H1694 C1704 0.930 . S
H1695 C1707 0.929 . S
H1696 C1710 0.930 . S
H1697 C1712 0.960 . S
H1698 C1712 0.960 . S
H1699 C1712 0.960 . S
C1700 H1692 0.929 . S
C1700 C1701 1.377 . S
C1700 C1702 1.384 . S
C1701 C1700 1.377 . S
C1701 C1707 1.390 . S
C1702 H1693 0.930 . S
C1702 C1700 1.384 . S
C1702 C1703 1.372 . S
C1703 C1702 1.372 . S
C1703 C1704 1.400 . S
C1703 C1708 1.490 . S
C1704 H1694 0.930 . S
C1704 C1703 1.400 . S
C1704 C1707 1.386 . S
H1705 C1721 0.930 . S
H1706 C1722 0.931 . S
C1707 H1695 0.929 . S
C1707 C1701 1.390 . S
C1707 C1704 1.386 . S
C1708 C1703 1.490 . S
C1708 C1710 1.395 . S
C1708 C1711 1.403 . S
H1709 C1715 0.930 . S
C1710 H1696 0.930 . S
C1710 C1708 1.395 . S
C1710 C1713 1.403 . S
C1711 C1708 1.403 . S
C1711 C1712 1.524 . S
C1711 C1715 1.400 . S
C1712 H1697 0.960 . S
C1712 H1698 0.960 . S
C1712 H1699 0.960 . S
C1712 C1711 1.524 . S
C1713 C1710 1.403 . S
C1713 C1714 1.392 . S
C1713 C1717 1.495 . S
C1714 C1713 1.392 . S
C1714 C1715 1.385 . S
C1714 C1716 1.478 . S
C1715 H1709 0.930 . S
C1715 C1711 1.400 . S
C1715 C1714 1.385 . S
C1716 C1714 1.478 . S
C1716 C1718 1.381 . S
C1716 C1722 1.383 . S
C1717 C1713 1.495 . S
C1717 H1723 0.959 . S
C1717 H1724 0.961 . S
C1717 H1725 0.960 . S
C1718 C1716 1.381 . S
C1718 C1719 1.394 . S
C1718 H1726 0.930 . S
C1719 C1718 1.394 . S
C1719 C1720 1.383 . S
C1719 H1727 0.929 . S
C1720 C1719 1.383 . S
C1720 C1721 1.377 . S
C1721 H1705 0.930 . S
C1721 C1720 1.377 . S
C1721 C1722 1.379 . S
C1722 H1706 0.931 . S
C1722 C1716 1.383 . S
C1722 C1721 1.379 . S
H1723 C1717 0.959 . S
H1724 C1717 0.961 . S
H1725 C1717 0.960 . S
H1726 C1718 0.930 . S
H1727 C1719 0.929 . S
H1728 C1736 0.929 . S
H1729 C1738 0.930 . S
H1730 C1740 0.930 . S
H1731 C1743 0.929 . S
H1732 C1746 0.931 . S
H1733 C1748 0.960 . S
H1734 C1748 0.960 1_556 S
H1735 C1748 0.960 . S
C1736 H1728 0.929 . S
C1736 C1737 1.377 . S
C1736 C1738 1.384 . S
C1737 C1736 1.377 . S
C1737 C1743 1.390 . S
C1738 H1729 0.930 . S
C1738 C1736 1.384 . S
C1738 C1739 1.372 . S
C1739 C1738 1.372 . S
C1739 C1740 1.400 . S
C1739 C1744 1.490 . S
C1740 H1730 0.930 . S
C1740 C1739 1.400 . S
C1740 C1743 1.386 . S
H1741 C1757 0.930 . S
H1742 C1758 0.931 . S
C1743 H1731 0.929 . S
C1743 C1737 1.390 . S
C1743 C1740 1.386 . S
C1744 C1739 1.490 . S
C1744 C1746 1.395 . S
C1744 C1747 1.407 . S
H1745 C1751 0.930 . S
C1746 H1732 0.931 . S
C1746 C1744 1.395 . S
C1746 C1749 1.402 1_455 S
C1747 C1744 1.407 . S
C1747 C1748 1.523 1_556 S
C1747 C1751 1.396 1_456 S
C1748 H1733 0.960 . S
C1748 H1734 0.960 1_554 S
C1748 H1735 0.960 . S
C1748 C1747 1.523 1_554 S
C1749 C1746 1.402 1_655 S
C1749 C1750 1.392 1_556 S
C1749 C1753 1.495 . S
C1750 C1749 1.392 1_554 S
C1750 C1751 1.385 . S
C1750 C1752 1.478 . S
C1751 H1745 0.930 . S
C1751 C1747 1.396 1_654 S
C1751 C1750 1.385 . S
C1752 C1750 1.478 . S
C1752 C1754 1.381 . S
C1752 C1758 1.383 . S
C1753 C1749 1.495 . S
C1753 H1759 0.959 . S
C1753 H1760 0.961 1_556 S
C1753 H1761 0.960 . S
C1754 C1752 1.381 . S
C1754 C1755 1.394 . S
C1754 H1762 0.930 . S
C1755 C1754 1.394 . S
C1755 C1756 1.383 . S
C1755 H1763 0.929 . S
C1756 C1755 1.383 . S
C1756 C1757 1.377 . S
C1757 H1741 0.930 . S
C1757 C1756 1.377 . S
C1757 C1758 1.379 . S
C1758 H1742 0.931 . S
C1758 C1752 1.383 . S
C1758 C1757 1.379 . S
H1759 C1753 0.959 . S
H1760 C1753 0.961 1_554 S
H1761 C1753 0.960 . S
H1762 C1754 0.930 . S
H1763 C1755 0.929 . S
H1764 C1772 0.929 . S
H1765 C1774 0.930 . S
H1766 C1776 0.930 . S
H1767 C1779 0.929 . S
H1768 C1782 0.930 . S
H1769 C1784 0.982 . S
H1770 C1784 0.960 . S
H1771 C1784 0.960 . S
C1772 H1764 0.929 . S
C1772 C1773 1.377 . S
C1772 C1774 1.384 . S
C1773 C1772 1.377 . S
C1773 C1779 1.390 . S
C1774 H1765 0.930 . S
C1774 C1772 1.384 . S
C1774 C1775 1.372 . S
C1775 C1774 1.372 . S
C1775 C1776 1.400 . S
C1775 C1780 1.490 . S
C1776 H1766 0.930 . S
C1776 C1775 1.400 . S
C1776 C1779 1.386 . S
H1777 C1793 0.930 . S
H1778 C1794 0.931 . S
C1779 H1767 0.929 . S
C1779 C1773 1.390 . S
C1779 C1776 1.386 . S
C1780 C1775 1.490 . S
C1780 C1782 1.395 . S
C1780 C1783 1.403 . S
H1781 C1787 0.930 . S
C1782 H1768 0.930 . S
C1782 C1780 1.395 . S
C1782 C1785 1.403 1_545 S
C1783 C1780 1.403 . S
C1783 C1784 1.524 . S
C1783 C1787 1.400 1_545 S
C1784 H1769 0.982 . S
C1784 H1770 0.960 . S
C1784 H1771 0.960 . S
C1784 C1783 1.524 . S
C1785 C1782 1.403 1_565 S
C1785 C1786 1.392 . S
C1785 C1789 1.495 . S
C1786 C1785 1.392 . S
C1786 C1787 1.385 . S
C1786 C1788 1.478 . S
C1787 H1781 0.930 . S
C1787 C1783 1.400 1_565 S
C1787 C1786 1.385 . S
C1788 C1786 1.478 . S
C1788 C1790 1.381 . S
C1788 C1794 1.383 . S
C1789 C1785 1.495 . S
C1789 H1795 0.959 1_565 S
C1789 H1796 0.961 . S
C1789 H1797 0.960 . S
C1790 C1788 1.381 . S
C1790 C1791 1.394 . S
C1790 H1798 0.930 . S
C1791 C1790 1.394 . S
C1791 C1792 1.383 . S
C1791 H1799 0.929 . S
C1792 C1791 1.383 . S
C1792 C1793 1.377 . S
C1793 H1777 0.930 . S
C1793 C1792 1.377 . S
C1793 C1794 1.379 . S
C1794 H1778 0.931 . S
C1794 C1788 1.383 . S
C1794 C1793 1.379 . S
H1795 C1789 0.959 1_545 S
H1796 C1789 0.961 . S
H1797 C1789 0.960 . S
H1798 C1790 0.930 . S
H1799 C1791 0.929 . S
H1800 C1808 0.929 . S
H1801 C1810 0.930 . S
H1802 C1812 0.930 . S
H1803 C1815 0.929 . S
H1804 C1818 0.930 . S
H1805 C1820 0.960 . S
H1806 C1820 0.960 . S
H1807 C1820 0.960 1_554 S
C1808 H1800 0.929 . S
C1808 C1809 1.377 . S
C1808 C1810 1.384 . S
C1809 C1808 1.377 . S
C1809 C1815 1.390 . S
C1810 H1801 0.930 . S
C1810 C1808 1.384 . S
C1810 C1811 1.372 . S
C1811 C1810 1.372 . S
C1811 C1812 1.400 . S
C1811 C1816 1.490 . S
C1812 H1802 0.930 . S
C1812 C1811 1.400 . S
C1812 C1815 1.386 . S
H1813 C1829 0.930 . S
H1814 C1830 0.931 . S
C1815 H1803 0.929 . S
C1815 C1809 1.390 . S
C1815 C1812 1.386 . S
C1816 C1811 1.490 . S
C1816 C1818 1.395 . S
C1816 C1819 1.396 1_554 S
H1817 C1823 0.930 . S
C1818 H1804 0.930 . S
C1818 C1816 1.395 . S
C1818 C1821 1.414 . S
C1819 C1816 1.396 1_556 S
C1819 C1820 1.525 . S
C1819 C1823 1.407 . S
C1820 H1805 0.960 . S
C1820 H1806 0.960 . S
C1820 H1807 0.960 1_556 S
C1820 C1819 1.525 . S
C1821 C1818 1.414 . S
C1821 C1822 1.382 1_554 S
C1821 C1825 1.496 . S
C1822 C1821 1.382 1_556 S
C1822 C1823 1.385 . S
C1822 C1824 1.478 . S
C1823 H1817 0.930 . S
C1823 C1819 1.407 . S
C1823 C1822 1.385 . S
C1824 C1822 1.478 . S
C1824 C1826 1.381 . S
C1824 C1830 1.383 . S
C1825 C1821 1.496 . S
C1825 H1831 0.959 . S
C1825 H1832 0.961 . S
C1825 H1833 0.960 1_554 S
C1826 C1824 1.381 . S
C1826 C1827 1.394 . S
C1826 H1834 0.930 . S
C1827 C1826 1.394 . S
C1827 C1828 1.383 . S
C1827 H1835 0.929 . S
C1828 C1827 1.383 . S
C1828 C1829 1.377 . S
C1829 H1813 0.930 . S
C1829 C1828 1.377 . S
C1829 C1830 1.379 . S
C1830 H1814 0.931 . S
C1830 C1824 1.383 . S
C1830 C1829 1.379 . S
H1831 C1825 0.959 . S
H1832 C1825 0.961 . S
H1833 C1825 0.960 1_556 S
H1834 C1826 0.930 . S
H1835 C1827 0.929 . S
H1836 C1844 0.929 . S
H1837 C1846 0.930 . S
H1838 C1848 0.930 . S
H1839 C1851 0.929 . S
H1840 C1854 0.930 . S
H1841 C1856 0.960 . S
H1842 C1856 0.960 . S
H1843 C1856 0.960 . S
C1844 H1836 0.929 . S
C1844 C1845 1.377 . S
C1844 C1846 1.384 . S
C1845 C1844 1.377 . S
C1845 C1851 1.390 . S
C1846 H1837 0.930 . S
C1846 C1844 1.384 . S
C1846 C1847 1.372 . S
C1847 C1846 1.372 . S
C1847 C1848 1.400 . S
C1847 C1852 1.490 . S
C1848 H1838 0.930 . S
C1848 C1847 1.400 . S
C1848 C1851 1.386 . S
H1849 C1865 0.930 . S
H1850 C1866 0.931 . S
C1851 H1839 0.929 . S
C1851 C1845 1.390 . S
C1851 C1848 1.386 . S
C1852 C1847 1.490 . S
C1852 C1854 1.395 1_455 S
C1852 C1855 1.403 . S
H1853 C1859 0.930 . S
C1854 H1840 0.930 . S
C1854 C1852 1.395 1_655 S
C1854 C1857 1.403 . S
C1855 C1852 1.403 . S
C1855 C1856 1.524 . S
C1855 C1859 1.400 . S
C1856 H1841 0.960 . S
C1856 H1842 0.960 . S
C1856 H1843 0.960 . S
C1856 C1855 1.524 . S
C1857 C1854 1.403 . S
C1857 C1858 1.392 . S
C1857 C1861 1.495 . S
C1858 C1857 1.392 . S
C1858 C1859 1.385 1_655 S
C1858 C1860 1.478 . S
C1859 H1853 0.930 . S
C1859 C1855 1.400 . S
C1859 C1858 1.385 1_455 S
C1860 C1858 1.478 . S
C1860 C1862 1.381 . S
C1860 C1866 1.383 . S
C1861 C1857 1.495 . S
C1861 H1867 0.959 . S
C1861 H1868 0.961 . S
C1861 H1869 0.960 . S
C1862 C1860 1.381 . S
C1862 C1863 1.394 . S
C1862 H1870 0.930 . S
C1863 C1862 1.394 . S
C1863 C1864 1.383 . S
C1863 H1871 0.929 . S
C1864 C1863 1.383 . S
C1864 C1865 1.377 . S
C1865 H1849 0.930 . S
C1865 C1864 1.377 . S
C1865 C1866 1.379 . S
C1866 H1850 0.931 . S
C1866 C1860 1.383 . S
C1866 C1865 1.379 . S
H1867 C1861 0.959 . S
H1868 C1861 0.961 . S
H1869 C1861 0.960 . S
H1870 C1862 0.930 . S
H1871 C1863 0.929 . S
H1872 C1880 0.929 . S
H1873 C1882 0.930 . S
H1874 C1884 0.930 . S
H1875 C1887 0.929 . S
H1876 C1890 0.930 . S
H1877 C1892 0.960 . S
H1878 C1892 0.960 . S
H1879 C1892 0.960 . S
C1880 H1872 0.929 . S
C1880 C1881 1.377 . S
C1880 C1882 1.384 . S
C1881 C1880 1.377 . S
C1881 C1887 1.390 . S
C1882 H1873 0.930 . S
C1882 C1880 1.384 . S
C1882 C1883 1.372 . S
C1883 C1882 1.372 . S
C1883 C1884 1.400 . S
C1883 C1888 1.490 . S
C1884 H1874 0.930 . S
C1884 C1883 1.400 . S
C1884 C1887 1.386 . S
H1885 C1901 0.930 . S
H1886 C1902 0.931 . S
C1887 H1875 0.929 . S
C1887 C1881 1.390 . S
C1887 C1884 1.386 . S
C1888 C1883 1.490 . S
C1888 C1890 1.395 . S
C1888 C1891 1.403 . S
H1889 C1895 0.930 . S
C1890 H1876 0.930 . S
C1890 C1888 1.395 . S
C1890 C1893 1.403 . S
C1891 C1888 1.403 . S
C1891 C1892 1.524 . S
C1891 C1895 1.400 . S
C1892 H1877 0.960 . S
C1892 H1878 0.960 . S
C1892 H1879 0.960 . S
C1892 C1891 1.524 . S
C1893 C1890 1.403 . S
C1893 C1894 1.392 . S
C1893 C1897 1.495 . S
C1894 C1893 1.392 . S
C1894 C1895 1.385 . S
C1894 C1896 1.478 . S
C1895 H1889 0.930 . S
C1895 C1891 1.400 . S
C1895 C1894 1.385 . S
C1896 C1894 1.478 . S
C1896 C1898 1.381 . S
C1896 C1902 1.383 . S
C1897 C1893 1.495 . S
C1897 H1903 0.959 . S
C1897 H1904 0.961 . S
C1897 H1905 0.960 . S
C1898 C1896 1.381 . S
C1898 C1899 1.394 . S
C1898 H1906 0.930 . S
C1899 C1898 1.394 . S
C1899 C1900 1.383 . S
C1899 H1907 0.929 . S
C1900 C1899 1.383 . S
C1900 C1901 1.377 . S
C1901 H1885 0.930 . S
C1901 C1900 1.377 . S
C1901 C1902 1.379 . S
C1902 H1886 0.931 . S
C1902 C1896 1.383 . S
C1902 C1901 1.379 . S
H1903 C1897 0.959 . S
H1904 C1897 0.961 . S
H1905 C1897 0.960 . S
H1906 C1898 0.930 . S
H1907 C1899 0.929 . S
H1908 C1916 0.929 . S
H1909 C1918 0.930 . S
H1910 C1920 0.930 . S
H1911 C1923 0.929 . S
H1912 C1926 0.930 . S
H1913 C1928 0.960 . S
H1914 C1928 0.960 . S
H1915 C1928 0.960 . S
C1916 H1908 0.929 . S
C1916 C1917 1.377 . S
C1916 C1918 1.384 . S
C1917 C1916 1.377 . S
C1917 C1923 1.390 . S
C1918 H1909 0.930 . S
C1918 C1916 1.384 . S
C1918 C1919 1.372 . S
C1919 C1918 1.372 . S
C1919 C1920 1.400 . S
C1919 C1924 1.490 . S
C1920 H1910 0.930 . S
C1920 C1919 1.400 . S
C1920 C1923 1.386 . S
H1921 C1937 0.930 . S
H1922 C1938 0.931 . S
C1923 H1911 0.929 . S
C1923 C1917 1.390 . S
C1923 C1920 1.386 . S
C1924 C1919 1.490 . S
C1924 C1926 1.395 . S
C1924 C1927 1.403 . S
H1925 C1931 0.930 . S
C1926 H1912 0.930 . S
C1926 C1924 1.395 . S
C1926 C1929 1.403 . S
C1927 C1924 1.403 . S
C1927 C1928 1.524 . S
C1927 C1931 1.400 . S
C1928 H1913 0.960 . S
C1928 H1914 0.960 . S
C1928 H1915 0.960 . S
C1928 C1927 1.524 . S
C1929 C1926 1.403 . S
C1929 C1930 1.392 . S
C1929 C1933 1.495 . S
C1930 C1929 1.392 . S
C1930 C1931 1.385 . S
C1930 C1932 1.478 . S
C1931 H1925 0.930 . S
C1931 C1927 1.400 . S
C1931 C1930 1.385 . S
C1932 C1930 1.478 . S
C1932 C1934 1.381 . S
C1932 C1938 1.383 . S
C1933 C1929 1.495 . S
C1933 H1939 0.959 . S
C1933 H1940 0.961 . S
C1933 H1941 0.960 . S
C1934 C1932 1.381 . S
C1934 C1935 1.394 . S
C1934 H1942 0.930 . S
C1935 C1934 1.394 . S
C1935 C1936 1.383 . S
C1935 H1943 0.929 . S
C1936 C1935 1.383 . S
C1936 C1937 1.377 . S
C1937 H1921 0.930 . S
C1937 C1936 1.377 . S
C1937 C1938 1.379 . S
C1938 H1922 0.931 . S
C1938 C1932 1.383 . S
C1938 C1937 1.379 . S
H1939 C1933 0.959 . S
H1940 C1933 0.961 . S
H1941 C1933 0.960 . S
H1942 C1934 0.930 . S
H1943 C1935 0.929 . S
H1944 C1952 0.929 . S
H1945 C1954 0.930 . S
H1946 C1956 0.930 . S
H1947 C1959 0.929 . S
H1948 C1962 0.930 . S
H1949 C1964 0.960 . S
H1950 C1964 0.960 . S
H1951 C1964 0.960 . S
C1952 H1944 0.929 . S
C1952 C1953 1.377 . S
C1952 C1954 1.384 . S
C1953 C1952 1.377 . S
C1953 C1959 1.390 . S
C1954 H1945 0.930 . S
C1954 C1952 1.384 . S
C1954 C1955 1.372 . S
C1955 C1954 1.372 . S
C1955 C1956 1.400 . S
C1955 C1960 1.490 . S
C1956 H1946 0.930 . S
C1956 C1955 1.400 . S
C1956 C1959 1.386 . S
H1957 C1973 0.930 . S
H1958 C1974 0.931 . S
C1959 H1947 0.929 . S
C1959 C1953 1.390 . S
C1959 C1956 1.386 . S
C1960 C1955 1.490 . S
C1960 C1962 1.395 . S
C1960 C1963 1.403 . S
H1961 C1967 0.930 . S
C1962 H1948 0.930 . S
C1962 C1960 1.395 . S
C1962 C1965 1.403 . S
C1963 C1960 1.403 . S
C1963 C1964 1.524 . S
C1963 C1967 1.400 . S
C1964 H1949 0.960 . S
C1964 H1950 0.960 . S
C1964 H1951 0.960 . S
C1964 C1963 1.524 . S
C1965 C1962 1.403 . S
C1965 C1966 1.392 . S
C1965 C1969 1.495 . S
C1966 C1965 1.392 . S
C1966 C1967 1.385 . S
C1966 C1968 1.478 . S
C1967 H1961 0.930 . S
C1967 C1963 1.400 . S
C1967 C1966 1.385 . S
C1968 C1966 1.478 . S
C1968 C1970 1.381 . S
C1968 C1974 1.383 . S
C1969 C1965 1.495 . S
C1969 H1975 0.959 . S
C1969 H1976 0.961 . S
C1969 H1977 0.960 . S
C1970 C1968 1.381 . S
C1970 C1971 1.394 . S
C1970 H1978 0.930 . S
C1971 C1970 1.394 . S
C1971 C1972 1.383 . S
C1971 H1979 0.929 . S
C1972 C1971 1.383 . S
C1972 C1973 1.377 . S
C1973 H1957 0.930 . S
C1973 C1972 1.377 . S
C1973 C1974 1.379 . S
C1974 H1958 0.931 . S
C1974 C1968 1.383 . S
C1974 C1973 1.379 . S
H1975 C1969 0.959 . S
H1976 C1969 0.961 . S
H1977 C1969 0.960 . S
H1978 C1970 0.930 . S
H1979 C1971 0.929 . S
H1980 C1988 0.929 . S
H1981 C1990 0.930 . S
H1982 C1992 0.930 . S
H1983 C1995 0.929 . S
H1984 C1998 0.930 . S
H1985 C2000 0.960 . S
H1986 C2000 0.960 . S
H1987 C2000 0.960 . S
C1988 H1980 0.929 . S
C1988 C1989 1.377 . S
C1988 C1990 1.384 . S
C1989 C1988 1.377 . S
C1989 C1995 1.390 . S
C1990 H1981 0.930 . S
C1990 C1988 1.384 . S
C1990 C1991 1.372 . S
C1991 C1990 1.372 . S
C1991 C1992 1.400 . S
C1991 C1996 1.490 . S
C1992 H1982 0.930 . S
C1992 C1991 1.400 . S
C1992 C1995 1.386 . S
H1993 C2009 0.930 . S
H1994 C2010 0.931 . S
C1995 H1983 0.929 . S
C1995 C1989 1.390 . S
C1995 C1992 1.386 . S
C1996 C1991 1.490 . S
C1996 C1998 1.395 . S
C1996 C1999 1.403 . S
H1997 C2003 0.930 . S
C1998 H1984 0.930 . S
C1998 C1996 1.395 . S
C1998 C2001 1.403 . S
C1999 C1996 1.403 . S
C1999 C2000 1.524 . S
C1999 C2003 1.400 . S
C2000 H1985 0.960 . S
C2000 H1986 0.960 . S
C2000 H1987 0.960 . S
C2000 C1999 1.524 . S
C2001 C1998 1.403 . S
C2001 C2002 1.392 . S
C2001 C2005 1.495 . S
C2002 C2001 1.392 . S
C2002 C2003 1.385 . S
C2002 C2004 1.478 . S
C2003 H1997 0.930 . S
C2003 C1999 1.400 . S
C2003 C2002 1.385 . S
C2004 C2002 1.478 . S
C2004 C2006 1.381 . S
C2004 C2010 1.383 . S
C2005 C2001 1.495 . S
C2005 H2011 0.959 . S
C2005 H2012 0.961 . S
C2005 H2013 0.960 . S
C2006 C2004 1.381 . S
C2006 C2007 1.394 . S
C2006 H2014 0.930 . S
C2007 C2006 1.394 . S
C2007 C2008 1.383 . S
C2007 H2015 0.929 . S
C2008 C2007 1.383 . S
C2008 C2009 1.377 . S
C2009 H1993 0.930 . S
C2009 C2008 1.377 . S
C2009 C2010 1.379 . S
C2010 H1994 0.931 . S
C2010 C2004 1.383 . S
C2010 C2009 1.379 . S
H2011 C2005 0.959 . S
H2012 C2005 0.961 . S
H2013 C2005 0.960 . S
H2014 C2006 0.930 . S
H2015 C2007 0.929 . S
H2016 C2024 0.929 . S
H2017 C2026 0.930 . S
H2018 C2028 0.930 . S
H2019 C2031 0.929 . S
H2020 C2034 0.930 . S
H2021 C2036 0.960 . S
H2022 C2036 0.960 . S
H2023 C2036 0.960 . S
C2024 H2016 0.929 . S
C2024 C2025 1.377 . S
C2024 C2026 1.384 . S
C2025 C2024 1.377 . S
C2025 C2031 1.390 . S
C2026 H2017 0.930 . S
C2026 C2024 1.384 . S
C2026 C2027 1.372 . S
C2027 C2026 1.372 . S
C2027 C2028 1.400 . S
C2027 C2032 1.490 . S
C2028 H2018 0.930 . S
C2028 C2027 1.400 . S
C2028 C2031 1.386 . S
H2029 C2045 0.930 . S
H2030 C2046 0.931 . S
C2031 H2019 0.929 . S
C2031 C2025 1.390 . S
C2031 C2028 1.386 . S
C2032 C2027 1.490 . S
C2032 C2034 1.395 . S
C2032 C2035 1.403 . S
H2033 C2039 0.930 . S
C2034 H2020 0.930 . S
C2034 C2032 1.395 . S
C2034 C2037 1.403 . S
C2035 C2032 1.403 . S
C2035 C2036 1.524 . S
C2035 C2039 1.400 . S
C2036 H2021 0.960 . S
C2036 H2022 0.960 . S
C2036 H2023 0.960 . S
C2036 C2035 1.524 . S
C2037 C2034 1.403 . S
C2037 C2038 1.392 . S
C2037 C2041 1.495 . S
C2038 C2037 1.392 . S
C2038 C2039 1.385 . S
C2038 C2040 1.478 . S
C2039 H2033 0.930 . S
C2039 C2035 1.400 . S
C2039 C2038 1.385 . S
C2040 C2038 1.478 . S
C2040 C2042 1.381 . S
C2040 C2046 1.383 . S
C2041 C2037 1.495 . S
C2041 H2047 0.959 . S
C2041 H2048 0.961 . S
C2041 H2049 0.960 . S
C2042 C2040 1.381 . S
C2042 C2043 1.394 . S
C2042 H2050 0.930 . S
C2043 C2042 1.394 . S
C2043 C2044 1.383 . S
C2043 H2051 0.929 . S
C2044 C2043 1.383 . S
C2044 C2045 1.377 . S
C2045 H2029 0.930 . S
C2045 C2044 1.377 . S
C2045 C2046 1.379 . S
C2046 H2030 0.931 . S
C2046 C2040 1.383 . S
C2046 C2045 1.379 . S
H2047 C2041 0.959 . S
H2048 C2041 0.961 . S
H2049 C2041 0.960 . S
H2050 C2042 0.930 . S
H2051 C2043 0.929 . S
H2052 C2060 0.929 . S
H2053 C2062 0.930 . S
H2054 C2064 0.930 . S
H2055 C2067 0.929 . S
H2056 C2070 0.930 . S
H2057 C2072 0.960 . S
H2058 C2072 0.960 . S
H2059 C2072 0.960 . S
C2060 H2052 0.929 . S
C2060 C2061 1.377 . S
C2060 C2062 1.384 . S
C2061 C2060 1.377 . S
C2061 C2067 1.390 . S
C2062 H2053 0.930 . S
C2062 C2060 1.384 . S
C2062 C2063 1.372 . S
C2063 C2062 1.372 . S
C2063 C2064 1.400 . S
C2063 C2068 1.490 . S
C2064 H2054 0.930 . S
C2064 C2063 1.400 . S
C2064 C2067 1.386 . S
H2065 C2081 0.930 . S
H2066 C2082 0.931 . S
C2067 H2055 0.929 . S
C2067 C2061 1.390 . S
C2067 C2064 1.386 . S
C2068 C2063 1.490 . S
C2068 C2070 1.395 . S
C2068 C2071 1.403 . S
H2069 C2075 0.930 . S
C2070 H2056 0.930 . S
C2070 C2068 1.395 . S
C2070 C2073 1.403 . S
C2071 C2068 1.403 . S
C2071 C2072 1.524 . S
C2071 C2075 1.400 . S
C2072 H2057 0.960 . S
C2072 H2058 0.960 . S
C2072 H2059 0.960 . S
C2072 C2071 1.524 . S
C2073 C2070 1.403 . S
C2073 C2074 1.392 . S
C2073 C2077 1.495 . S
C2074 C2073 1.392 . S
C2074 C2075 1.385 . S
C2074 C2076 1.478 . S
C2075 H2069 0.930 . S
C2075 C2071 1.400 . S
C2075 C2074 1.385 . S
C2076 C2074 1.478 . S
C2076 C2078 1.381 . S
C2076 C2082 1.383 . S
C2077 C2073 1.495 . S
C2077 H2083 0.959 . S
C2077 H2084 0.961 . S
C2077 H2085 0.960 . S
C2078 C2076 1.381 . S
C2078 C2079 1.394 . S
C2078 H2086 0.930 . S
C2079 C2078 1.394 . S
C2079 C2080 1.383 . S
C2079 H2087 0.929 . S
C2080 C2079 1.383 . S
C2080 C2081 1.377 . S
C2081 H2065 0.930 . S
C2081 C2080 1.377 . S
C2081 C2082 1.379 . S
C2082 H2066 0.931 . S
C2082 C2076 1.383 . S
C2082 C2081 1.379 . S
H2083 C2077 0.959 . S
H2084 C2077 0.961 . S
H2085 C2077 0.960 . S
H2086 C2078 0.930 . S
H2087 C2079 0.929 . S
H2088 C2096 0.929 . S
H2089 C2098 0.930 . S
H2090 C2100 0.930 . S
H2091 C2103 0.929 . S
H2092 C2106 0.930 . S
H2093 C2108 0.960 . S
H2094 C2108 0.960 . S
H2095 C2108 0.960 . S
C2096 H2088 0.929 . S
C2096 C2097 1.377 . S
C2096 C2098 1.384 . S
C2097 C2096 1.377 . S
C2097 C2103 1.390 . S
C2098 H2089 0.930 . S
C2098 C2096 1.384 . S
C2098 C2099 1.372 . S
C2099 C2098 1.372 . S
C2099 C2100 1.400 . S
C2099 C2104 1.490 . S
C2100 H2090 0.930 . S
C2100 C2099 1.400 . S
C2100 C2103 1.386 . S
H2101 C2117 0.930 . S
H2102 C2118 0.931 . S
C2103 H2091 0.929 . S
C2103 C2097 1.390 . S
C2103 C2100 1.386 . S
C2104 C2099 1.490 . S
C2104 C2106 1.395 . S
C2104 C2107 1.403 . S
H2105 C2111 0.930 . S
C2106 H2092 0.930 . S
C2106 C2104 1.395 . S
C2106 C2109 1.403 . S
C2107 C2104 1.403 . S
C2107 C2108 1.524 . S
C2107 C2111 1.400 . S
C2108 H2093 0.960 . S
C2108 H2094 0.960 . S
C2108 H2095 0.960 . S
C2108 C2107 1.524 . S
C2109 C2106 1.403 . S
C2109 C2110 1.392 . S
C2109 C2113 1.495 . S
C2110 C2109 1.392 . S
C2110 C2111 1.385 . S
C2110 C2112 1.478 . S
C2111 H2105 0.930 . S
C2111 C2107 1.400 . S
C2111 C2110 1.385 . S
C2112 C2110 1.478 . S
C2112 C2114 1.381 . S
C2112 C2118 1.383 . S
C2113 C2109 1.495 . S
C2113 H2119 0.959 . S
C2113 H2120 0.961 . S
C2113 H2121 0.960 . S
C2114 C2112 1.381 . S
C2114 C2115 1.394 . S
C2114 H2122 0.930 . S
C2115 C2114 1.394 . S
C2115 C2116 1.383 . S
C2115 H2123 0.929 . S
C2116 C2115 1.383 . S
C2116 C2117 1.377 . S
C2117 H2101 0.930 . S
C2117 C2116 1.377 . S
C2117 C2118 1.379 . S
C2118 H2102 0.931 . S
C2118 C2112 1.383 . S
C2118 C2117 1.379 . S
H2119 C2113 0.959 . S
H2120 C2113 0.961 . S
H2121 C2113 0.960 . S
H2122 C2114 0.930 . S
H2123 C2115 0.929 . S
H2124 C2132 0.929 . S
H2125 C2134 0.930 . S
H2126 C2136 0.930 . S
H2127 C2139 0.929 . S
H2128 C2142 0.930 . S
H2129 C2144 0.960 . S
H2130 C2144 0.960 . S
H2131 C2144 0.960 . S
C2132 H2124 0.929 . S
C2132 C2133 1.377 . S
C2132 C2134 1.384 . S
C2133 C2132 1.377 . S
C2133 C2139 1.390 . S
C2134 H2125 0.930 . S
C2134 C2132 1.384 . S
C2134 C2135 1.372 . S
C2135 C2134 1.372 . S
C2135 C2136 1.400 . S
C2135 C2140 1.490 . S
C2136 H2126 0.930 . S
C2136 C2135 1.400 . S
C2136 C2139 1.386 . S
H2137 C2153 0.930 . S
H2138 C2154 0.931 . S
C2139 H2127 0.929 . S
C2139 C2133 1.390 . S
C2139 C2136 1.386 . S
C2140 C2135 1.490 . S
C2140 C2142 1.395 . S
C2140 C2143 1.403 . S
H2141 C2147 0.930 . S
C2142 H2128 0.930 . S
C2142 C2140 1.395 . S
C2142 C2145 1.403 . S
C2143 C2140 1.403 . S
C2143 C2144 1.524 . S
C2143 C2147 1.400 . S
C2144 H2129 0.960 . S
C2144 H2130 0.960 . S
C2144 H2131 0.960 . S
C2144 C2143 1.524 . S
C2145 C2142 1.403 . S
C2145 C2146 1.392 . S
C2145 C2149 1.495 . S
C2146 C2145 1.392 . S
C2146 C2147 1.385 . S
C2146 C2148 1.478 . S
C2147 H2141 0.930 . S
C2147 C2143 1.400 . S
C2147 C2146 1.385 . S
C2148 C2146 1.478 . S
C2148 C2150 1.381 . S
C2148 C2154 1.383 . S
C2149 C2145 1.495 . S
C2149 H2155 0.959 . S
C2149 H2156 0.961 . S
C2149 H2157 0.960 . S
C2150 C2148 1.381 . S
C2150 C2151 1.394 . S
C2150 H2158 0.930 . S
C2151 C2150 1.394 . S
C2151 C2152 1.383 . S
C2151 H2159 0.929 . S
C2152 C2151 1.383 . S
C2152 C2153 1.377 . S
C2153 H2137 0.930 . S
C2153 C2152 1.377 . S
C2153 C2154 1.379 . S
C2154 H2138 0.931 . S
C2154 C2148 1.383 . S
C2154 C2153 1.379 . S
H2155 C2149 0.959 . S
H2156 C2149 0.961 . S
H2157 C2149 0.960 . S
H2158 C2150 0.930 . S
H2159 C2151 0.929 . S
H2160 C2168 0.929 . S
H2161 C2170 0.930 . S
H2162 C2172 0.930 . S
H2163 C2175 0.929 . S
H2164 C2178 0.930 . S
H2165 C2180 0.960 . S
H2166 C2180 0.960 . S
H2167 C2180 0.960 . S
C2168 H2160 0.929 . S
C2168 C2169 1.377 . S
C2168 C2170 1.384 . S
C2169 C2168 1.377 . S
C2169 C2175 1.390 . S
C2170 H2161 0.930 . S
C2170 C2168 1.384 . S
C2170 C2171 1.372 . S
C2171 C2170 1.372 . S
C2171 C2172 1.400 . S
C2171 C2176 1.490 . S
C2172 H2162 0.930 . S
C2172 C2171 1.400 . S
C2172 C2175 1.386 . S
H2173 C2189 0.930 . S
H2174 C2190 0.931 . S
C2175 H2163 0.929 . S
C2175 C2169 1.390 . S
C2175 C2172 1.386 . S
C2176 C2171 1.490 . S
C2176 C2178 1.395 . S
C2176 C2179 1.403 . S
H2177 C2183 0.930 . S
C2178 H2164 0.930 . S
C2178 C2176 1.395 . S
C2178 C2181 1.403 . S
C2179 C2176 1.403 . S
C2179 C2180 1.524 . S
C2179 C2183 1.400 . S
C2180 H2165 0.960 . S
C2180 H2166 0.960 . S
C2180 H2167 0.960 . S
C2180 C2179 1.524 . S
C2181 C2178 1.403 . S
C2181 C2182 1.392 . S
C2181 C2185 1.495 . S
C2182 C2181 1.392 . S
C2182 C2183 1.385 . S
C2182 C2184 1.478 . S
C2183 H2177 0.930 . S
C2183 C2179 1.400 . S
C2183 C2182 1.385 . S
C2184 C2182 1.478 . S
C2184 C2186 1.381 . S
C2184 C2190 1.383 . S
C2185 C2181 1.495 . S
C2185 H2191 0.959 . S
C2185 H2192 0.961 . S
C2185 H2193 0.960 . S
C2186 C2184 1.381 . S
C2186 C2187 1.394 . S
C2186 H2194 0.930 . S
C2187 C2186 1.394 . S
C2187 C2188 1.383 . S
C2187 H2195 0.929 . S
C2188 C2187 1.383 . S
C2188 C2189 1.377 . S
C2189 H2173 0.930 . S
C2189 C2188 1.377 . S
C2189 C2190 1.379 . S
C2190 H2174 0.931 . S
C2190 C2184 1.383 . S
C2190 C2189 1.379 . S
H2191 C2185 0.959 . S
H2192 C2185 0.961 . S
H2193 C2185 0.960 . S
H2194 C2186 0.930 . S
H2195 C2187 0.929 . S
H2196 C2204 0.929 . S
H2197 C2206 0.930 . S
H2198 C2208 0.930 . S
H2199 C2211 0.929 . S
H2200 C2214 0.930 . S
H2201 C2216 0.960 . S
H2202 C2216 0.960 . S
H2203 C2216 0.960 . S
C2204 H2196 0.929 . S
C2204 C2205 1.377 . S
C2204 C2206 1.384 . S
C2205 C2204 1.377 . S
C2205 C2211 1.390 . S
C2206 H2197 0.930 . S
C2206 C2204 1.384 . S
C2206 C2207 1.372 . S
C2207 C2206 1.372 . S
C2207 C2208 1.400 . S
C2207 C2212 1.490 . S
C2208 H2198 0.930 . S
C2208 C2207 1.400 . S
C2208 C2211 1.386 . S
H2209 C2225 0.930 . S
H2210 C2226 0.931 . S
C2211 H2199 0.929 . S
C2211 C2205 1.390 . S
C2211 C2208 1.386 . S
C2212 C2207 1.490 . S
C2212 C2214 1.395 . S
C2212 C2215 1.403 . S
H2213 C2219 0.930 . S
C2214 H2200 0.930 . S
C2214 C2212 1.395 . S
C2214 C2217 1.403 . S
C2215 C2212 1.403 . S
C2215 C2216 1.524 . S
C2215 C2219 1.400 . S
C2216 H2201 0.960 . S
C2216 H2202 0.960 . S
C2216 H2203 0.960 . S
C2216 C2215 1.524 . S
C2217 C2214 1.403 . S
C2217 C2218 1.392 . S
C2217 C2221 1.495 . S
C2218 C2217 1.392 . S
C2218 C2219 1.385 . S
C2218 C2220 1.478 . S
C2219 H2213 0.930 . S
C2219 C2215 1.400 . S
C2219 C2218 1.385 . S
C2220 C2218 1.478 . S
C2220 C2222 1.381 . S
C2220 C2226 1.383 . S
C2221 C2217 1.495 . S
C2221 H2227 0.959 . S
C2221 H2228 0.961 . S
C2221 H2229 0.960 . S
C2222 C2220 1.381 . S
C2222 C2223 1.394 . S
C2222 H2230 0.930 . S
C2223 C2222 1.394 . S
C2223 C2224 1.383 . S
C2223 H2231 0.929 . S
C2224 C2223 1.383 . S
C2224 C2225 1.377 . S
C2225 H2209 0.930 . S
C2225 C2224 1.377 . S
C2225 C2226 1.379 . S
C2226 H2210 0.931 . S
C2226 C2220 1.383 . S
C2226 C2225 1.379 . S
H2227 C2221 0.959 . S
H2228 C2221 0.961 . S
H2229 C2221 0.960 . S
H2230 C2222 0.930 . S
H2231 C2223 0.929 . S
H2232 C2240 0.929 . S
H2233 C2242 0.930 . S
H2234 C2244 0.930 . S
H2235 C2247 0.929 . S
H2236 C2250 0.930 . S
H2237 C2252 0.960 . S
H2238 C2252 0.960 . S
H2239 C2252 0.960 . S
C2240 H2232 0.929 . S
C2240 C2241 1.377 . S
C2240 C2242 1.384 . S
C2241 C2240 1.377 . S
C2241 C2247 1.390 . S
C2242 H2233 0.930 . S
C2242 C2240 1.384 . S
C2242 C2243 1.372 . S
C2243 C2242 1.372 . S
C2243 C2244 1.400 . S
C2243 C2248 1.490 . S
C2244 H2234 0.930 . S
C2244 C2243 1.400 . S
C2244 C2247 1.386 . S
H2245 C2261 0.930 . S
H2246 C2262 0.931 . S
C2247 H2235 0.929 . S
C2247 C2241 1.390 . S
C2247 C2244 1.386 . S
C2248 C2243 1.490 . S
C2248 C2250 1.395 . S
C2248 C2251 1.403 . S
H2249 C2255 0.930 . S
C2250 H2236 0.930 . S
C2250 C2248 1.395 . S
C2250 C2253 1.403 . S
C2251 C2248 1.403 . S
C2251 C2252 1.524 . S
C2251 C2255 1.400 . S
C2252 H2237 0.960 . S
C2252 H2238 0.960 . S
C2252 H2239 0.960 . S
C2252 C2251 1.524 . S
C2253 C2250 1.403 . S
C2253 C2254 1.392 . S
C2253 C2257 1.495 . S
C2254 C2253 1.392 . S
C2254 C2255 1.385 . S
C2254 C2256 1.478 . S
C2255 H2249 0.930 . S
C2255 C2251 1.400 . S
C2255 C2254 1.385 . S
C2256 C2254 1.478 . S
C2256 C2258 1.381 . S
C2256 C2262 1.383 . S
C2257 C2253 1.495 . S
C2257 H2263 0.959 . S
C2257 H2264 0.961 . S
C2257 H2265 0.960 . S
C2258 C2256 1.381 . S
C2258 C2259 1.394 . S
C2258 H2266 0.930 . S
C2259 C2258 1.394 . S
C2259 C2260 1.383 . S
C2259 H2267 0.929 . S
C2260 C2259 1.383 . S
C2260 C2261 1.377 . S
C2261 H2245 0.930 . S
C2261 C2260 1.377 . S
C2261 C2262 1.379 . S
C2262 H2246 0.931 . S
C2262 C2256 1.383 . S
C2262 C2261 1.379 . S
H2263 C2257 0.959 . S
H2264 C2257 0.961 . S
H2265 C2257 0.960 . S
H2266 C2258 0.930 . S
H2267 C2259 0.929 . S
H2268 C2276 0.929 . S
H2269 C2278 0.930 . S
H2270 C2280 0.930 . S
H2271 C2283 0.929 . S
H2272 C2286 0.930 . S
H2273 C2288 0.960 . S
H2274 C2288 0.960 . S
H2275 C2288 0.960 . S
C2276 H2268 0.929 . S
C2276 C2277 1.377 . S
C2276 C2278 1.384 . S
C2277 C2276 1.377 . S
C2277 C2283 1.390 . S
C2278 H2269 0.930 . S
C2278 C2276 1.384 . S
C2278 C2279 1.372 . S
C2279 C2278 1.372 . S
C2279 C2280 1.400 . S
C2279 C2284 1.490 . S
C2280 H2270 0.930 . S
C2280 C2279 1.400 . S
C2280 C2283 1.386 . S
H2281 C2297 0.930 . S
H2282 C2298 0.931 . S
C2283 H2271 0.929 . S
C2283 C2277 1.390 . S
C2283 C2280 1.386 . S
C2284 C2279 1.490 . S
C2284 C2286 1.395 . S
C2284 C2287 1.403 . S
H2285 C2291 0.930 . S
C2286 H2272 0.930 . S
C2286 C2284 1.395 . S
C2286 C2289 1.403 . S
C2287 C2284 1.403 . S
C2287 C2288 1.524 . S
C2287 C2291 1.400 . S
C2288 H2273 0.960 . S
C2288 H2274 0.960 . S
C2288 H2275 0.960 . S
C2288 C2287 1.524 . S
C2289 C2286 1.403 . S
C2289 C2290 1.392 . S
C2289 C2293 1.495 . S
C2290 C2289 1.392 . S
C2290 C2291 1.385 . S
C2290 C2292 1.478 . S
C2291 H2285 0.930 . S
C2291 C2287 1.400 . S
C2291 C2290 1.385 . S
C2292 C2290 1.478 . S
C2292 C2294 1.381 . S
C2292 C2298 1.383 . S
C2293 C2289 1.495 . S
C2293 H2299 0.959 . S
C2293 H2300 0.961 . S
C2293 H2301 0.960 . S
C2294 C2292 1.381 . S
C2294 C2295 1.394 . S
C2294 H2302 0.930 . S
C2295 C2294 1.394 . S
C2295 C2296 1.383 . S
C2295 H2303 0.929 . S
C2296 C2295 1.383 . S
C2296 C2297 1.377 . S
C2297 H2281 0.930 . S
C2297 C2296 1.377 . S
C2297 C2298 1.379 . S
C2298 H2282 0.931 . S
C2298 C2292 1.383 . S
C2298 C2297 1.379 . S
H2299 C2293 0.959 . S
H2300 C2293 0.961 . S
H2301 C2293 0.960 . S
H2302 C2294 0.930 . S
H2303 C2295 0.929 . S
C1017 C238 1.178 . S
C1036 C67 1.245 . S
C1053 C310 1.170 . S
C1072 C140 1.309 . S
C1089 C235 1.286 . S
C1108 C406 1.223 . S
C1125 C308 1.276 . S
C1144 C478 1.211 . S
C1161 C70 1.192 . S
C1180 C403 1.284 . S
C1197 C142 1.190 . S
C1216 C476 1.250 . S
C1233 C898 1.184 . S
C1252 C560 1.270 . S
C1269 C655 1.285 . S
C1288 C994 1.183 . S
C1305 C728 1.280 . S
C1324 C562 1.175 . S
C1341 C823 1.286 . S
C1360 C658 1.189 . S
C1377 C896 1.282 . S
C1396 C730 1.156 . S
C1413 C826 1.192 . S
C1432 C991 1.283 . S
C1449 C326 1.977 . S
C1468 C63 1.957 . S
C1485 C158 1.973 . S
C1504 C399 1.944 . S
C1521 C231 1.976 . S
C1540 C494 1.971 . S
C1557 C578 1.969 . S
C1576 C819 1.956 . S
C1593 C651 1.976 . S
C1612 C914 1.946 . S
C1629 C746 1.971 . S
C1648 C987 1.950 . S
C1665 C662 2.153 . S
C1684 C74 2.137 . S
C1701 C147 2.153 . S
C1720 C735 2.138 . S
C1737 C830 2.146 . S
C1756 C242 2.168 . S
C1773 C315 2.151 . S
C1792 C903 2.164 . S
C1809 C410 2.153 . S
C1828 C998 2.138 . S
C1845 C567 2.155 . S
C1864 C483 2.153 . S
C1881 C226 1.314 . S
C1900 C56 1.380 . S
C1917 C151 1.409 . S
C1936 C322 1.322 . S
C1953 C224 1.407 . S
C1972 C394 1.347 . S
C1989 C319 1.406 . S
C2008 C490 1.295 . S
C2025 C58 1.305 . S
C2044 C392 1.407 . S
C2061 C154 1.315 . S
C2080 C487 1.443 . S
C2097 C910 1.300 . S
C2116 C571 1.375 . S
C2133 C644 1.405 . S
C2152 C982 1.345 . S
C2169 C739 1.415 . S
C2188 C574 1.289 . S
C2205 C646 1.297 . S
C2224 C812 1.438 . S
C2241 C907 1.405 . S
C2260 C742 1.276 . S
C2277 C980 1.415 . S
C2296 C814 1.271 . S
