# Generated by pormake.
# Topology ull, (4)-cn, num edge types: 1
# Building blocks:
#     Node 0, Type 0, BuildingBlock: UXUYUI_clean_sbu_0, # of connection points: 4
#     Node 1, Type 0, BuildingBlock: UXUYUI_clean_sbu_0, # of connection points: 4
#     Node 2, Type 0, BuildingBlock: UXUYUI_clean_sbu_0, # of connection points: 4
#     Node 3, Type 0, BuildingBlock: UXUYUI_clean_sbu_0, # of connection points: 4
#     Node 4, Type 0, BuildingBlock: UXUYUI_clean_sbu_0, # of connection points: 4
#     Node 5, Type 0, BuildingBlock: UXUYUI_clean_sbu_0, # of connection points: 4
#     Node 6, Type 0, BuildingBlock: UXUYUI_clean_sbu_0, # of connection points: 4
#     Node 7, Type 0, BuildingBlock: UXUYUI_clean_sbu_0, # of connection points: 4
#     Node 8, Type 0, BuildingBlock: UXUYUI_clean_sbu_0, # of connection points: 4
#     Node 9, Type 0, BuildingBlock: UXUYUI_clean_sbu_0, # of connection points: 4
#     Node 10, Type 0, BuildingBlock: UXUYUI_clean_sbu_0, # of connection points: 4
#     Node 11, Type 0, BuildingBlock: UXUYUI_clean_sbu_0, # of connection points: 4
#     Node 12, Type 0, BuildingBlock: UXUYUI_clean_sbu_0, # of connection points: 4
#     Node 13, Type 0, BuildingBlock: UXUYUI_clean_sbu_0, # of connection points: 4
#     Node 14, Type 0, BuildingBlock: UXUYUI_clean_sbu_0, # of connection points: 4
#     Node 15, Type 0, BuildingBlock: UXUYUI_clean_sbu_0, # of connection points: 4
#     Node 16, Type 0, BuildingBlock: UXUYUI_clean_sbu_0, # of connection points: 4
#     Node 17, Type 0, BuildingBlock: UXUYUI_clean_sbu_0, # of connection points: 4
#     Node 18, Type 0, BuildingBlock: UXUYUI_clean_sbu_0, # of connection points: 4
#     Node 19, Type 0, BuildingBlock: UXUYUI_clean_sbu_0, # of connection points: 4
#     Node 20, Type 0, BuildingBlock: UXUYUI_clean_sbu_0, # of connection points: 4
#     Node 21, Type 0, BuildingBlock: UXUYUI_clean_sbu_0, # of connection points: 4
#     Node 22, Type 0, BuildingBlock: UXUYUI_clean_sbu_0, # of connection points: 4
#     Node 23, Type 0, BuildingBlock: UXUYUI_clean_sbu_0, # of connection points: 4
#     Node 24, Type 0, BuildingBlock: UXUYUI_clean_sbu_0, # of connection points: 4
#     Node 25, Type 0, BuildingBlock: UXUYUI_clean_sbu_0, # of connection points: 4
#     Node 26, Type 0, BuildingBlock: UXUYUI_clean_sbu_0, # of connection points: 4
#     Node 27, Type 0, BuildingBlock: UXUYUI_clean_sbu_0, # of connection points: 4
#     Node 28, Type 0, BuildingBlock: UXUYUI_clean_sbu_0, # of connection points: 4
#     Node 29, Type 0, BuildingBlock: UXUYUI_clean_sbu_0, # of connection points: 4
#     Node 30, Type 0, BuildingBlock: UXUYUI_clean_sbu_0, # of connection points: 4
#     Node 31, Type 0, BuildingBlock: UXUYUI_clean_sbu_0, # of connection points: 4
#     Node 32, Type 0, BuildingBlock: UXUYUI_clean_sbu_0, # of connection points: 4
#     Node 33, Type 0, BuildingBlock: UXUYUI_clean_sbu_0, # of connection points: 4
#     Node 34, Type 0, BuildingBlock: UXUYUI_clean_sbu_0, # of connection points: 4
#     Node 35, Type 0, BuildingBlock: UXUYUI_clean_sbu_0, # of connection points: 4
#     Node 36, Type 0, BuildingBlock: UXUYUI_clean_sbu_0, # of connection points: 4
#     Node 37, Type 0, BuildingBlock: UXUYUI_clean_sbu_0, # of connection points: 4
#     Node 38, Type 0, BuildingBlock: UXUYUI_clean_sbu_0, # of connection points: 4
#     Node 39, Type 0, BuildingBlock: UXUYUI_clean_sbu_0, # of connection points: 4
#     Node 40, Type 0, BuildingBlock: UXUYUI_clean_sbu_0, # of connection points: 4
#     Node 41, Type 0, BuildingBlock: UXUYUI_clean_sbu_0, # of connection points: 4
#     Node 42, Type 0, BuildingBlock: UXUYUI_clean_sbu_0, # of connection points: 4
#     Node 43, Type 0, BuildingBlock: UXUYUI_clean_sbu_0, # of connection points: 4
#     Node 44, Type 0, BuildingBlock: UXUYUI_clean_sbu_0, # of connection points: 4
#     Node 45, Type 0, BuildingBlock: UXUYUI_clean_sbu_0, # of connection points: 4
#     Node 46, Type 0, BuildingBlock: UXUYUI_clean_sbu_0, # of connection points: 4
#     Node 47, Type 0, BuildingBlock: UXUYUI_clean_sbu_0, # of connection points: 4
#     Edge 48, Type (0, 0), None
#     Edge 49, Type (0, 0), None
#     Edge 50, Type (0, 0), None
#     Edge 51, Type (0, 0), None
#     Edge 52, Type (0, 0), None
#     Edge 53, Type (0, 0), None
#     Edge 54, Type (0, 0), None
#     Edge 55, Type (0, 0), None
#     Edge 56, Type (0, 0), None
#     Edge 57, Type (0, 0), None
#     Edge 58, Type (0, 0), None
#     Edge 59, Type (0, 0), None
#     Edge 60, Type (0, 0), None
#     Edge 61, Type (0, 0), None
#     Edge 62, Type (0, 0), None
#     Edge 63, Type (0, 0), None
#     Edge 64, Type (0, 0), None
#     Edge 65, Type (0, 0), None
#     Edge 66, Type (0, 0), None
#     Edge 67, Type (0, 0), None
#     Edge 68, Type (0, 0), None
#     Edge 69, Type (0, 0), None
#     Edge 70, Type (0, 0), None
#     Edge 71, Type (0, 0), None
#     Edge 72, Type (0, 0), None
#     Edge 73, Type (0, 0), None
#     Edge 74, Type (0, 0), None
#     Edge 75, Type (0, 0), None
#     Edge 76, Type (0, 0), None
#     Edge 77, Type (0, 0), None
#     Edge 78, Type (0, 0), None
#     Edge 79, Type (0, 0), None
#     Edge 80, Type (0, 0), None
#     Edge 81, Type (0, 0), None
#     Edge 82, Type (0, 0), None
#     Edge 83, Type (0, 0), None
#     Edge 84, Type (0, 0), None
#     Edge 85, Type (0, 0), None
#     Edge 86, Type (0, 0), None
#     Edge 87, Type (0, 0), None
#     Edge 88, Type (0, 0), None
#     Edge 89, Type (0, 0), None
#     Edge 90, Type (0, 0), None
#     Edge 91, Type (0, 0), None
#     Edge 92, Type (0, 0), None
#     Edge 93, Type (0, 0), None
#     Edge 94, Type (0, 0), None
#     Edge 95, Type (0, 0), None
#     Edge 96, Type (0, 0), None
#     Edge 97, Type (0, 0), None
#     Edge 98, Type (0, 0), None
#     Edge 99, Type (0, 0), None
#     Edge 100, Type (0, 0), None
#     Edge 101, Type (0, 0), None
#     Edge 102, Type (0, 0), None
#     Edge 103, Type (0, 0), None
#     Edge 104, Type (0, 0), None
#     Edge 105, Type (0, 0), None
#     Edge 106, Type (0, 0), None
#     Edge 107, Type (0, 0), None
#     Edge 108, Type (0, 0), None
#     Edge 109, Type (0, 0), None
#     Edge 110, Type (0, 0), None
#     Edge 111, Type (0, 0), None
#     Edge 112, Type (0, 0), None
#     Edge 113, Type (0, 0), None
#     Edge 114, Type (0, 0), None
#     Edge 115, Type (0, 0), None
#     Edge 116, Type (0, 0), None
#     Edge 117, Type (0, 0), None
#     Edge 118, Type (0, 0), None
#     Edge 119, Type (0, 0), None
#     Edge 120, Type (0, 0), None
#     Edge 121, Type (0, 0), None
#     Edge 122, Type (0, 0), None
#     Edge 123, Type (0, 0), None
#     Edge 124, Type (0, 0), None
#     Edge 125, Type (0, 0), None
#     Edge 126, Type (0, 0), None
#     Edge 127, Type (0, 0), None
#     Edge 128, Type (0, 0), None
#     Edge 129, Type (0, 0), None
#     Edge 130, Type (0, 0), None
#     Edge 131, Type (0, 0), None
#     Edge 132, Type (0, 0), None
#     Edge 133, Type (0, 0), None
#     Edge 134, Type (0, 0), None
#     Edge 135, Type (0, 0), None
#     Edge 136, Type (0, 0), None
#     Edge 137, Type (0, 0), None
#     Edge 138, Type (0, 0), None
#     Edge 139, Type (0, 0), None
#     Edge 140, Type (0, 0), None
#     Edge 141, Type (0, 0), None
#     Edge 142, Type (0, 0), None
#     Edge 143, Type (0, 0), None
# Relax obj value: 0.245
# Max RMSD: 0.251
# Mean RMSD: 0.251
data_MOF--net-ull--node1-UXUYUI_clean_sbu_0--edge1-none
_symmetry_space_group_name_H-M    P1
_symmetry_Int_Tables_number       1
_symmetry_cell_setting            triclinic
loop_
_symmetry_equiv_pos_as_xyz
'x, y, z'
_cell_length_a     55.127161
_cell_length_b     55.123139
_cell_length_c     55.106064
_cell_angle_alpha  90.001102
_cell_angle_beta   90.002804
_cell_angle_gamma 90.000117
loop_
_atom_site_label
_atom_site_type_symbol
_atom_site_fract_x
_atom_site_fract_y
_atom_site_fract_z
_atom_type_partial_charge
Li0 Li 0.03554 0.34942 0.15801 0.0
Li1 Li 0.01948 0.37595 0.18987 0.0
Li2 Li 0.01293 0.33043 0.19124 0.0
Li3 Li 0.99051 0.35507 0.16194 0.0
C4 C 0.06823 0.34616 0.19378 0.0
N5 N 0.11799 0.34006 0.19441 0.0
C6 C 0.08352 0.36625 0.1961 0.0
C7 C 0.07826 0.32293 0.19213 0.0
C8 C 0.10863 0.36281 0.19629 0.0
C9 C 0.10345 0.32023 0.19239 0.0
C10 C 0.01006 0.40248 0.14677 0.0
C11 C 0.98156 0.43563 0.14513 0.0
N12 N 0.99766 0.44867 0.13173 0.0
C13 C 0.02621 0.41609 0.13272 0.0
C14 C 0.98746 0.41222 0.15282 0.0
C15 C 0.01965 0.43945 0.1254 0.0
C16 C 0.06266 0.32993 0.11833 0.0
N17 N 0.06146 0.34801 0.13506 0.0
C18 C 0.09473 0.36865 0.11629 0.0
C19 C 0.07711 0.36706 0.13444 0.0
C20 C 0.09606 0.35058 0.09837 0.0
C21 C 0.07996 0.33082 0.09979 0.0
H22 H 0.04971 0.31522 0.1189 0.0
H23 H 0.07534 0.38153 0.14757 0.0
C24 C 0.02586 0.40145 0.23369 0.0
N25 N 0.02851 0.40328 0.20923 0.0
C26 C 0.03748 0.41794 0.2491 0.0
C27 C 0.05329 0.43859 0.21382 0.0
C28 C 0.04138 0.42174 0.19911 0.0
C29 C 0.05218 0.43629 0.2392 0.0
H30 H 0.01602 0.38625 0.24127 0.0
H31 H 0.04395 0.42239 0.17972 0.0
C32 C 0.00616 0.30041 0.15332 0.0
N33 N 0.99973 0.25085 0.14941 0.0
C34 C 0.98314 0.29087 0.14862 0.0
C35 C 0.02596 0.28476 0.15567 0.0
C36 C 0.98025 0.26576 0.1468 0.0
C37 C 0.02233 0.25976 0.15374 0.0
C38 C 0.96828 0.36508 0.20803 0.0
C39 C 0.95095 0.34833 0.21591 0.0
C40 C 0.96411 0.38988 0.21138 0.0
C41 C 0.92941 0.35669 0.22634 0.0
C42 C 0.94237 0.39752 0.22193 0.0
N43 N 0.92559 0.38091 0.22909 0.0
C44 C 0.02673 0.30017 0.23051 0.0
C45 C 0.98936 0.28947 0.2122 0.0
C46 C 0.02371 0.28218 0.24813 0.0
N47 N 0.00962 0.30354 0.21307 0.0
C48 C 0.98564 0.2712 0.2294 0.0
C49 C 0.00279 0.26756 0.24791 0.0
H50 H 0.04245 0.31187 0.23113 0.0
H51 H 0.97569 0.29289 0.19859 0.0
C52 C 0.96343 0.3652 0.12006 0.0
N53 N 0.96136 0.35629 0.14297 0.0
C54 C 0.94398 0.36372 0.1039 0.0
C55 C 0.92043 0.344 0.13515 0.0
C56 C 0.94036 0.34594 0.15077 0.0
C57 C 0.9222 0.35262 0.11119 0.0
H58 H 0.98048 0.37282 0.11408 0.0
H59 H 0.93939 0.33813 0.16869 0.0
O60 O 0.0436 0.34919 0.19336 0.0
O61 O 0.01623 0.37956 0.15407 0.0
O62 O 0.00931 0.32494 0.15543 0.0
O63 O 0.98969 0.35719 0.19822 0.0
H64 H 0.07612 0.38434 0.19754 0.0
H65 H 0.06672 0.30714 0.19081 0.0
H66 H 0.12066 0.37822 0.19791 0.0
H67 H 0.11144 0.30235 0.19104 0.0
H68 H 0.96413 0.44339 0.14973 0.0
H69 H 0.04367 0.40874 0.12763 0.0
H70 H 0.97448 0.4017 0.16302 0.0
H71 H 0.03204 0.45024 0.11467 0.0
H72 H 0.10649 0.38437 0.11573 0.0
H73 H 0.08047 0.31636 0.0865 0.0
H74 H 0.03638 0.41522 0.26853 0.0
H75 H 0.06432 0.4525 0.2054 0.0
H76 H 0.96765 0.3027 0.14657 0.0
H77 H 0.04394 0.29185 0.15889 0.0
H78 H 0.96251 0.25813 0.14332 0.0
H79 H 0.03748 0.24744 0.15563 0.0
H80 H 0.954 0.32907 0.21383 0.0
H81 H 0.97758 0.40311 0.20607 0.0
H82 H 0.91576 0.34391 0.2323 0.0
H83 H 0.93887 0.41666 0.22452 0.0
H84 H 0.03753 0.27988 0.26191 0.0
H85 H 0.96908 0.26065 0.22872 0.0
H86 H 0.94611 0.37098 0.08576 0.0
H87 H 0.90416 0.33499 0.14148 0.0
Li88 Li 0.64464 0.99012 0.16197 0.0
Li89 Li 0.66911 0.01282 0.1913 0.0
Li90 Li 0.62347 0.01875 0.19006 0.0
Li91 Li 0.64954 0.03508 0.1583 0.0
C92 C 0.63581 0.96791 0.20897 0.0
N93 N 0.62209 0.9255 0.232 0.0
C94 C 0.65334 0.95121 0.2165 0.0
C95 C 0.61131 0.96324 0.21363 0.0
C96 C 0.64604 0.92981 0.22795 0.0
C97 C 0.60474 0.94165 0.22517 0.0
C98 C 0.69896 0.00603 0.15331 0.0
C99 C 0.73982 0.02157 0.15519 0.0
N100 N 0.74847 0.9992 0.14939 0.0
C101 C 0.70824 0.98325 0.14715 0.0
C102 C 0.71485 0.0254 0.15716 0.0
C103 C 0.73333 0.98015 0.14533 0.0
C104 C 0.6357 0.96327 0.11981 0.0
N105 N 0.64392 0.96102 0.14295 0.0
C106 C 0.65636 0.92012 0.13521 0.0
C107 C 0.65397 0.93993 0.15092 0.0
C108 C 0.64851 0.92211 0.11101 0.0
C109 C 0.63765 0.94395 0.10354 0.0
H110 H 0.62826 0.98038 0.11375 0.0
H111 H 0.66118 0.9388 0.16907 0.0
C112 C 0.69901 0.02649 0.23088 0.0
N113 N 0.69613 0.00973 0.21301 0.0
C114 C 0.71712 0.02356 0.2484 0.0
C115 C 0.7292 0.98633 0.22871 0.0
C116 C 0.71082 0.98995 0.2116 0.0
C117 C 0.73234 0.00309 0.24766 0.0
H118 H 0.68686 0.04185 0.23188 0.0
H119 H 0.70783 0.97656 0.19761 0.0
C120 C 0.59691 0.00752 0.14774 0.0
N121 N 0.55133 0.99156 0.13429 0.0
C122 C 0.58198 0.02218 0.13341 0.0
C123 C 0.5888 0.98461 0.15489 0.0
C124 C 0.55894 0.01384 0.12691 0.0
C125 C 0.56567 0.97689 0.14799 0.0
C126 C 0.65247 0.0679 0.19323 0.0
C127 C 0.63199 0.08284 0.19374 0.0
C128 C 0.67555 0.07834 0.1924 0.0
C129 C 0.63493 0.108 0.19302 0.0
C130 C 0.67775 0.10358 0.19171 0.0
N131 N 0.65757 0.11777 0.192 0.0
C132 C 0.59835 0.02512 0.23403 0.0
C133 C 0.57747 0.03993 0.1995 0.0
C134 C 0.58194 0.03678 0.24948 0.0
N135 N 0.59619 0.02742 0.20957 0.0
C136 C 0.5607 0.05191 0.21425 0.0
C137 C 0.56335 0.05119 0.2396 0.0
H138 H 0.61378 0.01559 0.24156 0.0
H139 H 0.57656 0.04222 0.18007 0.0
C140 C 0.66991 0.06449 0.12066 0.0
N141 N 0.65051 0.06113 0.13548 0.0
C142 C 0.66902 0.08189 0.10223 0.0
C143 C 0.6284 0.09235 0.11492 0.0
C144 C 0.63009 0.07478 0.13312 0.0
C145 C 0.64787 0.09581 0.09885 0.0
H146 H 0.6858 0.05319 0.12267 0.0
H147 H 0.61479 0.07149 0.14495 0.0
O148 O 0.64268 0.98923 0.19821 0.0
O149 O 0.67446 0.00935 0.15544 0.0
O150 O 0.61953 0.01546 0.15426 0.0
O151 O 0.64993 0.04321 0.19361 0.0
H152 H 0.67239 0.95463 0.21337 0.0
H153 H 0.59749 0.9762 0.20856 0.0
H154 H 0.65943 0.91665 0.23367 0.0
H155 H 0.58584 0.93778 0.22879 0.0
H156 H 0.75232 0.03639 0.15826 0.0
H157 H 0.69624 0.96809 0.14391 0.0
H158 H 0.70797 0.04319 0.16165 0.0
H159 H 0.74077 0.96258 0.14071 0.0
H160 H 0.66512 0.90377 0.14169 0.0
H161 H 0.63095 0.94623 0.08521 0.0
H162 H 0.71902 0.0371 0.26251 0.0
H163 H 0.74022 0.97011 0.22759 0.0
H164 H 0.58805 0.03987 0.12746 0.0
H165 H 0.60034 0.97276 0.16535 0.0
H166 H 0.54714 0.02507 0.11596 0.0
H167 H 0.55917 0.95919 0.15344 0.0
H168 H 0.61399 0.07511 0.19445 0.0
H169 H 0.69161 0.0671 0.1924 0.0
H170 H 0.61922 0.11976 0.19325 0.0
H171 H 0.69551 0.11189 0.19098 0.0
H172 H 0.58492 0.036 0.26889 0.0
H173 H 0.5466 0.06273 0.20586 0.0
H174 H 0.68462 0.08414 0.09051 0.0
H175 H 0.61165 0.10241 0.11289 0.0
Li176 Li 0.0116 0.64571 0.16207 0.0
Li177 Li 0.98885 0.66998 0.19152 0.0
Li178 Li 0.98292 0.62436 0.18995 0.0
Li179 Li 0.96665 0.65065 0.15833 0.0
C180 C 0.03375 0.63643 0.20893 0.0
N181 N 0.07619 0.62229 0.23165 0.0
C182 C 0.0505 0.65382 0.21668 0.0
C183 C 0.03838 0.61186 0.21322 0.0
C184 C 0.07192 0.64631 0.22797 0.0
C185 C 0.05999 0.60507 0.2246 0.0
C186 C 0.99578 0.7001 0.15377 0.0
C187 C 0.98029 0.74098 0.15569 0.0
N188 N 0.00274 0.74962 0.15023 0.0
C189 C 0.01865 0.70938 0.14795 0.0
C190 C 0.97639 0.716 0.15746 0.0
C191 C 0.02182 0.73447 0.14632 0.0
C192 C 0.03844 0.63708 0.11987 0.0
N193 N 0.04072 0.64509 0.14309 0.0
C194 C 0.08168 0.6574 0.13547 0.0
C195 C 0.06185 0.65497 0.15114 0.0
C196 C 0.07967 0.64975 0.1112 0.0
C197 C 0.05778 0.63906 0.10364 0.0
H198 H 0.0213 0.62975 0.11374 0.0
H199 H 0.06301 0.66203 0.16936 0.0
C200 C 0.97502 0.69971 0.2312 0.0
N201 N 0.99189 0.69685 0.21344 0.0
C202 C 0.97789 0.71772 0.24883 0.0
C203 C 0.01533 0.72972 0.22949 0.0
C204 C 0.01175 0.71145 0.21226 0.0
C205 C 0.99843 0.73286 0.24832 0.0
H206 H 0.9596 0.68762 0.23202 0.0
H207 H 0.02523 0.70848 0.19836 0.0
C208 C 0.99411 0.59806 0.14746 0.0
N209 N 0.00985 0.5525 0.13366 0.0
C210 C 0.97932 0.58324 0.13314 0.0
C211 C 0.01704 0.58984 0.15442 0.0
C212 C 0.98755 0.56022 0.12646 0.0
C213 C 0.02465 0.56673 0.14734 0.0
C214 C 0.93377 0.65349 0.19321 0.0
C215 C 0.91871 0.6331 0.19369 0.0
C216 C 0.92348 0.67664 0.19238 0.0
C217 C 0.89357 0.63621 0.19292 0.0
C218 C 0.89826 0.67901 0.19163 0.0
N219 N 0.88395 0.65891 0.19189 0.0
C220 C 0.97671 0.59874 0.23369 0.0
C221 C 0.96137 0.5785 0.199 0.0
C222 C 0.96498 0.58226 0.24901 0.0
N223 N 0.97418 0.59694 0.20922 0.0
C224 C 0.94929 0.56169 0.21362 0.0
C225 C 0.95025 0.564 0.239 0.0
H226 H 0.98648 0.61394 0.24134 0.0
H227 H 0.95889 0.5779 0.17958 0.0
C228 C 0.93736 0.67114 0.12065 0.0
N229 N 0.94064 0.65173 0.13548 0.0
C230 C 0.91999 0.67029 0.10218 0.0
C231 C 0.90943 0.62968 0.11484 0.0
C232 C 0.92696 0.63134 0.13308 0.0
C233 C 0.90604 0.64916 0.09877 0.0
H234 H 0.94868 0.68701 0.12269 0.0
H235 H 0.93019 0.61604 0.14492 0.0
O236 O 0.01243 0.6435 0.19831 0.0
O237 O 0.99239 0.67559 0.1557 0.0
O238 O 0.98628 0.62067 0.15414 0.0
O239 O 0.95845 0.65079 0.19364 0.0
H240 H 0.04711 0.67292 0.21385 0.0
H241 H 0.02538 0.59814 0.20798 0.0
H242 H 0.08511 0.65959 0.23386 0.0
H243 H 0.06383 0.58611 0.22793 0.0
H244 H 0.96546 0.75349 0.15863 0.0
H245 H 0.03382 0.69737 0.14484 0.0
H246 H 0.95853 0.70913 0.16166 0.0
H247 H 0.03945 0.7419 0.14197 0.0
H248 H 0.09806 0.66602 0.14203 0.0
H249 H 0.05548 0.63252 0.08525 0.0
H250 H 0.96424 0.71962 0.26284 0.0
H251 H 0.0316 0.74068 0.22855 0.0
H252 H 0.96162 0.58939 0.12732 0.0
H253 H 0.029 0.6013 0.16485 0.0
H254 H 0.97623 0.5485 0.11552 0.0
H255 H 0.04237 0.56015 0.15265 0.0
H256 H 0.92631 0.61506 0.1944 0.0
H257 H 0.93483 0.69263 0.19241 0.0
H258 H 0.88171 0.62058 0.19311 0.0
H259 H 0.89007 0.69682 0.1909 0.0
H260 H 0.96594 0.58496 0.26846 0.0
H261 H 0.9382 0.54786 0.20514 0.0
H262 H 0.91779 0.68591 0.09047 0.0
H263 H 0.89937 0.61294 0.11278 0.0
Li264 Li 0.35113 0.9662 0.16021 0.0
Li265 Li 0.37765 0.98261 0.19199 0.0
Li266 Li 0.33196 0.98894 0.19295 0.0
Li267 Li 0.35644 0.0103 0.16341 0.0
C268 C 0.34848 0.93362 0.19455 0.0
N269 N 0.34356 0.88382 0.19152 0.0
C270 C 0.36903 0.91879 0.19394 0.0
C271 C 0.32542 0.92311 0.19387 0.0
C272 C 0.36617 0.89366 0.19234 0.0
C273 C 0.32331 0.8979 0.19227 0.0
C274 C 0.40241 0.99621 0.14892 0.0
C275 C 0.43513 0.02441 0.15573 0.0
N276 N 0.44422 0.01904 0.13342 0.0
C277 C 0.41203 0.99097 0.12606 0.0
C278 C 0.414 0.01306 0.16389 0.0
C279 C 0.43321 0.0027 0.11856 0.0
C280 C 0.33048 0.93512 0.12382 0.0
N281 N 0.35048 0.94012 0.13732 0.0
C282 C 0.37371 0.91086 0.11515 0.0
C283 C 0.3718 0.92831 0.13346 0.0
C284 C 0.35354 0.90571 0.10046 0.0
C285 C 0.33158 0.91782 0.10529 0.0
H286 H 0.31388 0.94505 0.12688 0.0
H287 H 0.38757 0.933 0.14416 0.0
C288 C 0.40357 0.9765 0.23573 0.0
N289 N 0.40509 0.97406 0.21123 0.0
C290 C 0.42043 0.96498 0.25079 0.0
C291 C 0.44071 0.94962 0.21506 0.0
C292 C 0.42357 0.96157 0.2007 0.0
C293 C 0.43875 0.95053 0.24048 0.0
H294 H 0.38834 0.98606 0.2436 0.0
H295 H 0.42401 0.95941 0.1812 0.0
C296 C 0.30154 0.99519 0.1563 0.0
N297 N 0.25187 0.00198 0.15483 0.0
C298 C 0.29192 0.01827 0.15198 0.0
C299 C 0.28586 0.97557 0.15976 0.0
C300 C 0.26677 0.02133 0.15132 0.0
C301 C 0.26082 0.97938 0.15901 0.0
C302 C 0.36043 0.03609 0.20669 0.0
C303 C 0.34219 0.05261 0.20065 0.0
C304 C 0.3805 0.04391 0.22009 0.0
C305 C 0.34431 0.07674 0.20812 0.0
C306 C 0.38195 0.06818 0.22725 0.0
N307 N 0.36398 0.08396 0.22116 0.0
C308 C 0.30236 0.97498 0.2328 0.0
C309 C 0.29058 0.01199 0.2145 0.0
C310 C 0.28437 0.97759 0.25053 0.0
N311 N 0.30517 0.99209 0.21525 0.0
C312 C 0.27235 0.01529 0.23178 0.0
C313 C 0.26918 0.9981 0.25031 0.0
H314 H 0.31442 0.95953 0.23336 0.0
H315 H 0.29332 0.02565 0.20081 0.0
C316 C 0.34588 0.03715 0.12246 0.0
N317 N 0.35857 0.03883 0.14354 0.0
C318 C 0.34418 0.05697 0.10684 0.0
C319 C 0.36984 0.07972 0.13412 0.0
C320 C 0.371 0.05937 0.14932 0.0
C321 C 0.35593 0.07879 0.11272 0.0
H322 H 0.33672 0.02041 0.11793 0.0
H323 H 0.38157 0.06013 0.16582 0.0
O324 O 0.35092 0.9583 0.19563 0.0
O325 O 0.38158 0.98503 0.15641 0.0
O326 O 0.32614 0.99182 0.15715 0.0
O327 O 0.35875 0.01238 0.19959 0.0
H328 H 0.387 0.92659 0.19443 0.0
H329 H 0.30932 0.93427 0.19463 0.0
H330 H 0.38193 0.88198 0.19169 0.0
H331 H 0.30557 0.88953 0.19165 0.0
H332 H 0.44429 0.03751 0.16712 0.0
H333 H 0.4032 0.97798 0.11426 0.0
H334 H 0.40676 0.01734 0.1816 0.0
H335 H 0.44088 0.99882 0.10091 0.0
H336 H 0.39107 0.90225 0.11192 0.0
H337 H 0.31548 0.91425 0.09461 0.0
H338 H 0.41803 0.96587 0.27027 0.0
H339 H 0.45458 0.93874 0.20639 0.0
H340 H 0.30368 0.03378 0.14959 0.0
H341 H 0.29294 0.95761 0.1631 0.0
H342 H 0.2591 0.03911 0.14813 0.0
H343 H 0.2485 0.96435 0.16175 0.0
H344 H 0.32691 0.04705 0.18972 0.0
H345 H 0.39479 0.03134 0.22493 0.0
H346 H 0.33041 0.08976 0.2034 0.0
H347 H 0.39738 0.07448 0.23763 0.0
H348 H 0.28248 0.96373 0.26433 0.0
H349 H 0.26138 0.03157 0.23107 0.0
H350 H 0.33388 0.05512 0.09021 0.0
H351 H 0.37934 0.09611 0.1393 0.0
Li352 Li 0.01244 0.67245 0.81028 0.0
Li353 Li 0.99125 0.64775 0.83973 0.0
Li354 Li 0.03533 0.65366 0.84318 0.0
Li355 Li 0.0192 0.62675 0.81129 0.0
C356 C 0.00542 0.70277 0.84703 0.0
N357 N 0.99748 0.75225 0.84891 0.0
C358 C 0.98189 0.71183 0.84974 0.0
C359 C 0.02492 0.71889 0.84547 0.0
C360 C 0.97824 0.73689 0.85062 0.0
C361 C 0.02053 0.74384 0.84638 0.0
C362 C 0.96562 0.64261 0.79656 0.0
C363 C 0.93432 0.61931 0.77675 0.0
N364 N 0.91791 0.63688 0.7823 0.0
C365 C 0.94846 0.66044 0.80203 0.0
C366 C 0.95853 0.62187 0.7838 0.0
C367 C 0.92442 0.6572 0.79469 0.0
C368 C 0.02722 0.70274 0.77133 0.0
N369 N 0.00938 0.69923 0.78801 0.0
C370 C 0.98584 0.73126 0.77044 0.0
C371 C 0.98897 0.7131 0.78785 0.0
C372 C 0.00378 0.73509 0.75276 0.0
C373 C 0.02482 0.72067 0.75353 0.0
H374 H 0.0431 0.69125 0.77148 0.0
H375 H 0.97477 0.70981 0.80085 0.0
C376 C 0.96397 0.65863 0.88037 0.0
N377 N 0.96265 0.64548 0.85955 0.0
C378 C 0.94405 0.66026 0.89587 0.0
C379 C 0.92193 0.63364 0.86901 0.0
C380 C 0.94238 0.63254 0.85394 0.0
C381 C 0.92249 0.64797 0.89014 0.0
H382 H 0.9805 0.66821 0.8848 0.0
H383 H 0.94189 0.62162 0.83766 0.0
C384 C 0.06788 0.65661 0.80825 0.0
N385 N 0.11765 0.66237 0.80993 0.0
C386 C 0.08313 0.63647 0.80608 0.0
C387 C 0.07795 0.67971 0.81099 0.0
C388 C 0.10824 0.63975 0.80705 0.0
C389 C 0.10315 0.68224 0.81188 0.0
C390 C 0.00632 0.60199 0.85481 0.0
C391 C 0.0125 0.59251 0.87749 0.0
C392 C 0.98933 0.58997 0.84035 0.0
C393 C 0.00154 0.57104 0.88534 0.0
C394 C 0.97874 0.56858 0.84885 0.0
N395 N 0.98502 0.55963 0.87098 0.0
C396 C 0.06369 0.67346 0.882 0.0
C397 C 0.0757 0.63478 0.8676 0.0
C398 C 0.08097 0.67233 0.90055 0.0
N399 N 0.06132 0.65477 0.86609 0.0
C400 C 0.09329 0.63294 0.88576 0.0
C401 C 0.09583 0.65169 0.90283 0.0
H402 H 0.05165 0.68888 0.88082 0.0
H403 H 0.07292 0.61986 0.85516 0.0
C404 C 0.02578 0.60065 0.76771 0.0
N405 N 0.02815 0.5993 0.79223 0.0
C406 C 0.03749 0.58378 0.7528 0.0
C407 C 0.0529 0.56386 0.7887 0.0
C408 C 0.04078 0.58101 0.80291 0.0
C409 C 0.05204 0.56563 0.76326 0.0
H410 H 0.01612 0.61574 0.75971 0.0
H411 H 0.0429 0.58072 0.82242 0.0
O412 O 0.00937 0.67827 0.84602 0.0
O413 O 0.98929 0.64541 0.80348 0.0
O414 O 0.04323 0.65373 0.80775 0.0
O415 O 0.01687 0.62299 0.8469 0.0
H416 H 0.96651 0.69969 0.85076 0.0
H417 H 0.04326 0.71224 0.84359 0.0
H418 H 0.96011 0.74414 0.85255 0.0
H419 H 0.03546 0.75651 0.84512 0.0
H420 H 0.92857 0.60335 0.76687 0.0
H421 H 0.95349 0.67628 0.8124 0.0
H422 H 0.9716 0.60791 0.77936 0.0
H423 H 0.91092 0.67078 0.79897 0.0
H424 H 0.96916 0.74164 0.77037 0.0
H425 H 0.03924 0.7231 0.74042 0.0
H426 H 0.94564 0.67091 0.91231 0.0
H427 H 0.90575 0.62372 0.86393 0.0
H428 H 0.07568 0.61847 0.80387 0.0
H429 H 0.06644 0.69552 0.81233 0.0
H430 H 0.12024 0.6243 0.80554 0.0
H431 H 0.11118 0.70001 0.81408 0.0
H432 H 0.02566 0.60164 0.88887 0.0
H433 H 0.98438 0.59707 0.82276 0.0
H434 H 0.00616 0.56346 0.90284 0.0
H435 H 0.96554 0.55909 0.83785 0.0
H436 H 0.08242 0.68728 0.91321 0.0
H437 H 0.10406 0.61656 0.88704 0.0
H438 H 0.03662 0.58605 0.73329 0.0
H439 H 0.06384 0.55012 0.7975 0.0
Li440 Li 0.37829 0.01891 0.81188 0.0
Li441 Li 0.3518 0.03515 0.84353 0.0
Li442 Li 0.35716 0.99103 0.84045 0.0
Li443 Li 0.33265 0.01244 0.81081 0.0
C444 C 0.40348 0.00522 0.85409 0.0
N445 N 0.44609 0.98263 0.86769 0.0
C446 C 0.4146 0.0112 0.87608 0.0
C447 C 0.41401 0.98777 0.83901 0.0
C448 C 0.43615 0.99958 0.88263 0.0
C449 C 0.43555 0.97655 0.84621 0.0
C450 C 0.34887 0.06774 0.80907 0.0
C451 C 0.32335 0.10321 0.81124 0.0
N452 N 0.34346 0.11751 0.81168 0.0
C453 C 0.36927 0.08278 0.80933 0.0
C454 C 0.32571 0.07802 0.80986 0.0
C455 C 0.36616 0.10789 0.81073 0.0
C456 C 0.40409 0.02522 0.76812 0.0
N457 N 0.40568 0.02758 0.79261 0.0
C458 C 0.44113 0.05227 0.78874 0.0
C459 C 0.42413 0.04015 0.80312 0.0
C460 C 0.43907 0.05147 0.76332 0.0
C461 C 0.42081 0.03693 0.75303 0.0
H462 H 0.38888 0.01562 0.76026 0.0
H463 H 0.42462 0.04227 0.82262 0.0
C464 C 0.33122 0.06563 0.88037 0.0
N465 N 0.35101 0.06122 0.86636 0.0
C466 C 0.33231 0.08289 0.89892 0.0
C467 C 0.37397 0.09107 0.88803 0.0
C468 C 0.37209 0.0736 0.86974 0.0
C469 C 0.35404 0.0956 0.90323 0.0
H470 H 0.31484 0.05522 0.8777 0.0
H471 H 0.38773 0.06933 0.85867 0.0
C472 C 0.36016 0.96551 0.79648 0.0
N473 N 0.36174 0.91796 0.78071 0.0
C474 C 0.34165 0.94939 0.80277 0.0
C475 C 0.37952 0.95745 0.78221 0.0
C476 C 0.34277 0.92542 0.79462 0.0
C477 C 0.37997 0.93334 0.7744 0.0
C478 C 0.30229 0.00603 0.84775 0.0
C479 C 0.29284 0.98292 0.85227 0.0
C480 C 0.28648 0.02558 0.84446 0.0
C481 C 0.26771 0.97975 0.85326 0.0
C482 C 0.26147 0.02166 0.84554 0.0
N483 N 0.25268 0.99902 0.84988 0.0
C484 C 0.34704 0.96448 0.88166 0.0
C485 C 0.37077 0.94157 0.85412 0.0
C486 C 0.34517 0.9447 0.89731 0.0
N487 N 0.35913 0.96246 0.86026 0.0
C488 C 0.36943 0.92124 0.86934 0.0
C489 C 0.35613 0.92255 0.89111 0.0
H490 H 0.33843 0.98146 0.88639 0.0
H491 H 0.38083 0.94051 0.83732 0.0
C492 C 0.30355 0.02634 0.77071 0.0
N493 N 0.30588 0.0094 0.78849 0.0
C494 C 0.2856 0.02394 0.75293 0.0
C495 C 0.2726 0.98677 0.77208 0.0
C496 C 0.29081 0.98987 0.78943 0.0
C497 C 0.26994 0.00379 0.75332 0.0
H498 H 0.31596 0.04152 0.77003 0.0
H499 H 0.29314 0.97632 0.80331 0.0
O500 O 0.38231 0.01636 0.84755 0.0
O501 O 0.35155 0.04308 0.80816 0.0
O502 O 0.35953 0.98904 0.80433 0.0
O503 O 0.32686 0.00952 0.8466 0.0
H504 H 0.40663 0.02468 0.88794 0.0
H505 H 0.40567 0.98294 0.82195 0.0
H506 H 0.44497 0.00402 0.89959 0.0
H507 H 0.44389 0.96299 0.83473 0.0
H508 H 0.30553 0.1114 0.81195 0.0
H509 H 0.38732 0.07517 0.80872 0.0
H510 H 0.30972 0.06668 0.80933 0.0
H511 H 0.3818 0.11974 0.81111 0.0
H512 H 0.45497 0.0632 0.7974 0.0
H513 H 0.41831 0.0361 0.73356 0.0
H514 H 0.31641 0.08596 0.91005 0.0
H515 H 0.39115 0.10016 0.89087 0.0
H516 H 0.32696 0.95513 0.81439 0.0
H517 H 0.39404 0.9697 0.77724 0.0
H518 H 0.32864 0.9127 0.7995 0.0
H519 H 0.39483 0.92685 0.76334 0.0
H520 H 0.30471 0.96749 0.85458 0.0
H521 H 0.29343 0.04357 0.84103 0.0
H522 H 0.26017 0.96195 0.8566 0.0
H523 H 0.24904 0.03662 0.84294 0.0
H524 H 0.33535 0.94682 0.9142 0.0
H525 H 0.37829 0.90458 0.8639 0.0
H526 H 0.2841 0.03767 0.73895 0.0
H527 H 0.26125 0.97076 0.77294 0.0
Li528 Li 0.98295 0.37659 0.813 0.0
Li529 Li 0.96658 0.34992 0.84462 0.0
Li530 Li 0.01176 0.3553 0.84074 0.0
Li531 Li 0.98916 0.33109 0.81133 0.0
C532 C 0.9918 0.40257 0.85699 0.0
N533 N 0.00311 0.44838 0.87395 0.0
C534 C 0.97489 0.41566 0.87063 0.0
C535 C 0.0146 0.41261 0.85236 0.0
C536 C 0.9809 0.43884 0.87892 0.0
C537 C 0.01994 0.43583 0.861 0.0
C538 C 0.93401 0.34697 0.80868 0.0
C539 C 0.89881 0.32109 0.81111 0.0
N540 N 0.88427 0.34075 0.80778 0.0
C541 C 0.91873 0.36687 0.80504 0.0
C542 C 0.924 0.32386 0.81152 0.0
C543 C 0.89364 0.36337 0.80473 0.0
C544 C 0.97695 0.40272 0.76949 0.0
N545 N 0.97402 0.40414 0.79394 0.0
C546 C 0.94876 0.43914 0.78963 0.0
C547 C 0.96081 0.42227 0.80421 0.0
C548 C 0.95012 0.43719 0.76424 0.0
C549 C 0.96522 0.41925 0.75421 0.0
H550 H 0.98706 0.38776 0.76179 0.0
H551 H 0.95802 0.42258 0.82358 0.0
C552 C 0.93966 0.33077 0.8845 0.0
N553 N 0.94053 0.3485 0.86739 0.0
C554 C 0.9222 0.33163 0.90289 0.0
C555 C 0.9066 0.36869 0.88544 0.0
C556 C 0.92436 0.36713 0.86743 0.0
C557 C 0.90561 0.35102 0.90377 0.0
H558 H 0.95298 0.31639 0.88434 0.0
H559 H 0.92585 0.38133 0.85398 0.0
C560 C 0.03384 0.36654 0.79501 0.0
N561 N 0.07612 0.38437 0.77474 0.0
C562 C 0.05128 0.35061 0.78578 0.0
C563 C 0.03769 0.39156 0.79343 0.0
C564 C 0.07261 0.35996 0.77577 0.0
C565 C 0.05923 0.40021 0.78325 0.0
C566 C 0.99621 0.30079 0.84895 0.0
C567 C 0.01953 0.29152 0.85256 0.0
C568 C 0.97651 0.2849 0.84749 0.0
C569 C 0.02281 0.26643 0.85419 0.0
C570 C 0.98053 0.25994 0.8492 0.0
N571 N 0.0034 0.2513 0.85246 0.0
C572 C 0.03868 0.36375 0.88298 0.0
C573 C 0.06222 0.34695 0.8512 0.0
C574 C 0.05823 0.362 0.89899 0.0
N575 N 0.04093 0.35618 0.85961 0.0
C576 C 0.08227 0.34482 0.86663 0.0
C577 C 0.08031 0.35204 0.89102 0.0
H578 H 0.02142 0.37056 0.88937 0.0
H579 H 0.06337 0.3402 0.83286 0.0
C580 C 0.97472 0.30022 0.77272 0.0
N581 N 0.99234 0.30427 0.78949 0.0
C582 C 0.97768 0.28219 0.75512 0.0
C583 C 0.01674 0.27258 0.77253 0.0
C584 C 0.01307 0.29088 0.7897 0.0
C585 C 0.99905 0.26825 0.7547 0.0
H586 H 0.95862 0.3114 0.7726 0.0
H587 H 0.02713 0.29489 0.80276 0.0
O588 O 0.9862 0.37979 0.84883 0.0
O589 O 0.95864 0.35006 0.80924 0.0
O590 O 0.01265 0.35767 0.80446 0.0
O591 O 0.99268 0.32529 0.84709 0.0
H592 H 0.95726 0.40806 0.87467 0.0
H593 H 0.02817 0.40248 0.84252 0.0
H594 H 0.96792 0.44924 0.88935 0.0
H595 H 0.03752 0.44382 0.8575 0.0
H596 H 0.89083 0.30331 0.81339 0.0
H597 H 0.92613 0.38486 0.80263 0.0
H598 H 0.93554 0.3082 0.81389 0.0
H599 H 0.8816 0.37865 0.80207 0.0
H600 H 0.93741 0.45273 0.79814 0.0
H601 H 0.96652 0.41682 0.73475 0.0
H602 H 0.92196 0.31745 0.91649 0.0
H603 H 0.89445 0.38413 0.88557 0.0
H604 H 0.04846 0.33121 0.78648 0.0
H605 H 0.02411 0.4042 0.79978 0.0
H606 H 0.08634 0.34782 0.76876 0.0
H607 H 0.06247 0.41953 0.78201 0.0
H608 H 0.03497 0.30352 0.85389 0.0
H609 H 0.95831 0.29177 0.84516 0.0
H610 H 0.04078 0.25901 0.85681 0.0
H611 H 0.96544 0.24744 0.848 0.0
H612 H 0.05596 0.36818 0.91751 0.0
H613 H 0.09881 0.33675 0.85977 0.0
H614 H 0.96348 0.27936 0.74184 0.0
H615 H 0.03363 0.26255 0.77267 0.0
Li616 Li 0.62545 0.98294 0.81137 0.0
Li617 Li 0.65219 0.96678 0.84322 0.0
Li618 Li 0.64625 0.01088 0.84002 0.0
Li619 Li 0.67111 0.98988 0.81049 0.0
C620 C 0.60029 0.9959 0.85428 0.0
N621 N 0.55767 0.01758 0.86921 0.0
C622 C 0.59009 0.9898 0.87666 0.0
C623 C 0.58885 0.01301 0.83948 0.0
C624 C 0.56851 1.00096 0.88389 0.0
C625 C 0.56731 0.02378 0.84735 0.0
C626 C 0.65566 0.93444 0.80789 0.0
C627 C 0.68178 0.89941 0.81004 0.0
N628 N 0.66201 0.88472 0.80863 0.0
C629 C 0.63562 0.919 0.80623 0.0
C630 C 0.67895 0.92459 0.80961 0.0
C631 C 0.6392 0.89392 0.80672 0.0
C632 C 0.59945 0.97666 0.76763 0.0
N633 N 0.59812 0.97399 0.79212 0.0
C634 C 0.56288 0.949 0.78828 0.0
C635 C 0.57993 0.96108 0.80265 0.0
C636 C 0.56464 0.95018 0.76286 0.0
C637 C 0.58268 0.965 0.75257 0.0
H638 H 0.61446 0.98655 0.75975 0.0
H639 H 0.57965 0.95874 0.82213 0.0
C640 C 0.67197 0.93832 0.88197 0.0
N641 N 0.65332 0.94068 0.86601 0.0
C642 C 0.67082 0.92099 0.90047 0.0
C643 C 0.63151 0.9086 0.88554 0.0
C644 C 0.63336 0.92625 0.86743 0.0
C645 C 0.65022 0.90608 0.90265 0.0
H646 H 0.68734 0.95041 0.88089 0.0
H647 H 0.61845 0.92903 0.85497 0.0
C648 C 0.64214 0.03664 0.79664 0.0
N649 N 0.63823 0.08445 0.78207 0.0
C650 C 0.66032 0.05329 0.80256 0.0
C651 C 0.62197 0.0443 0.78331 0.0
C652 C 0.658 0.07738 0.79504 0.0
C653 C 0.62033 0.06854 0.7761 0.0
C654 C 0.70129 0.99621 0.84778 0.0
C655 C 0.71073 0.01947 0.85146 0.0
C656 C 0.71707 0.97648 0.84578 0.0
C657 C 0.73584 0.0226 0.85285 0.0
C658 C 0.74207 0.98036 0.84724 0.0
N659 N 0.75086 0.00315 0.8507 0.0
C660 C 0.65677 0.03796 0.88086 0.0
C661 C 0.63141 0.0599 0.854 0.0
C662 C 0.65846 0.05788 0.89636 0.0
N663 N 0.64396 0.03945 0.85984 0.0
C664 C 0.63256 0.08035 0.86908 0.0
C665 C 0.64657 0.07961 0.89042 0.0
H666 H 0.66607 0.0213 0.88542 0.0
H667 H 0.62079 0.06053 0.83753 0.0
C668 C 0.70075 0.9761 0.77075 0.0
N669 N 0.69793 0.99318 0.78833 0.0
C670 C 0.71871 0.97875 0.75302 0.0
C671 C 0.73075 0.01641 0.77184 0.0
C672 C 0.71253 0.01308 0.78913 0.0
C673 C 0.73388 0.99926 0.75326 0.0
H674 H 0.68869 0.96065 0.77016 0.0
H675 H 0.70977 0.02673 0.80282 0.0
O676 O 0.62146 0.98521 0.84703 0.0
O677 O 0.6525 0.95907 0.80778 0.0
O678 O 0.644 0.01296 0.80381 0.0
O679 O 0.67674 0.99277 0.84627 0.0
H680 H 0.59877 0.97658 0.88831 0.0
H681 H 0.59651 0.01791 0.82211 0.0
H682 H 0.56038 0.99642 0.90117 0.0
H683 H 0.55827 0.03706 0.83609 0.0
H684 H 0.69971 0.89155 0.81145 0.0
H685 H 0.61748 0.92628 0.80479 0.0
H686 H 0.69468 0.93626 0.81048 0.0
H687 H 0.62383 0.88176 0.80561 0.0
H688 H 0.54922 0.93785 0.79695 0.0
H689 H 0.58493 0.96612 0.73308 0.0
H690 H 0.68574 0.91956 0.91318 0.0
H691 H 0.61516 0.89779 0.88676 0.0
H692 H 0.67569 0.04783 0.8134 0.0
H693 H 0.60774 0.03163 0.77857 0.0
H694 H 0.67185 0.0905 0.79965 0.0
H695 H 0.60482 0.07472 0.76578 0.0
H696 H 0.69887 0.03503 0.85281 0.0
H697 H 0.71011 0.95835 0.84316 0.0
H698 H 0.74339 0.04052 0.85552 0.0
H699 H 0.75448 0.96525 0.84564 0.0
H700 H 0.66885 0.05617 0.91295 0.0
H701 H 0.62296 0.09666 0.86384 0.0
H702 H 0.72058 0.96493 0.73918 0.0
H703 H 0.74172 0.03269 0.77256 0.0
Li704 Li 0.15878 0.03512 0.34835 0.0
Li705 Li 0.19083 0.01963 0.37605 0.0
Li706 Li 0.19377 0.01247 0.33207 0.0
Li707 Li 0.16368 0.99086 0.35512 0.0
C708 C 0.20051 0.06205 0.33396 0.0
N709 N 0.21485 0.09777 0.3019 0.0
C710 C 0.22131 0.07573 0.33866 0.0
C711 C 0.187 0.06647 0.31296 0.0
C712 C 0.22826 0.09373 0.32223 0.0
C713 C 0.19456 0.08462 0.29697 0.0
C714 C 0.14293 0.01564 0.39999 0.0
C715 C 0.1285 0.99358 0.43492 0.0
N716 N 0.11759 0.0141 0.44323 0.0
C717 C 0.13134 0.03643 0.40873 0.0
C718 C 0.14131 0.99396 0.41306 0.0
C719 C 0.11872 0.03532 0.43068 0.0
C720 C 0.11302 0.05436 0.33681 0.0
N721 N 0.13523 0.06018 0.34574 0.0
C722 C 0.12132 0.09977 0.3568 0.0
C723 C 0.13979 0.08243 0.35535 0.0
C724 C 0.09792 0.09407 0.34837 0.0
C725 C 0.09406 0.07114 0.33783 0.0
H726 H 0.10986 0.03639 0.32958 0.0
H727 H 0.15753 0.08637 0.36277 0.0
C728 C 0.23345 0.02577 0.40375 0.0
N729 N 0.2091 0.02972 0.40371 0.0
C730 C 0.24832 0.03772 0.42049 0.0
C731 C 0.21264 0.05653 0.43763 0.0
C732 C 0.19849 0.04431 0.42052 0.0
C733 C 0.23802 0.05404 0.4372 0.0
H734 H 0.24147 0.01455 0.38978 0.0
H735 H 0.17924 0.04771 0.41973 0.0
C736 C 0.15558 0.9923 0.30533 0.0
N737 N 0.14876 0.95909 0.26841 0.0
C738 C 0.17104 0.97232 0.30314 0.0
C739 C 0.13665 0.99539 0.28877 0.0
C740 C 0.1673 0.95574 0.28435 0.0
C741 C 0.1335 0.9784 0.27022 0.0
C742 C 0.20682 0.96949 0.37227 0.0
C743 C 0.21944 0.95044 0.36128 0.0
C744 C 0.20188 0.96857 0.39712 0.0
C745 C 0.22661 0.93058 0.37531 0.0
C746 C 0.20937 0.94841 0.41053 0.0
N747 N 0.22146 0.92998 0.39944 0.0
C748 C 0.23873 1.00024 0.312 0.0
C749 C 0.21094 0.01544 0.28293 0.0
C750 C 0.25611 0.99629 0.29399 0.0
N751 N 0.21666 0.00955 0.3062 0.0
C752 C 0.22782 0.01182 0.26431 0.0
C753 C 0.25076 0.002 0.26972 0.0
H754 H 0.24279 0.99574 0.33067 0.0
H755 H 0.19317 0.02264 0.27877 0.0
C756 C 0.12011 0.9661 0.35963 0.0
N757 N 0.14422 0.96218 0.35638 0.0
C758 C 0.10363 0.94699 0.35766 0.0
C759 C 0.13707 0.91997 0.34913 0.0
C760 C 0.15295 0.93965 0.35136 0.0
C761 C 0.11196 0.92356 0.35195 0.0
H762 H 0.11361 0.98428 0.36315 0.0
H763 H 0.17209 0.93707 0.34812 0.0
O764 O 0.19367 0.04416 0.34972 0.0
O765 O 0.1551 0.01637 0.37836 0.0
O766 O 0.15874 0.00871 0.32368 0.0
O767 O 0.19989 0.98911 0.35876 0.0
H768 H 0.23199 0.07242 0.35482 0.0
H769 H 0.17096 0.05589 0.30894 0.0
H770 H 0.24433 0.10448 0.32562 0.0
H771 H 0.18432 0.08822 0.28061 0.0
H772 H 0.12714 0.97694 0.44525 0.0
H773 H 0.13223 0.05331 0.39876 0.0
H774 H 0.14963 0.97753 0.40631 0.0
H775 H 0.1098 0.05131 0.43773 0.0
H776 H 0.12511 0.11708 0.36529 0.0
H777 H 0.07648 0.06605 0.3307 0.0
H778 H 0.26779 0.0355 0.41919 0.0
H779 H 0.20387 0.06874 0.45029 0.0
H780 H 0.18576 0.9696 0.31582 0.0
H781 H 0.12451 0.01076 0.29025 0.0
H782 H 0.17911 0.94019 0.28246 0.0
H783 H 0.11892 0.98056 0.25726 0.0
H784 H 0.22354 0.95096 0.34207 0.0
H785 H 0.19255 0.98333 0.40601 0.0
H786 H 0.23629 0.91566 0.36701 0.0
H787 H 0.20563 0.94746 0.42978 0.0
H788 H 0.27366 0.98909 0.29911 0.0
H789 H 0.22281 0.01629 0.24585 0.0
H790 H 0.08452 0.95061 0.36041 0.0
H791 H 0.14431 0.90233 0.34443 0.0
Li792 Li 0.98114 0.19031 0.37438 0.0
Li793 Li 0.96554 0.15809 0.34722 0.0
Li794 Li 0.00984 0.16302 0.35355 0.0
Li795 Li 0.98794 0.19286 0.33025 0.0
C796 C 0.98545 0.14287 0.39891 0.0
N797 N 0.98742 0.11833 0.4426 0.0
C798 C 0.96479 0.13129 0.40798 0.0
C799 C 0.00721 0.14163 0.41188 0.0
C800 C 0.96612 0.11909 0.43016 0.0
C801 C 0.00781 0.12922 0.43397 0.0
C802 C 0.93809 0.19866 0.33238 0.0
C803 C 0.91598 0.19124 0.29537 0.0
N804 N 0.9014 0.21051 0.30039 0.0
C805 C 0.92293 0.21839 0.33718 0.0
C806 C 0.93464 0.18495 0.31133 0.0
C807 C 0.90446 0.22409 0.32078 0.0
C808 C 0.97548 0.2331 0.40205 0.0
N809 N 0.97128 0.20879 0.402 0.0
C810 C 0.94455 0.21259 0.43595 0.0
C811 C 0.95658 0.19834 0.41881 0.0
C812 C 0.9473 0.23795 0.43554 0.0
C813 C 0.9637 0.24809 0.41882 0.0
H814 H 0.98677 0.24102 0.38808 0.0
H815 H 0.95296 0.17913 0.41801 0.0
C816 C 0.94598 0.11234 0.33598 0.0
N817 N 0.94041 0.13457 0.34502 0.0
C818 C 0.92911 0.09348 0.3372 0.0
C819 C 0.90089 0.12088 0.35658 0.0
C820 C 0.91831 0.13925 0.35494 0.0
C821 C 0.90633 0.09746 0.34804 0.0
H822 H 0.96383 0.10909 0.32849 0.0
H823 H 0.91458 0.157 0.36243 0.0
C824 C 0.03128 0.20643 0.36987 0.0
N825 N 0.07117 0.22148 0.39623 0.0
C826 C 0.05017 0.21886 0.3584 0.0
C827 C 0.03254 0.20192 0.39478 0.0
C828 C 0.07023 0.22623 0.37202 0.0
C829 C 0.05289 0.2096 0.40778 0.0
C830 C 0.00806 0.15444 0.30388 0.0
C831 C 0.02799 0.16993 0.30144 0.0
C832 C 0.00489 0.13539 0.28747 0.0
C833 C 0.04446 0.16607 0.28257 0.0
C834 C 0.02176 0.13213 0.26883 0.0
N835 N 0.04104 0.14741 0.2668 0.0
C836 C 0.03487 0.11961 0.35877 0.0
C837 C 0.06109 0.1524 0.34963 0.0
C838 C 0.05409 0.1032 0.35715 0.0
N839 N 0.03863 0.14367 0.35493 0.0
C840 C 0.08087 0.13659 0.34775 0.0
C841 C 0.07745 0.11153 0.3512 0.0
H842 H 0.01675 0.1131 0.36252 0.0
H843 H 0.06357 0.17147 0.34594 0.0
C844 C 1.00012 0.23757 0.30978 0.0
N845 N 0.99073 0.21549 0.3041 0.0
C846 C 0.00417 0.25481 0.29167 0.0
C847 C 0.98846 0.22646 0.26214 0.0
C848 C 0.98478 0.20968 0.28086 0.0
C849 C 0.99847 0.24934 0.26742 0.0
H850 H 0.00465 0.2417 0.32842 0.0
H851 H 0.97753 0.19191 0.2768 0.0
O852 O 0.98451 0.15463 0.37706 0.0
O853 O 0.95636 0.19302 0.34819 0.0
O854 O 0.01146 0.19927 0.35676 0.0
O855 O 0.99175 0.15772 0.32229 0.0
H856 H 0.94786 0.13188 0.39809 0.0
H857 H 0.02355 0.14991 0.40487 0.0
H858 H 0.95023 0.11019 0.43747 0.0
H859 H 0.02452 0.12816 0.44422 0.0
H860 H 0.9131 0.18082 0.27899 0.0
H861 H 0.92544 0.22919 0.3534 0.0
H862 H 0.94627 0.16968 0.30727 0.0
H863 H 0.89257 0.23931 0.32424 0.0
H864 H 0.93228 0.20394 0.44862 0.0
H865 H 0.96613 0.26754 0.41753 0.0
H866 H 0.93399 0.07588 0.32997 0.0
H867 H 0.88371 0.12475 0.3653 0.0
H868 H 0.04938 0.22263 0.33913 0.0
H869 H 0.0179 0.19276 0.40404 0.0
H870 H 0.08504 0.23575 0.36336 0.0
H871 H 0.05412 0.20618 0.42708 0.0
H872 H 0.03076 0.18475 0.31398 0.0
H873 H 0.98955 0.12324 0.28913 0.0
H874 H 0.05997 0.17791 0.28049 0.0
H875 H 0.01955 0.11744 0.256 0.0
H876 H 0.05059 0.08415 0.36039 0.0
H877 H 0.09845 0.14382 0.34283 0.0
H878 H 0.01151 0.27233 0.29668 0.0
H879 H 0.98396 0.22139 0.2437 0.0
Li880 Li 0.84204 0.9655 0.34669 0.0
Li881 Li 0.80972 0.98088 0.37377 0.0
Li882 Li 0.80731 0.98796 0.32971 0.0
Li883 Li 0.83704 0.00974 0.35327 0.0
C884 C 0.80193 0.93804 0.33135 0.0
N885 N 0.79103 0.90147 0.29887 0.0
C886 C 0.78258 0.92233 0.33592 0.0
C887 C 0.81575 0.93518 0.31028 0.0
C888 C 0.77735 0.90394 0.31927 0.0
C889 C 0.80994 0.91657 0.29408 0.0
C890 C 0.85696 0.98525 0.39859 0.0
C891 C 0.87028 0.00762 0.43377 0.0
N892 N 0.8812 0.98726 0.44244 0.0
C893 C 0.86857 0.96463 0.40771 0.0
C894 C 0.85803 0.007 0.41159 0.0
C895 C 0.88062 0.96598 0.42997 0.0
C896 C 0.88788 0.94615 0.33547 0.0
N897 N 0.86567 0.94047 0.34447 0.0
C898 C 0.87955 0.90104 0.35613 0.0
C899 C 0.86109 0.91836 0.35441 0.0
C900 C 0.90296 0.9066 0.34763 0.0
C901 C 0.90684 0.92938 0.33675 0.0
H902 H 0.89106 0.96401 0.32797 0.0
H903 H 0.84334 0.91455 0.36187 0.0
C904 C 0.76688 0.97525 0.40154 0.0
N905 N 0.79115 0.97084 0.40127 0.0
C906 C 0.7519 0.96336 0.41824 0.0
C907 C 0.78734 0.94361 0.43481 0.0
C908 C 0.80158 0.95577 0.41776 0.0
C909 C 0.76201 0.9466 0.43463 0.0
H910 H 0.75898 0.98684 0.38781 0.0
H911 H 0.82075 0.95197 0.41676 0.0
C912 C 0.84581 0.0083 0.30362 0.0
N913 N 0.853 0.04153 0.26679 0.0
C914 C 0.83034 0.02825 0.30125 0.0
C915 C 0.86493 0.00524 0.28726 0.0
C916 C 0.83427 0.04485 0.28252 0.0
C917 C 0.86827 0.02224 0.26876 0.0
C918 C 0.79352 0.03109 0.36943 0.0
C919 C 0.78117 0.05 0.35789 0.0
C920 C 0.79781 0.03229 0.39438 0.0
C921 C 0.77367 0.07003 0.3715 0.0
C922 C 0.79 0.05261 0.40736 0.0
N923 N 0.77821 0.07092 0.39574 0.0
C924 C 0.76247 0.9998 0.30944 0.0
C925 C 0.79059 0.98552 0.28022 0.0
C926 C 0.74514 0.0039 0.29143 0.0
N927 N 0.7847 0.99091 0.30357 0.0
C928 C 0.77374 0.9893 0.26158 0.0
C929 C 0.75068 0.99878 0.26706 0.0
H930 H 0.75827 0.00389 0.32817 0.0
H931 H 0.80847 0.97864 0.27601 0.0
C932 C 0.88049 0.03457 0.35849 0.0
N933 N 0.85643 0.03848 0.35483 0.0
C934 C 0.897 0.05368 0.35682 0.0
C935 C 0.86371 0.0807 0.34777 0.0
C936 C 0.84778 0.06102 0.34969 0.0
C937 C 0.88876 0.07711 0.351 0.0
H938 H 0.88692 0.01638 0.36211 0.0
H939 H 0.82871 0.06361 0.34613 0.0
O940 O 0.8071 0.95623 0.34741 0.0
O941 O 0.84536 0.98429 0.37665 0.0
O942 O 0.84247 0.99187 0.32192 0.0
O943 O 0.80079 0.0113 0.35634 0.0
H944 H 0.7717 0.92437 0.35215 0.0
H945 H 0.83076 0.94721 0.3064 0.0
H946 H 0.76242 0.89164 0.32256 0.0
H947 H 0.82046 0.91416 0.27768 0.0
H948 H 0.8712 0.02432 0.44404 0.0
H949 H 0.86814 0.9477 0.39778 0.0
H950 H 0.84972 0.02331 0.40454 0.0
H951 H 0.88954 0.95011 0.43731 0.0
H952 H 0.87575 0.88387 0.36487 0.0
H953 H 0.92443 0.93434 0.32956 0.0
H954 H 0.73246 0.96599 0.41716 0.0
H955 H 0.79597 0.93106 0.44723 0.0
H956 H 0.81547 0.03093 0.31376 0.0
H957 H 0.87707 0.98989 0.28888 0.0
H958 H 0.82245 0.06038 0.2805 0.0
H959 H 0.883 0.02011 0.25597 0.0
H960 H 0.77756 0.04925 0.3386 0.0
H961 H 0.80689 0.01763 0.40369 0.0
H962 H 0.76421 0.08485 0.36279 0.0
H963 H 0.79324 0.05379 0.42669 0.0
H964 H 0.72749 0.0108 0.2966 0.0
H965 H 0.77889 0.98526 0.24305 0.0
H966 H 0.91606 0.05006 0.35989 0.0
H967 H 0.85654 0.09835 0.34296 0.0
Li968 Li 0.01967 0.81051 0.37467 0.0
Li969 Li 0.03527 0.84263 0.34742 0.0
Li970 Li 0.99098 0.83768 0.35369 0.0
Li971 Li 0.01292 0.8078 0.33053 0.0
C972 C 0.01508 0.85813 0.39895 0.0
N973 N 0.01266 0.88306 0.44239 0.0
C974 C 0.0356 0.86995 0.40804 0.0
C975 C 0.99324 0.85932 0.41177 0.0
C976 C 0.03404 0.88235 0.43009 0.0
C977 C 0.99241 0.87192 0.43375 0.0
C978 C 0.06276 0.80205 0.33276 0.0
C979 C 0.08488 0.80934 0.29573 0.0
N980 N 0.09951 0.79013 0.30085 0.0
C981 C 0.07798 0.78239 0.33766 0.0
C982 C 0.0662 0.81566 0.31163 0.0
C983 C 0.09648 0.77666 0.3213 0.0
C984 C 0.02562 0.76788 0.40255 0.0
N985 N 0.02961 0.79222 0.40238 0.0
C986 C 0.05648 0.78882 0.43626 0.0
C987 C 0.04427 0.80289 0.41909 0.0
C988 C 0.05397 0.76344 0.43597 0.0
C989 C 0.03759 0.75307 0.41936 0.0
H990 H 0.01437 0.75979 0.38865 0.0
H991 H 0.04772 0.82213 0.41818 0.0
C992 C 0.05495 0.88833 0.33615 0.0
N993 N 0.06041 0.86612 0.34529 0.0
C994 C 0.07182 0.90719 0.33755 0.0
C995 C 0.09978 0.8798 0.35733 0.0
C996 C 0.08238 0.86143 0.35548 0.0
C997 C 0.09445 0.90321 0.34871 0.0
H998 H 0.0372 0.89158 0.32845 0.0
H999 H 0.086 0.84369 0.36305 0.0
C1000 C 0.96957 0.79426 0.37014 0.0
N1001 N 0.92969 0.77916 0.39648 0.0
C1002 C 0.95072 0.78176 0.35867 0.0
C1003 C 0.96828 0.79881 0.39504 0.0
C1004 C 0.93066 0.77436 0.37229 0.0
C1005 C 0.94793 0.7911 0.40803 0.0
C1006 C 0.99282 0.84614 0.304 0.0
C1007 C 0.97289 0.83065 0.3016 0.0
C1008 C 0.99602 0.86513 0.28753 0.0
C1009 C 0.95644 0.83445 0.2827 0.0
C1010 C 0.97917 0.86833 0.26886 0.0
N1011 N 0.95989 0.85306 0.26686 0.0
C1012 C 0.96596 0.88114 0.35841 0.0
C1013 C 0.93971 0.84825 0.34971 0.0
C1014 C 0.94677 0.89754 0.35657 0.0
N1015 N 0.96218 0.85703 0.3549 0.0
C1016 C 0.91995 0.86406 0.3476 0.0
C1017 C 0.9234 0.88916 0.35072 0.0
H1018 H 0.98409 0.88768 0.36208 0.0
H1019 H 0.93722 0.82914 0.34626 0.0
C1020 C 0.00116 0.76291 0.31019 0.0
N1021 N 0.01021 0.7851 0.30444 0.0
C1022 C 0.9972 0.7456 0.29211 0.0
C1023 C 0.01229 0.77416 0.26246 0.0
C1024 C 0.01592 0.79097 0.28116 0.0
C1025 C 0.00263 0.75114 0.26781 0.0
H1026 H 0.99682 0.75872 0.32886 0.0
H1027 H 0.02293 0.80883 0.27704 0.0
O1028 O 0.01625 0.84617 0.37721 0.0
O1029 O 0.04447 0.80772 0.34851 0.0
O1030 O 0.98938 0.80143 0.35703 0.0
O1031 O 0.00911 0.84292 0.32245 0.0
H1032 H 0.0526 0.86941 0.39825 0.0
H1033 H 0.97701 0.85084 0.40475 0.0
H1034 H 0.04982 0.89143 0.43741 0.0
H1035 H 0.97564 0.87295 0.44388 0.0
H1036 H 0.08774 0.81968 0.27929 0.0
H1037 H 0.07549 0.77166 0.35394 0.0
H1038 H 0.05452 0.83088 0.3075 0.0
H1039 H 0.1084 0.76148 0.32486 0.0
H1040 H 0.06874 0.79764 0.44884 0.0
H1041 H 0.03534 0.7336 0.41817 0.0
H1042 H 0.06704 0.92479 0.33025 0.0
H1043 H 0.11683 0.87593 0.36628 0.0
H1044 H 0.95154 0.77795 0.33941 0.0
H1045 H 0.98289 0.80802 0.40429 0.0
H1046 H 0.91588 0.76479 0.36363 0.0
H1047 H 0.94668 0.79454 0.42732 0.0
H1048 H 0.97009 0.81588 0.31419 0.0
H1049 H 0.01137 0.87727 0.28917 0.0
H1050 H 0.94092 0.82262 0.28064 0.0
H1051 H 0.98141 0.88297 0.25598 0.0
H1052 H 0.95028 0.91664 0.35954 0.0
H1053 H 0.90236 0.85678 0.34277 0.0
H1054 H 0.99016 0.72798 0.29719 0.0
H1055 H 0.01656 0.77931 0.24399 0.0
Li1056 Li 0.16524 0.01164 0.64749 0.0
Li1057 Li 0.19496 0.98993 0.67107 0.0
Li1058 Li 0.19255 0.98277 0.62703 0.0
Li1059 Li 0.16022 0.96742 0.65412 0.0
C1060 C 0.20884 0.03306 0.63147 0.0
N1061 N 0.22435 0.07301 0.60546 0.0
C1062 C 0.22094 0.052 0.64322 0.0
C1063 C 0.20491 0.03429 0.60646 0.0
C1064 C 0.22855 0.07209 0.62977 0.0
C1065 C 0.21282 0.05468 0.59363 0.0
C1066 C 0.15646 0.01025 0.69716 0.0
C1067 C 0.13402 0.02422 0.73202 0.0
N1068 N 0.14931 0.04349 0.73399 0.0
C1069 C 0.17196 0.03018 0.69953 0.0
C1070 C 0.13734 0.00721 0.71352 0.0
C1071 C 0.16804 0.04679 0.71826 0.0
C1072 C 0.12179 0.03641 0.64222 0.0
N1073 N 0.14582 0.04036 0.64596 0.0
C1074 C 0.13842 0.08251 0.65331 0.0
C1075 C 0.1544 0.06289 0.65126 0.0
C1076 C 0.11337 0.07887 0.65002 0.0
C1077 C 0.10522 0.05547 0.644 0.0
H1078 H 0.11541 0.01823 0.63847 0.0
H1079 H 0.17346 0.06551 0.65488 0.0
C1080 C 0.23986 0.0016 0.69145 0.0
N1081 N 0.21756 0.99281 0.69719 0.0
C1082 C 0.25719 0.0054 0.70953 0.0
C1083 C 0.22837 0.99082 0.73919 0.0
C1084 C 0.21155 0.98733 0.72049 0.0
C1085 C 0.25156 1.00008 0.73384 0.0
H1086 H 0.24415 0.00577 0.67275 0.0
H1087 H 0.19361 0.98054 0.7246 0.0
C1088 C 0.14561 0.98736 0.60202 0.0
N1089 N 0.12202 0.98988 0.55784 0.0
C1090 C 0.13395 0.96691 0.59259 0.0
C1091 C 0.14491 0.00921 0.58916 0.0
C1092 C 0.12224 0.96851 0.57017 0.0
C1093 C 0.13298 0.01009 0.56681 0.0
C1094 C 0.20041 0.94002 0.66947 0.0
C1095 C 0.21995 0.92452 0.66497 0.0
C1096 C 0.18654 0.93701 0.69049 0.0
C1097 C 0.22529 0.90617 0.68163 0.0
C1098 C 0.19248 0.91846 0.7067 0.0
N1099 N 0.21157 0.90355 0.70198 0.0
C1100 C 0.23544 0.97701 0.59942 0.0
C1101 C 0.20084 0.95721 0.58337 0.0
C1102 C 0.25052 0.96487 0.58298 0.0
N1103 N 0.21118 0.97256 0.59966 0.0
C1104 C 0.21517 0.9448 0.56658 0.0
C1105 C 0.2405 0.94782 0.56684 0.0
H1106 H 0.24327 0.98881 0.61301 0.0
H1107 H 0.18168 0.95337 0.58438 0.0
C1108 C 0.11475 0.94758 0.66629 0.0
N1109 N 0.13667 0.94232 0.65637 0.0
C1110 C 0.09585 0.93074 0.66509 0.0
C1111 C 0.1226 0.90321 0.6439 0.0
C1112 C 0.14103 0.92057 0.6456 0.0
C1113 C 0.09946 0.90836 0.65333 0.0
H1114 H 0.11174 0.96516 0.67446 0.0
H1115 H 0.15855 0.9171 0.63745 0.0
O1116 O 0.2015 0.0132 0.64441 0.0
O1117 O 0.1598 0.99381 0.67887 0.0
O1118 O 0.15687 0.98615 0.62411 0.0
O1119 O 0.19513 0.95818 0.65342 0.0
H1120 H 0.22431 0.05122 0.66256 0.0
H1121 H 0.19606 0.0196 0.59699 0.0
H1122 H 0.23782 0.08694 0.63864 0.0
H1123 H 0.20985 0.05588 0.57427 0.0
H1124 H 0.11929 0.02211 0.74481 0.0
H1125 H 0.18683 0.03284 0.68703 0.0
H1126 H 0.12519 0.99187 0.71192 0.0
H1127 H 0.17988 0.06231 0.72029 0.0
H1128 H 0.14552 0.10014 0.65827 0.0
H1129 H 0.08617 0.05181 0.64089 0.0
H1130 H 0.27492 0.01215 0.70446 0.0
H1131 H 0.22313 0.98667 0.75766 0.0
H1132 H 0.13409 0.94992 0.60241 0.0
H1133 H 0.15323 0.02541 0.59645 0.0
H1134 H 0.1133 0.95277 0.56258 0.0
H1135 H 0.13235 0.02686 0.55664 0.0
H1136 H 0.23087 0.92668 0.64879 0.0
H1137 H 0.17141 0.9489 0.69432 0.0
H1138 H 0.24037 0.89404 0.6784 0.0
H1139 H 0.18193 0.91593 0.72306 0.0
H1140 H 0.26994 0.96754 0.58411 0.0
H1141 H 0.20662 0.93203 0.55434 0.0
H1142 H 0.07849 0.93537 0.67304 0.0
H1143 H 0.1262 0.88637 0.63445 0.0
Li1144 Li 0.01387 0.19412 0.67197 0.0
Li1145 Li 0.99207 0.16451 0.64837 0.0
Li1146 Li 0.03637 0.1596 0.65465 0.0
Li1147 Li 0.02072 0.19215 0.62792 0.0
C1148 C 0.99387 0.15543 0.69797 0.0
N1149 N 0.96094 0.14803 0.73502 0.0
C1150 C 0.97391 0.17087 0.70056 0.0
C1151 C 0.99709 0.13626 0.71422 0.0
C1152 C 0.95746 0.16682 0.7194 0.0
C1153 C 0.98023 0.13281 0.73284 0.0
C1154 C 0.97062 0.20793 0.63223 0.0
C1155 C 0.94942 0.21114 0.59408 0.0
N1156 N 0.93097 0.22292 0.60546 0.0
C1157 C 0.95155 0.22025 0.64352 0.0
C1158 C 0.96965 0.20348 0.6073 0.0
C1159 C 0.93162 0.2276 0.62969 0.0
C1160 C 0.00111 0.23839 0.69282 0.0
N1161 N 0.011 0.21649 0.69829 0.0
C1162 C 0.0138 0.22742 0.74023 0.0
C1163 C 0.01743 0.21073 0.72142 0.0
C1164 C 0.00328 0.25011 0.73515 0.0
C1165 C 0.99703 0.25551 0.71103 0.0
H1166 H 0.99623 0.24249 0.67426 0.0
H1167 H 0.02506 0.19308 0.72532 0.0
C1168 C 0.96713 0.12109 0.64284 0.0
N1169 N 0.96333 0.14511 0.64681 0.0
C1170 C 0.94796 0.10463 0.64441 0.0
C1171 C 0.92112 0.13792 0.65401 0.0
C1172 C 0.94085 0.15378 0.65217 0.0
C1173 C 0.92459 0.11288 0.65044 0.0
H1174 H 0.98527 0.11463 0.63904 0.0
H1175 H 0.93835 0.17282 0.65598 0.0
C1176 C 0.06365 0.20009 0.67006 0.0
N1177 N 0.10017 0.21178 0.70232 0.0
C1178 C 0.07854 0.22014 0.6657 0.0
C1179 C 0.0673 0.18599 0.69082 0.0
C1180 C 0.09692 0.22575 0.68223 0.0
C1181 C 0.08587 0.1922 0.70691 0.0
C1182 C 0.01662 0.14497 0.60277 0.0
C1183 C 0.03743 0.13379 0.59354 0.0
C1184 C 0.99486 0.14353 0.58982 0.0
C1185 C 0.03624 0.1218 0.57123 0.0
C1186 C 0.9944 0.13135 0.5676 0.0
N1187 N 0.01494 0.12086 0.55882 0.0
C1188 C 0.05603 0.11377 0.66537 0.0
C1189 C 0.08364 0.14095 0.64672 0.0
C1190 C 0.07297 0.09497 0.66397 0.0
N1191 N 0.06155 0.13611 0.65657 0.0
C1192 C 0.10112 0.12265 0.64488 0.0
C1193 C 0.09573 0.09913 0.65318 0.0
H1194 H 0.0382 0.11039 0.67283 0.0
H1195 H 0.08732 0.1588 0.63943 0.0
C1196 C 0.02623 0.23534 0.60076 0.0
N1197 N 0.03067 0.21108 0.60065 0.0
C1198 C 0.0382 0.25062 0.58438 0.0
C1199 C 0.05805 0.21546 0.56731 0.0
C1200 C 0.0458 0.20092 0.58405 0.0
C1201 C 0.05505 0.24079 0.56793 0.0
H1202 H 0.0146 0.24302 0.61459 0.0
H1203 H 0.04961 0.18175 0.58476 0.0
O1204 O 0.01016 0.1589 0.67958 0.0
O1205 O 0.9903 0.20078 0.64556 0.0
O1206 O 0.04546 0.19455 0.65414 0.0
O1207 O 0.01742 0.15649 0.62475 0.0
H1208 H 0.9711 0.18578 0.68814 0.0
H1209 H 0.01245 0.12415 0.71244 0.0
H1210 H 0.94193 0.17861 0.7216 0.0
H1211 H 0.98249 0.11802 0.74555 0.0
H1212 H 0.94843 0.20777 0.57477 0.0
H1213 H 0.95209 0.22396 0.66281 0.0
H1214 H 0.98442 0.19439 0.59818 0.0
H1215 H 0.91667 0.23704 0.63821 0.0
H1216 H 0.01874 0.22245 0.75858 0.0
H1217 H 0.98927 0.2729 0.7062 0.0
H1218 H 0.95148 0.08559 0.6411 0.0
H1219 H 0.90352 0.14509 0.65899 0.0
H1220 H 0.07587 0.23125 0.64972 0.0
H1221 H 0.05587 0.17048 0.69456 0.0
H1222 H 0.10858 0.24121 0.6791 0.0
H1223 H 0.08889 0.18148 0.72307 0.0
H1224 H 0.05437 0.13452 0.6034 0.0
H1225 H 0.97841 0.15151 0.59694 0.0
H1226 H 0.05225 0.11322 0.56381 0.0
H1227 H 0.97769 0.13016 0.55737 0.0
H1228 H 0.06814 0.07728 0.67101 0.0
H1229 H 0.11828 0.12667 0.63622 0.0
H1230 H 0.03556 0.27003 0.58578 0.0
H1231 H 0.07068 0.20706 0.55483 0.0
Li1232 Li 0.80863 0.01381 0.671 0.0
Li1233 Li 0.83837 0.99212 0.64739 0.0
Li1234 Li 0.84332 0.03639 0.65392 0.0
Li1235 Li 0.81092 0.02089 0.62695 0.0
C1236 C 0.84749 0.99375 0.69705 0.0
N1237 N 0.85532 0.96079 0.73399 0.0
C1238 C 0.8319 0.97398 0.70001 0.0
C1239 C 0.86705 0.99678 0.71288 0.0
C1240 C 0.83616 0.95751 0.71879 0.0
C1241 C 0.87071 0.97991 0.73145 0.0
C1242 C 0.79498 0.97043 0.63163 0.0
C1243 C 0.79105 0.94857 0.59393 0.0
N1244 N 0.77988 0.93013 0.60593 0.0
C1245 C 0.78326 0.95138 0.64356 0.0
C1246 C 0.79875 0.96913 0.60659 0.0
C1247 C 0.77585 0.93111 0.63026 0.0
C1248 C 0.76392 0.00171 0.69142 0.0
N1249 N 0.78608 0.01086 0.69714 0.0
C1250 C 0.77521 0.01291 0.73912 0.0
C1251 C 0.79199 0.01656 0.72041 0.0
C1252 C 0.75219 0.00323 0.73379 0.0
C1253 C 0.74665 0.99771 0.70951 0.0
H1254 H 0.75972 0.99737 0.67275 0.0
H1255 H 0.80983 0.02363 0.7245 0.0
C1256 C 0.88163 0.9671 0.64082 0.0
N1257 N 0.85779 0.9634 0.64585 0.0
C1258 C 0.89822 0.94806 0.64256 0.0
C1259 C 0.86546 0.92155 0.65457 0.0
C1260 C 0.84944 0.94113 0.65242 0.0
C1261 C 0.89033 0.92495 0.64996 0.0
H1262 H 0.88789 0.98509 0.6361 0.0
H1263 H 0.83056 0.93873 0.65703 0.0
C1264 C 0.803 0.0637 0.66931 0.0
N1265 N 0.79168 0.10018 0.70175 0.0
C1266 C 0.78334 0.07906 0.66483 0.0
C1267 C 0.8169 0.06687 0.69029 0.0
C1268 C 0.77792 0.09741 0.68145 0.0
C1269 C 0.81088 0.08542 0.70647 0.0
C1270 C 0.85766 0.01685 0.60172 0.0
C1271 C 0.86908 0.03755 0.59255 0.0
C1272 C 0.85837 0.99524 0.58846 0.0
C1273 C 0.88057 0.03643 0.56999 0.0
C1274 C 0.87007 0.99485 0.56598 0.0
N1275 N 0.8808 0.01529 0.55727 0.0
C1276 C 0.88918 0.05566 0.665 0.0
C1277 C 0.86229 0.08366 0.64649 0.0
C1278 C 0.90811 0.07246 0.66386 0.0
N1279 N 0.86692 0.06144 0.65616 0.0
C1280 C 0.88074 0.10102 0.64493 0.0
C1281 C 0.90418 0.09537 0.6533 0.0
H1282 H 0.89238 0.03772 0.67228 0.0
H1283 H 0.84451 0.08756 0.63915 0.0
C1284 C 0.76785 0.02626 0.59957 0.0
N1285 N 0.79208 0.03091 0.59963 0.0
C1286 C 0.75257 0.03821 0.58317 0.0
C1287 C 0.78765 0.05846 0.56643 0.0
C1288 C 0.80219 0.04625 0.58319 0.0
C1289 C 0.76235 0.05524 0.56687 0.0
H1290 H 0.7602 0.01448 0.61327 0.0
H1291 H 0.82132 0.05025 0.58405 0.0
O1292 O 0.84381 0.01005 0.67871 0.0
O1293 O 0.80213 0.99047 0.64441 0.0
O1294 O 0.80836 0.04554 0.6533 0.0
O1295 O 0.84661 0.01758 0.62394 0.0
H1296 H 0.81669 0.97132 0.6879 0.0
H1297 H 0.87929 0.012 0.71083 0.0
H1298 H 0.82425 0.94211 0.72126 0.0
H1299 H 0.88579 0.98201 0.74384 0.0
H1300 H 0.79389 0.94731 0.57455 0.0
H1301 H 0.78003 0.9522 0.66292 0.0
H1302 H 0.80733 0.9839 0.59699 0.0
H1303 H 0.76687 0.91617 0.63928 0.0
H1304 H 0.78035 0.01724 0.75758 0.0
H1305 H 0.72904 0.99063 0.70447 0.0
H1306 H 0.91709 0.95152 0.63836 0.0
H1307 H 0.85854 0.9042 0.66063 0.0
H1308 H 0.77239 0.07678 0.64867 0.0
H1309 H 0.83212 0.05509 0.69411 0.0
H1310 H 0.76275 0.10944 0.67822 0.0
H1311 H 0.82146 0.08806 0.72279 0.0
H1312 H 0.86893 0.05436 0.60268 0.0
H1313 H 0.85023 0.97886 0.59555 0.0
H1314 H 0.88933 0.05237 0.5626 0.0
H1315 H 0.8707 0.97826 0.55551 0.0
H1316 H 0.92573 0.06742 0.67094 0.0
H1317 H 0.8769 0.1183 0.63643 0.0
H1318 H 0.73317 0.03539 0.58444 0.0
H1319 H 0.79602 0.07122 0.55406 0.0
Li1320 Li 0.01175 0.83911 0.64735 0.0
Li1321 Li 0.99007 0.80946 0.66984 0.0
Li1322 Li 0.98332 0.81093 0.62684 0.0
Li1323 Li 0.96721 0.84418 0.65426 0.0
C1324 C 0.03252 0.79673 0.62846 0.0
N1325 N 0.06962 0.78405 0.5972 0.0
C1326 C 0.05193 0.78267 0.63675 0.0
C1327 C 0.03191 0.80421 0.60425 0.0
C1328 C 0.07054 0.77649 0.62067 0.0
C1329 C 0.05085 0.79765 0.58873 0.0
C1330 C 0.01013 0.84758 0.69695 0.0
C1331 C 0.02379 0.86972 0.73212 0.0
N1332 N 0.04331 0.85472 0.73383 0.0
C1333 C 0.03033 0.83238 0.69904 0.0
C1334 C 0.00682 0.86641 0.71359 0.0
C1335 C 0.04689 0.83629 0.71782 0.0
C1336 C 0.03621 0.883 0.64375 0.0
N1337 N 0.04024 0.85879 0.64599 0.0
C1338 C 0.08265 0.86574 0.65213 0.0
C1339 C 0.06291 0.84991 0.64999 0.0
C1340 C 0.07898 0.89093 0.65027 0.0
C1341 C 0.05537 0.89942 0.64565 0.0
H1342 H 0.01792 0.88958 0.64104 0.0
H1343 H 0.06558 0.83066 0.65244 0.0
C1344 C 0.00342 0.76521 0.69092 0.0
N1345 N 0.99309 0.78697 0.69616 0.0
C1346 C 0.00713 0.74806 0.70918 0.0
C1347 C 0.98931 0.77592 0.73797 0.0
C1348 C 0.98598 0.7926 0.71911 0.0
C1349 C 1.00014 0.75331 0.73313 0.0
H1350 H 0.00879 0.76119 0.67248 0.0
H1351 H 0.9779 0.8101 0.72279 0.0
C1352 C 0.98563 0.86053 0.60324 0.0
N1353 N 0.98453 0.88888 0.56187 0.0
C1354 C 0.96376 0.87052 0.59518 0.0
C1355 C 0.00699 0.86518 0.59037 0.0
C1356 C 0.96356 0.88473 0.57419 0.0
C1357 C 0.00605 0.87949 0.56947 0.0
C1358 C 0.94551 0.79455 0.66759 0.0
C1359 C 0.94614 0.76947 0.66396 0.0
C1360 C 0.93264 0.80413 0.68722 0.0
C1361 C 0.93397 0.75431 0.68023 0.0
C1362 C 0.92068 0.78836 0.70306 0.0
N1363 N 0.92162 0.76399 0.69928 0.0
C1364 C 0.97768 0.76808 0.59909 0.0
C1365 C 0.95874 0.80292 0.58252 0.0
C1366 C 0.96565 0.75313 0.58246 0.0
N1367 N 0.97349 0.79238 0.59923 0.0
C1368 C 0.94648 0.78871 0.56551 0.0
C1369 C 0.94908 0.76334 0.56594 0.0
H1370 H 0.98909 0.76012 0.61294 0.0
H1371 H 0.95527 0.82216 0.58333 0.0
C1372 C 0.94843 0.89057 0.66365 0.0
N1373 N 0.94227 0.86778 0.65661 0.0
C1374 C 0.93151 0.90937 0.66223 0.0
C1375 C 0.90208 0.88081 0.64672 0.0
C1376 C 0.91955 0.8625 0.64859 0.0
C1377 C 0.90807 0.90476 0.65318 0.0
H1378 H 0.96674 0.89425 0.66969 0.0
H1379 H 0.91533 0.84426 0.64268 0.0
O1380 O 0.01422 0.80283 0.64408 0.0
O1381 O 0.99373 0.84428 0.67861 0.0
O1382 O 0.98619 0.84686 0.62398 0.0
O1383 O 0.9579 0.80965 0.65233 0.0
H1384 H 0.05264 0.7767 0.65545 0.0
H1385 H 0.01693 0.8148 0.59743 0.0
H1386 H 0.0857 0.76568 0.62686 0.0
H1387 H 0.0506 0.80333 0.56994 0.0
H1388 H 0.02146 0.88423 0.74513 0.0
H1389 H 0.03325 0.81776 0.6863 0.0
H1390 H 0.99129 0.87835 0.71216 0.0
H1391 H 0.06261 0.82468 0.71964 0.0
H1392 H 0.10043 0.85835 0.65601 0.0
H1393 H 0.05166 0.91861 0.64364 0.0
H1394 H 0.0151 0.73073 0.70448 0.0
H1395 H 0.9838 0.78083 0.75618 0.0
H1396 H 0.94706 0.86716 0.60489 0.0
H1397 H 0.02417 0.85794 0.59648 0.0
H1398 H 0.94673 0.89246 0.5677 0.0
H1399 H 0.02243 0.88319 0.55933 0.0
H1400 H 0.95615 0.7618 0.64892 0.0
H1401 H 0.93212 0.82352 0.69031 0.0
H1402 H 0.93441 0.73485 0.67775 0.0
H1403 H 0.91075 0.79549 0.71841 0.0
H1404 H 0.968 0.73367 0.58374 0.0
H1405 H 0.93411 0.79741 0.55296 0.0
H1406 H 0.93687 0.9274 0.66791 0.0
H1407 H 0.88439 0.87639 0.63942 0.0
Li1408 Li 0.37834 0.19206 0.0204 0.0
Li1409 Li 0.35192 0.16046 0.03643 0.0
Li1410 Li 0.35731 0.16347 0.99235 0.0
Li1411 Li 0.33283 0.19319 0.01379 0.0
C1412 C 0.40377 0.15042 0.00644 0.0
N1413 N 0.44663 0.13796 0.98365 0.0
C1414 C 0.41561 0.12885 0.01251 0.0
C1415 C 0.41371 0.16566 0.98878 0.0
C1416 C 0.43727 0.12287 1.00079 0.0
C1417 C 0.43539 0.15904 0.97746 0.0
C1418 C 0.3488 0.19449 0.06914 0.0
C1419 C 0.32311 0.19264 0.10452 0.0
N1420 N 0.34313 0.19101 0.11884 0.0
C1421 C 0.36913 0.19301 0.08422 0.0
C1422 C 0.3256 0.19448 0.07936 0.0
C1423 C 0.36589 0.19119 0.1093 0.0
C1424 C 0.40425 0.23583 0.02646 0.0
N1425 N 0.40571 0.21135 0.02907 0.0
C1426 C 0.44102 0.21529 0.05395 0.0
C1427 C 0.42402 0.20088 0.04187 0.0
C1428 C 0.4391 0.2407 0.05288 0.0
C1429 C 0.42098 0.25094 0.03813 0.0
H1430 H 0.38914 0.24366 0.01669 0.0
H1431 H 0.42441 0.1814 0.04416 0.0
C1432 C 0.33088 0.12429 0.06751 0.0
N1433 N 0.35107 0.13744 0.06235 0.0
C1434 C 0.33188 0.10553 0.08454 0.0
C1435 C 0.37431 0.11446 0.09097 0.0
C1436 C 0.37249 0.13302 0.07379 0.0
C1437 C 0.35394 0.1001 0.09623 0.0
H1438 H 0.31419 0.12781 0.05787 0.0
H1439 H 0.38839 0.14346 0.06898 0.0
C1440 C 0.35921 0.20795 0.96705 0.0
N1441 N 0.35848 0.22472 0.91981 0.0
C1442 C 0.3405 0.20109 0.95138 0.0
C1443 C 0.37763 0.22322 0.95867 0.0
C1444 C 0.34044 0.20978 0.92757 0.0
C1445 C 0.37692 0.23155 0.93473 0.0
C1446 C 0.30242 0.15618 0.00734 0.0
C1447 C 0.29299 0.15091 0.98437 0.0
C1448 C 0.2866 0.16011 0.02676 0.0
C1449 C 0.26787 0.1498 0.98122 0.0
C1450 C 0.26159 0.15888 0.02286 0.0
N1451 N 0.25282 0.1538 1.00036 0.0
C1452 C 0.3478 0.12193 0.96634 0.0
C1453 C 0.37022 0.14993 0.94266 0.0
C1454 C 0.34593 0.10607 0.94673 0.0
N1455 N 0.35925 0.14362 0.96387 0.0
C1456 C 0.36888 0.13448 0.9225 0.0
C1457 C 0.35623 0.11237 0.9243 0.0
H1458 H 0.33968 0.11714 0.98354 0.0
H1459 H 0.37973 0.16702 0.94124 0.0
C1460 C 0.30428 0.23382 0.02721 0.0
N1461 N 0.30615 0.21561 0.01066 0.0
C1462 C 0.2864 0.25167 0.02473 0.0
C1463 C 0.27253 0.2317 0.9883 0.0
C1464 C 0.29067 0.2143 0.99147 0.0
C1465 C 0.27032 0.25089 0.00491 0.0
H1466 H 0.31699 0.23478 0.04212 0.0
H1467 H 0.2926 0.20006 0.97824 0.0
O1468 O 0.38249 0.15638 0.01769 0.0
O1469 O 0.3516 0.19579 0.04451 0.0
O1470 O 0.35978 0.19951 0.99037 0.0
O1471 O 0.32699 0.15744 0.0108 0.0
H1472 H 0.4081 0.11686 0.02615 0.0
H1473 H 0.40484 0.18243 0.98386 0.0
H1474 H 0.44664 0.10623 0.00531 0.0
H1475 H 0.44329 0.17066 0.96376 0.0
H1476 H 0.30525 0.19252 0.11266 0.0
H1477 H 0.3872 0.19298 0.07665 0.0
H1478 H 0.30968 0.19594 0.068 0.0
H1479 H 0.38146 0.18985 0.12117 0.0
H1480 H 0.45474 0.20667 0.06505 0.0
H1481 H 0.41861 0.27042 0.03709 0.0
H1482 H 0.31564 0.0951 0.08822 0.0
H1483 H 0.39173 0.11077 0.09925 0.0
H1484 H 0.32659 0.18865 0.95734 0.0
H1485 H 0.39233 0.22856 0.97054 0.0
H1486 H 0.32614 0.2045 0.91521 0.0
H1487 H 0.39104 0.2434 0.928 0.0
H1488 H 0.30487 0.14807 0.96903 0.0
H1489 H 0.29354 0.16416 0.04463 0.0
H1490 H 0.26033 0.14588 0.96352 0.0
H1491 H 0.24916 0.16198 0.03773 0.0
H1492 H 0.33662 0.08895 0.9492 0.0
H1493 H 0.37722 0.14 0.90559 0.0
H1494 H 0.28527 0.26598 0.03814 0.0
H1495 H 0.26086 0.23052 0.97254 0.0
Li1496 Li 0.35659 0.83743 0.01143 0.0
Li1497 Li 0.33232 0.80788 0.9898 0.0
Li1498 Li 0.37805 0.80904 0.98368 0.0
Li1499 Li 0.35144 0.84083 0.96735 0.0
C1500 C 0.36084 0.7941 0.03708 0.0
N1501 N 0.36456 0.77947 0.0849 0.0
C1502 C 0.34251 0.79983 0.05362 0.0
C1503 C 0.38107 0.78093 0.04485 0.0
C1504 C 0.34472 0.79228 0.07772 0.0
C1505 C 0.38261 0.77369 0.0691 0.0
C1506 C 0.3018 0.84442 0.99667 0.0
C1507 C 0.26082 0.8422 0.98147 0.0
N1508 N 0.25226 0.84587 0.00432 0.0
C1509 C 0.29259 0.84825 0.02 0.0
C1510 C 0.28579 0.84146 0.97723 0.0
C1511 C 0.2675 0.84891 0.02349 0.0
C1512 C 0.34613 0.87865 0.03775 0.0
N1513 N 0.35852 0.85745 0.03991 0.0
C1514 C 0.36926 0.8673 0.08086 0.0
C1515 C 0.37055 0.8518 0.06073 0.0
C1516 C 0.35566 0.88887 0.07941 0.0
C1517 C 0.34432 0.89457 0.05732 0.0
H1518 H 0.33728 0.88306 0.0208 0.0
H1519 H 0.38092 0.83521 0.06188 0.0
C1520 C 0.30287 0.76821 0.9751 0.0
N1521 N 0.30562 0.78545 0.99255 0.0
C1522 C 0.28493 0.75039 0.97735 0.0
C1523 C 0.27282 0.76838 0.0154 0.0
C1524 C 0.29101 0.78578 0.01245 0.0
C1525 C 0.26971 0.75019 0.99784 0.0
H1526 H 0.31495 0.76797 0.95965 0.0
H1527 H 0.2937 0.79921 0.02637 0.0
C1528 C 0.40248 0.85228 0.99758 0.0
N1529 N 0.444 0.86817 0.02069 0.0
C1530 C 0.41181 0.8753 0.99255 0.0
C1531 C 0.41422 0.83734 0.01436 0.0
C1532 C 0.43285 0.883 0.00441 0.0
C1533 C 0.43519 0.8457 0.02587 0.0
C1534 C 0.34883 0.80687 0.93456 0.0
C1535 C 0.36927 0.80727 0.91957 0.0
C1536 C 0.32571 0.80814 0.92423 0.0
C1537 C 0.36625 0.80926 0.89448 0.0
C1538 C 0.32343 0.81011 0.89906 0.0
N1539 N 0.34358 0.81066 0.88483 0.0
C1540 C 0.40436 0.76549 0.97746 0.0
C1541 C 0.42387 0.80073 0.96239 0.0
C1542 C 0.42129 0.75062 0.96578 0.0
N1543 N 0.4056 0.79 0.97502 0.0
C1544 C 0.44104 0.78655 0.95027 0.0
C1545 C 0.43936 0.76113 0.95117 0.0
H1546 H 0.38928 0.75745 0.98713 0.0
H1547 H 0.42408 0.82023 0.96024 0.0
C1548 C 0.33087 0.8777 0.93687 0.0
N1549 N 0.35078 0.86393 0.9415 0.0
C1550 C 0.33202 0.89647 0.91985 0.0
C1551 C 0.37399 0.8863 0.91237 0.0
C1552 C 0.37204 0.86776 0.92956 0.0
C1553 C 0.35393 0.90127 0.90763 0.0
H1554 H 0.31433 0.87465 0.94692 0.0
H1555 H 0.38775 0.85685 0.93398 0.0
O1556 O 0.35904 0.80123 0.01337 0.0
O1557 O 0.32634 0.84361 0.99286 0.0
O1558 O 0.38179 0.8446 0.98628 0.0
O1559 O 0.35143 0.80547 0.95921 0.0
H1560 H 0.32707 0.81054 0.04808 0.0
H1561 H 0.39543 0.77632 0.03226 0.0
H1562 H 0.33075 0.79675 0.09076 0.0
H1563 H 0.39816 0.76348 0.07536 0.0
H1564 H 0.24824 0.83984 0.96659 0.0
H1565 H 0.30462 0.85029 0.03535 0.0
H1566 H 0.29255 0.83855 0.95907 0.0
H1567 H 0.26013 0.85172 0.04147 0.0
H1568 H 0.37845 0.86224 0.09747 0.0
H1569 H 0.33428 0.9113 0.05506 0.0
H1570 H 0.28309 0.73685 0.96323 0.0
H1571 H 0.26184 0.76876 0.03169 0.0
H1572 H 0.40287 0.88708 0.97961 0.0
H1573 H 0.40719 0.81952 0.0185 0.0
H1574 H 0.4403 0.90077 1.0007 0.0
H1575 H 0.44445 0.83434 0.03892 0.0
H1576 H 0.38729 0.80632 0.92722 0.0
H1577 H 0.30969 0.80757 0.93552 0.0
H1578 H 0.38192 0.80975 0.88268 0.0
H1579 H 0.30564 0.8112 0.89084 0.0
H1580 H 0.41911 0.73111 0.96669 0.0
H1581 H 0.45473 0.79538 0.93927 0.0
H1582 H 0.31601 0.90738 0.91659 0.0
H1583 H 0.39131 0.8895 0.90367 0.0
Li1584 Li 0.16474 0.35673 0.00991 0.0
Li1585 Li 0.19552 0.33309 0.98935 0.0
Li1586 Li 0.19382 0.37665 0.98109 0.0
Li1587 Li 0.16218 0.34999 0.96698 0.0
C1588 C 0.2074 0.37649 0.0301 0.0
N1589 N 0.22044 0.40996 0.0651 0.0
C1590 C 0.22435 0.37035 0.04793 0.0
C1591 C 0.19711 0.39969 0.03002 0.0
C1592 C 0.23068 0.38752 0.06548 0.0
C1593 C 0.20394 0.41633 0.04788 0.0
C1594 C 0.15783 0.30719 0.00957 0.0
C1595 C 0.13801 0.27065 0.02319 0.0
N1596 N 0.15198 0.27079 0.04354 0.0
C1597 C 0.172 0.30698 0.03063 0.0
C1598 C 0.1407 0.2889 0.00581 0.0
C1599 C 0.16876 0.28842 0.04758 0.0
C1600 C 0.12185 0.34957 0.03469 0.0
N1601 N 0.14481 0.35774 0.03847 0.0
C1602 C 0.13701 0.36152 0.08106 0.0
C1603 C 0.15266 0.36361 0.06115 0.0
C1604 C 0.1132 0.353 0.07763 0.0
C1605 C 0.1057 0.3471 0.05401 0.0
H1606 H 0.1162 0.34456 0.01657 0.0
H1607 H 0.17114 0.36938 0.06399 0.0
C1608 C 0.24039 0.31281 0.00173 0.0
N1609 N 0.21799 0.30694 0.99326 0.0
C1610 C 0.2577 0.29475 0.0058 0.0
C1611 C 0.22862 0.26487 0.99226 0.0
C1612 C 0.21185 0.28353 0.98845 0.0
C1613 C 0.25194 0.27035 1.0011 0.0
H1614 H 0.2448 0.33159 0.00532 0.0
H1615 H 0.19388 0.2793 0.98183 0.0
C1616 C 0.13995 0.39237 0.97218 0.0
N1617 N 0.1023 0.41275 0.94606 0.0
C1618 C 0.14413 0.40185 0.94902 0.0
C1619 C 0.11668 0.39356 0.98218 0.0
C1620 C 0.12484 0.412 0.93608 0.0
C1621 C 0.09787 0.40386 0.96866 0.0
C1622 C 0.20176 0.33323 0.93967 0.0
C1623 C 0.22088 0.3373 0.92353 0.0
C1624 C 0.188 0.31201 0.93773 0.0
C1625 C 0.22592 0.32004 0.90566 0.0
C1626 C 0.19362 0.29519 0.91962 0.0
N1627 N 0.2123 0.29952 0.90409 0.0
C1628 C 0.23798 0.39927 0.97098 0.0
C1629 C 0.20408 0.42499 0.96478 0.0
C1630 C 0.25339 0.41624 0.96015 0.0
N1631 N 0.21375 0.40363 0.97247 0.0
C1632 C 0.21875 0.44225 0.95335 0.0
C1633 C 0.24362 0.43763 0.95036 0.0
H1634 H 0.24511 0.38201 0.97702 0.0
H1635 H 0.18481 0.42814 0.9664 0.0
C1636 C 0.11579 0.34027 0.94877 0.0
N1637 N 0.13863 0.34616 0.94166 0.0
C1638 C 0.09657 0.34147 0.93232 0.0
C1639 C 0.1249 0.35369 0.90116 0.0
C1640 C 0.14361 0.3523 0.91827 0.0
C1641 C 0.10089 0.34881 0.90826 0.0
H1642 H 0.11234 0.33569 0.96755 0.0
H1643 H 0.16186 0.35739 0.9132 0.0
O1644 O 0.20129 0.35988 0.01269 0.0
O1645 O 0.16044 0.32523 0.99271 0.0
O1646 O 0.15847 0.38177 0.9849 0.0
O1647 O 0.19681 0.34994 0.95734 0.0
H1648 H 0.2325 0.35249 0.0482 0.0
H1649 H 0.18401 0.40486 0.01639 0.0
H1650 H 0.24377 0.38301 0.07941 0.0
H1651 H 0.19612 0.43433 0.04806 0.0
H1652 H 0.1248 0.25638 0.02052 0.0
H1653 H 0.18532 0.32097 0.03394 0.0
H1654 H 0.12957 0.28886 0.98962 0.0
H1655 H 0.17958 0.28804 0.06395 0.0
H1656 H 0.14365 0.36601 0.099 0.0
H1657 H 0.08745 0.34077 0.05041 0.0
H1658 H 0.27553 0.29993 0.01222 0.0
H1659 H 0.22327 0.24633 0.9886 0.0
H1660 H 0.16194 0.40077 0.94085 0.0
H1661 H 0.11314 0.3866 1.00016 0.0
H1662 H 0.12777 0.41911 0.91802 0.0
H1663 H 0.07974 0.40477 0.97612 0.0
H1664 H 0.23172 0.35363 0.92484 0.0
H1665 H 0.17315 0.3085 0.95004 0.0
H1666 H 0.24067 0.32295 0.89304 0.0
H1667 H 0.18313 0.27869 0.91792 0.0
H1668 H 0.27242 0.4119 0.95792 0.0
H1669 H 0.21062 0.45859 0.94606 0.0
H1670 H 0.07846 0.33708 0.93851 0.0
H1671 H 0.12905 0.3596 0.88289 0.0
Li1672 Li 0.66947 0.19434 0.98903 0.0
Li1673 Li 0.64492 0.16462 0.01044 0.0
Li1674 Li 0.6504 0.16161 0.96638 0.0
Li1675 Li 0.62394 0.19321 0.98238 0.0
C1676 C 0.69972 0.15738 0.9963 0.0
N1677 N 0.74908 0.15507 0.00484 0.0
C1678 C 0.70843 0.15246 0.01962 0.0
C1679 C 0.71613 0.16098 0.97731 0.0
C1680 C 0.73344 0.15139 0.02357 0.0
C1681 C 0.74101 0.1598 0.982 0.0
C1682 C 0.64247 0.20923 0.0357 0.0
C1683 C 0.62375 0.23268 0.06755 0.0
N1684 N 0.64208 0.22635 0.08282 0.0
C1685 C 0.66106 0.20288 0.05171 0.0
C1686 C 0.6236 0.22418 0.04366 0.0
C1687 C 0.66056 0.21174 0.07546 0.0
C1688 C 0.69838 0.23463 0.97531 0.0
N1689 N 0.69618 0.21676 0.99218 0.0
C1690 C 0.72935 0.23332 0.01488 0.0
C1691 C 0.7113 0.21582 0.01168 0.0
C1692 C 0.73187 0.25219 0.99794 0.0
C1693 C 0.7162 0.25253 0.97778 0.0
H1694 H 0.68596 0.23528 0.96013 0.0
H1695 H 0.70915 0.20182 0.02512 0.0
C1696 C 0.65363 0.12264 0.03587 0.0
N1697 N 0.64286 0.14462 0.03878 0.0
C1698 C 0.65538 0.1065 0.05526 0.0
C1699 C 0.63382 0.13534 0.08025 0.0
C1700 C 0.63248 0.151 0.06026 0.0
C1701 C 0.64575 0.11286 0.07798 0.0
H1702 H 0.6613 0.11782 0.01846 0.0
H1703 H 0.62343 0.1683 0.06203 0.0
C1704 C 0.65359 0.19535 0.93367 0.0
N1705 N 0.65938 0.1911 0.88405 0.0
C1706 C 0.63329 0.19424 0.91851 0.0
C1707 C 0.67683 0.19455 0.92358 0.0
C1708 C 0.6366 0.19203 0.89347 0.0
C1709 C 0.67938 0.19233 0.89845 0.0
C1710 C 0.59851 0.15142 0.99615 0.0
C1711 C 0.58672 0.12992 0.98977 0.0
C1712 C 0.58849 0.16645 0.01395 0.0
C1713 C 0.56501 0.12379 0.00134 0.0
C1714 C 0.56677 0.15968 0.0251 0.0
N1715 N 0.55557 0.13867 0.01862 0.0
C1716 C 0.67154 0.12545 0.93538 0.0
C1717 C 0.6299 0.13402 0.92909 0.0
C1718 C 0.67058 0.10659 0.91843 0.0
N1719 N 0.65131 0.13854 0.9405 0.0
C1720 C 0.62812 0.11537 0.912 0.0
C1721 C 0.64852 0.10103 0.9068 0.0
H1722 H 0.68823 0.12908 0.94497 0.0
H1723 H 0.61397 0.14445 0.93385 0.0
C1724 C 0.59793 0.23693 0.97631 0.0
N1725 N 0.59653 0.21245 0.97371 0.0
C1726 C 0.58109 0.25199 0.96475 0.0
C1727 C 0.56108 0.21629 0.94903 0.0
C1728 C 0.57819 0.20193 0.961 0.0
C1729 C 0.56291 0.2417 0.9501 0.0
H1730 H 0.61306 0.24481 0.98601 0.0
H1731 H 0.57785 0.18245 0.9587 0.0
O1732 O 0.67528 0.15858 0.99205 0.0
O1733 O 0.64248 0.20067 0.0124 0.0
O1734 O 0.65072 0.19695 0.95827 0.0
O1735 O 0.61983 0.15755 0.98504 0.0
H1736 H 0.69608 0.14986 0.03463 0.0
H1737 H 0.70976 0.16476 0.95917 0.0
H1738 H 0.74042 0.14774 0.04155 0.0
H1739 H 0.7539 0.16266 0.96748 0.0
H1740 H 0.60927 0.24429 0.07397 0.0
H1741 H 0.67531 0.19069 0.04609 0.0
H1742 H 0.60899 0.22914 0.03152 0.0
H1743 H 0.67476 0.20685 0.08809 0.0
H1744 H 0.74071 0.23246 0.03089 0.0
H1745 H 0.7176 0.26655 0.96409 0.0
H1746 H 0.66409 0.08913 0.05238 0.0
H1747 H 0.62601 0.14097 0.09737 0.0
H1748 H 0.61519 0.19481 0.926 0.0
H1749 H 0.69272 0.19565 0.93501 0.0
H1750 H 0.62105 0.191 0.88154 0.0
H1751 H 0.69727 0.1916 0.89041 0.0
H1752 H 0.59428 0.11809 0.97603 0.0
H1753 H 0.59734 0.18316 0.0191 0.0
H1754 H 0.55567 0.10719 0.99658 0.0
H1755 H 0.55882 0.17114 0.03891 0.0
H1756 H 0.68685 0.09621 0.91478 0.0
H1757 H 0.6107 0.11159 0.90375 0.0
H1758 H 0.5834 0.27148 0.96578 0.0
H1759 H 0.54731 0.20762 0.938 0.0
Li1760 Li 0.80763 0.67049 0.98865 0.0
Li1761 Li 0.83739 0.64612 0.0102 0.0
Li1762 Li 0.84049 0.65153 0.96613 0.0
Li1763 Li 0.80899 0.62493 0.98216 0.0
C1764 C 0.84436 0.70091 0.99614 0.0
N1765 N 0.84626 0.75024 0.00498 0.0
C1766 C 0.84903 0.70952 0.01956 0.0
C1767 C 0.8408 0.71741 0.97722 0.0
C1768 C 0.8499 0.73452 0.02365 0.0
C1769 C 0.84177 0.74227 0.98206 0.0
C1770 C 0.79287 0.64318 0.03541 0.0
C1771 C 0.76989 0.62376 0.06719 0.0
N1772 N 0.77588 0.64211 0.08257 0.0
C1773 C 0.79886 0.66179 0.05154 0.0
C1774 C 0.77833 0.62396 0.04328 0.0
C1775 C 0.79008 0.66094 0.0753 0.0
C1776 C 0.76735 0.69928 0.9746 0.0
N1777 N 0.78507 0.69709 0.99163 0.0
C1778 C 0.76822 0.73016 0.01426 0.0
C1779 C 0.78578 0.71216 0.01118 0.0
C1780 C 0.74951 0.73268 0.99714 0.0
C1781 C 0.74938 0.71706 0.97695 0.0
H1782 H 0.76688 0.68691 0.95939 0.0
H1783 H 0.79966 0.71 0.02475 0.0
C1784 C 0.87928 0.65504 0.03575 0.0
N1785 N 0.85735 0.64416 0.03859 0.0
C1786 C 0.89538 0.65679 0.05517 0.0
C1787 C 0.86659 0.63504 0.08004 0.0
C1788 C 0.85098 0.63368 0.06002 0.0
C1789 C 0.88903 0.64707 0.07785 0.0
H1790 H 0.88411 0.66277 0.01837 0.0
H1791 H 0.83374 0.62451 0.06172 0.0
C1792 C 0.80686 0.65445 0.93335 0.0
N1793 N 0.81133 0.66018 0.88374 0.0
C1794 C 0.80798 0.63413 0.91822 0.0
C1795 C 0.80778 0.67768 0.92324 0.0
C1796 C 0.8103 0.6374 0.89319 0.0
C1797 C 0.8101 0.6802 0.89812 0.0
C1798 C 0.85104 0.5998 0.99598 0.0
C1799 C 0.87273 0.58832 0.98967 0.0
C1800 C 0.8361 0.58956 0.01373 0.0
C1801 C 0.87914 0.5667 0.00125 0.0
C1802 C 0.84315 0.56794 0.02491 0.0
N1803 N 0.86434 0.55705 0.01849 0.0
C1804 C 0.87643 0.67282 0.93495 0.0
C1805 C 0.86831 0.63103 0.92902 0.0
C1806 C 0.89527 0.67192 0.91799 0.0
N1807 N 0.86357 0.65248 0.94027 0.0
C1808 C 0.88696 0.62931 0.91194 0.0
C1809 C 0.90107 0.64983 0.90654 0.0
H1810 H 0.8726 0.68955 0.9444 0.0
H1811 H 0.85805 0.61503 0.93392 0.0
C1812 C 0.76542 0.5987 0.97615 0.0
N1813 N 0.7899 0.5974 0.97356 0.0
C1814 C 0.75044 0.58175 0.96464 0.0
C1815 C 0.78624 0.56187 0.94898 0.0
C1816 C 0.80051 0.57908 0.9609 0.0
C1817 C 0.76082 0.56358 0.95005 0.0
H1818 H 0.75746 0.61382 0.98581 0.0
H1819 H 0.81999 0.57883 0.95861 0.0
O1820 O 0.84335 0.67649 0.99175 0.0
O1821 O 0.80133 0.64355 0.01208 0.0
O1822 O 0.80516 0.65162 0.95795 0.0
O1823 O 0.84464 0.62103 0.98487 0.0
H1824 H 0.85158 0.69711 0.03452 0.0
H1825 H 0.8372 0.71111 0.95901 0.0
H1826 H 0.85336 0.74142 0.0417 0.0
H1827 H 0.83894 0.75522 0.96759 0.0
H1828 H 0.7586 0.609 0.07353 0.0
H1829 H 0.81073 0.67634 0.04598 0.0
H1830 H 0.77363 0.60933 0.03105 0.0
H1831 H 0.7947 0.67516 0.08802 0.0
H1832 H 0.7689 0.74148 0.0303 0.0
H1833 H 0.73549 0.71846 0.96313 0.0
H1834 H 0.91273 0.66557 0.05235 0.0
H1835 H 0.86096 0.62716 0.09713 0.0
H1836 H 0.80733 0.61604 0.92573 0.0
H1837 H 0.80669 0.69359 0.93465 0.0
H1838 H 0.81134 0.62184 0.88128 0.0
H1839 H 0.81092 0.69807 0.89005 0.0
H1840 H 0.88449 0.59606 0.97597 0.0
H1841 H 0.81926 0.59818 0.01882 0.0
H1842 H 0.89588 0.55761 0.99655 0.0
H1843 H 0.83177 0.55982 0.03868 0.0
H1844 H 0.90545 0.68828 0.91418 0.0
H1845 H 0.89092 0.61185 0.90384 0.0
H1846 H 0.73094 0.58397 0.96566 0.0
H1847 H 0.79497 0.54811 0.93799 0.0
Li1848 Li 0.65122 0.84093 0.0345 0.0
Li1849 Li 0.62397 0.80826 0.02027 0.0
Li1850 Li 0.66674 0.80714 0.01205 0.0
Li1851 Li 0.64387 0.83754 0.99129 0.0
C1852 C 0.66706 0.79338 0.05689 0.0
N1853 N 0.70196 0.7661 0.08033 0.0
C1854 C 0.6646 0.7682 0.05846 0.0
C1855 C 0.6872 0.80472 0.06732 0.0
C1856 C 0.68247 0.75472 0.07035 0.0
C1857 C 0.70465 0.7906 0.0791 0.0
C1858 C 0.60874 0.86342 0.02805 0.0
C1859 C 0.5969 0.90555 0.02852 0.0
N1860 N 0.5888 0.90291 0.05168 0.0
C1861 C 0.60004 0.86107 0.05177 0.0
C1862 C 0.60697 0.88579 0.01625 0.0
C1863 C 0.59013 0.88127 0.06344 0.0
C1864 C 0.6599 0.88772 0.0525 0.0
N1865 N 0.65516 0.86459 0.05955 0.0
C1866 C 0.64833 0.87759 0.1004 0.0
C1867 C 0.64996 0.85913 0.08305 0.0
C1868 C 0.65202 0.90186 0.09343 0.0
C1869 C 0.65846 0.9067 0.06921 0.0
H1870 H 0.66372 0.89153 0.03362 0.0
H1871 H 0.64582 0.84061 0.08804 0.0
C1872 C 0.59951 0.76422 0.02838 0.0
N1873 N 0.59672 0.78871 0.02923 0.0
C1874 C 0.58266 0.74903 0.03973 0.0
C1875 C 0.55966 0.78448 0.05136 0.0
C1876 C 0.57678 0.79896 0.03951 0.0
C1877 C 0.56296 0.75923 0.05228 0.0
H1878 H 0.61557 0.75657 0.02008 0.0
H1879 H 0.57473 0.81842 0.03959 0.0
C1880 C 0.69353 0.84419 0.99152 0.0
N1881 N 0.72994 0.84951 0.95749 0.0
C1882 C 0.69347 0.83004 0.97045 0.0
C1883 C 0.71208 0.86104 0.99526 0.0
C1884 C 0.71205 0.833 0.95347 0.0
C1885 C 0.73034 0.86345 0.97785 0.0
C1886 C 0.62328 0.79534 0.97142 0.0
C1887 C 0.62889 0.77877 0.95305 0.0
C1888 C 0.60013 0.8057 0.97229 0.0
C1889 C 0.61128 0.7729 0.93578 0.0
C1890 C 0.58302 0.79935 0.95469 0.0
N1891 N 0.5889 0.78323 0.93695 0.0
C1892 C 0.68747 0.76248 0.99889 0.0
C1893 C 0.71619 0.79067 0.01399 0.0
C1894 C 0.70568 0.74529 0.99504 0.0
N1895 N 0.69299 0.78465 0.00817 0.0
C1896 C 0.735 0.77402 0.01042 0.0
C1897 C 0.72988 0.75094 1.00077 0.0
H1898 H 0.66883 0.75814 0.99455 0.0
H1899 H 0.72011 0.80843 0.02134 0.0
C1900 C 0.65205 0.88013 0.96623 0.0
N1901 N 0.64282 0.85753 0.96269 0.0
C1902 C 0.65463 0.89619 0.94686 0.0
C1903 C 0.63797 0.86562 0.92026 0.0
C1904 C 0.63587 0.85001 0.94021 0.0
C1905 C 0.64767 0.88901 0.92343 0.0
H1906 H 0.65775 0.88557 0.98421 0.0
H1907 H 0.62916 0.83182 0.93753 0.0
O1908 O 0.65019 0.80683 0.04467 0.0
O1909 O 0.61917 0.84402 0.01654 0.0
O1910 O 0.67548 0.84183 0.00842 0.0
O1911 O 0.64036 0.80091 0.98855 0.0
H1912 H 0.64919 0.75914 0.05038 0.0
H1913 H 0.6895 0.82417 0.06603 0.0
H1914 H 0.68088 0.7352 0.07159 0.0
H1915 H 0.7204 0.79911 0.08714 0.0
H1916 H 0.59553 0.92299 0.01963 0.0
H1917 H 0.60157 0.84399 0.06133 0.0
H1918 H 0.61326 0.8879 0.99781 0.0
H1919 H 0.58365 0.87977 0.08191 0.0
H1920 H 0.64315 0.87301 0.11879 0.0
H1921 H 0.66193 0.92504 0.06308 0.0
H1922 H 0.58597 0.72966 0.04017 0.0
H1923 H 0.54457 0.79301 0.06062 0.0
H1924 H 0.67926 0.81694 0.96716 0.0
H1925 H 0.71233 0.87216 0.01146 0.0
H1926 H 0.71223 0.82219 0.93709 0.0
H1927 H 0.74482 0.87643 0.98051 0.0
H1928 H 0.64671 0.77055 0.95216 0.0
H1929 H 0.59532 0.81849 0.98633 0.0
H1930 H 0.61539 0.76012 0.92146 0.0
H1931 H 0.56506 0.80723 0.95514 0.0
H1932 H 0.70076 0.72763 0.988 0.0
H1933 H 0.75338 0.77929 0.01491 0.0
H1934 H 0.66186 0.91414 0.95025 0.0
H1935 H 0.63259 0.85926 0.90246 0.0
Li1936 Li 0.16091 0.65242 0.03479 0.0
Li1937 Li 0.19347 0.62507 0.02053 0.0
Li1938 Li 0.19476 0.66785 0.0124 0.0
Li1939 Li 0.16427 0.64517 0.99158 0.0
C1940 C 0.20849 0.66802 0.05727 0.0
N1941 N 0.23586 0.70275 0.08086 0.0
C1942 C 0.23368 0.66553 0.05876 0.0
C1943 C 0.1972 0.6881 0.06785 0.0
C1944 C 0.2472 0.68331 0.07073 0.0
C1945 C 0.21136 0.70547 0.07971 0.0
C1946 C 0.13825 0.61007 0.02825 0.0
C1947 C 0.09603 0.59852 0.02874 0.0
N1948 N 0.09865 0.5903 0.05186 0.0
C1949 C 0.14057 0.60125 0.05193 0.0
C1950 C 0.11584 0.60851 0.01648 0.0
C1951 C 0.12033 0.59142 0.06359 0.0
C1952 C 0.11417 0.66133 0.0528 0.0
N1953 N 0.13726 0.6564 0.05984 0.0
C1954 C 0.12419 0.64941 0.10065 0.0
C1955 C 0.14268 0.65104 0.08332 0.0
C1956 C 0.09995 0.65328 0.09368 0.0
C1957 C 0.09517 0.6599 0.06949 0.0
H1958 H 0.1104 0.66528 0.03394 0.0
H1959 H 0.16117 0.64675 0.0883 0.0
C1960 C 0.23744 0.60048 0.02858 0.0
N1961 N 0.21294 0.59774 0.02944 0.0
C1962 C 0.25261 0.58357 0.03989 0.0
C1963 C 0.21712 0.56062 0.05149 0.0
C1964 C 0.20267 0.5778 0.03969 0.0
C1965 C 0.24237 0.56386 0.05239 0.0
H1966 H 0.24512 0.61653 0.02031 0.0
H1967 H 0.1832 0.57579 0.03979 0.0
C1968 C 0.15788 0.69487 0.99192 0.0
N1969 N 0.1528 0.73141 0.95799 0.0
C1970 C 0.17203 0.69478 0.97085 0.0
C1971 C 0.14115 0.71352 0.99571 0.0
C1972 C 0.16919 0.71342 0.95393 0.0
C1973 C 0.13885 0.73184 0.97834 0.0
C1974 C 0.20639 0.62443 0.97167 0.0
C1975 C 0.2229 0.63005 0.95327 0.0
C1976 C 0.19599 0.6013 0.97254 0.0
C1977 C 0.2287 0.61245 0.93596 0.0
C1978 C 0.20226 0.58421 0.9549 0.0
N1979 N 0.21834 0.59009 0.93713 0.0
C1980 C 0.2394 0.68841 0.999 0.0
C1981 C 0.2116 0.71717 0.01473 0.0
C1982 C 0.2567 0.70653 0.99521 0.0
N1983 N 0.21738 0.69399 0.00857 0.0
C1984 C 0.22838 0.73588 0.01128 0.0
C1985 C 0.25131 0.73069 0.00133 0.0
H1986 H 0.24356 0.66979 0.9944 0.0
H1987 H 0.19393 0.72113 0.02229 0.0
C1988 C 0.12174 0.65362 0.96643 0.0
N1989 N 0.14429 0.64425 0.96294 0.0
C1990 C 0.10571 0.65624 0.94703 0.0
C1991 C 0.13622 0.63934 0.92051 0.0
C1992 C 0.1518 0.63721 0.94048 0.0
C1993 C 0.11287 0.64916 0.92363 0.0
H1994 H 0.11631 0.65939 0.98439 0.0
H1995 H 0.16994 0.63039 0.93784 0.0
O1996 O 0.195 0.65123 0.04498 0.0
O1997 O 0.15769 0.62042 0.01676 0.0
O1998 O 0.16012 0.67677 0.00878 0.0
O1999 O 0.20089 0.6415 0.98885 0.0
H2000 H 0.2427 0.65016 0.05056 0.0
H2001 H 0.17775 0.69043 0.06663 0.0
H2002 H 0.26672 0.6817 0.07191 0.0
H2003 H 0.20289 0.72117 0.08787 0.0
H2004 H 0.07857 0.59731 0.01987 0.0
H2005 H 0.15767 0.60263 0.06148 0.0
H2006 H 0.11375 0.61491 0.99807 0.0
H2007 H 0.12181 0.58486 0.08203 0.0
H2008 H 0.12873 0.64409 0.11901 0.0
H2009 H 0.07686 0.66352 0.06337 0.0
H2010 H 0.27198 0.58684 0.04031 0.0
H2011 H 0.20857 0.54552 0.06072 0.0
H2012 H 0.18504 0.68049 0.96753 0.0
H2013 H 0.13004 0.7138 0.01191 0.0
H2014 H 0.18 0.71357 0.93755 0.0
H2015 H 0.12597 0.7464 0.98104 0.0
H2016 H 0.23115 0.64785 0.95238 0.0
H2017 H 0.18322 0.59649 0.98661 0.0
H2018 H 0.24144 0.61656 0.92161 0.0
H2019 H 0.19435 0.56625 0.95535 0.0
H2020 H 0.27425 0.70157 0.98792 0.0
H2021 H 0.22334 0.75425 0.01609 0.0
H2022 H 0.08779 0.66356 0.95039 0.0
H2023 H 0.14257 0.63388 0.90274 0.0
Li2024 Li 0.80752 0.37763 0.02087 0.0
Li2025 Li 0.84036 0.35052 0.03522 0.0
Li2026 Li 0.83667 0.35761 0.99194 0.0
Li2027 Li 0.80645 0.33487 0.01297 0.0
C2028 C 0.86251 0.3935 0.0281 0.0
N2029 N 0.90174 0.41505 0.05073 0.0
C2030 C 0.86057 0.40162 0.05206 0.0
C2031 C 0.88431 0.39669 0.01555 0.0
C2032 C 0.88064 0.41235 0.06323 0.0
C2033 C 0.90394 0.40757 0.02732 0.0
C2034 C 0.79243 0.33501 0.05765 0.0
C2035 C 0.78884 0.29757 0.07999 0.0
N2036 N 0.76436 0.30061 0.08088 0.0
C2037 C 0.76727 0.33784 0.05888 0.0
C2038 C 0.80335 0.31477 0.06832 0.0
C2039 C 0.75339 0.32021 0.07067 0.0
C2040 C 0.76354 0.40245 0.02835 0.0
N2041 N 0.78804 0.40495 0.02969 0.0
C2042 C 0.78382 0.44173 0.05227 0.0
C2043 C 0.79832 0.42462 0.04044 0.0
C2044 C 0.75853 0.43868 0.05273 0.0
C2045 C 0.74833 0.41929 0.03971 0.0
H2046 H 0.75586 0.38659 0.01971 0.0
H2047 H 0.81779 0.42642 0.04096 0.0
C2048 C 0.88741 0.34255 0.05267 0.0
N2049 N 0.86428 0.34675 0.06004 0.0
C2050 C 0.90653 0.34383 0.06923 0.0
C2051 C 0.87759 0.3528 0.10093 0.0
C2052 C 0.85898 0.35136 0.08371 0.0
C2053 C 0.90183 0.34954 0.09367 0.0
H2054 H 0.89109 0.33921 0.03367 0.0
H2055 H 0.84045 0.35509 0.08897 0.0
C2056 C 0.79443 0.37803 0.97207 0.0
N2057 N 0.78226 0.41218 0.93741 0.0
C2058 C 0.77742 0.37249 0.95411 0.0
C2059 C 0.80522 0.401 0.97244 0.0
C2060 C 0.77152 0.38998 0.93673 0.0
C2061 C 0.79884 0.41799 0.95475 0.0
C2062 C 0.8436 0.30802 0.99246 0.0
C2063 C 0.82928 0.30773 0.97151 0.0
C2064 C 0.86077 0.28976 0.99617 0.0
C2065 C 0.83237 0.28909 0.95463 0.0
C2066 C 0.86331 0.27142 0.97885 0.0
N2067 N 0.84917 0.27147 0.95862 0.0
C2068 C 0.8796 0.35063 0.96737 0.0
C2069 C 0.8487 0.36389 0.94062 0.0
C2070 C 0.89585 0.34809 0.94814 0.0
N2071 N 0.85657 0.35849 0.96339 0.0
C2072 C 0.86443 0.36167 0.92078 0.0
C2073 C 0.88835 0.35352 0.92441 0.0
H2074 H 0.88526 0.34602 0.98559 0.0
H2075 H 0.83015 0.3694 0.93766 0.0
C2076 C 0.76175 0.31419 1.00007 0.0
N2077 N 0.78393 0.30859 0.00924 0.0
C2078 C 0.74452 0.29603 0.99617 0.0
C2079 C 0.77324 0.26657 0.01131 0.0
C2080 C 0.78993 0.28535 0.01494 0.0
C2081 C 0.75015 0.27178 0.00172 0.0
H2082 H 0.75742 0.33285 0.99583 0.0
H2083 H 0.80772 0.28136 0.02221 0.0
O2084 O 0.84323 0.38242 0.01701 0.0
O2085 O 0.80628 0.35163 0.04552 0.0
O2086 O 0.80008 0.36103 0.98927 0.0
O2087 O 0.84115 0.32617 0.00923 0.0
H2088 H 0.84391 0.39913 0.06214 0.0
H2089 H 0.88603 0.39099 0.99688 0.0
H2090 H 0.87948 0.4184 0.08186 0.0
H2091 H 0.92094 0.41008 0.01783 0.0
H2092 H 0.79701 0.28174 0.08822 0.0
H2093 H 0.75854 0.35333 0.05061 0.0
H2094 H 0.82279 0.31221 0.06731 0.0
H2095 H 0.73388 0.32209 0.07164 0.0
H2096 H 0.79236 0.45659 0.0619 0.0
H2097 H 0.72893 0.41617 0.03977 0.0
H2098 H 0.92484 0.34071 0.06286 0.0
H2099 H 0.87311 0.35743 0.11949 0.0
H2100 H 0.76887 0.35481 0.95359 0.0
H2101 H 0.81836 0.40576 0.98618 0.0
H2102 H 0.75838 0.38593 0.92272 0.0
H2103 H 0.80705 0.43582 0.95481 0.0
H2104 H 0.81594 0.32173 0.96825 0.0
H2105 H 0.87204 0.28979 0.01226 0.0
H2106 H 0.82141 0.28864 0.93835 0.0
H2107 H 0.87653 0.25716 0.98149 0.0
H2108 H 0.91417 0.34209 0.95191 0.0
H2109 H 0.85778 0.36577 0.90275 0.0
H2110 H 0.72685 0.30102 0.9892 0.0
H2111 H 0.7785 0.24816 0.01567 0.0
Li2112 Li 0.49474 0.85517 0.66362 0.0
Li2113 Li 0.51696 0.8298 0.69234 0.0
Li2114 Li 0.52276 0.87431 0.69325 0.0
Li2115 Li 0.53949 0.85032 0.66002 0.0
C2116 C 0.47423 0.87082 0.70695 0.0
N2117 N 0.43796 0.90214 0.72163 0.0
C2118 C 0.45871 0.86434 0.72591 0.0
C2119 C 0.4713 0.89323 0.69542 0.0
C2120 C 0.44047 0.88043 0.73308 0.0
C2121 C 0.45286 0.90881 0.70313 0.0
C2122 C 0.51145 0.80164 0.65141 0.0
C2123 C 0.52915 0.76288 0.64151 0.0
N2124 N 0.50658 0.75293 0.6407 0.0
C2125 C 0.48842 0.79112 0.65013 0.0
C2126 C 0.53197 0.78751 0.64678 0.0
C2127 C 0.48635 0.76643 0.64483 0.0
C2128 C 0.46788 0.8643 0.62153 0.0
N2129 N 0.46582 0.8565 0.64481 0.0
C2130 C 0.42448 0.84506 0.6381 0.0
C2131 C 0.44464 0.84722 0.6534 0.0
C2132 C 0.42621 0.85245 0.61371 0.0
C2133 C 0.4482 0.86261 0.60567 0.0
H2134 H 0.48509 0.87115 0.61507 0.0
H2135 H 0.44368 0.84063 0.67187 0.0
C2136 C 0.53084 0.79759 0.73006 0.0
N2137 N 0.51352 0.80214 0.7131 0.0
C2138 C 0.52735 0.77947 0.74743 0.0
C2139 C 0.48832 0.77075 0.72952 0.0
C2140 C 0.49249 0.7892 0.71259 0.0
C2141 C 0.50572 0.76598 0.74752 0.0
H2142 H 0.54702 0.80861 0.73071 0.0
H2143 H 0.47853 0.79384 0.69964 0.0
C2144 C 0.53366 0.89945 0.64901 0.0
N2145 N 0.56208 0.93653 0.63083 0.0
C2146 C 0.55608 0.90471 0.6596 0.0
C2147 C 0.52567 0.91307 0.62918 0.0
C2148 C 0.57019 0.92351 0.65016 0.0
C2149 C 0.5403 0.93175 0.62025 0.0
C2150 C 0.57122 0.8421 0.69804 0.0
C2151 C 0.58785 0.85886 0.70731 0.0
C2152 C 0.57903 0.8188 0.69185 0.0
C2153 C 0.61213 0.85209 0.70993 0.0
C2154 C 0.60346 0.81272 0.69472 0.0
N2155 N 0.61937 0.82936 0.70361 0.0
C2156 C 0.53787 0.89255 0.73728 0.0
C2157 C 0.53024 0.92414 0.70913 0.0
C2158 C 0.54802 0.90895 0.75367 0.0
N2159 N 0.52992 0.90021 0.71525 0.0
C2160 C 0.54056 0.9412 0.72491 0.0
C2161 C 0.55016 0.93354 0.74728 0.0
H2162 H 0.53752 0.87341 0.74158 0.0
H2163 H 0.52359 0.92985 0.69158 0.0
C2164 C 0.55777 0.84083 0.61372 0.0
N2165 N 0.56466 0.84899 0.63595 0.0
C2166 C 0.57375 0.842 0.59408 0.0
C2167 C 0.60384 0.85971 0.62054 0.0
C2168 C 0.5873 0.85811 0.6397 0.0
C2169 C 0.59705 0.85192 0.59722 0.0
H2170 H 0.53958 0.83396 0.61112 0.0
H2171 H 0.59231 0.86507 0.65729 0.0
O2172 O 0.49214 0.85519 0.69982 0.0
O2173 O 0.51383 0.82581 0.65649 0.0
O2174 O 0.51971 0.88087 0.65774 0.0
O2175 O 0.54739 0.84845 0.69525 0.0
H2176 H 0.46074 0.84703 0.73499 0.0
H2177 H 0.48308 0.89859 0.6807 0.0
H2178 H 0.42832 0.87565 0.74773 0.0
H2179 H 0.4504 0.92621 0.69439 0.0
H2180 H 0.54488 0.75171 0.63798 0.0
H2181 H 0.47233 0.80188 0.65337 0.0
H2182 H 0.54988 0.79551 0.64702 0.0
H2183 H 0.46865 0.758 0.64399 0.0
H2184 H 0.40805 0.83687 0.64507 0.0
H2185 H 0.45033 0.86898 0.5872 0.0
H2186 H 0.54127 0.77635 0.76094 0.0
H2187 H 0.47121 0.7611 0.7292 0.0
H2188 H 0.5625 0.89437 0.67497 0.0
H2189 H 0.50835 0.90927 0.62076 0.0
H2190 H 0.58758 0.92774 0.6582 0.0
H2191 H 0.53435 0.94243 0.6049 0.0
H2192 H 0.58211 0.87696 0.7123 0.0
H2193 H 0.56631 0.8055 0.68509 0.0
H2194 H 0.62521 0.86491 0.71697 0.0
H2195 H 0.60976 0.79476 0.68996 0.0
H2196 H 0.55546 0.90214 0.77053 0.0
H2197 H 0.54169 0.96001 0.71938 0.0
H2198 H 0.5678 0.83535 0.57658 0.0
H2199 H 0.62145 0.86777 0.62381 0.0
Li2200 Li 0.14778 0.49583 0.66433 0.0
Li2201 Li 0.17297 0.51801 0.69318 0.0
Li2202 Li 0.12844 0.52405 0.69419 0.0
Li2203 Li 0.15271 0.54053 0.66119 0.0
C2204 C 0.13183 0.47545 0.70783 0.0
N2205 N 0.10035 0.43943 0.72283 0.0
C2206 C 0.13806 0.46033 0.7272 0.0
C2207 C 0.10959 0.47224 0.69605 0.0
C2208 C 0.1219 0.44222 0.73452 0.0
C2209 C 0.09393 0.45394 0.70392 0.0
C2210 C 0.20149 0.51134 0.6538 0.0
C2211 C 0.24171 0.52719 0.64709 0.0
N2212 N 0.25054 0.50416 0.64647 0.0
C2213 C 0.21091 0.48783 0.65278 0.0
C2214 C 0.21694 0.53119 0.65067 0.0
C2215 C 0.23578 0.48457 0.64918 0.0
C2216 C 0.14088 0.46948 0.62159 0.0
N2217 N 0.14654 0.46691 0.64543 0.0
C2218 C 0.15619 0.42501 0.63933 0.0
C2219 C 0.15392 0.44521 0.65457 0.0
C2220 C 0.15082 0.42719 0.61445 0.0
C2221 C 0.14263 0.44977 0.60579 0.0
H2222 H 0.13572 0.48709 0.6147 0.0
H2223 H 0.15897 0.44382 0.67349 0.0
C2224 C 0.20665 0.53251 0.72942 0.0
N2225 N 0.20061 0.51437 0.71384 0.0
C2226 C 0.22487 0.529 0.7467 0.0
C2227 C 0.23071 0.48837 0.73131 0.0
C2228 C 0.21216 0.49256 0.71452 0.0
C2229 C 0.23697 0.50659 0.74798 0.0
H2230 H 0.19677 0.54942 0.72904 0.0
H2231 H 0.20638 0.47811 0.7026 0.0
C2232 C 0.10431 0.53453 0.64807 0.0
N2233 N 0.06891 0.5624 0.62605 0.0
C2234 C 0.09675 0.55627 0.65867 0.0
C2235 C 0.0938 0.52692 0.62628 0.0
C2236 C 0.07885 0.57012 0.64727 0.0
C2237 C 0.07595 0.54127 0.61542 0.0
C2238 C 0.15903 0.57286 0.69803 0.0
C2239 C 0.14104 0.58865 0.70643 0.0
C2240 C 0.18173 0.58205 0.69152 0.0
C2241 C 0.14598 0.61347 0.70783 0.0
C2242 C 0.18596 0.60699 0.69315 0.0
N2243 N 0.16814 0.62205 0.70118 0.0
C2244 C 0.10984 0.53869 0.73829 0.0
C2245 C 0.07856 0.53135 0.70972 0.0
C2246 C 0.09328 0.54878 0.75455 0.0
N2247 N 0.10241 0.53097 0.71609 0.0
C2248 C 0.06135 0.54161 0.72537 0.0
C2249 C 0.06878 0.55107 0.74788 0.0
H2250 H 0.12894 0.53828 0.7428 0.0
H2251 H 0.07305 0.52485 0.69205 0.0
C2252 C 0.16545 0.55972 0.61594 0.0
N2253 N 0.15441 0.56578 0.63714 0.0
C2254 C 0.16485 0.57554 0.59615 0.0
C2255 C 0.14176 0.60381 0.62035 0.0
C2256 C 0.14301 0.58752 0.63976 0.0
C2257 C 0.15242 0.59776 0.59798 0.0
H2258 H 0.17417 0.54223 0.61417 0.0
H2259 H 0.13397 0.59192 0.65654 0.0
O2260 O 0.1475 0.49328 0.70059 0.0
O2261 O 0.1772 0.51489 0.65737 0.0
O2262 O 0.12204 0.52085 0.6588 0.0
O2263 O 0.15452 0.5485 0.69648 0.0
H2264 H 0.15523 0.46259 0.73649 0.0
H2265 H 0.10442 0.48371 0.68101 0.0
H2266 H 0.12648 0.43039 0.7495 0.0
H2267 H 0.07666 0.45126 0.69499 0.0
H2268 H 0.25389 0.54239 0.64473 0.0
H2269 H 0.19918 0.47226 0.65497 0.0
H2270 H 0.20986 0.54948 0.65082 0.0
H2271 H 0.24335 0.46648 0.64856 0.0
H2272 H 0.16288 0.40815 0.64684 0.0
H2273 H 0.13784 0.45235 0.58692 0.0
H2274 H 0.22918 0.54353 0.7592 0.0
H2275 H 0.2393 0.47071 0.73197 0.0
H2276 H 0.10476 0.56248 0.67545 0.0
H2277 H 0.0993 0.51008 0.61785 0.0
H2278 H 0.07292 0.58702 0.65527 0.0
H2279 H 0.06767 0.5356 0.59855 0.0
H2280 H 0.12339 0.58187 0.71169 0.0
H2281 H 0.19595 0.57005 0.68538 0.0
H2282 H 0.1322 0.62591 0.71417 0.0
H2283 H 0.20343 0.61435 0.68809 0.0
H2284 H 0.09992 0.5561 0.77154 0.0
H2285 H 0.04261 0.54284 0.71962 0.0
H2286 H 0.17381 0.57021 0.5795 0.0
H2287 H 0.13172 0.62054 0.62263 0.0
Li2288 Li 0.50736 0.14763 0.66372 0.0
Li2289 Li 0.48533 0.17277 0.69271 0.0
Li2290 Li 0.47947 0.12818 0.69391 0.0
Li2291 Li 0.46265 0.15237 0.66104 0.0
C2292 C 0.52819 0.13186 0.7071 0.0
N2293 N 0.56454 0.10066 0.72184 0.0
C2294 C 0.54352 0.1383 0.72624 0.0
C2295 C 0.53134 0.10956 0.69544 0.0
C2296 C 0.5618 0.12227 0.73342 0.0
C2297 C 0.54983 0.09404 0.70317 0.0
C2298 C 0.49168 0.20127 0.65344 0.0
C2299 C 0.47582 0.24157 0.64732 0.0
N2300 N 0.49885 0.25037 0.64646 0.0
C2301 C 0.51519 0.21065 0.6522 0.0
C2302 C 0.47182 0.21678 0.65073 0.0
C2303 C 0.51844 0.23555 0.64878 0.0
C2304 C 0.53344 0.14112 0.62076 0.0
N2305 N 0.53617 0.14648 0.64465 0.0
C2306 C 0.5781 0.1559 0.63846 0.0
C2307 C 0.55795 0.15363 0.65376 0.0
C2308 C 0.57578 0.15078 0.61354 0.0
C2309 C 0.5531 0.14287 0.6049 0.0
H2310 H 0.51576 0.1362 0.61388 0.0
H2311 H 0.55947 0.15848 0.67272 0.0
C2312 C 0.4709 0.20676 0.72869 0.0
N2313 N 0.48907 0.2005 0.71323 0.0
C2314 C 0.47446 0.22506 0.74586 0.0
C2315 C 0.51516 0.23059 0.73058 0.0
C2316 C 0.51093 0.21195 0.71389 0.0
C2317 C 0.49692 0.23704 0.74715 0.0
H2318 H 0.45393 0.19697 0.72829 0.0
H2319 H 0.52538 0.20603 0.70204 0.0
C2320 C 0.46866 0.10423 0.64752 0.0
N2321 N 0.44061 0.0693 0.62497 0.0
C2322 C 0.44717 0.0962 0.65829 0.0
C2323 C 0.47592 0.09442 0.62529 0.0
C2324 C 0.43323 0.07855 0.64662 0.0
C2325 C 0.46149 0.0768 0.61417 0.0
C2326 C 0.43052 0.1583 0.698 0.0
C2327 C 0.41508 0.14006 0.70649 0.0
C2328 C 0.42092 0.18082 0.69146 0.0
C2329 C 0.39018 0.14458 0.70795 0.0
C2330 C 0.39592 0.18462 0.69315 0.0
N2331 N 0.3812 0.16657 0.70127 0.0
C2332 C 0.46548 0.10944 0.73819 0.0
C2333 C 0.47255 0.07828 0.70943 0.0
C2334 C 0.45568 0.09279 0.75453 0.0
N2335 N 0.47293 0.10211 0.71587 0.0
C2336 C 0.46258 0.06098 0.72516 0.0
C2337 C 0.45339 0.0683 0.74782 0.0
H2338 H 0.46587 0.12853 0.74275 0.0
H2339 H 0.47884 0.07285 0.69166 0.0
C2340 C 0.44293 0.16524 0.61605 0.0
N2341 N 0.43718 0.15397 0.63721 0.0
C2342 C 0.42694 0.16464 0.5964 0.0
C2343 C 0.39912 0.14107 0.62067 0.0
C2344 C 0.41558 0.14232 0.63993 0.0
C2345 C 0.40486 0.15198 0.59833 0.0
H2346 H 0.46031 0.17415 0.61419 0.0
H2347 H 0.41142 0.1331 0.65668 0.0
O2348 O 0.51021 0.14742 0.69997 0.0
O2349 O 0.48813 0.17696 0.65688 0.0
O2350 O 0.48241 0.12174 0.65853 0.0
O2351 O 0.45495 0.15421 0.6964 0.0
H2352 H 0.5413 0.15552 0.73543 0.0
H2353 H 0.51971 0.10423 0.68058 0.0
H2354 H 0.57381 0.12701 0.74821 0.0
H2355 H 0.55247 0.07672 0.69432 0.0
H2356 H 0.46061 0.2538 0.64527 0.0
H2357 H 0.53077 0.19888 0.65409 0.0
H2358 H 0.45352 0.20973 0.65107 0.0
H2359 H 0.53654 0.2431 0.64798 0.0
H2360 H 0.59504 0.1624 0.64597 0.0
H2361 H 0.5504 0.13827 0.58599 0.0
H2362 H 0.45991 0.22953 0.75829 0.0
H2363 H 0.53286 0.2391 0.73125 0.0
H2364 H 0.44119 0.10369 0.67539 0.0
H2365 H 0.49256 0.10027 0.61672 0.0
H2366 H 0.41651 0.07226 0.65475 0.0
H2367 H 0.46689 0.06907 0.59695 0.0
H2368 H 0.42217 0.12254 0.71177 0.0
H2369 H 0.43266 0.19523 0.68523 0.0
H2370 H 0.378 0.13059 0.71437 0.0
H2371 H 0.38824 0.20195 0.68806 0.0
H2372 H 0.44856 0.09934 0.77164 0.0
H2373 H 0.46134 0.04225 0.71937 0.0
H2374 H 0.43202 0.17379 0.57978 0.0
H2375 H 0.38252 0.13085 0.62302 0.0
Li2376 Li 0.85459 0.50588 0.66367 0.0
Li2377 Li 0.82918 0.48395 0.69262 0.0
Li2378 Li 0.87386 0.47735 0.69415 0.0
Li2379 Li 0.84957 0.46161 0.66117 0.0
C2380 C 0.87027 0.52598 0.70813 0.0
N2381 N 0.90131 0.56167 0.72473 0.0
C2382 C 0.86331 0.54098 0.72735 0.0
C2383 C 0.89303 0.52908 0.69738 0.0
C2384 C 0.87926 0.55894 0.73547 0.0
C2385 C 0.90846 0.54723 0.70603 0.0
C2386 C 0.80093 0.49172 0.6541 0.0
C2387 C 0.75964 0.47773 0.6507 0.0
N2388 N 0.752 0.50112 0.64889 0.0
C2389 C 0.79272 0.51561 0.65198 0.0
C2390 C 0.78433 0.4726 0.65326 0.0
C2391 C 0.76789 0.51999 0.64944 0.0
C2392 C 0.85446 0.53162 0.62028 0.0
N2393 N 0.85571 0.53488 0.64468 0.0
C2394 C 0.85297 0.57793 0.63968 0.0
C2395 C 0.85485 0.55746 0.65459 0.0
C2396 C 0.85176 0.57512 0.61432 0.0
C2397 C 0.85274 0.55151 0.60471 0.0
H2398 H 0.85411 0.51345 0.61292 0.0
H2399 H 0.85484 0.55966 0.67406 0.0
C2400 C 0.79475 0.46971 0.72822 0.0
N2401 N 0.80146 0.48798 0.71307 0.0
C2402 C 0.77649 0.47343 0.74541 0.0
C2403 C 0.77187 0.51446 0.73068 0.0
C2404 C 0.79047 0.51006 0.71399 0.0
C2405 C 0.765 0.49613 0.74698 0.0
H2406 H 0.80414 0.45252 0.72754 0.0
H2407 H 0.79671 0.52454 0.70234 0.0
C2408 C 0.89492 0.46706 0.64414 0.0
N2409 N 0.92297 0.43851 0.6139 0.0
C2410 C 0.90705 0.44678 0.65335 0.0
C2411 C 0.89717 0.47287 0.61956 0.0
C2412 C 0.92115 0.43259 0.63779 0.0
C2413 C 0.91137 0.45818 0.60456 0.0
C2414 C 0.84459 0.42872 0.69721 0.0
C2415 C 0.8639 0.41398 0.7045 0.0
C2416 C 0.82233 0.41819 0.69119 0.0
C2417 C 0.86067 0.38885 0.70536 0.0
C2418 C 0.81985 0.39299 0.69223 0.0
N2419 N 0.83891 0.37897 0.69923 0.0
C2420 C 0.89224 0.46339 0.73858 0.0
C2421 C 0.92351 0.47006 0.70984 0.0
C2422 C 0.9088 0.45366 0.75505 0.0
N2423 N 0.89967 0.47061 0.71623 0.0
C2424 C 0.94074 0.46023 0.72573 0.0
C2425 C 0.93332 0.45128 0.74846 0.0
H2426 H 0.87314 0.46392 0.74308 0.0
H2427 H 0.92898 0.47612 0.69199 0.0
C2428 C 0.83539 0.44164 0.61648 0.0
N2429 N 0.84767 0.43621 0.63716 0.0
C2430 C 0.83594 0.42582 0.59667 0.0
C2431 C 0.86146 0.39881 0.61985 0.0
C2432 C 0.86025 0.41507 0.63927 0.0
C2433 C 0.84954 0.40426 0.59797 0.0
H2434 H 0.82575 0.45867 0.61507 0.0
H2435 H 0.87039 0.41125 0.65554 0.0
O2436 O 0.85485 0.50826 0.70014 0.0
O2437 O 0.82514 0.48706 0.6568 0.0
O2438 O 0.88078 0.481 0.65907 0.0
O2439 O 0.84735 0.45336 0.69638 0.0
H2440 H 0.84576 0.53877 0.73588 0.0
H2441 H 0.89876 0.51766 0.6825 0.0
H2442 H 0.87411 0.57071 0.75032 0.0
H2443 H 0.92611 0.54985 0.69788 0.0
H2444 H 0.74656 0.46311 0.65011 0.0
H2445 H 0.80534 0.53063 0.65253 0.0
H2446 H 0.79045 0.454 0.65449 0.0
H2447 H 0.76125 0.5384 0.64795 0.0
H2448 H 0.8518 0.59568 0.64799 0.0
H2449 H 0.85213 0.54835 0.58533 0.0
H2450 H 0.77168 0.45882 0.75764 0.0
H2451 H 0.76372 0.53232 0.73156 0.0
H2452 H 0.90511 0.44165 0.67218 0.0
H2453 H 0.88807 0.48852 0.61209 0.0
H2454 H 0.93046 0.41674 0.64466 0.0
H2455 H 0.91318 0.46243 0.58548 0.0
H2456 H 0.88126 0.42179 0.7092 0.0
H2457 H 0.80715 0.42936 0.68579 0.0
H2458 H 0.87549 0.37721 0.71084 0.0
H2459 H 0.80275 0.38459 0.68753 0.0
H2460 H 0.90214 0.4467 0.77218 0.0
H2461 H 0.95949 0.45894 0.72002 0.0
H2462 H 0.82604 0.43065 0.58041 0.0
H2463 H 0.87246 0.38265 0.62167 0.0
Li2464 Li 0.52344 0.12768 0.30948 0.0
Li2465 Li 0.53953 0.15183 0.34244 0.0
Li2466 Li 0.49521 0.14709 0.34003 0.0
Li2467 Li 0.51711 0.17242 0.31094 0.0
C2468 C 0.53431 0.10666 0.35914 0.0
N2469 N 0.5639 0.07902 0.38874 0.0
C2470 C 0.55529 0.09591 0.34977 0.0
C2471 C 0.52834 0.10324 0.38355 0.0
C2472 C 0.57 0.082 0.36502 0.0
C2473 C 0.54356 0.08926 0.39823 0.0
C2474 C 0.57204 0.15737 0.30535 0.0
C2475 C 0.60737 0.18288 0.30913 0.0
N2476 N 0.62151 0.16425 0.30126 0.0
C2477 C 0.58689 0.13851 0.29717 0.0
C2478 C 0.5823 0.17979 0.31123 0.0
C2479 C 0.61187 0.14234 0.29527 0.0
C2480 C 0.53649 0.10894 0.26484 0.0
N2481 N 0.53004 0.10176 0.28751 0.0
C2482 C 0.54109 0.06077 0.27849 0.0
C2483 C 0.53132 0.07808 0.29433 0.0
C2484 C 0.54925 0.06796 0.2554 0.0
C2485 C 0.54614 0.09229 0.24841 0.0
H2486 H 0.53543 0.12794 0.26003 0.0
H2487 H 0.52589 0.07282 0.31243 0.0
C2488 C 0.55849 0.1632 0.38819 0.0
N2489 N 0.56491 0.15344 0.36646 0.0
C2490 C 0.57433 0.16213 0.40795 0.0
C2491 C 0.60341 0.1414 0.3826 0.0
C2492 C 0.587 0.14285 0.36333 0.0
C2493 C 0.59703 0.15077 0.40542 0.0
H2494 H 0.54069 0.17116 0.39037 0.0
H2495 H 0.59154 0.13442 0.34629 0.0
C2496 C 0.47479 0.1315 0.29569 0.0
N2497 N 0.43889 0.10059 0.27934 0.0
C2498 C 0.45988 0.13839 0.27638 0.0
C2499 C 0.47149 0.10887 0.30667 0.0
C2500 C 0.44181 0.12251 0.26838 0.0
C2501 C 0.45322 0.09351 0.29814 0.0
C2502 C 0.51029 0.20063 0.35015 0.0
C2503 C 0.48663 0.2095 0.35218 0.0
C2504 C 0.52989 0.21659 0.35189 0.0
C2505 C 0.48296 0.23436 0.35548 0.0
C2506 C 0.52547 0.24133 0.35519 0.0
N2507 N 0.5023 0.24963 0.35687 0.0
C2508 C 0.46956 0.14644 0.38352 0.0
C2509 C 0.44378 0.14813 0.34919 0.0
C2510 C 0.4497 0.14829 0.39912 0.0
N2511 N 0.4663 0.14619 0.35909 0.0
C2512 C 0.42336 0.15015 0.36414 0.0
C2513 C 0.42616 0.1504 0.38952 0.0
H2514 H 0.48771 0.14589 0.3909 0.0
H2515 H 0.44165 0.14888 0.32972 0.0
C2516 C 0.53124 0.20628 0.27479 0.0
N2517 N 0.51321 0.20016 0.29045 0.0
C2518 C 0.52758 0.2245 0.25754 0.0
C2519 C 0.48704 0.23025 0.2732 0.0
C2520 C 0.49139 0.21169 0.28996 0.0
C2521 C 0.50512 0.23653 0.2564 0.0
H2522 H 0.54819 0.19645 0.27508 0.0
H2523 H 0.47704 0.20589 0.30201 0.0
O2524 O 0.51996 0.12076 0.34458 0.0
O2525 O 0.54753 0.15401 0.3072 0.0
O2526 O 0.49262 0.14686 0.30357 0.0
O2527 O 0.51425 0.17639 0.34679 0.0
H2528 H 0.56049 0.09876 0.33108 0.0
H2529 H 0.51216 0.11128 0.39112 0.0
H2530 H 0.58638 0.07375 0.35803 0.0
H2531 H 0.53919 0.08655 0.41718 0.0
H2532 H 0.61557 0.20012 0.3137 0.0
H2533 H 0.57927 0.12103 0.29255 0.0
H2534 H 0.57103 0.19464 0.31731 0.0
H2535 H 0.6236 0.12787 0.28908 0.0
H2536 H 0.54298 0.04217 0.28451 0.0
H2537 H 0.55248 0.09877 0.23098 0.0
H2538 H 0.56873 0.16992 0.4251 0.0
H2539 H 0.62053 0.13215 0.37988 0.0
H2540 H 0.46226 0.15584 0.26767 0.0
H2541 H 0.48283 0.1032 0.32163 0.0
H2542 H 0.43012 0.1276 0.25346 0.0
H2543 H 0.45045 0.07596 0.30647 0.0
H2544 H 0.47126 0.19735 0.35099 0.0
H2545 H 0.54831 0.20993 0.3508 0.0
H2546 H 0.46475 0.24152 0.3569 0.0
H2547 H 0.54047 0.25392 0.35648 0.0
H2548 H 0.45283 0.14812 0.41852 0.0
H2549 H 0.40567 0.15219 0.35586 0.0
H2550 H 0.54202 0.22886 0.24495 0.0
H2551 H 0.46936 0.2388 0.27267 0.0
Li2552 Li 0.87356 0.52437 0.30884 0.0
Li2553 Li 0.84925 0.54025 0.34172 0.0
Li2554 Li 0.85413 0.49596 0.33929 0.0
Li2555 Li 0.82886 0.51793 0.31026 0.0
C2556 C 0.89453 0.53472 0.35884 0.0
N2557 N 0.92258 0.56331 0.38905 0.0
C2558 C 0.90656 0.55505 0.34963 0.0
C2559 C 0.89687 0.52888 0.38341 0.0
C2560 C 0.92066 0.56927 0.36517 0.0
C2561 C 0.91107 0.54359 0.39839 0.0
C2562 C 0.84449 0.5731 0.30556 0.0
C2563 C 0.81994 0.60897 0.31042 0.0
N2564 N 0.83906 0.62287 0.30336 0.0
C2565 C 0.86387 0.58772 0.29819 0.0
C2566 C 0.8223 0.58376 0.31156 0.0
C2567 C 0.86077 0.61285 0.29724 0.0
C2568 C 0.89223 0.5379 0.26436 0.0
N2569 N 0.89948 0.53091 0.28685 0.0
C2570 C 0.94061 0.54126 0.2776 0.0
C2571 C 0.92326 0.53155 0.29343 0.0
C2572 C 0.93336 0.54997 0.25472 0.0
C2573 C 0.90891 0.54747 0.24793 0.0
H2574 H 0.87317 0.5373 0.25971 0.0
H2575 H 0.92859 0.52567 0.31138 0.0
C2576 C 0.8352 0.56018 0.38644 0.0
N2577 N 0.84736 0.56567 0.3657 0.0
C2578 C 0.83579 0.57599 0.40625 0.0
C2579 C 0.8611 0.60311 0.38297 0.0
C2580 C 0.85985 0.58686 0.36355 0.0
C2581 C 0.84932 0.59759 0.4049 0.0
H2582 H 0.82564 0.54312 0.38788 0.0
H2583 H 0.86991 0.59072 0.34723 0.0
C2584 C 0.86986 0.47578 0.29485 0.0
N2585 N 0.90092 0.44014 0.2782 0.0
C2586 C 0.86302 0.46098 0.27543 0.0
C2587 C 0.89251 0.4725 0.30578 0.0
C2588 C 0.87898 0.44304 0.26729 0.0
C2589 C 0.90795 0.45437 0.2971 0.0
C2590 C 0.8005 0.51037 0.34875 0.0
C2591 C 0.79215 0.48652 0.35089 0.0
C2592 C 0.784 0.52958 0.34957 0.0
C2593 C 0.76729 0.48229 0.35341 0.0
C2594 C 0.75929 0.5246 0.35211 0.0
N2595 N 0.75151 0.50125 0.35394 0.0
C2596 C 0.854 0.47025 0.3827 0.0
C2597 C 0.85406 0.44441 0.34838 0.0
C2598 C 0.85224 0.45036 0.39827 0.0
N2599 N 0.85512 0.46699 0.3583 0.0
C2600 C 0.85214 0.42396 0.36329 0.0
C2601 C 0.85108 0.42676 0.38866 0.0
H2602 H 0.8538 0.48842 0.39006 0.0
H2603 H 0.85395 0.44223 0.3289 0.0
C2604 C 0.79444 0.53226 0.27468 0.0
N2605 N 0.80115 0.51397 0.2898 0.0
C2606 C 0.77612 0.5286 0.25753 0.0
C2607 C 0.77146 0.48756 0.27224 0.0
C2608 C 0.79011 0.49191 0.28888 0.0
C2609 C 0.76458 0.50592 0.25598 0.0
H2610 H 0.80385 0.54944 0.27537 0.0
H2611 H 0.79635 0.47741 0.30053 0.0
O2612 O 0.88038 0.52076 0.34393 0.0
O2613 O 0.84714 0.54845 0.30648 0.0
O2614 O 0.85446 0.49353 0.30283 0.0
O2615 O 0.82473 0.51489 0.34608 0.0
H2616 H 0.90454 0.5602 0.33081 0.0
H2617 H 0.88785 0.51318 0.39088 0.0
H2618 H 0.92989 0.58516 0.3583 0.0
H2619 H 0.91296 0.53932 0.41746 0.0
H2620 H 0.80289 0.61747 0.31511 0.0
H2621 H 0.88119 0.5798 0.29349 0.0
H2622 H 0.80707 0.57269 0.31702 0.0
H2623 H 0.87564 0.6244 0.2917 0.0
H2624 H 0.95931 0.54267 0.28346 0.0
H2625 H 0.9024 0.55424 0.23067 0.0
H2626 H 0.826 0.57111 0.42257 0.0
H2627 H 0.87203 0.61931 0.3811 0.0
H2628 H 0.84556 0.46335 0.26676 0.0
H2629 H 0.89815 0.48377 0.32081 0.0
H2630 H 0.87392 0.43144 0.25228 0.0
H2631 H 0.92552 0.45162 0.30538 0.0
H2632 H 0.80469 0.47144 0.35036 0.0
H2633 H 0.79023 0.54814 0.34833 0.0
H2634 H 0.76054 0.46392 0.35492 0.0
H2635 H 0.74629 0.53929 0.35268 0.0
H2636 H 0.85175 0.45352 0.41766 0.0
H2637 H 0.85082 0.40621 0.35498 0.0
H2638 H 0.7713 0.54323 0.24534 0.0
H2639 H 0.76328 0.46972 0.27137 0.0
Li2640 Li 0.48012 0.87436 0.30989 0.0
Li2641 Li 0.46319 0.85036 0.34299 0.0
Li2642 Li 0.50798 0.85497 0.33947 0.0
Li2643 Li 0.48565 0.82983 0.31069 0.0
C2644 C 0.46933 0.89941 0.35424 0.0
N2645 N 0.44114 0.93657 0.37262 0.0
C2646 C 0.44692 0.90482 0.34372 0.0
C2647 C 0.47743 0.91291 0.37411 0.0
C2648 C 0.43293 0.92367 0.35326 0.0
C2649 C 0.46291 0.93163 0.38314 0.0
C2650 C 0.4314 0.84274 0.30492 0.0
C2651 C 0.39862 0.81397 0.3082 0.0
N2652 N 0.38303 0.83089 0.29928 0.0
C2653 C 0.4151 0.8598 0.2956 0.0
C2654 C 0.42316 0.81959 0.31111 0.0
C2655 C 0.39071 0.85347 0.29295 0.0
C2656 C 0.46554 0.89285 0.26582 0.0
N2657 N 0.47324 0.90038 0.28798 0.0
C2658 C 0.46264 0.9414 0.27849 0.0
C2659 C 0.47285 0.92426 0.29425 0.0
C2660 C 0.45325 0.93386 0.25599 0.0
C2661 C 0.45553 0.90933 0.24945 0.0
H2662 H 0.46596 0.87372 0.2614 0.0
H2663 H 0.47934 0.92987 0.31189 0.0
C2664 C 0.44484 0.84084 0.38923 0.0
N2665 N 0.43799 0.84909 0.36703 0.0
C2666 C 0.42886 0.84201 0.40887 0.0
C2667 C 0.39884 0.85992 0.38246 0.0
C2668 C 0.41539 0.85832 0.3633 0.0
C2669 C 0.4056 0.85202 0.40576 0.0
H2670 H 0.463 0.83389 0.39182 0.0
H2671 H 0.41041 0.86536 0.34574 0.0
C2672 C 0.52857 0.87069 0.29617 0.0
N2673 N 0.56478 0.90205 0.28139 0.0
C2674 C 0.54375 0.86442 0.27686 0.0
C2675 C 0.5318 0.8929 0.30799 0.0
C2676 C 0.56196 0.88053 0.26965 0.0
C2677 C 0.55021 0.90851 0.30024 0.0
C2678 C 0.4909 0.80146 0.35132 0.0
C2679 C 0.51384 0.79074 0.35246 0.0
C2680 C 0.47026 0.78744 0.35578 0.0
C2681 C 0.51572 0.76596 0.35744 0.0
C2682 C 0.47289 0.76272 0.36073 0.0
N2683 N 0.49537 0.75258 0.36141 0.0
C2684 C 0.53486 0.86387 0.38157 0.0
C2685 C 0.558 0.84666 0.34969 0.0
C2686 C 0.55453 0.86207 0.39743 0.0
N2687 N 0.53688 0.85607 0.35829 0.0
C2688 C 0.57814 0.84438 0.36499 0.0
C2689 C 0.57646 0.85178 0.38938 0.0
H2690 H 0.51769 0.87082 0.38803 0.0
H2691 H 0.55891 0.84008 0.33122 0.0
C2692 C 0.47145 0.79742 0.27322 0.0
N2693 N 0.48897 0.80218 0.28992 0.0
C2694 C 0.47485 0.77922 0.2559 0.0
C2695 C 0.51418 0.7709 0.27334 0.0
C2696 C 0.5101 0.78942 0.29022 0.0
C2697 C 0.49657 0.76588 0.25562 0.0
H2698 H 0.45518 0.8083 0.27274 0.0
H2699 H 0.5242 0.79423 0.30296 0.0
O2700 O 0.48316 0.88078 0.34542 0.0
O2701 O 0.45534 0.84865 0.30774 0.0
O2702 O 0.51062 0.85509 0.30328 0.0
O2703 O 0.48871 0.8257 0.34652 0.0
H2704 H 0.44041 0.89459 0.32832 0.0
H2705 H 0.49475 0.90899 0.38247 0.0
H2706 H 0.41554 0.92802 0.34527 0.0
H2707 H 0.46895 0.94223 0.39852 0.0
H2708 H 0.39198 0.79612 0.31297 0.0
H2709 H 0.42117 0.87778 0.29061 0.0
H2710 H 0.43561 0.80607 0.3179 0.0
H2711 H 0.37787 0.86652 0.28588 0.0
H2712 H 0.4614 0.96018 0.28414 0.0
H2713 H 0.44825 0.90262 0.23247 0.0
H2714 H 0.43478 0.8353 0.42637 0.0
H2715 H 0.38126 0.86804 0.37921 0.0
H2716 H 0.54147 0.84728 0.26753 0.0
H2717 H 0.52028 0.8981 0.32297 0.0
H2718 H 0.57384 0.87593 0.25472 0.0
H2719 H 0.55291 0.92575 0.3092 0.0
H2720 H 0.53001 0.80141 0.34935 0.0
H2721 H 0.45242 0.79559 0.35565 0.0
H2722 H 0.53335 0.75738 0.35817 0.0
H2723 H 0.45706 0.75163 0.36413 0.0
H2724 H 0.55244 0.86845 0.41589 0.0
H2725 H 0.59453 0.8361 0.35801 0.0
H2726 H 0.46076 0.77591 0.24261 0.0
H2727 H 0.53136 0.76137 0.27349 0.0
Li2728 Li 0.1726 0.48405 0.31073 0.0
Li2729 Li 0.14709 0.50606 0.33963 0.0
Li2730 Li 0.15209 0.4618 0.34244 0.0
Li2731 Li 0.1279 0.47744 0.30928 0.0
C2732 C 0.20069 0.49134 0.35006 0.0
N2733 N 0.2496 0.4996 0.35711 0.0
C2734 C 0.20945 0.51506 0.35194 0.0
C2735 C 0.21672 0.47182 0.35211 0.0
C2736 C 0.23427 0.51886 0.35541 0.0
C2737 C 0.24141 0.47637 0.35558 0.0
C2738 C 0.13146 0.52602 0.2951 0.0
C2739 C 0.09333 0.54737 0.29729 0.0
N2740 N 0.10033 0.56158 0.27837 0.0
C2741 C 0.13827 0.5408 0.27565 0.0
C2742 C 0.10879 0.52928 0.30602 0.0
C2743 C 0.12228 0.55869 0.26747 0.0
C2744 C 0.20628 0.46985 0.27447 0.0
N2745 N 0.2003 0.48789 0.29018 0.0
C2746 C 0.23041 0.51396 0.27281 0.0
C2747 C 0.21192 0.50967 0.28966 0.0
C2748 C 0.23655 0.49586 0.25596 0.0
C2749 C 0.22444 0.47345 0.25714 0.0
H2750 H 0.19638 0.45294 0.27479 0.0
H2751 H 0.20622 0.52403 0.30172 0.0
C2752 C 0.14648 0.5319 0.38298 0.0
N2753 N 0.14606 0.53508 0.35854 0.0
C2754 C 0.14835 0.55181 0.39851 0.0
C2755 C 0.14987 0.57805 0.36344 0.0
C2756 C 0.14783 0.55758 0.34856 0.0
C2757 C 0.15031 0.57534 0.38883 0.0
H2758 H 0.14606 0.51376 0.39041 0.0
H2759 H 0.14844 0.55966 0.32908 0.0
C2760 C 0.15802 0.42901 0.30565 0.0
N2761 N 0.16546 0.37959 0.30196 0.0
C2762 C 0.13931 0.41387 0.29762 0.0
C2763 C 0.18056 0.41905 0.31157 0.0
C2764 C 0.14343 0.38892 0.29592 0.0
C2765 C 0.18394 0.394 0.30967 0.0
C2766 C 0.10686 0.4669 0.35901 0.0
C2767 C 0.0962 0.44581 0.34981 0.0
C2768 C 0.10343 0.47304 0.38338 0.0
C2769 C 0.08237 0.43114 0.36517 0.0
C2770 C 0.08954 0.45787 0.39818 0.0
N2771 N 0.07938 0.43741 0.38886 0.0
C2772 C 0.16345 0.44336 0.38841 0.0
C2773 C 0.14334 0.41449 0.36377 0.0
C2774 C 0.1624 0.42771 0.40832 0.0
N2775 N 0.15379 0.43667 0.36672 0.0
C2776 C 0.14191 0.39826 0.38319 0.0
C2777 C 0.15118 0.40492 0.40598 0.0
H2778 H 0.17129 0.46123 0.39045 0.0
H2779 H 0.13499 0.40974 0.34674 0.0
C2780 C 0.10958 0.46368 0.26473 0.0
N2781 N 0.10216 0.47039 0.28725 0.0
C2782 C 0.09315 0.45372 0.24828 0.0
C2783 C 0.06132 0.45896 0.27798 0.0
C2784 C 0.07842 0.46903 0.29387 0.0
C2785 C 0.06876 0.45056 0.25505 0.0
H2786 H 0.12862 0.4648 0.26008 0.0
H2787 H 0.07296 0.47464 0.31186 0.0
O2788 O 0.17649 0.48725 0.34656 0.0
O2789 O 0.1469 0.50834 0.30314 0.0
O2790 O 0.15438 0.45349 0.3073 0.0
O2791 O 0.12088 0.4812 0.34433 0.0
H2792 H 0.19725 0.53037 0.35052 0.0
H2793 H 0.21014 0.45336 0.35115 0.0
H2794 H 0.24134 0.53712 0.35672 0.0
H2795 H 0.25404 0.46144 0.35711 0.0
H2796 H 0.07575 0.55011 0.30557 0.0
H2797 H 0.15574 0.53845 0.267 0.0
H2798 H 0.10317 0.51803 0.32106 0.0
H2799 H 0.12732 0.57028 0.25245 0.0
H2800 H 0.23903 0.53161 0.27225 0.0
H2801 H 0.22868 0.459 0.24452 0.0
H2802 H 0.14832 0.54873 0.41791 0.0
H2803 H 0.15179 0.59573 0.35509 0.0
H2804 H 0.12174 0.42125 0.29297 0.0
H2805 H 0.19529 0.43055 0.31752 0.0
H2806 H 0.12909 0.37697 0.28985 0.0
H2807 H 0.20127 0.38604 0.31428 0.0
H2808 H 0.09906 0.44047 0.33115 0.0
H2809 H 0.11141 0.48932 0.39082 0.0
H2810 H 0.0742 0.41467 0.35832 0.0
H2811 H 0.08682 0.46237 0.4171 0.0
H2812 H 0.17011 0.43351 0.42544 0.0
H2813 H 0.13277 0.38107 0.3806 0.0
H2814 H 0.09984 0.4472 0.23099 0.0
H2815 H 0.04267 0.45707 0.28385 0.0
Li2816 Li 0.69214 0.52054 0.87392 0.0
Li2817 Li 0.65953 0.53663 0.84919 0.0
Li2818 Li 0.6632 0.49312 0.85521 0.0
Li2819 Li 0.6926 0.51385 0.83059 0.0
C2820 C 0.64915 0.53349 0.89826 0.0
N2821 N 0.63359 0.56447 0.93447 0.0
C2822 C 0.66042 0.55597 0.90153 0.0
C2823 C 0.62994 0.52678 0.91338 0.0
C2824 C 0.6523 0.57137 0.91994 0.0
C2825 C 0.62234 0.54269 0.93159 0.0
C2826 C 0.69858 0.56365 0.83164 0.0
C2827 C 0.68839 0.58488 0.79475 0.0
N2828 N 0.7071 0.60047 0.79871 0.0
C2829 C 0.71768 0.5799 0.83536 0.0
C2830 C 0.68378 0.56616 0.81119 0.0
C2831 C 0.7217 0.59839 0.8185 0.0
C2832 C 0.73558 0.53645 0.89246 0.0
N2833 N 0.71362 0.52831 0.9001 0.0
C2834 C 0.72302 0.5393 0.94106 0.0
C2835 C 0.70739 0.52876 0.924 0.0
C2836 C 0.74536 0.54898 0.93343 0.0
C2837 C 0.75182 0.54679 0.90886 0.0
H2838 H 0.73999 0.53593 0.87334 0.0
H2839 H 0.68987 0.52202 0.92969 0.0
C2840 C 0.61286 0.55496 0.84175 0.0
N2841 N 0.63585 0.56195 0.84715 0.0
C2842 C 0.59375 0.57152 0.8433 0.0
C2843 C 0.62236 0.60235 0.85561 0.0
C2844 C 0.64099 0.58522 0.85358 0.0
C2845 C 0.59823 0.5955 0.85084 0.0
H2846 H 0.60928 0.53627 0.83692 0.0
H2847 H 0.6594 0.59027 0.85809 0.0
C2848 C 0.70501 0.47202 0.87316 0.0
N2849 N 0.71714 0.43662 0.90657 0.0
C2850 C 0.72312 0.45509 0.86782 0.0
C2851 C 0.693 0.47086 0.89548 0.0
C2852 C 0.72901 0.43736 0.88495 0.0
C2853 C 0.69941 0.45285 0.91213 0.0
C2854 C 0.65243 0.49479 0.80596 0.0
C2855 C 0.66772 0.47498 0.80191 0.0
C2856 C 0.63202 0.49808 0.79129 0.0
C2857 C 0.66232 0.45874 0.78323 0.0
C2858 C 0.62723 0.48143 0.77278 0.0
N2859 N 0.64235 0.46227 0.76917 0.0
C2860 C 0.62031 0.46741 0.86353 0.0
C2861 C 0.65261 0.44249 0.85004 0.0
C2862 C 0.60414 0.44797 0.86209 0.0
N2863 N 0.64394 0.46443 0.85728 0.0
C2864 C 0.637 0.42257 0.84808 0.0
C2865 C 0.61225 0.42523 0.85377 0.0
H2866 H 0.61387 0.48514 0.86898 0.0
H2867 H 0.67143 0.44066 0.84483 0.0
C2868 C 0.73567 0.49929 0.8089 0.0
N2869 N 0.71423 0.51027 0.80366 0.0
C2870 C 0.75238 0.49438 0.79055 0.0
C2871 C 0.72506 0.51286 0.76166 0.0
C2872 C 0.70863 0.51711 0.7806 0.0
C2873 C 0.74716 0.50111 0.76655 0.0
H2874 H 0.73971 0.4942 0.8274 0.0
H2875 H 0.69133 0.52556 0.77684 0.0
O2876 O 0.65648 0.51819 0.88014 0.0
O2877 O 0.69454 0.54547 0.84805 0.0
O2878 O 0.69919 0.48949 0.85647 0.0
O2879 O 0.65719 0.51091 0.82422 0.0
H2880 H 0.67531 0.56148 0.89001 0.0
H2881 H 0.62098 0.50946 0.91103 0.0
H2882 H 0.66087 0.58881 0.92267 0.0
H2883 H 0.60749 0.53774 0.94343 0.0
H2884 H 0.6771 0.58701 0.77884 0.0
H2885 H 0.72927 0.57823 0.85113 0.0
H2886 H 0.66888 0.55382 0.80799 0.0
H2887 H 0.73643 0.61109 0.82114 0.0
H2888 H 0.71742 0.5405 0.95986 0.0
H2889 H 0.76867 0.55429 0.90208 0.0
H2890 H 0.57561 0.56545 0.83885 0.0
H2891 H 0.62677 0.62049 0.8617 0.0
H2892 H 0.73252 0.45562 0.85058 0.0
H2893 H 0.67888 0.48364 0.90001 0.0
H2894 H 0.74302 0.42417 0.88106 0.0
H2895 H 0.69029 0.45178 0.92947 0.0
H2896 H 0.68355 0.47206 0.81314 0.0
H2897 H 0.62 0.51333 0.79421 0.0
H2898 H 0.67398 0.4433 0.77993 0.0
H2899 H 0.61148 0.48374 0.7613 0.0
H2900 H 0.5854 0.45085 0.86723 0.0
H2901 H 0.64412 0.40555 0.84135 0.0
H2902 H 0.76938 0.48564 0.79515 0.0
H2903 H 0.72035 0.51825 0.74336 0.0
Li2904 Li 0.4824 0.69289 0.87456 0.0
Li2905 Li 0.46651 0.66017 0.84986 0.0
Li2906 Li 0.51 0.66408 0.85584 0.0
Li2907 Li 0.48899 0.69333 0.83119 0.0
C2908 C 0.46976 0.64983 0.89895 0.0
N2909 N 0.43893 0.63411 0.93521 0.0
C2910 C 0.44723 0.66099 0.90226 0.0
C2911 C 0.47659 0.63066 0.91405 0.0
C2912 C 0.43191 0.65279 0.9207 0.0
C2913 C 0.46076 0.62298 0.93229 0.0
C2914 C 0.43916 0.69893 0.83235 0.0
C2915 C 0.41821 0.68875 0.7953 0.0
N2916 N 0.40219 0.70704 0.79947 0.0
C2917 C 0.42248 0.71761 0.83629 0.0
C2918 C 0.43702 0.68434 0.81171 0.0
C2919 C 0.40392 0.72143 0.81945 0.0
C2920 C 0.46616 0.73621 0.89328 0.0
N2921 N 0.47457 0.71431 0.90079 0.0
C2922 C 0.46384 0.72352 0.94187 0.0
C2923 C 0.47438 0.70802 0.92469 0.0
C2924 C 0.45391 0.7458 0.93438 0.0
C2925 C 0.45583 0.75234 0.90981 0.0
H2926 H 0.46647 0.74067 0.87416 0.0
H2927 H 0.48133 0.69056 0.93028 0.0
C2928 C 0.44848 0.61345 0.84215 0.0
N2929 N 0.44137 0.63636 0.84776 0.0
C2930 C 0.43202 0.59424 0.84353 0.0
C2931 C 0.40107 0.62258 0.85618 0.0
C2932 C 0.41809 0.64131 0.85429 0.0
C2933 C 0.40803 0.59853 0.85115 0.0
H2934 H 0.46717 0.61002 0.83724 0.0
H2935 H 0.41295 0.65966 0.85896 0.0
C2936 C 0.53078 0.70623 0.87362 0.0
N2937 N 0.56601 0.71902 0.90696 0.0
C2938 C 0.54701 0.72502 0.86846 0.0
C2939 C 0.53254 0.69389 0.89573 0.0
C2940 C 0.56468 0.73123 0.88556 0.0
C2941 C 0.55045 0.70064 0.91234 0.0
C2942 C 0.50839 0.65327 0.80665 0.0
C2943 C 0.52811 0.6687 0.80263 0.0
C2944 C 0.50529 0.63281 0.79202 0.0
C2945 C 0.54443 0.66338 0.78399 0.0
C2946 C 0.52201 0.62811 0.77355 0.0
N2947 N 0.54107 0.64336 0.76996 0.0
C2948 C 0.53567 0.62121 0.86405 0.0
C2949 C 0.56069 0.65346 0.8506 0.0
C2950 C 0.55504 0.60496 0.86249 0.0
N2951 N 0.53873 0.64486 0.85787 0.0
C2952 C 0.58053 0.63776 0.84852 0.0
C2953 C 0.57778 0.61299 0.85411 0.0
H2954 H 0.51793 0.61483 0.86951 0.0
H2955 H 0.56257 0.67229 0.84544 0.0
C2956 C 0.50177 0.73703 0.80967 0.0
N2957 N 0.49221 0.71497 0.80424 0.0
C2958 C 0.50631 0.75389 0.79136 0.0
C2959 C 0.49049 0.72533 0.76208 0.0
C2960 C 0.48644 0.70886 0.78102 0.0
C2961 C 0.50082 0.74811 0.76715 0.0
H2962 H 0.50604 0.74144 0.8283 0.0
H2963 H 0.47902 0.69112 0.77714 0.0
O2964 O 0.48499 0.65726 0.8808 0.0
O2965 O 0.45742 0.6951 0.84872 0.0
O2966 O 0.51334 0.70013 0.85701 0.0
O2967 O 0.49222 0.65793 0.82489 0.0
H2968 H 0.44163 0.67586 0.89075 0.0
H2969 H 0.49395 0.62178 0.91166 0.0
H2970 H 0.41443 0.66127 0.92346 0.0
H2971 H 0.46581 0.60815 0.94412 0.0
H2972 H 0.41635 0.67761 0.77924 0.0
H2973 H 0.42388 0.72904 0.85221 0.0
H2974 H 0.44968 0.66976 0.80834 0.0
H2975 H 0.39089 0.73583 0.82227 0.0
H2976 H 0.46284 0.71787 0.96067 0.0
H2977 H 0.44813 0.76914 0.90314 0.0
H2978 H 0.43818 0.57618 0.83889 0.0
H2979 H 0.38293 0.62684 0.86235 0.0
H2980 H 0.54597 0.73471 0.85141 0.0
H2981 H 0.52027 0.67927 0.90011 0.0
H2982 H 0.57733 0.74576 0.88181 0.0
H2983 H 0.55198 0.69127 0.92952 0.0
H2984 H 0.53087 0.68457 0.81382 0.0
H2985 H 0.49012 0.62068 0.79492 0.0
H2986 H 0.55978 0.67515 0.7807 0.0
H2987 H 0.51985 0.61232 0.76209 0.0
H2988 H 0.55208 0.58622 0.86758 0.0
H2989 H 0.59755 0.64482 0.84175 0.0
H2990 H 0.51387 0.77138 0.79615 0.0
H2991 H 0.48608 0.72013 0.74365 0.0
Li2992 Li 0.31095 0.4825 0.87457 0.0
Li2993 Li 0.34324 0.46661 0.84917 0.0
Li2994 Li 0.33962 0.51012 0.85562 0.0
Li2995 Li 0.30993 0.48949 0.83125 0.0
C2996 C 0.35476 0.46954 0.898 0.0
N2997 N 0.37188 0.43845 0.9334 0.0
C2998 C 0.34402 0.44681 0.90129 0.0
C2999 C 0.37424 0.47644 0.91267 0.0
C3000 C 0.35292 0.43136 0.9193 0.0
C3001 C 0.38262 0.46048 0.93049 0.0
C3002 C 0.30371 0.43971 0.83218 0.0
C3003 C 0.31311 0.41845 0.7951 0.0
N3004 N 0.29419 0.40315 0.79923 0.0
C3005 C 0.28438 0.42379 0.83606 0.0
C3006 C 0.31823 0.43704 0.81155 0.0
C3007 C 0.27986 0.40542 0.81919 0.0
C3008 C 0.2672 0.46793 0.89388 0.0
N3009 N 0.28984 0.47453 0.90104 0.0
C3010 C 0.28169 0.46124 0.94157 0.0
C3011 C 0.29698 0.47236 0.92459 0.0
C3012 C 0.25867 0.45308 0.93429 0.0
C3013 C 0.25116 0.45731 0.91034 0.0
H3014 H 0.26206 0.46979 0.87502 0.0
H3015 H 0.31495 0.47806 0.92998 0.0
C3016 C 0.38988 0.4485 0.84136 0.0
N3017 N 0.3669 0.44136 0.84664 0.0
C3018 C 0.40903 0.43198 0.84272 0.0
C3019 C 0.38049 0.40091 0.85459 0.0
C3020 C 0.36182 0.418 0.85274 0.0
C3021 C 0.40461 0.4079 0.84997 0.0
H3022 H 0.3934 0.46726 0.8368 0.0
H3023 H 0.34343 0.41284 0.8572 0.0
C3024 C 0.29798 0.531 0.87425 0.0
N3025 N 0.28619 0.56612 0.90807 0.0
C3026 C 0.27989 0.54803 0.86918 0.0
C3027 C 0.31014 0.5319 0.89651 0.0
C3028 C 0.27417 0.56563 0.88652 0.0
C3029 C 0.30389 0.54977 0.91336 0.0
C3030 C 0.34975 0.50882 0.80624 0.0
C3031 C 0.33436 0.52864 0.80255 0.0
C3032 C 0.37001 0.50572 0.79133 0.0
C3033 C 0.33952 0.54506 0.78395 0.0
C3034 C 0.37455 0.52255 0.77292 0.0
N3035 N 0.35935 0.5417 0.76964 0.0
C3036 C 0.38261 0.53571 0.86371 0.0
C3037 C 0.35023 0.56079 0.85068 0.0
C3038 C 0.39879 0.55515 0.8623 0.0
N3039 N 0.35892 0.53878 0.85769 0.0
C3040 C 0.36586 0.58069 0.84875 0.0
C3041 C 0.39065 0.57797 0.85422 0.0
H3042 H 0.38907 0.51794 0.86895 0.0
H3043 H 0.33137 0.56268 0.84566 0.0
C3044 C 0.26652 0.50377 0.80986 0.0
N3045 N 0.28807 0.49305 0.80453 0.0
C3046 C 0.24967 0.50846 0.79156 0.0
C3047 C 0.27716 0.49039 0.76256 0.0
C3048 C 0.29368 0.48632 0.78144 0.0
C3049 C 0.25491 0.50182 0.76753 0.0
H3050 H 0.26249 0.50882 0.82838 0.0
H3051 H 0.31106 0.47807 0.77762 0.0
O3052 O 0.34672 0.48483 0.88016 0.0
O3053 O 0.30823 0.45779 0.84856 0.0
O3054 O 0.30362 0.51365 0.85738 0.0
O3055 O 0.34523 0.49253 0.82442 0.0
H3056 H 0.32891 0.44116 0.89011 0.0
H3057 H 0.38282 0.49395 0.91028 0.0
H3058 H 0.34475 0.41373 0.92205 0.0
H3059 H 0.39769 0.46558 0.94198 0.0
H3060 H 0.32418 0.41619 0.77905 0.0
H3061 H 0.27299 0.42562 0.85196 0.0
H3062 H 0.33327 0.44917 0.80821 0.0
H3063 H 0.26495 0.39296 0.82196 0.0
H3064 H 0.28804 0.45832 0.95994 0.0
H3065 H 0.23365 0.45104 0.90398 0.0
H3066 H 0.42716 0.43817 0.8384 0.0
H3067 H 0.37613 0.38268 0.86046 0.0
H3068 H 0.27037 0.54768 0.85201 0.0
H3069 H 0.32422 0.51899 0.90084 0.0
H3070 H 0.26019 0.5789 0.88284 0.0
H3071 H 0.31313 0.55064 0.93066 0.0
H3072 H 0.31866 0.53141 0.81397 0.0
H3073 H 0.3821 0.49047 0.79398 0.0
H3074 H 0.32779 0.56049 0.78092 0.0
H3075 H 0.39018 0.52038 0.76124 0.0
H3076 H 0.41756 0.55219 0.86727 0.0
H3077 H 0.3587 0.59777 0.84221 0.0
H3078 H 0.23258 0.51696 0.79623 0.0
H3079 H 0.2819 0.48509 0.74424 0.0
Li3080 Li 0.53637 0.34309 0.84913 0.0
Li3081 Li 0.52022 0.31051 0.87385 0.0
Li3082 Li 0.51383 0.30994 0.83048 0.0
Li3083 Li 0.49288 0.33939 0.85491 0.0
C3084 C 0.56362 0.30408 0.83187 0.0
N3085 N 0.60067 0.29556 0.7992 0.0
C3086 C 0.57995 0.28509 0.8358 0.0
C3087 C 0.56616 0.31877 0.81134 0.0
C3088 C 0.59855 0.28107 0.81906 0.0
C3089 C 0.585 0.31416 0.79504 0.0
C3090 C 0.53299 0.35349 0.8982 0.0
C3091 C 0.54198 0.38016 0.9317 0.0
N3092 N 0.56379 0.36899 0.93459 0.0
C3093 C 0.5555 0.34228 0.90149 0.0
C3094 C 0.52617 0.37259 0.91339 0.0
C3095 C 0.57081 0.35036 0.92 0.0
C3096 C 0.55443 0.38978 0.84162 0.0
N3097 N 0.56156 0.36685 0.84711 0.0
C3098 C 0.60186 0.38061 0.85553 0.0
C3099 C 0.58485 0.36187 0.85358 0.0
C3100 C 0.59488 0.40468 0.85064 0.0
C3101 C 0.57087 0.40899 0.84309 0.0
H3102 H 0.53573 0.39323 0.83676 0.0
H3103 H 0.59 0.34351 0.85817 0.0
C3104 C 0.53598 0.26704 0.89246 0.0
N3105 N 0.52789 0.28903 0.90008 0.0
C3106 C 0.54624 0.25077 0.90888 0.0
C3107 C 0.5388 0.27961 0.94106 0.0
C3108 C 0.52834 0.29527 0.92398 0.0
C3109 C 0.54842 0.25723 0.93345 0.0
H3110 H 0.53548 0.26263 0.87333 0.0
H3111 H 0.52165 0.31281 0.92966 0.0
C3112 C 0.49478 0.34998 0.80564 0.0
N3113 N 0.4624 0.35986 0.76866 0.0
C3114 C 0.47506 0.33458 0.80151 0.0
C3115 C 0.49805 0.37038 0.79096 0.0
C3116 C 0.45889 0.33989 0.78273 0.0
C3117 C 0.48147 0.37507 0.77236 0.0
C3118 C 0.47166 0.29761 0.87268 0.0
C3119 C 0.45451 0.27983 0.86698 0.0
C3120 C 0.47046 0.30943 0.89511 0.0
C3121 C 0.4365 0.27406 0.88387 0.0
C3122 C 0.45219 0.30313 0.91151 0.0
N3123 N 0.43573 0.28572 0.9056 0.0
C3124 C 0.4998 0.26664 0.80897 0.0
C3125 C 0.51727 0.29378 0.78055 0.0
C3126 C 0.49511 0.24978 0.79069 0.0
N3127 N 0.5105 0.28819 0.80364 0.0
C3128 C 0.51321 0.27724 0.76168 0.0
C3129 C 0.50175 0.255 0.76666 0.0
H3130 H 0.49475 0.26262 0.82749 0.0
H3131 H 0.52552 0.31116 0.77673 0.0
C3132 C 0.46718 0.38225 0.86322 0.0
N3133 N 0.46419 0.35865 0.8568 0.0
C3134 C 0.44778 0.39847 0.8617 0.0
C3135 C 0.42245 0.36575 0.84725 0.0
C3136 C 0.44231 0.35008 0.8493 0.0
C3137 C 0.4251 0.39046 0.85311 0.0
H3138 H 0.48486 0.38861 0.86887 0.0
H3139 H 0.44048 0.33129 0.84397 0.0
O3140 O 0.54532 0.30812 0.84814 0.0
O3141 O 0.51778 0.34618 0.87999 0.0
O3142 O 0.51082 0.34532 0.824 0.0
O3143 O 0.4893 0.30342 0.85618 0.0
H3144 H 0.57825 0.27358 0.85162 0.0
H3145 H 0.55376 0.33358 0.80798 0.0
H3146 H 0.61131 0.26642 0.82187 0.0
H3147 H 0.58716 0.32537 0.77907 0.0
H3148 H 0.53693 0.39494 0.94359 0.0
H3149 H 0.5611 0.32745 0.88993 0.0
H3150 H 0.50882 0.3815 0.91102 0.0
H3151 H 0.58827 0.34184 0.92275 0.0
H3152 H 0.62003 0.37633 0.86164 0.0
H3153 H 0.5647 0.42708 0.83857 0.0
H3154 H 0.5537 0.23389 0.90211 0.0
H3155 H 0.54 0.28521 0.95986 0.0
H3156 H 0.47215 0.31876 0.81274 0.0
H3157 H 0.51323 0.38248 0.79395 0.0
H3158 H 0.44353 0.32815 0.77936 0.0
H3159 H 0.48377 0.39081 0.76086 0.0
H3160 H 0.45507 0.27061 0.84964 0.0
H3161 H 0.48342 0.32331 0.8999 0.0
H3162 H 0.42313 0.26032 0.87969 0.0
H3163 H 0.45108 0.3121 0.92893 0.0
H3164 H 0.48661 0.23269 0.79537 0.0
H3165 H 0.51852 0.28195 0.74336 0.0
H3166 H 0.45066 0.41716 0.86699 0.0
H3167 H 0.40548 0.35871 0.84032 0.0
Li3168 Li 0.69164 0.4884 0.1728 0.0
Li3169 Li 0.66201 0.50915 0.14847 0.0
Li3170 Li 0.65839 0.46566 0.15452 0.0
Li3171 Li 0.69072 0.48176 0.12945 0.0
C3172 C 0.65164 0.50748 0.19779 0.0
N3173 N 0.64175 0.54004 0.23461 0.0
C3174 C 0.66701 0.52725 0.2018 0.0
C3175 C 0.63126 0.50426 0.21251 0.0
C3176 C 0.6617 0.54351 0.2205 0.0
C3177 C 0.62656 0.52093 0.23103 0.0
C3178 C 0.7036 0.53031 0.13023 0.0
C3179 C 0.69778 0.54949 0.0913 0.0
N3180 N 0.71521 0.566 0.09695 0.0
C3181 C 0.72142 0.54752 0.13567 0.0
C3182 C 0.69162 0.53133 0.10788 0.0
C3183 C 0.72704 0.56541 0.1186 0.0
C3184 C 0.73487 0.50296 0.19422 0.0
N3185 N 0.71348 0.49195 0.19956 0.0
C3186 C 0.72456 0.48924 0.24148 0.0
C3187 C 0.70802 0.48504 0.22263 0.0
C3188 C 0.74663 0.50101 0.23649 0.0
C3189 C 0.7517 0.50782 0.21248 0.0
H3190 H 0.73879 0.50814 0.17571 0.0
H3191 H 0.69075 0.47658 0.22647 0.0
C3192 C 0.61916 0.53492 0.14023 0.0
N3193 N 0.64279 0.53784 0.14653 0.0
C3194 C 0.60304 0.5544 0.14167 0.0
C3195 C 0.63593 0.57968 0.15582 0.0
C3196 C 0.6515 0.55974 0.15385 0.0
C3197 C 0.6112 0.5771 0.15007 0.0
H3198 H 0.6127 0.51722 0.13471 0.0
H3199 H 0.67032 0.56152 0.15908 0.0
C3200 C 0.69762 0.43863 0.17165 0.0
N3201 N 0.70648 0.40183 0.20452 0.0
C3202 C 0.71674 0.42244 0.1678 0.0
C3203 C 0.68298 0.43609 0.19221 0.0
C3204 C 0.72093 0.40395 0.18463 0.0
C3205 C 0.68776 0.41737 0.20862 0.0
C3206 C 0.6475 0.46879 0.10557 0.0
C3207 C 0.6586 0.44621 0.10236 0.0
C3208 C 0.62829 0.47557 0.09049 0.0
C3209 C 0.65031 0.4308 0.08403 0.0
C3210 C 0.62053 0.45964 0.07235 0.0
N3211 N 0.63161 0.43777 0.06953 0.0
C3212 C 0.61174 0.44749 0.16213 0.0
C3213 C 0.63978 0.41708 0.1505 0.0
C3214 C 0.59258 0.43099 0.16067 0.0
N3215 N 0.63472 0.4404 0.15679 0.0
C3216 C 0.62111 0.4 0.14856 0.0
C3217 C 0.597 0.40695 0.15327 0.0
H3218 H 0.60822 0.46622 0.16684 0.0
H3219 H 0.65817 0.41194 0.14601 0.0
C3220 C 0.73419 0.46651 0.11028 0.0
N3221 N 0.71189 0.47406 0.103 0.0
C3222 C 0.75028 0.45623 0.09369 0.0
C3223 C 0.72056 0.46245 0.06205 0.0
C3224 C 0.70515 0.47308 0.07925 0.0
C3225 C 0.74325 0.45339 0.06936 0.0
H3226 H 0.739 0.46744 0.12929 0.0
H3227 H 0.68741 0.47942 0.07381 0.0
O3228 O 0.65629 0.49136 0.1795 0.0
O3229 O 0.69795 0.51277 0.1469 0.0
O3230 O 0.69341 0.45681 0.15529 0.0
O3231 O 0.655 0.4841 0.12362 0.0
H3232 H 0.6828 0.53012 0.19053 0.0
H3233 H 0.61917 0.48905 0.20961 0.0
H3234 H 0.67342 0.55891 0.22377 0.0
H3235 H 0.61084 0.51867 0.24255 0.0
H3236 H 0.68867 0.55045 0.07394 0.0
H3237 H 0.73076 0.54711 0.15293 0.0
H3238 H 0.67772 0.51833 0.10329 0.0
H3239 H 0.7408 0.57883 0.12258 0.0
H3240 H 0.71996 0.48379 0.25979 0.0
H3241 H 0.76866 0.51658 0.20781 0.0
H3242 H 0.58431 0.55157 0.13648 0.0
H3243 H 0.64308 0.59667 0.1626 0.0
H3244 H 0.72822 0.42416 0.15194 0.0
H3245 H 0.66808 0.44839 0.19553 0.0
H3246 H 0.73567 0.3913 0.18187 0.0
H3247 H 0.67659 0.41521 0.22461 0.0
H3248 H 0.67351 0.44065 0.11383 0.0
H3249 H 0.61946 0.49296 0.0928 0.0
H3250 H 0.65876 0.41329 0.08134 0.0
H3251 H 0.60568 0.46466 0.06054 0.0
H3252 H 0.57446 0.43714 0.16506 0.0
H3253 H 0.62546 0.38181 0.14256 0.0
H3254 H 0.76746 0.44923 0.10016 0.0
H3255 H 0.71455 0.4607 0.04342 0.0
Li3256 Li 0.51299 0.69264 0.17241 0.0
Li3257 Li 0.49203 0.66309 0.14812 0.0
Li3258 Li 0.53551 0.65933 0.15416 0.0
Li3259 Li 0.51954 0.6917 0.12904 0.0
C3260 C 0.49365 0.65281 0.19742 0.0
N3261 N 0.461 0.64319 0.23422 0.0
C3262 C 0.47394 0.66827 0.20134 0.0
C3263 C 0.49677 0.63247 0.21222 0.0
C3264 C 0.45763 0.6631 0.22003 0.0
C3265 C 0.48006 0.62791 0.23073 0.0
C3266 C 0.47108 0.7049 0.12994 0.0
C3267 C 0.4516 0.69907 0.09116 0.0
N3268 N 0.4355 0.71692 0.0967 0.0
C3269 C 0.45431 0.72315 0.13525 0.0
C3270 C 0.4697 0.6927 0.10772 0.0
C3271 C 0.43646 0.72898 0.11821 0.0
C3272 C 0.49995 0.73645 0.19366 0.0
N3273 N 0.50977 0.71452 0.19916 0.0
C3274 C 0.51187 0.72523 0.2412 0.0
C3275 C 0.51584 0.70864 0.22236 0.0
C3276 C 0.50133 0.74789 0.23607 0.0
C3277 C 0.49548 0.75342 0.21189 0.0
H3278 H 0.49542 0.74068 0.17504 0.0
H3279 H 0.52343 0.69098 0.22629 0.0
C3280 C 0.46636 0.6202 0.14003 0.0
N3281 N 0.46333 0.64385 0.14622 0.0
C3282 C 0.44697 0.60398 0.14154 0.0
C3283 C 0.42152 0.63681 0.15554 0.0
C3284 C 0.44139 0.65248 0.15349 0.0
C3285 C 0.42423 0.61205 0.14991 0.0
H3286 H 0.48409 0.61379 0.13456 0.0
H3287 H 0.43952 0.67131 0.15864 0.0
C3288 C 0.56277 0.69846 0.17113 0.0
N3289 N 0.59968 0.70727 0.20388 0.0
C3290 C 0.57919 0.71733 0.16704 0.0
C3291 C 0.56514 0.68404 0.19187 0.0
C3292 C 0.59773 0.7215 0.18381 0.0
C3293 C 0.58391 0.68879 0.20821 0.0
C3294 C 0.53227 0.64827 0.10524 0.0
C3295 C 0.55491 0.65921 0.10193 0.0
C3296 C 0.52536 0.62899 0.09031 0.0
C3297 C 0.57025 0.65069 0.08364 0.0
C3298 C 0.54121 0.62099 0.07222 0.0
N3299 N 0.56315 0.63191 0.0693 0.0
C3300 C 0.55342 0.61267 0.16196 0.0
C3301 C 0.58397 0.6405 0.15016 0.0
C3302 C 0.56983 0.59342 0.16059 0.0
N3303 N 0.56063 0.63558 0.15649 0.0
C3304 C 0.60095 0.62174 0.14831 0.0
C3305 C 0.59388 0.59769 0.15315 0.0
H3306 H 0.53468 0.60927 0.16669 0.0
H3307 H 0.58919 0.65885 0.14557 0.0
C3308 C 0.53477 0.73517 0.10976 0.0
N3309 N 0.5273 0.71283 0.10254 0.0
C3310 C 0.54512 0.75121 0.09314 0.0
C3311 C 0.53915 0.72131 0.06162 0.0
C3312 C 0.52843 0.70597 0.07883 0.0
C3313 C 0.54814 0.74404 0.06887 0.0
H3314 H 0.53373 0.74008 0.12874 0.0
H3315 H 0.52213 0.6882 0.07344 0.0
O3316 O 0.50982 0.65732 0.17914 0.0
O3317 O 0.4886 0.69909 0.14656 0.0
O3318 O 0.54452 0.69429 0.15483 0.0
O3319 O 0.51705 0.65598 0.12327 0.0
H3320 H 0.47116 0.68404 0.19001 0.0
H3321 H 0.51193 0.62031 0.2094 0.0
H3322 H 0.44228 0.67489 0.22323 0.0
H3323 H 0.48223 0.61222 0.24231 0.0
H3324 H 0.45035 0.68981 0.0739 0.0
H3325 H 0.45505 0.7327 0.15241 0.0
H3326 H 0.48239 0.67849 0.10322 0.0
H3327 H 0.42337 0.74308 0.12209 0.0
H3328 H 0.51655 0.72021 0.25962 0.0
H3329 H 0.48773 0.77082 0.20705 0.0
H3330 H 0.44989 0.58525 0.13643 0.0
H3331 H 0.4045 0.64391 0.16229 0.0
H3332 H 0.5776 0.72864 0.15105 0.0
H3333 H 0.55266 0.66933 0.19536 0.0
H3334 H 0.61056 0.73606 0.18088 0.0
H3335 H 0.58594 0.67779 0.22434 0.0
H3336 H 0.56057 0.67417 0.11329 0.0
H3337 H 0.50792 0.62028 0.09271 0.0
H3338 H 0.58781 0.659 0.08087 0.0
H3339 H 0.5361 0.60608 0.06053 0.0
H3340 H 0.56359 0.57535 0.16508 0.0
H3341 H 0.61915 0.62597 0.14228 0.0
H3342 H 0.55204 0.76844 0.09955 0.0
H3343 H 0.54106 0.7152 0.04304 0.0
Li3344 Li 0.30905 0.51318 0.1723 0.0
Li3345 Li 0.33859 0.49241 0.14785 0.0
Li3346 Li 0.34232 0.53592 0.15409 0.0
Li3347 Li 0.3099 0.52001 0.12894 0.0
C3348 C 0.349 0.49388 0.19716 0.0
N3349 N 0.35876 0.46115 0.23385 0.0
C3350 C 0.33362 0.47409 0.20102 0.0
C3351 C 0.36932 0.49704 0.21196 0.0
C3352 C 0.33887 0.45774 0.21966 0.0
C3353 C 0.37396 0.48029 0.23042 0.0
C3354 C 0.29681 0.47155 0.12949 0.0
C3355 C 0.30262 0.4525 0.09049 0.0
N3356 N 0.28479 0.43631 0.09586 0.0
C3357 C 0.27859 0.45468 0.13463 0.0
C3358 C 0.30899 0.47042 0.10725 0.0
C3359 C 0.27276 0.43702 0.1174 0.0
C3360 C 0.26572 0.49902 0.19391 0.0
N3361 N 0.28731 0.50967 0.19915 0.0
C3362 C 0.27665 0.51216 0.2412 0.0
C3363 C 0.29306 0.51631 0.22224 0.0
C3364 C 0.25436 0.50076 0.23632 0.0
C3365 C 0.24897 0.49426 0.21228 0.0
H3366 H 0.26157 0.49404 0.17539 0.0
H3367 H 0.31048 0.52451 0.226 0.0
C3368 C 0.38149 0.46665 0.13975 0.0
N3369 N 0.35781 0.46367 0.14582 0.0
C3370 C 0.39762 0.44718 0.14121 0.0
C3371 C 0.36463 0.42177 0.1549 0.0
C3372 C 0.34906 0.44172 0.15291 0.0
C3373 C 0.38943 0.42441 0.14939 0.0
H3374 H 0.38799 0.48439 0.13442 0.0
H3375 H 0.3302 0.43989 0.15798 0.0
C3376 C 0.30308 0.56297 0.17129 0.0
N3377 N 0.29415 0.59968 0.20424 0.0
C3378 C 0.28395 0.57915 0.16745 0.0
C3379 C 0.3177 0.56548 0.19187 0.0
C3380 C 0.27972 0.59759 0.18433 0.0
C3381 C 0.31288 0.58415 0.20832 0.0
C3382 C 0.35342 0.53284 0.10518 0.0
C3383 C 0.34248 0.55548 0.10184 0.0
C3384 C 0.37281 0.52599 0.09036 0.0
C3385 C 0.35109 0.57087 0.08365 0.0
C3386 C 0.3809 0.5419 0.07236 0.0
N3387 N 0.36997 0.56382 0.06941 0.0
C3388 C 0.38896 0.55408 0.1619 0.0
C3389 C 0.36096 0.58447 0.15013 0.0
C3390 C 0.40812 0.57059 0.16051 0.0
N3391 N 0.36601 0.56116 0.15645 0.0
C3392 C 0.37963 0.60156 0.14825 0.0
C3393 C 0.40373 0.59462 0.15306 0.0
H3394 H 0.39248 0.53536 0.16663 0.0
H3395 H 0.34258 0.58959 0.14556 0.0
C3396 C 0.26642 0.53537 0.10974 0.0
N3397 N 0.28876 0.52792 0.10249 0.0
C3398 C 0.2504 0.54582 0.09318 0.0
C3399 C 0.28028 0.53998 0.06163 0.0
C3400 C 0.29561 0.52916 0.07878 0.0
C3401 C 0.25756 0.54895 0.06893 0.0
H3402 H 0.26152 0.53424 0.12872 0.0
H3403 H 0.31337 0.52288 0.07336 0.0
O3404 O 0.34439 0.51009 0.17894 0.0
O3405 O 0.30258 0.48894 0.14628 0.0
O3406 O 0.30732 0.54484 0.15489 0.0
O3407 O 0.34563 0.51758 0.12314 0.0
H3408 H 0.31786 0.47127 0.18968 0.0
H3409 H 0.38141 0.51227 0.20919 0.0
H3410 H 0.32715 0.44233 0.22281 0.0
H3411 H 0.38964 0.4825 0.24201 0.0
H3412 H 0.31187 0.45145 0.07321 0.0
H3413 H 0.26906 0.4552 0.1518 0.0
H3414 H 0.32318 0.48318 0.10287 0.0
H3415 H 0.25867 0.42388 0.12114 0.0
H3416 H 0.28151 0.51737 0.25951 0.0
H3417 H 0.23185 0.4858 0.20767 0.0
H3418 H 0.41639 0.45006 0.1362 0.0
H3419 H 0.35744 0.40474 0.16151 0.0
H3420 H 0.27249 0.57746 0.15159 0.0
H3421 H 0.33261 0.55318 0.19517 0.0
H3422 H 0.26496 0.61023 0.18159 0.0
H3423 H 0.32403 0.58628 0.22433 0.0
H3424 H 0.32745 0.56109 0.11313 0.0
H3425 H 0.38153 0.50856 0.09278 0.0
H3426 H 0.34277 0.58843 0.08086 0.0
H3427 H 0.39589 0.53683 0.06076 0.0
H3428 H 0.42623 0.56445 0.16499 0.0
H3429 H 0.37529 0.61974 0.14222 0.0
H3430 H 0.23317 0.55272 0.09962 0.0
H3431 H 0.28639 0.54197 0.04305 0.0
Li3432 Li 0.50872 0.33847 0.14828 0.0
Li3433 Li 0.48779 0.30905 0.17278 0.0
Li3434 Li 0.48136 0.30956 0.1294 0.0
Li3435 Li 0.46522 0.34218 0.15409 0.0
C3436 C 0.52991 0.29666 0.13053 0.0
N3437 N 0.56577 0.28469 0.09756 0.0
C3438 C 0.54697 0.27877 0.13617 0.0
C3439 C 0.53115 0.30853 0.10814 0.0
C3440 C 0.56495 0.27297 0.11926 0.0
C3441 C 0.54939 0.30219 0.09171 0.0
C3442 C 0.50686 0.34915 0.19752 0.0
C3443 C 0.52017 0.37431 0.23075 0.0
N3444 N 0.53928 0.35913 0.23443 0.0
C3445 C 0.52661 0.33379 0.20164 0.0
C3446 C 0.50358 0.36957 0.21218 0.0
C3447 C 0.5428 0.33915 0.22039 0.0
C3448 C 0.53441 0.38135 0.14003 0.0
N3449 N 0.53741 0.35773 0.14636 0.0
C3450 C 0.57918 0.36479 0.15583 0.0
C3451 C 0.55931 0.34913 0.15377 0.0
C3452 C 0.57651 0.38952 0.15007 0.0
C3453 C 0.55381 0.39757 0.14156 0.0
H3454 H 0.51671 0.38773 0.13445 0.0
H3455 H 0.56115 0.33032 0.15903 0.0
C3456 C 0.50186 0.2658 0.19441 0.0
N3457 N 0.49118 0.28737 0.19969 0.0
C3458 C 0.50665 0.24903 0.21275 0.0
C3459 C 0.4887 0.27663 0.24172 0.0
C3460 C 0.48452 0.29307 0.22278 0.0
C3461 C 0.50016 0.25437 0.2368 0.0
H3462 H 0.50683 0.26169 0.17589 0.0
H3463 H 0.47629 0.31047 0.22656 0.0
C3464 C 0.46857 0.35254 0.10502 0.0
N3465 N 0.43776 0.36807 0.06865 0.0
C3466 C 0.44609 0.3413 0.10169 0.0
C3467 C 0.47537 0.3717 0.08988 0.0
C3468 C 0.43077 0.3494 0.0832 0.0
C3469 C 0.45954 0.37928 0.07158 0.0
C3470 C 0.43799 0.30321 0.17144 0.0
C3471 C 0.42163 0.28424 0.16756 0.0
C3472 C 0.43551 0.31793 0.19195 0.0
C3473 C 0.40304 0.28027 0.18433 0.0
C3474 C 0.41668 0.31337 0.20829 0.0
N3475 N 0.40097 0.29479 0.20418 0.0
C3476 C 0.4656 0.26609 0.11072 0.0
C3477 C 0.47341 0.29433 0.07925 0.0
C3478 C 0.45545 0.24981 0.09422 0.0
N3479 N 0.47372 0.28808 0.10315 0.0
C3480 C 0.46306 0.27866 0.0621 0.0
C3481 C 0.45343 0.25626 0.06964 0.0
H3482 H 0.46599 0.26167 0.12984 0.0
H3483 H 0.48012 0.31187 0.07361 0.0
C3484 C 0.44717 0.38887 0.16167 0.0
N3485 N 0.44004 0.36595 0.1561 0.0
C3486 C 0.43075 0.4081 0.1602 0.0
C3487 C 0.39977 0.37977 0.14758 0.0
C3488 C 0.41676 0.36102 0.14955 0.0
C3489 C 0.40676 0.40383 0.15255 0.0
H3490 H 0.46585 0.39228 0.1666 0.0
H3491 H 0.4116 0.34267 0.14491 0.0
O3492 O 0.51229 0.30249 0.14705 0.0
O3493 O 0.49081 0.34445 0.17919 0.0
O3494 O 0.48379 0.34522 0.12322 0.0
O3495 O 0.45627 0.30719 0.15514 0.0
H3496 H 0.54638 0.2695 0.15348 0.0
H3497 H 0.51827 0.32249 0.10339 0.0
H3498 H 0.57826 0.25915 0.12339 0.0
H3499 H 0.55053 0.31121 0.07432 0.0
H3500 H 0.51787 0.39006 0.24223 0.0
H3501 H 0.52952 0.31796 0.19043 0.0
H3502 H 0.48838 0.38164 0.2092 0.0
H3503 H 0.55819 0.32744 0.22374 0.0
H3504 H 0.59616 0.35772 0.16269 0.0
H3505 H 0.55092 0.41628 0.13636 0.0
H3506 H 0.51514 0.23193 0.20811 0.0
H3507 H 0.48349 0.28145 0.26004 0.0
H3508 H 0.44051 0.32644 0.11322 0.0
H3509 H 0.49269 0.38064 0.09228 0.0
H3510 H 0.41333 0.34085 0.08042 0.0
H3511 H 0.46457 0.39409 0.05973 0.0
H3512 H 0.42329 0.2727 0.15175 0.0
H3513 H 0.44793 0.33273 0.19528 0.0
H3514 H 0.39025 0.26564 0.18156 0.0
H3515 H 0.41456 0.32461 0.22424 0.0
H3516 H 0.44798 0.23292 0.10094 0.0
H3517 H 0.46198 0.28426 0.04329 0.0
H3518 H 0.43693 0.42617 0.16479 0.0
H3519 H 0.38162 0.37553 0.1414 0.0
Li3520 Li 0.87347 0.69289 0.52498 0.0
Li3521 Li 0.84946 0.6596 0.54042 0.0
Li3522 Li 0.85459 0.66244 0.49617 0.0
Li3523 Li 0.8288 0.69101 0.5182 0.0
C3524 C 0.89506 0.64318 0.53512 0.0
N3525 N 0.92345 0.61335 0.56377 0.0
C3526 C 0.90739 0.65266 0.55516 0.0
C3527 C 0.89727 0.61853 0.52961 0.0
C3528 C 0.92166 0.6373 0.56941 0.0
C3529 C 0.91165 0.60374 0.54434 0.0
C3530 C 0.8437 0.69536 0.57349 0.0
C3531 C 0.81837 0.69026 0.6088 0.0
N3532 N 0.83727 0.69697 0.62318 0.0
C3533 C 0.86283 0.70238 0.5886 0.0
C3534 C 0.82124 0.68943 0.58362 0.0
C3535 C 0.85922 0.70302 0.61369 0.0
C3536 C 0.89118 0.73706 0.54027 0.0
N3537 N 0.89899 0.71521 0.53201 0.0
C3538 C 0.94005 0.7254 0.54175 0.0
C3539 C 0.92298 0.70942 0.53176 0.0
C3540 C 0.93229 0.74756 0.55178 0.0
C3541 C 0.90754 0.75355 0.55027 0.0
H3542 H 0.87197 0.74109 0.54034 0.0
H3543 H 0.92873 0.69195 0.52493 0.0
C3544 C 0.83516 0.61494 0.56055 0.0
N3545 N 0.84766 0.63555 0.56577 0.0
C3546 C 0.83567 0.59523 0.5765 0.0
C3547 C 0.86163 0.61833 0.60315 0.0
C3548 C 0.86045 0.63765 0.58678 0.0
C3549 C 0.84945 0.59655 0.59795 0.0
H3550 H 0.82536 0.61352 0.54362 0.0
H3551 H 0.87076 0.65386 0.59042 0.0
C3552 C 0.86995 0.70726 0.4765 0.0
N3553 N 0.90109 0.72465 0.44127 0.0
C3554 C 0.8631 0.72691 0.46202 0.0
C3555 C 0.89265 0.69647 0.47311 0.0
C3556 C 0.8791 0.73543 0.44429 0.0
C3557 C 0.90813 0.70553 0.45519 0.0
C3558 C 0.80099 0.65202 0.51023 0.0
C3559 C 0.79279 0.64963 0.48635 0.0
C3560 C 0.78442 0.65092 0.52938 0.0
C3561 C 0.76801 0.64658 0.482 0.0
C3562 C 0.75978 0.64785 0.52428 0.0
N3563 N 0.75216 0.64579 0.5009 0.0
C3564 C 0.85506 0.61929 0.47001 0.0
C3565 C 0.85459 0.65387 0.44452 0.0
C3566 C 0.85329 0.60392 0.44996 0.0
N3567 N 0.85588 0.64374 0.467 0.0
C3568 C 0.85265 0.63916 0.42392 0.0
C3569 C 0.85181 0.61377 0.42647 0.0
H3570 H 0.85504 0.61174 0.48809 0.0
H3571 H 0.85424 0.67336 0.44255 0.0
C3572 C 0.79454 0.72678 0.53223 0.0
N3573 N 0.80095 0.71125 0.51417 0.0
C3574 C 0.77625 0.74392 0.52844 0.0
C3575 C 0.77096 0.72833 0.48779 0.0
C3576 C 0.78961 0.71173 0.49224 0.0
C3577 C 0.76442 0.74503 0.50588 0.0
H3578 H 0.80422 0.72646 0.54928 0.0
H3579 H 0.79565 0.69981 0.47789 0.0
O3580 O 0.88076 0.65791 0.52113 0.0
O3581 O 0.84683 0.69471 0.54888 0.0
O3582 O 0.85451 0.6989 0.49404 0.0
O3583 O 0.82515 0.65518 0.51486 0.0
H3584 H 0.90547 0.67153 0.56009 0.0
H3585 H 0.888 0.61085 0.51416 0.0
H3586 H 0.93112 0.64438 0.58508 0.0
H3587 H 0.91344 0.58461 0.54032 0.0
H3588 H 0.80111 0.68561 0.61689 0.0
H3589 H 0.88036 0.70699 0.5811 0.0
H3590 H 0.80618 0.68428 0.57217 0.0
H3591 H 0.87391 0.70827 0.62561 0.0
H3592 H 0.95897 0.72015 0.54229 0.0
H3593 H 0.90057 0.77019 0.55805 0.0
H3594 H 0.82558 0.57903 0.57186 0.0
H3595 H 0.87278 0.62017 0.61921 0.0
H3596 H 0.8456 0.73548 0.46448 0.0
H3597 H 0.8983 0.68126 0.48412 0.0
H3598 H 0.87404 0.75062 0.43293 0.0
H3599 H 0.92574 0.69735 0.45236 0.0
H3600 H 0.80539 0.65036 0.47131 0.0
H3601 H 0.79053 0.65232 0.54797 0.0
H3602 H 0.76139 0.64488 0.4636 0.0
H3603 H 0.74674 0.64705 0.53892 0.0
H3604 H 0.85299 0.58451 0.45292 0.0
H3605 H 0.8511 0.64764 0.40626 0.0
H3606 H 0.7717 0.75648 0.54285 0.0
H3607 H 0.76255 0.72888 0.47004 0.0
Li3608 Li 0.85428 0.33934 0.50671 0.0
Li3609 Li 0.8282 0.31094 0.48483 0.0
Li3610 Li 0.8728 0.30882 0.47772 0.0
Li3611 Li 0.84885 0.34227 0.46252 0.0
C3612 C 0.86955 0.29446 0.52625 0.0
N3613 N 0.90081 0.27698 0.56133 0.0
C3614 C 0.86263 0.27498 0.54092 0.0
C3615 C 0.89239 0.30504 0.52937 0.0
C3616 C 0.87869 0.26642 0.55858 0.0
C3617 C 0.90793 0.29594 0.54722 0.0
C3618 C 0.80063 0.35004 0.49305 0.0
C3619 C 0.75935 0.35448 0.4793 0.0
N3620 N 0.7519 0.35652 0.50274 0.0
C3621 C 0.79262 0.35242 0.51699 0.0
C3622 C 0.78393 0.35129 0.47402 0.0
C3623 C 0.76788 0.35559 0.52152 0.0
C3624 C 0.85489 0.38249 0.53285 0.0
N3625 N 0.85582 0.35805 0.53589 0.0
C3626 C 0.85293 0.36268 0.57899 0.0
C3627 C 0.85476 0.34794 0.55839 0.0
C3628 C 0.85196 0.38807 0.57641 0.0
C3629 C 0.85322 0.39788 0.55289 0.0
H3630 H 0.85468 0.39001 0.51476 0.0
H3631 H 0.8545 0.32845 0.56039 0.0
C3632 C 0.79383 0.27527 0.47095 0.0
N3633 N 0.80031 0.29079 0.48899 0.0
C3634 C 0.77555 0.25813 0.47481 0.0
C3635 C 0.77042 0.27371 0.51548 0.0
C3636 C 0.78905 0.29032 0.51096 0.0
C3637 C 0.76382 0.25701 0.49742 0.0
H3638 H 0.80345 0.27557 0.45387 0.0
H3639 H 0.79516 0.30222 0.5253 0.0
C3640 C 0.89454 0.35852 0.46756 0.0
N3641 N 0.92279 0.38842 0.43886 0.0
C3642 C 0.90671 0.34911 0.4474 0.0
C3643 C 0.89684 0.38314 0.47317 0.0
C3644 C 0.92091 0.3645 0.43313 0.0
C3645 C 0.91115 0.39797 0.45841 0.0
C3646 C 0.84263 0.30657 0.42944 0.0
C3647 C 0.86159 0.29945 0.41417 0.0
C3648 C 0.82012 0.31262 0.4195 0.0
C3649 C 0.85777 0.29882 0.38911 0.0
C3650 C 0.81703 0.31179 0.39435 0.0
N3651 N 0.83576 0.30498 0.3798 0.0
C3652 C 0.89 0.26455 0.46221 0.0
C3653 C 0.92211 0.29196 0.47026 0.0
C3654 C 0.90609 0.24797 0.45191 0.0
N3655 N 0.89808 0.28633 0.47038 0.0
C3656 C 0.93891 0.27589 0.45997 0.0
C3657 C 0.93085 0.2538 0.45001 0.0
H3658 H 0.87077 0.26065 0.46242 0.0
H3659 H 0.92809 0.30938 0.47703 0.0
C3660 C 0.83463 0.38701 0.44252 0.0
N3661 N 0.84699 0.36635 0.43721 0.0
C3662 C 0.83513 0.40672 0.42658 0.0
C3663 C 0.86079 0.3835 0.39974 0.0
C3664 C 0.85963 0.36418 0.41611 0.0
C3665 C 0.84875 0.40534 0.40503 0.0
H3666 H 0.82495 0.38848 0.45952 0.0
H3667 H 0.86982 0.34792 0.4124 0.0
O3668 O 0.85404 0.30287 0.5088 0.0
O3669 O 0.82474 0.34678 0.48824 0.0
O3670 O 0.8803 0.34376 0.48158 0.0
O3671 O 0.84598 0.30721 0.45403 0.0
H3672 H 0.84501 0.26658 0.53868 0.0
H3673 H 0.8981 0.32011 0.51821 0.0
H3674 H 0.87357 0.25136 0.57008 0.0
H3675 H 0.92565 0.30395 0.54985 0.0
H3676 H 0.7462 0.35538 0.46475 0.0
H3677 H 0.80531 0.35158 0.53194 0.0
H3678 H 0.7899 0.3499 0.45538 0.0
H3679 H 0.7614 0.35729 0.53997 0.0
H3680 H 0.85155 0.35422 0.59666 0.0
H3681 H 0.85282 0.41729 0.5499 0.0
H3682 H 0.77096 0.24556 0.46041 0.0
H3683 H 0.76209 0.27316 0.53327 0.0
H3684 H 0.90471 0.33026 0.44241 0.0
H3685 H 0.88769 0.39077 0.48872 0.0
H3686 H 0.93026 0.35747 0.41736 0.0
H3687 H 0.913 0.41707 0.4625 0.0
H3688 H 0.87917 0.29476 0.42151 0.0
H3689 H 0.80519 0.31785 0.43108 0.0
H3690 H 0.87232 0.29349 0.37706 0.0
H3691 H 0.79972 0.31652 0.3864 0.0
H3692 H 0.89888 0.2314 0.44421 0.0
H3693 H 0.95786 0.28101 0.45914 0.0
H3694 H 0.82516 0.42297 0.43129 0.0
H3695 H 0.87183 0.38161 0.38361 0.0
Li3696 Li 0.66372 0.85423 0.50752 0.0
Li3697 Li 0.69249 0.82874 0.48703 0.0
Li3698 Li 0.69244 0.87181 0.47917 0.0
Li3699 Li 0.65938 0.84713 0.46428 0.0
C3700 C 0.7061 0.87228 0.52745 0.0
N3701 N 0.71914 0.90647 0.56177 0.0
C3702 C 0.72462 0.8673 0.54406 0.0
C3703 C 0.69415 0.89464 0.52839 0.0
C3704 C 0.73096 0.88482 0.56125 0.0
C3705 C 0.70103 0.91169 0.54584 0.0
C3706 C 0.65257 0.80514 0.50745 0.0
C3707 C 0.62773 0.77227 0.52213 0.0
N3708 N 0.64297 0.76947 0.54133 0.0
C3709 C 0.668 0.80194 0.52733 0.0
C3710 C 0.63227 0.79021 0.5048 0.0
C3711 C 0.66284 0.7838 0.54426 0.0
C3712 C 0.62086 0.86186 0.53337 0.0
N3713 N 0.64485 0.85712 0.53639 0.0
C3714 C 0.63894 0.85032 0.57886 0.0
C3715 C 0.65416 0.85171 0.5586 0.0
C3716 C 0.6139 0.85449 0.57621 0.0
C3717 C 0.60502 0.86076 0.55311 0.0
H3718 H 0.61393 0.86579 0.51542 0.0
H3719 H 0.67322 0.8475 0.56045 0.0
C3720 C 0.73555 0.80705 0.50149 0.0
N3721 N 0.71385 0.80168 0.49109 0.0
C3722 C 0.75218 0.7887 0.50665 0.0
C3723 C 0.72425 0.75954 0.48957 0.0
C3724 C 0.70791 0.77848 0.48507 0.0
C3725 C 0.74662 0.76457 0.50073 0.0
H3726 H 0.73987 0.82565 0.50592 0.0
H3727 H 0.69042 0.77464 0.47706 0.0
C3728 C 0.64976 0.8964 0.46621 0.0
N3729 N 0.63451 0.93205 0.43443 0.0
C3730 C 0.66083 0.89886 0.44352 0.0
C3731 C 0.63091 0.91204 0.47272 0.0
C3732 C 0.65288 0.91701 0.42772 0.0
C3733 C 0.62347 0.92996 0.45641 0.0
C3734 C 0.69759 0.82822 0.43714 0.0
C3735 C 0.71628 0.8312 0.42028 0.0
C3736 C 0.6825 0.80788 0.43566 0.0
C3737 C 0.71964 0.81372 0.40224 0.0
C3738 C 0.68645 0.7908 0.41736 0.0
N3739 N 0.70479 0.79405 0.40116 0.0
C3740 C 0.73543 0.88928 0.4613 0.0
C3741 C 0.70853 0.92156 0.47036 0.0
C3742 C 0.75178 0.90528 0.45054 0.0
N3743 N 0.71407 0.89749 0.47038 0.0
C3744 C 0.72438 0.93828 0.45959 0.0
C3745 C 0.74615 0.93011 0.44904 0.0
H3746 H 0.7393 0.87004 0.4615 0.0
H3747 H 0.69143 0.92768 0.47777 0.0
C3748 C 0.61227 0.84054 0.44712 0.0
N3749 N 0.63528 0.8448 0.43945 0.0
C3750 C 0.59288 0.84211 0.4309 0.0
C3751 C 0.62126 0.85197 0.39897 0.0
C3752 C 0.64015 0.85007 0.41582 0.0
C3753 C 0.59714 0.84841 0.40652 0.0
H3754 H 0.60892 0.83666 0.46608 0.0
H3755 H 0.65859 0.85377 0.41024 0.0
O3756 O 0.69978 0.85518 0.51056 0.0
O3757 O 0.65706 0.82289 0.49069 0.0
O3758 O 0.65695 0.87859 0.48192 0.0
O3759 O 0.69419 0.84524 0.45489 0.0
H3760 H 0.73396 0.85004 0.54372 0.0
H3761 H 0.67971 0.89889 0.51587 0.0
H3762 H 0.74527 0.88121 0.57419 0.0
H3763 H 0.69195 0.92906 0.54673 0.0
H3764 H 0.61206 0.76058 0.52032 0.0
H3765 H 0.68375 0.81338 0.52976 0.0
H3766 H 0.62014 0.7925 0.48952 0.0
H3767 H 0.67461 0.78115 0.55974 0.0
H3768 H 0.64659 0.84516 0.5962 0.0
H3769 H 0.58597 0.86457 0.55023 0.0
H3770 H 0.76939 0.79339 0.51491 0.0
H3771 H 0.71929 0.74114 0.4848 0.0
H3772 H 0.67542 0.88691 0.43813 0.0
H3773 H 0.6221 0.9103 0.49019 0.0
H3774 H 0.6613 0.91911 0.41011 0.0
H3775 H 0.60889 0.94219 0.46121 0.0
H3776 H 0.72808 0.84688 0.42113 0.0
H3777 H 0.66789 0.80524 0.44846 0.0
H3778 H 0.73406 0.81579 0.38908 0.0
H3779 H 0.67494 0.77497 0.41602 0.0
H3780 H 0.76809 0.898 0.44235 0.0
H3781 H 0.7194 0.95728 0.45902 0.0
H3782 H 0.5747 0.83869 0.4375 0.0
H3783 H 0.62545 0.85707 0.38047 0.0
Li3784 Li 0.17387 0.69135 0.48497 0.0
Li3785 Li 0.14785 0.66286 0.50685 0.0
Li3786 Li 0.15324 0.65992 0.46258 0.0
Li3787 Li 0.12926 0.69332 0.47798 0.0
C3788 C 0.20149 0.65202 0.49298 0.0
N3789 N 0.25021 0.64504 0.50238 0.0
C3790 C 0.20965 0.64974 0.51688 0.0
C3791 C 0.21803 0.65039 0.47384 0.0
C3792 C 0.23437 0.64632 0.52126 0.0
C3793 C 0.24261 0.64696 0.47897 0.0
C3794 C 0.13246 0.70759 0.52649 0.0
C3795 C 0.09425 0.70554 0.54771 0.0
N3796 N 0.10105 0.7248 0.56155 0.0
C3797 C 0.13906 0.72737 0.5409 0.0
C3798 C 0.10987 0.69657 0.52987 0.0
C3799 C 0.12293 0.7358 0.55855 0.0
C3800 C 0.20799 0.7273 0.47113 0.0
N3801 N 0.20175 0.71158 0.48908 0.0
C3802 C 0.23185 0.72855 0.51542 0.0
C3803 C 0.21323 0.71191 0.51094 0.0
C3804 C 0.23823 0.74543 0.49744 0.0
C3805 C 0.22625 0.74447 0.47495 0.0
H3806 H 0.1982 0.72713 0.45415 0.0
H3807 H 0.20732 0.69986 0.52523 0.0
C3808 C 0.14591 0.61972 0.53301 0.0
N3809 N 0.14628 0.64417 0.53601 0.0
C3810 C 0.14744 0.60429 0.55303 0.0
C3811 C 0.15029 0.63946 0.57901 0.0
C3812 C 0.14851 0.65425 0.55844 0.0
C3813 C 0.14996 0.61405 0.57648 0.0
H3814 H 0.14517 0.61217 0.51494 0.0
H3815 H 0.14976 0.67371 0.56035 0.0
C3816 C 0.1597 0.6959 0.42968 0.0
N3817 N 0.16728 0.69795 0.38016 0.0
C3818 C 0.14099 0.70328 0.41421 0.0
C3819 C 0.18232 0.68984 0.41999 0.0
C3820 C 0.14517 0.70414 0.38921 0.0
C3821 C 0.18577 0.6909 0.3949 0.0
C3822 C 0.10725 0.64417 0.46746 0.0
C3823 C 0.09588 0.65405 0.44705 0.0
C3824 C 0.10378 0.61969 0.47306 0.0
C3825 C 0.08129 0.63925 0.43254 0.0
C3826 C 0.08911 0.60546 0.45806 0.0
N3827 N 0.07826 0.61545 0.43828 0.0
C3828 C 0.16677 0.61487 0.44286 0.0
C3829 C 0.1428 0.63822 0.41595 0.0
C3830 C 0.16607 0.59512 0.42697 0.0
N3831 N 0.15501 0.63581 0.43728 0.0
C3832 C 0.14147 0.61888 0.39961 0.0
C3833 C 0.15286 0.59676 0.40518 0.0
H3834 H 0.1761 0.61323 0.46004 0.0
H3835 H 0.13305 0.6547 0.41201 0.0
C3836 C 0.11166 0.73745 0.46239 0.0
N3837 N 0.10381 0.71564 0.47072 0.0
C3838 C 0.09537 0.75385 0.45213 0.0
C3839 C 0.06282 0.72571 0.46054 0.0
C3840 C 0.07982 0.70982 0.47079 0.0
C3841 C 0.07064 0.74781 0.45042 0.0
H3842 H 0.13086 0.7415 0.46245 0.0
H3843 H 0.07403 0.69238 0.47767 0.0
O3844 O 0.17738 0.6555 0.48832 0.0
O3845 O 0.14805 0.6993 0.50904 0.0
O3846 O 0.15599 0.69503 0.4542 0.0
O3847 O 0.12187 0.65834 0.4817 0.0
H3848 H 0.19707 0.65085 0.5319 0.0
H3849 H 0.21194 0.65165 0.45523 0.0
H3850 H 0.24097 0.64471 0.53968 0.0
H3851 H 0.25564 0.64576 0.46434 0.0
H3852 H 0.07672 0.69719 0.55053 0.0
H3853 H 0.15649 0.73611 0.53845 0.0
H3854 H 0.10441 0.68125 0.51892 0.0
H3855 H 0.1278 0.7511 0.56985 0.0
H3856 H 0.24037 0.72897 0.53313 0.0
H3857 H 0.23066 0.75717 0.46061 0.0
H3858 H 0.14679 0.58489 0.55007 0.0
H3859 H 0.15266 0.64787 0.59661 0.0
H3860 H 0.12335 0.70801 0.42135 0.0
H3861 H 0.19706 0.68443 0.43174 0.0
H3862 H 0.13083 0.70967 0.37702 0.0
H3863 H 0.20316 0.68616 0.38715 0.0
H3864 H 0.09878 0.67278 0.44206 0.0
H3865 H 0.1123 0.61171 0.4888 0.0
H3866 H 0.07256 0.64664 0.41659 0.0
H3867 H 0.08635 0.58646 0.46216 0.0
H3868 H 0.17554 0.57865 0.43191 0.0
H3869 H 0.13077 0.62097 0.38327 0.0
H3870 H 0.10238 0.77044 0.44429 0.0
H3871 H 0.04392 0.72042 0.45985 0.0
Li3872 Li 0.33908 0.14761 0.50773 0.0
Li3873 Li 0.31055 0.17374 0.48606 0.0
Li3874 Li 0.30843 0.12916 0.47897 0.0
Li3875 Li 0.34181 0.15311 0.46349 0.0
C3876 C 0.29442 0.13226 0.52755 0.0
N3877 N 0.2773 0.10074 0.56258 0.0
C3878 C 0.27472 0.13885 0.54208 0.0
C3879 C 0.30541 0.10962 0.5308 0.0
C3880 C 0.26634 0.12266 0.55971 0.0
C3881 C 0.29648 0.09396 0.54862 0.0
C3882 C 0.34994 0.20126 0.49396 0.0
C3883 C 0.35495 0.24241 0.48002 0.0
N3884 N 0.35702 0.24995 0.50344 0.0
C3885 C 0.35238 0.20935 0.51786 0.0
C3886 C 0.35146 0.21785 0.47485 0.0
C3887 C 0.35585 0.23407 0.52229 0.0
C3888 C 0.38238 0.14577 0.53353 0.0
N3889 N 0.35796 0.14593 0.53675 0.0
C3890 C 0.36301 0.14965 0.57974 0.0
C3891 C 0.34806 0.14791 0.55928 0.0
C3892 C 0.3884 0.14954 0.57697 0.0
C3893 C 0.39797 0.14727 0.55342 0.0
H3894 H 0.38977 0.14523 0.51539 0.0
H3895 H 0.3286 0.149 0.56137 0.0
C3896 C 0.27472 0.20802 0.4724 0.0
N3897 N 0.29044 0.20167 0.49031 0.0
C3898 C 0.25765 0.22635 0.4763 0.0
C3899 C 0.27367 0.23178 0.51675 0.0
C3900 C 0.29022 0.2131 0.51219 0.0
C3901 C 0.25679 0.23827 0.49882 0.0
H3902 H 0.27482 0.19827 0.45539 0.0
H3903 H 0.30227 0.2071 0.52645 0.0
C3904 C 0.35755 0.10714 0.46814 0.0
N3905 N 0.38622 0.07836 0.43872 0.0
C3906 C 0.3476 0.09578 0.44776 0.0
C3907 C 0.38208 0.10377 0.47359 0.0
C3908 C 0.36238 0.0813 0.43312 0.0
C3909 C 0.39628 0.0892 0.45847 0.0
C3910 C 0.30573 0.15963 0.43073 0.0
C3911 C 0.29827 0.14091 0.41531 0.0
C3912 C 0.31182 0.18222 0.42099 0.0
C3913 C 0.29734 0.14506 0.39031 0.0
C3914 C 0.31069 0.18563 0.3959 0.0
N3915 N 0.30355 0.16713 0.38121 0.0
C3916 C 0.26417 0.11166 0.4636 0.0
C3917 C 0.29183 0.07979 0.47178 0.0
C3918 C 0.2477 0.0954 0.45341 0.0
N3919 N 0.28602 0.10378 0.47178 0.0
C3920 C 0.27587 0.06282 0.46159 0.0
C3921 C 0.25372 0.07067 0.45162 0.0
H3922 H 0.26014 0.13087 0.46372 0.0
H3923 H 0.3093 0.07398 0.47854 0.0
C3924 C 0.38679 0.16664 0.44371 0.0
N3925 N 0.36582 0.15494 0.43813 0.0
C3926 C 0.4065 0.16599 0.42778 0.0
C3927 C 0.38265 0.14155 0.40036 0.0
C3928 C 0.36335 0.14282 0.41675 0.0
C3929 C 0.40478 0.15289 0.40593 0.0
H3930 H 0.38849 0.17589 0.46094 0.0
H3931 H 0.34686 0.13311 0.41282 0.0
O3932 O 0.30265 0.14788 0.51011 0.0
O3933 O 0.34641 0.17717 0.48925 0.0
O3934 O 0.34341 0.12168 0.4825 0.0
O3935 O 0.30667 0.15596 0.45526 0.0
H3936 H 0.26601 0.15629 0.53974 0.0
H3937 H 0.32066 0.10417 0.51975 0.0
H3938 H 0.25111 0.12752 0.5711 0.0
H3939 H 0.3048 0.07639 0.55134 0.0
H3940 H 0.35606 0.25548 0.46542 0.0
H3941 H 0.35135 0.19674 0.53286 0.0
H3942 H 0.35007 0.21181 0.45624 0.0
H3943 H 0.35758 0.24062 0.54071 0.0
H3944 H 0.35474 0.15182 0.59742 0.0
H3945 H 0.41735 0.1468 0.55028 0.0
H3946 H 0.24494 0.23085 0.462 0.0
H3947 H 0.27332 0.24026 0.53448 0.0
H3948 H 0.32882 0.09861 0.4429 0.0
H3949 H 0.39011 0.11228 0.4893 0.0
H3950 H 0.35493 0.07257 0.4172 0.0
H3951 H 0.41531 0.08651 0.46244 0.0
H3952 H 0.29352 0.12329 0.4225 0.0
H3953 H 0.3173 0.19697 0.43269 0.0
H3954 H 0.29174 0.1307 0.37816 0.0
H3955 H 0.31544 0.20301 0.3881 0.0
H3956 H 0.23107 0.10244 0.44568 0.0
H3957 H 0.28114 0.04391 0.46084 0.0
H3958 H 0.42301 0.17541 0.43273 0.0
H3959 H 0.3805 0.13093 0.38397 0.0
Li3960 Li 0.13027 0.31088 0.52491 0.0
Li3961 Li 0.15503 0.34389 0.53984 0.0
Li3962 Li 0.14829 0.33942 0.49656 0.0
Li3963 Li 0.17342 0.31062 0.51744 0.0
C3964 C 0.10583 0.35399 0.53732 0.0
N3965 N 0.07001 0.37 0.56851 0.0
C3966 C 0.10263 0.34283 0.55987 0.0
C3967 C 0.09085 0.37331 0.53065 0.0
C3968 C 0.08441 0.35117 0.57538 0.0
C3969 C 0.07283 0.38113 0.54667 0.0
C3970 C 0.17343 0.30574 0.56737 0.0
C3971 C 0.21074 0.31673 0.58741 0.0
N3972 N 0.20719 0.29856 0.60373 0.0
C3973 C 0.17013 0.28721 0.58435 0.0
C3974 C 0.19387 0.32067 0.56891 0.0
C3975 C 0.18741 0.28386 0.60259 0.0
C3976 C 0.11261 0.26783 0.54232 0.0
N3977 N 0.10447 0.28929 0.5334 0.0
C3978 C 0.06359 0.27879 0.54362 0.0
C3979 C 0.0804 0.2948 0.53324 0.0
C3980 C 0.07168 0.25689 0.55395 0.0
C3981 C 0.09653 0.25132 0.55268 0.0
H3982 H 0.13186 0.26399 0.54226 0.0
H3983 H 0.07434 0.31198 0.52594 0.0
C3984 C 0.16313 0.39078 0.55723 0.0
N3985 N 0.15738 0.36801 0.56466 0.0
C3986 C 0.1618 0.41023 0.57341 0.0
C3987 C 0.14902 0.3824 0.60478 0.0
C3988 C 0.15086 0.36341 0.58802 0.0
C3989 C 0.15409 0.40633 0.59745 0.0
H3990 H 0.16806 0.39392 0.53849 0.0
H3991 H 0.14612 0.34516 0.59342 0.0
C3992 C 0.13018 0.29697 0.47674 0.0
N3993 N 0.09625 0.28384 0.44219 0.0
C3994 C 0.13522 0.2783 0.46032 0.0
C3995 C 0.10788 0.30901 0.47551 0.0
C3996 C 0.11784 0.27192 0.443 0.0
C3997 C 0.09097 0.30209 0.45794 0.0
C3998 C 0.19744 0.35007 0.49693 0.0
C3999 C 0.20033 0.33462 0.47702 0.0
C4000 C 0.21288 0.36998 0.49969 0.0
C4001 C 0.21865 0.33937 0.46017 0.0
C4002 C 0.23099 0.37412 0.48244 0.0
N4003 N 0.23347 0.35886 0.4632 0.0
C4004 C 0.14203 0.38232 0.47036 0.0
C4005 C 0.15044 0.34838 0.44534 0.0
C4006 C 0.14332 0.39789 0.4504 0.0
N4007 N 0.14577 0.35813 0.46753 0.0
C4008 C 0.15191 0.3633 0.42486 0.0
C4009 C 0.14868 0.38849 0.42729 0.0
H4010 H 0.13871 0.38959 0.48829 0.0
H4011 H 0.15396 0.32917 0.44362 0.0
C4012 C 0.19488 0.26733 0.50343 0.0
N4013 N 0.20036 0.28908 0.51366 0.0
C4014 C 0.21314 0.25059 0.49831 0.0
C4015 C 0.24246 0.27852 0.51512 0.0
C4016 C 0.22359 0.29496 0.5196 0.0
C4017 C 0.23731 0.25612 0.50408 0.0
H4018 H 0.17624 0.26307 0.49907 0.0
H4019 H 0.22753 0.31248 0.52749 0.0
O4020 O 0.12373 0.34641 0.52189 0.0
O4021 O 0.1566 0.30913 0.54943 0.0
O4022 O 0.14715 0.30333 0.49374 0.0
O4023 O 0.17954 0.34599 0.51363 0.0
H4024 H 0.11408 0.32789 0.56538 0.0
H4025 H 0.09318 0.38219 0.51328 0.0
H4026 H 0.08173 0.3427 0.59288 0.0
H4027 H 0.0611 0.39608 0.54174 0.0
H4028 H 0.22666 0.32813 0.5888 0.0
H4029 H 0.15436 0.27553 0.58344 0.0
H4030 H 0.19676 0.33515 0.55602 0.0
H4031 H 0.1851 0.26957 0.61584 0.0
H4032 H 0.04458 0.28373 0.54405 0.0
H4033 H 0.10374 0.23491 0.56072 0.0
H4034 H 0.16649 0.42819 0.56699 0.0
H4035 H 0.14282 0.37844 0.62298 0.0
H4036 H 0.15244 0.26888 0.46089 0.0
H4037 H 0.10358 0.32356 0.48789 0.0
H4038 H 0.12151 0.25751 0.4302 0.0
H4039 H 0.07365 0.31124 0.45682 0.0
H4040 H 0.18853 0.31915 0.47452 0.0
H4041 H 0.21085 0.38213 0.515 0.0
H4042 H 0.22106 0.32757 0.44467 0.0
H4043 H 0.24306 0.38948 0.48434 0.0
H4044 H 0.14031 0.41711 0.4531 0.0
H4045 H 0.15635 0.35527 0.40749 0.0
H4046 H 0.20835 0.23336 0.49016 0.0
H4047 H 0.2609 0.28345 0.51978 0.0
Li4048 Li 0.65889 0.15479 0.53874 0.0
Li4049 Li 0.69194 0.13013 0.52375 0.0
Li4050 Li 0.692 0.17325 0.51618 0.0
Li4051 Li 0.66321 0.14797 0.49547 0.0
C4052 C 0.69703 0.1734 0.56611 0.0
N4053 N 0.70417 0.20728 0.60238 0.0
C4054 C 0.71566 0.17025 0.58301 0.0
C4055 C 0.68199 0.19376 0.56768 0.0
C4056 C 0.71899 0.18758 0.60121 0.0
C4057 C 0.68591 0.21068 0.58614 0.0
C4058 C 0.64893 0.10555 0.53636 0.0
C4059 C 0.62182 0.07256 0.54586 0.0
N4060 N 0.63308 0.06974 0.56764 0.0
C4061 C 0.66022 0.10235 0.55884 0.0
C4062 C 0.62956 0.09058 0.5298 0.0
C4063 C 0.65195 0.08413 0.5744 0.0
C4064 C 0.6121 0.1631 0.55627 0.0
N4065 N 0.63485 0.15717 0.56361 0.0
C4066 C 0.62053 0.14873 0.60373 0.0
C4067 C 0.63947 0.15052 0.58693 0.0
C4068 C 0.59661 0.154 0.5965 0.0
C4069 C 0.59269 0.16185 0.5725 0.0
H4070 H 0.60894 0.16814 0.53756 0.0
H4071 H 0.65771 0.14565 0.59226 0.0
C4072 C 0.73505 0.11268 0.54123 0.0
N4073 N 0.71365 0.10443 0.53225 0.0
C4074 C 0.75162 0.09668 0.55162 0.0
C4075 C 0.72435 0.06359 0.54247 0.0
C4076 C 0.70827 0.08033 0.53206 0.0
C4077 C 0.74619 0.07179 0.55287 0.0
H4078 H 0.73879 0.13195 0.54118 0.0
H4079 H 0.69114 0.07418 0.52474 0.0
C4080 C 0.65242 0.1971 0.49576 0.0
N4081 N 0.64343 0.23304 0.462 0.0
C4082 C 0.66776 0.19994 0.47576 0.0
C4083 C 0.63252 0.21254 0.4986 0.0
C4084 C 0.6629 0.21822 0.45889 0.0
C4085 C 0.62828 0.2306 0.48133 0.0
C4086 C 0.70564 0.12996 0.47551 0.0
C4087 C 0.72423 0.135 0.45902 0.0
C4088 C 0.69365 0.10762 0.47439 0.0
C4089 C 0.7306 0.11758 0.44173 0.0
C4090 C 0.70056 0.09068 0.45685 0.0
N4091 N 0.71874 0.09596 0.44103 0.0
C4092 C 0.73506 0.19496 0.50186 0.0
C4093 C 0.70741 0.22348 0.51833 0.0
C4094 C 0.75167 0.21332 0.49671 0.0
N4095 N 0.71337 0.20029 0.51227 0.0
C4096 C 0.72372 0.24244 0.51384 0.0
C4097 C 0.74608 0.23744 0.50263 0.0
H4098 H 0.73939 0.17636 0.4974 0.0
H4099 H 0.68992 0.22729 0.52636 0.0
C4100 C 0.62016 0.14169 0.46961 0.0
N4101 N 0.64434 0.14535 0.46656 0.0
C4102 C 0.60443 0.14298 0.44979 0.0
C4103 C 0.63882 0.15136 0.42393 0.0
C4104 C 0.65391 0.14991 0.44428 0.0
C4105 C 0.61364 0.14825 0.42659 0.0
H4106 H 0.61303 0.13846 0.48762 0.0
H4107 H 0.67312 0.15336 0.44239 0.0
O4108 O 0.69367 0.15652 0.54822 0.0
O4109 O 0.65643 0.12345 0.52089 0.0
O4110 O 0.65661 0.17923 0.51248 0.0
O4111 O 0.6993 0.14696 0.4925 0.0
H4112 H 0.72742 0.15455 0.58208 0.0
H4113 H 0.66743 0.19653 0.55485 0.0
H4114 H 0.73335 0.18537 0.6144 0.0
H4115 H 0.67442 0.22653 0.58755 0.0
H4116 H 0.60684 0.06084 0.54103 0.0
H4117 H 0.67519 0.1138 0.56427 0.0
H4118 H 0.62058 0.09291 0.51248 0.0
H4119 H 0.66053 0.08145 0.59185 0.0
H4120 H 0.6245 0.14241 0.6219 0.0
H4121 H 0.57476 0.1667 0.56615 0.0
H4122 H 0.76796 0.10398 0.55972 0.0
H4123 H 0.71951 0.04456 0.54287 0.0
H4124 H 0.68321 0.18814 0.4732 0.0
H4125 H 0.62047 0.21055 0.51398 0.0
H4126 H 0.67461 0.22059 0.44332 0.0
H4127 H 0.61294 0.24268 0.48329 0.0
H4128 H 0.73361 0.15224 0.4595 0.0
H4129 H 0.67916 0.10332 0.48683 0.0
H4130 H 0.74496 0.12125 0.42887 0.0
H4131 H 0.69146 0.07332 0.45582 0.0
H4132 H 0.76887 0.20866 0.48842 0.0
H4133 H 0.71875 0.26084 0.51862 0.0
H4134 H 0.58522 0.14006 0.45266 0.0
H4135 H 0.64671 0.15572 0.40647 0.0
Li4136 Li 0.34327 0.84775 0.53875 0.0
Li4137 Li 0.31023 0.87234 0.52367 0.0
Li4138 Li 0.31017 0.82921 0.5161 0.0
Li4139 Li 0.33895 0.85457 0.49546 0.0
C4140 C 0.30506 0.82903 0.56599 0.0
N4141 N 0.29789 0.79508 0.60219 0.0
C4142 C 0.28643 0.83216 0.5829 0.0
C4143 C 0.32009 0.80865 0.56753 0.0
C4144 C 0.28309 0.81479 0.60106 0.0
C4145 C 0.31615 0.79169 0.58595 0.0
C4146 C 0.35285 0.89701 0.53654 0.0
C4147 C 0.37904 0.93069 0.5462 0.0
N4148 N 0.36794 0.93288 0.56813 0.0
C4149 C 0.34172 0.89957 0.55919 0.0
C4150 C 0.37167 0.91265 0.52998 0.0
C4151 C 0.3496 0.91783 0.5749 0.0
C4152 C 0.39039 0.84121 0.55596 0.0
N4153 N 0.36738 0.84555 0.56361 0.0
C4154 C 0.38141 0.85281 0.60407 0.0
C4155 C 0.36252 0.85092 0.58721 0.0
C4156 C 0.40553 0.84915 0.59655 0.0
C4157 C 0.40978 0.84278 0.57219 0.0
H4158 H 0.39373 0.83725 0.53702 0.0
H4159 H 0.34409 0.85469 0.59278 0.0
C4160 C 0.26723 0.89005 0.54132 0.0
N4161 N 0.28862 0.89812 0.53216 0.0
C4162 C 0.25083 0.90623 0.55174 0.0
C4163 C 0.27826 0.93908 0.54223 0.0
C4164 C 0.29416 0.92218 0.53181 0.0
C4165 C 0.25644 0.93108 0.55281 0.0
H4166 H 0.26337 0.87081 0.54141 0.0
H4167 H 0.31128 0.92818 0.52434 0.0
C4168 C 0.35008 0.80549 0.49582 0.0
N4169 N 0.35966 0.76963 0.46213 0.0
C4170 C 0.33466 0.80221 0.47594 0.0
C4171 C 0.37035 0.79055 0.49857 0.0
C4172 C 0.33982 0.78398 0.45911 0.0
C4173 C 0.37489 0.77251 0.48134 0.0
C4174 C 0.29656 0.87249 0.4754 0.0
C4175 C 0.27788 0.86749 0.45899 0.0
C4176 C 0.30864 0.89477 0.47419 0.0
C4177 C 0.2715 0.88491 0.44171 0.0
C4178 C 0.30172 0.91171 0.45665 0.0
N4179 N 0.28345 0.90648 0.44091 0.0
C4180 C 0.26704 0.80749 0.5019 0.0
C4181 C 0.29476 0.77893 0.51817 0.0
C4182 C 0.25039 0.78914 0.4968 0.0
N4183 N 0.28878 0.80213 0.51219 0.0
C4184 C 0.27842 0.75997 0.51371 0.0
C4185 C 0.256 0.765 0.50263 0.0
H4186 H 0.26269 0.8261 0.49751 0.0
H4187 H 0.31228 0.77509 0.52611 0.0
C4188 C 0.38182 0.86202 0.4696 0.0
N4189 N 0.35783 0.85731 0.46659 0.0
C4190 C 0.39766 0.86088 0.44986 0.0
C4191 C 0.36372 0.85045 0.42413 0.0
C4192 C 0.34851 0.85187 0.44439 0.0
C4193 C 0.38876 0.8546 0.42677 0.0
H4194 H 0.38875 0.86598 0.48754 0.0
H4195 H 0.32944 0.84769 0.44254 0.0
O4196 O 0.30844 0.84593 0.54813 0.0
O4197 O 0.34572 0.8791 0.5209 0.0
O4198 O 0.3456 0.82334 0.51248 0.0
O4199 O 0.30289 0.8555 0.4924 0.0
H4200 H 0.27468 0.84787 0.58199 0.0
H4201 H 0.33466 0.8059 0.55471 0.0
H4202 H 0.26872 0.81698 0.61425 0.0
H4203 H 0.32763 0.77583 0.58734 0.0
H4204 H 0.39359 0.94293 0.54135 0.0
H4205 H 0.32714 0.88762 0.56462 0.0
H4206 H 0.38052 0.91083 0.51253 0.0
H4207 H 0.34114 0.92002 0.59248 0.0
H4208 H 0.37723 0.85798 0.62256 0.0
H4209 H 0.42794 0.83928 0.5656 0.0
H4210 H 0.2345 0.89908 0.55998 0.0
H4211 H 0.28322 0.95808 0.54249 0.0
H4212 H 0.31894 0.81366 0.47344 0.0
H4213 H 0.38248 0.7929 0.51385 0.0
H4214 H 0.32806 0.78127 0.44363 0.0
H4215 H 0.39054 0.76081 0.48323 0.0
H4216 H 0.26843 0.85029 0.45955 0.0
H4217 H 0.3232 0.89903 0.48655 0.0
H4218 H 0.25707 0.88127 0.42891 0.0
H4219 H 0.31089 0.92902 0.45554 0.0
H4220 H 0.23315 0.79383 0.48861 0.0
H4221 H 0.28342 0.74157 0.51842 0.0
H4222 H 0.41672 0.86466 0.45273 0.0
H4223 H 0.35606 0.8453 0.40678 0.0
loop_
_geom_bond_atom_site_label_1
_geom_bond_atom_site_label_2
_geom_bond_distance
_geom_bond_site_symmetry_2
_ccdc_geom_bond_type
Li0 N17 1.990 . S
Li0 O60 1.956 . S
Li0 O61 1.970 . S
Li0 O62 1.961 . S
Li1 N25 1.990 . S
Li1 O60 1.970 . S
Li1 O61 1.956 . S
Li1 O63 1.945 1_455 S
Li2 N47 1.990 . S
Li2 O60 1.961 . S
Li2 O62 1.956 . S
Li2 O63 1.961 1_455 S
Li3 N53 1.990 . S
Li3 O61 1.961 1_655 S
Li3 O62 1.970 1_655 S
Li3 O63 1.959 . S
C4 C6 1.348 . S
C4 C7 1.356 . S
C4 O60 1.325 . S
N5 C8 1.314 . S
N5 C9 1.279 . S
C6 C4 1.348 . S
C6 C8 1.353 . S
C6 H64 0.929 . S
C7 C4 1.356 . S
C7 C9 1.358 . S
C7 H65 0.930 . S
C8 N5 1.314 . S
C8 C6 1.353 . S
C8 H66 0.930 . S
C9 N5 1.279 . S
C9 C7 1.358 . S
C9 H67 0.930 . S
C10 C13 1.348 . S
C10 C14 1.356 . S
C10 O61 1.325 . S
C11 N12 1.279 . S
C11 C14 1.358 . S
C11 H68 0.930 . S
N12 C11 1.279 . S
N12 C15 1.314 . S
C13 C10 1.348 . S
C13 C15 1.353 . S
C13 H69 0.929 . S
C14 C10 1.356 . S
C14 C11 1.358 . S
C14 H70 0.930 1_455 S
C15 N12 1.314 . S
C15 C13 1.353 . S
C15 H71 0.930 . S
C16 N17 1.314 . S
C16 C21 1.353 . S
C16 H22 0.930 . S
N17 Li0 1.990 . S
N17 C16 1.314 . S
N17 C19 1.279 . S
C18 C19 1.358 . S
C18 C20 1.356 . S
C18 H72 0.930 . S
C19 N17 1.279 . S
C19 C18 1.358 . S
C19 H23 0.930 . S
C20 C18 1.356 . S
C20 C21 1.348 . S
C21 C16 1.353 . S
C21 C20 1.348 . S
C21 H73 0.929 . S
H22 C16 0.930 . S
H23 C19 0.930 . S
C24 N25 1.314 . S
C24 C26 1.353 . S
C24 H30 0.930 . S
N25 Li1 1.990 . S
N25 C24 1.314 . S
N25 C28 1.279 . S
C26 C24 1.353 . S
C26 C29 1.348 . S
C26 H74 0.929 . S
C27 C28 1.358 . S
C27 C29 1.356 . S
C27 H75 0.930 . S
C28 N25 1.279 . S
C28 C27 1.358 . S
C28 H31 0.930 . S
C29 C26 1.348 . S
C29 C27 1.356 . S
H30 C24 0.930 . S
H31 C28 0.930 . S
C32 C34 1.348 1_455 S
C32 C35 1.356 . S
C32 O62 1.325 . S
N33 C36 1.314 . S
N33 C37 1.279 1_655 S
C34 C32 1.348 1_655 S
C34 C36 1.353 . S
C34 H76 0.929 . S
C35 C32 1.356 . S
C35 C37 1.358 . S
C35 H77 0.930 . S
C36 N33 1.314 . S
C36 C34 1.353 . S
C36 H78 0.930 . S
C37 N33 1.279 1_455 S
C37 C35 1.358 . S
C37 H79 0.930 . S
C38 C39 1.348 . S
C38 C40 1.356 . S
C38 O63 1.338 . S
C39 C38 1.348 . S
C39 C41 1.353 . S
C39 H80 0.929 . S
C40 C38 1.356 . S
C40 C42 1.358 . S
C40 H81 0.930 . S
C41 C39 1.353 . S
C41 N43 1.314 . S
C41 H82 0.930 . S
C42 C40 1.358 . S
C42 N43 1.279 . S
C42 H83 0.930 . S
N43 C41 1.314 . S
N43 C42 1.279 . S
C44 C46 1.353 . S
C44 N47 1.314 . S
C44 H50 0.930 . S
C45 N47 1.279 . S
C45 C48 1.358 1_455 S
C45 H51 0.930 1_455 S
C46 C44 1.353 . S
C46 C49 1.348 . S
C46 H84 0.929 . S
N47 Li2 1.990 . S
N47 C44 1.314 . S
N47 C45 1.279 . S
C48 C45 1.358 1_655 S
C48 C49 1.356 1_655 S
C48 H85 0.930 . S
C49 C46 1.348 . S
C49 C48 1.356 1_455 S
H50 C44 0.930 . S
H51 C45 0.930 1_655 S
C52 N53 1.314 . S
C52 C54 1.353 . S
C52 H58 0.930 . S
N53 Li3 1.990 . S
N53 C52 1.314 . S
N53 C56 1.279 . S
C54 C52 1.353 . S
C54 C57 1.348 . S
C54 H86 0.929 . S
C55 C56 1.358 . S
C55 C57 1.356 . S
C55 H87 0.930 . S
C56 N53 1.279 . S
C56 C55 1.358 . S
C56 H59 0.930 . S
C57 C54 1.348 . S
C57 C55 1.356 . S
H58 C52 0.930 . S
H59 C56 0.930 . S
O60 Li0 1.956 . S
O60 Li1 1.970 . S
O60 Li2 1.961 . S
O60 C4 1.325 . S
O61 Li0 1.970 . S
O61 Li1 1.956 . S
O61 Li3 1.961 1_455 S
O61 C10 1.325 . S
O62 Li0 1.961 . S
O62 Li2 1.956 . S
O62 Li3 1.970 1_455 S
O62 C32 1.325 . S
O63 Li1 1.945 1_655 S
O63 Li2 1.961 1_655 S
O63 Li3 1.959 . S
O63 C38 1.338 . S
H64 C6 0.929 . S
H65 C7 0.930 . S
H66 C8 0.930 . S
H67 C9 0.930 . S
H68 C11 0.930 . S
H69 C13 0.929 . S
H70 C14 0.930 1_655 S
H71 C15 0.930 . S
H72 C18 0.930 . S
H73 C21 0.929 . S
H74 C26 0.929 . S
H75 C27 0.930 . S
H76 C34 0.929 . S
H77 C35 0.930 . S
H78 C36 0.930 . S
H79 C37 0.930 . S
H80 C39 0.929 . S
H81 C40 0.930 . S
H82 C41 0.930 . S
H83 C42 0.930 . S
H84 C46 0.929 . S
H85 C48 0.930 . S
H86 C54 0.929 . S
H87 C55 0.930 . S
Li88 N105 1.990 . S
Li88 O148 1.959 . S
Li88 O149 1.970 1_565 S
Li88 O150 1.961 1_565 S
Li89 N113 1.990 . S
Li89 O148 1.961 1_545 S
Li89 O149 1.956 . S
Li89 O151 1.961 . S
Li90 N135 1.990 . S
Li90 O148 1.945 1_545 S
Li90 O150 1.956 . S
Li90 O151 1.970 . S
Li91 N141 1.990 . S
Li91 O149 1.961 . S
Li91 O150 1.970 . S
Li91 O151 1.956 . S
C92 C94 1.348 . S
C92 C95 1.356 . S
C92 O148 1.338 . S
N93 C96 1.314 . S
N93 C97 1.279 . S
C94 C92 1.348 . S
C94 C96 1.353 . S
C94 H152 0.929 . S
C95 C92 1.356 . S
C95 C97 1.358 . S
C95 H153 0.930 . S
C96 N93 1.314 . S
C96 C94 1.353 . S
C96 H154 0.930 . S
C97 N93 1.279 . S
C97 C95 1.358 . S
C97 H155 0.930 . S
C98 C101 1.348 1_545 S
C98 C102 1.356 . S
C98 O149 1.325 . S
C99 N100 1.279 1_545 S
C99 C102 1.358 . S
C99 H156 0.930 . S
N100 C99 1.279 1_565 S
N100 C103 1.314 . S
C101 C98 1.348 1_565 S
C101 C103 1.353 . S
C101 H157 0.929 . S
C102 C98 1.356 . S
C102 C99 1.358 . S
C102 H158 0.930 . S
C103 N100 1.314 . S
C103 C101 1.353 . S
C103 H159 0.930 . S
C104 N105 1.314 . S
C104 C109 1.353 . S
C104 H110 0.930 . S
N105 Li88 1.990 . S
N105 C104 1.314 . S
N105 C107 1.279 . S
C106 C107 1.358 . S
C106 C108 1.356 . S
C106 H160 0.930 . S
C107 N105 1.279 . S
C107 C106 1.358 . S
C107 H111 0.930 . S
C108 C106 1.356 . S
C108 C109 1.348 . S
C109 C104 1.353 . S
C109 C108 1.348 . S
C109 H161 0.929 . S
H110 C104 0.930 . S
H111 C107 0.930 . S
C112 N113 1.314 . S
C112 C114 1.353 . S
C112 H118 0.930 . S
N113 Li89 1.990 . S
N113 C112 1.314 . S
N113 C116 1.279 . S
C114 C112 1.353 . S
C114 C117 1.348 . S
C114 H162 0.929 . S
C115 C116 1.358 1_565 S
C115 C117 1.356 1_565 S
C115 H163 0.930 . S
C116 N113 1.279 . S
C116 C115 1.358 1_545 S
C116 H119 0.930 1_545 S
C117 C114 1.348 . S
C117 C115 1.356 1_545 S
H118 C112 0.930 . S
H119 C116 0.930 1_565 S
C120 C122 1.348 . S
C120 C123 1.356 . S
C120 O150 1.325 . S
N121 C124 1.314 . S
N121 C125 1.279 . S
C122 C120 1.348 . S
C122 C124 1.353 . S
C122 H164 0.929 . S
C123 C120 1.356 . S
C123 C125 1.358 . S
C123 H165 0.930 1_545 S
C124 N121 1.314 . S
C124 C122 1.353 . S
C124 H166 0.930 . S
C125 N121 1.279 . S
C125 C123 1.358 . S
C125 H167 0.930 . S
C126 C127 1.348 . S
C126 C128 1.356 . S
C126 O151 1.325 . S
C127 C126 1.348 . S
C127 C129 1.353 . S
C127 H168 0.929 . S
C128 C126 1.356 . S
C128 C130 1.358 . S
C128 H169 0.930 . S
C129 C127 1.353 . S
C129 N131 1.314 . S
C129 H170 0.930 . S
C130 C128 1.358 . S
C130 N131 1.279 . S
C130 H171 0.930 . S
N131 C129 1.314 . S
N131 C130 1.279 . S
C132 C134 1.353 . S
C132 N135 1.314 . S
C132 H138 0.930 . S
C133 N135 1.279 . S
C133 C136 1.358 . S
C133 H139 0.930 . S
C134 C132 1.353 . S
C134 C137 1.348 . S
C134 H172 0.929 . S
N135 Li90 1.990 . S
N135 C132 1.314 . S
N135 C133 1.279 . S
C136 C133 1.358 . S
C136 C137 1.356 . S
C136 H173 0.930 . S
C137 C134 1.348 . S
C137 C136 1.356 . S
H138 C132 0.930 . S
H139 C133 0.930 . S
C140 N141 1.314 . S
C140 C142 1.353 . S
C140 H146 0.930 . S
N141 Li91 1.990 . S
N141 C140 1.314 . S
N141 C144 1.279 . S
C142 C140 1.353 . S
C142 C145 1.348 . S
C142 H174 0.929 . S
C143 C144 1.358 . S
C143 C145 1.356 . S
C143 H175 0.930 . S
C144 N141 1.279 . S
C144 C143 1.358 . S
C144 H147 0.930 . S
C145 C142 1.348 . S
C145 C143 1.356 . S
H146 C140 0.930 . S
H147 C144 0.930 . S
O148 Li88 1.959 . S
O148 Li89 1.961 1_565 S
O148 Li90 1.945 1_565 S
O148 C92 1.338 . S
O149 Li88 1.970 1_545 S
O149 Li89 1.956 . S
O149 Li91 1.961 . S
O149 C98 1.325 . S
O150 Li88 1.961 1_545 S
O150 Li90 1.956 . S
O150 Li91 1.970 . S
O150 C120 1.325 . S
O151 Li89 1.961 . S
O151 Li90 1.970 . S
O151 Li91 1.956 . S
O151 C126 1.325 . S
H152 C94 0.929 . S
H153 C95 0.930 . S
H154 C96 0.930 . S
H155 C97 0.930 . S
H156 C99 0.930 . S
H157 C101 0.929 . S
H158 C102 0.930 . S
H159 C103 0.930 . S
H160 C106 0.930 . S
H161 C109 0.929 . S
H162 C114 0.929 . S
H163 C115 0.930 . S
H164 C122 0.929 . S
H165 C123 0.930 1_565 S
H166 C124 0.930 . S
H167 C125 0.930 . S
H168 C127 0.929 . S
H169 C128 0.930 . S
H170 C129 0.930 . S
H171 C130 0.930 . S
H172 C134 0.929 . S
H173 C136 0.930 . S
H174 C142 0.929 . S
H175 C143 0.930 . S
Li176 N193 1.990 . S
Li176 O236 1.959 . S
Li176 O237 1.970 1_455 S
Li176 O238 1.961 1_455 S
Li177 N201 1.990 . S
Li177 O236 1.961 1_655 S
Li177 O237 1.956 . S
Li177 O239 1.961 . S
Li178 N223 1.990 . S
Li178 O236 1.945 1_655 S
Li178 O238 1.956 . S
Li178 O239 1.970 . S
Li179 N229 1.990 . S
Li179 O237 1.961 . S
Li179 O238 1.970 . S
Li179 O239 1.956 . S
C180 C182 1.348 . S
C180 C183 1.356 . S
C180 O236 1.338 . S
N181 C184 1.314 . S
N181 C185 1.279 . S
C182 C180 1.348 . S
C182 C184 1.353 . S
C182 H240 0.929 . S
C183 C180 1.356 . S
C183 C185 1.358 . S
C183 H241 0.930 . S
C184 N181 1.314 . S
C184 C182 1.353 . S
C184 H242 0.930 . S
C185 N181 1.279 . S
C185 C183 1.358 . S
C185 H243 0.930 . S
C186 C189 1.348 1_655 S
C186 C190 1.356 . S
C186 O237 1.325 . S
C187 N188 1.279 1_655 S
C187 C190 1.358 . S
C187 H244 0.930 . S
N188 C187 1.279 1_455 S
N188 C191 1.314 . S
C189 C186 1.348 1_455 S
C189 C191 1.353 . S
C189 H245 0.929 . S
C190 C186 1.356 . S
C190 C187 1.358 . S
C190 H246 0.930 . S
C191 N188 1.314 . S
C191 C189 1.353 . S
C191 H247 0.930 . S
C192 N193 1.314 . S
C192 C197 1.353 . S
C192 H198 0.930 . S
N193 Li176 1.990 . S
N193 C192 1.314 . S
N193 C195 1.279 . S
C194 C195 1.358 . S
C194 C196 1.356 . S
C194 H248 0.930 . S
C195 N193 1.279 . S
C195 C194 1.358 . S
C195 H199 0.930 . S
C196 C194 1.356 . S
C196 C197 1.348 . S
C197 C192 1.353 . S
C197 C196 1.348 . S
C197 H249 0.929 . S
H198 C192 0.930 . S
H199 C195 0.930 . S
C200 N201 1.314 . S
C200 C202 1.353 . S
C200 H206 0.930 . S
N201 Li177 1.990 . S
N201 C200 1.314 . S
N201 C204 1.279 . S
C202 C200 1.353 . S
C202 C205 1.348 . S
C202 H250 0.929 . S
C203 C204 1.358 1_455 S
C203 C205 1.356 1_455 S
C203 H251 0.930 . S
C204 N201 1.279 . S
C204 C203 1.358 1_655 S
C204 H207 0.930 1_655 S
C205 C202 1.348 . S
C205 C203 1.356 1_655 S
H206 C200 0.930 . S
H207 C204 0.930 1_455 S
C208 C210 1.348 . S
C208 C211 1.356 . S
C208 O238 1.325 . S
N209 C212 1.314 . S
N209 C213 1.279 . S
C210 C208 1.348 . S
C210 C212 1.353 . S
C210 H252 0.929 . S
C211 C208 1.356 . S
C211 C213 1.358 . S
C211 H253 0.930 1_655 S
C212 N209 1.314 . S
C212 C210 1.353 . S
C212 H254 0.930 . S
C213 N209 1.279 . S
C213 C211 1.358 . S
C213 H255 0.930 . S
C214 C215 1.348 . S
C214 C216 1.356 . S
C214 O239 1.325 . S
C215 C214 1.348 . S
C215 C217 1.353 . S
C215 H256 0.929 . S
C216 C214 1.356 . S
C216 C218 1.358 . S
C216 H257 0.930 . S
C217 C215 1.353 . S
C217 N219 1.314 . S
C217 H258 0.930 . S
C218 C216 1.358 . S
C218 N219 1.279 . S
C218 H259 0.930 . S
N219 C217 1.314 . S
N219 C218 1.279 . S
C220 C222 1.353 . S
C220 N223 1.314 . S
C220 H226 0.930 . S
C221 N223 1.279 . S
C221 C224 1.358 . S
C221 H227 0.930 . S
C222 C220 1.353 . S
C222 C225 1.348 . S
C222 H260 0.929 . S
N223 Li178 1.990 . S
N223 C220 1.314 . S
N223 C221 1.279 . S
C224 C221 1.358 . S
C224 C225 1.356 . S
C224 H261 0.930 . S
C225 C222 1.348 . S
C225 C224 1.356 . S
H226 C220 0.930 . S
H227 C221 0.930 . S
C228 N229 1.314 . S
C228 C230 1.353 . S
C228 H234 0.930 . S
N229 Li179 1.990 . S
N229 C228 1.314 . S
N229 C232 1.279 . S
C230 C228 1.353 . S
C230 C233 1.348 . S
C230 H262 0.929 . S
C231 C232 1.358 . S
C231 C233 1.356 . S
C231 H263 0.930 . S
C232 N229 1.279 . S
C232 C231 1.358 . S
C232 H235 0.930 . S
C233 C230 1.348 . S
C233 C231 1.356 . S
H234 C228 0.930 . S
H235 C232 0.930 . S
O236 Li176 1.959 . S
O236 Li177 1.961 1_455 S
O236 Li178 1.945 1_455 S
O236 C180 1.338 . S
O237 Li176 1.970 1_655 S
O237 Li177 1.956 . S
O237 Li179 1.961 . S
O237 C186 1.325 . S
O238 Li176 1.961 1_655 S
O238 Li178 1.956 . S
O238 Li179 1.970 . S
O238 C208 1.325 . S
O239 Li177 1.961 . S
O239 Li178 1.970 . S
O239 Li179 1.956 . S
O239 C214 1.325 . S
H240 C182 0.929 . S
H241 C183 0.930 . S
H242 C184 0.930 . S
H243 C185 0.930 . S
H244 C187 0.930 . S
H245 C189 0.929 . S
H246 C190 0.930 . S
H247 C191 0.930 . S
H248 C194 0.930 . S
H249 C197 0.929 . S
H250 C202 0.929 . S
H251 C203 0.930 . S
H252 C210 0.929 . S
H253 C211 0.930 1_455 S
H254 C212 0.930 . S
H255 C213 0.930 . S
H256 C215 0.929 . S
H257 C216 0.930 . S
H258 C217 0.930 . S
H259 C218 0.930 . S
H260 C222 0.929 . S
H261 C224 0.930 . S
H262 C230 0.929 . S
H263 C231 0.930 . S
Li264 N281 1.990 . S
Li264 O324 1.956 . S
Li264 O325 1.970 . S
Li264 O326 1.961 . S
Li265 N289 1.990 . S
Li265 O324 1.970 . S
Li265 O325 1.956 . S
Li265 O327 1.945 1_565 S
Li266 N311 1.990 . S
Li266 O324 1.961 . S
Li266 O326 1.956 . S
Li266 O327 1.961 1_565 S
Li267 N317 1.990 . S
Li267 O325 1.961 1_545 S
Li267 O326 1.970 1_545 S
Li267 O327 1.959 . S
C268 C270 1.348 . S
C268 C271 1.356 . S
C268 O324 1.325 . S
N269 C272 1.314 . S
N269 C273 1.279 . S
C270 C268 1.348 . S
C270 C272 1.353 . S
C270 H328 0.929 . S
C271 C268 1.356 . S
C271 C273 1.358 . S
C271 H329 0.930 . S
C272 N269 1.314 . S
C272 C270 1.353 . S
C272 H330 0.930 . S
C273 N269 1.279 . S
C273 C271 1.358 . S
C273 H331 0.930 . S
C274 C277 1.348 . S
C274 C278 1.356 . S
C274 O325 1.325 . S
C275 N276 1.279 . S
C275 C278 1.358 . S
C275 H332 0.930 . S
N276 C275 1.279 . S
N276 C279 1.314 . S
C277 C274 1.348 . S
C277 C279 1.353 . S
C277 H333 0.929 . S
C278 C274 1.356 . S
C278 C275 1.358 . S
C278 H334 0.930 1_565 S
C279 N276 1.314 . S
C279 C277 1.353 . S
C279 H335 0.930 . S
C280 N281 1.314 . S
C280 C285 1.353 . S
C280 H286 0.930 . S
N281 Li264 1.990 . S
N281 C280 1.314 . S
N281 C283 1.279 . S
C282 C283 1.358 . S
C282 C284 1.356 . S
C282 H336 0.930 . S
C283 N281 1.279 . S
C283 C282 1.358 . S
C283 H287 0.930 . S
C284 C282 1.356 . S
C284 C285 1.348 . S
C285 C280 1.353 . S
C285 C284 1.348 . S
C285 H337 0.929 . S
H286 C280 0.930 . S
H287 C283 0.930 . S
C288 N289 1.314 . S
C288 C290 1.353 . S
C288 H294 0.930 . S
N289 Li265 1.990 . S
N289 C288 1.314 . S
N289 C292 1.279 . S
C290 C288 1.353 . S
C290 C293 1.348 . S
C290 H338 0.929 . S
C291 C292 1.358 . S
C291 C293 1.356 . S
C291 H339 0.930 . S
C292 N289 1.279 . S
C292 C291 1.358 . S
C292 H295 0.930 . S
C293 C290 1.348 . S
C293 C291 1.356 . S
H294 C288 0.930 . S
H295 C292 0.930 . S
C296 C298 1.348 1_565 S
C296 C299 1.356 . S
C296 O326 1.325 . S
N297 C300 1.314 . S
N297 C301 1.279 1_545 S
C298 C296 1.348 1_545 S
C298 C300 1.353 . S
C298 H340 0.929 . S
C299 C296 1.356 . S
C299 C301 1.358 . S
C299 H341 0.930 . S
C300 N297 1.314 . S
C300 C298 1.353 . S
C300 H342 0.930 . S
C301 N297 1.279 1_565 S
C301 C299 1.358 . S
C301 H343 0.930 . S
C302 C303 1.348 . S
C302 C304 1.356 . S
C302 O327 1.338 . S
C303 C302 1.348 . S
C303 C305 1.353 . S
C303 H344 0.929 . S
C304 C302 1.356 . S
C304 C306 1.358 . S
C304 H345 0.930 . S
C305 C303 1.353 . S
C305 N307 1.314 . S
C305 H346 0.930 . S
C306 C304 1.358 . S
C306 N307 1.279 . S
C306 H347 0.930 . S
N307 C305 1.314 . S
N307 C306 1.279 . S
C308 C310 1.353 . S
C308 N311 1.314 . S
C308 H314 0.930 . S
C309 N311 1.279 . S
C309 C312 1.358 1_565 S
C309 H315 0.930 1_565 S
C310 C308 1.353 . S
C310 C313 1.348 . S
C310 H348 0.929 . S
N311 Li266 1.990 . S
N311 C308 1.314 . S
N311 C309 1.279 . S
C312 C309 1.358 1_545 S
C312 C313 1.356 1_545 S
C312 H349 0.930 . S
C313 C310 1.348 . S
C313 C312 1.356 1_565 S
H314 C308 0.930 . S
H315 C309 0.930 1_545 S
C316 N317 1.314 . S
C316 C318 1.353 . S
C316 H322 0.930 . S
N317 Li267 1.990 . S
N317 C316 1.314 . S
N317 C320 1.279 . S
C318 C316 1.353 . S
C318 C321 1.348 . S
C318 H350 0.929 . S
C319 C320 1.358 . S
C319 C321 1.356 . S
C319 H351 0.930 . S
C320 N317 1.279 . S
C320 C319 1.358 . S
C320 H323 0.930 . S
C321 C318 1.348 . S
C321 C319 1.356 . S
H322 C316 0.930 . S
H323 C320 0.930 . S
O324 Li264 1.956 . S
O324 Li265 1.970 . S
O324 Li266 1.961 . S
O324 C268 1.325 . S
O325 Li264 1.970 . S
O325 Li265 1.956 . S
O325 Li267 1.961 1_565 S
O325 C274 1.325 . S
O326 Li264 1.961 . S
O326 Li266 1.956 . S
O326 Li267 1.970 1_565 S
O326 C296 1.325 . S
O327 Li265 1.945 1_545 S
O327 Li266 1.961 1_545 S
O327 Li267 1.959 . S
O327 C302 1.338 . S
H328 C270 0.929 . S
H329 C271 0.930 . S
H330 C272 0.930 . S
H331 C273 0.930 . S
H332 C275 0.930 . S
H333 C277 0.929 . S
H334 C278 0.930 1_545 S
H335 C279 0.930 . S
H336 C282 0.930 . S
H337 C285 0.929 . S
H338 C290 0.929 . S
H339 C291 0.930 . S
H340 C298 0.929 . S
H341 C299 0.930 . S
H342 C300 0.930 . S
H343 C301 0.930 . S
H344 C303 0.929 . S
H345 C304 0.930 . S
H346 C305 0.930 . S
H347 C306 0.930 . S
H348 C310 0.929 . S
H349 C312 0.930 . S
H350 C318 0.929 . S
H351 C319 0.930 . S
Li352 N369 1.990 . S
Li352 O412 1.956 . S
Li352 O413 1.961 1_455 S
Li352 O414 1.961 . S
Li353 N377 1.990 . S
Li353 O412 1.970 1_655 S
Li353 O413 1.959 . S
Li353 O415 1.961 1_655 S
Li354 N399 1.990 . S
Li354 O412 1.961 . S
Li354 O414 1.956 . S
Li354 O415 1.970 . S
Li355 N405 1.990 . S
Li355 O413 1.945 1_455 S
Li355 O414 1.970 . S
Li355 O415 1.956 . S
C356 C358 1.348 1_455 S
C356 C359 1.356 . S
C356 O412 1.325 . S
N357 C360 1.314 . S
N357 C361 1.279 1_655 S
C358 C356 1.348 1_655 S
C358 C360 1.353 . S
C358 H416 0.929 . S
C359 C356 1.356 . S
C359 C361 1.358 . S
C359 H417 0.930 . S
C360 N357 1.314 . S
C360 C358 1.353 . S
C360 H418 0.930 . S
C361 N357 1.279 1_455 S
C361 C359 1.358 . S
C361 H419 0.930 . S
C362 C365 1.348 . S
C362 C366 1.356 . S
C362 O413 1.338 . S
C363 N364 1.279 . S
C363 C366 1.358 . S
C363 H420 0.930 . S
N364 C363 1.279 . S
N364 C367 1.314 . S
C365 C362 1.348 . S
C365 C367 1.353 . S
C365 H421 0.929 . S
C366 C362 1.356 . S
C366 C363 1.358 . S
C366 H422 0.930 . S
C367 N364 1.314 . S
C367 C365 1.353 . S
C367 H423 0.930 . S
C368 N369 1.314 . S
C368 C373 1.353 . S
C368 H374 0.930 . S
N369 Li352 1.990 . S
N369 C368 1.314 . S
N369 C371 1.279 . S
C370 C371 1.358 1_655 S
C370 C372 1.356 1_655 S
C370 H424 0.930 . S
C371 N369 1.279 . S
C371 C370 1.358 1_455 S
C371 H375 0.930 1_455 S
C372 C370 1.356 1_455 S
C372 C373 1.348 . S
C373 C368 1.353 . S
C373 C372 1.348 . S
C373 H425 0.929 . S
H374 C368 0.930 . S
H375 C371 0.930 1_655 S
C376 N377 1.314 . S
C376 C378 1.353 . S
C376 H382 0.930 . S
N377 Li353 1.990 . S
N377 C376 1.314 . S
N377 C380 1.279 . S
C378 C376 1.353 . S
C378 C381 1.348 . S
C378 H426 0.929 . S
C379 C380 1.358 . S
C379 C381 1.356 . S
C379 H427 0.930 . S
C380 N377 1.279 . S
C380 C379 1.358 . S
C380 H383 0.930 . S
C381 C378 1.348 . S
C381 C379 1.356 . S
H382 C376 0.930 . S
H383 C380 0.930 . S
C384 C386 1.348 . S
C384 C387 1.356 . S
C384 O414 1.325 . S
N385 C388 1.314 . S
N385 C389 1.279 . S
C386 C384 1.348 . S
C386 C388 1.353 . S
C386 H428 0.929 . S
C387 C384 1.356 . S
C387 C389 1.358 . S
C387 H429 0.930 . S
C388 N385 1.314 . S
C388 C386 1.353 . S
C388 H430 0.930 . S
C389 N385 1.279 . S
C389 C387 1.358 . S
C389 H431 0.930 . S
C390 C391 1.348 . S
C390 C392 1.356 . S
C390 O415 1.325 . S
C391 C390 1.348 . S
C391 C393 1.353 . S
C391 H432 0.929 . S
C392 C390 1.356 . S
C392 C394 1.358 . S
C392 H433 0.930 1_455 S
C393 C391 1.353 . S
C393 N395 1.314 . S
C393 H434 0.930 . S
C394 C392 1.358 . S
C394 N395 1.279 . S
C394 H435 0.930 . S
N395 C393 1.314 . S
N395 C394 1.279 . S
C396 C398 1.353 . S
C396 N399 1.314 . S
C396 H402 0.930 . S
C397 N399 1.279 . S
C397 C400 1.358 . S
C397 H403 0.930 . S
C398 C396 1.353 . S
C398 C401 1.348 . S
C398 H436 0.929 . S
N399 Li354 1.990 . S
N399 C396 1.314 . S
N399 C397 1.279 . S
C400 C397 1.358 . S
C400 C401 1.356 . S
C400 H437 0.930 . S
C401 C398 1.348 . S
C401 C400 1.356 . S
H402 C396 0.930 . S
H403 C397 0.930 . S
C404 N405 1.314 . S
C404 C406 1.353 . S
C404 H410 0.930 . S
N405 Li355 1.990 . S
N405 C404 1.314 . S
N405 C408 1.279 . S
C406 C404 1.353 . S
C406 C409 1.348 . S
C406 H438 0.929 . S
C407 C408 1.358 . S
C407 C409 1.356 . S
C407 H439 0.930 . S
C408 N405 1.279 . S
C408 C407 1.358 . S
C408 H411 0.930 . S
C409 C406 1.348 . S
C409 C407 1.356 . S
H410 C404 0.930 . S
H411 C408 0.930 . S
O412 Li352 1.956 . S
O412 Li353 1.970 1_455 S
O412 Li354 1.961 . S
O412 C356 1.325 . S
O413 Li352 1.961 1_655 S
O413 Li353 1.959 . S
O413 Li355 1.945 1_655 S
O413 C362 1.338 . S
O414 Li352 1.961 . S
O414 Li354 1.956 . S
O414 Li355 1.970 . S
O414 C384 1.325 . S
O415 Li353 1.961 1_455 S
O415 Li354 1.970 . S
O415 Li355 1.956 . S
O415 C390 1.325 . S
H416 C358 0.929 . S
H417 C359 0.930 . S
H418 C360 0.930 . S
H419 C361 0.930 . S
H420 C363 0.930 . S
H421 C365 0.929 . S
H422 C366 0.930 . S
H423 C367 0.930 . S
H424 C370 0.930 . S
H425 C373 0.929 . S
H426 C378 0.929 . S
H427 C379 0.930 . S
H428 C386 0.929 . S
H429 C387 0.930 . S
H430 C388 0.930 . S
H431 C389 0.930 . S
H432 C391 0.929 . S
H433 C392 0.930 1_655 S
H434 C393 0.930 . S
H435 C394 0.930 . S
H436 C398 0.929 . S
H437 C400 0.930 . S
H438 C406 0.929 . S
H439 C407 0.930 . S
Li440 N457 1.990 . S
Li440 O500 1.956 . S
Li440 O501 1.970 . S
Li440 O502 1.945 1_545 S
Li441 N465 1.990 . S
Li441 O500 1.970 . S
Li441 O501 1.956 . S
Li441 O503 1.961 . S
Li442 N487 1.990 . S
Li442 O500 1.961 1_565 S
Li442 O502 1.959 . S
Li442 O503 1.970 1_565 S
Li443 N493 1.990 . S
Li443 O501 1.961 . S
Li443 O502 1.961 1_545 S
Li443 O503 1.956 . S
C444 C446 1.348 . S
C444 C447 1.356 . S
C444 O500 1.325 . S
N445 C448 1.314 . S
N445 C449 1.279 . S
C446 C444 1.348 . S
C446 C448 1.353 . S
C446 H504 0.929 . S
C447 C444 1.356 . S
C447 C449 1.358 . S
C447 H505 0.930 1_545 S
C448 N445 1.314 . S
C448 C446 1.353 . S
C448 H506 0.930 . S
C449 N445 1.279 . S
C449 C447 1.358 . S
C449 H507 0.930 . S
C450 C453 1.348 . S
C450 C454 1.356 . S
C450 O501 1.325 . S
C451 N452 1.279 . S
C451 C454 1.358 . S
C451 H508 0.930 . S
N452 C451 1.279 . S
N452 C455 1.314 . S
C453 C450 1.348 . S
C453 C455 1.353 . S
C453 H509 0.929 . S
C454 C450 1.356 . S
C454 C451 1.358 . S
C454 H510 0.930 . S
C455 N452 1.314 . S
C455 C453 1.353 . S
C455 H511 0.930 . S
C456 N457 1.314 . S
C456 C461 1.353 . S
C456 H462 0.930 . S
N457 Li440 1.990 . S
N457 C456 1.314 . S
N457 C459 1.279 . S
C458 C459 1.358 . S
C458 C460 1.356 . S
C458 H512 0.930 . S
C459 N457 1.279 . S
C459 C458 1.358 . S
C459 H463 0.930 . S
C460 C458 1.356 . S
C460 C461 1.348 . S
C461 C456 1.353 . S
C461 C460 1.348 . S
C461 H513 0.929 . S
H462 C456 0.930 . S
H463 C459 0.930 . S
C464 N465 1.314 . S
C464 C466 1.353 . S
C464 H470 0.930 . S
N465 Li441 1.990 . S
N465 C464 1.314 . S
N465 C468 1.279 . S
C466 C464 1.353 . S
C466 C469 1.348 . S
C466 H514 0.929 . S
C467 C468 1.358 . S
C467 C469 1.356 . S
C467 H515 0.930 . S
C468 N465 1.279 . S
C468 C467 1.358 . S
C468 H471 0.930 . S
C469 C466 1.348 . S
C469 C467 1.356 . S
H470 C464 0.930 . S
H471 C468 0.930 . S
C472 C474 1.348 . S
C472 C475 1.356 . S
C472 O502 1.338 . S
N473 C476 1.314 . S
N473 C477 1.279 . S
C474 C472 1.348 . S
C474 C476 1.353 . S
C474 H516 0.929 . S
C475 C472 1.356 . S
C475 C477 1.358 . S
C475 H517 0.930 . S
C476 N473 1.314 . S
C476 C474 1.353 . S
C476 H518 0.930 . S
C477 N473 1.279 . S
C477 C475 1.358 . S
C477 H519 0.930 . S
C478 C479 1.348 1_545 S
C478 C480 1.356 . S
C478 O503 1.325 . S
C479 C478 1.348 1_565 S
C479 C481 1.353 . S
C479 H520 0.929 . S
C480 C478 1.356 . S
C480 C482 1.358 . S
C480 H521 0.930 . S
C481 C479 1.353 . S
C481 N483 1.314 . S
C481 H522 0.930 . S
C482 C480 1.358 . S
C482 N483 1.279 1_545 S
C482 H523 0.930 . S
N483 C481 1.314 . S
N483 C482 1.279 1_565 S
C484 C486 1.353 . S
C484 N487 1.314 . S
C484 H490 0.930 . S
C485 N487 1.279 . S
C485 C488 1.358 . S
C485 H491 0.930 . S
C486 C484 1.353 . S
C486 C489 1.348 . S
C486 H524 0.929 . S
N487 Li442 1.990 . S
N487 C484 1.314 . S
N487 C485 1.279 . S
C488 C485 1.358 . S
C488 C489 1.356 . S
C488 H525 0.930 . S
C489 C486 1.348 . S
C489 C488 1.356 . S
H490 C484 0.930 . S
H491 C485 0.930 . S
C492 N493 1.314 . S
C492 C494 1.353 . S
C492 H498 0.930 . S
N493 Li443 1.990 . S
N493 C492 1.314 . S
N493 C496 1.279 . S
C494 C492 1.353 . S
C494 C497 1.348 . S
C494 H526 0.929 . S
C495 C496 1.358 1_565 S
C495 C497 1.356 1_565 S
C495 H527 0.930 . S
C496 N493 1.279 . S
C496 C495 1.358 1_545 S
C496 H499 0.930 1_545 S
C497 C494 1.348 . S
C497 C495 1.356 1_545 S
H498 C492 0.930 . S
H499 C496 0.930 1_565 S
O500 Li440 1.956 . S
O500 Li441 1.970 . S
O500 Li442 1.961 1_545 S
O500 C444 1.325 . S
O501 Li440 1.970 . S
O501 Li441 1.956 . S
O501 Li443 1.961 . S
O501 C450 1.325 . S
O502 Li440 1.945 1_565 S
O502 Li442 1.959 . S
O502 Li443 1.961 1_565 S
O502 C472 1.338 . S
O503 Li441 1.961 . S
O503 Li442 1.970 1_545 S
O503 Li443 1.956 . S
O503 C478 1.325 . S
H504 C446 0.929 . S
H505 C447 0.930 1_565 S
H506 C448 0.930 . S
H507 C449 0.930 . S
H508 C451 0.930 . S
H509 C453 0.929 . S
H510 C454 0.930 . S
H511 C455 0.930 . S
H512 C458 0.930 . S
H513 C461 0.929 . S
H514 C466 0.929 . S
H515 C467 0.930 . S
H516 C474 0.929 . S
H517 C475 0.930 . S
H518 C476 0.930 . S
H519 C477 0.930 . S
H520 C479 0.929 . S
H521 C480 0.930 . S
H522 C481 0.930 . S
H523 C482 0.930 . S
H524 C486 0.929 . S
H525 C488 0.930 . S
H526 C494 0.929 . S
H527 C495 0.930 . S
Li528 N545 1.990 . S
Li528 O588 1.956 . S
Li528 O589 1.970 . S
Li528 O590 1.945 1_655 S
Li529 N553 1.990 . S
Li529 O588 1.970 . S
Li529 O589 1.956 . S
Li529 O591 1.961 . S
Li530 N575 1.990 . S
Li530 O588 1.961 1_455 S
Li530 O590 1.959 . S
Li530 O591 1.970 1_455 S
Li531 N581 1.990 . S
Li531 O589 1.961 . S
Li531 O590 1.961 1_655 S
Li531 O591 1.956 . S
C532 C534 1.348 . S
C532 C535 1.356 . S
C532 O588 1.325 . S
N533 C536 1.314 . S
N533 C537 1.279 . S
C534 C532 1.348 . S
C534 C536 1.353 . S
C534 H592 0.929 . S
C535 C532 1.356 . S
C535 C537 1.358 . S
C535 H593 0.930 1_655 S
C536 N533 1.314 . S
C536 C534 1.353 . S
C536 H594 0.930 . S
C537 N533 1.279 . S
C537 C535 1.358 . S
C537 H595 0.930 . S
C538 C541 1.348 . S
C538 C542 1.356 . S
C538 O589 1.325 . S
C539 N540 1.279 . S
C539 C542 1.358 . S
C539 H596 0.930 . S
N540 C539 1.279 . S
N540 C543 1.314 . S
C541 C538 1.348 . S
C541 C543 1.353 . S
C541 H597 0.929 . S
C542 C538 1.356 . S
C542 C539 1.358 . S
C542 H598 0.930 . S
C543 N540 1.314 . S
C543 C541 1.353 . S
C543 H599 0.930 . S
C544 N545 1.314 . S
C544 C549 1.353 . S
C544 H550 0.930 . S
N545 Li528 1.990 . S
N545 C544 1.314 . S
N545 C547 1.279 . S
C546 C547 1.358 . S
C546 C548 1.356 . S
C546 H600 0.930 . S
C547 N545 1.279 . S
C547 C546 1.358 . S
C547 H551 0.930 . S
C548 C546 1.356 . S
C548 C549 1.348 . S
C549 C544 1.353 . S
C549 C548 1.348 . S
C549 H601 0.929 . S
H550 C544 0.930 . S
H551 C547 0.930 . S
C552 N553 1.314 . S
C552 C554 1.353 . S
C552 H558 0.930 . S
N553 Li529 1.990 . S
N553 C552 1.314 . S
N553 C556 1.279 . S
C554 C552 1.353 . S
C554 C557 1.348 . S
C554 H602 0.929 . S
C555 C556 1.358 . S
C555 C557 1.356 . S
C555 H603 0.930 . S
C556 N553 1.279 . S
C556 C555 1.358 . S
C556 H559 0.930 . S
C557 C554 1.348 . S
C557 C555 1.356 . S
H558 C552 0.930 . S
H559 C556 0.930 . S
C560 C562 1.348 . S
C560 C563 1.356 . S
C560 O590 1.338 . S
N561 C564 1.314 . S
N561 C565 1.279 . S
C562 C560 1.348 . S
C562 C564 1.353 . S
C562 H604 0.929 . S
C563 C560 1.356 . S
C563 C565 1.358 . S
C563 H605 0.930 . S
C564 N561 1.314 . S
C564 C562 1.353 . S
C564 H606 0.930 . S
C565 N561 1.279 . S
C565 C563 1.358 . S
C565 H607 0.930 . S
C566 C567 1.348 1_655 S
C566 C568 1.356 . S
C566 O591 1.325 . S
C567 C566 1.348 1_455 S
C567 C569 1.353 . S
C567 H608 0.929 . S
C568 C566 1.356 . S
C568 C570 1.358 . S
C568 H609 0.930 . S
C569 C567 1.353 . S
C569 N571 1.314 . S
C569 H610 0.930 . S
C570 C568 1.358 . S
C570 N571 1.279 1_655 S
C570 H611 0.930 . S
N571 C569 1.314 . S
N571 C570 1.279 1_455 S
C572 C574 1.353 . S
C572 N575 1.314 . S
C572 H578 0.930 . S
C573 N575 1.279 . S
C573 C576 1.358 . S
C573 H579 0.930 . S
C574 C572 1.353 . S
C574 C577 1.348 . S
C574 H612 0.929 . S
N575 Li530 1.990 . S
N575 C572 1.314 . S
N575 C573 1.279 . S
C576 C573 1.358 . S
C576 C577 1.356 . S
C576 H613 0.930 . S
C577 C574 1.348 . S
C577 C576 1.356 . S
H578 C572 0.930 . S
H579 C573 0.930 . S
C580 N581 1.314 . S
C580 C582 1.353 . S
C580 H586 0.930 . S
N581 Li531 1.990 . S
N581 C580 1.314 . S
N581 C584 1.279 . S
C582 C580 1.353 . S
C582 C585 1.348 . S
C582 H614 0.929 . S
C583 C584 1.358 1_455 S
C583 C585 1.356 1_455 S
C583 H615 0.930 . S
C584 N581 1.279 . S
C584 C583 1.358 1_655 S
C584 H587 0.930 1_655 S
C585 C582 1.348 . S
C585 C583 1.356 1_655 S
H586 C580 0.930 . S
H587 C584 0.930 1_455 S
O588 Li528 1.956 . S
O588 Li529 1.970 . S
O588 Li530 1.961 1_655 S
O588 C532 1.325 . S
O589 Li528 1.970 . S
O589 Li529 1.956 . S
O589 Li531 1.961 . S
O589 C538 1.325 . S
O590 Li528 1.945 1_455 S
O590 Li530 1.959 . S
O590 Li531 1.961 1_455 S
O590 C560 1.338 . S
O591 Li529 1.961 . S
O591 Li530 1.970 1_655 S
O591 Li531 1.956 . S
O591 C566 1.325 . S
H592 C534 0.929 . S
H593 C535 0.930 1_455 S
H594 C536 0.930 . S
H595 C537 0.930 . S
H596 C539 0.930 . S
H597 C541 0.929 . S
H598 C542 0.930 . S
H599 C543 0.930 . S
H600 C546 0.930 . S
H601 C549 0.929 . S
H602 C554 0.929 . S
H603 C555 0.930 . S
H604 C562 0.929 . S
H605 C563 0.930 . S
H606 C564 0.930 . S
H607 C565 0.930 . S
H608 C567 0.929 . S
H609 C568 0.930 . S
H610 C569 0.930 . S
H611 C570 0.930 . S
H612 C574 0.929 . S
H613 C576 0.930 . S
H614 C582 0.929 . S
H615 C583 0.930 . S
Li616 N633 1.990 . S
Li616 O676 1.956 . S
Li616 O677 1.970 . S
Li616 O678 1.945 1_565 S
Li617 N641 1.990 . S
Li617 O676 1.970 . S
Li617 O677 1.956 . S
Li617 O679 1.961 . S
Li618 N663 1.990 . S
Li618 O676 1.961 1_545 S
Li618 O678 1.959 . S
Li618 O679 1.970 1_545 S
Li619 N669 1.990 . S
Li619 O677 1.961 . S
Li619 O678 1.961 1_565 S
Li619 O679 1.956 . S
C620 C622 1.348 . S
C620 C623 1.356 . S
C620 O676 1.325 . S
N621 C624 1.314 . S
N621 C625 1.279 . S
C622 C620 1.348 . S
C622 C624 1.353 . S
C622 H680 0.929 . S
C623 C620 1.356 . S
C623 C625 1.358 . S
C623 H681 0.930 1_565 S
C624 N621 1.314 . S
C624 C622 1.353 . S
C624 H682 0.930 . S
C625 N621 1.279 . S
C625 C623 1.358 . S
C625 H683 0.930 . S
C626 C629 1.348 . S
C626 C630 1.356 . S
C626 O677 1.325 . S
C627 N628 1.279 . S
C627 C630 1.358 . S
C627 H684 0.930 . S
N628 C627 1.279 . S
N628 C631 1.314 . S
C629 C626 1.348 . S
C629 C631 1.353 . S
C629 H685 0.929 . S
C630 C626 1.356 . S
C630 C627 1.358 . S
C630 H686 0.930 . S
C631 N628 1.314 . S
C631 C629 1.353 . S
C631 H687 0.930 . S
C632 N633 1.314 . S
C632 C637 1.353 . S
C632 H638 0.930 . S
N633 Li616 1.990 . S
N633 C632 1.314 . S
N633 C635 1.279 . S
C634 C635 1.358 . S
C634 C636 1.356 . S
C634 H688 0.930 . S
C635 N633 1.279 . S
C635 C634 1.358 . S
C635 H639 0.930 . S
C636 C634 1.356 . S
C636 C637 1.348 . S
C637 C632 1.353 . S
C637 C636 1.348 . S
C637 H689 0.929 . S
H638 C632 0.930 . S
H639 C635 0.930 . S
C640 N641 1.314 . S
C640 C642 1.353 . S
C640 H646 0.930 . S
N641 Li617 1.990 . S
N641 C640 1.314 . S
N641 C644 1.279 . S
C642 C640 1.353 . S
C642 C645 1.348 . S
C642 H690 0.929 . S
C643 C644 1.358 . S
C643 C645 1.356 . S
C643 H691 0.930 . S
C644 N641 1.279 . S
C644 C643 1.358 . S
C644 H647 0.930 . S
C645 C642 1.348 . S
C645 C643 1.356 . S
H646 C640 0.930 . S
H647 C644 0.930 . S
C648 C650 1.348 . S
C648 C651 1.356 . S
C648 O678 1.338 . S
N649 C652 1.314 . S
N649 C653 1.279 . S
C650 C648 1.348 . S
C650 C652 1.353 . S
C650 H692 0.929 . S
C651 C648 1.356 . S
C651 C653 1.358 . S
C651 H693 0.930 . S
C652 N649 1.314 . S
C652 C650 1.353 . S
C652 H694 0.930 . S
C653 N649 1.279 . S
C653 C651 1.358 . S
C653 H695 0.930 . S
C654 C655 1.348 1_565 S
C654 C656 1.356 . S
C654 O679 1.325 . S
C655 C654 1.348 1_545 S
C655 C657 1.353 . S
C655 H696 0.929 . S
C656 C654 1.356 . S
C656 C658 1.358 . S
C656 H697 0.930 . S
C657 C655 1.353 . S
C657 N659 1.314 . S
C657 H698 0.930 . S
C658 C656 1.358 . S
C658 N659 1.279 1_565 S
C658 H699 0.930 . S
N659 C657 1.314 . S
N659 C658 1.279 1_545 S
C660 C662 1.353 . S
C660 N663 1.314 . S
C660 H666 0.930 . S
C661 N663 1.279 . S
C661 C664 1.358 . S
C661 H667 0.930 . S
C662 C660 1.353 . S
C662 C665 1.348 . S
C662 H700 0.929 . S
N663 Li618 1.990 . S
N663 C660 1.314 . S
N663 C661 1.279 . S
C664 C661 1.358 . S
C664 C665 1.356 . S
C664 H701 0.930 . S
C665 C662 1.348 . S
C665 C664 1.356 . S
H666 C660 0.930 . S
H667 C661 0.930 . S
C668 N669 1.314 . S
C668 C670 1.353 . S
C668 H674 0.930 . S
N669 Li619 1.990 . S
N669 C668 1.314 . S
N669 C672 1.279 . S
C670 C668 1.353 . S
C670 C673 1.348 . S
C670 H702 0.929 . S
C671 C672 1.358 1_545 S
C671 C673 1.356 1_545 S
C671 H703 0.930 . S
C672 N669 1.279 . S
C672 C671 1.358 1_565 S
C672 H675 0.930 1_565 S
C673 C670 1.348 . S
C673 C671 1.356 1_565 S
H674 C668 0.930 . S
H675 C672 0.930 1_545 S
O676 Li616 1.956 . S
O676 Li617 1.970 . S
O676 Li618 1.961 1_565 S
O676 C620 1.325 . S
O677 Li616 1.970 . S
O677 Li617 1.956 . S
O677 Li619 1.961 . S
O677 C626 1.325 . S
O678 Li616 1.945 1_545 S
O678 Li618 1.959 . S
O678 Li619 1.961 1_545 S
O678 C648 1.338 . S
O679 Li617 1.961 . S
O679 Li618 1.970 1_565 S
O679 Li619 1.956 . S
O679 C654 1.325 . S
H680 C622 0.929 . S
H681 C623 0.930 1_545 S
H682 C624 0.930 . S
H683 C625 0.930 . S
H684 C627 0.930 . S
H685 C629 0.929 . S
H686 C630 0.930 . S
H687 C631 0.930 . S
H688 C634 0.930 . S
H689 C637 0.929 . S
H690 C642 0.929 . S
H691 C643 0.930 . S
H692 C650 0.929 . S
H693 C651 0.930 . S
H694 C652 0.930 . S
H695 C653 0.930 . S
H696 C655 0.929 . S
H697 C656 0.930 . S
H698 C657 0.930 . S
H699 C658 0.930 . S
H700 C662 0.929 . S
H701 C664 0.930 . S
H702 C670 0.929 . S
H703 C671 0.930 . S
Li704 N721 1.990 . S
Li704 O764 1.956 . S
Li704 O765 1.970 . S
Li704 O766 1.961 . S
Li705 N729 1.990 . S
Li705 O764 1.970 . S
Li705 O765 1.956 . S
Li705 O767 1.945 1_545 S
Li706 N751 1.990 . S
Li706 O764 1.961 . S
Li706 O766 1.956 . S
Li706 O767 1.961 1_545 S
Li707 N757 1.990 . S
Li707 O765 1.961 1_565 S
Li707 O766 1.970 1_565 S
Li707 O767 1.959 . S
C708 C710 1.348 . S
C708 C711 1.356 . S
C708 O764 1.325 . S
N709 C712 1.314 . S
N709 C713 1.279 . S
C710 C708 1.348 . S
C710 C712 1.353 . S
C710 H768 0.929 . S
C711 C708 1.356 . S
C711 C713 1.358 . S
C711 H769 0.930 . S
C712 N709 1.314 . S
C712 C710 1.353 . S
C712 H770 0.930 . S
C713 N709 1.279 . S
C713 C711 1.358 . S
C713 H771 0.930 . S
C714 C717 1.348 . S
C714 C718 1.356 . S
C714 O765 1.325 . S
C715 N716 1.279 . S
C715 C718 1.358 . S
C715 H772 0.930 . S
N716 C715 1.279 . S
N716 C719 1.314 . S
C717 C714 1.348 . S
C717 C719 1.353 . S
C717 H773 0.929 . S
C718 C714 1.356 . S
C718 C715 1.358 . S
C718 H774 0.930 1_545 S
C719 N716 1.314 . S
C719 C717 1.353 . S
C719 H775 0.930 . S
C720 N721 1.314 . S
C720 C725 1.353 . S
C720 H726 0.930 . S
N721 Li704 1.990 . S
N721 C720 1.314 . S
N721 C723 1.279 . S
C722 C723 1.358 . S
C722 C724 1.356 . S
C722 H776 0.930 . S
C723 N721 1.279 . S
C723 C722 1.358 . S
C723 H727 0.930 . S
C724 C722 1.356 . S
C724 C725 1.348 . S
C725 C720 1.353 . S
C725 C724 1.348 . S
C725 H777 0.929 . S
H726 C720 0.930 . S
H727 C723 0.930 . S
C728 N729 1.314 . S
C728 C730 1.353 . S
C728 H734 0.930 . S
N729 Li705 1.990 . S
N729 C728 1.314 . S
N729 C732 1.279 . S
C730 C728 1.353 . S
C730 C733 1.348 . S
C730 H778 0.929 . S
C731 C732 1.358 . S
C731 C733 1.356 . S
C731 H779 0.930 . S
C732 N729 1.279 . S
C732 C731 1.358 . S
C732 H735 0.930 . S
C733 C730 1.348 . S
C733 C731 1.356 . S
H734 C728 0.930 . S
H735 C732 0.930 . S
C736 C738 1.348 1_545 S
C736 C739 1.356 . S
C736 O766 1.325 . S
N737 C740 1.314 . S
N737 C741 1.279 1_565 S
C738 C736 1.348 1_565 S
C738 C740 1.353 . S
C738 H780 0.929 . S
C739 C736 1.356 . S
C739 C741 1.358 . S
C739 H781 0.930 . S
C740 N737 1.314 . S
C740 C738 1.353 . S
C740 H782 0.930 . S
C741 N737 1.279 1_545 S
C741 C739 1.358 . S
C741 H783 0.930 . S
C742 C743 1.348 . S
C742 C744 1.356 . S
C742 O767 1.338 . S
C743 C742 1.348 . S
C743 C745 1.353 . S
C743 H784 0.929 . S
C744 C742 1.356 . S
C744 C746 1.358 . S
C744 H785 0.930 . S
C745 C743 1.353 . S
C745 N747 1.314 . S
C745 H786 0.930 . S
C746 C744 1.358 . S
C746 N747 1.279 . S
C746 H787 0.930 . S
N747 C745 1.314 . S
N747 C746 1.279 . S
C748 C750 1.353 . S
C748 N751 1.314 . S
C748 H754 0.930 . S
C749 N751 1.279 . S
C749 C752 1.358 1_545 S
C749 H755 0.930 1_545 S
C750 C748 1.353 . S
C750 C753 1.348 . S
C750 H788 0.929 . S
N751 Li706 1.990 . S
N751 C748 1.314 . S
N751 C749 1.279 . S
C752 C749 1.358 1_565 S
C752 C753 1.356 1_565 S
C752 H789 0.930 . S
C753 C750 1.348 . S
C753 C752 1.356 1_545 S
H754 C748 0.930 . S
H755 C749 0.930 1_565 S
C756 N757 1.314 . S
C756 C758 1.353 . S
C756 H762 0.930 . S
N757 Li707 1.990 . S
N757 C756 1.314 . S
N757 C760 1.279 . S
C758 C756 1.353 . S
C758 C761 1.348 . S
C758 H790 0.929 . S
C759 C760 1.358 . S
C759 C761 1.356 . S
C759 H791 0.930 . S
C760 N757 1.279 . S
C760 C759 1.358 . S
C760 H763 0.930 . S
C761 C758 1.348 . S
C761 C759 1.356 . S
H762 C756 0.930 . S
H763 C760 0.930 . S
O764 Li704 1.956 . S
O764 Li705 1.970 . S
O764 Li706 1.961 . S
O764 C708 1.325 . S
O765 Li704 1.970 . S
O765 Li705 1.956 . S
O765 Li707 1.961 1_545 S
O765 C714 1.325 . S
O766 Li704 1.961 . S
O766 Li706 1.956 . S
O766 Li707 1.970 1_545 S
O766 C736 1.325 . S
O767 Li705 1.945 1_565 S
O767 Li706 1.961 1_565 S
O767 Li707 1.959 . S
O767 C742 1.338 . S
H768 C710 0.929 . S
H769 C711 0.930 . S
H770 C712 0.930 . S
H771 C713 0.930 . S
H772 C715 0.930 . S
H773 C717 0.929 . S
H774 C718 0.930 1_565 S
H775 C719 0.930 . S
H776 C722 0.930 . S
H777 C725 0.929 . S
H778 C730 0.929 . S
H779 C731 0.930 . S
H780 C738 0.929 . S
H781 C739 0.930 . S
H782 C740 0.930 . S
H783 C741 0.930 . S
H784 C743 0.929 . S
H785 C744 0.930 . S
H786 C745 0.930 . S
H787 C746 0.930 . S
H788 C750 0.929 . S
H789 C752 0.930 . S
H790 C758 0.929 . S
H791 C759 0.930 . S
Li792 N809 1.990 . S
Li792 O852 1.956 . S
Li792 O853 1.970 . S
Li792 O854 1.945 1_655 S
Li793 N817 1.990 . S
Li793 O852 1.970 . S
Li793 O853 1.956 . S
Li793 O855 1.961 . S
Li794 N839 1.990 . S
Li794 O852 1.961 1_455 S
Li794 O854 1.959 . S
Li794 O855 1.970 1_455 S
Li795 N845 1.990 . S
Li795 O853 1.961 . S
Li795 O854 1.961 1_655 S
Li795 O855 1.956 . S
C796 C798 1.348 . S
C796 C799 1.356 . S
C796 O852 1.325 . S
N797 C800 1.314 . S
N797 C801 1.279 . S
C798 C796 1.348 . S
C798 C800 1.353 . S
C798 H856 0.929 . S
C799 C796 1.356 . S
C799 C801 1.358 . S
C799 H857 0.930 1_655 S
C800 N797 1.314 . S
C800 C798 1.353 . S
C800 H858 0.930 . S
C801 N797 1.279 . S
C801 C799 1.358 . S
C801 H859 0.930 . S
C802 C805 1.348 . S
C802 C806 1.356 . S
C802 O853 1.325 . S
C803 N804 1.279 . S
C803 C806 1.358 . S
C803 H860 0.930 . S
N804 C803 1.279 . S
N804 C807 1.314 . S
C805 C802 1.348 . S
C805 C807 1.353 . S
C805 H861 0.929 . S
C806 C802 1.356 . S
C806 C803 1.358 . S
C806 H862 0.930 . S
C807 N804 1.314 . S
C807 C805 1.353 . S
C807 H863 0.930 . S
C808 N809 1.314 . S
C808 C813 1.353 . S
C808 H814 0.930 . S
N809 Li792 1.990 . S
N809 C808 1.314 . S
N809 C811 1.279 . S
C810 C811 1.358 . S
C810 C812 1.356 . S
C810 H864 0.930 . S
C811 N809 1.279 . S
C811 C810 1.358 . S
C811 H815 0.930 . S
C812 C810 1.356 . S
C812 C813 1.348 . S
C813 C808 1.353 . S
C813 C812 1.348 . S
C813 H865 0.929 . S
H814 C808 0.930 . S
H815 C811 0.930 . S
C816 N817 1.314 . S
C816 C818 1.353 . S
C816 H822 0.930 . S
N817 Li793 1.990 . S
N817 C816 1.314 . S
N817 C820 1.279 . S
C818 C816 1.353 . S
C818 C821 1.348 . S
C818 H866 0.929 . S
C819 C820 1.358 . S
C819 C821 1.356 . S
C819 H867 0.930 . S
C820 N817 1.279 . S
C820 C819 1.358 . S
C820 H823 0.930 . S
C821 C818 1.348 . S
C821 C819 1.356 . S
H822 C816 0.930 . S
H823 C820 0.930 . S
C824 C826 1.348 . S
C824 C827 1.356 . S
C824 O854 1.338 . S
N825 C828 1.314 . S
N825 C829 1.279 . S
C826 C824 1.348 . S
C826 C828 1.353 . S
C826 H868 0.929 . S
C827 C824 1.356 . S
C827 C829 1.358 . S
C827 H869 0.930 . S
C828 N825 1.314 . S
C828 C826 1.353 . S
C828 H870 0.930 . S
C829 N825 1.279 . S
C829 C827 1.358 . S
C829 H871 0.930 . S
C830 C831 1.348 1_655 S
C830 C832 1.356 . S
C830 O855 1.325 . S
C831 C830 1.348 1_455 S
C831 C833 1.353 . S
C831 H872 0.929 . S
C832 C830 1.356 . S
C832 C834 1.358 . S
C832 H873 0.930 . S
C833 C831 1.353 . S
C833 N835 1.314 . S
C833 H874 0.930 . S
C834 C832 1.358 . S
C834 N835 1.279 1_655 S
C834 H875 0.930 . S
N835 C833 1.314 . S
N835 C834 1.279 1_455 S
C836 C838 1.353 . S
C836 N839 1.314 . S
C836 H842 0.930 . S
C837 N839 1.279 . S
C837 C840 1.358 . S
C837 H843 0.930 . S
C838 C836 1.353 . S
C838 C841 1.348 . S
C838 H876 0.929 . S
N839 Li794 1.990 . S
N839 C836 1.314 . S
N839 C837 1.279 . S
C840 C837 1.358 . S
C840 C841 1.356 . S
C840 H877 0.930 . S
C841 C838 1.348 . S
C841 C840 1.356 . S
H842 C836 0.930 . S
H843 C837 0.930 . S
C844 N845 1.314 . S
C844 C846 1.353 . S
C844 H850 0.930 . S
N845 Li795 1.990 . S
N845 C844 1.314 . S
N845 C848 1.279 . S
C846 C844 1.353 . S
C846 C849 1.348 . S
C846 H878 0.929 . S
C847 C848 1.358 1_455 S
C847 C849 1.356 1_455 S
C847 H879 0.930 . S
C848 N845 1.279 . S
C848 C847 1.358 1_655 S
C848 H851 0.930 1_655 S
C849 C846 1.348 . S
C849 C847 1.356 1_655 S
H850 C844 0.930 . S
H851 C848 0.930 1_455 S
O852 Li792 1.956 . S
O852 Li793 1.970 . S
O852 Li794 1.961 1_655 S
O852 C796 1.325 . S
O853 Li792 1.970 . S
O853 Li793 1.956 . S
O853 Li795 1.961 . S
O853 C802 1.325 . S
O854 Li792 1.945 1_455 S
O854 Li794 1.959 . S
O854 Li795 1.961 1_455 S
O854 C824 1.338 . S
O855 Li793 1.961 . S
O855 Li794 1.970 1_655 S
O855 Li795 1.956 . S
O855 C830 1.325 . S
H856 C798 0.929 . S
H857 C799 0.930 1_455 S
H858 C800 0.930 . S
H859 C801 0.930 . S
H860 C803 0.930 . S
H861 C805 0.929 . S
H862 C806 0.930 . S
H863 C807 0.930 . S
H864 C810 0.930 . S
H865 C813 0.929 . S
H866 C818 0.929 . S
H867 C819 0.930 . S
H868 C826 0.929 . S
H869 C827 0.930 . S
H870 C828 0.930 . S
H871 C829 0.930 . S
H872 C831 0.929 . S
H873 C832 0.930 . S
H874 C833 0.930 . S
H875 C834 0.930 . S
H876 C838 0.929 . S
H877 C840 0.930 . S
H878 C846 0.929 . S
H879 C847 0.930 . S
Li880 N897 1.990 . S
Li880 O940 1.956 . S
Li880 O941 1.970 . S
Li880 O942 1.961 . S
Li881 N905 1.990 . S
Li881 O940 1.970 . S
Li881 O941 1.956 . S
Li881 O943 1.945 1_565 S
Li882 N927 1.990 . S
Li882 O940 1.961 . S
Li882 O942 1.956 . S
Li882 O943 1.961 1_565 S
Li883 N933 1.990 . S
Li883 O941 1.961 1_545 S
Li883 O942 1.970 1_545 S
Li883 O943 1.959 . S
C884 C886 1.348 . S
C884 C887 1.356 . S
C884 O940 1.325 . S
N885 C888 1.314 . S
N885 C889 1.279 . S
C886 C884 1.348 . S
C886 C888 1.353 . S
C886 H944 0.929 . S
C887 C884 1.356 . S
C887 C889 1.358 . S
C887 H945 0.930 . S
C888 N885 1.314 . S
C888 C886 1.353 . S
C888 H946 0.930 . S
C889 N885 1.279 . S
C889 C887 1.358 . S
C889 H947 0.930 . S
C890 C893 1.348 . S
C890 C894 1.356 . S
C890 O941 1.325 . S
C891 N892 1.279 . S
C891 C894 1.358 . S
C891 H948 0.930 . S
N892 C891 1.279 . S
N892 C895 1.314 . S
C893 C890 1.348 . S
C893 C895 1.353 . S
C893 H949 0.929 . S
C894 C890 1.356 . S
C894 C891 1.358 . S
C894 H950 0.930 1_565 S
C895 N892 1.314 . S
C895 C893 1.353 . S
C895 H951 0.930 . S
C896 N897 1.314 . S
C896 C901 1.353 . S
C896 H902 0.930 . S
N897 Li880 1.990 . S
N897 C896 1.314 . S
N897 C899 1.279 . S
C898 C899 1.358 . S
C898 C900 1.356 . S
C898 H952 0.930 . S
C899 N897 1.279 . S
C899 C898 1.358 . S
C899 H903 0.930 . S
C900 C898 1.356 . S
C900 C901 1.348 . S
C901 C896 1.353 . S
C901 C900 1.348 . S
C901 H953 0.929 . S
H902 C896 0.930 . S
H903 C899 0.930 . S
C904 N905 1.314 . S
C904 C906 1.353 . S
C904 H910 0.930 . S
N905 Li881 1.990 . S
N905 C904 1.314 . S
N905 C908 1.279 . S
C906 C904 1.353 . S
C906 C909 1.348 . S
C906 H954 0.929 . S
C907 C908 1.358 . S
C907 C909 1.356 . S
C907 H955 0.930 . S
C908 N905 1.279 . S
C908 C907 1.358 . S
C908 H911 0.930 . S
C909 C906 1.348 . S
C909 C907 1.356 . S
H910 C904 0.930 . S
H911 C908 0.930 . S
C912 C914 1.348 1_565 S
C912 C915 1.356 . S
C912 O942 1.325 . S
N913 C916 1.314 . S
N913 C917 1.279 1_545 S
C914 C912 1.348 1_545 S
C914 C916 1.353 . S
C914 H956 0.929 . S
C915 C912 1.356 . S
C915 C917 1.358 . S
C915 H957 0.930 . S
C916 N913 1.314 . S
C916 C914 1.353 . S
C916 H958 0.930 . S
C917 N913 1.279 1_565 S
C917 C915 1.358 . S
C917 H959 0.930 . S
C918 C919 1.348 . S
C918 C920 1.356 . S
C918 O943 1.338 . S
C919 C918 1.348 . S
C919 C921 1.353 . S
C919 H960 0.929 . S
C920 C918 1.356 . S
C920 C922 1.358 . S
C920 H961 0.930 . S
C921 C919 1.353 . S
C921 N923 1.314 . S
C921 H962 0.930 . S
C922 C920 1.358 . S
C922 N923 1.279 . S
C922 H963 0.930 . S
N923 C921 1.314 . S
N923 C922 1.279 . S
C924 C926 1.353 . S
C924 N927 1.314 . S
C924 H930 0.930 . S
C925 N927 1.279 . S
C925 C928 1.358 1_565 S
C925 H931 0.930 1_565 S
C926 C924 1.353 . S
C926 C929 1.348 . S
C926 H964 0.929 . S
N927 Li882 1.990 . S
N927 C924 1.314 . S
N927 C925 1.279 . S
C928 C925 1.358 1_545 S
C928 C929 1.356 1_545 S
C928 H965 0.930 . S
C929 C926 1.348 . S
C929 C928 1.356 1_565 S
H930 C924 0.930 . S
H931 C925 0.930 1_545 S
C932 N933 1.314 . S
C932 C934 1.353 . S
C932 H938 0.930 . S
N933 Li883 1.990 . S
N933 C932 1.314 . S
N933 C936 1.279 . S
C934 C932 1.353 . S
C934 C937 1.348 . S
C934 H966 0.929 . S
C935 C936 1.358 . S
C935 C937 1.356 . S
C935 H967 0.930 . S
C936 N933 1.279 . S
C936 C935 1.358 . S
C936 H939 0.930 . S
C937 C934 1.348 . S
C937 C935 1.356 . S
H938 C932 0.930 . S
H939 C936 0.930 . S
O940 Li880 1.956 . S
O940 Li881 1.970 . S
O940 Li882 1.961 . S
O940 C884 1.325 . S
O941 Li880 1.970 . S
O941 Li881 1.956 . S
O941 Li883 1.961 1_565 S
O941 C890 1.325 . S
O942 Li880 1.961 . S
O942 Li882 1.956 . S
O942 Li883 1.970 1_565 S
O942 C912 1.325 . S
O943 Li881 1.945 1_545 S
O943 Li882 1.961 1_545 S
O943 Li883 1.959 . S
O943 C918 1.338 . S
H944 C886 0.929 . S
H945 C887 0.930 . S
H946 C888 0.930 . S
H947 C889 0.930 . S
H948 C891 0.930 . S
H949 C893 0.929 . S
H950 C894 0.930 1_545 S
H951 C895 0.930 . S
H952 C898 0.930 . S
H953 C901 0.929 . S
H954 C906 0.929 . S
H955 C907 0.930 . S
H956 C914 0.929 . S
H957 C915 0.930 . S
H958 C916 0.930 . S
H959 C917 0.930 . S
H960 C919 0.929 . S
H961 C920 0.930 . S
H962 C921 0.930 . S
H963 C922 0.930 . S
H964 C926 0.929 . S
H965 C928 0.930 . S
H966 C934 0.929 . S
H967 C935 0.930 . S
Li968 N985 1.990 . S
Li968 O1028 1.956 . S
Li968 O1029 1.970 . S
Li968 O1030 1.945 1_455 S
Li969 N993 1.990 . S
Li969 O1028 1.970 . S
Li969 O1029 1.956 . S
Li969 O1031 1.961 . S
Li970 N1015 1.990 . S
Li970 O1028 1.961 1_655 S
Li970 O1030 1.959 . S
Li970 O1031 1.970 1_655 S
Li971 N1021 1.990 . S
Li971 O1029 1.961 . S
Li971 O1030 1.961 1_455 S
Li971 O1031 1.956 . S
C972 C974 1.348 . S
C972 C975 1.356 . S
C972 O1028 1.325 . S
N973 C976 1.314 . S
N973 C977 1.279 . S
C974 C972 1.348 . S
C974 C976 1.353 . S
C974 H1032 0.929 . S
C975 C972 1.356 . S
C975 C977 1.358 . S
C975 H1033 0.930 1_455 S
C976 N973 1.314 . S
C976 C974 1.353 . S
C976 H1034 0.930 . S
C977 N973 1.279 . S
C977 C975 1.358 . S
C977 H1035 0.930 . S
C978 C981 1.348 . S
C978 C982 1.356 . S
C978 O1029 1.325 . S
C979 N980 1.279 . S
C979 C982 1.358 . S
C979 H1036 0.930 . S
N980 C979 1.279 . S
N980 C983 1.314 . S
C981 C978 1.348 . S
C981 C983 1.353 . S
C981 H1037 0.929 . S
C982 C978 1.356 . S
C982 C979 1.358 . S
C982 H1038 0.930 . S
C983 N980 1.314 . S
C983 C981 1.353 . S
C983 H1039 0.930 . S
C984 N985 1.314 . S
C984 C989 1.353 . S
C984 H990 0.930 . S
N985 Li968 1.990 . S
N985 C984 1.314 . S
N985 C987 1.279 . S
C986 C987 1.358 . S
C986 C988 1.356 . S
C986 H1040 0.930 . S
C987 N985 1.279 . S
C987 C986 1.358 . S
C987 H991 0.930 . S
C988 C986 1.356 . S
C988 C989 1.348 . S
C989 C984 1.353 . S
C989 C988 1.348 . S
C989 H1041 0.929 . S
H990 C984 0.930 . S
H991 C987 0.930 . S
C992 N993 1.314 . S
C992 C994 1.353 . S
C992 H998 0.930 . S
N993 Li969 1.990 . S
N993 C992 1.314 . S
N993 C996 1.279 . S
C994 C992 1.353 . S
C994 C997 1.348 . S
C994 H1042 0.929 . S
C995 C996 1.358 . S
C995 C997 1.356 . S
C995 H1043 0.930 . S
C996 N993 1.279 . S
C996 C995 1.358 . S
C996 H999 0.930 . S
C997 C994 1.348 . S
C997 C995 1.356 . S
H998 C992 0.930 . S
H999 C996 0.930 . S
C1000 C1002 1.348 . S
C1000 C1003 1.356 . S
C1000 O1030 1.338 . S
N1001 C1004 1.314 . S
N1001 C1005 1.279 . S
C1002 C1000 1.348 . S
C1002 C1004 1.353 . S
C1002 H1044 0.929 . S
C1003 C1000 1.356 . S
C1003 C1005 1.358 . S
C1003 H1045 0.930 . S
C1004 N1001 1.314 . S
C1004 C1002 1.353 . S
C1004 H1046 0.930 . S
C1005 N1001 1.279 . S
C1005 C1003 1.358 . S
C1005 H1047 0.930 . S
C1006 C1007 1.348 1_455 S
C1006 C1008 1.356 . S
C1006 O1031 1.325 . S
C1007 C1006 1.348 1_655 S
C1007 C1009 1.353 . S
C1007 H1048 0.929 . S
C1008 C1006 1.356 . S
C1008 C1010 1.358 . S
C1008 H1049 0.930 . S
C1009 C1007 1.353 . S
C1009 N1011 1.314 . S
C1009 H1050 0.930 . S
C1010 C1008 1.358 . S
C1010 N1011 1.279 1_455 S
C1010 H1051 0.930 . S
N1011 C1009 1.314 . S
N1011 C1010 1.279 1_655 S
C1012 C1014 1.353 . S
C1012 N1015 1.314 . S
C1012 H1018 0.930 . S
C1013 N1015 1.279 . S
C1013 C1016 1.358 . S
C1013 H1019 0.930 . S
C1014 C1012 1.353 . S
C1014 C1017 1.348 . S
C1014 H1052 0.929 . S
N1015 Li970 1.990 . S
N1015 C1012 1.314 . S
N1015 C1013 1.279 . S
C1016 C1013 1.358 . S
C1016 C1017 1.356 . S
C1016 H1053 0.930 . S
C1017 C1014 1.348 . S
C1017 C1016 1.356 . S
H1018 C1012 0.930 . S
H1019 C1013 0.930 . S
C1020 N1021 1.314 . S
C1020 C1022 1.353 . S
C1020 H1026 0.930 . S
N1021 Li971 1.990 . S
N1021 C1020 1.314 . S
N1021 C1024 1.279 . S
C1022 C1020 1.353 . S
C1022 C1025 1.348 . S
C1022 H1054 0.929 . S
C1023 C1024 1.358 1_655 S
C1023 C1025 1.356 1_655 S
C1023 H1055 0.930 . S
C1024 N1021 1.279 . S
C1024 C1023 1.358 1_455 S
C1024 H1027 0.930 1_455 S
C1025 C1022 1.348 . S
C1025 C1023 1.356 1_455 S
H1026 C1020 0.930 . S
H1027 C1024 0.930 1_655 S
O1028 Li968 1.956 . S
O1028 Li969 1.970 . S
O1028 Li970 1.961 1_455 S
O1028 C972 1.325 . S
O1029 Li968 1.970 . S
O1029 Li969 1.956 . S
O1029 Li971 1.961 . S
O1029 C978 1.325 . S
O1030 Li968 1.945 1_655 S
O1030 Li970 1.959 . S
O1030 Li971 1.961 1_655 S
O1030 C1000 1.338 . S
O1031 Li969 1.961 . S
O1031 Li970 1.970 1_455 S
O1031 Li971 1.956 . S
O1031 C1006 1.325 . S
H1032 C974 0.929 . S
H1033 C975 0.930 1_655 S
H1034 C976 0.930 . S
H1035 C977 0.930 . S
H1036 C979 0.930 . S
H1037 C981 0.929 . S
H1038 C982 0.930 . S
H1039 C983 0.930 . S
H1040 C986 0.930 . S
H1041 C989 0.929 . S
H1042 C994 0.929 . S
H1043 C995 0.930 . S
H1044 C1002 0.929 . S
H1045 C1003 0.930 . S
H1046 C1004 0.930 . S
H1047 C1005 0.930 . S
H1048 C1007 0.929 . S
H1049 C1008 0.930 . S
H1050 C1009 0.930 . S
H1051 C1010 0.930 . S
H1052 C1014 0.929 . S
H1053 C1016 0.930 . S
H1054 C1022 0.929 . S
H1055 C1023 0.930 . S
Li1056 N1073 1.990 . S
Li1056 O1116 1.959 . S
Li1056 O1117 1.970 1_545 S
Li1056 O1118 1.961 1_545 S
Li1057 N1081 1.990 . S
Li1057 O1116 1.961 1_565 S
Li1057 O1117 1.956 . S
Li1057 O1119 1.961 . S
Li1058 N1103 1.990 . S
Li1058 O1116 1.945 1_565 S
Li1058 O1118 1.956 . S
Li1058 O1119 1.970 . S
Li1059 N1109 1.990 . S
Li1059 O1117 1.961 . S
Li1059 O1118 1.970 . S
Li1059 O1119 1.956 . S
C1060 C1062 1.348 . S
C1060 C1063 1.356 . S
C1060 O1116 1.338 . S
N1061 C1064 1.314 . S
N1061 C1065 1.279 . S
C1062 C1060 1.348 . S
C1062 C1064 1.353 . S
C1062 H1120 0.929 . S
C1063 C1060 1.356 . S
C1063 C1065 1.358 . S
C1063 H1121 0.930 . S
C1064 N1061 1.314 . S
C1064 C1062 1.353 . S
C1064 H1122 0.930 . S
C1065 N1061 1.279 . S
C1065 C1063 1.358 . S
C1065 H1123 0.930 . S
C1066 C1069 1.348 1_565 S
C1066 C1070 1.356 . S
C1066 O1117 1.325 . S
C1067 N1068 1.279 1_565 S
C1067 C1070 1.358 . S
C1067 H1124 0.930 . S
N1068 C1067 1.279 1_545 S
N1068 C1071 1.314 . S
C1069 C1066 1.348 1_545 S
C1069 C1071 1.353 . S
C1069 H1125 0.929 . S
C1070 C1066 1.356 . S
C1070 C1067 1.358 . S
C1070 H1126 0.930 . S
C1071 N1068 1.314 . S
C1071 C1069 1.353 . S
C1071 H1127 0.930 . S
C1072 N1073 1.314 . S
C1072 C1077 1.353 . S
C1072 H1078 0.930 . S
N1073 Li1056 1.990 . S
N1073 C1072 1.314 . S
N1073 C1075 1.279 . S
C1074 C1075 1.358 . S
C1074 C1076 1.356 . S
C1074 H1128 0.930 . S
C1075 N1073 1.279 . S
C1075 C1074 1.358 . S
C1075 H1079 0.930 . S
C1076 C1074 1.356 . S
C1076 C1077 1.348 . S
C1077 C1072 1.353 . S
C1077 C1076 1.348 . S
C1077 H1129 0.929 . S
H1078 C1072 0.930 . S
H1079 C1075 0.930 . S
C1080 N1081 1.314 . S
C1080 C1082 1.353 . S
C1080 H1086 0.930 . S
N1081 Li1057 1.990 . S
N1081 C1080 1.314 . S
N1081 C1084 1.279 . S
C1082 C1080 1.353 . S
C1082 C1085 1.348 . S
C1082 H1130 0.929 . S
C1083 C1084 1.358 1_545 S
C1083 C1085 1.356 1_545 S
C1083 H1131 0.930 . S
C1084 N1081 1.279 . S
C1084 C1083 1.358 1_565 S
C1084 H1087 0.930 1_565 S
C1085 C1082 1.348 . S
C1085 C1083 1.356 1_565 S
H1086 C1080 0.930 . S
H1087 C1084 0.930 1_545 S
C1088 C1090 1.348 . S
C1088 C1091 1.356 . S
C1088 O1118 1.325 . S
N1089 C1092 1.314 . S
N1089 C1093 1.279 . S
C1090 C1088 1.348 . S
C1090 C1092 1.353 . S
C1090 H1132 0.929 . S
C1091 C1088 1.356 . S
C1091 C1093 1.358 . S
C1091 H1133 0.930 1_565 S
C1092 N1089 1.314 . S
C1092 C1090 1.353 . S
C1092 H1134 0.930 . S
C1093 N1089 1.279 . S
C1093 C1091 1.358 . S
C1093 H1135 0.930 . S
C1094 C1095 1.348 . S
C1094 C1096 1.356 . S
C1094 O1119 1.325 . S
C1095 C1094 1.348 . S
C1095 C1097 1.353 . S
C1095 H1136 0.929 . S
C1096 C1094 1.356 . S
C1096 C1098 1.358 . S
C1096 H1137 0.930 . S
C1097 C1095 1.353 . S
C1097 N1099 1.314 . S
C1097 H1138 0.930 . S
C1098 C1096 1.358 . S
C1098 N1099 1.279 . S
C1098 H1139 0.930 . S
N1099 C1097 1.314 . S
N1099 C1098 1.279 . S
C1100 C1102 1.353 . S
C1100 N1103 1.314 . S
C1100 H1106 0.930 . S
C1101 N1103 1.279 . S
C1101 C1104 1.358 . S
C1101 H1107 0.930 . S
C1102 C1100 1.353 . S
C1102 C1105 1.348 . S
C1102 H1140 0.929 . S
N1103 Li1058 1.990 . S
N1103 C1100 1.314 . S
N1103 C1101 1.279 . S
C1104 C1101 1.358 . S
C1104 C1105 1.356 . S
C1104 H1141 0.930 . S
C1105 C1102 1.348 . S
C1105 C1104 1.356 . S
H1106 C1100 0.930 . S
H1107 C1101 0.930 . S
C1108 N1109 1.314 . S
C1108 C1110 1.353 . S
C1108 H1114 0.930 . S
N1109 Li1059 1.990 . S
N1109 C1108 1.314 . S
N1109 C1112 1.279 . S
C1110 C1108 1.353 . S
C1110 C1113 1.348 . S
C1110 H1142 0.929 . S
C1111 C1112 1.358 . S
C1111 C1113 1.356 . S
C1111 H1143 0.930 . S
C1112 N1109 1.279 . S
C1112 C1111 1.358 . S
C1112 H1115 0.930 . S
C1113 C1110 1.348 . S
C1113 C1111 1.356 . S
H1114 C1108 0.930 . S
H1115 C1112 0.930 . S
O1116 Li1056 1.959 . S
O1116 Li1057 1.961 1_545 S
O1116 Li1058 1.945 1_545 S
O1116 C1060 1.338 . S
O1117 Li1056 1.970 1_565 S
O1117 Li1057 1.956 . S
O1117 Li1059 1.961 . S
O1117 C1066 1.325 . S
O1118 Li1056 1.961 1_565 S
O1118 Li1058 1.956 . S
O1118 Li1059 1.970 . S
O1118 C1088 1.325 . S
O1119 Li1057 1.961 . S
O1119 Li1058 1.970 . S
O1119 Li1059 1.956 . S
O1119 C1094 1.325 . S
H1120 C1062 0.929 . S
H1121 C1063 0.930 . S
H1122 C1064 0.930 . S
H1123 C1065 0.930 . S
H1124 C1067 0.930 . S
H1125 C1069 0.929 . S
H1126 C1070 0.930 . S
H1127 C1071 0.930 . S
H1128 C1074 0.930 . S
H1129 C1077 0.929 . S
H1130 C1082 0.929 . S
H1131 C1083 0.930 . S
H1132 C1090 0.929 . S
H1133 C1091 0.930 1_545 S
H1134 C1092 0.930 . S
H1135 C1093 0.930 . S
H1136 C1095 0.929 . S
H1137 C1096 0.930 . S
H1138 C1097 0.930 . S
H1139 C1098 0.930 . S
H1140 C1102 0.929 . S
H1141 C1104 0.930 . S
H1142 C1110 0.929 . S
H1143 C1111 0.930 . S
Li1144 N1161 1.990 . S
Li1144 O1204 1.956 . S
Li1144 O1205 1.961 1_455 S
Li1144 O1206 1.961 . S
Li1145 N1169 1.990 . S
Li1145 O1204 1.970 1_655 S
Li1145 O1205 1.959 . S
Li1145 O1207 1.961 1_655 S
Li1146 N1191 1.990 . S
Li1146 O1204 1.961 . S
Li1146 O1206 1.956 . S
Li1146 O1207 1.970 . S
Li1147 N1197 1.990 . S
Li1147 O1205 1.945 1_455 S
Li1147 O1206 1.970 . S
Li1147 O1207 1.956 . S
C1148 C1150 1.348 1_455 S
C1148 C1151 1.356 . S
C1148 O1204 1.325 . S
N1149 C1152 1.314 . S
N1149 C1153 1.279 1_655 S
C1150 C1148 1.348 1_655 S
C1150 C1152 1.353 . S
C1150 H1208 0.929 . S
C1151 C1148 1.356 . S
C1151 C1153 1.358 . S
C1151 H1209 0.930 . S
C1152 N1149 1.314 . S
C1152 C1150 1.353 . S
C1152 H1210 0.930 . S
C1153 N1149 1.279 1_455 S
C1153 C1151 1.358 . S
C1153 H1211 0.930 . S
C1154 C1157 1.348 . S
C1154 C1158 1.356 . S
C1154 O1205 1.338 . S
C1155 N1156 1.279 . S
C1155 C1158 1.358 . S
C1155 H1212 0.930 . S
N1156 C1155 1.279 . S
N1156 C1159 1.314 . S
C1157 C1154 1.348 . S
C1157 C1159 1.353 . S
C1157 H1213 0.929 . S
C1158 C1154 1.356 . S
C1158 C1155 1.358 . S
C1158 H1214 0.930 . S
C1159 N1156 1.314 . S
C1159 C1157 1.353 . S
C1159 H1215 0.930 . S
C1160 N1161 1.314 . S
C1160 C1165 1.353 . S
C1160 H1166 0.930 . S
N1161 Li1144 1.990 . S
N1161 C1160 1.314 . S
N1161 C1163 1.279 . S
C1162 C1163 1.358 1_655 S
C1162 C1164 1.356 1_655 S
C1162 H1216 0.930 . S
C1163 N1161 1.279 . S
C1163 C1162 1.358 1_455 S
C1163 H1167 0.930 1_455 S
C1164 C1162 1.356 1_455 S
C1164 C1165 1.348 . S
C1165 C1160 1.353 . S
C1165 C1164 1.348 . S
C1165 H1217 0.929 . S
H1166 C1160 0.930 . S
H1167 C1163 0.930 1_655 S
C1168 N1169 1.314 . S
C1168 C1170 1.353 . S
C1168 H1174 0.930 . S
N1169 Li1145 1.990 . S
N1169 C1168 1.314 . S
N1169 C1172 1.279 . S
C1170 C1168 1.353 . S
C1170 C1173 1.348 . S
C1170 H1218 0.929 . S
C1171 C1172 1.358 . S
C1171 C1173 1.356 . S
C1171 H1219 0.930 . S
C1172 N1169 1.279 . S
C1172 C1171 1.358 . S
C1172 H1175 0.930 . S
C1173 C1170 1.348 . S
C1173 C1171 1.356 . S
H1174 C1168 0.930 . S
H1175 C1172 0.930 . S
C1176 C1178 1.348 . S
C1176 C1179 1.356 . S
C1176 O1206 1.325 . S
N1177 C1180 1.314 . S
N1177 C1181 1.279 . S
C1178 C1176 1.348 . S
C1178 C1180 1.353 . S
C1178 H1220 0.929 . S
C1179 C1176 1.356 . S
C1179 C1181 1.358 . S
C1179 H1221 0.930 . S
C1180 N1177 1.314 . S
C1180 C1178 1.353 . S
C1180 H1222 0.930 . S
C1181 N1177 1.279 . S
C1181 C1179 1.358 . S
C1181 H1223 0.930 . S
C1182 C1183 1.348 . S
C1182 C1184 1.356 . S
C1182 O1207 1.325 . S
C1183 C1182 1.348 . S
C1183 C1185 1.353 . S
C1183 H1224 0.929 . S
C1184 C1182 1.356 . S
C1184 C1186 1.358 . S
C1184 H1225 0.930 1_455 S
C1185 C1183 1.353 . S
C1185 N1187 1.314 . S
C1185 H1226 0.930 . S
C1186 C1184 1.358 . S
C1186 N1187 1.279 . S
C1186 H1227 0.930 . S
N1187 C1185 1.314 . S
N1187 C1186 1.279 . S
C1188 C1190 1.353 . S
C1188 N1191 1.314 . S
C1188 H1194 0.930 . S
C1189 N1191 1.279 . S
C1189 C1192 1.358 . S
C1189 H1195 0.930 . S
C1190 C1188 1.353 . S
C1190 C1193 1.348 . S
C1190 H1228 0.929 . S
N1191 Li1146 1.990 . S
N1191 C1188 1.314 . S
N1191 C1189 1.279 . S
C1192 C1189 1.358 . S
C1192 C1193 1.356 . S
C1192 H1229 0.930 . S
C1193 C1190 1.348 . S
C1193 C1192 1.356 . S
H1194 C1188 0.930 . S
H1195 C1189 0.930 . S
C1196 N1197 1.314 . S
C1196 C1198 1.353 . S
C1196 H1202 0.930 . S
N1197 Li1147 1.990 . S
N1197 C1196 1.314 . S
N1197 C1200 1.279 . S
C1198 C1196 1.353 . S
C1198 C1201 1.348 . S
C1198 H1230 0.929 . S
C1199 C1200 1.358 . S
C1199 C1201 1.356 . S
C1199 H1231 0.930 . S
C1200 N1197 1.279 . S
C1200 C1199 1.358 . S
C1200 H1203 0.930 . S
C1201 C1198 1.348 . S
C1201 C1199 1.356 . S
H1202 C1196 0.930 . S
H1203 C1200 0.930 . S
O1204 Li1144 1.956 . S
O1204 Li1145 1.970 1_455 S
O1204 Li1146 1.961 . S
O1204 C1148 1.325 . S
O1205 Li1144 1.961 1_655 S
O1205 Li1145 1.959 . S
O1205 Li1147 1.945 1_655 S
O1205 C1154 1.338 . S
O1206 Li1144 1.961 . S
O1206 Li1146 1.956 . S
O1206 Li1147 1.970 . S
O1206 C1176 1.325 . S
O1207 Li1145 1.961 1_455 S
O1207 Li1146 1.970 . S
O1207 Li1147 1.956 . S
O1207 C1182 1.325 . S
H1208 C1150 0.929 . S
H1209 C1151 0.930 . S
H1210 C1152 0.930 . S
H1211 C1153 0.930 . S
H1212 C1155 0.930 . S
H1213 C1157 0.929 . S
H1214 C1158 0.930 . S
H1215 C1159 0.930 . S
H1216 C1162 0.930 . S
H1217 C1165 0.929 . S
H1218 C1170 0.929 . S
H1219 C1171 0.930 . S
H1220 C1178 0.929 . S
H1221 C1179 0.930 . S
H1222 C1180 0.930 . S
H1223 C1181 0.930 . S
H1224 C1183 0.929 . S
H1225 C1184 0.930 1_655 S
H1226 C1185 0.930 . S
H1227 C1186 0.930 . S
H1228 C1190 0.929 . S
H1229 C1192 0.930 . S
H1230 C1198 0.929 . S
H1231 C1199 0.930 . S
Li1232 N1249 1.990 . S
Li1232 O1292 1.956 . S
Li1232 O1293 1.961 1_545 S
Li1232 O1294 1.961 . S
Li1233 N1257 1.990 . S
Li1233 O1292 1.970 1_565 S
Li1233 O1293 1.959 . S
Li1233 O1295 1.961 1_565 S
Li1234 N1279 1.990 . S
Li1234 O1292 1.961 . S
Li1234 O1294 1.956 . S
Li1234 O1295 1.970 . S
Li1235 N1285 1.990 . S
Li1235 O1293 1.945 1_545 S
Li1235 O1294 1.970 . S
Li1235 O1295 1.956 . S
C1236 C1238 1.348 1_545 S
C1236 C1239 1.356 . S
C1236 O1292 1.325 . S
N1237 C1240 1.314 . S
N1237 C1241 1.279 1_565 S
C1238 C1236 1.348 1_565 S
C1238 C1240 1.353 . S
C1238 H1296 0.929 . S
C1239 C1236 1.356 . S
C1239 C1241 1.358 . S
C1239 H1297 0.930 . S
C1240 N1237 1.314 . S
C1240 C1238 1.353 . S
C1240 H1298 0.930 . S
C1241 N1237 1.279 1_545 S
C1241 C1239 1.358 . S
C1241 H1299 0.930 . S
C1242 C1245 1.348 . S
C1242 C1246 1.356 . S
C1242 O1293 1.338 . S
C1243 N1244 1.279 . S
C1243 C1246 1.358 . S
C1243 H1300 0.930 . S
N1244 C1243 1.279 . S
N1244 C1247 1.314 . S
C1245 C1242 1.348 . S
C1245 C1247 1.353 . S
C1245 H1301 0.929 . S
C1246 C1242 1.356 . S
C1246 C1243 1.358 . S
C1246 H1302 0.930 . S
C1247 N1244 1.314 . S
C1247 C1245 1.353 . S
C1247 H1303 0.930 . S
C1248 N1249 1.314 . S
C1248 C1253 1.353 . S
C1248 H1254 0.930 . S
N1249 Li1232 1.990 . S
N1249 C1248 1.314 . S
N1249 C1251 1.279 . S
C1250 C1251 1.358 1_565 S
C1250 C1252 1.356 1_565 S
C1250 H1304 0.930 . S
C1251 N1249 1.279 . S
C1251 C1250 1.358 1_545 S
C1251 H1255 0.930 1_545 S
C1252 C1250 1.356 1_545 S
C1252 C1253 1.348 . S
C1253 C1248 1.353 . S
C1253 C1252 1.348 . S
C1253 H1305 0.929 . S
H1254 C1248 0.930 . S
H1255 C1251 0.930 1_565 S
C1256 N1257 1.314 . S
C1256 C1258 1.353 . S
C1256 H1262 0.930 . S
N1257 Li1233 1.990 . S
N1257 C1256 1.314 . S
N1257 C1260 1.279 . S
C1258 C1256 1.353 . S
C1258 C1261 1.348 . S
C1258 H1306 0.929 . S
C1259 C1260 1.358 . S
C1259 C1261 1.356 . S
C1259 H1307 0.930 . S
C1260 N1257 1.279 . S
C1260 C1259 1.358 . S
C1260 H1263 0.930 . S
C1261 C1258 1.348 . S
C1261 C1259 1.356 . S
H1262 C1256 0.930 . S
H1263 C1260 0.930 . S
C1264 C1266 1.348 . S
C1264 C1267 1.356 . S
C1264 O1294 1.325 . S
N1265 C1268 1.314 . S
N1265 C1269 1.279 . S
C1266 C1264 1.348 . S
C1266 C1268 1.353 . S
C1266 H1308 0.929 . S
C1267 C1264 1.356 . S
C1267 C1269 1.358 . S
C1267 H1309 0.930 . S
C1268 N1265 1.314 . S
C1268 C1266 1.353 . S
C1268 H1310 0.930 . S
C1269 N1265 1.279 . S
C1269 C1267 1.358 . S
C1269 H1311 0.930 . S
C1270 C1271 1.348 . S
C1270 C1272 1.356 . S
C1270 O1295 1.325 . S
C1271 C1270 1.348 . S
C1271 C1273 1.353 . S
C1271 H1312 0.929 . S
C1272 C1270 1.356 . S
C1272 C1274 1.358 . S
C1272 H1313 0.930 1_545 S
C1273 C1271 1.353 . S
C1273 N1275 1.314 . S
C1273 H1314 0.930 . S
C1274 C1272 1.358 . S
C1274 N1275 1.279 . S
C1274 H1315 0.930 . S
N1275 C1273 1.314 . S
N1275 C1274 1.279 . S
C1276 C1278 1.353 . S
C1276 N1279 1.314 . S
C1276 H1282 0.930 . S
C1277 N1279 1.279 . S
C1277 C1280 1.358 . S
C1277 H1283 0.930 . S
C1278 C1276 1.353 . S
C1278 C1281 1.348 . S
C1278 H1316 0.929 . S
N1279 Li1234 1.990 . S
N1279 C1276 1.314 . S
N1279 C1277 1.279 . S
C1280 C1277 1.358 . S
C1280 C1281 1.356 . S
C1280 H1317 0.930 . S
C1281 C1278 1.348 . S
C1281 C1280 1.356 . S
H1282 C1276 0.930 . S
H1283 C1277 0.930 . S
C1284 N1285 1.314 . S
C1284 C1286 1.353 . S
C1284 H1290 0.930 . S
N1285 Li1235 1.990 . S
N1285 C1284 1.314 . S
N1285 C1288 1.279 . S
C1286 C1284 1.353 . S
C1286 C1289 1.348 . S
C1286 H1318 0.929 . S
C1287 C1288 1.358 . S
C1287 C1289 1.356 . S
C1287 H1319 0.930 . S
C1288 N1285 1.279 . S
C1288 C1287 1.358 . S
C1288 H1291 0.930 . S
C1289 C1286 1.348 . S
C1289 C1287 1.356 . S
H1290 C1284 0.930 . S
H1291 C1288 0.930 . S
O1292 Li1232 1.956 . S
O1292 Li1233 1.970 1_545 S
O1292 Li1234 1.961 . S
O1292 C1236 1.325 . S
O1293 Li1232 1.961 1_565 S
O1293 Li1233 1.959 . S
O1293 Li1235 1.945 1_565 S
O1293 C1242 1.338 . S
O1294 Li1232 1.961 . S
O1294 Li1234 1.956 . S
O1294 Li1235 1.970 . S
O1294 C1264 1.325 . S
O1295 Li1233 1.961 1_545 S
O1295 Li1234 1.970 . S
O1295 Li1235 1.956 . S
O1295 C1270 1.325 . S
H1296 C1238 0.929 . S
H1297 C1239 0.930 . S
H1298 C1240 0.930 . S
H1299 C1241 0.930 . S
H1300 C1243 0.930 . S
H1301 C1245 0.929 . S
H1302 C1246 0.930 . S
H1303 C1247 0.930 . S
H1304 C1250 0.930 . S
H1305 C1253 0.929 . S
H1306 C1258 0.929 . S
H1307 C1259 0.930 . S
H1308 C1266 0.929 . S
H1309 C1267 0.930 . S
H1310 C1268 0.930 . S
H1311 C1269 0.930 . S
H1312 C1271 0.929 . S
H1313 C1272 0.930 1_565 S
H1314 C1273 0.930 . S
H1315 C1274 0.930 . S
H1316 C1278 0.929 . S
H1317 C1280 0.930 . S
H1318 C1286 0.929 . S
H1319 C1287 0.930 . S
Li1320 N1337 1.990 . S
Li1320 O1380 1.959 . S
Li1320 O1381 1.970 1_455 S
Li1320 O1382 1.961 1_455 S
Li1321 N1345 1.990 . S
Li1321 O1380 1.961 1_655 S
Li1321 O1381 1.956 . S
Li1321 O1383 1.961 . S
Li1322 N1367 1.990 . S
Li1322 O1380 1.945 1_655 S
Li1322 O1382 1.956 . S
Li1322 O1383 1.970 . S
Li1323 N1373 1.990 . S
Li1323 O1381 1.961 . S
Li1323 O1382 1.970 . S
Li1323 O1383 1.956 . S
C1324 C1326 1.348 . S
C1324 C1327 1.356 . S
C1324 O1380 1.338 . S
N1325 C1328 1.314 . S
N1325 C1329 1.279 . S
C1326 C1324 1.348 . S
C1326 C1328 1.353 . S
C1326 H1384 0.929 . S
C1327 C1324 1.356 . S
C1327 C1329 1.358 . S
C1327 H1385 0.930 . S
C1328 N1325 1.314 . S
C1328 C1326 1.353 . S
C1328 H1386 0.930 . S
C1329 N1325 1.279 . S
C1329 C1327 1.358 . S
C1329 H1387 0.930 . S
C1330 C1333 1.348 1_655 S
C1330 C1334 1.356 . S
C1330 O1381 1.325 . S
C1331 N1332 1.279 1_655 S
C1331 C1334 1.358 . S
C1331 H1388 0.930 . S
N1332 C1331 1.279 1_455 S
N1332 C1335 1.314 . S
C1333 C1330 1.348 1_455 S
C1333 C1335 1.353 . S
C1333 H1389 0.929 . S
C1334 C1330 1.356 . S
C1334 C1331 1.358 . S
C1334 H1390 0.930 . S
C1335 N1332 1.314 . S
C1335 C1333 1.353 . S
C1335 H1391 0.930 . S
C1336 N1337 1.314 . S
C1336 C1341 1.353 . S
C1336 H1342 0.930 . S
N1337 Li1320 1.990 . S
N1337 C1336 1.314 . S
N1337 C1339 1.279 . S
C1338 C1339 1.358 . S
C1338 C1340 1.356 . S
C1338 H1392 0.930 . S
C1339 N1337 1.279 . S
C1339 C1338 1.358 . S
C1339 H1343 0.930 . S
C1340 C1338 1.356 . S
C1340 C1341 1.348 . S
C1341 C1336 1.353 . S
C1341 C1340 1.348 . S
C1341 H1393 0.929 . S
H1342 C1336 0.930 . S
H1343 C1339 0.930 . S
C1344 N1345 1.314 . S
C1344 C1346 1.353 . S
C1344 H1350 0.930 . S
N1345 Li1321 1.990 . S
N1345 C1344 1.314 . S
N1345 C1348 1.279 . S
C1346 C1344 1.353 . S
C1346 C1349 1.348 . S
C1346 H1394 0.929 . S
C1347 C1348 1.358 1_455 S
C1347 C1349 1.356 1_455 S
C1347 H1395 0.930 . S
C1348 N1345 1.279 . S
C1348 C1347 1.358 1_655 S
C1348 H1351 0.930 1_655 S
C1349 C1346 1.348 . S
C1349 C1347 1.356 1_655 S
H1350 C1344 0.930 . S
H1351 C1348 0.930 1_455 S
C1352 C1354 1.348 . S
C1352 C1355 1.356 . S
C1352 O1382 1.325 . S
N1353 C1356 1.314 . S
N1353 C1357 1.279 . S
C1354 C1352 1.348 . S
C1354 C1356 1.353 . S
C1354 H1396 0.929 . S
C1355 C1352 1.356 . S
C1355 C1357 1.358 . S
C1355 H1397 0.930 1_655 S
C1356 N1353 1.314 . S
C1356 C1354 1.353 . S
C1356 H1398 0.930 . S
C1357 N1353 1.279 . S
C1357 C1355 1.358 . S
C1357 H1399 0.930 . S
C1358 C1359 1.348 . S
C1358 C1360 1.356 . S
C1358 O1383 1.325 . S
C1359 C1358 1.348 . S
C1359 C1361 1.353 . S
C1359 H1400 0.929 . S
C1360 C1358 1.356 . S
C1360 C1362 1.358 . S
C1360 H1401 0.930 . S
C1361 C1359 1.353 . S
C1361 N1363 1.314 . S
C1361 H1402 0.930 . S
C1362 C1360 1.358 . S
C1362 N1363 1.279 . S
C1362 H1403 0.930 . S
N1363 C1361 1.314 . S
N1363 C1362 1.279 . S
C1364 C1366 1.353 . S
C1364 N1367 1.314 . S
C1364 H1370 0.930 . S
C1365 N1367 1.279 . S
C1365 C1368 1.358 . S
C1365 H1371 0.930 . S
C1366 C1364 1.353 . S
C1366 C1369 1.348 . S
C1366 H1404 0.929 . S
N1367 Li1322 1.990 . S
N1367 C1364 1.314 . S
N1367 C1365 1.279 . S
C1368 C1365 1.358 . S
C1368 C1369 1.356 . S
C1368 H1405 0.930 . S
C1369 C1366 1.348 . S
C1369 C1368 1.356 . S
H1370 C1364 0.930 . S
H1371 C1365 0.930 . S
C1372 N1373 1.314 . S
C1372 C1374 1.353 . S
C1372 H1378 0.930 . S
N1373 Li1323 1.990 . S
N1373 C1372 1.314 . S
N1373 C1376 1.279 . S
C1374 C1372 1.353 . S
C1374 C1377 1.348 . S
C1374 H1406 0.929 . S
C1375 C1376 1.358 . S
C1375 C1377 1.356 . S
C1375 H1407 0.930 . S
C1376 N1373 1.279 . S
C1376 C1375 1.358 . S
C1376 H1379 0.930 . S
C1377 C1374 1.348 . S
C1377 C1375 1.356 . S
H1378 C1372 0.930 . S
H1379 C1376 0.930 . S
O1380 Li1320 1.959 . S
O1380 Li1321 1.961 1_455 S
O1380 Li1322 1.945 1_455 S
O1380 C1324 1.338 . S
O1381 Li1320 1.970 1_655 S
O1381 Li1321 1.956 . S
O1381 Li1323 1.961 . S
O1381 C1330 1.325 . S
O1382 Li1320 1.961 1_655 S
O1382 Li1322 1.956 . S
O1382 Li1323 1.970 . S
O1382 C1352 1.325 . S
O1383 Li1321 1.961 . S
O1383 Li1322 1.970 . S
O1383 Li1323 1.956 . S
O1383 C1358 1.325 . S
H1384 C1326 0.929 . S
H1385 C1327 0.930 . S
H1386 C1328 0.930 . S
H1387 C1329 0.930 . S
H1388 C1331 0.930 . S
H1389 C1333 0.929 . S
H1390 C1334 0.930 . S
H1391 C1335 0.930 . S
H1392 C1338 0.930 . S
H1393 C1341 0.929 . S
H1394 C1346 0.929 . S
H1395 C1347 0.930 . S
H1396 C1354 0.929 . S
H1397 C1355 0.930 1_455 S
H1398 C1356 0.930 . S
H1399 C1357 0.930 . S
H1400 C1359 0.929 . S
H1401 C1360 0.930 . S
H1402 C1361 0.930 . S
H1403 C1362 0.930 . S
H1404 C1366 0.929 . S
H1405 C1368 0.930 . S
H1406 C1374 0.929 . S
H1407 C1375 0.930 . S
Li1408 N1425 1.990 . S
Li1408 O1468 1.956 . S
Li1408 O1469 1.970 . S
Li1408 O1470 1.945 1_554 S
Li1409 N1433 1.990 . S
Li1409 O1468 1.970 . S
Li1409 O1469 1.956 . S
Li1409 O1471 1.961 . S
Li1410 N1455 1.990 . S
Li1410 O1468 1.961 1_556 S
Li1410 O1470 1.959 . S
Li1410 O1471 1.970 1_556 S
Li1411 N1461 1.990 . S
Li1411 O1469 1.961 . S
Li1411 O1470 1.961 1_554 S
Li1411 O1471 1.956 . S
C1412 C1414 1.348 . S
C1412 C1415 1.356 . S
C1412 O1468 1.325 . S
N1413 C1416 1.314 . S
N1413 C1417 1.279 . S
C1414 C1412 1.348 . S
C1414 C1416 1.353 . S
C1414 H1472 0.929 . S
C1415 C1412 1.356 . S
C1415 C1417 1.358 . S
C1415 H1473 0.930 1_554 S
C1416 N1413 1.314 . S
C1416 C1414 1.353 . S
C1416 H1474 0.930 . S
C1417 N1413 1.279 . S
C1417 C1415 1.358 . S
C1417 H1475 0.930 . S
C1418 C1421 1.348 . S
C1418 C1422 1.356 . S
C1418 O1469 1.325 . S
C1419 N1420 1.279 . S
C1419 C1422 1.358 . S
C1419 H1476 0.930 . S
N1420 C1419 1.279 . S
N1420 C1423 1.314 . S
C1421 C1418 1.348 . S
C1421 C1423 1.353 . S
C1421 H1477 0.929 . S
C1422 C1418 1.356 . S
C1422 C1419 1.358 . S
C1422 H1478 0.930 . S
C1423 N1420 1.314 . S
C1423 C1421 1.353 . S
C1423 H1479 0.930 . S
C1424 N1425 1.314 . S
C1424 C1429 1.353 . S
C1424 H1430 0.930 . S
N1425 Li1408 1.990 . S
N1425 C1424 1.314 . S
N1425 C1427 1.279 . S
C1426 C1427 1.358 . S
C1426 C1428 1.356 . S
C1426 H1480 0.930 . S
C1427 N1425 1.279 . S
C1427 C1426 1.358 . S
C1427 H1431 0.930 . S
C1428 C1426 1.356 . S
C1428 C1429 1.348 . S
C1429 C1424 1.353 . S
C1429 C1428 1.348 . S
C1429 H1481 0.929 . S
H1430 C1424 0.930 . S
H1431 C1427 0.930 . S
C1432 N1433 1.314 . S
C1432 C1434 1.353 . S
C1432 H1438 0.930 . S
N1433 Li1409 1.990 . S
N1433 C1432 1.314 . S
N1433 C1436 1.279 . S
C1434 C1432 1.353 . S
C1434 C1437 1.348 . S
C1434 H1482 0.929 . S
C1435 C1436 1.358 . S
C1435 C1437 1.356 . S
C1435 H1483 0.930 . S
C1436 N1433 1.279 . S
C1436 C1435 1.358 . S
C1436 H1439 0.930 . S
C1437 C1434 1.348 . S
C1437 C1435 1.356 . S
H1438 C1432 0.930 . S
H1439 C1436 0.930 . S
C1440 C1442 1.348 . S
C1440 C1443 1.356 . S
C1440 O1470 1.338 . S
N1441 C1444 1.314 . S
N1441 C1445 1.279 . S
C1442 C1440 1.348 . S
C1442 C1444 1.353 . S
C1442 H1484 0.929 . S
C1443 C1440 1.356 . S
C1443 C1445 1.358 . S
C1443 H1485 0.930 . S
C1444 N1441 1.314 . S
C1444 C1442 1.353 . S
C1444 H1486 0.930 . S
C1445 N1441 1.279 . S
C1445 C1443 1.358 . S
C1445 H1487 0.930 . S
C1446 C1447 1.348 1_554 S
C1446 C1448 1.356 . S
C1446 O1471 1.325 . S
C1447 C1446 1.348 1_556 S
C1447 C1449 1.353 . S
C1447 H1488 0.929 . S
C1448 C1446 1.356 . S
C1448 C1450 1.358 . S
C1448 H1489 0.930 . S
C1449 C1447 1.353 . S
C1449 N1451 1.314 . S
C1449 H1490 0.930 . S
C1450 C1448 1.358 . S
C1450 N1451 1.279 1_554 S
C1450 H1491 0.930 . S
N1451 C1449 1.314 . S
N1451 C1450 1.279 1_556 S
C1452 C1454 1.353 . S
C1452 N1455 1.314 . S
C1452 H1458 0.930 . S
C1453 N1455 1.279 . S
C1453 C1456 1.358 . S
C1453 H1459 0.930 . S
C1454 C1452 1.353 . S
C1454 C1457 1.348 . S
C1454 H1492 0.929 . S
N1455 Li1410 1.990 . S
N1455 C1452 1.314 . S
N1455 C1453 1.279 . S
C1456 C1453 1.358 . S
C1456 C1457 1.356 . S
C1456 H1493 0.930 . S
C1457 C1454 1.348 . S
C1457 C1456 1.356 . S
H1458 C1452 0.930 . S
H1459 C1453 0.930 . S
C1460 N1461 1.314 . S
C1460 C1462 1.353 . S
C1460 H1466 0.930 . S
N1461 Li1411 1.990 . S
N1461 C1460 1.314 . S
N1461 C1464 1.279 . S
C1462 C1460 1.353 . S
C1462 C1465 1.348 . S
C1462 H1494 0.929 . S
C1463 C1464 1.358 1_556 S
C1463 C1465 1.356 1_556 S
C1463 H1495 0.930 . S
C1464 N1461 1.279 . S
C1464 C1463 1.358 1_554 S
C1464 H1467 0.930 1_554 S
C1465 C1462 1.348 . S
C1465 C1463 1.356 1_554 S
H1466 C1460 0.930 . S
H1467 C1464 0.930 1_556 S
O1468 Li1408 1.956 . S
O1468 Li1409 1.970 . S
O1468 Li1410 1.961 1_554 S
O1468 C1412 1.325 . S
O1469 Li1408 1.970 . S
O1469 Li1409 1.956 . S
O1469 Li1411 1.961 . S
O1469 C1418 1.325 . S
O1470 Li1408 1.945 1_556 S
O1470 Li1410 1.959 . S
O1470 Li1411 1.961 1_556 S
O1470 C1440 1.338 . S
O1471 Li1409 1.961 . S
O1471 Li1410 1.970 1_554 S
O1471 Li1411 1.956 . S
O1471 C1446 1.325 . S
H1472 C1414 0.929 . S
H1473 C1415 0.930 1_556 S
H1474 C1416 0.930 . S
H1475 C1417 0.930 . S
H1476 C1419 0.930 . S
H1477 C1421 0.929 . S
H1478 C1422 0.930 . S
H1479 C1423 0.930 . S
H1480 C1426 0.930 . S
H1481 C1429 0.929 . S
H1482 C1434 0.929 . S
H1483 C1435 0.930 . S
H1484 C1442 0.929 . S
H1485 C1443 0.930 . S
H1486 C1444 0.930 . S
H1487 C1445 0.930 . S
H1488 C1447 0.929 . S
H1489 C1448 0.930 . S
H1490 C1449 0.930 . S
H1491 C1450 0.930 . S
H1492 C1454 0.929 . S
H1493 C1456 0.930 . S
H1494 C1462 0.929 . S
H1495 C1463 0.930 . S
Li1496 N1513 1.990 . S
Li1496 O1556 1.959 . S
Li1496 O1557 1.970 1_554 S
Li1496 O1558 1.961 1_554 S
Li1497 N1521 1.990 . S
Li1497 O1556 1.961 1_556 S
Li1497 O1557 1.956 . S
Li1497 O1559 1.961 . S
Li1498 N1543 1.990 . S
Li1498 O1556 1.945 1_556 S
Li1498 O1558 1.956 . S
Li1498 O1559 1.970 . S
Li1499 N1549 1.990 . S
Li1499 O1557 1.961 . S
Li1499 O1558 1.970 . S
Li1499 O1559 1.956 . S
C1500 C1502 1.348 . S
C1500 C1503 1.356 . S
C1500 O1556 1.338 . S
N1501 C1504 1.314 . S
N1501 C1505 1.279 . S
C1502 C1500 1.348 . S
C1502 C1504 1.353 . S
C1502 H1560 0.929 . S
C1503 C1500 1.356 . S
C1503 C1505 1.358 . S
C1503 H1561 0.930 . S
C1504 N1501 1.314 . S
C1504 C1502 1.353 . S
C1504 H1562 0.930 . S
C1505 N1501 1.279 . S
C1505 C1503 1.358 . S
C1505 H1563 0.930 . S
C1506 C1509 1.348 1_556 S
C1506 C1510 1.356 . S
C1506 O1557 1.325 . S
C1507 N1508 1.279 1_556 S
C1507 C1510 1.358 . S
C1507 H1564 0.930 . S
N1508 C1507 1.279 1_554 S
N1508 C1511 1.314 . S
C1509 C1506 1.348 1_554 S
C1509 C1511 1.353 . S
C1509 H1565 0.929 . S
C1510 C1506 1.356 . S
C1510 C1507 1.358 . S
C1510 H1566 0.930 . S
C1511 N1508 1.314 . S
C1511 C1509 1.353 . S
C1511 H1567 0.930 . S
C1512 N1513 1.314 . S
C1512 C1517 1.353 . S
C1512 H1518 0.930 . S
N1513 Li1496 1.990 . S
N1513 C1512 1.314 . S
N1513 C1515 1.279 . S
C1514 C1515 1.358 . S
C1514 C1516 1.356 . S
C1514 H1568 0.930 . S
C1515 N1513 1.279 . S
C1515 C1514 1.358 . S
C1515 H1519 0.930 . S
C1516 C1514 1.356 . S
C1516 C1517 1.348 . S
C1517 C1512 1.353 . S
C1517 C1516 1.348 . S
C1517 H1569 0.929 . S
H1518 C1512 0.930 . S
H1519 C1515 0.930 . S
C1520 N1521 1.314 . S
C1520 C1522 1.353 . S
C1520 H1526 0.930 . S
N1521 Li1497 1.990 . S
N1521 C1520 1.314 . S
N1521 C1524 1.279 . S
C1522 C1520 1.353 . S
C1522 C1525 1.348 . S
C1522 H1570 0.929 . S
C1523 C1524 1.358 1_554 S
C1523 C1525 1.356 1_554 S
C1523 H1571 0.930 . S
C1524 N1521 1.279 . S
C1524 C1523 1.358 1_556 S
C1524 H1527 0.930 1_556 S
C1525 C1522 1.348 . S
C1525 C1523 1.356 1_556 S
H1526 C1520 0.930 . S
H1527 C1524 0.930 1_554 S
C1528 C1530 1.348 . S
C1528 C1531 1.356 . S
C1528 O1558 1.325 . S
N1529 C1532 1.314 . S
N1529 C1533 1.279 . S
C1530 C1528 1.348 . S
C1530 C1532 1.353 . S
C1530 H1572 0.929 . S
C1531 C1528 1.356 . S
C1531 C1533 1.358 . S
C1531 H1573 0.930 1_556 S
C1532 N1529 1.314 . S
C1532 C1530 1.353 . S
C1532 H1574 0.930 . S
C1533 N1529 1.279 . S
C1533 C1531 1.358 . S
C1533 H1575 0.930 . S
C1534 C1535 1.348 . S
C1534 C1536 1.356 . S
C1534 O1559 1.325 . S
C1535 C1534 1.348 . S
C1535 C1537 1.353 . S
C1535 H1576 0.929 . S
C1536 C1534 1.356 . S
C1536 C1538 1.358 . S
C1536 H1577 0.930 . S
C1537 C1535 1.353 . S
C1537 N1539 1.314 . S
C1537 H1578 0.930 . S
C1538 C1536 1.358 . S
C1538 N1539 1.279 . S
C1538 H1579 0.930 . S
N1539 C1537 1.314 . S
N1539 C1538 1.279 . S
C1540 C1542 1.353 . S
C1540 N1543 1.314 . S
C1540 H1546 0.930 . S
C1541 N1543 1.279 . S
C1541 C1544 1.358 . S
C1541 H1547 0.930 . S
C1542 C1540 1.353 . S
C1542 C1545 1.348 . S
C1542 H1580 0.929 . S
N1543 Li1498 1.990 . S
N1543 C1540 1.314 . S
N1543 C1541 1.279 . S
C1544 C1541 1.358 . S
C1544 C1545 1.356 . S
C1544 H1581 0.930 . S
C1545 C1542 1.348 . S
C1545 C1544 1.356 . S
H1546 C1540 0.930 . S
H1547 C1541 0.930 . S
C1548 N1549 1.314 . S
C1548 C1550 1.353 . S
C1548 H1554 0.930 . S
N1549 Li1499 1.990 . S
N1549 C1548 1.314 . S
N1549 C1552 1.279 . S
C1550 C1548 1.353 . S
C1550 C1553 1.348 . S
C1550 H1582 0.929 . S
C1551 C1552 1.358 . S
C1551 C1553 1.356 . S
C1551 H1583 0.930 . S
C1552 N1549 1.279 . S
C1552 C1551 1.358 . S
C1552 H1555 0.930 . S
C1553 C1550 1.348 . S
C1553 C1551 1.356 . S
H1554 C1548 0.930 . S
H1555 C1552 0.930 . S
O1556 Li1496 1.959 . S
O1556 Li1497 1.961 1_554 S
O1556 Li1498 1.945 1_554 S
O1556 C1500 1.338 . S
O1557 Li1496 1.970 1_556 S
O1557 Li1497 1.956 . S
O1557 Li1499 1.961 . S
O1557 C1506 1.325 . S
O1558 Li1496 1.961 1_556 S
O1558 Li1498 1.956 . S
O1558 Li1499 1.970 . S
O1558 C1528 1.325 . S
O1559 Li1497 1.961 . S
O1559 Li1498 1.970 . S
O1559 Li1499 1.956 . S
O1559 C1534 1.325 . S
H1560 C1502 0.929 . S
H1561 C1503 0.930 . S
H1562 C1504 0.930 . S
H1563 C1505 0.930 . S
H1564 C1507 0.930 . S
H1565 C1509 0.929 . S
H1566 C1510 0.930 . S
H1567 C1511 0.930 . S
H1568 C1514 0.930 . S
H1569 C1517 0.929 . S
H1570 C1522 0.929 . S
H1571 C1523 0.930 . S
H1572 C1530 0.929 . S
H1573 C1531 0.930 1_554 S
H1574 C1532 0.930 . S
H1575 C1533 0.930 . S
H1576 C1535 0.929 . S
H1577 C1536 0.930 . S
H1578 C1537 0.930 . S
H1579 C1538 0.930 . S
H1580 C1542 0.929 . S
H1581 C1544 0.930 . S
H1582 C1550 0.929 . S
H1583 C1551 0.930 . S
Li1584 N1601 1.990 . S
Li1584 O1644 1.959 . S
Li1584 O1645 1.970 1_554 S
Li1584 O1646 1.961 1_554 S
Li1585 N1609 1.990 . S
Li1585 O1644 1.961 1_556 S
Li1585 O1645 1.956 . S
Li1585 O1647 1.961 . S
Li1586 N1631 1.990 . S
Li1586 O1644 1.945 1_556 S
Li1586 O1646 1.956 . S
Li1586 O1647 1.970 . S
Li1587 N1637 1.990 . S
Li1587 O1645 1.961 . S
Li1587 O1646 1.970 . S
Li1587 O1647 1.956 . S
C1588 C1590 1.348 . S
C1588 C1591 1.356 . S
C1588 O1644 1.338 . S
N1589 C1592 1.314 . S
N1589 C1593 1.279 . S
C1590 C1588 1.348 . S
C1590 C1592 1.353 . S
C1590 H1648 0.929 . S
C1591 C1588 1.356 . S
C1591 C1593 1.358 . S
C1591 H1649 0.930 . S
C1592 N1589 1.314 . S
C1592 C1590 1.353 . S
C1592 H1650 0.930 . S
C1593 N1589 1.279 . S
C1593 C1591 1.358 . S
C1593 H1651 0.930 . S
C1594 C1597 1.348 1_556 S
C1594 C1598 1.356 . S
C1594 O1645 1.325 . S
C1595 N1596 1.279 1_556 S
C1595 C1598 1.358 . S
C1595 H1652 0.930 . S
N1596 C1595 1.279 1_554 S
N1596 C1599 1.314 . S
C1597 C1594 1.348 1_554 S
C1597 C1599 1.353 . S
C1597 H1653 0.929 . S
C1598 C1594 1.356 . S
C1598 C1595 1.358 . S
C1598 H1654 0.930 . S
C1599 N1596 1.314 . S
C1599 C1597 1.353 . S
C1599 H1655 0.930 . S
C1600 N1601 1.314 . S
C1600 C1605 1.353 . S
C1600 H1606 0.930 . S
N1601 Li1584 1.990 . S
N1601 C1600 1.314 . S
N1601 C1603 1.279 . S
C1602 C1603 1.358 . S
C1602 C1604 1.356 . S
C1602 H1656 0.930 . S
C1603 N1601 1.279 . S
C1603 C1602 1.358 . S
C1603 H1607 0.930 . S
C1604 C1602 1.356 . S
C1604 C1605 1.348 . S
C1605 C1600 1.353 . S
C1605 C1604 1.348 . S
C1605 H1657 0.929 . S
H1606 C1600 0.930 . S
H1607 C1603 0.930 . S
C1608 N1609 1.314 . S
C1608 C1610 1.353 . S
C1608 H1614 0.930 . S
N1609 Li1585 1.990 . S
N1609 C1608 1.314 . S
N1609 C1612 1.279 . S
C1610 C1608 1.353 . S
C1610 C1613 1.348 . S
C1610 H1658 0.929 . S
C1611 C1612 1.358 1_554 S
C1611 C1613 1.356 1_554 S
C1611 H1659 0.930 . S
C1612 N1609 1.279 . S
C1612 C1611 1.358 1_556 S
C1612 H1615 0.930 1_556 S
C1613 C1610 1.348 . S
C1613 C1611 1.356 1_556 S
H1614 C1608 0.930 . S
H1615 C1612 0.930 1_554 S
C1616 C1618 1.348 . S
C1616 C1619 1.356 . S
C1616 O1646 1.325 . S
N1617 C1620 1.314 . S
N1617 C1621 1.279 . S
C1618 C1616 1.348 . S
C1618 C1620 1.353 . S
C1618 H1660 0.929 . S
C1619 C1616 1.356 . S
C1619 C1621 1.358 . S
C1619 H1661 0.930 1_556 S
C1620 N1617 1.314 . S
C1620 C1618 1.353 . S
C1620 H1662 0.930 . S
C1621 N1617 1.279 . S
C1621 C1619 1.358 . S
C1621 H1663 0.930 . S
C1622 C1623 1.348 . S
C1622 C1624 1.356 . S
C1622 O1647 1.325 . S
C1623 C1622 1.348 . S
C1623 C1625 1.353 . S
C1623 H1664 0.929 . S
C1624 C1622 1.356 . S
C1624 C1626 1.358 . S
C1624 H1665 0.930 . S
C1625 C1623 1.353 . S
C1625 N1627 1.314 . S
C1625 H1666 0.930 . S
C1626 C1624 1.358 . S
C1626 N1627 1.279 . S
C1626 H1667 0.930 . S
N1627 C1625 1.314 . S
N1627 C1626 1.279 . S
C1628 C1630 1.353 . S
C1628 N1631 1.314 . S
C1628 H1634 0.930 . S
C1629 N1631 1.279 . S
C1629 C1632 1.358 . S
C1629 H1635 0.930 . S
C1630 C1628 1.353 . S
C1630 C1633 1.348 . S
C1630 H1668 0.929 . S
N1631 Li1586 1.990 . S
N1631 C1628 1.314 . S
N1631 C1629 1.279 . S
C1632 C1629 1.358 . S
C1632 C1633 1.356 . S
C1632 H1669 0.930 . S
C1633 C1630 1.348 . S
C1633 C1632 1.356 . S
H1634 C1628 0.930 . S
H1635 C1629 0.930 . S
C1636 N1637 1.314 . S
C1636 C1638 1.353 . S
C1636 H1642 0.930 . S
N1637 Li1587 1.990 . S
N1637 C1636 1.314 . S
N1637 C1640 1.279 . S
C1638 C1636 1.353 . S
C1638 C1641 1.348 . S
C1638 H1670 0.929 . S
C1639 C1640 1.358 . S
C1639 C1641 1.356 . S
C1639 H1671 0.930 . S
C1640 N1637 1.279 . S
C1640 C1639 1.358 . S
C1640 H1643 0.930 . S
C1641 C1638 1.348 . S
C1641 C1639 1.356 . S
H1642 C1636 0.930 . S
H1643 C1640 0.930 . S
O1644 Li1584 1.959 . S
O1644 Li1585 1.961 1_554 S
O1644 Li1586 1.945 1_554 S
O1644 C1588 1.338 . S
O1645 Li1584 1.970 1_556 S
O1645 Li1585 1.956 . S
O1645 Li1587 1.961 . S
O1645 C1594 1.325 . S
O1646 Li1584 1.961 1_556 S
O1646 Li1586 1.956 . S
O1646 Li1587 1.970 . S
O1646 C1616 1.325 . S
O1647 Li1585 1.961 . S
O1647 Li1586 1.970 . S
O1647 Li1587 1.956 . S
O1647 C1622 1.325 . S
H1648 C1590 0.929 . S
H1649 C1591 0.930 . S
H1650 C1592 0.930 . S
H1651 C1593 0.930 . S
H1652 C1595 0.930 . S
H1653 C1597 0.929 . S
H1654 C1598 0.930 . S
H1655 C1599 0.930 . S
H1656 C1602 0.930 . S
H1657 C1605 0.929 . S
H1658 C1610 0.929 . S
H1659 C1611 0.930 . S
H1660 C1618 0.929 . S
H1661 C1619 0.930 1_554 S
H1662 C1620 0.930 . S
H1663 C1621 0.930 . S
H1664 C1623 0.929 . S
H1665 C1624 0.930 . S
H1666 C1625 0.930 . S
H1667 C1626 0.930 . S
H1668 C1630 0.929 . S
H1669 C1632 0.930 . S
H1670 C1638 0.929 . S
H1671 C1639 0.930 . S
Li1672 N1689 1.990 . S
Li1672 O1732 1.956 . S
Li1672 O1733 1.961 1_556 S
Li1672 O1734 1.961 . S
Li1673 N1697 1.990 . S
Li1673 O1732 1.970 1_554 S
Li1673 O1733 1.959 . S
Li1673 O1735 1.961 1_554 S
Li1674 N1719 1.990 . S
Li1674 O1732 1.961 . S
Li1674 O1734 1.956 . S
Li1674 O1735 1.970 . S
Li1675 N1725 1.990 . S
Li1675 O1733 1.945 1_556 S
Li1675 O1734 1.970 . S
Li1675 O1735 1.956 . S
C1676 C1678 1.348 1_556 S
C1676 C1679 1.356 . S
C1676 O1732 1.325 . S
N1677 C1680 1.314 . S
N1677 C1681 1.279 1_554 S
C1678 C1676 1.348 1_554 S
C1678 C1680 1.353 . S
C1678 H1736 0.929 . S
C1679 C1676 1.356 . S
C1679 C1681 1.358 . S
C1679 H1737 0.930 . S
C1680 N1677 1.314 . S
C1680 C1678 1.353 . S
C1680 H1738 0.930 . S
C1681 N1677 1.279 1_556 S
C1681 C1679 1.358 . S
C1681 H1739 0.930 . S
C1682 C1685 1.348 . S
C1682 C1686 1.356 . S
C1682 O1733 1.338 . S
C1683 N1684 1.279 . S
C1683 C1686 1.358 . S
C1683 H1740 0.930 . S
N1684 C1683 1.279 . S
N1684 C1687 1.314 . S
C1685 C1682 1.348 . S
C1685 C1687 1.353 . S
C1685 H1741 0.929 . S
C1686 C1682 1.356 . S
C1686 C1683 1.358 . S
C1686 H1742 0.930 . S
C1687 N1684 1.314 . S
C1687 C1685 1.353 . S
C1687 H1743 0.930 . S
C1688 N1689 1.314 . S
C1688 C1693 1.353 . S
C1688 H1694 0.930 . S
N1689 Li1672 1.990 . S
N1689 C1688 1.314 . S
N1689 C1691 1.279 . S
C1690 C1691 1.358 1_554 S
C1690 C1692 1.356 1_554 S
C1690 H1744 0.930 . S
C1691 N1689 1.279 . S
C1691 C1690 1.358 1_556 S
C1691 H1695 0.930 1_556 S
C1692 C1690 1.356 1_556 S
C1692 C1693 1.348 . S
C1693 C1688 1.353 . S
C1693 C1692 1.348 . S
C1693 H1745 0.929 . S
H1694 C1688 0.930 . S
H1695 C1691 0.930 1_554 S
C1696 N1697 1.314 . S
C1696 C1698 1.353 . S
C1696 H1702 0.930 . S
N1697 Li1673 1.990 . S
N1697 C1696 1.314 . S
N1697 C1700 1.279 . S
C1698 C1696 1.353 . S
C1698 C1701 1.348 . S
C1698 H1746 0.929 . S
C1699 C1700 1.358 . S
C1699 C1701 1.356 . S
C1699 H1747 0.930 . S
C1700 N1697 1.279 . S
C1700 C1699 1.358 . S
C1700 H1703 0.930 . S
C1701 C1698 1.348 . S
C1701 C1699 1.356 . S
H1702 C1696 0.930 . S
H1703 C1700 0.930 . S
C1704 C1706 1.348 . S
C1704 C1707 1.356 . S
C1704 O1734 1.325 . S
N1705 C1708 1.314 . S
N1705 C1709 1.279 . S
C1706 C1704 1.348 . S
C1706 C1708 1.353 . S
C1706 H1748 0.929 . S
C1707 C1704 1.356 . S
C1707 C1709 1.358 . S
C1707 H1749 0.930 . S
C1708 N1705 1.314 . S
C1708 C1706 1.353 . S
C1708 H1750 0.930 . S
C1709 N1705 1.279 . S
C1709 C1707 1.358 . S
C1709 H1751 0.930 . S
C1710 C1711 1.348 . S
C1710 C1712 1.356 . S
C1710 O1735 1.325 . S
C1711 C1710 1.348 . S
C1711 C1713 1.353 . S
C1711 H1752 0.929 . S
C1712 C1710 1.356 . S
C1712 C1714 1.358 . S
C1712 H1753 0.930 1_556 S
C1713 C1711 1.353 . S
C1713 N1715 1.314 . S
C1713 H1754 0.930 . S
C1714 C1712 1.358 . S
C1714 N1715 1.279 . S
C1714 H1755 0.930 . S
N1715 C1713 1.314 . S
N1715 C1714 1.279 . S
C1716 C1718 1.353 . S
C1716 N1719 1.314 . S
C1716 H1722 0.930 . S
C1717 N1719 1.279 . S
C1717 C1720 1.358 . S
C1717 H1723 0.930 . S
C1718 C1716 1.353 . S
C1718 C1721 1.348 . S
C1718 H1756 0.929 . S
N1719 Li1674 1.990 . S
N1719 C1716 1.314 . S
N1719 C1717 1.279 . S
C1720 C1717 1.358 . S
C1720 C1721 1.356 . S
C1720 H1757 0.930 . S
C1721 C1718 1.348 . S
C1721 C1720 1.356 . S
H1722 C1716 0.930 . S
H1723 C1717 0.930 . S
C1724 N1725 1.314 . S
C1724 C1726 1.353 . S
C1724 H1730 0.930 . S
N1725 Li1675 1.990 . S
N1725 C1724 1.314 . S
N1725 C1728 1.279 . S
C1726 C1724 1.353 . S
C1726 C1729 1.348 . S
C1726 H1758 0.929 . S
C1727 C1728 1.358 . S
C1727 C1729 1.356 . S
C1727 H1759 0.930 . S
C1728 N1725 1.279 . S
C1728 C1727 1.358 . S
C1728 H1731 0.930 . S
C1729 C1726 1.348 . S
C1729 C1727 1.356 . S
H1730 C1724 0.930 . S
H1731 C1728 0.930 . S
O1732 Li1672 1.956 . S
O1732 Li1673 1.970 1_556 S
O1732 Li1674 1.961 . S
O1732 C1676 1.325 . S
O1733 Li1672 1.961 1_554 S
O1733 Li1673 1.959 . S
O1733 Li1675 1.945 1_554 S
O1733 C1682 1.338 . S
O1734 Li1672 1.961 . S
O1734 Li1674 1.956 . S
O1734 Li1675 1.970 . S
O1734 C1704 1.325 . S
O1735 Li1673 1.961 1_556 S
O1735 Li1674 1.970 . S
O1735 Li1675 1.956 . S
O1735 C1710 1.325 . S
H1736 C1678 0.929 . S
H1737 C1679 0.930 . S
H1738 C1680 0.930 . S
H1739 C1681 0.930 . S
H1740 C1683 0.930 . S
H1741 C1685 0.929 . S
H1742 C1686 0.930 . S
H1743 C1687 0.930 . S
H1744 C1690 0.930 . S
H1745 C1693 0.929 . S
H1746 C1698 0.929 . S
H1747 C1699 0.930 . S
H1748 C1706 0.929 . S
H1749 C1707 0.930 . S
H1750 C1708 0.930 . S
H1751 C1709 0.930 . S
H1752 C1711 0.929 . S
H1753 C1712 0.930 1_554 S
H1754 C1713 0.930 . S
H1755 C1714 0.930 . S
H1756 C1718 0.929 . S
H1757 C1720 0.930 . S
H1758 C1726 0.929 . S
H1759 C1727 0.930 . S
Li1760 N1777 1.990 . S
Li1760 O1820 1.956 . S
Li1760 O1821 1.961 1_556 S
Li1760 O1822 1.961 . S
Li1761 N1785 1.990 . S
Li1761 O1820 1.970 1_554 S
Li1761 O1821 1.959 . S
Li1761 O1823 1.961 1_554 S
Li1762 N1807 1.990 . S
Li1762 O1820 1.961 . S
Li1762 O1822 1.956 . S
Li1762 O1823 1.970 . S
Li1763 N1813 1.990 . S
Li1763 O1821 1.945 1_556 S
Li1763 O1822 1.970 . S
Li1763 O1823 1.956 . S
C1764 C1766 1.348 1_556 S
C1764 C1767 1.356 . S
C1764 O1820 1.325 . S
N1765 C1768 1.314 . S
N1765 C1769 1.279 1_554 S
C1766 C1764 1.348 1_554 S
C1766 C1768 1.353 . S
C1766 H1824 0.929 . S
C1767 C1764 1.356 . S
C1767 C1769 1.358 . S
C1767 H1825 0.930 . S
C1768 N1765 1.314 . S
C1768 C1766 1.353 . S
C1768 H1826 0.930 . S
C1769 N1765 1.279 1_556 S
C1769 C1767 1.358 . S
C1769 H1827 0.930 . S
C1770 C1773 1.348 . S
C1770 C1774 1.356 . S
C1770 O1821 1.338 . S
C1771 N1772 1.279 . S
C1771 C1774 1.358 . S
C1771 H1828 0.930 . S
N1772 C1771 1.279 . S
N1772 C1775 1.314 . S
C1773 C1770 1.348 . S
C1773 C1775 1.353 . S
C1773 H1829 0.929 . S
C1774 C1770 1.356 . S
C1774 C1771 1.358 . S
C1774 H1830 0.930 . S
C1775 N1772 1.314 . S
C1775 C1773 1.353 . S
C1775 H1831 0.930 . S
C1776 N1777 1.314 . S
C1776 C1781 1.353 . S
C1776 H1782 0.930 . S
N1777 Li1760 1.990 . S
N1777 C1776 1.314 . S
N1777 C1779 1.279 . S
C1778 C1779 1.358 1_554 S
C1778 C1780 1.356 1_554 S
C1778 H1832 0.930 . S
C1779 N1777 1.279 . S
C1779 C1778 1.358 1_556 S
C1779 H1783 0.930 1_556 S
C1780 C1778 1.356 1_556 S
C1780 C1781 1.348 . S
C1781 C1776 1.353 . S
C1781 C1780 1.348 . S
C1781 H1833 0.929 . S
H1782 C1776 0.930 . S
H1783 C1779 0.930 1_554 S
C1784 N1785 1.314 . S
C1784 C1786 1.353 . S
C1784 H1790 0.930 . S
N1785 Li1761 1.990 . S
N1785 C1784 1.314 . S
N1785 C1788 1.279 . S
C1786 C1784 1.353 . S
C1786 C1789 1.348 . S
C1786 H1834 0.929 . S
C1787 C1788 1.358 . S
C1787 C1789 1.356 . S
C1787 H1835 0.930 . S
C1788 N1785 1.279 . S
C1788 C1787 1.358 . S
C1788 H1791 0.930 . S
C1789 C1786 1.348 . S
C1789 C1787 1.356 . S
H1790 C1784 0.930 . S
H1791 C1788 0.930 . S
C1792 C1794 1.348 . S
C1792 C1795 1.356 . S
C1792 O1822 1.325 . S
N1793 C1796 1.314 . S
N1793 C1797 1.279 . S
C1794 C1792 1.348 . S
C1794 C1796 1.353 . S
C1794 H1836 0.929 . S
C1795 C1792 1.356 . S
C1795 C1797 1.358 . S
C1795 H1837 0.930 . S
C1796 N1793 1.314 . S
C1796 C1794 1.353 . S
C1796 H1838 0.930 . S
C1797 N1793 1.279 . S
C1797 C1795 1.358 . S
C1797 H1839 0.930 . S
C1798 C1799 1.348 . S
C1798 C1800 1.356 . S
C1798 O1823 1.325 . S
C1799 C1798 1.348 . S
C1799 C1801 1.353 . S
C1799 H1840 0.929 . S
C1800 C1798 1.356 . S
C1800 C1802 1.358 . S
C1800 H1841 0.930 1_556 S
C1801 C1799 1.353 . S
C1801 N1803 1.314 . S
C1801 H1842 0.930 . S
C1802 C1800 1.358 . S
C1802 N1803 1.279 . S
C1802 H1843 0.930 . S
N1803 C1801 1.314 . S
N1803 C1802 1.279 . S
C1804 C1806 1.353 . S
C1804 N1807 1.314 . S
C1804 H1810 0.930 . S
C1805 N1807 1.279 . S
C1805 C1808 1.358 . S
C1805 H1811 0.930 . S
C1806 C1804 1.353 . S
C1806 C1809 1.348 . S
C1806 H1844 0.929 . S
N1807 Li1762 1.990 . S
N1807 C1804 1.314 . S
N1807 C1805 1.279 . S
C1808 C1805 1.358 . S
C1808 C1809 1.356 . S
C1808 H1845 0.930 . S
C1809 C1806 1.348 . S
C1809 C1808 1.356 . S
H1810 C1804 0.930 . S
H1811 C1805 0.930 . S
C1812 N1813 1.314 . S
C1812 C1814 1.353 . S
C1812 H1818 0.930 . S
N1813 Li1763 1.990 . S
N1813 C1812 1.314 . S
N1813 C1816 1.279 . S
C1814 C1812 1.353 . S
C1814 C1817 1.348 . S
C1814 H1846 0.929 . S
C1815 C1816 1.358 . S
C1815 C1817 1.356 . S
C1815 H1847 0.930 . S
C1816 N1813 1.279 . S
C1816 C1815 1.358 . S
C1816 H1819 0.930 . S
C1817 C1814 1.348 . S
C1817 C1815 1.356 . S
H1818 C1812 0.930 . S
H1819 C1816 0.930 . S
O1820 Li1760 1.956 . S
O1820 Li1761 1.970 1_556 S
O1820 Li1762 1.961 . S
O1820 C1764 1.325 . S
O1821 Li1760 1.961 1_554 S
O1821 Li1761 1.959 . S
O1821 Li1763 1.945 1_554 S
O1821 C1770 1.338 . S
O1822 Li1760 1.961 . S
O1822 Li1762 1.956 . S
O1822 Li1763 1.970 . S
O1822 C1792 1.325 . S
O1823 Li1761 1.961 1_556 S
O1823 Li1762 1.970 . S
O1823 Li1763 1.956 . S
O1823 C1798 1.325 . S
H1824 C1766 0.929 . S
H1825 C1767 0.930 . S
H1826 C1768 0.930 . S
H1827 C1769 0.930 . S
H1828 C1771 0.930 . S
H1829 C1773 0.929 . S
H1830 C1774 0.930 . S
H1831 C1775 0.930 . S
H1832 C1778 0.930 . S
H1833 C1781 0.929 . S
H1834 C1786 0.929 . S
H1835 C1787 0.930 . S
H1836 C1794 0.929 . S
H1837 C1795 0.930 . S
H1838 C1796 0.930 . S
H1839 C1797 0.930 . S
H1840 C1799 0.929 . S
H1841 C1800 0.930 1_554 S
H1842 C1801 0.930 . S
H1843 C1802 0.930 . S
H1844 C1806 0.929 . S
H1845 C1808 0.930 . S
H1846 C1814 0.929 . S
H1847 C1815 0.930 . S
Li1848 N1865 1.990 . S
Li1848 O1908 1.956 . S
Li1848 O1909 1.970 . S
Li1848 O1910 1.961 . S
Li1849 N1873 1.990 . S
Li1849 O1908 1.970 . S
Li1849 O1909 1.956 . S
Li1849 O1911 1.945 1_554 S
Li1850 N1895 1.990 . S
Li1850 O1908 1.961 . S
Li1850 O1910 1.956 . S
Li1850 O1911 1.961 1_554 S
Li1851 N1901 1.990 . S
Li1851 O1909 1.961 1_556 S
Li1851 O1910 1.970 1_556 S
Li1851 O1911 1.959 . S
C1852 C1854 1.348 . S
C1852 C1855 1.356 . S
C1852 O1908 1.325 . S
N1853 C1856 1.314 . S
N1853 C1857 1.279 . S
C1854 C1852 1.348 . S
C1854 C1856 1.353 . S
C1854 H1912 0.929 . S
C1855 C1852 1.356 . S
C1855 C1857 1.358 . S
C1855 H1913 0.930 . S
C1856 N1853 1.314 . S
C1856 C1854 1.353 . S
C1856 H1914 0.930 . S
C1857 N1853 1.279 . S
C1857 C1855 1.358 . S
C1857 H1915 0.930 . S
C1858 C1861 1.348 . S
C1858 C1862 1.356 . S
C1858 O1909 1.325 . S
C1859 N1860 1.279 . S
C1859 C1862 1.358 . S
C1859 H1916 0.930 . S
N1860 C1859 1.279 . S
N1860 C1863 1.314 . S
C1861 C1858 1.348 . S
C1861 C1863 1.353 . S
C1861 H1917 0.929 . S
C1862 C1858 1.356 . S
C1862 C1859 1.358 . S
C1862 H1918 0.930 1_554 S
C1863 N1860 1.314 . S
C1863 C1861 1.353 . S
C1863 H1919 0.930 . S
C1864 N1865 1.314 . S
C1864 C1869 1.353 . S
C1864 H1870 0.930 . S
N1865 Li1848 1.990 . S
N1865 C1864 1.314 . S
N1865 C1867 1.279 . S
C1866 C1867 1.358 . S
C1866 C1868 1.356 . S
C1866 H1920 0.930 . S
C1867 N1865 1.279 . S
C1867 C1866 1.358 . S
C1867 H1871 0.930 . S
C1868 C1866 1.356 . S
C1868 C1869 1.348 . S
C1869 C1864 1.353 . S
C1869 C1868 1.348 . S
C1869 H1921 0.929 . S
H1870 C1864 0.930 . S
H1871 C1867 0.930 . S
C1872 N1873 1.314 . S
C1872 C1874 1.353 . S
C1872 H1878 0.930 . S
N1873 Li1849 1.990 . S
N1873 C1872 1.314 . S
N1873 C1876 1.279 . S
C1874 C1872 1.353 . S
C1874 C1877 1.348 . S
C1874 H1922 0.929 . S
C1875 C1876 1.358 . S
C1875 C1877 1.356 . S
C1875 H1923 0.930 . S
C1876 N1873 1.279 . S
C1876 C1875 1.358 . S
C1876 H1879 0.930 . S
C1877 C1874 1.348 . S
C1877 C1875 1.356 . S
H1878 C1872 0.930 . S
H1879 C1876 0.930 . S
C1880 C1882 1.348 1_554 S
C1880 C1883 1.356 . S
C1880 O1910 1.325 . S
N1881 C1884 1.314 . S
N1881 C1885 1.279 1_556 S
C1882 C1880 1.348 1_556 S
C1882 C1884 1.353 . S
C1882 H1924 0.929 . S
C1883 C1880 1.356 . S
C1883 C1885 1.358 . S
C1883 H1925 0.930 . S
C1884 N1881 1.314 . S
C1884 C1882 1.353 . S
C1884 H1926 0.930 . S
C1885 N1881 1.279 1_554 S
C1885 C1883 1.358 . S
C1885 H1927 0.930 . S
C1886 C1887 1.348 . S
C1886 C1888 1.356 . S
C1886 O1911 1.338 . S
C1887 C1886 1.348 . S
C1887 C1889 1.353 . S
C1887 H1928 0.929 . S
C1888 C1886 1.356 . S
C1888 C1890 1.358 . S
C1888 H1929 0.930 . S
C1889 C1887 1.353 . S
C1889 N1891 1.314 . S
C1889 H1930 0.930 . S
C1890 C1888 1.358 . S
C1890 N1891 1.279 . S
C1890 H1931 0.930 . S
N1891 C1889 1.314 . S
N1891 C1890 1.279 . S
C1892 C1894 1.353 . S
C1892 N1895 1.314 . S
C1892 H1898 0.930 . S
C1893 N1895 1.279 . S
C1893 C1896 1.358 1_554 S
C1893 H1899 0.930 1_554 S
C1894 C1892 1.353 . S
C1894 C1897 1.348 . S
C1894 H1932 0.929 . S
N1895 Li1850 1.990 . S
N1895 C1892 1.314 . S
N1895 C1893 1.279 . S
C1896 C1893 1.358 1_556 S
C1896 C1897 1.356 1_556 S
C1896 H1933 0.930 . S
C1897 C1894 1.348 . S
C1897 C1896 1.356 1_554 S
H1898 C1892 0.930 . S
H1899 C1893 0.930 1_556 S
C1900 N1901 1.314 . S
C1900 C1902 1.353 . S
C1900 H1906 0.930 . S
N1901 Li1851 1.990 . S
N1901 C1900 1.314 . S
N1901 C1904 1.279 . S
C1902 C1900 1.353 . S
C1902 C1905 1.348 . S
C1902 H1934 0.929 . S
C1903 C1904 1.358 . S
C1903 C1905 1.356 . S
C1903 H1935 0.930 . S
C1904 N1901 1.279 . S
C1904 C1903 1.358 . S
C1904 H1907 0.930 . S
C1905 C1902 1.348 . S
C1905 C1903 1.356 . S
H1906 C1900 0.930 . S
H1907 C1904 0.930 . S
O1908 Li1848 1.956 . S
O1908 Li1849 1.970 . S
O1908 Li1850 1.961 . S
O1908 C1852 1.325 . S
O1909 Li1848 1.970 . S
O1909 Li1849 1.956 . S
O1909 Li1851 1.961 1_554 S
O1909 C1858 1.325 . S
O1910 Li1848 1.961 . S
O1910 Li1850 1.956 . S
O1910 Li1851 1.970 1_554 S
O1910 C1880 1.325 . S
O1911 Li1849 1.945 1_556 S
O1911 Li1850 1.961 1_556 S
O1911 Li1851 1.959 . S
O1911 C1886 1.338 . S
H1912 C1854 0.929 . S
H1913 C1855 0.930 . S
H1914 C1856 0.930 . S
H1915 C1857 0.930 . S
H1916 C1859 0.930 . S
H1917 C1861 0.929 . S
H1918 C1862 0.930 1_556 S
H1919 C1863 0.930 . S
H1920 C1866 0.930 . S
H1921 C1869 0.929 . S
H1922 C1874 0.929 . S
H1923 C1875 0.930 . S
H1924 C1882 0.929 . S
H1925 C1883 0.930 . S
H1926 C1884 0.930 . S
H1927 C1885 0.930 . S
H1928 C1887 0.929 . S
H1929 C1888 0.930 . S
H1930 C1889 0.930 . S
H1931 C1890 0.930 . S
H1932 C1894 0.929 . S
H1933 C1896 0.930 . S
H1934 C1902 0.929 . S
H1935 C1903 0.930 . S
Li1936 N1953 1.990 . S
Li1936 O1996 1.956 . S
Li1936 O1997 1.970 . S
Li1936 O1998 1.961 . S
Li1937 N1961 1.990 . S
Li1937 O1996 1.970 . S
Li1937 O1997 1.956 . S
Li1937 O1999 1.945 1_554 S
Li1938 N1983 1.990 . S
Li1938 O1996 1.961 . S
Li1938 O1998 1.956 . S
Li1938 O1999 1.961 1_554 S
Li1939 N1989 1.990 . S
Li1939 O1997 1.961 1_556 S
Li1939 O1998 1.970 1_556 S
Li1939 O1999 1.959 . S
C1940 C1942 1.348 . S
C1940 C1943 1.356 . S
C1940 O1996 1.325 . S
N1941 C1944 1.314 . S
N1941 C1945 1.279 . S
C1942 C1940 1.348 . S
C1942 C1944 1.353 . S
C1942 H2000 0.929 . S
C1943 C1940 1.356 . S
C1943 C1945 1.358 . S
C1943 H2001 0.930 . S
C1944 N1941 1.314 . S
C1944 C1942 1.353 . S
C1944 H2002 0.930 . S
C1945 N1941 1.279 . S
C1945 C1943 1.358 . S
C1945 H2003 0.930 . S
C1946 C1949 1.348 . S
C1946 C1950 1.356 . S
C1946 O1997 1.325 . S
C1947 N1948 1.279 . S
C1947 C1950 1.358 . S
C1947 H2004 0.930 . S
N1948 C1947 1.279 . S
N1948 C1951 1.314 . S
C1949 C1946 1.348 . S
C1949 C1951 1.353 . S
C1949 H2005 0.929 . S
C1950 C1946 1.356 . S
C1950 C1947 1.358 . S
C1950 H2006 0.930 1_554 S
C1951 N1948 1.314 . S
C1951 C1949 1.353 . S
C1951 H2007 0.930 . S
C1952 N1953 1.314 . S
C1952 C1957 1.353 . S
C1952 H1958 0.930 . S
N1953 Li1936 1.990 . S
N1953 C1952 1.314 . S
N1953 C1955 1.279 . S
C1954 C1955 1.358 . S
C1954 C1956 1.356 . S
C1954 H2008 0.930 . S
C1955 N1953 1.279 . S
C1955 C1954 1.358 . S
C1955 H1959 0.930 . S
C1956 C1954 1.356 . S
C1956 C1957 1.348 . S
C1957 C1952 1.353 . S
C1957 C1956 1.348 . S
C1957 H2009 0.929 . S
H1958 C1952 0.930 . S
H1959 C1955 0.930 . S
C1960 N1961 1.314 . S
C1960 C1962 1.353 . S
C1960 H1966 0.930 . S
N1961 Li1937 1.990 . S
N1961 C1960 1.314 . S
N1961 C1964 1.279 . S
C1962 C1960 1.353 . S
C1962 C1965 1.348 . S
C1962 H2010 0.929 . S
C1963 C1964 1.358 . S
C1963 C1965 1.356 . S
C1963 H2011 0.930 . S
C1964 N1961 1.279 . S
C1964 C1963 1.358 . S
C1964 H1967 0.930 . S
C1965 C1962 1.348 . S
C1965 C1963 1.356 . S
H1966 C1960 0.930 . S
H1967 C1964 0.930 . S
C1968 C1970 1.348 1_554 S
C1968 C1971 1.356 . S
C1968 O1998 1.325 . S
N1969 C1972 1.314 . S
N1969 C1973 1.279 1_556 S
C1970 C1968 1.348 1_556 S
C1970 C1972 1.353 . S
C1970 H2012 0.929 . S
C1971 C1968 1.356 . S
C1971 C1973 1.358 . S
C1971 H2013 0.930 . S
C1972 N1969 1.314 . S
C1972 C1970 1.353 . S
C1972 H2014 0.930 . S
C1973 N1969 1.279 1_554 S
C1973 C1971 1.358 . S
C1973 H2015 0.930 . S
C1974 C1975 1.348 . S
C1974 C1976 1.356 . S
C1974 O1999 1.338 . S
C1975 C1974 1.348 . S
C1975 C1977 1.353 . S
C1975 H2016 0.929 . S
C1976 C1974 1.356 . S
C1976 C1978 1.358 . S
C1976 H2017 0.930 . S
C1977 C1975 1.353 . S
C1977 N1979 1.314 . S
C1977 H2018 0.930 . S
C1978 C1976 1.358 . S
C1978 N1979 1.279 . S
C1978 H2019 0.930 . S
N1979 C1977 1.314 . S
N1979 C1978 1.279 . S
C1980 C1982 1.353 . S
C1980 N1983 1.314 . S
C1980 H1986 0.930 . S
C1981 N1983 1.279 . S
C1981 C1984 1.358 1_554 S
C1981 H1987 0.930 1_554 S
C1982 C1980 1.353 . S
C1982 C1985 1.348 . S
C1982 H2020 0.929 . S
N1983 Li1938 1.990 . S
N1983 C1980 1.314 . S
N1983 C1981 1.279 . S
C1984 C1981 1.358 1_556 S
C1984 C1985 1.356 1_556 S
C1984 H2021 0.930 . S
C1985 C1982 1.348 . S
C1985 C1984 1.356 1_554 S
H1986 C1980 0.930 . S
H1987 C1981 0.930 1_556 S
C1988 N1989 1.314 . S
C1988 C1990 1.353 . S
C1988 H1994 0.930 . S
N1989 Li1939 1.990 . S
N1989 C1988 1.314 . S
N1989 C1992 1.279 . S
C1990 C1988 1.353 . S
C1990 C1993 1.348 . S
C1990 H2022 0.929 . S
C1991 C1992 1.358 . S
C1991 C1993 1.356 . S
C1991 H2023 0.930 . S
C1992 N1989 1.279 . S
C1992 C1991 1.358 . S
C1992 H1995 0.930 . S
C1993 C1990 1.348 . S
C1993 C1991 1.356 . S
H1994 C1988 0.930 . S
H1995 C1992 0.930 . S
O1996 Li1936 1.956 . S
O1996 Li1937 1.970 . S
O1996 Li1938 1.961 . S
O1996 C1940 1.325 . S
O1997 Li1936 1.970 . S
O1997 Li1937 1.956 . S
O1997 Li1939 1.961 1_554 S
O1997 C1946 1.325 . S
O1998 Li1936 1.961 . S
O1998 Li1938 1.956 . S
O1998 Li1939 1.970 1_554 S
O1998 C1968 1.325 . S
O1999 Li1937 1.945 1_556 S
O1999 Li1938 1.961 1_556 S
O1999 Li1939 1.959 . S
O1999 C1974 1.338 . S
H2000 C1942 0.929 . S
H2001 C1943 0.930 . S
H2002 C1944 0.930 . S
H2003 C1945 0.930 . S
H2004 C1947 0.930 . S
H2005 C1949 0.929 . S
H2006 C1950 0.930 1_556 S
H2007 C1951 0.930 . S
H2008 C1954 0.930 . S
H2009 C1957 0.929 . S
H2010 C1962 0.929 . S
H2011 C1963 0.930 . S
H2012 C1970 0.929 . S
H2013 C1971 0.930 . S
H2014 C1972 0.930 . S
H2015 C1973 0.930 . S
H2016 C1975 0.929 . S
H2017 C1976 0.930 . S
H2018 C1977 0.930 . S
H2019 C1978 0.930 . S
H2020 C1982 0.929 . S
H2021 C1984 0.930 . S
H2022 C1990 0.929 . S
H2023 C1991 0.930 . S
Li2024 N2041 1.990 . S
Li2024 O2084 1.956 . S
Li2024 O2085 1.970 . S
Li2024 O2086 1.945 1_554 S
Li2025 N2049 1.990 . S
Li2025 O2084 1.970 . S
Li2025 O2085 1.956 . S
Li2025 O2087 1.961 . S
Li2026 N2071 1.990 . S
Li2026 O2084 1.961 1_556 S
Li2026 O2086 1.959 . S
Li2026 O2087 1.970 1_556 S
Li2027 N2077 1.990 . S
Li2027 O2085 1.961 . S
Li2027 O2086 1.961 1_554 S
Li2027 O2087 1.956 . S
C2028 C2030 1.348 . S
C2028 C2031 1.356 . S
C2028 O2084 1.325 . S
N2029 C2032 1.314 . S
N2029 C2033 1.279 . S
C2030 C2028 1.348 . S
C2030 C2032 1.353 . S
C2030 H2088 0.929 . S
C2031 C2028 1.356 . S
C2031 C2033 1.358 . S
C2031 H2089 0.930 1_554 S
C2032 N2029 1.314 . S
C2032 C2030 1.353 . S
C2032 H2090 0.930 . S
C2033 N2029 1.279 . S
C2033 C2031 1.358 . S
C2033 H2091 0.930 . S
C2034 C2037 1.348 . S
C2034 C2038 1.356 . S
C2034 O2085 1.325 . S
C2035 N2036 1.279 . S
C2035 C2038 1.358 . S
C2035 H2092 0.930 . S
N2036 C2035 1.279 . S
N2036 C2039 1.314 . S
C2037 C2034 1.348 . S
C2037 C2039 1.353 . S
C2037 H2093 0.929 . S
C2038 C2034 1.356 . S
C2038 C2035 1.358 . S
C2038 H2094 0.930 . S
C2039 N2036 1.314 . S
C2039 C2037 1.353 . S
C2039 H2095 0.930 . S
C2040 N2041 1.314 . S
C2040 C2045 1.353 . S
C2040 H2046 0.930 . S
N2041 Li2024 1.990 . S
N2041 C2040 1.314 . S
N2041 C2043 1.279 . S
C2042 C2043 1.358 . S
C2042 C2044 1.356 . S
C2042 H2096 0.930 . S
C2043 N2041 1.279 . S
C2043 C2042 1.358 . S
C2043 H2047 0.930 . S
C2044 C2042 1.356 . S
C2044 C2045 1.348 . S
C2045 C2040 1.353 . S
C2045 C2044 1.348 . S
C2045 H2097 0.929 . S
H2046 C2040 0.930 . S
H2047 C2043 0.930 . S
C2048 N2049 1.314 . S
C2048 C2050 1.353 . S
C2048 H2054 0.930 . S
N2049 Li2025 1.990 . S
N2049 C2048 1.314 . S
N2049 C2052 1.279 . S
C2050 C2048 1.353 . S
C2050 C2053 1.348 . S
C2050 H2098 0.929 . S
C2051 C2052 1.358 . S
C2051 C2053 1.356 . S
C2051 H2099 0.930 . S
C2052 N2049 1.279 . S
C2052 C2051 1.358 . S
C2052 H2055 0.930 . S
C2053 C2050 1.348 . S
C2053 C2051 1.356 . S
H2054 C2048 0.930 . S
H2055 C2052 0.930 . S
C2056 C2058 1.348 . S
C2056 C2059 1.356 . S
C2056 O2086 1.338 . S
N2057 C2060 1.314 . S
N2057 C2061 1.279 . S
C2058 C2056 1.348 . S
C2058 C2060 1.353 . S
C2058 H2100 0.929 . S
C2059 C2056 1.356 . S
C2059 C2061 1.358 . S
C2059 H2101 0.930 . S
C2060 N2057 1.314 . S
C2060 C2058 1.353 . S
C2060 H2102 0.930 . S
C2061 N2057 1.279 . S
C2061 C2059 1.358 . S
C2061 H2103 0.930 . S
C2062 C2063 1.348 1_554 S
C2062 C2064 1.356 . S
C2062 O2087 1.325 . S
C2063 C2062 1.348 1_556 S
C2063 C2065 1.353 . S
C2063 H2104 0.929 . S
C2064 C2062 1.356 . S
C2064 C2066 1.358 . S
C2064 H2105 0.930 . S
C2065 C2063 1.353 . S
C2065 N2067 1.314 . S
C2065 H2106 0.930 . S
C2066 C2064 1.358 . S
C2066 N2067 1.279 1_554 S
C2066 H2107 0.930 . S
N2067 C2065 1.314 . S
N2067 C2066 1.279 1_556 S
C2068 C2070 1.353 . S
C2068 N2071 1.314 . S
C2068 H2074 0.930 . S
C2069 N2071 1.279 . S
C2069 C2072 1.358 . S
C2069 H2075 0.930 . S
C2070 C2068 1.353 . S
C2070 C2073 1.348 . S
C2070 H2108 0.929 . S
N2071 Li2026 1.990 . S
N2071 C2068 1.314 . S
N2071 C2069 1.279 . S
C2072 C2069 1.358 . S
C2072 C2073 1.356 . S
C2072 H2109 0.930 . S
C2073 C2070 1.348 . S
C2073 C2072 1.356 . S
H2074 C2068 0.930 . S
H2075 C2069 0.930 . S
C2076 N2077 1.314 . S
C2076 C2078 1.353 . S
C2076 H2082 0.930 . S
N2077 Li2027 1.990 . S
N2077 C2076 1.314 . S
N2077 C2080 1.279 . S
C2078 C2076 1.353 . S
C2078 C2081 1.348 . S
C2078 H2110 0.929 . S
C2079 C2080 1.358 1_556 S
C2079 C2081 1.356 1_556 S
C2079 H2111 0.930 . S
C2080 N2077 1.279 . S
C2080 C2079 1.358 1_554 S
C2080 H2083 0.930 1_554 S
C2081 C2078 1.348 . S
C2081 C2079 1.356 1_554 S
H2082 C2076 0.930 . S
H2083 C2080 0.930 1_556 S
O2084 Li2024 1.956 . S
O2084 Li2025 1.970 . S
O2084 Li2026 1.961 1_554 S
O2084 C2028 1.325 . S
O2085 Li2024 1.970 . S
O2085 Li2025 1.956 . S
O2085 Li2027 1.961 . S
O2085 C2034 1.325 . S
O2086 Li2024 1.945 1_556 S
O2086 Li2026 1.959 . S
O2086 Li2027 1.961 1_556 S
O2086 C2056 1.338 . S
O2087 Li2025 1.961 . S
O2087 Li2026 1.970 1_554 S
O2087 Li2027 1.956 . S
O2087 C2062 1.325 . S
H2088 C2030 0.929 . S
H2089 C2031 0.930 1_556 S
H2090 C2032 0.930 . S
H2091 C2033 0.930 . S
H2092 C2035 0.930 . S
H2093 C2037 0.929 . S
H2094 C2038 0.930 . S
H2095 C2039 0.930 . S
H2096 C2042 0.930 . S
H2097 C2045 0.929 . S
H2098 C2050 0.929 . S
H2099 C2051 0.930 . S
H2100 C2058 0.929 . S
H2101 C2059 0.930 . S
H2102 C2060 0.930 . S
H2103 C2061 0.930 . S
H2104 C2063 0.929 . S
H2105 C2064 0.930 . S
H2106 C2065 0.930 . S
H2107 C2066 0.930 . S
H2108 C2070 0.929 . S
H2109 C2072 0.930 . S
H2110 C2078 0.929 . S
H2111 C2079 0.930 . S
Li2112 N2129 1.990 . S
Li2112 O2172 1.956 . S
Li2112 O2173 1.970 . S
Li2112 O2174 1.961 . S
Li2113 N2137 1.990 . S
Li2113 O2172 1.970 . S
Li2113 O2173 1.956 . S
Li2113 O2175 1.961 . S
Li2114 N2159 1.990 . S
Li2114 O2172 1.961 . S
Li2114 O2174 1.956 . S
Li2114 O2175 1.970 . S
Li2115 N2165 1.990 . S
Li2115 O2173 1.961 . S
Li2115 O2174 1.970 . S
Li2115 O2175 1.956 . S
C2116 C2118 1.348 . S
C2116 C2119 1.356 . S
C2116 O2172 1.325 . S
N2117 C2120 1.314 . S
N2117 C2121 1.279 . S
C2118 C2116 1.348 . S
C2118 C2120 1.353 . S
C2118 H2176 0.929 . S
C2119 C2116 1.356 . S
C2119 C2121 1.358 . S
C2119 H2177 0.930 . S
C2120 N2117 1.314 . S
C2120 C2118 1.353 . S
C2120 H2178 0.930 . S
C2121 N2117 1.279 . S
C2121 C2119 1.358 . S
C2121 H2179 0.930 . S
C2122 C2125 1.348 . S
C2122 C2126 1.356 . S
C2122 O2173 1.325 . S
C2123 N2124 1.279 . S
C2123 C2126 1.358 . S
C2123 H2180 0.930 . S
N2124 C2123 1.279 . S
N2124 C2127 1.314 . S
C2125 C2122 1.348 . S
C2125 C2127 1.353 . S
C2125 H2181 0.929 . S
C2126 C2122 1.356 . S
C2126 C2123 1.358 . S
C2126 H2182 0.930 . S
C2127 N2124 1.314 . S
C2127 C2125 1.353 . S
C2127 H2183 0.930 . S
C2128 N2129 1.314 . S
C2128 C2133 1.353 . S
C2128 H2134 0.930 . S
N2129 Li2112 1.990 . S
N2129 C2128 1.314 . S
N2129 C2131 1.279 . S
C2130 C2131 1.358 . S
C2130 C2132 1.356 . S
C2130 H2184 0.930 . S
C2131 N2129 1.279 . S
C2131 C2130 1.358 . S
C2131 H2135 0.930 . S
C2132 C2130 1.356 . S
C2132 C2133 1.348 . S
C2133 C2128 1.353 . S
C2133 C2132 1.348 . S
C2133 H2185 0.929 . S
H2134 C2128 0.930 . S
H2135 C2131 0.930 . S
C2136 N2137 1.314 . S
C2136 C2138 1.353 . S
C2136 H2142 0.930 . S
N2137 Li2113 1.990 . S
N2137 C2136 1.314 . S
N2137 C2140 1.279 . S
C2138 C2136 1.353 . S
C2138 C2141 1.348 . S
C2138 H2186 0.929 . S
C2139 C2140 1.358 . S
C2139 C2141 1.356 . S
C2139 H2187 0.930 . S
C2140 N2137 1.279 . S
C2140 C2139 1.358 . S
C2140 H2143 0.930 . S
C2141 C2138 1.348 . S
C2141 C2139 1.356 . S
H2142 C2136 0.930 . S
H2143 C2140 0.930 . S
C2144 C2146 1.348 . S
C2144 C2147 1.356 . S
C2144 O2174 1.325 . S
N2145 C2148 1.314 . S
N2145 C2149 1.279 . S
C2146 C2144 1.348 . S
C2146 C2148 1.353 . S
C2146 H2188 0.929 . S
C2147 C2144 1.356 . S
C2147 C2149 1.358 . S
C2147 H2189 0.930 . S
C2148 N2145 1.314 . S
C2148 C2146 1.353 . S
C2148 H2190 0.930 . S
C2149 N2145 1.279 . S
C2149 C2147 1.358 . S
C2149 H2191 0.930 . S
C2150 C2151 1.348 . S
C2150 C2152 1.356 . S
C2150 O2175 1.325 . S
C2151 C2150 1.348 . S
C2151 C2153 1.353 . S
C2151 H2192 0.929 . S
C2152 C2150 1.356 . S
C2152 C2154 1.358 . S
C2152 H2193 0.930 . S
C2153 C2151 1.353 . S
C2153 N2155 1.314 . S
C2153 H2194 0.930 . S
C2154 C2152 1.358 . S
C2154 N2155 1.279 . S
C2154 H2195 0.930 . S
N2155 C2153 1.314 . S
N2155 C2154 1.279 . S
C2156 C2158 1.353 . S
C2156 N2159 1.314 . S
C2156 H2162 0.930 . S
C2157 N2159 1.279 . S
C2157 C2160 1.358 . S
C2157 H2163 0.930 . S
C2158 C2156 1.353 . S
C2158 C2161 1.348 . S
C2158 H2196 0.929 . S
N2159 Li2114 1.990 . S
N2159 C2156 1.314 . S
N2159 C2157 1.279 . S
C2160 C2157 1.358 . S
C2160 C2161 1.356 . S
C2160 H2197 0.930 . S
C2161 C2158 1.348 . S
C2161 C2160 1.356 . S
H2162 C2156 0.930 . S
H2163 C2157 0.930 . S
C2164 N2165 1.314 . S
C2164 C2166 1.353 . S
C2164 H2170 0.930 . S
N2165 Li2115 1.990 . S
N2165 C2164 1.314 . S
N2165 C2168 1.279 . S
C2166 C2164 1.353 . S
C2166 C2169 1.348 . S
C2166 H2198 0.929 . S
C2167 C2168 1.358 . S
C2167 C2169 1.356 . S
C2167 H2199 0.930 . S
C2168 N2165 1.279 . S
C2168 C2167 1.358 . S
C2168 H2171 0.930 . S
C2169 C2166 1.348 . S
C2169 C2167 1.356 . S
H2170 C2164 0.930 . S
H2171 C2168 0.930 . S
O2172 Li2112 1.956 . S
O2172 Li2113 1.970 . S
O2172 Li2114 1.961 . S
O2172 C2116 1.325 . S
O2173 Li2112 1.970 . S
O2173 Li2113 1.956 . S
O2173 Li2115 1.961 . S
O2173 C2122 1.325 . S
O2174 Li2112 1.961 . S
O2174 Li2114 1.956 . S
O2174 Li2115 1.970 . S
O2174 C2144 1.325 . S
O2175 Li2113 1.961 . S
O2175 Li2114 1.970 . S
O2175 Li2115 1.956 . S
O2175 C2150 1.325 . S
H2176 C2118 0.929 . S
H2177 C2119 0.930 . S
H2178 C2120 0.930 . S
H2179 C2121 0.930 . S
H2180 C2123 0.930 . S
H2181 C2125 0.929 . S
H2182 C2126 0.930 . S
H2183 C2127 0.930 . S
H2184 C2130 0.930 . S
H2185 C2133 0.929 . S
H2186 C2138 0.929 . S
H2187 C2139 0.930 . S
H2188 C2146 0.929 . S
H2189 C2147 0.930 . S
H2190 C2148 0.930 . S
H2191 C2149 0.930 . S
H2192 C2151 0.929 . S
H2193 C2152 0.930 . S
H2194 C2153 0.930 . S
H2195 C2154 0.930 . S
H2196 C2158 0.929 . S
H2197 C2160 0.930 . S
H2198 C2166 0.929 . S
H2199 C2167 0.930 . S
Li2200 N2217 1.990 . S
Li2200 O2260 1.956 . S
Li2200 O2261 1.970 . S
Li2200 O2262 1.961 . S
Li2201 N2225 1.990 . S
Li2201 O2260 1.970 . S
Li2201 O2261 1.956 . S
Li2201 O2263 1.961 . S
Li2202 N2247 1.990 . S
Li2202 O2260 1.961 . S
Li2202 O2262 1.956 . S
Li2202 O2263 1.970 . S
Li2203 N2253 1.990 . S
Li2203 O2261 1.961 . S
Li2203 O2262 1.970 . S
Li2203 O2263 1.956 . S
C2204 C2206 1.348 . S
C2204 C2207 1.356 . S
C2204 O2260 1.325 . S
N2205 C2208 1.314 . S
N2205 C2209 1.279 . S
C2206 C2204 1.348 . S
C2206 C2208 1.353 . S
C2206 H2264 0.929 . S
C2207 C2204 1.356 . S
C2207 C2209 1.358 . S
C2207 H2265 0.930 . S
C2208 N2205 1.314 . S
C2208 C2206 1.353 . S
C2208 H2266 0.930 . S
C2209 N2205 1.279 . S
C2209 C2207 1.358 . S
C2209 H2267 0.930 . S
C2210 C2213 1.348 . S
C2210 C2214 1.356 . S
C2210 O2261 1.325 . S
C2211 N2212 1.279 . S
C2211 C2214 1.358 . S
C2211 H2268 0.930 . S
N2212 C2211 1.279 . S
N2212 C2215 1.314 . S
C2213 C2210 1.348 . S
C2213 C2215 1.353 . S
C2213 H2269 0.929 . S
C2214 C2210 1.356 . S
C2214 C2211 1.358 . S
C2214 H2270 0.930 . S
C2215 N2212 1.314 . S
C2215 C2213 1.353 . S
C2215 H2271 0.930 . S
C2216 N2217 1.314 . S
C2216 C2221 1.353 . S
C2216 H2222 0.930 . S
N2217 Li2200 1.990 . S
N2217 C2216 1.314 . S
N2217 C2219 1.279 . S
C2218 C2219 1.358 . S
C2218 C2220 1.356 . S
C2218 H2272 0.930 . S
C2219 N2217 1.279 . S
C2219 C2218 1.358 . S
C2219 H2223 0.930 . S
C2220 C2218 1.356 . S
C2220 C2221 1.348 . S
C2221 C2216 1.353 . S
C2221 C2220 1.348 . S
C2221 H2273 0.929 . S
H2222 C2216 0.930 . S
H2223 C2219 0.930 . S
C2224 N2225 1.314 . S
C2224 C2226 1.353 . S
C2224 H2230 0.930 . S
N2225 Li2201 1.990 . S
N2225 C2224 1.314 . S
N2225 C2228 1.279 . S
C2226 C2224 1.353 . S
C2226 C2229 1.348 . S
C2226 H2274 0.929 . S
C2227 C2228 1.358 . S
C2227 C2229 1.356 . S
C2227 H2275 0.930 . S
C2228 N2225 1.279 . S
C2228 C2227 1.358 . S
C2228 H2231 0.930 . S
C2229 C2226 1.348 . S
C2229 C2227 1.356 . S
H2230 C2224 0.930 . S
H2231 C2228 0.930 . S
C2232 C2234 1.348 . S
C2232 C2235 1.356 . S
C2232 O2262 1.325 . S
N2233 C2236 1.314 . S
N2233 C2237 1.279 . S
C2234 C2232 1.348 . S
C2234 C2236 1.353 . S
C2234 H2276 0.929 . S
C2235 C2232 1.356 . S
C2235 C2237 1.358 . S
C2235 H2277 0.930 . S
C2236 N2233 1.314 . S
C2236 C2234 1.353 . S
C2236 H2278 0.930 . S
C2237 N2233 1.279 . S
C2237 C2235 1.358 . S
C2237 H2279 0.930 . S
C2238 C2239 1.348 . S
C2238 C2240 1.356 . S
C2238 O2263 1.325 . S
C2239 C2238 1.348 . S
C2239 C2241 1.353 . S
C2239 H2280 0.929 . S
C2240 C2238 1.356 . S
C2240 C2242 1.358 . S
C2240 H2281 0.930 . S
C2241 C2239 1.353 . S
C2241 N2243 1.314 . S
C2241 H2282 0.930 . S
C2242 C2240 1.358 . S
C2242 N2243 1.279 . S
C2242 H2283 0.930 . S
N2243 C2241 1.314 . S
N2243 C2242 1.279 . S
C2244 C2246 1.353 . S
C2244 N2247 1.314 . S
C2244 H2250 0.930 . S
C2245 N2247 1.279 . S
C2245 C2248 1.358 . S
C2245 H2251 0.930 . S
C2246 C2244 1.353 . S
C2246 C2249 1.348 . S
C2246 H2284 0.929 . S
N2247 Li2202 1.990 . S
N2247 C2244 1.314 . S
N2247 C2245 1.279 . S
C2248 C2245 1.358 . S
C2248 C2249 1.356 . S
C2248 H2285 0.930 . S
C2249 C2246 1.348 . S
C2249 C2248 1.356 . S
H2250 C2244 0.930 . S
H2251 C2245 0.930 . S
C2252 N2253 1.314 . S
C2252 C2254 1.353 . S
C2252 H2258 0.930 . S
N2253 Li2203 1.990 . S
N2253 C2252 1.314 . S
N2253 C2256 1.279 . S
C2254 C2252 1.353 . S
C2254 C2257 1.348 . S
C2254 H2286 0.929 . S
C2255 C2256 1.358 . S
C2255 C2257 1.356 . S
C2255 H2287 0.930 . S
C2256 N2253 1.279 . S
C2256 C2255 1.358 . S
C2256 H2259 0.930 . S
C2257 C2254 1.348 . S
C2257 C2255 1.356 . S
H2258 C2252 0.930 . S
H2259 C2256 0.930 . S
O2260 Li2200 1.956 . S
O2260 Li2201 1.970 . S
O2260 Li2202 1.961 . S
O2260 C2204 1.325 . S
O2261 Li2200 1.970 . S
O2261 Li2201 1.956 . S
O2261 Li2203 1.961 . S
O2261 C2210 1.325 . S
O2262 Li2200 1.961 . S
O2262 Li2202 1.956 . S
O2262 Li2203 1.970 . S
O2262 C2232 1.325 . S
O2263 Li2201 1.961 . S
O2263 Li2202 1.970 . S
O2263 Li2203 1.956 . S
O2263 C2238 1.325 . S
H2264 C2206 0.929 . S
H2265 C2207 0.930 . S
H2266 C2208 0.930 . S
H2267 C2209 0.930 . S
H2268 C2211 0.930 . S
H2269 C2213 0.929 . S
H2270 C2214 0.930 . S
H2271 C2215 0.930 . S
H2272 C2218 0.930 . S
H2273 C2221 0.929 . S
H2274 C2226 0.929 . S
H2275 C2227 0.930 . S
H2276 C2234 0.929 . S
H2277 C2235 0.930 . S
H2278 C2236 0.930 . S
H2279 C2237 0.930 . S
H2280 C2239 0.929 . S
H2281 C2240 0.930 . S
H2282 C2241 0.930 . S
H2283 C2242 0.930 . S
H2284 C2246 0.929 . S
H2285 C2248 0.930 . S
H2286 C2254 0.929 . S
H2287 C2255 0.930 . S
Li2288 N2305 1.990 . S
Li2288 O2348 1.956 . S
Li2288 O2349 1.970 . S
Li2288 O2350 1.961 . S
Li2289 N2313 1.990 . S
Li2289 O2348 1.970 . S
Li2289 O2349 1.956 . S
Li2289 O2351 1.961 . S
Li2290 N2335 1.990 . S
Li2290 O2348 1.961 . S
Li2290 O2350 1.956 . S
Li2290 O2351 1.970 . S
Li2291 N2341 1.990 . S
Li2291 O2349 1.961 . S
Li2291 O2350 1.970 . S
Li2291 O2351 1.956 . S
C2292 C2294 1.348 . S
C2292 C2295 1.356 . S
C2292 O2348 1.325 . S
N2293 C2296 1.314 . S
N2293 C2297 1.279 . S
C2294 C2292 1.348 . S
C2294 C2296 1.353 . S
C2294 H2352 0.929 . S
C2295 C2292 1.356 . S
C2295 C2297 1.358 . S
C2295 H2353 0.930 . S
C2296 N2293 1.314 . S
C2296 C2294 1.353 . S
C2296 H2354 0.930 . S
C2297 N2293 1.279 . S
C2297 C2295 1.358 . S
C2297 H2355 0.930 . S
C2298 C2301 1.348 . S
C2298 C2302 1.356 . S
C2298 O2349 1.325 . S
C2299 N2300 1.279 . S
C2299 C2302 1.358 . S
C2299 H2356 0.930 . S
N2300 C2299 1.279 . S
N2300 C2303 1.314 . S
C2301 C2298 1.348 . S
C2301 C2303 1.353 . S
C2301 H2357 0.929 . S
C2302 C2298 1.356 . S
C2302 C2299 1.358 . S
C2302 H2358 0.930 . S
C2303 N2300 1.314 . S
C2303 C2301 1.353 . S
C2303 H2359 0.930 . S
C2304 N2305 1.314 . S
C2304 C2309 1.353 . S
C2304 H2310 0.930 . S
N2305 Li2288 1.990 . S
N2305 C2304 1.314 . S
N2305 C2307 1.279 . S
C2306 C2307 1.358 . S
C2306 C2308 1.356 . S
C2306 H2360 0.930 . S
C2307 N2305 1.279 . S
C2307 C2306 1.358 . S
C2307 H2311 0.930 . S
C2308 C2306 1.356 . S
C2308 C2309 1.348 . S
C2309 C2304 1.353 . S
C2309 C2308 1.348 . S
C2309 H2361 0.929 . S
H2310 C2304 0.930 . S
H2311 C2307 0.930 . S
C2312 N2313 1.314 . S
C2312 C2314 1.353 . S
C2312 H2318 0.930 . S
N2313 Li2289 1.990 . S
N2313 C2312 1.314 . S
N2313 C2316 1.279 . S
C2314 C2312 1.353 . S
C2314 C2317 1.348 . S
C2314 H2362 0.929 . S
C2315 C2316 1.358 . S
C2315 C2317 1.356 . S
C2315 H2363 0.930 . S
C2316 N2313 1.279 . S
C2316 C2315 1.358 . S
C2316 H2319 0.930 . S
C2317 C2314 1.348 . S
C2317 C2315 1.356 . S
H2318 C2312 0.930 . S
H2319 C2316 0.930 . S
C2320 C2322 1.348 . S
C2320 C2323 1.356 . S
C2320 O2350 1.325 . S
N2321 C2324 1.314 . S
N2321 C2325 1.279 . S
C2322 C2320 1.348 . S
C2322 C2324 1.353 . S
C2322 H2364 0.929 . S
C2323 C2320 1.356 . S
C2323 C2325 1.358 . S
C2323 H2365 0.930 . S
C2324 N2321 1.314 . S
C2324 C2322 1.353 . S
C2324 H2366 0.930 . S
C2325 N2321 1.279 . S
C2325 C2323 1.358 . S
C2325 H2367 0.930 . S
C2326 C2327 1.348 . S
C2326 C2328 1.356 . S
C2326 O2351 1.325 . S
C2327 C2326 1.348 . S
C2327 C2329 1.353 . S
C2327 H2368 0.929 . S
C2328 C2326 1.356 . S
C2328 C2330 1.358 . S
C2328 H2369 0.930 . S
C2329 C2327 1.353 . S
C2329 N2331 1.314 . S
C2329 H2370 0.930 . S
C2330 C2328 1.358 . S
C2330 N2331 1.279 . S
C2330 H2371 0.930 . S
N2331 C2329 1.314 . S
N2331 C2330 1.279 . S
C2332 C2334 1.353 . S
C2332 N2335 1.314 . S
C2332 H2338 0.930 . S
C2333 N2335 1.279 . S
C2333 C2336 1.358 . S
C2333 H2339 0.930 . S
C2334 C2332 1.353 . S
C2334 C2337 1.348 . S
C2334 H2372 0.929 . S
N2335 Li2290 1.990 . S
N2335 C2332 1.314 . S
N2335 C2333 1.279 . S
C2336 C2333 1.358 . S
C2336 C2337 1.356 . S
C2336 H2373 0.930 . S
C2337 C2334 1.348 . S
C2337 C2336 1.356 . S
H2338 C2332 0.930 . S
H2339 C2333 0.930 . S
C2340 N2341 1.314 . S
C2340 C2342 1.353 . S
C2340 H2346 0.930 . S
N2341 Li2291 1.990 . S
N2341 C2340 1.314 . S
N2341 C2344 1.279 . S
C2342 C2340 1.353 . S
C2342 C2345 1.348 . S
C2342 H2374 0.929 . S
C2343 C2344 1.358 . S
C2343 C2345 1.356 . S
C2343 H2375 0.930 . S
C2344 N2341 1.279 . S
C2344 C2343 1.358 . S
C2344 H2347 0.930 . S
C2345 C2342 1.348 . S
C2345 C2343 1.356 . S
H2346 C2340 0.930 . S
H2347 C2344 0.930 . S
O2348 Li2288 1.956 . S
O2348 Li2289 1.970 . S
O2348 Li2290 1.961 . S
O2348 C2292 1.325 . S
O2349 Li2288 1.970 . S
O2349 Li2289 1.956 . S
O2349 Li2291 1.961 . S
O2349 C2298 1.325 . S
O2350 Li2288 1.961 . S
O2350 Li2290 1.956 . S
O2350 Li2291 1.970 . S
O2350 C2320 1.325 . S
O2351 Li2289 1.961 . S
O2351 Li2290 1.970 . S
O2351 Li2291 1.956 . S
O2351 C2326 1.325 . S
H2352 C2294 0.929 . S
H2353 C2295 0.930 . S
H2354 C2296 0.930 . S
H2355 C2297 0.930 . S
H2356 C2299 0.930 . S
H2357 C2301 0.929 . S
H2358 C2302 0.930 . S
H2359 C2303 0.930 . S
H2360 C2306 0.930 . S
H2361 C2309 0.929 . S
H2362 C2314 0.929 . S
H2363 C2315 0.930 . S
H2364 C2322 0.929 . S
H2365 C2323 0.930 . S
H2366 C2324 0.930 . S
H2367 C2325 0.930 . S
H2368 C2327 0.929 . S
H2369 C2328 0.930 . S
H2370 C2329 0.930 . S
H2371 C2330 0.930 . S
H2372 C2334 0.929 . S
H2373 C2336 0.930 . S
H2374 C2342 0.929 . S
H2375 C2343 0.930 . S
Li2376 N2393 1.990 . S
Li2376 O2436 1.956 . S
Li2376 O2437 1.970 . S
Li2376 O2438 1.961 . S
Li2377 N2401 1.990 . S
Li2377 O2436 1.970 . S
Li2377 O2437 1.956 . S
Li2377 O2439 1.961 . S
Li2378 N2423 1.990 . S
Li2378 O2436 1.961 . S
Li2378 O2438 1.956 . S
Li2378 O2439 1.970 . S
Li2379 N2429 1.990 . S
Li2379 O2437 1.961 . S
Li2379 O2438 1.970 . S
Li2379 O2439 1.956 . S
C2380 C2382 1.348 . S
C2380 C2383 1.356 . S
C2380 O2436 1.325 . S
N2381 C2384 1.314 . S
N2381 C2385 1.279 . S
C2382 C2380 1.348 . S
C2382 C2384 1.353 . S
C2382 H2440 0.929 . S
C2383 C2380 1.356 . S
C2383 C2385 1.358 . S
C2383 H2441 0.930 . S
C2384 N2381 1.314 . S
C2384 C2382 1.353 . S
C2384 H2442 0.930 . S
C2385 N2381 1.279 . S
C2385 C2383 1.358 . S
C2385 H2443 0.930 . S
C2386 C2389 1.348 . S
C2386 C2390 1.356 . S
C2386 O2437 1.325 . S
C2387 N2388 1.279 . S
C2387 C2390 1.358 . S
C2387 H2444 0.930 . S
N2388 C2387 1.279 . S
N2388 C2391 1.314 . S
C2389 C2386 1.348 . S
C2389 C2391 1.353 . S
C2389 H2445 0.929 . S
C2390 C2386 1.356 . S
C2390 C2387 1.358 . S
C2390 H2446 0.930 . S
C2391 N2388 1.314 . S
C2391 C2389 1.353 . S
C2391 H2447 0.930 . S
C2392 N2393 1.314 . S
C2392 C2397 1.353 . S
C2392 H2398 0.930 . S
N2393 Li2376 1.990 . S
N2393 C2392 1.314 . S
N2393 C2395 1.279 . S
C2394 C2395 1.358 . S
C2394 C2396 1.356 . S
C2394 H2448 0.930 . S
C2395 N2393 1.279 . S
C2395 C2394 1.358 . S
C2395 H2399 0.930 . S
C2396 C2394 1.356 . S
C2396 C2397 1.348 . S
C2397 C2392 1.353 . S
C2397 C2396 1.348 . S
C2397 H2449 0.929 . S
H2398 C2392 0.930 . S
H2399 C2395 0.930 . S
C2400 N2401 1.314 . S
C2400 C2402 1.353 . S
C2400 H2406 0.930 . S
N2401 Li2377 1.990 . S
N2401 C2400 1.314 . S
N2401 C2404 1.279 . S
C2402 C2400 1.353 . S
C2402 C2405 1.348 . S
C2402 H2450 0.929 . S
C2403 C2404 1.358 . S
C2403 C2405 1.356 . S
C2403 H2451 0.930 . S
C2404 N2401 1.279 . S
C2404 C2403 1.358 . S
C2404 H2407 0.930 . S
C2405 C2402 1.348 . S
C2405 C2403 1.356 . S
H2406 C2400 0.930 . S
H2407 C2404 0.930 . S
C2408 C2410 1.348 . S
C2408 C2411 1.356 . S
C2408 O2438 1.325 . S
N2409 C2412 1.314 . S
N2409 C2413 1.279 . S
C2410 C2408 1.348 . S
C2410 C2412 1.353 . S
C2410 H2452 0.929 . S
C2411 C2408 1.356 . S
C2411 C2413 1.358 . S
C2411 H2453 0.930 . S
C2412 N2409 1.314 . S
C2412 C2410 1.353 . S
C2412 H2454 0.930 . S
C2413 N2409 1.279 . S
C2413 C2411 1.358 . S
C2413 H2455 0.930 . S
C2414 C2415 1.348 . S
C2414 C2416 1.356 . S
C2414 O2439 1.325 . S
C2415 C2414 1.348 . S
C2415 C2417 1.353 . S
C2415 H2456 0.929 . S
C2416 C2414 1.356 . S
C2416 C2418 1.358 . S
C2416 H2457 0.930 . S
C2417 C2415 1.353 . S
C2417 N2419 1.314 . S
C2417 H2458 0.930 . S
C2418 C2416 1.358 . S
C2418 N2419 1.279 . S
C2418 H2459 0.930 . S
N2419 C2417 1.314 . S
N2419 C2418 1.279 . S
C2420 C2422 1.353 . S
C2420 N2423 1.314 . S
C2420 H2426 0.930 . S
C2421 N2423 1.279 . S
C2421 C2424 1.358 . S
C2421 H2427 0.930 . S
C2422 C2420 1.353 . S
C2422 C2425 1.348 . S
C2422 H2460 0.929 . S
N2423 Li2378 1.990 . S
N2423 C2420 1.314 . S
N2423 C2421 1.279 . S
C2424 C2421 1.358 . S
C2424 C2425 1.356 . S
C2424 H2461 0.930 . S
C2425 C2422 1.348 . S
C2425 C2424 1.356 . S
H2426 C2420 0.930 . S
H2427 C2421 0.930 . S
C2428 N2429 1.314 . S
C2428 C2430 1.353 . S
C2428 H2434 0.930 . S
N2429 Li2379 1.990 . S
N2429 C2428 1.314 . S
N2429 C2432 1.279 . S
C2430 C2428 1.353 . S
C2430 C2433 1.348 . S
C2430 H2462 0.929 . S
C2431 C2432 1.358 . S
C2431 C2433 1.356 . S
C2431 H2463 0.930 . S
C2432 N2429 1.279 . S
C2432 C2431 1.358 . S
C2432 H2435 0.930 . S
C2433 C2430 1.348 . S
C2433 C2431 1.356 . S
H2434 C2428 0.930 . S
H2435 C2432 0.930 . S
O2436 Li2376 1.956 . S
O2436 Li2377 1.970 . S
O2436 Li2378 1.961 . S
O2436 C2380 1.325 . S
O2437 Li2376 1.970 . S
O2437 Li2377 1.956 . S
O2437 Li2379 1.961 . S
O2437 C2386 1.325 . S
O2438 Li2376 1.961 . S
O2438 Li2378 1.956 . S
O2438 Li2379 1.970 . S
O2438 C2408 1.325 . S
O2439 Li2377 1.961 . S
O2439 Li2378 1.970 . S
O2439 Li2379 1.956 . S
O2439 C2414 1.325 . S
H2440 C2382 0.929 . S
H2441 C2383 0.930 . S
H2442 C2384 0.930 . S
H2443 C2385 0.930 . S
H2444 C2387 0.930 . S
H2445 C2389 0.929 . S
H2446 C2390 0.930 . S
H2447 C2391 0.930 . S
H2448 C2394 0.930 . S
H2449 C2397 0.929 . S
H2450 C2402 0.929 . S
H2451 C2403 0.930 . S
H2452 C2410 0.929 . S
H2453 C2411 0.930 . S
H2454 C2412 0.930 . S
H2455 C2413 0.930 . S
H2456 C2415 0.929 . S
H2457 C2416 0.930 . S
H2458 C2417 0.930 . S
H2459 C2418 0.930 . S
H2460 C2422 0.929 . S
H2461 C2424 0.930 . S
H2462 C2430 0.929 . S
H2463 C2431 0.930 . S
Li2464 N2481 1.990 . S
Li2464 O2524 1.956 . S
Li2464 O2525 1.970 . S
Li2464 O2526 1.961 . S
Li2465 N2489 1.990 . S
Li2465 O2524 1.970 . S
Li2465 O2525 1.956 . S
Li2465 O2527 1.961 . S
Li2466 N2511 1.990 . S
Li2466 O2524 1.961 . S
Li2466 O2526 1.956 . S
Li2466 O2527 1.970 . S
Li2467 N2517 1.990 . S
Li2467 O2525 1.961 . S
Li2467 O2526 1.970 . S
Li2467 O2527 1.956 . S
C2468 C2470 1.348 . S
C2468 C2471 1.356 . S
C2468 O2524 1.325 . S
N2469 C2472 1.314 . S
N2469 C2473 1.279 . S
C2470 C2468 1.348 . S
C2470 C2472 1.353 . S
C2470 H2528 0.929 . S
C2471 C2468 1.356 . S
C2471 C2473 1.358 . S
C2471 H2529 0.930 . S
C2472 N2469 1.314 . S
C2472 C2470 1.353 . S
C2472 H2530 0.930 . S
C2473 N2469 1.279 . S
C2473 C2471 1.358 . S
C2473 H2531 0.930 . S
C2474 C2477 1.348 . S
C2474 C2478 1.356 . S
C2474 O2525 1.325 . S
C2475 N2476 1.279 . S
C2475 C2478 1.358 . S
C2475 H2532 0.930 . S
N2476 C2475 1.279 . S
N2476 C2479 1.314 . S
C2477 C2474 1.348 . S
C2477 C2479 1.353 . S
C2477 H2533 0.929 . S
C2478 C2474 1.356 . S
C2478 C2475 1.358 . S
C2478 H2534 0.930 . S
C2479 N2476 1.314 . S
C2479 C2477 1.353 . S
C2479 H2535 0.930 . S
C2480 N2481 1.314 . S
C2480 C2485 1.353 . S
C2480 H2486 0.930 . S
N2481 Li2464 1.990 . S
N2481 C2480 1.314 . S
N2481 C2483 1.279 . S
C2482 C2483 1.358 . S
C2482 C2484 1.356 . S
C2482 H2536 0.930 . S
C2483 N2481 1.279 . S
C2483 C2482 1.358 . S
C2483 H2487 0.930 . S
C2484 C2482 1.356 . S
C2484 C2485 1.348 . S
C2485 C2480 1.353 . S
C2485 C2484 1.348 . S
C2485 H2537 0.929 . S
H2486 C2480 0.930 . S
H2487 C2483 0.930 . S
C2488 N2489 1.314 . S
C2488 C2490 1.353 . S
C2488 H2494 0.930 . S
N2489 Li2465 1.990 . S
N2489 C2488 1.314 . S
N2489 C2492 1.279 . S
C2490 C2488 1.353 . S
C2490 C2493 1.348 . S
C2490 H2538 0.929 . S
C2491 C2492 1.358 . S
C2491 C2493 1.356 . S
C2491 H2539 0.930 . S
C2492 N2489 1.279 . S
C2492 C2491 1.358 . S
C2492 H2495 0.930 . S
C2493 C2490 1.348 . S
C2493 C2491 1.356 . S
H2494 C2488 0.930 . S
H2495 C2492 0.930 . S
C2496 C2498 1.348 . S
C2496 C2499 1.356 . S
C2496 O2526 1.325 . S
N2497 C2500 1.314 . S
N2497 C2501 1.279 . S
C2498 C2496 1.348 . S
C2498 C2500 1.353 . S
C2498 H2540 0.929 . S
C2499 C2496 1.356 . S
C2499 C2501 1.358 . S
C2499 H2541 0.930 . S
C2500 N2497 1.314 . S
C2500 C2498 1.353 . S
C2500 H2542 0.930 . S
C2501 N2497 1.279 . S
C2501 C2499 1.358 . S
C2501 H2543 0.930 . S
C2502 C2503 1.348 . S
C2502 C2504 1.356 . S
C2502 O2527 1.325 . S
C2503 C2502 1.348 . S
C2503 C2505 1.353 . S
C2503 H2544 0.929 . S
C2504 C2502 1.356 . S
C2504 C2506 1.358 . S
C2504 H2545 0.930 . S
C2505 C2503 1.353 . S
C2505 N2507 1.314 . S
C2505 H2546 0.930 . S
C2506 C2504 1.358 . S
C2506 N2507 1.279 . S
C2506 H2547 0.930 . S
N2507 C2505 1.314 . S
N2507 C2506 1.279 . S
C2508 C2510 1.353 . S
C2508 N2511 1.314 . S
C2508 H2514 0.930 . S
C2509 N2511 1.279 . S
C2509 C2512 1.358 . S
C2509 H2515 0.930 . S
C2510 C2508 1.353 . S
C2510 C2513 1.348 . S
C2510 H2548 0.929 . S
N2511 Li2466 1.990 . S
N2511 C2508 1.314 . S
N2511 C2509 1.279 . S
C2512 C2509 1.358 . S
C2512 C2513 1.356 . S
C2512 H2549 0.930 . S
C2513 C2510 1.348 . S
C2513 C2512 1.356 . S
H2514 C2508 0.930 . S
H2515 C2509 0.930 . S
C2516 N2517 1.314 . S
C2516 C2518 1.353 . S
C2516 H2522 0.930 . S
N2517 Li2467 1.990 . S
N2517 C2516 1.314 . S
N2517 C2520 1.279 . S
C2518 C2516 1.353 . S
C2518 C2521 1.348 . S
C2518 H2550 0.929 . S
C2519 C2520 1.358 . S
C2519 C2521 1.356 . S
C2519 H2551 0.930 . S
C2520 N2517 1.279 . S
C2520 C2519 1.358 . S
C2520 H2523 0.930 . S
C2521 C2518 1.348 . S
C2521 C2519 1.356 . S
H2522 C2516 0.930 . S
H2523 C2520 0.930 . S
O2524 Li2464 1.956 . S
O2524 Li2465 1.970 . S
O2524 Li2466 1.961 . S
O2524 C2468 1.325 . S
O2525 Li2464 1.970 . S
O2525 Li2465 1.956 . S
O2525 Li2467 1.961 . S
O2525 C2474 1.325 . S
O2526 Li2464 1.961 . S
O2526 Li2466 1.956 . S
O2526 Li2467 1.970 . S
O2526 C2496 1.325 . S
O2527 Li2465 1.961 . S
O2527 Li2466 1.970 . S
O2527 Li2467 1.956 . S
O2527 C2502 1.325 . S
H2528 C2470 0.929 . S
H2529 C2471 0.930 . S
H2530 C2472 0.930 . S
H2531 C2473 0.930 . S
H2532 C2475 0.930 . S
H2533 C2477 0.929 . S
H2534 C2478 0.930 . S
H2535 C2479 0.930 . S
H2536 C2482 0.930 . S
H2537 C2485 0.929 . S
H2538 C2490 0.929 . S
H2539 C2491 0.930 . S
H2540 C2498 0.929 . S
H2541 C2499 0.930 . S
H2542 C2500 0.930 . S
H2543 C2501 0.930 . S
H2544 C2503 0.929 . S
H2545 C2504 0.930 . S
H2546 C2505 0.930 . S
H2547 C2506 0.930 . S
H2548 C2510 0.929 . S
H2549 C2512 0.930 . S
H2550 C2518 0.929 . S
H2551 C2519 0.930 . S
Li2552 N2569 1.990 . S
Li2552 O2612 1.956 . S
Li2552 O2613 1.970 . S
Li2552 O2614 1.961 . S
Li2553 N2577 1.990 . S
Li2553 O2612 1.970 . S
Li2553 O2613 1.956 . S
Li2553 O2615 1.961 . S
Li2554 N2599 1.990 . S
Li2554 O2612 1.961 . S
Li2554 O2614 1.956 . S
Li2554 O2615 1.970 . S
Li2555 N2605 1.990 . S
Li2555 O2613 1.961 . S
Li2555 O2614 1.970 . S
Li2555 O2615 1.956 . S
C2556 C2558 1.348 . S
C2556 C2559 1.356 . S
C2556 O2612 1.325 . S
N2557 C2560 1.314 . S
N2557 C2561 1.279 . S
C2558 C2556 1.348 . S
C2558 C2560 1.353 . S
C2558 H2616 0.929 . S
C2559 C2556 1.356 . S
C2559 C2561 1.358 . S
C2559 H2617 0.930 . S
C2560 N2557 1.314 . S
C2560 C2558 1.353 . S
C2560 H2618 0.930 . S
C2561 N2557 1.279 . S
C2561 C2559 1.358 . S
C2561 H2619 0.930 . S
C2562 C2565 1.348 . S
C2562 C2566 1.356 . S
C2562 O2613 1.325 . S
C2563 N2564 1.279 . S
C2563 C2566 1.358 . S
C2563 H2620 0.930 . S
N2564 C2563 1.279 . S
N2564 C2567 1.314 . S
C2565 C2562 1.348 . S
C2565 C2567 1.353 . S
C2565 H2621 0.929 . S
C2566 C2562 1.356 . S
C2566 C2563 1.358 . S
C2566 H2622 0.930 . S
C2567 N2564 1.314 . S
C2567 C2565 1.353 . S
C2567 H2623 0.930 . S
C2568 N2569 1.314 . S
C2568 C2573 1.353 . S
C2568 H2574 0.930 . S
N2569 Li2552 1.990 . S
N2569 C2568 1.314 . S
N2569 C2571 1.279 . S
C2570 C2571 1.358 . S
C2570 C2572 1.356 . S
C2570 H2624 0.930 . S
C2571 N2569 1.279 . S
C2571 C2570 1.358 . S
C2571 H2575 0.930 . S
C2572 C2570 1.356 . S
C2572 C2573 1.348 . S
C2573 C2568 1.353 . S
C2573 C2572 1.348 . S
C2573 H2625 0.929 . S
H2574 C2568 0.930 . S
H2575 C2571 0.930 . S
C2576 N2577 1.314 . S
C2576 C2578 1.353 . S
C2576 H2582 0.930 . S
N2577 Li2553 1.990 . S
N2577 C2576 1.314 . S
N2577 C2580 1.279 . S
C2578 C2576 1.353 . S
C2578 C2581 1.348 . S
C2578 H2626 0.929 . S
C2579 C2580 1.358 . S
C2579 C2581 1.356 . S
C2579 H2627 0.930 . S
C2580 N2577 1.279 . S
C2580 C2579 1.358 . S
C2580 H2583 0.930 . S
C2581 C2578 1.348 . S
C2581 C2579 1.356 . S
H2582 C2576 0.930 . S
H2583 C2580 0.930 . S
C2584 C2586 1.348 . S
C2584 C2587 1.356 . S
C2584 O2614 1.325 . S
N2585 C2588 1.314 . S
N2585 C2589 1.279 . S
C2586 C2584 1.348 . S
C2586 C2588 1.353 . S
C2586 H2628 0.929 . S
C2587 C2584 1.356 . S
C2587 C2589 1.358 . S
C2587 H2629 0.930 . S
C2588 N2585 1.314 . S
C2588 C2586 1.353 . S
C2588 H2630 0.930 . S
C2589 N2585 1.279 . S
C2589 C2587 1.358 . S
C2589 H2631 0.930 . S
C2590 C2591 1.348 . S
C2590 C2592 1.356 . S
C2590 O2615 1.325 . S
C2591 C2590 1.348 . S
C2591 C2593 1.353 . S
C2591 H2632 0.929 . S
C2592 C2590 1.356 . S
C2592 C2594 1.358 . S
C2592 H2633 0.930 . S
C2593 C2591 1.353 . S
C2593 N2595 1.314 . S
C2593 H2634 0.930 . S
C2594 C2592 1.358 . S
C2594 N2595 1.279 . S
C2594 H2635 0.930 . S
N2595 C2593 1.314 . S
N2595 C2594 1.279 . S
C2596 C2598 1.353 . S
C2596 N2599 1.314 . S
C2596 H2602 0.930 . S
C2597 N2599 1.279 . S
C2597 C2600 1.358 . S
C2597 H2603 0.930 . S
C2598 C2596 1.353 . S
C2598 C2601 1.348 . S
C2598 H2636 0.929 . S
N2599 Li2554 1.990 . S
N2599 C2596 1.314 . S
N2599 C2597 1.279 . S
C2600 C2597 1.358 . S
C2600 C2601 1.356 . S
C2600 H2637 0.930 . S
C2601 C2598 1.348 . S
C2601 C2600 1.356 . S
H2602 C2596 0.930 . S
H2603 C2597 0.930 . S
C2604 N2605 1.314 . S
C2604 C2606 1.353 . S
C2604 H2610 0.930 . S
N2605 Li2555 1.990 . S
N2605 C2604 1.314 . S
N2605 C2608 1.279 . S
C2606 C2604 1.353 . S
C2606 C2609 1.348 . S
C2606 H2638 0.929 . S
C2607 C2608 1.358 . S
C2607 C2609 1.356 . S
C2607 H2639 0.930 . S
C2608 N2605 1.279 . S
C2608 C2607 1.358 . S
C2608 H2611 0.930 . S
C2609 C2606 1.348 . S
C2609 C2607 1.356 . S
H2610 C2604 0.930 . S
H2611 C2608 0.930 . S
O2612 Li2552 1.956 . S
O2612 Li2553 1.970 . S
O2612 Li2554 1.961 . S
O2612 C2556 1.325 . S
O2613 Li2552 1.970 . S
O2613 Li2553 1.956 . S
O2613 Li2555 1.961 . S
O2613 C2562 1.325 . S
O2614 Li2552 1.961 . S
O2614 Li2554 1.956 . S
O2614 Li2555 1.970 . S
O2614 C2584 1.325 . S
O2615 Li2553 1.961 . S
O2615 Li2554 1.970 . S
O2615 Li2555 1.956 . S
O2615 C2590 1.325 . S
H2616 C2558 0.929 . S
H2617 C2559 0.930 . S
H2618 C2560 0.930 . S
H2619 C2561 0.930 . S
H2620 C2563 0.930 . S
H2621 C2565 0.929 . S
H2622 C2566 0.930 . S
H2623 C2567 0.930 . S
H2624 C2570 0.930 . S
H2625 C2573 0.929 . S
H2626 C2578 0.929 . S
H2627 C2579 0.930 . S
H2628 C2586 0.929 . S
H2629 C2587 0.930 . S
H2630 C2588 0.930 . S
H2631 C2589 0.930 . S
H2632 C2591 0.929 . S
H2633 C2592 0.930 . S
H2634 C2593 0.930 . S
H2635 C2594 0.930 . S
H2636 C2598 0.929 . S
H2637 C2600 0.930 . S
H2638 C2606 0.929 . S
H2639 C2607 0.930 . S
Li2640 N2657 1.990 . S
Li2640 O2700 1.956 . S
Li2640 O2701 1.970 . S
Li2640 O2702 1.961 . S
Li2641 N2665 1.990 . S
Li2641 O2700 1.970 . S
Li2641 O2701 1.956 . S
Li2641 O2703 1.961 . S
Li2642 N2687 1.990 . S
Li2642 O2700 1.961 . S
Li2642 O2702 1.956 . S
Li2642 O2703 1.970 . S
Li2643 N2693 1.990 . S
Li2643 O2701 1.961 . S
Li2643 O2702 1.970 . S
Li2643 O2703 1.956 . S
C2644 C2646 1.348 . S
C2644 C2647 1.356 . S
C2644 O2700 1.325 . S
N2645 C2648 1.314 . S
N2645 C2649 1.279 . S
C2646 C2644 1.348 . S
C2646 C2648 1.353 . S
C2646 H2704 0.929 . S
C2647 C2644 1.356 . S
C2647 C2649 1.358 . S
C2647 H2705 0.930 . S
C2648 N2645 1.314 . S
C2648 C2646 1.353 . S
C2648 H2706 0.930 . S
C2649 N2645 1.279 . S
C2649 C2647 1.358 . S
C2649 H2707 0.930 . S
C2650 C2653 1.348 . S
C2650 C2654 1.356 . S
C2650 O2701 1.325 . S
C2651 N2652 1.279 . S
C2651 C2654 1.358 . S
C2651 H2708 0.930 . S
N2652 C2651 1.279 . S
N2652 C2655 1.314 . S
C2653 C2650 1.348 . S
C2653 C2655 1.353 . S
C2653 H2709 0.929 . S
C2654 C2650 1.356 . S
C2654 C2651 1.358 . S
C2654 H2710 0.930 . S
C2655 N2652 1.314 . S
C2655 C2653 1.353 . S
C2655 H2711 0.930 . S
C2656 N2657 1.314 . S
C2656 C2661 1.353 . S
C2656 H2662 0.930 . S
N2657 Li2640 1.990 . S
N2657 C2656 1.314 . S
N2657 C2659 1.279 . S
C2658 C2659 1.358 . S
C2658 C2660 1.356 . S
C2658 H2712 0.930 . S
C2659 N2657 1.279 . S
C2659 C2658 1.358 . S
C2659 H2663 0.930 . S
C2660 C2658 1.356 . S
C2660 C2661 1.348 . S
C2661 C2656 1.353 . S
C2661 C2660 1.348 . S
C2661 H2713 0.929 . S
H2662 C2656 0.930 . S
H2663 C2659 0.930 . S
C2664 N2665 1.314 . S
C2664 C2666 1.353 . S
C2664 H2670 0.930 . S
N2665 Li2641 1.990 . S
N2665 C2664 1.314 . S
N2665 C2668 1.279 . S
C2666 C2664 1.353 . S
C2666 C2669 1.348 . S
C2666 H2714 0.929 . S
C2667 C2668 1.358 . S
C2667 C2669 1.356 . S
C2667 H2715 0.930 . S
C2668 N2665 1.279 . S
C2668 C2667 1.358 . S
C2668 H2671 0.930 . S
C2669 C2666 1.348 . S
C2669 C2667 1.356 . S
H2670 C2664 0.930 . S
H2671 C2668 0.930 . S
C2672 C2674 1.348 . S
C2672 C2675 1.356 . S
C2672 O2702 1.325 . S
N2673 C2676 1.314 . S
N2673 C2677 1.279 . S
C2674 C2672 1.348 . S
C2674 C2676 1.353 . S
C2674 H2716 0.929 . S
C2675 C2672 1.356 . S
C2675 C2677 1.358 . S
C2675 H2717 0.930 . S
C2676 N2673 1.314 . S
C2676 C2674 1.353 . S
C2676 H2718 0.930 . S
C2677 N2673 1.279 . S
C2677 C2675 1.358 . S
C2677 H2719 0.930 . S
C2678 C2679 1.348 . S
C2678 C2680 1.356 . S
C2678 O2703 1.325 . S
C2679 C2678 1.348 . S
C2679 C2681 1.353 . S
C2679 H2720 0.929 . S
C2680 C2678 1.356 . S
C2680 C2682 1.358 . S
C2680 H2721 0.930 . S
C2681 C2679 1.353 . S
C2681 N2683 1.314 . S
C2681 H2722 0.930 . S
C2682 C2680 1.358 . S
C2682 N2683 1.279 . S
C2682 H2723 0.930 . S
N2683 C2681 1.314 . S
N2683 C2682 1.279 . S
C2684 C2686 1.353 . S
C2684 N2687 1.314 . S
C2684 H2690 0.930 . S
C2685 N2687 1.279 . S
C2685 C2688 1.358 . S
C2685 H2691 0.930 . S
C2686 C2684 1.353 . S
C2686 C2689 1.348 . S
C2686 H2724 0.929 . S
N2687 Li2642 1.990 . S
N2687 C2684 1.314 . S
N2687 C2685 1.279 . S
C2688 C2685 1.358 . S
C2688 C2689 1.356 . S
C2688 H2725 0.930 . S
C2689 C2686 1.348 . S
C2689 C2688 1.356 . S
H2690 C2684 0.930 . S
H2691 C2685 0.930 . S
C2692 N2693 1.314 . S
C2692 C2694 1.353 . S
C2692 H2698 0.930 . S
N2693 Li2643 1.990 . S
N2693 C2692 1.314 . S
N2693 C2696 1.279 . S
C2694 C2692 1.353 . S
C2694 C2697 1.348 . S
C2694 H2726 0.929 . S
C2695 C2696 1.358 . S
C2695 C2697 1.356 . S
C2695 H2727 0.930 . S
C2696 N2693 1.279 . S
C2696 C2695 1.358 . S
C2696 H2699 0.930 . S
C2697 C2694 1.348 . S
C2697 C2695 1.356 . S
H2698 C2692 0.930 . S
H2699 C2696 0.930 . S
O2700 Li2640 1.956 . S
O2700 Li2641 1.970 . S
O2700 Li2642 1.961 . S
O2700 C2644 1.325 . S
O2701 Li2640 1.970 . S
O2701 Li2641 1.956 . S
O2701 Li2643 1.961 . S
O2701 C2650 1.325 . S
O2702 Li2640 1.961 . S
O2702 Li2642 1.956 . S
O2702 Li2643 1.970 . S
O2702 C2672 1.325 . S
O2703 Li2641 1.961 . S
O2703 Li2642 1.970 . S
O2703 Li2643 1.956 . S
O2703 C2678 1.325 . S
H2704 C2646 0.929 . S
H2705 C2647 0.930 . S
H2706 C2648 0.930 . S
H2707 C2649 0.930 . S
H2708 C2651 0.930 . S
H2709 C2653 0.929 . S
H2710 C2654 0.930 . S
H2711 C2655 0.930 . S
H2712 C2658 0.930 . S
H2713 C2661 0.929 . S
H2714 C2666 0.929 . S
H2715 C2667 0.930 . S
H2716 C2674 0.929 . S
H2717 C2675 0.930 . S
H2718 C2676 0.930 . S
H2719 C2677 0.930 . S
H2720 C2679 0.929 . S
H2721 C2680 0.930 . S
H2722 C2681 0.930 . S
H2723 C2682 0.930 . S
H2724 C2686 0.929 . S
H2725 C2688 0.930 . S
H2726 C2694 0.929 . S
H2727 C2695 0.930 . S
Li2728 N2745 1.990 . S
Li2728 O2788 1.956 . S
Li2728 O2789 1.970 . S
Li2728 O2790 1.961 . S
Li2729 N2753 1.990 . S
Li2729 O2788 1.970 . S
Li2729 O2789 1.956 . S
Li2729 O2791 1.961 . S
Li2730 N2775 1.990 . S
Li2730 O2788 1.961 . S
Li2730 O2790 1.956 . S
Li2730 O2791 1.970 . S
Li2731 N2781 1.990 . S
Li2731 O2789 1.961 . S
Li2731 O2790 1.970 . S
Li2731 O2791 1.956 . S
C2732 C2734 1.348 . S
C2732 C2735 1.356 . S
C2732 O2788 1.325 . S
N2733 C2736 1.314 . S
N2733 C2737 1.279 . S
C2734 C2732 1.348 . S
C2734 C2736 1.353 . S
C2734 H2792 0.929 . S
C2735 C2732 1.356 . S
C2735 C2737 1.358 . S
C2735 H2793 0.930 . S
C2736 N2733 1.314 . S
C2736 C2734 1.353 . S
C2736 H2794 0.930 . S
C2737 N2733 1.279 . S
C2737 C2735 1.358 . S
C2737 H2795 0.930 . S
C2738 C2741 1.348 . S
C2738 C2742 1.356 . S
C2738 O2789 1.325 . S
C2739 N2740 1.279 . S
C2739 C2742 1.358 . S
C2739 H2796 0.930 . S
N2740 C2739 1.279 . S
N2740 C2743 1.314 . S
C2741 C2738 1.348 . S
C2741 C2743 1.353 . S
C2741 H2797 0.929 . S
C2742 C2738 1.356 . S
C2742 C2739 1.358 . S
C2742 H2798 0.930 . S
C2743 N2740 1.314 . S
C2743 C2741 1.353 . S
C2743 H2799 0.930 . S
C2744 N2745 1.314 . S
C2744 C2749 1.353 . S
C2744 H2750 0.930 . S
N2745 Li2728 1.990 . S
N2745 C2744 1.314 . S
N2745 C2747 1.279 . S
C2746 C2747 1.358 . S
C2746 C2748 1.356 . S
C2746 H2800 0.930 . S
C2747 N2745 1.279 . S
C2747 C2746 1.358 . S
C2747 H2751 0.930 . S
C2748 C2746 1.356 . S
C2748 C2749 1.348 . S
C2749 C2744 1.353 . S
C2749 C2748 1.348 . S
C2749 H2801 0.929 . S
H2750 C2744 0.930 . S
H2751 C2747 0.930 . S
C2752 N2753 1.314 . S
C2752 C2754 1.353 . S
C2752 H2758 0.930 . S
N2753 Li2729 1.990 . S
N2753 C2752 1.314 . S
N2753 C2756 1.279 . S
C2754 C2752 1.353 . S
C2754 C2757 1.348 . S
C2754 H2802 0.929 . S
C2755 C2756 1.358 . S
C2755 C2757 1.356 . S
C2755 H2803 0.930 . S
C2756 N2753 1.279 . S
C2756 C2755 1.358 . S
C2756 H2759 0.930 . S
C2757 C2754 1.348 . S
C2757 C2755 1.356 . S
H2758 C2752 0.930 . S
H2759 C2756 0.930 . S
C2760 C2762 1.348 . S
C2760 C2763 1.356 . S
C2760 O2790 1.325 . S
N2761 C2764 1.314 . S
N2761 C2765 1.279 . S
C2762 C2760 1.348 . S
C2762 C2764 1.353 . S
C2762 H2804 0.929 . S
C2763 C2760 1.356 . S
C2763 C2765 1.358 . S
C2763 H2805 0.930 . S
C2764 N2761 1.314 . S
C2764 C2762 1.353 . S
C2764 H2806 0.930 . S
C2765 N2761 1.279 . S
C2765 C2763 1.358 . S
C2765 H2807 0.930 . S
C2766 C2767 1.348 . S
C2766 C2768 1.356 . S
C2766 O2791 1.325 . S
C2767 C2766 1.348 . S
C2767 C2769 1.353 . S
C2767 H2808 0.929 . S
C2768 C2766 1.356 . S
C2768 C2770 1.358 . S
C2768 H2809 0.930 . S
C2769 C2767 1.353 . S
C2769 N2771 1.314 . S
C2769 H2810 0.930 . S
C2770 C2768 1.358 . S
C2770 N2771 1.279 . S
C2770 H2811 0.930 . S
N2771 C2769 1.314 . S
N2771 C2770 1.279 . S
C2772 C2774 1.353 . S
C2772 N2775 1.314 . S
C2772 H2778 0.930 . S
C2773 N2775 1.279 . S
C2773 C2776 1.358 . S
C2773 H2779 0.930 . S
C2774 C2772 1.353 . S
C2774 C2777 1.348 . S
C2774 H2812 0.929 . S
N2775 Li2730 1.990 . S
N2775 C2772 1.314 . S
N2775 C2773 1.279 . S
C2776 C2773 1.358 . S
C2776 C2777 1.356 . S
C2776 H2813 0.930 . S
C2777 C2774 1.348 . S
C2777 C2776 1.356 . S
H2778 C2772 0.930 . S
H2779 C2773 0.930 . S
C2780 N2781 1.314 . S
C2780 C2782 1.353 . S
C2780 H2786 0.930 . S
N2781 Li2731 1.990 . S
N2781 C2780 1.314 . S
N2781 C2784 1.279 . S
C2782 C2780 1.353 . S
C2782 C2785 1.348 . S
C2782 H2814 0.929 . S
C2783 C2784 1.358 . S
C2783 C2785 1.356 . S
C2783 H2815 0.930 . S
C2784 N2781 1.279 . S
C2784 C2783 1.358 . S
C2784 H2787 0.930 . S
C2785 C2782 1.348 . S
C2785 C2783 1.356 . S
H2786 C2780 0.930 . S
H2787 C2784 0.930 . S
O2788 Li2728 1.956 . S
O2788 Li2729 1.970 . S
O2788 Li2730 1.961 . S
O2788 C2732 1.325 . S
O2789 Li2728 1.970 . S
O2789 Li2729 1.956 . S
O2789 Li2731 1.961 . S
O2789 C2738 1.325 . S
O2790 Li2728 1.961 . S
O2790 Li2730 1.956 . S
O2790 Li2731 1.970 . S
O2790 C2760 1.325 . S
O2791 Li2729 1.961 . S
O2791 Li2730 1.970 . S
O2791 Li2731 1.956 . S
O2791 C2766 1.325 . S
H2792 C2734 0.929 . S
H2793 C2735 0.930 . S
H2794 C2736 0.930 . S
H2795 C2737 0.930 . S
H2796 C2739 0.930 . S
H2797 C2741 0.929 . S
H2798 C2742 0.930 . S
H2799 C2743 0.930 . S
H2800 C2746 0.930 . S
H2801 C2749 0.929 . S
H2802 C2754 0.929 . S
H2803 C2755 0.930 . S
H2804 C2762 0.929 . S
H2805 C2763 0.930 . S
H2806 C2764 0.930 . S
H2807 C2765 0.930 . S
H2808 C2767 0.929 . S
H2809 C2768 0.930 . S
H2810 C2769 0.930 . S
H2811 C2770 0.930 . S
H2812 C2774 0.929 . S
H2813 C2776 0.930 . S
H2814 C2782 0.929 . S
H2815 C2783 0.930 . S
Li2816 N2833 1.990 . S
Li2816 O2876 1.956 . S
Li2816 O2877 1.970 . S
Li2816 O2878 1.961 . S
Li2817 N2841 1.990 . S
Li2817 O2876 1.970 . S
Li2817 O2877 1.956 . S
Li2817 O2879 1.961 . S
Li2818 N2863 1.990 . S
Li2818 O2876 1.961 . S
Li2818 O2878 1.956 . S
Li2818 O2879 1.970 . S
Li2819 N2869 1.990 . S
Li2819 O2877 1.961 . S
Li2819 O2878 1.970 . S
Li2819 O2879 1.956 . S
C2820 C2822 1.348 . S
C2820 C2823 1.356 . S
C2820 O2876 1.325 . S
N2821 C2824 1.314 . S
N2821 C2825 1.279 . S
C2822 C2820 1.348 . S
C2822 C2824 1.353 . S
C2822 H2880 0.929 . S
C2823 C2820 1.356 . S
C2823 C2825 1.358 . S
C2823 H2881 0.930 . S
C2824 N2821 1.314 . S
C2824 C2822 1.353 . S
C2824 H2882 0.930 . S
C2825 N2821 1.279 . S
C2825 C2823 1.358 . S
C2825 H2883 0.930 . S
C2826 C2829 1.348 . S
C2826 C2830 1.356 . S
C2826 O2877 1.325 . S
C2827 N2828 1.279 . S
C2827 C2830 1.358 . S
C2827 H2884 0.930 . S
N2828 C2827 1.279 . S
N2828 C2831 1.314 . S
C2829 C2826 1.348 . S
C2829 C2831 1.353 . S
C2829 H2885 0.929 . S
C2830 C2826 1.356 . S
C2830 C2827 1.358 . S
C2830 H2886 0.930 . S
C2831 N2828 1.314 . S
C2831 C2829 1.353 . S
C2831 H2887 0.930 . S
C2832 N2833 1.314 . S
C2832 C2837 1.353 . S
C2832 H2838 0.930 . S
N2833 Li2816 1.990 . S
N2833 C2832 1.314 . S
N2833 C2835 1.279 . S
C2834 C2835 1.358 . S
C2834 C2836 1.356 . S
C2834 H2888 0.930 . S
C2835 N2833 1.279 . S
C2835 C2834 1.358 . S
C2835 H2839 0.930 . S
C2836 C2834 1.356 . S
C2836 C2837 1.348 . S
C2837 C2832 1.353 . S
C2837 C2836 1.348 . S
C2837 H2889 0.929 . S
H2838 C2832 0.930 . S
H2839 C2835 0.930 . S
C2840 N2841 1.314 . S
C2840 C2842 1.353 . S
C2840 H2846 0.930 . S
N2841 Li2817 1.990 . S
N2841 C2840 1.314 . S
N2841 C2844 1.279 . S
C2842 C2840 1.353 . S
C2842 C2845 1.348 . S
C2842 H2890 0.929 . S
C2843 C2844 1.358 . S
C2843 C2845 1.356 . S
C2843 H2891 0.930 . S
C2844 N2841 1.279 . S
C2844 C2843 1.358 . S
C2844 H2847 0.930 . S
C2845 C2842 1.348 . S
C2845 C2843 1.356 . S
H2846 C2840 0.930 . S
H2847 C2844 0.930 . S
C2848 C2850 1.348 . S
C2848 C2851 1.356 . S
C2848 O2878 1.325 . S
N2849 C2852 1.314 . S
N2849 C2853 1.279 . S
C2850 C2848 1.348 . S
C2850 C2852 1.353 . S
C2850 H2892 0.929 . S
C2851 C2848 1.356 . S
C2851 C2853 1.358 . S
C2851 H2893 0.930 . S
C2852 N2849 1.314 . S
C2852 C2850 1.353 . S
C2852 H2894 0.930 . S
C2853 N2849 1.279 . S
C2853 C2851 1.358 . S
C2853 H2895 0.930 . S
C2854 C2855 1.348 . S
C2854 C2856 1.356 . S
C2854 O2879 1.325 . S
C2855 C2854 1.348 . S
C2855 C2857 1.353 . S
C2855 H2896 0.929 . S
C2856 C2854 1.356 . S
C2856 C2858 1.358 . S
C2856 H2897 0.930 . S
C2857 C2855 1.353 . S
C2857 N2859 1.314 . S
C2857 H2898 0.930 . S
C2858 C2856 1.358 . S
C2858 N2859 1.279 . S
C2858 H2899 0.930 . S
N2859 C2857 1.314 . S
N2859 C2858 1.279 . S
C2860 C2862 1.353 . S
C2860 N2863 1.314 . S
C2860 H2866 0.930 . S
C2861 N2863 1.279 . S
C2861 C2864 1.358 . S
C2861 H2867 0.930 . S
C2862 C2860 1.353 . S
C2862 C2865 1.348 . S
C2862 H2900 0.929 . S
N2863 Li2818 1.990 . S
N2863 C2860 1.314 . S
N2863 C2861 1.279 . S
C2864 C2861 1.358 . S
C2864 C2865 1.356 . S
C2864 H2901 0.930 . S
C2865 C2862 1.348 . S
C2865 C2864 1.356 . S
H2866 C2860 0.930 . S
H2867 C2861 0.930 . S
C2868 N2869 1.314 . S
C2868 C2870 1.353 . S
C2868 H2874 0.930 . S
N2869 Li2819 1.990 . S
N2869 C2868 1.314 . S
N2869 C2872 1.279 . S
C2870 C2868 1.353 . S
C2870 C2873 1.348 . S
C2870 H2902 0.929 . S
C2871 C2872 1.358 . S
C2871 C2873 1.356 . S
C2871 H2903 0.930 . S
C2872 N2869 1.279 . S
C2872 C2871 1.358 . S
C2872 H2875 0.930 . S
C2873 C2870 1.348 . S
C2873 C2871 1.356 . S
H2874 C2868 0.930 . S
H2875 C2872 0.930 . S
O2876 Li2816 1.956 . S
O2876 Li2817 1.970 . S
O2876 Li2818 1.961 . S
O2876 C2820 1.325 . S
O2877 Li2816 1.970 . S
O2877 Li2817 1.956 . S
O2877 Li2819 1.961 . S
O2877 C2826 1.325 . S
O2878 Li2816 1.961 . S
O2878 Li2818 1.956 . S
O2878 Li2819 1.970 . S
O2878 C2848 1.325 . S
O2879 Li2817 1.961 . S
O2879 Li2818 1.970 . S
O2879 Li2819 1.956 . S
O2879 C2854 1.325 . S
H2880 C2822 0.929 . S
H2881 C2823 0.930 . S
H2882 C2824 0.930 . S
H2883 C2825 0.930 . S
H2884 C2827 0.930 . S
H2885 C2829 0.929 . S
H2886 C2830 0.930 . S
H2887 C2831 0.930 . S
H2888 C2834 0.930 . S
H2889 C2837 0.929 . S
H2890 C2842 0.929 . S
H2891 C2843 0.930 . S
H2892 C2850 0.929 . S
H2893 C2851 0.930 . S
H2894 C2852 0.930 . S
H2895 C2853 0.930 . S
H2896 C2855 0.929 . S
H2897 C2856 0.930 . S
H2898 C2857 0.930 . S
H2899 C2858 0.930 . S
H2900 C2862 0.929 . S
H2901 C2864 0.930 . S
H2902 C2870 0.929 . S
H2903 C2871 0.930 . S
Li2904 N2921 1.990 . S
Li2904 O2964 1.956 . S
Li2904 O2965 1.970 . S
Li2904 O2966 1.961 . S
Li2905 N2929 1.990 . S
Li2905 O2964 1.970 . S
Li2905 O2965 1.956 . S
Li2905 O2967 1.961 . S
Li2906 N2951 1.990 . S
Li2906 O2964 1.961 . S
Li2906 O2966 1.956 . S
Li2906 O2967 1.970 . S
Li2907 N2957 1.990 . S
Li2907 O2965 1.961 . S
Li2907 O2966 1.970 . S
Li2907 O2967 1.956 . S
C2908 C2910 1.348 . S
C2908 C2911 1.356 . S
C2908 O2964 1.325 . S
N2909 C2912 1.314 . S
N2909 C2913 1.279 . S
C2910 C2908 1.348 . S
C2910 C2912 1.353 . S
C2910 H2968 0.929 . S
C2911 C2908 1.356 . S
C2911 C2913 1.358 . S
C2911 H2969 0.930 . S
C2912 N2909 1.314 . S
C2912 C2910 1.353 . S
C2912 H2970 0.930 . S
C2913 N2909 1.279 . S
C2913 C2911 1.358 . S
C2913 H2971 0.930 . S
C2914 C2917 1.348 . S
C2914 C2918 1.356 . S
C2914 O2965 1.325 . S
C2915 N2916 1.279 . S
C2915 C2918 1.358 . S
C2915 H2972 0.930 . S
N2916 C2915 1.279 . S
N2916 C2919 1.314 . S
C2917 C2914 1.348 . S
C2917 C2919 1.353 . S
C2917 H2973 0.929 . S
C2918 C2914 1.356 . S
C2918 C2915 1.358 . S
C2918 H2974 0.930 . S
C2919 N2916 1.314 . S
C2919 C2917 1.353 . S
C2919 H2975 0.930 . S
C2920 N2921 1.314 . S
C2920 C2925 1.353 . S
C2920 H2926 0.930 . S
N2921 Li2904 1.990 . S
N2921 C2920 1.314 . S
N2921 C2923 1.279 . S
C2922 C2923 1.358 . S
C2922 C2924 1.356 . S
C2922 H2976 0.930 . S
C2923 N2921 1.279 . S
C2923 C2922 1.358 . S
C2923 H2927 0.930 . S
C2924 C2922 1.356 . S
C2924 C2925 1.348 . S
C2925 C2920 1.353 . S
C2925 C2924 1.348 . S
C2925 H2977 0.929 . S
H2926 C2920 0.930 . S
H2927 C2923 0.930 . S
C2928 N2929 1.314 . S
C2928 C2930 1.353 . S
C2928 H2934 0.930 . S
N2929 Li2905 1.990 . S
N2929 C2928 1.314 . S
N2929 C2932 1.279 . S
C2930 C2928 1.353 . S
C2930 C2933 1.348 . S
C2930 H2978 0.929 . S
C2931 C2932 1.358 . S
C2931 C2933 1.356 . S
C2931 H2979 0.930 . S
C2932 N2929 1.279 . S
C2932 C2931 1.358 . S
C2932 H2935 0.930 . S
C2933 C2930 1.348 . S
C2933 C2931 1.356 . S
H2934 C2928 0.930 . S
H2935 C2932 0.930 . S
C2936 C2938 1.348 . S
C2936 C2939 1.356 . S
C2936 O2966 1.325 . S
N2937 C2940 1.314 . S
N2937 C2941 1.279 . S
C2938 C2936 1.348 . S
C2938 C2940 1.353 . S
C2938 H2980 0.929 . S
C2939 C2936 1.356 . S
C2939 C2941 1.358 . S
C2939 H2981 0.930 . S
C2940 N2937 1.314 . S
C2940 C2938 1.353 . S
C2940 H2982 0.930 . S
C2941 N2937 1.279 . S
C2941 C2939 1.358 . S
C2941 H2983 0.930 . S
C2942 C2943 1.348 . S
C2942 C2944 1.356 . S
C2942 O2967 1.325 . S
C2943 C2942 1.348 . S
C2943 C2945 1.353 . S
C2943 H2984 0.929 . S
C2944 C2942 1.356 . S
C2944 C2946 1.358 . S
C2944 H2985 0.930 . S
C2945 C2943 1.353 . S
C2945 N2947 1.314 . S
C2945 H2986 0.930 . S
C2946 C2944 1.358 . S
C2946 N2947 1.279 . S
C2946 H2987 0.930 . S
N2947 C2945 1.314 . S
N2947 C2946 1.279 . S
C2948 C2950 1.353 . S
C2948 N2951 1.314 . S
C2948 H2954 0.930 . S
C2949 N2951 1.279 . S
C2949 C2952 1.358 . S
C2949 H2955 0.930 . S
C2950 C2948 1.353 . S
C2950 C2953 1.348 . S
C2950 H2988 0.929 . S
N2951 Li2906 1.990 . S
N2951 C2948 1.314 . S
N2951 C2949 1.279 . S
C2952 C2949 1.358 . S
C2952 C2953 1.356 . S
C2952 H2989 0.930 . S
C2953 C2950 1.348 . S
C2953 C2952 1.356 . S
H2954 C2948 0.930 . S
H2955 C2949 0.930 . S
C2956 N2957 1.314 . S
C2956 C2958 1.353 . S
C2956 H2962 0.930 . S
N2957 Li2907 1.990 . S
N2957 C2956 1.314 . S
N2957 C2960 1.279 . S
C2958 C2956 1.353 . S
C2958 C2961 1.348 . S
C2958 H2990 0.929 . S
C2959 C2960 1.358 . S
C2959 C2961 1.356 . S
C2959 H2991 0.930 . S
C2960 N2957 1.279 . S
C2960 C2959 1.358 . S
C2960 H2963 0.930 . S
C2961 C2958 1.348 . S
C2961 C2959 1.356 . S
H2962 C2956 0.930 . S
H2963 C2960 0.930 . S
O2964 Li2904 1.956 . S
O2964 Li2905 1.970 . S
O2964 Li2906 1.961 . S
O2964 C2908 1.325 . S
O2965 Li2904 1.970 . S
O2965 Li2905 1.956 . S
O2965 Li2907 1.961 . S
O2965 C2914 1.325 . S
O2966 Li2904 1.961 . S
O2966 Li2906 1.956 . S
O2966 Li2907 1.970 . S
O2966 C2936 1.325 . S
O2967 Li2905 1.961 . S
O2967 Li2906 1.970 . S
O2967 Li2907 1.956 . S
O2967 C2942 1.325 . S
H2968 C2910 0.929 . S
H2969 C2911 0.930 . S
H2970 C2912 0.930 . S
H2971 C2913 0.930 . S
H2972 C2915 0.930 . S
H2973 C2917 0.929 . S
H2974 C2918 0.930 . S
H2975 C2919 0.930 . S
H2976 C2922 0.930 . S
H2977 C2925 0.929 . S
H2978 C2930 0.929 . S
H2979 C2931 0.930 . S
H2980 C2938 0.929 . S
H2981 C2939 0.930 . S
H2982 C2940 0.930 . S
H2983 C2941 0.930 . S
H2984 C2943 0.929 . S
H2985 C2944 0.930 . S
H2986 C2945 0.930 . S
H2987 C2946 0.930 . S
H2988 C2950 0.929 . S
H2989 C2952 0.930 . S
H2990 C2958 0.929 . S
H2991 C2959 0.930 . S
Li2992 N3009 1.990 . S
Li2992 O3052 1.956 . S
Li2992 O3053 1.970 . S
Li2992 O3054 1.961 . S
Li2993 N3017 1.990 . S
Li2993 O3052 1.970 . S
Li2993 O3053 1.956 . S
Li2993 O3055 1.961 . S
Li2994 N3039 1.990 . S
Li2994 O3052 1.961 . S
Li2994 O3054 1.956 . S
Li2994 O3055 1.970 . S
Li2995 N3045 1.990 . S
Li2995 O3053 1.961 . S
Li2995 O3054 1.970 . S
Li2995 O3055 1.956 . S
C2996 C2998 1.348 . S
C2996 C2999 1.356 . S
C2996 O3052 1.325 . S
N2997 C3000 1.314 . S
N2997 C3001 1.279 . S
C2998 C2996 1.348 . S
C2998 C3000 1.353 . S
C2998 H3056 0.929 . S
C2999 C2996 1.356 . S
C2999 C3001 1.358 . S
C2999 H3057 0.930 . S
C3000 N2997 1.314 . S
C3000 C2998 1.353 . S
C3000 H3058 0.930 . S
C3001 N2997 1.279 . S
C3001 C2999 1.358 . S
C3001 H3059 0.930 . S
C3002 C3005 1.348 . S
C3002 C3006 1.356 . S
C3002 O3053 1.325 . S
C3003 N3004 1.279 . S
C3003 C3006 1.358 . S
C3003 H3060 0.930 . S
N3004 C3003 1.279 . S
N3004 C3007 1.314 . S
C3005 C3002 1.348 . S
C3005 C3007 1.353 . S
C3005 H3061 0.929 . S
C3006 C3002 1.356 . S
C3006 C3003 1.358 . S
C3006 H3062 0.930 . S
C3007 N3004 1.314 . S
C3007 C3005 1.353 . S
C3007 H3063 0.930 . S
C3008 N3009 1.314 . S
C3008 C3013 1.353 . S
C3008 H3014 0.930 . S
N3009 Li2992 1.990 . S
N3009 C3008 1.314 . S
N3009 C3011 1.279 . S
C3010 C3011 1.358 . S
C3010 C3012 1.356 . S
C3010 H3064 0.930 . S
C3011 N3009 1.279 . S
C3011 C3010 1.358 . S
C3011 H3015 0.930 . S
C3012 C3010 1.356 . S
C3012 C3013 1.348 . S
C3013 C3008 1.353 . S
C3013 C3012 1.348 . S
C3013 H3065 0.929 . S
H3014 C3008 0.930 . S
H3015 C3011 0.930 . S
C3016 N3017 1.314 . S
C3016 C3018 1.353 . S
C3016 H3022 0.930 . S
N3017 Li2993 1.990 . S
N3017 C3016 1.314 . S
N3017 C3020 1.279 . S
C3018 C3016 1.353 . S
C3018 C3021 1.348 . S
C3018 H3066 0.929 . S
C3019 C3020 1.358 . S
C3019 C3021 1.356 . S
C3019 H3067 0.930 . S
C3020 N3017 1.279 . S
C3020 C3019 1.358 . S
C3020 H3023 0.930 . S
C3021 C3018 1.348 . S
C3021 C3019 1.356 . S
H3022 C3016 0.930 . S
H3023 C3020 0.930 . S
C3024 C3026 1.348 . S
C3024 C3027 1.356 . S
C3024 O3054 1.325 . S
N3025 C3028 1.314 . S
N3025 C3029 1.279 . S
C3026 C3024 1.348 . S
C3026 C3028 1.353 . S
C3026 H3068 0.929 . S
C3027 C3024 1.356 . S
C3027 C3029 1.358 . S
C3027 H3069 0.930 . S
C3028 N3025 1.314 . S
C3028 C3026 1.353 . S
C3028 H3070 0.930 . S
C3029 N3025 1.279 . S
C3029 C3027 1.358 . S
C3029 H3071 0.930 . S
C3030 C3031 1.348 . S
C3030 C3032 1.356 . S
C3030 O3055 1.325 . S
C3031 C3030 1.348 . S
C3031 C3033 1.353 . S
C3031 H3072 0.929 . S
C3032 C3030 1.356 . S
C3032 C3034 1.358 . S
C3032 H3073 0.930 . S
C3033 C3031 1.353 . S
C3033 N3035 1.314 . S
C3033 H3074 0.930 . S
C3034 C3032 1.358 . S
C3034 N3035 1.279 . S
C3034 H3075 0.930 . S
N3035 C3033 1.314 . S
N3035 C3034 1.279 . S
C3036 C3038 1.353 . S
C3036 N3039 1.314 . S
C3036 H3042 0.930 . S
C3037 N3039 1.279 . S
C3037 C3040 1.358 . S
C3037 H3043 0.930 . S
C3038 C3036 1.353 . S
C3038 C3041 1.348 . S
C3038 H3076 0.929 . S
N3039 Li2994 1.990 . S
N3039 C3036 1.314 . S
N3039 C3037 1.279 . S
C3040 C3037 1.358 . S
C3040 C3041 1.356 . S
C3040 H3077 0.930 . S
C3041 C3038 1.348 . S
C3041 C3040 1.356 . S
H3042 C3036 0.930 . S
H3043 C3037 0.930 . S
C3044 N3045 1.314 . S
C3044 C3046 1.353 . S
C3044 H3050 0.930 . S
N3045 Li2995 1.990 . S
N3045 C3044 1.314 . S
N3045 C3048 1.279 . S
C3046 C3044 1.353 . S
C3046 C3049 1.348 . S
C3046 H3078 0.929 . S
C3047 C3048 1.358 . S
C3047 C3049 1.356 . S
C3047 H3079 0.930 . S
C3048 N3045 1.279 . S
C3048 C3047 1.358 . S
C3048 H3051 0.930 . S
C3049 C3046 1.348 . S
C3049 C3047 1.356 . S
H3050 C3044 0.930 . S
H3051 C3048 0.930 . S
O3052 Li2992 1.956 . S
O3052 Li2993 1.970 . S
O3052 Li2994 1.961 . S
O3052 C2996 1.325 . S
O3053 Li2992 1.970 . S
O3053 Li2993 1.956 . S
O3053 Li2995 1.961 . S
O3053 C3002 1.325 . S
O3054 Li2992 1.961 . S
O3054 Li2994 1.956 . S
O3054 Li2995 1.970 . S
O3054 C3024 1.325 . S
O3055 Li2993 1.961 . S
O3055 Li2994 1.970 . S
O3055 Li2995 1.956 . S
O3055 C3030 1.325 . S
H3056 C2998 0.929 . S
H3057 C2999 0.930 . S
H3058 C3000 0.930 . S
H3059 C3001 0.930 . S
H3060 C3003 0.930 . S
H3061 C3005 0.929 . S
H3062 C3006 0.930 . S
H3063 C3007 0.930 . S
H3064 C3010 0.930 . S
H3065 C3013 0.929 . S
H3066 C3018 0.929 . S
H3067 C3019 0.930 . S
H3068 C3026 0.929 . S
H3069 C3027 0.930 . S
H3070 C3028 0.930 . S
H3071 C3029 0.930 . S
H3072 C3031 0.929 . S
H3073 C3032 0.930 . S
H3074 C3033 0.930 . S
H3075 C3034 0.930 . S
H3076 C3038 0.929 . S
H3077 C3040 0.930 . S
H3078 C3046 0.929 . S
H3079 C3047 0.930 . S
Li3080 N3097 1.990 . S
Li3080 O3140 1.956 . S
Li3080 O3141 1.970 . S
Li3080 O3142 1.961 . S
Li3081 N3105 1.990 . S
Li3081 O3140 1.970 . S
Li3081 O3141 1.956 . S
Li3081 O3143 1.961 . S
Li3082 N3127 1.990 . S
Li3082 O3140 1.961 . S
Li3082 O3142 1.956 . S
Li3082 O3143 1.970 . S
Li3083 N3133 1.990 . S
Li3083 O3141 1.961 . S
Li3083 O3142 1.970 . S
Li3083 O3143 1.956 . S
C3084 C3086 1.348 . S
C3084 C3087 1.356 . S
C3084 O3140 1.325 . S
N3085 C3088 1.314 . S
N3085 C3089 1.279 . S
C3086 C3084 1.348 . S
C3086 C3088 1.353 . S
C3086 H3144 0.929 . S
C3087 C3084 1.356 . S
C3087 C3089 1.358 . S
C3087 H3145 0.930 . S
C3088 N3085 1.314 . S
C3088 C3086 1.353 . S
C3088 H3146 0.930 . S
C3089 N3085 1.279 . S
C3089 C3087 1.358 . S
C3089 H3147 0.930 . S
C3090 C3093 1.348 . S
C3090 C3094 1.356 . S
C3090 O3141 1.325 . S
C3091 N3092 1.279 . S
C3091 C3094 1.358 . S
C3091 H3148 0.930 . S
N3092 C3091 1.279 . S
N3092 C3095 1.314 . S
C3093 C3090 1.348 . S
C3093 C3095 1.353 . S
C3093 H3149 0.929 . S
C3094 C3090 1.356 . S
C3094 C3091 1.358 . S
C3094 H3150 0.930 . S
C3095 N3092 1.314 . S
C3095 C3093 1.353 . S
C3095 H3151 0.930 . S
C3096 N3097 1.314 . S
C3096 C3101 1.353 . S
C3096 H3102 0.930 . S
N3097 Li3080 1.990 . S
N3097 C3096 1.314 . S
N3097 C3099 1.279 . S
C3098 C3099 1.358 . S
C3098 C3100 1.356 . S
C3098 H3152 0.930 . S
C3099 N3097 1.279 . S
C3099 C3098 1.358 . S
C3099 H3103 0.930 . S
C3100 C3098 1.356 . S
C3100 C3101 1.348 . S
C3101 C3096 1.353 . S
C3101 C3100 1.348 . S
C3101 H3153 0.929 . S
H3102 C3096 0.930 . S
H3103 C3099 0.930 . S
C3104 N3105 1.314 . S
C3104 C3106 1.353 . S
C3104 H3110 0.930 . S
N3105 Li3081 1.990 . S
N3105 C3104 1.314 . S
N3105 C3108 1.279 . S
C3106 C3104 1.353 . S
C3106 C3109 1.348 . S
C3106 H3154 0.929 . S
C3107 C3108 1.358 . S
C3107 C3109 1.356 . S
C3107 H3155 0.930 . S
C3108 N3105 1.279 . S
C3108 C3107 1.358 . S
C3108 H3111 0.930 . S
C3109 C3106 1.348 . S
C3109 C3107 1.356 . S
H3110 C3104 0.930 . S
H3111 C3108 0.930 . S
C3112 C3114 1.348 . S
C3112 C3115 1.356 . S
C3112 O3142 1.325 . S
N3113 C3116 1.314 . S
N3113 C3117 1.279 . S
C3114 C3112 1.348 . S
C3114 C3116 1.353 . S
C3114 H3156 0.929 . S
C3115 C3112 1.356 . S
C3115 C3117 1.358 . S
C3115 H3157 0.930 . S
C3116 N3113 1.314 . S
C3116 C3114 1.353 . S
C3116 H3158 0.930 . S
C3117 N3113 1.279 . S
C3117 C3115 1.358 . S
C3117 H3159 0.930 . S
C3118 C3119 1.348 . S
C3118 C3120 1.356 . S
C3118 O3143 1.325 . S
C3119 C3118 1.348 . S
C3119 C3121 1.353 . S
C3119 H3160 0.929 . S
C3120 C3118 1.356 . S
C3120 C3122 1.358 . S
C3120 H3161 0.930 . S
C3121 C3119 1.353 . S
C3121 N3123 1.314 . S
C3121 H3162 0.930 . S
C3122 C3120 1.358 . S
C3122 N3123 1.279 . S
C3122 H3163 0.930 . S
N3123 C3121 1.314 . S
N3123 C3122 1.279 . S
C3124 C3126 1.353 . S
C3124 N3127 1.314 . S
C3124 H3130 0.930 . S
C3125 N3127 1.279 . S
C3125 C3128 1.358 . S
C3125 H3131 0.930 . S
C3126 C3124 1.353 . S
C3126 C3129 1.348 . S
C3126 H3164 0.929 . S
N3127 Li3082 1.990 . S
N3127 C3124 1.314 . S
N3127 C3125 1.279 . S
C3128 C3125 1.358 . S
C3128 C3129 1.356 . S
C3128 H3165 0.930 . S
C3129 C3126 1.348 . S
C3129 C3128 1.356 . S
H3130 C3124 0.930 . S
H3131 C3125 0.930 . S
C3132 N3133 1.314 . S
C3132 C3134 1.353 . S
C3132 H3138 0.930 . S
N3133 Li3083 1.990 . S
N3133 C3132 1.314 . S
N3133 C3136 1.279 . S
C3134 C3132 1.353 . S
C3134 C3137 1.348 . S
C3134 H3166 0.929 . S
C3135 C3136 1.358 . S
C3135 C3137 1.356 . S
C3135 H3167 0.930 . S
C3136 N3133 1.279 . S
C3136 C3135 1.358 . S
C3136 H3139 0.930 . S
C3137 C3134 1.348 . S
C3137 C3135 1.356 . S
H3138 C3132 0.930 . S
H3139 C3136 0.930 . S
O3140 Li3080 1.956 . S
O3140 Li3081 1.970 . S
O3140 Li3082 1.961 . S
O3140 C3084 1.325 . S
O3141 Li3080 1.970 . S
O3141 Li3081 1.956 . S
O3141 Li3083 1.961 . S
O3141 C3090 1.325 . S
O3142 Li3080 1.961 . S
O3142 Li3082 1.956 . S
O3142 Li3083 1.970 . S
O3142 C3112 1.325 . S
O3143 Li3081 1.961 . S
O3143 Li3082 1.970 . S
O3143 Li3083 1.956 . S
O3143 C3118 1.325 . S
H3144 C3086 0.929 . S
H3145 C3087 0.930 . S
H3146 C3088 0.930 . S
H3147 C3089 0.930 . S
H3148 C3091 0.930 . S
H3149 C3093 0.929 . S
H3150 C3094 0.930 . S
H3151 C3095 0.930 . S
H3152 C3098 0.930 . S
H3153 C3101 0.929 . S
H3154 C3106 0.929 . S
H3155 C3107 0.930 . S
H3156 C3114 0.929 . S
H3157 C3115 0.930 . S
H3158 C3116 0.930 . S
H3159 C3117 0.930 . S
H3160 C3119 0.929 . S
H3161 C3120 0.930 . S
H3162 C3121 0.930 . S
H3163 C3122 0.930 . S
H3164 C3126 0.929 . S
H3165 C3128 0.930 . S
H3166 C3134 0.929 . S
H3167 C3135 0.930 . S
Li3168 N3185 1.990 . S
Li3168 O3228 1.956 . S
Li3168 O3229 1.970 . S
Li3168 O3230 1.961 . S
Li3169 N3193 1.990 . S
Li3169 O3228 1.970 . S
Li3169 O3229 1.956 . S
Li3169 O3231 1.961 . S
Li3170 N3215 1.990 . S
Li3170 O3228 1.961 . S
Li3170 O3230 1.956 . S
Li3170 O3231 1.970 . S
Li3171 N3221 1.990 . S
Li3171 O3229 1.961 . S
Li3171 O3230 1.970 . S
Li3171 O3231 1.956 . S
C3172 C3174 1.348 . S
C3172 C3175 1.356 . S
C3172 O3228 1.325 . S
N3173 C3176 1.314 . S
N3173 C3177 1.279 . S
C3174 C3172 1.348 . S
C3174 C3176 1.353 . S
C3174 H3232 0.929 . S
C3175 C3172 1.356 . S
C3175 C3177 1.358 . S
C3175 H3233 0.930 . S
C3176 N3173 1.314 . S
C3176 C3174 1.353 . S
C3176 H3234 0.930 . S
C3177 N3173 1.279 . S
C3177 C3175 1.358 . S
C3177 H3235 0.930 . S
C3178 C3181 1.348 . S
C3178 C3182 1.356 . S
C3178 O3229 1.325 . S
C3179 N3180 1.279 . S
C3179 C3182 1.358 . S
C3179 H3236 0.930 . S
N3180 C3179 1.279 . S
N3180 C3183 1.314 . S
C3181 C3178 1.348 . S
C3181 C3183 1.353 . S
C3181 H3237 0.929 . S
C3182 C3178 1.356 . S
C3182 C3179 1.358 . S
C3182 H3238 0.930 . S
C3183 N3180 1.314 . S
C3183 C3181 1.353 . S
C3183 H3239 0.930 . S
C3184 N3185 1.314 . S
C3184 C3189 1.353 . S
C3184 H3190 0.930 . S
N3185 Li3168 1.990 . S
N3185 C3184 1.314 . S
N3185 C3187 1.279 . S
C3186 C3187 1.358 . S
C3186 C3188 1.356 . S
C3186 H3240 0.930 . S
C3187 N3185 1.279 . S
C3187 C3186 1.358 . S
C3187 H3191 0.930 . S
C3188 C3186 1.356 . S
C3188 C3189 1.348 . S
C3189 C3184 1.353 . S
C3189 C3188 1.348 . S
C3189 H3241 0.929 . S
H3190 C3184 0.930 . S
H3191 C3187 0.930 . S
C3192 N3193 1.314 . S
C3192 C3194 1.353 . S
C3192 H3198 0.930 . S
N3193 Li3169 1.990 . S
N3193 C3192 1.314 . S
N3193 C3196 1.279 . S
C3194 C3192 1.353 . S
C3194 C3197 1.348 . S
C3194 H3242 0.929 . S
C3195 C3196 1.358 . S
C3195 C3197 1.356 . S
C3195 H3243 0.930 . S
C3196 N3193 1.279 . S
C3196 C3195 1.358 . S
C3196 H3199 0.930 . S
C3197 C3194 1.348 . S
C3197 C3195 1.356 . S
H3198 C3192 0.930 . S
H3199 C3196 0.930 . S
C3200 C3202 1.348 . S
C3200 C3203 1.356 . S
C3200 O3230 1.325 . S
N3201 C3204 1.314 . S
N3201 C3205 1.279 . S
C3202 C3200 1.348 . S
C3202 C3204 1.353 . S
C3202 H3244 0.929 . S
C3203 C3200 1.356 . S
C3203 C3205 1.358 . S
C3203 H3245 0.930 . S
C3204 N3201 1.314 . S
C3204 C3202 1.353 . S
C3204 H3246 0.930 . S
C3205 N3201 1.279 . S
C3205 C3203 1.358 . S
C3205 H3247 0.930 . S
C3206 C3207 1.348 . S
C3206 C3208 1.356 . S
C3206 O3231 1.325 . S
C3207 C3206 1.348 . S
C3207 C3209 1.353 . S
C3207 H3248 0.929 . S
C3208 C3206 1.356 . S
C3208 C3210 1.358 . S
C3208 H3249 0.930 . S
C3209 C3207 1.353 . S
C3209 N3211 1.314 . S
C3209 H3250 0.930 . S
C3210 C3208 1.358 . S
C3210 N3211 1.279 . S
C3210 H3251 0.930 . S
N3211 C3209 1.314 . S
N3211 C3210 1.279 . S
C3212 C3214 1.353 . S
C3212 N3215 1.314 . S
C3212 H3218 0.930 . S
C3213 N3215 1.279 . S
C3213 C3216 1.358 . S
C3213 H3219 0.930 . S
C3214 C3212 1.353 . S
C3214 C3217 1.348 . S
C3214 H3252 0.929 . S
N3215 Li3170 1.990 . S
N3215 C3212 1.314 . S
N3215 C3213 1.279 . S
C3216 C3213 1.358 . S
C3216 C3217 1.356 . S
C3216 H3253 0.930 . S
C3217 C3214 1.348 . S
C3217 C3216 1.356 . S
H3218 C3212 0.930 . S
H3219 C3213 0.930 . S
C3220 N3221 1.314 . S
C3220 C3222 1.353 . S
C3220 H3226 0.930 . S
N3221 Li3171 1.990 . S
N3221 C3220 1.314 . S
N3221 C3224 1.279 . S
C3222 C3220 1.353 . S
C3222 C3225 1.348 . S
C3222 H3254 0.929 . S
C3223 C3224 1.358 . S
C3223 C3225 1.356 . S
C3223 H3255 0.930 . S
C3224 N3221 1.279 . S
C3224 C3223 1.358 . S
C3224 H3227 0.930 . S
C3225 C3222 1.348 . S
C3225 C3223 1.356 . S
H3226 C3220 0.930 . S
H3227 C3224 0.930 . S
O3228 Li3168 1.956 . S
O3228 Li3169 1.970 . S
O3228 Li3170 1.961 . S
O3228 C3172 1.325 . S
O3229 Li3168 1.970 . S
O3229 Li3169 1.956 . S
O3229 Li3171 1.961 . S
O3229 C3178 1.325 . S
O3230 Li3168 1.961 . S
O3230 Li3170 1.956 . S
O3230 Li3171 1.970 . S
O3230 C3200 1.325 . S
O3231 Li3169 1.961 . S
O3231 Li3170 1.970 . S
O3231 Li3171 1.956 . S
O3231 C3206 1.325 . S
H3232 C3174 0.929 . S
H3233 C3175 0.930 . S
H3234 C3176 0.930 . S
H3235 C3177 0.930 . S
H3236 C3179 0.930 . S
H3237 C3181 0.929 . S
H3238 C3182 0.930 . S
H3239 C3183 0.930 . S
H3240 C3186 0.930 . S
H3241 C3189 0.929 . S
H3242 C3194 0.929 . S
H3243 C3195 0.930 . S
H3244 C3202 0.929 . S
H3245 C3203 0.930 . S
H3246 C3204 0.930 . S
H3247 C3205 0.930 . S
H3248 C3207 0.929 . S
H3249 C3208 0.930 . S
H3250 C3209 0.930 . S
H3251 C3210 0.930 . S
H3252 C3214 0.929 . S
H3253 C3216 0.930 . S
H3254 C3222 0.929 . S
H3255 C3223 0.930 . S
Li3256 N3273 1.990 . S
Li3256 O3316 1.956 . S
Li3256 O3317 1.970 . S
Li3256 O3318 1.961 . S
Li3257 N3281 1.990 . S
Li3257 O3316 1.970 . S
Li3257 O3317 1.956 . S
Li3257 O3319 1.961 . S
Li3258 N3303 1.990 . S
Li3258 O3316 1.961 . S
Li3258 O3318 1.956 . S
Li3258 O3319 1.970 . S
Li3259 N3309 1.990 . S
Li3259 O3317 1.961 . S
Li3259 O3318 1.970 . S
Li3259 O3319 1.956 . S
C3260 C3262 1.348 . S
C3260 C3263 1.356 . S
C3260 O3316 1.325 . S
N3261 C3264 1.314 . S
N3261 C3265 1.279 . S
C3262 C3260 1.348 . S
C3262 C3264 1.353 . S
C3262 H3320 0.929 . S
C3263 C3260 1.356 . S
C3263 C3265 1.358 . S
C3263 H3321 0.930 . S
C3264 N3261 1.314 . S
C3264 C3262 1.353 . S
C3264 H3322 0.930 . S
C3265 N3261 1.279 . S
C3265 C3263 1.358 . S
C3265 H3323 0.930 . S
C3266 C3269 1.348 . S
C3266 C3270 1.356 . S
C3266 O3317 1.325 . S
C3267 N3268 1.279 . S
C3267 C3270 1.358 . S
C3267 H3324 0.930 . S
N3268 C3267 1.279 . S
N3268 C3271 1.314 . S
C3269 C3266 1.348 . S
C3269 C3271 1.353 . S
C3269 H3325 0.929 . S
C3270 C3266 1.356 . S
C3270 C3267 1.358 . S
C3270 H3326 0.930 . S
C3271 N3268 1.314 . S
C3271 C3269 1.353 . S
C3271 H3327 0.930 . S
C3272 N3273 1.314 . S
C3272 C3277 1.353 . S
C3272 H3278 0.930 . S
N3273 Li3256 1.990 . S
N3273 C3272 1.314 . S
N3273 C3275 1.279 . S
C3274 C3275 1.358 . S
C3274 C3276 1.356 . S
C3274 H3328 0.930 . S
C3275 N3273 1.279 . S
C3275 C3274 1.358 . S
C3275 H3279 0.930 . S
C3276 C3274 1.356 . S
C3276 C3277 1.348 . S
C3277 C3272 1.353 . S
C3277 C3276 1.348 . S
C3277 H3329 0.929 . S
H3278 C3272 0.930 . S
H3279 C3275 0.930 . S
C3280 N3281 1.314 . S
C3280 C3282 1.353 . S
C3280 H3286 0.930 . S
N3281 Li3257 1.990 . S
N3281 C3280 1.314 . S
N3281 C3284 1.279 . S
C3282 C3280 1.353 . S
C3282 C3285 1.348 . S
C3282 H3330 0.929 . S
C3283 C3284 1.358 . S
C3283 C3285 1.356 . S
C3283 H3331 0.930 . S
C3284 N3281 1.279 . S
C3284 C3283 1.358 . S
C3284 H3287 0.930 . S
C3285 C3282 1.348 . S
C3285 C3283 1.356 . S
H3286 C3280 0.930 . S
H3287 C3284 0.930 . S
C3288 C3290 1.348 . S
C3288 C3291 1.356 . S
C3288 O3318 1.325 . S
N3289 C3292 1.314 . S
N3289 C3293 1.279 . S
C3290 C3288 1.348 . S
C3290 C3292 1.353 . S
C3290 H3332 0.929 . S
C3291 C3288 1.356 . S
C3291 C3293 1.358 . S
C3291 H3333 0.930 . S
C3292 N3289 1.314 . S
C3292 C3290 1.353 . S
C3292 H3334 0.930 . S
C3293 N3289 1.279 . S
C3293 C3291 1.358 . S
C3293 H3335 0.930 . S
C3294 C3295 1.348 . S
C3294 C3296 1.356 . S
C3294 O3319 1.325 . S
C3295 C3294 1.348 . S
C3295 C3297 1.353 . S
C3295 H3336 0.929 . S
C3296 C3294 1.356 . S
C3296 C3298 1.358 . S
C3296 H3337 0.930 . S
C3297 C3295 1.353 . S
C3297 N3299 1.314 . S
C3297 H3338 0.930 . S
C3298 C3296 1.358 . S
C3298 N3299 1.279 . S
C3298 H3339 0.930 . S
N3299 C3297 1.314 . S
N3299 C3298 1.279 . S
C3300 C3302 1.353 . S
C3300 N3303 1.314 . S
C3300 H3306 0.930 . S
C3301 N3303 1.279 . S
C3301 C3304 1.358 . S
C3301 H3307 0.930 . S
C3302 C3300 1.353 . S
C3302 C3305 1.348 . S
C3302 H3340 0.929 . S
N3303 Li3258 1.990 . S
N3303 C3300 1.314 . S
N3303 C3301 1.279 . S
C3304 C3301 1.358 . S
C3304 C3305 1.356 . S
C3304 H3341 0.930 . S
C3305 C3302 1.348 . S
C3305 C3304 1.356 . S
H3306 C3300 0.930 . S
H3307 C3301 0.930 . S
C3308 N3309 1.314 . S
C3308 C3310 1.353 . S
C3308 H3314 0.930 . S
N3309 Li3259 1.990 . S
N3309 C3308 1.314 . S
N3309 C3312 1.279 . S
C3310 C3308 1.353 . S
C3310 C3313 1.348 . S
C3310 H3342 0.929 . S
C3311 C3312 1.358 . S
C3311 C3313 1.356 . S
C3311 H3343 0.930 . S
C3312 N3309 1.279 . S
C3312 C3311 1.358 . S
C3312 H3315 0.930 . S
C3313 C3310 1.348 . S
C3313 C3311 1.356 . S
H3314 C3308 0.930 . S
H3315 C3312 0.930 . S
O3316 Li3256 1.956 . S
O3316 Li3257 1.970 . S
O3316 Li3258 1.961 . S
O3316 C3260 1.325 . S
O3317 Li3256 1.970 . S
O3317 Li3257 1.956 . S
O3317 Li3259 1.961 . S
O3317 C3266 1.325 . S
O3318 Li3256 1.961 . S
O3318 Li3258 1.956 . S
O3318 Li3259 1.970 . S
O3318 C3288 1.325 . S
O3319 Li3257 1.961 . S
O3319 Li3258 1.970 . S
O3319 Li3259 1.956 . S
O3319 C3294 1.325 . S
H3320 C3262 0.929 . S
H3321 C3263 0.930 . S
H3322 C3264 0.930 . S
H3323 C3265 0.930 . S
H3324 C3267 0.930 . S
H3325 C3269 0.929 . S
H3326 C3270 0.930 . S
H3327 C3271 0.930 . S
H3328 C3274 0.930 . S
H3329 C3277 0.929 . S
H3330 C3282 0.929 . S
H3331 C3283 0.930 . S
H3332 C3290 0.929 . S
H3333 C3291 0.930 . S
H3334 C3292 0.930 . S
H3335 C3293 0.930 . S
H3336 C3295 0.929 . S
H3337 C3296 0.930 . S
H3338 C3297 0.930 . S
H3339 C3298 0.930 . S
H3340 C3302 0.929 . S
H3341 C3304 0.930 . S
H3342 C3310 0.929 . S
H3343 C3311 0.930 . S
Li3344 N3361 1.990 . S
Li3344 O3404 1.956 . S
Li3344 O3405 1.970 . S
Li3344 O3406 1.961 . S
Li3345 N3369 1.990 . S
Li3345 O3404 1.970 . S
Li3345 O3405 1.956 . S
Li3345 O3407 1.961 . S
Li3346 N3391 1.990 . S
Li3346 O3404 1.961 . S
Li3346 O3406 1.956 . S
Li3346 O3407 1.970 . S
Li3347 N3397 1.990 . S
Li3347 O3405 1.961 . S
Li3347 O3406 1.970 . S
Li3347 O3407 1.956 . S
C3348 C3350 1.348 . S
C3348 C3351 1.356 . S
C3348 O3404 1.325 . S
N3349 C3352 1.314 . S
N3349 C3353 1.279 . S
C3350 C3348 1.348 . S
C3350 C3352 1.353 . S
C3350 H3408 0.929 . S
C3351 C3348 1.356 . S
C3351 C3353 1.358 . S
C3351 H3409 0.930 . S
C3352 N3349 1.314 . S
C3352 C3350 1.353 . S
C3352 H3410 0.930 . S
C3353 N3349 1.279 . S
C3353 C3351 1.358 . S
C3353 H3411 0.930 . S
C3354 C3357 1.348 . S
C3354 C3358 1.356 . S
C3354 O3405 1.325 . S
C3355 N3356 1.279 . S
C3355 C3358 1.358 . S
C3355 H3412 0.930 . S
N3356 C3355 1.279 . S
N3356 C3359 1.314 . S
C3357 C3354 1.348 . S
C3357 C3359 1.353 . S
C3357 H3413 0.929 . S
C3358 C3354 1.356 . S
C3358 C3355 1.358 . S
C3358 H3414 0.930 . S
C3359 N3356 1.314 . S
C3359 C3357 1.353 . S
C3359 H3415 0.930 . S
C3360 N3361 1.314 . S
C3360 C3365 1.353 . S
C3360 H3366 0.930 . S
N3361 Li3344 1.990 . S
N3361 C3360 1.314 . S
N3361 C3363 1.279 . S
C3362 C3363 1.358 . S
C3362 C3364 1.356 . S
C3362 H3416 0.930 . S
C3363 N3361 1.279 . S
C3363 C3362 1.358 . S
C3363 H3367 0.930 . S
C3364 C3362 1.356 . S
C3364 C3365 1.348 . S
C3365 C3360 1.353 . S
C3365 C3364 1.348 . S
C3365 H3417 0.929 . S
H3366 C3360 0.930 . S
H3367 C3363 0.930 . S
C3368 N3369 1.314 . S
C3368 C3370 1.353 . S
C3368 H3374 0.930 . S
N3369 Li3345 1.990 . S
N3369 C3368 1.314 . S
N3369 C3372 1.279 . S
C3370 C3368 1.353 . S
C3370 C3373 1.348 . S
C3370 H3418 0.929 . S
C3371 C3372 1.358 . S
C3371 C3373 1.356 . S
C3371 H3419 0.930 . S
C3372 N3369 1.279 . S
C3372 C3371 1.358 . S
C3372 H3375 0.930 . S
C3373 C3370 1.348 . S
C3373 C3371 1.356 . S
H3374 C3368 0.930 . S
H3375 C3372 0.930 . S
C3376 C3378 1.348 . S
C3376 C3379 1.356 . S
C3376 O3406 1.325 . S
N3377 C3380 1.314 . S
N3377 C3381 1.279 . S
C3378 C3376 1.348 . S
C3378 C3380 1.353 . S
C3378 H3420 0.929 . S
C3379 C3376 1.356 . S
C3379 C3381 1.358 . S
C3379 H3421 0.930 . S
C3380 N3377 1.314 . S
C3380 C3378 1.353 . S
C3380 H3422 0.930 . S
C3381 N3377 1.279 . S
C3381 C3379 1.358 . S
C3381 H3423 0.930 . S
C3382 C3383 1.348 . S
C3382 C3384 1.356 . S
C3382 O3407 1.325 . S
C3383 C3382 1.348 . S
C3383 C3385 1.353 . S
C3383 H3424 0.929 . S
C3384 C3382 1.356 . S
C3384 C3386 1.358 . S
C3384 H3425 0.930 . S
C3385 C3383 1.353 . S
C3385 N3387 1.314 . S
C3385 H3426 0.930 . S
C3386 C3384 1.358 . S
C3386 N3387 1.279 . S
C3386 H3427 0.930 . S
N3387 C3385 1.314 . S
N3387 C3386 1.279 . S
C3388 C3390 1.353 . S
C3388 N3391 1.314 . S
C3388 H3394 0.930 . S
C3389 N3391 1.279 . S
C3389 C3392 1.358 . S
C3389 H3395 0.930 . S
C3390 C3388 1.353 . S
C3390 C3393 1.348 . S
C3390 H3428 0.929 . S
N3391 Li3346 1.990 . S
N3391 C3388 1.314 . S
N3391 C3389 1.279 . S
C3392 C3389 1.358 . S
C3392 C3393 1.356 . S
C3392 H3429 0.930 . S
C3393 C3390 1.348 . S
C3393 C3392 1.356 . S
H3394 C3388 0.930 . S
H3395 C3389 0.930 . S
C3396 N3397 1.314 . S
C3396 C3398 1.353 . S
C3396 H3402 0.930 . S
N3397 Li3347 1.990 . S
N3397 C3396 1.314 . S
N3397 C3400 1.279 . S
C3398 C3396 1.353 . S
C3398 C3401 1.348 . S
C3398 H3430 0.929 . S
C3399 C3400 1.358 . S
C3399 C3401 1.356 . S
C3399 H3431 0.930 . S
C3400 N3397 1.279 . S
C3400 C3399 1.358 . S
C3400 H3403 0.930 . S
C3401 C3398 1.348 . S
C3401 C3399 1.356 . S
H3402 C3396 0.930 . S
H3403 C3400 0.930 . S
O3404 Li3344 1.956 . S
O3404 Li3345 1.970 . S
O3404 Li3346 1.961 . S
O3404 C3348 1.325 . S
O3405 Li3344 1.970 . S
O3405 Li3345 1.956 . S
O3405 Li3347 1.961 . S
O3405 C3354 1.325 . S
O3406 Li3344 1.961 . S
O3406 Li3346 1.956 . S
O3406 Li3347 1.970 . S
O3406 C3376 1.325 . S
O3407 Li3345 1.961 . S
O3407 Li3346 1.970 . S
O3407 Li3347 1.956 . S
O3407 C3382 1.325 . S
H3408 C3350 0.929 . S
H3409 C3351 0.930 . S
H3410 C3352 0.930 . S
H3411 C3353 0.930 . S
H3412 C3355 0.930 . S
H3413 C3357 0.929 . S
H3414 C3358 0.930 . S
H3415 C3359 0.930 . S
H3416 C3362 0.930 . S
H3417 C3365 0.929 . S
H3418 C3370 0.929 . S
H3419 C3371 0.930 . S
H3420 C3378 0.929 . S
H3421 C3379 0.930 . S
H3422 C3380 0.930 . S
H3423 C3381 0.930 . S
H3424 C3383 0.929 . S
H3425 C3384 0.930 . S
H3426 C3385 0.930 . S
H3427 C3386 0.930 . S
H3428 C3390 0.929 . S
H3429 C3392 0.930 . S
H3430 C3398 0.929 . S
H3431 C3399 0.930 . S
Li3432 N3449 1.990 . S
Li3432 O3492 1.956 . S
Li3432 O3493 1.970 . S
Li3432 O3494 1.961 . S
Li3433 N3457 1.990 . S
Li3433 O3492 1.970 . S
Li3433 O3493 1.956 . S
Li3433 O3495 1.961 . S
Li3434 N3479 1.990 . S
Li3434 O3492 1.961 . S
Li3434 O3494 1.956 . S
Li3434 O3495 1.970 . S
Li3435 N3485 1.990 . S
Li3435 O3493 1.961 . S
Li3435 O3494 1.970 . S
Li3435 O3495 1.956 . S
C3436 C3438 1.348 . S
C3436 C3439 1.356 . S
C3436 O3492 1.325 . S
N3437 C3440 1.314 . S
N3437 C3441 1.279 . S
C3438 C3436 1.348 . S
C3438 C3440 1.353 . S
C3438 H3496 0.929 . S
C3439 C3436 1.356 . S
C3439 C3441 1.358 . S
C3439 H3497 0.930 . S
C3440 N3437 1.314 . S
C3440 C3438 1.353 . S
C3440 H3498 0.930 . S
C3441 N3437 1.279 . S
C3441 C3439 1.358 . S
C3441 H3499 0.930 . S
C3442 C3445 1.348 . S
C3442 C3446 1.356 . S
C3442 O3493 1.325 . S
C3443 N3444 1.279 . S
C3443 C3446 1.358 . S
C3443 H3500 0.930 . S
N3444 C3443 1.279 . S
N3444 C3447 1.314 . S
C3445 C3442 1.348 . S
C3445 C3447 1.353 . S
C3445 H3501 0.929 . S
C3446 C3442 1.356 . S
C3446 C3443 1.358 . S
C3446 H3502 0.930 . S
C3447 N3444 1.314 . S
C3447 C3445 1.353 . S
C3447 H3503 0.930 . S
C3448 N3449 1.314 . S
C3448 C3453 1.353 . S
C3448 H3454 0.930 . S
N3449 Li3432 1.990 . S
N3449 C3448 1.314 . S
N3449 C3451 1.279 . S
C3450 C3451 1.358 . S
C3450 C3452 1.356 . S
C3450 H3504 0.930 . S
C3451 N3449 1.279 . S
C3451 C3450 1.358 . S
C3451 H3455 0.930 . S
C3452 C3450 1.356 . S
C3452 C3453 1.348 . S
C3453 C3448 1.353 . S
C3453 C3452 1.348 . S
C3453 H3505 0.929 . S
H3454 C3448 0.930 . S
H3455 C3451 0.930 . S
C3456 N3457 1.314 . S
C3456 C3458 1.353 . S
C3456 H3462 0.930 . S
N3457 Li3433 1.990 . S
N3457 C3456 1.314 . S
N3457 C3460 1.279 . S
C3458 C3456 1.353 . S
C3458 C3461 1.348 . S
C3458 H3506 0.929 . S
C3459 C3460 1.358 . S
C3459 C3461 1.356 . S
C3459 H3507 0.930 . S
C3460 N3457 1.279 . S
C3460 C3459 1.358 . S
C3460 H3463 0.930 . S
C3461 C3458 1.348 . S
C3461 C3459 1.356 . S
H3462 C3456 0.930 . S
H3463 C3460 0.930 . S
C3464 C3466 1.348 . S
C3464 C3467 1.356 . S
C3464 O3494 1.325 . S
N3465 C3468 1.314 . S
N3465 C3469 1.279 . S
C3466 C3464 1.348 . S
C3466 C3468 1.353 . S
C3466 H3508 0.929 . S
C3467 C3464 1.356 . S
C3467 C3469 1.358 . S
C3467 H3509 0.930 . S
C3468 N3465 1.314 . S
C3468 C3466 1.353 . S
C3468 H3510 0.930 . S
C3469 N3465 1.279 . S
C3469 C3467 1.358 . S
C3469 H3511 0.930 . S
C3470 C3471 1.348 . S
C3470 C3472 1.356 . S
C3470 O3495 1.325 . S
C3471 C3470 1.348 . S
C3471 C3473 1.353 . S
C3471 H3512 0.929 . S
C3472 C3470 1.356 . S
C3472 C3474 1.358 . S
C3472 H3513 0.930 . S
C3473 C3471 1.353 . S
C3473 N3475 1.314 . S
C3473 H3514 0.930 . S
C3474 C3472 1.358 . S
C3474 N3475 1.279 . S
C3474 H3515 0.930 . S
N3475 C3473 1.314 . S
N3475 C3474 1.279 . S
C3476 C3478 1.353 . S
C3476 N3479 1.314 . S
C3476 H3482 0.930 . S
C3477 N3479 1.279 . S
C3477 C3480 1.358 . S
C3477 H3483 0.930 . S
C3478 C3476 1.353 . S
C3478 C3481 1.348 . S
C3478 H3516 0.929 . S
N3479 Li3434 1.990 . S
N3479 C3476 1.314 . S
N3479 C3477 1.279 . S
C3480 C3477 1.358 . S
C3480 C3481 1.356 . S
C3480 H3517 0.930 . S
C3481 C3478 1.348 . S
C3481 C3480 1.356 . S
H3482 C3476 0.930 . S
H3483 C3477 0.930 . S
C3484 N3485 1.314 . S
C3484 C3486 1.353 . S
C3484 H3490 0.930 . S
N3485 Li3435 1.990 . S
N3485 C3484 1.314 . S
N3485 C3488 1.279 . S
C3486 C3484 1.353 . S
C3486 C3489 1.348 . S
C3486 H3518 0.929 . S
C3487 C3488 1.358 . S
C3487 C3489 1.356 . S
C3487 H3519 0.930 . S
C3488 N3485 1.279 . S
C3488 C3487 1.358 . S
C3488 H3491 0.930 . S
C3489 C3486 1.348 . S
C3489 C3487 1.356 . S
H3490 C3484 0.930 . S
H3491 C3488 0.930 . S
O3492 Li3432 1.956 . S
O3492 Li3433 1.970 . S
O3492 Li3434 1.961 . S
O3492 C3436 1.325 . S
O3493 Li3432 1.970 . S
O3493 Li3433 1.956 . S
O3493 Li3435 1.961 . S
O3493 C3442 1.325 . S
O3494 Li3432 1.961 . S
O3494 Li3434 1.956 . S
O3494 Li3435 1.970 . S
O3494 C3464 1.325 . S
O3495 Li3433 1.961 . S
O3495 Li3434 1.970 . S
O3495 Li3435 1.956 . S
O3495 C3470 1.325 . S
H3496 C3438 0.929 . S
H3497 C3439 0.930 . S
H3498 C3440 0.930 . S
H3499 C3441 0.930 . S
H3500 C3443 0.930 . S
H3501 C3445 0.929 . S
H3502 C3446 0.930 . S
H3503 C3447 0.930 . S
H3504 C3450 0.930 . S
H3505 C3453 0.929 . S
H3506 C3458 0.929 . S
H3507 C3459 0.930 . S
H3508 C3466 0.929 . S
H3509 C3467 0.930 . S
H3510 C3468 0.930 . S
H3511 C3469 0.930 . S
H3512 C3471 0.929 . S
H3513 C3472 0.930 . S
H3514 C3473 0.930 . S
H3515 C3474 0.930 . S
H3516 C3478 0.929 . S
H3517 C3480 0.930 . S
H3518 C3486 0.929 . S
H3519 C3487 0.930 . S
Li3520 N3537 1.990 . S
Li3520 O3580 1.956 . S
Li3520 O3581 1.970 . S
Li3520 O3582 1.961 . S
Li3521 N3545 1.990 . S
Li3521 O3580 1.970 . S
Li3521 O3581 1.956 . S
Li3521 O3583 1.961 . S
Li3522 N3567 1.990 . S
Li3522 O3580 1.961 . S
Li3522 O3582 1.956 . S
Li3522 O3583 1.970 . S
Li3523 N3573 1.990 . S
Li3523 O3581 1.961 . S
Li3523 O3582 1.970 . S
Li3523 O3583 1.956 . S
C3524 C3526 1.348 . S
C3524 C3527 1.356 . S
C3524 O3580 1.325 . S
N3525 C3528 1.314 . S
N3525 C3529 1.279 . S
C3526 C3524 1.348 . S
C3526 C3528 1.353 . S
C3526 H3584 0.929 . S
C3527 C3524 1.356 . S
C3527 C3529 1.358 . S
C3527 H3585 0.930 . S
C3528 N3525 1.314 . S
C3528 C3526 1.353 . S
C3528 H3586 0.930 . S
C3529 N3525 1.279 . S
C3529 C3527 1.358 . S
C3529 H3587 0.930 . S
C3530 C3533 1.348 . S
C3530 C3534 1.356 . S
C3530 O3581 1.325 . S
C3531 N3532 1.279 . S
C3531 C3534 1.358 . S
C3531 H3588 0.930 . S
N3532 C3531 1.279 . S
N3532 C3535 1.314 . S
C3533 C3530 1.348 . S
C3533 C3535 1.353 . S
C3533 H3589 0.929 . S
C3534 C3530 1.356 . S
C3534 C3531 1.358 . S
C3534 H3590 0.930 . S
C3535 N3532 1.314 . S
C3535 C3533 1.353 . S
C3535 H3591 0.930 . S
C3536 N3537 1.314 . S
C3536 C3541 1.353 . S
C3536 H3542 0.930 . S
N3537 Li3520 1.990 . S
N3537 C3536 1.314 . S
N3537 C3539 1.279 . S
C3538 C3539 1.358 . S
C3538 C3540 1.356 . S
C3538 H3592 0.930 . S
C3539 N3537 1.279 . S
C3539 C3538 1.358 . S
C3539 H3543 0.930 . S
C3540 C3538 1.356 . S
C3540 C3541 1.348 . S
C3541 C3536 1.353 . S
C3541 C3540 1.348 . S
C3541 H3593 0.929 . S
H3542 C3536 0.930 . S
H3543 C3539 0.930 . S
C3544 N3545 1.314 . S
C3544 C3546 1.353 . S
C3544 H3550 0.930 . S
N3545 Li3521 1.990 . S
N3545 C3544 1.314 . S
N3545 C3548 1.279 . S
C3546 C3544 1.353 . S
C3546 C3549 1.348 . S
C3546 H3594 0.929 . S
C3547 C3548 1.358 . S
C3547 C3549 1.356 . S
C3547 H3595 0.930 . S
C3548 N3545 1.279 . S
C3548 C3547 1.358 . S
C3548 H3551 0.930 . S
C3549 C3546 1.348 . S
C3549 C3547 1.356 . S
H3550 C3544 0.930 . S
H3551 C3548 0.930 . S
C3552 C3554 1.348 . S
C3552 C3555 1.356 . S
C3552 O3582 1.325 . S
N3553 C3556 1.314 . S
N3553 C3557 1.279 . S
C3554 C3552 1.348 . S
C3554 C3556 1.353 . S
C3554 H3596 0.929 . S
C3555 C3552 1.356 . S
C3555 C3557 1.358 . S
C3555 H3597 0.930 . S
C3556 N3553 1.314 . S
C3556 C3554 1.353 . S
C3556 H3598 0.930 . S
C3557 N3553 1.279 . S
C3557 C3555 1.358 . S
C3557 H3599 0.930 . S
C3558 C3559 1.348 . S
C3558 C3560 1.356 . S
C3558 O3583 1.325 . S
C3559 C3558 1.348 . S
C3559 C3561 1.353 . S
C3559 H3600 0.929 . S
C3560 C3558 1.356 . S
C3560 C3562 1.358 . S
C3560 H3601 0.930 . S
C3561 C3559 1.353 . S
C3561 N3563 1.314 . S
C3561 H3602 0.930 . S
C3562 C3560 1.358 . S
C3562 N3563 1.279 . S
C3562 H3603 0.930 . S
N3563 C3561 1.314 . S
N3563 C3562 1.279 . S
C3564 C3566 1.353 . S
C3564 N3567 1.314 . S
C3564 H3570 0.930 . S
C3565 N3567 1.279 . S
C3565 C3568 1.358 . S
C3565 H3571 0.930 . S
C3566 C3564 1.353 . S
C3566 C3569 1.348 . S
C3566 H3604 0.929 . S
N3567 Li3522 1.990 . S
N3567 C3564 1.314 . S
N3567 C3565 1.279 . S
C3568 C3565 1.358 . S
C3568 C3569 1.356 . S
C3568 H3605 0.930 . S
C3569 C3566 1.348 . S
C3569 C3568 1.356 . S
H3570 C3564 0.930 . S
H3571 C3565 0.930 . S
C3572 N3573 1.314 . S
C3572 C3574 1.353 . S
C3572 H3578 0.930 . S
N3573 Li3523 1.990 . S
N3573 C3572 1.314 . S
N3573 C3576 1.279 . S
C3574 C3572 1.353 . S
C3574 C3577 1.348 . S
C3574 H3606 0.929 . S
C3575 C3576 1.358 . S
C3575 C3577 1.356 . S
C3575 H3607 0.930 . S
C3576 N3573 1.279 . S
C3576 C3575 1.358 . S
C3576 H3579 0.930 . S
C3577 C3574 1.348 . S
C3577 C3575 1.356 . S
H3578 C3572 0.930 . S
H3579 C3576 0.930 . S
O3580 Li3520 1.956 . S
O3580 Li3521 1.970 . S
O3580 Li3522 1.961 . S
O3580 C3524 1.325 . S
O3581 Li3520 1.970 . S
O3581 Li3521 1.956 . S
O3581 Li3523 1.961 . S
O3581 C3530 1.325 . S
O3582 Li3520 1.961 . S
O3582 Li3522 1.956 . S
O3582 Li3523 1.970 . S
O3582 C3552 1.325 . S
O3583 Li3521 1.961 . S
O3583 Li3522 1.970 . S
O3583 Li3523 1.956 . S
O3583 C3558 1.325 . S
H3584 C3526 0.929 . S
H3585 C3527 0.930 . S
H3586 C3528 0.930 . S
H3587 C3529 0.930 . S
H3588 C3531 0.930 . S
H3589 C3533 0.929 . S
H3590 C3534 0.930 . S
H3591 C3535 0.930 . S
H3592 C3538 0.930 . S
H3593 C3541 0.929 . S
H3594 C3546 0.929 . S
H3595 C3547 0.930 . S
H3596 C3554 0.929 . S
H3597 C3555 0.930 . S
H3598 C3556 0.930 . S
H3599 C3557 0.930 . S
H3600 C3559 0.929 . S
H3601 C3560 0.930 . S
H3602 C3561 0.930 . S
H3603 C3562 0.930 . S
H3604 C3566 0.929 . S
H3605 C3568 0.930 . S
H3606 C3574 0.929 . S
H3607 C3575 0.930 . S
Li3608 N3625 1.990 . S
Li3608 O3668 1.956 . S
Li3608 O3669 1.970 . S
Li3608 O3670 1.961 . S
Li3609 N3633 1.990 . S
Li3609 O3668 1.970 . S
Li3609 O3669 1.956 . S
Li3609 O3671 1.961 . S
Li3610 N3655 1.990 . S
Li3610 O3668 1.961 . S
Li3610 O3670 1.956 . S
Li3610 O3671 1.970 . S
Li3611 N3661 1.990 . S
Li3611 O3669 1.961 . S
Li3611 O3670 1.970 . S
Li3611 O3671 1.956 . S
C3612 C3614 1.348 . S
C3612 C3615 1.356 . S
C3612 O3668 1.325 . S
N3613 C3616 1.314 . S
N3613 C3617 1.279 . S
C3614 C3612 1.348 . S
C3614 C3616 1.353 . S
C3614 H3672 0.929 . S
C3615 C3612 1.356 . S
C3615 C3617 1.358 . S
C3615 H3673 0.930 . S
C3616 N3613 1.314 . S
C3616 C3614 1.353 . S
C3616 H3674 0.930 . S
C3617 N3613 1.279 . S
C3617 C3615 1.358 . S
C3617 H3675 0.930 . S
C3618 C3621 1.348 . S
C3618 C3622 1.356 . S
C3618 O3669 1.325 . S
C3619 N3620 1.279 . S
C3619 C3622 1.358 . S
C3619 H3676 0.930 . S
N3620 C3619 1.279 . S
N3620 C3623 1.314 . S
C3621 C3618 1.348 . S
C3621 C3623 1.353 . S
C3621 H3677 0.929 . S
C3622 C3618 1.356 . S
C3622 C3619 1.358 . S
C3622 H3678 0.930 . S
C3623 N3620 1.314 . S
C3623 C3621 1.353 . S
C3623 H3679 0.930 . S
C3624 N3625 1.314 . S
C3624 C3629 1.353 . S
C3624 H3630 0.930 . S
N3625 Li3608 1.990 . S
N3625 C3624 1.314 . S
N3625 C3627 1.279 . S
C3626 C3627 1.358 . S
C3626 C3628 1.356 . S
C3626 H3680 0.930 . S
C3627 N3625 1.279 . S
C3627 C3626 1.358 . S
C3627 H3631 0.930 . S
C3628 C3626 1.356 . S
C3628 C3629 1.348 . S
C3629 C3624 1.353 . S
C3629 C3628 1.348 . S
C3629 H3681 0.929 . S
H3630 C3624 0.930 . S
H3631 C3627 0.930 . S
C3632 N3633 1.314 . S
C3632 C3634 1.353 . S
C3632 H3638 0.930 . S
N3633 Li3609 1.990 . S
N3633 C3632 1.314 . S
N3633 C3636 1.279 . S
C3634 C3632 1.353 . S
C3634 C3637 1.348 . S
C3634 H3682 0.929 . S
C3635 C3636 1.358 . S
C3635 C3637 1.356 . S
C3635 H3683 0.930 . S
C3636 N3633 1.279 . S
C3636 C3635 1.358 . S
C3636 H3639 0.930 . S
C3637 C3634 1.348 . S
C3637 C3635 1.356 . S
H3638 C3632 0.930 . S
H3639 C3636 0.930 . S
C3640 C3642 1.348 . S
C3640 C3643 1.356 . S
C3640 O3670 1.325 . S
N3641 C3644 1.314 . S
N3641 C3645 1.279 . S
C3642 C3640 1.348 . S
C3642 C3644 1.353 . S
C3642 H3684 0.929 . S
C3643 C3640 1.356 . S
C3643 C3645 1.358 . S
C3643 H3685 0.930 . S
C3644 N3641 1.314 . S
C3644 C3642 1.353 . S
C3644 H3686 0.930 . S
C3645 N3641 1.279 . S
C3645 C3643 1.358 . S
C3645 H3687 0.930 . S
C3646 C3647 1.348 . S
C3646 C3648 1.356 . S
C3646 O3671 1.325 . S
C3647 C3646 1.348 . S
C3647 C3649 1.353 . S
C3647 H3688 0.929 . S
C3648 C3646 1.356 . S
C3648 C3650 1.358 . S
C3648 H3689 0.930 . S
C3649 C3647 1.353 . S
C3649 N3651 1.314 . S
C3649 H3690 0.930 . S
C3650 C3648 1.358 . S
C3650 N3651 1.279 . S
C3650 H3691 0.930 . S
N3651 C3649 1.314 . S
N3651 C3650 1.279 . S
C3652 C3654 1.353 . S
C3652 N3655 1.314 . S
C3652 H3658 0.930 . S
C3653 N3655 1.279 . S
C3653 C3656 1.358 . S
C3653 H3659 0.930 . S
C3654 C3652 1.353 . S
C3654 C3657 1.348 . S
C3654 H3692 0.929 . S
N3655 Li3610 1.990 . S
N3655 C3652 1.314 . S
N3655 C3653 1.279 . S
C3656 C3653 1.358 . S
C3656 C3657 1.356 . S
C3656 H3693 0.930 . S
C3657 C3654 1.348 . S
C3657 C3656 1.356 . S
H3658 C3652 0.930 . S
H3659 C3653 0.930 . S
C3660 N3661 1.314 . S
C3660 C3662 1.353 . S
C3660 H3666 0.930 . S
N3661 Li3611 1.990 . S
N3661 C3660 1.314 . S
N3661 C3664 1.279 . S
C3662 C3660 1.353 . S
C3662 C3665 1.348 . S
C3662 H3694 0.929 . S
C3663 C3664 1.358 . S
C3663 C3665 1.356 . S
C3663 H3695 0.930 . S
C3664 N3661 1.279 . S
C3664 C3663 1.358 . S
C3664 H3667 0.930 . S
C3665 C3662 1.348 . S
C3665 C3663 1.356 . S
H3666 C3660 0.930 . S
H3667 C3664 0.930 . S
O3668 Li3608 1.956 . S
O3668 Li3609 1.970 . S
O3668 Li3610 1.961 . S
O3668 C3612 1.325 . S
O3669 Li3608 1.970 . S
O3669 Li3609 1.956 . S
O3669 Li3611 1.961 . S
O3669 C3618 1.325 . S
O3670 Li3608 1.961 . S
O3670 Li3610 1.956 . S
O3670 Li3611 1.970 . S
O3670 C3640 1.325 . S
O3671 Li3609 1.961 . S
O3671 Li3610 1.970 . S
O3671 Li3611 1.956 . S
O3671 C3646 1.325 . S
H3672 C3614 0.929 . S
H3673 C3615 0.930 . S
H3674 C3616 0.930 . S
H3675 C3617 0.930 . S
H3676 C3619 0.930 . S
H3677 C3621 0.929 . S
H3678 C3622 0.930 . S
H3679 C3623 0.930 . S
H3680 C3626 0.930 . S
H3681 C3629 0.929 . S
H3682 C3634 0.929 . S
H3683 C3635 0.930 . S
H3684 C3642 0.929 . S
H3685 C3643 0.930 . S
H3686 C3644 0.930 . S
H3687 C3645 0.930 . S
H3688 C3647 0.929 . S
H3689 C3648 0.930 . S
H3690 C3649 0.930 . S
H3691 C3650 0.930 . S
H3692 C3654 0.929 . S
H3693 C3656 0.930 . S
H3694 C3662 0.929 . S
H3695 C3663 0.930 . S
Li3696 N3713 1.990 . S
Li3696 O3756 1.956 . S
Li3696 O3757 1.970 . S
Li3696 O3758 1.961 . S
Li3697 N3721 1.990 . S
Li3697 O3756 1.970 . S
Li3697 O3757 1.956 . S
Li3697 O3759 1.961 . S
Li3698 N3743 1.990 . S
Li3698 O3756 1.961 . S
Li3698 O3758 1.956 . S
Li3698 O3759 1.970 . S
Li3699 N3749 1.990 . S
Li3699 O3757 1.961 . S
Li3699 O3758 1.970 . S
Li3699 O3759 1.956 . S
C3700 C3702 1.348 . S
C3700 C3703 1.356 . S
C3700 O3756 1.325 . S
N3701 C3704 1.314 . S
N3701 C3705 1.279 . S
C3702 C3700 1.348 . S
C3702 C3704 1.353 . S
C3702 H3760 0.929 . S
C3703 C3700 1.356 . S
C3703 C3705 1.358 . S
C3703 H3761 0.930 . S
C3704 N3701 1.314 . S
C3704 C3702 1.353 . S
C3704 H3762 0.930 . S
C3705 N3701 1.279 . S
C3705 C3703 1.358 . S
C3705 H3763 0.930 . S
C3706 C3709 1.348 . S
C3706 C3710 1.356 . S
C3706 O3757 1.325 . S
C3707 N3708 1.279 . S
C3707 C3710 1.358 . S
C3707 H3764 0.930 . S
N3708 C3707 1.279 . S
N3708 C3711 1.314 . S
C3709 C3706 1.348 . S
C3709 C3711 1.353 . S
C3709 H3765 0.929 . S
C3710 C3706 1.356 . S
C3710 C3707 1.358 . S
C3710 H3766 0.930 . S
C3711 N3708 1.314 . S
C3711 C3709 1.353 . S
C3711 H3767 0.930 . S
C3712 N3713 1.314 . S
C3712 C3717 1.353 . S
C3712 H3718 0.930 . S
N3713 Li3696 1.990 . S
N3713 C3712 1.314 . S
N3713 C3715 1.279 . S
C3714 C3715 1.358 . S
C3714 C3716 1.356 . S
C3714 H3768 0.930 . S
C3715 N3713 1.279 . S
C3715 C3714 1.358 . S
C3715 H3719 0.930 . S
C3716 C3714 1.356 . S
C3716 C3717 1.348 . S
C3717 C3712 1.353 . S
C3717 C3716 1.348 . S
C3717 H3769 0.929 . S
H3718 C3712 0.930 . S
H3719 C3715 0.930 . S
C3720 N3721 1.314 . S
C3720 C3722 1.353 . S
C3720 H3726 0.930 . S
N3721 Li3697 1.990 . S
N3721 C3720 1.314 . S
N3721 C3724 1.279 . S
C3722 C3720 1.353 . S
C3722 C3725 1.348 . S
C3722 H3770 0.929 . S
C3723 C3724 1.358 . S
C3723 C3725 1.356 . S
C3723 H3771 0.930 . S
C3724 N3721 1.279 . S
C3724 C3723 1.358 . S
C3724 H3727 0.930 . S
C3725 C3722 1.348 . S
C3725 C3723 1.356 . S
H3726 C3720 0.930 . S
H3727 C3724 0.930 . S
C3728 C3730 1.348 . S
C3728 C3731 1.356 . S
C3728 O3758 1.325 . S
N3729 C3732 1.314 . S
N3729 C3733 1.279 . S
C3730 C3728 1.348 . S
C3730 C3732 1.353 . S
C3730 H3772 0.929 . S
C3731 C3728 1.356 . S
C3731 C3733 1.358 . S
C3731 H3773 0.930 . S
C3732 N3729 1.314 . S
C3732 C3730 1.353 . S
C3732 H3774 0.930 . S
C3733 N3729 1.279 . S
C3733 C3731 1.358 . S
C3733 H3775 0.930 . S
C3734 C3735 1.348 . S
C3734 C3736 1.356 . S
C3734 O3759 1.325 . S
C3735 C3734 1.348 . S
C3735 C3737 1.353 . S
C3735 H3776 0.929 . S
C3736 C3734 1.356 . S
C3736 C3738 1.358 . S
C3736 H3777 0.930 . S
C3737 C3735 1.353 . S
C3737 N3739 1.314 . S
C3737 H3778 0.930 . S
C3738 C3736 1.358 . S
C3738 N3739 1.279 . S
C3738 H3779 0.930 . S
N3739 C3737 1.314 . S
N3739 C3738 1.279 . S
C3740 C3742 1.353 . S
C3740 N3743 1.314 . S
C3740 H3746 0.930 . S
C3741 N3743 1.279 . S
C3741 C3744 1.358 . S
C3741 H3747 0.930 . S
C3742 C3740 1.353 . S
C3742 C3745 1.348 . S
C3742 H3780 0.929 . S
N3743 Li3698 1.990 . S
N3743 C3740 1.314 . S
N3743 C3741 1.279 . S
C3744 C3741 1.358 . S
C3744 C3745 1.356 . S
C3744 H3781 0.930 . S
C3745 C3742 1.348 . S
C3745 C3744 1.356 . S
H3746 C3740 0.930 . S
H3747 C3741 0.930 . S
C3748 N3749 1.314 . S
C3748 C3750 1.353 . S
C3748 H3754 0.930 . S
N3749 Li3699 1.990 . S
N3749 C3748 1.314 . S
N3749 C3752 1.279 . S
C3750 C3748 1.353 . S
C3750 C3753 1.348 . S
C3750 H3782 0.929 . S
C3751 C3752 1.358 . S
C3751 C3753 1.356 . S
C3751 H3783 0.930 . S
C3752 N3749 1.279 . S
C3752 C3751 1.358 . S
C3752 H3755 0.930 . S
C3753 C3750 1.348 . S
C3753 C3751 1.356 . S
H3754 C3748 0.930 . S
H3755 C3752 0.930 . S
O3756 Li3696 1.956 . S
O3756 Li3697 1.970 . S
O3756 Li3698 1.961 . S
O3756 C3700 1.325 . S
O3757 Li3696 1.970 . S
O3757 Li3697 1.956 . S
O3757 Li3699 1.961 . S
O3757 C3706 1.325 . S
O3758 Li3696 1.961 . S
O3758 Li3698 1.956 . S
O3758 Li3699 1.970 . S
O3758 C3728 1.325 . S
O3759 Li3697 1.961 . S
O3759 Li3698 1.970 . S
O3759 Li3699 1.956 . S
O3759 C3734 1.325 . S
H3760 C3702 0.929 . S
H3761 C3703 0.930 . S
H3762 C3704 0.930 . S
H3763 C3705 0.930 . S
H3764 C3707 0.930 . S
H3765 C3709 0.929 . S
H3766 C3710 0.930 . S
H3767 C3711 0.930 . S
H3768 C3714 0.930 . S
H3769 C3717 0.929 . S
H3770 C3722 0.929 . S
H3771 C3723 0.930 . S
H3772 C3730 0.929 . S
H3773 C3731 0.930 . S
H3774 C3732 0.930 . S
H3775 C3733 0.930 . S
H3776 C3735 0.929 . S
H3777 C3736 0.930 . S
H3778 C3737 0.930 . S
H3779 C3738 0.930 . S
H3780 C3742 0.929 . S
H3781 C3744 0.930 . S
H3782 C3750 0.929 . S
H3783 C3751 0.930 . S
Li3784 N3801 1.990 . S
Li3784 O3844 1.956 . S
Li3784 O3845 1.970 . S
Li3784 O3846 1.961 . S
Li3785 N3809 1.990 . S
Li3785 O3844 1.970 . S
Li3785 O3845 1.956 . S
Li3785 O3847 1.961 . S
Li3786 N3831 1.990 . S
Li3786 O3844 1.961 . S
Li3786 O3846 1.956 . S
Li3786 O3847 1.970 . S
Li3787 N3837 1.990 . S
Li3787 O3845 1.961 . S
Li3787 O3846 1.970 . S
Li3787 O3847 1.956 . S
C3788 C3790 1.348 . S
C3788 C3791 1.356 . S
C3788 O3844 1.325 . S
N3789 C3792 1.314 . S
N3789 C3793 1.279 . S
C3790 C3788 1.348 . S
C3790 C3792 1.353 . S
C3790 H3848 0.929 . S
C3791 C3788 1.356 . S
C3791 C3793 1.358 . S
C3791 H3849 0.930 . S
C3792 N3789 1.314 . S
C3792 C3790 1.353 . S
C3792 H3850 0.930 . S
C3793 N3789 1.279 . S
C3793 C3791 1.358 . S
C3793 H3851 0.930 . S
C3794 C3797 1.348 . S
C3794 C3798 1.356 . S
C3794 O3845 1.325 . S
C3795 N3796 1.279 . S
C3795 C3798 1.358 . S
C3795 H3852 0.930 . S
N3796 C3795 1.279 . S
N3796 C3799 1.314 . S
C3797 C3794 1.348 . S
C3797 C3799 1.353 . S
C3797 H3853 0.929 . S
C3798 C3794 1.356 . S
C3798 C3795 1.358 . S
C3798 H3854 0.930 . S
C3799 N3796 1.314 . S
C3799 C3797 1.353 . S
C3799 H3855 0.930 . S
C3800 N3801 1.314 . S
C3800 C3805 1.353 . S
C3800 H3806 0.930 . S
N3801 Li3784 1.990 . S
N3801 C3800 1.314 . S
N3801 C3803 1.279 . S
C3802 C3803 1.358 . S
C3802 C3804 1.356 . S
C3802 H3856 0.930 . S
C3803 N3801 1.279 . S
C3803 C3802 1.358 . S
C3803 H3807 0.930 . S
C3804 C3802 1.356 . S
C3804 C3805 1.348 . S
C3805 C3800 1.353 . S
C3805 C3804 1.348 . S
C3805 H3857 0.929 . S
H3806 C3800 0.930 . S
H3807 C3803 0.930 . S
C3808 N3809 1.314 . S
C3808 C3810 1.353 . S
C3808 H3814 0.930 . S
N3809 Li3785 1.990 . S
N3809 C3808 1.314 . S
N3809 C3812 1.279 . S
C3810 C3808 1.353 . S
C3810 C3813 1.348 . S
C3810 H3858 0.929 . S
C3811 C3812 1.358 . S
C3811 C3813 1.356 . S
C3811 H3859 0.930 . S
C3812 N3809 1.279 . S
C3812 C3811 1.358 . S
C3812 H3815 0.930 . S
C3813 C3810 1.348 . S
C3813 C3811 1.356 . S
H3814 C3808 0.930 . S
H3815 C3812 0.930 . S
C3816 C3818 1.348 . S
C3816 C3819 1.356 . S
C3816 O3846 1.325 . S
N3817 C3820 1.314 . S
N3817 C3821 1.279 . S
C3818 C3816 1.348 . S
C3818 C3820 1.353 . S
C3818 H3860 0.929 . S
C3819 C3816 1.356 . S
C3819 C3821 1.358 . S
C3819 H3861 0.930 . S
C3820 N3817 1.314 . S
C3820 C3818 1.353 . S
C3820 H3862 0.930 . S
C3821 N3817 1.279 . S
C3821 C3819 1.358 . S
C3821 H3863 0.930 . S
C3822 C3823 1.348 . S
C3822 C3824 1.356 . S
C3822 O3847 1.325 . S
C3823 C3822 1.348 . S
C3823 C3825 1.353 . S
C3823 H3864 0.929 . S
C3824 C3822 1.356 . S
C3824 C3826 1.358 . S
C3824 H3865 0.930 . S
C3825 C3823 1.353 . S
C3825 N3827 1.314 . S
C3825 H3866 0.930 . S
C3826 C3824 1.358 . S
C3826 N3827 1.279 . S
C3826 H3867 0.930 . S
N3827 C3825 1.314 . S
N3827 C3826 1.279 . S
C3828 C3830 1.353 . S
C3828 N3831 1.314 . S
C3828 H3834 0.930 . S
C3829 N3831 1.279 . S
C3829 C3832 1.358 . S
C3829 H3835 0.930 . S
C3830 C3828 1.353 . S
C3830 C3833 1.348 . S
C3830 H3868 0.929 . S
N3831 Li3786 1.990 . S
N3831 C3828 1.314 . S
N3831 C3829 1.279 . S
C3832 C3829 1.358 . S
C3832 C3833 1.356 . S
C3832 H3869 0.930 . S
C3833 C3830 1.348 . S
C3833 C3832 1.356 . S
H3834 C3828 0.930 . S
H3835 C3829 0.930 . S
C3836 N3837 1.314 . S
C3836 C3838 1.353 . S
C3836 H3842 0.930 . S
N3837 Li3787 1.990 . S
N3837 C3836 1.314 . S
N3837 C3840 1.279 . S
C3838 C3836 1.353 . S
C3838 C3841 1.348 . S
C3838 H3870 0.929 . S
C3839 C3840 1.358 . S
C3839 C3841 1.356 . S
C3839 H3871 0.930 . S
C3840 N3837 1.279 . S
C3840 C3839 1.358 . S
C3840 H3843 0.930 . S
C3841 C3838 1.348 . S
C3841 C3839 1.356 . S
H3842 C3836 0.930 . S
H3843 C3840 0.930 . S
O3844 Li3784 1.956 . S
O3844 Li3785 1.970 . S
O3844 Li3786 1.961 . S
O3844 C3788 1.325 . S
O3845 Li3784 1.970 . S
O3845 Li3785 1.956 . S
O3845 Li3787 1.961 . S
O3845 C3794 1.325 . S
O3846 Li3784 1.961 . S
O3846 Li3786 1.956 . S
O3846 Li3787 1.970 . S
O3846 C3816 1.325 . S
O3847 Li3785 1.961 . S
O3847 Li3786 1.970 . S
O3847 Li3787 1.956 . S
O3847 C3822 1.325 . S
H3848 C3790 0.929 . S
H3849 C3791 0.930 . S
H3850 C3792 0.930 . S
H3851 C3793 0.930 . S
H3852 C3795 0.930 . S
H3853 C3797 0.929 . S
H3854 C3798 0.930 . S
H3855 C3799 0.930 . S
H3856 C3802 0.930 . S
H3857 C3805 0.929 . S
H3858 C3810 0.929 . S
H3859 C3811 0.930 . S
H3860 C3818 0.929 . S
H3861 C3819 0.930 . S
H3862 C3820 0.930 . S
H3863 C3821 0.930 . S
H3864 C3823 0.929 . S
H3865 C3824 0.930 . S
H3866 C3825 0.930 . S
H3867 C3826 0.930 . S
H3868 C3830 0.929 . S
H3869 C3832 0.930 . S
H3870 C3838 0.929 . S
H3871 C3839 0.930 . S
Li3872 N3889 1.990 . S
Li3872 O3932 1.956 . S
Li3872 O3933 1.970 . S
Li3872 O3934 1.961 . S
Li3873 N3897 1.990 . S
Li3873 O3932 1.970 . S
Li3873 O3933 1.956 . S
Li3873 O3935 1.961 . S
Li3874 N3919 1.990 . S
Li3874 O3932 1.961 . S
Li3874 O3934 1.956 . S
Li3874 O3935 1.970 . S
Li3875 N3925 1.990 . S
Li3875 O3933 1.961 . S
Li3875 O3934 1.970 . S
Li3875 O3935 1.956 . S
C3876 C3878 1.348 . S
C3876 C3879 1.356 . S
C3876 O3932 1.325 . S
N3877 C3880 1.314 . S
N3877 C3881 1.279 . S
C3878 C3876 1.348 . S
C3878 C3880 1.353 . S
C3878 H3936 0.929 . S
C3879 C3876 1.356 . S
C3879 C3881 1.358 . S
C3879 H3937 0.930 . S
C3880 N3877 1.314 . S
C3880 C3878 1.353 . S
C3880 H3938 0.930 . S
C3881 N3877 1.279 . S
C3881 C3879 1.358 . S
C3881 H3939 0.930 . S
C3882 C3885 1.348 . S
C3882 C3886 1.356 . S
C3882 O3933 1.325 . S
C3883 N3884 1.279 . S
C3883 C3886 1.358 . S
C3883 H3940 0.930 . S
N3884 C3883 1.279 . S
N3884 C3887 1.314 . S
C3885 C3882 1.348 . S
C3885 C3887 1.353 . S
C3885 H3941 0.929 . S
C3886 C3882 1.356 . S
C3886 C3883 1.358 . S
C3886 H3942 0.930 . S
C3887 N3884 1.314 . S
C3887 C3885 1.353 . S
C3887 H3943 0.930 . S
C3888 N3889 1.314 . S
C3888 C3893 1.353 . S
C3888 H3894 0.930 . S
N3889 Li3872 1.990 . S
N3889 C3888 1.314 . S
N3889 C3891 1.279 . S
C3890 C3891 1.358 . S
C3890 C3892 1.356 . S
C3890 H3944 0.930 . S
C3891 N3889 1.279 . S
C3891 C3890 1.358 . S
C3891 H3895 0.930 . S
C3892 C3890 1.356 . S
C3892 C3893 1.348 . S
C3893 C3888 1.353 . S
C3893 C3892 1.348 . S
C3893 H3945 0.929 . S
H3894 C3888 0.930 . S
H3895 C3891 0.930 . S
C3896 N3897 1.314 . S
C3896 C3898 1.353 . S
C3896 H3902 0.930 . S
N3897 Li3873 1.990 . S
N3897 C3896 1.314 . S
N3897 C3900 1.279 . S
C3898 C3896 1.353 . S
C3898 C3901 1.348 . S
C3898 H3946 0.929 . S
C3899 C3900 1.358 . S
C3899 C3901 1.356 . S
C3899 H3947 0.930 . S
C3900 N3897 1.279 . S
C3900 C3899 1.358 . S
C3900 H3903 0.930 . S
C3901 C3898 1.348 . S
C3901 C3899 1.356 . S
H3902 C3896 0.930 . S
H3903 C3900 0.930 . S
C3904 C3906 1.348 . S
C3904 C3907 1.356 . S
C3904 O3934 1.325 . S
N3905 C3908 1.314 . S
N3905 C3909 1.279 . S
C3906 C3904 1.348 . S
C3906 C3908 1.353 . S
C3906 H3948 0.929 . S
C3907 C3904 1.356 . S
C3907 C3909 1.358 . S
C3907 H3949 0.930 . S
C3908 N3905 1.314 . S
C3908 C3906 1.353 . S
C3908 H3950 0.930 . S
C3909 N3905 1.279 . S
C3909 C3907 1.358 . S
C3909 H3951 0.930 . S
C3910 C3911 1.348 . S
C3910 C3912 1.356 . S
C3910 O3935 1.325 . S
C3911 C3910 1.348 . S
C3911 C3913 1.353 . S
C3911 H3952 0.929 . S
C3912 C3910 1.356 . S
C3912 C3914 1.358 . S
C3912 H3953 0.930 . S
C3913 C3911 1.353 . S
C3913 N3915 1.314 . S
C3913 H3954 0.930 . S
C3914 C3912 1.358 . S
C3914 N3915 1.279 . S
C3914 H3955 0.930 . S
N3915 C3913 1.314 . S
N3915 C3914 1.279 . S
C3916 C3918 1.353 . S
C3916 N3919 1.314 . S
C3916 H3922 0.930 . S
C3917 N3919 1.279 . S
C3917 C3920 1.358 . S
C3917 H3923 0.930 . S
C3918 C3916 1.353 . S
C3918 C3921 1.348 . S
C3918 H3956 0.929 . S
N3919 Li3874 1.990 . S
N3919 C3916 1.314 . S
N3919 C3917 1.279 . S
C3920 C3917 1.358 . S
C3920 C3921 1.356 . S
C3920 H3957 0.930 . S
C3921 C3918 1.348 . S
C3921 C3920 1.356 . S
H3922 C3916 0.930 . S
H3923 C3917 0.930 . S
C3924 N3925 1.314 . S
C3924 C3926 1.353 . S
C3924 H3930 0.930 . S
N3925 Li3875 1.990 . S
N3925 C3924 1.314 . S
N3925 C3928 1.279 . S
C3926 C3924 1.353 . S
C3926 C3929 1.348 . S
C3926 H3958 0.929 . S
C3927 C3928 1.358 . S
C3927 C3929 1.356 . S
C3927 H3959 0.930 . S
C3928 N3925 1.279 . S
C3928 C3927 1.358 . S
C3928 H3931 0.930 . S
C3929 C3926 1.348 . S
C3929 C3927 1.356 . S
H3930 C3924 0.930 . S
H3931 C3928 0.930 . S
O3932 Li3872 1.956 . S
O3932 Li3873 1.970 . S
O3932 Li3874 1.961 . S
O3932 C3876 1.325 . S
O3933 Li3872 1.970 . S
O3933 Li3873 1.956 . S
O3933 Li3875 1.961 . S
O3933 C3882 1.325 . S
O3934 Li3872 1.961 . S
O3934 Li3874 1.956 . S
O3934 Li3875 1.970 . S
O3934 C3904 1.325 . S
O3935 Li3873 1.961 . S
O3935 Li3874 1.970 . S
O3935 Li3875 1.956 . S
O3935 C3910 1.325 . S
H3936 C3878 0.929 . S
H3937 C3879 0.930 . S
H3938 C3880 0.930 . S
H3939 C3881 0.930 . S
H3940 C3883 0.930 . S
H3941 C3885 0.929 . S
H3942 C3886 0.930 . S
H3943 C3887 0.930 . S
H3944 C3890 0.930 . S
H3945 C3893 0.929 . S
H3946 C3898 0.929 . S
H3947 C3899 0.930 . S
H3948 C3906 0.929 . S
H3949 C3907 0.930 . S
H3950 C3908 0.930 . S
H3951 C3909 0.930 . S
H3952 C3911 0.929 . S
H3953 C3912 0.930 . S
H3954 C3913 0.930 . S
H3955 C3914 0.930 . S
H3956 C3918 0.929 . S
H3957 C3920 0.930 . S
H3958 C3926 0.929 . S
H3959 C3927 0.930 . S
Li3960 N3977 1.990 . S
Li3960 O4020 1.956 . S
Li3960 O4021 1.970 . S
Li3960 O4022 1.961 . S
Li3961 N3985 1.990 . S
Li3961 O4020 1.970 . S
Li3961 O4021 1.956 . S
Li3961 O4023 1.961 . S
Li3962 N4007 1.990 . S
Li3962 O4020 1.961 . S
Li3962 O4022 1.956 . S
Li3962 O4023 1.970 . S
Li3963 N4013 1.990 . S
Li3963 O4021 1.961 . S
Li3963 O4022 1.970 . S
Li3963 O4023 1.956 . S
C3964 C3966 1.348 . S
C3964 C3967 1.356 . S
C3964 O4020 1.325 . S
N3965 C3968 1.314 . S
N3965 C3969 1.279 . S
C3966 C3964 1.348 . S
C3966 C3968 1.353 . S
C3966 H4024 0.929 . S
C3967 C3964 1.356 . S
C3967 C3969 1.358 . S
C3967 H4025 0.930 . S
C3968 N3965 1.314 . S
C3968 C3966 1.353 . S
C3968 H4026 0.930 . S
C3969 N3965 1.279 . S
C3969 C3967 1.358 . S
C3969 H4027 0.930 . S
C3970 C3973 1.348 . S
C3970 C3974 1.356 . S
C3970 O4021 1.325 . S
C3971 N3972 1.279 . S
C3971 C3974 1.358 . S
C3971 H4028 0.930 . S
N3972 C3971 1.279 . S
N3972 C3975 1.314 . S
C3973 C3970 1.348 . S
C3973 C3975 1.353 . S
C3973 H4029 0.929 . S
C3974 C3970 1.356 . S
C3974 C3971 1.358 . S
C3974 H4030 0.930 . S
C3975 N3972 1.314 . S
C3975 C3973 1.353 . S
C3975 H4031 0.930 . S
C3976 N3977 1.314 . S
C3976 C3981 1.353 . S
C3976 H3982 0.930 . S
N3977 Li3960 1.990 . S
N3977 C3976 1.314 . S
N3977 C3979 1.279 . S
C3978 C3979 1.358 . S
C3978 C3980 1.356 . S
C3978 H4032 0.930 . S
C3979 N3977 1.279 . S
C3979 C3978 1.358 . S
C3979 H3983 0.930 . S
C3980 C3978 1.356 . S
C3980 C3981 1.348 . S
C3981 C3976 1.353 . S
C3981 C3980 1.348 . S
C3981 H4033 0.929 . S
H3982 C3976 0.930 . S
H3983 C3979 0.930 . S
C3984 N3985 1.314 . S
C3984 C3986 1.353 . S
C3984 H3990 0.930 . S
N3985 Li3961 1.990 . S
N3985 C3984 1.314 . S
N3985 C3988 1.279 . S
C3986 C3984 1.353 . S
C3986 C3989 1.348 . S
C3986 H4034 0.929 . S
C3987 C3988 1.358 . S
C3987 C3989 1.356 . S
C3987 H4035 0.930 . S
C3988 N3985 1.279 . S
C3988 C3987 1.358 . S
C3988 H3991 0.930 . S
C3989 C3986 1.348 . S
C3989 C3987 1.356 . S
H3990 C3984 0.930 . S
H3991 C3988 0.930 . S
C3992 C3994 1.348 . S
C3992 C3995 1.356 . S
C3992 O4022 1.325 . S
N3993 C3996 1.314 . S
N3993 C3997 1.279 . S
C3994 C3992 1.348 . S
C3994 C3996 1.353 . S
C3994 H4036 0.929 . S
C3995 C3992 1.356 . S
C3995 C3997 1.358 . S
C3995 H4037 0.930 . S
C3996 N3993 1.314 . S
C3996 C3994 1.353 . S
C3996 H4038 0.930 . S
C3997 N3993 1.279 . S
C3997 C3995 1.358 . S
C3997 H4039 0.930 . S
C3998 C3999 1.348 . S
C3998 C4000 1.356 . S
C3998 O4023 1.325 . S
C3999 C3998 1.348 . S
C3999 C4001 1.353 . S
C3999 H4040 0.929 . S
C4000 C3998 1.356 . S
C4000 C4002 1.358 . S
C4000 H4041 0.930 . S
C4001 C3999 1.353 . S
C4001 N4003 1.314 . S
C4001 H4042 0.930 . S
C4002 C4000 1.358 . S
C4002 N4003 1.279 . S
C4002 H4043 0.930 . S
N4003 C4001 1.314 . S
N4003 C4002 1.279 . S
C4004 C4006 1.353 . S
C4004 N4007 1.314 . S
C4004 H4010 0.930 . S
C4005 N4007 1.279 . S
C4005 C4008 1.358 . S
C4005 H4011 0.930 . S
C4006 C4004 1.353 . S
C4006 C4009 1.348 . S
C4006 H4044 0.929 . S
N4007 Li3962 1.990 . S
N4007 C4004 1.314 . S
N4007 C4005 1.279 . S
C4008 C4005 1.358 . S
C4008 C4009 1.356 . S
C4008 H4045 0.930 . S
C4009 C4006 1.348 . S
C4009 C4008 1.356 . S
H4010 C4004 0.930 . S
H4011 C4005 0.930 . S
C4012 N4013 1.314 . S
C4012 C4014 1.353 . S
C4012 H4018 0.930 . S
N4013 Li3963 1.990 . S
N4013 C4012 1.314 . S
N4013 C4016 1.279 . S
C4014 C4012 1.353 . S
C4014 C4017 1.348 . S
C4014 H4046 0.929 . S
C4015 C4016 1.358 . S
C4015 C4017 1.356 . S
C4015 H4047 0.930 . S
C4016 N4013 1.279 . S
C4016 C4015 1.358 . S
C4016 H4019 0.930 . S
C4017 C4014 1.348 . S
C4017 C4015 1.356 . S
H4018 C4012 0.930 . S
H4019 C4016 0.930 . S
O4020 Li3960 1.956 . S
O4020 Li3961 1.970 . S
O4020 Li3962 1.961 . S
O4020 C3964 1.325 . S
O4021 Li3960 1.970 . S
O4021 Li3961 1.956 . S
O4021 Li3963 1.961 . S
O4021 C3970 1.325 . S
O4022 Li3960 1.961 . S
O4022 Li3962 1.956 . S
O4022 Li3963 1.970 . S
O4022 C3992 1.325 . S
O4023 Li3961 1.961 . S
O4023 Li3962 1.970 . S
O4023 Li3963 1.956 . S
O4023 C3998 1.325 . S
H4024 C3966 0.929 . S
H4025 C3967 0.930 . S
H4026 C3968 0.930 . S
H4027 C3969 0.930 . S
H4028 C3971 0.930 . S
H4029 C3973 0.929 . S
H4030 C3974 0.930 . S
H4031 C3975 0.930 . S
H4032 C3978 0.930 . S
H4033 C3981 0.929 . S
H4034 C3986 0.929 . S
H4035 C3987 0.930 . S
H4036 C3994 0.929 . S
H4037 C3995 0.930 . S
H4038 C3996 0.930 . S
H4039 C3997 0.930 . S
H4040 C3999 0.929 . S
H4041 C4000 0.930 . S
H4042 C4001 0.930 . S
H4043 C4002 0.930 . S
H4044 C4006 0.929 . S
H4045 C4008 0.930 . S
H4046 C4014 0.929 . S
H4047 C4015 0.930 . S
Li4048 N4065 1.990 . S
Li4048 O4108 1.956 . S
Li4048 O4109 1.970 . S
Li4048 O4110 1.961 . S
Li4049 N4073 1.990 . S
Li4049 O4108 1.970 . S
Li4049 O4109 1.956 . S
Li4049 O4111 1.961 . S
Li4050 N4095 1.990 . S
Li4050 O4108 1.961 . S
Li4050 O4110 1.956 . S
Li4050 O4111 1.970 . S
Li4051 N4101 1.990 . S
Li4051 O4109 1.961 . S
Li4051 O4110 1.970 . S
Li4051 O4111 1.956 . S
C4052 C4054 1.348 . S
C4052 C4055 1.356 . S
C4052 O4108 1.325 . S
N4053 C4056 1.314 . S
N4053 C4057 1.279 . S
C4054 C4052 1.348 . S
C4054 C4056 1.353 . S
C4054 H4112 0.929 . S
C4055 C4052 1.356 . S
C4055 C4057 1.358 . S
C4055 H4113 0.930 . S
C4056 N4053 1.314 . S
C4056 C4054 1.353 . S
C4056 H4114 0.930 . S
C4057 N4053 1.279 . S
C4057 C4055 1.358 . S
C4057 H4115 0.930 . S
C4058 C4061 1.348 . S
C4058 C4062 1.356 . S
C4058 O4109 1.325 . S
C4059 N4060 1.279 . S
C4059 C4062 1.358 . S
C4059 H4116 0.930 . S
N4060 C4059 1.279 . S
N4060 C4063 1.314 . S
C4061 C4058 1.348 . S
C4061 C4063 1.353 . S
C4061 H4117 0.929 . S
C4062 C4058 1.356 . S
C4062 C4059 1.358 . S
C4062 H4118 0.930 . S
C4063 N4060 1.314 . S
C4063 C4061 1.353 . S
C4063 H4119 0.930 . S
C4064 N4065 1.314 . S
C4064 C4069 1.353 . S
C4064 H4070 0.930 . S
N4065 Li4048 1.990 . S
N4065 C4064 1.314 . S
N4065 C4067 1.279 . S
C4066 C4067 1.358 . S
C4066 C4068 1.356 . S
C4066 H4120 0.930 . S
C4067 N4065 1.279 . S
C4067 C4066 1.358 . S
C4067 H4071 0.930 . S
C4068 C4066 1.356 . S
C4068 C4069 1.348 . S
C4069 C4064 1.353 . S
C4069 C4068 1.348 . S
C4069 H4121 0.929 . S
H4070 C4064 0.930 . S
H4071 C4067 0.930 . S
C4072 N4073 1.314 . S
C4072 C4074 1.353 . S
C4072 H4078 0.930 . S
N4073 Li4049 1.990 . S
N4073 C4072 1.314 . S
N4073 C4076 1.279 . S
C4074 C4072 1.353 . S
C4074 C4077 1.348 . S
C4074 H4122 0.929 . S
C4075 C4076 1.358 . S
C4075 C4077 1.356 . S
C4075 H4123 0.930 . S
C4076 N4073 1.279 . S
C4076 C4075 1.358 . S
C4076 H4079 0.930 . S
C4077 C4074 1.348 . S
C4077 C4075 1.356 . S
H4078 C4072 0.930 . S
H4079 C4076 0.930 . S
C4080 C4082 1.348 . S
C4080 C4083 1.356 . S
C4080 O4110 1.325 . S
N4081 C4084 1.314 . S
N4081 C4085 1.279 . S
C4082 C4080 1.348 . S
C4082 C4084 1.353 . S
C4082 H4124 0.929 . S
C4083 C4080 1.356 . S
C4083 C4085 1.358 . S
C4083 H4125 0.930 . S
C4084 N4081 1.314 . S
C4084 C4082 1.353 . S
C4084 H4126 0.930 . S
C4085 N4081 1.279 . S
C4085 C4083 1.358 . S
C4085 H4127 0.930 . S
C4086 C4087 1.348 . S
C4086 C4088 1.356 . S
C4086 O4111 1.325 . S
C4087 C4086 1.348 . S
C4087 C4089 1.353 . S
C4087 H4128 0.929 . S
C4088 C4086 1.356 . S
C4088 C4090 1.358 . S
C4088 H4129 0.930 . S
C4089 C4087 1.353 . S
C4089 N4091 1.314 . S
C4089 H4130 0.930 . S
C4090 C4088 1.358 . S
C4090 N4091 1.279 . S
C4090 H4131 0.930 . S
N4091 C4089 1.314 . S
N4091 C4090 1.279 . S
C4092 C4094 1.353 . S
C4092 N4095 1.314 . S
C4092 H4098 0.930 . S
C4093 N4095 1.279 . S
C4093 C4096 1.358 . S
C4093 H4099 0.930 . S
C4094 C4092 1.353 . S
C4094 C4097 1.348 . S
C4094 H4132 0.929 . S
N4095 Li4050 1.990 . S
N4095 C4092 1.314 . S
N4095 C4093 1.279 . S
C4096 C4093 1.358 . S
C4096 C4097 1.356 . S
C4096 H4133 0.930 . S
C4097 C4094 1.348 . S
C4097 C4096 1.356 . S
H4098 C4092 0.930 . S
H4099 C4093 0.930 . S
C4100 N4101 1.314 . S
C4100 C4102 1.353 . S
C4100 H4106 0.930 . S
N4101 Li4051 1.990 . S
N4101 C4100 1.314 . S
N4101 C4104 1.279 . S
C4102 C4100 1.353 . S
C4102 C4105 1.348 . S
C4102 H4134 0.929 . S
C4103 C4104 1.358 . S
C4103 C4105 1.356 . S
C4103 H4135 0.930 . S
C4104 N4101 1.279 . S
C4104 C4103 1.358 . S
C4104 H4107 0.930 . S
C4105 C4102 1.348 . S
C4105 C4103 1.356 . S
H4106 C4100 0.930 . S
H4107 C4104 0.930 . S
O4108 Li4048 1.956 . S
O4108 Li4049 1.970 . S
O4108 Li4050 1.961 . S
O4108 C4052 1.325 . S
O4109 Li4048 1.970 . S
O4109 Li4049 1.956 . S
O4109 Li4051 1.961 . S
O4109 C4058 1.325 . S
O4110 Li4048 1.961 . S
O4110 Li4050 1.956 . S
O4110 Li4051 1.970 . S
O4110 C4080 1.325 . S
O4111 Li4049 1.961 . S
O4111 Li4050 1.970 . S
O4111 Li4051 1.956 . S
O4111 C4086 1.325 . S
H4112 C4054 0.929 . S
H4113 C4055 0.930 . S
H4114 C4056 0.930 . S
H4115 C4057 0.930 . S
H4116 C4059 0.930 . S
H4117 C4061 0.929 . S
H4118 C4062 0.930 . S
H4119 C4063 0.930 . S
H4120 C4066 0.930 . S
H4121 C4069 0.929 . S
H4122 C4074 0.929 . S
H4123 C4075 0.930 . S
H4124 C4082 0.929 . S
H4125 C4083 0.930 . S
H4126 C4084 0.930 . S
H4127 C4085 0.930 . S
H4128 C4087 0.929 . S
H4129 C4088 0.930 . S
H4130 C4089 0.930 . S
H4131 C4090 0.930 . S
H4132 C4094 0.929 . S
H4133 C4096 0.930 . S
H4134 C4102 0.929 . S
H4135 C4103 0.930 . S
Li4136 N4153 1.990 . S
Li4136 O4196 1.956 . S
Li4136 O4197 1.970 . S
Li4136 O4198 1.961 . S
Li4137 N4161 1.990 . S
Li4137 O4196 1.970 . S
Li4137 O4197 1.956 . S
Li4137 O4199 1.961 . S
Li4138 N4183 1.990 . S
Li4138 O4196 1.961 . S
Li4138 O4198 1.956 . S
Li4138 O4199 1.970 . S
Li4139 N4189 1.990 . S
Li4139 O4197 1.961 . S
Li4139 O4198 1.970 . S
Li4139 O4199 1.956 . S
C4140 C4142 1.348 . S
C4140 C4143 1.356 . S
C4140 O4196 1.325 . S
N4141 C4144 1.314 . S
N4141 C4145 1.279 . S
C4142 C4140 1.348 . S
C4142 C4144 1.353 . S
C4142 H4200 0.929 . S
C4143 C4140 1.356 . S
C4143 C4145 1.358 . S
C4143 H4201 0.930 . S
C4144 N4141 1.314 . S
C4144 C4142 1.353 . S
C4144 H4202 0.930 . S
C4145 N4141 1.279 . S
C4145 C4143 1.358 . S
C4145 H4203 0.930 . S
C4146 C4149 1.348 . S
C4146 C4150 1.356 . S
C4146 O4197 1.325 . S
C4147 N4148 1.279 . S
C4147 C4150 1.358 . S
C4147 H4204 0.930 . S
N4148 C4147 1.279 . S
N4148 C4151 1.314 . S
C4149 C4146 1.348 . S
C4149 C4151 1.353 . S
C4149 H4205 0.929 . S
C4150 C4146 1.356 . S
C4150 C4147 1.358 . S
C4150 H4206 0.930 . S
C4151 N4148 1.314 . S
C4151 C4149 1.353 . S
C4151 H4207 0.930 . S
C4152 N4153 1.314 . S
C4152 C4157 1.353 . S
C4152 H4158 0.930 . S
N4153 Li4136 1.990 . S
N4153 C4152 1.314 . S
N4153 C4155 1.279 . S
C4154 C4155 1.358 . S
C4154 C4156 1.356 . S
C4154 H4208 0.930 . S
C4155 N4153 1.279 . S
C4155 C4154 1.358 . S
C4155 H4159 0.930 . S
C4156 C4154 1.356 . S
C4156 C4157 1.348 . S
C4157 C4152 1.353 . S
C4157 C4156 1.348 . S
C4157 H4209 0.929 . S
H4158 C4152 0.930 . S
H4159 C4155 0.930 . S
C4160 N4161 1.314 . S
C4160 C4162 1.353 . S
C4160 H4166 0.930 . S
N4161 Li4137 1.990 . S
N4161 C4160 1.314 . S
N4161 C4164 1.279 . S
C4162 C4160 1.353 . S
C4162 C4165 1.348 . S
C4162 H4210 0.929 . S
C4163 C4164 1.358 . S
C4163 C4165 1.356 . S
C4163 H4211 0.930 . S
C4164 N4161 1.279 . S
C4164 C4163 1.358 . S
C4164 H4167 0.930 . S
C4165 C4162 1.348 . S
C4165 C4163 1.356 . S
H4166 C4160 0.930 . S
H4167 C4164 0.930 . S
C4168 C4170 1.348 . S
C4168 C4171 1.356 . S
C4168 O4198 1.325 . S
N4169 C4172 1.314 . S
N4169 C4173 1.279 . S
C4170 C4168 1.348 . S
C4170 C4172 1.353 . S
C4170 H4212 0.929 . S
C4171 C4168 1.356 . S
C4171 C4173 1.358 . S
C4171 H4213 0.930 . S
C4172 N4169 1.314 . S
C4172 C4170 1.353 . S
C4172 H4214 0.930 . S
C4173 N4169 1.279 . S
C4173 C4171 1.358 . S
C4173 H4215 0.930 . S
C4174 C4175 1.348 . S
C4174 C4176 1.356 . S
C4174 O4199 1.325 . S
C4175 C4174 1.348 . S
C4175 C4177 1.353 . S
C4175 H4216 0.929 . S
C4176 C4174 1.356 . S
C4176 C4178 1.358 . S
C4176 H4217 0.930 . S
C4177 C4175 1.353 . S
C4177 N4179 1.314 . S
C4177 H4218 0.930 . S
C4178 C4176 1.358 . S
C4178 N4179 1.279 . S
C4178 H4219 0.930 . S
N4179 C4177 1.314 . S
N4179 C4178 1.279 . S
C4180 C4182 1.353 . S
C4180 N4183 1.314 . S
C4180 H4186 0.930 . S
C4181 N4183 1.279 . S
C4181 C4184 1.358 . S
C4181 H4187 0.930 . S
C4182 C4180 1.353 . S
C4182 C4185 1.348 . S
C4182 H4220 0.929 . S
N4183 Li4138 1.990 . S
N4183 C4180 1.314 . S
N4183 C4181 1.279 . S
C4184 C4181 1.358 . S
C4184 C4185 1.356 . S
C4184 H4221 0.930 . S
C4185 C4182 1.348 . S
C4185 C4184 1.356 . S
H4186 C4180 0.930 . S
H4187 C4181 0.930 . S
C4188 N4189 1.314 . S
C4188 C4190 1.353 . S
C4188 H4194 0.930 . S
N4189 Li4139 1.990 . S
N4189 C4188 1.314 . S
N4189 C4192 1.279 . S
C4190 C4188 1.353 . S
C4190 C4193 1.348 . S
C4190 H4222 0.929 . S
C4191 C4192 1.358 . S
C4191 C4193 1.356 . S
C4191 H4223 0.930 . S
C4192 N4189 1.279 . S
C4192 C4191 1.358 . S
C4192 H4195 0.930 . S
C4193 C4190 1.348 . S
C4193 C4191 1.356 . S
H4194 C4188 0.930 . S
H4195 C4192 0.930 . S
O4196 Li4136 1.956 . S
O4196 Li4137 1.970 . S
O4196 Li4138 1.961 . S
O4196 C4140 1.325 . S
O4197 Li4136 1.970 . S
O4197 Li4137 1.956 . S
O4197 Li4139 1.961 . S
O4197 C4146 1.325 . S
O4198 Li4136 1.961 . S
O4198 Li4138 1.956 . S
O4198 Li4139 1.970 . S
O4198 C4168 1.325 . S
O4199 Li4137 1.961 . S
O4199 Li4138 1.970 . S
O4199 Li4139 1.956 . S
O4199 C4174 1.325 . S
H4200 C4142 0.929 . S
H4201 C4143 0.930 . S
H4202 C4144 0.930 . S
H4203 C4145 0.930 . S
H4204 C4147 0.930 . S
H4205 C4149 0.929 . S
H4206 C4150 0.930 . S
H4207 C4151 0.930 . S
H4208 C4154 0.930 . S
H4209 C4157 0.929 . S
H4210 C4162 0.929 . S
H4211 C4163 0.930 . S
H4212 C4170 0.929 . S
H4213 C4171 0.930 . S
H4214 C4172 0.930 . S
H4215 C4173 0.930 . S
H4216 C4175 0.929 . S
H4217 C4176 0.930 . S
H4218 C4177 0.930 . S
H4219 C4178 0.930 . S
H4220 C4182 0.929 . S
H4221 C4184 0.930 . S
H4222 C4190 0.929 . S
H4223 C4191 0.930 . S
C2785 C29 1.220 . S
C137 C2484 1.220 . S
C225 C2572 1.220 . S
C2660 C293 1.220 . S
C2249 C409 1.220 . S
C460 C2337 1.220 . S
C2425 C548 1.220 . S
C636 C2161 1.220 . S
C733 C3921 1.220 . S
C3657 C812 1.220 . S
C3745 C909 1.220 . S
C988 C3841 1.220 . S
C1105 C4165 1.220 . S
C1201 C3980 1.220 . S
C1289 C4077 1.220 . S
C3540 C1369 1.220 . S
C3481 C1428 1.220 . S
C1545 C2924 1.220 . S
C3012 C1633 1.220 . S
C1729 C3109 1.220 . S
C2836 C1817 1.220 . S
C3313 C1877 1.220 . S
C1965 C3401 1.220 . S
C3225 C2044 1.220 . S
C849 C49 1.119 1_655 S
C929 C117 1.119 1_565 S
C205 C1025 1.119 1_655 S
C753 C313 1.119 1_545 S
C372 C1349 1.119 1_455 S
C1085 C497 1.119 1_565 S
C1164 C585 1.119 1_455 S
C1252 C673 1.119 1_545 S
C1613 C1465 1.119 1_556 S
C1985 C1525 1.119 1_554 S
C2081 C1692 1.119 1_554 S
C1780 C1897 1.119 1_556 S
C2961 C2141 1.119 . S
C3049 C2229 1.119 . S
C3129 C2317 1.119 . S
C2405 C2873 1.119 . S
C2521 C3461 1.119 . S
C2609 C3188 1.119 . S
C3276 C2697 1.119 . S
C3364 C2748 1.119 . S
C3577 C3725 1.119 . S
C4097 C3637 1.119 . S
C4185 C3804 1.119 . S
C4017 C3901 1.119 . S
C20 C1604 3.084 . S
C145 C1701 3.084 . S
C233 C1789 3.084 . S
C1516 C284 3.084 . S
C401 C1993 3.084 . S
C469 C1457 3.084 . S
C2073 C557 3.084 . S
C1905 C645 3.084 . S
C724 C841 3.084 . S
C821 C937 3.084 . S
C900 C1017 3.084 . S
C761 C997 3.084 . S
C1340 C1113 3.084 . S
C1076 C1193 3.084 . S
C1173 C1281 3.084 . S
C1377 C1261 3.084 . S
C321 C1437 3.084 . S
C489 C1553 3.084 . S
C577 C1641 3.084 . S
C1721 C665 3.084 . S
C381 C1809 3.084 . S
C108 C1868 3.084 . S
C196 C1956 3.084 . S
C57 C2053 3.084 . S
C3716 C2169 3.084 . S
C2257 C3813 3.084 . S
C3892 C2345 3.084 . S
C3628 C2433 3.084 . S
C2493 C4105 3.084 . S
C2581 C3569 3.084 . S
C4193 C2669 3.084 . S
C2777 C4009 3.084 . S
C2845 C2953 3.084 . S
C2933 C3041 3.084 . S
C3021 C3137 3.084 . S
C3100 C2865 3.084 . S
C3452 C3217 3.084 . S
C3197 C3305 3.084 . S
C3285 C3393 3.084 . S
C3489 C3373 3.084 . S
C2396 C3549 3.084 . S
C2601 C3665 3.084 . S
C2689 C3753 3.084 . S
C3833 C2757 3.084 . S
C2513 C3929 3.084 . S
C2220 C3989 3.084 . S
C4068 C2308 3.084 . S
C2132 C4156 3.084 . S
