# Generated by pormake.
# Topology wfa, (4)-cn, num edge types: 1
# Building blocks:
#     Node 0, Type 0, BuildingBlock: QUQFOY_clean_sbu_1, # of connection points: 4
#     Node 1, Type 0, BuildingBlock: QUQFOY_clean_sbu_1, # of connection points: 4
#     Node 2, Type 0, BuildingBlock: QUQFOY_clean_sbu_1, # of connection points: 4
#     Node 3, Type 0, BuildingBlock: QUQFOY_clean_sbu_1, # of connection points: 4
#     Node 4, Type 0, BuildingBlock: QUQFOY_clean_sbu_1, # of connection points: 4
#     Node 5, Type 0, BuildingBlock: QUQFOY_clean_sbu_1, # of connection points: 4
#     Node 6, Type 0, BuildingBlock: QUQFOY_clean_sbu_1, # of connection points: 4
#     Node 7, Type 0, BuildingBlock: QUQFOY_clean_sbu_1, # of connection points: 4
#     Node 8, Type 0, BuildingBlock: QUQFOY_clean_sbu_1, # of connection points: 4
#     Node 9, Type 0, BuildingBlock: QUQFOY_clean_sbu_1, # of connection points: 4
#     Node 10, Type 0, BuildingBlock: QUQFOY_clean_sbu_1, # of connection points: 4
#     Node 11, Type 0, BuildingBlock: QUQFOY_clean_sbu_1, # of connection points: 4
#     Node 12, Type 0, BuildingBlock: QUQFOY_clean_sbu_1, # of connection points: 4
#     Node 13, Type 0, BuildingBlock: QUQFOY_clean_sbu_1, # of connection points: 4
#     Node 14, Type 0, BuildingBlock: QUQFOY_clean_sbu_1, # of connection points: 4
#     Node 15, Type 0, BuildingBlock: QUQFOY_clean_sbu_1, # of connection points: 4
#     Edge 16, Type (0, 0), BuildingBlock: EZIPEK_clean_linker_0, # of connection points: 2
#     Edge 17, Type (0, 0), BuildingBlock: EZIPEK_clean_linker_0, # of connection points: 2
#     Edge 18, Type (0, 0), BuildingBlock: EZIPEK_clean_linker_0, # of connection points: 2
#     Edge 19, Type (0, 0), BuildingBlock: EZIPEK_clean_linker_0, # of connection points: 2
#     Edge 20, Type (0, 0), BuildingBlock: EZIPEK_clean_linker_0, # of connection points: 2
#     Edge 21, Type (0, 0), BuildingBlock: EZIPEK_clean_linker_0, # of connection points: 2
#     Edge 22, Type (0, 0), BuildingBlock: EZIPEK_clean_linker_0, # of connection points: 2
#     Edge 23, Type (0, 0), BuildingBlock: EZIPEK_clean_linker_0, # of connection points: 2
#     Edge 24, Type (0, 0), BuildingBlock: EZIPEK_clean_linker_0, # of connection points: 2
#     Edge 25, Type (0, 0), BuildingBlock: EZIPEK_clean_linker_0, # of connection points: 2
#     Edge 26, Type (0, 0), BuildingBlock: EZIPEK_clean_linker_0, # of connection points: 2
#     Edge 27, Type (0, 0), BuildingBlock: EZIPEK_clean_linker_0, # of connection points: 2
#     Edge 28, Type (0, 0), BuildingBlock: EZIPEK_clean_linker_0, # of connection points: 2
#     Edge 29, Type (0, 0), BuildingBlock: EZIPEK_clean_linker_0, # of connection points: 2
#     Edge 30, Type (0, 0), BuildingBlock: EZIPEK_clean_linker_0, # of connection points: 2
#     Edge 31, Type (0, 0), BuildingBlock: EZIPEK_clean_linker_0, # of connection points: 2
#     Edge 32, Type (0, 0), BuildingBlock: EZIPEK_clean_linker_0, # of connection points: 2
#     Edge 33, Type (0, 0), BuildingBlock: EZIPEK_clean_linker_0, # of connection points: 2
#     Edge 34, Type (0, 0), BuildingBlock: EZIPEK_clean_linker_0, # of connection points: 2
#     Edge 35, Type (0, 0), BuildingBlock: EZIPEK_clean_linker_0, # of connection points: 2
#     Edge 36, Type (0, 0), BuildingBlock: EZIPEK_clean_linker_0, # of connection points: 2
#     Edge 37, Type (0, 0), BuildingBlock: EZIPEK_clean_linker_0, # of connection points: 2
#     Edge 38, Type (0, 0), BuildingBlock: EZIPEK_clean_linker_0, # of connection points: 2
#     Edge 39, Type (0, 0), BuildingBlock: EZIPEK_clean_linker_0, # of connection points: 2
#     Edge 40, Type (0, 0), BuildingBlock: EZIPEK_clean_linker_0, # of connection points: 2
#     Edge 41, Type (0, 0), BuildingBlock: EZIPEK_clean_linker_0, # of connection points: 2
#     Edge 42, Type (0, 0), BuildingBlock: EZIPEK_clean_linker_0, # of connection points: 2
#     Edge 43, Type (0, 0), BuildingBlock: EZIPEK_clean_linker_0, # of connection points: 2
#     Edge 44, Type (0, 0), BuildingBlock: EZIPEK_clean_linker_0, # of connection points: 2
#     Edge 45, Type (0, 0), BuildingBlock: EZIPEK_clean_linker_0, # of connection points: 2
#     Edge 46, Type (0, 0), BuildingBlock: EZIPEK_clean_linker_0, # of connection points: 2
#     Edge 47, Type (0, 0), BuildingBlock: EZIPEK_clean_linker_0, # of connection points: 2
# Relax obj value: 0.072
# Max RMSD: 0.139
# Mean RMSD: 0.139
data_MOF--net-wfa--node1-QUQFOY_clean_sbu_1--edge1-EZIPEK_clean_linker_0
_symmetry_space_group_name_H-M    P1
_symmetry_Int_Tables_number       1
_symmetry_cell_setting            triclinic
loop_
_symmetry_equiv_pos_as_xyz
'x, y, z'
_cell_length_a     37.355904
_cell_length_b     37.446434
_cell_length_c     17.480833
_cell_angle_alpha  90.049952
_cell_angle_beta   90.072458
_cell_angle_gamma 90.375943
loop_
_atom_site_label
_atom_site_type_symbol
_atom_site_fract_x
_atom_site_fract_y
_atom_site_fract_z
_atom_type_partial_charge
O0 O 0.71415 1.02095 0.20344 0.0
Cd1 Cd 0.69555 0.04566 0.10819 0.0
Cd2 Cd 0.63347 0.02727 0.17617 0.0
O3 O 0.66523 0.9929 0.24183 0.0
O4 O 0.73736 0.0446 0.03702 0.0
O5 O 0.68676 1.01568 0.01338 0.0
C6 C 0.71947 0.02276 0.99433 0.0
C7 C 0.57641 1.0162 0.12085 0.0
C8 C 0.69845 1.00034 0.25024 0.0
C9 C 0.66266 0.10346 0.19147 0.0
O10 O 0.64174 0.07867 0.21369 0.0
O11 O 0.68453 0.09818 0.1368 0.0
O12 O 0.58056 1.01846 0.19399 0.0
O13 O 0.60487 1.0179 0.07894 0.0
O14 O 0.53038 0.75933 0.18606 0.0
Cd15 Cd 0.50635 0.73542 0.09508 0.0
Cd16 Cd 0.55014 0.68461 0.14276 0.0
O17 O 0.57951 0.72707 0.19017 0.0
O18 O 0.48803 0.77604 0.03301 0.0
O19 O 0.53189 0.74035 0.99492 0.0
C20 C 0.51279 0.76861 0.98416 0.0
C21 C 0.56632 0.63221 0.07621 0.0
C22 C 0.56157 0.75409 0.21223 0.0
C23 C 0.47259 0.67941 0.18133 0.0
O24 O 0.50452 0.67422 0.20346 0.0
O25 O 0.4662 0.69964 0.12452 0.0
O26 O 0.57718 0.63803 0.1453 0.0
O27 O 0.5505 0.65823 0.04146 0.0
O28 O 0.80765 0.51497 0.16258 0.0
Cd29 Cd 0.81889 0.49232 0.05949 0.0
Cd30 Cd 0.88683 0.51525 0.10929 0.0
O31 O 0.85726 0.54601 0.18539 0.0
O32 O 0.7714 0.48393 1.00824 0.0
O33 O 0.80997 0.52367 0.96714 0.0
C34 C 0.77873 0.50915 0.96062 0.0
C35 C 0.94237 0.52945 0.05209 0.0
C36 C 0.8255 0.53659 0.20383 0.0
C37 C 0.86501 0.43687 0.12115 0.0
O38 O 0.88468 0.46294 0.14124 0.0
O39 O 0.83872 0.44122 0.07582 0.0
O40 O 0.93933 0.52608 0.12512 0.0
O41 O 0.91344 0.5278 0.01158 0.0
O42 O 1.0122 0.85922 0.13241 0.0
Cd43 Cd 0.05472 0.84112 0.0703 0.0
Cd44 Cd 0.07673 0.91344 0.12609 0.0
O45 O 0.04157 0.89424 0.20964 0.0
O46 O 0.03681 0.79247 0.03899 0.0
O47 O 0.05017 0.83466 0.95561 0.0
C48 C 0.03815 0.80285 0.96889 0.0
C49 C 0.07656 0.97148 0.068 0.0
C50 C 1.01758 0.87038 0.19984 0.0
C51 C 0.12605 0.85329 0.15601 0.0
O52 O 0.12426 0.88678 0.14284 0.0
O53 O 0.10088 0.8324 0.13449 0.0
O54 O 0.0832 0.96723 0.13994 0.0
O55 O 0.06918 0.94282 0.02957 0.0
O56 O 0.21126 0.969 0.39545 0.0
Cd57 Cd 0.19393 0.94831 0.49556 0.0
Cd58 Cd 0.12957 0.96056 0.42488 0.0
O59 O 0.16115 0.99167 0.34932 0.0
O60 O 0.23773 0.95128 0.56165 0.0
O61 O 0.18898 0.9822 0.5855 0.0
C62 C 0.22186 0.97513 0.60227 0.0
C63 C 0.07156 0.97024 0.47753 0.0
C64 C 0.19479 0.98558 0.34322 0.0
C65 C 0.1625 0.88626 0.42181 0.0
O66 O 0.13958 0.90851 0.39792 0.0
O67 O 0.18419 0.89467 0.47531 0.0
O68 O 0.07616 0.96559 0.40504 0.0
O69 O 0.09997 0.9721 0.51974 0.0
O70 O 0.53907 0.25916 0.36206 0.0
Cd71 Cd 0.55988 0.24333 0.46388 0.0
Cd72 Cd 0.52918 0.18185 0.41263 0.0
O73 O 0.50036 0.21532 0.34007 0.0
O74 O 0.56718 0.28839 0.52404 0.0
O75 O 0.52663 0.24759 0.55415 0.0
C76 C 0.54051 0.27882 0.5664 0.0
C77 C 0.51257 0.12859 0.47528 0.0
C78 C 0.51424 0.24544 0.32199 0.0
C79 C 0.60905 0.19312 0.39587 0.0
O80 O 0.58028 0.17822 0.37408 0.0
O81 O 0.60872 0.218 0.44571 0.0
O82 O 0.51258 0.13079 0.40169 0.0
O83 O 0.51855 0.15748 0.51388 0.0
O84 O 0.30414 0.5298 0.33267 0.0
Cd85 Cd 0.33202 0.5431 0.43042 0.0
Cd86 Cd 0.37406 0.50337 0.36123 0.0
O87 O 0.33018 0.47803 0.31213 0.0
O88 O 0.29562 0.55794 0.50668 0.0
O89 O 0.32652 0.50772 0.51618 0.0
C90 C 0.30109 0.52791 0.54106 0.0
C91 C 0.42688 0.48687 0.42431 0.0
C92 C 0.30567 0.50046 0.29617 0.0
C93 C 0.38462 0.58005 0.34602 0.0
O94 O 0.38111 0.55127 0.3087 0.0
O95 O 0.3717 0.58191 0.41325 0.0
O96 O 0.42263 0.48094 0.3519 0.0
O97 O 0.39926 0.49754 0.46256 0.0
O98 O 0.0256 0.32687 0.32559 0.0
Cd99 Cd 0.99914 0.34417 0.41956 0.0
Cd100 Cd 1.01833 0.40642 0.35735 0.0
O101 O 0.05524 0.37601 0.29541 0.0
O102 O 0.99985 0.30212 0.48949 0.0
O103 O 0.02857 0.35261 0.51498 0.0
C104 C 1.02163 0.31979 0.53284 0.0
C105 C 0.02611 0.46338 0.41403 0.0
C106 C 0.04791 0.3431 0.28337 0.0
C107 C 0.94274 0.37694 0.33333 0.0
O108 O 0.96811 0.39768 0.31345 0.0
O109 O 0.94684 0.35509 0.38839 0.0
O110 O 0.02689 0.45921 0.34079 0.0
O111 O 1.0234 0.435 0.45575 0.0
O112 O 0.30054 0.98182 0.88508 0.0
Cd113 Cd 0.32316 0.95626 0.9745 0.0
Cd114 Cd 0.37996 0.99174 0.9183 0.0
O115 O 0.34153 0.02321 0.86249 0.0
O116 O 0.28143 0.94201 0.04031 0.0
O117 O 0.3198 0.98409 0.07368 0.0
C118 C 0.29008 0.96737 0.08693 0.0
C119 C 0.43395 1.00663 0.98197 0.0
C120 C 0.31101 1.009 0.84803 0.0
C121 C 0.36821 0.91393 0.87541 0.0
O122 O 0.3825 0.94409 0.86189 0.0
O123 O 0.34651 0.91007 0.93114 0.0
O124 O 0.43022 1.01168 0.90935 0.0
O125 O 0.40615 0.99604 0.01994 0.0
O126 O 0.52774 0.35672 0.86162 0.0
Cd127 Cd 0.56125 0.36416 0.95137 0.0
Cd128 Cd 0.56436 0.43166 0.8757 0.0
O129 O 0.52588 0.4086 0.80361 0.0
O130 O 0.55164 0.31518 0.99259 0.0
O131 O 0.54569 0.363 0.06354 0.0
C132 C 0.54305 0.3288 0.05721 0.0
C133 C 0.56347 0.49058 0.92924 0.0
C134 C 0.51737 0.37559 0.80589 0.0
C135 C 0.62777 0.38116 0.86454 0.0
O136 O 0.61311 0.41055 0.84611 0.0
O137 O 0.61339 0.36014 0.91295 0.0
O138 O 0.56454 0.48532 0.85634 0.0
O139 O 0.56141 0.46231 0.9715 0.0
O140 O 0.2211 0.53854 0.83262 0.0
Cd141 Cd 0.20137 0.56419 0.92555 0.0
Cd142 Cd 0.14147 0.54374 0.86053 0.0
O143 O 0.17315 0.50704 0.80182 0.0
O144 O 0.24162 0.5633 1.0001 0.0
O145 O 0.19049 0.53426 0.01867 0.0
C146 C 0.22289 0.54119 0.04042 0.0
C147 C 0.08533 0.53423 0.91854 0.0
C148 C 0.2059 0.51542 0.79059 0.0
C149 C 0.16861 0.61976 0.83779 0.0
O150 O 0.14909 0.59385 0.81546 0.0
O151 O 0.18947 0.61617 0.89491 0.0
O152 O 0.08903 0.53272 0.84524 0.0
O153 O 0.11379 0.53893 0.95959 0.0
O154 O 0.03104 0.23998 0.82767 0.0
Cd155 Cd 1.0175 0.21512 0.92733 0.0
Cd156 Cd 0.05532 0.16607 0.86159 0.0
O157 O 0.07963 0.20882 0.80384 0.0
O158 O 1.00485 0.25418 0.99969 0.0
O159 O 0.05313 0.22071 0.01327 0.0
C160 C 0.0344 0.24774 0.03542 0.0
C161 C 0.07498 0.11325 0.92159 0.0
C162 C 0.05909 0.23501 0.78834 0.0
C163 C 0.97644 0.1609 0.85174 0.0
O164 O 1.00582 0.15648 0.81688 0.0
O165 O 0.97535 0.17933 0.91295 0.0
O166 O 0.08099 0.11904 0.84986 0.0
O167 O 0.06252 0.13954 0.96141 0.0
O168 O 0.8027 1.01535 0.70351 0.0
Cd169 Cd 0.82979 0.02981 0.60592 0.0
Cd170 Cd 0.87292 0.98869 0.67133 0.0
O171 O 0.82887 0.96333 0.72074 0.0
O172 O 0.7925 0.0456 0.53174 0.0
O173 O 0.82283 0.99526 0.51872 0.0
C174 C 0.79709 1.0157 0.49617 0.0
C175 C 0.92635 0.97299 0.60752 0.0
C176 C 0.80441 0.98563 0.73833 0.0
C177 C 0.8833 0.06498 0.69261 0.0
O178 O 0.87975 0.03564 0.72761 0.0
O179 O 0.87011 0.06801 0.62566 0.0
O180 O 0.92169 0.96581 0.67925 0.0
O181 O 0.89895 0.98473 0.56987 0.0
O182 O 0.54224 0.85798 0.6664 0.0
Cd183 Cd 0.50914 0.86422 0.57448 0.0
Cd184 Cd 0.49151 0.92642 0.64398 0.0
O185 O 0.51036 0.8951 0.73526 0.0
O186 O 0.51971 0.82029 0.51361 0.0
O187 O 0.53323 0.87414 0.47252 0.0
C188 C 0.53449 0.84005 0.46235 0.0
C189 C 0.50449 0.98551 0.6066 0.0
C190 C 0.52993 0.86739 0.73066 0.0
C191 C 0.43191 0.87837 0.62445 0.0
O192 O 0.43988 0.91136 0.62405 0.0
O193 O 0.45562 0.85558 0.60664 0.0
O194 O 0.4887 0.97871 0.6707 0.0
O195 O 0.51578 0.9587 0.56681 0.0
O196 O 0.70542 0.50673 0.65532 0.0
Cd197 Cd 0.7017 0.48044 0.55446 0.0
Cd198 Cd 0.62922 0.48016 0.61053 0.0
O199 O 0.65 0.51329 0.69675 0.0
O200 O 0.75227 0.49085 0.52312 0.0
O201 O 0.70665 0.5022 0.44821 0.0
C202 C 0.74077 0.50325 0.45936 0.0
C203 C 0.57118 0.48538 0.55592 0.0
C204 C 0.68373 0.51686 0.70636 0.0
C205 C 0.67551 0.4121 0.61485 0.0
O206 O 0.64668 0.42888 0.62856 0.0
O207 O 0.70087 0.42665 0.57745 0.0
O208 O 0.5756 0.47622 0.6263 0.0
O209 O 0.59948 0.49317 0.51681 0.0
O210 O 0.02966 0.74422 0.65619 0.0
Cd211 Cd 0.05494 0.73666 0.55399 0.0
Cd212 Cd 0.03696 0.66458 0.59891 0.0
O213 O 1.00597 0.691 0.68041 0.0
O214 O 0.0574 0.78536 0.50531 0.0
O215 O 0.02741 0.74052 0.45425 0.0
C216 C 0.03709 0.77367 0.45102 0.0
C217 C 0.02575 0.60703 0.54576 0.0
C218 C 1.01162 0.72355 0.6992 0.0
C219 C 0.11373 0.694 0.61475 0.0
O220 O 0.08952 0.6709 0.62772 0.0
O221 O 0.10737 0.72181 0.5753 0.0
O222 O 0.03118 0.61148 0.61788 0.0
O223 O 0.02382 0.63536 0.50396 0.0
C224 C 0.64399 0.194 0.27706 0.0
C225 C 0.64162 0.18256 0.35414 0.0
C226 C 0.67352 0.12817 0.32109 0.0
C227 C 0.66604 0.13491 0.24275 0.0
N228 N 0.65078 0.17642 0.1436 0.0
N229 N 0.65873 0.14202 0.45318 0.0
C230 C 0.65429 0.16903 0.21963 0.0
C231 C 0.65901 0.15113 0.37761 0.0
N232 N 0.63431 0.22808 0.2595 0.0
N233 N 0.6936 0.09921 0.34058 0.0
H234 H 0.64897 0.15941 0.4949 0.0
H235 H 0.66699 0.11735 0.47389 0.0
H236 H 0.70467 0.08244 0.29927 0.0
H237 H 0.70193 0.09378 0.3962 0.0
H238 H 0.63736 0.23938 0.20556 0.0
H239 H 0.62605 0.24592 0.30184 0.0
H240 H 0.63978 0.19982 0.12237 0.0
H241 H 0.65876 0.1585 0.10129 0.0
C242 C 0.3966 0.6449 0.30744 0.0
C243 C 0.40708 0.60842 0.31071 0.0
C244 C 0.45064 0.61924 0.20987 0.0
C245 C 0.44481 0.65622 0.21511 0.0
N246 N 0.41453 0.70557 0.27458 0.0
N247 N 0.45298 0.56503 0.28229 0.0
C248 C 0.41834 0.6696 0.26553 0.0
C249 C 0.43679 0.59684 0.26701 0.0
N250 N 0.36556 0.65572 0.34107 0.0
N251 N 0.46929 0.60538 0.14986 0.0
H252 H 0.44597 0.54933 0.32924 0.0
H253 H 0.47616 0.55681 0.25434 0.0
H254 H 0.47966 0.62129 0.10602 0.0
H255 H 0.47048 0.57796 0.13983 0.0
H256 H 0.35513 0.68123 0.33384 0.0
H257 H 0.34876 0.63847 0.37121 0.0
H258 H 0.3983 0.71682 0.31649 0.0
H259 H 0.42933 0.72404 0.24281 0.0
C260 C 0.90072 0.38272 0.14271 0.0
C261 C 0.87065 0.40318 0.16299 0.0
C262 C 0.87833 0.38721 0.29803 0.0
C263 C 0.9124 0.37381 0.27902 0.0
N264 N 0.94954 0.34501 0.18573 0.0
N265 N 0.82385 0.41597 0.2523 0.0
C266 C 0.92103 0.36642 0.20162 0.0
C267 C 0.85659 0.4014 0.23828 0.0
N268 N 0.91125 0.38186 0.068 0.0
N269 N 0.86793 0.38768 0.37281 0.0
H270 H 0.80819 0.42634 0.20815 0.0
H271 H 0.81154 0.41648 0.30557 0.0
H272 H 0.88397 0.37721 0.41614 0.0
H273 H 0.84326 0.39671 0.39181 0.0
H274 H 0.93509 0.3707 0.04909 0.0
H275 H 0.89569 0.39325 0.02483 0.0
H276 H 0.95681 0.33714 0.13083 0.0
H277 H 0.96427 0.33279 0.22916 0.0
C278 C 0.13891 0.81975 0.27668 0.0
C279 C 0.15195 0.84125 0.21595 0.0
C280 C 0.19425 0.86909 0.30485 0.0
C281 C 0.17159 0.85815 0.36571 0.0
N282 N 0.12818 0.81686 0.41376 0.0
N283 N 0.20086 0.87562 0.1665 0.0
C284 C 0.14644 0.83057 0.35307 0.0
C285 C 0.18332 0.86179 0.22824 0.0
N286 N 0.11933 0.78977 0.2611 0.0
N287 N 0.22419 0.88877 0.32098 0.0
H288 H 0.19291 0.86922 0.11079 0.0
H289 H 0.22284 0.89275 0.16984 0.0
H290 H 0.23218 0.89367 0.37726 0.0
H291 H 0.24203 0.89825 0.28001 0.0
H292 H 0.11049 0.77212 0.3031 0.0
H293 H 0.11601 0.78043 0.20528 0.0
H294 H 0.10713 0.79878 0.40802 0.0
H295 H 0.13421 0.82458 0.46981 0.0
C296 C 0.35312 0.89824 0.74207 0.0
C297 C 0.3697 0.88789 0.8117 0.0
C298 C 0.40798 0.84767 0.73953 0.0
C299 C 0.40067 0.86772 0.67261 0.0
N300 N 0.36011 0.90523 0.60434 0.0
N301 N 0.41017 0.84923 0.87835 0.0
C302 C 0.37029 0.88998 0.6717 0.0
C303 C 0.39572 0.86074 0.81118 0.0
N304 N 0.3223 0.91757 0.7444 0.0
N305 N 0.4268 0.81677 0.73431 0.0
H306 H 0.40062 0.85801 0.9312 0.0
H307 H 0.43221 0.83234 0.88098 0.0
H308 H 0.43355 0.80589 0.68132 0.0
H309 H 0.4314 0.80012 0.78099 0.0
H310 H 0.30788 0.92503 0.69605 0.0
H311 H 0.30967 0.92342 0.79612 0.0
H312 H 0.34061 0.92485 0.59978 0.0
H313 H 0.37234 0.89824 0.55277 0.0
C314 C 0.7036 0.39037 0.7313 0.0
C315 C 0.68272 0.38167 0.66627 0.0
C316 C 0.6423 0.3474 0.74776 0.0
C317 C 0.65512 0.36765 0.81098 0.0
N318 N 0.70205 0.40252 0.868 0.0
N319 N 0.6387 0.34389 0.60869 0.0
C320 C 0.68788 0.38641 0.80479 0.0
C321 C 0.65505 0.35613 0.67344 0.0
N322 N 0.73683 0.40487 0.72171 0.0
N323 N 0.61635 0.32211 0.75864 0.0
H324 H 0.64852 0.35069 0.55462 0.0
H325 H 0.6156 0.32823 0.60842 0.0
H326 H 0.607 0.31552 0.81304 0.0
H327 H 0.60645 0.3057 0.71532 0.0
H328 H 0.754 0.41092 0.76694 0.0
H329 H 0.74815 0.40747 0.66741 0.0
H330 H 0.72385 0.41999 0.86634 0.0
H331 H 0.69074 0.39886 0.92209 0.0
C332 C 0.14275 0.70439 0.73898 0.0
C333 C 0.14597 0.69108 0.66321 0.0
C334 C 0.18372 0.64278 0.70915 0.0
C335 C 0.17199 0.65036 0.78459 0.0
N336 N 0.14985 0.69258 0.87563 0.0
N337 N 0.17506 0.65325 0.57285 0.0
C338 C 0.15518 0.68311 0.80112 0.0
C339 C 0.16942 0.66271 0.64727 0.0
N340 N 0.12496 0.73567 0.75056 0.0
N341 N 0.2073 0.61558 0.69762 0.0
H342 H 0.16496 0.66857 0.52788 0.0
H343 H 0.18893 0.63062 0.55573 0.0
H344 H 0.21807 0.60118 0.7432 0.0
H345 H 0.21812 0.60899 0.64469 0.0
H346 H 0.11989 0.74684 0.80389 0.0
H347 H 0.11623 0.75127 0.70481 0.0
H348 H 0.13777 0.71613 0.89308 0.0
H349 H 0.1591 0.67692 0.92079 0.0
C350 C 0.95092 0.10177 0.83011 0.0
C351 C 0.94609 0.13886 0.82544 0.0
C352 C 0.89662 0.12914 0.73496 0.0
C353 C 0.90627 0.0925 0.72999 0.0
N354 N 0.95107 0.04773 0.75651 0.0
N355 N 0.91626 0.18918 0.76909 0.0
C356 C 0.93585 0.07987 0.77312 0.0
C357 C 0.91933 0.15307 0.77675 0.0
N358 N 0.97069 0.08754 0.8881 0.0
N359 N 0.86555 0.14088 0.70279 0.0
H360 H 0.93159 0.20704 0.80151 0.0
H361 H 0.89992 0.20111 0.72821 0.0
H362 H 0.84803 0.12416 0.67301 0.0
H363 H 0.85581 0.1666 0.71107 0.0
H364 H 0.97186 0.06011 0.89787 0.0
H365 H 0.98237 0.10334 0.93075 0.0
H366 H 0.97379 0.03837 0.78432 0.0
H367 H 0.94381 0.03277 0.7086 0.0
C368 C 0.77149 0.98809 0.94347 0.0
C369 C 0.73769 1.00412 0.92978 0.0
C370 C 0.74338 0.98843 0.79411 0.0
C371 C 0.78017 0.98095 0.80527 0.0
N372 N 0.82996 0.97439 0.89263 0.0
N373 N 0.69137 1.02029 0.83982 0.0
C374 C 0.79432 0.98018 0.88069 0.0
C375 C 0.72316 1.00383 0.85467 0.0
N376 N 0.78152 0.97983 0.01653 0.0
N377 N 0.72813 0.98117 0.72479 0.0
H378 H 0.67609 0.03262 0.88192 0.0
H379 H 0.68154 0.0242 0.78471 0.0
H380 H 0.74261 0.96913 0.68079 0.0
H381 H 0.70081 0.98343 0.71401 0.0
H382 H 0.80439 0.96521 0.02933 0.0
H383 H 0.76492 0.98404 0.06362 0.0
H384 H 0.84239 0.97851 0.94533 0.0
H385 H 0.84765 0.96738 0.8493 0.0
C386 C 0.51531 0.80542 0.7812 0.0
C387 C 0.52906 0.84075 0.79437 0.0
C388 C 0.5341 0.82755 0.93161 0.0
C389 C 0.5198 0.79276 0.91845 0.0
N390 N 0.49355 0.74927 0.83387 0.0
N391 N 0.55896 0.88222 0.87815 0.0
C392 C 0.51031 0.78161 0.84383 0.0
C393 C 0.54036 0.85096 0.86866 0.0
N394 N 0.50674 0.79437 0.70886 0.0
N395 N 0.5407 0.83858 1.00487 0.0
H396 H 0.56416 0.89983 0.83325 0.0
H397 H 0.57226 0.88916 0.92837 0.0
H398 H 0.53767 0.82189 0.05207 0.0
H399 H 0.54711 0.86475 0.01976 0.0
H400 H 0.50373 0.7677 0.69323 0.0
H401 H 0.50276 0.81148 0.66312 0.0
H402 H 0.48122 0.74113 0.78337 0.0
H403 H 0.48963 0.73098 0.87808 0.0
C404 C 0.71487 0.51087 0.91336 0.0
C405 C 0.75144 0.52051 0.90181 0.0
C406 C 0.73266 0.54637 0.77906 0.0
C407 C 0.70035 0.52636 0.7813 0.0
N408 N 0.66448 0.48307 0.85163 0.0
N409 N 0.79512 0.54569 0.81233 0.0
C410 C 0.69201 0.50717 0.84909 0.0
C411 C 0.76045 0.5385 0.83218 0.0
N412 N 0.70154 0.50585 0.98521 0.0
N413 N 0.73741 0.5715 0.72345 0.0
H414 H 0.81734 0.53837 0.84405 0.0
H415 H 0.80213 0.55564 0.75868 0.0
H416 H 0.71728 0.57739 0.68398 0.0
H417 H 0.75943 0.58876 0.72226 0.0
H418 H 0.67446 0.50059 0.99507 0.0
H419 H 0.71617 0.51216 0.0343 0.0
H420 H 0.6601 0.46666 0.89896 0.0
H421 H 0.64784 0.47735 0.80545 0.0
C422 C 0.99892 0.79229 0.85335 0.0
C423 C 0.02487 0.77931 0.90584 0.0
C424 C 1.02331 0.72133 0.83988 0.0
C425 C 1.0046 0.73713 0.77798 0.0
N426 N 0.97173 0.78674 0.72755 0.0
N427 N 0.06377 0.73149 0.94606 0.0
C428 C 0.99107 0.77224 0.78601 0.0
C429 C 0.03717 0.74359 0.89916 0.0
N430 N 0.98105 0.82319 0.86891 0.0
N431 N 0.02827 0.68524 0.84174 0.0
H432 H 0.07615 0.74729 0.98756 0.0
H433 H 0.07601 0.7068 0.9391 0.0
H434 H 1.01699 0.668 0.80156 0.0
H435 H 0.03937 0.67197 0.88832 0.0
H436 H 0.95968 0.83237 0.83628 0.0
H437 H 0.98522 0.83792 0.91883 0.0
H438 H 0.96508 0.81367 0.72453 0.0
H439 H 0.96354 0.77163 0.68034 0.0
C440 C 0.22837 1.00123 0.73657 0.0
C441 C 0.24237 0.9953 0.66208 0.0
C442 C 0.30184 1.01541 0.70571 0.0
C443 C 0.28829 1.01884 0.78119 0.0
N444 N 0.23723 0.02932 0.86071 0.0
N445 N 0.28808 1.01119 0.57045 0.0
C446 C 0.25081 1.01721 0.79311 0.0
C447 C 0.27775 1.00712 0.64493 0.0
N448 N 0.195 0.98909 0.75571 0.0
N449 N 0.33776 1.01776 0.69228 0.0
H450 H 0.27057 1.00709 0.52466 0.0
H451 H 0.31249 0.02254 0.55453 0.0
H452 H 0.35606 0.0267 0.73302 0.0
H453 H 0.34946 1.0099 0.64091 0.0
H454 H 0.18521 0.98943 0.81147 0.0
H455 H 0.17807 0.97587 0.71764 0.0
H456 H 0.2099 0.03141 0.87153 0.0
H457 H 0.25375 0.04062 0.90264 0.0
C458 C 0.52093 0.34112 0.60299 0.0
C459 C 0.52481 0.30441 0.62305 0.0
C460 C 0.49773 0.31827 0.74691 0.0
C461 C 0.50535 0.35505 0.73617 0.0
N462 N 0.51556 0.40254 0.64588 0.0
N463 N 0.5177 0.2585 0.71971 0.0
C464 C 0.51394 0.36691 0.66135 0.0
C465 C 0.51263 0.29284 0.69597 0.0
N466 N 0.52189 0.35106 0.52785 0.0
N467 N 0.47751 0.30787 0.80792 0.0
H468 H 0.53098 0.23939 0.68732 0.0
H469 H 0.51207 0.25007 0.77525 0.0
H470 H 0.46618 0.32659 0.84491 0.0
H471 H 0.46904 0.28157 0.81623 0.0
H472 H 0.51622 0.37679 0.50942 0.0
H473 H 0.52408 0.33276 0.48313 0.0
H474 H 0.52778 0.4129 0.5972 0.0
H475 H 0.50422 0.42158 0.68182 0.0
C476 C 0.23838 0.51752 0.58613 0.0
C477 C 0.27568 0.51552 0.6012 0.0
C478 C 0.26199 0.49427 0.73062 0.0
C479 C 0.22583 0.50466 0.72088 0.0
N480 N 0.17976 0.52846 0.63791 0.0
N481 N 0.3235 0.50243 0.68977 0.0
C482 C 0.21378 0.51609 0.64782 0.0
C483 C 0.28773 0.50322 0.67352 0.0
N484 N 0.22633 0.52025 0.51253 0.0
N485 N 0.27162 0.47671 0.79581 0.0
H486 H 0.34317 0.50965 0.65041 0.0
H487 H 0.33361 0.49735 0.74418 0.0
H488 H 0.25287 0.46996 0.83777 0.0
H489 H 0.2969 0.46588 0.80454 0.0
H490 H 0.19934 0.51827 0.49779 0.0
H491 H 0.24348 0.5205 0.46554 0.0
H492 H 0.17197 0.54248 0.58928 0.0
H493 H 0.15986 0.52684 0.6793 0.0
C494 C 0.04213 0.31592 0.67151 0.0
C495 C 0.04043 0.30122 0.59669 0.0
C496 C 0.0634 0.24419 0.64521 0.0
C497 C 0.064 0.25856 0.72041 0.0
N498 N 0.06717 0.31095 0.79934 0.0
N499 N 0.06306 0.25679 0.50934 0.0
C500 C 0.05807 0.29559 0.73115 0.0
C501 C 0.05553 0.26708 0.58259 0.0
N502 N 0.02644 0.34793 0.68729 0.0
N503 N 0.0679 0.20845 0.63331 0.0
H504 H 0.05912 0.27349 0.46235 0.0
H505 H 0.07698 0.23355 0.49628 0.0
H506 H 0.07498 0.19063 0.67625 0.0
H507 H 0.0627 0.19614 0.58093 0.0
H508 H 1.0237 0.3579 0.74261 0.0
H509 H 1.01341 0.36322 0.6462 0.0
H510 H 0.06604 0.33835 0.80938 0.0
H511 H 0.07959 0.29635 0.84268 0.0
C512 C 0.20376 0.97531 0.20112 0.0
C513 C 0.21537 0.99108 0.27086 0.0
C514 C 0.27707 0.99161 0.22142 0.0
C515 C 0.2648 0.97845 0.14948 0.0
N516 N 0.21357 0.97309 0.06488 0.0
N517 N 0.2616 0.02375 0.3373 0.0
C518 C 0.22722 0.97526 0.13728 0.0
C519 C 0.25152 1.00279 0.27698 0.0
N520 N 0.17177 0.95766 0.19633 0.0
N521 N 0.3126 0.99105 0.23978 0.0
H522 H 0.24326 0.03246 0.37822 0.0
H523 H 0.28694 0.03538 0.34179 0.0
H524 H 0.33214 0.98035 0.2043 0.0
H525 H 0.32216 0.99738 0.29419 0.0
H526 H 0.16449 0.94299 0.14802 0.0
H527 H 0.15373 0.95529 0.24134 0.0
H528 H 0.18613 0.97272 0.05382 0.0
H529 H 0.22925 0.97657 0.01612 0.0
C530 C 0.53323 0.24757 0.18743 0.0
C531 C 0.51003 0.26076 0.24461 0.0
C532 C 0.50183 0.31535 0.16928 0.0
C533 C 0.53094 0.30534 0.1214 0.0
N534 N 0.57868 0.26355 0.09558 0.0
N535 N 0.47305 0.30792 0.29279 0.0
C536 C 0.54751 0.27161 0.1325 0.0
C537 C 0.49432 0.29482 0.23602 0.0
N538 N 0.54311 0.2125 0.18816 0.0
N539 N 0.4805 0.34341 0.14983 0.0
H540 H 0.46567 0.29256 0.34012 0.0
H541 H 0.46435 0.3343 0.29445 0.0
H542 H 0.48365 0.35776 0.09921 0.0
H543 H 0.45729 0.34986 0.17964 0.0
H544 H 0.55767 0.20065 0.14425 0.0
H545 H 0.53341 0.19436 0.22844 0.0
H546 H 0.59272 0.24008 0.10478 0.0
H547 H 0.59307 0.28191 0.06288 0.0
C548 C 0.24493 0.50467 0.2394 0.0
C549 C 0.28162 0.49663 0.22871 0.0
C550 C 0.27359 0.50479 0.09072 0.0
C551 C 0.24019 0.52152 0.10443 0.0
N552 N 0.19356 0.53756 0.19344 0.0
N553 N 0.33156 0.48953 0.14193 0.0
C554 C 0.22523 0.52084 0.17899 0.0
C555 C 0.29602 0.49597 0.15355 0.0
N556 N 0.2293 0.49714 0.30808 0.0
N557 N 0.28364 0.49682 0.01753 0.0
H558 H 0.34906 0.48179 0.18507 0.0
H559 H 0.34418 0.4938 0.08957 0.0
H560 H 0.26731 0.50185 0.97032 0.0
H561 H 0.30615 0.4817 1.00458 0.0
H562 H 0.202 0.49988 0.31845 0.0
H563 H 0.24338 0.48438 0.35176 0.0
H564 H 0.18344 0.54118 0.24837 0.0
H565 H 0.17862 0.55023 0.1512 0.0
C566 C 0.05957 0.26136 0.16773 0.0
C567 C 0.04768 0.27323 0.09492 0.0
C568 C 0.04921 0.33542 0.14006 0.0
C569 C 0.05963 0.32339 0.21384 0.0
N570 N 0.08677 0.2775 0.28949 0.0
N571 N 0.04485 0.32201 1.00491 0.0
C572 C 0.06932 0.28715 0.22411 0.0
C573 C 0.04697 0.31045 0.07891 0.0
N574 N 0.05904 0.22582 0.18536 0.0
N575 N 0.03891 0.36997 0.12886 0.0
H576 H 0.04429 0.30454 0.95845 0.0
H577 H 0.04769 0.34873 0.98931 0.0
H578 H 0.04203 0.38999 0.16958 0.0
H579 H 0.02576 0.37845 0.07957 0.0
H580 H 0.06377 0.2161 0.24023 0.0
H581 H 0.05096 0.20607 0.14695 0.0
H582 H 0.09711 0.25209 0.2986 0.0
H583 H 0.09396 0.29629 0.33109 0.0
C584 C 0.70803 1.00359 0.39326 0.0
C585 C 0.71921 0.99104 0.32031 0.0
C586 C 0.78173 0.99051 0.3648 0.0
C587 C 0.77064 1.0037 0.43712 0.0
N588 N 0.72225 1.00977 0.52767 0.0
N589 N 0.76422 0.96168 0.24574 0.0
C590 C 0.73346 1.00603 0.45371 0.0
C591 C 0.7553 0.98051 0.30978 0.0
N592 N 0.67398 1.01568 0.40423 0.0
N593 N 0.81725 0.98986 0.34635 0.0
H594 H 0.74505 0.95406 0.20522 0.0
H595 H 0.78942 0.95066 0.23695 0.0
H596 H 0.83742 0.99809 0.38374 0.0
H597 H 0.82657 0.98409 0.29163 0.0
H598 H 0.66637 0.03005 0.45258 0.0
H599 H 0.65362 1.01326 0.36397 0.0
H600 H 0.69545 1.008 0.54383 0.0
H601 H 0.73988 1.01065 0.57389 0.0
C602 C 0.55158 0.83622 0.32083 0.0
C603 C 0.55372 0.82299 0.397 0.0
C604 C 0.57873 0.76672 0.34899 0.0
C605 C 0.57374 0.77904 0.27325 0.0
N606 N 0.57253 0.82969 0.1901 0.0
N607 N 0.58481 0.78304 0.4825 0.0
C608 C 0.56651 0.81556 0.26077 0.0
C609 C 0.57247 0.7906 0.41077 0.0
N610 N 0.53298 0.86651 0.30409 0.0
N611 N 0.58728 0.73192 0.36247 0.0
H612 H 0.58256 0.80102 0.52787 0.0
H613 H 0.60091 0.76112 0.4945 0.0
H614 H 0.59429 0.71427 0.31905 0.0
H615 H 0.58631 0.72044 0.41672 0.0
H616 H 0.52783 0.87469 0.24821 0.0
H617 H 0.51996 0.88195 0.34473 0.0
H618 H 0.57012 0.85683 0.17804 0.0
H619 H 0.5838 0.81436 0.14644 0.0
C620 C 0.80061 0.50275 0.39102 0.0
C621 C 0.76616 0.5182 0.40135 0.0
C622 C 0.77757 0.55758 0.29168 0.0
C623 C 0.81163 0.54195 0.28219 0.0
N624 N 0.86058 0.51071 0.34084 0.0
N625 N 0.72853 0.56952 0.37821 0.0
C626 C 0.82502 0.51885 0.33913 0.0
C627 C 0.75662 0.54858 0.35693 0.0
N628 N 0.8092 0.47104 0.42482 0.0
N629 N 0.76485 0.58011 0.23685 0.0
H630 H 0.71421 0.5654 0.4286 0.0
H631 H 0.72227 0.59336 0.35076 0.0
H632 H 0.78065 0.58844 0.19087 0.0
H633 H 0.73849 0.58906 0.23556 0.0
H634 H 0.83332 0.45808 0.41508 0.0
H635 H 0.79091 0.45519 0.4544 0.0
H636 H 0.87226 0.49603 0.38481 0.0
H637 H 0.87902 0.52233 0.30357 0.0
C638 C 1.00758 0.8086 0.2547 0.0
C639 C 1.00899 0.84614 0.26644 0.0
C640 C 1.01568 0.83412 0.40417 0.0
C641 C 0.02504 0.79803 0.38787 0.0
N642 N 0.03464 0.75291 0.29043 0.0
N643 N 1.00945 0.89472 0.3567 0.0
C644 C 1.02203 0.78564 0.31124 0.0
C645 C 1.01148 0.85893 0.34275 0.0
N646 N 0.99137 0.79454 0.19142 0.0
N647 N 1.00874 0.84432 0.47763 0.0
H648 H 1.0019 0.91294 0.3146 0.0
H649 H 1.01601 0.90615 0.40924 0.0
H650 H 1.00887 0.82658 0.52355 0.0
H651 H 0.99841 0.86924 0.49138 0.0
H652 H 0.98833 0.7671 0.18315 0.0
H653 H 0.97603 0.80999 0.15437 0.0
H654 H 0.03548 0.74457 0.2335 0.0
H655 H 0.04824 0.73606 0.32766 0.0
C656 C 0.49611 0.98231 1.00328 0.0
C657 C 0.47017 1.00907 0.01879 0.0
C658 C 0.51459 0.04151 0.09732 0.0
C659 C 0.53974 1.01357 0.08596 0.0
N660 N 0.55223 0.95451 0.03931 0.0
N661 N 0.45289 0.06154 0.08881 0.0
C662 C 0.52994 0.98328 0.0416 0.0
C663 C 0.47886 0.0378 0.06863 0.0
N664 N 0.48849 0.95588 0.95158 0.0
N665 N 0.52539 0.07247 0.13224 0.0
H666 H 0.42701 0.06056 0.06639 0.0
H667 H 0.45615 0.08064 0.13163 0.0
H668 H 0.55131 0.07654 0.15285 0.0
H669 H 0.50973 0.09532 0.13502 0.0
H670 H 0.5076 0.93835 0.93035 0.0
H671 H 0.46343 0.95265 0.92604 0.0
H672 H 0.54474 0.92991 0.0166 0.0
H673 H 0.57709 0.95409 0.06655 0.0
C674 C 0.58539 0.55621 0.93296 0.0
C675 C 0.56423 0.52769 0.96417 0.0
C676 C 0.55149 0.56587 0.07576 0.0
C677 C 0.56848 0.59571 0.04022 0.0
N678 N 0.59891 0.61976 0.93006 0.0
N679 N 0.51793 0.5115 0.0544 0.0
C680 C 0.58431 0.59103 0.96704 0.0
C681 C 0.5449 0.53419 0.03275 0.0
N682 N 0.60815 0.55008 0.87339 0.0
N683 N 0.54106 0.56732 0.15055 0.0
H684 H 0.50926 0.49013 0.02082 0.0
H685 H 0.50091 0.51679 0.10021 0.0
H686 H 0.54242 0.59012 0.1843 0.0
H687 H 0.5331 0.54461 0.18073 0.0
H688 H 0.62743 0.56846 0.85538 0.0
H689 H 0.61036 0.52574 0.84578 0.0
H690 H 0.60625 0.61923 0.87257 0.0
H691 H 0.60201 0.64475 0.95562 0.0
C692 C 0.9921 0.50089 0.97672 0.0
C693 C 0.97855 0.53131 0.01583 0.0
C694 C 0.03453 0.56398 0.98857 0.0
C695 C 0.04895 0.53284 0.95391 0.0
N696 N 0.04377 0.4703 0.92393 0.0
N697 N 0.98811 0.59025 0.06758 0.0
C698 C 0.02825 0.50097 0.95002 0.0
C699 C 1.00023 0.56235 0.02449 0.0
N700 N 0.97042 0.47177 0.96532 0.0
N701 N 0.05292 0.59563 0.98394 0.0
H702 H 0.96245 0.59089 0.09099 0.0
H703 H 1.00411 0.61177 0.08413 0.0
H704 H 0.07798 0.59802 0.95814 0.0
H705 H 0.04227 0.62012 1.00007 0.0
H706 H 0.97695 0.45055 0.92961 0.0
H707 H 0.94473 0.46953 0.9881 0.0
H708 H 0.03181 0.44518 0.92725 0.0
H709 H 0.0701 0.4694 0.90423 0.0
C710 C 0.09956 0.07045 0.02174 0.0
C711 C 0.07826 0.07645 0.95569 0.0
C712 C 0.05311 1.01574 0.96957 0.0
C713 C 0.07714 1.00805 0.03044 0.0
N714 N 0.13012 0.02699 0.09985 0.0
N715 N 0.04187 0.04984 0.85543 0.0
C716 C 0.10218 0.0352 0.0529 0.0
C717 C 0.05766 0.04749 0.92566 0.0
N718 N 0.11809 0.09819 0.05408 0.0
N719 N 0.02394 0.99431 0.95675 0.0
H720 H 0.04106 0.07298 0.82275 0.0
H721 H 0.03176 0.02736 0.82729 0.0
H722 H 1.01687 0.97313 0.99229 0.0
H723 H 1.00409 1.00053 0.91699 0.0
H724 H 0.13034 0.09646 0.10756 0.0
H725 H 0.11957 0.1235 0.02952 0.0
H726 H 0.15109 0.04461 0.11192 0.0
H727 H 0.13482 1.00131 0.11909 0.0
C728 C 1.02221 0.94257 0.55867 0.0
C729 C 0.03453 0.97116 0.51153 0.0
C730 C 0.97705 1.00182 0.53158 0.0
C731 C 0.96321 0.97165 0.57205 0.0
N732 N 0.97144 0.91118 0.61522 0.0
N733 N 1.02161 0.02573 0.44428 0.0
C734 C 0.98563 0.94152 0.58358 0.0
C735 C 1.01117 0.99988 0.49485 0.0
N736 N 0.04535 0.91602 0.57872 0.0
N737 N 0.95901 0.03348 0.53295 0.0
H738 H 0.04712 0.0268 0.4202 0.0
H739 H 1.00415 0.04471 0.42223 0.0
H740 H 0.93517 0.03722 0.56259 0.0
H741 H 0.96964 0.0573 0.51196 0.0
H742 H 0.03968 0.89681 0.62002 0.0
H743 H 0.07127 0.91418 0.55717 0.0
H744 H 0.98528 0.88733 0.62117 0.0
H745 H 0.9445 0.90867 0.62981 0.0
C746 C 0.47529 0.04366 0.56793 0.0
C747 C 0.50695 0.02295 0.57658 0.0
C748 C 0.54197 0.07143 0.51694 0.0
C749 C 0.51074 0.09295 0.51341 0.0
N750 N 0.4491 0.10213 0.54712 0.0
N751 N 0.57131 1.01971 0.5719 0.0
C752 C 0.47788 0.07988 0.5429 0.0
C753 C 0.54056 0.03754 0.55433 0.0
N754 N 0.44245 0.02811 0.57886 0.0
N755 N 0.57299 0.08321 0.48359 0.0
H756 H 0.57138 0.9953 0.60056 0.0
H757 H 0.59685 0.03047 0.56449 0.0
H758 H 0.57572 0.10848 0.45912 0.0
H759 H 0.59535 0.06717 0.47572 0.0
H760 H 0.41841 0.04062 0.56565 0.0
H761 H 0.439 1.00141 0.59406 0.0
H762 H 0.42554 0.09556 0.5758 0.0
H763 H 0.44985 0.1284 0.5273 0.0
C764 C 0.52386 0.45938 0.46771 0.0
C765 C 0.53454 0.4861 0.52109 0.0
C766 C 0.47599 0.51489 0.50581 0.0
C767 C 0.46354 0.48574 0.46008 0.0
N768 N 0.47452 0.42721 0.40781 0.0
N769 N 0.51875 0.53652 0.59969 0.0
C770 C 0.48729 0.4572 0.44352 0.0
C771 C 0.50984 0.51276 0.54331 0.0
N772 N 0.54855 0.43577 0.44062 0.0
N773 N 0.45701 0.54597 0.5088 0.0
H774 H 0.54397 0.53743 0.62533 0.0
H775 H 0.50025 0.55365 0.62471 0.0
H776 H 0.43362 0.55026 0.47786 0.0
H777 H 0.46671 0.56917 0.53464 0.0
H778 H 0.54356 0.41839 0.39526 0.0
H779 H 0.57493 0.4351 0.4601 0.0
H780 H 0.48967 0.40438 0.39868 0.0
H781 H 0.44761 0.42369 0.39363 0.0
C782 C 0.99471 0.557 0.47294 0.0
C783 C 0.02551 0.57032 0.51147 0.0
C784 C 0.05553 0.51244 0.49203 0.0
C785 C 0.0258 0.50001 0.44866 0.0
N786 N 0.96798 0.51122 0.39198 0.0
N787 N 0.08768 0.56319 0.54533 0.0
C788 C 0.99573 0.52264 0.43711 0.0
C789 C 0.0565 0.54861 0.51808 0.0
N790 N 0.96392 0.57654 0.47368 0.0
N791 N 0.08294 0.48968 0.5085 0.0
H792 H 0.08995 0.58963 0.56362 0.0
H793 H 0.11219 0.55024 0.54298 0.0
H794 H 0.08424 0.46373 0.487 0.0
H795 H 0.10319 0.4956 0.5476 0.0
H796 H 0.93931 0.56697 0.45431 0.0
H797 H 0.96224 0.60164 0.49931 0.0
H798 H 0.94749 0.52776 0.37321 0.0
H799 H 0.96624 0.48545 0.36958 0.0
loop_
_geom_bond_atom_site_label_1
_geom_bond_atom_site_label_2
_geom_bond_distance
_geom_bond_site_symmetry_2
_ccdc_geom_bond_type
O0 Cd1 2.223 . S
O0 C8 1.315 . S
Cd1 O0 2.223 . S
Cd1 O4 2.297 1_554 S
Cd1 O5 2.439 1_554 S
Cd1 O11 2.240 . S
Cd2 O3 2.240 . S
Cd2 O10 2.223 . S
Cd2 O12 2.297 1_545 S
Cd2 O13 2.438 . S
O3 Cd2 2.240 . S
O3 C8 1.279 . S
O4 Cd1 2.297 1_556 S
O4 C6 1.247 . S
O5 Cd1 2.439 1_556 S
O5 C6 1.208 . S
C6 O4 1.247 . S
C6 O5 1.208 . S
C7 O12 1.247 . S
C7 O13 1.208 1_565 S
C8 O0 1.315 . S
C8 O3 1.279 . S
C9 O10 1.315 . S
C9 O11 1.279 . S
O10 Cd2 2.223 . S
O10 C9 1.315 . S
O11 Cd1 2.240 . S
O11 C9 1.279 . S
O12 Cd2 2.297 1_565 S
O12 C7 1.247 . S
O13 Cd2 2.438 . S
O13 C7 1.208 1_545 S
O14 Cd15 2.223 . S
O14 C22 1.315 . S
Cd15 O14 2.223 . S
Cd15 O18 2.297 1_554 S
Cd15 O19 2.439 1_554 S
Cd15 O25 2.240 . S
Cd16 O17 2.240 . S
Cd16 O24 2.223 . S
Cd16 O26 2.297 . S
Cd16 O27 2.438 . S
O17 Cd16 2.240 . S
O17 C22 1.279 . S
O18 Cd15 2.297 1_556 S
O18 C20 1.247 . S
O19 Cd15 2.439 1_556 S
O19 C20 1.208 . S
C20 O18 1.247 . S
C20 O19 1.208 . S
C21 O26 1.247 . S
C21 O27 1.208 . S
C22 O14 1.315 . S
C22 O17 1.279 . S
C23 O24 1.315 . S
C23 O25 1.279 . S
O24 Cd16 2.223 . S
O24 C23 1.315 . S
O25 Cd15 2.240 . S
O25 C23 1.279 . S
O26 Cd16 2.297 . S
O26 C21 1.247 . S
O27 Cd16 2.438 . S
O27 C21 1.208 . S
O28 Cd29 2.223 . S
O28 C36 1.315 . S
Cd29 O28 2.223 . S
Cd29 O32 2.297 1_554 S
Cd29 O33 2.439 1_554 S
Cd29 O39 2.240 . S
Cd30 O31 2.240 . S
Cd30 O38 2.223 . S
Cd30 O40 2.297 . S
Cd30 O41 2.438 . S
O31 Cd30 2.240 . S
O31 C36 1.279 . S
O32 Cd29 2.297 1_556 S
O32 C34 1.247 . S
O33 Cd29 2.439 1_556 S
O33 C34 1.208 . S
C34 O32 1.247 . S
C34 O33 1.208 . S
C35 O40 1.247 . S
C35 O41 1.208 . S
C36 O28 1.315 . S
C36 O31 1.279 . S
C37 O38 1.315 . S
C37 O39 1.279 . S
O38 Cd30 2.223 . S
O38 C37 1.315 . S
O39 Cd29 2.240 . S
O39 C37 1.279 . S
O40 Cd30 2.297 . S
O40 C35 1.247 . S
O41 Cd30 2.438 . S
O41 C35 1.208 . S
O42 Cd43 2.223 . S
O42 C50 1.315 . S
Cd43 O42 2.223 . S
Cd43 O46 2.297 1_554 S
Cd43 O47 2.439 1_554 S
Cd43 O53 2.240 . S
Cd44 O45 2.240 . S
Cd44 O52 2.223 . S
Cd44 O54 2.297 1_455 S
Cd44 O55 2.438 . S
O45 Cd44 2.240 . S
O45 C50 1.279 . S
O46 Cd43 2.297 1_556 S
O46 C48 1.247 . S
O47 Cd43 2.439 1_556 S
O47 C48 1.208 . S
C48 O46 1.247 . S
C48 O47 1.208 . S
C49 O54 1.247 . S
C49 O55 1.208 1_655 S
C50 O42 1.315 . S
C50 O45 1.279 . S
C51 O52 1.315 . S
C51 O53 1.279 . S
O52 Cd44 2.223 . S
O52 C51 1.315 . S
O53 Cd43 2.240 . S
O53 C51 1.279 . S
O54 Cd44 2.297 1_655 S
O54 C49 1.247 . S
O55 Cd44 2.438 . S
O55 C49 1.208 1_455 S
O56 Cd57 2.223 . S
O56 C64 1.315 . S
Cd57 O56 2.223 . S
Cd57 O60 2.297 . S
Cd57 O61 2.439 . S
Cd57 O67 2.240 . S
Cd58 O59 2.240 . S
Cd58 O66 2.223 . S
Cd58 O68 2.297 1_565 S
Cd58 O69 2.439 . S
O59 Cd58 2.240 . S
O59 C64 1.279 . S
O60 Cd57 2.297 . S
O60 C62 1.247 . S
O61 Cd57 2.439 . S
O61 C62 1.208 . S
C62 O60 1.247 . S
C62 O61 1.208 . S
C63 O68 1.247 . S
C63 O69 1.208 1_545 S
C64 O56 1.315 . S
C64 O59 1.279 . S
C65 O66 1.315 . S
C65 O67 1.279 . S
O66 Cd58 2.223 . S
O66 C65 1.315 . S
O67 Cd57 2.240 . S
O67 C65 1.279 . S
O68 Cd58 2.297 1_545 S
O68 C63 1.247 . S
O69 Cd58 2.439 . S
O69 C63 1.208 1_565 S
O70 Cd71 2.223 . S
O70 C78 1.315 . S
Cd71 O70 2.223 . S
Cd71 O74 2.297 . S
Cd71 O75 2.439 . S
Cd71 O81 2.240 . S
Cd72 O73 2.240 . S
Cd72 O80 2.223 . S
Cd72 O82 2.297 . S
Cd72 O83 2.439 . S
O73 Cd72 2.240 . S
O73 C78 1.279 . S
O74 Cd71 2.297 . S
O74 C76 1.247 . S
O75 Cd71 2.439 . S
O75 C76 1.208 . S
C76 O74 1.247 . S
C76 O75 1.208 . S
C77 O82 1.247 . S
C77 O83 1.208 . S
C78 O70 1.315 . S
C78 O73 1.279 . S
C79 O80 1.315 . S
C79 O81 1.279 . S
O80 Cd72 2.223 . S
O80 C79 1.315 . S
O81 Cd71 2.240 . S
O81 C79 1.279 . S
O82 Cd72 2.297 . S
O82 C77 1.247 . S
O83 Cd72 2.439 . S
O83 C77 1.208 . S
O84 Cd85 2.223 . S
O84 C92 1.315 . S
Cd85 O84 2.223 . S
Cd85 O88 2.297 . S
Cd85 O89 2.439 . S
Cd85 O95 2.240 . S
Cd86 O87 2.240 . S
Cd86 O94 2.223 . S
Cd86 O96 2.297 . S
Cd86 O97 2.439 . S
O87 Cd86 2.240 . S
O87 C92 1.279 . S
O88 Cd85 2.297 . S
O88 C90 1.247 . S
O89 Cd85 2.439 . S
O89 C90 1.208 . S
C90 O88 1.247 . S
C90 O89 1.208 . S
C91 O96 1.247 . S
C91 O97 1.208 . S
C92 O84 1.315 . S
C92 O87 1.279 . S
C93 O94 1.315 . S
C93 O95 1.279 . S
O94 Cd86 2.223 . S
O94 C93 1.315 . S
O95 Cd85 2.240 . S
O95 C93 1.279 . S
O96 Cd86 2.297 . S
O96 C91 1.247 . S
O97 Cd86 2.439 . S
O97 C91 1.208 . S
O98 Cd99 2.223 . S
O98 C106 1.315 . S
Cd99 O98 2.223 . S
Cd99 O102 2.297 . S
Cd99 O103 2.439 . S
Cd99 O109 2.240 . S
Cd100 O101 2.240 . S
Cd100 O108 2.223 . S
Cd100 O110 2.297 1_655 S
Cd100 O111 2.439 . S
O101 Cd100 2.240 . S
O101 C106 1.279 . S
O102 Cd99 2.297 . S
O102 C104 1.247 . S
O103 Cd99 2.439 . S
O103 C104 1.208 . S
C104 O102 1.247 . S
C104 O103 1.208 . S
C105 O110 1.247 . S
C105 O111 1.208 1_455 S
C106 O98 1.315 . S
C106 O101 1.279 . S
C107 O108 1.315 . S
C107 O109 1.279 . S
O108 Cd100 2.223 . S
O108 C107 1.315 . S
O109 Cd99 2.240 . S
O109 C107 1.279 . S
O110 Cd100 2.297 1_455 S
O110 C105 1.247 . S
O111 Cd100 2.439 . S
O111 C105 1.208 1_655 S
O112 Cd113 2.223 . S
O112 C120 1.315 . S
Cd113 O112 2.223 . S
Cd113 O116 2.297 1_556 S
Cd113 O117 2.439 1_556 S
Cd113 O123 2.240 . S
Cd114 O115 2.240 . S
Cd114 O122 2.223 . S
Cd114 O124 2.297 1_565 S
Cd114 O125 2.438 . S
O115 Cd114 2.240 . S
O115 C120 1.279 . S
O116 Cd113 2.297 1_554 S
O116 C118 1.247 . S
O117 Cd113 2.439 1_554 S
O117 C118 1.208 . S
C118 O116 1.247 . S
C118 O117 1.208 . S
C119 O124 1.247 . S
C119 O125 1.208 1_545 S
C120 O112 1.315 . S
C120 O115 1.279 . S
C121 O122 1.315 . S
C121 O123 1.279 . S
O122 Cd114 2.223 . S
O122 C121 1.315 . S
O123 Cd113 2.240 . S
O123 C121 1.279 . S
O124 Cd114 2.297 1_545 S
O124 C119 1.247 . S
O125 Cd114 2.438 . S
O125 C119 1.208 1_565 S
O126 Cd127 2.223 . S
O126 C134 1.315 . S
Cd127 O126 2.223 . S
Cd127 O130 2.297 1_556 S
Cd127 O131 2.439 1_556 S
Cd127 O137 2.240 . S
Cd128 O129 2.240 . S
Cd128 O136 2.223 . S
Cd128 O138 2.297 . S
Cd128 O139 2.438 . S
O129 Cd128 2.240 . S
O129 C134 1.279 . S
O130 Cd127 2.297 1_554 S
O130 C132 1.247 . S
O131 Cd127 2.439 1_554 S
O131 C132 1.208 . S
C132 O130 1.247 . S
C132 O131 1.208 . S
C133 O138 1.247 . S
C133 O139 1.208 . S
C134 O126 1.315 . S
C134 O129 1.279 . S
C135 O136 1.315 . S
C135 O137 1.279 . S
O136 Cd128 2.223 . S
O136 C135 1.315 . S
O137 Cd127 2.240 . S
O137 C135 1.279 . S
O138 Cd128 2.297 . S
O138 C133 1.247 . S
O139 Cd128 2.438 . S
O139 C133 1.208 . S
O140 Cd141 2.223 . S
O140 C148 1.315 . S
Cd141 O140 2.223 . S
Cd141 O144 2.297 1_556 S
Cd141 O145 2.439 1_556 S
Cd141 O151 2.240 . S
Cd142 O143 2.240 . S
Cd142 O150 2.223 . S
Cd142 O152 2.297 . S
Cd142 O153 2.438 . S
O143 Cd142 2.240 . S
O143 C148 1.279 . S
O144 Cd141 2.297 1_554 S
O144 C146 1.247 . S
O145 Cd141 2.439 1_554 S
O145 C146 1.208 . S
C146 O144 1.247 . S
C146 O145 1.208 . S
C147 O152 1.247 . S
C147 O153 1.208 . S
C148 O140 1.315 . S
C148 O143 1.279 . S
C149 O150 1.315 . S
C149 O151 1.279 . S
O150 Cd142 2.223 . S
O150 C149 1.315 . S
O151 Cd141 2.240 . S
O151 C149 1.279 . S
O152 Cd142 2.297 . S
O152 C147 1.247 . S
O153 Cd142 2.438 . S
O153 C147 1.208 . S
O154 Cd155 2.223 . S
O154 C162 1.315 . S
Cd155 O154 2.223 . S
Cd155 O158 2.297 1_556 S
Cd155 O159 2.439 1_556 S
Cd155 O165 2.240 . S
Cd156 O157 2.240 . S
Cd156 O164 2.223 . S
Cd156 O166 2.297 1_655 S
Cd156 O167 2.438 . S
O157 Cd156 2.240 . S
O157 C162 1.279 . S
O158 Cd155 2.297 1_554 S
O158 C160 1.247 . S
O159 Cd155 2.439 1_554 S
O159 C160 1.208 . S
C160 O158 1.247 . S
C160 O159 1.208 . S
C161 O166 1.247 . S
C161 O167 1.208 1_455 S
C162 O154 1.315 . S
C162 O157 1.279 . S
C163 O164 1.315 . S
C163 O165 1.279 . S
O164 Cd156 2.223 . S
O164 C163 1.315 . S
O165 Cd155 2.240 . S
O165 C163 1.279 . S
O166 Cd156 2.297 1_455 S
O166 C161 1.247 . S
O167 Cd156 2.438 . S
O167 C161 1.208 1_655 S
O168 Cd169 2.223 . S
O168 C176 1.315 . S
Cd169 O168 2.223 . S
Cd169 O172 2.297 . S
Cd169 O173 2.439 . S
Cd169 O179 2.240 . S
Cd170 O171 2.240 . S
Cd170 O178 2.223 . S
Cd170 O180 2.297 1_545 S
Cd170 O181 2.439 . S
O171 Cd170 2.240 . S
O171 C176 1.279 . S
O172 Cd169 2.297 . S
O172 C174 1.247 . S
O173 Cd169 2.439 . S
O173 C174 1.208 . S
C174 O172 1.247 . S
C174 O173 1.208 . S
C175 O180 1.247 . S
C175 O181 1.208 1_565 S
C176 O168 1.315 . S
C176 O171 1.279 . S
C177 O178 1.315 . S
C177 O179 1.279 . S
O178 Cd170 2.223 . S
O178 C177 1.315 . S
O179 Cd169 2.240 . S
O179 C177 1.279 . S
O180 Cd170 2.297 1_565 S
O180 C175 1.247 . S
O181 Cd170 2.439 . S
O181 C175 1.208 1_545 S
O182 Cd183 2.223 . S
O182 C190 1.315 . S
Cd183 O182 2.223 . S
Cd183 O186 2.297 . S
Cd183 O187 2.439 . S
Cd183 O193 2.240 . S
Cd184 O185 2.240 . S
Cd184 O192 2.223 . S
Cd184 O194 2.297 . S
Cd184 O195 2.439 . S
O185 Cd184 2.240 . S
O185 C190 1.279 . S
O186 Cd183 2.297 . S
O186 C188 1.247 . S
O187 Cd183 2.439 . S
O187 C188 1.208 . S
C188 O186 1.247 . S
C188 O187 1.208 . S
C189 O194 1.247 . S
C189 O195 1.208 . S
C190 O182 1.315 . S
C190 O185 1.279 . S
C191 O192 1.315 . S
C191 O193 1.279 . S
O192 Cd184 2.223 . S
O192 C191 1.315 . S
O193 Cd183 2.240 . S
O193 C191 1.279 . S
O194 Cd184 2.297 . S
O194 C189 1.247 . S
O195 Cd184 2.439 . S
O195 C189 1.208 . S
O196 Cd197 2.223 . S
O196 C204 1.315 . S
Cd197 O196 2.223 . S
Cd197 O200 2.297 . S
Cd197 O201 2.439 . S
Cd197 O207 2.240 . S
Cd198 O199 2.240 . S
Cd198 O206 2.223 . S
Cd198 O208 2.297 . S
Cd198 O209 2.439 . S
O199 Cd198 2.240 . S
O199 C204 1.279 . S
O200 Cd197 2.297 . S
O200 C202 1.247 . S
O201 Cd197 2.439 . S
O201 C202 1.208 . S
C202 O200 1.247 . S
C202 O201 1.208 . S
C203 O208 1.247 . S
C203 O209 1.208 . S
C204 O196 1.315 . S
C204 O199 1.279 . S
C205 O206 1.315 . S
C205 O207 1.279 . S
O206 Cd198 2.223 . S
O206 C205 1.315 . S
O207 Cd197 2.240 . S
O207 C205 1.279 . S
O208 Cd198 2.297 . S
O208 C203 1.247 . S
O209 Cd198 2.439 . S
O209 C203 1.208 . S
O210 Cd211 2.223 . S
O210 C218 1.315 . S
Cd211 O210 2.223 . S
Cd211 O214 2.297 . S
Cd211 O215 2.439 . S
Cd211 O221 2.240 . S
Cd212 O213 2.240 . S
Cd212 O220 2.223 . S
Cd212 O222 2.297 1_455 S
Cd212 O223 2.439 . S
O213 Cd212 2.240 . S
O213 C218 1.279 . S
O214 Cd211 2.297 . S
O214 C216 1.247 . S
O215 Cd211 2.439 . S
O215 C216 1.208 . S
C216 O214 1.247 . S
C216 O215 1.208 . S
C217 O222 1.247 . S
C217 O223 1.208 1_655 S
C218 O210 1.315 . S
C218 O213 1.279 . S
C219 O220 1.315 . S
C219 O221 1.279 . S
O220 Cd212 2.223 . S
O220 C219 1.315 . S
O221 Cd211 2.240 . S
O221 C219 1.279 . S
O222 Cd212 2.297 1_655 S
O222 C217 1.247 . S
O223 Cd212 2.439 . S
O223 C217 1.208 1_455 S
C224 C225 1.363 . S
C224 C230 1.379 . S
C224 N232 1.356 . S
C225 C224 1.363 . S
C225 C231 1.363 . S
C226 C227 1.363 . S
C226 C231 1.379 . S
C226 N233 1.356 . S
C227 C226 1.363 . S
C227 C230 1.363 . S
N228 C230 1.356 . S
N228 H240 0.984 . S
N228 H241 0.985 . S
N229 C231 1.356 . S
N229 H234 0.984 . S
N229 H235 0.985 . S
C230 C224 1.379 . S
C230 C227 1.363 . S
C230 N228 1.356 . S
C231 C225 1.363 . S
C231 C226 1.379 . S
C231 N229 1.356 . S
N232 C224 1.356 . S
N232 H238 0.984 . S
N232 H239 0.984 . S
N233 C226 1.356 . S
N233 H236 0.984 . S
N233 H237 0.985 . S
H234 N229 0.984 . S
H235 N229 0.985 . S
H236 N233 0.984 . S
H237 N233 0.985 . S
H238 N232 0.984 . S
H239 N232 0.984 . S
H240 N228 0.984 . S
H241 N228 0.985 . S
C242 C243 1.363 . S
C242 C248 1.379 . S
C242 N250 1.356 . S
C243 C242 1.363 . S
C243 C249 1.363 . S
C244 C245 1.363 . S
C244 C249 1.379 . S
C244 N251 1.356 . S
C245 C244 1.363 . S
C245 C248 1.363 . S
N246 C248 1.356 . S
N246 H258 0.984 . S
N246 H259 0.985 . S
N247 C249 1.356 . S
N247 H252 0.984 . S
N247 H253 0.985 . S
C248 C242 1.379 . S
C248 C245 1.363 . S
C248 N246 1.356 . S
C249 C243 1.363 . S
C249 C244 1.379 . S
C249 N247 1.356 . S
N250 C242 1.356 . S
N250 H256 0.984 . S
N250 H257 0.984 . S
N251 C244 1.356 . S
N251 H254 0.984 . S
N251 H255 0.985 . S
H252 N247 0.984 . S
H253 N247 0.985 . S
H254 N251 0.984 . S
H255 N251 0.985 . S
H256 N250 0.984 . S
H257 N250 0.984 . S
H258 N246 0.984 . S
H259 N246 0.985 . S
C260 C261 1.363 . S
C260 C266 1.379 . S
C260 N268 1.356 . S
C261 C260 1.363 . S
C261 C267 1.363 . S
C262 C263 1.363 . S
C262 C267 1.379 . S
C262 N269 1.356 . S
C263 C262 1.363 . S
C263 C266 1.363 . S
N264 C266 1.356 . S
N264 H276 0.984 . S
N264 H277 0.985 . S
N265 C267 1.356 . S
N265 H270 0.984 . S
N265 H271 0.985 . S
C266 C260 1.379 . S
C266 C263 1.363 . S
C266 N264 1.356 . S
C267 C261 1.363 . S
C267 C262 1.379 . S
C267 N265 1.356 . S
N268 C260 1.356 . S
N268 H274 0.984 . S
N268 H275 0.984 . S
N269 C262 1.356 . S
N269 H272 0.984 . S
N269 H273 0.985 . S
H270 N265 0.984 . S
H271 N265 0.985 . S
H272 N269 0.984 . S
H273 N269 0.985 . S
H274 N268 0.984 . S
H275 N268 0.984 . S
H276 N264 0.984 . S
H277 N264 0.985 . S
C278 C279 1.363 . S
C278 C284 1.379 . S
C278 N286 1.356 . S
C279 C278 1.363 . S
C279 C285 1.363 . S
C280 C281 1.363 . S
C280 C285 1.379 . S
C280 N287 1.356 . S
C281 C280 1.363 . S
C281 C284 1.363 . S
N282 C284 1.356 . S
N282 H294 0.984 . S
N282 H295 0.985 . S
N283 C285 1.356 . S
N283 H288 0.984 . S
N283 H289 0.985 . S
C284 C278 1.379 . S
C284 C281 1.363 . S
C284 N282 1.356 . S
C285 C279 1.363 . S
C285 C280 1.379 . S
C285 N283 1.356 . S
N286 C278 1.356 . S
N286 H292 0.984 . S
N286 H293 0.984 . S
N287 C280 1.356 . S
N287 H290 0.984 . S
N287 H291 0.985 . S
H288 N283 0.984 . S
H289 N283 0.985 . S
H290 N287 0.984 . S
H291 N287 0.985 . S
H292 N286 0.984 . S
H293 N286 0.984 . S
H294 N282 0.984 . S
H295 N282 0.985 . S
C296 C297 1.363 . S
C296 C302 1.379 . S
C296 N304 1.356 . S
C297 C296 1.363 . S
C297 C303 1.363 . S
C298 C299 1.363 . S
C298 C303 1.379 . S
C298 N305 1.356 . S
C299 C298 1.363 . S
C299 C302 1.363 . S
N300 C302 1.356 . S
N300 H312 0.984 . S
N300 H313 0.985 . S
N301 C303 1.356 . S
N301 H306 0.984 . S
N301 H307 0.985 . S
C302 C296 1.379 . S
C302 C299 1.363 . S
C302 N300 1.356 . S
C303 C297 1.363 . S
C303 C298 1.379 . S
C303 N301 1.356 . S
N304 C296 1.356 . S
N304 H310 0.984 . S
N304 H311 0.984 . S
N305 C298 1.356 . S
N305 H308 0.984 . S
N305 H309 0.985 . S
H306 N301 0.984 . S
H307 N301 0.985 . S
H308 N305 0.984 . S
H309 N305 0.985 . S
H310 N304 0.984 . S
H311 N304 0.984 . S
H312 N300 0.984 . S
H313 N300 0.985 . S
C314 C315 1.363 . S
C314 C320 1.379 . S
C314 N322 1.356 . S
C315 C314 1.363 . S
C315 C321 1.363 . S
C316 C317 1.363 . S
C316 C321 1.379 . S
C316 N323 1.356 . S
C317 C316 1.363 . S
C317 C320 1.363 . S
N318 C320 1.356 . S
N318 H330 0.984 . S
N318 H331 0.985 . S
N319 C321 1.356 . S
N319 H324 0.984 . S
N319 H325 0.985 . S
C320 C314 1.379 . S
C320 C317 1.363 . S
C320 N318 1.356 . S
C321 C315 1.363 . S
C321 C316 1.379 . S
C321 N319 1.356 . S
N322 C314 1.356 . S
N322 H328 0.984 . S
N322 H329 0.984 . S
N323 C316 1.356 . S
N323 H326 0.984 . S
N323 H327 0.985 . S
H324 N319 0.984 . S
H325 N319 0.985 . S
H326 N323 0.984 . S
H327 N323 0.985 . S
H328 N322 0.984 . S
H329 N322 0.984 . S
H330 N318 0.984 . S
H331 N318 0.985 . S
C332 C333 1.363 . S
C332 C338 1.379 . S
C332 N340 1.356 . S
C333 C332 1.363 . S
C333 C339 1.363 . S
C334 C335 1.363 . S
C334 C339 1.379 . S
C334 N341 1.356 . S
C335 C334 1.363 . S
C335 C338 1.363 . S
N336 C338 1.356 . S
N336 H348 0.984 . S
N336 H349 0.985 . S
N337 C339 1.356 . S
N337 H342 0.984 . S
N337 H343 0.985 . S
C338 C332 1.379 . S
C338 C335 1.363 . S
C338 N336 1.356 . S
C339 C333 1.363 . S
C339 C334 1.379 . S
C339 N337 1.356 . S
N340 C332 1.356 . S
N340 H346 0.984 . S
N340 H347 0.984 . S
N341 C334 1.356 . S
N341 H344 0.984 . S
N341 H345 0.985 . S
H342 N337 0.984 . S
H343 N337 0.985 . S
H344 N341 0.984 . S
H345 N341 0.985 . S
H346 N340 0.984 . S
H347 N340 0.984 . S
H348 N336 0.984 . S
H349 N336 0.985 . S
C350 C351 1.363 . S
C350 C356 1.379 . S
C350 N358 1.356 . S
C351 C350 1.363 . S
C351 C357 1.363 . S
C352 C353 1.363 . S
C352 C357 1.379 . S
C352 N359 1.356 . S
C353 C352 1.363 . S
C353 C356 1.363 . S
N354 C356 1.356 . S
N354 H366 0.984 . S
N354 H367 0.985 . S
N355 C357 1.356 . S
N355 H360 0.984 . S
N355 H361 0.985 . S
C356 C350 1.379 . S
C356 C353 1.363 . S
C356 N354 1.356 . S
C357 C351 1.363 . S
C357 C352 1.379 . S
C357 N355 1.356 . S
N358 C350 1.356 . S
N358 H364 0.984 . S
N358 H365 0.984 . S
N359 C352 1.356 . S
N359 H362 0.984 . S
N359 H363 0.985 . S
H360 N355 0.984 . S
H361 N355 0.985 . S
H362 N359 0.984 . S
H363 N359 0.985 . S
H364 N358 0.984 . S
H365 N358 0.984 . S
H366 N354 0.984 . S
H367 N354 0.985 . S
C368 C369 1.363 . S
C368 C374 1.379 . S
C368 N376 1.356 . S
C369 C368 1.363 . S
C369 C375 1.363 . S
C370 C371 1.363 . S
C370 C375 1.379 . S
C370 N377 1.356 . S
C371 C370 1.363 . S
C371 C374 1.363 . S
N372 C374 1.356 1_565 S
N372 H384 0.984 . S
N372 H385 0.985 . S
N373 C375 1.356 . S
N373 H378 0.984 . S
N373 H379 0.985 . S
C374 C368 1.379 . S
C374 C371 1.363 . S
C374 N372 1.356 1_545 S
C375 C369 1.363 . S
C375 C370 1.379 . S
C375 N373 1.356 . S
N376 C368 1.356 . S
N376 H382 0.984 1_545 S
N376 H383 0.984 . S
N377 C370 1.356 . S
N377 H380 0.984 . S
N377 H381 0.985 . S
H378 N373 0.984 . S
H379 N373 0.985 . S
H380 N377 0.984 . S
H381 N377 0.985 . S
H382 N376 0.984 1_565 S
H383 N376 0.984 . S
H384 N372 0.984 . S
H385 N372 0.985 . S
C386 C387 1.363 . S
C386 C392 1.379 . S
C386 N394 1.356 . S
C387 C386 1.363 . S
C387 C393 1.363 . S
C388 C389 1.363 . S
C388 C393 1.379 . S
C388 N395 1.356 . S
C389 C388 1.363 . S
C389 C392 1.363 . S
N390 C392 1.356 . S
N390 H402 0.984 . S
N390 H403 0.985 . S
N391 C393 1.356 . S
N391 H396 0.984 . S
N391 H397 0.985 . S
C392 C386 1.379 . S
C392 C389 1.363 . S
C392 N390 1.356 . S
C393 C387 1.363 . S
C393 C388 1.379 . S
C393 N391 1.356 . S
N394 C386 1.356 . S
N394 H400 0.984 . S
N394 H401 0.984 . S
N395 C388 1.356 . S
N395 H398 0.984 . S
N395 H399 0.985 . S
H396 N391 0.984 . S
H397 N391 0.985 . S
H398 N395 0.984 . S
H399 N395 0.985 . S
H400 N394 0.984 . S
H401 N394 0.984 . S
H402 N390 0.984 . S
H403 N390 0.985 . S
C404 C405 1.363 . S
C404 C410 1.379 . S
C404 N412 1.356 . S
C405 C404 1.363 . S
C405 C411 1.363 . S
C406 C407 1.363 . S
C406 C411 1.379 . S
C406 N413 1.356 . S
C407 C406 1.363 . S
C407 C410 1.363 . S
N408 C410 1.356 . S
N408 H420 0.984 . S
N408 H421 0.985 . S
N409 C411 1.356 . S
N409 H414 0.984 . S
N409 H415 0.985 . S
C410 C404 1.379 . S
C410 C407 1.363 . S
C410 N408 1.356 . S
C411 C405 1.363 . S
C411 C406 1.379 . S
C411 N409 1.356 . S
N412 C404 1.356 . S
N412 H418 0.984 . S
N412 H419 0.984 . S
N413 C406 1.356 . S
N413 H416 0.984 . S
N413 H417 0.985 . S
H414 N409 0.984 . S
H415 N409 0.985 . S
H416 N413 0.984 . S
H417 N413 0.985 . S
H418 N412 0.984 . S
H419 N412 0.984 . S
H420 N408 0.984 . S
H421 N408 0.985 . S
C422 C423 1.363 . S
C422 C428 1.379 . S
C422 N430 1.356 . S
C423 C422 1.363 . S
C423 C429 1.363 . S
C424 C425 1.363 . S
C424 C429 1.379 . S
C424 N431 1.356 . S
C425 C424 1.363 . S
C425 C428 1.363 . S
N426 C428 1.356 1_655 S
N426 H438 0.984 . S
N426 H439 0.985 . S
N427 C429 1.356 . S
N427 H432 0.984 . S
N427 H433 0.985 . S
C428 C422 1.379 . S
C428 C425 1.363 . S
C428 N426 1.356 1_455 S
C429 C423 1.363 . S
C429 C424 1.379 . S
C429 N427 1.356 . S
N430 C422 1.356 . S
N430 H436 0.984 1_455 S
N430 H437 0.984 . S
N431 C424 1.356 . S
N431 H434 0.984 . S
N431 H435 0.985 . S
H432 N427 0.984 . S
H433 N427 0.985 . S
H434 N431 0.984 . S
H435 N431 0.985 . S
H436 N430 0.984 1_655 S
H437 N430 0.984 . S
H438 N426 0.984 . S
H439 N426 0.985 . S
C440 C441 1.363 . S
C440 C446 1.379 . S
C440 N448 1.356 . S
C441 C440 1.363 . S
C441 C447 1.363 . S
C442 C443 1.363 . S
C442 C447 1.379 . S
C442 N449 1.356 1_565 S
C443 C442 1.363 . S
C443 C446 1.363 . S
N444 C446 1.356 . S
N444 H456 0.984 . S
N444 H457 0.985 . S
N445 C447 1.356 . S
N445 H450 0.984 . S
N445 H451 0.985 1_565 S
C446 C440 1.379 . S
C446 C443 1.363 . S
C446 N444 1.356 . S
C447 C441 1.363 . S
C447 C442 1.379 . S
C447 N445 1.356 . S
N448 C440 1.356 . S
N448 H454 0.984 . S
N448 H455 0.984 . S
N449 C442 1.356 1_545 S
N449 H452 0.984 . S
N449 H453 0.985 . S
H450 N445 0.984 . S
H451 N445 0.985 1_545 S
H452 N449 0.984 . S
H453 N449 0.985 . S
H454 N448 0.984 . S
H455 N448 0.984 . S
H456 N444 0.984 . S
H457 N444 0.985 . S
C458 C459 1.363 . S
C458 C464 1.379 . S
C458 N466 1.356 . S
C459 C458 1.363 . S
C459 C465 1.363 . S
C460 C461 1.363 . S
C460 C465 1.379 . S
C460 N467 1.356 . S
C461 C460 1.363 . S
C461 C464 1.363 . S
N462 C464 1.356 . S
N462 H474 0.984 . S
N462 H475 0.985 . S
N463 C465 1.356 . S
N463 H468 0.984 . S
N463 H469 0.985 . S
C464 C458 1.379 . S
C464 C461 1.363 . S
C464 N462 1.356 . S
C465 C459 1.363 . S
C465 C460 1.379 . S
C465 N463 1.356 . S
N466 C458 1.356 . S
N466 H472 0.984 . S
N466 H473 0.984 . S
N467 C460 1.356 . S
N467 H470 0.984 . S
N467 H471 0.985 . S
H468 N463 0.984 . S
H469 N463 0.985 . S
H470 N467 0.984 . S
H471 N467 0.985 . S
H472 N466 0.984 . S
H473 N466 0.984 . S
H474 N462 0.984 . S
H475 N462 0.985 . S
C476 C477 1.363 . S
C476 C482 1.379 . S
C476 N484 1.356 . S
C477 C476 1.363 . S
C477 C483 1.363 . S
C478 C479 1.363 . S
C478 C483 1.379 . S
C478 N485 1.356 . S
C479 C478 1.363 . S
C479 C482 1.363 . S
N480 C482 1.356 . S
N480 H492 0.984 . S
N480 H493 0.985 . S
N481 C483 1.356 . S
N481 H486 0.984 . S
N481 H487 0.985 . S
C482 C476 1.379 . S
C482 C479 1.363 . S
C482 N480 1.356 . S
C483 C477 1.363 . S
C483 C478 1.379 . S
C483 N481 1.356 . S
N484 C476 1.356 . S
N484 H490 0.984 . S
N484 H491 0.984 . S
N485 C478 1.356 . S
N485 H488 0.984 . S
N485 H489 0.985 . S
H486 N481 0.984 . S
H487 N481 0.985 . S
H488 N485 0.984 . S
H489 N485 0.985 . S
H490 N484 0.984 . S
H491 N484 0.984 . S
H492 N480 0.984 . S
H493 N480 0.985 . S
C494 C495 1.363 . S
C494 C500 1.379 . S
C494 N502 1.356 . S
C495 C494 1.363 . S
C495 C501 1.363 . S
C496 C497 1.363 . S
C496 C501 1.379 . S
C496 N503 1.356 . S
C497 C496 1.363 . S
C497 C500 1.363 . S
N498 C500 1.356 . S
N498 H510 0.984 . S
N498 H511 0.985 . S
N499 C501 1.356 . S
N499 H504 0.984 . S
N499 H505 0.985 . S
C500 C494 1.379 . S
C500 C497 1.363 . S
C500 N498 1.356 . S
C501 C495 1.363 . S
C501 C496 1.379 . S
C501 N499 1.356 . S
N502 C494 1.356 . S
N502 H508 0.984 . S
N502 H509 0.984 . S
N503 C496 1.356 . S
N503 H506 0.984 . S
N503 H507 0.985 . S
H504 N499 0.984 . S
H505 N499 0.985 . S
H506 N503 0.984 . S
H507 N503 0.985 . S
H508 N502 0.984 . S
H509 N502 0.984 . S
H510 N498 0.984 . S
H511 N498 0.985 . S
C512 C513 1.363 . S
C512 C518 1.379 . S
C512 N520 1.356 1_565 S
C513 C512 1.363 . S
C513 C519 1.363 . S
C514 C515 1.363 . S
C514 C519 1.379 . S
C514 N521 1.356 . S
C515 C514 1.363 . S
C515 C518 1.363 . S
N516 C518 1.356 1_545 S
N516 H528 0.984 . S
N516 H529 0.985 1_545 S
N517 C519 1.356 . S
N517 H522 0.984 . S
N517 H523 0.985 . S
C518 C512 1.379 . S
C518 C515 1.363 . S
C518 N516 1.356 1_565 S
C519 C513 1.363 . S
C519 C514 1.379 . S
C519 N517 1.356 . S
N520 C512 1.356 1_545 S
N520 H526 0.984 . S
N520 H527 0.984 . S
N521 C514 1.356 . S
N521 H524 0.984 . S
N521 H525 0.985 . S
H522 N517 0.984 . S
H523 N517 0.985 . S
H524 N521 0.984 . S
H525 N521 0.985 . S
H526 N520 0.984 . S
H527 N520 0.984 . S
H528 N516 0.984 . S
H529 N516 0.985 1_565 S
C530 C531 1.363 . S
C530 C536 1.379 . S
C530 N538 1.356 . S
C531 C530 1.363 . S
C531 C537 1.363 . S
C532 C533 1.363 . S
C532 C537 1.379 . S
C532 N539 1.356 . S
C533 C532 1.363 . S
C533 C536 1.363 . S
N534 C536 1.356 . S
N534 H546 0.984 . S
N534 H547 0.985 . S
N535 C537 1.356 . S
N535 H540 0.984 . S
N535 H541 0.985 . S
C536 C530 1.379 . S
C536 C533 1.363 . S
C536 N534 1.356 . S
C537 C531 1.363 . S
C537 C532 1.379 . S
C537 N535 1.356 . S
N538 C530 1.356 . S
N538 H544 0.984 . S
N538 H545 0.984 . S
N539 C532 1.356 . S
N539 H542 0.984 . S
N539 H543 0.985 . S
H540 N535 0.984 . S
H541 N535 0.985 . S
H542 N539 0.984 . S
H543 N539 0.985 . S
H544 N538 0.984 . S
H545 N538 0.984 . S
H546 N534 0.984 . S
H547 N534 0.985 . S
C548 C549 1.363 . S
C548 C554 1.379 . S
C548 N556 1.356 . S
C549 C548 1.363 . S
C549 C555 1.363 . S
C550 C551 1.363 . S
C550 C555 1.379 . S
C550 N557 1.356 . S
C551 C550 1.363 . S
C551 C554 1.363 . S
N552 C554 1.356 . S
N552 H564 0.984 . S
N552 H565 0.985 . S
N553 C555 1.356 . S
N553 H558 0.984 . S
N553 H559 0.985 . S
C554 C548 1.379 . S
C554 C551 1.363 . S
C554 N552 1.356 . S
C555 C549 1.363 . S
C555 C550 1.379 . S
C555 N553 1.356 . S
N556 C548 1.356 . S
N556 H562 0.984 . S
N556 H563 0.984 . S
N557 C550 1.356 . S
N557 H560 0.984 . S
N557 H561 0.985 . S
H558 N553 0.984 . S
H559 N553 0.985 . S
H560 N557 0.984 . S
H561 N557 0.985 . S
H562 N556 0.984 . S
H563 N556 0.984 . S
H564 N552 0.984 . S
H565 N552 0.985 . S
C566 C567 1.363 . S
C566 C572 1.379 . S
C566 N574 1.356 . S
C567 C566 1.363 . S
C567 C573 1.363 . S
C568 C569 1.363 . S
C568 C573 1.379 . S
C568 N575 1.356 1_655 S
C569 C568 1.363 . S
C569 C572 1.363 . S
N570 C572 1.356 . S
N570 H582 0.984 . S
N570 H583 0.985 . S
N571 C573 1.356 . S
N571 H576 0.984 . S
N571 H577 0.985 1_655 S
C572 C566 1.379 . S
C572 C569 1.363 . S
C572 N570 1.356 . S
C573 C567 1.363 . S
C573 C568 1.379 . S
C573 N571 1.356 . S
N574 C566 1.356 . S
N574 H580 0.984 . S
N574 H581 0.984 . S
N575 C568 1.356 1_455 S
N575 H578 0.984 . S
N575 H579 0.985 . S
H576 N571 0.984 . S
H577 N571 0.985 1_455 S
H578 N575 0.984 . S
H579 N575 0.985 . S
H580 N574 0.984 . S
H581 N574 0.984 . S
H582 N570 0.984 . S
H583 N570 0.985 . S
C584 C585 1.363 . S
C584 C590 1.379 . S
C584 N592 1.356 1_545 S
C585 C584 1.363 . S
C585 C591 1.363 . S
C586 C587 1.363 . S
C586 C591 1.379 . S
C586 N593 1.356 . S
C587 C586 1.363 . S
C587 C590 1.363 . S
N588 C590 1.356 1_565 S
N588 H600 0.984 . S
N588 H601 0.985 1_565 S
N589 C591 1.356 . S
N589 H594 0.984 . S
N589 H595 0.985 . S
C590 C584 1.379 . S
C590 C587 1.363 . S
C590 N588 1.356 1_545 S
C591 C585 1.363 . S
C591 C586 1.379 . S
C591 N589 1.356 . S
N592 C584 1.356 1_565 S
N592 H598 0.984 . S
N592 H599 0.984 . S
N593 C586 1.356 . S
N593 H596 0.984 . S
N593 H597 0.985 . S
H594 N589 0.984 . S
H595 N589 0.985 . S
H596 N593 0.984 . S
H597 N593 0.985 . S
H598 N592 0.984 . S
H599 N592 0.984 . S
H600 N588 0.984 . S
H601 N588 0.985 1_545 S
C602 C603 1.363 . S
C602 C608 1.379 . S
C602 N610 1.356 . S
C603 C602 1.363 . S
C603 C609 1.363 . S
C604 C605 1.363 . S
C604 C609 1.379 . S
C604 N611 1.356 . S
C605 C604 1.363 . S
C605 C608 1.363 . S
N606 C608 1.356 . S
N606 H618 0.984 . S
N606 H619 0.985 . S
N607 C609 1.356 . S
N607 H612 0.984 . S
N607 H613 0.985 . S
C608 C602 1.379 . S
C608 C605 1.363 . S
C608 N606 1.356 . S
C609 C603 1.363 . S
C609 C604 1.379 . S
C609 N607 1.356 . S
N610 C602 1.356 . S
N610 H616 0.984 . S
N610 H617 0.984 . S
N611 C604 1.356 . S
N611 H614 0.984 . S
N611 H615 0.985 . S
H612 N607 0.984 . S
H613 N607 0.985 . S
H614 N611 0.984 . S
H615 N611 0.985 . S
H616 N610 0.984 . S
H617 N610 0.984 . S
H618 N606 0.984 . S
H619 N606 0.985 . S
C620 C621 1.363 . S
C620 C626 1.379 . S
C620 N628 1.356 . S
C621 C620 1.363 . S
C621 C627 1.363 . S
C622 C623 1.363 . S
C622 C627 1.379 . S
C622 N629 1.356 . S
C623 C622 1.363 . S
C623 C626 1.363 . S
N624 C626 1.356 . S
N624 H636 0.984 . S
N624 H637 0.985 . S
N625 C627 1.356 . S
N625 H630 0.984 . S
N625 H631 0.985 . S
C626 C620 1.379 . S
C626 C623 1.363 . S
C626 N624 1.356 . S
C627 C621 1.363 . S
C627 C622 1.379 . S
C627 N625 1.356 . S
N628 C620 1.356 . S
N628 H634 0.984 . S
N628 H635 0.984 . S
N629 C622 1.356 . S
N629 H632 0.984 . S
N629 H633 0.985 . S
H630 N625 0.984 . S
H631 N625 0.985 . S
H632 N629 0.984 . S
H633 N629 0.985 . S
H634 N628 0.984 . S
H635 N628 0.984 . S
H636 N624 0.984 . S
H637 N624 0.985 . S
C638 C639 1.363 . S
C638 C644 1.379 . S
C638 N646 1.356 . S
C639 C638 1.363 . S
C639 C645 1.363 . S
C640 C641 1.363 . S
C640 C645 1.379 . S
C640 N647 1.356 . S
C641 C640 1.363 . S
C641 C644 1.363 . S
N642 C644 1.356 . S
N642 H654 0.984 . S
N642 H655 0.985 . S
N643 C645 1.356 . S
N643 H648 0.984 . S
N643 H649 0.985 . S
C644 C638 1.379 . S
C644 C641 1.363 . S
C644 N642 1.356 . S
C645 C639 1.363 . S
C645 C640 1.379 . S
C645 N643 1.356 . S
N646 C638 1.356 . S
N646 H652 0.984 . S
N646 H653 0.984 . S
N647 C640 1.356 . S
N647 H650 0.984 . S
N647 H651 0.985 . S
H648 N643 0.984 . S
H649 N643 0.985 . S
H650 N647 0.984 . S
H651 N647 0.985 . S
H652 N646 0.984 . S
H653 N646 0.984 . S
H654 N642 0.984 . S
H655 N642 0.985 . S
C656 C657 1.363 1_565 S
C656 C662 1.379 . S
C656 N664 1.356 . S
C657 C656 1.363 1_545 S
C657 C663 1.363 1_556 S
C658 C659 1.363 1_545 S
C658 C663 1.379 . S
C658 N665 1.356 . S
C659 C658 1.363 1_565 S
C659 C662 1.363 1_554 S
N660 C662 1.356 . S
N660 H672 0.984 . S
N660 H673 0.985 . S
N661 C663 1.356 . S
N661 H666 0.984 . S
N661 H667 0.985 . S
C662 C656 1.379 . S
C662 C659 1.363 1_556 S
C662 N660 1.356 . S
C663 C657 1.363 1_554 S
C663 C658 1.379 . S
C663 N661 1.356 . S
N664 C656 1.356 . S
N664 H670 0.984 . S
N664 H671 0.984 . S
N665 C658 1.356 . S
N665 H668 0.984 . S
N665 H669 0.985 . S
H666 N661 0.984 . S
H667 N661 0.985 . S
H668 N665 0.984 . S
H669 N665 0.985 . S
H670 N664 0.984 . S
H671 N664 0.984 . S
H672 N660 0.984 . S
H673 N660 0.985 . S
C674 C675 1.363 . S
C674 C680 1.379 . S
C674 N682 1.356 . S
C675 C674 1.363 . S
C675 C681 1.363 1_556 S
C676 C677 1.363 . S
C676 C681 1.379 . S
C676 N683 1.356 . S
C677 C676 1.363 . S
C677 C680 1.363 1_554 S
N678 C680 1.356 . S
N678 H690 0.984 . S
N678 H691 0.985 . S
N679 C681 1.356 . S
N679 H684 0.984 . S
N679 H685 0.985 . S
C680 C674 1.379 . S
C680 C677 1.363 1_556 S
C680 N678 1.356 . S
C681 C675 1.363 1_554 S
C681 C676 1.379 . S
C681 N679 1.356 . S
N682 C674 1.356 . S
N682 H688 0.984 . S
N682 H689 0.984 . S
N683 C676 1.356 . S
N683 H686 0.984 . S
N683 H687 0.985 . S
H684 N679 0.984 . S
H685 N679 0.985 . S
H686 N683 0.984 . S
H687 N683 0.985 . S
H688 N682 0.984 . S
H689 N682 0.984 . S
H690 N678 0.984 . S
H691 N678 0.985 . S
C692 C693 1.363 1_556 S
C692 C698 1.379 1_655 S
C692 N700 1.356 . S
C693 C692 1.363 1_554 S
C693 C699 1.363 . S
C694 C695 1.363 1_554 S
C694 C699 1.379 1_455 S
C694 N701 1.356 . S
C695 C694 1.363 1_556 S
C695 C698 1.363 . S
N696 C698 1.356 . S
N696 H708 0.984 . S
N696 H709 0.985 . S
N697 C699 1.356 . S
N697 H702 0.984 . S
N697 H703 0.985 . S
C698 C692 1.379 1_455 S
C698 C695 1.363 . S
C698 N696 1.356 . S
C699 C693 1.363 . S
C699 C694 1.379 1_655 S
C699 N697 1.356 . S
N700 C692 1.356 . S
N700 H706 0.984 . S
N700 H707 0.984 . S
N701 C694 1.356 . S
N701 H704 0.984 . S
N701 H705 0.985 . S
H702 N697 0.984 . S
H703 N697 0.985 . S
H704 N701 0.984 . S
H705 N701 0.985 . S
H706 N700 0.984 . S
H707 N700 0.984 . S
H708 N696 0.984 . S
H709 N696 0.985 . S
C710 C711 1.363 1_554 S
C710 C716 1.379 1_545 S
C710 N718 1.356 . S
C711 C710 1.363 1_556 S
C711 C717 1.363 1_455 S
C712 C713 1.363 1_556 S
C712 C717 1.379 1_565 S
C712 N719 1.356 . S
C713 C712 1.363 1_554 S
C713 C716 1.363 1_655 S
N714 C716 1.356 . S
N714 H726 0.984 . S
N714 H727 0.985 . S
N715 C717 1.356 . S
N715 H720 0.984 . S
N715 H721 0.985 . S
C716 C710 1.379 1_565 S
C716 C713 1.363 1_455 S
C716 N714 1.356 . S
C717 C711 1.363 1_655 S
C717 C712 1.379 1_545 S
C717 N715 1.356 . S
N718 C710 1.356 . S
N718 H724 0.984 . S
N718 H725 0.984 . S
N719 C712 1.356 . S
N719 H722 0.984 . S
N719 H723 0.985 . S
H720 N715 0.984 . S
H721 N715 0.985 . S
H722 N719 0.984 . S
H723 N719 0.985 . S
H724 N718 0.984 . S
H725 N718 0.984 . S
H726 N714 0.984 . S
H727 N714 0.985 . S
C728 C729 1.363 1_565 S
C728 C734 1.379 1_455 S
C728 N736 1.356 . S
C729 C728 1.363 1_545 S
C729 C735 1.363 . S
C730 C731 1.363 1_545 S
C730 C735 1.379 1_655 S
C730 N737 1.356 . S
C731 C730 1.363 1_565 S
C731 C734 1.363 . S
N732 C734 1.356 . S
N732 H744 0.984 . S
N732 H745 0.985 . S
N733 C735 1.356 . S
N733 H738 0.984 . S
N733 H739 0.985 . S
C734 C728 1.379 1_655 S
C734 C731 1.363 . S
C734 N732 1.356 . S
C735 C729 1.363 . S
C735 C730 1.379 1_455 S
C735 N733 1.356 . S
N736 C728 1.356 . S
N736 H742 0.984 . S
N736 H743 0.984 . S
N737 C730 1.356 . S
N737 H740 0.984 . S
N737 H741 0.985 . S
H738 N733 0.984 . S
H739 N733 0.985 . S
H740 N737 0.984 . S
H741 N737 0.985 . S
H742 N736 0.984 . S
H743 N736 0.984 . S
H744 N732 0.984 . S
H745 N732 0.985 . S
C746 C747 1.363 . S
C746 C752 1.379 1_565 S
C746 N754 1.356 . S
C747 C746 1.363 . S
C747 C753 1.363 . S
C748 C749 1.363 . S
C748 C753 1.379 1_545 S
C748 N755 1.356 . S
C749 C748 1.363 . S
C749 C752 1.363 . S
N750 C752 1.356 . S
N750 H762 0.984 . S
N750 H763 0.985 . S
N751 C753 1.356 . S
N751 H756 0.984 . S
N751 H757 0.985 . S
C752 C746 1.379 1_545 S
C752 C749 1.363 . S
C752 N750 1.356 . S
C753 C747 1.363 . S
C753 C748 1.379 1_565 S
C753 N751 1.356 . S
N754 C746 1.356 . S
N754 H760 0.984 . S
N754 H761 0.984 . S
N755 C748 1.356 . S
N755 H758 0.984 . S
N755 H759 0.985 . S
H756 N751 0.984 . S
H757 N751 0.985 . S
H758 N755 0.984 . S
H759 N755 0.985 . S
H760 N754 0.984 . S
H761 N754 0.984 . S
H762 N750 0.984 . S
H763 N750 0.985 . S
C764 C765 1.363 . S
C764 C770 1.379 . S
C764 N772 1.356 . S
C765 C764 1.363 . S
C765 C771 1.363 . S
C766 C767 1.363 . S
C766 C771 1.379 . S
C766 N773 1.356 . S
C767 C766 1.363 . S
C767 C770 1.363 . S
N768 C770 1.356 . S
N768 H780 0.984 . S
N768 H781 0.985 . S
N769 C771 1.356 . S
N769 H774 0.984 . S
N769 H775 0.985 . S
C770 C764 1.379 . S
C770 C767 1.363 . S
C770 N768 1.356 . S
C771 C765 1.363 . S
C771 C766 1.379 . S
C771 N769 1.356 . S
N772 C764 1.356 . S
N772 H778 0.984 . S
N772 H779 0.984 . S
N773 C766 1.356 . S
N773 H776 0.984 . S
N773 H777 0.985 . S
H774 N769 0.984 . S
H775 N769 0.985 . S
H776 N773 0.984 . S
H777 N773 0.985 . S
H778 N772 0.984 . S
H779 N772 0.984 . S
H780 N768 0.984 . S
H781 N768 0.985 . S
C782 C783 1.363 . S
C782 C788 1.379 . S
C782 N790 1.356 . S
C783 C782 1.363 . S
C783 C789 1.363 1_655 S
C784 C785 1.363 . S
C784 C789 1.379 . S
C784 N791 1.356 . S
C785 C784 1.363 . S
C785 C788 1.363 1_455 S
N786 C788 1.356 . S
N786 H798 0.984 . S
N786 H799 0.985 . S
N787 C789 1.356 . S
N787 H792 0.984 . S
N787 H793 0.985 . S
C788 C782 1.379 . S
C788 C785 1.363 1_655 S
C788 N786 1.356 . S
C789 C783 1.363 1_455 S
C789 C784 1.379 . S
C789 N787 1.356 . S
N790 C782 1.356 . S
N790 H796 0.984 . S
N790 H797 0.984 . S
N791 C784 1.356 . S
N791 H794 0.984 . S
N791 H795 0.985 . S
H792 N787 0.984 . S
H793 N787 0.985 . S
H794 N791 0.984 . S
H795 N791 0.985 . S
H796 N790 0.984 . S
H797 N790 0.984 . S
H798 N786 0.984 . S
H799 N786 0.985 . S
C225 C79 0.777 . S
C227 C9 0.777 . S
C243 C93 0.777 . S
C245 C23 0.777 . S
C261 C37 0.777 . S
C263 C107 0.777 . S
C279 C51 0.777 . S
C281 C65 0.777 . S
C297 C121 0.777 . S
C299 C191 0.777 . S
C315 C205 0.777 . S
C317 C135 0.777 . S
C333 C219 0.777 . S
C335 C149 0.777 . S
C351 C163 0.777 . S
C353 C177 0.777 . S
C369 C6 1.580 . S
C371 C176 1.518 . S
C387 C190 1.518 . S
C389 C20 1.580 . S
C405 C34 1.580 . S
C407 C204 1.518 . S
C423 C48 1.580 . S
C425 C218 1.518 . S
C441 C62 1.580 . S
C443 C120 1.518 . S
C459 C76 1.580 . S
C461 C134 1.518 . S
C477 C90 1.580 . S
C479 C148 1.518 . S
C495 C104 1.580 . S
C497 C162 1.518 . S
C513 C64 1.518 . S
C515 C118 1.580 . S
C531 C78 1.518 . S
C533 C132 1.580 . S
C549 C92 1.518 . S
C551 C146 1.580 . S
C567 C160 1.580 . S
C569 C106 1.518 . S
C585 C8 1.518 . S
C587 C174 1.580 . S
C603 C188 1.580 . S
C605 C22 1.518 . S
C621 C202 1.580 . S
C623 C36 1.518 . S
C639 C50 1.518 . S
C641 C216 1.580 . S
C657 C119 1.589 . S
C659 C7 1.589 . S
C675 C133 1.589 . S
C677 C21 1.589 . S
C693 C35 1.589 . S
C695 C147 1.589 . S
C711 C161 1.589 . S
C713 C49 1.589 . S
C729 C63 1.589 . S
C731 C175 1.589 . S
C747 C189 1.589 . S
C749 C77 1.589 . S
C765 C203 1.589 . S
C767 C91 1.589 . S
C783 C217 1.589 . S
C785 C105 1.589 . S
