# Generated by pormake.
# Topology wli, (5)-cn, num edge types: 1
# Building blocks:
#     Node 0, Type 0, BuildingBlock: XOMCOT_clean_sbu_0, # of connection points: 5
#     Node 1, Type 0, BuildingBlock: XOMCOT_clean_sbu_0, # of connection points: 5
#     Node 2, Type 0, BuildingBlock: XOMCOT_clean_sbu_0, # of connection points: 5
#     Node 3, Type 0, BuildingBlock: XOMCOT_clean_sbu_0, # of connection points: 5
#     Node 4, Type 0, BuildingBlock: XOMCOT_clean_sbu_0, # of connection points: 5
#     Node 5, Type 0, BuildingBlock: XOMCOT_clean_sbu_0, # of connection points: 5
#     Edge 6, Type (0, 0), BuildingBlock: ZUJKAS_clean_linker_0, # of connection points: 2
#     Edge 7, Type (0, 0), BuildingBlock: ZUJKAS_clean_linker_0, # of connection points: 2
#     Edge 8, Type (0, 0), BuildingBlock: ZUJKAS_clean_linker_0, # of connection points: 2
#     Edge 9, Type (0, 0), BuildingBlock: ZUJKAS_clean_linker_0, # of connection points: 2
#     Edge 10, Type (0, 0), BuildingBlock: ZUJKAS_clean_linker_0, # of connection points: 2
#     Edge 11, Type (0, 0), BuildingBlock: ZUJKAS_clean_linker_0, # of connection points: 2
#     Edge 12, Type (0, 0), BuildingBlock: ZUJKAS_clean_linker_0, # of connection points: 2
#     Edge 13, Type (0, 0), BuildingBlock: ZUJKAS_clean_linker_0, # of connection points: 2
#     Edge 14, Type (0, 0), BuildingBlock: ZUJKAS_clean_linker_0, # of connection points: 2
#     Edge 15, Type (0, 0), BuildingBlock: ZUJKAS_clean_linker_0, # of connection points: 2
#     Edge 16, Type (0, 0), BuildingBlock: ZUJKAS_clean_linker_0, # of connection points: 2
#     Edge 17, Type (0, 0), BuildingBlock: ZUJKAS_clean_linker_0, # of connection points: 2
#     Edge 18, Type (0, 0), BuildingBlock: ZUJKAS_clean_linker_0, # of connection points: 2
#     Edge 19, Type (0, 0), BuildingBlock: ZUJKAS_clean_linker_0, # of connection points: 2
#     Edge 20, Type (0, 0), BuildingBlock: ZUJKAS_clean_linker_0, # of connection points: 2
# Relax obj value: 0.128
# Max RMSD: 0.157
# Mean RMSD: 0.157
data_MOF--net-wli--node1-XOMCOT_clean_sbu_0--edge1-ZUJKAS_clean_linker_0
_symmetry_space_group_name_H-M    P1
_symmetry_Int_Tables_number       1
_symmetry_cell_setting            triclinic
loop_
_symmetry_equiv_pos_as_xyz
'x, y, z'
_cell_length_a     46.539675
_cell_length_b     46.658397
_cell_length_c     33.168378
_cell_angle_alpha  90.368293
_cell_angle_beta   89.825798
_cell_angle_gamma 120.05203
loop_
_atom_site_label
_atom_site_type_symbol
_atom_site_fract_x
_atom_site_fract_y
_atom_site_fract_z
_atom_type_partial_charge
Co0 Co 0.20024 0.42981 0.10964 0.0
C1 C 0.15093 0.38449 0.16749 0.0
C2 C 0.19304 0.37736 0.16546 0.0
C3 C 0.17116 0.35666 0.19436 0.0
N4 N 0.18018 0.39469 0.14872 0.0
N5 N 0.14484 0.36143 0.19574 0.0
H6 H 0.13462 0.39415 0.16091 0.0
H7 H 0.21698 0.38022 0.1581 0.0
C8 C 0.23469 0.40895 0.05023 0.0
O9 O 0.22214 0.41925 0.02217 0.0
N10 N 0.22081 0.46613 0.07135 0.0
C11 C 0.20754 0.48282 0.05366 0.0
C12 C 0.23173 0.50865 0.03197 0.0
C13 C 0.25338 0.48322 0.0615 0.0
N14 N 0.26055 0.50881 0.03666 0.0
C15 C 0.14094 0.41231 0.06469 0.0
C16 C 0.1342 0.3556 0.02912 0.0
C17 C 0.11385 0.36792 0.01598 0.0
C18 C 0.11644 0.3958 0.0356 0.0
C19 C 0.15834 0.37297 0.05856 0.0
N20 N 0.16354 0.40271 0.07307 0.0
H21 H 0.14163 0.43291 0.08041 0.0
H22 H 0.17325 0.36271 0.06895 0.0
H23 H 0.1826 0.47812 0.05744 0.0
H24 H 0.27139 0.47685 0.07224 0.0
O25 O 0.1812 0.45283 0.13727 0.0
O26 O 0.23079 0.45941 0.15037 0.0
O27 O 0.22801 0.41064 0.08744 0.0
C28 C 0.20845 0.46774 0.15811 0.0
H29 H 0.17496 0.34036 0.2139 0.0
H30 H 0.22847 0.52662 0.01515 0.0
H31 H 0.13225 0.33339 0.01598 0.0
H32 H 0.09979 0.40493 0.02838 0.0
Co33 Co 0.59146 0.77624 0.78173 0.0
C34 C 0.63672 0.77134 0.84155 0.0
C35 C 0.63317 0.81496 0.84998 0.0
C36 C 0.65173 0.81312 0.88099 0.0
N37 N 0.62437 0.7892 0.82451 0.0
N38 N 0.65389 0.7856 0.87569 0.0
H39 H 0.63099 0.74704 0.83163 0.0
H40 H 0.62528 0.83308 0.84729 0.0
C41 C 0.63986 0.84682 0.76429 0.0
O42 O 0.6632 0.83944 0.77116 0.0
N43 N 0.55787 0.7629 0.7406 0.0
C44 C 0.5456 0.73508 0.71822 0.0
C45 C 0.52123 0.7335 0.69347 0.0
C46 C 0.54074 0.77784 0.7295 0.0
N47 N 0.51814 0.76039 0.70048 0.0
C48 C 0.62737 0.74714 0.74516 0.0
C49 C 0.643 0.78323 0.67472 0.0
C50 C 0.65151 0.75852 0.67826 0.0
C51 C 0.64372 0.74052 0.71422 0.0
C52 C 0.62668 0.789 0.7063 0.0
N53 N 0.61989 0.77183 0.74166 0.0
H54 H 0.61871 0.73075 0.77055 0.0
H55 H 0.61796 0.80617 0.70117 0.0
H56 H 0.55358 0.71698 0.72016 0.0
H57 H 0.5448 0.80093 0.74242 0.0
O58 O 0.56883 0.73166 0.8023 0.0
O59 O 0.55933 0.7717 0.82196 0.0
O60 O 0.60929 0.82437 0.76719 0.0
C61 C 0.55218 0.741 0.82508 0.0
H62 H 0.66192 0.83019 0.90615 0.0
H63 H 0.50639 0.71357 0.67264 0.0
H64 H 0.648 0.79741 0.64727 0.0
H65 H 0.64849 0.72019 0.71758 0.0
Co66 Co 0.25088 0.82197 0.44089 0.0
C67 C 0.25381 0.87113 0.49882 0.0
C68 C 0.2073 0.82569 0.50313 0.0
C69 C 0.20859 0.84712 0.53292 0.0
N70 N 0.23569 0.84088 0.48186 0.0
N71 N 0.23799 0.87567 0.53036 0.0
H72 H 0.27848 0.88907 0.48873 0.0
H73 H 0.18769 0.80039 0.49844 0.0
C74 C 0.19426 0.78576 0.38406 0.0
O75 O 0.2164 0.79911 0.35515 0.0
N76 N 0.26691 0.80255 0.40073 0.0
C77 C 0.29651 0.81691 0.38167 0.0
C78 C 0.29923 0.79332 0.35975 0.0
C79 C 0.25274 0.76998 0.39128 0.0
N80 N 0.27164 0.76377 0.36559 0.0
C81 C 0.28896 0.8815 0.39482 0.0
C82 C 0.23569 0.88528 0.3648 0.0
C83 C 0.26752 0.90697 0.34988 0.0
C84 C 0.29452 0.90576 0.36654 0.0
C85 C 0.23138 0.86156 0.39337 0.0
N86 N 0.25749 0.85788 0.40511 0.0
H87 H 0.31011 0.88189 0.40846 0.0
H88 H 0.20686 0.84589 0.40553 0.0
H89 H 0.316 0.84222 0.38486 0.0
H90 H 0.22911 0.75124 0.40325 0.0
O91 O 0.29392 0.84281 0.46634 0.0
O92 O 0.25267 0.79248 0.48042 0.0
O93 O 0.20348 0.79248 0.42099 0.0
C94 C 0.28317 0.8158 0.48705 0.0
H95 H 0.18993 0.84141 0.55586 0.0
H96 H 0.32063 0.79751 0.34223 0.0
H97 H 0.21431 0.88656 0.35444 0.0
H98 H 0.31972 0.92279 0.35708 0.0
Co99 Co 0.43285 0.19968 0.90731 0.0
C100 C 0.39407 0.15593 0.83844 0.0
C101 C 0.36641 0.17385 0.87114 0.0
C102 C 0.34624 0.15213 0.84179 0.0
N103 N 0.39658 0.17651 0.86895 0.0
N104 N 0.36357 0.14068 0.8213 0.0
H105 H 0.41349 0.15074 0.83026 0.0
H106 H 0.35891 0.18568 0.89362 0.0
C107 C 0.41354 0.25129 0.90221 0.0
O108 O 0.42424 0.25614 0.86481 0.0
N109 N 0.46857 0.22208 0.94568 0.0
C110 C 0.47994 0.20718 0.97039 0.0
C111 C 0.50481 0.23093 0.99395 0.0
C112 C 0.48699 0.25478 0.95395 0.0
N113 N 0.50923 0.26079 0.98362 0.0
C114 C 0.39419 0.13566 0.9429 0.0
C115 C 0.38425 0.15824 0.01607 0.0
C116 C 0.37247 0.12429 0.01104 0.0
C117 C 0.37716 0.11297 0.97363 0.0
C118 C 0.40105 0.18001 0.98466 0.0
N119 N 0.40604 0.16866 0.94879 0.0
H120 H 0.39863 0.12688 0.91463 0.0
H121 H 0.41118 0.2062 0.98986 0.0
H122 H 0.47055 0.18078 0.97137 0.0
H123 H 0.48382 0.27361 0.93913 0.0
O124 O 0.45498 0.17713 0.88626 0.0
O125 O 0.46295 0.22536 0.86434 0.0
O126 O 0.41509 0.22945 0.92344 0.0
C127 C 0.4707 0.20216 0.86212 0.0
H128 H 0.32053 0.1449 0.83666 0.0
H129 H 0.51884 0.22661 0.01669 0.0
H130 H 0.38095 0.16804 0.0443 0.0
H131 H 0.36883 0.08701 0.9686 0.0
Co132 Co 0.81937 0.23641 0.56975 0.0
C133 C 0.86902 0.24212 0.50801 0.0
C134 C 0.8235 0.19601 0.50387 0.0
C135 C 0.84384 0.19752 0.47283 0.0
N136 N 0.83962 0.22346 0.527 0.0
N137 N 0.87255 0.22664 0.4753 0.0
H138 H 0.88633 0.26752 0.51564 0.0
H139 H 0.79803 0.17666 0.50815 0.0
C140 C 0.79838 0.16663 0.58975 0.0
O141 O 0.82947 0.17476 0.58364 0.0
N142 N 0.79865 0.24959 0.61071 0.0
C143 C 0.81375 0.2776 0.63281 0.0
C144 C 0.79055 0.27872 0.65752 0.0
C145 C 0.76647 0.23409 0.62195 0.0
N146 N 0.76078 0.25135 0.65078 0.0
C147 C 0.88498 0.26527 0.60459 0.0
C148 C 0.86485 0.2315 0.67672 0.0
C149 C 0.89843 0.25504 0.67154 0.0
C150 C 0.90842 0.27199 0.63482 0.0
C151 C 0.84227 0.22566 0.64583 0.0
N152 N 0.85248 0.24162 0.60965 0.0
H153 H 0.89283 0.28056 0.57822 0.0
H154 H 0.81624 0.20927 0.65186 0.0
H155 H 0.83978 0.29609 0.63074 0.0
H156 H 0.74774 0.21071 0.6093 0.0
O157 O 0.84111 0.28081 0.54883 0.0
O158 O 0.79161 0.24034 0.5294 0.0
O159 O 0.7895 0.18832 0.58517 0.0
C160 C 0.81513 0.27112 0.52604 0.0
H161 H 0.83741 0.17885 0.44969 0.0
H162 H 0.79526 0.29864 0.67818 0.0
H163 H 0.85573 0.21885 0.70518 0.0
H164 H 0.934 0.29094 0.62981 0.0
Co165 Co 0.78647 0.5884 0.24017 0.0
C166 C 0.77884 0.62718 0.17462 0.0
C167 C 0.82872 0.65152 0.19706 0.0
C168 C 0.82643 0.67098 0.16759 0.0
N169 N 0.79886 0.62389 0.20139 0.0
N170 N 0.79499 0.65569 0.15368 0.0
H171 H 0.75279 0.60934 0.17074 0.0
H172 H 0.85062 0.65785 0.21465 0.0
C173 C 0.85635 0.60244 0.24222 0.0
O174 O 0.84899 0.58148 0.21213 0.0
N175 N 0.77362 0.55317 0.27865 0.0
C176 C 0.74607 0.54039 0.30161 0.0
C177 C 0.74381 0.51425 0.32306 0.0
C178 C 0.78776 0.53461 0.28621 0.0
N179 N 0.76997 0.5106 0.31332 0.0
C180 C 0.75842 0.62513 0.27538 0.0
C181 C 0.79009 0.63595 0.34906 0.0
C182 C 0.76681 0.6463 0.34378 0.0
C183 C 0.75129 0.64125 0.30613 0.0
C184 C 0.79665 0.62016 0.31754 0.0
N185 N 0.78068 0.61468 0.2814 0.0
H186 H 0.74525 0.62006 0.24711 0.0
H187 H 0.81354 0.61106 0.3229 0.0
H188 H 0.72861 0.54928 0.30228 0.0
H189 H 0.80992 0.53789 0.27139 0.0
O190 O 0.74184 0.56483 0.21897 0.0
O191 O 0.78339 0.55863 0.19705 0.0
O192 O 0.83424 0.60806 0.25672 0.0
C193 C 0.7521 0.54986 0.1947 0.0
H194 H 0.84611 0.69508 0.15819 0.0
H195 H 0.72446 0.49919 0.34433 0.0
H196 H 0.80272 0.63949 0.37761 0.0
H197 H 0.7328 0.64845 0.301 0.0
H198 H 0.22993 0.70184 0.39452 0.0
H199 H 0.21825 0.64913 0.36403 0.0
H200 H 0.28613 0.70175 0.26722 0.0
H201 H 0.29694 0.7542 0.29645 0.0
H202 H 0.22731 0.65111 0.24003 0.0
H203 H 0.27737 0.60739 0.36187 0.0
H204 H 0.24662 0.61754 0.37797 0.0
H205 H 0.28586 0.64956 0.35915 0.0
C206 C 0.24226 0.70223 0.36667 0.0
C207 C 0.26459 0.73243 0.34816 0.0
C208 C 0.23586 0.67205 0.34954 0.0
C209 C 0.25178 0.67151 0.31372 0.0
C210 C 0.2738 0.70155 0.29507 0.0
H211 H 0.26696 0.51321 0.19398 0.0
H212 H 0.27691 0.56164 0.2344 0.0
C213 C 0.28013 0.73161 0.31205 0.0
C214 C 0.24468 0.63981 0.29441 0.0
H215 H 0.24984 0.56991 0.30786 0.0
C216 C 0.2322 0.63335 0.25491 0.0
C217 C 0.2515 0.61686 0.31366 0.0
C218 C 0.26636 0.6232 0.35537 0.0
C219 C 0.22623 0.6046 0.23414 0.0
C220 C 0.23224 0.58123 0.2537 0.0
C221 C 0.24496 0.58772 0.29311 0.0
C222 C 0.22574 0.55017 0.23322 0.0
C223 C 0.21423 0.59988 0.19106 0.0
C224 C 0.19353 0.52714 0.2204 0.0
C225 C 0.18785 0.49969 0.19724 0.0
C226 C 0.21421 0.49451 0.18679 0.0
C227 C 0.24617 0.51658 0.20154 0.0
C228 C 0.25189 0.54423 0.22459 0.0
H229 H 0.21905 0.62356 0.17737 0.0
H230 H 0.22641 0.58924 0.17223 0.0
H231 H 0.18705 0.58249 0.19033 0.0
H232 H 0.17289 0.53087 0.22744 0.0
H233 H 0.16286 0.48294 0.18672 0.0
H234 H 0.50747 0.75064 0.86804 0.0
H235 H 0.46141 0.71012 0.90915 0.0
H236 H 0.49128 0.63785 0.8848 0.0
H237 H 0.53689 0.67797 0.8429 0.0
H238 H 0.42628 0.61287 0.87183 0.0
H239 H 0.45907 0.67507 0.02096 0.0
H240 H 0.45765 0.701 0.98224 0.0
H241 H 0.48816 0.68811 0.97959 0.0
C242 C 0.50445 0.72624 0.87184 0.0
C243 C 0.52576 0.71746 0.85222 0.0
C244 C 0.47825 0.70317 0.89559 0.0
C245 C 0.4732 0.67109 0.90059 0.0
C246 C 0.49481 0.6625 0.88152 0.0
H247 H 0.32231 0.52555 0.06352 0.0
H248 H 0.37535 0.56332 0.03115 0.0
C249 C 0.52085 0.68545 0.85758 0.0
C250 C 0.44397 0.64578 0.92316 0.0
H251 H 0.40302 0.63047 0.01309 0.0
C252 C 0.4214 0.61659 0.90286 0.0
C253 C 0.43783 0.65037 0.96384 0.0
C254 C 0.46214 0.68018 0.98808 0.0
C255 C 0.3923 0.59244 0.92162 0.0
C256 C 0.3852 0.59795 0.96147 0.0
C257 C 0.40833 0.6265 0.98236 0.0
C258 C 0.35325 0.575 0.98124 0.0
C259 C 0.36942 0.56124 0.89852 0.0
C260 C 0.32334 0.56941 0.96418 0.0
C261 C 0.29309 0.54773 0.98235 0.0
C262 C 0.29203 0.53137 0.01829 0.0
C263 C 0.32213 0.53735 0.03563 0.0
C264 C 0.35248 0.55909 0.01733 0.0
H265 H 0.38282 0.5563 0.87415 0.0
H266 H 0.3577 0.53945 0.91877 0.0
H267 H 0.34945 0.5641 0.8843 0.0
H268 H 0.32339 0.58189 0.93673 0.0
H269 H 0.27051 0.54353 0.96785 0.0
H270 H 0.34378 0.86328 0.5142 0.0
H271 H 0.38309 0.85572 0.55498 0.0
H272 H 0.31297 0.75109 0.56264 0.0
H273 H 0.27308 0.75861 0.52247 0.0
H274 H 0.34566 0.77783 0.63503 0.0
H275 H 0.43524 0.81469 0.50838 0.0
H276 H 0.42431 0.84538 0.52158 0.0
H277 H 0.39317 0.806 0.50165 0.0
C278 C 0.3366 0.83868 0.5248 0.0
C279 C 0.30547 0.81146 0.51481 0.0
C280 C 0.35917 0.83438 0.54795 0.0
C281 C 0.35126 0.80274 0.56107 0.0
C282 C 0.31965 0.7757 0.55259 0.0
H283 H 0.48864 0.73857 0.62756 0.0
H284 H 0.44765 0.74914 0.59631 0.0
C285 C 0.2969 0.78002 0.52965 0.0
C286 C 0.37638 0.79771 0.58237 0.0
H287 H 0.45351 0.80678 0.57168 0.0
C288 C 0.36926 0.78414 0.62124 0.0
C289 C 0.40697 0.80557 0.56407 0.0
C290 C 0.41534 0.81842 0.52148 0.0
C291 C 0.392 0.77838 0.64242 0.0
C292 C 0.42293 0.78703 0.62448 0.0
C293 C 0.42995 0.8005 0.58557 0.0
C294 C 0.4477 0.78067 0.64445 0.0
C295 C 0.38231 0.76225 0.68329 0.0
C296 C 0.46177 0.7952 0.6818 0.0
C297 C 0.48508 0.78885 0.70013 0.0
C298 C 0.49493 0.76801 0.6813 0.0
C299 C 0.48124 0.75414 0.64346 0.0
C300 C 0.45792 0.76038 0.62531 0.0
H301 H 0.35506 0.74978 0.68823 0.0
H302 H 0.39044 0.74373 0.68692 0.0
H303 H 0.39454 0.78147 0.70704 0.0
H304 H 0.45482 0.81154 0.69673 0.0
H305 H 0.49495 0.79988 0.72928 0.0
H306 H 0.5166 0.25611 0.82001 0.0
H307 H 0.56282 0.26068 0.77962 0.0
H308 H 0.52995 0.15776 0.8016 0.0
H309 H 0.48433 0.15332 0.84291 0.0
H310 H 0.59433 0.19489 0.81565 0.0
H311 H 0.56707 0.2298 0.66751 0.0
H312 H 0.56939 0.25726 0.70707 0.0
H313 H 0.53718 0.21443 0.70803 0.0
C314 C 0.51898 0.23435 0.81575 0.0
C315 C 0.49685 0.20437 0.83464 0.0
C316 C 0.5453 0.23693 0.79243 0.0
C317 C 0.54966 0.20943 0.78701 0.0
C318 C 0.5271 0.1793 0.80521 0.0
H319 H 0.69822 0.21028 0.62249 0.0
H320 H 0.64587 0.19726 0.65523 0.0
C321 C 0.501 0.17679 0.82881 0.0
C322 C 0.57898 0.2126 0.7649 0.0
H323 H 0.62191 0.23822 0.67625 0.0
C324 C 0.60014 0.20407 0.78502 0.0
C325 C 0.58641 0.2241 0.7247 0.0
C326 C 0.56362 0.23159 0.70041 0.0
C327 C 0.62894 0.20763 0.76659 0.0
C328 C 0.63735 0.22089 0.72726 0.0
C329 C 0.61568 0.22843 0.70659 0.0
C330 C 0.66903 0.22811 0.70764 0.0
C331 C 0.64992 0.19688 0.78942 0.0
C332 C 0.69947 0.24992 0.72603 0.0
C333 C 0.72937 0.25711 0.70766 0.0
C334 C 0.72966 0.24302 0.6701 0.0
C335 C 0.69906 0.22127 0.65159 0.0
C336 C 0.66907 0.21398 0.67013 0.0
H337 H 0.63513 0.17806 0.81257 0.0
H338 H 0.6612 0.18641 0.76879 0.0
H339 H 0.6702 0.21863 0.8052 0.0
H340 H 0.70014 0.26167 0.75455 0.0
H341 H 0.75226 0.27366 0.72315 0.0
H342 H 0.72513 0.44853 0.33664 0.0
H343 H 0.73662 0.40784 0.36742 0.0
H344 H 0.84173 0.47543 0.35554 0.0
H345 H 0.83039 0.51656 0.32496 0.0
H346 H 0.77818 0.3802 0.33553 0.0
H347 H 0.82281 0.45121 0.47944 0.0
H348 H 0.79749 0.45812 0.44407 0.0
H349 H 0.84049 0.47322 0.43329 0.0
C350 C 0.75069 0.45478 0.34062 0.0
C351 C 0.77688 0.48589 0.32878 0.0
C352 C 0.7572 0.43142 0.35792 0.0
C353 C 0.78998 0.4388 0.36402 0.0
C354 C 0.81624 0.46943 0.35128 0.0
H355 H 0.86401 0.33285 0.50504 0.0
H356 H 0.85932 0.37273 0.46224 0.0
C357 C 0.80974 0.49278 0.33364 0.0
C358 C 0.79641 0.41474 0.38514 0.0
H359 H 0.82214 0.40063 0.47523 0.0
C360 C 0.78797 0.38464 0.36599 0.0
C361 C 0.80917 0.42075 0.4248 0.0
C362 C 0.81789 0.45245 0.44692 0.0
C363 C 0.79206 0.36029 0.38553 0.0
C364 C 0.80405 0.36592 0.42566 0.0
C365 C 0.81292 0.3963 0.4445 0.0
C366 C 0.80716 0.3406 0.4491 0.0
C367 C 0.78392 0.32901 0.36279 0.0
C368 C 0.77939 0.30918 0.45594 0.0
C369 C 0.78208 0.28618 0.48015 0.0
C370 C 0.81246 0.29442 0.49847 0.0
C371 C 0.84024 0.32579 0.4914 0.0
C372 C 0.83761 0.34862 0.46694 0.0
H373 H 0.78518 0.33285 0.32966 0.0
H374 H 0.8011 0.31997 0.37106 0.0
H375 H 0.75824 0.30947 0.37029 0.0
H376 H 0.75543 0.30271 0.44339 0.0
H377 H 0.7602 0.2623 0.48534 0.0
H378 H 0.52809 0.27245 0.06151 0.0
H379 H 0.57033 0.32456 0.0915 0.0
H380 H 0.58722 0.37212 0.97577 0.0
H381 H 0.54401 0.31991 0.9459 0.0
H382 H 0.63439 0.35885 0.07598 0.0
H383 H 0.57944 0.4382 0.04599 0.0
H384 H 0.55642 0.39387 0.03918 0.0
H385 H 0.58554 0.41987 1.00144 0.0
C386 C 0.54067 0.29408 0.04253 0.0
C387 C 0.5328 0.29215 1.00138 0.0
C388 C 0.56481 0.32388 0.05968 0.0
C389 C 0.58186 0.35246 0.03606 0.0
C390 C 0.57392 0.35068 0.99489 0.0
H391 H 0.76661 0.51925 0.13355 0.0
H392 H 0.72718 0.47326 0.09081 0.0
C393 C 0.54932 0.32085 0.97779 0.0
C394 C 0.60871 0.38347 0.05468 0.0
H395 H 0.63357 0.46467 0.07378 0.0
C396 C 0.63422 0.38201 0.07543 0.0
C397 C 0.6084 0.41365 0.05424 0.0
C398 C 0.58084 0.41654 0.03436 0.0
C399 C 0.65896 0.40954 0.09641 0.0
C400 C 0.65896 0.43988 0.09552 0.0
C401 C 0.63378 0.44153 0.07416 0.0
C402 C 0.68333 0.46943 0.11896 0.0
C403 C 0.68396 0.40533 0.12075 0.0
C404 C 0.67195 0.48361 0.14775 0.0
C405 C 0.69439 0.51023 0.17158 0.0
C406 C 0.72877 0.52317 0.16733 0.0
C407 C 0.74026 0.50959 0.13779 0.0
C408 C 0.71773 0.48316 0.11354 0.0
H409 H 0.67527 0.37884 0.12687 0.0
H410 H 0.70754 0.41554 0.1036 0.0
H411 H 0.68916 0.4187 0.15002 0.0
H412 H 0.64558 0.47358 0.15248 0.0
H413 H 0.68472 0.52014 0.19404 0.0
H414 H 0.90382 0.21309 0.72449 0.0
H415 H 0.93952 0.22813 0.78426 0.0
H416 H 0.98221 0.33147 0.75511 0.0
H417 H 0.94625 0.31681 0.69599 0.0
H418 H 1.01161 0.26804 0.79149 0.0
H419 H 0.94506 0.32246 0.8715 0.0
H420 H 0.92769 0.29518 0.82849 0.0
H421 H 0.95845 0.33795 0.82142 0.0
C422 C 0.92084 0.23901 0.73083 0.0
C423 C 0.9221 0.26376 0.70559 0.0
C424 C 0.94129 0.24753 0.76482 0.0
C425 C 0.96309 0.28089 0.7743 0.0
C426 C 0.9652 0.30558 0.74852 0.0
H427 H 0.1023 0.39985 0.9553 0.0
H428 H 0.06484 0.37573 0.89801 0.0
C429 C 0.94488 0.29713 0.71451 0.0
C430 C 0.98311 0.29016 0.81169 0.0
H431 H 0.9961 0.33267 0.90012 0.0
C432 C 1.0081 0.28189 0.81549 0.0
C433 C 0.97821 0.30801 0.84294 0.0
C434 C 0.95071 0.31621 0.84122 0.0
C435 C 0.02938 0.29235 0.84909 0.0
C436 C 0.02505 0.31104 0.8798 0.0
C437 C 0.99941 0.31843 0.87645 0.0
C438 C 0.04798 0.32497 0.91456 0.0
C439 C 0.0571 0.28449 0.85072 0.0
C440 C 0.05077 0.30438 0.94307 0.0
C441 C 0.07214 0.31814 0.97613 0.0
C442 C 0.09083 0.35271 0.98133 0.0
C443 C 0.08784 0.37314 0.95263 0.0
C444 C 0.0666 0.35941 0.91971 0.0
H445 H 0.06113 0.27581 0.8211 0.0
H446 H 0.08066 0.30657 0.86039 0.0
H447 H 0.05079 0.26462 0.87309 0.0
H448 H 0.03613 0.2777 0.94003 0.0
H449 H 0.07362 0.30174 0.99792 0.0
H450 H 0.75789 0.70011 0.34399 0.0
H451 H 0.74064 0.72194 0.40094 0.0
H452 H 0.73683 0.64588 0.47764 0.0
H453 H 0.75382 0.62384 0.42107 0.0
H454 H 0.67711 0.65517 0.47488 0.0
H455 H 0.79777 0.76917 0.50738 0.0
H456 H 0.78453 0.76013 0.45556 0.0
H457 H 0.79529 0.73352 0.48221 0.0
C458 C 0.75342 0.68812 0.37302 0.0
C459 C 0.75737 0.66039 0.37815 0.0
C460 C 0.74379 0.70071 0.4055 0.0
C461 C 0.73779 0.68562 0.44342 0.0
C462 C 0.74162 0.65795 0.44861 0.0
H463 H 0.7011 0.74301 0.67882 0.0
H464 H 0.7224 0.72582 0.62139 0.0
C465 C 0.75149 0.64553 0.41634 0.0
C466 C 0.72619 0.69777 0.47747 0.0
H467 H 0.75149 0.76069 0.5461 0.0
C468 C 0.69328 0.67826 0.49044 0.0
C469 C 0.74757 0.72771 0.49777 0.0
C470 C 0.78336 0.74893 0.48537 0.0
C471 C 0.68102 0.68807 0.52319 0.0
C472 C 0.70224 0.71827 0.54321 0.0
C473 C 0.73529 0.73764 0.53048 0.0
C474 C 0.69041 0.73 0.57753 0.0
C475 C 0.6456 0.66583 0.53652 0.0
C476 C 0.66579 0.73848 0.57165 0.0
C477 C 0.65353 0.74816 0.60427 0.0
C478 C 0.66579 0.7497 0.64344 0.0
C479 C 0.69095 0.74177 0.6491 0.0
C480 C 0.70327 0.73215 0.61635 0.0
H481 H 0.63501 0.64039 0.52395 0.0
H482 H 0.6439 0.66432 0.56992 0.0
H483 H 0.63013 0.67622 0.52587 0.0
H484 H 0.6558 0.73727 0.54182 0.0
H485 H 0.63387 0.75367 0.5989 0.0
H486 H 0.31781 0.0618 0.01006 0.0
H487 H 0.29324 0.02391 0.06712 0.0
H488 H 0.36796 0.09665 0.14612 0.0
H489 H 0.39258 0.13444 0.08958 0.0
H490 H 0.32258 0.9981 0.11569 0.0
H491 H 0.28305 0.07173 0.20767 0.0
H492 H 0.29439 0.08043 0.15521 0.0
H493 H 0.32599 0.0949 0.19354 0.0
C494 C 0.32894 0.06969 0.03962 0.0
C495 C 0.35695 0.10125 0.04537 0.0
C496 C 0.3148 0.04811 0.07218 0.0
C497 C 0.32835 0.05776 0.11101 0.0
C498 C 0.35648 0.08908 0.11669 0.0
H499 H 0.31647 0.97182 0.34177 0.0
H500 H 0.32784 1.00731 0.28288 0.0
C501 C 0.37056 0.11064 0.08428 0.0
C502 C 0.31439 0.03458 0.14534 0.0
H503 H 0.28583 0.02798 0.24177 0.0
C504 C 0.31406 1.00437 0.14304 0.0
C505 C 0.3033 0.04286 0.18098 0.0
C506 C 0.30135 0.0741 0.18443 0.0
C507 C 0.30429 0.98286 0.17608 0.0
C508 C 0.29422 0.99166 0.21212 0.0
C509 C 0.29371 0.02142 0.2141 0.0
C510 C 0.28563 0.97092 0.24865 0.0
C511 C 0.30605 0.95149 0.17277 0.0
C512 C 0.25766 0.93906 0.24919 0.0
C513 C 0.25115 0.91871 0.28271 0.0
C514 C 0.27252 0.9299 0.31627 0.0
C515 C 0.29983 0.96232 0.31617 0.0
C516 C 0.30624 0.98268 0.28268 0.0
H517 H 0.32014 0.95139 0.14571 0.0
H518 H 0.31793 0.9482 0.19998 0.0
H519 H 0.28052 0.92993 0.17058 0.0
H520 H 0.24125 0.92972 0.22335 0.0
H521 H 0.23006 0.89379 0.28174 0.0
H522 H 0.39871 0.29422 0.8637 0.0
H523 H 0.37035 0.32216 0.89176 0.0
H524 H 0.36351 0.27714 0.00712 0.0
H525 H 0.39191 0.24929 0.97954 0.0
H526 H 0.3058 0.29062 0.92721 0.0
H527 H 0.40198 0.37595 0.03557 0.0
H528 H 0.41112 0.356 0.99468 0.0
H529 H 0.39082 0.3332 0.03936 0.0
C530 C 0.39146 0.29048 0.89514 0.0
C531 C 0.39767 0.26951 0.91932 0.0
C532 C 0.37521 0.30644 0.91112 0.0
C533 C 0.36517 0.30207 0.95167 0.0
C534 C 0.37155 0.28137 0.97596 0.0
H535 H 0.2561 0.37442 0.0966 0.0
H536 H 0.28745 0.34776 0.07387 0.0
C537 C 0.38764 0.2653 0.96 0.0
C538 C 0.34659 0.31784 0.96804 0.0
H539 H 0.34981 0.37329 0.03839 0.0
C540 C 0.31548 0.30879 0.95141 0.0
C541 C 0.35906 0.34124 0.99995 0.0
C542 C 0.39269 0.35246 0.01832 0.0
C543 C 0.2964 0.32233 0.96593 0.0
C544 C 0.30912 0.34625 0.99734 0.0
C545 C 0.34008 0.35501 0.01433 0.0
C546 C 0.29111 0.36323 0.01178 0.0
C547 C 0.2625 0.31039 0.94791 0.0
C548 C 0.28347 0.38146 0.98475 0.0
C549 C 0.26551 0.39648 0.99755 0.0
C550 C 0.25506 0.39403 0.03787 0.0
C551 C 0.26367 0.3767 0.06533 0.0
C552 C 0.28157 0.36146 0.05238 0.0
H553 H 0.25245 0.28557 0.93369 0.0
H554 H 0.24461 0.30909 0.97109 0.0
H555 H 0.26439 0.3279 0.92416 0.0
H556 H 0.29132 0.38399 0.95357 0.0
H557 H 0.25976 0.41 0.97564 0.0
H558 H 0.73679 0.14458 0.62342 0.0
H559 H 0.70011 0.08992 0.653 0.0
H560 H 0.76997 0.05871 0.62011 0.0
H561 H 0.80657 0.11286 0.59064 0.0
H562 H 0.69963 0.01144 0.60274 0.0
H563 H 0.72488 0.05939 0.76066 0.0
H564 H 0.71199 0.07957 0.72482 0.0
H565 H 0.75171 0.08251 0.71933 0.0
C566 C 0.74414 0.12594 0.62215 0.0
C567 C 0.77468 0.13311 0.60488 0.0
C568 C 0.72325 0.09482 0.63921 0.0
C569 C 0.73251 0.07044 0.639 0.0
C570 C 0.76241 0.07722 0.62062 0.0
H571 H 0.7013 0.9018 0.76545 0.0
H572 H 0.71835 0.95586 0.73619 0.0
C573 C 0.78335 0.10825 0.6039 0.0
C574 C 0.71202 0.0381 0.65905 0.0
H575 H 0.69339 1.00174 0.75178 0.0
C576 C 0.69766 0.00924 0.63529 0.0
C577 C 0.70985 0.03546 0.70153 0.0
C578 C 0.7255 0.06576 0.72833 0.0
C579 C 0.6821 0.97771 0.65296 0.0
C580 C 0.68083 0.97507 0.69546 0.0
C581 C 0.69422 1.00392 0.7192 0.0
C582 C 0.66922 0.94285 0.71562 0.0
C583 C 0.66869 0.94745 0.62617 0.0
C584 C 0.63575 0.91778 0.71441 0.0
C585 C 0.62582 0.88673 0.73132 0.0
C586 C 0.64931 0.88029 0.74945 0.0
C587 C 0.68261 0.90583 0.75151 0.0
C588 C 0.69241 0.93681 0.73492 0.0
H589 H 0.67519 0.95394 0.59397 0.0
H590 H 0.67847 0.93122 0.63587 0.0
H591 H 0.64124 0.93305 0.62881 0.0
H592 H 0.61744 0.92208 0.69991 0.0
H593 H 0.59999 0.86755 0.72923 0.0
H594 H 0.13981 0.75492 0.43425 0.0
H595 H 0.08116 0.72209 0.41431 0.0
H596 H 0.1098 0.73686 0.2891 0.0
H597 H 0.16797 0.76951 0.30848 0.0
H598 H 0.05874 0.75067 0.30887 0.0
H599 H 0.03165 0.62731 0.3643 0.0
H600 H 0.05006 0.66094 0.40005 0.0
H601 H 0.07346 0.66111 0.35686 0.0
C602 C 0.1336 0.75097 0.4025 0.0
C603 C 0.15867 0.76488 0.37302 0.0
C604 C 0.10009 0.7321 0.39115 0.0
C605 C 0.09112 0.7268 0.35018 0.0
C606 C 0.11612 0.74057 0.32086 0.0
H607 H 0.90901 0.59368 0.22363 0.0
H608 H 0.96532 0.6236 0.25161 0.0
C609 C 0.14944 0.75925 0.33209 0.0
C610 C 0.05578 0.70794 0.33731 0.0
H611 H 0.98702 0.63061 0.33541 0.0
C612 C 0.04299 0.72446 0.31487 0.0
C613 C 0.03542 0.67366 0.34475 0.0
C614 C 0.04825 0.6545 0.36754 0.0
C615 C 1.01045 0.70767 0.29963 0.0
C616 C 0.98998 0.67345 0.30731 0.0
C617 C 1.00272 0.65687 0.32974 0.0
C618 C 0.95547 0.65447 0.29159 0.0
C619 C 0.99846 0.72649 0.27456 0.0
C620 C 0.93114 0.6616 0.30517 0.0
C621 C 0.89897 0.64456 0.2893 0.0
C622 C 0.89041 0.61999 0.25946 0.0
C623 C 0.91475 0.61255 0.24637 0.0
C624 C 0.94692 0.62954 0.26243 0.0
H625 H 0.01929 0.75064 0.26427 0.0
H626 H 0.98457 0.71176 0.24772 0.0
H627 H 0.98139 0.73141 0.29289 0.0
H628 H 0.93707 0.68046 0.32801 0.0
H629 H 0.88088 0.65088 0.30026 0.0
H630 H 0.87273 0.20555 0.39841 0.0
H631 H 0.9194 0.22664 0.35198 0.0
H632 H 0.98179 0.29935 0.44032 0.0
H633 H 0.93568 0.2773 0.48795 0.0
H634 H 0.95433 0.28591 0.31844 0.0
H635 H 0.03918 0.261 0.40898 0.0
H636 H 0.99601 0.24423 0.42187 0.0
H637 H 0.02609 0.28619 0.43534 0.0
C638 C 0.8964 0.22563 0.40849 0.0
C639 C 0.90019 0.23946 0.44736 0.0
C640 C 0.92312 0.23787 0.38161 0.0
C641 C 0.95433 0.26425 0.39278 0.0
C642 C 0.95819 0.27847 0.43126 0.0
H643 H 0.11047 0.38964 0.22537 0.0
H644 H 0.06406 0.36541 0.27264 0.0
C645 C 0.93154 0.26608 0.45834 0.0
C646 C 0.9824 0.27747 0.36359 0.0
H647 H 0.06259 0.2952 0.35125 0.0
C648 C 0.97794 0.28778 0.32558 0.0
C649 C 1.01308 0.27945 0.37256 0.0
C650 C 0.01883 0.26681 0.41174 0.0
C651 C 1.0034 0.3005 0.29663 0.0
C652 C 0.03457 0.30386 0.30628 0.0
C653 C 0.03885 0.29298 0.34399 0.0
C654 C 0.06305 0.31868 0.27771 0.0
C655 C 0.99635 0.30959 0.25572 0.0
C656 C 0.07879 0.30099 0.26575 0.0
C657 C 0.10564 0.31497 0.23893 0.0
C658 C 0.11723 0.34691 0.22347 0.0
C659 C 0.10168 0.3647 0.23591 0.0
C660 C 0.07507 0.35084 0.26295 0.0
H661 H 0.96932 0.29629 0.24905 0.0
H662 H 1.00526 0.33653 0.25515 0.0
H663 H 1.00922 0.30385 0.23146 0.0
H664 H 0.07009 0.2762 0.27689 0.0
H665 H 0.11702 0.30062 0.22984 0.0
H666 H 0.6791 0.74603 0.85631 0.0
H667 H 0.70356 0.72326 0.90231 0.0
H668 H 0.68651 0.77233 1.00239 0.0
H669 H 0.66221 0.79523 0.95665 0.0
H670 H 0.7486 0.7802 1.00414 0.0
H671 H 0.65478 0.64773 0.98122 0.0
H672 H 0.67406 0.66916 0.93545 0.0
H673 H 0.64859 0.68086 0.964 0.0
C674 C 0.6803 0.75172 0.88816 0.0
C675 C 0.66858 0.77239 0.90275 0.0
C676 C 0.69423 0.73864 0.91444 0.0
C677 C 0.6964 0.74565 0.95592 0.0
C678 C 0.68505 0.76653 0.97051 0.0
H679 H 0.73154 0.64329 0.14991 0.0
H680 H 0.70841 0.66539 0.10124 0.0
C681 C 0.67128 0.77974 0.94426 0.0
C682 C 0.71101 0.73177 0.98416 0.0
H683 H 0.70239 0.65926 0.01959 0.0
C684 C 0.73849 0.75375 0.00755 0.0
C685 C 0.69752 0.69725 0.98898 0.0
C686 C 0.66692 0.67233 0.9664 0.0
C687 C 0.753 0.74221 0.03541 0.0
C688 C 0.74012 0.7077 0.03939 0.0
C689 C 0.71247 0.6857 0.01622 0.0
C690 C 0.75431 0.69387 0.06832 0.0
C691 C 0.78144 0.7671 0.06103 0.0
C692 C 0.7877 0.70208 0.06569 0.0
C693 C 0.80102 0.68951 0.09359 0.0
C694 C 0.78111 0.66811 0.12437 0.0
C695 C 0.74749 0.65939 0.12637 0.0
C696 C 0.73426 0.67213 0.09864 0.0
H697 H 0.78233 0.79133 0.06219 0.0
H698 H 0.77957 0.75799 0.09232 0.0
H699 H 0.80519 0.77127 0.04791 0.0
H700 H 0.80346 0.71812 0.04195 0.0
H701 H 0.82683 0.69625 0.09081 0.0
H702 H 0.39977 0.12903 0.76561 0.0
H703 H 0.37884 0.08525 0.71436 0.0
H704 H 0.27867 0.05104 0.75423 0.0
H705 H 0.29921 0.09417 0.80588 0.0
H706 H 0.34032 0.01567 0.7265 0.0
H707 H 0.27343 0.06096 0.63154 0.0
H708 H 0.30422 0.08689 0.66833 0.0
H709 H 0.26292 0.05711 0.68415 0.0
C710 C 0.37329 0.11219 0.76369 0.0
C711 C 0.35128 0.11542 0.79007 0.0
C712 C 0.36136 0.08723 0.73417 0.0
C713 C 0.32715 0.06515 0.73004 0.0
C714 C 0.30511 0.06823 0.75623 0.0
H715 H 0.20289 0.89398 0.57942 0.0
H716 H 0.22509 0.93982 0.6279 0.0
C717 C 0.31699 0.09306 0.78583 0.0
C718 C 0.31453 0.03815 0.69936 0.0
H719 H 0.26422 1.00715 0.6167 0.0
C720 C 0.32387 0.01391 0.70231 0.0
C721 C 0.29291 0.03578 0.66797 0.0
C722 C 0.28294 0.06169 0.66244 0.0
C723 C 0.3116 0.98699 0.67528 0.0
C724 C 0.28998 0.9846 0.64381 0.0
C725 C 0.28075 0.00894 0.6408 0.0
C726 C 0.27659 0.957 0.61383 0.0
C727 C 0.32119 0.96084 0.68144 0.0
C728 C 0.29807 0.95166 0.58921 0.0
C729 C 0.28547 0.92527 0.56168 0.0
C730 C 0.25099 0.9037 0.55779 0.0
C731 C 0.22952 0.90964 0.5819 0.0
C732 C 0.24219 0.93603 0.60951 0.0
H733 H 0.32998 0.96134 0.71268 0.0
H734 H 0.29997 0.93571 0.67507 0.0
H735 H 0.34172 0.96547 0.66053 0.0
H736 H 0.32468 0.96789 0.59132 0.0
H737 H 0.30291 0.92153 0.54406 0.0
loop_
_geom_bond_atom_site_label_1
_geom_bond_atom_site_label_2
_geom_bond_distance
_geom_bond_site_symmetry_2
_ccdc_geom_bond_type
Co0 N4 2.148 . S
Co0 N10 2.128 . S
Co0 N20 2.194 . S
Co0 O25 2.351 . S
Co0 O26 2.155 . S
Co0 O27 2.096 . S
C1 N4 1.301 . S
C1 N5 1.328 . S
C1 H6 0.930 . S
C2 C3 1.333 . S
C2 N4 1.317 . S
C2 H7 0.930 . S
C3 C2 1.333 . S
C3 N5 1.350 . S
C3 H29 0.931 . S
N4 Co0 2.148 . S
N4 C1 1.301 . S
N4 C2 1.317 . S
N5 C1 1.328 . S
N5 C3 1.350 . S
H6 C1 0.930 . S
H7 C2 0.930 . S
C8 O9 1.224 . S
C8 O27 1.247 . S
O9 C8 1.224 . S
N10 Co0 2.128 . S
N10 C11 1.355 1_554 S
N10 C13 1.311 . S
C11 N10 1.355 1_556 S
C11 C12 1.363 . S
C11 H23 0.929 . S
C12 C11 1.363 . S
C12 N14 1.375 . S
C12 H30 0.931 . S
C13 N10 1.311 . S
C13 N14 1.347 1_554 S
C13 H24 0.929 . S
N14 C12 1.375 . S
N14 C13 1.347 1_556 S
C15 C18 1.365 1_554 S
C15 N20 1.328 . S
C15 H21 0.929 . S
C16 C17 1.362 . S
C16 C19 1.369 1_556 S
C16 H31 0.929 . S
C17 C16 1.362 . S
C17 C18 1.366 . S
C18 C15 1.365 1_556 S
C18 C17 1.366 . S
C18 H32 0.930 . S
C19 C16 1.369 1_554 S
C19 N20 1.323 . S
C19 H22 0.931 . S
N20 Co0 2.194 . S
N20 C15 1.328 . S
N20 C19 1.323 . S
H21 C15 0.929 . S
H22 C19 0.931 . S
H23 C11 0.929 . S
H24 C13 0.929 . S
O25 Co0 2.351 . S
O25 C28 1.244 . S
O26 Co0 2.155 . S
O26 C28 1.240 . S
O27 Co0 2.096 . S
O27 C8 1.247 . S
C28 O25 1.244 . S
C28 O26 1.240 . S
H29 C3 0.931 . S
H30 C12 0.931 . S
H31 C16 0.929 . S
H32 C18 0.930 . S
Co33 N37 2.148 . S
Co33 N43 2.128 . S
Co33 N53 2.194 . S
Co33 O58 2.351 . S
Co33 O59 2.155 . S
Co33 O60 2.096 . S
C34 N37 1.301 . S
C34 N38 1.328 . S
C34 H39 0.930 . S
C35 C36 1.333 . S
C35 N37 1.317 . S
C35 H40 0.930 . S
C36 C35 1.333 . S
C36 N38 1.350 . S
C36 H62 0.931 . S
N37 Co33 2.148 . S
N37 C34 1.301 . S
N37 C35 1.317 . S
N38 C34 1.328 . S
N38 C36 1.350 . S
H39 C34 0.930 . S
H40 C35 0.930 . S
C41 O42 1.224 . S
C41 O60 1.247 . S
O42 C41 1.224 . S
N43 Co33 2.128 . S
N43 C44 1.355 . S
N43 C46 1.311 . S
C44 N43 1.355 . S
C44 C45 1.363 . S
C44 H56 0.929 . S
C45 C44 1.363 . S
C45 N47 1.375 . S
C45 H63 0.931 . S
C46 N43 1.311 . S
C46 N47 1.347 . S
C46 H57 0.929 . S
N47 C45 1.375 . S
N47 C46 1.347 . S
C48 C51 1.365 . S
C48 N53 1.328 . S
C48 H54 0.929 . S
C49 C50 1.362 . S
C49 C52 1.378 . S
C49 H64 0.929 . S
C50 C49 1.362 . S
C50 C51 1.366 . S
C51 C48 1.365 . S
C51 C50 1.366 . S
C51 H65 0.930 . S
C52 C49 1.378 . S
C52 N53 1.315 . S
C52 H55 0.930 . S
N53 Co33 2.194 . S
N53 C48 1.328 . S
N53 C52 1.315 . S
H54 C48 0.929 . S
H55 C52 0.930 . S
H56 C44 0.929 . S
H57 C46 0.929 . S
O58 Co33 2.351 . S
O58 C61 1.244 . S
O59 Co33 2.155 . S
O59 C61 1.240 . S
O60 Co33 2.096 . S
O60 C41 1.247 . S
C61 O58 1.244 . S
C61 O59 1.240 . S
H62 C36 0.931 . S
H63 C45 0.931 . S
H64 C49 0.929 . S
H65 C51 0.930 . S
Co66 N70 2.148 . S
Co66 N76 2.128 . S
Co66 N86 2.194 . S
Co66 O91 2.351 . S
Co66 O92 2.155 . S
Co66 O93 2.096 . S
C67 N70 1.301 . S
C67 N71 1.328 . S
C67 H72 0.930 . S
C68 C69 1.333 . S
C68 N70 1.317 . S
C68 H73 0.930 . S
C69 C68 1.333 . S
C69 N71 1.350 . S
C69 H95 0.931 . S
N70 Co66 2.148 . S
N70 C67 1.301 . S
N70 C68 1.317 . S
N71 C67 1.328 . S
N71 C69 1.350 . S
H72 C67 0.930 . S
H73 C68 0.930 . S
C74 O75 1.224 . S
C74 O93 1.247 . S
O75 C74 1.224 . S
N76 Co66 2.128 . S
N76 C77 1.355 . S
N76 C79 1.311 . S
C77 N76 1.355 . S
C77 C78 1.363 . S
C77 H89 0.929 . S
C78 C77 1.363 . S
C78 N80 1.375 . S
C78 H96 0.931 . S
C79 N76 1.311 . S
C79 N80 1.347 . S
C79 H90 0.929 . S
N80 C78 1.375 . S
N80 C79 1.347 . S
C81 C84 1.365 . S
C81 N86 1.328 . S
C81 H87 0.929 . S
C82 C83 1.362 . S
C82 C85 1.378 . S
C82 H97 0.929 . S
C83 C82 1.362 . S
C83 C84 1.366 . S
C84 C81 1.365 . S
C84 C83 1.366 . S
C84 H98 0.930 . S
C85 C82 1.378 . S
C85 N86 1.315 . S
C85 H88 0.930 . S
N86 Co66 2.194 . S
N86 C81 1.328 . S
N86 C85 1.315 . S
H87 C81 0.929 . S
H88 C85 0.930 . S
H89 C77 0.929 . S
H90 C79 0.929 . S
O91 Co66 2.351 . S
O91 C94 1.244 . S
O92 Co66 2.155 . S
O92 C94 1.240 . S
O93 Co66 2.096 . S
O93 C74 1.247 . S
C94 O91 1.244 . S
C94 O92 1.240 . S
H95 C69 0.931 . S
H96 C78 0.931 . S
H97 C82 0.929 . S
H98 C84 0.930 . S
Co99 N103 2.148 . S
Co99 N109 2.128 . S
Co99 N119 2.194 . S
Co99 O124 2.351 . S
Co99 O125 2.155 . S
Co99 O126 2.096 . S
C100 N103 1.301 . S
C100 N104 1.328 . S
C100 H105 0.930 . S
C101 C102 1.333 . S
C101 N103 1.317 . S
C101 H106 0.930 . S
C102 C101 1.333 . S
C102 N104 1.350 . S
C102 H128 0.931 . S
N103 Co99 2.148 . S
N103 C100 1.301 . S
N103 C101 1.317 . S
N104 C100 1.328 . S
N104 C102 1.350 . S
H105 C100 0.930 . S
H106 C101 0.930 . S
C107 O108 1.224 . S
C107 O126 1.247 . S
O108 C107 1.224 . S
N109 Co99 2.128 . S
N109 C110 1.355 1_556 S
N109 C112 1.311 . S
C110 N109 1.355 1_554 S
C110 C111 1.363 . S
C110 H122 0.929 . S
C111 C110 1.363 . S
C111 N113 1.375 . S
C111 H129 0.931 . S
C112 N109 1.311 . S
C112 N113 1.347 1_556 S
C112 H123 0.929 . S
N113 C111 1.375 . S
N113 C112 1.347 1_554 S
C114 C117 1.365 1_556 S
C114 N119 1.328 . S
C114 H120 0.929 . S
C115 C116 1.362 . S
C115 C118 1.369 1_554 S
C115 H130 0.929 . S
C116 C115 1.362 . S
C116 C117 1.366 . S
C117 C114 1.365 1_554 S
C117 C116 1.366 . S
C117 H131 0.930 . S
C118 C115 1.369 1_556 S
C118 N119 1.323 . S
C118 H121 0.931 . S
N119 Co99 2.194 . S
N119 C114 1.328 . S
N119 C118 1.323 . S
H120 C114 0.929 . S
H121 C118 0.931 . S
H122 C110 0.929 . S
H123 C112 0.929 . S
O124 Co99 2.351 . S
O124 C127 1.244 . S
O125 Co99 2.155 . S
O125 C127 1.240 . S
O126 Co99 2.096 . S
O126 C107 1.247 . S
C127 O124 1.244 . S
C127 O125 1.240 . S
H128 C102 0.931 . S
H129 C111 0.931 . S
H130 C115 0.929 . S
H131 C117 0.930 . S
Co132 N136 2.148 . S
Co132 N142 2.128 . S
Co132 N152 2.194 . S
Co132 O157 2.351 . S
Co132 O158 2.155 . S
Co132 O159 2.096 . S
C133 N136 1.301 . S
C133 N137 1.328 . S
C133 H138 0.930 . S
C134 C135 1.333 . S
C134 N136 1.317 . S
C134 H139 0.930 . S
C135 C134 1.333 . S
C135 N137 1.350 . S
C135 H161 0.931 . S
N136 Co132 2.148 . S
N136 C133 1.301 . S
N136 C134 1.317 . S
N137 C133 1.328 . S
N137 C135 1.350 . S
H138 C133 0.930 . S
H139 C134 0.930 . S
C140 O141 1.224 . S
C140 O159 1.247 . S
O141 C140 1.224 . S
N142 Co132 2.128 . S
N142 C143 1.355 . S
N142 C145 1.311 . S
C143 N142 1.355 . S
C143 C144 1.363 . S
C143 H155 0.929 . S
C144 C143 1.363 . S
C144 N146 1.375 . S
C144 H162 0.931 . S
C145 N142 1.311 . S
C145 N146 1.347 . S
C145 H156 0.929 . S
N146 C144 1.375 . S
N146 C145 1.347 . S
C147 C150 1.365 . S
C147 N152 1.328 . S
C147 H153 0.929 . S
C148 C149 1.362 . S
C148 C151 1.378 . S
C148 H163 0.929 . S
C149 C148 1.362 . S
C149 C150 1.366 . S
C150 C147 1.365 . S
C150 C149 1.366 . S
C150 H164 0.930 . S
C151 C148 1.378 . S
C151 N152 1.315 . S
C151 H154 0.930 . S
N152 Co132 2.194 . S
N152 C147 1.328 . S
N152 C151 1.315 . S
H153 C147 0.929 . S
H154 C151 0.930 . S
H155 C143 0.929 . S
H156 C145 0.929 . S
O157 Co132 2.351 . S
O157 C160 1.244 . S
O158 Co132 2.155 . S
O158 C160 1.240 . S
O159 Co132 2.096 . S
O159 C140 1.247 . S
C160 O157 1.244 . S
C160 O158 1.240 . S
H161 C135 0.931 . S
H162 C144 0.931 . S
H163 C148 0.929 . S
H164 C150 0.930 . S
Co165 N169 2.148 . S
Co165 N175 2.128 . S
Co165 N185 2.194 . S
Co165 O190 2.351 . S
Co165 O191 2.155 . S
Co165 O192 2.096 . S
C166 N169 1.301 . S
C166 N170 1.328 . S
C166 H171 0.930 . S
C167 C168 1.333 . S
C167 N169 1.317 . S
C167 H172 0.930 . S
C168 C167 1.333 . S
C168 N170 1.350 . S
C168 H194 0.931 . S
N169 Co165 2.148 . S
N169 C166 1.301 . S
N169 C167 1.317 . S
N170 C166 1.328 . S
N170 C168 1.350 . S
H171 C166 0.930 . S
H172 C167 0.930 . S
C173 O174 1.224 . S
C173 O192 1.247 . S
O174 C173 1.224 . S
N175 Co165 2.128 . S
N175 C176 1.355 . S
N175 C178 1.311 . S
C176 N175 1.355 . S
C176 C177 1.363 . S
C176 H188 0.929 . S
C177 C176 1.363 . S
C177 N179 1.375 . S
C177 H195 0.931 . S
C178 N175 1.311 . S
C178 N179 1.347 . S
C178 H189 0.929 . S
N179 C177 1.375 . S
N179 C178 1.347 . S
C180 C183 1.365 . S
C180 N185 1.328 . S
C180 H186 0.929 . S
C181 C182 1.362 . S
C181 C184 1.378 . S
C181 H196 0.929 . S
C182 C181 1.362 . S
C182 C183 1.366 . S
C183 C180 1.365 . S
C183 C182 1.366 . S
C183 H197 0.930 . S
C184 C181 1.378 . S
C184 N185 1.315 . S
C184 H187 0.930 . S
N185 Co165 2.194 . S
N185 C180 1.328 . S
N185 C184 1.315 . S
H186 C180 0.929 . S
H187 C184 0.930 . S
H188 C176 0.929 . S
H189 C178 0.929 . S
O190 Co165 2.351 . S
O190 C193 1.244 . S
O191 Co165 2.155 . S
O191 C193 1.240 . S
O192 Co165 2.096 . S
O192 C173 1.247 . S
C193 O190 1.244 . S
C193 O191 1.240 . S
H194 C168 0.931 . S
H195 C177 0.931 . S
H196 C181 0.929 . S
H197 C183 0.930 . S
H198 C206 0.929 . S
H199 C208 0.930 . S
H200 C210 0.930 . S
H201 C213 0.929 . S
H202 C216 0.930 . S
H203 C218 0.960 . S
H204 C218 0.960 . S
H205 C218 0.960 . S
C206 H198 0.929 . S
C206 C207 1.377 . S
C206 C208 1.384 . S
C207 C206 1.377 . S
C207 C213 1.390 . S
C208 H199 0.930 . S
C208 C206 1.384 . S
C208 C209 1.372 . S
C209 C208 1.372 . S
C209 C210 1.400 . S
C209 C214 1.490 . S
C210 H200 0.930 . S
C210 C209 1.400 . S
C210 C213 1.386 . S
H211 C227 0.930 . S
H212 C228 0.931 . S
C213 H201 0.929 . S
C213 C207 1.390 . S
C213 C210 1.386 . S
C214 C209 1.490 . S
C214 C216 1.395 . S
C214 C217 1.403 . S
H215 C221 0.930 . S
C216 H202 0.930 . S
C216 C214 1.395 . S
C216 C219 1.403 . S
C217 C214 1.403 . S
C217 C218 1.524 . S
C217 C221 1.400 . S
C218 H203 0.960 . S
C218 H204 0.960 . S
C218 H205 0.960 . S
C218 C217 1.524 . S
C219 C216 1.403 . S
C219 C220 1.392 . S
C219 C223 1.495 . S
C220 C219 1.392 . S
C220 C221 1.385 . S
C220 C222 1.478 . S
C221 H215 0.930 . S
C221 C217 1.400 . S
C221 C220 1.385 . S
C222 C220 1.478 . S
C222 C224 1.381 . S
C222 C228 1.383 . S
C223 C219 1.495 . S
C223 H229 0.959 . S
C223 H230 0.961 . S
C223 H231 0.960 . S
C224 C222 1.381 . S
C224 C225 1.394 . S
C224 H232 0.930 . S
C225 C224 1.394 . S
C225 C226 1.383 . S
C225 H233 0.929 . S
C226 C225 1.383 . S
C226 C227 1.377 . S
C227 H211 0.930 . S
C227 C226 1.377 . S
C227 C228 1.379 . S
C228 H212 0.931 . S
C228 C222 1.383 . S
C228 C227 1.379 . S
H229 C223 0.959 . S
H230 C223 0.961 . S
H231 C223 0.960 . S
H232 C224 0.930 . S
H233 C225 0.929 . S
H234 C242 0.929 . S
H235 C244 0.930 . S
H236 C246 0.930 . S
H237 C249 0.929 . S
H238 C252 0.930 . S
H239 C254 0.960 . S
H240 C254 0.960 . S
H241 C254 0.960 . S
C242 H234 0.929 . S
C242 C243 1.377 . S
C242 C244 1.384 . S
C243 C242 1.377 . S
C243 C249 1.390 . S
C244 H235 0.930 . S
C244 C242 1.384 . S
C244 C245 1.372 . S
C245 C244 1.372 . S
C245 C246 1.400 . S
C245 C250 1.490 . S
C246 H236 0.930 . S
C246 C245 1.400 . S
C246 C249 1.386 . S
H247 C263 0.930 . S
H248 C264 0.931 . S
C249 H237 0.929 . S
C249 C243 1.390 . S
C249 C246 1.386 . S
C250 C245 1.490 . S
C250 C252 1.395 . S
C250 C253 1.403 . S
H251 C257 0.930 . S
C252 H238 0.930 . S
C252 C250 1.395 . S
C252 C255 1.403 . S
C253 C250 1.403 . S
C253 C254 1.524 . S
C253 C257 1.400 . S
C254 H239 0.960 . S
C254 H240 0.960 . S
C254 H241 0.960 . S
C254 C253 1.524 . S
C255 C252 1.403 . S
C255 C256 1.392 . S
C255 C259 1.495 . S
C256 C255 1.392 . S
C256 C257 1.385 . S
C256 C258 1.478 . S
C257 H251 0.930 . S
C257 C253 1.400 . S
C257 C256 1.385 . S
C258 C256 1.478 . S
C258 C260 1.381 . S
C258 C264 1.383 . S
C259 C255 1.495 . S
C259 H265 0.959 . S
C259 H266 0.961 . S
C259 H267 0.960 . S
C260 C258 1.381 . S
C260 C261 1.394 . S
C260 H268 0.930 . S
C261 C260 1.394 . S
C261 C262 1.383 . S
C261 H269 0.929 . S
C262 C261 1.383 . S
C262 C263 1.377 . S
C263 H247 0.930 . S
C263 C262 1.377 . S
C263 C264 1.379 . S
C264 H248 0.931 . S
C264 C258 1.383 . S
C264 C263 1.379 . S
H265 C259 0.959 . S
H266 C259 0.961 . S
H267 C259 0.960 . S
H268 C260 0.930 . S
H269 C261 0.929 . S
H270 C278 0.929 . S
H271 C280 0.930 . S
H272 C282 0.930 . S
H273 C285 0.929 . S
H274 C288 0.930 . S
H275 C290 0.960 . S
H276 C290 0.960 . S
H277 C290 0.960 . S
C278 H270 0.929 . S
C278 C279 1.377 . S
C278 C280 1.384 . S
C279 C278 1.377 . S
C279 C285 1.390 . S
C280 H271 0.930 . S
C280 C278 1.384 . S
C280 C281 1.372 . S
C281 C280 1.372 . S
C281 C282 1.400 . S
C281 C286 1.490 . S
C282 H272 0.930 . S
C282 C281 1.400 . S
C282 C285 1.386 . S
H283 C299 0.930 . S
H284 C300 0.931 . S
C285 H273 0.929 . S
C285 C279 1.390 . S
C285 C282 1.386 . S
C286 C281 1.490 . S
C286 C288 1.395 . S
C286 C289 1.403 . S
H287 C293 0.930 . S
C288 H274 0.930 . S
C288 C286 1.395 . S
C288 C291 1.403 . S
C289 C286 1.403 . S
C289 C290 1.524 . S
C289 C293 1.400 . S
C290 H275 0.960 . S
C290 H276 0.960 . S
C290 H277 0.960 . S
C290 C289 1.524 . S
C291 C288 1.403 . S
C291 C292 1.392 . S
C291 C295 1.495 . S
C292 C291 1.392 . S
C292 C293 1.385 . S
C292 C294 1.478 . S
C293 H287 0.930 . S
C293 C289 1.400 . S
C293 C292 1.385 . S
C294 C292 1.478 . S
C294 C296 1.381 . S
C294 C300 1.383 . S
C295 C291 1.495 . S
C295 H301 0.959 . S
C295 H302 0.961 . S
C295 H303 0.960 . S
C296 C294 1.381 . S
C296 C297 1.394 . S
C296 H304 0.930 . S
C297 C296 1.394 . S
C297 C298 1.383 . S
C297 H305 0.929 . S
C298 C297 1.383 . S
C298 C299 1.377 . S
C299 H283 0.930 . S
C299 C298 1.377 . S
C299 C300 1.379 . S
C300 H284 0.931 . S
C300 C294 1.383 . S
C300 C299 1.379 . S
H301 C295 0.959 . S
H302 C295 0.961 . S
H303 C295 0.960 . S
H304 C296 0.930 . S
H305 C297 0.929 . S
H306 C314 0.929 . S
H307 C316 0.930 . S
H308 C318 0.930 . S
H309 C321 0.929 . S
H310 C324 0.930 . S
H311 C326 0.960 . S
H312 C326 0.960 . S
H313 C326 0.960 . S
C314 H306 0.929 . S
C314 C315 1.377 . S
C314 C316 1.384 . S
C315 C314 1.377 . S
C315 C321 1.390 . S
C316 H307 0.930 . S
C316 C314 1.384 . S
C316 C317 1.372 . S
C317 C316 1.372 . S
C317 C318 1.400 . S
C317 C322 1.490 . S
C318 H308 0.930 . S
C318 C317 1.400 . S
C318 C321 1.386 . S
H319 C335 0.930 . S
H320 C336 0.931 . S
C321 H309 0.929 . S
C321 C315 1.390 . S
C321 C318 1.386 . S
C322 C317 1.490 . S
C322 C324 1.395 . S
C322 C325 1.403 . S
H323 C329 0.930 . S
C324 H310 0.930 . S
C324 C322 1.395 . S
C324 C327 1.403 . S
C325 C322 1.403 . S
C325 C326 1.524 . S
C325 C329 1.400 . S
C326 H311 0.960 . S
C326 H312 0.960 . S
C326 H313 0.960 . S
C326 C325 1.524 . S
C327 C324 1.403 . S
C327 C328 1.392 . S
C327 C331 1.495 . S
C328 C327 1.392 . S
C328 C329 1.385 . S
C328 C330 1.478 . S
C329 H323 0.930 . S
C329 C325 1.400 . S
C329 C328 1.385 . S
C330 C328 1.478 . S
C330 C332 1.381 . S
C330 C336 1.383 . S
C331 C327 1.495 . S
C331 H337 0.959 . S
C331 H338 0.961 . S
C331 H339 0.960 . S
C332 C330 1.381 . S
C332 C333 1.394 . S
C332 H340 0.930 . S
C333 C332 1.394 . S
C333 C334 1.383 . S
C333 H341 0.929 . S
C334 C333 1.383 . S
C334 C335 1.377 . S
C335 H319 0.930 . S
C335 C334 1.377 . S
C335 C336 1.379 . S
C336 H320 0.931 . S
C336 C330 1.383 . S
C336 C335 1.379 . S
H337 C331 0.959 . S
H338 C331 0.961 . S
H339 C331 0.960 . S
H340 C332 0.930 . S
H341 C333 0.929 . S
H342 C350 0.929 . S
H343 C352 0.930 . S
H344 C354 0.930 . S
H345 C357 0.929 . S
H346 C360 0.930 . S
H347 C362 0.960 . S
H348 C362 0.960 . S
H349 C362 0.960 . S
C350 H342 0.929 . S
C350 C351 1.377 . S
C350 C352 1.384 . S
C351 C350 1.377 . S
C351 C357 1.390 . S
C352 H343 0.930 . S
C352 C350 1.384 . S
C352 C353 1.372 . S
C353 C352 1.372 . S
C353 C354 1.400 . S
C353 C358 1.490 . S
C354 H344 0.930 . S
C354 C353 1.400 . S
C354 C357 1.386 . S
H355 C371 0.930 . S
H356 C372 0.931 . S
C357 H345 0.929 . S
C357 C351 1.390 . S
C357 C354 1.386 . S
C358 C353 1.490 . S
C358 C360 1.395 . S
C358 C361 1.403 . S
H359 C365 0.930 . S
C360 H346 0.930 . S
C360 C358 1.395 . S
C360 C363 1.403 . S
C361 C358 1.403 . S
C361 C362 1.524 . S
C361 C365 1.400 . S
C362 H347 0.960 . S
C362 H348 0.960 . S
C362 H349 0.960 . S
C362 C361 1.524 . S
C363 C360 1.403 . S
C363 C364 1.392 . S
C363 C367 1.495 . S
C364 C363 1.392 . S
C364 C365 1.385 . S
C364 C366 1.478 . S
C365 H359 0.930 . S
C365 C361 1.400 . S
C365 C364 1.385 . S
C366 C364 1.478 . S
C366 C368 1.381 . S
C366 C372 1.383 . S
C367 C363 1.495 . S
C367 H373 0.959 . S
C367 H374 0.961 . S
C367 H375 0.960 . S
C368 C366 1.381 . S
C368 C369 1.394 . S
C368 H376 0.930 . S
C369 C368 1.394 . S
C369 C370 1.383 . S
C369 H377 0.929 . S
C370 C369 1.383 . S
C370 C371 1.377 . S
C371 H355 0.930 . S
C371 C370 1.377 . S
C371 C372 1.379 . S
C372 H356 0.931 . S
C372 C366 1.383 . S
C372 C371 1.379 . S
H373 C367 0.959 . S
H374 C367 0.961 . S
H375 C367 0.960 . S
H376 C368 0.930 . S
H377 C369 0.929 . S
H378 C386 0.929 . S
H379 C388 0.930 . S
H380 C390 0.930 . S
H381 C393 0.929 . S
H382 C396 0.930 . S
H383 C398 0.960 . S
H384 C398 0.960 . S
H385 C398 0.960 . S
C386 H378 0.929 . S
C386 C387 1.377 . S
C386 C388 1.384 . S
C387 C386 1.377 . S
C387 C393 1.390 . S
C388 H379 0.930 . S
C388 C386 1.384 . S
C388 C389 1.372 . S
C389 C388 1.372 . S
C389 C390 1.400 . S
C389 C394 1.490 . S
C390 H380 0.930 . S
C390 C389 1.400 . S
C390 C393 1.386 . S
H391 C407 0.930 . S
H392 C408 0.931 . S
C393 H381 0.929 . S
C393 C387 1.390 . S
C393 C390 1.386 . S
C394 C389 1.490 . S
C394 C396 1.395 . S
C394 C397 1.403 . S
H395 C401 0.930 . S
C396 H382 0.930 . S
C396 C394 1.395 . S
C396 C399 1.403 . S
C397 C394 1.403 . S
C397 C398 1.524 . S
C397 C401 1.400 . S
C398 H383 0.960 . S
C398 H384 0.960 . S
C398 H385 0.960 . S
C398 C397 1.524 . S
C399 C396 1.403 . S
C399 C400 1.392 . S
C399 C403 1.495 . S
C400 C399 1.392 . S
C400 C401 1.385 . S
C400 C402 1.478 . S
C401 H395 0.930 . S
C401 C397 1.400 . S
C401 C400 1.385 . S
C402 C400 1.478 . S
C402 C404 1.381 . S
C402 C408 1.383 . S
C403 C399 1.495 . S
C403 H409 0.959 . S
C403 H410 0.961 . S
C403 H411 0.960 . S
C404 C402 1.381 . S
C404 C405 1.394 . S
C404 H412 0.930 . S
C405 C404 1.394 . S
C405 C406 1.383 . S
C405 H413 0.929 . S
C406 C405 1.383 . S
C406 C407 1.377 . S
C407 H391 0.930 . S
C407 C406 1.377 . S
C407 C408 1.379 . S
C408 H392 0.931 . S
C408 C402 1.383 . S
C408 C407 1.379 . S
H409 C403 0.959 . S
H410 C403 0.961 . S
H411 C403 0.960 . S
H412 C404 0.930 . S
H413 C405 0.929 . S
H414 C422 0.929 . S
H415 C424 0.930 . S
H416 C426 0.930 . S
H417 C429 0.929 . S
H418 C432 0.930 . S
H419 C434 0.960 . S
H420 C434 0.960 . S
H421 C434 0.960 . S
C422 H414 0.929 . S
C422 C423 1.377 . S
C422 C424 1.384 . S
C423 C422 1.377 . S
C423 C429 1.390 . S
C424 H415 0.930 . S
C424 C422 1.384 . S
C424 C425 1.372 . S
C425 C424 1.372 . S
C425 C426 1.400 . S
C425 C430 1.490 . S
C426 H416 0.930 . S
C426 C425 1.400 . S
C426 C429 1.386 . S
H427 C443 0.930 . S
H428 C444 0.931 . S
C429 H417 0.929 . S
C429 C423 1.390 . S
C429 C426 1.386 . S
C430 C425 1.490 . S
C430 C432 1.395 1_655 S
C430 C433 1.403 . S
H431 C437 0.921 1_655 S
C432 H418 0.930 . S
C432 C430 1.395 1_455 S
C432 C435 1.403 . S
C433 C430 1.403 . S
C433 C434 1.524 . S
C433 C437 1.395 1_655 S
C434 H419 0.960 . S
C434 H420 0.960 . S
C434 H421 0.960 . S
C434 C433 1.524 . S
C435 C432 1.403 . S
C435 C436 1.392 . S
C435 C439 1.495 . S
C436 C435 1.392 . S
C436 C437 1.392 . S
C436 C438 1.478 . S
C437 H431 0.921 1_455 S
C437 C433 1.395 1_455 S
C437 C436 1.392 . S
C438 C436 1.478 . S
C438 C440 1.381 . S
C438 C444 1.383 . S
C439 C435 1.495 . S
C439 H445 0.959 . S
C439 H446 0.961 . S
C439 H447 0.960 . S
C440 C438 1.381 . S
C440 C441 1.394 . S
C440 H448 0.930 . S
C441 C440 1.394 . S
C441 C442 1.383 . S
C441 H449 0.929 . S
C442 C441 1.383 . S
C442 C443 1.377 . S
C443 H427 0.930 . S
C443 C442 1.377 . S
C443 C444 1.379 . S
C444 H428 0.931 . S
C444 C438 1.383 . S
C444 C443 1.379 . S
H445 C439 0.959 . S
H446 C439 0.961 . S
H447 C439 0.960 . S
H448 C440 0.930 . S
H449 C441 0.929 . S
H450 C458 0.929 . S
H451 C460 0.930 . S
H452 C462 0.930 . S
H453 C465 0.929 . S
H454 C468 0.930 . S
H455 C470 0.960 . S
H456 C470 0.960 . S
H457 C470 0.960 . S
C458 H450 0.929 . S
C458 C459 1.377 . S
C458 C460 1.384 . S
C459 C458 1.377 . S
C459 C465 1.390 . S
C460 H451 0.930 . S
C460 C458 1.384 . S
C460 C461 1.372 . S
C461 C460 1.372 . S
C461 C462 1.400 . S
C461 C466 1.490 . S
C462 H452 0.930 . S
C462 C461 1.400 . S
C462 C465 1.386 . S
H463 C479 0.930 . S
H464 C480 0.931 . S
C465 H453 0.929 . S
C465 C459 1.390 . S
C465 C462 1.386 . S
C466 C461 1.490 . S
C466 C468 1.395 . S
C466 C469 1.403 . S
H467 C473 0.930 . S
C468 H454 0.930 . S
C468 C466 1.395 . S
C468 C471 1.403 . S
C469 C466 1.403 . S
C469 C470 1.524 . S
C469 C473 1.400 . S
C470 H455 0.960 . S
C470 H456 0.960 . S
C470 H457 0.960 . S
C470 C469 1.524 . S
C471 C468 1.403 . S
C471 C472 1.392 . S
C471 C475 1.495 . S
C472 C471 1.392 . S
C472 C473 1.385 . S
C472 C474 1.478 . S
C473 H467 0.930 . S
C473 C469 1.400 . S
C473 C472 1.385 . S
C474 C472 1.478 . S
C474 C476 1.381 . S
C474 C480 1.383 . S
C475 C471 1.495 . S
C475 H481 0.959 . S
C475 H482 0.961 . S
C475 H483 0.960 . S
C476 C474 1.381 . S
C476 C477 1.394 . S
C476 H484 0.930 . S
C477 C476 1.394 . S
C477 C478 1.383 . S
C477 H485 0.929 . S
C478 C477 1.383 . S
C478 C479 1.377 . S
C479 H463 0.930 . S
C479 C478 1.377 . S
C479 C480 1.379 . S
C480 H464 0.931 . S
C480 C474 1.383 . S
C480 C479 1.379 . S
H481 C475 0.959 . S
H482 C475 0.961 . S
H483 C475 0.960 . S
H484 C476 0.930 . S
H485 C477 0.929 . S
H486 C494 0.929 . S
H487 C496 0.930 . S
H488 C498 0.930 . S
H489 C501 0.929 . S
H490 C504 0.930 . S
H491 C506 0.960 . S
H492 C506 0.960 . S
H493 C506 0.960 . S
C494 H486 0.929 . S
C494 C495 1.377 . S
C494 C496 1.384 . S
C495 C494 1.377 . S
C495 C501 1.390 . S
C496 H487 0.930 . S
C496 C494 1.384 . S
C496 C497 1.372 . S
C497 C496 1.372 . S
C497 C498 1.400 . S
C497 C502 1.490 . S
C498 H488 0.930 . S
C498 C497 1.400 . S
C498 C501 1.386 . S
H499 C515 0.930 . S
H500 C516 0.931 . S
C501 H489 0.929 . S
C501 C495 1.390 . S
C501 C498 1.386 . S
C502 C497 1.490 . S
C502 C504 1.395 1_545 S
C502 C505 1.403 . S
H503 C509 0.930 . S
C504 H490 0.930 . S
C504 C502 1.395 1_565 S
C504 C507 1.403 . S
C505 C502 1.403 . S
C505 C506 1.524 . S
C505 C509 1.400 . S
C506 H491 0.960 . S
C506 H492 0.960 . S
C506 H493 0.960 . S
C506 C505 1.524 . S
C507 C504 1.403 . S
C507 C508 1.392 . S
C507 C511 1.495 . S
C508 C507 1.392 . S
C508 C509 1.385 1_565 S
C508 C510 1.478 . S
C509 H503 0.930 . S
C509 C505 1.400 . S
C509 C508 1.385 1_545 S
C510 C508 1.478 . S
C510 C512 1.381 . S
C510 C516 1.383 . S
C511 C507 1.495 . S
C511 H517 0.959 . S
C511 H518 0.961 . S
C511 H519 0.960 . S
C512 C510 1.381 . S
C512 C513 1.394 . S
C512 H520 0.930 . S
C513 C512 1.394 . S
C513 C514 1.383 . S
C513 H521 0.929 . S
C514 C513 1.383 . S
C514 C515 1.377 . S
C515 H499 0.930 . S
C515 C514 1.377 . S
C515 C516 1.379 . S
C516 H500 0.931 . S
C516 C510 1.383 . S
C516 C515 1.379 . S
H517 C511 0.959 . S
H518 C511 0.961 . S
H519 C511 0.960 . S
H520 C512 0.930 . S
H521 C513 0.929 . S
H522 C530 0.929 . S
H523 C532 0.930 . S
H524 C534 0.930 . S
H525 C537 0.929 . S
H526 C540 0.930 . S
H527 C542 0.960 . S
H528 C542 0.960 . S
H529 C542 0.960 . S
C530 H522 0.929 . S
C530 C531 1.377 . S
C530 C532 1.384 . S
C531 C530 1.377 . S
C531 C537 1.390 . S
C532 H523 0.930 . S
C532 C530 1.384 . S
C532 C533 1.372 . S
C533 C532 1.372 . S
C533 C534 1.400 . S
C533 C538 1.490 . S
C534 H524 0.930 . S
C534 C533 1.400 . S
C534 C537 1.386 . S
H535 C551 0.930 . S
H536 C552 0.931 . S
C537 H525 0.929 . S
C537 C531 1.390 . S
C537 C534 1.386 . S
C538 C533 1.490 . S
C538 C540 1.395 . S
C538 C541 1.403 1_556 S
H539 C545 0.930 . S
C540 H526 0.930 . S
C540 C538 1.395 . S
C540 C543 1.403 . S
C541 C538 1.403 1_554 S
C541 C542 1.524 . S
C541 C545 1.400 . S
C542 H527 0.960 . S
C542 H528 0.960 . S
C542 H529 0.960 . S
C542 C541 1.524 . S
C543 C540 1.403 . S
C543 C544 1.392 1_556 S
C543 C547 1.495 . S
C544 C543 1.392 1_554 S
C544 C545 1.385 . S
C544 C546 1.478 . S
C545 H539 0.930 . S
C545 C541 1.400 . S
C545 C544 1.385 . S
C546 C544 1.478 . S
C546 C548 1.381 . S
C546 C552 1.383 . S
C547 C543 1.495 . S
C547 H553 0.959 . S
C547 H554 0.961 . S
C547 H555 0.960 . S
C548 C546 1.381 . S
C548 C549 1.394 . S
C548 H556 0.930 . S
C549 C548 1.394 . S
C549 C550 1.383 . S
C549 H557 0.929 . S
C550 C549 1.383 . S
C550 C551 1.377 . S
C551 H535 0.930 . S
C551 C550 1.377 . S
C551 C552 1.379 . S
C552 H536 0.931 . S
C552 C546 1.383 . S
C552 C551 1.379 . S
H553 C547 0.959 . S
H554 C547 0.961 . S
H555 C547 0.960 . S
H556 C548 0.930 . S
H557 C549 0.929 . S
H558 C566 0.929 . S
H559 C568 0.930 . S
H560 C570 0.930 . S
H561 C573 0.929 . S
H562 C576 0.930 . S
H563 C578 0.960 . S
H564 C578 0.960 . S
H565 C578 0.960 . S
C566 H558 0.929 . S
C566 C567 1.377 . S
C566 C568 1.384 . S
C567 C566 1.377 . S
C567 C573 1.390 . S
C568 H559 0.930 . S
C568 C566 1.384 . S
C568 C569 1.372 . S
C569 C568 1.372 . S
C569 C570 1.400 . S
C569 C574 1.490 . S
C570 H560 0.930 . S
C570 C569 1.400 . S
C570 C573 1.386 . S
H571 C587 0.930 . S
H572 C588 0.931 . S
C573 H561 0.929 . S
C573 C567 1.390 . S
C573 C570 1.386 . S
C574 C569 1.490 . S
C574 C576 1.395 . S
C574 C577 1.403 . S
H575 C581 0.930 . S
C576 H562 0.930 . S
C576 C574 1.395 . S
C576 C579 1.403 1_545 S
C577 C574 1.403 . S
C577 C578 1.524 . S
C577 C581 1.400 1_545 S
C578 H563 0.960 . S
C578 H564 0.960 . S
C578 H565 0.960 . S
C578 C577 1.524 . S
C579 C576 1.403 1_565 S
C579 C580 1.392 . S
C579 C583 1.495 . S
C580 C579 1.392 . S
C580 C581 1.385 . S
C580 C582 1.478 . S
C581 H575 0.930 . S
C581 C577 1.400 1_565 S
C581 C580 1.385 . S
C582 C580 1.478 . S
C582 C584 1.381 . S
C582 C588 1.383 . S
C583 C579 1.495 . S
C583 H589 0.959 . S
C583 H590 0.961 . S
C583 H591 0.960 . S
C584 C582 1.381 . S
C584 C585 1.394 . S
C584 H592 0.930 . S
C585 C584 1.394 . S
C585 C586 1.383 . S
C585 H593 0.929 . S
C586 C585 1.383 . S
C586 C587 1.377 . S
C587 H571 0.930 . S
C587 C586 1.377 . S
C587 C588 1.379 . S
C588 H572 0.931 . S
C588 C582 1.383 . S
C588 C587 1.379 . S
H589 C583 0.959 . S
H590 C583 0.961 . S
H591 C583 0.960 . S
H592 C584 0.930 . S
H593 C585 0.929 . S
H594 C602 0.929 . S
H595 C604 0.930 . S
H596 C606 0.930 . S
H597 C609 0.929 . S
H598 C612 0.930 . S
H599 C614 0.960 1_655 S
H600 C614 0.960 . S
H601 C614 0.960 . S
C602 H594 0.929 . S
C602 C603 1.377 . S
C602 C604 1.384 . S
C603 C602 1.377 . S
C603 C609 1.390 . S
C604 H595 0.930 . S
C604 C602 1.384 . S
C604 C605 1.372 . S
C605 C604 1.372 . S
C605 C606 1.400 . S
C605 C610 1.490 . S
C606 H596 0.930 . S
C606 C605 1.400 . S
C606 C609 1.386 . S
H607 C623 0.930 . S
H608 C624 0.931 . S
C609 H597 0.929 . S
C609 C603 1.390 . S
C609 C606 1.386 . S
C610 C605 1.490 . S
C610 C612 1.395 . S
C610 C613 1.403 . S
H611 C617 0.930 . S
C612 H598 0.930 . S
C612 C610 1.395 . S
C612 C615 1.403 1_455 S
C613 C610 1.403 . S
C613 C614 1.524 . S
C613 C617 1.400 1_455 S
C614 H599 0.960 1_455 S
C614 H600 0.960 . S
C614 H601 0.960 . S
C614 C613 1.524 . S
C615 C612 1.403 1_655 S
C615 C616 1.392 . S
C615 C619 1.495 . S
C616 C615 1.392 . S
C616 C617 1.385 . S
C616 C618 1.478 . S
C617 H611 0.930 . S
C617 C613 1.400 1_655 S
C617 C616 1.385 . S
C618 C616 1.478 . S
C618 C620 1.381 . S
C618 C624 1.383 . S
C619 C615 1.495 . S
C619 H625 0.959 1_655 S
C619 H626 0.961 . S
C619 H627 0.960 . S
C620 C618 1.381 . S
C620 C621 1.394 . S
C620 H628 0.930 . S
C621 C620 1.394 . S
C621 C622 1.383 . S
C621 H629 0.929 . S
C622 C621 1.383 . S
C622 C623 1.377 . S
C623 H607 0.930 . S
C623 C622 1.377 . S
C623 C624 1.379 . S
C624 H608 0.931 . S
C624 C618 1.383 . S
C624 C623 1.379 . S
H625 C619 0.959 1_455 S
H626 C619 0.961 . S
H627 C619 0.960 . S
H628 C620 0.930 . S
H629 C621 0.929 . S
H630 C638 0.929 . S
H631 C640 0.930 . S
H632 C642 0.930 . S
H633 C645 0.929 . S
H634 C648 0.930 . S
H635 C650 0.960 . S
H636 C650 0.960 . S
H637 C650 0.960 . S
C638 H630 0.929 . S
C638 C639 1.377 . S
C638 C640 1.384 . S
C639 C638 1.377 . S
C639 C645 1.390 . S
C640 H631 0.930 . S
C640 C638 1.384 . S
C640 C641 1.372 . S
C641 C640 1.372 . S
C641 C642 1.400 . S
C641 C646 1.490 . S
C642 H632 0.930 . S
C642 C641 1.400 . S
C642 C645 1.386 . S
H643 C659 0.930 . S
H644 C660 0.931 . S
C645 H633 0.929 . S
C645 C639 1.390 . S
C645 C642 1.386 . S
C646 C641 1.490 . S
C646 C648 1.395 . S
C646 C649 1.403 1_655 S
H647 C653 0.930 . S
C648 H634 0.930 . S
C648 C646 1.395 . S
C648 C651 1.403 . S
C649 C646 1.403 1_455 S
C649 C650 1.524 . S
C649 C653 1.400 . S
C650 H635 0.960 . S
C650 H636 0.960 . S
C650 H637 0.960 . S
C650 C649 1.524 . S
C651 C648 1.403 . S
C651 C652 1.392 1_655 S
C651 C655 1.495 . S
C652 C651 1.392 1_455 S
C652 C653 1.385 . S
C652 C654 1.478 . S
C653 H647 0.930 . S
C653 C649 1.400 . S
C653 C652 1.385 . S
C654 C652 1.478 . S
C654 C656 1.381 . S
C654 C660 1.383 . S
C655 C651 1.495 . S
C655 H661 0.959 . S
C655 H662 0.961 . S
C655 H663 0.960 . S
C656 C654 1.381 . S
C656 C657 1.394 . S
C656 H664 0.930 . S
C657 C656 1.394 . S
C657 C658 1.383 . S
C657 H665 0.929 . S
C658 C657 1.383 . S
C658 C659 1.377 . S
C659 H643 0.930 . S
C659 C658 1.377 . S
C659 C660 1.379 . S
C660 H644 0.931 . S
C660 C654 1.383 . S
C660 C659 1.379 . S
H661 C655 0.959 . S
H662 C655 0.961 . S
H663 C655 0.960 . S
H664 C656 0.930 . S
H665 C657 0.929 . S
H666 C674 0.929 . S
H667 C676 0.930 . S
H668 C678 0.930 . S
H669 C681 0.929 . S
H670 C684 0.930 . S
H671 C686 0.960 1_554 S
H672 C686 0.960 . S
H673 C686 0.960 . S
C674 H666 0.929 . S
C674 C675 1.377 . S
C674 C676 1.384 . S
C675 C674 1.377 . S
C675 C681 1.390 . S
C676 H667 0.930 . S
C676 C674 1.384 . S
C676 C677 1.372 . S
C677 C676 1.372 . S
C677 C678 1.400 . S
C677 C682 1.490 . S
C678 H668 0.930 . S
C678 C677 1.400 . S
C678 C681 1.386 . S
H679 C695 0.930 . S
H680 C696 0.931 . S
C681 H669 0.929 . S
C681 C675 1.390 . S
C681 C678 1.386 . S
C682 C677 1.490 . S
C682 C684 1.395 . S
C682 C685 1.403 . S
H683 C689 0.930 . S
C684 H670 0.930 . S
C684 C682 1.395 . S
C684 C687 1.412 . S
C685 C682 1.403 . S
C685 C686 1.524 . S
C685 C689 1.400 1_556 S
C686 H671 0.960 1_556 S
C686 H672 0.960 . S
C686 H673 0.960 . S
C686 C685 1.524 . S
C687 C684 1.412 . S
C687 C688 1.385 1_556 S
C687 C691 1.495 1_556 S
C688 C687 1.385 1_554 S
C688 C689 1.385 . S
C688 C690 1.478 . S
C689 H683 0.930 . S
C689 C685 1.400 1_554 S
C689 C688 1.385 . S
C690 C688 1.478 . S
C690 C692 1.381 . S
C690 C696 1.383 . S
C691 C687 1.495 1_554 S
C691 H697 0.951 1_554 S
C691 H698 0.970 . S
C691 H699 0.959 . S
C692 C690 1.381 . S
C692 C693 1.394 . S
C692 H700 0.930 . S
C693 C692 1.394 . S
C693 C694 1.383 . S
C693 H701 0.929 . S
C694 C693 1.383 . S
C694 C695 1.377 . S
C695 H679 0.930 . S
C695 C694 1.377 . S
C695 C696 1.379 . S
C696 H680 0.931 . S
C696 C690 1.383 . S
C696 C695 1.379 . S
H697 C691 0.951 1_556 S
H698 C691 0.970 . S
H699 C691 0.959 . S
H700 C692 0.930 . S
H701 C693 0.929 . S
H702 C710 0.929 . S
H703 C712 0.930 . S
H704 C714 0.930 . S
H705 C717 0.929 . S
H706 C720 0.930 . S
H707 C722 0.960 . S
H708 C722 0.960 . S
H709 C722 0.960 . S
C710 H702 0.929 . S
C710 C711 1.377 . S
C710 C712 1.384 . S
C711 C710 1.377 . S
C711 C717 1.390 . S
C712 H703 0.930 . S
C712 C710 1.384 . S
C712 C713 1.372 . S
C713 C712 1.372 . S
C713 C714 1.400 . S
C713 C718 1.490 . S
C714 H704 0.930 . S
C714 C713 1.400 . S
C714 C717 1.386 . S
H715 C731 0.930 . S
H716 C732 0.931 . S
C717 H705 0.929 . S
C717 C711 1.390 . S
C717 C714 1.386 . S
C718 C713 1.490 . S
C718 C720 1.395 1_545 S
C718 C721 1.403 . S
H719 C725 0.930 . S
C720 H706 0.930 . S
C720 C718 1.395 1_565 S
C720 C723 1.403 . S
C721 C718 1.403 . S
C721 C722 1.524 . S
C721 C725 1.400 . S
C722 H707 0.960 . S
C722 H708 0.960 . S
C722 H709 0.960 . S
C722 C721 1.524 . S
C723 C720 1.403 . S
C723 C724 1.392 . S
C723 C727 1.495 . S
C724 C723 1.392 . S
C724 C725 1.385 1_565 S
C724 C726 1.478 . S
C725 H719 0.930 . S
C725 C721 1.400 . S
C725 C724 1.385 1_545 S
C726 C724 1.478 . S
C726 C728 1.381 . S
C726 C732 1.383 . S
C727 C723 1.495 . S
C727 H733 0.959 . S
C727 H734 0.961 . S
C727 H735 0.960 . S
C728 C726 1.381 . S
C728 C729 1.394 . S
C728 H736 0.930 . S
C729 C728 1.394 . S
C729 C730 1.383 . S
C729 H737 0.929 . S
C730 C729 1.383 . S
C730 C731 1.377 . S
C731 H715 0.930 . S
C731 C730 1.377 . S
C731 C732 1.379 . S
C732 H716 0.931 . S
C732 C726 1.383 . S
C732 C731 1.379 . S
H733 C727 0.959 . S
H734 C727 0.961 . S
H735 C727 0.960 . S
H736 C728 0.930 . S
H737 C729 0.929 . S
C207 N80 1.023 . S
C226 C28 1.059 . S
C243 C61 1.066 . S
C262 N14 1.059 . S
C279 C94 1.064 . S
C298 N47 1.006 . S
C315 C127 1.067 . S
C334 N146 1.041 . S
C351 N179 1.030 . S
C370 C160 1.073 . S
C387 N113 1.037 . S
C406 C193 1.057 . S
C423 C149 0.497 . S
C442 C17 0.499 . S
C459 C182 0.494 . S
C478 C50 0.511 . S
C495 C116 0.495 . S
C514 C83 0.511 . S
C531 C107 1.791 . S
C550 C8 1.772 . S
C567 C140 1.794 . S
C586 C41 1.774 . S
C603 C74 1.795 . S
C622 C173 1.799 . S
C639 N137 2.155 . S
C658 N5 2.163 . S
C675 N38 2.158 . S
C694 N170 2.142 . S
C711 N104 2.155 . S
C730 N71 2.150 . S
