# Generated by pormake.
# Topology whd, (6)-cn, num edge types: 1
# Building blocks:
#     Node 0, Type 0, BuildingBlock: OJICUG_clean_sbu_0, # of connection points: 6
#     Node 1, Type 0, BuildingBlock: OJICUG_clean_sbu_0, # of connection points: 6
#     Node 2, Type 0, BuildingBlock: OJICUG_clean_sbu_0, # of connection points: 6
#     Node 3, Type 0, BuildingBlock: OJICUG_clean_sbu_0, # of connection points: 6
#     Node 4, Type 0, BuildingBlock: OJICUG_clean_sbu_0, # of connection points: 6
#     Node 5, Type 0, BuildingBlock: OJICUG_clean_sbu_0, # of connection points: 6
#     Node 6, Type 0, BuildingBlock: OJICUG_clean_sbu_0, # of connection points: 6
#     Node 7, Type 0, BuildingBlock: OJICUG_clean_sbu_0, # of connection points: 6
#     Node 8, Type 0, BuildingBlock: OJICUG_clean_sbu_0, # of connection points: 6
#     Node 9, Type 0, BuildingBlock: OJICUG_clean_sbu_0, # of connection points: 6
#     Node 10, Type 0, BuildingBlock: OJICUG_clean_sbu_0, # of connection points: 6
#     Node 11, Type 0, BuildingBlock: OJICUG_clean_sbu_0, # of connection points: 6
#     Node 12, Type 0, BuildingBlock: OJICUG_clean_sbu_0, # of connection points: 6
#     Node 13, Type 0, BuildingBlock: OJICUG_clean_sbu_0, # of connection points: 6
#     Node 14, Type 0, BuildingBlock: OJICUG_clean_sbu_0, # of connection points: 6
#     Node 15, Type 0, BuildingBlock: OJICUG_clean_sbu_0, # of connection points: 6
#     Edge 16, Type (0, 0), BuildingBlock: EZIPEK_clean_linker_0, # of connection points: 2
#     Edge 17, Type (0, 0), BuildingBlock: EZIPEK_clean_linker_0, # of connection points: 2
#     Edge 18, Type (0, 0), BuildingBlock: EZIPEK_clean_linker_0, # of connection points: 2
#     Edge 19, Type (0, 0), BuildingBlock: EZIPEK_clean_linker_0, # of connection points: 2
#     Edge 20, Type (0, 0), BuildingBlock: EZIPEK_clean_linker_0, # of connection points: 2
#     Edge 21, Type (0, 0), BuildingBlock: EZIPEK_clean_linker_0, # of connection points: 2
#     Edge 22, Type (0, 0), BuildingBlock: EZIPEK_clean_linker_0, # of connection points: 2
#     Edge 23, Type (0, 0), BuildingBlock: EZIPEK_clean_linker_0, # of connection points: 2
#     Edge 24, Type (0, 0), BuildingBlock: EZIPEK_clean_linker_0, # of connection points: 2
#     Edge 25, Type (0, 0), BuildingBlock: EZIPEK_clean_linker_0, # of connection points: 2
#     Edge 26, Type (0, 0), BuildingBlock: EZIPEK_clean_linker_0, # of connection points: 2
#     Edge 27, Type (0, 0), BuildingBlock: EZIPEK_clean_linker_0, # of connection points: 2
#     Edge 28, Type (0, 0), BuildingBlock: EZIPEK_clean_linker_0, # of connection points: 2
#     Edge 29, Type (0, 0), BuildingBlock: EZIPEK_clean_linker_0, # of connection points: 2
#     Edge 30, Type (0, 0), BuildingBlock: EZIPEK_clean_linker_0, # of connection points: 2
#     Edge 31, Type (0, 0), BuildingBlock: EZIPEK_clean_linker_0, # of connection points: 2
#     Edge 32, Type (0, 0), BuildingBlock: EZIPEK_clean_linker_0, # of connection points: 2
#     Edge 33, Type (0, 0), BuildingBlock: EZIPEK_clean_linker_0, # of connection points: 2
#     Edge 34, Type (0, 0), BuildingBlock: EZIPEK_clean_linker_0, # of connection points: 2
#     Edge 35, Type (0, 0), BuildingBlock: EZIPEK_clean_linker_0, # of connection points: 2
#     Edge 36, Type (0, 0), BuildingBlock: EZIPEK_clean_linker_0, # of connection points: 2
#     Edge 37, Type (0, 0), BuildingBlock: EZIPEK_clean_linker_0, # of connection points: 2
#     Edge 38, Type (0, 0), BuildingBlock: EZIPEK_clean_linker_0, # of connection points: 2
#     Edge 39, Type (0, 0), BuildingBlock: EZIPEK_clean_linker_0, # of connection points: 2
#     Edge 40, Type (0, 0), BuildingBlock: EZIPEK_clean_linker_0, # of connection points: 2
#     Edge 41, Type (0, 0), BuildingBlock: EZIPEK_clean_linker_0, # of connection points: 2
#     Edge 42, Type (0, 0), BuildingBlock: EZIPEK_clean_linker_0, # of connection points: 2
#     Edge 43, Type (0, 0), BuildingBlock: EZIPEK_clean_linker_0, # of connection points: 2
#     Edge 44, Type (0, 0), BuildingBlock: EZIPEK_clean_linker_0, # of connection points: 2
#     Edge 45, Type (0, 0), BuildingBlock: EZIPEK_clean_linker_0, # of connection points: 2
#     Edge 46, Type (0, 0), BuildingBlock: EZIPEK_clean_linker_0, # of connection points: 2
#     Edge 47, Type (0, 0), BuildingBlock: EZIPEK_clean_linker_0, # of connection points: 2
#     Edge 48, Type (0, 0), BuildingBlock: EZIPEK_clean_linker_0, # of connection points: 2
#     Edge 49, Type (0, 0), BuildingBlock: EZIPEK_clean_linker_0, # of connection points: 2
#     Edge 50, Type (0, 0), BuildingBlock: EZIPEK_clean_linker_0, # of connection points: 2
#     Edge 51, Type (0, 0), BuildingBlock: EZIPEK_clean_linker_0, # of connection points: 2
#     Edge 52, Type (0, 0), BuildingBlock: EZIPEK_clean_linker_0, # of connection points: 2
#     Edge 53, Type (0, 0), BuildingBlock: EZIPEK_clean_linker_0, # of connection points: 2
#     Edge 54, Type (0, 0), BuildingBlock: EZIPEK_clean_linker_0, # of connection points: 2
#     Edge 55, Type (0, 0), BuildingBlock: EZIPEK_clean_linker_0, # of connection points: 2
#     Edge 56, Type (0, 0), BuildingBlock: EZIPEK_clean_linker_0, # of connection points: 2
#     Edge 57, Type (0, 0), BuildingBlock: EZIPEK_clean_linker_0, # of connection points: 2
#     Edge 58, Type (0, 0), BuildingBlock: EZIPEK_clean_linker_0, # of connection points: 2
#     Edge 59, Type (0, 0), BuildingBlock: EZIPEK_clean_linker_0, # of connection points: 2
#     Edge 60, Type (0, 0), BuildingBlock: EZIPEK_clean_linker_0, # of connection points: 2
#     Edge 61, Type (0, 0), BuildingBlock: EZIPEK_clean_linker_0, # of connection points: 2
#     Edge 62, Type (0, 0), BuildingBlock: EZIPEK_clean_linker_0, # of connection points: 2
#     Edge 63, Type (0, 0), BuildingBlock: EZIPEK_clean_linker_0, # of connection points: 2
# Relax obj value: 0.256
# Max RMSD: 0.229
# Mean RMSD: 0.229
data_MOF--net-whd--node1-OJICUG_clean_sbu_0--edge1-EZIPEK_clean_linker_0
_symmetry_space_group_name_H-M    P1
_symmetry_Int_Tables_number       1
_symmetry_cell_setting            triclinic
loop_
_symmetry_equiv_pos_as_xyz
'x, y, z'
_cell_length_a     39.704435
_cell_length_b     39.508255
_cell_length_c     22.993144
_cell_angle_alpha  89.79514
_cell_angle_beta   89.944175
_cell_angle_gamma 89.790677
loop_
_atom_site_label
_atom_site_type_symbol
_atom_site_fract_x
_atom_site_fract_y
_atom_site_fract_z
_atom_type_partial_charge
Sc0 Sc 0.16088 0.33771 0.33081 0.0
Sc1 Sc 0.20922 0.40965 0.29229 0.0
Sc2 Sc 0.1377 0.41811 0.38139 0.0
O3 O 0.16946 0.38845 0.33516 0.0
C4 C 0.08639 0.36751 0.32339 0.0
C5 C 0.1775 0.35863 0.19914 0.0
C6 C 0.15443 0.46761 0.27627 0.0
C7 C 0.24044 0.33937 0.33147 0.0
C8 C 0.14448 0.35228 0.46345 0.0
C9 C 0.21057 0.44781 0.4123 0.0
O10 O 0.10781 0.34379 0.31874 0.0
O11 O 0.1937 0.3855 0.21186 0.0
O12 O 0.13429 0.45599 0.31426 0.0
O13 O 0.21271 0.32477 0.34141 0.0
O14 O 0.13716 0.38328 0.4543 0.0
O15 O 0.22642 0.4356 0.36902 0.0
O16 O 0.15444 0.3324 0.42354 0.0
O17 O 0.24292 0.36942 0.3131 0.0
O18 O 0.1792 0.44375 0.42118 0.0
O19 O 0.16557 0.33846 0.2372 0.0
O20 O 0.09335 0.39638 0.34383 0.0
O21 O 0.18289 0.45444 0.2661 0.0
Sc22 Sc 0.33874 0.82204 0.66015 0.0
Sc23 Sc 0.4063 0.7723 0.70704 0.0
Sc24 Sc 0.4208 0.84042 0.61089 0.0
O25 O 0.38869 0.81141 0.65865 0.0
C26 C 0.35633 0.84004 0.52869 0.0
C27 C 0.33726 0.74327 0.65767 0.0
C28 C 0.44568 0.76475 0.58655 0.0
C29 C 0.35231 0.80379 0.79308 0.0
C30 C 0.37378 0.894 0.67451 0.0
C31 C 0.466 0.82429 0.72195 0.0
O32 O 0.33606 0.83273 0.56922 0.0
O33 O 0.36491 0.74007 0.68479 0.0
O34 O 0.44252 0.79587 0.57276 0.0
O35 O 0.33274 0.81169 0.75167 0.0
O36 O 0.40114 0.88645 0.64857 0.0
O37 O 0.44854 0.79938 0.73824 0.0
O38 O 0.34935 0.87362 0.68132 0.0
O39 O 0.38128 0.79106 0.784 0.0
O40 O 0.45949 0.84122 0.67634 0.0
O41 O 0.32538 0.77136 0.64046 0.0
O42 O 0.38768 0.84394 0.53664 0.0
O43 O 0.43423 0.75186 0.63354 0.0
Sc44 Sc 0.81114 0.64251 0.33007 0.0
Sc45 Sc 0.76877 0.56771 0.29183 0.0
Sc46 Sc 0.83616 0.56525 0.39133 0.0
O47 O 0.80532 0.59173 0.33766 0.0
C48 C 0.88697 0.61627 0.3336 0.0
C49 C 0.79688 0.6214 0.19909 0.0
C50 C 0.82923 0.51556 0.28321 0.0
C51 C 0.73131 0.6339 0.33043 0.0
C52 C 0.81982 0.63155 0.46635 0.0
C53 C 0.76632 0.52882 0.4136 0.0
O54 O 0.86504 0.63929 0.3261 0.0
O55 O 0.77778 0.59698 0.21352 0.0
O56 O 0.84285 0.52509 0.33024 0.0
O57 O 0.75787 0.65167 0.33192 0.0
O58 O 0.83289 0.60248 0.45892 0.0
O59 O 0.75431 0.53595 0.36388 0.0
O60 O 0.81068 0.64966 0.42337 0.0
O61 O 0.73105 0.60245 0.32001 0.0
O62 O 0.79467 0.53939 0.43144 0.0
O63 O 0.81223 0.63935 0.2364 0.0
O64 O 0.88046 0.58743 0.35488 0.0
O65 O 0.80345 0.52975 0.26099 0.0
Sc66 Sc 0.63639 0.15164 0.65801 0.0
Sc67 Sc 0.56903 0.20167 0.70577 0.0
Sc68 Sc 0.55397 0.13356 0.6113 0.0
O69 O 0.58648 0.16256 0.65778 0.0
C70 C 0.61831 0.13357 0.52834 0.0
C71 C 0.63793 0.23115 0.65617 0.0
C72 C 0.52916 0.20841 0.58475 0.0
C73 C 0.62339 0.16863 0.79105 0.0
C74 C 0.60016 0.07977 0.67363 0.0
C75 C 0.50966 0.14986 0.72282 0.0
O76 O 0.63845 0.14446 0.56636 0.0
O77 O 0.60939 0.23465 0.68035 0.0
O78 O 0.53381 0.17772 0.57004 0.0
O79 O 0.64205 0.15879 0.74973 0.0
O80 O 0.57194 0.08825 0.65207 0.0
O81 O 0.52818 0.17358 0.74041 0.0
O82 O 0.62571 0.09913 0.67578 0.0
O83 O 0.5956 0.18392 0.78221 0.0
O84 O 0.51464 0.13466 0.6752 0.0
O85 O 0.65067 0.20279 0.64275 0.0
O86 O 0.58771 0.12695 0.53908 0.0
O87 O 0.53938 0.221 0.63275 0.0
Sc88 Sc 0.13136 0.56977 0.6024 0.0
Sc89 Sc 0.20016 0.57914 0.69779 0.0
Sc90 Sc 0.14919 0.64928 0.66179 0.0
O91 O 0.1604 0.59939 0.65362 0.0
C92 C 0.13609 0.63739 0.52665 0.0
C93 C 0.20653 0.54227 0.57762 0.0
C94 C 0.22813 0.65103 0.65975 0.0
C95 C 0.1464 0.52019 0.70728 0.0
C96 C 0.07653 0.61593 0.66393 0.0
C97 C 0.16664 0.62703 0.79192 0.0
O98 O 0.13267 0.60545 0.53114 0.0
O99 O 0.22073 0.55543 0.62152 0.0
O100 O 0.19993 0.66422 0.64749 0.0
O101 O 0.12664 0.53163 0.66851 0.0
O102 O 0.0972 0.639 0.67741 0.0
O103 O 0.18215 0.6 0.77839 0.0
O104 O 0.08448 0.59028 0.63381 0.0
O105 O 0.17442 0.5335 0.71969 0.0
O106 O 0.1553 0.64809 0.75488 0.0
O107 O 0.17515 0.54485 0.56689 0.0
O108 O 0.14179 0.65638 0.56991 0.0
O109 O 0.23174 0.62182 0.68169 0.0
Sc110 Sc 0.5619 0.83866 0.38446 0.0
Sc111 Sc 0.56873 0.76985 0.28871 0.0
Sc112 Sc 0.64143 0.8085 0.34105 0.0
O113 O 0.59053 0.80573 0.33854 0.0
C114 C 0.61648 0.88497 0.32391 0.0
C115 C 0.51435 0.82794 0.27551 0.0
C116 C 0.62732 0.79538 0.20682 0.0
C117 C 0.52897 0.76604 0.40861 0.0
C118 C 0.62433 0.83124 0.47017 0.0
C119 C 0.63081 0.73013 0.34434 0.0
O120 O 0.5877 0.88108 0.34728 0.0
O121 O 0.52769 0.80043 0.25966 0.0
O122 O 0.6475 0.79765 0.24942 0.0
O123 O 0.53493 0.79676 0.42218 0.0
O124 O 0.64412 0.81898 0.43248 0.0
O125 O 0.60585 0.73247 0.31032 0.0
O126 O 0.59417 0.83933 0.45886 0.0
O127 O 0.53939 0.75194 0.36203 0.0
O128 O 0.64614 0.75604 0.36316 0.0
O129 O 0.52457 0.84488 0.31849 0.0
O130 O 0.63856 0.86161 0.31922 0.0
O131 O 0.59646 0.7875 0.21354 0.0
Sc132 Sc 0.83542 0.41574 0.60779 0.0
Sc133 Sc 0.76712 0.40165 0.7035 0.0
Sc134 Sc 0.8222 0.33462 0.66644 0.0
O135 O 0.80821 0.38405 0.65921 0.0
C136 C 0.83557 0.34782 0.53237 0.0
C137 C 0.75917 0.43867 0.58166 0.0
C138 C 0.74288 0.32902 0.66298 0.0
C139 C 0.81775 0.46343 0.71504 0.0
C140 C 0.89308 0.37219 0.66775 0.0
C141 C 0.80177 0.35316 0.79677 0.0
O142 O 0.83818 0.37976 0.53746 0.0
O143 O 0.74636 0.4272 0.62836 0.0
O144 O 0.77206 0.31706 0.6541 0.0
O145 O 0.83603 0.45542 0.67183 0.0
O146 O 0.87408 0.34724 0.67898 0.0
O147 O 0.78379 0.37869 0.78353 0.0
O148 O 0.8832 0.39887 0.64188 0.0
O149 O 0.79196 0.44694 0.73073 0.0
O150 O 0.81674 0.33482 0.75952 0.0
O151 O 0.79032 0.43614 0.5691 0.0
O152 O 0.82925 0.32827 0.57477 0.0
O153 O 0.73719 0.35849 0.68228 0.0
Sc154 Sc 0.41578 0.1338 0.38677 0.0
Sc155 Sc 0.40561 0.20063 0.28683 0.0
Sc156 Sc 0.33493 0.15585 0.33464 0.0
O157 O 0.38545 0.16358 0.33663 0.0
C158 C 0.36703 0.0815 0.32572 0.0
C159 C 0.46267 0.14509 0.27576 0.0
C160 C 0.34981 0.17206 0.20134 0.0
C161 C 0.44473 0.20754 0.40829 0.0
C162 C 0.35013 0.13873 0.4664 0.0
C163 C 0.33828 0.23498 0.33446 0.0
O164 O 0.39485 0.08846 0.35025 0.0
O165 O 0.44557 0.16959 0.2562 0.0
O166 O 0.33024 0.16437 0.24278 0.0
O167 O 0.43865 0.17739 0.4247 0.0
O168 O 0.33052 0.14746 0.42583 0.0
O169 O 0.3667 0.23601 0.30917 0.0
O170 O 0.38116 0.13244 0.45899 0.0
O171 O 0.43519 0.2198 0.35951 0.0
O172 O 0.32387 0.20788 0.35034 0.0
O173 O 0.45584 0.13048 0.32354 0.0
O174 O 0.3433 0.10285 0.31768 0.0
O175 O 0.37911 0.18384 0.2101 0.0
Sc176 Sc 0.66355 0.83362 0.83589 0.0
Sc177 Sc 0.69922 0.91142 0.79391 0.0
Sc178 Sc 0.63749 0.90878 0.90424 0.0
O179 O 0.6669 0.88461 0.84506 0.0
C180 C 0.58706 0.85737 0.84531 0.0
C181 C 0.66959 0.85862 0.70429 0.0
C182 C 0.63693 0.96147 0.79918 0.0
C183 C 0.7417 0.84571 0.82425 0.0
C184 C 0.65351 0.84011 0.97295 0.0
C185 C 0.7089 0.94555 0.91662 0.0
O186 O 0.60999 0.83681 0.82963 0.0
O187 O 0.68147 0.88759 0.7159 0.0
O188 O 0.62418 0.94891 0.84498 0.0
O189 O 0.71694 0.82735 0.83914 0.0
O190 O 0.64557 0.87129 0.97113 0.0
O191 O 0.71959 0.93827 0.86624 0.0
O192 O 0.66164 0.82334 0.92808 0.0
O193 O 0.73889 0.87587 0.80632 0.0
O194 O 0.68029 0.93648 0.93636 0.0
O195 O 0.66411 0.83616 0.74266 0.0
O196 O 0.59258 0.88362 0.87553 0.0
O197 O 0.66387 0.95068 0.77632 0.0
Sc198 Sc 0.83503 0.31617 0.16501 0.0
Sc199 Sc 0.90819 0.27375 0.20778 0.0
Sc200 Sc 0.91306 0.34048 0.10838 0.0
O201 O 0.88549 0.30985 0.1595 0.0
C202 C 0.84854 0.33229 0.03117 0.0
C203 C 0.83935 0.23853 0.169 0.0
C204 C 0.94601 0.26703 0.08897 0.0
C205 C 0.85564 0.30308 0.29604 0.0
C206 C 0.862 0.39105 0.16998 0.0
C207 C 0.96192 0.33268 0.21412 0.0
O208 O 0.82887 0.32924 0.07441 0.0
O209 O 0.86719 0.23896 0.19624 0.0
O210 O 0.94225 0.29838 0.07768 0.0
O211 O 0.83313 0.30404 0.25689 0.0
O212 O 0.88696 0.38557 0.13655 0.0
O213 O 0.9519 0.30318 0.22665 0.0
O214 O 0.84175 0.36817 0.18669 0.0
O215 O 0.88604 0.29525 0.2848 0.0
O216 O 0.94883 0.35098 0.17492 0.0
O217 O 0.82625 0.2644 0.14509 0.0
O218 O 0.88032 0.33296 0.03605 0.0
O219 O 0.93284 0.2522 0.13268 0.0
Sc220 Sc 0.31448 0.13991 0.82868 0.0
Sc221 Sc 0.27158 0.06494 0.7941 0.0
Sc222 Sc 0.33588 0.06459 0.90035 0.0
O223 O 0.30716 0.0898 0.8414 0.0
C224 C 0.38947 0.1128 0.84257 0.0
C225 C 0.30282 0.1147 0.6995 0.0
C226 C 0.33296 0.01317 0.79397 0.0
C227 C 0.23456 0.13286 0.82365 0.0
C228 C 0.32235 0.13468 0.96557 0.0
C229 C 0.26473 0.02944 0.91739 0.0
O230 O 0.36779 0.13482 0.82786 0.0
O231 O 0.28266 0.0914 0.71432 0.0
O232 O 0.34493 0.02337 0.84197 0.0
O233 O 0.26154 0.14992 0.82625 0.0
O234 O 0.33076 0.10362 0.96431 0.0
O235 O 0.25435 0.0353 0.86631 0.0
O236 O 0.31372 0.15137 0.92057 0.0
O237 O 0.23351 0.10115 0.81569 0.0
O238 O 0.29267 0.04007 0.93689 0.0
O239 O 0.31754 0.13339 0.73626 0.0
O240 O 0.38219 0.0859 0.86986 0.0
O241 O 0.30736 0.02638 0.76938 0.0
Sc242 Sc 0.13636 0.66968 0.15804 0.0
Sc243 Sc 0.06239 0.70849 0.20431 0.0
Sc244 Sc 0.05846 0.63927 0.11096 0.0
O245 O 0.08563 0.67241 0.15721 0.0
C246 C 0.12025 0.649 0.02694 0.0
C247 C 0.12636 0.74743 0.15462 0.0
C248 C 0.02307 0.71102 0.08704 0.0
C249 C 0.11786 0.6827 0.29017 0.0
C250 C 0.11487 0.59351 0.17001 0.0
C251 C 0.01069 0.6479 0.21805 0.0
O252 O 0.14074 0.65492 0.068 0.0
O253 O 0.1014 0.74496 0.18877 0.0
O254 O 0.02687 0.67936 0.07916 0.0
O255 O 0.13971 0.68292 0.24963 0.0
O256 O 0.08811 0.59662 0.14006 0.0
O257 O 0.01981 0.67809 0.22699 0.0
O258 O 0.13419 0.61782 0.18295 0.0
O259 O 0.08692 0.68923 0.28092 0.0
O260 O 0.02466 0.62864 0.18124 0.0
O261 O 0.14046 0.72161 0.13239 0.0
O262 O 0.08877 0.64643 0.03493 0.0
O263 O 0.03646 0.72744 0.12853 0.0
Sc264 Sc 0.64007 0.06045 0.10278 0.0
Sc265 Sc 0.70558 0.06667 0.20553 0.0
Sc266 Sc 0.65981 0.13917 0.16375 0.0
O267 O 0.66863 0.08876 0.15689 0.0
C268 C 0.64852 0.12848 0.02857 0.0
C269 C 0.7158 0.03306 0.08365 0.0
C270 C 0.73851 0.13753 0.17373 0.0
C271 C 0.65052 0.00857 0.20627 0.0
C272 C 0.58558 0.10862 0.15961 0.0
C273 C 0.66905 0.11464 0.29523 0.0
O274 O 0.64266 0.09699 0.03351 0.0
O275 O 0.72843 0.04392 0.13072 0.0
O276 O 0.71169 0.15176 0.15665 0.0
O277 O 0.63287 0.02066 0.16524 0.0
O278 O 0.6069 0.13136 0.17189 0.0
O279 O 0.68391 0.08701 0.28329 0.0
O280 O 0.59313 0.08162 0.13274 0.0
O281 O 0.67786 0.02158 0.22312 0.0
O282 O 0.66195 0.13711 0.25735 0.0
O283 O 0.68491 0.0365 0.06952 0.0
O284 O 0.65622 0.14707 0.07137 0.0
O285 O 0.73966 0.1082 0.19598 0.0
Sc286 Sc 0.06623 0.34452 0.88244 0.0
Sc287 Sc 0.06994 0.27355 0.79218 0.0
Sc288 Sc 0.14459 0.31718 0.83033 0.0
O289 O 0.09375 0.31146 0.83559 0.0
C290 C 0.11898 0.39355 0.82272 0.0
C291 C 0.01567 0.33224 0.77858 0.0
C292 C 0.12097 0.30392 0.69873 0.0
C293 C 0.03412 0.27191 0.91372 0.0
C294 C 0.13138 0.33383 0.9636 0.0
C295 C 0.13872 0.23768 0.82662 0.0
O296 O 0.09032 0.38781 0.84483 0.0
O297 O 0.02546 0.3021 0.77069 0.0
O298 O 0.1428 0.31253 0.73653 0.0
O299 O 0.03827 0.30356 0.92183 0.0
O300 O 0.15068 0.3234 0.92317 0.0
O301 O 0.1091 0.23763 0.80662 0.0
O302 O 0.10078 0.34237 0.9551 0.0
O303 O 0.04609 0.25582 0.8705 0.0
O304 O 0.15431 0.26424 0.84118 0.0
O305 O 0.02996 0.35174 0.81441 0.0
O306 O 0.14169 0.37104 0.8179 0.0
O307 O 0.09282 0.29023 0.71162 0.0
Sc308 Sc 0.33658 0.90788 0.10675 0.0
Sc309 Sc 0.27063 0.90417 0.20912 0.0
Sc310 Sc 0.31311 0.82951 0.16663 0.0
O311 O 0.30665 0.88052 0.16054 0.0
C312 C 0.32659 0.8408 0.03166 0.0
C313 C 0.26386 0.94095 0.08747 0.0
C314 C 0.23384 0.83663 0.17006 0.0
C315 C 0.32932 0.95824 0.21374 0.0
C316 C 0.3882 0.85715 0.16556 0.0
C317 C 0.29944 0.85033 0.29953 0.0
O318 O 0.33354 0.87194 0.0372 0.0
O319 O 0.25164 0.93228 0.13625 0.0
O320 O 0.26033 0.81996 0.15812 0.0
O321 O 0.34433 0.94732 0.16888 0.0
O322 O 0.36636 0.83465 0.17669 0.0
O323 O 0.2862 0.87874 0.2872 0.0
O324 O 0.38166 0.88496 0.14012 0.0
O325 O 0.30258 0.94525 0.23383 0.0
O326 O 0.30994 0.83045 0.26013 0.0
O327 O 0.29359 0.93361 0.07079 0.0
O328 O 0.31782 0.82206 0.07398 0.0
O329 O 0.2339 0.86655 0.18973 0.0
Sc330 Sc 0.90004 0.63574 0.87922 0.0
Sc331 Sc 0.89952 0.70405 0.78427 0.0
Sc332 Sc 0.82392 0.66905 0.83353 0.0
O333 O 0.87439 0.67031 0.83307 0.0
C334 C 0.84459 0.59199 0.82199 0.0
C335 C 0.94843 0.64438 0.77013 0.0
C336 C 0.84071 0.68062 0.70005 0.0
C337 C 0.93842 0.70198 0.90674 0.0
C338 C 0.8364 0.65042 0.96165 0.0
C339 C 0.84023 0.74812 0.82839 0.0
O340 O 0.876 0.59652 0.83007 0.0
O341 O 0.92901 0.66522 0.74536 0.0
O342 O 0.82344 0.66695 0.74028 0.0
O343 O 0.92409 0.67537 0.92593 0.0
O344 O 0.82157 0.67054 0.92684 0.0
O345 O 0.8713 0.74538 0.81735 0.0
O346 O 0.86191 0.6328 0.94679 0.0
O347 O 0.93484 0.71313 0.85486 0.0
O348 O 0.82007 0.72327 0.83157 0.0
O349 O 0.94325 0.6339 0.82158 0.0
O350 O 0.82254 0.61412 0.83535 0.0
O351 O 0.86693 0.69815 0.7095 0.0
C352 C 0.14868 0.50429 0.18593 0.0
C353 C 0.14574 0.50009 0.24741 0.0
C354 C 0.11851 0.55545 0.25525 0.0
C355 C 0.12314 0.56038 0.19486 0.0
N356 N 0.1468 0.54278 0.10339 0.0
N357 N 0.13861 0.5268 0.34123 0.0
C358 C 0.13929 0.53568 0.16024 0.0
C359 C 0.13357 0.52708 0.28236 0.0
N360 N 0.15989 0.47838 0.15178 0.0
N361 N 0.09944 0.57776 0.28668 0.0
H362 H 0.1521 0.50778 0.3626 0.0
H363 H 0.13318 0.54742 0.36781 0.0
H364 H 0.08803 0.59909 0.26823 0.0
H365 H 0.09254 0.57351 0.32983 0.0
H366 H 0.15773 0.47827 0.10666 0.0
H367 H 0.17016 0.45614 0.16813 0.0
H368 H 0.16226 0.52766 0.07763 0.0
H369 H 0.13944 0.56519 0.0828 0.0
C370 C 0.51588 0.80795 0.78337 0.0
C371 C 0.49535 0.83362 0.758 0.0
C372 C 0.53457 0.87648 0.79248 0.0
C373 C 0.55286 0.851 0.82297 0.0
N374 N 0.55342 0.7944 0.86244 0.0
N375 N 0.47977 0.89298 0.75689 0.0
C376 C 0.54089 0.81737 0.82356 0.0
C377 C 0.5029 0.86817 0.76831 0.0
N378 N 0.51332 0.77491 0.7667 0.0
N379 N 0.54794 0.90782 0.78282 0.0
H380 H 0.45532 0.88788 0.74299 0.0
H381 H 0.48362 0.91821 0.7682 0.0
H382 H 0.57194 0.91482 0.79609 0.0
H383 H 0.53641 0.92569 0.75585 0.0
H384 H 0.53005 0.75622 0.78087 0.0
H385 H 0.49748 0.7668 0.73362 0.0
H386 H 0.54357 0.77012 0.86725 0.0
H387 H 0.57076 0.80118 0.89429 0.0
C388 C 0.85557 0.45456 0.16562 0.0
C389 C 0.85904 0.42429 0.19828 0.0
C390 C 0.84532 0.45424 0.28765 0.0
C391 C 0.84261 0.4848 0.25534 0.0
N392 N 0.85842 0.51565 0.16911 0.0
N393 N 0.87126 0.39898 0.29169 0.0
C394 C 0.85177 0.48554 0.19582 0.0
C395 C 0.85844 0.42528 0.25984 0.0
N396 N 0.85454 0.45378 0.10632 0.0
N397 N 0.83385 0.45211 0.34364 0.0
H398 H 0.88207 0.37765 0.27251 0.0
H399 H 0.87423 0.40001 0.3367 0.0
H400 H 0.82239 0.47215 0.36543 0.0
H401 H 0.83284 0.42935 0.36663 0.0
H402 H 0.8488 0.47503 0.08114 0.0
H403 H 0.85666 0.43143 0.08269 0.0
H404 H 0.86809 0.51733 0.12703 0.0
H405 H 0.85802 0.53852 0.19168 0.0
C406 C 0.44266 0.09473 0.79113 0.0
C407 C 0.42436 0.11905 0.8239 0.0
C408 C 0.46143 0.16367 0.78956 0.0
C409 C 0.48132 0.13917 0.76008 0.0
N410 N 0.49712 0.08003 0.75201 0.0
N411 N 0.42436 0.17342 0.87103 0.0
C412 C 0.47402 0.1042 0.76696 0.0
C413 C 0.43669 0.15242 0.82903 0.0
N414 N 0.42962 0.06352 0.77946 0.0
N415 N 0.46411 0.19741 0.77717 0.0
H416 H 0.40701 0.1651 0.90201 0.0
H417 H 0.43431 0.19735 0.87896 0.0
H418 H 0.47949 0.20701 0.74439 0.0
H419 H 0.44785 0.21549 0.79467 0.0
H420 H 0.44094 0.04679 0.75033 0.0
H421 H 0.40624 0.05531 0.79411 0.0
H422 H 0.49365 0.05439 0.76097 0.0
H423 H 0.52126 0.08586 0.73738 0.0
C424 C 0.13167 0.48798 0.79749 0.0
C425 C 0.13777 0.48829 0.73665 0.0
C426 C 0.13164 0.42685 0.73259 0.0
C427 C 0.1245 0.42649 0.79335 0.0
N428 N 0.11208 0.45691 0.88185 0.0
N429 N 0.14141 0.45926 0.64458 0.0
C430 C 0.12271 0.45714 0.82527 0.0
C431 C 0.13707 0.45808 0.7037 0.0
N432 N 0.13525 0.51707 0.82894 0.0
N433 N 0.13338 0.39717 0.7024 0.0
H434 H 0.14856 0.48099 0.62199 0.0
H435 H 0.13659 0.43911 0.61685 0.0
H436 H 0.12486 0.37435 0.71922 0.0
H437 H 0.14399 0.39474 0.66123 0.0
H438 H 0.13526 0.51794 0.87417 0.0
H439 H 0.14056 0.54039 0.8099 0.0
H440 H 0.10632 0.47868 0.90526 0.0
H441 H 0.10653 0.43487 0.90467 0.0
C442 C 0.48231 0.84504 0.18652 0.0
C443 C 0.48286 0.83839 0.24719 0.0
C444 C 0.42292 0.85119 0.25417 0.0
C445 C 0.42137 0.85299 0.19267 0.0
N446 N 0.44837 0.8488 0.09901 0.0
N447 N 0.45248 0.82848 0.33708 0.0
C448 C 0.45077 0.84939 0.15829 0.0
C449 C 0.45289 0.8398 0.28076 0.0
N450 N 0.51186 0.84793 0.15639 0.0
N451 N 0.39598 0.86111 0.28724 0.0
H452 H 0.47361 0.8188 0.35832 0.0
H453 H 0.43037 0.82549 0.36097 0.0
H454 H 0.37371 0.8706 0.26935 0.0
H455 H 0.397 0.86331 0.33236 0.0
H456 H 0.51317 0.85589 0.11323 0.0
H457 H 0.5354 0.84522 0.17608 0.0
H458 H 0.46844 0.84262 0.0718 0.0
H459 H 0.4256 0.85208 0.07705 0.0
C460 C 0.81285 0.55727 0.74781 0.0
C461 C 0.83345 0.5589 0.79862 0.0
C462 C 0.84301 0.49766 0.79507 0.0
C463 C 0.82368 0.49621 0.74348 0.0
N464 N 0.78929 0.52276 0.67033 0.0
N465 N 0.8591 0.53 0.87985 0.0
C466 C 0.80809 0.52552 0.72001 0.0
C467 C 0.84601 0.52885 0.82486 0.0
N468 N 0.79817 0.58598 0.72586 0.0
N469 N 0.85932 0.46933 0.81448 0.0
H470 H 0.86003 0.55222 0.90419 0.0
H471 H 0.86576 0.50862 0.90385 0.0
H472 H 0.85697 0.4461 0.79383 0.0
H473 H 0.87698 0.46927 0.84792 0.0
H474 H 0.78307 0.5872 0.68911 0.0
H475 H 0.80047 0.60966 0.7444 0.0
H476 H 0.77613 0.54234 0.65042 0.0
H477 H 0.78679 0.50018 0.6475 0.0
C478 C 0.53749 0.14761 0.17341 0.0
C479 C 0.55069 0.11456 0.17962 0.0
C480 C 0.50109 0.09929 0.23693 0.0
C481 C 0.49251 0.13414 0.24173 0.0
N482 N 0.50961 0.19241 0.22458 0.0
N483 N 0.54711 0.05969 0.22711 0.0
C484 C 0.51249 0.15869 0.21246 0.0
C485 C 0.53302 0.09032 0.2137 0.0
N486 N 0.54907 0.16854 0.13054 0.0
N487 N 0.47866 0.07474 0.25247 0.0
H488 H 0.571 0.05224 0.21344 0.0
H489 H 0.53617 0.04296 0.25672 0.0
H490 H 0.45409 0.0801 0.26566 0.0
H491 H 0.48319 0.04908 0.24528 0.0
H492 H 0.53841 0.19221 0.12205 0.0
H493 H 0.56639 0.16032 0.09948 0.0
H494 H 0.52583 0.21046 0.20698 0.0
H495 H 0.49437 0.20193 0.25758 0.0
C496 C 0.61341 0.02057 0.79917 0.0
C497 C 0.61979 -0.01023 0.7695 0.0
C498 C 0.60792 0.01695 0.67591 0.0
C499 C 0.60219 0.04766 0.70564 0.0
N500 N 0.58773 0.07619 0.79483 0.0
N501 N 0.61252 0.95589 0.68331 0.0
C502 C 0.60084 0.04854 0.76717 0.0
C503 C 0.61354 0.98707 0.70887 0.0
N504 N 0.62167 0.02407 0.85657 0.0
N505 N 0.60924 0.0166 0.61653 0.0
H506 H 0.61549 0.93346 0.70694 0.0
H507 H 0.60538 0.95211 0.64026 0.0
H508 H 0.60428 0.03803 0.59122 0.0
H509 H 0.61712 -0.00432 0.59262 0.0
H510 H 0.62069 0.04713 0.87835 0.0
H511 H 0.63219 0.00474 0.8816 0.0
H512 H 0.58306 0.07683 0.83941 0.0
H513 H 0.57896 0.0975 0.77247 0.0
C514 C 0.02299 0.36522 0.32665 0.0
C515 C 0.05356 0.36249 0.29489 0.0
C516 C 0.02348 0.34093 0.21018 0.0
C517 C -0.00705 0.34441 0.24126 0.0
N518 N 0.96182 0.36436 0.32436 0.0
N519 N 0.08179 0.35684 0.20228 0.0
C520 C -0.00788 0.35799 0.29817 0.0
C521 C 0.05345 0.353 0.23537 0.0
N522 N 0.02359 0.37338 0.38433 0.0
N523 N 0.02402 0.32507 0.15733 0.0
H524 H 0.10403 0.36671 0.21886 0.0
H525 H 0.08231 0.35364 0.15735 0.0
H526 H 0.00237 0.31666 0.1363 0.0
H527 H 0.04614 0.31785 0.13627 0.0
H528 H 0.00275 0.37168 0.41167 0.0
H529 H 0.04549 0.38036 0.40587 0.0
H530 H 0.95923 0.37748 0.36329 0.0
H531 H 0.93884 0.35851 0.30496 0.0
C532 C 0.36906 0.95749 0.67604 0.0
C533 C 0.37141 0.92626 0.706 0.0
C534 C 0.35233 0.95267 0.79597 0.0
C535 C 0.34938 0.98395 0.76586 0.0
N536 N 0.36813 0.01846 0.68559 0.0
N537 N 0.37869 0.89731 0.79754 0.0
C538 C 0.36183 0.98716 0.7083 0.0
C539 C 0.36754 0.92495 0.76719 0.0
N540 N 0.37228 0.95872 0.61695 0.0
N541 N 0.33907 0.94877 0.85049 0.0
H542 H 0.39037 0.87676 0.77729 0.0
H543 H 0.37928 0.89627 0.84282 0.0
H544 H 0.3261 0.96788 0.8723 0.0
H545 H 0.3385 0.92564 0.87233 0.0
H546 H 0.36715 0.98046 0.59265 0.0
H547 H 0.37799 0.93744 0.59205 0.0
H548 H 0.38029 0.02208 0.64587 0.0
H549 H 0.36434 0.04062 0.70936 0.0
C550 C 0.98016 0.63219 0.30911 0.0
C551 C 0.98015 0.63611 0.24774 0.0
C552 C 0.92086 0.62042 0.24358 0.0
C553 C 0.91972 0.621 0.3052 0.0
N554 N 0.94688 0.62913 0.39767 0.0
N555 N 0.94961 0.63935 0.1569 0.0
C556 C 0.94905 0.6271 0.33845 0.0
C557 C 0.95034 0.63145 0.21489 0.0
N558 N 0.00995 0.63272 0.33889 0.0
N559 N 0.89398 0.60861 0.21254 0.0
H560 H 0.97058 0.64785 0.13386 0.0
H561 H 0.92747 0.64035 0.13264 0.0
H562 H 0.87195 0.59982 0.23209 0.0
H563 H 0.89473 0.6044 0.16785 0.0
H564 H 0.01207 0.62695 0.38294 0.0
H565 H 0.03315 0.63624 0.31838 0.0
H566 H 0.96658 0.63709 0.42407 0.0
H567 H 0.92449 0.62485 0.4203 0.0
C568 C 0.635 0.97778 0.29745 0.0
C569 C 0.6391 0.97763 0.23606 0.0
C570 C 0.62179 0.9185 0.2329 0.0
C571 C 0.62305 0.91728 0.29443 0.0
N572 N 0.63352 0.94452 0.38624 0.0
N573 N 0.64233 0.94611 0.14613 0.0
C574 C 0.63031 0.94661 0.32715 0.0
C575 C 0.63393 0.94758 0.20377 0.0
N576 N 0.6344 0.00777 0.32697 0.0
N577 N 0.60812 0.8923 0.20234 0.0
H578 H 0.65247 0.9665 0.12324 0.0
H579 H 0.64234 0.92363 0.12251 0.0
H580 H 0.59868 0.87054 0.22228 0.0
H581 H 0.60358 0.89347 0.15774 0.0
H582 H 0.62841 0.00963 0.37095 0.0
H583 H 0.63657 0.03121 0.3063 0.0
H584 H 0.64235 0.96433 0.41172 0.0
H585 H 0.62975 0.92207 0.40938 0.0
C586 C 0.93699 0.38299 0.74138 0.0
C587 C 0.9283 0.36937 0.68703 0.0
C588 C 0.98069 0.33664 0.68623 0.0
C589 C 0.98577 0.34504 0.74605 0.0
N590 N 0.96245 0.37025 0.83363 0.0
N591 N 0.94149 0.33406 0.6054 0.0
C592 C 0.96246 0.36696 0.77445 0.0
C593 C 0.95017 0.34652 0.65863 0.0
N594 N 0.92064 0.41094 0.76173 0.0
N595 N 0.00509 0.32032 0.65499 0.0
H596 H 0.92105 0.34362 0.58195 0.0
H597 H 0.95368 0.31373 0.58568 0.0
H598 H 0.02789 0.31229 0.67232 0.0
H599 H 0.00406 0.31729 0.61006 0.0
H600 H 0.92826 0.42371 0.79907 0.0
H601 H 0.90205 0.4233 0.73762 0.0
H602 H 0.94419 0.3841 0.85594 0.0
H603 H 0.97759 0.35569 0.86107 0.0
C604 C 0.35821 0.01858 0.33157 0.0
C605 C 0.36343 0.04821 0.29794 0.0
C606 C 0.34769 0.01863 0.20933 0.0
C607 C 0.34279 -0.01137 0.24239 0.0
N608 N 0.35133 0.95756 0.33186 0.0
N609 N 0.37531 0.07299 0.20432 0.0
C610 C 0.35043 0.98781 0.30275 0.0
C611 C 0.36214 0.04708 0.23655 0.0
N612 N 0.35999 0.02004 0.39082 0.0
N613 N 0.33663 0.02083 0.15309 0.0
H614 H 0.38655 0.09411 0.22323 0.0
H615 H 0.37791 0.07198 0.15925 0.0
H616 H 0.32402 0.00131 0.13201 0.0
H617 H 0.33694 0.04327 0.12917 0.0
H618 H 0.35226 0.00047 0.41814 0.0
H619 H 0.368 0.04157 0.4128 0.0
H620 H 0.35965 0.95496 0.37457 0.0
H621 H 0.34666 0.93445 0.31165 0.0
C622 C 0.02582 0.65191 0.67516 0.0
C623 C 0.04147 0.62017 0.68405 0.0
C624 C -0.00763 0.60159 0.73992 0.0
C625 C 0.98011 0.63541 0.73994 0.0
N626 N -0.00843 0.69472 0.71958 0.0
N627 N 0.04191 0.566 0.7337 0.0
C628 C -0.00153 0.66119 0.71069 0.0
C629 C 0.02536 0.59509 0.71858 0.0
N630 N 0.03694 0.67315 0.6324 0.0
N631 N 0.9724 0.57563 0.75854 0.0
H632 H 0.06644 0.56052 0.72052 0.0
H633 H 0.03233 0.54876 0.76383 0.0
H634 H 0.94757 0.5792 0.77205 0.0
H635 H 0.97933 0.55027 0.75453 0.0
H636 H 0.02449 0.69555 0.6213 0.0
H637 H 0.05604 0.66616 0.60376 0.0
H638 H 0.00655 0.71401 0.70261 0.0
H639 H 0.97388 0.70342 0.74951 0.0
C640 C 0.2267 0.48407 0.55658 0.0
C641 C 0.22576 0.51876 0.54073 0.0
C642 C 0.23239 0.50466 0.43842 0.0
C643 C 0.22801 0.47011 0.45344 0.0
N644 N 0.23256 0.4257 0.52426 0.0
N645 N 0.24112 0.56207 0.47293 0.0
C646 C 0.22968 0.45945 0.51207 0.0
C647 C 0.23353 0.52899 0.48354 0.0
N648 N 0.22221 0.47495 0.61342 0.0
N649 N 0.23235 0.51434 0.38133 0.0
H650 H 0.24194 0.57981 0.50646 0.0
H651 H 0.24959 0.57101 0.43286 0.0
H652 H 0.23246 0.49692 0.34737 0.0
H653 H 0.23102 0.53947 0.36771 0.0
H654 H 0.21883 0.45013 0.62748 0.0
H655 H 0.22111 0.49273 0.6468 0.0
H656 H 0.23558 0.41586 0.56598 0.0
H657 H 0.2346 0.40769 0.49127 0.0
C658 C 0.50053 0.74066 0.55501 0.0
C659 C 0.46548 0.74386 0.54574 0.0
C660 C 0.47355 0.74284 0.44072 0.0
C661 C 0.50855 0.7465 0.45034 0.0
N662 N 0.55618 0.73508 0.51135 0.0
N663 N 0.41862 0.73215 0.48406 0.0
C664 C 0.52233 0.7403 0.50602 0.0
C665 C 0.45204 0.73912 0.48965 0.0
N666 N 0.51268 0.74038 0.61044 0.0
N667 N 0.46089 0.74563 0.38574 0.0
H668 H 0.40305 0.73003 0.52053 0.0
H669 H 0.40737 0.72563 0.44481 0.0
H670 H 0.4764 0.74767 0.34925 0.0
H671 H 0.43526 0.74674 0.37647 0.0
H672 H 0.53811 0.74195 0.62092 0.0
H673 H 0.49657 0.73853 0.64612 0.0
H674 H 0.568 0.72867 0.55025 0.0
H675 H 0.57204 0.73481 0.47506 0.0
C676 C 0.73696 0.44783 0.48331 0.0
C677 C 0.73836 0.45881 0.54115 0.0
C678 C 0.73862 0.51755 0.50907 0.0
C679 C 0.74737 0.506 0.45258 0.0
N680 N 0.75042 0.4601 0.38301 0.0
N681 N 0.72286 0.50213 0.60827 0.0
C682 C 0.74389 0.47121 0.43808 0.0
C683 C 0.73306 0.49325 0.55378 0.0
N684 N 0.72904 0.41496 0.47262 0.0
N685 N 0.73762 0.5515 0.52004 0.0
H686 H 0.71847 0.48391 0.64035 0.0
H687 H 0.71644 0.52667 0.62035 0.0
H688 H 0.74019 0.56951 0.48698 0.0
H689 H 0.73469 0.56183 0.5613 0.0
H690 H 0.72352 0.40591 0.43123 0.0
H691 H 0.72444 0.39804 0.50672 0.0
H692 H 0.75241 0.43456 0.37234 0.0
H693 H 0.75539 0.47631 0.34827 0.0
C694 C 0.45166 0.23307 0.5054 0.0
C695 C 0.46497 0.22805 0.44901 0.0
C696 C 0.52205 0.23363 0.48725 0.0
C697 C 0.50886 0.2289 0.54378 0.0
N698 N 0.4619 0.23104 0.60961 0.0
N699 N 0.51191 0.23072 0.38314 0.0
C700 C 0.47381 0.232 0.55392 0.0
C701 C 0.49995 0.23173 0.43875 0.0
N702 N 0.41773 0.23728 0.51178 0.0
N703 N 0.55588 0.23836 0.48078 0.0
H704 H 0.49584 0.23108 0.34735 0.0
H705 H 0.53733 0.22943 0.37234 0.0
H706 H 0.57188 0.23947 0.51676 0.0
H707 H 0.5676 0.24348 0.44125 0.0
H708 H 0.40592 0.24258 0.55114 0.0
H709 H 0.40169 0.23798 0.4758 0.0
H710 H 0.43651 0.22939 0.62045 0.0
H711 H 0.47797 0.2316 0.64541 0.0
C712 C 0.73814 0.97689 0.05739 0.0
C713 C 0.73637 0.01192 0.04524 0.0
C714 C 0.73453 0.0015 0.94143 0.0
C715 C 0.72989 0.96672 0.95438 0.0
N716 N 0.7441 0.92045 0.01741 0.0
N717 N 0.75035 0.05657 0.97946 0.0
C718 C 0.73776 0.9541 0.01018 0.0
C719 C 0.74108 0.02379 0.9881 0.0
N720 N 0.73692 0.96561 0.1135 0.0
N721 N 0.72988 0.01353 0.88629 0.0
H722 H 0.75445 0.07274 0.01458 0.0
H723 H 0.7569 0.06633 0.93887 0.0
H724 H 0.72544 -0.00218 0.85087 0.0
H725 H 0.72949 0.03921 0.87601 0.0
H726 H 0.73375 0.94024 0.12469 0.0
H727 H 0.73813 0.98212 0.14874 0.0
H728 H 0.7527 0.91008 0.05639 0.0
H729 H 0.74418 0.90392 0.98205 0.0
C730 C 0.0026 0.24717 0.06118 0.0
C731 C 0.96782 0.2483 0.04852 0.0
C732 C 0.97952 0.24646 0.9443 0.0
C733 C 0.01366 0.25373 0.9572 0.0
N734 N 0.05973 0.25459 0.02489 0.0
N735 N 0.92228 0.24096 0.98183 0.0
C736 C 0.02598 0.25117 0.01488 0.0
C737 C 0.95611 0.2443 0.99098 0.0
N738 N 0.0127 0.24392 0.11767 0.0
N739 N 0.96952 0.24352 0.88768 0.0
H740 H 0.9054 0.23849 0.01647 0.0
H741 H 0.91087 0.24044 0.94118 0.0
H742 H -0.01371 0.24534 0.85293 0.0
H743 H 0.94518 0.23756 0.87474 0.0
H744 H 0.03768 0.24194 0.13082 0.0
H745 H -0.00461 0.24101 0.1515 0.0
H746 H 0.07053 0.25613 0.06597 0.0
H747 H 0.07718 0.25614 0.99097 0.0
C748 C 0.24175 0.97263 0.94454 0.0
C749 C 0.24477 0.0077 0.95618 0.0
C750 C 0.2412 -0.00242 0.06017 0.0
C751 C 0.24388 0.96255 0.04858 0.0
N752 N 0.22908 0.91726 0.98497 0.0
N753 N 0.22989 0.05325 0.01969 0.0
C754 C 0.23773 0.95029 0.99221 0.0
C755 C 0.2381 0.02004 0.01248 0.0
N756 N 0.24574 0.96042 0.8895 0.0
N757 N 0.24463 0.00946 0.11549 0.0
H758 H 0.22762 0.0696 0.98407 0.0
H759 H 0.22184 0.06312 0.05932 0.0
H760 H 0.2462 -0.00657 0.15151 0.0
H761 H 0.24708 0.03509 0.12508 0.0
H762 H 0.24799 0.93469 0.88041 0.0
H763 H 0.24794 0.97605 0.85315 0.0
H764 H 0.22119 0.90751 0.94522 0.0
H765 H 0.22643 0.90097 0.02058 0.0
C766 C 0.94621 0.72928 0.00254 0.0
C767 C 0.96016 0.72033 0.94789 0.0
C768 C 0.01658 0.72962 0.98639 0.0
C769 C 0.00282 0.72856 0.04292 0.0
N770 N 0.95517 0.73195 0.10687 0.0
N771 N 0.00897 0.71422 0.88559 0.0
C772 C 0.96772 0.73096 0.0516 0.0
C773 C -0.00455 0.72235 0.93841 0.0
N774 N 0.91239 0.73509 0.00719 0.0
N775 N 0.05023 0.73548 0.97977 0.0
H776 H -0.00556 0.70863 0.84929 0.0
H777 H 0.0347 0.71129 0.87837 0.0
H778 H 0.06574 0.74015 0.01552 0.0
H779 H 0.06186 0.7388 0.93955 0.0
H780 H 0.9008 0.74373 0.04499 0.0
H781 H 0.89647 0.73411 0.97113 0.0
H782 H 0.92971 0.72947 0.11683 0.0
H783 H 0.97087 0.7342 0.14305 0.0
C784 C 0.17591 0.32111 0.11019 0.0
C785 C 0.16824 0.35249 0.13733 0.0
C786 C 0.14268 0.37268 0.04685 0.0
C787 C 0.1459 0.33999 0.02229 0.0
N788 N 0.16173 0.28133 0.03379 0.0
N789 N 0.13562 0.40428 0.13513 0.0
C790 C 0.16166 0.31365 0.05468 0.0
C791 C 0.14935 0.3773 0.10664 0.0
N792 N 0.19728 0.29877 0.13682 0.0
N793 N 0.13434 0.39976 0.01265 0.0
H794 H 0.13838 0.40812 0.17968 0.0
H795 H 0.1184 0.42075 0.11562 0.0
H796 H 0.13123 0.39771 0.96783 0.0
H797 H 0.13459 0.42463 0.0277 0.0
H798 H 0.20643 0.27701 0.11671 0.0
H799 H 0.20828 0.30357 0.17713 0.0
H800 H 0.16972 0.26051 0.0581 0.0
H801 H 0.1511 0.27489 0.99392 0.0
C802 C 0.35046 0.79954 0.95856 0.0
C803 C 0.32824 0.82648 0.97226 0.0
C804 C 0.3199 0.83813 0.86891 0.0
C805 C 0.3411 0.81 0.85441 0.0
N806 N 0.36467 0.75671 0.88801 0.0
N807 N 0.28265 0.86226 0.94109 0.0
C808 C 0.35276 0.7884 0.90001 0.0
C809 C 0.30986 0.84262 0.92752 0.0
N810 N 0.37046 0.78543 0.00049 0.0
N811 N 0.31102 0.86212 0.82867 0.0
H812 H 0.27443 0.86543 0.98384 0.0
H813 H 0.26616 0.87167 0.90969 0.0
H814 H 0.32006 0.86311 0.78638 0.0
H815 H 0.29767 0.88399 0.83935 0.0
H816 H 0.38961 0.76818 0.99098 0.0
H817 H 0.36993 0.79303 0.04385 0.0
H818 H 0.37095 0.73928 0.92043 0.0
H819 H 0.36404 0.74625 0.84649 0.0
C820 C 0.8128 0.61064 0.03552 0.0
C821 C 0.82164 0.64415 0.01998 0.0
C822 C 0.80428 0.66321 0.11677 0.0
C823 C 0.80234 0.62895 0.13593 0.0
N824 N 0.80963 0.56937 0.1123 0.0
N825 N 0.82883 0.70251 0.0478 0.0
C826 C 0.80756 0.6024 0.09491 0.0
C827 C 0.81802 0.67061 0.061 0.0
N828 N 0.80877 0.58669 0.99332 0.0
N829 N 0.79168 0.68861 0.15068 0.0
H830 H 0.8391 0.70895 0.00753 0.0
H831 H 0.83017 0.72181 0.07848 0.0
H832 H 0.77925 0.68405 0.18991 0.0
H833 H 0.78989 0.71365 0.13659 0.0
H834 H 0.79895 0.56272 0.00162 0.0
H835 H 0.81154 0.59201 0.94912 0.0
H836 H 0.81693 0.5499 0.08451 0.0
H837 H 0.80759 0.5614 0.15517 0.0
C838 C 0.62762 0.1725 0.95632 0.0
C839 C 0.64725 0.14334 0.9693 0.0
C840 C 0.65257 0.13101 0.86594 0.0
C841 C 0.63425 0.16121 0.85203 0.0
N842 N 0.61641 0.21652 0.88583 0.0
N843 N 0.68913 0.10386 0.93584 0.0
C844 C 0.62547 0.18383 0.89774 0.0
C845 C 0.66334 0.12569 0.9238 0.0
N846 N 0.60981 0.1887 -0.00118 0.0
N847 N 0.65794 0.106 0.82599 0.0
H848 H 0.69826 0.10024 0.97794 0.0
H849 H 0.7039 0.09297 0.90339 0.0
H850 H 0.64808 0.10594 0.78426 0.0
H851 H 0.66878 0.08275 0.83681 0.0
H852 H 0.59216 0.20759 0.98978 0.0
H853 H 0.61052 0.18162 0.0424 0.0
H854 H 0.61261 0.23453 0.91822 0.0
H855 H 0.61696 0.22681 0.84408 0.0
C856 C 0.12771 0.61428 0.87394 0.0
C857 C 0.15639 0.63162 0.85295 0.0
C858 C 0.15956 0.66331 0.94371 0.0
C859 C 0.13356 0.64278 0.96753 0.0
N860 N 0.10106 0.59112 0.95916 0.0
N861 N 0.20462 0.66641 0.87289 0.0
C862 C 0.11989 0.61603 0.93381 0.0
C863 C 0.17395 0.65423 0.88941 0.0
N864 N 0.1074 0.5968 0.83677 0.0
N865 N 0.16938 0.69231 0.97093 0.0
H866 H 0.21645 0.65849 0.83479 0.0
H867 H 0.21972 0.68099 0.90002 0.0
H868 H 0.15804 0.70123 0.00877 0.0
H869 H 0.18616 0.70945 0.95231 0.0
H870 H 0.08439 0.58654 0.84964 0.0
H871 H 0.11211 0.59503 0.79222 0.0
H872 H 0.09308 0.56976 0.93655 0.0
H873 H 0.09711 0.58945 0.00391 0.0
C874 C 0.66162 0.83075 0.13501 0.0
C875 C 0.64005 0.80262 0.14679 0.0
C876 C 0.63168 0.79495 0.04187 0.0
C877 C 0.653 0.82303 0.03067 0.0
N878 N 0.69789 0.85822 0.06472 0.0
N879 N 0.6159 0.75094 0.11011 0.0
C880 C 0.67113 0.83777 0.07678 0.0
C881 C 0.62862 0.78249 0.09973 0.0
N882 N 0.67146 0.85234 0.178 0.0
N883 N 0.61316 0.781 0.99815 0.0
H884 H 0.61525 0.74017 0.1516 0.0
H885 H 0.60991 0.73403 0.07706 0.0
H886 H 0.61525 0.78851 0.95492 0.0
H887 H 0.59411 0.76342 0.00554 0.0
H888 H 0.68368 0.87515 0.16961 0.0
H889 H 0.66474 0.8499 0.22133 0.0
H890 H 0.71431 0.86697 0.09658 0.0
H891 H 0.70588 0.86279 0.0222 0.0
C892 C 0.83948 0.36707 0.87909 0.0
C893 C 0.81154 0.34878 0.85806 0.0
C894 C 0.80829 0.31769 0.94994 0.0
C895 C 0.83416 0.33856 0.97281 0.0
N896 N 0.86629 0.39033 0.96376 0.0
N897 N 0.7641 0.31275 0.87779 0.0
C898 C 0.84737 0.36545 0.9388 0.0
C899 C 0.79419 0.32595 0.89486 0.0
N900 N 0.85924 0.38525 0.84191 0.0
N901 N 0.79836 0.28919 0.97899 0.0
H902 H 0.75262 0.31984 0.83884 0.0
H903 H 0.74904 0.29798 0.90489 0.0
H904 H 0.80911 0.28133 0.01812 0.0
H905 H 0.78184 0.27158 0.96128 0.0
H906 H 0.8818 0.39621 0.85495 0.0
H907 H 0.8547 0.38681 0.7973 0.0
H908 H 0.87366 0.4121 0.94143 0.0
H909 H 0.87119 0.39132 0.00823 0.0
C910 C 0.30544 0.13437 0.06896 0.0
C911 C 0.32237 0.15109 0.02339 0.0
C912 C 0.34806 0.18878 0.09486 0.0
C913 C 0.33805 0.16635 0.1404 0.0
N914 N 0.31023 0.11328 0.16637 0.0
N915 N 0.3614 0.19438 0.99261 0.0
C916 C 0.31709 0.13814 0.12661 0.0
C917 C 0.34386 0.17866 0.03601 0.0
N918 N 0.27836 0.11448 0.05687 0.0
N919 N 0.36034 0.22017 0.10735 0.0
H920 H 0.35824 0.18871 0.94879 0.0
H921 H 0.3806 0.21167 0.00063 0.0
H922 H 0.36189 0.22961 0.14948 0.0
H923 H 0.36513 0.23836 0.07548 0.0
H924 H 0.26302 0.1043 0.08928 0.0
H925 H 0.2691 0.1119 0.01465 0.0
H926 H 0.29746 0.09116 0.15563 0.0
H927 H 0.32051 0.11204 0.20778 0.0
C928 C 0.61673 0.82781 0.57827 0.0
C929 C 0.63694 0.83715 0.52992 0.0
C930 C 0.68083 0.85668 0.59657 0.0
C931 C 0.65865 0.85154 0.64409 0.0
N932 N 0.60158 0.84151 0.67693 0.0
N933 N 0.68484 0.86879 0.49381 0.0
C934 C 0.62544 0.83971 0.63413 0.0
C935 C 0.66817 0.85385 0.5391 0.0
N936 N 0.58976 0.80682 0.57141 0.0
N937 N 0.71411 0.86335 0.60601 0.0
H938 H 0.67552 0.86945 0.45147 0.0
H939 H 0.70603 0.88391 0.49961 0.0
H940 H 0.72456 0.86474 0.64751 0.0
H941 H 0.73186 0.86406 0.57259 0.0
H942 H 0.57617 0.79705 0.60643 0.0
H943 H 0.58336 0.79619 0.53156 0.0
H944 H 0.57629 0.83585 0.66988 0.0
H945 H 0.60611 0.85264 0.71716 0.0
C946 C 0.81644 0.3458 0.42933 0.0
C947 C 0.83775 0.33303 0.47344 0.0
C948 C 0.86181 0.29309 0.40359 0.0
C949 C 0.84628 0.31127 0.35726 0.0
N950 N 0.81036 0.35862 0.32787 0.0
N951 N 0.88283 0.29522 0.50209 0.0
C952 C 0.82368 0.3384 0.37045 0.0
C953 C 0.86092 0.30667 0.46065 0.0
N954 N 0.78852 0.36422 0.44371 0.0
N955 N 0.87605 0.26209 0.39375 0.0
H956 H 0.88275 0.30394 0.54476 0.0
H957 H 0.9028 0.27892 0.49278 0.0
H958 H 0.87501 0.25007 0.35349 0.0
H959 H 0.88507 0.24655 0.42702 0.0
H960 H 0.77001 0.37042 0.41342 0.0
H961 H 0.78184 0.36945 0.48664 0.0
H962 H 0.79684 0.38066 0.33677 0.0
H963 H 0.81539 0.35612 0.2839 0.0
C964 C 0.31336 0.1543 0.61611 0.0
C965 C 0.31011 0.12047 0.63675 0.0
C966 C 0.3253 0.09982 0.53972 0.0
C967 C 0.3352 0.13292 0.52404 0.0
N968 N 0.34025 0.1921 0.54721 0.0
N969 N 0.31626 0.06012 0.61756 0.0
C970 C 0.32965 0.16037 0.56217 0.0
C971 C 0.31654 0.09288 0.59829 0.0
N972 N 0.29937 0.18045 0.64664 0.0
N973 N 0.32364 0.07511 0.49834 0.0
H974 H 0.31095 0.05288 0.65997 0.0
H975 H 0.32446 0.03985 0.59231 0.0
H976 H 0.32942 0.07957 0.45474 0.0
H977 H 0.31309 0.05138 0.50589 0.0
H978 H 0.29854 0.20524 0.63115 0.0
H979 H 0.28499 0.1767 0.68411 0.0
H980 H 0.34014 0.21237 0.57608 0.0
H981 H 0.35142 0.19756 0.50718 0.0
C982 C 0.15548 0.63797 0.42329 0.0
C983 C 0.13552 0.65273 0.46755 0.0
C984 C 0.1148 0.69452 0.39694 0.0
C985 C 0.12847 0.67494 0.35098 0.0
N986 N 0.16069 0.62532 0.32165 0.0
N987 N 0.09395 0.69465 0.49551 0.0
C988 C 0.14888 0.64615 0.36434 0.0
C989 C 0.11482 0.68119 0.45437 0.0
N990 N 0.18159 0.61692 0.43762 0.0
N991 N 0.10266 0.72632 0.38595 0.0
H992 H 0.09311 0.68603 0.5382 0.0
H993 H 0.07552 0.71267 0.48596 0.0
H994 H 0.1039 0.73751 0.34482 0.0
H995 H 0.09516 0.74292 0.41865 0.0
H996 H 0.19906 0.6082 0.40727 0.0
H997 H 0.18817 0.61151 0.48057 0.0
H998 H 0.17149 0.60174 0.33024 0.0
H999 H 0.15766 0.62996 0.27768 0.0
C1000 C 0.66301 0.11249 0.45995 0.0
C1001 C 0.63126 0.12844 0.46876 0.0
C1002 C 0.62249 0.12979 0.36406 0.0
C1003 C 0.65643 0.11955 0.35512 0.0
N1004 N 0.71125 0.10774 0.3964 0.0
N1005 N 0.5848 0.16029 0.42716 0.0
C1006 C 0.67746 0.11283 0.40361 0.0
C1007 C 0.61213 0.13956 0.42027 0.0
N1008 N 0.67864 0.09554 0.50431 0.0
N1009 N 0.5995 0.12823 0.32004 0.0
H1010 H 0.57739 0.16994 0.46731 0.0
H1011 H 0.57198 0.17099 0.39201 0.0
H1012 H 0.60516 0.11761 0.27986 0.0
H1013 H 0.5739 0.13306 0.32618 0.0
H1014 H 0.7004 0.08114 0.4982 0.0
H1015 H 0.66784 0.09242 0.54533 0.0
H1016 H 0.72789 0.10581 0.43131 0.0
H1017 H 0.72311 0.10906 0.356 0.0
C1018 C 0.15717 0.30564 0.6082 0.0
C1019 C 0.12691 0.31459 0.63749 0.0
C1020 C 0.10684 0.3432 0.54956 0.0
C1021 C 0.13861 0.33822 0.52272 0.0
N1022 N 0.19638 0.31953 0.53085 0.0
N1023 N 0.07773 0.35096 0.6403 0.0
C1024 C 0.16449 0.32062 0.55312 0.0
C1025 C 0.10298 0.33582 0.60937 0.0
N1026 N 0.17857 0.28236 0.63227 0.0
N1027 N 0.07981 0.3538 0.51757 0.0
H1028 H 0.07483 0.34802 0.6851 0.0
H1029 H 0.06195 0.36942 0.62248 0.0
H1030 H 0.08113 0.35757 0.4728 0.0
H1031 H 0.05541 0.35483 0.53434 0.0
H1032 H 0.19923 0.27232 0.61023 0.0
H1033 H 0.17396 0.27079 0.6723 0.0
H1034 H 0.21697 0.31006 0.55384 0.0
H1035 H 0.20289 0.33101 0.49156 0.0
C1036 C 0.34931 0.81738 0.42786 0.0
C1037 C 0.34209 0.8428 0.46947 0.0
C1038 C 0.29758 0.86542 0.40651 0.0
C1039 C 0.30762 0.84263 0.36205 0.0
N1040 N 0.32865 0.78611 0.34534 0.0
N1041 N 0.31232 0.89368 0.49622 0.0
C1042 C 0.32958 0.81545 0.37658 0.0
C1043 C 0.31687 0.86746 0.45832 0.0
N1044 N 0.37516 0.7951 0.4369 0.0
N1045 N 0.26776 0.88255 0.40166 0.0
H1046 H 0.32649 0.89632 0.53414 0.0
H1047 H 0.29694 0.91447 0.48729 0.0
H1048 H 0.25062 0.8776 0.36841 0.0
H1049 H 0.25772 0.89756 0.43457 0.0
H1050 H 0.38432 0.77928 0.40436 0.0
H1051 H 0.38938 0.79445 0.47491 0.0
H1052 H 0.34227 0.76446 0.35648 0.0
H1053 H 0.3101 0.78141 0.31438 0.0
C1054 C 0.8392 0.63518 0.62625 0.0
C1055 C 0.83377 0.66961 0.63982 0.0
C1056 C 0.81056 0.67929 0.54185 0.0
C1057 C 0.81767 0.6447 0.52796 0.0
N1058 N 0.81916 0.58845 0.56993 0.0
N1059 N 0.81566 0.72539 0.61186 0.0
C1060 C 0.82623 0.62218 0.57399 0.0
C1061 C 0.81979 0.69203 0.59792 0.0
N1062 N 0.85783 0.61492 0.6624 0.0
N1063 N 0.79205 0.69884 0.50444 0.0
H1064 H 0.82077 0.73473 0.65326 0.0
H1065 H 0.80902 0.74424 0.58233 0.0
H1066 H 0.77915 0.68896 0.46911 0.0
H1067 H 0.78519 0.72382 0.51218 0.0
H1068 H 0.86522 0.59045 0.65111 0.0
H1069 H 0.86856 0.62351 0.701 0.0
H1070 H 0.8238 0.5713 0.6035 0.0
H1071 H 0.80408 0.57869 0.53694 0.0
C1072 C 0.30453 0.27723 0.28026 0.0
C1073 C 0.31784 0.2658 0.33413 0.0
C1074 C 0.28402 0.30728 0.38687 0.0
C1075 C 0.27084 0.31849 0.33287 0.0
N1076 N 0.2742 0.32067 0.22787 0.0
N1077 N 0.32544 0.2725 0.43728 0.0
C1078 C 0.28327 0.30586 0.27946 0.0
C1079 C 0.30926 0.28175 0.38719 0.0
N1080 N 0.30992 0.25911 0.23047 0.0
N1081 N 0.27183 0.32073 0.43741 0.0
H1082 H 0.34393 0.25367 0.43829 0.0
H1083 H 0.32234 0.28477 0.47688 0.0
H1084 H 0.2551 0.34117 0.43784 0.0
H1085 H 0.27742 0.31127 0.47858 0.0
H1086 H 0.29733 0.26374 0.19152 0.0
H1087 H 0.32466 0.23732 0.22898 0.0
H1088 H 0.2857 0.31496 0.18836 0.0
H1089 H 0.2572 0.34072 0.22463 0.0
C1090 C 0.26251 0.69482 0.70639 0.0
C1091 C 0.25745 0.67302 0.65862 0.0
C1092 C 0.30754 0.69513 0.61032 0.0
C1093 C 0.31355 0.71523 0.66003 0.0
N1094 N 0.30205 0.72806 0.76088 0.0
N1095 N 0.27641 0.64833 0.56856 0.0
C1096 C 0.29281 0.71294 0.70997 0.0
C1097 C 0.28051 0.67172 0.61161 0.0
N1098 N 0.2378 0.69938 0.74714 0.0
N1099 N 0.32704 0.69919 0.56183 0.0
H1100 H 0.25607 0.63169 0.56756 0.0
H1101 H 0.29407 0.64404 0.53589 0.0
H1102 H 0.34773 0.71539 0.56088 0.0
H1103 H 0.32182 0.68791 0.52202 0.0
H1104 H 0.23877 0.71798 0.7791 0.0
H1105 H 0.21479 0.68682 0.74597 0.0
H1106 H 0.28951 0.72419 0.80015 0.0
H1107 H 0.32425 0.74166 0.76543 0.0
C1108 C 0.64445 0.67134 0.31141 0.0
C1109 C 0.64603 0.69628 0.3553 0.0
C1110 C 0.69497 0.66756 0.39683 0.0
C1111 C 0.69926 0.65087 0.34278 0.0
N1112 N 0.6776 0.63631 0.24761 0.0
N1113 N 0.66518 0.71122 0.45092 0.0
C1114 C 0.67356 0.65191 0.30011 0.0
C1115 C 0.66877 0.6919 0.40217 0.0
N1116 N 0.61518 0.66543 0.28218 0.0
N1117 N 0.71569 0.65976 0.44244 0.0
H1118 H 0.64385 0.72627 0.45765 0.0
H1119 H 0.68282 0.71232 0.48428 0.0
H1120 H 0.73439 0.64119 0.4396 0.0
H1121 H 0.71292 0.66959 0.48408 0.0
H1122 H 0.61264 0.64601 0.25193 0.0
H1123 H 0.59234 0.6762 0.29492 0.0
H1124 H 0.66081 0.63971 0.21323 0.0
H1125 H 0.69894 0.62228 0.23658 0.0
C1126 C 0.69143 0.30659 0.61397 0.0
C1127 C 0.71469 0.30543 0.66073 0.0
C1128 C 0.68228 0.2614 0.70879 0.0
C1129 C 0.66135 0.25953 0.6591 0.0
N1130 N 0.64609 0.27808 0.5629 0.0
N1131 N 0.7358 0.2783 0.74796 0.0
C1132 C 0.66576 0.28164 0.6112 0.0
C1133 C 0.71113 0.2819 0.70686 0.0
N1134 N 0.69407 0.33131 0.57252 0.0
N1135 N 0.67428 0.24388 0.75826 0.0
H1136 H 0.75737 0.29319 0.7492 0.0
H1137 H 0.73634 0.25862 0.77822 0.0
H1138 H 0.65323 0.22841 0.76136 0.0
H1139 H 0.68647 0.24727 0.7979 0.0
H1140 H 0.67615 0.33549 0.54026 0.0
H1141 H 0.71347 0.34906 0.57244 0.0
H1142 H 0.65017 0.29106 0.52407 0.0
H1143 H 0.62644 0.26065 0.5609 0.0
C1144 C 0.79488 0.82558 0.77813 0.0
C1145 C 0.77543 0.83091 0.82909 0.0
C1146 C 0.81153 0.79267 0.88464 0.0
C1147 C 0.82564 0.78197 0.83139 0.0
N1148 N 0.83493 0.78947 0.72843 0.0
N1149 N 0.76904 0.82698 0.93301 0.0
C1150 C 0.81946 0.79961 0.77869 0.0
C1151 C 0.7854 0.81713 0.88345 0.0
N1152 N 0.78925 0.84444 0.72904 0.0
N1153 N 0.82281 0.77858 0.93545 0.0
H1154 H 0.75109 0.84635 0.93302 0.0
H1155 H 0.77313 0.81656 0.97398 0.0
H1156 H 0.84252 0.76103 0.93626 0.0
H1157 H 0.81426 0.7852 0.97662 0.0
H1158 H 0.80493 0.84411 0.69278 0.0
H1159 H 0.77047 0.8627 0.72544 0.0
H1160 H 0.82811 0.79781 0.68712 0.0
H1161 H 0.85412 0.77144 0.72741 0.0
C1162 C 0.778 0.17443 0.22682 0.0
C1163 C 0.76901 0.15807 0.17445 0.0
C1164 C 0.81041 0.19076 0.11965 0.0
C1165 C 0.81888 0.20777 0.1718 0.0
N1166 N 0.81576 0.21219 0.27684 0.0
N1167 N 0.77974 0.1448 0.07412 0.0
C1168 C 0.80459 0.19812 0.2261 0.0
C1169 C 0.78633 0.16434 0.12172 0.0
N1170 N 0.75947 0.16908 0.27628 0.0
N1171 N 0.82485 0.20056 0.06826 0.0
H1172 H 0.76204 0.12533 0.07484 0.0
H1173 H 0.79325 0.14603 0.0354 0.0
H1174 H 0.84414 0.21839 0.06601 0.0
H1175 H 0.81711 0.19205 0.02767 0.0
H1176 H 0.7616 0.18357 0.31379 0.0
H1177 H 0.74013 0.15137 0.27905 0.0
H1178 H 0.8096 0.20288 0.31789 0.0
H1179 H 0.83291 0.23196 0.27874 0.0
C1180 C 0.16882 0.19247 0.88133 0.0
C1181 C 0.1572 0.20557 0.82757 0.0
C1182 C 0.18655 0.16071 0.77496 0.0
C1183 C 0.20302 0.15187 0.82734 0.0
N1184 N 0.2098 0.15699 0.93096 0.0
N1185 N 0.15574 0.20378 0.72231 0.0
C1186 C 0.19379 0.16676 0.88099 0.0
C1187 C 0.16558 0.1897 0.7741 0.0
N1188 N 0.15566 0.20448 0.93224 0.0
N1189 N 0.19169 0.14194 0.72587 0.0
H1190 H 0.1404 0.22514 0.71913 0.0
H1191 H 0.1648 0.19587 0.68207 0.0
H1192 H 0.20779 0.12106 0.7246 0.0
H1193 H 0.17776 0.1451 0.68788 0.0
H1194 H 0.16115 0.19427 0.97295 0.0
H1195 H 0.13686 0.223 0.93328 0.0
H1196 H 0.20724 0.16949 0.9705 0.0
H1197 H 0.22681 0.13678 0.93222 0.0
C1198 C 0.14714 0.80121 0.19823 0.0
C1199 C 0.14372 0.78048 0.1486 0.0
C1200 C 0.19257 0.80816 0.10484 0.0
C1201 C 0.20118 0.82029 0.16094 0.0
N1202 N 0.18718 0.82674 0.263 0.0
N1203 N 0.1568 0.77096 0.048 0.0
C1204 C 0.1784 0.81694 0.20812 0.0
C1205 C 0.16435 0.78643 0.09934 0.0
N1206 N 0.1206 0.80668 0.2348 0.0
N1207 N 0.21104 0.81785 0.05742 0.0
H1208 H 0.13421 0.75792 0.04224 0.0
H1209 H 0.17258 0.77082 0.01186 0.0
H1210 H 0.23134 0.83447 0.06033 0.0
H1211 H 0.20487 0.8117 0.0148 0.0
H1212 H 0.1218 0.82327 0.26988 0.0
H1213 H 0.09619 0.79915 0.22465 0.0
H1214 H 0.1724 0.8214 0.29938 0.0
H1215 H 0.2105 0.83716 0.27328 0.0
loop_
_geom_bond_atom_site_label_1
_geom_bond_atom_site_label_2
_geom_bond_distance
_geom_bond_site_symmetry_2
_ccdc_geom_bond_type
Sc0 O3 2.025 . S
Sc0 O10 2.105 . S
Sc0 O13 2.105 . S
Sc0 O16 2.105 . S
Sc0 O19 2.105 . S
Sc1 O3 2.025 . S
Sc1 O11 2.105 . S
Sc1 O15 2.105 . S
Sc1 O17 2.105 . S
Sc1 O21 2.105 . S
Sc2 O3 2.025 . S
Sc2 O12 2.105 . S
Sc2 O14 2.105 . S
Sc2 O18 2.105 . S
Sc2 O20 2.105 . S
O3 Sc0 2.025 . S
O3 Sc1 2.025 . S
O3 Sc2 2.025 . S
C4 O10 1.268 . S
C4 O20 1.268 . S
C5 O11 1.268 . S
C5 O19 1.268 . S
C6 O12 1.268 . S
C6 O21 1.268 . S
C7 O13 1.268 . S
C7 O17 1.268 . S
C8 O14 1.268 . S
C8 O16 1.268 . S
C9 O15 1.268 . S
C9 O18 1.268 . S
O10 Sc0 2.105 . S
O10 C4 1.268 . S
O11 Sc1 2.105 . S
O11 C5 1.268 . S
O12 Sc2 2.105 . S
O12 C6 1.268 . S
O13 Sc0 2.105 . S
O13 C7 1.268 . S
O14 Sc2 2.105 . S
O14 C8 1.268 . S
O15 Sc1 2.105 . S
O15 C9 1.268 . S
O16 Sc0 2.105 . S
O16 C8 1.268 . S
O17 Sc1 2.105 . S
O17 C7 1.268 . S
O18 Sc2 2.105 . S
O18 C9 1.268 . S
O19 Sc0 2.105 . S
O19 C5 1.268 . S
O20 Sc2 2.105 . S
O20 C4 1.268 . S
O21 Sc1 2.105 . S
O21 C6 1.268 . S
Sc22 O25 2.025 . S
Sc22 O32 2.105 . S
Sc22 O35 2.105 . S
Sc22 O38 2.105 . S
Sc22 O41 2.105 . S
Sc23 O25 2.025 . S
Sc23 O33 2.105 . S
Sc23 O37 2.105 . S
Sc23 O39 2.105 . S
Sc23 O43 2.105 . S
Sc24 O25 2.025 . S
Sc24 O34 2.105 . S
Sc24 O36 2.105 . S
Sc24 O40 2.105 . S
Sc24 O42 2.105 . S
O25 Sc22 2.025 . S
O25 Sc23 2.025 . S
O25 Sc24 2.025 . S
C26 O32 1.268 . S
C26 O42 1.268 . S
C27 O33 1.268 . S
C27 O41 1.268 . S
C28 O34 1.268 . S
C28 O43 1.268 . S
C29 O35 1.268 . S
C29 O39 1.268 . S
C30 O36 1.268 . S
C30 O38 1.268 . S
C31 O37 1.268 . S
C31 O40 1.268 . S
O32 Sc22 2.105 . S
O32 C26 1.268 . S
O33 Sc23 2.105 . S
O33 C27 1.268 . S
O34 Sc24 2.105 . S
O34 C28 1.268 . S
O35 Sc22 2.105 . S
O35 C29 1.268 . S
O36 Sc24 2.105 . S
O36 C30 1.268 . S
O37 Sc23 2.105 . S
O37 C31 1.268 . S
O38 Sc22 2.105 . S
O38 C30 1.268 . S
O39 Sc23 2.105 . S
O39 C29 1.268 . S
O40 Sc24 2.105 . S
O40 C31 1.268 . S
O41 Sc22 2.105 . S
O41 C27 1.268 . S
O42 Sc24 2.105 . S
O42 C26 1.268 . S
O43 Sc23 2.105 . S
O43 C28 1.268 . S
Sc44 O47 2.025 . S
Sc44 O54 2.105 . S
Sc44 O57 2.105 . S
Sc44 O60 2.105 . S
Sc44 O63 2.105 . S
Sc45 O47 2.025 . S
Sc45 O55 2.105 . S
Sc45 O59 2.105 . S
Sc45 O61 2.105 . S
Sc45 O65 2.105 . S
Sc46 O47 2.025 . S
Sc46 O56 2.105 . S
Sc46 O58 2.105 . S
Sc46 O62 2.105 . S
Sc46 O64 2.105 . S
O47 Sc44 2.025 . S
O47 Sc45 2.025 . S
O47 Sc46 2.025 . S
C48 O54 1.268 . S
C48 O64 1.268 . S
C49 O55 1.268 . S
C49 O63 1.268 . S
C50 O56 1.268 . S
C50 O65 1.268 . S
C51 O57 1.268 . S
C51 O61 1.268 . S
C52 O58 1.268 . S
C52 O60 1.268 . S
C53 O59 1.268 . S
C53 O62 1.268 . S
O54 Sc44 2.105 . S
O54 C48 1.268 . S
O55 Sc45 2.105 . S
O55 C49 1.268 . S
O56 Sc46 2.105 . S
O56 C50 1.268 . S
O57 Sc44 2.105 . S
O57 C51 1.268 . S
O58 Sc46 2.105 . S
O58 C52 1.268 . S
O59 Sc45 2.105 . S
O59 C53 1.268 . S
O60 Sc44 2.105 . S
O60 C52 1.268 . S
O61 Sc45 2.105 . S
O61 C51 1.268 . S
O62 Sc46 2.105 . S
O62 C53 1.268 . S
O63 Sc44 2.105 . S
O63 C49 1.268 . S
O64 Sc46 2.105 . S
O64 C48 1.268 . S
O65 Sc45 2.105 . S
O65 C50 1.268 . S
Sc66 O69 2.025 . S
Sc66 O76 2.105 . S
Sc66 O79 2.105 . S
Sc66 O82 2.105 . S
Sc66 O85 2.105 . S
Sc67 O69 2.025 . S
Sc67 O77 2.105 . S
Sc67 O81 2.105 . S
Sc67 O83 2.105 . S
Sc67 O87 2.105 . S
Sc68 O69 2.025 . S
Sc68 O78 2.105 . S
Sc68 O80 2.105 . S
Sc68 O84 2.105 . S
Sc68 O86 2.105 . S
O69 Sc66 2.025 . S
O69 Sc67 2.025 . S
O69 Sc68 2.025 . S
C70 O76 1.268 . S
C70 O86 1.268 . S
C71 O77 1.268 . S
C71 O85 1.268 . S
C72 O78 1.268 . S
C72 O87 1.268 . S
C73 O79 1.268 . S
C73 O83 1.268 . S
C74 O80 1.268 . S
C74 O82 1.268 . S
C75 O81 1.268 . S
C75 O84 1.268 . S
O76 Sc66 2.105 . S
O76 C70 1.268 . S
O77 Sc67 2.105 . S
O77 C71 1.268 . S
O78 Sc68 2.105 . S
O78 C72 1.268 . S
O79 Sc66 2.105 . S
O79 C73 1.268 . S
O80 Sc68 2.105 . S
O80 C74 1.268 . S
O81 Sc67 2.105 . S
O81 C75 1.268 . S
O82 Sc66 2.105 . S
O82 C74 1.268 . S
O83 Sc67 2.105 . S
O83 C73 1.268 . S
O84 Sc68 2.105 . S
O84 C75 1.268 . S
O85 Sc66 2.105 . S
O85 C71 1.268 . S
O86 Sc68 2.105 . S
O86 C70 1.268 . S
O87 Sc67 2.105 . S
O87 C72 1.268 . S
Sc88 O91 2.025 . S
Sc88 O98 2.105 . S
Sc88 O101 2.105 . S
Sc88 O104 2.105 . S
Sc88 O107 2.105 . S
Sc89 O91 2.025 . S
Sc89 O99 2.105 . S
Sc89 O103 2.105 . S
Sc89 O105 2.105 . S
Sc89 O109 2.105 . S
Sc90 O91 2.025 . S
Sc90 O100 2.105 . S
Sc90 O102 2.105 . S
Sc90 O106 2.105 . S
Sc90 O108 2.105 . S
O91 Sc88 2.025 . S
O91 Sc89 2.025 . S
O91 Sc90 2.025 . S
C92 O98 1.268 . S
C92 O108 1.268 . S
C93 O99 1.268 . S
C93 O107 1.268 . S
C94 O100 1.268 . S
C94 O109 1.268 . S
C95 O101 1.268 . S
C95 O105 1.268 . S
C96 O102 1.268 . S
C96 O104 1.268 . S
C97 O103 1.268 . S
C97 O106 1.268 . S
O98 Sc88 2.105 . S
O98 C92 1.268 . S
O99 Sc89 2.105 . S
O99 C93 1.268 . S
O100 Sc90 2.105 . S
O100 C94 1.268 . S
O101 Sc88 2.105 . S
O101 C95 1.268 . S
O102 Sc90 2.105 . S
O102 C96 1.268 . S
O103 Sc89 2.105 . S
O103 C97 1.268 . S
O104 Sc88 2.105 . S
O104 C96 1.268 . S
O105 Sc89 2.105 . S
O105 C95 1.268 . S
O106 Sc90 2.105 . S
O106 C97 1.268 . S
O107 Sc88 2.105 . S
O107 C93 1.268 . S
O108 Sc90 2.105 . S
O108 C92 1.268 . S
O109 Sc89 2.105 . S
O109 C94 1.268 . S
Sc110 O113 2.025 . S
Sc110 O120 2.105 . S
Sc110 O123 2.105 . S
Sc110 O126 2.105 . S
Sc110 O129 2.105 . S
Sc111 O113 2.025 . S
Sc111 O121 2.105 . S
Sc111 O125 2.105 . S
Sc111 O127 2.105 . S
Sc111 O131 2.105 . S
Sc112 O113 2.025 . S
Sc112 O122 2.105 . S
Sc112 O124 2.105 . S
Sc112 O128 2.105 . S
Sc112 O130 2.105 . S
O113 Sc110 2.025 . S
O113 Sc111 2.025 . S
O113 Sc112 2.025 . S
C114 O120 1.268 . S
C114 O130 1.268 . S
C115 O121 1.268 . S
C115 O129 1.268 . S
C116 O122 1.268 . S
C116 O131 1.268 . S
C117 O123 1.268 . S
C117 O127 1.268 . S
C118 O124 1.268 . S
C118 O126 1.268 . S
C119 O125 1.268 . S
C119 O128 1.268 . S
O120 Sc110 2.105 . S
O120 C114 1.268 . S
O121 Sc111 2.105 . S
O121 C115 1.268 . S
O122 Sc112 2.105 . S
O122 C116 1.268 . S
O123 Sc110 2.105 . S
O123 C117 1.268 . S
O124 Sc112 2.105 . S
O124 C118 1.268 . S
O125 Sc111 2.105 . S
O125 C119 1.268 . S
O126 Sc110 2.105 . S
O126 C118 1.268 . S
O127 Sc111 2.105 . S
O127 C117 1.268 . S
O128 Sc112 2.105 . S
O128 C119 1.268 . S
O129 Sc110 2.105 . S
O129 C115 1.268 . S
O130 Sc112 2.105 . S
O130 C114 1.268 . S
O131 Sc111 2.105 . S
O131 C116 1.268 . S
Sc132 O135 2.025 . S
Sc132 O142 2.105 . S
Sc132 O145 2.105 . S
Sc132 O148 2.105 . S
Sc132 O151 2.105 . S
Sc133 O135 2.025 . S
Sc133 O143 2.105 . S
Sc133 O147 2.105 . S
Sc133 O149 2.105 . S
Sc133 O153 2.105 . S
Sc134 O135 2.025 . S
Sc134 O144 2.105 . S
Sc134 O146 2.105 . S
Sc134 O150 2.105 . S
Sc134 O152 2.105 . S
O135 Sc132 2.025 . S
O135 Sc133 2.025 . S
O135 Sc134 2.025 . S
C136 O142 1.268 . S
C136 O152 1.268 . S
C137 O143 1.268 . S
C137 O151 1.268 . S
C138 O144 1.268 . S
C138 O153 1.268 . S
C139 O145 1.268 . S
C139 O149 1.268 . S
C140 O146 1.268 . S
C140 O148 1.268 . S
C141 O147 1.268 . S
C141 O150 1.268 . S
O142 Sc132 2.105 . S
O142 C136 1.268 . S
O143 Sc133 2.105 . S
O143 C137 1.268 . S
O144 Sc134 2.105 . S
O144 C138 1.268 . S
O145 Sc132 2.105 . S
O145 C139 1.268 . S
O146 Sc134 2.105 . S
O146 C140 1.268 . S
O147 Sc133 2.105 . S
O147 C141 1.268 . S
O148 Sc132 2.105 . S
O148 C140 1.268 . S
O149 Sc133 2.105 . S
O149 C139 1.268 . S
O150 Sc134 2.105 . S
O150 C141 1.268 . S
O151 Sc132 2.105 . S
O151 C137 1.268 . S
O152 Sc134 2.105 . S
O152 C136 1.268 . S
O153 Sc133 2.105 . S
O153 C138 1.268 . S
Sc154 O157 2.025 . S
Sc154 O164 2.105 . S
Sc154 O167 2.105 . S
Sc154 O170 2.105 . S
Sc154 O173 2.105 . S
Sc155 O157 2.025 . S
Sc155 O165 2.105 . S
Sc155 O169 2.105 . S
Sc155 O171 2.105 . S
Sc155 O175 2.105 . S
Sc156 O157 2.025 . S
Sc156 O166 2.105 . S
Sc156 O168 2.105 . S
Sc156 O172 2.105 . S
Sc156 O174 2.105 . S
O157 Sc154 2.025 . S
O157 Sc155 2.025 . S
O157 Sc156 2.025 . S
C158 O164 1.268 . S
C158 O174 1.268 . S
C159 O165 1.268 . S
C159 O173 1.268 . S
C160 O166 1.268 . S
C160 O175 1.268 . S
C161 O167 1.268 . S
C161 O171 1.268 . S
C162 O168 1.268 . S
C162 O170 1.268 . S
C163 O169 1.268 . S
C163 O172 1.268 . S
O164 Sc154 2.105 . S
O164 C158 1.268 . S
O165 Sc155 2.105 . S
O165 C159 1.268 . S
O166 Sc156 2.105 . S
O166 C160 1.268 . S
O167 Sc154 2.105 . S
O167 C161 1.268 . S
O168 Sc156 2.105 . S
O168 C162 1.268 . S
O169 Sc155 2.105 . S
O169 C163 1.268 . S
O170 Sc154 2.105 . S
O170 C162 1.268 . S
O171 Sc155 2.105 . S
O171 C161 1.268 . S
O172 Sc156 2.105 . S
O172 C163 1.268 . S
O173 Sc154 2.105 . S
O173 C159 1.268 . S
O174 Sc156 2.105 . S
O174 C158 1.268 . S
O175 Sc155 2.105 . S
O175 C160 1.268 . S
Sc176 O179 2.025 . S
Sc176 O186 2.105 . S
Sc176 O189 2.105 . S
Sc176 O192 2.105 . S
Sc176 O195 2.105 . S
Sc177 O179 2.025 . S
Sc177 O187 2.105 . S
Sc177 O191 2.105 . S
Sc177 O193 2.105 . S
Sc177 O197 2.105 . S
Sc178 O179 2.025 . S
Sc178 O188 2.105 . S
Sc178 O190 2.105 . S
Sc178 O194 2.105 . S
Sc178 O196 2.105 . S
O179 Sc176 2.025 . S
O179 Sc177 2.025 . S
O179 Sc178 2.025 . S
C180 O186 1.268 . S
C180 O196 1.268 . S
C181 O187 1.268 . S
C181 O195 1.268 . S
C182 O188 1.268 . S
C182 O197 1.268 . S
C183 O189 1.268 . S
C183 O193 1.268 . S
C184 O190 1.268 . S
C184 O192 1.268 . S
C185 O191 1.268 . S
C185 O194 1.268 . S
O186 Sc176 2.105 . S
O186 C180 1.268 . S
O187 Sc177 2.105 . S
O187 C181 1.268 . S
O188 Sc178 2.105 . S
O188 C182 1.268 . S
O189 Sc176 2.105 . S
O189 C183 1.268 . S
O190 Sc178 2.105 . S
O190 C184 1.268 . S
O191 Sc177 2.105 . S
O191 C185 1.268 . S
O192 Sc176 2.105 . S
O192 C184 1.268 . S
O193 Sc177 2.105 . S
O193 C183 1.268 . S
O194 Sc178 2.105 . S
O194 C185 1.268 . S
O195 Sc176 2.105 . S
O195 C181 1.268 . S
O196 Sc178 2.105 . S
O196 C180 1.268 . S
O197 Sc177 2.105 . S
O197 C182 1.268 . S
Sc198 O201 2.025 . S
Sc198 O208 2.105 . S
Sc198 O211 2.105 . S
Sc198 O214 2.105 . S
Sc198 O217 2.105 . S
Sc199 O201 2.025 . S
Sc199 O209 2.105 . S
Sc199 O213 2.105 . S
Sc199 O215 2.105 . S
Sc199 O219 2.105 . S
Sc200 O201 2.025 . S
Sc200 O210 2.105 . S
Sc200 O212 2.105 . S
Sc200 O216 2.105 . S
Sc200 O218 2.105 . S
O201 Sc198 2.025 . S
O201 Sc199 2.025 . S
O201 Sc200 2.025 . S
C202 O208 1.268 . S
C202 O218 1.268 . S
C203 O209 1.268 . S
C203 O217 1.268 . S
C204 O210 1.268 . S
C204 O219 1.268 . S
C205 O211 1.268 . S
C205 O215 1.268 . S
C206 O212 1.268 . S
C206 O214 1.268 . S
C207 O213 1.268 . S
C207 O216 1.268 . S
O208 Sc198 2.105 . S
O208 C202 1.268 . S
O209 Sc199 2.105 . S
O209 C203 1.268 . S
O210 Sc200 2.105 . S
O210 C204 1.268 . S
O211 Sc198 2.105 . S
O211 C205 1.268 . S
O212 Sc200 2.105 . S
O212 C206 1.268 . S
O213 Sc199 2.105 . S
O213 C207 1.268 . S
O214 Sc198 2.105 . S
O214 C206 1.268 . S
O215 Sc199 2.105 . S
O215 C205 1.268 . S
O216 Sc200 2.105 . S
O216 C207 1.268 . S
O217 Sc198 2.105 . S
O217 C203 1.268 . S
O218 Sc200 2.105 . S
O218 C202 1.268 . S
O219 Sc199 2.105 . S
O219 C204 1.268 . S
Sc220 O223 2.025 . S
Sc220 O230 2.105 . S
Sc220 O233 2.105 . S
Sc220 O236 2.105 . S
Sc220 O239 2.105 . S
Sc221 O223 2.025 . S
Sc221 O231 2.105 . S
Sc221 O235 2.105 . S
Sc221 O237 2.105 . S
Sc221 O241 2.105 . S
Sc222 O223 2.025 . S
Sc222 O232 2.105 . S
Sc222 O234 2.105 . S
Sc222 O238 2.105 . S
Sc222 O240 2.105 . S
O223 Sc220 2.025 . S
O223 Sc221 2.025 . S
O223 Sc222 2.025 . S
C224 O230 1.268 . S
C224 O240 1.268 . S
C225 O231 1.268 . S
C225 O239 1.268 . S
C226 O232 1.268 . S
C226 O241 1.268 . S
C227 O233 1.268 . S
C227 O237 1.268 . S
C228 O234 1.268 . S
C228 O236 1.268 . S
C229 O235 1.268 . S
C229 O238 1.268 . S
O230 Sc220 2.105 . S
O230 C224 1.268 . S
O231 Sc221 2.105 . S
O231 C225 1.268 . S
O232 Sc222 2.105 . S
O232 C226 1.268 . S
O233 Sc220 2.105 . S
O233 C227 1.268 . S
O234 Sc222 2.105 . S
O234 C228 1.268 . S
O235 Sc221 2.105 . S
O235 C229 1.268 . S
O236 Sc220 2.105 . S
O236 C228 1.268 . S
O237 Sc221 2.105 . S
O237 C227 1.268 . S
O238 Sc222 2.105 . S
O238 C229 1.268 . S
O239 Sc220 2.105 . S
O239 C225 1.268 . S
O240 Sc222 2.105 . S
O240 C224 1.268 . S
O241 Sc221 2.105 . S
O241 C226 1.268 . S
Sc242 O245 2.025 . S
Sc242 O252 2.105 . S
Sc242 O255 2.105 . S
Sc242 O258 2.105 . S
Sc242 O261 2.105 . S
Sc243 O245 2.025 . S
Sc243 O253 2.105 . S
Sc243 O257 2.105 . S
Sc243 O259 2.105 . S
Sc243 O263 2.105 . S
Sc244 O245 2.025 . S
Sc244 O254 2.105 . S
Sc244 O256 2.105 . S
Sc244 O260 2.105 . S
Sc244 O262 2.105 . S
O245 Sc242 2.025 . S
O245 Sc243 2.025 . S
O245 Sc244 2.025 . S
C246 O252 1.268 . S
C246 O262 1.268 . S
C247 O253 1.268 . S
C247 O261 1.268 . S
C248 O254 1.268 . S
C248 O263 1.268 . S
C249 O255 1.268 . S
C249 O259 1.268 . S
C250 O256 1.268 . S
C250 O258 1.268 . S
C251 O257 1.268 . S
C251 O260 1.268 . S
O252 Sc242 2.105 . S
O252 C246 1.268 . S
O253 Sc243 2.105 . S
O253 C247 1.268 . S
O254 Sc244 2.105 . S
O254 C248 1.268 . S
O255 Sc242 2.105 . S
O255 C249 1.268 . S
O256 Sc244 2.105 . S
O256 C250 1.268 . S
O257 Sc243 2.105 . S
O257 C251 1.268 . S
O258 Sc242 2.105 . S
O258 C250 1.268 . S
O259 Sc243 2.105 . S
O259 C249 1.268 . S
O260 Sc244 2.105 . S
O260 C251 1.268 . S
O261 Sc242 2.105 . S
O261 C247 1.268 . S
O262 Sc244 2.105 . S
O262 C246 1.268 . S
O263 Sc243 2.105 . S
O263 C248 1.268 . S
Sc264 O267 2.025 . S
Sc264 O274 2.105 . S
Sc264 O277 2.105 . S
Sc264 O280 2.105 . S
Sc264 O283 2.105 . S
Sc265 O267 2.025 . S
Sc265 O275 2.105 . S
Sc265 O279 2.105 . S
Sc265 O281 2.105 . S
Sc265 O285 2.105 . S
Sc266 O267 2.025 . S
Sc266 O276 2.105 . S
Sc266 O278 2.105 . S
Sc266 O282 2.105 . S
Sc266 O284 2.105 . S
O267 Sc264 2.025 . S
O267 Sc265 2.025 . S
O267 Sc266 2.025 . S
C268 O274 1.268 . S
C268 O284 1.268 . S
C269 O275 1.268 . S
C269 O283 1.268 . S
C270 O276 1.268 . S
C270 O285 1.268 . S
C271 O277 1.268 . S
C271 O281 1.268 . S
C272 O278 1.268 . S
C272 O280 1.268 . S
C273 O279 1.268 . S
C273 O282 1.268 . S
O274 Sc264 2.105 . S
O274 C268 1.268 . S
O275 Sc265 2.105 . S
O275 C269 1.268 . S
O276 Sc266 2.105 . S
O276 C270 1.268 . S
O277 Sc264 2.105 . S
O277 C271 1.268 . S
O278 Sc266 2.105 . S
O278 C272 1.268 . S
O279 Sc265 2.105 . S
O279 C273 1.268 . S
O280 Sc264 2.105 . S
O280 C272 1.268 . S
O281 Sc265 2.105 . S
O281 C271 1.268 . S
O282 Sc266 2.105 . S
O282 C273 1.268 . S
O283 Sc264 2.105 . S
O283 C269 1.268 . S
O284 Sc266 2.105 . S
O284 C268 1.268 . S
O285 Sc265 2.105 . S
O285 C270 1.268 . S
Sc286 O289 2.025 . S
Sc286 O296 2.105 . S
Sc286 O299 2.105 . S
Sc286 O302 2.105 . S
Sc286 O305 2.105 . S
Sc287 O289 2.025 . S
Sc287 O297 2.105 . S
Sc287 O301 2.105 . S
Sc287 O303 2.105 . S
Sc287 O307 2.105 . S
Sc288 O289 2.025 . S
Sc288 O298 2.105 . S
Sc288 O300 2.105 . S
Sc288 O304 2.105 . S
Sc288 O306 2.105 . S
O289 Sc286 2.025 . S
O289 Sc287 2.025 . S
O289 Sc288 2.025 . S
C290 O296 1.268 . S
C290 O306 1.268 . S
C291 O297 1.268 . S
C291 O305 1.268 . S
C292 O298 1.268 . S
C292 O307 1.268 . S
C293 O299 1.268 . S
C293 O303 1.268 . S
C294 O300 1.268 . S
C294 O302 1.268 . S
C295 O301 1.268 . S
C295 O304 1.268 . S
O296 Sc286 2.105 . S
O296 C290 1.268 . S
O297 Sc287 2.105 . S
O297 C291 1.268 . S
O298 Sc288 2.105 . S
O298 C292 1.268 . S
O299 Sc286 2.105 . S
O299 C293 1.268 . S
O300 Sc288 2.105 . S
O300 C294 1.268 . S
O301 Sc287 2.105 . S
O301 C295 1.268 . S
O302 Sc286 2.105 . S
O302 C294 1.268 . S
O303 Sc287 2.105 . S
O303 C293 1.268 . S
O304 Sc288 2.105 . S
O304 C295 1.268 . S
O305 Sc286 2.105 . S
O305 C291 1.268 . S
O306 Sc288 2.105 . S
O306 C290 1.268 . S
O307 Sc287 2.105 . S
O307 C292 1.268 . S
Sc308 O311 2.025 . S
Sc308 O318 2.105 . S
Sc308 O321 2.105 . S
Sc308 O324 2.105 . S
Sc308 O327 2.105 . S
Sc309 O311 2.025 . S
Sc309 O319 2.105 . S
Sc309 O323 2.105 . S
Sc309 O325 2.105 . S
Sc309 O329 2.105 . S
Sc310 O311 2.025 . S
Sc310 O320 2.105 . S
Sc310 O322 2.105 . S
Sc310 O326 2.105 . S
Sc310 O328 2.105 . S
O311 Sc308 2.025 . S
O311 Sc309 2.025 . S
O311 Sc310 2.025 . S
C312 O318 1.268 . S
C312 O328 1.268 . S
C313 O319 1.268 . S
C313 O327 1.268 . S
C314 O320 1.268 . S
C314 O329 1.268 . S
C315 O321 1.268 . S
C315 O325 1.268 . S
C316 O322 1.268 . S
C316 O324 1.268 . S
C317 O323 1.268 . S
C317 O326 1.268 . S
O318 Sc308 2.105 . S
O318 C312 1.268 . S
O319 Sc309 2.105 . S
O319 C313 1.268 . S
O320 Sc310 2.105 . S
O320 C314 1.268 . S
O321 Sc308 2.105 . S
O321 C315 1.268 . S
O322 Sc310 2.105 . S
O322 C316 1.268 . S
O323 Sc309 2.105 . S
O323 C317 1.268 . S
O324 Sc308 2.105 . S
O324 C316 1.268 . S
O325 Sc309 2.105 . S
O325 C315 1.268 . S
O326 Sc310 2.105 . S
O326 C317 1.268 . S
O327 Sc308 2.105 . S
O327 C313 1.268 . S
O328 Sc310 2.105 . S
O328 C312 1.268 . S
O329 Sc309 2.105 . S
O329 C314 1.268 . S
Sc330 O333 2.025 . S
Sc330 O340 2.105 . S
Sc330 O343 2.105 . S
Sc330 O346 2.105 . S
Sc330 O349 2.105 . S
Sc331 O333 2.025 . S
Sc331 O341 2.105 . S
Sc331 O345 2.105 . S
Sc331 O347 2.105 . S
Sc331 O351 2.105 . S
Sc332 O333 2.025 . S
Sc332 O342 2.105 . S
Sc332 O344 2.105 . S
Sc332 O348 2.105 . S
Sc332 O350 2.105 . S
O333 Sc330 2.025 . S
O333 Sc331 2.025 . S
O333 Sc332 2.025 . S
C334 O340 1.268 . S
C334 O350 1.268 . S
C335 O341 1.268 . S
C335 O349 1.268 . S
C336 O342 1.268 . S
C336 O351 1.268 . S
C337 O343 1.268 . S
C337 O347 1.268 . S
C338 O344 1.268 . S
C338 O346 1.268 . S
C339 O345 1.268 . S
C339 O348 1.268 . S
O340 Sc330 2.105 . S
O340 C334 1.268 . S
O341 Sc331 2.105 . S
O341 C335 1.268 . S
O342 Sc332 2.105 . S
O342 C336 1.268 . S
O343 Sc330 2.105 . S
O343 C337 1.268 . S
O344 Sc332 2.105 . S
O344 C338 1.268 . S
O345 Sc331 2.105 . S
O345 C339 1.268 . S
O346 Sc330 2.105 . S
O346 C338 1.268 . S
O347 Sc331 2.105 . S
O347 C337 1.268 . S
O348 Sc332 2.105 . S
O348 C339 1.268 . S
O349 Sc330 2.105 . S
O349 C335 1.268 . S
O350 Sc332 2.105 . S
O350 C334 1.268 . S
O351 Sc331 2.105 . S
O351 C336 1.268 . S
C352 C353 1.363 . S
C352 C358 1.379 . S
C352 N360 1.356 . S
C353 C352 1.363 . S
C353 C359 1.363 . S
C354 C355 1.363 . S
C354 C359 1.379 . S
C354 N361 1.356 . S
C355 C354 1.363 . S
C355 C358 1.363 . S
N356 C358 1.356 . S
N356 H368 0.984 . S
N356 H369 0.985 . S
N357 C359 1.356 . S
N357 H362 0.984 . S
N357 H363 0.985 . S
C358 C352 1.379 . S
C358 C355 1.363 . S
C358 N356 1.356 . S
C359 C353 1.363 . S
C359 C354 1.379 . S
C359 N357 1.356 . S
N360 C352 1.356 . S
N360 H366 0.984 . S
N360 H367 0.984 . S
N361 C354 1.356 . S
N361 H364 0.984 . S
N361 H365 0.985 . S
H362 N357 0.984 . S
H363 N357 0.985 . S
H364 N361 0.984 . S
H365 N361 0.985 . S
H366 N360 0.984 . S
H367 N360 0.984 . S
H368 N356 0.984 . S
H369 N356 0.985 . S
C370 C371 1.363 . S
C370 C376 1.379 . S
C370 N378 1.356 . S
C371 C370 1.363 . S
C371 C377 1.363 . S
C372 C373 1.363 . S
C372 C377 1.379 . S
C372 N379 1.356 . S
C373 C372 1.363 . S
C373 C376 1.363 . S
N374 C376 1.356 . S
N374 H386 0.984 . S
N374 H387 0.985 . S
N375 C377 1.356 . S
N375 H380 0.984 . S
N375 H381 0.985 . S
C376 C370 1.379 . S
C376 C373 1.363 . S
C376 N374 1.356 . S
C377 C371 1.363 . S
C377 C372 1.379 . S
C377 N375 1.356 . S
N378 C370 1.356 . S
N378 H384 0.984 . S
N378 H385 0.984 . S
N379 C372 1.356 . S
N379 H382 0.984 . S
N379 H383 0.985 . S
H380 N375 0.984 . S
H381 N375 0.985 . S
H382 N379 0.984 . S
H383 N379 0.985 . S
H384 N378 0.984 . S
H385 N378 0.984 . S
H386 N374 0.984 . S
H387 N374 0.985 . S
C388 C389 1.363 . S
C388 C394 1.379 . S
C388 N396 1.356 . S
C389 C388 1.363 . S
C389 C395 1.363 . S
C390 C391 1.363 . S
C390 C395 1.379 . S
C390 N397 1.356 . S
C391 C390 1.363 . S
C391 C394 1.363 . S
N392 C394 1.356 . S
N392 H404 0.984 . S
N392 H405 0.985 . S
N393 C395 1.356 . S
N393 H398 0.984 . S
N393 H399 0.985 . S
C394 C388 1.379 . S
C394 C391 1.363 . S
C394 N392 1.356 . S
C395 C389 1.363 . S
C395 C390 1.379 . S
C395 N393 1.356 . S
N396 C388 1.356 . S
N396 H402 0.984 . S
N396 H403 0.984 . S
N397 C390 1.356 . S
N397 H400 0.984 . S
N397 H401 0.985 . S
H398 N393 0.984 . S
H399 N393 0.985 . S
H400 N397 0.984 . S
H401 N397 0.985 . S
H402 N396 0.984 . S
H403 N396 0.984 . S
H404 N392 0.984 . S
H405 N392 0.985 . S
C406 C407 1.363 . S
C406 C412 1.379 . S
C406 N414 1.356 . S
C407 C406 1.363 . S
C407 C413 1.363 . S
C408 C409 1.363 . S
C408 C413 1.379 . S
C408 N415 1.356 . S
C409 C408 1.363 . S
C409 C412 1.363 . S
N410 C412 1.356 . S
N410 H422 0.984 . S
N410 H423 0.985 . S
N411 C413 1.356 . S
N411 H416 0.984 . S
N411 H417 0.985 . S
C412 C406 1.379 . S
C412 C409 1.363 . S
C412 N410 1.356 . S
C413 C407 1.363 . S
C413 C408 1.379 . S
C413 N411 1.356 . S
N414 C406 1.356 . S
N414 H420 0.984 . S
N414 H421 0.984 . S
N415 C408 1.356 . S
N415 H418 0.984 . S
N415 H419 0.985 . S
H416 N411 0.984 . S
H417 N411 0.985 . S
H418 N415 0.984 . S
H419 N415 0.985 . S
H420 N414 0.984 . S
H421 N414 0.984 . S
H422 N410 0.984 . S
H423 N410 0.985 . S
C424 C425 1.363 . S
C424 C430 1.379 . S
C424 N432 1.356 . S
C425 C424 1.363 . S
C425 C431 1.363 . S
C426 C427 1.363 . S
C426 C431 1.379 . S
C426 N433 1.356 . S
C427 C426 1.363 . S
C427 C430 1.363 . S
N428 C430 1.356 . S
N428 H440 0.984 . S
N428 H441 0.985 . S
N429 C431 1.356 . S
N429 H434 0.984 . S
N429 H435 0.985 . S
C430 C424 1.379 . S
C430 C427 1.363 . S
C430 N428 1.356 . S
C431 C425 1.363 . S
C431 C426 1.379 . S
C431 N429 1.356 . S
N432 C424 1.356 . S
N432 H438 0.984 . S
N432 H439 0.984 . S
N433 C426 1.356 . S
N433 H436 0.984 . S
N433 H437 0.985 . S
H434 N429 0.984 . S
H435 N429 0.985 . S
H436 N433 0.984 . S
H437 N433 0.985 . S
H438 N432 0.984 . S
H439 N432 0.984 . S
H440 N428 0.984 . S
H441 N428 0.985 . S
C442 C443 1.363 . S
C442 C448 1.379 . S
C442 N450 1.356 . S
C443 C442 1.363 . S
C443 C449 1.363 . S
C444 C445 1.363 . S
C444 C449 1.379 . S
C444 N451 1.356 . S
C445 C444 1.363 . S
C445 C448 1.363 . S
N446 C448 1.356 . S
N446 H458 0.984 . S
N446 H459 0.985 . S
N447 C449 1.356 . S
N447 H452 0.984 . S
N447 H453 0.985 . S
C448 C442 1.379 . S
C448 C445 1.363 . S
C448 N446 1.356 . S
C449 C443 1.363 . S
C449 C444 1.379 . S
C449 N447 1.356 . S
N450 C442 1.356 . S
N450 H456 0.984 . S
N450 H457 0.984 . S
N451 C444 1.356 . S
N451 H454 0.984 . S
N451 H455 0.985 . S
H452 N447 0.984 . S
H453 N447 0.985 . S
H454 N451 0.984 . S
H455 N451 0.985 . S
H456 N450 0.984 . S
H457 N450 0.984 . S
H458 N446 0.984 . S
H459 N446 0.985 . S
C460 C461 1.363 . S
C460 C466 1.379 . S
C460 N468 1.356 . S
C461 C460 1.363 . S
C461 C467 1.363 . S
C462 C463 1.363 . S
C462 C467 1.379 . S
C462 N469 1.356 . S
C463 C462 1.363 . S
C463 C466 1.363 . S
N464 C466 1.356 . S
N464 H476 0.984 . S
N464 H477 0.985 . S
N465 C467 1.356 . S
N465 H470 0.984 . S
N465 H471 0.985 . S
C466 C460 1.379 . S
C466 C463 1.363 . S
C466 N464 1.356 . S
C467 C461 1.363 . S
C467 C462 1.379 . S
C467 N465 1.356 . S
N468 C460 1.356 . S
N468 H474 0.984 . S
N468 H475 0.984 . S
N469 C462 1.356 . S
N469 H472 0.984 . S
N469 H473 0.985 . S
H470 N465 0.984 . S
H471 N465 0.985 . S
H472 N469 0.984 . S
H473 N469 0.985 . S
H474 N468 0.984 . S
H475 N468 0.984 . S
H476 N464 0.984 . S
H477 N464 0.985 . S
C478 C479 1.363 . S
C478 C484 1.379 . S
C478 N486 1.356 . S
C479 C478 1.363 . S
C479 C485 1.363 . S
C480 C481 1.363 . S
C480 C485 1.379 . S
C480 N487 1.356 . S
C481 C480 1.363 . S
C481 C484 1.363 . S
N482 C484 1.356 . S
N482 H494 0.984 . S
N482 H495 0.985 . S
N483 C485 1.356 . S
N483 H488 0.984 . S
N483 H489 0.985 . S
C484 C478 1.379 . S
C484 C481 1.363 . S
C484 N482 1.356 . S
C485 C479 1.363 . S
C485 C480 1.379 . S
C485 N483 1.356 . S
N486 C478 1.356 . S
N486 H492 0.984 . S
N486 H493 0.984 . S
N487 C480 1.356 . S
N487 H490 0.984 . S
N487 H491 0.985 . S
H488 N483 0.984 . S
H489 N483 0.985 . S
H490 N487 0.984 . S
H491 N487 0.985 . S
H492 N486 0.984 . S
H493 N486 0.984 . S
H494 N482 0.984 . S
H495 N482 0.985 . S
C496 C497 1.363 . S
C496 C502 1.379 . S
C496 N504 1.356 . S
C497 C496 1.363 . S
C497 C503 1.363 . S
C498 C499 1.363 . S
C498 C503 1.379 . S
C498 N505 1.356 . S
C499 C498 1.363 . S
C499 C502 1.363 . S
N500 C502 1.356 . S
N500 H512 0.984 . S
N500 H513 0.985 . S
N501 C503 1.356 1_565 S
N501 H506 0.984 . S
N501 H507 0.985 . S
C502 C496 1.379 . S
C502 C499 1.363 . S
C502 N500 1.356 . S
C503 C497 1.363 . S
C503 C498 1.379 . S
C503 N501 1.356 1_545 S
N504 C496 1.356 . S
N504 H510 0.984 . S
N504 H511 0.984 1_545 S
N505 C498 1.356 . S
N505 H508 0.984 . S
N505 H509 0.985 . S
H506 N501 0.984 . S
H507 N501 0.985 . S
H508 N505 0.984 . S
H509 N505 0.985 . S
H510 N504 0.984 . S
H511 N504 0.984 1_565 S
H512 N500 0.984 . S
H513 N500 0.985 . S
C514 C515 1.363 . S
C514 C520 1.379 . S
C514 N522 1.356 . S
C515 C514 1.363 . S
C515 C521 1.363 . S
C516 C517 1.363 . S
C516 C521 1.379 . S
C516 N523 1.356 . S
C517 C516 1.363 . S
C517 C520 1.363 . S
N518 C520 1.356 1_655 S
N518 H530 0.984 . S
N518 H531 0.985 . S
N519 C521 1.356 . S
N519 H524 0.984 . S
N519 H525 0.985 . S
C520 C514 1.379 . S
C520 C517 1.363 . S
C520 N518 1.356 1_455 S
C521 C515 1.363 . S
C521 C516 1.379 . S
C521 N519 1.356 . S
N522 C514 1.356 . S
N522 H528 0.984 . S
N522 H529 0.984 . S
N523 C516 1.356 . S
N523 H526 0.984 1_455 S
N523 H527 0.985 . S
H524 N519 0.984 . S
H525 N519 0.985 . S
H526 N523 0.984 1_655 S
H527 N523 0.985 . S
H528 N522 0.984 . S
H529 N522 0.984 . S
H530 N518 0.984 . S
H531 N518 0.985 . S
C532 C533 1.363 . S
C532 C538 1.379 . S
C532 N540 1.356 . S
C533 C532 1.363 . S
C533 C539 1.363 . S
C534 C535 1.363 . S
C534 C539 1.379 . S
C534 N541 1.356 . S
C535 C534 1.363 . S
C535 C538 1.363 . S
N536 C538 1.356 1_545 S
N536 H548 0.984 . S
N536 H549 0.985 . S
N537 C539 1.356 . S
N537 H542 0.984 . S
N537 H543 0.985 . S
C538 C532 1.379 . S
C538 C535 1.363 . S
C538 N536 1.356 1_565 S
C539 C533 1.363 . S
C539 C534 1.379 . S
C539 N537 1.356 . S
N540 C532 1.356 . S
N540 H546 0.984 . S
N540 H547 0.984 . S
N541 C534 1.356 . S
N541 H544 0.984 1_565 S
N541 H545 0.985 . S
H542 N537 0.984 . S
H543 N537 0.985 . S
H544 N541 0.984 1_545 S
H545 N541 0.985 . S
H546 N540 0.984 . S
H547 N540 0.984 . S
H548 N536 0.984 . S
H549 N536 0.985 . S
C550 C551 1.363 . S
C550 C556 1.379 . S
C550 N558 1.356 1_655 S
C551 C550 1.363 . S
C551 C557 1.363 . S
C552 C553 1.363 . S
C552 C557 1.379 . S
C552 N559 1.356 . S
C553 C552 1.363 . S
C553 C556 1.363 . S
N554 C556 1.356 . S
N554 H566 0.984 . S
N554 H567 0.985 . S
N555 C557 1.356 . S
N555 H560 0.984 1_655 S
N555 H561 0.985 . S
C556 C550 1.379 . S
C556 C553 1.363 . S
C556 N554 1.356 . S
C557 C551 1.363 . S
C557 C552 1.379 . S
C557 N555 1.356 . S
N558 C550 1.356 1_455 S
N558 H564 0.984 . S
N558 H565 0.984 . S
N559 C552 1.356 . S
N559 H562 0.984 . S
N559 H563 0.985 . S
H560 N555 0.984 1_455 S
H561 N555 0.985 . S
H562 N559 0.984 . S
H563 N559 0.985 . S
H564 N558 0.984 . S
H565 N558 0.984 . S
H566 N554 0.984 . S
H567 N554 0.985 . S
C568 C569 1.363 . S
C568 C574 1.379 . S
C568 N576 1.356 1_565 S
C569 C568 1.363 . S
C569 C575 1.363 . S
C570 C571 1.363 . S
C570 C575 1.379 . S
C570 N577 1.356 . S
C571 C570 1.363 . S
C571 C574 1.363 . S
N572 C574 1.356 . S
N572 H584 0.984 . S
N572 H585 0.985 . S
N573 C575 1.356 1_545 S
N573 H578 0.984 . S
N573 H579 0.985 1_545 S
C574 C568 1.379 . S
C574 C571 1.363 . S
C574 N572 1.356 . S
C575 C569 1.363 . S
C575 C570 1.379 . S
C575 N573 1.356 1_565 S
N576 C568 1.356 1_545 S
N576 H582 0.984 1_545 S
N576 H583 0.984 . S
N577 C570 1.356 . S
N577 H580 0.984 . S
N577 H581 0.985 . S
H578 N573 0.984 . S
H579 N573 0.985 1_565 S
H580 N577 0.984 . S
H581 N577 0.985 . S
H582 N576 0.984 1_565 S
H583 N576 0.984 . S
H584 N572 0.984 . S
H585 N572 0.985 . S
C586 C587 1.363 . S
C586 C592 1.379 . S
C586 N594 1.356 . S
C587 C586 1.363 . S
C587 C593 1.363 . S
C588 C589 1.363 . S
C588 C593 1.379 . S
C588 N595 1.356 1_655 S
C589 C588 1.363 . S
C589 C592 1.363 . S
N590 C592 1.356 . S
N590 H602 0.984 . S
N590 H603 0.985 1_655 S
N591 C593 1.356 . S
N591 H596 0.984 . S
N591 H597 0.985 . S
C592 C586 1.379 . S
C592 C589 1.363 . S
C592 N590 1.356 . S
C593 C587 1.363 . S
C593 C588 1.379 . S
C593 N591 1.356 . S
N594 C586 1.356 . S
N594 H600 0.984 . S
N594 H601 0.984 . S
N595 C588 1.356 1_455 S
N595 H598 0.984 . S
N595 H599 0.985 . S
H596 N591 0.984 . S
H597 N591 0.985 . S
H598 N595 0.984 . S
H599 N595 0.985 . S
H600 N594 0.984 . S
H601 N594 0.984 . S
H602 N590 0.984 . S
H603 N590 0.985 1_455 S
C604 C605 1.363 . S
C604 C610 1.379 . S
C604 N612 1.356 . S
C605 C604 1.363 . S
C605 C611 1.363 . S
C606 C607 1.363 . S
C606 C611 1.379 . S
C606 N613 1.356 . S
C607 C606 1.363 . S
C607 C610 1.363 . S
N608 C610 1.356 1_565 S
N608 H620 0.984 . S
N608 H621 0.985 . S
N609 C611 1.356 . S
N609 H614 0.984 . S
N609 H615 0.985 . S
C610 C604 1.379 . S
C610 C607 1.363 . S
C610 N608 1.356 1_545 S
C611 C605 1.363 . S
C611 C606 1.379 . S
C611 N609 1.356 . S
N612 C604 1.356 . S
N612 H618 0.984 . S
N612 H619 0.984 . S
N613 C606 1.356 . S
N613 H616 0.984 1_545 S
N613 H617 0.985 . S
H614 N609 0.984 . S
H615 N609 0.985 . S
H616 N613 0.984 1_565 S
H617 N613 0.985 . S
H618 N612 0.984 . S
H619 N612 0.984 . S
H620 N608 0.984 . S
H621 N608 0.985 . S
C622 C623 1.363 . S
C622 C628 1.379 . S
C622 N630 1.356 . S
C623 C622 1.363 . S
C623 C629 1.363 . S
C624 C625 1.363 . S
C624 C629 1.379 . S
C624 N631 1.356 1_455 S
C625 C624 1.363 . S
C625 C628 1.363 . S
N626 C628 1.356 . S
N626 H638 0.984 . S
N626 H639 0.985 1_455 S
N627 C629 1.356 . S
N627 H632 0.984 . S
N627 H633 0.985 . S
C628 C622 1.379 . S
C628 C625 1.363 . S
C628 N626 1.356 . S
C629 C623 1.363 . S
C629 C624 1.379 . S
C629 N627 1.356 . S
N630 C622 1.356 . S
N630 H636 0.984 . S
N630 H637 0.984 . S
N631 C624 1.356 1_655 S
N631 H634 0.984 . S
N631 H635 0.985 . S
H632 N627 0.984 . S
H633 N627 0.985 . S
H634 N631 0.984 . S
H635 N631 0.985 . S
H636 N630 0.984 . S
H637 N630 0.984 . S
H638 N626 0.984 . S
H639 N626 0.985 1_655 S
C640 C641 1.363 . S
C640 C646 1.379 . S
C640 N648 1.356 . S
C641 C640 1.363 . S
C641 C647 1.363 . S
C642 C643 1.363 . S
C642 C647 1.379 . S
C642 N649 1.356 . S
C643 C642 1.363 . S
C643 C646 1.363 . S
N644 C646 1.356 . S
N644 H656 0.984 . S
N644 H657 0.985 . S
N645 C647 1.356 . S
N645 H650 0.984 . S
N645 H651 0.985 . S
C646 C640 1.379 . S
C646 C643 1.363 . S
C646 N644 1.356 . S
C647 C641 1.363 . S
C647 C642 1.379 . S
C647 N645 1.356 . S
N648 C640 1.356 . S
N648 H654 0.984 . S
N648 H655 0.984 . S
N649 C642 1.356 . S
N649 H652 0.984 . S
N649 H653 0.985 . S
H650 N645 0.984 . S
H651 N645 0.985 . S
H652 N649 0.984 . S
H653 N649 0.985 . S
H654 N648 0.984 . S
H655 N648 0.984 . S
H656 N644 0.984 . S
H657 N644 0.985 . S
C658 C659 1.363 . S
C658 C664 1.379 . S
C658 N666 1.356 . S
C659 C658 1.363 . S
C659 C665 1.363 . S
C660 C661 1.363 . S
C660 C665 1.379 . S
C660 N667 1.356 . S
C661 C660 1.363 . S
C661 C664 1.363 . S
N662 C664 1.356 . S
N662 H674 0.984 . S
N662 H675 0.985 . S
N663 C665 1.356 . S
N663 H668 0.984 . S
N663 H669 0.985 . S
C664 C658 1.379 . S
C664 C661 1.363 . S
C664 N662 1.356 . S
C665 C659 1.363 . S
C665 C660 1.379 . S
C665 N663 1.356 . S
N666 C658 1.356 . S
N666 H672 0.984 . S
N666 H673 0.984 . S
N667 C660 1.356 . S
N667 H670 0.984 . S
N667 H671 0.985 . S
H668 N663 0.984 . S
H669 N663 0.985 . S
H670 N667 0.984 . S
H671 N667 0.985 . S
H672 N666 0.984 . S
H673 N666 0.984 . S
H674 N662 0.984 . S
H675 N662 0.985 . S
C676 C677 1.363 . S
C676 C682 1.379 . S
C676 N684 1.356 . S
C677 C676 1.363 . S
C677 C683 1.363 . S
C678 C679 1.363 . S
C678 C683 1.379 . S
C678 N685 1.356 . S
C679 C678 1.363 . S
C679 C682 1.363 . S
N680 C682 1.356 . S
N680 H692 0.984 . S
N680 H693 0.985 . S
N681 C683 1.356 . S
N681 H686 0.984 . S
N681 H687 0.985 . S
C682 C676 1.379 . S
C682 C679 1.363 . S
C682 N680 1.356 . S
C683 C677 1.363 . S
C683 C678 1.379 . S
C683 N681 1.356 . S
N684 C676 1.356 . S
N684 H690 0.984 . S
N684 H691 0.984 . S
N685 C678 1.356 . S
N685 H688 0.984 . S
N685 H689 0.985 . S
H686 N681 0.984 . S
H687 N681 0.985 . S
H688 N685 0.984 . S
H689 N685 0.985 . S
H690 N684 0.984 . S
H691 N684 0.984 . S
H692 N680 0.984 . S
H693 N680 0.985 . S
C694 C695 1.363 . S
C694 C700 1.379 . S
C694 N702 1.356 . S
C695 C694 1.363 . S
C695 C701 1.363 . S
C696 C697 1.363 . S
C696 C701 1.379 . S
C696 N703 1.356 . S
C697 C696 1.363 . S
C697 C700 1.363 . S
N698 C700 1.356 . S
N698 H710 0.984 . S
N698 H711 0.985 . S
N699 C701 1.356 . S
N699 H704 0.984 . S
N699 H705 0.985 . S
C700 C694 1.379 . S
C700 C697 1.363 . S
C700 N698 1.356 . S
C701 C695 1.363 . S
C701 C696 1.379 . S
C701 N699 1.356 . S
N702 C694 1.356 . S
N702 H708 0.984 . S
N702 H709 0.984 . S
N703 C696 1.356 . S
N703 H706 0.984 . S
N703 H707 0.985 . S
H704 N699 0.984 . S
H705 N699 0.985 . S
H706 N703 0.984 . S
H707 N703 0.985 . S
H708 N702 0.984 . S
H709 N702 0.984 . S
H710 N698 0.984 . S
H711 N698 0.985 . S
C712 C713 1.363 1_565 S
C712 C718 1.379 . S
C712 N720 1.356 . S
C713 C712 1.363 1_545 S
C713 C719 1.363 1_554 S
C714 C715 1.363 1_545 S
C714 C719 1.379 . S
C714 N721 1.356 . S
C715 C714 1.363 1_565 S
C715 C718 1.363 1_556 S
N716 C718 1.356 . S
N716 H728 0.984 . S
N716 H729 0.985 1_554 S
N717 C719 1.356 . S
N717 H722 0.984 1_556 S
N717 H723 0.985 . S
C718 C712 1.379 . S
C718 C715 1.363 1_554 S
C718 N716 1.356 . S
C719 C713 1.363 1_556 S
C719 C714 1.379 . S
C719 N717 1.356 . S
N720 C712 1.356 . S
N720 H726 0.984 . S
N720 H727 0.984 1_565 S
N721 C714 1.356 . S
N721 H724 0.984 1_545 S
N721 H725 0.985 . S
H722 N717 0.984 1_554 S
H723 N717 0.985 . S
H724 N721 0.984 1_565 S
H725 N721 0.985 . S
H726 N720 0.984 . S
H727 N720 0.984 1_545 S
H728 N716 0.984 . S
H729 N716 0.985 1_556 S
C730 C731 1.363 . S
C730 C736 1.379 1_655 S
C730 N738 1.356 . S
C731 C730 1.363 . S
C731 C737 1.363 1_554 S
C732 C733 1.363 . S
C732 C737 1.379 1_455 S
C732 N739 1.356 . S
C733 C732 1.363 . S
C733 C736 1.363 1_556 S
N734 C736 1.356 1_556 S
N734 H746 0.984 1_556 S
N734 H747 0.985 . S
N735 C737 1.356 1_554 S
N735 H740 0.984 . S
N735 H741 0.985 1_554 S
C736 C730 1.379 1_455 S
C736 C733 1.363 1_554 S
C736 N734 1.356 1_554 S
C737 C731 1.363 1_556 S
C737 C732 1.379 1_655 S
C737 N735 1.356 1_556 S
N738 C730 1.356 . S
N738 H744 0.984 1_655 S
N738 H745 0.984 . S
N739 C732 1.356 . S
N739 H742 0.984 . S
N739 H743 0.985 1_455 S
H740 N735 0.984 . S
H741 N735 0.985 1_556 S
H742 N739 0.984 . S
H743 N739 0.985 1_655 S
H744 N738 0.984 1_455 S
H745 N738 0.984 . S
H746 N734 0.984 1_554 S
H747 N734 0.985 . S
C748 C749 1.362 . S
C748 C754 1.380 1_545 S
C748 N756 1.356 . S
C749 C748 1.362 . S
C749 C755 1.363 1_556 S
C750 C751 1.362 . S
C750 C755 1.380 1_565 S
C750 N757 1.356 . S
C751 C750 1.362 . S
C751 C754 1.363 1_554 S
N752 C754 1.356 1_554 S
N752 H764 0.984 1_554 S
N752 H765 0.985 . S
N753 C755 1.356 1_556 S
N753 H758 0.984 . S
N753 H759 0.985 1_556 S
C754 C748 1.380 1_565 S
C754 C751 1.363 1_556 S
C754 N752 1.356 1_556 S
C755 C749 1.363 1_554 S
C755 C750 1.380 1_545 S
C755 N753 1.356 1_554 S
N756 C748 1.356 . S
N756 H762 0.984 1_545 S
N756 H763 0.984 . S
N757 C750 1.356 . S
N757 H760 0.984 . S
N757 H761 0.985 1_565 S
H758 N753 0.984 . S
H759 N753 0.985 1_554 S
H760 N757 0.984 . S
H761 N757 0.985 1_545 S
H762 N756 0.984 1_565 S
H763 N756 0.984 . S
H764 N752 0.984 1_556 S
H765 N752 0.985 . S
C766 C767 1.363 1_554 S
C766 C772 1.379 1_655 S
C766 N774 1.356 1_554 S
C767 C766 1.363 1_556 S
C767 C773 1.363 . S
C768 C769 1.363 1_556 S
C768 C773 1.379 1_455 S
C768 N775 1.356 1_556 S
C769 C768 1.363 1_554 S
C769 C772 1.363 . S
N770 C772 1.356 . S
N770 H782 0.984 1_455 S
N770 H783 0.985 . S
N771 C773 1.356 . S
N771 H776 0.984 . S
N771 H777 0.985 1_655 S
C772 C766 1.379 1_455 S
C772 C769 1.363 . S
C772 N770 1.356 . S
C773 C767 1.363 . S
C773 C768 1.379 1_655 S
C773 N771 1.356 . S
N774 C766 1.356 1_556 S
N774 H780 0.984 1_556 S
N774 H781 0.984 . S
N775 C768 1.356 1_554 S
N775 H778 0.984 . S
N775 H779 0.985 1_554 S
H776 N771 0.984 . S
H777 N771 0.985 1_455 S
H778 N775 0.984 . S
H779 N775 0.985 1_556 S
H780 N774 0.984 1_554 S
H781 N774 0.984 . S
H782 N770 0.984 1_655 S
H783 N770 0.985 . S
C784 C785 1.363 . S
C784 C790 1.379 . S
C784 N792 1.356 . S
C785 C784 1.363 . S
C785 C791 1.363 . S
C786 C787 1.363 . S
C786 C791 1.379 . S
C786 N793 1.356 . S
C787 C786 1.363 . S
C787 C790 1.363 . S
N788 C790 1.356 . S
N788 H800 0.984 . S
N788 H801 0.985 1_554 S
N789 C791 1.356 . S
N789 H794 0.984 . S
N789 H795 0.985 . S
C790 C784 1.379 . S
C790 C787 1.363 . S
C790 N788 1.356 . S
C791 C785 1.363 . S
C791 C786 1.379 . S
C791 N789 1.356 . S
N792 C784 1.356 . S
N792 H798 0.984 . S
N792 H799 0.984 . S
N793 C786 1.356 . S
N793 H796 0.984 1_554 S
N793 H797 0.985 . S
H794 N789 0.984 . S
H795 N789 0.985 . S
H796 N793 0.984 1_556 S
H797 N793 0.985 . S
H798 N792 0.984 . S
H799 N792 0.984 . S
H800 N788 0.984 . S
H801 N788 0.985 1_556 S
C802 C803 1.363 . S
C802 C808 1.379 . S
C802 N810 1.356 1_556 S
C803 C802 1.363 . S
C803 C809 1.363 . S
C804 C805 1.363 . S
C804 C809 1.379 . S
C804 N811 1.356 . S
C805 C804 1.363 . S
C805 C808 1.363 . S
N806 C808 1.356 . S
N806 H818 0.984 . S
N806 H819 0.985 . S
N807 C809 1.356 . S
N807 H812 0.984 . S
N807 H813 0.985 . S
C808 C802 1.379 . S
C808 C805 1.363 . S
C808 N806 1.356 . S
C809 C803 1.363 . S
C809 C804 1.379 . S
C809 N807 1.356 . S
N810 C802 1.356 1_554 S
N810 H816 0.984 . S
N810 H817 0.984 . S
N811 C804 1.356 . S
N811 H814 0.984 . S
N811 H815 0.985 . S
H812 N807 0.984 . S
H813 N807 0.985 . S
H814 N811 0.984 . S
H815 N811 0.985 . S
H816 N810 0.984 . S
H817 N810 0.984 . S
H818 N806 0.984 . S
H819 N806 0.985 . S
C820 C821 1.363 . S
C820 C826 1.379 . S
C820 N828 1.356 1_554 S
C821 C820 1.363 . S
C821 C827 1.363 . S
C822 C823 1.363 . S
C822 C827 1.379 . S
C822 N829 1.356 . S
C823 C822 1.363 . S
C823 C826 1.363 . S
N824 C826 1.356 . S
N824 H836 0.984 . S
N824 H837 0.985 . S
N825 C827 1.356 . S
N825 H830 0.984 . S
N825 H831 0.985 . S
C826 C820 1.379 . S
C826 C823 1.363 . S
C826 N824 1.356 . S
C827 C821 1.363 . S
C827 C822 1.379 . S
C827 N825 1.356 . S
N828 C820 1.356 1_556 S
N828 H834 0.984 . S
N828 H835 0.984 . S
N829 C822 1.356 . S
N829 H832 0.984 . S
N829 H833 0.985 . S
H830 N825 0.984 . S
H831 N825 0.985 . S
H832 N829 0.984 . S
H833 N829 0.985 . S
H834 N828 0.984 . S
H835 N828 0.984 . S
H836 N824 0.984 . S
H837 N824 0.985 . S
C838 C839 1.363 . S
C838 C844 1.379 . S
C838 N846 1.356 1_556 S
C839 C838 1.363 . S
C839 C845 1.363 . S
C840 C841 1.363 . S
C840 C845 1.379 . S
C840 N847 1.356 . S
C841 C840 1.363 . S
C841 C844 1.363 . S
N842 C844 1.356 . S
N842 H854 0.984 . S
N842 H855 0.985 . S
N843 C845 1.356 . S
N843 H848 0.984 . S
N843 H849 0.985 . S
C844 C838 1.379 . S
C844 C841 1.363 . S
C844 N842 1.356 . S
C845 C839 1.363 . S
C845 C840 1.379 . S
C845 N843 1.356 . S
N846 C838 1.356 1_554 S
N846 H852 0.984 . S
N846 H853 0.984 . S
N847 C840 1.356 . S
N847 H850 0.984 . S
N847 H851 0.985 . S
H848 N843 0.984 . S
H849 N843 0.985 . S
H850 N847 0.984 . S
H851 N847 0.985 . S
H852 N846 0.984 . S
H853 N846 0.984 . S
H854 N842 0.984 . S
H855 N842 0.985 . S
C856 C857 1.363 . S
C856 C862 1.379 . S
C856 N864 1.356 . S
C857 C856 1.363 . S
C857 C863 1.363 . S
C858 C859 1.363 . S
C858 C863 1.379 . S
C858 N865 1.356 . S
C859 C858 1.363 . S
C859 C862 1.363 . S
N860 C862 1.356 . S
N860 H872 0.984 . S
N860 H873 0.985 1_556 S
N861 C863 1.356 . S
N861 H866 0.984 . S
N861 H867 0.985 . S
C862 C856 1.379 . S
C862 C859 1.363 . S
C862 N860 1.356 . S
C863 C857 1.363 . S
C863 C858 1.379 . S
C863 N861 1.356 . S
N864 C856 1.356 . S
N864 H870 0.984 . S
N864 H871 0.984 . S
N865 C858 1.356 . S
N865 H868 0.984 1_556 S
N865 H869 0.985 . S
H866 N861 0.984 . S
H867 N861 0.985 . S
H868 N865 0.984 1_554 S
H869 N865 0.985 . S
H870 N864 0.984 . S
H871 N864 0.984 . S
H872 N860 0.984 . S
H873 N860 0.985 1_554 S
C874 C875 1.363 . S
C874 C880 1.379 . S
C874 N882 1.356 . S
C875 C874 1.363 . S
C875 C881 1.363 . S
C876 C877 1.363 . S
C876 C881 1.379 . S
C876 N883 1.356 1_554 S
C877 C876 1.363 . S
C877 C880 1.363 . S
N878 C880 1.356 . S
N878 H890 0.984 . S
N878 H891 0.985 . S
N879 C881 1.356 . S
N879 H884 0.984 . S
N879 H885 0.985 . S
C880 C874 1.379 . S
C880 C877 1.363 . S
C880 N878 1.356 . S
C881 C875 1.363 . S
C881 C876 1.379 . S
C881 N879 1.356 . S
N882 C874 1.356 . S
N882 H888 0.984 . S
N882 H889 0.984 . S
N883 C876 1.356 1_556 S
N883 H886 0.984 . S
N883 H887 0.985 . S
H884 N879 0.984 . S
H885 N879 0.985 . S
H886 N883 0.984 . S
H887 N883 0.985 . S
H888 N882 0.984 . S
H889 N882 0.984 . S
H890 N878 0.984 . S
H891 N878 0.985 . S
C892 C893 1.363 . S
C892 C898 1.379 . S
C892 N900 1.356 . S
C893 C892 1.363 . S
C893 C899 1.363 . S
C894 C895 1.363 . S
C894 C899 1.379 . S
C894 N901 1.356 . S
C895 C894 1.363 . S
C895 C898 1.363 . S
N896 C898 1.356 . S
N896 H908 0.984 . S
N896 H909 0.985 1_556 S
N897 C899 1.356 . S
N897 H902 0.984 . S
N897 H903 0.985 . S
C898 C892 1.379 . S
C898 C895 1.363 . S
C898 N896 1.356 . S
C899 C893 1.363 . S
C899 C894 1.379 . S
C899 N897 1.356 . S
N900 C892 1.356 . S
N900 H906 0.984 . S
N900 H907 0.984 . S
N901 C894 1.356 . S
N901 H904 0.984 1_556 S
N901 H905 0.985 . S
H902 N897 0.984 . S
H903 N897 0.985 . S
H904 N901 0.984 1_554 S
H905 N901 0.985 . S
H906 N900 0.984 . S
H907 N900 0.984 . S
H908 N896 0.984 . S
H909 N896 0.985 1_554 S
C910 C911 1.363 . S
C910 C916 1.379 . S
C910 N918 1.356 . S
C911 C910 1.363 . S
C911 C917 1.363 . S
C912 C913 1.363 . S
C912 C917 1.379 . S
C912 N919 1.356 . S
C913 C912 1.363 . S
C913 C916 1.363 . S
N914 C916 1.356 . S
N914 H926 0.984 . S
N914 H927 0.985 . S
N915 C917 1.356 1_556 S
N915 H920 0.984 . S
N915 H921 0.985 . S
C916 C910 1.379 . S
C916 C913 1.363 . S
C916 N914 1.356 . S
C917 C911 1.363 . S
C917 C912 1.379 . S
C917 N915 1.356 1_554 S
N918 C910 1.356 . S
N918 H924 0.984 . S
N918 H925 0.984 . S
N919 C912 1.356 . S
N919 H922 0.984 . S
N919 H923 0.985 . S
H920 N915 0.984 . S
H921 N915 0.985 . S
H922 N919 0.984 . S
H923 N919 0.985 . S
H924 N918 0.984 . S
H925 N918 0.984 . S
H926 N914 0.984 . S
H927 N914 0.985 . S
C928 C929 1.363 . S
C928 C934 1.379 . S
C928 N936 1.356 . S
C929 C928 1.363 . S
C929 C935 1.363 . S
C930 C931 1.363 . S
C930 C935 1.379 . S
C930 N937 1.356 . S
C931 C930 1.363 . S
C931 C934 1.363 . S
N932 C934 1.356 . S
N932 H944 0.984 . S
N932 H945 0.985 . S
N933 C935 1.356 . S
N933 H938 0.984 . S
N933 H939 0.985 . S
C934 C928 1.379 . S
C934 C931 1.363 . S
C934 N932 1.356 . S
C935 C929 1.363 . S
C935 C930 1.379 . S
C935 N933 1.356 . S
N936 C928 1.356 . S
N936 H942 0.984 . S
N936 H943 0.984 . S
N937 C930 1.356 . S
N937 H940 0.984 . S
N937 H941 0.985 . S
H938 N933 0.984 . S
H939 N933 0.985 . S
H940 N937 0.984 . S
H941 N937 0.985 . S
H942 N936 0.984 . S
H943 N936 0.984 . S
H944 N932 0.984 . S
H945 N932 0.985 . S
C946 C947 1.363 . S
C946 C952 1.379 . S
C946 N954 1.356 . S
C947 C946 1.363 . S
C947 C953 1.363 . S
C948 C949 1.363 . S
C948 C953 1.379 . S
C948 N955 1.356 . S
C949 C948 1.363 . S
C949 C952 1.363 . S
N950 C952 1.356 . S
N950 H962 0.984 . S
N950 H963 0.985 . S
N951 C953 1.356 . S
N951 H956 0.984 . S
N951 H957 0.985 . S
C952 C946 1.379 . S
C952 C949 1.363 . S
C952 N950 1.356 . S
C953 C947 1.363 . S
C953 C948 1.379 . S
C953 N951 1.356 . S
N954 C946 1.356 . S
N954 H960 0.984 . S
N954 H961 0.984 . S
N955 C948 1.356 . S
N955 H958 0.984 . S
N955 H959 0.985 . S
H956 N951 0.984 . S
H957 N951 0.985 . S
H958 N955 0.984 . S
H959 N955 0.985 . S
H960 N954 0.984 . S
H961 N954 0.984 . S
H962 N950 0.984 . S
H963 N950 0.985 . S
C964 C965 1.363 . S
C964 C970 1.379 . S
C964 N972 1.356 . S
C965 C964 1.363 . S
C965 C971 1.363 . S
C966 C967 1.363 . S
C966 C971 1.379 . S
C966 N973 1.356 . S
C967 C966 1.363 . S
C967 C970 1.363 . S
N968 C970 1.356 . S
N968 H980 0.984 . S
N968 H981 0.985 . S
N969 C971 1.356 . S
N969 H974 0.984 . S
N969 H975 0.985 . S
C970 C964 1.379 . S
C970 C967 1.363 . S
C970 N968 1.356 . S
C971 C965 1.363 . S
C971 C966 1.379 . S
C971 N969 1.356 . S
N972 C964 1.356 . S
N972 H978 0.984 . S
N972 H979 0.984 . S
N973 C966 1.356 . S
N973 H976 0.984 . S
N973 H977 0.985 . S
H974 N969 0.984 . S
H975 N969 0.985 . S
H976 N973 0.984 . S
H977 N973 0.985 . S
H978 N972 0.984 . S
H979 N972 0.984 . S
H980 N968 0.984 . S
H981 N968 0.985 . S
C982 C983 1.363 . S
C982 C988 1.379 . S
C982 N990 1.356 . S
C983 C982 1.363 . S
C983 C989 1.363 . S
C984 C985 1.363 . S
C984 C989 1.379 . S
C984 N991 1.356 . S
C985 C984 1.363 . S
C985 C988 1.363 . S
N986 C988 1.356 . S
N986 H998 0.984 . S
N986 H999 0.985 . S
N987 C989 1.356 . S
N987 H992 0.984 . S
N987 H993 0.985 . S
C988 C982 1.379 . S
C988 C985 1.363 . S
C988 N986 1.356 . S
C989 C983 1.363 . S
C989 C984 1.379 . S
C989 N987 1.356 . S
N990 C982 1.356 . S
N990 H996 0.984 . S
N990 H997 0.984 . S
N991 C984 1.356 . S
N991 H994 0.984 . S
N991 H995 0.985 . S
H992 N987 0.984 . S
H993 N987 0.985 . S
H994 N991 0.984 . S
H995 N991 0.985 . S
H996 N990 0.984 . S
H997 N990 0.984 . S
H998 N986 0.984 . S
H999 N986 0.985 . S
C1000 C1001 1.363 . S
C1000 C1006 1.379 . S
C1000 N1008 1.356 . S
C1001 C1000 1.363 . S
C1001 C1007 1.363 . S
C1002 C1003 1.363 . S
C1002 C1007 1.379 . S
C1002 N1009 1.356 . S
C1003 C1002 1.363 . S
C1003 C1006 1.363 . S
N1004 C1006 1.356 . S
N1004 H1016 0.984 . S
N1004 H1017 0.985 . S
N1005 C1007 1.356 . S
N1005 H1010 0.984 . S
N1005 H1011 0.985 . S
C1006 C1000 1.379 . S
C1006 C1003 1.363 . S
C1006 N1004 1.356 . S
C1007 C1001 1.363 . S
C1007 C1002 1.379 . S
C1007 N1005 1.356 . S
N1008 C1000 1.356 . S
N1008 H1014 0.984 . S
N1008 H1015 0.984 . S
N1009 C1002 1.356 . S
N1009 H1012 0.984 . S
N1009 H1013 0.985 . S
H1010 N1005 0.984 . S
H1011 N1005 0.985 . S
H1012 N1009 0.984 . S
H1013 N1009 0.985 . S
H1014 N1008 0.984 . S
H1015 N1008 0.984 . S
H1016 N1004 0.984 . S
H1017 N1004 0.985 . S
C1018 C1019 1.363 . S
C1018 C1024 1.379 . S
C1018 N1026 1.356 . S
C1019 C1018 1.363 . S
C1019 C1025 1.363 . S
C1020 C1021 1.363 . S
C1020 C1025 1.379 . S
C1020 N1027 1.356 . S
C1021 C1020 1.363 . S
C1021 C1024 1.363 . S
N1022 C1024 1.356 . S
N1022 H1034 0.984 . S
N1022 H1035 0.985 . S
N1023 C1025 1.356 . S
N1023 H1028 0.984 . S
N1023 H1029 0.985 . S
C1024 C1018 1.379 . S
C1024 C1021 1.363 . S
C1024 N1022 1.356 . S
C1025 C1019 1.363 . S
C1025 C1020 1.379 . S
C1025 N1023 1.356 . S
N1026 C1018 1.356 . S
N1026 H1032 0.984 . S
N1026 H1033 0.984 . S
N1027 C1020 1.356 . S
N1027 H1030 0.984 . S
N1027 H1031 0.985 . S
H1028 N1023 0.984 . S
H1029 N1023 0.985 . S
H1030 N1027 0.984 . S
H1031 N1027 0.985 . S
H1032 N1026 0.984 . S
H1033 N1026 0.984 . S
H1034 N1022 0.984 . S
H1035 N1022 0.985 . S
C1036 C1037 1.363 . S
C1036 C1042 1.379 . S
C1036 N1044 1.356 . S
C1037 C1036 1.363 . S
C1037 C1043 1.363 . S
C1038 C1039 1.363 . S
C1038 C1043 1.379 . S
C1038 N1045 1.356 . S
C1039 C1038 1.363 . S
C1039 C1042 1.363 . S
N1040 C1042 1.356 . S
N1040 H1052 0.984 . S
N1040 H1053 0.985 . S
N1041 C1043 1.356 . S
N1041 H1046 0.984 . S
N1041 H1047 0.985 . S
C1042 C1036 1.379 . S
C1042 C1039 1.363 . S
C1042 N1040 1.356 . S
C1043 C1037 1.363 . S
C1043 C1038 1.379 . S
C1043 N1041 1.356 . S
N1044 C1036 1.356 . S
N1044 H1050 0.984 . S
N1044 H1051 0.984 . S
N1045 C1038 1.356 . S
N1045 H1048 0.984 . S
N1045 H1049 0.985 . S
H1046 N1041 0.984 . S
H1047 N1041 0.985 . S
H1048 N1045 0.984 . S
H1049 N1045 0.985 . S
H1050 N1044 0.984 . S
H1051 N1044 0.984 . S
H1052 N1040 0.984 . S
H1053 N1040 0.985 . S
C1054 C1055 1.363 . S
C1054 C1060 1.379 . S
C1054 N1062 1.356 . S
C1055 C1054 1.363 . S
C1055 C1061 1.363 . S
C1056 C1057 1.363 . S
C1056 C1061 1.379 . S
C1056 N1063 1.356 . S
C1057 C1056 1.363 . S
C1057 C1060 1.363 . S
N1058 C1060 1.356 . S
N1058 H1070 0.984 . S
N1058 H1071 0.985 . S
N1059 C1061 1.356 . S
N1059 H1064 0.984 . S
N1059 H1065 0.985 . S
C1060 C1054 1.379 . S
C1060 C1057 1.363 . S
C1060 N1058 1.356 . S
C1061 C1055 1.363 . S
C1061 C1056 1.379 . S
C1061 N1059 1.356 . S
N1062 C1054 1.356 . S
N1062 H1068 0.984 . S
N1062 H1069 0.984 . S
N1063 C1056 1.356 . S
N1063 H1066 0.984 . S
N1063 H1067 0.985 . S
H1064 N1059 0.984 . S
H1065 N1059 0.985 . S
H1066 N1063 0.984 . S
H1067 N1063 0.985 . S
H1068 N1062 0.984 . S
H1069 N1062 0.984 . S
H1070 N1058 0.984 . S
H1071 N1058 0.985 . S
C1072 C1073 1.363 . S
C1072 C1078 1.379 . S
C1072 N1080 1.356 . S
C1073 C1072 1.363 . S
C1073 C1079 1.363 . S
C1074 C1075 1.363 . S
C1074 C1079 1.379 . S
C1074 N1081 1.356 . S
C1075 C1074 1.363 . S
C1075 C1078 1.363 . S
N1076 C1078 1.356 . S
N1076 H1088 0.984 . S
N1076 H1089 0.985 . S
N1077 C1079 1.356 . S
N1077 H1082 0.984 . S
N1077 H1083 0.985 . S
C1078 C1072 1.379 . S
C1078 C1075 1.363 . S
C1078 N1076 1.356 . S
C1079 C1073 1.363 . S
C1079 C1074 1.379 . S
C1079 N1077 1.356 . S
N1080 C1072 1.356 . S
N1080 H1086 0.984 . S
N1080 H1087 0.984 . S
N1081 C1074 1.356 . S
N1081 H1084 0.984 . S
N1081 H1085 0.985 . S
H1082 N1077 0.984 . S
H1083 N1077 0.985 . S
H1084 N1081 0.984 . S
H1085 N1081 0.985 . S
H1086 N1080 0.984 . S
H1087 N1080 0.984 . S
H1088 N1076 0.984 . S
H1089 N1076 0.985 . S
C1090 C1091 1.363 . S
C1090 C1096 1.379 . S
C1090 N1098 1.356 . S
C1091 C1090 1.363 . S
C1091 C1097 1.363 . S
C1092 C1093 1.363 . S
C1092 C1097 1.379 . S
C1092 N1099 1.356 . S
C1093 C1092 1.363 . S
C1093 C1096 1.363 . S
N1094 C1096 1.356 . S
N1094 H1106 0.984 . S
N1094 H1107 0.985 . S
N1095 C1097 1.356 . S
N1095 H1100 0.984 . S
N1095 H1101 0.985 . S
C1096 C1090 1.379 . S
C1096 C1093 1.363 . S
C1096 N1094 1.356 . S
C1097 C1091 1.363 . S
C1097 C1092 1.379 . S
C1097 N1095 1.356 . S
N1098 C1090 1.356 . S
N1098 H1104 0.984 . S
N1098 H1105 0.984 . S
N1099 C1092 1.356 . S
N1099 H1102 0.984 . S
N1099 H1103 0.985 . S
H1100 N1095 0.984 . S
H1101 N1095 0.985 . S
H1102 N1099 0.984 . S
H1103 N1099 0.985 . S
H1104 N1098 0.984 . S
H1105 N1098 0.984 . S
H1106 N1094 0.984 . S
H1107 N1094 0.985 . S
C1108 C1109 1.363 . S
C1108 C1114 1.379 . S
C1108 N1116 1.356 . S
C1109 C1108 1.363 . S
C1109 C1115 1.363 . S
C1110 C1111 1.363 . S
C1110 C1115 1.379 . S
C1110 N1117 1.356 . S
C1111 C1110 1.363 . S
C1111 C1114 1.363 . S
N1112 C1114 1.356 . S
N1112 H1124 0.984 . S
N1112 H1125 0.985 . S
N1113 C1115 1.356 . S
N1113 H1118 0.984 . S
N1113 H1119 0.985 . S
C1114 C1108 1.379 . S
C1114 C1111 1.363 . S
C1114 N1112 1.356 . S
C1115 C1109 1.363 . S
C1115 C1110 1.379 . S
C1115 N1113 1.356 . S
N1116 C1108 1.356 . S
N1116 H1122 0.984 . S
N1116 H1123 0.984 . S
N1117 C1110 1.356 . S
N1117 H1120 0.984 . S
N1117 H1121 0.985 . S
H1118 N1113 0.984 . S
H1119 N1113 0.985 . S
H1120 N1117 0.984 . S
H1121 N1117 0.985 . S
H1122 N1116 0.984 . S
H1123 N1116 0.984 . S
H1124 N1112 0.984 . S
H1125 N1112 0.985 . S
C1126 C1127 1.363 . S
C1126 C1132 1.379 . S
C1126 N1134 1.356 . S
C1127 C1126 1.363 . S
C1127 C1133 1.363 . S
C1128 C1129 1.363 . S
C1128 C1133 1.379 . S
C1128 N1135 1.356 . S
C1129 C1128 1.363 . S
C1129 C1132 1.363 . S
N1130 C1132 1.356 . S
N1130 H1142 0.984 . S
N1130 H1143 0.985 . S
N1131 C1133 1.356 . S
N1131 H1136 0.984 . S
N1131 H1137 0.985 . S
C1132 C1126 1.379 . S
C1132 C1129 1.363 . S
C1132 N1130 1.356 . S
C1133 C1127 1.363 . S
C1133 C1128 1.379 . S
C1133 N1131 1.356 . S
N1134 C1126 1.356 . S
N1134 H1140 0.984 . S
N1134 H1141 0.984 . S
N1135 C1128 1.356 . S
N1135 H1138 0.984 . S
N1135 H1139 0.985 . S
H1136 N1131 0.984 . S
H1137 N1131 0.985 . S
H1138 N1135 0.984 . S
H1139 N1135 0.985 . S
H1140 N1134 0.984 . S
H1141 N1134 0.984 . S
H1142 N1130 0.984 . S
H1143 N1130 0.985 . S
C1144 C1145 1.363 . S
C1144 C1150 1.379 . S
C1144 N1152 1.356 . S
C1145 C1144 1.363 . S
C1145 C1151 1.363 . S
C1146 C1147 1.363 . S
C1146 C1151 1.379 . S
C1146 N1153 1.356 . S
C1147 C1146 1.363 . S
C1147 C1150 1.363 . S
N1148 C1150 1.356 . S
N1148 H1160 0.984 . S
N1148 H1161 0.985 . S
N1149 C1151 1.356 . S
N1149 H1154 0.984 . S
N1149 H1155 0.985 . S
C1150 C1144 1.379 . S
C1150 C1147 1.363 . S
C1150 N1148 1.356 . S
C1151 C1145 1.363 . S
C1151 C1146 1.379 . S
C1151 N1149 1.356 . S
N1152 C1144 1.356 . S
N1152 H1158 0.984 . S
N1152 H1159 0.984 . S
N1153 C1146 1.356 . S
N1153 H1156 0.984 . S
N1153 H1157 0.985 . S
H1154 N1149 0.984 . S
H1155 N1149 0.985 . S
H1156 N1153 0.984 . S
H1157 N1153 0.985 . S
H1158 N1152 0.984 . S
H1159 N1152 0.984 . S
H1160 N1148 0.984 . S
H1161 N1148 0.985 . S
C1162 C1163 1.363 . S
C1162 C1168 1.379 . S
C1162 N1170 1.356 . S
C1163 C1162 1.363 . S
C1163 C1169 1.363 . S
C1164 C1165 1.363 . S
C1164 C1169 1.379 . S
C1164 N1171 1.356 . S
C1165 C1164 1.363 . S
C1165 C1168 1.363 . S
N1166 C1168 1.356 . S
N1166 H1178 0.984 . S
N1166 H1179 0.985 . S
N1167 C1169 1.356 . S
N1167 H1172 0.984 . S
N1167 H1173 0.985 . S
C1168 C1162 1.379 . S
C1168 C1165 1.363 . S
C1168 N1166 1.356 . S
C1169 C1163 1.363 . S
C1169 C1164 1.379 . S
C1169 N1167 1.356 . S
N1170 C1162 1.356 . S
N1170 H1176 0.984 . S
N1170 H1177 0.984 . S
N1171 C1164 1.356 . S
N1171 H1174 0.984 . S
N1171 H1175 0.985 . S
H1172 N1167 0.984 . S
H1173 N1167 0.985 . S
H1174 N1171 0.984 . S
H1175 N1171 0.985 . S
H1176 N1170 0.984 . S
H1177 N1170 0.984 . S
H1178 N1166 0.984 . S
H1179 N1166 0.985 . S
C1180 C1181 1.363 . S
C1180 C1186 1.379 . S
C1180 N1188 1.356 . S
C1181 C1180 1.363 . S
C1181 C1187 1.363 . S
C1182 C1183 1.363 . S
C1182 C1187 1.379 . S
C1182 N1189 1.356 . S
C1183 C1182 1.363 . S
C1183 C1186 1.363 . S
N1184 C1186 1.356 . S
N1184 H1196 0.984 . S
N1184 H1197 0.985 . S
N1185 C1187 1.356 . S
N1185 H1190 0.984 . S
N1185 H1191 0.985 . S
C1186 C1180 1.379 . S
C1186 C1183 1.363 . S
C1186 N1184 1.356 . S
C1187 C1181 1.363 . S
C1187 C1182 1.379 . S
C1187 N1185 1.356 . S
N1188 C1180 1.356 . S
N1188 H1194 0.984 . S
N1188 H1195 0.984 . S
N1189 C1182 1.356 . S
N1189 H1192 0.984 . S
N1189 H1193 0.985 . S
H1190 N1185 0.984 . S
H1191 N1185 0.985 . S
H1192 N1189 0.984 . S
H1193 N1189 0.985 . S
H1194 N1188 0.984 . S
H1195 N1188 0.984 . S
H1196 N1184 0.984 . S
H1197 N1184 0.985 . S
C1198 C1199 1.363 . S
C1198 C1204 1.379 . S
C1198 N1206 1.356 . S
C1199 C1198 1.363 . S
C1199 C1205 1.363 . S
C1200 C1201 1.363 . S
C1200 C1205 1.379 . S
C1200 N1207 1.356 . S
C1201 C1200 1.363 . S
C1201 C1204 1.363 . S
N1202 C1204 1.356 . S
N1202 H1214 0.984 . S
N1202 H1215 0.985 . S
N1203 C1205 1.356 . S
N1203 H1208 0.984 . S
N1203 H1209 0.985 . S
C1204 C1198 1.379 . S
C1204 C1201 1.363 . S
C1204 N1202 1.356 . S
C1205 C1199 1.363 . S
C1205 C1200 1.379 . S
C1205 N1203 1.356 . S
N1206 C1198 1.356 . S
N1206 H1212 0.984 . S
N1206 H1213 0.984 . S
N1207 C1200 1.356 . S
N1207 H1210 0.984 . S
N1207 H1211 0.985 . S
H1208 N1203 0.984 . S
H1209 N1203 0.985 . S
H1210 N1207 0.984 . S
H1211 N1207 0.985 . S
H1212 N1206 0.984 . S
H1213 N1206 0.984 . S
H1214 N1202 0.984 . S
H1215 N1202 0.985 . S
C353 C6 1.355 . S
C355 C250 1.371 . S
C371 C31 1.355 . S
C373 C180 1.371 . S
C389 C206 1.371 . S
C391 C50 1.355 . S
C407 C224 1.371 . S
C409 C75 1.355 . S
C425 C95 1.355 . S
C427 C290 1.371 . S
C443 C115 1.355 . S
C445 C316 1.371 . S
C461 C334 1.371 . S
C463 C139 1.355 . S
C479 C272 1.371 . S
C481 C159 1.355 . S
C497 C182 1.355 1_545 S
C499 C74 1.371 . S
C515 C4 1.371 . S
C517 C207 1.355 1_455 S
C533 C30 1.371 . S
C535 C226 1.355 1_565 S
C551 C251 1.355 1_655 S
C553 C48 1.371 . S
C569 C271 1.355 1_565 S
C571 C114 1.371 . S
C587 C140 1.371 . S
C589 C291 1.355 1_655 S
C605 C158 1.371 . S
C607 C315 1.355 1_545 S
C623 C96 1.371 . S
C625 C335 1.355 1_455 S
C641 C93 1.144 . S
C643 C9 1.144 . S
C659 C28 1.144 . S
C661 C117 1.144 . S
C677 C137 1.144 . S
C679 C53 1.144 . S
C695 C161 1.144 . S
C697 C72 1.144 . S
C713 C269 1.144 . S
C715 C185 1.144 . S
C731 C204 1.144 . S
C733 C293 1.144 . S
C749 C229 1.144 . S
C751 C313 1.144 . S
C767 C337 1.144 . S
C769 C248 1.144 . S
C785 C5 1.679 . S
C787 C294 1.670 1_554 S
C803 C312 1.670 1_556 S
C805 C29 1.679 . S
C821 C338 1.670 1_554 S
C823 C49 1.679 . S
C839 C268 1.670 1_556 S
C841 C73 1.679 . S
C857 C97 1.679 . S
C859 C246 1.670 1_556 S
C875 C116 1.679 . S
C877 C184 1.670 1_554 S
C893 C141 1.679 . S
C895 C202 1.670 1_556 S
C911 C228 1.670 1_554 S
C913 C160 1.679 . S
C929 C118 1.670 . S
C931 C181 1.679 . S
C947 C136 1.670 . S
C949 C205 1.679 . S
C965 C225 1.679 . S
C967 C162 1.670 . S
C983 C92 1.670 . S
C985 C249 1.679 . S
C1001 C70 1.670 . S
C1003 C273 1.679 . S
C1019 C292 1.679 . S
C1021 C8 1.670 . S
C1037 C26 1.670 . S
C1039 C317 1.679 . S
C1055 C336 1.679 . S
C1057 C52 1.670 . S
C1073 C163 1.312 . S
C1075 C7 1.312 . S
C1091 C94 1.312 . S
C1093 C27 1.312 . S
C1109 C119 1.312 . S
C1111 C51 1.312 . S
C1127 C138 1.312 . S
C1129 C71 1.312 . S
C1145 C183 1.312 . S
C1147 C339 1.312 . S
C1163 C270 1.312 . S
C1165 C203 1.312 . S
C1181 C295 1.312 . S
C1183 C227 1.312 . S
C1199 C247 1.312 . S
C1201 C314 1.312 . S
