# Generated by pormake.
# Topology uky, (4)-cn, num edge types: 1
# Building blocks:
#     Node 0, Type 0, BuildingBlock: ESEHIV_clean_sbu_0, # of connection points: 4
#     Node 1, Type 0, BuildingBlock: ESEHIV_clean_sbu_0, # of connection points: 4
#     Node 2, Type 0, BuildingBlock: ESEHIV_clean_sbu_0, # of connection points: 4
#     Node 3, Type 0, BuildingBlock: ESEHIV_clean_sbu_0, # of connection points: 4
#     Node 4, Type 0, BuildingBlock: ESEHIV_clean_sbu_0, # of connection points: 4
#     Node 5, Type 0, BuildingBlock: ESEHIV_clean_sbu_0, # of connection points: 4
#     Node 6, Type 0, BuildingBlock: ESEHIV_clean_sbu_0, # of connection points: 4
#     Node 7, Type 0, BuildingBlock: ESEHIV_clean_sbu_0, # of connection points: 4
#     Node 8, Type 0, BuildingBlock: ESEHIV_clean_sbu_0, # of connection points: 4
#     Node 9, Type 0, BuildingBlock: ESEHIV_clean_sbu_0, # of connection points: 4
#     Node 10, Type 0, BuildingBlock: ESEHIV_clean_sbu_0, # of connection points: 4
#     Node 11, Type 0, BuildingBlock: ESEHIV_clean_sbu_0, # of connection points: 4
#     Node 12, Type 0, BuildingBlock: ESEHIV_clean_sbu_0, # of connection points: 4
#     Node 13, Type 0, BuildingBlock: ESEHIV_clean_sbu_0, # of connection points: 4
#     Node 14, Type 0, BuildingBlock: ESEHIV_clean_sbu_0, # of connection points: 4
#     Node 15, Type 0, BuildingBlock: ESEHIV_clean_sbu_0, # of connection points: 4
#     Node 16, Type 0, BuildingBlock: ESEHIV_clean_sbu_0, # of connection points: 4
#     Node 17, Type 0, BuildingBlock: ESEHIV_clean_sbu_0, # of connection points: 4
#     Node 18, Type 0, BuildingBlock: ESEHIV_clean_sbu_0, # of connection points: 4
#     Node 19, Type 0, BuildingBlock: ESEHIV_clean_sbu_0, # of connection points: 4
#     Node 20, Type 0, BuildingBlock: ESEHIV_clean_sbu_0, # of connection points: 4
#     Node 21, Type 0, BuildingBlock: ESEHIV_clean_sbu_0, # of connection points: 4
#     Node 22, Type 0, BuildingBlock: ESEHIV_clean_sbu_0, # of connection points: 4
#     Node 23, Type 0, BuildingBlock: ESEHIV_clean_sbu_0, # of connection points: 4
#     Node 24, Type 0, BuildingBlock: ESEHIV_clean_sbu_0, # of connection points: 4
#     Node 25, Type 0, BuildingBlock: ESEHIV_clean_sbu_0, # of connection points: 4
#     Node 26, Type 0, BuildingBlock: ESEHIV_clean_sbu_0, # of connection points: 4
#     Node 27, Type 0, BuildingBlock: ESEHIV_clean_sbu_0, # of connection points: 4
#     Node 28, Type 0, BuildingBlock: ESEHIV_clean_sbu_0, # of connection points: 4
#     Node 29, Type 0, BuildingBlock: ESEHIV_clean_sbu_0, # of connection points: 4
#     Node 30, Type 0, BuildingBlock: ESEHIV_clean_sbu_0, # of connection points: 4
#     Node 31, Type 0, BuildingBlock: ESEHIV_clean_sbu_0, # of connection points: 4
#     Node 32, Type 0, BuildingBlock: ESEHIV_clean_sbu_0, # of connection points: 4
#     Node 33, Type 0, BuildingBlock: ESEHIV_clean_sbu_0, # of connection points: 4
#     Node 34, Type 0, BuildingBlock: ESEHIV_clean_sbu_0, # of connection points: 4
#     Node 35, Type 0, BuildingBlock: ESEHIV_clean_sbu_0, # of connection points: 4
#     Node 36, Type 0, BuildingBlock: ESEHIV_clean_sbu_0, # of connection points: 4
#     Node 37, Type 0, BuildingBlock: ESEHIV_clean_sbu_0, # of connection points: 4
#     Node 38, Type 0, BuildingBlock: ESEHIV_clean_sbu_0, # of connection points: 4
#     Node 39, Type 0, BuildingBlock: ESEHIV_clean_sbu_0, # of connection points: 4
#     Node 40, Type 0, BuildingBlock: ESEHIV_clean_sbu_0, # of connection points: 4
#     Node 41, Type 0, BuildingBlock: ESEHIV_clean_sbu_0, # of connection points: 4
#     Node 42, Type 0, BuildingBlock: ESEHIV_clean_sbu_0, # of connection points: 4
#     Node 43, Type 0, BuildingBlock: ESEHIV_clean_sbu_0, # of connection points: 4
#     Node 44, Type 0, BuildingBlock: ESEHIV_clean_sbu_0, # of connection points: 4
#     Node 45, Type 0, BuildingBlock: ESEHIV_clean_sbu_0, # of connection points: 4
#     Node 46, Type 0, BuildingBlock: ESEHIV_clean_sbu_0, # of connection points: 4
#     Node 47, Type 0, BuildingBlock: ESEHIV_clean_sbu_0, # of connection points: 4
#     Edge 48, Type (0, 0), BuildingBlock: AJUNOK_clean_linker_0, # of connection points: 2
#     Edge 49, Type (0, 0), BuildingBlock: AJUNOK_clean_linker_0, # of connection points: 2
#     Edge 50, Type (0, 0), BuildingBlock: AJUNOK_clean_linker_0, # of connection points: 2
#     Edge 51, Type (0, 0), BuildingBlock: AJUNOK_clean_linker_0, # of connection points: 2
#     Edge 52, Type (0, 0), BuildingBlock: AJUNOK_clean_linker_0, # of connection points: 2
#     Edge 53, Type (0, 0), BuildingBlock: AJUNOK_clean_linker_0, # of connection points: 2
#     Edge 54, Type (0, 0), BuildingBlock: AJUNOK_clean_linker_0, # of connection points: 2
#     Edge 55, Type (0, 0), BuildingBlock: AJUNOK_clean_linker_0, # of connection points: 2
#     Edge 56, Type (0, 0), BuildingBlock: AJUNOK_clean_linker_0, # of connection points: 2
#     Edge 57, Type (0, 0), BuildingBlock: AJUNOK_clean_linker_0, # of connection points: 2
#     Edge 58, Type (0, 0), BuildingBlock: AJUNOK_clean_linker_0, # of connection points: 2
#     Edge 59, Type (0, 0), BuildingBlock: AJUNOK_clean_linker_0, # of connection points: 2
#     Edge 60, Type (0, 0), BuildingBlock: AJUNOK_clean_linker_0, # of connection points: 2
#     Edge 61, Type (0, 0), BuildingBlock: AJUNOK_clean_linker_0, # of connection points: 2
#     Edge 62, Type (0, 0), BuildingBlock: AJUNOK_clean_linker_0, # of connection points: 2
#     Edge 63, Type (0, 0), BuildingBlock: AJUNOK_clean_linker_0, # of connection points: 2
#     Edge 64, Type (0, 0), BuildingBlock: AJUNOK_clean_linker_0, # of connection points: 2
#     Edge 65, Type (0, 0), BuildingBlock: AJUNOK_clean_linker_0, # of connection points: 2
#     Edge 66, Type (0, 0), BuildingBlock: AJUNOK_clean_linker_0, # of connection points: 2
#     Edge 67, Type (0, 0), BuildingBlock: AJUNOK_clean_linker_0, # of connection points: 2
#     Edge 68, Type (0, 0), BuildingBlock: AJUNOK_clean_linker_0, # of connection points: 2
#     Edge 69, Type (0, 0), BuildingBlock: AJUNOK_clean_linker_0, # of connection points: 2
#     Edge 70, Type (0, 0), BuildingBlock: AJUNOK_clean_linker_0, # of connection points: 2
#     Edge 71, Type (0, 0), BuildingBlock: AJUNOK_clean_linker_0, # of connection points: 2
#     Edge 72, Type (0, 0), BuildingBlock: AJUNOK_clean_linker_0, # of connection points: 2
#     Edge 73, Type (0, 0), BuildingBlock: AJUNOK_clean_linker_0, # of connection points: 2
#     Edge 74, Type (0, 0), BuildingBlock: AJUNOK_clean_linker_0, # of connection points: 2
#     Edge 75, Type (0, 0), BuildingBlock: AJUNOK_clean_linker_0, # of connection points: 2
#     Edge 76, Type (0, 0), BuildingBlock: AJUNOK_clean_linker_0, # of connection points: 2
#     Edge 77, Type (0, 0), BuildingBlock: AJUNOK_clean_linker_0, # of connection points: 2
#     Edge 78, Type (0, 0), BuildingBlock: AJUNOK_clean_linker_0, # of connection points: 2
#     Edge 79, Type (0, 0), BuildingBlock: AJUNOK_clean_linker_0, # of connection points: 2
#     Edge 80, Type (0, 0), BuildingBlock: AJUNOK_clean_linker_0, # of connection points: 2
#     Edge 81, Type (0, 0), BuildingBlock: AJUNOK_clean_linker_0, # of connection points: 2
#     Edge 82, Type (0, 0), BuildingBlock: AJUNOK_clean_linker_0, # of connection points: 2
#     Edge 83, Type (0, 0), BuildingBlock: AJUNOK_clean_linker_0, # of connection points: 2
#     Edge 84, Type (0, 0), BuildingBlock: AJUNOK_clean_linker_0, # of connection points: 2
#     Edge 85, Type (0, 0), BuildingBlock: AJUNOK_clean_linker_0, # of connection points: 2
#     Edge 86, Type (0, 0), BuildingBlock: AJUNOK_clean_linker_0, # of connection points: 2
#     Edge 87, Type (0, 0), BuildingBlock: AJUNOK_clean_linker_0, # of connection points: 2
#     Edge 88, Type (0, 0), BuildingBlock: AJUNOK_clean_linker_0, # of connection points: 2
#     Edge 89, Type (0, 0), BuildingBlock: AJUNOK_clean_linker_0, # of connection points: 2
#     Edge 90, Type (0, 0), BuildingBlock: AJUNOK_clean_linker_0, # of connection points: 2
#     Edge 91, Type (0, 0), BuildingBlock: AJUNOK_clean_linker_0, # of connection points: 2
#     Edge 92, Type (0, 0), BuildingBlock: AJUNOK_clean_linker_0, # of connection points: 2
#     Edge 93, Type (0, 0), BuildingBlock: AJUNOK_clean_linker_0, # of connection points: 2
#     Edge 94, Type (0, 0), BuildingBlock: AJUNOK_clean_linker_0, # of connection points: 2
#     Edge 95, Type (0, 0), BuildingBlock: AJUNOK_clean_linker_0, # of connection points: 2
#     Edge 96, Type (0, 0), BuildingBlock: AJUNOK_clean_linker_0, # of connection points: 2
#     Edge 97, Type (0, 0), BuildingBlock: AJUNOK_clean_linker_0, # of connection points: 2
#     Edge 98, Type (0, 0), BuildingBlock: AJUNOK_clean_linker_0, # of connection points: 2
#     Edge 99, Type (0, 0), BuildingBlock: AJUNOK_clean_linker_0, # of connection points: 2
#     Edge 100, Type (0, 0), BuildingBlock: AJUNOK_clean_linker_0, # of connection points: 2
#     Edge 101, Type (0, 0), BuildingBlock: AJUNOK_clean_linker_0, # of connection points: 2
#     Edge 102, Type (0, 0), BuildingBlock: AJUNOK_clean_linker_0, # of connection points: 2
#     Edge 103, Type (0, 0), BuildingBlock: AJUNOK_clean_linker_0, # of connection points: 2
#     Edge 104, Type (0, 0), BuildingBlock: AJUNOK_clean_linker_0, # of connection points: 2
#     Edge 105, Type (0, 0), BuildingBlock: AJUNOK_clean_linker_0, # of connection points: 2
#     Edge 106, Type (0, 0), BuildingBlock: AJUNOK_clean_linker_0, # of connection points: 2
#     Edge 107, Type (0, 0), BuildingBlock: AJUNOK_clean_linker_0, # of connection points: 2
#     Edge 108, Type (0, 0), BuildingBlock: AJUNOK_clean_linker_0, # of connection points: 2
#     Edge 109, Type (0, 0), BuildingBlock: AJUNOK_clean_linker_0, # of connection points: 2
#     Edge 110, Type (0, 0), BuildingBlock: AJUNOK_clean_linker_0, # of connection points: 2
#     Edge 111, Type (0, 0), BuildingBlock: AJUNOK_clean_linker_0, # of connection points: 2
#     Edge 112, Type (0, 0), BuildingBlock: AJUNOK_clean_linker_0, # of connection points: 2
#     Edge 113, Type (0, 0), BuildingBlock: AJUNOK_clean_linker_0, # of connection points: 2
#     Edge 114, Type (0, 0), BuildingBlock: AJUNOK_clean_linker_0, # of connection points: 2
#     Edge 115, Type (0, 0), BuildingBlock: AJUNOK_clean_linker_0, # of connection points: 2
#     Edge 116, Type (0, 0), BuildingBlock: AJUNOK_clean_linker_0, # of connection points: 2
#     Edge 117, Type (0, 0), BuildingBlock: AJUNOK_clean_linker_0, # of connection points: 2
#     Edge 118, Type (0, 0), BuildingBlock: AJUNOK_clean_linker_0, # of connection points: 2
#     Edge 119, Type (0, 0), BuildingBlock: AJUNOK_clean_linker_0, # of connection points: 2
#     Edge 120, Type (0, 0), BuildingBlock: AJUNOK_clean_linker_0, # of connection points: 2
#     Edge 121, Type (0, 0), BuildingBlock: AJUNOK_clean_linker_0, # of connection points: 2
#     Edge 122, Type (0, 0), BuildingBlock: AJUNOK_clean_linker_0, # of connection points: 2
#     Edge 123, Type (0, 0), BuildingBlock: AJUNOK_clean_linker_0, # of connection points: 2
#     Edge 124, Type (0, 0), BuildingBlock: AJUNOK_clean_linker_0, # of connection points: 2
#     Edge 125, Type (0, 0), BuildingBlock: AJUNOK_clean_linker_0, # of connection points: 2
#     Edge 126, Type (0, 0), BuildingBlock: AJUNOK_clean_linker_0, # of connection points: 2
#     Edge 127, Type (0, 0), BuildingBlock: AJUNOK_clean_linker_0, # of connection points: 2
#     Edge 128, Type (0, 0), BuildingBlock: AJUNOK_clean_linker_0, # of connection points: 2
#     Edge 129, Type (0, 0), BuildingBlock: AJUNOK_clean_linker_0, # of connection points: 2
#     Edge 130, Type (0, 0), BuildingBlock: AJUNOK_clean_linker_0, # of connection points: 2
#     Edge 131, Type (0, 0), BuildingBlock: AJUNOK_clean_linker_0, # of connection points: 2
#     Edge 132, Type (0, 0), BuildingBlock: AJUNOK_clean_linker_0, # of connection points: 2
#     Edge 133, Type (0, 0), BuildingBlock: AJUNOK_clean_linker_0, # of connection points: 2
#     Edge 134, Type (0, 0), BuildingBlock: AJUNOK_clean_linker_0, # of connection points: 2
#     Edge 135, Type (0, 0), BuildingBlock: AJUNOK_clean_linker_0, # of connection points: 2
#     Edge 136, Type (0, 0), BuildingBlock: AJUNOK_clean_linker_0, # of connection points: 2
#     Edge 137, Type (0, 0), BuildingBlock: AJUNOK_clean_linker_0, # of connection points: 2
#     Edge 138, Type (0, 0), BuildingBlock: AJUNOK_clean_linker_0, # of connection points: 2
#     Edge 139, Type (0, 0), BuildingBlock: AJUNOK_clean_linker_0, # of connection points: 2
#     Edge 140, Type (0, 0), BuildingBlock: AJUNOK_clean_linker_0, # of connection points: 2
#     Edge 141, Type (0, 0), BuildingBlock: AJUNOK_clean_linker_0, # of connection points: 2
#     Edge 142, Type (0, 0), BuildingBlock: AJUNOK_clean_linker_0, # of connection points: 2
#     Edge 143, Type (0, 0), BuildingBlock: AJUNOK_clean_linker_0, # of connection points: 2
# Relax obj value: 0.117
# Max RMSD: 0.305
# Mean RMSD: 0.275
data_MOF--net-uky--node1-ESEHIV_clean_sbu_0--edge1-AJUNOK_clean_linker_0
_symmetry_space_group_name_H-M    P1
_symmetry_Int_Tables_number       1
_symmetry_cell_setting            triclinic
loop_
_symmetry_equiv_pos_as_xyz
'x, y, z'
_cell_length_a     45.373785
_cell_length_b     56.261854
_cell_length_c     56.291399
_cell_angle_alpha  90.024612
_cell_angle_beta   90.156418
_cell_angle_gamma 89.821482
loop_
_atom_site_label
_atom_site_type_symbol
_atom_site_fract_x
_atom_site_fract_y
_atom_site_fract_z
_atom_type_partial_charge
Cu0 Cu 0.21483 0.25586 0.40041 0.0
N1 N 0.23521 0.2677 0.42669 0.0
N2 N 0.25058 0.27433 0.46395 0.0
C3 C 0.22795 0.26723 0.4499 0.0
C4 C 0.27279 0.27934 0.44882 0.0
C5 C 0.26319 0.27538 0.42598 0.0
O6 O 0.18351 0.23407 0.41061 0.0
C7 C 0.24418 0.2422 0.35765 0.0
O8 O 0.22015 0.25005 0.3472 0.0
H9 H 0.20691 0.261 0.45634 0.0
H10 H 0.27623 0.2767 0.40998 0.0
N11 N 0.19709 0.28101 0.38382 0.0
N12 N 0.18967 0.31297 0.36077 0.0
C13 C 0.20977 0.29957 0.37259 0.0
C14 C 0.16818 0.28265 0.3788 0.0
C15 C 0.16355 0.3022 0.36457 0.0
C16 C 0.18647 0.21757 0.42598 0.0
O17 O 0.21277 0.21339 0.43487 0.0
H18 H 0.23326 0.30289 0.37272 0.0
H19 H 0.15174 0.26998 0.38444 0.0
O20 O 0.24499 0.2414 0.38025 0.0
H21 H 0.29506 0.28401 0.45381 0.0
H22 H 0.14267 0.30739 0.3568 0.0
Cu23 Cu 0.01586 0.98981 0.67116 0.0
N24 N 0.0425 1.01115 0.65761 0.0
N25 N 0.0601 0.03968 0.63388 0.0
C26 C 0.03703 0.02546 0.63889 0.0
C27 C 0.08086 0.03422 0.65024 0.0
C28 C 0.06998 0.01654 0.6648 0.0
O29 O 0.98187 0.99107 0.6496 0.0
C30 C 0.99836 0.98946 0.72096 0.0
O31 O 0.99174 0.96695 0.71797 0.0
H32 H 0.01617 0.02598 0.62964 0.0
H33 H 0.08111 1.00843 0.67977 0.0
N34 N 0.03307 0.9593 0.67113 0.0
N35 N 0.05622 0.92546 0.68126 0.0
C36 C 0.04526 0.94651 0.68902 0.0
C37 C 0.03687 0.94601 0.65151 0.0
C38 C 0.05101 0.92523 0.65765 0.0
C39 C 0.96614 0.97376 0.64242 0.0
O40 O 0.9694 0.95286 0.65251 0.0
H41 H 0.04693 0.95282 0.70713 0.0
H42 H 0.02998 0.95123 0.63385 0.0
O43 O 1.00747 1.00152 0.70328 0.0
H44 H 0.10234 0.04244 0.65159 0.0
H45 H 0.05701 0.91099 0.64565 0.0
Cu46 Cu 0.30219 0.77202 0.89633 0.0
N47 N 0.27826 0.75965 0.92015 0.0
N48 N 0.25928 0.7495 0.95526 0.0
C49 C 0.28075 0.76164 0.94394 0.0
C50 C 0.24256 0.73985 0.93793 0.0
C51 C 0.25439 0.74606 0.91634 0.0
O52 O 0.33254 0.79261 0.91031 0.0
C53 C 0.25223 0.79689 0.8772 0.0
O54 O 0.24555 0.80146 0.89942 0.0
H55 H 0.29812 0.77143 0.95276 0.0
H56 H 0.24616 0.74111 0.89898 0.0
N57 N 0.3208 0.74633 0.88143 0.0
N58 N 0.32999 0.71624 0.85641 0.0
C59 C 0.31147 0.73422 0.86214 0.0
C60 C 0.34587 0.73553 0.88831 0.0
C61 C 0.35156 0.71694 0.87299 0.0
C62 C 0.32879 0.81396 0.91729 0.0
O63 O 0.30296 0.82409 0.9141 0.0
H64 H 0.29147 0.73849 0.85254 0.0
H65 H 0.35881 0.74058 0.90366 0.0
O66 O 0.27661 0.78663 0.87246 0.0
H67 H 0.22291 0.72935 0.94064 0.0
H68 H 0.36968 0.70449 0.87446 0.0
Cu69 Cu 0.49238 0.03719 0.17054 0.0
N70 N 0.46801 0.01346 0.15797 0.0
N71 N 0.45114 0.98509 0.13351 0.0
C72 C 0.46715 1.00529 0.13542 0.0
C73 C 0.44109 0.98084 0.15567 0.0
C74 C 0.4516 0.99824 0.17066 0.0
O75 O 0.52647 0.03993 0.14963 0.0
C76 C 0.51262 0.04208 0.21896 0.0
O77 O 0.51976 0.06381 0.21274 0.0
H78 H 0.47873 0.01371 0.12094 0.0
H79 H 0.44877 0.99906 0.18971 0.0
N80 N 0.47323 0.06682 0.16956 0.0
N81 N 0.45197 0.10146 0.17936 0.0
C82 C 0.45996 0.0795 0.18695 0.0
C83 C 0.47342 0.0812 0.15048 0.0
C84 C 0.46046 0.10251 0.15645 0.0
C85 C 0.53961 0.02239 0.13996 0.0
O86 O 0.53309 1.00074 0.14688 0.0
H87 H 0.45736 0.07317 0.20498 0.0
H88 H 0.48317 0.07668 0.13355 0.0
O89 O 0.50196 0.02817 0.2033 0.0
H90 H 0.42829 0.96553 0.16094 0.0
H91 H 0.45768 0.11774 0.14489 0.0
Cu92 Cu 0.21358 0.76949 0.11911 0.0
N93 N 0.22644 0.75231 0.09275 0.0
N94 N 0.23937 0.74256 0.05573 0.0
C95 C 0.22708 0.75928 0.06985 0.0
C96 C 0.247 0.72456 0.07037 0.0
C97 C 0.23898 0.73063 0.09317 0.0
O98 O 0.18518 0.79359 0.10836 0.0
C99 C 0.25027 0.78626 0.15682 0.0
O100 O 0.22581 0.78643 0.16927 0.0
H101 H 0.21884 0.77625 0.06366 0.0
H102 H 0.24263 0.72021 0.10905 0.0
N103 N 0.19467 0.74858 0.13996 0.0
N104 N 0.18674 0.72094 0.16786 0.0
C105 C 0.20715 0.73268 0.15489 0.0
C106 C 0.16547 0.74675 0.14344 0.0
C107 C 0.16051 0.72972 0.16055 0.0
C108 C 0.19193 0.81254 0.09728 0.0
O109 O 0.21992 0.8176 0.09425 0.0
H110 H 0.23067 0.72968 0.15598 0.0
H111 H 0.14897 0.75724 0.13429 0.0
O112 O 0.24894 0.78151 0.13474 0.0
H113 H 0.25841 0.70848 0.06514 0.0
H114 H 0.13922 0.72449 0.16741 0.0
Cu115 Cu 0.49626 0.98967 0.361 0.0
N116 N 0.47175 0.01338 0.37369 0.0
N117 N 0.45378 0.04187 0.39755 0.0
C118 C 0.47662 0.02702 0.39304 0.0
C119 C 0.43387 0.03734 0.38026 0.0
C120 C 0.44494 0.01977 0.36568 0.0
O121 O 0.52939 0.98496 0.3827 0.0
C122 C 0.51027 0.01817 0.3203 0.0
O123 O 0.50886 0.03601 0.33533 0.0
H124 H 0.49666 0.02628 0.40337 0.0
H125 H 0.43416 1.01204 0.35036 0.0
N126 N 0.47561 0.96093 0.36103 0.0
N127 N 0.45298 0.9273 0.35008 0.0
C128 C 0.46591 0.94765 0.3426 0.0
C129 C 0.4686 0.94864 0.38067 0.0
C130 C 0.45461 0.92801 0.37402 0.0
C131 C 0.54734 1.00079 0.38984 0.0
O132 O 0.54659 0.02194 0.37995 0.0
H133 H 0.46797 0.95297 0.32422 0.0
H134 H 0.47363 0.95425 0.39861 0.0
O135 O 0.50696 0.99709 0.32812 0.0
H136 H 0.41259 0.0459 0.37842 0.0
H137 H 0.44658 0.91439 0.38592 0.0
Cu138 Cu 0.30066 0.25406 0.6276 0.0
N139 N 0.27599 0.26207 0.60214 0.0
N140 N 0.25857 0.26811 0.56554 0.0
C141 C 0.28263 0.2632 0.57884 0.0
C142 C 0.23603 0.27023 0.5809 0.0
C143 C 0.2469 0.26675 0.6035 0.0
O144 O 0.33188 0.23218 0.61664 0.0
C145 C 0.25373 0.22826 0.65069 0.0
O146 O 0.24888 0.21832 0.62994 0.0
H147 H 0.30441 0.2599 0.57173 0.0
H148 H 0.23437 0.26724 0.61981 0.0
N149 N 0.31772 0.28198 0.63942 0.0
N150 N 0.326 0.31388 0.66236 0.0
C151 C 0.30911 0.29443 0.65872 0.0
C152 C 0.3407 0.29401 0.63045 0.0
C153 C 0.34579 0.31371 0.64449 0.0
C154 C 0.32632 0.21359 0.60444 0.0
O155 O 0.2987 0.20836 0.59987 0.0
H156 H 0.29039 0.2896 0.66951 0.0
H157 H 0.35282 0.28884 0.61474 0.0
O158 O 0.27591 0.24188 0.65326 0.0
H159 H 0.2134 0.27405 0.57606 0.0
H160 H 0.36288 0.32683 0.64185 0.0
Cu161 Cu 0.02106 0.03977 0.86297 0.0
N162 N 0.05286 0.02189 0.8744 0.0
N163 N 0.07544 0.99329 0.89543 0.0
C164 C 0.05064 1.00629 0.89244 0.0
C165 C 0.09409 1.0011 0.87847 0.0
C166 C 0.08007 0.01873 0.86549 0.0
O167 O 0.99283 0.03839 0.88911 0.0
C168 C 1.00262 0.03611 0.81408 0.0
O169 O 1.00338 0.05943 0.81448 0.0
H170 H 0.03076 1.00401 0.90274 0.0
H171 H 0.08858 0.02778 0.85002 0.0
N172 N 0.03078 0.07193 0.85817 0.0
N173 N 0.05014 0.1061 0.84502 0.0
C174 C 0.05338 0.08216 0.84636 0.0
C175 C 0.013 0.09003 0.86452 0.0
C176 C 0.02475 0.111 0.8564 0.0
C177 C 0.96494 0.03633 0.88896 0.0
O178 O 0.95088 0.03533 0.86855 0.0
H179 H 0.07104 0.07224 0.83804 0.0
H180 H 0.99234 0.08797 0.87383 0.0
O181 O 1.00775 0.02471 0.83326 0.0
H182 H 0.11567 0.99377 0.87479 0.0
H183 H 0.01521 0.12854 0.85845 0.0
Cu184 Cu 0.38628 0.24296 0.25951 0.0
N185 N 0.37848 0.2692 0.2399 0.0
N186 N 0.35904 0.30362 0.2272 0.0
C187 C 0.36048 0.28762 0.2451 0.0
C188 C 0.37666 0.29475 0.21003 0.0
C189 C 0.38872 0.2736 0.21795 0.0
O190 O 0.35467 0.24287 0.28285 0.0
C191 C 0.44028 0.26431 0.27496 0.0
O192 O 0.42609 0.28438 0.27145 0.0
H193 H 0.34805 0.28887 0.26143 0.0
H194 H 0.40368 0.26213 0.20833 0.0
N195 N 0.38295 0.21464 0.24215 0.0
N196 N 0.39322 0.17959 0.22514 0.0
C197 C 0.40442 0.19954 0.23508 0.0
C198 C 0.35746 0.20398 0.23625 0.0
C199 C 0.3637 0.18244 0.22572 0.0
C200 C 0.35392 0.2345 0.30382 0.0
O201 O 0.37795 0.22548 0.31331 0.0
H202 H 0.42771 0.20277 0.23778 0.0
H203 H 0.33581 0.21124 0.23979 0.0
O204 O 0.42643 0.2448 0.27224 0.0
H205 H 0.38052 0.30297 0.19294 0.0
H206 H 0.34775 0.1699 0.21886 0.0
Cu207 Cu 0.04771 0.14765 0.50149 0.0
N208 N 0.02444 0.17405 0.50884 0.0
N209 N 1.00816 0.2112 0.51448 0.0
C210 C 0.03209 0.19698 0.51191 0.0
C211 C 0.98474 0.19654 0.51281 0.0
C212 C 0.99484 0.17374 0.50948 0.0
O213 O 0.08123 0.15741 0.48172 0.0
C214 C 0.02079 0.10286 0.4888 0.0
O215 O 0.04348 0.09272 0.49924 0.0
H216 H 0.05466 0.20315 0.51159 0.0
H217 H 0.98149 0.15808 0.50668 0.0
N218 N 0.06287 0.13466 0.52972 0.0
N219 N 0.06955 0.11205 0.56207 0.0
C220 C 0.05069 0.11861 0.54456 0.0
C221 C 0.09003 0.13871 0.53843 0.0
C222 C 0.09418 0.12488 0.55836 0.0
C223 C 0.0802 0.17335 0.46562 0.0
O224 O 0.05456 0.18278 0.46008 0.0
H225 H 0.02863 0.11169 0.54238 0.0
H226 H 0.10599 0.15046 0.53042 0.0
O227 O 0.02046 0.12535 0.48626 0.0
H228 H 0.96184 0.20195 0.51261 0.0
H229 H 0.11419 0.1237 0.56883 0.0
Cu230 Cu 0.12167 0.78841 0.76886 0.0
N231 N 0.13176 0.76148 0.75099 0.0
N232 N 0.15042 0.72561 0.74222 0.0
C233 C 0.14822 0.74302 0.7587 0.0
C234 C 0.13502 0.73366 0.72328 0.0
C235 C 0.1234 0.75571 0.72879 0.0
O236 O 0.14935 0.78874 0.79536 0.0
C237 C 0.06865 0.76603 0.78366 0.0
O238 O 0.08531 0.74692 0.7846 0.0
H239 H 0.15855 0.74252 0.77603 0.0
H240 H 0.10958 0.76666 0.71754 0.0
N241 N 0.12606 0.81605 0.75057 0.0
N242 N 0.11646 0.84963 0.73049 0.0
C243 C 0.1051 0.83175 0.74369 0.0
C244 C 0.15142 0.82425 0.74146 0.0
C245 C 0.14558 0.84484 0.72901 0.0
C246 C 0.15707 0.80662 0.80773 0.0
O247 O 0.14371 0.82713 0.80458 0.0
H248 H 0.08195 0.82974 0.74776 0.0
H249 H 0.17266 0.81574 0.74364 0.0
O250 O 0.08054 0.78585 0.77851 0.0
H251 H 0.13194 0.7241 0.70677 0.0
H252 H 0.16155 0.8555 0.71957 0.0
Cu253 Cu 0.46293 0.87021 1.00831 0.0
N254 N 0.47767 0.84517 0.02649 0.0
N255 N 0.49386 0.8089 0.03633 0.0
C256 C 0.47834 0.82201 0.02048 0.0
C257 C 0.50292 0.82449 0.05305 0.0
C258 C 0.49306 0.84684 0.04686 0.0
O259 O 0.4371 0.85611 0.98407 0.0
C260 C 0.49877 0.90846 0.99178 0.0
O261 O 0.4742 0.92089 0.99189 0.0
H262 H 0.46778 0.81505 1.0047 0.0
H263 H 0.49761 0.86328 0.05612 0.0
N264 N 0.44274 0.89134 0.02833 0.0
N265 N 0.43465 0.91964 0.05566 0.0
C266 C 0.45501 0.906 0.04454 0.0
C267 C 0.4136 0.89558 0.02941 0.0
C268 C 0.40855 0.91298 0.04619 0.0
C269 C 0.41809 0.86687 0.97125 0.0
O270 O 0.41586 0.89011 0.97279 0.0
H271 H 0.47839 0.90622 0.0483 0.0
H272 H 0.39715 0.88666 0.01875 0.0
O273 O 0.49768 0.88628 0.99606 0.0
H274 H 0.51657 0.82018 0.06826 0.0
H275 H 0.38726 0.92026 0.05093 0.0
Cu276 Cu 0.39105 0.7932 0.25558 0.0
N277 N 0.38202 0.7659 0.27304 0.0
N278 N 0.36161 0.73166 0.28449 0.0
C279 C 0.36351 0.74813 0.26709 0.0
C280 C 0.37944 0.73947 0.30204 0.0
C281 C 0.39212 0.7605 0.29486 0.0
O282 O 0.36133 0.79695 0.23077 0.0
C283 C 0.44532 0.77179 0.24127 0.0
O284 O 0.43054 0.75184 0.2431 0.0
H285 H 0.35092 0.74772 0.25073 0.0
H286 H 0.40725 0.77136 0.30499 0.0
N287 N 0.38743 0.81966 0.27552 0.0
N288 N 0.39677 0.85201 0.29748 0.0
C289 C 0.40844 0.83441 0.28397 0.0
C290 C 0.36179 0.82816 0.28394 0.0
C291 C 0.36745 0.84799 0.2975 0.0
C292 C 0.36022 0.7858 0.21113 0.0
O293 O 0.38164 0.77106 0.2056 0.0
H294 H 0.43172 0.832 0.28062 0.0
H295 H 0.34043 0.82046 0.28034 0.0
O296 O 0.43176 0.79141 0.24445 0.0
H297 H 0.38277 0.73071 0.31896 0.0
H298 H 0.35116 0.85879 0.30653 0.0
Cu299 Cu 0.46828 0.15594 0.52381 0.0
N300 N 0.48654 0.18082 0.5079 0.0
N301 N 0.50435 0.21661 0.49898 0.0
C302 C 0.48554 0.20424 0.51278 0.0
C303 C 0.5174 0.20042 0.48477 0.0
C304 C 0.50641 0.17834 0.49037 0.0
O305 O 0.44092 0.16975 0.54726 0.0
C306 C 0.50143 0.115 0.53957 0.0
O307 O 0.4767 0.10308 0.53755 0.0
H308 H 0.47208 0.21197 0.52665 0.0
H309 H 0.5129 0.16154 0.48261 0.0
N310 N 0.44838 0.13779 0.50092 0.0
N311 N 0.43995 0.11229 0.47112 0.0
C312 C 0.45996 0.12079 0.48678 0.0
C313 C 0.42024 0.14033 0.49374 0.0
C314 C 0.41498 0.12465 0.47539 0.0
C315 C 0.41859 0.15887 0.55559 0.0
O316 O 0.41482 0.13645 0.54986 0.0
H317 H 0.48285 0.11537 0.48743 0.0
H318 H 0.40479 0.15303 0.50107 0.0
O319 O 0.50104 0.13745 0.53679 0.0
H320 H 0.53369 0.20428 0.47131 0.0
H321 H 0.39441 0.12254 0.46583 0.0
Cu322 Cu 0.13004 0.24073 0.76381 0.0
N323 N 0.14663 0.26486 0.78229 0.0
N324 N 0.16764 0.2999 0.79069 0.0
C325 C 0.15251 0.28699 0.7745 0.0
C326 C 0.17149 0.28511 0.80939 0.0
C327 C 0.15848 0.26355 0.80416 0.0
O328 O 0.15457 0.24031 0.73542 0.0
C329 C 0.06874 0.23539 0.75202 0.0
O330 O 0.07527 0.2129 0.74857 0.0
H331 H 0.14653 0.29322 0.75694 0.0
H332 H 0.15883 0.24772 0.81506 0.0
N333 N 0.1325 0.21119 0.77953 0.0
N334 N 0.12065 0.17754 0.7988 0.0
C335 C 0.11174 0.19963 0.79222 0.0
C336 C 0.1554 0.19602 0.7783 0.0
C337 C 0.14815 0.17531 0.78991 0.0
C338 C 0.15941 0.22306 0.72132 0.0
O339 O 0.14419 0.20336 0.72358 0.0
H340 H 0.09028 0.2071 0.7961 0.0
H341 H 0.1756 0.19945 0.76875 0.0
O342 O 0.08916 0.24986 0.75756 0.0
H343 H 0.18423 0.28901 0.82518 0.0
H344 H 0.16164 0.15944 0.79056 0.0
Cu345 Cu 0.0544 0.87667 0.01535 0.0
N346 N 0.03187 0.85204 1.00271 0.0
N347 N 0.0131 0.81605 0.99551 0.0
C348 C 0.03366 0.82862 1.00755 0.0
C349 C 0.99805 0.83223 0.98253 0.0
C350 C 0.00959 0.85439 0.98709 0.0
O351 O 0.08017 0.86309 0.04 0.0
C352 C 1.00342 0.89791 0.03743 0.0
O353 O 0.99818 0.87686 0.04653 0.0
H354 H 0.05001 0.82098 0.01935 0.0
H355 H 1.00219 0.87112 0.97968 0.0
N356 N 0.07608 0.89043 0.9907 0.0
N357 N 0.08778 0.9157 0.96151 0.0
C358 C 0.06779 0.90977 0.97822 0.0
C359 C 0.10209 0.88366 0.98141 0.0
C360 C 0.10941 0.89927 0.96341 0.0
C361 C 0.10569 0.87085 0.04544 0.0
O362 O 0.11487 0.89069 0.03569 0.0
H363 H 0.04748 0.9194 0.9814 0.0
H364 H 0.11472 0.86839 0.98722 0.0
O365 O 0.02702 0.90131 0.02574 0.0
H366 H 0.97976 0.82833 0.97079 0.0
H367 H 0.12874 0.89823 0.95224 0.0
Cu368 Cu 0.24566 0.4234 0.24008 0.0
N369 N 0.22586 0.41428 0.26775 0.0
N370 N 0.20987 0.39267 0.29855 0.0
C371 C 0.22434 0.39242 0.27754 0.0
C372 C 0.20241 0.41567 0.30211 0.0
C373 C 0.21213 0.42886 0.28309 0.0
O374 O 0.27899 0.40131 0.23692 0.0
C375 C 0.27169 0.4637 0.26221 0.0
O376 O 0.28082 0.44781 0.27768 0.0
H377 H 0.23386 0.3767 0.2695 0.0
H378 H 0.21014 0.4479 0.28093 0.0
N379 N 0.21943 0.42155 0.21427 0.0
N380 N 0.19379 0.42995 0.18118 0.0
C381 C 0.21664 0.43625 0.19538 0.0
C382 C 0.19767 0.40555 0.21193 0.0
C383 C 0.18189 0.41065 0.19164 0.0
C384 C 0.28062 0.38516 0.22106 0.0
O385 O 0.26083 0.38468 0.20401 0.0
H386 H 0.23039 0.45168 0.19259 0.0
H387 H 0.19337 0.39134 0.22437 0.0
O388 O 0.25745 0.45661 0.24401 0.0
H389 H 0.19169 0.42273 0.31775 0.0
H390 H 0.16295 0.40095 0.18511 0.0
Cu391 Cu 0.75197 0.10508 0.79214 0.0
N392 N 0.72543 0.11643 0.76914 0.0
N393 N 0.70616 0.13814 0.73954 0.0
C394 C 0.72795 0.13629 0.75587 0.0
C395 C 0.68894 0.11894 0.74302 0.0
C396 C 0.70094 0.10556 0.76121 0.0
O397 O 0.78487 0.12741 0.79419 0.0
C398 C 0.76641 0.06458 0.76346 0.0
O399 O 0.76449 0.07966 0.74571 0.0
H400 H 0.74539 0.14913 0.75814 0.0
H401 H 0.69282 0.08876 0.76781 0.0
N402 N 0.73388 0.1053 0.82205 0.0
N403 N 0.71227 0.0942 0.85601 0.0
C404 C 0.7202 0.08753 0.83378 0.0
C405 C 0.73456 0.12367 0.83734 0.0
C406 C 0.72136 0.11689 0.85825 0.0
C407 C 0.80043 0.13443 0.77676 0.0
O408 O 0.79706 0.12408 0.75602 0.0
H409 H 0.71701 0.06992 0.82648 0.0
H410 H 0.74454 0.1407 0.83364 0.0
O411 O 0.76323 0.07229 0.7846 0.0
H412 H 0.66959 0.11451 0.73265 0.0
H413 H 0.71863 0.1278 0.87395 0.0
Cu414 Cu 0.13871 0.50963 0.03492 0.0
N415 N 0.13121 0.49267 1.00681 0.0
N416 N 0.11561 0.4823 0.9704 0.0
C417 C 0.11688 0.49977 0.98696 0.0
C418 C 0.1293 0.46348 0.98051 0.0
C419 C 0.13901 0.46997 1.00277 0.0
O420 O 0.10727 0.53297 0.03965 0.0
C421 C 0.19248 0.52686 0.0149 0.0
O422 O 0.17858 0.52467 0.99452 0.0
H423 H 0.10764 0.51739 0.98472 0.0
H424 H 0.15052 0.45876 0.01538 0.0
N425 N 0.13712 0.48817 0.0604 0.0
N426 N 0.14638 0.46846 0.09427 0.0
C427 C 0.155 0.48621 0.07958 0.0
C428 C 0.11663 0.47119 0.06308 0.0
C429 C 0.12223 0.45908 0.08384 0.0
C430 C 0.1066 0.55428 0.03206 0.0
O431 O 0.12942 0.56257 0.02042 0.0
H432 H 0.17347 0.49789 0.08288 0.0
H433 H 0.09881 0.4679 0.05072 0.0
O434 O 0.17851 0.52276 0.03408 0.0
H435 H 0.13129 0.44593 0.97281 0.0
H436 H 0.10958 0.44431 0.09065 0.0
Cu437 Cu 0.78085 0.91743 0.28327 0.0
N438 N 0.80812 0.90512 0.26169 0.0
N439 N 0.82661 0.88268 0.23245 0.0
C440 C 0.80312 0.88707 0.24648 0.0
C441 C 0.8471 0.89878 0.23894 0.0
C442 C 0.83567 0.91255 0.25707 0.0
O443 O 0.74749 0.89545 0.28096 0.0
C444 C 0.76009 0.96631 0.28478 0.0
O445 O 0.75287 0.96213 0.30696 0.0
H446 H 0.78234 0.87783 0.24528 0.0
H447 H 0.8465 0.92711 0.26607 0.0
N448 N 0.79777 0.91655 0.31392 0.0
N449 N 0.82019 0.92521 0.34844 0.0
C450 C 0.80846 0.93402 0.32808 0.0
C451 C 0.80302 0.89623 0.3258 0.0
C452 C 0.81654 0.90147 0.34704 0.0
C453 C 0.73261 0.88705 0.29816 0.0
O454 O 0.73667 0.89573 0.31958 0.0
H455 H 0.80847 0.95266 0.32332 0.0
H456 H 0.79747 0.8787 0.31931 0.0
O457 O 0.77118 0.94959 0.27238 0.0
H458 H 0.86881 0.90043 0.23118 0.0
H459 H 0.82313 0.88875 0.36048 0.0
Cu460 Cu 0.87293 1.00743 0.04124 0.0
N461 N 0.88115 0.02439 0.01315 0.0
N462 N 0.899 0.03479 0.97749 0.0
C463 C 0.90282 0.02105 0.99703 0.0
C464 C 0.8742 0.04739 0.98165 0.0
C465 C 0.86339 0.04104 1.00359 0.0
O466 O 0.9002 0.98062 0.0452 0.0
C467 C 0.81861 0.99128 0.02128 0.0
O468 O 0.83385 0.9896 1.00153 0.0
H469 H 0.92027 1.00808 0.99907 0.0
H470 H 0.84325 0.04742 1.01167 0.0
N471 N 0.87773 0.02747 0.06766 0.0
N472 N 0.86948 0.04893 0.10066 0.0
C473 C 0.85724 0.03577 0.08302 0.0
C474 C 0.90365 0.03564 0.07581 0.0
C475 C 0.89868 0.04887 0.096 0.0
C476 C 0.90711 0.96621 0.02867 0.0
O477 O 0.89433 0.96817 1.0078 0.0
H478 H 0.83389 0.03245 0.08107 0.0
H479 H 0.92478 0.03197 0.06771 0.0
O480 O 0.83178 0.99746 0.04031 0.0
H481 H 0.86427 0.05999 0.96948 0.0
H482 H 0.91539 0.05752 0.10666 0.0
Cu483 Cu 0.26893 0.61122 0.73205 0.0
N484 N 0.29506 0.6225 0.75534 0.0
N485 N 0.31528 0.64504 0.78384 0.0
C486 C 0.29313 0.64291 0.76788 0.0
C487 C 0.33177 0.6252 0.7812 0.0
C488 C 0.31932 0.61141 0.76359 0.0
O489 O 0.23472 0.63241 0.73105 0.0
C490 C 0.25844 0.56794 0.75802 0.0
O491 O 0.26166 0.58139 0.77692 0.0
H492 H 0.27586 0.65598 0.76542 0.0
H493 H 0.327 0.59422 0.75755 0.0
N494 N 0.2868 0.61349 0.7022 0.0
N495 N 0.30741 0.60436 0.66728 0.0
C496 C 0.29961 0.59629 0.689 0.0
C497 C 0.28685 0.63305 0.68845 0.0
C498 C 0.29958 0.6275 0.66695 0.0
C499 C 0.21995 0.63894 0.74914 0.0
O500 O 0.2255 0.62889 0.76974 0.0
H501 H 0.30239 0.5781 0.69491 0.0
H502 H 0.27774 0.65007 0.69361 0.0
O503 O 0.25947 0.57763 0.73756 0.0
H504 H 0.3509 0.62057 0.79178 0.0
H505 H 0.30294 0.63958 0.65225 0.0
Cu506 Cu 0.14488 0.5086 0.48708 0.0
N507 N 0.13346 0.52486 0.51484 0.0
N508 N 0.11215 0.53411 0.54958 0.0
C509 C 0.11264 0.51896 0.53091 0.0
C510 C 0.1334 0.5502 0.54503 0.0
C511 C 0.14638 0.54449 0.52363 0.0
O512 O 0.11795 0.48241 0.48059 0.0
C513 C 0.19989 0.49525 0.50912 0.0
O514 O 0.18552 0.49706 0.52927 0.0
H515 H 0.09819 0.50383 0.52911 0.0
H516 H 0.16465 0.55358 0.51536 0.0
N517 N 0.14294 0.52934 0.4611 0.0
N518 N 0.15577 0.54987 0.42862 0.0
C519 C 0.16483 0.5347 0.44585 0.0
C520 C 0.11919 0.54133 0.45319 0.0
C521 C 0.127 0.55396 0.43317 0.0
C522 C 0.11208 0.46622 0.4956 0.0
O523 O 0.12589 0.46597 0.51614 0.0
H524 H 0.18674 0.52717 0.44713 0.0
H525 H 0.09767 0.54084 0.4614 0.0
O526 O 0.18594 0.49828 0.48967 0.0
H527 H 0.13996 0.56449 0.55676 0.0
H528 H 0.11271 0.56555 0.42294 0.0
Cu529 Cu 0.375 0.51521 0.99242 0.0
N530 N 0.38272 0.49698 0.01953 0.0
N531 N 0.39829 0.48634 0.05577 0.0
C532 C 0.39898 0.50317 0.03863 0.0
C533 C 0.38123 0.4688 0.04693 0.0
C534 C 0.37158 0.47546 0.02464 0.0
O535 O 0.40302 0.54175 0.99239 0.0
C536 C 0.32112 0.53044 0.01331 0.0
O537 O 0.33693 0.53105 0.03287 0.0
H538 H 0.41059 0.51989 0.04013 0.0
H539 H 0.35729 0.46541 0.01299 0.0
N540 N 0.37972 0.49593 0.96544 0.0
N541 N 0.37039 0.47595 0.93187 0.0
C542 C 0.35907 0.48981 0.94925 0.0
C543 C 0.40476 0.48533 0.95817 0.0
C544 C 0.39914 0.4732 0.93735 0.0
C545 C 0.41886 0.54779 0.97471 0.0
O546 O 0.41489 0.53724 0.95416 0.0
H547 H 0.33632 0.4956 0.95006 0.0
H548 H 0.42571 0.48654 0.9673 0.0
O549 O 0.33388 0.5255 0.99376 0.0
H550 H 0.37646 0.45216 0.05573 0.0
H551 H 0.41483 0.46284 0.9272 0.0
Cu552 Cu 0.70902 0.74871 0.8974 0.0
N553 N 0.73203 0.76098 0.92203 0.0
N554 N 0.74959 0.76932 0.95831 0.0
C555 C 0.72667 0.7606 0.94556 0.0
C556 C 0.77009 0.77524 0.94198 0.0
C557 C 0.75909 0.77032 0.91973 0.0
O558 O 0.68014 0.72614 0.91012 0.0
C559 C 0.7599 0.7259 0.87689 0.0
O560 O 0.76673 0.71944 0.89864 0.0
H561 H 0.70654 0.7537 0.95312 0.0
H562 H 0.77049 0.7725 0.90302 0.0
N563 N 0.68858 0.77349 0.88262 0.0
N564 N 0.67927 0.80481 0.85916 0.0
C565 C 0.70018 0.79198 0.87067 0.0
C566 C 0.65943 0.77448 0.87848 0.0
C567 C 0.65362 0.79367 0.864 0.0
C568 C 0.6867 0.70771 0.92221 0.0
O569 O 0.7146 0.70218 0.92526 0.0
H570 H 0.72361 0.79548 0.86987 0.0
H571 H 0.64371 0.76143 0.88458 0.0
O572 O 0.73533 0.73621 0.873 0.0
H573 H 0.7921 0.78154 0.94569 0.0
H574 H 0.63231 0.7981 0.85655 0.0
Cu575 Cu 0.52318 0.48566 0.16611 0.0
N576 N 0.55453 0.50213 0.15243 0.0
N577 N 0.57703 0.52869 0.12916 0.0
C578 C 0.55129 0.51831 0.13497 0.0
C579 C 0.59741 0.51851 0.14348 0.0
C580 C 0.58342 0.50212 0.15787 0.0
O581 O 0.49192 0.48935 0.14263 0.0
C582 C 0.51046 0.48965 0.2161 0.0
O583 O 0.51162 0.46633 0.216 0.0
H584 H 0.53023 0.52289 0.12711 0.0
H585 H 0.59352 0.49122 0.17148 0.0
N586 N 0.53157 0.453 0.16949 0.0
N587 N 0.55072 0.41777 0.18046 0.0
C588 C 0.55403 0.44175 0.18072 0.0
C589 C 0.51359 0.43558 0.16199 0.0
C590 C 0.52511 0.41401 0.16882 0.0
C591 C 0.46484 0.48378 0.14389 0.0
O592 O 0.45446 0.47499 0.16379 0.0
H593 H 0.57206 0.45097 0.1893 0.0
H594 H 0.49295 0.43837 0.15278 0.0
O595 O 0.51376 0.50083 0.19659 0.0
H596 H 0.62072 0.5225 0.1435 0.0
H597 H 0.51454 0.39699 0.16632 0.0
Cu598 Cu 0.79887 0.27846 0.40428 0.0
N599 N 0.78158 0.26289 0.42988 0.0
N600 N 0.76773 0.25427 0.46693 0.0
C601 C 0.78439 0.26844 0.45304 0.0
C602 C 0.75375 0.2394 0.45187 0.0
C603 C 0.76239 0.24473 0.42902 0.0
O604 O 0.82612 0.30194 0.41788 0.0
C605 C 0.76665 0.29169 0.36271 0.0
O606 O 0.79111 0.28607 0.35158 0.0
H607 H 0.79768 0.28304 0.45946 0.0
H608 H 0.75492 0.23621 0.41287 0.0
N609 N 0.81919 0.25588 0.38593 0.0
N610 N 0.82766 0.2267 0.35961 0.0
C611 C 0.80715 0.23857 0.37247 0.0
C612 C 0.84835 0.2546 0.38191 0.0
C613 C 0.85362 0.23671 0.36573 0.0
C614 C 0.84559 0.31356 0.40653 0.0
O615 O 0.84657 0.31168 0.38329 0.0
H616 H 0.78377 0.23494 0.37217 0.0
H617 H 0.86464 0.26614 0.38984 0.0
O618 O 0.76642 0.29164 0.38536 0.0
H619 H 0.73841 0.22565 0.45703 0.0
H620 H 0.87494 0.23184 0.35861 0.0
Cu621 Cu 0.99378 0.53895 0.6659 0.0
N622 N 0.96817 0.51491 0.65564 0.0
N623 N 0.94892 0.48499 0.63446 0.0
C624 C 0.96894 0.50273 0.63499 0.0
C625 C 0.93495 0.48616 0.65557 0.0
C626 C 0.94679 0.50464 0.66853 0.0
O627 O 0.02605 0.54183 0.64303 0.0
C628 C 0.01205 0.51149 0.70632 0.0
O629 O 0.01184 0.49355 0.69138 0.0
H630 H 0.98424 0.50649 0.62078 0.0
H631 H 0.94107 0.50966 0.68649 0.0
N632 N 0.97374 0.56816 0.66604 0.0
N633 N 0.95147 0.6017 0.67799 0.0
C634 C 0.9623 0.58023 0.68463 0.0
C635 C 0.97004 0.58246 0.64712 0.0
C636 C 0.95641 0.60312 0.65441 0.0
C637 C 0.041 0.5245 0.63478 0.0
O638 O 0.03697 0.50317 0.64367 0.0
H639 H 0.96281 0.57373 0.70273 0.0
H640 H 0.97731 0.57828 0.6293 0.0
O641 O 1.00649 0.53229 0.69851 0.0
H642 H 0.91841 0.47382 0.66175 0.0
H643 H 0.95058 0.61807 0.64323 0.0
Cu644 Cu 0.71157 0.26795 0.63033 0.0
N645 N 0.73519 0.25928 0.60461 0.0
N646 N 0.75415 0.25479 0.5683 0.0
C647 C 0.73137 0.26334 0.5812 0.0
C648 C 0.77264 0.24463 0.58416 0.0
C649 C 0.76089 0.24745 0.60649 0.0
O650 O 0.67943 0.28922 0.62042 0.0
C651 C 0.76127 0.29126 0.65217 0.0
O652 O 0.76729 0.29981 0.63103 0.0
H653 H 0.71253 0.27258 0.57377 0.0
H654 H 0.77041 0.24134 0.62305 0.0
N655 N 0.69526 0.24022 0.64291 0.0
N656 N 0.68946 0.20838 0.66627 0.0
C657 C 0.70633 0.22745 0.66113 0.0
C658 C 0.67044 0.22898 0.6363 0.0
C659 C 0.66674 0.20937 0.65075 0.0
C660 C 0.68242 0.30764 0.60747 0.0
O661 O 0.70909 0.31427 0.60138 0.0
H662 H 0.72603 0.23241 0.67074 0.0
H663 H 0.65604 0.23469 0.62205 0.0
O664 O 0.7374 0.27985 0.65536 0.0
H665 H 0.79293 0.23543 0.57989 0.0
H666 H 0.64887 0.19671 0.64977 0.0
Cu667 Cu 0.99689 0.49194 0.85581 0.0
N668 N 0.96917 0.51368 0.86725 0.0
N669 N 0.94907 0.54152 0.89073 0.0
C670 C 0.96872 0.52345 0.88914 0.0
C671 C 0.93686 0.54315 0.86885 0.0
C672 C 0.94924 0.52597 0.85448 0.0
O673 O 0.03005 0.49499 0.87774 0.0
C674 C 0.01825 0.48807 0.8076 0.0
O675 O 0.02826 0.46708 0.81398 0.0
H676 H 0.98335 0.51796 0.90334 0.0
H677 H 0.94528 0.52352 0.83568 0.0
N678 N 0.98148 0.461 0.85738 0.0
N679 N 0.96157 0.42566 0.84845 0.0
C680 C 0.97111 0.44677 0.83989 0.0
C681 C 0.97823 0.44848 0.87755 0.0
C682 C 0.96591 0.4268 0.87214 0.0
C683 C 0.04921 0.47906 0.88226 0.0
O684 O 0.04937 0.45938 0.86969 0.0
H685 H 0.96984 0.45202 0.82142 0.0
H686 H 0.98427 0.45482 0.89503 0.0
O687 O 1.00563 0.50111 0.82305 0.0
H688 H 0.92147 0.5567 0.86308 0.0
H689 H 0.9605 0.41291 0.88468 0.0
Cu690 Cu 0.80389 0.75688 0.12143 0.0
N691 N 0.77914 0.76576 0.09641 0.0
N692 N 0.76101 0.77047 0.05987 0.0
C693 C 0.785 0.76491 0.07297 0.0
C694 C 0.73929 0.77501 0.07548 0.0
C695 C 0.75063 0.7723 0.09807 0.0
O696 O 0.83111 0.73236 0.10956 0.0
C697 C 0.75554 0.73547 0.14723 0.0
O698 O 0.74891 0.72395 0.12763 0.0
H699 H 0.80605 0.75957 0.06564 0.0
H700 H 0.73871 0.77434 0.11456 0.0
N701 N 0.82393 0.7837 0.13244 0.0
N702 N 0.83446 0.81407 0.15674 0.0
C703 C 0.81481 0.79703 0.15089 0.0
C704 C 0.85004 0.79285 0.12593 0.0
C705 C 0.85656 0.81164 0.14087 0.0
C706 C 0.85701 0.72837 0.11752 0.0
O707 O 0.86595 0.73988 0.13651 0.0
H708 H 0.79402 0.79422 0.15973 0.0
H709 H 0.86368 0.78597 0.11176 0.0
O710 O 0.77902 0.74776 0.14812 0.0
H711 H 0.71687 0.77975 0.07082 0.0
H712 H 0.87644 0.82223 0.14051 0.0
Cu713 Cu 0.52485 0.54086 0.35754 0.0
N714 N 0.55316 0.52184 0.3724 0.0
N715 N 0.57297 0.49388 0.3958 0.0
C716 C 0.54788 0.50451 0.38835 0.0
C717 C 0.5949 0.50516 0.38422 0.0
C718 C 0.58259 0.52236 0.36976 0.0
O719 O 0.49025 0.53813 0.37792 0.0
C720 C 0.50715 0.53851 0.30802 0.0
O721 O 0.49741 0.56035 0.31072 0.0
H722 H 0.52601 0.49967 0.39425 0.0
H723 H 0.59425 0.53454 0.35829 0.0
N724 N 0.53848 0.57241 0.35688 0.0
N725 N 0.5567 0.60763 0.34568 0.0
C726 C 0.54993 0.58522 0.33882 0.0
C727 C 0.53885 0.58705 0.3758 0.0
C728 C 0.54991 0.60873 0.36896 0.0
C729 C 0.47227 0.55467 0.3833 0.0
O730 O 0.47417 0.57525 0.37241 0.0
H731 H 0.55313 0.57836 0.32104 0.0
H732 H 0.53161 0.5822 0.39343 0.0
O733 O 0.51843 0.52773 0.32577 0.0
H734 H 0.61821 0.50163 0.38643 0.0
H735 H 0.55334 0.62398 0.38036 0.0
Cu736 Cu 0.88666 0.73862 0.76577 0.0
N737 N 0.87907 0.76445 0.74563 0.0
N738 N 0.86176 0.79926 0.73197 0.0
C739 C 0.8593 0.78216 0.74877 0.0
C740 C 0.88417 0.79201 0.71793 0.0
C741 C 0.89469 0.77059 0.72634 0.0
O742 O 0.85795 0.73956 0.79146 0.0
C743 C 0.94013 0.76038 0.78104 0.0
O744 O 0.92482 0.78018 0.7795 0.0
H745 H 0.84378 0.78267 0.76333 0.0
H746 H 0.9132 0.7606 0.71946 0.0
N747 N 0.88254 0.70987 0.7492 0.0
N748 N 0.89303 0.67558 0.73076 0.0
C749 C 0.90385 0.69629 0.73932 0.0
C750 C 0.85746 0.69744 0.74656 0.0
C751 C 0.86383 0.67635 0.73518 0.0
C752 C 0.85404 0.72267 0.80616 0.0
O753 O 0.87154 0.70404 0.80531 0.0
H754 H 0.9269 0.70119 0.73895 0.0
H755 H 0.83609 0.7032 0.75285 0.0
O756 O 0.92726 0.74069 0.77701 0.0
H757 H 0.89331 0.80193 0.70325 0.0
H758 H 0.84814 0.66271 0.73034 0.0
Cu759 Cu 0.5536 0.64742 1.01011 0.0
N760 N 0.53692 0.67254 0.02697 0.0
N761 N 0.51999 0.70872 0.03625 0.0
C762 C 0.53678 0.69576 0.02118 0.0
C763 C 0.50953 0.69296 0.05221 0.0
C764 C 0.5199 0.67068 0.04638 0.0
O765 O 0.57781 0.66131 0.98478 0.0
C766 C 0.52149 0.6091 0.9877 0.0
O767 O 0.54711 0.60131 0.9801 0.0
H768 H 0.54876 0.70288 1.00621 0.0
H769 H 0.51478 0.65416 0.05525 0.0
N770 N 0.57632 0.62932 0.03131 0.0
N771 N 0.58867 0.60315 0.05966 0.0
C772 C 0.56689 0.6116 0.04549 0.0
C773 C 0.605 0.63218 0.03664 0.0
C774 C 0.61275 0.61597 0.05394 0.0
C775 C 0.60053 0.65165 0.97558 0.0
O776 O 0.60748 0.6298 0.98168 0.0
H777 H 0.54432 0.60543 0.04581 0.0
H778 H 0.61925 0.64527 0.0286 0.0
O779 O 0.52026 0.62847 0.99929 0.0
H780 H 0.49473 0.69713 0.06668 0.0
H781 H 0.63453 0.61367 0.06147 0.0
Cu782 Cu 0.62503 0.28328 0.26495 0.0
N783 N 0.63283 0.25784 0.24431 0.0
N784 N 0.65197 0.22399 0.22982 0.0
C785 C 0.65344 0.24069 0.24711 0.0
C786 C 0.62931 0.23091 0.21577 0.0
C787 C 0.61767 0.25176 0.22469 0.0
O788 O 0.65453 0.28168 0.29019 0.0
C789 C 0.56918 0.26261 0.2773 0.0
O790 O 0.58247 0.24216 0.27365 0.0
H791 H 0.66907 0.24038 0.26168 0.0
H792 H 0.59889 0.26146 0.21779 0.0
N793 N 0.62923 0.31242 0.24911 0.0
N794 N 0.61798 0.34604 0.22977 0.0
C795 C 0.60893 0.32396 0.23581 0.0
C796 C 0.6518 0.32772 0.25149 0.0
C797 C 0.64487 0.3485 0.23969 0.0
C798 C 0.65763 0.29639 0.30721 0.0
O799 O 0.63824 0.31356 0.30988 0.0
H800 H 0.58745 0.31676 0.23159 0.0
H801 H 0.6715 0.32432 0.26182 0.0
O802 O 0.58416 0.28169 0.27591 0.0
H803 H 0.62093 0.22119 0.20062 0.0
H804 H 0.65834 0.36432 0.23873 0.0
Cu805 Cu 0.96539 0.37719 0.5049 0.0
N806 N 0.98864 0.35059 0.51163 0.0
N807 N 1.0043 0.31319 0.51583 0.0
C808 C 0.98114 0.32746 0.5107 0.0
C809 C 0.02715 0.32783 0.52012 0.0
C810 C 0.01736 0.35089 0.51771 0.0
O811 O 0.93434 0.36876 0.48199 0.0
C812 C 0.01394 0.40115 0.48191 0.0
O813 O 0.01807 0.38163 0.46955 0.0
H814 H 0.95941 0.32122 0.5058 0.0
H815 H 0.03035 0.36682 0.51997 0.0
N816 N 0.94802 0.38772 0.53308 0.0
N817 N 0.9385 0.41051 0.56477 0.0
C818 C 0.95477 0.40784 0.54488 0.0
C819 C 0.92691 0.37713 0.546 0.0
C820 C 0.92102 0.39113 0.5656 0.0
C821 C 0.93949 0.35847 0.46224 0.0
O822 O 0.96695 0.35433 0.45616 0.0
H823 H 0.97125 0.42036 0.53893 0.0
H824 H 0.9168 0.3603 0.5416 0.0
O825 O 0.99171 0.40285 0.49557 0.0
H826 H 0.04927 0.3222 0.52474 0.0
H827 H 0.90563 0.38701 0.57965 0.0
Cu828 Cu 0.89182 0.2882 0.76111 0.0
N829 N 0.87291 0.26344 0.77781 0.0
N830 N 0.85314 0.22776 0.78588 0.0
C831 C 0.8729 0.23996 0.77268 0.0
C832 C 0.8409 0.24419 0.80033 0.0
C833 C 0.85302 0.26603 0.79531 0.0
O834 O 0.86784 0.29481 0.7328 0.0
C835 C 0.947 0.2649 0.76619 0.0
O836 O 0.93455 0.25594 0.78519 0.0
H837 H 0.88683 0.23213 0.75921 0.0
H838 H 0.84672 0.2828 0.80319 0.0
N839 N 0.8912 0.3162 0.77937 0.0
N840 N 0.90312 0.34911 0.79968 0.0
C841 C 0.91343 0.32976 0.78792 0.0
C842 C 0.8663 0.32754 0.78572 0.0
C843 C 0.87352 0.34761 0.79836 0.0
C844 C 0.85735 0.27824 0.7199 0.0
O845 O 0.86558 0.25624 0.7239 0.0
H846 H 0.93654 0.32543 0.78579 0.0
H847 H 0.8443 0.32164 0.78125 0.0
O848 O 0.93248 0.2794 0.75322 0.0
H849 H 0.82323 0.24091 0.81278 0.0
H850 H 0.85817 0.36036 0.80579 0.0
Cu851 Cu 0.96564 0.6518 0.01948 0.0
N852 N 0.97964 0.67813 1.00272 0.0
N853 N 0.99335 0.71516 0.99356 0.0
C854 C 0.98032 0.70102 1.00983 0.0
C855 C 1.0009 0.70062 0.97549 0.0
C856 C 0.99258 0.67782 0.98125 0.0
O857 O 0.93794 0.66303 0.04381 0.0
C858 C 0.9991 0.61201 0.03556 0.0
O859 O 0.97345 0.60125 0.03523 0.0
H860 H 0.97115 0.7072 0.02644 0.0
H861 H 0.99608 0.66205 0.97064 0.0
N862 N 0.94494 0.63187 0.99866 0.0
N863 N 0.93425 0.60579 0.96978 0.0
C864 C 0.95521 0.61978 0.97967 0.0
C865 C 0.91671 0.62514 1.00104 0.0
C866 C 0.91009 0.60904 0.98339 0.0
C867 C 0.94465 0.67499 0.06226 0.0
O868 O 0.97261 0.67878 0.06702 0.0
H869 H 0.9777 0.62095 0.97346 0.0
H870 H 0.90222 0.631 0.01511 0.0
O871 O 1.00001 0.6342 0.03108 0.0
H872 H 0.01212 0.70604 0.95945 0.0
H873 H 0.88939 0.59975 0.98145 0.0
Cu874 Cu 0.6266 0.74278 0.25738 0.0
N875 N 0.63693 0.76979 0.27533 0.0
N876 N 0.65787 0.80372 0.28777 0.0
C877 C 0.66032 0.78449 0.27336 0.0
C878 C 0.63231 0.80059 0.29956 0.0
C879 C 0.61953 0.77979 0.29188 0.0
O880 O 0.65355 0.73753 0.2308 0.0
C881 C 0.57401 0.76609 0.24155 0.0
O882 O 0.59083 0.78501 0.24061 0.0
H883 H 0.67867 0.78116 0.26161 0.0
H884 H 0.59841 0.77282 0.29732 0.0
N885 N 0.62889 0.7156 0.27654 0.0
N886 N 0.61678 0.68253 0.29636 0.0
C887 C 0.60667 0.7022 0.28509 0.0
C888 C 0.65378 0.70402 0.28258 0.0
C889 C 0.6464 0.68363 0.29474 0.0
C890 C 0.66353 0.75366 0.2172 0.0
O891 O 0.65448 0.77569 0.21988 0.0
H892 H 0.5836 0.70635 0.28234 0.0
H893 H 0.67575 0.70976 0.27794 0.0
O894 O 0.58563 0.74617 0.24706 0.0
H895 H 0.62293 0.81294 0.31223 0.0
H896 H 0.66164 0.67057 0.30181 0.0
Cu897 Cu 0.5568 0.37964 0.52115 0.0
N898 N 0.53847 0.35389 0.50653 0.0
N899 N 0.52274 0.31731 0.49798 0.0
C900 C 0.54254 0.33044 0.5102 0.0
C901 C 0.50568 0.33307 0.48621 0.0
C902 C 0.51551 0.35559 0.49145 0.0
O903 O 0.58633 0.36834 0.54411 0.0
C904 C 0.52555 0.42145 0.53555 0.0
O905 O 0.5503 0.43241 0.53062 0.0
H906 H 0.55877 0.3232 0.52234 0.0
H907 H 0.50603 0.37216 0.48532 0.0
N908 N 0.57626 0.39712 0.4977 0.0
N909 N 0.58564 0.42158 0.46732 0.0
C910 C 0.56458 0.41154 0.48097 0.0
C911 C 0.6056 0.39811 0.49456 0.0
C912 C 0.61146 0.41321 0.47592 0.0
C913 C 0.58132 0.35394 0.56111 0.0
O914 O 0.55405 0.34729 0.56507 0.0
H915 H 0.54116 0.41473 0.47896 0.0
H916 H 0.62162 0.38878 0.50537 0.0
O917 O 0.52492 0.39884 0.53448 0.0
H918 H 0.48716 0.32859 0.47492 0.0
H919 H 0.63312 0.41823 0.46971 0.0
Cu920 Cu 0.74556 0.91567 0.74331 0.0
N921 N 0.71897 0.90548 0.7664 0.0
N922 N 0.69866 0.88323 0.79501 0.0
C923 C 0.71672 0.88355 0.77589 0.0
C924 C 0.68949 0.90597 0.7976 0.0
C925 C 0.70194 0.91956 0.77994 0.0
O926 O 0.77823 0.89289 0.74449 0.0
C927 C 0.76851 0.96349 0.73864 0.0
O928 O 0.77646 0.95718 0.7171 0.0
H929 H 0.72895 0.86835 0.7694 0.0
H930 H 0.70012 0.93863 0.77795 0.0
N931 N 0.72751 0.91477 0.71317 0.0
N932 N 0.70774 0.92506 0.67814 0.0
C933 C 0.71684 0.93277 0.69971 0.0
C934 C 0.72431 0.8951 0.69981 0.0
C935 C 0.71227 0.90138 0.67821 0.0
C936 C 0.79377 0.88696 0.72662 0.0
O937 O 0.79067 0.89885 0.70669 0.0
H938 H 0.71635 0.95116 0.70535 0.0
H939 H 0.7308 0.87741 0.7053 0.0
O940 O 0.75652 0.94814 0.7521 0.0
H941 H 0.67628 0.91277 0.81206 0.0
H942 H 0.70704 0.88944 0.66372 0.0
Cu943 Cu 0.24884 0.61157 0.28726 0.0
N944 N 0.21966 0.62574 0.2684 0.0
N945 N 0.20035 0.65016 0.24104 0.0
C946 C 0.22515 0.64007 0.24975 0.0
C947 C 0.17827 0.64138 0.25444 0.0
C948 C 0.19028 0.62642 0.27142 0.0
O949 O 0.28277 0.63282 0.28462 0.0
C950 C 0.27256 0.56481 0.28726 0.0
O951 O 0.28495 0.57215 0.30706 0.0
H952 H 0.24708 0.64334 0.24302 0.0
H953 H 0.17857 0.61735 0.28544 0.0
N954 N 0.23758 0.60986 0.31948 0.0
N955 N 0.2201 0.59704 0.35445 0.0
C956 C 0.22019 0.59383 0.33057 0.0
C957 C 0.24856 0.62357 0.337 0.0
C958 C 0.23764 0.61593 0.35839 0.0
C959 C 0.27832 0.65468 0.28957 0.0
O960 O 0.25205 0.6615 0.29665 0.0
H961 H 0.20877 0.57961 0.32147 0.0
H962 H 0.26424 0.63775 0.33462 0.0
O963 O 0.25679 0.57945 0.27549 0.0
H964 H 0.15524 0.64617 0.2527 0.0
H965 H 0.24238 0.62369 0.37557 0.0
Cu966 Cu 0.64036 0.01378 0.54171 0.0
N967 N 0.62997 0.99676 0.51434 0.0
N968 N 0.61153 0.98816 0.4784 0.0
C969 C 0.61349 1.00455 0.49592 0.0
C970 C 0.6276 0.96943 0.4861 0.0
C971 C 0.63888 0.97477 0.50825 0.0
O972 O 0.61073 0.03858 0.54631 0.0
C973 C 0.69439 0.02708 0.51915 0.0
O974 O 0.67932 0.02446 0.49937 0.0
H975 H 0.60331 0.02197 0.4953 0.0
H976 H 0.65316 0.96365 0.51896 0.0
N977 N 0.63817 0.99403 0.56846 0.0
N978 N 0.64983 0.9741 0.60164 0.0
C979 C 0.66024 0.98535 0.58213 0.0
C980 C 0.61314 0.98803 0.57968 0.0
C981 C 0.62024 0.97582 0.60014 0.0
C982 C 0.6103 0.05913 0.5369 0.0
O983 O 0.63241 0.0657 0.52343 0.0
H984 H 0.68337 0.98806 0.57838 0.0
H985 H 0.59124 0.99286 0.57372 0.0
O986 O 0.6811 0.02487 0.53896 0.0
H987 H 0.63174 0.9533 0.47616 0.0
H988 H 0.60485 0.96887 0.61304 0.0
Cu989 Cu 0.27532 0.41988 0.78958 0.0
N990 N 0.29917 0.40865 0.76464 0.0
N991 N 0.3163 0.38617 0.73471 0.0
C992 C 0.29661 0.38795 0.75265 0.0
C993 C 0.33199 0.40651 0.73566 0.0
C994 C 0.32151 0.42023 0.75414 0.0
O995 O 0.24189 0.39841 0.79329 0.0
C996 C 0.26148 0.46386 0.76504 0.0
O997 O 0.26412 0.45144 0.74539 0.0
H998 H 0.27997 0.37481 0.75649 0.0
H999 H 0.32917 0.43769 0.75926 0.0
N1000 N 0.29604 0.4181 0.81835 0.0
N1001 N 0.31651 0.42808 0.85311 0.0
C1002 C 0.30754 0.43589 0.83155 0.0
C1003 C 0.29808 0.39852 0.83199 0.0
C1004 C 0.31066 0.40462 0.85344 0.0
C1005 C 0.22611 0.39029 0.77642 0.0
O1006 O 0.22964 0.39877 0.75487 0.0
H1007 H 0.30799 0.4543 0.82599 0.0
H1008 H 0.28983 0.3812 0.82701 0.0
O1009 O 0.26417 0.4533 0.78496 0.0
H1010 H 0.34965 0.41126 0.72369 0.0
H1011 H 0.31469 0.39286 0.86832 0.0
Cu1012 Cu 0.3801 0.5178 0.53196 0.0
N1013 N 0.38518 0.53615 0.50455 0.0
N1014 N 0.40114 0.54721 0.46858 0.0
C1015 C 0.40519 0.53241 0.48728 0.0
C1016 C 0.37787 0.56096 0.47461 0.0
C1017 C 0.36801 0.55404 0.49671 0.0
O1018 O 0.41342 0.4959 0.53351 0.0
C1019 C 0.3286 0.49768 0.51125 0.0
O1020 O 0.34401 0.49874 0.49158 0.0
H1021 H 0.42232 0.51906 0.4885 0.0
H1022 H 0.34915 0.56106 0.50614 0.0
N1023 N 0.38194 0.53709 0.55903 0.0
N1024 N 0.36943 0.55698 0.59196 0.0
C1025 C 0.35954 0.5456 0.57232 0.0
C1026 C 0.40671 0.54328 0.57064 0.0
C1027 C 0.39908 0.55548 0.59096 0.0
C1028 C 0.414 0.47398 0.53902 0.0
O1029 O 0.38921 0.46298 0.54376 0.0
H1030 H 0.33653 0.54271 0.56815 0.0
H1031 H 0.42877 0.53869 0.56498 0.0
O1032 O 0.34106 0.50327 0.53079 0.0
H1033 H 0.36814 0.57464 0.46355 0.0
H1034 H 0.41415 0.56262 0.60407 0.0
Cu1035 Cu 0.77353 0.11083 0.24184 0.0
N1036 N 0.79798 0.12403 0.2651 0.0
N1037 N 0.8135 0.14857 0.29393 0.0
C1038 C 0.7965 0.14617 0.27424 0.0
C1039 C 0.82639 0.12706 0.2969 0.0
C1040 C 0.81672 0.11203 0.27922 0.0
O1041 O 0.73909 0.13201 0.24102 0.0
C1042 C 0.75487 0.06102 0.24178 0.0
O1043 O 0.74796 0.06353 0.21925 0.0
H1044 H 0.78271 0.15996 0.2667 0.0
H1045 H 0.82177 0.0933 0.2775 0.0
N1046 N 0.79349 0.11071 0.21245 0.0
N1047 N 0.81595 0.10018 0.17847 0.0
C1048 C 0.8027 0.09245 0.19861 0.0
C1049 C 0.80163 0.13049 0.20082 0.0
C1050 C 0.81532 0.12412 0.17998 0.0
C1051 C 0.72687 0.14008 0.22226 0.0
O1052 O 0.73491 0.13149 0.20157 0.0
H1053 H 0.80048 0.07396 0.20348 0.0
H1054 H 0.79761 0.14839 0.20707 0.0
O1055 O 0.76466 0.07879 0.25336 0.0
H1056 H 0.84072 0.12213 0.31147 0.0
H1057 H 0.82394 0.13624 0.1668 0.0
Cu1058 Cu 0.63817 1.00795 0.99072 0.0
N1059 N 0.62721 0.02506 0.01789 0.0
N1060 N 0.60771 0.03374 0.0534 0.0
C1061 C 0.60881 0.01796 0.03527 0.0
C1062 C 0.62634 0.05133 0.04715 0.0
C1063 C 0.63825 0.04595 0.02527 0.0
O1064 O 0.60874 0.98334 0.98554 0.0
C1065 C 0.69008 0.99253 0.01503 0.0
O1066 O 0.67337 0.99407 0.03398 0.0
H1067 H 0.59683 1.00136 0.03479 0.0
H1068 H 0.6546 0.05613 0.01576 0.0
N1069 N 0.63694 0.02769 0.9639 0.0
N1070 N 0.64927 0.04654 0.93036 0.0
C1071 C 0.65926 0.03474 0.94973 0.0
C1072 C 0.61219 0.03552 0.95324 0.0
C1073 C 0.6197 0.04719 0.93261 0.0
C1074 C 0.60793 0.96307 0.9955 0.0
O1075 O 0.62941 0.95684 1.00992 0.0
H1076 H 0.68222 0.03065 0.95312 0.0
H1077 H 0.59013 0.03245 0.95978 0.0
O1078 O 0.67852 0.99626 0.99468 0.0
H1079 H 0.63197 0.06654 0.05801 0.0
H1080 H 0.60458 0.05554 0.92024 0.0
Cu1081 Cu 0.87604 1.00875 0.49091 0.0
N1082 N 0.88622 0.98857 0.51619 0.0
N1083 N 0.90504 0.97716 0.55139 0.0
C1084 C 0.89543 0.99559 0.53789 0.0
C1085 C 0.90131 0.95778 0.53747 0.0
C1086 C 0.88986 0.96487 0.51584 0.0
O1087 O 0.90443 0.03469 0.49298 0.0
C1088 C 0.82313 0.02528 0.51323 0.0
O1089 O 0.84005 0.02763 0.53203 0.0
H1090 H 0.89525 0.01398 0.54337 0.0
H1091 H 0.88559 0.95365 0.50061 0.0
N1092 N 0.88164 0.99291 0.46183 0.0
N1093 N 0.87475 0.97371 0.42731 0.0
C1094 C 0.86165 0.98363 0.44655 0.0
C1095 C 0.90804 0.98894 0.45177 0.0
C1096 C 0.9039 0.97723 0.43055 0.0
C1097 C 0.91239 0.04832 0.47612 0.0
O1098 O 0.89852 0.04734 0.45563 0.0
H1099 H 0.83811 0.98385 0.4496 0.0
H1100 H 0.9289 0.99439 0.45933 0.0
O1101 O 0.83475 0.01854 0.49374 0.0
H1102 H 0.90757 0.93981 0.54216 0.0
H1103 H 0.92107 0.97201 0.41828 0.0
C1104 C 0.23706 0.25565 0.52734 0.0
C1105 C 0.25679 0.26995 0.54014 0.0
C1106 C 0.23493 0.2573 0.50252 0.0
C1107 C 0.25211 0.27367 0.48963 0.0
H1108 H 0.22359 0.2428 0.53661 0.0
H1109 H 0.22013 0.24532 0.49338 0.0
S1110 S 0.30448 0.31718 0.51585 0.0
N1111 N 0.29243 0.30182 0.53882 0.0
N1112 N 0.28764 0.306 0.49234 0.0
C1113 C 0.27122 0.28867 0.50256 0.0
C1114 C 0.27376 0.28655 0.52776 0.0
C1115 C 0.99802 0.02557 0.74723 0.0
C1116 C 0.99708 1.00066 0.74503 0.0
C1117 C 0.9988 0.03671 0.76955 0.0
C1118 C 0.999 0.02349 0.79084 0.0
H1119 H 0.99847 0.03668 0.73152 0.0
H1120 H 0.99997 0.05593 0.77 0.0
S1121 S 0.99596 0.95764 0.79511 0.0
N1122 N 0.99557 0.96302 0.76628 0.0
N1123 N 0.9973 0.98391 0.80816 0.0
C1124 C 0.99745 0.99853 0.78896 0.0
C1125 C 0.99641 0.98716 0.76614 0.0
C1126 C 0.25863 0.76715 0.9955 0.0
C1127 C 0.25485 0.74736 0.98052 0.0
C1128 C 0.25323 0.76555 0.02002 0.0
C1129 C 0.24435 0.74401 0.03047 0.0
H1130 H 0.26528 0.78407 0.98812 0.0
H1131 H 0.25638 0.78119 0.03093 0.0
S1132 S 0.23197 0.68692 0.99906 0.0
N1133 N 0.24232 0.70548 0.97798 0.0
N1134 N 0.23189 0.70255 0.02388 0.0
C1135 C 0.24076 0.72407 0.01569 0.0
C1136 C 0.24605 0.72574 0.99077 0.0
C1137 C 0.52013 0.04603 0.28638 0.0
C1138 C 0.51321 0.02296 0.29428 0.0
C1139 C 0.52076 0.05175 0.26209 0.0
C1140 C 0.51428 0.03472 0.24448 0.0
H1141 H 0.5247 0.06002 0.29907 0.0
H1142 H 0.52569 0.06991 0.25718 0.0
S1143 S 0.49615 0.97128 0.2555 0.0
N1144 N 0.50087 0.98262 0.28229 0.0
N1145 N 0.50187 0.99336 0.23677 0.0
C1146 C 0.50808 1.01137 0.25207 0.0
C1147 C 0.50762 1.0055 0.27687 0.0
C1148 C 0.51984 0.24237 0.27835 0.0
C1149 C 0.53639 0.26349 0.27984 0.0
C1150 C 0.48887 0.24274 0.27782 0.0
C1151 C 0.47293 0.26426 0.27873 0.0
H1152 H 0.53084 0.22533 0.27683 0.0
H1153 H 0.47741 0.22599 0.27586 0.0
S1154 S 0.50547 0.32449 0.28522 0.0
N1155 N 0.53423 0.30651 0.28407 0.0
N1156 N 0.47624 0.30722 0.28311 0.0
C1157 C 0.48915 0.28545 0.28139 0.0
C1158 C 0.52074 0.28507 0.28193 0.0
C1159 C 0.02837 0.27539 0.50495 0.0
C1160 C 1.00507 0.28763 0.51597 0.0
C1161 C 0.02946 0.25047 0.50479 0.0
C1162 C 1.00746 0.23685 0.51591 0.0
H1163 H 0.04556 0.28521 0.49598 0.0
H1164 H 0.04734 0.24185 0.49542 0.0
S1165 S 0.94368 0.26081 0.54972 0.0
N1166 N 0.96063 0.28464 0.53955 0.0
N1167 N 0.96301 0.23785 0.54008 0.0
C1168 C 0.98453 0.24903 0.52768 0.0
C1169 C 0.98325 0.2744 0.52749 0.0
C1170 C 0.01828 0.78472 0.78401 0.0
C1171 C 0.03594 0.76416 0.78576 0.0
C1172 C 0.9874 0.78334 0.78345 0.0
C1173 C 0.97272 0.76133 0.78446 0.0
H1174 H 0.02834 0.80208 0.78246 0.0
H1175 H 0.97502 0.79971 0.78143 0.0
S1176 S 1.00845 0.70221 0.79118 0.0
N1177 N 0.03618 0.72109 0.79011 0.0
N1178 N 0.9783 0.71854 0.7889 0.0
C1179 C 0.99003 0.74068 0.78717 0.0
C1180 C 0.02153 0.74208 0.78786 0.0
C1181 C 0.50283 0.77084 0.05698 0.0
C1182 C 0.50029 0.78373 0.03566 0.0
C1183 C 0.50937 0.74648 0.05697 0.0
C1184 C 0.51378 0.73393 0.03563 0.0
H1185 H 0.49944 0.77962 0.07388 0.0
H1186 H 0.51124 0.73743 0.07387 0.0
S1187 S 0.50982 0.75935 0.97482 0.0
N1188 N 0.5034 0.78216 0.99254 0.0
N1189 N 0.51461 0.73624 0.99248 0.0
C1190 C 0.5113 0.74657 0.01412 0.0
C1191 C 0.50474 0.77146 0.01414 0.0
C1192 C 0.52377 0.74764 0.23857 0.0
C1193 C 0.54135 0.76822 0.23885 0.0
C1194 C 0.49288 0.74905 0.23837 0.0
C1195 C 0.47805 0.7711 0.2386 0.0
H1196 H 0.53391 0.73019 0.23902 0.0
H1197 H 0.48057 0.73259 0.23874 0.0
S1198 S 0.51362 0.83049 0.23796 0.0
N1199 N 0.54144 0.81151 0.23816 0.0
N1200 N 0.48352 0.81411 0.23794 0.0
C1201 C 0.49532 0.79187 0.23805 0.0
C1202 C 0.52686 0.79044 0.23813 0.0
C1203 C 0.49015 0.28237 0.50004 0.0
C1204 C 0.51872 0.29195 0.49881 0.0
C1205 C 0.48564 0.25773 0.50056 0.0
C1206 C 0.50952 0.24182 0.49941 0.0
H1207 H 0.47116 0.29404 0.50079 0.0
H1208 H 0.46332 0.25103 0.50139 0.0
S1209 S 0.58864 0.25782 0.49647 0.0
N1210 N 0.57121 0.28363 0.49682 0.0
N1211 N 0.56274 0.23729 0.49767 0.0
C1212 C 0.53819 0.25114 0.49833 0.0
C1213 C 0.5428 0.27623 0.49812 0.0
C1214 C 0.9866 0.23411 0.76454 0.0
C1215 C 0.97752 0.25764 0.76018 0.0
C1216 C 0.01585 0.22689 0.76079 0.0
C1217 C 0.03741 0.24308 0.75316 0.0
H1218 H 0.97099 0.22116 0.7711 0.0
H1219 H 0.02181 0.20867 0.76482 0.0
S1220 S 0.02488 0.30671 0.73879 0.0
N1221 N 0.99213 0.29697 0.74701 0.0
N1222 N 0.04742 0.28367 0.74076 0.0
C1223 C 0.02854 0.26663 0.74841 0.0
C1224 C 0.99852 0.27383 0.75167 0.0
C1225 C 0.99526 0.75439 0.97406 0.0
C1226 C 0.99813 0.74049 0.9947 0.0
C1227 C 1.00013 0.77898 0.97452 0.0
C1228 C 1.0084 0.79067 0.9956 0.0
H1229 H 0.98891 0.7462 0.95741 0.0
H1230 H 0.99774 0.78889 0.95815 0.0
S1231 S 0.0192 0.76241 0.05456 0.0
N1232 N 0.01017 0.74019 0.03681 0.0
N1233 N 0.01893 0.78648 0.03777 0.0
C1234 C 0.01144 0.777 0.0164 0.0
C1235 C 1.00631 0.75193 0.01595 0.0
C1236 C 0.25835 0.50652 0.25428 0.0
C1237 C 0.27465 0.48965 0.26742 0.0
C1238 C 0.25843 0.53078 0.26038 0.0
C1239 C 0.27486 0.53932 0.27987 0.0
H1240 H 0.24467 0.50089 0.23953 0.0
H1241 H 0.24488 0.54282 0.25002 0.0
S1242 S 0.32357 0.50289 0.31877 0.0
N1243 N 0.30931 0.4836 0.29992 0.0
N1244 N 0.30952 0.52894 0.31132 0.0
C1245 C 0.29218 0.52276 0.29259 0.0
C1246 C 0.29205 0.49806 0.2864 0.0
C1247 C 0.77694 0.03085 0.73544 0.0
C1248 C 0.76956 0.0386 0.75848 0.0
C1249 C 0.77755 1.00659 0.72949 0.0
C1250 C 0.77054 0.98891 0.74624 0.0
H1251 H 0.78185 0.04365 0.72165 0.0
H1252 H 0.78278 1.00178 0.71135 0.0
S1253 S 0.75116 0.99953 0.8095 0.0
N1254 N 0.7563 0.02638 0.7985 0.0
N1255 N 0.75725 0.98094 0.78734 0.0
C1256 C 0.76394 0.99634 0.76958 0.0
C1257 C 0.76353 0.02109 0.77568 0.0
C1258 C 0.24071 0.53144 0.99363 0.0
C1259 C 0.225 0.53079 0.0152 0.0
C1260 C 0.27163 0.5322 0.99321 0.0
C1261 C 0.28832 0.53248 0.01433 0.0
H1262 H 0.22913 0.53059 0.97681 0.0
H1263 H 0.28251 0.53194 0.97611 0.0
S1264 S 0.25797 0.53294 0.07565 0.0
N1265 N 0.22861 0.53193 0.05832 0.0
N1266 N 0.28654 0.53348 0.05757 0.0
C1267 C 0.27288 0.53292 0.03606 0.0
C1268 C 0.24133 0.53204 0.03648 0.0
C1269 C 0.75489 0.01638 0.23917 0.0
C1270 C 0.75398 0.03709 0.25322 0.0
C1271 C 0.75652 0.99365 0.24951 0.0
C1272 C 0.75679 0.99059 0.27436 0.0
H1273 H 0.7552 0.0177 0.21997 0.0
H1274 H 0.75775 0.97835 0.23786 0.0
S1275 S 0.75342 0.03899 0.31919 0.0
N1276 N 0.75262 0.05295 0.29341 0.0
N1277 N 0.75518 1.01038 0.31276 0.0
C1278 C 0.75505 1.01112 0.28863 0.0
C1279 C 0.75381 0.03429 0.2781 0.0
C1280 C 0.74032 0.98733 0.99704 0.0
C1281 C 0.72264 0.98947 0.01745 0.0
C1282 C 0.77121 0.98697 0.99858 0.0
C1283 C 0.78588 0.98891 0.0206 0.0
H1284 H 0.73028 0.98649 0.97958 0.0
H1285 H 0.78363 0.98592 0.98221 0.0
S1286 S 0.75 0.99314 0.0797 0.0
N1287 N 0.7223 0.99212 0.06066 0.0
N1288 N 0.78019 0.99162 0.06348 0.0
C1289 C 0.7685 0.99015 0.04126 0.0
C1290 C 0.73699 0.99037 0.03971 0.0
C1291 C 0.25799 0.50198 0.74169 0.0
C1292 C 0.25808 0.49033 0.76386 0.0
C1293 C 0.25724 0.52692 0.73998 0.0
C1294 C 0.25655 0.54146 0.76037 0.0
H1295 H 0.25916 0.49181 0.72538 0.0
H1296 H 0.2579 0.53483 0.72245 0.0
S1297 S 0.25437 0.51998 0.82281 0.0
N1298 N 0.25587 0.49546 0.80675 0.0
N1299 N 0.25442 0.54211 0.80358 0.0
C1300 C 0.25566 0.53005 0.78268 0.0
C1301 C 0.25643 0.50462 0.78441 0.0
C1302 C 0.27932 0.49455 0.53137 0.0
C1303 C 0.29605 0.49376 0.51034 0.0
C1304 C 0.24837 0.49401 0.53083 0.0
C1305 C 0.23267 0.49275 0.50922 0.0
H1306 H 0.29013 0.49635 0.54845 0.0
H1307 H 0.2367 0.49541 0.54753 0.0
S1308 S 0.26585 0.48806 0.44911 0.0
N1309 N 0.29439 0.48989 0.46725 0.0
N1310 N 0.23644 0.489 0.46627 0.0
C1311 C 0.24912 0.49085 0.4881 0.0
C1312 C 0.28068 0.49131 0.48865 0.0
C1313 C 0.73943 0.75439 0.02313 0.0
C1314 C 0.75851 0.77036 0.03448 0.0
C1315 C 0.73663 0.75415 0.9983 0.0
C1316 C 0.75242 0.77022 0.98394 0.0
H1317 H 0.72696 0.74179 0.03357 0.0
H1318 H 0.72229 0.74103 0.99035 0.0
S1319 S 0.80296 0.81729 1.00607 0.0
N1320 N 0.79233 0.80319 0.03028 0.0
N1321 N 0.78618 0.80391 0.98372 0.0
C1322 C 0.771 0.78677 0.99541 0.0
C1323 C 0.77424 0.78656 0.02065 0.0
C1324 C 0.51089 0.50187 0.28271 0.0
C1325 C 0.50621 0.52658 0.28432 0.0
C1326 C 0.51148 0.49017 0.26068 0.0
C1327 C 0.50776 0.50262 0.23916 0.0
H1328 H 0.51431 0.49139 0.29862 0.0
H1329 H 0.51551 0.47118 0.2606 0.0
S1330 S 0.49408 0.5675 0.2334 0.0
N1331 N 0.49705 0.56309 0.2623 0.0
N1332 N 0.49846 0.54114 0.22097 0.0
C1333 C 0.50265 0.52731 0.24048 0.0
C1334 C 0.50177 0.53924 0.26299 0.0
C1335 C 0.73698 0.25126 0.50298 0.0
C1336 C 0.76464 0.25516 0.49242 0.0
C1337 C 0.73356 0.2517 0.52776 0.0
C1338 C 0.75775 0.25569 0.54288 0.0
H1339 H 0.71781 0.24797 0.49198 0.0
H1340 H 0.71197 0.24836 0.53517 0.0
S1341 S 0.83472 0.26734 0.5242 0.0
N1342 N 0.81657 0.26336 0.49905 0.0
N1343 N 0.81008 0.26443 0.54553 0.0
C1344 C 0.78545 0.25987 0.53255 0.0
C1345 C 0.7889 0.25958 0.50735 0.0
C1346 C 0.02551 0.48445 0.74019 0.0
C1347 C 0.016 0.50697 0.7323 0.0
C1348 C 0.02706 0.47884 0.76449 0.0
C1349 C 0.01894 0.49541 0.78208 0.0
H1350 H 0.0314 0.47079 0.72749 0.0
H1351 H 0.03396 0.46106 0.76942 0.0
S1352 S 0.99375 0.55739 0.77105 0.0
N1353 N 0.9994 0.54636 0.74426 0.0
N1354 N 1.00213 0.53582 0.78978 0.0
C1355 C 0.01012 0.51826 0.77449 0.0
C1356 C 1.00873 0.52403 0.7497 0.0
C1357 C 0.77266 0.02674 0.4947 0.0
C1358 C 0.79048 0.02825 0.51516 0.0
C1359 C 0.74177 0.02735 0.49615 0.0
C1360 C 0.72717 0.02934 0.51815 0.0
H1361 H 0.7826 0.02456 0.47735 0.0
H1362 H 0.72928 0.02553 0.47983 0.0
S1363 S 0.76342 0.03546 0.57707 0.0
N1364 N 0.79102 0.03314 0.55816 0.0
N1365 N 0.73313 0.03411 0.56084 0.0
C1366 C 0.74469 0.0317 0.53871 0.0
C1367 C 0.77622 0.0312 0.53723 0.0
C1368 C 0.22519 0.35413 0.31629 0.0
C1369 C 0.20454 0.37281 0.31432 0.0
C1370 C 0.22053 0.33489 0.3318 0.0
C1371 C 0.19493 0.33345 0.34583 0.0
H1372 H 0.24525 0.35449 0.30594 0.0
H1373 H 0.23683 0.32082 0.33248 0.0
S1374 S 0.1341 0.37772 0.34745 0.0
N1375 N 0.15729 0.38832 0.3276 0.0
N1376 N 0.14914 0.35282 0.35721 0.0
C1377 C 0.17427 0.3521 0.34415 0.0
C1378 C 0.17893 0.37159 0.32833 0.0
C1379 C 0.93168 0.95664 0.61176 0.0
C1380 C 0.94774 0.97622 0.62041 0.0
C1381 C 0.91722 0.95739 0.58965 0.0
C1382 C 0.91827 0.97768 0.57496 0.0
H1383 H 0.93074 0.9403 0.62189 0.0
H1384 H 0.90535 0.94174 0.58392 0.0
S1385 S 0.95621 0.03434 0.5898 0.0
N1386 N 0.96221 0.01716 0.61306 0.0
N1387 N 0.93651 0.01818 0.57122 0.0
C1388 C 0.93359 0.99767 0.5837 0.0
C1389 C 0.94792 0.99702 0.60643 0.0
C1390 C 0.29842 0.6913 0.83045 0.0
C1391 C 0.32663 0.69915 0.83736 0.0
C1392 C 0.29482 0.67395 0.81269 0.0
C1393 C 0.3193 0.66372 0.80118 0.0
H1394 H 0.27899 0.69818 0.83924 0.0
H1395 H 0.27276 0.66803 0.80838 0.0
S1396 S 0.39753 0.68039 0.81031 0.0
N1397 N 0.37924 0.69695 0.82954 0.0
N1398 N 0.37245 0.6643 0.79643 0.0
C1399 C 0.34751 0.67198 0.80734 0.0
C1400 C 0.35118 0.68968 0.82534 0.0
C1401 C 0.58713 1.00898 0.08574 0.0
C1402 C 0.59145 0.03147 0.07538 0.0
C1403 C 0.57119 1.00635 0.10694 0.0
C1404 C 0.55875 0.02608 0.11872 0.0
H1405 H 0.59626 0.99325 0.07744 0.0
H1406 H 0.56827 0.98857 0.11391 0.0
S1407 S 0.56291 0.08888 0.09851 0.0
N1408 N 0.58135 0.07381 0.07821 0.0
N1409 N 0.55184 0.06902 0.11809 0.0
C1410 C 0.5631 0.04873 0.1086 0.0
C1411 C 0.57932 0.05138 0.08697 0.0
C1412 C 0.17065 0.68452 0.18872 0.0
C1413 C 0.19136 0.7029 0.18583 0.0
C1414 C 0.17384 0.66734 0.20664 0.0
C1415 C 0.19796 0.66771 0.22237 0.0
H1416 H 0.1518 0.68334 0.17695 0.0
H1417 H 0.1574 0.65352 0.20811 0.0
S1418 S 0.25738 0.71296 0.22361 0.0
N1419 N 0.2362 0.72099 0.20108 0.0
N1420 N 0.24228 0.68869 0.2346 0.0
C1421 C 0.21885 0.686 0.21976 0.0
C1422 C 0.21555 0.70357 0.20154 0.0
C1423 C 0.59579 1.01266 0.44405 0.0
C1424 C 0.59641 0.99063 0.45586 0.0
C1425 C 0.5808 0.01555 0.42234 0.0
C1426 C 0.56555 0.99655 0.41159 0.0
H1427 H 0.60706 0.02782 0.45162 0.0
H1428 H 0.58072 0.03299 0.41422 0.0
S1429 S 0.56007 0.93517 0.4356 0.0
N1430 N 0.58022 0.94953 0.45536 0.0
N1431 N 0.55233 0.95473 0.41463 0.0
C1432 C 0.5663 0.97431 0.42316 0.0
C1433 C 0.58163 0.9714 0.44523 0.0
C1434 C 0.32886 0.35571 0.67582 0.0
C1435 C 0.32316 0.33165 0.68084 0.0
C1436 C 0.32658 0.37329 0.69344 0.0
C1437 C 0.31859 0.36762 0.71693 0.0
H1438 H 0.33477 0.36105 0.65799 0.0
H1439 H 0.33073 0.39157 0.68851 0.0
S1440 S 0.30379 0.30697 0.73989 0.0
N1441 N 0.31065 0.30291 0.71137 0.0
N1442 N 0.30653 0.33587 0.7445 0.0
C1443 C 0.31315 0.34357 0.72229 0.0
C1444 C 0.31539 0.32564 0.70428 0.0
C1445 C 0.90164 0.03706 0.93357 0.0
C1446 C 0.91591 0.03465 0.9557 0.0
C1447 C 0.91754 0.03729 0.91216 0.0
C1448 C 0.9485 0.03538 0.91194 0.0
H1449 H 0.87787 0.03856 0.93275 0.0
H1450 H 0.9054 0.03922 0.89568 0.0
S1451 S 0.99651 0.02885 0.96526 0.0
N1452 N 0.9628 0.03041 0.97612 0.0
N1453 N 0.9928 0.0308 0.93615 0.0
C1454 C 0.96305 0.03287 0.93404 0.0
C1455 C 0.94677 0.03247 0.95581 0.0
C1456 C 0.32539 0.23325 0.34216 0.0
C1457 C 0.3256 0.23485 0.3172 0.0
C1458 C 0.29893 0.2348 0.35506 0.0
C1459 C 0.27151 0.23785 0.34354 0.0
H1460 H 0.3459 0.23142 0.35188 0.0
H1461 H 0.30013 0.23423 0.37427 0.0
S1462 S 0.25968 0.24039 0.27823 0.0
N1463 N 0.29571 0.23785 0.28136 0.0
N1464 N 0.24624 0.24058 0.30544 0.0
C1465 C 0.27135 0.23849 0.31852 0.0
C1466 C 0.29827 0.23706 0.30542 0.0
C1467 C 0.07602 0.07944 0.62031 0.0
C1468 C 0.06169 0.05777 0.6157 0.0
C1469 C 0.07796 0.0972 0.60287 0.0
C1470 C 0.06566 0.09405 0.5801 0.0
H1471 H 0.08561 0.08276 0.63762 0.0
H1472 H 0.08916 0.1136 0.60725 0.0
S1473 S 0.02815 0.03971 0.5583 0.0
N1474 N 0.03642 0.03365 0.58624 0.0
N1475 N 0.04008 0.06698 0.55352 0.0
C1476 C 0.05142 0.0724 0.57519 0.0
C1477 C 0.04945 0.05429 0.59296 0.0
C1478 C 0.18421 0.81983 0.84445 0.0
C1479 C 0.18206 0.80445 0.82479 0.0
C1480 C 0.20728 0.81759 0.86106 0.0
C1481 C 0.22956 0.80032 0.85833 0.0
H1482 H 0.16757 0.83336 0.84735 0.0
H1483 H 0.20757 0.82943 0.87624 0.0
S1484 S 0.23483 0.75627 0.80933 0.0
N1485 N 0.20469 0.77164 0.80328 0.0
N1486 N 0.24819 0.76784 0.83404 0.0
C1487 C 0.22808 0.78526 0.83838 0.0
C1488 C 0.20431 0.7872 0.82176 0.0
C1489 C 0.41732 0.94024 0.09191 0.0
C1490 C 0.43916 0.93684 0.0745 0.0
C1491 C 0.42124 0.95631 0.1107 0.0
C1492 C 0.44718 0.96979 0.11302 0.0
H1493 H 0.39716 0.93003 0.09133 0.0
H1494 H 0.40375 0.95813 0.12361 0.0
S1495 S 0.51101 0.96824 0.07178 0.0
N1496 N 0.48732 0.94921 0.06025 0.0
N1497 N 0.49522 0.97863 0.09606 0.0
C1498 C 0.46915 0.96683 0.09558 0.0
C1499 C 0.46506 0.95052 0.07629 0.0
C1500 C 0.30691 0.79662 0.20573 0.0
C1501 C 0.33329 0.78767 0.19598 0.0
C1502 C 0.2805 0.79678 0.19268 0.0
C1503 C 0.27929 0.7883 0.16916 0.0
H1504 H 0.30635 0.80292 0.22391 0.0
H1505 H 0.26072 0.80323 0.20132 0.0
S1506 S 0.3426 0.76449 0.13469 0.0
N1507 N 0.3568 0.77112 0.16089 0.0
N1508 N 0.30736 0.77167 0.13627 0.0
C1509 C 0.30575 0.78013 0.15885 0.0
C1510 C 0.33263 0.77971 0.17227 0.0
C1511 C 0.43458 0.08031 0.4125 0.0
C1512 C 0.45116 0.05943 0.4163 0.0
C1513 C 0.43116 0.09746 0.4304 0.0
C1514 C 0.44437 0.0946 0.45285 0.0
H1515 H 0.42432 0.08359 0.39543 0.0
H1516 H 0.4183 0.11324 0.42656 0.0
S1517 S 0.48854 0.04271 0.47276 0.0
N1518 N 0.4798 0.03649 0.44495 0.0
N1519 N 0.47381 0.069 0.4783 0.0
C1520 C 0.46102 0.0739 0.457 0.0
C1521 C 0.46431 0.05627 0.43883 0.0
C1522 C 0.18601 0.20789 0.68512 0.0
C1523 C 0.18382 0.2246 0.70368 0.0
C1524 C 0.20899 0.20891 0.66843 0.0
C1525 C 0.23107 0.22643 0.66978 0.0
H1526 H 0.16964 0.19405 0.68326 0.0
H1527 H 0.20931 0.19587 0.65426 0.0
S1528 S 0.23611 0.27402 0.71544 0.0
N1529 N 0.20624 0.25904 0.72262 0.0
N1530 N 0.24939 0.2607 0.69162 0.0
C1531 C 0.22946 0.24298 0.68854 0.0
C1532 C 0.20586 0.24215 0.70533 0.0
C1533 C 0.05804 0.94074 0.93449 0.0
C1534 C 0.08548 0.93497 0.94465 0.0
C1535 C 0.05507 0.95958 0.91834 0.0
C1536 C 0.07938 0.97364 0.91176 0.0
H1537 H 0.03872 0.93039 0.93886 0.0
H1538 H 0.03352 0.96298 0.91078 0.0
S1539 S 0.15573 0.96695 0.9347 0.0
N1540 N 0.13726 0.94536 0.94775 0.0
N1541 N 0.13167 0.98101 0.91765 0.0
C1542 C 0.10696 0.96816 0.92194 0.0
C1543 C 0.11001 0.94881 0.93831 0.0
C1544 C 0.30803 0.35082 0.203 0.0
C1545 C 0.30276 0.36555 0.22281 0.0
C1546 C 0.32685 0.331 0.20446 0.0
C1547 C 0.34094 0.32481 0.22589 0.0
H1548 H 0.29725 0.35444 0.18618 0.0
H1549 H 0.32975 0.32003 0.18883 0.0
S1550 S 0.33584 0.3579 0.28278 0.0
N1551 N 0.31418 0.37285 0.26445 0.0
N1552 N 0.34946 0.33562 0.26712 0.0
C1553 C 0.33638 0.33957 0.24574 0.0
C1554 C 0.31741 0.35994 0.24421 0.0
C1555 C 0.81996 0.16836 0.80118 0.0
C1556 C 0.81797 0.15678 0.77903 0.0
C1557 C 0.83259 0.19102 0.80337 0.0
C1558 C 0.84381 0.20323 0.78353 0.0
H1559 H 0.81088 0.16021 0.81697 0.0
H1560 H 0.83299 0.19928 0.82073 0.0
S1561 S 0.84584 0.18029 0.72165 0.0
N1562 N 0.83017 0.15879 0.73699 0.0
N1563 N 0.8531 0.20149 0.74103 0.0
C1564 C 0.84312 0.19148 0.76141 0.0
C1565 C 0.8304 0.16829 0.75919 0.0
C1566 C 0.05364 0.60714 0.02892 0.0
C1567 C 0.02687 0.5978 0.03738 0.0
C1568 C 0.07933 0.59314 0.02773 0.0
C1569 C 0.07952 0.5692 0.03513 0.0
H1570 H 0.0546 0.62523 0.02237 0.0
H1571 H 0.09909 0.60111 0.02053 0.0
S1572 S 0.01577 0.53672 0.06067 0.0
N1573 N 1.00263 0.56344 0.05465 0.0
N1574 N 0.05071 0.53725 0.05261 0.0
C1575 C 0.05315 0.55992 0.04452 0.0
C1576 C 0.02695 0.57415 0.04558 0.0
C1577 C 0.6799 0.83613 0.31162 0.0
C1578 C 0.67714 0.82414 0.28976 0.0
C1579 C 0.69742 0.85652 0.31399 0.0
C1580 C 0.71299 0.86602 0.29458 0.0
H1581 H 0.66859 0.82955 0.32718 0.0
H1582 H 0.69886 0.8648 0.33133 0.0
S1583 S 0.71261 0.84178 0.23308 0.0
N1584 N 0.69093 0.82369 0.24806 0.0
N1585 N 0.72408 0.86177 0.25246 0.0
C1586 C 0.71032 0.85426 0.27251 0.0
C1587 C 0.69246 0.8334 0.27012 0.0
C1588 C 0.95203 0.94561 0.01337 0.0
C1589 C 0.93175 0.94911 0.03191 0.0
C1590 C 0.97573 0.9297 0.01577 0.0
C1591 C 0.97967 0.91613 0.03656 0.0
H1592 H 0.94972 0.95542 0.99691 0.0
H1593 H 0.99059 0.92751 1.00089 0.0
S1594 S 0.9327 0.91867 0.09032 0.0
N1595 N 0.9175 0.93813 0.07199 0.0
N1596 N 0.96132 0.90737 0.0761 0.0
C1597 C 0.95952 0.91941 0.05523 0.0
C1598 C 0.93581 0.93615 0.05303 0.0
C1599 C 0.19736 0.67263 0.72589 0.0
C1600 C 0.19995 0.66005 0.74748 0.0
C1601 C 0.18083 0.69373 0.72425 0.0
C1602 C 0.16627 0.70331 0.74413 0.0
H1603 H 0.2087 0.66643 0.71014 0.0
H1604 H 0.18012 0.70298 0.7074 0.0
S1605 S 0.16351 0.6764 0.80428 0.0
N1606 N 0.1848 0.65823 0.78891 0.0
N1607 N 0.15363 0.69765 0.78565 0.0
C1608 C 0.16786 0.69061 0.76564 0.0
C1609 C 0.18465 0.66907 0.76734 0.0
C1610 C 0.04402 0.42889 0.50661 0.0
C1611 C 0.03813 0.41868 0.48425 0.0
C1612 C 0.06829 0.44387 0.51012 0.0
C1613 C 0.0872 0.44975 0.49129 0.0
H1614 H 0.03024 0.42475 0.52173 0.0
H1615 H 0.07204 0.45114 0.52769 0.0
S1616 S 0.08111 0.42829 0.42917 0.0
N1617 N 0.05326 0.41551 0.443 0.0
N1618 N 0.09819 0.44456 0.44938 0.0
C1619 C 0.08127 0.4401 0.46873 0.0
C1620 C 0.05695 0.4243 0.46528 0.0
C1621 C 0.49282 0.57821 0.96531 0.0
C1622 C 0.49438 0.59466 0.98409 0.0
C1623 C 0.46797 0.56372 0.96207 0.0
C1624 C 0.44383 0.56468 0.97776 0.0
H1625 H 0.51099 0.57646 0.95298 0.0
H1626 H 0.46807 0.5512 0.94744 0.0
S1627 S 0.43676 0.60478 0.02982 0.0
N1628 N 0.46926 0.6113 0.01848 0.0
N1629 N 0.42296 0.58374 1.01266 0.0
C1630 C 0.445 0.58114 0.99656 0.0
C1631 C 0.47012 0.59621 0.99964 0.0
C1632 C 0.70998 0.82667 0.83007 0.0
C1633 C 0.68375 0.82473 0.84327 0.0
C1634 C 0.71454 0.84559 0.81424 0.0
C1635 C 0.69308 0.86344 0.81085 0.0
H1636 H 0.72706 0.81331 0.83175 0.0
H1637 H 0.73529 0.84637 0.80485 0.0
S1638 S 0.62041 0.86668 0.84096 0.0
N1639 N 0.63625 0.84275 0.8522 0.0
N1640 N 0.64414 0.87746 0.82162 0.0
C1641 C 0.66664 0.86162 0.82379 0.0
C1642 C 0.66214 0.8425 0.84012 0.0
C1643 C 0.45813 0.49557 0.10122 0.0
C1644 C 0.44621 0.48555 0.12206 0.0
C1645 C 0.44215 0.49618 0.07986 0.0
C1646 C 0.41363 0.48666 0.0783 0.0
H1647 H 0.48025 0.50276 0.10121 0.0
H1648 H 0.45255 0.5036 0.06425 0.0
S1649 S 0.37101 0.46031 0.12787 0.0
N1650 N 0.40312 0.46715 0.1399 0.0
N1651 N 0.37317 0.46845 0.09975 0.0
C1652 C 0.40101 0.47721 0.09905 0.0
C1653 C 0.41724 0.47667 0.12091 0.0
C1654 C 0.84574 0.19044 0.3394 0.0
C1655 C 0.82338 0.20751 0.34276 0.0
C1656 C 0.84243 0.17168 0.32322 0.0
C1657 C 0.81652 0.16889 0.30967 0.0
H1658 H 0.86596 0.19138 0.34958 0.0
H1659 H 0.86052 0.15925 0.32132 0.0
S1660 S 0.75135 0.20916 0.3112 0.0
N1661 N 0.77476 0.22103 0.33026 0.0
N1662 N 0.76782 0.1851 0.30089 0.0
C1663 C 0.79391 0.18592 0.31273 0.0
C1664 C 0.79748 0.20528 0.32906 0.0
C1665 C 0.07182 0.50762 0.60171 0.0
C1666 C 0.0602 0.52769 0.61349 0.0
C1667 C 0.08846 0.50985 0.58081 0.0
C1668 C 0.09449 0.53224 0.57087 0.0
H1669 H 0.06776 0.48992 0.60847 0.0
H1670 H 0.09697 0.49389 0.5725 0.0
S1671 S 0.0689 0.59043 0.59415 0.0
N1672 N 0.05584 0.57084 0.61321 0.0
N1673 N 0.08704 0.57488 0.57403 0.0
C1674 C 0.08316 0.55247 0.58241 0.0
C1675 C 0.06605 0.55024 0.60364 0.0
C1676 C 0.67008 0.181 0.69689 0.0
C1677 C 0.69419 0.19091 0.68476 0.0
C1678 C 0.67417 0.16393 0.71483 0.0
C1679 C 0.70254 0.15612 0.72141 0.0
H1680 H 0.64786 0.18667 0.69266 0.0
H1681 H 0.65498 0.15694 0.72379 0.0
S1682 S 0.7728 0.17472 0.69354 0.0
N1683 N 0.74734 0.19045 0.67959 0.0
N1684 N 0.75502 0.15853 0.71328 0.0
C1685 C 0.72682 0.16566 0.70923 0.0
C1686 C 0.72266 0.183 0.69093 0.0
C1687 C 0.0753 0.4967 0.9442 0.0
C1688 C 0.10091 0.48288 0.94751 0.0
C1689 C 0.05937 0.49601 0.92275 0.0
C1690 C 0.06826 0.48135 0.90373 0.0
H1691 H 0.06688 0.50753 0.95857 0.0
H1692 H 0.03932 0.50644 0.92143 0.0
S1693 S 0.13602 0.44434 0.90195 0.0
N1694 N 0.13622 0.45622 0.92877 0.0
N1695 N 0.10583 0.45437 0.88889 0.0
C1696 C 0.09445 0.4682 0.90643 0.0
C1697 C 0.11086 0.4691 0.92817 0.0
C1698 C 0.84352 0.87035 0.19251 0.0
C1699 C 0.82884 0.86508 0.21385 0.0
C1700 C 0.8453 0.85363 0.17401 0.0
C1701 C 0.83262 0.83091 0.17614 0.0
H1702 H 0.85319 0.88772 0.18992 0.0
H1703 H 0.85629 0.8587 0.15774 0.0
S1704 S 0.7945 0.80746 0.22957 0.0
N1705 N 0.80309 0.83504 0.23669 0.0
N1706 N 0.80683 0.80352 0.20229 0.0
C1707 C 0.81851 0.82524 0.1977 0.0
C1708 C 0.81654 0.84233 0.21643 0.0
C1709 C 0.42182 0.57021 0.43508 0.0
C1710 C 0.41785 0.54831 0.44672 0.0
C1711 C 0.43859 0.57194 0.41422 0.0
C1712 C 0.4522 0.55183 0.40406 0.0
H1713 H 0.41249 0.58631 0.44247 0.0
H1714 H 0.4415 0.58935 0.40639 0.0
S1715 S 0.44615 0.48981 0.42616 0.0
N1716 N 0.42695 0.50571 0.44535 0.0
N1717 N 0.45891 0.50896 0.40654 0.0
C1718 C 0.44769 0.52967 0.41513 0.0
C1719 C 0.43048 0.52791 0.43634 0.0
C1720 C 0.80629 0.70842 0.85993 0.0
C1721 C 0.78249 0.7244 0.85779 0.0
C1722 C 0.82909 0.70786 0.84309 0.0
C1723 C 0.82939 0.72357 0.8236 0.0
H1724 H 0.80741 0.69626 0.87482 0.0
H1725 H 0.84687 0.69522 0.84562 0.0
S1726 S 0.77227 0.76905 0.8098 0.0
N1727 N 0.76057 0.75631 0.83442 0.0
N1728 N 0.80346 0.75548 0.80306 0.0
C1729 C 0.80564 0.73961 0.82119 0.0
C1730 C 0.78221 0.73995 0.83816 0.0
C1731 C 0.56491 0.54679 0.09029 0.0
C1732 C 0.58109 0.54718 0.11167 0.0
C1733 C 0.56757 0.56503 0.07341 0.0
C1734 C 0.58647 0.58447 0.07723 0.0
H1735 H 0.55017 0.53216 0.08654 0.0
H1736 H 0.55492 0.5638 0.05712 0.0
S1737 S 0.63156 0.59506 0.13136 0.0
N1738 N 0.6154 0.56929 0.13631 0.0
N1739 N 0.62025 0.60365 0.1048 0.0
C1740 C 0.60251 0.58522 0.09869 0.0
C1741 C 0.59988 0.56657 0.11583 0.0
C1742 C 0.71009 0.28384 0.31342 0.0
C1743 C 0.68482 0.29551 0.32211 0.0
C1744 C 0.73648 0.28333 0.32644 0.0
C1745 C 0.73872 0.29409 0.34896 0.0
H1746 H 0.70969 0.27521 0.29621 0.0
H1747 H 0.75513 0.27396 0.31889 0.0
S1748 S 0.67897 0.32672 0.38005 0.0
N1749 N 0.66379 0.31821 0.35475 0.0
N1750 N 0.71323 0.31671 0.37948 0.0
C1751 C 0.7136 0.30569 0.358 0.0
C1752 C 0.68676 0.30656 0.34452 0.0
C1753 C 0.97045 0.45825 0.6041 0.0
C1754 C 0.94563 0.46691 0.61638 0.0
C1755 C 0.96791 0.43999 0.58721 0.0
C1756 C 0.94047 0.4296 0.58191 0.0
H1757 H 0.99213 0.46526 0.60798 0.0
H1758 H 0.98771 0.4336 0.57859 0.0
S1759 S 0.86831 0.44768 0.60709 0.0
N1760 N 0.89244 0.46491 0.6207 0.0
N1761 N 0.88768 0.43063 0.58901 0.0
C1762 C 0.91539 0.43849 0.59362 0.0
C1763 C 0.91797 0.45711 0.61081 0.0
C1764 C 0.81053 0.26578 0.70042 0.0
C1765 C 0.83285 0.28289 0.70299 0.0
C1766 C 0.78688 0.26925 0.68474 0.0
C1767 C 0.78486 0.28974 0.67048 0.0
H1768 H 0.8112 0.24952 0.71074 0.0
H1769 H 0.77057 0.25531 0.68325 0.0
S1770 S 0.83743 0.34011 0.67057 0.0
N1771 N 0.85106 0.32145 0.69047 0.0
N1772 N 0.80714 0.32757 0.66015 0.0
C1773 C 0.80696 0.30708 0.6729 0.0
C1774 C 0.83076 0.30379 0.68939 0.0
C1775 C 0.96819 0.5626 0.9263 0.0
C1776 C 0.94471 0.55741 0.9107 0.0
C1777 C 0.96467 0.57846 0.94538 0.0
C1778 C 0.93751 0.58979 0.94978 0.0
H1779 H 0.98965 0.55464 0.92357 0.0
H1780 H 0.98334 0.58165 0.95695 0.0
S1781 S 0.86899 0.58237 0.9143 0.0
N1782 N 0.89309 0.56458 0.90139 0.0
N1783 N 0.88685 0.59505 0.93649 0.0
C1784 C 0.91387 0.58482 0.93429 0.0
C1785 C 0.91739 0.56853 0.91496 0.0
C1786 C 0.70888 0.76505 0.19486 0.0
C1787 C 0.68706 0.74806 0.19976 0.0
C1788 C 0.73156 0.76034 0.17862 0.0
C1789 C 0.73301 0.73865 0.16613 0.0
H1790 H 0.70858 0.78212 0.20379 0.0
H1791 H 0.74758 0.77418 0.17533 0.0
S1792 S 0.68136 0.68811 0.17265 0.0
N1793 N 0.66871 0.70839 0.19128 0.0
N1794 N 0.71075 0.69989 0.16006 0.0
C1795 C 0.71139 0.72145 0.17091 0.0
C1796 C 0.68862 0.72605 0.18791 0.0
C1797 C 0.55705 0.47444 0.43307 0.0
C1798 C 0.57568 0.47503 0.4131 0.0
C1799 C 0.56002 0.4567 0.45049 0.0
C1800 C 0.5817 0.43885 0.44859 0.0
H1801 H 0.54053 0.48814 0.43554 0.0
H1802 H 0.54576 0.45731 0.46588 0.0
S1803 S 0.63322 0.43053 0.39817 0.0
N1804 N 0.61469 0.45492 0.39141 0.0
N1805 N 0.62021 0.42163 0.42403 0.0
C1806 C 0.59975 0.43877 0.4283 0.0
C1807 C 0.59676 0.45683 0.41061 0.0
C1808 C 0.81899 0.85425 0.74958 0.0
C1809 C 0.81251 0.8651 0.7276 0.0
C1810 C 0.83502 0.83285 0.75088 0.0
C1811 C 0.84521 0.82128 0.73026 0.0
H1812 H 0.81154 0.8623 0.76599 0.0
H1813 H 0.83968 0.82541 0.76822 0.0
S1814 S 0.83252 0.84126 0.66818 0.0
N1815 N 0.8169 0.86204 0.68461 0.0
N1816 N 0.84631 0.82175 0.6871 0.0
C1817 C 0.8387 0.83181 0.70816 0.0
C1818 C 0.82256 0.85369 0.70682 0.0
C1819 C 0.30639 0.68787 0.30775 0.0
C1820 C 0.30198 0.67257 0.28834 0.0
C1821 C 0.32642 0.70674 0.3065 0.0
C1822 C 0.34217 0.71145 0.28555 0.0
H1823 H 0.29401 0.68536 0.32399 0.0
H1824 H 0.32892 0.71822 0.32181 0.0
S1825 S 0.33817 0.67676 0.2296 0.0
N1826 N 0.31498 0.66315 0.2476 0.0
N1827 N 0.35219 0.69908 0.24499 0.0
C1828 C 0.33799 0.69624 0.26599 0.0
C1829 C 0.31804 0.67664 0.26746 0.0
C1830 C 0.53052 0.07775 0.5475 0.0
C1831 C 0.53009 0.10197 0.54125 0.0
C1832 C 0.55668 0.06434 0.54678 0.0
C1833 C 0.58355 0.07443 0.53942 0.0
H1834 H 0.51035 0.06889 0.55262 0.0
H1835 H 0.55555 0.04566 0.55136 0.0
S1836 S 0.59486 0.13743 0.52215 0.0
N1837 N 0.55939 0.13577 0.52834 0.0
N1838 N 0.60829 0.1105 0.52671 0.0
C1839 C 0.58363 0.09878 0.53366 0.0
C1840 C 0.55703 0.11254 0.53468 0.0
C1841 C 0.20272 0.35294 0.76112 0.0
C1842 C 0.2083 0.36844 0.78025 0.0
C1843 C 0.18904 0.33086 0.76462 0.0
C1844 C 0.18012 0.32335 0.78737 0.0
H1845 H 0.20998 0.35744 0.74338 0.0
H1846 H 0.18635 0.31927 0.74942 0.0
S1847 S 0.18646 0.35855 0.84296 0.0
N1848 N 0.20194 0.37543 0.82255 0.0
N1849 N 0.17553 0.3343 0.82899 0.0
C1850 C 0.18448 0.33911 0.8065 0.0
C1851 C 0.19867 0.36153 0.80297 0.0
C1852 C 0.44349 0.43596 0.54035 0.0
C1853 C 0.44274 0.46098 0.5397 0.0
C1854 C 0.47031 0.42337 0.53982 0.0
C1855 C 0.49763 0.43523 0.53874 0.0
H1856 H 0.42316 0.42593 0.54071 0.0
H1857 H 0.46951 0.40413 0.53968 0.0
S1858 S 0.50805 0.50073 0.53886 0.0
N1859 N 0.47198 0.4972 0.53944 0.0
N1860 N 0.52211 0.47366 0.53855 0.0
C1861 C 0.49722 0.46028 0.53895 0.0
C1862 C 0.46992 0.47309 0.53938 0.0
C1863 C 0.68066 0.19091 0.24783 0.0
C1864 C 0.66999 0.20278 0.22752 0.0
C1865 C 0.69834 0.17041 0.24598 0.0
C1866 C 0.70623 0.16084 0.2237 0.0
H1867 H 0.67516 0.19743 0.26537 0.0
H1868 H 0.70613 0.16216 0.26222 0.0
S1869 S 0.68505 0.18586 0.16493 0.0
N1870 N 0.66951 0.20389 0.18437 0.0
N1871 N 0.70212 0.16533 0.18079 0.0
C1872 C 0.6956 0.17255 0.20322 0.0
C1873 C 0.67767 0.19347 0.20514 0.0
C1874 C 0.55502 0.95778 0.98355 0.0
C1875 C 0.58129 0.94786 0.99265 0.0
C1876 C 0.52879 0.94465 0.98258 0.0
C1877 C 0.52768 0.9209 0.99035 0.0
H1878 H 0.55437 0.97614 0.97779 0.0
H1879 H 0.50905 0.95341 0.97609 0.0
S1880 S 0.59083 0.88592 0.01414 0.0
N1881 N 0.60485 0.91236 1.0085 0.0
N1882 N 0.55575 0.8876 1.00645 0.0
C1883 C 0.55407 0.91042 0.99862 0.0
C1884 C 0.58076 0.92391 0.99985 0.0
C1885 C 0.98843 0.06783 0.49692 0.0
C1886 C 0.9936 0.08884 0.48402 0.0
C1887 C 0.96193 0.05523 0.49456 0.0
C1888 C 0.93963 0.06278 0.4788 0.0
H1889 H 1.0047 0.06127 0.50941 0.0
H1890 H 0.9591 0.03924 0.50501 0.0
S1891 S 0.94229 0.11634 0.44043 0.0
N1892 N 0.97408 0.1166 0.4548 0.0
N1893 N 0.92467 0.09249 0.44981 0.0
C1894 C 0.94466 0.08352 0.46545 0.0
C1895 C 0.97148 0.09665 0.46822 0.0
C1896 C 0.10609 0.20055 0.43693 0.0
C1897 C 0.10782 0.18283 0.4546 0.0
C1898 C 0.1315 0.21115 0.42743 0.0
C1899 C 0.15998 0.20463 0.43516 0.0
H1900 H 0.08483 0.20666 0.43056 0.0
H1901 H 0.12866 0.22496 0.4142 0.0
S1902 S 0.17707 0.15835 0.48033 0.0
N1903 N 0.14074 0.15865 0.47884 0.0
N1904 N 0.1883 0.1785 0.46111 0.0
C1905 C 0.16212 0.18651 0.45242 0.0
C1906 C 0.13618 0.17566 0.46207 0.0
C1907 C 0.09525 0.89484 0.68408 0.0
C1908 C 0.07155 0.90716 0.69455 0.0
C1909 C 0.10977 0.87627 0.69598 0.0
C1910 C 0.10103 0.86894 0.7188 0.0
H1911 H 0.10275 0.89967 0.66649 0.0
H1912 H 0.12773 0.86728 0.68705 0.0
S1913 S 0.04052 0.89552 0.75432 0.0
N1914 N 0.04014 0.9108 0.72926 0.0
N1915 N 0.0675 0.87591 0.7517 0.0
C1916 C 0.07746 0.88116 0.72959 0.0
C1917 C 0.0628 0.90029 0.71751 0.0
C1918 C 0.37137 0.86435 0.94715 0.0
C1919 C 0.3968 0.85312 0.95626 0.0
C1920 C 0.34988 0.85164 0.93439 0.0
C1921 C 0.35288 0.8271 0.92989 0.0
H1922 H 0.36759 0.88311 0.95031 0.0
H1923 H 0.33059 0.86119 0.92816 0.0
S1924 S 0.41602 0.78928 0.94886 0.0
N1925 N 0.42413 0.81595 0.95916 0.0
N1926 N 0.38403 0.79218 0.9351 0.0
C1927 C 0.37857 0.81572 0.93839 0.0
C1928 C 0.40038 0.82865 0.95157 0.0
C1929 C 0.43376 0.1633 0.20073 0.0
C1930 C 0.40919 0.15959 0.2154 0.0
C1931 C 0.44794 0.14418 0.18939 0.0
C1932 C 0.43848 0.12056 0.19267 0.0
H1933 H 0.44141 0.18119 0.19735 0.0
H1934 H 0.46636 0.14789 0.17779 0.0
S1935 S 0.37652 0.10121 0.23073 0.0
N1936 N 0.37693 0.13043 0.23359 0.0
N1937 N 0.40374 0.09456 0.21244 0.0
C1938 C 0.41465 0.11655 0.208 0.0
C1939 C 0.39993 0.13605 0.21928 0.0
C1940 C 0.17635 0.84988 0.07604 0.0
C1941 C 0.16866 0.82781 0.08605 0.0
C1942 C 0.15566 0.86389 0.06372 0.0
C1943 C 0.12624 0.85648 0.06063 0.0
H1944 H 0.19876 0.85633 0.07738 0.0
H1945 H 0.16312 0.88046 0.05606 0.0
S1946 S 0.09415 0.80054 0.08414 0.0
N1947 N 0.12897 0.79959 0.0927 0.0
N1948 N 0.09025 0.82576 0.06948 0.0
C1949 C 0.11798 0.83471 0.07107 0.0
C1950 C 0.13908 0.82046 0.08376 0.0
C1951 C 0.41432 0.89692 0.34501 0.0
C1952 C 0.43925 0.90875 0.33612 0.0
C1953 C 0.40085 0.87844 0.33235 0.0
C1954 C 0.41177 0.87078 0.31025 0.0
H1955 H 0.40491 0.90214 0.36188 0.0
H1956 H 0.38182 0.86991 0.3401 0.0
S1957 S 0.4766 0.89571 0.27896 0.0
N1958 N 0.47458 0.91125 0.30382 0.0
N1959 N 0.44893 0.87671 0.27981 0.0
C1960 C 0.43673 0.88238 0.30108 0.0
C1961 C 0.45045 0.90136 0.31399 0.0
C1962 C 0.40051 0.19549 0.57745 0.0
C1963 C 0.39569 0.17191 0.56978 0.0
C1964 C 0.37848 0.20857 0.5894 0.0
C1965 C 0.35048 0.1988 0.59392 0.0
H1966 H 0.42137 0.20409 0.57391 0.0
H1967 H 0.38315 0.22676 0.59446 0.0
S1968 S 0.32684 0.13743 0.57895 0.0
N1969 N 0.36087 0.13908 0.56884 0.0
N1970 N 0.31975 0.16363 0.59083 0.0
C1971 C 0.34561 0.1751 0.58689 0.0
C1972 C 0.36808 0.16169 0.57499 0.0
C1973 C 0.07251 0.15891 0.80812 0.0
C1974 C 0.10342 0.15936 0.81065 0.0
C1975 C 0.0554 0.1413 0.81911 0.0
C1976 C 0.06842 0.12319 0.83287 0.0
H1977 H 0.06139 0.1721 0.79734 0.0
H1978 H 0.03173 0.14173 0.81668 0.0
S1979 S 0.14788 0.11693 0.8467 0.0
N1980 N 0.14601 0.14059 0.8294 0.0
N1981 N 0.11374 0.10722 0.84928 0.0
C1982 C 0.09915 0.12332 0.83562 0.0
C1983 C 0.11665 0.14145 0.82472 0.0
C1984 C 0.15212 0.44268 0.15585 0.0
C1985 C 0.18268 0.44167 0.16007 0.0
C1986 C 0.14059 0.4521 0.13472 0.0
C1987 C 0.15905 0.46093 0.11671 0.0
H1988 H 0.13691 0.43594 0.16899 0.0
H1989 H 0.11691 0.45231 0.1324 0.0
S1990 S 0.24081 0.46245 0.11883 0.0
N1991 N 0.23131 0.45057 0.14452 0.0
N1992 N 0.20966 0.46818 0.10466 0.0
C1993 C 0.1897 0.46061 0.12088 0.0
C1994 C 0.20149 0.45101 0.14256 0.0
C1995 C 0.70659 0.08228 0.89807 0.0
C1996 C 0.69773 0.08035 0.87412 0.0
C1997 C 0.69137 0.07046 0.91627 0.0
C1998 C 0.66634 0.05667 0.91127 0.0
H1999 H 0.72533 0.0932 0.90276 0.0
H2000 H 0.69858 0.07278 0.93448 0.0
S2001 S 0.63482 0.04498 0.85153 0.0
N2002 N 0.66299 0.06277 0.8464 0.0
N2003 N 0.63423 0.04077 0.88057 0.0
C2004 C 0.65765 0.05414 0.88738 0.0
C2005 C 0.67341 0.06588 0.86882 0.0
C2006 C 0.82217 0.95881 0.37714 0.0
C2007 C 0.83456 0.9379 0.3676 0.0
C2008 C 0.83503 0.97026 0.39693 0.0
C2009 C 0.86102 0.96144 0.40757 0.0
H2010 H 0.8021 0.96603 0.36956 0.0
H2011 H 0.82482 0.98626 0.40377 0.0
S2012 S 0.90235 0.90757 0.38895 0.0
N2013 N 0.87457 0.90924 0.37003 0.0
N2014 N 0.89839 0.93044 0.40706 0.0
C2015 C 0.87365 0.94069 0.39799 0.0
C2016 C 0.86053 0.92902 0.37807 0.0
C2017 C 0.8542 0.09517 0.14762 0.0
C2018 C 0.82911 0.08646 0.15939 0.0
C2019 C 0.86695 0.08289 0.12853 0.0
C2020 C 0.8552 0.06132 0.12012 0.0
H2021 H 0.86427 0.11164 0.15331 0.0
H2022 H 0.8861 0.09056 0.12009 0.0
S2023 S 0.78961 0.03066 0.14464 0.0
N2024 N 0.79273 0.05488 0.16105 0.0
N2025 N 0.81703 0.03154 0.12542 0.0
C2026 C 0.83009 0.0523 0.13171 0.0
C2027 C 0.81707 0.06485 0.1513 0.0
C2028 C 0.36114 0.56515 0.63464 0.0
C2029 C 0.35239 0.5678 0.61074 0.0
C2030 C 0.34576 0.57649 0.65312 0.0
C2031 C 0.32145 0.59129 0.64834 0.0
H2032 H 0.38008 0.55425 0.63905 0.0
H2033 H 0.35346 0.57427 0.67121 0.0
S2034 S 0.28907 0.60354 0.589 0.0
N2035 N 0.3173 0.5858 0.58346 0.0
N2036 N 0.28859 0.60723 0.61811 0.0
C2037 C 0.31218 0.59377 0.62459 0.0
C2038 C 0.32756 0.58197 0.60583 0.0
C2039 C 0.1758 0.57591 0.36894 0.0
C2040 C 0.20509 0.58327 0.37239 0.0
C2041 C 0.15998 0.56471 0.38725 0.0
C2042 C 0.17296 0.56014 0.4096 0.0
H2043 H 0.16476 0.57957 0.35226 0.0
H2044 H 0.13732 0.5597 0.38394 0.0
S2045 S 0.24984 0.57446 0.42702 0.0
N2046 N 0.24704 0.58384 0.39933 0.0
N2047 N 0.21729 0.56334 0.43372 0.0
C2048 C 0.20256 0.56674 0.41295 0.0
C2049 C 0.21859 0.57818 0.39438 0.0
C2050 C 0.36802 0.46613 0.88905 0.0
C2051 C 0.35526 0.46555 0.91184 0.0
C2052 C 0.35458 0.45472 0.86961 0.0
C2053 C 0.32836 0.44184 0.87247 0.0
H2054 H 0.38865 0.47535 0.88634 0.0
H2055 H 0.36524 0.45521 0.85243 0.0
S2056 S 0.28587 0.43515 0.92817 0.0
N2057 N 0.31447 0.45158 0.93586 0.0
N2058 N 0.2897 0.42966 0.8995 0.0
C2059 C 0.3152 0.44139 0.89502 0.0
C2060 C 0.32851 0.4534 0.91466 0.0
C2061 C 0.6494 0.6569 0.9553 0.0
C2062 C 0.62095 0.66572 0.96022 0.0
C2063 C 0.67013 0.6704 0.94268 0.0
C2064 C 0.66334 0.69328 0.93407 0.0
H2065 H 0.65613 0.63958 0.96178 0.0
H2066 H 0.69184 0.66285 0.93987 0.0
S2067 S 0.59153 0.72442 0.94111 0.0
N2068 N 0.58683 0.69873 0.95474 0.0
N2069 N 0.62558 0.72392 0.93081 0.0
C2070 C 0.63469 0.7021 0.93821 0.0
C2071 C 0.61361 0.68842 0.95133 0.0
C2072 C 0.60047 0.38754 0.22524 0.0
C2073 C 0.60168 0.36397 0.21688 0.0
C2074 C 0.58427 0.40513 0.21309 0.0
C2075 C 0.56893 0.39988 0.19193 0.0
H2076 H 0.61159 0.39225 0.24162 0.0
H2077 H 0.58319 0.42279 0.22065 0.0
S2078 S 0.56876 0.34144 0.16104 0.0
N2079 N 0.58822 0.33669 0.18541 0.0
N2080 N 0.55875 0.36966 0.16202 0.0
C2081 C 0.57105 0.3765 0.18295 0.0
C2082 C 0.58714 0.35858 0.19556 0.0
C2083 C 0.86509 0.3324 0.4441 0.0
C2084 C 0.86881 0.32704 0.4198 0.0
C2085 C 0.88752 0.34341 0.45746 0.0
C2086 C 0.91489 0.34917 0.44722 0.0
H2087 H 0.84479 0.32776 0.45303 0.0
H2088 H 0.88372 0.34667 0.47617 0.0
S2089 S 0.93562 0.34007 0.38409 0.0
N2090 N 0.90182 0.32947 0.38589 0.0
N2091 N 0.94389 0.34966 0.411 0.0
C2092 C 0.91867 0.34443 0.42285 0.0
C2093 C 0.8957 0.33354 0.40916 0.0
C2094 C 0.92998 0.66216 0.70139 0.0
C2095 C 0.90899 0.65677 0.71889 0.0
C2096 C 0.94403 0.64408 0.68836 0.0
C2097 C 0.93809 0.61988 0.69264 0.0
H2098 H 0.93487 0.68052 0.69726 0.0
H2099 H 0.95964 0.64907 0.67474 0.0
S2100 S 0.88633 0.59633 0.73767 0.0
N2101 N 0.88396 0.62549 0.74061 0.0
N2102 N 0.91043 0.59158 0.71624 0.0
C2103 C 0.91785 0.61425 0.71063 0.0
C2104 C 0.90326 0.63267 0.72368 0.0
C2105 C 0.63566 0.34987 0.56971 0.0
C2106 C 0.60644 0.34309 0.57469 0.0
C2107 C 0.65985 0.33878 0.58084 0.0
C2108 C 0.65607 0.3203 0.59746 0.0
H2109 H 0.64004 0.36363 0.55675 0.0
H2110 H 0.68177 0.3445 0.57592 0.0
S2111 S 0.58412 0.29651 0.61784 0.0
N2112 N 0.57518 0.31717 0.59828 0.0
N2113 N 0.62047 0.2964 0.61904 0.0
C2114 C 0.62695 0.31374 0.60309 0.0
C2115 C 0.60225 0.32508 0.59179 0.0
C2116 C 0.90928 0.37585 0.83405 0.0
C2117 C 0.91931 0.36754 0.81191 0.0
C2118 C 0.92327 0.3947 0.8458 0.0
C2119 C 0.94762 0.40636 0.83575 0.0
H2120 H 0.89038 0.36765 0.84237 0.0
H2121 H 0.91464 0.40048 0.86277 0.0
S2122 S 0.98271 0.39146 0.77817 0.0
N2123 N 0.95531 0.37231 0.78043 0.0
N2124 N 0.98154 0.40795 0.80246 0.0
C2125 C 0.95798 0.39825 0.81363 0.0
C2126 C 0.94393 0.37874 0.80177 0.0
C2127 C 0.90802 0.71185 0.11104 0.0
C2128 C 0.87813 0.71281 0.10416 0.0
C2129 C 0.92903 0.69913 0.09778 0.0
C2130 C 0.92121 0.68658 0.07703 0.0
H2131 H 0.91555 0.72151 0.12654 0.0
H2132 H 0.95175 0.69952 0.1037 0.0
S2133 S 0.84554 0.68204 0.05194 0.0
N2134 N 0.84161 0.69908 0.0756 0.0
N2135 N 0.8809 0.67512 0.05084 0.0
C2136 C 0.89121 0.68671 0.07034 0.0
C2137 C 0.86979 0.69981 0.08381 0.0
C2138 C 0.60898 0.63987 0.30514 0.0
C2139 C 0.59998 0.66377 0.3074 0.0
C2140 C 0.59404 0.62146 0.31691 0.0
C2141 C 0.56989 0.62632 0.33175 0.0
H2142 H 0.62786 0.63541 0.29428 0.0
H2143 H 0.60205 0.60341 0.31507 0.0
S2144 S 0.5368 0.68563 0.34298 0.0
N2145 N 0.56471 0.69107 0.32503 0.0
N2146 N 0.53679 0.65657 0.34719 0.0
C2147 C 0.56027 0.65004 0.33375 0.0
C2148 C 0.57523 0.66872 0.32154 0.0
C2149 C 0.65752 0.96656 0.64454 0.0
C2150 C 0.66631 0.9632 0.62077 0.0
C2151 C 0.67194 0.95482 0.66334 0.0
C2152 C 0.69519 0.93886 0.65899 0.0
H2153 H 0.63921 0.97825 0.64858 0.0
H2154 H 0.66418 0.95754 0.68131 0.0
S2155 S 0.72732 0.92448 0.60019 0.0
N2156 N 0.70048 0.94344 0.59412 0.0
N2157 N 0.72719 0.92108 0.62934 0.0
C2158 C 0.70456 0.93571 0.63539 0.0
C2159 C 0.69025 0.94798 0.61631 0.0
loop_
_geom_bond_atom_site_label_1
_geom_bond_atom_site_label_2
_geom_bond_distance
_geom_bond_site_symmetry_2
_ccdc_geom_bond_type
Cu0 N1 1.999 . S
Cu0 O6 1.974 . S
Cu0 N11 1.985 . S
Cu0 O20 1.959 . S
N1 Cu0 1.999 . S
N1 C3 1.263 . S
N1 C5 1.389 . S
N2 C3 1.358 . S
N2 C4 1.400 . S
C3 N1 1.263 . S
C3 N2 1.358 . S
C3 H9 0.930 . S
C4 N2 1.400 . S
C4 C5 1.351 . S
C4 H21 0.930 . S
C5 N1 1.389 . S
C5 C4 1.351 . S
C5 H10 0.930 . S
O6 Cu0 1.974 . S
O6 C16 1.282 . S
C7 O8 1.261 . S
C7 O20 1.251 . S
O8 C7 1.261 . S
H9 C3 0.930 . S
H10 C5 0.930 . S
N11 Cu0 1.985 . S
N11 C13 1.335 . S
N11 C14 1.390 . S
N12 C13 1.345 . S
N12 C15 1.336 . S
C13 N11 1.335 . S
C13 N12 1.345 . S
C13 H18 0.930 . S
C14 N11 1.390 . S
C14 C15 1.346 . S
C14 H19 0.930 . S
C15 N12 1.336 . S
C15 C14 1.346 . S
C15 H22 0.929 . S
C16 O6 1.282 . S
C16 O17 1.216 . S
O17 C16 1.216 . S
H18 C13 0.930 . S
H19 C14 0.930 . S
O20 Cu0 1.959 . S
O20 C7 1.251 . S
H21 C4 0.930 . S
H22 C15 0.929 . S
Cu23 N24 1.999 1_565 S
Cu23 O29 1.974 . S
Cu23 N34 1.985 . S
Cu23 O43 1.959 . S
N24 Cu23 1.999 1_545 S
N24 C26 1.263 . S
N24 C28 1.389 . S
N25 C26 1.358 . S
N25 C27 1.400 . S
C26 N24 1.263 . S
C26 N25 1.358 . S
C26 H32 0.930 . S
C27 N25 1.400 . S
C27 C28 1.351 . S
C27 H44 0.930 . S
C28 N24 1.389 . S
C28 C27 1.351 . S
C28 H33 0.930 . S
O29 Cu23 1.974 . S
O29 C39 1.282 . S
C30 O31 1.261 . S
C30 O43 1.251 . S
O31 C30 1.261 . S
H32 C26 0.930 . S
H33 C28 0.930 . S
N34 Cu23 1.985 . S
N34 C36 1.335 . S
N34 C37 1.390 . S
N35 C36 1.345 . S
N35 C38 1.336 . S
C36 N34 1.335 . S
C36 N35 1.345 . S
C36 H41 0.930 . S
C37 N34 1.390 . S
C37 C38 1.346 . S
C37 H42 0.930 . S
C38 N35 1.336 . S
C38 C37 1.346 . S
C38 H45 0.929 . S
C39 O29 1.282 . S
C39 O40 1.216 1_455 S
O40 C39 1.216 1_655 S
H41 C36 0.930 . S
H42 C37 0.930 . S
O43 Cu23 1.959 . S
O43 C30 1.251 . S
H44 C27 0.930 . S
H45 C38 0.929 . S
Cu46 N47 1.999 . S
Cu46 O52 1.974 . S
Cu46 N57 1.985 . S
Cu46 O66 1.959 . S
N47 Cu46 1.999 . S
N47 C49 1.263 . S
N47 C51 1.389 . S
N48 C49 1.358 . S
N48 C50 1.400 . S
C49 N47 1.263 . S
C49 N48 1.358 . S
C49 H55 0.930 . S
C50 N48 1.400 . S
C50 C51 1.351 . S
C50 H67 0.930 . S
C51 N47 1.389 . S
C51 C50 1.351 . S
C51 H56 0.930 . S
O52 Cu46 1.974 . S
O52 C62 1.282 . S
C53 O54 1.261 . S
C53 O66 1.251 . S
O54 C53 1.261 . S
H55 C49 0.930 . S
H56 C51 0.930 . S
N57 Cu46 1.985 . S
N57 C59 1.335 . S
N57 C60 1.390 . S
N58 C59 1.345 . S
N58 C61 1.336 . S
C59 N57 1.335 . S
C59 N58 1.345 . S
C59 H64 0.930 . S
C60 N57 1.390 . S
C60 C61 1.346 . S
C60 H65 0.930 . S
C61 N58 1.336 . S
C61 C60 1.346 . S
C61 H68 0.929 . S
C62 O52 1.282 . S
C62 O63 1.216 . S
O63 C62 1.216 . S
H64 C59 0.930 . S
H65 C60 0.930 . S
O66 Cu46 1.959 . S
O66 C53 1.251 . S
H67 C50 0.930 . S
H68 C61 0.929 . S
Cu69 N70 1.999 1_545 S
Cu69 O75 1.974 . S
Cu69 N80 1.985 . S
Cu69 O89 1.959 . S
N70 Cu69 1.999 1_565 S
N70 C72 1.263 . S
N70 C74 1.389 . S
N71 C72 1.358 . S
N71 C73 1.400 . S
C72 N70 1.263 . S
C72 N71 1.358 . S
C72 H78 0.930 . S
C73 N71 1.400 . S
C73 C74 1.351 . S
C73 H90 0.930 . S
C74 N70 1.389 . S
C74 C73 1.351 . S
C74 H79 0.930 . S
O75 Cu69 1.974 . S
O75 C85 1.282 . S
C76 O77 1.261 . S
C76 O89 1.251 . S
O77 C76 1.261 . S
H78 C72 0.930 . S
H79 C74 0.930 . S
N80 Cu69 1.985 . S
N80 C82 1.335 . S
N80 C83 1.390 . S
N81 C82 1.345 . S
N81 C84 1.336 . S
C82 N80 1.335 . S
C82 N81 1.345 . S
C82 H87 0.930 . S
C83 N80 1.390 . S
C83 C84 1.346 . S
C83 H88 0.930 . S
C84 N81 1.336 . S
C84 C83 1.346 . S
C84 H91 0.929 . S
C85 O75 1.282 . S
C85 O86 1.216 . S
O86 C85 1.216 . S
H87 C82 0.930 . S
H88 C83 0.930 . S
O89 Cu69 1.959 . S
O89 C76 1.251 . S
H90 C73 0.930 . S
H91 C84 0.929 . S
Cu92 N93 1.999 . S
Cu92 O98 1.974 . S
Cu92 N103 1.985 . S
Cu92 O112 1.959 . S
N93 Cu92 1.999 . S
N93 C95 1.263 . S
N93 C97 1.389 . S
N94 C95 1.358 . S
N94 C96 1.400 . S
C95 N93 1.263 . S
C95 N94 1.358 . S
C95 H101 0.930 . S
C96 N94 1.400 . S
C96 C97 1.351 . S
C96 H113 0.930 . S
C97 N93 1.389 . S
C97 C96 1.351 . S
C97 H102 0.930 . S
O98 Cu92 1.974 . S
O98 C108 1.282 . S
C99 O100 1.261 . S
C99 O112 1.251 . S
O100 C99 1.261 . S
H101 C95 0.930 . S
H102 C97 0.930 . S
N103 Cu92 1.985 . S
N103 C105 1.335 . S
N103 C106 1.390 . S
N104 C105 1.345 . S
N104 C107 1.336 . S
C105 N103 1.335 . S
C105 N104 1.345 . S
C105 H110 0.930 . S
C106 N103 1.390 . S
C106 C107 1.346 . S
C106 H111 0.930 . S
C107 N104 1.336 . S
C107 C106 1.346 . S
C107 H114 0.929 . S
C108 O98 1.282 . S
C108 O109 1.216 . S
O109 C108 1.216 . S
H110 C105 0.930 . S
H111 C106 0.930 . S
O112 Cu92 1.959 . S
O112 C99 1.251 . S
H113 C96 0.930 . S
H114 C107 0.929 . S
Cu115 N116 1.999 1_565 S
Cu115 O121 1.974 . S
Cu115 N126 1.985 . S
Cu115 O135 1.959 . S
N116 Cu115 1.999 1_545 S
N116 C118 1.263 . S
N116 C120 1.389 . S
N117 C118 1.358 . S
N117 C119 1.400 . S
C118 N116 1.263 . S
C118 N117 1.358 . S
C118 H124 0.930 . S
C119 N117 1.400 . S
C119 C120 1.351 . S
C119 H136 0.930 . S
C120 N116 1.389 . S
C120 C119 1.351 . S
C120 H125 0.930 . S
O121 Cu115 1.974 . S
O121 C131 1.282 . S
C122 O123 1.261 . S
C122 O135 1.251 . S
O123 C122 1.261 . S
H124 C118 0.930 . S
H125 C120 0.930 . S
N126 Cu115 1.985 . S
N126 C128 1.335 . S
N126 C129 1.390 . S
N127 C128 1.345 . S
N127 C130 1.336 . S
C128 N126 1.335 . S
C128 N127 1.345 . S
C128 H133 0.930 . S
C129 N126 1.390 . S
C129 C130 1.346 . S
C129 H134 0.930 . S
C130 N127 1.336 . S
C130 C129 1.346 . S
C130 H137 0.929 . S
C131 O121 1.282 . S
C131 O132 1.216 . S
O132 C131 1.216 . S
H133 C128 0.930 . S
H134 C129 0.930 . S
O135 Cu115 1.959 . S
O135 C122 1.251 . S
H136 C119 0.930 . S
H137 C130 0.929 . S
Cu138 N139 1.999 . S
Cu138 O144 1.974 . S
Cu138 N149 1.985 . S
Cu138 O158 1.959 . S
N139 Cu138 1.999 . S
N139 C141 1.263 . S
N139 C143 1.389 . S
N140 C141 1.358 . S
N140 C142 1.400 . S
C141 N139 1.263 . S
C141 N140 1.358 . S
C141 H147 0.930 . S
C142 N140 1.400 . S
C142 C143 1.351 . S
C142 H159 0.930 . S
C143 N139 1.389 . S
C143 C142 1.351 . S
C143 H148 0.930 . S
O144 Cu138 1.974 . S
O144 C154 1.282 . S
C145 O146 1.261 . S
C145 O158 1.251 . S
O146 C145 1.261 . S
H147 C141 0.930 . S
H148 C143 0.930 . S
N149 Cu138 1.985 . S
N149 C151 1.335 . S
N149 C152 1.390 . S
N150 C151 1.345 . S
N150 C153 1.336 . S
C151 N149 1.335 . S
C151 N150 1.345 . S
C151 H156 0.930 . S
C152 N149 1.390 . S
C152 C153 1.346 . S
C152 H157 0.930 . S
C153 N150 1.336 . S
C153 C152 1.346 . S
C153 H160 0.929 . S
C154 O144 1.282 . S
C154 O155 1.216 . S
O155 C154 1.216 . S
H156 C151 0.930 . S
H157 C152 0.930 . S
O158 Cu138 1.959 . S
O158 C145 1.251 . S
H159 C142 0.930 . S
H160 C153 0.929 . S
Cu161 N162 1.999 1_545 S
Cu161 O167 1.974 . S
Cu161 N172 1.985 . S
Cu161 O181 1.959 . S
N162 Cu161 1.999 1_565 S
N162 C164 1.263 . S
N162 C166 1.389 . S
N163 C164 1.358 . S
N163 C165 1.400 . S
C164 N162 1.263 . S
C164 N163 1.358 . S
C164 H170 0.930 . S
C165 N163 1.400 . S
C165 C166 1.351 . S
C165 H182 0.930 . S
C166 N162 1.389 . S
C166 C165 1.351 . S
C166 H171 0.930 . S
O167 Cu161 1.974 . S
O167 C177 1.282 . S
C168 O169 1.261 . S
C168 O181 1.251 . S
O169 C168 1.261 . S
H170 C164 0.930 . S
H171 C166 0.930 . S
N172 Cu161 1.985 . S
N172 C174 1.335 . S
N172 C175 1.390 . S
N173 C174 1.345 . S
N173 C176 1.336 . S
C174 N172 1.335 . S
C174 N173 1.345 . S
C174 H179 0.930 . S
C175 N172 1.390 . S
C175 C176 1.346 . S
C175 H180 0.930 . S
C176 N173 1.336 . S
C176 C175 1.346 . S
C176 H183 0.929 . S
C177 O167 1.282 . S
C177 O178 1.216 1_455 S
O178 C177 1.216 1_655 S
H179 C174 0.930 . S
H180 C175 0.930 . S
O181 Cu161 1.959 . S
O181 C168 1.251 . S
H182 C165 0.930 . S
H183 C176 0.929 . S
Cu184 N185 1.999 . S
Cu184 O190 1.974 . S
Cu184 N195 1.985 . S
Cu184 O204 1.959 . S
N185 Cu184 1.999 . S
N185 C187 1.263 . S
N185 C189 1.389 . S
N186 C187 1.358 . S
N186 C188 1.400 . S
C187 N185 1.263 . S
C187 N186 1.358 . S
C187 H193 0.930 . S
C188 N186 1.400 . S
C188 C189 1.351 . S
C188 H205 0.930 . S
C189 N185 1.389 . S
C189 C188 1.351 . S
C189 H194 0.930 . S
O190 Cu184 1.974 . S
O190 C200 1.282 . S
C191 O192 1.261 . S
C191 O204 1.251 . S
O192 C191 1.261 . S
H193 C187 0.930 . S
H194 C189 0.930 . S
N195 Cu184 1.985 . S
N195 C197 1.335 . S
N195 C198 1.390 . S
N196 C197 1.345 . S
N196 C199 1.336 . S
C197 N195 1.335 . S
C197 N196 1.345 . S
C197 H202 0.930 . S
C198 N195 1.390 . S
C198 C199 1.346 . S
C198 H203 0.930 . S
C199 N196 1.336 . S
C199 C198 1.346 . S
C199 H206 0.929 . S
C200 O190 1.282 . S
C200 O201 1.216 . S
O201 C200 1.216 . S
H202 C197 0.930 . S
H203 C198 0.930 . S
O204 Cu184 1.959 . S
O204 C191 1.251 . S
H205 C188 0.930 . S
H206 C199 0.929 . S
Cu207 N208 1.999 . S
Cu207 O213 1.974 . S
Cu207 N218 1.985 . S
Cu207 O227 1.959 . S
N208 Cu207 1.999 . S
N208 C210 1.263 . S
N208 C212 1.389 1_455 S
N209 C210 1.358 . S
N209 C211 1.400 1_455 S
C210 N208 1.263 . S
C210 N209 1.358 . S
C210 H216 0.930 . S
C211 N209 1.400 1_655 S
C211 C212 1.351 . S
C211 H228 0.930 . S
C212 N208 1.389 1_655 S
C212 C211 1.351 . S
C212 H217 0.930 . S
O213 Cu207 1.974 . S
O213 C223 1.282 . S
C214 O215 1.261 1_655 S
C214 O227 1.251 1_655 S
O215 C214 1.261 1_455 S
H216 C210 0.930 . S
H217 C212 0.930 . S
N218 Cu207 1.985 . S
N218 C220 1.335 . S
N218 C221 1.390 . S
N219 C220 1.345 . S
N219 C222 1.336 . S
C220 N218 1.335 . S
C220 N219 1.345 . S
C220 H225 0.930 . S
C221 N218 1.390 . S
C221 C222 1.346 . S
C221 H226 0.930 . S
C222 N219 1.336 . S
C222 C221 1.346 . S
C222 H229 0.929 . S
C223 O213 1.282 . S
C223 O224 1.216 . S
O224 C223 1.216 . S
H225 C220 0.930 . S
H226 C221 0.930 . S
O227 Cu207 1.959 . S
O227 C214 1.251 1_455 S
H228 C211 0.930 . S
H229 C222 0.929 . S
Cu230 N231 1.999 . S
Cu230 O236 1.974 . S
Cu230 N241 1.985 . S
Cu230 O250 1.959 . S
N231 Cu230 1.999 . S
N231 C233 1.263 . S
N231 C235 1.389 . S
N232 C233 1.358 . S
N232 C234 1.400 . S
C233 N231 1.263 . S
C233 N232 1.358 . S
C233 H239 0.930 . S
C234 N232 1.400 . S
C234 C235 1.351 . S
C234 H251 0.930 . S
C235 N231 1.389 . S
C235 C234 1.351 . S
C235 H240 0.930 . S
O236 Cu230 1.974 . S
O236 C246 1.282 . S
C237 O238 1.261 . S
C237 O250 1.251 . S
O238 C237 1.261 . S
H239 C233 0.930 . S
H240 C235 0.930 . S
N241 Cu230 1.985 . S
N241 C243 1.335 . S
N241 C244 1.390 . S
N242 C243 1.345 . S
N242 C245 1.336 . S
C243 N241 1.335 . S
C243 N242 1.345 . S
C243 H248 0.930 . S
C244 N241 1.390 . S
C244 C245 1.346 . S
C244 H249 0.930 . S
C245 N242 1.336 . S
C245 C244 1.346 . S
C245 H252 0.929 . S
C246 O236 1.282 . S
C246 O247 1.216 . S
O247 C246 1.216 . S
H248 C243 0.930 . S
H249 C244 0.930 . S
O250 Cu230 1.959 . S
O250 C237 1.251 . S
H251 C234 0.930 . S
H252 C245 0.929 . S
Cu253 N254 1.999 . S
Cu253 O259 1.974 . S
Cu253 N264 1.985 . S
Cu253 O273 1.959 . S
N254 Cu253 1.999 . S
N254 C256 1.263 . S
N254 C258 1.389 . S
N255 C256 1.358 . S
N255 C257 1.400 . S
C256 N254 1.263 . S
C256 N255 1.358 . S
C256 H262 0.930 . S
C257 N255 1.400 . S
C257 C258 1.351 . S
C257 H274 0.930 . S
C258 N254 1.389 . S
C258 C257 1.351 . S
C258 H263 0.930 . S
O259 Cu253 1.974 . S
O259 C269 1.282 . S
C260 O261 1.261 . S
C260 O273 1.251 . S
O261 C260 1.261 . S
H262 C256 0.930 . S
H263 C258 0.930 . S
N264 Cu253 1.985 . S
N264 C266 1.335 1_556 S
N264 C267 1.390 . S
N265 C266 1.345 . S
N265 C268 1.323 1_554 S
C266 N264 1.335 1_554 S
C266 N265 1.345 . S
C266 H271 0.930 . S
C267 N264 1.390 . S
C267 C268 1.356 . S
C267 H272 0.930 . S
C268 N265 1.323 1_556 S
C268 C267 1.356 . S
C268 H275 0.932 . S
C269 O259 1.282 . S
C269 O270 1.216 . S
O270 C269 1.216 . S
H271 C266 0.930 . S
H272 C267 0.930 . S
O273 Cu253 1.959 . S
O273 C260 1.251 . S
H274 C257 0.930 . S
H275 C268 0.932 . S
Cu276 N277 1.999 . S
Cu276 O282 1.974 . S
Cu276 N287 1.985 . S
Cu276 O296 1.959 . S
N277 Cu276 1.999 . S
N277 C279 1.263 . S
N277 C281 1.389 . S
N278 C279 1.358 . S
N278 C280 1.400 . S
C279 N277 1.263 . S
C279 N278 1.358 . S
C279 H285 0.930 . S
C280 N278 1.400 . S
C280 C281 1.351 . S
C280 H297 0.930 . S
C281 N277 1.389 . S
C281 C280 1.351 . S
C281 H286 0.930 . S
O282 Cu276 1.974 . S
O282 C292 1.282 . S
C283 O284 1.261 . S
C283 O296 1.251 . S
O284 C283 1.261 . S
H285 C279 0.930 . S
H286 C281 0.930 . S
N287 Cu276 1.985 . S
N287 C289 1.335 . S
N287 C290 1.390 . S
N288 C289 1.345 . S
N288 C291 1.336 . S
C289 N287 1.335 . S
C289 N288 1.345 . S
C289 H294 0.930 . S
C290 N287 1.390 . S
C290 C291 1.346 . S
C290 H295 0.930 . S
C291 N288 1.336 . S
C291 C290 1.346 . S
C291 H298 0.929 . S
C292 O282 1.282 . S
C292 O293 1.216 . S
O293 C292 1.216 . S
H294 C289 0.930 . S
H295 C290 0.930 . S
O296 Cu276 1.959 . S
O296 C283 1.251 . S
H297 C280 0.930 . S
H298 C291 0.929 . S
Cu299 N300 1.999 . S
Cu299 O305 1.974 . S
Cu299 N310 1.985 . S
Cu299 O319 1.959 . S
N300 Cu299 1.999 . S
N300 C302 1.263 . S
N300 C304 1.389 . S
N301 C302 1.358 . S
N301 C303 1.400 . S
C302 N300 1.263 . S
C302 N301 1.358 . S
C302 H308 0.930 . S
C303 N301 1.400 . S
C303 C304 1.351 . S
C303 H320 0.930 . S
C304 N300 1.389 . S
C304 C303 1.351 . S
C304 H309 0.930 . S
O305 Cu299 1.974 . S
O305 C315 1.282 . S
C306 O307 1.261 . S
C306 O319 1.251 . S
O307 C306 1.261 . S
H308 C302 0.930 . S
H309 C304 0.930 . S
N310 Cu299 1.985 . S
N310 C312 1.335 . S
N310 C313 1.390 . S
N311 C312 1.345 . S
N311 C314 1.336 . S
C312 N310 1.335 . S
C312 N311 1.345 . S
C312 H317 0.930 . S
C313 N310 1.390 . S
C313 C314 1.346 . S
C313 H318 0.930 . S
C314 N311 1.336 . S
C314 C313 1.346 . S
C314 H321 0.929 . S
C315 O305 1.282 . S
C315 O316 1.216 . S
O316 C315 1.216 . S
H317 C312 0.930 . S
H318 C313 0.930 . S
O319 Cu299 1.959 . S
O319 C306 1.251 . S
H320 C303 0.930 . S
H321 C314 0.929 . S
Cu322 N323 1.999 . S
Cu322 O328 1.974 . S
Cu322 N333 1.985 . S
Cu322 O342 1.959 . S
N323 Cu322 1.999 . S
N323 C325 1.263 . S
N323 C327 1.389 . S
N324 C325 1.358 . S
N324 C326 1.400 . S
C325 N323 1.263 . S
C325 N324 1.358 . S
C325 H331 0.930 . S
C326 N324 1.400 . S
C326 C327 1.351 . S
C326 H343 0.930 . S
C327 N323 1.389 . S
C327 C326 1.351 . S
C327 H332 0.930 . S
O328 Cu322 1.974 . S
O328 C338 1.282 . S
C329 O330 1.261 . S
C329 O342 1.251 . S
O330 C329 1.261 . S
H331 C325 0.930 . S
H332 C327 0.930 . S
N333 Cu322 1.985 . S
N333 C335 1.335 . S
N333 C336 1.390 . S
N334 C335 1.345 . S
N334 C337 1.336 . S
C335 N333 1.335 . S
C335 N334 1.345 . S
C335 H340 0.930 . S
C336 N333 1.390 . S
C336 C337 1.346 . S
C336 H341 0.930 . S
C337 N334 1.336 . S
C337 C336 1.346 . S
C337 H344 0.929 . S
C338 O328 1.282 . S
C338 O339 1.216 . S
O339 C338 1.216 . S
H340 C335 0.930 . S
H341 C336 0.930 . S
O342 Cu322 1.959 . S
O342 C329 1.251 . S
H343 C326 0.930 . S
H344 C337 0.929 . S
Cu345 N346 1.999 . S
Cu345 O351 1.974 . S
Cu345 N356 1.985 . S
Cu345 O365 1.959 . S
N346 Cu345 1.999 . S
N346 C348 1.263 . S
N346 C350 1.389 1_455 S
N347 C348 1.358 . S
N347 C349 1.400 1_455 S
C348 N346 1.263 . S
C348 N347 1.358 . S
C348 H354 0.930 . S
C349 N347 1.400 1_655 S
C349 C350 1.351 . S
C349 H366 0.930 . S
C350 N346 1.389 1_655 S
C350 C349 1.351 . S
C350 H355 0.930 . S
O351 Cu345 1.974 . S
O351 C361 1.282 . S
C352 O353 1.261 1_655 S
C352 O365 1.251 1_655 S
O353 C352 1.261 1_455 S
H354 C348 0.930 . S
H355 C350 0.930 . S
N356 Cu345 1.985 . S
N356 C358 1.335 1_554 S
N356 C359 1.390 . S
N357 C358 1.345 . S
N357 C360 1.323 1_556 S
C358 N356 1.335 1_556 S
C358 N357 1.345 . S
C358 H363 0.930 . S
C359 N356 1.390 . S
C359 C360 1.356 . S
C359 H364 0.930 . S
C360 N357 1.323 1_554 S
C360 C359 1.356 . S
C360 H367 0.932 . S
C361 O351 1.282 . S
C361 O362 1.216 . S
O362 C361 1.216 . S
H363 C358 0.930 . S
H364 C359 0.930 . S
O365 Cu345 1.959 . S
O365 C352 1.251 1_455 S
H366 C349 0.930 . S
H367 C360 0.932 . S
Cu368 N369 1.999 . S
Cu368 O374 1.974 . S
Cu368 N379 1.985 . S
Cu368 O388 1.959 . S
N369 Cu368 1.999 . S
N369 C371 1.263 . S
N369 C373 1.389 . S
N370 C371 1.358 . S
N370 C372 1.400 . S
C371 N369 1.263 . S
C371 N370 1.358 . S
C371 H377 0.930 . S
C372 N370 1.400 . S
C372 C373 1.351 . S
C372 H389 0.930 . S
C373 N369 1.389 . S
C373 C372 1.351 . S
C373 H378 0.930 . S
O374 Cu368 1.974 . S
O374 C384 1.282 . S
C375 O376 1.261 . S
C375 O388 1.251 . S
O376 C375 1.261 . S
H377 C371 0.930 . S
H378 C373 0.930 . S
N379 Cu368 1.985 . S
N379 C381 1.335 . S
N379 C382 1.390 . S
N380 C381 1.345 . S
N380 C383 1.336 . S
C381 N379 1.335 . S
C381 N380 1.345 . S
C381 H386 0.930 . S
C382 N379 1.390 . S
C382 C383 1.346 . S
C382 H387 0.930 . S
C383 N380 1.336 . S
C383 C382 1.346 . S
C383 H390 0.929 . S
C384 O374 1.282 . S
C384 O385 1.216 . S
O385 C384 1.216 . S
H386 C381 0.930 . S
H387 C382 0.930 . S
O388 Cu368 1.959 . S
O388 C375 1.251 . S
H389 C372 0.930 . S
H390 C383 0.929 . S
Cu391 N392 1.999 . S
Cu391 O397 1.974 . S
Cu391 N402 1.985 . S
Cu391 O411 1.959 . S
N392 Cu391 1.999 . S
N392 C394 1.263 . S
N392 C396 1.389 . S
N393 C394 1.358 . S
N393 C395 1.400 . S
C394 N392 1.263 . S
C394 N393 1.358 . S
C394 H400 0.930 . S
C395 N393 1.400 . S
C395 C396 1.351 . S
C395 H412 0.930 . S
C396 N392 1.389 . S
C396 C395 1.351 . S
C396 H401 0.930 . S
O397 Cu391 1.974 . S
O397 C407 1.282 . S
C398 O399 1.261 . S
C398 O411 1.251 . S
O399 C398 1.261 . S
H400 C394 0.930 . S
H401 C396 0.930 . S
N402 Cu391 1.985 . S
N402 C404 1.335 . S
N402 C405 1.390 . S
N403 C404 1.345 . S
N403 C406 1.336 . S
C404 N402 1.335 . S
C404 N403 1.345 . S
C404 H409 0.930 . S
C405 N402 1.390 . S
C405 C406 1.346 . S
C405 H410 0.930 . S
C406 N403 1.336 . S
C406 C405 1.346 . S
C406 H413 0.929 . S
C407 O397 1.282 . S
C407 O408 1.216 . S
O408 C407 1.216 . S
H409 C404 0.930 . S
H410 C405 0.930 . S
O411 Cu391 1.959 . S
O411 C398 1.251 . S
H412 C395 0.930 . S
H413 C406 0.929 . S
Cu414 N415 1.999 1_554 S
Cu414 O420 1.974 . S
Cu414 N425 1.985 . S
Cu414 O434 1.959 . S
N415 Cu414 1.999 1_556 S
N415 C417 1.263 . S
N415 C419 1.389 . S
N416 C417 1.358 . S
N416 C418 1.400 . S
C417 N415 1.263 . S
C417 N416 1.358 . S
C417 H423 0.930 . S
C418 N416 1.400 . S
C418 C419 1.351 . S
C418 H435 0.930 . S
C419 N415 1.389 . S
C419 C418 1.351 . S
C419 H424 0.930 . S
O420 Cu414 1.974 . S
O420 C430 1.282 . S
C421 O422 1.256 1_554 S
C421 O434 1.261 . S
O422 C421 1.256 1_556 S
H423 C417 0.930 . S
H424 C419 0.930 . S
N425 Cu414 1.985 . S
N425 C427 1.335 . S
N425 C428 1.390 . S
N426 C427 1.345 . S
N426 C429 1.336 . S
C427 N425 1.335 . S
C427 N426 1.345 . S
C427 H432 0.930 . S
C428 N425 1.390 . S
C428 C429 1.346 . S
C428 H433 0.930 . S
C429 N426 1.336 . S
C429 C428 1.346 . S
C429 H436 0.929 . S
C430 O420 1.282 . S
C430 O431 1.216 . S
O431 C430 1.216 . S
H432 C427 0.930 . S
H433 C428 0.930 . S
O434 Cu414 1.959 . S
O434 C421 1.261 . S
H435 C418 0.930 . S
H436 C429 0.929 . S
Cu437 N438 1.999 . S
Cu437 O443 1.974 . S
Cu437 N448 1.985 . S
Cu437 O457 1.959 . S
N438 Cu437 1.999 . S
N438 C440 1.263 . S
N438 C442 1.389 . S
N439 C440 1.358 . S
N439 C441 1.400 . S
C440 N438 1.263 . S
C440 N439 1.358 . S
C440 H446 0.930 . S
C441 N439 1.400 . S
C441 C442 1.351 . S
C441 H458 0.930 . S
C442 N438 1.389 . S
C442 C441 1.351 . S
C442 H447 0.930 . S
O443 Cu437 1.974 . S
O443 C453 1.282 . S
C444 O445 1.261 . S
C444 O457 1.251 . S
O445 C444 1.261 . S
H446 C440 0.930 . S
H447 C442 0.930 . S
N448 Cu437 1.985 . S
N448 C450 1.335 . S
N448 C451 1.390 . S
N449 C450 1.345 . S
N449 C452 1.336 . S
C450 N448 1.335 . S
C450 N449 1.345 . S
C450 H455 0.930 . S
C451 N448 1.390 . S
C451 C452 1.346 . S
C451 H456 0.930 . S
C452 N449 1.336 . S
C452 C451 1.346 . S
C452 H459 0.929 . S
C453 O443 1.282 . S
C453 O454 1.216 . S
O454 C453 1.216 . S
H455 C450 0.930 . S
H456 C451 0.930 . S
O457 Cu437 1.959 . S
O457 C444 1.251 . S
H458 C441 0.930 . S
H459 C452 0.929 . S
Cu460 N461 1.999 1_554 S
Cu460 O466 1.974 . S
Cu460 N471 1.985 . S
Cu460 O480 1.959 . S
N461 Cu460 1.999 1_556 S
N461 C463 1.263 . S
N461 C465 1.389 . S
N462 C463 1.358 . S
N462 C464 1.400 . S
C463 N461 1.263 . S
C463 N462 1.358 . S
C463 H469 0.930 1_545 S
C464 N462 1.400 . S
C464 C465 1.351 . S
C464 H481 0.930 . S
C465 N461 1.389 . S
C465 C464 1.351 . S
C465 H470 0.930 . S
O466 Cu460 1.974 . S
O466 C476 1.282 1_545 S
C467 O468 1.280 1_554 S
C467 O480 1.261 . S
O468 C467 1.280 1_556 S
H469 C463 0.930 1_565 S
H470 C465 0.930 . S
N471 Cu460 1.985 . S
N471 C473 1.335 . S
N471 C474 1.387 1_545 S
N472 C473 1.345 . S
N472 C475 1.336 . S
C473 N471 1.335 . S
C473 N472 1.345 . S
C473 H478 0.930 . S
C474 N471 1.387 1_565 S
C474 C475 1.346 1_565 S
C474 H479 0.933 . S
C475 N472 1.336 . S
C475 C474 1.346 1_545 S
C475 H482 0.929 1_545 S
C476 O466 1.282 1_565 S
C476 O477 1.216 . S
O477 C476 1.216 . S
H478 C473 0.930 . S
H479 C474 0.933 . S
O480 Cu460 1.959 . S
O480 C467 1.261 . S
H481 C464 0.930 . S
H482 C475 0.929 1_565 S
Cu483 N484 1.999 . S
Cu483 O489 1.974 . S
Cu483 N494 1.985 . S
Cu483 O503 1.959 . S
N484 Cu483 1.999 . S
N484 C486 1.263 . S
N484 C488 1.389 . S
N485 C486 1.358 . S
N485 C487 1.400 . S
C486 N484 1.263 . S
C486 N485 1.358 . S
C486 H492 0.930 . S
C487 N485 1.400 . S
C487 C488 1.351 . S
C487 H504 0.930 . S
C488 N484 1.389 . S
C488 C487 1.351 . S
C488 H493 0.930 . S
O489 Cu483 1.974 . S
O489 C499 1.282 . S
C490 O491 1.261 . S
C490 O503 1.251 . S
O491 C490 1.261 . S
H492 C486 0.930 . S
H493 C488 0.930 . S
N494 Cu483 1.985 . S
N494 C496 1.335 . S
N494 C497 1.390 . S
N495 C496 1.345 . S
N495 C498 1.336 . S
C496 N494 1.335 . S
C496 N495 1.345 . S
C496 H501 0.930 . S
C497 N494 1.390 . S
C497 C498 1.346 . S
C497 H502 0.930 . S
C498 N495 1.336 . S
C498 C497 1.346 . S
C498 H505 0.929 . S
C499 O489 1.282 . S
C499 O500 1.216 . S
O500 C499 1.216 . S
H501 C496 0.930 . S
H502 C497 0.930 . S
O503 Cu483 1.959 . S
O503 C490 1.251 . S
H504 C487 0.930 . S
H505 C498 0.929 . S
Cu506 N507 1.999 . S
Cu506 O512 1.974 . S
Cu506 N517 1.985 . S
Cu506 O526 1.959 . S
N507 Cu506 1.999 . S
N507 C509 1.263 . S
N507 C511 1.389 . S
N508 C509 1.358 . S
N508 C510 1.400 . S
C509 N507 1.263 . S
C509 N508 1.358 . S
C509 H515 0.930 . S
C510 N508 1.400 . S
C510 C511 1.351 . S
C510 H527 0.930 . S
C511 N507 1.389 . S
C511 C510 1.351 . S
C511 H516 0.930 . S
O512 Cu506 1.974 . S
O512 C522 1.282 . S
C513 O514 1.261 . S
C513 O526 1.251 . S
O514 C513 1.261 . S
H515 C509 0.930 . S
H516 C511 0.930 . S
N517 Cu506 1.985 . S
N517 C519 1.335 . S
N517 C520 1.390 . S
N518 C519 1.345 . S
N518 C521 1.336 . S
C519 N517 1.335 . S
C519 N518 1.345 . S
C519 H524 0.930 . S
C520 N517 1.390 . S
C520 C521 1.346 . S
C520 H525 0.930 . S
C521 N518 1.336 . S
C521 C520 1.346 . S
C521 H528 0.929 . S
C522 O512 1.282 . S
C522 O523 1.216 . S
O523 C522 1.216 . S
H524 C519 0.930 . S
H525 C520 0.930 . S
O526 Cu506 1.959 . S
O526 C513 1.251 . S
H527 C510 0.930 . S
H528 C521 0.929 . S
Cu529 N530 1.999 1_556 S
Cu529 O535 1.974 . S
Cu529 N540 1.985 . S
Cu529 O549 1.959 . S
N530 Cu529 1.999 1_554 S
N530 C532 1.263 . S
N530 C534 1.389 . S
N531 C532 1.358 . S
N531 C533 1.400 . S
C532 N530 1.263 . S
C532 N531 1.358 . S
C532 H538 0.930 . S
C533 N531 1.400 . S
C533 C534 1.351 . S
C533 H550 0.930 . S
C534 N530 1.389 . S
C534 C533 1.351 . S
C534 H539 0.930 . S
O535 Cu529 1.974 . S
O535 C545 1.282 . S
C536 O537 1.256 1_556 S
C536 O549 1.261 . S
O537 C536 1.256 1_554 S
H538 C532 0.930 . S
H539 C534 0.930 . S
N540 Cu529 1.985 . S
N540 C542 1.335 . S
N540 C543 1.390 . S
N541 C542 1.345 . S
N541 C544 1.336 . S
C542 N540 1.335 . S
C542 N541 1.345 . S
C542 H547 0.930 . S
C543 N540 1.390 . S
C543 C544 1.346 . S
C543 H548 0.930 . S
C544 N541 1.336 . S
C544 C543 1.346 . S
C544 H551 0.929 . S
C545 O535 1.282 . S
C545 O546 1.216 . S
O546 C545 1.216 . S
H547 C542 0.930 . S
H548 C543 0.930 . S
O549 Cu529 1.959 . S
O549 C536 1.261 . S
H550 C533 0.930 . S
H551 C544 0.929 . S
Cu552 N553 1.999 . S
Cu552 O558 1.974 . S
Cu552 N563 1.985 . S
Cu552 O572 1.959 . S
N553 Cu552 1.999 . S
N553 C555 1.263 . S
N553 C557 1.389 . S
N554 C555 1.358 . S
N554 C556 1.400 . S
C555 N553 1.263 . S
C555 N554 1.358 . S
C555 H561 0.930 . S
C556 N554 1.400 . S
C556 C557 1.351 . S
C556 H573 0.930 . S
C557 N553 1.389 . S
C557 C556 1.351 . S
C557 H562 0.930 . S
O558 Cu552 1.974 . S
O558 C568 1.282 . S
C559 O560 1.261 . S
C559 O572 1.251 . S
O560 C559 1.261 . S
H561 C555 0.930 . S
H562 C557 0.930 . S
N563 Cu552 1.985 . S
N563 C565 1.335 . S
N563 C566 1.390 . S
N564 C565 1.345 . S
N564 C567 1.336 . S
C565 N563 1.335 . S
C565 N564 1.345 . S
C565 H570 0.930 . S
C566 N563 1.390 . S
C566 C567 1.346 . S
C566 H571 0.930 . S
C567 N564 1.336 . S
C567 C566 1.346 . S
C567 H574 0.929 . S
C568 O558 1.282 . S
C568 O569 1.216 . S
O569 C568 1.216 . S
H570 C565 0.930 . S
H571 C566 0.930 . S
O572 Cu552 1.959 . S
O572 C559 1.251 . S
H573 C556 0.930 . S
H574 C567 0.929 . S
Cu575 N576 1.999 . S
Cu575 O581 1.974 . S
Cu575 N586 1.985 . S
Cu575 O595 1.959 . S
N576 Cu575 1.999 . S
N576 C578 1.263 . S
N576 C580 1.389 . S
N577 C578 1.358 . S
N577 C579 1.400 . S
C578 N576 1.263 . S
C578 N577 1.358 . S
C578 H584 0.930 . S
C579 N577 1.400 . S
C579 C580 1.351 . S
C579 H596 0.930 . S
C580 N576 1.389 . S
C580 C579 1.351 . S
C580 H585 0.930 . S
O581 Cu575 1.974 . S
O581 C591 1.282 . S
C582 O583 1.261 . S
C582 O595 1.251 . S
O583 C582 1.261 . S
H584 C578 0.930 . S
H585 C580 0.930 . S
N586 Cu575 1.985 . S
N586 C588 1.335 . S
N586 C589 1.390 . S
N587 C588 1.345 . S
N587 C590 1.336 . S
C588 N586 1.335 . S
C588 N587 1.345 . S
C588 H593 0.930 . S
C589 N586 1.390 . S
C589 C590 1.346 . S
C589 H594 0.930 . S
C590 N587 1.336 . S
C590 C589 1.346 . S
C590 H597 0.929 . S
C591 O581 1.282 . S
C591 O592 1.216 . S
O592 C591 1.216 . S
H593 C588 0.930 . S
H594 C589 0.930 . S
O595 Cu575 1.959 . S
O595 C582 1.251 . S
H596 C579 0.930 . S
H597 C590 0.929 . S
Cu598 N599 1.999 . S
Cu598 O604 1.974 . S
Cu598 N609 1.985 . S
Cu598 O618 1.959 . S
N599 Cu598 1.999 . S
N599 C601 1.263 . S
N599 C603 1.389 . S
N600 C601 1.358 . S
N600 C602 1.400 . S
C601 N599 1.263 . S
C601 N600 1.358 . S
C601 H607 0.930 . S
C602 N600 1.400 . S
C602 C603 1.351 . S
C602 H619 0.930 . S
C603 N599 1.389 . S
C603 C602 1.351 . S
C603 H608 0.930 . S
O604 Cu598 1.974 . S
O604 C614 1.282 . S
C605 O606 1.261 . S
C605 O618 1.251 . S
O606 C605 1.261 . S
H607 C601 0.930 . S
H608 C603 0.930 . S
N609 Cu598 1.985 . S
N609 C611 1.335 . S
N609 C612 1.390 . S
N610 C611 1.345 . S
N610 C613 1.336 . S
C611 N609 1.335 . S
C611 N610 1.345 . S
C611 H616 0.930 . S
C612 N609 1.390 . S
C612 C613 1.346 . S
C612 H617 0.930 . S
C613 N610 1.336 . S
C613 C612 1.346 . S
C613 H620 0.929 . S
C614 O604 1.282 . S
C614 O615 1.216 . S
O615 C614 1.216 . S
H616 C611 0.930 . S
H617 C612 0.930 . S
O618 Cu598 1.959 . S
O618 C605 1.251 . S
H619 C602 0.930 . S
H620 C613 0.929 . S
Cu621 N622 1.999 . S
Cu621 O627 1.974 . S
Cu621 N632 1.985 . S
Cu621 O641 1.959 . S
N622 Cu621 1.999 . S
N622 C624 1.263 . S
N622 C626 1.389 . S
N623 C624 1.358 . S
N623 C625 1.400 . S
C624 N622 1.263 . S
C624 N623 1.358 . S
C624 H630 0.930 . S
C625 N623 1.400 . S
C625 C626 1.351 . S
C625 H642 0.930 . S
C626 N622 1.389 . S
C626 C625 1.351 . S
C626 H631 0.930 . S
O627 Cu621 1.974 . S
O627 C637 1.282 . S
C628 O629 1.261 . S
C628 O641 1.251 . S
O629 C628 1.261 . S
H630 C624 0.930 . S
H631 C626 0.930 . S
N632 Cu621 1.985 . S
N632 C634 1.335 . S
N632 C635 1.390 . S
N633 C634 1.345 . S
N633 C636 1.336 . S
C634 N632 1.335 . S
C634 N633 1.345 . S
C634 H639 0.930 . S
C635 N632 1.390 . S
C635 C636 1.346 . S
C635 H640 0.930 . S
C636 N633 1.336 . S
C636 C635 1.346 . S
C636 H643 0.929 . S
C637 O627 1.282 . S
C637 O638 1.216 1_655 S
O638 C637 1.216 1_455 S
H639 C634 0.930 . S
H640 C635 0.930 . S
O641 Cu621 1.959 . S
O641 C628 1.251 . S
H642 C625 0.930 . S
H643 C636 0.929 . S
Cu644 N645 1.999 . S
Cu644 O650 1.974 . S
Cu644 N655 1.985 . S
Cu644 O664 1.959 . S
N645 Cu644 1.999 . S
N645 C647 1.263 . S
N645 C649 1.389 . S
N646 C647 1.358 . S
N646 C648 1.400 . S
C647 N645 1.263 . S
C647 N646 1.358 . S
C647 H653 0.930 . S
C648 N646 1.400 . S
C648 C649 1.351 . S
C648 H665 0.930 . S
C649 N645 1.389 . S
C649 C648 1.351 . S
C649 H654 0.930 . S
O650 Cu644 1.974 . S
O650 C660 1.282 . S
C651 O652 1.261 . S
C651 O664 1.251 . S
O652 C651 1.261 . S
H653 C647 0.930 . S
H654 C649 0.930 . S
N655 Cu644 1.985 . S
N655 C657 1.335 . S
N655 C658 1.390 . S
N656 C657 1.345 . S
N656 C659 1.336 . S
C657 N655 1.335 . S
C657 N656 1.345 . S
C657 H662 0.930 . S
C658 N655 1.390 . S
C658 C659 1.346 . S
C658 H663 0.930 . S
C659 N656 1.336 . S
C659 C658 1.346 . S
C659 H666 0.929 . S
C660 O650 1.282 . S
C660 O661 1.216 . S
O661 C660 1.216 . S
H662 C657 0.930 . S
H663 C658 0.930 . S
O664 Cu644 1.959 . S
O664 C651 1.251 . S
H665 C648 0.930 . S
H666 C659 0.929 . S
Cu667 N668 1.999 . S
Cu667 O673 1.974 . S
Cu667 N678 1.985 . S
Cu667 O687 1.959 . S
N668 Cu667 1.999 . S
N668 C670 1.263 . S
N668 C672 1.389 . S
N669 C670 1.358 . S
N669 C671 1.400 . S
C670 N668 1.263 . S
C670 N669 1.358 . S
C670 H676 0.930 . S
C671 N669 1.400 . S
C671 C672 1.351 . S
C671 H688 0.930 . S
C672 N668 1.389 . S
C672 C671 1.351 . S
C672 H677 0.930 . S
O673 Cu667 1.974 . S
O673 C683 1.282 . S
C674 O675 1.261 . S
C674 O687 1.251 . S
O675 C674 1.261 . S
H676 C670 0.930 . S
H677 C672 0.930 . S
N678 Cu667 1.985 . S
N678 C680 1.335 . S
N678 C681 1.390 . S
N679 C680 1.345 . S
N679 C682 1.336 . S
C680 N678 1.335 . S
C680 N679 1.345 . S
C680 H685 0.930 . S
C681 N678 1.390 . S
C681 C682 1.346 . S
C681 H686 0.930 . S
C682 N679 1.336 . S
C682 C681 1.346 . S
C682 H689 0.929 . S
C683 O673 1.282 . S
C683 O684 1.216 1_655 S
O684 C683 1.216 1_455 S
H685 C680 0.930 . S
H686 C681 0.930 . S
O687 Cu667 1.959 . S
O687 C674 1.251 . S
H688 C671 0.930 . S
H689 C682 0.929 . S
Cu690 N691 1.999 . S
Cu690 O696 1.974 . S
Cu690 N701 1.985 . S
Cu690 O710 1.959 . S
N691 Cu690 1.999 . S
N691 C693 1.263 . S
N691 C695 1.389 . S
N692 C693 1.358 . S
N692 C694 1.400 . S
C693 N691 1.263 . S
C693 N692 1.358 . S
C693 H699 0.930 . S
C694 N692 1.400 . S
C694 C695 1.351 . S
C694 H711 0.930 . S
C695 N691 1.389 . S
C695 C694 1.351 . S
C695 H700 0.930 . S
O696 Cu690 1.974 . S
O696 C706 1.282 . S
C697 O698 1.261 . S
C697 O710 1.251 . S
O698 C697 1.261 . S
H699 C693 0.930 . S
H700 C695 0.930 . S
N701 Cu690 1.985 . S
N701 C703 1.335 . S
N701 C704 1.390 . S
N702 C703 1.345 . S
N702 C705 1.336 . S
C703 N701 1.335 . S
C703 N702 1.345 . S
C703 H708 0.930 . S
C704 N701 1.390 . S
C704 C705 1.346 . S
C704 H709 0.930 . S
C705 N702 1.336 . S
C705 C704 1.346 . S
C705 H712 0.929 . S
C706 O696 1.282 . S
C706 O707 1.216 . S
O707 C706 1.216 . S
H708 C703 0.930 . S
H709 C704 0.930 . S
O710 Cu690 1.959 . S
O710 C697 1.251 . S
H711 C694 0.930 . S
H712 C705 0.929 . S
Cu713 N714 1.999 . S
Cu713 O719 1.974 . S
Cu713 N724 1.985 . S
Cu713 O733 1.959 . S
N714 Cu713 1.999 . S
N714 C716 1.263 . S
N714 C718 1.389 . S
N715 C716 1.358 . S
N715 C717 1.400 . S
C716 N714 1.263 . S
C716 N715 1.358 . S
C716 H722 0.930 . S
C717 N715 1.400 . S
C717 C718 1.351 . S
C717 H734 0.930 . S
C718 N714 1.389 . S
C718 C717 1.351 . S
C718 H723 0.930 . S
O719 Cu713 1.974 . S
O719 C729 1.282 . S
C720 O721 1.261 . S
C720 O733 1.251 . S
O721 C720 1.261 . S
H722 C716 0.930 . S
H723 C718 0.930 . S
N724 Cu713 1.985 . S
N724 C726 1.335 . S
N724 C727 1.390 . S
N725 C726 1.345 . S
N725 C728 1.336 . S
C726 N724 1.335 . S
C726 N725 1.345 . S
C726 H731 0.930 . S
C727 N724 1.390 . S
C727 C728 1.346 . S
C727 H732 0.930 . S
C728 N725 1.336 . S
C728 C727 1.346 . S
C728 H735 0.929 . S
C729 O719 1.282 . S
C729 O730 1.216 . S
O730 C729 1.216 . S
H731 C726 0.930 . S
H732 C727 0.930 . S
O733 Cu713 1.959 . S
O733 C720 1.251 . S
H734 C717 0.930 . S
H735 C728 0.929 . S
Cu736 N737 1.999 . S
Cu736 O742 1.974 . S
Cu736 N747 1.985 . S
Cu736 O756 1.959 . S
N737 Cu736 1.999 . S
N737 C739 1.263 . S
N737 C741 1.389 . S
N738 C739 1.358 . S
N738 C740 1.400 . S
C739 N737 1.263 . S
C739 N738 1.358 . S
C739 H745 0.930 . S
C740 N738 1.400 . S
C740 C741 1.351 . S
C740 H757 0.930 . S
C741 N737 1.389 . S
C741 C740 1.351 . S
C741 H746 0.930 . S
O742 Cu736 1.974 . S
O742 C752 1.282 . S
C743 O744 1.261 . S
C743 O756 1.251 . S
O744 C743 1.261 . S
H745 C739 0.930 . S
H746 C741 0.930 . S
N747 Cu736 1.985 . S
N747 C749 1.335 . S
N747 C750 1.390 . S
N748 C749 1.345 . S
N748 C751 1.336 . S
C749 N747 1.335 . S
C749 N748 1.345 . S
C749 H754 0.930 . S
C750 N747 1.390 . S
C750 C751 1.346 . S
C750 H755 0.930 . S
C751 N748 1.336 . S
C751 C750 1.346 . S
C751 H758 0.929 . S
C752 O742 1.282 . S
C752 O753 1.216 . S
O753 C752 1.216 . S
H754 C749 0.930 . S
H755 C750 0.930 . S
O756 Cu736 1.959 . S
O756 C743 1.251 . S
H757 C740 0.930 . S
H758 C751 0.929 . S
Cu759 N760 1.999 . S
Cu759 O765 1.974 . S
Cu759 N770 1.985 . S
Cu759 O779 1.959 . S
N760 Cu759 1.999 . S
N760 C762 1.263 . S
N760 C764 1.389 . S
N761 C762 1.358 . S
N761 C763 1.400 . S
C762 N760 1.263 . S
C762 N761 1.358 . S
C762 H768 0.930 . S
C763 N761 1.400 . S
C763 C764 1.351 . S
C763 H780 0.930 . S
C764 N760 1.389 . S
C764 C763 1.351 . S
C764 H769 0.930 . S
O765 Cu759 1.974 . S
O765 C775 1.282 . S
C766 O767 1.261 . S
C766 O779 1.251 . S
O767 C766 1.261 . S
H768 C762 0.930 . S
H769 C764 0.930 . S
N770 Cu759 1.985 . S
N770 C772 1.335 1_556 S
N770 C773 1.390 . S
N771 C772 1.345 . S
N771 C774 1.323 1_554 S
C772 N770 1.335 1_554 S
C772 N771 1.345 . S
C772 H777 0.930 . S
C773 N770 1.390 . S
C773 C774 1.357 . S
C773 H778 0.930 . S
C774 N771 1.323 1_556 S
C774 C773 1.357 . S
C774 H781 0.933 . S
C775 O765 1.282 . S
C775 O776 1.216 . S
O776 C775 1.216 . S
H777 C772 0.930 . S
H778 C773 0.930 . S
O779 Cu759 1.959 . S
O779 C766 1.251 . S
H780 C763 0.930 . S
H781 C774 0.933 . S
Cu782 N783 1.999 . S
Cu782 O788 1.974 . S
Cu782 N793 1.985 . S
Cu782 O802 1.959 . S
N783 Cu782 1.999 . S
N783 C785 1.263 . S
N783 C787 1.389 . S
N784 C785 1.358 . S
N784 C786 1.400 . S
C785 N783 1.263 . S
C785 N784 1.358 . S
C785 H791 0.930 . S
C786 N784 1.400 . S
C786 C787 1.351 . S
C786 H803 0.930 . S
C787 N783 1.389 . S
C787 C786 1.351 . S
C787 H792 0.930 . S
O788 Cu782 1.974 . S
O788 C798 1.282 . S
C789 O790 1.261 . S
C789 O802 1.251 . S
O790 C789 1.261 . S
H791 C785 0.930 . S
H792 C787 0.930 . S
N793 Cu782 1.985 . S
N793 C795 1.335 . S
N793 C796 1.390 . S
N794 C795 1.345 . S
N794 C797 1.336 . S
C795 N793 1.335 . S
C795 N794 1.345 . S
C795 H800 0.930 . S
C796 N793 1.390 . S
C796 C797 1.346 . S
C796 H801 0.930 . S
C797 N794 1.336 . S
C797 C796 1.346 . S
C797 H804 0.929 . S
C798 O788 1.282 . S
C798 O799 1.216 . S
O799 C798 1.216 . S
H800 C795 0.930 . S
H801 C796 0.930 . S
O802 Cu782 1.959 . S
O802 C789 1.251 . S
H803 C786 0.930 . S
H804 C797 0.929 . S
Cu805 N806 1.999 . S
Cu805 O811 1.974 . S
Cu805 N816 1.985 . S
Cu805 O825 1.959 . S
N806 Cu805 1.999 . S
N806 C808 1.263 . S
N806 C810 1.389 1_655 S
N807 C808 1.358 . S
N807 C809 1.400 1_655 S
C808 N806 1.263 . S
C808 N807 1.358 . S
C808 H814 0.930 . S
C809 N807 1.400 1_455 S
C809 C810 1.351 . S
C809 H826 0.930 . S
C810 N806 1.389 1_455 S
C810 C809 1.351 . S
C810 H815 0.930 . S
O811 Cu805 1.974 . S
O811 C821 1.282 . S
C812 O813 1.261 1_455 S
C812 O825 1.251 1_455 S
O813 C812 1.261 1_655 S
H814 C808 0.930 . S
H815 C810 0.930 . S
N816 Cu805 1.985 . S
N816 C818 1.335 . S
N816 C819 1.390 . S
N817 C818 1.345 . S
N817 C820 1.336 . S
C818 N816 1.335 . S
C818 N817 1.345 . S
C818 H823 0.930 . S
C819 N816 1.390 . S
C819 C820 1.346 . S
C819 H824 0.930 . S
C820 N817 1.336 . S
C820 C819 1.346 . S
C820 H827 0.929 . S
C821 O811 1.282 . S
C821 O822 1.216 . S
O822 C821 1.216 . S
H823 C818 0.930 . S
H824 C819 0.930 . S
O825 Cu805 1.959 . S
O825 C812 1.251 1_655 S
H826 C809 0.930 . S
H827 C820 0.929 . S
Cu828 N829 1.999 . S
Cu828 O834 1.974 . S
Cu828 N839 1.985 . S
Cu828 O848 1.959 . S
N829 Cu828 1.999 . S
N829 C831 1.263 . S
N829 C833 1.389 . S
N830 C831 1.358 . S
N830 C832 1.400 . S
C831 N829 1.263 . S
C831 N830 1.358 . S
C831 H837 0.930 . S
C832 N830 1.400 . S
C832 C833 1.351 . S
C832 H849 0.930 . S
C833 N829 1.389 . S
C833 C832 1.351 . S
C833 H838 0.930 . S
O834 Cu828 1.974 . S
O834 C844 1.282 . S
C835 O836 1.261 . S
C835 O848 1.251 . S
O836 C835 1.261 . S
H837 C831 0.930 . S
H838 C833 0.930 . S
N839 Cu828 1.985 . S
N839 C841 1.335 . S
N839 C842 1.390 . S
N840 C841 1.345 . S
N840 C843 1.336 . S
C841 N839 1.335 . S
C841 N840 1.345 . S
C841 H846 0.930 . S
C842 N839 1.390 . S
C842 C843 1.346 . S
C842 H847 0.930 . S
C843 N840 1.336 . S
C843 C842 1.346 . S
C843 H850 0.929 . S
C844 O834 1.282 . S
C844 O845 1.216 . S
O845 C844 1.216 . S
H846 C841 0.930 . S
H847 C842 0.930 . S
O848 Cu828 1.959 . S
O848 C835 1.251 . S
H849 C832 0.930 . S
H850 C843 0.929 . S
Cu851 N852 1.999 . S
Cu851 O857 1.974 . S
Cu851 N862 1.985 . S
Cu851 O871 1.959 . S
N852 Cu851 1.999 . S
N852 C854 1.263 . S
N852 C856 1.389 1_655 S
N853 C854 1.358 . S
N853 C855 1.400 1_655 S
C854 N852 1.263 . S
C854 N853 1.358 . S
C854 H860 0.930 . S
C855 N853 1.400 1_455 S
C855 C856 1.351 . S
C855 H872 0.930 . S
C856 N852 1.389 1_455 S
C856 C855 1.351 . S
C856 H861 0.930 . S
O857 Cu851 1.974 . S
O857 C867 1.282 . S
C858 O859 1.261 1_455 S
C858 O871 1.251 1_455 S
O859 C858 1.261 1_655 S
H860 C854 0.930 . S
H861 C856 0.930 . S
N862 Cu851 1.985 . S
N862 C864 1.335 1_554 S
N862 C865 1.390 . S
N863 C864 1.345 . S
N863 C866 1.323 1_556 S
C864 N862 1.335 1_556 S
C864 N863 1.345 . S
C864 H869 0.930 . S
C865 N862 1.390 . S
C865 C866 1.357 . S
C865 H870 0.930 . S
C866 N863 1.323 1_554 S
C866 C865 1.357 . S
C866 H873 0.933 . S
C867 O857 1.282 . S
C867 O868 1.216 . S
O868 C867 1.216 . S
H869 C864 0.930 . S
H870 C865 0.930 . S
O871 Cu851 1.959 . S
O871 C858 1.251 1_655 S
H872 C855 0.930 . S
H873 C866 0.933 . S
Cu874 N875 1.999 . S
Cu874 O880 1.974 . S
Cu874 N885 1.985 . S
Cu874 O894 1.959 . S
N875 Cu874 1.999 . S
N875 C877 1.263 . S
N875 C879 1.389 . S
N876 C877 1.358 . S
N876 C878 1.400 . S
C877 N875 1.263 . S
C877 N876 1.358 . S
C877 H883 0.930 . S
C878 N876 1.400 . S
C878 C879 1.351 . S
C878 H895 0.930 . S
C879 N875 1.389 . S
C879 C878 1.351 . S
C879 H884 0.930 . S
O880 Cu874 1.974 . S
O880 C890 1.282 . S
C881 O882 1.261 . S
C881 O894 1.251 . S
O882 C881 1.261 . S
H883 C877 0.930 . S
H884 C879 0.930 . S
N885 Cu874 1.985 . S
N885 C887 1.335 . S
N885 C888 1.390 . S
N886 C887 1.345 . S
N886 C889 1.336 . S
C887 N885 1.335 . S
C887 N886 1.345 . S
C887 H892 0.930 . S
C888 N885 1.390 . S
C888 C889 1.346 . S
C888 H893 0.930 . S
C889 N886 1.336 . S
C889 C888 1.346 . S
C889 H896 0.929 . S
C890 O880 1.282 . S
C890 O891 1.216 . S
O891 C890 1.216 . S
H892 C887 0.930 . S
H893 C888 0.930 . S
O894 Cu874 1.959 . S
O894 C881 1.251 . S
H895 C878 0.930 . S
H896 C889 0.929 . S
Cu897 N898 1.999 . S
Cu897 O903 1.974 . S
Cu897 N908 1.985 . S
Cu897 O917 1.959 . S
N898 Cu897 1.999 . S
N898 C900 1.263 . S
N898 C902 1.389 . S
N899 C900 1.358 . S
N899 C901 1.400 . S
C900 N898 1.263 . S
C900 N899 1.358 . S
C900 H906 0.930 . S
C901 N899 1.400 . S
C901 C902 1.351 . S
C901 H918 0.930 . S
C902 N898 1.389 . S
C902 C901 1.351 . S
C902 H907 0.930 . S
O903 Cu897 1.974 . S
O903 C913 1.282 . S
C904 O905 1.261 . S
C904 O917 1.251 . S
O905 C904 1.261 . S
H906 C900 0.930 . S
H907 C902 0.930 . S
N908 Cu897 1.985 . S
N908 C910 1.335 . S
N908 C911 1.390 . S
N909 C910 1.345 . S
N909 C912 1.336 . S
C910 N908 1.335 . S
C910 N909 1.345 . S
C910 H915 0.930 . S
C911 N908 1.390 . S
C911 C912 1.346 . S
C911 H916 0.930 . S
C912 N909 1.336 . S
C912 C911 1.346 . S
C912 H919 0.929 . S
C913 O903 1.282 . S
C913 O914 1.216 . S
O914 C913 1.216 . S
H915 C910 0.930 . S
H916 C911 0.930 . S
O917 Cu897 1.959 . S
O917 C904 1.251 . S
H918 C901 0.930 . S
H919 C912 0.929 . S
Cu920 N921 1.999 . S
Cu920 O926 1.974 . S
Cu920 N931 1.985 . S
Cu920 O940 1.959 . S
N921 Cu920 1.999 . S
N921 C923 1.263 . S
N921 C925 1.389 . S
N922 C923 1.358 . S
N922 C924 1.400 . S
C923 N921 1.263 . S
C923 N922 1.358 . S
C923 H929 0.930 . S
C924 N922 1.400 . S
C924 C925 1.351 . S
C924 H941 0.930 . S
C925 N921 1.389 . S
C925 C924 1.351 . S
C925 H930 0.930 . S
O926 Cu920 1.974 . S
O926 C936 1.282 . S
C927 O928 1.261 . S
C927 O940 1.251 . S
O928 C927 1.261 . S
H929 C923 0.930 . S
H930 C925 0.930 . S
N931 Cu920 1.985 . S
N931 C933 1.335 . S
N931 C934 1.390 . S
N932 C933 1.345 . S
N932 C935 1.336 . S
C933 N931 1.335 . S
C933 N932 1.345 . S
C933 H938 0.930 . S
C934 N931 1.390 . S
C934 C935 1.346 . S
C934 H939 0.930 . S
C935 N932 1.336 . S
C935 C934 1.346 . S
C935 H942 0.929 . S
C936 O926 1.282 . S
C936 O937 1.216 . S
O937 C936 1.216 . S
H938 C933 0.930 . S
H939 C934 0.930 . S
O940 Cu920 1.959 . S
O940 C927 1.251 . S
H941 C924 0.930 . S
H942 C935 0.929 . S
Cu943 N944 1.999 . S
Cu943 O949 1.974 . S
Cu943 N954 1.985 . S
Cu943 O963 1.959 . S
N944 Cu943 1.999 . S
N944 C946 1.263 . S
N944 C948 1.389 . S
N945 C946 1.358 . S
N945 C947 1.400 . S
C946 N944 1.263 . S
C946 N945 1.358 . S
C946 H952 0.930 . S
C947 N945 1.400 . S
C947 C948 1.351 . S
C947 H964 0.930 . S
C948 N944 1.389 . S
C948 C947 1.351 . S
C948 H953 0.930 . S
O949 Cu943 1.974 . S
O949 C959 1.282 . S
C950 O951 1.261 . S
C950 O963 1.251 . S
O951 C950 1.261 . S
H952 C946 0.930 . S
H953 C948 0.930 . S
N954 Cu943 1.985 . S
N954 C956 1.335 . S
N954 C957 1.390 . S
N955 C956 1.345 . S
N955 C958 1.336 . S
C956 N954 1.335 . S
C956 N955 1.345 . S
C956 H961 0.930 . S
C957 N954 1.390 . S
C957 C958 1.346 . S
C957 H962 0.930 . S
C958 N955 1.336 . S
C958 C957 1.346 . S
C958 H965 0.929 . S
C959 O949 1.282 . S
C959 O960 1.216 . S
O960 C959 1.216 . S
H961 C956 0.930 . S
H962 C957 0.930 . S
O963 Cu943 1.959 . S
O963 C950 1.251 . S
H964 C947 0.930 . S
H965 C958 0.929 . S
Cu966 N967 1.999 . S
Cu966 O972 1.974 . S
Cu966 N977 1.985 . S
Cu966 O986 1.959 . S
N967 Cu966 1.999 . S
N967 C969 1.263 . S
N967 C971 1.389 . S
N968 C969 1.358 . S
N968 C970 1.400 . S
C969 N967 1.263 . S
C969 N968 1.358 . S
C969 H975 0.930 1_565 S
C970 N968 1.400 . S
C970 C971 1.351 . S
C970 H987 0.930 . S
C971 N967 1.389 . S
C971 C970 1.351 . S
C971 H976 0.930 . S
O972 Cu966 1.974 . S
O972 C982 1.282 1_565 S
C973 O974 1.299 . S
C973 O986 1.251 . S
O974 C973 1.299 . S
H975 C969 0.930 1_545 S
H976 C971 0.930 . S
N977 Cu966 1.985 . S
N977 C979 1.335 . S
N977 C980 1.389 . S
N978 C979 1.345 . S
N978 C981 1.336 . S
C979 N977 1.335 . S
C979 N978 1.345 . S
C979 H984 0.930 . S
C980 N977 1.389 . S
C980 C981 1.346 . S
C980 H985 0.931 1_565 S
C981 N978 1.336 . S
C981 C980 1.346 . S
C981 H988 0.929 1_565 S
C982 O972 1.282 1_545 S
C982 O983 1.216 . S
O983 C982 1.216 . S
H984 C979 0.930 . S
H985 C980 0.931 1_545 S
O986 Cu966 1.959 . S
O986 C973 1.251 . S
H987 C970 0.930 . S
H988 C981 0.929 1_545 S
Cu989 N990 1.999 . S
Cu989 O995 1.974 . S
Cu989 N1000 1.985 . S
Cu989 O1009 1.959 . S
N990 Cu989 1.999 . S
N990 C992 1.263 . S
N990 C994 1.389 . S
N991 C992 1.358 . S
N991 C993 1.400 . S
C992 N990 1.263 . S
C992 N991 1.358 . S
C992 H998 0.930 . S
C993 N991 1.400 . S
C993 C994 1.351 . S
C993 H1010 0.930 . S
C994 N990 1.389 . S
C994 C993 1.351 . S
C994 H999 0.930 . S
O995 Cu989 1.974 . S
O995 C1005 1.282 . S
C996 O997 1.261 . S
C996 O1009 1.251 . S
O997 C996 1.261 . S
H998 C992 0.930 . S
H999 C994 0.930 . S
N1000 Cu989 1.985 . S
N1000 C1002 1.335 . S
N1000 C1003 1.390 . S
N1001 C1002 1.345 . S
N1001 C1004 1.336 . S
C1002 N1000 1.335 . S
C1002 N1001 1.345 . S
C1002 H1007 0.930 . S
C1003 N1000 1.390 . S
C1003 C1004 1.346 . S
C1003 H1008 0.930 . S
C1004 N1001 1.336 . S
C1004 C1003 1.346 . S
C1004 H1011 0.929 . S
C1005 O995 1.282 . S
C1005 O1006 1.216 . S
O1006 C1005 1.216 . S
H1007 C1002 0.930 . S
H1008 C1003 0.930 . S
O1009 Cu989 1.959 . S
O1009 C996 1.251 . S
H1010 C993 0.930 . S
H1011 C1004 0.929 . S
Cu1012 N1013 1.999 . S
Cu1012 O1018 1.974 . S
Cu1012 N1023 1.985 . S
Cu1012 O1032 1.959 . S
N1013 Cu1012 1.999 . S
N1013 C1015 1.263 . S
N1013 C1017 1.389 . S
N1014 C1015 1.358 . S
N1014 C1016 1.400 . S
C1015 N1013 1.263 . S
C1015 N1014 1.358 . S
C1015 H1021 0.930 . S
C1016 N1014 1.400 . S
C1016 C1017 1.351 . S
C1016 H1033 0.930 . S
C1017 N1013 1.389 . S
C1017 C1016 1.351 . S
C1017 H1022 0.930 . S
O1018 Cu1012 1.974 . S
O1018 C1028 1.282 . S
C1019 O1020 1.261 . S
C1019 O1032 1.251 . S
O1020 C1019 1.261 . S
H1021 C1015 0.930 . S
H1022 C1017 0.930 . S
N1023 Cu1012 1.985 . S
N1023 C1025 1.335 . S
N1023 C1026 1.390 . S
N1024 C1025 1.345 . S
N1024 C1027 1.336 . S
C1025 N1023 1.335 . S
C1025 N1024 1.345 . S
C1025 H1030 0.930 . S
C1026 N1023 1.390 . S
C1026 C1027 1.346 . S
C1026 H1031 0.930 . S
C1027 N1024 1.336 . S
C1027 C1026 1.346 . S
C1027 H1034 0.929 . S
C1028 O1018 1.282 . S
C1028 O1029 1.216 . S
O1029 C1028 1.216 . S
H1030 C1025 0.930 . S
H1031 C1026 0.930 . S
O1032 Cu1012 1.959 . S
O1032 C1019 1.251 . S
H1033 C1016 0.930 . S
H1034 C1027 0.929 . S
Cu1035 N1036 1.999 . S
Cu1035 O1041 1.974 . S
Cu1035 N1046 1.985 . S
Cu1035 O1055 1.959 . S
N1036 Cu1035 1.999 . S
N1036 C1038 1.263 . S
N1036 C1040 1.389 . S
N1037 C1038 1.358 . S
N1037 C1039 1.400 . S
C1038 N1036 1.263 . S
C1038 N1037 1.358 . S
C1038 H1044 0.930 . S
C1039 N1037 1.400 . S
C1039 C1040 1.351 . S
C1039 H1056 0.930 . S
C1040 N1036 1.389 . S
C1040 C1039 1.351 . S
C1040 H1045 0.930 . S
O1041 Cu1035 1.974 . S
O1041 C1051 1.282 . S
C1042 O1043 1.261 . S
C1042 O1055 1.251 . S
O1043 C1042 1.261 . S
H1044 C1038 0.930 . S
H1045 C1040 0.930 . S
N1046 Cu1035 1.985 . S
N1046 C1048 1.335 . S
N1046 C1049 1.390 . S
N1047 C1048 1.345 . S
N1047 C1050 1.336 . S
C1048 N1046 1.335 . S
C1048 N1047 1.345 . S
C1048 H1053 0.930 . S
C1049 N1046 1.390 . S
C1049 C1050 1.346 . S
C1049 H1054 0.930 . S
C1050 N1047 1.336 . S
C1050 C1049 1.346 . S
C1050 H1057 0.929 . S
C1051 O1041 1.282 . S
C1051 O1052 1.216 . S
O1052 C1051 1.216 . S
H1053 C1048 0.930 . S
H1054 C1049 0.930 . S
O1055 Cu1035 1.959 . S
O1055 C1042 1.251 . S
H1056 C1039 0.930 . S
H1057 C1050 0.929 . S
Cu1058 N1059 1.999 1_556 S
Cu1058 O1064 1.974 . S
Cu1058 N1069 1.985 . S
Cu1058 O1078 1.959 . S
N1059 Cu1058 1.999 1_554 S
N1059 C1061 1.263 . S
N1059 C1063 1.389 . S
N1060 C1061 1.358 . S
N1060 C1062 1.400 . S
C1061 N1059 1.263 . S
C1061 N1060 1.358 . S
C1061 H1067 0.930 1_545 S
C1062 N1060 1.400 . S
C1062 C1063 1.351 . S
C1062 H1079 0.930 . S
C1063 N1059 1.389 . S
C1063 C1062 1.351 . S
C1063 H1068 0.930 . S
O1064 Cu1058 1.974 . S
O1064 C1074 1.282 1_545 S
C1065 O1066 1.279 1_556 S
C1065 O1078 1.261 . S
O1066 C1065 1.279 1_554 S
H1067 C1061 0.930 1_565 S
H1068 C1063 0.930 . S
N1069 Cu1058 1.985 . S
N1069 C1071 1.335 . S
N1069 C1072 1.387 1_545 S
N1070 C1071 1.345 . S
N1070 C1073 1.336 . S
C1071 N1069 1.335 . S
C1071 N1070 1.345 . S
C1071 H1076 0.930 . S
C1072 N1069 1.387 1_565 S
C1072 C1073 1.346 1_565 S
C1072 H1077 0.933 . S
C1073 N1070 1.336 . S
C1073 C1072 1.346 1_545 S
C1073 H1080 0.929 1_545 S
C1074 O1064 1.282 1_565 S
C1074 O1075 1.216 . S
O1075 C1074 1.216 . S
H1076 C1071 0.930 . S
H1077 C1072 0.933 . S
O1078 Cu1058 1.959 . S
O1078 C1065 1.261 . S
H1079 C1062 0.930 . S
H1080 C1073 0.929 1_565 S
Cu1081 N1082 1.999 . S
Cu1081 O1087 1.974 . S
Cu1081 N1092 1.985 . S
Cu1081 O1101 1.959 . S
N1082 Cu1081 1.999 . S
N1082 C1084 1.263 . S
N1082 C1086 1.389 . S
N1083 C1084 1.358 . S
N1083 C1085 1.400 . S
C1084 N1082 1.263 . S
C1084 N1083 1.358 . S
C1084 H1090 0.930 1_565 S
C1085 N1083 1.400 . S
C1085 C1086 1.351 . S
C1085 H1102 0.930 . S
C1086 N1082 1.389 . S
C1086 C1085 1.351 . S
C1086 H1091 0.930 . S
O1087 Cu1081 1.974 . S
O1087 C1097 1.282 1_565 S
C1088 O1089 1.299 . S
C1088 O1101 1.251 . S
O1089 C1088 1.299 . S
H1090 C1084 0.930 1_545 S
H1091 C1086 0.930 . S
N1092 Cu1081 1.985 . S
N1092 C1094 1.335 . S
N1092 C1095 1.389 . S
N1093 C1094 1.345 . S
N1093 C1096 1.336 . S
C1094 N1092 1.335 . S
C1094 N1093 1.345 . S
C1094 H1099 0.930 . S
C1095 N1092 1.389 . S
C1095 C1096 1.346 . S
C1095 H1100 0.931 1_565 S
C1096 N1093 1.336 . S
C1096 C1095 1.346 . S
C1096 H1103 0.929 1_565 S
C1097 O1087 1.282 1_545 S
C1097 O1098 1.216 . S
O1098 C1097 1.216 . S
H1099 C1094 0.930 . S
H1100 C1095 0.931 1_545 S
O1101 Cu1081 1.959 . S
O1101 C1088 1.251 . S
H1102 C1085 0.930 . S
H1103 C1096 0.929 1_545 S
C1104 C1105 1.369 . S
C1104 C1106 1.419 . S
C1104 H1108 0.930 . S
C1105 C1104 1.369 . S
C1105 C1114 1.429 . S
C1106 C1104 1.419 . S
C1106 C1107 1.363 . S
C1106 H1109 0.929 . S
C1107 C1106 1.363 . S
C1107 C1113 1.428 . S
H1108 C1104 0.930 . S
H1109 C1106 0.929 . S
S1110 N1111 1.613 . S
S1110 N1112 1.610 . S
N1111 S1110 1.613 . S
N1111 C1114 1.350 . S
N1112 S1110 1.610 . S
N1112 C1113 1.351 . S
C1113 C1107 1.428 . S
C1113 N1112 1.351 . S
C1113 C1114 1.434 . S
C1114 C1105 1.429 . S
C1114 N1111 1.350 . S
C1114 C1113 1.434 . S
C1115 C1116 1.369 1_545 S
C1115 C1117 1.419 . S
C1115 H1119 0.930 . S
C1116 C1115 1.369 1_565 S
C1116 C1125 1.429 . S
C1117 C1115 1.419 . S
C1117 C1118 1.363 . S
C1117 H1120 0.929 . S
C1118 C1117 1.363 . S
C1118 C1124 1.428 1_545 S
H1119 C1115 0.930 . S
H1120 C1117 0.929 . S
S1121 N1122 1.613 . S
S1121 N1123 1.610 . S
N1122 S1121 1.613 . S
N1122 C1125 1.350 . S
N1123 S1121 1.610 . S
N1123 C1124 1.351 . S
C1124 C1118 1.428 1_565 S
C1124 N1123 1.351 . S
C1124 C1125 1.434 . S
C1125 C1116 1.429 . S
C1125 N1122 1.350 . S
C1125 C1124 1.434 . S
C1126 C1127 1.369 . S
C1126 C1128 1.419 1_556 S
C1126 H1130 0.930 . S
C1127 C1126 1.369 . S
C1127 C1136 1.429 . S
C1128 C1126 1.419 1_554 S
C1128 C1129 1.363 . S
C1128 H1131 0.929 . S
C1129 C1128 1.363 . S
C1129 C1135 1.428 . S
H1130 C1126 0.930 . S
H1131 C1128 0.929 . S
S1132 N1133 1.582 1_554 S
S1132 N1134 1.641 . S
N1133 S1132 1.582 1_556 S
N1133 C1136 1.350 . S
N1134 S1132 1.641 . S
N1134 C1135 1.351 . S
C1135 C1129 1.428 . S
C1135 N1134 1.351 . S
C1135 C1136 1.434 1_554 S
C1136 C1127 1.429 . S
C1136 N1133 1.350 . S
C1136 C1135 1.434 1_556 S
C1137 C1138 1.369 1_545 S
C1137 C1139 1.419 . S
C1137 H1141 0.930 . S
C1138 C1137 1.369 1_565 S
C1138 C1147 1.429 . S
C1139 C1137 1.419 . S
C1139 C1140 1.363 . S
C1139 H1142 0.929 . S
C1140 C1139 1.363 . S
C1140 C1146 1.428 1_545 S
H1141 C1137 0.930 . S
H1142 C1139 0.929 . S
S1143 N1144 1.613 . S
S1143 N1145 1.610 . S
N1144 S1143 1.613 . S
N1144 C1147 1.350 . S
N1145 S1143 1.610 . S
N1145 C1146 1.351 . S
C1146 C1140 1.428 1_565 S
C1146 N1145 1.351 . S
C1146 C1147 1.434 . S
C1147 C1138 1.429 . S
C1147 N1144 1.350 . S
C1147 C1146 1.434 . S
C1148 C1149 1.369 . S
C1148 C1150 1.419 . S
C1148 H1152 0.930 . S
C1149 C1148 1.369 . S
C1149 C1158 1.429 . S
C1150 C1148 1.419 . S
C1150 C1151 1.363 . S
C1150 H1153 0.929 . S
C1151 C1150 1.363 . S
C1151 C1157 1.428 . S
H1152 C1148 0.930 . S
H1153 C1150 0.929 . S
S1154 N1155 1.613 . S
S1154 N1156 1.610 . S
N1155 S1154 1.613 . S
N1155 C1158 1.350 . S
N1156 S1154 1.610 . S
N1156 C1157 1.351 . S
C1157 C1151 1.428 . S
C1157 N1156 1.351 . S
C1157 C1158 1.434 . S
C1158 C1149 1.429 . S
C1158 N1155 1.350 . S
C1158 C1157 1.434 . S
C1159 C1160 1.369 1_455 S
C1159 C1161 1.419 . S
C1159 H1163 0.930 . S
C1160 C1159 1.369 1_655 S
C1160 C1169 1.429 . S
C1161 C1159 1.419 . S
C1161 C1162 1.363 . S
C1161 H1164 0.929 . S
C1162 C1161 1.363 . S
C1162 C1168 1.428 1_455 S
H1163 C1159 0.930 . S
H1164 C1161 0.929 . S
S1165 N1166 1.613 . S
S1165 N1167 1.610 . S
N1166 S1165 1.613 . S
N1166 C1169 1.350 . S
N1167 S1165 1.610 . S
N1167 C1168 1.351 . S
C1168 C1162 1.428 1_655 S
C1168 N1167 1.351 . S
C1168 C1169 1.434 . S
C1169 C1160 1.429 . S
C1169 N1166 1.350 . S
C1169 C1168 1.434 . S
C1170 C1171 1.369 . S
C1170 C1172 1.419 1_455 S
C1170 H1174 0.930 . S
C1171 C1170 1.369 . S
C1171 C1180 1.429 . S
C1172 C1170 1.419 1_655 S
C1172 C1173 1.363 . S
C1172 H1175 0.929 . S
C1173 C1172 1.363 . S
C1173 C1179 1.428 . S
H1174 C1170 0.930 . S
H1175 C1172 0.929 . S
S1176 N1177 1.614 1_655 S
S1176 N1178 1.610 . S
N1177 S1176 1.614 1_455 S
N1177 C1180 1.350 . S
N1178 S1176 1.610 . S
N1178 C1179 1.351 . S
C1179 C1173 1.428 . S
C1179 N1178 1.351 . S
C1179 C1180 1.434 1_655 S
C1180 C1171 1.429 . S
C1180 N1177 1.350 . S
C1180 C1179 1.434 1_455 S
C1181 C1182 1.369 . S
C1181 C1183 1.419 . S
C1181 H1185 0.930 . S
C1182 C1181 1.369 . S
C1182 C1191 1.429 . S
C1183 C1181 1.419 . S
C1183 C1184 1.363 . S
C1183 H1186 0.929 . S
C1184 C1183 1.363 . S
C1184 C1190 1.428 . S
H1185 C1181 0.930 . S
H1186 C1183 0.929 . S
S1187 N1188 1.613 . S
S1187 N1189 1.610 . S
N1188 S1187 1.613 . S
N1188 C1191 1.350 . S
N1189 S1187 1.610 . S
N1189 C1190 1.351 . S
C1190 C1184 1.428 . S
C1190 N1189 1.351 . S
C1190 C1191 1.434 . S
C1191 C1182 1.429 . S
C1191 N1188 1.350 . S
C1191 C1190 1.434 . S
C1192 C1193 1.369 . S
C1192 C1194 1.419 . S
C1192 H1196 0.930 . S
C1193 C1192 1.369 . S
C1193 C1202 1.429 . S
C1194 C1192 1.419 . S
C1194 C1195 1.363 . S
C1194 H1197 0.929 . S
C1195 C1194 1.363 . S
C1195 C1201 1.428 . S
H1196 C1192 0.930 . S
H1197 C1194 0.929 . S
S1198 N1199 1.613 . S
S1198 N1200 1.610 . S
N1199 S1198 1.613 . S
N1199 C1202 1.350 . S
N1200 S1198 1.610 . S
N1200 C1201 1.351 . S
C1201 C1195 1.428 . S
C1201 N1200 1.351 . S
C1201 C1202 1.434 . S
C1202 C1193 1.429 . S
C1202 N1199 1.350 . S
C1202 C1201 1.434 . S
C1203 C1204 1.369 . S
C1203 C1205 1.419 . S
C1203 H1207 0.930 . S
C1204 C1203 1.369 . S
C1204 C1213 1.429 . S
C1205 C1203 1.419 . S
C1205 C1206 1.363 . S
C1205 H1208 0.929 . S
C1206 C1205 1.363 . S
C1206 C1212 1.428 . S
H1207 C1203 0.930 . S
H1208 C1205 0.929 . S
S1209 N1210 1.613 . S
S1209 N1211 1.610 . S
N1210 S1209 1.613 . S
N1210 C1213 1.350 . S
N1211 S1209 1.610 . S
N1211 C1212 1.351 . S
C1212 C1206 1.428 . S
C1212 N1211 1.351 . S
C1212 C1213 1.434 . S
C1213 C1204 1.429 . S
C1213 N1210 1.350 . S
C1213 C1212 1.434 . S
C1214 C1215 1.369 . S
C1214 C1216 1.419 1_655 S
C1214 H1218 0.930 . S
C1215 C1214 1.369 . S
C1215 C1224 1.429 . S
C1216 C1214 1.419 1_455 S
C1216 C1217 1.363 . S
C1216 H1219 0.929 . S
C1217 C1216 1.363 . S
C1217 C1223 1.428 . S
H1218 C1214 0.930 . S
H1219 C1216 0.929 . S
S1220 N1221 1.619 . S
S1220 N1222 1.604 1_655 S
N1221 S1220 1.619 . S
N1221 C1224 1.350 . S
N1222 S1220 1.604 1_455 S
N1222 C1223 1.351 . S
C1223 C1217 1.428 . S
C1223 N1222 1.351 . S
C1223 C1224 1.434 1_455 S
C1224 C1215 1.429 . S
C1224 N1221 1.350 . S
C1224 C1223 1.434 1_655 S
C1225 C1226 1.369 . S
C1225 C1227 1.419 . S
C1225 H1229 0.930 . S
C1226 C1225 1.369 . S
C1226 C1235 1.429 1_655 S
C1227 C1225 1.419 . S
C1227 C1228 1.363 1_655 S
C1227 H1230 0.929 . S
C1228 C1227 1.363 1_455 S
C1228 C1234 1.428 . S
H1229 C1225 0.930 . S
H1230 C1227 0.929 . S
S1231 N1232 1.613 . S
S1231 N1233 1.610 . S
N1232 S1231 1.613 . S
N1232 C1235 1.350 . S
N1233 S1231 1.610 . S
N1233 C1234 1.351 . S
C1234 C1228 1.428 . S
C1234 N1233 1.351 . S
C1234 C1235 1.434 . S
C1235 C1226 1.429 1_455 S
C1235 N1232 1.350 . S
C1235 C1234 1.434 . S
C1236 C1237 1.369 . S
C1236 C1238 1.419 . S
C1236 H1240 0.930 . S
C1237 C1236 1.369 . S
C1237 C1246 1.429 . S
C1238 C1236 1.419 . S
C1238 C1239 1.363 . S
C1238 H1241 0.929 . S
C1239 C1238 1.363 . S
C1239 C1245 1.428 . S
H1240 C1236 0.930 . S
H1241 C1238 0.929 . S
S1242 N1243 1.613 . S
S1242 N1244 1.610 . S
N1243 S1242 1.613 . S
N1243 C1246 1.350 . S
N1244 S1242 1.610 . S
N1244 C1245 1.351 . S
C1245 C1239 1.428 . S
C1245 N1244 1.351 . S
C1245 C1246 1.434 . S
C1246 C1237 1.429 . S
C1246 N1243 1.350 . S
C1246 C1245 1.434 . S
C1247 C1248 1.369 . S
C1247 C1249 1.419 1_545 S
C1247 H1251 0.930 . S
C1248 C1247 1.369 . S
C1248 C1257 1.429 . S
C1249 C1247 1.419 1_565 S
C1249 C1250 1.363 . S
C1249 H1252 0.929 . S
C1250 C1249 1.363 . S
C1250 C1256 1.428 . S
H1251 C1247 0.930 . S
H1252 C1249 0.929 . S
S1253 N1254 1.617 1_565 S
S1253 N1255 1.606 . S
N1254 S1253 1.617 1_545 S
N1254 C1257 1.350 . S
N1255 S1253 1.606 . S
N1255 C1256 1.351 . S
C1256 C1250 1.428 . S
C1256 N1255 1.351 . S
C1256 C1257 1.434 1_565 S
C1257 C1248 1.429 . S
C1257 N1254 1.350 . S
C1257 C1256 1.434 1_545 S
C1258 C1259 1.366 . S
C1258 C1260 1.419 . S
C1258 H1262 0.930 . S
C1259 C1258 1.366 . S
C1259 C1268 1.432 1_556 S
C1260 C1258 1.419 . S
C1260 C1261 1.355 1_556 S
C1260 H1263 0.929 . S
C1261 C1260 1.355 1_554 S
C1261 C1267 1.436 . S
H1262 C1258 0.930 . S
H1263 C1260 0.929 . S
S1264 N1265 1.613 . S
S1264 N1266 1.610 . S
N1265 S1264 1.613 . S
N1265 C1268 1.350 . S
N1266 S1264 1.610 . S
N1266 C1267 1.351 . S
C1267 C1261 1.436 . S
C1267 N1266 1.351 . S
C1267 C1268 1.434 . S
C1268 C1259 1.432 1_554 S
C1268 N1265 1.350 . S
C1268 C1267 1.434 . S
C1269 C1270 1.369 . S
C1269 C1271 1.419 1_545 S
C1269 H1273 0.930 . S
C1270 C1269 1.369 . S
C1270 C1279 1.429 . S
C1271 C1269 1.419 1_565 S
C1271 C1272 1.363 . S
C1271 H1274 0.929 . S
C1272 C1271 1.363 . S
C1272 C1278 1.428 . S
H1273 C1269 0.930 . S
H1274 C1271 0.929 . S
S1275 N1276 1.613 . S
S1275 N1277 1.610 1_545 S
N1276 S1275 1.613 . S
N1276 C1279 1.350 . S
N1277 S1275 1.610 1_565 S
N1277 C1278 1.351 . S
C1278 C1272 1.428 . S
C1278 N1277 1.351 . S
C1278 C1279 1.434 1_565 S
C1279 C1270 1.429 . S
C1279 N1276 1.350 . S
C1279 C1278 1.434 1_545 S
C1280 C1281 1.358 1_556 S
C1280 C1282 1.419 . S
C1280 H1284 0.930 . S
C1281 C1280 1.358 1_554 S
C1281 C1290 1.440 . S
C1282 C1280 1.419 . S
C1282 C1283 1.367 1_556 S
C1282 H1285 0.929 . S
C1283 C1282 1.367 1_554 S
C1283 C1289 1.424 . S
H1284 C1280 0.930 . S
H1285 C1282 0.929 . S
S1286 N1287 1.613 . S
S1286 N1288 1.610 . S
N1287 S1286 1.613 . S
N1287 C1290 1.350 . S
N1288 S1286 1.610 . S
N1288 C1289 1.351 . S
C1289 C1283 1.424 . S
C1289 N1288 1.351 . S
C1289 C1290 1.434 . S
C1290 C1281 1.440 . S
C1290 N1287 1.350 . S
C1290 C1289 1.434 . S
C1291 C1292 1.369 . S
C1291 C1293 1.419 . S
C1291 H1295 0.930 . S
C1292 C1291 1.369 . S
C1292 C1301 1.429 . S
C1293 C1291 1.419 . S
C1293 C1294 1.363 . S
C1293 H1296 0.929 . S
C1294 C1293 1.363 . S
C1294 C1300 1.428 . S
H1295 C1291 0.930 . S
H1296 C1293 0.929 . S
S1297 N1298 1.613 . S
S1297 N1299 1.610 . S
N1298 S1297 1.613 . S
N1298 C1301 1.350 . S
N1299 S1297 1.610 . S
N1299 C1300 1.351 . S
C1300 C1294 1.428 . S
C1300 N1299 1.351 . S
C1300 C1301 1.434 . S
C1301 C1292 1.429 . S
C1301 N1298 1.350 . S
C1301 C1300 1.434 . S
C1302 C1303 1.369 . S
C1302 C1304 1.419 . S
C1302 H1306 0.930 . S
C1303 C1302 1.369 . S
C1303 C1312 1.429 . S
C1304 C1302 1.419 . S
C1304 C1305 1.363 . S
C1304 H1307 0.929 . S
C1305 C1304 1.363 . S
C1305 C1311 1.428 . S
H1306 C1302 0.930 . S
H1307 C1304 0.929 . S
S1308 N1309 1.613 . S
S1308 N1310 1.610 . S
N1309 S1308 1.613 . S
N1309 C1312 1.350 . S
N1310 S1308 1.610 . S
N1310 C1311 1.351 . S
C1311 C1305 1.428 . S
C1311 N1310 1.351 . S
C1311 C1312 1.434 . S
C1312 C1303 1.429 . S
C1312 N1309 1.350 . S
C1312 C1311 1.434 . S
C1313 C1314 1.369 . S
C1313 C1315 1.419 1_554 S
C1313 H1317 0.930 . S
C1314 C1313 1.369 . S
C1314 C1323 1.429 . S
C1315 C1313 1.419 1_556 S
C1315 C1316 1.363 . S
C1315 H1318 0.929 . S
C1316 C1315 1.363 . S
C1316 C1322 1.428 . S
H1317 C1313 0.930 . S
H1318 C1315 0.929 . S
S1319 N1320 1.613 1_556 S
S1319 N1321 1.610 . S
N1320 S1319 1.613 1_554 S
N1320 C1323 1.350 . S
N1321 S1319 1.610 . S
N1321 C1322 1.351 . S
C1322 C1316 1.428 . S
C1322 N1321 1.351 . S
C1322 C1323 1.434 1_556 S
C1323 C1314 1.429 . S
C1323 N1320 1.350 . S
C1323 C1322 1.434 1_554 S
C1324 C1325 1.369 . S
C1324 C1326 1.419 . S
C1324 H1328 0.930 . S
C1325 C1324 1.369 . S
C1325 C1334 1.429 . S
C1326 C1324 1.419 . S
C1326 C1327 1.363 . S
C1326 H1329 0.929 . S
C1327 C1326 1.363 . S
C1327 C1333 1.428 . S
H1328 C1324 0.930 . S
H1329 C1326 0.929 . S
S1330 N1331 1.613 . S
S1330 N1332 1.610 . S
N1331 S1330 1.613 . S
N1331 C1334 1.350 . S
N1332 S1330 1.610 . S
N1332 C1333 1.351 . S
C1333 C1327 1.428 . S
C1333 N1332 1.351 . S
C1333 C1334 1.434 . S
C1334 C1325 1.429 . S
C1334 N1331 1.350 . S
C1334 C1333 1.434 . S
C1335 C1336 1.369 . S
C1335 C1337 1.419 . S
C1335 H1339 0.930 . S
C1336 C1335 1.369 . S
C1336 C1345 1.429 . S
C1337 C1335 1.419 . S
C1337 C1338 1.363 . S
C1337 H1340 0.929 . S
C1338 C1337 1.363 . S
C1338 C1344 1.428 . S
H1339 C1335 0.930 . S
H1340 C1337 0.929 . S
S1341 N1342 1.613 . S
S1341 N1343 1.610 . S
N1342 S1341 1.613 . S
N1342 C1345 1.350 . S
N1343 S1341 1.610 . S
N1343 C1344 1.351 . S
C1344 C1338 1.428 . S
C1344 N1343 1.351 . S
C1344 C1345 1.434 . S
C1345 C1336 1.429 . S
C1345 N1342 1.350 . S
C1345 C1344 1.434 . S
C1346 C1347 1.369 . S
C1346 C1348 1.419 . S
C1346 H1350 0.930 . S
C1347 C1346 1.369 . S
C1347 C1356 1.429 . S
C1348 C1346 1.419 . S
C1348 C1349 1.363 . S
C1348 H1351 0.929 . S
C1349 C1348 1.363 . S
C1349 C1355 1.428 . S
H1350 C1346 0.930 . S
H1351 C1348 0.929 . S
S1352 N1353 1.590 1_455 S
S1352 N1354 1.587 1_455 S
N1353 S1352 1.590 1_655 S
N1353 C1356 1.350 . S
N1354 S1352 1.587 1_655 S
N1354 C1355 1.351 . S
C1355 C1349 1.428 . S
C1355 N1354 1.351 . S
C1355 C1356 1.434 . S
C1356 C1347 1.429 . S
C1356 N1353 1.350 . S
C1356 C1355 1.434 . S
C1357 C1358 1.369 . S
C1357 C1359 1.419 . S
C1357 H1361 0.930 . S
C1358 C1357 1.369 . S
C1358 C1367 1.429 . S
C1359 C1357 1.419 . S
C1359 C1360 1.363 . S
C1359 H1362 0.929 . S
C1360 C1359 1.363 . S
C1360 C1366 1.428 . S
H1361 C1357 0.930 . S
H1362 C1359 0.929 . S
S1363 N1364 1.613 . S
S1363 N1365 1.610 . S
N1364 S1363 1.613 . S
N1364 C1367 1.350 . S
N1365 S1363 1.610 . S
N1365 C1366 1.351 . S
C1366 C1360 1.428 . S
C1366 N1365 1.351 . S
C1366 C1367 1.434 . S
C1367 C1358 1.429 . S
C1367 N1364 1.350 . S
C1367 C1366 1.434 . S
C1368 C1369 1.369 . S
C1368 C1370 1.419 . S
C1368 H1372 0.930 . S
C1369 C1368 1.369 . S
C1369 C1378 1.429 . S
C1370 C1368 1.419 . S
C1370 C1371 1.363 . S
C1370 H1373 0.929 . S
C1371 C1370 1.363 . S
C1371 C1377 1.428 . S
H1372 C1368 0.930 . S
H1373 C1370 0.929 . S
S1374 N1375 1.613 . S
S1374 N1376 1.610 . S
N1375 S1374 1.613 . S
N1375 C1378 1.350 . S
N1376 S1374 1.610 . S
N1376 C1377 1.351 . S
C1377 C1371 1.428 . S
C1377 N1376 1.351 . S
C1377 C1378 1.434 . S
C1378 C1369 1.429 . S
C1378 N1375 1.350 . S
C1378 C1377 1.434 . S
C1379 C1380 1.369 . S
C1379 C1381 1.419 . S
C1379 H1383 0.930 . S
C1380 C1379 1.369 . S
C1380 C1389 1.429 . S
C1381 C1379 1.419 . S
C1381 C1382 1.363 . S
C1381 H1384 0.929 . S
C1382 C1381 1.363 . S
C1382 C1388 1.428 . S
H1383 C1379 0.930 . S
H1384 C1381 0.929 . S
S1385 N1386 1.613 1_545 S
S1385 N1387 1.610 1_455 S
N1386 S1385 1.613 1_565 S
N1386 C1389 1.350 1_455 S
N1387 S1385 1.610 1_655 S
N1387 C1388 1.351 1_545 S
C1388 C1382 1.428 . S
C1388 N1387 1.351 1_565 S
C1388 C1389 1.434 . S
C1389 C1380 1.429 . S
C1389 N1386 1.350 1_655 S
C1389 C1388 1.434 . S
C1390 C1391 1.369 . S
C1390 C1392 1.419 . S
C1390 H1394 0.930 . S
C1391 C1390 1.369 . S
C1391 C1400 1.429 . S
C1392 C1390 1.419 . S
C1392 C1393 1.363 . S
C1392 H1395 0.929 . S
C1393 C1392 1.363 . S
C1393 C1399 1.428 . S
H1394 C1390 0.930 . S
H1395 C1392 0.929 . S
S1396 N1397 1.613 . S
S1396 N1398 1.610 . S
N1397 S1396 1.613 . S
N1397 C1400 1.350 . S
N1398 S1396 1.610 . S
N1398 C1399 1.351 . S
C1399 C1393 1.428 . S
C1399 N1398 1.351 . S
C1399 C1400 1.434 . S
C1400 C1391 1.429 . S
C1400 N1397 1.350 . S
C1400 C1399 1.434 . S
C1401 C1402 1.369 1_565 S
C1401 C1403 1.419 1_565 S
C1401 H1405 0.930 . S
C1402 C1401 1.369 1_545 S
C1402 C1411 1.429 . S
C1403 C1401 1.419 1_545 S
C1403 C1404 1.363 . S
C1403 H1406 0.929 1_545 S
C1404 C1403 1.363 . S
C1404 C1410 1.428 . S
H1405 C1401 0.930 . S
H1406 C1403 0.929 1_565 S
S1407 N1408 1.613 . S
S1407 N1409 1.610 . S
N1408 S1407 1.613 . S
N1408 C1411 1.350 . S
N1409 S1407 1.610 . S
N1409 C1410 1.351 . S
C1410 C1404 1.428 . S
C1410 N1409 1.351 . S
C1410 C1411 1.434 . S
C1411 C1402 1.429 . S
C1411 N1408 1.350 . S
C1411 C1410 1.434 . S
C1412 C1413 1.369 . S
C1412 C1414 1.419 . S
C1412 H1416 0.930 . S
C1413 C1412 1.369 . S
C1413 C1422 1.429 . S
C1414 C1412 1.419 . S
C1414 C1415 1.363 . S
C1414 H1417 0.929 . S
C1415 C1414 1.363 . S
C1415 C1421 1.428 . S
H1416 C1412 0.930 . S
H1417 C1414 0.929 . S
S1418 N1419 1.613 . S
S1418 N1420 1.610 . S
N1419 S1418 1.613 . S
N1419 C1422 1.350 . S
N1420 S1418 1.610 . S
N1420 C1421 1.351 . S
C1421 C1415 1.428 . S
C1421 N1420 1.351 . S
C1421 C1422 1.434 . S
C1422 C1413 1.429 . S
C1422 N1419 1.350 . S
C1422 C1421 1.434 . S
C1423 C1424 1.369 1_545 S
C1423 C1425 1.419 1_545 S
C1423 H1427 0.930 . S
C1424 C1423 1.369 1_565 S
C1424 C1433 1.429 . S
C1425 C1423 1.419 1_565 S
C1425 C1426 1.363 . S
C1425 H1428 0.929 1_565 S
C1426 C1425 1.363 . S
C1426 C1432 1.428 . S
H1427 C1423 0.930 . S
H1428 C1425 0.929 1_545 S
S1429 N1430 1.613 . S
S1429 N1431 1.610 . S
N1430 S1429 1.613 . S
N1430 C1433 1.350 . S
N1431 S1429 1.610 . S
N1431 C1432 1.351 . S
C1432 C1426 1.428 . S
C1432 N1431 1.351 . S
C1432 C1433 1.434 . S
C1433 C1424 1.429 . S
C1433 N1430 1.350 . S
C1433 C1432 1.434 . S
C1434 C1435 1.369 . S
C1434 C1436 1.419 . S
C1434 H1438 0.930 . S
C1435 C1434 1.369 . S
C1435 C1444 1.429 . S
C1436 C1434 1.419 . S
C1436 C1437 1.363 . S
C1436 H1439 0.929 . S
C1437 C1436 1.363 . S
C1437 C1443 1.428 . S
H1438 C1434 0.930 . S
H1439 C1436 0.929 . S
S1440 N1441 1.613 . S
S1440 N1442 1.610 . S
N1441 S1440 1.613 . S
N1441 C1444 1.350 . S
N1442 S1440 1.610 . S
N1442 C1443 1.351 . S
C1443 C1437 1.428 . S
C1443 N1442 1.351 . S
C1443 C1444 1.434 . S
C1444 C1435 1.429 . S
C1444 N1441 1.350 . S
C1444 C1443 1.434 . S
C1445 C1446 1.369 . S
C1445 C1447 1.419 . S
C1445 H1449 0.930 . S
C1446 C1445 1.369 . S
C1446 C1455 1.429 . S
C1447 C1445 1.419 . S
C1447 C1448 1.363 . S
C1447 H1450 0.929 . S
C1448 C1447 1.363 . S
C1448 C1454 1.428 . S
H1449 C1445 0.930 . S
H1450 C1447 0.929 . S
S1451 N1452 1.613 . S
S1451 N1453 1.610 1_655 S
N1452 S1451 1.613 . S
N1452 C1455 1.350 . S
N1453 S1451 1.610 1_455 S
N1453 C1454 1.351 1_455 S
C1454 C1448 1.428 . S
C1454 N1453 1.351 1_655 S
C1454 C1455 1.434 . S
C1455 C1446 1.429 . S
C1455 N1452 1.350 . S
C1455 C1454 1.434 . S
C1456 C1457 1.369 . S
C1456 C1458 1.419 . S
C1456 H1460 0.930 . S
C1457 C1456 1.369 . S
C1457 C1466 1.429 . S
C1458 C1456 1.419 . S
C1458 C1459 1.363 . S
C1458 H1461 0.929 . S
C1459 C1458 1.363 . S
C1459 C1465 1.428 . S
H1460 C1456 0.930 . S
H1461 C1458 0.929 . S
S1462 N1463 1.613 . S
S1462 N1464 1.610 . S
N1463 S1462 1.613 . S
N1463 C1466 1.350 . S
N1464 S1462 1.610 . S
N1464 C1465 1.351 . S
C1465 C1459 1.428 . S
C1465 N1464 1.351 . S
C1465 C1466 1.434 . S
C1466 C1457 1.429 . S
C1466 N1463 1.350 . S
C1466 C1465 1.434 . S
C1467 C1468 1.369 . S
C1467 C1469 1.419 . S
C1467 H1471 0.930 . S
C1468 C1467 1.369 . S
C1468 C1477 1.429 . S
C1469 C1467 1.419 . S
C1469 C1470 1.363 . S
C1469 H1472 0.929 . S
C1470 C1469 1.363 . S
C1470 C1476 1.428 . S
H1471 C1467 0.930 . S
H1472 C1469 0.929 . S
S1473 N1474 1.597 1_565 S
S1473 N1475 1.585 1_565 S
N1474 S1473 1.597 1_545 S
N1474 C1477 1.350 . S
N1475 S1473 1.585 1_545 S
N1475 C1476 1.351 . S
C1476 C1470 1.428 . S
C1476 N1475 1.351 . S
C1476 C1477 1.434 . S
C1477 C1468 1.429 . S
C1477 N1474 1.350 . S
C1477 C1476 1.434 . S
C1478 C1479 1.369 . S
C1478 C1480 1.419 . S
C1478 H1482 0.930 . S
C1479 C1478 1.369 . S
C1479 C1488 1.429 . S
C1480 C1478 1.419 . S
C1480 C1481 1.363 . S
C1480 H1483 0.929 . S
C1481 C1480 1.363 . S
C1481 C1487 1.428 . S
H1482 C1478 0.930 . S
H1483 C1480 0.929 . S
S1484 N1485 1.613 . S
S1484 N1486 1.610 . S
N1485 S1484 1.613 . S
N1485 C1488 1.350 . S
N1486 S1484 1.610 . S
N1486 C1487 1.351 . S
C1487 C1481 1.428 . S
C1487 N1486 1.351 . S
C1487 C1488 1.434 . S
C1488 C1479 1.429 . S
C1488 N1485 1.350 . S
C1488 C1487 1.434 . S
C1489 C1490 1.369 . S
C1489 C1491 1.419 . S
C1489 H1493 0.930 . S
C1490 C1489 1.369 . S
C1490 C1499 1.429 . S
C1491 C1489 1.419 . S
C1491 C1492 1.363 . S
C1491 H1494 0.929 . S
C1492 C1491 1.363 . S
C1492 C1498 1.428 . S
H1493 C1489 0.930 . S
H1494 C1491 0.929 . S
S1495 N1496 1.613 . S
S1495 N1497 1.610 . S
N1496 S1495 1.613 . S
N1496 C1499 1.350 . S
N1497 S1495 1.610 . S
N1497 C1498 1.351 . S
C1498 C1492 1.428 . S
C1498 N1497 1.351 . S
C1498 C1499 1.434 . S
C1499 C1490 1.429 . S
C1499 N1496 1.350 . S
C1499 C1498 1.434 . S
C1500 C1501 1.369 . S
C1500 C1502 1.419 . S
C1500 H1504 0.930 . S
C1501 C1500 1.369 . S
C1501 C1510 1.429 . S
C1502 C1500 1.419 . S
C1502 C1503 1.363 . S
C1502 H1505 0.929 . S
C1503 C1502 1.363 . S
C1503 C1509 1.428 . S
H1504 C1500 0.930 . S
H1505 C1502 0.929 . S
S1506 N1507 1.613 . S
S1506 N1508 1.610 . S
N1507 S1506 1.613 . S
N1507 C1510 1.350 . S
N1508 S1506 1.610 . S
N1508 C1509 1.351 . S
C1509 C1503 1.428 . S
C1509 N1508 1.351 . S
C1509 C1510 1.434 . S
C1510 C1501 1.429 . S
C1510 N1507 1.350 . S
C1510 C1509 1.434 . S
C1511 C1512 1.369 . S
C1511 C1513 1.419 . S
C1511 H1515 0.930 . S
C1512 C1511 1.369 . S
C1512 C1521 1.429 . S
C1513 C1511 1.419 . S
C1513 C1514 1.363 . S
C1513 H1516 0.929 . S
C1514 C1513 1.363 . S
C1514 C1520 1.428 . S
H1515 C1511 0.930 . S
H1516 C1513 0.929 . S
S1517 N1518 1.613 . S
S1517 N1519 1.610 . S
N1518 S1517 1.613 . S
N1518 C1521 1.350 . S
N1519 S1517 1.610 . S
N1519 C1520 1.351 . S
C1520 C1514 1.428 . S
C1520 N1519 1.351 . S
C1520 C1521 1.434 . S
C1521 C1512 1.429 . S
C1521 N1518 1.350 . S
C1521 C1520 1.434 . S
C1522 C1523 1.369 . S
C1522 C1524 1.419 . S
C1522 H1526 0.930 . S
C1523 C1522 1.369 . S
C1523 C1532 1.429 . S
C1524 C1522 1.419 . S
C1524 C1525 1.363 . S
C1524 H1527 0.929 . S
C1525 C1524 1.363 . S
C1525 C1531 1.428 . S
H1526 C1522 0.930 . S
H1527 C1524 0.929 . S
S1528 N1529 1.613 . S
S1528 N1530 1.610 . S
N1529 S1528 1.613 . S
N1529 C1532 1.350 . S
N1530 S1528 1.610 . S
N1530 C1531 1.351 . S
C1531 C1525 1.428 . S
C1531 N1530 1.351 . S
C1531 C1532 1.434 . S
C1532 C1523 1.429 . S
C1532 N1529 1.350 . S
C1532 C1531 1.434 . S
C1533 C1534 1.369 . S
C1533 C1535 1.419 . S
C1533 H1537 0.930 . S
C1534 C1533 1.369 . S
C1534 C1543 1.429 . S
C1535 C1533 1.419 . S
C1535 C1536 1.363 . S
C1535 H1538 0.929 . S
C1536 C1535 1.363 . S
C1536 C1542 1.428 . S
H1537 C1533 0.930 . S
H1538 C1535 0.929 . S
S1539 N1540 1.613 . S
S1539 N1541 1.610 . S
N1540 S1539 1.613 . S
N1540 C1543 1.350 . S
N1541 S1539 1.610 . S
N1541 C1542 1.351 . S
C1542 C1536 1.428 . S
C1542 N1541 1.351 . S
C1542 C1543 1.434 . S
C1543 C1534 1.429 . S
C1543 N1540 1.350 . S
C1543 C1542 1.434 . S
C1544 C1545 1.369 . S
C1544 C1546 1.419 . S
C1544 H1548 0.930 . S
C1545 C1544 1.369 . S
C1545 C1554 1.429 . S
C1546 C1544 1.419 . S
C1546 C1547 1.363 . S
C1546 H1549 0.929 . S
C1547 C1546 1.363 . S
C1547 C1553 1.428 . S
H1548 C1544 0.930 . S
H1549 C1546 0.929 . S
S1550 N1551 1.613 . S
S1550 N1552 1.610 . S
N1551 S1550 1.613 . S
N1551 C1554 1.350 . S
N1552 S1550 1.610 . S
N1552 C1553 1.351 . S
C1553 C1547 1.428 . S
C1553 N1552 1.351 . S
C1553 C1554 1.434 . S
C1554 C1545 1.429 . S
C1554 N1551 1.350 . S
C1554 C1553 1.434 . S
C1555 C1556 1.369 . S
C1555 C1557 1.419 . S
C1555 H1559 0.930 . S
C1556 C1555 1.369 . S
C1556 C1565 1.429 . S
C1557 C1555 1.419 . S
C1557 C1558 1.363 . S
C1557 H1560 0.929 . S
C1558 C1557 1.363 . S
C1558 C1564 1.428 . S
H1559 C1555 0.930 . S
H1560 C1557 0.929 . S
S1561 N1562 1.613 . S
S1561 N1563 1.610 . S
N1562 S1561 1.613 . S
N1562 C1565 1.350 . S
N1563 S1561 1.610 . S
N1563 C1564 1.351 . S
C1564 C1558 1.428 . S
C1564 N1563 1.351 . S
C1564 C1565 1.434 . S
C1565 C1556 1.429 . S
C1565 N1562 1.350 . S
C1565 C1564 1.434 . S
C1566 C1567 1.369 . S
C1566 C1568 1.419 . S
C1566 H1570 0.930 1_554 S
C1567 C1566 1.369 . S
C1567 C1576 1.429 . S
C1568 C1566 1.419 . S
C1568 C1569 1.363 . S
C1568 H1571 0.950 . S
C1569 C1568 1.363 . S
C1569 C1575 1.428 . S
H1570 C1566 0.930 1_556 S
H1571 C1568 0.950 . S
S1572 N1573 1.613 . S
S1572 N1574 1.610 1_655 S
N1573 S1572 1.613 . S
N1573 C1576 1.350 1_655 S
N1574 S1572 1.610 1_455 S
N1574 C1575 1.351 . S
C1575 C1569 1.428 . S
C1575 N1574 1.351 . S
C1575 C1576 1.434 . S
C1576 C1567 1.429 . S
C1576 N1573 1.350 1_455 S
C1576 C1575 1.434 . S
C1577 C1578 1.369 . S
C1577 C1579 1.419 . S
C1577 H1581 0.930 . S
C1578 C1577 1.369 . S
C1578 C1587 1.429 . S
C1579 C1577 1.419 . S
C1579 C1580 1.363 . S
C1579 H1582 0.929 . S
C1580 C1579 1.363 . S
C1580 C1586 1.428 . S
H1581 C1577 0.930 . S
H1582 C1579 0.929 . S
S1583 N1584 1.613 . S
S1583 N1585 1.610 . S
N1584 S1583 1.613 . S
N1584 C1587 1.350 . S
N1585 S1583 1.610 . S
N1585 C1586 1.351 . S
C1586 C1580 1.428 . S
C1586 N1585 1.351 . S
C1586 C1587 1.434 . S
C1587 C1578 1.429 . S
C1587 N1584 1.350 . S
C1587 C1586 1.434 . S
C1588 C1589 1.335 1_556 S
C1588 C1590 1.421 . S
C1588 H1592 0.965 . S
C1589 C1588 1.335 1_554 S
C1589 C1598 1.429 . S
C1590 C1588 1.421 . S
C1590 C1591 1.363 1_556 S
C1590 H1593 0.929 . S
C1591 C1590 1.363 1_554 S
C1591 C1597 1.428 . S
H1592 C1588 0.965 . S
H1593 C1590 0.929 . S
S1594 N1595 1.613 . S
S1594 N1596 1.610 . S
N1595 S1594 1.613 . S
N1595 C1598 1.350 . S
N1596 S1594 1.610 . S
N1596 C1597 1.351 . S
C1597 C1591 1.428 . S
C1597 N1596 1.351 . S
C1597 C1598 1.434 . S
C1598 C1589 1.429 . S
C1598 N1595 1.350 . S
C1598 C1597 1.434 . S
C1599 C1600 1.369 . S
C1599 C1601 1.419 . S
C1599 H1603 0.930 . S
C1600 C1599 1.369 . S
C1600 C1609 1.429 . S
C1601 C1599 1.419 . S
C1601 C1602 1.363 . S
C1601 H1604 0.929 . S
C1602 C1601 1.363 . S
C1602 C1608 1.428 . S
H1603 C1599 0.930 . S
H1604 C1601 0.929 . S
S1605 N1606 1.613 . S
S1605 N1607 1.610 . S
N1606 S1605 1.613 . S
N1606 C1609 1.350 . S
N1607 S1605 1.610 . S
N1607 C1608 1.351 . S
C1608 C1602 1.428 . S
C1608 N1607 1.351 . S
C1608 C1609 1.434 . S
C1609 C1600 1.429 . S
C1609 N1606 1.350 . S
C1609 C1608 1.434 . S
C1610 C1611 1.369 . S
C1610 C1612 1.419 . S
C1610 H1614 0.930 . S
C1611 C1610 1.369 . S
C1611 C1620 1.429 . S
C1612 C1610 1.419 . S
C1612 C1613 1.363 . S
C1612 H1615 0.929 . S
C1613 C1612 1.363 . S
C1613 C1619 1.428 . S
H1614 C1610 0.930 . S
H1615 C1612 0.929 . S
S1616 N1617 1.613 . S
S1616 N1618 1.610 . S
N1617 S1616 1.613 . S
N1617 C1620 1.350 . S
N1618 S1616 1.610 . S
N1618 C1619 1.351 . S
C1619 C1613 1.428 . S
C1619 N1618 1.351 . S
C1619 C1620 1.434 . S
C1620 C1611 1.429 . S
C1620 N1617 1.350 . S
C1620 C1619 1.434 . S
C1621 C1622 1.369 . S
C1621 C1623 1.419 . S
C1621 H1625 0.930 . S
C1622 C1621 1.369 . S
C1622 C1631 1.429 1_556 S
C1623 C1621 1.419 . S
C1623 C1624 1.363 . S
C1623 H1626 0.929 . S
C1624 C1623 1.363 . S
C1624 C1630 1.428 1_556 S
H1625 C1621 0.930 . S
H1626 C1623 0.929 . S
S1627 N1628 1.613 . S
S1627 N1629 1.610 . S
N1628 S1627 1.613 . S
N1628 C1631 1.350 . S
N1629 S1627 1.610 . S
N1629 C1630 1.351 . S
C1630 C1624 1.428 1_554 S
C1630 N1629 1.351 . S
C1630 C1631 1.434 . S
C1631 C1622 1.429 1_554 S
C1631 N1628 1.350 . S
C1631 C1630 1.434 . S
C1632 C1633 1.369 . S
C1632 C1634 1.419 . S
C1632 H1636 0.930 . S
C1633 C1632 1.369 . S
C1633 C1642 1.429 . S
C1634 C1632 1.419 . S
C1634 C1635 1.363 . S
C1634 H1637 0.929 . S
C1635 C1634 1.363 . S
C1635 C1641 1.428 . S
H1636 C1632 0.930 . S
H1637 C1634 0.929 . S
S1638 N1639 1.613 . S
S1638 N1640 1.610 . S
N1639 S1638 1.613 . S
N1639 C1642 1.350 . S
N1640 S1638 1.610 . S
N1640 C1641 1.351 . S
C1641 C1635 1.428 . S
C1641 N1640 1.351 . S
C1641 C1642 1.434 . S
C1642 C1633 1.429 . S
C1642 N1639 1.350 . S
C1642 C1641 1.434 . S
C1643 C1644 1.369 . S
C1643 C1645 1.419 . S
C1643 H1647 0.930 . S
C1644 C1643 1.369 . S
C1644 C1653 1.429 . S
C1645 C1643 1.419 . S
C1645 C1646 1.363 . S
C1645 H1648 0.929 . S
C1646 C1645 1.363 . S
C1646 C1652 1.428 . S
H1647 C1643 0.930 . S
H1648 C1645 0.929 . S
S1649 N1650 1.613 . S
S1649 N1651 1.610 . S
N1650 S1649 1.613 . S
N1650 C1653 1.350 . S
N1651 S1649 1.610 . S
N1651 C1652 1.351 . S
C1652 C1646 1.428 . S
C1652 N1651 1.351 . S
C1652 C1653 1.434 . S
C1653 C1644 1.429 . S
C1653 N1650 1.350 . S
C1653 C1652 1.434 . S
C1654 C1655 1.369 . S
C1654 C1656 1.419 . S
C1654 H1658 0.930 . S
C1655 C1654 1.369 . S
C1655 C1664 1.429 . S
C1656 C1654 1.419 . S
C1656 C1657 1.363 . S
C1656 H1659 0.929 . S
C1657 C1656 1.363 . S
C1657 C1663 1.428 . S
H1658 C1654 0.930 . S
H1659 C1656 0.929 . S
S1660 N1661 1.613 . S
S1660 N1662 1.610 . S
N1661 S1660 1.613 . S
N1661 C1664 1.350 . S
N1662 S1660 1.610 . S
N1662 C1663 1.351 . S
C1663 C1657 1.428 . S
C1663 N1662 1.351 . S
C1663 C1664 1.434 . S
C1664 C1655 1.429 . S
C1664 N1661 1.350 . S
C1664 C1663 1.434 . S
C1665 C1666 1.369 . S
C1665 C1667 1.419 . S
C1665 H1669 0.930 1_455 S
C1666 C1665 1.369 . S
C1666 C1675 1.429 . S
C1667 C1665 1.419 . S
C1667 C1668 1.363 . S
C1667 H1670 0.929 . S
C1668 C1667 1.363 . S
C1668 C1674 1.428 . S
H1669 C1665 0.930 1_655 S
H1670 C1667 0.929 . S
S1671 N1672 1.613 . S
S1671 N1673 1.610 . S
N1672 S1671 1.613 . S
N1672 C1675 1.350 . S
N1673 S1671 1.610 . S
N1673 C1674 1.351 . S
C1674 C1668 1.428 . S
C1674 N1673 1.351 . S
C1674 C1675 1.434 . S
C1675 C1666 1.429 . S
C1675 N1672 1.350 . S
C1675 C1674 1.434 . S
C1676 C1677 1.369 . S
C1676 C1678 1.419 . S
C1676 H1680 0.930 . S
C1677 C1676 1.369 . S
C1677 C1686 1.429 . S
C1678 C1676 1.419 . S
C1678 C1679 1.363 . S
C1678 H1681 0.929 . S
C1679 C1678 1.363 . S
C1679 C1685 1.428 . S
H1680 C1676 0.930 . S
H1681 C1678 0.929 . S
S1682 N1683 1.613 . S
S1682 N1684 1.610 . S
N1683 S1682 1.613 . S
N1683 C1686 1.350 . S
N1684 S1682 1.610 . S
N1684 C1685 1.351 . S
C1685 C1679 1.428 . S
C1685 N1684 1.351 . S
C1685 C1686 1.434 . S
C1686 C1677 1.429 . S
C1686 N1683 1.350 . S
C1686 C1685 1.434 . S
C1687 C1688 1.369 . S
C1687 C1689 1.419 . S
C1687 H1691 0.930 . S
C1688 C1687 1.369 . S
C1688 C1697 1.429 . S
C1689 C1687 1.419 . S
C1689 C1690 1.363 . S
C1689 H1692 0.929 1_455 S
C1690 C1689 1.363 . S
C1690 C1696 1.428 . S
H1691 C1687 0.930 . S
H1692 C1689 0.929 1_655 S
S1693 N1694 1.613 . S
S1693 N1695 1.610 . S
N1694 S1693 1.613 . S
N1694 C1697 1.350 . S
N1695 S1693 1.610 . S
N1695 C1696 1.351 . S
C1696 C1690 1.428 . S
C1696 N1695 1.351 . S
C1696 C1697 1.434 . S
C1697 C1688 1.429 . S
C1697 N1694 1.350 . S
C1697 C1696 1.434 . S
C1698 C1699 1.369 . S
C1698 C1700 1.419 . S
C1698 H1702 0.930 . S
C1699 C1698 1.369 . S
C1699 C1708 1.429 . S
C1700 C1698 1.419 . S
C1700 C1701 1.363 . S
C1700 H1703 0.929 . S
C1701 C1700 1.363 . S
C1701 C1707 1.428 . S
H1702 C1698 0.930 . S
H1703 C1700 0.929 . S
S1704 N1705 1.613 . S
S1704 N1706 1.610 . S
N1705 S1704 1.613 . S
N1705 C1708 1.350 . S
N1706 S1704 1.610 . S
N1706 C1707 1.351 . S
C1707 C1701 1.428 . S
C1707 N1706 1.351 . S
C1707 C1708 1.434 . S
C1708 C1699 1.429 . S
C1708 N1705 1.350 . S
C1708 C1707 1.434 . S
C1709 C1710 1.369 . S
C1709 C1711 1.419 . S
C1709 H1713 0.930 . S
C1710 C1709 1.369 . S
C1710 C1719 1.429 . S
C1711 C1709 1.419 . S
C1711 C1712 1.363 . S
C1711 H1714 0.929 . S
C1712 C1711 1.363 . S
C1712 C1718 1.428 . S
H1713 C1709 0.930 . S
H1714 C1711 0.929 . S
S1715 N1716 1.613 . S
S1715 N1717 1.610 . S
N1716 S1715 1.613 . S
N1716 C1719 1.350 . S
N1717 S1715 1.610 . S
N1717 C1718 1.351 . S
C1718 C1712 1.428 . S
C1718 N1717 1.351 . S
C1718 C1719 1.434 . S
C1719 C1710 1.429 . S
C1719 N1716 1.350 . S
C1719 C1718 1.434 . S
C1720 C1721 1.369 . S
C1720 C1722 1.419 . S
C1720 H1724 0.930 . S
C1721 C1720 1.369 . S
C1721 C1730 1.429 . S
C1722 C1720 1.419 . S
C1722 C1723 1.363 . S
C1722 H1725 0.929 . S
C1723 C1722 1.363 . S
C1723 C1729 1.428 . S
H1724 C1720 0.930 . S
H1725 C1722 0.929 . S
S1726 N1727 1.613 . S
S1726 N1728 1.610 . S
N1727 S1726 1.613 . S
N1727 C1730 1.350 . S
N1728 S1726 1.610 . S
N1728 C1729 1.351 . S
C1729 C1723 1.428 . S
C1729 N1728 1.351 . S
C1729 C1730 1.434 . S
C1730 C1721 1.429 . S
C1730 N1727 1.350 . S
C1730 C1729 1.434 . S
C1731 C1732 1.369 . S
C1731 C1733 1.419 . S
C1731 H1735 0.930 . S
C1732 C1731 1.369 . S
C1732 C1741 1.429 . S
C1733 C1731 1.419 . S
C1733 C1734 1.363 . S
C1733 H1736 0.929 . S
C1734 C1733 1.363 . S
C1734 C1740 1.428 . S
H1735 C1731 0.930 . S
H1736 C1733 0.929 . S
S1737 N1738 1.613 . S
S1737 N1739 1.610 . S
N1738 S1737 1.613 . S
N1738 C1741 1.350 . S
N1739 S1737 1.610 . S
N1739 C1740 1.351 . S
C1740 C1734 1.428 . S
C1740 N1739 1.351 . S
C1740 C1741 1.434 . S
C1741 C1732 1.429 . S
C1741 N1738 1.350 . S
C1741 C1740 1.434 . S
C1742 C1743 1.369 . S
C1742 C1744 1.419 . S
C1742 H1746 0.930 . S
C1743 C1742 1.369 . S
C1743 C1752 1.429 . S
C1744 C1742 1.419 . S
C1744 C1745 1.363 . S
C1744 H1747 0.929 . S
C1745 C1744 1.363 . S
C1745 C1751 1.428 . S
H1746 C1742 0.930 . S
H1747 C1744 0.929 . S
S1748 N1749 1.613 . S
S1748 N1750 1.610 . S
N1749 S1748 1.613 . S
N1749 C1752 1.350 . S
N1750 S1748 1.610 . S
N1750 C1751 1.351 . S
C1751 C1745 1.428 . S
C1751 N1750 1.351 . S
C1751 C1752 1.434 . S
C1752 C1743 1.429 . S
C1752 N1749 1.350 . S
C1752 C1751 1.434 . S
C1753 C1754 1.369 . S
C1753 C1755 1.419 . S
C1753 H1757 0.930 . S
C1754 C1753 1.369 . S
C1754 C1763 1.429 . S
C1755 C1753 1.419 . S
C1755 C1756 1.363 . S
C1755 H1758 0.929 . S
C1756 C1755 1.363 . S
C1756 C1762 1.428 . S
H1757 C1753 0.930 . S
H1758 C1755 0.929 . S
S1759 N1760 1.613 . S
S1759 N1761 1.610 . S
N1760 S1759 1.613 . S
N1760 C1763 1.350 . S
N1761 S1759 1.610 . S
N1761 C1762 1.351 . S
C1762 C1756 1.428 . S
C1762 N1761 1.351 . S
C1762 C1763 1.434 . S
C1763 C1754 1.429 . S
C1763 N1760 1.350 . S
C1763 C1762 1.434 . S
C1764 C1765 1.369 . S
C1764 C1766 1.419 . S
C1764 H1768 0.930 . S
C1765 C1764 1.369 . S
C1765 C1774 1.429 . S
C1766 C1764 1.419 . S
C1766 C1767 1.363 . S
C1766 H1769 0.929 . S
C1767 C1766 1.363 . S
C1767 C1773 1.428 . S
H1768 C1764 0.930 . S
H1769 C1766 0.929 . S
S1770 N1771 1.613 . S
S1770 N1772 1.610 . S
N1771 S1770 1.613 . S
N1771 C1774 1.350 . S
N1772 S1770 1.610 . S
N1772 C1773 1.351 . S
C1773 C1767 1.428 . S
C1773 N1772 1.351 . S
C1773 C1774 1.434 . S
C1774 C1765 1.429 . S
C1774 N1771 1.350 . S
C1774 C1773 1.434 . S
C1775 C1776 1.369 . S
C1775 C1777 1.419 . S
C1775 H1779 0.930 . S
C1776 C1775 1.369 . S
C1776 C1785 1.429 . S
C1777 C1775 1.419 . S
C1777 C1778 1.363 . S
C1777 H1780 0.929 . S
C1778 C1777 1.363 . S
C1778 C1784 1.428 . S
H1779 C1775 0.930 . S
H1780 C1777 0.929 . S
S1781 N1782 1.613 . S
S1781 N1783 1.610 . S
N1782 S1781 1.613 . S
N1782 C1785 1.350 . S
N1783 S1781 1.610 . S
N1783 C1784 1.351 . S
C1784 C1778 1.428 . S
C1784 N1783 1.351 . S
C1784 C1785 1.434 . S
C1785 C1776 1.429 . S
C1785 N1782 1.350 . S
C1785 C1784 1.434 . S
C1786 C1787 1.369 . S
C1786 C1788 1.419 . S
C1786 H1790 0.930 . S
C1787 C1786 1.369 . S
C1787 C1796 1.429 . S
C1788 C1786 1.419 . S
C1788 C1789 1.363 . S
C1788 H1791 0.929 . S
C1789 C1788 1.363 . S
C1789 C1795 1.428 . S
H1790 C1786 0.930 . S
H1791 C1788 0.929 . S
S1792 N1793 1.613 . S
S1792 N1794 1.610 . S
N1793 S1792 1.613 . S
N1793 C1796 1.350 . S
N1794 S1792 1.610 . S
N1794 C1795 1.351 . S
C1795 C1789 1.428 . S
C1795 N1794 1.351 . S
C1795 C1796 1.434 . S
C1796 C1787 1.429 . S
C1796 N1793 1.350 . S
C1796 C1795 1.434 . S
C1797 C1798 1.369 . S
C1797 C1799 1.419 . S
C1797 H1801 0.930 . S
C1798 C1797 1.369 . S
C1798 C1807 1.429 . S
C1799 C1797 1.419 . S
C1799 C1800 1.363 . S
C1799 H1802 0.929 . S
C1800 C1799 1.363 . S
C1800 C1806 1.428 . S
H1801 C1797 0.930 . S
H1802 C1799 0.929 . S
S1803 N1804 1.613 . S
S1803 N1805 1.610 . S
N1804 S1803 1.613 . S
N1804 C1807 1.350 . S
N1805 S1803 1.610 . S
N1805 C1806 1.351 . S
C1806 C1800 1.428 . S
C1806 N1805 1.351 . S
C1806 C1807 1.434 . S
C1807 C1798 1.429 . S
C1807 N1804 1.350 . S
C1807 C1806 1.434 . S
C1808 C1809 1.369 . S
C1808 C1810 1.419 . S
C1808 H1812 0.930 . S
C1809 C1808 1.369 . S
C1809 C1818 1.429 . S
C1810 C1808 1.419 . S
C1810 C1811 1.363 . S
C1810 H1813 0.929 . S
C1811 C1810 1.363 . S
C1811 C1817 1.428 . S
H1812 C1808 0.930 . S
H1813 C1810 0.929 . S
S1814 N1815 1.613 . S
S1814 N1816 1.610 . S
N1815 S1814 1.613 . S
N1815 C1818 1.350 . S
N1816 S1814 1.610 . S
N1816 C1817 1.351 . S
C1817 C1811 1.428 . S
C1817 N1816 1.351 . S
C1817 C1818 1.434 . S
C1818 C1809 1.429 . S
C1818 N1815 1.350 . S
C1818 C1817 1.434 . S
C1819 C1820 1.369 . S
C1819 C1821 1.419 . S
C1819 H1823 0.930 . S
C1820 C1819 1.369 . S
C1820 C1829 1.429 . S
C1821 C1819 1.419 . S
C1821 C1822 1.363 . S
C1821 H1824 0.929 . S
C1822 C1821 1.363 . S
C1822 C1828 1.428 . S
H1823 C1819 0.930 . S
H1824 C1821 0.929 . S
S1825 N1826 1.613 . S
S1825 N1827 1.610 . S
N1826 S1825 1.613 . S
N1826 C1829 1.350 . S
N1827 S1825 1.610 . S
N1827 C1828 1.351 . S
C1828 C1822 1.428 . S
C1828 N1827 1.351 . S
C1828 C1829 1.434 . S
C1829 C1820 1.429 . S
C1829 N1826 1.350 . S
C1829 C1828 1.434 . S
C1830 C1831 1.369 . S
C1830 C1832 1.419 . S
C1830 H1834 0.930 . S
C1831 C1830 1.369 . S
C1831 C1840 1.429 . S
C1832 C1830 1.419 . S
C1832 C1833 1.363 . S
C1832 H1835 0.929 . S
C1833 C1832 1.363 . S
C1833 C1839 1.428 . S
H1834 C1830 0.930 . S
H1835 C1832 0.929 . S
S1836 N1837 1.613 . S
S1836 N1838 1.610 . S
N1837 S1836 1.613 . S
N1837 C1840 1.350 . S
N1838 S1836 1.610 . S
N1838 C1839 1.351 . S
C1839 C1833 1.428 . S
C1839 N1838 1.351 . S
C1839 C1840 1.434 . S
C1840 C1831 1.429 . S
C1840 N1837 1.350 . S
C1840 C1839 1.434 . S
C1841 C1842 1.369 . S
C1841 C1843 1.419 . S
C1841 H1845 0.930 . S
C1842 C1841 1.369 . S
C1842 C1851 1.429 . S
C1843 C1841 1.419 . S
C1843 C1844 1.363 . S
C1843 H1846 0.929 . S
C1844 C1843 1.363 . S
C1844 C1850 1.428 . S
H1845 C1841 0.930 . S
H1846 C1843 0.929 . S
S1847 N1848 1.613 . S
S1847 N1849 1.610 . S
N1848 S1847 1.613 . S
N1848 C1851 1.350 . S
N1849 S1847 1.610 . S
N1849 C1850 1.351 . S
C1850 C1844 1.428 . S
C1850 N1849 1.351 . S
C1850 C1851 1.434 . S
C1851 C1842 1.429 . S
C1851 N1848 1.350 . S
C1851 C1850 1.434 . S
C1852 C1853 1.369 . S
C1852 C1854 1.419 . S
C1852 H1856 0.930 . S
C1853 C1852 1.369 . S
C1853 C1862 1.429 . S
C1854 C1852 1.419 . S
C1854 C1855 1.363 . S
C1854 H1857 0.929 . S
C1855 C1854 1.363 . S
C1855 C1861 1.428 . S
H1856 C1852 0.930 . S
H1857 C1854 0.929 . S
S1858 N1859 1.613 . S
S1858 N1860 1.610 . S
N1859 S1858 1.613 . S
N1859 C1862 1.350 . S
N1860 S1858 1.610 . S
N1860 C1861 1.351 . S
C1861 C1855 1.428 . S
C1861 N1860 1.351 . S
C1861 C1862 1.434 . S
C1862 C1853 1.429 . S
C1862 N1859 1.350 . S
C1862 C1861 1.434 . S
C1863 C1864 1.369 . S
C1863 C1865 1.419 . S
C1863 H1867 0.930 . S
C1864 C1863 1.369 . S
C1864 C1873 1.429 . S
C1865 C1863 1.419 . S
C1865 C1866 1.363 . S
C1865 H1868 0.929 . S
C1866 C1865 1.363 . S
C1866 C1872 1.428 . S
H1867 C1863 0.930 . S
H1868 C1865 0.929 . S
S1869 N1870 1.613 . S
S1869 N1871 1.610 . S
N1870 S1869 1.613 . S
N1870 C1873 1.350 . S
N1871 S1869 1.610 . S
N1871 C1872 1.351 . S
C1872 C1866 1.428 . S
C1872 N1871 1.351 . S
C1872 C1873 1.434 . S
C1873 C1864 1.429 . S
C1873 N1870 1.350 . S
C1873 C1872 1.434 . S
C1874 C1875 1.369 . S
C1874 C1876 1.419 . S
C1874 H1878 0.930 . S
C1875 C1874 1.369 . S
C1875 C1884 1.429 . S
C1876 C1874 1.419 . S
C1876 C1877 1.363 . S
C1876 H1879 0.929 . S
C1877 C1876 1.363 . S
C1877 C1883 1.428 . S
H1878 C1874 0.930 . S
H1879 C1876 0.929 . S
S1880 N1881 1.613 . S
S1880 N1882 1.610 . S
N1881 S1880 1.613 . S
N1881 C1884 1.350 . S
N1882 S1880 1.610 . S
N1882 C1883 1.351 . S
C1883 C1877 1.428 . S
C1883 N1882 1.351 . S
C1883 C1884 1.434 . S
C1884 C1875 1.429 . S
C1884 N1881 1.350 . S
C1884 C1883 1.434 . S
C1885 C1886 1.369 . S
C1885 C1887 1.419 . S
C1885 H1889 0.930 1_655 S
C1886 C1885 1.369 . S
C1886 C1895 1.429 . S
C1887 C1885 1.419 . S
C1887 C1888 1.363 . S
C1887 H1890 0.929 . S
C1888 C1887 1.363 . S
C1888 C1894 1.428 . S
H1889 C1885 0.930 1_455 S
H1890 C1887 0.929 . S
S1891 N1892 1.613 . S
S1891 N1893 1.610 . S
N1892 S1891 1.613 . S
N1892 C1895 1.350 . S
N1893 S1891 1.610 . S
N1893 C1894 1.351 . S
C1894 C1888 1.428 . S
C1894 N1893 1.351 . S
C1894 C1895 1.434 . S
C1895 C1886 1.429 . S
C1895 N1892 1.350 . S
C1895 C1894 1.434 . S
C1896 C1897 1.369 . S
C1896 C1898 1.419 . S
C1896 H1900 0.930 . S
C1897 C1896 1.369 . S
C1897 C1906 1.429 . S
C1898 C1896 1.419 . S
C1898 C1899 1.363 . S
C1898 H1901 0.929 . S
C1899 C1898 1.363 . S
C1899 C1905 1.428 . S
H1900 C1896 0.930 . S
H1901 C1898 0.929 . S
S1902 N1903 1.613 . S
S1902 N1904 1.610 . S
N1903 S1902 1.613 . S
N1903 C1906 1.350 . S
N1904 S1902 1.610 . S
N1904 C1905 1.351 . S
C1905 C1899 1.428 . S
C1905 N1904 1.351 . S
C1905 C1906 1.434 . S
C1906 C1897 1.429 . S
C1906 N1903 1.350 . S
C1906 C1905 1.434 . S
C1907 C1908 1.369 . S
C1907 C1909 1.419 . S
C1907 H1911 0.930 . S
C1908 C1907 1.369 . S
C1908 C1917 1.429 . S
C1909 C1907 1.419 . S
C1909 C1910 1.363 . S
C1909 H1912 0.929 . S
C1910 C1909 1.363 . S
C1910 C1916 1.428 . S
H1911 C1907 0.930 . S
H1912 C1909 0.929 . S
S1913 N1914 1.613 . S
S1913 N1915 1.610 . S
N1914 S1913 1.613 . S
N1914 C1917 1.350 . S
N1915 S1913 1.610 . S
N1915 C1916 1.351 . S
C1916 C1910 1.428 . S
C1916 N1915 1.351 . S
C1916 C1917 1.434 . S
C1917 C1908 1.429 . S
C1917 N1914 1.350 . S
C1917 C1916 1.434 . S
C1918 C1919 1.369 . S
C1918 C1920 1.419 . S
C1918 H1922 0.930 . S
C1919 C1918 1.369 . S
C1919 C1928 1.429 . S
C1920 C1918 1.419 . S
C1920 C1921 1.363 . S
C1920 H1923 0.929 . S
C1921 C1920 1.363 . S
C1921 C1927 1.428 . S
H1922 C1918 0.930 . S
H1923 C1920 0.929 . S
S1924 N1925 1.613 . S
S1924 N1926 1.610 . S
N1925 S1924 1.613 . S
N1925 C1928 1.350 . S
N1926 S1924 1.610 . S
N1926 C1927 1.351 . S
C1927 C1921 1.428 . S
C1927 N1926 1.351 . S
C1927 C1928 1.434 . S
C1928 C1919 1.429 . S
C1928 N1925 1.350 . S
C1928 C1927 1.434 . S
C1929 C1930 1.369 . S
C1929 C1931 1.419 . S
C1929 H1933 0.930 . S
C1930 C1929 1.369 . S
C1930 C1939 1.429 . S
C1931 C1929 1.419 . S
C1931 C1932 1.363 . S
C1931 H1934 0.929 . S
C1932 C1931 1.363 . S
C1932 C1938 1.428 . S
H1933 C1929 0.930 . S
H1934 C1931 0.929 . S
S1935 N1936 1.613 . S
S1935 N1937 1.610 . S
N1936 S1935 1.613 . S
N1936 C1939 1.350 . S
N1937 S1935 1.610 . S
N1937 C1938 1.351 . S
C1938 C1932 1.428 . S
C1938 N1937 1.351 . S
C1938 C1939 1.434 . S
C1939 C1930 1.429 . S
C1939 N1936 1.350 . S
C1939 C1938 1.434 . S
C1940 C1941 1.369 . S
C1940 C1942 1.419 . S
C1940 H1944 0.930 . S
C1941 C1940 1.369 . S
C1941 C1950 1.429 . S
C1942 C1940 1.419 . S
C1942 C1943 1.363 . S
C1942 H1945 0.929 . S
C1943 C1942 1.363 . S
C1943 C1949 1.428 . S
H1944 C1940 0.930 . S
H1945 C1942 0.929 . S
S1946 N1947 1.613 . S
S1946 N1948 1.610 . S
N1947 S1946 1.613 . S
N1947 C1950 1.350 . S
N1948 S1946 1.610 . S
N1948 C1949 1.351 . S
C1949 C1943 1.428 . S
C1949 N1948 1.351 . S
C1949 C1950 1.434 . S
C1950 C1941 1.429 . S
C1950 N1947 1.350 . S
C1950 C1949 1.434 . S
C1951 C1952 1.369 . S
C1951 C1953 1.419 . S
C1951 H1955 0.930 . S
C1952 C1951 1.369 . S
C1952 C1961 1.429 . S
C1953 C1951 1.419 . S
C1953 C1954 1.363 . S
C1953 H1956 0.929 . S
C1954 C1953 1.363 . S
C1954 C1960 1.428 . S
H1955 C1951 0.930 . S
H1956 C1953 0.929 . S
S1957 N1958 1.613 . S
S1957 N1959 1.610 . S
N1958 S1957 1.613 . S
N1958 C1961 1.350 . S
N1959 S1957 1.610 . S
N1959 C1960 1.351 . S
C1960 C1954 1.428 . S
C1960 N1959 1.351 . S
C1960 C1961 1.434 . S
C1961 C1952 1.429 . S
C1961 N1958 1.350 . S
C1961 C1960 1.434 . S
C1962 C1963 1.369 . S
C1962 C1964 1.419 . S
C1962 H1966 0.930 . S
C1963 C1962 1.369 . S
C1963 C1972 1.429 . S
C1964 C1962 1.419 . S
C1964 C1965 1.363 . S
C1964 H1967 0.929 . S
C1965 C1964 1.363 . S
C1965 C1971 1.428 . S
H1966 C1962 0.930 . S
H1967 C1964 0.929 . S
S1968 N1969 1.613 . S
S1968 N1970 1.610 . S
N1969 S1968 1.613 . S
N1969 C1972 1.350 . S
N1970 S1968 1.610 . S
N1970 C1971 1.351 . S
C1971 C1965 1.428 . S
C1971 N1970 1.351 . S
C1971 C1972 1.434 . S
C1972 C1963 1.429 . S
C1972 N1969 1.350 . S
C1972 C1971 1.434 . S
C1973 C1974 1.369 . S
C1973 C1975 1.419 . S
C1973 H1977 0.930 . S
C1974 C1973 1.369 . S
C1974 C1983 1.429 . S
C1975 C1973 1.419 . S
C1975 C1976 1.363 . S
C1975 H1978 0.929 . S
C1976 C1975 1.363 . S
C1976 C1982 1.428 . S
H1977 C1973 0.930 . S
H1978 C1975 0.929 . S
S1979 N1980 1.613 . S
S1979 N1981 1.610 . S
N1980 S1979 1.613 . S
N1980 C1983 1.350 . S
N1981 S1979 1.610 . S
N1981 C1982 1.351 . S
C1982 C1976 1.428 . S
C1982 N1981 1.351 . S
C1982 C1983 1.434 . S
C1983 C1974 1.429 . S
C1983 N1980 1.350 . S
C1983 C1982 1.434 . S
C1984 C1985 1.369 . S
C1984 C1986 1.419 . S
C1984 H1988 0.930 . S
C1985 C1984 1.369 . S
C1985 C1994 1.429 . S
C1986 C1984 1.419 . S
C1986 C1987 1.363 . S
C1986 H1989 0.929 . S
C1987 C1986 1.363 . S
C1987 C1993 1.428 . S
H1988 C1984 0.930 . S
H1989 C1986 0.929 . S
S1990 N1991 1.613 . S
S1990 N1992 1.610 . S
N1991 S1990 1.613 . S
N1991 C1994 1.350 . S
N1992 S1990 1.610 . S
N1992 C1993 1.351 . S
C1993 C1987 1.428 . S
C1993 N1992 1.351 . S
C1993 C1994 1.434 . S
C1994 C1985 1.429 . S
C1994 N1991 1.350 . S
C1994 C1993 1.434 . S
C1995 C1996 1.369 . S
C1995 C1997 1.419 . S
C1995 H1999 0.930 . S
C1996 C1995 1.369 . S
C1996 C2005 1.429 . S
C1997 C1995 1.419 . S
C1997 C1998 1.363 . S
C1997 H2000 0.929 . S
C1998 C1997 1.363 . S
C1998 C2004 1.428 . S
H1999 C1995 0.930 . S
H2000 C1997 0.929 . S
S2001 N2002 1.613 1_565 S
S2001 N2003 1.610 . S
N2002 S2001 1.613 1_545 S
N2002 C2005 1.350 . S
N2003 S2001 1.610 . S
N2003 C2004 1.351 1_565 S
C2004 C1998 1.428 . S
C2004 N2003 1.351 1_545 S
C2004 C2005 1.434 . S
C2005 C1996 1.429 . S
C2005 N2002 1.350 . S
C2005 C2004 1.434 . S
C2006 C2007 1.369 . S
C2006 C2008 1.419 . S
C2006 H2010 0.930 . S
C2007 C2006 1.369 . S
C2007 C2016 1.429 . S
C2008 C2006 1.419 . S
C2008 C2009 1.363 . S
C2008 H2011 0.929 . S
C2009 C2008 1.363 . S
C2009 C2015 1.428 . S
H2010 C2006 0.930 . S
H2011 C2008 0.929 . S
S2012 N2013 1.613 . S
S2012 N2014 1.610 . S
N2013 S2012 1.613 . S
N2013 C2016 1.350 . S
N2014 S2012 1.610 . S
N2014 C2015 1.351 . S
C2015 C2009 1.428 . S
C2015 N2014 1.351 . S
C2015 C2016 1.434 . S
C2016 C2007 1.429 . S
C2016 N2013 1.350 . S
C2016 C2015 1.434 . S
C2017 C2018 1.369 . S
C2017 C2019 1.419 . S
C2017 H2021 0.930 . S
C2018 C2017 1.369 . S
C2018 C2027 1.429 . S
C2019 C2017 1.419 . S
C2019 C2020 1.363 . S
C2019 H2022 0.929 . S
C2020 C2019 1.363 . S
C2020 C2026 1.428 . S
H2021 C2017 0.930 . S
H2022 C2019 0.929 . S
S2023 N2024 1.613 1_565 S
S2023 N2025 1.610 . S
N2024 S2023 1.613 1_545 S
N2024 C2027 1.350 . S
N2025 S2023 1.610 . S
N2025 C2026 1.351 1_565 S
C2026 C2020 1.428 . S
C2026 N2025 1.351 1_545 S
C2026 C2027 1.434 . S
C2027 C2018 1.429 . S
C2027 N2024 1.350 . S
C2027 C2026 1.434 . S
C2028 C2029 1.369 . S
C2028 C2030 1.419 . S
C2028 H2032 0.930 . S
C2029 C2028 1.369 . S
C2029 C2038 1.429 . S
C2030 C2028 1.419 . S
C2030 C2031 1.363 . S
C2030 H2033 0.929 . S
C2031 C2030 1.363 . S
C2031 C2037 1.428 . S
H2032 C2028 0.930 . S
H2033 C2030 0.929 . S
S2034 N2035 1.613 . S
S2034 N2036 1.610 . S
N2035 S2034 1.613 . S
N2035 C2038 1.350 . S
N2036 S2034 1.610 . S
N2036 C2037 1.351 . S
C2037 C2031 1.428 . S
C2037 N2036 1.351 . S
C2037 C2038 1.434 . S
C2038 C2029 1.429 . S
C2038 N2035 1.350 . S
C2038 C2037 1.434 . S
C2039 C2040 1.369 . S
C2039 C2041 1.419 . S
C2039 H2043 0.930 . S
C2040 C2039 1.369 . S
C2040 C2049 1.429 . S
C2041 C2039 1.419 . S
C2041 C2042 1.363 . S
C2041 H2044 0.929 . S
C2042 C2041 1.363 . S
C2042 C2048 1.428 . S
H2043 C2039 0.930 . S
H2044 C2041 0.929 . S
S2045 N2046 1.613 . S
S2045 N2047 1.610 . S
N2046 S2045 1.613 . S
N2046 C2049 1.350 . S
N2047 S2045 1.610 . S
N2047 C2048 1.351 . S
C2048 C2042 1.428 . S
C2048 N2047 1.351 . S
C2048 C2049 1.434 . S
C2049 C2040 1.429 . S
C2049 N2046 1.350 . S
C2049 C2048 1.434 . S
C2050 C2051 1.369 . S
C2050 C2052 1.419 . S
C2050 H2054 0.930 . S
C2051 C2050 1.369 . S
C2051 C2060 1.429 . S
C2052 C2050 1.419 . S
C2052 C2053 1.363 . S
C2052 H2055 0.929 . S
C2053 C2052 1.363 . S
C2053 C2059 1.428 . S
H2054 C2050 0.930 . S
H2055 C2052 0.929 . S
S2056 N2057 1.613 . S
S2056 N2058 1.610 . S
N2057 S2056 1.613 . S
N2057 C2060 1.350 . S
N2058 S2056 1.610 . S
N2058 C2059 1.351 . S
C2059 C2053 1.428 . S
C2059 N2058 1.351 . S
C2059 C2060 1.434 . S
C2060 C2051 1.429 . S
C2060 N2057 1.350 . S
C2060 C2059 1.434 . S
C2061 C2062 1.369 . S
C2061 C2063 1.419 . S
C2061 H2065 0.930 . S
C2062 C2061 1.369 . S
C2062 C2071 1.429 . S
C2063 C2061 1.419 . S
C2063 C2064 1.363 . S
C2063 H2066 0.929 . S
C2064 C2063 1.363 . S
C2064 C2070 1.428 . S
H2065 C2061 0.930 . S
H2066 C2063 0.929 . S
S2067 N2068 1.613 . S
S2067 N2069 1.610 . S
N2068 S2067 1.613 . S
N2068 C2071 1.350 . S
N2069 S2067 1.610 . S
N2069 C2070 1.351 . S
C2070 C2064 1.428 . S
C2070 N2069 1.351 . S
C2070 C2071 1.434 . S
C2071 C2062 1.429 . S
C2071 N2068 1.350 . S
C2071 C2070 1.434 . S
C2072 C2073 1.369 . S
C2072 C2074 1.419 . S
C2072 H2076 0.930 . S
C2073 C2072 1.369 . S
C2073 C2082 1.429 . S
C2074 C2072 1.419 . S
C2074 C2075 1.363 . S
C2074 H2077 0.929 . S
C2075 C2074 1.363 . S
C2075 C2081 1.428 . S
H2076 C2072 0.930 . S
H2077 C2074 0.929 . S
S2078 N2079 1.613 . S
S2078 N2080 1.610 . S
N2079 S2078 1.613 . S
N2079 C2082 1.350 . S
N2080 S2078 1.610 . S
N2080 C2081 1.351 . S
C2081 C2075 1.428 . S
C2081 N2080 1.351 . S
C2081 C2082 1.434 . S
C2082 C2073 1.429 . S
C2082 N2079 1.350 . S
C2082 C2081 1.434 . S
C2083 C2084 1.369 . S
C2083 C2085 1.419 . S
C2083 H2087 0.930 . S
C2084 C2083 1.369 . S
C2084 C2093 1.429 . S
C2085 C2083 1.419 . S
C2085 C2086 1.363 . S
C2085 H2088 0.929 . S
C2086 C2085 1.363 . S
C2086 C2092 1.428 . S
H2087 C2083 0.930 . S
H2088 C2085 0.929 . S
S2089 N2090 1.613 . S
S2089 N2091 1.610 . S
N2090 S2089 1.613 . S
N2090 C2093 1.350 . S
N2091 S2089 1.610 . S
N2091 C2092 1.351 . S
C2092 C2086 1.428 . S
C2092 N2091 1.351 . S
C2092 C2093 1.434 . S
C2093 C2084 1.429 . S
C2093 N2090 1.350 . S
C2093 C2092 1.434 . S
C2094 C2095 1.369 . S
C2094 C2096 1.419 . S
C2094 H2098 0.930 . S
C2095 C2094 1.369 . S
C2095 C2104 1.429 . S
C2096 C2094 1.419 . S
C2096 C2097 1.363 . S
C2096 H2099 0.929 . S
C2097 C2096 1.363 . S
C2097 C2103 1.428 . S
H2098 C2094 0.930 . S
H2099 C2096 0.929 . S
S2100 N2101 1.613 . S
S2100 N2102 1.610 . S
N2101 S2100 1.613 . S
N2101 C2104 1.350 . S
N2102 S2100 1.610 . S
N2102 C2103 1.351 . S
C2103 C2097 1.428 . S
C2103 N2102 1.351 . S
C2103 C2104 1.434 . S
C2104 C2095 1.429 . S
C2104 N2101 1.350 . S
C2104 C2103 1.434 . S
C2105 C2106 1.369 . S
C2105 C2107 1.419 . S
C2105 H2109 0.930 . S
C2106 C2105 1.369 . S
C2106 C2115 1.429 . S
C2107 C2105 1.419 . S
C2107 C2108 1.363 . S
C2107 H2110 0.929 . S
C2108 C2107 1.363 . S
C2108 C2114 1.428 . S
H2109 C2105 0.930 . S
H2110 C2107 0.929 . S
S2111 N2112 1.613 . S
S2111 N2113 1.610 . S
N2112 S2111 1.613 . S
N2112 C2115 1.350 . S
N2113 S2111 1.610 . S
N2113 C2114 1.351 . S
C2114 C2108 1.428 . S
C2114 N2113 1.351 . S
C2114 C2115 1.434 . S
C2115 C2106 1.429 . S
C2115 N2112 1.350 . S
C2115 C2114 1.434 . S
C2116 C2117 1.369 . S
C2116 C2118 1.419 . S
C2116 H2120 0.930 . S
C2117 C2116 1.369 . S
C2117 C2126 1.429 . S
C2118 C2116 1.419 . S
C2118 C2119 1.363 . S
C2118 H2121 0.929 . S
C2119 C2118 1.363 . S
C2119 C2125 1.428 . S
H2120 C2116 0.930 . S
H2121 C2118 0.929 . S
S2122 N2123 1.613 . S
S2122 N2124 1.610 . S
N2123 S2122 1.613 . S
N2123 C2126 1.350 . S
N2124 S2122 1.610 . S
N2124 C2125 1.351 . S
C2125 C2119 1.428 . S
C2125 N2124 1.351 . S
C2125 C2126 1.434 . S
C2126 C2117 1.429 . S
C2126 N2123 1.350 . S
C2126 C2125 1.434 . S
C2127 C2128 1.369 . S
C2127 C2129 1.419 . S
C2127 H2131 0.930 . S
C2128 C2127 1.369 . S
C2128 C2137 1.429 . S
C2129 C2127 1.419 . S
C2129 C2130 1.363 . S
C2129 H2132 0.929 . S
C2130 C2129 1.363 . S
C2130 C2136 1.428 . S
H2131 C2127 0.930 . S
H2132 C2129 0.929 . S
S2133 N2134 1.613 . S
S2133 N2135 1.610 . S
N2134 S2133 1.613 . S
N2134 C2137 1.350 . S
N2135 S2133 1.610 . S
N2135 C2136 1.351 . S
C2136 C2130 1.428 . S
C2136 N2135 1.351 . S
C2136 C2137 1.434 . S
C2137 C2128 1.429 . S
C2137 N2134 1.350 . S
C2137 C2136 1.434 . S
C2138 C2139 1.369 . S
C2138 C2140 1.419 . S
C2138 H2142 0.930 . S
C2139 C2138 1.369 . S
C2139 C2148 1.429 . S
C2140 C2138 1.419 . S
C2140 C2141 1.363 . S
C2140 H2143 0.929 . S
C2141 C2140 1.363 . S
C2141 C2147 1.428 . S
H2142 C2138 0.930 . S
H2143 C2140 0.929 . S
S2144 N2145 1.613 . S
S2144 N2146 1.610 . S
N2145 S2144 1.613 . S
N2145 C2148 1.350 . S
N2146 S2144 1.610 . S
N2146 C2147 1.351 . S
C2147 C2141 1.428 . S
C2147 N2146 1.351 . S
C2147 C2148 1.434 . S
C2148 C2139 1.429 . S
C2148 N2145 1.350 . S
C2148 C2147 1.434 . S
C2149 C2150 1.369 . S
C2149 C2151 1.419 . S
C2149 H2153 0.930 . S
C2150 C2149 1.369 . S
C2150 C2159 1.429 . S
C2151 C2149 1.419 . S
C2151 C2152 1.363 . S
C2151 H2154 0.929 . S
C2152 C2151 1.363 . S
C2152 C2158 1.428 . S
H2153 C2149 0.930 . S
H2154 C2151 0.929 . S
S2155 N2156 1.613 . S
S2155 N2157 1.610 . S
N2156 S2155 1.613 . S
N2156 C2159 1.350 . S
N2157 S2155 1.610 . S
N2157 C2158 1.351 . S
C2158 C2152 1.428 . S
C2158 N2157 1.351 . S
C2158 C2159 1.434 . S
C2159 C2150 1.429 . S
C2159 N2156 1.350 . S
C2159 C2158 1.434 . S
C1105 N140 1.599 . S
C1107 N2 1.600 . S
C1116 C30 1.798 . S
C1118 C168 1.799 . S
C1127 N48 1.599 . S
C1129 N94 1.600 . S
C1138 C122 1.797 . S
C1140 C76 1.798 . S
C1149 C789 1.760 . S
C1151 C191 1.761 . S
C1160 N807 1.599 . S
C1162 N209 1.600 . S
C1171 C237 1.766 . S
C1173 C743 1.766 . S
C1182 N255 1.610 . S
C1184 N761 1.609 . S
C1193 C881 1.762 . S
C1195 C283 1.761 . S
C1204 N899 1.600 . S
C1206 N301 1.601 . S
C1215 C835 1.760 . S
C1217 C329 1.761 . S
C1226 N853 1.609 . S
C1228 N347 1.609 . S
C1237 C375 1.800 . S
C1239 C950 1.800 . S
C1248 C398 1.803 . S
C1250 C927 1.803 . S
C1259 C421 1.759 1_556 S
C1261 C536 1.760 1_554 S
C1270 C1042 1.799 . S
C1272 C444 1.800 . S
C1281 C1065 1.765 1_554 S
C1283 C467 1.764 . S
C1292 C996 1.800 . S
C1294 C490 1.800 . S
C1303 C1019 1.763 . S
C1305 C513 1.762 . S
C1314 N692 1.599 . S
C1316 N554 1.600 . S
C1325 C720 1.798 . S
C1327 C582 1.799 . S
C1336 N600 1.603 . S
C1338 N646 1.603 . S
C1347 C628 1.798 . S
C1349 C674 1.798 . S
C1358 C1088 1.766 . S
C1360 C973 1.765 . S
C1369 N370 1.879 . S
C1371 N12 1.944 . S
C1380 C39 1.685 1_655 S
C1382 N1083 1.674 . S
C1391 N58 1.949 . S
C1393 N485 1.877 . S
C1402 N1060 1.667 . S
C1404 C85 1.685 . S
C1413 N104 1.948 . S
C1415 N945 1.881 . S
C1424 N968 1.669 . S
C1426 C131 1.683 . S
C1435 N150 1.950 . S
C1437 N991 1.878 . S
C1446 N462 1.667 . S
C1448 C177 1.687 1_655 S
C1457 C200 1.703 . S
C1459 C7 1.800 . S
C1468 N25 1.876 . S
C1470 N219 1.949 . S
C1479 C246 1.699 . S
C1481 C53 1.802 . S
C1490 N265 1.946 . S
C1492 N71 1.885 . S
C1501 C292 1.696 . S
C1503 C99 1.804 . S
C1512 N117 1.881 . S
C1514 N311 1.948 . S
C1523 C338 1.697 . S
C1525 C145 1.803 . S
C1534 N357 1.950 . S
C1536 N163 1.878 . S
C1545 C384 1.678 . S
C1547 N186 1.678 . S
C1556 C407 1.681 . S
C1558 N830 1.677 . S
C1567 C858 1.798 . S
C1569 C430 1.701 . S
C1578 N876 1.677 . S
C1580 C453 1.682 . S
C1589 C476 1.700 . S
C1591 C352 1.800 . S
C1600 C499 1.679 . S
C1602 N232 1.678 . S
C1611 C812 1.803 . S
C1613 C522 1.696 . S
C1622 C766 1.802 . S
C1624 C545 1.700 . S
C1633 N564 1.946 . S
C1635 N922 1.878 . S
C1644 C591 1.679 . S
C1646 N531 1.673 . S
C1655 N610 1.942 . S
C1657 N1037 1.886 . S
C1666 C637 1.683 1_455 S
C1668 N508 1.670 . S
C1677 N656 1.940 . S
C1679 N393 1.885 . S
C1688 N416 1.673 . S
C1690 C683 1.680 1_455 S
C1699 N439 1.883 . S
C1701 N702 1.946 . S
C1710 N1014 1.679 . S
C1712 C729 1.678 . S
C1721 C559 1.800 . S
C1723 C752 1.701 . S
C1732 N577 1.887 . S
C1734 N771 1.941 . S
C1743 C798 1.693 . S
C1745 C605 1.804 . S
C1754 N623 1.878 . S
C1756 N817 1.946 . S
C1765 C844 1.696 . S
C1767 C651 1.802 . S
C1776 N669 1.884 . S
C1778 N863 1.942 . S
C1787 C890 1.698 . S
C1789 C697 1.801 . S
C1798 N715 1.885 . S
C1800 N909 1.942 . S
C1809 C936 1.686 . S
C1811 N738 1.669 . S
C1820 C959 1.677 . S
C1822 N278 1.676 . S
C1831 C306 1.805 . S
C1833 C982 1.696 . S
C1842 C1005 1.682 . S
C1844 N324 1.671 . S
C1853 C1028 1.703 . S
C1855 C904 1.799 . S
C1864 N784 1.670 . S
C1866 C1051 1.682 . S
C1875 C1074 1.694 . S
C1877 C260 1.803 . S
C1886 C214 1.806 . S
C1888 C1097 1.694 . S
C1897 C223 1.414 . S
C1899 C16 1.407 . S
C1908 N35 1.518 . S
C1910 N242 1.499 . S
C1919 C269 1.406 . S
C1921 C62 1.412 . S
C1930 N196 1.497 . S
C1932 N81 1.517 . S
C1941 C108 1.414 . S
C1943 C361 1.411 . S
C1952 N127 1.516 . S
C1954 N288 1.501 . S
C1963 C315 1.409 . S
C1965 C154 1.405 . S
C1974 N334 1.495 . S
C1976 N173 1.517 . S
C1985 N380 1.514 . S
C1987 N426 1.503 . S
C1996 N403 1.519 . S
C1998 N1070 1.498 . S
C2007 N449 1.514 . S
C2009 N1093 1.498 . S
C2018 N1047 1.519 . S
C2020 N472 1.499 . S
C2029 N1024 1.501 . S
C2031 N495 1.513 . S
C2040 N955 1.512 . S
C2042 N518 1.500 . S
C2051 N541 1.502 . S
C2053 N1001 1.513 . S
C2062 C775 1.409 . S
C2064 C568 1.413 . S
C2073 N794 1.499 . S
C2075 N587 1.513 . S
C2084 C614 1.410 . S
C2086 C821 1.405 . S
C2095 N748 1.498 . S
C2097 N633 1.517 . S
C2106 C913 1.404 . S
C2108 C660 1.411 . S
C2117 N840 1.500 . S
C2119 N679 1.517 . S
C2128 C706 1.409 . S
C2130 C867 1.413 . S
C2139 N886 1.501 . S
C2141 N725 1.513 . S
C2150 N978 1.498 . S
C2152 N932 1.514 . S
