# Generated by pormake.
# Topology uoe, (4)-cn, num edge types: 1
# Building blocks:
#     Node 0, Type 0, BuildingBlock: CEKHIL_clean_sbu_0, # of connection points: 4
#     Node 1, Type 0, BuildingBlock: CEKHIL_clean_sbu_0, # of connection points: 4
#     Node 2, Type 0, BuildingBlock: CEKHIL_clean_sbu_0, # of connection points: 4
#     Node 3, Type 0, BuildingBlock: CEKHIL_clean_sbu_0, # of connection points: 4
#     Node 4, Type 0, BuildingBlock: CEKHIL_clean_sbu_0, # of connection points: 4
#     Node 5, Type 0, BuildingBlock: CEKHIL_clean_sbu_0, # of connection points: 4
#     Node 6, Type 0, BuildingBlock: CEKHIL_clean_sbu_0, # of connection points: 4
#     Node 7, Type 0, BuildingBlock: CEKHIL_clean_sbu_0, # of connection points: 4
#     Node 8, Type 0, BuildingBlock: CEKHIL_clean_sbu_0, # of connection points: 4
#     Node 9, Type 0, BuildingBlock: CEKHIL_clean_sbu_0, # of connection points: 4
#     Node 10, Type 0, BuildingBlock: CEKHIL_clean_sbu_0, # of connection points: 4
#     Node 11, Type 0, BuildingBlock: CEKHIL_clean_sbu_0, # of connection points: 4
#     Node 12, Type 0, BuildingBlock: CEKHIL_clean_sbu_0, # of connection points: 4
#     Node 13, Type 0, BuildingBlock: CEKHIL_clean_sbu_0, # of connection points: 4
#     Node 14, Type 0, BuildingBlock: CEKHIL_clean_sbu_0, # of connection points: 4
#     Node 15, Type 0, BuildingBlock: CEKHIL_clean_sbu_0, # of connection points: 4
#     Node 16, Type 0, BuildingBlock: CEKHIL_clean_sbu_0, # of connection points: 4
#     Node 17, Type 0, BuildingBlock: CEKHIL_clean_sbu_0, # of connection points: 4
#     Node 18, Type 0, BuildingBlock: CEKHIL_clean_sbu_0, # of connection points: 4
#     Node 19, Type 0, BuildingBlock: CEKHIL_clean_sbu_0, # of connection points: 4
#     Node 20, Type 0, BuildingBlock: CEKHIL_clean_sbu_0, # of connection points: 4
#     Node 21, Type 0, BuildingBlock: CEKHIL_clean_sbu_0, # of connection points: 4
#     Node 22, Type 0, BuildingBlock: CEKHIL_clean_sbu_0, # of connection points: 4
#     Node 23, Type 0, BuildingBlock: CEKHIL_clean_sbu_0, # of connection points: 4
#     Node 24, Type 0, BuildingBlock: CEKHIL_clean_sbu_0, # of connection points: 4
#     Node 25, Type 0, BuildingBlock: CEKHIL_clean_sbu_0, # of connection points: 4
#     Node 26, Type 0, BuildingBlock: CEKHIL_clean_sbu_0, # of connection points: 4
#     Node 27, Type 0, BuildingBlock: CEKHIL_clean_sbu_0, # of connection points: 4
#     Node 28, Type 0, BuildingBlock: CEKHIL_clean_sbu_0, # of connection points: 4
#     Node 29, Type 0, BuildingBlock: CEKHIL_clean_sbu_0, # of connection points: 4
#     Node 30, Type 0, BuildingBlock: CEKHIL_clean_sbu_0, # of connection points: 4
#     Node 31, Type 0, BuildingBlock: CEKHIL_clean_sbu_0, # of connection points: 4
#     Edge 32, Type (0, 0), None
#     Edge 33, Type (0, 0), None
#     Edge 34, Type (0, 0), None
#     Edge 35, Type (0, 0), None
#     Edge 36, Type (0, 0), None
#     Edge 37, Type (0, 0), None
#     Edge 38, Type (0, 0), None
#     Edge 39, Type (0, 0), None
#     Edge 40, Type (0, 0), None
#     Edge 41, Type (0, 0), None
#     Edge 42, Type (0, 0), None
#     Edge 43, Type (0, 0), None
#     Edge 44, Type (0, 0), None
#     Edge 45, Type (0, 0), None
#     Edge 46, Type (0, 0), None
#     Edge 47, Type (0, 0), None
#     Edge 48, Type (0, 0), None
#     Edge 49, Type (0, 0), None
#     Edge 50, Type (0, 0), None
#     Edge 51, Type (0, 0), None
#     Edge 52, Type (0, 0), None
#     Edge 53, Type (0, 0), None
#     Edge 54, Type (0, 0), None
#     Edge 55, Type (0, 0), None
#     Edge 56, Type (0, 0), None
#     Edge 57, Type (0, 0), None
#     Edge 58, Type (0, 0), None
#     Edge 59, Type (0, 0), None
#     Edge 60, Type (0, 0), None
#     Edge 61, Type (0, 0), None
#     Edge 62, Type (0, 0), None
#     Edge 63, Type (0, 0), None
#     Edge 64, Type (0, 0), None
#     Edge 65, Type (0, 0), None
#     Edge 66, Type (0, 0), None
#     Edge 67, Type (0, 0), None
#     Edge 68, Type (0, 0), None
#     Edge 69, Type (0, 0), None
#     Edge 70, Type (0, 0), None
#     Edge 71, Type (0, 0), None
#     Edge 72, Type (0, 0), None
#     Edge 73, Type (0, 0), None
#     Edge 74, Type (0, 0), None
#     Edge 75, Type (0, 0), None
#     Edge 76, Type (0, 0), None
#     Edge 77, Type (0, 0), None
#     Edge 78, Type (0, 0), None
#     Edge 79, Type (0, 0), None
#     Edge 80, Type (0, 0), None
#     Edge 81, Type (0, 0), None
#     Edge 82, Type (0, 0), None
#     Edge 83, Type (0, 0), None
#     Edge 84, Type (0, 0), None
#     Edge 85, Type (0, 0), None
#     Edge 86, Type (0, 0), None
#     Edge 87, Type (0, 0), None
#     Edge 88, Type (0, 0), None
#     Edge 89, Type (0, 0), None
#     Edge 90, Type (0, 0), None
#     Edge 91, Type (0, 0), None
#     Edge 92, Type (0, 0), None
#     Edge 93, Type (0, 0), None
#     Edge 94, Type (0, 0), None
#     Edge 95, Type (0, 0), None
# Relax obj value: 0.163
# Max RMSD: 0.200
# Mean RMSD: 0.200
data_MOF--net-uoe--node1-CEKHIL_clean_sbu_0--edge1-none
_symmetry_space_group_name_H-M    P1
_symmetry_Int_Tables_number       1
_symmetry_cell_setting            triclinic
loop_
_symmetry_equiv_pos_as_xyz
'x, y, z'
_cell_length_a     33.613057
_cell_length_b     33.61248
_cell_length_c     11.384318
_cell_angle_alpha  90.000037
_cell_angle_beta   89.9961
_cell_angle_gamma 90.000417
loop_
_atom_site_label
_atom_site_type_symbol
_atom_site_fract_x
_atom_site_fract_y
_atom_site_fract_z
_atom_type_partial_charge
Co0 Co 0.11708 0.47219 0.02651 0.0
O1 O 0.16949 0.45211 0.06583 0.0
O2 O 0.11407 0.41862 0.09664 0.0
C3 C 0.12873 0.50389 0.84957 0.0
O4 O 0.05816 0.48612 0.0109 0.0
Co5 Co 0.11099 0.56504 0.03345 0.0
O6 O 0.0532 0.55215 0.04945 0.0
C7 C 0.13453 0.51681 0.23218 0.0
C8 C 0.1519 0.42272 0.1194 0.0
C9 C 0.03774 0.51768 0.03686 0.0
O10 O 0.11314 0.49043 0.18632 0.0
O11 O 0.14098 0.55011 0.18104 0.0
O12 O 0.12318 0.4654 0.85296 0.0
O13 O 0.13288 0.51955 0.95152 0.0
Co14 Co 0.80978 0.86709 0.27655 0.0
O15 O 0.82987 0.9195 0.31583 0.0
O16 O 0.86335 0.86408 0.34665 0.0
C17 C 0.77808 0.87873 0.09963 0.0
O18 O 0.79586 0.80817 0.26099 0.0
Co19 Co 0.71693 0.861 0.28355 0.0
O20 O 0.72982 0.8032 0.29958 0.0
C21 C 0.76517 0.88455 0.48226 0.0
C22 C 0.85926 0.90192 0.3694 0.0
C23 C 0.7643 0.78775 0.28697 0.0
O24 O 0.79156 0.86316 0.43638 0.0
O25 O 0.73187 0.89099 0.43113 0.0
O26 O 0.81657 0.87318 0.103 0.0
O27 O 0.76243 0.88288 0.20158 0.0
Co28 Co 0.41493 0.55978 0.52654 0.0
O29 O 0.36252 0.57988 0.56582 0.0
O30 O 0.41794 0.61336 0.59664 0.0
C31 C 0.40329 0.52808 0.34962 0.0
O32 O 0.47385 0.54586 0.51097 0.0
Co33 Co 0.42102 0.46694 0.53352 0.0
O34 O 0.47881 0.47982 0.54954 0.0
C35 C 0.39747 0.51517 0.73224 0.0
C36 C 0.3801 0.60926 0.61938 0.0
C37 C 0.49427 0.5143 0.53694 0.0
O38 O 0.41886 0.54157 0.68636 0.0
O39 O 0.39103 0.48188 0.68111 0.0
O40 O 0.40884 0.56657 0.35299 0.0
O41 O 0.39913 0.51243 0.45157 0.0
Co42 Co 0.72224 0.16491 0.77656 0.0
O43 O 0.70215 0.1125 0.81584 0.0
O44 O 0.66866 0.16791 0.84667 0.0
C45 C 0.75394 0.15327 0.59962 0.0
O46 O 0.73616 0.22383 0.76099 0.0
Co47 Co 0.81508 0.17101 0.78352 0.0
O48 O 0.80219 0.2288 0.79956 0.0
C49 C 0.76685 0.14745 0.98225 0.0
C50 C 0.67276 0.13008 0.86942 0.0
C51 C 0.76772 0.24425 0.78697 0.0
O52 O 0.74046 0.16884 0.93638 0.0
O53 O 0.80015 0.14102 0.93111 0.0
O54 O 0.71545 0.15882 0.60301 0.0
O55 O 0.76959 0.14912 0.70157 0.0
Co56 Co 0.1171 0.55981 0.56227 0.0
O57 O 0.16952 0.5799 0.523 0.0
O58 O 0.11411 0.61339 0.49219 0.0
C59 C 0.12873 0.52809 0.73917 0.0
O60 O 0.05818 0.5459 0.57782 0.0
Co61 Co 0.11101 0.46696 0.5552 0.0
O62 O 0.05321 0.47986 0.53926 0.0
C63 C 0.13458 0.51522 0.35657 0.0
C64 C 0.15195 0.60929 0.46944 0.0
C65 C 0.03776 0.51434 0.55187 0.0
O66 O 0.11318 0.54161 0.40243 0.0
O67 O 0.14098 0.48189 0.40756 0.0
O68 O 0.12319 0.56659 0.73582 0.0
O69 O 0.13289 0.51245 0.63721 0.0
Co70 Co 0.72217 0.86709 0.81232 0.0
O71 O 0.70207 0.91951 0.77306 0.0
O72 O 0.66859 0.86409 0.74223 0.0
C73 C 0.75388 0.87872 0.98924 0.0
O74 O 0.73609 0.80817 0.82787 0.0
Co75 Co 0.81502 0.86101 0.80526 0.0
O76 O 0.80213 0.80321 0.78931 0.0
C77 C 0.76676 0.88458 0.60666 0.0
C78 C 0.67269 0.90193 0.71949 0.0
C79 C 0.76765 0.78775 0.80192 0.0
O80 O 0.74038 0.86317 0.6525 0.0
O81 O 0.80009 0.89099 0.65765 0.0
O82 O 0.71539 0.87318 0.98588 0.0
O83 O 0.76953 0.88288 0.88728 0.0
Co84 Co 0.41491 0.47216 0.0623 0.0
O85 O 0.36249 0.45209 0.02305 0.0
O86 O 0.41789 0.41859 0.9922 0.0
C87 C 0.40329 0.50388 0.23922 0.0
O88 O 0.47383 0.48607 0.07785 0.0
Co89 Co 0.42101 0.56502 0.05526 0.0
O90 O 0.4788 0.55212 0.03934 0.0
C91 C 0.39743 0.51677 0.85664 0.0
C92 C 0.38006 0.4227 0.96947 0.0
C93 C 0.49426 0.51764 0.05193 0.0
O94 O 0.41883 0.49038 0.90248 0.0
O95 O 0.39103 0.5501 0.90764 0.0
O96 O 0.40882 0.46538 0.23586 0.0
O97 O 0.39913 0.51953 0.13727 0.0
Co98 Co 0.80986 0.16491 0.3123 0.0
O99 O 0.82995 0.11249 0.27304 0.0
O100 O 0.86343 0.16791 0.2422 0.0
C101 C 0.77814 0.15328 0.48922 0.0
O102 O 0.79594 0.22383 0.32785 0.0
Co103 Co 0.717 0.171 0.30527 0.0
O104 O 0.7299 0.22879 0.28932 0.0
C105 C 0.76526 0.14742 0.10665 0.0
C106 C 0.85933 0.13007 0.21946 0.0
C107 C 0.76437 0.24425 0.30191 0.0
O108 O 0.79164 0.16883 0.15248 0.0
O109 O 0.73193 0.14102 0.15765 0.0
O110 O 0.81663 0.15883 0.48585 0.0
O111 O 0.7625 0.14912 0.38727 0.0
Co112 Co 0.91491 0.55981 0.06228 0.0
O113 O 0.86249 0.5799 0.02301 0.0
O114 O 0.9179 0.61339 0.99216 0.0
C115 C 0.90327 0.52811 0.23921 0.0
O116 O 0.97383 0.54589 0.07783 0.0
Co117 Co 0.921 0.46696 0.0553 0.0
O118 O 0.97879 0.47986 0.03928 0.0
C119 C 0.89746 0.51519 0.85657 0.0
C120 C 0.88007 0.60928 0.96943 0.0
C121 C 0.99425 0.51434 0.05186 0.0
O122 O 0.91884 0.54159 0.90245 0.0
O123 O 0.89102 0.4819 0.9077 0.0
O124 O 0.90882 0.5666 0.23583 0.0
O125 O 0.89912 0.51246 0.13726 0.0
Co126 Co 0.22217 0.16491 0.81227 0.0
O127 O 0.20209 0.11249 0.77296 0.0
O128 O 0.1686 0.16791 0.74214 0.0
C129 C 0.25387 0.15327 0.9892 0.0
O130 O 0.23608 0.22383 0.82785 0.0
Co131 Co 0.31502 0.17101 0.8053 0.0
O132 O 0.30212 0.2288 0.78929 0.0
C133 C 0.26679 0.14746 0.60657 0.0
C134 C 0.17271 0.13007 0.71939 0.0
C135 C 0.26764 0.24426 0.80189 0.0
O136 O 0.2404 0.16885 0.65245 0.0
O137 O 0.30008 0.14102 0.6577 0.0
O138 O 0.21538 0.15882 0.98582 0.0
O139 O 0.26952 0.14912 0.88725 0.0
Co140 Co 0.6171 0.47217 0.56236 0.0
O141 O 0.66952 0.45209 0.52307 0.0
O142 O 0.61411 0.41859 0.49224 0.0
C143 C 0.62874 0.50387 0.73929 0.0
O144 O 0.55818 0.48608 0.57793 0.0
Co145 Co 0.61101 0.56502 0.55539 0.0
O146 O 0.55322 0.55212 0.53937 0.0
C147 C 0.63455 0.51679 0.35665 0.0
C148 C 0.65194 0.4227 0.46949 0.0
C149 C 0.53776 0.51764 0.55196 0.0
O150 O 0.61317 0.49039 0.40254 0.0
O151 O 0.64099 0.55008 0.40778 0.0
O152 O 0.62319 0.46538 0.73591 0.0
O153 O 0.63289 0.51952 0.63734 0.0
Co154 Co 0.30982 0.8671 0.31218 0.0
O155 O 0.32991 0.91951 0.2729 0.0
O156 O 0.36339 0.8641 0.24206 0.0
C157 C 0.27812 0.87873 0.48912 0.0
O158 O 0.2959 0.80818 0.32774 0.0
Co159 Co 0.21697 0.86101 0.30522 0.0
O160 O 0.22986 0.80321 0.2892 0.0
C161 C 0.2652 0.88456 0.10649 0.0
C162 C 0.35929 0.90193 0.21932 0.0
C163 C 0.26434 0.78776 0.30179 0.0
O164 O 0.2916 0.86317 0.15236 0.0
O165 O 0.23191 0.891 0.15763 0.0
O166 O 0.31661 0.87318 0.48573 0.0
O167 O 0.26247 0.88289 0.38717 0.0
Co168 Co 0.91493 0.47219 0.52652 0.0
O169 O 0.86251 0.4521 0.5658 0.0
O170 O 0.91793 0.41862 0.59661 0.0
C171 C 0.90329 0.50391 0.34961 0.0
O172 O 0.97385 0.48612 0.51095 0.0
Co173 Co 0.92101 0.56505 0.53357 0.0
O174 O 0.97881 0.55216 0.54951 0.0
C175 C 0.89743 0.51679 0.73218 0.0
C176 C 0.88009 0.42272 0.61936 0.0
C177 C 0.99427 0.51768 0.5369 0.0
O178 O 0.91885 0.49041 0.68634 0.0
O179 O 0.89103 0.55012 0.68118 0.0
O180 O 0.90884 0.46542 0.35297 0.0
O181 O 0.89913 0.51956 0.45157 0.0
Co182 Co 0.30979 0.16492 0.27649 0.0
O183 O 0.32989 0.1125 0.31573 0.0
O184 O 0.36337 0.16792 0.34656 0.0
C185 C 0.27807 0.15329 0.09959 0.0
O186 O 0.29586 0.22384 0.26097 0.0
Co187 Co 0.21694 0.171 0.28358 0.0
O188 O 0.22982 0.2288 0.29956 0.0
C189 C 0.26519 0.14742 0.48218 0.0
C190 C 0.35927 0.13008 0.36929 0.0
C191 C 0.2643 0.24426 0.28694 0.0
O192 O 0.29158 0.16883 0.43633 0.0
O193 O 0.23187 0.14102 0.43119 0.0
O194 O 0.31656 0.15884 0.10294 0.0
O195 O 0.26243 0.14912 0.20155 0.0
Co196 Co 0.61709 0.55979 0.0266 0.0
O197 O 0.6695 0.57988 0.06585 0.0
O198 O 0.61409 0.61336 0.09669 0.0
C199 C 0.62872 0.52807 0.84969 0.0
O200 O 0.55817 0.54586 0.01105 0.0
Co201 Co 0.61101 0.46693 0.03365 0.0
O202 O 0.55321 0.47982 0.04958 0.0
C203 C 0.63458 0.51519 0.23226 0.0
C204 C 0.65192 0.60927 0.11942 0.0
C205 C 0.53775 0.5143 0.03698 0.0
O206 O 0.61317 0.54157 0.18642 0.0
O207 O 0.64099 0.48186 0.18126 0.0
O208 O 0.62318 0.56656 0.85305 0.0
O209 O 0.63289 0.51243 0.95164 0.0
Co210 Co 0.22221 0.86709 0.77645 0.0
O211 O 0.20211 0.9195 0.8157 0.0
O212 O 0.16863 0.86408 0.84655 0.0
C213 C 0.25392 0.87872 0.59952 0.0
O214 O 0.23613 0.80817 0.7609 0.0
Co215 Co 0.31506 0.86101 0.78348 0.0
O216 O 0.30217 0.80321 0.79946 0.0
C217 C 0.2668 0.88459 0.98209 0.0
C218 C 0.17273 0.90192 0.86928 0.0
C219 C 0.26769 0.78775 0.78686 0.0
O220 O 0.24042 0.86317 0.93627 0.0
O221 O 0.30013 0.89099 0.93109 0.0
O222 O 0.21543 0.87317 0.60289 0.0
O223 O 0.26956 0.88288 0.70148 0.0
Co224 Co 0.61708 0.9722 0.52652 0.0
O225 O 0.66949 0.95211 0.56586 0.0
O226 O 0.61407 0.91863 0.59667 0.0
C227 C 0.62874 1.00389 0.34958 0.0
O228 O 0.55816 0.98612 0.51089 0.0
Co229 Co 0.61101 0.06505 0.53346 0.0
O230 O 0.55321 0.05216 0.54944 0.0
C231 C 0.63454 0.01681 0.73218 0.0
C232 C 0.6519 0.92274 0.61946 0.0
C233 C 0.53775 0.01768 0.53684 0.0
O234 O 0.61313 0.99043 0.68632 0.0
O235 O 0.64099 0.05011 0.68105 0.0
O236 O 0.62319 0.9654 0.35297 0.0
O237 O 0.63289 0.01954 0.45153 0.0
Co238 Co 0.30978 0.36708 0.77654 0.0
O239 O 0.32987 0.4195 0.81588 0.0
O240 O 0.36335 0.36407 0.84665 0.0
C241 C 0.27808 0.37874 0.59962 0.0
O242 O 0.29585 0.30817 0.76093 0.0
Co243 Co 0.21693 0.361 0.78353 0.0
O244 O 0.22982 0.30321 0.79951 0.0
C245 C 0.26516 0.38453 0.98225 0.0
C246 C 0.35924 0.4019 0.86946 0.0
C247 C 0.2643 0.28775 0.7869 0.0
O248 O 0.29155 0.36314 0.93636 0.0
O249 O 0.23187 0.39098 0.93113 0.0
O250 O 0.31657 0.37319 0.603 0.0
O251 O 0.26243 0.38289 0.70158 0.0
Co252 Co 0.91494 0.0598 0.02649 0.0
O253 O 0.86253 0.07989 0.06584 0.0
O254 O 0.91796 0.11338 0.09662 0.0
C255 C 0.90328 0.02811 0.84956 0.0
O256 O 0.97386 0.04588 0.01086 0.0
Co257 Co 0.92102 0.96696 0.03344 0.0
O258 O 0.97881 0.97984 0.04946 0.0
C259 C 0.89748 1.01519 0.23217 0.0
C260 C 0.88013 0.10927 0.11943 0.0
C261 C 0.99427 1.01432 0.03684 0.0
O262 O 0.91888 0.04157 0.1863 0.0
O263 O 0.89103 0.98189 0.18104 0.0
O264 O 0.90884 0.0666 0.85294 0.0
O265 O 0.89913 1.01245 0.95152 0.0
Co266 Co 0.22221 0.66492 0.27648 0.0
O267 O 0.20213 0.6125 0.31583 0.0
O268 O 0.16864 0.66792 0.34662 0.0
C269 C 0.25391 0.65327 0.09955 0.0
O270 O 0.23612 0.72384 0.26085 0.0
Co271 Co 0.31506 0.67102 0.2834 0.0
O272 O 0.30216 0.72881 0.29938 0.0
C273 C 0.26683 0.64748 0.48216 0.0
C274 C 0.17276 0.63009 0.36943 0.0
C275 C 0.26768 0.74426 0.28679 0.0
O276 O 0.24044 0.66887 0.43629 0.0
O277 O 0.30013 0.64104 0.43102 0.0
O278 O 0.21542 0.65881 0.10294 0.0
O279 O 0.26956 0.64912 0.20149 0.0
Co280 Co 0.61711 0.05981 0.06227 0.0
O281 O 0.66953 0.07989 0.023 0.0
O282 O 0.61412 0.11339 0.99219 0.0
C283 C 0.62873 0.02809 0.23918 0.0
O284 O 0.55819 0.04589 0.07782 0.0
Co285 Co 0.61101 0.96696 0.0552 0.0
O286 O 0.55322 0.97986 0.03922 0.0
C287 C 0.63459 1.01521 0.85658 0.0
C288 C 0.65195 0.10927 0.96942 0.0
C289 C 0.53777 1.01434 0.05184 0.0
O290 O 0.61319 0.0416 0.90244 0.0
O291 O 0.64098 0.98189 0.90756 0.0
O292 O 0.6232 0.06658 0.23582 0.0
O293 O 0.6329 1.01244 0.13722 0.0
Co294 Co 0.22216 0.36709 0.31232 0.0
O295 O 0.20208 0.41951 0.27302 0.0
O296 O 0.16859 0.36409 0.24222 0.0
C297 C 0.25388 0.37873 0.48923 0.0
O298 O 0.23608 0.30817 0.3279 0.0
Co299 Co 0.31502 0.361 0.30526 0.0
O300 O 0.30212 0.30321 0.28931 0.0
C301 C 0.26676 0.38457 0.10665 0.0
C302 C 0.17271 0.40192 0.21944 0.0
C303 C 0.26764 0.28775 0.30193 0.0
O304 O 0.24038 0.36316 0.1525 0.0
O305 O 0.30009 0.39097 0.15763 0.0
O306 O 0.21538 0.37319 0.48587 0.0
O307 O 0.26952 0.38289 0.38727 0.0
Co308 Co 0.91491 0.97219 0.56225 0.0
O309 O 0.86248 0.95211 0.52299 0.0
O310 O 0.9179 0.91861 0.49216 0.0
C311 C 0.90328 1.00391 0.73917 0.0
O312 O 0.97383 0.9861 0.5778 0.0
Co313 Co 0.92101 0.06504 0.55519 0.0
O314 O 0.9788 0.05214 0.53923 0.0
C315 C 0.89744 0.01679 0.35657 0.0
C316 C 0.88007 0.92273 0.4694 0.0
C317 C 0.99425 0.01766 0.55184 0.0
O318 O 0.91884 0.9904 0.40242 0.0
O319 O 0.89104 0.05012 0.40756 0.0
O320 O 0.90882 0.96541 0.7358 0.0
O321 O 0.89912 0.01955 0.63721 0.0
Co322 Co 0.30983 0.66491 0.81224 0.0
O323 O 0.32991 0.61249 0.77297 0.0
O324 O 0.36341 0.66791 0.74215 0.0
C325 C 0.27811 0.65328 0.98915 0.0
O326 O 0.29591 0.72383 0.8278 0.0
Co327 Co 0.21697 0.671 0.80519 0.0
O328 O 0.22988 0.7288 0.78924 0.0
C329 C 0.26523 0.64744 0.60655 0.0
C330 C 0.35929 0.63007 0.71938 0.0
C331 C 0.26435 0.74425 0.80184 0.0
O332 O 0.29162 0.66884 0.65241 0.0
O333 O 0.2319 0.64104 0.65755 0.0
O334 O 0.3166 0.65882 0.98579 0.0
O335 O 0.26246 0.64912 0.88719 0.0
Co336 Co 0.41492 0.05982 0.5622 0.0
O337 O 0.3625 0.0799 0.5229 0.0
O338 O 0.41791 0.1134 0.49207 0.0
C339 C 0.40327 0.02812 0.73914 0.0
O340 O 0.47384 0.04591 0.57779 0.0
Co341 Co 0.421 0.96697 0.55524 0.0
O342 O 0.4788 0.97987 0.53924 0.0
C343 C 0.39747 1.0152 0.3565 0.0
C344 C 0.38008 0.10928 0.46929 0.0
C345 C 0.49425 1.01435 0.55183 0.0
O346 O 0.41886 0.0416 0.40238 0.0
O347 O 0.39103 0.98191 0.40763 0.0
O348 O 0.40882 0.06662 0.73575 0.0
O349 O 0.39912 1.01247 0.63719 0.0
Co350 Co 0.72218 0.66491 0.31235 0.0
O351 O 0.7021 0.61249 0.27302 0.0
O352 O 0.6686 0.6679 0.24223 0.0
C353 C 0.75388 0.65326 0.48927 0.0
O354 O 0.73609 0.72383 0.32795 0.0
Co355 Co 0.81503 0.67101 0.30537 0.0
O356 O 0.80212 0.7288 0.28937 0.0
C357 C 0.7668 0.64747 0.10664 0.0
C358 C 0.67273 0.63007 0.21943 0.0
C359 C 0.76764 0.74425 0.30198 0.0
O360 O 0.74041 0.66886 0.15253 0.0
O361 O 0.80009 0.64103 0.15776 0.0
O362 O 0.71539 0.6588 0.4859 0.0
O363 O 0.76953 0.64912 0.38731 0.0
Co364 Co 0.1171 0.97218 0.06223 0.0
O365 O 0.16951 0.9521 0.0229 0.0
O366 O 0.11409 0.91861 0.99211 0.0
C367 C 0.12874 1.00389 0.23916 0.0
O368 O 0.05818 0.9861 0.07784 0.0
Co369 Co 0.11101 0.06503 0.05526 0.0
O370 O 0.05322 0.05214 0.03924 0.0
C371 C 0.13455 0.0168 0.85652 0.0
C372 C 0.15192 0.92273 0.96931 0.0
C373 C 0.03776 0.01766 0.05185 0.0
O374 O 0.11316 0.99041 0.90241 0.0
O375 O 0.14099 0.0501 0.90764 0.0
O376 O 0.1232 0.96539 0.23578 0.0
O377 O 0.1329 0.01954 0.13721 0.0
Co378 Co 0.80984 0.36709 0.81234 0.0
O379 O 0.82992 0.4195 0.773 0.0
O380 O 0.86341 0.36409 0.7422 0.0
C381 C 0.77814 0.37874 0.98927 0.0
O382 O 0.79593 0.30817 0.82796 0.0
Co383 Co 0.71699 0.36099 0.8054 0.0
O384 O 0.72989 0.3032 0.78939 0.0
C385 C 0.76522 0.38453 0.60665 0.0
C386 C 0.85929 0.40192 0.7194 0.0
C387 C 0.76437 0.28775 0.80199 0.0
O388 O 0.79161 0.36314 0.65253 0.0
O389 O 0.73192 0.39097 0.65779 0.0
O390 O 0.81663 0.37319 0.98588 0.0
O391 O 0.76249 0.38288 0.88733 0.0
Co392 Co 0.41493 0.97221 0.02644 0.0
O393 O 0.36251 0.95212 0.06573 0.0
O394 O 0.41793 0.91863 0.09653 0.0
C395 C 0.40329 1.00392 0.84953 0.0
O396 O 0.47385 0.98613 0.01087 0.0
Co397 Co 0.42102 0.06506 0.03349 0.0
O398 O 0.47882 0.05216 0.04947 0.0
C399 C 0.39744 0.0168 0.23211 0.0
C400 C 0.3801 0.92274 0.11931 0.0
C401 C 0.49427 0.01768 0.03685 0.0
O402 O 0.41886 0.99042 0.18626 0.0
O403 O 0.39104 0.05013 0.18111 0.0
O404 O 0.40884 0.96543 0.85289 0.0
O405 O 0.39914 0.01957 0.9515 0.0
Co406 Co 0.80979 0.66492 0.77656 0.0
O407 O 0.82988 0.6125 0.81585 0.0
O408 O 0.86337 0.66792 0.84664 0.0
C409 C 0.77808 0.65328 0.59966 0.0
O410 O 0.79587 0.72384 0.76099 0.0
Co411 Co 0.71694 0.671 0.78363 0.0
O412 O 0.72983 0.7288 0.79956 0.0
C413 C 0.7652 0.64744 0.98224 0.0
C414 C 0.85926 0.63009 0.86943 0.0
C415 C 0.76431 0.74426 0.78694 0.0
O416 O 0.79158 0.66885 0.93639 0.0
O417 O 0.73187 0.64103 0.93126 0.0
O418 O 0.81657 0.65882 0.60301 0.0
O419 O 0.76243 0.64912 0.70163 0.0
Co420 Co 0.11709 0.0598 0.52647 0.0
O421 O 0.1695 0.07989 0.56577 0.0
O422 O 0.11408 0.11337 0.59658 0.0
C423 C 0.12873 0.02808 0.34956 0.0
O424 O 0.05817 0.04587 0.51089 0.0
Co425 Co 0.111 0.96694 0.53351 0.0
O426 O 0.0532 0.97984 0.54947 0.0
C427 C 0.13457 1.0152 0.73212 0.0
C428 C 0.15191 0.10926 0.61936 0.0
C429 C 0.03775 1.01432 0.53686 0.0
O430 O 0.11315 0.04158 0.68629 0.0
O431 O 0.14098 0.98188 0.68113 0.0
O432 O 0.12319 0.06658 0.35292 0.0
O433 O 0.13288 1.01244 0.45152 0.0
Co434 Co 0.72222 0.36708 0.27659 0.0
O435 O 0.70213 0.4195 0.31589 0.0
O436 O 0.66865 0.36407 0.34669 0.0
C437 C 0.75394 0.37873 0.09968 0.0
O438 O 0.73615 0.30816 0.261 0.0
Co439 Co 0.81508 0.36101 0.28362 0.0
O440 O 0.80219 0.30321 0.29956 0.0
C441 C 0.76682 0.38456 0.48226 0.0
C442 C 0.67276 0.4019 0.36947 0.0
C443 C 0.76771 0.28775 0.28694 0.0
O444 O 0.74044 0.36315 0.43641 0.0
O445 O 0.80014 0.39097 0.43126 0.0
O446 O 0.71545 0.37318 0.10304 0.0
O447 O 0.76958 0.38288 0.20163 0.0
loop_
_geom_bond_atom_site_label_1
_geom_bond_atom_site_label_2
_geom_bond_distance
_geom_bond_site_symmetry_2
_ccdc_geom_bond_type
Co0 O1 2.216 . S
Co0 O2 2.091 . S
Co0 O4 2.004 . S
Co0 O10 2.021 . S
Co0 O12 2.137 1_554 S
Co0 O13 2.244 1_554 S
O1 Co0 2.216 . S
O1 C8 1.247 . S
O2 Co0 2.091 . S
O2 C8 1.261 . S
C3 O12 1.247 . S
C3 O13 1.272 . S
O4 Co0 2.004 . S
O4 C9 1.259 . S
Co5 O6 2.061 . S
Co5 O11 2.052 . S
Co5 O13 2.135 1_554 S
O6 Co5 2.061 . S
O6 C9 1.235 . S
C7 O10 1.238 . S
C7 O11 1.241 . S
C8 O1 1.247 . S
C8 O2 1.261 . S
C9 O4 1.259 . S
C9 O6 1.235 . S
O10 Co0 2.021 . S
O10 C7 1.238 . S
O11 Co5 2.052 . S
O11 C7 1.241 . S
O12 Co0 2.137 1_556 S
O12 C3 1.247 . S
O13 Co0 2.244 1_556 S
O13 C3 1.272 . S
O13 Co5 2.135 1_556 S
Co14 O15 2.216 . S
Co14 O16 2.091 . S
Co14 O18 2.004 . S
Co14 O24 2.021 . S
Co14 O26 2.137 . S
Co14 O27 2.244 . S
O15 Co14 2.216 . S
O15 C22 1.247 . S
O16 Co14 2.091 . S
O16 C22 1.261 . S
C17 O26 1.247 . S
C17 O27 1.272 . S
O18 Co14 2.004 . S
O18 C23 1.259 . S
Co19 O20 2.061 . S
Co19 O25 2.052 . S
Co19 O27 2.135 . S
O20 Co19 2.061 . S
O20 C23 1.235 . S
C21 O24 1.238 . S
C21 O25 1.241 . S
C22 O15 1.247 . S
C22 O16 1.261 . S
C23 O18 1.259 . S
C23 O20 1.235 . S
O24 Co14 2.021 . S
O24 C21 1.238 . S
O25 Co19 2.052 . S
O25 C21 1.241 . S
O26 Co14 2.137 . S
O26 C17 1.247 . S
O27 Co14 2.244 . S
O27 C17 1.272 . S
O27 Co19 2.135 . S
Co28 O29 2.216 . S
Co28 O30 2.091 . S
Co28 O32 2.004 . S
Co28 O38 2.021 . S
Co28 O40 2.137 . S
Co28 O41 2.244 . S
O29 Co28 2.216 . S
O29 C36 1.247 . S
O30 Co28 2.091 . S
O30 C36 1.261 . S
C31 O40 1.247 . S
C31 O41 1.272 . S
O32 Co28 2.004 . S
O32 C37 1.259 . S
Co33 O34 2.061 . S
Co33 O39 2.052 . S
Co33 O41 2.135 . S
O34 Co33 2.061 . S
O34 C37 1.235 . S
C35 O38 1.238 . S
C35 O39 1.241 . S
C36 O29 1.247 . S
C36 O30 1.261 . S
C37 O32 1.259 . S
C37 O34 1.235 . S
O38 Co28 2.021 . S
O38 C35 1.238 . S
O39 Co33 2.052 . S
O39 C35 1.241 . S
O40 Co28 2.137 . S
O40 C31 1.247 . S
O41 Co28 2.244 . S
O41 C31 1.272 . S
O41 Co33 2.135 . S
Co42 O43 2.216 . S
Co42 O44 2.091 . S
Co42 O46 2.004 . S
Co42 O52 2.021 . S
Co42 O54 2.137 . S
Co42 O55 2.244 . S
O43 Co42 2.216 . S
O43 C50 1.247 . S
O44 Co42 2.091 . S
O44 C50 1.261 . S
C45 O54 1.247 . S
C45 O55 1.272 . S
O46 Co42 2.004 . S
O46 C51 1.259 . S
Co47 O48 2.061 . S
Co47 O53 2.052 . S
Co47 O55 2.135 . S
O48 Co47 2.061 . S
O48 C51 1.235 . S
C49 O52 1.238 1_554 S
C49 O53 1.241 1_554 S
C50 O43 1.247 . S
C50 O44 1.261 . S
C51 O46 1.259 . S
C51 O48 1.235 . S
O52 Co42 2.021 . S
O52 C49 1.238 1_556 S
O53 Co47 2.052 . S
O53 C49 1.241 1_556 S
O54 Co42 2.137 . S
O54 C45 1.247 . S
O55 Co42 2.244 . S
O55 C45 1.272 . S
O55 Co47 2.135 . S
Co56 O57 2.216 . S
Co56 O58 2.091 . S
Co56 O60 2.004 . S
Co56 O66 2.021 . S
Co56 O68 2.137 . S
Co56 O69 2.244 . S
O57 Co56 2.216 . S
O57 C64 1.247 . S
O58 Co56 2.091 . S
O58 C64 1.261 . S
C59 O68 1.247 . S
C59 O69 1.272 . S
O60 Co56 2.004 . S
O60 C65 1.259 . S
Co61 O62 2.061 . S
Co61 O67 2.052 . S
Co61 O69 2.135 . S
O62 Co61 2.061 . S
O62 C65 1.235 . S
C63 O66 1.238 . S
C63 O67 1.241 . S
C64 O57 1.247 . S
C64 O58 1.261 . S
C65 O60 1.259 . S
C65 O62 1.235 . S
O66 Co56 2.021 . S
O66 C63 1.238 . S
O67 Co61 2.052 . S
O67 C63 1.241 . S
O68 Co56 2.137 . S
O68 C59 1.247 . S
O69 Co56 2.244 . S
O69 C59 1.272 . S
O69 Co61 2.135 . S
Co70 O71 2.216 . S
Co70 O72 2.091 . S
Co70 O74 2.004 . S
Co70 O80 2.021 . S
Co70 O82 2.137 . S
Co70 O83 2.244 . S
O71 Co70 2.216 . S
O71 C78 1.247 . S
O72 Co70 2.091 . S
O72 C78 1.261 . S
C73 O82 1.247 . S
C73 O83 1.272 . S
O74 Co70 2.004 . S
O74 C79 1.259 . S
Co75 O76 2.061 . S
Co75 O81 2.052 . S
Co75 O83 2.135 . S
O76 Co75 2.061 . S
O76 C79 1.235 . S
C77 O80 1.238 . S
C77 O81 1.241 . S
C78 O71 1.247 . S
C78 O72 1.261 . S
C79 O74 1.259 . S
C79 O76 1.235 . S
O80 Co70 2.021 . S
O80 C77 1.238 . S
O81 Co75 2.052 . S
O81 C77 1.241 . S
O82 Co70 2.137 . S
O82 C73 1.247 . S
O83 Co70 2.244 . S
O83 C73 1.272 . S
O83 Co75 2.135 . S
Co84 O85 2.216 . S
Co84 O86 2.089 1_554 S
Co84 O88 2.004 . S
Co84 O94 2.021 1_554 S
Co84 O96 2.137 . S
Co84 O97 2.244 . S
O85 Co84 2.216 . S
O85 C92 1.247 1_554 S
O86 Co84 2.089 1_556 S
O86 C92 1.262 . S
C87 O96 1.247 . S
C87 O97 1.272 . S
O88 Co84 2.004 . S
O88 C93 1.259 . S
Co89 O90 2.061 . S
Co89 O95 2.052 1_554 S
Co89 O97 2.135 . S
O90 Co89 2.061 . S
O90 C93 1.235 . S
C91 O94 1.238 . S
C91 O95 1.241 . S
C92 O85 1.247 1_556 S
C92 O86 1.262 . S
C93 O88 1.259 . S
C93 O90 1.235 . S
O94 Co84 2.021 1_556 S
O94 C91 1.238 . S
O95 Co89 2.052 1_556 S
O95 C91 1.241 . S
O96 Co84 2.137 . S
O96 C87 1.247 . S
O97 Co84 2.244 . S
O97 C87 1.272 . S
O97 Co89 2.135 . S
Co98 O99 2.216 . S
Co98 O100 2.091 . S
Co98 O102 2.004 . S
Co98 O108 2.021 . S
Co98 O110 2.137 . S
Co98 O111 2.244 . S
O99 Co98 2.216 . S
O99 C106 1.247 . S
O100 Co98 2.091 . S
O100 C106 1.261 . S
C101 O110 1.247 . S
C101 O111 1.272 . S
O102 Co98 2.004 . S
O102 C107 1.259 . S
Co103 O104 2.061 . S
Co103 O109 2.052 . S
Co103 O111 2.135 . S
O104 Co103 2.061 . S
O104 C107 1.235 . S
C105 O108 1.238 . S
C105 O109 1.241 . S
C106 O99 1.247 . S
C106 O100 1.261 . S
C107 O102 1.259 . S
C107 O104 1.235 . S
O108 Co98 2.021 . S
O108 C105 1.238 . S
O109 Co103 2.052 . S
O109 C105 1.241 . S
O110 Co98 2.137 . S
O110 C101 1.247 . S
O111 Co98 2.244 . S
O111 C101 1.272 . S
O111 Co103 2.135 . S
Co112 O113 2.216 . S
Co112 O114 2.089 1_554 S
Co112 O116 2.004 . S
Co112 O122 2.021 1_554 S
Co112 O124 2.137 . S
Co112 O125 2.244 . S
O113 Co112 2.216 . S
O113 C120 1.247 1_554 S
O114 Co112 2.089 1_556 S
O114 C120 1.262 . S
C115 O124 1.247 . S
C115 O125 1.272 . S
O116 Co112 2.004 . S
O116 C121 1.259 . S
Co117 O118 2.061 . S
Co117 O123 2.052 1_554 S
Co117 O125 2.135 . S
O118 Co117 2.061 . S
O118 C121 1.235 . S
C119 O122 1.238 . S
C119 O123 1.241 . S
C120 O113 1.247 1_556 S
C120 O114 1.262 . S
C121 O116 1.259 . S
C121 O118 1.235 . S
O122 Co112 2.021 1_556 S
O122 C119 1.238 . S
O123 Co117 2.052 1_556 S
O123 C119 1.241 . S
O124 Co112 2.137 . S
O124 C115 1.247 . S
O125 Co112 2.244 . S
O125 C115 1.272 . S
O125 Co117 2.135 . S
Co126 O127 2.216 . S
Co126 O128 2.091 . S
Co126 O130 2.004 . S
Co126 O136 2.021 . S
Co126 O138 2.137 . S
Co126 O139 2.244 . S
O127 Co126 2.216 . S
O127 C134 1.247 . S
O128 Co126 2.091 . S
O128 C134 1.261 . S
C129 O138 1.247 . S
C129 O139 1.272 . S
O130 Co126 2.004 . S
O130 C135 1.259 . S
Co131 O132 2.061 . S
Co131 O137 2.052 . S
Co131 O139 2.135 . S
O132 Co131 2.061 . S
O132 C135 1.235 . S
C133 O136 1.238 . S
C133 O137 1.241 . S
C134 O127 1.247 . S
C134 O128 1.261 . S
C135 O130 1.259 . S
C135 O132 1.235 . S
O136 Co126 2.021 . S
O136 C133 1.238 . S
O137 Co131 2.052 . S
O137 C133 1.241 . S
O138 Co126 2.137 . S
O138 C129 1.247 . S
O139 Co126 2.244 . S
O139 C129 1.272 . S
O139 Co131 2.135 . S
Co140 O141 2.216 . S
Co140 O142 2.091 . S
Co140 O144 2.004 . S
Co140 O150 2.021 . S
Co140 O152 2.137 . S
Co140 O153 2.244 . S
O141 Co140 2.216 . S
O141 C148 1.247 . S
O142 Co140 2.091 . S
O142 C148 1.261 . S
C143 O152 1.247 . S
C143 O153 1.272 . S
O144 Co140 2.004 . S
O144 C149 1.259 . S
Co145 O146 2.061 . S
Co145 O151 2.052 . S
Co145 O153 2.135 . S
O146 Co145 2.061 . S
O146 C149 1.235 . S
C147 O150 1.238 . S
C147 O151 1.241 . S
C148 O141 1.247 . S
C148 O142 1.261 . S
C149 O144 1.259 . S
C149 O146 1.235 . S
O150 Co140 2.021 . S
O150 C147 1.238 . S
O151 Co145 2.052 . S
O151 C147 1.241 . S
O152 Co140 2.137 . S
O152 C143 1.247 . S
O153 Co140 2.244 . S
O153 C143 1.272 . S
O153 Co145 2.135 . S
Co154 O155 2.216 . S
Co154 O156 2.091 . S
Co154 O158 2.004 . S
Co154 O164 2.021 . S
Co154 O166 2.137 . S
Co154 O167 2.244 . S
O155 Co154 2.216 . S
O155 C162 1.247 . S
O156 Co154 2.091 . S
O156 C162 1.261 . S
C157 O166 1.247 . S
C157 O167 1.272 . S
O158 Co154 2.004 . S
O158 C163 1.259 . S
Co159 O160 2.061 . S
Co159 O165 2.052 . S
Co159 O167 2.135 . S
O160 Co159 2.061 . S
O160 C163 1.235 . S
C161 O164 1.238 . S
C161 O165 1.241 . S
C162 O155 1.247 . S
C162 O156 1.261 . S
C163 O158 1.259 . S
C163 O160 1.235 . S
O164 Co154 2.021 . S
O164 C161 1.238 . S
O165 Co159 2.052 . S
O165 C161 1.241 . S
O166 Co154 2.137 . S
O166 C157 1.247 . S
O167 Co154 2.244 . S
O167 C157 1.272 . S
O167 Co159 2.135 . S
Co168 O169 2.216 . S
Co168 O170 2.091 . S
Co168 O172 2.004 . S
Co168 O178 2.021 . S
Co168 O180 2.137 . S
Co168 O181 2.244 . S
O169 Co168 2.216 . S
O169 C176 1.247 . S
O170 Co168 2.091 . S
O170 C176 1.261 . S
C171 O180 1.247 . S
C171 O181 1.272 . S
O172 Co168 2.004 . S
O172 C177 1.259 . S
Co173 O174 2.061 . S
Co173 O179 2.052 . S
Co173 O181 2.135 . S
O174 Co173 2.061 . S
O174 C177 1.235 . S
C175 O178 1.238 . S
C175 O179 1.241 . S
C176 O169 1.247 . S
C176 O170 1.261 . S
C177 O172 1.259 . S
C177 O174 1.235 . S
O178 Co168 2.021 . S
O178 C175 1.238 . S
O179 Co173 2.052 . S
O179 C175 1.241 . S
O180 Co168 2.137 . S
O180 C171 1.247 . S
O181 Co168 2.244 . S
O181 C171 1.272 . S
O181 Co173 2.135 . S
Co182 O183 2.216 . S
Co182 O184 2.091 . S
Co182 O186 2.004 . S
Co182 O192 2.021 . S
Co182 O194 2.137 . S
Co182 O195 2.244 . S
O183 Co182 2.216 . S
O183 C190 1.247 . S
O184 Co182 2.091 . S
O184 C190 1.261 . S
C185 O194 1.247 . S
C185 O195 1.272 . S
O186 Co182 2.004 . S
O186 C191 1.259 . S
Co187 O188 2.061 . S
Co187 O193 2.052 . S
Co187 O195 2.135 . S
O188 Co187 2.061 . S
O188 C191 1.235 . S
C189 O192 1.238 . S
C189 O193 1.241 . S
C190 O183 1.247 . S
C190 O184 1.261 . S
C191 O186 1.259 . S
C191 O188 1.235 . S
O192 Co182 2.021 . S
O192 C189 1.238 . S
O193 Co187 2.052 . S
O193 C189 1.241 . S
O194 Co182 2.137 . S
O194 C185 1.247 . S
O195 Co182 2.244 . S
O195 C185 1.272 . S
O195 Co187 2.135 . S
Co196 O197 2.216 . S
Co196 O198 2.091 . S
Co196 O200 2.004 . S
Co196 O206 2.021 . S
Co196 O208 2.137 1_554 S
Co196 O209 2.244 1_554 S
O197 Co196 2.216 . S
O197 C204 1.247 . S
O198 Co196 2.091 . S
O198 C204 1.261 . S
C199 O208 1.247 . S
C199 O209 1.272 . S
O200 Co196 2.004 . S
O200 C205 1.259 . S
Co201 O202 2.061 . S
Co201 O207 2.052 . S
Co201 O209 2.135 1_554 S
O202 Co201 2.061 . S
O202 C205 1.235 . S
C203 O206 1.238 . S
C203 O207 1.241 . S
C204 O197 1.247 . S
C204 O198 1.261 . S
C205 O200 1.259 . S
C205 O202 1.235 . S
O206 Co196 2.021 . S
O206 C203 1.238 . S
O207 Co201 2.052 . S
O207 C203 1.241 . S
O208 Co196 2.137 1_556 S
O208 C199 1.247 . S
O209 Co196 2.244 1_556 S
O209 C199 1.272 . S
O209 Co201 2.135 1_556 S
Co210 O211 2.216 . S
Co210 O212 2.091 . S
Co210 O214 2.004 . S
Co210 O220 2.021 . S
Co210 O222 2.137 . S
Co210 O223 2.244 . S
O211 Co210 2.216 . S
O211 C218 1.247 . S
O212 Co210 2.091 . S
O212 C218 1.261 . S
C213 O222 1.247 . S
C213 O223 1.272 . S
O214 Co210 2.004 . S
O214 C219 1.259 . S
Co215 O216 2.061 . S
Co215 O221 2.052 . S
Co215 O223 2.135 . S
O216 Co215 2.061 . S
O216 C219 1.235 . S
C217 O220 1.238 1_554 S
C217 O221 1.241 1_554 S
C218 O211 1.247 . S
C218 O212 1.261 . S
C219 O214 1.259 . S
C219 O216 1.235 . S
O220 Co210 2.021 . S
O220 C217 1.238 1_556 S
O221 Co215 2.052 . S
O221 C217 1.241 1_556 S
O222 Co210 2.137 . S
O222 C213 1.247 . S
O223 Co210 2.244 . S
O223 C213 1.272 . S
O223 Co215 2.135 . S
Co224 O225 2.216 . S
Co224 O226 2.091 . S
Co224 O228 2.004 . S
Co224 O234 2.021 . S
Co224 O236 2.137 . S
Co224 O237 2.244 1_565 S
O225 Co224 2.216 . S
O225 C232 1.247 . S
O226 Co224 2.091 . S
O226 C232 1.261 . S
C227 O236 1.236 1_545 S
C227 O237 1.278 . S
O228 Co224 2.004 . S
O228 C233 1.259 . S
Co229 O230 2.061 . S
Co229 O235 2.052 . S
Co229 O237 2.135 . S
O230 Co229 2.061 . S
O230 C233 1.235 1_545 S
C231 O234 1.238 1_545 S
C231 O235 1.241 . S
C232 O225 1.247 . S
C232 O226 1.261 . S
C233 O228 1.259 . S
C233 O230 1.235 1_565 S
O234 Co224 2.021 . S
O234 C231 1.238 1_565 S
O235 Co229 2.052 . S
O235 C231 1.241 . S
O236 Co224 2.137 . S
O236 C227 1.236 1_565 S
O237 Co224 2.244 1_545 S
O237 C227 1.278 . S
O237 Co229 2.135 . S
Co238 O239 2.216 . S
Co238 O240 2.091 . S
Co238 O242 2.004 . S
Co238 O248 2.021 . S
Co238 O250 2.137 . S
Co238 O251 2.244 . S
O239 Co238 2.216 . S
O239 C246 1.247 . S
O240 Co238 2.091 . S
O240 C246 1.261 . S
C241 O250 1.247 . S
C241 O251 1.272 . S
O242 Co238 2.004 . S
O242 C247 1.259 . S
Co243 O244 2.061 . S
Co243 O249 2.052 . S
Co243 O251 2.135 . S
O244 Co243 2.061 . S
O244 C247 1.235 . S
C245 O248 1.238 1_554 S
C245 O249 1.241 1_554 S
C246 O239 1.247 . S
C246 O240 1.261 . S
C247 O242 1.259 . S
C247 O244 1.235 . S
O248 Co238 2.021 . S
O248 C245 1.238 1_556 S
O249 Co243 2.052 . S
O249 C245 1.241 1_556 S
O250 Co238 2.137 . S
O250 C241 1.247 . S
O251 Co238 2.244 . S
O251 C241 1.272 . S
O251 Co243 2.135 . S
Co252 O253 2.216 . S
Co252 O254 2.091 . S
Co252 O256 2.004 . S
Co252 O262 2.021 . S
Co252 O264 2.137 1_554 S
Co252 O265 2.244 1_544 S
O253 Co252 2.216 . S
O253 C260 1.247 . S
O254 Co252 2.091 . S
O254 C260 1.261 . S
C255 O264 1.236 1_565 S
C255 O265 1.278 . S
O256 Co252 2.004 . S
O256 C261 1.259 . S
Co257 O258 2.061 . S
Co257 O263 2.052 . S
Co257 O265 2.135 1_554 S
O258 Co257 2.061 . S
O258 C261 1.235 1_565 S
C259 O262 1.238 1_565 S
C259 O263 1.241 . S
C260 O253 1.247 . S
C260 O254 1.261 . S
C261 O256 1.259 . S
C261 O258 1.235 1_545 S
O262 Co252 2.021 . S
O262 C259 1.238 1_545 S
O263 Co257 2.052 . S
O263 C259 1.241 . S
O264 Co252 2.137 1_556 S
O264 C255 1.236 1_545 S
O265 Co252 2.244 1_566 S
O265 C255 1.278 . S
O265 Co257 2.135 1_556 S
Co266 O267 2.216 . S
Co266 O268 2.091 . S
Co266 O270 2.004 . S
Co266 O276 2.021 . S
Co266 O278 2.137 . S
Co266 O279 2.244 . S
O267 Co266 2.216 . S
O267 C274 1.247 . S
O268 Co266 2.091 . S
O268 C274 1.261 . S
C269 O278 1.247 . S
C269 O279 1.272 . S
O270 Co266 2.004 . S
O270 C275 1.259 . S
Co271 O272 2.061 . S
Co271 O277 2.052 . S
Co271 O279 2.135 . S
O272 Co271 2.061 . S
O272 C275 1.235 . S
C273 O276 1.238 . S
C273 O277 1.241 . S
C274 O267 1.247 . S
C274 O268 1.261 . S
C275 O270 1.259 . S
C275 O272 1.235 . S
O276 Co266 2.021 . S
O276 C273 1.238 . S
O277 Co271 2.052 . S
O277 C273 1.241 . S
O278 Co266 2.137 . S
O278 C269 1.247 . S
O279 Co266 2.244 . S
O279 C269 1.272 . S
O279 Co271 2.135 . S
Co280 O281 2.216 . S
Co280 O282 2.089 1_554 S
Co280 O284 2.004 . S
Co280 O290 2.021 1_554 S
Co280 O292 2.137 . S
Co280 O293 2.244 1_545 S
O281 Co280 2.216 . S
O281 C288 1.247 1_554 S
O282 Co280 2.089 1_556 S
O282 C288 1.262 . S
C283 O292 1.236 1_565 S
C283 O293 1.278 . S
O284 Co280 2.004 . S
O284 C289 1.259 . S
Co285 O286 2.061 . S
Co285 O291 2.052 1_554 S
Co285 O293 2.135 . S
O286 Co285 2.061 . S
O286 C289 1.235 1_565 S
C287 O290 1.238 1_565 S
C287 O291 1.241 . S
C288 O281 1.247 1_556 S
C288 O282 1.262 . S
C289 O284 1.259 . S
C289 O286 1.235 1_545 S
O290 Co280 2.021 1_556 S
O290 C287 1.238 1_545 S
O291 Co285 2.052 1_556 S
O291 C287 1.241 . S
O292 Co280 2.137 . S
O292 C283 1.236 1_545 S
O293 Co280 2.244 1_565 S
O293 C283 1.278 . S
O293 Co285 2.135 . S
Co294 O295 2.216 . S
Co294 O296 2.091 . S
Co294 O298 2.004 . S
Co294 O304 2.021 . S
Co294 O306 2.137 . S
Co294 O307 2.244 . S
O295 Co294 2.216 . S
O295 C302 1.247 . S
O296 Co294 2.091 . S
O296 C302 1.261 . S
C297 O306 1.247 . S
C297 O307 1.272 . S
O298 Co294 2.004 . S
O298 C303 1.259 . S
Co299 O300 2.061 . S
Co299 O305 2.052 . S
Co299 O307 2.135 . S
O300 Co299 2.061 . S
O300 C303 1.235 . S
C301 O304 1.238 . S
C301 O305 1.241 . S
C302 O295 1.247 . S
C302 O296 1.261 . S
C303 O298 1.259 . S
C303 O300 1.235 . S
O304 Co294 2.021 . S
O304 C301 1.238 . S
O305 Co299 2.052 . S
O305 C301 1.241 . S
O306 Co294 2.137 . S
O306 C297 1.247 . S
O307 Co294 2.244 . S
O307 C297 1.272 . S
O307 Co299 2.135 . S
Co308 O309 2.216 . S
Co308 O310 2.091 . S
Co308 O312 2.004 . S
Co308 O318 2.021 . S
Co308 O320 2.137 . S
Co308 O321 2.244 1_565 S
O309 Co308 2.216 . S
O309 C316 1.247 . S
O310 Co308 2.091 . S
O310 C316 1.261 . S
C311 O320 1.235 1_545 S
C311 O321 1.278 . S
O312 Co308 2.004 . S
O312 C317 1.259 . S
Co313 O314 2.061 . S
Co313 O319 2.052 . S
Co313 O321 2.135 . S
O314 Co313 2.061 . S
O314 C317 1.235 1_545 S
C315 O318 1.238 1_545 S
C315 O319 1.241 . S
C316 O309 1.247 . S
C316 O310 1.261 . S
C317 O312 1.259 . S
C317 O314 1.235 1_565 S
O318 Co308 2.021 . S
O318 C315 1.238 1_565 S
O319 Co313 2.052 . S
O319 C315 1.241 . S
O320 Co308 2.137 . S
O320 C311 1.235 1_565 S
O321 Co308 2.244 1_545 S
O321 C311 1.278 . S
O321 Co313 2.135 . S
Co322 O323 2.216 . S
Co322 O324 2.091 . S
Co322 O326 2.004 . S
Co322 O332 2.021 . S
Co322 O334 2.137 . S
Co322 O335 2.244 . S
O323 Co322 2.216 . S
O323 C330 1.247 . S
O324 Co322 2.091 . S
O324 C330 1.261 . S
C325 O334 1.247 . S
C325 O335 1.272 . S
O326 Co322 2.004 . S
O326 C331 1.259 . S
Co327 O328 2.061 . S
Co327 O333 2.052 . S
Co327 O335 2.135 . S
O328 Co327 2.061 . S
O328 C331 1.235 . S
C329 O332 1.238 . S
C329 O333 1.241 . S
C330 O323 1.247 . S
C330 O324 1.261 . S
C331 O326 1.259 . S
C331 O328 1.235 . S
O332 Co322 2.021 . S
O332 C329 1.238 . S
O333 Co327 2.052 . S
O333 C329 1.241 . S
O334 Co322 2.137 . S
O334 C325 1.247 . S
O335 Co322 2.244 . S
O335 C325 1.272 . S
O335 Co327 2.135 . S
Co336 O337 2.216 . S
Co336 O338 2.091 . S
Co336 O340 2.004 . S
Co336 O346 2.021 . S
Co336 O348 2.137 . S
Co336 O349 2.244 1_545 S
O337 Co336 2.216 . S
O337 C344 1.247 . S
O338 Co336 2.091 . S
O338 C344 1.261 . S
C339 O348 1.235 1_565 S
C339 O349 1.278 . S
O340 Co336 2.004 . S
O340 C345 1.259 . S
Co341 O342 2.061 . S
Co341 O347 2.052 . S
Co341 O349 2.135 . S
O342 Co341 2.061 . S
O342 C345 1.235 1_565 S
C343 O346 1.238 1_565 S
C343 O347 1.241 . S
C344 O337 1.247 . S
C344 O338 1.261 . S
C345 O340 1.259 . S
C345 O342 1.235 1_545 S
O346 Co336 2.021 . S
O346 C343 1.238 1_545 S
O347 Co341 2.052 . S
O347 C343 1.241 . S
O348 Co336 2.137 . S
O348 C339 1.235 1_545 S
O349 Co336 2.244 1_565 S
O349 C339 1.278 . S
O349 Co341 2.135 . S
Co350 O351 2.216 . S
Co350 O352 2.091 . S
Co350 O354 2.004 . S
Co350 O360 2.021 . S
Co350 O362 2.137 . S
Co350 O363 2.244 . S
O351 Co350 2.216 . S
O351 C358 1.247 . S
O352 Co350 2.091 . S
O352 C358 1.261 . S
C353 O362 1.247 . S
C353 O363 1.272 . S
O354 Co350 2.004 . S
O354 C359 1.259 . S
Co355 O356 2.061 . S
Co355 O361 2.052 . S
Co355 O363 2.135 . S
O356 Co355 2.061 . S
O356 C359 1.235 . S
C357 O360 1.238 . S
C357 O361 1.241 . S
C358 O351 1.247 . S
C358 O352 1.261 . S
C359 O354 1.259 . S
C359 O356 1.235 . S
O360 Co350 2.021 . S
O360 C357 1.238 . S
O361 Co355 2.052 . S
O361 C357 1.241 . S
O362 Co350 2.137 . S
O362 C353 1.247 . S
O363 Co350 2.244 . S
O363 C353 1.272 . S
O363 Co355 2.135 . S
Co364 O365 2.216 . S
Co364 O366 2.089 1_554 S
Co364 O368 2.004 . S
Co364 O374 2.021 1_554 S
Co364 O376 2.137 . S
Co364 O377 2.244 1_565 S
O365 Co364 2.216 . S
O365 C372 1.247 1_554 S
O366 Co364 2.089 1_556 S
O366 C372 1.262 . S
C367 O376 1.236 1_545 S
C367 O377 1.278 . S
O368 Co364 2.004 . S
O368 C373 1.259 . S
Co369 O370 2.061 . S
Co369 O375 2.052 1_554 S
Co369 O377 2.135 . S
O370 Co369 2.061 . S
O370 C373 1.235 1_545 S
C371 O374 1.238 1_545 S
C371 O375 1.241 . S
C372 O365 1.247 1_556 S
C372 O366 1.262 . S
C373 O368 1.259 . S
C373 O370 1.235 1_565 S
O374 Co364 2.021 1_556 S
O374 C371 1.238 1_565 S
O375 Co369 2.052 1_556 S
O375 C371 1.241 . S
O376 Co364 2.137 . S
O376 C367 1.236 1_565 S
O377 Co364 2.244 1_545 S
O377 C367 1.278 . S
O377 Co369 2.135 . S
Co378 O379 2.216 . S
Co378 O380 2.091 . S
Co378 O382 2.004 . S
Co378 O388 2.021 . S
Co378 O390 2.137 . S
Co378 O391 2.244 . S
O379 Co378 2.216 . S
O379 C386 1.247 . S
O380 Co378 2.091 . S
O380 C386 1.261 . S
C381 O390 1.247 . S
C381 O391 1.272 . S
O382 Co378 2.004 . S
O382 C387 1.259 . S
Co383 O384 2.061 . S
Co383 O389 2.052 . S
Co383 O391 2.135 . S
O384 Co383 2.061 . S
O384 C387 1.235 . S
C385 O388 1.238 . S
C385 O389 1.241 . S
C386 O379 1.247 . S
C386 O380 1.261 . S
C387 O382 1.259 . S
C387 O384 1.235 . S
O388 Co378 2.021 . S
O388 C385 1.238 . S
O389 Co383 2.052 . S
O389 C385 1.241 . S
O390 Co378 2.137 . S
O390 C381 1.247 . S
O391 Co378 2.244 . S
O391 C381 1.272 . S
O391 Co383 2.135 . S
Co392 O393 2.216 . S
Co392 O394 2.091 . S
Co392 O396 2.004 . S
Co392 O402 2.021 . S
Co392 O404 2.137 1_554 S
Co392 O405 2.244 1_564 S
O393 Co392 2.216 . S
O393 C400 1.247 . S
O394 Co392 2.091 . S
O394 C400 1.261 . S
C395 O404 1.236 1_545 S
C395 O405 1.278 . S
O396 Co392 2.004 . S
O396 C401 1.259 . S
Co397 O398 2.061 . S
Co397 O403 2.052 . S
Co397 O405 2.135 1_554 S
O398 Co397 2.061 . S
O398 C401 1.235 1_545 S
C399 O402 1.238 1_545 S
C399 O403 1.241 . S
C400 O393 1.247 . S
C400 O394 1.261 . S
C401 O396 1.259 . S
C401 O398 1.235 1_565 S
O402 Co392 2.021 . S
O402 C399 1.238 1_565 S
O403 Co397 2.052 . S
O403 C399 1.241 . S
O404 Co392 2.137 1_556 S
O404 C395 1.236 1_565 S
O405 Co392 2.244 1_546 S
O405 C395 1.278 . S
O405 Co397 2.135 1_556 S
Co406 O407 2.216 . S
Co406 O408 2.091 . S
Co406 O410 2.004 . S
Co406 O416 2.021 . S
Co406 O418 2.137 . S
Co406 O419 2.244 . S
O407 Co406 2.216 . S
O407 C414 1.247 . S
O408 Co406 2.091 . S
O408 C414 1.261 . S
C409 O418 1.247 . S
C409 O419 1.272 . S
O410 Co406 2.004 . S
O410 C415 1.259 . S
Co411 O412 2.061 . S
Co411 O417 2.052 . S
Co411 O419 2.135 . S
O412 Co411 2.061 . S
O412 C415 1.235 . S
C413 O416 1.238 1_554 S
C413 O417 1.241 1_554 S
C414 O407 1.247 . S
C414 O408 1.261 . S
C415 O410 1.259 . S
C415 O412 1.235 . S
O416 Co406 2.021 . S
O416 C413 1.238 1_556 S
O417 Co411 2.052 . S
O417 C413 1.241 1_556 S
O418 Co406 2.137 . S
O418 C409 1.247 . S
O419 Co406 2.244 . S
O419 C409 1.272 . S
O419 Co411 2.135 . S
Co420 O421 2.216 . S
Co420 O422 2.091 . S
Co420 O424 2.004 . S
Co420 O430 2.021 . S
Co420 O432 2.137 . S
Co420 O433 2.244 1_545 S
O421 Co420 2.216 . S
O421 C428 1.247 . S
O422 Co420 2.091 . S
O422 C428 1.261 . S
C423 O432 1.236 1_565 S
C423 O433 1.278 . S
O424 Co420 2.004 . S
O424 C429 1.259 . S
Co425 O426 2.061 . S
Co425 O431 2.052 . S
Co425 O433 2.135 . S
O426 Co425 2.061 . S
O426 C429 1.235 1_565 S
C427 O430 1.238 1_565 S
C427 O431 1.241 . S
C428 O421 1.247 . S
C428 O422 1.261 . S
C429 O424 1.259 . S
C429 O426 1.235 1_545 S
O430 Co420 2.021 . S
O430 C427 1.238 1_545 S
O431 Co425 2.052 . S
O431 C427 1.241 . S
O432 Co420 2.137 . S
O432 C423 1.236 1_545 S
O433 Co420 2.244 1_565 S
O433 C423 1.278 . S
O433 Co425 2.135 . S
Co434 O435 2.216 . S
Co434 O436 2.091 . S
Co434 O438 2.004 . S
Co434 O444 2.021 . S
Co434 O446 2.137 . S
Co434 O447 2.244 . S
O435 Co434 2.216 . S
O435 C442 1.247 . S
O436 Co434 2.091 . S
O436 C442 1.261 . S
C437 O446 1.247 . S
C437 O447 1.272 . S
O438 Co434 2.004 . S
O438 C443 1.259 . S
Co439 O440 2.061 . S
Co439 O445 2.052 . S
Co439 O447 2.135 . S
O440 Co439 2.061 . S
O440 C443 1.235 . S
C441 O444 1.238 . S
C441 O445 1.241 . S
C442 O435 1.247 . S
C442 O436 1.261 . S
C443 O438 1.259 . S
C443 O440 1.235 . S
O444 Co434 2.021 . S
O444 C441 1.238 . S
O445 Co439 2.052 . S
O445 C441 1.241 . S
O446 Co434 2.137 . S
O446 C437 1.247 . S
O447 Co434 2.244 . S
O447 C437 1.272 . S
O447 Co439 2.135 . S
C121 C9 1.383 1_655 S
C23 C359 1.383 . S
C37 C149 1.383 . S
C51 C387 1.383 . S
C65 C177 1.383 1_455 S
C415 C79 1.383 . S
C205 C93 1.383 . S
C443 C107 1.383 . S
C247 C135 1.383 . S
C163 C275 1.383 . S
C191 C303 1.383 . S
C331 C219 1.383 . S
C345 C233 1.383 1_545 S
C261 C373 1.383 1_645 S
C289 C401 1.383 1_545 S
C429 C317 1.383 1_445 S
C3 C59 1.439 . S
C73 C17 1.439 1_556 S
C87 C31 1.439 . S
C45 C101 1.439 . S
C115 C171 1.439 . S
C129 C185 1.439 1_556 S
C199 C143 1.439 . S
C213 C157 1.439 . S
C283 C227 1.439 1_565 S
C297 C241 1.439 . S
C255 C311 1.439 1_565 S
C325 C269 1.439 1_556 S
C395 C339 1.439 1_545 S
C353 C409 1.439 . S
C423 C367 1.439 1_565 S
C437 C381 1.439 1_554 S
C63 C7 1.869 . S
C77 C21 1.868 . S
C35 C91 1.868 . S
C105 C49 1.868 . S
C175 C119 1.868 . S
C133 C189 1.868 . S
C203 C147 1.869 . S
C217 C161 1.868 . S
C231 C287 1.868 1_545 S
C301 C245 1.869 . S
C315 C259 1.868 1_545 S
C329 C273 1.869 . S
C399 C343 1.868 1_545 S
C357 C413 1.869 . S
C371 C427 1.868 1_545 S
C385 C441 1.869 . S
C8 C302 1.969 . S
C316 C22 1.969 . S
C36 C330 1.969 . S
C50 C288 1.969 . S
C274 C64 1.969 . S
C232 C78 1.969 . S
C246 C92 1.970 . S
C106 C260 1.970 . S
C120 C414 1.970 . S
C428 C134 1.969 . S
C442 C148 1.969 . S
C400 C162 1.970 . S
C386 C176 1.969 . S
C344 C190 1.969 . S
C204 C358 1.969 . S
C218 C372 1.969 . S
