# Generated by pormake.
# Topology unh, (4)-cn, num edge types: 1
# Building blocks:
#     Node 0, Type 0, BuildingBlock: KOZSID_clean_sbu_0, # of connection points: 4
#     Node 1, Type 0, BuildingBlock: KOZSID_clean_sbu_0, # of connection points: 4
#     Node 2, Type 0, BuildingBlock: KOZSID_clean_sbu_0, # of connection points: 4
#     Node 3, Type 0, BuildingBlock: KOZSID_clean_sbu_0, # of connection points: 4
#     Node 4, Type 0, BuildingBlock: KOZSID_clean_sbu_0, # of connection points: 4
#     Node 5, Type 0, BuildingBlock: KOZSID_clean_sbu_0, # of connection points: 4
#     Edge 6, Type (0, 0), BuildingBlock: FUNLAD_clean_linker_0, # of connection points: 2
#     Edge 7, Type (0, 0), BuildingBlock: FUNLAD_clean_linker_0, # of connection points: 2
#     Edge 8, Type (0, 0), BuildingBlock: FUNLAD_clean_linker_0, # of connection points: 2
#     Edge 9, Type (0, 0), BuildingBlock: FUNLAD_clean_linker_0, # of connection points: 2
#     Edge 10, Type (0, 0), BuildingBlock: FUNLAD_clean_linker_0, # of connection points: 2
#     Edge 11, Type (0, 0), BuildingBlock: FUNLAD_clean_linker_0, # of connection points: 2
#     Edge 12, Type (0, 0), BuildingBlock: FUNLAD_clean_linker_0, # of connection points: 2
#     Edge 13, Type (0, 0), BuildingBlock: FUNLAD_clean_linker_0, # of connection points: 2
#     Edge 14, Type (0, 0), BuildingBlock: FUNLAD_clean_linker_0, # of connection points: 2
#     Edge 15, Type (0, 0), BuildingBlock: FUNLAD_clean_linker_0, # of connection points: 2
#     Edge 16, Type (0, 0), BuildingBlock: FUNLAD_clean_linker_0, # of connection points: 2
#     Edge 17, Type (0, 0), BuildingBlock: FUNLAD_clean_linker_0, # of connection points: 2
# Relax obj value: 0.012
# Max RMSD: 0.273
# Mean RMSD: 0.251
data_MOF--net-unh--node1-KOZSID_clean_sbu_0--edge1-FUNLAD_clean_linker_0
_symmetry_space_group_name_H-M    P1
_symmetry_Int_Tables_number       1
_symmetry_cell_setting            triclinic
loop_
_symmetry_equiv_pos_as_xyz
'x, y, z'
_cell_length_a     61.417875
_cell_length_b     66.618999
_cell_length_c     25.888949
_cell_angle_alpha  90.16251
_cell_angle_beta   89.769809
_cell_angle_gamma 120.08657
loop_
_atom_site_label
_atom_site_type_symbol
_atom_site_fract_x
_atom_site_fract_y
_atom_site_fract_z
_atom_type_partial_charge
C0 C 0.21422 0.60771 0.17375 0.0
C1 C 0.22568 0.62681 0.20634 0.0
C2 C 0.21768 0.64173 0.19128 0.0
C3 C 0.20175 0.63094 0.1506 0.0
N4 N 0.19878 0.60992 0.13964 0.0
Co5 Co 0.17863 0.58951 0.08138 0.0
N6 N 0.16122 0.60757 0.06981 0.0
C7 C 0.16871 0.62904 0.08767 0.0
C8 C 0.15286 0.63704 0.07362 0.0
C9 C 0.13428 0.61952 0.04491 0.0
C10 C 0.13991 0.60181 0.04302 0.0
N11 N 0.15869 0.56932 0.02289 0.0
C12 C 0.13769 0.56688 1.0001 0.0
C13 C 0.12995 0.55094 0.95989 0.0
C14 C 0.14671 0.54312 0.95757 0.0
C15 C 0.16368 0.5547 0.99625 0.0
N16 N 0.19585 0.57124 0.09238 0.0
C17 C 0.19604 0.55575 0.05901 0.0
C18 C 0.20961 0.54589 0.07615 0.0
C19 C 0.21902 0.55608 0.12285 0.0
C20 C 0.2107 0.57176 0.13161 0.0
N21 N 0.15195 0.5694 0.13018 0.0
C22 C 0.11374 0.54162 0.20076 0.0
C23 C 0.12289 0.53164 0.1653 0.0
C24 C 0.14178 0.54581 0.12987 0.0
C25 C 0.12418 0.5657 0.20025 0.0
C26 C 0.14336 0.57922 0.16533 0.0
N27 N 0.20547 0.61018 0.03332 0.0
C28 C 0.24967 0.63682 0.01942 0.0
C29 C 0.24431 0.64743 0.97868 0.0
C30 C 0.21912 0.63767 0.96319 0.0
C31 C 0.20004 0.61892 0.99062 0.0
C32 C 0.23011 0.61829 0.04589 0.0
H33 H 0.18081 0.61227 0.97876 0.0
H34 H 0.23508 0.6115 0.07839 0.0
H35 H 0.14812 0.53769 0.10227 0.0
H36 H 0.15121 0.5977 0.16695 0.0
C37 C 0.18796 0.63922 0.12425 0.0
C38 C 0.22103 0.58947 0.17243 0.0
C39 C 0.12552 0.5803 1.01338 0.0
C40 C 0.18153 0.54938 0.01424 0.0
H41 H 0.2391 0.62995 0.23669 0.0
H42 H 0.22288 0.65845 0.208 0.0
H43 H 0.15406 0.65324 0.08466 0.0
H44 H 0.11843 0.61975 0.02743 0.0
H45 H 0.11388 0.54554 0.93483 0.0
H46 H 0.14598 0.52988 0.93213 0.0
H47 H 0.21231 0.53283 0.05703 0.0
H48 H 0.23152 0.55302 0.14656 0.0
H49 H 0.11523 0.51304 0.16443 0.0
H50 H 0.11783 0.57411 0.22737 0.0
H51 H 0.26875 0.64362 0.03305 0.0
H52 H 0.21407 0.64489 0.93107 0.0
C53 C 0.61812 0.19007 0.36588 0.0
C54 C 0.60816 0.19927 0.40063 0.0
C55 C 0.58375 0.19124 0.38629 0.0
C56 C 0.58008 0.17747 0.34399 0.0
N57 N 0.60045 0.17578 0.33142 0.0
Co58 Co 0.60307 0.15837 0.27114 0.0
N59 N 0.56602 0.14192 0.25911 0.0
C60 C 0.5497 0.14781 0.27885 0.0
C61 C 0.52527 0.13303 0.26413 0.0
C62 C 0.52628 0.1168 0.23308 0.0
C63 C 0.55133 0.12263 0.23074 0.0
N64 N 0.60566 0.1414 0.21018 0.0
C65 C 0.58758 0.12241 0.18549 0.0
C66 C 0.59768 0.11593 0.14502 0.0
C67 C 0.62294 0.1315 0.14427 0.0
C68 C 0.62685 0.14649 0.18423 0.0
N69 N 0.64016 0.17436 0.28354 0.0
C70 C 0.65744 0.17468 0.25075 0.0
C71 C 0.6816 0.18719 0.26864 0.0
C72 C 0.67966 0.19585 0.31518 0.0
C73 C 0.65426 0.18817 0.32316 0.0
N74 N 0.59819 0.13289 0.31681 0.0
C75 C 0.58798 0.09438 0.37852 0.0
C76 C 0.60703 0.10269 0.34081 0.0
C77 C 0.61193 0.12202 0.31066 0.0
C78 C 0.5745 0.10605 0.38494 0.0
C79 C 0.57983 0.12509 0.35391 0.0
N80 N 0.60739 0.18383 0.22568 0.0
C81 C 0.62483 0.22491 0.21282 0.0
C82 C 0.6076 0.22084 0.17347 0.0
C83 C 0.59127 0.19783 0.1584 0.0
C84 C 0.5918 0.1796 0.18434 0.0
C85 C 0.62439 0.2063 0.23824 0.0
H86 H 0.57894 0.16209 0.17207 0.0
H87 H 0.63724 0.21035 0.26943 0.0
H88 H 0.62658 0.12792 0.28191 0.0
H89 H 0.56858 0.13312 0.35941 0.0
C90 C 0.5574 0.16474 0.31732 0.0
C91 C 0.64522 0.19833 0.36237 0.0
C92 C 0.56075 0.11049 0.19848 0.0
C93 C 0.65027 0.16224 0.20459 0.0
H94 H 0.61793 0.2114 0.43164 0.0
H95 H 0.57035 0.19511 0.40435 0.0
H96 H 0.5086 0.13344 0.27612 0.0
H97 H 0.51044 0.10237 0.21424 0.0
H98 H 0.58793 0.10129 0.11918 0.0
H99 H 0.63694 0.13113 0.11939 0.0
H100 H 0.69865 0.18998 0.24975 0.0
H101 H 0.69541 0.20753 0.33895 0.0
H102 H 0.61812 0.09438 0.3347 0.0
H103 H 0.55934 0.10014 0.41285 0.0
H104 H 0.63784 0.24238 0.22583 0.0
H105 H 0.57795 0.19393 0.12735 0.0
C106 C 0.43209 0.60311 0.34738 0.0
C107 C 0.43984 0.62319 0.31881 0.0
C108 C 0.46359 0.63885 0.33512 0.0
C109 C 0.46902 0.62757 0.37267 0.0
N110 N 0.45045 0.60552 0.38045 0.0
Co111 Co 0.45018 0.58428 0.43531 0.0
N112 N 0.48677 0.60487 0.45017 0.0
C113 C 0.50112 0.627 0.43455 0.0
C114 C 0.52558 0.63704 0.45111 0.0
C115 C 0.52673 0.62023 0.47932 0.0
C116 C 0.50282 0.60084 0.47834 0.0
N117 N 0.44966 0.56329 0.4907 0.0
C118 C 0.46886 0.56289 0.51539 0.0
C119 C 0.45992 0.54508 0.55152 0.0
C120 C 0.43428 0.53407 0.54965 0.0
C121 C 0.42899 0.54565 0.51263 0.0
N122 N 0.41367 0.5633 0.42014 0.0
C123 C 0.39736 0.54475 0.44819 0.0
C124 C 0.37373 0.53285 0.42729 0.0
C125 C 0.37493 0.54489 0.38377 0.0
C126 C 0.39927 0.56369 0.38096 0.0
N127 N 0.45885 0.56772 0.38346 0.0
C128 C 0.47163 0.54513 0.30704 0.0
C129 C 0.45319 0.5324 0.34445 0.0
C130 C 0.44704 0.544 0.38214 0.0
C131 C 0.48372 0.56938 0.3095 0.0
C132 C 0.47714 0.58023 0.3477 0.0
N133 N 0.44204 0.60154 0.48655 0.0
C134 C 0.42227 0.62437 0.50262 0.0
C135 C 0.43903 0.63623 0.54285 0.0
C136 C 0.4556 0.62856 0.55789 0.0
C137 C 0.45658 0.611 0.52959 0.0
C138 C 0.42406 0.6072 0.47533 0.0
H139 H 0.47015 0.6061 0.54087 0.0
H140 H 0.41181 0.5996 0.44317 0.0
H141 H 0.43265 0.53373 0.40995 0.0
H142 H 0.487 0.59885 0.34806 0.0
C143 C 0.4917 0.63671 0.39966 0.0
C144 C 0.40607 0.58361 0.34711 0.0
C145 C 0.49563 0.57971 0.50815 0.0
C146 C 0.40529 0.53799 0.49165 0.0
H147 H 0.42911 0.62649 0.29052 0.0
H148 H 0.47536 0.65647 0.32161 0.0
H149 H 0.54089 0.65433 0.44276 0.0
H150 H 0.54317 0.62209 0.49896 0.0
H151 H 0.47078 0.54046 0.5766 0.0
H152 H 0.4211 0.51884 0.57117 0.0
H153 H 0.35754 0.51732 0.44199 0.0
H154 H 0.35933 0.54104 0.35843 0.0
H155 H 0.44324 0.51362 0.34411 0.0
H156 H 0.49845 0.58005 0.2823 0.0
H157 H 0.4084 0.62892 0.49077 0.0
H158 H 0.46868 0.63687 0.58934 0.0
C159 C 0.84796 0.438 0.67015 0.0
C160 C 0.8353 0.41899 0.70253 0.0
C161 C 0.84346 0.40386 0.69014 0.0
C162 C 0.86059 0.41441 0.65098 0.0
N163 N 0.8642 0.4355 0.63849 0.0
Co164 Co 0.88572 0.4553 0.58029 0.0
N165 N 0.90258 0.43649 0.57171 0.0
C166 C 0.89453 0.41526 0.59161 0.0
C167 C 0.90962 0.40627 0.57853 0.0
C168 C 0.92829 0.4228 0.5481 0.0
C169 C 0.9235 0.441 0.54434 0.0
N170 N 0.90677 0.47484 0.5217 0.0
C171 C 0.92737 0.47615 0.49898 0.0
C172 C 0.93634 0.49239 0.45931 0.0
C173 C 0.92074 0.50142 0.45686 0.0
C174 C 0.90323 0.49031 0.49501 0.0
N175 N 0.86926 0.47445 0.58885 0.0
C176 C 0.871 0.49087 0.55602 0.0
C177 C 0.85853 0.50193 0.57265 0.0
C178 C 0.84775 0.49159 0.61847 0.0
C179 C 0.85405 0.47453 0.62691 0.0
N180 N 0.91197 0.47532 0.62973 0.0
C181 C 0.95018 0.50272 0.70071 0.0
C182 C 0.94364 0.51298 0.66087 0.0
C183 C 0.92444 0.49899 0.62597 0.0
C184 C 0.93711 0.47848 0.70393 0.0
C185 C 0.91827 0.46523 0.66839 0.0
N186 N 0.85935 0.43452 0.53166 0.0
C187 C 0.81536 0.40677 0.51986 0.0
C188 C 0.82111 0.3948 0.48266 0.0
C189 C 0.84629 0.40472 0.46658 0.0
C190 C 0.86505 0.42472 0.4911 0.0
C191 C 0.83463 0.42659 0.54332 0.0
H192 H 0.88431 0.43131 0.47937 0.0
H193 H 0.82948 0.43439 0.57358 0.0
H194 H 0.9198 0.50735 0.59589 0.0
H195 H 0.90902 0.4467 0.67211 0.0
C196 C 0.87465 0.40571 0.62711 0.0
C197 C 0.84142 0.45635 0.66598 0.0
C198 C 0.93798 0.46133 0.51116 0.0
C199 C 0.88621 0.49682 0.51231 0.0
H200 H 0.82098 0.41602 0.73087 0.0
H201 H 0.83748 0.3871 0.70739 0.0
H202 H 0.90763 0.38988 0.59058 0.0
H203 H 0.9435 0.42152 0.53017 0.0
H204 H 0.95247 0.49723 0.43459 0.0
H205 H 0.92258 0.51513 0.43168 0.0
H206 H 0.85747 0.5159 0.5538 0.0
H207 H 0.83562 0.4954 0.64188 0.0
H208 H 0.95311 0.53166 0.65688 0.0
H209 H 0.94173 0.46963 0.73317 0.0
H210 H 0.79628 0.40007 0.5336 0.0
H211 H 0.85164 0.39663 0.43665 0.0
C212 C 0.44702 0.85217 0.85565 0.0
C213 C 0.45761 0.84708 0.8971 0.0
C214 C 0.48213 0.86492 0.90034 0.0
C215 C 0.48505 0.87985 0.86083 0.0
N216 N 0.46389 0.8725 0.83331 0.0
Co217 Co 0.45975 0.8876 0.77114 0.0
N218 N 0.49668 0.90603 0.75917 0.0
C219 C 0.51446 0.90968 0.79435 0.0
C220 C 0.53847 0.92387 0.77646 0.0
C221 C 0.53566 0.92994 0.72744 0.0
C222 C 0.50997 0.9192 0.71814 0.0
N223 N 0.45517 0.90225 0.70838 0.0
C224 C 0.4718 0.91518 0.67085 0.0
C225 C 0.46049 0.92252 0.63493 0.0
C226 C 0.43628 0.91438 0.65116 0.0
C227 C 0.43402 0.90251 0.69584 0.0
N228 N 0.42299 0.86959 0.78404 0.0
C229 C 0.4056 0.87415 0.765 0.0
C230 C 0.38154 0.85804 0.77965 0.0
C231 C 0.38402 0.84234 0.80955 0.0
C232 C 0.40956 0.84987 0.81151 0.0
N233 N 0.46225 0.91305 0.81425 0.0
C234 C 0.47352 0.95013 0.88207 0.0
C235 C 0.48164 0.9541 0.83045 0.0
C236 C 0.47601 0.93549 0.79758 0.0
C237 C 0.45797 0.927 0.89773 0.0
C238 C 0.45234 0.90879 0.86313 0.0
N239 N 0.4576 0.86206 0.72935 0.0
C240 C 0.43385 0.8287 0.67467 0.0
C241 C 0.45048 0.82057 0.68557 0.0
C242 C 0.4715 0.83445 0.7162 0.0
C243 C 0.47475 0.85502 0.7374 0.0
C244 C 0.43778 0.84952 0.69685 0.0
H245 H 0.49065 0.86467 0.76232 0.0
H246 H 0.42426 0.85498 0.68945 0.0
H247 H 0.48371 0.93946 0.7592 0.0
H248 H 0.44083 0.89121 0.8767 0.0
C249 C 0.50798 0.89766 0.84152 0.0
C250 C 0.42069 0.8382 0.83962 0.0
C251 C 0.49914 0.9243 0.67277 0.0
C252 C 0.4119 0.88997 0.7246 0.0
H253 H 0.44862 0.832 0.92192 0.0
H254 H 0.49644 0.86613 0.9265 0.0
H255 H 0.55595 0.92904 0.79644 0.0
H256 H 0.55078 0.94154 0.70201 0.0
H257 H 0.46908 0.93352 0.60165 0.0
H258 H 0.42205 0.91688 0.63262 0.0
H259 H 0.36416 0.85692 0.76722 0.0
H260 H 0.36873 0.8269 0.82679 0.0
H261 H 0.49284 0.97153 0.81547 0.0
H262 H 0.45102 0.92286 0.93699 0.0
H263 H 0.41738 0.81863 0.65094 0.0
H264 H 0.48525 0.82926 0.7246 0.0
C265 C 0.62792 0.44276 0.83428 0.0
C266 C 0.61902 0.42351 0.80227 0.0
C267 C 0.59496 0.4083 0.81791 0.0
C268 C 0.59048 0.4191 0.85834 0.0
N269 N 0.60998 0.44045 0.86858 0.0
Co270 Co 0.61176 0.46068 0.92733 0.0
N271 N 0.57495 0.44124 0.94204 0.0
C272 C 0.55947 0.41978 0.92365 0.0
C273 C 0.53498 0.41085 0.93955 0.0
C274 C 0.53501 0.4277 0.97011 0.0
C275 C 0.55964 0.44597 0.97133 0.0
N276 N 0.61367 0.48047 0.98686 0.0
C277 C 0.59512 0.48143 1.01327 0.0
C278 C 0.60487 0.4974 0.05342 0.0
C279 C 0.63041 0.50689 0.05177 0.0
C280 C 0.63481 0.49617 1.01107 0.0
N281 N 0.6485 0.48071 0.91216 0.0
C282 C 0.66558 0.49751 0.94305 0.0
C283 C 0.68945 0.50857 0.92296 0.0
C284 C 0.68756 0.49776 0.87694 0.0
C285 C 0.66252 0.48052 0.87159 0.0
N286 N 0.6045 0.4797 0.88022 0.0
C287 C 0.59316 0.50593 0.81195 0.0
C288 C 0.61324 0.51684 0.84675 0.0
C289 C 0.61839 0.50343 0.88099 0.0
C290 C 0.57903 0.4817 0.81197 0.0
C291 C 0.58514 0.46899 0.84578 0.0
N292 N 0.61857 0.44096 0.97376 0.0
C293 C 0.63877 0.41819 0.98414 0.0
C294 C 0.62011 0.40328 0.01876 0.0
C295 C 0.60245 0.40948 0.03533 0.0
C296 C 0.60239 0.4287 1.01317 0.0
C297 C 0.63754 0.43661 0.96199 0.0
H298 H 0.58828 0.4327 0.02601 0.0
H299 H 0.65135 0.44637 0.93331 0.0
H300 H 0.63359 0.51228 0.90803 0.0
H301 H 0.57404 0.45041 0.84383 0.0
C302 C 0.56788 0.41023 0.88586 0.0
C303 C 0.65435 0.4614 0.8344 0.0
C304 C 0.56814 0.46689 1.00307 0.0
C305 C 0.65832 0.50323 0.98928 0.0
H306 H 0.62923 0.42047 0.77197 0.0
H307 H 0.58233 0.39132 0.80199 0.0
H308 H 0.51885 0.39441 0.92873 0.0
H309 H 0.51879 0.42662 0.98936 0.0
H310 H 0.59464 0.50181 0.08099 0.0
H311 H 0.64417 0.52065 0.07597 0.0
H312 H 0.70629 0.52261 0.94005 0.0
H313 H 0.70318 0.50129 0.85176 0.0
H314 H 0.62458 0.53558 0.84806 0.0
H315 H 0.56354 0.47255 0.78533 0.0
H316 H 0.65382 0.41518 0.97223 0.0
H317 H 0.58797 0.39899 0.06311 0.0
C318 C 0.1025 0.58666 0.94102 0.0
C319 C 0.1018 0.57481 0.98633 0.0
C320 C 0.0808 0.57903 0.91091 0.0
C321 C 0.05799 0.55924 0.92543 0.0
C322 C 0.05727 0.54805 0.97198 0.0
C323 C 0.07898 0.55561 1.00183 0.0
C324 C 0.03467 0.54937 0.89323 0.0
C325 C 0.03458 0.55258 0.84162 0.0
C326 C 1.01172 0.54071 0.80783 0.0
C327 C 1.01372 0.5477 0.75592 0.0
C328 C 0.99356 0.53599 0.72157 0.0
C329 C 0.97083 0.5168 0.73812 0.0
H330 H 0.98595 0.5155 0.86383 0.0
C331 C 0.96853 0.51021 0.79037 0.0
C332 C 0.98863 0.52189 0.8247 0.0
H333 H 0.95119 0.49571 0.80474 0.0
H334 H 0.12004 0.60137 0.92809 0.0
H335 H 0.08212 0.58861 0.87625 0.0
H336 H 0.04002 0.53288 0.98447 0.0
H337 H 0.07814 0.54603 0.03626 0.0
H338 H 1.01717 0.538 0.91303 0.0
H339 H 0.05229 0.56381 0.82222 0.0
H340 H 1.03118 0.56204 0.74146 0.0
H341 H 0.99615 0.54145 0.68157 0.0
C342 C 0.46716 0.9697 0.96056 0.0
C343 C 0.48238 0.96998 0.91931 0.0
C344 C 0.4759 0.9885 0.99504 0.0
C345 C 0.50003 1.00806 0.98884 0.0
C346 C 0.51513 1.00831 0.94778 0.0
C347 C 0.5066 0.98951 0.91396 0.0
C348 C 0.50998 0.02893 0.02276 0.0
C349 C 0.50356 0.02853 0.07283 0.0
C350 C 0.51592 0.04966 0.10617 0.0
C351 C 0.52038 0.04751 0.15856 0.0
C352 C 0.53406 0.06728 0.18941 0.0
C353 C 0.54309 0.08948 0.16856 0.0
H354 H 0.5202 0.07426 0.04652 0.0
C355 C 0.53738 0.09165 0.11719 0.0
C356 C 0.52396 0.07196 0.08622 0.0
H357 H 0.54413 0.10867 0.10052 0.0
H358 H 0.4483 0.95518 0.96575 0.0
H359 H 0.46352 0.98789 0.02563 0.0
H360 H 0.53381 0.02309 0.94208 0.0
H361 H 0.51929 0.99029 0.88385 0.0
H362 H 0.52473 0.04513 1.00653 0.0
H363 H 0.49071 1.01207 0.09103 0.0
H364 H 0.51418 0.03056 0.17509 0.0
H365 H 0.53833 0.06528 0.22898 0.0
C366 C 0.48104 0.51417 0.27587 0.0
C367 C 0.4784 0.53357 0.26543 0.0
C368 C 0.48903 0.50444 0.23717 0.0
C369 C 0.49451 0.51385 0.18681 0.0
C370 C 0.49106 0.53277 0.17631 0.0
C371 C 0.48319 0.54249 0.21489 0.0
C372 C 0.50433 0.50521 0.14412 0.0
C373 C 0.51145 0.48912 0.14939 0.0
C374 C 0.52345 0.48238 0.10732 0.0
C375 C 0.52499 0.46214 0.11353 0.0
C376 C 0.53822 0.45632 0.078 0.0
C377 C 0.55019 0.47057 0.0352 0.0
H378 H 0.53509 0.51242 0.05748 0.0
C379 C 0.54823 0.49048 0.02798 0.0
C380 C 0.53504 0.49636 0.06353 0.0
H381 H 0.55787 0.50203 0.99593 0.0
H382 H 0.47758 0.50687 0.31438 0.0
H383 H 0.49098 0.48972 0.24743 0.0
H384 H 0.49485 0.54039 0.13807 0.0
H385 H 0.48092 0.55713 0.20502 0.0
H386 H 0.50624 0.5131 0.10656 0.0
H387 H 0.50892 0.48055 0.18625 0.0
H388 H 0.51653 0.4511 0.14689 0.0
H389 H 0.54002 0.4412 0.08514 0.0
C390 C 0.98371 0.47897 0.48781 0.0
C391 C 0.95841 0.46304 0.47682 0.0
C392 C 1.00237 0.48483 0.44989 0.0
C393 C 0.99591 0.47508 0.40001 0.0
C394 C 0.97069 0.45841 0.39007 0.0
C395 C 0.95218 0.45231 0.42815 0.0
C396 C 1.01414 0.48394 0.35603 0.0
C397 C 0.0392 0.49294 0.36098 0.0
C398 C 0.0571 0.50378 0.3169 0.0
C399 C 0.07897 0.50205 0.31405 0.0
C400 C 0.09686 0.51344 0.27486 0.0
C401 C 0.09358 0.52737 0.23865 0.0
H402 H 0.03722 0.5194 0.28135 0.0
C403 C 0.07168 0.52904 0.24133 0.0
C404 C 0.05354 0.51723 0.27969 0.0
H405 H 0.06877 0.53979 0.21408 0.0
H406 H 0.98882 0.48786 0.5247 0.0
H407 H 1.02148 0.49809 0.4587 0.0
H408 H 0.9651 0.45075 0.352 0.0
H409 H 0.93269 0.44034 0.41852 0.0
H410 H 1.00646 0.4829 0.31772 0.0
H411 H 0.04688 0.49209 0.3981 0.0
H412 H 0.08232 0.49199 0.34245 0.0
H413 H 0.11371 0.51208 0.27401 0.0
C414 C 0.57521 0.07254 0.4628 0.0
C415 C 0.5815 0.07337 0.41021 0.0
C416 C 0.56709 0.05227 0.49173 0.0
C417 C 0.56514 0.0322 0.46894 0.0
C418 C 0.5718 0.03315 0.41657 0.0
C419 C 0.58003 0.0535 0.38764 0.0
C420 C 0.55461 1.00965 0.49738 0.0
C421 C 0.55441 1.00802 0.54947 0.0
C422 C 0.54177 0.98585 0.5797 0.0
C423 C 0.53934 0.98733 0.63343 0.0
C424 C 0.52632 0.96735 0.66359 0.0
C425 C 0.51559 0.94527 0.64097 0.0
H426 H 0.53317 0.9614 0.51628 0.0
C427 C 0.51856 0.94353 0.58764 0.0
C428 C 0.53154 0.96359 0.5572 0.0
H429 H 0.51027 0.92664 0.56936 0.0
H430 H 0.57626 0.08754 0.48159 0.0
H431 H 0.56154 0.0523 0.53141 0.0
H432 H 0.5703 1.01797 0.39769 0.0
H433 H 0.58439 0.05338 0.3471 0.0
H434 H 0.54652 0.99404 0.47403 0.0
H435 H 0.56341 0.02391 0.57197 0.0
H436 H 0.54697 1.00408 0.65215 0.0
H437 H 0.52402 0.96916 0.70455 0.0
C438 C 0.56198 0.51503 0.77189 0.0
C439 C 0.58681 0.51939 0.77529 0.0
C440 C 0.55537 0.52632 0.73486 0.0
C441 C 0.57342 0.54202 0.69978 0.0
C442 C 0.59828 0.54643 0.70331 0.0
C443 C 0.605 0.53549 0.74115 0.0
C444 C 0.56626 0.55263 0.65715 0.0
C445 C 0.54845 0.55868 0.66281 0.0
C446 C 0.53908 0.56729 0.62001 0.0
C447 C 0.52841 0.58108 0.63232 0.0
C448 C 0.5161 0.58674 0.59466 0.0
C449 C 0.51385 0.57843 0.54397 0.0
H450 H 0.54546 0.54892 0.55767 0.0
C451 C 0.52527 0.56539 0.53083 0.0
C452 C 0.53795 0.55998 0.56843 0.0
H453 H 0.52327 0.55841 0.49219 0.0
H454 H 0.54756 0.50264 0.79759 0.0
H455 H 0.53592 0.52207 0.73258 0.0
H456 H 0.6125 0.55826 0.67651 0.0
H457 H 0.62422 0.53897 0.74254 0.0
H458 H 0.57624 0.55587 0.62064 0.0
H459 H 0.54033 0.55742 0.70088 0.0
H460 H 0.52881 0.58681 0.67169 0.0
H461 H 0.50702 0.59647 0.60578 0.0
C462 C 0.24498 0.57975 0.23668 0.0
C463 C 0.24504 0.59398 0.1968 0.0
C464 C 0.26756 0.5814 0.25309 0.0
C465 C 0.29067 0.59738 0.2298 0.0
C466 C 0.2906 0.61199 0.19086 0.0
C467 C 0.26807 0.61038 0.17468 0.0
C468 C 0.31484 0.59823 0.24241 0.0
C469 C 0.31924 0.59115 0.2879 0.0
C470 C 0.34298 0.59126 0.30074 0.0
C471 C 0.34897 0.59139 0.35299 0.0
C472 C 0.36988 0.58976 0.36751 0.0
C473 C 0.3853 0.58767 0.33017 0.0
H474 H 0.35448 0.58902 0.22233 0.0
C475 C 0.37972 0.5879 0.27771 0.0
C476 C 0.35875 0.58971 0.26302 0.0
H477 H 0.39117 0.58606 0.24824 0.0
H478 H 0.22735 0.56666 0.25347 0.0
H479 H 0.2666 0.56939 0.28225 0.0
H480 H 0.308 0.62437 0.17202 0.0
H481 H 0.26854 0.62132 0.14333 0.0
H482 H 0.32972 0.60562 0.2136 0.0
H483 H 0.30519 0.58573 0.31831 0.0
H484 H 0.33718 0.59243 0.38293 0.0
H485 H 0.37348 0.58941 0.40826 0.0
C486 C 0.68264 0.22664 0.41584 0.0
C487 C 0.66325 0.22235 0.38112 0.0
C488 C 0.70094 0.24949 0.42858 0.0
C489 C 0.70006 0.26849 0.40698 0.0
C490 C 0.67996 0.26401 0.3742 0.0
C491 C 0.66189 0.24129 0.36122 0.0
C492 C 0.71928 0.29319 0.41795 0.0
C493 C 0.74316 0.30032 0.43263 0.0
C494 C 0.76283 0.32514 0.4419 0.0
C495 C 0.78803 0.33072 0.44708 0.0
C496 C 0.80701 0.35342 0.45822 0.0
C497 C 0.80135 0.37129 0.46465 0.0
H498 H 0.73815 0.33987 0.44463 0.0
C499 C 0.77622 0.36586 0.45831 0.0
C500 C 0.7572 0.34313 0.44736 0.0
H501 H 0.77111 0.37915 0.46258 0.0
H502 H 0.68391 0.21232 0.43221 0.0
H503 H 0.7156 0.25212 0.4554 0.0
H504 H 0.6785 0.27819 0.35752 0.0
H505 H 0.64705 0.23859 0.33477 0.0
H506 H 0.71369 0.30596 0.41035 0.0
H507 H 0.74905 0.28751 0.43636 0.0
H508 H 0.79307 0.31734 0.44335 0.0
H509 H 0.826 0.35673 0.46373 0.0
C510 C 0.45021 0.78308 0.69937 0.0
C511 C 0.44588 0.79757 0.6667 0.0
C512 C 0.44694 0.76187 0.68164 0.0
C513 C 0.43933 0.75457 0.63046 0.0
C514 C 0.43434 0.7688 0.5983 0.0
C515 C 0.43756 0.79001 0.61612 0.0
C516 C 0.43613 0.73235 0.60896 0.0
C517 C 0.44526 0.71966 0.63095 0.0
C518 C 0.44286 0.69804 0.60772 0.0
C519 C 0.44586 0.68248 0.63946 0.0
C520 C 0.44449 0.66236 0.6189 0.0
C521 C 0.44016 0.65734 0.56589 0.0
H522 H 0.43744 0.70495 0.52812 0.0
C523 C 0.43749 0.67309 0.53408 0.0
C524 C 0.43886 0.69314 0.55456 0.0
H525 H 0.43492 0.67023 0.4928 0.0
H526 H 0.45599 0.78807 0.73904 0.0
H527 H 0.45021 0.75132 0.70861 0.0
H528 H 0.42826 0.76365 0.55883 0.0
H529 H 0.43409 0.80073 0.58988 0.0
H530 H 0.42606 0.72655 0.57269 0.0
H531 H 0.45503 0.7251 0.66756 0.0
H532 H 0.44923 0.68585 0.68047 0.0
H533 H 0.44662 0.65066 0.6446 0.0
C534 C 0.68937 0.46898 0.77208 0.0
C535 C 0.67391 0.45639 0.81379 0.0
C536 C 0.70979 0.46624 0.75757 0.0
C537 C 0.71517 0.45093 0.78483 0.0
C538 C 0.69929 0.43805 0.82579 0.0
C539 C 0.67876 0.44056 0.83977 0.0
C540 C 0.73794 0.44903 0.77375 0.0
C541 C 0.74823 0.45205 0.72631 0.0
C542 C 0.77116 0.45051 0.71458 0.0
C543 C 0.77434 0.44452 0.66426 0.0
C544 C 0.79655 0.44503 0.6498 0.0
C545 C 0.81639 0.45195 0.68506 0.0
H546 H 0.78908 0.46168 0.78962 0.0
C547 C 0.81311 0.45731 0.73594 0.0
C548 C 0.79064 0.45652 0.75072 0.0
H549 H 0.82828 0.46297 0.76357 0.0
H550 H 0.68615 0.48147 0.75191 0.0
H551 H 0.7219 0.47683 0.72647 0.0
H552 H 0.70294 0.42617 0.8475 0.0
H553 H 0.6671 0.43059 0.87197 0.0
H554 H 0.74577 0.44399 0.80537 0.0
H555 H 0.73892 0.45492 0.69392 0.0
H556 H 0.75978 0.43989 0.63557 0.0
H557 H 0.79863 0.44103 0.61019 0.0
C558 C 0.38814 0.80962 0.90041 0.0
C559 C 0.40436 0.81409 0.85826 0.0
C560 C 0.37009 0.78682 0.91327 0.0
C561 C 0.36797 0.76801 0.8842 0.0
C562 C 0.38521 0.77255 0.8438 0.0
C563 C 0.40312 0.79541 0.83064 0.0
C564 C 0.34807 0.74358 0.89523 0.0
C565 C 0.32513 0.73798 0.9139 0.0
C566 C 0.30452 0.71386 0.92548 0.0
C567 C 0.27988 0.70982 0.93144 0.0
C568 C 0.26019 0.68802 0.94633 0.0
C569 C 0.26463 0.66963 0.95614 0.0
H570 H 0.32758 0.69763 0.93053 0.0
C571 C 0.28917 0.67345 0.94886 0.0
C572 C 0.30889 0.69529 0.93378 0.0
H573 H 0.29327 0.65967 0.9558 0.0
H574 H 0.38892 0.82386 0.92229 0.0
H575 H 0.35776 0.78401 0.9458 0.0
H576 H 0.38426 0.75842 0.82121 0.0
H577 H 0.41547 0.79854 0.79789 0.0
H578 H 0.35202 0.72995 0.88468 0.0
H579 H 0.32079 0.75176 0.9197 0.0
H580 H 0.27588 0.72375 0.9256 0.0
H581 H 0.2417 0.6859 0.95233 0.0
C582 C 0.60984 0.37099 0.0834 0.0
C583 C 0.61859 0.38095 0.0343 0.0
C584 C 0.60893 0.35017 0.09699 0.0
C585 C 0.61692 0.33897 0.06185 0.0
C586 C 0.62541 0.34879 1.01294 0.0
C587 C 0.6259 0.36923 0.99906 0.0
C588 C 0.61811 0.31786 0.07548 0.0
C589 C 0.6018 0.30121 0.10774 0.0
C590 C 0.60347 0.2802 0.1205 0.0
C591 C 0.58148 0.2594 0.13314 0.0
C592 C 0.58266 0.23973 0.14779 0.0
C593 C 0.60596 0.2406 0.15113 0.0
H594 H 0.64416 0.2967 0.11435 0.0
C595 C 0.62794 0.26132 0.13787 0.0
C596 C 0.62673 0.28087 0.12263 0.0
H597 H 0.64617 0.26254 0.14024 0.0
H598 H 0.60423 0.3795 0.11178 0.0
H599 H 0.60273 0.34329 0.13547 0.0
H600 H 0.63159 0.34051 0.98505 0.0
H601 H 0.63194 0.37572 0.96028 0.0
H602 H 0.63225 0.3154 0.05573 0.0
H603 H 0.58611 0.30245 0.12357 0.0
H604 H 0.56334 0.25842 0.13215 0.0
H605 H 0.56545 0.22412 0.15855 0.0
loop_
_geom_bond_atom_site_label_1
_geom_bond_atom_site_label_2
_geom_bond_distance
_geom_bond_site_symmetry_2
_ccdc_geom_bond_type
C0 C1 1.443 . S
C0 N4 1.376 . S
C0 C38 1.389 . S
C1 C0 1.443 . S
C1 C2 1.340 . S
C1 H41 0.951 . S
C2 C1 1.340 . S
C2 C3 1.439 . S
C2 H42 0.950 . S
C3 C2 1.439 . S
C3 N4 1.374 . S
C3 C37 1.395 . S
N4 C0 1.376 . S
N4 C3 1.374 . S
N4 Co5 2.008 . S
Co5 N4 2.008 . S
Co5 N6 1.995 . S
Co5 N11 2.008 . S
Co5 N16 1.995 . S
Co5 N21 2.282 . S
Co5 N27 2.282 . S
N6 Co5 1.995 . S
N6 C7 1.376 . S
N6 C10 1.383 . S
C7 N6 1.376 . S
C7 C8 1.446 . S
C7 C37 1.391 . S
C8 C7 1.446 . S
C8 C9 1.339 . S
C8 H43 0.949 . S
C9 C8 1.339 . S
C9 C10 1.439 . S
C9 H44 0.950 . S
C10 N6 1.383 . S
C10 C9 1.439 . S
C10 C39 1.392 . S
N11 Co5 2.008 . S
N11 C12 1.376 . S
N11 C15 1.374 . S
C12 N11 1.376 . S
C12 C13 1.436 1_554 S
C12 C39 1.389 . S
C13 C12 1.436 1_556 S
C13 C14 1.338 1_556 S
C13 H45 0.959 . S
C14 C13 1.338 1_554 S
C14 C15 1.439 . S
C14 H46 0.950 1_554 S
C15 N11 1.374 . S
C15 C14 1.439 . S
C15 C40 1.395 . S
N16 Co5 1.995 . S
N16 C17 1.376 . S
N16 C20 1.383 . S
C17 N16 1.376 . S
C17 C18 1.446 . S
C17 C40 1.391 . S
C18 C17 1.446 . S
C18 C19 1.339 . S
C18 H47 0.949 . S
C19 C18 1.339 . S
C19 C20 1.439 . S
C19 H48 0.950 . S
C20 N16 1.383 . S
C20 C19 1.439 . S
C20 C38 1.392 . S
N21 Co5 2.282 . S
N21 C24 1.332 . S
N21 C26 1.332 . S
C22 C23 1.386 . S
C22 C25 1.388 . S
C23 C22 1.386 . S
C23 C24 1.382 . S
C23 H49 0.950 . S
C24 N21 1.332 . S
C24 C23 1.382 . S
C24 H35 0.952 . S
C25 C22 1.388 . S
C25 C26 1.382 . S
C25 H50 0.950 . S
C26 N21 1.332 . S
C26 C25 1.382 . S
C26 H36 0.948 . S
N27 Co5 2.282 . S
N27 C31 1.332 . S
N27 C32 1.332 . S
C28 C29 1.388 . S
C28 C32 1.382 1_556 S
C28 H51 0.950 . S
C29 C28 1.388 . S
C29 C30 1.386 1_556 S
C30 C29 1.386 1_554 S
C30 C31 1.382 . S
C30 H52 0.950 . S
C31 N27 1.332 . S
C31 C30 1.382 . S
C31 H33 0.952 . S
C32 N27 1.332 . S
C32 C28 1.382 1_554 S
C32 H34 0.948 . S
H33 C31 0.952 . S
H34 C32 0.948 . S
H35 C24 0.952 . S
H36 C26 0.948 . S
C37 C3 1.395 . S
C37 C7 1.391 . S
C38 C0 1.389 . S
C38 C20 1.392 . S
C39 C10 1.392 . S
C39 C12 1.389 . S
C40 C15 1.395 . S
C40 C17 1.391 . S
H41 C1 0.951 . S
H42 C2 0.950 . S
H43 C8 0.949 . S
H44 C9 0.950 . S
H45 C13 0.959 . S
H46 C14 0.950 1_556 S
H47 C18 0.949 . S
H48 C19 0.950 . S
H49 C23 0.950 . S
H50 C25 0.950 . S
H51 C28 0.950 . S
H52 C30 0.950 . S
C53 C54 1.443 . S
C53 N57 1.376 . S
C53 C91 1.389 . S
C54 C53 1.443 . S
C54 C55 1.340 . S
C54 H94 0.951 . S
C55 C54 1.340 . S
C55 C56 1.439 . S
C55 H95 0.950 . S
C56 C55 1.439 . S
C56 N57 1.374 . S
C56 C90 1.395 . S
N57 C53 1.376 . S
N57 C56 1.374 . S
N57 Co58 2.008 . S
Co58 N57 2.008 . S
Co58 N59 1.995 . S
Co58 N64 2.008 . S
Co58 N69 1.995 . S
Co58 N74 2.282 . S
Co58 N80 2.282 . S
N59 Co58 1.995 . S
N59 C60 1.376 . S
N59 C63 1.383 . S
C60 N59 1.376 . S
C60 C61 1.446 . S
C60 C90 1.391 . S
C61 C60 1.446 . S
C61 C62 1.339 . S
C61 H96 0.949 . S
C62 C61 1.339 . S
C62 C63 1.439 . S
C62 H97 0.950 . S
C63 N59 1.383 . S
C63 C62 1.439 . S
C63 C92 1.392 . S
N64 Co58 2.008 . S
N64 C65 1.376 . S
N64 C68 1.374 . S
C65 N64 1.376 . S
C65 C66 1.443 . S
C65 C92 1.389 . S
C66 C65 1.443 . S
C66 C67 1.340 . S
C66 H98 0.951 . S
C67 C66 1.340 . S
C67 C68 1.439 . S
C67 H99 0.950 . S
C68 N64 1.374 . S
C68 C67 1.439 . S
C68 C93 1.395 . S
N69 Co58 1.995 . S
N69 C70 1.376 . S
N69 C73 1.383 . S
C70 N69 1.376 . S
C70 C71 1.446 . S
C70 C93 1.391 . S
C71 C70 1.446 . S
C71 C72 1.339 . S
C71 H100 0.949 . S
C72 C71 1.339 . S
C72 C73 1.439 . S
C72 H101 0.950 . S
C73 N69 1.383 . S
C73 C72 1.439 . S
C73 C91 1.392 . S
N74 Co58 2.282 . S
N74 C77 1.332 . S
N74 C79 1.332 . S
C75 C76 1.386 . S
C75 C78 1.388 . S
C76 C75 1.386 . S
C76 C77 1.382 . S
C76 H102 0.950 . S
C77 N74 1.332 . S
C77 C76 1.382 . S
C77 H88 0.952 . S
C78 C75 1.388 . S
C78 C79 1.382 . S
C78 H103 0.950 . S
C79 N74 1.332 . S
C79 C78 1.382 . S
C79 H89 0.948 . S
N80 Co58 2.282 . S
N80 C84 1.332 . S
N80 C85 1.332 . S
C81 C82 1.388 . S
C81 C85 1.382 . S
C81 H104 0.950 . S
C82 C81 1.388 . S
C82 C83 1.386 . S
C83 C82 1.386 . S
C83 C84 1.382 . S
C83 H105 0.950 . S
C84 N80 1.332 . S
C84 C83 1.382 . S
C84 H86 0.952 . S
C85 N80 1.332 . S
C85 C81 1.382 . S
C85 H87 0.948 . S
H86 C84 0.952 . S
H87 C85 0.948 . S
H88 C77 0.952 . S
H89 C79 0.948 . S
C90 C56 1.395 . S
C90 C60 1.391 . S
C91 C53 1.389 . S
C91 C73 1.392 . S
C92 C63 1.392 . S
C92 C65 1.389 . S
C93 C68 1.395 . S
C93 C70 1.391 . S
H94 C54 0.951 . S
H95 C55 0.950 . S
H96 C61 0.949 . S
H97 C62 0.950 . S
H98 C66 0.951 . S
H99 C67 0.950 . S
H100 C71 0.949 . S
H101 C72 0.950 . S
H102 C76 0.950 . S
H103 C78 0.950 . S
H104 C81 0.950 . S
H105 C83 0.950 . S
C106 C107 1.443 . S
C106 N110 1.376 . S
C106 C144 1.389 . S
C107 C106 1.443 . S
C107 C108 1.340 . S
C107 H147 0.951 . S
C108 C107 1.340 . S
C108 C109 1.439 . S
C108 H148 0.950 . S
C109 C108 1.439 . S
C109 N110 1.374 . S
C109 C143 1.395 . S
N110 C106 1.376 . S
N110 C109 1.374 . S
N110 Co111 2.008 . S
Co111 N110 2.008 . S
Co111 N112 1.995 . S
Co111 N117 2.008 . S
Co111 N122 1.995 . S
Co111 N127 2.282 . S
Co111 N133 2.282 . S
N112 Co111 1.995 . S
N112 C113 1.376 . S
N112 C116 1.383 . S
C113 N112 1.376 . S
C113 C114 1.446 . S
C113 C143 1.391 . S
C114 C113 1.446 . S
C114 C115 1.339 . S
C114 H149 0.949 . S
C115 C114 1.339 . S
C115 C116 1.439 . S
C115 H150 0.950 . S
C116 N112 1.383 . S
C116 C115 1.439 . S
C116 C145 1.392 . S
N117 Co111 2.008 . S
N117 C118 1.376 . S
N117 C121 1.374 . S
C118 N117 1.376 . S
C118 C119 1.443 . S
C118 C145 1.389 . S
C119 C118 1.443 . S
C119 C120 1.340 . S
C119 H151 0.951 . S
C120 C119 1.340 . S
C120 C121 1.439 . S
C120 H152 0.950 . S
C121 N117 1.374 . S
C121 C120 1.439 . S
C121 C146 1.395 . S
N122 Co111 1.995 . S
N122 C123 1.376 . S
N122 C126 1.383 . S
C123 N122 1.376 . S
C123 C124 1.446 . S
C123 C146 1.391 . S
C124 C123 1.446 . S
C124 C125 1.339 . S
C124 H153 0.949 . S
C125 C124 1.339 . S
C125 C126 1.439 . S
C125 H154 0.950 . S
C126 N122 1.383 . S
C126 C125 1.439 . S
C126 C144 1.392 . S
N127 Co111 2.282 . S
N127 C130 1.332 . S
N127 C132 1.332 . S
C128 C129 1.386 . S
C128 C131 1.388 . S
C129 C128 1.386 . S
C129 C130 1.382 . S
C129 H155 0.950 . S
C130 N127 1.332 . S
C130 C129 1.382 . S
C130 H141 0.952 . S
C131 C128 1.388 . S
C131 C132 1.382 . S
C131 H156 0.950 . S
C132 N127 1.332 . S
C132 C131 1.382 . S
C132 H142 0.948 . S
N133 Co111 2.282 . S
N133 C137 1.332 . S
N133 C138 1.332 . S
C134 C135 1.388 . S
C134 C138 1.382 . S
C134 H157 0.950 . S
C135 C134 1.388 . S
C135 C136 1.386 . S
C136 C135 1.386 . S
C136 C137 1.382 . S
C136 H158 0.950 . S
C137 N133 1.332 . S
C137 C136 1.382 . S
C137 H139 0.952 . S
C138 N133 1.332 . S
C138 C134 1.382 . S
C138 H140 0.948 . S
H139 C137 0.952 . S
H140 C138 0.948 . S
H141 C130 0.952 . S
H142 C132 0.948 . S
C143 C109 1.395 . S
C143 C113 1.391 . S
C144 C106 1.389 . S
C144 C126 1.392 . S
C145 C116 1.392 . S
C145 C118 1.389 . S
C146 C121 1.395 . S
C146 C123 1.391 . S
H147 C107 0.951 . S
H148 C108 0.950 . S
H149 C114 0.949 . S
H150 C115 0.950 . S
H151 C119 0.951 . S
H152 C120 0.950 . S
H153 C124 0.949 . S
H154 C125 0.950 . S
H155 C129 0.950 . S
H156 C131 0.950 . S
H157 C134 0.950 . S
H158 C136 0.950 . S
C159 C160 1.443 . S
C159 N163 1.376 . S
C159 C197 1.389 . S
C160 C159 1.443 . S
C160 C161 1.340 . S
C160 H200 0.951 . S
C161 C160 1.340 . S
C161 C162 1.439 . S
C161 H201 0.950 . S
C162 C161 1.439 . S
C162 N163 1.374 . S
C162 C196 1.395 . S
N163 C159 1.376 . S
N163 C162 1.374 . S
N163 Co164 2.008 . S
Co164 N163 2.008 . S
Co164 N165 1.995 . S
Co164 N170 2.008 . S
Co164 N175 1.995 . S
Co164 N180 2.282 . S
Co164 N186 2.282 . S
N165 Co164 1.995 . S
N165 C166 1.376 . S
N165 C169 1.383 . S
C166 N165 1.376 . S
C166 C167 1.446 . S
C166 C196 1.391 . S
C167 C166 1.446 . S
C167 C168 1.339 . S
C167 H202 0.949 . S
C168 C167 1.339 . S
C168 C169 1.439 . S
C168 H203 0.950 . S
C169 N165 1.383 . S
C169 C168 1.439 . S
C169 C198 1.392 . S
N170 Co164 2.008 . S
N170 C171 1.376 . S
N170 C174 1.374 . S
C171 N170 1.376 . S
C171 C172 1.443 . S
C171 C198 1.389 . S
C172 C171 1.443 . S
C172 C173 1.340 . S
C172 H204 0.951 . S
C173 C172 1.340 . S
C173 C174 1.439 . S
C173 H205 0.950 . S
C174 N170 1.374 . S
C174 C173 1.439 . S
C174 C199 1.395 . S
N175 Co164 1.995 . S
N175 C176 1.376 . S
N175 C179 1.383 . S
C176 N175 1.376 . S
C176 C177 1.446 . S
C176 C199 1.391 . S
C177 C176 1.446 . S
C177 C178 1.339 . S
C177 H206 0.949 . S
C178 C177 1.339 . S
C178 C179 1.439 . S
C178 H207 0.950 . S
C179 N175 1.383 . S
C179 C178 1.439 . S
C179 C197 1.392 . S
N180 Co164 2.282 . S
N180 C183 1.332 . S
N180 C185 1.332 . S
C181 C182 1.386 . S
C181 C184 1.388 . S
C182 C181 1.386 . S
C182 C183 1.382 . S
C182 H208 0.950 . S
C183 N180 1.332 . S
C183 C182 1.382 . S
C183 H194 0.952 . S
C184 C181 1.388 . S
C184 C185 1.382 . S
C184 H209 0.950 . S
C185 N180 1.332 . S
C185 C184 1.382 . S
C185 H195 0.948 . S
N186 Co164 2.282 . S
N186 C190 1.332 . S
N186 C191 1.332 . S
C187 C188 1.388 . S
C187 C191 1.382 . S
C187 H210 0.950 . S
C188 C187 1.388 . S
C188 C189 1.386 . S
C189 C188 1.386 . S
C189 C190 1.382 . S
C189 H211 0.950 . S
C190 N186 1.332 . S
C190 C189 1.382 . S
C190 H192 0.952 . S
C191 N186 1.332 . S
C191 C187 1.382 . S
C191 H193 0.948 . S
H192 C190 0.952 . S
H193 C191 0.948 . S
H194 C183 0.952 . S
H195 C185 0.948 . S
C196 C162 1.395 . S
C196 C166 1.391 . S
C197 C159 1.389 . S
C197 C179 1.392 . S
C198 C169 1.392 . S
C198 C171 1.389 . S
C199 C174 1.395 . S
C199 C176 1.391 . S
H200 C160 0.951 . S
H201 C161 0.950 . S
H202 C167 0.949 . S
H203 C168 0.950 . S
H204 C172 0.951 . S
H205 C173 0.950 . S
H206 C177 0.949 . S
H207 C178 0.950 . S
H208 C182 0.950 . S
H209 C184 0.950 . S
H210 C187 0.950 . S
H211 C189 0.950 . S
C212 C213 1.443 . S
C212 N216 1.376 . S
C212 C250 1.389 . S
C213 C212 1.443 . S
C213 C214 1.340 . S
C213 H253 0.951 . S
C214 C213 1.340 . S
C214 C215 1.439 . S
C214 H254 0.950 . S
C215 C214 1.439 . S
C215 N216 1.374 . S
C215 C249 1.395 . S
N216 C212 1.376 . S
N216 C215 1.374 . S
N216 Co217 2.008 . S
Co217 N216 2.008 . S
Co217 N218 1.995 . S
Co217 N223 2.008 . S
Co217 N228 1.995 . S
Co217 N233 2.282 . S
Co217 N239 2.282 . S
N218 Co217 1.995 . S
N218 C219 1.376 . S
N218 C222 1.383 . S
C219 N218 1.376 . S
C219 C220 1.446 . S
C219 C249 1.391 . S
C220 C219 1.446 . S
C220 C221 1.339 . S
C220 H255 0.949 . S
C221 C220 1.339 . S
C221 C222 1.439 . S
C221 H256 0.950 . S
C222 N218 1.383 . S
C222 C221 1.439 . S
C222 C251 1.392 . S
N223 Co217 2.008 . S
N223 C224 1.376 . S
N223 C227 1.374 . S
C224 N223 1.376 . S
C224 C225 1.443 . S
C224 C251 1.389 . S
C225 C224 1.443 . S
C225 C226 1.340 . S
C225 H257 0.951 . S
C226 C225 1.340 . S
C226 C227 1.439 . S
C226 H258 0.950 . S
C227 N223 1.374 . S
C227 C226 1.439 . S
C227 C252 1.395 . S
N228 Co217 1.995 . S
N228 C229 1.376 . S
N228 C232 1.383 . S
C229 N228 1.376 . S
C229 C230 1.446 . S
C229 C252 1.391 . S
C230 C229 1.446 . S
C230 C231 1.339 . S
C230 H259 0.949 . S
C231 C230 1.339 . S
C231 C232 1.439 . S
C231 H260 0.950 . S
C232 N228 1.383 . S
C232 C231 1.439 . S
C232 C250 1.392 . S
N233 Co217 2.282 . S
N233 C236 1.332 . S
N233 C238 1.332 . S
C234 C235 1.386 . S
C234 C237 1.388 . S
C235 C234 1.386 . S
C235 C236 1.382 . S
C235 H261 0.950 . S
C236 N233 1.332 . S
C236 C235 1.382 . S
C236 H247 0.952 . S
C237 C234 1.388 . S
C237 C238 1.382 . S
C237 H262 0.950 . S
C238 N233 1.332 . S
C238 C237 1.382 . S
C238 H248 0.948 . S
N239 Co217 2.282 . S
N239 C243 1.332 . S
N239 C244 1.332 . S
C240 C241 1.388 . S
C240 C244 1.382 . S
C240 H263 0.950 . S
C241 C240 1.388 . S
C241 C242 1.386 . S
C242 C241 1.386 . S
C242 C243 1.382 . S
C242 H264 0.950 . S
C243 N239 1.332 . S
C243 C242 1.382 . S
C243 H245 0.952 . S
C244 N239 1.332 . S
C244 C240 1.382 . S
C244 H246 0.948 . S
H245 C243 0.952 . S
H246 C244 0.948 . S
H247 C236 0.952 . S
H248 C238 0.948 . S
C249 C215 1.395 . S
C249 C219 1.391 . S
C250 C212 1.389 . S
C250 C232 1.392 . S
C251 C222 1.392 . S
C251 C224 1.389 . S
C252 C227 1.395 . S
C252 C229 1.391 . S
H253 C213 0.951 . S
H254 C214 0.950 . S
H255 C220 0.949 . S
H256 C221 0.950 . S
H257 C225 0.951 . S
H258 C226 0.950 . S
H259 C230 0.949 . S
H260 C231 0.950 . S
H261 C235 0.950 . S
H262 C237 0.950 . S
H263 C240 0.950 . S
H264 C242 0.950 . S
C265 C266 1.443 . S
C265 N269 1.376 . S
C265 C303 1.389 . S
C266 C265 1.443 . S
C266 C267 1.340 . S
C266 H306 0.951 . S
C267 C266 1.340 . S
C267 C268 1.439 . S
C267 H307 0.950 . S
C268 C267 1.439 . S
C268 N269 1.374 . S
C268 C302 1.395 . S
N269 C265 1.376 . S
N269 C268 1.374 . S
N269 Co270 2.008 . S
Co270 N269 2.008 . S
Co270 N271 1.995 . S
Co270 N276 2.008 . S
Co270 N281 1.995 . S
Co270 N286 2.282 . S
Co270 N292 2.282 . S
N271 Co270 1.995 . S
N271 C272 1.376 . S
N271 C275 1.383 . S
C272 N271 1.376 . S
C272 C273 1.446 . S
C272 C302 1.391 . S
C273 C272 1.446 . S
C273 C274 1.339 . S
C273 H308 0.949 . S
C274 C273 1.339 . S
C274 C275 1.439 . S
C274 H309 0.950 . S
C275 N271 1.383 . S
C275 C274 1.439 . S
C275 C304 1.392 . S
N276 Co270 2.008 . S
N276 C277 1.376 . S
N276 C280 1.374 . S
C277 N276 1.376 . S
C277 C278 1.443 . S
C277 C304 1.389 . S
C278 C277 1.443 . S
C278 C279 1.340 . S
C278 H310 0.951 . S
C279 C278 1.340 . S
C279 C280 1.439 . S
C279 H311 0.950 . S
C280 N276 1.374 . S
C280 C279 1.439 . S
C280 C305 1.395 . S
N281 Co270 1.995 . S
N281 C282 1.376 . S
N281 C285 1.383 . S
C282 N281 1.376 . S
C282 C283 1.446 . S
C282 C305 1.391 . S
C283 C282 1.446 . S
C283 C284 1.339 . S
C283 H312 0.949 . S
C284 C283 1.339 . S
C284 C285 1.439 . S
C284 H313 0.950 . S
C285 N281 1.383 . S
C285 C284 1.439 . S
C285 C303 1.392 . S
N286 Co270 2.282 . S
N286 C289 1.332 . S
N286 C291 1.332 . S
C287 C288 1.386 . S
C287 C290 1.388 . S
C288 C287 1.386 . S
C288 C289 1.382 . S
C288 H314 0.950 . S
C289 N286 1.332 . S
C289 C288 1.382 . S
C289 H300 0.952 . S
C290 C287 1.388 . S
C290 C291 1.382 . S
C290 H315 0.950 . S
C291 N286 1.332 . S
C291 C290 1.382 . S
C291 H301 0.948 . S
N292 Co270 2.282 . S
N292 C296 1.332 . S
N292 C297 1.332 . S
C293 C294 1.388 . S
C293 C297 1.382 . S
C293 H316 0.950 . S
C294 C293 1.388 . S
C294 C295 1.386 . S
C295 C294 1.386 . S
C295 C296 1.382 . S
C295 H317 0.950 . S
C296 N292 1.332 . S
C296 C295 1.382 . S
C296 H298 0.952 . S
C297 N292 1.332 . S
C297 C293 1.382 . S
C297 H299 0.948 . S
H298 C296 0.952 . S
H299 C297 0.948 . S
H300 C289 0.952 . S
H301 C291 0.948 . S
C302 C268 1.395 . S
C302 C272 1.391 . S
C303 C265 1.389 . S
C303 C285 1.392 . S
C304 C275 1.392 . S
C304 C277 1.389 . S
C305 C280 1.395 . S
C305 C282 1.391 . S
H306 C266 0.951 . S
H307 C267 0.950 . S
H308 C273 0.949 . S
H309 C274 0.950 . S
H310 C278 0.951 . S
H311 C279 0.950 . S
H312 C283 0.949 . S
H313 C284 0.950 . S
H314 C288 0.950 . S
H315 C290 0.950 . S
H316 C293 0.950 . S
H317 C295 0.950 . S
C318 C319 1.386 . S
C318 C320 1.383 . S
C318 H334 0.951 . S
C319 C318 1.386 . S
C319 C323 1.383 1_556 S
C320 C318 1.383 . S
C320 C321 1.402 . S
C320 H335 0.951 . S
C321 C320 1.402 . S
C321 C322 1.375 . S
C321 C324 1.481 . S
C322 C321 1.375 . S
C322 C323 1.367 1_556 S
C322 H336 0.951 . S
C323 C319 1.383 1_554 S
C323 C322 1.367 1_554 S
C323 H337 0.950 . S
C324 C321 1.481 . S
C324 C325 1.297 . S
C324 H338 0.950 1_455 S
C325 C324 1.297 . S
C325 C326 1.479 1_455 S
C325 H339 0.950 . S
C326 C325 1.479 1_655 S
C326 C327 1.375 . S
C326 C332 1.404 . S
C327 C326 1.375 . S
C327 C328 1.369 . S
C327 H340 0.950 1_655 S
C328 C327 1.369 . S
C328 C329 1.392 . S
C328 H341 0.951 . S
C329 C328 1.392 . S
C329 C331 1.384 . S
H330 C332 0.949 . S
C331 C329 1.384 . S
C331 C332 1.385 . S
C331 H333 0.950 . S
C332 C326 1.404 . S
C332 H330 0.949 . S
C332 C331 1.385 . S
H333 C331 0.950 . S
H334 C318 0.951 . S
H335 C320 0.951 . S
H336 C322 0.951 . S
H337 C323 0.950 . S
H338 C324 0.950 1_655 S
H339 C325 0.950 . S
H340 C327 0.950 1_455 S
H341 C328 0.951 . S
C342 C343 1.386 . S
C342 C344 1.383 . S
C342 H358 0.951 . S
C343 C342 1.386 . S
C343 C347 1.383 . S
C344 C342 1.383 . S
C344 C345 1.402 . S
C344 H359 0.951 1_556 S
C345 C344 1.402 . S
C345 C346 1.375 . S
C345 C348 1.481 1_566 S
C346 C345 1.375 . S
C346 C347 1.367 . S
C346 H360 0.951 1_565 S
C347 C343 1.383 . S
C347 C346 1.367 . S
C347 H361 0.950 . S
C348 C345 1.481 1_544 S
C348 C349 1.297 . S
C348 H362 0.950 1_554 S
C349 C348 1.297 . S
C349 C350 1.479 . S
C349 H363 0.950 . S
C350 C349 1.479 . S
C350 C351 1.375 . S
C350 C356 1.404 . S
C351 C350 1.375 . S
C351 C352 1.369 . S
C351 H364 0.950 . S
C352 C351 1.369 . S
C352 C353 1.392 . S
C352 H365 0.951 . S
C353 C352 1.392 . S
C353 C355 1.384 . S
H354 C356 0.949 . S
C355 C353 1.384 . S
C355 C356 1.385 . S
C355 H357 0.950 . S
C356 C350 1.404 . S
C356 H354 0.949 . S
C356 C355 1.385 . S
H357 C355 0.950 . S
H358 C342 0.951 . S
H359 C344 0.951 1_554 S
H360 C346 0.951 1_545 S
H361 C347 0.950 . S
H362 C348 0.950 1_556 S
H363 C349 0.950 . S
H364 C351 0.950 . S
H365 C352 0.951 . S
C366 C367 1.386 . S
C366 C368 1.383 . S
C366 H382 0.951 . S
C367 C366 1.386 . S
C367 C371 1.383 . S
C368 C366 1.383 . S
C368 C369 1.402 . S
C368 H383 0.951 . S
C369 C368 1.402 . S
C369 C370 1.375 . S
C369 C372 1.481 . S
C370 C369 1.375 . S
C370 C371 1.367 . S
C370 H384 0.951 . S
C371 C367 1.383 . S
C371 C370 1.367 . S
C371 H385 0.950 . S
C372 C369 1.481 . S
C372 C373 1.297 . S
C372 H386 0.950 . S
C373 C372 1.297 . S
C373 C374 1.479 . S
C373 H387 0.950 . S
C374 C373 1.479 . S
C374 C375 1.375 . S
C374 C380 1.404 . S
C375 C374 1.375 . S
C375 C376 1.369 . S
C375 H388 0.950 . S
C376 C375 1.369 . S
C376 C377 1.392 1_554 S
C376 H389 0.951 . S
C377 C376 1.392 1_556 S
C377 C379 1.384 . S
H378 C380 0.949 . S
C379 C377 1.384 . S
C379 C380 1.385 1_556 S
C379 H381 0.950 . S
C380 C374 1.404 . S
C380 H378 0.949 . S
C380 C379 1.385 1_554 S
H381 C379 0.950 . S
H382 C366 0.951 . S
H383 C368 0.951 . S
H384 C370 0.951 . S
H385 C371 0.950 . S
H386 C372 0.950 . S
H387 C373 0.950 . S
H388 C375 0.950 . S
H389 C376 0.951 . S
C390 C391 1.386 . S
C390 C392 1.383 . S
C390 H406 0.951 . S
C391 C390 1.386 . S
C391 C395 1.383 . S
C392 C390 1.383 . S
C392 C393 1.402 . S
C392 H407 0.951 . S
C393 C392 1.402 . S
C393 C394 1.375 . S
C393 C396 1.481 . S
C394 C393 1.375 . S
C394 C395 1.367 . S
C394 H408 0.951 . S
C395 C391 1.383 . S
C395 C394 1.367 . S
C395 H409 0.950 . S
C396 C393 1.481 . S
C396 C397 1.297 . S
C396 H410 0.950 . S
C397 C396 1.297 . S
C397 C398 1.479 1_655 S
C397 H411 0.950 . S
C398 C397 1.479 1_455 S
C398 C399 1.375 . S
C398 C404 1.404 . S
C399 C398 1.375 . S
C399 C400 1.369 . S
C399 H412 0.950 . S
C400 C399 1.369 . S
C400 C401 1.392 . S
C400 H413 0.951 . S
C401 C400 1.392 . S
C401 C403 1.384 . S
H402 C404 0.949 1_655 S
C403 C401 1.384 . S
C403 C404 1.385 . S
C403 H405 0.950 . S
C404 C398 1.404 . S
C404 H402 0.949 1_455 S
C404 C403 1.385 . S
H405 C403 0.950 . S
H406 C390 0.951 . S
H407 C392 0.951 . S
H408 C394 0.951 . S
H409 C395 0.950 . S
H410 C396 0.950 . S
H411 C397 0.950 . S
H412 C399 0.950 . S
H413 C400 0.951 . S
C414 C415 1.386 . S
C414 C416 1.383 . S
C414 H430 0.951 . S
C415 C414 1.386 . S
C415 C419 1.383 . S
C416 C414 1.383 . S
C416 C417 1.402 . S
C416 H431 0.951 . S
C417 C416 1.402 . S
C417 C418 1.375 . S
C417 C420 1.481 1_545 S
C418 C417 1.375 . S
C418 C419 1.367 . S
C418 H432 0.951 1_545 S
C419 C415 1.383 . S
C419 C418 1.367 . S
C419 H433 0.950 . S
C420 C417 1.481 1_565 S
C420 C421 1.297 . S
C420 H434 0.950 . S
C421 C420 1.297 . S
C421 C422 1.479 . S
C421 H435 0.950 1_565 S
C422 C421 1.479 . S
C422 C423 1.375 . S
C422 C428 1.404 . S
C423 C422 1.375 . S
C423 C424 1.369 . S
C423 H436 0.950 . S
C424 C423 1.369 . S
C424 C425 1.392 . S
C424 H437 0.951 . S
C425 C424 1.392 . S
C425 C427 1.384 . S
H426 C428 0.949 . S
C427 C425 1.384 . S
C427 C428 1.385 . S
C427 H429 0.950 . S
C428 C422 1.404 . S
C428 H426 0.949 . S
C428 C427 1.385 . S
H429 C427 0.950 . S
H430 C414 0.951 . S
H431 C416 0.951 . S
H432 C418 0.951 1_565 S
H433 C419 0.950 . S
H434 C420 0.950 . S
H435 C421 0.950 1_545 S
H436 C423 0.950 . S
H437 C424 0.951 . S
C438 C439 1.386 . S
C438 C440 1.383 . S
C438 H454 0.951 . S
C439 C438 1.386 . S
C439 C443 1.383 . S
C440 C438 1.383 . S
C440 C441 1.402 . S
C440 H455 0.951 . S
C441 C440 1.402 . S
C441 C442 1.375 . S
C441 C444 1.481 . S
C442 C441 1.375 . S
C442 C443 1.367 . S
C442 H456 0.951 . S
C443 C439 1.383 . S
C443 C442 1.367 . S
C443 H457 0.950 . S
C444 C441 1.481 . S
C444 C445 1.297 . S
C444 H458 0.950 . S
C445 C444 1.297 . S
C445 C446 1.479 . S
C445 H459 0.950 . S
C446 C445 1.479 . S
C446 C447 1.375 . S
C446 C452 1.404 . S
C447 C446 1.375 . S
C447 C448 1.369 . S
C447 H460 0.950 . S
C448 C447 1.369 . S
C448 C449 1.392 . S
C448 H461 0.951 . S
C449 C448 1.392 . S
C449 C451 1.384 . S
H450 C452 0.949 . S
C451 C449 1.384 . S
C451 C452 1.385 . S
C451 H453 0.950 . S
C452 C446 1.404 . S
C452 H450 0.949 . S
C452 C451 1.385 . S
H453 C451 0.950 . S
H454 C438 0.951 . S
H455 C440 0.951 . S
H456 C442 0.951 . S
H457 C443 0.950 . S
H458 C444 0.950 . S
H459 C445 0.950 . S
H460 C447 0.950 . S
H461 C448 0.951 . S
C462 C463 1.386 . S
C462 C464 1.383 . S
C462 H478 0.951 . S
C463 C462 1.386 . S
C463 C467 1.383 . S
C464 C462 1.383 . S
C464 C465 1.402 . S
C464 H479 0.951 . S
C465 C464 1.402 . S
C465 C466 1.375 . S
C465 C468 1.481 . S
C466 C465 1.375 . S
C466 C467 1.367 . S
C466 H480 0.951 . S
C467 C463 1.383 . S
C467 C466 1.367 . S
C467 H481 0.950 . S
C468 C465 1.481 . S
C468 C469 1.297 . S
C468 H482 0.950 . S
C469 C468 1.297 . S
C469 C470 1.479 . S
C469 H483 0.950 . S
C470 C469 1.479 . S
C470 C471 1.375 . S
C470 C476 1.404 . S
C471 C470 1.375 . S
C471 C472 1.369 . S
C471 H484 0.950 . S
C472 C471 1.369 . S
C472 C473 1.392 . S
C472 H485 0.951 . S
C473 C472 1.392 . S
C473 C475 1.384 . S
H474 C476 0.949 . S
C475 C473 1.384 . S
C475 C476 1.385 . S
C475 H477 0.950 . S
C476 C470 1.404 . S
C476 H474 0.949 . S
C476 C475 1.385 . S
H477 C475 0.950 . S
H478 C462 0.951 . S
H479 C464 0.951 . S
H480 C466 0.951 . S
H481 C467 0.950 . S
H482 C468 0.950 . S
H483 C469 0.950 . S
H484 C471 0.950 . S
H485 C472 0.951 . S
C486 C487 1.386 . S
C486 C488 1.383 . S
C486 H502 0.951 . S
C487 C486 1.386 . S
C487 C491 1.383 . S
C488 C486 1.383 . S
C488 C489 1.402 . S
C488 H503 0.951 . S
C489 C488 1.402 . S
C489 C490 1.375 . S
C489 C492 1.481 . S
C490 C489 1.375 . S
C490 C491 1.367 . S
C490 H504 0.951 . S
C491 C487 1.383 . S
C491 C490 1.367 . S
C491 H505 0.950 . S
C492 C489 1.481 . S
C492 C493 1.297 . S
C492 H506 0.950 . S
C493 C492 1.297 . S
C493 C494 1.479 . S
C493 H507 0.950 . S
C494 C493 1.479 . S
C494 C495 1.375 . S
C494 C500 1.404 . S
C495 C494 1.375 . S
C495 C496 1.369 . S
C495 H508 0.950 . S
C496 C495 1.369 . S
C496 C497 1.392 . S
C496 H509 0.951 . S
C497 C496 1.392 . S
C497 C499 1.384 . S
H498 C500 0.949 . S
C499 C497 1.384 . S
C499 C500 1.385 . S
C499 H501 0.950 . S
C500 C494 1.404 . S
C500 H498 0.949 . S
C500 C499 1.385 . S
H501 C499 0.950 . S
H502 C486 0.951 . S
H503 C488 0.951 . S
H504 C490 0.951 . S
H505 C491 0.950 . S
H506 C492 0.950 . S
H507 C493 0.950 . S
H508 C495 0.950 . S
H509 C496 0.951 . S
C510 C511 1.386 . S
C510 C512 1.383 . S
C510 H526 0.951 . S
C511 C510 1.386 . S
C511 C515 1.383 . S
C512 C510 1.383 . S
C512 C513 1.402 . S
C512 H527 0.951 . S
C513 C512 1.402 . S
C513 C514 1.375 . S
C513 C516 1.481 . S
C514 C513 1.375 . S
C514 C515 1.367 . S
C514 H528 0.951 . S
C515 C511 1.383 . S
C515 C514 1.367 . S
C515 H529 0.950 . S
C516 C513 1.481 . S
C516 C517 1.297 . S
C516 H530 0.950 . S
C517 C516 1.297 . S
C517 C518 1.479 . S
C517 H531 0.950 . S
C518 C517 1.479 . S
C518 C519 1.375 . S
C518 C524 1.404 . S
C519 C518 1.375 . S
C519 C520 1.369 . S
C519 H532 0.950 . S
C520 C519 1.369 . S
C520 C521 1.392 . S
C520 H533 0.951 . S
C521 C520 1.392 . S
C521 C523 1.384 . S
H522 C524 0.949 . S
C523 C521 1.384 . S
C523 C524 1.385 . S
C523 H525 0.950 . S
C524 C518 1.404 . S
C524 H522 0.949 . S
C524 C523 1.385 . S
H525 C523 0.950 . S
H526 C510 0.951 . S
H527 C512 0.951 . S
H528 C514 0.951 . S
H529 C515 0.950 . S
H530 C516 0.950 . S
H531 C517 0.950 . S
H532 C519 0.950 . S
H533 C520 0.951 . S
C534 C535 1.386 . S
C534 C536 1.383 . S
C534 H550 0.951 . S
C535 C534 1.386 . S
C535 C539 1.383 . S
C536 C534 1.383 . S
C536 C537 1.402 . S
C536 H551 0.951 . S
C537 C536 1.402 . S
C537 C538 1.375 . S
C537 C540 1.481 . S
C538 C537 1.375 . S
C538 C539 1.367 . S
C538 H552 0.951 . S
C539 C535 1.383 . S
C539 C538 1.367 . S
C539 H553 0.950 . S
C540 C537 1.481 . S
C540 C541 1.297 . S
C540 H554 0.950 . S
C541 C540 1.297 . S
C541 C542 1.479 . S
C541 H555 0.950 . S
C542 C541 1.479 . S
C542 C543 1.375 . S
C542 C548 1.404 . S
C543 C542 1.375 . S
C543 C544 1.369 . S
C543 H556 0.950 . S
C544 C543 1.369 . S
C544 C545 1.392 . S
C544 H557 0.951 . S
C545 C544 1.392 . S
C545 C547 1.384 . S
H546 C548 0.949 . S
C547 C545 1.384 . S
C547 C548 1.385 . S
C547 H549 0.950 . S
C548 C542 1.404 . S
C548 H546 0.949 . S
C548 C547 1.385 . S
H549 C547 0.950 . S
H550 C534 0.951 . S
H551 C536 0.951 . S
H552 C538 0.951 . S
H553 C539 0.950 . S
H554 C540 0.950 . S
H555 C541 0.950 . S
H556 C543 0.950 . S
H557 C544 0.951 . S
C558 C559 1.386 . S
C558 C560 1.383 . S
C558 H574 0.951 . S
C559 C558 1.386 . S
C559 C563 1.383 . S
C560 C558 1.383 . S
C560 C561 1.402 . S
C560 H575 0.951 . S
C561 C560 1.402 . S
C561 C562 1.375 . S
C561 C564 1.481 . S
C562 C561 1.375 . S
C562 C563 1.367 . S
C562 H576 0.951 . S
C563 C559 1.383 . S
C563 C562 1.367 . S
C563 H577 0.950 . S
C564 C561 1.481 . S
C564 C565 1.297 . S
C564 H578 0.950 . S
C565 C564 1.297 . S
C565 C566 1.479 . S
C565 H579 0.950 . S
C566 C565 1.479 . S
C566 C567 1.375 . S
C566 C572 1.404 . S
C567 C566 1.375 . S
C567 C568 1.369 . S
C567 H580 0.950 . S
C568 C567 1.369 . S
C568 C569 1.392 . S
C568 H581 0.951 1_556 S
C569 C568 1.392 . S
C569 C571 1.384 . S
H570 C572 0.949 . S
C571 C569 1.384 . S
C571 C572 1.385 . S
C571 H573 0.950 . S
C572 C566 1.404 . S
C572 H570 0.949 . S
C572 C571 1.385 . S
H573 C571 0.950 . S
H574 C558 0.951 . S
H575 C560 0.951 . S
H576 C562 0.951 . S
H577 C563 0.950 . S
H578 C564 0.950 . S
H579 C565 0.950 . S
H580 C567 0.950 . S
H581 C568 0.951 1_554 S
C582 C583 1.386 . S
C582 C584 1.383 . S
C582 H598 0.951 . S
C583 C582 1.386 . S
C583 C587 1.383 1_554 S
C584 C582 1.383 . S
C584 C585 1.402 . S
C584 H599 0.951 . S
C585 C584 1.402 . S
C585 C586 1.375 . S
C585 C588 1.481 . S
C586 C585 1.375 . S
C586 C587 1.367 1_554 S
C586 H600 0.946 1_554 S
C587 C583 1.383 1_556 S
C587 C586 1.367 1_556 S
C587 H601 0.950 . S
C588 C585 1.481 . S
C588 C589 1.297 . S
C588 H602 0.950 . S
C589 C588 1.297 . S
C589 C590 1.479 . S
C589 H603 0.950 . S
C590 C589 1.479 . S
C590 C591 1.375 . S
C590 C596 1.404 . S
C591 C590 1.375 . S
C591 C592 1.369 . S
C591 H604 0.950 . S
C592 C591 1.369 . S
C592 C593 1.392 . S
C592 H605 0.951 . S
C593 C592 1.392 . S
C593 C595 1.384 . S
H594 C596 0.949 . S
C595 C593 1.384 . S
C595 C596 1.385 . S
C595 H597 0.950 . S
C596 C590 1.404 . S
C596 H594 0.949 . S
C596 C595 1.385 . S
H597 C595 0.950 . S
H598 C582 0.951 . S
H599 C584 0.951 . S
H600 C586 0.946 1_556 S
H601 C587 0.950 . S
H602 C588 0.950 . S
H603 C589 0.950 . S
H604 C591 0.950 . S
H605 C592 0.951 . S
C319 C39 1.922 1_556 S
C329 C181 1.889 . S
C343 C234 1.857 . S
C353 C92 1.825 . S
C367 C128 1.876 . S
C377 C304 1.894 . S
C391 C198 1.910 . S
C401 C22 1.933 . S
C415 C75 1.849 . S
C425 C251 1.836 . S
C439 C287 1.899 . S
C449 C145 1.856 . S
C463 C38 1.913 . S
C473 C144 1.910 . S
C487 C91 1.810 . S
C497 C188 1.787 . S
C511 C241 1.694 . S
C521 C135 1.696 . S
C535 C303 1.919 . S
C545 C197 1.916 . S
C559 C250 1.812 . S
C569 C29 1.797 . S
C583 C294 1.676 1_554 S
C593 C82 1.682 . S
