# Generated by pormake.
# Topology uox, (4)-cn, num edge types: 1
# Building blocks:
#     Node 0, Type 0, BuildingBlock: NAHDIM_clean_sbu_0, # of connection points: 4
#     Node 1, Type 0, BuildingBlock: NAHDIM_clean_sbu_0, # of connection points: 4
#     Node 2, Type 0, BuildingBlock: NAHDIM_clean_sbu_0, # of connection points: 4
#     Node 3, Type 0, BuildingBlock: NAHDIM_clean_sbu_0, # of connection points: 4
#     Node 4, Type 0, BuildingBlock: NAHDIM_clean_sbu_0, # of connection points: 4
#     Node 5, Type 0, BuildingBlock: NAHDIM_clean_sbu_0, # of connection points: 4
#     Node 6, Type 0, BuildingBlock: NAHDIM_clean_sbu_0, # of connection points: 4
#     Node 7, Type 0, BuildingBlock: NAHDIM_clean_sbu_0, # of connection points: 4
#     Node 8, Type 0, BuildingBlock: NAHDIM_clean_sbu_0, # of connection points: 4
#     Node 9, Type 0, BuildingBlock: NAHDIM_clean_sbu_0, # of connection points: 4
#     Node 10, Type 0, BuildingBlock: NAHDIM_clean_sbu_0, # of connection points: 4
#     Node 11, Type 0, BuildingBlock: NAHDIM_clean_sbu_0, # of connection points: 4
#     Node 12, Type 0, BuildingBlock: NAHDIM_clean_sbu_0, # of connection points: 4
#     Node 13, Type 0, BuildingBlock: NAHDIM_clean_sbu_0, # of connection points: 4
#     Node 14, Type 0, BuildingBlock: NAHDIM_clean_sbu_0, # of connection points: 4
#     Node 15, Type 0, BuildingBlock: NAHDIM_clean_sbu_0, # of connection points: 4
#     Node 16, Type 0, BuildingBlock: NAHDIM_clean_sbu_0, # of connection points: 4
#     Node 17, Type 0, BuildingBlock: NAHDIM_clean_sbu_0, # of connection points: 4
#     Node 18, Type 0, BuildingBlock: NAHDIM_clean_sbu_0, # of connection points: 4
#     Node 19, Type 0, BuildingBlock: NAHDIM_clean_sbu_0, # of connection points: 4
#     Node 20, Type 0, BuildingBlock: NAHDIM_clean_sbu_0, # of connection points: 4
#     Node 21, Type 0, BuildingBlock: NAHDIM_clean_sbu_0, # of connection points: 4
#     Node 22, Type 0, BuildingBlock: NAHDIM_clean_sbu_0, # of connection points: 4
#     Node 23, Type 0, BuildingBlock: NAHDIM_clean_sbu_0, # of connection points: 4
#     Node 24, Type 0, BuildingBlock: NAHDIM_clean_sbu_0, # of connection points: 4
#     Node 25, Type 0, BuildingBlock: NAHDIM_clean_sbu_0, # of connection points: 4
#     Node 26, Type 0, BuildingBlock: NAHDIM_clean_sbu_0, # of connection points: 4
#     Node 27, Type 0, BuildingBlock: NAHDIM_clean_sbu_0, # of connection points: 4
#     Node 28, Type 0, BuildingBlock: NAHDIM_clean_sbu_0, # of connection points: 4
#     Node 29, Type 0, BuildingBlock: NAHDIM_clean_sbu_0, # of connection points: 4
#     Node 30, Type 0, BuildingBlock: NAHDIM_clean_sbu_0, # of connection points: 4
#     Node 31, Type 0, BuildingBlock: NAHDIM_clean_sbu_0, # of connection points: 4
#     Edge 32, Type (0, 0), BuildingBlock: MIFKUJ_clean_linker_0, # of connection points: 2
#     Edge 33, Type (0, 0), BuildingBlock: MIFKUJ_clean_linker_0, # of connection points: 2
#     Edge 34, Type (0, 0), BuildingBlock: MIFKUJ_clean_linker_0, # of connection points: 2
#     Edge 35, Type (0, 0), BuildingBlock: MIFKUJ_clean_linker_0, # of connection points: 2
#     Edge 36, Type (0, 0), BuildingBlock: MIFKUJ_clean_linker_0, # of connection points: 2
#     Edge 37, Type (0, 0), BuildingBlock: MIFKUJ_clean_linker_0, # of connection points: 2
#     Edge 38, Type (0, 0), BuildingBlock: MIFKUJ_clean_linker_0, # of connection points: 2
#     Edge 39, Type (0, 0), BuildingBlock: MIFKUJ_clean_linker_0, # of connection points: 2
#     Edge 40, Type (0, 0), BuildingBlock: MIFKUJ_clean_linker_0, # of connection points: 2
#     Edge 41, Type (0, 0), BuildingBlock: MIFKUJ_clean_linker_0, # of connection points: 2
#     Edge 42, Type (0, 0), BuildingBlock: MIFKUJ_clean_linker_0, # of connection points: 2
#     Edge 43, Type (0, 0), BuildingBlock: MIFKUJ_clean_linker_0, # of connection points: 2
#     Edge 44, Type (0, 0), BuildingBlock: MIFKUJ_clean_linker_0, # of connection points: 2
#     Edge 45, Type (0, 0), BuildingBlock: MIFKUJ_clean_linker_0, # of connection points: 2
#     Edge 46, Type (0, 0), BuildingBlock: MIFKUJ_clean_linker_0, # of connection points: 2
#     Edge 47, Type (0, 0), BuildingBlock: MIFKUJ_clean_linker_0, # of connection points: 2
#     Edge 48, Type (0, 0), BuildingBlock: MIFKUJ_clean_linker_0, # of connection points: 2
#     Edge 49, Type (0, 0), BuildingBlock: MIFKUJ_clean_linker_0, # of connection points: 2
#     Edge 50, Type (0, 0), BuildingBlock: MIFKUJ_clean_linker_0, # of connection points: 2
#     Edge 51, Type (0, 0), BuildingBlock: MIFKUJ_clean_linker_0, # of connection points: 2
#     Edge 52, Type (0, 0), BuildingBlock: MIFKUJ_clean_linker_0, # of connection points: 2
#     Edge 53, Type (0, 0), BuildingBlock: MIFKUJ_clean_linker_0, # of connection points: 2
#     Edge 54, Type (0, 0), BuildingBlock: MIFKUJ_clean_linker_0, # of connection points: 2
#     Edge 55, Type (0, 0), BuildingBlock: MIFKUJ_clean_linker_0, # of connection points: 2
#     Edge 56, Type (0, 0), BuildingBlock: MIFKUJ_clean_linker_0, # of connection points: 2
#     Edge 57, Type (0, 0), BuildingBlock: MIFKUJ_clean_linker_0, # of connection points: 2
#     Edge 58, Type (0, 0), BuildingBlock: MIFKUJ_clean_linker_0, # of connection points: 2
#     Edge 59, Type (0, 0), BuildingBlock: MIFKUJ_clean_linker_0, # of connection points: 2
#     Edge 60, Type (0, 0), BuildingBlock: MIFKUJ_clean_linker_0, # of connection points: 2
#     Edge 61, Type (0, 0), BuildingBlock: MIFKUJ_clean_linker_0, # of connection points: 2
#     Edge 62, Type (0, 0), BuildingBlock: MIFKUJ_clean_linker_0, # of connection points: 2
#     Edge 63, Type (0, 0), BuildingBlock: MIFKUJ_clean_linker_0, # of connection points: 2
#     Edge 64, Type (0, 0), BuildingBlock: MIFKUJ_clean_linker_0, # of connection points: 2
#     Edge 65, Type (0, 0), BuildingBlock: MIFKUJ_clean_linker_0, # of connection points: 2
#     Edge 66, Type (0, 0), BuildingBlock: MIFKUJ_clean_linker_0, # of connection points: 2
#     Edge 67, Type (0, 0), BuildingBlock: MIFKUJ_clean_linker_0, # of connection points: 2
#     Edge 68, Type (0, 0), BuildingBlock: MIFKUJ_clean_linker_0, # of connection points: 2
#     Edge 69, Type (0, 0), BuildingBlock: MIFKUJ_clean_linker_0, # of connection points: 2
#     Edge 70, Type (0, 0), BuildingBlock: MIFKUJ_clean_linker_0, # of connection points: 2
#     Edge 71, Type (0, 0), BuildingBlock: MIFKUJ_clean_linker_0, # of connection points: 2
#     Edge 72, Type (0, 0), BuildingBlock: MIFKUJ_clean_linker_0, # of connection points: 2
#     Edge 73, Type (0, 0), BuildingBlock: MIFKUJ_clean_linker_0, # of connection points: 2
#     Edge 74, Type (0, 0), BuildingBlock: MIFKUJ_clean_linker_0, # of connection points: 2
#     Edge 75, Type (0, 0), BuildingBlock: MIFKUJ_clean_linker_0, # of connection points: 2
#     Edge 76, Type (0, 0), BuildingBlock: MIFKUJ_clean_linker_0, # of connection points: 2
#     Edge 77, Type (0, 0), BuildingBlock: MIFKUJ_clean_linker_0, # of connection points: 2
#     Edge 78, Type (0, 0), BuildingBlock: MIFKUJ_clean_linker_0, # of connection points: 2
#     Edge 79, Type (0, 0), BuildingBlock: MIFKUJ_clean_linker_0, # of connection points: 2
#     Edge 80, Type (0, 0), BuildingBlock: MIFKUJ_clean_linker_0, # of connection points: 2
#     Edge 81, Type (0, 0), BuildingBlock: MIFKUJ_clean_linker_0, # of connection points: 2
#     Edge 82, Type (0, 0), BuildingBlock: MIFKUJ_clean_linker_0, # of connection points: 2
#     Edge 83, Type (0, 0), BuildingBlock: MIFKUJ_clean_linker_0, # of connection points: 2
#     Edge 84, Type (0, 0), BuildingBlock: MIFKUJ_clean_linker_0, # of connection points: 2
#     Edge 85, Type (0, 0), BuildingBlock: MIFKUJ_clean_linker_0, # of connection points: 2
#     Edge 86, Type (0, 0), BuildingBlock: MIFKUJ_clean_linker_0, # of connection points: 2
#     Edge 87, Type (0, 0), BuildingBlock: MIFKUJ_clean_linker_0, # of connection points: 2
#     Edge 88, Type (0, 0), BuildingBlock: MIFKUJ_clean_linker_0, # of connection points: 2
#     Edge 89, Type (0, 0), BuildingBlock: MIFKUJ_clean_linker_0, # of connection points: 2
#     Edge 90, Type (0, 0), BuildingBlock: MIFKUJ_clean_linker_0, # of connection points: 2
#     Edge 91, Type (0, 0), BuildingBlock: MIFKUJ_clean_linker_0, # of connection points: 2
#     Edge 92, Type (0, 0), BuildingBlock: MIFKUJ_clean_linker_0, # of connection points: 2
#     Edge 93, Type (0, 0), BuildingBlock: MIFKUJ_clean_linker_0, # of connection points: 2
#     Edge 94, Type (0, 0), BuildingBlock: MIFKUJ_clean_linker_0, # of connection points: 2
#     Edge 95, Type (0, 0), BuildingBlock: MIFKUJ_clean_linker_0, # of connection points: 2
# Relax obj value: 0.108
# Max RMSD: 0.138
# Mean RMSD: 0.138
data_MOF--net-uox--node1-NAHDIM_clean_sbu_0--edge1-MIFKUJ_clean_linker_0
_symmetry_space_group_name_H-M    P1
_symmetry_Int_Tables_number       1
_symmetry_cell_setting            triclinic
loop_
_symmetry_equiv_pos_as_xyz
'x, y, z'
_cell_length_a     57.875942
_cell_length_b     57.844114
_cell_length_c     104.87268
_cell_angle_alpha  90.023098
_cell_angle_beta   89.998578
_cell_angle_gamma 90.018409
loop_
_atom_site_label
_atom_site_type_symbol
_atom_site_fract_x
_atom_site_fract_y
_atom_site_fract_z
_atom_type_partial_charge
C0 C 0.40153 0.02094 0.17738 0.0
O1 O 0.38269 0.01427 0.17142 0.0
O2 O 0.44569 0.03858 0.14459 0.0
Zn3 Zn 0.41405 0.03527 0.15225 0.0
O4 O 0.39726 0.00774 0.14524 0.0
C5 C 0.4045 0.08378 0.14996 0.0
O6 O 0.42597 0.08554 0.15392 0.0
O7 O 0.41742 0.03095 0.17111 0.0
C8 C 0.38496 0.00888 0.13524 0.0
O9 O 0.38393 0.02837 0.12883 0.0
C10 C 0.45024 0.03551 0.13285 0.0
O11 O 0.43366 0.0292 0.12504 0.0
O12 O 0.39558 0.06385 0.14868 0.0
C13 C 0.23426 0.16463 0.43075 0.0
O14 O 0.24842 0.15129 0.42429 0.0
O15 O 0.20656 0.20542 0.39934 0.0
Zn16 Zn 0.21522 0.17398 0.40585 0.0
O17 O 0.24453 0.1621 0.39811 0.0
C18 C 0.16934 0.15565 0.40548 0.0
O19 O 0.16539 0.17387 0.41264 0.0
O20 O 0.21865 0.17577 0.42485 0.0
C21 C 0.24665 0.15809 0.38626 0.0
O22 O 0.22952 0.16317 0.37853 0.0
C23 C 0.21914 0.21887 0.39274 0.0
O24 O 0.2401 0.21243 0.38952 0.0
O25 O 0.18972 0.15191 0.40149 0.0
C26 C 0.06076 0.97893 0.68163 0.0
O27 O 0.06006 0.99746 0.6744 0.0
O28 O 0.04993 0.94761 0.64786 0.0
Zn29 Zn 0.0768 0.95806 0.65846 0.0
O30 O 0.0887 0.98907 0.65283 0.0
C31 C 0.11563 0.93504 0.64712 0.0
O32 O 0.11409 0.95229 0.63902 0.0
O33 O 0.06728 0.95985 0.67683 0.0
C34 C 0.08415 -0.00168 0.64214 0.0
O35 O 0.07093 0.98728 0.63397 0.0
C36 C 0.03069 0.95811 0.6474 0.0
O37 O 0.02792 0.97726 0.65396 0.0
O38 O 0.10175 0.9342 0.6565 0.0
C39 C 0.30154 0.80957 0.93176 0.0
O40 O 0.31054 0.79345 0.92447 0.0
O41 O 0.30387 0.80949 0.89766 0.0
Zn42 Zn 0.29879 0.83757 0.90852 0.0
O43 O 0.26932 0.85347 0.90366 0.0
C44 C 0.32528 0.87669 0.89915 0.0
O45 O 0.30564 0.88274 0.89385 0.0
O46 O 0.29607 0.82897 0.92695 0.0
C47 C 0.26057 0.8527 0.89256 0.0
O48 O 0.27123 0.84113 0.88352 0.0
C49 C 0.28955 0.79295 0.89666 0.0
O50 O 0.27001 0.7938 0.90302 0.0
O51 O 0.32606 0.8586 0.90601 0.0
C52 C 0.43775 0.96282 0.3089 0.0
O53 O 0.45336 0.97421 0.31548 0.0
O54 O 0.45821 0.94391 0.33923 0.0
Zn55 Zn 0.42533 0.94909 0.33381 0.0
O56 O 0.41286 0.97938 0.33998 0.0
C57 C 0.41413 0.90275 0.34082 0.0
O58 O 0.43508 0.89916 0.33641 0.0
O59 O 0.42363 0.94981 0.31477 0.0
C60 C 0.40413 0.98217 0.35097 0.0
O61 O 0.40401 0.96482 0.35906 0.0
C62 C 0.46715 0.95163 0.34945 0.0
O63 O 0.45487 0.96495 0.35698 0.0
O64 O 0.40586 0.92309 0.34055 0.0
C65 C 0.26017 0.19257 0.56604 0.0
O66 O 0.24221 0.19866 0.57293 0.0
O67 O 0.28897 0.21539 0.59841 0.0
Zn68 Zn 0.27996 0.18486 0.5907 0.0
O69 O 0.24913 0.17389 0.59691 0.0
C70 C 0.31428 0.16301 0.60619 0.0
O71 O 0.30843 0.17968 0.61406 0.0
O72 O 0.27871 0.18658 0.57161 0.0
C73 C 0.24296 0.17323 0.60852 0.0
O74 O 0.25712 0.18086 0.61736 0.0
C75 C 0.28533 0.235 0.59336 0.0
O76 O 0.27404 0.2362 0.58252 0.0
O77 O 0.3041 0.16148 0.59549 0.0
C78 C 0.04493 0.00807 0.81646 0.0
O79 O 0.04482 0.99082 0.82461 0.0
O80 O 0.02766 0.03981 0.84886 0.0
Zn81 Zn 0.05655 0.03368 0.83891 0.0
O82 O 0.07317 0.00616 0.84585 0.0
C83 C 0.07516 0.07471 0.85013 0.0
O84 O 0.05852 0.07067 0.85834 0.0
O85 O 0.0492 0.02836 0.82046 0.0
C86 C 0.0758 0.00317 0.85775 0.0
O87 O 0.06667 0.01809 0.86574 0.0
C88 C 0.01148 0.02575 0.85145 0.0
O89 O 0.01233 0.00451 0.84704 0.0
O90 O 0.07781 0.06114 0.84071 0.0
C91 C 0.2124 0.78632 0.05783 0.0
O92 O 0.21627 0.76869 0.06543 0.0
O93 O 0.19284 0.77605 0.08882 0.0
Zn94 Zn 0.19667 0.80761 0.08105 0.0
O95 O 0.22316 0.82526 0.08853 0.0
C96 C 0.15584 0.82238 0.09393 0.0
O97 O 0.16214 0.80562 0.10163 0.0
O98 O 0.20326 0.80455 0.06235 0.0
C99 C 0.22491 0.83103 0.10018 0.0
O100 O 0.20918 0.82414 0.10837 0.0
C101 C 0.20643 0.76606 0.09657 0.0
O102 O 0.22546 0.7765 0.10023 0.0
O103 O 0.1678 0.82635 0.08401 0.0
C104 C 0.57352 0.96855 0.81129 0.0
O105 O 0.57648 0.98732 0.81815 0.0
O106 O 0.55437 0.94301 0.84547 0.0
Zn107 Zn 0.58346 0.9466 0.83518 0.0
O108 O 0.6014 0.97467 0.84066 0.0
C109 C 0.60718 0.91285 0.84958 0.0
O110 O 0.59872 0.92561 0.85884 0.0
O111 O 0.57564 0.9489 0.81657 0.0
C112 C 0.5931 0.99081 0.84749 0.0
O113 O 0.57166 0.9894 0.85152 0.0
C114 C 0.53549 0.95291 0.84258 0.0
O115 O 0.5347 0.96649 0.83256 0.0
O116 O 0.60308 0.91856 0.83811 0.0
C117 C 0.77227 0.81506 0.56234 0.0
O118 O 0.7553 0.81019 0.57022 0.0
O119 O 0.79568 0.79697 0.59431 0.0
Zn120 Zn 0.79295 0.82776 0.58567 0.0
O121 O 0.7643 0.84448 0.59125 0.0
C122 C 0.841 0.8392 0.58918 0.0
O123 O 0.84417 0.81791 0.58518 0.0
O124 O 0.79109 0.82291 0.56681 0.0
C125 C 0.76468 0.8588 0.60043 0.0
O126 O 0.78403 0.86208 0.60672 0.0
C127 C 0.79881 0.79534 0.60626 0.0
O128 O 0.79956 0.81424 0.61319 0.0
O129 O 0.82059 0.84713 0.58994 0.0
C130 C 0.91893 0.033 0.31694 0.0
O131 O 0.89888 0.02757 0.322 0.0
O132 O 0.95406 0.05707 0.35206 0.0
Zn133 Zn 0.92541 0.05192 0.34168 0.0
O134 O 0.90685 0.02609 0.34929 0.0
C135 C 0.91481 0.10018 0.34488 0.0
O136 O 0.93717 0.10162 0.3469 0.0
O137 O 0.93359 0.04396 0.32363 0.0
C138 C 0.89245 0.0302 0.35815 0.0
O139 O 0.89059 0.05134 0.36262 0.0
C140 C 0.97285 0.04626 0.35019 0.0
O141 O 0.97379 0.03037 0.34125 0.0
O142 O 0.90602 0.08074 0.34202 0.0
C143 C 0.72211 0.18087 0.06426 0.0
O144 O 0.73309 0.19178 0.07342 0.0
O145 O 0.69189 0.19009 0.09395 0.0
Zn146 Zn 0.70071 0.16001 0.08566 0.0
O147 O 0.72924 0.14525 0.093 0.0
C148 C 0.6644 0.13656 0.09835 0.0
O149 O 0.6725 0.14908 0.10779 0.0
O150 O 0.70679 0.16605 0.06716 0.0
C151 C 0.73435 0.14304 0.10472 0.0
O152 O 0.72053 0.15162 0.11345 0.0
C153 C 0.70415 0.20348 0.10077 0.0
O154 O 0.72574 0.19811 0.10323 0.0
O155 O 0.67389 0.13812 0.08746 0.0
C156 C 0.54945 0.00581 0.67764 0.0
O157 O 0.54506 0.99014 0.6689 0.0
O158 O 0.52893 0.04492 0.64905 0.0
Zn159 Zn 0.55944 0.03419 0.65586 0.0
O160 O 0.57208 0.00708 0.64632 0.0
C161 C 0.57656 0.08093 0.65491 0.0
O162 O 0.55463 0.08602 0.6565 0.0
O163 O 0.55579 0.0259 0.67423 0.0
C164 C 0.58028 0.00976 0.63519 0.0
O165 O 0.5787 0.03012 0.62971 0.0
C166 C 0.51692 0.03533 0.6404 0.0
O167 O 0.52437 0.01625 0.63499 0.0
O168 O 0.58266 0.05987 0.65447 0.0
C169 C 0.73427 0.81124 0.42718 0.0
O170 O 0.7516 0.81058 0.41909 0.0
O171 O 0.70564 0.7838 0.39688 0.0
Zn172 Zn 0.70852 0.81574 0.40411 0.0
O173 O 0.73377 0.83488 0.39634 0.0
C174 C 0.67183 0.83322 0.38928 0.0
O175 O 0.68407 0.82288 0.38041 0.0
O176 O 0.71382 0.81333 0.42294 0.0
C177 C 0.73393 0.85546 0.4006 0.0
O178 O 0.71858 0.86136 0.40924 0.0
C179 C 0.71264 0.77652 0.38613 0.0
O180 O 0.72448 0.79037 0.37865 0.0
O181 O 0.67873 0.83242 0.40077 0.0
C182 C 0.95066 0.97241 0.18583 0.0
O183 O 0.96623 0.98204 0.17842 0.0
O184 O 0.96513 0.95032 0.15494 0.0
Zn185 Zn 0.93327 0.9559 0.16194 0.0
O186 O 0.91783 0.98387 0.15447 0.0
C187 C 0.91889 0.91494 0.14863 0.0
O188 O 0.93739 0.91964 0.14185 0.0
O189 O 0.93491 0.96005 0.18086 0.0
C190 C 0.91043 0.98405 0.14306 0.0
O191 O 0.91424 0.96606 0.13571 0.0
C192 C 0.97476 0.96084 0.14573 0.0
O193 O 0.96432 0.97853 0.14042 0.0
O194 O 0.91359 0.92804 0.15792 0.0
C195 C 0.78845 0.1935 0.93291 0.0
O196 O 0.80552 0.20625 0.92858 0.0
O197 O 0.80101 0.205 0.90027 0.0
Zn198 Zn 0.78748 0.17551 0.90714 0.0
O199 O 0.75943 0.16576 0.89719 0.0
C200 C 0.83228 0.15374 0.90834 0.0
O201 O 0.83891 0.1743 0.91221 0.0
O202 O 0.77838 0.17944 0.92544 0.0
C203 C 0.76164 0.15229 0.88769 0.0
O204 O 0.78244 0.1459 0.88414 0.0
C205 C 0.81011 0.20567 0.88925 0.0
O206 O 0.80989 0.18701 0.88212 0.0
O207 O 0.81109 0.15024 0.90589 0.0
C208 C 0.93426 0.52184 0.68096 0.0
O209 O 0.93873 0.50627 0.67218 0.0
O210 O 0.95171 0.55902 0.65141 0.0
Zn211 Zn 0.92183 0.54853 0.65909 0.0
O212 O 0.90919 0.5204 0.65009 0.0
C213 C 0.89548 0.58166 0.64577 0.0
O214 O 0.90449 0.57008 0.6362 0.0
O215 O 0.92666 0.54152 0.6776 0.0
C216 C 0.88752 0.51854 0.64843 0.0
O217 O 0.87376 0.53483 0.65271 0.0
C218 C 0.96334 0.54854 0.64292 0.0
O219 O 0.95643 0.52822 0.63883 0.0
O220 O 0.90007 0.57535 0.65709 0.0
C221 C 0.70086 0.67929 0.92932 0.0
O222 O 0.68925 0.69568 0.92349 0.0
O223 O 0.69845 0.6905 0.89701 0.0
Zn224 Zn 0.69916 0.65865 0.90451 0.0
O225 O 0.72351 0.63932 0.896 0.0
C226 C 0.66107 0.64037 0.89075 0.0
O227 O 0.67526 0.64467 0.88127 0.0
O228 O 0.70662 0.66129 0.92314 0.0
C229 C 0.72133 0.6175 0.8953 0.0
O230 O 0.70284 0.60766 0.90013 0.0
C231 C 0.70468 0.69616 0.88582 0.0
O232 O 0.71319 0.68037 0.87813 0.0
O233 O 0.66764 0.64464 0.90207 0.0
C234 C 0.57037 0.47626 0.17632 0.0
O235 O 0.56819 0.49412 0.16868 0.0
O236 O 0.54666 0.454 0.14497 0.0
Zn237 Zn 0.57854 0.45407 0.15266 0.0
O238 O 0.59737 0.4812 0.14684 0.0
C239 C 0.59 0.41228 0.13892 0.0
O240 O 0.57307 0.41903 0.13147 0.0
O241 O 0.57491 0.45657 0.17158 0.0
C242 C 0.6079 0.48204 0.13623 0.0
O243 O 0.60628 0.4646 0.12825 0.0
C244 C 0.54097 0.46284 0.13433 0.0
O245 O 0.55664 0.4734 0.1274 0.0
O246 O 0.59536 0.42452 0.14854 0.0
C247 C 0.77205 0.33233 0.44035 0.0
O248 O 0.7572 0.34468 0.43378 0.0
O249 O 0.79834 0.29278 0.40882 0.0
Zn250 Zn 0.79254 0.32466 0.41559 0.0
O251 O 0.76447 0.33902 0.40769 0.0
C252 C 0.83234 0.33867 0.40147 0.0
O253 O 0.82679 0.3201 0.39495 0.0
O254 O 0.78877 0.32262 0.4346 0.0
C255 C 0.76133 0.34043 0.39573 0.0
O256 O 0.77655 0.33125 0.38794 0.0
C257 C 0.7846 0.27942 0.40292 0.0
O258 O 0.763 0.28563 0.4012 0.0
O259 O 0.8201 0.34441 0.41104 0.0
C260 C 0.94809 0.47812 0.81521 0.0
O261 O 0.94469 0.49555 0.82302 0.0
O262 O 0.97118 0.45366 0.84876 0.0
Zn263 Zn 0.94221 0.45248 0.83826 0.0
O264 O 0.91908 0.47577 0.84454 0.0
C265 C 0.92393 0.41549 0.8523 0.0
O266 O 0.92817 0.43052 0.8614 0.0
O267 O 0.94832 0.45769 0.81965 0.0
C268 C 0.89783 0.47195 0.84231 0.0
O269 O 0.89194 0.45331 0.83593 0.0
C270 C 0.99111 0.45928 0.84475 0.0
O271 O 0.9936 0.46629 0.83292 0.0
O272 O 0.92872 0.42088 0.84086 0.0
C273 C 0.77672 0.70361 0.05896 0.0
O274 O 0.77021 0.72129 0.06596 0.0
O275 O 0.79687 0.71807 0.08978 0.0
Zn276 Zn 0.79132 0.68594 0.0832 0.0
O277 O 0.7635 0.67072 0.0909 0.0
C278 C 0.83154 0.67146 0.09708 0.0
O279 O 0.82631 0.68968 0.10397 0.0
O280 O 0.78669 0.68659 0.06428 0.0
C281 C 0.76245 0.66463 0.10252 0.0
O282 O 0.77956 0.66985 0.11023 0.0
C283 C 0.78527 0.72887 0.09816 0.0
O284 O 0.76661 0.71937 0.10298 0.0
O285 O 0.81912 0.66647 0.08746 0.0
C286 C 0.56348 0.51048 0.31171 0.0
O287 O 0.55968 0.49357 0.3198 0.0
O288 O 0.53883 0.53743 0.34181 0.0
Zn289 Zn 0.57114 0.53492 0.33482 0.0
O290 O 0.58826 0.50766 0.34204 0.0
C291 C 0.5857 0.5761 0.34819 0.0
O292 O 0.56982 0.5695 0.35635 0.0
O293 O 0.56872 0.53036 0.31596 0.0
C294 C 0.59871 0.50811 0.35268 0.0
O295 O 0.59798 0.52692 0.35968 0.0
C296 C 0.53242 0.53092 0.35283 0.0
O297 O 0.54748 0.52147 0.3606 0.0
O298 O 0.58914 0.56412 0.33821 0.0
C299 C 0.72935 0.29852 0.57373 0.0
O300 O 0.74591 0.29202 0.5815 0.0
O301 O 0.69927 0.28448 0.60657 0.0
Zn302 Zn 0.70811 0.31314 0.59705 0.0
O303 O 0.73782 0.3273 0.6031 0.0
C304 C 0.68215 0.34847 0.60974 0.0
O305 O 0.69826 0.34555 0.61842 0.0
O306 O 0.71098 0.30716 0.57833 0.0
C307 C 0.74214 0.34649 0.59771 0.0
O308 O 0.72767 0.35429 0.58907 0.0
C309 C 0.71242 0.26826 0.61029 0.0
O310 O 0.73468 0.26932 0.60789 0.0
O311 O 0.68273 0.33633 0.59964 0.0
C312 C 0.05944 0.47078 0.31446 0.0
O313 O 0.04444 0.48206 0.32152 0.0
O314 O 0.04266 0.44572 0.34512 0.0
Zn315 Zn 0.07409 0.45509 0.33885 0.0
O316 O 0.08391 0.48596 0.34568 0.0
C317 C 0.09346 0.41865 0.35397 0.0
O318 O 0.07453 0.42216 0.36061 0.0
O319 O 0.07387 0.45743 0.31984 0.0
C320 C 0.08958 0.48915 0.35724 0.0
O321 O 0.08812 0.47187 0.36533 0.0
C322 C 0.02893 0.4584 0.35148 0.0
O323 O 0.03466 0.47991 0.35397 0.0
O324 O 0.09722 0.4309 0.34413 0.0
C325 C 0.27481 0.31587 0.06413 0.0
O326 O 0.25692 0.31752 0.07178 0.0
O327 O 0.30701 0.30254 0.09741 0.0
Zn328 Zn 0.29875 0.33005 0.08669 0.0
O329 O 0.26963 0.34555 0.09258 0.0
C330 C 0.3295 0.3602 0.0992 0.0
O331 O 0.31757 0.35238 0.10894 0.0
O332 O 0.29486 0.32026 0.06843 0.0
C333 C 0.25948 0.34243 0.10318 0.0
O334 O 0.26815 0.32778 0.11147 0.0
C335 C 0.29482 0.28432 0.09802 0.0
O336 O 0.27529 0.28327 0.09166 0.0
O337 O 0.32456 0.35302 0.08808 0.0
C338 C 0.41311 0.52449 0.81351 0.0
O339 O 0.4165 0.50731 0.82149 0.0
O340 O 0.43279 0.55161 0.84491 0.0
Zn341 Zn 0.40178 0.54671 0.83672 0.0
O342 O 0.38599 0.5178 0.84277 0.0
C343 C 0.3886 0.59422 0.83816 0.0
O344 O 0.40903 0.597 0.83292 0.0
O345 O 0.40655 0.54392 0.81785 0.0
C346 C 0.39037 0.50672 0.85294 0.0
O347 O 0.40659 0.51421 0.86066 0.0
C348 C 0.43509 0.56056 0.85591 0.0
O349 O 0.41659 0.56578 0.86257 0.0
O350 O 0.38151 0.5739 0.84054 0.0
C351 C 0.23235 0.68534 0.56607 0.0
O352 O 0.24901 0.68599 0.57458 0.0
O353 O 0.20415 0.71483 0.59558 0.0
Zn354 Zn 0.20386 0.68274 0.58839 0.0
O355 O 0.22767 0.66331 0.59738 0.0
C356 C 0.15451 0.67846 0.59443 0.0
O357 O 0.15549 0.70064 0.59704 0.0
O358 O 0.21151 0.68406 0.5698 0.0
C359 C 0.22245 0.64404 0.60244 0.0
O360 O 0.20098 0.63674 0.60194 0.0
C361 C 0.20295 0.71826 0.60752 0.0
O362 O 0.20174 0.70041 0.61524 0.0
O363 O 0.1725 0.66812 0.59047 0.0
C364 C 0.07938 0.52009 0.18078 0.0
O365 O 0.09718 0.5125 0.17423 0.0
O366 O 0.03337 0.54394 0.14971 0.0
Zn367 Zn 0.06475 0.53443 0.15606 0.0
O368 O 0.07619 0.50468 0.1484 0.0
C369 C 0.08453 0.57214 0.14216 0.0
O370 O 0.06598 0.5689 0.13517 0.0
O371 O 0.06315 0.53047 0.17498 0.0
C372 C 0.08336 0.50362 0.13697 0.0
O373 O 0.08153 0.52192 0.12963 0.0
C374 C 0.02193 0.53464 0.14073 0.0
O375 O 0.03021 0.51631 0.13493 0.0
O376 O 0.08774 0.55951 0.15191 0.0
C377 C 0.23233 0.29526 0.93043 0.0
O378 O 0.24817 0.29034 0.92188 0.0
O379 O 0.1965 0.27905 0.89993 0.0
Zn380 Zn 0.20731 0.3084 0.90816 0.0
O381 O 0.2365 0.32012 0.90014 0.0
C382 C 0.18594 0.35279 0.90212 0.0
O383 O 0.20727 0.35966 0.90016 0.0
O384 O 0.21293 0.3031 0.92677 0.0
C385 C 0.23832 0.3235 0.88822 0.0
O386 O 0.22097 0.31795 0.88073 0.0
C387 C 0.20895 0.26477 0.89379 0.0
O388 O 0.23123 0.26857 0.89264 0.0
O389 O 0.18213 0.33221 0.90586 0.0
C390 C 0.43903 0.48652 0.67903 0.0
O391 O 0.44307 0.50381 0.67122 0.0
O392 O 0.46626 0.46507 0.64873 0.0
Zn393 Zn 0.43373 0.46449 0.65534 0.0
O394 O 0.41464 0.4912 0.64914 0.0
C395 C 0.40649 0.43483 0.6395 0.0
O396 O 0.40562 0.45377 0.63261 0.0
O397 O 0.43475 0.46667 0.6744 0.0
C398 C 0.39387 0.49071 0.65307 0.0
O399 O 0.38734 0.47377 0.6606 0.0
C400 C 0.47131 0.46251 0.63703 0.0
O401 O 0.4546 0.46069 0.62861 0.0
O402 O 0.41801 0.4349 0.64984 0.0
C403 C 0.27286 0.67648 0.43123 0.0
O404 O 0.25507 0.67874 0.42355 0.0
O405 O 0.30462 0.69296 0.3985 0.0
Zn406 Zn 0.29478 0.66434 0.40784 0.0
O407 O 0.26441 0.65179 0.40167 0.0
C408 C 0.32049 0.63207 0.39349 0.0
O409 O 0.30563 0.63899 0.38482 0.0
O410 O 0.29232 0.6707 0.42661 0.0
C411 C 0.25323 0.65822 0.39187 0.0
O412 O 0.26159 0.67471 0.38461 0.0
C413 C 0.29442 0.71239 0.39877 0.0
O414 O 0.27525 0.71466 0.40536 0.0
O415 O 0.31916 0.64039 0.40468 0.0
H416 H 0.46565 0.98863 0.29347 0.0
H417 H 0.45987 0.99761 0.27094 0.0
H418 H 0.3984 0.95539 0.27052 0.0
H419 H 0.40429 0.94595 0.293 0.0
H420 H 0.42323 0.94914 0.24922 0.0
H421 H 0.39449 0.01379 0.27302 0.0
H422 H 0.3962 0.04522 0.28888 0.0
H423 H 0.4524 0.07654 0.26849 0.0
H424 H 0.45125 0.04509 0.25259 0.0
H425 H 0.37341 0.99535 0.19284 0.0
H426 H 0.37996 0.98494 0.21514 0.0
H427 H 0.44361 0.02374 0.21507 0.0
H428 H 0.43718 0.03435 0.19279 0.0
H429 H 0.41747 0.03161 0.23655 0.0
H430 H 0.44549 0.96644 0.21256 0.0
H431 H 0.44278 0.93505 0.19671 0.0
H432 H 0.38645 0.90485 0.21752 0.0
H433 H 0.38862 0.93626 0.2334 0.0
C434 C 0.451 0.9811 0.28857 0.0
C435 C 0.43532 0.96674 0.29505 0.0
C436 C 0.44767 0.98633 0.27571 0.0
C437 C 0.42847 0.97749 0.26913 0.0
C438 C 0.41327 0.96246 0.27544 0.0
C439 C 0.41665 0.95712 0.28829 0.0
C440 C 0.42391 0.98443 0.25578 0.0
C441 C 0.42168 0.96716 0.24647 0.0
C442 C 0.42226 0.00797 0.25218 0.0
C443 C 0.42293 0.02696 0.26169 0.0
C444 C 0.40733 0.02728 0.27197 0.0
C445 C 0.40818 0.04512 0.28096 0.0
C446 C 0.42444 0.06284 0.27971 0.0
C447 C 0.43984 0.06279 0.26945 0.0
C448 C 0.43909 0.04497 0.26045 0.0
C449 C 0.38874 0.00178 0.19758 0.0
C450 C 0.40483 0.01559 0.19103 0.0
C451 C 0.3925 0.99572 0.21029 0.0
C452 C 0.4124 0.00336 0.21667 0.0
C453 C 0.42819 0.01763 0.21028 0.0
C454 C 0.4245 0.02362 0.19755 0.0
C455 C 0.41686 0.99633 0.23 0.0
C456 C 0.41904 0.0136 0.23931 0.0
C457 C 0.41831 0.9728 0.2336 0.0
C458 C 0.41707 0.95383 0.2241 0.0
C459 C 0.4324 0.95321 0.2137 0.0
C460 C 0.43099 0.93539 0.20472 0.0
C461 C 0.41441 0.918 0.20609 0.0
C462 C 0.39926 0.91835 0.21646 0.0
C463 C 0.40059 0.93614 0.22546 0.0
H464 H 0.41334 0.90423 0.19912 0.0
H465 H 0.42506 0.07663 0.28668 0.0
H466 H 0.22483 0.20796 0.55102 0.0
H467 H 0.22095 0.20385 0.52794 0.0
H468 H 0.28718 0.16972 0.5263 0.0
H469 H 0.29146 0.1743 0.54934 0.0
H470 H 0.28298 0.19879 0.50707 0.0
H471 H 0.23629 0.13893 0.52529 0.0
H472 H 0.20614 0.12248 0.53921 0.0
H473 H 0.1546 0.16335 0.52028 0.0
H474 H 0.18451 0.1803 0.50636 0.0
H475 H 0.26864 0.14746 0.4459 0.0
H476 H 0.27333 0.15273 0.46889 0.0
H477 H 0.21058 0.19289 0.4701 0.0
H478 H 0.20569 0.18768 0.44712 0.0
H479 H 0.2132 0.1605 0.48942 0.0
H480 H 0.26113 0.21992 0.47101 0.0
H481 H 0.29188 0.23497 0.45701 0.0
H482 H 0.34189 0.19278 0.4763 0.0
H483 H 0.31136 0.17723 0.49031 0.0
C484 C 0.23863 0.19969 0.54574 0.0
C485 C 0.25838 0.19132 0.55201 0.0
C486 C 0.23634 0.19726 0.53256 0.0
C487 C 0.25359 0.1861 0.52544 0.0
C488 C 0.27362 0.17831 0.53162 0.0
C489 C 0.27602 0.18092 0.54479 0.0
C490 C 0.25062 0.18224 0.51157 0.0
C491 C 0.26786 0.19015 0.50323 0.0
C492 C 0.23072 0.17127 0.50654 0.0
C493 C 0.21268 0.16105 0.51487 0.0
C494 C 0.21855 0.14454 0.52416 0.0
C495 C 0.2015 0.1351 0.53204 0.0
C496 C 0.17848 0.14191 0.53065 0.0
C497 C 0.17245 0.15812 0.52135 0.0
C498 C 0.18944 0.16763 0.51346 0.0
C499 C 0.2558 0.15736 0.45105 0.0
C500 C 0.23684 0.16723 0.44469 0.0
C501 C 0.25856 0.16042 0.46417 0.0
C502 C 0.24241 0.17338 0.47114 0.0
C503 C 0.22324 0.18287 0.46486 0.0
C504 C 0.22053 0.17992 0.45174 0.0
C505 C 0.2455 0.17711 0.48498 0.0
C506 C 0.2283 0.16913 0.49329 0.0
C507 C 0.26552 0.18781 0.48999 0.0
C508 C 0.28392 0.19725 0.48162 0.0
C509 C 0.27865 0.21372 0.4722 0.0
C510 C 0.29605 0.22236 0.46428 0.0
C511 C 0.31881 0.21479 0.46574 0.0
C512 C 0.32424 0.19861 0.47517 0.0
C513 C 0.3069 0.18989 0.48311 0.0
H514 H 0.33226 0.22151 0.4596 0.0
H515 H 0.1653 0.13458 0.53676 0.0
H516 H 0.04177 0.03998 0.79734 0.0
H517 H 0.03968 0.03264 0.77443 0.0
H518 H 0.03912 0.95917 0.78146 0.0
H519 H 0.04131 0.96632 0.80442 0.0
H520 H 0.07144 0.97183 0.76382 0.0
H521 H 0.99096 0.98512 0.7712 0.0
H522 H 0.95693 0.00619 0.77926 0.0
H523 H 0.97392 0.06425 0.75554 0.0
H524 H 0.00826 0.04366 0.74748 0.0
H525 H 0.05678 0.94353 0.69876 0.0
H526 H 0.04958 0.94647 0.72166 0.0
H527 H 0.04531 0.02071 0.71845 0.0
H528 H 0.05195 0.0179 0.6955 0.0
H529 H 0.01307 0.00492 0.73437 0.0
H530 H 0.09487 0.99408 0.72861 0.0
H531 H 0.12991 0.97441 0.72078 0.0
H532 H 0.11145 0.91332 0.74168 0.0
H533 H 0.07612 0.93254 0.74951 0.0
C534 C 0.04097 0.02225 0.79403 0.0
C535 C 0.0418 0.00372 0.80269 0.0
C536 C 0.03965 0.0181 0.78094 0.0
C537 C 0.0391 0.99537 0.77628 0.0
C538 C 0.03949 0.97684 0.7849 0.0
C539 C 0.04069 0.98097 0.798 0.0
C540 C 0.03965 0.99101 0.76238 0.0
C541 C 0.05843 0.97866 0.75739 0.0
C542 C 0.023 0.00049 0.75402 0.0
C543 C 0.0023 0.0129 0.75881 0.0
C544 C 0.98755 0.00245 0.76778 0.0
C545 C 0.96818 0.01429 0.77233 0.0
C546 C 0.96329 0.03656 0.76793 0.0
C547 C 0.97774 0.04701 0.75895 0.0
C548 C 0.99714 0.03524 0.75437 0.0
C549 C 0.05416 0.96048 0.70291 0.0
C550 C 0.05514 0.98051 0.69534 0.0
C551 C 0.0501 0.96212 0.716 0.0
C552 C 0.04727 0.98383 0.72178 0.0
C553 C 0.04749 0.00379 0.71418 0.0
C554 C 0.05137 0.00215 0.70108 0.0
C555 C 0.04495 0.98588 0.7358 0.0
C556 C 0.02591 0.99785 0.74081 0.0
C557 C 0.06148 0.97623 0.7442 0.0
C558 C 0.08273 0.96466 0.73953 0.0
C559 C 0.09819 0.97639 0.73146 0.0
C560 C 0.11812 0.96533 0.72703 0.0
C561 C 0.12286 0.9426 0.7307 0.0
C562 C 0.10772 0.93091 0.73883 0.0
C563 C 0.08776 0.94188 0.74327 0.0
H564 H 0.1383 0.93407 0.72727 0.0
H565 H 0.94829 0.0457 0.77147 0.0
H566 H 0.28649 0.8403 0.94958 0.0
H567 H 0.27467 0.83235 0.97141 0.0
H568 H 0.29223 0.76041 0.96652 0.0
H569 H 0.30398 0.7682 0.94446 0.0
H570 H 0.24964 0.76595 0.97716 0.0
H571 H 0.32552 0.79342 0.98517 0.0
H572 H 0.35914 0.8194 0.98343 0.0
H573 H 0.3196 0.8749 -0.00037 0.0
H574 H 0.28561 0.84936 0.0013 0.0
H575 H 0.23014 0.74955 0.04466 0.0
H576 H 0.24737 0.74997 0.02333 0.0
H577 H 0.23149 0.82253 0.01982 0.0
H578 H 0.21421 0.82231 0.04105 0.0
H579 H 0.27734 0.81181 0.01412 0.0
H580 H 0.20048 0.78473 0.00379 0.0
H581 H 0.16707 0.75844 0.00544 0.0
H582 H 0.20952 0.70137 0.99374 0.0
H583 H 0.24329 0.72729 0.9922 0.0
C584 C 0.28806 0.8228 0.95314 0.0
C585 C 0.29615 0.80487 0.94528 0.0
C586 C 0.28139 0.81831 0.96566 0.0
C587 C 0.28278 0.79583 0.97061 0.0
C588 C 0.29111 0.77789 0.96286 0.0
C589 C 0.29788 0.78239 0.9503 0.0
C590 C 0.27438 0.79119 0.98368 0.0
C591 C 0.25603 0.77559 0.98531 0.0
C592 C 0.28253 0.80401 0.99425 0.0
C593 C 0.30295 0.81949 0.99328 0.0
C594 C 0.32393 0.81122 0.98827 0.0
C595 C 0.34307 0.82586 0.98731 0.0
C596 C 0.3415 0.8488 0.9914 0.0
C597 C 0.32079 0.85713 0.99647 0.0
C598 C 0.30158 0.84256 -0.00256 0.0
C599 C 0.23012 0.76554 0.03929 0.0
C600 C 0.22088 0.78592 0.04455 0.0
C601 C 0.23993 0.76572 0.02712 0.0
C602 C 0.24072 0.78629 0.02006 0.0
C603 C 0.23111 0.80652 0.02517 0.0
C604 C 0.22115 0.80632 0.03728 0.0
C605 C 0.25224 0.78709 0.00749 0.0
C606 C 0.27121 0.80193 0.006 0.0
C607 C 0.24474 0.77347 -0.00291 0.0
C608 C 0.22447 0.75789 -0.00196 0.0
C609 C 0.20275 0.76653 0.00169 0.0
C610 C 0.18373 0.75171 0.00258 0.0
C611 C 0.18619 0.72823 -0.00026 0.0
C612 C 0.20766 0.71955 0.99597 0.0
C613 C 0.22673 0.7343 0.99508 0.0
H614 H 0.17144 0.71679 0.00042 0.0
H615 H 0.35634 0.86011 0.99065 0.0
H616 H 0.56966 0.00776 0.79703 0.0
H617 H 0.56098 0.0107 0.77434 0.0
H618 H 0.55529 0.93645 0.7719 0.0
H619 H 0.5644 0.9333 0.79462 0.0
H620 H 0.58079 0.9531 0.75286 0.0
H621 H 0.5071 0.9702 0.77061 0.0
H622 H 0.47916 0.98945 0.78482 0.0
H623 H 0.49601 0.05516 0.7682 0.0
H624 H 0.52431 0.03635 0.75401 0.0
H625 H 0.54185 0.96339 0.68844 0.0
H626 H 0.54141 0.95389 0.7112 0.0
H627 H 0.55325 0.0256 0.72044 0.0
H628 H 0.5536 0.03527 0.69781 0.0
H629 H 0.52039 0.00561 0.73588 0.0
H630 H 0.5974 0.98852 0.72024 0.0
H631 H 0.62555 0.9692 0.70616 0.0
H632 H 0.60173 0.90286 0.719 0.0
H633 H 0.57321 0.92182 0.73304 0.0
C634 C 0.56647 0.99205 0.7917 0.0
C635 C 0.56772 0.9703 0.79762 0.0
C636 C 0.56136 0.99376 0.77874 0.0
C637 C 0.55716 0.97381 0.77148 0.0
C638 C 0.55839 0.95206 0.77735 0.0
C639 C 0.56357 0.95031 0.79033 0.0
C640 C 0.55252 0.97575 0.75764 0.0
C641 C 0.56726 0.96419 0.74914 0.0
C642 C 0.53505 0.99046 0.75281 0.0
C643 C 0.51796 0.00186 0.7613 0.0
C644 C 0.50497 0.98878 0.77004 0.0
C645 C 0.48905 -0.00039 0.77809 0.0
C646 C 0.48584 0.02352 0.77743 0.0
C647 C 0.49852 0.03664 0.76871 0.0
C648 C 0.51449 0.02589 0.76064 0.0
C649 C 0.54419 0.97715 0.69533 0.0
C650 C 0.54792 6e-05 0.69133 0.0
C651 C 0.54398 0.97169 0.70831 0.0
C652 C 0.54748 0.98904 0.71746 0.0
C653 C 0.5505 0.01199 0.71351 0.0
C654 C 0.55081 0.01744 0.70057 0.0
C655 C 0.54896 0.98336 0.73118 0.0
C656 C 0.53364 0.99422 0.73963 0.0
C657 C 0.56583 0.96795 0.73597 0.0
C658 C 0.583 0.95657 0.72756 0.0
C659 C 0.59804 0.96981 0.71997 0.0
C660 C 0.61408 0.95893 0.71202 0.0
C661 C 0.61537 0.93482 0.71165 0.0
C662 C 0.60067 0.92154 0.71927 0.0
C663 C 0.58457 0.93234 0.72723 0.0
H664 H 0.62781 0.92643 0.70549 0.0
H665 H 0.4735 0.03187 0.78367 0.0
H666 H 0.77579 0.81312 0.43953 0.0
H667 H 0.78263 0.8121 0.4625 0.0
H668 H 0.70936 0.80506 0.46912 0.0
H669 H 0.70233 0.80668 0.44618 0.0
H670 H 0.72682 0.83605 0.48462 0.0
H671 H 0.74715 0.75886 0.47236 0.0
H672 H 0.76748 0.72882 0.46001 0.0
H673 H 0.83275 0.75433 0.47347 0.0
H674 H 0.81282 0.78474 0.48577 0.0
H675 H 0.73255 0.80424 0.54965 0.0
H676 H 0.72681 0.802 0.5266 0.0
H677 H 0.7988 0.81783 0.52053 0.0
H678 H 0.80476 0.82011 0.54361 0.0
H679 H 0.78232 0.78202 0.50492 0.0
H680 H 0.76125 0.85946 0.51705 0.0
H681 H 0.74036 0.88884 0.52959 0.0
H682 H 0.67554 0.86168 0.51644 0.0
H683 H 0.69605 0.83191 0.50395 0.0
C684 C 0.76114 0.81125 0.44587 0.0
C685 C 0.73852 0.80996 0.44104 0.0
C686 C 0.76509 0.81056 0.459 0.0
C687 C 0.74653 0.80821 0.46752 0.0
C688 C 0.72394 0.80686 0.46272 0.0
C689 C 0.71996 0.80776 0.4496 0.0
C690 C 0.75055 0.80789 0.48148 0.0
C691 C 0.7387 0.82398 0.48906 0.0
C692 C 0.76646 0.79252 0.48725 0.0
C693 C 0.77849 0.77422 0.47988 0.0
C694 C 0.76584 0.75818 0.4726 0.0
C695 C 0.77729 0.74106 0.46563 0.0
C696 C 0.80139 0.7397 0.46593 0.0
C697 C 0.81409 0.75542 0.47323 0.0
C698 C 0.80272 0.77259 0.48022 0.0
C699 C 0.74721 0.80711 0.54343 0.0
C700 C 0.76908 0.8125 0.54844 0.0
C701 C 0.74387 0.80588 0.53027 0.0
C702 C 0.76234 0.80997 0.52191 0.0
C703 C 0.78435 0.81465 0.52686 0.0
C704 C 0.78768 0.81604 0.54003 0.0
C705 C 0.75849 0.81004 0.50798 0.0
C706 C 0.77041 0.79399 0.50043 0.0
C707 C 0.74255 0.82534 0.50223 0.0
C708 C 0.73018 0.84332 0.50967 0.0
C709 C 0.74253 0.85963 0.51691 0.0
C710 C 0.73076 0.87638 0.524 0.0
C711 C 0.70663 0.87709 0.52384 0.0
C712 C 0.69423 0.86109 0.51657 0.0
C713 C 0.70592 0.84429 0.50948 0.0
H714 H 0.69755 0.89006 0.52934 0.0
H715 H 0.81022 0.72644 0.46052 0.0
H716 H 0.95743 0.04401 0.30306 0.0
H717 H 0.96624 0.03271 0.28111 0.0
H718 H 0.90181 0.9954 0.27899 0.0
H719 H 0.89289 0.00651 0.30091 0.0
H720 H 0.9384 0.97055 0.26927 0.0
H721 H 0.90627 0.04735 0.26547 0.0
H722 H 0.90389 0.08908 0.27009 0.0
H723 H 0.97282 0.0986 0.25588 0.0
H724 H 0.97572 0.05683 0.25133 0.0
H725 H 0.91914 0.95757 0.20337 0.0
H726 H 0.91782 0.9667 0.22605 0.0
H727 H 0.98076 0.00618 0.22249 0.0
H728 H 0.98198 0.99748 0.19966 0.0
H729 H 0.94924 0.02967 0.23552 0.0
H730 H 0.98046 0.95357 0.23755 0.0
H731 H 0.98315 0.91187 0.23291 0.0
H732 H 0.91706 0.90075 0.25047 0.0
H733 H 0.91381 0.94245 0.25506 0.0
C734 C 0.94514 0.03339 0.29793 0.0
C735 C 0.92441 0.02622 0.3037 0.0
C736 C 0.95019 0.027 0.28539 0.0
C737 C 0.9346 0.01335 0.27843 0.0
C738 C 0.91406 0.00593 0.28422 0.0
C739 C 0.90895 0.01238 0.29673 0.0
C740 C 0.93949 0.00695 0.26504 0.0
C741 C 0.94059 0.98343 0.26185 0.0
C742 C 0.94305 0.02383 0.25549 0.0
C743 C 0.94131 0.04893 0.2582 0.0
C744 C 0.92099 0.05831 0.26343 0.0
C745 C 0.91953 0.08197 0.26602 0.0
C746 C 0.93822 0.09647 0.26331 0.0
C747 C 0.95838 0.08734 0.25799 0.0
C748 C 0.95993 0.06368 0.2554 0.0
C749 C 0.93283 0.96805 0.20741 0.0
C750 C 0.95066 0.97683 0.19971 0.0
C751 C 0.9321 0.97315 0.2204 0.0
C752 C 0.94934 0.98689 0.22599 0.0
C753 C 0.96732 0.99549 0.21836 0.0
C754 C 0.96801 0.99047 0.20533 0.0
C755 C 0.94782 0.99319 0.23966 0.0
C756 C 0.94735 0.01672 0.24293 0.0
C757 C 0.94493 0.97631 0.24929 0.0
C758 C 0.94682 0.95119 0.24656 0.0
C759 C 0.96642 0.94227 0.24034 0.0
C760 C 0.96806 0.91862 0.23773 0.0
C761 C 0.95027 0.90368 0.24137 0.0
C762 C 0.93082 0.91235 0.24765 0.0
C763 C 0.92908 0.93599 0.25027 0.0
H764 H 0.95157 0.88538 0.23934 0.0
H765 H 0.93705 0.11479 0.26532 0.0
H766 H 0.80586 0.22174 0.95156 0.0
H767 H 0.79419 0.22338 0.97398 0.0
H768 H 0.74334 0.17023 0.96716 0.0
H769 H 0.7546 0.16871 0.94478 0.0
H770 H 0.72591 0.20432 0.98165 0.0
H771 H 0.79512 0.15766 0.98102 0.0
H772 H 0.83605 0.14946 0.97629 0.0
H773 H 0.85677 0.20705 -0.00052 0.0
H774 H 0.81592 0.21576 0.00422 0.0
H775 H 0.70423 0.15972 0.04314 0.0
H776 H 0.71516 0.16592 0.02093 0.0
H777 H 0.7641 0.21812 0.03256 0.0
H778 H 0.75353 0.21176 0.05486 0.0
H779 H 0.78302 0.18873 0.01587 0.0
H780 H 0.71361 0.23324 0.01803 0.0
H781 H 0.67264 0.24089 0.02289 0.0
H782 H 0.65211 0.18724 0.99695 0.0
H783 H 0.69299 0.17904 0.99206 0.0
C784 C 0.79214 0.21045 0.95483 0.0
C785 C 0.78122 0.19502 0.9464 0.0
C786 C 0.78555 0.21137 0.96764 0.0
C787 C 0.76805 0.19677 0.97225 0.0
C788 C 0.75687 0.18167 0.9638 0.0
C789 C 0.7634 0.18076 0.95101 0.0
C790 C 0.76154 0.19683 0.9859 0.0
C791 C 0.73835 0.20074 0.98914 0.0
C792 C 0.77791 0.19277 0.99567 0.0
C793 C 0.80247 0.18752 0.99285 0.0
C794 C 0.8084 0.16868 0.98502 0.0
C795 C 0.83159 0.16392 0.98236 0.0
C796 C 0.849 0.17777 0.98755 0.0
C797 C 0.84326 0.19636 0.99545 0.0
C798 C 0.8201 0.20121 -0.00187 0.0
C799 C 0.71723 0.17263 0.04098 0.0
C800 C 0.72802 0.18525 0.05076 0.0
C801 C 0.72337 0.17622 0.02827 0.0
C802 C 0.74025 0.19267 0.02508 0.0
C803 C 0.75099 0.20538 0.03482 0.0
C804 C 0.7449 0.20175 0.04755 0.0
C805 C 0.7473 0.19587 0.01162 0.0
C806 C 0.77061 0.19258 0.00841 0.0
C807 C 0.73102 0.20047 0.00188 0.0
C808 C 0.70639 0.20541 0.00476 0.0
C809 C 0.70037 0.22296 0.01343 0.0
C810 C 0.67716 0.22741 0.01618 0.0
C811 C 0.65979 0.21453 0.01025 0.0
C812 C 0.66559 0.1972 0.00154 0.0
C813 C 0.68878 0.19266 -0.00124 0.0
H814 H 0.64182 0.218 0.01239 0.0
H815 H 0.86694 0.17405 0.98548 0.0
H816 H 0.9304 0.55133 0.7012 0.0
H817 H 0.93611 0.5425 0.72375 0.0
H818 H 0.95214 0.47176 0.7142 0.0
H819 H 0.94637 0.4804 0.69158 0.0
H820 H 0.92123 0.47521 0.73393 0.0
H821 H 0.99476 0.50719 0.72279 0.0
H822 H 0.02141 0.53604 0.71367 0.0
H823 H 0.99639 0.58711 0.73999 0.0
H824 H 0.96934 0.55864 0.74915 0.0
H825 H 0.95662 0.44616 0.79656 0.0
H826 H 0.9575 0.45252 0.77353 0.0
H827 H 0.9446 0.5252 0.77942 0.0
H828 H 0.94413 0.51909 0.80246 0.0
H829 H 0.97624 0.51881 0.76114 0.0
H830 H 0.90102 0.48828 0.77119 0.0
H831 H 0.87349 0.46013 0.7802 0.0
H832 H 0.90085 0.40711 0.75583 0.0
H833 H 0.92877 0.43489 0.7468 0.0
C834 C 0.9352 0.5339 0.70387 0.0
C835 C 0.93796 0.51656 0.6946 0.0
C836 C 0.93857 0.52892 0.71676 0.0
C837 C 0.94478 0.50654 0.72061 0.0
C838 C 0.94742 0.48916 0.7114 0.0
C839 C 0.94417 0.49414 0.69849 0.0
C840 C 0.94785 0.50122 0.73431 0.0
C841 C 0.93355 0.48443 0.73985 0.0
C842 C 0.96356 0.51367 0.74204 0.0
C843 C 0.97987 0.53082 0.73658 0.0
C844 C 0.9948 0.52462 0.72657 0.0
C845 C 0.01001 0.5409 0.7214 0.0
C846 C 0.01056 0.56341 0.72623 0.0
C847 C 0.99593 0.56967 0.73626 0.0
C848 C 0.98068 0.55346 0.74145 0.0
C849 C 0.95413 0.46353 0.79296 0.0
C850 C 0.95013 0.4821 0.80133 0.0
C851 C 0.95456 0.46711 0.7798 0.0
C852 C 0.95076 0.48927 0.77476 0.0
C853 C 0.94752 0.50795 0.78311 0.0
C854 C 0.94719 0.50441 0.79627 0.0
C855 C 0.94948 0.49293 0.7608 0.0
C856 C 0.96408 0.50943 0.7552 0.0
C857 C 0.93395 0.48031 0.75302 0.0
C858 C 0.91715 0.46359 0.75842 0.0
C859 C 0.90129 0.47057 0.76783 0.0
C860 C 0.88559 0.45469 0.77292 0.0
C861 C 0.88546 0.43183 0.76862 0.0
C862 C 0.901 0.42481 0.75917 0.0
C863 C 0.91675 0.44062 0.75406 0.0
H864 H 0.87329 0.41956 0.77257 0.0
H865 H 0.02234 0.57599 0.72222 0.0
H866 H 0.75785 0.73779 0.04428 0.0
H867 H 0.74615 0.73528 0.02192 0.0
H868 H 0.77033 0.66478 0.02039 0.0
H869 H 0.78257 0.6673 0.04262 0.0
H870 H 0.78186 0.68735 -0.00077 0.0
H871 H 0.71266 0.67767 0.02431 0.0
H872 H 0.68388 0.68877 0.04054 0.0
H873 H 0.66905 0.7511 0.01987 0.0
H874 H 0.69797 0.7405 0.00359 0.0
H875 H 0.72233 0.64773 0.94466 0.0
H876 H 0.73592 0.65334 0.96649 0.0
H877 H 0.71035 0.7234 0.96597 0.0
H878 H 0.69623 0.71777 0.94422 0.0
H879 H 0.70006 0.70288 0.98793 0.0
H880 H 0.7682 0.71163 0.9623 0.0
H881 H 0.79687 0.7003 0.94607 0.0
H882 H 0.81371 0.63959 0.96771 0.0
H883 H 0.7849 0.6504 0.98399 0.0
C884 C 0.76082 0.72181 0.03916 0.0
C885 C 0.77098 0.7027 0.04524 0.0
C886 C 0.75404 0.72037 0.0264 0.0
C887 C 0.75702 0.69971 0.01956 0.0
C888 C 0.76782 0.68086 0.0255 0.0
C889 C 0.77475 0.68233 0.03822 0.0
C890 C 0.74842 0.69745 0.00632 0.0
C891 C 0.76392 0.69052 0.99677 0.0
C892 C 0.72513 0.70209 0.00308 0.0
C893 C 0.70763 0.7084 0.01281 0.0
C894 C 0.70337 0.69382 0.02328 0.0
C895 C 0.68702 0.70001 0.03247 0.0
C896 C 0.67469 0.72066 0.03126 0.0
C897 C 0.67864 0.73513 0.02081 0.0
C898 C 0.69499 0.72903 0.01159 0.0
C899 C 0.71953 0.66431 0.9492 0.0
C900 C 0.70829 0.68233 0.9427 0.0
C901 C 0.72742 0.66754 0.96165 0.0
C902 C 0.72449 0.68893 0.96777 0.0
C903 C 0.71286 0.70679 0.9614 0.0
C904 C 0.70483 0.70353 0.94897 0.0
C905 C 0.73346 0.69262 0.98084 0.0
C906 C 0.71803 0.69982 0.99036 0.0
C907 C 0.75681 0.6882 0.98405 0.0
C908 C 0.77424 0.68173 0.97431 0.0
C909 C 0.7779 0.69578 0.96355 0.0
C910 C 0.79419 0.68947 0.95435 0.0
C911 C 0.80706 0.66921 0.95584 0.0
C912 C 0.80371 0.65526 0.96656 0.0
C913 C 0.78742 0.66149 0.97578 0.0
H914 H 0.81967 0.66435 0.9487 0.0
H915 H 0.66204 0.72542 0.03839 0.0
H916 H 0.56586 0.54246 0.2926 0.0
H917 H 0.5647 0.53541 0.26963 0.0
H918 H 0.55711 0.46227 0.27644 0.0
H919 H 0.55828 0.46912 0.29945 0.0
H920 H 0.59081 0.47251 0.2586 0.0
H921 H 0.51163 0.49213 0.2668 0.0
H922 H 0.47981 0.51604 0.27518 0.0
H923 H 0.50097 0.57245 0.25127 0.0
H924 H 0.53314 0.54897 0.24288 0.0
H925 H 0.56788 0.44239 0.19443 0.0
H926 H 0.56463 0.44731 0.21749 0.0
H927 H 0.56481 0.52142 0.21278 0.0
H928 H 0.5674 0.51664 0.18968 0.0
H929 H 0.5336 0.50934 0.22981 0.0
H930 H 0.61353 0.49153 0.22241 0.0
H931 H 0.64636 0.46882 0.21417 0.0
H932 H 0.62511 0.41057 0.23667 0.0
H933 H 0.59196 0.43285 0.24491 0.0
C934 C 0.56386 0.52488 0.28922 0.0
C935 C 0.56216 0.50634 0.29784 0.0
C936 C 0.5631 0.52091 0.2761 0.0
C937 C 0.56065 0.49835 0.27138 0.0
C938 C 0.55896 0.4798 0.27993 0.0
C939 C 0.55957 0.48377 0.29306 0.0
C940 C 0.56058 0.49409 0.25748 0.0
C941 C 0.57809 0.48023 0.2523 0.0
C942 C 0.54432 0.50472 0.2493 0.0
C943 C 0.52493 0.51885 0.2543 0.0
C944 C 0.50962 0.50969 0.26341 0.0
C945 C 0.49149 0.52316 0.26814 0.0
C946 C 0.4884 0.54577 0.26378 0.0
C947 C 0.5034 0.55494 0.25465 0.0
C948 C 0.52157 0.54155 0.24989 0.0
C949 C 0.56719 0.45973 0.1983 0.0
C950 C 0.56802 0.47914 0.19025 0.0
C951 C 0.56541 0.46252 0.21149 0.0
C952 C 0.56483 0.48474 0.21687 0.0
C953 C 0.56526 0.50412 0.20883 0.0
C954 C 0.56681 0.50135 0.19563 0.0
C955 C 0.56394 0.48783 0.23088 0.0
C956 C 0.54626 0.50149 0.23609 0.0
C957 C 0.58019 0.4772 0.23909 0.0
C958 C 0.60013 0.46378 0.23417 0.0
C959 C 0.61576 0.47382 0.22552 0.0
C960 C 0.63444 0.46104 0.22086 0.0
C961 C 0.63778 0.43824 0.22487 0.0
C962 C 0.62248 0.42821 0.23356 0.0
C963 C 0.60375 0.44091 0.23824 0.0
H964 H 0.65226 0.42838 0.22125 0.0
H965 H 0.47435 0.55617 0.26746 0.0
H966 H 0.76626 0.28109 0.56056 0.0
H967 H 0.77391 0.28451 0.53771 0.0
H968 H 0.70899 0.32 0.53265 0.0
H969 H 0.70095 0.31617 0.55538 0.0
H970 H 0.71601 0.29067 0.51369 0.0
H971 H 0.76058 0.34965 0.53491 0.0
H972 H 0.78902 0.36481 0.55033 0.0
H973 H 0.84219 0.32352 0.53311 0.0
H974 H 0.81401 0.30791 0.51768 0.0
H975 H 0.73628 0.34758 0.45512 0.0
H976 H 0.72968 0.33986 0.47772 0.0
H977 H 0.79316 0.30093 0.47944 0.0
H978 H 0.80002 0.30869 0.45683 0.0
H979 H 0.78793 0.33015 0.49989 0.0
H980 H 0.74299 0.27277 0.47793 0.0
H981 H 0.71431 0.2588 0.46233 0.0
H982 H 0.66133 0.29837 0.48092 0.0
H983 H 0.68978 0.31284 0.49652 0.0
C984 C 0.7535 0.2894 0.55456 0.0
C985 C 0.73308 0.29851 0.55979 0.0
C986 C 0.75796 0.29145 0.54152 0.0
C987 C 0.74221 0.3029 0.53353 0.0
C988 C 0.72141 0.31118 0.53865 0.0
C989 C 0.71687 0.309 0.55166 0.0
C990 C 0.74759 0.30689 0.5199 0.0
C991 C 0.73163 0.2995 0.51068 0.0
C992 C 0.76819 0.31802 0.51597 0.0
C993 C 0.78514 0.32743 0.52523 0.0
C994 C 0.7783 0.34368 0.53448 0.0
C995 C 0.79438 0.35237 0.5432 0.0
C996 C 0.81737 0.34508 0.54272 0.0
C997 C 0.82436 0.32912 0.53348 0.0
C998 C 0.80835 0.32036 0.52474 0.0
C999 C 0.7489 0.33746 0.4603 0.0
C1000 C 0.76862 0.32864 0.45416 0.0
C1001 C 0.74505 0.33299 0.4732 0.0
C1002 C 0.76079 0.31957 0.48018 0.0
C1003 C 0.78078 0.31125 0.47419 0.0
C1004 C 0.78463 0.31567 0.46127 0.0
C1005 C 0.75627 0.31409 0.49373 0.0
C1006 C 0.77238 0.32121 0.50292 0.0
C1007 C 0.73574 0.30285 0.49764 0.0
C1008 C 0.71856 0.29404 0.48833 0.0
C1009 C 0.72526 0.27863 0.47863 0.0
C1010 C 0.70904 0.2706 0.4698 0.0
C1011 C 0.68602 0.27774 0.47061 0.0
C1012 C 0.67917 0.29288 0.48029 0.0
C1013 C 0.69533 0.30098 0.48914 0.0
H1014 H 0.67349 0.27151 0.46377 0.0
H1015 H 0.8298 0.35181 0.54947 0.0
H1016 H 0.03051 0.4971 0.29986 0.0
H1017 H 0.03367 0.50507 0.27703 0.0
H1018 H 0.09398 0.46145 0.27482 0.0
H1019 H 0.09105 0.45346 0.29764 0.0
H1020 H 0.10044 0.50322 0.26307 0.0
H1021 H 0.0437 0.44254 0.26321 0.0
H1022 H 0.00755 0.42329 0.2697 0.0
H1023 H 0.96815 0.48036 0.25514 0.0
H1024 H 0.00411 0.5001 0.24871 0.0
H1025 H 0.10903 0.49525 0.19572 0.0
H1026 H 0.10546 0.48711 0.21849 0.0
H1027 H 0.04277 0.52739 0.21998 0.0
H1028 H 0.04597 0.53525 0.19717 0.0
H1029 H 0.03742 0.48749 0.23219 0.0
H1030 H 0.09357 0.54835 0.23205 0.0
H1031 H 0.12945 0.56825 0.22571 0.0
H1032 H 0.16967 0.5119 0.24044 0.0
H1033 H 0.13399 0.49151 0.24672 0.0
C1034 C 0.04436 0.48909 0.2945 0.0
C1035 C 0.06053 0.47466 0.30056 0.0
C1036 C 0.0461 0.49361 0.28146 0.0
C1037 C 0.06399 0.48375 0.27425 0.0
C1038 C 0.08006 0.46923 0.28024 0.0
C1039 C 0.07829 0.46462 0.29326 0.0
C1040 C 0.06633 0.48906 0.26052 0.0
C1041 C 0.08681 0.4995 0.25627 0.0
C1042 C 0.04826 0.48476 0.25176 0.0
C1043 C 0.02661 0.4729 0.2556 0.0
C1044 C 0.02734 0.45107 0.26149 0.0
C1045 C 0.00688 0.44005 0.26514 0.0
C1046 C 0.98557 0.45062 0.26286 0.0
C1047 C 0.98467 0.47221 0.25691 0.0
C1048 C 0.00508 0.48331 0.25325 0.0
C1049 C 0.09454 0.50248 0.2009 0.0
C1050 C 0.07778 0.5159 0.19464 0.0
C1051 C 0.09257 0.49788 0.21392 0.0
C1052 C 0.07396 0.50683 0.22094 0.0
C1053 C 0.05726 0.52031 0.21473 0.0
C1054 C 0.05916 0.52483 0.2017 0.0
C1055 C 0.07157 0.50165 0.23471 0.0
C1056 C 0.05107 0.49123 0.23898 0.0
C1057 C 0.08959 0.50608 0.2435 0.0
C1058 C 0.11109 0.5183 0.23974 0.0
C1059 C 0.11005 0.54011 0.23384 0.0
C1060 C 0.13036 0.5515 0.23028 0.0
C1061 C 0.15183 0.54132 0.23264 0.0
C1062 C 0.15303 0.51975 0.2386 0.0
C1063 C 0.13277 0.50828 0.24217 0.0
H1064 H 0.16753 0.55016 0.22987 0.0
H1065 H 0.96975 0.44206 0.26569 0.0
H1066 H 0.30803 0.30654 0.04629 0.0
H1067 H 0.30236 0.29865 0.0236 0.0
H1068 H 0.22857 0.30461 0.02852 0.0
H1069 H 0.23405 0.31188 0.05125 0.0
H1070 H 0.23818 0.26986 0.01305 0.0
H1071 H 0.26133 0.3495 0.01661 0.0
H1072 H 0.28651 0.38183 0.02313 0.0
H1073 H 0.34237 0.35325 0.00127 0.0
H1074 H 0.3176 0.32057 0.99476 0.0
H1075 H 0.20229 0.29964 0.95038 0.0
H1076 H 0.21132 0.29841 0.97312 0.0
H1077 H 0.28288 0.28492 0.96437 0.0
H1078 H 0.27402 0.2861 0.94156 0.0
H1079 H 0.27689 0.32071 0.9815 0.0
H1080 H 0.25108 0.24261 0.97636 0.0
H1081 H 0.22443 0.21167 0.96963 0.0
H1082 H 0.17178 0.23893 0.99426 0.0
H1083 H 0.19801 0.27025 0.001 0.0
C1084 C 0.29059 0.30605 0.04255 0.0
C1085 C 0.27149 0.31002 0.05054 0.0
C1086 C 0.28738 0.3016 0.02958 0.0
C1087 C 0.26506 0.30139 0.02434 0.0
C1088 C 0.24595 0.3047 0.03237 0.0
C1089 C 0.24912 0.30894 0.04535 0.0
C1090 C 0.26156 0.29847 0.01044 0.0
C1091 C 0.2465 0.28109 0.00615 0.0
C1092 C 0.27279 0.31283 0.00143 0.0
C1093 C 0.2877 0.33247 0.00532 0.0
C1094 C 0.27904 0.35002 0.01328 0.0
C1095 C 0.29323 0.36842 0.01696 0.0
C1096 C 0.31605 0.36955 0.01265 0.0
C1097 C 0.32471 0.35232 0.00462 0.0
C1098 C 0.3106 0.33387 0.00093 0.0
C1099 C 0.21992 0.29621 0.95328 0.0
C1100 C 0.23746 0.29303 0.94417 0.0
C1101 C 0.22502 0.29541 0.96628 0.0
C1102 C 0.24773 0.29143 0.9704 0.0
C1103 C 0.26523 0.28795 0.96135 0.0
C1104 C 0.26012 0.28859 0.94834 0.0
C1105 C 0.25337 0.29226 0.98415 0.0
C1106 C 0.26879 0.3093 0.98839 0.0
C1107 C 0.24227 0.27777 0.99311 0.0
C1108 C 0.22647 0.2589 0.9891 0.0
C1109 C 0.23376 0.24213 0.98026 0.0
C1110 C 0.21874 0.22449 0.97646 0.0
C1111 C 0.19641 0.22336 0.98149 0.0
C1112 C 0.18908 0.23983 0.99036 0.0
C1113 C 0.20403 0.25752 0.99419 0.0
H1114 H 0.18481 0.20969 0.97854 0.0
H1115 H 0.327 0.38381 0.0155 0.0
H1116 H 0.42089 0.48391 0.80098 0.0
H1117 H 0.42652 0.4782 0.77815 0.0
H1118 H 0.41969 0.55164 0.77196 0.0
H1119 H 0.41337 0.55742 0.7948 0.0
H1120 H 0.39611 0.52902 0.75464 0.0
H1121 H 0.47289 0.52439 0.77103 0.0
H1122 H 0.50428 0.51079 0.78503 0.0
H1123 H 0.49531 0.44158 0.77107 0.0
H1124 H 0.46363 0.45471 0.75709 0.0
H1125 H 0.44038 0.52786 0.6915 0.0
H1126 H 0.43726 0.53461 0.71444 0.0
H1127 H 0.43278 0.46113 0.72094 0.0
H1128 H 0.43584 0.45415 0.69796 0.0
H1129 H 0.46295 0.48468 0.73786 0.0
H1130 H 0.38511 0.4908 0.72157 0.0
H1131 H 0.35524 0.50605 0.70706 0.0
H1132 H 0.36822 0.57489 0.72062 0.0
H1133 H 0.39842 0.56008 0.73508 0.0
C1134 C 0.42064 0.49887 0.79477 0.0
C1135 C 0.41676 0.52113 0.7997 0.0
C1136 C 0.42397 0.49559 0.78172 0.0
C1137 C 0.42388 0.51453 0.77336 0.0
C1138 C 0.41987 0.53678 0.77824 0.0
C1139 C 0.41631 0.54006 0.79129 0.0
C1140 C 0.42754 0.51104 0.7595 0.0
C1141 C 0.41092 0.51962 0.75098 0.0
C1142 C 0.44667 0.49847 0.75472 0.0
C1143 C 0.46573 0.4905 0.7631 0.0
C1144 C 0.47748 0.50623 0.77101 0.0
C1145 C 0.49535 0.49862 0.77893 0.0
C1146 C 0.50175 0.47533 0.77896 0.0
C1147 C 0.49032 0.45961 0.77105 0.0
C1148 C 0.47242 0.46713 0.76311 0.0
C1149 C 0.43887 0.5131 0.6978 0.0
C1150 C 0.43825 0.49047 0.69293 0.0
C1151 C 0.43702 0.51701 0.71089 0.0
C1152 C 0.4346 0.49837 0.71932 0.0
C1153 C 0.43461 0.47572 0.71455 0.0
C1154 C 0.43628 0.47179 0.70143 0.0
C1155 C 0.4315 0.50256 0.73311 0.0
C1156 C 0.44821 0.49411 0.74159 0.0
C1157 C 0.41262 0.51548 0.73784 0.0
C1158 C 0.39418 0.52436 0.72932 0.0
C1159 C 0.38171 0.50921 0.72139 0.0
C1160 C 0.3647 0.51777 0.71319 0.0
C1161 C 0.35988 0.54143 0.71289 0.0
C1162 C 0.37199 0.55657 0.72085 0.0
C1163 C 0.38904 0.5481 0.72906 0.0
H1164 H 0.34674 0.54803 0.70652 0.0
H1165 H 0.51559 0.46947 0.7851 0.0
H1166 H 0.20186 0.68668 0.54624 0.0
H1167 H 0.21057 0.68593 0.5235 0.0
H1168 H 0.28351 0.68329 0.53189 0.0
H1169 H 0.27495 0.68446 0.55474 0.0
H1170 H 0.27473 0.71278 0.51266 0.0
H1171 H 0.25511 0.63482 0.52294 0.0
H1172 H 0.23156 0.60329 0.53196 0.0
H1173 H 0.17561 0.621 0.50692 0.0
H1174 H 0.19872 0.65287 0.49786 0.0
H1175 H 0.30633 0.67581 0.44968 0.0
H1176 H 0.30086 0.67852 0.47277 0.0
H1177 H 0.22738 0.68603 0.46728 0.0
H1178 H 0.23263 0.68332 0.44423 0.0
H1179 H 0.2385 0.653 0.48521 0.0
H1180 H 0.25874 0.73184 0.47535 0.0
H1181 H 0.28317 0.76269 0.46633 0.0
H1182 H 0.33928 0.74209 0.49058 0.0
H1183 H 0.31527 0.71088 0.49963 0.0
C1184 C 0.21977 0.68598 0.54328 0.0
C1185 C 0.23772 0.68549 0.5523 0.0
C1186 C 0.22471 0.68546 0.53027 0.0
C1187 C 0.24767 0.68419 0.52602 0.0
C1188 C 0.26567 0.68419 0.53498 0.0
C1189 C 0.26074 0.68481 0.54803 0.0
C1190 C 0.25276 0.68271 0.51221 0.0
C1191 C 0.2671 0.69951 0.50668 0.0
C1192 C 0.24253 0.66556 0.50441 0.0
C1193 C 0.22858 0.64637 0.50981 0.0
C1194 C 0.23772 0.63211 0.51942 0.0
C1195 C 0.22446 0.61416 0.52453 0.0
C1196 C 0.20208 0.61018 0.52004 0.0
C1197 C 0.19294 0.62412 0.5104 0.0
C1198 C 0.20612 0.64212 0.50527 0.0
C1199 C 0.28902 0.67819 0.45338 0.0
C1200 C 0.2699 0.67932 0.44513 0.0
C1201 C 0.28595 0.6798 0.46657 0.0
C1202 C 0.26373 0.68255 0.4717 0.0
C1203 C 0.24466 0.68389 0.46348 0.0
C1204 C 0.24772 0.68241 0.45031 0.0
C1205 C 0.26017 0.68326 0.48565 0.0
C1206 C 0.24618 0.66623 0.49121 0.0
C1207 C 0.27086 0.70007 0.49347 0.0
C1208 C 0.28529 0.71887 0.48807 0.0
C1209 C 0.27636 0.73376 0.47868 0.0
C1210 C 0.29012 0.75134 0.47358 0.0
C1211 C 0.31279 0.75431 0.47785 0.0
C1212 C 0.32173 0.73975 0.48727 0.0
C1213 C 0.30805 0.72212 0.49239 0.0
H1214 H 0.32341 0.76794 0.4739 0.0
H1215 H 0.19185 0.59627 0.524 0.0
H1216 H 0.37174 0.97244 0.14997 0.0
H1217 H 0.34607 0.94074 0.1441 0.0
H1218 H 0.34078 0.96814 0.10591 0.0
H1219 H 0.36564 0.00056 0.11195 0.0
H1220 H 0.30046 0.95675 0.11349 0.0
H1221 H 0.3734 0.91803 0.11378 0.0
H1222 H 0.41099 0.90564 0.12248 0.0
H1223 H 0.37656 0.87084 0.15325 0.0
H1224 H 0.33876 0.88327 0.14482 0.0
H1225 H 0.25288 0.85667 0.08482 0.0
H1226 H 0.28157 0.88532 0.09126 0.0
H1227 H 0.26795 0.87021 0.13081 0.0
H1228 H 0.23877 0.84162 0.12446 0.0
H1229 H 0.31766 0.87439 0.12272 0.0
H1230 H 0.24424 0.91433 0.12138 0.0
H1231 H 0.20758 0.92575 0.11124 0.0
H1232 H 0.24494 0.95751 0.08051 0.0
H1233 H 0.28186 0.94591 0.09037 0.0
C1234 C 0.36526 0.9716 0.14029 0.0
C1235 C 0.37071 0.98893 0.13139 0.0
C1236 C 0.35068 0.95339 0.13692 0.0
C1237 C 0.34175 0.95181 0.1245 0.0
C1238 C 0.34745 0.96898 0.11556 0.0
C1239 C 0.36169 0.98745 0.11899 0.0
C1240 C 0.32565 0.93287 0.121 0.0
C1241 C 0.30445 0.93874 0.11535 0.0
C1242 C 0.33056 0.90935 0.12365 0.0
C1243 C 0.35326 0.90177 0.12873 0.0
C1244 C 0.37385 0.90787 0.12245 0.0
C1245 C 0.3952 0.90082 0.12733 0.0
C1246 C 0.39616 0.88751 0.13843 0.0
C1247 C 0.37578 0.88117 0.14466 0.0
C1248 C 0.35439 0.8882 0.13983 0.0
C1249 C 0.25609 0.85924 0.0949 0.0
C1250 C 0.24349 0.84697 0.10415 0.0
C1251 C 0.27246 0.87563 0.09854 0.0
C1252 C 0.2767 0.87986 0.11148 0.0
C1253 C 0.26483 0.86709 0.12077 0.0
C1254 C 0.24815 0.85088 0.11713 0.0
C1255 C 0.2928 0.89843 0.11522 0.0
C1256 C 0.31387 0.89245 0.1209 0.0
C1257 C 0.28798 0.92182 0.11242 0.0
C1258 C 0.2658 0.92903 0.10655 0.0
C1259 C 0.24464 0.92357 0.1124 0.0
C1260 C 0.2238 0.93011 0.10671 0.0
C1261 C 0.22391 0.9423 0.09521 0.0
C1262 C 0.24487 0.94804 0.0894 0.0
C1263 C 0.26576 0.94149 0.09505 0.0
H1264 H 0.20778 0.94733 0.09081 0.0
H1265 H 0.41271 0.88207 0.14219 0.0
H1266 H 0.28012 0.13726 0.40044 0.0
H1267 H 0.31117 0.11247 0.39291 0.0
H1268 H 0.29108 0.12575 0.35395 0.0
H1269 H 0.25923 0.15 0.36149 0.0
H1270 H 0.29602 0.08208 0.35706 0.0
H1271 H 0.34328 0.14651 0.36709 0.0
H1272 H 0.35865 0.17882 0.37987 0.0
H1273 H 0.38208 0.13108 0.40842 0.0
H1274 H 0.36657 0.09849 0.3959 0.0
H1275 H 0.3918 0.01673 0.33466 0.0
H1276 H 0.36925 0.05132 0.33958 0.0
H1277 H 0.36772 0.03208 0.37928 0.0
H1278 H 0.39003 0.99715 0.37445 0.0
H1279 H 0.37636 0.08167 0.37361 0.0
H1280 H 0.32385 0.0183 0.36389 0.0
H1281 H 0.30909 0.98669 0.35036 0.0
H1282 H 0.29672 0.03478 0.31993 0.0
H1283 H 0.31175 0.06664 0.33324 0.0
C1284 C 0.28248 0.13522 0.39026 0.0
C1285 C 0.26714 0.1455 0.38155 0.0
C1286 C 0.3004 0.12114 0.38595 0.0
C1287 C 0.30369 0.11743 0.37285 0.0
C1288 C 0.28889 0.12837 0.36411 0.0
C1289 C 0.27073 0.14225 0.36843 0.0
C1290 C 0.32113 0.10043 0.36843 0.0
C1291 C 0.31373 0.08238 0.36046 0.0
C1292 C 0.34418 0.1005 0.37301 0.0
C1293 C 0.35361 0.12005 0.38058 0.0
C1294 C 0.35156 0.1429 0.37614 0.0
C1295 C 0.36033 0.16127 0.38333 0.0
C1296 C 0.3713 0.15701 0.39496 0.0
C1297 C 0.37357 0.13436 0.39941 0.0
C1298 C 0.36483 0.11592 0.39226 0.0
C1299 C 0.38693 0.01997 0.34448 0.0
C1300 C 0.39252 0.00413 0.35417 0.0
C1301 C 0.37407 0.03974 0.34725 0.0
C1302 C 0.36682 0.04411 0.35976 0.0
C1303 C 0.37326 0.02894 0.36957 0.0
C1304 C 0.38587 0.00897 0.36678 0.0
C1305 C 0.351 0.06349 0.36246 0.0
C1306 C 0.35873 0.08182 0.37009 0.0
C1307 C 0.32835 0.06389 0.35745 0.0
C1308 C 0.31919 0.04478 0.34949 0.0
C1309 C 0.31819 0.02209 0.35427 0.0
C1310 C 0.30973 0.00414 0.34665 0.0
C1311 C 0.30204 0.00871 0.33428 0.0
C1312 C 0.30273 0.03126 0.32951 0.0
C1313 C 0.31121 0.04927 0.33708 0.0
H1314 H 0.2955 0.9948 0.3284 0.0
H1315 H 0.37807 0.17125 0.40051 0.0
H1316 H 0.08222 0.02086 0.61922 0.0
H1317 H 0.10334 0.05575 0.61304 0.0
H1318 H 0.13201 0.06065 0.65091 0.0
H1319 H 0.11083 0.02601 0.65721 0.0
H1320 H 0.12056 0.10334 0.64125 0.0
H1321 H 0.16226 0.03501 0.62795 0.0
H1322 H 0.16682 0.99779 0.61675 0.0
H1323 H 0.15207 0.03086 0.58102 0.0
H1324 H 0.14709 0.06824 0.59204 0.0
H1325 H 0.22822 0.16047 0.6323 0.0
H1326 H 0.19508 0.13601 0.63745 0.0
H1327 H 0.17543 0.13484 0.59777 0.0
H1328 H 0.20869 0.15894 0.59251 0.0
H1329 H 0.17855 0.09253 0.60692 0.0
H1330 H 0.14193 0.16233 0.62017 0.0
H1331 H 0.13808 0.19938 0.6316 0.0
H1332 H 0.14387 0.16409 0.66747 0.0
H1333 H 0.14808 0.12684 0.65625 0.0
C1334 C 0.09279 0.02952 0.62627 0.0
C1335 C 0.09509 0.0205 0.63865 0.0
C1336 C 0.10484 0.04944 0.62273 0.0
C1337 C 0.11941 0.06059 0.63149 0.0
C1338 C 0.12084 0.05229 0.64402 0.0
C1339 C 0.10884 0.03239 0.64757 0.0
C1340 C 0.13463 0.07975 0.62739 0.0
C1341 C 0.13332 0.10103 0.63378 0.0
C1342 C 0.15092 0.07678 0.61748 0.0
C1343 C 0.15402 0.05435 0.61083 0.0
C1344 C 0.1598 0.0343 0.61772 0.0
C1345 C 0.16249 0.01319 0.6114 0.0
C1346 C 0.15966 0.01195 0.59819 0.0
C1347 C 0.15421 0.03184 0.59126 0.0
C1348 C 0.15145 0.05299 0.59753 0.0
C1349 C 0.2166 0.15537 0.6247 0.0
C1350 C 0.22122 0.16142 0.61198 0.0
C1351 C 0.19759 0.14148 0.62767 0.0
C1352 C 0.18275 0.13365 0.61799 0.0
C1353 C 0.1867 0.14064 0.60538 0.0
C1354 C 0.20573 0.15441 0.60239 0.0
C1355 C 0.16466 0.11625 0.62081 0.0
C1356 C 0.16553 0.09514 0.61423 0.0
C1357 C 0.14806 0.11943 0.63056 0.0
C1358 C 0.1455 0.1418 0.63735 0.0
C1359 C 0.14257 0.16248 0.63049 0.0
C1360 C 0.14029 0.18352 0.63694 0.0
C1361 C 0.14078 0.18409 0.65025 0.0
C1362 C 0.1435 0.16362 0.65715 0.0
C1363 C 0.14581 0.14253 0.65076 0.0
H1364 H 0.13901 0.2004 0.65522 0.0
H1365 H 0.16176 0.99558 0.59331 0.0
H1366 H 0.0877 0.99336 0.88243 0.0
H1367 H 0.11583 0.96472 0.88975 0.0
H1368 H 0.12647 0.94237 0.85093 0.0
H1369 H 0.09816 0.97058 0.84356 0.0
H1370 H 0.12599 0.90608 0.86712 0.0
H1371 H 0.16252 0.98119 0.86479 0.0
H1372 H 0.16681 0.02259 0.86992 0.0
H1373 H 0.1732 0.00614 0.90969 0.0
H1374 H 0.16856 0.96465 0.90481 0.0
H1375 H 0.23852 0.85742 0.86962 0.0
H1376 H 0.20394 0.88023 0.86508 0.0
H1377 H 0.19939 0.89964 0.90473 0.0
H1378 H 0.2341 0.87721 0.90932 0.0
H1379 H 0.19502 0.93637 0.88969 0.0
H1380 H 0.16153 0.86091 0.89188 0.0
H1381 H 0.15746 0.81951 0.88674 0.0
H1382 H 0.14564 0.83631 0.8474 0.0
H1383 H 0.14996 0.87781 0.85227 0.0
C1384 C 0.09581 0.98215 0.87547 0.0
C1385 C 0.09091 0.98441 0.8624 0.0
C1386 C 0.11192 0.96585 0.87966 0.0
C1387 C 0.12347 0.9517 0.87085 0.0
C1388 C 0.11778 0.95317 0.85788 0.0
C1389 C 0.10166 0.96938 0.85369 0.0
C1390 C 0.14247 0.9363 0.87496 0.0
C1391 C 0.14117 0.91269 0.87199 0.0
C1392 C 0.16202 0.94491 0.88153 0.0
C1393 C 0.16494 0.96985 0.88445 0.0
C1394 C 0.16466 0.98642 0.87464 0.0
C1395 C 0.16718 0.0099 0.8775 0.0
C1396 C 0.17022 0.01699 0.89013 0.0
C1397 C 0.1708 0.00062 0.89992 0.0
C1398 C 0.16823 0.97713 0.89711 0.0
C1399 C 0.23008 0.86642 0.87739 0.0
C1400 C 0.23909 0.86555 0.88982 0.0
C1401 C 0.21025 0.87935 0.87479 0.0
C1402 C 0.19899 0.89145 0.8846 0.0
C1403 C 0.20782 0.89041 0.89703 0.0
C1404 C 0.22765 0.87756 0.89963 0.0
C1405 C 0.17866 0.90612 0.88178 0.0
C1406 C 0.17974 0.92965 0.88496 0.0
C1407 C 0.15895 0.89742 0.87539 0.0
C1408 C 0.15627 0.87247 0.87243 0.0
C1409 C 0.15824 0.85577 0.88211 0.0
C1410 C 0.15586 0.83228 0.87925 0.0
C1411 C 0.15135 0.82528 0.86674 0.0
C1412 C 0.14915 0.84176 0.85708 0.0
C1413 C 0.15154 0.86527 0.85989 0.0
H1414 H 0.14951 0.80709 0.86454 0.0
H1415 H 0.17219 0.03516 0.89234 0.0
H1416 H 0.76069 0.12178 0.86788 0.0
H1417 H 0.72744 0.10054 0.85978 0.0
H1418 H 0.68282 0.13742 0.88571 0.0
H1419 H 0.71617 0.15858 0.89406 0.0
H1420 H 0.67646 0.09201 0.88752 0.0
H1421 H 0.67887 0.14626 0.85352 0.0
H1422 H 0.69651 0.16968 0.83647 0.0
H1423 H 0.71608 0.10789 0.81651 0.0
H1424 H 0.69886 0.08407 0.83353 0.0
H1425 H 0.58143 0.02793 0.86237 0.0
H1426 H 0.60582 0.06097 0.86801 0.0
H1427 H 0.66153 0.03248 0.84565 0.0
H1428 H 0.6373 -0.00039 0.83986 0.0
H1429 H 0.6571 0.07892 0.842 0.0
H1430 H 0.66042 0.02549 0.87754 0.0
H1431 H 0.64376 0.00167 0.89474 0.0
H1432 H 0.614 0.06226 0.91178 0.0
H1433 H 0.63026 0.08641 0.89457 0.0
C1434 C 0.74377 0.12567 0.87174 0.0
C1435 C 0.7411 0.14175 0.88168 0.0
C1436 C 0.72473 0.1136 0.86703 0.0
C1437 C 0.70262 0.11752 0.87208 0.0
C1438 C 0.69974 0.13418 0.88168 0.0
C1439 C 0.71881 0.14627 0.88641 0.0
C1440 C 0.68307 0.10261 0.86815 0.0
C1441 C 0.67182 0.08958 0.87758 0.0
C1442 C 0.67736 0.09912 0.85517 0.0
C1443 C 0.68767 0.11337 0.84486 0.0
C1444 C 0.68708 0.13765 0.84555 0.0
C1445 C 0.69698 0.151 0.83587 0.0
C1446 C 0.70743 0.14028 0.82542 0.0
C1447 C 0.70797 0.11618 0.82461 0.0
C1448 C 0.6981 0.10274 0.83426 0.0
C1449 C 0.59885 0.02875 0.85861 0.0
C1450 C 0.60749 0.01107 0.85074 0.0
C1451 C 0.61274 0.04762 0.86185 0.0
C1452 C 0.63551 0.04906 0.85731 0.0
C1453 C 0.64398 0.03171 0.84923 0.0
C1454 C 0.63014 0.01287 0.84599 0.0
C1455 C 0.65097 0.06807 0.86134 0.0
C1456 C 0.66144 0.08178 0.85194 0.0
C1457 C 0.65603 0.07219 0.87434 0.0
C1458 C 0.6463 0.0577 0.88469 0.0
C1459 C 0.65015 0.0337 0.8849 0.0
C1460 C 0.64082 0.02015 0.89466 0.0
C1461 C 0.62776 0.03043 0.90432 0.0
C1462 C 0.62407 0.05431 0.90427 0.0
C1463 C 0.63335 0.06794 0.89452 0.0
H1464 H 0.62055 0.01992 0.91187 0.0
H1465 H 0.71509 0.15065 0.81794 0.0
H1466 H 0.59021 0.96735 0.64518 0.0
H1467 H 0.61883 0.93977 0.63747 0.0
H1468 H 0.63101 0.98248 0.60442 0.0
H1469 H 0.6027 0.0105 0.61222 0.0
H1470 H 0.62646 0.91351 0.6169 0.0
H1471 H 0.68862 0.98426 0.59905 0.0
H1472 H 0.69638 0.02575 0.60261 0.0
H1473 H 0.67011 0.02029 0.64078 0.0
H1474 H 0.66247 0.97876 0.6375 0.0
H1475 H 0.7238 0.86032 0.58738 0.0
H1476 H 0.6902 0.88449 0.59197 0.0
H1477 H 0.72485 0.91234 0.62501 0.0
H1478 H 0.75872 0.88863 0.62034 0.0
H1479 H 0.70537 0.94589 0.61189 0.0
H1480 H 0.68173 0.87171 0.62776 0.0
H1481 H 0.67426 0.82978 0.62661 0.0
H1482 H 0.62477 0.84087 0.59673 0.0
H1483 H 0.63217 0.88286 0.5976 0.0
C1484 C 0.59869 0.97074 0.63617 0.0
C1485 C 0.59448 0.99131 0.62942 0.0
C1486 C 0.61498 0.95489 0.63175 0.0
C1487 C 0.62731 0.9593 0.6205 0.0
C1488 C 0.62193 0.97897 0.61325 0.0
C1489 C 0.60571 0.99492 0.6177 0.0
C1490 C 0.64718 0.94444 0.61707 0.0
C1491 C 0.64369 0.92057 0.61569 0.0
C1492 C 0.66973 0.95364 0.6158 0.0
C1493 C 0.67477 0.97848 0.61797 0.0
C1494 C 0.6846 0.99191 0.60821 0.0
C1495 C 0.68896 0.01543 0.61018 0.0
C1496 C 0.68368 0.02566 0.6219 0.0
C1497 C 0.67412 0.01237 0.6317 0.0
C1498 C 0.66976 0.98885 0.62978 0.0
C1499 C 0.72423 0.8715 0.59567 0.0
C1500 C 0.74392 0.87255 0.60351 0.0
C1501 C 0.70499 0.88526 0.59828 0.0
C1502 C 0.70496 0.90009 0.60888 0.0
C1503 C 0.72454 0.90107 0.61676 0.0
C1504 C 0.74384 0.88743 0.61411 0.0
C1505 C 0.6847 0.91488 0.61168 0.0
C1506 C 0.68812 0.93879 0.61293 0.0
C1507 C 0.66221 0.90561 0.61316 0.0
C1508 C 0.65768 0.88039 0.61265 0.0
C1509 C 0.66938 0.86518 0.62088 0.0
C1510 C 0.66514 0.84141 0.62029 0.0
C1511 C 0.6491 0.83266 0.61158 0.0
C1512 C 0.63721 0.84767 0.60346 0.0
C1513 C 0.64141 0.87146 0.604 0.0
H1514 H 0.64584 0.81425 0.61114 0.0
H1515 H 0.68705 0.04385 0.62341 0.0
H1516 H 0.73753 0.90054 0.40777 0.0
H1517 H 0.76489 0.92935 0.40008 0.0
H1518 H 0.79568 0.87862 0.37517 0.0
H1519 H 0.76839 0.84942 0.38295 0.0
H1520 H 0.82808 0.90409 0.38795 0.0
H1521 H 0.76006 0.91894 0.36318 0.0
H1522 H 0.71865 0.92659 0.35962 0.0
H1523 H 0.72364 0.98918 0.38146 0.0
H1524 H 0.76502 0.98173 0.38533 0.0
H1525 H 0.89194 0.9848 0.35094 0.0
H1526 H 0.86542 0.95459 0.35805 0.0
H1527 H 0.83164 0.00333 0.383 0.0
H1528 H 0.85793 0.03376 0.37584 0.0
H1529 H 0.80075 0.97821 0.36952 0.0
H1530 H 0.86782 0.96307 0.39501 0.0
H1531 H 0.90914 0.95569 0.39903 0.0
H1532 H 0.90578 0.89404 0.37629 0.0
H1533 H 0.86449 0.90123 0.37198 0.0
C1534 C 0.75009 0.89544 0.40065 0.0
C1535 C 0.75074 0.8727 0.39593 0.0
C1536 C 0.76566 0.91198 0.39623 0.0
C1537 C 0.78208 0.90618 0.38694 0.0
C1538 C 0.78304 0.88343 0.38232 0.0
C1539 C 0.76743 0.86681 0.38675 0.0
C1540 C 0.79837 0.92393 0.3822 0.0
C1541 C 0.82214 0.92015 0.38372 0.0
C1542 C 0.79052 0.94509 0.37699 0.0
C1543 C 0.76563 0.94967 0.37463 0.0
C1544 C 0.7523 0.93424 0.36731 0.0
C1545 C 0.72883 0.93855 0.36523 0.0
C1546 C 0.71852 0.95834 0.37033 0.0
C1547 C 0.73165 0.97386 0.37752 0.0
C1548 C 0.75512 0.96961 0.37966 0.0
C1549 C 0.87896 0.98908 0.358 0.0
C1550 C 0.87708 0.01167 0.36286 0.0
C1551 C 0.86386 0.97178 0.36207 0.0
C1552 C 0.8467 0.97669 0.37112 0.0
C1553 C 0.84479 -0.0008 0.37601 0.0
C1554 C 0.85989 0.01653 0.37194 0.0
C1555 C 0.83047 0.95843 0.37533 0.0
C1556 C 0.80669 0.96212 0.3737 0.0
C1557 C 0.83831 0.93723 0.38047 0.0
C1558 C 0.86312 0.93282 0.38307 0.0
C1559 C 0.87594 0.94805 0.39078 0.0
C1560 C 0.89935 0.94388 0.39313 0.0
C1561 C 0.9101 0.92444 0.38789 0.0
C1562 C 0.89744 0.9091 0.38032 0.0
C1563 C 0.87403 0.91321 0.37794 0.0
H1564 H 0.92822 0.92124 0.38972 0.0
H1565 H 0.70037 0.96169 0.36867 0.0
H1566 H 0.75241 0.137 0.12864 0.0
H1567 H 0.78522 0.1126 0.13467 0.0
H1568 H 0.79551 0.09411 0.09524 0.0
H1569 H 0.7629 0.11841 0.0891 0.0
H1570 H 0.79339 0.05631 0.11147 0.0
H1571 H 0.83254 0.12965 0.10896 0.0
H1572 H 0.83864 0.17081 0.11407 0.0
H1573 H 0.84616 0.15395 0.15372 0.0
H1574 H 0.83978 0.1127 0.14887 0.0
H1575 H 0.89586 0.99254 0.11873 0.0
H1576 H 0.86871 0.02226 0.1117 0.0
H1577 H 0.86406 0.04816 0.15021 0.0
H1578 H 0.89174 0.01899 0.15723 0.0
H1579 H 0.86372 0.08295 0.1342 0.0
H1580 H 0.82334 0.01099 0.13765 0.0
H1581 H 0.81542 0.96977 0.13362 0.0
H1582 H 0.80783 0.98367 0.09361 0.0
H1583 H 0.81616 0.02495 0.09739 0.0
C1584 C 0.76178 0.12789 0.12124 0.0
C1585 C 0.755 0.12958 0.1084 0.0
C1586 C 0.78056 0.11404 0.1247 0.0
C1587 C 0.79278 0.10164 0.11538 0.0
C1588 C 0.78627 0.10356 0.10256 0.0
C1589 C 0.76765 0.1175 0.09908 0.0
C1590 C 0.81163 0.08571 0.11903 0.0
C1591 C 0.80896 0.06215 0.11626 0.0
C1592 C 0.83151 0.09333 0.12564 0.0
C1593 C 0.83546 0.11811 0.12856 0.0
C1594 C 0.8353 0.13474 0.11878 0.0
C1595 C 0.83885 0.15808 0.12163 0.0
C1596 C 0.84273 0.165 0.13422 0.0
C1597 C 0.84313 0.14857 0.14398 0.0
C1598 C 0.83957 0.1252 0.14118 0.0
C1599 C 0.88925 0.00472 0.12567 0.0
C1600 C 0.89577 0.00328 0.13855 0.0
C1601 C 0.87366 0.02164 0.12165 0.0
C1602 C 0.86398 0.03713 0.13048 0.0
C1603 C 0.87123 0.03634 0.14324 0.0
C1604 C 0.88703 0.01961 0.14724 0.0
C1605 C 0.84558 0.05348 0.12656 0.0
C1606 C 0.84825 0.07709 0.12933 0.0
C1607 C 0.82547 0.04588 0.1201 0.0
C1608 C 0.82061 0.02102 0.11779 0.0
C1609 C 0.8202 0.00522 0.12798 0.0
C1610 C 0.8156 0.98185 0.12574 0.0
C1611 C 0.81113 0.97409 0.11336 0.0
C1612 C 0.81131 0.9897 0.1032 0.0
C1613 C 0.81598 0.01308 0.10538 0.0
H1614 H 0.80745 0.95602 0.11164 0.0
H1615 H 0.84547 0.18308 0.1364 0.0
H1616 H 0.74908 0.39197 0.59275 0.0
H1617 H 0.78073 0.4163 0.59988 0.0
H1618 H 0.81264 0.35761 0.61821 0.0
H1619 H 0.78016 0.33318 0.61151 0.0
H1620 H 0.81447 0.39215 0.63344 0.0
H1621 H 0.83597 0.38292 0.5905 0.0
H1622 H 0.83115 0.38088 0.56719 0.0
H1623 H 0.81269 0.45273 0.56621 0.0
H1624 H 0.81702 0.45515 0.58956 0.0
H1625 H 0.90604 0.47521 0.64621 0.0
H1626 H 0.8882 0.4413 0.63604 0.0
H1627 H 0.82958 0.48287 0.62519 0.0
H1628 H 0.8469 0.51652 0.63559 0.0
H1629 H 0.85037 0.45097 0.60525 0.0
H1630 H 0.82162 0.45465 0.64949 0.0
H1631 H 0.8279 0.45512 0.67276 0.0
H1632 H 0.86421 0.39053 0.67035 0.0
H1633 H 0.85841 0.38987 0.64703 0.0
C1634 C 0.76291 0.38414 0.59819 0.0
C1635 C 0.76217 0.36066 0.60155 0.0
C1636 C 0.78116 0.39806 0.60219 0.0
C1637 C 0.79941 0.38872 0.60934 0.0
C1638 C 0.79883 0.36517 0.61263 0.0
C1639 C 0.7803 0.35125 0.60879 0.0
C1640 C 0.81807 0.40413 0.61405 0.0
C1641 C 0.82277 0.40457 0.62718 0.0
C1642 C 0.82906 0.42036 0.60593 0.0
C1643 C 0.82675 0.41918 0.59183 0.0
C1644 C 0.83077 0.39827 0.58534 0.0
C1645 C 0.82812 0.39704 0.57211 0.0
C1646 C 0.82159 0.41665 0.56522 0.0
C1647 C 0.81776 0.43755 0.57156 0.0
C1648 C 0.82035 0.43887 0.5848 0.0
C1649 C 0.88944 0.47709 0.64156 0.0
C1650 C 0.87774 0.49839 0.64173 0.0
C1651 C 0.87932 0.45778 0.63578 0.0
C1652 C 0.85767 0.45973 0.62987 0.0
C1653 C 0.84637 0.48114 0.62966 0.0
C1654 C 0.8562 0.50027 0.63567 0.0
C1655 C 0.84584 0.4393 0.62455 0.0
C1656 C 0.84251 0.43801 0.61134 0.0
C1657 C 0.83653 0.42199 0.63253 0.0
C1658 C 0.83986 0.42237 0.64652 0.0
C1659 C 0.83114 0.44067 0.65392 0.0
C1660 C 0.83457 0.44094 0.66711 0.0
C1661 C 0.84652 0.42291 0.67302 0.0
C1662 C 0.85501 0.40452 0.66576 0.0
C1663 C 0.85165 0.40418 0.65255 0.0
H1664 H 0.84915 0.42315 0.68324 0.0
H1665 H 0.81952 0.41564 0.55498 0.0
H1666 H 0.90346 0.51606 0.85113 0.0
H1667 H 0.87365 0.54194 0.85943 0.0
H1668 H 0.82209 0.48921 0.85314 0.0
H1669 H 0.85165 0.46363 0.8444 0.0
H1670 H 0.8054 0.52878 0.84631 0.0
H1671 H 0.84524 0.50115 0.88334 0.0
H1672 H 0.87893 0.49326 0.89706 0.0
H1673 H 0.89379 0.56591 0.89905 0.0
H1674 H 0.86035 0.57421 0.88519 0.0
H1675 H 0.71894 0.57202 0.88848 0.0
H1676 H 0.74932 0.54849 0.87874 0.0
H1677 H 0.79523 0.60723 0.87892 0.0
H1678 H 0.7649 0.63097 0.88857 0.0
H1679 H 0.81491 0.56589 0.88865 0.0
H1680 H 0.77263 0.59246 0.8519 0.0
H1681 H 0.73758 0.59869 0.83898 0.0
H1682 H 0.72578 0.52544 0.83756 0.0
H1683 H 0.76059 0.51879 0.85063 0.0
C1684 C 0.88576 0.51002 0.85151 0.0
C1685 C 0.87989 0.4878 0.84717 0.0
C1686 C 0.86875 0.52478 0.8563 0.0
C1687 C 0.84567 0.51739 0.85711 0.0
C1688 C 0.83977 0.4953 0.85262 0.0
C1689 C 0.8567 0.48068 0.84765 0.0
C1690 C 0.82764 0.53259 0.86267 0.0
C1691 C 0.8074 0.53666 0.85563 0.0
C1692 C 0.83035 0.54321 0.87476 0.0
C1693 C 0.85044 0.53828 0.88312 0.0
C1694 C 0.85579 0.51543 0.88662 0.0
C1695 C 0.87483 0.51089 0.89444 0.0
C1696 C 0.88853 0.52907 0.89889 0.0
C1697 C 0.88319 0.55184 0.89557 0.0
C1698 C 0.86419 0.55648 0.88775 0.0
C1699 C 0.73548 0.57995 0.88643 0.0
C1700 C 0.73954 0.60335 0.88928 0.0
C1701 C 0.75277 0.56651 0.88083 0.0
C1702 C 0.77441 0.57621 0.87807 0.0
C1703 C 0.77859 0.59949 0.88098 0.0
C1704 C 0.76123 0.61302 0.88645 0.0
C1705 C 0.79281 0.56191 0.87229 0.0
C1706 C 0.81305 0.55803 0.87931 0.0
C1707 C 0.78994 0.55119 0.86029 0.0
C1708 C 0.7691 0.55515 0.85234 0.0
C1709 C 0.76246 0.57769 0.84892 0.0
C1710 C 0.74265 0.5813 0.84155 0.0
C1711 C 0.72943 0.56248 0.83748 0.0
C1712 C 0.73602 0.54001 0.84073 0.0
C1713 C 0.7558 0.53631 0.84811 0.0
H1714 H 0.7141 0.56531 0.83178 0.0
H1715 H 0.90326 0.52551 0.90494 0.0
H1716 H 0.7301 0.64299 0.08787 0.0
H1717 H 0.70152 0.61473 0.09468 0.0
H1718 H 0.72272 0.62399 0.13381 0.0
H1719 H 0.7521 0.65178 0.12697 0.0
H1720 H 0.72012 0.58042 0.1289 0.0
H1721 H 0.66924 0.64375 0.12222 0.0
H1722 H 0.65163 0.67666 0.11088 0.0
H1723 H 0.62881 0.63117 0.08107 0.0
H1724 H 0.64655 0.59801 0.09214 0.0
H1725 H 0.62477 0.51442 0.15264 0.0
H1726 H 0.64919 0.54769 0.14755 0.0
H1727 H 0.6473 0.52927 0.10772 0.0
H1728 H 0.62318 0.4956 0.11274 0.0
H1729 H 0.63856 0.57872 0.11433 0.0
H1730 H 0.69258 0.51596 0.12131 0.0
H1731 H 0.70939 0.48381 0.13363 0.0
H1732 H 0.72495 0.53023 0.16442 0.0
H1733 H 0.7079 0.56263 0.15234 0.0
C1734 C 0.7285 0.63928 0.09795 0.0
C1735 C 0.74341 0.64958 0.10688 0.0
C1736 C 0.71202 0.62318 0.10185 0.0
C1737 C 0.70975 0.6174 0.11479 0.0
C1738 C 0.72416 0.62818 0.12378 0.0
C1739 C 0.74089 0.6441 0.11986 0.0
C1740 C 0.69349 0.59891 0.11874 0.0
C1741 C 0.70217 0.58034 0.12591 0.0
C1742 C 0.67014 0.59853 0.11467 0.0
C1743 C 0.6594 0.61842 0.10797 0.0
C1744 C 0.66062 0.64078 0.1132 0.0
C1745 C 0.65058 0.65948 0.10683 0.0
C1746 C 0.63915 0.65601 0.09525 0.0
C1747 C 0.63768 0.63383 0.09004 0.0
C1748 C 0.6477 0.61507 0.09637 0.0
C1749 C 0.62948 0.51748 0.14278 0.0
C1750 C 0.62215 0.50239 0.13307 0.0
C1751 C 0.64343 0.53645 0.13991 0.0
C1752 C 0.64999 0.54081 0.12728 0.0
C1753 C 0.64232 0.52611 0.11752 0.0
C1754 C 0.62868 0.50688 0.12041 0.0
C1755 C 0.66536 0.56043 0.12432 0.0
C1756 C 0.65647 0.57909 0.11737 0.0
C1757 C 0.6884 0.56109 0.12874 0.0
C1758 C 0.69871 0.54165 0.13599 0.0
C1759 C 0.69937 0.51927 0.13076 0.0
C1760 C 0.70899 0.50101 0.13769 0.0
C1761 C 0.71817 0.50496 0.14982 0.0
C1762 C 0.7178 0.52719 0.15503 0.0
C1763 C 0.70817 0.54551 0.14815 0.0
H1764 H 0.72561 0.4908 0.15517 0.0
H1765 H 0.6314 0.67051 0.09033 0.0
H1766 H 0.73215 0.36831 0.4091 0.0
H1767 H 0.70151 0.39278 0.40076 0.0
H1768 H 0.71468 0.36714 0.36279 0.0
H1769 H 0.74609 0.34309 0.37106 0.0
H1770 H 0.71115 0.41174 0.36216 0.0
H1771 H 0.66494 0.352 0.37999 0.0
H1772 H 0.65151 0.3244 0.3963 0.0
H1773 H 0.63322 0.38066 0.42102 0.0
H1774 H 0.64684 0.40863 0.40495 0.0
H1775 H 0.61188 0.4709 0.3384 0.0
H1776 H 0.63666 0.43878 0.34497 0.0
H1777 H 0.64126 0.46756 0.38282 0.0
H1778 H 0.61668 0.49991 0.37632 0.0
H1779 H 0.63341 0.4183 0.3818 0.0
H1780 H 0.68372 0.47724 0.36415 0.0
H1781 H 0.69674 0.50418 0.34741 0.0
H1782 H 0.70623 0.44738 0.32156 0.0
H1783 H 0.69293 0.42012 0.33811 0.0
C1784 C 0.7284 0.36766 0.39899 0.0
C1785 C 0.74156 0.35378 0.39073 0.0
C1786 C 0.71074 0.38158 0.39424 0.0
C1787 C 0.70552 0.38156 0.38117 0.0
C1788 C 0.71836 0.36739 0.37292 0.0
C1789 C 0.73627 0.35363 0.37765 0.0
C1790 C 0.68769 0.39751 0.37609 0.0
C1791 C 0.69398 0.41278 0.36629 0.0
C1792 C 0.66539 0.39917 0.38159 0.0
C1793 C 0.65707 0.38242 0.39128 0.0
C1794 C 0.6582 0.3585 0.38894 0.0
C1795 C 0.65053 0.34278 0.39814 0.0
C1796 C 0.64156 0.35077 0.4097 0.0
C1797 C 0.64018 0.3745 0.41207 0.0
C1798 C 0.64785 0.39029 0.40291 0.0
C1799 C 0.61801 0.47031 0.34816 0.0
C1800 C 0.61246 0.48799 0.35684 0.0
C1801 C 0.63217 0.45198 0.35187 0.0
C1802 C 0.64081 0.45094 0.36434 0.0
C1803 C 0.63469 0.46812 0.37315 0.0
C1804 C 0.62076 0.48662 0.36941 0.0
C1805 C 0.65709 0.4325 0.36807 0.0
C1806 C 0.65048 0.41687 0.37761 0.0
C1807 C 0.67899 0.43032 0.36224 0.0
C1808 C 0.68706 0.44669 0.35231 0.0
C1809 C 0.68837 0.47052 0.35486 0.0
C1810 C 0.69584 0.48584 0.34541 0.0
C1811 C 0.70223 0.47751 0.33341 0.0
C1812 C 0.70123 0.45382 0.33085 0.0
C1813 C 0.69374 0.43842 0.34026 0.0
H1814 H 0.70802 0.48939 0.32611 0.0
H1815 H 0.63564 0.33857 0.41681 0.0
H1816 H 0.10831 0.5003 0.38037 0.0
H1817 H 0.12975 0.53525 0.38586 0.0
H1818 H 0.11585 0.5633 0.34852 0.0
H1819 H 0.09466 0.52822 0.34288 0.0
H1820 H 0.16056 0.56506 0.35381 0.0
H1821 H 0.09157 0.58744 0.37519 0.0
H1822 H 0.05805 0.58294 0.38948 0.0
H1823 H 0.10348 0.57383 0.42145 0.0
H1824 H 0.13731 0.57794 0.40733 0.0
H1825 H 0.22649 0.66419 0.37053 0.0
H1826 H 0.19247 0.64164 0.36427 0.0
H1827 H 0.19747 0.60223 0.39908 0.0
H1828 H 0.23107 0.62478 0.40547 0.0
H1829 H 0.15295 0.61156 0.39334 0.0
H1830 H 0.22083 0.58221 0.37154 0.0
H1831 H 0.25485 0.58531 0.35747 0.0
H1832 H 0.21128 0.6065 0.32646 0.0
H1833 H 0.17702 0.60381 0.34042 0.0
C1834 C 0.10948 0.51404 0.37339 0.0
C1835 C 0.09996 0.5114 0.36116 0.0
C1836 C 0.12163 0.53409 0.37657 0.0
C1837 C 0.12428 0.55195 0.36761 0.0
C1838 C 0.114 0.54973 0.35556 0.0
C1839 C 0.1019 0.52967 0.35237 0.0
C1840 C 0.13966 0.57179 0.37042 0.0
C1841 C 0.15855 0.57561 0.36229 0.0
C1842 C 0.1373 0.58524 0.38161 0.0
C1843 C 0.11699 0.58286 0.39017 0.0
C1844 C 0.09443 0.58431 0.38525 0.0
C1845 C 0.07536 0.58186 0.39333 0.0
C1846 C 0.07863 0.57806 0.40636 0.0
C1847 C 0.10098 0.57677 0.41135 0.0
C1848 C 0.1201 0.57919 0.40331 0.0
C1849 C 0.22017 0.6509 0.3769 0.0
C1850 C 0.23164 0.64609 0.38842 0.0
C1851 C 0.20076 0.63803 0.37332 0.0
C1852 C 0.19263 0.62011 0.38116 0.0
C1853 C 0.20345 0.61599 0.39289 0.0
C1854 C 0.22277 0.62882 0.39649 0.0
C1855 C 0.17396 0.60443 0.37686 0.0
C1856 C 0.15456 0.60134 0.38471 0.0
C1857 C 0.17587 0.59154 0.36544 0.0
C1858 C 0.19643 0.5931 0.35705 0.0
C1859 C 0.21854 0.58771 0.36175 0.0
C1860 C 0.23785 0.58936 0.35379 0.0
C1861 C 0.23523 0.59618 0.34109 0.0
C1862 C 0.21328 0.60128 0.33631 0.0
C1863 C 0.19391 0.59969 0.34423 0.0
H1864 H 0.25021 0.59744 0.33495 0.0
H1865 H 0.06385 0.57617 0.41259 0.0
H1866 H 0.23427 0.34233 0.12534 0.0
H1867 H 0.201 0.36675 0.13054 0.0
H1868 H 0.20423 0.39751 0.09312 0.0
H1869 H 0.23745 0.37345 0.08788 0.0
H1870 H 0.20192 0.42971 0.11161 0.0
H1871 H 0.16176 0.35964 0.10063 0.0
H1872 H 0.15282 0.31804 0.10205 0.0
H1873 H 0.13457 0.326 0.14149 0.0
H1874 H 0.14372 0.36761 0.14036 0.0
H1875 H 0.10085 0.49561 0.11319 0.0
H1876 H 0.12737 0.46484 0.10687 0.0
H1877 H 0.12279 0.43516 0.14451 0.0
H1878 H 0.09593 0.46565 0.15087 0.0
H1879 H 0.12526 0.40175 0.12617 0.0
H1880 H 0.16638 0.4708 0.1376 0.0
H1881 H 0.1757 0.51237 0.13673 0.0
H1882 H 0.19301 0.5061 0.09706 0.0
H1883 H 0.18346 0.46453 0.09766 0.0
C1884 C 0.22777 0.35417 0.11819 0.0
C1885 C 0.23858 0.35604 0.10623 0.0
C1886 C 0.20871 0.36802 0.12115 0.0
C1887 C 0.20011 0.38385 0.11218 0.0
C1888 C 0.21063 0.38543 0.10018 0.0
C1889 C 0.22962 0.37163 0.09721 0.0
C1890 C 0.18096 0.39973 0.11547 0.0
C1891 C 0.18505 0.42358 0.1146 0.0
C1892 C 0.15921 0.3917 0.11975 0.0
C1893 C 0.15365 0.3667 0.12044 0.0
C1894 C 0.15603 0.35248 0.10964 0.0
C1895 C 0.15089 0.32891 0.11038 0.0
C1896 C 0.14319 0.31937 0.12186 0.0
C1897 C 0.14056 0.3334 0.13261 0.0
C1898 C 0.1457 0.35699 0.13192 0.0
C1899 C 0.10517 0.48233 0.12007 0.0
C1900 C 0.09654 0.48324 0.13259 0.0
C1901 C 0.12037 0.4648 0.11645 0.0
C1902 C 0.12738 0.44802 0.12531 0.0
C1903 C 0.11766 0.44802 0.13756 0.0
C1904 C 0.10236 0.4655 0.14118 0.0
C1905 C 0.14617 0.43166 0.12211 0.0
C1906 C 0.1421 0.40781 0.1231 0.0
C1907 C 0.16806 0.43965 0.11801 0.0
C1908 C 0.17398 0.46461 0.11764 0.0
C1909 C 0.17201 0.47832 0.12867 0.0
C1910 C 0.17736 0.50188 0.12823 0.0
C1911 C 0.18488 0.51189 0.11684 0.0
C1912 C 0.18715 0.49834 0.10587 0.0
C1913 C 0.18178 0.47477 0.10626 0.0
H1914 H 0.18901 0.53013 0.11651 0.0
H1915 H 0.13921 0.30111 0.12242 0.0
H1916 H 0.39141 0.48118 0.87493 0.0
H1917 H 0.36803 0.44718 0.88007 0.0
H1918 H 0.33593 0.45066 0.84299 0.0
H1919 H 0.35885 0.48479 0.83786 0.0
H1920 H 0.30441 0.44511 0.86124 0.0
H1921 H 0.37697 0.4095 0.85008 0.0
H1922 H 0.41905 0.40336 0.85155 0.0
H1923 H 0.41217 0.38448 0.89096 0.0
H1924 H 0.37007 0.39081 0.88977 0.0
H1925 H 0.24466 0.33983 0.86399 0.0
H1926 H 0.27365 0.3678 0.85696 0.0
H1927 H 0.30474 0.3668 0.89433 0.0
H1928 H 0.27608 0.33863 0.90141 0.0
H1929 H 0.33728 0.37026 0.87556 0.0
H1930 H 0.26648 0.40759 0.88758 0.0
H1931 H 0.22438 0.41407 0.88711 0.0
H1932 H 0.22802 0.43052 0.84723 0.0
H1933 H 0.27015 0.42384 0.84744 0.0
C1934 C 0.37946 0.47463 0.86785 0.0
C1935 C 0.37695 0.48571 0.856 0.0
C1936 C 0.36618 0.45514 0.87078 0.0
C1937 C 0.35039 0.44627 0.86186 0.0
C1938 C 0.348 0.45722 0.85001 0.0
C1939 C 0.36115 0.47673 0.8471 0.0
C1940 C 0.3357 0.42608 0.86499 0.0
C1941 C 0.31163 0.42863 0.86416 0.0
C1942 C 0.34511 0.4048 0.86916 0.0
C1943 C 0.3704 0.40082 0.86986 0.0
C1944 C 0.38445 0.4042 0.85908 0.0
C1945 C 0.40831 0.40066 0.85986 0.0
C1946 C 0.41829 0.39359 0.87135 0.0
C1947 C 0.40442 0.38998 0.88207 0.0
C1948 C 0.38056 0.39351 0.88135 0.0
C1949 C 0.25793 0.3452 0.87064 0.0
C1950 C 0.25787 0.33728 0.88331 0.0
C1951 C 0.27443 0.36124 0.86662 0.0
C1952 C 0.29104 0.36965 0.87521 0.0
C1953 C 0.292 0.36058 0.88758 0.0
C1954 C 0.27553 0.34455 0.89162 0.0
C1955 C 0.3061 0.38928 0.87166 0.0
C1956 C 0.33015 0.38669 0.8725 0.0
C1957 C 0.29671 0.41063 0.86762 0.0
C1958 C 0.27142 0.41498 0.86749 0.0
C1959 C 0.25828 0.41243 0.87869 0.0
C1960 C 0.23441 0.41616 0.87847 0.0
C1961 C 0.22351 0.42262 0.86714 0.0
C1962 C 0.23648 0.42547 0.856 0.0
C1963 C 0.26036 0.42174 0.85616 0.0
H1964 H 0.20503 0.42548 0.86699 0.0
H1965 H 0.43676 0.39086 0.87193 0.0
H1966 H 0.40214 0.53266 0.64191 0.0
H1967 H 0.37335 0.56027 0.63396 0.0
H1968 H 0.31857 0.51455 0.64585 0.0
H1969 H 0.34707 0.48712 0.65398 0.0
H1970 H 0.31534 0.53091 0.6201 0.0
H1971 H 0.32624 0.55872 0.66288 0.0
H1972 H 0.34902 0.57249 0.68124 0.0
H1973 H 0.37347 0.63 0.65915 0.0
H1974 H 0.3511 0.61635 0.64058 0.0
H1975 H 0.21715 0.60161 0.61343 0.0
H1976 H 0.24719 0.57692 0.62244 0.0
H1977 H 0.29854 0.6287 0.61385 0.0
H1978 H 0.26853 0.65368 0.60489 0.0
H1979 H 0.30479 0.60998 0.63755 0.0
H1980 H 0.29355 0.58282 0.59489 0.0
H1981 H 0.27135 0.56892 0.57634 0.0
H1982 H 0.24832 0.51012 0.59786 0.0
H1983 H 0.27012 0.52385 0.6166 0.0
C1984 C 0.38395 0.52858 0.64287 0.0
C1985 C 0.37682 0.50777 0.64856 0.0
C1986 C 0.36758 0.54435 0.63837 0.0
C1987 C 0.34393 0.53936 0.63936 0.0
C1988 C 0.33679 0.51863 0.64502 0.0
C1989 C 0.35309 0.50305 0.64969 0.0
C1990 C 0.32653 0.5555 0.63422 0.0
C1991 C 0.31281 0.54811 0.62399 0.0
C1992 C 0.32378 0.57808 0.63914 0.0
C1993 C 0.33722 0.58635 0.65029 0.0
C1994 C 0.33666 0.57417 0.66189 0.0
C1995 C 0.34946 0.58198 0.67235 0.0
C1996 C 0.36274 0.60207 0.67135 0.0
C1997 C 0.36321 0.61442 0.6599 0.0
C1998 C 0.35046 0.60666 0.64941 0.0
C1999 C 0.23481 0.60782 0.61349 0.0
C2000 C 0.24049 0.62954 0.60837 0.0
C2001 C 0.25196 0.59365 0.61861 0.0
C2002 C 0.2751 0.60089 0.61865 0.0
C2003 C 0.28077 0.62281 0.61387 0.0
C2004 C 0.26361 0.637 0.60873 0.0
C2005 C 0.2934 0.58533 0.62347 0.0
C2006 C 0.30733 0.59282 0.63362 0.0
C2007 C 0.29643 0.56282 0.61845 0.0
C2008 C 0.28329 0.55449 0.60719 0.0
C2009 C 0.28359 0.56703 0.5957 0.0
C2010 C 0.27111 0.55916 0.58514 0.0
C2011 C 0.25838 0.53868 0.58593 0.0
C2012 C 0.25816 0.526 0.59727 0.0
C2013 C 0.27059 0.53381 0.60786 0.0
H2014 H 0.24873 0.53261 0.57774 0.0
H2015 H 0.37263 0.60809 0.67945 0.0
H2016 H 0.35969 0.08597 0.14183 0.0
H2017 H 0.33843 0.12013 0.13481 0.0
H2018 H 0.39784 0.16279 0.1428 0.0
H2019 H 0.41917 0.12874 0.15004 0.0
H2020 H 0.35798 0.18353 0.15037 0.0
H2021 H 0.38668 0.14558 0.11272 0.0
H2022 H 0.39239 0.11265 0.09811 0.0
H2023 H 0.31901 0.10694 0.09293 0.0
H2024 H 0.31285 0.13967 0.10765 0.0
H2025 H 0.33518 0.28065 0.11133 0.0
H2026 H 0.35066 0.24652 0.12193 0.0
H2027 H 0.28948 0.20806 0.11177 0.0
H2028 H 0.27397 0.24213 0.1009 0.0
H2029 H 0.32772 0.18443 0.1061 0.0
H2030 H 0.29943 0.22491 0.14269 0.0
H2031 H 0.29443 0.25824 0.15709 0.0
H2032 H 0.36751 0.25978 0.16411 0.0
H2033 H 0.373 0.22665 0.14961 0.0
C2034 C 0.36821 0.10263 0.14218 0.0
C2035 C 0.3912 0.10462 0.1464 0.0
C2036 C 0.35604 0.12212 0.13814 0.0
C2037 C 0.36667 0.14393 0.13813 0.0
C2038 C 0.38934 0.1461 0.14272 0.0
C2039 C 0.40153 0.12661 0.14681 0.0
C2040 C 0.35447 0.16433 0.13288 0.0
C2041 C 0.35152 0.18384 0.14066 0.0
C2042 C 0.34562 0.16448 0.12031 0.0
C2043 C 0.3493 0.14491 0.11139 0.0
C2044 C 0.37176 0.13719 0.10854 0.0
C2045 C 0.37508 0.11858 0.10023 0.0
C2046 C 0.35608 0.10767 0.09463 0.0
C2047 C 0.33371 0.11539 0.09729 0.0
C2048 C 0.3303 0.13397 0.10561 0.0
C2049 C 0.32488 0.26501 0.11144 0.0
C2050 C 0.30335 0.26408 0.10524 0.0
C2051 C 0.33372 0.24553 0.11757 0.0
C2052 C 0.32112 0.22481 0.11776 0.0
C2053 C 0.29946 0.22391 0.11176 0.0
C2054 C 0.29061 0.2434 0.10558 0.0
C2055 C 0.33125 0.20375 0.12356 0.0
C2056 C 0.33391 0.18409 0.11586 0.0
C2057 C 0.3399 0.20354 0.13619 0.0
C2058 C 0.33664 0.2234 0.14498 0.0
C2059 C 0.31446 0.23246 0.14723 0.0
C2060 C 0.31154 0.2513 0.15543 0.0
C2061 C 0.33065 0.26115 0.16149 0.0
C2062 C 0.35272 0.25214 0.1594 0.0
C2063 C 0.35574 0.23331 0.15121 0.0
H2064 H 0.32835 0.27574 0.16783 0.0
H2065 H 0.35868 0.09326 0.0882 0.0
H2066 H 0.17189 0.11621 0.39115 0.0
H2067 H 0.13986 0.09266 0.3833 0.0
H2068 H 0.09139 0.13723 0.40259 0.0
H2069 H 0.12333 0.16067 0.41067 0.0
H2070 H 0.079 0.09225 0.40474 0.0
H2071 H 0.10247 0.14403 0.37105 0.0
H2072 H 0.13021 0.1618 0.35613 0.0
H2073 H 0.14423 0.0953 0.33965 0.0
H2074 H 0.11678 0.07709 0.3546 0.0
H2075 H 0.97623 0.0781 0.36931 0.0
H2076 H 0.01112 0.09119 0.38014 0.0
H2077 H 0.05174 0.04256 0.35845 0.0
H2078 H 0.01683 0.02948 0.34741 0.0
H2079 H 0.07019 0.08517 0.35783 0.0
H2080 H 0.04277 0.03413 0.39016 0.0
H2081 H 0.01434 0.01711 0.40494 0.0
H2082 H 0.00695 0.08251 0.42388 0.0
H2083 H 0.0351 0.10003 0.4091 0.0
C2084 C 0.15443 0.12091 0.39382 0.0
C2085 C 0.15013 0.14045 0.40144 0.0
C2086 C 0.13615 0.10745 0.3893 0.0
C2087 C 0.11324 0.11339 0.39222 0.0
C2088 C 0.10895 0.13237 0.40021 0.0
C2089 C 0.12722 0.1458 0.40478 0.0
C2090 C 0.09369 0.10058 0.38645 0.0
C2091 C 0.07696 0.0908 0.39449 0.0
C2092 C 0.09137 0.09823 0.37307 0.0
C2093 C 0.10779 0.10917 0.36404 0.0
C2094 C 0.11161 0.13318 0.36431 0.0
C2095 C 0.12725 0.14333 0.35584 0.0
C2096 C 0.13902 0.12968 0.34697 0.0
C2097 C 0.13513 0.10585 0.34654 0.0
C2098 C 0.11952 0.0956 0.355 0.0
C2099 C 0.99253 0.06997 0.36692 0.0
C2100 C 0.99377 0.05278 0.35746 0.0
C2101 C 0.01245 0.0774 0.37319 0.0
C2102 C 0.034 0.06769 0.37019 0.0
C2103 C 0.03526 0.05022 0.36093 0.0
C2104 C 0.0153 0.04274 0.35464 0.0
C2105 C 0.05529 0.07703 0.37612 0.0
C2106 C 0.07235 0.08625 0.3681 0.0
C2107 C 0.05782 0.07893 0.3895 0.0
C2108 C 0.04094 0.06844 0.39846 0.0
C2109 C 0.03496 0.04494 0.39742 0.0
C2110 C 0.01892 0.03519 0.40581 0.0
C2111 C 0.00881 0.04873 0.41533 0.0
C2112 C 0.01478 0.07204 0.4165 0.0
C2113 C 0.03081 0.08188 0.40813 0.0
H2114 H 0.99639 0.04115 0.42181 0.0
H2115 H 0.15113 0.13758 0.34042 0.0
H2116 H 0.14529 0.93001 0.62703 0.0
H2117 H 0.16717 0.89546 0.62121 0.0
H2118 H 0.14329 0.8612 0.65527 0.0
H2119 H 0.12151 0.89574 0.66125 0.0
H2120 H 0.18901 0.85033 0.64937 0.0
H2121 H 0.11452 0.85326 0.6285 0.0
H2122 H 0.08428 0.87124 0.61523 0.0
H2123 H 0.13128 0.87446 0.58359 0.0
H2124 H 0.16191 0.85679 0.59675 0.0
H2125 H 0.19085 0.73166 0.63162 0.0
H2126 H 0.18295 0.77089 0.63905 0.0
H2127 H 0.20222 0.79785 0.60218 0.0
H2128 H 0.20958 0.75864 0.59459 0.0
H2129 H 0.16222 0.81435 0.60903 0.0
H2130 H 0.23573 0.80717 0.62925 0.0
H2131 H 0.26574 0.78894 0.64255 0.0
H2132 H 0.22133 0.79326 0.67526 0.0
H2133 H 0.1909 0.81123 0.66212 0.0
C2134 C 0.14498 0.91527 0.6334 0.0
C2135 C 0.13137 0.91548 0.64451 0.0
C2136 C 0.15749 0.89556 0.63005 0.0
C2137 C 0.15654 0.87571 0.63772 0.0
C2138 C 0.1442 0.87636 0.64922 0.0
C2139 C 0.13167 0.89607 0.65258 0.0
C2140 C 0.16643 0.85361 0.63316 0.0
C2141 C 0.18314 0.84233 0.64059 0.0
C2142 C 0.15901 0.8435 0.62159 0.0
C2143 C 0.14057 0.85396 0.61364 0.0
C2144 C 0.11845 0.85797 0.61874 0.0
C2145 C 0.10124 0.86808 0.61124 0.0
C2146 C 0.10588 0.87405 0.59858 0.0
C2147 C 0.12773 0.86987 0.5934 0.0
C2148 C 0.14502 0.8598 0.60087 0.0
C2149 C 0.19373 0.74597 0.62515 0.0
C2150 C 0.20067 0.74205 0.61249 0.0
C2151 C 0.18933 0.76842 0.62943 0.0
C2152 C 0.19214 0.78735 0.6212 0.0
C2153 C 0.19991 0.7835 0.6087 0.0
C2154 C 0.20411 0.76108 0.60438 0.0
C2155 C 0.18494 0.81085 0.62521 0.0
C2156 C 0.16851 0.82239 0.61771 0.0
C2157 C 0.19267 0.82112 0.63671 0.0
C2158 C 0.21095 0.81039 0.64466 0.0
C2159 C 0.23228 0.80407 0.63926 0.0
C2160 C 0.24939 0.79382 0.64678 0.0
C2161 C 0.24543 0.7899 0.65974 0.0
C2162 C 0.22437 0.79629 0.66522 0.0
C2163 C 0.2072 0.80654 0.65774 0.0
H2164 H 0.25869 0.78196 0.66554 0.0
H2165 H 0.09253 0.88187 0.59279 0.0
H2166 H 0.492 0.97004 0.83869 0.0
H2167 H 0.45692 0.96069 0.8506 0.0
H2168 H 0.4964 0.91672 0.87567 0.0
H2169 H 0.53149 0.92574 0.86375 0.0
H2170 H 0.45887 0.89507 0.86669 0.0
H2171 H 0.47536 0.96821 0.88609 0.0
H2172 H 0.48416 0.00991 0.88653 0.0
H2173 H 0.41979 0.02454 0.86786 0.0
H2174 H 0.41073 0.98288 0.86714 0.0
H2175 H 0.36853 0.86893 0.90866 0.0
H2176 H 0.40479 0.88585 0.90128 0.0
H2177 H 0.36729 0.92899 0.87488 0.0
H2178 H 0.33085 0.9124 0.88234 0.0
H2179 H 0.40434 0.95182 0.88551 0.0
H2180 H 0.3892 0.87919 0.86471 0.0
H2181 H 0.38009 0.83757 0.86385 0.0
H2182 H 0.4421 0.82224 0.88468 0.0
H2183 H 0.4514 0.86383 0.88582 0.0
C2184 C 0.49326 0.95854 0.84681 0.0
C2185 C 0.5145 0.94854 0.85024 0.0
C2186 C 0.47321 0.95332 0.85365 0.0
C2187 C 0.4741 0.93814 0.86407 0.0
C2188 C 0.49536 0.92849 0.86766 0.0
C2189 C 0.51539 0.93368 0.86083 0.0
C2190 C 0.45266 0.93107 0.87071 0.0
C2191 C 0.44717 0.90746 0.87102 0.0
C2192 C 0.4371 0.94732 0.87602 0.0
C2193 C 0.44246 0.97239 0.87646 0.0
C2194 C 0.46316 0.9803 0.88199 0.0
C2195 C 0.46818 0.00393 0.8823 0.0
C2196 C 0.45257 0.01986 0.8772 0.0
C2197 C 0.43188 0.01218 0.8718 0.0
C2198 C 0.42678 0.98856 0.87145 0.0
C2199 C 0.36794 0.88226 0.90142 0.0
C2200 C 0.34684 0.88908 0.89594 0.0
C2201 C 0.38868 0.89189 0.89721 0.0
C2202 C 0.38871 0.90835 0.88738 0.0
C2203 C 0.36761 0.91624 0.88245 0.0
C2204 C 0.34682 0.90667 0.88669 0.0
C2205 C 0.41073 0.91586 0.88154 0.0
C2206 C 0.41622 0.93949 0.8813 0.0
C2207 C 0.42632 0.89967 0.87623 0.0
C2208 C 0.42086 0.87463 0.87546 0.0
C2209 C 0.4008 0.86695 0.86919 0.0
C2210 C 0.39562 0.84337 0.86864 0.0
C2211 C 0.41048 0.82727 0.87424 0.0
C2212 C 0.43059 0.83473 0.88036 0.0
C2213 C 0.43583 0.85831 0.88096 0.0
H2214 H 0.40643 0.80902 0.8738 0.0
H2215 H 0.45649 0.03815 0.87746 0.0
H2216 H 0.33527 0.7136 0.38583 0.0
H2217 H 0.35371 0.74691 0.37589 0.0
H2218 H 0.29608 0.78988 0.38674 0.0
H2219 H 0.27732 0.75648 0.39676 0.0
H2220 H 0.31135 0.79764 0.36169 0.0
H2221 H 0.34332 0.79323 0.40378 0.0
H2222 H 0.36189 0.77409 0.42211 0.0
H2223 H 0.42147 0.75895 0.39918 0.0
H2224 H 0.4031 0.77773 0.38065 0.0
H2225 H 0.37018 0.90411 0.35042 0.0
H2226 H 0.34836 0.87234 0.35998 0.0
H2227 H 0.40555 0.82613 0.35319 0.0
H2228 H 0.42763 0.85783 0.34379 0.0
H2229 H 0.38911 0.82122 0.37685 0.0
H2230 H 0.35714 0.82429 0.33465 0.0
H2231 H 0.33867 0.84265 0.31604 0.0
H2232 H 0.27941 0.8597 0.33881 0.0
H2233 H 0.29767 0.84171 0.35761 0.0
C2234 C 0.3264 0.73008 0.38608 0.0
C2235 C 0.30487 0.73242 0.39218 0.0
C2236 C 0.33702 0.74911 0.38041 0.0
C2237 C 0.32638 0.77088 0.38073 0.0
C2238 C 0.30458 0.7732 0.38645 0.0
C2239 C 0.29394 0.75413 0.39219 0.0
C2240 C 0.33841 0.7912 0.37532 0.0
C2241 C 0.32818 0.80307 0.36512 0.0
C2242 C 0.36058 0.7979 0.37965 0.0
C2243 C 0.37174 0.78671 0.39079 0.0
C2244 C 0.3603 0.78567 0.40262 0.0
C2245 C 0.37081 0.77491 0.41305 0.0
C2246 C 0.39282 0.76526 0.4118 0.0
C2247 C 0.40441 0.76641 0.40013 0.0
C2248 C 0.39397 0.77713 0.38966 0.0
C2249 C 0.37809 0.88716 0.35092 0.0
C2250 C 0.40062 0.88347 0.34631 0.0
C2251 C 0.36555 0.86901 0.35633 0.0
C2252 C 0.37524 0.84682 0.35718 0.0
C2253 C 0.39773 0.84311 0.35261 0.0
C2254 C 0.41029 0.86124 0.34721 0.0
C2255 C 0.3622 0.82756 0.36309 0.0
C2256 C 0.37223 0.81589 0.37343 0.0
C2257 C 0.3399 0.82104 0.35885 0.0
C2258 C 0.32888 0.83188 0.34757 0.0
C2259 C 0.34025 0.83213 0.33572 0.0
C2260 C 0.32981 0.84244 0.32513 0.0
C2261 C 0.30791 0.8524 0.32625 0.0
C2262 C 0.29639 0.85202 0.33796 0.0
C2263 C 0.30677 0.84175 0.34858 0.0
H2264 H 0.29985 0.86036 0.31804 0.0
H2265 H 0.40093 0.75694 0.41989 0.0
H2266 H 0.34218 0.16459 0.62712 0.0
H2267 H 0.37554 0.14023 0.63176 0.0
H2268 H 0.36338 0.10139 0.59729 0.0
H2269 H 0.32981 0.12572 0.59254 0.0
H2270 H 0.37508 0.07354 0.61847 0.0
H2271 H 0.40364 0.14024 0.59644 0.0
H2272 H 0.40803 0.18194 0.59222 0.0
H2273 H 0.43781 0.1916 0.62934 0.0
H2274 H 0.43329 0.14999 0.63386 0.0
H2275 H 0.48861 0.02278 0.62056 0.0
H2276 H 0.45304 0.04207 0.61365 0.0
H2277 H 0.46004 0.09121 0.64438 0.0
H2278 H 0.4956 0.07245 0.65116 0.0
H2279 H 0.45103 0.11264 0.62268 0.0
H2280 H 0.42037 0.04681 0.64535 0.0
H2281 H 0.41546 0.00531 0.65 0.0
H2282 H 0.38955 0.99402 0.61214 0.0
H2283 H 0.39459 0.03544 0.60721 0.0
C2284 C 0.34645 0.15078 0.62056 0.0
C2285 C 0.33346 0.14721 0.60941 0.0
C2286 C 0.36555 0.1369 0.62321 0.0
C2287 C 0.37203 0.11923 0.61478 0.0
C2288 C 0.35864 0.11501 0.60389 0.0
C2289 C 0.33954 0.12897 0.60118 0.0
C2290 C 0.39337 0.10588 0.61716 0.0
C2291 C 0.39178 0.08196 0.6192 0.0
C2292 C 0.41503 0.11701 0.61825 0.0
C2293 C 0.41795 0.14202 0.61553 0.0
C2294 C 0.41097 0.15128 0.60374 0.0
C2295 C 0.4135 0.1749 0.60129 0.0
C2296 C 0.42314 0.18942 0.61052 0.0
C2297 C 0.43033 0.18034 0.62221 0.0
C2298 C 0.4278 0.15673 0.62471 0.0
C2299 C 0.48249 0.03763 0.62587 0.0
C2300 C 0.49495 0.04612 0.63638 0.0
C2301 C 0.46213 0.04857 0.62194 0.0
C2302 C 0.45385 0.06801 0.62854 0.0
C2303 C 0.46617 0.0763 0.63911 0.0
C2304 C 0.48649 0.0655 0.64299 0.0
C2305 C 0.43274 0.08032 0.62434 0.0
C2306 C 0.4344 0.1041 0.62188 0.0
C2307 C 0.41118 0.06904 0.62292 0.0
C2308 C 0.40811 0.04416 0.62587 0.0
C2309 C 0.41381 0.03544 0.63798 0.0
C2310 C 0.41097 0.01194 0.64067 0.0
C2311 C 0.40227 0.99703 0.63135 0.0
C2312 C 0.39633 0.00559 0.61934 0.0
C2313 C 0.39916 0.02908 0.61659 0.0
H2314 H 0.40007 0.97884 0.63346 0.0
H2315 H 0.42509 0.2077 0.6086 0.0
H2316 H 0.11703 0.08306 0.83874 0.0
H2317 H 0.14336 0.11548 0.84296 0.0
H2318 H 0.09476 0.14343 0.87006 0.0
H2319 H 0.06856 0.11123 0.86601 0.0
H2320 H 0.11301 0.17648 0.8531 0.0
H2321 H 0.13896 0.1131 0.88033 0.0
H2322 H 0.15379 0.07372 0.88405 0.0
H2323 H 0.21327 0.08857 0.86098 0.0
H2324 H 0.19857 0.12794 0.85694 0.0
H2325 H 0.16453 0.25017 0.8965 0.0
H2326 H 0.14564 0.21796 0.88584 0.0
H2327 H 0.2091 0.20151 0.86626 0.0
H2328 H 0.22844 0.23371 0.87716 0.0
H2329 H 0.18803 0.16295 0.87477 0.0
H2330 H 0.16592 0.22777 0.85012 0.0
H2331 H 0.15181 0.26724 0.84589 0.0
H2332 H 0.08634 0.25016 0.86268 0.0
H2333 H 0.10015 0.21068 0.86719 0.0
C2334 C 0.11193 0.09621 0.84554 0.0
C2335 C 0.09078 0.09458 0.85209 0.0
C2336 C 0.12699 0.11464 0.84794 0.0
C2337 C 0.12097 0.13174 0.85684 0.0
C2338 C 0.09966 0.1304 0.86314 0.0
C2339 C 0.08477 0.11193 0.86086 0.0
C2340 C 0.13691 0.15088 0.85998 0.0
C2341 C 0.12941 0.17359 0.85785 0.0
C2342 C 0.15869 0.14697 0.86571 0.0
C2343 C 0.16752 0.12335 0.8682 0.0
C2344 C 0.15509 0.10789 0.87595 0.0
C2345 C 0.1635 0.08558 0.87814 0.0
C2346 C 0.18444 0.07862 0.87273 0.0
C2347 C 0.19703 0.09397 0.86514 0.0
C2348 C 0.18867 0.11628 0.8629 0.0
C2349 C 0.17455 0.23974 0.88994 0.0
C2350 C 0.19796 0.2446 0.88761 0.0
C2351 C 0.16367 0.22139 0.88379 0.0
C2352 C 0.17583 0.20765 0.87504 0.0
C2353 C 0.19937 0.21203 0.8729 0.0
C2354 C 0.21037 0.23041 0.87913 0.0
C2355 C 0.16369 0.18863 0.86835 0.0
C2356 C 0.1719 0.16595 0.86977 0.0
C2357 C 0.14264 0.19255 0.86182 0.0
C2358 C 0.13414 0.21626 0.85905 0.0
C2359 C 0.14856 0.23246 0.85298 0.0
C2360 C 0.1406 0.25484 0.85053 0.0
C2361 C 0.1182 0.26121 0.85403 0.0
C2362 C 0.10369 0.2452 0.85997 0.0
C2363 C 0.11156 0.2228 0.86246 0.0
H2364 H 0.11208 0.27854 0.85212 0.0
H2365 H 0.19095 0.06137 0.87444 0.0
H2366 H 0.13951 0.86033 0.08107 0.0
H2367 H 0.10808 0.88613 0.08757 0.0
H2368 H 0.09644 0.8443 0.12101 0.0
H2369 H 0.12744 0.81834 0.11452 0.0
H2370 H 0.05639 0.85638 0.11015 0.0
H2371 H 0.12771 0.89479 0.12221 0.0
H2372 H 0.16588 0.91236 0.11828 0.0
H2373 H 0.13524 0.96081 0.09228 0.0
H2374 H 0.09691 0.9433 0.09594 0.0
H2375 H 0.00037 0.92484 0.15467 0.0
H2376 H 0.03098 0.90411 0.14357 0.0
H2377 H 0.0269 0.9523 0.11229 0.0
H2378 H 0.99609 0.97338 0.12339 0.0
H2379 H 0.07261 0.93923 0.11869 0.0
H2380 H 0.0005 0.90366 0.1087 0.0
H2381 H 0.96224 0.88709 0.11351 0.0
H2382 H 0.99413 0.83359 0.13576 0.0
H2383 H 0.03259 0.85008 0.13126 0.0
C2384 C 0.13013 0.85654 0.08975 0.0
C2385 C 0.13604 0.83734 0.09731 0.0
C2386 C 0.11225 0.87135 0.09348 0.0
C2387 C 0.1001 0.86726 0.10485 0.0
C2388 C 0.10559 0.84778 0.1122 0.0
C2389 C 0.12338 0.83299 0.10849 0.0
C2390 C 0.08198 0.8834 0.10936 0.0
C2391 C 0.05997 0.87447 0.11206 0.0
C2392 C 0.08645 0.90718 0.11149 0.0
C2393 C 0.10951 0.91756 0.10923 0.0
C2394 C 0.12915 0.90904 0.11556 0.0
C2395 C 0.15081 0.91902 0.1134 0.0
C2396 C 0.15299 0.93765 0.10501 0.0
C2397 C 0.13352 0.94635 0.09876 0.0
C2398 C 0.11183 0.93641 0.10087 0.0
C2399 C 0.00613 0.93128 0.14551 0.0
C2400 C 0.99559 0.95061 0.13984 0.0
C2401 C 0.0236 0.91936 0.13917 0.0
C2402 C 0.03082 0.92644 0.12702 0.0
C2403 C 0.02139 0.94652 0.12163 0.0
C2404 C 0.00382 0.95852 0.12799 0.0
C2405 C 0.04736 0.91199 0.11981 0.0
C2406 C 0.06896 0.92123 0.11658 0.0
C2407 C 0.04254 0.88848 0.11718 0.0
C2408 C 0.01945 0.87822 0.11971 0.0
C2409 C -0.00064 0.88845 0.11469 0.0
C2410 C 0.97763 0.87907 0.11736 0.0
C2411 C 0.97575 0.85933 0.12496 0.0
C2412 C 0.99561 0.84889 0.12987 0.0
C2413 C 0.01739 0.85824 0.12726 0.0
H2414 H 0.9589 0.85209 0.12702 0.0
H2415 H 0.16973 0.94543 0.10338 0.0
H2416 H 0.6898 0.73284 0.89984 0.0
H2417 H 0.67703 0.77036 0.89204 0.0
H2418 H 0.69568 0.75092 0.8537 0.0
H2419 H 0.70871 0.71307 0.86145 0.0
H2420 H 0.70573 0.79813 0.85986 0.0
H2421 H 0.64291 0.74501 0.86095 0.0
H2422 H 0.61831 0.7149 0.87051 0.0
H2423 H 0.59772 0.76201 0.90005 0.0
H2424 H 0.6227 0.79228 0.89084 0.0
H2425 H 0.62992 0.88442 0.83287 0.0
H2426 H 0.65005 0.84825 0.83776 0.0
H2427 H 0.63413 0.85706 0.87765 0.0
H2428 H 0.61404 0.89314 0.87288 0.0
H2429 H 0.62282 0.81374 0.86845 0.0
H2430 H 0.68764 0.86643 0.86731 0.0
H2431 H 0.71295 0.89575 0.85751 0.0
H2432 H 0.72906 0.84887 0.82703 0.0
H2433 H 0.70357 0.81936 0.83657 0.0
C2434 C 0.6915 0.73657 0.88976 0.0
C2435 C 0.69995 0.71984 0.88123 0.0
C2436 C 0.68421 0.75805 0.88533 0.0
C2437 C 0.6851 0.76321 0.87228 0.0
C2438 C 0.69482 0.74717 0.86381 0.0
C2439 C 0.70217 0.72556 0.86825 0.0
C2440 C 0.67401 0.78456 0.86754 0.0
C2441 C 0.68754 0.80146 0.86154 0.0
C2442 C 0.6503 0.78883 0.86982 0.0
C2443 C 0.63485 0.77086 0.87526 0.0
C2444 C 0.63327 0.74891 0.86954 0.0
C2445 C 0.61924 0.73181 0.87489 0.0
C2446 C 0.60645 0.73653 0.88589 0.0
C2447 C 0.60765 0.75838 0.89154 0.0
C2448 C 0.62175 0.77552 0.88626 0.0
C2449 C 0.63084 0.87872 0.84269 0.0
C2450 C 0.62033 0.8916 0.85249 0.0
C2451 C 0.64241 0.85812 0.84547 0.0
C2452 C 0.64361 0.85007 0.85807 0.0
C2453 C 0.63336 0.86301 0.86786 0.0
C2454 C 0.62194 0.88365 0.86512 0.0
C2455 C 0.65465 0.82766 0.86106 0.0
C2456 C 0.641 0.81043 0.86669 0.0
C2457 C 0.67815 0.82308 0.8583 0.0
C2458 C 0.69349 0.84079 0.85258 0.0
C2459 C 0.69641 0.86245 0.85846 0.0
C2460 C 0.71082 0.87909 0.85296 0.0
C2461 C 0.72255 0.8742 0.84163 0.0
C2462 C 0.71993 0.85264 0.83579 0.0
C2463 C 0.70551 0.83595 0.84124 0.0
H2464 H 0.73371 0.8871 0.83739 0.0
H2465 H 0.5956 0.72326 0.89003 0.0
H2466 H 0.98703 0.97552 0.6444 0.0
H2467 H 0.95475 0.95782 0.63292 0.0
H2468 H -0.0016 0.90055 0.62222 0.0
H2469 H 0.03079 0.91826 0.63345 0.0
H2470 H 0.97157 0.91354 0.60264 0.0
H2471 H 0.96114 0.89597 0.64712 0.0
H2472 H 0.95713 0.90503 0.66999 0.0
H2473 H 0.89682 0.9458 0.66208 0.0
H2474 H 0.90066 0.93723 0.63912 0.0
H2475 H 0.88681 0.82747 0.58947 0.0
H2476 H 0.919 0.85034 0.59778 0.0
H2477 H 0.87211 0.9059 0.60689 0.0
H2478 H 0.83981 0.88311 0.59874 0.0
H2479 H 0.89988 0.89577 0.62666 0.0
H2480 H 0.90924 0.91067 0.58199 0.0
H2481 H 0.9135 0.90054 0.55927 0.0
H2482 H 0.976 0.86355 0.56763 0.0
H2483 H 0.97194 0.87319 0.59044 0.0
C2484 C 0.98979 0.95924 0.63953 0.0
C2485 C 0.01142 0.94821 0.63993 0.0
C2486 C 0.97132 0.94912 0.63301 0.0
C2487 C 0.97412 0.92772 0.62687 0.0
C2488 C 0.99586 0.91705 0.62691 0.0
C2489 C 0.01434 0.92717 0.63338 0.0
C2490 C 0.95423 0.91597 0.62077 0.0
C2491 C 0.95596 0.90947 0.60791 0.0
C2492 C 0.93372 0.91106 0.62759 0.0
C2493 C 0.93134 0.91617 0.64139 0.0
C2494 C 0.94713 0.90702 0.65025 0.0
C2495 C 0.94487 0.91204 0.66323 0.0
C2496 C 0.92677 0.92604 0.66748 0.0
C2497 C 0.91086 0.93499 0.65877 0.0
C2498 C 0.91306 0.93005 0.64577 0.0
C2499 C 0.88337 0.84462 0.59314 0.0
C2500 C 0.86075 0.85345 0.59347 0.0
C2501 C 0.9018 0.85771 0.59784 0.0
C2502 C 0.89795 0.87988 0.60286 0.0
C2503 C 0.87544 0.88884 0.60304 0.0
C2504 C 0.85702 0.87579 0.59835 0.0
C2505 C 0.9172 0.89327 0.60852 0.0
C2506 C 0.91539 0.90002 0.62134 0.0
C2507 C 0.93765 0.89827 0.60167 0.0
C2508 C 0.94017 0.89249 0.58795 0.0
C2509 C 0.92379 0.90022 0.579 0.0
C2510 C 0.92619 0.89459 0.56611 0.0
C2511 C 0.94498 0.88136 0.56202 0.0
C2512 C 0.96144 0.87378 0.57082 0.0
C2513 C 0.95911 0.87934 0.58373 0.0
H2514 H 0.94681 0.87703 0.55203 0.0
H2515 H 0.92505 0.9299 0.67754 0.0
H2516 H 0.82786 0.26175 0.40553 0.0
H2517 H 0.84555 0.23083 0.39321 0.0
H2518 H 0.78113 0.219 0.37361 0.0
H2519 H 0.76304 0.2502 0.38599 0.0
H2520 H 0.80658 0.17758 0.3811 0.0
H2521 H 0.8181 0.24882 0.35838 0.0
H2522 H 0.82872 0.29001 0.35685 0.0
H2523 H 0.89769 0.27414 0.36911 0.0
H2524 H 0.88738 0.23288 0.37091 0.0
H2525 H 0.86907 0.1052 0.3389 0.0
H2526 H 0.84313 0.13619 0.34576 0.0
H2527 H 0.90015 0.17041 0.36442 0.0
H2528 H 0.92625 0.14006 0.35719 0.0
H2529 H 0.87323 0.20133 0.35432 0.0
H2530 H 0.86183 0.13326 0.38038 0.0
H2531 H 0.85267 0.09213 0.38405 0.0
H2532 H 0.78545 0.10188 0.36758 0.0
H2533 H 0.79436 0.14301 0.36364 0.0
C2534 C 0.81728 0.25247 0.39872 0.0
C2535 C 0.79409 0.25862 0.39663 0.0
C2536 C 0.82746 0.23481 0.39167 0.0
C2537 C 0.81472 0.22299 0.38237 0.0
C2538 C 0.79122 0.2281 0.38072 0.0
C2539 C 0.78095 0.24589 0.38779 0.0
C2540 C 0.8266 0.20618 0.37404 0.0
C2541 C 0.82081 0.18274 0.375 0.0
C2542 C 0.84544 0.21304 0.36632 0.0
C2543 C 0.85192 0.23775 0.36483 0.0
C2544 C 0.83551 0.25412 0.36079 0.0
C2545 C 0.84147 0.27748 0.35988 0.0
C2546 C 0.86386 0.28469 0.3629 0.0
C2547 C 0.88036 0.26853 0.36678 0.0
C2548 C 0.87447 0.24514 0.36772 0.0
C2549 C 0.87612 0.11953 0.3443 0.0
C2550 C 0.89965 0.12009 0.34763 0.0
C2551 C 0.86126 0.13716 0.34826 0.0
C2552 C 0.86959 0.15537 0.35584 0.0
C2553 C 0.8933 0.15652 0.35861 0.0
C2554 C 0.90821 0.13911 0.35449 0.0
C2555 C 0.85364 0.17251 0.3616 0.0
C2556 C 0.85867 0.1961 0.36017 0.0
C2557 C 0.83435 0.16574 0.36905 0.0
C2558 C 0.82886 0.14112 0.37158 0.0
C2559 C 0.84515 0.12659 0.37748 0.0
C2560 C 0.84001 0.10329 0.37961 0.0
C2561 C 0.81852 0.09438 0.37602 0.0
C2562 C 0.80211 0.10879 0.37033 0.0
C2563 C 0.80719 0.13209 0.36815 0.0
H2564 H 0.81458 0.07634 0.37767 0.0
H2565 H 0.86843 0.3028 0.36221 0.0
H2566 H 0.64382 0.12587 0.12093 0.0
H2567 H 0.60931 0.10251 0.12435 0.0
H2568 H 0.60433 0.0898 0.08391 0.0
H2569 H 0.63901 0.11331 0.08037 0.0
H2570 H 0.56312 0.10384 0.09447 0.0
H2571 H 0.62 0.04647 0.10278 0.0
H2572 H 0.65535 0.03007 0.11227 0.0
H2573 H 0.62678 0.03867 0.14976 0.0
H2574 H 0.59138 0.05545 0.14051 0.0
H2575 H 0.46577 0.03252 0.10822 0.0
H2576 H 0.50387 0.04359 0.10011 0.0
H2577 H 0.52549 0.06125 0.13826 0.0
H2578 H 0.48775 0.04993 0.14646 0.0
H2579 H 0.55942 0.0393 0.12556 0.0
H2580 H 0.50624 0.10243 0.11758 0.0
H2581 H 0.47103 0.12004 0.10856 0.0
H2582 H 0.49301 0.10141 0.07082 0.0
H2583 H 0.52823 0.08341 0.07965 0.0
C2584 C 0.63552 0.118 0.11275 0.0
C2585 C 0.64413 0.12147 0.10037 0.0
C2586 C 0.61586 0.10453 0.11474 0.0
C2587 C 0.60443 0.09424 0.1044 0.0
C2588 C 0.61301 0.09752 0.09202 0.0
C2589 C 0.63282 0.11091 0.09002 0.0
C2590 C 0.58281 0.08116 0.1066 0.0
C2591 C 0.56236 0.08936 0.10103 0.0
C2592 C 0.58183 0.06254 0.11532 0.0
C2593 C 0.60307 0.05235 0.12094 0.0
C2594 C 0.62131 0.04502 0.11306 0.0
C2595 C 0.64135 0.03563 0.11839 0.0
C2596 C 0.64332 0.03336 0.13161 0.0
C2597 C 0.62523 0.04044 0.13952 0.0
C2598 C 0.60516 0.04986 0.13423 0.0
C2599 C 0.47872 0.03855 0.1149 0.0
C2600 C 0.47367 0.04053 0.12797 0.0
C2601 C 0.50045 0.04491 0.11024 0.0
C2602 C 0.5174 0.05348 0.11857 0.0
C2603 C 0.51266 0.05466 0.13167 0.0
C2604 C 0.49102 0.04828 0.13633 0.0
C2605 C 0.53971 0.0624 0.1137 0.0
C2606 C 0.56026 0.05344 0.11879 0.0
C2607 C 0.54078 0.08042 0.10459 0.0
C2608 C 0.5197 0.09134 0.09928 0.0
C2609 C 0.50347 0.10194 0.10737 0.0
C2610 C 0.48353 0.11201 0.10229 0.0
C2611 C 0.47975 0.11177 0.08913 0.0
C2612 C 0.49594 0.10153 0.08102 0.0
C2613 C 0.51589 0.0914 0.08605 0.0
H2614 H 0.4643 0.11958 0.08522 0.0
H2615 H 0.65886 0.02609 0.13572 0.0
H2616 H 0.66765 0.26268 0.6176 0.0
H2617 H 0.65025 0.22952 0.62808 0.0
H2618 H 0.7164 0.19522 0.62899 0.0
H2619 H 0.73412 0.22853 0.61825 0.0
H2620 H 0.68224 0.16678 0.62058 0.0
H2621 H 0.69376 0.21574 0.65638 0.0
H2622 H 0.69284 0.25209 0.66865 0.0
H2623 H 0.61879 0.25331 0.66627 0.0
H2624 H 0.61926 0.21712 0.65383 0.0
H2625 H 0.62365 0.0768 0.65399 0.0
H2626 H 0.65186 0.10721 0.6495 0.0
H2627 H 0.59664 0.15704 0.64648 0.0
H2628 H 0.56846 0.12693 0.65133 0.0
H2629 H 0.63225 0.17524 0.65875 0.0
H2630 H 0.62184 0.1298 0.62005 0.0
H2631 H 0.62274 0.09368 0.60754 0.0
H2632 H 0.6952 0.08621 0.61532 0.0
H2633 H 0.69463 0.12209 0.62806 0.0
C2634 C 0.67862 0.24819 0.62006 0.0
C2635 C 0.70231 0.24826 0.61708 0.0
C2636 C 0.66863 0.22927 0.62615 0.0
C2637 C 0.68209 0.21005 0.62949 0.0
C2638 C 0.70576 0.20998 0.62655 0.0
C2639 C 0.71584 0.22901 0.62045 0.0
C2640 C 0.67087 0.18975 0.63549 0.0
C2641 C 0.67173 0.16846 0.62911 0.0
C2642 C 0.65698 0.19205 0.64652 0.0
C2643 C 0.65656 0.21374 0.65411 0.0
C2644 C 0.67728 0.22382 0.65841 0.0
C2645 C 0.67683 0.24439 0.6654 0.0
C2646 C 0.65577 0.25502 0.66822 0.0
C2647 C 0.63509 0.24505 0.66408 0.0
C2648 C 0.63544 0.22448 0.65708 0.0
C2649 C 0.61754 0.09428 0.65246 0.0
C2650 C 0.5938 0.09944 0.65291 0.0
C2651 C 0.63369 0.11162 0.64986 0.0
C2652 C 0.62634 0.13433 0.64746 0.0
C2653 C 0.60271 0.13963 0.6483 0.0
C2654 C 0.5866 0.12237 0.65103 0.0
C2655 C 0.64294 0.15254 0.64357 0.0
C2656 C 0.64312 0.17344 0.65038 0.0
C2657 C 0.65778 0.14987 0.63292 0.0
C2658 C 0.65813 0.12846 0.62514 0.0
C2659 C 0.63793 0.12036 0.61917 0.0
C2660 C 0.63838 0.09993 0.61204 0.0
C2661 C 0.65899 0.08759 0.61069 0.0
C2662 C 0.67922 0.09573 0.61641 0.0
C2663 C 0.67885 0.1161 0.62359 0.0
H2664 H 0.65931 0.07177 0.60518 0.0
H2665 H 0.65546 0.27096 0.67363 0.0
H2666 H 0.49665 0.92411 0.336 0.0
H2667 H 0.53235 0.90644 0.34354 0.0
H2668 H 0.52551 0.94215 0.37945 0.0
H2669 H 0.48971 0.96018 0.37194 0.0
H2670 H 0.57127 0.94024 0.37063 0.0
H2671 H 0.50777 0.8888 0.378 0.0
H2672 H 0.47274 0.8671 0.37199 0.0
H2673 H 0.51152 0.82902 0.34411 0.0
H2674 H 0.54672 0.8508 0.3498 0.0
H2675 H 0.64722 0.86348 0.40405 0.0
H2676 H 0.61287 0.88555 0.39789 0.0
H2677 H 0.61448 0.85405 0.36061 0.0
H2678 H 0.64879 0.83203 0.36665 0.0
H2679 H 0.57064 0.85441 0.37157 0.0
H2680 H 0.63374 0.9067 0.36371 0.0
H2681 H 0.66872 0.92865 0.36949 0.0
H2682 H 0.63073 0.96505 0.39837 0.0
H2683 H 0.59558 0.94298 0.39291 0.0
C2684 C 0.50284 0.92848 0.34545 0.0
C2685 C 0.49018 0.94332 0.35344 0.0
C2686 C 0.52324 0.91833 0.34974 0.0
C2687 C 0.53129 0.9227 0.36212 0.0
C2688 C 0.51947 0.93851 0.36988 0.0
C2689 C 0.499 0.94873 0.36558 0.0
C2690 C 0.55117 0.90952 0.36716 0.0
C2691 C 0.57105 0.9215 0.37103 0.0
C2692 C 0.55088 0.88506 0.36752 0.0
C2693 C 0.52985 0.87158 0.36425 0.0
C2694 C 0.5088 0.87591 0.37053 0.0
C2695 C 0.48891 0.86359 0.36719 0.0
C2696 C 0.48989 0.84673 0.35766 0.0
C2697 C 0.51078 0.8421 0.35149 0.0
C2698 C 0.53071 0.85442 0.35477 0.0
C2699 C 0.6402 0.86119 0.39456 0.0
C2700 C 0.65071 0.84606 0.38582 0.0
C2701 C 0.62066 0.87387 0.39105 0.0
C2702 C 0.61129 0.87149 0.37878 0.0
C2703 C 0.6215 0.8561 0.37012 0.0
C2704 C 0.64113 0.8436 0.37358 0.0
C2705 C 0.59087 0.88509 0.37488 0.0
C2706 C 0.57083 0.87316 0.37125 0.0
C2707 C 0.59104 0.90956 0.37478 0.0
C2708 C 0.61209 0.92299 0.37801 0.0
C2709 C 0.63289 0.91923 0.37138 0.0
C2710 C 0.65274 0.93172 0.37458 0.0
C2711 C 0.65197 0.94819 0.38431 0.0
C2712 C 0.63131 0.95225 0.39084 0.0
C2713 C 0.61142 0.93976 0.3877 0.0
H2714 H 0.66736 0.95785 0.38678 0.0
H2715 H 0.47446 0.83724 0.35507 0.0
H2716 H 0.82187 0.75366 0.08931 0.0
H2717 H 0.8413 0.78583 0.09977 0.0
H2718 H 0.79033 0.7851 0.12976 0.0
H2719 H 0.77053 0.75273 0.11929 0.0
H2720 H 0.80424 0.83035 0.12184 0.0
H2721 H 0.83802 0.75922 0.13564 0.0
H2722 H 0.85452 0.72035 0.13245 0.0
H2723 H 0.9104 0.74952 0.11086 0.0
H2724 H 0.89399 0.78853 0.1137 0.0
H2725 H 0.87881 0.90063 0.16013 0.0
H2726 H 0.85354 0.86886 0.1535 0.0
H2727 H 0.89974 0.85338 0.12236 0.0
H2728 H 0.92516 0.88474 0.129 0.0
H2729 H 0.8857 0.81466 0.13387 0.0
H2730 H 0.85024 0.88479 0.1182 0.0
H2731 H 0.83307 0.9236 0.12023 0.0
H2732 H 0.78014 0.89638 0.1447 0.0
H2733 H 0.79733 0.85746 0.14303 0.0
C2734 C 0.81455 0.76047 0.09805 0.0
C2735 C 0.79482 0.75044 0.10357 0.0
C2736 C 0.82571 0.77885 0.10401 0.0
C2737 C 0.81747 0.78748 0.11564 0.0
C2738 C 0.79699 0.77852 0.12082 0.0
C2739 C 0.78573 0.76005 0.11483 0.0
C2740 C 0.83125 0.80484 0.12265 0.0
C2741 C 0.82191 0.82687 0.12472 0.0
C2742 C 0.85435 0.8002 0.12624 0.0
C2743 C 0.86467 0.77681 0.12482 0.0
C2744 C 0.85376 0.75734 0.13016 0.0
C2745 C 0.8631 0.73528 0.12841 0.0
C2746 C 0.88347 0.73246 0.12144 0.0
C2747 C 0.89461 0.75172 0.11625 0.0
C2748 C 0.8853 0.77383 0.11794 0.0
C2749 C 0.88363 0.89037 0.15191 0.0
C2750 C 0.90393 0.89527 0.14505 0.0
C2751 C 0.86914 0.87229 0.14812 0.0
C2752 C 0.87464 0.85893 0.13736 0.0
C2753 C 0.89516 0.86347 0.13069 0.0
C2754 C 0.90965 0.88146 0.13448 0.0
C2755 C 0.85894 0.84047 0.13278 0.0
C2756 C 0.86793 0.81813 0.1312 0.0
C2757 C 0.83555 0.84487 0.12962 0.0
C2758 C 0.82523 0.86827 0.13062 0.0
C2759 C 0.83507 0.88712 0.12412 0.0
C2760 C 0.82531 0.90913 0.12518 0.0
C2761 C 0.80553 0.91246 0.1326 0.0
C2762 C 0.79548 0.89378 0.13897 0.0
C2763 C 0.80524 0.87175 0.13798 0.0
H2764 H 0.79793 0.92949 0.13338 0.0
H2765 H 0.89065 0.71536 0.12008 0.0
H2766 H 0.97016 0.00383 0.85597 0.0
H2767 H 0.93753 0.01848 0.86857 0.0
H2768 H 0.97653 0.0799 0.87762 0.0
H2769 H 0.00896 0.06553 0.86518 0.0
H2770 H 0.95293 0.06286 0.89844 0.0
H2771 H 0.93854 0.08062 0.85366 0.0
H2772 H 0.9327 0.0702 0.83108 0.0
H2773 H 0.87503 0.02739 0.84141 0.0
H2774 H 0.88074 0.03735 0.86409 0.0
H2775 H 0.87932 0.15715 0.90935 0.0
H2776 H 0.90754 0.12826 0.90272 0.0
H2777 H 0.85249 0.08002 0.89477 0.0
H2778 H 0.82407 0.10907 0.90112 0.0
H2779 H 0.8807 0.08226 0.87535 0.0
H2780 H 0.89044 0.07099 0.9198 0.0
H2781 H 0.89612 0.08183 0.94232 0.0
H2782 H 0.96191 0.11181 0.93313 0.0
H2783 H 0.95651 0.10147 0.91051 0.0
C2784 C 0.9718 0.02036 0.86073 0.0
C2785 C 0.99204 0.03362 0.85948 0.0
C2786 C 0.95319 0.02868 0.86792 0.0
C2787 C 0.95464 0.0503 0.87397 0.0
C2788 C 0.9751 0.06314 0.87306 0.0
C2789 C 0.99356 0.05495 0.86585 0.0
C2790 C 0.93458 0.06052 0.88064 0.0
C2791 C 0.93709 0.06712 0.89344 0.0
C2792 C 0.9137 0.06539 0.87418 0.0
C2793 C 0.91025 0.05948 0.86056 0.0
C2794 C 0.92474 0.06884 0.85112 0.0
C2795 C 0.92143 0.06304 0.83831 0.0
C2796 C 0.90356 0.04808 0.83481 0.0
C2797 C 0.88891 0.03893 0.84413 0.0
C2798 C 0.89216 0.04465 0.85696 0.0
C2799 C 0.87321 0.14029 0.90637 0.0
C2800 C 0.84946 0.13545 0.9057 0.0
C2801 C 0.88939 0.12371 0.90266 0.0
C2802 C 0.88215 0.10186 0.89837 0.0
C2803 C 0.85846 0.09674 0.89807 0.0
C2804 C 0.84226 0.11337 0.90171 0.0
C2805 C 0.89923 0.0853 0.89312 0.0
C2806 C 0.89621 0.07753 0.88054 0.0
C2807 C 0.9196 0.07931 0.89981 0.0
C2808 C 0.92299 0.08555 0.91343 0.0
C2809 C 0.90606 0.08004 0.92256 0.0
C2810 C 0.90924 0.08608 0.93535 0.0
C2811 C 0.92935 0.09753 0.93915 0.0
C2812 C 0.94634 0.10294 0.93017 0.0
C2813 C 0.94324 0.09695 0.91736 0.0
H2814 H 0.93177 0.10219 0.94905 0.0
H2815 H 0.90102 0.04362 0.82489 0.0
H2816 H 0.80139 0.75353 0.59427 0.0
H2817 H 0.81234 0.71649 0.60351 0.0
H2818 H 0.81745 0.74819 0.64065 0.0
H2819 H 0.8069 0.78557 0.63141 0.0
H2820 H 0.85475 0.72342 0.63565 0.0
H2821 H 0.77378 0.70976 0.63372 0.0
H2822 H 0.73498 0.70852 0.62403 0.0
H2823 H 0.75879 0.65933 0.59632 0.0
H2824 H 0.79783 0.66051 0.60572 0.0
H2825 H 0.88025 0.61373 0.66302 0.0
H2826 H 0.85858 0.64917 0.65856 0.0
H2827 H 0.85619 0.63133 0.61865 0.0
H2828 H 0.87786 0.59595 0.62299 0.0
H2829 H 0.8142 0.6491 0.62797 0.0
H2830 H 0.89586 0.66759 0.62803 0.0
H2831 H 0.9349 0.66894 0.63744 0.0
H2832 H 0.90912 0.70926 0.66876 0.0
H2833 H 0.86985 0.70789 0.65959 0.0
C2834 C 0.80457 0.75262 0.60443 0.0
C2835 C 0.80337 0.77253 0.6121 0.0
C2836 C 0.81069 0.73136 0.60972 0.0
C2837 C 0.81548 0.7295 0.6228 0.0
C2838 C 0.81377 0.74923 0.63054 0.0
C2839 C 0.80771 0.77056 0.62524 0.0
C2840 C 0.82402 0.70735 0.62812 0.0
C2841 C 0.84559 0.70725 0.63424 0.0
C2842 C 0.81229 0.68618 0.62605 0.0
C2843 C 0.7888 0.68534 0.62038 0.0
C2844 C 0.7708 0.6988 0.6255 0.0
C2845 C 0.74875 0.69809 0.62007 0.0
C2846 C 0.74443 0.68389 0.60956 0.0
C2847 C 0.76215 0.67033 0.60447 0.0
C2848 C 0.78424 0.67098 0.60985 0.0
C2849 C 0.87491 0.61724 0.65332 0.0
C2850 C 0.88093 0.60216 0.64333 0.0
C2851 C 0.86256 0.63748 0.65079 0.0
C2852 C 0.85595 0.64288 0.63827 0.0
C2853 C 0.86113 0.62741 0.62838 0.0
C2854 C 0.87362 0.60729 0.63087 0.0
C2855 C 0.84494 0.6653 0.63528 0.0
C2856 C 0.82303 0.66539 0.62959 0.0
C2857 C 0.8563 0.68648 0.63773 0.0
C2858 C 0.87989 0.6874 0.64321 0.0
C2859 C 0.89849 0.67658 0.63698 0.0
C2860 C 0.92066 0.67738 0.64225 0.0
C2861 C 0.92447 0.68911 0.65371 0.0
C2862 C 0.90613 0.70013 0.65989 0.0
C2863 C 0.88392 0.69937 0.65466 0.0
H2864 H 0.94164 0.68972 0.65778 0.0
H2865 H 0.72735 0.68336 0.60537 0.0
H2866 H 0.64328 0.62674 0.86789 0.0
H2867 H 0.60436 0.61277 0.86346 0.0
H2868 H 0.5867 0.61967 0.90325 0.0
H2869 H 0.62591 0.63329 0.90783 0.0
H2870 H 0.56962 0.58031 0.89382 0.0
H2871 H 0.56665 0.65961 0.88203 0.0
H2872 H 0.57915 0.69576 0.87171 0.0
H2873 H 0.57348 0.66369 0.83492 0.0
H2874 H 0.56083 0.62729 0.84503 0.0
H2875 H 0.44717 0.57487 0.8799 0.0
H2876 H 0.48543 0.58738 0.8872 0.0
H2877 H 0.51354 0.57313 0.84994 0.0
H2878 H 0.47557 0.56041 0.8426 0.0
H2879 H 0.5238 0.61786 0.85961 0.0
H2880 H 0.52589 0.53771 0.87291 0.0
H2881 H 0.51135 0.50346 0.88438 0.0
H2882 H 0.51682 0.53984 0.91995 0.0
H2883 H 0.53109 0.57444 0.90866 0.0
C2884 C 0.63116 0.62527 0.87572 0.0
C2885 C 0.63765 0.63126 0.88821 0.0
C2886 C 0.60887 0.61737 0.87316 0.0
C2887 C 0.5925 0.61554 0.88299 0.0
C2888 C 0.59904 0.62102 0.89552 0.0
C2889 C 0.62143 0.62885 0.89811 0.0
C2890 C 0.56859 0.60799 0.88007 0.0
C2891 C 0.55945 0.58874 0.88648 0.0
C2892 C 0.55536 0.6189 0.87046 0.0
C2893 C 0.56301 0.64068 0.8643 0.0
C2894 C 0.56823 0.66022 0.87174 0.0
C2895 C 0.57531 0.68076 0.86593 0.0
C2896 C 0.57728 0.68199 0.85267 0.0
C2897 C 0.572 0.6627 0.84519 0.0
C2898 C 0.56479 0.64213 0.85095 0.0
C2899 C 0.46155 0.57421 0.8733 0.0
C2900 C 0.45835 0.56668 0.86067 0.0
C2901 C 0.48337 0.58131 0.87749 0.0
C2902 C 0.50224 0.58115 0.86909 0.0
C2903 C 0.49915 0.57339 0.85654 0.0
C2904 C 0.47745 0.56605 0.85239 0.0
C2905 C 0.52508 0.58994 0.87316 0.0
C2906 C 0.53395 0.6095 0.86698 0.0
C2907 C 0.53781 0.57956 0.88314 0.0
C2908 C 0.52931 0.55874 0.88992 0.0
C2909 C 0.52379 0.53848 0.88316 0.0
C2910 C 0.51564 0.51898 0.88963 0.0
C2911 C 0.5131 0.51949 0.90288 0.0
C2912 C 0.51876 0.53948 0.90969 0.0
C2913 C 0.5269 0.55903 0.90326 0.0
H2914 H 0.50679 0.50438 0.90787 0.0
H2915 H 0.58281 0.69792 0.84819 0.0
H2916 H 0.58132 0.38115 0.11995 0.0
H2917 H 0.60213 0.3454 0.11537 0.0
H2918 H 0.6481 0.3586 0.14692 0.0
H2919 H 0.62744 0.39457 0.15155 0.0
H2920 H 0.67129 0.34483 0.1253 0.0
H2921 H 0.607 0.31872 0.15018 0.0
H2922 H 0.56592 0.31536 0.15613 0.0
H2923 H 0.55076 0.28444 0.11985 0.0
H2924 H 0.59171 0.28791 0.11361 0.0
H2925 H 0.72058 0.23159 0.11979 0.0
H2926 H 0.70253 0.26677 0.12818 0.0
H2927 H 0.6469 0.2594 0.10106 0.0
H2928 H 0.66433 0.22402 0.09299 0.0
H2929 H 0.62991 0.2698 0.1232 0.0
H2930 H 0.69268 0.29922 0.09739 0.0
H2931 H 0.73342 0.30321 0.09083 0.0
H2932 H 0.75108 0.32827 0.12813 0.0
H2933 H 0.71047 0.32417 0.13495 0.0
C2934 C 0.59584 0.37648 0.12594 0.0
C2935 C 0.60267 0.39066 0.13614 0.0
C2936 C 0.60766 0.35599 0.12333 0.0
C2937 C 0.62648 0.34925 0.1309 0.0
C2938 C 0.63357 0.36349 0.141 0.0
C2939 C 0.6217 0.38398 0.14364 0.0
C2940 C 0.63881 0.32739 0.12814 0.0
C2941 C 0.66237 0.32833 0.12504 0.0
C2942 C 0.62704 0.30599 0.12763 0.0
C2943 C 0.60241 0.30374 0.13139 0.0
C2944 C 0.59488 0.31136 0.14343 0.0
C2945 C 0.57163 0.30941 0.14687 0.0
C2946 C 0.55574 0.29974 0.13837 0.0
C2947 C 0.56309 0.29194 0.12642 0.0
C2948 C 0.58633 0.29387 0.12294 0.0
C2949 C 0.70453 0.23754 0.11562 0.0
C2950 C 0.69388 0.22505 0.10573 0.0
C2951 C 0.69427 0.25767 0.12039 0.0
C2952 C 0.67345 0.26586 0.11518 0.0
C2953 C 0.6629 0.2534 0.10528 0.0
C2954 C 0.67294 0.23318 0.10065 0.0
C2955 C 0.66231 0.28726 0.11999 0.0
C2956 C 0.63894 0.28623 0.12354 0.0
C2957 C 0.67423 0.30859 0.12083 0.0
C2958 C 0.69861 0.31114 0.11672 0.0
C2959 C 0.70529 0.30542 0.10422 0.0
C2960 C 0.72835 0.30773 0.10045 0.0
C2961 C 0.74484 0.31592 0.10907 0.0
C2962 C 0.73829 0.32189 0.12147 0.0
C2963 C 0.71526 0.31959 0.12529 0.0
H2964 H 0.76268 0.31769 0.10614 0.0
H2965 H 0.53774 0.29825 0.14104 0.0
H2966 H 0.86607 0.32657 0.3847 0.0
H2967 H 0.89909 0.34964 0.37783 0.0
H2968 H 0.87723 0.40549 0.40227 0.0
H2969 H 0.84401 0.38237 0.4093 0.0
H2970 H 0.88929 0.41923 0.37699 0.0
H2971 H 0.92113 0.37623 0.41172 0.0
H2972 H 0.92939 0.34131 0.42439 0.0
H2973 H 0.96618 0.31183 0.39277 0.0
H2974 H 0.95785 0.34645 0.37984 0.0
H2975 H 0.99661 0.4793 0.36676 0.0
H2976 H 0.9625 0.46141 0.37646 0.0
H2977 H 0.97877 0.39694 0.35782 0.0
H2978 H 0.01288 0.41449 0.34824 0.0
H2979 H 0.9694 0.39041 0.38256 0.0
H2980 H 0.93503 0.43103 0.34726 0.0
H2981 H 0.92614 0.46503 0.33397 0.0
H2982 H 0.89379 0.49818 0.36596 0.0
H2983 H 0.90277 0.46447 0.3795 0.0
C2984 C 0.86826 0.34374 0.38864 0.0
C2985 C 0.85247 0.35266 0.39756 0.0
C2986 C 0.88718 0.35686 0.38474 0.0
C2987 C 0.89063 0.37917 0.38962 0.0
C2988 C 0.87483 0.38826 0.39843 0.0
C2989 C 0.85596 0.37502 0.40247 0.0
C2990 C 0.91075 0.39288 0.38534 0.0
C2991 C 0.90686 0.41324 0.37841 0.0
C2992 C 0.93356 0.3847 0.38701 0.0
C2993 C 0.93871 0.36387 0.39477 0.0
C2994 C 0.93082 0.36223 0.40743 0.0
C2995 C 0.93555 0.3425 0.41467 0.0
C2996 C 0.94827 0.32434 0.40938 0.0
C2997 C 0.95633 0.3259 0.39685 0.0
C2998 C 0.95163 0.34559 0.38957 0.0
C2999 C 0.99282 0.46136 0.36466 0.0
C3000 C 0.00748 0.44831 0.35675 0.0
C3001 C 0.97331 0.45119 0.37019 0.0
C3002 C 0.9681 0.42786 0.36783 0.0
C3003 C 0.98254 0.41494 0.35981 0.0
C3004 C 0.00199 0.42504 0.3543 0.0
C3005 C 0.94798 0.41656 0.37394 0.0
C3006 C 0.95187 0.39662 0.38125 0.0
C3007 C 0.92519 0.42506 0.37255 0.0
C3008 C 0.91983 0.44536 0.36443 0.0
C3009 C 0.92622 0.44566 0.3515 0.0
C3010 C 0.92112 0.46486 0.34391 0.0
C3011 C 0.90947 0.48378 0.34913 0.0
C3012 C 0.90285 0.48352 0.36194 0.0
C3013 C 0.90793 0.46438 0.36957 0.0
H3014 H 0.90553 0.49863 0.34323 0.0
H3015 H 0.95191 0.30908 0.415 0.0
H3016 H 0.91053 0.39977 0.87565 0.0
H3017 H 0.89254 0.36281 0.88077 0.0
H3018 H 0.8955 0.34299 0.84114 0.0
H3019 H 0.91323 0.38022 0.83587 0.0
H3020 H 0.85418 0.33289 0.85127 0.0
H3021 H 0.93271 0.31944 0.86232 0.0
H3022 H 0.97033 0.32758 0.87239 0.0
H3023 H 0.93889 0.32443 0.90943 0.0
H3024 H 0.90099 0.31656 0.89958 0.0
H3025 H 0.82634 0.21486 0.86531 0.0
H3026 H 0.84669 0.24958 0.8581 0.0
H3027 H 0.84106 0.27882 0.89581 0.0
H3028 H 0.82066 0.24424 0.90311 0.0
H3029 H 0.88554 0.28224 0.8853 0.0
H3030 H 0.80633 0.29772 0.8734 0.0
H3031 H 0.7693 0.28911 0.86277 0.0
H3032 H 0.80352 0.28729 0.82645 0.0
H3033 H 0.84083 0.29557 0.8369 0.0
C3034 C 0.90744 0.38755 0.86801 0.0
C3035 C 0.91338 0.3929 0.85536 0.0
C3036 C 0.89724 0.36638 0.87097 0.0
C3037 C 0.89297 0.35003 0.86136 0.0
C3038 C 0.89872 0.35535 0.8487 0.0
C3039 C 0.9089 0.37659 0.84572 0.0
C3040 C 0.88204 0.32763 0.86459 0.0
C3041 C 0.86125 0.3216 0.85855 0.0
C3042 C 0.89115 0.31307 0.8742 0.0
C3043 C 0.91396 0.3176 0.88019 0.0
C3044 C 0.93378 0.32064 0.87261 0.0
C3045 C 0.95516 0.32519 0.87828 0.0
C3046 C 0.95699 0.32659 0.89154 0.0
C3047 C 0.93745 0.32336 0.89916 0.0
C3048 C 0.91601 0.31883 0.89354 0.0
C3049 C 0.82937 0.22871 0.87206 0.0
C3050 C 0.82183 0.22685 0.88477 0.0
C3051 C 0.84096 0.24852 0.86792 0.0
C3052 C 0.84528 0.26674 0.87643 0.0
C3053 C 0.83789 0.2649 0.88912 0.0
C3054 C 0.82614 0.24519 0.89324 0.0
C3055 C 0.85756 0.28776 0.87213 0.0
C3056 C 0.87861 0.29347 0.87796 0.0
C3057 C 0.84883 0.30189 0.86224 0.0
C3058 C 0.8264 0.297 0.85595 0.0
C3059 C 0.80599 0.29528 0.86316 0.0
C3060 C 0.78495 0.2905 0.85717 0.0
C3061 C 0.78407 0.28758 0.84395 0.0
C3062 C 0.80423 0.28951 0.83669 0.0
C3063 C 0.82532 0.29426 0.84264 0.0
H3064 H 0.76776 0.28389 0.83933 0.0
H3065 H 0.97356 0.33013 0.89591 0.0
H3066 H -6e-05 0.57171 0.15122 0.0
H3067 H 0.96592 0.59174 0.14319 0.0
H3068 H 0.96093 0.54302 0.11216 0.0
H3069 H 0.99532 0.52289 0.12008 0.0
H3070 H 0.95713 0.58747 0.10399 0.0
H3071 H 0.92243 0.54076 0.1362 0.0
H3072 H 0.91789 0.52374 0.15761 0.0
H3073 H 0.90804 0.59138 0.17358 0.0
H3074 H 0.91285 0.60885 0.15229 0.0
H3075 H 0.84692 0.63226 0.08514 0.0
H3076 H 0.87815 0.60663 0.09201 0.0
H3077 H 0.89118 0.65079 0.12437 0.0
H3078 H 0.85997 0.67643 0.11765 0.0
H3079 H 0.88904 0.60518 0.13103 0.0
H3080 H 0.92673 0.6519 0.09922 0.0
H3081 H 0.93174 0.66919 0.07791 0.0
H3082 H 0.93607 0.60149 0.06126 0.0
H3083 H 0.93076 0.58378 0.08247 0.0
C3084 C 0.99154 0.56508 0.14274 0.0
C3085 C 0.00034 0.54567 0.13629 0.0
C3086 C 0.97202 0.57652 0.1382 0.0
C3087 C 0.96077 0.56873 0.12716 0.0
C3088 C 0.96935 0.54925 0.12072 0.0
C3089 C 0.98892 0.53773 0.12529 0.0
C3090 C 0.94065 0.58163 0.12213 0.0
C3091 C 0.94201 0.59096 0.1098 0.0
C3092 C 0.92119 0.58657 0.12983 0.0
C3093 C 0.91818 0.57613 0.14265 0.0
C3094 C 0.91947 0.55203 0.14429 0.0
C3095 C 0.91681 0.5423 0.1564 0.0
C3096 C 0.91272 0.55648 0.16695 0.0
C3097 C 0.91122 0.58042 0.1654 0.0
C3098 C 0.91388 0.59024 0.15331 0.0
C3099 C 0.8565 0.63658 0.09369 0.0
C3100 C 0.85096 0.65637 0.10086 0.0
C3101 C 0.87436 0.62193 0.09758 0.0
C3102 C 0.887 0.62687 0.10867 0.0
C3103 C 0.88157 0.64665 0.11581 0.0
C3104 C 0.86378 0.66132 0.11192 0.0
C3105 C 0.9057 0.61128 0.11298 0.0
C3106 C 0.90404 0.60146 0.12518 0.0
C3107 C 0.92488 0.6059 0.10516 0.0
C3108 C 0.92807 0.61652 0.09241 0.0
C3109 C 0.92854 0.64069 0.091 0.0
C3110 C 0.93147 0.65057 0.07894 0.0
C3111 C 0.93415 0.63645 0.06823 0.0
C3112 C 0.93395 0.61241 0.06957 0.0
C3113 C 0.93099 0.60245 0.0816 0.0
H3114 H 0.93643 0.64413 0.05891 0.0
H3115 H 0.91067 0.54891 0.17632 0.0
H3116 H 0.58735 0.60118 0.37016 0.0
H3117 H 0.61116 0.63491 0.37474 0.0
H3118 H 0.63998 0.63182 0.33683 0.0
H3119 H 0.61656 0.59751 0.33227 0.0
H3120 H 0.67303 0.64052 0.35368 0.0
H3121 H 0.5992 0.67252 0.34454 0.0
H3122 H 0.55691 0.67701 0.34592 0.0
H3123 H 0.56255 0.69379 0.38568 0.0
H3124 H 0.60486 0.68909 0.38459 0.0
H3125 H 0.71764 0.75754 0.36224 0.0
H3126 H 0.69872 0.72256 0.35407 0.0
H3127 H 0.66958 0.70976 0.39125 0.0
H3128 H 0.6883 0.74436 0.39948 0.0
H3129 H 0.63696 0.71103 0.37181 0.0
H3130 H 0.71153 0.67618 0.38053 0.0
H3131 H 0.75379 0.67252 0.37832 0.0
H3132 H 0.74639 0.66277 0.33793 0.0
H3133 H 0.70408 0.66669 0.33989 0.0
C3134 C 0.59868 0.60768 0.36277 0.0
C3135 C 0.59995 0.59676 0.35083 0.0
C3136 C 0.61225 0.62703 0.36539 0.0
C3137 C 0.62707 0.63614 0.35605 0.0
C3138 C 0.6286 0.62513 0.34416 0.0
C3139 C 0.61516 0.60559 0.34156 0.0
C3140 C 0.64098 0.65707 0.35885 0.0
C3141 C 0.66511 0.65609 0.35743 0.0
C3142 C 0.63067 0.67737 0.36379 0.0
C3143 C 0.60521 0.68028 0.36449 0.0
C3144 C 0.59142 0.67701 0.3536 0.0
C3145 C 0.56744 0.67961 0.35433 0.0
C3146 C 0.55705 0.68563 0.36589 0.0
C3147 C 0.57062 0.68911 0.37674 0.0
C3148 C 0.59461 0.68651 0.37606 0.0
C3149 C 0.70754 0.74704 0.36872 0.0
C3150 C 0.70429 0.75386 0.38148 0.0
C3151 C 0.69676 0.72708 0.36404 0.0
C3152 C 0.68265 0.71372 0.37206 0.0
C3153 C 0.68027 0.71995 0.3849 0.0
C3154 C 0.69104 0.73974 0.38958 0.0
C3155 C 0.66896 0.69415 0.36703 0.0
C3156 C 0.64482 0.6955 0.36795 0.0
C3157 C 0.67926 0.6744 0.3615 0.0
C3158 C 0.70467 0.67201 0.36034 0.0
C3159 C 0.71893 0.67348 0.37117 0.0
C3160 C 0.74289 0.67131 0.36996 0.0
C3161 C 0.75278 0.6675 0.35799 0.0
C3162 C 0.73871 0.66577 0.3472 0.0
C3163 C 0.71474 0.66795 0.34835 0.0
H3164 H 0.77133 0.66581 0.35707 0.0
H3165 H 0.53848 0.68764 0.36643 0.0
H3166 H 0.67565 0.3768 0.63029 0.0
H3167 H 0.64285 0.40232 0.63442 0.0
H3168 H 0.61274 0.38306 0.59832 0.0
H3169 H 0.64561 0.35771 0.59402 0.0
H3170 H 0.6075 0.42937 0.60324 0.0
H3171 H 0.59516 0.35692 0.62506 0.0
H3172 H 0.60543 0.3252 0.6397 0.0
H3173 H 0.60938 0.37324 0.67085 0.0
H3174 H 0.59943 0.40532 0.65634 0.0
H3175 H 0.48754 0.44807 0.61386 0.0
H3176 H 0.52668 0.43527 0.60883 0.0
H3177 H 0.5491 0.45453 0.64662 0.0
H3178 H 0.5099 0.46695 0.65181 0.0
H3179 H 0.56052 0.41145 0.64155 0.0
H3180 H 0.56838 0.48357 0.61994 0.0
H3181 H 0.55757 0.51489 0.60516 0.0
H3182 H 0.56138 0.46779 0.57358 0.0
H3183 H 0.5719 0.43608 0.58819 0.0
C3184 C 0.66215 0.37812 0.62318 0.0
C3185 C 0.6631 0.36502 0.6119 0.0
C3186 C 0.64343 0.39272 0.62556 0.0
C3187 C 0.62526 0.39435 0.61674 0.0
C3188 C 0.6266 0.38203 0.60524 0.0
C3189 C 0.64533 0.36745 0.60285 0.0
C3190 C 0.60418 0.40771 0.61983 0.0
C3191 C 0.5971 0.42542 0.61156 0.0
C3192 C 0.59096 0.40282 0.63084 0.0
C3193 C 0.59682 0.38354 0.63959 0.0
C3194 C 0.5984 0.36074 0.63501 0.0
C3195 C 0.60413 0.3427 0.64329 0.0
C3196 C 0.60813 0.34721 0.65619 0.0
C3197 C 0.60633 0.36978 0.66085 0.0
C3198 C 0.60063 0.38789 0.65261 0.0
C3199 C 0.50089 0.45001 0.62102 0.0
C3200 C 0.49556 0.45829 0.63328 0.0
C3201 C 0.52331 0.44278 0.61811 0.0
C3202 C 0.54084 0.44399 0.62734 0.0
C3203 C 0.53581 0.45339 0.63936 0.0
C3204 C 0.5134 0.46049 0.64231 0.0
C3205 C 0.56365 0.43318 0.62494 0.0
C3206 C 0.57103 0.41577 0.63332 0.0
C3207 C 0.57705 0.43836 0.61401 0.0
C3208 C 0.57076 0.45739 0.60518 0.0
C3209 C 0.56674 0.47983 0.60986 0.0
C3210 C 0.56069 0.49767 0.60151 0.0
C3211 C 0.55874 0.49332 0.58845 0.0
C3212 C 0.56288 0.47113 0.5837 0.0
C3213 C 0.56892 0.45322 0.59201 0.0
H3214 H 0.55406 0.50715 0.582 0.0
H3215 H 0.61256 0.33322 0.66259 0.0
H3216 H 0.08917 0.38845 0.37377 0.0
H3217 H 0.11566 0.35769 0.37991 0.0
H3218 H 0.1616 0.37674 0.34927 0.0
H3219 H 0.13487 0.40745 0.34287 0.0
H3220 H 0.15572 0.33097 0.3501 0.0
H3221 H 0.17578 0.38925 0.38004 0.0
H3222 H 0.1692 0.41944 0.39624 0.0
H3223 H 0.13891 0.36919 0.42131 0.0
H3224 H 0.145 0.33874 0.40519 0.0
H3225 H 0.23755 0.24917 0.37537 0.0
H3226 H 0.22111 0.28614 0.36836 0.0
H3227 H 0.1636 0.27657 0.39399 0.0
H3228 H 0.17975 0.23979 0.401 0.0
H3229 H 0.18177 0.32099 0.39484 0.0
H3230 H 0.15719 0.26442 0.36338 0.0
H3231 H 0.16378 0.23439 0.34708 0.0
H3232 H 0.20362 0.2823 0.32484 0.0
H3233 H 0.19751 0.31254 0.34111 0.0
C3234 C 0.10495 0.38622 0.36835 0.0
C3235 C 0.10993 0.40043 0.35784 0.0
C3236 C 0.12015 0.36869 0.37193 0.0
C3237 C 0.14078 0.36515 0.36517 0.0
C3238 C 0.14582 0.37926 0.35464 0.0
C3239 C 0.13055 0.3968 0.35103 0.0
C3240 C 0.15652 0.3461 0.36888 0.0
C3241 C 0.16186 0.32906 0.35982 0.0
C3242 C 0.16434 0.34349 0.38159 0.0
C3243 C 0.16073 0.36173 0.39136 0.0
C3244 C 0.16757 0.38466 0.38897 0.0
C3245 C 0.16395 0.40182 0.39815 0.0
C3246 C 0.15361 0.39625 0.40978 0.0
C3247 C 0.14691 0.37349 0.41228 0.0
C3248 C 0.15048 0.35626 0.40314 0.0
C3249 C 0.22146 0.25502 0.37955 0.0
C3250 C 0.2099 0.24153 0.3887 0.0
C3251 C 0.2121 0.27609 0.37552 0.0
C3252 C 0.19112 0.28398 0.38064 0.0
C3253 C 0.17984 0.27078 0.38995 0.0
C3254 C 0.18905 0.2497 0.39389 0.0
C3255 C 0.18036 0.30569 0.37614 0.0
C3256 C 0.17599 0.3232 0.38507 0.0
C3257 C 0.17354 0.30878 0.36331 0.0
C3258 C 0.17715 0.29064 0.35353 0.0
C3259 C 0.16753 0.26848 0.35506 0.0
C3260 C 0.17114 0.25144 0.34582 0.0
C3261 C 0.18418 0.25641 0.33495 0.0
C3262 C 0.19357 0.27846 0.33328 0.0
C3263 C 0.19003 0.29556 0.3425 0.0
H3264 H 0.18695 0.24319 0.3278 0.0
H3265 H 0.15081 0.40956 0.41687 0.0
H3266 H 0.35584 0.38211 0.08116 0.0
H3267 H 0.38952 0.40687 0.08477 0.0
H3268 H 0.38125 0.39874 0.12541 0.0
H3269 H 0.34735 0.37454 0.12191 0.0
H3270 H 0.39284 0.44202 0.11993 0.0
H3271 H 0.41983 0.36561 0.10795 0.0
H3272 H 0.42302 0.33167 0.09381 0.0
H3273 H 0.45068 0.37455 0.06407 0.0
H3274 H 0.44738 0.4088 0.07801 0.0
H3275 H 0.50322 0.44819 0.14756 0.0
H3276 H 0.46516 0.43865 0.13909 0.0
H3277 H 0.48705 0.45956 0.10151 0.0
H3278 H 0.52538 0.46923 0.10993 0.0
H3279 H 0.4678 0.41609 0.10199 0.0
H3280 H 0.44748 0.49131 0.11627 0.0
H3281 H 0.44535 0.52411 0.13124 0.0
H3282 H 0.40604 0.48278 0.15743 0.0
H3283 H 0.40821 0.44961 0.1427 0.0
C3284 C 0.36111 0.38575 0.09087 0.0
C3285 C 0.34906 0.37619 0.10125 0.0
C3286 C 0.38037 0.39987 0.09291 0.0
C3287 C 0.38807 0.4044 0.10536 0.0
C3288 C 0.3756 0.3955 0.11573 0.0
C3289 C 0.35628 0.38156 0.1137 0.0
C3290 C 0.40977 0.41735 0.10771 0.0
C3291 C 0.40925 0.43635 0.11604 0.0
C3292 C 0.43108 0.41035 0.10232 0.0
C3293 C 0.43308 0.38979 0.09395 0.0
C3294 C 0.42642 0.36782 0.09836 0.0
C3295 C 0.42828 0.34853 0.09039 0.0
C3296 C 0.43697 0.35097 0.07804 0.0
C3297 C 0.4439 0.3727 0.07364 0.0
C3298 C 0.44204 0.39205 0.08156 0.0
C3299 C 0.49988 0.45106 0.13752 0.0
C3300 C 0.51733 0.45935 0.1294 0.0
C3301 C 0.47806 0.44574 0.13271 0.0
C3302 C 0.47326 0.44857 0.1197 0.0
C3303 C 0.49043 0.45738 0.1116 0.0
C3304 C 0.51227 0.46291 0.11643 0.0
C3305 C 0.45096 0.44032 0.11451 0.0
C3306 C 0.45135 0.42216 0.10565 0.0
C3307 C 0.42959 0.44797 0.11951 0.0
C3308 C 0.42813 0.46791 0.12839 0.0
C3309 C 0.43852 0.48915 0.12526 0.0
C3310 C 0.43728 0.50783 0.1337 0.0
C3311 C 0.42559 0.50552 0.14529 0.0
C3312 C 0.41508 0.48454 0.14845 0.0
C3313 C 0.41628 0.46581 0.14005 0.0
H3314 H 0.42465 0.52 0.15181 0.0
H3315 H 0.43841 0.33601 0.07188 0.0
H3316 H 0.32673 0.78779 0.88097 0.0
H3317 H 0.33819 0.75342 0.86912 0.0
H3318 H 0.27777 0.71743 0.88278 0.0
H3319 H 0.26618 0.75187 0.89481 0.0
H3320 H 0.31712 0.69231 0.88591 0.0
H3321 H 0.28077 0.73335 0.85196 0.0
H3322 H 0.27247 0.76688 0.8382 0.0
H3323 H 0.34312 0.76807 0.82572 0.0
H3324 H 0.35193 0.73474 0.83955 0.0
H3325 H 0.34531 0.59434 0.8486 0.0
H3326 H 0.32368 0.62761 0.85658 0.0
H3327 H 0.37893 0.67297 0.84488 0.0
H3328 H 0.40052 0.63986 0.83667 0.0
H3329 H 0.33724 0.69189 0.83991 0.0
H3330 H 0.37465 0.65474 0.87554 0.0
H3331 H 0.38411 0.62198 0.88965 0.0
H3332 H 0.31239 0.61441 0.89928 0.0
H3333 H 0.30247 0.64694 0.88507 0.0
C3334 C 0.31574 0.77265 0.88139 0.0
C3335 C 0.29556 0.77253 0.88886 0.0
C3336 C 0.32225 0.75305 0.87454 0.0
C3337 C 0.3087 0.73296 0.87497 0.0
C3338 C 0.2884 0.73283 0.88229 0.0
C3339 C 0.28179 0.75251 0.88913 0.0
C3340 C 0.31668 0.71176 0.8684 0.0
C3341 C 0.32103 0.69203 0.87579 0.0
C3342 C 0.32229 0.71164 0.85527 0.0
C3343 C 0.31704 0.73162 0.84687 0.0
C3344 C 0.29458 0.74086 0.84636 0.0
C3345 C 0.28978 0.75981 0.83853 0.0
C3346 C 0.30726 0.76962 0.83111 0.0
C3347 C 0.32959 0.76045 0.83148 0.0
C3348 C 0.33449 0.74151 0.8393 0.0
C3349 C 0.35279 0.61142 0.84762 0.0
C3350 C 0.37474 0.61445 0.84211 0.0
C3351 C 0.34041 0.6304 0.85221 0.0
C3352 C 0.34986 0.6527 0.85148 0.0
C3353 C 0.37135 0.65589 0.84554 0.0
C3354 C 0.3837 0.63693 0.8409 0.0
C3355 C 0.33794 0.6726 0.85747 0.0
C3356 C 0.33295 0.69207 0.84998 0.0
C3357 C 0.33185 0.67257 0.87054 0.0
C3358 C 0.3378 0.65308 0.87913 0.0
C3359 C 0.36088 0.64597 0.88059 0.0
C3360 C 0.36632 0.62746 0.88861 0.0
C3361 C 0.34885 0.61607 0.89532 0.0
C3362 C 0.3259 0.62322 0.89405 0.0
C3363 C 0.32036 0.64169 0.88602 0.0
H3364 H 0.3531 0.60176 0.90154 0.0
H3365 H 0.30351 0.7843 0.82506 0.0
H3366 H 0.97832 0.59247 0.64735 0.0
H3367 H 0.01023 0.61267 0.63711 0.0
H3368 H 0.02601 0.55172 0.61508 0.0
H3369 H 0.99389 0.53116 0.62533 0.0
H3370 H 0.06514 0.57354 0.62592 0.0
H3371 H -0.00083 0.59382 0.60055 0.0
H3372 H 0.95925 0.60741 0.59718 0.0
H3373 H 0.97628 0.67264 0.61434 0.0
H3374 H 0.01626 0.65933 0.61795 0.0
H3375 H 0.14504 0.63393 0.58751 0.0
H3376 H 0.11163 0.61065 0.59363 0.0
H3377 H 0.08314 0.66893 0.61394 0.0
H3378 H 0.1162 0.69254 0.60755 0.0
H3379 H 0.04984 0.6461 0.60211 0.0
H3380 H 0.11363 0.62594 0.6293 0.0
H3381 H 0.15336 0.61312 0.63402 0.0
H3382 H 0.14037 0.54865 0.61501 0.0
H3383 H 0.10065 0.56124 0.61001 0.0
C3384 C 0.98859 0.58324 0.64037 0.0
C3385 C 0.9835 0.5602 0.63711 0.0
C3386 C 0.00676 0.59488 0.63449 0.0
C3387 C 0.02023 0.58377 0.62523 0.0
C3388 C 0.01568 0.56059 0.62217 0.0
C3389 C 0.99734 0.54891 0.62801 0.0
C3390 C 0.039 0.5966 0.61879 0.0
C3391 C 0.06183 0.58915 0.62049 0.0
C3392 C 0.03458 0.61727 0.612 0.0
C3393 C 0.01068 0.62551 0.60959 0.0
C3394 C 0.99438 0.61102 0.60366 0.0
C3395 C 0.97175 0.61868 0.6017 0.0
C3396 C 0.96523 0.64086 0.60556 0.0
C3397 C 0.98136 0.65546 0.61135 0.0
C3398 C 0.00402 0.64789 0.61333 0.0
C3399 C 0.13155 0.64187 0.59317 0.0
C3400 C 0.13336 0.66503 0.59715 0.0
C3401 C 0.11251 0.62851 0.5967 0.0
C3402 C 0.09512 0.63792 0.60445 0.0
C3403 C 0.09641 0.6613 0.60799 0.0
C3404 C 0.11534 0.67476 0.60435 0.0
C3405 C 0.07611 0.62319 0.60934 0.0
C3406 C 0.05321 0.63032 0.60738 0.0
C3407 C 0.08048 0.60236 0.61603 0.0
C3408 C 0.10426 0.59464 0.61916 0.0
C3409 C 0.1193 0.60909 0.62605 0.0
C3410 C 0.14181 0.60186 0.62878 0.0
C3411 C 0.14941 0.58011 0.62478 0.0
C3412 C 0.13448 0.56551 0.61808 0.0
C3413 C 0.11196 0.57268 0.6153 0.0
H3414 H 0.16685 0.57456 0.62689 0.0
H3415 H 0.94768 0.64674 0.60406 0.0
H3416 H 0.1238 0.58512 0.15497 0.0
H3417 H 0.15202 0.61451 0.14854 0.0
H3418 H 0.11232 0.62819 0.11456 0.0
H3419 H 0.08423 0.59894 0.12084 0.0
H3420 H 0.15868 0.62483 0.1096 0.0
H3421 H 0.1081 0.663 0.14023 0.0
H3422 H 0.08988 0.66785 0.16132 0.0
H3423 H 0.15678 0.67315 0.17878 0.0
H3424 H 0.1754 0.66803 0.15779 0.0
H3425 H 0.17302 0.73716 0.08776 0.0
H3426 H 0.16069 0.70044 0.0968 0.0
H3427 H 0.21291 0.70609 0.12599 0.0
H3428 H 0.22546 0.7432 0.11695 0.0
H3429 H 0.16973 0.69563 0.13563 0.0
H3430 H 0.21976 0.66573 0.10401 0.0
H3431 H 0.23749 0.66205 0.08274 0.0
H3432 H 0.17216 0.64151 0.06698 0.0
H3433 H 0.15393 0.6454 0.08812 0.0
C3434 C 0.12112 0.59438 0.14612 0.0
C3435 C 0.10173 0.58978 0.13844 0.0
C3436 C 0.13725 0.61114 0.14247 0.0
C3437 C 0.1342 0.62352 0.13109 0.0
C3438 C 0.11503 0.61874 0.12335 0.0
C3439 C 0.09891 0.6021 0.127 0.0
C3440 C 0.15046 0.64199 0.12724 0.0
C3441 C 0.16114 0.64032 0.11527 0.0
C3442 C 0.15433 0.66178 0.13489 0.0
C3443 C 0.14313 0.66481 0.14748 0.0
C3444 C 0.11892 0.66498 0.14858 0.0
C3445 C 0.10852 0.66783 0.16051 0.0
C3446 C 0.12217 0.67072 0.17139 0.0
C3447 C 0.14624 0.67084 0.17035 0.0
C3448 C 0.15672 0.66797 0.15845 0.0
C3449 C 0.18206 0.73056 0.09604 0.0
C3450 C 0.20018 0.7431 0.10167 0.0
C3451 C 0.17508 0.70947 0.10115 0.0
C3452 C 0.18607 0.70044 0.11197 0.0
C3453 C 0.20434 0.71275 0.11757 0.0
C3454 C 0.21149 0.73387 0.11239 0.0
C3455 C 0.17716 0.67887 0.11774 0.0
C3456 C 0.16787 0.6799 0.13008 0.0
C3457 C 0.17457 0.65848 0.11043 0.0
C3458 C 0.18545 0.65595 0.09767 0.0
C3459 C 0.20913 0.66057 0.096 0.0
C3460 C 0.21928 0.65843 0.08396 0.0
C3461 C 0.20596 0.65157 0.07351 0.0
C3462 C 0.18246 0.64681 0.07509 0.0
C3463 C 0.17222 0.64894 0.08711 0.0
H3464 H 0.21384 0.64993 0.0642 0.0
H3465 H 0.11408 0.67293 0.18062 0.0
H3466 H 0.18622 0.38922 0.88567 0.0
H3467 H 0.15315 0.41164 0.8783 0.0
H3468 H 0.10857 0.37354 0.90378 0.0
H3469 H 0.14152 0.35028 0.91071 0.0
H3470 H 0.08946 0.37493 0.88214 0.0
H3471 H 0.12371 0.43314 0.90822 0.0
H3472 H 0.15482 0.45812 0.9165 0.0
H3473 H 0.16316 0.4887 0.87948 0.0
H3474 H 0.13228 0.46369 0.87094 0.0
H3475 H 0.99163 0.44241 0.86906 0.0
H3476 H 0.02512 0.4293 0.88118 0.0
H3477 H 0.07028 0.45228 0.85104 0.0
H3478 H 0.0368 0.46556 0.83878 0.0
H3479 H 0.08786 0.46007 0.87638 0.0
H3480 H 0.05468 0.39858 0.85062 0.0
H3481 H 0.02241 0.37418 0.8432 0.0
H3482 H 0.01097 0.35043 0.88148 0.0
H3483 H 0.04302 0.37495 0.88914 0.0
C3484 C 0.16943 0.38587 0.88984 0.0
C3485 C 0.16642 0.368 0.89876 0.0
C3486 C 0.15051 0.3988 0.88567 0.0
C3487 C 0.12832 0.39453 0.89058 0.0
C3488 C 0.12548 0.37716 0.89981 0.0
C3489 C 0.14431 0.36391 0.9038 0.0
C3490 C 0.10785 0.40687 0.88538 0.0
C3491 C 0.08902 0.3936 0.88115 0.0
C3492 C 0.10731 0.43121 0.88381 0.0
C3493 C 0.12579 0.4464 0.88892 0.0
C3494 C 0.13228 0.44508 0.90183 0.0
C3495 C 0.14985 0.45927 0.90657 0.0
C3496 C 0.16099 0.47495 0.89851 0.0
C3497 C 0.15452 0.47653 0.88571 0.0
C3498 C 0.13696 0.46238 0.88092 0.0
C3499 C 0.00868 0.44507 0.86507 0.0
C3500 C 0.01153 0.45473 0.85285 0.0
C3501 C 0.02779 0.43756 0.87203 0.0
C3502 C 0.05008 0.43955 0.86691 0.0
C3503 C 0.05317 0.45058 0.85512 0.0
C3504 C 0.03402 0.45806 0.84811 0.0
C3505 C 0.0698 0.42806 0.87325 0.0
C3506 C 0.0884 0.44145 0.87758 0.0
C3507 C 0.07006 0.40385 0.8751 0.0
C3508 C 0.05109 0.38876 0.87047 0.0
C3509 C 0.04519 0.38826 0.85746 0.0
C3510 C 0.02696 0.3744 0.85321 0.0
C3511 C 0.01461 0.36081 0.86187 0.0
C3512 C 0.02053 0.36098 0.87479 0.0
C3513 C 0.03875 0.37484 0.87909 0.0
H3514 H 0.00048 0.35011 0.85856 0.0
H3515 H 0.1746 0.48591 0.9022 0.0
H3516 H 0.3119 0.23783 0.61484 0.0
H3517 H 0.33125 0.27193 0.62341 0.0
H3518 H 0.30125 0.31375 0.59366 0.0
H3519 H 0.28209 0.2796 0.58486 0.0
H3520 H 0.3468 0.32134 0.59586 0.0
H3521 H 0.2821 0.31727 0.62454 0.0
H3522 H 0.25587 0.29846 0.63989 0.0
H3523 H 0.31275 0.2864 0.66532 0.0
H3524 H 0.33939 0.30487 0.65004 0.0
H3525 H 0.37681 0.43112 0.61946 0.0
H3526 H 0.35557 0.39703 0.61247 0.0
H3527 H 0.38605 0.35722 0.64292 0.0
H3528 H 0.4071 0.39155 0.65018 0.0
H3529 H 0.34075 0.34809 0.64069 0.0
H3530 H 0.40544 0.35171 0.61234 0.0
H3531 H 0.43225 0.36992 0.59708 0.0
H3532 H 0.37616 0.38193 0.57111 0.0
H3533 H 0.34894 0.36406 0.5863 0.0
C3534 C 0.30921 0.25431 0.61018 0.0
C3535 C 0.29548 0.25599 0.59914 0.0
C3536 C 0.32023 0.27382 0.61513 0.0
C3537 C 0.31755 0.29541 0.60923 0.0
C3538 C 0.30354 0.29723 0.59835 0.0
C3539 C 0.29255 0.27771 0.59336 0.0
C3540 C 0.3303 0.31587 0.61402 0.0
C3541 C 0.3452 0.32741 0.60561 0.0
C3542 C 0.32879 0.32327 0.62686 0.0
C3543 C 0.31277 0.31227 0.63609 0.0
C3544 C 0.28905 0.31045 0.63336 0.0
C3545 C 0.2741 0.29988 0.64206 0.0
C3546 C 0.28265 0.29119 0.65356 0.0
C3547 C 0.30616 0.29312 0.6564 0.0
C3548 C 0.32119 0.30366 0.64773 0.0
C3549 C 0.37907 0.41513 0.62467 0.0
C3550 C 0.39377 0.414 0.63533 0.0
C3551 C 0.36695 0.39562 0.62064 0.0
C3552 C 0.3695 0.3745 0.62705 0.0
C3553 C 0.3839 0.37335 0.63781 0.0
C3554 C 0.39596 0.39295 0.64191 0.0
C3555 C 0.35706 0.35368 0.62249 0.0
C3556 C 0.3423 0.34202 0.63094 0.0
C3557 C 0.35877 0.34607 0.60969 0.0
C3558 C 0.37512 0.35673 0.60051 0.0
C3559 C 0.39879 0.35838 0.60341 0.0
C3560 C 0.41406 0.36862 0.59477 0.0
C3561 C 0.4059 0.37713 0.58314 0.0
C3562 C 0.38246 0.37536 0.58012 0.0
C3563 C 0.3671 0.36516 0.58874 0.0
H3564 H 0.41776 0.38505 0.57646 0.0
H3565 H 0.27105 0.28301 0.66028 0.0
H3566 H 0.5162 0.53193 0.37731 0.0
H3567 H 0.47801 0.54444 0.38448 0.0
H3568 H 0.45678 0.55339 0.34533 0.0
H3569 H 0.49513 0.54168 0.33814 0.0
H3570 H 0.44643 0.58995 0.35823 0.0
H3571 H 0.43571 0.50872 0.36495 0.0
H3572 H 0.44513 0.46998 0.37326 0.0
H3573 H 0.44066 0.49553 0.41163 0.0
H3574 H 0.43151 0.53451 0.40355 0.0
H3575 H 0.32959 0.61377 0.37004 0.0
H3576 H 0.36357 0.59167 0.36359 0.0
H3577 H 0.38897 0.5932 0.40224 0.0
H3578 H 0.35493 0.61529 0.40883 0.0
H3579 H 0.39626 0.5503 0.38975 0.0
H3580 H 0.4088 0.63175 0.38264 0.0
H3581 H 0.39891 0.67027 0.37417 0.0
H3582 H 0.39971 0.6433 0.33602 0.0
H3583 H 0.40927 0.60452 0.34428 0.0
C3584 C 0.50328 0.53627 0.37023 0.0
C3585 C 0.50869 0.53597 0.35717 0.0
C3586 C 0.48141 0.54331 0.37434 0.0
C3587 C 0.46444 0.54972 0.36544 0.0
C3588 C 0.4696 0.54861 0.35237 0.0
C3589 C 0.49153 0.54189 0.34828 0.0
C3590 C 0.44196 0.55933 0.3697 0.0
C3591 C 0.43531 0.58101 0.36494 0.0
C3592 C 0.4277 0.54804 0.37875 0.0
C3593 C 0.43313 0.52459 0.38364 0.0
C3594 C 0.43691 0.50613 0.37516 0.0
C3595 C 0.44217 0.48411 0.37983 0.0
C3596 C 0.44355 0.48031 0.39296 0.0
C3597 C 0.43961 0.4985 0.40146 0.0
C3598 C 0.43436 0.52056 0.39684 0.0
C3599 C 0.34223 0.60918 0.37722 0.0
C3600 C 0.33972 0.61655 0.38992 0.0
C3601 C 0.36162 0.59654 0.37351 0.0
C3602 C 0.37886 0.59108 0.38241 0.0
C3603 C 0.37584 0.59729 0.39523 0.0
C3604 C 0.35644 0.61 0.39896 0.0
C3605 C 0.40083 0.58061 0.37813 0.0
C3606 C 0.4074 0.55897 0.38294 0.0
C3607 C 0.41504 0.59184 0.36908 0.0
C3608 C 0.40952 0.6152 0.36409 0.0
C3609 C 0.40669 0.634 0.37245 0.0
C3610 C 0.40117 0.65588 0.36769 0.0
C3611 C 0.39862 0.65922 0.35457 0.0
C3612 C 0.40165 0.64068 0.34618 0.0
C3613 C 0.40714 0.61876 0.3509 0.0
H3614 H 0.39434 0.67617 0.3509 0.0
H3615 H 0.44762 0.46326 0.39656 0.0
loop_
_geom_bond_atom_site_label_1
_geom_bond_atom_site_label_2
_geom_bond_distance
_geom_bond_site_symmetry_2
_ccdc_geom_bond_type
C0 O1 1.160 . S
C0 O7 1.185 . S
O1 C0 1.160 . S
O2 Zn3 1.899 . S
O2 C10 1.284 . S
Zn3 O2 1.899 . S
Zn3 O4 2.032 . S
Zn3 O7 2.086 . S
Zn3 O12 1.977 . S
O4 Zn3 2.032 . S
O4 C8 1.278 . S
C5 O6 1.203 . S
C5 O12 1.267 . S
O6 C5 1.203 . S
O7 C0 1.185 . S
O7 Zn3 2.086 . S
C8 O4 1.278 . S
C8 O9 1.211 . S
O9 C8 1.211 . S
C10 O2 1.284 . S
C10 O11 1.273 . S
O11 C10 1.273 . S
O12 Zn3 1.977 . S
O12 C5 1.267 . S
C13 O14 1.160 . S
C13 O20 1.185 . S
O14 C13 1.160 . S
O15 Zn16 1.899 . S
O15 C23 1.284 . S
Zn16 O15 1.899 . S
Zn16 O17 2.032 . S
Zn16 O20 2.086 . S
Zn16 O25 1.977 . S
O17 Zn16 2.032 . S
O17 C21 1.278 . S
C18 O19 1.203 . S
C18 O25 1.267 . S
O19 C18 1.203 . S
O20 C13 1.185 . S
O20 Zn16 2.086 . S
C21 O17 1.278 . S
C21 O22 1.211 . S
O22 C21 1.211 . S
C23 O15 1.284 . S
C23 O24 1.273 . S
O24 C23 1.273 . S
O25 Zn16 1.977 . S
O25 C18 1.267 . S
C26 O27 1.160 . S
C26 O33 1.185 . S
O27 C26 1.160 . S
O28 Zn29 1.899 . S
O28 C36 1.284 . S
Zn29 O28 1.899 . S
Zn29 O30 2.032 . S
Zn29 O33 2.086 . S
Zn29 O38 1.977 . S
O30 Zn29 2.032 . S
O30 C34 1.278 . S
C31 O32 1.203 . S
C31 O38 1.267 . S
O32 C31 1.203 . S
O33 C26 1.185 . S
O33 Zn29 2.086 . S
C34 O30 1.278 . S
C34 O35 1.211 . S
O35 C34 1.211 . S
C36 O28 1.284 . S
C36 O37 1.273 . S
O37 C36 1.273 . S
O38 Zn29 1.977 . S
O38 C31 1.267 . S
C39 O40 1.160 . S
C39 O46 1.185 . S
O40 C39 1.160 . S
O41 Zn42 1.899 . S
O41 C49 1.284 . S
Zn42 O41 1.899 . S
Zn42 O43 2.032 . S
Zn42 O46 2.086 . S
Zn42 O51 1.977 . S
O43 Zn42 2.032 . S
O43 C47 1.278 . S
C44 O45 1.203 . S
C44 O51 1.267 . S
O45 C44 1.203 . S
O46 C39 1.185 . S
O46 Zn42 2.086 . S
C47 O43 1.278 . S
C47 O48 1.211 . S
O48 C47 1.211 . S
C49 O41 1.284 . S
C49 O50 1.273 . S
O50 C49 1.273 . S
O51 Zn42 1.977 . S
O51 C44 1.267 . S
C52 O53 1.160 . S
C52 O59 1.185 . S
O53 C52 1.160 . S
O54 Zn55 1.899 . S
O54 C62 1.284 . S
Zn55 O54 1.899 . S
Zn55 O56 2.032 . S
Zn55 O59 2.086 . S
Zn55 O64 1.977 . S
O56 Zn55 2.032 . S
O56 C60 1.278 . S
C57 O58 1.203 . S
C57 O64 1.267 . S
O58 C57 1.203 . S
O59 C52 1.185 . S
O59 Zn55 2.086 . S
C60 O56 1.278 . S
C60 O61 1.211 . S
O61 C60 1.211 . S
C62 O54 1.284 . S
C62 O63 1.273 . S
O63 C62 1.273 . S
O64 Zn55 1.977 . S
O64 C57 1.267 . S
C65 O66 1.160 . S
C65 O72 1.185 . S
O66 C65 1.160 . S
O67 Zn68 1.899 . S
O67 C75 1.284 . S
Zn68 O67 1.899 . S
Zn68 O69 2.032 . S
Zn68 O72 2.086 . S
Zn68 O77 1.977 . S
O69 Zn68 2.032 . S
O69 C73 1.278 . S
C70 O71 1.203 . S
C70 O77 1.267 . S
O71 C70 1.203 . S
O72 C65 1.185 . S
O72 Zn68 2.086 . S
C73 O69 1.278 . S
C73 O74 1.211 . S
O74 C73 1.211 . S
C75 O67 1.284 . S
C75 O76 1.273 . S
O76 C75 1.273 . S
O77 Zn68 1.977 . S
O77 C70 1.267 . S
C78 O79 1.160 . S
C78 O85 1.185 . S
O79 C78 1.160 . S
O80 Zn81 1.899 . S
O80 C88 1.284 . S
Zn81 O80 1.899 . S
Zn81 O82 2.032 . S
Zn81 O85 2.086 . S
Zn81 O90 1.977 . S
O82 Zn81 2.032 . S
O82 C86 1.278 . S
C83 O84 1.203 . S
C83 O90 1.267 . S
O84 C83 1.203 . S
O85 C78 1.185 . S
O85 Zn81 2.086 . S
C86 O82 1.278 . S
C86 O87 1.211 . S
O87 C86 1.211 . S
C88 O80 1.284 . S
C88 O89 1.273 . S
O89 C88 1.273 . S
O90 Zn81 1.977 . S
O90 C83 1.267 . S
C91 O92 1.160 . S
C91 O98 1.185 . S
O92 C91 1.160 . S
O93 Zn94 1.899 . S
O93 C101 1.284 . S
Zn94 O93 1.899 . S
Zn94 O95 2.032 . S
Zn94 O98 2.086 . S
Zn94 O103 1.977 . S
O95 Zn94 2.032 . S
O95 C99 1.278 . S
C96 O97 1.203 . S
C96 O103 1.267 . S
O97 C96 1.203 . S
O98 C91 1.185 . S
O98 Zn94 2.086 . S
C99 O95 1.278 . S
C99 O100 1.211 . S
O100 C99 1.211 . S
C101 O93 1.284 . S
C101 O102 1.273 . S
O102 C101 1.273 . S
O103 Zn94 1.977 . S
O103 C96 1.267 . S
C104 O105 1.160 . S
C104 O111 1.185 . S
O105 C104 1.160 . S
O106 Zn107 1.899 . S
O106 C114 1.284 . S
Zn107 O106 1.899 . S
Zn107 O108 2.032 . S
Zn107 O111 2.086 . S
Zn107 O116 1.977 . S
O108 Zn107 2.032 . S
O108 C112 1.278 . S
C109 O110 1.203 . S
C109 O116 1.267 . S
O110 C109 1.203 . S
O111 C104 1.185 . S
O111 Zn107 2.086 . S
C112 O108 1.278 . S
C112 O113 1.211 . S
O113 C112 1.211 . S
C114 O106 1.284 . S
C114 O115 1.273 . S
O115 C114 1.273 . S
O116 Zn107 1.977 . S
O116 C109 1.267 . S
C117 O118 1.160 . S
C117 O124 1.185 . S
O118 C117 1.160 . S
O119 Zn120 1.899 . S
O119 C127 1.284 . S
Zn120 O119 1.899 . S
Zn120 O121 2.032 . S
Zn120 O124 2.086 . S
Zn120 O129 1.977 . S
O121 Zn120 2.032 . S
O121 C125 1.278 . S
C122 O123 1.203 . S
C122 O129 1.267 . S
O123 C122 1.203 . S
O124 C117 1.185 . S
O124 Zn120 2.086 . S
C125 O121 1.278 . S
C125 O126 1.211 . S
O126 C125 1.211 . S
C127 O119 1.284 . S
C127 O128 1.273 . S
O128 C127 1.273 . S
O129 Zn120 1.977 . S
O129 C122 1.267 . S
C130 O131 1.160 . S
C130 O137 1.185 . S
O131 C130 1.160 . S
O132 Zn133 1.899 . S
O132 C140 1.284 . S
Zn133 O132 1.899 . S
Zn133 O134 2.032 . S
Zn133 O137 2.086 . S
Zn133 O142 1.977 . S
O134 Zn133 2.032 . S
O134 C138 1.278 . S
C135 O136 1.203 . S
C135 O142 1.267 . S
O136 C135 1.203 . S
O137 C130 1.185 . S
O137 Zn133 2.086 . S
C138 O134 1.278 . S
C138 O139 1.211 . S
O139 C138 1.211 . S
C140 O132 1.284 . S
C140 O141 1.273 . S
O141 C140 1.273 . S
O142 Zn133 1.977 . S
O142 C135 1.267 . S
C143 O144 1.160 . S
C143 O150 1.185 . S
O144 C143 1.160 . S
O145 Zn146 1.899 . S
O145 C153 1.284 . S
Zn146 O145 1.899 . S
Zn146 O147 2.032 . S
Zn146 O150 2.086 . S
Zn146 O155 1.977 . S
O147 Zn146 2.032 . S
O147 C151 1.278 . S
C148 O149 1.203 . S
C148 O155 1.267 . S
O149 C148 1.203 . S
O150 C143 1.185 . S
O150 Zn146 2.086 . S
C151 O147 1.278 . S
C151 O152 1.211 . S
O152 C151 1.211 . S
C153 O145 1.284 . S
C153 O154 1.273 . S
O154 C153 1.273 . S
O155 Zn146 1.977 . S
O155 C148 1.267 . S
C156 O157 1.160 . S
C156 O163 1.185 . S
O157 C156 1.160 . S
O158 Zn159 1.899 . S
O158 C166 1.284 . S
Zn159 O158 1.899 . S
Zn159 O160 2.032 . S
Zn159 O163 2.086 . S
Zn159 O168 1.977 . S
O160 Zn159 2.032 . S
O160 C164 1.278 . S
C161 O162 1.203 . S
C161 O168 1.267 . S
O162 C161 1.203 . S
O163 C156 1.185 . S
O163 Zn159 2.086 . S
C164 O160 1.278 . S
C164 O165 1.211 . S
O165 C164 1.211 . S
C166 O158 1.284 . S
C166 O167 1.273 . S
O167 C166 1.273 . S
O168 Zn159 1.977 . S
O168 C161 1.267 . S
C169 O170 1.160 . S
C169 O176 1.185 . S
O170 C169 1.160 . S
O171 Zn172 1.899 . S
O171 C179 1.284 . S
Zn172 O171 1.899 . S
Zn172 O173 2.032 . S
Zn172 O176 2.086 . S
Zn172 O181 1.977 . S
O173 Zn172 2.032 . S
O173 C177 1.278 . S
C174 O175 1.203 . S
C174 O181 1.267 . S
O175 C174 1.203 . S
O176 C169 1.185 . S
O176 Zn172 2.086 . S
C177 O173 1.278 . S
C177 O178 1.211 . S
O178 C177 1.211 . S
C179 O171 1.284 . S
C179 O180 1.273 . S
O180 C179 1.273 . S
O181 Zn172 1.977 . S
O181 C174 1.267 . S
C182 O183 1.160 . S
C182 O189 1.185 . S
O183 C182 1.160 . S
O184 Zn185 1.899 . S
O184 C192 1.284 . S
Zn185 O184 1.899 . S
Zn185 O186 2.032 . S
Zn185 O189 2.086 . S
Zn185 O194 1.977 . S
O186 Zn185 2.032 . S
O186 C190 1.278 . S
C187 O188 1.203 . S
C187 O194 1.267 . S
O188 C187 1.203 . S
O189 C182 1.185 . S
O189 Zn185 2.086 . S
C190 O186 1.278 . S
C190 O191 1.211 . S
O191 C190 1.211 . S
C192 O184 1.284 . S
C192 O193 1.273 . S
O193 C192 1.273 . S
O194 Zn185 1.977 . S
O194 C187 1.267 . S
C195 O196 1.160 . S
C195 O202 1.185 . S
O196 C195 1.160 . S
O197 Zn198 1.899 . S
O197 C205 1.284 . S
Zn198 O197 1.899 . S
Zn198 O199 2.032 . S
Zn198 O202 2.086 . S
Zn198 O207 1.977 . S
O199 Zn198 2.032 . S
O199 C203 1.278 . S
C200 O201 1.203 . S
C200 O207 1.267 . S
O201 C200 1.203 . S
O202 C195 1.185 . S
O202 Zn198 2.086 . S
C203 O199 1.278 . S
C203 O204 1.211 . S
O204 C203 1.211 . S
C205 O197 1.284 . S
C205 O206 1.273 . S
O206 C205 1.273 . S
O207 Zn198 1.977 . S
O207 C200 1.267 . S
C208 O209 1.160 . S
C208 O215 1.185 . S
O209 C208 1.160 . S
O210 Zn211 1.899 . S
O210 C218 1.284 . S
Zn211 O210 1.899 . S
Zn211 O212 2.032 . S
Zn211 O215 2.086 . S
Zn211 O220 1.977 . S
O212 Zn211 2.032 . S
O212 C216 1.278 . S
C213 O214 1.203 . S
C213 O220 1.267 . S
O214 C213 1.203 . S
O215 C208 1.185 . S
O215 Zn211 2.086 . S
C216 O212 1.278 . S
C216 O217 1.211 . S
O217 C216 1.211 . S
C218 O210 1.284 . S
C218 O219 1.273 . S
O219 C218 1.273 . S
O220 Zn211 1.977 . S
O220 C213 1.267 . S
C221 O222 1.160 . S
C221 O228 1.185 . S
O222 C221 1.160 . S
O223 Zn224 1.899 . S
O223 C231 1.284 . S
Zn224 O223 1.899 . S
Zn224 O225 2.032 . S
Zn224 O228 2.086 . S
Zn224 O233 1.977 . S
O225 Zn224 2.032 . S
O225 C229 1.278 . S
C226 O227 1.203 . S
C226 O233 1.267 . S
O227 C226 1.203 . S
O228 C221 1.185 . S
O228 Zn224 2.086 . S
C229 O225 1.278 . S
C229 O230 1.211 . S
O230 C229 1.211 . S
C231 O223 1.284 . S
C231 O232 1.273 . S
O232 C231 1.273 . S
O233 Zn224 1.977 . S
O233 C226 1.267 . S
C234 O235 1.160 . S
C234 O241 1.185 . S
O235 C234 1.160 . S
O236 Zn237 1.899 . S
O236 C244 1.284 . S
Zn237 O236 1.899 . S
Zn237 O238 2.032 . S
Zn237 O241 2.086 . S
Zn237 O246 1.977 . S
O238 Zn237 2.032 . S
O238 C242 1.278 . S
C239 O240 1.203 . S
C239 O246 1.267 . S
O240 C239 1.203 . S
O241 C234 1.185 . S
O241 Zn237 2.086 . S
C242 O238 1.278 . S
C242 O243 1.211 . S
O243 C242 1.211 . S
C244 O236 1.284 . S
C244 O245 1.273 . S
O245 C244 1.273 . S
O246 Zn237 1.977 . S
O246 C239 1.267 . S
C247 O248 1.160 . S
C247 O254 1.185 . S
O248 C247 1.160 . S
O249 Zn250 1.899 . S
O249 C257 1.284 . S
Zn250 O249 1.899 . S
Zn250 O251 2.032 . S
Zn250 O254 2.086 . S
Zn250 O259 1.977 . S
O251 Zn250 2.032 . S
O251 C255 1.278 . S
C252 O253 1.203 . S
C252 O259 1.267 . S
O253 C252 1.203 . S
O254 C247 1.185 . S
O254 Zn250 2.086 . S
C255 O251 1.278 . S
C255 O256 1.211 . S
O256 C255 1.211 . S
C257 O249 1.284 . S
C257 O258 1.273 . S
O258 C257 1.273 . S
O259 Zn250 1.977 . S
O259 C252 1.267 . S
C260 O261 1.160 . S
C260 O267 1.185 . S
O261 C260 1.160 . S
O262 Zn263 1.899 . S
O262 C270 1.284 . S
Zn263 O262 1.899 . S
Zn263 O264 2.032 . S
Zn263 O267 2.086 . S
Zn263 O272 1.977 . S
O264 Zn263 2.032 . S
O264 C268 1.278 . S
C265 O266 1.203 . S
C265 O272 1.267 . S
O266 C265 1.203 . S
O267 C260 1.185 . S
O267 Zn263 2.086 . S
C268 O264 1.278 . S
C268 O269 1.211 . S
O269 C268 1.211 . S
C270 O262 1.284 . S
C270 O271 1.273 . S
O271 C270 1.273 . S
O272 Zn263 1.977 . S
O272 C265 1.267 . S
C273 O274 1.160 . S
C273 O280 1.185 . S
O274 C273 1.160 . S
O275 Zn276 1.899 . S
O275 C283 1.284 . S
Zn276 O275 1.899 . S
Zn276 O277 2.032 . S
Zn276 O280 2.086 . S
Zn276 O285 1.977 . S
O277 Zn276 2.032 . S
O277 C281 1.278 . S
C278 O279 1.203 . S
C278 O285 1.267 . S
O279 C278 1.203 . S
O280 C273 1.185 . S
O280 Zn276 2.086 . S
C281 O277 1.278 . S
C281 O282 1.211 . S
O282 C281 1.211 . S
C283 O275 1.284 . S
C283 O284 1.273 . S
O284 C283 1.273 . S
O285 Zn276 1.977 . S
O285 C278 1.267 . S
C286 O287 1.160 . S
C286 O293 1.185 . S
O287 C286 1.160 . S
O288 Zn289 1.899 . S
O288 C296 1.284 . S
Zn289 O288 1.899 . S
Zn289 O290 2.032 . S
Zn289 O293 2.086 . S
Zn289 O298 1.977 . S
O290 Zn289 2.032 . S
O290 C294 1.278 . S
C291 O292 1.203 . S
C291 O298 1.267 . S
O292 C291 1.203 . S
O293 C286 1.185 . S
O293 Zn289 2.086 . S
C294 O290 1.278 . S
C294 O295 1.211 . S
O295 C294 1.211 . S
C296 O288 1.284 . S
C296 O297 1.273 . S
O297 C296 1.273 . S
O298 Zn289 1.977 . S
O298 C291 1.267 . S
C299 O300 1.160 . S
C299 O306 1.185 . S
O300 C299 1.160 . S
O301 Zn302 1.899 . S
O301 C309 1.284 . S
Zn302 O301 1.899 . S
Zn302 O303 2.032 . S
Zn302 O306 2.086 . S
Zn302 O311 1.977 . S
O303 Zn302 2.032 . S
O303 C307 1.278 . S
C304 O305 1.203 . S
C304 O311 1.267 . S
O305 C304 1.203 . S
O306 C299 1.185 . S
O306 Zn302 2.086 . S
C307 O303 1.278 . S
C307 O308 1.211 . S
O308 C307 1.211 . S
C309 O301 1.284 . S
C309 O310 1.273 . S
O310 C309 1.273 . S
O311 Zn302 1.977 . S
O311 C304 1.267 . S
C312 O313 1.160 . S
C312 O319 1.185 . S
O313 C312 1.160 . S
O314 Zn315 1.899 . S
O314 C322 1.284 . S
Zn315 O314 1.899 . S
Zn315 O316 2.032 . S
Zn315 O319 2.086 . S
Zn315 O324 1.977 . S
O316 Zn315 2.032 . S
O316 C320 1.278 . S
C317 O318 1.203 . S
C317 O324 1.267 . S
O318 C317 1.203 . S
O319 C312 1.185 . S
O319 Zn315 2.086 . S
C320 O316 1.278 . S
C320 O321 1.211 . S
O321 C320 1.211 . S
C322 O314 1.284 . S
C322 O323 1.273 . S
O323 C322 1.273 . S
O324 Zn315 1.977 . S
O324 C317 1.267 . S
C325 O326 1.160 . S
C325 O332 1.185 . S
O326 C325 1.160 . S
O327 Zn328 1.899 . S
O327 C335 1.284 . S
Zn328 O327 1.899 . S
Zn328 O329 2.032 . S
Zn328 O332 2.086 . S
Zn328 O337 1.977 . S
O329 Zn328 2.032 . S
O329 C333 1.278 . S
C330 O331 1.203 . S
C330 O337 1.267 . S
O331 C330 1.203 . S
O332 C325 1.185 . S
O332 Zn328 2.086 . S
C333 O329 1.278 . S
C333 O334 1.211 . S
O334 C333 1.211 . S
C335 O327 1.284 . S
C335 O336 1.273 . S
O336 C335 1.273 . S
O337 Zn328 1.977 . S
O337 C330 1.267 . S
C338 O339 1.160 . S
C338 O345 1.185 . S
O339 C338 1.160 . S
O340 Zn341 1.899 . S
O340 C348 1.284 . S
Zn341 O340 1.899 . S
Zn341 O342 2.032 . S
Zn341 O345 2.086 . S
Zn341 O350 1.977 . S
O342 Zn341 2.032 . S
O342 C346 1.278 . S
C343 O344 1.203 . S
C343 O350 1.267 . S
O344 C343 1.203 . S
O345 C338 1.185 . S
O345 Zn341 2.086 . S
C346 O342 1.278 . S
C346 O347 1.211 . S
O347 C346 1.211 . S
C348 O340 1.284 . S
C348 O349 1.273 . S
O349 C348 1.273 . S
O350 Zn341 1.977 . S
O350 C343 1.267 . S
C351 O352 1.160 . S
C351 O358 1.185 . S
O352 C351 1.160 . S
O353 Zn354 1.899 . S
O353 C361 1.284 . S
Zn354 O353 1.899 . S
Zn354 O355 2.032 . S
Zn354 O358 2.086 . S
Zn354 O363 1.977 . S
O355 Zn354 2.032 . S
O355 C359 1.278 . S
C356 O357 1.203 . S
C356 O363 1.267 . S
O357 C356 1.203 . S
O358 C351 1.185 . S
O358 Zn354 2.086 . S
C359 O355 1.278 . S
C359 O360 1.211 . S
O360 C359 1.211 . S
C361 O353 1.284 . S
C361 O362 1.273 . S
O362 C361 1.273 . S
O363 Zn354 1.977 . S
O363 C356 1.267 . S
C364 O365 1.160 . S
C364 O371 1.185 . S
O365 C364 1.160 . S
O366 Zn367 1.899 . S
O366 C374 1.284 . S
Zn367 O366 1.899 . S
Zn367 O368 2.032 . S
Zn367 O371 2.086 . S
Zn367 O376 1.977 . S
O368 Zn367 2.032 . S
O368 C372 1.278 . S
C369 O370 1.203 . S
C369 O376 1.267 . S
O370 C369 1.203 . S
O371 C364 1.185 . S
O371 Zn367 2.086 . S
C372 O368 1.278 . S
C372 O373 1.211 . S
O373 C372 1.211 . S
C374 O366 1.284 . S
C374 O375 1.273 . S
O375 C374 1.273 . S
O376 Zn367 1.977 . S
O376 C369 1.267 . S
C377 O378 1.160 . S
C377 O384 1.185 . S
O378 C377 1.160 . S
O379 Zn380 1.899 . S
O379 C387 1.284 . S
Zn380 O379 1.899 . S
Zn380 O381 2.032 . S
Zn380 O384 2.086 . S
Zn380 O389 1.977 . S
O381 Zn380 2.032 . S
O381 C385 1.278 . S
C382 O383 1.203 . S
C382 O389 1.267 . S
O383 C382 1.203 . S
O384 C377 1.185 . S
O384 Zn380 2.086 . S
C385 O381 1.278 . S
C385 O386 1.211 . S
O386 C385 1.211 . S
C387 O379 1.284 . S
C387 O388 1.273 . S
O388 C387 1.273 . S
O389 Zn380 1.977 . S
O389 C382 1.267 . S
C390 O391 1.160 . S
C390 O397 1.185 . S
O391 C390 1.160 . S
O392 Zn393 1.899 . S
O392 C400 1.284 . S
Zn393 O392 1.899 . S
Zn393 O394 2.032 . S
Zn393 O397 2.086 . S
Zn393 O402 1.977 . S
O394 Zn393 2.032 . S
O394 C398 1.278 . S
C395 O396 1.203 . S
C395 O402 1.267 . S
O396 C395 1.203 . S
O397 C390 1.185 . S
O397 Zn393 2.086 . S
C398 O394 1.278 . S
C398 O399 1.211 . S
O399 C398 1.211 . S
C400 O392 1.284 . S
C400 O401 1.273 . S
O401 C400 1.273 . S
O402 Zn393 1.977 . S
O402 C395 1.267 . S
C403 O404 1.160 . S
C403 O410 1.185 . S
O404 C403 1.160 . S
O405 Zn406 1.899 . S
O405 C413 1.284 . S
Zn406 O405 1.899 . S
Zn406 O407 2.032 . S
Zn406 O410 2.086 . S
Zn406 O415 1.977 . S
O407 Zn406 2.032 . S
O407 C411 1.278 . S
C408 O409 1.203 . S
C408 O415 1.267 . S
O409 C408 1.203 . S
O410 C403 1.185 . S
O410 Zn406 2.086 . S
C411 O407 1.278 . S
C411 O412 1.211 . S
O412 C411 1.211 . S
C413 O405 1.284 . S
C413 O414 1.273 . S
O414 C413 1.273 . S
O415 Zn406 1.977 . S
O415 C408 1.267 . S
H416 C434 0.951 . S
H417 C436 0.951 1_545 S
H418 C438 0.950 . S
H419 C439 0.950 . S
H420 C441 0.950 . S
H421 C444 0.950 . S
H422 C445 0.950 . S
H423 C447 0.950 . S
H424 C448 0.950 . S
H425 C449 0.951 . S
H426 C451 0.951 1_565 S
H427 C453 0.950 . S
H428 C454 0.950 . S
H429 C456 0.950 . S
H430 C459 0.950 . S
H431 C460 0.950 . S
H432 C462 0.950 . S
H433 C463 0.950 . S
C434 H416 0.951 . S
C434 C435 1.366 . S
C434 C436 1.388 . S
C435 C434 1.366 . S
C435 C439 1.385 . S
C436 H417 0.951 1_565 S
C436 C434 1.388 . S
C436 C437 1.366 . S
C437 C436 1.366 . S
C437 C438 1.414 . S
C437 C440 1.499 . S
C438 H418 0.950 . S
C438 C437 1.414 . S
C438 C439 1.374 . S
C439 H419 0.950 . S
C439 C435 1.385 . S
C439 C438 1.374 . S
C440 C437 1.499 . S
C440 C441 1.373 . S
C440 C442 1.389 1_565 S
C441 H420 0.950 . S
C441 C440 1.373 . S
C441 C457 1.377 . S
C442 C440 1.389 1_545 S
C442 C443 1.524 . S
C442 C456 1.377 . S
C443 C442 1.524 . S
C443 C444 1.397 . S
C443 C448 1.363 . S
C444 H421 0.950 . S
C444 C443 1.397 . S
C444 C445 1.334 . S
C445 H422 0.950 . S
C445 C444 1.334 . S
C445 C446 1.287 . S
C446 C445 1.287 . S
C446 C447 1.524 . S
C446 H465 0.913 . S
C447 H423 0.950 . S
C447 C446 1.524 . S
C447 C448 1.415 . S
C448 H424 0.950 . S
C448 C443 1.363 . S
C448 C447 1.415 . S
C449 H425 0.951 . S
C449 C450 1.366 . S
C449 C451 1.388 . S
C450 C449 1.366 . S
C450 C454 1.385 . S
C451 H426 0.951 1_545 S
C451 C449 1.388 . S
C451 C452 1.366 . S
C452 C451 1.366 . S
C452 C453 1.414 . S
C452 C455 1.499 . S
C453 H427 0.950 . S
C453 C452 1.414 . S
C453 C454 1.374 . S
C454 H428 0.950 . S
C454 C450 1.385 . S
C454 C453 1.374 . S
C455 C452 1.499 . S
C455 C456 1.373 . S
C455 C457 1.389 1_545 S
C456 H429 0.950 . S
C456 C442 1.377 . S
C456 C455 1.373 . S
C457 C441 1.377 . S
C457 C455 1.389 1_565 S
C457 C458 1.524 . S
C458 C457 1.524 . S
C458 C459 1.397 . S
C458 C463 1.363 . S
C459 H430 0.950 . S
C459 C458 1.397 . S
C459 C460 1.334 . S
C460 H431 0.950 . S
C460 C459 1.334 . S
C460 C461 1.287 . S
C461 C460 1.287 . S
C461 C462 1.524 . S
C461 H464 0.999 . S
C462 H432 0.950 . S
C462 C461 1.524 . S
C462 C463 1.415 . S
C463 H433 0.950 . S
C463 C458 1.363 . S
C463 C462 1.415 . S
H464 C461 0.999 . S
H465 C446 0.913 . S
H466 C484 0.951 . S
H467 C486 0.951 . S
H468 C488 0.950 . S
H469 C489 0.950 . S
H470 C491 0.950 . S
H471 C494 0.950 . S
H472 C495 0.950 . S
H473 C497 0.950 . S
H474 C498 0.950 . S
H475 C499 0.951 . S
H476 C501 0.951 . S
H477 C503 0.950 . S
H478 C504 0.950 . S
H479 C506 0.950 . S
H480 C509 0.950 . S
H481 C510 0.950 . S
H482 C512 0.950 . S
H483 C513 0.950 . S
C484 H466 0.951 . S
C484 C485 1.366 . S
C484 C486 1.388 . S
C485 C484 1.366 . S
C485 C489 1.385 . S
C486 H467 0.951 . S
C486 C484 1.388 . S
C486 C487 1.366 . S
C487 C486 1.366 . S
C487 C488 1.414 . S
C487 C490 1.499 . S
C488 H468 0.950 . S
C488 C487 1.414 . S
C488 C489 1.374 . S
C489 H469 0.950 . S
C489 C485 1.385 . S
C489 C488 1.374 . S
C490 C487 1.499 . S
C490 C491 1.373 . S
C490 C492 1.389 . S
C491 H470 0.950 . S
C491 C490 1.373 . S
C491 C507 1.377 . S
C492 C490 1.389 . S
C492 C493 1.524 . S
C492 C506 1.377 . S
C493 C492 1.524 . S
C493 C494 1.397 . S
C493 C498 1.363 . S
C494 H471 0.950 . S
C494 C493 1.397 . S
C494 C495 1.334 . S
C495 H472 0.950 . S
C495 C494 1.334 . S
C495 C496 1.287 . S
C496 C495 1.287 . S
C496 C497 1.524 . S
C496 H515 0.913 . S
C497 H473 0.950 . S
C497 C496 1.524 . S
C497 C498 1.415 . S
C498 H474 0.950 . S
C498 C493 1.363 . S
C498 C497 1.415 . S
C499 H475 0.951 . S
C499 C500 1.366 . S
C499 C501 1.388 . S
C500 C499 1.366 . S
C500 C504 1.385 . S
C501 H476 0.951 . S
C501 C499 1.388 . S
C501 C502 1.366 . S
C502 C501 1.366 . S
C502 C503 1.414 . S
C502 C505 1.499 . S
C503 H477 0.950 . S
C503 C502 1.414 . S
C503 C504 1.374 . S
C504 H478 0.950 . S
C504 C500 1.385 . S
C504 C503 1.374 . S
C505 C502 1.499 . S
C505 C506 1.373 . S
C505 C507 1.389 . S
C506 H479 0.950 . S
C506 C492 1.377 . S
C506 C505 1.373 . S
C507 C491 1.377 . S
C507 C505 1.389 . S
C507 C508 1.524 . S
C508 C507 1.524 . S
C508 C509 1.397 . S
C508 C513 1.363 . S
C509 H480 0.950 . S
C509 C508 1.397 . S
C509 C510 1.334 . S
C510 H481 0.950 . S
C510 C509 1.334 . S
C510 C511 1.287 . S
C511 C510 1.287 . S
C511 C512 1.524 . S
C511 H514 0.999 . S
C512 H482 0.950 . S
C512 C511 1.524 . S
C512 C513 1.415 . S
C513 H483 0.950 . S
C513 C508 1.363 . S
C513 C512 1.415 . S
H514 C511 0.999 . S
H515 C496 0.913 . S
H516 C534 0.951 . S
H517 C536 0.951 . S
H518 C538 0.940 1_565 S
H519 C539 0.950 1_565 S
H520 C541 0.950 . S
H521 C544 0.936 1_565 S
H522 C545 0.950 1_565 S
H523 C547 0.950 . S
H524 C548 0.950 . S
H525 C549 0.951 . S
H526 C551 0.951 . S
H527 C553 0.939 1_545 S
H528 C554 0.950 1_545 S
H529 C556 0.950 . S
H530 C559 0.936 1_545 S
H531 C560 0.950 1_545 S
H532 C562 0.950 . S
H533 C563 0.950 . S
C534 H516 0.951 . S
C534 C535 1.366 . S
C534 C536 1.388 . S
C535 C534 1.366 . S
C535 C539 1.385 . S
C536 H517 0.951 . S
C536 C534 1.388 . S
C536 C537 1.366 . S
C537 C536 1.366 . S
C537 C538 1.421 . S
C537 C540 1.499 . S
C538 H518 0.940 1_545 S
C538 C537 1.421 . S
C538 C539 1.378 . S
C539 H519 0.950 1_545 S
C539 C535 1.385 . S
C539 C538 1.378 . S
C540 C537 1.499 . S
C540 C541 1.373 1_545 S
C540 C542 1.389 . S
C541 H520 0.950 . S
C541 C540 1.373 1_565 S
C541 C557 1.377 . S
C542 C540 1.389 . S
C542 C543 1.524 . S
C542 C556 1.377 . S
C543 C542 1.524 . S
C543 C544 1.407 . S
C543 C548 1.363 . S
C544 H521 0.936 1_545 S
C544 C543 1.407 . S
C544 C545 1.337 . S
C545 H522 0.950 1_545 S
C545 C544 1.337 . S
C545 C546 1.287 . S
C546 C545 1.287 . S
C546 C547 1.524 . S
C546 H565 0.913 1_455 S
C547 H523 0.950 . S
C547 C546 1.524 . S
C547 C548 1.415 . S
C548 H524 0.950 . S
C548 C543 1.363 . S
C548 C547 1.415 . S
C549 H525 0.951 . S
C549 C550 1.366 . S
C549 C551 1.388 . S
C550 C549 1.366 . S
C550 C554 1.385 . S
C551 H526 0.951 . S
C551 C549 1.388 . S
C551 C552 1.366 . S
C552 C551 1.366 . S
C552 C553 1.421 . S
C552 C555 1.499 . S
C553 H527 0.939 1_565 S
C553 C552 1.421 . S
C553 C554 1.378 . S
C554 H528 0.950 1_565 S
C554 C550 1.385 . S
C554 C553 1.378 . S
C555 C552 1.499 . S
C555 C556 1.373 1_565 S
C555 C557 1.389 . S
C556 H529 0.950 . S
C556 C542 1.377 . S
C556 C555 1.373 1_545 S
C557 C541 1.377 . S
C557 C555 1.389 . S
C557 C558 1.524 . S
C558 C557 1.524 . S
C558 C559 1.407 . S
C558 C563 1.363 . S
C559 H530 0.936 1_565 S
C559 C558 1.407 . S
C559 C560 1.337 . S
C560 H531 0.950 1_565 S
C560 C559 1.337 . S
C560 C561 1.287 . S
C561 C560 1.287 . S
C561 C562 1.524 . S
C561 H564 0.999 . S
C562 H532 0.950 . S
C562 C561 1.524 . S
C562 C563 1.415 . S
C563 H533 0.950 . S
C563 C558 1.363 . S
C563 C562 1.415 . S
H564 C561 0.999 . S
H565 C546 0.913 1_655 S
H566 C584 0.951 . S
H567 C586 0.951 . S
H568 C588 0.950 . S
H569 C589 0.950 . S
H570 C591 0.950 . S
H571 C594 0.950 . S
H572 C595 0.950 . S
H573 C597 0.950 . S
H574 C598 0.950 1_554 S
H575 C599 0.951 . S
H576 C601 0.951 . S
H577 C603 0.950 . S
H578 C604 0.950 . S
H579 C606 0.950 . S
H580 C609 0.950 . S
H581 C610 0.950 . S
H582 C612 0.950 . S
H583 C613 0.950 1_556 S
C584 H566 0.951 . S
C584 C585 1.366 . S
C584 C586 1.388 . S
C585 C584 1.366 . S
C585 C589 1.385 . S
C586 H567 0.951 . S
C586 C584 1.388 . S
C586 C587 1.366 . S
C587 C586 1.366 . S
C587 C588 1.414 . S
C587 C590 1.499 . S
C588 H568 0.950 . S
C588 C587 1.414 . S
C588 C589 1.374 . S
C589 H569 0.950 . S
C589 C585 1.385 . S
C589 C588 1.374 . S
C590 C587 1.499 . S
C590 C591 1.373 . S
C590 C592 1.389 . S
C591 H570 0.950 . S
C591 C590 1.373 . S
C591 C607 1.377 1_556 S
C592 C590 1.389 . S
C592 C593 1.524 . S
C592 C606 1.377 1_556 S
C593 C592 1.524 . S
C593 C594 1.397 . S
C593 C598 1.363 . S
C594 H571 0.950 . S
C594 C593 1.397 . S
C594 C595 1.334 . S
C595 H572 0.950 . S
C595 C594 1.334 . S
C595 C596 1.287 . S
C596 C595 1.287 . S
C596 C597 1.524 . S
C596 H615 0.913 . S
C597 H573 0.950 . S
C597 C596 1.524 . S
C597 C598 1.415 . S
C598 H574 0.950 1_556 S
C598 C593 1.363 . S
C598 C597 1.415 . S
C599 H575 0.951 . S
C599 C600 1.366 . S
C599 C601 1.388 . S
C600 C599 1.366 . S
C600 C604 1.385 . S
C601 H576 0.951 . S
C601 C599 1.388 . S
C601 C602 1.366 . S
C602 C601 1.366 . S
C602 C603 1.414 . S
C602 C605 1.499 . S
C603 H577 0.950 . S
C603 C602 1.414 . S
C603 C604 1.374 . S
C604 H578 0.950 . S
C604 C600 1.385 . S
C604 C603 1.374 . S
C605 C602 1.499 . S
C605 C606 1.373 . S
C605 C607 1.389 . S
C606 H579 0.950 . S
C606 C592 1.377 1_554 S
C606 C605 1.373 . S
C607 C591 1.377 1_554 S
C607 C605 1.389 . S
C607 C608 1.524 . S
C608 C607 1.524 . S
C608 C609 1.397 . S
C608 C613 1.363 . S
C609 H580 0.950 . S
C609 C608 1.397 . S
C609 C610 1.334 . S
C610 H581 0.950 . S
C610 C609 1.334 . S
C610 C611 1.287 . S
C611 C610 1.287 . S
C611 C612 1.524 . S
C611 H614 0.999 . S
C612 H582 0.950 . S
C612 C611 1.524 . S
C612 C613 1.415 . S
C613 H583 0.950 1_554 S
C613 C608 1.363 . S
C613 C612 1.415 . S
H614 C611 0.999 . S
H615 C596 0.913 . S
H616 C634 0.951 1_545 S
H617 C636 0.952 . S
H618 C638 0.950 . S
H619 C639 0.950 . S
H620 C641 0.950 . S
H621 C644 0.950 . S
H622 C645 0.950 . S
H623 C647 0.950 . S
H624 C648 0.950 . S
H625 C649 0.951 1_565 S
H626 C651 0.952 . S
H627 C653 0.950 . S
H628 C654 0.950 . S
H629 C656 0.950 . S
H630 C659 0.950 . S
H631 C660 0.950 . S
H632 C662 0.950 . S
H633 C663 0.950 . S
C634 H616 0.951 1_565 S
C634 C635 1.366 . S
C634 C636 1.387 1_565 S
C635 C634 1.366 . S
C635 C639 1.385 . S
C636 H617 0.952 . S
C636 C634 1.387 1_545 S
C636 C637 1.365 1_545 S
C637 C636 1.365 1_565 S
C637 C638 1.414 . S
C637 C640 1.499 . S
C638 H618 0.950 . S
C638 C637 1.414 . S
C638 C639 1.374 . S
C639 H619 0.950 . S
C639 C635 1.385 . S
C639 C638 1.374 . S
C640 C637 1.499 . S
C640 C641 1.373 . S
C640 C642 1.389 1_565 S
C641 H620 0.950 . S
C641 C640 1.373 . S
C641 C657 1.377 . S
C642 C640 1.389 1_545 S
C642 C643 1.524 . S
C642 C656 1.377 . S
C643 C642 1.524 . S
C643 C644 1.397 . S
C643 C648 1.363 . S
C644 H621 0.950 . S
C644 C643 1.397 . S
C644 C645 1.334 . S
C645 H622 0.950 . S
C645 C644 1.334 . S
C645 C646 1.287 . S
C646 C645 1.287 . S
C646 C647 1.524 . S
C646 H665 0.913 . S
C647 H623 0.950 . S
C647 C646 1.524 . S
C647 C648 1.415 . S
C648 H624 0.950 . S
C648 C643 1.363 . S
C648 C647 1.415 . S
C649 H625 0.951 1_545 S
C649 C650 1.366 . S
C649 C651 1.388 1_545 S
C650 C649 1.366 . S
C650 C654 1.385 . S
C651 H626 0.952 . S
C651 C649 1.388 1_565 S
C651 C652 1.365 1_565 S
C652 C651 1.365 1_545 S
C652 C653 1.414 . S
C652 C655 1.499 . S
C653 H627 0.950 . S
C653 C652 1.414 . S
C653 C654 1.374 . S
C654 H628 0.950 . S
C654 C650 1.385 . S
C654 C653 1.374 . S
C655 C652 1.499 . S
C655 C656 1.373 . S
C655 C657 1.389 1_545 S
C656 H629 0.950 . S
C656 C642 1.377 . S
C656 C655 1.373 . S
C657 C641 1.377 . S
C657 C655 1.389 1_565 S
C657 C658 1.524 . S
C658 C657 1.524 . S
C658 C659 1.397 . S
C658 C663 1.363 . S
C659 H630 0.950 . S
C659 C658 1.397 . S
C659 C660 1.334 . S
C660 H631 0.950 . S
C660 C659 1.334 . S
C660 C661 1.287 . S
C661 C660 1.287 . S
C661 C662 1.524 . S
C661 H664 0.999 . S
C662 H632 0.950 . S
C662 C661 1.524 . S
C662 C663 1.415 . S
C663 H633 0.950 . S
C663 C658 1.363 . S
C663 C662 1.415 . S
H664 C661 0.999 . S
H665 C646 0.913 . S
H666 C684 0.951 . S
H667 C686 0.951 . S
H668 C688 0.950 . S
H669 C689 0.950 . S
H670 C691 0.950 . S
H671 C694 0.950 . S
H672 C695 0.950 . S
H673 C697 0.950 . S
H674 C698 0.950 . S
H675 C699 0.951 . S
H676 C701 0.951 . S
H677 C703 0.950 . S
H678 C704 0.950 . S
H679 C706 0.950 . S
H680 C709 0.950 . S
H681 C710 0.950 . S
H682 C712 0.950 . S
H683 C713 0.950 . S
C684 H666 0.951 . S
C684 C685 1.366 . S
C684 C686 1.388 . S
C685 C684 1.366 . S
C685 C689 1.385 . S
C686 H667 0.951 . S
C686 C684 1.388 . S
C686 C687 1.366 . S
C687 C686 1.366 . S
C687 C688 1.414 . S
C687 C690 1.499 . S
C688 H668 0.950 . S
C688 C687 1.414 . S
C688 C689 1.374 . S
C689 H669 0.950 . S
C689 C685 1.385 . S
C689 C688 1.374 . S
C690 C687 1.499 . S
C690 C691 1.373 . S
C690 C692 1.389 . S
C691 H670 0.950 . S
C691 C690 1.373 . S
C691 C707 1.377 . S
C692 C690 1.389 . S
C692 C693 1.524 . S
C692 C706 1.377 . S
C693 C692 1.524 . S
C693 C694 1.397 . S
C693 C698 1.363 . S
C694 H671 0.950 . S
C694 C693 1.397 . S
C694 C695 1.334 . S
C695 H672 0.950 . S
C695 C694 1.334 . S
C695 C696 1.287 . S
C696 C695 1.287 . S
C696 C697 1.524 . S
C696 H715 0.913 . S
C697 H673 0.950 . S
C697 C696 1.524 . S
C697 C698 1.415 . S
C698 H674 0.950 . S
C698 C693 1.363 . S
C698 C697 1.415 . S
C699 H675 0.951 . S
C699 C700 1.366 . S
C699 C701 1.388 . S
C700 C699 1.366 . S
C700 C704 1.385 . S
C701 H676 0.951 . S
C701 C699 1.388 . S
C701 C702 1.366 . S
C702 C701 1.366 . S
C702 C703 1.414 . S
C702 C705 1.499 . S
C703 H677 0.950 . S
C703 C702 1.414 . S
C703 C704 1.374 . S
C704 H678 0.950 . S
C704 C700 1.385 . S
C704 C703 1.374 . S
C705 C702 1.499 . S
C705 C706 1.373 . S
C705 C707 1.389 . S
C706 H679 0.950 . S
C706 C692 1.377 . S
C706 C705 1.373 . S
C707 C691 1.377 . S
C707 C705 1.389 . S
C707 C708 1.524 . S
C708 C707 1.524 . S
C708 C709 1.397 . S
C708 C713 1.363 . S
C709 H680 0.950 . S
C709 C708 1.397 . S
C709 C710 1.334 . S
C710 H681 0.950 . S
C710 C709 1.334 . S
C710 C711 1.287 . S
C711 C710 1.287 . S
C711 C712 1.524 . S
C711 H714 0.999 . S
C712 H682 0.950 . S
C712 C711 1.524 . S
C712 C713 1.415 . S
C713 H683 0.950 . S
C713 C708 1.363 . S
C713 C712 1.415 . S
H714 C711 0.999 . S
H715 C696 0.913 . S
H716 C734 0.951 . S
H717 C736 0.951 . S
H718 C738 0.950 1_565 S
H719 C739 0.950 . S
H720 C741 0.950 . S
H721 C744 0.950 . S
H722 C745 0.950 . S
H723 C747 0.950 . S
H724 C748 0.950 . S
H725 C749 0.951 . S
H726 C751 0.951 . S
H727 C753 0.950 1_545 S
H728 C754 0.950 . S
H729 C756 0.950 . S
H730 C759 0.950 . S
H731 C760 0.950 . S
H732 C762 0.950 . S
H733 C763 0.950 . S
C734 H716 0.951 . S
C734 C735 1.366 . S
C734 C736 1.388 . S
C735 C734 1.366 . S
C735 C739 1.385 . S
C736 H717 0.951 . S
C736 C734 1.388 . S
C736 C737 1.366 . S
C737 C736 1.366 . S
C737 C738 1.414 . S
C737 C740 1.499 . S
C738 H718 0.950 1_545 S
C738 C737 1.414 . S
C738 C739 1.374 . S
C739 H719 0.950 . S
C739 C735 1.385 . S
C739 C738 1.374 . S
C740 C737 1.499 . S
C740 C741 1.373 1_545 S
C740 C742 1.389 . S
C741 H720 0.950 . S
C741 C740 1.373 1_565 S
C741 C757 1.377 . S
C742 C740 1.389 . S
C742 C743 1.524 . S
C742 C756 1.377 . S
C743 C742 1.524 . S
C743 C744 1.397 . S
C743 C748 1.363 . S
C744 H721 0.950 . S
C744 C743 1.397 . S
C744 C745 1.334 . S
C745 H722 0.950 . S
C745 C744 1.334 . S
C745 C746 1.287 . S
C746 C745 1.287 . S
C746 C747 1.524 . S
C746 H765 0.913 . S
C747 H723 0.950 . S
C747 C746 1.524 . S
C747 C748 1.415 . S
C748 H724 0.950 . S
C748 C743 1.363 . S
C748 C747 1.415 . S
C749 H725 0.951 . S
C749 C750 1.366 . S
C749 C751 1.388 . S
C750 C749 1.366 . S
C750 C754 1.385 . S
C751 H726 0.951 . S
C751 C749 1.388 . S
C751 C752 1.366 . S
C752 C751 1.366 . S
C752 C753 1.414 . S
C752 C755 1.499 . S
C753 H727 0.950 1_565 S
C753 C752 1.414 . S
C753 C754 1.374 . S
C754 H728 0.950 . S
C754 C750 1.385 . S
C754 C753 1.374 . S
C755 C752 1.499 . S
C755 C756 1.373 1_565 S
C755 C757 1.389 . S
C756 H729 0.950 . S
C756 C742 1.377 . S
C756 C755 1.373 1_545 S
C757 C741 1.377 . S
C757 C755 1.389 . S
C757 C758 1.524 . S
C758 C757 1.524 . S
C758 C759 1.397 . S
C758 C763 1.363 . S
C759 H730 0.950 . S
C759 C758 1.397 . S
C759 C760 1.334 . S
C760 H731 0.950 . S
C760 C759 1.334 . S
C760 C761 1.287 . S
C761 C760 1.287 . S
C761 C762 1.524 . S
C761 H764 0.999 . S
C762 H732 0.950 . S
C762 C761 1.524 . S
C762 C763 1.415 . S
C763 H733 0.950 . S
C763 C758 1.363 . S
C763 C762 1.415 . S
H764 C761 0.999 . S
H765 C746 0.913 . S
H766 C784 0.951 . S
H767 C786 0.951 . S
H768 C788 0.950 . S
H769 C789 0.950 . S
H770 C791 0.950 . S
H771 C794 0.950 . S
H772 C795 0.950 . S
H773 C797 0.950 1_554 S
H774 C798 0.954 . S
H775 C799 0.951 . S
H776 C801 0.951 . S
H777 C803 0.950 . S
H778 C804 0.950 . S
H779 C806 0.950 . S
H780 C809 0.950 . S
H781 C810 0.950 . S
H782 C812 0.950 1_556 S
H783 C813 0.954 . S
C784 H766 0.951 . S
C784 C785 1.366 . S
C784 C786 1.388 . S
C785 C784 1.366 . S
C785 C789 1.385 . S
C786 H767 0.951 . S
C786 C784 1.388 . S
C786 C787 1.366 . S
C787 C786 1.366 . S
C787 C788 1.414 . S
C787 C790 1.499 . S
C788 H768 0.950 . S
C788 C787 1.414 . S
C788 C789 1.374 . S
C789 H769 0.950 . S
C789 C785 1.385 . S
C789 C788 1.374 . S
C790 C787 1.499 . S
C790 C791 1.373 . S
C790 C792 1.389 . S
C791 H770 0.950 . S
C791 C790 1.373 . S
C791 C807 1.377 1_556 S
C792 C790 1.389 . S
C792 C793 1.524 . S
C792 C806 1.377 1_556 S
C793 C792 1.524 . S
C793 C794 1.397 . S
C793 C798 1.360 1_556 S
C794 H771 0.950 . S
C794 C793 1.397 . S
C794 C795 1.334 . S
C795 H772 0.950 . S
C795 C794 1.334 . S
C795 C796 1.287 . S
C796 C795 1.287 . S
C796 C797 1.524 . S
C796 H815 0.913 . S
C797 H773 0.950 1_556 S
C797 C796 1.524 . S
C797 C798 1.414 1_556 S
C798 H774 0.954 . S
C798 C793 1.360 1_554 S
C798 C797 1.414 1_554 S
C799 H775 0.951 . S
C799 C800 1.366 . S
C799 C801 1.388 . S
C800 C799 1.366 . S
C800 C804 1.385 . S
C801 H776 0.951 . S
C801 C799 1.388 . S
C801 C802 1.366 . S
C802 C801 1.366 . S
C802 C803 1.414 . S
C802 C805 1.499 . S
C803 H777 0.950 . S
C803 C802 1.414 . S
C803 C804 1.374 . S
C804 H778 0.950 . S
C804 C800 1.385 . S
C804 C803 1.374 . S
C805 C802 1.499 . S
C805 C806 1.373 . S
C805 C807 1.389 . S
C806 H779 0.950 . S
C806 C792 1.377 1_554 S
C806 C805 1.373 . S
C807 C791 1.377 1_554 S
C807 C805 1.389 . S
C807 C808 1.524 . S
C808 C807 1.524 . S
C808 C809 1.397 . S
C808 C813 1.360 1_554 S
C809 H780 0.950 . S
C809 C808 1.397 . S
C809 C810 1.334 . S
C810 H781 0.950 . S
C810 C809 1.334 . S
C810 C811 1.287 . S
C811 C810 1.287 . S
C811 C812 1.524 . S
C811 H814 0.999 . S
C812 H782 0.950 1_554 S
C812 C811 1.524 . S
C812 C813 1.414 1_554 S
C813 H783 0.954 . S
C813 C808 1.360 1_556 S
C813 C812 1.414 1_556 S
H814 C811 0.999 . S
H815 C796 0.913 . S
H816 C834 0.951 . S
H817 C836 0.951 . S
H818 C838 0.950 . S
H819 C839 0.950 . S
H820 C841 0.950 . S
H821 C844 0.950 . S
H822 C845 0.950 . S
H823 C847 0.950 . S
H824 C848 0.950 . S
H825 C849 0.951 . S
H826 C851 0.951 . S
H827 C853 0.950 . S
H828 C854 0.950 . S
H829 C856 0.950 . S
H830 C859 0.950 . S
H831 C860 0.950 . S
H832 C862 0.950 . S
H833 C863 0.950 . S
C834 H816 0.951 . S
C834 C835 1.366 . S
C834 C836 1.388 . S
C835 C834 1.366 . S
C835 C839 1.385 . S
C836 H817 0.951 . S
C836 C834 1.388 . S
C836 C837 1.366 . S
C837 C836 1.366 . S
C837 C838 1.414 . S
C837 C840 1.499 . S
C838 H818 0.950 . S
C838 C837 1.414 . S
C838 C839 1.374 . S
C839 H819 0.950 . S
C839 C835 1.385 . S
C839 C838 1.374 . S
C840 C837 1.499 . S
C840 C841 1.373 . S
C840 C842 1.389 . S
C841 H820 0.950 . S
C841 C840 1.373 . S
C841 C857 1.377 . S
C842 C840 1.389 . S
C842 C843 1.524 . S
C842 C856 1.377 . S
C843 C842 1.524 . S
C843 C844 1.397 . S
C843 C848 1.363 . S
C844 H821 0.950 . S
C844 C843 1.397 . S
C844 C845 1.334 . S
C845 H822 0.950 . S
C845 C844 1.334 . S
C845 C846 1.287 . S
C846 C845 1.287 . S
C846 C847 1.524 . S
C846 H865 0.913 . S
C847 H823 0.950 . S
C847 C846 1.524 . S
C847 C848 1.415 . S
C848 H824 0.950 . S
C848 C843 1.363 . S
C848 C847 1.415 . S
C849 H825 0.951 . S
C849 C850 1.366 . S
C849 C851 1.388 . S
C850 C849 1.366 . S
C850 C854 1.385 . S
C851 H826 0.951 . S
C851 C849 1.388 . S
C851 C852 1.366 . S
C852 C851 1.366 . S
C852 C853 1.414 . S
C852 C855 1.499 . S
C853 H827 0.950 . S
C853 C852 1.414 . S
C853 C854 1.374 . S
C854 H828 0.950 . S
C854 C850 1.385 . S
C854 C853 1.374 . S
C855 C852 1.499 . S
C855 C856 1.373 . S
C855 C857 1.389 . S
C856 H829 0.950 . S
C856 C842 1.377 . S
C856 C855 1.373 . S
C857 C841 1.377 . S
C857 C855 1.389 . S
C857 C858 1.524 . S
C858 C857 1.524 . S
C858 C859 1.397 . S
C858 C863 1.363 . S
C859 H830 0.950 . S
C859 C858 1.397 . S
C859 C860 1.334 . S
C860 H831 0.950 . S
C860 C859 1.334 . S
C860 C861 1.287 . S
C861 C860 1.287 . S
C861 C862 1.524 . S
C861 H864 0.999 . S
C862 H832 0.950 . S
C862 C861 1.524 . S
C862 C863 1.415 . S
C863 H833 0.950 . S
C863 C858 1.363 . S
C863 C862 1.415 . S
H864 C861 0.999 . S
H865 C846 0.913 . S
H866 C884 0.951 . S
H867 C886 0.951 . S
H868 C888 0.950 . S
H869 C889 0.950 . S
H870 C891 0.950 . S
H871 C894 0.950 . S
H872 C895 0.950 . S
H873 C897 0.950 . S
H874 C898 0.950 . S
H875 C899 0.951 . S
H876 C901 0.951 . S
H877 C903 0.950 . S
H878 C904 0.950 . S
H879 C906 0.950 . S
H880 C909 0.950 . S
H881 C910 0.950 . S
H882 C912 0.950 . S
H883 C913 0.950 . S
C884 H866 0.951 . S
C884 C885 1.366 . S
C884 C886 1.388 . S
C885 C884 1.366 . S
C885 C889 1.385 . S
C886 H867 0.951 . S
C886 C884 1.388 . S
C886 C887 1.366 . S
C887 C886 1.366 . S
C887 C888 1.414 . S
C887 C890 1.499 . S
C888 H868 0.950 . S
C888 C887 1.414 . S
C888 C889 1.374 . S
C889 H869 0.950 . S
C889 C885 1.385 . S
C889 C888 1.374 . S
C890 C887 1.499 . S
C890 C891 1.373 . S
C890 C892 1.389 . S
C891 H870 0.950 . S
C891 C890 1.373 . S
C891 C907 1.377 1_554 S
C892 C890 1.389 . S
C892 C893 1.524 . S
C892 C906 1.377 1_554 S
C893 C892 1.524 . S
C893 C894 1.397 . S
C893 C898 1.363 . S
C894 H871 0.950 . S
C894 C893 1.397 . S
C894 C895 1.334 . S
C895 H872 0.950 . S
C895 C894 1.334 . S
C895 C896 1.287 . S
C896 C895 1.287 . S
C896 C897 1.524 . S
C896 H915 0.913 . S
C897 H873 0.950 . S
C897 C896 1.524 . S
C897 C898 1.415 . S
C898 H874 0.950 . S
C898 C893 1.363 . S
C898 C897 1.415 . S
C899 H875 0.951 . S
C899 C900 1.366 . S
C899 C901 1.388 . S
C900 C899 1.366 . S
C900 C904 1.385 . S
C901 H876 0.951 . S
C901 C899 1.388 . S
C901 C902 1.366 . S
C902 C901 1.366 . S
C902 C903 1.414 . S
C902 C905 1.499 . S
C903 H877 0.950 . S
C903 C902 1.414 . S
C903 C904 1.374 . S
C904 H878 0.950 . S
C904 C900 1.385 . S
C904 C903 1.374 . S
C905 C902 1.499 . S
C905 C906 1.373 . S
C905 C907 1.389 . S
C906 H879 0.950 . S
C906 C892 1.377 1_556 S
C906 C905 1.373 . S
C907 C891 1.377 1_556 S
C907 C905 1.389 . S
C907 C908 1.524 . S
C908 C907 1.524 . S
C908 C909 1.397 . S
C908 C913 1.363 . S
C909 H880 0.950 . S
C909 C908 1.397 . S
C909 C910 1.334 . S
C910 H881 0.950 . S
C910 C909 1.334 . S
C910 C911 1.287 . S
C911 C910 1.287 . S
C911 C912 1.524 . S
C911 H914 0.999 . S
C912 H882 0.950 . S
C912 C911 1.524 . S
C912 C913 1.415 . S
C913 H883 0.950 . S
C913 C908 1.363 . S
C913 C912 1.415 . S
H914 C911 0.999 . S
H915 C896 0.913 . S
H916 C934 0.951 . S
H917 C936 0.951 . S
H918 C938 0.950 . S
H919 C939 0.950 . S
H920 C941 0.950 . S
H921 C944 0.950 . S
H922 C945 0.950 . S
H923 C947 0.950 . S
H924 C948 0.950 . S
H925 C949 0.951 . S
H926 C951 0.951 . S
H927 C953 0.950 . S
H928 C954 0.950 . S
H929 C956 0.950 . S
H930 C959 0.950 . S
H931 C960 0.950 . S
H932 C962 0.950 . S
H933 C963 0.950 . S
C934 H916 0.951 . S
C934 C935 1.366 . S
C934 C936 1.388 . S
C935 C934 1.366 . S
C935 C939 1.385 . S
C936 H917 0.951 . S
C936 C934 1.388 . S
C936 C937 1.366 . S
C937 C936 1.366 . S
C937 C938 1.414 . S
C937 C940 1.499 . S
C938 H918 0.950 . S
C938 C937 1.414 . S
C938 C939 1.374 . S
C939 H919 0.950 . S
C939 C935 1.385 . S
C939 C938 1.374 . S
C940 C937 1.499 . S
C940 C941 1.373 . S
C940 C942 1.389 . S
C941 H920 0.950 . S
C941 C940 1.373 . S
C941 C957 1.377 . S
C942 C940 1.389 . S
C942 C943 1.524 . S
C942 C956 1.377 . S
C943 C942 1.524 . S
C943 C944 1.397 . S
C943 C948 1.363 . S
C944 H921 0.950 . S
C944 C943 1.397 . S
C944 C945 1.334 . S
C945 H922 0.950 . S
C945 C944 1.334 . S
C945 C946 1.287 . S
C946 C945 1.287 . S
C946 C947 1.524 . S
C946 H965 0.913 . S
C947 H923 0.950 . S
C947 C946 1.524 . S
C947 C948 1.415 . S
C948 H924 0.950 . S
C948 C943 1.363 . S
C948 C947 1.415 . S
C949 H925 0.951 . S
C949 C950 1.366 . S
C949 C951 1.388 . S
C950 C949 1.366 . S
C950 C954 1.385 . S
C951 H926 0.951 . S
C951 C949 1.388 . S
C951 C952 1.366 . S
C952 C951 1.366 . S
C952 C953 1.414 . S
C952 C955 1.499 . S
C953 H927 0.950 . S
C953 C952 1.414 . S
C953 C954 1.374 . S
C954 H928 0.950 . S
C954 C950 1.385 . S
C954 C953 1.374 . S
C955 C952 1.499 . S
C955 C956 1.373 . S
C955 C957 1.389 . S
C956 H929 0.950 . S
C956 C942 1.377 . S
C956 C955 1.373 . S
C957 C941 1.377 . S
C957 C955 1.389 . S
C957 C958 1.524 . S
C958 C957 1.524 . S
C958 C959 1.397 . S
C958 C963 1.363 . S
C959 H930 0.950 . S
C959 C958 1.397 . S
C959 C960 1.334 . S
C960 H931 0.950 . S
C960 C959 1.334 . S
C960 C961 1.287 . S
C961 C960 1.287 . S
C961 C962 1.524 . S
C961 H964 0.999 . S
C962 H932 0.950 . S
C962 C961 1.524 . S
C962 C963 1.415 . S
C963 H933 0.950 . S
C963 C958 1.363 . S
C963 C962 1.415 . S
H964 C961 0.999 . S
H965 C946 0.913 . S
H966 C984 0.951 . S
H967 C986 0.951 . S
H968 C988 0.950 . S
H969 C989 0.950 . S
H970 C991 0.950 . S
H971 C994 0.950 . S
H972 C995 0.950 . S
H973 C997 0.950 . S
H974 C998 0.950 . S
H975 C999 0.951 . S
H976 C1001 0.951 . S
H977 C1003 0.950 . S
H978 C1004 0.950 . S
H979 C1006 0.950 . S
H980 C1009 0.950 . S
H981 C1010 0.950 . S
H982 C1012 0.950 . S
H983 C1013 0.950 . S
C984 H966 0.951 . S
C984 C985 1.366 . S
C984 C986 1.388 . S
C985 C984 1.366 . S
C985 C989 1.385 . S
C986 H967 0.951 . S
C986 C984 1.388 . S
C986 C987 1.366 . S
C987 C986 1.366 . S
C987 C988 1.414 . S
C987 C990 1.499 . S
C988 H968 0.950 . S
C988 C987 1.414 . S
C988 C989 1.374 . S
C989 H969 0.950 . S
C989 C985 1.385 . S
C989 C988 1.374 . S
C990 C987 1.499 . S
C990 C991 1.373 . S
C990 C992 1.389 . S
C991 H970 0.950 . S
C991 C990 1.373 . S
C991 C1007 1.377 . S
C992 C990 1.389 . S
C992 C993 1.524 . S
C992 C1006 1.377 . S
C993 C992 1.524 . S
C993 C994 1.397 . S
C993 C998 1.363 . S
C994 H971 0.950 . S
C994 C993 1.397 . S
C994 C995 1.334 . S
C995 H972 0.950 . S
C995 C994 1.334 . S
C995 C996 1.287 . S
C996 C995 1.287 . S
C996 C997 1.524 . S
C996 H1015 0.913 . S
C997 H973 0.950 . S
C997 C996 1.524 . S
C997 C998 1.415 . S
C998 H974 0.950 . S
C998 C993 1.363 . S
C998 C997 1.415 . S
C999 H975 0.951 . S
C999 C1000 1.366 . S
C999 C1001 1.388 . S
C1000 C999 1.366 . S
C1000 C1004 1.385 . S
C1001 H976 0.951 . S
C1001 C999 1.388 . S
C1001 C1002 1.366 . S
C1002 C1001 1.366 . S
C1002 C1003 1.414 . S
C1002 C1005 1.499 . S
C1003 H977 0.950 . S
C1003 C1002 1.414 . S
C1003 C1004 1.374 . S
C1004 H978 0.950 . S
C1004 C1000 1.385 . S
C1004 C1003 1.374 . S
C1005 C1002 1.499 . S
C1005 C1006 1.373 . S
C1005 C1007 1.389 . S
C1006 H979 0.950 . S
C1006 C992 1.377 . S
C1006 C1005 1.373 . S
C1007 C991 1.377 . S
C1007 C1005 1.389 . S
C1007 C1008 1.524 . S
C1008 C1007 1.524 . S
C1008 C1009 1.397 . S
C1008 C1013 1.363 . S
C1009 H980 0.950 . S
C1009 C1008 1.397 . S
C1009 C1010 1.334 . S
C1010 H981 0.950 . S
C1010 C1009 1.334 . S
C1010 C1011 1.287 . S
C1011 C1010 1.287 . S
C1011 C1012 1.524 . S
C1011 H1014 0.999 . S
C1012 H982 0.950 . S
C1012 C1011 1.524 . S
C1012 C1013 1.415 . S
C1013 H983 0.950 . S
C1013 C1008 1.363 . S
C1013 C1012 1.415 . S
H1014 C1011 0.999 . S
H1015 C996 0.913 . S
H1016 C1034 0.951 . S
H1017 C1036 0.951 . S
H1018 C1038 0.950 . S
H1019 C1039 0.950 . S
H1020 C1041 0.950 . S
H1021 C1044 0.950 . S
H1022 C1045 0.950 . S
H1023 C1047 0.950 . S
H1024 C1048 0.950 . S
H1025 C1049 0.951 . S
H1026 C1051 0.951 . S
H1027 C1053 0.950 . S
H1028 C1054 0.950 . S
H1029 C1056 0.950 . S
H1030 C1059 0.950 . S
H1031 C1060 0.950 . S
H1032 C1062 0.950 . S
H1033 C1063 0.950 . S
C1034 H1016 0.951 . S
C1034 C1035 1.366 . S
C1034 C1036 1.388 . S
C1035 C1034 1.366 . S
C1035 C1039 1.385 . S
C1036 H1017 0.951 . S
C1036 C1034 1.388 . S
C1036 C1037 1.366 . S
C1037 C1036 1.366 . S
C1037 C1038 1.414 . S
C1037 C1040 1.499 . S
C1038 H1018 0.950 . S
C1038 C1037 1.414 . S
C1038 C1039 1.374 . S
C1039 H1019 0.950 . S
C1039 C1035 1.385 . S
C1039 C1038 1.374 . S
C1040 C1037 1.499 . S
C1040 C1041 1.373 . S
C1040 C1042 1.389 . S
C1041 H1020 0.950 . S
C1041 C1040 1.373 . S
C1041 C1057 1.377 . S
C1042 C1040 1.389 . S
C1042 C1043 1.524 . S
C1042 C1056 1.377 . S
C1043 C1042 1.524 . S
C1043 C1044 1.397 . S
C1043 C1048 1.363 . S
C1044 H1021 0.950 . S
C1044 C1043 1.397 . S
C1044 C1045 1.334 . S
C1045 H1022 0.950 . S
C1045 C1044 1.334 . S
C1045 C1046 1.287 . S
C1046 C1045 1.287 . S
C1046 C1047 1.524 . S
C1046 H1065 0.913 . S
C1047 H1023 0.950 . S
C1047 C1046 1.524 . S
C1047 C1048 1.415 . S
C1048 H1024 0.950 . S
C1048 C1043 1.363 . S
C1048 C1047 1.415 . S
C1049 H1025 0.951 . S
C1049 C1050 1.366 . S
C1049 C1051 1.388 . S
C1050 C1049 1.366 . S
C1050 C1054 1.385 . S
C1051 H1026 0.951 . S
C1051 C1049 1.388 . S
C1051 C1052 1.366 . S
C1052 C1051 1.366 . S
C1052 C1053 1.414 . S
C1052 C1055 1.499 . S
C1053 H1027 0.950 . S
C1053 C1052 1.414 . S
C1053 C1054 1.374 . S
C1054 H1028 0.950 . S
C1054 C1050 1.385 . S
C1054 C1053 1.374 . S
C1055 C1052 1.499 . S
C1055 C1056 1.373 . S
C1055 C1057 1.389 . S
C1056 H1029 0.950 . S
C1056 C1042 1.377 . S
C1056 C1055 1.373 . S
C1057 C1041 1.377 . S
C1057 C1055 1.389 . S
C1057 C1058 1.524 . S
C1058 C1057 1.524 . S
C1058 C1059 1.397 . S
C1058 C1063 1.363 . S
C1059 H1030 0.950 . S
C1059 C1058 1.397 . S
C1059 C1060 1.334 . S
C1060 H1031 0.950 . S
C1060 C1059 1.334 . S
C1060 C1061 1.287 . S
C1061 C1060 1.287 . S
C1061 C1062 1.524 . S
C1061 H1064 0.999 . S
C1062 H1032 0.950 . S
C1062 C1061 1.524 . S
C1062 C1063 1.415 . S
C1063 H1033 0.950 . S
C1063 C1058 1.363 . S
C1063 C1062 1.415 . S
H1064 C1061 0.999 . S
H1065 C1046 0.913 . S
H1066 C1084 0.951 . S
H1067 C1086 0.951 . S
H1068 C1088 0.950 . S
H1069 C1089 0.950 . S
H1070 C1091 0.950 . S
H1071 C1094 0.950 . S
H1072 C1095 0.950 . S
H1073 C1097 0.950 . S
H1074 C1098 0.950 1_556 S
H1075 C1099 0.951 . S
H1076 C1101 0.951 . S
H1077 C1103 0.950 . S
H1078 C1104 0.950 . S
H1079 C1106 0.950 . S
H1080 C1109 0.950 . S
H1081 C1110 0.950 . S
H1082 C1112 0.950 . S
H1083 C1113 0.950 1_554 S
C1084 H1066 0.951 . S
C1084 C1085 1.366 . S
C1084 C1086 1.388 . S
C1085 C1084 1.366 . S
C1085 C1089 1.385 . S
C1086 H1067 0.951 . S
C1086 C1084 1.388 . S
C1086 C1087 1.366 . S
C1087 C1086 1.366 . S
C1087 C1088 1.414 . S
C1087 C1090 1.499 . S
C1088 H1068 0.950 . S
C1088 C1087 1.414 . S
C1088 C1089 1.374 . S
C1089 H1069 0.950 . S
C1089 C1085 1.385 . S
C1089 C1088 1.374 . S
C1090 C1087 1.499 . S
C1090 C1091 1.373 . S
C1090 C1092 1.389 . S
C1091 H1070 0.950 . S
C1091 C1090 1.373 . S
C1091 C1107 1.377 1_554 S
C1092 C1090 1.389 . S
C1092 C1093 1.524 . S
C1092 C1106 1.377 1_554 S
C1093 C1092 1.524 . S
C1093 C1094 1.397 . S
C1093 C1098 1.363 . S
C1094 H1071 0.950 . S
C1094 C1093 1.397 . S
C1094 C1095 1.334 . S
C1095 H1072 0.950 . S
C1095 C1094 1.334 . S
C1095 C1096 1.287 . S
C1096 C1095 1.287 . S
C1096 C1097 1.524 . S
C1096 H1115 0.913 . S
C1097 H1073 0.950 . S
C1097 C1096 1.524 . S
C1097 C1098 1.415 . S
C1098 H1074 0.950 1_554 S
C1098 C1093 1.363 . S
C1098 C1097 1.415 . S
C1099 H1075 0.951 . S
C1099 C1100 1.366 . S
C1099 C1101 1.388 . S
C1100 C1099 1.366 . S
C1100 C1104 1.385 . S
C1101 H1076 0.951 . S
C1101 C1099 1.388 . S
C1101 C1102 1.366 . S
C1102 C1101 1.366 . S
C1102 C1103 1.414 . S
C1102 C1105 1.499 . S
C1103 H1077 0.950 . S
C1103 C1102 1.414 . S
C1103 C1104 1.374 . S
C1104 H1078 0.950 . S
C1104 C1100 1.385 . S
C1104 C1103 1.374 . S
C1105 C1102 1.499 . S
C1105 C1106 1.373 . S
C1105 C1107 1.389 . S
C1106 H1079 0.950 . S
C1106 C1092 1.377 1_556 S
C1106 C1105 1.373 . S
C1107 C1091 1.377 1_556 S
C1107 C1105 1.389 . S
C1107 C1108 1.524 . S
C1108 C1107 1.524 . S
C1108 C1109 1.397 . S
C1108 C1113 1.363 . S
C1109 H1080 0.950 . S
C1109 C1108 1.397 . S
C1109 C1110 1.334 . S
C1110 H1081 0.950 . S
C1110 C1109 1.334 . S
C1110 C1111 1.287 . S
C1111 C1110 1.287 . S
C1111 C1112 1.524 . S
C1111 H1114 0.999 . S
C1112 H1082 0.950 . S
C1112 C1111 1.524 . S
C1112 C1113 1.415 . S
C1113 H1083 0.950 1_556 S
C1113 C1108 1.363 . S
C1113 C1112 1.415 . S
H1114 C1111 0.999 . S
H1115 C1096 0.913 . S
H1116 C1134 0.951 . S
H1117 C1136 0.951 . S
H1118 C1138 0.950 . S
H1119 C1139 0.950 . S
H1120 C1141 0.950 . S
H1121 C1144 0.950 . S
H1122 C1145 0.950 . S
H1123 C1147 0.950 . S
H1124 C1148 0.950 . S
H1125 C1149 0.951 . S
H1126 C1151 0.951 . S
H1127 C1153 0.950 . S
H1128 C1154 0.950 . S
H1129 C1156 0.950 . S
H1130 C1159 0.950 . S
H1131 C1160 0.950 . S
H1132 C1162 0.950 . S
H1133 C1163 0.950 . S
C1134 H1116 0.951 . S
C1134 C1135 1.366 . S
C1134 C1136 1.388 . S
C1135 C1134 1.366 . S
C1135 C1139 1.385 . S
C1136 H1117 0.951 . S
C1136 C1134 1.388 . S
C1136 C1137 1.366 . S
C1137 C1136 1.366 . S
C1137 C1138 1.414 . S
C1137 C1140 1.499 . S
C1138 H1118 0.950 . S
C1138 C1137 1.414 . S
C1138 C1139 1.374 . S
C1139 H1119 0.950 . S
C1139 C1135 1.385 . S
C1139 C1138 1.374 . S
C1140 C1137 1.499 . S
C1140 C1141 1.373 . S
C1140 C1142 1.389 . S
C1141 H1120 0.950 . S
C1141 C1140 1.373 . S
C1141 C1157 1.377 . S
C1142 C1140 1.389 . S
C1142 C1143 1.524 . S
C1142 C1156 1.377 . S
C1143 C1142 1.524 . S
C1143 C1144 1.397 . S
C1143 C1148 1.363 . S
C1144 H1121 0.950 . S
C1144 C1143 1.397 . S
C1144 C1145 1.334 . S
C1145 H1122 0.950 . S
C1145 C1144 1.334 . S
C1145 C1146 1.287 . S
C1146 C1145 1.287 . S
C1146 C1147 1.524 . S
C1146 H1165 0.913 . S
C1147 H1123 0.950 . S
C1147 C1146 1.524 . S
C1147 C1148 1.415 . S
C1148 H1124 0.950 . S
C1148 C1143 1.363 . S
C1148 C1147 1.415 . S
C1149 H1125 0.951 . S
C1149 C1150 1.366 . S
C1149 C1151 1.388 . S
C1150 C1149 1.366 . S
C1150 C1154 1.385 . S
C1151 H1126 0.951 . S
C1151 C1149 1.388 . S
C1151 C1152 1.366 . S
C1152 C1151 1.366 . S
C1152 C1153 1.414 . S
C1152 C1155 1.499 . S
C1153 H1127 0.950 . S
C1153 C1152 1.414 . S
C1153 C1154 1.374 . S
C1154 H1128 0.950 . S
C1154 C1150 1.385 . S
C1154 C1153 1.374 . S
C1155 C1152 1.499 . S
C1155 C1156 1.373 . S
C1155 C1157 1.389 . S
C1156 H1129 0.950 . S
C1156 C1142 1.377 . S
C1156 C1155 1.373 . S
C1157 C1141 1.377 . S
C1157 C1155 1.389 . S
C1157 C1158 1.524 . S
C1158 C1157 1.524 . S
C1158 C1159 1.397 . S
C1158 C1163 1.363 . S
C1159 H1130 0.950 . S
C1159 C1158 1.397 . S
C1159 C1160 1.334 . S
C1160 H1131 0.950 . S
C1160 C1159 1.334 . S
C1160 C1161 1.287 . S
C1161 C1160 1.287 . S
C1161 C1162 1.524 . S
C1161 H1164 0.999 . S
C1162 H1132 0.950 . S
C1162 C1161 1.524 . S
C1162 C1163 1.415 . S
C1163 H1133 0.950 . S
C1163 C1158 1.363 . S
C1163 C1162 1.415 . S
H1164 C1161 0.999 . S
H1165 C1146 0.913 . S
H1166 C1184 0.951 . S
H1167 C1186 0.951 . S
H1168 C1188 0.950 . S
H1169 C1189 0.950 . S
H1170 C1191 0.950 . S
H1171 C1194 0.950 . S
H1172 C1195 0.950 . S
H1173 C1197 0.950 . S
H1174 C1198 0.950 . S
H1175 C1199 0.951 . S
H1176 C1201 0.951 . S
H1177 C1203 0.950 . S
H1178 C1204 0.950 . S
H1179 C1206 0.950 . S
H1180 C1209 0.950 . S
H1181 C1210 0.950 . S
H1182 C1212 0.950 . S
H1183 C1213 0.950 . S
C1184 H1166 0.951 . S
C1184 C1185 1.366 . S
C1184 C1186 1.388 . S
C1185 C1184 1.366 . S
C1185 C1189 1.385 . S
C1186 H1167 0.951 . S
C1186 C1184 1.388 . S
C1186 C1187 1.366 . S
C1187 C1186 1.366 . S
C1187 C1188 1.414 . S
C1187 C1190 1.499 . S
C1188 H1168 0.950 . S
C1188 C1187 1.414 . S
C1188 C1189 1.374 . S
C1189 H1169 0.950 . S
C1189 C1185 1.385 . S
C1189 C1188 1.374 . S
C1190 C1187 1.499 . S
C1190 C1191 1.373 . S
C1190 C1192 1.389 . S
C1191 H1170 0.950 . S
C1191 C1190 1.373 . S
C1191 C1207 1.377 . S
C1192 C1190 1.389 . S
C1192 C1193 1.524 . S
C1192 C1206 1.377 . S
C1193 C1192 1.524 . S
C1193 C1194 1.397 . S
C1193 C1198 1.363 . S
C1194 H1171 0.950 . S
C1194 C1193 1.397 . S
C1194 C1195 1.334 . S
C1195 H1172 0.950 . S
C1195 C1194 1.334 . S
C1195 C1196 1.287 . S
C1196 C1195 1.287 . S
C1196 C1197 1.524 . S
C1196 H1215 0.913 . S
C1197 H1173 0.950 . S
C1197 C1196 1.524 . S
C1197 C1198 1.415 . S
C1198 H1174 0.950 . S
C1198 C1193 1.363 . S
C1198 C1197 1.415 . S
C1199 H1175 0.951 . S
C1199 C1200 1.366 . S
C1199 C1201 1.388 . S
C1200 C1199 1.366 . S
C1200 C1204 1.385 . S
C1201 H1176 0.951 . S
C1201 C1199 1.388 . S
C1201 C1202 1.366 . S
C1202 C1201 1.366 . S
C1202 C1203 1.414 . S
C1202 C1205 1.499 . S
C1203 H1177 0.950 . S
C1203 C1202 1.414 . S
C1203 C1204 1.374 . S
C1204 H1178 0.950 . S
C1204 C1200 1.385 . S
C1204 C1203 1.374 . S
C1205 C1202 1.499 . S
C1205 C1206 1.373 . S
C1205 C1207 1.389 . S
C1206 H1179 0.950 . S
C1206 C1192 1.377 . S
C1206 C1205 1.373 . S
C1207 C1191 1.377 . S
C1207 C1205 1.389 . S
C1207 C1208 1.524 . S
C1208 C1207 1.524 . S
C1208 C1209 1.397 . S
C1208 C1213 1.363 . S
C1209 H1180 0.950 . S
C1209 C1208 1.397 . S
C1209 C1210 1.334 . S
C1210 H1181 0.950 . S
C1210 C1209 1.334 . S
C1210 C1211 1.287 . S
C1211 C1210 1.287 . S
C1211 C1212 1.524 . S
C1211 H1214 0.999 . S
C1212 H1182 0.950 . S
C1212 C1211 1.524 . S
C1212 C1213 1.415 . S
C1213 H1183 0.950 . S
C1213 C1208 1.363 . S
C1213 C1212 1.415 . S
H1214 C1211 0.999 . S
H1215 C1196 0.913 . S
H1216 C1234 0.951 . S
H1217 C1236 0.951 . S
H1218 C1238 0.950 . S
H1219 C1239 0.950 . S
H1220 C1241 0.950 . S
H1221 C1244 0.950 . S
H1222 C1245 0.950 . S
H1223 C1247 0.950 . S
H1224 C1248 0.950 . S
H1225 C1249 0.951 . S
H1226 C1251 0.951 . S
H1227 C1253 0.950 . S
H1228 C1254 0.950 . S
H1229 C1256 0.950 . S
H1230 C1259 0.950 . S
H1231 C1260 0.950 . S
H1232 C1262 0.950 . S
H1233 C1263 0.950 . S
C1234 H1216 0.951 . S
C1234 C1235 1.366 1_565 S
C1234 C1236 1.388 . S
C1235 C1234 1.366 1_545 S
C1235 C1239 1.385 . S
C1236 H1217 0.951 . S
C1236 C1234 1.388 . S
C1236 C1237 1.366 . S
C1237 C1236 1.366 . S
C1237 C1238 1.414 . S
C1237 C1240 1.499 . S
C1238 H1218 0.950 . S
C1238 C1237 1.414 . S
C1238 C1239 1.374 1_565 S
C1239 H1219 0.950 . S
C1239 C1235 1.385 . S
C1239 C1238 1.374 1_545 S
C1240 C1237 1.499 . S
C1240 C1241 1.373 . S
C1240 C1242 1.389 . S
C1241 H1220 0.950 . S
C1241 C1240 1.373 . S
C1241 C1257 1.377 . S
C1242 C1240 1.389 . S
C1242 C1243 1.524 . S
C1242 C1256 1.377 . S
C1243 C1242 1.524 . S
C1243 C1244 1.397 . S
C1243 C1248 1.363 . S
C1244 H1221 0.950 . S
C1244 C1243 1.397 . S
C1244 C1245 1.334 . S
C1245 H1222 0.950 . S
C1245 C1244 1.334 . S
C1245 C1246 1.287 . S
C1246 C1245 1.287 . S
C1246 C1247 1.524 . S
C1246 H1265 0.913 . S
C1247 H1223 0.950 . S
C1247 C1246 1.524 . S
C1247 C1248 1.415 . S
C1248 H1224 0.950 . S
C1248 C1243 1.363 . S
C1248 C1247 1.415 . S
C1249 H1225 0.951 . S
C1249 C1250 1.366 . S
C1249 C1251 1.388 . S
C1250 C1249 1.366 . S
C1250 C1254 1.385 . S
C1251 H1226 0.951 . S
C1251 C1249 1.388 . S
C1251 C1252 1.366 . S
C1252 C1251 1.366 . S
C1252 C1253 1.414 . S
C1252 C1255 1.499 . S
C1253 H1227 0.950 . S
C1253 C1252 1.414 . S
C1253 C1254 1.374 . S
C1254 H1228 0.950 . S
C1254 C1250 1.385 . S
C1254 C1253 1.374 . S
C1255 C1252 1.499 . S
C1255 C1256 1.373 . S
C1255 C1257 1.389 . S
C1256 H1229 0.950 . S
C1256 C1242 1.377 . S
C1256 C1255 1.373 . S
C1257 C1241 1.377 . S
C1257 C1255 1.389 . S
C1257 C1258 1.524 . S
C1258 C1257 1.524 . S
C1258 C1259 1.397 . S
C1258 C1263 1.363 . S
C1259 H1230 0.950 . S
C1259 C1258 1.397 . S
C1259 C1260 1.334 . S
C1260 H1231 0.950 . S
C1260 C1259 1.334 . S
C1260 C1261 1.287 . S
C1261 C1260 1.287 . S
C1261 C1262 1.524 . S
C1261 H1264 0.999 . S
C1262 H1232 0.950 . S
C1262 C1261 1.524 . S
C1262 C1263 1.415 . S
C1263 H1233 0.950 . S
C1263 C1258 1.363 . S
C1263 C1262 1.415 . S
H1264 C1261 0.999 . S
H1265 C1246 0.913 . S
H1266 C1284 0.951 . S
H1267 C1286 0.951 . S
H1268 C1288 0.950 . S
H1269 C1289 0.950 . S
H1270 C1291 0.950 . S
H1271 C1294 0.950 . S
H1272 C1295 0.950 . S
H1273 C1297 0.950 . S
H1274 C1298 0.950 . S
H1275 C1299 0.951 . S
H1276 C1301 0.951 . S
H1277 C1303 0.950 . S
H1278 C1304 0.950 . S
H1279 C1306 0.950 . S
H1280 C1309 0.950 1_545 S
H1281 C1310 0.950 . S
H1282 C1312 0.950 . S
H1283 C1313 0.950 1_545 S
C1284 H1266 0.951 . S
C1284 C1285 1.366 . S
C1284 C1286 1.388 . S
C1285 C1284 1.366 . S
C1285 C1289 1.385 . S
C1286 H1267 0.951 . S
C1286 C1284 1.388 . S
C1286 C1287 1.366 . S
C1287 C1286 1.366 . S
C1287 C1288 1.414 . S
C1287 C1290 1.499 . S
C1288 H1268 0.950 . S
C1288 C1287 1.414 . S
C1288 C1289 1.374 . S
C1289 H1269 0.950 . S
C1289 C1285 1.385 . S
C1289 C1288 1.374 . S
C1290 C1287 1.499 . S
C1290 C1291 1.373 . S
C1290 C1292 1.389 . S
C1291 H1270 0.950 . S
C1291 C1290 1.373 . S
C1291 C1307 1.377 . S
C1292 C1290 1.389 . S
C1292 C1293 1.524 . S
C1292 C1306 1.377 . S
C1293 C1292 1.524 . S
C1293 C1294 1.397 . S
C1293 C1298 1.363 . S
C1294 H1271 0.950 . S
C1294 C1293 1.397 . S
C1294 C1295 1.334 . S
C1295 H1272 0.950 . S
C1295 C1294 1.334 . S
C1295 C1296 1.287 . S
C1296 C1295 1.287 . S
C1296 C1297 1.524 . S
C1296 H1315 0.913 . S
C1297 H1273 0.950 . S
C1297 C1296 1.524 . S
C1297 C1298 1.415 . S
C1298 H1274 0.950 . S
C1298 C1293 1.363 . S
C1298 C1297 1.415 . S
C1299 H1275 0.951 . S
C1299 C1300 1.366 . S
C1299 C1301 1.388 1_565 S
C1300 C1299 1.366 . S
C1300 C1304 1.385 1_565 S
C1301 H1276 0.951 . S
C1301 C1299 1.388 1_545 S
C1301 C1302 1.366 . S
C1302 C1301 1.366 . S
C1302 C1303 1.414 . S
C1302 C1305 1.499 . S
C1303 H1277 0.950 . S
C1303 C1302 1.414 . S
C1303 C1304 1.374 . S
C1304 H1278 0.950 . S
C1304 C1300 1.385 1_545 S
C1304 C1303 1.374 . S
C1305 C1302 1.499 . S
C1305 C1306 1.373 . S
C1305 C1307 1.389 . S
C1306 H1279 0.950 . S
C1306 C1292 1.377 . S
C1306 C1305 1.373 . S
C1307 C1291 1.377 . S
C1307 C1305 1.389 . S
C1307 C1308 1.524 . S
C1308 C1307 1.524 . S
C1308 C1309 1.397 1_545 S
C1308 C1313 1.363 1_545 S
C1309 H1280 0.950 1_565 S
C1309 C1308 1.397 1_565 S
C1309 C1310 1.334 . S
C1310 H1281 0.950 . S
C1310 C1309 1.334 . S
C1310 C1311 1.287 . S
C1311 C1310 1.287 . S
C1311 C1312 1.524 . S
C1311 H1314 0.999 . S
C1312 H1282 0.950 . S
C1312 C1311 1.524 . S
C1312 C1313 1.415 . S
C1313 H1283 0.950 1_565 S
C1313 C1308 1.363 1_565 S
C1313 C1312 1.415 . S
H1314 C1311 0.999 . S
H1315 C1296 0.913 . S
H1316 C1334 0.951 . S
H1317 C1336 0.951 . S
H1318 C1338 0.950 . S
H1319 C1339 0.958 . S
H1320 C1341 0.950 . S
H1321 C1344 0.950 . S
H1322 C1345 0.950 . S
H1323 C1347 0.950 . S
H1324 C1348 0.950 . S
H1325 C1349 0.951 . S
H1326 C1351 0.951 . S
H1327 C1353 0.950 . S
H1328 C1354 0.950 . S
H1329 C1356 0.950 . S
H1330 C1359 0.950 . S
H1331 C1360 0.950 . S
H1332 C1362 0.950 . S
H1333 C1363 0.950 . S
C1334 H1316 0.951 . S
C1334 C1335 1.366 . S
C1334 C1336 1.388 1_565 S
C1335 C1334 1.366 . S
C1335 C1339 1.396 . S
C1336 H1317 0.951 . S
C1336 C1334 1.388 1_545 S
C1336 C1337 1.366 . S
C1337 C1336 1.366 . S
C1337 C1338 1.414 . S
C1337 C1340 1.499 . S
C1338 H1318 0.950 . S
C1338 C1337 1.414 . S
C1338 C1339 1.355 1_545 S
C1339 H1319 0.958 . S
C1339 C1335 1.396 . S
C1339 C1338 1.355 1_565 S
C1340 C1337 1.499 . S
C1340 C1341 1.373 . S
C1340 C1342 1.389 . S
C1341 H1320 0.950 . S
C1341 C1340 1.373 . S
C1341 C1357 1.377 . S
C1342 C1340 1.389 . S
C1342 C1343 1.524 . S
C1342 C1356 1.377 . S
C1343 C1342 1.524 . S
C1343 C1344 1.397 1_545 S
C1343 C1348 1.363 . S
C1344 H1321 0.950 . S
C1344 C1343 1.397 1_565 S
C1344 C1345 1.334 . S
C1345 H1322 0.950 . S
C1345 C1344 1.334 . S
C1345 C1346 1.287 . S
C1346 C1345 1.287 . S
C1346 C1347 1.524 . S
C1346 H1365 0.913 . S
C1347 H1323 0.950 . S
C1347 C1346 1.524 . S
C1347 C1348 1.415 1_565 S
C1348 H1324 0.950 . S
C1348 C1343 1.363 . S
C1348 C1347 1.415 1_545 S
C1349 H1325 0.951 . S
C1349 C1350 1.366 . S
C1349 C1351 1.388 . S
C1350 C1349 1.366 . S
C1350 C1354 1.385 . S
C1351 H1326 0.951 . S
C1351 C1349 1.388 . S
C1351 C1352 1.366 . S
C1352 C1351 1.366 . S
C1352 C1353 1.414 . S
C1352 C1355 1.499 . S
C1353 H1327 0.950 . S
C1353 C1352 1.414 . S
C1353 C1354 1.374 . S
C1354 H1328 0.950 . S
C1354 C1350 1.385 . S
C1354 C1353 1.374 . S
C1355 C1352 1.499 . S
C1355 C1356 1.373 . S
C1355 C1357 1.389 . S
C1356 H1329 0.950 . S
C1356 C1342 1.377 . S
C1356 C1355 1.373 . S
C1357 C1341 1.377 . S
C1357 C1355 1.389 . S
C1357 C1358 1.524 . S
C1358 C1357 1.524 . S
C1358 C1359 1.397 . S
C1358 C1363 1.363 . S
C1359 H1330 0.950 . S
C1359 C1358 1.397 . S
C1359 C1360 1.334 . S
C1360 H1331 0.950 . S
C1360 C1359 1.334 . S
C1360 C1361 1.287 . S
C1361 C1360 1.287 . S
C1361 C1362 1.524 . S
C1361 H1364 0.999 . S
C1362 H1332 0.950 . S
C1362 C1361 1.524 . S
C1362 C1363 1.415 . S
C1363 H1333 0.950 . S
C1363 C1358 1.363 . S
C1363 C1362 1.415 . S
H1364 C1361 0.999 . S
H1365 C1346 0.913 . S
H1366 C1384 0.951 . S
H1367 C1386 0.951 . S
H1368 C1388 0.950 . S
H1369 C1389 0.950 . S
H1370 C1391 0.950 . S
H1371 C1394 0.950 . S
H1372 C1395 0.950 . S
H1373 C1397 0.950 . S
H1374 C1398 0.950 . S
H1375 C1399 0.951 . S
H1376 C1401 0.951 . S
H1377 C1403 0.950 . S
H1378 C1404 0.950 . S
H1379 C1406 0.950 . S
H1380 C1409 0.950 . S
H1381 C1410 0.950 . S
H1382 C1412 0.950 . S
H1383 C1413 0.950 . S
C1384 H1366 0.951 . S
C1384 C1385 1.366 . S
C1384 C1386 1.388 1_545 S
C1385 C1384 1.366 . S
C1385 C1389 1.385 1_545 S
C1386 H1367 0.951 . S
C1386 C1384 1.388 1_565 S
C1386 C1387 1.366 . S
C1387 C1386 1.366 . S
C1387 C1388 1.414 . S
C1387 C1390 1.499 . S
C1388 H1368 0.950 . S
C1388 C1387 1.414 . S
C1388 C1389 1.374 . S
C1389 H1369 0.950 . S
C1389 C1385 1.385 1_565 S
C1389 C1388 1.374 . S
C1390 C1387 1.499 . S
C1390 C1391 1.373 . S
C1390 C1392 1.389 . S
C1391 H1370 0.950 . S
C1391 C1390 1.373 . S
C1391 C1407 1.377 . S
C1392 C1390 1.389 . S
C1392 C1393 1.524 . S
C1392 C1406 1.377 . S
C1393 C1392 1.524 . S
C1393 C1394 1.397 1_565 S
C1393 C1398 1.363 . S
C1394 H1371 0.950 . S
C1394 C1393 1.397 1_545 S
C1394 C1395 1.334 . S
C1395 H1372 0.950 . S
C1395 C1394 1.334 . S
C1395 C1396 1.287 . S
C1396 C1395 1.287 . S
C1396 C1397 1.524 . S
C1396 H1415 0.913 . S
C1397 H1373 0.950 . S
C1397 C1396 1.524 . S
C1397 C1398 1.415 1_545 S
C1398 H1374 0.950 . S
C1398 C1393 1.363 . S
C1398 C1397 1.415 1_565 S
C1399 H1375 0.951 . S
C1399 C1400 1.366 . S
C1399 C1401 1.388 . S
C1400 C1399 1.366 . S
C1400 C1404 1.385 . S
C1401 H1376 0.951 . S
C1401 C1399 1.388 . S
C1401 C1402 1.366 . S
C1402 C1401 1.366 . S
C1402 C1403 1.414 . S
C1402 C1405 1.499 . S
C1403 H1377 0.950 . S
C1403 C1402 1.414 . S
C1403 C1404 1.374 . S
C1404 H1378 0.950 . S
C1404 C1400 1.385 . S
C1404 C1403 1.374 . S
C1405 C1402 1.499 . S
C1405 C1406 1.373 . S
C1405 C1407 1.389 . S
C1406 H1379 0.950 . S
C1406 C1392 1.377 . S
C1406 C1405 1.373 . S
C1407 C1391 1.377 . S
C1407 C1405 1.389 . S
C1407 C1408 1.524 . S
C1408 C1407 1.524 . S
C1408 C1409 1.397 . S
C1408 C1413 1.363 . S
C1409 H1380 0.950 . S
C1409 C1408 1.397 . S
C1409 C1410 1.334 . S
C1410 H1381 0.950 . S
C1410 C1409 1.334 . S
C1410 C1411 1.287 . S
C1411 C1410 1.287 . S
C1411 C1412 1.524 . S
C1411 H1414 0.999 . S
C1412 H1382 0.950 . S
C1412 C1411 1.524 . S
C1412 C1413 1.415 . S
C1413 H1383 0.950 . S
C1413 C1408 1.363 . S
C1413 C1412 1.415 . S
H1414 C1411 0.999 . S
H1415 C1396 0.913 . S
H1416 C1434 0.951 . S
H1417 C1436 0.951 . S
H1418 C1438 0.950 . S
H1419 C1439 0.950 . S
H1420 C1441 0.950 . S
H1421 C1444 0.950 . S
H1422 C1445 0.950 . S
H1423 C1447 0.950 . S
H1424 C1448 0.950 . S
H1425 C1449 0.951 . S
H1426 C1451 0.951 . S
H1427 C1453 0.949 1_565 S
H1428 C1454 0.950 . S
H1429 C1456 0.950 . S
H1430 C1459 0.950 . S
H1431 C1460 0.950 1_565 S
H1432 C1462 0.950 . S
H1433 C1463 0.950 . S
C1434 H1416 0.951 . S
C1434 C1435 1.366 . S
C1434 C1436 1.388 . S
C1435 C1434 1.366 . S
C1435 C1439 1.385 . S
C1436 H1417 0.951 . S
C1436 C1434 1.388 . S
C1436 C1437 1.366 . S
C1437 C1436 1.366 . S
C1437 C1438 1.414 . S
C1437 C1440 1.499 . S
C1438 H1418 0.950 . S
C1438 C1437 1.414 . S
C1438 C1439 1.374 . S
C1439 H1419 0.950 . S
C1439 C1435 1.385 . S
C1439 C1438 1.374 . S
C1440 C1437 1.499 . S
C1440 C1441 1.373 . S
C1440 C1442 1.389 . S
C1441 H1420 0.950 . S
C1441 C1440 1.373 . S
C1441 C1457 1.377 . S
C1442 C1440 1.389 . S
C1442 C1443 1.524 . S
C1442 C1456 1.377 . S
C1443 C1442 1.524 . S
C1443 C1444 1.397 . S
C1443 C1448 1.363 . S
C1444 H1421 0.950 . S
C1444 C1443 1.397 . S
C1444 C1445 1.334 . S
C1445 H1422 0.950 . S
C1445 C1444 1.334 . S
C1445 C1446 1.287 . S
C1446 C1445 1.287 . S
C1446 C1447 1.524 . S
C1446 H1465 0.913 . S
C1447 H1423 0.950 . S
C1447 C1446 1.524 . S
C1447 C1448 1.415 . S
C1448 H1424 0.950 . S
C1448 C1443 1.363 . S
C1448 C1447 1.415 . S
C1449 H1425 0.951 . S
C1449 C1450 1.366 1_545 S
C1449 C1451 1.388 . S
C1450 C1449 1.366 1_565 S
C1450 C1454 1.385 . S
C1451 H1426 0.951 . S
C1451 C1449 1.388 . S
C1451 C1452 1.366 . S
C1452 C1451 1.366 . S
C1452 C1453 1.414 . S
C1452 C1455 1.499 . S
C1453 H1427 0.949 1_545 S
C1453 C1452 1.414 . S
C1453 C1454 1.374 1_545 S
C1454 H1428 0.950 . S
C1454 C1450 1.385 . S
C1454 C1453 1.374 1_565 S
C1455 C1452 1.499 . S
C1455 C1456 1.373 . S
C1455 C1457 1.389 . S
C1456 H1429 0.950 . S
C1456 C1442 1.377 . S
C1456 C1455 1.373 . S
C1457 C1441 1.377 . S
C1457 C1455 1.389 . S
C1457 C1458 1.524 . S
C1458 C1457 1.524 . S
C1458 C1459 1.397 . S
C1458 C1463 1.363 . S
C1459 H1430 0.950 . S
C1459 C1458 1.397 . S
C1459 C1460 1.334 . S
C1460 H1431 0.950 1_545 S
C1460 C1459 1.334 . S
C1460 C1461 1.287 . S
C1461 C1460 1.287 . S
C1461 C1462 1.524 . S
C1461 H1464 0.999 . S
C1462 H1432 0.950 . S
C1462 C1461 1.524 . S
C1462 C1463 1.415 . S
C1463 H1433 0.950 . S
C1463 C1458 1.363 . S
C1463 C1462 1.415 . S
H1464 C1461 0.999 . S
H1465 C1446 0.913 . S
H1466 C1484 0.951 . S
H1467 C1486 0.951 . S
H1468 C1488 0.950 . S
H1469 C1489 0.950 . S
H1470 C1491 0.950 . S
H1471 C1494 0.950 . S
H1472 C1495 0.950 . S
H1473 C1497 0.950 . S
H1474 C1498 0.950 . S
H1475 C1499 0.951 . S
H1476 C1501 0.951 . S
H1477 C1503 0.950 . S
H1478 C1504 0.950 . S
H1479 C1506 0.950 . S
H1480 C1509 0.950 . S
H1481 C1510 0.950 . S
H1482 C1512 0.950 . S
H1483 C1513 0.950 . S
C1484 H1466 0.951 . S
C1484 C1485 1.366 . S
C1484 C1486 1.388 1_545 S
C1485 C1484 1.366 . S
C1485 C1489 1.385 1_545 S
C1486 H1467 0.951 . S
C1486 C1484 1.388 1_565 S
C1486 C1487 1.366 . S
C1487 C1486 1.366 . S
C1487 C1488 1.414 . S
C1487 C1490 1.499 . S
C1488 H1468 0.950 . S
C1488 C1487 1.414 . S
C1488 C1489 1.374 . S
C1489 H1469 0.950 . S
C1489 C1485 1.385 1_565 S
C1489 C1488 1.374 . S
C1490 C1487 1.499 . S
C1490 C1491 1.373 . S
C1490 C1492 1.389 . S
C1491 H1470 0.950 . S
C1491 C1490 1.373 . S
C1491 C1507 1.377 . S
C1492 C1490 1.389 . S
C1492 C1493 1.524 . S
C1492 C1506 1.377 . S
C1493 C1492 1.524 . S
C1493 C1494 1.397 1_565 S
C1493 C1498 1.363 . S
C1494 H1471 0.950 . S
C1494 C1493 1.397 1_545 S
C1494 C1495 1.334 . S
C1495 H1472 0.950 . S
C1495 C1494 1.334 . S
C1495 C1496 1.287 . S
C1496 C1495 1.287 . S
C1496 C1497 1.524 . S
C1496 H1515 0.913 . S
C1497 H1473 0.950 . S
C1497 C1496 1.524 . S
C1497 C1498 1.415 1_545 S
C1498 H1474 0.950 . S
C1498 C1493 1.363 . S
C1498 C1497 1.415 1_565 S
C1499 H1475 0.951 . S
C1499 C1500 1.366 . S
C1499 C1501 1.388 . S
C1500 C1499 1.366 . S
C1500 C1504 1.385 . S
C1501 H1476 0.951 . S
C1501 C1499 1.388 . S
C1501 C1502 1.366 . S
C1502 C1501 1.366 . S
C1502 C1503 1.414 . S
C1502 C1505 1.499 . S
C1503 H1477 0.950 . S
C1503 C1502 1.414 . S
C1503 C1504 1.374 . S
C1504 H1478 0.950 . S
C1504 C1500 1.385 . S
C1504 C1503 1.374 . S
C1505 C1502 1.499 . S
C1505 C1506 1.373 . S
C1505 C1507 1.389 . S
C1506 H1479 0.950 . S
C1506 C1492 1.377 . S
C1506 C1505 1.373 . S
C1507 C1491 1.377 . S
C1507 C1505 1.389 . S
C1507 C1508 1.524 . S
C1508 C1507 1.524 . S
C1508 C1509 1.397 . S
C1508 C1513 1.363 . S
C1509 H1480 0.950 . S
C1509 C1508 1.397 . S
C1509 C1510 1.334 . S
C1510 H1481 0.950 . S
C1510 C1509 1.334 . S
C1510 C1511 1.287 . S
C1511 C1510 1.287 . S
C1511 C1512 1.524 . S
C1511 H1514 0.999 . S
C1512 H1482 0.950 . S
C1512 C1511 1.524 . S
C1512 C1513 1.415 . S
C1513 H1483 0.950 . S
C1513 C1508 1.363 . S
C1513 C1512 1.415 . S
H1514 C1511 0.999 . S
H1515 C1496 0.913 . S
H1516 C1534 0.951 . S
H1517 C1536 0.951 . S
H1518 C1538 0.950 . S
H1519 C1539 0.950 . S
H1520 C1541 0.950 . S
H1521 C1544 0.950 . S
H1522 C1545 0.950 . S
H1523 C1547 0.950 . S
H1524 C1548 0.950 . S
H1525 C1549 0.951 . S
H1526 C1551 0.951 . S
H1527 C1553 0.966 . S
H1528 C1554 0.950 . S
H1529 C1556 0.950 . S
H1530 C1559 0.950 . S
H1531 C1560 0.950 . S
H1532 C1562 0.950 . S
H1533 C1563 0.950 . S
C1534 H1516 0.951 . S
C1534 C1535 1.366 . S
C1534 C1536 1.388 . S
C1535 C1534 1.366 . S
C1535 C1539 1.385 . S
C1536 H1517 0.951 . S
C1536 C1534 1.388 . S
C1536 C1537 1.366 . S
C1537 C1536 1.366 . S
C1537 C1538 1.414 . S
C1537 C1540 1.499 . S
C1538 H1518 0.950 . S
C1538 C1537 1.414 . S
C1538 C1539 1.374 . S
C1539 H1519 0.950 . S
C1539 C1535 1.385 . S
C1539 C1538 1.374 . S
C1540 C1537 1.499 . S
C1540 C1541 1.373 . S
C1540 C1542 1.389 . S
C1541 H1520 0.950 . S
C1541 C1540 1.373 . S
C1541 C1557 1.377 . S
C1542 C1540 1.389 . S
C1542 C1543 1.524 . S
C1542 C1556 1.377 . S
C1543 C1542 1.524 . S
C1543 C1544 1.397 . S
C1543 C1548 1.363 . S
C1544 H1521 0.950 . S
C1544 C1543 1.397 . S
C1544 C1545 1.334 . S
C1545 H1522 0.950 . S
C1545 C1544 1.334 . S
C1545 C1546 1.287 . S
C1546 C1545 1.287 . S
C1546 C1547 1.524 . S
C1546 H1565 0.913 . S
C1547 H1523 0.950 . S
C1547 C1546 1.524 . S
C1547 C1548 1.415 . S
C1548 H1524 0.950 . S
C1548 C1543 1.363 . S
C1548 C1547 1.415 . S
C1549 H1525 0.951 . S
C1549 C1550 1.366 1_565 S
C1549 C1551 1.388 . S
C1550 C1549 1.366 1_545 S
C1550 C1554 1.385 . S
C1551 H1526 0.951 . S
C1551 C1549 1.388 . S
C1551 C1552 1.366 . S
C1552 C1551 1.366 . S
C1552 C1553 1.366 1_565 S
C1552 C1555 1.499 . S
C1553 H1527 0.966 . S
C1553 C1552 1.366 1_545 S
C1553 C1554 1.408 . S
C1554 H1528 0.950 . S
C1554 C1550 1.385 . S
C1554 C1553 1.408 . S
C1555 C1552 1.499 . S
C1555 C1556 1.373 . S
C1555 C1557 1.389 . S
C1556 H1529 0.950 . S
C1556 C1542 1.377 . S
C1556 C1555 1.373 . S
C1557 C1541 1.377 . S
C1557 C1555 1.389 . S
C1557 C1558 1.524 . S
C1558 C1557 1.524 . S
C1558 C1559 1.397 . S
C1558 C1563 1.363 . S
C1559 H1530 0.950 . S
C1559 C1558 1.397 . S
C1559 C1560 1.334 . S
C1560 H1531 0.950 . S
C1560 C1559 1.334 . S
C1560 C1561 1.287 . S
C1561 C1560 1.287 . S
C1561 C1562 1.524 . S
C1561 H1564 0.999 . S
C1562 H1532 0.950 . S
C1562 C1561 1.524 . S
C1562 C1563 1.415 . S
C1563 H1533 0.950 . S
C1563 C1558 1.363 . S
C1563 C1562 1.415 . S
H1564 C1561 0.999 . S
H1565 C1546 0.913 . S
H1566 C1584 0.951 . S
H1567 C1586 0.951 . S
H1568 C1588 0.950 . S
H1569 C1589 0.950 . S
H1570 C1591 0.950 . S
H1571 C1594 0.950 . S
H1572 C1595 0.950 . S
H1573 C1597 0.950 . S
H1574 C1598 0.950 . S
H1575 C1599 0.951 . S
H1576 C1601 0.951 . S
H1577 C1603 0.950 . S
H1578 C1604 0.950 1_565 S
H1579 C1606 0.950 . S
H1580 C1609 0.950 . S
H1581 C1610 0.950 . S
H1582 C1612 0.950 . S
H1583 C1613 0.950 . S
C1584 H1566 0.951 . S
C1584 C1585 1.366 . S
C1584 C1586 1.388 . S
C1585 C1584 1.366 . S
C1585 C1589 1.385 . S
C1586 H1567 0.951 . S
C1586 C1584 1.388 . S
C1586 C1587 1.366 . S
C1587 C1586 1.366 . S
C1587 C1588 1.414 . S
C1587 C1590 1.499 . S
C1588 H1568 0.950 . S
C1588 C1587 1.414 . S
C1588 C1589 1.374 . S
C1589 H1569 0.950 . S
C1589 C1585 1.385 . S
C1589 C1588 1.374 . S
C1590 C1587 1.499 . S
C1590 C1591 1.373 . S
C1590 C1592 1.389 . S
C1591 H1570 0.950 . S
C1591 C1590 1.373 . S
C1591 C1607 1.377 . S
C1592 C1590 1.389 . S
C1592 C1593 1.524 . S
C1592 C1606 1.377 . S
C1593 C1592 1.524 . S
C1593 C1594 1.397 . S
C1593 C1598 1.363 . S
C1594 H1571 0.950 . S
C1594 C1593 1.397 . S
C1594 C1595 1.334 . S
C1595 H1572 0.950 . S
C1595 C1594 1.334 . S
C1595 C1596 1.287 . S
C1596 C1595 1.287 . S
C1596 C1597 1.524 . S
C1596 H1615 0.913 . S
C1597 H1573 0.950 . S
C1597 C1596 1.524 . S
C1597 C1598 1.415 . S
C1598 H1574 0.950 . S
C1598 C1593 1.363 . S
C1598 C1597 1.415 . S
C1599 H1575 0.951 . S
C1599 C1600 1.366 . S
C1599 C1601 1.388 1_565 S
C1600 C1599 1.366 . S
C1600 C1604 1.385 1_565 S
C1601 H1576 0.951 . S
C1601 C1599 1.388 1_545 S
C1601 C1602 1.366 . S
C1602 C1601 1.366 . S
C1602 C1603 1.414 . S
C1602 C1605 1.499 . S
C1603 H1577 0.950 . S
C1603 C1602 1.414 . S
C1603 C1604 1.374 . S
C1604 H1578 0.950 1_545 S
C1604 C1600 1.385 1_545 S
C1604 C1603 1.374 . S
C1605 C1602 1.499 . S
C1605 C1606 1.373 . S
C1605 C1607 1.389 . S
C1606 H1579 0.950 . S
C1606 C1592 1.377 . S
C1606 C1605 1.373 . S
C1607 C1591 1.377 . S
C1607 C1605 1.389 . S
C1607 C1608 1.524 . S
C1608 C1607 1.524 . S
C1608 C1609 1.397 1_545 S
C1608 C1613 1.363 . S
C1609 H1580 0.950 . S
C1609 C1608 1.397 1_565 S
C1609 C1610 1.334 . S
C1610 H1581 0.950 . S
C1610 C1609 1.334 . S
C1610 C1611 1.287 . S
C1611 C1610 1.287 . S
C1611 C1612 1.524 . S
C1611 H1614 0.999 . S
C1612 H1582 0.950 . S
C1612 C1611 1.524 . S
C1612 C1613 1.415 1_565 S
C1613 H1583 0.950 . S
C1613 C1608 1.363 . S
C1613 C1612 1.415 1_545 S
H1614 C1611 0.999 . S
H1615 C1596 0.913 . S
H1616 C1634 0.951 . S
H1617 C1636 0.951 . S
H1618 C1638 0.950 . S
H1619 C1639 0.950 . S
H1620 C1641 0.950 . S
H1621 C1644 0.950 . S
H1622 C1645 0.950 . S
H1623 C1647 0.950 . S
H1624 C1648 0.950 . S
H1625 C1649 0.951 . S
H1626 C1651 0.951 . S
H1627 C1653 0.950 . S
H1628 C1654 0.950 . S
H1629 C1656 0.950 . S
H1630 C1659 0.950 . S
H1631 C1660 0.950 . S
H1632 C1662 0.950 . S
H1633 C1663 0.950 . S
C1634 H1616 0.951 . S
C1634 C1635 1.366 . S
C1634 C1636 1.388 . S
C1635 C1634 1.366 . S
C1635 C1639 1.385 . S
C1636 H1617 0.951 . S
C1636 C1634 1.388 . S
C1636 C1637 1.366 . S
C1637 C1636 1.366 . S
C1637 C1638 1.414 . S
C1637 C1640 1.499 . S
C1638 H1618 0.950 . S
C1638 C1637 1.414 . S
C1638 C1639 1.374 . S
C1639 H1619 0.950 . S
C1639 C1635 1.385 . S
C1639 C1638 1.374 . S
C1640 C1637 1.499 . S
C1640 C1641 1.373 . S
C1640 C1642 1.389 . S
C1641 H1620 0.950 . S
C1641 C1640 1.373 . S
C1641 C1657 1.377 . S
C1642 C1640 1.389 . S
C1642 C1643 1.524 . S
C1642 C1656 1.377 . S
C1643 C1642 1.524 . S
C1643 C1644 1.397 . S
C1643 C1648 1.363 . S
C1644 H1621 0.950 . S
C1644 C1643 1.397 . S
C1644 C1645 1.334 . S
C1645 H1622 0.950 . S
C1645 C1644 1.334 . S
C1645 C1646 1.287 . S
C1646 C1645 1.287 . S
C1646 C1647 1.524 . S
C1646 H1665 0.913 . S
C1647 H1623 0.950 . S
C1647 C1646 1.524 . S
C1647 C1648 1.415 . S
C1648 H1624 0.950 . S
C1648 C1643 1.363 . S
C1648 C1647 1.415 . S
C1649 H1625 0.951 . S
C1649 C1650 1.366 . S
C1649 C1651 1.388 . S
C1650 C1649 1.366 . S
C1650 C1654 1.385 . S
C1651 H1626 0.951 . S
C1651 C1649 1.388 . S
C1651 C1652 1.366 . S
C1652 C1651 1.366 . S
C1652 C1653 1.414 . S
C1652 C1655 1.499 . S
C1653 H1627 0.950 . S
C1653 C1652 1.414 . S
C1653 C1654 1.374 . S
C1654 H1628 0.950 . S
C1654 C1650 1.385 . S
C1654 C1653 1.374 . S
C1655 C1652 1.499 . S
C1655 C1656 1.373 . S
C1655 C1657 1.389 . S
C1656 H1629 0.950 . S
C1656 C1642 1.377 . S
C1656 C1655 1.373 . S
C1657 C1641 1.377 . S
C1657 C1655 1.389 . S
C1657 C1658 1.524 . S
C1658 C1657 1.524 . S
C1658 C1659 1.397 . S
C1658 C1663 1.363 . S
C1659 H1630 0.950 . S
C1659 C1658 1.397 . S
C1659 C1660 1.334 . S
C1660 H1631 0.950 . S
C1660 C1659 1.334 . S
C1660 C1661 1.287 . S
C1661 C1660 1.287 . S
C1661 C1662 1.524 . S
C1661 H1664 0.999 . S
C1662 H1632 0.950 . S
C1662 C1661 1.524 . S
C1662 C1663 1.415 . S
C1663 H1633 0.950 . S
C1663 C1658 1.363 . S
C1663 C1662 1.415 . S
H1664 C1661 0.999 . S
H1665 C1646 0.913 . S
H1666 C1684 0.951 . S
H1667 C1686 0.951 . S
H1668 C1688 0.950 . S
H1669 C1689 0.950 . S
H1670 C1691 0.950 . S
H1671 C1694 0.950 . S
H1672 C1695 0.950 . S
H1673 C1697 0.950 . S
H1674 C1698 0.950 . S
H1675 C1699 0.951 . S
H1676 C1701 0.951 . S
H1677 C1703 0.950 . S
H1678 C1704 0.950 . S
H1679 C1706 0.950 . S
H1680 C1709 0.950 . S
H1681 C1710 0.950 . S
H1682 C1712 0.950 . S
H1683 C1713 0.950 . S
C1684 H1666 0.951 . S
C1684 C1685 1.366 . S
C1684 C1686 1.388 . S
C1685 C1684 1.366 . S
C1685 C1689 1.385 . S
C1686 H1667 0.951 . S
C1686 C1684 1.388 . S
C1686 C1687 1.366 . S
C1687 C1686 1.366 . S
C1687 C1688 1.414 . S
C1687 C1690 1.499 . S
C1688 H1668 0.950 . S
C1688 C1687 1.414 . S
C1688 C1689 1.374 . S
C1689 H1669 0.950 . S
C1689 C1685 1.385 . S
C1689 C1688 1.374 . S
C1690 C1687 1.499 . S
C1690 C1691 1.373 . S
C1690 C1692 1.389 . S
C1691 H1670 0.950 . S
C1691 C1690 1.373 . S
C1691 C1707 1.377 . S
C1692 C1690 1.389 . S
C1692 C1693 1.524 . S
C1692 C1706 1.377 . S
C1693 C1692 1.524 . S
C1693 C1694 1.397 . S
C1693 C1698 1.363 . S
C1694 H1671 0.950 . S
C1694 C1693 1.397 . S
C1694 C1695 1.334 . S
C1695 H1672 0.950 . S
C1695 C1694 1.334 . S
C1695 C1696 1.287 . S
C1696 C1695 1.287 . S
C1696 C1697 1.524 . S
C1696 H1715 0.913 . S
C1697 H1673 0.950 . S
C1697 C1696 1.524 . S
C1697 C1698 1.415 . S
C1698 H1674 0.950 . S
C1698 C1693 1.363 . S
C1698 C1697 1.415 . S
C1699 H1675 0.951 . S
C1699 C1700 1.366 . S
C1699 C1701 1.388 . S
C1700 C1699 1.366 . S
C1700 C1704 1.385 . S
C1701 H1676 0.951 . S
C1701 C1699 1.388 . S
C1701 C1702 1.366 . S
C1702 C1701 1.366 . S
C1702 C1703 1.414 . S
C1702 C1705 1.499 . S
C1703 H1677 0.950 . S
C1703 C1702 1.414 . S
C1703 C1704 1.374 . S
C1704 H1678 0.950 . S
C1704 C1700 1.385 . S
C1704 C1703 1.374 . S
C1705 C1702 1.499 . S
C1705 C1706 1.373 . S
C1705 C1707 1.389 . S
C1706 H1679 0.950 . S
C1706 C1692 1.377 . S
C1706 C1705 1.373 . S
C1707 C1691 1.377 . S
C1707 C1705 1.389 . S
C1707 C1708 1.524 . S
C1708 C1707 1.524 . S
C1708 C1709 1.397 . S
C1708 C1713 1.363 . S
C1709 H1680 0.950 . S
C1709 C1708 1.397 . S
C1709 C1710 1.334 . S
C1710 H1681 0.950 . S
C1710 C1709 1.334 . S
C1710 C1711 1.287 . S
C1711 C1710 1.287 . S
C1711 C1712 1.524 . S
C1711 H1714 0.999 . S
C1712 H1682 0.950 . S
C1712 C1711 1.524 . S
C1712 C1713 1.415 . S
C1713 H1683 0.950 . S
C1713 C1708 1.363 . S
C1713 C1712 1.415 . S
H1714 C1711 0.999 . S
H1715 C1696 0.913 . S
H1716 C1734 0.951 . S
H1717 C1736 0.951 . S
H1718 C1738 0.950 . S
H1719 C1739 0.950 . S
H1720 C1741 0.950 . S
H1721 C1744 0.950 . S
H1722 C1745 0.950 . S
H1723 C1747 0.950 . S
H1724 C1748 0.950 . S
H1725 C1749 0.951 . S
H1726 C1751 0.951 . S
H1727 C1753 0.950 . S
H1728 C1754 0.950 . S
H1729 C1756 0.950 . S
H1730 C1759 0.950 . S
H1731 C1760 0.950 . S
H1732 C1762 0.950 . S
H1733 C1763 0.950 . S
C1734 H1716 0.951 . S
C1734 C1735 1.366 . S
C1734 C1736 1.388 . S
C1735 C1734 1.366 . S
C1735 C1739 1.385 . S
C1736 H1717 0.951 . S
C1736 C1734 1.388 . S
C1736 C1737 1.366 . S
C1737 C1736 1.366 . S
C1737 C1738 1.414 . S
C1737 C1740 1.499 . S
C1738 H1718 0.950 . S
C1738 C1737 1.414 . S
C1738 C1739 1.374 . S
C1739 H1719 0.950 . S
C1739 C1735 1.385 . S
C1739 C1738 1.374 . S
C1740 C1737 1.499 . S
C1740 C1741 1.373 . S
C1740 C1742 1.389 . S
C1741 H1720 0.950 . S
C1741 C1740 1.373 . S
C1741 C1757 1.377 . S
C1742 C1740 1.389 . S
C1742 C1743 1.524 . S
C1742 C1756 1.377 . S
C1743 C1742 1.524 . S
C1743 C1744 1.397 . S
C1743 C1748 1.363 . S
C1744 H1721 0.950 . S
C1744 C1743 1.397 . S
C1744 C1745 1.334 . S
C1745 H1722 0.950 . S
C1745 C1744 1.334 . S
C1745 C1746 1.287 . S
C1746 C1745 1.287 . S
C1746 C1747 1.524 . S
C1746 H1765 0.913 . S
C1747 H1723 0.950 . S
C1747 C1746 1.524 . S
C1747 C1748 1.415 . S
C1748 H1724 0.950 . S
C1748 C1743 1.363 . S
C1748 C1747 1.415 . S
C1749 H1725 0.951 . S
C1749 C1750 1.366 . S
C1749 C1751 1.388 . S
C1750 C1749 1.366 . S
C1750 C1754 1.385 . S
C1751 H1726 0.951 . S
C1751 C1749 1.388 . S
C1751 C1752 1.366 . S
C1752 C1751 1.366 . S
C1752 C1753 1.414 . S
C1752 C1755 1.499 . S
C1753 H1727 0.950 . S
C1753 C1752 1.414 . S
C1753 C1754 1.374 . S
C1754 H1728 0.950 . S
C1754 C1750 1.385 . S
C1754 C1753 1.374 . S
C1755 C1752 1.499 . S
C1755 C1756 1.373 . S
C1755 C1757 1.389 . S
C1756 H1729 0.950 . S
C1756 C1742 1.377 . S
C1756 C1755 1.373 . S
C1757 C1741 1.377 . S
C1757 C1755 1.389 . S
C1757 C1758 1.524 . S
C1758 C1757 1.524 . S
C1758 C1759 1.397 . S
C1758 C1763 1.363 . S
C1759 H1730 0.950 . S
C1759 C1758 1.397 . S
C1759 C1760 1.334 . S
C1760 H1731 0.950 . S
C1760 C1759 1.334 . S
C1760 C1761 1.287 . S
C1761 C1760 1.287 . S
C1761 C1762 1.524 . S
C1761 H1764 0.999 . S
C1762 H1732 0.950 . S
C1762 C1761 1.524 . S
C1762 C1763 1.415 . S
C1763 H1733 0.950 . S
C1763 C1758 1.363 . S
C1763 C1762 1.415 . S
H1764 C1761 0.999 . S
H1765 C1746 0.913 . S
H1766 C1784 0.951 . S
H1767 C1786 0.951 . S
H1768 C1788 0.950 . S
H1769 C1789 0.950 . S
H1770 C1791 0.950 . S
H1771 C1794 0.950 . S
H1772 C1795 0.950 . S
H1773 C1797 0.950 . S
H1774 C1798 0.950 . S
H1775 C1799 0.951 . S
H1776 C1801 0.951 . S
H1777 C1803 0.950 . S
H1778 C1804 0.950 . S
H1779 C1806 0.950 . S
H1780 C1809 0.950 . S
H1781 C1810 0.950 . S
H1782 C1812 0.950 . S
H1783 C1813 0.950 . S
C1784 H1766 0.951 . S
C1784 C1785 1.366 . S
C1784 C1786 1.388 . S
C1785 C1784 1.366 . S
C1785 C1789 1.385 . S
C1786 H1767 0.951 . S
C1786 C1784 1.388 . S
C1786 C1787 1.366 . S
C1787 C1786 1.366 . S
C1787 C1788 1.414 . S
C1787 C1790 1.499 . S
C1788 H1768 0.950 . S
C1788 C1787 1.414 . S
C1788 C1789 1.374 . S
C1789 H1769 0.950 . S
C1789 C1785 1.385 . S
C1789 C1788 1.374 . S
C1790 C1787 1.499 . S
C1790 C1791 1.373 . S
C1790 C1792 1.389 . S
C1791 H1770 0.950 . S
C1791 C1790 1.373 . S
C1791 C1807 1.377 . S
C1792 C1790 1.389 . S
C1792 C1793 1.524 . S
C1792 C1806 1.377 . S
C1793 C1792 1.524 . S
C1793 C1794 1.397 . S
C1793 C1798 1.363 . S
C1794 H1771 0.950 . S
C1794 C1793 1.397 . S
C1794 C1795 1.334 . S
C1795 H1772 0.950 . S
C1795 C1794 1.334 . S
C1795 C1796 1.287 . S
C1796 C1795 1.287 . S
C1796 C1797 1.524 . S
C1796 H1815 0.913 . S
C1797 H1773 0.950 . S
C1797 C1796 1.524 . S
C1797 C1798 1.415 . S
C1798 H1774 0.950 . S
C1798 C1793 1.363 . S
C1798 C1797 1.415 . S
C1799 H1775 0.951 . S
C1799 C1800 1.366 . S
C1799 C1801 1.388 . S
C1800 C1799 1.366 . S
C1800 C1804 1.385 . S
C1801 H1776 0.951 . S
C1801 C1799 1.388 . S
C1801 C1802 1.366 . S
C1802 C1801 1.366 . S
C1802 C1803 1.414 . S
C1802 C1805 1.499 . S
C1803 H1777 0.950 . S
C1803 C1802 1.414 . S
C1803 C1804 1.374 . S
C1804 H1778 0.950 . S
C1804 C1800 1.385 . S
C1804 C1803 1.374 . S
C1805 C1802 1.499 . S
C1805 C1806 1.373 . S
C1805 C1807 1.389 . S
C1806 H1779 0.950 . S
C1806 C1792 1.377 . S
C1806 C1805 1.373 . S
C1807 C1791 1.377 . S
C1807 C1805 1.389 . S
C1807 C1808 1.524 . S
C1808 C1807 1.524 . S
C1808 C1809 1.397 . S
C1808 C1813 1.363 . S
C1809 H1780 0.950 . S
C1809 C1808 1.397 . S
C1809 C1810 1.334 . S
C1810 H1781 0.950 . S
C1810 C1809 1.334 . S
C1810 C1811 1.287 . S
C1811 C1810 1.287 . S
C1811 C1812 1.524 . S
C1811 H1814 0.999 . S
C1812 H1782 0.950 . S
C1812 C1811 1.524 . S
C1812 C1813 1.415 . S
C1813 H1783 0.950 . S
C1813 C1808 1.363 . S
C1813 C1812 1.415 . S
H1814 C1811 0.999 . S
H1815 C1796 0.913 . S
H1816 C1834 0.951 . S
H1817 C1836 0.951 . S
H1818 C1838 0.950 . S
H1819 C1839 0.950 . S
H1820 C1841 0.950 . S
H1821 C1844 0.950 . S
H1822 C1845 0.950 . S
H1823 C1847 0.950 . S
H1824 C1848 0.950 . S
H1825 C1849 0.951 . S
H1826 C1851 0.951 . S
H1827 C1853 0.950 . S
H1828 C1854 0.950 . S
H1829 C1856 0.950 . S
H1830 C1859 0.950 . S
H1831 C1860 0.950 . S
H1832 C1862 0.950 . S
H1833 C1863 0.950 . S
C1834 H1816 0.951 . S
C1834 C1835 1.366 . S
C1834 C1836 1.388 . S
C1835 C1834 1.366 . S
C1835 C1839 1.385 . S
C1836 H1817 0.951 . S
C1836 C1834 1.388 . S
C1836 C1837 1.366 . S
C1837 C1836 1.366 . S
C1837 C1838 1.414 . S
C1837 C1840 1.499 . S
C1838 H1818 0.950 . S
C1838 C1837 1.414 . S
C1838 C1839 1.374 . S
C1839 H1819 0.950 . S
C1839 C1835 1.385 . S
C1839 C1838 1.374 . S
C1840 C1837 1.499 . S
C1840 C1841 1.373 . S
C1840 C1842 1.389 . S
C1841 H1820 0.950 . S
C1841 C1840 1.373 . S
C1841 C1857 1.377 . S
C1842 C1840 1.389 . S
C1842 C1843 1.524 . S
C1842 C1856 1.377 . S
C1843 C1842 1.524 . S
C1843 C1844 1.397 . S
C1843 C1848 1.363 . S
C1844 H1821 0.950 . S
C1844 C1843 1.397 . S
C1844 C1845 1.334 . S
C1845 H1822 0.950 . S
C1845 C1844 1.334 . S
C1845 C1846 1.287 . S
C1846 C1845 1.287 . S
C1846 C1847 1.524 . S
C1846 H1865 0.913 . S
C1847 H1823 0.950 . S
C1847 C1846 1.524 . S
C1847 C1848 1.415 . S
C1848 H1824 0.950 . S
C1848 C1843 1.363 . S
C1848 C1847 1.415 . S
C1849 H1825 0.951 . S
C1849 C1850 1.366 . S
C1849 C1851 1.388 . S
C1850 C1849 1.366 . S
C1850 C1854 1.385 . S
C1851 H1826 0.951 . S
C1851 C1849 1.388 . S
C1851 C1852 1.366 . S
C1852 C1851 1.366 . S
C1852 C1853 1.414 . S
C1852 C1855 1.499 . S
C1853 H1827 0.950 . S
C1853 C1852 1.414 . S
C1853 C1854 1.374 . S
C1854 H1828 0.950 . S
C1854 C1850 1.385 . S
C1854 C1853 1.374 . S
C1855 C1852 1.499 . S
C1855 C1856 1.373 . S
C1855 C1857 1.389 . S
C1856 H1829 0.950 . S
C1856 C1842 1.377 . S
C1856 C1855 1.373 . S
C1857 C1841 1.377 . S
C1857 C1855 1.389 . S
C1857 C1858 1.524 . S
C1858 C1857 1.524 . S
C1858 C1859 1.397 . S
C1858 C1863 1.363 . S
C1859 H1830 0.950 . S
C1859 C1858 1.397 . S
C1859 C1860 1.334 . S
C1860 H1831 0.950 . S
C1860 C1859 1.334 . S
C1860 C1861 1.287 . S
C1861 C1860 1.287 . S
C1861 C1862 1.524 . S
C1861 H1864 0.999 . S
C1862 H1832 0.950 . S
C1862 C1861 1.524 . S
C1862 C1863 1.415 . S
C1863 H1833 0.950 . S
C1863 C1858 1.363 . S
C1863 C1862 1.415 . S
H1864 C1861 0.999 . S
H1865 C1846 0.913 . S
H1866 C1884 0.951 . S
H1867 C1886 0.951 . S
H1868 C1888 0.950 . S
H1869 C1889 0.950 . S
H1870 C1891 0.950 . S
H1871 C1894 0.950 . S
H1872 C1895 0.950 . S
H1873 C1897 0.950 . S
H1874 C1898 0.950 . S
H1875 C1899 0.951 . S
H1876 C1901 0.951 . S
H1877 C1903 0.950 . S
H1878 C1904 0.950 . S
H1879 C1906 0.950 . S
H1880 C1909 0.950 . S
H1881 C1910 0.950 . S
H1882 C1912 0.950 . S
H1883 C1913 0.950 . S
C1884 H1866 0.951 . S
C1884 C1885 1.366 . S
C1884 C1886 1.388 . S
C1885 C1884 1.366 . S
C1885 C1889 1.385 . S
C1886 H1867 0.951 . S
C1886 C1884 1.388 . S
C1886 C1887 1.366 . S
C1887 C1886 1.366 . S
C1887 C1888 1.414 . S
C1887 C1890 1.499 . S
C1888 H1868 0.950 . S
C1888 C1887 1.414 . S
C1888 C1889 1.374 . S
C1889 H1869 0.950 . S
C1889 C1885 1.385 . S
C1889 C1888 1.374 . S
C1890 C1887 1.499 . S
C1890 C1891 1.373 . S
C1890 C1892 1.389 . S
C1891 H1870 0.950 . S
C1891 C1890 1.373 . S
C1891 C1907 1.377 . S
C1892 C1890 1.389 . S
C1892 C1893 1.524 . S
C1892 C1906 1.377 . S
C1893 C1892 1.524 . S
C1893 C1894 1.397 . S
C1893 C1898 1.363 . S
C1894 H1871 0.950 . S
C1894 C1893 1.397 . S
C1894 C1895 1.334 . S
C1895 H1872 0.950 . S
C1895 C1894 1.334 . S
C1895 C1896 1.287 . S
C1896 C1895 1.287 . S
C1896 C1897 1.524 . S
C1896 H1915 0.913 . S
C1897 H1873 0.950 . S
C1897 C1896 1.524 . S
C1897 C1898 1.415 . S
C1898 H1874 0.950 . S
C1898 C1893 1.363 . S
C1898 C1897 1.415 . S
C1899 H1875 0.951 . S
C1899 C1900 1.366 . S
C1899 C1901 1.388 . S
C1900 C1899 1.366 . S
C1900 C1904 1.385 . S
C1901 H1876 0.951 . S
C1901 C1899 1.388 . S
C1901 C1902 1.366 . S
C1902 C1901 1.366 . S
C1902 C1903 1.414 . S
C1902 C1905 1.499 . S
C1903 H1877 0.950 . S
C1903 C1902 1.414 . S
C1903 C1904 1.374 . S
C1904 H1878 0.950 . S
C1904 C1900 1.385 . S
C1904 C1903 1.374 . S
C1905 C1902 1.499 . S
C1905 C1906 1.373 . S
C1905 C1907 1.389 . S
C1906 H1879 0.950 . S
C1906 C1892 1.377 . S
C1906 C1905 1.373 . S
C1907 C1891 1.377 . S
C1907 C1905 1.389 . S
C1907 C1908 1.524 . S
C1908 C1907 1.524 . S
C1908 C1909 1.397 . S
C1908 C1913 1.363 . S
C1909 H1880 0.950 . S
C1909 C1908 1.397 . S
C1909 C1910 1.334 . S
C1910 H1881 0.950 . S
C1910 C1909 1.334 . S
C1910 C1911 1.287 . S
C1911 C1910 1.287 . S
C1911 C1912 1.524 . S
C1911 H1914 0.999 . S
C1912 H1882 0.950 . S
C1912 C1911 1.524 . S
C1912 C1913 1.415 . S
C1913 H1883 0.950 . S
C1913 C1908 1.363 . S
C1913 C1912 1.415 . S
H1914 C1911 0.999 . S
H1915 C1896 0.913 . S
H1916 C1934 0.951 . S
H1917 C1936 0.951 . S
H1918 C1938 0.950 . S
H1919 C1939 0.950 . S
H1920 C1941 0.950 . S
H1921 C1944 0.950 . S
H1922 C1945 0.950 . S
H1923 C1947 0.950 . S
H1924 C1948 0.950 . S
H1925 C1949 0.951 . S
H1926 C1951 0.951 . S
H1927 C1953 0.950 . S
H1928 C1954 0.950 . S
H1929 C1956 0.950 . S
H1930 C1959 0.950 . S
H1931 C1960 0.950 . S
H1932 C1962 0.950 . S
H1933 C1963 0.950 . S
C1934 H1916 0.951 . S
C1934 C1935 1.366 . S
C1934 C1936 1.388 . S
C1935 C1934 1.366 . S
C1935 C1939 1.385 . S
C1936 H1917 0.951 . S
C1936 C1934 1.388 . S
C1936 C1937 1.366 . S
C1937 C1936 1.366 . S
C1937 C1938 1.414 . S
C1937 C1940 1.499 . S
C1938 H1918 0.950 . S
C1938 C1937 1.414 . S
C1938 C1939 1.374 . S
C1939 H1919 0.950 . S
C1939 C1935 1.385 . S
C1939 C1938 1.374 . S
C1940 C1937 1.499 . S
C1940 C1941 1.373 . S
C1940 C1942 1.389 . S
C1941 H1920 0.950 . S
C1941 C1940 1.373 . S
C1941 C1957 1.377 . S
C1942 C1940 1.389 . S
C1942 C1943 1.524 . S
C1942 C1956 1.377 . S
C1943 C1942 1.524 . S
C1943 C1944 1.397 . S
C1943 C1948 1.363 . S
C1944 H1921 0.950 . S
C1944 C1943 1.397 . S
C1944 C1945 1.334 . S
C1945 H1922 0.950 . S
C1945 C1944 1.334 . S
C1945 C1946 1.287 . S
C1946 C1945 1.287 . S
C1946 C1947 1.524 . S
C1946 H1965 0.913 . S
C1947 H1923 0.950 . S
C1947 C1946 1.524 . S
C1947 C1948 1.415 . S
C1948 H1924 0.950 . S
C1948 C1943 1.363 . S
C1948 C1947 1.415 . S
C1949 H1925 0.951 . S
C1949 C1950 1.366 . S
C1949 C1951 1.388 . S
C1950 C1949 1.366 . S
C1950 C1954 1.385 . S
C1951 H1926 0.951 . S
C1951 C1949 1.388 . S
C1951 C1952 1.366 . S
C1952 C1951 1.366 . S
C1952 C1953 1.414 . S
C1952 C1955 1.499 . S
C1953 H1927 0.950 . S
C1953 C1952 1.414 . S
C1953 C1954 1.374 . S
C1954 H1928 0.950 . S
C1954 C1950 1.385 . S
C1954 C1953 1.374 . S
C1955 C1952 1.499 . S
C1955 C1956 1.373 . S
C1955 C1957 1.389 . S
C1956 H1929 0.950 . S
C1956 C1942 1.377 . S
C1956 C1955 1.373 . S
C1957 C1941 1.377 . S
C1957 C1955 1.389 . S
C1957 C1958 1.524 . S
C1958 C1957 1.524 . S
C1958 C1959 1.397 . S
C1958 C1963 1.363 . S
C1959 H1930 0.950 . S
C1959 C1958 1.397 . S
C1959 C1960 1.334 . S
C1960 H1931 0.950 . S
C1960 C1959 1.334 . S
C1960 C1961 1.287 . S
C1961 C1960 1.287 . S
C1961 C1962 1.524 . S
C1961 H1964 0.999 . S
C1962 H1932 0.950 . S
C1962 C1961 1.524 . S
C1962 C1963 1.415 . S
C1963 H1933 0.950 . S
C1963 C1958 1.363 . S
C1963 C1962 1.415 . S
H1964 C1961 0.999 . S
H1965 C1946 0.913 . S
H1966 C1984 0.951 . S
H1967 C1986 0.951 . S
H1968 C1988 0.950 . S
H1969 C1989 0.950 . S
H1970 C1991 0.950 . S
H1971 C1994 0.950 . S
H1972 C1995 0.950 . S
H1973 C1997 0.950 . S
H1974 C1998 0.950 . S
H1975 C1999 0.951 . S
H1976 C2001 0.951 . S
H1977 C2003 0.950 . S
H1978 C2004 0.950 . S
H1979 C2006 0.950 . S
H1980 C2009 0.950 . S
H1981 C2010 0.950 . S
H1982 C2012 0.950 . S
H1983 C2013 0.950 . S
C1984 H1966 0.951 . S
C1984 C1985 1.366 . S
C1984 C1986 1.388 . S
C1985 C1984 1.366 . S
C1985 C1989 1.385 . S
C1986 H1967 0.951 . S
C1986 C1984 1.388 . S
C1986 C1987 1.366 . S
C1987 C1986 1.366 . S
C1987 C1988 1.414 . S
C1987 C1990 1.499 . S
C1988 H1968 0.950 . S
C1988 C1987 1.414 . S
C1988 C1989 1.374 . S
C1989 H1969 0.950 . S
C1989 C1985 1.385 . S
C1989 C1988 1.374 . S
C1990 C1987 1.499 . S
C1990 C1991 1.373 . S
C1990 C1992 1.389 . S
C1991 H1970 0.950 . S
C1991 C1990 1.373 . S
C1991 C2007 1.377 . S
C1992 C1990 1.389 . S
C1992 C1993 1.524 . S
C1992 C2006 1.377 . S
C1993 C1992 1.524 . S
C1993 C1994 1.397 . S
C1993 C1998 1.363 . S
C1994 H1971 0.950 . S
C1994 C1993 1.397 . S
C1994 C1995 1.334 . S
C1995 H1972 0.950 . S
C1995 C1994 1.334 . S
C1995 C1996 1.287 . S
C1996 C1995 1.287 . S
C1996 C1997 1.524 . S
C1996 H2015 0.913 . S
C1997 H1973 0.950 . S
C1997 C1996 1.524 . S
C1997 C1998 1.415 . S
C1998 H1974 0.950 . S
C1998 C1993 1.363 . S
C1998 C1997 1.415 . S
C1999 H1975 0.951 . S
C1999 C2000 1.366 . S
C1999 C2001 1.388 . S
C2000 C1999 1.366 . S
C2000 C2004 1.385 . S
C2001 H1976 0.951 . S
C2001 C1999 1.388 . S
C2001 C2002 1.366 . S
C2002 C2001 1.366 . S
C2002 C2003 1.414 . S
C2002 C2005 1.499 . S
C2003 H1977 0.950 . S
C2003 C2002 1.414 . S
C2003 C2004 1.374 . S
C2004 H1978 0.950 . S
C2004 C2000 1.385 . S
C2004 C2003 1.374 . S
C2005 C2002 1.499 . S
C2005 C2006 1.373 . S
C2005 C2007 1.389 . S
C2006 H1979 0.950 . S
C2006 C1992 1.377 . S
C2006 C2005 1.373 . S
C2007 C1991 1.377 . S
C2007 C2005 1.389 . S
C2007 C2008 1.524 . S
C2008 C2007 1.524 . S
C2008 C2009 1.397 . S
C2008 C2013 1.363 . S
C2009 H1980 0.950 . S
C2009 C2008 1.397 . S
C2009 C2010 1.334 . S
C2010 H1981 0.950 . S
C2010 C2009 1.334 . S
C2010 C2011 1.287 . S
C2011 C2010 1.287 . S
C2011 C2012 1.524 . S
C2011 H2014 0.999 . S
C2012 H1982 0.950 . S
C2012 C2011 1.524 . S
C2012 C2013 1.415 . S
C2013 H1983 0.950 . S
C2013 C2008 1.363 . S
C2013 C2012 1.415 . S
H2014 C2011 0.999 . S
H2015 C1996 0.913 . S
H2016 C2034 0.951 . S
H2017 C2036 0.951 . S
H2018 C2038 0.950 . S
H2019 C2039 0.950 . S
H2020 C2041 0.950 . S
H2021 C2044 0.950 . S
H2022 C2045 0.950 . S
H2023 C2047 0.950 . S
H2024 C2048 0.950 . S
H2025 C2049 0.951 . S
H2026 C2051 0.951 . S
H2027 C2053 0.950 . S
H2028 C2054 0.950 . S
H2029 C2056 0.950 . S
H2030 C2059 0.950 . S
H2031 C2060 0.950 . S
H2032 C2062 0.950 . S
H2033 C2063 0.950 . S
C2034 H2016 0.951 . S
C2034 C2035 1.366 . S
C2034 C2036 1.388 . S
C2035 C2034 1.366 . S
C2035 C2039 1.385 . S
C2036 H2017 0.951 . S
C2036 C2034 1.388 . S
C2036 C2037 1.366 . S
C2037 C2036 1.366 . S
C2037 C2038 1.414 . S
C2037 C2040 1.499 . S
C2038 H2018 0.950 . S
C2038 C2037 1.414 . S
C2038 C2039 1.374 . S
C2039 H2019 0.950 . S
C2039 C2035 1.385 . S
C2039 C2038 1.374 . S
C2040 C2037 1.499 . S
C2040 C2041 1.373 . S
C2040 C2042 1.389 . S
C2041 H2020 0.950 . S
C2041 C2040 1.373 . S
C2041 C2057 1.377 . S
C2042 C2040 1.389 . S
C2042 C2043 1.524 . S
C2042 C2056 1.377 . S
C2043 C2042 1.524 . S
C2043 C2044 1.397 . S
C2043 C2048 1.363 . S
C2044 H2021 0.950 . S
C2044 C2043 1.397 . S
C2044 C2045 1.334 . S
C2045 H2022 0.950 . S
C2045 C2044 1.334 . S
C2045 C2046 1.287 . S
C2046 C2045 1.287 . S
C2046 C2047 1.524 . S
C2046 H2065 0.913 . S
C2047 H2023 0.950 . S
C2047 C2046 1.524 . S
C2047 C2048 1.415 . S
C2048 H2024 0.950 . S
C2048 C2043 1.363 . S
C2048 C2047 1.415 . S
C2049 H2025 0.951 . S
C2049 C2050 1.366 . S
C2049 C2051 1.388 . S
C2050 C2049 1.366 . S
C2050 C2054 1.385 . S
C2051 H2026 0.951 . S
C2051 C2049 1.388 . S
C2051 C2052 1.366 . S
C2052 C2051 1.366 . S
C2052 C2053 1.414 . S
C2052 C2055 1.499 . S
C2053 H2027 0.950 . S
C2053 C2052 1.414 . S
C2053 C2054 1.374 . S
C2054 H2028 0.950 . S
C2054 C2050 1.385 . S
C2054 C2053 1.374 . S
C2055 C2052 1.499 . S
C2055 C2056 1.373 . S
C2055 C2057 1.389 . S
C2056 H2029 0.950 . S
C2056 C2042 1.377 . S
C2056 C2055 1.373 . S
C2057 C2041 1.377 . S
C2057 C2055 1.389 . S
C2057 C2058 1.524 . S
C2058 C2057 1.524 . S
C2058 C2059 1.397 . S
C2058 C2063 1.363 . S
C2059 H2030 0.950 . S
C2059 C2058 1.397 . S
C2059 C2060 1.334 . S
C2060 H2031 0.950 . S
C2060 C2059 1.334 . S
C2060 C2061 1.287 . S
C2061 C2060 1.287 . S
C2061 C2062 1.524 . S
C2061 H2064 0.999 . S
C2062 H2032 0.950 . S
C2062 C2061 1.524 . S
C2062 C2063 1.415 . S
C2063 H2033 0.950 . S
C2063 C2058 1.363 . S
C2063 C2062 1.415 . S
H2064 C2061 0.999 . S
H2065 C2046 0.913 . S
H2066 C2084 0.951 . S
H2067 C2086 0.951 . S
H2068 C2088 0.950 . S
H2069 C2089 0.950 . S
H2070 C2091 0.950 . S
H2071 C2094 0.950 . S
H2072 C2095 0.950 . S
H2073 C2097 0.950 . S
H2074 C2098 0.950 . S
H2075 C2099 0.951 . S
H2076 C2101 0.951 . S
H2077 C2103 0.950 . S
H2078 C2104 0.950 . S
H2079 C2106 0.950 . S
H2080 C2109 0.950 . S
H2081 C2110 0.950 . S
H2082 C2112 0.950 . S
H2083 C2113 0.950 . S
C2084 H2066 0.951 . S
C2084 C2085 1.366 . S
C2084 C2086 1.388 . S
C2085 C2084 1.366 . S
C2085 C2089 1.385 . S
C2086 H2067 0.951 . S
C2086 C2084 1.388 . S
C2086 C2087 1.366 . S
C2087 C2086 1.366 . S
C2087 C2088 1.414 . S
C2087 C2090 1.499 . S
C2088 H2068 0.950 . S
C2088 C2087 1.414 . S
C2088 C2089 1.374 . S
C2089 H2069 0.950 . S
C2089 C2085 1.385 . S
C2089 C2088 1.374 . S
C2090 C2087 1.499 . S
C2090 C2091 1.373 . S
C2090 C2092 1.389 . S
C2091 H2070 0.950 . S
C2091 C2090 1.373 . S
C2091 C2107 1.377 . S
C2092 C2090 1.389 . S
C2092 C2093 1.524 . S
C2092 C2106 1.377 . S
C2093 C2092 1.524 . S
C2093 C2094 1.397 . S
C2093 C2098 1.363 . S
C2094 H2071 0.950 . S
C2094 C2093 1.397 . S
C2094 C2095 1.334 . S
C2095 H2072 0.950 . S
C2095 C2094 1.334 . S
C2095 C2096 1.287 . S
C2096 C2095 1.287 . S
C2096 C2097 1.524 . S
C2096 H2115 0.913 . S
C2097 H2073 0.950 . S
C2097 C2096 1.524 . S
C2097 C2098 1.415 . S
C2098 H2074 0.950 . S
C2098 C2093 1.363 . S
C2098 C2097 1.415 . S
C2099 H2075 0.951 . S
C2099 C2100 1.366 . S
C2099 C2101 1.388 . S
C2100 C2099 1.366 . S
C2100 C2104 1.385 . S
C2101 H2076 0.951 . S
C2101 C2099 1.388 . S
C2101 C2102 1.366 1_655 S
C2102 C2101 1.366 1_455 S
C2102 C2103 1.414 . S
C2102 C2105 1.499 . S
C2103 H2077 0.950 . S
C2103 C2102 1.414 . S
C2103 C2104 1.374 1_455 S
C2104 H2078 0.950 . S
C2104 C2100 1.385 . S
C2104 C2103 1.374 1_655 S
C2105 C2102 1.499 . S
C2105 C2106 1.373 . S
C2105 C2107 1.389 . S
C2106 H2079 0.950 . S
C2106 C2092 1.377 . S
C2106 C2105 1.373 . S
C2107 C2091 1.377 . S
C2107 C2105 1.389 . S
C2107 C2108 1.524 . S
C2108 C2107 1.524 . S
C2108 C2109 1.397 . S
C2108 C2113 1.363 . S
C2109 H2080 0.950 . S
C2109 C2108 1.397 . S
C2109 C2110 1.334 1_455 S
C2110 H2081 0.950 . S
C2110 C2109 1.334 1_655 S
C2110 C2111 1.287 . S
C2111 C2110 1.287 . S
C2111 C2112 1.524 . S
C2111 H2114 0.999 . S
C2112 H2082 0.950 . S
C2112 C2111 1.524 . S
C2112 C2113 1.415 1_655 S
C2113 H2083 0.950 . S
C2113 C2108 1.363 . S
C2113 C2112 1.415 1_455 S
H2114 C2111 0.999 . S
H2115 C2096 0.913 . S
H2116 C2134 0.951 . S
H2117 C2136 0.951 . S
H2118 C2138 0.950 . S
H2119 C2139 0.950 . S
H2120 C2141 0.950 . S
H2121 C2144 0.950 . S
H2122 C2145 0.950 . S
H2123 C2147 0.950 . S
H2124 C2148 0.950 . S
H2125 C2149 0.951 . S
H2126 C2151 0.951 . S
H2127 C2153 0.950 . S
H2128 C2154 0.950 . S
H2129 C2156 0.950 . S
H2130 C2159 0.950 . S
H2131 C2160 0.950 . S
H2132 C2162 0.950 . S
H2133 C2163 0.950 . S
C2134 H2116 0.951 . S
C2134 C2135 1.366 . S
C2134 C2136 1.388 . S
C2135 C2134 1.366 . S
C2135 C2139 1.385 . S
C2136 H2117 0.951 . S
C2136 C2134 1.388 . S
C2136 C2137 1.366 . S
C2137 C2136 1.366 . S
C2137 C2138 1.414 . S
C2137 C2140 1.499 . S
C2138 H2118 0.950 . S
C2138 C2137 1.414 . S
C2138 C2139 1.374 . S
C2139 H2119 0.950 . S
C2139 C2135 1.385 . S
C2139 C2138 1.374 . S
C2140 C2137 1.499 . S
C2140 C2141 1.373 . S
C2140 C2142 1.389 . S
C2141 H2120 0.950 . S
C2141 C2140 1.373 . S
C2141 C2157 1.377 . S
C2142 C2140 1.389 . S
C2142 C2143 1.524 . S
C2142 C2156 1.377 . S
C2143 C2142 1.524 . S
C2143 C2144 1.397 . S
C2143 C2148 1.363 . S
C2144 H2121 0.950 . S
C2144 C2143 1.397 . S
C2144 C2145 1.334 . S
C2145 H2122 0.950 . S
C2145 C2144 1.334 . S
C2145 C2146 1.287 . S
C2146 C2145 1.287 . S
C2146 C2147 1.524 . S
C2146 H2165 0.913 . S
C2147 H2123 0.950 . S
C2147 C2146 1.524 . S
C2147 C2148 1.415 . S
C2148 H2124 0.950 . S
C2148 C2143 1.363 . S
C2148 C2147 1.415 . S
C2149 H2125 0.951 . S
C2149 C2150 1.366 . S
C2149 C2151 1.388 . S
C2150 C2149 1.366 . S
C2150 C2154 1.385 . S
C2151 H2126 0.951 . S
C2151 C2149 1.388 . S
C2151 C2152 1.366 . S
C2152 C2151 1.366 . S
C2152 C2153 1.414 . S
C2152 C2155 1.499 . S
C2153 H2127 0.950 . S
C2153 C2152 1.414 . S
C2153 C2154 1.374 . S
C2154 H2128 0.950 . S
C2154 C2150 1.385 . S
C2154 C2153 1.374 . S
C2155 C2152 1.499 . S
C2155 C2156 1.373 . S
C2155 C2157 1.389 . S
C2156 H2129 0.950 . S
C2156 C2142 1.377 . S
C2156 C2155 1.373 . S
C2157 C2141 1.377 . S
C2157 C2155 1.389 . S
C2157 C2158 1.524 . S
C2158 C2157 1.524 . S
C2158 C2159 1.397 . S
C2158 C2163 1.363 . S
C2159 H2130 0.950 . S
C2159 C2158 1.397 . S
C2159 C2160 1.334 . S
C2160 H2131 0.950 . S
C2160 C2159 1.334 . S
C2160 C2161 1.287 . S
C2161 C2160 1.287 . S
C2161 C2162 1.524 . S
C2161 H2164 0.999 . S
C2162 H2132 0.950 . S
C2162 C2161 1.524 . S
C2162 C2163 1.415 . S
C2163 H2133 0.950 . S
C2163 C2158 1.363 . S
C2163 C2162 1.415 . S
H2164 C2161 0.999 . S
H2165 C2146 0.913 . S
H2166 C2184 0.951 . S
H2167 C2186 0.951 . S
H2168 C2188 0.950 . S
H2169 C2189 0.950 . S
H2170 C2191 0.950 . S
H2171 C2194 0.950 . S
H2172 C2195 0.950 . S
H2173 C2197 0.950 1_545 S
H2174 C2198 0.950 . S
H2175 C2199 0.951 . S
H2176 C2201 0.951 . S
H2177 C2203 0.950 . S
H2178 C2204 0.950 . S
H2179 C2206 0.950 . S
H2180 C2209 0.950 . S
H2181 C2210 0.950 . S
H2182 C2212 0.950 . S
H2183 C2213 0.950 . S
C2184 H2166 0.951 . S
C2184 C2185 1.366 . S
C2184 C2186 1.388 . S
C2185 C2184 1.366 . S
C2185 C2189 1.385 . S
C2186 H2167 0.951 . S
C2186 C2184 1.388 . S
C2186 C2187 1.366 . S
C2187 C2186 1.366 . S
C2187 C2188 1.414 . S
C2187 C2190 1.499 . S
C2188 H2168 0.950 . S
C2188 C2187 1.414 . S
C2188 C2189 1.374 . S
C2189 H2169 0.950 . S
C2189 C2185 1.385 . S
C2189 C2188 1.374 . S
C2190 C2187 1.499 . S
C2190 C2191 1.373 . S
C2190 C2192 1.389 . S
C2191 H2170 0.950 . S
C2191 C2190 1.373 . S
C2191 C2207 1.377 . S
C2192 C2190 1.389 . S
C2192 C2193 1.524 . S
C2192 C2206 1.377 . S
C2193 C2192 1.524 . S
C2193 C2194 1.397 . S
C2193 C2198 1.363 . S
C2194 H2171 0.950 . S
C2194 C2193 1.397 . S
C2194 C2195 1.334 . S
C2195 H2172 0.950 . S
C2195 C2194 1.334 . S
C2195 C2196 1.287 1_565 S
C2196 C2195 1.287 1_545 S
C2196 C2197 1.524 1_545 S
C2196 H2215 0.913 . S
C2197 H2173 0.950 1_565 S
C2197 C2196 1.524 1_565 S
C2197 C2198 1.415 . S
C2198 H2174 0.950 . S
C2198 C2193 1.363 . S
C2198 C2197 1.415 . S
C2199 H2175 0.951 . S
C2199 C2200 1.366 . S
C2199 C2201 1.388 . S
C2200 C2199 1.366 . S
C2200 C2204 1.385 . S
C2201 H2176 0.951 . S
C2201 C2199 1.388 . S
C2201 C2202 1.366 . S
C2202 C2201 1.366 . S
C2202 C2203 1.414 . S
C2202 C2205 1.499 . S
C2203 H2177 0.950 . S
C2203 C2202 1.414 . S
C2203 C2204 1.374 . S
C2204 H2178 0.950 . S
C2204 C2200 1.385 . S
C2204 C2203 1.374 . S
C2205 C2202 1.499 . S
C2205 C2206 1.373 . S
C2205 C2207 1.389 . S
C2206 H2179 0.950 . S
C2206 C2192 1.377 . S
C2206 C2205 1.373 . S
C2207 C2191 1.377 . S
C2207 C2205 1.389 . S
C2207 C2208 1.524 . S
C2208 C2207 1.524 . S
C2208 C2209 1.397 . S
C2208 C2213 1.363 . S
C2209 H2180 0.950 . S
C2209 C2208 1.397 . S
C2209 C2210 1.334 . S
C2210 H2181 0.950 . S
C2210 C2209 1.334 . S
C2210 C2211 1.287 . S
C2211 C2210 1.287 . S
C2211 C2212 1.524 . S
C2211 H2214 0.999 . S
C2212 H2182 0.950 . S
C2212 C2211 1.524 . S
C2212 C2213 1.415 . S
C2213 H2183 0.950 . S
C2213 C2208 1.363 . S
C2213 C2212 1.415 . S
H2214 C2211 0.999 . S
H2215 C2196 0.913 . S
H2216 C2234 0.951 . S
H2217 C2236 0.951 . S
H2218 C2238 0.950 . S
H2219 C2239 0.950 . S
H2220 C2241 0.950 . S
H2221 C2244 0.950 . S
H2222 C2245 0.950 . S
H2223 C2247 0.950 . S
H2224 C2248 0.950 . S
H2225 C2249 0.951 . S
H2226 C2251 0.951 . S
H2227 C2253 0.950 . S
H2228 C2254 0.950 . S
H2229 C2256 0.950 . S
H2230 C2259 0.950 . S
H2231 C2260 0.950 . S
H2232 C2262 0.950 . S
H2233 C2263 0.950 . S
C2234 H2216 0.951 . S
C2234 C2235 1.366 . S
C2234 C2236 1.388 . S
C2235 C2234 1.366 . S
C2235 C2239 1.385 . S
C2236 H2217 0.951 . S
C2236 C2234 1.388 . S
C2236 C2237 1.366 . S
C2237 C2236 1.366 . S
C2237 C2238 1.414 . S
C2237 C2240 1.499 . S
C2238 H2218 0.950 . S
C2238 C2237 1.414 . S
C2238 C2239 1.374 . S
C2239 H2219 0.950 . S
C2239 C2235 1.385 . S
C2239 C2238 1.374 . S
C2240 C2237 1.499 . S
C2240 C2241 1.373 . S
C2240 C2242 1.389 . S
C2241 H2220 0.950 . S
C2241 C2240 1.373 . S
C2241 C2257 1.377 . S
C2242 C2240 1.389 . S
C2242 C2243 1.524 . S
C2242 C2256 1.377 . S
C2243 C2242 1.524 . S
C2243 C2244 1.397 . S
C2243 C2248 1.363 . S
C2244 H2221 0.950 . S
C2244 C2243 1.397 . S
C2244 C2245 1.334 . S
C2245 H2222 0.950 . S
C2245 C2244 1.334 . S
C2245 C2246 1.287 . S
C2246 C2245 1.287 . S
C2246 C2247 1.524 . S
C2246 H2265 0.913 . S
C2247 H2223 0.950 . S
C2247 C2246 1.524 . S
C2247 C2248 1.415 . S
C2248 H2224 0.950 . S
C2248 C2243 1.363 . S
C2248 C2247 1.415 . S
C2249 H2225 0.951 . S
C2249 C2250 1.366 . S
C2249 C2251 1.388 . S
C2250 C2249 1.366 . S
C2250 C2254 1.385 . S
C2251 H2226 0.951 . S
C2251 C2249 1.388 . S
C2251 C2252 1.366 . S
C2252 C2251 1.366 . S
C2252 C2253 1.414 . S
C2252 C2255 1.499 . S
C2253 H2227 0.950 . S
C2253 C2252 1.414 . S
C2253 C2254 1.374 . S
C2254 H2228 0.950 . S
C2254 C2250 1.385 . S
C2254 C2253 1.374 . S
C2255 C2252 1.499 . S
C2255 C2256 1.373 . S
C2255 C2257 1.389 . S
C2256 H2229 0.950 . S
C2256 C2242 1.377 . S
C2256 C2255 1.373 . S
C2257 C2241 1.377 . S
C2257 C2255 1.389 . S
C2257 C2258 1.524 . S
C2258 C2257 1.524 . S
C2258 C2259 1.397 . S
C2258 C2263 1.363 . S
C2259 H2230 0.950 . S
C2259 C2258 1.397 . S
C2259 C2260 1.334 . S
C2260 H2231 0.950 . S
C2260 C2259 1.334 . S
C2260 C2261 1.287 . S
C2261 C2260 1.287 . S
C2261 C2262 1.524 . S
C2261 H2264 0.999 . S
C2262 H2232 0.950 . S
C2262 C2261 1.524 . S
C2262 C2263 1.415 . S
C2263 H2233 0.950 . S
C2263 C2258 1.363 . S
C2263 C2262 1.415 . S
H2264 C2261 0.999 . S
H2265 C2246 0.913 . S
H2266 C2284 0.951 . S
H2267 C2286 0.951 . S
H2268 C2288 0.950 . S
H2269 C2289 0.950 . S
H2270 C2291 0.950 . S
H2271 C2294 0.950 . S
H2272 C2295 0.950 . S
H2273 C2297 0.950 . S
H2274 C2298 0.950 . S
H2275 C2299 0.951 . S
H2276 C2301 0.951 . S
H2277 C2303 0.950 . S
H2278 C2304 0.950 . S
H2279 C2306 0.950 . S
H2280 C2309 0.950 . S
H2281 C2310 0.932 1_565 S
H2282 C2312 0.950 1_565 S
H2283 C2313 0.950 . S
C2284 H2266 0.951 . S
C2284 C2285 1.366 . S
C2284 C2286 1.388 . S
C2285 C2284 1.366 . S
C2285 C2289 1.385 . S
C2286 H2267 0.951 . S
C2286 C2284 1.388 . S
C2286 C2287 1.366 . S
C2287 C2286 1.366 . S
C2287 C2288 1.414 . S
C2287 C2290 1.499 . S
C2288 H2268 0.950 . S
C2288 C2287 1.414 . S
C2288 C2289 1.374 . S
C2289 H2269 0.950 . S
C2289 C2285 1.385 . S
C2289 C2288 1.374 . S
C2290 C2287 1.499 . S
C2290 C2291 1.373 . S
C2290 C2292 1.389 . S
C2291 H2270 0.950 . S
C2291 C2290 1.373 . S
C2291 C2307 1.377 . S
C2292 C2290 1.389 . S
C2292 C2293 1.524 . S
C2292 C2306 1.377 . S
C2293 C2292 1.524 . S
C2293 C2294 1.397 . S
C2293 C2298 1.363 . S
C2294 H2271 0.950 . S
C2294 C2293 1.397 . S
C2294 C2295 1.334 . S
C2295 H2272 0.950 . S
C2295 C2294 1.334 . S
C2295 C2296 1.287 . S
C2296 C2295 1.287 . S
C2296 C2297 1.524 . S
C2296 H2315 0.913 . S
C2297 H2273 0.950 . S
C2297 C2296 1.524 . S
C2297 C2298 1.415 . S
C2298 H2274 0.950 . S
C2298 C2293 1.363 . S
C2298 C2297 1.415 . S
C2299 H2275 0.951 . S
C2299 C2300 1.366 . S
C2299 C2301 1.388 . S
C2300 C2299 1.366 . S
C2300 C2304 1.385 . S
C2301 H2276 0.951 . S
C2301 C2299 1.388 . S
C2301 C2302 1.366 . S
C2302 C2301 1.366 . S
C2302 C2303 1.414 . S
C2302 C2305 1.499 . S
C2303 H2277 0.950 . S
C2303 C2302 1.414 . S
C2303 C2304 1.374 . S
C2304 H2278 0.950 . S
C2304 C2300 1.385 . S
C2304 C2303 1.374 . S
C2305 C2302 1.499 . S
C2305 C2306 1.373 . S
C2305 C2307 1.389 . S
C2306 H2279 0.950 . S
C2306 C2292 1.377 . S
C2306 C2305 1.373 . S
C2307 C2291 1.377 . S
C2307 C2305 1.389 . S
C2307 C2308 1.524 . S
C2308 C2307 1.524 . S
C2308 C2309 1.397 . S
C2308 C2313 1.363 . S
C2309 H2280 0.950 . S
C2309 C2308 1.397 . S
C2309 C2310 1.334 . S
C2310 H2281 0.932 1_545 S
C2310 C2309 1.334 . S
C2310 C2311 1.287 1_545 S
C2311 C2310 1.287 1_565 S
C2311 C2312 1.524 1_565 S
C2311 H2314 0.999 . S
C2312 H2282 0.950 1_545 S
C2312 C2311 1.524 1_545 S
C2312 C2313 1.415 . S
C2313 H2283 0.950 . S
C2313 C2308 1.363 . S
C2313 C2312 1.415 . S
H2314 C2311 0.999 . S
H2315 C2296 0.913 . S
H2316 C2334 0.951 . S
H2317 C2336 0.951 . S
H2318 C2338 0.950 . S
H2319 C2339 0.950 . S
H2320 C2341 0.950 . S
H2321 C2344 0.950 . S
H2322 C2345 0.950 . S
H2323 C2347 0.950 . S
H2324 C2348 0.950 . S
H2325 C2349 0.951 . S
H2326 C2351 0.951 . S
H2327 C2353 0.950 . S
H2328 C2354 0.950 . S
H2329 C2356 0.950 . S
H2330 C2359 0.950 . S
H2331 C2360 0.950 . S
H2332 C2362 0.950 . S
H2333 C2363 0.950 . S
C2334 H2316 0.951 . S
C2334 C2335 1.366 . S
C2334 C2336 1.388 . S
C2335 C2334 1.366 . S
C2335 C2339 1.385 . S
C2336 H2317 0.951 . S
C2336 C2334 1.388 . S
C2336 C2337 1.366 . S
C2337 C2336 1.366 . S
C2337 C2338 1.414 . S
C2337 C2340 1.499 . S
C2338 H2318 0.950 . S
C2338 C2337 1.414 . S
C2338 C2339 1.374 . S
C2339 H2319 0.950 . S
C2339 C2335 1.385 . S
C2339 C2338 1.374 . S
C2340 C2337 1.499 . S
C2340 C2341 1.373 . S
C2340 C2342 1.389 . S
C2341 H2320 0.950 . S
C2341 C2340 1.373 . S
C2341 C2357 1.377 . S
C2342 C2340 1.389 . S
C2342 C2343 1.524 . S
C2342 C2356 1.377 . S
C2343 C2342 1.524 . S
C2343 C2344 1.397 . S
C2343 C2348 1.363 . S
C2344 H2321 0.950 . S
C2344 C2343 1.397 . S
C2344 C2345 1.334 . S
C2345 H2322 0.950 . S
C2345 C2344 1.334 . S
C2345 C2346 1.287 . S
C2346 C2345 1.287 . S
C2346 C2347 1.524 . S
C2346 H2365 0.913 . S
C2347 H2323 0.950 . S
C2347 C2346 1.524 . S
C2347 C2348 1.415 . S
C2348 H2324 0.950 . S
C2348 C2343 1.363 . S
C2348 C2347 1.415 . S
C2349 H2325 0.951 . S
C2349 C2350 1.366 . S
C2349 C2351 1.388 . S
C2350 C2349 1.366 . S
C2350 C2354 1.385 . S
C2351 H2326 0.951 . S
C2351 C2349 1.388 . S
C2351 C2352 1.366 . S
C2352 C2351 1.366 . S
C2352 C2353 1.414 . S
C2352 C2355 1.499 . S
C2353 H2327 0.950 . S
C2353 C2352 1.414 . S
C2353 C2354 1.374 . S
C2354 H2328 0.950 . S
C2354 C2350 1.385 . S
C2354 C2353 1.374 . S
C2355 C2352 1.499 . S
C2355 C2356 1.373 . S
C2355 C2357 1.389 . S
C2356 H2329 0.950 . S
C2356 C2342 1.377 . S
C2356 C2355 1.373 . S
C2357 C2341 1.377 . S
C2357 C2355 1.389 . S
C2357 C2358 1.524 . S
C2358 C2357 1.524 . S
C2358 C2359 1.397 . S
C2358 C2363 1.363 . S
C2359 H2330 0.950 . S
C2359 C2358 1.397 . S
C2359 C2360 1.334 . S
C2360 H2331 0.950 . S
C2360 C2359 1.334 . S
C2360 C2361 1.287 . S
C2361 C2360 1.287 . S
C2361 C2362 1.524 . S
C2361 H2364 0.999 . S
C2362 H2332 0.950 . S
C2362 C2361 1.524 . S
C2362 C2363 1.415 . S
C2363 H2333 0.950 . S
C2363 C2358 1.363 . S
C2363 C2362 1.415 . S
H2364 C2361 0.999 . S
H2365 C2346 0.913 . S
H2366 C2384 0.951 . S
H2367 C2386 0.951 . S
H2368 C2388 0.950 . S
H2369 C2389 0.950 . S
H2370 C2391 0.950 . S
H2371 C2394 0.950 . S
H2372 C2395 0.950 . S
H2373 C2397 0.950 . S
H2374 C2398 0.950 . S
H2375 C2399 0.951 . S
H2376 C2401 0.951 . S
H2377 C2403 0.950 . S
H2378 C2404 0.950 . S
H2379 C2406 0.950 . S
H2380 C2409 0.950 1_655 S
H2381 C2410 0.950 . S
H2382 C2412 0.950 . S
H2383 C2413 0.950 . S
C2384 H2366 0.951 . S
C2384 C2385 1.366 . S
C2384 C2386 1.388 . S
C2385 C2384 1.366 . S
C2385 C2389 1.385 . S
C2386 H2367 0.951 . S
C2386 C2384 1.388 . S
C2386 C2387 1.366 . S
C2387 C2386 1.366 . S
C2387 C2388 1.414 . S
C2387 C2390 1.499 . S
C2388 H2368 0.950 . S
C2388 C2387 1.414 . S
C2388 C2389 1.374 . S
C2389 H2369 0.950 . S
C2389 C2385 1.385 . S
C2389 C2388 1.374 . S
C2390 C2387 1.499 . S
C2390 C2391 1.373 . S
C2390 C2392 1.389 . S
C2391 H2370 0.950 . S
C2391 C2390 1.373 . S
C2391 C2407 1.377 . S
C2392 C2390 1.389 . S
C2392 C2393 1.524 . S
C2392 C2406 1.377 . S
C2393 C2392 1.524 . S
C2393 C2394 1.397 . S
C2393 C2398 1.363 . S
C2394 H2371 0.950 . S
C2394 C2393 1.397 . S
C2394 C2395 1.334 . S
C2395 H2372 0.950 . S
C2395 C2394 1.334 . S
C2395 C2396 1.287 . S
C2396 C2395 1.287 . S
C2396 C2397 1.524 . S
C2396 H2415 0.913 . S
C2397 H2373 0.950 . S
C2397 C2396 1.524 . S
C2397 C2398 1.415 . S
C2398 H2374 0.950 . S
C2398 C2393 1.363 . S
C2398 C2397 1.415 . S
C2399 H2375 0.951 . S
C2399 C2400 1.366 . S
C2399 C2401 1.388 1_655 S
C2400 C2399 1.366 . S
C2400 C2404 1.385 . S
C2401 H2376 0.951 . S
C2401 C2399 1.388 1_455 S
C2401 C2402 1.366 . S
C2402 C2401 1.366 . S
C2402 C2403 1.414 1_455 S
C2402 C2405 1.499 . S
C2403 H2377 0.950 . S
C2403 C2402 1.414 1_655 S
C2403 C2404 1.374 . S
C2404 H2378 0.950 . S
C2404 C2400 1.385 . S
C2404 C2403 1.374 . S
C2405 C2402 1.499 . S
C2405 C2406 1.373 . S
C2405 C2407 1.389 . S
C2406 H2379 0.950 . S
C2406 C2392 1.377 . S
C2406 C2405 1.373 . S
C2407 C2391 1.377 . S
C2407 C2405 1.389 . S
C2407 C2408 1.524 . S
C2408 C2407 1.524 . S
C2408 C2409 1.397 . S
C2408 C2413 1.363 . S
C2409 H2380 0.950 1_455 S
C2409 C2408 1.397 . S
C2409 C2410 1.334 1_455 S
C2410 H2381 0.950 . S
C2410 C2409 1.334 1_655 S
C2410 C2411 1.287 1_655 S
C2411 C2410 1.287 1_455 S
C2411 C2412 1.524 . S
C2411 H2414 0.999 1_455 S
C2412 H2382 0.950 . S
C2412 C2411 1.524 . S
C2412 C2413 1.415 . S
C2413 H2383 0.950 . S
C2413 C2408 1.363 . S
C2413 C2412 1.415 . S
H2414 C2411 0.999 1_655 S
H2415 C2396 0.913 . S
H2416 C2434 0.951 . S
H2417 C2436 0.951 . S
H2418 C2438 0.950 . S
H2419 C2439 0.950 . S
H2420 C2441 0.950 . S
H2421 C2444 0.950 . S
H2422 C2445 0.950 . S
H2423 C2447 0.950 . S
H2424 C2448 0.950 . S
H2425 C2449 0.951 . S
H2426 C2451 0.951 . S
H2427 C2453 0.950 . S
H2428 C2454 0.950 . S
H2429 C2456 0.950 . S
H2430 C2459 0.950 . S
H2431 C2460 0.950 . S
H2432 C2462 0.950 . S
H2433 C2463 0.950 . S
C2434 H2416 0.951 . S
C2434 C2435 1.366 . S
C2434 C2436 1.388 . S
C2435 C2434 1.366 . S
C2435 C2439 1.385 . S
C2436 H2417 0.951 . S
C2436 C2434 1.388 . S
C2436 C2437 1.366 . S
C2437 C2436 1.366 . S
C2437 C2438 1.414 . S
C2437 C2440 1.499 . S
C2438 H2418 0.950 . S
C2438 C2437 1.414 . S
C2438 C2439 1.374 . S
C2439 H2419 0.950 . S
C2439 C2435 1.385 . S
C2439 C2438 1.374 . S
C2440 C2437 1.499 . S
C2440 C2441 1.373 . S
C2440 C2442 1.389 . S
C2441 H2420 0.950 . S
C2441 C2440 1.373 . S
C2441 C2457 1.377 . S
C2442 C2440 1.389 . S
C2442 C2443 1.524 . S
C2442 C2456 1.377 . S
C2443 C2442 1.524 . S
C2443 C2444 1.397 . S
C2443 C2448 1.363 . S
C2444 H2421 0.950 . S
C2444 C2443 1.397 . S
C2444 C2445 1.334 . S
C2445 H2422 0.950 . S
C2445 C2444 1.334 . S
C2445 C2446 1.287 . S
C2446 C2445 1.287 . S
C2446 C2447 1.524 . S
C2446 H2465 0.913 . S
C2447 H2423 0.950 . S
C2447 C2446 1.524 . S
C2447 C2448 1.415 . S
C2448 H2424 0.950 . S
C2448 C2443 1.363 . S
C2448 C2447 1.415 . S
C2449 H2425 0.951 . S
C2449 C2450 1.366 . S
C2449 C2451 1.388 . S
C2450 C2449 1.366 . S
C2450 C2454 1.385 . S
C2451 H2426 0.951 . S
C2451 C2449 1.388 . S
C2451 C2452 1.366 . S
C2452 C2451 1.366 . S
C2452 C2453 1.414 . S
C2452 C2455 1.499 . S
C2453 H2427 0.950 . S
C2453 C2452 1.414 . S
C2453 C2454 1.374 . S
C2454 H2428 0.950 . S
C2454 C2450 1.385 . S
C2454 C2453 1.374 . S
C2455 C2452 1.499 . S
C2455 C2456 1.373 . S
C2455 C2457 1.389 . S
C2456 H2429 0.950 . S
C2456 C2442 1.377 . S
C2456 C2455 1.373 . S
C2457 C2441 1.377 . S
C2457 C2455 1.389 . S
C2457 C2458 1.524 . S
C2458 C2457 1.524 . S
C2458 C2459 1.397 . S
C2458 C2463 1.363 . S
C2459 H2430 0.950 . S
C2459 C2458 1.397 . S
C2459 C2460 1.334 . S
C2460 H2431 0.950 . S
C2460 C2459 1.334 . S
C2460 C2461 1.287 . S
C2461 C2460 1.287 . S
C2461 C2462 1.524 . S
C2461 H2464 0.999 . S
C2462 H2432 0.950 . S
C2462 C2461 1.524 . S
C2462 C2463 1.415 . S
C2463 H2433 0.950 . S
C2463 C2458 1.363 . S
C2463 C2462 1.415 . S
H2464 C2461 0.999 . S
H2465 C2446 0.913 . S
H2466 C2484 0.951 . S
H2467 C2486 0.951 . S
H2468 C2488 0.950 . S
H2469 C2489 0.950 . S
H2470 C2491 0.950 . S
H2471 C2494 0.950 . S
H2472 C2495 0.950 . S
H2473 C2497 0.950 . S
H2474 C2498 0.950 . S
H2475 C2499 0.951 . S
H2476 C2501 0.951 . S
H2477 C2503 0.950 . S
H2478 C2504 0.950 . S
H2479 C2506 0.950 . S
H2480 C2509 0.950 . S
H2481 C2510 0.950 . S
H2482 C2512 0.950 . S
H2483 C2513 0.950 . S
C2484 H2466 0.951 . S
C2484 C2485 1.366 . S
C2484 C2486 1.388 1_455 S
C2485 C2484 1.366 . S
C2485 C2489 1.385 . S
C2486 H2467 0.951 . S
C2486 C2484 1.388 1_655 S
C2486 C2487 1.366 . S
C2487 C2486 1.366 . S
C2487 C2488 1.414 1_655 S
C2487 C2490 1.499 . S
C2488 H2468 0.950 . S
C2488 C2487 1.414 1_455 S
C2488 C2489 1.374 . S
C2489 H2469 0.950 . S
C2489 C2485 1.385 . S
C2489 C2488 1.374 . S
C2490 C2487 1.499 . S
C2490 C2491 1.373 . S
C2490 C2492 1.389 . S
C2491 H2470 0.950 . S
C2491 C2490 1.373 . S
C2491 C2507 1.377 . S
C2492 C2490 1.389 . S
C2492 C2493 1.524 . S
C2492 C2506 1.377 . S
C2493 C2492 1.524 . S
C2493 C2494 1.397 . S
C2493 C2498 1.363 . S
C2494 H2471 0.950 . S
C2494 C2493 1.397 . S
C2494 C2495 1.334 . S
C2495 H2472 0.950 . S
C2495 C2494 1.334 . S
C2495 C2496 1.287 . S
C2496 C2495 1.287 . S
C2496 C2497 1.524 . S
C2496 H2515 0.913 . S
C2497 H2473 0.950 . S
C2497 C2496 1.524 . S
C2497 C2498 1.415 . S
C2498 H2474 0.950 . S
C2498 C2493 1.363 . S
C2498 C2497 1.415 . S
C2499 H2475 0.951 . S
C2499 C2500 1.366 . S
C2499 C2501 1.388 . S
C2500 C2499 1.366 . S
C2500 C2504 1.385 . S
C2501 H2476 0.951 . S
C2501 C2499 1.388 . S
C2501 C2502 1.366 . S
C2502 C2501 1.366 . S
C2502 C2503 1.414 . S
C2502 C2505 1.499 . S
C2503 H2477 0.950 . S
C2503 C2502 1.414 . S
C2503 C2504 1.374 . S
C2504 H2478 0.950 . S
C2504 C2500 1.385 . S
C2504 C2503 1.374 . S
C2505 C2502 1.499 . S
C2505 C2506 1.373 . S
C2505 C2507 1.389 . S
C2506 H2479 0.950 . S
C2506 C2492 1.377 . S
C2506 C2505 1.373 . S
C2507 C2491 1.377 . S
C2507 C2505 1.389 . S
C2507 C2508 1.524 . S
C2508 C2507 1.524 . S
C2508 C2509 1.397 . S
C2508 C2513 1.363 . S
C2509 H2480 0.950 . S
C2509 C2508 1.397 . S
C2509 C2510 1.334 . S
C2510 H2481 0.950 . S
C2510 C2509 1.334 . S
C2510 C2511 1.287 . S
C2511 C2510 1.287 . S
C2511 C2512 1.524 . S
C2511 H2514 0.999 . S
C2512 H2482 0.950 . S
C2512 C2511 1.524 . S
C2512 C2513 1.415 . S
C2513 H2483 0.950 . S
C2513 C2508 1.363 . S
C2513 C2512 1.415 . S
H2514 C2511 0.999 . S
H2515 C2496 0.913 . S
H2516 C2534 0.951 . S
H2517 C2536 0.951 . S
H2518 C2538 0.950 . S
H2519 C2539 0.950 . S
H2520 C2541 0.950 . S
H2521 C2544 0.950 . S
H2522 C2545 0.950 . S
H2523 C2547 0.950 . S
H2524 C2548 0.950 . S
H2525 C2549 0.951 . S
H2526 C2551 0.951 . S
H2527 C2553 0.950 . S
H2528 C2554 0.950 . S
H2529 C2556 0.950 . S
H2530 C2559 0.950 . S
H2531 C2560 0.950 . S
H2532 C2562 0.950 . S
H2533 C2563 0.950 . S
C2534 H2516 0.951 . S
C2534 C2535 1.366 . S
C2534 C2536 1.388 . S
C2535 C2534 1.366 . S
C2535 C2539 1.385 . S
C2536 H2517 0.951 . S
C2536 C2534 1.388 . S
C2536 C2537 1.366 . S
C2537 C2536 1.366 . S
C2537 C2538 1.414 . S
C2537 C2540 1.499 . S
C2538 H2518 0.950 . S
C2538 C2537 1.414 . S
C2538 C2539 1.374 . S
C2539 H2519 0.950 . S
C2539 C2535 1.385 . S
C2539 C2538 1.374 . S
C2540 C2537 1.499 . S
C2540 C2541 1.373 . S
C2540 C2542 1.389 . S
C2541 H2520 0.950 . S
C2541 C2540 1.373 . S
C2541 C2557 1.377 . S
C2542 C2540 1.389 . S
C2542 C2543 1.524 . S
C2542 C2556 1.377 . S
C2543 C2542 1.524 . S
C2543 C2544 1.397 . S
C2543 C2548 1.363 . S
C2544 H2521 0.950 . S
C2544 C2543 1.397 . S
C2544 C2545 1.334 . S
C2545 H2522 0.950 . S
C2545 C2544 1.334 . S
C2545 C2546 1.287 . S
C2546 C2545 1.287 . S
C2546 C2547 1.524 . S
C2546 H2565 0.913 . S
C2547 H2523 0.950 . S
C2547 C2546 1.524 . S
C2547 C2548 1.415 . S
C2548 H2524 0.950 . S
C2548 C2543 1.363 . S
C2548 C2547 1.415 . S
C2549 H2525 0.951 . S
C2549 C2550 1.366 . S
C2549 C2551 1.388 . S
C2550 C2549 1.366 . S
C2550 C2554 1.385 . S
C2551 H2526 0.951 . S
C2551 C2549 1.388 . S
C2551 C2552 1.366 . S
C2552 C2551 1.366 . S
C2552 C2553 1.414 . S
C2552 C2555 1.499 . S
C2553 H2527 0.950 . S
C2553 C2552 1.414 . S
C2553 C2554 1.374 . S
C2554 H2528 0.950 . S
C2554 C2550 1.385 . S
C2554 C2553 1.374 . S
C2555 C2552 1.499 . S
C2555 C2556 1.373 . S
C2555 C2557 1.389 . S
C2556 H2529 0.950 . S
C2556 C2542 1.377 . S
C2556 C2555 1.373 . S
C2557 C2541 1.377 . S
C2557 C2555 1.389 . S
C2557 C2558 1.524 . S
C2558 C2557 1.524 . S
C2558 C2559 1.397 . S
C2558 C2563 1.363 . S
C2559 H2530 0.950 . S
C2559 C2558 1.397 . S
C2559 C2560 1.334 . S
C2560 H2531 0.950 . S
C2560 C2559 1.334 . S
C2560 C2561 1.287 . S
C2561 C2560 1.287 . S
C2561 C2562 1.524 . S
C2561 H2564 0.999 . S
C2562 H2532 0.950 . S
C2562 C2561 1.524 . S
C2562 C2563 1.415 . S
C2563 H2533 0.950 . S
C2563 C2558 1.363 . S
C2563 C2562 1.415 . S
H2564 C2561 0.999 . S
H2565 C2546 0.913 . S
H2566 C2584 0.951 . S
H2567 C2586 0.951 . S
H2568 C2588 0.950 . S
H2569 C2589 0.950 . S
H2570 C2591 0.950 . S
H2571 C2594 0.950 . S
H2572 C2595 0.950 . S
H2573 C2597 0.950 . S
H2574 C2598 0.950 . S
H2575 C2599 0.951 . S
H2576 C2601 0.951 . S
H2577 C2603 0.950 . S
H2578 C2604 0.950 . S
H2579 C2606 0.950 . S
H2580 C2609 0.950 . S
H2581 C2610 0.950 . S
H2582 C2612 0.950 . S
H2583 C2613 0.950 . S
C2584 H2566 0.951 . S
C2584 C2585 1.366 . S
C2584 C2586 1.388 . S
C2585 C2584 1.366 . S
C2585 C2589 1.385 . S
C2586 H2567 0.951 . S
C2586 C2584 1.388 . S
C2586 C2587 1.366 . S
C2587 C2586 1.366 . S
C2587 C2588 1.414 . S
C2587 C2590 1.499 . S
C2588 H2568 0.950 . S
C2588 C2587 1.414 . S
C2588 C2589 1.374 . S
C2589 H2569 0.950 . S
C2589 C2585 1.385 . S
C2589 C2588 1.374 . S
C2590 C2587 1.499 . S
C2590 C2591 1.373 . S
C2590 C2592 1.389 . S
C2591 H2570 0.950 . S
C2591 C2590 1.373 . S
C2591 C2607 1.377 . S
C2592 C2590 1.389 . S
C2592 C2593 1.524 . S
C2592 C2606 1.377 . S
C2593 C2592 1.524 . S
C2593 C2594 1.397 . S
C2593 C2598 1.363 . S
C2594 H2571 0.950 . S
C2594 C2593 1.397 . S
C2594 C2595 1.334 . S
C2595 H2572 0.950 . S
C2595 C2594 1.334 . S
C2595 C2596 1.287 . S
C2596 C2595 1.287 . S
C2596 C2597 1.524 . S
C2596 H2615 0.913 . S
C2597 H2573 0.950 . S
C2597 C2596 1.524 . S
C2597 C2598 1.415 . S
C2598 H2574 0.950 . S
C2598 C2593 1.363 . S
C2598 C2597 1.415 . S
C2599 H2575 0.951 . S
C2599 C2600 1.366 . S
C2599 C2601 1.388 . S
C2600 C2599 1.366 . S
C2600 C2604 1.385 . S
C2601 H2576 0.951 . S
C2601 C2599 1.388 . S
C2601 C2602 1.366 . S
C2602 C2601 1.366 . S
C2602 C2603 1.414 . S
C2602 C2605 1.499 . S
C2603 H2577 0.950 . S
C2603 C2602 1.414 . S
C2603 C2604 1.374 . S
C2604 H2578 0.950 . S
C2604 C2600 1.385 . S
C2604 C2603 1.374 . S
C2605 C2602 1.499 . S
C2605 C2606 1.373 . S
C2605 C2607 1.389 . S
C2606 H2579 0.950 . S
C2606 C2592 1.377 . S
C2606 C2605 1.373 . S
C2607 C2591 1.377 . S
C2607 C2605 1.389 . S
C2607 C2608 1.524 . S
C2608 C2607 1.524 . S
C2608 C2609 1.397 . S
C2608 C2613 1.363 . S
C2609 H2580 0.950 . S
C2609 C2608 1.397 . S
C2609 C2610 1.334 . S
C2610 H2581 0.950 . S
C2610 C2609 1.334 . S
C2610 C2611 1.287 . S
C2611 C2610 1.287 . S
C2611 C2612 1.524 . S
C2611 H2614 0.999 . S
C2612 H2582 0.950 . S
C2612 C2611 1.524 . S
C2612 C2613 1.415 . S
C2613 H2583 0.950 . S
C2613 C2608 1.363 . S
C2613 C2612 1.415 . S
H2614 C2611 0.999 . S
H2615 C2596 0.913 . S
H2616 C2634 0.951 . S
H2617 C2636 0.951 . S
H2618 C2638 0.950 . S
H2619 C2639 0.950 . S
H2620 C2641 0.950 . S
H2621 C2644 0.950 . S
H2622 C2645 0.950 . S
H2623 C2647 0.950 . S
H2624 C2648 0.950 . S
H2625 C2649 0.951 . S
H2626 C2651 0.951 . S
H2627 C2653 0.950 . S
H2628 C2654 0.950 . S
H2629 C2656 0.950 . S
H2630 C2659 0.950 . S
H2631 C2660 0.950 . S
H2632 C2662 0.950 . S
H2633 C2663 0.950 . S
C2634 H2616 0.951 . S
C2634 C2635 1.366 . S
C2634 C2636 1.388 . S
C2635 C2634 1.366 . S
C2635 C2639 1.385 . S
C2636 H2617 0.951 . S
C2636 C2634 1.388 . S
C2636 C2637 1.366 . S
C2637 C2636 1.366 . S
C2637 C2638 1.414 . S
C2637 C2640 1.499 . S
C2638 H2618 0.950 . S
C2638 C2637 1.414 . S
C2638 C2639 1.374 . S
C2639 H2619 0.950 . S
C2639 C2635 1.385 . S
C2639 C2638 1.374 . S
C2640 C2637 1.499 . S
C2640 C2641 1.373 . S
C2640 C2642 1.389 . S
C2641 H2620 0.950 . S
C2641 C2640 1.373 . S
C2641 C2657 1.377 . S
C2642 C2640 1.389 . S
C2642 C2643 1.524 . S
C2642 C2656 1.377 . S
C2643 C2642 1.524 . S
C2643 C2644 1.397 . S
C2643 C2648 1.363 . S
C2644 H2621 0.950 . S
C2644 C2643 1.397 . S
C2644 C2645 1.334 . S
C2645 H2622 0.950 . S
C2645 C2644 1.334 . S
C2645 C2646 1.287 . S
C2646 C2645 1.287 . S
C2646 C2647 1.524 . S
C2646 H2665 0.913 . S
C2647 H2623 0.950 . S
C2647 C2646 1.524 . S
C2647 C2648 1.415 . S
C2648 H2624 0.950 . S
C2648 C2643 1.363 . S
C2648 C2647 1.415 . S
C2649 H2625 0.951 . S
C2649 C2650 1.366 . S
C2649 C2651 1.388 . S
C2650 C2649 1.366 . S
C2650 C2654 1.385 . S
C2651 H2626 0.951 . S
C2651 C2649 1.388 . S
C2651 C2652 1.366 . S
C2652 C2651 1.366 . S
C2652 C2653 1.414 . S
C2652 C2655 1.499 . S
C2653 H2627 0.950 . S
C2653 C2652 1.414 . S
C2653 C2654 1.374 . S
C2654 H2628 0.950 . S
C2654 C2650 1.385 . S
C2654 C2653 1.374 . S
C2655 C2652 1.499 . S
C2655 C2656 1.373 . S
C2655 C2657 1.389 . S
C2656 H2629 0.950 . S
C2656 C2642 1.377 . S
C2656 C2655 1.373 . S
C2657 C2641 1.377 . S
C2657 C2655 1.389 . S
C2657 C2658 1.524 . S
C2658 C2657 1.524 . S
C2658 C2659 1.397 . S
C2658 C2663 1.363 . S
C2659 H2630 0.950 . S
C2659 C2658 1.397 . S
C2659 C2660 1.334 . S
C2660 H2631 0.950 . S
C2660 C2659 1.334 . S
C2660 C2661 1.287 . S
C2661 C2660 1.287 . S
C2661 C2662 1.524 . S
C2661 H2664 0.999 . S
C2662 H2632 0.950 . S
C2662 C2661 1.524 . S
C2662 C2663 1.415 . S
C2663 H2633 0.950 . S
C2663 C2658 1.363 . S
C2663 C2662 1.415 . S
H2664 C2661 0.999 . S
H2665 C2646 0.913 . S
H2666 C2684 0.951 . S
H2667 C2686 0.951 . S
H2668 C2688 0.950 . S
H2669 C2689 0.950 . S
H2670 C2691 0.950 . S
H2671 C2694 0.950 . S
H2672 C2695 0.950 . S
H2673 C2697 0.950 . S
H2674 C2698 0.950 . S
H2675 C2699 0.951 . S
H2676 C2701 0.951 . S
H2677 C2703 0.950 . S
H2678 C2704 0.950 . S
H2679 C2706 0.950 . S
H2680 C2709 0.950 . S
H2681 C2710 0.950 . S
H2682 C2712 0.950 . S
H2683 C2713 0.950 . S
C2684 H2666 0.951 . S
C2684 C2685 1.366 . S
C2684 C2686 1.388 . S
C2685 C2684 1.366 . S
C2685 C2689 1.385 . S
C2686 H2667 0.951 . S
C2686 C2684 1.388 . S
C2686 C2687 1.366 . S
C2687 C2686 1.366 . S
C2687 C2688 1.414 . S
C2687 C2690 1.499 . S
C2688 H2668 0.950 . S
C2688 C2687 1.414 . S
C2688 C2689 1.374 . S
C2689 H2669 0.950 . S
C2689 C2685 1.385 . S
C2689 C2688 1.374 . S
C2690 C2687 1.499 . S
C2690 C2691 1.373 . S
C2690 C2692 1.389 . S
C2691 H2670 0.950 . S
C2691 C2690 1.373 . S
C2691 C2707 1.377 . S
C2692 C2690 1.389 . S
C2692 C2693 1.524 . S
C2692 C2706 1.377 . S
C2693 C2692 1.524 . S
C2693 C2694 1.397 . S
C2693 C2698 1.363 . S
C2694 H2671 0.950 . S
C2694 C2693 1.397 . S
C2694 C2695 1.334 . S
C2695 H2672 0.950 . S
C2695 C2694 1.334 . S
C2695 C2696 1.287 . S
C2696 C2695 1.287 . S
C2696 C2697 1.524 . S
C2696 H2715 0.913 . S
C2697 H2673 0.950 . S
C2697 C2696 1.524 . S
C2697 C2698 1.415 . S
C2698 H2674 0.950 . S
C2698 C2693 1.363 . S
C2698 C2697 1.415 . S
C2699 H2675 0.951 . S
C2699 C2700 1.366 . S
C2699 C2701 1.388 . S
C2700 C2699 1.366 . S
C2700 C2704 1.385 . S
C2701 H2676 0.951 . S
C2701 C2699 1.388 . S
C2701 C2702 1.366 . S
C2702 C2701 1.366 . S
C2702 C2703 1.414 . S
C2702 C2705 1.499 . S
C2703 H2677 0.950 . S
C2703 C2702 1.414 . S
C2703 C2704 1.374 . S
C2704 H2678 0.950 . S
C2704 C2700 1.385 . S
C2704 C2703 1.374 . S
C2705 C2702 1.499 . S
C2705 C2706 1.373 . S
C2705 C2707 1.389 . S
C2706 H2679 0.950 . S
C2706 C2692 1.377 . S
C2706 C2705 1.373 . S
C2707 C2691 1.377 . S
C2707 C2705 1.389 . S
C2707 C2708 1.524 . S
C2708 C2707 1.524 . S
C2708 C2709 1.397 . S
C2708 C2713 1.363 . S
C2709 H2680 0.950 . S
C2709 C2708 1.397 . S
C2709 C2710 1.334 . S
C2710 H2681 0.950 . S
C2710 C2709 1.334 . S
C2710 C2711 1.287 . S
C2711 C2710 1.287 . S
C2711 C2712 1.524 . S
C2711 H2714 0.999 . S
C2712 H2682 0.950 . S
C2712 C2711 1.524 . S
C2712 C2713 1.415 . S
C2713 H2683 0.950 . S
C2713 C2708 1.363 . S
C2713 C2712 1.415 . S
H2714 C2711 0.999 . S
H2715 C2696 0.913 . S
H2716 C2734 0.951 . S
H2717 C2736 0.951 . S
H2718 C2738 0.950 . S
H2719 C2739 0.950 . S
H2720 C2741 0.950 . S
H2721 C2744 0.950 . S
H2722 C2745 0.950 . S
H2723 C2747 0.950 . S
H2724 C2748 0.950 . S
H2725 C2749 0.951 . S
H2726 C2751 0.951 . S
H2727 C2753 0.950 . S
H2728 C2754 0.950 . S
H2729 C2756 0.950 . S
H2730 C2759 0.950 . S
H2731 C2760 0.950 . S
H2732 C2762 0.950 . S
H2733 C2763 0.950 . S
C2734 H2716 0.951 . S
C2734 C2735 1.366 . S
C2734 C2736 1.388 . S
C2735 C2734 1.366 . S
C2735 C2739 1.385 . S
C2736 H2717 0.951 . S
C2736 C2734 1.388 . S
C2736 C2737 1.366 . S
C2737 C2736 1.366 . S
C2737 C2738 1.414 . S
C2737 C2740 1.499 . S
C2738 H2718 0.950 . S
C2738 C2737 1.414 . S
C2738 C2739 1.374 . S
C2739 H2719 0.950 . S
C2739 C2735 1.385 . S
C2739 C2738 1.374 . S
C2740 C2737 1.499 . S
C2740 C2741 1.373 . S
C2740 C2742 1.389 . S
C2741 H2720 0.950 . S
C2741 C2740 1.373 . S
C2741 C2757 1.377 . S
C2742 C2740 1.389 . S
C2742 C2743 1.524 . S
C2742 C2756 1.377 . S
C2743 C2742 1.524 . S
C2743 C2744 1.397 . S
C2743 C2748 1.363 . S
C2744 H2721 0.950 . S
C2744 C2743 1.397 . S
C2744 C2745 1.334 . S
C2745 H2722 0.950 . S
C2745 C2744 1.334 . S
C2745 C2746 1.287 . S
C2746 C2745 1.287 . S
C2746 C2747 1.524 . S
C2746 H2765 0.913 . S
C2747 H2723 0.950 . S
C2747 C2746 1.524 . S
C2747 C2748 1.415 . S
C2748 H2724 0.950 . S
C2748 C2743 1.363 . S
C2748 C2747 1.415 . S
C2749 H2725 0.951 . S
C2749 C2750 1.366 . S
C2749 C2751 1.388 . S
C2750 C2749 1.366 . S
C2750 C2754 1.385 . S
C2751 H2726 0.951 . S
C2751 C2749 1.388 . S
C2751 C2752 1.366 . S
C2752 C2751 1.366 . S
C2752 C2753 1.414 . S
C2752 C2755 1.499 . S
C2753 H2727 0.950 . S
C2753 C2752 1.414 . S
C2753 C2754 1.374 . S
C2754 H2728 0.950 . S
C2754 C2750 1.385 . S
C2754 C2753 1.374 . S
C2755 C2752 1.499 . S
C2755 C2756 1.373 . S
C2755 C2757 1.389 . S
C2756 H2729 0.950 . S
C2756 C2742 1.377 . S
C2756 C2755 1.373 . S
C2757 C2741 1.377 . S
C2757 C2755 1.389 . S
C2757 C2758 1.524 . S
C2758 C2757 1.524 . S
C2758 C2759 1.397 . S
C2758 C2763 1.363 . S
C2759 H2730 0.950 . S
C2759 C2758 1.397 . S
C2759 C2760 1.334 . S
C2760 H2731 0.950 . S
C2760 C2759 1.334 . S
C2760 C2761 1.287 . S
C2761 C2760 1.287 . S
C2761 C2762 1.524 . S
C2761 H2764 0.999 . S
C2762 H2732 0.950 . S
C2762 C2761 1.524 . S
C2762 C2763 1.415 . S
C2763 H2733 0.950 . S
C2763 C2758 1.363 . S
C2763 C2762 1.415 . S
H2764 C2761 0.999 . S
H2765 C2746 0.913 . S
H2766 C2784 0.951 . S
H2767 C2786 0.951 . S
H2768 C2788 0.950 . S
H2769 C2789 0.950 . S
H2770 C2791 0.950 . S
H2771 C2794 0.950 . S
H2772 C2795 0.950 . S
H2773 C2797 0.950 . S
H2774 C2798 0.950 . S
H2775 C2799 0.951 . S
H2776 C2801 0.951 . S
H2777 C2803 0.950 . S
H2778 C2804 0.950 . S
H2779 C2806 0.950 . S
H2780 C2809 0.950 . S
H2781 C2810 0.950 . S
H2782 C2812 0.950 . S
H2783 C2813 0.950 . S
C2784 H2766 0.951 . S
C2784 C2785 1.366 . S
C2784 C2786 1.388 1_455 S
C2785 C2784 1.366 . S
C2785 C2789 1.385 . S
C2786 H2767 0.951 . S
C2786 C2784 1.388 1_655 S
C2786 C2787 1.366 . S
C2787 C2786 1.366 . S
C2787 C2788 1.414 1_655 S
C2787 C2790 1.499 . S
C2788 H2768 0.950 . S
C2788 C2787 1.414 1_455 S
C2788 C2789 1.374 . S
C2789 H2769 0.950 . S
C2789 C2785 1.385 . S
C2789 C2788 1.374 . S
C2790 C2787 1.499 . S
C2790 C2791 1.373 . S
C2790 C2792 1.389 . S
C2791 H2770 0.950 . S
C2791 C2790 1.373 . S
C2791 C2807 1.377 . S
C2792 C2790 1.389 . S
C2792 C2793 1.524 . S
C2792 C2806 1.377 . S
C2793 C2792 1.524 . S
C2793 C2794 1.397 . S
C2793 C2798 1.363 . S
C2794 H2771 0.950 . S
C2794 C2793 1.397 . S
C2794 C2795 1.334 . S
C2795 H2772 0.950 . S
C2795 C2794 1.334 . S
C2795 C2796 1.287 . S
C2796 C2795 1.287 . S
C2796 C2797 1.524 . S
C2796 H2815 0.913 . S
C2797 H2773 0.950 . S
C2797 C2796 1.524 . S
C2797 C2798 1.415 . S
C2798 H2774 0.950 . S
C2798 C2793 1.363 . S
C2798 C2797 1.415 . S
C2799 H2775 0.951 . S
C2799 C2800 1.366 . S
C2799 C2801 1.388 . S
C2800 C2799 1.366 . S
C2800 C2804 1.385 . S
C2801 H2776 0.951 . S
C2801 C2799 1.388 . S
C2801 C2802 1.366 . S
C2802 C2801 1.366 . S
C2802 C2803 1.414 . S
C2802 C2805 1.499 . S
C2803 H2777 0.950 . S
C2803 C2802 1.414 . S
C2803 C2804 1.374 . S
C2804 H2778 0.950 . S
C2804 C2800 1.385 . S
C2804 C2803 1.374 . S
C2805 C2802 1.499 . S
C2805 C2806 1.373 . S
C2805 C2807 1.389 . S
C2806 H2779 0.950 . S
C2806 C2792 1.377 . S
C2806 C2805 1.373 . S
C2807 C2791 1.377 . S
C2807 C2805 1.389 . S
C2807 C2808 1.524 . S
C2808 C2807 1.524 . S
C2808 C2809 1.397 . S
C2808 C2813 1.363 . S
C2809 H2780 0.950 . S
C2809 C2808 1.397 . S
C2809 C2810 1.334 . S
C2810 H2781 0.950 . S
C2810 C2809 1.334 . S
C2810 C2811 1.287 . S
C2811 C2810 1.287 . S
C2811 C2812 1.524 . S
C2811 H2814 0.999 . S
C2812 H2782 0.950 . S
C2812 C2811 1.524 . S
C2812 C2813 1.415 . S
C2813 H2783 0.950 . S
C2813 C2808 1.363 . S
C2813 C2812 1.415 . S
H2814 C2811 0.999 . S
H2815 C2796 0.913 . S
H2816 C2834 0.951 . S
H2817 C2836 0.951 . S
H2818 C2838 0.950 . S
H2819 C2839 0.950 . S
H2820 C2841 0.950 . S
H2821 C2844 0.950 . S
H2822 C2845 0.950 . S
H2823 C2847 0.950 . S
H2824 C2848 0.950 . S
H2825 C2849 0.951 . S
H2826 C2851 0.951 . S
H2827 C2853 0.950 . S
H2828 C2854 0.950 . S
H2829 C2856 0.950 . S
H2830 C2859 0.950 . S
H2831 C2860 0.950 . S
H2832 C2862 0.950 . S
H2833 C2863 0.950 . S
C2834 H2816 0.951 . S
C2834 C2835 1.366 . S
C2834 C2836 1.388 . S
C2835 C2834 1.366 . S
C2835 C2839 1.385 . S
C2836 H2817 0.951 . S
C2836 C2834 1.388 . S
C2836 C2837 1.366 . S
C2837 C2836 1.366 . S
C2837 C2838 1.414 . S
C2837 C2840 1.499 . S
C2838 H2818 0.950 . S
C2838 C2837 1.414 . S
C2838 C2839 1.374 . S
C2839 H2819 0.950 . S
C2839 C2835 1.385 . S
C2839 C2838 1.374 . S
C2840 C2837 1.499 . S
C2840 C2841 1.373 . S
C2840 C2842 1.389 . S
C2841 H2820 0.950 . S
C2841 C2840 1.373 . S
C2841 C2857 1.377 . S
C2842 C2840 1.389 . S
C2842 C2843 1.524 . S
C2842 C2856 1.377 . S
C2843 C2842 1.524 . S
C2843 C2844 1.397 . S
C2843 C2848 1.363 . S
C2844 H2821 0.950 . S
C2844 C2843 1.397 . S
C2844 C2845 1.334 . S
C2845 H2822 0.950 . S
C2845 C2844 1.334 . S
C2845 C2846 1.287 . S
C2846 C2845 1.287 . S
C2846 C2847 1.524 . S
C2846 H2865 0.913 . S
C2847 H2823 0.950 . S
C2847 C2846 1.524 . S
C2847 C2848 1.415 . S
C2848 H2824 0.950 . S
C2848 C2843 1.363 . S
C2848 C2847 1.415 . S
C2849 H2825 0.951 . S
C2849 C2850 1.366 . S
C2849 C2851 1.388 . S
C2850 C2849 1.366 . S
C2850 C2854 1.385 . S
C2851 H2826 0.951 . S
C2851 C2849 1.388 . S
C2851 C2852 1.366 . S
C2852 C2851 1.366 . S
C2852 C2853 1.414 . S
C2852 C2855 1.499 . S
C2853 H2827 0.950 . S
C2853 C2852 1.414 . S
C2853 C2854 1.374 . S
C2854 H2828 0.950 . S
C2854 C2850 1.385 . S
C2854 C2853 1.374 . S
C2855 C2852 1.499 . S
C2855 C2856 1.373 . S
C2855 C2857 1.389 . S
C2856 H2829 0.950 . S
C2856 C2842 1.377 . S
C2856 C2855 1.373 . S
C2857 C2841 1.377 . S
C2857 C2855 1.389 . S
C2857 C2858 1.524 . S
C2858 C2857 1.524 . S
C2858 C2859 1.397 . S
C2858 C2863 1.363 . S
C2859 H2830 0.950 . S
C2859 C2858 1.397 . S
C2859 C2860 1.334 . S
C2860 H2831 0.950 . S
C2860 C2859 1.334 . S
C2860 C2861 1.287 . S
C2861 C2860 1.287 . S
C2861 C2862 1.524 . S
C2861 H2864 0.999 . S
C2862 H2832 0.950 . S
C2862 C2861 1.524 . S
C2862 C2863 1.415 . S
C2863 H2833 0.950 . S
C2863 C2858 1.363 . S
C2863 C2862 1.415 . S
H2864 C2861 0.999 . S
H2865 C2846 0.913 . S
H2866 C2884 0.951 . S
H2867 C2886 0.951 . S
H2868 C2888 0.950 . S
H2869 C2889 0.950 . S
H2870 C2891 0.950 . S
H2871 C2894 0.950 . S
H2872 C2895 0.950 . S
H2873 C2897 0.950 . S
H2874 C2898 0.950 . S
H2875 C2899 0.951 . S
H2876 C2901 0.951 . S
H2877 C2903 0.950 . S
H2878 C2904 0.950 . S
H2879 C2906 0.950 . S
H2880 C2909 0.950 . S
H2881 C2910 0.950 . S
H2882 C2912 0.950 . S
H2883 C2913 0.950 . S
C2884 H2866 0.951 . S
C2884 C2885 1.366 . S
C2884 C2886 1.388 . S
C2885 C2884 1.366 . S
C2885 C2889 1.385 . S
C2886 H2867 0.951 . S
C2886 C2884 1.388 . S
C2886 C2887 1.366 . S
C2887 C2886 1.366 . S
C2887 C2888 1.414 . S
C2887 C2890 1.499 . S
C2888 H2868 0.950 . S
C2888 C2887 1.414 . S
C2888 C2889 1.374 . S
C2889 H2869 0.950 . S
C2889 C2885 1.385 . S
C2889 C2888 1.374 . S
C2890 C2887 1.499 . S
C2890 C2891 1.373 . S
C2890 C2892 1.389 . S
C2891 H2870 0.950 . S
C2891 C2890 1.373 . S
C2891 C2907 1.377 . S
C2892 C2890 1.389 . S
C2892 C2893 1.524 . S
C2892 C2906 1.377 . S
C2893 C2892 1.524 . S
C2893 C2894 1.397 . S
C2893 C2898 1.363 . S
C2894 H2871 0.950 . S
C2894 C2893 1.397 . S
C2894 C2895 1.334 . S
C2895 H2872 0.950 . S
C2895 C2894 1.334 . S
C2895 C2896 1.287 . S
C2896 C2895 1.287 . S
C2896 C2897 1.524 . S
C2896 H2915 0.913 . S
C2897 H2873 0.950 . S
C2897 C2896 1.524 . S
C2897 C2898 1.415 . S
C2898 H2874 0.950 . S
C2898 C2893 1.363 . S
C2898 C2897 1.415 . S
C2899 H2875 0.951 . S
C2899 C2900 1.366 . S
C2899 C2901 1.388 . S
C2900 C2899 1.366 . S
C2900 C2904 1.385 . S
C2901 H2876 0.951 . S
C2901 C2899 1.388 . S
C2901 C2902 1.366 . S
C2902 C2901 1.366 . S
C2902 C2903 1.414 . S
C2902 C2905 1.499 . S
C2903 H2877 0.950 . S
C2903 C2902 1.414 . S
C2903 C2904 1.374 . S
C2904 H2878 0.950 . S
C2904 C2900 1.385 . S
C2904 C2903 1.374 . S
C2905 C2902 1.499 . S
C2905 C2906 1.373 . S
C2905 C2907 1.389 . S
C2906 H2879 0.950 . S
C2906 C2892 1.377 . S
C2906 C2905 1.373 . S
C2907 C2891 1.377 . S
C2907 C2905 1.389 . S
C2907 C2908 1.524 . S
C2908 C2907 1.524 . S
C2908 C2909 1.397 . S
C2908 C2913 1.363 . S
C2909 H2880 0.950 . S
C2909 C2908 1.397 . S
C2909 C2910 1.334 . S
C2910 H2881 0.950 . S
C2910 C2909 1.334 . S
C2910 C2911 1.287 . S
C2911 C2910 1.287 . S
C2911 C2912 1.524 . S
C2911 H2914 0.999 . S
C2912 H2882 0.950 . S
C2912 C2911 1.524 . S
C2912 C2913 1.415 . S
C2913 H2883 0.950 . S
C2913 C2908 1.363 . S
C2913 C2912 1.415 . S
H2914 C2911 0.999 . S
H2915 C2896 0.913 . S
H2916 C2934 0.951 . S
H2917 C2936 0.951 . S
H2918 C2938 0.950 . S
H2919 C2939 0.950 . S
H2920 C2941 0.950 . S
H2921 C2944 0.950 . S
H2922 C2945 0.950 . S
H2923 C2947 0.950 . S
H2924 C2948 0.950 . S
H2925 C2949 0.951 . S
H2926 C2951 0.951 . S
H2927 C2953 0.950 . S
H2928 C2954 0.950 . S
H2929 C2956 0.950 . S
H2930 C2959 0.950 . S
H2931 C2960 0.950 . S
H2932 C2962 0.950 . S
H2933 C2963 0.950 . S
C2934 H2916 0.951 . S
C2934 C2935 1.366 . S
C2934 C2936 1.388 . S
C2935 C2934 1.366 . S
C2935 C2939 1.385 . S
C2936 H2917 0.951 . S
C2936 C2934 1.388 . S
C2936 C2937 1.366 . S
C2937 C2936 1.366 . S
C2937 C2938 1.414 . S
C2937 C2940 1.499 . S
C2938 H2918 0.950 . S
C2938 C2937 1.414 . S
C2938 C2939 1.374 . S
C2939 H2919 0.950 . S
C2939 C2935 1.385 . S
C2939 C2938 1.374 . S
C2940 C2937 1.499 . S
C2940 C2941 1.373 . S
C2940 C2942 1.389 . S
C2941 H2920 0.950 . S
C2941 C2940 1.373 . S
C2941 C2957 1.377 . S
C2942 C2940 1.389 . S
C2942 C2943 1.524 . S
C2942 C2956 1.377 . S
C2943 C2942 1.524 . S
C2943 C2944 1.397 . S
C2943 C2948 1.363 . S
C2944 H2921 0.950 . S
C2944 C2943 1.397 . S
C2944 C2945 1.334 . S
C2945 H2922 0.950 . S
C2945 C2944 1.334 . S
C2945 C2946 1.287 . S
C2946 C2945 1.287 . S
C2946 C2947 1.524 . S
C2946 H2965 0.913 . S
C2947 H2923 0.950 . S
C2947 C2946 1.524 . S
C2947 C2948 1.415 . S
C2948 H2924 0.950 . S
C2948 C2943 1.363 . S
C2948 C2947 1.415 . S
C2949 H2925 0.951 . S
C2949 C2950 1.366 . S
C2949 C2951 1.388 . S
C2950 C2949 1.366 . S
C2950 C2954 1.385 . S
C2951 H2926 0.951 . S
C2951 C2949 1.388 . S
C2951 C2952 1.366 . S
C2952 C2951 1.366 . S
C2952 C2953 1.414 . S
C2952 C2955 1.499 . S
C2953 H2927 0.950 . S
C2953 C2952 1.414 . S
C2953 C2954 1.374 . S
C2954 H2928 0.950 . S
C2954 C2950 1.385 . S
C2954 C2953 1.374 . S
C2955 C2952 1.499 . S
C2955 C2956 1.373 . S
C2955 C2957 1.389 . S
C2956 H2929 0.950 . S
C2956 C2942 1.377 . S
C2956 C2955 1.373 . S
C2957 C2941 1.377 . S
C2957 C2955 1.389 . S
C2957 C2958 1.524 . S
C2958 C2957 1.524 . S
C2958 C2959 1.397 . S
C2958 C2963 1.363 . S
C2959 H2930 0.950 . S
C2959 C2958 1.397 . S
C2959 C2960 1.334 . S
C2960 H2931 0.950 . S
C2960 C2959 1.334 . S
C2960 C2961 1.287 . S
C2961 C2960 1.287 . S
C2961 C2962 1.524 . S
C2961 H2964 0.999 . S
C2962 H2932 0.950 . S
C2962 C2961 1.524 . S
C2962 C2963 1.415 . S
C2963 H2933 0.950 . S
C2963 C2958 1.363 . S
C2963 C2962 1.415 . S
H2964 C2961 0.999 . S
H2965 C2946 0.913 . S
H2966 C2984 0.951 . S
H2967 C2986 0.951 . S
H2968 C2988 0.950 . S
H2969 C2989 0.950 . S
H2970 C2991 0.950 . S
H2971 C2994 0.950 . S
H2972 C2995 0.950 . S
H2973 C2997 0.950 . S
H2974 C2998 0.950 . S
H2975 C2999 0.951 . S
H2976 C3001 0.951 . S
H2977 C3003 0.950 . S
H2978 C3004 0.950 . S
H2979 C3006 0.950 . S
H2980 C3009 0.950 . S
H2981 C3010 0.950 . S
H2982 C3012 0.950 . S
H2983 C3013 0.950 . S
C2984 H2966 0.951 . S
C2984 C2985 1.366 . S
C2984 C2986 1.388 . S
C2985 C2984 1.366 . S
C2985 C2989 1.385 . S
C2986 H2967 0.951 . S
C2986 C2984 1.388 . S
C2986 C2987 1.366 . S
C2987 C2986 1.366 . S
C2987 C2988 1.414 . S
C2987 C2990 1.499 . S
C2988 H2968 0.950 . S
C2988 C2987 1.414 . S
C2988 C2989 1.374 . S
C2989 H2969 0.950 . S
C2989 C2985 1.385 . S
C2989 C2988 1.374 . S
C2990 C2987 1.499 . S
C2990 C2991 1.373 . S
C2990 C2992 1.389 . S
C2991 H2970 0.950 . S
C2991 C2990 1.373 . S
C2991 C3007 1.377 . S
C2992 C2990 1.389 . S
C2992 C2993 1.524 . S
C2992 C3006 1.377 . S
C2993 C2992 1.524 . S
C2993 C2994 1.397 . S
C2993 C2998 1.363 . S
C2994 H2971 0.950 . S
C2994 C2993 1.397 . S
C2994 C2995 1.334 . S
C2995 H2972 0.950 . S
C2995 C2994 1.334 . S
C2995 C2996 1.287 . S
C2996 C2995 1.287 . S
C2996 C2997 1.524 . S
C2996 H3015 0.913 . S
C2997 H2973 0.950 . S
C2997 C2996 1.524 . S
C2997 C2998 1.415 . S
C2998 H2974 0.950 . S
C2998 C2993 1.363 . S
C2998 C2997 1.415 . S
C2999 H2975 0.951 . S
C2999 C3000 1.366 . S
C2999 C3001 1.388 1_455 S
C3000 C2999 1.366 . S
C3000 C3004 1.385 . S
C3001 H2976 0.951 . S
C3001 C2999 1.388 1_655 S
C3001 C3002 1.366 . S
C3002 C3001 1.366 . S
C3002 C3003 1.414 1_655 S
C3002 C3005 1.499 . S
C3003 H2977 0.950 . S
C3003 C3002 1.414 1_455 S
C3003 C3004 1.374 . S
C3004 H2978 0.950 . S
C3004 C3000 1.385 . S
C3004 C3003 1.374 . S
C3005 C3002 1.499 . S
C3005 C3006 1.373 . S
C3005 C3007 1.389 . S
C3006 H2979 0.950 . S
C3006 C2992 1.377 . S
C3006 C3005 1.373 . S
C3007 C2991 1.377 . S
C3007 C3005 1.389 . S
C3007 C3008 1.524 . S
C3008 C3007 1.524 . S
C3008 C3009 1.397 . S
C3008 C3013 1.363 . S
C3009 H2980 0.950 . S
C3009 C3008 1.397 . S
C3009 C3010 1.334 . S
C3010 H2981 0.950 . S
C3010 C3009 1.334 . S
C3010 C3011 1.287 . S
C3011 C3010 1.287 . S
C3011 C3012 1.524 . S
C3011 H3014 0.999 . S
C3012 H2982 0.950 . S
C3012 C3011 1.524 . S
C3012 C3013 1.415 . S
C3013 H2983 0.950 . S
C3013 C3008 1.363 . S
C3013 C3012 1.415 . S
H3014 C3011 0.999 . S
H3015 C2996 0.913 . S
H3016 C3034 0.951 . S
H3017 C3036 0.951 . S
H3018 C3038 0.950 . S
H3019 C3039 0.950 . S
H3020 C3041 0.950 . S
H3021 C3044 0.950 . S
H3022 C3045 0.950 . S
H3023 C3047 0.950 . S
H3024 C3048 0.950 . S
H3025 C3049 0.951 . S
H3026 C3051 0.951 . S
H3027 C3053 0.950 . S
H3028 C3054 0.950 . S
H3029 C3056 0.950 . S
H3030 C3059 0.950 . S
H3031 C3060 0.950 . S
H3032 C3062 0.950 . S
H3033 C3063 0.950 . S
C3034 H3016 0.951 . S
C3034 C3035 1.366 . S
C3034 C3036 1.388 . S
C3035 C3034 1.366 . S
C3035 C3039 1.385 . S
C3036 H3017 0.951 . S
C3036 C3034 1.388 . S
C3036 C3037 1.366 . S
C3037 C3036 1.366 . S
C3037 C3038 1.414 . S
C3037 C3040 1.499 . S
C3038 H3018 0.950 . S
C3038 C3037 1.414 . S
C3038 C3039 1.374 . S
C3039 H3019 0.950 . S
C3039 C3035 1.385 . S
C3039 C3038 1.374 . S
C3040 C3037 1.499 . S
C3040 C3041 1.373 . S
C3040 C3042 1.389 . S
C3041 H3020 0.950 . S
C3041 C3040 1.373 . S
C3041 C3057 1.377 . S
C3042 C3040 1.389 . S
C3042 C3043 1.524 . S
C3042 C3056 1.377 . S
C3043 C3042 1.524 . S
C3043 C3044 1.397 . S
C3043 C3048 1.363 . S
C3044 H3021 0.950 . S
C3044 C3043 1.397 . S
C3044 C3045 1.334 . S
C3045 H3022 0.950 . S
C3045 C3044 1.334 . S
C3045 C3046 1.287 . S
C3046 C3045 1.287 . S
C3046 C3047 1.524 . S
C3046 H3065 0.913 . S
C3047 H3023 0.950 . S
C3047 C3046 1.524 . S
C3047 C3048 1.415 . S
C3048 H3024 0.950 . S
C3048 C3043 1.363 . S
C3048 C3047 1.415 . S
C3049 H3025 0.951 . S
C3049 C3050 1.366 . S
C3049 C3051 1.388 . S
C3050 C3049 1.366 . S
C3050 C3054 1.385 . S
C3051 H3026 0.951 . S
C3051 C3049 1.388 . S
C3051 C3052 1.366 . S
C3052 C3051 1.366 . S
C3052 C3053 1.414 . S
C3052 C3055 1.499 . S
C3053 H3027 0.950 . S
C3053 C3052 1.414 . S
C3053 C3054 1.374 . S
C3054 H3028 0.950 . S
C3054 C3050 1.385 . S
C3054 C3053 1.374 . S
C3055 C3052 1.499 . S
C3055 C3056 1.373 . S
C3055 C3057 1.389 . S
C3056 H3029 0.950 . S
C3056 C3042 1.377 . S
C3056 C3055 1.373 . S
C3057 C3041 1.377 . S
C3057 C3055 1.389 . S
C3057 C3058 1.524 . S
C3058 C3057 1.524 . S
C3058 C3059 1.397 . S
C3058 C3063 1.363 . S
C3059 H3030 0.950 . S
C3059 C3058 1.397 . S
C3059 C3060 1.334 . S
C3060 H3031 0.950 . S
C3060 C3059 1.334 . S
C3060 C3061 1.287 . S
C3061 C3060 1.287 . S
C3061 C3062 1.524 . S
C3061 H3064 0.999 . S
C3062 H3032 0.950 . S
C3062 C3061 1.524 . S
C3062 C3063 1.415 . S
C3063 H3033 0.950 . S
C3063 C3058 1.363 . S
C3063 C3062 1.415 . S
H3064 C3061 0.999 . S
H3065 C3046 0.913 . S
H3066 C3084 0.951 . S
H3067 C3086 0.951 . S
H3068 C3088 0.950 . S
H3069 C3089 0.950 . S
H3070 C3091 0.950 . S
H3071 C3094 0.950 . S
H3072 C3095 0.950 . S
H3073 C3097 0.950 . S
H3074 C3098 0.950 . S
H3075 C3099 0.951 . S
H3076 C3101 0.951 . S
H3077 C3103 0.950 . S
H3078 C3104 0.950 . S
H3079 C3106 0.950 . S
H3080 C3109 0.950 . S
H3081 C3110 0.950 . S
H3082 C3112 0.950 . S
H3083 C3113 0.950 . S
C3084 H3066 0.951 . S
C3084 C3085 1.366 . S
C3084 C3086 1.388 1_455 S
C3085 C3084 1.366 . S
C3085 C3089 1.385 . S
C3086 H3067 0.951 . S
C3086 C3084 1.388 1_655 S
C3086 C3087 1.366 . S
C3087 C3086 1.366 . S
C3087 C3088 1.414 1_655 S
C3087 C3090 1.499 . S
C3088 H3068 0.950 . S
C3088 C3087 1.414 1_455 S
C3088 C3089 1.374 . S
C3089 H3069 0.950 . S
C3089 C3085 1.385 . S
C3089 C3088 1.374 . S
C3090 C3087 1.499 . S
C3090 C3091 1.373 . S
C3090 C3092 1.389 . S
C3091 H3070 0.950 . S
C3091 C3090 1.373 . S
C3091 C3107 1.377 . S
C3092 C3090 1.389 . S
C3092 C3093 1.524 . S
C3092 C3106 1.377 . S
C3093 C3092 1.524 . S
C3093 C3094 1.397 . S
C3093 C3098 1.363 . S
C3094 H3071 0.950 . S
C3094 C3093 1.397 . S
C3094 C3095 1.334 . S
C3095 H3072 0.950 . S
C3095 C3094 1.334 . S
C3095 C3096 1.287 . S
C3096 C3095 1.287 . S
C3096 C3097 1.524 . S
C3096 H3115 0.913 . S
C3097 H3073 0.950 . S
C3097 C3096 1.524 . S
C3097 C3098 1.415 . S
C3098 H3074 0.950 . S
C3098 C3093 1.363 . S
C3098 C3097 1.415 . S
C3099 H3075 0.951 . S
C3099 C3100 1.366 . S
C3099 C3101 1.388 . S
C3100 C3099 1.366 . S
C3100 C3104 1.385 . S
C3101 H3076 0.951 . S
C3101 C3099 1.388 . S
C3101 C3102 1.366 . S
C3102 C3101 1.366 . S
C3102 C3103 1.414 . S
C3102 C3105 1.499 . S
C3103 H3077 0.950 . S
C3103 C3102 1.414 . S
C3103 C3104 1.374 . S
C3104 H3078 0.950 . S
C3104 C3100 1.385 . S
C3104 C3103 1.374 . S
C3105 C3102 1.499 . S
C3105 C3106 1.373 . S
C3105 C3107 1.389 . S
C3106 H3079 0.950 . S
C3106 C3092 1.377 . S
C3106 C3105 1.373 . S
C3107 C3091 1.377 . S
C3107 C3105 1.389 . S
C3107 C3108 1.524 . S
C3108 C3107 1.524 . S
C3108 C3109 1.397 . S
C3108 C3113 1.363 . S
C3109 H3080 0.950 . S
C3109 C3108 1.397 . S
C3109 C3110 1.334 . S
C3110 H3081 0.950 . S
C3110 C3109 1.334 . S
C3110 C3111 1.287 . S
C3111 C3110 1.287 . S
C3111 C3112 1.524 . S
C3111 H3114 0.999 . S
C3112 H3082 0.950 . S
C3112 C3111 1.524 . S
C3112 C3113 1.415 . S
C3113 H3083 0.950 . S
C3113 C3108 1.363 . S
C3113 C3112 1.415 . S
H3114 C3111 0.999 . S
H3115 C3096 0.913 . S
H3116 C3134 0.951 . S
H3117 C3136 0.951 . S
H3118 C3138 0.950 . S
H3119 C3139 0.950 . S
H3120 C3141 0.950 . S
H3121 C3144 0.950 . S
H3122 C3145 0.950 . S
H3123 C3147 0.950 . S
H3124 C3148 0.950 . S
H3125 C3149 0.951 . S
H3126 C3151 0.951 . S
H3127 C3153 0.950 . S
H3128 C3154 0.950 . S
H3129 C3156 0.950 . S
H3130 C3159 0.950 . S
H3131 C3160 0.950 . S
H3132 C3162 0.950 . S
H3133 C3163 0.950 . S
C3134 H3116 0.951 . S
C3134 C3135 1.366 . S
C3134 C3136 1.388 . S
C3135 C3134 1.366 . S
C3135 C3139 1.385 . S
C3136 H3117 0.951 . S
C3136 C3134 1.388 . S
C3136 C3137 1.366 . S
C3137 C3136 1.366 . S
C3137 C3138 1.414 . S
C3137 C3140 1.499 . S
C3138 H3118 0.950 . S
C3138 C3137 1.414 . S
C3138 C3139 1.374 . S
C3139 H3119 0.950 . S
C3139 C3135 1.385 . S
C3139 C3138 1.374 . S
C3140 C3137 1.499 . S
C3140 C3141 1.373 . S
C3140 C3142 1.389 . S
C3141 H3120 0.950 . S
C3141 C3140 1.373 . S
C3141 C3157 1.377 . S
C3142 C3140 1.389 . S
C3142 C3143 1.524 . S
C3142 C3156 1.377 . S
C3143 C3142 1.524 . S
C3143 C3144 1.397 . S
C3143 C3148 1.363 . S
C3144 H3121 0.950 . S
C3144 C3143 1.397 . S
C3144 C3145 1.334 . S
C3145 H3122 0.950 . S
C3145 C3144 1.334 . S
C3145 C3146 1.287 . S
C3146 C3145 1.287 . S
C3146 C3147 1.524 . S
C3146 H3165 0.913 . S
C3147 H3123 0.950 . S
C3147 C3146 1.524 . S
C3147 C3148 1.415 . S
C3148 H3124 0.950 . S
C3148 C3143 1.363 . S
C3148 C3147 1.415 . S
C3149 H3125 0.951 . S
C3149 C3150 1.366 . S
C3149 C3151 1.388 . S
C3150 C3149 1.366 . S
C3150 C3154 1.385 . S
C3151 H3126 0.951 . S
C3151 C3149 1.388 . S
C3151 C3152 1.366 . S
C3152 C3151 1.366 . S
C3152 C3153 1.414 . S
C3152 C3155 1.499 . S
C3153 H3127 0.950 . S
C3153 C3152 1.414 . S
C3153 C3154 1.374 . S
C3154 H3128 0.950 . S
C3154 C3150 1.385 . S
C3154 C3153 1.374 . S
C3155 C3152 1.499 . S
C3155 C3156 1.373 . S
C3155 C3157 1.389 . S
C3156 H3129 0.950 . S
C3156 C3142 1.377 . S
C3156 C3155 1.373 . S
C3157 C3141 1.377 . S
C3157 C3155 1.389 . S
C3157 C3158 1.524 . S
C3158 C3157 1.524 . S
C3158 C3159 1.397 . S
C3158 C3163 1.363 . S
C3159 H3130 0.950 . S
C3159 C3158 1.397 . S
C3159 C3160 1.334 . S
C3160 H3131 0.950 . S
C3160 C3159 1.334 . S
C3160 C3161 1.287 . S
C3161 C3160 1.287 . S
C3161 C3162 1.524 . S
C3161 H3164 0.999 . S
C3162 H3132 0.950 . S
C3162 C3161 1.524 . S
C3162 C3163 1.415 . S
C3163 H3133 0.950 . S
C3163 C3158 1.363 . S
C3163 C3162 1.415 . S
H3164 C3161 0.999 . S
H3165 C3146 0.913 . S
H3166 C3184 0.951 . S
H3167 C3186 0.951 . S
H3168 C3188 0.950 . S
H3169 C3189 0.950 . S
H3170 C3191 0.950 . S
H3171 C3194 0.950 . S
H3172 C3195 0.950 . S
H3173 C3197 0.950 . S
H3174 C3198 0.950 . S
H3175 C3199 0.951 . S
H3176 C3201 0.951 . S
H3177 C3203 0.950 . S
H3178 C3204 0.950 . S
H3179 C3206 0.950 . S
H3180 C3209 0.950 . S
H3181 C3210 0.950 . S
H3182 C3212 0.950 . S
H3183 C3213 0.950 . S
C3184 H3166 0.951 . S
C3184 C3185 1.366 . S
C3184 C3186 1.388 . S
C3185 C3184 1.366 . S
C3185 C3189 1.385 . S
C3186 H3167 0.951 . S
C3186 C3184 1.388 . S
C3186 C3187 1.366 . S
C3187 C3186 1.366 . S
C3187 C3188 1.414 . S
C3187 C3190 1.499 . S
C3188 H3168 0.950 . S
C3188 C3187 1.414 . S
C3188 C3189 1.374 . S
C3189 H3169 0.950 . S
C3189 C3185 1.385 . S
C3189 C3188 1.374 . S
C3190 C3187 1.499 . S
C3190 C3191 1.373 . S
C3190 C3192 1.389 . S
C3191 H3170 0.950 . S
C3191 C3190 1.373 . S
C3191 C3207 1.377 . S
C3192 C3190 1.389 . S
C3192 C3193 1.524 . S
C3192 C3206 1.377 . S
C3193 C3192 1.524 . S
C3193 C3194 1.397 . S
C3193 C3198 1.363 . S
C3194 H3171 0.950 . S
C3194 C3193 1.397 . S
C3194 C3195 1.334 . S
C3195 H3172 0.950 . S
C3195 C3194 1.334 . S
C3195 C3196 1.287 . S
C3196 C3195 1.287 . S
C3196 C3197 1.524 . S
C3196 H3215 0.913 . S
C3197 H3173 0.950 . S
C3197 C3196 1.524 . S
C3197 C3198 1.415 . S
C3198 H3174 0.950 . S
C3198 C3193 1.363 . S
C3198 C3197 1.415 . S
C3199 H3175 0.951 . S
C3199 C3200 1.366 . S
C3199 C3201 1.388 . S
C3200 C3199 1.366 . S
C3200 C3204 1.385 . S
C3201 H3176 0.951 . S
C3201 C3199 1.388 . S
C3201 C3202 1.366 . S
C3202 C3201 1.366 . S
C3202 C3203 1.414 . S
C3202 C3205 1.499 . S
C3203 H3177 0.950 . S
C3203 C3202 1.414 . S
C3203 C3204 1.374 . S
C3204 H3178 0.950 . S
C3204 C3200 1.385 . S
C3204 C3203 1.374 . S
C3205 C3202 1.499 . S
C3205 C3206 1.373 . S
C3205 C3207 1.389 . S
C3206 H3179 0.950 . S
C3206 C3192 1.377 . S
C3206 C3205 1.373 . S
C3207 C3191 1.377 . S
C3207 C3205 1.389 . S
C3207 C3208 1.524 . S
C3208 C3207 1.524 . S
C3208 C3209 1.397 . S
C3208 C3213 1.363 . S
C3209 H3180 0.950 . S
C3209 C3208 1.397 . S
C3209 C3210 1.334 . S
C3210 H3181 0.950 . S
C3210 C3209 1.334 . S
C3210 C3211 1.287 . S
C3211 C3210 1.287 . S
C3211 C3212 1.524 . S
C3211 H3214 0.999 . S
C3212 H3182 0.950 . S
C3212 C3211 1.524 . S
C3212 C3213 1.415 . S
C3213 H3183 0.950 . S
C3213 C3208 1.363 . S
C3213 C3212 1.415 . S
H3214 C3211 0.999 . S
H3215 C3196 0.913 . S
H3216 C3234 0.951 . S
H3217 C3236 0.951 . S
H3218 C3238 0.950 . S
H3219 C3239 0.950 . S
H3220 C3241 0.950 . S
H3221 C3244 0.950 . S
H3222 C3245 0.950 . S
H3223 C3247 0.950 . S
H3224 C3248 0.950 . S
H3225 C3249 0.951 . S
H3226 C3251 0.951 . S
H3227 C3253 0.950 . S
H3228 C3254 0.950 . S
H3229 C3256 0.950 . S
H3230 C3259 0.950 . S
H3231 C3260 0.950 . S
H3232 C3262 0.950 . S
H3233 C3263 0.950 . S
C3234 H3216 0.951 . S
C3234 C3235 1.366 . S
C3234 C3236 1.388 . S
C3235 C3234 1.366 . S
C3235 C3239 1.385 . S
C3236 H3217 0.951 . S
C3236 C3234 1.388 . S
C3236 C3237 1.366 . S
C3237 C3236 1.366 . S
C3237 C3238 1.414 . S
C3237 C3240 1.499 . S
C3238 H3218 0.950 . S
C3238 C3237 1.414 . S
C3238 C3239 1.374 . S
C3239 H3219 0.950 . S
C3239 C3235 1.385 . S
C3239 C3238 1.374 . S
C3240 C3237 1.499 . S
C3240 C3241 1.373 . S
C3240 C3242 1.389 . S
C3241 H3220 0.950 . S
C3241 C3240 1.373 . S
C3241 C3257 1.377 . S
C3242 C3240 1.389 . S
C3242 C3243 1.524 . S
C3242 C3256 1.377 . S
C3243 C3242 1.524 . S
C3243 C3244 1.397 . S
C3243 C3248 1.363 . S
C3244 H3221 0.950 . S
C3244 C3243 1.397 . S
C3244 C3245 1.334 . S
C3245 H3222 0.950 . S
C3245 C3244 1.334 . S
C3245 C3246 1.287 . S
C3246 C3245 1.287 . S
C3246 C3247 1.524 . S
C3246 H3265 0.913 . S
C3247 H3223 0.950 . S
C3247 C3246 1.524 . S
C3247 C3248 1.415 . S
C3248 H3224 0.950 . S
C3248 C3243 1.363 . S
C3248 C3247 1.415 . S
C3249 H3225 0.951 . S
C3249 C3250 1.366 . S
C3249 C3251 1.388 . S
C3250 C3249 1.366 . S
C3250 C3254 1.385 . S
C3251 H3226 0.951 . S
C3251 C3249 1.388 . S
C3251 C3252 1.366 . S
C3252 C3251 1.366 . S
C3252 C3253 1.414 . S
C3252 C3255 1.499 . S
C3253 H3227 0.950 . S
C3253 C3252 1.414 . S
C3253 C3254 1.374 . S
C3254 H3228 0.950 . S
C3254 C3250 1.385 . S
C3254 C3253 1.374 . S
C3255 C3252 1.499 . S
C3255 C3256 1.373 . S
C3255 C3257 1.389 . S
C3256 H3229 0.950 . S
C3256 C3242 1.377 . S
C3256 C3255 1.373 . S
C3257 C3241 1.377 . S
C3257 C3255 1.389 . S
C3257 C3258 1.524 . S
C3258 C3257 1.524 . S
C3258 C3259 1.397 . S
C3258 C3263 1.363 . S
C3259 H3230 0.950 . S
C3259 C3258 1.397 . S
C3259 C3260 1.334 . S
C3260 H3231 0.950 . S
C3260 C3259 1.334 . S
C3260 C3261 1.287 . S
C3261 C3260 1.287 . S
C3261 C3262 1.524 . S
C3261 H3264 0.999 . S
C3262 H3232 0.950 . S
C3262 C3261 1.524 . S
C3262 C3263 1.415 . S
C3263 H3233 0.950 . S
C3263 C3258 1.363 . S
C3263 C3262 1.415 . S
H3264 C3261 0.999 . S
H3265 C3246 0.913 . S
H3266 C3284 0.951 . S
H3267 C3286 0.951 . S
H3268 C3288 0.950 . S
H3269 C3289 0.950 . S
H3270 C3291 0.950 . S
H3271 C3294 0.950 . S
H3272 C3295 0.950 . S
H3273 C3297 0.950 . S
H3274 C3298 0.950 . S
H3275 C3299 0.951 . S
H3276 C3301 0.951 . S
H3277 C3303 0.950 . S
H3278 C3304 0.950 . S
H3279 C3306 0.950 . S
H3280 C3309 0.950 . S
H3281 C3310 0.950 . S
H3282 C3312 0.950 . S
H3283 C3313 0.950 . S
C3284 H3266 0.951 . S
C3284 C3285 1.366 . S
C3284 C3286 1.388 . S
C3285 C3284 1.366 . S
C3285 C3289 1.385 . S
C3286 H3267 0.951 . S
C3286 C3284 1.388 . S
C3286 C3287 1.366 . S
C3287 C3286 1.366 . S
C3287 C3288 1.414 . S
C3287 C3290 1.499 . S
C3288 H3268 0.950 . S
C3288 C3287 1.414 . S
C3288 C3289 1.374 . S
C3289 H3269 0.950 . S
C3289 C3285 1.385 . S
C3289 C3288 1.374 . S
C3290 C3287 1.499 . S
C3290 C3291 1.373 . S
C3290 C3292 1.389 . S
C3291 H3270 0.950 . S
C3291 C3290 1.373 . S
C3291 C3307 1.377 . S
C3292 C3290 1.389 . S
C3292 C3293 1.524 . S
C3292 C3306 1.377 . S
C3293 C3292 1.524 . S
C3293 C3294 1.397 . S
C3293 C3298 1.363 . S
C3294 H3271 0.950 . S
C3294 C3293 1.397 . S
C3294 C3295 1.334 . S
C3295 H3272 0.950 . S
C3295 C3294 1.334 . S
C3295 C3296 1.287 . S
C3296 C3295 1.287 . S
C3296 C3297 1.524 . S
C3296 H3315 0.913 . S
C3297 H3273 0.950 . S
C3297 C3296 1.524 . S
C3297 C3298 1.415 . S
C3298 H3274 0.950 . S
C3298 C3293 1.363 . S
C3298 C3297 1.415 . S
C3299 H3275 0.951 . S
C3299 C3300 1.366 . S
C3299 C3301 1.388 . S
C3300 C3299 1.366 . S
C3300 C3304 1.385 . S
C3301 H3276 0.951 . S
C3301 C3299 1.388 . S
C3301 C3302 1.366 . S
C3302 C3301 1.366 . S
C3302 C3303 1.414 . S
C3302 C3305 1.499 . S
C3303 H3277 0.950 . S
C3303 C3302 1.414 . S
C3303 C3304 1.374 . S
C3304 H3278 0.950 . S
C3304 C3300 1.385 . S
C3304 C3303 1.374 . S
C3305 C3302 1.499 . S
C3305 C3306 1.373 . S
C3305 C3307 1.389 . S
C3306 H3279 0.950 . S
C3306 C3292 1.377 . S
C3306 C3305 1.373 . S
C3307 C3291 1.377 . S
C3307 C3305 1.389 . S
C3307 C3308 1.524 . S
C3308 C3307 1.524 . S
C3308 C3309 1.397 . S
C3308 C3313 1.363 . S
C3309 H3280 0.950 . S
C3309 C3308 1.397 . S
C3309 C3310 1.334 . S
C3310 H3281 0.950 . S
C3310 C3309 1.334 . S
C3310 C3311 1.287 . S
C3311 C3310 1.287 . S
C3311 C3312 1.524 . S
C3311 H3314 0.999 . S
C3312 H3282 0.950 . S
C3312 C3311 1.524 . S
C3312 C3313 1.415 . S
C3313 H3283 0.950 . S
C3313 C3308 1.363 . S
C3313 C3312 1.415 . S
H3314 C3311 0.999 . S
H3315 C3296 0.913 . S
H3316 C3334 0.951 . S
H3317 C3336 0.951 . S
H3318 C3338 0.950 . S
H3319 C3339 0.950 . S
H3320 C3341 0.950 . S
H3321 C3344 0.950 . S
H3322 C3345 0.950 . S
H3323 C3347 0.950 . S
H3324 C3348 0.950 . S
H3325 C3349 0.951 . S
H3326 C3351 0.951 . S
H3327 C3353 0.950 . S
H3328 C3354 0.950 . S
H3329 C3356 0.950 . S
H3330 C3359 0.950 . S
H3331 C3360 0.950 . S
H3332 C3362 0.950 . S
H3333 C3363 0.950 . S
C3334 H3316 0.951 . S
C3334 C3335 1.366 . S
C3334 C3336 1.388 . S
C3335 C3334 1.366 . S
C3335 C3339 1.385 . S
C3336 H3317 0.951 . S
C3336 C3334 1.388 . S
C3336 C3337 1.366 . S
C3337 C3336 1.366 . S
C3337 C3338 1.414 . S
C3337 C3340 1.499 . S
C3338 H3318 0.950 . S
C3338 C3337 1.414 . S
C3338 C3339 1.374 . S
C3339 H3319 0.950 . S
C3339 C3335 1.385 . S
C3339 C3338 1.374 . S
C3340 C3337 1.499 . S
C3340 C3341 1.373 . S
C3340 C3342 1.389 . S
C3341 H3320 0.950 . S
C3341 C3340 1.373 . S
C3341 C3357 1.377 . S
C3342 C3340 1.389 . S
C3342 C3343 1.524 . S
C3342 C3356 1.377 . S
C3343 C3342 1.524 . S
C3343 C3344 1.397 . S
C3343 C3348 1.363 . S
C3344 H3321 0.950 . S
C3344 C3343 1.397 . S
C3344 C3345 1.334 . S
C3345 H3322 0.950 . S
C3345 C3344 1.334 . S
C3345 C3346 1.287 . S
C3346 C3345 1.287 . S
C3346 C3347 1.524 . S
C3346 H3365 0.913 . S
C3347 H3323 0.950 . S
C3347 C3346 1.524 . S
C3347 C3348 1.415 . S
C3348 H3324 0.950 . S
C3348 C3343 1.363 . S
C3348 C3347 1.415 . S
C3349 H3325 0.951 . S
C3349 C3350 1.366 . S
C3349 C3351 1.388 . S
C3350 C3349 1.366 . S
C3350 C3354 1.385 . S
C3351 H3326 0.951 . S
C3351 C3349 1.388 . S
C3351 C3352 1.366 . S
C3352 C3351 1.366 . S
C3352 C3353 1.414 . S
C3352 C3355 1.499 . S
C3353 H3327 0.950 . S
C3353 C3352 1.414 . S
C3353 C3354 1.374 . S
C3354 H3328 0.950 . S
C3354 C3350 1.385 . S
C3354 C3353 1.374 . S
C3355 C3352 1.499 . S
C3355 C3356 1.373 . S
C3355 C3357 1.389 . S
C3356 H3329 0.950 . S
C3356 C3342 1.377 . S
C3356 C3355 1.373 . S
C3357 C3341 1.377 . S
C3357 C3355 1.389 . S
C3357 C3358 1.524 . S
C3358 C3357 1.524 . S
C3358 C3359 1.397 . S
C3358 C3363 1.363 . S
C3359 H3330 0.950 . S
C3359 C3358 1.397 . S
C3359 C3360 1.334 . S
C3360 H3331 0.950 . S
C3360 C3359 1.334 . S
C3360 C3361 1.287 . S
C3361 C3360 1.287 . S
C3361 C3362 1.524 . S
C3361 H3364 0.999 . S
C3362 H3332 0.950 . S
C3362 C3361 1.524 . S
C3362 C3363 1.415 . S
C3363 H3333 0.950 . S
C3363 C3358 1.363 . S
C3363 C3362 1.415 . S
H3364 C3361 0.999 . S
H3365 C3346 0.913 . S
H3366 C3384 0.951 . S
H3367 C3386 0.951 . S
H3368 C3388 0.950 . S
H3369 C3389 0.950 . S
H3370 C3391 0.950 . S
H3371 C3394 0.950 1_455 S
H3372 C3395 0.950 . S
H3373 C3397 0.950 . S
H3374 C3398 0.950 . S
H3375 C3399 0.951 . S
H3376 C3401 0.951 . S
H3377 C3403 0.950 . S
H3378 C3404 0.950 . S
H3379 C3406 0.950 . S
H3380 C3409 0.950 . S
H3381 C3410 0.950 . S
H3382 C3412 0.950 . S
H3383 C3413 0.950 . S
C3384 H3366 0.951 . S
C3384 C3385 1.366 . S
C3384 C3386 1.388 . S
C3385 C3384 1.366 . S
C3385 C3389 1.385 . S
C3386 H3367 0.951 . S
C3386 C3384 1.388 . S
C3386 C3387 1.366 1_655 S
C3387 C3386 1.366 1_455 S
C3387 C3388 1.414 . S
C3387 C3390 1.499 . S
C3388 H3368 0.950 . S
C3388 C3387 1.414 . S
C3388 C3389 1.374 1_455 S
C3389 H3369 0.950 . S
C3389 C3385 1.385 . S
C3389 C3388 1.374 1_655 S
C3390 C3387 1.499 . S
C3390 C3391 1.373 . S
C3390 C3392 1.389 . S
C3391 H3370 0.950 . S
C3391 C3390 1.373 . S
C3391 C3407 1.377 . S
C3392 C3390 1.389 . S
C3392 C3393 1.524 . S
C3392 C3406 1.377 . S
C3393 C3392 1.524 . S
C3393 C3394 1.397 1_455 S
C3393 C3398 1.363 . S
C3394 H3371 0.950 1_655 S
C3394 C3393 1.397 1_655 S
C3394 C3395 1.334 . S
C3395 H3372 0.950 . S
C3395 C3394 1.334 . S
C3395 C3396 1.287 . S
C3396 C3395 1.287 . S
C3396 C3397 1.524 . S
C3396 H3415 0.913 . S
C3397 H3373 0.950 . S
C3397 C3396 1.524 . S
C3397 C3398 1.415 1_655 S
C3398 H3374 0.950 . S
C3398 C3393 1.363 . S
C3398 C3397 1.415 1_455 S
C3399 H3375 0.951 . S
C3399 C3400 1.366 . S
C3399 C3401 1.388 . S
C3400 C3399 1.366 . S
C3400 C3404 1.385 . S
C3401 H3376 0.951 . S
C3401 C3399 1.388 . S
C3401 C3402 1.366 . S
C3402 C3401 1.366 . S
C3402 C3403 1.414 . S
C3402 C3405 1.499 . S
C3403 H3377 0.950 . S
C3403 C3402 1.414 . S
C3403 C3404 1.374 . S
C3404 H3378 0.950 . S
C3404 C3400 1.385 . S
C3404 C3403 1.374 . S
C3405 C3402 1.499 . S
C3405 C3406 1.373 . S
C3405 C3407 1.389 . S
C3406 H3379 0.950 . S
C3406 C3392 1.377 . S
C3406 C3405 1.373 . S
C3407 C3391 1.377 . S
C3407 C3405 1.389 . S
C3407 C3408 1.524 . S
C3408 C3407 1.524 . S
C3408 C3409 1.397 . S
C3408 C3413 1.363 . S
C3409 H3380 0.950 . S
C3409 C3408 1.397 . S
C3409 C3410 1.334 . S
C3410 H3381 0.950 . S
C3410 C3409 1.334 . S
C3410 C3411 1.287 . S
C3411 C3410 1.287 . S
C3411 C3412 1.524 . S
C3411 H3414 0.999 . S
C3412 H3382 0.950 . S
C3412 C3411 1.524 . S
C3412 C3413 1.415 . S
C3413 H3383 0.950 . S
C3413 C3408 1.363 . S
C3413 C3412 1.415 . S
H3414 C3411 0.999 . S
H3415 C3396 0.913 . S
H3416 C3434 0.951 . S
H3417 C3436 0.951 . S
H3418 C3438 0.950 . S
H3419 C3439 0.950 . S
H3420 C3441 0.950 . S
H3421 C3444 0.950 . S
H3422 C3445 0.950 . S
H3423 C3447 0.950 . S
H3424 C3448 0.950 . S
H3425 C3449 0.951 . S
H3426 C3451 0.951 . S
H3427 C3453 0.950 . S
H3428 C3454 0.950 . S
H3429 C3456 0.950 . S
H3430 C3459 0.950 . S
H3431 C3460 0.950 . S
H3432 C3462 0.950 . S
H3433 C3463 0.950 . S
C3434 H3416 0.951 . S
C3434 C3435 1.366 . S
C3434 C3436 1.388 . S
C3435 C3434 1.366 . S
C3435 C3439 1.385 . S
C3436 H3417 0.951 . S
C3436 C3434 1.388 . S
C3436 C3437 1.366 . S
C3437 C3436 1.366 . S
C3437 C3438 1.414 . S
C3437 C3440 1.499 . S
C3438 H3418 0.950 . S
C3438 C3437 1.414 . S
C3438 C3439 1.374 . S
C3439 H3419 0.950 . S
C3439 C3435 1.385 . S
C3439 C3438 1.374 . S
C3440 C3437 1.499 . S
C3440 C3441 1.373 . S
C3440 C3442 1.389 . S
C3441 H3420 0.950 . S
C3441 C3440 1.373 . S
C3441 C3457 1.377 . S
C3442 C3440 1.389 . S
C3442 C3443 1.524 . S
C3442 C3456 1.377 . S
C3443 C3442 1.524 . S
C3443 C3444 1.397 . S
C3443 C3448 1.363 . S
C3444 H3421 0.950 . S
C3444 C3443 1.397 . S
C3444 C3445 1.334 . S
C3445 H3422 0.950 . S
C3445 C3444 1.334 . S
C3445 C3446 1.287 . S
C3446 C3445 1.287 . S
C3446 C3447 1.524 . S
C3446 H3465 0.913 . S
C3447 H3423 0.950 . S
C3447 C3446 1.524 . S
C3447 C3448 1.415 . S
C3448 H3424 0.950 . S
C3448 C3443 1.363 . S
C3448 C3447 1.415 . S
C3449 H3425 0.951 . S
C3449 C3450 1.366 . S
C3449 C3451 1.388 . S
C3450 C3449 1.366 . S
C3450 C3454 1.385 . S
C3451 H3426 0.951 . S
C3451 C3449 1.388 . S
C3451 C3452 1.366 . S
C3452 C3451 1.366 . S
C3452 C3453 1.414 . S
C3452 C3455 1.499 . S
C3453 H3427 0.950 . S
C3453 C3452 1.414 . S
C3453 C3454 1.374 . S
C3454 H3428 0.950 . S
C3454 C3450 1.385 . S
C3454 C3453 1.374 . S
C3455 C3452 1.499 . S
C3455 C3456 1.373 . S
C3455 C3457 1.389 . S
C3456 H3429 0.950 . S
C3456 C3442 1.377 . S
C3456 C3455 1.373 . S
C3457 C3441 1.377 . S
C3457 C3455 1.389 . S
C3457 C3458 1.524 . S
C3458 C3457 1.524 . S
C3458 C3459 1.397 . S
C3458 C3463 1.363 . S
C3459 H3430 0.950 . S
C3459 C3458 1.397 . S
C3459 C3460 1.334 . S
C3460 H3431 0.950 . S
C3460 C3459 1.334 . S
C3460 C3461 1.287 . S
C3461 C3460 1.287 . S
C3461 C3462 1.524 . S
C3461 H3464 0.999 . S
C3462 H3432 0.950 . S
C3462 C3461 1.524 . S
C3462 C3463 1.415 . S
C3463 H3433 0.950 . S
C3463 C3458 1.363 . S
C3463 C3462 1.415 . S
H3464 C3461 0.999 . S
H3465 C3446 0.913 . S
H3466 C3484 0.951 . S
H3467 C3486 0.951 . S
H3468 C3488 0.950 . S
H3469 C3489 0.950 . S
H3470 C3491 0.950 . S
H3471 C3494 0.950 . S
H3472 C3495 0.950 . S
H3473 C3497 0.950 . S
H3474 C3498 0.950 . S
H3475 C3499 0.951 . S
H3476 C3501 0.951 . S
H3477 C3503 0.950 . S
H3478 C3504 0.950 . S
H3479 C3506 0.950 . S
H3480 C3509 0.950 . S
H3481 C3510 0.956 . S
H3482 C3512 0.937 1_655 S
H3483 C3513 0.950 . S
C3484 H3466 0.951 . S
C3484 C3485 1.366 . S
C3484 C3486 1.388 . S
C3485 C3484 1.366 . S
C3485 C3489 1.385 . S
C3486 H3467 0.951 . S
C3486 C3484 1.388 . S
C3486 C3487 1.366 . S
C3487 C3486 1.366 . S
C3487 C3488 1.414 . S
C3487 C3490 1.499 . S
C3488 H3468 0.950 . S
C3488 C3487 1.414 . S
C3488 C3489 1.374 . S
C3489 H3469 0.950 . S
C3489 C3485 1.385 . S
C3489 C3488 1.374 . S
C3490 C3487 1.499 . S
C3490 C3491 1.373 . S
C3490 C3492 1.389 . S
C3491 H3470 0.950 . S
C3491 C3490 1.373 . S
C3491 C3507 1.377 . S
C3492 C3490 1.389 . S
C3492 C3493 1.524 . S
C3492 C3506 1.377 . S
C3493 C3492 1.524 . S
C3493 C3494 1.397 . S
C3493 C3498 1.363 . S
C3494 H3471 0.950 . S
C3494 C3493 1.397 . S
C3494 C3495 1.334 . S
C3495 H3472 0.950 . S
C3495 C3494 1.334 . S
C3495 C3496 1.287 . S
C3496 C3495 1.287 . S
C3496 C3497 1.524 . S
C3496 H3515 0.913 . S
C3497 H3473 0.950 . S
C3497 C3496 1.524 . S
C3497 C3498 1.415 . S
C3498 H3474 0.950 . S
C3498 C3493 1.363 . S
C3498 C3497 1.415 . S
C3499 H3475 0.951 . S
C3499 C3500 1.366 . S
C3499 C3501 1.388 . S
C3500 C3499 1.366 . S
C3500 C3504 1.385 . S
C3501 H3476 0.951 . S
C3501 C3499 1.388 . S
C3501 C3502 1.366 1_655 S
C3502 C3501 1.366 1_455 S
C3502 C3503 1.414 . S
C3502 C3505 1.499 . S
C3503 H3477 0.950 . S
C3503 C3502 1.414 . S
C3503 C3504 1.374 1_455 S
C3504 H3478 0.950 . S
C3504 C3500 1.385 . S
C3504 C3503 1.374 1_655 S
C3505 C3502 1.499 . S
C3505 C3506 1.373 . S
C3505 C3507 1.389 . S
C3506 H3479 0.950 . S
C3506 C3492 1.377 . S
C3506 C3505 1.373 . S
C3507 C3491 1.377 . S
C3507 C3505 1.389 . S
C3507 C3508 1.524 . S
C3508 C3507 1.524 . S
C3508 C3509 1.397 . S
C3508 C3513 1.363 . S
C3509 H3480 0.950 . S
C3509 C3508 1.397 . S
C3509 C3510 1.334 . S
C3510 H3481 0.956 . S
C3510 C3509 1.334 . S
C3510 C3511 1.286 1_455 S
C3511 C3510 1.286 1_655 S
C3511 C3512 1.524 1_655 S
C3511 H3514 1.000 . S
C3512 H3482 0.937 1_455 S
C3512 C3511 1.524 1_455 S
C3512 C3513 1.415 . S
C3513 H3483 0.950 . S
C3513 C3508 1.363 . S
C3513 C3512 1.415 . S
H3514 C3511 1.000 . S
H3515 C3496 0.913 . S
H3516 C3534 0.951 . S
H3517 C3536 0.951 . S
H3518 C3538 0.950 . S
H3519 C3539 0.950 . S
H3520 C3541 0.950 . S
H3521 C3544 0.950 . S
H3522 C3545 0.950 . S
H3523 C3547 0.950 . S
H3524 C3548 0.950 . S
H3525 C3549 0.951 . S
H3526 C3551 0.951 . S
H3527 C3553 0.950 . S
H3528 C3554 0.950 . S
H3529 C3556 0.950 . S
H3530 C3559 0.950 . S
H3531 C3560 0.950 . S
H3532 C3562 0.950 . S
H3533 C3563 0.950 . S
C3534 H3516 0.951 . S
C3534 C3535 1.366 . S
C3534 C3536 1.388 . S
C3535 C3534 1.366 . S
C3535 C3539 1.385 . S
C3536 H3517 0.951 . S
C3536 C3534 1.388 . S
C3536 C3537 1.366 . S
C3537 C3536 1.366 . S
C3537 C3538 1.414 . S
C3537 C3540 1.499 . S
C3538 H3518 0.950 . S
C3538 C3537 1.414 . S
C3538 C3539 1.374 . S
C3539 H3519 0.950 . S
C3539 C3535 1.385 . S
C3539 C3538 1.374 . S
C3540 C3537 1.499 . S
C3540 C3541 1.373 . S
C3540 C3542 1.389 . S
C3541 H3520 0.950 . S
C3541 C3540 1.373 . S
C3541 C3557 1.377 . S
C3542 C3540 1.389 . S
C3542 C3543 1.524 . S
C3542 C3556 1.377 . S
C3543 C3542 1.524 . S
C3543 C3544 1.397 . S
C3543 C3548 1.363 . S
C3544 H3521 0.950 . S
C3544 C3543 1.397 . S
C3544 C3545 1.334 . S
C3545 H3522 0.950 . S
C3545 C3544 1.334 . S
C3545 C3546 1.287 . S
C3546 C3545 1.287 . S
C3546 C3547 1.524 . S
C3546 H3565 0.913 . S
C3547 H3523 0.950 . S
C3547 C3546 1.524 . S
C3547 C3548 1.415 . S
C3548 H3524 0.950 . S
C3548 C3543 1.363 . S
C3548 C3547 1.415 . S
C3549 H3525 0.951 . S
C3549 C3550 1.366 . S
C3549 C3551 1.388 . S
C3550 C3549 1.366 . S
C3550 C3554 1.385 . S
C3551 H3526 0.951 . S
C3551 C3549 1.388 . S
C3551 C3552 1.366 . S
C3552 C3551 1.366 . S
C3552 C3553 1.414 . S
C3552 C3555 1.499 . S
C3553 H3527 0.950 . S
C3553 C3552 1.414 . S
C3553 C3554 1.374 . S
C3554 H3528 0.950 . S
C3554 C3550 1.385 . S
C3554 C3553 1.374 . S
C3555 C3552 1.499 . S
C3555 C3556 1.373 . S
C3555 C3557 1.389 . S
C3556 H3529 0.950 . S
C3556 C3542 1.377 . S
C3556 C3555 1.373 . S
C3557 C3541 1.377 . S
C3557 C3555 1.389 . S
C3557 C3558 1.524 . S
C3558 C3557 1.524 . S
C3558 C3559 1.397 . S
C3558 C3563 1.363 . S
C3559 H3530 0.950 . S
C3559 C3558 1.397 . S
C3559 C3560 1.334 . S
C3560 H3531 0.950 . S
C3560 C3559 1.334 . S
C3560 C3561 1.287 . S
C3561 C3560 1.287 . S
C3561 C3562 1.524 . S
C3561 H3564 0.999 . S
C3562 H3532 0.950 . S
C3562 C3561 1.524 . S
C3562 C3563 1.415 . S
C3563 H3533 0.950 . S
C3563 C3558 1.363 . S
C3563 C3562 1.415 . S
H3564 C3561 0.999 . S
H3565 C3546 0.913 . S
H3566 C3584 0.951 . S
H3567 C3586 0.951 . S
H3568 C3588 0.950 . S
H3569 C3589 0.950 . S
H3570 C3591 0.950 . S
H3571 C3594 0.950 . S
H3572 C3595 0.950 . S
H3573 C3597 0.950 . S
H3574 C3598 0.950 . S
H3575 C3599 0.951 . S
H3576 C3601 0.951 . S
H3577 C3603 0.950 . S
H3578 C3604 0.950 . S
H3579 C3606 0.950 . S
H3580 C3609 0.950 . S
H3581 C3610 0.950 . S
H3582 C3612 0.950 . S
H3583 C3613 0.950 . S
C3584 H3566 0.951 . S
C3584 C3585 1.366 . S
C3584 C3586 1.388 . S
C3585 C3584 1.366 . S
C3585 C3589 1.385 . S
C3586 H3567 0.951 . S
C3586 C3584 1.388 . S
C3586 C3587 1.366 . S
C3587 C3586 1.366 . S
C3587 C3588 1.414 . S
C3587 C3590 1.499 . S
C3588 H3568 0.950 . S
C3588 C3587 1.414 . S
C3588 C3589 1.374 . S
C3589 H3569 0.950 . S
C3589 C3585 1.385 . S
C3589 C3588 1.374 . S
C3590 C3587 1.499 . S
C3590 C3591 1.373 . S
C3590 C3592 1.389 . S
C3591 H3570 0.950 . S
C3591 C3590 1.373 . S
C3591 C3607 1.377 . S
C3592 C3590 1.389 . S
C3592 C3593 1.524 . S
C3592 C3606 1.377 . S
C3593 C3592 1.524 . S
C3593 C3594 1.397 . S
C3593 C3598 1.363 . S
C3594 H3571 0.950 . S
C3594 C3593 1.397 . S
C3594 C3595 1.334 . S
C3595 H3572 0.950 . S
C3595 C3594 1.334 . S
C3595 C3596 1.287 . S
C3596 C3595 1.287 . S
C3596 C3597 1.524 . S
C3596 H3615 0.913 . S
C3597 H3573 0.950 . S
C3597 C3596 1.524 . S
C3597 C3598 1.415 . S
C3598 H3574 0.950 . S
C3598 C3593 1.363 . S
C3598 C3597 1.415 . S
C3599 H3575 0.951 . S
C3599 C3600 1.366 . S
C3599 C3601 1.388 . S
C3600 C3599 1.366 . S
C3600 C3604 1.385 . S
C3601 H3576 0.951 . S
C3601 C3599 1.388 . S
C3601 C3602 1.366 . S
C3602 C3601 1.366 . S
C3602 C3603 1.414 . S
C3602 C3605 1.499 . S
C3603 H3577 0.950 . S
C3603 C3602 1.414 . S
C3603 C3604 1.374 . S
C3604 H3578 0.950 . S
C3604 C3600 1.385 . S
C3604 C3603 1.374 . S
C3605 C3602 1.499 . S
C3605 C3606 1.373 . S
C3605 C3607 1.389 . S
C3606 H3579 0.950 . S
C3606 C3592 1.377 . S
C3606 C3605 1.373 . S
C3607 C3591 1.377 . S
C3607 C3605 1.389 . S
C3607 C3608 1.524 . S
C3608 C3607 1.524 . S
C3608 C3609 1.397 . S
C3608 C3613 1.363 . S
C3609 H3580 0.950 . S
C3609 C3608 1.397 . S
C3609 C3610 1.334 . S
C3610 H3581 0.950 . S
C3610 C3609 1.334 . S
C3610 C3611 1.287 . S
C3611 C3610 1.287 . S
C3611 C3612 1.524 . S
C3611 H3614 0.999 . S
C3612 H3582 0.950 . S
C3612 C3611 1.524 . S
C3612 C3613 1.415 . S
C3613 H3583 0.950 . S
C3613 C3608 1.363 . S
C3613 C3612 1.415 . S
H3614 C3611 0.999 . S
H3615 C3596 0.913 . S
C435 C52 1.453 . S
C450 C0 1.453 . S
C485 C65 1.453 . S
C500 C13 1.453 . S
C535 C78 1.453 . S
C550 C26 1.452 . S
C585 C39 1.453 . S
C600 C91 1.453 . S
C635 C104 1.453 . S
C650 C156 1.452 . S
C685 C169 1.453 . S
C700 C117 1.452 . S
C735 C130 1.453 . S
C750 C182 1.453 . S
C785 C195 1.453 . S
C800 C143 1.453 . S
C835 C208 1.453 . S
C850 C260 1.452 . S
C885 C273 1.453 . S
C900 C221 1.453 . S
C935 C286 1.453 . S
C950 C234 1.452 . S
C985 C299 1.452 . S
C1000 C247 1.453 . S
C1035 C312 1.453 . S
C1050 C364 1.452 . S
C1085 C325 1.452 . S
C1100 C377 1.453 . S
C1135 C338 1.453 . S
C1150 C390 1.452 . S
C1185 C351 1.452 . S
C1200 C403 1.453 . S
C1235 C8 0.678 . S
C1250 C99 0.680 . S
C1285 C21 0.679 . S
C1300 C60 0.680 . S
C1335 C34 0.680 . S
C1350 C73 0.678 . S
C1385 C86 0.680 . S
C1400 C47 0.678 . S
C1435 C203 0.679 . S
C1450 C112 0.679 . S
C1485 C164 0.680 . S
C1500 C125 0.678 . S
C1535 C177 0.680 . S
C1550 C138 0.679 . S
C1585 C151 0.678 . S
C1600 C190 0.680 . S
C1635 C307 0.679 . S
C1650 C216 0.679 . S
C1685 C268 0.679 . S
C1700 C229 0.680 . S
C1735 C281 0.678 . S
C1750 C242 0.680 . S
C1785 C255 0.678 . S
C1800 C294 0.680 . S
C1835 C320 0.679 . S
C1850 C411 0.679 . S
C1885 C333 0.678 . S
C1900 C372 0.680 . S
C1935 C346 0.679 . S
C1950 C385 0.680 . S
C1985 C398 0.679 . S
C2000 C359 0.679 . S
C2035 C5 1.368 . S
C2050 C335 1.403 . S
C2085 C18 1.369 . S
C2100 C140 1.403 . S
C2135 C31 1.369 . S
C2150 C361 1.403 . S
C2185 C114 1.403 . S
C2200 C44 1.369 . S
C2235 C413 1.403 . S
C2250 C57 1.368 . S
C2285 C70 1.368 . S
C2300 C166 1.403 . S
C2335 C83 1.368 . S
C2350 C387 1.403 . S
C2385 C96 1.368 . S
C2400 C192 1.403 . S
C2435 C231 1.403 . S
C2450 C109 1.368 . S
C2485 C36 1.403 . S
C2500 C122 1.368 . S
C2535 C257 1.403 . S
C2550 C135 1.368 . S
C2585 C148 1.368 . S
C2600 C10 1.403 . S
C2635 C309 1.403 . S
C2650 C161 1.368 . S
C2685 C62 1.403 . S
C2700 C174 1.368 . S
C2735 C283 1.403 . S
C2750 C187 1.368 . S
C2785 C88 1.403 . S
C2800 C200 1.368 . S
C2835 C127 1.403 . S
C2850 C213 1.368 . S
C2885 C226 1.369 . S
C2900 C348 1.403 . S
C2935 C239 1.369 . S
C2950 C153 1.403 . S
C2985 C252 1.368 . S
C3000 C322 1.403 . S
C3035 C265 1.368 . S
C3050 C205 1.403 . S
C3085 C374 1.403 . S
C3100 C278 1.368 . S
C3135 C291 1.369 . S
C3150 C179 1.403 . S
C3185 C304 1.369 . S
C3200 C400 1.403 . S
C3235 C317 1.368 . S
C3250 C23 1.403 . S
C3285 C330 1.368 . S
C3300 C244 1.403 . S
C3335 C49 1.403 . S
C3350 C343 1.369 . S
C3385 C218 1.403 . S
C3400 C356 1.368 . S
C3435 C369 1.368 . S
C3450 C101 1.403 . S
C3485 C382 1.368 . S
C3500 C270 1.403 . S
C3535 C75 1.403 . S
C3550 C395 1.369 . S
C3585 C296 1.403 . S
C3600 C408 1.369 . S
