# Generated by pormake.
# Topology und, (4)-cn, num edge types: 1
# Building blocks:
#     Node 0, Type 0, BuildingBlock: UXUYUI_clean_sbu_0, # of connection points: 4
#     Node 1, Type 0, BuildingBlock: UXUYUI_clean_sbu_0, # of connection points: 4
#     Node 2, Type 0, BuildingBlock: UXUYUI_clean_sbu_0, # of connection points: 4
#     Node 3, Type 0, BuildingBlock: UXUYUI_clean_sbu_0, # of connection points: 4
#     Node 4, Type 0, BuildingBlock: UXUYUI_clean_sbu_0, # of connection points: 4
#     Node 5, Type 0, BuildingBlock: UXUYUI_clean_sbu_0, # of connection points: 4
#     Node 6, Type 0, BuildingBlock: UXUYUI_clean_sbu_0, # of connection points: 4
#     Node 7, Type 0, BuildingBlock: UXUYUI_clean_sbu_0, # of connection points: 4
#     Node 8, Type 0, BuildingBlock: UXUYUI_clean_sbu_0, # of connection points: 4
#     Node 9, Type 0, BuildingBlock: UXUYUI_clean_sbu_0, # of connection points: 4
#     Node 10, Type 0, BuildingBlock: UXUYUI_clean_sbu_0, # of connection points: 4
#     Node 11, Type 0, BuildingBlock: UXUYUI_clean_sbu_0, # of connection points: 4
#     Node 12, Type 0, BuildingBlock: UXUYUI_clean_sbu_0, # of connection points: 4
#     Node 13, Type 0, BuildingBlock: UXUYUI_clean_sbu_0, # of connection points: 4
#     Node 14, Type 0, BuildingBlock: UXUYUI_clean_sbu_0, # of connection points: 4
#     Node 15, Type 0, BuildingBlock: UXUYUI_clean_sbu_0, # of connection points: 4
#     Edge 16, Type (0, 0), BuildingBlock: KIFKEQ_clean_linker_1, # of connection points: 2
#     Edge 17, Type (0, 0), BuildingBlock: KIFKEQ_clean_linker_1, # of connection points: 2
#     Edge 18, Type (0, 0), BuildingBlock: KIFKEQ_clean_linker_1, # of connection points: 2
#     Edge 19, Type (0, 0), BuildingBlock: KIFKEQ_clean_linker_1, # of connection points: 2
#     Edge 20, Type (0, 0), BuildingBlock: KIFKEQ_clean_linker_1, # of connection points: 2
#     Edge 21, Type (0, 0), BuildingBlock: KIFKEQ_clean_linker_1, # of connection points: 2
#     Edge 22, Type (0, 0), BuildingBlock: KIFKEQ_clean_linker_1, # of connection points: 2
#     Edge 23, Type (0, 0), BuildingBlock: KIFKEQ_clean_linker_1, # of connection points: 2
#     Edge 24, Type (0, 0), BuildingBlock: KIFKEQ_clean_linker_1, # of connection points: 2
#     Edge 25, Type (0, 0), BuildingBlock: KIFKEQ_clean_linker_1, # of connection points: 2
#     Edge 26, Type (0, 0), BuildingBlock: KIFKEQ_clean_linker_1, # of connection points: 2
#     Edge 27, Type (0, 0), BuildingBlock: KIFKEQ_clean_linker_1, # of connection points: 2
#     Edge 28, Type (0, 0), BuildingBlock: KIFKEQ_clean_linker_1, # of connection points: 2
#     Edge 29, Type (0, 0), BuildingBlock: KIFKEQ_clean_linker_1, # of connection points: 2
#     Edge 30, Type (0, 0), BuildingBlock: KIFKEQ_clean_linker_1, # of connection points: 2
#     Edge 31, Type (0, 0), BuildingBlock: KIFKEQ_clean_linker_1, # of connection points: 2
#     Edge 32, Type (0, 0), BuildingBlock: KIFKEQ_clean_linker_1, # of connection points: 2
#     Edge 33, Type (0, 0), BuildingBlock: KIFKEQ_clean_linker_1, # of connection points: 2
#     Edge 34, Type (0, 0), BuildingBlock: KIFKEQ_clean_linker_1, # of connection points: 2
#     Edge 35, Type (0, 0), BuildingBlock: KIFKEQ_clean_linker_1, # of connection points: 2
#     Edge 36, Type (0, 0), BuildingBlock: KIFKEQ_clean_linker_1, # of connection points: 2
#     Edge 37, Type (0, 0), BuildingBlock: KIFKEQ_clean_linker_1, # of connection points: 2
#     Edge 38, Type (0, 0), BuildingBlock: KIFKEQ_clean_linker_1, # of connection points: 2
#     Edge 39, Type (0, 0), BuildingBlock: KIFKEQ_clean_linker_1, # of connection points: 2
#     Edge 40, Type (0, 0), BuildingBlock: KIFKEQ_clean_linker_1, # of connection points: 2
#     Edge 41, Type (0, 0), BuildingBlock: KIFKEQ_clean_linker_1, # of connection points: 2
#     Edge 42, Type (0, 0), BuildingBlock: KIFKEQ_clean_linker_1, # of connection points: 2
#     Edge 43, Type (0, 0), BuildingBlock: KIFKEQ_clean_linker_1, # of connection points: 2
#     Edge 44, Type (0, 0), BuildingBlock: KIFKEQ_clean_linker_1, # of connection points: 2
#     Edge 45, Type (0, 0), BuildingBlock: KIFKEQ_clean_linker_1, # of connection points: 2
#     Edge 46, Type (0, 0), BuildingBlock: KIFKEQ_clean_linker_1, # of connection points: 2
#     Edge 47, Type (0, 0), BuildingBlock: KIFKEQ_clean_linker_1, # of connection points: 2
# Relax obj value: 0.184
# Max RMSD: 0.213
# Mean RMSD: 0.213
data_MOF--net-und--node1-UXUYUI_clean_sbu_0--edge1-KIFKEQ_clean_linker_1
_symmetry_space_group_name_H-M    P1
_symmetry_Int_Tables_number       1
_symmetry_cell_setting            triclinic
loop_
_symmetry_equiv_pos_as_xyz
'x, y, z'
_cell_length_a     87.380264
_cell_length_b     87.415205
_cell_length_c     33.087587
_cell_angle_alpha  89.986675
_cell_angle_beta   90.027549
_cell_angle_gamma 89.997428
loop_
_atom_site_label
_atom_site_type_symbol
_atom_site_fract_x
_atom_site_fract_y
_atom_site_fract_z
_atom_type_partial_charge
Li0 Li 0.23692 0.34036 0.0117 0.0
Li1 Li 0.26372 0.33947 0.98975 0.0
Li2 Li 0.24512 0.32151 0.96341 0.0
Li3 Li 0.25284 0.3199 0.03178 0.0
C4 C 0.245 0.35909 0.9459 0.0
N5 N 0.24496 0.38969 0.92496 0.0
C6 C 0.24831 0.37025 0.97491 0.0
C7 C 0.2417 0.3635 0.90626 0.0
C8 C 0.24823 0.38566 0.96372 0.0
C9 C 0.24172 0.37903 0.89627 0.0
C10 C 0.26439 0.34037 0.07924 0.0
C11 C 0.28804 0.33299 0.11143 0.0
N12 N 0.28175 0.33608 0.14813 0.0
C13 C 0.25818 0.34353 0.11725 0.0
C14 C 0.27946 0.3351 0.07625 0.0
C15 C 0.26714 0.34127 0.15172 0.0
C16 C 0.21711 0.35034 0.07019 0.0
N17 N 0.22055 0.35261 0.03064 0.0
C18 C 0.20117 0.37176 0.02507 0.0
C19 C 0.21264 0.36279 0.00762 0.0
C20 C 0.19783 0.37011 0.0664 0.0
C21 C 0.20579 0.35904 0.08884 0.0
H22 H 0.22325 0.34177 0.08725 0.0
H23 H 0.2153 0.36408 0.97592 0.0
C24 C 0.28596 0.34904 0.93599 0.0
N25 N 0.28073 0.35133 0.97413 0.0
C26 C 0.29722 0.35857 0.91998 0.0
C27 C 0.29774 0.3724 0.98329 0.0
C28 C 0.28641 0.36262 0.99803 0.0
C29 C 0.30313 0.37059 0.94351 0.0
H30 H 0.28097 0.34011 0.91756 0.0
H31 H 0.28181 0.36432 0.02803 0.0
C32 C 0.21695 0.31663 -0.00104 0.0
N33 N 0.18686 0.31294 0.97515 0.0
C34 C 0.20741 0.30646 0.01961 0.0
C35 C 0.21118 0.32494 0.96619 0.0
C36 C 0.19223 0.30475 0.0071 0.0
C37 C 0.19594 0.3229 0.95463 0.0
C38 C 0.27004 0.30242 0.97559 0.0
C39 C 0.26032 0.29039 0.98635 0.0
C40 C 0.2837 0.2993 0.9553 0.0
C41 C 0.26447 0.2754 0.97672 0.0
C42 C 0.28745 0.28415 0.94621 0.0
N43 N 0.27784 0.27261 0.95702 0.0
C44 C 0.24727 0.31422 0.88151 0.0
C45 C 0.2333 0.29619 0.92038 0.0
C46 C 0.24699 0.3045 0.84805 0.0
N47 N 0.24075 0.30977 0.91687 0.0
C48 C 0.23288 0.28606 0.88787 0.0
C49 C 0.24011 0.29004 0.85149 0.0
H50 H 0.25335 0.32499 0.87998 0.0
H51 H 0.22843 0.29282 0.94905 0.0
C52 C 0.24308 0.30572 0.10061 0.0
N53 N 0.25544 0.30632 0.07586 0.0
C54 C 0.24238 0.29493 0.13144 0.0
C55 C 0.26745 0.28588 0.11172 0.0
C56 C 0.26773 0.29701 0.08139 0.0
C57 C 0.25445 0.2845 0.13657 0.0
H58 H 0.23356 0.3134 0.0956 0.0
H59 H 0.27747 0.29784 0.06137 0.0
O60 O 0.24522 0.34389 0.95575 0.0
O61 O 0.25572 0.3421 0.04512 0.0
O62 O 0.23181 0.31839 0.0112 0.0
O63 O 0.26612 0.31724 0.98392 0.0
H64 H 0.25089 0.36709 0.00575 0.0
H65 H 0.23918 0.35499 0.88344 0.0
H66 H 0.25076 0.3944 0.98585 0.0
H67 H 0.23918 0.38261 0.86569 0.0
H68 H 0.29968 0.32883 0.10957 0.0
H69 H 0.24659 0.34769 0.12017 0.0
H70 H 0.28439 0.33246 0.04707 0.0
H71 H 0.26248 0.34364 0.18134 0.0
H72 H 0.19528 0.38016 0.0067 0.0
H73 H 0.20331 0.35714 0.12051 0.0
H74 H 0.3008 0.3569 0.88897 0.0
H75 H 0.30207 0.38141 0.00262 0.0
H76 H 0.2117 0.29996 0.04505 0.0
H77 H 0.21834 0.33286 0.94975 0.0
H78 H 0.18472 0.29691 0.0228 0.0
H79 H 0.19133 0.32925 0.92934 0.0
H80 H 0.24964 0.29259 0.00181 0.0
H81 H 0.2913 0.30851 0.94656 0.0
H82 H 0.25705 0.26598 0.98483 0.0
H83 H 0.298 0.28156 0.93051 0.0
H84 H 0.25281 0.3079 0.82059 0.0
H85 H 0.22738 0.27505 0.89151 0.0
H86 H 0.23233 0.29459 0.15056 0.0
H87 H 0.277 0.27807 0.11455 0.0
Li88 Li 0.92461 0.99289 0.2124 0.0
Li89 Li 0.92554 0.00416 0.27863 0.0
Li90 Li 0.90521 0.98679 0.26276 0.0
Li91 Li 0.90615 0.01296 0.2326 0.0
C92 C 0.9417 0.9766 0.27002 0.0
N93 N 0.97098 0.96547 0.28145 0.0
C94 C 0.95437 0.98557 0.25986 0.0
C95 C 0.94392 0.96198 0.28606 0.0
C96 C 0.96907 0.97974 0.26586 0.0
C97 C 0.95882 0.95655 0.29157 0.0
C98 C 0.93731 0.02697 0.22137 0.0
C99 C 0.94153 0.05409 0.22891 0.0
N100 N 0.95547 0.05255 0.2111 0.0
C101 C 0.95161 0.02569 0.20275 0.0
C102 C 0.93216 0.0413 0.23424 0.0
C103 C 0.96065 0.03875 0.198 0.0
C104 C 0.93559 0.99662 0.13574 0.0
N105 N 0.93604 0.98659 0.16704 0.0
C106 C 0.95478 0.9714 0.13324 0.0
C107 C 0.94501 0.97388 0.16598 0.0
C108 C 0.95505 0.98198 0.10129 0.0
C109 C 0.94501 0.99451 0.1023 0.0
H110 H 0.92833 0.00662 0.13761 0.0
H111 H 0.94495 0.96594 0.19099 0.0
C112 C 0.93773 -0.00061 0.35407 0.0
N113 N 0.93912 0.00893 0.32186 0.0
C114 C 0.94812 0.00013 0.3859 0.0
C115 C 0.96138 0.02044 0.35077 0.0
C116 C 0.95054 0.01949 0.31982 0.0
C117 C 0.96028 0.01056 0.38406 0.0
H118 H 0.92886 0.99076 0.35423 0.0
H119 H 0.95165 0.02676 0.2937 0.0
C120 C 0.89773 0.98043 0.18233 0.0
N121 N 0.88912 0.95533 0.137 0.0
C122 C 0.88662 0.98193 0.15222 0.0
C123 C 0.9045 0.96618 0.18934 0.0
C124 C 0.88241 0.96909 0.12964 0.0
C125 C 0.89998 0.95363 0.16611 0.0
C126 C 0.90312 0.013 0.32772 0.0
C127 C 0.8991 0.00391 0.3608 0.0
C128 C 0.90717 0.02829 0.33383 0.0
C129 C 0.89951 0.01019 0.39961 0.0
C130 C 0.90745 0.03415 0.3731 0.0
N131 N 0.90367 0.02505 0.40491 0.0
C132 C 0.89835 0.96356 0.31672 0.0
C133 C 0.87849 0.9683 0.26942 0.0
C134 C 0.88958 0.95236 0.33576 0.0
N135 N 0.89265 0.9713 0.28446 0.0
C136 C 0.8694 0.95702 0.28719 0.0
C137 C 0.87491 0.94901 0.32103 0.0
H138 H 0.90964 0.9663 0.32805 0.0
H139 H 0.87422 0.97476 0.24392 0.0
C140 C 0.89904 0.03545 0.17605 0.0
N141 N 0.89483 0.02954 0.21234 0.0
C142 C 0.89071 0.04742 0.15893 0.0
C143 C 0.87391 0.04696 0.21703 0.0
C144 C 0.88262 0.03505 0.23311 0.0
C145 C 0.87786 0.05324 0.17928 0.0
H146 H 0.90885 0.03078 0.16035 0.0
H147 H 0.87954 0.03001 0.26185 0.0
O148 O 0.92717 0.98211 0.26496 0.0
O149 O 0.92827 0.0143 0.22597 0.0
O150 O 0.90193 0.99292 0.20463 0.0
O151 O 0.90301 0.00698 0.28955 0.0
H152 H 0.95286 0.99691 0.24762 0.0
H153 H 0.93423 0.9549 0.29414 0.0
H154 H 0.97897 0.98658 0.25816 0.0
H155 H 0.9607 0.94525 0.30393 0.0
H156 H 0.9377 0.06524 0.23883 0.0
H157 H 0.95571 0.01473 0.19204 0.0
H158 H 0.92102 0.04258 0.24796 0.0
H159 H 0.97177 0.03791 0.1838 0.0
H160 H 0.96227 0.96153 0.13326 0.0
H161 H 0.945 0.00301 0.07846 0.0
H162 H 0.94707 0.99214 0.41077 0.0
H163 H 0.97066 0.0286 0.3484 0.0
H164 H 0.88129 0.99289 0.14642 0.0
H165 H 0.91313 0.96479 0.21247 0.0
H166 H 0.87381 0.97007 0.10626 0.0
H167 H 0.90511 0.94253 0.17124 0.0
H168 H 0.89578 0.9921 0.35662 0.0
H169 H 0.91012 0.03553 0.30859 0.0
H170 H 0.89653 0.00325 0.42551 0.0
H171 H 0.91067 0.04593 0.37828 0.0
H172 H 0.89424 0.94635 0.36163 0.0
H173 H 0.85807 0.95482 0.27524 0.0
H174 H 0.8943 0.05204 0.13008 0.0
H175 H 0.86396 0.05093 0.23349 0.0
Li176 Li 0.25113 0.676 0.46648 0.0
Li177 Li 0.24472 0.67255 0.53557 0.0
Li178 Li 0.26128 0.65483 0.50575 0.0
Li179 Li 0.2337 0.65505 0.48811 0.0
C180 C 0.27945 0.68043 0.49921 0.0
N181 N 0.3084 0.68766 0.47151 0.0
C182 C 0.28861 0.69073 0.52061 0.0
C183 C 0.28502 0.67381 0.46365 0.0
C184 C 0.30321 0.69424 0.50613 0.0
C185 C 0.29968 0.67761 0.45018 0.0
C186 C 0.22098 0.68881 0.5002 0.0
C187 C 0.19564 0.69816 0.51505 0.0
N188 N 0.20146 0.71247 0.52016 0.0
C189 C 0.2267 0.7036 0.50542 0.0
C190 C 0.20533 0.68604 0.50491 0.0
C191 C 0.21665 0.71541 0.51559 0.0
C192 C 0.24895 0.68683 0.38726 0.0
N193 N 0.25394 0.69043 0.42495 0.0
C194 C 0.2593 0.71607 0.40473 0.0
C195 C 0.25931 0.70461 0.43403 0.0
C196 C 0.25378 0.71283 0.36581 0.0
C197 C 0.24886 0.69791 0.35691 0.0
H198 H 0.24453 0.67549 0.38125 0.0
H199 H 0.26311 0.70715 0.4644 0.0
C200 C 0.25603 0.68515 0.60492 0.0
N201 N 0.24252 0.68355 0.58506 0.0
C202 C 0.25699 0.69425 0.63929 0.0
C203 C 0.22989 0.69936 0.63361 0.0
C204 C 0.22943 0.68998 0.59941 0.0
C205 C 0.24392 0.70191 0.65335 0.0
H206 H 0.26618 0.67958 0.59345 0.0
H207 H 0.21871 0.6882 0.5839 0.0
C208 C 0.25278 0.63987 0.4333 0.0
N209 N 0.25422 0.61124 0.39812 0.0
C210 C 0.24949 0.6268 0.45611 0.0
C211 C 0.25676 0.63837 0.39261 0.0
C212 C 0.25028 0.61244 0.43776 0.0
C213 C 0.25745 0.6238 0.37538 0.0
C214 C 0.23645 0.64933 0.57733 0.0
C215 C 0.24495 0.64582 0.6119 0.0
C216 C 0.22089 0.65278 0.58087 0.0
C217 C 0.23773 0.64593 0.64957 0.0
C218 C 0.21409 0.65275 0.61907 0.0
N219 N 0.22259 0.64938 0.65235 0.0
C220 C 0.28427 0.64517 0.55544 0.0
C221 C 0.28562 0.63278 0.49182 0.0
C222 C 0.29657 0.63663 0.56983 0.0
N223 N 0.27884 0.64287 0.51748 0.0
C224 C 0.29794 0.62389 0.50507 0.0
C225 C 0.30339 0.62562 0.54478 0.0
H226 H 0.27884 0.65352 0.57478 0.0
H227 H 0.28146 0.63149 0.4613 0.0
C228 C 0.21206 0.64703 0.43136 0.0
N229 N 0.21698 0.64345 0.4691 0.0
C230 C 0.20092 0.63812 0.41251 0.0
C231 C 0.19983 0.62225 0.47232 0.0
C232 C 0.21111 0.63141 0.4899 0.0
C233 C 0.19475 0.62542 0.43281 0.0
H234 H 0.21719 0.65654 0.41541 0.0
H235 H 0.21546 0.62868 0.51963 0.0
O236 O 0.26513 0.67696 0.5133 0.0
O237 O 0.23058 0.67707 0.49024 0.0
O238 O 0.25184 0.6541 0.45027 0.0
O239 O 0.24334 0.64966 0.54025 0.0
H240 H 0.28446 0.69599 0.54813 0.0
H241 H 0.27817 0.66583 0.44654 0.0
H242 H 0.31041 0.7022 0.52241 0.0
H243 H 0.30414 0.67256 0.42275 0.0
H244 H 0.18351 0.69619 0.5189 0.0
H245 H 0.2388 0.70588 0.50234 0.0
H246 H 0.20074 0.67464 0.50084 0.0
H247 H 0.22093 0.7269 0.51999 0.0
H248 H 0.26332 0.72741 0.41258 0.0
H249 H 0.24439 0.69502 0.32735 0.0
H250 H 0.26795 0.69551 0.65421 0.0
H251 H 0.21951 0.705 0.64345 0.0
H252 H 0.24641 0.62771 0.48765 0.0
H253 H 0.2593 0.64839 0.37454 0.0
H254 H 0.24778 0.60224 0.45504 0.0
H255 H 0.26053 0.62247 0.34392 0.0
H256 H 0.25697 0.64306 0.60973 0.0
H257 H 0.21419 0.65569 0.55445 0.0
H258 H 0.24418 0.64329 0.67661 0.0
H259 H 0.20208 0.6555 0.62228 0.0
H260 H 0.30034 0.63827 0.60072 0.0
H261 H 0.30307 0.6157 0.48461 0.0
H262 H 0.19761 0.64086 0.3818 0.0
H263 H 0.19529 0.61268 0.4893 0.0
Li264 Li 0.59226 0.98568 0.73412 0.0
Li265 Li 0.59305 0.01185 0.75581 0.0
Li266 Li 0.57318 0.9945 0.7814 0.0
Li267 Li 0.57254 0.00302 0.71119 0.0
C268 C 0.61081 0.9919 0.80053 0.0
N269 N 0.64132 0.98954 0.82155 0.0
C270 C 0.62219 0.99449 0.77164 0.0
C271 C 0.61494 0.98812 0.84008 0.0
C272 C 0.63755 0.99324 0.78287 0.0
C273 C 0.63043 0.98698 0.85012 0.0
C274 C 0.5989 0.0154 0.67313 0.0
C275 C 0.59444 0.0402 0.64353 0.0
N276 N 0.60719 0.03845 0.6204 0.0
C277 C 0.61191 0.0138 0.64895 0.0
C278 C 0.59006 0.02867 0.67034 0.0
C279 C 0.61593 0.0256 0.62252 0.0
C280 C 0.60539 0.96784 0.67524 0.0
N281 N 0.604 0.96894 0.71599 0.0
C282 C 0.61973 0.94689 0.72548 0.0
C283 C 0.61079 0.95872 0.74127 0.0
C284 C 0.62154 0.94559 0.68339 0.0
C285 C 0.61414 0.9562 0.65819 0.0
H286 H 0.59981 0.97615 0.65602 0.0
H287 H 0.60938 0.95983 0.7736 0.0
C288 C 0.60167 0.03395 0.81035 0.0
N289 N 0.60541 0.02831 0.77342 0.0
C290 C 0.61069 0.04519 0.82837 0.0
C291 C 0.6272 0.04471 0.76975 0.0
C292 C 0.61786 0.03343 0.7529 0.0
C293 C 0.62375 0.05063 0.80821 0.0
H294 H 0.59184 0.02942 0.8262 0.0
H295 H 0.6208 0.02852 0.724 0.0
C296 C 0.56697 0.96702 0.74163 0.0
N297 N 0.56128 0.93673 0.76007 0.0
C298 C 0.55779 0.95816 0.7162 0.0
C299 C 0.57328 0.96048 0.77643 0.0
C300 C 0.55504 0.94286 0.72606 0.0
C301 C 0.57026 0.94515 0.78522 0.0
C302 C 0.56148 0.02745 0.76663 0.0
C303 C 0.5466 0.025 0.7807 0.0
C304 C 0.5666 0.0424 0.7601 0.0
C305 C 0.537 0.03753 0.78737 0.0
C306 C 0.55667 0.05463 0.76715 0.0
N307 N 0.54219 0.05197 0.7805 0.0
C308 C 0.56431 0.99775 0.86163 0.0
C309 C 0.54648 0.9843 0.82087 0.0
C310 C 0.55394 0.99813 0.89365 0.0
N311 N 0.56031 0.99113 0.82606 0.0
C312 C 0.53577 0.98439 0.85208 0.0
C313 C 0.53932 0.99171 0.88871 0.0
H314 H 0.57529 0.00339 0.86438 0.0
H315 H 0.54347 0.97947 0.79186 0.0
C316 C 0.56358 0.00433 0.62969 0.0
N317 N 0.55885 0.00689 0.66822 0.0
C318 C 0.55307 0.00468 0.59793 0.0
C319 C 0.53309 0.01045 0.64614 0.0
C320 C 0.54398 0.00999 0.67691 0.0
C321 C 0.53755 0.00748 0.60613 0.0
H322 H 0.57538 0.00135 0.62383 0.0
H323 H 0.54044 0.01142 0.7079 0.0
O324 O 0.59566 0.99314 0.79052 0.0
O325 O 0.59495 0.00395 0.69931 0.0
O326 O 0.56986 0.98197 0.73206 0.0
O327 O 0.57116 0.01534 0.76077 0.0
H328 H 0.61925 0.99742 0.74088 0.0
H329 H 0.60625 0.98612 0.86279 0.0
H330 H 0.64648 0.99521 0.76084 0.0
H331 H 0.63379 0.98406 0.88063 0.0
H332 H 0.58769 0.05054 0.64106 0.0
H333 H 0.61886 0.00357 0.65078 0.0
H334 H 0.57985 0.02998 0.68834 0.0
H335 H 0.62599 0.02454 0.60372 0.0
H336 H 0.62513 0.93886 0.7459 0.0
H337 H 0.61541 0.95575 0.62565 0.0
H338 H 0.60774 0.04918 0.85834 0.0
H339 H 0.6371 0.04865 0.75303 0.0
H340 H 0.55286 0.96306 0.6891 0.0
H341 H 0.58044 0.96714 0.79644 0.0
H342 H 0.54794 0.93586 0.70665 0.0
H343 H 0.57507 0.93994 0.81202 0.0
H344 H 0.54243 0.01354 0.78608 0.0
H345 H 0.57816 0.04458 0.74989 0.0
H346 H 0.52544 0.03578 0.79804 0.0
H347 H 0.56048 0.06625 0.76212 0.0
H348 H 0.55707 0.00406 0.92117 0.0
H349 H 0.52468 0.97918 0.84719 0.0
H350 H 0.55695 0.00206 0.56763 0.0
H351 H 0.52126 0.01274 0.65372 0.0
Li352 Li 0.74688 0.67378 0.02943 0.0
Li353 Li 0.73118 0.65348 -0.00048 0.0
Li354 Li 0.75798 0.65411 0.98353 0.0
Li355 Li 0.74102 0.67321 0.95869 0.0
C356 C 0.74299 0.64174 0.06666 0.0
N357 N 0.72977 0.6222 0.12232 0.0
C358 C 0.73106 0.64685 0.09136 0.0
C359 C 0.74832 0.62674 0.07066 0.0
C360 C 0.72449 0.63679 0.1192 0.0
C361 C 0.74147 0.61703 0.0989 0.0
C362 C 0.71573 0.68434 0.98685 0.0
C363 C 0.69504 0.68761 0.93939 0.0
N364 N 0.69464 0.7028 0.94827 0.0
C365 C 0.71506 0.69995 0.99569 0.0
C366 C 0.70561 0.67807 0.95862 0.0
C367 C 0.70433 0.7091 0.9758 0.0
C368 C 0.75164 0.70229 0.06305 0.0
N369 N 0.75005 0.6873 0.07313 0.0
C370 C 0.75046 0.69344 0.1434 0.0
C371 C 0.74987 0.68266 0.11233 0.0
C372 C 0.75156 0.70904 0.1338 0.0
C373 C 0.7525 0.71342 0.09309 0.0
H374 H 0.75181 0.7056 0.03155 0.0
H375 H 0.74895 0.67065 0.11954 0.0
C376 C 0.71625 0.62499 0.00607 0.0
N377 N 0.71456 0.64032 0.01118 0.0
C378 C 0.70533 0.61494 0.02164 0.0
C379 C 0.69085 0.6367 0.04559 0.0
C380 C 0.70203 0.64632 0.02958 0.0
C381 C 0.69261 0.62077 0.04263 0.0
H382 H 0.72646 0.62059 0.99169 0.0
H383 H 0.70116 0.65854 0.03396 0.0
C384 C 0.77516 0.68088 0.99801 0.0
N385 N 0.8035 0.68933 0.02757 0.0
C386 C 0.78304 0.69316 0.98075 0.0
C387 C 0.78166 0.67293 0.03043 0.0
C388 C 0.79737 0.69724 0.99609 0.0
C389 C 0.79601 0.67737 0.04489 0.0
C390 C 0.74618 0.64817 0.90815 0.0
C391 C 0.75793 0.65721 0.89222 0.0
C392 C 0.74045 0.63594 0.88558 0.0
C393 C 0.76373 0.65385 0.8539 0.0
C394 C 0.74655 0.63296 0.84735 0.0
N395 N 0.75797 0.6419 0.83244 0.0
C396 C 0.77355 0.62646 0.97038 0.0
C397 C 0.78746 0.64845 0.9502 0.0
C398 C 0.78468 0.61691 0.95363 0.0
N399 N 0.77513 0.64191 0.96838 0.0
C400 C 0.79875 0.63935 0.93267 0.0
C401 C 0.79731 0.62338 0.9338 0.0
H402 H 0.76328 0.62157 0.98316 0.0
H403 H 0.7882 0.66072 0.94728 0.0
C404 C 0.74257 0.70155 0.92245 0.0
N405 N 0.73757 0.68708 0.91549 0.0
C406 C 0.74181 0.71253 0.89203 0.0
C407 C 0.7307 0.69349 0.84775 0.0
C408 C 0.73135 0.68295 0.87942 0.0
C409 C 0.73612 0.70842 0.85396 0.0
H410 H 0.74741 0.70446 0.95154 0.0
H411 H 0.72726 0.67141 0.8749 0.0
O412 O 0.74923 0.6513 0.0383 0.0
O413 O 0.72642 0.67525 0.00513 0.0
O414 O 0.76106 0.67692 0.9834 0.0
O415 O 0.74045 0.65097 0.94594 0.0
H416 H 0.72667 0.65837 0.08836 0.0
H417 H 0.75767 0.62263 0.05226 0.0
H418 H 0.71513 0.64055 0.13812 0.0
H419 H 0.74544 0.60538 0.10217 0.0
H420 H 0.6872 0.68294 0.91728 0.0
H421 H 0.72281 0.70497 0.01747 0.0
H422 H 0.70607 0.66602 0.95127 0.0
H423 H 0.70373 0.72122 0.98218 0.0
H424 H 0.74992 0.68966 0.17455 0.0
H425 H 0.75329 0.72536 0.08457 0.0
H426 H 0.70704 0.60274 0.01827 0.0
H427 H 0.68137 0.6417 0.06203 0.0
H428 H 0.77814 0.69945 0.95572 0.0
H429 H 0.77576 0.66342 0.04429 0.0
H430 H 0.80361 0.70671 0.98298 0.0
H431 H 0.80119 0.67131 0.06991 0.0
H432 H 0.76255 0.66671 0.90917 0.0
H433 H 0.73141 0.62879 0.89757 0.0
H434 H 0.77282 0.66075 0.84125 0.0
H435 H 0.74222 0.62352 0.82956 0.0
H436 H 0.78304 0.60463 0.9544 0.0
H437 H 0.80832 0.64475 0.91752 0.0
H438 H 0.74616 0.72393 0.89769 0.0
H439 H 0.72617 0.69003 0.81868 0.0
Li440 Li 0.09268 0.98475 0.74947 0.0
Li441 Li 0.07124 0.99756 0.78306 0.0
Li442 Li 0.07323 0.99663 0.71115 0.0
Li443 Li 0.09115 0.01218 0.7461 0.0
C444 C 0.06346 0.96916 0.72423 0.0
N445 N 0.0481 0.95001 0.67166 0.0
C446 C 0.04777 0.96664 0.72894 0.0
C447 C 0.07137 0.96188 0.69296 0.0
C448 C 0.04021 0.95694 0.70199 0.0
C449 C 0.06339 0.95225 0.66666 0.0
C450 C 0.10226 0.99233 0.82345 0.0
C451 C 0.126 0.98943 0.85989 0.0
N452 N 0.12055 0.97638 0.87705 0.0
C453 C 0.09685 0.97896 0.84174 0.0
C454 C 0.11692 0.99767 0.83277 0.0
C455 C 0.10629 0.97104 0.86863 0.0
C456 C 0.12177 0.97126 0.7563 0.0
N457 N 0.10651 0.96827 0.75607 0.0
C458 C 0.11076 0.94305 0.78118 0.0
C459 C 0.1009 0.9544 0.76709 0.0
C460 C 0.12651 0.94611 0.78429 0.0
C461 C 0.13205 0.96027 0.77044 0.0
H462 H 0.12582 0.98254 0.74806 0.0
H463 H 0.08869 0.95245 0.76733 0.0
C464 C 0.04211 0.99685 0.81553 0.0
N465 N 0.05712 0.99717 0.82612 0.0
C466 C 0.03086 0.99511 0.84499 0.0
C467 C 0.05073 0.99462 0.89589 0.0
C468 C 0.06159 0.9965 0.8654 0.0
C469 C 0.03512 0.99364 0.88577 0.0
H470 H 0.03893 0.99771 0.78402 0.0
H471 H 0.07359 0.99712 0.87305 0.0
C472 C 0.09893 0.0058 0.66732 0.0
N473 N 0.10627 0.02282 0.59966 0.0
C474 C 0.08973 0.01814 0.65575 0.0
C475 C 0.11187 0.00214 0.64449 0.0
C476 C 0.09363 0.0266 0.62145 0.0
C477 C 0.11538 0.01088 0.61036 0.0
C478 C 0.06366 0.02735 0.7648 0.0
C479 C 0.05148 0.03606 0.74996 0.0
C480 C 0.07086 0.03166 0.8008 0.0
C481 C 0.04673 0.049 0.77132 0.0
C482 C 0.06576 0.04468 0.82127 0.0
N483 N 0.05391 0.053 0.80623 0.0
C484 C 0.0455 -0.00025 0.67285 0.0
C485 C 0.065 0.99191 0.62748 0.0
C486 C 0.03487 0.00035 0.64155 0.0
N487 N 0.06023 0.99572 0.66528 0.0
C488 C 0.05478 0.99261 0.59503 0.0
C489 C 0.03954 0.99695 0.60202 0.0
H490 H 0.04207 0.00266 0.7033 0.0
H491 H 0.07675 0.98855 0.62242 0.0
C492 C 0.11862 0.0282 0.74224 0.0
N493 N 0.10321 0.03014 0.74061 0.0
C494 C 0.12839 0.03978 0.72898 0.0
C495 C 0.10624 0.05528 0.71346 0.0
C496 C 0.0969 0.04346 0.72733 0.0
C497 C 0.12218 0.05333 0.71318 0.0
H498 H 0.12329 0.01725 0.75115 0.0
H499 H 0.08464 0.04455 0.72466 0.0
O500 O 0.07102 0.97897 0.7495 0.0
O501 O 0.09338 -4e-05 0.79593 0.0
O502 O 0.09567 0.99756 0.70145 0.0
O503 O 0.06827 0.01459 0.7442 0.0
H504 H 0.04149 0.97217 0.75299 0.0
H505 H 0.0835 0.96382 0.68872 0.0
H506 H 0.02805 0.95493 0.70514 0.0
H507 H 0.06934 0.94661 0.64217 0.0
H508 H 0.13739 0.9934 0.86724 0.0
H509 H 0.08558 0.97459 0.83455 0.0
H510 H 0.12126 0.00805 0.81917 0.0
H511 H 0.10231 0.96058 0.88261 0.0
H512 H 0.10604 0.93222 0.79096 0.0
H513 H 0.14407 0.96318 0.77273 0.0
H514 H 0.01896 0.99483 0.83586 0.0
H515 H 0.05456 0.9935 0.92687 0.0
H516 H 0.07972 0.02123 0.67309 0.0
H517 H 0.11917 0.99269 0.65322 0.0
H518 H 0.08662 0.03619 0.61223 0.0
H519 H 0.12537 0.00818 0.59244 0.0
H520 H 0.04577 0.03285 0.72219 0.0
H521 H 0.08029 0.0251 0.81288 0.0
H522 H 0.03732 0.05585 0.76015 0.0
H523 H 0.07123 0.04815 0.84912 0.0
H524 H 0.02324 0.00384 0.648 0.0
H525 H 0.05872 0.98979 0.5649 0.0
H526 H 0.14062 0.03774 0.72852 0.0
H527 H 0.10103 0.06556 0.70142 0.0
Li528 Li 0.76392 0.34188 0.514 0.0
Li529 Li 0.7456 0.32402 0.53861 0.0
Li530 Li 0.75224 0.32401 0.46777 0.0
Li531 Li 0.73589 0.34471 0.4964 0.0
C532 C 0.78046 0.31654 0.52303 0.0
N533 N 0.81081 0.31134 0.54205 0.0
C534 C 0.78461 0.31247 0.56241 0.0
C535 C 0.79172 0.3178 0.49327 0.0
C536 C 0.80002 0.30993 0.57144 0.0
C537 C 0.80701 0.31518 0.5035 0.0
C538 C 0.73976 0.34915 0.58682 0.0
C539 C 0.71814 0.35635 0.62793 0.0
N540 N 0.72699 0.35502 0.6616 0.0
C541 C 0.74866 0.34794 0.62179 0.0
C542 C 0.72439 0.35345 0.58984 0.0
C543 C 0.74198 0.35091 0.65933 0.0
C544 C 0.78671 0.36447 0.50198 0.0
N545 N 0.78163 0.35338 0.52746 0.0
C546 C 0.80038 0.36023 0.57677 0.0
C547 C 0.7882 0.35111 0.56421 0.0
C548 C 0.80563 0.37202 0.55158 0.0
C549 C 0.79876 0.37402 0.51355 0.0
H550 H 0.7811 0.36621 0.47322 0.0
H551 H 0.78371 0.3425 0.58432 0.0
C552 C 0.74782 0.29585 0.57485 0.0
N553 N 0.74115 0.30972 0.58081 0.0
C554 C 0.74651 0.28437 0.60377 0.0
C555 C 0.73094 0.30137 0.64409 0.0
C556 C 0.73237 0.31248 0.61397 0.0
C557 C 0.73827 0.28719 0.63931 0.0
H558 H 0.75441 0.29379 0.54775 0.0
H559 H 0.72653 0.32325 0.61738 0.0
C560 C 0.7571 0.34837 0.42059 0.0
N561 N 0.76236 0.35138 0.33864 0.0
C562 C 0.7453 0.35306 0.39486 0.0
C563 C 0.77161 0.34541 0.40472 0.0
C564 C 0.74818 0.35447 0.35349 0.0
C565 C 0.77403 0.34694 0.36319 0.0
C566 C 0.72154 0.31195 0.5042 0.0
C567 C 0.72391 0.29662 0.494 0.0
C568 C 0.70921 0.31597 0.5289 0.0
C569 C 0.71393 0.28551 0.50904 0.0
C570 C 0.69949 0.30452 0.54332 0.0
N571 N 0.70204 0.28965 0.5332 0.0
C572 C 0.76361 0.29922 0.42181 0.0
C573 C 0.7432 0.31321 0.39237 0.0
C574 C 0.76288 0.28837 0.39092 0.0
N575 N 0.75378 0.31126 0.42202 0.0
C576 C 0.74217 0.30275 0.36073 0.0
C577 C 0.75186 0.28993 0.36017 0.0
H578 H 0.7715 0.29764 0.4466 0.0
H579 H 0.73515 0.32258 0.39418 0.0
C580 C 0.72209 0.37355 0.48472 0.0
N581 N 0.72005 0.35818 0.48171 0.0
C582 C 0.71151 0.38353 0.46719 0.0
C583 C 0.69682 0.36163 0.445 0.0
C584 C 0.70763 0.3521 0.46301 0.0
C585 C 0.69889 0.37755 0.44612 0.0
H586 H 0.73228 0.378 0.49914 0.0
H587 H 0.70648 0.33982 0.46049 0.0
O588 O 0.76543 0.31914 0.51363 0.0
O589 O 0.74615 0.34653 0.54975 0.0
O590 O 0.75447 0.34678 0.46113 0.0
O591 O 0.73143 0.32293 0.4908 0.0
H592 H 0.77607 0.31153 0.58593 0.0
H593 H 0.78869 0.32076 0.46258 0.0
H594 H 0.80341 0.30688 0.60185 0.0
H595 H 0.81585 0.31618 0.48078 0.0
H596 H 0.70626 0.35964 0.63074 0.0
H597 H 0.76055 0.34461 0.62006 0.0
H598 H 0.71734 0.35448 0.56313 0.0
H599 H 0.7487 0.34994 0.68667 0.0
H600 H 0.80518 0.35851 0.60662 0.0
H601 H 0.80251 0.38301 0.49332 0.0
H602 H 0.75234 0.27359 0.59902 0.0
H603 H 0.72425 0.30383 0.67086 0.0
H604 H 0.73401 0.35546 0.40659 0.0
H605 H 0.78092 0.342 0.42427 0.0
H606 H 0.73913 0.35799 0.3332 0.0
H607 H 0.7852 0.34462 0.35047 0.0
H608 H 0.73346 0.29333 0.47505 0.0
H609 H 0.70729 0.32779 0.53719 0.0
H610 H 0.71567 0.27358 0.5016 0.0
H611 H 0.68996 0.30744 0.56267 0.0
H612 H 0.77037 0.27852 0.3922 0.0
H613 H 0.73361 0.30451 0.3375 0.0
H614 H 0.7136 0.39573 0.46836 0.0
H615 H 0.68715 0.35658 0.42941 0.0
Li616 Li 0.40453 0.01462 0.25335 0.0
Li617 Li 0.42403 -0.00138 0.2785 0.0
Li618 Li 0.42366 0.00421 0.20848 0.0
Li619 Li 0.4042 0.98743 0.23806 0.0
C620 C 0.42969 0.0329 0.23695 0.0
N621 N 0.43566 0.06145 0.20469 0.0
C622 C 0.44134 0.04199 0.2531 0.0
C623 C 0.42109 0.03833 0.2043 0.0
C624 C 0.44418 0.05639 0.2364 0.0
C625 C 0.42428 0.05279 0.18845 0.0
C626 C 0.39869 0.00262 0.3293 0.0
C627 C 0.38299 0.00254 0.38921 0.0
N628 N 0.39158 0.01409 0.4048 0.0
C629 C 0.40737 0.0145 0.34592 0.0
C630 C 0.3864 0.9966 0.35106 0.0
C631 C 0.4036 0.02014 0.38413 0.0
C632 C 0.37623 0.029 0.26435 0.0
N633 N 0.39157 0.03111 0.26812 0.0
C634 C 0.38767 0.05382 0.30679 0.0
C635 C 0.39741 0.04336 0.28818 0.0
C636 C 0.37178 0.05157 0.3051 0.0
C637 C 0.36605 0.0392 0.28258 0.0
H638 H 0.37194 0.01893 0.24908 0.0
H639 H 0.40963 0.04457 0.2919 0.0
C640 C 0.45205 0.00264 0.31397 0.0
N641 N 0.43825 0.99606 0.32117 0.0
C642 C 0.46316 0.00302 0.34406 0.0
C643 C 0.44585 0.98928 0.38813 0.0
C644 C 0.43503 0.98915 0.357 0.0
C645 C 0.46001 0.99659 0.38202 0.0
H646 H 0.45428 0.0079 0.28499 0.0
H647 H 0.42396 0.98394 0.36178 0.0
C648 C 0.39672 -0.00047 0.16292 0.0
N649 N 0.38763 0.98802 0.08893 0.0
C650 C 0.40441 0.98708 0.14588 0.0
C651 C 0.38439 0.0061 0.14238 0.0
C652 C 0.39964 0.98143 0.10844 0.0
C653 C 0.37998 0.00013 0.10497 0.0
C654 C 0.43413 0.9725 0.25318 0.0
C655 C 0.44964 0.96998 0.24533 0.0
C656 C 0.42665 0.96365 0.28231 0.0
C657 C 0.45745 0.95868 0.26698 0.0
C658 C 0.43485 0.95246 0.30329 0.0
N659 N 0.44996 0.95024 0.29529 0.0
C660 C 0.45203 0.00519 0.17526 0.0
C661 C 0.4331 0.01041 0.1258 0.0
C662 C 0.46342 0.00499 0.14593 0.0
N663 N 0.43718 0.00733 0.16462 0.0
C664 C 0.44416 0.01028 0.0953 0.0
C665 C 0.45949 0.00706 0.10518 0.0
H666 H 0.45493 0.00324 0.2066 0.0
H667 H 0.42125 0.01251 0.11824 0.0
C668 C 0.37599 0.9728 0.22739 0.0
N669 N 0.39137 0.97067 0.22572 0.0
C670 C 0.36611 0.96175 0.21164 0.0
C671 C 0.38812 0.94638 0.19392 0.0
C672 C 0.39756 0.95772 0.20994 0.0
C673 C 0.37218 0.94847 0.19384 0.0
H674 H 0.37145 0.9834 0.23925 0.0
H675 H 0.40985 0.9565 0.20805 0.0
O676 O 0.42693 0.01875 0.25308 0.0
O677 O 0.40192 0.99707 0.29158 0.0
O678 O 0.40083 0.00503 0.20008 0.0
O679 O 0.42634 0.98376 0.23313 0.0
H680 H 0.44812 0.03794 0.27835 0.0
H681 H 0.41203 0.03152 0.19127 0.0
H682 H 0.45315 0.06354 0.24865 0.0
H683 H 0.41771 0.05713 0.16321 0.0
H684 H 0.37349 0.99799 0.40638 0.0
H685 H 0.41689 0.01937 0.3295 0.0
H686 H 0.37952 0.98745 0.33851 0.0
H687 H 0.4102 0.02934 0.3973 0.0
H688 H 0.39256 0.06329 0.3235 0.0
H689 H 0.35388 0.03694 0.28092 0.0
H690 H 0.47403 0.00847 0.33782 0.0
H691 H 0.44297 0.98424 0.41702 0.0
H692 H 0.41398 0.98183 0.16126 0.0
H693 H 0.37825 0.01568 0.15532 0.0
H694 H 0.40549 0.9718 0.09492 0.0
H695 H 0.37046 0.00511 0.08873 0.0
H696 H 0.45561 0.97664 0.22278 0.0
H697 H 0.41468 0.96555 0.28902 0.0
H698 H 0.46946 0.95663 0.26129 0.0
H699 H 0.42923 0.9456 0.32607 0.0
H700 H 0.47515 0.00291 0.15499 0.0
H701 H 0.44067 0.01202 0.06423 0.0
H702 H 0.3539 0.96392 0.21171 0.0
H703 H 0.39327 0.93626 0.18088 0.0
Li704 Li 0.73464 0.84182 0.50468 0.0
Li705 Li 0.76308 0.84171 0.48776 0.0
Li706 Li 0.7456 0.82274 0.45984 0.0
Li707 Li 0.75156 0.82225 0.52972 0.0
C708 C 0.73793 0.84597 0.41492 0.0
N709 N 0.72398 0.84589 0.34001 0.0
C710 C 0.74653 0.84882 0.38012 0.0
C711 C 0.72224 0.84314 0.41169 0.0
C712 C 0.73926 0.84872 0.34251 0.0
C713 C 0.7154 0.84314 0.37352 0.0
C714 C 0.7548 0.84554 0.58167 0.0
C715 C 0.77063 0.8422 0.64078 0.0
N716 N 0.75876 0.84675 0.6645 0.0
C717 C 0.74282 0.85035 0.60661 0.0
C718 C 0.76887 0.84159 0.59884 0.0
C719 C 0.74503 0.85083 0.64841 0.0
C720 C 0.70651 0.84814 0.54089 0.0
N721 N 0.71786 0.85425 0.51798 0.0
C722 C 0.70666 0.87907 0.52246 0.0
C723 C 0.71806 0.86932 0.50804 0.0
C724 C 0.69504 0.8732 0.54742 0.0
C725 C 0.69488 0.85746 0.55594 0.0
H726 H 0.70688 0.83616 0.54893 0.0
H727 H 0.72735 0.87382 0.48999 0.0
C728 C 0.78644 0.8516 0.43804 0.0
N729 N 0.78014 0.85386 0.47502 0.0
C730 C 0.79831 0.86095 0.42469 0.0
C731 C 0.79744 0.87434 0.48865 0.0
C732 C 0.78544 0.86479 0.5006 0.0
C733 C 0.80387 0.87265 0.4499 0.0
H734 H 0.78196 0.84274 0.41855 0.0
H735 H 0.78019 0.86624 0.52995 0.0
C736 C 0.72622 0.80472 0.50689 0.0
N737 N 0.71665 0.77464 0.51175 0.0
C738 C 0.73665 0.79281 0.50111 0.0
C739 C 0.71091 0.80133 0.51514 0.0
C740 C 0.7316 0.77768 0.50369 0.0
C741 C 0.70629 0.78605 0.51746 0.0
C742 C 0.77923 0.81199 0.48837 0.0
C743 C 0.78107 0.7975 0.47112 0.0
C744 C 0.79137 0.81865 0.50949 0.0
C745 C 0.79495 0.78979 0.47601 0.0
C746 C 0.80508 0.81057 0.51369 0.0
N747 N 0.80656 0.79642 0.49705 0.0
C748 C 0.75588 0.81048 0.38845 0.0
C749 C 0.73075 0.80218 0.40418 0.0
C750 C 0.75647 0.8007 0.35532 0.0
N751 N 0.74331 0.81079 0.41252 0.0
C752 C 0.73093 0.79201 0.37163 0.0
C753 C 0.74408 0.79092 0.34722 0.0
H754 H 0.76563 0.81759 0.39575 0.0
H755 H 0.72082 0.80279 0.42354 0.0
C756 C 0.74174 0.81065 0.60239 0.0
N757 N 0.75331 0.80906 0.57532 0.0
C758 C 0.7402 0.80043 0.63437 0.0
C759 C 0.76243 0.78686 0.60986 0.0
C760 C 0.76372 0.79758 0.57873 0.0
C761 C 0.75038 0.78806 0.63789 0.0
H762 H 0.73333 0.81959 0.59824 0.0
H763 H 0.77259 0.79624 0.55641 0.0
O764 O 0.74488 0.84553 0.45192 0.0
O765 O 0.75278 0.84485 0.54068 0.0
O766 O 0.7309 0.81965 0.50499 0.0
O767 O 0.76573 0.81971 0.48361 0.0
H768 H 0.75869 0.851 0.3821 0.0
H769 H 0.71546 0.84078 0.43834 0.0
H770 H 0.74577 0.85085 0.31528 0.0
H771 H 0.70328 0.84089 0.37053 0.0
H772 H 0.78142 0.83905 0.65447 0.0
H773 H 0.7319 0.85362 0.59391 0.0
H774 H 0.7783 0.83797 0.5801 0.0
H775 H 0.73582 0.85444 0.66806 0.0
H776 H 0.7071 0.89111 0.51483 0.0
H777 H 0.68628 0.85251 0.57553 0.0
H778 H 0.8027 0.85933 0.3944 0.0
H779 H 0.80151 0.88302 0.50935 0.0
H780 H 0.74852 0.79519 0.49475 0.0
H781 H 0.70266 0.8104 0.51964 0.0
H782 H 0.73958 0.76836 0.49931 0.0
H783 H 0.69447 0.78326 0.52381 0.0
H784 H 0.77187 0.79225 0.45419 0.0
H785 H 0.7903 0.82996 0.52224 0.0
H786 H 0.7965 0.77854 0.46301 0.0
H787 H 0.81455 0.81558 0.53007 0.0
H788 H 0.76667 0.8006 0.33677 0.0
H789 H 0.72113 0.78467 0.36676 0.0
H790 H 0.73091 0.80206 0.65555 0.0
H791 H 0.77041 0.7774 0.61079 0.0
Li792 Li 0.40578 0.51385 0.73541 0.0
Li793 Li 0.4047 0.48622 0.76136 0.0
Li794 Li 0.42504 0.50352 0.7801 0.0
Li795 Li 0.42394 0.49447 0.71272 0.0
C796 C 0.40251 0.51036 0.83123 0.0
N797 N 0.40287 0.51894 0.91162 0.0
C798 C 0.39777 0.5001 0.86111 0.0
C799 C 0.40718 0.52507 0.8422 0.0
C800 C 0.39809 0.50462 0.90159 0.0
C801 C 0.40736 0.52917 0.88301 0.0
C802 C 0.40011 0.48737 0.66917 0.0
C803 C 0.40127 0.46462 0.62811 0.0
N804 N 0.39914 0.47333 0.59449 0.0
C805 C 0.39786 0.49609 0.63428 0.0
C806 C 0.40178 0.47151 0.66619 0.0
C807 C 0.39743 0.48877 0.59677 0.0
C808 C 0.39902 0.53772 0.68297 0.0
N809 N 0.3942 0.5306 0.71717 0.0
C810 C 0.37176 0.54611 0.71952 0.0
C811 C 0.38099 0.53463 0.73594 0.0
C812 C 0.37625 0.55341 0.68356 0.0
C813 C 0.3902 0.54927 0.66562 0.0
H814 H 0.40953 0.53409 0.66858 0.0
H815 H 0.37746 0.52868 0.76304 0.0
C816 C 0.39745 0.46129 0.80989 0.0
N817 N 0.39207 0.47019 0.77938 0.0
C818 C 0.38828 0.44981 0.82628 0.0
C819 C 0.36839 0.4566 0.77867 0.0
C820 C 0.37793 0.46804 0.76334 0.0
C821 C 0.37348 0.44741 0.8109 0.0
H822 H 0.40872 0.46343 0.82219 0.0
H823 H 0.37402 0.47531 0.73898 0.0
C824 C 0.43654 0.52841 0.7296 0.0
N825 N 0.454 0.55476 0.72842 0.0
C826 C 0.45107 0.52832 0.7119 0.0
C827 C 0.4308 0.54196 0.7461 0.0
C828 C 0.45975 0.54174 0.71179 0.0
C829 C 0.43983 0.55514 0.74536 0.0
C830 C 0.44125 0.47638 0.76617 0.0
C831 C 0.45383 0.4855 0.75624 0.0
C832 C 0.4436 0.46163 0.7812 0.0
C833 C 0.46859 0.4797 0.76145 0.0
C834 C 0.45855 0.45623 0.78595 0.0
N835 N 0.47063 0.4653 0.77607 0.0
C836 C 0.43706 0.4964 0.85462 0.0
C837 C 0.45037 0.51704 0.8242 0.0
C838 C 0.4475 0.49598 0.88639 0.0
N839 N 0.43867 0.50678 0.82431 0.0
C840 C 0.46127 0.51683 0.85508 0.0
C841 C 0.45994 0.50608 0.88638 0.0
H842 H 0.42797 0.48802 0.85321 0.0
H843 H 0.45167 0.52499 0.79957 0.0
C844 C 0.43636 0.50072 0.63827 0.0
N845 N 0.43546 0.48938 0.66623 0.0
C846 C 0.44574 0.49907 0.60459 0.0
C847 C 0.45292 0.47393 0.62867 0.0
C848 C 0.44316 0.47597 0.66168 0.0
C849 C 0.45442 0.48569 0.60001 0.0
H850 H 0.4301 0.51125 0.64286 0.0
H851 H 0.44209 0.46707 0.68417 0.0
O852 O 0.40249 0.50603 0.79147 0.0
O853 O 0.40102 0.49433 0.70605 0.0
O854 O 0.42786 0.51537 0.72971 0.0
O855 O 0.42668 0.48189 0.76197 0.0
H856 H 0.39393 0.48874 0.85319 0.0
H857 H 0.41073 0.53321 0.81955 0.0
H858 H 0.39455 0.49676 0.92503 0.0
H859 H 0.41107 0.54048 0.89193 0.0
H860 H 0.40262 0.45237 0.62528 0.0
H861 H 0.3966 0.50838 0.63614 0.0
H862 H 0.40362 0.46463 0.69297 0.0
H863 H 0.39577 0.49537 0.56946 0.0
H864 H 0.36114 0.54908 0.73446 0.0
H865 H 0.39398 0.55446 0.63762 0.0
H866 H 0.39261 0.44319 0.85149 0.0
H867 H 0.35715 0.45502 0.76551 0.0
H868 H 0.45562 0.51801 0.69841 0.0
H869 H 0.41946 0.54236 0.75899 0.0
H870 H 0.47104 0.54182 0.6984 0.0
H871 H 0.43554 0.5657 0.75812 0.0
H872 H 0.45222 0.49695 0.7448 0.0
H873 H 0.43398 0.45443 0.78913 0.0
H874 H 0.47842 0.48665 0.75392 0.0
H875 H 0.46054 0.44483 0.79754 0.0
H876 H 0.44626 0.48736 0.9097 0.0
H877 H 0.47077 0.52478 0.85418 0.0
H878 H 0.44673 0.50844 0.58334 0.0
H879 H 0.45939 0.46342 0.62589 0.0
Li880 Li 0.75056 0.17517 0.96795 0.0
Li881 Li 0.74458 0.17504 0.03847 0.0
Li882 Li 0.76146 0.15618 0.01103 0.0
Li883 Li 0.73475 0.15527 0.99518 0.0
C884 C 0.77909 0.18194 -0.0011 0.0
N885 N 0.80791 0.18892 0.96989 0.0
C886 C 0.78812 0.19284 0.01856 0.0
C887 C 0.78472 0.1746 0.96441 0.0
C888 C 0.80265 0.19621 0.00344 0.0
C889 C 0.79932 0.17828 0.95026 0.0
C890 C 0.72484 0.192 0.98881 0.0
C891 C 0.70527 0.20977 0.96781 0.0
N892 N 0.71434 0.22161 0.97948 0.0
C893 C 0.73397 0.20435 0.00059 0.0
C894 C 0.71037 0.19471 0.97228 0.0
C895 C 0.72846 0.21923 0.99564 0.0
C896 C 0.7466 0.18306 0.88698 0.0
N897 N 0.75276 0.18797 0.92236 0.0
C898 C 0.75791 0.21255 0.8942 0.0
C899 C 0.75867 0.20226 0.92632 0.0
C900 C 0.75112 0.20803 0.85755 0.0
C901 C 0.74576 0.19292 0.85389 0.0
H902 H 0.74187 0.17165 0.88496 0.0
H903 H 0.76333 0.20591 0.95499 0.0
C904 C 0.75492 0.18998 0.10577 0.0
N905 N 0.74183 0.18728 0.08489 0.0
C906 C 0.75488 0.19989 0.13865 0.0
C907 C 0.72769 0.20365 0.1289 0.0
C908 C 0.72828 0.19366 0.09597 0.0
C909 C 0.74118 0.20703 0.15037 0.0
H910 H 0.7655 0.1847 0.09614 0.0
H911 H 0.71803 0.19127 0.07874 0.0
C912 C 0.75335 0.13793 0.94572 0.0
N913 N 0.75552 0.10762 0.92274 0.0
C914 C 0.7522 0.12632 0.97462 0.0
C915 C 0.7556 0.13412 0.90515 0.0
C916 C 0.75332 0.11107 0.9624 0.0
C917 C 0.75667 0.11873 0.89413 0.0
C918 C 0.73351 0.14956 0.07785 0.0
C919 C 0.73713 0.13995 0.11023 0.0
C920 C 0.71884 0.15587 0.07506 0.0
C921 C 0.72599 0.1368 0.13934 0.0
C922 C 0.70802 0.15244 0.10479 0.0
N923 N 0.71179 0.14305 0.13604 0.0
C924 C 0.78207 0.14557 0.06609 0.0
C925 C 0.78769 0.13635 0.00036 0.0
C926 C 0.79407 0.13712 0.08244 0.0
N927 N 0.77898 0.14484 0.02595 0.0
C928 C 0.79977 0.12756 0.01552 0.0
C929 C 0.80291 0.12769 0.05725 0.0
H930 H 0.77502 0.1526 0.0855 0.0
H931 H 0.7851 0.13614 0.96842 0.0
C932 C 0.7103 0.14692 0.94753 0.0
N933 N 0.71811 0.14253 0.98106 0.0
C934 C 0.6989 0.13758 0.93152 0.0
C935 C 0.70356 0.11949 0.98547 0.0
C936 C 0.71493 0.12919 0.00039 0.0
C937 C 0.69552 0.12354 0.95021 0.0
H938 H 0.71332 0.15749 0.93249 0.0
H939 H 0.72149 0.12585 0.02665 0.0
O940 O 0.76483 0.1786 0.01354 0.0
O941 O 0.72997 0.1773 0.99295 0.0
O942 O 0.75215 0.15299 0.95663 0.0
O943 O 0.74438 0.15273 0.04933 0.0
H944 H 0.78391 0.19865 0.04521 0.0
H945 H 0.77794 0.16618 0.94863 0.0
H946 H 0.80976 0.20463 0.01836 0.0
H947 H 0.80382 0.17269 0.92363 0.0
H948 H 0.6941 0.21203 0.95503 0.0
H949 H 0.74522 0.2025 0.01327 0.0
H950 H 0.70318 0.18527 0.96294 0.0
H951 H 0.73542 0.22889 0.00459 0.0
H952 H 0.76199 0.22412 0.89874 0.0
H953 H 0.74069 0.18884 0.82605 0.0
H954 H 0.76559 0.20232 0.1538 0.0
H955 H 0.71686 0.20877 0.1372 0.0
H956 H 0.75049 0.12899 0.00617 0.0
H957 H 0.75649 0.14299 0.8824 0.0
H958 H 0.75245 0.10197 0.98445 0.0
H959 H 0.75841 0.11562 0.86282 0.0
H960 H 0.74844 0.13499 0.11281 0.0
H961 H 0.71578 0.16329 0.05024 0.0
H962 H 0.72864 0.12938 0.16456 0.0
H963 H 0.69663 0.15723 0.103 0.0
H964 H 0.79629 0.13789 0.11457 0.0
H965 H 0.80624 0.1204 0.99501 0.0
H966 H 0.69321 0.14105 0.90391 0.0
H967 H 0.70124 0.10884 0.00104 0.0
Li968 Li 0.09179 0.51213 0.25215 0.0
Li969 Li 0.09194 0.48349 0.23607 0.0
Li970 Li 0.07181 0.5003 0.21153 0.0
Li971 Li 0.07335 0.49477 0.28116 0.0
C972 C 0.0931 0.50731 0.16079 0.0
N973 N 0.08954 0.51876 0.08356 0.0
C974 C 0.09321 0.49742 0.12763 0.0
C975 C 0.09124 0.52302 0.15473 0.0
C976 C 0.09137 0.50343 0.0888 0.0
C977 C 0.08945 0.52859 0.11542 0.0
C978 C 0.09744 0.49142 0.3286 0.0
C979 C 0.09645 0.47407 0.38523 0.0
N980 N 0.09946 0.4859 0.41069 0.0
C981 C 0.1007 0.50338 0.35529 0.0
C982 C 0.09546 0.47662 0.34363 0.0
C983 C 0.10161 0.50037 0.39669 0.0
C984 C 0.09866 0.53943 0.29112 0.0
N985 N 0.10393 0.52943 0.263 0.0
C986 C 0.12767 0.54281 0.25853 0.0
C987 C 0.11799 0.531 0.24604 0.0
C988 C 0.12285 0.55293 0.28907 0.0
C989 C 0.10799 0.55129 0.30479 0.0
H990 H 0.08747 0.53772 0.30435 0.0
H991 H 0.12184 0.52281 0.22375 0.0
C992 C 0.10022 0.45853 0.18888 0.0
N993 N 0.10434 0.46677 0.22192 0.0
C994 C 0.10962 0.44678 0.17488 0.0
C995 C 0.12704 0.45194 0.23008 0.0
C996 C 0.11732 0.46364 0.24292 0.0
C997 C 0.12335 0.44349 0.19521 0.0
H998 H 0.08979 0.46134 0.17291 0.0
H999 H 0.12024 0.47042 0.26915 0.0
C1000 C 0.0549 0.52013 0.26004 0.0
N1001 N 0.02512 0.53032 0.26778 0.0
C1002 C 0.04277 0.50974 0.25882 0.0
C1003 C 0.05191 0.5357 0.26523 0.0
C1004 C 0.02779 0.51511 0.2628 0.0
C1005 C 0.03677 0.54063 0.26906 0.0
C1006 C 0.06232 0.46679 0.24401 0.0
C1007 C 0.04691 0.46526 0.23324 0.0
C1008 C 0.06997 0.45442 0.26162 0.0
C1009 C 0.03935 0.45149 0.24106 0.0
C1010 C 0.06201 0.44085 0.26893 0.0
N1011 N 0.04699 0.43968 0.25864 0.0
C1012 C 0.0549 0.48914 0.1478 0.0
C1013 C 0.05136 0.51581 0.15716 0.0
C1014 C 0.04366 0.48883 0.11804 0.0
N1015 N 0.05822 0.50239 0.16732 0.0
C1016 C 0.0401 0.51606 0.12716 0.0
C1017 C 0.03589 0.50234 0.108 0.0
H1018 H 0.06073 0.4787 0.1562 0.0
H1019 H 0.05433 0.5262 0.17305 0.0
C1020 C 0.06225 0.50546 0.3537 0.0
N1021 N 0.06159 0.4929 0.32953 0.0
C1022 C 0.0529 0.50658 0.38765 0.0
C1023 C 0.04229 0.48179 0.37139 0.0
C1024 C 0.05207 0.48102 0.3381 0.0
C1025 C 0.04254 0.49479 0.39624 0.0
H1026 H 0.0697 0.51486 0.34573 0.0
H1027 H 0.05163 0.47116 0.31866 0.0
O1028 O 0.09438 0.50164 0.19912 0.0
O1029 O 0.0962 0.49421 0.28802 0.0
O1030 O 0.06968 0.51517 0.25623 0.0
O1031 O 0.06993 0.48015 0.2362 0.0
H1032 H 0.09457 0.48522 0.13186 0.0
H1033 H 0.091 0.53081 0.18016 0.0
H1034 H 0.09136 0.49591 0.06285 0.0
H1035 H 0.08792 0.54071 0.11026 0.0
H1036 H 0.09483 0.46268 0.39727 0.0
H1037 H 0.10241 0.51488 0.34424 0.0
H1038 H 0.09314 0.4672 0.32346 0.0
H1039 H 0.10401 0.50955 0.41769 0.0
H1040 H 0.13891 0.54379 0.24504 0.0
H1041 H 0.10383 0.5586 0.32879 0.0
H1042 H 0.1064 0.44072 0.14763 0.0
H1043 H 0.1374 0.44964 0.24701 0.0
H1044 H 0.0449 0.49768 0.25501 0.0
H1045 H 0.06119 0.5439 0.2662 0.0
H1046 H 0.01829 0.50718 0.26195 0.0
H1047 H 0.03428 0.55266 0.27306 0.0
H1048 H 0.04082 0.47458 0.21897 0.0
H1049 H 0.08194 0.45523 0.26939 0.0
H1050 H 0.02741 0.45019 0.23307 0.0
H1051 H 0.06779 0.43122 0.28268 0.0
H1052 H 0.04092 0.47809 0.10339 0.0
H1053 H 0.03434 0.5267 0.12013 0.0
H1054 H 0.05327 0.51686 0.40593 0.0
H1055 H 0.03445 0.47246 0.37732 0.0
Li1056 Li 0.24969 0.17281 0.53326 0.0
Li1057 Li 0.23401 0.1525 0.5096 0.0
Li1058 Li 0.26118 0.15216 0.49896 0.0
Li1059 Li 0.24585 0.17107 0.46198 0.0
C1060 C 0.24382 0.14934 0.58813 0.0
N1061 N 0.23012 0.14518 0.66259 0.0
C1062 C 0.23143 0.15848 0.59964 0.0
C1063 C 0.24921 0.13807 0.61449 0.0
C1064 C 0.22467 0.15621 0.6374 0.0
C1065 C 0.24214 0.13615 0.65201 0.0
C1066 C 0.21644 0.17791 0.48615 0.0
C1067 C 0.19727 0.17214 0.43592 0.0
N1068 N 0.18866 0.18402 0.4496 0.0
C1069 C 0.20742 0.19008 0.49964 0.0
C1070 C 0.21136 0.16887 0.45396 0.0
C1071 C 0.1934 0.19297 0.4808 0.0
C1072 C 0.24564 0.20189 0.56389 0.0
N1073 N 0.25153 0.18803 0.57388 0.0
C1074 C 0.25758 0.19682 0.64028 0.0
C1075 C 0.25772 0.18535 0.61091 0.0
C1076 C 0.25116 0.21118 0.63119 0.0
C1077 C 0.24542 0.21371 0.59208 0.0
H1078 H 0.24097 0.2037 0.534 0.0
H1079 H 0.26245 0.17423 0.6179 0.0
C1080 C 0.21953 0.1247 0.52559 0.0
N1081 N 0.21703 0.14002 0.52387 0.0
C1082 C 0.20859 0.11502 0.54255 0.0
C1083 C 0.19266 0.13706 0.55563 0.0
C1084 C 0.20386 0.1463 0.53814 0.0
C1085 C 0.19506 0.12121 0.55869 0.0
H1086 H 0.23037 0.12009 0.51557 0.0
H1087 H 0.20237 0.15855 0.53823 0.0
C1088 C 0.27547 0.18367 0.50836 0.0
N1089 N 0.29486 0.20364 0.5479 0.0
C1090 C 0.27581 0.19911 0.49749 0.0
C1091 C 0.28506 0.17835 0.53914 0.0
C1092 C 0.28568 0.20904 0.5179 0.0
C1093 C 0.29477 0.18864 0.5588 0.0
C1094 C 0.25141 0.13839 0.43168 0.0
C1095 C 0.26392 0.14319 0.40859 0.0
C1096 C 0.24637 0.12326 0.4288 0.0
C1097 C 0.27134 0.1327 0.38348 0.0
C1098 C 0.25408 0.11311 0.4033 0.0
N1099 N 0.26631 0.11799 0.38143 0.0
C1100 C 0.27605 0.12369 0.49883 0.0
C1101 C 0.29122 0.14451 0.47625 0.0
C1102 C 0.28703 0.11327 0.48536 0.0
N1103 N 0.27816 0.13892 0.49289 0.0
C1104 C 0.30252 0.13452 0.46256 0.0
C1105 C 0.30025 0.11866 0.46583 0.0
H1106 H 0.26542 0.11961 0.51163 0.0
H1107 H 0.29239 0.15666 0.47102 0.0
C1108 C 0.24152 0.19836 0.42219 0.0
N1109 N 0.24365 0.1832 0.41513 0.0
C1110 C 0.24131 0.2087 0.39017 0.0
C1111 C 0.24508 0.18757 0.34402 0.0
C1112 C 0.24502 0.1776 0.37699 0.0
C1113 C 0.24342 0.20335 0.35059 0.0
H1114 H 0.2404 0.20243 0.45291 0.0
H1115 H 0.24635 0.16546 0.37213 0.0
O1116 O 0.25052 0.15108 0.55101 0.0
O1117 O 0.23024 0.17511 0.50427 0.0
O1118 O 0.26559 0.17385 0.48958 0.0
O1119 O 0.24435 0.14838 0.45753 0.0
H1120 H 0.22703 0.16723 0.57969 0.0
H1121 H 0.25874 0.13085 0.60594 0.0
H1122 H 0.21507 0.1632 0.64665 0.0
H1123 H 0.2462 0.12747 0.6727 0.0
H1124 H 0.19319 0.16523 0.41102 0.0
H1125 H 0.21121 0.1972 0.52446 0.0
H1126 H 0.21814 0.15943 0.44295 0.0
H1127 H 0.18629 0.20234 0.49097 0.0
H1128 H 0.26203 0.19429 0.67009 0.0
H1129 H 0.2407 0.22468 0.58336 0.0
H1130 H 0.2109 0.10286 0.54395 0.0
H1131 H 0.1826 0.14241 0.56847 0.0
H1132 H 0.26847 0.20341 0.47374 0.0
H1133 H 0.28483 0.16644 0.54812 0.0
H1134 H 0.28601 0.22104 0.50995 0.0
H1135 H 0.30217 0.1847 0.58286 0.0
H1136 H 0.26809 0.15482 0.41078 0.0
H1137 H 0.23662 0.11937 0.44604 0.0
H1138 H 0.28115 0.13622 0.36586 0.0
H1139 H 0.25034 0.10135 0.40095 0.0
H1140 H 0.28493 0.10113 0.48877 0.0
H1141 H 0.31243 0.13916 0.4472 0.0
H1142 H 0.24009 0.2208 0.39644 0.0
H1143 H 0.24652 0.18304 0.31379 0.0
Li1144 Li 0.57163 0.4977 0.28319 0.0
Li1145 Li 0.59314 0.48429 0.25168 0.0
Li1146 Li 0.59124 0.5114 0.24232 0.0
Li1147 Li 0.57336 0.49451 0.21159 0.0
C1148 C 0.60374 0.49458 0.32205 0.0
N1149 N 0.62412 0.48126 0.37543 0.0
C1150 C 0.59945 0.48169 0.34438 0.0
C1151 C 0.61834 0.50081 0.3273 0.0
C1152 C 0.60993 0.47509 0.37108 0.0
C1153 C 0.62849 0.49389 0.35434 0.0
C1154 C 0.56372 0.46759 0.23169 0.0
C1155 C 0.56292 0.44855 0.17904 0.0
N1156 N 0.54762 0.44685 0.18525 0.0
C1157 C 0.54802 0.46561 0.23772 0.0
C1158 C 0.57127 0.45896 0.20225 0.0
C1159 C 0.54008 0.45508 0.21387 0.0
C1160 C 0.54251 0.49903 0.31535 0.0
N1161 N 0.55748 0.49837 0.3262 0.0
C1162 C 0.55073 0.49595 0.39578 0.0
C1163 C 0.56179 0.49726 0.36553 0.0
C1164 C 0.53512 0.496 0.38538 0.0
C1165 C 0.53108 0.49794 0.34457 0.0
H1166 H 0.53946 0.50009 0.28377 0.0
H1167 H 0.57377 0.49703 0.37341 0.0
C1168 C 0.62248 0.47136 0.25694 0.0
N1169 N 0.60731 0.46831 0.26065 0.0
C1170 C 0.63328 0.46095 0.27146 0.0
C1171 C 0.61257 0.44416 0.2912 0.0
C1172 C 0.60219 0.45489 0.27635 0.0
C1173 C 0.62833 0.44733 0.28989 0.0
H1174 H 0.62615 0.48224 0.24474 0.0
H1175 H 0.59004 0.45295 0.27968 0.0
C1176 C 0.56353 0.52675 0.25815 0.0
N1177 N 0.55348 0.55359 0.29334 0.0
C1178 C 0.55155 0.53502 0.24064 0.0
C1179 C 0.57036 0.5321 0.29367 0.0
C1180 C 0.54665 0.54858 0.25885 0.0
C1181 C 0.56512 0.5457 0.31096 0.0
C1182 C 0.59851 0.50269 0.16485 0.0
C1183 C 0.58922 0.51474 0.15171 0.0
C1184 C 0.61105 0.49822 0.14149 0.0
C1185 C 0.59264 0.5221 0.11534 0.0
C1186 C 0.61408 0.50586 0.10527 0.0
N1187 N 0.6049 0.51754 0.09306 0.0
C1188 C 0.61854 0.5269 0.23129 0.0
C1189 C 0.59682 0.54252 0.21938 0.0
C1190 C 0.62821 0.53815 0.21579 0.0
N1191 N 0.60317 0.52919 0.23242 0.0
C1192 C 0.60606 0.55406 0.20343 0.0
C1193 C 0.62193 0.55178 0.20065 0.0
H1194 H 0.62319 0.51591 0.23997 0.0
H1195 H 0.58456 0.54389 0.21884 0.0
C1196 C 0.54544 0.49605 0.1734 0.0
N1197 N 0.5602 0.49196 0.16646 0.0
C1198 C 0.53478 0.4957 0.14218 0.0
C1199 C 0.5547 0.48688 0.09706 0.0
C1200 C 0.56495 0.48712 0.12947 0.0
C1201 C 0.53944 0.49133 0.10333 0.0
H1202 H 0.54204 0.49982 0.20321 0.0
H1203 H 0.57673 0.48374 0.12493 0.0
O1204 O 0.59379 0.50092 0.29482 0.0
O1205 O 0.57163 0.47814 0.25388 0.0
O1206 O 0.56828 0.51339 0.24065 0.0
O1207 O 0.59571 0.4955 0.20087 0.0
H1208 H 0.58825 0.47661 0.34036 0.0
H1209 H 0.6218 0.51088 0.31072 0.0
H1210 H 0.60682 0.465 0.38813 0.0
H1211 H 0.63985 0.49854 0.35854 0.0
H1212 H 0.56858 0.44186 0.15597 0.0
H1213 H 0.54201 0.47221 0.26037 0.0
H1214 H 0.58341 0.46046 0.19704 0.0
H1215 H 0.5279 0.45348 0.21805 0.0
H1216 H 0.55442 0.49442 0.42676 0.0
H1217 H 0.51922 0.49845 0.33518 0.0
H1218 H 0.64532 0.46375 0.26943 0.0
H1219 H 0.60825 0.43392 0.30565 0.0
H1220 H 0.54612 0.531 0.21322 0.0
H1221 H 0.57961 0.52587 0.3078 0.0
H1222 H 0.53741 0.5551 0.24559 0.0
H1223 H 0.57032 0.54998 0.3384 0.0
H1224 H 0.5795 0.51844 0.16936 0.0
H1225 H 0.61841 0.48898 0.15139 0.0
H1226 H 0.58556 0.53145 0.10486 0.0
H1227 H 0.62376 0.50252 0.08692 0.0
H1228 H 0.64035 0.53581 0.2134 0.0
H1229 H 0.60079 0.56441 0.19201 0.0
H1230 H 0.52312 0.49931 0.148 0.0
H1231 H 0.55863 0.48336 0.06744 0.0
Li1232 Li 0.24459 0.82483 0.0386 0.0
Li1233 Li 0.26287 0.84205 0.00777 0.0
Li1234 Li 0.23493 0.84226 0.98752 0.0
Li1235 Li 0.2515 0.82132 0.96636 0.0
C1236 C 0.24066 0.85121 0.07899 0.0
N1237 N 0.23307 0.85828 0.15786 0.0
C1238 C 0.25213 0.85292 0.10811 0.0
C1239 C 0.22536 0.85338 0.08981 0.0
C1240 C 0.24805 0.85641 0.14787 0.0
C1241 C 0.22175 0.85688 0.12988 0.0
C1242 C 0.27939 0.81417 0.00917 0.0
C1243 C 0.30159 0.81085 0.96678 0.0
N1244 N 0.30871 0.80321 0.99727 0.0
C1245 C 0.28687 0.80614 0.03994 0.0
C1246 C 0.28676 0.81643 0.9722 0.0
C1247 C 0.30171 0.80075 0.03339 0.0
C1248 C 0.2297 0.80473 0.0949 0.0
N1249 N 0.24178 0.81413 0.0876 0.0
C1250 C 0.25463 0.80531 0.1468 0.0
C1251 C 0.25396 0.81477 0.11302 0.0
C1252 C 0.24266 0.795 0.15429 0.0
C1253 C 0.22985 0.79506 0.12858 0.0
H1254 H 0.22034 0.80414 0.07362 0.0
H1255 H 0.26354 0.82212 0.1059 0.0
C1256 C 0.28066 0.86904 0.00729 0.0
N1257 N 0.27994 0.85439 0.02094 0.0
C1258 C 0.29174 0.87904 0.02245 0.0
C1259 C 0.30134 0.85853 0.06445 0.0
C1260 C 0.29007 0.84898 0.04863 0.0
C1261 C 0.30203 0.87389 0.05217 0.0
H1262 H 0.27219 0.87312 0.98598 0.0
H1263 H 0.28892 0.83749 0.06012 0.0
C1264 C 0.21595 0.81709 0.98734 0.0
N1265 N 0.18505 0.81185 0.9762 0.0
C1266 C 0.21086 0.80875 0.95389 0.0
C1267 C 0.20534 0.8226 0.01535 0.0
C1268 C 0.19518 0.80627 0.94872 0.0
C1269 C 0.18977 0.81988 0.00913 0.0
C1270 C 0.25922 0.84758 0.91619 0.0
C1271 C 0.24927 0.85013 0.88378 0.0
C1272 C 0.27492 0.84999 0.911 0.0
C1273 C 0.25523 0.85457 0.84641 0.0
C1274 C 0.28044 0.85444 0.87318 0.0
N1275 N 0.27057 0.8566 0.8419 0.0
C1276 C 0.2164 0.86886 0.98365 0.0
C1277 C 0.21083 0.84962 0.93535 0.0
C1278 C 0.20574 0.87869 0.96581 0.0
N1279 N 0.2188 0.8547 0.96796 0.0
C1280 C 0.20004 0.859 0.91675 0.0
C1281 C 0.19757 0.87386 0.93145 0.0
H1282 H 0.22315 0.8727 0.00912 0.0
H1283 H 0.21327 0.83849 0.92277 0.0
C1284 C 0.26026 0.7928 0.93333 0.0
N1285 N 0.25369 0.80654 0.9249 0.0
C1286 C 0.26008 0.7811 0.90466 0.0
C1287 C 0.24624 0.79785 0.8594 0.0
C1288 C 0.24678 0.80924 0.88883 0.0
C1289 C 0.25279 0.78349 0.86736 0.0
H1290 H 0.26514 0.79072 0.96285 0.0
H1291 H 0.24104 0.81999 0.8836 0.0
O1292 O 0.24443 0.84772 0.03994 0.0
O1293 O 0.26486 0.81956 0.0152 0.0
O1294 O 0.23124 0.81981 0.99257 0.0
O1295 O 0.25355 0.84351 0.95328 0.0
H1296 H 0.26404 0.85146 0.10019 0.0
H1297 H 0.21638 0.85251 0.06747 0.0
H1298 H 0.2568 0.85764 0.17078 0.0
H1299 H 0.20995 0.85854 0.13871 0.0
H1300 H 0.30741 0.81251 0.93827 0.0
H1301 H 0.28129 0.80413 0.06863 0.0
H1302 H 0.28098 0.82215 0.9477 0.0
H1303 H 0.30766 0.79459 0.05702 0.0
H1304 H 0.26464 0.80568 0.16608 0.0
H1305 H 0.22049 0.78713 0.13312 0.0
H1306 H 0.29174 0.89084 0.01252 0.0
H1307 H 0.30912 0.85404 0.087 0.0
H1308 H 0.21891 0.80429 0.93206 0.0
H1309 H 0.20911 0.82888 0.04164 0.0
H1310 H 0.19108 0.7999 0.92287 0.0
H1311 H 0.18143 0.82413 0.03052 0.0
H1312 H 0.23708 0.84861 0.8873 0.0
H1313 H 0.28278 0.84855 0.93595 0.0
H1314 H 0.24766 0.85645 0.82101 0.0
H1315 H 0.29257 0.85626 0.86874 0.0
H1316 H 0.20435 0.89012 0.97784 0.0
H1317 H 0.19389 0.85472 0.89067 0.0
H1318 H 0.26503 0.7701 0.91222 0.0
H1319 H 0.24053 0.80016 0.83098 0.0
Li1320 Li 0.92205 0.49869 0.78359 0.0
Li1321 Li 0.90396 0.51536 0.74878 0.0
Li1322 Li 0.9059 0.48824 0.73186 0.0
Li1323 Li 0.92609 0.50608 0.71315 0.0
C1324 C 0.89616 0.49497 0.82306 0.0
N1325 N 0.89072 0.49038 0.90441 0.0
C1326 C 0.89074 0.50697 0.84702 0.0
C1327 C 0.8987 0.48061 0.84038 0.0
C1328 C 0.88808 0.50442 0.88811 0.0
C1329 C 0.89593 0.47853 0.88159 0.0
C1330 C 0.9374 0.52918 0.75577 0.0
C1331 C 0.94891 0.55038 0.72041 0.0
N1332 N 0.96195 0.54843 0.74228 0.0
C1333 C 0.95088 0.52743 0.77806 0.0
C1334 C 0.93635 0.5408 0.72688 0.0
C1335 C 0.96318 0.53726 0.77074 0.0
C1336 C 0.94371 0.48508 0.83542 0.0
N1337 N 0.93262 0.49592 0.83278 0.0
C1338 C 0.93985 0.50641 0.89656 0.0
C1339 C 0.93044 0.50639 0.86254 0.0
C1340 C 0.95186 0.49576 0.89947 0.0
C1341 C 0.95351 0.48477 0.86872 0.0
H1342 H 0.94545 0.47718 0.81071 0.0
H1343 H 0.92184 0.51518 0.85896 0.0
C1344 C 0.87503 0.52934 0.75686 0.0
N1345 N 0.89038 0.53184 0.75823 0.0
C1346 C 0.8649 0.54051 0.7707 0.0
C1347 C 0.88657 0.55662 0.78673 0.0
C1348 C 0.89627 0.54522 0.77217 0.0
C1349 C 0.8707 0.55418 0.78687 0.0
H1350 H 0.8707 0.51837 0.74707 0.0
H1351 H 0.90852 0.54674 0.77389 0.0
C1352 C 0.93064 0.47114 0.72516 0.0
N1353 N 0.93419 0.44158 0.69717 0.0
C1354 C 0.93612 0.46852 0.68609 0.0
C1355 C 0.92711 0.45874 0.75014 0.0
C1356 C 0.93781 0.45349 0.67248 0.0
C1357 C 0.92894 0.44388 0.73538 0.0
C1358 C 0.89341 0.5133 0.67426 0.0
C1359 C 0.87902 0.50647 0.67022 0.0
C1360 C 0.89592 0.52792 0.65856 0.0
C1361 C 0.8673 0.5145 0.65083 0.0
C1362 C 0.8839 0.53558 0.63942 0.0
N1363 N 0.86996 0.52877 0.636 0.0
C1364 C 0.88426 0.46404 0.73635 0.0
C1365 C 0.89723 0.46682 0.67381 0.0
C1366 C 0.87538 0.45217 0.72055 0.0
N1367 N 0.89485 0.4711 0.71279 0.0
C1368 C 0.88876 0.45491 0.65696 0.0
C1369 C 0.87754 0.44757 0.68027 0.0
H1370 H 0.88246 0.46785 0.76706 0.0
H1371 H 0.90547 0.47292 0.65556 0.0
C1372 C 0.95623 0.5084 0.68568 0.0
N1373 N 0.94139 0.50964 0.67401 0.0
C1374 C 0.9679 0.50876 0.65702 0.0
C1375 C 0.94874 0.51146 0.60474 0.0
C1376 C 0.93744 0.51134 0.63457 0.0
C1377 C 0.96422 0.50989 0.61575 0.0
H1378 H 0.95899 0.50654 0.71715 0.0
H1379 H 0.9255 0.51187 0.62614 0.0
O1380 O 0.89899 0.49726 0.78286 0.0
O1381 O 0.92528 0.51959 0.76221 0.0
O1382 O 0.92865 0.48577 0.73883 0.0
O1383 O 0.90499 0.50571 0.69349 0.0
H1384 H 0.88873 0.51816 0.83418 0.0
H1385 H 0.90287 0.4712 0.82225 0.0
H1386 H 0.88395 0.51362 0.90706 0.0
H1387 H 0.89792 0.4675 0.89545 0.0
H1388 H 0.94828 0.55937 0.698 0.0
H1389 H 0.95192 0.51849 0.8005 0.0
H1390 H 0.92598 0.54233 0.7095 0.0
H1391 H 0.97371 0.53599 0.78761 0.0
H1392 H 0.93802 0.51497 0.9197 0.0
H1393 H 0.96275 0.47653 0.86925 0.0
H1394 H 0.85274 0.53812 0.77094 0.0
H1395 H 0.89145 0.56704 0.79891 0.0
H1396 H 0.9389 0.47797 0.66632 0.0
H1397 H 0.92292 0.46058 0.78049 0.0
H1398 H 0.94195 0.45129 0.64223 0.0
H1399 H 0.92616 0.43417 0.75429 0.0
H1400 H 0.87688 0.49517 0.68227 0.0
H1401 H 0.90701 0.53331 0.66124 0.0
H1402 H 0.85609 0.5094 0.64766 0.0
H1403 H 0.88565 0.54694 0.62728 0.0
H1404 H 0.86684 0.44676 0.73944 0.0
H1405 H 0.89058 0.45186 0.6256 0.0
H1406 H 0.97964 0.50777 0.66713 0.0
H1407 H 0.94527 0.51205 0.57337 0.0
H1408 H 0.27675 0.27259 0.18604 0.0
H1409 H 0.229 0.26767 0.15421 0.0
H1410 H 0.274 0.25209 0.23581 0.0
H1411 H 0.22625 0.24756 0.20451 0.0
H1412 H 0.22449 0.22732 0.33397 0.0
H1413 H 0.22742 0.24651 0.28084 0.0
H1414 H 0.26803 0.22345 0.23816 0.0
H1415 H 0.26514 0.20427 0.29154 0.0
C1416 C 0.26572 0.2671 0.18943 0.0
C1417 C 0.25306 0.2719 0.16645 0.0
C1418 C 0.26416 0.25538 0.21792 0.0
C1419 C 0.24989 0.24834 0.22411 0.0
C1420 C 0.23732 0.25297 0.20078 0.0
C1421 C 0.2389 0.26455 0.17213 0.0
C1422 C 0.234 0.22634 0.31311 0.0
C1423 C 0.24458 0.21433 0.31674 0.0
C1424 C 0.23563 0.23725 0.28265 0.0
C1425 C 0.24797 0.23646 0.25552 0.0
C1426 C 0.25848 0.22437 0.2589 0.0
C1427 C 0.25674 0.21334 0.28911 0.0
H1428 H 0.95639 0.01128 0.46562 0.0
H1429 H 0.99109 0.00873 0.37312 0.0
H1430 H 0.97596 0.00835 0.5176 0.0
H1431 H 0.01069 0.00521 0.42484 0.0
H1432 H 0.04351 0.01237 0.53123 0.0
H1433 H 0.02454 0.01681 0.4783 0.0
H1434 H 0.99199 0.98904 0.54399 0.0
H1435 H 0.01081 0.98516 0.59737 0.0
C1436 C 0.96824 0.01011 0.45654 0.0
C1437 C 0.97227 0.01024 0.41552 0.0
C1438 C 0.97945 0.0083 0.4862 0.0
C1439 C 0.99491 0.00633 0.47544 0.0
C1440 C -0.00106 0.00685 0.4343 0.0
C1441 C 0.98773 0.00887 0.40464 0.0
C1442 C 0.03233 0.00713 0.53399 0.0
C1443 C 0.02856 -0.00152 0.56831 0.0
C1444 C 0.02145 0.00965 0.50372 0.0
C1445 C 0.00666 0.00341 0.50701 0.0
C1446 C 0.00312 0.99436 0.54091 0.0
C1447 C 0.01391 0.99201 0.57135 0.0
H1448 H 0.26697 0.72236 0.6665 0.0
H1449 H 0.22372 0.70712 0.71552 0.0
H1450 H 0.2691 0.74122 0.72012 0.0
H1451 H 0.22579 0.7263 0.76906 0.0
H1452 H 0.22751 0.77518 0.82419 0.0
H1453 H 0.22533 0.75479 0.77417 0.0
H1454 H 0.27264 0.74266 0.7944 0.0
H1455 H 0.27493 0.7633 0.8438 0.0
C1456 C 0.25801 0.72286 0.68907 0.0
C1457 C 0.24521 0.71314 0.68685 0.0
C1458 C 0.25924 0.73371 0.71976 0.0
C1459 C 0.24765 0.73519 0.74883 0.0
C1460 C 0.23484 0.72549 0.74678 0.0
C1461 C 0.23364 0.71454 0.71613 0.0
C1462 C 0.23747 0.76822 0.81774 0.0
C1463 C 0.25144 0.77091 0.8376 0.0
C1464 C 0.23616 0.75643 0.7895 0.0
C1465 C 0.24881 0.74715 0.7804 0.0
C1466 C 0.26273 0.74973 0.80059 0.0
C1467 C 0.26402 0.76146 0.82902 0.0
H1468 H 0.46397 0.02438 0.03707 0.0
H1469 H 0.48133 0.98492 0.101 0.0
H1470 H 0.48332 0.02065 0.98467 0.0
H1471 H 0.50056 0.98117 0.04882 0.0
H1472 H 0.54286 0.98889 0.97058 0.0
H1473 H 0.52365 0.99317 0.02284 0.0
H1474 H 0.48984 0.00265 0.93085 0.0
H1475 H 0.50917 -0.00103 0.87871 0.0
C1476 C 0.47186 0.01489 0.03981 0.0
C1477 C 0.47121 0.00503 0.07328 0.0
C1478 C 0.48292 0.01273 0.00983 0.0
C1479 C 0.4935 0.00064 0.01271 0.0
C1480 C 0.49277 0.99076 0.0461 0.0
C1481 C 0.48175 0.99292 0.07601 0.0
C1482 C 0.53134 0.99196 0.96156 0.0
C1483 C 0.52752 0.99353 0.92053 0.0
C1484 C 0.52031 0.99428 0.99145 0.0
C1485 C 0.50523 0.99824 0.98095 0.0
C1486 C 0.5014 -0.00023 0.93992 0.0
C1487 C 0.51242 0.99744 0.91004 0.0
H1488 H 0.26758 0.77745 0.17058 0.0
H1489 H 0.22127 0.7861 0.21007 0.0
H1490 H 0.27032 0.75781 0.22236 0.0
H1491 H 0.22396 0.76621 0.2618 0.0
H1492 H 0.24221 0.74151 0.37635 0.0
H1493 H 0.2394 0.76166 0.32565 0.0
H1494 H 0.25908 0.73184 0.2355 0.0
H1495 H 0.26206 0.71176 0.28631 0.0
C1496 C 0.25802 0.77523 0.1906 0.0
C1497 C 0.24423 0.78336 0.18653 0.0
C1498 C 0.25955 0.76388 0.21992 0.0
C1499 C 0.24735 0.76048 0.24597 0.0
C1500 C 0.23358 0.76869 0.24223 0.0
C1501 C 0.232 0.77998 0.21255 0.0
C1502 C 0.24606 0.73933 0.34577 0.0
C1503 C 0.25243 0.72512 0.33524 0.0
C1504 C 0.2443 0.75079 0.31672 0.0
C1505 C 0.24901 0.74829 0.27671 0.0
C1506 C 0.25545 0.7341 0.26623 0.0
C1507 C 0.25708 0.72259 0.29518 0.0
H1508 H 0.47666 0.02182 0.40203 0.0
H1509 H 0.46857 0.97494 0.43753 0.0
H1510 H 0.49529 0.02455 0.45623 0.0
H1511 H 0.48729 0.97768 0.49195 0.0
H1512 H 0.50953 0.99374 0.6099 0.0
H1513 H 0.49062 0.99124 0.55617 0.0
H1514 H 0.52075 0.01531 0.47447 0.0
H1515 H 0.53945 0.01831 0.52869 0.0
C1516 C 0.47899 0.01204 0.42118 0.0
C1517 C 0.47123 0.99813 0.41535 0.0
C1518 C 0.48966 0.01362 0.45224 0.0
C1519 C 0.4928 0.00132 0.47824 0.0
C1520 C 0.48497 0.98742 0.47266 0.0
C1521 C 0.47427 0.98584 0.44152 0.0
C1522 C 0.51203 -0.0013 0.58063 0.0
C1523 C 0.52595 0.00631 0.57358 0.0
C1524 C 0.50128 0.99708 0.54972 0.0
C1525 C 0.50422 0.00304 0.51108 0.0
C1526 C 0.5181 0.01072 0.50406 0.0
C1527 C 0.52887 0.01232 0.53498 0.0
H1528 H 0.27192 0.21852 0.69043 0.0
H1529 H 0.22751 0.23119 0.64331 0.0
H1530 H 0.26928 0.23782 0.7433 0.0
H1531 H 0.22517 0.25072 0.69539 0.0
H1532 H 0.2349 0.29433 0.77077 0.0
H1533 H 0.23805 0.27558 0.71638 0.0
H1534 H 0.25189 0.24159 0.80384 0.0
H1535 H 0.24886 0.26031 0.858 0.0
C1536 C 0.2616 0.22537 0.69134 0.0
C1537 C 0.24993 0.22328 0.66257 0.0
C1538 C 0.26013 0.23644 0.72152 0.0
C1539 C 0.24703 0.24575 0.72333 0.0
C1540 C 0.23548 0.24383 0.69433 0.0
C1541 C 0.23687 0.23267 0.66443 0.0
C1542 C 0.23862 0.28285 0.77823 0.0
C1543 C 0.24153 0.27871 0.81852 0.0
C1544 C 0.24035 0.27213 0.74724 0.0
C1545 C 0.24524 0.25717 0.75598 0.0
C1546 C 0.24823 0.25308 0.79625 0.0
C1547 C 0.24633 0.26373 0.82723 0.0
H1548 H 0.03407 0.00512 0.96282 0.0
H1549 H 0.00963 0.97552 0.88034 0.0
H1550 H 0.01487 0.00018 0.01461 0.0
H1551 H 0.99024 0.97096 0.93195 0.0
H1552 H 0.95056 0.98527 0.02007 0.0
H1553 H 0.97017 0.98691 0.96757 0.0
H1554 H 0.00516 0.97808 0.05684 0.0
H1555 H 0.98557 0.9766 0.10937 0.0
C1556 C 0.0247 0.99747 0.9558 0.0
C1557 C 0.02339 0.99076 0.91735 0.0
C1558 C 0.0137 0.99465 0.98547 0.0
C1559 C 0.00111 0.98516 0.97725 0.0
C1560 C -0.00023 0.97843 0.93892 0.0
C1561 C 0.01084 0.98113 0.90934 0.0
C1562 C 0.96243 0.98351 0.0283 0.0
C1563 C 0.96657 0.98084 0.06872 0.0
C1564 C 0.97363 0.98437 -0.0017 0.0
C1565 C 0.98917 0.98274 0.00828 0.0
C1566 C 0.99326 0.97954 0.04846 0.0
C1567 C 0.98205 0.97852 0.07838 0.0
H1568 H 0.75012 0.70469 0.78145 0.0
H1569 H 0.72404 0.73709 0.85174 0.0
H1570 H 0.75347 0.72394 0.72822 0.0
H1571 H 0.7271 0.75623 0.79811 0.0
H1572 H 0.72308 0.77721 0.66723 0.0
H1573 H 0.71903 0.75787 0.71908 0.0
H1574 H 0.76781 0.75155 0.72984 0.0
H1575 H 0.77208 0.77157 0.6796 0.0
C1576 C 0.74491 0.71586 0.78509 0.0
C1577 C 0.73679 0.71948 0.8204 0.0
C1578 C 0.74692 0.72685 0.75493 0.0
C1579 C 0.74058 0.7415 0.75936 0.0
C1580 C 0.73205 0.74497 0.79411 0.0
C1581 C 0.73031 0.73408 0.82465 0.0
C1582 C 0.73301 0.77199 0.68111 0.0
C1583 C 0.74794 0.77612 0.66933 0.0
C1584 C 0.73063 0.76081 0.71054 0.0
C1585 C 0.74311 0.75328 0.72816 0.0
C1586 C 0.75802 0.75716 0.71625 0.0
C1587 C 0.76043 0.76857 0.68737 0.0
H1588 H 0.77414 0.27325 0.32192 0.0
H1589 H 0.72504 0.27899 0.32857 0.0
H1590 H 0.77068 0.25268 0.27292 0.0
H1591 H 0.7217 0.25872 0.27884 0.0
H1592 H 0.72567 0.23422 0.1537 0.0
H1593 H 0.72775 0.25412 0.2051 0.0
H1594 H 0.75942 0.22602 0.27238 0.0
H1595 H 0.7571 0.20594 0.2216 0.0
C1596 C 0.76262 0.27011 0.31307 0.0
C1597 C 0.74988 0.27781 0.32914 0.0
C1598 C 0.76065 0.25835 0.28501 0.0
C1599 C 0.74592 0.25411 0.27221 0.0
C1600 C 0.73319 0.26188 0.28789 0.0
C1601 C 0.73514 0.27355 0.31621 0.0
C1602 C 0.73283 0.23214 0.17986 0.0
C1603 C 0.74129 0.21852 0.18341 0.0
C1604 C 0.73407 0.24357 0.20917 0.0
C1605 C 0.74388 0.24165 0.24243 0.0
C1606 C 0.752 0.22789 0.24662 0.0
C1607 C 0.75066 0.21642 0.21753 0.0
H1608 H 0.77055 0.23096 0.8336 0.0
H1609 H 0.72657 0.2107 0.8064 0.0
H1610 H 0.76611 0.25032 0.78186 0.0
H1611 H 0.72249 0.22977 0.7537 0.0
H1612 H 0.73233 0.25664 0.63304 0.0
H1613 H 0.73497 0.23722 0.68595 0.0
H1614 H 0.74703 0.27242 0.77181 0.0
H1615 H 0.7444 0.29181 0.71895 0.0
C1616 C 0.75994 0.23063 0.81672 0.0
C1617 C 0.74892 0.21926 0.8243 0.0
C1618 C 0.75742 0.24171 0.78708 0.0
C1619 C 0.74393 0.24156 0.76404 0.0
C1620 C 0.73304 0.23006 0.77092 0.0
C1621 C 0.73545 0.21908 0.80092 0.0
C1622 C 0.7354 0.2602 0.66334 0.0
C1623 C 0.73818 0.27568 0.67201 0.0
C1624 C 0.73685 0.24913 0.69355 0.0
C1625 C 0.74131 0.25335 0.73277 0.0
C1626 C 0.74372 0.26888 0.74166 0.0
C1627 C 0.74207 0.27996 0.7116 0.0
H1628 H 0.73092 0.7112 0.19504 0.0
H1629 H 0.77061 0.73345 0.14417 0.0
H1630 H 0.72903 0.73131 0.24623 0.0
H1631 H 0.76875 0.75355 0.19552 0.0
H1632 H 0.76932 0.7743 0.32543 0.0
H1633 H 0.77129 0.75475 0.27337 0.0
H1634 H 0.72342 0.7605 0.24515 0.0
H1635 H 0.72146 0.78059 0.29619 0.0
C1636 C 0.73931 0.72032 0.19511 0.0
C1637 C 0.75094 0.72079 0.16586 0.0
C1638 C 0.73814 0.73187 0.22407 0.0
C1639 C 0.74871 0.74396 0.22461 0.0
C1640 C 0.7605 0.7443 0.19576 0.0
C1641 C 0.76153 0.73287 0.16641 0.0
C1642 C 0.75925 0.77168 0.30765 0.0
C1643 C 0.74524 0.77915 0.31492 0.0
C1644 C 0.76039 0.7604 0.27801 0.0
C1645 C 0.74751 0.75615 0.25538 0.0
C1646 C 0.73349 0.7635 0.26255 0.0
C1647 C 0.73238 0.77496 0.29185 0.0
H1648 H 0.54335 0.50599 0.03159 0.0
H1649 H 0.51089 0.47903 0.09923 0.0
H1650 H 0.52432 0.51001 0.9787 0.0
H1651 H 0.492 0.48239 0.0457 0.0
H1652 H 0.45617 0.5052 0.96795 0.0
H1653 H 0.4758 0.50134 0.01934 0.0
H1654 H 0.51028 0.49884 0.92575 0.0
H1655 H 0.49063 0.50339 0.87475 0.0
C1656 C 0.53222 0.50066 0.03461 0.0
C1657 C 0.52852 0.49225 0.06937 0.0
C1658 C 0.5213 0.50293 0.00433 0.0
C1659 C 0.50653 0.49665 0.00801 0.0
C1660 C 0.5031 0.48774 0.04227 0.0
C1661 C 0.51394 0.48568 0.07278 0.0
C1662 C 0.46798 0.50393 0.95859 0.0
C1663 C 0.47194 0.50465 0.91758 0.0
C1664 C 0.47923 0.50157 0.9879 0.0
C1665 C 0.49465 0.49961 0.97675 0.0
C1666 C 0.49858 0.5005 0.93557 0.0
C1667 C 0.48735 0.5031 0.90632 0.0
H1668 H 0.04835 0.50216 0.4748 0.0
H1669 H 0.01167 0.49175 0.39179 0.0
H1670 H 0.0296 0.50631 0.52888 0.0
H1671 H 0.99294 0.49609 0.44563 0.0
H1672 H 0.96595 0.52426 0.5419 0.0
H1673 H 0.98501 0.52034 0.48899 0.0
H1674 H 0.00928 0.4887 0.56584 0.0
H1675 H 0.98994 0.49189 0.61803 0.0
C1676 C 0.03628 0.50074 0.46828 0.0
C1677 C 0.0314 0.49657 0.42939 0.0
C1678 C 0.0256 0.50308 0.49908 0.0
C1679 C 0.00988 0.50158 0.49118 0.0
C1680 C 0.00501 0.49742 0.45228 0.0
C1681 C 0.01569 0.49481 0.4217 0.0
C1682 C 0.97524 0.51635 0.54749 0.0
C1683 C 0.97634 0.50841 0.58439 0.0
C1684 C 0.98618 0.51418 0.51724 0.0
C1685 C -0.00144 0.50423 0.52351 0.0
C1686 C -0.0001 0.49655 0.56053 0.0
C1687 C 0.98885 0.4985 0.5905 0.0
H1688 H 0.01216 0.48228 0.10679 0.0
H1689 H 0.03069 0.52138 0.04394 0.0
H1690 H 0.99116 0.48098 0.05851 0.0
H1691 H 0.00992 0.51987 0.99466 0.0
H1692 H 0.9637 0.52168 0.93377 0.0
H1693 H 0.98314 0.52358 0.98601 0.0
H1694 H 0.98631 0.47425 0.99022 0.0
H1695 H 0.96612 0.47234 0.93983 0.0
C1696 C 0.01178 0.49052 0.08234 0.0
C1697 C 0.02307 0.50188 0.07887 0.0
C1698 C -0.00022 0.48975 0.0546 0.0
C1699 C -0.00112 0.50025 0.02252 0.0
C1700 C 0.01013 0.51173 0.01933 0.0
C1701 C 0.02206 0.51258 0.04739 0.0
C1702 C 0.96828 0.51122 0.94645 0.0
C1703 C 0.96327 0.49684 0.93265 0.0
C1704 C 0.97964 0.51232 0.97597 0.0
C1705 C 0.98638 0.49908 0.99219 0.0
C1706 C 0.98126 0.4847 0.97874 0.0
C1707 C 0.9698 0.48359 0.94945 0.0
H1708 H 0.45019 0.49182 0.51997 0.0
H1709 H 0.48441 0.47775 0.60649 0.0
H1710 H 0.46983 0.4933 0.46743 0.0
H1711 H 0.50406 0.47923 0.55397 0.0
H1712 H 0.53472 0.50653 0.46354 0.0
H1713 H 0.51522 0.50209 0.51489 0.0
H1714 H 0.48867 0.47594 0.4293 0.0
H1715 H 0.50837 0.47985 0.3782 0.0
C1716 C 0.46188 0.48886 0.52752 0.0
C1717 C 0.46582 0.48468 0.56716 0.0
C1718 C 0.47309 0.48965 0.49752 0.0
C1719 C 0.48844 0.48648 0.50682 0.0
C1720 C 0.49231 0.48186 0.54618 0.0
C1721 C 0.48107 0.48087 0.57605 0.0
C1722 C 0.52486 0.49965 0.45574 0.0
C1723 C 0.52314 0.49359 0.41662 0.0
C1724 C 0.51368 0.49713 0.48516 0.0
C1725 C 0.50049 0.48865 0.47598 0.0
C1726 C 0.49869 0.48263 0.43698 0.0
C1727 C 0.50994 0.48498 0.40769 0.0
H1728 H 0.15453 0.44521 0.19129 0.0
H1729 H 0.11652 0.41564 0.16151 0.0
H1730 H 0.17216 0.42688 0.16141 0.0
H1731 H 0.13423 0.39736 0.13107 0.0
H1732 H 0.16966 0.37893 0.03841 0.0
H1733 H 0.15142 0.39615 0.07112 0.0
H1734 H 0.18208 0.40086 0.17282 0.0
H1735 H 0.20044 0.38404 0.13975 0.0
C1736 C 0.14995 0.4347 0.17893 0.0
C1737 C 0.13411 0.43189 0.17887 0.0
C1738 C 0.16006 0.42421 0.16169 0.0
C1739 C 0.15457 0.4107 0.14385 0.0
C1740 C 0.13876 0.40778 0.14413 0.0
C1741 C 0.12863 0.41825 0.16155 0.0
C1742 C 0.1725 0.38371 0.06766 0.0
C1743 C 0.18648 0.38015 0.08649 0.0
C1744 C 0.16201 0.39342 0.08657 0.0
C1745 C 0.16534 0.39985 0.12451 0.0
C1746 C 0.17926 0.39619 0.14342 0.0
C1747 C 0.1897 0.38644 0.12465 0.0
H1748 H 0.82854 0.86642 0.40125 0.0
H1749 H 0.80594 0.9035 0.46391 0.0
H1750 H 0.8463 0.88465 0.37101 0.0
H1751 H 0.82409 0.92155 0.43474 0.0
H1752 H 0.86914 0.94639 0.40164 0.0
H1753 H 0.85294 0.92746 0.4354 0.0
H1754 H 0.8428 0.90669 0.32005 0.0
H1755 H 0.859 0.92562 0.28629 0.0
C1756 C 0.82736 0.87842 0.40871 0.0
C1757 C 0.8157 0.88347 0.43481 0.0
C1758 C 0.83757 0.88883 0.39147 0.0
C1759 C 0.83649 0.90448 0.40043 0.0
C1760 C 0.82524 0.90951 0.42763 0.0
C1761 C 0.8149 0.89913 0.44448 0.0
C1762 C 0.86352 0.9377 0.38361 0.0
C1763 C 0.86529 0.93743 0.34141 0.0
C1764 C 0.85421 0.92696 0.40286 0.0
C1765 C 0.84668 0.91563 0.38029 0.0
C1766 C 0.8486 0.91524 0.33815 0.0
C1767 C 0.85774 0.92612 0.31884 0.0
H1768 H 0.30606 0.59477 0.53478 0.0
H1769 H 0.32785 0.63345 0.59217 0.0
H1770 H 0.32439 0.57762 0.56703 0.0
H1771 H 0.34594 0.61623 0.62531 0.0
H1772 H 0.38409 0.58063 0.64814 0.0
H1773 H 0.36735 0.59825 0.6115 0.0
H1774 H 0.32864 0.56912 0.63736 0.0
H1775 H 0.34538 0.55136 0.67296 0.0
C1776 C 0.3149 0.59963 0.55383 0.0
C1777 C 0.31549 0.61545 0.56108 0.0
C1778 C 0.32527 0.58979 0.57269 0.0
C1779 C 0.33648 0.59557 0.59905 0.0
C1780 C 0.33745 0.61145 0.60507 0.0
C1781 C 0.32703 0.62129 0.58635 0.0
C1782 C 0.37201 0.578 0.64587 0.0
C1783 C 0.36604 0.56463 0.66345 0.0
C1784 C 0.36242 0.58812 0.62514 0.0
C1785 C 0.34671 0.585 0.62134 0.0
C1786 C 0.34074 0.57171 0.63929 0.0
C1787 C 0.35029 0.56165 0.66016 0.0
H1788 H 0.69769 0.09244 0.94334 0.0
H1789 H 0.6681 0.13053 0.91449 0.0
H1790 H 0.67999 0.07508 0.90991 0.0
H1791 H 0.65077 0.11325 0.87921 0.0
H1792 H 0.61575 0.07547 0.85406 0.0
H1793 H 0.63268 0.09287 0.89027 0.0
H1794 H 0.67195 0.06895 0.84229 0.0
H1795 H 0.65504 0.05109 0.80781 0.0
C1796 C 0.68735 0.09711 0.93015 0.0
C1797 C 0.68431 0.11289 0.93163 0.0
C1798 C 0.67731 0.08717 0.91042 0.0
C1799 C 0.66403 0.09279 0.89155 0.0
C1800 C 0.66084 0.10853 0.89366 0.0
C1801 C 0.67086 0.11846 0.91352 0.0
C1802 C 0.628 0.07386 0.85148 0.0
C1803 C 0.63403 0.06186 0.82811 0.0
C1804 C 0.6377 0.08394 0.87189 0.0
C1805 C 0.65367 0.08226 0.86933 0.0
C1806 C 0.6597 0.07041 0.84543 0.0
C1807 C 0.65 0.06031 0.82514 0.0
H1808 H 0.11639 0.58204 0.31538 0.0
H1809 H 0.15355 0.54971 0.30318 0.0
H1810 H 0.13338 0.59958 0.35071 0.0
H1811 H 0.17073 0.56765 0.336 0.0
H1812 H 0.19298 0.59419 0.4372 0.0
H1813 H 0.17546 0.57731 0.40177 0.0
H1814 H 0.15464 0.61636 0.34341 0.0
H1815 H 0.17152 0.63334 0.38095 0.0
C1816 C 0.12821 0.57871 0.3199 0.0
C1817 C 0.13354 0.56439 0.30661 0.0
C1818 C 0.13801 0.58887 0.33976 0.0
C1819 C 0.15342 0.585 0.34654 0.0
C1820 C 0.15887 0.5709 0.33203 0.0
C1821 C 0.14905 0.5607 0.31251 0.0
C1822 C 0.18448 0.59923 0.41743 0.0
C1823 C 0.18367 0.61516 0.41205 0.0
C1824 C 0.17459 0.58951 0.39652 0.0
C1825 C 0.16372 0.59544 0.36936 0.0
C1826 C 0.16278 0.61138 0.36428 0.0
C1827 C 0.1726 0.62112 0.38548 0.0
H1828 H 0.61605 0.92796 0.61668 0.0
H1829 H 0.6497 0.93642 0.70974 0.0
H1830 H 0.63356 0.91014 0.58381 0.0
H1831 H 0.66701 0.91823 0.67761 0.0
H1832 H 0.70037 0.9011 0.58147 0.0
H1833 H 0.68212 0.91781 0.61523 0.0
H1834 H 0.64605 0.88512 0.59253 0.0
H1835 H 0.66426 0.86858 0.55747 0.0
C1836 C 0.62715 0.92592 0.63025 0.0
C1837 C 0.63155 0.93367 0.66563 0.0
C1838 C 0.63711 0.91562 0.61164 0.0
C1839 C 0.6517 0.91287 0.62797 0.0
C1840 C 0.65592 0.92028 0.664 0.0
C1841 C 0.64594 0.93055 0.68267 0.0
C1842 C 0.68851 0.89757 0.58316 0.0
C1843 C 0.68374 0.88355 0.56662 0.0
C1844 C 0.6781 0.90704 0.60302 0.0
C1845 C 0.66268 0.90273 0.60681 0.0
C1846 C 0.65785 0.88879 0.58992 0.0
C1847 C 0.66829 0.87927 0.57011 0.0
H1848 H 0.34274 0.44964 0.82558 0.0
H1849 H 0.38113 0.41882 0.83839 0.0
H1850 H 0.32612 0.43083 0.85736 0.0
H1851 H 0.36466 0.40034 0.87219 0.0
H1852 H 0.32712 0.36457 0.89257 0.0
H1853 H 0.34397 0.38291 0.85954 0.0
H1854 H 0.3214 0.41986 0.92259 0.0
H1855 H 0.30404 0.40162 0.95387 0.0
C1856 C 0.34763 0.43882 0.835 0.0
C1857 C 0.36328 0.43575 0.82937 0.0
C1858 C 0.33814 0.42813 0.8538 0.0
C1859 C 0.34407 0.41412 0.86762 0.0
C1860 C 0.35969 0.41097 0.86164 0.0
C1861 C 0.36917 0.42164 0.84266 0.0
C1862 C 0.32569 0.37662 0.89919 0.0
C1863 C 0.31419 0.38161 0.92579 0.0
C1864 C 0.33546 0.38712 0.88059 0.0
C1865 C 0.334 0.40287 0.88827 0.0
C1866 C 0.32269 0.40784 0.9155 0.0
C1867 C 0.31288 0.39734 0.93395 0.0
H1868 H 0.80159 0.11179 0.12818 0.0
H1869 H 0.83121 0.12056 0.02612 0.0
H1870 H 0.82088 0.0951 0.15735 0.0
H1871 H 0.85046 0.10348 0.05521 0.0
H1872 H 0.86971 0.05628 0.09977 0.0
H1873 H 0.85275 0.07533 0.06993 0.0
H1874 H 0.84713 0.09658 0.18678 0.0
H1875 H 0.86431 0.0777 0.21665 0.0
C1876 C 0.8123 0.11034 0.11218 0.0
C1877 C 0.81487 0.11762 0.07488 0.0
C1878 C 0.82335 0.10074 0.12893 0.0
C1879 C 0.8372 0.09807 0.10867 0.0
C1880 C 0.83982 0.10527 0.07133 0.0
C1881 C 0.82878 0.115 0.05465 0.0
C1882 C 0.86511 0.06518 0.119 0.0
C1883 C 0.8683 0.06541 0.16068 0.0
C1884 C 0.85538 0.07608 0.10187 0.0
C1885 C 0.84857 0.08737 0.12609 0.0
C1886 C 0.85206 0.08785 0.16752 0.0
C1887 C 0.86185 0.07702 0.18462 0.0
H1888 H 0.80773 0.62682 0.85681 0.0
H1889 H 0.81171 0.59779 0.9619 0.0
H1890 H 0.82576 0.61046 0.82041 0.0
H1891 H 0.82976 0.5814 0.92543 0.0
H1892 H 0.87435 0.56714 0.86093 0.0
H1893 H 0.85674 0.58421 0.89634 0.0
H1894 H 0.82593 0.58281 0.79433 0.0
H1895 H 0.84361 0.56571 0.75876 0.0
C1896 C 0.81256 0.617 0.87217 0.0
C1897 C 0.80842 0.61359 0.91221 0.0
C1898 C 0.82275 0.60759 0.85125 0.0
C1899 C 0.82914 0.59471 0.87016 0.0
C1900 C 0.82508 0.59134 0.91029 0.0
C1901 C 0.81472 0.60064 0.93104 0.0
C1902 C 0.86391 0.57064 0.84589 0.0
C1903 C 0.86036 0.56519 0.80705 0.0
C1904 C 0.85378 0.58026 0.8663 0.0
C1905 C 0.83999 0.58476 0.84808 0.0
C1906 C 0.83655 0.57956 0.80893 0.0
C1907 C 0.8466 0.56975 0.7887 0.0
H1908 H 0.20141 0.09731 0.60946 0.0
H1909 H 0.1637 0.12305 0.55911 0.0
H1910 H 0.18349 0.08155 0.647 0.0
H1911 H 0.1458 0.10789 0.59876 0.0
H1912 H 0.11775 0.0663 0.6394 0.0
H1913 H 0.1351 0.08293 0.60229 0.0
H1914 H 0.16655 0.08233 0.70324 0.0
H1915 H 0.14927 0.06529 0.73987 0.0
C1916 C 0.18929 0.09958 0.60621 0.0
C1917 C 0.18401 0.1114 0.58097 0.0
C1918 C 0.17901 0.0907 0.62838 0.0
C1919 C 0.16319 0.0935 0.62618 0.0
C1920 C 0.1579 0.10531 0.60091 0.0
C1921 C 0.16818 0.11412 0.57848 0.0
C1922 C 0.12827 0.06993 0.65388 0.0
C1923 C 0.13216 0.06456 0.69256 0.0
C1924 C 0.13822 0.07947 0.63261 0.0
C1925 C 0.15227 0.08394 0.64967 0.0
C1926 C 0.15596 0.07887 0.68886 0.0
C1927 C 0.14605 0.0692 0.70998 0.0
H1928 H 0.68653 0.40485 0.47021 0.0
H1929 H 0.68809 0.37339 0.36967 0.0
H1930 H 0.66977 0.42173 0.4314 0.0
H1931 H 0.67155 0.39027 0.33074 0.0
H1932 H 0.62862 0.41601 0.2903 0.0
H1933 H 0.64551 0.39922 0.32864 0.0
H1934 H 0.67014 0.4386 0.37346 0.0
H1935 H 0.6528 0.4554 0.33667 0.0
C1936 C 0.68334 0.40159 0.43977 0.0
C1937 C 0.68851 0.38776 0.4231 0.0
C1938 C 0.6738 0.41127 0.41747 0.0
C1939 C 0.66932 0.40734 0.37795 0.0
C1940 C 0.67456 0.39351 0.36132 0.0
C1941 C 0.68403 0.38383 0.38365 0.0
C1942 C 0.63762 0.42108 0.30843 0.0
C1943 C 0.63938 0.43703 0.31039 0.0
C1944 C 0.64739 0.41145 0.33011 0.0
C1945 C 0.65916 0.41757 0.35419 0.0
C1946 C 0.66107 0.43352 0.35562 0.0
C1947 C 0.65128 0.44315 0.33401 0.0
H1948 H 0.34431 0.93782 0.21914 0.0
H1949 H 0.37702 0.93403 0.12175 0.0
H1950 H 0.32735 0.92007 0.1841 0.0
H1951 H 0.36036 0.91583 0.08755 0.0
H1952 H 0.31909 0.89682 0.01787 0.0
H1953 H 0.33589 0.915 0.05217 0.0
H1954 H 0.32605 0.89318 0.16643 0.0
H1955 H 0.30885 0.87549 0.13254 0.0
C1956 C 0.34789 0.93317 0.19032 0.0
C1957 C 0.36204 0.93729 0.17334 0.0
C1958 C 0.33825 0.92289 0.17042 0.0
C1959 C 0.34252 0.91651 0.13307 0.0
C1960 C 0.35666 0.92064 0.11608 0.0
C1961 C 0.36631 0.93091 0.13598 0.0
C1962 C 0.32047 0.89598 0.05033 0.0
C1963 C 0.31269 0.88466 0.07242 0.0
C1964 C 0.33019 0.90629 0.06993 0.0
C1965 C 0.3323 0.90553 0.11204 0.0
C1966 C 0.32455 0.89419 0.13404 0.0
C1967 C 0.31485 0.8839 0.1145 0.0
H1968 H 0.83262 0.36537 0.58956 0.0
H1969 H 0.80486 0.40312 0.5481 0.0
H1970 H 0.85061 0.38343 0.62029 0.0
H1971 H 0.82285 0.42113 0.57854 0.0
H1972 H 0.84651 0.44561 0.68482 0.0
H1973 H 0.82981 0.4271 0.65148 0.0
H1974 H 0.86928 0.40472 0.5999 0.0
H1975 H 0.88605 0.42324 0.63352 0.0
C1976 C 0.83046 0.37752 0.58673 0.0
C1977 C 0.81736 0.38286 0.56651 0.0
C1978 C 0.84077 0.38783 0.60411 0.0
C1979 C 0.83803 0.40365 0.60201 0.0
C1980 C 0.82513 0.40898 0.58094 0.0
C1981 C 0.81494 0.3987 0.56317 0.0
C1982 C 0.85162 0.43663 0.66672 0.0
C1983 C 0.86756 0.43582 0.66178 0.0
C1984 C 0.84207 0.42616 0.64731 0.0
C1985 C 0.84827 0.41457 0.62291 0.0
C1986 C 0.86423 0.41353 0.61862 0.0
C1987 C 0.87379 0.42414 0.63766 0.0
H1988 H 0.33156 0.11963 0.46456 0.0
H1989 H 0.29294 0.09371 0.42027 0.0
H1990 H 0.34884 0.1034 0.4256 0.0
H1991 H 0.31024 0.07716 0.38252 0.0
H1992 H 0.344 0.06339 0.28258 0.0
H1993 H 0.32674 0.07911 0.32312 0.0
H1994 H 0.35868 0.07734 0.42274 0.0
H1995 H 0.3759 0.06169 0.38231 0.0
C1996 C 0.32679 0.11037 0.44682 0.0
C1997 C 0.31091 0.10793 0.44556 0.0
C1998 C 0.33668 0.10101 0.42474 0.0
C1999 C 0.33089 0.08903 0.40084 0.0
C2000 C 0.31503 0.08641 0.40023 0.0
C2001 C 0.30515 0.09575 0.42235 0.0
C2002 C 0.34729 0.06633 0.31318 0.0
C2003 C 0.36136 0.0614 0.32911 0.0
C2004 C 0.3374 0.07528 0.33645 0.0
C2005 C 0.34135 0.07946 0.37616 0.0
C2006 C 0.35541 0.07452 0.39206 0.0
C2007 C 0.36529 0.06558 0.36883 0.0
H2008 H 0.65012 0.56251 0.22269 0.0
H2009 H 0.61599 0.5657 0.12863 0.0
H2010 H 0.66694 0.57934 0.18406 0.0
H2011 H 0.63283 0.5823 0.08971 0.0
H2012 H 0.66143 0.62328 0.04871 0.0
H2013 H 0.64414 0.60738 0.08839 0.0
H2014 H 0.68214 0.57864 0.12346 0.0
H2015 H 0.69952 0.59497 0.08553 0.0
C2016 C 0.64623 0.56683 0.19377 0.0
C2017 C 0.63173 0.56285 0.17876 0.0
C2018 C 0.65587 0.5764 0.17153 0.0
C2019 C 0.65127 0.5821 0.13366 0.0
C2020 C 0.63666 0.57829 0.119 0.0
C2021 C 0.62699 0.5688 0.14133 0.0
C2022 C 0.6661 0.6136 0.06504 0.0
C2023 C 0.68185 0.61039 0.06392 0.0
C2024 C 0.65616 0.6044 0.0875 0.0
C2025 C 0.66176 0.59177 0.10927 0.0
C2026 C 0.67748 0.58842 0.10756 0.0
C2027 C 0.68741 0.59764 0.08524 0.0
H2028 H 0.19418 0.87732 0.84985 0.0
H2029 H 0.17738 0.89446 0.96403 0.0
H2030 H 0.17682 0.89434 0.81405 0.0
H2031 H 0.16052 0.91207 0.9281 0.0
H2032 H 0.12069 0.92938 0.85222 0.0
H2033 H 0.1377 0.91176 0.88712 0.0
H2034 H 0.17315 0.92111 0.79951 0.0
H2035 H 0.15583 0.93821 0.76338 0.0
C2036 C 0.18674 0.88469 0.86735 0.0
C2037 C 0.18708 0.88444 0.90984 0.0
C2038 C 0.17694 0.89461 0.84678 0.0
C2039 C 0.16729 0.90458 0.86818 0.0
C2040 C 0.16768 0.9044 0.91069 0.0
C2041 C 0.17747 0.89443 0.9313 0.0
C2042 C 0.13202 0.92747 0.83994 0.0
C2043 C 0.13686 0.9351 0.80477 0.0
C2044 C 0.14185 0.91755 0.86035 0.0
C2045 C 0.15681 0.91506 0.84622 0.0
C2046 C 0.16165 0.92265 0.81097 0.0
C2047 C 0.15178 0.93256 0.79047 0.0
loop_
_geom_bond_atom_site_label_1
_geom_bond_atom_site_label_2
_geom_bond_distance
_geom_bond_site_symmetry_2
_ccdc_geom_bond_type
Li0 N17 1.990 . S
Li0 O60 1.956 1_554 S
Li0 O61 1.970 . S
Li0 O62 1.961 . S
Li1 N25 1.990 . S
Li1 O60 1.970 . S
Li1 O61 1.956 1_556 S
Li1 O63 1.961 . S
Li2 N47 1.990 . S
Li2 O60 1.961 . S
Li2 O62 1.956 1_556 S
Li2 O63 1.970 . S
Li3 N53 1.990 . S
Li3 O61 1.961 . S
Li3 O62 1.970 . S
Li3 O63 1.956 1_554 S
C4 C6 1.348 . S
C4 C7 1.356 . S
C4 O60 1.325 . S
N5 C8 1.314 . S
N5 C9 1.279 . S
C6 C4 1.348 . S
C6 C8 1.353 . S
C6 H64 0.929 . S
C7 C4 1.356 . S
C7 C9 1.358 . S
C7 H65 0.930 . S
C8 N5 1.314 . S
C8 C6 1.353 . S
C8 H66 0.930 . S
C9 N5 1.279 . S
C9 C7 1.358 . S
C9 H67 0.930 . S
C10 C13 1.348 . S
C10 C14 1.356 . S
C10 O61 1.325 . S
C11 N12 1.279 . S
C11 C14 1.358 . S
C11 H68 0.930 . S
N12 C11 1.279 . S
N12 C15 1.314 . S
C13 C10 1.348 . S
C13 C15 1.353 . S
C13 H69 0.929 . S
C14 C10 1.356 . S
C14 C11 1.358 . S
C14 H70 0.930 . S
C15 N12 1.314 . S
C15 C13 1.353 . S
C15 H71 0.930 . S
C16 N17 1.314 . S
C16 C21 1.353 . S
C16 H22 0.930 . S
N17 Li0 1.990 . S
N17 C16 1.314 . S
N17 C19 1.279 1_554 S
C18 C19 1.358 1_554 S
C18 C20 1.356 . S
C18 H72 0.930 1_554 S
C19 N17 1.279 1_556 S
C19 C18 1.358 1_556 S
C19 H23 0.930 . S
C20 C18 1.356 . S
C20 C21 1.348 . S
C21 C16 1.353 . S
C21 C20 1.348 . S
C21 H73 0.929 . S
H22 C16 0.930 . S
H23 C19 0.930 . S
C24 N25 1.314 . S
C24 C26 1.353 . S
C24 H30 0.930 . S
N25 Li1 1.990 . S
N25 C24 1.314 . S
N25 C28 1.279 1_556 S
C26 C24 1.353 . S
C26 C29 1.348 . S
C26 H74 0.929 . S
C27 C28 1.358 1_556 S
C27 C29 1.356 . S
C27 H75 0.930 1_556 S
C28 N25 1.279 1_554 S
C28 C27 1.358 1_554 S
C28 H31 0.930 . S
C29 C26 1.348 . S
C29 C27 1.356 . S
H30 C24 0.930 . S
H31 C28 0.930 . S
C32 C34 1.348 . S
C32 C35 1.356 . S
C32 O62 1.325 . S
N33 C36 1.314 . S
N33 C37 1.279 . S
C34 C32 1.348 . S
C34 C36 1.353 . S
C34 H76 0.929 . S
C35 C32 1.356 . S
C35 C37 1.358 . S
C35 H77 0.930 1_554 S
C36 N33 1.314 . S
C36 C34 1.353 . S
C36 H78 0.930 . S
C37 N33 1.279 . S
C37 C35 1.358 . S
C37 H79 0.930 1_554 S
C38 C39 1.348 . S
C38 C40 1.356 . S
C38 O63 1.325 . S
C39 C38 1.348 . S
C39 C41 1.353 . S
C39 H80 0.929 . S
C40 C38 1.356 . S
C40 C42 1.358 . S
C40 H81 0.930 1_556 S
C41 C39 1.353 . S
C41 N43 1.314 . S
C41 H82 0.930 . S
C42 C40 1.358 . S
C42 N43 1.279 . S
C42 H83 0.930 1_556 S
N43 C41 1.314 . S
N43 C42 1.279 . S
C44 C46 1.353 . S
C44 N47 1.314 . S
C44 H50 0.930 . S
C45 N47 1.279 . S
C45 C48 1.358 . S
C45 H51 0.930 . S
C46 C44 1.353 . S
C46 C49 1.348 . S
C46 H84 0.929 . S
N47 Li2 1.990 . S
N47 C44 1.314 . S
N47 C45 1.279 . S
C48 C45 1.358 . S
C48 C49 1.356 . S
C48 H85 0.930 . S
C49 C46 1.348 . S
C49 C48 1.356 . S
H50 C44 0.930 . S
H51 C45 0.930 . S
C52 N53 1.314 . S
C52 C54 1.353 . S
C52 H58 0.930 . S
N53 Li3 1.990 . S
N53 C52 1.314 . S
N53 C56 1.279 . S
C54 C52 1.353 . S
C54 C57 1.348 . S
C54 H86 0.929 . S
C55 C56 1.358 . S
C55 C57 1.356 . S
C55 H87 0.930 . S
C56 N53 1.279 . S
C56 C55 1.358 . S
C56 H59 0.930 . S
C57 C54 1.348 . S
C57 C55 1.356 . S
H58 C52 0.930 . S
H59 C56 0.930 . S
O60 Li0 1.956 1_556 S
O60 Li1 1.970 . S
O60 Li2 1.961 . S
O60 C4 1.325 . S
O61 Li0 1.970 . S
O61 Li1 1.956 1_554 S
O61 Li3 1.961 . S
O61 C10 1.325 . S
O62 Li0 1.961 . S
O62 Li2 1.956 1_554 S
O62 Li3 1.970 . S
O62 C32 1.325 . S
O63 Li1 1.961 . S
O63 Li2 1.970 . S
O63 Li3 1.956 1_556 S
O63 C38 1.325 . S
H64 C6 0.929 . S
H65 C7 0.930 . S
H66 C8 0.930 . S
H67 C9 0.930 . S
H68 C11 0.930 . S
H69 C13 0.929 . S
H70 C14 0.930 . S
H71 C15 0.930 . S
H72 C18 0.930 1_556 S
H73 C21 0.929 . S
H74 C26 0.929 . S
H75 C27 0.930 1_554 S
H76 C34 0.929 . S
H77 C35 0.930 1_556 S
H78 C36 0.930 . S
H79 C37 0.930 1_556 S
H80 C39 0.929 . S
H81 C40 0.930 1_554 S
H82 C41 0.930 . S
H83 C42 0.930 1_554 S
H84 C46 0.929 . S
H85 C48 0.930 . S
H86 C54 0.929 . S
H87 C55 0.930 . S
Li88 N105 1.990 . S
Li88 O148 1.956 . S
Li88 O149 1.970 1_565 S
Li88 O150 1.961 . S
Li89 N113 1.990 . S
Li89 O148 1.970 1_545 S
Li89 O149 1.956 . S
Li89 O151 1.961 . S
Li90 N135 1.990 . S
Li90 O148 1.961 . S
Li90 O150 1.956 . S
Li90 O151 1.970 1_565 S
Li91 N141 1.990 . S
Li91 O149 1.961 . S
Li91 O150 1.970 1_545 S
Li91 O151 1.956 . S
C92 C94 1.348 . S
C92 C95 1.356 . S
C92 O148 1.325 . S
N93 C96 1.314 . S
N93 C97 1.279 . S
C94 C92 1.348 . S
C94 C96 1.353 . S
C94 H152 0.929 . S
C95 C92 1.356 . S
C95 C97 1.358 . S
C95 H153 0.930 . S
C96 N93 1.314 . S
C96 C94 1.353 . S
C96 H154 0.930 . S
C97 N93 1.279 . S
C97 C95 1.358 . S
C97 H155 0.930 . S
C98 C101 1.348 . S
C98 C102 1.356 . S
C98 O149 1.325 . S
C99 N100 1.279 . S
C99 C102 1.358 . S
C99 H156 0.930 . S
N100 C99 1.279 . S
N100 C103 1.314 . S
C101 C98 1.348 . S
C101 C103 1.353 . S
C101 H157 0.929 . S
C102 C98 1.356 . S
C102 C99 1.358 . S
C102 H158 0.930 . S
C103 N100 1.314 . S
C103 C101 1.353 . S
C103 H159 0.930 . S
C104 N105 1.314 . S
C104 C109 1.353 . S
C104 H110 0.930 1_565 S
N105 Li88 1.990 . S
N105 C104 1.314 . S
N105 C107 1.279 . S
C106 C107 1.358 . S
C106 C108 1.356 . S
C106 H160 0.930 . S
C107 N105 1.279 . S
C107 C106 1.358 . S
C107 H111 0.930 . S
C108 C106 1.356 . S
C108 C109 1.348 . S
C109 C104 1.353 . S
C109 C108 1.348 . S
C109 H161 0.929 . S
H110 C104 0.930 1_545 S
H111 C107 0.930 . S
C112 N113 1.314 . S
C112 C114 1.353 . S
C112 H118 0.930 1_545 S
N113 Li89 1.990 . S
N113 C112 1.314 . S
N113 C116 1.279 . S
C114 C112 1.353 . S
C114 C117 1.348 . S
C114 H162 0.929 . S
C115 C116 1.358 . S
C115 C117 1.356 . S
C115 H163 0.930 . S
C116 N113 1.279 . S
C116 C115 1.358 . S
C116 H119 0.930 . S
C117 C114 1.348 . S
C117 C115 1.356 . S
H118 C112 0.930 1_565 S
H119 C116 0.930 . S
C120 C122 1.332 1_565 S
C120 C123 1.356 . S
C120 O150 1.325 . S
N121 C124 1.314 . S
N121 C125 1.279 . S
C122 C120 1.332 1_545 S
C122 C124 1.344 1_545 S
C122 H164 0.955 . S
C123 C120 1.356 . S
C123 C125 1.358 . S
C123 H165 0.930 . S
C124 N121 1.314 . S
C124 C122 1.344 1_565 S
C124 H166 0.930 1_565 S
C125 N121 1.279 . S
C125 C123 1.358 . S
C125 H167 0.930 . S
C126 C127 1.340 1_545 S
C126 C128 1.356 . S
C126 O151 1.325 . S
C127 C126 1.340 1_565 S
C127 C129 1.349 1_565 S
C127 H168 0.941 . S
C128 C126 1.356 . S
C128 C130 1.358 . S
C128 H169 0.930 . S
C129 C127 1.349 1_545 S
C129 N131 1.314 . S
C129 H170 0.930 1_545 S
C130 C128 1.358 . S
C130 N131 1.279 . S
C130 H171 0.930 . S
N131 C129 1.314 . S
N131 C130 1.279 . S
C132 C134 1.353 . S
C132 N135 1.314 . S
C132 H138 0.930 . S
C133 N135 1.279 . S
C133 C136 1.358 . S
C133 H139 0.930 . S
C134 C132 1.353 . S
C134 C137 1.348 . S
C134 H172 0.929 . S
N135 Li90 1.990 . S
N135 C132 1.314 . S
N135 C133 1.279 . S
C136 C133 1.358 . S
C136 C137 1.356 . S
C136 H173 0.930 . S
C137 C134 1.348 . S
C137 C136 1.356 . S
H138 C132 0.930 . S
H139 C133 0.930 . S
C140 N141 1.314 . S
C140 C142 1.353 . S
C140 H146 0.930 . S
N141 Li91 1.990 . S
N141 C140 1.314 . S
N141 C144 1.279 . S
C142 C140 1.353 . S
C142 C145 1.348 . S
C142 H174 0.929 . S
C143 C144 1.358 . S
C143 C145 1.356 . S
C143 H175 0.930 . S
C144 N141 1.279 . S
C144 C143 1.358 . S
C144 H147 0.930 . S
C145 C142 1.348 . S
C145 C143 1.356 . S
H146 C140 0.930 . S
H147 C144 0.930 . S
O148 Li88 1.956 . S
O148 Li89 1.970 1_565 S
O148 Li90 1.961 . S
O148 C92 1.325 . S
O149 Li88 1.970 1_545 S
O149 Li89 1.956 . S
O149 Li91 1.961 . S
O149 C98 1.325 . S
O150 Li88 1.961 . S
O150 Li90 1.956 . S
O150 Li91 1.970 1_565 S
O150 C120 1.325 . S
O151 Li89 1.961 . S
O151 Li90 1.970 1_545 S
O151 Li91 1.956 . S
O151 C126 1.325 . S
H152 C94 0.929 . S
H153 C95 0.930 . S
H154 C96 0.930 . S
H155 C97 0.930 . S
H156 C99 0.930 . S
H157 C101 0.929 . S
H158 C102 0.930 . S
H159 C103 0.930 . S
H160 C106 0.930 . S
H161 C109 0.929 . S
H162 C114 0.929 . S
H163 C115 0.930 . S
H164 C122 0.955 . S
H165 C123 0.930 . S
H166 C124 0.930 1_545 S
H167 C125 0.930 . S
H168 C127 0.941 . S
H169 C128 0.930 . S
H170 C129 0.930 1_565 S
H171 C130 0.930 . S
H172 C134 0.929 . S
H173 C136 0.930 . S
H174 C142 0.929 . S
H175 C143 0.930 . S
Li176 N193 1.990 . S
Li176 O236 1.956 . S
Li176 O237 1.970 . S
Li176 O238 1.961 . S
Li177 N201 1.990 . S
Li177 O236 1.970 . S
Li177 O237 1.956 . S
Li177 O239 1.961 . S
Li178 N223 1.990 . S
Li178 O236 1.961 . S
Li178 O238 1.956 . S
Li178 O239 1.970 . S
Li179 N229 1.990 . S
Li179 O237 1.961 . S
Li179 O238 1.970 . S
Li179 O239 1.956 . S
C180 C182 1.348 . S
C180 C183 1.356 . S
C180 O236 1.325 . S
N181 C184 1.314 . S
N181 C185 1.279 . S
C182 C180 1.348 . S
C182 C184 1.353 . S
C182 H240 0.929 . S
C183 C180 1.356 . S
C183 C185 1.358 . S
C183 H241 0.930 . S
C184 N181 1.314 . S
C184 C182 1.353 . S
C184 H242 0.930 . S
C185 N181 1.279 . S
C185 C183 1.358 . S
C185 H243 0.930 . S
C186 C189 1.348 . S
C186 C190 1.356 . S
C186 O237 1.325 . S
C187 N188 1.279 . S
C187 C190 1.358 . S
C187 H244 0.930 . S
N188 C187 1.279 . S
N188 C191 1.314 . S
C189 C186 1.348 . S
C189 C191 1.353 . S
C189 H245 0.929 . S
C190 C186 1.356 . S
C190 C187 1.358 . S
C190 H246 0.930 . S
C191 N188 1.314 . S
C191 C189 1.353 . S
C191 H247 0.930 . S
C192 N193 1.314 . S
C192 C197 1.353 . S
C192 H198 0.930 . S
N193 Li176 1.990 . S
N193 C192 1.314 . S
N193 C195 1.279 . S
C194 C195 1.358 . S
C194 C196 1.356 . S
C194 H248 0.930 . S
C195 N193 1.279 . S
C195 C194 1.358 . S
C195 H199 0.930 . S
C196 C194 1.356 . S
C196 C197 1.348 . S
C197 C192 1.353 . S
C197 C196 1.348 . S
C197 H249 0.929 . S
H198 C192 0.930 . S
H199 C195 0.930 . S
C200 N201 1.314 . S
C200 C202 1.353 . S
C200 H206 0.930 . S
N201 Li177 1.990 . S
N201 C200 1.314 . S
N201 C204 1.279 . S
C202 C200 1.353 . S
C202 C205 1.348 . S
C202 H250 0.929 . S
C203 C204 1.358 . S
C203 C205 1.356 . S
C203 H251 0.930 . S
C204 N201 1.279 . S
C204 C203 1.358 . S
C204 H207 0.930 . S
C205 C202 1.348 . S
C205 C203 1.356 . S
H206 C200 0.930 . S
H207 C204 0.930 . S
C208 C210 1.348 . S
C208 C211 1.356 . S
C208 O238 1.325 . S
N209 C212 1.314 . S
N209 C213 1.279 . S
C210 C208 1.348 . S
C210 C212 1.353 . S
C210 H252 0.929 . S
C211 C208 1.356 . S
C211 C213 1.358 . S
C211 H253 0.930 . S
C212 N209 1.314 . S
C212 C210 1.353 . S
C212 H254 0.930 . S
C213 N209 1.279 . S
C213 C211 1.358 . S
C213 H255 0.930 . S
C214 C215 1.348 . S
C214 C216 1.356 . S
C214 O239 1.325 . S
C215 C214 1.348 . S
C215 C217 1.353 . S
C215 H256 0.929 . S
C216 C214 1.356 . S
C216 C218 1.358 . S
C216 H257 0.930 . S
C217 C215 1.353 . S
C217 N219 1.314 . S
C217 H258 0.930 . S
C218 C216 1.358 . S
C218 N219 1.279 . S
C218 H259 0.930 . S
N219 C217 1.314 . S
N219 C218 1.279 . S
C220 C222 1.353 . S
C220 N223 1.314 . S
C220 H226 0.930 . S
C221 N223 1.279 . S
C221 C224 1.358 . S
C221 H227 0.930 . S
C222 C220 1.353 . S
C222 C225 1.348 . S
C222 H260 0.929 . S
N223 Li178 1.990 . S
N223 C220 1.314 . S
N223 C221 1.279 . S
C224 C221 1.358 . S
C224 C225 1.356 . S
C224 H261 0.930 . S
C225 C222 1.348 . S
C225 C224 1.356 . S
H226 C220 0.930 . S
H227 C221 0.930 . S
C228 N229 1.314 . S
C228 C230 1.353 . S
C228 H234 0.930 . S
N229 Li179 1.990 . S
N229 C228 1.314 . S
N229 C232 1.279 . S
C230 C228 1.353 . S
C230 C233 1.348 . S
C230 H262 0.929 . S
C231 C232 1.358 . S
C231 C233 1.356 . S
C231 H263 0.930 . S
C232 N229 1.279 . S
C232 C231 1.358 . S
C232 H235 0.930 . S
C233 C230 1.348 . S
C233 C231 1.356 . S
H234 C228 0.930 . S
H235 C232 0.930 . S
O236 Li176 1.956 . S
O236 Li177 1.970 . S
O236 Li178 1.961 . S
O236 C180 1.325 . S
O237 Li176 1.970 . S
O237 Li177 1.956 . S
O237 Li179 1.961 . S
O237 C186 1.325 . S
O238 Li176 1.961 . S
O238 Li178 1.956 . S
O238 Li179 1.970 . S
O238 C208 1.325 . S
O239 Li177 1.961 . S
O239 Li178 1.970 . S
O239 Li179 1.956 . S
O239 C214 1.325 . S
H240 C182 0.929 . S
H241 C183 0.930 . S
H242 C184 0.930 . S
H243 C185 0.930 . S
H244 C187 0.930 . S
H245 C189 0.929 . S
H246 C190 0.930 . S
H247 C191 0.930 . S
H248 C194 0.930 . S
H249 C197 0.929 . S
H250 C202 0.929 . S
H251 C203 0.930 . S
H252 C210 0.929 . S
H253 C211 0.930 . S
H254 C212 0.930 . S
H255 C213 0.930 . S
H256 C215 0.929 . S
H257 C216 0.930 . S
H258 C217 0.930 . S
H259 C218 0.930 . S
H260 C222 0.929 . S
H261 C224 0.930 . S
H262 C230 0.929 . S
H263 C231 0.930 . S
Li264 N281 1.990 . S
Li264 O324 1.956 . S
Li264 O325 1.970 1_565 S
Li264 O326 1.961 . S
Li265 N289 1.990 . S
Li265 O324 1.970 1_545 S
Li265 O325 1.956 . S
Li265 O327 1.961 . S
Li266 N311 1.990 . S
Li266 O324 1.961 . S
Li266 O326 1.956 . S
Li266 O327 1.970 1_565 S
Li267 N317 1.990 . S
Li267 O325 1.961 . S
Li267 O326 1.970 1_545 S
Li267 O327 1.956 . S
C268 C270 1.332 1_565 S
C268 C271 1.356 . S
C268 O324 1.325 . S
N269 C272 1.314 . S
N269 C273 1.279 . S
C270 C268 1.332 1_545 S
C270 C272 1.344 1_545 S
C270 H328 0.955 . S
C271 C268 1.356 . S
C271 C273 1.358 . S
C271 H329 0.930 . S
C272 N269 1.314 . S
C272 C270 1.344 1_565 S
C272 H330 0.930 1_565 S
C273 N269 1.279 . S
C273 C271 1.358 . S
C273 H331 0.930 . S
C274 C277 1.340 1_545 S
C274 C278 1.356 . S
C274 O325 1.325 . S
C275 N276 1.279 . S
C275 C278 1.358 . S
C275 H332 0.930 . S
N276 C275 1.279 . S
N276 C279 1.314 . S
C277 C274 1.340 1_565 S
C277 C279 1.349 1_565 S
C277 H333 0.941 . S
C278 C274 1.356 . S
C278 C275 1.358 . S
C278 H334 0.930 . S
C279 N276 1.314 . S
C279 C277 1.349 1_545 S
C279 H335 0.930 1_545 S
C280 N281 1.314 . S
C280 C285 1.353 . S
C280 H286 0.930 . S
N281 Li264 1.990 . S
N281 C280 1.314 . S
N281 C283 1.279 . S
C282 C283 1.358 . S
C282 C284 1.356 . S
C282 H336 0.930 . S
C283 N281 1.279 . S
C283 C282 1.358 . S
C283 H287 0.930 . S
C284 C282 1.356 . S
C284 C285 1.348 . S
C285 C280 1.353 . S
C285 C284 1.348 . S
C285 H337 0.929 . S
H286 C280 0.930 . S
H287 C283 0.930 . S
C288 N289 1.314 . S
C288 C290 1.353 . S
C288 H294 0.930 . S
N289 Li265 1.990 . S
N289 C288 1.314 . S
N289 C292 1.279 . S
C290 C288 1.353 . S
C290 C293 1.348 . S
C290 H338 0.929 . S
C291 C292 1.358 . S
C291 C293 1.356 . S
C291 H339 0.930 . S
C292 N289 1.279 . S
C292 C291 1.358 . S
C292 H295 0.930 . S
C293 C290 1.348 . S
C293 C291 1.356 . S
H294 C288 0.930 . S
H295 C292 0.930 . S
C296 C298 1.348 . S
C296 C299 1.356 . S
C296 O326 1.325 . S
N297 C300 1.314 . S
N297 C301 1.279 . S
C298 C296 1.348 . S
C298 C300 1.353 . S
C298 H340 0.929 . S
C299 C296 1.356 . S
C299 C301 1.358 . S
C299 H341 0.930 . S
C300 N297 1.314 . S
C300 C298 1.353 . S
C300 H342 0.930 . S
C301 N297 1.279 . S
C301 C299 1.358 . S
C301 H343 0.930 . S
C302 C303 1.348 . S
C302 C304 1.356 . S
C302 O327 1.325 . S
C303 C302 1.348 . S
C303 C305 1.353 . S
C303 H344 0.929 . S
C304 C302 1.356 . S
C304 C306 1.358 . S
C304 H345 0.930 . S
C305 C303 1.353 . S
C305 N307 1.314 . S
C305 H346 0.930 . S
C306 C304 1.358 . S
C306 N307 1.279 . S
C306 H347 0.930 . S
N307 C305 1.314 . S
N307 C306 1.279 . S
C308 C310 1.353 . S
C308 N311 1.314 . S
C308 H314 0.930 1_565 S
C309 N311 1.279 . S
C309 C312 1.358 . S
C309 H315 0.930 . S
C310 C308 1.353 . S
C310 C313 1.348 . S
C310 H348 0.929 . S
N311 Li266 1.990 . S
N311 C308 1.314 . S
N311 C309 1.279 . S
C312 C309 1.358 . S
C312 C313 1.356 . S
C312 H349 0.930 . S
C313 C310 1.348 . S
C313 C312 1.356 . S
H314 C308 0.930 1_545 S
H315 C309 0.930 . S
C316 N317 1.314 . S
C316 C318 1.353 . S
C316 H322 0.930 1_545 S
N317 Li267 1.990 . S
N317 C316 1.314 . S
N317 C320 1.279 . S
C318 C316 1.353 . S
C318 C321 1.348 . S
C318 H350 0.929 . S
C319 C320 1.358 . S
C319 C321 1.356 . S
C319 H351 0.930 . S
C320 N317 1.279 . S
C320 C319 1.358 . S
C320 H323 0.930 . S
C321 C318 1.348 . S
C321 C319 1.356 . S
H322 C316 0.930 1_565 S
H323 C320 0.930 . S
O324 Li264 1.956 . S
O324 Li265 1.970 1_565 S
O324 Li266 1.961 . S
O324 C268 1.325 . S
O325 Li264 1.970 1_545 S
O325 Li265 1.956 . S
O325 Li267 1.961 . S
O325 C274 1.325 . S
O326 Li264 1.961 . S
O326 Li266 1.956 . S
O326 Li267 1.970 1_565 S
O326 C296 1.325 . S
O327 Li265 1.961 . S
O327 Li266 1.970 1_545 S
O327 Li267 1.956 . S
O327 C302 1.325 . S
H328 C270 0.955 . S
H329 C271 0.930 . S
H330 C272 0.930 1_545 S
H331 C273 0.930 . S
H332 C275 0.930 . S
H333 C277 0.941 . S
H334 C278 0.930 . S
H335 C279 0.930 1_565 S
H336 C282 0.930 . S
H337 C285 0.929 . S
H338 C290 0.929 . S
H339 C291 0.930 . S
H340 C298 0.929 . S
H341 C299 0.930 . S
H342 C300 0.930 . S
H343 C301 0.930 . S
H344 C303 0.929 . S
H345 C304 0.930 . S
H346 C305 0.930 . S
H347 C306 0.930 . S
H348 C310 0.929 . S
H349 C312 0.930 . S
H350 C318 0.929 . S
H351 C319 0.930 . S
Li352 N369 1.990 . S
Li352 O412 1.956 . S
Li352 O413 1.970 . S
Li352 O414 1.961 1_554 S
Li353 N377 1.990 . S
Li353 O412 1.970 . S
Li353 O413 1.956 . S
Li353 O415 1.961 1_554 S
Li354 N399 1.990 . S
Li354 O412 1.961 1_556 S
Li354 O414 1.956 . S
Li354 O415 1.970 . S
Li355 N405 1.990 . S
Li355 O413 1.961 1_556 S
Li355 O414 1.970 . S
Li355 O415 1.956 . S
C356 C358 1.348 . S
C356 C359 1.356 . S
C356 O412 1.325 . S
N357 C360 1.314 . S
N357 C361 1.279 . S
C358 C356 1.348 . S
C358 C360 1.353 . S
C358 H416 0.929 . S
C359 C356 1.356 . S
C359 C361 1.358 . S
C359 H417 0.930 . S
C360 N357 1.314 . S
C360 C358 1.353 . S
C360 H418 0.930 . S
C361 N357 1.279 . S
C361 C359 1.358 . S
C361 H419 0.930 . S
C362 C365 1.348 . S
C362 C366 1.356 1_554 S
C362 O413 1.325 . S
C363 N364 1.279 . S
C363 C366 1.358 1_554 S
C363 H420 0.930 1_554 S
N364 C363 1.279 . S
N364 C367 1.314 . S
C365 C362 1.348 . S
C365 C367 1.353 . S
C365 H421 0.929 . S
C366 C362 1.356 1_556 S
C366 C363 1.358 1_556 S
C366 H422 0.930 . S
C367 N364 1.314 . S
C367 C365 1.353 . S
C367 H423 0.930 . S
C368 N369 1.314 . S
C368 C373 1.353 . S
C368 H374 0.930 . S
N369 Li352 1.990 . S
N369 C368 1.314 . S
N369 C371 1.279 . S
C370 C371 1.358 . S
C370 C372 1.356 . S
C370 H424 0.930 . S
C371 N369 1.279 . S
C371 C370 1.358 . S
C371 H375 0.930 . S
C372 C370 1.356 . S
C372 C373 1.348 . S
C373 C368 1.353 . S
C373 C372 1.348 . S
C373 H425 0.929 . S
H374 C368 0.930 . S
H375 C371 0.930 . S
C376 N377 1.314 . S
C376 C378 1.353 . S
C376 H382 0.930 1_554 S
N377 Li353 1.990 . S
N377 C376 1.314 . S
N377 C380 1.279 . S
C378 C376 1.353 . S
C378 C381 1.348 . S
C378 H426 0.929 . S
C379 C380 1.358 . S
C379 C381 1.356 . S
C379 H427 0.930 . S
C380 N377 1.279 . S
C380 C379 1.358 . S
C380 H383 0.930 . S
C381 C378 1.348 . S
C381 C379 1.356 . S
H382 C376 0.930 1_556 S
H383 C380 0.930 . S
C384 C386 1.348 . S
C384 C387 1.356 1_556 S
C384 O414 1.325 . S
N385 C388 1.314 . S
N385 C389 1.279 . S
C386 C384 1.348 . S
C386 C388 1.353 . S
C386 H428 0.929 . S
C387 C384 1.356 1_554 S
C387 C389 1.358 1_554 S
C387 H429 0.930 . S
C388 N385 1.314 . S
C388 C386 1.353 . S
C388 H430 0.930 . S
C389 N385 1.279 . S
C389 C387 1.358 1_556 S
C389 H431 0.930 1_556 S
C390 C391 1.348 . S
C390 C392 1.356 . S
C390 O415 1.325 . S
C391 C390 1.348 . S
C391 C393 1.353 . S
C391 H432 0.929 . S
C392 C390 1.356 . S
C392 C394 1.358 . S
C392 H433 0.930 . S
C393 C391 1.353 . S
C393 N395 1.314 . S
C393 H434 0.930 . S
C394 C392 1.358 . S
C394 N395 1.279 . S
C394 H435 0.930 . S
N395 C393 1.314 . S
N395 C394 1.279 . S
C396 C398 1.353 . S
C396 N399 1.314 . S
C396 H402 0.930 1_556 S
C397 N399 1.279 . S
C397 C400 1.358 . S
C397 H403 0.930 . S
C398 C396 1.353 . S
C398 C401 1.348 . S
C398 H436 0.929 . S
N399 Li354 1.990 . S
N399 C396 1.314 . S
N399 C397 1.279 . S
C400 C397 1.358 . S
C400 C401 1.356 . S
C400 H437 0.930 . S
C401 C398 1.348 . S
C401 C400 1.356 . S
H402 C396 0.930 1_554 S
H403 C397 0.930 . S
C404 N405 1.314 . S
C404 C406 1.353 . S
C404 H410 0.930 . S
N405 Li355 1.990 . S
N405 C404 1.314 . S
N405 C408 1.279 . S
C406 C404 1.353 . S
C406 C409 1.348 . S
C406 H438 0.929 . S
C407 C408 1.358 . S
C407 C409 1.356 . S
C407 H439 0.930 . S
C408 N405 1.279 . S
C408 C407 1.358 . S
C408 H411 0.930 . S
C409 C406 1.348 . S
C409 C407 1.356 . S
H410 C404 0.930 . S
H411 C408 0.930 . S
O412 Li352 1.956 . S
O412 Li353 1.970 . S
O412 Li354 1.961 1_554 S
O412 C356 1.325 . S
O413 Li352 1.970 . S
O413 Li353 1.956 . S
O413 Li355 1.961 1_554 S
O413 C362 1.325 . S
O414 Li352 1.961 1_556 S
O414 Li354 1.956 . S
O414 Li355 1.970 . S
O414 C384 1.325 . S
O415 Li353 1.961 1_556 S
O415 Li354 1.970 . S
O415 Li355 1.956 . S
O415 C390 1.325 . S
H416 C358 0.929 . S
H417 C359 0.930 . S
H418 C360 0.930 . S
H419 C361 0.930 . S
H420 C363 0.930 1_556 S
H421 C365 0.929 . S
H422 C366 0.930 . S
H423 C367 0.930 . S
H424 C370 0.930 . S
H425 C373 0.929 . S
H426 C378 0.929 . S
H427 C379 0.930 . S
H428 C386 0.929 . S
H429 C387 0.930 . S
H430 C388 0.930 . S
H431 C389 0.930 1_554 S
H432 C391 0.929 . S
H433 C392 0.930 . S
H434 C393 0.930 . S
H435 C394 0.930 . S
H436 C398 0.929 . S
H437 C400 0.930 . S
H438 C406 0.929 . S
H439 C407 0.930 . S
Li440 N457 1.990 . S
Li440 O500 1.956 . S
Li440 O501 1.970 1_565 S
Li440 O502 1.961 . S
Li441 N465 1.990 . S
Li441 O500 1.970 1_545 S
Li441 O501 1.956 . S
Li441 O503 1.961 . S
Li442 N487 1.990 . S
Li442 O500 1.961 . S
Li442 O502 1.956 . S
Li442 O503 1.970 1_565 S
Li443 N493 1.990 . S
Li443 O501 1.961 . S
Li443 O502 1.970 1_545 S
Li443 O503 1.956 . S
C444 C446 1.348 . S
C444 C447 1.356 . S
C444 O500 1.325 . S
N445 C448 1.314 . S
N445 C449 1.279 . S
C446 C444 1.348 . S
C446 C448 1.353 . S
C446 H504 0.929 . S
C447 C444 1.356 . S
C447 C449 1.358 . S
C447 H505 0.930 . S
C448 N445 1.314 . S
C448 C446 1.353 . S
C448 H506 0.930 . S
C449 N445 1.279 . S
C449 C447 1.358 . S
C449 H507 0.930 . S
C450 C453 1.348 1_545 S
C450 C454 1.356 . S
C450 O501 1.325 . S
C451 N452 1.279 . S
C451 C454 1.358 . S
C451 H508 0.930 . S
N452 C451 1.279 . S
N452 C455 1.378 . S
C453 C450 1.348 1_565 S
C453 C455 1.336 1_565 S
C453 H509 0.929 . S
C454 C450 1.356 . S
C454 C451 1.358 . S
C454 H510 0.930 . S
C455 N452 1.378 . S
C455 C453 1.336 1_545 S
C455 H511 0.881 1_545 S
C456 N457 1.314 . S
C456 C461 1.353 . S
C456 H462 0.930 . S
N457 Li440 1.990 . S
N457 C456 1.314 . S
N457 C459 1.279 . S
C458 C459 1.358 . S
C458 C460 1.356 . S
C458 H512 0.930 . S
C459 N457 1.279 . S
C459 C458 1.358 . S
C459 H463 0.930 . S
C460 C458 1.356 . S
C460 C461 1.348 . S
C461 C456 1.353 . S
C461 C460 1.348 . S
C461 H513 0.929 . S
H462 C456 0.930 . S
H463 C459 0.930 . S
C464 N465 1.314 . S
C464 C466 1.353 . S
C464 H470 0.930 . S
N465 Li441 1.990 . S
N465 C464 1.314 . S
N465 C468 1.279 . S
C466 C464 1.353 . S
C466 C469 1.348 . S
C466 H514 0.929 . S
C467 C468 1.358 . S
C467 C469 1.356 . S
C467 H515 0.930 . S
C468 N465 1.279 . S
C468 C467 1.358 . S
C468 H471 0.930 . S
C469 C466 1.348 . S
C469 C467 1.356 . S
H470 C464 0.930 . S
H471 C468 0.930 . S
C472 C474 1.348 1_565 S
C472 C475 1.356 . S
C472 O502 1.325 . S
N473 C476 1.362 . S
N473 C477 1.279 . S
C474 C472 1.348 1_545 S
C474 C476 1.340 1_545 S
C474 H516 0.929 . S
C475 C472 1.356 . S
C475 C477 1.358 . S
C475 H517 0.930 . S
C476 N473 1.362 . S
C476 C474 1.340 1_565 S
C476 H518 0.893 1_565 S
C477 N473 1.279 . S
C477 C475 1.358 . S
C477 H519 0.930 . S
C478 C479 1.348 . S
C478 C480 1.356 . S
C478 O503 1.325 . S
C479 C478 1.348 . S
C479 C481 1.353 . S
C479 H520 0.929 . S
C480 C478 1.356 . S
C480 C482 1.358 . S
C480 H521 0.930 . S
C481 C479 1.353 . S
C481 N483 1.314 . S
C481 H522 0.930 . S
C482 C480 1.358 . S
C482 N483 1.279 . S
C482 H523 0.930 . S
N483 C481 1.314 . S
N483 C482 1.279 . S
C484 C486 1.353 . S
C484 N487 1.314 . S
C484 H490 0.930 . S
C485 N487 1.279 . S
C485 C488 1.358 . S
C485 H491 0.930 . S
C486 C484 1.353 . S
C486 C489 1.348 . S
C486 H524 0.929 . S
N487 Li442 1.990 . S
N487 C484 1.314 . S
N487 C485 1.279 . S
C488 C485 1.358 . S
C488 C489 1.356 . S
C488 H525 0.930 . S
C489 C486 1.348 . S
C489 C488 1.356 . S
H490 C484 0.930 . S
H491 C485 0.930 . S
C492 N493 1.314 . S
C492 C494 1.353 . S
C492 H498 0.930 . S
N493 Li443 1.990 . S
N493 C492 1.314 . S
N493 C496 1.279 . S
C494 C492 1.353 . S
C494 C497 1.348 . S
C494 H526 0.929 . S
C495 C496 1.358 . S
C495 C497 1.356 . S
C495 H527 0.930 . S
C496 N493 1.279 . S
C496 C495 1.358 . S
C496 H499 0.930 . S
C497 C494 1.348 . S
C497 C495 1.356 . S
H498 C492 0.930 . S
H499 C496 0.930 . S
O500 Li440 1.956 . S
O500 Li441 1.970 1_565 S
O500 Li442 1.961 . S
O500 C444 1.325 . S
O501 Li440 1.970 1_545 S
O501 Li441 1.956 . S
O501 Li443 1.961 . S
O501 C450 1.325 . S
O502 Li440 1.961 . S
O502 Li442 1.956 . S
O502 Li443 1.970 1_565 S
O502 C472 1.325 . S
O503 Li441 1.961 . S
O503 Li442 1.970 1_545 S
O503 Li443 1.956 . S
O503 C478 1.325 . S
H504 C446 0.929 . S
H505 C447 0.930 . S
H506 C448 0.930 . S
H507 C449 0.930 . S
H508 C451 0.930 . S
H509 C453 0.929 . S
H510 C454 0.930 . S
H511 C455 0.881 1_565 S
H512 C458 0.930 . S
H513 C461 0.929 . S
H514 C466 0.929 . S
H515 C467 0.930 . S
H516 C474 0.929 . S
H517 C475 0.930 . S
H518 C476 0.893 1_545 S
H519 C477 0.930 . S
H520 C479 0.929 . S
H521 C480 0.930 . S
H522 C481 0.930 . S
H523 C482 0.930 . S
H524 C486 0.929 . S
H525 C488 0.930 . S
H526 C494 0.929 . S
H527 C495 0.930 . S
Li528 N545 1.990 . S
Li528 O588 1.956 . S
Li528 O589 1.970 . S
Li528 O590 1.961 . S
Li529 N553 1.990 . S
Li529 O588 1.970 . S
Li529 O589 1.956 . S
Li529 O591 1.961 . S
Li530 N575 1.990 . S
Li530 O588 1.961 . S
Li530 O590 1.956 . S
Li530 O591 1.970 . S
Li531 N581 1.990 . S
Li531 O589 1.961 . S
Li531 O590 1.970 . S
Li531 O591 1.956 . S
C532 C534 1.348 . S
C532 C535 1.356 . S
C532 O588 1.325 . S
N533 C536 1.314 . S
N533 C537 1.279 . S
C534 C532 1.348 . S
C534 C536 1.353 . S
C534 H592 0.929 . S
C535 C532 1.356 . S
C535 C537 1.358 . S
C535 H593 0.930 . S
C536 N533 1.314 . S
C536 C534 1.353 . S
C536 H594 0.930 . S
C537 N533 1.279 . S
C537 C535 1.358 . S
C537 H595 0.930 . S
C538 C541 1.348 . S
C538 C542 1.356 . S
C538 O589 1.325 . S
C539 N540 1.279 . S
C539 C542 1.358 . S
C539 H596 0.930 . S
N540 C539 1.279 . S
N540 C543 1.314 . S
C541 C538 1.348 . S
C541 C543 1.353 . S
C541 H597 0.929 . S
C542 C538 1.356 . S
C542 C539 1.358 . S
C542 H598 0.930 . S
C543 N540 1.314 . S
C543 C541 1.353 . S
C543 H599 0.930 . S
C544 N545 1.314 . S
C544 C549 1.353 . S
C544 H550 0.930 . S
N545 Li528 1.990 . S
N545 C544 1.314 . S
N545 C547 1.279 . S
C546 C547 1.358 . S
C546 C548 1.356 . S
C546 H600 0.930 . S
C547 N545 1.279 . S
C547 C546 1.358 . S
C547 H551 0.930 . S
C548 C546 1.356 . S
C548 C549 1.348 . S
C549 C544 1.353 . S
C549 C548 1.348 . S
C549 H601 0.929 . S
H550 C544 0.930 . S
H551 C547 0.930 . S
C552 N553 1.314 . S
C552 C554 1.353 . S
C552 H558 0.930 . S
N553 Li529 1.990 . S
N553 C552 1.314 . S
N553 C556 1.279 . S
C554 C552 1.353 . S
C554 C557 1.348 . S
C554 H602 0.929 . S
C555 C556 1.358 . S
C555 C557 1.356 . S
C555 H603 0.930 . S
C556 N553 1.279 . S
C556 C555 1.358 . S
C556 H559 0.930 . S
C557 C554 1.348 . S
C557 C555 1.356 . S
H558 C552 0.930 . S
H559 C556 0.930 . S
C560 C562 1.348 . S
C560 C563 1.356 . S
C560 O590 1.325 . S
N561 C564 1.314 . S
N561 C565 1.279 . S
C562 C560 1.348 . S
C562 C564 1.353 . S
C562 H604 0.929 . S
C563 C560 1.356 . S
C563 C565 1.358 . S
C563 H605 0.930 . S
C564 N561 1.314 . S
C564 C562 1.353 . S
C564 H606 0.930 . S
C565 N561 1.279 . S
C565 C563 1.358 . S
C565 H607 0.930 . S
C566 C567 1.348 . S
C566 C568 1.356 . S
C566 O591 1.325 . S
C567 C566 1.348 . S
C567 C569 1.353 . S
C567 H608 0.929 . S
C568 C566 1.356 . S
C568 C570 1.358 . S
C568 H609 0.930 . S
C569 C567 1.353 . S
C569 N571 1.314 . S
C569 H610 0.930 . S
C570 C568 1.358 . S
C570 N571 1.279 . S
C570 H611 0.930 . S
N571 C569 1.314 . S
N571 C570 1.279 . S
C572 C574 1.353 . S
C572 N575 1.314 . S
C572 H578 0.930 . S
C573 N575 1.279 . S
C573 C576 1.358 . S
C573 H579 0.930 . S
C574 C572 1.353 . S
C574 C577 1.348 . S
C574 H612 0.929 . S
N575 Li530 1.990 . S
N575 C572 1.314 . S
N575 C573 1.279 . S
C576 C573 1.358 . S
C576 C577 1.356 . S
C576 H613 0.930 . S
C577 C574 1.348 . S
C577 C576 1.356 . S
H578 C572 0.930 . S
H579 C573 0.930 . S
C580 N581 1.314 . S
C580 C582 1.353 . S
C580 H586 0.930 . S
N581 Li531 1.990 . S
N581 C580 1.314 . S
N581 C584 1.279 . S
C582 C580 1.353 . S
C582 C585 1.348 . S
C582 H614 0.929 . S
C583 C584 1.358 . S
C583 C585 1.356 . S
C583 H615 0.930 . S
C584 N581 1.279 . S
C584 C583 1.358 . S
C584 H587 0.930 . S
C585 C582 1.348 . S
C585 C583 1.356 . S
H586 C580 0.930 . S
H587 C584 0.930 . S
O588 Li528 1.956 . S
O588 Li529 1.970 . S
O588 Li530 1.961 . S
O588 C532 1.325 . S
O589 Li528 1.970 . S
O589 Li529 1.956 . S
O589 Li531 1.961 . S
O589 C538 1.325 . S
O590 Li528 1.961 . S
O590 Li530 1.956 . S
O590 Li531 1.970 . S
O590 C560 1.325 . S
O591 Li529 1.961 . S
O591 Li530 1.970 . S
O591 Li531 1.956 . S
O591 C566 1.325 . S
H592 C534 0.929 . S
H593 C535 0.930 . S
H594 C536 0.930 . S
H595 C537 0.930 . S
H596 C539 0.930 . S
H597 C541 0.929 . S
H598 C542 0.930 . S
H599 C543 0.930 . S
H600 C546 0.930 . S
H601 C549 0.929 . S
H602 C554 0.929 . S
H603 C555 0.930 . S
H604 C562 0.929 . S
H605 C563 0.930 . S
H606 C564 0.930 . S
H607 C565 0.930 . S
H608 C567 0.929 . S
H609 C568 0.930 . S
H610 C569 0.930 . S
H611 C570 0.930 . S
H612 C574 0.929 . S
H613 C576 0.930 . S
H614 C582 0.929 . S
H615 C583 0.930 . S
Li616 N633 1.990 . S
Li616 O676 1.956 . S
Li616 O677 1.970 1_545 S
Li616 O678 1.961 . S
Li617 N641 1.990 . S
Li617 O676 1.970 1_565 S
Li617 O677 1.956 . S
Li617 O679 1.961 . S
Li618 N663 1.990 . S
Li618 O676 1.961 . S
Li618 O678 1.956 . S
Li618 O679 1.970 1_545 S
Li619 N669 1.990 . S
Li619 O677 1.961 . S
Li619 O678 1.970 1_565 S
Li619 O679 1.956 . S
C620 C622 1.348 . S
C620 C623 1.356 . S
C620 O676 1.325 . S
N621 C624 1.314 . S
N621 C625 1.279 . S
C622 C620 1.348 . S
C622 C624 1.353 . S
C622 H680 0.929 . S
C623 C620 1.356 . S
C623 C625 1.358 . S
C623 H681 0.930 . S
C624 N621 1.314 . S
C624 C622 1.353 . S
C624 H682 0.930 . S
C625 N621 1.279 . S
C625 C623 1.358 . S
C625 H683 0.930 . S
C626 C629 1.348 1_565 S
C626 C630 1.356 . S
C626 O677 1.325 . S
C627 N628 1.279 . S
C627 C630 1.358 . S
C627 H684 0.930 . S
N628 C627 1.279 . S
N628 C631 1.362 . S
C629 C626 1.348 1_545 S
C629 C631 1.340 1_545 S
C629 H685 0.929 . S
C630 C626 1.356 . S
C630 C627 1.358 . S
C630 H686 0.930 . S
C631 N628 1.362 . S
C631 C629 1.340 1_565 S
C631 H687 0.893 1_565 S
C632 N633 1.314 . S
C632 C637 1.353 . S
C632 H638 0.930 . S
N633 Li616 1.990 . S
N633 C632 1.314 . S
N633 C635 1.279 . S
C634 C635 1.358 . S
C634 C636 1.356 . S
C634 H688 0.930 . S
C635 N633 1.279 . S
C635 C634 1.358 . S
C635 H639 0.930 . S
C636 C634 1.356 . S
C636 C637 1.348 . S
C637 C632 1.353 . S
C637 C636 1.348 . S
C637 H689 0.929 . S
H638 C632 0.930 . S
H639 C635 0.930 . S
C640 N641 1.314 . S
C640 C642 1.353 . S
C640 H646 0.930 . S
N641 Li617 1.990 . S
N641 C640 1.314 . S
N641 C644 1.279 . S
C642 C640 1.353 . S
C642 C645 1.348 . S
C642 H690 0.929 . S
C643 C644 1.358 . S
C643 C645 1.356 . S
C643 H691 0.930 . S
C644 N641 1.279 . S
C644 C643 1.358 . S
C644 H647 0.930 . S
C645 C642 1.348 . S
C645 C643 1.356 . S
H646 C640 0.930 . S
H647 C644 0.930 . S
C648 C650 1.348 1_545 S
C648 C651 1.356 . S
C648 O678 1.325 . S
N649 C652 1.378 . S
N649 C653 1.279 . S
C650 C648 1.348 1_565 S
C650 C652 1.336 1_565 S
C650 H692 0.929 . S
C651 C648 1.356 . S
C651 C653 1.358 . S
C651 H693 0.930 . S
C652 N649 1.378 . S
C652 C650 1.336 1_545 S
C652 H694 0.881 1_545 S
C653 N649 1.279 . S
C653 C651 1.358 . S
C653 H695 0.930 . S
C654 C655 1.348 . S
C654 C656 1.356 . S
C654 O679 1.325 . S
C655 C654 1.348 . S
C655 C657 1.353 . S
C655 H696 0.929 . S
C656 C654 1.356 . S
C656 C658 1.358 . S
C656 H697 0.930 . S
C657 C655 1.353 . S
C657 N659 1.314 . S
C657 H698 0.930 . S
C658 C656 1.358 . S
C658 N659 1.279 . S
C658 H699 0.930 . S
N659 C657 1.314 . S
N659 C658 1.279 . S
C660 C662 1.353 . S
C660 N663 1.314 . S
C660 H666 0.930 . S
C661 N663 1.279 . S
C661 C664 1.358 . S
C661 H667 0.930 . S
C662 C660 1.353 . S
C662 C665 1.348 . S
C662 H700 0.929 . S
N663 Li618 1.990 . S
N663 C660 1.314 . S
N663 C661 1.279 . S
C664 C661 1.358 . S
C664 C665 1.356 . S
C664 H701 0.930 . S
C665 C662 1.348 . S
C665 C664 1.356 . S
H666 C660 0.930 . S
H667 C661 0.930 . S
C668 N669 1.314 . S
C668 C670 1.353 . S
C668 H674 0.930 . S
N669 Li619 1.990 . S
N669 C668 1.314 . S
N669 C672 1.279 . S
C670 C668 1.353 . S
C670 C673 1.348 . S
C670 H702 0.929 . S
C671 C672 1.358 . S
C671 C673 1.356 . S
C671 H703 0.930 . S
C672 N669 1.279 . S
C672 C671 1.358 . S
C672 H675 0.930 . S
C673 C670 1.348 . S
C673 C671 1.356 . S
H674 C668 0.930 . S
H675 C672 0.930 . S
O676 Li616 1.956 . S
O676 Li617 1.970 1_545 S
O676 Li618 1.961 . S
O676 C620 1.325 . S
O677 Li616 1.970 1_565 S
O677 Li617 1.956 . S
O677 Li619 1.961 . S
O677 C626 1.325 . S
O678 Li616 1.961 . S
O678 Li618 1.956 . S
O678 Li619 1.970 1_545 S
O678 C648 1.325 . S
O679 Li617 1.961 . S
O679 Li618 1.970 1_565 S
O679 Li619 1.956 . S
O679 C654 1.325 . S
H680 C622 0.929 . S
H681 C623 0.930 . S
H682 C624 0.930 . S
H683 C625 0.930 . S
H684 C627 0.930 . S
H685 C629 0.929 . S
H686 C630 0.930 . S
H687 C631 0.893 1_545 S
H688 C634 0.930 . S
H689 C637 0.929 . S
H690 C642 0.929 . S
H691 C643 0.930 . S
H692 C650 0.929 . S
H693 C651 0.930 . S
H694 C652 0.881 1_565 S
H695 C653 0.930 . S
H696 C655 0.929 . S
H697 C656 0.930 . S
H698 C657 0.930 . S
H699 C658 0.930 . S
H700 C662 0.929 . S
H701 C664 0.930 . S
H702 C670 0.929 . S
H703 C671 0.930 . S
Li704 N721 1.990 . S
Li704 O764 1.956 . S
Li704 O765 1.970 . S
Li704 O766 1.961 . S
Li705 N729 1.990 . S
Li705 O764 1.970 . S
Li705 O765 1.956 . S
Li705 O767 1.961 . S
Li706 N751 1.990 . S
Li706 O764 1.961 . S
Li706 O766 1.956 . S
Li706 O767 1.970 . S
Li707 N757 1.990 . S
Li707 O765 1.961 . S
Li707 O766 1.970 . S
Li707 O767 1.956 . S
C708 C710 1.348 . S
C708 C711 1.356 . S
C708 O764 1.325 . S
N709 C712 1.314 . S
N709 C713 1.279 . S
C710 C708 1.348 . S
C710 C712 1.353 . S
C710 H768 0.929 . S
C711 C708 1.356 . S
C711 C713 1.358 . S
C711 H769 0.930 . S
C712 N709 1.314 . S
C712 C710 1.353 . S
C712 H770 0.930 . S
C713 N709 1.279 . S
C713 C711 1.358 . S
C713 H771 0.930 . S
C714 C717 1.348 . S
C714 C718 1.356 . S
C714 O765 1.325 . S
C715 N716 1.279 . S
C715 C718 1.358 . S
C715 H772 0.930 . S
N716 C715 1.279 . S
N716 C719 1.314 . S
C717 C714 1.348 . S
C717 C719 1.353 . S
C717 H773 0.929 . S
C718 C714 1.356 . S
C718 C715 1.358 . S
C718 H774 0.930 . S
C719 N716 1.314 . S
C719 C717 1.353 . S
C719 H775 0.930 . S
C720 N721 1.314 . S
C720 C725 1.353 . S
C720 H726 0.930 . S
N721 Li704 1.990 . S
N721 C720 1.314 . S
N721 C723 1.279 . S
C722 C723 1.358 . S
C722 C724 1.356 . S
C722 H776 0.930 . S
C723 N721 1.279 . S
C723 C722 1.358 . S
C723 H727 0.930 . S
C724 C722 1.356 . S
C724 C725 1.348 . S
C725 C720 1.353 . S
C725 C724 1.348 . S
C725 H777 0.929 . S
H726 C720 0.930 . S
H727 C723 0.930 . S
C728 N729 1.314 . S
C728 C730 1.353 . S
C728 H734 0.930 . S
N729 Li705 1.990 . S
N729 C728 1.314 . S
N729 C732 1.279 . S
C730 C728 1.353 . S
C730 C733 1.348 . S
C730 H778 0.929 . S
C731 C732 1.358 . S
C731 C733 1.356 . S
C731 H779 0.930 . S
C732 N729 1.279 . S
C732 C731 1.358 . S
C732 H735 0.930 . S
C733 C730 1.348 . S
C733 C731 1.356 . S
H734 C728 0.930 . S
H735 C732 0.930 . S
C736 C738 1.348 . S
C736 C739 1.356 . S
C736 O766 1.325 . S
N737 C740 1.314 . S
N737 C741 1.279 . S
C738 C736 1.348 . S
C738 C740 1.353 . S
C738 H780 0.929 . S
C739 C736 1.356 . S
C739 C741 1.358 . S
C739 H781 0.930 . S
C740 N737 1.314 . S
C740 C738 1.353 . S
C740 H782 0.930 . S
C741 N737 1.279 . S
C741 C739 1.358 . S
C741 H783 0.930 . S
C742 C743 1.348 . S
C742 C744 1.356 . S
C742 O767 1.325 . S
C743 C742 1.348 . S
C743 C745 1.353 . S
C743 H784 0.929 . S
C744 C742 1.356 . S
C744 C746 1.358 . S
C744 H785 0.930 . S
C745 C743 1.353 . S
C745 N747 1.314 . S
C745 H786 0.930 . S
C746 C744 1.358 . S
C746 N747 1.279 . S
C746 H787 0.930 . S
N747 C745 1.314 . S
N747 C746 1.279 . S
C748 C750 1.353 . S
C748 N751 1.314 . S
C748 H754 0.930 . S
C749 N751 1.279 . S
C749 C752 1.358 . S
C749 H755 0.930 . S
C750 C748 1.353 . S
C750 C753 1.348 . S
C750 H788 0.929 . S
N751 Li706 1.990 . S
N751 C748 1.314 . S
N751 C749 1.279 . S
C752 C749 1.358 . S
C752 C753 1.356 . S
C752 H789 0.930 . S
C753 C750 1.348 . S
C753 C752 1.356 . S
H754 C748 0.930 . S
H755 C749 0.930 . S
C756 N757 1.314 . S
C756 C758 1.353 . S
C756 H762 0.930 . S
N757 Li707 1.990 . S
N757 C756 1.314 . S
N757 C760 1.279 . S
C758 C756 1.353 . S
C758 C761 1.348 . S
C758 H790 0.929 . S
C759 C760 1.358 . S
C759 C761 1.356 . S
C759 H791 0.930 . S
C760 N757 1.279 . S
C760 C759 1.358 . S
C760 H763 0.930 . S
C761 C758 1.348 . S
C761 C759 1.356 . S
H762 C756 0.930 . S
H763 C760 0.930 . S
O764 Li704 1.956 . S
O764 Li705 1.970 . S
O764 Li706 1.961 . S
O764 C708 1.325 . S
O765 Li704 1.970 . S
O765 Li705 1.956 . S
O765 Li707 1.961 . S
O765 C714 1.325 . S
O766 Li704 1.961 . S
O766 Li706 1.956 . S
O766 Li707 1.970 . S
O766 C736 1.325 . S
O767 Li705 1.961 . S
O767 Li706 1.970 . S
O767 Li707 1.956 . S
O767 C742 1.325 . S
H768 C710 0.929 . S
H769 C711 0.930 . S
H770 C712 0.930 . S
H771 C713 0.930 . S
H772 C715 0.930 . S
H773 C717 0.929 . S
H774 C718 0.930 . S
H775 C719 0.930 . S
H776 C722 0.930 . S
H777 C725 0.929 . S
H778 C730 0.929 . S
H779 C731 0.930 . S
H780 C738 0.929 . S
H781 C739 0.930 . S
H782 C740 0.930 . S
H783 C741 0.930 . S
H784 C743 0.929 . S
H785 C744 0.930 . S
H786 C745 0.930 . S
H787 C746 0.930 . S
H788 C750 0.929 . S
H789 C752 0.930 . S
H790 C758 0.929 . S
H791 C759 0.930 . S
Li792 N809 1.990 . S
Li792 O852 1.956 . S
Li792 O853 1.970 . S
Li792 O854 1.961 . S
Li793 N817 1.990 . S
Li793 O852 1.970 . S
Li793 O853 1.956 . S
Li793 O855 1.961 . S
Li794 N839 1.990 . S
Li794 O852 1.961 . S
Li794 O854 1.956 . S
Li794 O855 1.970 . S
Li795 N845 1.990 . S
Li795 O853 1.961 . S
Li795 O854 1.970 . S
Li795 O855 1.956 . S
C796 C798 1.348 . S
C796 C799 1.356 . S
C796 O852 1.325 . S
N797 C800 1.314 . S
N797 C801 1.279 . S
C798 C796 1.348 . S
C798 C800 1.353 . S
C798 H856 0.929 . S
C799 C796 1.356 . S
C799 C801 1.358 . S
C799 H857 0.930 . S
C800 N797 1.314 . S
C800 C798 1.353 . S
C800 H858 0.930 . S
C801 N797 1.279 . S
C801 C799 1.358 . S
C801 H859 0.930 . S
C802 C805 1.348 . S
C802 C806 1.356 . S
C802 O853 1.325 . S
C803 N804 1.279 . S
C803 C806 1.358 . S
C803 H860 0.930 . S
N804 C803 1.279 . S
N804 C807 1.314 . S
C805 C802 1.348 . S
C805 C807 1.353 . S
C805 H861 0.929 . S
C806 C802 1.356 . S
C806 C803 1.358 . S
C806 H862 0.930 . S
C807 N804 1.314 . S
C807 C805 1.353 . S
C807 H863 0.930 . S
C808 N809 1.314 . S
C808 C813 1.353 . S
C808 H814 0.930 . S
N809 Li792 1.990 . S
N809 C808 1.314 . S
N809 C811 1.279 . S
C810 C811 1.358 . S
C810 C812 1.356 . S
C810 H864 0.930 . S
C811 N809 1.279 . S
C811 C810 1.358 . S
C811 H815 0.930 . S
C812 C810 1.356 . S
C812 C813 1.348 . S
C813 C808 1.353 . S
C813 C812 1.348 . S
C813 H865 0.929 . S
H814 C808 0.930 . S
H815 C811 0.930 . S
C816 N817 1.314 . S
C816 C818 1.353 . S
C816 H822 0.930 . S
N817 Li793 1.990 . S
N817 C816 1.314 . S
N817 C820 1.279 . S
C818 C816 1.353 . S
C818 C821 1.348 . S
C818 H866 0.929 . S
C819 C820 1.358 . S
C819 C821 1.356 . S
C819 H867 0.930 . S
C820 N817 1.279 . S
C820 C819 1.358 . S
C820 H823 0.930 . S
C821 C818 1.348 . S
C821 C819 1.356 . S
H822 C816 0.930 . S
H823 C820 0.930 . S
C824 C826 1.348 . S
C824 C827 1.356 . S
C824 O854 1.325 . S
N825 C828 1.314 . S
N825 C829 1.279 . S
C826 C824 1.348 . S
C826 C828 1.353 . S
C826 H868 0.929 . S
C827 C824 1.356 . S
C827 C829 1.358 . S
C827 H869 0.930 . S
C828 N825 1.314 . S
C828 C826 1.353 . S
C828 H870 0.930 . S
C829 N825 1.279 . S
C829 C827 1.358 . S
C829 H871 0.930 . S
C830 C831 1.348 . S
C830 C832 1.356 . S
C830 O855 1.325 . S
C831 C830 1.348 . S
C831 C833 1.353 . S
C831 H872 0.929 . S
C832 C830 1.356 . S
C832 C834 1.358 . S
C832 H873 0.930 . S
C833 C831 1.353 . S
C833 N835 1.314 . S
C833 H874 0.930 . S
C834 C832 1.358 . S
C834 N835 1.279 . S
C834 H875 0.930 . S
N835 C833 1.314 . S
N835 C834 1.279 . S
C836 C838 1.353 . S
C836 N839 1.314 . S
C836 H842 0.930 . S
C837 N839 1.279 . S
C837 C840 1.358 . S
C837 H843 0.930 . S
C838 C836 1.353 . S
C838 C841 1.348 . S
C838 H876 0.929 . S
N839 Li794 1.990 . S
N839 C836 1.314 . S
N839 C837 1.279 . S
C840 C837 1.358 . S
C840 C841 1.356 . S
C840 H877 0.930 . S
C841 C838 1.348 . S
C841 C840 1.356 . S
H842 C836 0.930 . S
H843 C837 0.930 . S
C844 N845 1.314 . S
C844 C846 1.353 . S
C844 H850 0.930 . S
N845 Li795 1.990 . S
N845 C844 1.314 . S
N845 C848 1.279 . S
C846 C844 1.353 . S
C846 C849 1.348 . S
C846 H878 0.929 . S
C847 C848 1.358 . S
C847 C849 1.356 . S
C847 H879 0.930 . S
C848 N845 1.279 . S
C848 C847 1.358 . S
C848 H851 0.930 . S
C849 C846 1.348 . S
C849 C847 1.356 . S
H850 C844 0.930 . S
H851 C848 0.930 . S
O852 Li792 1.956 . S
O852 Li793 1.970 . S
O852 Li794 1.961 . S
O852 C796 1.325 . S
O853 Li792 1.970 . S
O853 Li793 1.956 . S
O853 Li795 1.961 . S
O853 C802 1.325 . S
O854 Li792 1.961 . S
O854 Li794 1.956 . S
O854 Li795 1.970 . S
O854 C824 1.325 . S
O855 Li793 1.961 . S
O855 Li794 1.970 . S
O855 Li795 1.956 . S
O855 C830 1.325 . S
H856 C798 0.929 . S
H857 C799 0.930 . S
H858 C800 0.930 . S
H859 C801 0.930 . S
H860 C803 0.930 . S
H861 C805 0.929 . S
H862 C806 0.930 . S
H863 C807 0.930 . S
H864 C810 0.930 . S
H865 C813 0.929 . S
H866 C818 0.929 . S
H867 C819 0.930 . S
H868 C826 0.929 . S
H869 C827 0.930 . S
H870 C828 0.930 . S
H871 C829 0.930 . S
H872 C831 0.929 . S
H873 C832 0.930 . S
H874 C833 0.930 . S
H875 C834 0.930 . S
H876 C838 0.929 . S
H877 C840 0.930 . S
H878 C846 0.929 . S
H879 C847 0.930 . S
Li880 N897 1.990 . S
Li880 O940 1.956 1_556 S
Li880 O941 1.970 . S
Li880 O942 1.961 . S
Li881 N905 1.990 . S
Li881 O940 1.970 . S
Li881 O941 1.956 1_554 S
Li881 O943 1.961 . S
Li882 N927 1.990 . S
Li882 O940 1.961 . S
Li882 O942 1.956 1_554 S
Li882 O943 1.970 . S
Li883 N933 1.990 . S
Li883 O941 1.961 . S
Li883 O942 1.970 . S
Li883 O943 1.956 1_556 S
C884 C886 1.348 . S
C884 C887 1.356 . S
C884 O940 1.325 . S
N885 C888 1.314 . S
N885 C889 1.279 . S
C886 C884 1.348 . S
C886 C888 1.353 . S
C886 H944 0.929 . S
C887 C884 1.356 . S
C887 C889 1.358 . S
C887 H945 0.930 1_554 S
C888 N885 1.314 . S
C888 C886 1.353 . S
C888 H946 0.930 . S
C889 N885 1.279 . S
C889 C887 1.358 . S
C889 H947 0.930 1_554 S
C890 C893 1.348 . S
C890 C894 1.356 . S
C890 O941 1.325 . S
C891 N892 1.279 . S
C891 C894 1.358 . S
C891 H948 0.930 1_556 S
N892 C891 1.279 . S
N892 C895 1.314 . S
C893 C890 1.348 . S
C893 C895 1.353 . S
C893 H949 0.929 . S
C894 C890 1.356 . S
C894 C891 1.358 . S
C894 H950 0.930 1_556 S
C895 N892 1.314 . S
C895 C893 1.353 . S
C895 H951 0.930 . S
C896 N897 1.314 . S
C896 C901 1.353 . S
C896 H902 0.930 . S
N897 Li880 1.990 . S
N897 C896 1.314 . S
N897 C899 1.279 . S
C898 C899 1.358 . S
C898 C900 1.356 . S
C898 H952 0.930 . S
C899 N897 1.279 . S
C899 C898 1.358 . S
C899 H903 0.930 . S
C900 C898 1.356 . S
C900 C901 1.348 . S
C901 C896 1.353 . S
C901 C900 1.348 . S
C901 H953 0.929 . S
H902 C896 0.930 . S
H903 C899 0.930 . S
C904 N905 1.314 . S
C904 C906 1.353 . S
C904 H910 0.930 . S
N905 Li881 1.990 . S
N905 C904 1.314 . S
N905 C908 1.279 . S
C906 C904 1.353 . S
C906 C909 1.348 . S
C906 H954 0.929 . S
C907 C908 1.358 . S
C907 C909 1.356 . S
C907 H955 0.930 . S
C908 N905 1.279 . S
C908 C907 1.358 . S
C908 H911 0.930 . S
C909 C906 1.348 . S
C909 C907 1.356 . S
H910 C904 0.930 . S
H911 C908 0.930 . S
C912 C914 1.348 . S
C912 C915 1.356 . S
C912 O942 1.325 . S
N913 C916 1.314 . S
N913 C917 1.279 . S
C914 C912 1.348 . S
C914 C916 1.353 . S
C914 H956 0.929 . S
C915 C912 1.356 . S
C915 C917 1.358 . S
C915 H957 0.930 . S
C916 N913 1.314 . S
C916 C914 1.353 . S
C916 H958 0.930 . S
C917 N913 1.279 . S
C917 C915 1.358 . S
C917 H959 0.930 . S
C918 C919 1.348 . S
C918 C920 1.356 . S
C918 O943 1.325 . S
C919 C918 1.348 . S
C919 C921 1.353 . S
C919 H960 0.929 . S
C920 C918 1.356 . S
C920 C922 1.358 . S
C920 H961 0.930 . S
C921 C919 1.353 . S
C921 N923 1.314 . S
C921 H962 0.930 . S
C922 C920 1.358 . S
C922 N923 1.279 . S
C922 H963 0.930 . S
N923 C921 1.314 . S
N923 C922 1.279 . S
C924 C926 1.353 . S
C924 N927 1.314 . S
C924 H930 0.930 . S
C925 N927 1.279 1_556 S
C925 C928 1.358 1_556 S
C925 H931 0.930 . S
C926 C924 1.353 . S
C926 C929 1.348 . S
C926 H964 0.929 . S
N927 Li882 1.990 . S
N927 C924 1.314 . S
N927 C925 1.279 1_554 S
C928 C925 1.358 1_554 S
C928 C929 1.356 . S
C928 H965 0.930 1_554 S
C929 C926 1.348 . S
C929 C928 1.356 . S
H930 C924 0.930 . S
H931 C925 0.930 . S
C932 N933 1.314 . S
C932 C934 1.353 . S
C932 H938 0.930 . S
N933 Li883 1.990 . S
N933 C932 1.314 . S
N933 C936 1.279 1_556 S
C934 C932 1.353 . S
C934 C937 1.348 . S
C934 H966 0.929 . S
C935 C936 1.358 1_556 S
C935 C937 1.356 . S
C935 H967 0.930 1_556 S
C936 N933 1.279 1_554 S
C936 C935 1.358 1_554 S
C936 H939 0.930 . S
C937 C934 1.348 . S
C937 C935 1.356 . S
H938 C932 0.930 . S
H939 C936 0.930 . S
O940 Li880 1.956 1_554 S
O940 Li881 1.970 . S
O940 Li882 1.961 . S
O940 C884 1.325 . S
O941 Li880 1.970 . S
O941 Li881 1.956 1_556 S
O941 Li883 1.961 . S
O941 C890 1.325 . S
O942 Li880 1.961 . S
O942 Li882 1.956 1_556 S
O942 Li883 1.970 . S
O942 C912 1.325 . S
O943 Li881 1.961 . S
O943 Li882 1.970 . S
O943 Li883 1.956 1_554 S
O943 C918 1.325 . S
H944 C886 0.929 . S
H945 C887 0.930 1_556 S
H946 C888 0.930 . S
H947 C889 0.930 1_556 S
H948 C891 0.930 1_554 S
H949 C893 0.929 . S
H950 C894 0.930 1_554 S
H951 C895 0.930 . S
H952 C898 0.930 . S
H953 C901 0.929 . S
H954 C906 0.929 . S
H955 C907 0.930 . S
H956 C914 0.929 . S
H957 C915 0.930 . S
H958 C916 0.930 . S
H959 C917 0.930 . S
H960 C919 0.929 . S
H961 C920 0.930 . S
H962 C921 0.930 . S
H963 C922 0.930 . S
H964 C926 0.929 . S
H965 C928 0.930 1_556 S
H966 C934 0.929 . S
H967 C935 0.930 1_554 S
Li968 N985 1.990 . S
Li968 O1028 1.956 . S
Li968 O1029 1.970 . S
Li968 O1030 1.961 . S
Li969 N993 1.990 . S
Li969 O1028 1.970 . S
Li969 O1029 1.956 . S
Li969 O1031 1.961 . S
Li970 N1015 1.990 . S
Li970 O1028 1.961 . S
Li970 O1030 1.956 . S
Li970 O1031 1.970 . S
Li971 N1021 1.990 . S
Li971 O1029 1.961 . S
Li971 O1030 1.970 . S
Li971 O1031 1.956 . S
C972 C974 1.348 . S
C972 C975 1.356 . S
C972 O1028 1.325 . S
N973 C976 1.314 . S
N973 C977 1.279 . S
C974 C972 1.348 . S
C974 C976 1.353 . S
C974 H1032 0.929 . S
C975 C972 1.356 . S
C975 C977 1.358 . S
C975 H1033 0.930 . S
C976 N973 1.314 . S
C976 C974 1.353 . S
C976 H1034 0.930 . S
C977 N973 1.279 . S
C977 C975 1.358 . S
C977 H1035 0.930 . S
C978 C981 1.348 . S
C978 C982 1.356 . S
C978 O1029 1.325 . S
C979 N980 1.279 . S
C979 C982 1.358 . S
C979 H1036 0.930 . S
N980 C979 1.279 . S
N980 C983 1.314 . S
C981 C978 1.348 . S
C981 C983 1.353 . S
C981 H1037 0.929 . S
C982 C978 1.356 . S
C982 C979 1.358 . S
C982 H1038 0.930 . S
C983 N980 1.314 . S
C983 C981 1.353 . S
C983 H1039 0.930 . S
C984 N985 1.314 . S
C984 C989 1.353 . S
C984 H990 0.930 . S
N985 Li968 1.990 . S
N985 C984 1.314 . S
N985 C987 1.279 . S
C986 C987 1.358 . S
C986 C988 1.356 . S
C986 H1040 0.930 . S
C987 N985 1.279 . S
C987 C986 1.358 . S
C987 H991 0.930 . S
C988 C986 1.356 . S
C988 C989 1.348 . S
C989 C984 1.353 . S
C989 C988 1.348 . S
C989 H1041 0.929 . S
H990 C984 0.930 . S
H991 C987 0.930 . S
C992 N993 1.314 . S
C992 C994 1.353 . S
C992 H998 0.930 . S
N993 Li969 1.990 . S
N993 C992 1.314 . S
N993 C996 1.279 . S
C994 C992 1.353 . S
C994 C997 1.348 . S
C994 H1042 0.929 . S
C995 C996 1.358 . S
C995 C997 1.356 . S
C995 H1043 0.930 . S
C996 N993 1.279 . S
C996 C995 1.358 . S
C996 H999 0.930 . S
C997 C994 1.348 . S
C997 C995 1.356 . S
H998 C992 0.930 . S
H999 C996 0.930 . S
C1000 C1002 1.348 . S
C1000 C1003 1.356 . S
C1000 O1030 1.325 . S
N1001 C1004 1.314 . S
N1001 C1005 1.279 . S
C1002 C1000 1.348 . S
C1002 C1004 1.353 . S
C1002 H1044 0.929 . S
C1003 C1000 1.356 . S
C1003 C1005 1.358 . S
C1003 H1045 0.930 . S
C1004 N1001 1.314 . S
C1004 C1002 1.353 . S
C1004 H1046 0.930 . S
C1005 N1001 1.279 . S
C1005 C1003 1.358 . S
C1005 H1047 0.930 . S
C1006 C1007 1.348 . S
C1006 C1008 1.356 . S
C1006 O1031 1.325 . S
C1007 C1006 1.348 . S
C1007 C1009 1.353 . S
C1007 H1048 0.929 . S
C1008 C1006 1.356 . S
C1008 C1010 1.358 . S
C1008 H1049 0.930 . S
C1009 C1007 1.353 . S
C1009 N1011 1.314 . S
C1009 H1050 0.930 . S
C1010 C1008 1.358 . S
C1010 N1011 1.279 . S
C1010 H1051 0.930 . S
N1011 C1009 1.314 . S
N1011 C1010 1.279 . S
C1012 C1014 1.353 . S
C1012 N1015 1.314 . S
C1012 H1018 0.930 . S
C1013 N1015 1.279 . S
C1013 C1016 1.358 . S
C1013 H1019 0.930 . S
C1014 C1012 1.353 . S
C1014 C1017 1.348 . S
C1014 H1052 0.929 . S
N1015 Li970 1.990 . S
N1015 C1012 1.314 . S
N1015 C1013 1.279 . S
C1016 C1013 1.358 . S
C1016 C1017 1.356 . S
C1016 H1053 0.930 . S
C1017 C1014 1.348 . S
C1017 C1016 1.356 . S
H1018 C1012 0.930 . S
H1019 C1013 0.930 . S
C1020 N1021 1.314 . S
C1020 C1022 1.353 . S
C1020 H1026 0.930 . S
N1021 Li971 1.990 . S
N1021 C1020 1.314 . S
N1021 C1024 1.279 . S
C1022 C1020 1.353 . S
C1022 C1025 1.348 . S
C1022 H1054 0.929 . S
C1023 C1024 1.358 . S
C1023 C1025 1.356 . S
C1023 H1055 0.930 . S
C1024 N1021 1.279 . S
C1024 C1023 1.358 . S
C1024 H1027 0.930 . S
C1025 C1022 1.348 . S
C1025 C1023 1.356 . S
H1026 C1020 0.930 . S
H1027 C1024 0.930 . S
O1028 Li968 1.956 . S
O1028 Li969 1.970 . S
O1028 Li970 1.961 . S
O1028 C972 1.325 . S
O1029 Li968 1.970 . S
O1029 Li969 1.956 . S
O1029 Li971 1.961 . S
O1029 C978 1.325 . S
O1030 Li968 1.961 . S
O1030 Li970 1.956 . S
O1030 Li971 1.970 . S
O1030 C1000 1.325 . S
O1031 Li969 1.961 . S
O1031 Li970 1.970 . S
O1031 Li971 1.956 . S
O1031 C1006 1.325 . S
H1032 C974 0.929 . S
H1033 C975 0.930 . S
H1034 C976 0.930 . S
H1035 C977 0.930 . S
H1036 C979 0.930 . S
H1037 C981 0.929 . S
H1038 C982 0.930 . S
H1039 C983 0.930 . S
H1040 C986 0.930 . S
H1041 C989 0.929 . S
H1042 C994 0.929 . S
H1043 C995 0.930 . S
H1044 C1002 0.929 . S
H1045 C1003 0.930 . S
H1046 C1004 0.930 . S
H1047 C1005 0.930 . S
H1048 C1007 0.929 . S
H1049 C1008 0.930 . S
H1050 C1009 0.930 . S
H1051 C1010 0.930 . S
H1052 C1014 0.929 . S
H1053 C1016 0.930 . S
H1054 C1022 0.929 . S
H1055 C1023 0.930 . S
Li1056 N1073 1.990 . S
Li1056 O1116 1.956 . S
Li1056 O1117 1.970 . S
Li1056 O1118 1.961 . S
Li1057 N1081 1.990 . S
Li1057 O1116 1.970 . S
Li1057 O1117 1.956 . S
Li1057 O1119 1.961 . S
Li1058 N1103 1.990 . S
Li1058 O1116 1.961 . S
Li1058 O1118 1.956 . S
Li1058 O1119 1.970 . S
Li1059 N1109 1.990 . S
Li1059 O1117 1.961 . S
Li1059 O1118 1.970 . S
Li1059 O1119 1.956 . S
C1060 C1062 1.348 . S
C1060 C1063 1.356 . S
C1060 O1116 1.325 . S
N1061 C1064 1.314 . S
N1061 C1065 1.279 . S
C1062 C1060 1.348 . S
C1062 C1064 1.353 . S
C1062 H1120 0.929 . S
C1063 C1060 1.356 . S
C1063 C1065 1.358 . S
C1063 H1121 0.930 . S
C1064 N1061 1.314 . S
C1064 C1062 1.353 . S
C1064 H1122 0.930 . S
C1065 N1061 1.279 . S
C1065 C1063 1.358 . S
C1065 H1123 0.930 . S
C1066 C1069 1.348 . S
C1066 C1070 1.356 . S
C1066 O1117 1.325 . S
C1067 N1068 1.279 . S
C1067 C1070 1.358 . S
C1067 H1124 0.930 . S
N1068 C1067 1.279 . S
N1068 C1071 1.314 . S
C1069 C1066 1.348 . S
C1069 C1071 1.353 . S
C1069 H1125 0.929 . S
C1070 C1066 1.356 . S
C1070 C1067 1.358 . S
C1070 H1126 0.930 . S
C1071 N1068 1.314 . S
C1071 C1069 1.353 . S
C1071 H1127 0.930 . S
C1072 N1073 1.314 . S
C1072 C1077 1.353 . S
C1072 H1078 0.930 . S
N1073 Li1056 1.990 . S
N1073 C1072 1.314 . S
N1073 C1075 1.279 . S
C1074 C1075 1.358 . S
C1074 C1076 1.356 . S
C1074 H1128 0.930 . S
C1075 N1073 1.279 . S
C1075 C1074 1.358 . S
C1075 H1079 0.930 . S
C1076 C1074 1.356 . S
C1076 C1077 1.348 . S
C1077 C1072 1.353 . S
C1077 C1076 1.348 . S
C1077 H1129 0.929 . S
H1078 C1072 0.930 . S
H1079 C1075 0.930 . S
C1080 N1081 1.314 . S
C1080 C1082 1.353 . S
C1080 H1086 0.930 . S
N1081 Li1057 1.990 . S
N1081 C1080 1.314 . S
N1081 C1084 1.279 . S
C1082 C1080 1.353 . S
C1082 C1085 1.348 . S
C1082 H1130 0.929 . S
C1083 C1084 1.358 . S
C1083 C1085 1.356 . S
C1083 H1131 0.930 . S
C1084 N1081 1.279 . S
C1084 C1083 1.358 . S
C1084 H1087 0.930 . S
C1085 C1082 1.348 . S
C1085 C1083 1.356 . S
H1086 C1080 0.930 . S
H1087 C1084 0.930 . S
C1088 C1090 1.348 . S
C1088 C1091 1.356 . S
C1088 O1118 1.325 . S
N1089 C1092 1.314 . S
N1089 C1093 1.279 . S
C1090 C1088 1.348 . S
C1090 C1092 1.353 . S
C1090 H1132 0.929 . S
C1091 C1088 1.356 . S
C1091 C1093 1.358 . S
C1091 H1133 0.930 . S
C1092 N1089 1.314 . S
C1092 C1090 1.353 . S
C1092 H1134 0.930 . S
C1093 N1089 1.279 . S
C1093 C1091 1.358 . S
C1093 H1135 0.930 . S
C1094 C1095 1.348 . S
C1094 C1096 1.356 . S
C1094 O1119 1.325 . S
C1095 C1094 1.348 . S
C1095 C1097 1.353 . S
C1095 H1136 0.929 . S
C1096 C1094 1.356 . S
C1096 C1098 1.358 . S
C1096 H1137 0.930 . S
C1097 C1095 1.353 . S
C1097 N1099 1.314 . S
C1097 H1138 0.930 . S
C1098 C1096 1.358 . S
C1098 N1099 1.279 . S
C1098 H1139 0.930 . S
N1099 C1097 1.314 . S
N1099 C1098 1.279 . S
C1100 C1102 1.353 . S
C1100 N1103 1.314 . S
C1100 H1106 0.930 . S
C1101 N1103 1.279 . S
C1101 C1104 1.358 . S
C1101 H1107 0.930 . S
C1102 C1100 1.353 . S
C1102 C1105 1.348 . S
C1102 H1140 0.929 . S
N1103 Li1058 1.990 . S
N1103 C1100 1.314 . S
N1103 C1101 1.279 . S
C1104 C1101 1.358 . S
C1104 C1105 1.356 . S
C1104 H1141 0.930 . S
C1105 C1102 1.348 . S
C1105 C1104 1.356 . S
H1106 C1100 0.930 . S
H1107 C1101 0.930 . S
C1108 N1109 1.314 . S
C1108 C1110 1.353 . S
C1108 H1114 0.930 . S
N1109 Li1059 1.990 . S
N1109 C1108 1.314 . S
N1109 C1112 1.279 . S
C1110 C1108 1.353 . S
C1110 C1113 1.348 . S
C1110 H1142 0.929 . S
C1111 C1112 1.358 . S
C1111 C1113 1.356 . S
C1111 H1143 0.930 . S
C1112 N1109 1.279 . S
C1112 C1111 1.358 . S
C1112 H1115 0.930 . S
C1113 C1110 1.348 . S
C1113 C1111 1.356 . S
H1114 C1108 0.930 . S
H1115 C1112 0.930 . S
O1116 Li1056 1.956 . S
O1116 Li1057 1.970 . S
O1116 Li1058 1.961 . S
O1116 C1060 1.325 . S
O1117 Li1056 1.970 . S
O1117 Li1057 1.956 . S
O1117 Li1059 1.961 . S
O1117 C1066 1.325 . S
O1118 Li1056 1.961 . S
O1118 Li1058 1.956 . S
O1118 Li1059 1.970 . S
O1118 C1088 1.325 . S
O1119 Li1057 1.961 . S
O1119 Li1058 1.970 . S
O1119 Li1059 1.956 . S
O1119 C1094 1.325 . S
H1120 C1062 0.929 . S
H1121 C1063 0.930 . S
H1122 C1064 0.930 . S
H1123 C1065 0.930 . S
H1124 C1067 0.930 . S
H1125 C1069 0.929 . S
H1126 C1070 0.930 . S
H1127 C1071 0.930 . S
H1128 C1074 0.930 . S
H1129 C1077 0.929 . S
H1130 C1082 0.929 . S
H1131 C1083 0.930 . S
H1132 C1090 0.929 . S
H1133 C1091 0.930 . S
H1134 C1092 0.930 . S
H1135 C1093 0.930 . S
H1136 C1095 0.929 . S
H1137 C1096 0.930 . S
H1138 C1097 0.930 . S
H1139 C1098 0.930 . S
H1140 C1102 0.929 . S
H1141 C1104 0.930 . S
H1142 C1110 0.929 . S
H1143 C1111 0.930 . S
Li1144 N1161 1.990 . S
Li1144 O1204 1.956 . S
Li1144 O1205 1.970 . S
Li1144 O1206 1.961 . S
Li1145 N1169 1.990 . S
Li1145 O1204 1.970 . S
Li1145 O1205 1.956 . S
Li1145 O1207 1.961 . S
Li1146 N1191 1.990 . S
Li1146 O1204 1.961 . S
Li1146 O1206 1.956 . S
Li1146 O1207 1.970 . S
Li1147 N1197 1.990 . S
Li1147 O1205 1.961 . S
Li1147 O1206 1.970 . S
Li1147 O1207 1.956 . S
C1148 C1150 1.348 . S
C1148 C1151 1.356 . S
C1148 O1204 1.325 . S
N1149 C1152 1.314 . S
N1149 C1153 1.279 . S
C1150 C1148 1.348 . S
C1150 C1152 1.353 . S
C1150 H1208 0.929 . S
C1151 C1148 1.356 . S
C1151 C1153 1.358 . S
C1151 H1209 0.930 . S
C1152 N1149 1.314 . S
C1152 C1150 1.353 . S
C1152 H1210 0.930 . S
C1153 N1149 1.279 . S
C1153 C1151 1.358 . S
C1153 H1211 0.930 . S
C1154 C1157 1.348 . S
C1154 C1158 1.356 . S
C1154 O1205 1.325 . S
C1155 N1156 1.279 . S
C1155 C1158 1.358 . S
C1155 H1212 0.930 . S
N1156 C1155 1.279 . S
N1156 C1159 1.314 . S
C1157 C1154 1.348 . S
C1157 C1159 1.353 . S
C1157 H1213 0.929 . S
C1158 C1154 1.356 . S
C1158 C1155 1.358 . S
C1158 H1214 0.930 . S
C1159 N1156 1.314 . S
C1159 C1157 1.353 . S
C1159 H1215 0.930 . S
C1160 N1161 1.314 . S
C1160 C1165 1.353 . S
C1160 H1166 0.930 . S
N1161 Li1144 1.990 . S
N1161 C1160 1.314 . S
N1161 C1163 1.279 . S
C1162 C1163 1.358 . S
C1162 C1164 1.356 . S
C1162 H1216 0.930 . S
C1163 N1161 1.279 . S
C1163 C1162 1.358 . S
C1163 H1167 0.930 . S
C1164 C1162 1.356 . S
C1164 C1165 1.348 . S
C1165 C1160 1.353 . S
C1165 C1164 1.348 . S
C1165 H1217 0.929 . S
H1166 C1160 0.930 . S
H1167 C1163 0.930 . S
C1168 N1169 1.314 . S
C1168 C1170 1.353 . S
C1168 H1174 0.930 . S
N1169 Li1145 1.990 . S
N1169 C1168 1.314 . S
N1169 C1172 1.279 . S
C1170 C1168 1.353 . S
C1170 C1173 1.348 . S
C1170 H1218 0.929 . S
C1171 C1172 1.358 . S
C1171 C1173 1.356 . S
C1171 H1219 0.930 . S
C1172 N1169 1.279 . S
C1172 C1171 1.358 . S
C1172 H1175 0.930 . S
C1173 C1170 1.348 . S
C1173 C1171 1.356 . S
H1174 C1168 0.930 . S
H1175 C1172 0.930 . S
C1176 C1178 1.348 . S
C1176 C1179 1.356 . S
C1176 O1206 1.325 . S
N1177 C1180 1.314 . S
N1177 C1181 1.279 . S
C1178 C1176 1.348 . S
C1178 C1180 1.353 . S
C1178 H1220 0.929 . S
C1179 C1176 1.356 . S
C1179 C1181 1.358 . S
C1179 H1221 0.930 . S
C1180 N1177 1.314 . S
C1180 C1178 1.353 . S
C1180 H1222 0.930 . S
C1181 N1177 1.279 . S
C1181 C1179 1.358 . S
C1181 H1223 0.930 . S
C1182 C1183 1.348 . S
C1182 C1184 1.356 . S
C1182 O1207 1.325 . S
C1183 C1182 1.348 . S
C1183 C1185 1.353 . S
C1183 H1224 0.929 . S
C1184 C1182 1.356 . S
C1184 C1186 1.358 . S
C1184 H1225 0.930 . S
C1185 C1183 1.353 . S
C1185 N1187 1.314 . S
C1185 H1226 0.930 . S
C1186 C1184 1.358 . S
C1186 N1187 1.279 . S
C1186 H1227 0.930 . S
N1187 C1185 1.314 . S
N1187 C1186 1.279 . S
C1188 C1190 1.353 . S
C1188 N1191 1.314 . S
C1188 H1194 0.930 . S
C1189 N1191 1.279 . S
C1189 C1192 1.358 . S
C1189 H1195 0.930 . S
C1190 C1188 1.353 . S
C1190 C1193 1.348 . S
C1190 H1228 0.929 . S
N1191 Li1146 1.990 . S
N1191 C1188 1.314 . S
N1191 C1189 1.279 . S
C1192 C1189 1.358 . S
C1192 C1193 1.356 . S
C1192 H1229 0.930 . S
C1193 C1190 1.348 . S
C1193 C1192 1.356 . S
H1194 C1188 0.930 . S
H1195 C1189 0.930 . S
C1196 N1197 1.314 . S
C1196 C1198 1.353 . S
C1196 H1202 0.930 . S
N1197 Li1147 1.990 . S
N1197 C1196 1.314 . S
N1197 C1200 1.279 . S
C1198 C1196 1.353 . S
C1198 C1201 1.348 . S
C1198 H1230 0.929 . S
C1199 C1200 1.358 . S
C1199 C1201 1.356 . S
C1199 H1231 0.930 . S
C1200 N1197 1.279 . S
C1200 C1199 1.358 . S
C1200 H1203 0.930 . S
C1201 C1198 1.348 . S
C1201 C1199 1.356 . S
H1202 C1196 0.930 . S
H1203 C1200 0.930 . S
O1204 Li1144 1.956 . S
O1204 Li1145 1.970 . S
O1204 Li1146 1.961 . S
O1204 C1148 1.325 . S
O1205 Li1144 1.970 . S
O1205 Li1145 1.956 . S
O1205 Li1147 1.961 . S
O1205 C1154 1.325 . S
O1206 Li1144 1.961 . S
O1206 Li1146 1.956 . S
O1206 Li1147 1.970 . S
O1206 C1176 1.325 . S
O1207 Li1145 1.961 . S
O1207 Li1146 1.970 . S
O1207 Li1147 1.956 . S
O1207 C1182 1.325 . S
H1208 C1150 0.929 . S
H1209 C1151 0.930 . S
H1210 C1152 0.930 . S
H1211 C1153 0.930 . S
H1212 C1155 0.930 . S
H1213 C1157 0.929 . S
H1214 C1158 0.930 . S
H1215 C1159 0.930 . S
H1216 C1162 0.930 . S
H1217 C1165 0.929 . S
H1218 C1170 0.929 . S
H1219 C1171 0.930 . S
H1220 C1178 0.929 . S
H1221 C1179 0.930 . S
H1222 C1180 0.930 . S
H1223 C1181 0.930 . S
H1224 C1183 0.929 . S
H1225 C1184 0.930 . S
H1226 C1185 0.930 . S
H1227 C1186 0.930 . S
H1228 C1190 0.929 . S
H1229 C1192 0.930 . S
H1230 C1198 0.929 . S
H1231 C1199 0.930 . S
Li1232 N1249 1.990 . S
Li1232 O1292 1.956 . S
Li1232 O1293 1.970 . S
Li1232 O1294 1.961 1_554 S
Li1233 N1257 1.990 . S
Li1233 O1292 1.970 . S
Li1233 O1293 1.956 . S
Li1233 O1295 1.961 1_554 S
Li1234 N1279 1.990 . S
Li1234 O1292 1.961 1_556 S
Li1234 O1294 1.956 . S
Li1234 O1295 1.970 . S
Li1235 N1285 1.990 . S
Li1235 O1293 1.961 1_556 S
Li1235 O1294 1.970 . S
Li1235 O1295 1.956 . S
C1236 C1238 1.348 . S
C1236 C1239 1.356 . S
C1236 O1292 1.325 . S
N1237 C1240 1.314 . S
N1237 C1241 1.279 . S
C1238 C1236 1.348 . S
C1238 C1240 1.353 . S
C1238 H1296 0.929 . S
C1239 C1236 1.356 . S
C1239 C1241 1.358 . S
C1239 H1297 0.930 . S
C1240 N1237 1.314 . S
C1240 C1238 1.353 . S
C1240 H1298 0.930 . S
C1241 N1237 1.279 . S
C1241 C1239 1.358 . S
C1241 H1299 0.930 . S
C1242 C1245 1.348 . S
C1242 C1246 1.356 1_554 S
C1242 O1293 1.325 . S
C1243 N1244 1.279 . S
C1243 C1246 1.358 1_554 S
C1243 H1300 0.930 1_554 S
N1244 C1243 1.279 . S
N1244 C1247 1.314 . S
C1245 C1242 1.348 . S
C1245 C1247 1.353 . S
C1245 H1301 0.929 . S
C1246 C1242 1.356 1_556 S
C1246 C1243 1.358 1_556 S
C1246 H1302 0.930 . S
C1247 N1244 1.314 . S
C1247 C1245 1.353 . S
C1247 H1303 0.930 . S
C1248 N1249 1.314 . S
C1248 C1253 1.353 . S
C1248 H1254 0.930 . S
N1249 Li1232 1.990 . S
N1249 C1248 1.314 . S
N1249 C1251 1.279 . S
C1250 C1251 1.358 . S
C1250 C1252 1.356 . S
C1250 H1304 0.930 . S
C1251 N1249 1.279 . S
C1251 C1250 1.358 . S
C1251 H1255 0.930 . S
C1252 C1250 1.356 . S
C1252 C1253 1.348 . S
C1253 C1248 1.353 . S
C1253 C1252 1.348 . S
C1253 H1305 0.929 . S
H1254 C1248 0.930 . S
H1255 C1251 0.930 . S
C1256 N1257 1.314 . S
C1256 C1258 1.353 . S
C1256 H1262 0.930 1_554 S
N1257 Li1233 1.990 . S
N1257 C1256 1.314 . S
N1257 C1260 1.279 . S
C1258 C1256 1.353 . S
C1258 C1261 1.348 . S
C1258 H1306 0.929 . S
C1259 C1260 1.358 . S
C1259 C1261 1.356 . S
C1259 H1307 0.930 . S
C1260 N1257 1.279 . S
C1260 C1259 1.358 . S
C1260 H1263 0.930 . S
C1261 C1258 1.348 . S
C1261 C1259 1.356 . S
H1262 C1256 0.930 1_556 S
H1263 C1260 0.930 . S
C1264 C1266 1.348 . S
C1264 C1267 1.356 1_556 S
C1264 O1294 1.325 . S
N1265 C1268 1.314 . S
N1265 C1269 1.279 . S
C1266 C1264 1.348 . S
C1266 C1268 1.353 . S
C1266 H1308 0.929 . S
C1267 C1264 1.356 1_554 S
C1267 C1269 1.358 1_554 S
C1267 H1309 0.930 . S
C1268 N1265 1.314 . S
C1268 C1266 1.353 . S
C1268 H1310 0.930 . S
C1269 N1265 1.279 . S
C1269 C1267 1.358 1_556 S
C1269 H1311 0.930 1_556 S
C1270 C1271 1.348 . S
C1270 C1272 1.356 . S
C1270 O1295 1.325 . S
C1271 C1270 1.348 . S
C1271 C1273 1.353 . S
C1271 H1312 0.929 . S
C1272 C1270 1.356 . S
C1272 C1274 1.358 . S
C1272 H1313 0.930 . S
C1273 C1271 1.353 . S
C1273 N1275 1.314 . S
C1273 H1314 0.930 . S
C1274 C1272 1.358 . S
C1274 N1275 1.279 . S
C1274 H1315 0.930 . S
N1275 C1273 1.314 . S
N1275 C1274 1.279 . S
C1276 C1278 1.353 . S
C1276 N1279 1.314 . S
C1276 H1282 0.930 1_556 S
C1277 N1279 1.279 . S
C1277 C1280 1.358 . S
C1277 H1283 0.930 . S
C1278 C1276 1.353 . S
C1278 C1281 1.348 . S
C1278 H1316 0.929 . S
N1279 Li1234 1.990 . S
N1279 C1276 1.314 . S
N1279 C1277 1.279 . S
C1280 C1277 1.358 . S
C1280 C1281 1.356 . S
C1280 H1317 0.930 . S
C1281 C1278 1.348 . S
C1281 C1280 1.356 . S
H1282 C1276 0.930 1_554 S
H1283 C1277 0.930 . S
C1284 N1285 1.314 . S
C1284 C1286 1.353 . S
C1284 H1290 0.930 . S
N1285 Li1235 1.990 . S
N1285 C1284 1.314 . S
N1285 C1288 1.279 . S
C1286 C1284 1.353 . S
C1286 C1289 1.348 . S
C1286 H1318 0.929 . S
C1287 C1288 1.358 . S
C1287 C1289 1.356 . S
C1287 H1319 0.930 . S
C1288 N1285 1.279 . S
C1288 C1287 1.358 . S
C1288 H1291 0.930 . S
C1289 C1286 1.348 . S
C1289 C1287 1.356 . S
H1290 C1284 0.930 . S
H1291 C1288 0.930 . S
O1292 Li1232 1.956 . S
O1292 Li1233 1.970 . S
O1292 Li1234 1.961 1_554 S
O1292 C1236 1.325 . S
O1293 Li1232 1.970 . S
O1293 Li1233 1.956 . S
O1293 Li1235 1.961 1_554 S
O1293 C1242 1.325 . S
O1294 Li1232 1.961 1_556 S
O1294 Li1234 1.956 . S
O1294 Li1235 1.970 . S
O1294 C1264 1.325 . S
O1295 Li1233 1.961 1_556 S
O1295 Li1234 1.970 . S
O1295 Li1235 1.956 . S
O1295 C1270 1.325 . S
H1296 C1238 0.929 . S
H1297 C1239 0.930 . S
H1298 C1240 0.930 . S
H1299 C1241 0.930 . S
H1300 C1243 0.930 1_556 S
H1301 C1245 0.929 . S
H1302 C1246 0.930 . S
H1303 C1247 0.930 . S
H1304 C1250 0.930 . S
H1305 C1253 0.929 . S
H1306 C1258 0.929 . S
H1307 C1259 0.930 . S
H1308 C1266 0.929 . S
H1309 C1267 0.930 . S
H1310 C1268 0.930 . S
H1311 C1269 0.930 1_554 S
H1312 C1271 0.929 . S
H1313 C1272 0.930 . S
H1314 C1273 0.930 . S
H1315 C1274 0.930 . S
H1316 C1278 0.929 . S
H1317 C1280 0.930 . S
H1318 C1286 0.929 . S
H1319 C1287 0.930 . S
Li1320 N1337 1.990 . S
Li1320 O1380 1.956 . S
Li1320 O1381 1.970 . S
Li1320 O1382 1.961 . S
Li1321 N1345 1.990 . S
Li1321 O1380 1.970 . S
Li1321 O1381 1.956 . S
Li1321 O1383 1.961 . S
Li1322 N1367 1.990 . S
Li1322 O1380 1.961 . S
Li1322 O1382 1.956 . S
Li1322 O1383 1.970 . S
Li1323 N1373 1.990 . S
Li1323 O1381 1.961 . S
Li1323 O1382 1.970 . S
Li1323 O1383 1.956 . S
C1324 C1326 1.348 . S
C1324 C1327 1.356 . S
C1324 O1380 1.325 . S
N1325 C1328 1.314 . S
N1325 C1329 1.279 . S
C1326 C1324 1.348 . S
C1326 C1328 1.353 . S
C1326 H1384 0.929 . S
C1327 C1324 1.356 . S
C1327 C1329 1.358 . S
C1327 H1385 0.930 . S
C1328 N1325 1.314 . S
C1328 C1326 1.353 . S
C1328 H1386 0.930 . S
C1329 N1325 1.279 . S
C1329 C1327 1.358 . S
C1329 H1387 0.930 . S
C1330 C1333 1.348 . S
C1330 C1334 1.356 . S
C1330 O1381 1.325 . S
C1331 N1332 1.279 . S
C1331 C1334 1.358 . S
C1331 H1388 0.930 . S
N1332 C1331 1.279 . S
N1332 C1335 1.314 . S
C1333 C1330 1.348 . S
C1333 C1335 1.353 . S
C1333 H1389 0.929 . S
C1334 C1330 1.356 . S
C1334 C1331 1.358 . S
C1334 H1390 0.930 . S
C1335 N1332 1.314 . S
C1335 C1333 1.353 . S
C1335 H1391 0.930 . S
C1336 N1337 1.314 . S
C1336 C1341 1.353 . S
C1336 H1342 0.930 . S
N1337 Li1320 1.990 . S
N1337 C1336 1.314 . S
N1337 C1339 1.279 . S
C1338 C1339 1.358 . S
C1338 C1340 1.356 . S
C1338 H1392 0.930 . S
C1339 N1337 1.279 . S
C1339 C1338 1.358 . S
C1339 H1343 0.930 . S
C1340 C1338 1.356 . S
C1340 C1341 1.348 . S
C1341 C1336 1.353 . S
C1341 C1340 1.348 . S
C1341 H1393 0.929 . S
H1342 C1336 0.930 . S
H1343 C1339 0.930 . S
C1344 N1345 1.314 . S
C1344 C1346 1.353 . S
C1344 H1350 0.930 . S
N1345 Li1321 1.990 . S
N1345 C1344 1.314 . S
N1345 C1348 1.279 . S
C1346 C1344 1.353 . S
C1346 C1349 1.348 . S
C1346 H1394 0.929 . S
C1347 C1348 1.358 . S
C1347 C1349 1.356 . S
C1347 H1395 0.930 . S
C1348 N1345 1.279 . S
C1348 C1347 1.358 . S
C1348 H1351 0.930 . S
C1349 C1346 1.348 . S
C1349 C1347 1.356 . S
H1350 C1344 0.930 . S
H1351 C1348 0.930 . S
C1352 C1354 1.348 . S
C1352 C1355 1.356 . S
C1352 O1382 1.325 . S
N1353 C1356 1.314 . S
N1353 C1357 1.279 . S
C1354 C1352 1.348 . S
C1354 C1356 1.353 . S
C1354 H1396 0.929 . S
C1355 C1352 1.356 . S
C1355 C1357 1.358 . S
C1355 H1397 0.930 . S
C1356 N1353 1.314 . S
C1356 C1354 1.353 . S
C1356 H1398 0.930 . S
C1357 N1353 1.279 . S
C1357 C1355 1.358 . S
C1357 H1399 0.930 . S
C1358 C1359 1.348 . S
C1358 C1360 1.356 . S
C1358 O1383 1.325 . S
C1359 C1358 1.348 . S
C1359 C1361 1.353 . S
C1359 H1400 0.929 . S
C1360 C1358 1.356 . S
C1360 C1362 1.358 . S
C1360 H1401 0.930 . S
C1361 C1359 1.353 . S
C1361 N1363 1.314 . S
C1361 H1402 0.930 . S
C1362 C1360 1.358 . S
C1362 N1363 1.279 . S
C1362 H1403 0.930 . S
N1363 C1361 1.314 . S
N1363 C1362 1.279 . S
C1364 C1366 1.353 . S
C1364 N1367 1.314 . S
C1364 H1370 0.930 . S
C1365 N1367 1.279 . S
C1365 C1368 1.358 . S
C1365 H1371 0.930 . S
C1366 C1364 1.353 . S
C1366 C1369 1.348 . S
C1366 H1404 0.929 . S
N1367 Li1322 1.990 . S
N1367 C1364 1.314 . S
N1367 C1365 1.279 . S
C1368 C1365 1.358 . S
C1368 C1369 1.356 . S
C1368 H1405 0.930 . S
C1369 C1366 1.348 . S
C1369 C1368 1.356 . S
H1370 C1364 0.930 . S
H1371 C1365 0.930 . S
C1372 N1373 1.314 . S
C1372 C1374 1.353 . S
C1372 H1378 0.930 . S
N1373 Li1323 1.990 . S
N1373 C1372 1.314 . S
N1373 C1376 1.279 . S
C1374 C1372 1.353 . S
C1374 C1377 1.348 . S
C1374 H1406 0.929 . S
C1375 C1376 1.358 . S
C1375 C1377 1.356 . S
C1375 H1407 0.930 . S
C1376 N1373 1.279 . S
C1376 C1375 1.358 . S
C1376 H1379 0.930 . S
C1377 C1374 1.348 . S
C1377 C1375 1.356 . S
H1378 C1372 0.930 . S
H1379 C1376 0.930 . S
O1380 Li1320 1.956 . S
O1380 Li1321 1.970 . S
O1380 Li1322 1.961 . S
O1380 C1324 1.325 . S
O1381 Li1320 1.970 . S
O1381 Li1321 1.956 . S
O1381 Li1323 1.961 . S
O1381 C1330 1.325 . S
O1382 Li1320 1.961 . S
O1382 Li1322 1.956 . S
O1382 Li1323 1.970 . S
O1382 C1352 1.325 . S
O1383 Li1321 1.961 . S
O1383 Li1322 1.970 . S
O1383 Li1323 1.956 . S
O1383 C1358 1.325 . S
H1384 C1326 0.929 . S
H1385 C1327 0.930 . S
H1386 C1328 0.930 . S
H1387 C1329 0.930 . S
H1388 C1331 0.930 . S
H1389 C1333 0.929 . S
H1390 C1334 0.930 . S
H1391 C1335 0.930 . S
H1392 C1338 0.930 . S
H1393 C1341 0.929 . S
H1394 C1346 0.929 . S
H1395 C1347 0.930 . S
H1396 C1354 0.929 . S
H1397 C1355 0.930 . S
H1398 C1356 0.930 . S
H1399 C1357 0.930 . S
H1400 C1359 0.929 . S
H1401 C1360 0.930 . S
H1402 C1361 0.930 . S
H1403 C1362 0.930 . S
H1404 C1366 0.929 . S
H1405 C1368 0.930 . S
H1406 C1374 0.929 . S
H1407 C1375 0.930 . S
H1408 C1416 0.950 . S
H1409 C1421 0.950 . S
H1410 C1418 0.950 . S
H1411 C1420 0.950 . S
H1412 C1422 0.950 . S
H1413 C1424 0.950 . S
H1414 C1426 0.950 . S
H1415 C1427 0.950 . S
C1416 H1408 0.950 . S
C1416 C1417 1.386 . S
C1416 C1418 1.391 . S
C1417 C1416 1.386 . S
C1417 C1421 1.393 . S
C1418 H1410 0.950 . S
C1418 C1416 1.391 . S
C1418 C1419 1.400 . S
C1419 C1418 1.400 . S
C1419 C1420 1.398 . S
C1419 C1425 1.491 . S
C1420 H1411 0.950 . S
C1420 C1419 1.398 . S
C1420 C1421 1.391 . S
C1421 H1409 0.950 . S
C1421 C1417 1.393 . S
C1421 C1420 1.391 . S
C1422 H1412 0.950 . S
C1422 C1423 1.386 . S
C1422 C1424 1.391 . S
C1423 C1422 1.386 . S
C1423 C1427 1.393 . S
C1424 H1413 0.950 . S
C1424 C1422 1.391 . S
C1424 C1425 1.400 . S
C1425 C1419 1.491 . S
C1425 C1424 1.400 . S
C1425 C1426 1.398 . S
C1426 H1414 0.950 . S
C1426 C1425 1.398 . S
C1426 C1427 1.391 . S
C1427 H1415 0.950 . S
C1427 C1423 1.393 . S
C1427 C1426 1.391 . S
H1428 C1436 0.950 . S
H1429 C1441 0.950 . S
H1430 C1438 0.950 1_565 S
H1431 C1440 0.950 1_455 S
H1432 C1442 0.950 . S
H1433 C1444 0.950 1_545 S
H1434 C1446 0.880 1_655 S
H1435 C1447 0.950 . S
C1436 H1428 0.950 . S
C1436 C1437 1.386 . S
C1436 C1438 1.391 . S
C1437 C1436 1.386 . S
C1437 C1441 1.393 . S
C1438 H1430 0.950 1_545 S
C1438 C1436 1.391 . S
C1438 C1439 1.400 . S
C1439 C1438 1.400 . S
C1439 C1440 1.398 . S
C1439 C1445 1.491 1_645 S
C1440 H1431 0.950 1_655 S
C1440 C1439 1.398 . S
C1440 C1441 1.391 . S
C1441 H1429 0.950 . S
C1441 C1437 1.393 . S
C1441 C1440 1.391 . S
C1442 H1432 0.950 . S
C1442 C1443 1.386 . S
C1442 C1444 1.391 . S
C1443 C1442 1.386 . S
C1443 C1447 1.393 . S
C1444 H1433 0.950 1_565 S
C1444 C1442 1.391 . S
C1444 C1445 1.400 . S
C1445 C1439 1.491 1_465 S
C1445 C1444 1.400 . S
C1445 C1446 1.421 . S
C1446 H1434 0.880 1_455 S
C1446 C1445 1.421 . S
C1446 C1447 1.439 . S
C1447 H1435 0.950 . S
C1447 C1443 1.393 . S
C1447 C1446 1.439 . S
H1448 C1456 0.950 . S
H1449 C1461 0.950 . S
H1450 C1458 0.950 . S
H1451 C1460 0.950 . S
H1452 C1462 0.950 . S
H1453 C1464 0.950 . S
H1454 C1466 0.950 . S
H1455 C1467 0.950 . S
C1456 H1448 0.950 . S
C1456 C1457 1.386 . S
C1456 C1458 1.391 . S
C1457 C1456 1.386 . S
C1457 C1461 1.393 . S
C1458 H1450 0.950 . S
C1458 C1456 1.391 . S
C1458 C1459 1.400 . S
C1459 C1458 1.400 . S
C1459 C1460 1.398 . S
C1459 C1465 1.491 . S
C1460 H1451 0.950 . S
C1460 C1459 1.398 . S
C1460 C1461 1.391 . S
C1461 H1449 0.950 . S
C1461 C1457 1.393 . S
C1461 C1460 1.391 . S
C1462 H1452 0.950 . S
C1462 C1463 1.386 . S
C1462 C1464 1.391 . S
C1463 C1462 1.386 . S
C1463 C1467 1.393 . S
C1464 H1453 0.950 . S
C1464 C1462 1.391 . S
C1464 C1465 1.400 . S
C1465 C1459 1.491 . S
C1465 C1464 1.400 . S
C1465 C1466 1.398 . S
C1466 H1454 0.950 . S
C1466 C1465 1.398 . S
C1466 C1467 1.391 . S
C1467 H1455 0.950 . S
C1467 C1463 1.393 . S
C1467 C1466 1.391 . S
H1468 C1476 0.950 . S
H1469 C1481 0.950 1_565 S
H1470 C1478 0.950 1_556 S
H1471 C1480 0.950 . S
H1472 C1482 0.950 . S
H1473 C1484 0.950 1_554 S
H1474 C1486 0.950 . S
H1475 C1487 0.912 1_545 S
C1476 H1468 0.950 . S
C1476 C1477 1.386 . S
C1476 C1478 1.391 . S
C1477 C1476 1.386 . S
C1477 C1481 1.393 . S
C1478 H1470 0.950 1_554 S
C1478 C1476 1.391 . S
C1478 C1479 1.400 . S
C1479 C1478 1.400 . S
C1479 C1480 1.398 1_545 S
C1479 C1485 1.491 1_544 S
C1480 H1471 0.950 . S
C1480 C1479 1.398 1_565 S
C1480 C1481 1.391 1_565 S
C1481 H1469 0.950 1_545 S
C1481 C1477 1.393 . S
C1481 C1480 1.391 1_545 S
C1482 H1472 0.950 . S
C1482 C1483 1.386 . S
C1482 C1484 1.391 . S
C1483 C1482 1.386 . S
C1483 C1487 1.460 . S
C1484 H1473 0.950 1_556 S
C1484 C1482 1.391 . S
C1484 C1485 1.400 . S
C1485 C1479 1.491 1_566 S
C1485 C1484 1.400 . S
C1485 C1486 1.398 1_565 S
C1486 H1474 0.950 . S
C1486 C1485 1.398 1_545 S
C1486 C1487 1.365 1_545 S
C1487 H1475 0.912 1_565 S
C1487 C1483 1.460 . S
C1487 C1486 1.365 1_565 S
H1488 C1496 0.950 . S
H1489 C1501 0.950 . S
H1490 C1498 0.950 . S
H1491 C1500 0.950 . S
H1492 C1502 0.950 . S
H1493 C1504 0.950 . S
H1494 C1506 0.950 . S
H1495 C1507 0.950 . S
C1496 H1488 0.950 . S
C1496 C1497 1.386 . S
C1496 C1498 1.391 . S
C1497 C1496 1.386 . S
C1497 C1501 1.393 . S
C1498 H1490 0.950 . S
C1498 C1496 1.391 . S
C1498 C1499 1.400 . S
C1499 C1498 1.400 . S
C1499 C1500 1.398 . S
C1499 C1505 1.491 . S
C1500 H1491 0.950 . S
C1500 C1499 1.398 . S
C1500 C1501 1.391 . S
C1501 H1489 0.950 . S
C1501 C1497 1.393 . S
C1501 C1500 1.391 . S
C1502 H1492 0.950 . S
C1502 C1503 1.386 . S
C1502 C1504 1.391 . S
C1503 C1502 1.386 . S
C1503 C1507 1.393 . S
C1504 H1493 0.950 . S
C1504 C1502 1.391 . S
C1504 C1505 1.400 . S
C1505 C1499 1.491 . S
C1505 C1504 1.400 . S
C1505 C1506 1.398 . S
C1506 H1494 0.950 . S
C1506 C1505 1.398 . S
C1506 C1507 1.391 . S
C1507 H1495 0.950 . S
C1507 C1503 1.393 . S
C1507 C1506 1.391 . S
H1508 C1516 0.923 1_545 S
H1509 C1521 0.950 . S
H1510 C1518 0.950 . S
H1511 C1520 0.950 . S
H1512 C1522 0.917 1_565 S
H1513 C1524 0.950 . S
H1514 C1526 0.950 . S
H1515 C1527 0.950 . S
C1516 H1508 0.923 1_565 S
C1516 C1517 1.432 . S
C1516 C1518 1.373 1_565 S
C1517 C1516 1.432 . S
C1517 C1521 1.393 . S
C1518 H1510 0.950 . S
C1518 C1516 1.373 1_545 S
C1518 C1519 1.400 1_545 S
C1519 C1518 1.400 1_565 S
C1519 C1520 1.398 . S
C1519 C1525 1.491 1_565 S
C1520 H1511 0.950 . S
C1520 C1519 1.398 . S
C1520 C1521 1.391 . S
C1521 H1509 0.950 . S
C1521 C1517 1.393 . S
C1521 C1520 1.391 . S
C1522 H1512 0.917 1_545 S
C1522 C1523 1.443 . S
C1522 C1524 1.369 1_545 S
C1523 C1522 1.443 . S
C1523 C1527 1.393 . S
C1524 H1513 0.950 . S
C1524 C1522 1.369 1_565 S
C1524 C1525 1.400 1_565 S
C1525 C1519 1.491 1_545 S
C1525 C1524 1.400 1_545 S
C1525 C1526 1.398 . S
C1526 H1514 0.950 . S
C1526 C1525 1.398 . S
C1526 C1527 1.391 . S
C1527 H1515 0.950 . S
C1527 C1523 1.393 . S
C1527 C1526 1.391 . S
H1528 C1536 0.950 . S
H1529 C1541 0.950 . S
H1530 C1538 0.950 . S
H1531 C1540 0.950 . S
H1532 C1542 0.950 . S
H1533 C1544 0.950 . S
H1534 C1546 0.950 . S
H1535 C1547 0.950 . S
C1536 H1528 0.950 . S
C1536 C1537 1.386 . S
C1536 C1538 1.391 . S
C1537 C1536 1.386 . S
C1537 C1541 1.393 . S
C1538 H1530 0.950 . S
C1538 C1536 1.391 . S
C1538 C1539 1.400 . S
C1539 C1538 1.400 . S
C1539 C1540 1.398 . S
C1539 C1545 1.491 . S
C1540 H1531 0.950 . S
C1540 C1539 1.398 . S
C1540 C1541 1.391 . S
C1541 H1529 0.950 . S
C1541 C1537 1.393 . S
C1541 C1540 1.391 . S
C1542 H1532 0.950 . S
C1542 C1543 1.386 . S
C1542 C1544 1.391 . S
C1543 C1542 1.386 . S
C1543 C1547 1.393 . S
C1544 H1533 0.950 . S
C1544 C1542 1.391 . S
C1544 C1545 1.400 . S
C1545 C1539 1.491 . S
C1545 C1544 1.400 . S
C1545 C1546 1.398 . S
C1546 H1534 0.950 . S
C1546 C1545 1.398 . S
C1546 C1547 1.391 . S
C1547 H1535 0.950 . S
C1547 C1543 1.393 . S
C1547 C1546 1.391 . S
H1548 C1556 0.950 . S
H1549 C1561 0.950 . S
H1550 C1558 0.950 1_554 S
H1551 C1560 0.950 1_665 S
H1552 C1562 0.950 . S
H1553 C1564 0.950 1_556 S
H1554 C1566 0.950 1_445 S
H1555 C1567 0.950 . S
C1556 H1548 0.950 . S
C1556 C1557 1.386 . S
C1556 C1558 1.391 . S
C1557 C1556 1.386 . S
C1557 C1561 1.393 . S
C1558 H1550 0.950 1_556 S
C1558 C1556 1.391 . S
C1558 C1559 1.400 . S
C1559 C1558 1.400 . S
C1559 C1560 1.398 . S
C1559 C1565 1.491 1_446 S
C1560 H1551 0.950 1_445 S
C1560 C1559 1.398 . S
C1560 C1561 1.391 . S
C1561 H1549 0.950 . S
C1561 C1557 1.393 . S
C1561 C1560 1.391 . S
C1562 H1552 0.950 . S
C1562 C1563 1.386 . S
C1562 C1564 1.391 . S
C1563 C1562 1.386 . S
C1563 C1567 1.393 . S
C1564 H1553 0.950 1_554 S
C1564 C1562 1.391 . S
C1564 C1565 1.400 . S
C1565 C1559 1.491 1_664 S
C1565 C1564 1.400 . S
C1565 C1566 1.398 . S
C1566 H1554 0.950 1_665 S
C1566 C1565 1.398 . S
C1566 C1567 1.391 . S
C1567 H1555 0.950 . S
C1567 C1563 1.393 . S
C1567 C1566 1.391 . S
H1568 C1576 0.950 . S
H1569 C1581 0.950 . S
H1570 C1578 0.950 . S
H1571 C1580 0.950 . S
H1572 C1582 0.950 . S
H1573 C1584 0.950 . S
H1574 C1586 0.950 . S
H1575 C1587 0.950 . S
C1576 H1568 0.950 . S
C1576 C1577 1.386 . S
C1576 C1578 1.391 . S
C1577 C1576 1.386 . S
C1577 C1581 1.393 . S
C1578 H1570 0.950 . S
C1578 C1576 1.391 . S
C1578 C1579 1.400 . S
C1579 C1578 1.400 . S
C1579 C1580 1.398 . S
C1579 C1585 1.491 . S
C1580 H1571 0.950 . S
C1580 C1579 1.398 . S
C1580 C1581 1.391 . S
C1581 H1569 0.950 . S
C1581 C1577 1.393 . S
C1581 C1580 1.391 . S
C1582 H1572 0.950 . S
C1582 C1583 1.386 . S
C1582 C1584 1.391 . S
C1583 C1582 1.386 . S
C1583 C1587 1.393 . S
C1584 H1573 0.950 . S
C1584 C1582 1.391 . S
C1584 C1585 1.400 . S
C1585 C1579 1.491 . S
C1585 C1584 1.400 . S
C1585 C1586 1.398 . S
C1586 H1574 0.950 . S
C1586 C1585 1.398 . S
C1586 C1587 1.391 . S
C1587 H1575 0.950 . S
C1587 C1583 1.393 . S
C1587 C1586 1.391 . S
H1588 C1596 0.950 . S
H1589 C1601 0.950 . S
H1590 C1598 0.950 . S
H1591 C1600 0.950 . S
H1592 C1602 0.950 . S
H1593 C1604 0.950 . S
H1594 C1606 0.950 . S
H1595 C1607 0.950 . S
C1596 H1588 0.950 . S
C1596 C1597 1.386 . S
C1596 C1598 1.391 . S
C1597 C1596 1.386 . S
C1597 C1601 1.393 . S
C1598 H1590 0.950 . S
C1598 C1596 1.391 . S
C1598 C1599 1.400 . S
C1599 C1598 1.400 . S
C1599 C1600 1.398 . S
C1599 C1605 1.491 . S
C1600 H1591 0.950 . S
C1600 C1599 1.398 . S
C1600 C1601 1.391 . S
C1601 H1589 0.950 . S
C1601 C1597 1.393 . S
C1601 C1600 1.391 . S
C1602 H1592 0.950 . S
C1602 C1603 1.386 . S
C1602 C1604 1.391 . S
C1603 C1602 1.386 . S
C1603 C1607 1.393 . S
C1604 H1593 0.950 . S
C1604 C1602 1.391 . S
C1604 C1605 1.400 . S
C1605 C1599 1.491 . S
C1605 C1604 1.400 . S
C1605 C1606 1.398 . S
C1606 H1594 0.950 . S
C1606 C1605 1.398 . S
C1606 C1607 1.391 . S
C1607 H1595 0.950 . S
C1607 C1603 1.393 . S
C1607 C1606 1.391 . S
H1608 C1616 0.950 . S
H1609 C1621 0.950 . S
H1610 C1618 0.950 . S
H1611 C1620 0.950 . S
H1612 C1622 0.950 . S
H1613 C1624 0.950 . S
H1614 C1626 0.950 . S
H1615 C1627 0.950 . S
C1616 H1608 0.950 . S
C1616 C1617 1.386 . S
C1616 C1618 1.391 . S
C1617 C1616 1.386 . S
C1617 C1621 1.393 . S
C1618 H1610 0.950 . S
C1618 C1616 1.391 . S
C1618 C1619 1.400 . S
C1619 C1618 1.400 . S
C1619 C1620 1.398 . S
C1619 C1625 1.491 . S
C1620 H1611 0.950 . S
C1620 C1619 1.398 . S
C1620 C1621 1.391 . S
C1621 H1609 0.950 . S
C1621 C1617 1.393 . S
C1621 C1620 1.391 . S
C1622 H1612 0.950 . S
C1622 C1623 1.386 . S
C1622 C1624 1.391 . S
C1623 C1622 1.386 . S
C1623 C1627 1.393 . S
C1624 H1613 0.950 . S
C1624 C1622 1.391 . S
C1624 C1625 1.400 . S
C1625 C1619 1.491 . S
C1625 C1624 1.400 . S
C1625 C1626 1.398 . S
C1626 H1614 0.950 . S
C1626 C1625 1.398 . S
C1626 C1627 1.391 . S
C1627 H1615 0.950 . S
C1627 C1623 1.393 . S
C1627 C1626 1.391 . S
H1628 C1636 0.950 . S
H1629 C1641 0.950 . S
H1630 C1638 0.950 . S
H1631 C1640 0.950 . S
H1632 C1642 0.950 . S
H1633 C1644 0.950 . S
H1634 C1646 0.950 . S
H1635 C1647 0.950 . S
C1636 H1628 0.950 . S
C1636 C1637 1.386 . S
C1636 C1638 1.391 . S
C1637 C1636 1.386 . S
C1637 C1641 1.393 . S
C1638 H1630 0.950 . S
C1638 C1636 1.391 . S
C1638 C1639 1.400 . S
C1639 C1638 1.400 . S
C1639 C1640 1.398 . S
C1639 C1645 1.491 . S
C1640 H1631 0.950 . S
C1640 C1639 1.398 . S
C1640 C1641 1.391 . S
C1641 H1629 0.950 . S
C1641 C1637 1.393 . S
C1641 C1640 1.391 . S
C1642 H1632 0.950 . S
C1642 C1643 1.386 . S
C1642 C1644 1.391 . S
C1643 C1642 1.386 . S
C1643 C1647 1.393 . S
C1644 H1633 0.950 . S
C1644 C1642 1.391 . S
C1644 C1645 1.400 . S
C1645 C1639 1.491 . S
C1645 C1644 1.400 . S
C1645 C1646 1.398 . S
C1646 H1634 0.950 . S
C1646 C1645 1.398 . S
C1646 C1647 1.391 . S
C1647 H1635 0.950 . S
C1647 C1643 1.393 . S
C1647 C1646 1.391 . S
H1648 C1656 0.950 . S
H1649 C1661 0.950 . S
H1650 C1658 0.950 1_556 S
H1651 C1660 0.950 . S
H1652 C1662 0.950 . S
H1653 C1664 0.950 1_554 S
H1654 C1666 0.950 . S
H1655 C1667 0.950 . S
C1656 H1648 0.950 . S
C1656 C1657 1.386 . S
C1656 C1658 1.391 . S
C1657 C1656 1.386 . S
C1657 C1661 1.393 . S
C1658 H1650 0.950 1_554 S
C1658 C1656 1.391 . S
C1658 C1659 1.400 . S
C1659 C1658 1.400 . S
C1659 C1660 1.398 . S
C1659 C1665 1.491 1_554 S
C1660 H1651 0.950 . S
C1660 C1659 1.398 . S
C1660 C1661 1.391 . S
C1661 H1649 0.950 . S
C1661 C1657 1.393 . S
C1661 C1660 1.391 . S
C1662 H1652 0.950 . S
C1662 C1663 1.386 . S
C1662 C1664 1.391 . S
C1663 C1662 1.386 . S
C1663 C1667 1.393 . S
C1664 H1653 0.950 1_556 S
C1664 C1662 1.391 . S
C1664 C1665 1.400 . S
C1665 C1659 1.491 1_556 S
C1665 C1664 1.400 . S
C1665 C1666 1.398 . S
C1666 H1654 0.950 . S
C1666 C1665 1.398 . S
C1666 C1667 1.391 . S
C1667 H1655 0.950 . S
C1667 C1663 1.393 . S
C1667 C1666 1.391 . S
H1668 C1676 0.950 . S
H1669 C1681 0.950 . S
H1670 C1678 0.950 . S
H1671 C1680 0.950 1_655 S
H1672 C1682 0.950 . S
H1673 C1684 0.950 . S
H1674 C1686 0.950 1_455 S
H1675 C1687 0.950 . S
C1676 H1668 0.950 . S
C1676 C1677 1.386 . S
C1676 C1678 1.391 . S
C1677 C1676 1.386 . S
C1677 C1681 1.393 . S
C1678 H1670 0.950 . S
C1678 C1676 1.391 . S
C1678 C1679 1.400 . S
C1679 C1678 1.400 . S
C1679 C1680 1.398 . S
C1679 C1685 1.491 1_455 S
C1680 H1671 0.950 1_455 S
C1680 C1679 1.398 . S
C1680 C1681 1.391 . S
C1681 H1669 0.950 . S
C1681 C1677 1.393 . S
C1681 C1680 1.391 . S
C1682 H1672 0.950 . S
C1682 C1683 1.386 . S
C1682 C1684 1.391 . S
C1683 C1682 1.386 . S
C1683 C1687 1.393 . S
C1684 H1673 0.950 . S
C1684 C1682 1.391 . S
C1684 C1685 1.400 . S
C1685 C1679 1.491 1_655 S
C1685 C1684 1.400 . S
C1685 C1686 1.398 . S
C1686 H1674 0.950 1_655 S
C1686 C1685 1.398 . S
C1686 C1687 1.391 . S
C1687 H1675 0.950 . S
C1687 C1683 1.393 . S
C1687 C1686 1.391 . S
H1688 C1696 0.950 . S
H1689 C1701 0.950 . S
H1690 C1698 0.950 . S
H1691 C1700 0.929 1_655 S
H1692 C1702 0.950 . S
H1693 C1704 0.950 . S
H1694 C1706 0.919 1_455 S
H1695 C1707 0.950 . S
C1696 H1688 0.950 . S
C1696 C1697 1.386 . S
C1696 C1698 1.391 . S
C1697 C1696 1.386 . S
C1697 C1701 1.393 . S
C1698 H1690 0.950 . S
C1698 C1696 1.391 . S
C1698 C1699 1.400 . S
C1699 C1698 1.400 . S
C1699 C1700 1.398 . S
C1699 C1705 1.491 1_454 S
C1700 H1691 0.929 1_455 S
C1700 C1699 1.398 . S
C1700 C1701 1.391 . S
C1701 H1689 0.950 . S
C1701 C1697 1.393 . S
C1701 C1700 1.391 . S
C1702 H1692 0.950 . S
C1702 C1703 1.386 . S
C1702 C1704 1.391 . S
C1703 C1702 1.386 . S
C1703 C1707 1.393 . S
C1704 H1693 0.950 . S
C1704 C1702 1.391 . S
C1704 C1705 1.400 . S
C1705 C1699 1.491 1_656 S
C1705 C1704 1.400 . S
C1705 C1706 1.398 . S
C1706 H1694 0.919 1_655 S
C1706 C1705 1.398 . S
C1706 C1707 1.391 . S
C1707 H1695 0.950 . S
C1707 C1703 1.393 . S
C1707 C1706 1.391 . S
H1708 C1716 0.950 . S
H1709 C1721 0.950 . S
H1710 C1718 0.950 . S
H1711 C1720 0.950 . S
H1712 C1722 0.950 . S
H1713 C1724 0.950 . S
H1714 C1726 0.950 . S
H1715 C1727 0.950 . S
C1716 H1708 0.950 . S
C1716 C1717 1.386 . S
C1716 C1718 1.391 . S
C1717 C1716 1.386 . S
C1717 C1721 1.393 . S
C1718 H1710 0.950 . S
C1718 C1716 1.391 . S
C1718 C1719 1.400 . S
C1719 C1718 1.400 . S
C1719 C1720 1.398 . S
C1719 C1725 1.491 . S
C1720 H1711 0.950 . S
C1720 C1719 1.398 . S
C1720 C1721 1.391 . S
C1721 H1709 0.950 . S
C1721 C1717 1.393 . S
C1721 C1720 1.391 . S
C1722 H1712 0.950 . S
C1722 C1723 1.386 . S
C1722 C1724 1.391 . S
C1723 C1722 1.386 . S
C1723 C1727 1.393 . S
C1724 H1713 0.950 . S
C1724 C1722 1.391 . S
C1724 C1725 1.400 . S
C1725 C1719 1.491 . S
C1725 C1724 1.400 . S
C1725 C1726 1.398 . S
C1726 H1714 0.950 . S
C1726 C1725 1.398 . S
C1726 C1727 1.391 . S
C1727 H1715 0.950 . S
C1727 C1723 1.393 . S
C1727 C1726 1.391 . S
H1728 C1736 0.950 . S
H1729 C1741 0.950 . S
H1730 C1738 0.950 . S
H1731 C1740 0.950 . S
H1732 C1742 0.950 . S
H1733 C1744 0.950 . S
H1734 C1746 0.950 . S
H1735 C1747 0.950 . S
C1736 H1728 0.950 . S
C1736 C1737 1.386 . S
C1736 C1738 1.391 . S
C1737 C1736 1.386 . S
C1737 C1741 1.393 . S
C1738 H1730 0.950 . S
C1738 C1736 1.391 . S
C1738 C1739 1.400 . S
C1739 C1738 1.400 . S
C1739 C1740 1.398 . S
C1739 C1745 1.491 . S
C1740 H1731 0.950 . S
C1740 C1739 1.398 . S
C1740 C1741 1.391 . S
C1741 H1729 0.950 . S
C1741 C1737 1.393 . S
C1741 C1740 1.391 . S
C1742 H1732 0.950 . S
C1742 C1743 1.386 . S
C1742 C1744 1.391 . S
C1743 C1742 1.386 . S
C1743 C1747 1.393 . S
C1744 H1733 0.950 . S
C1744 C1742 1.391 . S
C1744 C1745 1.400 . S
C1745 C1739 1.491 . S
C1745 C1744 1.400 . S
C1745 C1746 1.398 . S
C1746 H1734 0.950 . S
C1746 C1745 1.398 . S
C1746 C1747 1.391 . S
C1747 H1735 0.950 . S
C1747 C1743 1.393 . S
C1747 C1746 1.391 . S
H1748 C1756 0.950 . S
H1749 C1761 0.950 . S
H1750 C1758 0.950 . S
H1751 C1760 0.950 . S
H1752 C1762 0.950 . S
H1753 C1764 0.950 . S
H1754 C1766 0.950 . S
H1755 C1767 0.950 . S
C1756 H1748 0.950 . S
C1756 C1757 1.386 . S
C1756 C1758 1.391 . S
C1757 C1756 1.386 . S
C1757 C1761 1.393 . S
C1758 H1750 0.950 . S
C1758 C1756 1.391 . S
C1758 C1759 1.400 . S
C1759 C1758 1.400 . S
C1759 C1760 1.398 . S
C1759 C1765 1.491 . S
C1760 H1751 0.950 . S
C1760 C1759 1.398 . S
C1760 C1761 1.391 . S
C1761 H1749 0.950 . S
C1761 C1757 1.393 . S
C1761 C1760 1.391 . S
C1762 H1752 0.950 . S
C1762 C1763 1.386 . S
C1762 C1764 1.391 . S
C1763 C1762 1.386 . S
C1763 C1767 1.393 . S
C1764 H1753 0.950 . S
C1764 C1762 1.391 . S
C1764 C1765 1.400 . S
C1765 C1759 1.491 . S
C1765 C1764 1.400 . S
C1765 C1766 1.398 . S
C1766 H1754 0.950 . S
C1766 C1765 1.398 . S
C1766 C1767 1.391 . S
C1767 H1755 0.950 . S
C1767 C1763 1.393 . S
C1767 C1766 1.391 . S
H1768 C1776 0.950 . S
H1769 C1781 0.950 . S
H1770 C1778 0.950 . S
H1771 C1780 0.950 . S
H1772 C1782 0.950 . S
H1773 C1784 0.950 . S
H1774 C1786 0.950 . S
H1775 C1787 0.950 . S
C1776 H1768 0.950 . S
C1776 C1777 1.386 . S
C1776 C1778 1.391 . S
C1777 C1776 1.386 . S
C1777 C1781 1.393 . S
C1778 H1770 0.950 . S
C1778 C1776 1.391 . S
C1778 C1779 1.400 . S
C1779 C1778 1.400 . S
C1779 C1780 1.398 . S
C1779 C1785 1.491 . S
C1780 H1771 0.950 . S
C1780 C1779 1.398 . S
C1780 C1781 1.391 . S
C1781 H1769 0.950 . S
C1781 C1777 1.393 . S
C1781 C1780 1.391 . S
C1782 H1772 0.950 . S
C1782 C1783 1.386 . S
C1782 C1784 1.391 . S
C1783 C1782 1.386 . S
C1783 C1787 1.393 . S
C1784 H1773 0.950 . S
C1784 C1782 1.391 . S
C1784 C1785 1.400 . S
C1785 C1779 1.491 . S
C1785 C1784 1.400 . S
C1785 C1786 1.398 . S
C1786 H1774 0.950 . S
C1786 C1785 1.398 . S
C1786 C1787 1.391 . S
C1787 H1775 0.950 . S
C1787 C1783 1.393 . S
C1787 C1786 1.391 . S
H1788 C1796 0.950 . S
H1789 C1801 0.950 . S
H1790 C1798 0.950 . S
H1791 C1800 0.950 . S
H1792 C1802 0.950 . S
H1793 C1804 0.950 . S
H1794 C1806 0.950 . S
H1795 C1807 0.950 . S
C1796 H1788 0.950 . S
C1796 C1797 1.386 . S
C1796 C1798 1.391 . S
C1797 C1796 1.386 . S
C1797 C1801 1.393 . S
C1798 H1790 0.950 . S
C1798 C1796 1.391 . S
C1798 C1799 1.400 . S
C1799 C1798 1.400 . S
C1799 C1800 1.398 . S
C1799 C1805 1.491 . S
C1800 H1791 0.950 . S
C1800 C1799 1.398 . S
C1800 C1801 1.391 . S
C1801 H1789 0.950 . S
C1801 C1797 1.393 . S
C1801 C1800 1.391 . S
C1802 H1792 0.950 . S
C1802 C1803 1.386 . S
C1802 C1804 1.391 . S
C1803 C1802 1.386 . S
C1803 C1807 1.393 . S
C1804 H1793 0.950 . S
C1804 C1802 1.391 . S
C1804 C1805 1.400 . S
C1805 C1799 1.491 . S
C1805 C1804 1.400 . S
C1805 C1806 1.398 . S
C1806 H1794 0.950 . S
C1806 C1805 1.398 . S
C1806 C1807 1.391 . S
C1807 H1795 0.950 . S
C1807 C1803 1.393 . S
C1807 C1806 1.391 . S
H1808 C1816 0.950 . S
H1809 C1821 0.950 . S
H1810 C1818 0.950 . S
H1811 C1820 0.950 . S
H1812 C1822 0.950 . S
H1813 C1824 0.950 . S
H1814 C1826 0.950 . S
H1815 C1827 0.950 . S
C1816 H1808 0.950 . S
C1816 C1817 1.386 . S
C1816 C1818 1.391 . S
C1817 C1816 1.386 . S
C1817 C1821 1.393 . S
C1818 H1810 0.950 . S
C1818 C1816 1.391 . S
C1818 C1819 1.400 . S
C1819 C1818 1.400 . S
C1819 C1820 1.398 . S
C1819 C1825 1.491 . S
C1820 H1811 0.950 . S
C1820 C1819 1.398 . S
C1820 C1821 1.391 . S
C1821 H1809 0.950 . S
C1821 C1817 1.393 . S
C1821 C1820 1.391 . S
C1822 H1812 0.950 . S
C1822 C1823 1.386 . S
C1822 C1824 1.391 . S
C1823 C1822 1.386 . S
C1823 C1827 1.393 . S
C1824 H1813 0.950 . S
C1824 C1822 1.391 . S
C1824 C1825 1.400 . S
C1825 C1819 1.491 . S
C1825 C1824 1.400 . S
C1825 C1826 1.398 . S
C1826 H1814 0.950 . S
C1826 C1825 1.398 . S
C1826 C1827 1.391 . S
C1827 H1815 0.950 . S
C1827 C1823 1.393 . S
C1827 C1826 1.391 . S
H1828 C1836 0.950 . S
H1829 C1841 0.950 . S
H1830 C1838 0.950 . S
H1831 C1840 0.950 . S
H1832 C1842 0.950 . S
H1833 C1844 0.950 . S
H1834 C1846 0.950 . S
H1835 C1847 0.950 . S
C1836 H1828 0.950 . S
C1836 C1837 1.386 . S
C1836 C1838 1.391 . S
C1837 C1836 1.386 . S
C1837 C1841 1.393 . S
C1838 H1830 0.950 . S
C1838 C1836 1.391 . S
C1838 C1839 1.400 . S
C1839 C1838 1.400 . S
C1839 C1840 1.398 . S
C1839 C1845 1.491 . S
C1840 H1831 0.950 . S
C1840 C1839 1.398 . S
C1840 C1841 1.391 . S
C1841 H1829 0.950 . S
C1841 C1837 1.393 . S
C1841 C1840 1.391 . S
C1842 H1832 0.950 . S
C1842 C1843 1.386 . S
C1842 C1844 1.391 . S
C1843 C1842 1.386 . S
C1843 C1847 1.393 . S
C1844 H1833 0.950 . S
C1844 C1842 1.391 . S
C1844 C1845 1.400 . S
C1845 C1839 1.491 . S
C1845 C1844 1.400 . S
C1845 C1846 1.398 . S
C1846 H1834 0.950 . S
C1846 C1845 1.398 . S
C1846 C1847 1.391 . S
C1847 H1835 0.950 . S
C1847 C1843 1.393 . S
C1847 C1846 1.391 . S
H1848 C1856 0.950 . S
H1849 C1861 0.950 . S
H1850 C1858 0.950 . S
H1851 C1860 0.950 . S
H1852 C1862 0.950 . S
H1853 C1864 0.950 . S
H1854 C1866 0.950 . S
H1855 C1867 0.950 . S
C1856 H1848 0.950 . S
C1856 C1857 1.386 . S
C1856 C1858 1.391 . S
C1857 C1856 1.386 . S
C1857 C1861 1.393 . S
C1858 H1850 0.950 . S
C1858 C1856 1.391 . S
C1858 C1859 1.400 . S
C1859 C1858 1.400 . S
C1859 C1860 1.398 . S
C1859 C1865 1.491 . S
C1860 H1851 0.950 . S
C1860 C1859 1.398 . S
C1860 C1861 1.391 . S
C1861 H1849 0.950 . S
C1861 C1857 1.393 . S
C1861 C1860 1.391 . S
C1862 H1852 0.950 . S
C1862 C1863 1.386 . S
C1862 C1864 1.391 . S
C1863 C1862 1.386 . S
C1863 C1867 1.393 . S
C1864 H1853 0.950 . S
C1864 C1862 1.391 . S
C1864 C1865 1.400 . S
C1865 C1859 1.491 . S
C1865 C1864 1.400 . S
C1865 C1866 1.398 . S
C1866 H1854 0.950 . S
C1866 C1865 1.398 . S
C1866 C1867 1.391 . S
C1867 H1855 0.950 . S
C1867 C1863 1.393 . S
C1867 C1866 1.391 . S
H1868 C1876 0.950 . S
H1869 C1881 0.950 . S
H1870 C1878 0.950 . S
H1871 C1880 0.950 . S
H1872 C1882 0.950 . S
H1873 C1884 0.950 . S
H1874 C1886 0.950 . S
H1875 C1887 0.950 . S
C1876 H1868 0.950 . S
C1876 C1877 1.386 . S
C1876 C1878 1.391 . S
C1877 C1876 1.386 . S
C1877 C1881 1.393 . S
C1878 H1870 0.950 . S
C1878 C1876 1.391 . S
C1878 C1879 1.400 . S
C1879 C1878 1.400 . S
C1879 C1880 1.398 . S
C1879 C1885 1.491 . S
C1880 H1871 0.950 . S
C1880 C1879 1.398 . S
C1880 C1881 1.391 . S
C1881 H1869 0.950 . S
C1881 C1877 1.393 . S
C1881 C1880 1.391 . S
C1882 H1872 0.950 . S
C1882 C1883 1.386 . S
C1882 C1884 1.391 . S
C1883 C1882 1.386 . S
C1883 C1887 1.393 . S
C1884 H1873 0.950 . S
C1884 C1882 1.391 . S
C1884 C1885 1.400 . S
C1885 C1879 1.491 . S
C1885 C1884 1.400 . S
C1885 C1886 1.398 . S
C1886 H1874 0.950 . S
C1886 C1885 1.398 . S
C1886 C1887 1.391 . S
C1887 H1875 0.950 . S
C1887 C1883 1.393 . S
C1887 C1886 1.391 . S
H1888 C1896 0.950 . S
H1889 C1901 0.950 . S
H1890 C1898 0.950 . S
H1891 C1900 0.950 . S
H1892 C1902 0.950 . S
H1893 C1904 0.950 . S
H1894 C1906 0.950 . S
H1895 C1907 0.950 . S
C1896 H1888 0.950 . S
C1896 C1897 1.386 . S
C1896 C1898 1.391 . S
C1897 C1896 1.386 . S
C1897 C1901 1.393 . S
C1898 H1890 0.950 . S
C1898 C1896 1.391 . S
C1898 C1899 1.400 . S
C1899 C1898 1.400 . S
C1899 C1900 1.398 . S
C1899 C1905 1.491 . S
C1900 H1891 0.950 . S
C1900 C1899 1.398 . S
C1900 C1901 1.391 . S
C1901 H1889 0.950 . S
C1901 C1897 1.393 . S
C1901 C1900 1.391 . S
C1902 H1892 0.950 . S
C1902 C1903 1.386 . S
C1902 C1904 1.391 . S
C1903 C1902 1.386 . S
C1903 C1907 1.393 . S
C1904 H1893 0.950 . S
C1904 C1902 1.391 . S
C1904 C1905 1.400 . S
C1905 C1899 1.491 . S
C1905 C1904 1.400 . S
C1905 C1906 1.398 . S
C1906 H1894 0.950 . S
C1906 C1905 1.398 . S
C1906 C1907 1.391 . S
C1907 H1895 0.950 . S
C1907 C1903 1.393 . S
C1907 C1906 1.391 . S
H1908 C1916 0.950 . S
H1909 C1921 0.950 . S
H1910 C1918 0.950 . S
H1911 C1920 0.950 . S
H1912 C1922 0.950 . S
H1913 C1924 0.950 . S
H1914 C1926 0.950 . S
H1915 C1927 0.950 . S
C1916 H1908 0.950 . S
C1916 C1917 1.386 . S
C1916 C1918 1.391 . S
C1917 C1916 1.386 . S
C1917 C1921 1.393 . S
C1918 H1910 0.950 . S
C1918 C1916 1.391 . S
C1918 C1919 1.400 . S
C1919 C1918 1.400 . S
C1919 C1920 1.398 . S
C1919 C1925 1.491 . S
C1920 H1911 0.950 . S
C1920 C1919 1.398 . S
C1920 C1921 1.391 . S
C1921 H1909 0.950 . S
C1921 C1917 1.393 . S
C1921 C1920 1.391 . S
C1922 H1912 0.950 . S
C1922 C1923 1.386 . S
C1922 C1924 1.391 . S
C1923 C1922 1.386 . S
C1923 C1927 1.393 . S
C1924 H1913 0.950 . S
C1924 C1922 1.391 . S
C1924 C1925 1.400 . S
C1925 C1919 1.491 . S
C1925 C1924 1.400 . S
C1925 C1926 1.398 . S
C1926 H1914 0.950 . S
C1926 C1925 1.398 . S
C1926 C1927 1.391 . S
C1927 H1915 0.950 . S
C1927 C1923 1.393 . S
C1927 C1926 1.391 . S
H1928 C1936 0.950 . S
H1929 C1941 0.950 . S
H1930 C1938 0.950 . S
H1931 C1940 0.950 . S
H1932 C1942 0.950 . S
H1933 C1944 0.950 . S
H1934 C1946 0.950 . S
H1935 C1947 0.950 . S
C1936 H1928 0.950 . S
C1936 C1937 1.386 . S
C1936 C1938 1.391 . S
C1937 C1936 1.386 . S
C1937 C1941 1.393 . S
C1938 H1930 0.950 . S
C1938 C1936 1.391 . S
C1938 C1939 1.400 . S
C1939 C1938 1.400 . S
C1939 C1940 1.398 . S
C1939 C1945 1.491 . S
C1940 H1931 0.950 . S
C1940 C1939 1.398 . S
C1940 C1941 1.391 . S
C1941 H1929 0.950 . S
C1941 C1937 1.393 . S
C1941 C1940 1.391 . S
C1942 H1932 0.950 . S
C1942 C1943 1.386 . S
C1942 C1944 1.391 . S
C1943 C1942 1.386 . S
C1943 C1947 1.393 . S
C1944 H1933 0.950 . S
C1944 C1942 1.391 . S
C1944 C1945 1.400 . S
C1945 C1939 1.491 . S
C1945 C1944 1.400 . S
C1945 C1946 1.398 . S
C1946 H1934 0.950 . S
C1946 C1945 1.398 . S
C1946 C1947 1.391 . S
C1947 H1935 0.950 . S
C1947 C1943 1.393 . S
C1947 C1946 1.391 . S
H1948 C1956 0.950 . S
H1949 C1961 0.950 . S
H1950 C1958 0.950 . S
H1951 C1960 0.950 . S
H1952 C1962 0.950 . S
H1953 C1964 0.950 . S
H1954 C1966 0.950 . S
H1955 C1967 0.950 . S
C1956 H1948 0.950 . S
C1956 C1957 1.386 . S
C1956 C1958 1.391 . S
C1957 C1956 1.386 . S
C1957 C1961 1.393 . S
C1958 H1950 0.950 . S
C1958 C1956 1.391 . S
C1958 C1959 1.400 . S
C1959 C1958 1.400 . S
C1959 C1960 1.398 . S
C1959 C1965 1.491 . S
C1960 H1951 0.950 . S
C1960 C1959 1.398 . S
C1960 C1961 1.391 . S
C1961 H1949 0.950 . S
C1961 C1957 1.393 . S
C1961 C1960 1.391 . S
C1962 H1952 0.950 . S
C1962 C1963 1.386 . S
C1962 C1964 1.391 . S
C1963 C1962 1.386 . S
C1963 C1967 1.393 . S
C1964 H1953 0.950 . S
C1964 C1962 1.391 . S
C1964 C1965 1.400 . S
C1965 C1959 1.491 . S
C1965 C1964 1.400 . S
C1965 C1966 1.398 . S
C1966 H1954 0.950 . S
C1966 C1965 1.398 . S
C1966 C1967 1.391 . S
C1967 H1955 0.950 . S
C1967 C1963 1.393 . S
C1967 C1966 1.391 . S
H1968 C1976 0.950 . S
H1969 C1981 0.950 . S
H1970 C1978 0.950 . S
H1971 C1980 0.950 . S
H1972 C1982 0.950 . S
H1973 C1984 0.950 . S
H1974 C1986 0.950 . S
H1975 C1987 0.950 . S
C1976 H1968 0.950 . S
C1976 C1977 1.386 . S
C1976 C1978 1.391 . S
C1977 C1976 1.386 . S
C1977 C1981 1.393 . S
C1978 H1970 0.950 . S
C1978 C1976 1.391 . S
C1978 C1979 1.400 . S
C1979 C1978 1.400 . S
C1979 C1980 1.398 . S
C1979 C1985 1.491 . S
C1980 H1971 0.950 . S
C1980 C1979 1.398 . S
C1980 C1981 1.391 . S
C1981 H1969 0.950 . S
C1981 C1977 1.393 . S
C1981 C1980 1.391 . S
C1982 H1972 0.950 . S
C1982 C1983 1.386 . S
C1982 C1984 1.391 . S
C1983 C1982 1.386 . S
C1983 C1987 1.393 . S
C1984 H1973 0.950 . S
C1984 C1982 1.391 . S
C1984 C1985 1.400 . S
C1985 C1979 1.491 . S
C1985 C1984 1.400 . S
C1985 C1986 1.398 . S
C1986 H1974 0.950 . S
C1986 C1985 1.398 . S
C1986 C1987 1.391 . S
C1987 H1975 0.950 . S
C1987 C1983 1.393 . S
C1987 C1986 1.391 . S
H1988 C1996 0.950 . S
H1989 C2001 0.950 . S
H1990 C1998 0.950 . S
H1991 C2000 0.950 . S
H1992 C2002 0.950 . S
H1993 C2004 0.950 . S
H1994 C2006 0.950 . S
H1995 C2007 0.950 . S
C1996 H1988 0.950 . S
C1996 C1997 1.386 . S
C1996 C1998 1.391 . S
C1997 C1996 1.386 . S
C1997 C2001 1.393 . S
C1998 H1990 0.950 . S
C1998 C1996 1.391 . S
C1998 C1999 1.400 . S
C1999 C1998 1.400 . S
C1999 C2000 1.398 . S
C1999 C2005 1.491 . S
C2000 H1991 0.950 . S
C2000 C1999 1.398 . S
C2000 C2001 1.391 . S
C2001 H1989 0.950 . S
C2001 C1997 1.393 . S
C2001 C2000 1.391 . S
C2002 H1992 0.950 . S
C2002 C2003 1.386 . S
C2002 C2004 1.391 . S
C2003 C2002 1.386 . S
C2003 C2007 1.393 . S
C2004 H1993 0.950 . S
C2004 C2002 1.391 . S
C2004 C2005 1.400 . S
C2005 C1999 1.491 . S
C2005 C2004 1.400 . S
C2005 C2006 1.398 . S
C2006 H1994 0.950 . S
C2006 C2005 1.398 . S
C2006 C2007 1.391 . S
C2007 H1995 0.950 . S
C2007 C2003 1.393 . S
C2007 C2006 1.391 . S
H2008 C2016 0.950 . S
H2009 C2021 0.950 . S
H2010 C2018 0.950 . S
H2011 C2020 0.950 . S
H2012 C2022 0.950 . S
H2013 C2024 0.950 . S
H2014 C2026 0.950 . S
H2015 C2027 0.950 . S
C2016 H2008 0.950 . S
C2016 C2017 1.386 . S
C2016 C2018 1.391 . S
C2017 C2016 1.386 . S
C2017 C2021 1.393 . S
C2018 H2010 0.950 . S
C2018 C2016 1.391 . S
C2018 C2019 1.400 . S
C2019 C2018 1.400 . S
C2019 C2020 1.398 . S
C2019 C2025 1.491 . S
C2020 H2011 0.950 . S
C2020 C2019 1.398 . S
C2020 C2021 1.391 . S
C2021 H2009 0.950 . S
C2021 C2017 1.393 . S
C2021 C2020 1.391 . S
C2022 H2012 0.950 . S
C2022 C2023 1.386 . S
C2022 C2024 1.391 . S
C2023 C2022 1.386 . S
C2023 C2027 1.393 . S
C2024 H2013 0.950 . S
C2024 C2022 1.391 . S
C2024 C2025 1.400 . S
C2025 C2019 1.491 . S
C2025 C2024 1.400 . S
C2025 C2026 1.398 . S
C2026 H2014 0.950 . S
C2026 C2025 1.398 . S
C2026 C2027 1.391 . S
C2027 H2015 0.950 . S
C2027 C2023 1.393 . S
C2027 C2026 1.391 . S
H2028 C2036 0.950 . S
H2029 C2041 0.950 . S
H2030 C2038 0.950 . S
H2031 C2040 0.950 . S
H2032 C2042 0.950 . S
H2033 C2044 0.950 . S
H2034 C2046 0.950 . S
H2035 C2047 0.950 . S
C2036 H2028 0.950 . S
C2036 C2037 1.386 . S
C2036 C2038 1.391 . S
C2037 C2036 1.386 . S
C2037 C2041 1.393 . S
C2038 H2030 0.950 . S
C2038 C2036 1.391 . S
C2038 C2039 1.400 . S
C2039 C2038 1.400 . S
C2039 C2040 1.398 . S
C2039 C2045 1.491 . S
C2040 H2031 0.950 . S
C2040 C2039 1.398 . S
C2040 C2041 1.391 . S
C2041 H2029 0.950 . S
C2041 C2037 1.393 . S
C2041 C2040 1.391 . S
C2042 H2032 0.950 . S
C2042 C2043 1.386 . S
C2042 C2044 1.391 . S
C2043 C2042 1.386 . S
C2043 C2047 1.393 . S
C2044 H2033 0.950 . S
C2044 C2042 1.391 . S
C2044 C2045 1.400 . S
C2045 C2039 1.491 . S
C2045 C2044 1.400 . S
C2045 C2046 1.398 . S
C2046 H2034 0.950 . S
C2046 C2045 1.398 . S
C2046 C2047 1.391 . S
C2047 H2035 0.950 . S
C2047 C2043 1.393 . S
C2047 C2046 1.391 . S
C1417 C57 1.103 . S
C1423 C1113 1.100 . S
C1437 C117 1.076 . S
C1443 C489 1.075 . S
C1457 C205 1.093 . S
C1463 C1289 1.096 . S
C1477 C665 1.095 . S
C1483 C313 1.095 . S
C1497 C1252 1.094 . S
C1503 C196 1.093 . S
C1517 C645 1.090 . S
C1523 C321 1.092 . S
C1537 C1076 1.096 . S
C1543 C49 1.098 . S
C1557 C469 1.106 . S
C1563 C108 1.106 . S
C1577 C409 1.096 . S
C1583 C761 1.100 . S
C1597 C577 1.075 . S
C1603 C909 1.073 . S
C1617 C900 1.108 . S
C1623 C557 1.109 . S
C1637 C372 1.099 . S
C1643 C753 1.098 . S
C1657 C1201 1.110 . S
C1663 C841 1.110 . S
C1677 C1025 1.077 . S
C1683 C1377 1.076 . S
C1697 C1017 1.089 . S
C1703 C1340 1.089 . S
C1717 C849 1.078 . S
C1723 C1164 1.077 . S
C1737 C997 1.651 . S
C1743 C20 1.645 . S
C1757 C733 1.637 . S
C1763 C137 1.648 . S
C1777 C225 1.652 . S
C1783 C812 1.653 . S
C1797 C937 1.652 . S
C1803 C293 1.649 . S
C1817 C988 1.636 . S
C1823 C233 1.638 . S
C1837 C284 1.637 . S
C1843 C724 1.641 . S
C1857 C821 1.653 . S
C1863 C29 1.653 . S
C1877 C929 1.646 . S
C1883 C145 1.644 . S
C1897 C401 1.653 . S
C1903 C1349 1.649 . S
C1917 C1085 1.647 . S
C1923 C497 1.637 . S
C1937 C585 1.640 . S
C1943 C1173 1.644 . S
C1957 C673 1.643 . S
C1963 C1261 1.651 . S
C1977 C548 1.655 . S
C1983 C1369 1.657 . S
C1997 C1105 1.650 . S
C2003 C636 1.648 . S
C2017 C1193 1.640 . S
C2023 C381 1.642 . S
C2037 C1281 1.650 . S
C2043 C460 1.652 . S
