# Generated by pormake.
# Topology uku, (4)-cn, num edge types: 1
# Building blocks:
#     Node 0, Type 0, BuildingBlock: QUQFOY_clean_sbu_1, # of connection points: 4
#     Node 1, Type 0, BuildingBlock: QUQFOY_clean_sbu_1, # of connection points: 4
#     Node 2, Type 0, BuildingBlock: QUQFOY_clean_sbu_1, # of connection points: 4
#     Node 3, Type 0, BuildingBlock: QUQFOY_clean_sbu_1, # of connection points: 4
#     Node 4, Type 0, BuildingBlock: QUQFOY_clean_sbu_1, # of connection points: 4
#     Node 5, Type 0, BuildingBlock: QUQFOY_clean_sbu_1, # of connection points: 4
#     Node 6, Type 0, BuildingBlock: QUQFOY_clean_sbu_1, # of connection points: 4
#     Node 7, Type 0, BuildingBlock: QUQFOY_clean_sbu_1, # of connection points: 4
#     Node 8, Type 0, BuildingBlock: QUQFOY_clean_sbu_1, # of connection points: 4
#     Node 9, Type 0, BuildingBlock: QUQFOY_clean_sbu_1, # of connection points: 4
#     Node 10, Type 0, BuildingBlock: QUQFOY_clean_sbu_1, # of connection points: 4
#     Node 11, Type 0, BuildingBlock: QUQFOY_clean_sbu_1, # of connection points: 4
#     Edge 12, Type (0, 0), BuildingBlock: EYOCIG_clean_linker_4, # of connection points: 2
#     Edge 13, Type (0, 0), BuildingBlock: EYOCIG_clean_linker_4, # of connection points: 2
#     Edge 14, Type (0, 0), BuildingBlock: EYOCIG_clean_linker_4, # of connection points: 2
#     Edge 15, Type (0, 0), BuildingBlock: EYOCIG_clean_linker_4, # of connection points: 2
#     Edge 16, Type (0, 0), BuildingBlock: EYOCIG_clean_linker_4, # of connection points: 2
#     Edge 17, Type (0, 0), BuildingBlock: EYOCIG_clean_linker_4, # of connection points: 2
#     Edge 18, Type (0, 0), BuildingBlock: EYOCIG_clean_linker_4, # of connection points: 2
#     Edge 19, Type (0, 0), BuildingBlock: EYOCIG_clean_linker_4, # of connection points: 2
#     Edge 20, Type (0, 0), BuildingBlock: EYOCIG_clean_linker_4, # of connection points: 2
#     Edge 21, Type (0, 0), BuildingBlock: EYOCIG_clean_linker_4, # of connection points: 2
#     Edge 22, Type (0, 0), BuildingBlock: EYOCIG_clean_linker_4, # of connection points: 2
#     Edge 23, Type (0, 0), BuildingBlock: EYOCIG_clean_linker_4, # of connection points: 2
#     Edge 24, Type (0, 0), BuildingBlock: EYOCIG_clean_linker_4, # of connection points: 2
#     Edge 25, Type (0, 0), BuildingBlock: EYOCIG_clean_linker_4, # of connection points: 2
#     Edge 26, Type (0, 0), BuildingBlock: EYOCIG_clean_linker_4, # of connection points: 2
#     Edge 27, Type (0, 0), BuildingBlock: EYOCIG_clean_linker_4, # of connection points: 2
#     Edge 28, Type (0, 0), BuildingBlock: EYOCIG_clean_linker_4, # of connection points: 2
#     Edge 29, Type (0, 0), BuildingBlock: EYOCIG_clean_linker_4, # of connection points: 2
#     Edge 30, Type (0, 0), BuildingBlock: EYOCIG_clean_linker_4, # of connection points: 2
#     Edge 31, Type (0, 0), BuildingBlock: EYOCIG_clean_linker_4, # of connection points: 2
#     Edge 32, Type (0, 0), BuildingBlock: EYOCIG_clean_linker_4, # of connection points: 2
#     Edge 33, Type (0, 0), BuildingBlock: EYOCIG_clean_linker_4, # of connection points: 2
#     Edge 34, Type (0, 0), BuildingBlock: EYOCIG_clean_linker_4, # of connection points: 2
#     Edge 35, Type (0, 0), BuildingBlock: EYOCIG_clean_linker_4, # of connection points: 2
# Relax obj value: 0.260
# Max RMSD: 0.220
# Mean RMSD: 0.220
data_MOF--net-uku--node1-QUQFOY_clean_sbu_1--edge1-EYOCIG_clean_linker_4
_symmetry_space_group_name_H-M    P1
_symmetry_Int_Tables_number       1
_symmetry_cell_setting            triclinic
loop_
_symmetry_equiv_pos_as_xyz
'x, y, z'
_cell_length_a     35.226497
_cell_length_b     35.222518
_cell_length_c     35.208022
_cell_angle_alpha  90.00108
_cell_angle_beta   89.974116
_cell_angle_gamma 89.995082
loop_
_atom_site_label
_atom_site_type_symbol
_atom_site_fract_x
_atom_site_fract_y
_atom_site_fract_z
_atom_type_partial_charge
O0 O 0.06056 0.07421 0.64824 0.0
Cd1 Cd 0.08969 0.11625 0.62003 0.0
Cd2 Cd 0.08593 0.14729 0.68861 0.0
O3 O 0.04483 0.10681 0.69951 0.0
O4 O 0.07528 0.10981 0.5656 0.0
O5 O 0.05887 0.16006 0.59995 0.0
C6 C 0.05657 0.14115 0.56859 0.0
C7 C 0.08117 0.21023 0.70844 0.0
C8 C 0.04272 0.07694 0.67941 0.0
C9 C 0.16147 0.11687 0.66103 0.0
O10 O 0.14062 0.12691 0.68862 0.0
O11 O 0.14815 0.1147 0.62754 0.0
O12 O 0.08614 0.18307 0.73237 0.0
O13 O 0.0767 0.20182 0.67304 0.0
O14 O 0.93284 0.91961 0.64828 0.0
Cd15 Cd 0.90374 0.87755 0.6201 0.0
Cd16 Cd 0.90744 0.84656 0.68871 0.0
O17 O 0.94852 0.88706 0.69958 0.0
O18 O 0.91819 0.88397 0.56566 0.0
O19 O 0.93458 0.83374 0.60003 0.0
C20 C 0.93689 0.85264 0.56866 0.0
C21 C 0.91219 0.78365 0.70862 0.0
C22 C 0.95065 0.91692 0.67947 0.0
C23 C 0.83192 0.87695 0.6611 0.0
O24 O 0.85275 0.86693 0.6887 0.0
O25 O 0.84527 0.87909 0.6276 0.0
O26 O 0.90718 0.81084 0.73252 0.0
O27 O 0.9167 0.79201 0.67322 0.0
O28 O 0.0608 0.91964 0.34571 0.0
Cd29 Cd 0.08996 0.87757 0.37383 0.0
Cd30 Cd 0.08613 0.84658 0.30523 0.0
O31 O 0.04501 0.88706 0.29446 0.0
O32 O 0.0756 0.88398 0.42829 0.0
O33 O 0.05916 0.83376 0.39393 0.0
C34 C 0.05689 0.85265 0.4253 0.0
C35 C 0.08135 0.78368 0.2853 0.0
C36 C 0.04292 0.91693 0.31457 0.0
C37 C 0.1617 0.87697 0.33269 0.0
O38 O 0.14082 0.86695 0.30514 0.0
O39 O 0.14842 0.87912 0.36621 0.0
O40 O 0.08631 0.81087 0.26141 0.0
O41 O 0.07691 0.79201 0.32072 0.0
O42 O 0.93271 0.07415 0.34573 0.0
Cd43 Cd 0.90353 0.1162 0.37387 0.0
Cd44 Cd 0.90735 0.14719 0.30526 0.0
O45 O 0.9485 0.10673 0.29446 0.0
O46 O 0.91789 0.1098 0.42832 0.0
O47 O 0.93432 0.16003 0.39395 0.0
C48 C 0.93659 0.14113 0.42532 0.0
C49 C 0.9121 0.21009 0.28531 0.0
C50 C 0.9506 0.07686 0.31458 0.0
C51 C 0.8318 0.11676 0.33278 0.0
O52 O 0.85268 0.12679 0.30521 0.0
O53 O 0.84508 0.11463 0.36629 0.0
O54 O 0.90716 0.18289 0.26143 0.0
O55 O 0.91654 0.20176 0.32073 0.0
O56 O 0.64806 0.06065 0.07426 0.0
Cd57 Cd 0.6199 0.08979 0.11634 0.0
Cd58 Cd 0.68846 0.08596 0.14734 0.0
O59 O 0.69928 0.04484 0.10685 0.0
O60 O 0.56548 0.07545 0.10986 0.0
O61 O 0.59974 0.05897 0.16013 0.0
C62 C 0.56842 0.05672 0.14119 0.0
C63 C 0.70833 0.08121 0.21028 0.0
C64 C 0.67919 0.04276 0.07697 0.0
C65 C 0.66099 0.16154 0.11692 0.0
O66 O 0.68854 0.14064 0.12694 0.0
O67 O 0.62749 0.14826 0.11479 0.0
O68 O 0.73223 0.08615 0.18307 0.0
O69 O 0.67294 0.07676 0.20193 0.0
O70 O 0.3455 0.93303 0.07404 0.0
Cd71 Cd 0.3736 0.90382 0.11608 0.0
Cd72 Cd 0.30506 0.90771 0.14714 0.0
O73 O 0.2943 0.94888 0.10668 0.0
O74 O 0.42804 0.91814 0.10967 0.0
O75 O 0.3937 0.93458 0.15993 0.0
C76 C 0.42506 0.93683 0.14102 0.0
C77 C 0.28519 0.91246 0.21009 0.0
C78 C 0.31439 0.95096 0.07678 0.0
C79 C 0.33243 0.83212 0.11664 0.0
O80 O 0.3049 0.85304 0.1267 0.0
O81 O 0.36594 0.84536 0.11449 0.0
O82 O 0.26128 0.90756 0.18291 0.0
O83 O 0.32058 0.91686 0.20171 0.0
O84 O 0.6479 0.93294 0.91954 0.0
Cd85 Cd 0.61973 0.90383 0.87746 0.0
Cd86 Cd 0.6883 0.90758 0.84642 0.0
O87 O 0.69917 0.94865 0.88694 0.0
O88 O 0.56532 0.91827 0.8839 0.0
O89 O 0.59969 0.93467 0.83364 0.0
C90 C 0.56834 0.93698 0.85256 0.0
C91 C 0.70825 0.91236 0.78349 0.0
C92 C 0.67907 0.95076 0.91683 0.0
C93 C 0.66074 0.83203 0.87684 0.0
O94 O 0.68831 0.85288 0.86679 0.0
O95 O 0.62726 0.84535 0.87901 0.0
O96 O 0.73211 0.90735 0.8107 0.0
O97 O 0.67285 0.91685 0.79184 0.0
O98 O 0.34551 0.06104 0.91941 0.0
Cd99 Cd 0.37365 0.09016 0.87729 0.0
Cd100 Cd 0.30508 0.08629 0.8463 0.0
O101 O 0.2943 0.04519 0.88684 0.0
O102 O 0.42807 0.07581 0.88373 0.0
O103 O 0.39376 0.05929 0.83351 0.0
C104 C 0.42511 0.05705 0.85242 0.0
C105 C 0.28512 0.08147 0.7834 0.0
C106 C 0.31439 0.04314 0.91672 0.0
C107 C 0.33253 0.16189 0.87665 0.0
O108 O 0.30499 0.14098 0.86665 0.0
O109 O 0.36603 0.14862 0.87878 0.0
O110 O 0.26126 0.08643 0.81063 0.0
O111 O 0.32052 0.07704 0.79171 0.0
O112 O 0.07387 0.64834 0.06073 0.0
Cd113 Cd 0.11597 0.6202 0.0898 0.0
Cd114 Cd 0.14692 0.6888 0.08597 0.0
O115 O 0.10638 0.69962 0.04491 0.0
O116 O 0.10954 0.56577 0.07543 0.0
O117 O 0.15974 0.60012 0.05889 0.0
C118 C 0.14085 0.56876 0.05665 0.0
C119 C 0.20982 0.70871 0.08112 0.0
C120 C 0.07653 0.6795 0.04286 0.0
C121 C 0.11664 0.66125 0.16161 0.0
O122 O 0.12662 0.68882 0.14071 0.0
O123 O 0.1145 0.62776 0.1483 0.0
O124 O 0.18263 0.7326 0.08613 0.0
O125 O 0.20147 0.67332 0.07666 0.0
O126 O 0.07402 0.34573 0.9328 0.0
Cd127 Cd 0.11605 0.37391 0.90362 0.0
Cd128 Cd 0.1471 0.30533 0.90742 0.0
O129 O 0.10662 0.2945 0.94856 0.0
O130 O 0.10956 0.42833 0.91799 0.0
O131 O 0.15983 0.39405 0.93442 0.0
C132 C 0.14089 0.42539 0.93669 0.0
C133 C 0.21 0.28542 0.91214 0.0
C134 C 0.07674 0.31458 0.95068 0.0
C135 C 0.11666 0.33283 0.83184 0.0
O136 O 0.12672 0.30528 0.85272 0.0
O137 O 0.1145 0.36632 0.84513 0.0
O138 O 0.18281 0.26154 0.90719 0.0
O139 O 0.20166 0.32082 0.91661 0.0
O140 O 0.91915 0.64826 0.9331 0.0
Cd141 Cd 0.87714 0.62007 0.90393 0.0
Cd142 Cd 0.8461 0.68864 0.90773 0.0
O143 O 0.88655 0.6995 0.94886 0.0
O144 O 0.88365 0.56565 0.91829 0.0
O145 O 0.83336 0.5999 0.93475 0.0
C146 C 0.85231 0.56858 0.93701 0.0
C147 C 0.78318 0.70853 0.91246 0.0
C148 C 0.91642 0.67941 0.95096 0.0
C149 C 0.87658 0.66114 0.83214 0.0
O150 O 0.86652 0.6887 0.85303 0.0
O151 O 0.87873 0.62765 0.84545 0.0
O152 O 0.81036 0.73243 0.9075 0.0
O153 O 0.79154 0.67314 0.91693 0.0
O154 O 0.91936 0.34555 0.06074 0.0
Cd155 Cd 0.87727 0.37365 0.08991 0.0
Cd156 Cd 0.84634 0.30504 0.08607 0.0
O157 O 0.88685 0.29428 0.04493 0.0
O158 O 0.88368 0.4281 0.07558 0.0
O159 O 0.83348 0.39376 0.05909 0.0
C160 C 0.85237 0.42512 0.05685 0.0
C161 C 0.78345 0.28509 0.08131 0.0
C162 C 0.91669 0.31441 0.04285 0.0
C163 C 0.87667 0.33254 0.16168 0.0
O164 O 0.86669 0.30498 0.14078 0.0
O165 O 0.87879 0.36605 0.1484 0.0
O166 O 0.81066 0.26121 0.08625 0.0
O167 O 0.79177 0.32049 0.07686 0.0
C168 C 0.98375 0.15756 0.48144 0.0
C169 C 0.96283 0.152 0.45478 0.0
C170 C 0.00939 0.15756 0.51248 0.0
C171 C 0.03032 0.152 0.53914 0.0
C172 C 0.00974 0.83622 0.48147 0.0
C173 C 0.03065 0.84178 0.45479 0.0
C174 C 0.98409 0.83621 0.51253 0.0
C175 C 0.96316 0.84177 0.5392 0.0
C176 C 0.48121 0.98394 0.15749 0.0
C177 C 0.45454 0.96305 0.1519 0.0
C178 C 0.51226 0.00956 0.15753 0.0
C179 C 0.53893 0.03047 0.15201 0.0
C180 C 0.51226 0.98418 0.83611 0.0
C181 C 0.5389 0.96325 0.84168 0.0
C182 C 0.48123 0.00984 0.83608 0.0
C183 C 0.45457 0.03078 0.84161 0.0
C184 C 0.15725 0.48156 0.98383 0.0
C185 C 0.15172 0.45488 0.96293 0.0
C186 C 0.15724 0.51262 0.00947 0.0
C187 C 0.15169 0.53928 0.03039 0.0
C188 C 0.83594 0.51238 0.98413 0.0
C189 C 0.84147 0.53907 0.96323 0.0
C190 C 0.83595 0.4813 0.00974 0.0
C191 C 0.84151 0.45462 0.03063 0.0
C192 C 0.22789 0.09634 0.68688 0.0
C193 C 0.19939 0.1047 0.66979 0.0
C194 C 0.25489 0.08811 0.71543 0.0
C195 C 0.27224 0.08424 0.74474 0.0
C196 C 0.73847 0.90571 0.7155 0.0
C197 C 0.72112 0.90958 0.74482 0.0
C198 C 0.76548 0.89747 0.68693 0.0
C199 C 0.79399 0.88912 0.66984 0.0
C200 C 0.25505 0.90576 0.27812 0.0
C201 C 0.27236 0.90964 0.24877 0.0
C202 C 0.22809 0.89751 0.30673 0.0
C203 C 0.19961 0.88914 0.32387 0.0
C204 C 0.73847 0.08792 0.27828 0.0
C205 C 0.72116 0.08403 0.24895 0.0
C206 C 0.76543 0.09619 0.30687 0.0
C207 C 0.7939 0.10457 0.32398 0.0
C208 C 0.68693 0.22791 0.09632 0.0
C209 C 0.66981 0.19944 0.10471 0.0
C210 C 0.7155 0.25488 0.08804 0.0
C211 C 0.74481 0.27221 0.08414 0.0
C212 C 0.2778 0.73886 0.08777 0.0
C213 C 0.24847 0.72155 0.0839 0.0
C214 C 0.30641 0.76579 0.09603 0.0
C215 C 0.32356 0.79424 0.10442 0.0
C216 C 0.7152 0.73868 0.90572 0.0
C217 C 0.74452 0.72137 0.90963 0.0
C218 C 0.68662 0.76564 0.89743 0.0
C219 C 0.66952 0.79412 0.88905 0.0
C220 C 0.30657 0.22829 0.89717 0.0
C221 C 0.3237 0.19981 0.88881 0.0
C222 C 0.27798 0.25525 0.90543 0.0
C223 C 0.24866 0.27257 0.90932 0.0
C224 C 0.08798 0.71571 0.25509 0.0
C225 C 0.08412 0.74502 0.27243 0.0
C226 C 0.09619 0.68713 0.22808 0.0
C227 C 0.10452 0.67003 0.19957 0.0
C228 C 0.08785 0.27825 0.73851 0.0
C229 C 0.08396 0.2489 0.72123 0.0
C230 C 0.0961 0.30687 0.76545 0.0
C231 C 0.10447 0.32401 0.79392 0.0
C232 C 0.89719 0.68707 0.76574 0.0
C233 C 0.8888 0.66995 0.79422 0.0
C234 C 0.90548 0.71567 0.73878 0.0
C235 C 0.90938 0.74499 0.72146 0.0
C236 C 0.90541 0.27805 0.2551 0.0
C237 C 0.90929 0.24874 0.27244 0.0
C238 C 0.89717 0.30663 0.22811 0.0
C239 C 0.88882 0.32374 0.19962 0.0
C240 C 0.00542 0.01494 0.69746 0.0
C241 C 0.02135 0.04473 0.69213 0.0
C242 C 0.98792 0.97893 0.69747 0.0
C243 C 0.972 0.94914 0.69216 0.0
C244 C 0.988 0.01489 0.29662 0.0
C245 C 0.97202 0.04467 0.30191 0.0
C246 C 0.00555 0.97891 0.29662 0.0
C247 C 0.02152 0.94913 0.30192 0.0
C248 C 0.69712 0.98799 0.97888 0.0
C249 C 0.69178 0.97209 0.94907 0.0
C250 C 0.69715 0.00546 0.01492 0.0
C251 C 0.69187 0.02139 0.04474 0.0
C252 C 0.29644 0.98832 0.01479 0.0
C253 C 0.30173 0.97236 0.04458 0.0
C254 C 0.29644 0.00584 0.97877 0.0
C255 C 0.30173 0.02177 0.94896 0.0
C256 C 0.97843 0.69744 0.98822 0.0
C257 C 0.94863 0.69213 0.97231 0.0
C258 C 0.01446 0.69746 0.00567 0.0
C259 C 0.04427 0.69217 0.02155 0.0
C260 C 0.01475 0.29655 0.988 0.0
C261 C 0.04453 0.30188 0.97206 0.0
C262 C 0.97873 0.29651 0.00552 0.0
C263 C 0.94893 0.30178 0.02146 0.0
loop_
_geom_bond_atom_site_label_1
_geom_bond_atom_site_label_2
_geom_bond_distance
_geom_bond_site_symmetry_2
_ccdc_geom_bond_type
O0 Cd1 2.223 . S
O0 C8 1.315 . S
Cd1 O0 2.223 . S
Cd1 O4 2.297 . S
Cd1 O5 2.439 . S
Cd1 O11 2.240 . S
Cd2 O3 2.240 . S
Cd2 O10 2.223 . S
Cd2 O12 2.297 . S
Cd2 O13 2.439 . S
O3 Cd2 2.240 . S
O3 C8 1.279 . S
O4 Cd1 2.297 . S
O4 C6 1.247 . S
O5 Cd1 2.439 . S
O5 C6 1.208 . S
C6 O4 1.247 . S
C6 O5 1.208 . S
C7 O12 1.247 . S
C7 O13 1.208 . S
C8 O0 1.315 . S
C8 O3 1.279 . S
C9 O10 1.315 . S
C9 O11 1.279 . S
O10 Cd2 2.223 . S
O10 C9 1.315 . S
O11 Cd1 2.240 . S
O11 C9 1.279 . S
O12 Cd2 2.297 . S
O12 C7 1.247 . S
O13 Cd2 2.439 . S
O13 C7 1.208 . S
O14 Cd15 2.223 . S
O14 C22 1.315 . S
Cd15 O14 2.223 . S
Cd15 O18 2.297 . S
Cd15 O19 2.439 . S
Cd15 O25 2.240 . S
Cd16 O17 2.240 . S
Cd16 O24 2.223 . S
Cd16 O26 2.297 . S
Cd16 O27 2.439 . S
O17 Cd16 2.240 . S
O17 C22 1.279 . S
O18 Cd15 2.297 . S
O18 C20 1.247 . S
O19 Cd15 2.439 . S
O19 C20 1.208 . S
C20 O18 1.247 . S
C20 O19 1.208 . S
C21 O26 1.247 . S
C21 O27 1.208 . S
C22 O14 1.315 . S
C22 O17 1.279 . S
C23 O24 1.315 . S
C23 O25 1.279 . S
O24 Cd16 2.223 . S
O24 C23 1.315 . S
O25 Cd15 2.240 . S
O25 C23 1.279 . S
O26 Cd16 2.297 . S
O26 C21 1.247 . S
O27 Cd16 2.439 . S
O27 C21 1.208 . S
O28 Cd29 2.223 . S
O28 C36 1.315 . S
Cd29 O28 2.223 . S
Cd29 O32 2.297 . S
Cd29 O33 2.439 . S
Cd29 O39 2.240 . S
Cd30 O31 2.240 . S
Cd30 O38 2.223 . S
Cd30 O40 2.297 . S
Cd30 O41 2.439 . S
O31 Cd30 2.240 . S
O31 C36 1.279 . S
O32 Cd29 2.297 . S
O32 C34 1.247 . S
O33 Cd29 2.439 . S
O33 C34 1.208 . S
C34 O32 1.247 . S
C34 O33 1.208 . S
C35 O40 1.247 . S
C35 O41 1.208 . S
C36 O28 1.315 . S
C36 O31 1.279 . S
C37 O38 1.315 . S
C37 O39 1.279 . S
O38 Cd30 2.223 . S
O38 C37 1.315 . S
O39 Cd29 2.240 . S
O39 C37 1.279 . S
O40 Cd30 2.297 . S
O40 C35 1.247 . S
O41 Cd30 2.439 . S
O41 C35 1.208 . S
O42 Cd43 2.223 . S
O42 C50 1.315 . S
Cd43 O42 2.223 . S
Cd43 O46 2.297 . S
Cd43 O47 2.439 . S
Cd43 O53 2.240 . S
Cd44 O45 2.240 . S
Cd44 O52 2.223 . S
Cd44 O54 2.297 . S
Cd44 O55 2.439 . S
O45 Cd44 2.240 . S
O45 C50 1.279 . S
O46 Cd43 2.297 . S
O46 C48 1.247 . S
O47 Cd43 2.439 . S
O47 C48 1.208 . S
C48 O46 1.247 . S
C48 O47 1.208 . S
C49 O54 1.247 . S
C49 O55 1.208 . S
C50 O42 1.315 . S
C50 O45 1.279 . S
C51 O52 1.315 . S
C51 O53 1.279 . S
O52 Cd44 2.223 . S
O52 C51 1.315 . S
O53 Cd43 2.240 . S
O53 C51 1.279 . S
O54 Cd44 2.297 . S
O54 C49 1.247 . S
O55 Cd44 2.439 . S
O55 C49 1.208 . S
O56 Cd57 2.223 . S
O56 C64 1.315 . S
Cd57 O56 2.223 . S
Cd57 O60 2.297 . S
Cd57 O61 2.439 . S
Cd57 O67 2.240 . S
Cd58 O59 2.240 . S
Cd58 O66 2.223 . S
Cd58 O68 2.297 . S
Cd58 O69 2.439 . S
O59 Cd58 2.240 . S
O59 C64 1.279 . S
O60 Cd57 2.297 . S
O60 C62 1.247 . S
O61 Cd57 2.439 . S
O61 C62 1.208 . S
C62 O60 1.247 . S
C62 O61 1.208 . S
C63 O68 1.247 . S
C63 O69 1.208 . S
C64 O56 1.315 . S
C64 O59 1.279 . S
C65 O66 1.315 . S
C65 O67 1.279 . S
O66 Cd58 2.223 . S
O66 C65 1.315 . S
O67 Cd57 2.240 . S
O67 C65 1.279 . S
O68 Cd58 2.297 . S
O68 C63 1.247 . S
O69 Cd58 2.439 . S
O69 C63 1.208 . S
O70 Cd71 2.223 . S
O70 C78 1.315 . S
Cd71 O70 2.223 . S
Cd71 O74 2.297 . S
Cd71 O75 2.439 . S
Cd71 O81 2.240 . S
Cd72 O73 2.240 . S
Cd72 O80 2.223 . S
Cd72 O82 2.297 . S
Cd72 O83 2.439 . S
O73 Cd72 2.240 . S
O73 C78 1.279 . S
O74 Cd71 2.297 . S
O74 C76 1.247 . S
O75 Cd71 2.439 . S
O75 C76 1.208 . S
C76 O74 1.247 . S
C76 O75 1.208 . S
C77 O82 1.247 . S
C77 O83 1.208 . S
C78 O70 1.315 . S
C78 O73 1.279 . S
C79 O80 1.315 . S
C79 O81 1.279 . S
O80 Cd72 2.223 . S
O80 C79 1.315 . S
O81 Cd71 2.240 . S
O81 C79 1.279 . S
O82 Cd72 2.297 . S
O82 C77 1.247 . S
O83 Cd72 2.439 . S
O83 C77 1.208 . S
O84 Cd85 2.223 . S
O84 C92 1.315 . S
Cd85 O84 2.223 . S
Cd85 O88 2.297 . S
Cd85 O89 2.439 . S
Cd85 O95 2.240 . S
Cd86 O87 2.240 . S
Cd86 O94 2.223 . S
Cd86 O96 2.297 . S
Cd86 O97 2.439 . S
O87 Cd86 2.240 . S
O87 C92 1.279 . S
O88 Cd85 2.297 . S
O88 C90 1.247 . S
O89 Cd85 2.439 . S
O89 C90 1.208 . S
C90 O88 1.247 . S
C90 O89 1.208 . S
C91 O96 1.247 . S
C91 O97 1.208 . S
C92 O84 1.315 . S
C92 O87 1.279 . S
C93 O94 1.315 . S
C93 O95 1.279 . S
O94 Cd86 2.223 . S
O94 C93 1.315 . S
O95 Cd85 2.240 . S
O95 C93 1.279 . S
O96 Cd86 2.297 . S
O96 C91 1.247 . S
O97 Cd86 2.439 . S
O97 C91 1.208 . S
O98 Cd99 2.223 . S
O98 C106 1.315 . S
Cd99 O98 2.223 . S
Cd99 O102 2.297 . S
Cd99 O103 2.439 . S
Cd99 O109 2.240 . S
Cd100 O101 2.240 . S
Cd100 O108 2.223 . S
Cd100 O110 2.297 . S
Cd100 O111 2.439 . S
O101 Cd100 2.240 . S
O101 C106 1.279 . S
O102 Cd99 2.297 . S
O102 C104 1.247 . S
O103 Cd99 2.439 . S
O103 C104 1.208 . S
C104 O102 1.247 . S
C104 O103 1.208 . S
C105 O110 1.247 . S
C105 O111 1.208 . S
C106 O98 1.315 . S
C106 O101 1.279 . S
C107 O108 1.315 . S
C107 O109 1.279 . S
O108 Cd100 2.223 . S
O108 C107 1.315 . S
O109 Cd99 2.240 . S
O109 C107 1.279 . S
O110 Cd100 2.297 . S
O110 C105 1.247 . S
O111 Cd100 2.439 . S
O111 C105 1.208 . S
O112 Cd113 2.223 . S
O112 C120 1.315 . S
Cd113 O112 2.223 . S
Cd113 O116 2.297 . S
Cd113 O117 2.439 . S
Cd113 O123 2.240 . S
Cd114 O115 2.240 . S
Cd114 O122 2.223 . S
Cd114 O124 2.297 . S
Cd114 O125 2.439 . S
O115 Cd114 2.240 . S
O115 C120 1.279 . S
O116 Cd113 2.297 . S
O116 C118 1.247 . S
O117 Cd113 2.439 . S
O117 C118 1.208 . S
C118 O116 1.247 . S
C118 O117 1.208 . S
C119 O124 1.247 . S
C119 O125 1.208 . S
C120 O112 1.315 . S
C120 O115 1.279 . S
C121 O122 1.315 . S
C121 O123 1.279 . S
O122 Cd114 2.223 . S
O122 C121 1.315 . S
O123 Cd113 2.240 . S
O123 C121 1.279 . S
O124 Cd114 2.297 . S
O124 C119 1.247 . S
O125 Cd114 2.439 . S
O125 C119 1.208 . S
O126 Cd127 2.223 . S
O126 C134 1.315 . S
Cd127 O126 2.223 . S
Cd127 O130 2.297 . S
Cd127 O131 2.439 . S
Cd127 O137 2.240 . S
Cd128 O129 2.240 . S
Cd128 O136 2.223 . S
Cd128 O138 2.297 . S
Cd128 O139 2.439 . S
O129 Cd128 2.240 . S
O129 C134 1.279 . S
O130 Cd127 2.297 . S
O130 C132 1.247 . S
O131 Cd127 2.439 . S
O131 C132 1.208 . S
C132 O130 1.247 . S
C132 O131 1.208 . S
C133 O138 1.247 . S
C133 O139 1.208 . S
C134 O126 1.315 . S
C134 O129 1.279 . S
C135 O136 1.315 . S
C135 O137 1.279 . S
O136 Cd128 2.223 . S
O136 C135 1.315 . S
O137 Cd127 2.240 . S
O137 C135 1.279 . S
O138 Cd128 2.297 . S
O138 C133 1.247 . S
O139 Cd128 2.439 . S
O139 C133 1.208 . S
O140 Cd141 2.223 . S
O140 C148 1.315 . S
Cd141 O140 2.223 . S
Cd141 O144 2.297 . S
Cd141 O145 2.439 . S
Cd141 O151 2.240 . S
Cd142 O143 2.240 . S
Cd142 O150 2.223 . S
Cd142 O152 2.297 . S
Cd142 O153 2.439 . S
O143 Cd142 2.240 . S
O143 C148 1.279 . S
O144 Cd141 2.297 . S
O144 C146 1.247 . S
O145 Cd141 2.439 . S
O145 C146 1.208 . S
C146 O144 1.247 . S
C146 O145 1.208 . S
C147 O152 1.247 . S
C147 O153 1.208 . S
C148 O140 1.315 . S
C148 O143 1.279 . S
C149 O150 1.315 . S
C149 O151 1.279 . S
O150 Cd142 2.223 . S
O150 C149 1.315 . S
O151 Cd141 2.240 . S
O151 C149 1.279 . S
O152 Cd142 2.297 . S
O152 C147 1.247 . S
O153 Cd142 2.439 . S
O153 C147 1.208 . S
O154 Cd155 2.223 . S
O154 C162 1.315 . S
Cd155 O154 2.223 . S
Cd155 O158 2.297 . S
Cd155 O159 2.439 . S
Cd155 O165 2.240 . S
Cd156 O157 2.240 . S
Cd156 O164 2.223 . S
Cd156 O166 2.297 . S
Cd156 O167 2.439 . S
O157 Cd156 2.240 . S
O157 C162 1.279 . S
O158 Cd155 2.297 . S
O158 C160 1.247 . S
O159 Cd155 2.439 . S
O159 C160 1.208 . S
C160 O158 1.247 . S
C160 O159 1.208 . S
C161 O166 1.247 . S
C161 O167 1.208 . S
C162 O154 1.315 . S
C162 O157 1.279 . S
C163 O164 1.315 . S
C163 O165 1.279 . S
O164 Cd156 2.223 . S
O164 C163 1.315 . S
O165 Cd155 2.240 . S
O165 C163 1.279 . S
O166 Cd156 2.297 . S
O166 C161 1.247 . S
O167 Cd156 2.439 . S
O167 C161 1.208 . S
C168 C169 1.170 . S
C168 C170 1.380 1_655 S
C169 C168 1.170 . S
C170 C168 1.380 1_455 S
C170 C171 1.170 . S
C171 C170 1.170 . S
C172 C173 1.170 . S
C172 C174 1.380 1_455 S
C173 C172 1.170 . S
C174 C172 1.380 1_655 S
C174 C175 1.170 . S
C175 C174 1.170 . S
C176 C177 1.170 . S
C176 C178 1.380 1_565 S
C177 C176 1.170 . S
C178 C176 1.380 1_545 S
C178 C179 1.170 . S
C179 C178 1.170 . S
C180 C181 1.170 . S
C180 C182 1.380 1_565 S
C181 C180 1.170 . S
C182 C180 1.380 1_545 S
C182 C183 1.170 . S
C183 C182 1.170 . S
C184 C185 1.170 . S
C184 C186 1.380 1_556 S
C185 C184 1.170 . S
C186 C184 1.380 1_554 S
C186 C187 1.170 . S
C187 C186 1.170 . S
C188 C189 1.170 . S
C188 C190 1.380 1_556 S
C189 C188 1.170 . S
C190 C188 1.380 1_554 S
C190 C191 1.170 . S
C191 C190 1.170 . S
C192 C193 1.170 . S
C192 C194 1.380 . S
C193 C192 1.170 . S
C194 C192 1.380 . S
C194 C195 1.170 . S
C195 C194 1.170 . S
C196 C197 1.170 . S
C196 C198 1.380 . S
C197 C196 1.170 . S
C198 C196 1.380 . S
C198 C199 1.170 . S
C199 C198 1.170 . S
C200 C201 1.170 . S
C200 C202 1.380 . S
C201 C200 1.170 . S
C202 C200 1.380 . S
C202 C203 1.170 . S
C203 C202 1.170 . S
C204 C205 1.170 . S
C204 C206 1.380 . S
C205 C204 1.170 . S
C206 C204 1.380 . S
C206 C207 1.170 . S
C207 C206 1.170 . S
C208 C209 1.170 . S
C208 C210 1.380 . S
C209 C208 1.170 . S
C210 C208 1.380 . S
C210 C211 1.170 . S
C211 C210 1.170 . S
C212 C213 1.170 . S
C212 C214 1.380 . S
C213 C212 1.170 . S
C214 C212 1.380 . S
C214 C215 1.170 . S
C215 C214 1.170 . S
C216 C217 1.170 . S
C216 C218 1.380 . S
C217 C216 1.170 . S
C218 C216 1.380 . S
C218 C219 1.170 . S
C219 C218 1.170 . S
C220 C221 1.170 . S
C220 C222 1.380 . S
C221 C220 1.170 . S
C222 C220 1.380 . S
C222 C223 1.170 . S
C223 C222 1.170 . S
C224 C225 1.170 . S
C224 C226 1.380 . S
C225 C224 1.170 . S
C226 C224 1.380 . S
C226 C227 1.170 . S
C227 C226 1.170 . S
C228 C229 1.170 . S
C228 C230 1.380 . S
C229 C228 1.170 . S
C230 C228 1.380 . S
C230 C231 1.170 . S
C231 C230 1.170 . S
C232 C233 1.170 . S
C232 C234 1.380 . S
C233 C232 1.170 . S
C234 C232 1.380 . S
C234 C235 1.170 . S
C235 C234 1.170 . S
C236 C237 1.170 . S
C236 C238 1.380 . S
C237 C236 1.170 . S
C238 C236 1.380 . S
C238 C239 1.170 . S
C239 C238 1.170 . S
C240 C241 1.170 . S
C240 C242 1.380 1_445 S
C241 C240 1.170 . S
C242 C240 1.380 1_665 S
C242 C243 1.170 . S
C243 C242 1.170 . S
C244 C245 1.170 . S
C244 C246 1.380 1_645 S
C245 C244 1.170 . S
C246 C244 1.380 1_465 S
C246 C247 1.170 . S
C247 C246 1.170 . S
C248 C249 1.170 . S
C248 C250 1.380 1_566 S
C249 C248 1.170 . S
C250 C248 1.380 1_544 S
C250 C251 1.170 . S
C251 C250 1.170 . S
C252 C253 1.170 . S
C252 C254 1.380 1_564 S
C253 C252 1.170 . S
C254 C252 1.380 1_546 S
C254 C255 1.170 . S
C255 C254 1.170 . S
C256 C257 1.170 . S
C256 C258 1.380 1_656 S
C257 C256 1.170 . S
C258 C256 1.380 1_454 S
C258 C259 1.170 . S
C259 C258 1.170 . S
C260 C261 1.170 . S
C260 C262 1.380 1_456 S
C261 C260 1.170 . S
C262 C260 1.380 1_654 S
C262 C263 1.170 . S
C263 C262 1.170 . S
C169 C48 1.193 . S
C171 C6 1.166 . S
C173 C34 1.142 . S
C175 C20 1.175 . S
C177 C76 1.147 . S
C179 C62 1.158 . S
C181 C90 1.188 . S
C183 C104 1.148 . S
C185 C132 1.157 . S
C187 C118 1.147 . S
C189 C146 1.179 . S
C191 C160 1.142 . S
C193 C9 1.272 . S
C195 C105 1.162 . S
C197 C91 1.161 . S
C199 C23 1.257 . S
C201 C77 1.132 . S
C203 C37 1.268 . S
C205 C63 1.150 . S
C207 C51 1.271 . S
C209 C65 1.270 . S
C211 C161 1.141 . S
C213 C119 1.153 . S
C215 C79 1.271 . S
C217 C147 1.096 . S
C219 C93 1.251 . S
C221 C107 1.261 . S
C223 C133 1.167 . S
C225 C35 1.106 . S
C227 C121 1.259 . S
C229 C7 1.175 . S
C231 C135 1.265 . S
C233 C149 1.247 . S
C235 C21 1.113 . S
C237 C49 1.150 . S
C239 C163 1.254 . S
C241 C8 1.468 . S
C243 C22 1.469 . S
C245 C50 1.442 . S
C247 C36 1.440 . S
C249 C92 1.446 . S
C251 C64 1.450 . S
C253 C78 1.452 . S
C255 C106 1.448 . S
C257 C148 1.468 . S
C259 C120 1.469 . S
C261 C134 1.452 . S
C263 C162 1.457 . S
