# Generated by pormake.
# Topology vcb, (5)-cn, num edge types: 1
# Building blocks:
#     Node 0, Type 0, BuildingBlock: XOMCOT_clean_sbu_1, # of connection points: 5
#     Node 1, Type 0, BuildingBlock: XOMCOT_clean_sbu_1, # of connection points: 5
#     Node 2, Type 0, BuildingBlock: XOMCOT_clean_sbu_1, # of connection points: 5
#     Node 3, Type 0, BuildingBlock: XOMCOT_clean_sbu_1, # of connection points: 5
#     Node 4, Type 0, BuildingBlock: XOMCOT_clean_sbu_1, # of connection points: 5
#     Node 5, Type 0, BuildingBlock: XOMCOT_clean_sbu_1, # of connection points: 5
#     Node 6, Type 0, BuildingBlock: XOMCOT_clean_sbu_1, # of connection points: 5
#     Node 7, Type 0, BuildingBlock: XOMCOT_clean_sbu_1, # of connection points: 5
#     Node 8, Type 0, BuildingBlock: XOMCOT_clean_sbu_1, # of connection points: 5
#     Node 9, Type 0, BuildingBlock: XOMCOT_clean_sbu_1, # of connection points: 5
#     Node 10, Type 0, BuildingBlock: XOMCOT_clean_sbu_1, # of connection points: 5
#     Node 11, Type 0, BuildingBlock: XOMCOT_clean_sbu_1, # of connection points: 5
#     Node 12, Type 0, BuildingBlock: XOMCOT_clean_sbu_1, # of connection points: 5
#     Node 13, Type 0, BuildingBlock: XOMCOT_clean_sbu_1, # of connection points: 5
#     Node 14, Type 0, BuildingBlock: XOMCOT_clean_sbu_1, # of connection points: 5
#     Node 15, Type 0, BuildingBlock: XOMCOT_clean_sbu_1, # of connection points: 5
#     Node 16, Type 0, BuildingBlock: XOMCOT_clean_sbu_1, # of connection points: 5
#     Node 17, Type 0, BuildingBlock: XOMCOT_clean_sbu_1, # of connection points: 5
#     Node 18, Type 0, BuildingBlock: XOMCOT_clean_sbu_1, # of connection points: 5
#     Node 19, Type 0, BuildingBlock: XOMCOT_clean_sbu_1, # of connection points: 5
#     Node 20, Type 0, BuildingBlock: XOMCOT_clean_sbu_1, # of connection points: 5
#     Node 21, Type 0, BuildingBlock: XOMCOT_clean_sbu_1, # of connection points: 5
#     Node 22, Type 0, BuildingBlock: XOMCOT_clean_sbu_1, # of connection points: 5
#     Node 23, Type 0, BuildingBlock: XOMCOT_clean_sbu_1, # of connection points: 5
#     Node 24, Type 0, BuildingBlock: XOMCOT_clean_sbu_1, # of connection points: 5
#     Node 25, Type 0, BuildingBlock: XOMCOT_clean_sbu_1, # of connection points: 5
#     Node 26, Type 0, BuildingBlock: XOMCOT_clean_sbu_1, # of connection points: 5
#     Node 27, Type 0, BuildingBlock: XOMCOT_clean_sbu_1, # of connection points: 5
#     Node 28, Type 0, BuildingBlock: XOMCOT_clean_sbu_1, # of connection points: 5
#     Node 29, Type 0, BuildingBlock: XOMCOT_clean_sbu_1, # of connection points: 5
#     Node 30, Type 0, BuildingBlock: XOMCOT_clean_sbu_1, # of connection points: 5
#     Node 31, Type 0, BuildingBlock: XOMCOT_clean_sbu_1, # of connection points: 5
#     Edge 32, Type (0, 0), BuildingBlock: AJUNOK_clean_linker_0, # of connection points: 2
#     Edge 33, Type (0, 0), BuildingBlock: AJUNOK_clean_linker_0, # of connection points: 2
#     Edge 34, Type (0, 0), BuildingBlock: AJUNOK_clean_linker_0, # of connection points: 2
#     Edge 35, Type (0, 0), BuildingBlock: AJUNOK_clean_linker_0, # of connection points: 2
#     Edge 36, Type (0, 0), BuildingBlock: AJUNOK_clean_linker_0, # of connection points: 2
#     Edge 37, Type (0, 0), BuildingBlock: AJUNOK_clean_linker_0, # of connection points: 2
#     Edge 38, Type (0, 0), BuildingBlock: AJUNOK_clean_linker_0, # of connection points: 2
#     Edge 39, Type (0, 0), BuildingBlock: AJUNOK_clean_linker_0, # of connection points: 2
#     Edge 40, Type (0, 0), BuildingBlock: AJUNOK_clean_linker_0, # of connection points: 2
#     Edge 41, Type (0, 0), BuildingBlock: AJUNOK_clean_linker_0, # of connection points: 2
#     Edge 42, Type (0, 0), BuildingBlock: AJUNOK_clean_linker_0, # of connection points: 2
#     Edge 43, Type (0, 0), BuildingBlock: AJUNOK_clean_linker_0, # of connection points: 2
#     Edge 44, Type (0, 0), BuildingBlock: AJUNOK_clean_linker_0, # of connection points: 2
#     Edge 45, Type (0, 0), BuildingBlock: AJUNOK_clean_linker_0, # of connection points: 2
#     Edge 46, Type (0, 0), BuildingBlock: AJUNOK_clean_linker_0, # of connection points: 2
#     Edge 47, Type (0, 0), BuildingBlock: AJUNOK_clean_linker_0, # of connection points: 2
#     Edge 48, Type (0, 0), BuildingBlock: AJUNOK_clean_linker_0, # of connection points: 2
#     Edge 49, Type (0, 0), BuildingBlock: AJUNOK_clean_linker_0, # of connection points: 2
#     Edge 50, Type (0, 0), BuildingBlock: AJUNOK_clean_linker_0, # of connection points: 2
#     Edge 51, Type (0, 0), BuildingBlock: AJUNOK_clean_linker_0, # of connection points: 2
#     Edge 52, Type (0, 0), BuildingBlock: AJUNOK_clean_linker_0, # of connection points: 2
#     Edge 53, Type (0, 0), BuildingBlock: AJUNOK_clean_linker_0, # of connection points: 2
#     Edge 54, Type (0, 0), BuildingBlock: AJUNOK_clean_linker_0, # of connection points: 2
#     Edge 55, Type (0, 0), BuildingBlock: AJUNOK_clean_linker_0, # of connection points: 2
#     Edge 56, Type (0, 0), BuildingBlock: AJUNOK_clean_linker_0, # of connection points: 2
#     Edge 57, Type (0, 0), BuildingBlock: AJUNOK_clean_linker_0, # of connection points: 2
#     Edge 58, Type (0, 0), BuildingBlock: AJUNOK_clean_linker_0, # of connection points: 2
#     Edge 59, Type (0, 0), BuildingBlock: AJUNOK_clean_linker_0, # of connection points: 2
#     Edge 60, Type (0, 0), BuildingBlock: AJUNOK_clean_linker_0, # of connection points: 2
#     Edge 61, Type (0, 0), BuildingBlock: AJUNOK_clean_linker_0, # of connection points: 2
#     Edge 62, Type (0, 0), BuildingBlock: AJUNOK_clean_linker_0, # of connection points: 2
#     Edge 63, Type (0, 0), BuildingBlock: AJUNOK_clean_linker_0, # of connection points: 2
#     Edge 64, Type (0, 0), BuildingBlock: AJUNOK_clean_linker_0, # of connection points: 2
#     Edge 65, Type (0, 0), BuildingBlock: AJUNOK_clean_linker_0, # of connection points: 2
#     Edge 66, Type (0, 0), BuildingBlock: AJUNOK_clean_linker_0, # of connection points: 2
#     Edge 67, Type (0, 0), BuildingBlock: AJUNOK_clean_linker_0, # of connection points: 2
#     Edge 68, Type (0, 0), BuildingBlock: AJUNOK_clean_linker_0, # of connection points: 2
#     Edge 69, Type (0, 0), BuildingBlock: AJUNOK_clean_linker_0, # of connection points: 2
#     Edge 70, Type (0, 0), BuildingBlock: AJUNOK_clean_linker_0, # of connection points: 2
#     Edge 71, Type (0, 0), BuildingBlock: AJUNOK_clean_linker_0, # of connection points: 2
#     Edge 72, Type (0, 0), BuildingBlock: AJUNOK_clean_linker_0, # of connection points: 2
#     Edge 73, Type (0, 0), BuildingBlock: AJUNOK_clean_linker_0, # of connection points: 2
#     Edge 74, Type (0, 0), BuildingBlock: AJUNOK_clean_linker_0, # of connection points: 2
#     Edge 75, Type (0, 0), BuildingBlock: AJUNOK_clean_linker_0, # of connection points: 2
#     Edge 76, Type (0, 0), BuildingBlock: AJUNOK_clean_linker_0, # of connection points: 2
#     Edge 77, Type (0, 0), BuildingBlock: AJUNOK_clean_linker_0, # of connection points: 2
#     Edge 78, Type (0, 0), BuildingBlock: AJUNOK_clean_linker_0, # of connection points: 2
#     Edge 79, Type (0, 0), BuildingBlock: AJUNOK_clean_linker_0, # of connection points: 2
#     Edge 80, Type (0, 0), BuildingBlock: AJUNOK_clean_linker_0, # of connection points: 2
#     Edge 81, Type (0, 0), BuildingBlock: AJUNOK_clean_linker_0, # of connection points: 2
#     Edge 82, Type (0, 0), BuildingBlock: AJUNOK_clean_linker_0, # of connection points: 2
#     Edge 83, Type (0, 0), BuildingBlock: AJUNOK_clean_linker_0, # of connection points: 2
#     Edge 84, Type (0, 0), BuildingBlock: AJUNOK_clean_linker_0, # of connection points: 2
#     Edge 85, Type (0, 0), BuildingBlock: AJUNOK_clean_linker_0, # of connection points: 2
#     Edge 86, Type (0, 0), BuildingBlock: AJUNOK_clean_linker_0, # of connection points: 2
#     Edge 87, Type (0, 0), BuildingBlock: AJUNOK_clean_linker_0, # of connection points: 2
#     Edge 88, Type (0, 0), BuildingBlock: AJUNOK_clean_linker_0, # of connection points: 2
#     Edge 89, Type (0, 0), BuildingBlock: AJUNOK_clean_linker_0, # of connection points: 2
#     Edge 90, Type (0, 0), BuildingBlock: AJUNOK_clean_linker_0, # of connection points: 2
#     Edge 91, Type (0, 0), BuildingBlock: AJUNOK_clean_linker_0, # of connection points: 2
#     Edge 92, Type (0, 0), BuildingBlock: AJUNOK_clean_linker_0, # of connection points: 2
#     Edge 93, Type (0, 0), BuildingBlock: AJUNOK_clean_linker_0, # of connection points: 2
#     Edge 94, Type (0, 0), BuildingBlock: AJUNOK_clean_linker_0, # of connection points: 2
#     Edge 95, Type (0, 0), BuildingBlock: AJUNOK_clean_linker_0, # of connection points: 2
#     Edge 96, Type (0, 0), BuildingBlock: AJUNOK_clean_linker_0, # of connection points: 2
#     Edge 97, Type (0, 0), BuildingBlock: AJUNOK_clean_linker_0, # of connection points: 2
#     Edge 98, Type (0, 0), BuildingBlock: AJUNOK_clean_linker_0, # of connection points: 2
#     Edge 99, Type (0, 0), BuildingBlock: AJUNOK_clean_linker_0, # of connection points: 2
#     Edge 100, Type (0, 0), BuildingBlock: AJUNOK_clean_linker_0, # of connection points: 2
#     Edge 101, Type (0, 0), BuildingBlock: AJUNOK_clean_linker_0, # of connection points: 2
#     Edge 102, Type (0, 0), BuildingBlock: AJUNOK_clean_linker_0, # of connection points: 2
#     Edge 103, Type (0, 0), BuildingBlock: AJUNOK_clean_linker_0, # of connection points: 2
#     Edge 104, Type (0, 0), BuildingBlock: AJUNOK_clean_linker_0, # of connection points: 2
#     Edge 105, Type (0, 0), BuildingBlock: AJUNOK_clean_linker_0, # of connection points: 2
#     Edge 106, Type (0, 0), BuildingBlock: AJUNOK_clean_linker_0, # of connection points: 2
#     Edge 107, Type (0, 0), BuildingBlock: AJUNOK_clean_linker_0, # of connection points: 2
#     Edge 108, Type (0, 0), BuildingBlock: AJUNOK_clean_linker_0, # of connection points: 2
#     Edge 109, Type (0, 0), BuildingBlock: AJUNOK_clean_linker_0, # of connection points: 2
#     Edge 110, Type (0, 0), BuildingBlock: AJUNOK_clean_linker_0, # of connection points: 2
#     Edge 111, Type (0, 0), BuildingBlock: AJUNOK_clean_linker_0, # of connection points: 2
# Relax obj value: 0.101
# Max RMSD: 0.130
# Mean RMSD: 0.129
data_MOF--net-vcb--node1-XOMCOT_clean_sbu_1--edge1-AJUNOK_clean_linker_0
_symmetry_space_group_name_H-M    P1
_symmetry_Int_Tables_number       1
_symmetry_cell_setting            triclinic
loop_
_symmetry_equiv_pos_as_xyz
'x, y, z'
_cell_length_a     52.576461
_cell_length_b     75.213773
_cell_length_c     19.85369
_cell_angle_alpha  89.947067
_cell_angle_beta   90.014388
_cell_angle_gamma 90.005326
loop_
_atom_site_label
_atom_site_type_symbol
_atom_site_fract_x
_atom_site_fract_y
_atom_site_fract_z
_atom_type_partial_charge
C0 C 0.99739 0.05609 0.38275 0.0
C1 C 0.97151 0.05415 0.37882 0.0
N2 N 0.96086 0.07027 0.38596 0.0
N3 N 1.00313 0.07332 0.39441 0.0
C4 C 0.98036 0.08176 0.39406 0.0
H5 H 1.01111 0.04546 0.37836 0.0
Co6 Co 0.03637 0.08211 0.40556 0.0
C7 C 1.01074 0.09745 0.53407 0.0
O8 O 0.98969 0.08808 0.53175 0.0
N9 N 0.06942 0.09075 0.41702 0.0
C10 C 0.105 0.09821 0.47021 0.0
C11 C 0.08139 0.09087 0.47732 0.0
C12 C 0.0863 0.0981 0.37366 0.0
N13 N 0.10804 0.10267 0.40528 0.0
O14 O 1.02891 0.10129 0.34527 0.0
H15 H 0.07331 0.0861 0.52405 0.0
H16 H 0.08265 0.10036 0.32072 0.0
O17 O 1.02733 0.0958 0.4872 0.0
C18 C 1.03086 0.09433 0.28659 0.0
O19 O 0.03613 0.07728 0.28258 0.0
N20 N 0.04511 0.06211 0.45555 0.0
C21 C 0.05782 0.02844 0.5008 0.0
C22 C 0.04223 0.03949 0.53986 0.0
C23 C 0.03595 0.05639 0.51607 0.0
C24 C 0.06121 0.05178 0.4187 0.0
C25 C 0.06785 0.03487 0.44042 0.0
H26 H 1.02284 0.06426 0.54476 0.0
H27 H 0.06796 0.05644 0.37036 0.0
H28 H 0.97805 0.09589 0.40246 0.0
H29 H 0.9612 0.0418 0.37251 0.0
H30 H 0.11879 0.10047 0.50982 0.0
H31 H 1.03375 0.03472 0.5862 0.0
H32 H 0.07982 0.0266 0.40894 0.0
C33 C 0.32117 0.16471 0.35971 0.0
C34 C 0.34678 0.1637 0.34721 0.0
N35 N 0.35452 0.14712 0.36162 0.0
N36 N 0.31285 0.14891 0.38338 0.0
C37 C 0.33365 0.13831 0.38272 0.0
H38 H 0.30937 0.17629 0.35193 0.0
Co39 Co 0.27861 0.14399 0.40137 0.0
C40 C 0.30355 0.12646 0.52671 0.0
O41 O 0.32597 0.13398 0.52103 0.0
N42 N 0.24437 0.13932 0.41835 0.0
C43 C 0.20781 0.13757 0.4738 0.0
C44 C 0.23329 0.14097 0.47942 0.0
C45 C 0.22522 0.13467 0.37637 0.0
N46 N 0.20279 0.13364 0.40914 0.0
O47 O 0.28032 0.12412 0.34173 0.0
H48 H 0.24312 0.14451 0.52533 0.0
H49 H 0.2275 0.13222 0.32305 0.0
O50 O 0.28637 0.1295 0.48229 0.0
C51 C 0.27837 0.13118 0.28325 0.0
O52 O 0.2751 0.14847 0.27935 0.0
N53 N 0.27596 0.1648 0.45125 0.0
C54 C 0.27197 0.19927 0.49884 0.0
C55 C 0.28478 0.18631 0.53656 0.0
C56 C 0.28676 0.16909 0.51153 0.0
C57 C 0.26236 0.17707 0.41578 0.0
C58 C 0.26007 0.19443 0.4387 0.0
H59 H 0.2975 0.15966 0.54012 0.0
H60 H 0.25408 0.17345 0.36784 0.0
H61 H 0.33361 0.12449 0.39797 0.0
H62 H 0.35902 0.17447 0.33104 0.0
H63 H 0.19403 0.13757 0.51435 0.0
H64 H 0.29381 0.18961 0.58398 0.0
H65 H 0.25012 0.20414 0.40818 0.0
C66 C 0.99429 0.16021 0.98238 0.0
C67 C 0.96821 0.15979 0.98089 0.0
N68 N 0.96084 0.14974 0.92829 0.0
N69 N 1.00361 0.15058 0.93082 0.0
C70 C 0.98272 0.14448 0.89814 0.0
H71 H 1.00582 0.16737 0.01838 0.0
Co72 Co 0.0387 0.14812 0.91822 0.0
C73 C 0.0463 0.13148 0.78321 0.0
O74 O 0.06724 0.14089 0.77764 0.0
N75 N 0.0749 0.14584 0.90928 0.0
C76 C 0.11643 0.15184 0.90465 0.0
C77 C 0.09248 0.15898 0.90761 0.0
C78 C 0.08909 0.13071 0.90848 0.0
N79 N 0.11446 0.13404 0.90529 0.0
O80 O 0.0383 0.12834 0.97862 0.0
H81 H 0.08875 0.17302 0.9096 0.0
H82 H 0.08087 0.11753 0.90927 0.0
O83 O 1.03303 0.13274 0.83742 0.0
C84 C 0.04308 0.13434 0.03752 0.0
O85 O 0.05008 0.15106 0.04301 0.0
N86 N 0.03824 0.16898 0.8671 0.0
C87 C 0.03945 0.20302 0.81289 0.0
C88 C 1.03167 0.18856 0.77341 0.0
C89 C 1.03055 0.17161 0.8021 0.0
C90 C 0.0433 0.18318 0.90746 0.0
C91 C 0.04457 0.20028 0.88119 0.0
H92 H 1.02294 0.16092 0.77225 0.0
H93 H 0.0474 0.18105 0.96024 0.0
H94 H 0.98345 0.13645 0.85313 0.0
H95 H 0.95568 0.16693 0.01458 0.0
H96 H 0.13407 0.15926 0.90387 0.0
H97 H 1.02608 0.19041 0.72136 0.0
H98 H 0.04997 0.2112 0.91377 0.0
C99 C 0.32358 0.07 0.98628 0.0
C100 C 0.34962 0.07112 0.98507 0.0
N101 N 0.3567 0.07942 0.92791 0.0
N102 N 0.31392 0.07745 0.93012 0.0
C103 C 0.33462 0.0829 0.89493 0.0
H104 H 0.31235 0.06367 0.02508 0.0
Co105 Co 0.27869 0.07777 0.91522 0.0
C106 C 0.26966 0.09387 0.78011 0.0
O107 O 0.24989 0.0833 0.77456 0.0
N108 N 0.24235 0.07788 0.90424 0.0
C109 C 0.20152 0.06982 0.89793 0.0
C110 C 0.22623 0.06391 0.89861 0.0
C111 C 0.22657 0.09219 0.90698 0.0
N112 N 0.20167 0.08761 0.90374 0.0
O113 O 0.27607 0.09737 0.97542 0.0
H114 H 0.23153 0.05012 0.89561 0.0
H115 H 0.2332 0.10574 0.91252 0.0
O116 O 0.28295 0.09347 0.83457 0.0
C117 C 0.27023 0.09124 0.03346 0.0
O118 O 0.26436 0.07429 0.03832 0.0
N119 N 0.28226 0.05719 0.86418 0.0
C120 C 0.28771 0.02343 0.81001 0.0
C121 C 0.29393 0.03847 0.77173 0.0
C122 C 0.29175 0.05532 0.80051 0.0
C123 C 0.27822 0.04263 0.9035 0.0
C124 C 0.28019 0.0256 0.87703 0.0
H125 H 0.29837 0.06658 0.77198 0.0
H126 H 0.27259 0.04434 0.95549 0.0
H127 H 0.33361 0.08896 0.84572 0.0
H128 H 0.36235 0.06545 0.02213 0.0
H129 H 0.1847 0.06162 0.89293 0.0
H130 H 0.30082 0.03717 0.72054 0.0
H131 H 0.27541 0.01428 0.90835 0.0
C132 C 0.07837 0.89988 0.7341 0.0
C133 C 0.10446 0.89879 0.732 0.0
N134 N 0.11141 0.89544 0.66816 0.0
N135 N 0.06875 0.89703 0.67196 0.0
C136 C 0.08947 0.8943 0.63277 0.0
H137 H 0.06721 0.90316 0.77804 0.0
Co138 Co 1.03388 0.89856 0.65173 0.0
C139 C 1.02799 0.88764 0.51062 0.0
O140 O 1.01288 0.90145 0.50439 0.0
N141 N 0.99812 0.89968 0.63375 0.0
C142 C 0.95704 0.90674 0.62402 0.0
C143 C 0.98137 0.91332 0.63107 0.0
C144 C 0.98328 0.88501 0.62772 0.0
N145 N 0.95824 0.88888 0.62282 0.0
O146 O 1.02802 0.87828 0.70743 0.0
H147 H 0.98601 0.92723 0.63572 0.0
H148 H 0.99082 0.87163 0.62755 0.0
O149 O 0.03828 0.88418 0.56801 0.0
C150 C 1.0208 0.8848 0.76383 0.0
O151 O 1.01715 0.90205 0.76767 0.0
N152 N 0.04036 0.91995 0.60748 0.0
C153 C 0.05387 0.95447 0.57304 0.0
C154 C 0.06132 0.94018 0.53236 0.0
C155 C 0.05483 0.92289 0.55132 0.0
C156 C 1.03421 0.93368 0.64895 0.0
C157 C 0.04015 0.95107 0.63193 0.0
H158 H 0.06225 0.91204 0.5219 0.0
H159 H 1.02471 0.93106 0.69618 0.0
H160 H 0.08864 0.89192 0.5791 0.0
H161 H 0.11741 0.90121 0.77341 0.0
H162 H 0.93969 0.91449 0.6227 0.0
H163 H 0.07249 0.94234 0.48724 0.0
H164 H 1.0339 0.96175 0.66453 0.0
C165 C 0.75367 0.82653 0.72737 0.0
C166 C 0.72776 0.82836 0.73079 0.0
N167 N 0.71936 0.83446 0.6711 0.0
N168 N 0.76193 0.83154 0.66593 0.0
C169 C 0.74042 0.8361 0.63207 0.0
H170 H 0.76573 0.82156 0.76723 0.0
Co171 Co 0.79678 0.83089 0.645 0.0
C172 C 0.80236 0.84304 0.50537 0.0
O173 O 0.81829 0.82973 0.49806 0.0
N174 N 0.83268 0.83046 0.62665 0.0
C175 C 0.87358 0.82309 0.61516 0.0
C176 C 0.84914 0.81671 0.62034 0.0
C177 C 0.84789 0.84506 0.62431 0.0
N178 N 0.87281 0.84092 0.61836 0.0
O179 O 0.80191 0.85082 0.70299 0.0
H180 H 0.84426 0.80281 0.62063 0.0
H181 H 0.84092 0.85853 0.62956 0.0
O182 O 0.7917 0.84578 0.56281 0.0
C183 C 0.80966 0.84384 0.75821 0.0
O184 O 0.81505 0.82679 0.75836 0.0
N185 N 0.79107 0.80977 0.59892 0.0
C186 C 0.78242 0.77519 0.557 0.0
C187 C 0.7739 0.7895 0.51781 0.0
C188 C 0.77761 0.80683 0.54107 0.0
C189 C 0.79748 0.79591 0.63966 0.0
C190 C 0.79391 0.7785 0.61909 0.0
H191 H 0.76928 0.81768 0.51322 0.0
H192 H 0.80595 0.79845 0.6883 0.0
H193 H 0.74015 0.84046 0.58011 0.0
H194 H 0.71585 0.82491 0.77332 0.0
H195 H 0.89066 0.81516 0.61017 0.0
H196 H 0.76405 0.78726 0.47064 0.0
H197 H 0.80038 0.76773 0.65107 0.0
C198 C 0.07652 0.83169 0.04305 0.0
C199 C 0.10255 0.83164 0.04046 0.0
N200 N 0.11154 0.83394 0.10315 0.0
N201 N 0.0687 0.83409 0.10715 0.0
C202 C 0.09068 0.83537 0.14301 0.0
H203 H 0.06415 0.82907 1.00081 0.0
Co204 Co 1.03374 0.83261 0.12918 0.0
C205 C 1.02746 0.84521 0.26819 0.0
O206 O 1.01218 0.83154 0.27603 0.0
N207 N 0.99787 0.83134 0.14817 0.0
C208 C 0.95733 0.82297 0.15918 0.0
C209 C 0.98209 0.8172 0.15402 0.0
C210 C 0.98192 0.84556 0.15064 0.0
N211 N 0.9572 0.84083 0.15629 0.0
O212 O 1.02728 0.85232 0.07047 0.0
H213 H 0.98767 0.80342 0.15316 0.0
H214 H 0.98825 0.85919 0.14556 0.0
O215 O 0.03827 0.84787 0.2108 0.0
C216 C 1.01892 0.84534 0.01592 0.0
O217 O 1.01408 0.8282 0.01591 0.0
N218 N 0.04063 0.81172 0.17648 0.0
C219 C 0.0497 0.77749 0.2228 0.0
C220 C 0.05792 0.7922 0.26025 0.0
C221 C 0.0537 0.80931 0.23534 0.0
C222 C 0.03507 0.79753 0.13666 0.0
C223 C 0.03886 0.78028 0.15937 0.0
H224 H 0.06119 0.82043 0.26323 0.0
H225 H 1.02686 0.79967 0.0874 0.0
H226 H 0.09148 0.83632 0.1973 0.0
H227 H 0.11408 0.82893 0.99645 0.0
H228 H 0.94067 0.81461 0.16392 0.0
H229 H 0.06758 0.79048 0.308 0.0
H230 H 1.03273 0.76926 0.12826 0.0
C231 C 0.7494 0.89786 0.04041 0.0
C232 C 0.72328 0.89713 0.04264 0.0
N233 N 0.71625 0.89416 0.10669 0.0
N234 N 0.759 0.89516 0.10269 0.0
C235 C 0.73819 0.89286 0.1421 0.0
H236 H 0.76058 0.90089 0.99624 0.0
Co237 Co 0.79403 0.89669 0.12243 0.0
C238 C 0.80058 0.88541 0.26287 0.0
O239 O 0.81545 0.89935 0.26923 0.0
N240 N 0.8299 0.89786 0.13977 0.0
C241 C 0.87088 0.90523 0.14931 0.0
C242 C 0.84644 0.91162 0.14226 0.0
C243 C 0.84499 0.88329 0.14575 0.0
N244 N 0.86999 0.88736 0.15071 0.0
O245 O 0.79984 0.87653 0.06651 0.0
H246 H 0.84159 0.92549 0.1376 0.0
H247 H 0.83764 0.86986 0.14607 0.0
O248 O 0.78993 0.88216 0.20578 0.0
C249 C 0.80697 0.88314 0.01014 0.0
O250 O 0.81052 0.90041 0.00638 0.0
N251 N 0.7876 0.91797 0.16723 0.0
C252 C 0.77382 0.95233 0.20266 0.0
C253 C 0.76655 0.93792 0.24303 0.0
C254 C 0.77332 0.92072 0.22383 0.0
C255 C 0.79336 0.9318 0.12573 0.0
C256 C 0.78721 0.94912 0.14312 0.0
H257 H 0.76616 0.90978 0.25328 0.0
H258 H 0.80261 0.9293 0.07808 0.0
H259 H 0.73897 0.89072 0.19592 0.0
H260 H 0.7104 0.8996 1.00112 0.0
H261 H 0.88807 0.91313 0.15067 0.0
H262 H 0.75519 0.93987 0.28792 0.0
H263 H 0.79285 0.95989 0.11009 0.0
C264 C 0.99524 0.56055 0.85778 0.0
C265 C 0.96954 0.56003 0.84517 0.0
N266 N 0.96009 0.57657 0.85201 0.0
N267 N 1.00215 0.57728 0.87419 0.0
C268 C 0.98038 0.58683 0.868 0.0
H269 H 1.00793 0.54926 0.85654 0.0
Co270 Co 0.0356 0.58484 0.89602 0.0
C271 C 1.00447 0.5991 0.01648 0.0
O272 O 0.98499 0.58866 1.00454 0.0
N273 N 0.06914 0.59229 0.91706 0.0
C274 C 0.10405 0.59642 0.97853 0.0
C275 C 0.07955 0.59028 0.97879 0.0
C276 C 0.08799 0.59976 0.87981 0.0
N277 N 0.10958 0.60223 0.91615 0.0
O278 O 1.03139 0.60448 0.83491 0.0
H279 H 0.06995 0.58457 0.02177 0.0
H280 H 0.08609 0.60316 0.82709 0.0
O281 O 1.0239 0.59867 0.97718 0.0
C282 C 0.03488 0.59731 0.77699 0.0
O283 O 0.04186 0.58054 0.77526 0.0
N284 N 0.04095 0.56408 0.94585 0.0
C285 C 0.0492 0.52938 0.98872 0.0
C286 C 1.03393 0.54094 0.02662 0.0
C287 C 1.03008 0.55835 1.00438 0.0
C288 C 0.05674 0.55321 0.91027 0.0
C289 C 0.06117 0.53583 0.9308 0.0
H290 H 1.01777 0.56672 0.03332 0.0
H291 H 0.06514 0.55792 0.86386 0.0
H292 H 0.97921 0.60095 0.87819 0.0
H293 H 0.95844 0.54817 0.83573 0.0
H294 H 0.11665 0.59693 0.02161 0.0
H295 H 1.02405 0.53634 0.07121 0.0
H296 H 0.07319 0.52732 0.90041 0.0
C297 C 0.32385 0.6495 0.76636 0.0
C298 C 0.3499 0.64948 0.76979 0.0
N299 N 0.35672 0.64712 0.83437 0.0
N300 N 0.31402 0.64713 0.82851 0.0
C301 C 0.33469 0.6458 0.86928 0.0
H302 H 0.31285 0.65201 0.72144 0.0
Co303 Co 0.2788 0.64849 0.84467 0.0
C304 C 0.26938 0.63374 0.98117 0.0
O305 O 0.2513 0.64567 0.98761 0.0
N306 N 0.24276 0.64984 0.85761 0.0
C307 C 0.20241 0.65873 0.86572 0.0
C308 C 0.2273 0.6642 0.8606 0.0
C309 C 0.22652 0.63582 0.86018 0.0
N310 N 0.20187 0.64086 0.86569 0.0
O311 O 0.27384 0.62882 0.78519 0.0
H312 H 0.23329 0.67789 0.85878 0.0
H313 H 0.23275 0.62215 0.85699 0.0
O314 O 0.28222 0.63305 0.92603 0.0
C315 C 0.26673 0.63548 0.72888 0.0
O316 O 0.26211 0.65264 0.72654 0.0
N317 N 0.28446 0.66917 0.89384 0.0
C318 C 0.29631 0.70316 0.93878 0.0
C319 C 0.30077 0.68834 0.98005 0.0
C320 C 0.295 0.67134 0.95623 0.0
C321 C 0.28151 0.68337 0.85204 0.0
C322 C 0.28675 0.70049 0.87384 0.0
H323 H 0.30016 0.66011 0.987 0.0
H324 H 0.27485 0.68131 0.80111 0.0
H325 H 0.33371 0.64496 0.92355 0.0
H326 H 0.3629 0.65202 0.72859 0.0
H327 H 0.18595 0.66731 0.87 0.0
H328 H 0.30928 0.68982 0.02941 0.0
H329 H 0.28327 0.71156 0.8401 0.0
C330 C 0.99166 0.67184 0.45484 0.0
C331 C 0.96596 0.67329 0.46534 0.0
N332 N 0.95466 0.6583 0.44341 0.0
N333 N 0.99692 0.65603 0.426 0.0
C334 C 0.97403 0.64772 0.42288 0.0
H335 H 1.00565 0.68179 0.46764 0.0
Co336 Co 1.0305 0.64901 0.40368 0.0
C337 C 1.00124 0.63506 0.27872 0.0
O338 O 0.98155 0.64557 0.28691 0.0
N339 N 0.06441 0.64223 0.38262 0.0
C340 C 0.10084 0.64038 0.32557 0.0
C341 C 0.07647 0.64674 0.32482 0.0
C342 C 0.08205 0.63271 0.41731 0.0
N343 N 0.10438 0.63164 0.38365 0.0
O344 O 1.02684 0.62892 0.4628 0.0
H345 H 0.06811 0.65409 0.28368 0.0
H346 H 0.07871 0.62661 0.46587 0.0
O347 O 1.01972 0.63551 0.32112 0.0
C348 C 1.03125 0.63556 0.52121 0.0
O349 O 0.03768 0.65242 0.52443 0.0
N350 N 0.03519 0.67021 0.35604 0.0
C351 C 0.04499 0.70461 0.3128 0.0
C352 C 1.03095 0.69294 0.27231 0.0
C353 C 1.02613 0.67571 0.29502 0.0
C354 C 0.04974 0.68126 0.39444 0.0
C355 C 0.05486 0.69854 0.37388 0.0
H356 H 1.01523 0.66712 0.26322 0.0
H357 H 0.05699 0.67667 0.44233 0.0
H358 H 0.97147 0.6344 0.40344 0.0
H359 H 0.95638 0.68464 0.48712 0.0
H360 H 0.11475 0.64159 0.28559 0.0
H361 H 1.02316 0.69729 0.22453 0.0
H362 H 0.06609 0.70717 0.4059 0.0
C363 C 0.31631 0.56069 0.39265 0.0
C364 C 0.34225 0.56126 0.40025 0.0
N365 N 0.35015 0.57804 0.38941 0.0
N366 N 0.3076 0.57699 0.37592 0.0
C367 C 0.32865 0.58742 0.37662 0.0
H368 H 0.30462 0.54897 0.39836 0.0
Co369 Co 0.27281 0.58256 0.36145 0.0
C370 C 0.29741 0.59871 0.23426 0.0
O371 O 0.31904 0.59018 0.24024 0.0
N372 N 0.23814 0.58795 0.3479 0.0
C373 C 0.20059 0.58996 0.29673 0.0
C374 C 0.22567 0.58538 0.28916 0.0
C375 C 0.22018 0.59447 0.39024 0.0
N376 N 0.19715 0.5956 0.36026 0.0
O377 O 0.2761 0.60254 0.41935 0.0
H378 H 0.2343 0.58053 0.24329 0.0
H379 H 0.22377 0.5983 0.44186 0.0
O380 O 0.28003 0.5966 0.27893 0.0
C381 C 0.27508 0.5959 0.47867 0.0
O382 O 0.27308 0.57855 0.48493 0.0
N383 N 0.26852 0.56159 0.31338 0.0
C384 C 0.26583 0.52636 0.27515 0.0
C385 C 0.27823 0.53874 0.23405 0.0
C386 C 0.27932 0.55645 0.25405 0.0
C387 C 0.25484 0.54986 0.35122 0.0
C388 C 0.25311 0.5321 0.33277 0.0
H389 H 0.28992 0.56548 0.22335 0.0
H390 H 0.24659 0.55415 0.39837 0.0
H391 H 0.32822 0.60156 0.3666 0.0
H392 H 0.35449 0.54999 0.41025 0.0
H393 H 0.18609 0.58971 0.25799 0.0
H394 H 0.28812 0.53456 0.18887 0.0
H395 H 0.24351 0.52275 0.36564 0.0
C396 C 0.07203 0.40892 0.19934 0.0
C397 C 0.09786 0.40731 0.20619 0.0
N398 N 0.10632 0.39557 0.16026 0.0
N399 N 0.06386 0.39829 0.14919 0.0
C400 C 0.0853 0.39039 0.1256 0.0
H401 H 0.05995 0.41771 0.22816 0.0
Co402 Co 1.02906 0.39753 0.12721 0.0
C403 C 1.02861 0.38691 0.98224 0.0
O404 O 1.01618 0.40165 0.9698 0.0
N405 N 0.99295 0.39675 0.10736 0.0
C406 C 0.9538 0.40184 0.06761 0.0
C407 C 0.97856 0.40765 0.06861 0.0
C408 C 0.97587 0.38452 0.12978 0.0
N409 N 0.95189 0.38733 0.107 0.0
O410 O 1.02585 0.37688 0.18291 0.0
H411 H 0.98541 0.41901 0.04075 0.0
H412 H 0.98078 0.37359 0.16249 0.0
O413 O 0.03551 0.38321 0.04301 0.0
C414 C 1.02111 0.38317 0.24157 0.0
O415 O 1.01773 0.40041 0.24751 0.0
N416 N 1.03309 0.41932 0.08403 0.0
C417 C 0.04321 0.4546 0.05284 0.0
C418 C 0.05604 0.44092 0.01914 0.0
C419 C 0.05124 0.42326 0.03701 0.0
C420 C 1.02119 0.43256 0.11856 0.0
C421 C 1.02554 0.45029 0.10283 0.0
H422 H 0.06264 0.41284 0.01486 0.0
H423 H 1.0085 0.42929 0.15963 0.0
H424 H 0.08559 0.38123 0.0836 0.0
H425 H 0.10968 0.41486 0.24046 0.0
H426 H 0.93877 0.40761 0.03758 0.0
H427 H 0.07028 0.44389 0.98134 0.0
H428 H 1.01537 0.46054 0.13006 0.0
C429 C 0.7446 0.31579 0.23116 0.0
C430 C 0.71852 0.31651 0.22836 0.0
N431 N 0.71175 0.32726 0.17706 0.0
N432 N 0.75446 0.32591 0.18163 0.0
C433 C 0.73397 0.33265 0.14917 0.0
H434 H 0.75573 0.30792 0.26593 0.0
Co435 Co 0.78948 0.3276 0.16691 0.0
C436 C 0.79676 0.3436 0.03119 0.0
O437 O 0.81657 0.33312 0.02474 0.0
N438 N 0.82561 0.32919 0.15478 0.0
C439 C 0.86636 0.32342 0.13312 0.0
C440 C 0.84259 0.31622 0.14044 0.0
C441 C 0.84005 0.34417 0.15717 0.0
N442 N 0.86497 0.34108 0.14346 0.0
O443 O 0.79062 0.34717 0.22779 0.0
H444 H 0.83841 0.30235 0.13318 0.0
H445 H 0.8322 0.35707 0.16884 0.0
O446 O 0.78396 0.34322 0.08643 0.0
C447 C 0.79549 0.34068 0.28596 0.0
O448 O 0.80106 0.32368 0.28999 0.0
N449 N 0.78736 0.30694 0.1157 0.0
C450 C 0.78315 0.27302 0.06198 0.0
C451 C 0.775 0.28784 0.02495 0.0
C452 C 0.77661 0.30474 0.0536 0.0
C453 C 0.7934 0.29252 0.15403 0.0
C454 C 0.79204 0.27545 0.12768 0.0
H455 H 0.76853 0.31579 0.02642 0.0
H456 H 0.79991 0.2944 0.20521 0.0
H457 H 0.73522 0.34105 0.10528 0.0
H458 H 0.70564 0.30894 0.25972 0.0
H459 H 0.88328 0.31613 0.11905 0.0
H460 H 0.76739 0.28639 0.97455 0.0
H461 H 0.79767 0.26425 0.15858 0.0
C462 C 0.07502 0.33066 0.52485 0.0
C463 C 0.101 0.33227 0.52831 0.0
N464 N 0.10756 0.3343 0.59327 0.0
N465 N 0.065 0.33191 0.58727 0.0
C466 C 0.08541 0.33412 0.6281 0.0
H467 H 0.06425 0.32808 0.47957 0.0
Co468 Co 1.03023 0.32898 0.60527 0.0
C469 C 1.02138 0.34227 0.74464 0.0
O470 O 1.00557 0.32889 0.75231 0.0
N471 N 0.99457 0.32606 0.62044 0.0
C472 C 0.95524 0.31525 0.63044 0.0
C473 C 0.98043 0.31102 0.62166 0.0
C474 C 0.97715 0.33929 0.62722 0.0
N475 N 0.95318 0.33303 0.63412 0.0
O476 O 1.02295 0.34864 0.5466 0.0
H477 H 0.98745 0.29768 0.61551 0.0
H478 H 0.98201 0.35327 0.62789 0.0
O479 O 1.03278 0.34438 0.68772 0.0
C480 C 1.01623 0.34192 0.49004 0.0
O481 O 1.01318 0.3246 0.48705 0.0
N482 N 0.03808 0.30824 0.65316 0.0
C483 C 0.04622 0.27418 0.70258 0.0
C484 C 0.05178 0.28905 0.74246 0.0
C485 C 0.04827 0.30608 0.716 0.0
C486 C 0.03545 0.29396 0.61165 0.0
C487 C 0.03876 0.27676 0.6357 0.0
H488 H 0.05386 0.31729 0.74625 0.0
H489 H 1.02938 0.29596 0.56015 0.0
H490 H 0.08414 0.33525 0.6823 0.0
H491 H 0.11419 0.33116 0.48664 0.0
H492 H 0.93954 0.30595 0.63272 0.0
H493 H 0.05863 0.28749 0.79359 0.0
H494 H 1.03451 0.26563 0.60302 0.0
C495 C 0.74986 0.41656 0.61292 0.0
C496 C 0.72403 0.41778 0.60396 0.0
N497 N 0.7137 0.40184 0.6175 0.0
N498 N 0.75595 0.40003 0.63413 0.0
C499 C 0.73341 0.39119 0.63469 0.0
H500 H 0.76331 0.42726 0.60578 0.0
Co501 Co 0.78974 0.39295 0.65485 0.0
C502 C 0.76215 0.3767 0.77978 0.0
O503 O 0.73985 0.3844 0.77401 0.0
N504 N 0.82344 0.38589 0.67609 0.0
C505 C 0.85705 0.38009 0.74085 0.0
C506 C 0.83343 0.38772 0.73852 0.0
C507 C 0.84169 0.37707 0.64107 0.0
N508 N 0.86224 0.37335 0.67977 0.0
O509 O 0.78604 0.37309 0.5958 0.0
H510 H 0.82372 0.39366 0.78089 0.0
H511 H 0.83955 0.3727 0.58948 0.0
O512 O 0.77942 0.37955 0.73561 0.0
C513 C 0.78987 0.38009 0.53784 0.0
O514 O 0.79587 0.39705 0.53523 0.0
N515 N 0.79443 0.41377 0.70382 0.0
C516 C 0.79813 0.44898 0.7435 0.0
C517 C 0.78268 0.43708 0.77934 0.0
C518 C 0.78087 0.41947 0.75821 0.0
C519 C 0.81088 0.42489 0.67152 0.0
C520 C 0.81313 0.4426 0.69072 0.0
H521 H 0.76747 0.41098 0.78308 0.0
H522 H 0.82112 0.42023 0.62771 0.0
H523 H 0.73136 0.3774 0.64937 0.0
H524 H 0.71347 0.42962 0.59058 0.0
H525 H 0.86921 0.37902 0.7847 0.0
H526 H 0.77112 0.44158 0.82116 0.0
H527 H 0.8252 0.45144 0.66184 0.0
C528 C 0.49256 0.06587 0.78063 0.0
C529 C 0.46658 0.06654 0.78563 0.0
N530 N 0.46029 0.07779 0.83571 0.0
N531 N 0.50302 0.07661 0.82719 0.0
C532 C 0.4829 0.0838 0.86011 0.0
H533 H 0.50326 0.05766 0.7461 0.0
Co534 Co 0.53845 0.0778 0.83564 0.0
C535 C 0.54974 0.09455 0.96798 0.0
O536 O 0.56909 0.08356 0.97181 0.0
N537 N 0.57492 0.07865 0.83991 0.0
C538 C 0.61599 0.07129 0.83295 0.0
C539 C 0.59152 0.06498 0.83366 0.0
C540 C 0.59018 0.09325 0.84168 0.0
N541 N 0.61523 0.08908 0.83752 0.0
O542 O 0.53904 0.09686 0.77172 0.0
H543 H 0.58674 0.05117 0.82814 0.0
H544 H 0.58303 0.10672 0.84481 0.0
O545 O 0.53559 0.09421 0.91501 0.0
C546 C 0.54327 0.08993 0.71392 0.0
O547 O 0.54776 0.07277 0.71128 0.0
N548 N 0.53693 0.05763 0.89069 0.0
C549 C 0.53551 0.02468 0.95367 0.0
C550 C 0.52797 0.04 0.98847 0.0
C551 C 0.52808 0.05637 0.95527 0.0
C552 C 0.5414 0.0426 0.85445 0.0
C553 C 0.54146 0.026 0.88523 0.0
H554 H 0.52046 0.06774 0.98127 0.0
H555 H 0.54552 0.04358 0.80121 0.0
H556 H 0.48487 0.0932 0.90088 0.0
H557 H 0.45335 0.05878 0.75602 0.0
H558 H 0.63309 0.06332 0.82959 0.0
H559 H 0.52164 0.03926 0.04031 0.0
H560 H 0.54649 0.01437 0.85599 0.0
C561 C 0.82417 0.15931 0.77984 0.0
C562 C 0.85023 0.15916 0.7839 0.0
N563 N 0.85713 0.14924 0.83742 0.0
N564 N 0.81437 0.1495 0.83033 0.0
C565 C 0.83492 0.14348 0.86461 0.0
H566 H 0.81298 0.16654 0.74325 0.0
Co567 Co 0.77923 0.14757 0.84349 0.0
C568 C 0.7712 0.13104 0.97845 0.0
O569 O 0.75067 0.14086 0.98374 0.0
N570 N 0.7429 0.14593 0.85343 0.0
C571 C 0.70168 0.15232 0.86621 0.0
C572 C 0.72589 0.15909 0.86533 0.0
C573 C 0.72808 0.1312 0.84688 0.0
N574 N 0.70293 0.13477 0.85431 0.0
O575 O 0.77873 0.12792 0.78278 0.0
H576 H 0.73019 0.1729 0.87339 0.0
H577 H 0.73567 0.11805 0.83783 0.0
O578 O 0.7845 0.13195 0.92415 0.0
C579 C 0.77408 0.13411 0.72405 0.0
O580 O 0.76814 0.15103 0.71877 0.0
N581 N 0.78074 0.16823 0.8948 0.0
C582 C 0.78259 0.20207 0.94971 0.0
C583 C 0.79073 0.18737 0.9874 0.0
C584 C 0.79016 0.17048 0.95836 0.0
C585 C 0.77529 0.18261 0.85568 0.0
C586 C 0.7755 0.19965 0.88251 0.0
H587 H 0.79791 0.1595 0.98656 0.0
H588 H 0.76989 0.1807 0.80361 0.0
H589 H 0.83356 0.13516 0.9086 0.0
H590 H 0.86308 0.16638 0.75125 0.0
H591 H 0.68437 0.15985 0.87384 0.0
H592 H 0.79744 0.18894 0.03865 0.0
H593 H 0.77028 0.21084 0.85097 0.0
C594 C 0.49382 0.16567 0.39072 0.0
C595 C 0.46813 0.16445 0.40126 0.0
N596 N 0.4605 0.14824 0.38147 0.0
N597 N 0.50243 0.15035 0.36363 0.0
C598 C 0.48161 0.1398 0.35965 0.0
H599 H 0.50557 0.17697 0.40329 0.0
Co600 Co 0.53709 0.14615 0.34972 0.0
C601 C 0.51573 0.12868 0.21882 0.0
O602 O 0.49279 0.13557 0.22048 0.0
N603 N 0.57193 0.14223 0.33677 0.0
C604 C 0.60985 0.14215 0.28738 0.0
C605 C 0.58466 0.14624 0.27958 0.0
C606 C 0.58984 0.13542 0.37838 0.0
N607 N 0.61305 0.13537 0.34939 0.0
O608 O 0.53504 0.12565 0.40671 0.0
H609 H 0.57612 0.15155 0.2343 0.0
H610 H 0.5861 0.13046 0.42854 0.0
O611 O 0.53156 0.13221 0.26611 0.0
C612 C 0.53587 0.13171 0.46696 0.0
O613 O 0.53761 0.149 0.47522 0.0
N614 N 0.5398 0.16747 0.30291 0.0
C615 C 0.54637 0.20188 0.2565 0.0
C616 C 0.53324 0.18939 0.2174 0.0
C617 C 0.52995 0.17215 0.24186 0.0
C618 C 0.55272 0.1795 0.34113 0.0
C619 C 0.55623 0.19682 0.31891 0.0
H620 H 0.51922 0.16293 0.21212 0.0
H621 H 0.56 0.17559 0.3899 0.0
H622 H 0.48193 0.12616 0.34236 0.0
H623 H 0.45586 0.17477 0.42101 0.0
H624 H 0.62455 0.14334 0.24946 0.0
H625 H 0.52494 0.19308 0.16942 0.0
H626 H 0.56635 0.20621 0.35042 0.0
C627 C 0.81623 0.05588 0.38853 0.0
C628 C 0.84177 0.05406 0.4001 0.0
N629 N 0.85295 0.06996 0.39061 0.0
N630 N 0.81111 0.07282 0.37064 0.0
C631 C 0.83389 0.08121 0.37381 0.0
H632 H 0.80222 0.04546 0.39388 0.0
Co633 Co 0.77793 0.0813 0.35598 0.0
C634 C 0.80478 0.09714 0.22999 0.0
O635 O 0.82642 0.08855 0.23488 0.0
N636 N 0.74482 0.08955 0.34158 0.0
C637 C 0.70886 0.09553 0.28739 0.0
C638 C 0.73302 0.089 0.28109 0.0
C639 C 0.72742 0.09664 0.38399 0.0
N640 N 0.70539 0.1002 0.35194 0.0
O641 O 0.78435 0.10061 0.41634 0.0
H642 H 0.74152 0.08421 0.23496 0.0
H643 H 0.73076 0.09928 0.43679 0.0
O644 O 0.78759 0.09494 0.27495 0.0
C645 C 0.7815 0.09366 0.4748 0.0
O646 O 0.77541 0.07673 0.47824 0.0
N647 N 0.77039 0.06117 0.30573 0.0
C648 C 0.76192 0.02664 0.26404 0.0
C649 C 0.77779 0.03785 0.2265 0.0
C650 C 0.78196 0.0552 0.24858 0.0
C651 C 0.75356 0.05074 0.33987 0.0
C652 C 0.7489 0.0334 0.31964 0.0
H653 H 0.79572 0.06317 0.22241 0.0
H654 H 0.74496 0.05559 0.3858 0.0
H655 H 0.83634 0.09532 0.36522 0.0
H656 H 0.85145 0.04189 0.414 0.0
H657 H 0.69502 0.09718 0.24744 0.0
H658 H 0.78832 0.03284 0.18361 0.0
H659 H 0.73651 0.02501 0.34955 0.0
C660 C 0.57901 0.90419 0.26263 0.0
C661 C 0.60505 0.90376 0.26139 0.0
N662 N 0.61269 0.90061 0.19777 0.0
N663 N 0.56981 0.90089 0.20053 0.0
C664 C 0.59086 0.89876 0.16179 0.0
H665 H 0.56752 0.90682 0.30656 0.0
Co666 Co 0.53462 0.90062 0.18385 0.0
C667 C 0.52675 0.88491 0.04779 0.0
O668 O 0.50729 0.89572 0.04105 0.0
N669 N 0.49845 0.90043 0.17104 0.0
C670 C 0.45758 0.90832 0.16653 0.0
C671 C 0.48214 0.91434 0.17149 0.0
C672 C 0.48293 0.886 0.16666 0.0
N673 N 0.45797 0.89046 0.16404 0.0
O674 O 0.53147 0.88082 0.2434 0.0
H675 H 0.48725 0.92814 0.17588 0.0
H676 H 0.48982 0.87244 0.16586 0.0
O677 O 0.53957 0.88512 0.10303 0.0
C678 C 0.5241 0.88666 0.30065 0.0
O679 O 0.51717 0.90341 0.3049 0.0
N680 N 0.53842 0.92141 0.13351 0.0
C681 C 0.54198 0.95529 0.07889 0.0
C682 C 0.54883 0.9404 0.04065 0.0
C683 C 0.5476 0.92352 0.06961 0.0
C684 C 0.53417 0.93588 0.17306 0.0
C685 C 0.5352 0.95297 0.14641 0.0
H686 H 0.55449 0.91242 0.04073 0.0
H687 H 0.52892 0.93404 0.22529 0.0
H688 H 0.59024 0.89627 0.10818 0.0
H689 H 0.61732 0.90533 0.30471 0.0
H690 H 0.44071 0.91653 0.16368 0.0
H691 H 0.55526 0.94183 0.98909 0.0
H692 H 0.53005 0.96417 0.17782 0.0
C693 C 0.25599 0.80858 0.14719 0.0
C694 C 0.23037 0.80671 0.15794 0.0
N695 N 0.2186 0.82174 0.1382 0.0
N696 N 0.26085 0.82473 0.1206 0.0
C697 C 0.23766 0.83271 0.11805 0.0
H698 H 0.2703 0.79878 0.15935 0.0
Co699 Co 0.29472 0.83238 0.10319 0.0
C700 C 0.26811 0.84812 0.97587 0.0
O701 O 0.24652 0.83945 0.98021 0.0
N702 N 0.32859 0.83979 0.08692 0.0
C703 C 0.36432 0.84586 0.0314 0.0
C704 C 0.34006 0.83927 0.02611 0.0
C705 C 0.34649 0.8467 0.12859 0.0
N706 N 0.36844 0.85063 0.09583 0.0
O707 O 0.28974 0.8521 0.16218 0.0
H708 H 0.33121 0.83456 0.98029 0.0
H709 H 0.34354 0.84868 0.18193 0.0
O710 O 0.28519 0.84596 0.02129 0.0
C711 C 0.29262 0.84522 0.22071 0.0
O712 O 0.29802 0.82819 0.22483 0.0
N713 N 0.3008 0.81174 0.05418 0.0
C714 C 0.30725 0.77688 0.01311 0.0
C715 C 0.29279 0.78866 0.97417 0.0
C716 C 0.28957 0.80613 0.99601 0.0
C717 C 0.31623 0.80068 0.09009 0.0
C718 C 0.31965 0.7831 0.0706 0.0
H719 H 0.27708 0.81458 0.96786 0.0
H720 H 0.32468 0.80528 0.13658 0.0
H721 H 0.23474 0.84625 0.10121 0.0
H722 H 0.22123 0.79517 0.1797 0.0
H723 H 0.37769 0.84749 0.99038 0.0
H724 H 0.28281 0.7841 0.92967 0.0
H725 H 0.33091 0.77425 0.10169 0.0
C726 C 0.57716 0.81331 0.62742 0.0
C727 C 0.60295 0.81332 0.6166 0.0
N728 N 0.61212 0.82953 0.6318 0.0
N729 N 0.56976 0.82937 0.65048 0.0
C730 C 0.59147 0.83915 0.65074 0.0
H731 H 0.56456 0.80216 0.61923 0.0
Co732 Co 0.53519 0.83509 0.66915 0.0
C733 C 0.56063 0.85178 0.7958 0.0
O734 O 0.58326 0.84463 0.78963 0.0
N735 N 0.5007 0.84071 0.68715 0.0
C736 C 0.46498 0.84476 0.74526 0.0
C737 C 0.48989 0.83943 0.74866 0.0
C738 C 0.48176 0.84687 0.647 0.0
N739 N 0.4597 0.84933 0.68118 0.0
O740 O 0.53772 0.85511 0.61061 0.0
H741 H 0.49969 0.83516 0.79378 0.0
H742 H 0.48406 0.84964 0.59388 0.0
O743 O 0.54357 0.84881 0.7511 0.0
C744 C 0.53509 0.84794 0.55252 0.0
O745 O 0.53111 0.8307 0.5495 0.0
N746 N 0.53171 0.81407 0.71759 0.0
C747 C 0.53157 0.7783 0.75018 0.0
C748 C 0.5467 0.79022 0.78669 0.0
C749 C 0.54652 0.8082 0.76947 0.0
C750 C 0.51566 0.80278 0.68488 0.0
C751 C 0.51509 0.78481 0.70084 0.0
H752 H 0.55974 0.81685 0.79419 0.0
H753 H 0.50463 0.80751 0.64252 0.0
H754 H 0.5921 0.85307 0.66439 0.0
H755 H 0.61424 0.80203 0.60078 0.0
H756 H 0.45209 0.84591 0.78753 0.0
H757 H 0.55956 0.78551 0.82544 0.0
H758 H 0.50333 0.77592 0.67134 0.0
C759 C 0.24848 0.90187 0.50937 0.0
C760 C 0.22244 0.90181 0.51096 0.0
N761 N 0.21486 0.89908 0.57491 0.0
N762 N 0.25769 0.89874 0.57162 0.0
C763 C 0.23667 0.89707 0.61076 0.0
H764 H 0.25995 0.90421 0.46516 0.0
Co765 Co 0.29281 0.89836 0.58837 0.0
C766 C 0.30048 0.88277 0.72488 0.0
O767 O 0.31968 0.8938 0.73181 0.0
N768 N 0.32887 0.89806 0.60133 0.0
C769 C 0.36981 0.90567 0.60668 0.0
C770 C 0.34539 0.91184 0.59958 0.0
C771 C 0.34409 0.88356 0.60808 0.0
N772 N 0.36908 0.88787 0.61235 0.0
O773 O 0.29586 0.87854 0.52884 0.0
H774 H 0.34054 0.92562 0.59255 0.0
H775 H 0.3369 0.87009 0.60909 0.0
O776 O 0.28777 0.88283 0.6694 0.0
C777 C 0.30327 0.88429 0.47146 0.0
O778 O 0.31038 0.90101 0.46691 0.0
N779 N 0.28913 0.91914 0.63867 0.0
C780 C 0.2861 0.95296 0.69358 0.0
C781 C 0.27874 0.9381 0.73146 0.0
C782 C 0.27978 0.92125 0.70237 0.0
C783 C 0.29363 0.93362 0.59924 0.0
C784 C 0.29276 0.95068 0.62599 0.0
H785 H 0.27256 0.91019 0.73096 0.0
H786 H 0.29882 0.9318 0.54698 0.0
H787 H 0.23732 0.89485 0.66456 0.0
H788 H 0.21013 0.90341 0.46773 0.0
H789 H 0.38685 0.91374 0.60831 0.0
H790 H 0.272 0.93955 0.78273 0.0
H791 H 0.29783 0.96192 0.59458 0.0
C792 C 0.48788 0.57949 0.26316 0.0
C793 C 0.46196 0.58146 0.26511 0.0
N794 N 0.45523 0.58592 0.32823 0.0
N795 N 0.49769 0.58278 0.32463 0.0
C796 C 0.47721 0.58645 0.36375 0.0
H797 H 0.49882 0.5755 0.21967 0.0
Co798 Co 0.53264 0.58135 0.34155 0.0
C799 C 0.54081 0.59333 0.4816 0.0
O800 O 0.55776 0.58055 0.48556 0.0
N801 N 0.56862 0.58008 0.35591 0.0
C802 C 0.60919 0.57162 0.36416 0.0
C803 C 0.5845 0.56591 0.35714 0.0
C804 C 0.58443 0.59426 0.36217 0.0
N805 N 0.60916 0.58948 0.36682 0.0
O806 O 0.53761 0.6017 0.28508 0.0
H807 H 0.57902 0.55217 0.35272 0.0
H808 H 0.57794 0.60792 0.36201 0.0
O809 O 0.5288 0.59567 0.42577 0.0
C810 C 0.54419 0.59532 0.22786 0.0
O811 O 0.54909 0.57821 0.22429 0.0
N812 N 0.52691 0.56001 0.38643 0.0
C813 C 0.51762 0.52523 0.42641 0.0
C814 C 0.51063 0.53948 0.46809 0.0
C815 C 0.51499 0.5569 0.44647 0.0
C816 C 0.53151 0.54635 0.34323 0.0
C817 C 0.52767 0.52886 0.3627 0.0
H818 H 0.50812 0.56769 0.47719 0.0
H819 H 0.5388 0.54911 0.29341 0.0
H820 H 0.47828 0.58929 0.4171 0.0
H821 H 0.44892 0.57908 0.22387 0.0
H822 H 0.62588 0.56324 0.36739 0.0
H823 H 0.50152 0.53718 0.51624 0.0
H824 H 0.5329 0.51827 0.32844 0.0
C825 C 0.81805 0.64764 0.30556 0.0
C826 C 0.84404 0.64808 0.311 0.0
N827 N 0.85024 0.64583 0.37608 0.0
N828 N 0.80765 0.64512 0.36696 0.0
C829 C 0.82789 0.64412 0.4093 0.0
H830 H 0.80745 0.64995 0.2598 0.0
Co831 Co 0.77228 0.64575 0.38059 0.0
C832 C 0.76302 0.63342 0.51969 0.0
O833 O 0.74585 0.64606 0.52386 0.0
N834 N 0.73611 0.64619 0.3917 0.0
C835 C 0.69494 0.65339 0.39575 0.0
C836 C 0.71941 0.65988 0.3947 0.0
C837 C 0.72104 0.63155 0.39143 0.0
N838 N 0.69598 0.63555 0.39282 0.0
O839 O 0.76881 0.62539 0.32359 0.0
H840 H 0.72419 0.6738 0.39453 0.0
H841 H 0.7284 0.61813 0.3896 0.0
O842 O 0.77544 0.63123 0.46448 0.0
C843 C 0.76223 0.63155 0.26598 0.0
O844 O 0.7577 0.64868 0.26073 0.0
N845 N 0.77628 0.66716 0.42615 0.0
C846 C 0.78053 0.7021 0.46877 0.0
C847 C 0.78804 0.68814 0.5112 0.0
C848 C 0.78632 0.67064 0.48823 0.0
C849 C 0.77145 0.68068 0.38241 0.0
C850 C 0.77287 0.69826 0.40302 0.0
H851 H 0.79338 0.66014 0.52009 0.0
H852 H 0.76551 0.67772 0.33154 0.0
H853 H 0.82632 0.64312 0.46349 0.0
H854 H 0.85738 0.6509 0.27084 0.0
H855 H 0.67768 0.66123 0.39585 0.0
H856 H 0.79544 0.69073 0.56116 0.0
H857 H 0.76751 0.70872 0.36823 0.0
C858 C 0.50003 0.66852 0.91129 0.0
C859 C 0.47439 0.67065 0.92138 0.0
N860 N 0.4623 0.65625 0.89693 0.0
N861 N 0.5044 0.65287 0.88027 0.0
C862 C 0.48103 0.64537 0.87458 0.0
H863 H 0.51464 0.67799 0.92476 0.0
Co864 Co 0.53761 0.64578 0.85531 0.0
C865 C 0.50918 0.62866 0.73123 0.0
O866 O 0.48684 0.63644 0.73339 0.0
N867 N 0.57096 0.63881 0.83041 0.0
C868 C 0.60446 0.6339 0.76441 0.0
C869 C 0.58024 0.64058 0.76729 0.0
C870 C 0.59012 0.63091 0.86509 0.0
N871 N 0.61084 0.62791 0.82602 0.0
O872 O 0.53505 0.62608 0.91559 0.0
H873 H 0.56974 0.64597 0.72511 0.0
H874 H 0.58893 0.62727 0.91772 0.0
O875 O 0.52603 0.63221 0.7759 0.0
C876 C 0.54022 0.63329 0.97246 0.0
O877 O 0.54714 0.65008 0.97305 0.0
N878 N 0.54109 0.6665 0.80536 0.0
C879 C 0.54257 0.70206 0.76926 0.0
C880 C 0.52541 0.69045 0.73788 0.0
C881 C 0.52491 0.6726 0.75692 0.0
C882 C 0.55876 0.67744 0.83362 0.0
C883 C 0.55992 0.69529 0.81607 0.0
H884 H 0.51024 0.66427 0.73674 0.0
H885 H 0.57076 0.67256 0.87385 0.0
H886 H 0.47769 0.63235 0.85344 0.0
H887 H 0.46536 0.68208 0.94424 0.0
H888 H 0.61601 0.63281 0.7195 0.0
H889 H 0.51159 0.69534 0.70189 0.0
H890 H 0.57298 0.70393 0.84266 0.0
C891 C 0.82209 0.5778 0.97898 0.0
C892 C 0.84802 0.57961 0.97591 0.0
N893 N 0.85453 0.58347 0.91205 0.0
N894 N 0.81198 0.58071 0.91752 0.0
C895 C 0.83232 0.5841 0.87744 0.0
H896 H 0.81138 0.57408 0.02321 0.0
Co897 Co 0.77697 0.57853 0.90104 0.0
C898 C 0.76821 0.59074 0.76209 0.0
O899 O 0.75384 0.57656 0.75511 0.0
N900 N 0.74108 0.57662 0.88679 0.0
C901 C 0.70044 0.56834 0.87934 0.0
C902 C 0.72509 0.56252 0.88717 0.0
C903 C 0.72542 0.59082 0.87923 0.0
N904 N 0.70065 0.58616 0.87415 0.0
O905 O 0.77087 0.59821 0.96017 0.0
H906 H 0.73045 0.54881 0.89369 0.0
H907 H 0.73215 0.60441 0.87923 0.0
O908 O 0.77935 0.59376 0.81872 0.0
C909 C 0.76427 0.59106 0.01613 0.0
O910 O 0.76104 0.57375 0.01743 0.0
N911 N 0.78367 0.5577 0.85354 0.0
C912 C 0.7927 0.52344 0.80903 0.0
C913 C 0.80051 0.53794 0.76993 0.0
C914 C 0.79626 0.55516 0.79398 0.0
C915 C 0.77869 0.54364 0.89461 0.0
C916 C 0.78238 0.52637 0.87272 0.0
H917 H 0.80323 0.56626 0.76491 0.0
H918 H 0.77121 0.5459 0.94454 0.0
H919 H 0.83095 0.58677 0.82402 0.0
H920 H 0.86124 0.57749 0.01697 0.0
H921 H 0.68362 0.56004 0.87741 0.0
H922 H 0.80947 0.53596 0.72139 0.0
H923 H 0.77705 0.51536 0.90504 0.0
C924 C 0.56945 0.4191 0.62723 0.0
C925 C 0.59514 0.42005 0.63863 0.0
N926 N 0.60553 0.40413 0.62454 0.0
N927 N 0.56332 0.40268 0.60522 0.0
C928 C 0.58576 0.39372 0.60527 0.0
H929 H 0.556 0.42975 0.63543 0.0
Co930 Co 0.52931 0.39549 0.58865 0.0
C931 C 0.55533 0.37901 0.46257 0.0
O932 O 0.57717 0.38747 0.46451 0.0
N933 N 0.49533 0.38832 0.57165 0.0
C934 C 0.45985 0.38318 0.5136 0.0
C935 C 0.48397 0.39002 0.51091 0.0
C936 C 0.4775 0.38029 0.61061 0.0
N937 N 0.4557 0.37696 0.57618 0.0
O938 O 0.5339 0.37584 0.64832 0.0
H939 H 0.49291 0.39553 0.4665 0.0
H940 H 0.48041 0.37696 0.66303 0.0
O941 O 0.53861 0.38181 0.50817 0.0
C942 C 0.53093 0.38298 0.70636 0.0
O943 O 0.52551 0.40002 0.70907 0.0
N944 N 0.52366 0.41611 0.53947 0.0
C945 C 0.51612 0.45082 0.4979 0.0
C946 C 0.53132 0.43933 0.45964 0.0
C947 C 0.53508 0.42189 0.48177 0.0
C948 C 0.50786 0.42695 0.57507 0.0
C949 C 0.50379 0.4444 0.55514 0.0
H950 H 0.54798 0.41354 0.45431 0.0
H951 H 0.49934 0.42222 0.62128 0.0
H952 H 0.5875 0.37977 0.59273 0.0
H953 H 0.60548 0.43168 0.65549 0.0
H954 H 0.44666 0.38226 0.47187 0.0
H955 H 0.54125 0.44407 0.41533 0.0
H956 H 0.49191 0.453 0.58559 0.0
C957 C 0.24605 0.32888 0.74481 0.0
C958 C 0.22002 0.32972 0.74599 0.0
N959 N 0.21161 0.3319 0.68247 0.0
N960 N 0.25441 0.33089 0.68107 0.0
C961 C 0.23291 0.33283 0.64401 0.0
H962 H 0.25809 0.32657 0.78803 0.0
Co963 Co 0.28906 0.3291 0.65953 0.0
C964 C 0.29499 0.34032 0.51779 0.0
O965 O 0.3109 0.32696 0.51147 0.0
N966 N 0.3248 0.32735 0.64087 0.0
C967 C 0.36495 0.31818 0.62952 0.0
C968 C 0.34007 0.3129 0.63662 0.0
C969 C 0.34118 0.34126 0.63579 0.0
N970 N 0.36571 0.33605 0.62989 0.0
O971 O 0.29543 0.34962 0.71318 0.0
H972 H 0.33404 0.29923 0.63884 0.0
H973 H 0.33526 0.35503 0.63798 0.0
O974 O 0.28431 0.3432 0.57513 0.0
C975 C 0.3036 0.34377 0.76975 0.0
O976 O 0.30882 0.32673 0.77475 0.0
N977 N 0.2821 0.3077 0.61709 0.0
C978 C 0.27407 0.27288 0.5788 0.0
C979 C 0.26602 0.28677 0.53696 0.0
C980 C 0.26972 0.30429 0.55792 0.0
C981 C 0.28705 0.2943 0.66122 0.0
C982 C 0.28377 0.27671 0.64255 0.0
H983 H 0.26251 0.31489 0.52676 0.0
H984 H 0.29464 0.29733 0.71049 0.0
H985 H 0.2328 0.33429 0.5898 0.0
H986 H 0.20825 0.32881 0.79054 0.0
H987 H 0.38119 0.30948 0.62361 0.0
H988 H 0.25746 0.28409 0.48838 0.0
H989 H 0.28922 0.2662 0.677 0.0
C990 C 0.57805 0.3217 0.00818 0.0
C991 C 0.60403 0.32203 0.01492 0.0
N992 N 0.60993 0.3306 0.07246 0.0
N993 N 0.56736 0.33006 0.06096 0.0
C994 C 0.58723 0.33549 0.09914 0.0
H995 H 0.56754 0.31506 0.96871 0.0
Co996 Co 0.53226 0.33023 0.07517 0.0
C997 C 0.52388 0.34333 0.21347 0.0
O998 O 0.50637 0.33095 0.21761 0.0
N999 N 0.49601 0.33038 0.08735 0.0
C1000 C 0.45557 0.32331 0.10757 0.0
C1001 C 0.47964 0.31679 0.09785 0.0
C1002 C 0.48094 0.34504 0.08962 0.0
N1003 N 0.45619 0.34116 0.10265 0.0
O1004 O 0.52959 0.35029 0.01687 0.0
H1005 H 0.48444 0.30291 0.10086 0.0
H1006 H 0.48825 0.35829 0.08175 0.0
O1007 O 0.53631 0.34509 0.15803 0.0
C1008 C 0.52447 0.34387 0.95876 0.0
O1009 O 0.5194 0.3268 0.95452 0.0
N1010 N 0.53609 0.30914 0.12287 0.0
C1011 C 0.54564 0.27475 0.1666 0.0
C1012 C 0.55302 0.28931 0.20605 0.0
C1013 C 0.54869 0.30651 0.1823 0.0
C1014 C 0.53051 0.29511 0.08225 0.0
C1015 C 0.53439 0.27779 0.10386 0.0
H1016 H 0.55637 0.31751 0.21053 0.0
H1017 H 0.52262 0.29745 0.03274 0.0
H1018 H 0.585 0.34256 0.14608 0.0
H1019 H 0.6175 0.31563 0.98161 0.0
H1020 H 0.439 0.31539 0.11957 0.0
H1021 H 0.56259 0.28738 0.25383 0.0
H1022 H 0.52843 0.26689 0.07189 0.0
C1023 C 0.24744 0.40799 0.06516 0.0
C1024 C 0.22149 0.40684 0.06006 0.0
N1025 N 0.21305 0.3951 0.10616 0.0
N1026 N 0.25573 0.39697 0.11402 0.0
C1027 C 0.23429 0.38923 0.13829 0.0
H1028 H 0.25952 0.41674 0.0361 0.0
Co1029 Co 0.29055 0.39567 0.1359 0.0
C1030 C 0.29027 0.38404 0.2792 0.0
O1031 O 0.30331 0.39839 0.29327 0.0
N1032 N 0.32673 0.39437 0.15583 0.0
C1033 C 0.36592 0.39901 0.19613 0.0
C1034 C 0.34113 0.4047 0.19667 0.0
C1035 C 0.3439 0.38259 0.13047 0.0
N1036 N 0.36791 0.3852 0.15347 0.0
O1037 O 0.29334 0.37563 0.078 0.0
H1038 H 0.33435 0.41568 0.22665 0.0
H1039 H 0.33904 0.37223 0.09521 0.0
O1040 O 0.28355 0.38078 0.21802 0.0
C1041 C 0.29811 0.38302 0.0212 0.0
O1042 O 0.30253 0.4002 0.02009 0.0
N1043 N 0.28695 0.41695 0.18162 0.0
C1044 C 0.27947 0.45182 0.2212 0.0
C1045 C 0.26517 0.43815 0.25062 0.0
C1046 C 0.26881 0.42071 0.22884 0.0
C1047 C 0.29955 0.4303 0.14949 0.0
C1048 C 0.29648 0.44781 0.16932 0.0
H1049 H 0.25675 0.41032 0.2487 0.0
H1050 H 0.31193 0.42729 0.10757 0.0
H1051 H 0.23426 0.37963 0.1789 0.0
H1052 H 0.20959 0.41464 0.02674 0.0
H1053 H 0.38093 0.40443 0.22707 0.0
H1054 H 0.25114 0.44096 0.28911 0.0
H1055 H 0.30681 0.45817 0.14304 0.0
C1056 C 0.04071 0.11679 0.5999 0.0
C1057 C 1.01813 0.10676 0.59783 0.0
C1058 C 0.04958 0.12438 0.66001 0.0
C1059 C 0.03636 0.1224 0.72144 0.0
H1060 H 0.05187 0.11875 0.55467 0.0
H1061 H 0.06708 0.13195 0.65779 0.0
S1062 S 0.97611 0.09738 0.74444 0.0
N1063 N 0.98252 0.09532 0.6634 0.0
N1064 N 0.99939 0.10948 0.7762 0.0
C1065 C 1.01365 0.11248 0.72032 0.0
C1066 C 1.00449 0.10475 0.65874 0.0
C1067 C 0.2726 0.10904 0.59692 0.0
C1068 C 0.29606 0.11792 0.59186 0.0
C1069 C 0.26418 0.10183 0.65818 0.0
C1070 C 0.2787 0.10318 0.71783 0.0
H1071 H 0.26051 0.10759 0.55307 0.0
H1072 H 0.24606 0.09498 0.65828 0.0
S1073 S 0.34104 0.12598 0.73335 0.0
N1074 N 0.33352 0.12812 0.65302 0.0
N1075 N 0.31738 0.11484 0.76807 0.0
C1076 C 0.30201 0.11232 0.71396 0.0
C1077 C 0.31077 0.11955 0.65115 0.0
C1078 C 1.03272 0.85831 0.45228 0.0
C1079 C 1.03323 0.87693 0.44948 0.0
C1080 C 1.03227 0.84815 0.3929 0.0
C1081 C 1.03284 0.85621 0.32858 0.0
H1082 H 1.03101 0.85159 0.50037 0.0
H1083 H 1.03054 0.83385 0.39742 0.0
S1084 S 0.03776 0.90448 0.29449 0.0
N1085 N 0.03674 0.90303 0.37749 0.0
N1086 N 0.03641 0.88384 0.26626 0.0
C1087 C 0.03531 0.87474 0.32531 0.0
C1088 C 0.03532 0.88511 0.38569 0.0
C1089 C 0.79694 0.87239 0.44749 0.0
C1090 C 0.79632 0.85377 0.44483 0.0
C1091 C 0.79696 0.88254 0.38799 0.0
C1092 C 0.79587 0.87446 0.32382 0.0
H1093 H 0.79908 0.8791 0.49542 0.0
H1094 H 0.79876 0.89685 0.39227 0.0
S1095 S 0.79064 0.82618 0.29046 0.0
N1096 N 0.79228 0.82766 0.37336 0.0
N1097 N 0.79176 0.84681 0.26197 0.0
C1098 C 0.79332 0.85593 0.32085 0.0
C1099 C 0.79374 0.84558 0.38129 0.0
C1100 C 0.98087 0.62022 0.17948 0.0
C1101 C 1.00325 0.62513 0.21371 0.0
C1102 C 0.98163 0.61223 0.11559 0.0
C1103 C 1.00478 0.60906 0.08185 0.0
H1104 H 0.96247 0.62255 0.20236 0.0
H1105 H 0.96375 0.60853 0.09236 0.0
S1106 S 0.06898 0.62002 0.14816 0.0
N1107 N 0.04938 0.62632 0.20854 0.0
N1108 N 0.05078 0.612 0.0876 0.0
C1109 C 1.02734 0.61419 0.11495 0.0
C1110 C 1.02659 0.62197 0.18101 0.0
C1111 C 0.2598 0.62259 0.09717 0.0
C1112 C 0.27693 0.62361 0.04263 0.0
C1113 C 0.26671 0.61484 0.1588 0.0
C1114 C 0.29117 0.60774 0.16916 0.0
H1115 H 0.24077 0.62798 0.09254 0.0
H1116 H 0.25264 0.61442 0.1986 0.0
S1117 S 0.34339 0.60702 0.04257 0.0
N1118 N 0.31949 0.6167 1.003 0.0
N1119 N 0.33272 0.60226 0.1187 0.0
C1120 C 0.30854 0.60857 0.11486 0.0
C1121 C 0.30136 0.61639 0.05171 0.0
C1122 C 1.02542 0.35677 0.92874 0.0
C1123 C 1.03264 0.37469 0.92435 0.0
C1124 C 1.02274 0.34631 0.87036 0.0
C1125 C 1.02747 0.35326 0.80525 0.0
H1126 H 1.02021 0.35112 0.97702 0.0
H1127 H 1.01615 0.33276 0.87635 0.0
S1128 S 0.04983 0.39892 0.76768 0.0
N1129 N 0.0465 0.39859 0.85041 0.0
N1130 N 0.04199 0.37883 0.7413 0.0
C1131 C 0.03638 0.37081 0.8008 0.0
C1132 C 0.03877 0.38153 0.86013 0.0
C1133 C 0.80111 0.35103 0.90871 0.0
C1134 C 0.78734 0.35289 0.96935 0.0
C1135 C 0.79247 0.35836 0.84798 0.0
C1136 C 0.76954 0.36794 0.84444 0.0
H1137 H 0.81884 0.34371 0.90757 0.0
H1138 H 0.804 0.35648 0.80333 0.0
S1139 S 0.72654 0.37745 0.98874 0.0
N1140 N 0.74988 0.36569 0.02207 0.0
N1141 N 0.73334 0.37927 0.90783 0.0
C1142 C 0.75552 0.37003 0.90461 0.0
C1143 C 0.7645 0.36264 0.96693 0.0
C1144 C 0.50895 0.11911 0.098 0.0
C1145 C 0.52464 0.11963 0.15579 0.0
C1146 C 0.51734 0.11157 0.03693 0.0
C1147 C 0.54184 0.10417 0.03072 0.0
H1148 H 0.48995 0.12465 0.09962 0.0
H1149 H 0.50434 0.11131 0.99466 0.0
S1150 S 0.59064 0.10219 0.16659 0.0
N1151 N 0.56594 0.11185 0.20232 0.0
N1152 N 0.58193 0.09821 0.08821 0.0
C1153 C 0.55781 0.10475 0.08801 0.0
C1154 C 0.54918 0.11229 0.1502 0.0
C1155 C 0.77476 0.11575 0.16142 0.0
C1156 C 0.79781 0.10631 0.1656 0.0
C1157 C 0.7664 0.12327 0.10068 0.0
C1158 C 0.78061 0.1218 0.0406 0.0
H1159 H 0.76284 0.11731 0.20551 0.0
H1160 H 0.7485 0.13039 0.10134 0.0
S1161 S 0.8424 0.09835 0.02331 0.0
N1162 N 0.83494 0.09595 0.10359 0.0
N1163 N 0.81896 0.10989 0.98939 0.0
C1164 C 0.80374 0.1124 0.04379 0.0
C1165 C 0.81242 0.10478 0.10612 0.0
C1166 C 0.52065 0.87569 0.92766 0.0
C1167 C 0.53591 0.87544 0.98617 0.0
C1168 C 0.52903 0.86839 0.86661 0.0
C1169 C 0.55312 0.86041 0.8607 0.0
H1170 H 0.50196 0.88173 0.92852 0.0
H1171 H 0.51638 0.86905 0.82362 0.0
S1172 S 0.6005 0.85581 0.99886 0.0
N1173 N 0.57631 0.8662 0.0343 0.0
N1174 N 0.59217 0.85248 0.9197 0.0
C1175 C 0.56863 0.85994 0.91886 0.0
C1176 C 0.55999 0.86737 0.98143 0.0
C1177 C 0.30695 0.87331 0.84467 0.0
C1178 C 0.29159 0.87307 0.78635 0.0
C1179 C 0.29889 0.86569 0.90552 0.0
C1180 C 0.27508 0.8573 0.91141 0.0
H1181 H 0.32549 0.87958 0.84379 0.0
H1182 H 0.31163 0.86638 0.94829 0.0
S1183 S 0.22733 0.85291 0.77394 0.0
N1184 N 0.25121 0.86369 0.7386 0.0
N1185 N 0.23601 0.84925 0.85268 0.0
C1186 C 0.25942 0.85691 0.85347 0.0
C1187 C 0.2677 0.86473 0.79115 0.0
C1188 C 0.50299 0.62098 0.60859 0.0
C1189 C 0.51684 0.61886 0.66903 0.0
C1190 C 0.51104 0.61307 0.54791 0.0
C1191 C 0.53328 0.60268 0.54502 0.0
H1192 H 0.48594 0.62905 0.60768 0.0
H1193 H 0.49961 0.61503 0.50312 0.0
S1194 S 0.57607 0.59255 0.68968 0.0
N1195 N 0.55343 0.60503 0.7223 0.0
N1196 N 0.56901 0.59069 0.60903 0.0
C1197 C 0.54724 0.60041 0.60534 0.0
C1198 C 0.53892 0.60834 0.667 0.0
C1199 C 0.77363 0.59438 0.63782 0.0
C1200 C 0.77175 0.60226 0.70217 0.0
C1201 C 0.77256 0.60463 0.57859 0.0
C1202 C 0.76888 0.62309 0.58159 0.0
H1203 H 0.77513 0.58007 0.63318 0.0
H1204 H 0.77313 0.59795 0.5303 0.0
S1205 S 0.7648 0.65032 0.73738 0.0
N1206 N 0.76793 0.62972 0.76513 0.0
N1207 N 0.76525 0.64902 0.65432 0.0
C1208 C 0.76812 0.63121 0.64567 0.0
C1209 C 0.76976 0.62079 0.70587 0.0
C1210 C 0.55398 0.36293 0.2797 0.0
C1211 C 0.5315 0.35277 0.27661 0.0
C1212 C 0.56198 0.37092 0.34031 0.0
C1213 C 0.54787 0.3691 0.40043 0.0
H1214 H 0.56559 0.36466 0.23514 0.0
H1215 H 0.57921 0.37882 0.33961 0.0
S1216 S 0.48799 0.34342 0.42046 0.0
N1217 N 0.49529 0.34132 0.34008 0.0
N1218 N 0.51081 0.35572 0.45319 0.0
C1219 C 0.52559 0.35875 0.39819 0.0
C1220 C 0.51729 0.3508 0.33662 0.0
C1221 C 0.29423 0.34372 0.392 0.0
C1222 C 0.28882 0.35088 0.45631 0.0
C1223 C 0.29216 0.35399 0.33302 0.0
C1224 C 0.28484 0.37189 0.3362 0.0
H1225 H 0.30108 0.3302 0.38721 0.0
H1226 H 0.2981 0.34827 0.2855 0.0
S1227 S 0.26543 0.39649 0.4899 0.0
N1228 N 0.2732 0.37653 0.51791 0.0
N1229 N 0.26972 0.39592 0.40751 0.0
C1230 C 0.27772 0.37887 0.39935 0.0
C1231 C 0.27956 0.36836 0.45928 0.0
C1232 C 0.13261 0.12997 0.39955 0.0
C1233 C 0.12954 0.11218 0.38012 0.0
C1234 C 0.15677 0.13772 0.40189 0.0
C1235 C 0.17853 0.12791 0.38453 0.0
H1236 H 0.11657 0.13727 0.41971 0.0
H1237 H 0.15877 0.15091 0.42306 0.0
S1238 S 0.17998 0.08164 0.32154 0.0
N1239 N 0.14956 0.08558 0.33641 0.0
N1240 N 0.19521 0.10025 0.33977 0.0
C1241 C 0.17538 0.11076 0.35808 0.0
C1242 C 0.15074 0.10283 0.35621 0.0
C1243 C 0.15803 0.12621 0.86811 0.0
C1244 C 0.13567 0.12175 0.90375 0.0
C1245 C 0.17958 0.11517 0.86908 0.0
C1246 C 0.17965 0.09912 0.90527 0.0
H1247 H 0.15885 0.13835 0.83888 0.0
H1248 H 0.1962 0.11906 0.84041 0.0
S1249 S 0.12692 0.08183 0.01109 0.0
N1250 N 0.11563 0.10052 0.97917 0.0
N1251 N 0.15594 0.07968 0.98033 0.0
C1252 C 0.15754 0.0945 0.94142 0.0
C1253 C 0.13561 0.1058 0.94072 0.0
C1254 C 0.89394 0.86893 0.58369 0.0
C1255 C 0.89428 0.85291 0.62028 0.0
C1256 C 0.91494 0.88055 0.58434 0.0
C1257 C 0.93701 0.87662 0.62187 0.0
H1258 H 0.87747 0.87235 0.5536 0.0
H1259 H 0.91401 0.89262 0.55472 0.0
S1260 S 0.94595 0.83748 0.73343 0.0
N1261 N 0.91763 0.83444 0.69935 0.0
N1262 N 0.95678 0.85627 0.7014 0.0
C1263 C 0.93723 0.86086 0.66012 0.0
C1264 C 0.91596 0.84902 0.65915 0.0
C1265 C 0.93498 0.86849 0.19018 0.0
C1266 C 0.93514 0.85233 0.15457 0.0
C1267 C 0.91358 0.87974 0.1893 0.0
C1268 C 0.89152 0.87533 0.15249 0.0
H1269 H 0.95143 0.87234 0.21961 0.0
H1270 H 0.91422 0.89195 0.21811 0.0
S1271 S 0.88352 0.83552 0.04406 0.0
N1272 N 0.91208 0.83313 0.07748 0.0
N1273 N 0.87216 0.85426 0.0751 0.0
C1274 C 0.8917 0.85937 0.11547 0.0
C1275 C 0.91341 0.8479 0.11665 0.0
C1276 C 0.15598 0.63542 0.84478 0.0
C1277 C 0.17942 0.62983 0.87231 0.0
C1278 C 0.13339 0.62584 0.85607 0.0
C1279 C 0.1333 0.61038 0.89589 0.0
H1280 H 0.15503 0.6475 0.81521 0.0
H1281 H 0.1157 0.63099 0.83609 0.0
S1282 S 0.18968 0.58928 0.97539 0.0
N1283 N 0.2011 0.60729 0.93869 0.0
N1284 N 0.15895 0.58911 0.95832 0.0
C1285 C 0.15676 0.6042 0.92112 0.0
C1286 C 0.17972 0.61394 0.90969 0.0
C1287 C 0.1501 0.63052 0.40835 0.0
C1288 C 0.12683 0.62159 0.3992 0.0
C1289 C 0.17341 0.62149 0.40246 0.0
C1290 C 0.17406 0.60336 0.3855 0.0
H1291 H 0.15021 0.64479 0.41537 0.0
H1292 H 0.19095 0.62899 0.40531 0.0
S1293 S 0.11846 0.57381 0.36163 0.0
N1294 N 0.10588 0.59348 0.37787 0.0
N1295 N 0.14963 0.57656 0.36497 0.0
C1296 C 0.15094 0.59411 0.38052 0.0
C1297 C 0.1273 0.60322 0.38783 0.0
C1298 C 0.93235 0.35839 0.13756 0.0
C1299 C 0.92956 0.37638 0.11937 0.0
C1300 C 0.91125 0.3473 0.14735 0.0
C1301 C 0.88613 0.35346 0.13832 0.0
H1302 H 0.95104 0.35257 0.14309 0.0
H1303 H 0.91483 0.33366 0.16173 0.0
S1304 S 0.86786 0.39979 0.0948 0.0
N1305 N 0.89921 0.40024 0.09814 0.0
N1306 N 0.85974 0.37907 0.11147 0.0
C1307 C 0.88291 0.37151 0.12136 0.0
C1308 C 0.90449 0.383 0.11284 0.0
C1309 C 0.92433 0.35802 0.60507 0.0
C1310 C 0.93006 0.34297 0.64465 0.0
C1311 C 0.90146 0.36751 0.61432 0.0
C1312 C 0.88392 0.36241 0.6642 0.0
H1313 H 0.93754 0.36235 0.56658 0.0
H1314 H 0.89779 0.37918 0.58387 0.0
S1315 S 0.89012 0.32433 0.78147 0.0
N1316 N 0.91628 0.3236 0.73552 0.0
N1317 N 0.8737 0.34149 0.75312 0.0
C1318 C 0.88945 0.34742 0.70371 0.0
C1319 C 0.91241 0.33769 0.69388 0.0
C1320 C 0.63795 0.11497 0.88528 0.0
C1321 C 0.63698 0.10082 0.83922 0.0
C1322 C 0.6597 0.12575 0.89063 0.0
C1323 C 0.68133 0.12288 0.84993 0.0
H1324 H 0.62199 0.11745 0.91843 0.0
H1325 H 0.65968 0.13634 0.92751 0.0
S1326 S 0.68735 0.08867 0.7165 0.0
N1327 N 0.65888 0.0852 0.74912 0.0
N1328 N 0.69956 0.10552 0.75888 0.0
C1329 C 0.68039 0.10897 0.8028 0.0
C1330 C 0.65827 0.09797 0.79745 0.0
C1331 C 0.6825 0.12797 0.36816 0.0
C1332 C 0.68355 0.10947 0.37614 0.0
C1333 C 0.65909 0.13682 0.36631 0.0
C1334 C 0.63613 0.12741 0.37302 0.0
H1335 H 0.69968 0.13532 0.35669 0.0
H1336 H 0.65874 0.15086 0.35411 0.0
S1337 S 0.62918 0.07909 0.40289 0.0
N1338 N 0.66022 0.08224 0.39677 0.0
N1339 N 0.61602 0.09893 0.39472 0.0
C1340 C 0.63712 0.10917 0.38759 0.0
C1341 C 0.66096 0.10016 0.38865 0.0
C1342 C 0.41515 0.85508 0.09252 0.0
C1343 C 0.39125 0.85919 0.12096 0.0
C1344 C 0.43716 0.86473 0.10937 0.0
C1345 C 0.43615 0.87899 0.15495 0.0
H1346 H 0.41675 0.84455 0.05563 0.0
H1347 H 0.45484 0.86154 0.08419 0.0
S1348 S 0.37904 0.89412 0.24883 0.0
N1349 N 0.36847 0.87787 0.20052 0.0
N1350 N 0.4098 0.89571 0.23305 0.0
C1351 C 0.4127 0.88267 0.18638 0.0
C1352 C 0.39029 0.87283 0.16934 0.0
C1353 C 0.43677 0.87132 0.61084 0.0
C1354 C 0.43623 0.85721 0.65734 0.0
C1355 C 0.41457 0.88078 0.59442 0.0
C1356 C 0.39086 0.87645 0.62335 0.0
H1357 H 0.45467 0.87561 0.58933 0.0
H1358 H 0.41608 0.89187 0.55985 0.0
S1359 S 0.37871 0.83947 0.74281 0.0
N1360 N 0.40954 0.83834 0.72747 0.0
N1361 N 0.36806 0.8564 0.69793 0.0
C1362 C 0.38983 0.86181 0.66732 0.0
C1363 C 0.41244 0.85216 0.68405 0.0
C1364 C 0.63038 0.61602 0.41439 0.0
C1365 C 0.63107 0.60096 0.37249 0.0
C1366 C 0.65174 0.62711 0.42144 0.0
C1367 C 0.67457 0.6236 0.38674 0.0
H1368 H 0.61332 0.61908 0.44264 0.0
H1369 H 0.65047 0.63847 0.45471 0.0
S1370 S 0.68516 0.58698 0.26478 0.0
N1371 N 0.65585 0.58383 0.29217 0.0
N1372 N 0.69578 0.6047 0.30491 0.0
C1373 C 0.6753 0.60877 0.34365 0.0
C1374 C 0.65361 0.59746 0.33663 0.0
C1375 C 0.63345 0.60359 0.88517 0.0
C1376 C 0.63407 0.61866 0.8432 0.0
C1377 C 0.65534 0.59323 0.89589 0.0
C1378 C 0.67878 0.59762 0.86559 0.0
H1379 H 0.61571 0.59941 0.90791 0.0
H1380 H 0.65387 0.5816 0.92778 0.0
S1381 S 0.69086 0.63642 0.7545 0.0
N1382 N 0.66046 0.63806 0.77445 0.0
N1383 N 0.70128 0.61839 0.79312 0.0
C1384 C 0.67981 0.61297 0.82519 0.0
C1385 C 0.65755 0.62351 0.81431 0.0
C1386 C 0.4091 0.37273 0.57122 0.0
C1387 C 0.43295 0.36772 0.59761 0.0
C1388 C 0.38708 0.36271 0.58393 0.0
C1389 C 0.38803 0.34715 0.62306 0.0
H1390 H 0.40753 0.38435 0.53924 0.0
H1391 H 0.36937 0.36679 0.56078 0.0
S1392 S 0.44522 0.32904 0.70895 0.0
N1393 N 0.45582 0.34665 0.66796 0.0
N1394 N 0.41443 0.32801 0.69294 0.0
C1395 C 0.41153 0.34239 0.65221 0.0
C1396 C 0.43396 0.35265 0.63941 0.0
C1397 C 0.3882 0.35715 0.11533 0.0
C1398 C 0.39052 0.37483 0.13774 0.0
C1399 C 0.40963 0.3466 0.10227 0.0
C1400 C 0.43459 0.353 0.11196 0.0
H1401 H 0.36967 0.35116 0.10894 0.0
H1402 H 0.40643 0.33318 0.08468 0.0
S1403 S 0.45154 0.39878 0.16628 0.0
N1404 N 0.42019 0.39876 0.16375 0.0
N1405 N 0.46024 0.37852 0.1445 0.0
C1406 C 0.4373 0.37078 0.13332 0.0
C1407 C 0.41538 0.38172 0.14512 0.0
C1408 C 0.05231 0.97864 0.48789 0.0
C1409 C 0.05907 0.97298 0.55288 0.0
C1410 C 0.05309 -0.00337 0.47067 0.0
C1411 C 0.06061 0.00951 0.51791 0.0
H1412 H 0.0451 0.96924 0.45123 0.0
H1413 H 0.04657 0.00057 0.42106 0.0
S1414 S 0.08386 0.00126 0.69112 0.0
N1415 N 0.07642 0.98136 0.66203 0.0
N1416 N 0.07742 0.01536 0.6296 0.0
C1417 C 0.06877 0.00397 0.58172 0.0
C1418 C 0.06816 0.98562 0.5992 0.0
C1419 C 0.25008 0.2281 0.52127 0.0
C1420 C 0.27263 0.21805 0.51926 0.0
C1421 C 0.25059 0.24609 0.53927 0.0
C1422 C 0.27365 0.25439 0.55577 0.0
H1423 H 0.23197 0.22197 0.50958 0.0
H1424 H 0.23289 0.25344 0.54157 0.0
S1425 S 0.33803 0.23445 0.55131 0.0
N1426 N 0.31873 0.21807 0.53009 0.0
N1427 N 0.31956 0.25183 0.56496 0.0
C1428 C 0.29632 0.24463 0.55239 0.0
C1429 C 0.29584 0.22643 0.5339 0.0
C1430 C 1.03259 0.25278 0.79106 0.0
C1431 C 0.04631 0.25611 0.73165 0.0
C1432 C 1.03035 0.23554 0.81677 0.0
C1433 C 0.04176 0.22104 0.78392 0.0
H1434 H 1.02293 0.26352 0.8169 0.0
H1435 H 1.01927 0.23351 0.86214 0.0
S1436 S 0.08163 0.22295 0.63009 0.0
N1437 N 0.07273 0.24373 0.64282 0.0
N1438 N 0.06855 0.21122 0.69136 0.0
C1439 C 0.05598 0.22422 0.72525 0.0
C1440 C 0.05828 0.24179 0.69909 0.0
C1441 C 0.27475 0.98514 0.69174 0.0
C1442 C 0.28681 0.97081 0.72407 0.0
C1443 C 0.27557 0.00224 0.7193 0.0
C1444 C 0.2885 0.00552 0.77998 0.0
H1445 H 0.26434 0.98308 0.6453 0.0
H1446 H 0.26559 0.01288 0.6937 0.0
S1447 S 0.32509 0.9728 0.88071 0.0
N1448 N 0.31334 0.96115 0.81749 0.0
N1449 N 0.31492 -0.00664 0.86937 0.0
C1450 C 0.30108 -0.00862 0.81203 0.0
C1451 C 0.30021 0.97398 0.78406 0.0
C1452 C 0.79169 0.73401 0.45197 0.0
C1453 C 0.78062 0.72068 0.49219 0.0
C1454 C 0.79137 0.7518 0.4722 0.0
C1455 C 0.78005 0.75677 0.53333 0.0
H1456 H 0.80097 0.73062 0.40498 0.0
H1457 H 0.80063 0.76165 0.44081 0.0
S1458 S 0.74663 0.72725 0.65383 0.0
N1459 N 0.75663 0.71381 0.59365 0.0
N1460 N 0.75634 0.74734 0.63215 0.0
C1461 C 0.76847 0.74367 0.57333 0.0
C1462 C 0.76872 0.72558 0.55269 0.0
C1463 C 0.05851 0.72763 0.22999 0.0
C1464 C 0.04819 0.72333 0.2931 0.0
C1465 C 0.06014 0.74534 0.20885 0.0
C1466 C 0.05127 0.75926 0.24996 0.0
H1467 H 0.06509 0.71723 0.19654 0.0
H1468 H 0.06786 0.74814 0.15937 0.0
S1469 S 1.0221 0.75474 0.41916 0.0
N1470 N 1.02901 0.73418 0.39656 0.0
N1471 N 1.03167 0.76751 0.3564 0.0
C1472 C 0.04137 0.75511 0.31377 0.0
C1473 C 0.03987 0.7371 0.3354 0.0
C1474 C 0.7581 0.98266 0.17351 0.0
C1475 C 0.76782 0.97078 0.22196 0.0
C1476 C 0.75542 0.00076 0.18793 0.0
C1477 C 0.76204 0.00741 0.25147 0.0
H1478 H 0.75315 0.97801 0.12357 0.0
H1479 H 0.7486 0.00964 0.14892 0.0
S1480 S 0.78834 0.98194 0.39547 0.0
N1481 N 0.78406 0.96698 0.33575 0.0
N1482 N 0.77854 0.00099 0.36327 0.0
C1483 C 0.771 -0.00437 0.301 0.0
C1484 C 0.77394 0.97726 0.28619 0.0
C1485 C 0.04446 0.47943 0.9701 0.0
C1486 C 0.04795 0.47342 0.03636 0.0
C1487 C 0.04569 0.49757 0.95488 0.0
C1488 C 0.05058 0.51026 0.00539 0.0
H1489 H 0.03969 0.47014 0.93038 0.0
H1490 H 0.0418 0.50174 0.90365 0.0
S1491 S 0.06453 0.50091 0.18494 0.0
N1492 N 0.05883 0.48119 0.15165 0.0
N1493 N 0.06136 0.51537 0.12283 0.0
C1494 C 0.05533 0.50429 0.07121 0.0
C1495 C 0.054 0.48583 0.08673 0.0
C1496 C 0.31388 0.73357 0.91911 0.0
C1497 C 0.30153 0.72144 0.96225 0.0
C1498 C 0.31631 0.7515 0.93653 0.0
C1499 C 0.30686 0.75777 0.99807 0.0
H1500 H 0.32122 0.72924 0.87085 0.0
H1501 H 0.32527 0.76057 0.90135 0.0
S1502 S 0.27312 0.73167 0.12874 0.0
N1503 N 0.27972 0.7171 0.06909 0.0
N1504 N 0.285 0.75079 0.10253 0.0
C1505 C 0.29523 0.74577 0.0426 0.0
C1506 C 0.29245 0.72757 0.0246 0.0
C1507 C 0.24813 0.49625 0.25223 0.0
C1508 C 0.26922 0.5073 0.26334 0.0
C1509 C 0.25144 0.47804 0.24087 0.0
C1510 C 0.2759 0.47047 0.24106 0.0
H1511 H 0.22912 0.5018 0.251 0.0
H1512 H 0.23491 0.46994 0.22989 0.0
S1513 S 0.33668 0.49357 0.27706 0.0
N1514 N 0.31491 0.50937 0.27989 0.0
N1515 N 0.32116 0.47506 0.25956 0.0
C1516 C 0.29695 0.48132 0.25518 0.0
C1517 C 0.2936 0.4998 0.26608 0.0
C1518 C 0.80397 0.22687 0.01049 0.0
C1519 C 0.78211 0.22001 0.97937 0.0
C1520 C 0.80413 0.24411 0.03681 0.0
C1521 C 0.78241 0.25499 0.03298 0.0
H1522 H 0.82118 0.21898 0.01347 0.0
H1523 H 0.82147 0.24904 0.05969 0.0
S1524 S 0.71977 0.24257 0.96146 0.0
N1525 N 0.73784 0.22491 0.94918 0.0
N1526 N 0.73809 0.25734 0.99925 0.0
C1527 C 0.76031 0.24816 1.00298 0.0
C1528 C 0.76016 0.23063 0.97607 0.0
C1529 C 0.81789 0.49651 0.77955 0.0
C1530 C 0.7943 0.50514 0.78421 0.0
C1531 C 0.81911 0.47825 0.76577 0.0
C1532 C 0.79676 0.46823 0.75669 0.0
H1533 H 0.83533 0.50377 0.78893 0.0
H1534 H 0.83755 0.47185 0.76391 0.0
S1535 S 0.73064 0.48543 0.75654 0.0
N1536 N 0.74842 0.50292 0.77415 0.0
N1537 N 0.75061 0.46868 0.74701 0.0
C1538 C 0.77317 0.47699 0.75849 0.0
C1539 C 0.77197 0.49547 0.77258 0.0
C1540 C 0.52531 -0.00766 0.9581 0.0
C1541 C 0.53687 0.00727 0.98771 0.0
C1542 C 0.52735 0.97553 0.98767 0.0
C1543 C 0.541 0.97309 0.04783 0.0
H1544 H 0.51451 -0.00631 0.91189 0.0
H1545 H 0.51789 0.9644 0.96378 0.0
S1546 S 0.57606 0.0077 0.14295 0.0
N1547 N 0.56326 0.01847 0.07883 0.0
N1548 N 0.56708 0.98677 0.13465 0.0
C1549 C 0.55278 0.98787 0.07775 0.0
C1550 C 0.5507 0.005 0.04764 0.0
C1551 C 0.53935 0.23409 0.27655 0.0
C1552 C 0.5484 0.22048 0.23445 0.0
C1553 C 0.53951 0.25179 0.2552 0.0
C1554 C 0.54879 0.2564 0.19121 0.0
H1555 H 0.53133 0.23095 0.32541 0.0
H1556 H 0.5314 0.26183 0.28791 0.0
S1557 S 0.57771 0.22588 0.06613 0.0
N1558 N 0.56889 0.21281 0.12882 0.0
N1559 N 0.56958 0.24623 0.08872 0.0
C1560 C 0.55902 0.24299 0.14999 0.0
C1561 C 0.5587 0.22497 0.1716 0.0
C1562 C 0.51627 0.72954 0.76979 0.0
C1563 C 0.54015 0.72144 0.76073 0.0
C1564 C 0.51369 0.74802 0.76779 0.0
C1565 C 0.53493 0.75898 0.75725 0.0
H1566 H 0.49955 0.72154 0.77987 0.0
H1567 H 0.495 0.7538 0.77481 0.0
S1568 S 0.60118 0.7443 0.72564 0.0
N1569 N 0.58512 0.72568 0.73742 0.0
N1570 N 0.58027 0.76054 0.73382 0.0
C1571 C 0.55884 0.75107 0.74725 0.0
C1572 C 0.56145 0.73226 0.74897 0.0
C1573 C 0.50513 0.49376 0.40376 0.0
C1574 C 0.51498 0.50656 0.4485 0.0
C1575 C 0.50532 0.47567 0.42016 0.0
C1576 C 0.51503 0.46989 0.48213 0.0
H1577 H 0.49761 0.49773 0.35521 0.0
H1578 H 0.49796 0.46615 0.38415 0.0
S1579 S 0.54329 0.4978 0.6164 0.0
N1580 N 0.53504 0.51205 0.55696 0.0
N1581 N 0.53474 0.47802 0.58841 0.0
C1582 C 0.52441 0.48249 0.52794 0.0
C1583 C 0.52447 0.50087 0.51105 0.0
C1584 C 0.92071 0.06409 0.44363 0.0
C1585 C 0.93412 0.07346 0.39389 0.0
C1586 C 0.89412 0.06409 0.44496 0.0
C1587 C 0.87989 0.0733 0.39606 0.0
H1588 H 0.93095 0.0561 0.48007 0.0
H1589 H 0.88457 0.05618 0.48288 0.0
S1590 S 0.90632 0.10072 0.2573 0.0
N1591 N 0.93167 0.09303 0.29709 0.0
N1592 N 0.88141 0.09287 0.2985 0.0
C1593 C 0.89314 0.08357 0.34821 0.0
C1594 C 0.92037 0.08365 0.34729 0.0
C1595 C 0.41911 0.14415 0.43609 0.0
C1596 C 0.43447 0.14258 0.37846 0.0
C1597 C 0.39252 0.14369 0.43115 0.0
C1598 C 0.38057 0.14194 0.3683 0.0
H1599 H 0.42774 0.14695 0.48446 0.0
H1600 H 0.38121 0.14623 0.47571 0.0
S1601 S 0.41213 0.13601 0.20343 0.0
N1602 N 0.43585 0.13777 0.25769 0.0
N1603 N 0.38573 0.13743 0.24831 0.0
C1604 C 0.39565 0.13922 0.31108 0.0
C1605 C 0.42271 0.13937 0.31621 0.0
C1606 C 0.92887 0.14732 0.83721 0.0
C1607 C 0.93492 0.14696 0.90613 0.0
C1608 C 0.90345 0.14727 0.81531 0.0
C1609 C 0.88298 0.14683 0.86132 0.0
H1610 H 0.94383 0.14846 0.80002 0.0
H1611 H 0.89981 0.14802 0.76173 0.0
S1612 S 0.88887 0.14332 0.04732 0.0
N1613 N 0.91852 0.14402 0.02009 0.0
N1614 N 0.87089 0.14458 0.97934 0.0
C1615 C 0.88886 0.14542 0.93032 0.0
C1616 C 0.91477 0.14538 0.95256 0.0
C1617 C 0.38855 0.07984 0.83593 0.0
C1618 C 0.38259 0.08184 0.90449 0.0
C1619 C 0.41391 0.07949 0.81372 0.0
C1620 C 0.43453 0.08108 0.859 0.0
H1621 H 0.37356 0.07769 0.79944 0.0
H1622 H 0.41739 0.07745 0.76057 0.0
S1623 S 0.42903 0.08937 0.04278 0.0
N1624 N 0.39931 0.08785 0.01648 0.0
N1625 N 0.44687 0.08642 0.97531 0.0
C1626 C 0.42878 0.08423 0.92719 0.0
C1627 C 0.40289 0.08474 0.94975 0.0
C1628 C 0.18187 0.8873 0.65254 0.0
C1629 C 0.18882 0.89851 0.59872 0.0
C1630 C 0.15647 0.88614 0.67444 0.0
C1631 C 0.13705 0.89593 0.6427 0.0
H1632 H 0.1961 0.87922 0.67734 0.0
H1633 H 0.15188 0.87744 0.71622 0.0
S1634 S 0.14527 0.92886 0.50581 0.0
N1635 N 0.17415 0.92097 0.51905 0.0
N1636 N 0.12657 0.91814 0.55884 0.0
C1637 C 0.1437 0.90738 0.58987 0.0
C1638 C 0.16953 0.90883 0.56825 0.0
C1639 C 0.68265 0.82804 0.59701 0.0
C1640 C 0.6929 0.8367 0.65348 0.0
C1641 C 0.65614 0.8267 0.588 0.0
C1642 C 0.63888 0.83415 0.63466 0.0
H1643 H 0.69515 0.82127 0.56209 0.0
H1644 H 0.64905 0.81912 0.54563 0.0
S1645 S 0.65651 0.86009 0.7866 0.0
N1646 N 0.68403 0.85425 0.75319 0.0
N1647 N 0.63445 0.85185 0.73634 0.0
C1648 C 0.64907 0.84395 0.68863 0.0
C1649 C 0.67599 0.84516 0.69806 0.0
C1650 C 0.1806 0.84156 0.14542 0.0
C1651 C 0.19131 0.82459 0.13443 0.0
C1652 C 0.15412 0.84446 0.13942 0.0
C1653 C 0.13753 0.8305 0.12226 0.0
H1654 H 0.19277 0.85267 0.15805 0.0
H1655 H 0.14668 0.85777 0.14575 0.0
S1656 S 0.15544 0.78392 0.08596 0.0
N1657 N 0.18266 0.79383 0.10343 0.0
N1658 N 0.13338 0.79937 0.09416 0.0
C1659 C 0.14787 0.81355 0.11222 0.0
C1660 C 0.1746 0.81057 0.11781 0.0
C1661 C 0.67078 0.88581 0.10057 0.0
C1662 C 0.6906 0.89527 0.13202 0.0
C1663 C 0.64537 0.88769 0.12179 0.0
C1664 C 0.63878 0.89931 0.1746 0.0
H1665 H 0.67504 0.87684 0.05947 0.0
H1666 H 0.63083 0.87985 0.09725 0.0
S1667 S 0.68356 0.92899 0.2664 0.0
N1668 N 0.70189 0.91759 0.21458 0.0
N1669 N 0.65434 0.92174 0.25304 0.0
C1670 C 0.65851 0.90928 0.20481 0.0
C1671 C 0.68433 0.9071 0.18391 0.0
C1672 C 0.92494 0.59177 0.91124 0.0
C1673 C 0.93342 0.58106 0.8577 0.0
C1674 C 0.89894 0.59334 0.92617 0.0
C1675 C 0.88034 0.58454 0.88755 0.0
H1676 H 0.93853 0.59806 0.94451 0.0
H1677 H 0.89333 0.60092 0.97006 0.0
S1678 S 0.89235 0.55669 0.73699 0.0
N1679 N 0.92098 0.56289 0.76203 0.0
N1680 N 0.87211 0.5659 0.79018 0.0
C1681 C 0.88842 0.57481 0.83109 0.0
C1682 C 0.91494 0.57304 0.81625 0.0
C1683 C 0.39706 0.63537 0.88075 0.0
C1684 C 0.38204 0.64982 0.85986 0.0
C1685 C 0.42325 0.63755 0.89406 0.0
C1686 C 0.43513 0.65427 0.88731 0.0
H1687 H 0.38871 0.62224 0.88423 0.0
H1688 H 0.43436 0.62607 0.90884 0.0
S1689 S 0.40353 0.6961 0.83288 0.0
N1690 N 0.38051 0.68118 0.83325 0.0
N1691 N 0.42939 0.68542 0.85716 0.0
C1692 C 0.41994 0.66883 0.86755 0.0
C1693 C 0.39349 0.66655 0.85408 0.0
C1694 C 0.91689 0.63837 0.43894 0.0
C1695 C 0.92764 0.6555 0.43346 0.0
C1696 C 0.89099 0.63533 0.42422 0.0
C1697 C 0.87507 0.64931 0.40345 0.0
H1698 H 0.92868 0.62722 0.45356 0.0
H1699 H 0.88359 0.62191 0.42644 0.0
S1700 S 0.89336 0.69636 0.37925 0.0
N1701 N 0.9198 0.68651 0.40415 0.0
N1702 N 0.87144 0.68065 0.37824 0.0
C1703 C 0.88534 0.66644 0.39909 0.0
C1704 C 0.91152 0.66958 0.4137 0.0
C1705 C 0.39536 0.57535 0.42276 0.0
C1706 C 0.37646 0.58341 0.3825 0.0
C1707 C 0.42138 0.57734 0.40813 0.0
C1708 C 0.42942 0.5873 0.35219 0.0
H1709 H 0.38991 0.56677 0.46411 0.0
H1710 H 0.43517 0.57008 0.43793 0.0
S1711 S 0.38823 0.6129 0.23571 0.0
N1712 N 0.36815 0.60322 0.2881 0.0
N1713 N 0.4169 0.60682 0.26072 0.0
C1714 C 0.41094 0.59641 0.31444 0.0
C1715 C 0.3845 0.59455 0.32962 0.0
C1716 C 0.14214 0.39192 0.08062 0.0
C1717 C 0.13281 0.39174 0.1469 0.0
C1718 C 0.16845 0.39192 0.06769 0.0
C1719 C 0.18648 0.39163 0.12044 0.0
H1720 H 0.12909 0.39316 0.03869 0.0
H1721 H 0.17477 0.39287 0.01592 0.0
S1722 S 0.17162 0.38868 0.30273 0.0
N1723 N 0.14352 0.38923 0.26561 0.0
N1724 N 0.1928 0.3896 0.24143 0.0
C1725 C 0.17731 0.3902 0.18672 0.0
C1726 C 0.15054 0.3902 0.19987 0.0
C1727 C 0.65659 0.33279 0.05784 0.0
C1728 C 0.63525 0.33212 0.10083 0.0
C1729 C 0.68149 0.33194 0.08311 0.0
C1730 C 0.6862 0.3304 0.1526 0.0
H1731 H 0.65402 0.33357 1.00383 0.0
H1732 H 0.69712 0.33176 0.04763 0.0
S1733 S 0.63735 0.33028 0.28777 0.0
N1734 N 0.62078 0.33101 0.21722 0.0
N1735 N 0.66751 0.33024 0.26464 0.0
C1736 C 0.66514 0.33078 0.19652 0.0
C1737 C 0.63973 0.33148 0.17075 0.0
C1738 C 0.17786 0.34335 0.60673 0.0
C1739 C 0.18533 0.33245 0.66089 0.0
C1740 C 0.15232 0.34421 0.58596 0.0
C1741 C 0.13324 0.33433 0.61885 0.0
H1742 H 0.19184 0.35137 0.58061 0.0
H1743 H 0.14739 0.35268 0.54378 0.0
S1744 S 0.14296 0.30232 0.75832 0.0
N1745 N 0.17158 0.31044 0.74335 0.0
N1746 N 0.12373 0.31248 0.70504 0.0
C1747 C 0.14042 0.32327 0.67247 0.0
C1748 C 0.1664 0.32222 0.69325 0.0
C1749 C 0.6472 0.40756 0.68029 0.0
C1750 C 0.63241 0.40009 0.62832 0.0
C1751 C 0.67387 0.40692 0.67877 0.0
C1752 C 0.68686 0.39869 0.62549 0.0
H1753 H 0.63806 0.41465 0.72109 0.0
H1754 H 0.68452 0.41367 0.71781 0.0
S1755 S 0.65754 0.37631 0.47882 0.0
N1756 N 0.63303 0.38343 0.52343 0.0
N1757 N 0.68328 0.38226 0.52105 0.0
C1758 C 0.67249 0.39035 0.57503 0.0
C1759 C 0.64522 0.39098 0.57644 0.0
C1760 C 0.03915 0.12265 0.22389 0.0
C1761 C 1.03095 0.10492 0.22358 0.0
C1762 C 0.0431 0.13189 0.16337 0.0
C1763 C 0.03886 0.12383 0.10003 0.0
H1764 H 0.04348 0.12923 0.27103 0.0
H1765 H 0.04981 0.14548 0.16658 0.0
S1766 S 1.01513 0.078 0.07225 0.0
N1767 N 1.01718 0.07988 0.15492 0.0
N1768 N 1.02455 0.0973 0.04148 0.0
C1769 C 1.02985 0.10627 0.0992 0.0
C1770 C 1.02589 0.09683 0.16084 0.0
C1771 C 0.26564 0.09414 0.15842 0.0
C1772 C 0.27242 0.10189 0.09607 0.0
C1773 C 0.26849 0.10336 0.21932 0.0
C1774 C 0.27806 0.12074 0.22019 0.0
H1775 H 0.25796 0.08079 0.16049 0.0
H1776 H 0.2625 0.09701 0.2657 0.0
S1777 S 0.30017 0.14678 0.07211 0.0
N1778 N 0.29022 0.12779 0.03994 0.0
N1779 N 0.29551 0.14516 0.1541 0.0
C1780 C 0.28533 0.12858 0.15853 0.0
C1781 C 0.28249 0.11917 0.09657 0.0
C1782 C 1.01999 0.87374 0.95023 0.0
C1783 C 1.01811 0.85516 0.95113 0.0
C1784 C 1.02042 0.88309 0.88922 0.0
C1785 C 1.01934 0.87424 0.82659 0.0
H1786 H 1.02125 0.88114 0.99691 0.0
H1787 H 1.02211 0.89743 0.89144 0.0
S1788 S 1.01396 0.82566 0.80075 0.0
N1789 N 1.0147 0.82815 0.88332 0.0
N1790 N 1.01591 0.84591 0.76916 0.0
C1791 C 1.0173 0.85569 0.82657 0.0
C1792 C 1.01654 0.84612 0.88869 0.0
C1793 C 0.80773 0.87219 0.8238 0.0
C1794 C 0.80999 0.85363 0.82295 0.0
C1795 C 0.80714 0.88151 0.88479 0.0
C1796 C 0.80845 0.87264 0.9474 0.0
H1797 H 0.80634 0.87959 0.77711 0.0
H1798 H 0.80519 0.89584 0.88259 0.0
S1799 S 0.81472 0.82411 0.97335 0.0
N1800 N 0.81386 0.82662 0.89079 0.0
N1801 N 0.81242 0.84433 0.0049 0.0
C1802 C 0.8108 0.85412 0.94747 0.0
C1803 C 0.81168 0.84458 0.88539 0.0
C1804 C 1.03319 0.6255 0.70924 0.0
C1805 C 1.03153 0.60693 0.71206 0.0
C1806 C 1.03254 0.63449 0.64726 0.0
C1807 C 1.03004 0.62531 0.58537 0.0
H1808 H 0.03579 0.63314 0.75497 0.0
H1809 H 1.03442 0.64882 0.64815 0.0
S1810 S 1.02237 0.57665 0.56567 0.0
N1811 N 1.02533 0.57964 0.64767 0.0
N1812 N 1.02422 0.59665 0.53169 0.0
C1813 C 1.02732 0.6068 0.58768 0.0
C1814 C 1.02806 0.5976 0.65081 0.0
C1815 C 0.27889 0.6084 0.66302 0.0
C1816 C 0.26773 0.62535 0.66485 0.0
C1817 C 0.28182 0.59928 0.60201 0.0
C1818 C 0.27392 0.6068 0.54038 0.0
H1819 H 0.28568 0.60218 0.70886 0.0
H1820 H 0.29038 0.58618 0.60321 0.0
S1821 S 0.24235 0.65037 0.51744 0.0
N1822 N 0.24776 0.64902 0.5992 0.0
N1823 N 0.25373 0.63182 0.48491 0.0
C1824 C 0.2627 0.62367 0.54124 0.0
C1825 C 0.25942 0.63292 0.6034 0.0
C1826 C 1.02245 0.37046 0.42662 0.0
C1827 C 1.01588 0.35238 0.42635 0.0
C1828 C 1.02416 0.38014 0.3664 0.0
C1829 C 1.01963 0.37213 0.30326 0.0
H1830 H 1.02664 0.37718 0.47357 0.0
H1831 H 1.02944 0.39404 0.36945 0.0
S1832 S 1.00046 0.32542 0.27423 0.0
N1833 N 1.00368 0.32698 0.35674 0.0
N1834 N 1.00742 0.34529 0.24411 0.0
C1835 C 1.01281 0.35415 0.302 0.0
C1836 C 1.01074 0.34427 0.36336 0.0
C1837 C 0.79726 0.34257 0.41181 0.0
C1838 C 0.79329 0.35112 0.34921 0.0
C1839 C 0.79512 0.35177 0.47302 0.0
C1840 C 0.78912 0.36991 0.47405 0.0
H1841 H 0.80225 0.32861 0.41389 0.0
H1842 H 0.79895 0.34473 0.51958 0.0
S1843 S 0.77504 0.39831 0.32516 0.0
N1844 N 0.78175 0.37865 0.29288 0.0
N1845 N 0.77776 0.39597 0.40753 0.0
C1846 C 0.78448 0.37855 0.41207 0.0
C1847 C 0.78657 0.36917 0.34979 0.0
C1848 C 0.53309 0.11796 0.65083 0.0
C1849 C 0.54162 0.10028 0.6501 0.0
C1850 C 0.5307 0.12773 0.59097 0.0
C1851 C 0.53665 0.12024 0.52774 0.0
H1852 H 0.52813 0.12433 0.69792 0.0
H1853 H 0.52418 0.14136 0.5945 0.0
S1854 S 0.56047 0.0746 0.49765 0.0
N1855 N 0.55648 0.07571 0.58002 0.0
N1856 N 0.55183 0.09421 0.46806 0.0
C1857 C 0.54508 0.10258 0.52599 0.0
C1858 C 0.54766 0.0926 0.587 0.0
C1859 C 0.77384 0.13176 0.59822 0.0
C1860 C 0.77693 0.12342 0.66156 0.0
C1861 C 0.77647 0.12231 0.53773 0.0
C1862 C 0.78213 0.1041 0.53809 0.0
H1863 H 0.76913 0.14575 0.59499 0.0
H1864 H 0.77323 0.1292 0.49056 0.0
S1865 S 0.79383 0.07614 0.68963 0.0
N1866 N 0.78721 0.096 0.72026 0.0
N1867 N 0.79217 0.07819 0.60695 0.0
C1868 C 0.78593 0.09566 0.60089 0.0
C1869 C 0.78332 0.10531 0.66248 0.0
C1870 C 0.52403 0.87534 0.48738 0.0
C1871 C 0.53436 0.85818 0.48904 0.0
C1872 C 0.52032 0.88418 0.42594 0.0
C1873 C 0.527 0.87627 0.36382 0.0
H1874 H 0.51805 0.88176 0.53357 0.0
H1875 H 0.51208 0.89737 0.42745 0.0
S1876 S 0.55637 0.83183 0.34188 0.0
N1877 N 0.55227 0.83378 0.42398 0.0
N1878 N 0.54545 0.85047 0.30877 0.0
C1879 C 0.53783 0.85922 0.36512 0.0
C1880 C 0.5415 0.85019 0.42764 0.0
C1881 C 0.30706 0.88169 0.34617 0.0
C1882 C 0.30018 0.8739 0.40842 0.0
C1883 C 0.30331 0.8728 0.28489 0.0
C1884 C 0.29276 0.8557 0.28355 0.0
H1885 H 0.31555 0.8948 0.34445 0.0
H1886 H 0.30957 0.87908 0.23864 0.0
S1887 S 0.27016 0.82967 0.43096 0.0
N1888 N 0.28123 0.84828 0.46381 0.0
N1889 N 0.27443 0.8315 0.34886 0.0
C1890 C 0.28538 0.84785 0.345 0.0
C1891 C 0.28906 0.85693 0.40736 0.0
C1892 C 0.54556 0.60548 0.0402 0.0
C1893 C 0.53952 0.62359 0.03727 0.0
C1894 C 0.54746 0.59669 0.1023 0.0
C1895 C 0.54309 0.6056 0.16399 0.0
H1896 H 0.54953 0.59816 0.99441 0.0
H1897 H 0.55238 0.58272 0.10155 0.0
S1898 S 0.525 0.65294 0.18291 0.0
N1899 N 0.52811 0.6501 0.10087 0.0
N1900 N 0.53144 0.63347 0.21735 0.0
C1901 C 0.53651 0.62365 0.16152 0.0
C1902 C 0.53476 0.63265 0.09827 0.0
C1903 C 0.76395 0.62933 0.14072 0.0
C1904 C 0.76212 0.62072 0.20378 0.0
C1905 C 0.76441 0.61974 0.08028 0.0
C1906 C 0.76276 0.60113 0.08032 0.0
H1907 H 0.76546 0.64367 0.13778 0.0
H1908 H 0.76616 0.62697 0.0333 0.0
S1909 S 0.75676 0.57223 0.2322 0.0
N1910 N 0.75817 0.59262 0.26263 0.0
N1911 N 0.75866 0.57439 0.14961 0.0
C1912 C 0.76051 0.59234 0.14322 0.0
C1913 C 0.76033 0.60217 0.20477 0.0
C1914 C 0.52108 0.34597 0.83328 0.0
C1915 C 0.52646 0.35432 0.89547 0.0
C1916 C 0.52359 0.355 0.77182 0.0
C1917 C 0.53141 0.3728 0.77013 0.0
H1918 H 0.51473 0.33228 0.83172 0.0
H1919 H 0.51864 0.34817 0.72563 0.0
S1920 S 0.54925 0.40059 0.91757 0.0
N1921 N 0.54099 0.38129 0.95063 0.0
N1922 N 0.54564 0.39834 0.83541 0.0
C1923 C 0.53728 0.38127 0.83164 0.0
C1924 C 0.5348 0.37204 0.89421 0.0
C1925 C 0.30861 0.34618 0.89447 0.0
C1926 C 0.30314 0.35452 0.83226 0.0
C1927 C 0.30641 0.35528 0.9557 0.0
C1928 C 0.29899 0.37314 0.95705 0.0
H1929 H 0.31438 0.33236 0.89634 0.0
H1930 H 0.31093 0.34836 1.00208 0.0
S1931 S 0.282 0.40113 0.80921 0.0
N1932 N 0.28959 0.38167 0.77651 0.0
N1933 N 0.28566 0.3989 0.89137 0.0
C1934 C 0.29352 0.38171 0.89542 0.0
C1935 C 0.29557 0.37239 0.83309 0.0
loop_
_geom_bond_atom_site_label_1
_geom_bond_atom_site_label_2
_geom_bond_distance
_geom_bond_site_symmetry_2
_ccdc_geom_bond_type
C0 C1 1.351 . S
C0 N3 1.368 . S
C0 H5 0.931 . S
C1 C0 1.351 . S
C1 N2 1.373 . S
C1 H29 0.930 . S
N2 C1 1.373 . S
N2 C4 1.340 . S
N3 C0 1.368 . S
N3 C4 1.321 . S
N3 Co6 2.135 . S
C4 N2 1.340 . S
C4 N3 1.321 . S
C4 H28 0.930 . S
H5 C0 0.931 . S
Co6 N3 2.135 . S
Co6 N9 2.121 1_655 S
Co6 O14 2.055 . S
Co6 O17 2.039 . S
Co6 N20 2.140 1_655 S
C7 O8 1.227 . S
C7 O17 1.265 . S
O8 C7 1.227 . S
N9 Co6 2.121 1_455 S
N9 C11 1.375 . S
N9 C12 1.313 . S
C10 C11 1.338 . S
C10 N13 1.377 . S
C10 H30 0.930 . S
C11 N9 1.375 . S
C11 C10 1.338 . S
C11 H15 0.931 . S
C12 N9 1.313 . S
C12 N13 1.344 . S
C12 H16 0.930 . S
N13 C10 1.377 . S
N13 C12 1.344 . S
O14 Co6 2.055 . S
O14 C18 1.251 1_655 S
H15 C11 0.931 . S
H16 C12 0.930 . S
O17 Co6 2.039 . S
O17 C7 1.265 . S
C18 O14 1.251 1_455 S
C18 O19 1.227 . S
O19 C18 1.227 . S
N20 Co6 2.140 1_455 S
N20 C23 1.346 1_455 S
N20 C24 1.345 . S
C21 C22 1.387 1_455 S
C21 C25 1.391 . S
C22 C21 1.387 1_655 S
C22 C23 1.369 . S
C22 H31 0.929 . S
C23 N20 1.346 1_655 S
C23 C22 1.369 . S
C23 H26 0.928 . S
C24 N20 1.345 . S
C24 C25 1.371 . S
C24 H27 0.931 . S
C25 C21 1.391 . S
C25 C24 1.371 . S
C25 H32 0.930 . S
H26 C23 0.928 . S
H27 C24 0.931 . S
H28 C4 0.930 . S
H29 C1 0.930 . S
H30 C10 0.930 . S
H31 C22 0.929 . S
H32 C25 0.930 . S
C33 C34 1.351 . S
C33 N36 1.368 . S
C33 H38 0.931 . S
C34 C33 1.351 . S
C34 N35 1.373 . S
C34 H62 0.930 . S
N35 C34 1.373 . S
N35 C37 1.340 . S
N36 C33 1.368 . S
N36 C37 1.321 . S
N36 Co39 2.135 . S
C37 N35 1.340 . S
C37 N36 1.321 . S
C37 H61 0.930 . S
H38 C33 0.931 . S
Co39 N36 2.135 . S
Co39 N42 2.121 . S
Co39 O47 2.055 . S
Co39 O50 2.039 . S
Co39 N53 2.140 . S
C40 O41 1.227 . S
C40 O50 1.265 . S
O41 C40 1.227 . S
N42 Co39 2.121 . S
N42 C44 1.375 . S
N42 C45 1.313 . S
C43 C44 1.338 . S
C43 N46 1.377 . S
C43 H63 0.930 . S
C44 N42 1.375 . S
C44 C43 1.338 . S
C44 H48 0.931 . S
C45 N42 1.313 . S
C45 N46 1.344 . S
C45 H49 0.930 . S
N46 C43 1.377 . S
N46 C45 1.344 . S
O47 Co39 2.055 . S
O47 C51 1.253 . S
H48 C44 0.931 . S
H49 C45 0.930 . S
O50 Co39 2.039 . S
O50 C40 1.265 . S
C51 O47 1.253 . S
C51 O52 1.227 . S
O52 C51 1.227 . S
N53 Co39 2.140 . S
N53 C56 1.346 . S
N53 C57 1.345 . S
C54 C55 1.387 . S
C54 C58 1.391 . S
C55 C54 1.387 . S
C55 C56 1.369 . S
C55 H64 0.929 . S
C56 N53 1.346 . S
C56 C55 1.369 . S
C56 H59 0.928 . S
C57 N53 1.345 . S
C57 C58 1.371 . S
C57 H60 0.931 . S
C58 C54 1.391 . S
C58 C57 1.371 . S
C58 H65 0.930 . S
H59 C56 0.928 . S
H60 C57 0.931 . S
H61 C37 0.930 . S
H62 C34 0.930 . S
H63 C43 0.930 . S
H64 C55 0.929 . S
H65 C58 0.930 . S
C66 C67 1.351 . S
C66 N69 1.368 . S
C66 H71 0.931 . S
C67 C66 1.351 . S
C67 N68 1.373 . S
C67 H95 0.930 . S
N68 C67 1.373 . S
N68 C70 1.340 . S
N69 C66 1.368 . S
N69 C70 1.321 . S
N69 Co72 2.135 . S
C70 N68 1.340 . S
C70 N69 1.321 . S
C70 H94 0.930 . S
H71 C66 0.931 . S
Co72 N69 2.135 . S
Co72 N75 2.121 1_655 S
Co72 O80 2.055 . S
Co72 O83 2.039 . S
Co72 N86 2.140 1_655 S
C73 O74 1.227 . S
C73 O83 1.265 . S
O74 C73 1.227 . S
N75 Co72 2.121 1_455 S
N75 C77 1.375 . S
N75 C78 1.313 . S
C76 C77 1.338 . S
C76 N79 1.377 . S
C76 H96 0.930 . S
C77 N75 1.375 . S
C77 C76 1.338 . S
C77 H81 0.931 . S
C78 N75 1.313 . S
C78 N79 1.344 . S
C78 H82 0.930 . S
N79 C76 1.377 . S
N79 C78 1.344 . S
O80 Co72 2.055 . S
O80 C84 1.252 1_656 S
H81 C77 0.931 . S
H82 C78 0.930 . S
O83 Co72 2.039 . S
O83 C73 1.265 . S
C84 O80 1.252 1_454 S
C84 O85 1.227 1_554 S
O85 C84 1.227 1_556 S
N86 Co72 2.140 1_455 S
N86 C89 1.346 1_455 S
N86 C90 1.345 . S
C87 C88 1.387 1_455 S
C87 C91 1.391 . S
C88 C87 1.387 1_655 S
C88 C89 1.369 . S
C88 H97 0.929 . S
C89 N86 1.346 1_655 S
C89 C88 1.369 . S
C89 H92 0.928 . S
C90 N86 1.345 . S
C90 C91 1.371 . S
C90 H93 0.931 . S
C91 C87 1.391 . S
C91 C90 1.371 . S
C91 H98 0.930 . S
H92 C89 0.928 . S
H93 C90 0.931 . S
H94 C70 0.930 . S
H95 C67 0.930 . S
H96 C76 0.930 . S
H97 C88 0.929 . S
H98 C91 0.930 . S
C99 C100 1.351 . S
C99 N102 1.368 . S
C99 H104 0.931 . S
C100 C99 1.351 . S
C100 N101 1.373 . S
C100 H128 0.930 . S
N101 C100 1.373 . S
N101 C103 1.340 . S
N102 C99 1.368 . S
N102 C103 1.321 . S
N102 Co105 2.135 . S
C103 N101 1.340 . S
C103 N102 1.321 . S
C103 H127 0.930 . S
H104 C99 0.931 . S
Co105 N102 2.135 . S
Co105 N108 2.121 . S
Co105 O113 2.055 . S
Co105 O116 2.039 . S
Co105 N119 2.140 . S
C106 O107 1.227 . S
C106 O116 1.265 . S
O107 C106 1.227 . S
N108 Co105 2.121 . S
N108 C110 1.375 . S
N108 C111 1.313 . S
C109 C110 1.338 . S
C109 N112 1.377 . S
C109 H129 0.930 . S
C110 N108 1.375 . S
C110 C109 1.338 . S
C110 H114 0.931 . S
C111 N108 1.313 . S
C111 N112 1.344 . S
C111 H115 0.930 . S
N112 C109 1.377 . S
N112 C111 1.344 . S
O113 Co105 2.055 . S
O113 C117 1.253 . S
H114 C110 0.931 . S
H115 C111 0.930 . S
O116 Co105 2.039 . S
O116 C106 1.265 . S
C117 O113 1.253 . S
C117 O118 1.227 . S
O118 C117 1.227 . S
N119 Co105 2.140 . S
N119 C122 1.346 . S
N119 C123 1.345 . S
C120 C121 1.387 . S
C120 C124 1.391 . S
C121 C120 1.387 . S
C121 C122 1.369 . S
C121 H130 0.929 . S
C122 N119 1.346 . S
C122 C121 1.369 . S
C122 H125 0.928 . S
C123 N119 1.345 . S
C123 C124 1.371 . S
C123 H126 0.931 . S
C124 C120 1.391 . S
C124 C123 1.371 . S
C124 H131 0.930 . S
H125 C122 0.928 . S
H126 C123 0.931 . S
H127 C103 0.930 . S
H128 C100 0.930 . S
H129 C109 0.930 . S
H130 C121 0.929 . S
H131 C124 0.930 . S
C132 C133 1.351 . S
C132 N135 1.368 . S
C132 H137 0.931 . S
C133 C132 1.351 . S
C133 N134 1.373 . S
C133 H161 0.930 . S
N134 C133 1.373 . S
N134 C136 1.340 . S
N135 C132 1.368 . S
N135 C136 1.321 . S
N135 Co138 2.135 . S
C136 N134 1.340 . S
C136 N135 1.321 . S
C136 H160 0.930 . S
H137 C132 0.931 . S
Co138 N135 2.135 . S
Co138 N141 2.121 1_455 S
Co138 O146 2.055 . S
Co138 O149 2.039 . S
Co138 N152 2.140 1_455 S
C139 O140 1.227 . S
C139 O149 1.265 . S
O140 C139 1.227 . S
N141 Co138 2.121 1_655 S
N141 C143 1.375 . S
N141 C144 1.313 . S
C142 C143 1.338 . S
C142 N145 1.377 . S
C142 H162 0.930 . S
C143 N141 1.375 . S
C143 C142 1.338 . S
C143 H147 0.931 . S
C144 N141 1.313 . S
C144 N145 1.344 . S
C144 H148 0.930 . S
N145 C142 1.377 . S
N145 C144 1.344 . S
O146 Co138 2.055 . S
O146 C150 1.251 1_455 S
H147 C143 0.931 . S
H148 C144 0.930 . S
O149 Co138 2.039 . S
O149 C139 1.265 . S
C150 O146 1.251 1_655 S
C150 O151 1.227 . S
O151 C150 1.227 . S
N152 Co138 2.140 1_655 S
N152 C155 1.346 1_655 S
N152 C156 1.345 . S
C153 C154 1.387 1_655 S
C153 C157 1.391 . S
C154 C153 1.387 1_455 S
C154 C155 1.369 . S
C154 H163 0.929 . S
C155 N152 1.346 1_455 S
C155 C154 1.369 . S
C155 H158 0.928 . S
C156 N152 1.345 . S
C156 C157 1.371 . S
C156 H159 0.931 . S
C157 C153 1.391 . S
C157 C156 1.371 . S
C157 H164 0.930 . S
H158 C155 0.928 . S
H159 C156 0.931 . S
H160 C136 0.930 . S
H161 C133 0.930 . S
H162 C142 0.930 . S
H163 C154 0.929 . S
H164 C157 0.930 . S
C165 C166 1.351 . S
C165 N168 1.368 . S
C165 H170 0.931 . S
C166 C165 1.351 . S
C166 N167 1.373 . S
C166 H194 0.930 . S
N167 C166 1.373 . S
N167 C169 1.340 . S
N168 C165 1.368 . S
N168 C169 1.321 . S
N168 Co171 2.135 . S
C169 N167 1.340 . S
C169 N168 1.321 . S
C169 H193 0.930 . S
H170 C165 0.931 . S
Co171 N168 2.135 . S
Co171 N174 2.121 . S
Co171 O179 2.055 . S
Co171 O182 2.039 . S
Co171 N185 2.140 . S
C172 O173 1.227 . S
C172 O182 1.265 . S
O173 C172 1.227 . S
N174 Co171 2.121 . S
N174 C176 1.375 . S
N174 C177 1.313 . S
C175 C176 1.338 . S
C175 N178 1.377 . S
C175 H195 0.930 . S
C176 N174 1.375 . S
C176 C175 1.338 . S
C176 H180 0.931 . S
C177 N174 1.313 . S
C177 N178 1.344 . S
C177 H181 0.930 . S
N178 C175 1.377 . S
N178 C177 1.344 . S
O179 Co171 2.055 . S
O179 C183 1.253 . S
H180 C176 0.931 . S
H181 C177 0.930 . S
O182 Co171 2.039 . S
O182 C172 1.265 . S
C183 O179 1.253 . S
C183 O184 1.227 . S
O184 C183 1.227 . S
N185 Co171 2.140 . S
N185 C188 1.346 . S
N185 C189 1.345 . S
C186 C187 1.387 . S
C186 C190 1.391 . S
C187 C186 1.387 . S
C187 C188 1.369 . S
C187 H196 0.929 . S
C188 N185 1.346 . S
C188 C187 1.369 . S
C188 H191 0.928 . S
C189 N185 1.345 . S
C189 C190 1.371 . S
C189 H192 0.931 . S
C190 C186 1.391 . S
C190 C189 1.371 . S
C190 H197 0.930 . S
H191 C188 0.928 . S
H192 C189 0.931 . S
H193 C169 0.930 . S
H194 C166 0.930 . S
H195 C175 0.930 . S
H196 C187 0.929 . S
H197 C190 0.930 . S
C198 C199 1.351 . S
C198 N201 1.368 . S
C198 H203 0.931 . S
C199 C198 1.351 . S
C199 N200 1.373 . S
C199 H227 0.930 . S
N200 C199 1.373 . S
N200 C202 1.340 . S
N201 C198 1.368 . S
N201 C202 1.321 . S
N201 Co204 2.135 . S
C202 N200 1.340 . S
C202 N201 1.321 . S
C202 H226 0.930 . S
H203 C198 0.931 . S
Co204 N201 2.135 . S
Co204 N207 2.121 1_455 S
Co204 O212 2.055 . S
Co204 O215 2.039 . S
Co204 N218 2.140 1_455 S
C205 O206 1.227 . S
C205 O215 1.265 . S
O206 C205 1.227 . S
N207 Co204 2.121 1_655 S
N207 C209 1.375 . S
N207 C210 1.313 . S
C208 C209 1.338 . S
C208 N211 1.377 . S
C208 H228 0.930 . S
C209 N207 1.375 . S
C209 C208 1.338 . S
C209 H213 0.931 . S
C210 N207 1.313 . S
C210 N211 1.344 . S
C210 H214 0.930 . S
N211 C208 1.377 . S
N211 C210 1.344 . S
O212 Co204 2.055 . S
O212 C216 1.252 1_454 S
H213 C209 0.931 . S
H214 C210 0.930 . S
O215 Co204 2.039 . S
O215 C205 1.265 . S
C216 O212 1.252 1_656 S
C216 O217 1.227 1_556 S
O217 C216 1.227 1_554 S
N218 Co204 2.140 1_655 S
N218 C221 1.346 1_655 S
N218 C222 1.345 . S
C219 C220 1.387 1_655 S
C219 C223 1.391 . S
C220 C219 1.387 1_455 S
C220 C221 1.369 . S
C220 H229 0.929 . S
C221 N218 1.346 1_455 S
C221 C220 1.369 . S
C221 H224 0.928 . S
C222 N218 1.345 . S
C222 C223 1.371 . S
C222 H225 0.931 . S
C223 C219 1.391 . S
C223 C222 1.371 . S
C223 H230 0.930 . S
H224 C221 0.928 . S
H225 C222 0.931 . S
H226 C202 0.930 . S
H227 C199 0.930 . S
H228 C208 0.930 . S
H229 C220 0.929 . S
H230 C223 0.930 . S
C231 C232 1.351 . S
C231 N234 1.368 . S
C231 H236 0.931 . S
C232 C231 1.351 . S
C232 N233 1.373 . S
C232 H260 0.930 . S
N233 C232 1.373 . S
N233 C235 1.340 . S
N234 C231 1.368 . S
N234 C235 1.321 . S
N234 Co237 2.135 . S
C235 N233 1.340 . S
C235 N234 1.321 . S
C235 H259 0.930 . S
H236 C231 0.931 . S
Co237 N234 2.135 . S
Co237 N240 2.121 . S
Co237 O245 2.055 . S
Co237 O248 2.039 . S
Co237 N251 2.140 . S
C238 O239 1.227 . S
C238 O248 1.265 . S
O239 C238 1.227 . S
N240 Co237 2.121 . S
N240 C242 1.375 . S
N240 C243 1.313 . S
C241 C242 1.338 . S
C241 N244 1.377 . S
C241 H261 0.930 . S
C242 N240 1.375 . S
C242 C241 1.338 . S
C242 H246 0.931 . S
C243 N240 1.313 . S
C243 N244 1.344 . S
C243 H247 0.930 . S
N244 C241 1.377 . S
N244 C243 1.344 . S
O245 Co237 2.055 . S
O245 C249 1.253 . S
H246 C242 0.931 . S
H247 C243 0.930 . S
O248 Co237 2.039 . S
O248 C238 1.265 . S
C249 O245 1.253 . S
C249 O250 1.227 . S
O250 C249 1.227 . S
N251 Co237 2.140 . S
N251 C254 1.346 . S
N251 C255 1.345 . S
C252 C253 1.387 . S
C252 C256 1.391 . S
C253 C252 1.387 . S
C253 C254 1.369 . S
C253 H262 0.929 . S
C254 N251 1.346 . S
C254 C253 1.369 . S
C254 H257 0.928 . S
C255 N251 1.345 . S
C255 C256 1.371 . S
C255 H258 0.931 . S
C256 C252 1.391 . S
C256 C255 1.371 . S
C256 H263 0.930 . S
H257 C254 0.928 . S
H258 C255 0.931 . S
H259 C235 0.930 . S
H260 C232 0.930 . S
H261 C241 0.930 . S
H262 C253 0.929 . S
H263 C256 0.930 . S
C264 C265 1.351 . S
C264 N267 1.368 . S
C264 H269 0.931 . S
C265 C264 1.351 . S
C265 N266 1.373 . S
C265 H293 0.930 . S
N266 C265 1.373 . S
N266 C268 1.340 . S
N267 C264 1.368 . S
N267 C268 1.321 . S
N267 Co270 2.135 . S
C268 N266 1.340 . S
C268 N267 1.321 . S
C268 H292 0.930 . S
H269 C264 0.931 . S
Co270 N267 2.135 . S
Co270 N273 2.121 1_655 S
Co270 O278 2.055 . S
Co270 O281 2.039 . S
Co270 N284 2.140 1_655 S
C271 O272 1.227 . S
C271 O281 1.265 1_554 S
O272 C271 1.227 . S
N273 Co270 2.121 1_455 S
N273 C275 1.375 . S
N273 C276 1.313 . S
C274 C275 1.338 . S
C274 N277 1.377 . S
C274 H294 0.930 . S
C275 N273 1.375 . S
C275 C274 1.338 . S
C275 H279 0.931 . S
C276 N273 1.313 . S
C276 N277 1.344 . S
C276 H280 0.930 . S
N277 C274 1.377 . S
N277 C276 1.344 . S
O278 Co270 2.055 . S
O278 C282 1.251 1_655 S
H279 C275 0.931 . S
H280 C276 0.930 . S
O281 Co270 2.039 . S
O281 C271 1.265 1_556 S
C282 O278 1.251 1_455 S
C282 O283 1.227 . S
O283 C282 1.227 . S
N284 Co270 2.140 1_455 S
N284 C287 1.346 1_455 S
N284 C288 1.345 . S
C285 C286 1.387 1_455 S
C285 C289 1.391 . S
C286 C285 1.387 1_655 S
C286 C287 1.369 . S
C286 H295 0.929 . S
C287 N284 1.346 1_655 S
C287 C286 1.369 . S
C287 H290 0.928 . S
C288 N284 1.345 . S
C288 C289 1.371 . S
C288 H291 0.931 . S
C289 C285 1.391 . S
C289 C288 1.371 . S
C289 H296 0.930 . S
H290 C287 0.928 . S
H291 C288 0.931 . S
H292 C268 0.930 . S
H293 C265 0.930 . S
H294 C274 0.930 . S
H295 C286 0.929 . S
H296 C289 0.930 . S
C297 C298 1.351 . S
C297 N300 1.368 . S
C297 H302 0.931 . S
C298 C297 1.351 . S
C298 N299 1.373 . S
C298 H326 0.930 . S
N299 C298 1.373 . S
N299 C301 1.340 . S
N300 C297 1.368 . S
N300 C301 1.321 . S
N300 Co303 2.135 . S
C301 N299 1.340 . S
C301 N300 1.321 . S
C301 H325 0.930 . S
H302 C297 0.931 . S
Co303 N300 2.135 . S
Co303 N306 2.121 . S
Co303 O311 2.055 . S
Co303 O314 2.039 . S
Co303 N317 2.140 . S
C304 O305 1.227 . S
C304 O314 1.265 1_554 S
O305 C304 1.227 . S
N306 Co303 2.121 . S
N306 C308 1.375 . S
N306 C309 1.313 . S
C307 C308 1.338 . S
C307 N310 1.377 . S
C307 H327 0.930 . S
C308 N306 1.375 . S
C308 C307 1.338 . S
C308 H312 0.931 . S
C309 N306 1.313 . S
C309 N310 1.344 . S
C309 H313 0.930 . S
N310 C307 1.377 . S
N310 C309 1.344 . S
O311 Co303 2.055 . S
O311 C315 1.253 . S
H312 C308 0.931 . S
H313 C309 0.930 . S
O314 Co303 2.039 . S
O314 C304 1.265 1_556 S
C315 O311 1.253 . S
C315 O316 1.227 . S
O316 C315 1.227 . S
N317 Co303 2.140 . S
N317 C320 1.346 . S
N317 C321 1.345 . S
C318 C319 1.387 . S
C318 C322 1.391 . S
C319 C318 1.387 . S
C319 C320 1.369 . S
C319 H328 0.929 . S
C320 N317 1.346 . S
C320 C319 1.369 . S
C320 H323 0.928 . S
C321 N317 1.345 . S
C321 C322 1.371 . S
C321 H324 0.931 . S
C322 C318 1.391 . S
C322 C321 1.371 . S
C322 H329 0.930 . S
H323 C320 0.928 . S
H324 C321 0.931 . S
H325 C301 0.930 . S
H326 C298 0.930 . S
H327 C307 0.930 . S
H328 C319 0.929 . S
H329 C322 0.930 . S
C330 C331 1.351 . S
C330 N333 1.368 . S
C330 H335 0.931 . S
C331 C330 1.351 . S
C331 N332 1.373 . S
C331 H359 0.930 . S
N332 C331 1.373 . S
N332 C334 1.340 . S
N333 C330 1.368 . S
N333 C334 1.321 . S
N333 Co336 2.135 . S
C334 N332 1.340 . S
C334 N333 1.321 . S
C334 H358 0.930 . S
H335 C330 0.931 . S
Co336 N333 2.135 . S
Co336 N339 2.121 1_655 S
Co336 O344 2.055 . S
Co336 O347 2.039 . S
Co336 N350 2.140 1_655 S
C337 O338 1.227 . S
C337 O347 1.265 . S
O338 C337 1.227 . S
N339 Co336 2.121 1_455 S
N339 C341 1.375 . S
N339 C342 1.313 . S
C340 C341 1.338 . S
C340 N343 1.377 . S
C340 H360 0.930 . S
C341 N339 1.375 . S
C341 C340 1.338 . S
C341 H345 0.931 . S
C342 N339 1.313 . S
C342 N343 1.344 . S
C342 H346 0.930 . S
N343 C340 1.377 . S
N343 C342 1.344 . S
O344 Co336 2.055 . S
O344 C348 1.251 1_655 S
H345 C341 0.931 . S
H346 C342 0.930 . S
O347 Co336 2.039 . S
O347 C337 1.265 . S
C348 O344 1.251 1_455 S
C348 O349 1.227 . S
O349 C348 1.227 . S
N350 Co336 2.140 1_455 S
N350 C353 1.346 1_455 S
N350 C354 1.345 . S
C351 C352 1.387 1_455 S
C351 C355 1.391 . S
C352 C351 1.387 1_655 S
C352 C353 1.369 . S
C352 H361 0.929 . S
C353 N350 1.346 1_655 S
C353 C352 1.369 . S
C353 H356 0.928 . S
C354 N350 1.345 . S
C354 C355 1.371 . S
C354 H357 0.931 . S
C355 C351 1.391 . S
C355 C354 1.371 . S
C355 H362 0.930 . S
H356 C353 0.928 . S
H357 C354 0.931 . S
H358 C334 0.930 . S
H359 C331 0.930 . S
H360 C340 0.930 . S
H361 C352 0.929 . S
H362 C355 0.930 . S
C363 C364 1.351 . S
C363 N366 1.368 . S
C363 H368 0.931 . S
C364 C363 1.351 . S
C364 N365 1.373 . S
C364 H392 0.930 . S
N365 C364 1.373 . S
N365 C367 1.340 . S
N366 C363 1.368 . S
N366 C367 1.321 . S
N366 Co369 2.135 . S
C367 N365 1.340 . S
C367 N366 1.321 . S
C367 H391 0.930 . S
H368 C363 0.931 . S
Co369 N366 2.135 . S
Co369 N372 2.121 . S
Co369 O377 2.055 . S
Co369 O380 2.039 . S
Co369 N383 2.140 . S
C370 O371 1.227 . S
C370 O380 1.265 . S
O371 C370 1.227 . S
N372 Co369 2.121 . S
N372 C374 1.375 . S
N372 C375 1.313 . S
C373 C374 1.338 . S
C373 N376 1.377 . S
C373 H393 0.930 . S
C374 N372 1.375 . S
C374 C373 1.338 . S
C374 H378 0.931 . S
C375 N372 1.313 . S
C375 N376 1.344 . S
C375 H379 0.930 . S
N376 C373 1.377 . S
N376 C375 1.344 . S
O377 Co369 2.055 . S
O377 C381 1.253 . S
H378 C374 0.931 . S
H379 C375 0.930 . S
O380 Co369 2.039 . S
O380 C370 1.265 . S
C381 O377 1.253 . S
C381 O382 1.227 . S
O382 C381 1.227 . S
N383 Co369 2.140 . S
N383 C386 1.346 . S
N383 C387 1.345 . S
C384 C385 1.387 . S
C384 C388 1.391 . S
C385 C384 1.387 . S
C385 C386 1.369 . S
C385 H394 0.929 . S
C386 N383 1.346 . S
C386 C385 1.369 . S
C386 H389 0.928 . S
C387 N383 1.345 . S
C387 C388 1.371 . S
C387 H390 0.931 . S
C388 C384 1.391 . S
C388 C387 1.371 . S
C388 H395 0.930 . S
H389 C386 0.928 . S
H390 C387 0.931 . S
H391 C367 0.930 . S
H392 C364 0.930 . S
H393 C373 0.930 . S
H394 C385 0.929 . S
H395 C388 0.930 . S
C396 C397 1.351 . S
C396 N399 1.368 . S
C396 H401 0.931 . S
C397 C396 1.351 . S
C397 N398 1.373 . S
C397 H425 0.930 . S
N398 C397 1.373 . S
N398 C400 1.340 . S
N399 C396 1.368 . S
N399 C400 1.321 . S
N399 Co402 2.135 . S
C400 N398 1.340 . S
C400 N399 1.321 . S
C400 H424 0.930 . S
H401 C396 0.931 . S
Co402 N399 2.135 . S
Co402 N405 2.121 1_455 S
Co402 O410 2.055 . S
Co402 O413 2.039 . S
Co402 N416 2.140 1_455 S
C403 O404 1.227 . S
C403 O413 1.265 1_556 S
O404 C403 1.227 . S
N405 Co402 2.121 1_655 S
N405 C407 1.375 . S
N405 C408 1.313 . S
C406 C407 1.338 . S
C406 N409 1.377 . S
C406 H426 0.930 . S
C407 N405 1.375 . S
C407 C406 1.338 . S
C407 H411 0.931 . S
C408 N405 1.313 . S
C408 N409 1.344 . S
C408 H412 0.930 . S
N409 C406 1.377 . S
N409 C408 1.344 . S
O410 Co402 2.055 . S
O410 C414 1.251 1_455 S
H411 C407 0.931 . S
H412 C408 0.930 . S
O413 Co402 2.039 . S
O413 C403 1.265 1_554 S
C414 O410 1.251 1_655 S
C414 O415 1.227 . S
O415 C414 1.227 . S
N416 Co402 2.140 1_655 S
N416 C419 1.346 1_655 S
N416 C420 1.345 . S
C417 C418 1.387 1_655 S
C417 C421 1.391 . S
C418 C417 1.387 1_455 S
C418 C419 1.369 . S
C418 H427 0.929 . S
C419 N416 1.346 1_455 S
C419 C418 1.369 . S
C419 H422 0.928 . S
C420 N416 1.345 . S
C420 C421 1.371 . S
C420 H423 0.931 . S
C421 C417 1.391 . S
C421 C420 1.371 . S
C421 H428 0.930 . S
H422 C419 0.928 . S
H423 C420 0.931 . S
H424 C400 0.930 . S
H425 C397 0.930 . S
H426 C406 0.930 . S
H427 C418 0.929 . S
H428 C421 0.930 . S
C429 C430 1.351 . S
C429 N432 1.368 . S
C429 H434 0.931 . S
C430 C429 1.351 . S
C430 N431 1.373 . S
C430 H458 0.930 . S
N431 C430 1.373 . S
N431 C433 1.340 . S
N432 C429 1.368 . S
N432 C433 1.321 . S
N432 Co435 2.135 . S
C433 N431 1.340 . S
C433 N432 1.321 . S
C433 H457 0.930 . S
H434 C429 0.931 . S
Co435 N432 2.135 . S
Co435 N438 2.121 . S
Co435 O443 2.055 . S
Co435 O446 2.039 . S
Co435 N449 2.140 . S
C436 O437 1.227 . S
C436 O446 1.265 1_556 S
O437 C436 1.227 . S
N438 Co435 2.121 . S
N438 C440 1.375 . S
N438 C441 1.313 . S
C439 C440 1.338 . S
C439 N442 1.377 . S
C439 H459 0.930 . S
C440 N438 1.375 . S
C440 C439 1.338 . S
C440 H444 0.931 . S
C441 N438 1.313 . S
C441 N442 1.344 . S
C441 H445 0.930 . S
N442 C439 1.377 . S
N442 C441 1.344 . S
O443 Co435 2.055 . S
O443 C447 1.253 . S
H444 C440 0.931 . S
H445 C441 0.930 . S
O446 Co435 2.039 . S
O446 C436 1.265 1_554 S
C447 O443 1.253 . S
C447 O448 1.227 . S
O448 C447 1.227 . S
N449 Co435 2.140 . S
N449 C452 1.346 . S
N449 C453 1.345 . S
C450 C451 1.387 . S
C450 C454 1.391 . S
C451 C450 1.387 . S
C451 C452 1.369 . S
C451 H460 0.929 . S
C452 N449 1.346 . S
C452 C451 1.369 . S
C452 H455 0.928 . S
C453 N449 1.345 . S
C453 C454 1.371 . S
C453 H456 0.931 . S
C454 C450 1.391 . S
C454 C453 1.371 . S
C454 H461 0.930 . S
H455 C452 0.928 . S
H456 C453 0.931 . S
H457 C433 0.930 . S
H458 C430 0.930 . S
H459 C439 0.930 . S
H460 C451 0.929 . S
H461 C454 0.930 . S
C462 C463 1.351 . S
C462 N465 1.368 . S
C462 H467 0.931 . S
C463 C462 1.351 . S
C463 N464 1.373 . S
C463 H491 0.930 . S
N464 C463 1.373 . S
N464 C466 1.340 . S
N465 C462 1.368 . S
N465 C466 1.321 . S
N465 Co468 2.135 . S
C466 N464 1.340 . S
C466 N465 1.321 . S
C466 H490 0.930 . S
H467 C462 0.931 . S
Co468 N465 2.135 . S
Co468 N471 2.121 1_455 S
Co468 O476 2.055 . S
Co468 O479 2.039 . S
Co468 N482 2.140 1_455 S
C469 O470 1.227 . S
C469 O479 1.265 . S
O470 C469 1.227 . S
N471 Co468 2.121 1_655 S
N471 C473 1.375 . S
N471 C474 1.313 . S
C472 C473 1.338 . S
C472 N475 1.377 . S
C472 H492 0.930 . S
C473 N471 1.375 . S
C473 C472 1.338 . S
C473 H477 0.931 . S
C474 N471 1.313 . S
C474 N475 1.344 . S
C474 H478 0.930 . S
N475 C472 1.377 . S
N475 C474 1.344 . S
O476 Co468 2.055 . S
O476 C480 1.251 1_455 S
H477 C473 0.931 . S
H478 C474 0.930 . S
O479 Co468 2.039 . S
O479 C469 1.265 . S
C480 O476 1.251 1_655 S
C480 O481 1.227 . S
O481 C480 1.227 . S
N482 Co468 2.140 1_655 S
N482 C485 1.346 1_655 S
N482 C486 1.345 . S
C483 C484 1.387 1_655 S
C483 C487 1.391 . S
C484 C483 1.387 1_455 S
C484 C485 1.369 . S
C484 H493 0.929 . S
C485 N482 1.346 1_455 S
C485 C484 1.369 . S
C485 H488 0.928 . S
C486 N482 1.345 . S
C486 C487 1.371 . S
C486 H489 0.931 . S
C487 C483 1.391 . S
C487 C486 1.371 . S
C487 H494 0.930 . S
H488 C485 0.928 . S
H489 C486 0.931 . S
H490 C466 0.930 . S
H491 C463 0.930 . S
H492 C472 0.930 . S
H493 C484 0.929 . S
H494 C487 0.930 . S
C495 C496 1.351 . S
C495 N498 1.368 . S
C495 H500 0.931 . S
C496 C495 1.351 . S
C496 N497 1.373 . S
C496 H524 0.930 . S
N497 C496 1.373 . S
N497 C499 1.340 . S
N498 C495 1.368 . S
N498 C499 1.321 . S
N498 Co501 2.135 . S
C499 N497 1.340 . S
C499 N498 1.321 . S
C499 H523 0.930 . S
H500 C495 0.931 . S
Co501 N498 2.135 . S
Co501 N504 2.121 . S
Co501 O509 2.055 . S
Co501 O512 2.039 . S
Co501 N515 2.140 . S
C502 O503 1.227 . S
C502 O512 1.265 . S
O503 C502 1.227 . S
N504 Co501 2.121 . S
N504 C506 1.375 . S
N504 C507 1.313 . S
C505 C506 1.338 . S
C505 N508 1.377 . S
C505 H525 0.930 . S
C506 N504 1.375 . S
C506 C505 1.338 . S
C506 H510 0.931 . S
C507 N504 1.313 . S
C507 N508 1.344 . S
C507 H511 0.930 . S
N508 C505 1.377 . S
N508 C507 1.344 . S
O509 Co501 2.055 . S
O509 C513 1.253 . S
H510 C506 0.931 . S
H511 C507 0.930 . S
O512 Co501 2.039 . S
O512 C502 1.265 . S
C513 O509 1.253 . S
C513 O514 1.227 . S
O514 C513 1.227 . S
N515 Co501 2.140 . S
N515 C518 1.346 . S
N515 C519 1.345 . S
C516 C517 1.387 . S
C516 C520 1.391 . S
C517 C516 1.387 . S
C517 C518 1.369 . S
C517 H526 0.929 . S
C518 N515 1.346 . S
C518 C517 1.369 . S
C518 H521 0.928 . S
C519 N515 1.345 . S
C519 C520 1.371 . S
C519 H522 0.931 . S
C520 C516 1.391 . S
C520 C519 1.371 . S
C520 H527 0.930 . S
H521 C518 0.928 . S
H522 C519 0.931 . S
H523 C499 0.930 . S
H524 C496 0.930 . S
H525 C505 0.930 . S
H526 C517 0.929 . S
H527 C520 0.930 . S
C528 C529 1.351 . S
C528 N531 1.368 . S
C528 H533 0.931 . S
C529 C528 1.351 . S
C529 N530 1.373 . S
C529 H557 0.930 . S
N530 C529 1.373 . S
N530 C532 1.340 . S
N531 C528 1.368 . S
N531 C532 1.321 . S
N531 Co534 2.135 . S
C532 N530 1.340 . S
C532 N531 1.321 . S
C532 H556 0.930 . S
H533 C528 0.931 . S
Co534 N531 2.135 . S
Co534 N537 2.121 . S
Co534 O542 2.055 . S
Co534 O545 2.039 . S
Co534 N548 2.140 . S
C535 O536 1.227 . S
C535 O545 1.265 1_554 S
O536 C535 1.227 . S
N537 Co534 2.121 . S
N537 C539 1.375 . S
N537 C540 1.313 . S
C538 C539 1.338 . S
C538 N541 1.377 . S
C538 H558 0.930 . S
C539 N537 1.375 . S
C539 C538 1.338 . S
C539 H543 0.931 . S
C540 N537 1.313 . S
C540 N541 1.344 . S
C540 H544 0.930 . S
N541 C538 1.377 . S
N541 C540 1.344 . S
O542 Co534 2.055 . S
O542 C546 1.253 . S
H543 C539 0.931 . S
H544 C540 0.930 . S
O545 Co534 2.039 . S
O545 C535 1.265 1_556 S
C546 O542 1.253 . S
C546 O547 1.227 . S
O547 C546 1.227 . S
N548 Co534 2.140 . S
N548 C551 1.346 . S
N548 C552 1.345 . S
C549 C550 1.387 . S
C549 C553 1.391 . S
C550 C549 1.387 . S
C550 C551 1.369 . S
C550 H559 0.929 . S
C551 N548 1.346 . S
C551 C550 1.369 . S
C551 H554 0.928 . S
C552 N548 1.345 . S
C552 C553 1.371 . S
C552 H555 0.931 . S
C553 C549 1.391 . S
C553 C552 1.371 . S
C553 H560 0.930 . S
H554 C551 0.928 . S
H555 C552 0.931 . S
H556 C532 0.930 . S
H557 C529 0.930 . S
H558 C538 0.930 . S
H559 C550 0.929 . S
H560 C553 0.930 . S
C561 C562 1.351 . S
C561 N564 1.368 . S
C561 H566 0.931 . S
C562 C561 1.351 . S
C562 N563 1.373 . S
C562 H590 0.930 . S
N563 C562 1.373 . S
N563 C565 1.340 . S
N564 C561 1.368 . S
N564 C565 1.321 . S
N564 Co567 2.135 . S
C565 N563 1.340 . S
C565 N564 1.321 . S
C565 H589 0.930 . S
H566 C561 0.931 . S
Co567 N564 2.135 . S
Co567 N570 2.121 . S
Co567 O575 2.055 . S
Co567 O578 2.039 . S
Co567 N581 2.140 . S
C568 O569 1.227 . S
C568 O578 1.265 1_554 S
O569 C568 1.227 . S
N570 Co567 2.121 . S
N570 C572 1.375 . S
N570 C573 1.313 . S
C571 C572 1.338 . S
C571 N574 1.377 . S
C571 H591 0.930 . S
C572 N570 1.375 . S
C572 C571 1.338 . S
C572 H576 0.931 . S
C573 N570 1.313 . S
C573 N574 1.344 . S
C573 H577 0.930 . S
N574 C571 1.377 . S
N574 C573 1.344 . S
O575 Co567 2.055 . S
O575 C579 1.253 . S
H576 C572 0.931 . S
H577 C573 0.930 . S
O578 Co567 2.039 . S
O578 C568 1.265 1_556 S
C579 O575 1.253 . S
C579 O580 1.227 . S
O580 C579 1.227 . S
N581 Co567 2.140 . S
N581 C584 1.346 . S
N581 C585 1.345 . S
C582 C583 1.387 . S
C582 C586 1.391 . S
C583 C582 1.387 . S
C583 C584 1.369 . S
C583 H592 0.929 . S
C584 N581 1.346 . S
C584 C583 1.369 . S
C584 H587 0.928 . S
C585 N581 1.345 . S
C585 C586 1.371 . S
C585 H588 0.931 . S
C586 C582 1.391 . S
C586 C585 1.371 . S
C586 H593 0.930 . S
H587 C584 0.928 . S
H588 C585 0.931 . S
H589 C565 0.930 . S
H590 C562 0.930 . S
H591 C571 0.930 . S
H592 C583 0.929 . S
H593 C586 0.930 . S
C594 C595 1.351 . S
C594 N597 1.368 . S
C594 H599 0.931 . S
C595 C594 1.351 . S
C595 N596 1.373 . S
C595 H623 0.930 . S
N596 C595 1.373 . S
N596 C598 1.340 . S
N597 C594 1.368 . S
N597 C598 1.321 . S
N597 Co600 2.135 . S
C598 N596 1.340 . S
C598 N597 1.321 . S
C598 H622 0.930 . S
H599 C594 0.931 . S
Co600 N597 2.135 . S
Co600 N603 2.121 . S
Co600 O608 2.055 . S
Co600 O611 2.039 . S
Co600 N614 2.140 . S
C601 O602 1.227 . S
C601 O611 1.265 . S
O602 C601 1.227 . S
N603 Co600 2.121 . S
N603 C605 1.375 . S
N603 C606 1.313 . S
C604 C605 1.338 . S
C604 N607 1.377 . S
C604 H624 0.930 . S
C605 N603 1.375 . S
C605 C604 1.338 . S
C605 H609 0.931 . S
C606 N603 1.313 . S
C606 N607 1.344 . S
C606 H610 0.930 . S
N607 C604 1.377 . S
N607 C606 1.344 . S
O608 Co600 2.055 . S
O608 C612 1.253 . S
H609 C605 0.931 . S
H610 C606 0.930 . S
O611 Co600 2.039 . S
O611 C601 1.265 . S
C612 O608 1.253 . S
C612 O613 1.227 . S
O613 C612 1.227 . S
N614 Co600 2.140 . S
N614 C617 1.346 . S
N614 C618 1.345 . S
C615 C616 1.387 . S
C615 C619 1.391 . S
C616 C615 1.387 . S
C616 C617 1.369 . S
C616 H625 0.929 . S
C617 N614 1.346 . S
C617 C616 1.369 . S
C617 H620 0.928 . S
C618 N614 1.345 . S
C618 C619 1.371 . S
C618 H621 0.931 . S
C619 C615 1.391 . S
C619 C618 1.371 . S
C619 H626 0.930 . S
H620 C617 0.928 . S
H621 C618 0.931 . S
H622 C598 0.930 . S
H623 C595 0.930 . S
H624 C604 0.930 . S
H625 C616 0.929 . S
H626 C619 0.930 . S
C627 C628 1.351 . S
C627 N630 1.368 . S
C627 H632 0.931 . S
C628 C627 1.351 . S
C628 N629 1.373 . S
C628 H656 0.930 . S
N629 C628 1.373 . S
N629 C631 1.340 . S
N630 C627 1.368 . S
N630 C631 1.321 . S
N630 Co633 2.135 . S
C631 N629 1.340 . S
C631 N630 1.321 . S
C631 H655 0.930 . S
H632 C627 0.931 . S
Co633 N630 2.135 . S
Co633 N636 2.121 . S
Co633 O641 2.055 . S
Co633 O644 2.039 . S
Co633 N647 2.140 . S
C634 O635 1.227 . S
C634 O644 1.265 . S
O635 C634 1.227 . S
N636 Co633 2.121 . S
N636 C638 1.375 . S
N636 C639 1.313 . S
C637 C638 1.338 . S
C637 N640 1.377 . S
C637 H657 0.930 . S
C638 N636 1.375 . S
C638 C637 1.338 . S
C638 H642 0.931 . S
C639 N636 1.313 . S
C639 N640 1.344 . S
C639 H643 0.930 . S
N640 C637 1.377 . S
N640 C639 1.344 . S
O641 Co633 2.055 . S
O641 C645 1.253 . S
H642 C638 0.931 . S
H643 C639 0.930 . S
O644 Co633 2.039 . S
O644 C634 1.265 . S
C645 O641 1.253 . S
C645 O646 1.227 . S
O646 C645 1.227 . S
N647 Co633 2.140 . S
N647 C650 1.346 . S
N647 C651 1.345 . S
C648 C649 1.387 . S
C648 C652 1.391 . S
C649 C648 1.387 . S
C649 C650 1.369 . S
C649 H658 0.929 . S
C650 N647 1.346 . S
C650 C649 1.369 . S
C650 H653 0.928 . S
C651 N647 1.345 . S
C651 C652 1.371 . S
C651 H654 0.931 . S
C652 C648 1.391 . S
C652 C651 1.371 . S
C652 H659 0.930 . S
H653 C650 0.928 . S
H654 C651 0.931 . S
H655 C631 0.930 . S
H656 C628 0.930 . S
H657 C637 0.930 . S
H658 C649 0.929 . S
H659 C652 0.930 . S
C660 C661 1.351 . S
C660 N663 1.368 . S
C660 H665 0.931 . S
C661 C660 1.351 . S
C661 N662 1.373 . S
C661 H689 0.930 . S
N662 C661 1.373 . S
N662 C664 1.340 . S
N663 C660 1.368 . S
N663 C664 1.321 . S
N663 Co666 2.135 . S
C664 N662 1.340 . S
C664 N663 1.321 . S
C664 H688 0.930 . S
H665 C660 0.931 . S
Co666 N663 2.135 . S
Co666 N669 2.121 . S
Co666 O674 2.055 . S
Co666 O677 2.039 . S
Co666 N680 2.140 . S
C667 O668 1.227 . S
C667 O677 1.265 1_556 S
O668 C667 1.227 . S
N669 Co666 2.121 . S
N669 C671 1.375 . S
N669 C672 1.313 . S
C670 C671 1.338 . S
C670 N673 1.377 . S
C670 H690 0.930 . S
C671 N669 1.375 . S
C671 C670 1.338 . S
C671 H675 0.931 . S
C672 N669 1.313 . S
C672 N673 1.344 . S
C672 H676 0.930 . S
N673 C670 1.377 . S
N673 C672 1.344 . S
O674 Co666 2.055 . S
O674 C678 1.253 . S
H675 C671 0.931 . S
H676 C672 0.930 . S
O677 Co666 2.039 . S
O677 C667 1.265 1_554 S
C678 O674 1.253 . S
C678 O679 1.227 . S
O679 C678 1.227 . S
N680 Co666 2.140 . S
N680 C683 1.346 . S
N680 C684 1.345 . S
C681 C682 1.387 . S
C681 C685 1.391 . S
C682 C681 1.387 . S
C682 C683 1.369 . S
C682 H691 0.929 . S
C683 N680 1.346 . S
C683 C682 1.369 . S
C683 H686 0.928 . S
C684 N680 1.345 . S
C684 C685 1.371 . S
C684 H687 0.931 . S
C685 C681 1.391 . S
C685 C684 1.371 . S
C685 H692 0.930 . S
H686 C683 0.928 . S
H687 C684 0.931 . S
H688 C664 0.930 . S
H689 C661 0.930 . S
H690 C670 0.930 . S
H691 C682 0.929 . S
H692 C685 0.930 . S
C693 C694 1.351 . S
C693 N696 1.368 . S
C693 H698 0.931 . S
C694 C693 1.351 . S
C694 N695 1.373 . S
C694 H722 0.930 . S
N695 C694 1.373 . S
N695 C697 1.340 . S
N696 C693 1.368 . S
N696 C697 1.321 . S
N696 Co699 2.135 . S
C697 N695 1.340 . S
C697 N696 1.321 . S
C697 H721 0.930 . S
H698 C693 0.931 . S
Co699 N696 2.135 . S
Co699 N702 2.121 . S
Co699 O707 2.055 . S
Co699 O710 2.039 . S
Co699 N713 2.140 . S
C700 O701 1.227 . S
C700 O710 1.265 1_556 S
O701 C700 1.227 . S
N702 Co699 2.121 . S
N702 C704 1.375 . S
N702 C705 1.313 . S
C703 C704 1.338 . S
C703 N706 1.377 . S
C703 H723 0.930 . S
C704 N702 1.375 . S
C704 C703 1.338 . S
C704 H708 0.931 . S
C705 N702 1.313 . S
C705 N706 1.344 . S
C705 H709 0.930 . S
N706 C703 1.377 . S
N706 C705 1.344 . S
O707 Co699 2.055 . S
O707 C711 1.253 . S
H708 C704 0.931 . S
H709 C705 0.930 . S
O710 Co699 2.039 . S
O710 C700 1.265 1_554 S
C711 O707 1.253 . S
C711 O712 1.227 . S
O712 C711 1.227 . S
N713 Co699 2.140 . S
N713 C716 1.346 . S
N713 C717 1.345 . S
C714 C715 1.387 . S
C714 C718 1.391 . S
C715 C714 1.387 . S
C715 C716 1.369 . S
C715 H724 0.929 . S
C716 N713 1.346 . S
C716 C715 1.369 . S
C716 H719 0.928 . S
C717 N713 1.345 . S
C717 C718 1.371 . S
C717 H720 0.931 . S
C718 C714 1.391 . S
C718 C717 1.371 . S
C718 H725 0.930 . S
H719 C716 0.928 . S
H720 C717 0.931 . S
H721 C697 0.930 . S
H722 C694 0.930 . S
H723 C703 0.930 . S
H724 C715 0.929 . S
H725 C718 0.930 . S
C726 C727 1.351 . S
C726 N729 1.368 . S
C726 H731 0.931 . S
C727 C726 1.351 . S
C727 N728 1.373 . S
C727 H755 0.930 . S
N728 C727 1.373 . S
N728 C730 1.340 . S
N729 C726 1.368 . S
N729 C730 1.321 . S
N729 Co732 2.135 . S
C730 N728 1.340 . S
C730 N729 1.321 . S
C730 H754 0.930 . S
H731 C726 0.931 . S
Co732 N729 2.135 . S
Co732 N735 2.121 . S
Co732 O740 2.055 . S
Co732 O743 2.039 . S
Co732 N746 2.140 . S
C733 O734 1.227 . S
C733 O743 1.265 . S
O734 C733 1.227 . S
N735 Co732 2.121 . S
N735 C737 1.375 . S
N735 C738 1.313 . S
C736 C737 1.338 . S
C736 N739 1.377 . S
C736 H756 0.930 . S
C737 N735 1.375 . S
C737 C736 1.338 . S
C737 H741 0.931 . S
C738 N735 1.313 . S
C738 N739 1.344 . S
C738 H742 0.930 . S
N739 C736 1.377 . S
N739 C738 1.344 . S
O740 Co732 2.055 . S
O740 C744 1.253 . S
H741 C737 0.931 . S
H742 C738 0.930 . S
O743 Co732 2.039 . S
O743 C733 1.265 . S
C744 O740 1.253 . S
C744 O745 1.227 . S
O745 C744 1.227 . S
N746 Co732 2.140 . S
N746 C749 1.346 . S
N746 C750 1.345 . S
C747 C748 1.387 . S
C747 C751 1.391 . S
C748 C747 1.387 . S
C748 C749 1.369 . S
C748 H757 0.929 . S
C749 N746 1.346 . S
C749 C748 1.369 . S
C749 H752 0.928 . S
C750 N746 1.345 . S
C750 C751 1.371 . S
C750 H753 0.931 . S
C751 C747 1.391 . S
C751 C750 1.371 . S
C751 H758 0.930 . S
H752 C749 0.928 . S
H753 C750 0.931 . S
H754 C730 0.930 . S
H755 C727 0.930 . S
H756 C736 0.930 . S
H757 C748 0.929 . S
H758 C751 0.930 . S
C759 C760 1.351 . S
C759 N762 1.368 . S
C759 H764 0.931 . S
C760 C759 1.351 . S
C760 N761 1.373 . S
C760 H788 0.930 . S
N761 C760 1.373 . S
N761 C763 1.340 . S
N762 C759 1.368 . S
N762 C763 1.321 . S
N762 Co765 2.135 . S
C763 N761 1.340 . S
C763 N762 1.321 . S
C763 H787 0.930 . S
H764 C759 0.931 . S
Co765 N762 2.135 . S
Co765 N768 2.121 . S
Co765 O773 2.055 . S
Co765 O776 2.039 . S
Co765 N779 2.140 . S
C766 O767 1.227 . S
C766 O776 1.265 . S
O767 C766 1.227 . S
N768 Co765 2.121 . S
N768 C770 1.375 . S
N768 C771 1.313 . S
C769 C770 1.338 . S
C769 N772 1.377 . S
C769 H789 0.930 . S
C770 N768 1.375 . S
C770 C769 1.338 . S
C770 H774 0.931 . S
C771 N768 1.313 . S
C771 N772 1.344 . S
C771 H775 0.930 . S
N772 C769 1.377 . S
N772 C771 1.344 . S
O773 Co765 2.055 . S
O773 C777 1.253 . S
H774 C770 0.931 . S
H775 C771 0.930 . S
O776 Co765 2.039 . S
O776 C766 1.265 . S
C777 O773 1.253 . S
C777 O778 1.227 . S
O778 C777 1.227 . S
N779 Co765 2.140 . S
N779 C782 1.346 . S
N779 C783 1.345 . S
C780 C781 1.387 . S
C780 C784 1.391 . S
C781 C780 1.387 . S
C781 C782 1.369 . S
C781 H790 0.929 . S
C782 N779 1.346 . S
C782 C781 1.369 . S
C782 H785 0.928 . S
C783 N779 1.345 . S
C783 C784 1.371 . S
C783 H786 0.931 . S
C784 C780 1.391 . S
C784 C783 1.371 . S
C784 H791 0.930 . S
H785 C782 0.928 . S
H786 C783 0.931 . S
H787 C763 0.930 . S
H788 C760 0.930 . S
H789 C769 0.930 . S
H790 C781 0.929 . S
H791 C784 0.930 . S
C792 C793 1.351 . S
C792 N795 1.368 . S
C792 H797 0.931 . S
C793 C792 1.351 . S
C793 N794 1.373 . S
C793 H821 0.930 . S
N794 C793 1.373 . S
N794 C796 1.340 . S
N795 C792 1.368 . S
N795 C796 1.321 . S
N795 Co798 2.135 . S
C796 N794 1.340 . S
C796 N795 1.321 . S
C796 H820 0.930 . S
H797 C792 0.931 . S
Co798 N795 2.135 . S
Co798 N801 2.121 . S
Co798 O806 2.055 . S
Co798 O809 2.039 . S
Co798 N812 2.140 . S
C799 O800 1.227 . S
C799 O809 1.265 . S
O800 C799 1.227 . S
N801 Co798 2.121 . S
N801 C803 1.375 . S
N801 C804 1.313 . S
C802 C803 1.338 . S
C802 N805 1.377 . S
C802 H822 0.930 . S
C803 N801 1.375 . S
C803 C802 1.338 . S
C803 H807 0.931 . S
C804 N801 1.313 . S
C804 N805 1.344 . S
C804 H808 0.930 . S
N805 C802 1.377 . S
N805 C804 1.344 . S
O806 Co798 2.055 . S
O806 C810 1.253 . S
H807 C803 0.931 . S
H808 C804 0.930 . S
O809 Co798 2.039 . S
O809 C799 1.265 . S
C810 O806 1.253 . S
C810 O811 1.227 . S
O811 C810 1.227 . S
N812 Co798 2.140 . S
N812 C815 1.346 . S
N812 C816 1.345 . S
C813 C814 1.387 . S
C813 C817 1.391 . S
C814 C813 1.387 . S
C814 C815 1.369 . S
C814 H823 0.929 . S
C815 N812 1.346 . S
C815 C814 1.369 . S
C815 H818 0.928 . S
C816 N812 1.345 . S
C816 C817 1.371 . S
C816 H819 0.931 . S
C817 C813 1.391 . S
C817 C816 1.371 . S
C817 H824 0.930 . S
H818 C815 0.928 . S
H819 C816 0.931 . S
H820 C796 0.930 . S
H821 C793 0.930 . S
H822 C802 0.930 . S
H823 C814 0.929 . S
H824 C817 0.930 . S
C825 C826 1.351 . S
C825 N828 1.368 . S
C825 H830 0.931 . S
C826 C825 1.351 . S
C826 N827 1.373 . S
C826 H854 0.930 . S
N827 C826 1.373 . S
N827 C829 1.340 . S
N828 C825 1.368 . S
N828 C829 1.321 . S
N828 Co831 2.135 . S
C829 N827 1.340 . S
C829 N828 1.321 . S
C829 H853 0.930 . S
H830 C825 0.931 . S
Co831 N828 2.135 . S
Co831 N834 2.121 . S
Co831 O839 2.055 . S
Co831 O842 2.039 . S
Co831 N845 2.140 . S
C832 O833 1.227 . S
C832 O842 1.265 . S
O833 C832 1.227 . S
N834 Co831 2.121 . S
N834 C836 1.375 . S
N834 C837 1.313 . S
C835 C836 1.338 . S
C835 N838 1.377 . S
C835 H855 0.930 . S
C836 N834 1.375 . S
C836 C835 1.338 . S
C836 H840 0.931 . S
C837 N834 1.313 . S
C837 N838 1.344 . S
C837 H841 0.930 . S
N838 C835 1.377 . S
N838 C837 1.344 . S
O839 Co831 2.055 . S
O839 C843 1.253 . S
H840 C836 0.931 . S
H841 C837 0.930 . S
O842 Co831 2.039 . S
O842 C832 1.265 . S
C843 O839 1.253 . S
C843 O844 1.227 . S
O844 C843 1.227 . S
N845 Co831 2.140 . S
N845 C848 1.346 . S
N845 C849 1.345 . S
C846 C847 1.387 . S
C846 C850 1.391 . S
C847 C846 1.387 . S
C847 C848 1.369 . S
C847 H856 0.929 . S
C848 N845 1.346 . S
C848 C847 1.369 . S
C848 H851 0.928 . S
C849 N845 1.345 . S
C849 C850 1.371 . S
C849 H852 0.931 . S
C850 C846 1.391 . S
C850 C849 1.371 . S
C850 H857 0.930 . S
H851 C848 0.928 . S
H852 C849 0.931 . S
H853 C829 0.930 . S
H854 C826 0.930 . S
H855 C835 0.930 . S
H856 C847 0.929 . S
H857 C850 0.930 . S
C858 C859 1.351 . S
C858 N861 1.368 . S
C858 H863 0.931 . S
C859 C858 1.351 . S
C859 N860 1.373 . S
C859 H887 0.930 . S
N860 C859 1.373 . S
N860 C862 1.340 . S
N861 C858 1.368 . S
N861 C862 1.321 . S
N861 Co864 2.135 . S
C862 N860 1.340 . S
C862 N861 1.321 . S
C862 H886 0.930 . S
H863 C858 0.931 . S
Co864 N861 2.135 . S
Co864 N867 2.121 . S
Co864 O872 2.055 . S
Co864 O875 2.039 . S
Co864 N878 2.140 . S
C865 O866 1.227 . S
C865 O875 1.265 . S
O866 C865 1.227 . S
N867 Co864 2.121 . S
N867 C869 1.375 . S
N867 C870 1.313 . S
C868 C869 1.338 . S
C868 N871 1.377 . S
C868 H888 0.930 . S
C869 N867 1.375 . S
C869 C868 1.338 . S
C869 H873 0.931 . S
C870 N867 1.313 . S
C870 N871 1.344 . S
C870 H874 0.930 . S
N871 C868 1.377 . S
N871 C870 1.344 . S
O872 Co864 2.055 . S
O872 C876 1.254 1_556 S
H873 C869 0.931 . S
H874 C870 0.930 . S
O875 Co864 2.039 . S
O875 C865 1.265 . S
C876 O872 1.254 1_554 S
C876 O877 1.227 1_554 S
O877 C876 1.227 1_556 S
N878 Co864 2.140 . S
N878 C881 1.346 . S
N878 C882 1.345 . S
C879 C880 1.387 . S
C879 C883 1.391 . S
C880 C879 1.387 . S
C880 C881 1.369 . S
C880 H889 0.929 . S
C881 N878 1.346 . S
C881 C880 1.369 . S
C881 H884 0.928 . S
C882 N878 1.345 . S
C882 C883 1.371 . S
C882 H885 0.931 . S
C883 C879 1.391 . S
C883 C882 1.371 . S
C883 H890 0.930 . S
H884 C881 0.928 . S
H885 C882 0.931 . S
H886 C862 0.930 . S
H887 C859 0.930 . S
H888 C868 0.930 . S
H889 C880 0.929 . S
H890 C883 0.930 . S
C891 C892 1.351 . S
C891 N894 1.368 . S
C891 H896 0.931 . S
C892 C891 1.351 . S
C892 N893 1.373 . S
C892 H920 0.930 . S
N893 C892 1.373 . S
N893 C895 1.340 . S
N894 C891 1.368 . S
N894 C895 1.321 . S
N894 Co897 2.135 . S
C895 N893 1.340 . S
C895 N894 1.321 . S
C895 H919 0.930 . S
H896 C891 0.931 . S
Co897 N894 2.135 . S
Co897 N900 2.121 . S
Co897 O905 2.055 . S
Co897 O908 2.039 . S
Co897 N911 2.140 . S
C898 O899 1.227 . S
C898 O908 1.265 . S
O899 C898 1.227 . S
N900 Co897 2.121 . S
N900 C902 1.375 . S
N900 C903 1.313 . S
C901 C902 1.338 . S
C901 N904 1.377 . S
C901 H921 0.930 . S
C902 N900 1.375 . S
C902 C901 1.338 . S
C902 H906 0.931 . S
C903 N900 1.313 . S
C903 N904 1.344 . S
C903 H907 0.930 . S
N904 C901 1.377 . S
N904 C903 1.344 . S
O905 Co897 2.055 . S
O905 C909 1.253 . S
H906 C902 0.931 . S
H907 C903 0.930 . S
O908 Co897 2.039 . S
O908 C898 1.265 . S
C909 O905 1.253 . S
C909 O910 1.227 . S
O910 C909 1.227 . S
N911 Co897 2.140 . S
N911 C914 1.346 . S
N911 C915 1.345 . S
C912 C913 1.387 . S
C912 C916 1.391 . S
C913 C912 1.387 . S
C913 C914 1.369 . S
C913 H922 0.929 . S
C914 N911 1.346 . S
C914 C913 1.369 . S
C914 H917 0.928 . S
C915 N911 1.345 . S
C915 C916 1.371 . S
C915 H918 0.931 . S
C916 C912 1.391 . S
C916 C915 1.371 . S
C916 H923 0.930 . S
H917 C914 0.928 . S
H918 C915 0.931 . S
H919 C895 0.930 . S
H920 C892 0.930 . S
H921 C901 0.930 . S
H922 C913 0.929 . S
H923 C916 0.930 . S
C924 C925 1.351 . S
C924 N927 1.368 . S
C924 H929 0.931 . S
C925 C924 1.351 . S
C925 N926 1.373 . S
C925 H953 0.930 . S
N926 C925 1.373 . S
N926 C928 1.340 . S
N927 C924 1.368 . S
N927 C928 1.321 . S
N927 Co930 2.135 . S
C928 N926 1.340 . S
C928 N927 1.321 . S
C928 H952 0.930 . S
H929 C924 0.931 . S
Co930 N927 2.135 . S
Co930 N933 2.121 . S
Co930 O938 2.055 . S
Co930 O941 2.039 . S
Co930 N944 2.140 . S
C931 O932 1.227 . S
C931 O941 1.265 . S
O932 C931 1.227 . S
N933 Co930 2.121 . S
N933 C935 1.375 . S
N933 C936 1.313 . S
C934 C935 1.338 . S
C934 N937 1.377 . S
C934 H954 0.930 . S
C935 N933 1.375 . S
C935 C934 1.338 . S
C935 H939 0.931 . S
C936 N933 1.313 . S
C936 N937 1.344 . S
C936 H940 0.930 . S
N937 C934 1.377 . S
N937 C936 1.344 . S
O938 Co930 2.055 . S
O938 C942 1.253 . S
H939 C935 0.931 . S
H940 C936 0.930 . S
O941 Co930 2.039 . S
O941 C931 1.265 . S
C942 O938 1.253 . S
C942 O943 1.227 . S
O943 C942 1.227 . S
N944 Co930 2.140 . S
N944 C947 1.346 . S
N944 C948 1.345 . S
C945 C946 1.387 . S
C945 C949 1.391 . S
C946 C945 1.387 . S
C946 C947 1.369 . S
C946 H955 0.929 . S
C947 N944 1.346 . S
C947 C946 1.369 . S
C947 H950 0.928 . S
C948 N944 1.345 . S
C948 C949 1.371 . S
C948 H951 0.931 . S
C949 C945 1.391 . S
C949 C948 1.371 . S
C949 H956 0.930 . S
H950 C947 0.928 . S
H951 C948 0.931 . S
H952 C928 0.930 . S
H953 C925 0.930 . S
H954 C934 0.930 . S
H955 C946 0.929 . S
H956 C949 0.930 . S
C957 C958 1.351 . S
C957 N960 1.368 . S
C957 H962 0.931 . S
C958 C957 1.351 . S
C958 N959 1.373 . S
C958 H986 0.930 . S
N959 C958 1.373 . S
N959 C961 1.340 . S
N960 C957 1.368 . S
N960 C961 1.321 . S
N960 Co963 2.135 . S
C961 N959 1.340 . S
C961 N960 1.321 . S
C961 H985 0.930 . S
H962 C957 0.931 . S
Co963 N960 2.135 . S
Co963 N966 2.121 . S
Co963 O971 2.055 . S
Co963 O974 2.039 . S
Co963 N977 2.140 . S
C964 O965 1.227 . S
C964 O974 1.265 . S
O965 C964 1.227 . S
N966 Co963 2.121 . S
N966 C968 1.375 . S
N966 C969 1.313 . S
C967 C968 1.338 . S
C967 N970 1.377 . S
C967 H987 0.930 . S
C968 N966 1.375 . S
C968 C967 1.338 . S
C968 H972 0.931 . S
C969 N966 1.313 . S
C969 N970 1.344 . S
C969 H973 0.930 . S
N970 C967 1.377 . S
N970 C969 1.344 . S
O971 Co963 2.055 . S
O971 C975 1.253 . S
H972 C968 0.931 . S
H973 C969 0.930 . S
O974 Co963 2.039 . S
O974 C964 1.265 . S
C975 O971 1.253 . S
C975 O976 1.227 . S
O976 C975 1.227 . S
N977 Co963 2.140 . S
N977 C980 1.346 . S
N977 C981 1.345 . S
C978 C979 1.387 . S
C978 C982 1.391 . S
C979 C978 1.387 . S
C979 C980 1.369 . S
C979 H988 0.929 . S
C980 N977 1.346 . S
C980 C979 1.369 . S
C980 H983 0.928 . S
C981 N977 1.345 . S
C981 C982 1.371 . S
C981 H984 0.931 . S
C982 C978 1.391 . S
C982 C981 1.371 . S
C982 H989 0.930 . S
H983 C980 0.928 . S
H984 C981 0.931 . S
H985 C961 0.930 . S
H986 C958 0.930 . S
H987 C967 0.930 . S
H988 C979 0.929 . S
H989 C982 0.930 . S
C990 C991 1.351 . S
C990 N993 1.368 . S
C990 H995 0.931 . S
C991 C990 1.351 . S
C991 N992 1.373 . S
C991 H1019 0.930 . S
N992 C991 1.373 . S
N992 C994 1.340 . S
N993 C990 1.368 . S
N993 C994 1.321 . S
N993 Co996 2.135 . S
C994 N992 1.340 . S
C994 N993 1.321 . S
C994 H1018 0.930 . S
H995 C990 0.931 . S
Co996 N993 2.135 . S
Co996 N999 2.121 . S
Co996 O1004 2.055 . S
Co996 O1007 2.039 . S
Co996 N1010 2.140 . S
C997 O998 1.227 . S
C997 O1007 1.265 . S
O998 C997 1.227 . S
N999 Co996 2.121 . S
N999 C1001 1.375 . S
N999 C1002 1.313 . S
C1000 C1001 1.338 . S
C1000 N1003 1.377 . S
C1000 H1020 0.930 . S
C1001 N999 1.375 . S
C1001 C1000 1.338 . S
C1001 H1005 0.931 . S
C1002 N999 1.313 . S
C1002 N1003 1.344 . S
C1002 H1006 0.930 . S
N1003 C1000 1.377 . S
N1003 C1002 1.344 . S
O1004 Co996 2.055 . S
O1004 C1008 1.254 1_554 S
H1005 C1001 0.931 . S
H1006 C1002 0.930 . S
O1007 Co996 2.039 . S
O1007 C997 1.265 . S
C1008 O1004 1.254 1_556 S
C1008 O1009 1.227 1_556 S
O1009 C1008 1.227 1_554 S
N1010 Co996 2.140 . S
N1010 C1013 1.346 . S
N1010 C1014 1.345 . S
C1011 C1012 1.387 . S
C1011 C1015 1.391 . S
C1012 C1011 1.387 . S
C1012 C1013 1.369 . S
C1012 H1021 0.929 . S
C1013 N1010 1.346 . S
C1013 C1012 1.369 . S
C1013 H1016 0.928 . S
C1014 N1010 1.345 . S
C1014 C1015 1.371 . S
C1014 H1017 0.931 . S
C1015 C1011 1.391 . S
C1015 C1014 1.371 . S
C1015 H1022 0.930 . S
H1016 C1013 0.928 . S
H1017 C1014 0.931 . S
H1018 C994 0.930 . S
H1019 C991 0.930 . S
H1020 C1000 0.930 . S
H1021 C1012 0.929 . S
H1022 C1015 0.930 . S
C1023 C1024 1.351 . S
C1023 N1026 1.368 . S
C1023 H1028 0.931 . S
C1024 C1023 1.351 . S
C1024 N1025 1.373 . S
C1024 H1052 0.930 . S
N1025 C1024 1.373 . S
N1025 C1027 1.340 . S
N1026 C1023 1.368 . S
N1026 C1027 1.321 . S
N1026 Co1029 2.135 . S
C1027 N1025 1.340 . S
C1027 N1026 1.321 . S
C1027 H1051 0.930 . S
H1028 C1023 0.931 . S
Co1029 N1026 2.135 . S
Co1029 N1032 2.121 . S
Co1029 O1037 2.055 . S
Co1029 O1040 2.039 . S
Co1029 N1043 2.140 . S
C1030 O1031 1.227 . S
C1030 O1040 1.265 . S
O1031 C1030 1.227 . S
N1032 Co1029 2.121 . S
N1032 C1034 1.375 . S
N1032 C1035 1.313 . S
C1033 C1034 1.338 . S
C1033 N1036 1.377 . S
C1033 H1053 0.930 . S
C1034 N1032 1.375 . S
C1034 C1033 1.338 . S
C1034 H1038 0.931 . S
C1035 N1032 1.313 . S
C1035 N1036 1.344 . S
C1035 H1039 0.930 . S
N1036 C1033 1.377 . S
N1036 C1035 1.344 . S
O1037 Co1029 2.055 . S
O1037 C1041 1.253 . S
H1038 C1034 0.931 . S
H1039 C1035 0.930 . S
O1040 Co1029 2.039 . S
O1040 C1030 1.265 . S
C1041 O1037 1.253 . S
C1041 O1042 1.227 . S
O1042 C1041 1.227 . S
N1043 Co1029 2.140 . S
N1043 C1046 1.346 . S
N1043 C1047 1.345 . S
C1044 C1045 1.387 . S
C1044 C1048 1.391 . S
C1045 C1044 1.387 . S
C1045 C1046 1.369 . S
C1045 H1054 0.929 . S
C1046 N1043 1.346 . S
C1046 C1045 1.369 . S
C1046 H1049 0.928 . S
C1047 N1043 1.345 . S
C1047 C1048 1.371 . S
C1047 H1050 0.931 . S
C1048 C1044 1.391 . S
C1048 C1047 1.371 . S
C1048 H1055 0.930 . S
H1049 C1046 0.928 . S
H1050 C1047 0.931 . S
H1051 C1027 0.930 . S
H1052 C1024 0.930 . S
H1053 C1033 0.930 . S
H1054 C1045 0.929 . S
H1055 C1048 0.930 . S
C1056 C1057 1.369 1_455 S
C1056 C1058 1.419 . S
C1056 H1060 0.930 . S
C1057 C1056 1.369 1_655 S
C1057 C1066 1.429 . S
C1058 C1056 1.419 . S
C1058 C1059 1.363 1_455 S
C1058 H1061 0.929 . S
C1059 C1058 1.363 1_655 S
C1059 C1065 1.428 . S
H1060 C1056 0.930 . S
H1061 C1058 0.929 . S
S1062 N1063 1.613 . S
S1062 N1064 1.610 . S
N1063 S1062 1.613 . S
N1063 C1066 1.350 . S
N1064 S1062 1.610 . S
N1064 C1065 1.351 . S
C1065 C1059 1.428 . S
C1065 N1064 1.351 . S
C1065 C1066 1.434 . S
C1066 C1057 1.429 . S
C1066 N1063 1.350 . S
C1066 C1065 1.434 . S
C1067 C1068 1.369 . S
C1067 C1069 1.419 . S
C1067 H1071 0.930 . S
C1068 C1067 1.369 . S
C1068 C1077 1.429 . S
C1069 C1067 1.419 . S
C1069 C1070 1.363 . S
C1069 H1072 0.929 . S
C1070 C1069 1.363 . S
C1070 C1076 1.428 . S
H1071 C1067 0.930 . S
H1072 C1069 0.929 . S
S1073 N1074 1.613 . S
S1073 N1075 1.610 . S
N1074 S1073 1.613 . S
N1074 C1077 1.350 . S
N1075 S1073 1.610 . S
N1075 C1076 1.351 . S
C1076 C1070 1.428 . S
C1076 N1075 1.351 . S
C1076 C1077 1.434 . S
C1077 C1068 1.429 . S
C1077 N1074 1.350 . S
C1077 C1076 1.434 . S
C1078 C1079 1.369 1_655 S
C1078 C1080 1.419 . S
C1078 H1082 0.930 . S
C1079 C1078 1.369 1_455 S
C1079 C1088 1.429 . S
C1080 C1078 1.419 . S
C1080 C1081 1.363 1_655 S
C1080 H1083 0.929 . S
C1081 C1080 1.363 1_455 S
C1081 C1087 1.428 . S
H1082 C1078 0.930 . S
H1083 C1080 0.929 . S
S1084 N1085 1.613 . S
S1084 N1086 1.610 . S
N1085 S1084 1.613 . S
N1085 C1088 1.350 . S
N1086 S1084 1.610 . S
N1086 C1087 1.351 . S
C1087 C1081 1.428 . S
C1087 N1086 1.351 . S
C1087 C1088 1.434 . S
C1088 C1079 1.429 . S
C1088 N1085 1.350 . S
C1088 C1087 1.434 . S
C1089 C1090 1.369 . S
C1089 C1091 1.419 . S
C1089 H1093 0.930 . S
C1090 C1089 1.369 . S
C1090 C1099 1.429 . S
C1091 C1089 1.419 . S
C1091 C1092 1.363 . S
C1091 H1094 0.929 . S
C1092 C1091 1.363 . S
C1092 C1098 1.428 . S
H1093 C1089 0.930 . S
H1094 C1091 0.929 . S
S1095 N1096 1.613 . S
S1095 N1097 1.610 . S
N1096 S1095 1.613 . S
N1096 C1099 1.350 . S
N1097 S1095 1.610 . S
N1097 C1098 1.351 . S
C1098 C1092 1.428 . S
C1098 N1097 1.351 . S
C1098 C1099 1.434 . S
C1099 C1090 1.429 . S
C1099 N1096 1.350 . S
C1099 C1098 1.434 . S
C1100 C1101 1.369 . S
C1100 C1102 1.419 . S
C1100 H1104 0.930 . S
C1101 C1100 1.369 . S
C1101 C1110 1.429 . S
C1102 C1100 1.419 . S
C1102 C1103 1.363 . S
C1102 H1105 0.929 . S
C1103 C1102 1.363 . S
C1103 C1109 1.428 . S
H1104 C1100 0.930 . S
H1105 C1102 0.929 . S
S1106 N1107 1.613 . S
S1106 N1108 1.610 . S
N1107 S1106 1.613 . S
N1107 C1110 1.350 . S
N1108 S1106 1.610 . S
N1108 C1109 1.351 . S
C1109 C1103 1.428 . S
C1109 N1108 1.351 . S
C1109 C1110 1.434 . S
C1110 C1101 1.429 . S
C1110 N1107 1.350 . S
C1110 C1109 1.434 . S
C1111 C1112 1.369 . S
C1111 C1113 1.419 . S
C1111 H1115 0.930 . S
C1112 C1111 1.369 . S
C1112 C1121 1.429 . S
C1113 C1111 1.419 . S
C1113 C1114 1.363 . S
C1113 H1116 0.929 . S
C1114 C1113 1.363 . S
C1114 C1120 1.428 . S
H1115 C1111 0.930 . S
H1116 C1113 0.929 . S
S1117 N1118 1.613 . S
S1117 N1119 1.610 . S
N1118 S1117 1.613 . S
N1118 C1121 1.350 . S
N1119 S1117 1.610 . S
N1119 C1120 1.351 . S
C1120 C1114 1.428 . S
C1120 N1119 1.351 . S
C1120 C1121 1.434 . S
C1121 C1112 1.429 . S
C1121 N1118 1.350 . S
C1121 C1120 1.434 . S
C1122 C1123 1.354 1_655 S
C1122 C1124 1.419 . S
C1122 H1126 0.947 . S
C1123 C1122 1.354 1_455 S
C1123 C1132 1.429 . S
C1124 C1122 1.419 . S
C1124 C1125 1.345 1_655 S
C1124 H1127 0.950 . S
C1125 C1124 1.345 1_455 S
C1125 C1131 1.428 . S
H1126 C1122 0.947 . S
H1127 C1124 0.950 . S
S1128 N1129 1.613 . S
S1128 N1130 1.610 . S
N1129 S1128 1.613 . S
N1129 C1132 1.350 . S
N1130 S1128 1.610 . S
N1130 C1131 1.351 . S
C1131 C1125 1.428 . S
C1131 N1130 1.351 . S
C1131 C1132 1.434 . S
C1132 C1123 1.429 . S
C1132 N1129 1.350 . S
C1132 C1131 1.434 . S
C1133 C1134 1.369 . S
C1133 C1135 1.419 . S
C1133 H1137 0.930 . S
C1134 C1133 1.369 . S
C1134 C1143 1.429 . S
C1135 C1133 1.419 . S
C1135 C1136 1.363 . S
C1135 H1138 0.929 . S
C1136 C1135 1.363 . S
C1136 C1142 1.428 . S
H1137 C1133 0.930 . S
H1138 C1135 0.929 . S
S1139 N1140 1.613 . S
S1139 N1141 1.610 . S
N1140 S1139 1.613 . S
N1140 C1143 1.350 . S
N1141 S1139 1.610 . S
N1141 C1142 1.351 . S
C1142 C1136 1.428 . S
C1142 N1141 1.351 . S
C1142 C1143 1.434 . S
C1143 C1134 1.429 . S
C1143 N1140 1.350 . S
C1143 C1142 1.434 . S
C1144 C1145 1.369 . S
C1144 C1146 1.419 . S
C1144 H1148 0.930 . S
C1145 C1144 1.369 . S
C1145 C1154 1.429 . S
C1146 C1144 1.419 . S
C1146 C1147 1.363 . S
C1146 H1149 0.929 . S
C1147 C1146 1.363 . S
C1147 C1153 1.428 . S
H1148 C1144 0.930 . S
H1149 C1146 0.929 . S
S1150 N1151 1.613 . S
S1150 N1152 1.610 . S
N1151 S1150 1.613 . S
N1151 C1154 1.350 . S
N1152 S1150 1.610 . S
N1152 C1153 1.351 . S
C1153 C1147 1.428 . S
C1153 N1152 1.351 . S
C1153 C1154 1.434 . S
C1154 C1145 1.429 . S
C1154 N1151 1.350 . S
C1154 C1153 1.434 . S
C1155 C1156 1.369 . S
C1155 C1157 1.419 . S
C1155 H1159 0.930 . S
C1156 C1155 1.369 . S
C1156 C1165 1.429 . S
C1157 C1155 1.419 . S
C1157 C1158 1.363 . S
C1157 H1160 0.929 . S
C1158 C1157 1.363 . S
C1158 C1164 1.428 . S
H1159 C1155 0.930 . S
H1160 C1157 0.929 . S
S1161 N1162 1.613 . S
S1161 N1163 1.610 . S
N1162 S1161 1.613 . S
N1162 C1165 1.350 . S
N1163 S1161 1.610 . S
N1163 C1164 1.351 . S
C1164 C1158 1.428 . S
C1164 N1163 1.351 . S
C1164 C1165 1.434 . S
C1165 C1156 1.429 . S
C1165 N1162 1.350 . S
C1165 C1164 1.434 . S
C1166 C1167 1.369 . S
C1166 C1168 1.419 . S
C1166 H1170 0.930 . S
C1167 C1166 1.369 . S
C1167 C1176 1.429 . S
C1168 C1166 1.419 . S
C1168 C1169 1.363 . S
C1168 H1171 0.929 . S
C1169 C1168 1.363 . S
C1169 C1175 1.428 . S
H1170 C1166 0.930 . S
H1171 C1168 0.929 . S
S1172 N1173 1.613 . S
S1172 N1174 1.610 . S
N1173 S1172 1.613 . S
N1173 C1176 1.350 . S
N1174 S1172 1.610 . S
N1174 C1175 1.351 . S
C1175 C1169 1.428 . S
C1175 N1174 1.351 . S
C1175 C1176 1.434 . S
C1176 C1167 1.429 . S
C1176 N1173 1.350 . S
C1176 C1175 1.434 . S
C1177 C1178 1.369 . S
C1177 C1179 1.419 . S
C1177 H1181 0.930 . S
C1178 C1177 1.369 . S
C1178 C1187 1.429 . S
C1179 C1177 1.419 . S
C1179 C1180 1.363 . S
C1179 H1182 0.929 . S
C1180 C1179 1.363 . S
C1180 C1186 1.428 . S
H1181 C1177 0.930 . S
H1182 C1179 0.929 . S
S1183 N1184 1.613 . S
S1183 N1185 1.610 . S
N1184 S1183 1.613 . S
N1184 C1187 1.350 . S
N1185 S1183 1.610 . S
N1185 C1186 1.351 . S
C1186 C1180 1.428 . S
C1186 N1185 1.351 . S
C1186 C1187 1.434 . S
C1187 C1178 1.429 . S
C1187 N1184 1.350 . S
C1187 C1186 1.434 . S
C1188 C1189 1.369 . S
C1188 C1190 1.419 . S
C1188 H1192 0.930 . S
C1189 C1188 1.369 . S
C1189 C1198 1.429 . S
C1190 C1188 1.419 . S
C1190 C1191 1.363 . S
C1190 H1193 0.929 . S
C1191 C1190 1.363 . S
C1191 C1197 1.428 . S
H1192 C1188 0.930 . S
H1193 C1190 0.929 . S
S1194 N1195 1.613 . S
S1194 N1196 1.610 . S
N1195 S1194 1.613 . S
N1195 C1198 1.350 . S
N1196 S1194 1.610 . S
N1196 C1197 1.351 . S
C1197 C1191 1.428 . S
C1197 N1196 1.351 . S
C1197 C1198 1.434 . S
C1198 C1189 1.429 . S
C1198 N1195 1.350 . S
C1198 C1197 1.434 . S
C1199 C1200 1.369 . S
C1199 C1201 1.419 . S
C1199 H1203 0.930 . S
C1200 C1199 1.369 . S
C1200 C1209 1.429 . S
C1201 C1199 1.419 . S
C1201 C1202 1.363 . S
C1201 H1204 0.929 . S
C1202 C1201 1.363 . S
C1202 C1208 1.428 . S
H1203 C1199 0.930 . S
H1204 C1201 0.929 . S
S1205 N1206 1.613 . S
S1205 N1207 1.610 . S
N1206 S1205 1.613 . S
N1206 C1209 1.350 . S
N1207 S1205 1.610 . S
N1207 C1208 1.351 . S
C1208 C1202 1.428 . S
C1208 N1207 1.351 . S
C1208 C1209 1.434 . S
C1209 C1200 1.429 . S
C1209 N1206 1.350 . S
C1209 C1208 1.434 . S
C1210 C1211 1.369 . S
C1210 C1212 1.419 . S
C1210 H1214 0.930 . S
C1211 C1210 1.369 . S
C1211 C1220 1.429 . S
C1212 C1210 1.419 . S
C1212 C1213 1.363 . S
C1212 H1215 0.929 . S
C1213 C1212 1.363 . S
C1213 C1219 1.428 . S
H1214 C1210 0.930 . S
H1215 C1212 0.929 . S
S1216 N1217 1.613 . S
S1216 N1218 1.610 . S
N1217 S1216 1.613 . S
N1217 C1220 1.350 . S
N1218 S1216 1.610 . S
N1218 C1219 1.351 . S
C1219 C1213 1.428 . S
C1219 N1218 1.351 . S
C1219 C1220 1.434 . S
C1220 C1211 1.429 . S
C1220 N1217 1.350 . S
C1220 C1219 1.434 . S
C1221 C1222 1.369 . S
C1221 C1223 1.419 . S
C1221 H1225 0.930 . S
C1222 C1221 1.369 . S
C1222 C1231 1.429 . S
C1223 C1221 1.419 . S
C1223 C1224 1.363 . S
C1223 H1226 0.929 . S
C1224 C1223 1.363 . S
C1224 C1230 1.428 . S
H1225 C1221 0.930 . S
H1226 C1223 0.929 . S
S1227 N1228 1.613 . S
S1227 N1229 1.610 . S
N1228 S1227 1.613 . S
N1228 C1231 1.350 . S
N1229 S1227 1.610 . S
N1229 C1230 1.351 . S
C1230 C1224 1.428 . S
C1230 N1229 1.351 . S
C1230 C1231 1.434 . S
C1231 C1222 1.429 . S
C1231 N1228 1.350 . S
C1231 C1230 1.434 . S
C1232 C1233 1.369 . S
C1232 C1234 1.419 . S
C1232 H1236 0.930 . S
C1233 C1232 1.369 . S
C1233 C1242 1.429 . S
C1234 C1232 1.419 . S
C1234 C1235 1.363 . S
C1234 H1237 0.929 . S
C1235 C1234 1.363 . S
C1235 C1241 1.428 . S
H1236 C1232 0.930 . S
H1237 C1234 0.929 . S
S1238 N1239 1.613 . S
S1238 N1240 1.610 . S
N1239 S1238 1.613 . S
N1239 C1242 1.350 . S
N1240 S1238 1.610 . S
N1240 C1241 1.351 . S
C1241 C1235 1.428 . S
C1241 N1240 1.351 . S
C1241 C1242 1.434 . S
C1242 C1233 1.429 . S
C1242 N1239 1.350 . S
C1242 C1241 1.434 . S
C1243 C1244 1.369 . S
C1243 C1245 1.419 . S
C1243 H1247 0.930 . S
C1244 C1243 1.369 . S
C1244 C1253 1.429 . S
C1245 C1243 1.419 . S
C1245 C1246 1.363 . S
C1245 H1248 0.929 . S
C1246 C1245 1.363 . S
C1246 C1252 1.428 . S
H1247 C1243 0.930 . S
H1248 C1245 0.929 . S
S1249 N1250 1.613 . S
S1249 N1251 1.610 . S
N1250 S1249 1.613 . S
N1250 C1253 1.350 . S
N1251 S1249 1.610 . S
N1251 C1252 1.351 . S
C1252 C1246 1.428 . S
C1252 N1251 1.351 . S
C1252 C1253 1.434 . S
C1253 C1244 1.429 . S
C1253 N1250 1.350 . S
C1253 C1252 1.434 . S
C1254 C1255 1.369 . S
C1254 C1256 1.419 . S
C1254 H1258 0.930 . S
C1255 C1254 1.369 . S
C1255 C1264 1.429 . S
C1256 C1254 1.419 . S
C1256 C1257 1.363 . S
C1256 H1259 0.929 . S
C1257 C1256 1.363 . S
C1257 C1263 1.428 . S
H1258 C1254 0.930 . S
H1259 C1256 0.929 . S
S1260 N1261 1.613 . S
S1260 N1262 1.610 . S
N1261 S1260 1.613 . S
N1261 C1264 1.350 . S
N1262 S1260 1.610 . S
N1262 C1263 1.351 . S
C1263 C1257 1.428 . S
C1263 N1262 1.351 . S
C1263 C1264 1.434 . S
C1264 C1255 1.429 . S
C1264 N1261 1.350 . S
C1264 C1263 1.434 . S
C1265 C1266 1.369 . S
C1265 C1267 1.419 . S
C1265 H1269 0.930 . S
C1266 C1265 1.369 . S
C1266 C1275 1.429 . S
C1267 C1265 1.419 . S
C1267 C1268 1.363 . S
C1267 H1270 0.929 . S
C1268 C1267 1.363 . S
C1268 C1274 1.428 . S
H1269 C1265 0.930 . S
H1270 C1267 0.929 . S
S1271 N1272 1.613 . S
S1271 N1273 1.610 . S
N1272 S1271 1.613 . S
N1272 C1275 1.350 . S
N1273 S1271 1.610 . S
N1273 C1274 1.351 . S
C1274 C1268 1.428 . S
C1274 N1273 1.351 . S
C1274 C1275 1.434 . S
C1275 C1266 1.429 . S
C1275 N1272 1.350 . S
C1275 C1274 1.434 . S
C1276 C1277 1.369 . S
C1276 C1278 1.419 . S
C1276 H1280 0.930 . S
C1277 C1276 1.369 . S
C1277 C1286 1.429 . S
C1278 C1276 1.419 . S
C1278 C1279 1.363 . S
C1278 H1281 0.929 . S
C1279 C1278 1.363 . S
C1279 C1285 1.428 . S
H1280 C1276 0.930 . S
H1281 C1278 0.929 . S
S1282 N1283 1.613 . S
S1282 N1284 1.610 . S
N1283 S1282 1.613 . S
N1283 C1286 1.350 . S
N1284 S1282 1.610 . S
N1284 C1285 1.351 . S
C1285 C1279 1.428 . S
C1285 N1284 1.351 . S
C1285 C1286 1.434 . S
C1286 C1277 1.429 . S
C1286 N1283 1.350 . S
C1286 C1285 1.434 . S
C1287 C1288 1.369 . S
C1287 C1289 1.419 . S
C1287 H1291 0.930 . S
C1288 C1287 1.369 . S
C1288 C1297 1.429 . S
C1289 C1287 1.419 . S
C1289 C1290 1.363 . S
C1289 H1292 0.929 . S
C1290 C1289 1.363 . S
C1290 C1296 1.428 . S
H1291 C1287 0.930 . S
H1292 C1289 0.929 . S
S1293 N1294 1.613 . S
S1293 N1295 1.610 . S
N1294 S1293 1.613 . S
N1294 C1297 1.350 . S
N1295 S1293 1.610 . S
N1295 C1296 1.351 . S
C1296 C1290 1.428 . S
C1296 N1295 1.351 . S
C1296 C1297 1.434 . S
C1297 C1288 1.429 . S
C1297 N1294 1.350 . S
C1297 C1296 1.434 . S
C1298 C1299 1.369 . S
C1298 C1300 1.419 . S
C1298 H1302 0.930 . S
C1299 C1298 1.369 . S
C1299 C1308 1.429 . S
C1300 C1298 1.419 . S
C1300 C1301 1.363 . S
C1300 H1303 0.929 . S
C1301 C1300 1.363 . S
C1301 C1307 1.428 . S
H1302 C1298 0.930 . S
H1303 C1300 0.929 . S
S1304 N1305 1.613 . S
S1304 N1306 1.610 . S
N1305 S1304 1.613 . S
N1305 C1308 1.350 . S
N1306 S1304 1.610 . S
N1306 C1307 1.351 . S
C1307 C1301 1.428 . S
C1307 N1306 1.351 . S
C1307 C1308 1.434 . S
C1308 C1299 1.429 . S
C1308 N1305 1.350 . S
C1308 C1307 1.434 . S
C1309 C1310 1.369 . S
C1309 C1311 1.419 . S
C1309 H1313 0.930 . S
C1310 C1309 1.369 . S
C1310 C1319 1.429 . S
C1311 C1309 1.419 . S
C1311 C1312 1.363 . S
C1311 H1314 0.929 . S
C1312 C1311 1.363 . S
C1312 C1318 1.428 . S
H1313 C1309 0.930 . S
H1314 C1311 0.929 . S
S1315 N1316 1.613 . S
S1315 N1317 1.610 . S
N1316 S1315 1.613 . S
N1316 C1319 1.350 . S
N1317 S1315 1.610 . S
N1317 C1318 1.351 . S
C1318 C1312 1.428 . S
C1318 N1317 1.351 . S
C1318 C1319 1.434 . S
C1319 C1310 1.429 . S
C1319 N1316 1.350 . S
C1319 C1318 1.434 . S
C1320 C1321 1.369 . S
C1320 C1322 1.419 . S
C1320 H1324 0.930 . S
C1321 C1320 1.369 . S
C1321 C1330 1.429 . S
C1322 C1320 1.419 . S
C1322 C1323 1.363 . S
C1322 H1325 0.929 . S
C1323 C1322 1.363 . S
C1323 C1329 1.428 . S
H1324 C1320 0.930 . S
H1325 C1322 0.929 . S
S1326 N1327 1.613 . S
S1326 N1328 1.610 . S
N1327 S1326 1.613 . S
N1327 C1330 1.350 . S
N1328 S1326 1.610 . S
N1328 C1329 1.351 . S
C1329 C1323 1.428 . S
C1329 N1328 1.351 . S
C1329 C1330 1.434 . S
C1330 C1321 1.429 . S
C1330 N1327 1.350 . S
C1330 C1329 1.434 . S
C1331 C1332 1.369 . S
C1331 C1333 1.419 . S
C1331 H1335 0.930 . S
C1332 C1331 1.369 . S
C1332 C1341 1.429 . S
C1333 C1331 1.419 . S
C1333 C1334 1.363 . S
C1333 H1336 0.929 . S
C1334 C1333 1.363 . S
C1334 C1340 1.428 . S
H1335 C1331 0.930 . S
H1336 C1333 0.929 . S
S1337 N1338 1.613 . S
S1337 N1339 1.610 . S
N1338 S1337 1.613 . S
N1338 C1341 1.350 . S
N1339 S1337 1.610 . S
N1339 C1340 1.351 . S
C1340 C1334 1.428 . S
C1340 N1339 1.351 . S
C1340 C1341 1.434 . S
C1341 C1332 1.429 . S
C1341 N1338 1.350 . S
C1341 C1340 1.434 . S
C1342 C1343 1.369 . S
C1342 C1344 1.419 . S
C1342 H1346 0.930 . S
C1343 C1342 1.369 . S
C1343 C1352 1.429 . S
C1344 C1342 1.419 . S
C1344 C1345 1.363 . S
C1344 H1347 0.929 . S
C1345 C1344 1.363 . S
C1345 C1351 1.428 . S
H1346 C1342 0.930 . S
H1347 C1344 0.929 . S
S1348 N1349 1.613 . S
S1348 N1350 1.610 . S
N1349 S1348 1.613 . S
N1349 C1352 1.350 . S
N1350 S1348 1.610 . S
N1350 C1351 1.351 . S
C1351 C1345 1.428 . S
C1351 N1350 1.351 . S
C1351 C1352 1.434 . S
C1352 C1343 1.429 . S
C1352 N1349 1.350 . S
C1352 C1351 1.434 . S
C1353 C1354 1.369 . S
C1353 C1355 1.419 . S
C1353 H1357 0.930 . S
C1354 C1353 1.369 . S
C1354 C1363 1.429 . S
C1355 C1353 1.419 . S
C1355 C1356 1.363 . S
C1355 H1358 0.929 . S
C1356 C1355 1.363 . S
C1356 C1362 1.428 . S
H1357 C1353 0.930 . S
H1358 C1355 0.929 . S
S1359 N1360 1.613 . S
S1359 N1361 1.610 . S
N1360 S1359 1.613 . S
N1360 C1363 1.350 . S
N1361 S1359 1.610 . S
N1361 C1362 1.351 . S
C1362 C1356 1.428 . S
C1362 N1361 1.351 . S
C1362 C1363 1.434 . S
C1363 C1354 1.429 . S
C1363 N1360 1.350 . S
C1363 C1362 1.434 . S
C1364 C1365 1.369 . S
C1364 C1366 1.419 . S
C1364 H1368 0.930 . S
C1365 C1364 1.369 . S
C1365 C1374 1.429 . S
C1366 C1364 1.419 . S
C1366 C1367 1.363 . S
C1366 H1369 0.929 . S
C1367 C1366 1.363 . S
C1367 C1373 1.428 . S
H1368 C1364 0.930 . S
H1369 C1366 0.929 . S
S1370 N1371 1.613 . S
S1370 N1372 1.610 . S
N1371 S1370 1.613 . S
N1371 C1374 1.350 . S
N1372 S1370 1.610 . S
N1372 C1373 1.351 . S
C1373 C1367 1.428 . S
C1373 N1372 1.351 . S
C1373 C1374 1.434 . S
C1374 C1365 1.429 . S
C1374 N1371 1.350 . S
C1374 C1373 1.434 . S
C1375 C1376 1.369 . S
C1375 C1377 1.419 . S
C1375 H1379 0.930 . S
C1376 C1375 1.369 . S
C1376 C1385 1.429 . S
C1377 C1375 1.419 . S
C1377 C1378 1.363 . S
C1377 H1380 0.929 . S
C1378 C1377 1.363 . S
C1378 C1384 1.428 . S
H1379 C1375 0.930 . S
H1380 C1377 0.929 . S
S1381 N1382 1.613 . S
S1381 N1383 1.610 . S
N1382 S1381 1.613 . S
N1382 C1385 1.350 . S
N1383 S1381 1.610 . S
N1383 C1384 1.351 . S
C1384 C1378 1.428 . S
C1384 N1383 1.351 . S
C1384 C1385 1.434 . S
C1385 C1376 1.429 . S
C1385 N1382 1.350 . S
C1385 C1384 1.434 . S
C1386 C1387 1.369 . S
C1386 C1388 1.419 . S
C1386 H1390 0.930 . S
C1387 C1386 1.369 . S
C1387 C1396 1.429 . S
C1388 C1386 1.419 . S
C1388 C1389 1.363 . S
C1388 H1391 0.929 . S
C1389 C1388 1.363 . S
C1389 C1395 1.428 . S
H1390 C1386 0.930 . S
H1391 C1388 0.929 . S
S1392 N1393 1.613 . S
S1392 N1394 1.610 . S
N1393 S1392 1.613 . S
N1393 C1396 1.350 . S
N1394 S1392 1.610 . S
N1394 C1395 1.351 . S
C1395 C1389 1.428 . S
C1395 N1394 1.351 . S
C1395 C1396 1.434 . S
C1396 C1387 1.429 . S
C1396 N1393 1.350 . S
C1396 C1395 1.434 . S
C1397 C1398 1.369 . S
C1397 C1399 1.419 . S
C1397 H1401 0.930 . S
C1398 C1397 1.369 . S
C1398 C1407 1.429 . S
C1399 C1397 1.419 . S
C1399 C1400 1.363 . S
C1399 H1402 0.929 . S
C1400 C1399 1.363 . S
C1400 C1406 1.428 . S
H1401 C1397 0.930 . S
H1402 C1399 0.929 . S
S1403 N1404 1.613 . S
S1403 N1405 1.610 . S
N1404 S1403 1.613 . S
N1404 C1407 1.350 . S
N1405 S1403 1.610 . S
N1405 C1406 1.351 . S
C1406 C1400 1.428 . S
C1406 N1405 1.351 . S
C1406 C1407 1.434 . S
C1407 C1398 1.429 . S
C1407 N1404 1.350 . S
C1407 C1406 1.434 . S
C1408 C1409 1.369 . S
C1408 C1410 1.419 1_655 S
C1408 H1412 0.930 . S
C1409 C1408 1.369 . S
C1409 C1418 1.429 1_565 S
C1410 C1408 1.419 1_455 S
C1410 C1411 1.363 1_565 S
C1410 H1413 0.929 . S
C1411 C1410 1.363 1_545 S
C1411 C1417 1.434 . S
H1412 C1408 0.930 . S
H1413 C1410 0.929 . S
S1414 N1415 1.613 . S
S1414 N1416 1.608 1_655 S
N1415 S1414 1.613 . S
N1415 C1418 1.350 . S
N1416 S1414 1.608 1_455 S
N1416 C1417 1.351 . S
C1417 C1411 1.434 . S
C1417 N1416 1.351 . S
C1417 C1418 1.428 1_455 S
C1418 C1409 1.429 1_545 S
C1418 N1415 1.350 . S
C1418 C1417 1.428 1_655 S
C1419 C1420 1.369 . S
C1419 C1421 1.419 . S
C1419 H1423 0.930 . S
C1420 C1419 1.369 . S
C1420 C1429 1.429 . S
C1421 C1419 1.419 . S
C1421 C1422 1.363 . S
C1421 H1424 0.929 . S
C1422 C1421 1.363 . S
C1422 C1428 1.428 . S
H1423 C1419 0.930 . S
H1424 C1421 0.929 . S
S1425 N1426 1.613 . S
S1425 N1427 1.610 . S
N1426 S1425 1.613 . S
N1426 C1429 1.350 . S
N1427 S1425 1.610 . S
N1427 C1428 1.351 . S
C1428 C1422 1.428 . S
C1428 N1427 1.351 . S
C1428 C1429 1.434 . S
C1429 C1420 1.429 . S
C1429 N1426 1.350 . S
C1429 C1428 1.434 . S
C1430 C1431 1.369 . S
C1430 C1432 1.419 . S
C1430 H1434 0.930 . S
C1431 C1430 1.369 . S
C1431 C1440 1.429 1_655 S
C1432 C1430 1.419 . S
C1432 C1433 1.363 1_655 S
C1432 H1435 0.929 . S
C1433 C1432 1.363 1_455 S
C1433 C1439 1.428 . S
H1434 C1430 0.930 . S
H1435 C1432 0.929 . S
S1436 N1437 1.613 . S
S1436 N1438 1.610 . S
N1437 S1436 1.613 . S
N1437 C1440 1.350 . S
N1438 S1436 1.610 . S
N1438 C1439 1.351 . S
C1439 C1433 1.428 . S
C1439 N1438 1.351 . S
C1439 C1440 1.434 . S
C1440 C1431 1.429 1_455 S
C1440 N1437 1.350 . S
C1440 C1439 1.434 . S
C1441 C1442 1.369 1_545 S
C1441 C1443 1.419 . S
C1441 H1445 0.930 . S
C1442 C1441 1.369 1_565 S
C1442 C1451 1.429 . S
C1443 C1441 1.419 . S
C1443 C1444 1.363 . S
C1443 H1446 0.929 . S
C1444 C1443 1.363 . S
C1444 C1450 1.428 1_545 S
H1445 C1441 0.930 . S
H1446 C1443 0.929 . S
S1447 N1448 1.613 . S
S1447 N1449 1.610 . S
N1448 S1447 1.613 . S
N1448 C1451 1.350 . S
N1449 S1447 1.610 . S
N1449 C1450 1.351 . S
C1450 C1444 1.428 1_565 S
C1450 N1449 1.351 . S
C1450 C1451 1.434 . S
C1451 C1442 1.429 . S
C1451 N1448 1.350 . S
C1451 C1450 1.434 . S
C1452 C1453 1.369 . S
C1452 C1454 1.419 . S
C1452 H1456 0.930 . S
C1453 C1452 1.369 . S
C1453 C1462 1.429 . S
C1454 C1452 1.419 . S
C1454 C1455 1.363 . S
C1454 H1457 0.929 . S
C1455 C1454 1.363 . S
C1455 C1461 1.428 . S
H1456 C1452 0.930 . S
H1457 C1454 0.929 . S
S1458 N1459 1.613 . S
S1458 N1460 1.610 . S
N1459 S1458 1.613 . S
N1459 C1462 1.350 . S
N1460 S1458 1.610 . S
N1460 C1461 1.351 . S
C1461 C1455 1.428 . S
C1461 N1460 1.351 . S
C1461 C1462 1.434 . S
C1462 C1453 1.429 . S
C1462 N1459 1.350 . S
C1462 C1461 1.434 . S
C1463 C1464 1.369 1_655 S
C1463 C1465 1.419 . S
C1463 H1467 0.930 . S
C1464 C1463 1.369 1_455 S
C1464 C1473 1.429 . S
C1465 C1463 1.419 . S
C1465 C1466 1.363 . S
C1465 H1468 0.929 . S
C1466 C1465 1.363 . S
C1466 C1472 1.428 1_655 S
H1467 C1463 0.930 . S
H1468 C1465 0.929 . S
S1469 N1470 1.613 . S
S1469 N1471 1.610 . S
N1470 S1469 1.613 . S
N1470 C1473 1.350 . S
N1471 S1469 1.610 . S
N1471 C1472 1.351 . S
C1472 C1466 1.428 1_455 S
C1472 N1471 1.351 . S
C1472 C1473 1.434 . S
C1473 C1464 1.429 . S
C1473 N1470 1.350 . S
C1473 C1472 1.434 . S
C1474 C1475 1.356 1_545 S
C1474 C1476 1.431 . S
C1474 H1478 0.931 . S
C1475 C1474 1.356 1_565 S
C1475 C1484 1.429 . S
C1476 C1474 1.431 . S
C1476 C1477 1.363 . S
C1476 H1479 0.929 . S
C1477 C1476 1.363 . S
C1477 C1483 1.428 1_545 S
H1478 C1474 0.931 . S
H1479 C1476 0.929 . S
S1480 N1481 1.613 . S
S1480 N1482 1.610 . S
N1481 S1480 1.613 . S
N1481 C1484 1.350 . S
N1482 S1480 1.610 . S
N1482 C1483 1.351 . S
C1483 C1477 1.428 1_565 S
C1483 N1482 1.351 . S
C1483 C1484 1.434 . S
C1484 C1475 1.429 . S
C1484 N1481 1.350 . S
C1484 C1483 1.434 . S
C1485 C1486 1.370 1_556 S
C1485 C1487 1.418 1_655 S
C1485 H1489 0.930 1_655 S
C1486 C1485 1.370 1_554 S
C1486 C1495 1.429 . S
C1487 C1485 1.418 1_455 S
C1487 C1488 1.363 . S
C1487 H1490 0.929 . S
C1488 C1487 1.363 . S
C1488 C1494 1.424 1_456 S
H1489 C1485 0.930 1_455 S
H1490 C1487 0.929 . S
S1491 N1492 1.613 . S
S1491 N1493 1.610 . S
N1492 S1491 1.613 . S
N1492 C1495 1.350 . S
N1493 S1491 1.610 . S
N1493 C1494 1.353 . S
C1494 C1488 1.424 1_654 S
C1494 N1493 1.353 . S
C1494 C1495 1.439 . S
C1495 C1486 1.429 . S
C1495 N1492 1.350 . S
C1495 C1494 1.439 . S
C1496 C1497 1.369 . S
C1496 C1498 1.419 . S
C1496 H1500 0.930 . S
C1497 C1496 1.369 . S
C1497 C1506 1.429 1_556 S
C1498 C1496 1.419 . S
C1498 C1499 1.363 1_556 S
C1498 H1501 0.929 . S
C1499 C1498 1.363 1_554 S
C1499 C1505 1.428 . S
H1500 C1496 0.930 . S
H1501 C1498 0.929 . S
S1502 N1503 1.613 . S
S1502 N1504 1.610 . S
N1503 S1502 1.613 . S
N1503 C1506 1.350 . S
N1504 S1502 1.610 . S
N1504 C1505 1.351 . S
C1505 C1499 1.428 . S
C1505 N1504 1.351 . S
C1505 C1506 1.434 . S
C1506 C1497 1.429 1_554 S
C1506 N1503 1.350 . S
C1506 C1505 1.434 . S
C1507 C1508 1.369 . S
C1507 C1509 1.419 . S
C1507 H1511 0.930 . S
C1508 C1507 1.369 . S
C1508 C1517 1.429 . S
C1509 C1507 1.419 . S
C1509 C1510 1.363 . S
C1509 H1512 0.929 . S
C1510 C1509 1.363 . S
C1510 C1516 1.428 . S
H1511 C1507 0.930 . S
H1512 C1509 0.929 . S
S1513 N1514 1.613 . S
S1513 N1515 1.610 . S
N1514 S1513 1.613 . S
N1514 C1517 1.350 . S
N1515 S1513 1.610 . S
N1515 C1516 1.351 . S
C1516 C1510 1.428 . S
C1516 N1515 1.351 . S
C1516 C1517 1.434 . S
C1517 C1508 1.429 . S
C1517 N1514 1.350 . S
C1517 C1516 1.434 . S
C1518 C1519 1.369 . S
C1518 C1520 1.419 . S
C1518 H1522 0.930 . S
C1519 C1518 1.369 . S
C1519 C1528 1.429 1_556 S
C1520 C1518 1.419 . S
C1520 C1521 1.363 1_556 S
C1520 H1523 0.929 . S
C1521 C1520 1.363 1_554 S
C1521 C1527 1.428 . S
H1522 C1518 0.930 . S
H1523 C1520 0.929 . S
S1524 N1525 1.613 . S
S1524 N1526 1.610 . S
N1525 S1524 1.613 . S
N1525 C1528 1.350 . S
N1526 S1524 1.610 . S
N1526 C1527 1.351 . S
C1527 C1521 1.428 . S
C1527 N1526 1.351 . S
C1527 C1528 1.434 . S
C1528 C1519 1.429 1_554 S
C1528 N1525 1.350 . S
C1528 C1527 1.434 . S
C1529 C1530 1.369 . S
C1529 C1531 1.419 . S
C1529 H1533 0.930 . S
C1530 C1529 1.369 . S
C1530 C1539 1.429 . S
C1531 C1529 1.419 . S
C1531 C1532 1.363 . S
C1531 H1534 0.929 . S
C1532 C1531 1.363 . S
C1532 C1538 1.428 . S
H1533 C1529 0.930 . S
H1534 C1531 0.929 . S
S1535 N1536 1.613 . S
S1535 N1537 1.610 . S
N1536 S1535 1.613 . S
N1536 C1539 1.350 . S
N1537 S1535 1.610 . S
N1537 C1538 1.351 . S
C1538 C1532 1.428 . S
C1538 N1537 1.351 . S
C1538 C1539 1.434 . S
C1539 C1530 1.429 . S
C1539 N1536 1.350 . S
C1539 C1538 1.434 . S
C1540 C1541 1.346 1_565 S
C1540 C1542 1.440 . S
C1540 H1544 0.933 . S
C1541 C1540 1.346 1_545 S
C1541 C1550 1.429 1_556 S
C1542 C1540 1.440 . S
C1542 C1543 1.363 1_556 S
C1542 H1545 0.929 . S
C1543 C1542 1.363 1_554 S
C1543 C1549 1.428 1_565 S
H1544 C1540 0.933 . S
H1545 C1542 0.929 . S
S1546 N1547 1.613 . S
S1546 N1548 1.610 . S
N1547 S1546 1.613 . S
N1547 C1550 1.350 . S
N1548 S1546 1.610 . S
N1548 C1549 1.351 . S
C1549 C1543 1.428 1_545 S
C1549 N1548 1.351 . S
C1549 C1550 1.434 . S
C1550 C1541 1.429 1_554 S
C1550 N1547 1.350 . S
C1550 C1549 1.434 . S
C1551 C1552 1.369 . S
C1551 C1553 1.419 . S
C1551 H1555 0.930 . S
C1552 C1551 1.369 . S
C1552 C1561 1.429 . S
C1553 C1551 1.419 . S
C1553 C1554 1.363 . S
C1553 H1556 0.929 . S
C1554 C1553 1.363 . S
C1554 C1560 1.428 . S
H1555 C1551 0.930 . S
H1556 C1553 0.929 . S
S1557 N1558 1.613 . S
S1557 N1559 1.610 . S
N1558 S1557 1.613 . S
N1558 C1561 1.350 . S
N1559 S1557 1.610 . S
N1559 C1560 1.351 . S
C1560 C1554 1.428 . S
C1560 N1559 1.351 . S
C1560 C1561 1.434 . S
C1561 C1552 1.429 . S
C1561 N1558 1.350 . S
C1561 C1560 1.434 . S
C1562 C1563 1.369 . S
C1562 C1564 1.419 . S
C1562 H1566 0.930 . S
C1563 C1562 1.369 . S
C1563 C1572 1.429 . S
C1564 C1562 1.419 . S
C1564 C1565 1.363 . S
C1564 H1567 0.929 . S
C1565 C1564 1.363 . S
C1565 C1571 1.428 . S
H1566 C1562 0.930 . S
H1567 C1564 0.929 . S
S1568 N1569 1.613 . S
S1568 N1570 1.610 . S
N1569 S1568 1.613 . S
N1569 C1572 1.350 . S
N1570 S1568 1.610 . S
N1570 C1571 1.351 . S
C1571 C1565 1.428 . S
C1571 N1570 1.351 . S
C1571 C1572 1.434 . S
C1572 C1563 1.429 . S
C1572 N1569 1.350 . S
C1572 C1571 1.434 . S
C1573 C1574 1.369 . S
C1573 C1575 1.419 . S
C1573 H1577 0.930 . S
C1574 C1573 1.369 . S
C1574 C1583 1.429 . S
C1575 C1573 1.419 . S
C1575 C1576 1.363 . S
C1575 H1578 0.929 . S
C1576 C1575 1.363 . S
C1576 C1582 1.428 . S
H1577 C1573 0.930 . S
H1578 C1575 0.929 . S
S1579 N1580 1.613 . S
S1579 N1581 1.610 . S
N1580 S1579 1.613 . S
N1580 C1583 1.350 . S
N1581 S1579 1.610 . S
N1581 C1582 1.351 . S
C1582 C1576 1.428 . S
C1582 N1581 1.351 . S
C1582 C1583 1.434 . S
C1583 C1574 1.429 . S
C1583 N1580 1.350 . S
C1583 C1582 1.434 . S
C1584 C1585 1.369 . S
C1584 C1586 1.419 . S
C1584 H1588 0.930 . S
C1585 C1584 1.369 . S
C1585 C1594 1.429 . S
C1586 C1584 1.419 . S
C1586 C1587 1.363 . S
C1586 H1589 0.929 . S
C1587 C1586 1.363 . S
C1587 C1593 1.428 . S
H1588 C1584 0.930 . S
H1589 C1586 0.929 . S
S1590 N1591 1.613 . S
S1590 N1592 1.610 . S
N1591 S1590 1.613 . S
N1591 C1594 1.350 . S
N1592 S1590 1.610 . S
N1592 C1593 1.351 . S
C1593 C1587 1.428 . S
C1593 N1592 1.351 . S
C1593 C1594 1.434 . S
C1594 C1585 1.429 . S
C1594 N1591 1.350 . S
C1594 C1593 1.434 . S
C1595 C1596 1.369 . S
C1595 C1597 1.419 . S
C1595 H1599 0.930 . S
C1596 C1595 1.369 . S
C1596 C1605 1.429 . S
C1597 C1595 1.419 . S
C1597 C1598 1.363 . S
C1597 H1600 0.929 . S
C1598 C1597 1.363 . S
C1598 C1604 1.428 . S
H1599 C1595 0.930 . S
H1600 C1597 0.929 . S
S1601 N1602 1.613 . S
S1601 N1603 1.610 . S
N1602 S1601 1.613 . S
N1602 C1605 1.350 . S
N1603 S1601 1.610 . S
N1603 C1604 1.351 . S
C1604 C1598 1.428 . S
C1604 N1603 1.351 . S
C1604 C1605 1.434 . S
C1605 C1596 1.429 . S
C1605 N1602 1.350 . S
C1605 C1604 1.434 . S
C1606 C1607 1.369 . S
C1606 C1608 1.419 . S
C1606 H1610 0.930 . S
C1607 C1606 1.369 . S
C1607 C1616 1.429 . S
C1608 C1606 1.419 . S
C1608 C1609 1.363 . S
C1608 H1611 0.929 . S
C1609 C1608 1.363 . S
C1609 C1615 1.428 . S
H1610 C1606 0.930 . S
H1611 C1608 0.929 . S
S1612 N1613 1.613 1_554 S
S1612 N1614 1.610 . S
N1613 S1612 1.613 1_556 S
N1613 C1616 1.350 . S
N1614 S1612 1.610 . S
N1614 C1615 1.351 1_554 S
C1615 C1609 1.428 . S
C1615 N1614 1.351 1_556 S
C1615 C1616 1.434 . S
C1616 C1607 1.429 . S
C1616 N1613 1.350 . S
C1616 C1615 1.434 . S
C1617 C1618 1.369 . S
C1617 C1619 1.419 . S
C1617 H1621 0.930 . S
C1618 C1617 1.369 . S
C1618 C1627 1.429 . S
C1619 C1617 1.419 . S
C1619 C1620 1.363 . S
C1619 H1622 0.929 . S
C1620 C1619 1.363 . S
C1620 C1626 1.428 . S
H1621 C1617 0.930 . S
H1622 C1619 0.929 . S
S1623 N1624 1.613 1_554 S
S1623 N1625 1.610 . S
N1624 S1623 1.613 1_556 S
N1624 C1627 1.350 . S
N1625 S1623 1.610 . S
N1625 C1626 1.351 1_554 S
C1626 C1620 1.428 . S
C1626 N1625 1.351 1_556 S
C1626 C1627 1.434 . S
C1627 C1618 1.429 . S
C1627 N1624 1.350 . S
C1627 C1626 1.434 . S
C1628 C1629 1.369 . S
C1628 C1630 1.419 . S
C1628 H1632 0.930 . S
C1629 C1628 1.369 . S
C1629 C1638 1.429 . S
C1630 C1628 1.419 . S
C1630 C1631 1.363 . S
C1630 H1633 0.929 . S
C1631 C1630 1.363 . S
C1631 C1637 1.428 . S
H1632 C1628 0.930 . S
H1633 C1630 0.929 . S
S1634 N1635 1.613 . S
S1634 N1636 1.610 . S
N1635 S1634 1.613 . S
N1635 C1638 1.350 . S
N1636 S1634 1.610 . S
N1636 C1637 1.351 . S
C1637 C1631 1.428 . S
C1637 N1636 1.351 . S
C1637 C1638 1.434 . S
C1638 C1629 1.429 . S
C1638 N1635 1.350 . S
C1638 C1637 1.434 . S
C1639 C1640 1.369 . S
C1639 C1641 1.419 . S
C1639 H1643 0.930 . S
C1640 C1639 1.369 . S
C1640 C1649 1.429 . S
C1641 C1639 1.419 . S
C1641 C1642 1.363 . S
C1641 H1644 0.929 . S
C1642 C1641 1.363 . S
C1642 C1648 1.428 . S
H1643 C1639 0.930 . S
H1644 C1641 0.929 . S
S1645 N1646 1.613 . S
S1645 N1647 1.610 . S
N1646 S1645 1.613 . S
N1646 C1649 1.350 . S
N1647 S1645 1.610 . S
N1647 C1648 1.351 . S
C1648 C1642 1.428 . S
C1648 N1647 1.351 . S
C1648 C1649 1.434 . S
C1649 C1640 1.429 . S
C1649 N1646 1.350 . S
C1649 C1648 1.434 . S
C1650 C1651 1.369 . S
C1650 C1652 1.419 . S
C1650 H1654 0.930 . S
C1651 C1650 1.369 . S
C1651 C1660 1.429 . S
C1652 C1650 1.419 . S
C1652 C1653 1.363 . S
C1652 H1655 0.929 . S
C1653 C1652 1.363 . S
C1653 C1659 1.428 . S
H1654 C1650 0.930 . S
H1655 C1652 0.929 . S
S1656 N1657 1.613 . S
S1656 N1658 1.610 . S
N1657 S1656 1.613 . S
N1657 C1660 1.350 . S
N1658 S1656 1.610 . S
N1658 C1659 1.351 . S
C1659 C1653 1.428 . S
C1659 N1658 1.351 . S
C1659 C1660 1.434 . S
C1660 C1651 1.429 . S
C1660 N1657 1.350 . S
C1660 C1659 1.434 . S
C1661 C1662 1.369 . S
C1661 C1663 1.419 . S
C1661 H1665 0.930 . S
C1662 C1661 1.369 . S
C1662 C1671 1.429 . S
C1663 C1661 1.419 . S
C1663 C1664 1.363 . S
C1663 H1666 0.929 . S
C1664 C1663 1.363 . S
C1664 C1670 1.428 . S
H1665 C1661 0.930 . S
H1666 C1663 0.929 . S
S1667 N1668 1.613 . S
S1667 N1669 1.610 . S
N1668 S1667 1.613 . S
N1668 C1671 1.350 . S
N1669 S1667 1.610 . S
N1669 C1670 1.351 . S
C1670 C1664 1.428 . S
C1670 N1669 1.351 . S
C1670 C1671 1.434 . S
C1671 C1662 1.429 . S
C1671 N1668 1.350 . S
C1671 C1670 1.434 . S
C1672 C1673 1.369 . S
C1672 C1674 1.419 . S
C1672 H1676 0.930 . S
C1673 C1672 1.369 . S
C1673 C1682 1.429 . S
C1674 C1672 1.419 . S
C1674 C1675 1.363 . S
C1674 H1677 0.929 . S
C1675 C1674 1.363 . S
C1675 C1681 1.428 . S
H1676 C1672 0.930 . S
H1677 C1674 0.929 . S
S1678 N1679 1.613 . S
S1678 N1680 1.610 . S
N1679 S1678 1.613 . S
N1679 C1682 1.350 . S
N1680 S1678 1.610 . S
N1680 C1681 1.351 . S
C1681 C1675 1.428 . S
C1681 N1680 1.351 . S
C1681 C1682 1.434 . S
C1682 C1673 1.429 . S
C1682 N1679 1.350 . S
C1682 C1681 1.434 . S
C1683 C1684 1.369 . S
C1683 C1685 1.419 . S
C1683 H1687 0.930 . S
C1684 C1683 1.369 . S
C1684 C1693 1.429 . S
C1685 C1683 1.419 . S
C1685 C1686 1.363 . S
C1685 H1688 0.929 . S
C1686 C1685 1.363 . S
C1686 C1692 1.428 . S
H1687 C1683 0.930 . S
H1688 C1685 0.929 . S
S1689 N1690 1.613 . S
S1689 N1691 1.610 . S
N1690 S1689 1.613 . S
N1690 C1693 1.350 . S
N1691 S1689 1.610 . S
N1691 C1692 1.351 . S
C1692 C1686 1.428 . S
C1692 N1691 1.351 . S
C1692 C1693 1.434 . S
C1693 C1684 1.429 . S
C1693 N1690 1.350 . S
C1693 C1692 1.434 . S
C1694 C1695 1.369 . S
C1694 C1696 1.419 . S
C1694 H1698 0.930 . S
C1695 C1694 1.369 . S
C1695 C1704 1.429 . S
C1696 C1694 1.419 . S
C1696 C1697 1.363 . S
C1696 H1699 0.929 . S
C1697 C1696 1.363 . S
C1697 C1703 1.428 . S
H1698 C1694 0.930 . S
H1699 C1696 0.929 . S
S1700 N1701 1.613 . S
S1700 N1702 1.610 . S
N1701 S1700 1.613 . S
N1701 C1704 1.350 . S
N1702 S1700 1.610 . S
N1702 C1703 1.351 . S
C1703 C1697 1.428 . S
C1703 N1702 1.351 . S
C1703 C1704 1.434 . S
C1704 C1695 1.429 . S
C1704 N1701 1.350 . S
C1704 C1703 1.434 . S
C1705 C1706 1.369 . S
C1705 C1707 1.419 . S
C1705 H1709 0.930 . S
C1706 C1705 1.369 . S
C1706 C1715 1.429 . S
C1707 C1705 1.419 . S
C1707 C1708 1.363 . S
C1707 H1710 0.929 . S
C1708 C1707 1.363 . S
C1708 C1714 1.428 . S
H1709 C1705 0.930 . S
H1710 C1707 0.929 . S
S1711 N1712 1.613 . S
S1711 N1713 1.610 . S
N1712 S1711 1.613 . S
N1712 C1715 1.350 . S
N1713 S1711 1.610 . S
N1713 C1714 1.351 . S
C1714 C1708 1.428 . S
C1714 N1713 1.351 . S
C1714 C1715 1.434 . S
C1715 C1706 1.429 . S
C1715 N1712 1.350 . S
C1715 C1714 1.434 . S
C1716 C1717 1.369 . S
C1716 C1718 1.419 . S
C1716 H1720 0.930 . S
C1717 C1716 1.369 . S
C1717 C1726 1.429 . S
C1718 C1716 1.419 . S
C1718 C1719 1.363 . S
C1718 H1721 0.929 . S
C1719 C1718 1.363 . S
C1719 C1725 1.428 . S
H1720 C1716 0.930 . S
H1721 C1718 0.929 . S
S1722 N1723 1.613 . S
S1722 N1724 1.610 . S
N1723 S1722 1.613 . S
N1723 C1726 1.350 . S
N1724 S1722 1.610 . S
N1724 C1725 1.351 . S
C1725 C1719 1.428 . S
C1725 N1724 1.351 . S
C1725 C1726 1.434 . S
C1726 C1717 1.429 . S
C1726 N1723 1.350 . S
C1726 C1725 1.434 . S
C1727 C1728 1.369 . S
C1727 C1729 1.419 . S
C1727 H1731 0.930 . S
C1728 C1727 1.369 . S
C1728 C1737 1.429 . S
C1729 C1727 1.419 . S
C1729 C1730 1.363 . S
C1729 H1732 0.929 . S
C1730 C1729 1.363 . S
C1730 C1736 1.428 . S
H1731 C1727 0.930 . S
H1732 C1729 0.929 . S
S1733 N1734 1.613 . S
S1733 N1735 1.610 . S
N1734 S1733 1.613 . S
N1734 C1737 1.350 . S
N1735 S1733 1.610 . S
N1735 C1736 1.351 . S
C1736 C1730 1.428 . S
C1736 N1735 1.351 . S
C1736 C1737 1.434 . S
C1737 C1728 1.429 . S
C1737 N1734 1.350 . S
C1737 C1736 1.434 . S
C1738 C1739 1.369 . S
C1738 C1740 1.419 . S
C1738 H1742 0.930 . S
C1739 C1738 1.369 . S
C1739 C1748 1.429 . S
C1740 C1738 1.419 . S
C1740 C1741 1.363 . S
C1740 H1743 0.929 . S
C1741 C1740 1.363 . S
C1741 C1747 1.428 . S
H1742 C1738 0.930 . S
H1743 C1740 0.929 . S
S1744 N1745 1.613 . S
S1744 N1746 1.610 . S
N1745 S1744 1.613 . S
N1745 C1748 1.350 . S
N1746 S1744 1.610 . S
N1746 C1747 1.351 . S
C1747 C1741 1.428 . S
C1747 N1746 1.351 . S
C1747 C1748 1.434 . S
C1748 C1739 1.429 . S
C1748 N1745 1.350 . S
C1748 C1747 1.434 . S
C1749 C1750 1.369 . S
C1749 C1751 1.419 . S
C1749 H1753 0.930 . S
C1750 C1749 1.369 . S
C1750 C1759 1.429 . S
C1751 C1749 1.419 . S
C1751 C1752 1.363 . S
C1751 H1754 0.929 . S
C1752 C1751 1.363 . S
C1752 C1758 1.428 . S
H1753 C1749 0.930 . S
H1754 C1751 0.929 . S
S1755 N1756 1.613 . S
S1755 N1757 1.610 . S
N1756 S1755 1.613 . S
N1756 C1759 1.350 . S
N1757 S1755 1.610 . S
N1757 C1758 1.351 . S
C1758 C1752 1.428 . S
C1758 N1757 1.351 . S
C1758 C1759 1.434 . S
C1759 C1750 1.429 . S
C1759 N1756 1.350 . S
C1759 C1758 1.434 . S
C1760 C1761 1.369 . S
C1760 C1762 1.419 . S
C1760 H1764 0.930 . S
C1761 C1760 1.369 . S
C1761 C1770 1.429 1_455 S
C1762 C1760 1.419 . S
C1762 C1763 1.363 . S
C1762 H1765 0.929 . S
C1763 C1762 1.363 . S
C1763 C1769 1.428 1_455 S
H1764 C1760 0.930 . S
H1765 C1762 0.929 . S
S1766 N1767 1.613 . S
S1766 N1768 1.610 . S
N1767 S1766 1.613 . S
N1767 C1770 1.350 . S
N1768 S1766 1.610 . S
N1768 C1769 1.351 . S
C1769 C1763 1.428 1_655 S
C1769 N1768 1.351 . S
C1769 C1770 1.434 . S
C1770 C1761 1.429 1_655 S
C1770 N1767 1.350 . S
C1770 C1769 1.434 . S
C1771 C1772 1.369 . S
C1771 C1773 1.419 . S
C1771 H1775 0.930 . S
C1772 C1771 1.369 . S
C1772 C1781 1.429 . S
C1773 C1771 1.419 . S
C1773 C1774 1.363 . S
C1773 H1776 0.929 . S
C1774 C1773 1.363 . S
C1774 C1780 1.428 . S
H1775 C1771 0.930 . S
H1776 C1773 0.929 . S
S1777 N1778 1.613 . S
S1777 N1779 1.610 . S
N1778 S1777 1.613 . S
N1778 C1781 1.350 . S
N1779 S1777 1.610 . S
N1779 C1780 1.351 . S
C1780 C1774 1.428 . S
C1780 N1779 1.351 . S
C1780 C1781 1.434 . S
C1781 C1772 1.429 . S
C1781 N1778 1.350 . S
C1781 C1780 1.434 . S
C1782 C1783 1.368 1_455 S
C1782 C1784 1.418 . S
C1782 H1786 0.932 . S
C1783 C1782 1.368 1_655 S
C1783 C1792 1.429 . S
C1784 C1782 1.418 . S
C1784 C1785 1.360 1_455 S
C1784 H1787 0.933 . S
C1785 C1784 1.360 1_655 S
C1785 C1791 1.428 . S
H1786 C1782 0.932 . S
H1787 C1784 0.933 . S
S1788 N1789 1.613 . S
S1788 N1790 1.610 . S
N1789 S1788 1.613 . S
N1789 C1792 1.350 . S
N1790 S1788 1.610 . S
N1790 C1791 1.351 . S
C1791 C1785 1.428 . S
C1791 N1790 1.351 . S
C1791 C1792 1.434 . S
C1792 C1783 1.429 . S
C1792 N1789 1.350 . S
C1792 C1791 1.434 . S
C1793 C1794 1.369 . S
C1793 C1795 1.419 . S
C1793 H1797 0.930 . S
C1794 C1793 1.369 . S
C1794 C1803 1.429 . S
C1795 C1793 1.419 . S
C1795 C1796 1.363 . S
C1795 H1798 0.929 . S
C1796 C1795 1.363 . S
C1796 C1802 1.428 . S
H1797 C1793 0.930 . S
H1798 C1795 0.929 . S
S1799 N1800 1.613 . S
S1799 N1801 1.610 . S
N1800 S1799 1.613 . S
N1800 C1803 1.350 . S
N1801 S1799 1.610 . S
N1801 C1802 1.351 . S
C1802 C1796 1.428 . S
C1802 N1801 1.351 . S
C1802 C1803 1.434 . S
C1803 C1794 1.429 . S
C1803 N1800 1.350 . S
C1803 C1802 1.434 . S
C1804 C1805 1.369 . S
C1804 C1806 1.419 . S
C1804 H1808 0.930 . S
C1805 C1804 1.369 . S
C1805 C1814 1.429 1_455 S
C1806 C1804 1.419 . S
C1806 C1807 1.363 . S
C1806 H1809 0.929 . S
C1807 C1806 1.363 . S
C1807 C1813 1.428 1_455 S
H1808 C1804 0.930 . S
H1809 C1806 0.929 . S
S1810 N1811 1.613 . S
S1810 N1812 1.610 . S
N1811 S1810 1.613 . S
N1811 C1814 1.350 . S
N1812 S1810 1.610 . S
N1812 C1813 1.351 . S
C1813 C1807 1.428 1_655 S
C1813 N1812 1.351 . S
C1813 C1814 1.434 . S
C1814 C1805 1.429 1_655 S
C1814 N1811 1.350 . S
C1814 C1813 1.434 . S
C1815 C1816 1.369 . S
C1815 C1817 1.419 . S
C1815 H1819 0.930 . S
C1816 C1815 1.369 . S
C1816 C1825 1.429 . S
C1817 C1815 1.419 . S
C1817 C1818 1.363 . S
C1817 H1820 0.929 . S
C1818 C1817 1.363 . S
C1818 C1824 1.428 . S
H1819 C1815 0.930 . S
H1820 C1817 0.929 . S
S1821 N1822 1.613 . S
S1821 N1823 1.610 . S
N1822 S1821 1.613 . S
N1822 C1825 1.350 . S
N1823 S1821 1.610 . S
N1823 C1824 1.351 . S
C1824 C1818 1.428 . S
C1824 N1823 1.351 . S
C1824 C1825 1.434 . S
C1825 C1816 1.429 . S
C1825 N1822 1.350 . S
C1825 C1824 1.434 . S
C1826 C1827 1.369 1_455 S
C1826 C1828 1.419 . S
C1826 H1830 0.930 . S
C1827 C1826 1.369 1_655 S
C1827 C1836 1.429 . S
C1828 C1826 1.419 . S
C1828 C1829 1.363 1_455 S
C1828 H1831 0.929 . S
C1829 C1828 1.363 1_655 S
C1829 C1835 1.428 . S
H1830 C1826 0.930 . S
H1831 C1828 0.929 . S
S1832 N1833 1.613 . S
S1832 N1834 1.610 . S
N1833 S1832 1.613 . S
N1833 C1836 1.350 . S
N1834 S1832 1.610 . S
N1834 C1835 1.351 . S
C1835 C1829 1.428 . S
C1835 N1834 1.351 . S
C1835 C1836 1.434 . S
C1836 C1827 1.429 . S
C1836 N1833 1.350 . S
C1836 C1835 1.434 . S
C1837 C1838 1.369 . S
C1837 C1839 1.419 . S
C1837 H1841 0.930 . S
C1838 C1837 1.369 . S
C1838 C1847 1.429 . S
C1839 C1837 1.419 . S
C1839 C1840 1.363 . S
C1839 H1842 0.929 . S
C1840 C1839 1.363 . S
C1840 C1846 1.428 . S
H1841 C1837 0.930 . S
H1842 C1839 0.929 . S
S1843 N1844 1.613 . S
S1843 N1845 1.610 . S
N1844 S1843 1.613 . S
N1844 C1847 1.350 . S
N1845 S1843 1.610 . S
N1845 C1846 1.351 . S
C1846 C1840 1.428 . S
C1846 N1845 1.351 . S
C1846 C1847 1.434 . S
C1847 C1838 1.429 . S
C1847 N1844 1.350 . S
C1847 C1846 1.434 . S
C1848 C1849 1.369 . S
C1848 C1850 1.419 . S
C1848 H1852 0.930 . S
C1849 C1848 1.369 . S
C1849 C1858 1.429 . S
C1850 C1848 1.419 . S
C1850 C1851 1.363 . S
C1850 H1853 0.929 . S
C1851 C1850 1.363 . S
C1851 C1857 1.428 . S
H1852 C1848 0.930 . S
H1853 C1850 0.929 . S
S1854 N1855 1.613 . S
S1854 N1856 1.610 . S
N1855 S1854 1.613 . S
N1855 C1858 1.350 . S
N1856 S1854 1.610 . S
N1856 C1857 1.351 . S
C1857 C1851 1.428 . S
C1857 N1856 1.351 . S
C1857 C1858 1.434 . S
C1858 C1849 1.429 . S
C1858 N1855 1.350 . S
C1858 C1857 1.434 . S
C1859 C1860 1.369 . S
C1859 C1861 1.419 . S
C1859 H1863 0.930 . S
C1860 C1859 1.369 . S
C1860 C1869 1.429 . S
C1861 C1859 1.419 . S
C1861 C1862 1.363 . S
C1861 H1864 0.929 . S
C1862 C1861 1.363 . S
C1862 C1868 1.428 . S
H1863 C1859 0.930 . S
H1864 C1861 0.929 . S
S1865 N1866 1.613 . S
S1865 N1867 1.610 . S
N1866 S1865 1.613 . S
N1866 C1869 1.350 . S
N1867 S1865 1.610 . S
N1867 C1868 1.351 . S
C1868 C1862 1.428 . S
C1868 N1867 1.351 . S
C1868 C1869 1.434 . S
C1869 C1860 1.429 . S
C1869 N1866 1.350 . S
C1869 C1868 1.434 . S
C1870 C1871 1.369 . S
C1870 C1872 1.419 . S
C1870 H1874 0.930 . S
C1871 C1870 1.369 . S
C1871 C1880 1.429 . S
C1872 C1870 1.419 . S
C1872 C1873 1.363 . S
C1872 H1875 0.929 . S
C1873 C1872 1.363 . S
C1873 C1879 1.428 . S
H1874 C1870 0.930 . S
H1875 C1872 0.929 . S
S1876 N1877 1.613 . S
S1876 N1878 1.610 . S
N1877 S1876 1.613 . S
N1877 C1880 1.350 . S
N1878 S1876 1.610 . S
N1878 C1879 1.351 . S
C1879 C1873 1.428 . S
C1879 N1878 1.351 . S
C1879 C1880 1.434 . S
C1880 C1871 1.429 . S
C1880 N1877 1.350 . S
C1880 C1879 1.434 . S
C1881 C1882 1.369 . S
C1881 C1883 1.419 . S
C1881 H1885 0.930 . S
C1882 C1881 1.369 . S
C1882 C1891 1.429 . S
C1883 C1881 1.419 . S
C1883 C1884 1.363 . S
C1883 H1886 0.929 . S
C1884 C1883 1.363 . S
C1884 C1890 1.428 . S
H1885 C1881 0.930 . S
H1886 C1883 0.929 . S
S1887 N1888 1.613 . S
S1887 N1889 1.610 . S
N1888 S1887 1.613 . S
N1888 C1891 1.350 . S
N1889 S1887 1.610 . S
N1889 C1890 1.351 . S
C1890 C1884 1.428 . S
C1890 N1889 1.351 . S
C1890 C1891 1.434 . S
C1891 C1882 1.429 . S
C1891 N1888 1.350 . S
C1891 C1890 1.434 . S
C1892 C1893 1.369 . S
C1892 C1894 1.419 . S
C1892 H1896 0.930 . S
C1893 C1892 1.369 . S
C1893 C1902 1.429 . S
C1894 C1892 1.419 . S
C1894 C1895 1.363 . S
C1894 H1897 0.929 . S
C1895 C1894 1.363 . S
C1895 C1901 1.428 . S
H1896 C1892 0.930 . S
H1897 C1894 0.929 . S
S1898 N1899 1.613 . S
S1898 N1900 1.610 . S
N1899 S1898 1.613 . S
N1899 C1902 1.350 . S
N1900 S1898 1.610 . S
N1900 C1901 1.351 . S
C1901 C1895 1.428 . S
C1901 N1900 1.351 . S
C1901 C1902 1.434 . S
C1902 C1893 1.429 . S
C1902 N1899 1.350 . S
C1902 C1901 1.434 . S
C1903 C1904 1.369 . S
C1903 C1905 1.419 . S
C1903 H1907 0.930 . S
C1904 C1903 1.369 . S
C1904 C1913 1.429 . S
C1905 C1903 1.419 . S
C1905 C1906 1.363 . S
C1905 H1908 0.929 . S
C1906 C1905 1.363 . S
C1906 C1912 1.428 . S
H1907 C1903 0.930 . S
H1908 C1905 0.929 . S
S1909 N1910 1.613 . S
S1909 N1911 1.610 . S
N1910 S1909 1.613 . S
N1910 C1913 1.350 . S
N1911 S1909 1.610 . S
N1911 C1912 1.351 . S
C1912 C1906 1.428 . S
C1912 N1911 1.351 . S
C1912 C1913 1.434 . S
C1913 C1904 1.429 . S
C1913 N1910 1.350 . S
C1913 C1912 1.434 . S
C1914 C1915 1.369 . S
C1914 C1916 1.419 . S
C1914 H1918 0.930 . S
C1915 C1914 1.369 . S
C1915 C1924 1.429 . S
C1916 C1914 1.419 . S
C1916 C1917 1.363 . S
C1916 H1919 0.929 . S
C1917 C1916 1.363 . S
C1917 C1923 1.428 . S
H1918 C1914 0.930 . S
H1919 C1916 0.929 . S
S1920 N1921 1.613 . S
S1920 N1922 1.610 . S
N1921 S1920 1.613 . S
N1921 C1924 1.350 . S
N1922 S1920 1.610 . S
N1922 C1923 1.351 . S
C1923 C1917 1.428 . S
C1923 N1922 1.351 . S
C1923 C1924 1.434 . S
C1924 C1915 1.429 . S
C1924 N1921 1.350 . S
C1924 C1923 1.434 . S
C1925 C1926 1.369 . S
C1925 C1927 1.419 . S
C1925 H1929 0.930 . S
C1926 C1925 1.369 . S
C1926 C1935 1.429 . S
C1927 C1925 1.419 . S
C1927 C1928 1.363 . S
C1927 H1930 0.929 . S
C1928 C1927 1.363 . S
C1928 C1934 1.428 . S
H1929 C1925 0.930 . S
H1930 C1927 0.929 . S
S1931 N1932 1.613 . S
S1931 N1933 1.610 . S
N1932 S1931 1.613 . S
N1932 C1935 1.350 . S
N1933 S1931 1.610 . S
N1933 C1934 1.351 . S
C1934 C1928 1.428 . S
C1934 N1933 1.351 . S
C1934 C1935 1.434 . S
C1935 C1926 1.429 . S
C1935 N1932 1.350 . S
C1935 C1934 1.434 . S
C1057 C7 1.003 . S
C1059 C73 0.994 . S
C1068 C40 1.000 . S
C1070 C106 0.990 . S
C1079 C139 0.992 . S
C1081 C205 1.002 . S
C1090 C172 0.989 . S
C1092 C238 0.999 . S
C1101 C337 0.992 . S
C1103 C271 1.002 . S
C1112 C304 0.999 . S
C1114 C370 0.991 . S
C1123 C403 0.992 . S
C1125 C469 1.002 . S
C1134 C436 0.989 . S
C1136 C502 0.999 . S
C1145 C601 1.003 . S
C1147 C535 0.993 . S
C1156 C634 0.988 . S
C1158 C568 0.999 . S
C1167 C667 1.003 . S
C1169 C733 0.993 . S
C1178 C766 1.000 . S
C1180 C700 0.990 . S
C1189 C865 1.003 . S
C1191 C799 0.993 . S
C1200 C898 0.999 . S
C1202 C832 0.991 . S
C1211 C997 0.991 . S
C1213 C931 1.002 . S
C1222 C964 0.997 . S
C1224 C1030 0.992 . S
C1233 N13 1.735 . S
C1235 N46 1.727 . S
C1244 N79 1.729 . S
C1246 N112 1.728 . S
C1255 N178 1.734 . S
C1257 N145 1.728 . S
C1266 N211 1.735 . S
C1268 N244 1.725 . S
C1277 N310 1.732 . S
C1279 N277 1.728 . S
C1288 N343 1.734 . S
C1290 N376 1.728 . S
C1299 N409 1.734 . S
C1301 N442 1.725 . S
C1310 N475 1.728 . S
C1312 N508 1.722 . S
C1321 N541 1.739 . S
C1323 N574 1.737 . S
C1332 N640 1.739 . S
C1334 N607 1.734 . S
C1343 N706 1.731 . S
C1345 N673 1.734 . S
C1354 N739 1.738 . S
C1356 N772 1.733 . S
C1365 N805 1.733 . S
C1367 N838 1.732 . S
C1376 N871 1.736 . S
C1378 N904 1.733 . S
C1387 N937 1.730 . S
C1389 N970 1.734 . S
C1398 N1036 1.738 . S
C1400 N1003 1.733 . S
C1409 C153 1.672 . S
C1411 C21 1.666 . S
C1420 C54 1.667 . S
C1422 C978 1.670 . S
C1431 C483 1.672 . S
C1433 C87 1.667 . S
C1442 C780 1.665 . S
C1444 C120 1.672 . S
C1453 C846 1.665 . S
C1455 C186 1.672 . S
C1464 C351 1.672 . S
C1466 C219 1.666 . S
C1475 C252 1.665 . S
C1477 C648 1.672 . S
C1486 C417 1.672 . S
C1488 C285 1.666 . S
C1497 C318 1.666 . S
C1499 C714 1.671 . S
C1508 C384 1.669 . S
C1510 C1044 1.668 . S
C1519 C582 1.669 . S
C1521 C450 1.669 . S
C1530 C912 1.670 . S
C1532 C516 1.668 . S
C1541 C549 1.667 . S
C1543 C681 1.669 . S
C1552 C615 1.665 . S
C1554 C1011 1.671 . S
C1563 C879 1.672 . S
C1565 C747 1.665 . S
C1574 C813 1.665 . S
C1576 C945 1.671 . S
C1585 N2 1.273 . S
C1587 N629 1.290 . S
C1596 N596 1.281 . S
C1598 N35 1.269 . S
C1607 N68 1.273 . S
C1609 N563 1.290 . S
C1618 N101 1.268 . S
C1620 N530 1.280 . S
C1629 N761 1.276 . S
C1631 N134 1.290 . S
C1640 N167 1.270 . S
C1642 N728 1.280 . S
C1651 N695 1.286 . S
C1653 N200 1.282 . S
C1662 N233 1.281 . S
C1664 N662 1.271 . S
C1673 N266 1.274 . S
C1675 N893 1.290 . S
C1684 N299 1.273 . S
C1686 N860 1.277 . S
C1695 N332 1.281 . S
C1697 N827 1.286 . S
C1706 N365 1.281 . S
C1708 N794 1.269 . S
C1717 N398 1.274 . S
C1719 N1025 1.288 . S
C1728 N992 1.281 . S
C1730 N431 1.269 . S
C1739 N959 1.279 . S
C1741 N464 1.288 . S
C1750 N926 1.281 . S
C1752 N497 1.270 . S
C1761 C18 1.327 . S
C1763 C84 1.325 . S
C1772 C117 1.326 1_554 S
C1774 C51 1.326 . S
C1783 C216 1.326 . S
C1785 C150 1.326 . S
C1794 C183 1.327 . S
C1796 C249 1.326 1_556 S
C1805 C282 1.327 . S
C1807 C348 1.326 . S
C1816 C315 1.327 . S
C1818 C381 1.326 . S
C1827 C480 1.327 . S
C1829 C414 1.326 . S
C1838 C447 1.326 . S
C1840 C513 1.326 . S
C1849 C546 1.326 . S
C1851 C612 1.326 . S
C1860 C579 1.326 . S
C1862 C645 1.326 . S
C1871 C744 1.327 . S
C1873 C678 1.326 . S
C1882 C777 1.325 . S
C1884 C711 1.326 . S
C1893 C876 1.325 . S
C1895 C810 1.326 . S
C1904 C843 1.325 . S
C1906 C909 1.326 1_554 S
C1915 C1008 1.324 . S
C1917 C942 1.326 . S
C1926 C975 1.325 . S
C1928 C1041 1.326 1_556 S
