# Generated by pormake.
# Topology umo, (4)-cn, num edge types: 1
# Building blocks:
#     Node 0, Type 0, BuildingBlock: QUQFOY_clean_sbu_1, # of connection points: 4
#     Node 1, Type 0, BuildingBlock: QUQFOY_clean_sbu_1, # of connection points: 4
#     Node 2, Type 0, BuildingBlock: QUQFOY_clean_sbu_1, # of connection points: 4
#     Node 3, Type 0, BuildingBlock: QUQFOY_clean_sbu_1, # of connection points: 4
#     Node 4, Type 0, BuildingBlock: QUQFOY_clean_sbu_1, # of connection points: 4
#     Node 5, Type 0, BuildingBlock: QUQFOY_clean_sbu_1, # of connection points: 4
#     Node 6, Type 0, BuildingBlock: QUQFOY_clean_sbu_1, # of connection points: 4
#     Node 7, Type 0, BuildingBlock: QUQFOY_clean_sbu_1, # of connection points: 4
#     Node 8, Type 0, BuildingBlock: QUQFOY_clean_sbu_1, # of connection points: 4
#     Node 9, Type 0, BuildingBlock: QUQFOY_clean_sbu_1, # of connection points: 4
#     Node 10, Type 0, BuildingBlock: QUQFOY_clean_sbu_1, # of connection points: 4
#     Node 11, Type 0, BuildingBlock: QUQFOY_clean_sbu_1, # of connection points: 4
#     Edge 12, Type (0, 0), BuildingBlock: AJUNOK_clean_linker_0, # of connection points: 2
#     Edge 13, Type (0, 0), BuildingBlock: AJUNOK_clean_linker_0, # of connection points: 2
#     Edge 14, Type (0, 0), BuildingBlock: AJUNOK_clean_linker_0, # of connection points: 2
#     Edge 15, Type (0, 0), BuildingBlock: AJUNOK_clean_linker_0, # of connection points: 2
#     Edge 16, Type (0, 0), BuildingBlock: AJUNOK_clean_linker_0, # of connection points: 2
#     Edge 17, Type (0, 0), BuildingBlock: AJUNOK_clean_linker_0, # of connection points: 2
#     Edge 18, Type (0, 0), BuildingBlock: AJUNOK_clean_linker_0, # of connection points: 2
#     Edge 19, Type (0, 0), BuildingBlock: AJUNOK_clean_linker_0, # of connection points: 2
#     Edge 20, Type (0, 0), BuildingBlock: AJUNOK_clean_linker_0, # of connection points: 2
#     Edge 21, Type (0, 0), BuildingBlock: AJUNOK_clean_linker_0, # of connection points: 2
#     Edge 22, Type (0, 0), BuildingBlock: AJUNOK_clean_linker_0, # of connection points: 2
#     Edge 23, Type (0, 0), BuildingBlock: AJUNOK_clean_linker_0, # of connection points: 2
#     Edge 24, Type (0, 0), BuildingBlock: AJUNOK_clean_linker_0, # of connection points: 2
#     Edge 25, Type (0, 0), BuildingBlock: AJUNOK_clean_linker_0, # of connection points: 2
#     Edge 26, Type (0, 0), BuildingBlock: AJUNOK_clean_linker_0, # of connection points: 2
#     Edge 27, Type (0, 0), BuildingBlock: AJUNOK_clean_linker_0, # of connection points: 2
#     Edge 28, Type (0, 0), BuildingBlock: AJUNOK_clean_linker_0, # of connection points: 2
#     Edge 29, Type (0, 0), BuildingBlock: AJUNOK_clean_linker_0, # of connection points: 2
#     Edge 30, Type (0, 0), BuildingBlock: AJUNOK_clean_linker_0, # of connection points: 2
#     Edge 31, Type (0, 0), BuildingBlock: AJUNOK_clean_linker_0, # of connection points: 2
#     Edge 32, Type (0, 0), BuildingBlock: AJUNOK_clean_linker_0, # of connection points: 2
#     Edge 33, Type (0, 0), BuildingBlock: AJUNOK_clean_linker_0, # of connection points: 2
#     Edge 34, Type (0, 0), BuildingBlock: AJUNOK_clean_linker_0, # of connection points: 2
#     Edge 35, Type (0, 0), BuildingBlock: AJUNOK_clean_linker_0, # of connection points: 2
# Relax obj value: 0.084
# Max RMSD: 0.122
# Mean RMSD: 0.122
data_MOF--net-umo--node1-QUQFOY_clean_sbu_1--edge1-AJUNOK_clean_linker_0
_symmetry_space_group_name_H-M    P1
_symmetry_Int_Tables_number       1
_symmetry_cell_setting            triclinic
loop_
_symmetry_equiv_pos_as_xyz
'x, y, z'
_cell_length_a     40.109793
_cell_length_b     40.090706
_cell_length_c     28.327095
_cell_angle_alpha  89.967176
_cell_angle_beta   90.01235
_cell_angle_gamma 120.00808
loop_
_atom_site_label
_atom_site_type_symbol
_atom_site_fract_x
_atom_site_fract_y
_atom_site_fract_z
_atom_type_partial_charge
O0 O 0.14926 0.59197 0.47277 0.0
Cd1 Cd 0.14387 0.60396 0.40442 0.0
Cd2 Cd 0.21499 0.60963 0.40038 0.0
O3 O 0.20427 0.59194 0.47093 0.0
O4 O 0.09056 0.59502 0.40487 0.0
O5 O 0.10821 0.56191 0.3593 0.0
C6 C 0.08164 0.56859 0.37382 0.0
C7 C 0.24291 0.58936 0.34181 0.0
C8 C 0.17563 0.58918 0.4939 0.0
C9 C 0.20932 0.6822 0.39445 0.0
O10 O 0.22995 0.66636 0.39573 0.0
O11 O 0.17294 0.66214 0.39356 0.0
O12 O 0.26201 0.60804 0.37865 0.0
O13 O 0.20702 0.57981 0.33967 0.0
O14 O 0.57083 0.14932 0.64124 0.0
Cd15 Cd 0.55279 0.14227 0.57302 0.0
Cd16 Cd 0.61619 0.21595 0.56756 0.0
O17 O 0.6227 0.2071 0.63916 0.0
O18 O 0.50916 0.08857 0.57539 0.0
O19 O 0.55912 0.10621 0.52841 0.0
C20 C 0.52624 0.07957 0.54384 0.0
C21 C 0.66473 0.24414 0.50935 0.0
C22 C 0.59848 0.17747 0.6623 0.0
C23 C 0.53627 0.20537 0.55783 0.0
O24 O 0.57249 0.22782 0.5588 0.0
O25 O 0.52181 0.16923 0.56064 0.0
O26 O 0.66384 0.26368 0.54501 0.0
O27 O 0.63971 0.20775 0.50846 0.0
O28 O 0.40857 0.55853 0.80961 0.0
Cd29 Cd 0.39812 0.5415 0.74099 0.0
Cd30 Cd 0.3945 0.60807 0.73598 0.0
O31 O 0.41152 0.61495 0.80673 0.0
O32 O 0.4056 0.49621 0.74283 0.0
O33 O 0.44055 0.54665 0.69745 0.0
C34 C 0.43263 0.51307 0.71231 0.0
C35 C 0.41603 0.65611 0.67702 0.0
C36 C 0.41234 0.58824 0.83033 0.0
C37 C 0.32099 0.53064 0.72859 0.0
O38 O 0.3375 0.56713 0.73093 0.0
O39 O 0.34037 0.51361 0.72764 0.0
O40 O 0.39741 0.65716 0.71358 0.0
O41 O 0.42483 0.62921 0.67541 0.0
O42 O 0.84741 0.41541 0.97231 0.0
Cd43 Cd 0.85358 0.40494 0.90362 0.0
Cd44 Cd 0.7806 0.39637 0.90011 0.0
O45 O 0.79102 0.41261 0.97134 0.0
O46 O 0.90727 0.41494 0.90418 0.0
O47 O 0.88911 0.44836 0.8599 0.0
C48 C 0.91602 0.44211 0.87422 0.0
C49 C 0.75065 0.41643 0.84375 0.0
C50 C 0.82033 0.41656 0.99392 0.0
C51 C 0.78968 0.32593 0.88981 0.0
O52 O 0.76786 0.34039 0.89227 0.0
O53 O 0.82595 0.34709 0.89052 0.0
O54 O 0.73231 0.39629 0.88017 0.0
O55 O 0.78682 0.4273 0.84061 0.0
O56 O 0.42928 0.8481 0.14353 0.0
Cd57 Cd 0.44852 0.85743 0.07572 0.0
Cd58 Cd 0.38695 0.78356 0.06555 0.0
O59 O 0.38013 0.78881 0.1379 0.0
O60 O 0.49158 0.91141 0.08041 0.0
O61 O 0.44247 0.89438 0.03226 0.0
C62 C 0.47475 0.92097 0.04916 0.0
C63 C 0.33651 0.75436 1.00967 0.0
C64 C 0.40286 0.81784 0.16292 0.0
C65 C 0.46735 0.79587 0.05855 0.0
O66 O 0.43132 0.77294 0.05516 0.0
O67 O 0.48073 0.83168 0.06402 0.0
O68 O 0.33971 0.73507 0.04403 0.0
O69 O 0.36083 0.79088 1.00816 0.0
O70 O 0.58037 0.43255 0.30747 0.0
Cd71 Cd 0.5923 0.45127 0.23956 0.0
Cd72 Cd 0.59922 0.38505 0.23356 0.0
O73 O 0.58298 0.37882 0.30482 0.0
O74 O 0.58474 0.49652 0.24273 0.0
O75 O 0.55062 0.44728 0.19541 0.0
C76 C 0.5583 0.48049 0.21137 0.0
C77 C 0.57911 0.33512 0.17703 0.0
C78 C 0.57892 0.4038 0.32815 0.0
C79 C 0.67065 0.46406 0.22488 0.0
O80 O 0.65542 0.42764 0.22581 0.0
O81 O 0.65029 0.48 0.22735 0.0
O82 O 0.59896 0.33665 0.21359 0.0
O83 O 0.56848 0.36061 0.17384 0.0
O84 O 0.42716 0.84817 0.38624 0.0
Cd85 Cd 0.41489 0.85799 0.45267 0.0
Cd86 Cd 0.39871 0.782 0.46459 0.0
O87 O 0.41095 0.78696 0.39216 0.0
O88 O 0.42588 0.91179 0.4452 0.0
O89 O 0.45578 0.89565 0.49787 0.0
C90 C 0.45038 0.92179 0.47889 0.0
C91 C 0.41774 0.75061 0.52014 0.0
C92 C 0.4208 0.81691 0.36707 0.0
C93 C 0.33323 0.79824 0.47073 0.0
O94 O 0.34481 0.77422 0.47626 0.0
O95 O 0.35673 0.8333 0.46185 0.0
O96 O 0.39474 0.73217 0.48584 0.0
O97 O 0.43179 0.78745 0.52171 0.0
O98 O 0.56304 0.41594 0.55302 0.0
Cd99 Cd 0.54354 0.40259 0.62048 0.0
Cd100 Cd 0.60898 0.39596 0.62722 0.0
O101 O 0.61663 0.41319 0.55637 0.0
O102 O 0.49838 0.41021 0.61699 0.0
O103 O 0.54659 0.44304 0.66611 0.0
C104 C 0.51372 0.43577 0.64946 0.0
C105 C 0.65691 0.41607 0.68636 0.0
C106 C 0.59194 0.41747 0.53271 0.0
C107 C 0.53042 0.32389 0.63104 0.0
O108 O 0.56685 0.33935 0.63202 0.0
O109 O 0.51443 0.34424 0.62975 0.0
O110 O 0.65722 0.39707 0.64981 0.0
O111 O 0.63085 0.42602 0.68791 0.0
O112 O 0.14611 0.57224 0.71807 0.0
Cd113 Cd 0.13787 0.55185 0.78528 0.0
Cd114 Cd 0.2118 0.61569 0.79369 0.0
O115 O 0.20366 0.62429 0.72269 0.0
O116 O 0.08437 0.50807 0.7805 0.0
O117 O 0.10067 0.55658 0.82949 0.0
C118 C 0.07445 0.52426 0.8122 0.0
C119 C 0.2408 0.66347 0.8526 0.0
C120 C 0.17443 0.60078 0.69846 0.0
C121 C 0.20106 0.53538 0.8 0.0
O122 O 0.22341 0.57164 0.80047 0.0
O123 O 0.16496 0.52084 0.79655 0.0
O124 O 0.25995 0.6627 0.81648 0.0
O125 O 0.20437 0.63871 0.85378 0.0
O126 O 0.58082 0.14842 0.88748 0.0
Cd127 Cd 0.59155 0.14172 0.95594 0.0
Cd128 Cd 0.6005 0.2142 0.96094 0.0
O129 O 0.58443 0.20518 0.88968 0.0
O130 O 0.58129 0.08789 0.95471 0.0
O131 O 0.54873 0.1061 1.00039 0.0
C132 C 0.5547 0.07915 0.98547 0.0
C133 C 0.58029 0.24219 0.01966 0.0
C134 C 0.58036 0.17611 0.86642 0.0
C135 C 0.67095 0.20517 0.96739 0.0
O136 O 0.65657 0.22711 0.96692 0.0
O137 O 0.64959 0.1689 0.96725 0.0
O138 O 0.60009 0.26167 0.98358 0.0
O139 O 0.56966 0.20599 0.02092 0.0
O140 O 0.42798 0.57875 0.0546 0.0
Cd141 Cd 0.45026 0.59411 0.12062 0.0
Cd142 Cd 0.38627 0.60498 0.12967 0.0
O143 O 0.37802 0.5878 0.0588 0.0
O144 O 0.49429 0.58476 0.11581 0.0
O145 O 0.44734 0.55436 0.16735 0.0
C146 C 0.47934 0.56016 0.1494 0.0
C147 C 0.33659 0.58712 0.18605 0.0
C148 C 0.40001 0.57964 0.03501 0.0
C149 C 0.46669 0.6744 0.13335 0.0
O150 O 0.43054 0.66055 0.13665 0.0
O151 O 0.48096 0.65272 0.12804 0.0
O152 O 0.33937 0.60755 0.14955 0.0
O153 O 0.36079 0.57488 0.18947 0.0
O154 O 0.85197 0.4318 0.21812 0.0
Cd155 Cd 0.85933 0.45214 0.28527 0.0
Cd156 Cd 0.78624 0.38673 0.29358 0.0
O157 O 0.79485 0.37917 0.22239 0.0
O158 O 0.91175 0.4977 0.2794 0.0
O159 O 0.89831 0.4508 0.3299 0.0
C160 C 0.92313 0.48349 0.31196 0.0
C161 C 0.75706 0.33744 0.35113 0.0
C162 C 0.82385 0.40326 0.19826 0.0
C163 C 0.79399 0.46579 0.29753 0.0
O164 O 0.77262 0.42941 0.29944 0.0
O165 O 0.83024 0.48133 0.29488 0.0
O166 O 0.73833 0.3386 0.3148 0.0
O167 O 0.79315 0.36308 0.35373 0.0
C168 C 0.25424 0.75192 0.38642 0.0
C169 C 0.22734 0.7211 0.41381 0.0
C170 C 0.28634 0.78276 0.40778 0.0
C171 C 0.29304 0.78221 0.45655 0.0
H172 H 0.25311 0.74989 0.34825 0.0
H173 H 0.30889 0.80363 0.38505 0.0
S174 S 0.22669 0.71191 0.54394 0.0
N175 N 0.20491 0.69587 0.49262 0.0
N176 N 0.2671 0.75225 0.53221 0.0
C177 C 0.26368 0.75444 0.48473 0.0
C178 C 0.23018 0.7241 0.46329 0.0
C179 C 0.50545 0.22258 0.61947 0.0
C180 C 0.51286 0.22242 0.57089 0.0
C181 C 0.5049 0.25406 0.63999 0.0
C182 C 0.5098 0.28492 0.61188 0.0
H183 H 0.5063 0.20152 0.64272 0.0
H184 H 0.50541 0.25639 0.67812 0.0
S185 S 0.51993 0.29297 0.4818 0.0
N186 N 0.5186 0.25211 0.49459 0.0
N187 N 0.51426 0.30987 0.53251 0.0
C188 C 0.51018 0.28155 0.56249 0.0
C189 C 0.51253 0.25046 0.54194 0.0
C190 C 0.21972 0.50631 0.73763 0.0
C191 C 0.21848 0.51241 0.78642 0.0
C192 C 0.25152 0.50604 0.71768 0.0
C193 C 0.28163 0.50999 0.74648 0.0
H194 H 0.19924 0.50788 0.71406 0.0
H195 H 0.25469 0.50749 0.67962 0.0
S196 S 0.28691 0.51687 0.87691 0.0
N197 N 0.24645 0.5161 0.86336 0.0
N198 N 0.3048 0.51235 0.82636 0.0
C199 C 0.27722 0.5092 0.79579 0.0
C200 C 0.24581 0.51122 0.81583 0.0
C201 C 0.77271 0.27924 0.95306 0.0
C202 C 0.77243 0.2857 0.9042 0.0
C203 C 0.74111 0.24812 0.97482 0.0
C204 C 0.70968 0.2219 0.94773 0.0
H205 H 0.79428 0.30151 0.97545 0.0
H206 H 0.73922 0.24736 1.013 0.0
S207 S 0.70028 0.22082 0.81758 0.0
N208 N 0.74167 0.26021 0.82886 0.0
N209 N 0.68369 0.19969 0.86914 0.0
C210 C 0.71256 0.22431 0.8982 0.0
C211 C 0.74378 0.2569 0.87636 0.0
C212 C 0.49422 0.75271 0.04908 0.0
C213 C 0.48949 0.77884 0.07704 0.0
C214 C 0.49498 0.72142 0.06994 0.0
C215 C 0.48904 0.71469 0.11884 0.0
H216 H 0.49253 0.75373 1.01097 0.0
H217 H 0.49393 0.69929 0.04695 0.0
S218 S 0.48286 0.7789 0.20751 0.0
N219 N 0.48674 0.80042 0.15641 0.0
N220 N 0.48481 0.73966 0.19503 0.0
C221 C 0.48959 0.74333 0.14745 0.0
C222 C 0.49065 0.77607 0.12649 0.0
C223 C 0.75031 0.49203 0.30712 0.0
C224 C 0.77576 0.48664 0.27869 0.0
C225 C 0.71878 0.49265 0.28687 0.0
C226 C 0.71117 0.48597 0.2382 0.0
H227 H 0.75215 0.49119 0.34523 0.0
H228 H 0.69722 0.4923 0.31028 0.0
S229 S 0.77327 0.47742 0.14846 0.0
N230 N 0.79564 0.482 0.19907 0.0
N231 N 0.73446 0.47995 0.16162 0.0
C232 C 0.73901 0.48554 0.20903 0.0
C233 C 0.77196 0.48666 0.22933 0.0
C234 C 0.20969 0.614 0.6212 0.0
C235 C 0.17501 0.60156 0.64607 0.0
C236 C 0.20973 0.60798 0.57221 0.0
C237 C 0.17512 0.58943 0.54633 0.0
H238 H 0.2369 0.62744 0.63988 0.0
H239 H 0.23711 0.61873 0.55438 0.0
S240 S 0.07664 0.55207 0.59473 0.0
N241 N 0.10529 0.57055 0.6408 0.0
N242 N 0.10529 0.55888 0.54952 0.0
C243 C 0.14035 0.5771 0.57089 0.0
C244 C 0.14033 0.58334 0.62043 0.0
C245 C 0.61002 0.21178 0.74023 0.0
C246 C 0.5973 0.17729 0.71479 0.0
C247 C 0.60252 0.21134 0.78892 0.0
C248 C 0.58207 0.1764 0.81395 0.0
H249 H 0.62497 0.23927 0.72223 0.0
H250 H 0.61364 0.23857 0.80723 0.0
S251 S 0.54295 0.07817 0.76386 0.0
N252 N 0.56385 0.10732 0.71874 0.0
N253 N 0.54927 0.10647 0.80927 0.0
C254 C 0.56932 0.14182 0.78879 0.0
C255 C 0.57713 0.14227 0.73961 0.0
C256 C 0.38958 0.60252 0.95684 0.0
C257 C 0.3985 0.57799 0.98272 0.0
C258 C 0.39587 0.60731 0.90777 0.0
C259 C 0.4112 0.58763 0.88281 0.0
H260 H 0.37894 0.61919 0.97481 0.0
H261 H 0.38808 0.62605 0.88922 0.0
S262 S 0.43818 0.51904 0.93422 0.0
N263 N 0.42237 0.53303 0.97954 0.0
N264 N 0.43453 0.54213 0.88807 0.0
C265 C 0.41975 0.56266 0.90841 0.0
C266 C 0.41325 0.55776 0.95805 0.0
C267 C 0.78778 0.38978 0.12151 0.0
C268 C 0.82288 0.40333 0.14582 0.0
C269 C 0.78697 0.39611 0.07268 0.0
C270 C 0.82126 0.41613 0.04637 0.0
H271 H 0.76074 0.37513 0.14051 0.0
H272 H 0.75932 0.38442 0.05528 0.0
S273 S 0.9207 0.45772 0.09334 0.0
N274 N 0.89271 0.43759 0.13959 0.0
N275 N 0.89126 0.44988 0.04869 0.0
C276 C 0.85646 0.42991 0.07044 0.0
C277 C 0.85726 0.42333 0.11979 0.0
C278 C 0.42521 0.84991 0.24093 0.0
C279 C 0.40389 0.81554 0.21529 0.0
C280 C 0.43234 0.84964 0.28913 0.0
C281 C 0.41833 0.81498 0.31456 0.0
H282 H 0.43702 0.8776 0.2235 0.0
H283 H 0.44858 0.87719 0.30676 0.0
S284 S 0.36168 0.71656 0.26414 0.0
N285 N 0.36969 0.74549 0.21871 0.0
N286 N 0.3823 0.74495 0.31004 0.0
C287 C 0.39716 0.78017 0.28947 0.0
C288 C 0.38993 0.78045 0.23987 0.0
C289 C 0.59938 0.3898 0.40622 0.0
C290 C 0.57912 0.40418 0.38062 0.0
C291 C 0.60566 0.39623 0.45514 0.0
C292 C 0.5918 0.41715 0.48027 0.0
H293 H 0.61134 0.37435 0.38818 0.0
H294 H 0.62054 0.38381 0.47357 0.0
S295 S 0.53661 0.46048 0.42988 0.0
N296 N 0.54478 0.43981 0.38448 0.0
N297 N 0.55689 0.45217 0.47562 0.0
C298 C 0.57148 0.43157 0.45498 0.0
C299 C 0.56499 0.42494 0.40551 0.0
C300 C 0.98398 0.48591 0.338 0.0
C301 C 0.96332 0.50495 0.32826 0.0
C302 C 0.023 0.50678 0.35103 0.0
C303 C 0.04194 0.54706 0.35595 0.0
H304 H 0.97011 0.45488 0.33474 0.0
H305 H 0.03811 0.49129 0.35847 0.0
S306 S 0.00032 0.6101 0.33512 0.0
N307 N 0.96466 0.56617 0.3241 0.0
N308 N 0.03735 0.60509 0.35014 0.0
C309 C 0.02144 0.56623 0.34665 0.0
C310 C 0.98224 0.54523 0.33239 0.0
C311 C 0.50953 0.98163 0.50594 0.0
C312 C 0.46987 0.96175 0.49603 0.0
C313 C 0.52827 0.02049 0.51989 0.0
C314 C 0.50752 0.03996 0.52561 0.0
H315 H 0.52621 0.9673 0.50208 0.0
H316 H 0.55886 0.03507 0.52732 0.0
S317 S 0.40316 0.00031 0.50483 0.0
N318 N 0.41065 0.96432 0.49265 0.0
N319 N 0.44547 0.03664 0.52043 0.0
C320 C 0.46787 0.02018 0.51621 0.0
C321 C 0.44911 0.98119 0.50101 0.0
C322 C 0.49337 0.51428 0.68877 0.0
C323 C 0.45322 0.49371 0.69511 0.0
C324 C 0.5133 0.49522 0.67545 0.0
C325 C 0.49339 0.45533 0.66685 0.0
H326 H 0.50951 0.54504 0.69507 0.0
H327 H 0.54423 0.51185 0.67086 0.0
S328 S 0.38823 0.38885 0.67782 0.0
N329 N 0.39441 0.43152 0.692 0.0
N330 N 0.43156 0.39605 0.66548 0.0
C331 C 0.45326 0.43468 0.67261 0.0
C332 C 0.43322 0.45381 0.68714 0.0
C333 C 0.01431 0.46463 0.83294 0.0
C334 C 0.03432 0.50493 0.8287 0.0
C335 C 0.97589 0.44472 0.84738 0.0
C336 C 0.95574 0.46427 0.85667 0.0
H337 H 0.02862 0.44833 0.82566 0.0
H338 H 0.96174 0.41368 0.851 0.0
S339 S 0.99476 0.56967 0.84969 0.0
N340 N 0.0314 0.56389 0.83482 0.0
N341 N 0.95826 0.52605 0.86044 0.0
C342 C 0.97511 0.50452 0.85184 0.0
C343 C 0.01473 0.525 0.83834 0.0
C344 C 0.55305 0.01966 1.01216 0.0
C345 C 0.53308 0.03948 1.00344 0.0
C346 C 0.53367 0.98133 0.02709 0.0
C347 C 0.49347 0.96105 0.03241 0.0
H348 H 0.58401 0.034 1.00771 0.0
H349 H 0.5503 0.96727 0.03385 0.0
S350 S 0.42777 -0.00026 0.01332 0.0
N351 N 0.47103 0.03641 1.00144 0.0
N352 N 0.43416 0.9634 0.02792 0.0
C353 C 0.47298 0.98032 0.02337 0.0
C354 C 0.49294 0.01988 1.00939 0.0
C355 C 0.47865 0.50014 0.17536 0.0
C356 C 0.49914 0.54001 0.16658 0.0
C357 C 0.49804 0.48048 0.18842 0.0
C358 C 0.53824 0.50043 0.19434 0.0
H359 H 0.44766 0.48401 0.17111 0.0
H360 H 0.48148 0.44975 0.19488 0.0
S361 S 0.60464 0.60494 0.17639 0.0
N362 N 0.56154 0.59857 0.16448 0.0
N363 N 0.59771 0.56199 0.19068 0.0
C364 C 0.55882 0.5403 0.1862 0.0
C365 C 0.53931 0.56002 0.17187 0.0
C366 C 0.29668 0.5809 0.30972 0.0
C367 C 0.2629 0.58263 0.30168 0.0
C368 C 0.31904 0.57984 0.27207 0.0
C369 C 0.3091 0.58152 0.22479 0.0
H370 H 0.30649 0.58132 0.34548 0.0
H371 H 0.34539 0.57975 0.28016 0.0
S372 S 0.22252 0.58433 0.18435 0.0
N373 N 0.21956 0.58378 0.24252 0.0
N374 N 0.26211 0.58307 0.17205 0.0
C375 C 0.27478 0.58202 0.21623 0.0
C376 C 0.25154 0.5822 0.25454 0.0
C377 C 0.74816 0.32144 0.43766 0.0
C378 C 0.73659 0.31013 0.39065 0.0
C379 C 0.7256 0.29913 0.47592 0.0
C380 C 0.69109 0.26406 0.46882 0.0
H381 H 0.77375 0.34878 0.44501 0.0
H382 H 0.73476 0.30999 0.51138 0.0
S383 S 0.64992 0.21978 0.35262 0.0
N384 N 0.68942 0.26043 0.33924 0.0
N385 N 0.64785 0.21801 0.41086 0.0
C386 C 0.68042 0.25134 0.42201 0.0
C387 C 0.70291 0.2745 0.38306 0.0
C388 C 0.42598 0.71869 0.64399 0.0
C389 C 0.42327 0.68266 0.63649 0.0
C390 C 0.42694 0.7418 0.60598 0.0
C391 C 0.42412 0.72931 0.55894 0.0
H392 H 0.42627 0.72866 0.6796 0.0
H393 H 0.42767 0.76862 0.61365 0.0
S394 S 0.41902 0.63857 0.51981 0.0
N395 N 0.42043 0.63694 0.578 0.0
N396 N 0.42084 0.67963 0.50691 0.0
C397 C 0.42286 0.69407 0.55088 0.0
C398 C 0.42284 0.67097 0.58951 0.0
C399 C 0.7413 0.42383 0.75746 0.0
C400 C 0.72966 0.42292 0.80458 0.0
C401 C 0.71838 0.4232 0.71941 0.0
C402 C 0.68338 0.42267 0.72683 0.0
H403 H 0.76727 0.42289 0.74981 0.0
H404 H 0.72771 0.42208 0.68384 0.0
S405 S 0.64178 0.42385 0.84348 0.0
N406 N 0.68186 0.42374 0.85647 0.0
N407 N 0.63957 0.42384 0.78526 0.0
C408 C 0.67257 0.42406 0.77379 0.0
C409 C 0.69547 0.42381 0.81251 0.0
C410 C 0.31857 0.74666 0.92384 0.0
C411 C 0.30846 0.73422 0.97084 0.0
C412 C 0.29568 0.72441 0.88578 0.0
C413 C 0.26119 0.6894 0.89321 0.0
H414 H 0.34547 0.77269 0.91622 0.0
H415 H 0.30564 0.73421 0.85018 0.0
S416 S 0.22004 0.64588 1.00974 0.0
N417 N 0.26054 0.68567 0.02274 0.0
N418 N 0.21694 0.64469 0.95155 0.0
C419 C 0.24962 0.67784 0.94015 0.0
C420 C 0.27341 0.7 0.97883 0.0
C421 C 0.57256 0.3189 0.09062 0.0
C422 C 0.57278 0.30779 0.13775 0.0
C423 C 0.57342 0.29674 0.05258 0.0
C424 C 0.57349 0.26201 0.06001 0.0
H425 H 0.57387 0.34601 0.083 0.0
H426 H 0.57508 0.30746 0.01704 0.0
S427 S 0.57054 0.21827 0.17662 0.0
N428 N 0.57089 0.2586 0.18962 0.0
N429 N 0.5712 0.21643 0.11841 0.0
C430 C 0.57142 0.24945 0.10694 0.0
C431 C 0.57145 0.27247 0.14567 0.0
loop_
_geom_bond_atom_site_label_1
_geom_bond_atom_site_label_2
_geom_bond_distance
_geom_bond_site_symmetry_2
_ccdc_geom_bond_type
O0 Cd1 2.223 . S
O0 C8 1.315 . S
Cd1 O0 2.223 . S
Cd1 O4 2.297 . S
Cd1 O5 2.439 . S
Cd1 O11 2.240 . S
Cd2 O3 2.240 . S
Cd2 O10 2.223 . S
Cd2 O12 2.297 . S
Cd2 O13 2.439 . S
O3 Cd2 2.240 . S
O3 C8 1.279 . S
O4 Cd1 2.297 . S
O4 C6 1.247 . S
O5 Cd1 2.439 . S
O5 C6 1.208 . S
C6 O4 1.247 . S
C6 O5 1.208 . S
C7 O12 1.247 . S
C7 O13 1.208 . S
C8 O0 1.315 . S
C8 O3 1.279 . S
C9 O10 1.315 . S
C9 O11 1.279 . S
O10 Cd2 2.223 . S
O10 C9 1.315 . S
O11 Cd1 2.240 . S
O11 C9 1.279 . S
O12 Cd2 2.297 . S
O12 C7 1.247 . S
O13 Cd2 2.439 . S
O13 C7 1.208 . S
O14 Cd15 2.223 . S
O14 C22 1.315 . S
Cd15 O14 2.223 . S
Cd15 O18 2.297 . S
Cd15 O19 2.439 . S
Cd15 O25 2.240 . S
Cd16 O17 2.240 . S
Cd16 O24 2.223 . S
Cd16 O26 2.297 . S
Cd16 O27 2.439 . S
O17 Cd16 2.240 . S
O17 C22 1.279 . S
O18 Cd15 2.297 . S
O18 C20 1.247 . S
O19 Cd15 2.439 . S
O19 C20 1.208 . S
C20 O18 1.247 . S
C20 O19 1.208 . S
C21 O26 1.247 . S
C21 O27 1.208 . S
C22 O14 1.315 . S
C22 O17 1.279 . S
C23 O24 1.315 . S
C23 O25 1.279 . S
O24 Cd16 2.223 . S
O24 C23 1.315 . S
O25 Cd15 2.240 . S
O25 C23 1.279 . S
O26 Cd16 2.297 . S
O26 C21 1.247 . S
O27 Cd16 2.439 . S
O27 C21 1.208 . S
O28 Cd29 2.223 . S
O28 C36 1.315 . S
Cd29 O28 2.223 . S
Cd29 O32 2.297 . S
Cd29 O33 2.439 . S
Cd29 O39 2.240 . S
Cd30 O31 2.240 . S
Cd30 O38 2.223 . S
Cd30 O40 2.297 . S
Cd30 O41 2.439 . S
O31 Cd30 2.240 . S
O31 C36 1.279 . S
O32 Cd29 2.297 . S
O32 C34 1.247 . S
O33 Cd29 2.439 . S
O33 C34 1.208 . S
C34 O32 1.247 . S
C34 O33 1.208 . S
C35 O40 1.247 . S
C35 O41 1.208 . S
C36 O28 1.315 . S
C36 O31 1.279 . S
C37 O38 1.315 . S
C37 O39 1.279 . S
O38 Cd30 2.223 . S
O38 C37 1.315 . S
O39 Cd29 2.240 . S
O39 C37 1.279 . S
O40 Cd30 2.297 . S
O40 C35 1.247 . S
O41 Cd30 2.439 . S
O41 C35 1.208 . S
O42 Cd43 2.223 . S
O42 C50 1.315 . S
Cd43 O42 2.223 . S
Cd43 O46 2.297 . S
Cd43 O47 2.439 . S
Cd43 O53 2.240 . S
Cd44 O45 2.240 . S
Cd44 O52 2.223 . S
Cd44 O54 2.297 . S
Cd44 O55 2.439 . S
O45 Cd44 2.240 . S
O45 C50 1.279 . S
O46 Cd43 2.297 . S
O46 C48 1.247 . S
O47 Cd43 2.439 . S
O47 C48 1.208 . S
C48 O46 1.247 . S
C48 O47 1.208 . S
C49 O54 1.247 . S
C49 O55 1.208 . S
C50 O42 1.315 . S
C50 O45 1.279 . S
C51 O52 1.315 . S
C51 O53 1.279 . S
O52 Cd44 2.223 . S
O52 C51 1.315 . S
O53 Cd43 2.240 . S
O53 C51 1.279 . S
O54 Cd44 2.297 . S
O54 C49 1.247 . S
O55 Cd44 2.439 . S
O55 C49 1.208 . S
O56 Cd57 2.223 . S
O56 C64 1.315 . S
Cd57 O56 2.223 . S
Cd57 O60 2.297 . S
Cd57 O61 2.439 . S
Cd57 O67 2.240 . S
Cd58 O59 2.240 . S
Cd58 O66 2.223 . S
Cd58 O68 2.297 . S
Cd58 O69 2.439 1_554 S
O59 Cd58 2.240 . S
O59 C64 1.279 . S
O60 Cd57 2.297 . S
O60 C62 1.247 . S
O61 Cd57 2.439 . S
O61 C62 1.208 . S
C62 O60 1.247 . S
C62 O61 1.208 . S
C63 O68 1.247 1_556 S
C63 O69 1.208 . S
C64 O56 1.315 . S
C64 O59 1.279 . S
C65 O66 1.315 . S
C65 O67 1.279 . S
O66 Cd58 2.223 . S
O66 C65 1.315 . S
O67 Cd57 2.240 . S
O67 C65 1.279 . S
O68 Cd58 2.297 . S
O68 C63 1.247 1_554 S
O69 Cd58 2.439 1_556 S
O69 C63 1.208 . S
O70 Cd71 2.223 . S
O70 C78 1.315 . S
Cd71 O70 2.223 . S
Cd71 O74 2.297 . S
Cd71 O75 2.439 . S
Cd71 O81 2.240 . S
Cd72 O73 2.240 . S
Cd72 O80 2.223 . S
Cd72 O82 2.297 . S
Cd72 O83 2.439 . S
O73 Cd72 2.240 . S
O73 C78 1.279 . S
O74 Cd71 2.297 . S
O74 C76 1.247 . S
O75 Cd71 2.439 . S
O75 C76 1.208 . S
C76 O74 1.247 . S
C76 O75 1.208 . S
C77 O82 1.247 . S
C77 O83 1.208 . S
C78 O70 1.315 . S
C78 O73 1.279 . S
C79 O80 1.315 . S
C79 O81 1.279 . S
O80 Cd72 2.223 . S
O80 C79 1.315 . S
O81 Cd71 2.240 . S
O81 C79 1.279 . S
O82 Cd72 2.297 . S
O82 C77 1.247 . S
O83 Cd72 2.439 . S
O83 C77 1.208 . S
O84 Cd85 2.223 . S
O84 C92 1.315 . S
Cd85 O84 2.223 . S
Cd85 O88 2.297 . S
Cd85 O89 2.439 . S
Cd85 O95 2.240 . S
Cd86 O87 2.240 . S
Cd86 O94 2.223 . S
Cd86 O96 2.297 . S
Cd86 O97 2.439 . S
O87 Cd86 2.240 . S
O87 C92 1.279 . S
O88 Cd85 2.297 . S
O88 C90 1.247 . S
O89 Cd85 2.439 . S
O89 C90 1.208 . S
C90 O88 1.247 . S
C90 O89 1.208 . S
C91 O96 1.247 . S
C91 O97 1.208 . S
C92 O84 1.315 . S
C92 O87 1.279 . S
C93 O94 1.315 . S
C93 O95 1.279 . S
O94 Cd86 2.223 . S
O94 C93 1.315 . S
O95 Cd85 2.240 . S
O95 C93 1.279 . S
O96 Cd86 2.297 . S
O96 C91 1.247 . S
O97 Cd86 2.439 . S
O97 C91 1.208 . S
O98 Cd99 2.223 . S
O98 C106 1.315 . S
Cd99 O98 2.223 . S
Cd99 O102 2.297 . S
Cd99 O103 2.439 . S
Cd99 O109 2.240 . S
Cd100 O101 2.240 . S
Cd100 O108 2.223 . S
Cd100 O110 2.297 . S
Cd100 O111 2.439 . S
O101 Cd100 2.240 . S
O101 C106 1.279 . S
O102 Cd99 2.297 . S
O102 C104 1.247 . S
O103 Cd99 2.439 . S
O103 C104 1.208 . S
C104 O102 1.247 . S
C104 O103 1.208 . S
C105 O110 1.247 . S
C105 O111 1.208 . S
C106 O98 1.315 . S
C106 O101 1.279 . S
C107 O108 1.315 . S
C107 O109 1.279 . S
O108 Cd100 2.223 . S
O108 C107 1.315 . S
O109 Cd99 2.240 . S
O109 C107 1.279 . S
O110 Cd100 2.297 . S
O110 C105 1.247 . S
O111 Cd100 2.439 . S
O111 C105 1.208 . S
O112 Cd113 2.223 . S
O112 C120 1.315 . S
Cd113 O112 2.223 . S
Cd113 O116 2.297 . S
Cd113 O117 2.439 . S
Cd113 O123 2.240 . S
Cd114 O115 2.240 . S
Cd114 O122 2.223 . S
Cd114 O124 2.297 . S
Cd114 O125 2.439 . S
O115 Cd114 2.240 . S
O115 C120 1.279 . S
O116 Cd113 2.297 . S
O116 C118 1.247 . S
O117 Cd113 2.439 . S
O117 C118 1.208 . S
C118 O116 1.247 . S
C118 O117 1.208 . S
C119 O124 1.247 . S
C119 O125 1.208 . S
C120 O112 1.315 . S
C120 O115 1.279 . S
C121 O122 1.315 . S
C121 O123 1.279 . S
O122 Cd114 2.223 . S
O122 C121 1.315 . S
O123 Cd113 2.240 . S
O123 C121 1.279 . S
O124 Cd114 2.297 . S
O124 C119 1.247 . S
O125 Cd114 2.439 . S
O125 C119 1.208 . S
O126 Cd127 2.223 . S
O126 C134 1.315 . S
Cd127 O126 2.223 . S
Cd127 O130 2.297 . S
Cd127 O131 2.439 . S
Cd127 O137 2.240 . S
Cd128 O129 2.240 . S
Cd128 O136 2.223 . S
Cd128 O138 2.297 . S
Cd128 O139 2.439 1_556 S
O129 Cd128 2.240 . S
O129 C134 1.279 . S
O130 Cd127 2.297 . S
O130 C132 1.247 . S
O131 Cd127 2.439 . S
O131 C132 1.208 . S
C132 O130 1.247 . S
C132 O131 1.208 . S
C133 O138 1.247 1_554 S
C133 O139 1.208 . S
C134 O126 1.315 . S
C134 O129 1.279 . S
C135 O136 1.315 . S
C135 O137 1.279 . S
O136 Cd128 2.223 . S
O136 C135 1.315 . S
O137 Cd127 2.240 . S
O137 C135 1.279 . S
O138 Cd128 2.297 . S
O138 C133 1.247 1_556 S
O139 Cd128 2.439 1_554 S
O139 C133 1.208 . S
O140 Cd141 2.223 . S
O140 C148 1.315 . S
Cd141 O140 2.223 . S
Cd141 O144 2.297 . S
Cd141 O145 2.439 . S
Cd141 O151 2.240 . S
Cd142 O143 2.240 . S
Cd142 O150 2.223 . S
Cd142 O152 2.297 . S
Cd142 O153 2.439 . S
O143 Cd142 2.240 . S
O143 C148 1.279 . S
O144 Cd141 2.297 . S
O144 C146 1.247 . S
O145 Cd141 2.439 . S
O145 C146 1.208 . S
C146 O144 1.247 . S
C146 O145 1.208 . S
C147 O152 1.247 . S
C147 O153 1.208 . S
C148 O140 1.315 . S
C148 O143 1.279 . S
C149 O150 1.315 . S
C149 O151 1.279 . S
O150 Cd142 2.223 . S
O150 C149 1.315 . S
O151 Cd141 2.240 . S
O151 C149 1.279 . S
O152 Cd142 2.297 . S
O152 C147 1.247 . S
O153 Cd142 2.439 . S
O153 C147 1.208 . S
O154 Cd155 2.223 . S
O154 C162 1.315 . S
Cd155 O154 2.223 . S
Cd155 O158 2.297 . S
Cd155 O159 2.439 . S
Cd155 O165 2.240 . S
Cd156 O157 2.240 . S
Cd156 O164 2.223 . S
Cd156 O166 2.297 . S
Cd156 O167 2.439 . S
O157 Cd156 2.240 . S
O157 C162 1.279 . S
O158 Cd155 2.297 . S
O158 C160 1.247 . S
O159 Cd155 2.439 . S
O159 C160 1.208 . S
C160 O158 1.247 . S
C160 O159 1.208 . S
C161 O166 1.247 . S
C161 O167 1.208 . S
C162 O154 1.315 . S
C162 O157 1.279 . S
C163 O164 1.315 . S
C163 O165 1.279 . S
O164 Cd156 2.223 . S
O164 C163 1.315 . S
O165 Cd155 2.240 . S
O165 C163 1.279 . S
O166 Cd156 2.297 . S
O166 C161 1.247 . S
O167 Cd156 2.439 . S
O167 C161 1.208 . S
C168 C169 1.369 . S
C168 C170 1.419 . S
C168 H172 0.930 . S
C169 C168 1.369 . S
C169 C178 1.429 . S
C170 C168 1.419 . S
C170 C171 1.363 . S
C170 H173 0.929 . S
C171 C170 1.363 . S
C171 C177 1.428 . S
H172 C168 0.930 . S
H173 C170 0.929 . S
S174 N175 1.613 . S
S174 N176 1.610 . S
N175 S174 1.613 . S
N175 C178 1.350 . S
N176 S174 1.610 . S
N176 C177 1.351 . S
C177 C171 1.428 . S
C177 N176 1.351 . S
C177 C178 1.434 . S
C178 C169 1.429 . S
C178 N175 1.350 . S
C178 C177 1.434 . S
C179 C180 1.369 . S
C179 C181 1.419 . S
C179 H183 0.930 . S
C180 C179 1.369 . S
C180 C189 1.429 . S
C181 C179 1.419 . S
C181 C182 1.363 . S
C181 H184 0.929 . S
C182 C181 1.363 . S
C182 C188 1.428 . S
H183 C179 0.930 . S
H184 C181 0.929 . S
S185 N186 1.613 . S
S185 N187 1.610 . S
N186 S185 1.613 . S
N186 C189 1.350 . S
N187 S185 1.610 . S
N187 C188 1.351 . S
C188 C182 1.428 . S
C188 N187 1.351 . S
C188 C189 1.434 . S
C189 C180 1.429 . S
C189 N186 1.350 . S
C189 C188 1.434 . S
C190 C191 1.369 . S
C190 C192 1.419 . S
C190 H194 0.930 . S
C191 C190 1.369 . S
C191 C200 1.429 . S
C192 C190 1.419 . S
C192 C193 1.363 . S
C192 H195 0.929 . S
C193 C192 1.363 . S
C193 C199 1.428 . S
H194 C190 0.930 . S
H195 C192 0.929 . S
S196 N197 1.613 . S
S196 N198 1.610 . S
N197 S196 1.613 . S
N197 C200 1.350 . S
N198 S196 1.610 . S
N198 C199 1.351 . S
C199 C193 1.428 . S
C199 N198 1.351 . S
C199 C200 1.434 . S
C200 C191 1.429 . S
C200 N197 1.350 . S
C200 C199 1.434 . S
C201 C202 1.369 . S
C201 C203 1.419 . S
C201 H205 0.930 . S
C202 C201 1.369 . S
C202 C211 1.429 . S
C203 C201 1.419 . S
C203 C204 1.363 . S
C203 H206 0.929 . S
C204 C203 1.363 . S
C204 C210 1.428 . S
H205 C201 0.930 . S
H206 C203 0.929 . S
S207 N208 1.613 . S
S207 N209 1.610 . S
N208 S207 1.613 . S
N208 C211 1.350 . S
N209 S207 1.610 . S
N209 C210 1.351 . S
C210 C204 1.428 . S
C210 N209 1.351 . S
C210 C211 1.434 . S
C211 C202 1.429 . S
C211 N208 1.350 . S
C211 C210 1.434 . S
C212 C213 1.369 . S
C212 C214 1.419 . S
C212 H216 0.930 . S
C213 C212 1.369 . S
C213 C222 1.429 . S
C214 C212 1.419 . S
C214 C215 1.363 . S
C214 H217 0.929 . S
C215 C214 1.363 . S
C215 C221 1.428 . S
H216 C212 0.930 . S
H217 C214 0.929 . S
S218 N219 1.613 . S
S218 N220 1.610 . S
N219 S218 1.613 . S
N219 C222 1.350 . S
N220 S218 1.610 . S
N220 C221 1.351 . S
C221 C215 1.428 . S
C221 N220 1.351 . S
C221 C222 1.434 . S
C222 C213 1.429 . S
C222 N219 1.350 . S
C222 C221 1.434 . S
C223 C224 1.369 . S
C223 C225 1.419 . S
C223 H227 0.930 . S
C224 C223 1.369 . S
C224 C233 1.429 . S
C225 C223 1.419 . S
C225 C226 1.363 . S
C225 H228 0.929 . S
C226 C225 1.363 . S
C226 C232 1.428 . S
H227 C223 0.930 . S
H228 C225 0.929 . S
S229 N230 1.613 . S
S229 N231 1.610 . S
N230 S229 1.613 . S
N230 C233 1.350 . S
N231 S229 1.610 . S
N231 C232 1.351 . S
C232 C226 1.428 . S
C232 N231 1.351 . S
C232 C233 1.434 . S
C233 C224 1.429 . S
C233 N230 1.350 . S
C233 C232 1.434 . S
C234 C235 1.369 . S
C234 C236 1.419 . S
C234 H238 0.930 . S
C235 C234 1.369 . S
C235 C244 1.429 . S
C236 C234 1.419 . S
C236 C237 1.363 . S
C236 H239 0.929 . S
C237 C236 1.363 . S
C237 C243 1.428 . S
H238 C234 0.930 . S
H239 C236 0.929 . S
S240 N241 1.613 . S
S240 N242 1.610 . S
N241 S240 1.613 . S
N241 C244 1.350 . S
N242 S240 1.610 . S
N242 C243 1.351 . S
C243 C237 1.428 . S
C243 N242 1.351 . S
C243 C244 1.434 . S
C244 C235 1.429 . S
C244 N241 1.350 . S
C244 C243 1.434 . S
C245 C246 1.369 . S
C245 C247 1.419 . S
C245 H249 0.930 . S
C246 C245 1.369 . S
C246 C255 1.429 . S
C247 C245 1.419 . S
C247 C248 1.363 . S
C247 H250 0.929 . S
C248 C247 1.363 . S
C248 C254 1.428 . S
H249 C245 0.930 . S
H250 C247 0.929 . S
S251 N252 1.613 . S
S251 N253 1.610 . S
N252 S251 1.613 . S
N252 C255 1.350 . S
N253 S251 1.610 . S
N253 C254 1.351 . S
C254 C248 1.428 . S
C254 N253 1.351 . S
C254 C255 1.434 . S
C255 C246 1.429 . S
C255 N252 1.350 . S
C255 C254 1.434 . S
C256 C257 1.369 . S
C256 C258 1.419 . S
C256 H260 0.930 . S
C257 C256 1.369 . S
C257 C266 1.429 . S
C258 C256 1.419 . S
C258 C259 1.363 . S
C258 H261 0.929 . S
C259 C258 1.363 . S
C259 C265 1.428 . S
H260 C256 0.930 . S
H261 C258 0.929 . S
S262 N263 1.613 . S
S262 N264 1.610 . S
N263 S262 1.613 . S
N263 C266 1.350 . S
N264 S262 1.610 . S
N264 C265 1.351 . S
C265 C259 1.428 . S
C265 N264 1.351 . S
C265 C266 1.434 . S
C266 C257 1.429 . S
C266 N263 1.350 . S
C266 C265 1.434 . S
C267 C268 1.369 . S
C267 C269 1.419 . S
C267 H271 0.930 . S
C268 C267 1.369 . S
C268 C277 1.429 . S
C269 C267 1.419 . S
C269 C270 1.363 . S
C269 H272 0.929 . S
C270 C269 1.363 . S
C270 C276 1.428 . S
H271 C267 0.930 . S
H272 C269 0.929 . S
S273 N274 1.613 . S
S273 N275 1.610 . S
N274 S273 1.613 . S
N274 C277 1.350 . S
N275 S273 1.610 . S
N275 C276 1.351 . S
C276 C270 1.428 . S
C276 N275 1.351 . S
C276 C277 1.434 . S
C277 C268 1.429 . S
C277 N274 1.350 . S
C277 C276 1.434 . S
C278 C279 1.369 . S
C278 C280 1.419 . S
C278 H282 0.930 . S
C279 C278 1.369 . S
C279 C288 1.429 . S
C280 C278 1.419 . S
C280 C281 1.363 . S
C280 H283 0.929 . S
C281 C280 1.363 . S
C281 C287 1.428 . S
H282 C278 0.930 . S
H283 C280 0.929 . S
S284 N285 1.613 . S
S284 N286 1.610 . S
N285 S284 1.613 . S
N285 C288 1.350 . S
N286 S284 1.610 . S
N286 C287 1.351 . S
C287 C281 1.428 . S
C287 N286 1.351 . S
C287 C288 1.434 . S
C288 C279 1.429 . S
C288 N285 1.350 . S
C288 C287 1.434 . S
C289 C290 1.369 . S
C289 C291 1.419 . S
C289 H293 0.930 . S
C290 C289 1.369 . S
C290 C299 1.429 . S
C291 C289 1.419 . S
C291 C292 1.363 . S
C291 H294 0.929 . S
C292 C291 1.363 . S
C292 C298 1.428 . S
H293 C289 0.930 . S
H294 C291 0.929 . S
S295 N296 1.613 . S
S295 N297 1.610 . S
N296 S295 1.613 . S
N296 C299 1.350 . S
N297 S295 1.610 . S
N297 C298 1.351 . S
C298 C292 1.428 . S
C298 N297 1.351 . S
C298 C299 1.434 . S
C299 C290 1.429 . S
C299 N296 1.350 . S
C299 C298 1.434 . S
C300 C301 1.369 . S
C300 C302 1.419 1_655 S
C300 H304 0.930 . S
C301 C300 1.369 . S
C301 C310 1.429 . S
C302 C300 1.419 1_455 S
C302 C303 1.363 . S
C302 H305 0.929 . S
C303 C302 1.363 . S
C303 C309 1.428 . S
H304 C300 0.930 . S
H305 C302 0.929 . S
S306 N307 1.613 1_455 S
S306 N308 1.610 . S
N307 S306 1.613 1_655 S
N307 C310 1.350 . S
N308 S306 1.610 . S
N308 C309 1.351 . S
C309 C303 1.428 . S
C309 N308 1.351 . S
C309 C310 1.434 1_455 S
C310 C301 1.429 . S
C310 N307 1.350 . S
C310 C309 1.434 1_655 S
C311 C312 1.369 . S
C311 C313 1.419 1_565 S
C311 H315 0.930 . S
C312 C311 1.369 . S
C312 C321 1.429 . S
C313 C311 1.419 1_545 S
C313 C314 1.363 . S
C313 H316 0.929 . S
C314 C313 1.363 . S
C314 C320 1.428 . S
H315 C311 0.930 . S
H316 C313 0.929 . S
S317 N318 1.613 1_545 S
S317 N319 1.610 . S
N318 S317 1.613 1_565 S
N318 C321 1.350 . S
N319 S317 1.610 . S
N319 C320 1.351 . S
C320 C314 1.428 . S
C320 N319 1.351 . S
C320 C321 1.434 1_545 S
C321 C312 1.429 . S
C321 N318 1.350 . S
C321 C320 1.434 1_565 S
C322 C323 1.369 . S
C322 C324 1.419 . S
C322 H326 0.930 . S
C323 C322 1.369 . S
C323 C332 1.429 . S
C324 C322 1.419 . S
C324 C325 1.363 . S
C324 H327 0.929 . S
C325 C324 1.363 . S
C325 C331 1.428 . S
H326 C322 0.930 . S
H327 C324 0.929 . S
S328 N329 1.613 . S
S328 N330 1.610 . S
N329 S328 1.613 . S
N329 C332 1.350 . S
N330 S328 1.610 . S
N330 C331 1.351 . S
C331 C325 1.428 . S
C331 N330 1.351 . S
C331 C332 1.434 . S
C332 C323 1.429 . S
C332 N329 1.350 . S
C332 C331 1.434 . S
C333 C334 1.369 . S
C333 C335 1.419 1_455 S
C333 H337 0.930 . S
C334 C333 1.369 . S
C334 C343 1.429 . S
C335 C333 1.419 1_655 S
C335 C336 1.363 . S
C335 H338 0.929 . S
C336 C335 1.363 . S
C336 C342 1.428 . S
H337 C333 0.930 . S
H338 C335 0.929 . S
S339 N340 1.613 1_655 S
S339 N341 1.610 . S
N340 S339 1.613 1_455 S
N340 C343 1.350 . S
N341 S339 1.610 . S
N341 C342 1.351 . S
C342 C336 1.428 . S
C342 N341 1.351 . S
C342 C343 1.434 1_655 S
C343 C334 1.429 . S
C343 N340 1.350 . S
C343 C342 1.434 1_455 S
C344 C345 1.369 . S
C344 C346 1.419 1_545 S
C344 H348 0.930 . S
C345 C344 1.369 . S
C345 C354 1.429 1_556 S
C346 C344 1.419 1_565 S
C346 C347 1.363 1_556 S
C346 H349 0.929 . S
C347 C346 1.363 1_554 S
C347 C353 1.428 . S
H348 C344 0.930 . S
H349 C346 0.929 . S
S350 N351 1.613 . S
S350 N352 1.610 1_545 S
N351 S350 1.613 . S
N351 C354 1.350 . S
N352 S350 1.610 1_565 S
N352 C353 1.351 . S
C353 C347 1.428 . S
C353 N352 1.351 . S
C353 C354 1.434 1_565 S
C354 C345 1.429 1_554 S
C354 N351 1.350 . S
C354 C353 1.434 1_545 S
C355 C356 1.369 . S
C355 C357 1.419 . S
C355 H359 0.930 . S
C356 C355 1.369 . S
C356 C365 1.429 . S
C357 C355 1.419 . S
C357 C358 1.363 . S
C357 H360 0.929 . S
C358 C357 1.363 . S
C358 C364 1.428 . S
H359 C355 0.930 . S
H360 C357 0.929 . S
S361 N362 1.613 . S
S361 N363 1.610 . S
N362 S361 1.613 . S
N362 C365 1.350 . S
N363 S361 1.610 . S
N363 C364 1.351 . S
C364 C358 1.428 . S
C364 N363 1.351 . S
C364 C365 1.434 . S
C365 C356 1.429 . S
C365 N362 1.350 . S
C365 C364 1.434 . S
C366 C367 1.369 . S
C366 C368 1.419 . S
C366 H370 0.930 . S
C367 C366 1.369 . S
C367 C376 1.429 . S
C368 C366 1.419 . S
C368 C369 1.363 . S
C368 H371 0.929 . S
C369 C368 1.363 . S
C369 C375 1.428 . S
H370 C366 0.930 . S
H371 C368 0.929 . S
S372 N373 1.613 . S
S372 N374 1.610 . S
N373 S372 1.613 . S
N373 C376 1.350 . S
N374 S372 1.610 . S
N374 C375 1.351 . S
C375 C369 1.428 . S
C375 N374 1.351 . S
C375 C376 1.434 . S
C376 C367 1.429 . S
C376 N373 1.350 . S
C376 C375 1.434 . S
C377 C378 1.369 . S
C377 C379 1.419 . S
C377 H381 0.930 . S
C378 C377 1.369 . S
C378 C387 1.429 . S
C379 C377 1.419 . S
C379 C380 1.363 . S
C379 H382 0.929 . S
C380 C379 1.363 . S
C380 C386 1.428 . S
H381 C377 0.930 . S
H382 C379 0.929 . S
S383 N384 1.613 . S
S383 N385 1.610 . S
N384 S383 1.613 . S
N384 C387 1.350 . S
N385 S383 1.610 . S
N385 C386 1.351 . S
C386 C380 1.428 . S
C386 N385 1.351 . S
C386 C387 1.434 . S
C387 C378 1.429 . S
C387 N384 1.350 . S
C387 C386 1.434 . S
C388 C389 1.369 . S
C388 C390 1.419 . S
C388 H392 0.930 . S
C389 C388 1.369 . S
C389 C398 1.429 . S
C390 C388 1.419 . S
C390 C391 1.363 . S
C390 H393 0.929 . S
C391 C390 1.363 . S
C391 C397 1.428 . S
H392 C388 0.930 . S
H393 C390 0.929 . S
S394 N395 1.613 . S
S394 N396 1.610 . S
N395 S394 1.613 . S
N395 C398 1.350 . S
N396 S394 1.610 . S
N396 C397 1.351 . S
C397 C391 1.428 . S
C397 N396 1.351 . S
C397 C398 1.434 . S
C398 C389 1.429 . S
C398 N395 1.350 . S
C398 C397 1.434 . S
C399 C400 1.369 . S
C399 C401 1.419 . S
C399 H403 0.930 . S
C400 C399 1.369 . S
C400 C409 1.429 . S
C401 C399 1.419 . S
C401 C402 1.363 . S
C401 H404 0.929 . S
C402 C401 1.363 . S
C402 C408 1.428 . S
H403 C399 0.930 . S
H404 C401 0.929 . S
S405 N406 1.613 . S
S405 N407 1.610 . S
N406 S405 1.613 . S
N406 C409 1.350 . S
N407 S405 1.610 . S
N407 C408 1.351 . S
C408 C402 1.428 . S
C408 N407 1.351 . S
C408 C409 1.434 . S
C409 C400 1.429 . S
C409 N406 1.350 . S
C409 C408 1.434 . S
C410 C411 1.369 . S
C410 C412 1.419 . S
C410 H414 0.930 . S
C411 C410 1.369 . S
C411 C420 1.429 . S
C412 C410 1.419 . S
C412 C413 1.363 . S
C412 H415 0.929 . S
C413 C412 1.363 . S
C413 C419 1.428 . S
H414 C410 0.930 . S
H415 C412 0.929 . S
S416 N417 1.613 . S
S416 N418 1.610 1_554 S
N417 S416 1.613 . S
N417 C420 1.350 1_554 S
N418 S416 1.610 1_556 S
N418 C419 1.351 . S
C419 C413 1.428 . S
C419 N418 1.351 . S
C419 C420 1.434 . S
C420 C411 1.429 . S
C420 N417 1.350 1_556 S
C420 C419 1.434 . S
C421 C422 1.369 . S
C421 C423 1.419 . S
C421 H425 0.930 . S
C422 C421 1.369 . S
C422 C431 1.429 . S
C423 C421 1.419 . S
C423 C424 1.363 . S
C423 H426 0.929 . S
C424 C423 1.363 . S
C424 C430 1.428 . S
H425 C421 0.930 . S
H426 C423 0.929 . S
S427 N428 1.613 . S
S427 N429 1.610 . S
N428 S427 1.613 . S
N428 C431 1.350 . S
N429 S427 1.610 . S
N429 C430 1.351 . S
C430 C424 1.428 . S
C430 N429 1.351 . S
C430 C431 1.434 . S
C431 C422 1.429 . S
C431 N428 1.350 . S
C431 C430 1.434 . S
C169 C9 1.122 . S
C171 C93 1.122 . S
C180 C23 1.120 . S
C182 C107 1.121 . S
C191 C121 1.111 . S
C193 C37 1.114 . S
C202 C51 1.121 . S
C204 C135 1.122 . S
C213 C65 1.123 . S
C215 C149 1.120 . S
C224 C163 1.122 . S
C226 C79 1.119 . S
C235 C120 1.641 . S
C237 C8 1.636 . S
C246 C22 1.639 . S
C248 C134 1.637 . S
C257 C148 1.643 1_556 S
C259 C36 1.636 . S
C268 C162 1.635 . S
C270 C50 1.641 1_554 S
C279 C64 1.640 . S
C281 C92 1.640 . S
C290 C78 1.635 . S
C292 C106 1.641 . S
C301 C160 1.438 . S
C303 C6 1.438 . S
C312 C90 1.439 . S
C314 C20 1.439 . S
C323 C34 1.440 . S
C325 C104 1.439 . S
C334 C118 1.443 . S
C336 C48 1.442 . S
C345 C132 1.440 . S
C347 C62 1.442 . S
C356 C146 1.437 . S
C358 C76 1.438 . S
C367 C7 1.319 . S
C369 C147 1.312 . S
C378 C161 1.313 . S
C380 C21 1.318 . S
C389 C35 1.318 . S
C391 C91 1.314 . S
C400 C49 1.310 . S
C402 C105 1.316 . S
C411 C63 1.310 . S
C413 C119 1.318 . S
C422 C77 1.311 . S
C424 C133 1.318 . S
