# Generated by pormake.
# Topology rob, (6)-cn, num edge types: 1
# Building blocks:
#     Node 0, Type 0, BuildingBlock: PAMTOO_clean_sbu_0, # of connection points: 6
#     Node 1, Type 0, BuildingBlock: PAMTOO_clean_sbu_0, # of connection points: 6
#     Node 2, Type 0, BuildingBlock: PAMTOO_clean_sbu_0, # of connection points: 6
#     Node 3, Type 0, BuildingBlock: PAMTOO_clean_sbu_0, # of connection points: 6
#     Edge 4, Type (0, 0), BuildingBlock: TEMPAE_clean_linker_10, # of connection points: 2
#     Edge 5, Type (0, 0), BuildingBlock: TEMPAE_clean_linker_10, # of connection points: 2
#     Edge 6, Type (0, 0), BuildingBlock: TEMPAE_clean_linker_10, # of connection points: 2
#     Edge 7, Type (0, 0), BuildingBlock: TEMPAE_clean_linker_10, # of connection points: 2
#     Edge 8, Type (0, 0), BuildingBlock: TEMPAE_clean_linker_10, # of connection points: 2
#     Edge 9, Type (0, 0), BuildingBlock: TEMPAE_clean_linker_10, # of connection points: 2
#     Edge 10, Type (0, 0), BuildingBlock: TEMPAE_clean_linker_10, # of connection points: 2
#     Edge 11, Type (0, 0), BuildingBlock: TEMPAE_clean_linker_10, # of connection points: 2
#     Edge 12, Type (0, 0), BuildingBlock: TEMPAE_clean_linker_10, # of connection points: 2
#     Edge 13, Type (0, 0), BuildingBlock: TEMPAE_clean_linker_10, # of connection points: 2
#     Edge 14, Type (0, 0), BuildingBlock: TEMPAE_clean_linker_10, # of connection points: 2
#     Edge 15, Type (0, 0), BuildingBlock: TEMPAE_clean_linker_10, # of connection points: 2
# Relax obj value: 0.079
# Max RMSD: 0.196
# Mean RMSD: 0.196
data_MOF--net-rob--node1-PAMTOO_clean_sbu_0--edge1-TEMPAE_clean_linker_10
_symmetry_space_group_name_H-M    P1
_symmetry_Int_Tables_number       1
_symmetry_cell_setting            triclinic
loop_
_symmetry_equiv_pos_as_xyz
'x, y, z'
_cell_length_a     16.319998
_cell_length_b     25.944181
_cell_length_c     36.432957
_cell_angle_alpha  101.69048
_cell_angle_beta   90.059361
_cell_angle_gamma 90.077576
loop_
_atom_site_label
_atom_site_type_symbol
_atom_site_fract_x
_atom_site_fract_y
_atom_site_fract_z
_atom_type_partial_charge
Dy0 Dy 0.32326 0.21957 1.00494 0.0
Dy1 Dy 0.16845 0.28105 0.05401 0.0
C2 C 0.32383 0.34127 0.03563 0.0
O3 O 0.33349 0.19565 0.06017 0.0
O4 O 0.26412 0.26606 0.09478 0.0
O5 O 0.44591 0.22299 0.98343 0.0
O6 O 0.37619 0.15086 0.96899 0.0
O7 O 0.14705 0.19534 0.04942 0.0
O8 O 0.21546 0.16619 0.99427 0.0
O9 O 0.12922 0.27375 0.9941 0.0
O10 O 0.25607 0.26059 0.96598 0.0
O11 O 0.04179 0.28714 0.072 0.0
O12 O 0.129 0.34792 0.09548 0.0
C13 C 0.31302 0.22523 0.09256 0.0
O14 O 0.3646 0.29813 0.03662 0.0
O15 O 0.24386 0.34051 0.03317 0.0
C16 C 0.45401 0.17548 0.92071 0.0
C17 C 0.47364 0.17156 0.84299 0.0
C18 C 0.46476 0.22005 0.86823 0.0
C19 C 0.45452 0.22198 0.90651 0.0
C20 C 0.46301 0.12699 0.89573 0.0
C21 C 0.47247 0.12498 0.85726 0.0
C22 C 0.43954 0.17712 0.96101 0.0
C23 C 0.16151 0.15921 0.01939 0.0
C24 C 0.17738 0.27084 0.96471 0.0
C25 C 0.02914 0.3255 0.137 0.0
C26 C 0.98285 0.31675 0.21042 0.0
C27 C 0.94204 0.28746 0.17895 0.0
C28 C 0.96482 0.29184 0.14268 0.0
C29 C 0.06845 0.35581 0.16854 0.0
C30 C 0.04578 0.35134 0.20476 0.0
C31 C 0.05626 0.32824 0.09852 0.0
H32 H 0.46691 0.25683 0.85856 0.0
H33 H 0.44682 0.26005 0.92492 0.0
H34 H 0.46179 0.09057 0.90595 0.0
H35 H 0.47803 0.08688 0.83869 0.0
H36 H 0.89367 0.26017 0.18231 0.0
H37 H 0.93281 0.26823 0.11905 0.0
H38 H 0.11749 0.3827 0.16531 0.0
H39 H 0.0775 0.37515 0.22839 0.0
Dy40 Dy 0.80917 0.70427 0.97249 0.0
Dy41 Dy 0.68055 0.78251 0.02777 0.0
C42 C 0.84418 0.82405 0.9993 0.0
O43 O 0.85766 0.71094 0.03119 0.0
O44 O 0.73768 0.73274 0.06352 0.0
O45 O 0.9326 0.68636 0.95267 0.0
O46 O 0.83127 0.63789 0.92714 0.0
O47 O 0.61781 0.70465 1.01237 0.0
O48 O 0.72798 0.64945 0.99516 0.0
O49 O 0.66439 0.80131 0.97094 0.0
O50 O 0.70369 0.72067 0.93765 0.0
O51 O 0.55883 0.80886 0.04611 0.0
O52 O 0.66535 0.84887 0.07364 0.0
C53 C 0.81372 0.7162 0.06209 0.0
O54 O 0.83772 0.78718 0.96914 0.0
O55 O 0.80261 0.82127 0.02947 0.0
C56 C 0.93596 0.65491 0.88692 0.0
C57 C 0.97987 0.66413 0.81345 0.0
C58 C 0.97259 0.70915 0.84225 0.0
C59 C 0.95034 0.70462 0.87849 0.0
C60 C 0.94353 0.60989 0.85845 0.0
C61 C 0.96511 0.61439 0.82206 0.0
C62 C 0.90839 0.64984 0.92457 0.0
C63 C 0.65106 0.65755 1.00518 0.0
C64 C 0.66727 0.76619 0.93944 0.0
C65 C 0.55563 0.83623 0.11181 0.0
C66 C 0.51181 0.82596 0.1848 0.0
C67 C 0.54185 0.78249 0.15881 0.0
C68 C 0.56364 0.78761 0.12269 0.0
C69 C 0.52464 0.87956 0.13733 0.0
C70 C 0.5026 0.87445 0.17355 0.0
C71 C 0.58636 0.84247 0.07511 0.0
H72 H 0.98472 0.74801 0.83691 0.0
H73 H 0.94398 0.74009 0.89986 0.0
H74 H 0.93162 0.57123 0.86426 0.0
H75 H 0.96888 0.57893 0.80055 0.0
H76 H 0.54855 0.74443 0.16637 0.0
H77 H 0.58802 0.75377 0.10341 0.0
H78 H 0.51909 0.91752 0.12949 0.0
H79 H 0.48034 0.90876 0.19302 0.0
Dy80 Dy 0.3405 0.7664 0.52389 0.0
Dy81 Dy 0.18777 0.7053 0.47353 0.0
C82 C 0.33898 0.64347 0.49461 0.0
O83 O 0.3528 0.78861 0.46802 0.0
O84 O 0.28838 0.71569 0.43422 0.0
O85 O 0.46164 0.76322 0.54703 0.0
O86 O 0.39428 0.83633 0.55821 0.0
O87 O 0.17475 0.79142 0.47631 0.0
O88 O 0.22989 0.81731 0.53451 0.0
O89 O 0.14514 0.71278 0.53286 0.0
O90 O 0.27008 0.72724 0.56299 0.0
O91 O 0.06258 0.70236 0.45367 0.0
O92 O 0.1467 0.63908 0.43179 0.0
C93 C 0.33521 0.7573 0.43587 0.0
O94 O 0.38168 0.68642 0.49498 0.0
O95 O 0.25883 0.64477 0.49505 0.0
C96 C 0.47175 0.81518 0.60762 0.0
C97 C 0.50023 0.82232 0.68489 0.0
C98 C 0.45014 0.78223 0.6647 0.0
C99 C 0.43605 0.77875 0.62651 0.0
C100 C 0.52085 0.8557 0.6276 0.0
C101 C 0.53514 0.85923 0.66596 0.0
C102 C 0.45729 0.81071 0.56723 0.0
C103 C 0.182 0.82622 0.50764 0.0
C104 C 0.19131 0.71641 0.56301 0.0
C105 C 0.05525 0.66457 0.38929 0.0
C106 C 0.01968 0.67061 0.31448 0.0
C107 C 0.0842 0.70032 0.33395 0.0
C108 C 0.10167 0.69739 0.37103 0.0
C109 C 0.99108 0.63479 0.37012 0.0
C110 C 0.9733 0.63782 0.33303 0.0
C111 C 0.0757 0.66033 0.42785 0.0
H112 H 0.42343 0.75262 0.67817 0.0
H113 H 0.39816 0.74703 0.61158 0.0
H114 H 0.54847 0.88436 0.61352 0.0
H115 H 0.57341 0.89084 0.68079 0.0
H116 H 0.12176 0.72545 0.32042 0.0
H117 H 0.15174 0.72053 0.38543 0.0
H118 H 0.95477 0.60921 0.3838 0.0
H119 H 0.92248 0.61503 0.31904 0.0
Dy120 Dy 0.80296 0.27437 0.55349 0.0
Dy121 Dy 0.6753 0.19352 0.49912 0.0
C122 C 0.83405 0.15024 0.53163 0.0
O123 O 0.82031 0.2912 0.49613 0.0
O124 O 0.78166 0.20929 0.46433 0.0
O125 O 0.92479 0.30095 0.57196 0.0
O126 O 0.81831 0.34023 0.59985 0.0
O127 O 0.64654 0.27451 0.49179 0.0
O128 O 0.68618 0.31759 0.54994 0.0
O129 O 0.62249 0.20464 0.5571 0.0
O130 O 0.74156 0.22744 0.59013 0.0
O131 O 0.55313 0.17322 0.47824 0.0
O132 O 0.65625 0.12492 0.45518 0.0
C133 C 0.81741 0.25492 0.46517 0.0
O134 O 0.86686 0.19729 0.53523 0.0
O135 O 0.75529 0.14236 0.52575 0.0
C136 C 0.92995 0.32969 0.63812 0.0
C137 C 0.9773 0.32056 0.71126 0.0
C138 C 0.97548 0.27606 0.68178 0.0
C139 C 0.95151 0.28051 0.64569 0.0
C140 C 0.93276 0.37428 0.6672 0.0
C141 C 0.95605 0.36981 0.70341 0.0
C142 C 0.89738 0.33425 0.60112 0.0
C143 C 0.64393 0.31582 0.51912 0.0
C144 C 0.66473 0.21223 0.58857 0.0
C145 C 0.55529 0.14117 0.41311 0.0
C146 C 0.51152 0.15169 0.33997 0.0
C147 C 0.55345 0.1924 0.36419 0.0
C148 C 0.57537 0.18708 0.4003 0.0
C149 C 0.51402 0.10027 0.38918 0.0
C150 C 0.49231 0.10544 0.35288 0.0
C151 C 0.57925 0.136 0.45113 0.0
H152 H 0.99264 0.23764 0.68653 0.0
H153 H 0.94874 0.24533 0.62383 0.0
H154 H 0.91508 0.41245 0.66208 0.0
H155 H 0.95546 0.40481 0.72542 0.0
H156 H 0.56826 0.22885 0.35551 0.0
H157 H 0.60778 0.21899 0.41832 0.0
H158 H 0.49879 0.06435 0.39851 0.0
H159 H 0.46114 0.07302 0.33484 0.0
C160 C 0.61261 0.56305 0.98701 0.0
C161 C 0.6011 0.61243 1.01032 0.0
C162 C 0.56573 0.51962 0.99183 0.0
C163 C 0.5081 0.52563 0.02142 0.0
C164 C 0.49729 0.57534 0.04543 0.0
C165 C 0.54317 0.61845 0.0392 0.0
C166 C 0.57736 0.46749 0.9651 0.0
C167 C 0.43812 0.58282 0.07792 0.0
C168 C 0.33633 0.42573 0.01395 0.0
C169 C 0.36879 0.38991 0.03411 0.0
C170 C 0.38098 0.4703 1.0097 0.0
C171 C 0.45875 0.47984 0.02698 0.0
C172 C 0.49051 0.44469 0.0485 0.0
C173 C 0.44558 0.39955 0.0513 0.0
C174 C 0.34613 0.50621 0.98577 0.0
C175 C 0.57224 0.45445 0.06817 0.0
H176 H 0.65731 0.55863 0.9646 0.0
H177 H 0.53525 0.65663 0.05753 0.0
H178 H 0.59827 0.43733 0.98065 0.0
H179 H 0.51808 0.45369 0.95162 0.0
H180 H 0.62279 0.46993 0.94282 0.0
H181 H 0.43922 0.62365 0.09473 0.0
H182 H 0.37487 0.57355 0.06747 0.0
H183 H 0.45331 0.55524 0.09656 0.0
H184 H 0.27722 0.4179 1.00031 0.0
H185 H 0.47031 0.37191 0.06709 0.0
H186 H 0.38786 0.50728 0.9619 0.0
H187 H 0.34144 0.54698 1.0023 0.0
H188 H 0.28451 0.49334 0.97448 0.0
H189 H 0.62197 0.45232 0.0472 0.0
H190 H 0.58529 0.4254 0.08601 0.0
H191 H 0.57382 0.49458 0.08598 0.0
C192 C 0.3378 0.54984 0.50177 0.0
C193 C 0.38169 0.59349 0.49502 0.0
C194 C 0.37809 0.50308 0.50443 0.0
C195 C 0.46412 0.49989 0.49991 0.0
C196 C 0.50851 0.54328 0.49208 0.0
C197 C 0.46675 0.58972 0.4899 0.0
C198 C 0.32891 0.45761 0.51303 0.0
C199 C 0.6003 0.54099 0.48672 0.0
C200 C 0.58206 0.40352 0.54505 0.0
C201 C 0.5956 0.36207 0.51443 0.0
C202 C 0.53836 0.44835 0.54075 0.0
C203 C 0.50823 0.45192 0.50492 0.0
C204 C 0.52118 0.4101 0.47393 0.0
C205 C 0.56446 0.3655 0.4791 0.0
C206 C 0.52493 0.49206 0.5745 0.0
C207 C 0.49039 0.41282 0.43526 0.0
H208 H 0.27204 0.55251 0.50584 0.0
H209 H 0.50096 0.62322 0.48445 0.0
H210 H 0.34017 0.42158 0.49141 0.0
H211 H 0.34869 0.44913 0.54034 0.0
H212 H 0.26205 0.46575 0.51429 0.0
H213 H 0.62504 0.57716 0.47885 0.0
H214 H 0.63058 0.53582 0.51301 0.0
H215 H 0.617 0.50658 0.46459 0.0
H216 H 0.60563 0.40099 0.57245 0.0
H217 H 0.57503 0.33368 0.45526 0.0
H218 H 0.45844 0.50002 0.57861 0.0
H219 H 0.55408 0.52885 0.56984 0.0
H220 H 0.55052 0.48252 0.60059 0.0
H221 H 0.42311 0.41895 0.43588 0.0
H222 H 0.50455 0.37654 0.41424 0.0
H223 H 0.51858 0.44693 0.42595 0.0
C224 C 0.03477 0.10834 0.02514 0.0
C225 C 0.11654 0.10919 0.01381 0.0
C226 C 0.99123 0.06085 0.02006 0.0
C227 C 0.03163 0.01315 1.00455 0.0
C228 C 0.11442 0.01388 0.99315 0.0
C229 C 0.15559 0.06216 0.99736 0.0
C230 C 0.90226 0.06169 0.03155 0.0
C231 C 0.16015 0.96363 0.97762 0.0
C232 C 0.93912 0.89281 0.03208 0.0
C233 C 0.89677 0.86994 0.99941 0.0
C234 C 0.98612 0.93834 0.03355 0.0
C235 C 0.98815 0.9624 1.00199 0.0
C236 C 0.94596 0.9391 0.96876 0.0
C237 C 0.90171 0.89242 0.96766 0.0
C238 C 0.03248 0.96113 0.06905 0.0
C239 C 0.94494 0.96451 0.93497 0.0
H240 H 0.00455 0.14494 0.0375 0.0
H241 H 0.21916 0.06301 0.98886 0.0
H242 H 0.86431 0.04048 1.00795 0.0
H243 H 0.89475 0.04104 0.05517 0.0
H244 H 0.87834 0.10239 0.04037 0.0
H245 H 0.22394 0.97116 0.96945 0.0
H246 H 0.16217 0.93858 0.99894 0.0
H247 H 0.12776 0.94088 0.95276 0.0
H248 H 0.93564 0.87492 0.05648 0.0
H249 H 0.86818 0.87473 0.94254 0.0
H250 H 0.00628 -9e-05 0.08216 0.0
H251 H 0.0976 0.96769 0.06251 0.0
H252 H 0.03009 0.93512 0.0898 0.0
H253 H 0.91568 0.00383 0.94248 0.0
H254 H 0.91101 0.94055 0.91099 0.0
H255 H 0.00837 0.97068 0.92586 0.0
C256 C 0.97283 0.10932 0.52981 0.0
C257 C 0.8875 0.10459 0.53234 0.0
C258 C 0.02379 0.06536 0.52763 0.0
C259 C 0.98847 0.01576 0.52839 0.0
C260 C 0.9027 0.01111 0.53233 0.0
C261 C 0.85316 0.05558 0.53407 0.0
C262 C 0.11506 0.07164 0.52325 0.0
C263 C 0.86306 0.9589 0.53374 0.0
C264 C 0.09968 0.89169 0.48201 0.0
C265 C 0.1347 0.87552 0.51293 0.0
C266 C 0.05322 0.9379 0.48664 0.0
C267 C 0.04062 0.96813 0.52313 0.0
C268 C 0.07615 0.95219 0.55446 0.0
C269 C 0.12335 0.90617 0.54895 0.0
C270 C 0.01708 0.95414 0.45252 0.0
C271 C 0.06306 0.9832 0.5938 0.0
H272 H -0.00019 0.14709 0.52846 0.0
H273 H 0.78731 0.05174 0.5364 0.0
H274 H 0.14853 0.056 0.54515 0.0
H275 H 0.13498 0.04852 0.49569 0.0
H276 H 0.13319 0.11338 0.52511 0.0
H277 H 0.79622 0.96267 0.53936 0.0
H278 H 0.87236 0.93105 0.50665 0.0
H279 H 0.89216 0.94133 0.55585 0.0
H280 H 0.10882 0.86831 0.45409 0.0
H281 H 0.15002 0.89365 0.57297 0.0
H282 H 0.03709 -0.00534 0.45133 0.0
H283 H 0.94923 0.95455 0.45439 0.0
H284 H 0.03523 0.92729 0.42601 0.0
H285 H 0.08387 0.02442 0.59596 0.0
H286 H 0.09631 0.96599 0.61507 0.0
H287 H 0.99675 0.98453 0.60061 0.0
C288 C 0.40956 0.1406 0.28716 0.0
C289 C 0.48657 0.1582 0.30178 0.0
C290 C 0.38345 0.14903 0.25211 0.0
C291 C 0.43526 0.17612 0.2312 0.0
C292 C 0.51374 0.19303 0.24538 0.0
C293 C 0.53854 0.18368 0.28038 0.0
C294 C 0.29948 0.13013 0.23788 0.0
C295 C 0.57078 0.22217 0.22404 0.0
C296 C 0.39037 0.16639 0.12739 0.0
C297 C 0.34622 0.21292 0.12778 0.0
C298 C 0.42 0.15392 0.16079 0.0
C299 C 0.40567 0.18896 0.19538 0.0
C300 C 0.36189 0.23617 0.19592 0.0
C301 C 0.33251 0.24747 0.1622 0.0
C302 C 0.46579 0.10297 0.15912 0.0
C303 C 0.34561 0.27472 0.23219 0.0
H304 H 0.3685 0.12147 0.3036 0.0
H305 H 0.59874 0.19662 0.29107 0.0
H306 H 0.26012 0.16439 0.23614 0.0
H307 H 0.30399 0.10568 0.20921 0.0
H308 H 0.26892 0.10667 0.25629 0.0
H309 H 0.63147 0.23004 0.2379 0.0
H310 H 0.58017 0.19924 0.19517 0.0
H311 H 0.54289 0.26031 0.22159 0.0
H312 H 0.40102 0.13931 0.10101 0.0
H313 H 0.29865 0.28356 0.16292 0.0
H314 H 0.43296 0.07815 0.17584 0.0
H315 H 0.52762 0.11109 0.17166 0.0
H316 H 0.47265 0.08024 0.12998 0.0
H317 H 0.30898 0.25543 0.25125 0.0
H318 H 0.31206 0.31018 0.22773 0.0
H319 H 0.40434 0.28744 0.2466 0.0
C320 C 0.54172 0.79159 0.24292 0.0
C321 C 0.49073 0.82048 0.22351 0.0
C322 C 0.52064 0.78363 0.27868 0.0
C323 C 0.44686 0.80519 0.29552 0.0
C324 C 0.3963 0.83571 0.27657 0.0
C325 C 0.41884 0.84297 0.24078 0.0
C326 C 0.57629 0.75095 0.29799 0.0
C327 C 0.31709 0.85929 0.2936 0.0
C328 C 0.3453 0.73643 0.366 0.0
C329 C 0.36663 0.76917 0.40029 0.0
C330 C 0.37111 0.74777 0.33183 0.0
C331 C 0.41987 0.79289 0.33179 0.0
C332 C 0.44226 0.82598 0.36623 0.0
C333 C 0.41531 0.81375 0.40012 0.0
C334 C 0.34561 0.71156 0.29572 0.0
C335 C 0.49398 0.87454 0.36724 0.0
H336 H 0.59818 0.77495 0.23004 0.0
H337 H 0.37886 0.86499 0.22583 0.0
H338 H 0.5927 0.7731 0.32639 0.0
H339 H 0.54378 0.71469 0.30154 0.0
H340 H 0.63359 0.7394 0.282 0.0
H341 H 0.28767 0.88499 0.27645 0.0
H342 H 0.27359 0.82738 0.29632 0.0
H343 H 0.32824 0.88275 0.32218 0.0
H344 H 0.30761 0.70192 0.36569 0.0
H345 H 0.43189 0.83936 0.42642 0.0
H346 H 0.40067 0.69567 0.27946 0.0
H347 H 0.30998 0.73382 0.27816 0.0
H348 H 0.30763 0.67803 0.30062 0.0
H349 H 0.55303 0.8636 0.35269 0.0
H350 H 0.50699 0.89582 0.39631 0.0
H351 H 0.46224 0.90177 0.35208 0.0
C352 C 0.60711 0.82941 0.90283 0.0
C353 C 0.63309 0.77837 0.90445 0.0
C354 C 0.58087 0.84171 0.86883 0.0
C355 C 0.58044 0.802 0.83582 0.0
C356 C 0.60454 0.75017 0.83753 0.0
C357 C 0.63058 0.73904 0.87174 0.0
C358 C 0.55568 0.89743 0.86802 0.0
C359 C 0.60461 0.70658 0.80301 0.0
C360 C 0.45725 0.81249 0.74924 0.0
C361 C 0.51871 0.82366 0.72506 0.0
C362 C 0.47572 0.80767 0.78603 0.0
C363 C 0.55757 0.81441 0.79902 0.0
C364 C 0.61917 0.82817 0.77536 0.0
C365 C 0.59902 0.83256 0.73866 0.0
C366 C 0.4083 0.79296 0.81036 0.0
C367 C 0.70725 0.83561 0.78814 0.0
H368 H 0.60907 0.86008 0.92792 0.0
H369 H 0.65015 0.69941 0.87264 0.0
H370 H 0.59867 0.91449 0.85011 0.0
H371 H 0.49375 0.8978 0.85548 0.0
H372 H 0.55515 0.92305 0.89642 0.0
H373 H 0.62211 0.66797 0.80939 0.0
H374 H 0.54299 0.70275 0.78984 0.0
H375 H 0.6483 0.71624 0.78208 0.0
H376 H 0.39478 0.80645 0.73913 0.0
H377 H 0.64702 0.84068 0.72008 0.0
H378 H 0.40803 0.82023 0.83807 0.0
H379 H 0.41947 0.75279 0.81542 0.0
H380 H 0.34685 0.79363 0.79731 0.0
H381 H 0.71097 0.86298 0.81577 0.0
H382 H 0.74605 0.85124 0.76784 0.0
H383 H 0.73298 0.79734 0.79165 0.0
C384 C 0.66151 0.22707 0.65819 0.0
C385 C 0.62653 0.20345 0.62366 0.0
C386 C 0.62874 0.21897 0.69206 0.0
C387 C 0.55971 0.18576 0.69157 0.0
C388 C 0.52366 0.16187 0.65685 0.0
C389 C 0.55714 0.17138 0.62322 0.0
C390 C 0.66846 0.24591 0.72842 0.0
C391 C 0.45085 0.12556 0.65525 0.0
C392 C 0.54251 0.13445 0.78156 0.0
C393 C 0.48695 0.1702 0.80228 0.0
C394 C 0.56232 0.13664 0.7444 0.0
C395 C 0.52687 0.17608 0.7277 0.0
C396 C 0.46755 0.21044 0.74769 0.0
C397 C 0.44786 0.2068 0.78457 0.0
C398 C 0.62485 0.09866 0.72382 0.0
C399 C 0.42849 0.25321 0.73103 0.0
H400 H 0.71465 0.25237 0.65883 0.0
H401 H 0.53011 0.15285 0.59661 0.0
H402 H 0.62256 0.27009 0.7467 0.0
H403 H 0.69178 0.21604 0.74371 0.0
H404 H 0.72031 0.27173 0.72394 0.0
H405 H 0.42867 0.11113 0.62613 0.0
H406 H 0.46762 0.09114 0.66745 0.0
H407 H 0.39982 0.14605 0.67229 0.0
H408 H 0.57358 0.10619 0.79486 0.0
H409 H 0.40327 0.23373 0.79988 0.0
H410 H 0.6831 0.11987 0.72153 0.0
H411 H 0.60357 0.08192 0.69492 0.0
H412 H 0.63755 0.06583 0.7384 0.0
H413 H 0.47508 0.28365 0.72885 0.0
H414 H 0.37671 0.27248 0.7483 0.0
H415 H 0.40576 0.23709 0.7023 0.0
C416 C 0.79947 0.70543 0.12833 0.0
C417 C 0.84976 0.70448 0.09692 0.0
C418 C 0.83187 0.6978 0.16243 0.0
C419 C 0.91689 0.6889 0.16541 0.0
C420 C 0.96799 0.6868 0.1337 0.0
C421 C 0.93377 0.69457 0.09975 0.0
C422 C 0.77505 0.7003 0.1955 0.0
C423 C 0.05897 0.67747 0.1359 0.0
C424 C -0.00058 0.7238 0.26483 0.0
C425 C -0.00042 0.67464 0.2753 0.0
C426 C 0.97594 0.72868 0.22861 0.0
C427 C 0.95179 0.68334 0.20219 0.0
C428 C 0.95442 0.63337 0.21215 0.0
C429 C 0.97826 0.62963 0.24857 0.0
C430 C 0.97388 0.78269 0.21912 0.0
C431 C 0.92942 0.58408 0.18474 0.0
H432 H 0.73437 0.71276 0.12652 0.0
H433 H 0.97309 0.69387 0.0757 0.0
H434 H 0.7797 0.66353 0.20647 0.0
H435 H 0.79332 0.7333 0.21848 0.0
H436 H 0.71002 0.706 0.18818 0.0
H437 H 0.08965 0.67452 0.10835 0.0
H438 H 0.08747 0.7102 0.15627 0.0
H439 H 0.07056 0.64072 0.14619 0.0
H440 H 0.01505 0.75885 0.28536 0.0
H441 H 0.97967 0.59139 0.25623 0.0
H442 H 0.90952 0.79377 0.21468 0.0
H443 H 0.00751 0.78254 0.19266 0.0
H444 H 0.00111 0.81328 0.24164 0.0
H445 H 0.8631 0.58581 0.17837 0.0
H446 H 0.94117 0.54788 0.19578 0.0
H447 H 0.96299 0.58117 0.15793 0.0
C448 C 0.86453 0.22414 0.39917 0.0
C449 C 0.85043 0.26585 0.42963 0.0
C450 C 0.88906 0.23349 0.36421 0.0
C451 C 0.89882 0.2859 0.35934 0.0
C452 C 0.88612 0.32822 0.39013 0.0
C453 C 0.86257 0.31768 0.42501 0.0
C454 C 0.90302 0.18722 0.33228 0.0
C455 C 0.89513 0.38464 0.38592 0.0
C456 C 0.02275 0.3071 0.27525 0.0
C457 C 0.96105 0.31052 0.24898 0.0
C458 C 0.0034 0.29992 0.31144 0.0
C459 C 0.92029 0.29617 0.32171 0.0
C460 C 0.85763 0.30015 0.29548 0.0
C461 C 0.87878 0.30718 0.25943 0.0
C462 C 0.07199 0.29522 0.33842 0.0
C463 C 0.76822 0.29635 0.30532 0.0
H464 H 0.85565 0.18394 0.40253 0.0
H465 H 0.85108 0.35011 0.44831 0.0
H466 H 0.85801 0.18819 0.30959 0.0
H467 H 0.96501 0.18959 0.32025 0.0
H468 H 0.89705 0.1489 0.3412 0.0
H469 H 0.88557 0.41302 0.41281 0.0
H470 H 0.95701 0.39117 0.37512 0.0
H471 H 0.84998 0.39315 0.36514 0.0
H472 H 0.08648 0.30885 0.26723 0.0
H473 H 0.83075 0.31036 0.23945 0.0
H474 H 0.06982 0.2559 0.34597 0.0
H475 H 0.06437 0.32499 0.36472 0.0
H476 H 0.13332 0.30057 0.3265 0.0
H477 H 0.75493 0.25666 0.31084 0.0
H478 H 0.72694 0.30341 0.28259 0.0
H479 H 0.75374 0.32534 0.33132 0.0
C480 C 0.04845 0.35432 0.77285 0.0
C481 C 0.00076 0.31544 0.74999 0.0
C482 C 0.07276 0.3492 0.80895 0.0
C483 C 0.04989 0.30376 0.82245 0.0
C484 C 0.00066 0.2648 0.79985 0.0
C485 C 0.97623 0.27128 0.76409 0.0
C486 C 0.12455 0.39191 0.83232 0.0
C487 C 0.9755 0.21556 0.81307 0.0
C488 C 0.18829 0.2631 0.89545 0.0
C489 C 0.14338 0.27943 0.92863 0.0
C490 C 0.15817 0.27039 0.86082 0.0
C491 C 0.08165 0.29544 0.8592 0.0
C492 C 0.03601 0.31229 0.89256 0.0
C493 C 0.06712 0.30369 0.92687 0.0
C494 C 0.20848 0.25117 0.82594 0.0
C495 C 0.95468 0.33977 0.89202 0.0
H496 H 0.06854 0.38834 0.76222 0.0
H497 H 0.93787 0.24156 0.7471 0.0
H498 H 0.09703 0.40489 0.86051 0.0
H499 H 0.18642 0.37628 0.83636 0.0
H500 H 0.13137 0.42669 0.81911 0.0
H501 H 0.93461 0.18994 0.79273 0.0
H502 H 0.03081 0.1927 0.81744 0.0
H503 H 0.94346 0.22602 0.84039 0.0
H504 H 0.24704 0.24395 0.8964 0.0
H505 H 0.03224 0.31661 0.95237 0.0
H506 H 0.22773 0.28508 0.81368 0.0
H507 H 0.17115 0.22478 0.8045 0.0
H508 H 0.26417 0.22954 0.83172 0.0
H509 H 0.96272 0.37594 0.88053 0.0
H510 H 0.92704 0.3508 0.92037 0.0
H511 H 0.91114 0.31394 0.87334 0.0
C512 C 0.19417 0.72813 0.63268 0.0
C513 C 0.15451 0.70815 0.59855 0.0
C514 C 0.16182 0.72045 0.66679 0.0
C515 C 0.0883 0.69148 0.66688 0.0
C516 C 0.04763 0.67131 0.63257 0.0
C517 C 0.08092 0.68026 0.59878 0.0
C518 C 0.20665 0.74329 0.70275 0.0
C519 C 0.96968 0.63966 0.63152 0.0
C520 C 0.05687 0.63273 0.75329 0.0
C521 C 0.00347 0.6692 0.77478 0.0
C522 C 0.08246 0.63841 0.71753 0.0
C523 C 0.05498 0.68203 0.70301 0.0
C524 C -0.00029 0.71836 0.72413 0.0
C525 C 0.97421 0.71131 0.75959 0.0
C526 C 0.14079 0.5985 0.69571 0.0
C527 C 0.96936 0.76558 0.70977 0.0
H528 H 0.25045 0.75037 0.63285 0.0
H529 H 0.05012 0.66457 0.57251 0.0
H530 H 0.16493 0.7689 0.72249 0.0
H531 H 0.22707 0.71114 0.71656 0.0
H532 H 0.26116 0.76675 0.69795 0.0
H533 H 0.94515 0.62712 0.60263 0.0
H534 H 0.98117 0.60409 0.64329 0.0
H535 H 0.92218 0.66312 0.64922 0.0
H536 H 0.08062 0.60037 0.76481 0.0
H537 H 0.93154 0.73909 0.77553 0.0
H538 H 0.2008 0.61745 0.69289 0.0
H539 H 0.1169 0.58359 0.66699 0.0
H540 H 0.15087 0.56452 0.70946 0.0
H541 H 0.02176 0.79174 0.70682 0.0
H542 H 0.92335 0.78867 0.72874 0.0
H543 H 0.94152 0.75294 0.68159 0.0
loop_
_geom_bond_atom_site_label_1
_geom_bond_atom_site_label_2
_geom_bond_distance
_geom_bond_site_symmetry_2
_ccdc_geom_bond_type
Dy0 O3 2.307 1_556 S
Dy0 O5 2.395 . S
Dy0 O6 2.379 . S
Dy0 O8 2.339 . S
Dy0 O10 2.298 . S
Dy0 O14 2.275 . S
Dy0 C22 2.738 . S
Dy1 O4 2.298 . S
Dy1 O7 2.275 . S
Dy1 O9 2.307 1_554 S
Dy1 O11 2.395 . S
Dy1 O12 2.379 . S
Dy1 O15 2.339 . S
Dy1 C31 2.738 . S
C2 O14 1.254 1_554 S
C2 O15 1.257 . S
O3 Dy0 2.307 1_554 S
O3 C13 1.266 . S
O4 Dy1 2.298 . S
O4 C13 1.236 . S
O5 Dy0 2.395 . S
O5 C22 1.255 . S
O6 Dy0 2.379 . S
O6 C22 1.249 . S
O7 Dy1 2.275 . S
O7 C23 1.254 1_554 S
O8 Dy0 2.339 . S
O8 C23 1.257 . S
O9 Dy1 2.307 1_556 S
O9 C24 1.266 . S
O10 Dy0 2.298 . S
O10 C24 1.236 . S
O11 Dy1 2.395 . S
O11 C31 1.255 . S
O12 Dy1 2.379 . S
O12 C31 1.249 . S
C13 O3 1.266 . S
C13 O4 1.236 . S
O14 Dy0 2.275 . S
O14 C2 1.254 1_556 S
O15 Dy1 2.339 . S
O15 C2 1.257 . S
C16 C19 1.344 . S
C16 C20 1.328 . S
C16 C22 1.516 . S
C17 C18 1.304 . S
C17 C21 1.323 . S
C18 C17 1.304 . S
C18 C19 1.371 . S
C18 H32 0.930 . S
C19 C16 1.344 . S
C19 C18 1.371 . S
C19 H33 0.931 . S
C20 C16 1.328 . S
C20 C21 1.433 . S
C20 H34 0.931 . S
C21 C17 1.323 . S
C21 C20 1.433 . S
C21 H35 0.933 . S
C22 Dy0 2.738 . S
C22 O5 1.255 . S
C22 O6 1.249 . S
C22 C16 1.516 . S
C23 O7 1.254 1_556 S
C23 O8 1.257 . S
C24 O9 1.266 . S
C24 O10 1.236 . S
C25 C28 1.344 . S
C25 C29 1.328 . S
C25 C31 1.516 . S
C26 C27 1.304 1_655 S
C26 C30 1.323 1_655 S
C27 C26 1.304 1_455 S
C27 C28 1.371 . S
C27 H36 0.930 . S
C28 C25 1.344 . S
C28 C27 1.371 . S
C28 H37 0.931 . S
C29 C25 1.328 . S
C29 C30 1.433 . S
C29 H38 0.931 . S
C30 C26 1.323 1_455 S
C30 C29 1.433 . S
C30 H39 0.933 1_455 S
C31 Dy1 2.738 . S
C31 O11 1.255 . S
C31 O12 1.249 . S
C31 C25 1.516 . S
H32 C18 0.930 . S
H33 C19 0.931 . S
H34 C20 0.931 . S
H35 C21 0.933 . S
H36 C27 0.930 . S
H37 C28 0.931 . S
H38 C29 0.931 . S
H39 C30 0.933 1_655 S
Dy40 O43 2.307 1_556 S
Dy40 O45 2.395 . S
Dy40 O46 2.379 . S
Dy40 O48 2.339 . S
Dy40 O50 2.298 . S
Dy40 O54 2.275 . S
Dy40 C62 2.738 . S
Dy41 O44 2.298 . S
Dy41 O47 2.275 . S
Dy41 O49 2.307 1_554 S
Dy41 O51 2.395 . S
Dy41 O52 2.379 . S
Dy41 O55 2.339 . S
Dy41 C71 2.738 . S
C42 O54 1.254 1_554 S
C42 O55 1.257 . S
O43 Dy40 2.307 1_554 S
O43 C53 1.266 . S
O44 Dy41 2.298 . S
O44 C53 1.236 . S
O45 Dy40 2.395 . S
O45 C62 1.255 . S
O46 Dy40 2.379 . S
O46 C62 1.249 . S
O47 Dy41 2.275 . S
O47 C63 1.254 1_554 S
O48 Dy40 2.339 . S
O48 C63 1.257 . S
O49 Dy41 2.307 1_556 S
O49 C64 1.266 . S
O50 Dy40 2.298 . S
O50 C64 1.236 . S
O51 Dy41 2.395 . S
O51 C71 1.255 . S
O52 Dy41 2.379 . S
O52 C71 1.249 . S
C53 O43 1.266 . S
C53 O44 1.236 . S
O54 Dy40 2.275 . S
O54 C42 1.254 1_556 S
O55 Dy41 2.339 . S
O55 C42 1.257 . S
C56 C59 1.344 . S
C56 C60 1.328 . S
C56 C62 1.516 . S
C57 C58 1.304 1_455 S
C57 C61 1.323 1_455 S
C58 C57 1.304 1_655 S
C58 C59 1.371 . S
C58 H72 0.930 . S
C59 C56 1.344 . S
C59 C58 1.371 . S
C59 H73 0.931 . S
C60 C56 1.328 . S
C60 C61 1.433 . S
C60 H74 0.931 . S
C61 C57 1.323 1_655 S
C61 C60 1.433 . S
C61 H75 0.933 1_655 S
C62 Dy40 2.738 . S
C62 O45 1.255 . S
C62 O46 1.249 . S
C62 C56 1.516 . S
C63 O47 1.254 1_556 S
C63 O48 1.257 . S
C64 O49 1.266 . S
C64 O50 1.236 . S
C65 C68 1.344 . S
C65 C69 1.328 . S
C65 C71 1.516 . S
C66 C67 1.304 . S
C66 C70 1.323 . S
C67 C66 1.304 . S
C67 C68 1.371 . S
C67 H76 0.930 . S
C68 C65 1.344 . S
C68 C67 1.371 . S
C68 H77 0.931 . S
C69 C65 1.328 . S
C69 C70 1.433 . S
C69 H78 0.931 . S
C70 C66 1.323 . S
C70 C69 1.433 . S
C70 H79 0.933 . S
C71 Dy41 2.738 . S
C71 O51 1.255 . S
C71 O52 1.249 . S
C71 C65 1.516 . S
H72 C58 0.930 . S
H73 C59 0.931 . S
H74 C60 0.931 . S
H75 C61 0.933 1_455 S
H76 C67 0.930 . S
H77 C68 0.931 . S
H78 C69 0.931 . S
H79 C70 0.933 . S
Dy80 O83 2.307 . S
Dy80 O85 2.395 . S
Dy80 O86 2.379 . S
Dy80 O88 2.339 . S
Dy80 O90 2.298 . S
Dy80 O94 2.275 . S
Dy80 C102 2.738 . S
Dy81 O84 2.298 . S
Dy81 O87 2.275 . S
Dy81 O89 2.307 . S
Dy81 O91 2.395 . S
Dy81 O92 2.379 . S
Dy81 O95 2.339 . S
Dy81 C111 2.738 . S
C82 O94 1.254 . S
C82 O95 1.257 . S
O83 Dy80 2.307 . S
O83 C93 1.266 . S
O84 Dy81 2.298 . S
O84 C93 1.236 . S
O85 Dy80 2.395 . S
O85 C102 1.255 . S
O86 Dy80 2.379 . S
O86 C102 1.249 . S
O87 Dy81 2.275 . S
O87 C103 1.254 . S
O88 Dy80 2.339 . S
O88 C103 1.257 . S
O89 Dy81 2.307 . S
O89 C104 1.266 . S
O90 Dy80 2.298 . S
O90 C104 1.236 . S
O91 Dy81 2.395 . S
O91 C111 1.255 . S
O92 Dy81 2.379 . S
O92 C111 1.249 . S
C93 O83 1.266 . S
C93 O84 1.236 . S
O94 Dy80 2.275 . S
O94 C82 1.254 . S
O95 Dy81 2.339 . S
O95 C82 1.257 . S
C96 C99 1.344 . S
C96 C100 1.328 . S
C96 C102 1.516 . S
C97 C98 1.304 . S
C97 C101 1.323 . S
C98 C97 1.304 . S
C98 C99 1.371 . S
C98 H112 0.930 . S
C99 C96 1.344 . S
C99 C98 1.371 . S
C99 H113 0.931 . S
C100 C96 1.328 . S
C100 C101 1.433 . S
C100 H114 0.931 . S
C101 C97 1.323 . S
C101 C100 1.433 . S
C101 H115 0.933 . S
C102 Dy80 2.738 . S
C102 O85 1.255 . S
C102 O86 1.249 . S
C102 C96 1.516 . S
C103 O87 1.254 . S
C103 O88 1.257 . S
C104 O89 1.266 . S
C104 O90 1.236 . S
C105 C108 1.344 . S
C105 C109 1.328 . S
C105 C111 1.516 . S
C106 C107 1.304 1_655 S
C106 C110 1.323 1_655 S
C107 C106 1.304 1_455 S
C107 C108 1.371 . S
C107 H116 0.930 . S
C108 C105 1.344 . S
C108 C107 1.371 . S
C108 H117 0.931 . S
C109 C105 1.328 . S
C109 C110 1.433 . S
C109 H118 0.931 . S
C110 C106 1.323 1_455 S
C110 C109 1.433 . S
C110 H119 0.933 1_455 S
C111 Dy81 2.738 . S
C111 O91 1.255 . S
C111 O92 1.249 . S
C111 C105 1.516 . S
H112 C98 0.930 . S
H113 C99 0.931 . S
H114 C100 0.931 . S
H115 C101 0.933 . S
H116 C107 0.930 . S
H117 C108 0.931 . S
H118 C109 0.931 . S
H119 C110 0.933 1_655 S
Dy120 O123 2.307 . S
Dy120 O125 2.395 . S
Dy120 O126 2.379 . S
Dy120 O128 2.339 . S
Dy120 O130 2.298 . S
Dy120 O134 2.275 . S
Dy120 C142 2.738 . S
Dy121 O124 2.298 . S
Dy121 O127 2.275 . S
Dy121 O129 2.307 . S
Dy121 O131 2.395 . S
Dy121 O132 2.379 . S
Dy121 O135 2.339 . S
Dy121 C151 2.738 . S
C122 O134 1.254 . S
C122 O135 1.257 . S
O123 Dy120 2.307 . S
O123 C133 1.266 . S
O124 Dy121 2.298 . S
O124 C133 1.236 . S
O125 Dy120 2.395 . S
O125 C142 1.255 . S
O126 Dy120 2.379 . S
O126 C142 1.249 . S
O127 Dy121 2.275 . S
O127 C143 1.254 . S
O128 Dy120 2.339 . S
O128 C143 1.257 . S
O129 Dy121 2.307 . S
O129 C144 1.266 . S
O130 Dy120 2.298 . S
O130 C144 1.236 . S
O131 Dy121 2.395 . S
O131 C151 1.255 . S
O132 Dy121 2.379 . S
O132 C151 1.249 . S
C133 O123 1.266 . S
C133 O124 1.236 . S
O134 Dy120 2.275 . S
O134 C122 1.254 . S
O135 Dy121 2.339 . S
O135 C122 1.257 . S
C136 C139 1.344 . S
C136 C140 1.328 . S
C136 C142 1.516 . S
C137 C138 1.304 1_455 S
C137 C141 1.323 1_455 S
C138 C137 1.304 1_655 S
C138 C139 1.371 . S
C138 H152 0.930 . S
C139 C136 1.344 . S
C139 C138 1.371 . S
C139 H153 0.931 . S
C140 C136 1.328 . S
C140 C141 1.433 . S
C140 H154 0.931 . S
C141 C137 1.323 1_655 S
C141 C140 1.433 . S
C141 H155 0.933 1_655 S
C142 Dy120 2.738 . S
C142 O125 1.255 . S
C142 O126 1.249 . S
C142 C136 1.516 . S
C143 O127 1.254 . S
C143 O128 1.257 . S
C144 O129 1.266 . S
C144 O130 1.236 . S
C145 C148 1.344 . S
C145 C149 1.328 . S
C145 C151 1.516 . S
C146 C147 1.304 . S
C146 C150 1.323 . S
C147 C146 1.304 . S
C147 C148 1.371 . S
C147 H156 0.930 . S
C148 C145 1.344 . S
C148 C147 1.371 . S
C148 H157 0.931 . S
C149 C145 1.328 . S
C149 C150 1.433 . S
C149 H158 0.931 . S
C150 C146 1.323 . S
C150 C149 1.433 . S
C150 H159 0.933 . S
C151 Dy121 2.738 . S
C151 O131 1.255 . S
C151 O132 1.249 . S
C151 C145 1.516 . S
H152 C138 0.930 . S
H153 C139 0.931 . S
H154 C140 0.931 . S
H155 C141 0.933 1_455 S
H156 C147 0.930 . S
H157 C148 0.931 . S
H158 C149 0.931 . S
H159 C150 0.933 . S
C160 C161 1.391 1_556 S
C160 C162 1.394 . S
C160 H176 0.931 . S
C161 C160 1.391 1_554 S
C161 C165 1.376 . S
C162 C160 1.394 . S
C162 C163 1.369 1_556 S
C162 C166 1.531 . S
C163 C162 1.369 1_554 S
C163 C164 1.410 . S
C163 C171 1.503 . S
C164 C163 1.410 . S
C164 C165 1.392 . S
C164 C167 1.511 . S
C165 C161 1.376 . S
C165 C164 1.392 . S
C165 H177 0.929 . S
C166 C162 1.531 . S
C166 H178 0.960 . S
C166 H179 0.962 . S
C166 H180 0.960 . S
C167 C164 1.511 . S
C167 H181 0.961 . S
C167 H182 0.961 . S
C167 H183 0.961 . S
C168 C169 1.370 1_556 S
C168 C170 1.363 . S
C168 H184 0.931 . S
C169 C168 1.370 1_554 S
C169 C173 1.408 . S
C170 C168 1.363 . S
C170 C171 1.370 1_556 S
C170 C174 1.524 . S
C171 C163 1.503 . S
C171 C170 1.370 1_554 S
C171 C172 1.403 . S
C172 C171 1.403 . S
C172 C173 1.404 . S
C172 C175 1.539 . S
C173 C169 1.408 . S
C173 C172 1.404 . S
C173 H185 0.930 . S
C174 C170 1.524 . S
C174 H186 0.956 . S
C174 H187 0.961 . S
C174 H188 0.961 . S
C175 C172 1.539 . S
C175 H189 0.958 . S
C175 H190 0.961 . S
C175 H191 0.960 . S
H176 C160 0.931 . S
H177 C165 0.929 . S
H178 C166 0.960 . S
H179 C166 0.962 . S
H180 C166 0.960 . S
H181 C167 0.961 . S
H182 C167 0.961 . S
H183 C167 0.961 . S
H184 C168 0.931 . S
H185 C173 0.930 . S
H186 C174 0.956 . S
H187 C174 0.961 . S
H188 C174 0.961 . S
H189 C175 0.958 . S
H190 C175 0.961 . S
H191 C175 0.960 . S
C192 C193 1.391 . S
C192 C194 1.394 . S
C192 H208 0.931 . S
C193 C192 1.391 . S
C193 C197 1.376 . S
C194 C192 1.394 . S
C194 C195 1.369 . S
C194 C198 1.531 . S
C195 C194 1.369 . S
C195 C196 1.410 . S
C195 C203 1.503 . S
C196 C195 1.410 . S
C196 C197 1.392 . S
C196 C199 1.511 . S
C197 C193 1.376 . S
C197 C196 1.392 . S
C197 H209 0.929 . S
C198 C194 1.531 . S
C198 H210 0.960 . S
C198 H211 0.962 . S
C198 H212 0.960 . S
C199 C196 1.511 . S
C199 H213 0.961 . S
C199 H214 0.961 . S
C199 H215 0.961 . S
C200 C201 1.370 . S
C200 C202 1.363 . S
C200 H216 0.931 . S
C201 C200 1.370 . S
C201 C205 1.408 . S
C202 C200 1.363 . S
C202 C203 1.370 . S
C202 C206 1.524 . S
C203 C195 1.503 . S
C203 C202 1.370 . S
C203 C204 1.403 . S
C204 C203 1.403 . S
C204 C205 1.404 . S
C204 C207 1.539 . S
C205 C201 1.408 . S
C205 C204 1.404 . S
C205 H217 0.930 . S
C206 C202 1.524 . S
C206 H218 0.956 . S
C206 H219 0.961 . S
C206 H220 0.961 . S
C207 C204 1.539 . S
C207 H221 0.958 . S
C207 H222 0.961 . S
C207 H223 0.960 . S
H208 C192 0.931 . S
H209 C197 0.929 . S
H210 C198 0.960 . S
H211 C198 0.962 . S
H212 C198 0.960 . S
H213 C199 0.961 . S
H214 C199 0.961 . S
H215 C199 0.961 . S
H216 C200 0.931 . S
H217 C205 0.930 . S
H218 C206 0.956 . S
H219 C206 0.961 . S
H220 C206 0.961 . S
H221 C207 0.958 . S
H222 C207 0.961 . S
H223 C207 0.960 . S
C224 C225 1.391 . S
C224 C226 1.394 . S
C224 H240 0.931 . S
C225 C224 1.391 . S
C225 C229 1.376 1_556 S
C226 C224 1.394 . S
C226 C227 1.369 . S
C226 C230 1.531 1_455 S
C227 C226 1.369 . S
C227 C228 1.407 1_556 S
C227 C235 1.503 1_445 S
C228 C227 1.407 1_554 S
C228 C229 1.391 . S
C228 C231 1.515 1_545 S
C229 C225 1.376 1_554 S
C229 C228 1.391 . S
C229 H241 0.929 . S
C230 C226 1.531 1_655 S
C230 H242 0.960 . S
C230 H243 0.962 . S
C230 H244 0.960 . S
C231 C228 1.515 1_565 S
C231 H245 0.961 . S
C231 H246 0.961 . S
C231 H247 0.961 1_554 S
C232 C233 1.370 1_554 S
C232 C234 1.363 . S
C232 H248 0.931 . S
C233 C232 1.370 1_556 S
C233 C237 1.408 . S
C234 C232 1.363 . S
C234 C235 1.370 1_554 S
C234 C238 1.524 1_565 S
C235 C227 1.503 1_665 S
C235 C234 1.370 1_556 S
C235 C236 1.403 . S
C236 C235 1.403 . S
C236 C237 1.404 . S
C236 C239 1.534 1_655 S
C237 C233 1.408 . S
C237 C236 1.404 . S
C237 H249 0.930 . S
C238 C234 1.524 1_545 S
C238 H250 0.956 . S
C238 H251 0.961 1_655 S
C238 H252 0.961 . S
C239 C236 1.534 1_455 S
C239 H253 0.952 1_455 S
C239 H254 0.963 . S
C239 H255 0.969 . S
H240 C224 0.931 . S
H241 C229 0.929 . S
H242 C230 0.960 . S
H243 C230 0.962 . S
H244 C230 0.960 . S
H245 C231 0.961 . S
H246 C231 0.961 . S
H247 C231 0.961 1_556 S
H248 C232 0.931 . S
H249 C237 0.930 . S
H250 C238 0.956 . S
H251 C238 0.961 1_455 S
H252 C238 0.961 . S
H253 C239 0.952 1_655 S
H254 C239 0.963 . S
H255 C239 0.969 . S
C256 C257 1.391 . S
C256 C258 1.394 . S
C256 H272 0.931 . S
C257 C256 1.391 . S
C257 C261 1.376 . S
C258 C256 1.394 . S
C258 C259 1.369 . S
C258 C262 1.531 1_655 S
C259 C258 1.369 . S
C259 C260 1.410 . S
C259 C267 1.503 1_645 S
C260 C259 1.410 . S
C260 C261 1.392 . S
C260 C263 1.511 1_545 S
C261 C257 1.376 . S
C261 C260 1.392 . S
C261 H273 0.929 . S
C262 C258 1.531 1_455 S
C262 H274 0.960 . S
C262 H275 0.962 . S
C262 H276 0.960 . S
C263 C260 1.511 1_565 S
C263 H277 0.961 . S
C263 H278 0.961 . S
C263 H279 0.961 . S
C264 C265 1.370 . S
C264 C266 1.363 . S
C264 H280 0.931 . S
C265 C264 1.370 . S
C265 C269 1.408 . S
C266 C264 1.363 . S
C266 C267 1.370 . S
C266 C270 1.524 . S
C267 C259 1.503 1_465 S
C267 C266 1.370 . S
C267 C268 1.403 . S
C268 C267 1.403 . S
C268 C269 1.404 . S
C268 C271 1.539 1_455 S
C269 C265 1.408 . S
C269 C268 1.404 . S
C269 H281 0.930 . S
C270 C266 1.524 . S
C270 H282 0.956 1_565 S
C270 H283 0.961 . S
C270 H284 0.961 . S
C271 C268 1.539 1_655 S
C271 H285 0.958 . S
C271 H286 0.961 . S
C271 H287 0.960 . S
H272 C256 0.931 . S
H273 C261 0.929 . S
H274 C262 0.960 . S
H275 C262 0.962 . S
H276 C262 0.960 . S
H277 C263 0.961 . S
H278 C263 0.961 . S
H279 C263 0.961 . S
H280 C264 0.931 . S
H281 C269 0.930 . S
H282 C270 0.956 1_545 S
H283 C270 0.961 . S
H284 C270 0.961 . S
H285 C271 0.958 . S
H286 C271 0.961 . S
H287 C271 0.960 . S
C288 C289 1.391 . S
C288 C290 1.394 . S
C288 H304 0.931 . S
C289 C288 1.391 . S
C289 C293 1.376 . S
C290 C288 1.394 . S
C290 C291 1.369 . S
C290 C294 1.531 . S
C291 C290 1.369 . S
C291 C292 1.410 . S
C291 C299 1.503 . S
C292 C291 1.410 . S
C292 C293 1.392 . S
C292 C295 1.511 . S
C293 C289 1.376 . S
C293 C292 1.392 . S
C293 H305 0.929 . S
C294 C290 1.531 . S
C294 H306 0.960 . S
C294 H307 0.962 . S
C294 H308 0.960 . S
C295 C292 1.511 . S
C295 H309 0.961 . S
C295 H310 0.961 . S
C295 H311 0.961 . S
C296 C297 1.370 . S
C296 C298 1.363 . S
C296 H312 0.931 . S
C297 C296 1.370 . S
C297 C301 1.408 . S
C298 C296 1.363 . S
C298 C299 1.370 . S
C298 C302 1.524 . S
C299 C291 1.503 . S
C299 C298 1.370 . S
C299 C300 1.403 . S
C300 C299 1.403 . S
C300 C301 1.404 . S
C300 C303 1.539 . S
C301 C297 1.408 . S
C301 C300 1.404 . S
C301 H313 0.930 . S
C302 C298 1.524 . S
C302 H314 0.956 . S
C302 H315 0.961 . S
C302 H316 0.961 . S
C303 C300 1.539 . S
C303 H317 0.958 . S
C303 H318 0.961 . S
C303 H319 0.960 . S
H304 C288 0.931 . S
H305 C293 0.929 . S
H306 C294 0.960 . S
H307 C294 0.962 . S
H308 C294 0.960 . S
H309 C295 0.961 . S
H310 C295 0.961 . S
H311 C295 0.961 . S
H312 C296 0.931 . S
H313 C301 0.930 . S
H314 C302 0.956 . S
H315 C302 0.961 . S
H316 C302 0.961 . S
H317 C303 0.958 . S
H318 C303 0.961 . S
H319 C303 0.960 . S
C320 C321 1.391 . S
C320 C322 1.394 . S
C320 H336 0.931 . S
C321 C320 1.391 . S
C321 C325 1.376 . S
C322 C320 1.394 . S
C322 C323 1.369 . S
C322 C326 1.531 . S
C323 C322 1.369 . S
C323 C324 1.410 . S
C323 C331 1.503 . S
C324 C323 1.410 . S
C324 C325 1.392 . S
C324 C327 1.511 . S
C325 C321 1.376 . S
C325 C324 1.392 . S
C325 H337 0.929 . S
C326 C322 1.531 . S
C326 H338 0.960 . S
C326 H339 0.962 . S
C326 H340 0.960 . S
C327 C324 1.511 . S
C327 H341 0.961 . S
C327 H342 0.961 . S
C327 H343 0.961 . S
C328 C329 1.370 . S
C328 C330 1.363 . S
C328 H344 0.931 . S
C329 C328 1.370 . S
C329 C333 1.408 . S
C330 C328 1.363 . S
C330 C331 1.370 . S
C330 C334 1.524 . S
C331 C323 1.503 . S
C331 C330 1.370 . S
C331 C332 1.403 . S
C332 C331 1.403 . S
C332 C333 1.404 . S
C332 C335 1.539 . S
C333 C329 1.408 . S
C333 C332 1.404 . S
C333 H345 0.930 . S
C334 C330 1.524 . S
C334 H346 0.956 . S
C334 H347 0.961 . S
C334 H348 0.961 . S
C335 C332 1.539 . S
C335 H349 0.958 . S
C335 H350 0.961 . S
C335 H351 0.960 . S
H336 C320 0.931 . S
H337 C325 0.929 . S
H338 C326 0.960 . S
H339 C326 0.962 . S
H340 C326 0.960 . S
H341 C327 0.961 . S
H342 C327 0.961 . S
H343 C327 0.961 . S
H344 C328 0.931 . S
H345 C333 0.930 . S
H346 C334 0.956 . S
H347 C334 0.961 . S
H348 C334 0.961 . S
H349 C335 0.958 . S
H350 C335 0.961 . S
H351 C335 0.960 . S
C352 C353 1.391 . S
C352 C354 1.394 . S
C352 H368 0.931 . S
C353 C352 1.391 . S
C353 C357 1.376 . S
C354 C352 1.394 . S
C354 C355 1.369 . S
C354 C358 1.531 . S
C355 C354 1.369 . S
C355 C356 1.410 . S
C355 C363 1.503 . S
C356 C355 1.410 . S
C356 C357 1.392 . S
C356 C359 1.511 . S
C357 C353 1.376 . S
C357 C356 1.392 . S
C357 H369 0.929 . S
C358 C354 1.531 . S
C358 H370 0.960 . S
C358 H371 0.962 . S
C358 H372 0.960 . S
C359 C356 1.511 . S
C359 H373 0.961 . S
C359 H374 0.961 . S
C359 H375 0.961 . S
C360 C361 1.370 . S
C360 C362 1.363 . S
C360 H376 0.931 . S
C361 C360 1.370 . S
C361 C365 1.408 . S
C362 C360 1.363 . S
C362 C363 1.370 . S
C362 C366 1.524 . S
C363 C355 1.503 . S
C363 C362 1.370 . S
C363 C364 1.403 . S
C364 C363 1.403 . S
C364 C365 1.404 . S
C364 C367 1.539 . S
C365 C361 1.408 . S
C365 C364 1.404 . S
C365 H377 0.930 . S
C366 C362 1.524 . S
C366 H378 0.956 . S
C366 H379 0.961 . S
C366 H380 0.961 . S
C367 C364 1.539 . S
C367 H381 0.958 . S
C367 H382 0.961 . S
C367 H383 0.960 . S
H368 C352 0.931 . S
H369 C357 0.929 . S
H370 C358 0.960 . S
H371 C358 0.962 . S
H372 C358 0.960 . S
H373 C359 0.961 . S
H374 C359 0.961 . S
H375 C359 0.961 . S
H376 C360 0.931 . S
H377 C365 0.930 . S
H378 C366 0.956 . S
H379 C366 0.961 . S
H380 C366 0.961 . S
H381 C367 0.958 . S
H382 C367 0.961 . S
H383 C367 0.960 . S
C384 C385 1.391 . S
C384 C386 1.394 . S
C384 H400 0.931 . S
C385 C384 1.391 . S
C385 C389 1.376 . S
C386 C384 1.394 . S
C386 C387 1.369 . S
C386 C390 1.531 . S
C387 C386 1.369 . S
C387 C388 1.410 . S
C387 C395 1.503 . S
C388 C387 1.410 . S
C388 C389 1.392 . S
C388 C391 1.511 . S
C389 C385 1.376 . S
C389 C388 1.392 . S
C389 H401 0.929 . S
C390 C386 1.531 . S
C390 H402 0.960 . S
C390 H403 0.962 . S
C390 H404 0.960 . S
C391 C388 1.511 . S
C391 H405 0.961 . S
C391 H406 0.961 . S
C391 H407 0.961 . S
C392 C393 1.370 . S
C392 C394 1.363 . S
C392 H408 0.931 . S
C393 C392 1.370 . S
C393 C397 1.408 . S
C394 C392 1.363 . S
C394 C395 1.370 . S
C394 C398 1.524 . S
C395 C387 1.503 . S
C395 C394 1.370 . S
C395 C396 1.403 . S
C396 C395 1.403 . S
C396 C397 1.404 . S
C396 C399 1.539 . S
C397 C393 1.408 . S
C397 C396 1.404 . S
C397 H409 0.930 . S
C398 C394 1.524 . S
C398 H410 0.956 . S
C398 H411 0.961 . S
C398 H412 0.961 . S
C399 C396 1.539 . S
C399 H413 0.958 . S
C399 H414 0.961 . S
C399 H415 0.960 . S
H400 C384 0.931 . S
H401 C389 0.929 . S
H402 C390 0.960 . S
H403 C390 0.962 . S
H404 C390 0.960 . S
H405 C391 0.961 . S
H406 C391 0.961 . S
H407 C391 0.961 . S
H408 C392 0.931 . S
H409 C397 0.930 . S
H410 C398 0.956 . S
H411 C398 0.961 . S
H412 C398 0.961 . S
H413 C399 0.958 . S
H414 C399 0.961 . S
H415 C399 0.960 . S
C416 C417 1.391 . S
C416 C418 1.394 . S
C416 H432 0.931 . S
C417 C416 1.391 . S
C417 C421 1.376 . S
C418 C416 1.394 . S
C418 C419 1.369 . S
C418 C422 1.531 . S
C419 C418 1.369 . S
C419 C420 1.410 . S
C419 C427 1.503 . S
C420 C419 1.410 . S
C420 C421 1.392 . S
C420 C423 1.511 1_655 S
C421 C417 1.376 . S
C421 C420 1.392 . S
C421 H433 0.929 . S
C422 C418 1.531 . S
C422 H434 0.960 . S
C422 H435 0.962 . S
C422 H436 0.960 . S
C423 C420 1.511 1_455 S
C423 H437 0.961 . S
C423 H438 0.961 . S
C423 H439 0.961 . S
C424 C425 1.370 . S
C424 C426 1.363 . S
C424 H440 0.931 . S
C425 C424 1.370 . S
C425 C429 1.408 . S
C426 C424 1.363 . S
C426 C427 1.370 . S
C426 C430 1.524 . S
C427 C419 1.503 . S
C427 C426 1.370 . S
C427 C428 1.403 . S
C428 C427 1.403 . S
C428 C429 1.404 . S
C428 C431 1.539 1_655 S
C429 C425 1.408 . S
C429 C428 1.404 . S
C429 H441 0.930 1_655 S
C430 C426 1.524 . S
C430 H442 0.956 . S
C430 H443 0.961 . S
C430 H444 0.961 . S
C431 C428 1.539 1_455 S
C431 H445 0.958 1_455 S
C431 H446 0.961 . S
C431 H447 0.960 . S
H432 C416 0.931 . S
H433 C421 0.929 . S
H434 C422 0.960 . S
H435 C422 0.962 . S
H436 C422 0.960 . S
H437 C423 0.961 . S
H438 C423 0.961 . S
H439 C423 0.961 . S
H440 C424 0.931 . S
H441 C429 0.930 1_455 S
H442 C430 0.956 . S
H443 C430 0.961 . S
H444 C430 0.961 . S
H445 C431 0.958 1_655 S
H446 C431 0.961 . S
H447 C431 0.960 . S
C448 C449 1.391 . S
C448 C450 1.394 . S
C448 H464 0.931 . S
C449 C448 1.391 . S
C449 C453 1.376 . S
C450 C448 1.394 . S
C450 C451 1.369 . S
C450 C454 1.531 1_655 S
C451 C450 1.369 . S
C451 C452 1.410 . S
C451 C459 1.503 . S
C452 C451 1.410 . S
C452 C453 1.392 . S
C452 C455 1.511 . S
C453 C449 1.376 . S
C453 C452 1.392 . S
C453 H465 0.929 . S
C454 C450 1.531 1_455 S
C454 H466 0.960 1_455 S
C454 H467 0.962 . S
C454 H468 0.960 . S
C455 C452 1.511 . S
C455 H469 0.961 . S
C455 H470 0.961 . S
C455 H471 0.961 . S
C456 C457 1.370 . S
C456 C458 1.363 . S
C456 H472 0.931 1_655 S
C457 C456 1.370 . S
C457 C461 1.408 . S
C458 C456 1.363 . S
C458 C459 1.370 . S
C458 C462 1.524 . S
C459 C451 1.503 . S
C459 C458 1.370 . S
C459 C460 1.403 . S
C460 C459 1.403 . S
C460 C461 1.404 . S
C460 C463 1.539 . S
C461 C457 1.408 . S
C461 C460 1.404 . S
C461 H473 0.930 . S
C462 C458 1.524 . S
C462 H474 0.956 1_655 S
C462 H475 0.961 . S
C462 H476 0.961 1_655 S
C463 C460 1.539 . S
C463 H477 0.958 . S
C463 H478 0.961 . S
C463 H479 0.960 . S
H464 C448 0.931 . S
H465 C453 0.929 . S
H466 C454 0.960 1_655 S
H467 C454 0.962 . S
H468 C454 0.960 . S
H469 C455 0.961 . S
H470 C455 0.961 . S
H471 C455 0.961 . S
H472 C456 0.931 1_455 S
H473 C461 0.930 . S
H474 C462 0.956 1_455 S
H475 C462 0.961 . S
H476 C462 0.961 1_455 S
H477 C463 0.958 . S
H478 C463 0.961 . S
H479 C463 0.960 . S
C480 C481 1.391 . S
C480 C482 1.394 . S
C480 H496 0.931 . S
C481 C480 1.391 . S
C481 C485 1.376 1_455 S
C482 C480 1.394 . S
C482 C483 1.369 . S
C482 C486 1.531 . S
C483 C482 1.369 . S
C483 C484 1.410 1_455 S
C483 C491 1.503 . S
C484 C483 1.410 1_655 S
C484 C485 1.392 . S
C484 C487 1.511 . S
C485 C481 1.376 1_655 S
C485 C484 1.392 . S
C485 H497 0.929 . S
C486 C482 1.531 . S
C486 H498 0.960 . S
C486 H499 0.962 . S
C486 H500 0.960 . S
C487 C484 1.511 . S
C487 H501 0.961 . S
C487 H502 0.961 . S
C487 H503 0.961 . S
C488 C489 1.370 . S
C488 C490 1.363 . S
C488 H504 0.931 . S
C489 C488 1.370 . S
C489 C493 1.408 . S
C490 C488 1.363 . S
C490 C491 1.370 . S
C490 C494 1.524 . S
C491 C483 1.503 . S
C491 C490 1.370 . S
C491 C492 1.403 . S
C492 C491 1.403 . S
C492 C493 1.404 . S
C492 C495 1.539 . S
C493 C489 1.408 . S
C493 C492 1.404 . S
C493 H505 0.930 . S
C494 C490 1.524 . S
C494 H506 0.956 . S
C494 H507 0.961 . S
C494 H508 0.961 . S
C495 C492 1.539 . S
C495 H509 0.958 . S
C495 H510 0.961 1_455 S
C495 H511 0.960 1_455 S
H496 C480 0.931 . S
H497 C485 0.929 . S
H498 C486 0.960 . S
H499 C486 0.962 . S
H500 C486 0.960 . S
H501 C487 0.961 . S
H502 C487 0.961 . S
H503 C487 0.961 . S
H504 C488 0.931 . S
H505 C493 0.930 . S
H506 C494 0.956 . S
H507 C494 0.961 . S
H508 C494 0.961 . S
H509 C495 0.958 . S
H510 C495 0.961 1_655 S
H511 C495 0.960 1_655 S
C512 C513 1.391 . S
C512 C514 1.394 . S
C512 H528 0.931 . S
C513 C512 1.391 . S
C513 C517 1.376 . S
C514 C512 1.394 . S
C514 C515 1.369 . S
C514 C518 1.531 . S
C515 C514 1.369 . S
C515 C516 1.410 . S
C515 C523 1.503 . S
C516 C515 1.410 . S
C516 C517 1.392 . S
C516 C519 1.511 . S
C517 C513 1.376 . S
C517 C516 1.392 . S
C517 H529 0.929 . S
C518 C514 1.531 . S
C518 H530 0.960 . S
C518 H531 0.962 . S
C518 H532 0.960 . S
C519 C516 1.511 . S
C519 H533 0.961 . S
C519 H534 0.961 . S
C519 H535 0.961 1_455 S
C520 C521 1.370 . S
C520 C522 1.363 . S
C520 H536 0.931 . S
C521 C520 1.370 . S
C521 C525 1.408 1_455 S
C522 C520 1.363 . S
C522 C523 1.370 . S
C522 C526 1.524 . S
C523 C515 1.503 . S
C523 C522 1.370 . S
C523 C524 1.403 1_455 S
C524 C523 1.403 1_655 S
C524 C525 1.404 . S
C524 C527 1.539 . S
C525 C521 1.408 1_655 S
C525 C524 1.404 . S
C525 H537 0.930 . S
C526 C522 1.524 . S
C526 H538 0.956 . S
C526 H539 0.961 . S
C526 H540 0.961 . S
C527 C524 1.539 . S
C527 H541 0.958 . S
C527 H542 0.961 . S
C527 H543 0.960 . S
H528 C512 0.931 . S
H529 C517 0.929 . S
H530 C518 0.960 . S
H531 C518 0.962 . S
H532 C518 0.960 . S
H533 C519 0.961 . S
H534 C519 0.961 . S
H535 C519 0.961 1_655 S
H536 C520 0.931 . S
H537 C525 0.930 . S
H538 C526 0.956 . S
H539 C526 0.961 . S
H540 C526 0.961 . S
H541 C527 0.958 . S
H542 C527 0.961 . S
H543 C527 0.960 . S
C161 C63 1.557 1_554 S
C169 C2 1.546 . S
C193 C82 1.531 . S
C201 C143 1.558 . S
C225 C23 1.531 . S
C233 C42 1.558 1_556 S
C257 C122 1.562 . S
C265 C103 1.546 . S
C289 C146 1.179 . S
C297 C13 1.244 . S
C321 C66 1.240 . S
C329 C93 1.250 . S
C353 C64 1.247 . S
C361 C97 1.228 . S
C385 C144 1.240 . S
C393 C17 1.197 . S
C417 C53 1.258 . S
C425 C106 1.218 . S
C449 C133 1.229 . S
C457 C26 1.210 . S
C481 C137 1.228 . S
C489 C24 1.253 . S
C513 C104 1.250 . S
C521 C57 1.201 . S
