# Generated by pormake.
# Topology uos, (4)-cn, num edge types: 1
# Building blocks:
#     Node 0, Type 0, BuildingBlock: QUQFOY_clean_sbu_3, # of connection points: 4
#     Node 1, Type 0, BuildingBlock: QUQFOY_clean_sbu_3, # of connection points: 4
#     Node 2, Type 0, BuildingBlock: QUQFOY_clean_sbu_3, # of connection points: 4
#     Node 3, Type 0, BuildingBlock: QUQFOY_clean_sbu_3, # of connection points: 4
#     Node 4, Type 0, BuildingBlock: QUQFOY_clean_sbu_3, # of connection points: 4
#     Node 5, Type 0, BuildingBlock: QUQFOY_clean_sbu_3, # of connection points: 4
#     Node 6, Type 0, BuildingBlock: QUQFOY_clean_sbu_3, # of connection points: 4
#     Node 7, Type 0, BuildingBlock: QUQFOY_clean_sbu_3, # of connection points: 4
#     Node 8, Type 0, BuildingBlock: QUQFOY_clean_sbu_3, # of connection points: 4
#     Node 9, Type 0, BuildingBlock: QUQFOY_clean_sbu_3, # of connection points: 4
#     Node 10, Type 0, BuildingBlock: QUQFOY_clean_sbu_3, # of connection points: 4
#     Node 11, Type 0, BuildingBlock: QUQFOY_clean_sbu_3, # of connection points: 4
#     Node 12, Type 0, BuildingBlock: QUQFOY_clean_sbu_3, # of connection points: 4
#     Node 13, Type 0, BuildingBlock: QUQFOY_clean_sbu_3, # of connection points: 4
#     Node 14, Type 0, BuildingBlock: QUQFOY_clean_sbu_3, # of connection points: 4
#     Node 15, Type 0, BuildingBlock: QUQFOY_clean_sbu_3, # of connection points: 4
#     Node 16, Type 0, BuildingBlock: QUQFOY_clean_sbu_3, # of connection points: 4
#     Node 17, Type 0, BuildingBlock: QUQFOY_clean_sbu_3, # of connection points: 4
#     Node 18, Type 0, BuildingBlock: QUQFOY_clean_sbu_3, # of connection points: 4
#     Node 19, Type 0, BuildingBlock: QUQFOY_clean_sbu_3, # of connection points: 4
#     Node 20, Type 0, BuildingBlock: QUQFOY_clean_sbu_3, # of connection points: 4
#     Node 21, Type 0, BuildingBlock: QUQFOY_clean_sbu_3, # of connection points: 4
#     Node 22, Type 0, BuildingBlock: QUQFOY_clean_sbu_3, # of connection points: 4
#     Node 23, Type 0, BuildingBlock: QUQFOY_clean_sbu_3, # of connection points: 4
#     Node 24, Type 0, BuildingBlock: QUQFOY_clean_sbu_3, # of connection points: 4
#     Node 25, Type 0, BuildingBlock: QUQFOY_clean_sbu_3, # of connection points: 4
#     Node 26, Type 0, BuildingBlock: QUQFOY_clean_sbu_3, # of connection points: 4
#     Node 27, Type 0, BuildingBlock: QUQFOY_clean_sbu_3, # of connection points: 4
#     Node 28, Type 0, BuildingBlock: QUQFOY_clean_sbu_3, # of connection points: 4
#     Node 29, Type 0, BuildingBlock: QUQFOY_clean_sbu_3, # of connection points: 4
#     Node 30, Type 0, BuildingBlock: QUQFOY_clean_sbu_3, # of connection points: 4
#     Node 31, Type 0, BuildingBlock: QUQFOY_clean_sbu_3, # of connection points: 4
#     Edge 32, Type (0, 0), BuildingBlock: TEMPAE_clean_linker_10, # of connection points: 2
#     Edge 33, Type (0, 0), BuildingBlock: TEMPAE_clean_linker_10, # of connection points: 2
#     Edge 34, Type (0, 0), BuildingBlock: TEMPAE_clean_linker_10, # of connection points: 2
#     Edge 35, Type (0, 0), BuildingBlock: TEMPAE_clean_linker_10, # of connection points: 2
#     Edge 36, Type (0, 0), BuildingBlock: TEMPAE_clean_linker_10, # of connection points: 2
#     Edge 37, Type (0, 0), BuildingBlock: TEMPAE_clean_linker_10, # of connection points: 2
#     Edge 38, Type (0, 0), BuildingBlock: TEMPAE_clean_linker_10, # of connection points: 2
#     Edge 39, Type (0, 0), BuildingBlock: TEMPAE_clean_linker_10, # of connection points: 2
#     Edge 40, Type (0, 0), BuildingBlock: TEMPAE_clean_linker_10, # of connection points: 2
#     Edge 41, Type (0, 0), BuildingBlock: TEMPAE_clean_linker_10, # of connection points: 2
#     Edge 42, Type (0, 0), BuildingBlock: TEMPAE_clean_linker_10, # of connection points: 2
#     Edge 43, Type (0, 0), BuildingBlock: TEMPAE_clean_linker_10, # of connection points: 2
#     Edge 44, Type (0, 0), BuildingBlock: TEMPAE_clean_linker_10, # of connection points: 2
#     Edge 45, Type (0, 0), BuildingBlock: TEMPAE_clean_linker_10, # of connection points: 2
#     Edge 46, Type (0, 0), BuildingBlock: TEMPAE_clean_linker_10, # of connection points: 2
#     Edge 47, Type (0, 0), BuildingBlock: TEMPAE_clean_linker_10, # of connection points: 2
#     Edge 48, Type (0, 0), BuildingBlock: TEMPAE_clean_linker_10, # of connection points: 2
#     Edge 49, Type (0, 0), BuildingBlock: TEMPAE_clean_linker_10, # of connection points: 2
#     Edge 50, Type (0, 0), BuildingBlock: TEMPAE_clean_linker_10, # of connection points: 2
#     Edge 51, Type (0, 0), BuildingBlock: TEMPAE_clean_linker_10, # of connection points: 2
#     Edge 52, Type (0, 0), BuildingBlock: TEMPAE_clean_linker_10, # of connection points: 2
#     Edge 53, Type (0, 0), BuildingBlock: TEMPAE_clean_linker_10, # of connection points: 2
#     Edge 54, Type (0, 0), BuildingBlock: TEMPAE_clean_linker_10, # of connection points: 2
#     Edge 55, Type (0, 0), BuildingBlock: TEMPAE_clean_linker_10, # of connection points: 2
#     Edge 56, Type (0, 0), BuildingBlock: TEMPAE_clean_linker_10, # of connection points: 2
#     Edge 57, Type (0, 0), BuildingBlock: TEMPAE_clean_linker_10, # of connection points: 2
#     Edge 58, Type (0, 0), BuildingBlock: TEMPAE_clean_linker_10, # of connection points: 2
#     Edge 59, Type (0, 0), BuildingBlock: TEMPAE_clean_linker_10, # of connection points: 2
#     Edge 60, Type (0, 0), BuildingBlock: TEMPAE_clean_linker_10, # of connection points: 2
#     Edge 61, Type (0, 0), BuildingBlock: TEMPAE_clean_linker_10, # of connection points: 2
#     Edge 62, Type (0, 0), BuildingBlock: TEMPAE_clean_linker_10, # of connection points: 2
#     Edge 63, Type (0, 0), BuildingBlock: TEMPAE_clean_linker_10, # of connection points: 2
#     Edge 64, Type (0, 0), BuildingBlock: TEMPAE_clean_linker_10, # of connection points: 2
#     Edge 65, Type (0, 0), BuildingBlock: TEMPAE_clean_linker_10, # of connection points: 2
#     Edge 66, Type (0, 0), BuildingBlock: TEMPAE_clean_linker_10, # of connection points: 2
#     Edge 67, Type (0, 0), BuildingBlock: TEMPAE_clean_linker_10, # of connection points: 2
#     Edge 68, Type (0, 0), BuildingBlock: TEMPAE_clean_linker_10, # of connection points: 2
#     Edge 69, Type (0, 0), BuildingBlock: TEMPAE_clean_linker_10, # of connection points: 2
#     Edge 70, Type (0, 0), BuildingBlock: TEMPAE_clean_linker_10, # of connection points: 2
#     Edge 71, Type (0, 0), BuildingBlock: TEMPAE_clean_linker_10, # of connection points: 2
#     Edge 72, Type (0, 0), BuildingBlock: TEMPAE_clean_linker_10, # of connection points: 2
#     Edge 73, Type (0, 0), BuildingBlock: TEMPAE_clean_linker_10, # of connection points: 2
#     Edge 74, Type (0, 0), BuildingBlock: TEMPAE_clean_linker_10, # of connection points: 2
#     Edge 75, Type (0, 0), BuildingBlock: TEMPAE_clean_linker_10, # of connection points: 2
#     Edge 76, Type (0, 0), BuildingBlock: TEMPAE_clean_linker_10, # of connection points: 2
#     Edge 77, Type (0, 0), BuildingBlock: TEMPAE_clean_linker_10, # of connection points: 2
#     Edge 78, Type (0, 0), BuildingBlock: TEMPAE_clean_linker_10, # of connection points: 2
#     Edge 79, Type (0, 0), BuildingBlock: TEMPAE_clean_linker_10, # of connection points: 2
#     Edge 80, Type (0, 0), BuildingBlock: TEMPAE_clean_linker_10, # of connection points: 2
#     Edge 81, Type (0, 0), BuildingBlock: TEMPAE_clean_linker_10, # of connection points: 2
#     Edge 82, Type (0, 0), BuildingBlock: TEMPAE_clean_linker_10, # of connection points: 2
#     Edge 83, Type (0, 0), BuildingBlock: TEMPAE_clean_linker_10, # of connection points: 2
#     Edge 84, Type (0, 0), BuildingBlock: TEMPAE_clean_linker_10, # of connection points: 2
#     Edge 85, Type (0, 0), BuildingBlock: TEMPAE_clean_linker_10, # of connection points: 2
#     Edge 86, Type (0, 0), BuildingBlock: TEMPAE_clean_linker_10, # of connection points: 2
#     Edge 87, Type (0, 0), BuildingBlock: TEMPAE_clean_linker_10, # of connection points: 2
#     Edge 88, Type (0, 0), BuildingBlock: TEMPAE_clean_linker_10, # of connection points: 2
#     Edge 89, Type (0, 0), BuildingBlock: TEMPAE_clean_linker_10, # of connection points: 2
#     Edge 90, Type (0, 0), BuildingBlock: TEMPAE_clean_linker_10, # of connection points: 2
#     Edge 91, Type (0, 0), BuildingBlock: TEMPAE_clean_linker_10, # of connection points: 2
#     Edge 92, Type (0, 0), BuildingBlock: TEMPAE_clean_linker_10, # of connection points: 2
#     Edge 93, Type (0, 0), BuildingBlock: TEMPAE_clean_linker_10, # of connection points: 2
#     Edge 94, Type (0, 0), BuildingBlock: TEMPAE_clean_linker_10, # of connection points: 2
#     Edge 95, Type (0, 0), BuildingBlock: TEMPAE_clean_linker_10, # of connection points: 2
# Relax obj value: 0.043
# Max RMSD: 0.063
# Mean RMSD: 0.063
data_MOF--net-uos--node1-QUQFOY_clean_sbu_3--edge1-TEMPAE_clean_linker_10
_symmetry_space_group_name_H-M    P1
_symmetry_Int_Tables_number       1
_symmetry_cell_setting            triclinic
loop_
_symmetry_equiv_pos_as_xyz
'x, y, z'
_cell_length_a     88.113604
_cell_length_b     88.126187
_cell_length_c     24.325127
_cell_angle_alpha  89.987334
_cell_angle_beta   89.9921
_cell_angle_gamma 89.983292
loop_
_atom_site_label
_atom_site_type_symbol
_atom_site_fract_x
_atom_site_fract_y
_atom_site_fract_z
_atom_type_partial_charge
C0 C 0.13993 0.19899 0.09545 0.0
O1 O 0.13398 0.19732 0.14269 0.0
Cd2 Cd 0.12982 0.17431 0.19195 0.0
O3 O 0.14368 0.18754 0.06633 0.0
Cd4 Cd 0.14119 0.15943 0.07318 0.0
C5 C 0.16605 0.15942 0.18022 0.0
O6 O 0.11789 0.15912 0.12497 0.0
O7 O 0.12841 0.1374 0.11367 0.0
O8 O 0.1335 0.15907 0.97746 0.0
C9 C 0.11759 0.145 0.13401 0.0
O10 O 0.15558 0.16508 0.21 0.0
C11 C 0.14139 0.14748 0.96531 0.0
O12 O 0.16394 0.15678 0.12926 0.0
O13 O 0.15001 0.14216 0.00246 0.0
C14 C 0.0505 0.90698 0.39832 0.0
O15 O 0.0514 0.90514 0.45007 0.0
Cd16 Cd 0.07276 0.89972 0.50707 0.0
O17 O 0.06227 0.90657 0.36774 0.0
Cd18 Cd 0.09002 0.90434 0.38634 0.0
C19 C 0.09013 0.93345 0.48005 0.0
O20 O 0.08707 0.88354 0.44953 0.0
O21 O 0.11005 0.89063 0.43662 0.0
O22 O 0.09288 0.89444 0.29362 0.0
C23 C 0.10093 0.88179 0.46087 0.0
O24 O 0.08412 0.92465 0.51539 0.0
C25 C 0.10512 0.90162 0.28411 0.0
O26 O 0.09257 0.92903 0.43096 0.0
O27 O 0.10977 0.91066 0.32103 0.0
C28 C 0.34591 0.80557 0.64071 0.0
O29 O 0.3495 0.80875 0.68985 0.0
Cd30 Cd 0.33964 0.83061 0.73469 0.0
O31 O 0.33888 0.81519 0.61101 0.0
Cd32 Cd 0.33179 0.84254 0.61896 0.0
C33 C 0.3021 0.83077 0.69046 0.0
O34 O 0.34869 0.85252 0.68854 0.0
O35 O 0.32739 0.86438 0.67857 0.0
O36 O 0.34912 0.84934 0.5474 0.0
C37 C 0.34056 0.864 0.69948 0.0
O38 O 0.3119 0.8287 0.7283 0.0
C39 C 0.33965 0.85648 0.51789 0.0
O40 O 0.30608 0.83544 0.64305 0.0
O41 O 0.32587 0.85637 0.53358 0.0
C42 C 0.43827 0.10463 0.86119 0.0
O43 O 0.43747 0.11006 0.90941 0.0
Cd44 Cd 0.41681 0.10503 0.96979 0.0
O45 O 0.42676 0.0982 0.8397 0.0
Cd46 Cd 0.39956 0.09468 0.86477 0.0
C47 C 0.41198 0.06662 0.94443 0.0
O48 O 0.39384 0.11459 0.93208 0.0
O49 O 0.38083 0.09387 0.9371 0.0
O50 O 0.39183 0.10719 0.78028 0.0
C51 C 0.38285 0.10737 0.95334 0.0
O52 O 0.41594 0.07721 0.97719 0.0
C53 C 0.38175 0.0975 0.76781 0.0
O54 O 0.40628 0.06966 0.89756 0.0
O55 O 0.38032 0.08609 0.79928 0.0
C56 C 0.15859 0.79113 0.9014 0.0
O57 O 0.15487 0.79046 0.85099 0.0
Cd58 Cd 0.15591 0.80987 0.78363 0.0
O59 O 0.16289 0.80352 0.92349 0.0
Cd60 Cd 0.16403 0.83059 0.89311 0.0
C61 C 0.19274 0.82237 0.80532 0.0
O62 O 0.14275 0.82903 0.8311 0.0
O63 O 0.15446 0.85038 0.83057 0.0
O64 O 0.15335 0.83536 0.98288 0.0
C65 C 0.14376 0.8423 0.81194 0.0
O66 O 0.18293 0.81583 0.77496 0.0
C67 C 0.16052 0.84765 0.99086 0.0
O68 O 0.18901 0.82825 0.85124 0.0
O69 O 0.17002 0.85167 0.95442 0.0
C70 C 0.44029 0.91337 0.10366 0.0
O71 O 0.43866 0.91075 0.05276 0.0
Cd72 Cd 0.41791 0.92013 0.00122 0.0
O73 O 0.42965 0.91942 0.13153 0.0
Cd74 Cd 0.40229 0.92519 0.11341 0.0
C75 C 0.41387 0.95673 0.05252 0.0
O76 O 0.39589 0.90866 0.03801 0.0
O77 O 0.38189 0.9287 0.0458 0.0
O78 O 0.39431 0.90561 0.17443 0.0
C79 C 0.38405 0.91582 0.02396 0.0
O80 O 0.41777 0.94768 0.01417 0.0
C81 C 0.38639 0.91386 0.20599 0.0
O82 O 0.40799 0.95175 0.09683 0.0
O83 O 0.38643 0.92808 0.19678 0.0
C84 C 0.30781 0.19315 0.36628 0.0
O85 O 0.3089 0.19276 0.31429 0.0
Cd86 Cd 0.3099 0.17073 0.25945 0.0
O87 O 0.30712 0.18093 0.39429 0.0
Cd88 Cd 0.30659 0.15312 0.37254 0.0
C89 C 0.27487 0.15691 0.29764 0.0
O90 O 0.3271 0.15434 0.30597 0.0
O91 O 0.31372 0.13394 0.30385 0.0
O92 O 0.31993 0.15171 0.45979 0.0
C93 C 0.32537 0.14105 0.28758 0.0
O94 O 0.28371 0.16241 0.26135 0.0
C95 C 0.31529 0.13856 0.47248 0.0
O96 O 0.27987 0.15308 0.34482 0.0
O97 O 0.30597 0.13229 0.43984 0.0
C98 C 0.03425 0.07457 0.5804 0.0
O99 O 0.03374 0.07215 0.52895 0.0
Cd100 Cd 0.05398 0.0737 0.46463 0.0
O101 O 0.04679 0.0776 0.60424 0.0
Cd102 Cd 0.07385 0.07933 0.57392 0.0
C103 C 0.07529 0.04449 0.51449 0.0
O104 O 0.06747 0.0954 0.49593 0.0
O105 O 0.09106 0.08966 0.50458 0.0
O106 O 0.07701 0.09536 0.6549 0.0
C107 C 0.08092 0.09694 0.47896 0.0
O108 O 0.06751 0.04997 0.47516 0.0
C109 C 0.09047 0.09093 0.66454 0.0
O110 O 0.07839 0.05243 0.55671 0.0
O111 O 0.09588 0.08073 0.63346 0.0
C112 C 0.83206 0.79751 0.84996 0.0
O113 O 0.83326 0.79897 0.79823 0.0
Cd114 Cd 0.82595 0.82073 0.74697 0.0
O115 O 0.82812 0.80861 0.88043 0.0
Cd116 Cd 0.82381 0.83648 0.86839 0.0
C117 C 0.79075 0.82856 0.80564 0.0
O118 O 0.83951 0.84053 0.78899 0.0
O119 O 0.82468 0.85918 0.80962 0.0
O120 O 0.84349 0.84205 0.93372 0.0
C121 C 0.83502 0.85388 0.7789 0.0
O122 O 0.79898 0.82399 0.76585 0.0
C123 C 0.83543 0.85021 0.96524 0.0
O124 O 0.79669 0.83351 0.84994 0.0
O125 O 0.82139 0.85133 0.9537 0.0
C126 C 0.9275 0.09276 0.64633 0.0
O127 O 0.92341 0.09876 0.60126 0.0
Cd128 Cd 0.89982 0.09305 0.55808 0.0
O129 O 0.91805 0.08526 0.6752 0.0
Cd130 Cd 0.89028 0.08014 0.6749 0.0
C131 C 0.89896 0.054 0.58099 0.0
O132 O 0.87974 0.09992 0.61758 0.0
O133 O 0.86662 0.07926 0.62379 0.0
O134 O 0.888 0.09529 0.75557 0.0
C135 C 0.86759 0.09281 0.60666 0.0
O136 O 0.90043 0.06539 0.54909 0.0
C137 C 0.88046 0.08583 0.78383 0.0
O138 O 0.8957 0.05574 0.63174 0.0
O139 O 0.87823 0.0728 0.76266 0.0
C140 C 0.62744 0.19809 0.33879 0.0
O141 O 0.62391 0.19429 0.29009 0.0
Cd142 Cd 0.62908 0.17014 0.24958 0.0
O143 O 0.63265 0.18836 0.37269 0.0
Cd144 Cd 0.63661 0.16039 0.37524 0.0
C145 C 0.66644 0.16513 0.28978 0.0
O146 O 0.61818 0.15182 0.30853 0.0
O147 O 0.63522 0.13547 0.33205 0.0
O148 O 0.62086 0.15712 0.45541 0.0
C149 C 0.62345 0.13848 0.3042 0.0
O150 O 0.65674 0.16765 0.25197 0.0
C151 C 0.63091 0.15061 0.48443 0.0
O152 O 0.66228 0.16268 0.33921 0.0
O153 O 0.64414 0.14954 0.46386 0.0
C154 C 0.54826 0.90449 0.08281 0.0
O155 O 0.54835 0.90068 0.03237 0.0
Cd156 Cd 0.56818 0.89023 0.97707 0.0
O157 O 0.56022 0.90378 0.11226 0.0
Cd158 Cd 0.58733 0.89768 0.09325 0.0
C159 C 0.59027 0.92198 0.98251 0.0
O160 O 0.58091 0.87524 0.04278 0.0
O161 O 0.60475 0.87919 0.05049 0.0
O162 O 0.58954 0.89129 0.18996 0.0
C163 C 0.59421 0.87104 0.03109 0.0
O164 O 0.58291 0.91253 0.95325 0.0
C165 C 0.60262 0.89715 0.19566 0.0
O166 O 0.59241 0.91962 0.03369 0.0
O167 O 0.60817 0.90402 0.1544 0.0
C168 C 0.82273 0.19304 0.18214 0.0
O169 O 0.82056 0.19307 0.23369 0.0
Cd170 Cd 0.81279 0.17243 0.28871 0.0
O171 O 0.82099 0.18094 0.15413 0.0
Cd172 Cd 0.81318 0.15437 0.17767 0.0
C173 C 0.77889 0.16482 0.22485 0.0
O174 O 0.82735 0.151 0.26147 0.0
O175 O 0.80873 0.13535 0.24967 0.0
O176 O 0.83351 0.14235 0.12794 0.0
C177 C 0.82063 0.13895 0.27588 0.0
O178 O 0.78614 0.16961 0.26662 0.0
C179 C 0.82527 0.13547 0.09333 0.0
O180 O 0.78583 0.15911 0.18379 0.0
O181 O 0.81105 0.13782 0.09591 0.0
C182 C 0.53979 0.06761 0.87906 0.0
O183 O 0.53961 0.06284 0.92833 0.0
Cd184 Cd 0.56079 0.05783 0.98569 0.0
O185 O 0.55233 0.06997 0.85425 0.0
Cd186 Cd 0.57993 0.06743 0.87661 0.0
C187 C 0.57863 0.0301 0.91023 0.0
O188 O 0.57744 0.07823 0.96703 0.0
O189 O 0.59995 0.07038 0.94655 0.0
O190 O 0.5856 0.09105 0.83038 0.0
C191 C 0.59121 0.07685 0.9807 0.0
O192 O 0.57111 0.03433 0.95213 0.0
C193 C 0.59415 0.08538 0.79388 0.0
O194 O 0.58309 0.03963 0.87429 0.0
O195 O 0.59589 0.07106 0.79457 0.0
C196 C 0.6571 0.78793 0.59835 0.0
O197 O 0.65203 0.7869 0.64717 0.0
Cd198 Cd 0.64608 0.80639 0.71122 0.0
O199 O 0.65924 0.80082 0.57571 0.0
Cd200 Cd 0.6548 0.82784 0.60159 0.0
C201 C 0.68071 0.82479 0.70541 0.0
O202 O 0.63224 0.82283 0.65394 0.0
O203 O 0.6396 0.84597 0.6554 0.0
O204 O 0.64677 0.83169 0.50751 0.0
C205 C 0.63016 0.83612 0.67165 0.0
O206 O 0.67101 0.81705 0.73236 0.0
C207 C 0.65324 0.84449 0.5022 0.0
O208 O 0.67784 0.8295 0.65693 0.0
O209 O 0.66117 0.84918 0.54234 0.0
C210 C 0.94174 0.90678 0.38489 0.0
O211 O 0.94029 0.90481 0.43633 0.0
Cd212 Cd 0.91886 0.9113 0.4906 0.0
O213 O 0.93064 0.91132 0.35554 0.0
Cd214 Cd 0.90286 0.9155 0.3702 0.0
C215 C 0.91069 0.94741 0.44102 0.0
O216 O 0.8986 0.89888 0.44709 0.0
O217 O 0.88024 0.91431 0.42878 0.0
O218 O 0.89708 0.89614 0.30449 0.0
C219 C 0.88537 0.90357 0.45806 0.0
O220 O 0.9155 0.93849 0.47839 0.0
C221 C 0.88909 0.90431 0.27284 0.0
O222 O 0.9056 0.94232 0.39548 0.0
O223 O 0.88813 0.91837 0.2844 0.0
C224 C 0.68651 0.68632 0.57535 0.0
O225 O 0.68818 0.68566 0.62719 0.0
Cd226 Cd 0.67962 0.66576 0.68623 0.0
O227 O 0.6812 0.67503 0.54885 0.0
Cd228 Cd 0.67463 0.64865 0.57524 0.0
C229 C 0.70608 0.64057 0.64828 0.0
O230 O 0.65681 0.65749 0.64458 0.0
O231 O 0.65988 0.63333 0.64078 0.0
O232 O 0.66111 0.64938 0.48822 0.0
C233 C 0.65274 0.64451 0.66082 0.0
O234 O 0.69935 0.64676 0.68865 0.0
C235 C 0.6624 0.63527 0.47885 0.0
O236 O 0.70063 0.6413 0.59991 0.0
O237 O 0.67007 0.62752 0.51291 0.0
C238 C 0.56056 0.41777 0.85677 0.0
O239 O 0.56335 0.41533 0.90713 0.0
Cd240 Cd 0.58513 0.42534 0.95049 0.0
O241 O 0.57056 0.42362 0.8254 0.0
Cd242 Cd 0.59838 0.42908 0.83378 0.0
C243 C 0.5874 0.46125 0.89087 0.0
O244 O 0.60604 0.41308 0.90877 0.0
O245 O 0.62026 0.43274 0.89585 0.0
O246 O 0.60356 0.40869 0.77206 0.0
C247 C 0.61827 0.42001 0.9191 0.0
O248 O 0.58431 0.45263 0.93146 0.0
C249 C 0.61144 0.41618 0.73798 0.0
O250 O 0.5928 0.45583 0.84645 0.0
O251 O 0.61273 0.43039 0.74642 0.0
C252 C 0.85191 0.29523 0.15477 0.0
O253 O 0.85374 0.29553 0.20646 0.0
Cd254 Cd 0.84456 0.31555 0.26279 0.0
O255 O 0.84686 0.30684 0.1295 0.0
Cd256 Cd 0.84171 0.33372 0.15607 0.0
C257 C 0.80886 0.32276 0.20961 0.0
O258 O 0.85691 0.33837 0.23718 0.0
O259 O 0.83669 0.35214 0.22858 0.0
O260 O 0.86156 0.34495 0.10252 0.0
C261 C 0.84918 0.34969 0.25294 0.0
O262 O 0.81706 0.31751 0.24838 0.0
C263 C 0.85301 0.35243 0.07058 0.0
O264 O 0.81487 0.329 0.16768 0.0
O265 O 0.83877 0.35072 0.07626 0.0
C266 C 0.93906 0.58985 0.37658 0.0
O267 O 0.94054 0.59447 0.42565 0.0
Cd268 Cd 0.92383 0.58675 0.49653 0.0
O269 O 0.92701 0.58304 0.3615 0.0
Cd270 Cd 0.90138 0.57897 0.40284 0.0
C271 C 0.91713 0.54904 0.46058 0.0
O272 O 0.89981 0.59744 0.4773 0.0
O273 O 0.88658 0.57699 0.48666 0.0
O274 O 0.89198 0.59406 0.32778 0.0
C275 C 0.88991 0.59011 0.50414 0.0
O276 O 0.92307 0.55886 0.49254 0.0
C277 C 0.88032 0.58602 0.31863 0.0
O278 O 0.90877 0.55309 0.42048 0.0
O279 O 0.87849 0.57421 0.34778 0.0
C280 C 0.65036 0.30633 0.29123 0.0
O281 O 0.65127 0.30903 0.24011 0.0
Cd282 Cd 0.66084 0.33175 0.20074 0.0
O283 O 0.65419 0.31634 0.3264 0.0
Cd284 Cd 0.66405 0.34288 0.3225 0.0
C285 C 0.69608 0.33107 0.26132 0.0
O286 O 0.64956 0.35291 0.24639 0.0
O287 O 0.66983 0.3654 0.26755 0.0
O288 O 0.64568 0.35086 0.38976 0.0
C289 C 0.65753 0.36477 0.24071 0.0
O290 O 0.68795 0.32994 0.21823 0.0
C291 C 0.65507 0.35687 0.42267 0.0
O292 O 0.69025 0.33494 0.30718 0.0
O293 O 0.66906 0.35566 0.41063 0.0
C294 C 0.95376 0.3989 0.61564 0.0
O295 O 0.94948 0.39467 0.56827 0.0
Cd296 Cd 0.92541 0.40128 0.53125 0.0
O297 O 0.94446 0.40515 0.64879 0.0
Cd298 Cd 0.91659 0.40995 0.65202 0.0
C299 C 0.92312 0.43923 0.56954 0.0
O300 O 0.90656 0.39105 0.59018 0.0
O301 O 0.89262 0.41094 0.60179 0.0
O302 O 0.91422 0.39372 0.7303 0.0
C303 C 0.89397 0.39765 0.58251 0.0
O304 O 0.92472 0.42913 0.53245 0.0
C305 C 0.90677 0.40293 0.75988 0.0
O306 O 0.92058 0.43556 0.61936 0.0
O307 O 0.90468 0.4162 0.74065 0.0
C308 C 0.83671 0.68609 0.87226 0.0
O309 O 0.84094 0.68139 0.82531 0.0
Cd310 Cd 0.84527 0.65589 0.79475 0.0
O311 O 0.83332 0.67685 0.91065 0.0
Cd312 Cd 0.83112 0.64884 0.91602 0.0
C313 C 0.80836 0.64513 0.80471 0.0
O314 O 0.85474 0.64223 0.87083 0.0
O315 O 0.83905 0.62397 0.88298 0.0
O316 O 0.83779 0.64942 0.01275 0.0
C317 C 0.85173 0.62831 0.86436 0.0
O318 O 0.82021 0.64578 0.77487 0.0
C319 C 0.8276 0.64005 0.02733 0.0
O320 O 0.80882 0.6478 0.85623 0.0
O321 O 0.81833 0.63566 0.99065 0.0
C322 C 0.54012 0.60455 0.06274 0.0
O323 O 0.54124 0.60845 0.01257 0.0
Cd324 Cd 0.56359 0.60862 0.9567 0.0
O325 O 0.55182 0.60084 0.09047 0.0
Cd326 Cd 0.57959 0.59987 0.07455 0.0
C327 C 0.57526 0.5719 0.97894 0.0
O328 O 0.58169 0.62134 0.01221 0.0
O329 O 0.60206 0.60841 0.02527 0.0
O330 O 0.58388 0.60976 0.16668 0.0
C331 C 0.59561 0.61943 0.00148 0.0
O332 O 0.57012 0.58177 0.9455 0.0
C333 C 0.59408 0.60008 0.17839 0.0
O334 O 0.57883 0.57548 0.02799 0.0
O335 O 0.59681 0.58986 0.14298 0.0
C336 C 0.34833 0.29257 0.38434 0.0
O337 O 0.35499 0.29199 0.33799 0.0
Cd338 Cd 0.36394 0.312 0.28073 0.0
O339 O 0.34576 0.30523 0.40813 0.0
Cd340 Cd 0.35177 0.33241 0.38952 0.0
C341 C 0.3303 0.33204 0.27201 0.0
O342 O 0.37577 0.32694 0.34833 0.0
O343 O 0.37001 0.35047 0.34847 0.0
O344 O 0.35578 0.33494 0.48727 0.0
C345 C 0.37929 0.34024 0.33413 0.0
O346 O 0.34058 0.32422 0.24835 0.0
C347 C 0.34931 0.34779 0.49118 0.0
O348 O 0.33148 0.33577 0.32248 0.0
O349 O 0.34324 0.35314 0.44796 0.0
C350 C 0.4356 0.56954 0.07503 0.0
O351 O 0.43352 0.56569 0.02525 0.0
Cd352 Cd 0.41028 0.55938 0.98187 0.0
O353 O 0.42452 0.5705 0.10867 0.0
Cd354 Cd 0.39644 0.56658 0.1078 0.0
C355 C 0.40064 0.52987 0.0694 0.0
O356 O 0.39378 0.57756 0.01933 0.0
O357 O 0.3728 0.56899 0.05251 0.0
O358 O 0.39452 0.58937 0.1623 0.0
C359 C 0.37969 0.57556 0.01345 0.0
O360 O 0.40494 0.53512 0.02321 0.0
C361 C 0.38657 0.58361 0.20042 0.0
O362 O 0.39704 0.53864 0.10902 0.0
O363 O 0.38355 0.56953 0.19669 0.0
C364 C 0.16397 0.68788 0.8482 0.0
O365 O 0.16049 0.68914 0.79766 0.0
Cd366 Cd 0.15357 0.67019 0.73266 0.0
O367 O 0.16421 0.67498 0.87194 0.0
Cd368 Cd 0.16008 0.64822 0.84279 0.0
C369 C 0.18747 0.6511 0.74374 0.0
O370 O 0.13839 0.65408 0.78676 0.0
O371 O 0.14515 0.63071 0.78581 0.0
O372 O 0.1508 0.64505 0.93558 0.0
C373 C 0.13616 0.64085 0.76857 0.0
O374 O 0.17807 0.65874 0.71515 0.0
C375 C 0.15617 0.63179 0.94189 0.0
O376 O 0.1841 0.64653 0.79202 0.0
O377 O 0.16416 0.62644 0.90297 0.0
C378 C 0.06486 0.41162 0.58371 0.0
O379 O 0.06799 0.41416 0.53356 0.0
Cd380 Cd 0.09261 0.41727 0.49381 0.0
O381 O 0.07532 0.41092 0.61983 0.0
Cd382 Cd 0.10327 0.41457 0.61963 0.0
C383 C 0.10198 0.44954 0.56256 0.0
O384 O 0.10848 0.39958 0.53873 0.0
O385 O 0.12748 0.4124 0.56953 0.0
O386 O 0.10644 0.39468 0.68746 0.0
C387 C 0.12244 0.40277 0.53541 0.0
O388 O 0.10016 0.4429 0.51665 0.0
C389 C 0.11392 0.40268 0.72131 0.0
O390 O 0.10195 0.44224 0.60776 0.0
O391 O 0.11577 0.41659 0.70925 0.0
C392 C 0.33809 0.69455 0.65416 0.0
O393 O 0.33645 0.69099 0.70439 0.0
Cd394 Cd 0.33173 0.66647 0.74155 0.0
O395 O 0.33746 0.6845 0.61654 0.0
Cd396 Cd 0.33307 0.65654 0.61351 0.0
C397 C 0.29851 0.65873 0.67329 0.0
O398 O 0.34742 0.64906 0.69381 0.0
O399 O 0.33284 0.63188 0.65934 0.0
O400 O 0.35299 0.65185 0.54704 0.0
C401 C 0.34267 0.6355 0.69498 0.0
O402 O 0.30553 0.66154 0.71787 0.0
C403 C 0.34438 0.64604 0.51094 0.0
O404 O 0.3056 0.65712 0.62799 0.0
O405 O 0.33025 0.64588 0.52131 0.0
C406 C 0.04439 0.57935 0.36051 0.0
O407 O 0.04569 0.58177 0.41185 0.0
Cd408 Cd 0.06716 0.58941 0.46515 0.0
O409 O 0.05588 0.57978 0.32868 0.0
Cd410 Cd 0.0835 0.5826 0.34635 0.0
C411 C 0.0861 0.55635 0.45009 0.0
O412 O 0.08024 0.605 0.40216 0.0
O413 O 0.10325 0.59773 0.39269 0.0
O414 O 0.08638 0.59067 0.25123 0.0
C415 C 0.09405 0.60718 0.41327 0.0
O416 O 0.08105 0.56621 0.48363 0.0
C417 C 0.09867 0.58341 0.24363 0.0
O418 O 0.08662 0.55896 0.39857 0.0
O419 O 0.1033 0.57507 0.28273 0.0
C420 C 0.18124 0.30053 0.13914 0.0
O421 O 0.18381 0.3012 0.19046 0.0
Cd422 Cd 0.19032 0.32319 0.2416 0.0
O423 O 0.18173 0.31244 0.10939 0.0
Cd424 Cd 0.18673 0.34006 0.12225 0.0
C425 C 0.22234 0.33342 0.16832 0.0
O426 O 0.17372 0.34219 0.20878 0.0
O427 O 0.18583 0.3623 0.18364 0.0
O428 O 0.16481 0.34529 0.06602 0.0
C429 C 0.17722 0.35586 0.21827 0.0
O430 O 0.21583 0.32831 0.2112 0.0
C431 C 0.17163 0.3533 0.03048 0.0
O432 O 0.21466 0.33827 0.12749 0.0
O433 O 0.1859 0.35483 0.03621 0.0
C434 C 0.45352 0.40743 0.9073 0.0
O435 O 0.45462 0.40406 0.95803 0.0
Cd436 Cd 0.43695 0.39201 0.01887 0.0
O437 O 0.44121 0.40535 0.88069 0.0
Cd438 Cd 0.41513 0.39694 0.90515 0.0
C439 C 0.411 0.42068 0.01768 0.0
O440 O 0.42464 0.37581 0.95586 0.0
O441 O 0.40052 0.37607 0.94768 0.0
O442 O 0.4117 0.39083 0.80881 0.0
C443 C 0.41212 0.36988 0.96866 0.0
O444 O 0.42018 0.41258 0.04551 0.0
C445 C 0.39831 0.39616 0.80607 0.0
O446 O 0.40829 0.41774 0.96728 0.0
O447 O 0.39302 0.4024 0.84904 0.0
C448 C 0.24899 0.14581 0.31334 0.0
C449 C 0.25853 0.15583 0.28485 0.0
C450 C 0.23348 0.14481 0.30028 0.0
C451 C 0.22741 0.1543 0.25874 0.0
C452 C 0.23698 0.16456 0.23047 0.0
C453 C 0.25242 0.16508 0.24351 0.0
C454 C 0.22362 0.13356 0.33048 0.0
C455 C 0.23089 0.17509 0.18661 0.0
C456 C 0.19131 0.14651 0.17947 0.0
C457 C 0.18117 0.15664 0.2045 0.0
C458 C 0.20616 0.14482 0.19928 0.0
C459 C 0.21105 0.15374 0.24433 0.0
C460 C 0.20067 0.16351 0.27114 0.0
C461 C 0.18579 0.16473 0.25122 0.0
C462 C 0.21682 0.13405 0.17032 0.0
C463 C 0.20554 0.17342 0.31863 0.0
H464 H 0.2537 0.13859 0.34516 0.0
H465 H 0.2597 0.17298 0.22173 0.0
H466 H 0.21428 0.13956 0.35192 0.0
H467 H 0.21832 0.12562 0.30072 0.0
H468 H 0.23013 0.12686 0.36118 0.0
H469 H 0.2398 0.18269 0.16965 0.0
H470 H 0.22601 0.16838 0.15233 0.0
H471 H 0.22165 0.1822 0.20374 0.0
H472 H 0.18771 0.14009 0.14378 0.0
H473 H 0.178 0.17259 0.27068 0.0
H474 H 0.223 0.12695 0.20063 0.0
H475 H 0.22542 0.14063 0.14703 0.0
H476 H 0.21076 0.12649 0.14113 0.0
H477 H 0.21154 0.1666 0.35018 0.0
H478 H 0.19578 0.17926 0.33834 0.0
H479 H 0.21361 0.18216 0.30364 0.0
C480 C 0.08453 0.95592 0.53864 0.0
C481 C 0.09245 0.94957 0.49425 0.0
C482 C 0.08402 0.97166 0.54624 0.0
C483 C 0.0919 0.98121 0.5092 0.0
C484 C 0.1011 0.9748 0.46757 0.0
C485 C 0.10114 0.95901 0.46016 0.0
C486 C 0.07392 0.97806 0.59075 0.0
C487 C 0.11001 0.98463 0.42832 0.0
C488 C 0.0725 0.0184 0.47716 0.0
C489 C 0.0802 0.02851 0.51171 0.0
C490 C 0.07638 0.00302 0.47559 0.0
C491 C 0.08849 -0.00232 0.50854 0.0
C492 C 0.09667 0.00789 0.54224 0.0
C493 C 0.0923 0.02321 0.54395 0.0
C494 C 0.06721 0.99243 0.43974 0.0
C495 C 0.10987 0.00261 0.57685 0.0
H496 H 0.07783 0.9487 0.56531 0.0
H497 H 0.10748 0.95414 0.42629 0.0
H498 H 0.07987 0.9871 0.61397 0.0
H499 H 0.06373 0.98327 0.57165 0.0
H500 H 0.07011 0.9692 0.62016 0.0
H501 H 0.11868 0.97799 0.40545 0.0
H502 H 0.10216 0.98983 0.39806 0.0
H503 H 0.11574 0.99399 0.45064 0.0
H504 H 0.0631 0.02243 0.45236 0.0
H505 H 0.09837 0.03104 0.57034 0.0
H506 H 0.06185 0.98352 0.46547 0.0
H507 H 0.07473 0.98664 0.4098 0.0
H508 H 0.05814 -0.00155 0.41664 0.0
H509 H 0.1058 0.99467 0.60902 0.0
H510 H 0.11582 0.01219 0.59719 0.0
H511 H 0.11813 -0.00369 0.55106 0.0
C512 C 0.21406 0.81302 0.7467 0.0
C513 C 0.20868 0.82315 0.78668 0.0
C514 C 0.22918 0.81357 0.72881 0.0
C515 C 0.23904 0.8247 0.75072 0.0
C516 C 0.23363 0.83507 0.79063 0.0
C517 C 0.21853 0.83407 0.80853 0.0
C518 C 0.23465 0.80216 0.68695 0.0
C519 C 0.24377 0.84724 0.81432 0.0
C520 C 0.28167 0.8192 0.74775 0.0
C521 C 0.28589 0.82829 0.70299 0.0
C522 C 0.2664 0.81754 0.76264 0.0
C523 C 0.25511 0.8254 0.73264 0.0
C524 C 0.25926 0.83438 0.68675 0.0
C525 C 0.27461 0.8356 0.67213 0.0
C526 C 0.26238 0.80763 0.81116 0.0
C527 C 0.24753 0.84308 0.65424 0.0
H528 H 0.20651 0.80449 0.72993 0.0
H529 H 0.2144 0.842 0.83913 0.0
H530 H 0.23898 0.8081 0.64994 0.0
H531 H 0.24422 0.79549 0.70423 0.0
H532 H 0.22555 0.79419 0.67415 0.0
H533 H 0.23767 0.85471 0.84373 0.0
H534 H 0.25351 0.84195 0.83592 0.0
H535 H 0.24847 0.85435 0.78074 0.0
H536 H 0.29035 0.81341 0.77144 0.0
H537 H 0.27782 0.84271 0.63767 0.0
H538 H 0.25366 0.79917 0.79912 0.0
H539 H 0.25744 0.81468 0.84443 0.0
H540 H 0.27239 0.8015 0.82783 0.0
H541 H 0.2386 0.83527 0.63897 0.0
H542 H 0.25256 0.84914 0.61859 0.0
H543 H 0.24188 0.85151 0.68126 0.0
C544 C 0.4231 0.04675 0.00588 0.0
C545 C 0.41353 0.05064 0.96198 0.0
C546 C 0.42428 0.03167 0.0239 0.0
C547 C 0.41549 0.0203 -0.00201 0.0
C548 C 0.40583 0.02417 0.95364 0.0
C549 C 0.40507 0.03927 0.93586 0.0
C550 C 0.43493 0.02789 0.07059 0.0
C551 C 0.39615 0.01237 0.92536 0.0
C552 C 0.42578 0.97864 0.00414 0.0
C553 C 0.4155 0.97322 0.04355 0.0
C554 C 0.42642 0.99409 0.99085 0.0
C555 C 0.41633 0.00431 0.01688 0.0
C556 C 0.40631 -0.001 0.05813 0.0
C557 C 0.40611 0.98351 0.07136 0.0
C558 C 0.43748 -0.00061 0.94748 0.0
C559 C 0.39527 0.00956 0.08632 0.0
H560 H 0.42973 0.05548 0.02601 0.0
H561 H 0.39757 0.04222 0.90218 0.0
H562 H 0.42845 0.02302 0.10548 0.0
H563 H 0.44323 0.01917 0.0572 0.0
H564 H 0.44125 0.03799 0.08546 0.0
H565 H 0.38905 0.01729 0.89211 0.0
H566 H 0.40346 0.00341 0.90736 0.0
H567 H 0.38858 0.0068 0.95575 0.0
H568 H 0.43318 0.97074 0.98296 0.0
H569 H 0.39811 0.97935 0.10172 0.0
H570 H 0.44405 0.00928 0.96262 0.0
H571 H 0.43118 0.00313 0.91041 0.0
H572 H 0.44556 0.99031 0.93524 0.0
H573 H 0.40135 0.01948 0.10368 0.0
H574 H 0.38892 0.00384 0.11992 0.0
H575 H 0.38699 0.01395 0.05584 0.0
C576 C 0.76469 0.83777 0.83034 0.0
C577 C 0.77409 0.82827 0.799 0.0
C578 C 0.74897 0.83827 0.82085 0.0
C579 C 0.74256 0.82888 0.7797 0.0
C580 C 0.75195 0.81893 0.74928 0.0
C581 C 0.76759 0.81882 0.75906 0.0
C582 C 0.73928 0.84911 0.85365 0.0
C583 C 0.74552 0.80855 0.70565 0.0
C584 C 0.70085 0.81872 0.77436 0.0
C585 C 0.69593 0.82737 0.72928 0.0
C586 C 0.71586 0.81967 0.79321 0.0
C587 C 0.72611 0.82963 0.76677 0.0
C588 C 0.72097 0.83907 0.72352 0.0
C589 C 0.70596 0.83776 0.70502 0.0
C590 C 0.72096 0.80932 0.83912 0.0
C591 C 0.73153 0.85001 0.69486 0.0
H592 H 0.76968 0.84513 0.8611 0.0
H593 H 0.77478 0.81134 0.73509 0.0
H594 H 0.73421 0.85769 0.82576 0.0
H595 H 0.72978 0.84294 0.87349 0.0
H596 H 0.74589 0.85511 0.88593 0.0
H597 H 0.75428 0.801 0.68752 0.0
H598 H 0.73637 0.80141 0.72332 0.0
H599 H 0.74041 0.81541 0.67215 0.0
H600 H 0.69318 0.81068 0.79343 0.0
H601 H 0.70219 0.84461 0.67062 0.0
H602 H 0.72737 0.81578 0.87059 0.0
H603 H 0.72872 0.80054 0.82234 0.0
H604 H 0.71127 0.80352 0.85941 0.0
H605 H 0.73786 0.85688 0.72542 0.0
H606 H 0.72537 0.85779 0.66672 0.0
H607 H 0.74 0.84356 0.6705 0.0
C608 C 0.92065 0.96998 0.49053 0.0
C609 C 0.91023 0.9638 0.45319 0.0
C610 C 0.91934 0.98504 0.50835 0.0
C611 C 0.90712 0.99402 0.48926 0.0
C612 C 0.89684 0.988 0.45015 0.0
C613 C 0.89862 0.97297 0.43207 0.0
C614 C 0.93077 0.99116 0.54899 0.0
C615 C 0.88358 -0.0028 0.42937 0.0
C616 C 0.89475 0.02593 0.58402 0.0
C617 C 0.90108 0.03861 0.558 0.0
C618 C 0.89636 0.01137 0.56138 0.0
C619 C 0.90478 0.00945 0.51222 0.0
C620 C 0.91132 0.0222 0.48607 0.0
C621 C 0.90928 0.03665 0.50902 0.0
C622 C 0.88906 -0.00197 0.59003 0.0
C623 C 0.92064 0.02056 0.4343 0.0
H624 H 0.92972 0.96294 0.50658 0.0
H625 H 0.89048 0.96816 0.40354 0.0
H626 H 0.93551 0.00207 0.53403 0.0
H627 H 0.9251 0.99346 0.58884 0.0
H628 H 0.94028 0.98313 0.55625 0.0
H629 H 0.87707 0.99115 0.39697 0.0
H630 H 0.8758 -0.0002 0.464 0.0
H631 H 0.88756 0.0082 0.4125 0.0
H632 H 0.88831 0.02741 0.62162 0.0
H633 H 0.91429 0.04641 0.48889 0.0
H634 H 0.89791 0.98988 0.60341 0.0
H635 H 0.88145 0.99195 0.56113 0.0
H636 H 0.88236 0.00153 0.62659 0.0
H637 H 0.93051 0.01304 0.44219 0.0
H638 H 0.92489 0.03164 0.41888 0.0
H639 H 0.91376 0.01515 0.40152 0.0
C640 C 0.68796 0.17223 0.22803 0.0
C641 C 0.68275 0.16496 0.27574 0.0
C642 C 0.70345 0.17237 0.21468 0.0
C643 C 0.71389 0.16482 0.24936 0.0
C644 C 0.70865 0.15715 0.29687 0.0
C645 C 0.69315 0.15744 0.30979 0.0
C646 C 0.70868 0.18091 0.1643 0.0
C647 C 0.71944 0.14878 0.33442 0.0
C648 C 0.75338 0.15472 0.19855 0.0
C649 C 0.76218 0.16564 0.22564 0.0
C650 C 0.73754 0.15448 0.20482 0.0
C651 C 0.73042 0.16561 0.23797 0.0
C652 C 0.73922 0.17711 0.26303 0.0
C653 C 0.75501 0.17688 0.25704 0.0
C654 C 0.72851 0.14193 0.17812 0.0
C655 C 0.732 0.18939 0.29765 0.0
H656 H 0.67997 0.17811 0.20167 0.0
H657 H 0.68915 0.15167 0.34639 0.0
H658 H 0.7163 0.19033 0.17672 0.0
H659 H 0.7153 0.17332 0.13698 0.0
H660 H 0.69905 0.18573 0.14053 0.0
H661 H 0.71342 0.14259 0.36768 0.0
H662 H 0.72628 0.14054 0.31045 0.0
H663 H 0.72745 0.15693 0.35353 0.0
H664 H 0.75894 0.14597 0.1745 0.0
H665 H 0.7618 0.18544 0.27755 0.0
H666 H 0.71904 0.14673 0.15364 0.0
H667 H 0.72342 0.13462 0.21037 0.0
H668 H 0.73562 0.13473 0.15085 0.0
H669 H 0.72267 0.19495 0.27462 0.0
H670 H 0.7403 0.1982 0.31036 0.0
H671 H 0.72698 0.1843 0.33518 0.0
C672 C 0.59589 0.00887 0.88154 0.0
C673 C 0.58225 0.01383 0.90512 0.0
C674 C 0.60017 0.9935 0.88452 0.0
C675 C 0.59047 0.98302 0.91124 0.0
C676 C 0.57628 0.98791 0.93206 0.0
C677 C 0.5724 0.00324 0.92894 0.0
C678 C 0.61536 0.98871 0.86178 0.0
C679 C 0.56542 0.97707 0.95994 0.0
C680 C 0.58992 0.94046 0.90444 0.0
C681 C 0.59442 0.93684 0.95828 0.0
C682 C 0.59023 0.95549 0.88562 0.0
C683 C 0.59519 0.9671 0.92148 0.0
C684 C 0.60153 0.96325 0.97311 0.0
C685 C 0.60104 0.94813 0.99102 0.0
C686 C 0.58368 0.95909 0.82981 0.0
C687 C 0.60729 0.97528 0.01201 0.0
H688 H 0.60354 0.01708 0.86326 0.0
H689 H 0.56174 0.00704 0.9465 0.0
H690 H 0.62356 0.98751 0.89611 0.0
H691 H 0.61458 0.97755 0.8409 0.0
H692 H 0.61993 -0.00281 0.83234 0.0
H693 H 0.5545 0.98258 0.971 0.0
H694 H 0.56297 0.96728 0.9327 0.0
H695 H 0.57066 0.97256 -0.00192 0.0
H696 H 0.5851 0.93175 0.87824 0.0
H697 H 0.60487 0.9454 0.03219 0.0
H698 H 0.59025 0.96819 0.80919 0.0
H699 H 0.57186 0.96321 0.83484 0.0
H700 H 0.58347 0.94893 0.80278 0.0
H701 H 0.61416 0.98383 0.98968 0.0
H702 H 0.61427 0.97035 0.04558 0.0
H703 H 0.59749 0.98126 0.03079 0.0
C704 C 0.73344 0.64213 0.62775 0.0
C705 C 0.72165 0.6353 0.65725 0.0
C706 C 0.74841 0.64141 0.6471 0.0
C707 C 0.75157 0.63324 0.69595 0.0
C708 C 0.73992 0.6248 0.72187 0.0
C709 C 0.72497 0.62623 0.70289 0.0
C710 C 0.76041 0.65086 0.61895 0.0
C711 C 0.74296 0.61543 0.77261 0.0
C712 C 0.79288 0.63012 0.7387 0.0
C713 C 0.79379 0.64157 0.77853 0.0
C714 C 0.77907 0.62687 0.71251 0.0
C715 C 0.76614 0.63573 0.72503 0.0
C716 C 0.76709 0.64738 0.76512 0.0
C717 C 0.78087 0.64994 0.7922 0.0
C718 C 0.7783 0.61399 0.67172 0.0
C719 C 0.75365 0.65736 0.77862 0.0
H720 H 0.73077 0.64931 0.59285 0.0
H721 H 0.71577 0.62097 0.72557 0.0
H722 H 0.76281 0.66105 0.64431 0.0
H723 H 0.77117 0.64445 0.61481 0.0
H724 H 0.75673 0.65468 0.5775 0.0
H725 H 0.73368 0.60717 0.7805 0.0
H726 H 0.75383 0.60916 0.7687 0.0
H727 H 0.74389 0.62301 0.80885 0.0
H728 H 0.80294 0.62358 0.72866 0.0
H729 H 0.78169 0.65886 0.82277 0.0
H730 H 0.77541 0.61841 0.63035 0.0
H731 H 0.76918 0.60596 0.68366 0.0
H732 H 0.78918 0.60767 0.66892 0.0
H733 H 0.74933 0.66285 0.74065 0.0
H734 H 0.75653 0.66636 0.80885 0.0
H735 H 0.7443 0.6504 0.79578 0.0
C736 C 0.59348 0.48815 0.86654 0.0
C737 C 0.58478 0.47771 0.89647 0.0
C738 C 0.59192 0.50382 0.87554 0.0
C739 C 0.58119 0.50909 0.91448 0.0
C740 C 0.57191 0.4986 0.94288 0.0
C741 C 0.57393 0.48303 0.93396 0.0
C742 C 0.60218 0.51468 0.84514 0.0
C743 C 0.56012 0.50379 0.98389 0.0
C744 C 0.58712 0.54635 0.98896 0.0
C745 C 0.57719 0.55602 0.9607 0.0
C746 C 0.58889 0.53117 0.97306 0.0
C747 C 0.5803 0.52546 0.92846 0.0
C748 C 0.57036 0.53519 0.89938 0.0
C749 C 0.56902 0.55042 0.91556 0.0
C750 C 0.59979 0.52119 0.00456 0.0
C751 C 0.56082 0.52941 0.85228 0.0
H752 H 0.60192 0.48406 0.83768 0.0
H753 H 0.56705 0.47498 0.95668 0.0
H754 H 0.59537 0.5236 0.82448 0.0
H755 H 0.60979 0.52046 0.87482 0.0
H756 H 0.60926 0.50885 0.81382 0.0
H757 H 0.55297 0.49427 -0.00105 0.0
H758 H 0.56579 0.50912 0.01971 0.0
H759 H 0.55263 0.51249 0.96513 0.0
H760 H 0.59358 0.55066 0.02353 0.0
H761 H 0.56129 0.55785 0.89371 0.0
H762 H 0.60788 0.51568 0.97587 0.0
H763 H 0.59343 0.51203 0.02575 0.0
H764 H 0.60634 0.52763 0.0358 0.0
H765 H 0.56814 0.52401 0.82074 0.0
H766 H 0.55412 0.53858 0.83247 0.0
H767 H 0.55288 0.52058 0.86743 0.0
C768 C 0.7227 0.33517 0.29333 0.0
C769 C 0.71253 0.32819 0.25703 0.0
C770 C 0.73842 0.33354 0.28637 0.0
C771 C 0.74402 0.32445 0.24283 0.0
C772 C 0.73378 0.31687 0.20752 0.0
C773 C 0.71814 0.31897 0.21468 0.0
C774 C 0.74904 0.34198 0.32431 0.0
C775 C 0.73933 0.30681 0.16144 0.0
C776 C 0.78326 0.33313 0.18733 0.0
C777 C 0.79218 0.32247 0.21529 0.0
C778 C 0.76755 0.33388 0.19595 0.0
C779 C 0.76059 0.3235 0.2325 0.0
C780 C 0.76947 0.31238 0.2595 0.0
C781 C 0.78521 0.31211 0.25103 0.0
C782 C 0.75847 0.34603 0.167 0.0
C783 C 0.76236 0.3009 0.29771 0.0
H784 H 0.71838 0.34237 0.32593 0.0
H785 H 0.71029 0.31342 0.18688 0.0
H786 H 0.75712 0.33398 0.3438 0.0
H787 H 0.75583 0.35026 0.30028 0.0
H788 H 0.74287 0.3482 0.35718 0.0
H789 H 0.72989 0.30079 0.14048 0.0
H790 H 0.74547 0.31374 0.13053 0.0
H791 H 0.74746 0.29828 0.17751 0.0
H792 H 0.78862 0.34124 0.16002 0.0
H793 H 0.79207 0.30378 0.27246 0.0
H794 H 0.7528 0.3534 0.19778 0.0
H795 H 0.74943 0.34077 0.14164 0.0
H796 H 0.76563 0.35325 0.13999 0.0
H797 H 0.75715 0.30678 0.33335 0.0
H798 H 0.77074 0.29252 0.3133 0.0
H799 H 0.75314 0.2947 0.27619 0.0
C800 C 0.91668 0.4664 0.58678 0.0
C801 C 0.92369 0.4554 0.55382 0.0
C802 C 0.91624 0.48165 0.57043 0.0
C803 C 0.92324 0.48601 0.52048 0.0
C804 C 0.93074 0.47504 0.48784 0.0
C805 C 0.93074 0.45982 0.50466 0.0
C806 C 0.90795 0.49302 0.60589 0.0
C807 C 0.93859 0.47934 0.4349 0.0
C808 C 0.90891 0.52203 0.45302 0.0
C809 C 0.91939 0.53275 0.4722 0.0
C810 C 0.91015 0.50671 0.46785 0.0
C811 C 0.92233 0.502 0.50177 0.0
C812 C 0.93327 0.51267 0.51949 0.0
C813 C 0.93159 0.52797 0.50493 0.0
C814 C 0.89816 0.49566 0.44877 0.0
C815 C 0.94659 0.50798 0.55472 0.0
H816 H 0.91113 0.46302 0.62464 0.0
H817 H 0.93628 0.45136 0.47925 0.0
H818 H 0.91573 0.50233 0.61796 0.0
H819 H 0.89851 0.49819 0.5822 0.0
H820 H 0.90322 0.4878 0.64376 0.0
H821 H 0.94462 0.46959 0.41589 0.0
H822 H 0.93015 0.48375 0.40504 0.0
H823 H 0.9469 0.48856 0.44255 0.0
H824 H 0.89942 0.52569 0.42796 0.0
H825 H 0.93979 0.53622 0.51946 0.0
H826 H 0.89218 0.49081 0.4849 0.0
H827 H 0.90349 0.48608 0.42636 0.0
H828 H 0.88963 0.50108 0.42145 0.0
H829 H 0.94247 0.50389 0.59518 0.0
H830 H 0.95466 0.51747 0.56175 0.0
H831 H 0.95278 0.49846 0.53509 0.0
C832 C 0.30515 0.34506 0.26623 0.0
C833 C 0.31612 0.33566 0.24203 0.0
C834 C 0.29063 0.34645 0.24334 0.0
C835 C 0.28697 0.33818 0.19527 0.0
C836 C 0.29838 0.3298 0.16785 0.0
C837 C 0.31286 0.32865 0.19155 0.0
C838 C 0.27883 0.3557 0.27344 0.0
C839 C 0.29497 0.32096 0.11618 0.0
C840 C 0.24694 0.32318 0.20055 0.0
C841 C 0.23909 0.33361 0.16765 0.0
C842 C 0.26264 0.32413 0.20732 0.0
C843 C 0.27076 0.3359 0.18078 0.0
C844 C 0.26306 0.34598 0.14495 0.0
C845 C 0.24723 0.34468 0.1386 0.0
C846 C 0.27042 0.31298 0.24527 0.0
C847 C 0.27135 0.3586 0.11577 0.0
H848 H 0.30765 0.35077 0.30465 0.0
H849 H 0.32132 0.32152 0.17208 0.0
H850 H 0.27223 0.36277 0.24423 0.0
H851 H 0.27074 0.34794 0.29428 0.0
H852 H 0.28398 0.36322 0.30496 0.0
H853 H 0.30551 0.31764 0.09415 0.0
H854 H 0.28868 0.31048 0.12712 0.0
H855 H 0.28769 0.32765 0.08792 0.0
H856 H 0.24071 0.31444 0.22235 0.0
H857 H 0.24117 0.35275 0.1131 0.0
H858 H 0.27488 0.31905 0.28183 0.0
H859 H 0.2802 0.3076 0.2242 0.0
H860 H 0.26263 0.30389 0.25961 0.0
H861 H 0.2741 0.36769 0.14567 0.0
H862 H 0.26442 0.36361 0.0822 0.0
H863 H 0.28223 0.35446 0.09834 0.0
C864 C 0.39005 0.50592 0.11029 0.0
C865 C 0.4006 0.51327 0.07636 0.0
C866 C 0.38932 0.48997 0.11182 0.0
C867 C 0.3995 0.48138 0.07916 0.0
C868 C 0.41062 0.48884 0.04705 0.0
C869 C 0.41096 0.50466 0.04585 0.0
C870 C 0.37727 0.4824 0.14629 0.0
C871 C 0.42192 0.48015 0.01239 0.0
C872 C 0.41102 0.44053 0.09105 0.0
C873 C 0.40481 0.43473 0.04225 0.0
C874 C 0.40794 0.45543 0.10782 0.0
C875 C 0.39836 0.46463 0.07513 0.0
C876 C 0.39056 0.45819 0.02994 0.0
C877 C 0.39396 0.44331 0.01377 0.0
C878 C 0.4163 0.46182 0.15676 0.0
C879 C 0.37993 0.46751 -0.00509 0.0
H880 H 0.38202 0.51261 0.13384 0.0
H881 H 0.4193 0.51034 0.0203 0.0
H882 H 0.36796 0.47845 0.11915 0.0
H883 H 0.38188 0.4723 0.16782 0.0
H884 H 0.3724 0.49029 0.17721 0.0
H885 H 0.43034 0.48771 0.99223 0.0
H886 H 0.42815 0.47183 0.03812 0.0
H887 H 0.41586 0.47372 0.97993 0.0
H888 H 0.41922 0.43388 0.11398 0.0
H889 H 0.3888 0.43877 0.97681 0.0
H890 H 0.40892 0.46956 0.18081 0.0
H891 H 0.42619 0.46849 0.14213 0.0
H892 H 0.42054 0.45269 0.18428 0.0
H893 H 0.37257 0.47477 0.02092 0.0
H894 H 0.37264 0.46025 0.96854 0.0
H895 H 0.38668 0.47509 0.96785 0.0
C896 C 0.27361 0.6648 0.71536 0.0
C897 C 0.28191 0.65695 0.67537 0.0
C898 C 0.25797 0.66261 0.72094 0.0
C899 C 0.25052 0.65204 0.68646 0.0
C900 C 0.25881 0.64412 0.64568 0.0
C901 C 0.27445 0.64682 0.64015 0.0
C902 C 0.24945 0.67156 0.76404 0.0
C903 C 0.25125 0.63257 0.60897 0.0
C904 C 0.21333 0.6394 0.74893 0.0
C905 C 0.2031 0.6492 0.72276 0.0
C906 C 0.22874 0.63931 0.73436 0.0
C907 C 0.23401 0.6495 0.69355 0.0
C908 C 0.22358 0.65874 0.66475 0.0
C909 C 0.20822 0.65837 0.67935 0.0
C910 C 0.23951 0.62902 0.765 0.0
C911 C 0.22878 0.66992 0.62158 0.0
H912 H 0.27937 0.67271 0.74238 0.0
H913 H 0.28092 0.64063 0.6096 0.0
H914 H 0.23997 0.67791 0.74471 0.0
H915 H 0.24443 0.66372 0.79475 0.0
H916 H 0.25686 0.67977 0.78597 0.0
H917 H 0.25924 0.62763 0.57853 0.0
H918 H 0.2465 0.62326 0.63438 0.0
H919 H 0.24163 0.63784 0.58656 0.0
H920 H 0.20941 0.63215 0.78203 0.0
H921 H 0.2004 0.66597 0.65876 0.0
H922 H 0.24649 0.63586 0.79376 0.0
H923 H 0.24739 0.62333 0.736 0.0
H924 H 0.2334 0.62023 0.78909 0.0
H925 H 0.23516 0.67926 0.64168 0.0
H926 H 0.21912 0.67493 0.59852 0.0
H927 H 0.23658 0.6644 0.59192 0.0
C928 C 0.08983 0.4743 0.58005 0.0
C929 C 0.10251 0.46613 0.56238 0.0
C930 C 0.08832 0.48974 0.56728 0.0
C931 C 0.09999 0.49712 0.5374 0.0
C932 C 0.11341 0.48913 0.52373 0.0
C933 C 0.11437 0.47359 0.5354 0.0
C934 C 0.07368 0.49776 0.58147 0.0
C935 C 0.1263 0.49673 0.49351 0.0
C936 C 0.08802 0.52836 0.43963 0.0
C937 C 0.09063 0.54136 0.47124 0.0
C938 C 0.09104 0.5139 0.46085 0.0
C939 C 0.09729 0.51247 0.51427 0.0
C940 C 0.1005 0.52561 0.54557 0.0
C941 C 0.09688 0.53993 0.52399 0.0
C942 C 0.08712 0.50013 0.42665 0.0
C943 C 0.10764 0.52452 0.60185 0.0
H944 H 0.08058 0.46835 0.6001 0.0
H945 H 0.12411 0.46712 0.52151 0.0
H946 H 0.07601 0.50885 0.60124 0.0
H947 H 0.06723 0.50006 0.54316 0.0
H948 H 0.06642 0.4909 0.60936 0.0
H949 H 0.13681 0.48978 0.49447 0.0
H950 H 0.12305 0.49853 0.44994 0.0
H951 H 0.12876 0.50802 0.51159 0.0
H952 H 0.08306 0.52948 0.39903 0.0
H953 H 0.099 0.55003 0.54827 0.0
H954 H 0.07898 0.49283 0.44932 0.0
H955 H 0.09745 0.49327 0.41896 0.0
H956 H 0.08202 0.50322 0.38641 0.0
H957 H 0.0998 0.51867 0.63052 0.0
H958 H 0.11042 0.53586 0.61912 0.0
H959 H 0.11818 0.51766 0.59982 0.0
C960 C 0.13957 0.12321 0.91423 0.0
C961 C 0.13857 0.13908 0.91407 0.0
C962 C 0.13337 0.11464 0.87122 0.0
C963 C 0.12646 0.12221 0.82642 0.0
C964 C 0.12673 0.13826 0.82372 0.0
C965 C 0.13256 0.14653 0.86817 0.0
C966 C 0.13302 0.09756 0.8762 0.0
C967 C 0.11998 0.14671 0.7756 0.0
C968 C 0.1155 0.09944 0.70022 0.0
C969 C 0.09978 0.09804 0.70753 0.0
C970 C 0.1244 0.10733 0.73852 0.0
C971 C 0.11743 0.11349 0.78588 0.0
C972 C 0.10162 0.11162 0.79431 0.0
C973 C 0.09293 0.10413 0.75444 0.0
C974 C 0.14113 0.10949 0.72745 0.0
C975 C 0.09386 0.11765 0.84518 0.0
H976 H 0.1441 0.11742 0.94999 0.0
H977 H 0.13188 0.15882 0.86798 0.0
H978 H 0.12121 0.09383 0.88449 0.0
H979 H 0.13666 0.09213 0.83727 0.0
H980 H 0.1404 0.0934 0.91002 0.0
H981 H 0.1232 0.1589 0.7757 0.0
H982 H 0.1237 0.14156 0.73622 0.0
H983 H 0.10742 0.14593 0.77727 0.0
H984 H 0.12075 0.09487 0.66348 0.0
H985 H 0.08078 0.10297 0.76007 0.0
H986 H 0.14794 0.10523 0.76254 0.0
H987 H 0.14364 0.12178 0.72317 0.0
H988 H 0.14488 0.10359 0.68946 0.0
H989 H 0.09968 0.1134 0.88259 0.0
H990 H 0.08171 0.11432 0.84721 0.0
H991 H 0.09455 0.13022 0.84588 0.0
C992 C 0.15583 0.87339 0.02879 0.0
C993 C 0.15638 0.85766 0.03675 0.0
C994 C 0.1488 0.88284 0.06763 0.0
C995 C 0.14262 0.87634 0.11589 0.0
C996 C 0.14428 0.8606 0.12595 0.0
C997 C 0.15093 0.85139 0.08573 0.0
C998 C 0.14699 0.89951 0.05502 0.0
C999 C 0.13827 0.85332 0.1778 0.0
C1000 C 0.13039 0.89928 0.2396 0.0
C1001 C 0.11456 0.89798 0.23599 0.0
C1002 C 0.1398 0.89296 0.19916 0.0
C1003 C 0.13314 0.88555 0.1536 0.0
C1004 C 0.11715 0.88539 0.1475 0.0
C1005 C 0.10803 0.89142 0.1893 0.0
C1006 C 0.15678 0.89313 0.20757 0.0
C1007 C 0.10965 0.87801 0.09851 0.0
H1008 H 0.15991 0.8782 0.9905 0.0
H1009 H 0.15145 0.83921 0.09181 0.0
H1010 H 0.13497 0.90186 0.0444 0.0
H1011 H 0.14984 0.90653 0.09143 0.0
H1012 H 0.15423 0.90314 0.01999 0.0
H1013 H 0.14211 0.84138 0.18225 0.0
H1014 H 0.142 0.85982 0.21447 0.0
H1015 H 0.12568 0.85346 0.1772 0.0
H1016 H 0.13547 0.90429 0.27592 0.0
H1017 H 0.09578 0.89054 0.18633 0.0
H1018 H 0.16273 0.89625 0.16903 0.0
H1019 H 0.16064 0.88158 0.21923 0.0
H1020 H 0.16022 0.90116 0.24049 0.0
H1021 H 0.11517 0.88175 0.05981 0.0
H1022 H 0.09735 0.88069 0.09619 0.0
H1023 H 0.11096 0.86551 0.10131 0.0
C1024 C 0.37262 0.915 0.29614 0.0
C1025 C 0.3772 0.90681 0.24969 0.0
C1026 C 0.36484 0.90774 0.33921 0.0
C1027 C 0.36139 0.89207 0.33485 0.0
C1028 C 0.36525 0.88403 0.28656 0.0
C1029 C 0.37322 0.89147 0.24484 0.0
C1030 C 0.36102 0.91661 0.39043 0.0
C1031 C 0.36161 0.86737 0.27998 0.0
C1032 C 0.36048 0.86749 0.46196 0.0
C1033 C 0.34487 0.86541 0.47016 0.0
C1034 C 0.36592 0.87654 0.41909 0.0
C1035 C 0.3555 0.88355 0.3829 0.0
C1036 C 0.3397 0.88153 0.39075 0.0
C1037 C 0.33455 0.87253 0.43466 0.0
C1038 C 0.38287 0.87846 0.41224 0.0
C1039 C 0.32831 0.88868 0.35235 0.0
H1040 H 0.37562 0.92688 0.29974 0.0
H1041 H 0.3765 0.88516 0.20844 0.0
H1042 H 0.34901 0.91472 0.40233 0.0
H1043 H 0.36819 0.91257 0.42497 0.0
H1044 H 0.36293 0.92898 0.38501 0.0
H1045 H 0.36381 0.86326 0.23755 0.0
H1046 H 0.36865 0.86062 0.30883 0.0
H1047 H 0.34954 0.86517 0.29027 0.0
H1048 H 0.36854 0.86216 0.48956 0.0
H1049 H 0.32247 0.87101 0.44104 0.0
H1050 H 0.38584 0.89069 0.41118 0.0
H1051 H 0.38654 0.87344 0.37259 0.0
H1052 H 0.38939 0.87297 0.44588 0.0
H1053 H 0.33016 0.90112 0.35013 0.0
H1054 H 0.31642 0.88653 0.36543 0.0
H1055 H 0.32987 0.88411 0.31024 0.0
C1056 C 0.35585 0.09659 0.72719 0.0
C1057 C 0.37125 0.10025 0.72183 0.0
C1058 C 0.34526 0.10134 0.68764 0.0
C1059 C 0.35035 0.10949 0.64097 0.0
C1060 C 0.36605 0.11232 0.6338 0.0
C1061 C 0.37629 0.10792 0.67491 0.0
C1062 C 0.32859 0.0985 0.69755 0.0
C1063 C 0.37199 0.12053 0.5837 0.0
C1064 C 0.32543 0.115 0.51525 0.0
C1065 C 0.32185 0.13045 0.5197 0.0
C1066 C 0.33432 0.1078 0.55544 0.0
C1067 C 0.33928 0.11617 0.60175 0.0
C1068 C 0.33472 0.13148 0.6082 0.0
C1069 C 0.3263 0.13852 0.56651 0.0
C1070 C 0.33927 0.09159 0.54635 0.0
C1071 C 0.33935 0.14065 0.6579 0.0
H1072 H 0.35195 0.0908 0.76392 0.0
H1073 H 0.38823 0.11068 0.67078 0.0
H1074 H 0.32281 0.10945 0.7058 0.0
H1075 H 0.32321 0.09349 0.66056 0.0
H1076 H 0.32662 0.09081 0.73306 0.0
H1077 H 0.38458 0.12022 0.58127 0.0
H1078 H 0.36726 0.11542 0.5457 0.0
H1079 H 0.36832 0.13256 0.58486 0.0
H1080 H 0.32213 0.10882 0.47862 0.0
H1081 H 0.32347 0.15046 0.56991 0.0
H1082 H 0.33736 0.08469 0.58385 0.0
H1083 H 0.35163 0.09134 0.53757 0.0
H1084 H 0.3332 0.08621 0.51142 0.0
H1085 H 0.33705 0.1342 0.69619 0.0
H1086 H 0.33328 0.15169 0.66005 0.0
H1087 H 0.35172 0.14293 0.65638 0.0
C1088 C 0.83363 0.86527 0.05246 0.0
C1089 C 0.84247 0.85876 0.01078 0.0
C1090 C 0.84044 0.87357 0.09517 0.0
C1091 C 0.85639 0.87561 0.09533 0.0
C1092 C 0.86529 0.86934 0.05261 0.0
C1093 C 0.85824 0.86088 0.0112 0.0
C1094 C 0.83065 0.87985 0.1407 0.0
C1095 C 0.88231 0.87142 0.05095 0.0
C1096 C 0.87478 0.90606 0.18386 0.0
C1097 C 0.88055 0.89732 0.2272 0.0
C1098 C 0.86665 0.8992 0.14077 0.0
C1099 C 0.86401 0.88334 0.14199 0.0
C1100 C 0.86949 0.87458 0.18646 0.0
C1101 C 0.87782 0.88165 0.22816 0.0
C1102 C 0.86121 0.90883 0.09339 0.0
C1103 C 0.86672 0.85768 0.18971 0.0
H1104 H 0.82143 0.86369 0.05213 0.0
H1105 H 0.86512 0.85605 0.97864 0.0
H1106 H 0.83388 0.87453 0.18036 0.0
H1107 H 0.83251 0.89224 0.14498 0.0
H1108 H 0.81837 0.87778 0.13342 0.0
H1109 H 0.88743 0.86674 0.01282 0.0
H1110 H 0.88521 0.88365 0.05381 0.0
H1111 H 0.88757 0.86567 0.08677 0.0
H1112 H 0.87684 0.91818 0.18314 0.0
H1113 H 0.88206 0.87487 0.26202 0.0
H1114 H 0.8488 0.9074 0.08767 0.0
H1115 H 0.86678 0.90505 0.05483 0.0
H1116 H 0.86368 0.92107 0.09961 0.0
H1117 H 0.85442 0.85523 0.18567 0.0
H1118 H 0.87085 0.85271 0.22894 0.0
H1119 H 0.87258 0.85189 0.15523 0.0
C1120 C 0.82524 0.12269 0.00155 0.0
C1121 C 0.83217 0.12522 0.05249 0.0
C1122 C 0.83268 0.11427 0.96061 0.0
C1123 C 0.84719 0.108 0.97163 0.0
C1124 C 0.8537 0.10964 0.02441 0.0
C1125 C 0.8462 0.11841 0.06399 0.0
C1126 C 0.82549 0.11294 0.9045 0.0
C1127 C 0.86898 0.10286 0.03819 0.0
C1128 C 0.86396 0.08083 0.86618 0.0
C1129 C 0.87324 0.09068 0.83581 0.0
C1130 C 0.85564 0.08617 0.91159 0.0
C1131 C 0.85647 0.10172 0.92606 0.0
C1132 C 0.86614 0.11157 0.8964 0.0
C1133 C 0.87449 0.1059 0.8521 0.0
C1134 C 0.84571 0.07529 0.94324 0.0
C1135 C 0.86731 0.12825 0.91031 0.0
H1136 H 0.81437 0.12792 0.99277 0.0
H1137 H 0.85145 0.12014 0.1038 0.0
H1138 H 0.83212 0.11972 0.87448 0.0
H1139 H 0.82566 0.10099 0.89025 0.0
H1140 H 0.81358 0.11708 0.90421 0.0
H1141 H 0.87135 0.10318 0.08303 0.0
H1142 H 0.86962 0.09092 0.02391 0.0
H1143 H 0.87803 0.10928 0.01668 0.0
H1144 H 0.86295 0.06907 0.85377 0.0
H1145 H 0.88163 0.11361 0.82891 0.0
H1146 H 0.83361 0.07841 0.93759 0.0
H1147 H 0.8482 0.07605 0.98787 0.0
H1148 H 0.8473 0.06336 0.92972 0.0
H1149 H 0.85598 0.13366 0.90693 0.0
H1150 H 0.87531 0.13438 0.88286 0.0
H1151 H 0.8712 0.12969 0.95336 0.0
C1152 C 0.60612 0.08921 0.70184 0.0
C1153 C 0.60159 0.09513 0.75267 0.0
C1154 C 0.61212 0.09873 0.66098 0.0
C1155 C 0.61393 0.11442 0.67191 0.0
C1156 C 0.61009 0.12028 0.72421 0.0
C1157 C 0.60378 0.11059 0.76376 0.0
C1158 C 0.61585 0.09212 0.60532 0.0
C1159 C 0.6122 0.13686 0.73783 0.0
C1160 C 0.63802 0.13663 0.57036 0.0
C1161 C 0.62683 0.14301 0.5365 0.0
C1162 C 0.63402 0.1277 0.61598 0.0
C1163 C 0.6185 0.12489 0.62707 0.0
C1164 C 0.60718 0.13169 0.59398 0.0
C1165 C 0.61149 0.14079 0.54947 0.0
C1166 C 0.64637 0.12094 0.65131 0.0
C1167 C 0.5905 0.12885 0.60413 0.0
H1168 H 0.60443 0.07726 0.69326 0.0
H1169 H 0.60048 0.11515 0.80339 0.0
H1170 H 0.60824 0.09712 0.5738 0.0
H1171 H 0.62766 0.09501 0.59355 0.0
H1172 H 0.61455 0.07958 0.6044 0.0
H1173 H 0.61028 0.13925 0.78212 0.0
H1174 H 0.62383 0.1406 0.72667 0.0
H1175 H 0.60413 0.1438 0.71346 0.0
H1176 H 0.6499 0.13834 0.56056 0.0
H1177 H 0.60277 0.14563 0.52336 0.0
H1178 H 0.64646 0.10843 0.64647 0.0
H1179 H 0.64417 0.12339 0.69533 0.0
H1180 H 0.65779 0.12537 0.64035 0.0
H1181 H 0.58803 0.11655 0.59987 0.0
H1182 H 0.58313 0.1352 0.57508 0.0
H1183 H 0.58743 0.13217 0.64666 0.0
C1184 C 0.65043 0.87007 0.45982 0.0
C1185 C 0.64999 0.85424 0.45445 0.0
C1186 C 0.64439 0.87948 0.41873 0.0
C1187 C 0.63807 0.87283 0.37102 0.0
C1188 C 0.63872 0.8569 0.36364 0.0
C1189 C 0.64453 0.84778 0.40579 0.0
C1190 C 0.64378 0.8964 0.42825 0.0
C1191 C 0.63245 0.84941 0.31264 0.0
C1192 C 0.60477 0.88908 0.29338 0.0
C1193 C 0.61179 0.89417 0.24517 0.0
C1194 C 0.61339 0.88321 0.33684 0.0
C1195 C 0.62936 0.88215 0.33126 0.0
C1196 C 0.63658 0.88829 0.28433 0.0
C1197 C 0.62768 0.89437 0.24191 0.0
C1198 C 0.60531 0.87716 0.38701 0.0
C1199 C 0.65355 0.88728 0.27676 0.0
H1200 H 0.65458 0.87509 0.49763 0.0
H1201 H 0.6443 0.83553 0.40147 0.0
H1202 H 0.64719 0.90268 0.39072 0.0
H1203 H 0.63195 0.89976 0.43806 0.0
H1204 H 0.65121 0.89996 0.46283 0.0
H1205 H 0.63535 0.83715 0.3106 0.0
H1206 H 0.6199 0.85053 0.31215 0.0
H1207 H 0.63687 0.85508 0.2752 0.0
H1208 H 0.59249 0.88906 0.29619 0.0
H1209 H 0.63315 0.89829 0.20459 0.0
H1210 H 0.61098 0.88115 0.42509 0.0
H1211 H 0.6058 0.86458 0.38693 0.0
H1212 H 0.5932 0.88067 0.38825 0.0
H1213 H 0.65958 0.89046 0.31509 0.0
H1214 H 0.65759 0.89469 0.24283 0.0
H1215 H 0.6567 0.8754 0.26695 0.0
C1216 C 0.64839 0.61329 0.43988 0.0
C1217 C 0.65406 0.62805 0.43356 0.0
C1218 C 0.63861 0.607 0.40055 0.0
C1219 C 0.63483 0.61554 0.35324 0.0
C1220 C 0.64116 0.63016 0.34546 0.0
C1221 C 0.65051 0.63635 0.38626 0.0
C1222 C 0.63176 0.59155 0.41086 0.0
C1223 C 0.63775 0.63943 0.29468 0.0
C1224 C 0.61877 0.59676 0.22607 0.0
C1225 C 0.60369 0.60184 0.22743 0.0
C1226 C 0.62898 0.6007 0.26783 0.0
C1227 C 0.62383 0.60954 0.31261 0.0
C1228 C 0.60834 0.61376 0.3161 0.0
C1229 C 0.59849 0.61006 0.2729 0.0
C1230 C 0.64547 0.59629 0.26207 0.0
C1231 C 0.60234 0.62279 0.36418 0.0
H1232 H 0.65099 0.60696 0.47692 0.0
H1233 H 0.65495 0.64775 0.38144 0.0
H1234 H 0.61929 0.59268 0.41596 0.0
H1235 H 0.63372 0.58399 0.37514 0.0
H1236 H 0.63649 0.58606 0.44823 0.0
H1237 H 0.64458 0.65001 0.29285 0.0
H1238 H 0.64006 0.63265 0.25717 0.0
H1239 H 0.62555 0.64254 0.29404 0.0
H1240 H 0.62284 0.5905 0.19065 0.0
H1241 H 0.5868 0.61391 0.27406 0.0
H1242 H 0.64968 0.59096 0.30044 0.0
H1243 H 0.65238 0.60663 0.25485 0.0
H1244 H 0.64737 0.58831 0.2274 0.0
H1245 H 0.60608 0.61762 0.40353 0.0
H1246 H 0.58975 0.62349 0.36405 0.0
H1247 H 0.60698 0.63448 0.36271 0.0
C1248 C 0.62126 0.39254 0.69555 0.0
C1249 C 0.61921 0.4083 0.69247 0.0
C1250 C 0.62837 0.38454 0.6531 0.0
C1251 C 0.63333 0.39246 0.60588 0.0
C1252 C 0.63159 0.40843 0.60285 0.0
C1253 C 0.62464 0.41622 0.64658 0.0
C1254 C 0.63019 0.36755 0.65823 0.0
C1255 C 0.6366 0.4172 0.55273 0.0
C1256 C 0.65999 0.37162 0.50899 0.0
C1257 C 0.64973 0.36572 0.47047 0.0
C1258 C 0.65487 0.38056 0.55307 0.0
C1259 C 0.63918 0.38377 0.55814 0.0
C1260 C 0.62882 0.37794 0.51909 0.0
C1261 C 0.63421 0.36891 0.47598 0.0
C1262 C 0.66619 0.38643 0.59451 0.0
C1263 C 0.61201 0.38115 0.52301 0.0
H1264 H 0.6173 0.38638 0.73139 0.0
H1265 H 0.62312 0.4284 0.64424 0.0
H1266 H 0.62308 0.36179 0.62693 0.0
H1267 H 0.64215 0.36425 0.65037 0.0
H1268 H 0.62684 0.3633 0.6995 0.0
H1269 H 0.63533 0.42964 0.55823 0.0
H1270 H 0.64864 0.41464 0.54312 0.0
H1271 H 0.62975 0.41365 0.51668 0.0
H1272 H 0.672 0.36922 0.50479 0.0
H1273 H 0.62622 0.3645 0.44611 0.0
H1274 H 0.6635 0.3818 0.63582 0.0
H1275 H 0.66542 0.39897 0.5974 0.0
H1276 H 0.67803 0.38327 0.58386 0.0
H1277 H 0.60739 0.37621 0.5615 0.0
H1278 H 0.60558 0.37638 0.48773 0.0
H1279 H 0.60999 0.39356 0.52466 0.0
C1280 C 0.90013 0.38225 0.82482 0.0
C1281 C 0.89951 0.3977 0.81121 0.0
C1282 C 0.89185 0.37646 0.86909 0.0
C1283 C 0.88292 0.3864 0.9013 0.0
C1284 C 0.88264 0.40211 0.88916 0.0
C1285 C 0.89088 0.40759 0.84381 0.0
C1286 C 0.89241 0.3596 0.88057 0.0
C1287 C 0.87347 0.41304 0.92348 0.0
C1288 C 0.85205 0.36596 0.98032 0.0
C1289 C 0.85963 0.36276 0.02952 0.0
C1290 C 0.85919 0.37446 0.9389 0.0
C1291 C 0.87406 0.3801 0.9478 0.0
C1292 C 0.88126 0.37779 -0.00096 0.0
C1293 C 0.87403 0.36898 0.03905 0.0
C1294 C 0.85125 0.37653 0.88444 0.0
C1295 C 0.89696 0.38389 0.01053 0.0
H1296 H 0.90674 0.37452 0.79975 0.0
H1297 H 0.89035 0.41953 0.83338 0.0
H1298 H 0.89682 0.35754 0.92262 0.0
H1299 H 0.8808 0.35475 0.87865 0.0
H1300 H 0.89972 0.35341 0.85089 0.0
H1301 H 0.87513 0.42502 0.91047 0.0
H1302 H 0.86123 0.41024 0.92022 0.0
H1303 H 0.87665 0.41197 0.96744 0.0
H1304 H 0.84089 0.36119 0.97313 0.0
H1305 H 0.87978 0.36674 0.07762 0.0
H1306 H 0.8571 0.36967 0.85259 0.0
H1307 H 0.85179 0.38856 0.87117 0.0
H1308 H 0.83917 0.37297 0.88617 0.0
H1309 H 0.90544 0.37735 0.98651 0.0
H1310 H 0.89999 0.38306 0.05477 0.0
H1311 H 0.89785 0.39593 -0.00246 0.0
C1312 C 0.85392 0.59291 0.29289 0.0
C1313 C 0.86913 0.59093 0.27785 0.0
C1314 C 0.84375 0.60033 0.25743 0.0
C1315 C 0.84894 0.60542 0.20552 0.0
C1316 C 0.86409 0.60245 0.18901 0.0
C1317 C 0.87408 0.59551 0.22593 0.0
C1318 C 0.82784 0.60363 0.27706 0.0
C1319 C 0.86997 0.60724 0.13328 0.0
C1320 C 0.825 0.61683 0.08415 0.0
C1321 C 0.82861 0.6323 0.08081 0.0
C1322 C 0.83041 0.60795 0.12778 0.0
C1323 C 0.8392 0.61487 0.16946 0.0
C1324 C 0.84107 0.63083 0.16986 0.0
C1325 C 0.83597 0.63936 0.12487 0.0
C1326 C 0.82825 0.59097 0.12555 0.0
C1327 C 0.84983 0.63872 0.21487 0.0
H1328 H 0.85023 0.58954 0.33363 0.0
H1329 H 0.88589 0.59394 0.21468 0.0
H1330 H 0.82701 0.61577 0.28874 0.0
H1331 H 0.81942 0.60159 0.24401 0.0
H1332 H 0.82476 0.59664 0.31342 0.0
H1333 H 0.88145 0.60258 0.1247 0.0
H1334 H 0.86213 0.6034 0.1004 0.0
H1335 H 0.8706 0.6198 0.1312 0.0
H1336 H 0.81931 0.61134 0.05001 0.0
H1337 H 0.8386 0.65136 0.12256 0.0
H1338 H 0.82592 0.58626 0.16697 0.0
H1339 H 0.83885 0.58562 0.11026 0.0
H1340 H 0.81884 0.58774 0.09752 0.0
H1341 H 0.84675 0.63404 0.25573 0.0
H1342 H 0.84774 0.65115 0.21496 0.0
H1343 H 0.86216 0.63679 0.20868 0.0
C1344 C 0.35515 0.34993 0.5907 0.0
C1345 C 0.35087 0.35695 0.54147 0.0
C1346 C 0.36027 0.35855 0.63531 0.0
C1347 C 0.36133 0.37451 0.63001 0.0
C1348 C 0.35572 0.38174 0.58223 0.0
C1349 C 0.35044 0.37283 0.53844 0.0
C1350 C 0.36579 0.35043 0.68623 0.0
C1351 C 0.35658 0.39874 0.57522 0.0
C1352 C 0.37289 0.39432 0.76144 0.0
C1353 C 0.38876 0.39361 0.75722 0.0
C1354 C 0.36362 0.38904 0.71864 0.0
C1355 C 0.37045 0.38311 0.67063 0.0
C1356 C 0.38642 0.38361 0.6644 0.0
C1357 C 0.3954 0.38877 0.70801 0.0
C1358 C 0.34664 0.38874 0.72667 0.0
C1359 C 0.39412 0.3777 0.61321 0.0
H1360 H 0.3553 0.33765 0.59333 0.0
H1361 H 0.34709 0.3783 0.50038 0.0
H1362 H 0.37836 0.35094 0.68792 0.0
H1363 H 0.36136 0.35604 0.72378 0.0
H1364 H 0.3623 0.33832 0.68681 0.0
H1365 H 0.34905 0.40277 0.5416 0.0
H1366 H 0.35345 0.40467 0.6138 0.0
H1367 H 0.36841 0.40198 0.56497 0.0
H1368 H 0.3677 0.39811 0.79945 0.0
H1369 H 0.40766 0.3884 0.70439 0.0
H1370 H 0.34303 0.37701 0.73675 0.0
H1371 H 0.34065 0.39215 0.6885 0.0
H1372 H 0.343 0.39633 0.76069 0.0
H1373 H 0.39289 0.36518 0.61129 0.0
H1374 H 0.40641 0.38049 0.6123 0.0
H1375 H 0.38869 0.38249 0.5759 0.0
C1376 C 0.34112 0.63346 0.41958 0.0
C1377 C 0.3507 0.63851 0.46178 0.0
C1378 C 0.34687 0.62496 0.37549 0.0
C1379 C 0.3625 0.62124 0.3742 0.0
C1380 C 0.37226 0.62657 0.41609 0.0
C1381 C 0.36626 0.63525 0.45916 0.0
C1382 C 0.33618 0.6197 0.33088 0.0
C1383 C 0.38897 0.62271 0.41635 0.0
C1384 C 0.3745 0.58648 0.2929 0.0
C1385 C 0.38063 0.59311 0.24551 0.0
C1386 C 0.36861 0.59552 0.33533 0.0
C1387 C 0.36862 0.61152 0.32959 0.0
C1388 C 0.37469 0.61825 0.28163 0.0
C1389 C 0.38075 0.60897 0.24036 0.0
C1390 C 0.36244 0.58798 0.38639 0.0
C1391 C 0.3747 0.63526 0.27374 0.0
H1392 H 0.32909 0.63598 0.4214 0.0
H1393 H 0.37371 0.63905 0.49185 0.0
H1394 H 0.34048 0.62327 0.29 0.0
H1395 H 0.33559 0.60712 0.33073 0.0
H1396 H 0.32452 0.62426 0.33637 0.0
H1397 H 0.39507 0.62799 0.45145 0.0
H1398 H 0.39045 0.61022 0.41873 0.0
H1399 H 0.39436 0.62655 0.37756 0.0
H1400 H 0.37442 0.57424 0.29703 0.0
H1401 H 0.38536 0.61415 0.20354 0.0
H1402 H 0.35031 0.59101 0.39197 0.0
H1403 H 0.36864 0.59212 0.42313 0.0
H1404 H 0.36342 0.57542 0.38469 0.0
H1405 H 0.36294 0.6397 0.27666 0.0
H1406 H 0.37954 0.63867 0.23342 0.0
H1407 H 0.38139 0.64076 0.30682 0.0
C1408 C 0.14987 0.6067 0.98293 0.0
C1409 C 0.15157 0.62242 0.98912 0.0
C1410 C 0.14248 0.59806 0.02334 0.0
C1411 C 0.13703 0.60533 0.07129 0.0
C1412 C 0.13981 0.621 0.0795 0.0
C1413 C 0.14688 0.6294 0.0379 0.0
C1414 C 0.13955 0.58144 0.01283 0.0
C1415 C 0.13456 0.62907 0.13087 0.0
C1416 C 0.10188 0.59282 0.14778 0.0
C1417 C 0.10819 0.58622 0.19487 0.0
C1418 C 0.11119 0.5981 0.10517 0.0
C1419 C 0.12717 0.59707 0.11062 0.0
C1420 C 0.13355 0.58962 0.15663 0.0
C1421 C 0.12395 0.58412 0.19804 0.0
C1422 C 0.10395 0.60561 0.05591 0.0
C1423 C 0.15052 0.58849 0.16424 0.0
H1424 H 0.15339 0.60132 0.94494 0.0
H1425 H 0.14828 0.64156 0.04277 0.0
H1426 H 0.14228 0.57457 0.04972 0.0
H1427 H 0.12732 0.57975 0.00379 0.0
H1428 H 0.14625 0.57708 0.97749 0.0
H1429 H 0.13914 0.64079 0.13366 0.0
H1430 H 0.12198 0.62971 0.13115 0.0
H1431 H 0.13809 0.62267 0.16802 0.0
H1432 H 0.08969 0.59434 0.14509 0.0
H1433 H 0.12887 0.57908 0.23459 0.0
H1434 H 0.109 0.6012 0.01729 0.0
H1435 H 0.10613 0.618 0.05727 0.0
H1436 H 0.09148 0.60377 0.05461 0.0
H1437 H 0.15611 0.58467 0.12581 0.0
H1438 H 0.15362 0.58057 0.19795 0.0
H1439 H 0.15513 0.59988 0.17429 0.0
C1440 C 0.12297 0.37996 0.77263 0.0
C1441 C 0.12125 0.39576 0.76982 0.0
C1442 C 0.13119 0.37319 0.81541 0.0
C1443 C 0.13758 0.38242 0.85696 0.0
C1444 C 0.13549 0.39835 0.8553 0.0
C1445 C 0.12746 0.40486 0.81137 0.0
C1446 C 0.13332 0.35617 0.81542 0.0
C1447 C 0.14186 0.4085 0.89962 0.0
C1448 C 0.14734 0.36267 0.99073 0.0
C1449 C 0.16311 0.36085 0.98596 0.0
C1450 C 0.13895 0.36999 0.94961 0.0
C1451 C 0.14647 0.37534 0.90205 0.0
C1452 C 0.16238 0.37352 0.89687 0.0
C1453 C 0.17056 0.36642 0.93926 0.0
C1454 C 0.12204 0.37196 0.95703 0.0
C1455 C 0.17073 0.37886 0.84622 0.0
H1456 H 0.11829 0.37288 0.74037 0.0
H1457 H 0.12613 0.41707 0.80937 0.0
H1458 H 0.1456 0.35341 0.81411 0.0
H1459 H 0.1287 0.35124 0.85387 0.0
H1460 H 0.12766 0.35063 0.7799 0.0
H1461 H 0.1387 0.42059 0.89348 0.0
H1462 H 0.1377 0.40479 0.94052 0.0
H1463 H 0.15442 0.40762 0.90025 0.0
H1464 H 0.14155 0.35853 0.02707 0.0
H1465 H 0.18273 0.36501 0.93546 0.0
H1466 H 0.11588 0.36573 0.92429 0.0
H1467 H 0.11895 0.38412 0.95314 0.0
H1468 H 0.11805 0.36776 -0.00241 0.0
H1469 H 0.16614 0.37304 0.80933 0.0
H1470 H 0.18312 0.37663 0.84866 0.0
H1471 H 0.16894 0.39121 0.84029 0.0
C1472 C 0.16875 0.28499 0.06546 0.0
C1473 C 0.17687 0.28578 0.11502 0.0
C1474 C 0.16271 0.27112 0.04705 0.0
C1475 C 0.16489 0.25788 0.07905 0.0
C1476 C 0.17403 0.25849 0.12687 0.0
C1477 C 0.17987 0.27242 0.14426 0.0
C1478 C 0.15321 0.27089 -0.00453 0.0
C1479 C 0.17683 0.24459 0.1619 0.0
C1480 C 0.13641 0.22689 0.10092 0.0
C1481 C 0.14399 0.21447 0.07772 0.0
C1482 C 0.14228 0.24157 0.09619 0.0
C1483 C 0.15614 0.24383 0.06798 0.0
C1484 C 0.16292 0.23162 0.0392 0.0
C1485 C 0.15672 0.217 0.04433 0.0
C1486 C 0.1345 0.25434 0.12654 0.0
C1487 C 0.17752 0.23365 0.00768 0.0
H1488 H 0.16648 0.29528 0.04248 0.0
H1489 H 0.18639 0.27292 0.18202 0.0
H1490 H 0.1552 0.26037 0.9715 0.0
H1491 H 0.14102 0.27118 0.00685 0.0
H1492 H 0.1556 0.28086 0.96887 0.0
H1493 H 0.18524 0.24674 0.19503 0.0
H1494 H 0.16603 0.24091 0.18123 0.0
H1495 H 0.181 0.23507 0.1362 0.0
H1496 H 0.12636 0.225 0.12577 0.0
H1497 H 0.16254 0.20744 0.02585 0.0
H1498 H 0.13397 0.26468 0.10063 0.0
H1499 H 0.14111 0.25718 0.16399 0.0
H1500 H 0.12279 0.25125 0.13926 0.0
H1501 H 0.17761 0.24463 0.9853 0.0
H1502 H 0.17936 0.22429 0.97783 0.0
H1503 H 0.18718 0.23373 0.03693 0.0
C1504 C 0.96266 0.91519 0.32262 0.0
C1505 C 0.95692 0.90475 0.36077 0.0
C1506 C 0.97829 0.91573 0.31122 0.0
C1507 C 0.98818 0.90552 0.3384 0.0
C1508 C 0.98208 0.89376 0.37137 0.0
C1509 C 0.96652 0.89363 0.38259 0.0
C1510 C 0.98433 0.9282 0.27484 0.0
C1511 C 0.99215 0.88236 0.40004 0.0
C1512 C 0.0309 0.90201 0.32599 0.0
C1513 C 0.03534 0.90935 0.37449 0.0
C1514 C 0.01554 0.9017 0.31027 0.0
C1515 C 0.0046 0.909 0.34377 0.0
C1516 C 0.00937 0.91771 0.38956 0.0
C1517 C 0.02466 0.91765 0.40457 0.0
C1518 C 0.01095 0.89251 0.26071 0.0
C1519 C -0.00184 0.92597 0.42587 0.0
H1520 H 0.95519 0.92375 0.30541 0.0
H1521 H 0.96199 0.88536 0.41129 0.0
H1522 H 0.98815 0.93781 0.30084 0.0
H1523 H 0.99422 0.92425 0.25052 0.0
H1524 H 0.97545 0.93248 0.24631 0.0
H1525 H 0.98555 0.87268 0.41695 0.0
H1526 H 0.00085 0.87787 0.37142 0.0
H1527 H -0.00184 0.888 0.43454 0.0
H1528 H 0.03922 0.89564 0.30258 0.0
H1529 H 0.02819 0.92356 0.44154 0.0
H1530 H 0.00116 0.89772 0.23913 0.0
H1531 H 0.0075 0.88099 0.27422 0.0
H1532 H 0.02052 0.89127 0.23129 0.0
H1533 H 0.99021 0.93282 0.40066 0.0
H1534 H 0.00388 0.93362 0.45568 0.0
H1535 H 0.99134 0.9176 0.44933 0.0
C1536 C 0.35969 0.78095 0.6439 0.0
C1537 C 0.34808 0.78985 0.62141 0.0
C1538 C 0.35973 0.76516 0.63713 0.0
C1539 C 0.34765 0.75815 0.60843 0.0
C1540 C 0.33673 0.76723 0.58111 0.0
C1541 C 0.33717 0.78306 0.58751 0.0
C1542 C 0.37184 0.75592 0.66555 0.0
C1543 C 0.32362 0.76022 0.55038 0.0
C1544 C 0.34784 0.71515 0.59212 0.0
C1545 C 0.34016 0.71071 0.63999 0.0
C1546 C 0.35031 0.73061 0.58057 0.0
C1547 C 0.34468 0.74174 0.61726 0.0
C1548 C 0.3365 0.73725 0.66467 0.0
C1549 C 0.33449 0.72182 0.67567 0.0
C1550 C 0.3593 0.73499 0.53022 0.0
C1551 C 0.33004 0.74875 0.70444 0.0
H1552 H 0.36828 0.78623 0.66946 0.0
H1553 H 0.32818 0.78993 0.57 0.0
H1554 H 0.36713 0.75103 0.70398 0.0
H1555 H 0.3756 0.74636 0.63919 0.0
H1556 H 0.38187 0.76294 0.67643 0.0
H1557 H 0.31795 0.76856 0.52296 0.0
H1558 H 0.32742 0.7504 0.52543 0.0
H1559 H 0.31513 0.75599 0.58041 0.0
H1560 H 0.35227 0.70656 0.56457 0.0
H1561 H 0.32837 0.71844 0.71235 0.0
H1562 H 0.37026 0.74007 0.54302 0.0
H1563 H 0.35314 0.7437 0.50604 0.0
H1564 H 0.36169 0.72509 0.50329 0.0
H1565 H 0.33939 0.75525 0.72388 0.0
H1566 H 0.3232 0.74337 0.73749 0.0
H1567 H 0.32274 0.75698 0.68224 0.0
C1568 C 0.45601 0.09237 0.79409 0.0
C1569 C 0.4534 0.10324 0.83522 0.0
C1570 C 0.47082 0.08739 0.78243 0.0
C1571 C 0.4831 0.09333 0.81308 0.0
C1572 C 0.48068 0.10586 0.84843 0.0
C1573 C 0.46583 0.11071 0.85892 0.0
C1574 C 0.47307 0.0746 0.74208 0.0
C1575 C 0.49352 0.11284 0.88084 0.0
C1576 C 0.51162 0.06707 0.87787 0.0
C1577 C 0.52518 0.0718 0.85316 0.0
C1578 C 0.49768 0.07323 0.86202 0.0
C1579 C 0.49723 0.08431 0.81985 0.0
C1580 C 0.51067 0.08803 0.79096 0.0
C1581 C 0.52457 0.08177 0.8082 0.0
C1582 C 0.48361 0.06872 0.89369 0.0
C1583 C 0.51065 0.09937 0.7445 0.0
H1584 H 0.44649 0.08677 0.77453 0.0
H1585 H 0.46393 0.11945 0.88952 0.0
H1586 H 0.48397 0.07586 0.71968 0.0
H1587 H 0.47341 0.06366 0.76464 0.0
H1588 H 0.46364 0.07407 0.71184 0.0
H1589 H 0.49014 0.12373 0.90034 0.0
H1590 H 0.4971 0.10487 0.91373 0.0
H1591 H 0.50347 0.11492 0.85401 0.0
H1592 H 0.51196 0.0591 0.91181 0.0
H1593 H 0.535 0.08536 0.78842 0.0
H1594 H 0.47451 0.06511 0.86506 0.0
H1595 H 0.4793 0.07862 0.91722 0.0
H1596 H 0.48579 0.05931 0.92304 0.0
H1597 H 0.49972 0.09931 0.72185 0.0
H1598 H 0.52001 0.09702 0.7151 0.0
H1599 H 0.51243 0.11092 0.76141 0.0
C1600 C 0.14662 0.7668 0.92498 0.0
C1601 C 0.15872 0.77685 0.93233 0.0
C1602 C 0.14853 0.75127 0.93417 0.0
C1603 C 0.163 0.74579 0.94997 0.0
C1604 C 0.17432 0.75619 0.96691 0.0
C1605 C 0.17209 0.77177 0.95749 0.0
C1606 C 0.13585 0.74064 0.91817 0.0
C1607 C 0.1895 0.75078 0.98763 0.0
C1608 C 0.16384 0.70306 0.93555 0.0
C1609 C 0.16715 0.70188 0.8793 0.0
C1610 C 0.16397 0.71729 0.9618 0.0
C1611 C 0.1674 0.73044 0.9307 0.0
C1612 C 0.17235 0.72895 0.87549 0.0
C1613 C 0.17215 0.71469 0.85062 0.0
C1614 C 0.15932 0.71822 0.02134 0.0
C1615 C 0.17648 0.74257 0.84068 0.0
H1616 H 0.13616 0.77089 0.90667 0.0
H1617 H 0.18137 0.77964 0.96399 0.0
H1618 H 0.13843 0.73548 0.87759 0.0
H1619 H 0.13475 0.73132 0.94853 0.0
H1620 H 0.12478 0.74662 0.91508 0.0
H1621 H 0.19495 0.75949 0.01407 0.0
H1622 H 0.18833 0.74006 0.01122 0.0
H1623 H 0.19711 0.74858 0.95217 0.0
H1624 H 0.16021 0.6931 0.95818 0.0
H1625 H 0.17516 0.71369 0.80753 0.0
H1626 H 0.14675 0.71819 0.02413 0.0
H1627 H 0.16362 0.72866 0.04148 0.0
H1628 H 0.16351 0.70817 0.04436 0.0
H1629 H 0.16628 0.74974 0.83407 0.0
H1630 H 0.18104 0.73927 0.79982 0.0
H1631 H 0.18512 0.7496 0.86182 0.0
C1632 C 0.46394 0.89837 0.10959 0.0
C1633 C 0.45531 0.91067 0.12815 0.0
C1634 C 0.47954 0.89769 0.11963 0.0
C1635 C 0.48668 0.90979 0.14787 0.0
C1636 C 0.47773 0.92133 0.17215 0.0
C1637 C 0.46202 0.9216 0.16216 0.0
C1638 C 0.48859 0.88491 0.09433 0.0
C1639 C 0.48487 0.93425 0.20345 0.0
C1640 C 0.52908 0.90347 0.15845 0.0
C1641 C 0.53367 0.90904 0.1071 0.0
C1642 C 0.51387 0.90479 0.17538 0.0
C1643 C 0.50325 0.91194 0.14016 0.0
C1644 C 0.50831 0.91898 0.09109 0.0
C1645 C 0.52343 0.9173 0.07496 0.0
C1646 C 0.50899 0.89734 0.22832 0.0
C1647 C 0.49747 0.92705 0.05282 0.0
H1648 H 0.45865 0.88979 0.08403 0.0
H1649 H 0.4553 0.9311 0.17673 0.0
H1650 H 0.49469 0.88917 0.05751 0.0
H1651 H 0.49719 0.8806 0.1237 0.0
H1652 H 0.48122 0.87531 0.08148 0.0
H1653 H 0.47654 0.93983 0.23118 0.0
H1654 H 0.4947 0.9303 0.22809 0.0
H1655 H 0.48906 0.94287 0.17386 0.0
H1656 H 0.53705 0.8971 0.18339 0.0
H1657 H 0.5271 0.92181 0.03563 0.0
H1658 H 0.50459 0.88581 0.21926 0.0
H1659 H 0.49978 0.90384 0.24864 0.0
H1660 H 0.51866 0.89617 0.25734 0.0
H1661 H 0.48995 0.91862 0.03272 0.0
H1662 H 0.50352 0.93348 0.02021 0.0
H1663 H 0.49017 0.93505 0.07605 0.0
C1664 C 0.30457 0.22101 0.36378 0.0
C1665 C 0.30883 0.20807 0.3934 0.0
C1666 C 0.3093 0.23543 0.38028 0.0
C1667 C 0.31853 0.2369 0.42763 0.0
C1668 C 0.32103 0.22414 0.46187 0.0
C1669 C 0.31618 0.20974 0.44416 0.0
C1670 C 0.30601 0.24876 0.34307 0.0
C1671 C 0.33016 0.22539 0.51408 0.0
C1672 C 0.34912 0.26453 0.39075 0.0
C1673 C 0.3427 0.27824 0.40822 0.0
C1674 C 0.34211 0.25068 0.40224 0.0
C1675 C 0.32831 0.25054 0.43211 0.0
C1676 C 0.32274 0.26417 0.45543 0.0
C1677 C 0.33 0.27796 0.44299 0.0
C1678 C 0.34868 0.2364 0.37731 0.0
C1679 C 0.30843 0.26443 0.48945 0.0
H1680 H 0.2985 0.21974 0.32527 0.0
H1681 H 0.31928 0.19976 0.46768 0.0
H1682 H 0.30213 0.25867 0.36736 0.0
H1683 H 0.31656 0.25211 0.32122 0.0
H1684 H 0.29721 0.24607 0.31186 0.0
H1685 H 0.3272 0.21618 0.54335 0.0
H1686 H 0.34241 0.22436 0.50422 0.0
H1687 H 0.32835 0.23652 0.53437 0.0
H1688 H 0.3592 0.26468 0.36516 0.0
H1689 H 0.32512 0.28853 0.4574 0.0
H1690 H 0.34115 0.23233 0.34385 0.0
H1691 H 0.34942 0.22728 0.40857 0.0
H1692 H 0.36019 0.23828 0.35988 0.0
H1693 H 0.2985 0.26595 0.46196 0.0
H1694 H 0.30855 0.27404 0.51898 0.0
H1695 H 0.30688 0.25368 0.5125 0.0
C1696 C 0.95391 0.10192 0.63119 0.0
C1697 C 0.94383 0.09267 0.66059 0.0
C1698 C 0.96957 0.09936 0.63323 0.0
C1699 C 0.97527 0.08726 0.66551 0.0
C1700 C 0.96534 0.07909 0.70032 0.0
C1701 C 0.94966 0.08188 0.69742 0.0
C1702 C 0.97981 0.10856 0.5962 0.0
C1703 C 0.97104 0.06642 0.73655 0.0
C1704 C 0.00695 0.06809 0.5886 0.0
C1705 C 0.01977 0.0752 0.61089 0.0
C1706 C 0.99245 0.07102 0.60927 0.0
C1707 C 0.9907 0.08135 0.6534 0.0
C1708 C 0.00369 0.08747 0.67946 0.0
C1709 C 0.01815 0.08432 0.65779 0.0
C1710 C 0.97892 0.06401 0.58069 0.0
C1711 C 0.00232 0.09825 0.72738 0.0
H1712 H 0.9495 0.11052 0.60359 0.0
H1713 H 0.94196 0.07482 0.72095 0.0
H1714 H 0.99013 0.11222 0.61863 0.0
H1715 H 0.98351 0.10144 0.56103 0.0
H1716 H 0.974 0.11878 0.57968 0.0
H1717 H 0.9629 0.06382 0.77013 0.0
H1718 H 0.97255 0.05602 0.71146 0.0
H1719 H 0.98221 0.06931 0.75484 0.0
H1720 H 0.00818 0.06079 0.553 0.0
H1721 H 0.02805 0.08978 0.67541 0.0
H1722 H 0.97249 0.07297 0.55862 0.0
H1723 H 0.97114 0.0588 0.61113 0.0
H1724 H 0.9823 0.05518 0.55048 0.0
H1725 H -0.00011 0.10982 0.71175 0.0
H1726 H 0.01301 0.09873 0.75156 0.0
H1727 H 0.99288 0.09493 0.75504 0.0
C1728 C 0.83996 0.70925 0.93056 0.0
C1729 C 0.83531 0.70254 0.88113 0.0
C1730 C 0.83985 0.72511 0.93671 0.0
C1731 C 0.83454 0.7343 0.89294 0.0
C1732 C 0.82912 0.72744 0.8441 0.0
C1733 C 0.82981 0.71166 0.8385 0.0
C1734 C 0.84606 0.73205 0.98876 0.0
C1735 C 0.82299 0.73678 0.79694 0.0
C1736 C 0.8227 0.77544 0.9036 0.0
C1737 C 0.83434 0.78236 0.87352 0.0
C1738 C 0.82308 0.75978 0.91426 0.0
C1739 C 0.83559 0.75109 0.89549 0.0
C1740 C 0.84806 0.75843 0.87013 0.0
C1741 C 0.84714 0.77395 0.85845 0.0
C1742 C 0.80946 0.75237 0.94053 0.0
C1743 C 0.86181 0.74966 0.85101 0.0
H1744 H 0.84428 0.70213 0.96339 0.0
H1745 H 0.82604 0.70642 0.80053 0.0
H1746 H 0.85691 0.7379 0.9795 0.0
H1747 H 0.83813 0.7407 0.00521 0.0
H1748 H 0.84818 0.72339 0.02106 0.0
H1749 H 0.81786 0.72962 0.76426 0.0
H1750 H 0.81426 0.74486 0.81196 0.0
H1751 H 0.83229 0.74354 0.77839 0.0
H1752 H 0.81275 0.782 0.91473 0.0
H1753 H 0.85615 0.77941 0.83536 0.0
H1754 H 0.81298 0.74369 0.97098 0.0
H1755 H 0.80273 0.74651 0.90833 0.0
H1756 H 0.80201 0.76079 0.9612 0.0
H1757 H 0.86545 0.7414 0.88279 0.0
H1758 H 0.87149 0.75728 0.84127 0.0
H1759 H 0.8589 0.74316 0.81339 0.0
C1760 C 0.63956 0.22045 0.383 0.0
C1761 C 0.62748 0.21435 0.35283 0.0
C1762 C 0.64211 0.23617 0.38389 0.0
C1763 C 0.63209 0.24591 0.35507 0.0
C1764 C 0.61888 0.23987 0.33026 0.0
C1765 C 0.61686 0.2241 0.32862 0.0
C1766 C 0.65644 0.24209 0.41022 0.0
C1767 C 0.60765 0.2499 0.30066 0.0
C1768 C 0.63816 0.2887 0.35921 0.0
C1769 C 0.64574 0.29103 0.30923 0.0
C1770 C 0.63354 0.27405 0.37507 0.0
C1771 C 0.63699 0.26154 0.34074 0.0
C1772 C 0.645 0.26387 0.29097 0.0
C1773 C 0.64908 0.27859 0.27554 0.0
C1774 C 0.62469 0.27201 0.42765 0.0
C1775 C 0.64923 0.25081 0.25366 0.0
H1776 H 0.64781 0.2129 0.40165 0.0
H1777 H 0.6074 0.21937 0.30586 0.0
H1778 H 0.66493 0.24451 0.37765 0.0
H1779 H 0.65428 0.25284 0.43255 0.0
H1780 H 0.66144 0.23373 0.43925 0.0
H1781 H 0.59666 0.24403 0.29375 0.0
H1782 H 0.60554 0.26048 0.32421 0.0
H1783 H 0.61237 0.25318 0.26006 0.0
H1784 H 0.63554 0.29835 0.38516 0.0
H1785 H 0.65512 0.28035 0.23722 0.0
H1786 H 0.63021 0.26339 0.45418 0.0
H1787 H 0.61314 0.26776 0.41797 0.0
H1788 H 0.62362 0.28276 0.45115 0.0
H1789 H 0.65564 0.2421 0.27704 0.0
H1790 H 0.65626 0.2545 0.21818 0.0
H1791 H 0.63882 0.24533 0.23755 0.0
C1792 C 0.86213 0.26905 0.1498 0.0
C1793 C 0.85298 0.28041 0.12687 0.0
C1794 C 0.85919 0.25372 0.13916 0.0
C1795 C 0.84667 0.2498 0.10562 0.0
C1796 C 0.83922 0.26123 0.0749 0.0
C1797 C 0.84246 0.27653 0.08596 0.0
C1798 C 0.86793 0.24185 0.17072 0.0
C1799 C 0.82633 0.25743 0.03656 0.0
C1800 C 0.83652 0.20781 0.10899 0.0
C1801 C 0.8272 0.20743 0.15573 0.0
C1802 C 0.84235 0.22167 0.08938 0.0
C1803 C 0.83869 0.23531 0.11728 0.0
C1804 C 0.82838 0.23497 0.162 0.0
C1805 C 0.82283 0.22106 0.18062 0.0
C1806 C 0.85306 0.2215 0.04103 0.0
C1807 C 0.82383 0.24922 0.19259 0.0
H1808 H 0.87059 0.27207 0.18027 0.0
H1809 H 0.83555 0.28531 0.06724 0.0
H1810 H 0.86112 0.23812 0.20667 0.0
H1811 H 0.87013 0.23176 0.14469 0.0
H1812 H 0.87894 0.24633 0.18601 0.0
H1813 H 0.82456 0.26655 0.00568 0.0
H1814 H 0.82845 0.24655 0.01491 0.0
H1815 H 0.81572 0.25618 0.06072 0.0
H1816 H 0.83984 0.19726 0.08944 0.0
H1817 H 0.81535 0.22083 0.21602 0.0
H1818 H 0.86483 0.2199 0.05618 0.0
H1819 H 0.85264 0.23227 0.01748 0.0
H1820 H 0.85043 0.21193 0.01288 0.0
H1821 H 0.83391 0.25422 0.21307 0.0
H1822 H 0.81507 0.247 0.22447 0.0
H1823 H 0.81928 0.25779 0.16356 0.0
C1824 C 0.69611 0.71277 0.57554 0.0
C1825 C 0.6881 0.70125 0.54846 0.0
C1826 C 0.69316 0.72804 0.56397 0.0
C1827 C 0.68195 0.73173 0.52453 0.0
C1828 C 0.67602 0.72021 0.49021 0.0
C1829 C 0.67911 0.70497 0.5028 0.0
C1830 C 0.70031 0.74003 0.59992 0.0
C1831 C 0.66483 0.72384 0.44523 0.0
C1832 C 0.65546 0.76001 0.58877 0.0
C1833 C 0.66137 0.77378 0.56975 0.0
C1834 C 0.66131 0.74617 0.57062 0.0
C1835 C 0.67337 0.74608 0.53202 0.0
C1836 C 0.67837 0.7599 0.50847 0.0
C1837 C 0.67233 0.77367 0.52787 0.0
C1838 C 0.65535 0.73172 0.59636 0.0
C1839 C 0.69075 0.76034 0.46571 0.0
H1840 H 0.70351 0.7099 0.60962 0.0
H1841 H 0.67319 0.69609 0.48061 0.0
H1842 H 0.70376 0.74999 0.57504 0.0
H1843 H 0.69189 0.74395 0.63079 0.0
H1844 H 0.71041 0.73564 0.62215 0.0
H1845 H 0.6647 0.71481 0.41336 0.0
H1846 H 0.65326 0.72466 0.46306 0.0
H1847 H 0.66752 0.73487 0.42552 0.0
H1848 H 0.64671 0.76003 0.6201 0.0
H1849 H 0.67681 0.78431 0.51244 0.0
H1850 H 0.66443 0.72628 0.62113 0.0
H1851 H 0.65188 0.72357 0.56403 0.0
H1852 H 0.64545 0.73379 0.62362 0.0
H1853 H 0.70183 0.76222 0.48629 0.0
H1854 H 0.68892 0.76991 0.43671 0.0
H1855 H 0.69143 0.74961 0.44197 0.0
C1856 C 0.5368 0.40289 0.8588 0.0
C1857 C 0.54501 0.41507 0.83707 0.0
C1858 C 0.52103 0.4022 0.85325 0.0
C1859 C 0.5133 0.41417 0.82629 0.0
C1860 C 0.52171 0.42562 0.79904 0.0
C1861 C 0.53759 0.4259 0.80456 0.0
C1862 C 0.51256 0.38952 0.88165 0.0
C1863 C 0.51392 0.43841 0.76901 0.0
C1864 C 0.47101 0.40703 0.82649 0.0
C1865 C 0.46731 0.41259 0.87879 0.0
C1866 C 0.48578 0.4087 0.80554 0.0
C1867 C 0.49688 0.41621 0.83767 0.0
C1868 C 0.4926 0.42334 0.88753 0.0
C1869 C 0.47789 0.42131 0.9077 0.0
C1870 C 0.48981 0.40118 0.7518 0.0
C1871 C 0.50396 0.43181 0.92253 0.0
H1872 H 0.54263 0.3944 0.88322 0.0
H1873 H 0.54398 0.43531 0.78758 0.0
H1874 H 0.50707 0.39397 0.91943 0.0
H1875 H 0.50349 0.38497 0.85468 0.0
H1876 H 0.52021 0.38005 0.89356 0.0
H1877 H 0.52163 0.44381 0.73859 0.0
H1878 H 0.50357 0.43438 0.74756 0.0
H1879 H 0.51042 0.4472 0.79911 0.0
H1880 H 0.46277 0.40032 0.804 0.0
H1881 H 0.47491 0.42583 0.94775 0.0
H1882 H 0.49468 0.38981 0.7602 0.0
H1883 H 0.49842 0.40784 0.72888 0.0
H1884 H 0.47963 0.39966 0.72541 0.0
H1885 H 0.51195 0.4236 0.94152 0.0
H1886 H 0.49838 0.43834 0.95596 0.0
H1887 H 0.51071 0.43976 0.89703 0.0
C1888 C 0.95581 0.5781 0.30568 0.0
C1889 C 0.95251 0.59032 0.34062 0.0
C1890 C 0.97073 0.57566 0.28725 0.0
C1891 C 0.98236 0.58563 0.30465 0.0
C1892 C 0.97849 0.59927 0.33204 0.0
C1893 C 0.96357 0.60141 0.34998 0.0
C1894 C 0.9743 0.56144 0.25534 0.0
C1895 C 0.99044 0.61055 0.34957 0.0
C1896 C 0.01773 0.57131 0.3725 0.0
C1897 C 0.02898 0.5773 0.33821 0.0
C1898 C 0.0024 0.57257 0.35885 0.0
C1899 C -0.00179 0.58009 0.30959 0.0
C1900 C 0.00957 0.58461 0.27181 0.0
C1901 C 0.02493 0.58317 0.28667 0.0
C1902 C 0.99071 0.56722 0.40004 0.0
C1903 C 0.00564 0.59213 0.21798 0.0
H1904 H 0.94719 0.56962 0.29748 0.0
H1905 H 0.96089 0.6111 0.37575 0.0
H1906 H 0.98392 0.56328 0.22667 0.0
H1907 H 0.97756 0.55228 0.28435 0.0
H1908 H 0.96426 0.5575 0.23163 0.0
H1909 H 0.98537 0.6215 0.36282 0.0
H1910 H -0.003 0.60581 0.38454 0.0
H1911 H -0.0015 0.61279 0.31554 0.0
H1912 H 0.0209 0.56643 0.41181 0.0
H1913 H 0.03365 0.58768 0.25975 0.0
H1914 H 0.98198 0.56015 0.37956 0.0
H1915 H 0.98488 0.57717 0.41845 0.0
H1916 H -0.00415 0.56047 0.43382 0.0
H1917 H 0.99437 0.58848 0.20255 0.0
H1918 H 0.01435 0.58957 0.18629 0.0
H1919 H 0.0054 0.60461 0.22379 0.0
C1920 C 0.97933 0.38749 0.60242 0.0
C1921 C 0.97006 0.39811 0.6291 0.0
C1922 C -0.00484 0.38854 0.60533 0.0
C1923 C 0.00184 0.40069 0.63469 0.0
C1924 C 0.99256 0.4107 0.66541 0.0
C1925 C 0.97671 0.4092 0.66263 0.0
C1926 C 0.00468 0.37742 0.57305 0.0
C1927 C -0.00076 0.42384 0.69696 0.0
C1928 C 0.04488 0.40123 0.64674 0.0
C1929 C 0.04883 0.40955 0.59969 0.0
C1930 C 0.02957 0.39846 0.65966 0.0
C1931 C 0.01807 0.40438 0.62517 0.0
C1932 C 0.02204 0.41328 0.57888 0.0
C1933 C 0.03735 0.41563 0.56647 0.0
C1934 C 0.02574 0.38877 0.7089 0.0
C1935 C 0.0101 0.42003 0.54154 0.0
H1936 H 0.97419 0.37877 0.57709 0.0
H1937 H 0.96957 0.41743 0.68333 0.0
H1938 H 0.00912 0.38306 0.53557 0.0
H1939 H 0.01457 0.37359 0.59761 0.0
H1940 H -0.00197 0.36731 0.56021 0.0
H1941 H 0.99092 0.42887 0.72605 0.0
H1942 H 0.00944 0.42025 0.72025 0.0
H1943 H 0.00282 0.43278 0.66758 0.0
H1944 H 0.05374 0.39649 0.67244 0.0
H1945 H 0.04035 0.42223 0.53046 0.0
H1946 H 0.02071 0.3779 0.69484 0.0
H1947 H 0.01715 0.39449 0.73502 0.0
H1948 H 0.03589 0.3862 0.73434 0.0
H1949 H 0.00371 0.41081 0.52081 0.0
H1950 H 0.01508 0.42751 0.50948 0.0
H1951 H 0.00183 0.42674 0.5659 0.0
C1952 C 0.46348 0.56831 0.0622 0.0
C1953 C 0.45108 0.57375 0.09231 0.0
C1954 C 0.47809 0.57391 0.0713 0.0
C1955 C 0.48036 0.58534 0.11136 0.0
C1956 C 0.46809 0.5901 0.14477 0.0
C1957 C 0.45352 0.5842 0.13489 0.0
C1958 C 0.4909 0.56831 0.03526 0.0
C1959 C 0.4701 0.60214 0.18825 0.0
C1960 C 0.5223 0.59214 0.12888 0.0
C1961 C 0.52482 0.60262 0.08642 0.0
C1962 C 0.50751 0.58743 0.14206 0.0
C1963 C 0.49511 0.59344 0.11218 0.0
C1964 C 0.49753 0.60531 0.07399 0.0
C1965 C 0.51238 0.60971 0.06137 0.0
C1966 C 0.50535 0.57497 0.18385 0.0
C1967 C 0.48458 0.61227 0.04206 0.0
H1968 H 0.46167 0.56001 0.02992 0.0
H1969 H 0.44395 0.5884 0.15842 0.0
H1970 H 0.49466 0.57757 0.00751 0.0
H1971 H 0.50078 0.56495 0.06074 0.0
H1972 H 0.4875 0.55845 0.00961 0.0
H1973 H 0.4607 0.60193 0.21868 0.0
H1974 H 0.48104 0.60072 0.21024 0.0
H1975 H 0.47021 0.61347 0.16841 0.0
H1976 H 0.53188 0.58673 0.14884 0.0
H1977 H 0.51428 0.61807 0.02938 0.0
H1978 H 0.50396 0.56398 0.16218 0.0
H1979 H 0.49498 0.57692 0.20874 0.0
H1980 H 0.51527 0.57402 0.21184 0.0
H1981 H 0.4805 0.60404 0.01085 0.0
H1982 H 0.48804 0.62284 0.02052 0.0
H1983 H 0.47492 0.61491 0.06967 0.0
C1984 C 0.10714 0.12274 0.18395 0.0
C1985 C 0.10822 0.13851 0.1782 0.0
C1986 C 0.10066 0.11631 0.23104 0.0
C1987 C 0.09539 0.12593 0.27353 0.0
C1988 C 0.09557 0.14186 0.26637 0.0
C1989 C 0.10187 0.14798 0.21837 0.0
C1990 C 0.10035 0.09925 0.2368 0.0
C1991 C 0.09017 0.15246 0.31106 0.0
C1992 C 0.07285 0.1083 0.38979 0.0
C1993 C 0.08438 0.10521 0.42792 0.0
C1994 C 0.0762 0.11524 0.33936 0.0
C1995 C 0.09136 0.11936 0.32756 0.0
C1996 C 0.10295 0.11669 0.36675 0.0
C1997 C 0.09932 0.10951 0.41634 0.0
C1998 C 0.06364 0.11773 0.29811 0.0
C1999 C 0.11923 0.12118 0.35587 0.0
H2000 H 0.11191 0.11541 0.15257 0.0
H2001 H 0.10267 0.16019 0.21399 0.0
H2002 H 0.10883 0.09567 0.26796 0.0
H2003 H 0.08905 0.0954 0.2513 0.0
H2004 H 0.10301 0.09343 0.19746 0.0
H2005 H 0.08937 0.16439 0.29654 0.0
H2006 H 0.07891 0.14889 0.32677 0.0
H2007 H 0.09823 0.15204 0.3461 0.0
H2008 H 0.06129 0.10491 0.39864 0.0
H2009 H 0.10822 0.1072 0.44605 0.0
H2010 H 0.06586 0.11085 0.26077 0.0
H2011 H 0.06331 0.12979 0.28515 0.0
H2012 H 0.05233 0.11456 0.31475 0.0
H2013 H 0.12371 0.11465 0.32043 0.0
H2014 H 0.12668 0.11909 0.39191 0.0
H2015 H 0.11987 0.13338 0.34493 0.0
C2016 C 0.09545 0.8697 0.55117 0.0
C2017 C 0.10581 0.873 0.50912 0.0
C2018 C 0.10039 0.86351 0.6011 0.0
C2019 C 0.11599 0.86026 0.60834 0.0
C2020 C 0.12632 0.86264 0.5646 0.0
C2021 C 0.12112 0.86916 0.51562 0.0
C2022 C 0.0891 0.86133 0.64715 0.0
C2023 C 0.14298 0.85894 0.57044 0.0
C2024 C 0.13406 0.8623 0.74904 0.0
C2025 C 0.13526 0.84692 0.76271 0.0
C2026 C 0.12721 0.86681 0.69976 0.0
C2027 C 0.12177 0.85562 0.66292 0.0
C2028 C 0.12261 0.84009 0.67715 0.0
C2029 C 0.12921 0.83592 0.72733 0.0
C2030 C 0.12618 0.88352 0.68643 0.0
C2031 C 0.11716 0.82786 0.63838 0.0
H2032 H 0.08359 0.8727 0.54624 0.0
H2033 H 0.1291 0.8716 0.48284 0.0
H2034 H 0.09012 0.84978 0.66487 0.0
H2035 H 0.09156 0.86953 0.6806 0.0
H2036 H 0.07722 0.86307 0.63327 0.0
H2037 H 0.14915 0.8599 0.53075 0.0
H2038 H 0.14828 0.86683 0.60033 0.0
H2039 H 0.14447 0.84726 0.58663 0.0
H2040 H 0.13865 0.8708 0.77664 0.0
H2041 H 0.13021 0.824 0.73776 0.0
H2042 H 0.11436 0.88658 0.6752 0.0
H2043 H 0.13347 0.88614 0.65047 0.0
H2044 H 0.12982 0.89077 0.72138 0.0
H2045 H 0.10531 0.83011 0.62544 0.0
H2046 H 0.11773 0.81638 0.65715 0.0
H2047 H 0.12426 0.82791 0.60069 0.0
C2048 C 0.36927 0.92016 0.93817 0.0
C2049 C 0.37465 0.91023 0.97864 0.0
C2050 C 0.36218 0.9145 0.89076 0.0
C2051 C 0.36014 0.89865 0.88502 0.0
C2052 C 0.36467 0.88872 0.92774 0.0
C2053 C 0.37212 0.89463 0.97369 0.0
C2054 C 0.35779 0.92536 0.84549 0.0
C2055 C 0.3623 0.87177 0.92383 0.0
C2056 C 0.33445 0.88081 0.77857 0.0
C2057 C 0.3452 0.87476 0.74224 0.0
C2058 C 0.33906 0.88933 0.8243 0.0
C2059 C 0.35471 0.89211 0.83256 0.0
C2060 C 0.36547 0.88696 0.79356 0.0
C2061 C 0.36059 0.8781 0.74925 0.0
C2062 C 0.32732 0.89437 0.86564 0.0
C2063 C 0.38223 0.89007 0.80021 0.0
H2064 H 0.37137 0.93223 0.94213 0.0
H2065 H 0.37621 0.88703 0.00548 0.0
H2066 H 0.36558 0.92381 0.81006 0.0
H2067 H 0.34613 0.92298 0.83068 0.0
H2068 H 0.35842 0.93739 0.85902 0.0
H2069 H 0.36482 0.86591 0.96322 0.0
H2070 H 0.35042 0.86921 0.91188 0.0
H2071 H 0.36981 0.86701 0.89156 0.0
H2072 H 0.32254 0.87815 0.77308 0.0
H2073 H 0.36884 0.87353 0.72061 0.0
H2074 H 0.32915 0.90637 0.87754 0.0
H2075 H 0.32843 0.88741 0.90347 0.0
H2076 H 0.31558 0.8931 0.84967 0.0
H2077 H 0.38418 0.90222 0.80984 0.0
H2078 H 0.38877 0.88709 0.76269 0.0
H2079 H 0.38674 0.88331 0.83506 0.0
C2080 C 0.37311 0.10277 0.04729 0.0
C2081 C 0.37528 0.11279 0.00331 0.0
C2082 C 0.36577 0.10751 0.0953 0.0
C2083 C 0.35997 0.12245 0.09837 0.0
C2084 C 0.36216 0.13264 0.05396 0.0
C2085 C 0.37009 0.12774 0.00715 0.0
C2086 C 0.36413 0.0965 0.14255 0.0
C2087 C 0.35573 0.14852 0.05524 0.0
C2088 C 0.32724 0.12803 0.19729 0.0
C2089 C 0.33434 0.13575 0.2405 0.0
C2090 C 0.33541 0.12395 0.15015 0.0
C2091 C 0.35114 0.12719 0.1473 0.0
C2092 C 0.35842 0.13464 0.19158 0.0
C2093 C 0.34983 0.13911 0.23733 0.0
C2094 C 0.32718 0.11639 0.10307 0.0
C2095 C 0.37527 0.13776 0.19082 0.0
H2096 H 0.37736 0.09124 0.04437 0.0
H2097 H 0.37179 0.13541 0.97284 0.0
H2098 H 0.36847 0.10169 0.18102 0.0
H2099 H 0.35197 0.09382 0.14922 0.0
H2100 H 0.37033 0.08571 0.13514 0.0
H2101 H 0.35846 0.15501 0.01735 0.0
H2102 H 0.34322 0.148 0.05988 0.0
H2103 H 0.36024 0.1548 0.0912 0.0
H2104 H 0.31519 0.12565 0.19959 0.0
H2105 H 0.35526 0.14507 0.27101 0.0
H2106 H 0.33186 0.10487 0.09605 0.0
H2107 H 0.32893 0.12298 0.06468 0.0
H2108 H 0.3148 0.11538 0.11076 0.0
H2109 H 0.3816 0.12699 0.18491 0.0
H2110 H 0.37926 0.1432 0.22938 0.0
H2111 H 0.37815 0.14527 0.15577 0.0
C2112 C 0.86112 0.89776 0.50612 0.0
C2113 C 0.877 0.89779 0.50581 0.0
C2114 C 0.8531 0.89149 0.55042 0.0
C2115 C 0.86124 0.88555 0.59574 0.0
C2116 C 0.87728 0.88616 0.59648 0.0
C2117 C 0.88499 0.89208 0.55103 0.0
C2118 C 0.836 0.89065 0.54776 0.0
C2119 C 0.88633 0.88028 0.64476 0.0
C2120 C 0.84162 0.87804 0.73166 0.0
C2121 C 0.84064 0.86219 0.73082 0.0
C2122 C 0.84806 0.88593 0.68733 0.0
C2123 C 0.85315 0.87771 0.64083 0.0
C2124 C 0.85149 0.86175 0.6389 0.0
C2125 C 0.84546 0.85415 0.68439 0.0
C2126 C 0.85001 0.90291 0.69123 0.0
C2127 C 0.85644 0.85266 0.58939 0.0
H2128 H 0.85499 0.90217 0.47092 0.0
H2129 H 0.8973 0.8923 0.55097 0.0
H2130 H 0.83239 0.87859 0.54659 0.0
H2131 H 0.83091 0.89579 0.58507 0.0
H2132 H 0.83136 0.89651 0.51096 0.0
H2133 H 0.89862 0.88288 0.64097 0.0
H2134 H 0.88204 0.88529 0.68361 0.0
H2135 H 0.88497 0.86779 0.64794 0.0
H2136 H 0.83791 0.8842 0.76784 0.0
H2137 H 0.8445 0.84189 0.68363 0.0
H2138 H 0.84507 0.90855 0.65463 0.0
H2139 H 0.86229 0.90572 0.69195 0.0
H2140 H 0.84463 0.90769 0.72873 0.0
H2141 H 0.85151 0.85755 0.55133 0.0
H2142 H 0.853 0.84056 0.59237 0.0
H2143 H 0.86896 0.85316 0.58528 0.0
C2144 C 0.81501 0.12536 0.36324 0.0
C2145 C 0.82558 0.13065 0.32482 0.0
C2146 C 0.81988 0.1186 0.4124 0.0
C2147 C 0.83562 0.11669 0.42185 0.0
C2148 C 0.84626 0.12148 0.38184 0.0
C2149 C 0.8411 0.12869 0.3342 0.0
C2150 C 0.80828 0.11405 0.45498 0.0
C2151 C 0.86313 0.11921 0.38967 0.0
C2152 C 0.85426 0.11415 0.56103 0.0
C2153 C 0.85717 0.09858 0.56463 0.0
C2154 C 0.84604 0.12008 0.51669 0.0
C2155 C 0.84121 0.11022 0.4742 0.0
C2156 C 0.84354 0.09439 0.47898 0.0
C2157 C 0.85132 0.08872 0.52479 0.0
C2158 C 0.84331 0.13698 0.51379 0.0
C2159 C 0.83895 0.08359 0.43377 0.0
H2160 H 0.80299 0.12707 0.35585 0.0
H2161 H 0.8492 0.13274 0.304 0.0
H2162 H 0.80983 0.10199 0.46682 0.0
H2163 H 0.80991 0.12095 0.49267 0.0
H2164 H 0.79646 0.11565 0.44018 0.0
H2165 H 0.86974 0.12243 0.35255 0.0
H2166 H 0.86716 0.12618 0.42472 0.0
H2167 H 0.86558 0.10717 0.39962 0.0
H2168 H 0.85871 0.12171 0.59226 0.0
H2169 H 0.85371 0.07667 0.52753 0.0
H2170 H 0.83142 0.13938 0.50149 0.0
H2171 H 0.85084 0.14205 0.4822 0.0
H2172 H 0.84561 0.14265 0.55371 0.0
H2173 H 0.8271 0.08574 0.42061 0.0
H2174 H 0.83997 0.07153 0.4466 0.0
H2175 H 0.84634 0.08544 0.39743 0.0
C2176 C 0.61035 0.13373 0.21544 0.0
C2177 C 0.6181 0.12804 0.26125 0.0
C2178 C 0.60636 0.12418 0.17181 0.0
C2179 C 0.60991 0.10853 0.17488 0.0
C2180 C 0.61731 0.10263 0.22185 0.0
C2181 C 0.62149 0.11253 0.26433 0.0
C2182 C 0.59868 0.1309 0.12191 0.0
C2183 C 0.62089 0.08594 0.22697 0.0
C2184 C 0.58664 0.0848 0.07707 0.0
C2185 C 0.59672 0.08308 0.033 0.0
C2186 C 0.59112 0.09225 0.12518 0.0
C2187 C 0.60589 0.09846 0.12841 0.0
C2188 C 0.61632 0.09622 0.08484 0.0
C2189 C 0.61164 0.08835 0.03772 0.0
C2190 C 0.57984 0.09407 0.17147 0.0
C2191 C 0.63208 0.10292 0.08656 0.0
H2192 H 0.60783 0.14575 0.21282 0.0
H2193 H 0.62744 0.10814 0.29997 0.0
H2194 H 0.6056 0.12866 0.08466 0.0
H2195 H 0.58746 0.12547 0.11552 0.0
H2196 H 0.59697 0.14335 0.12571 0.0
H2197 H 0.62602 0.08308 0.26738 0.0
H2198 H 0.61039 0.07914 0.22163 0.0
H2199 H 0.62887 0.08248 0.19402 0.0
H2200 H 0.57514 0.08053 0.07354 0.0
H2201 H 0.6194 0.08704 0.00344 0.0
H2202 H 0.57625 0.10611 0.17433 0.0
H2203 H 0.58512 0.09098 0.21133 0.0
H2204 H 0.56956 0.08697 0.16534 0.0
H2205 H 0.6313 0.11549 0.08584 0.0
H2206 H 0.63915 0.09919 0.05122 0.0
H2207 H 0.63791 0.0997 0.12522 0.0
C2208 C 0.61803 0.85395 0.73734 0.0
C2209 C 0.62065 0.83902 0.72025 0.0
C2210 C 0.61148 0.85695 0.78858 0.0
C2211 C 0.60766 0.84469 0.82362 0.0
C2212 C 0.60927 0.82959 0.805 0.0
C2213 C 0.61568 0.82691 0.75315 0.0
C2214 C 0.60961 0.87325 0.80662 0.0
C2215 C 0.6053 0.81626 0.84122 0.0
C2216 C 0.61201 0.85675 0.9711 0.0
C2217 C 0.59711 0.86094 0.98403 0.0
C2218 C 0.61543 0.85016 0.92027 0.0
C2219 C 0.60365 0.84789 0.88153 0.0
C2220 C 0.58842 0.85081 0.89632 0.0
C2221 C 0.5853 0.85723 0.94778 0.0
C2222 C 0.6318 0.84682 0.90638 0.0
C2223 C 0.57556 0.84846 0.85619 0.0
H2224 H 0.62168 0.8633 0.7116 0.0
H2225 H 0.61761 0.81533 0.73991 0.0
H2226 H 0.59802 0.87515 0.82307 0.0
H2227 H 0.61777 0.87579 0.84013 0.0
H2228 H 0.61162 0.88137 0.77246 0.0
H2229 H 0.60466 0.8055 0.81752 0.0
H2230 H 0.61412 0.81496 0.87343 0.0
H2231 H 0.5943 0.81813 0.86237 0.0
H2232 H 0.62113 0.85938 -0.00051 0.0
H2233 H 0.57372 0.8603 0.95787 0.0
H2234 H 0.63596 0.85529 0.87617 0.0
H2235 H 0.63287 0.83544 0.88722 0.0
H2236 H 0.63924 0.84726 0.94322 0.0
H2237 H 0.57568 0.85774 0.82536 0.0
H2238 H 0.56434 0.84851 0.87704 0.0
H2239 H 0.5769 0.8376 0.83365 0.0
C2240 C 0.61886 0.62683 0.95078 0.0
C2241 C 0.60301 0.62691 0.95458 0.0
C2242 C 0.62616 0.63155 0.90265 0.0
C2243 C 0.61733 0.63619 0.85704 0.0
C2244 C 0.60134 0.63707 0.86165 0.0
C2245 C 0.59435 0.63253 0.91076 0.0
C2246 C 0.64326 0.63076 0.89965 0.0
C2247 C 0.59159 0.64187 0.81368 0.0
C2248 C 0.63885 0.65518 0.74127 0.0
C2249 C 0.64235 0.6427 0.70779 0.0
C2250 C 0.63023 0.65336 0.78925 0.0
C2251 C 0.62485 0.63877 0.8034 0.0
C2252 C 0.62771 0.62627 0.76828 0.0
C2253 C 0.63655 0.62838 0.72103 0.0
C2254 C 0.62754 0.66689 0.82607 0.0
C2255 C 0.62193 0.61057 0.78169 0.0
H2256 H 0.62555 0.6226 0.98493 0.0
H2257 H 0.58207 0.63253 0.91361 0.0
H2258 H 0.64669 0.6216 0.87091 0.0
H2259 H 0.64794 0.64156 0.88346 0.0
H2260 H 0.64848 0.62844 0.94038 0.0
H2261 H 0.57956 0.64363 0.82583 0.0
H2262 H 0.59597 0.6525 0.79513 0.0
H2263 H 0.59199 0.63298 0.78141 0.0
H2264 H 0.64333 0.66629 0.73115 0.0
H2265 H 0.63912 0.61875 0.6949 0.0
H2266 H 0.63388 0.66538 0.86509 0.0
H2267 H 0.61534 0.66783 0.83677 0.0
H2268 H 0.63125 0.67769 0.80669 0.0
H2269 H 0.62766 0.60628 0.81924 0.0
H2270 H 0.624 0.60239 0.74775 0.0
H2271 H 0.60957 0.61092 0.79039 0.0
C2272 C 0.66519 0.38327 0.16841 0.0
C2273 C 0.65373 0.37606 0.19855 0.0
C2274 C 0.66157 0.39251 0.1233 0.0
C2275 C 0.64615 0.39481 0.10939 0.0
C2276 C 0.63455 0.38842 0.1424 0.0
C2277 C 0.6385 0.3789 0.18612 0.0
C2278 C 0.67422 0.39891 0.08845 0.0
C2279 C 0.61796 0.39095 0.12978 0.0
C2280 C 0.6322 0.42397 0.00679 0.0
C2281 C 0.62818 0.4145 0.96301 0.0
C2282 C 0.63893 0.41789 0.05426 0.0
C2283 C 0.64196 0.40212 0.05672 0.0
C2284 C 0.63905 0.39282 0.01045 0.0
C2285 C 0.63193 0.3991 0.96445 0.0
C2286 C 0.64161 0.42808 0.10314 0.0
C2287 C 0.6425 0.37603 0.01088 0.0
H2288 H 0.67699 0.38101 0.17814 0.0
H2289 H 0.62967 0.37345 0.21008 0.0
H2290 H 0.67474 0.39261 0.04901 0.0
H2291 H 0.67206 0.411 0.07845 0.0
H2292 H 0.68543 0.39796 0.10908 0.0
H2293 H 0.61048 0.38689 0.16349 0.0
H2294 H 0.61568 0.40318 0.12269 0.0
H2295 H 0.61488 0.38479 0.09162 0.0
H2296 H 0.62911 0.43588 0.00552 0.0
H2297 H 0.62881 0.39187 0.93019 0.0
H2298 H 0.65279 0.42573 0.12223 0.0
H2299 H 0.63279 0.42583 0.13468 0.0
H2300 H 0.64106 0.44028 0.09176 0.0
H2301 H 0.6541 0.37392 0.0269 0.0
H2302 H 0.64156 0.37092 0.96927 0.0
H2303 H 0.63439 0.37012 0.03851 0.0
C2304 C 0.87721 0.40152 0.50181 0.0
C2305 C 0.88334 0.39178 0.54149 0.0
C2306 C 0.86955 0.39566 0.45605 0.0
C2307 C 0.86766 0.37976 0.45122 0.0
C2308 C 0.87265 0.37004 0.49388 0.0
C2309 C 0.88072 0.37616 0.53814 0.0
C2310 C 0.86471 0.40634 0.41078 0.0
C2311 C 0.87038 0.35307 0.491 0.0
C2312 C 0.84266 0.36334 0.3393 0.0
C2313 C 0.85362 0.35831 0.3018 0.0
C2314 C 0.847 0.37053 0.38826 0.0
C2315 C 0.86259 0.3731 0.39855 0.0
C2316 C 0.87362 0.36861 0.35945 0.0
C2317 C 0.86899 0.361 0.31191 0.0
C2318 C 0.835 0.37478 0.42983 0.0
C2319 C 0.89033 0.37156 0.36828 0.0
H2320 H 0.87937 0.41361 0.50446 0.0
H2321 H 0.8854 0.36871 0.5693 0.0
H2322 H 0.87244 0.40495 0.37509 0.0
H2323 H 0.85307 0.40365 0.39649 0.0
H2324 H 0.86507 0.41839 0.4241 0.0
H2325 H 0.87264 0.34749 0.53113 0.0
H2326 H 0.85862 0.35035 0.478 0.0
H2327 H 0.8782 0.34818 0.45996 0.0
H2328 H 0.83076 0.3611 0.33136 0.0
H2329 H 0.8774 0.35718 0.28243 0.0
H2330 H 0.83621 0.38684 0.44208 0.0
H2331 H 0.83651 0.36783 0.4675 0.0
H2332 H 0.82333 0.37295 0.41389 0.0
H2333 H 0.89225 0.3837 0.37815 0.0
H2334 H 0.89724 0.36856 0.33165 0.0
H2335 H 0.89447 0.36479 0.40371 0.0
C2336 C 0.87416 0.62137 0.80744 0.0
C2337 C 0.85863 0.62003 0.81837 0.0
C2338 C 0.88034 0.61543 0.75881 0.0
C2339 C 0.87058 0.60864 0.71963 0.0
C2340 C 0.85494 0.60698 0.73122 0.0
C2341 C 0.8492 0.61246 0.78097 0.0
C2342 C 0.89717 0.61689 0.74854 0.0
C2343 C 0.84409 0.60023 0.68977 0.0
C2344 C 0.88174 0.61016 0.56939 0.0
C2345 C 0.8853 0.59496 0.55927 0.0
C2346 C 0.87701 0.61481 0.62175 0.0
C2347 C 0.87645 0.60407 0.66508 0.0
C2348 C 0.88063 0.58881 0.65534 0.0
C2349 C 0.88473 0.58436 0.60212 0.0
C2350 C 0.87216 0.63108 0.63027 0.0
C2351 C 0.88067 0.57719 0.70098 0.0
H2352 H 0.88139 0.62729 0.83642 0.0
H2353 H 0.83712 0.61168 0.78897 0.0
H2354 H 0.90194 0.60587 0.73475 0.0
H2355 H 0.89922 0.62524 0.71525 0.0
H2356 H 0.9034 0.62067 0.78581 0.0
H2357 H 0.83229 0.59956 0.70566 0.0
H2358 H 0.84408 0.60725 0.65186 0.0
H2359 H 0.84782 0.58866 0.67797 0.0
H2360 H 0.88223 0.61828 0.53596 0.0
H2361 H 0.88776 0.57264 0.59418 0.0
H2362 H 0.87915 0.63642 0.66286 0.0
H2363 H 0.86017 0.63144 0.64426 0.0
H2364 H 0.87321 0.63796 0.59217 0.0
H2365 H 0.88735 0.58144 0.73645 0.0
H2366 H 0.8855 0.56615 0.68755 0.0
H2367 H 0.86891 0.57524 0.7157 0.0
C2368 C 0.39585 0.33044 0.25905 0.0
C2369 C 0.3898 0.34283 0.28795 0.0
C2370 C 0.40249 0.33244 0.20724 0.0
C2371 C 0.40318 0.34718 0.18447 0.0
C2372 C 0.39861 0.35987 0.21612 0.0
C2373 C 0.39194 0.35753 0.26761 0.0
C2374 C 0.40745 0.31867 0.17505 0.0
C2375 C 0.3995 0.37583 0.19361 0.0
C2376 C 0.42314 0.3585 0.05355 0.0
C2377 C 0.41067 0.36042 0.01832 0.0
C2378 C 0.42113 0.35302 0.10714 0.0
C2379 C 0.40635 0.34929 0.12524 0.0
C2380 C 0.39403 0.34966 0.08787 0.0
C2381 C 0.39635 0.35527 0.03474 0.0
C2382 C 0.43457 0.35255 0.14557 0.0
C2383 C 0.37814 0.34542 0.10538 0.0
H2384 H 0.39443 0.31904 0.27499 0.0
H2385 H 0.38752 0.36716 0.2903 0.0
H2386 H 0.39851 0.31569 0.14478 0.0
H2387 H 0.41804 0.32096 0.15183 0.0
H2388 H 0.4093 0.3087 0.20222 0.0
H2389 H 0.39727 0.3845 0.22574 0.0
H2390 H 0.41084 0.378 0.17548 0.0
H2391 H 0.39097 0.37724 0.16041 0.0
H2392 H 0.4343 0.36226 0.04075 0.0
H2393 H 0.38674 0.35649 0.00723 0.0
H2394 H 0.43413 0.3424 0.17251 0.0
H2395 H 0.43434 0.36272 0.17245 0.0
H2396 H 0.44548 0.35252 0.12272 0.0
H2397 H 0.37816 0.3344 0.12739 0.0
H2398 H 0.37025 0.34461 0.06987 0.0
H2399 H 0.37371 0.35413 0.13418 0.0
C2400 C 0.38042 0.58207 0.91463 0.0
C2401 C 0.37202 0.58071 0.96325 0.0
C2402 C 0.37424 0.58913 0.86835 0.0
C2403 C 0.35942 0.59523 0.87136 0.0
C2404 C 0.35052 0.59303 0.91921 0.0
C2405 C 0.35693 0.58563 0.96472 0.0
C2406 C 0.38397 0.59098 0.81765 0.0
C2407 C 0.3347 0.59947 0.92385 0.0
C2408 C 0.35447 0.6307 0.78616 0.0
C2409 C 0.34666 0.62515 0.74027 0.0
C2410 C 0.35821 0.62113 0.82996 0.0
C2411 C 0.35418 0.60559 0.8274 0.0
C2412 C 0.34615 0.59993 0.78146 0.0
C2413 C 0.34241 0.60983 0.73838 0.0
C2414 C 0.36671 0.62759 0.87856 0.0
C2415 C 0.34185 0.58339 0.77725 0.0
H2416 H 0.39205 0.57804 0.91335 0.0
H2417 H 0.35046 0.58455 0.00246 0.0
H2418 H 0.37746 0.58796 0.78017 0.0
H2419 H 0.38746 0.60302 0.81361 0.0
H2420 H 0.39436 0.58385 0.81934 0.0
H2421 H 0.32856 0.59494 0.96021 0.0
H2422 H 0.33538 0.612 0.92773 0.0
H2423 H 0.32801 0.59694 0.88635 0.0
H2424 H 0.35765 0.64258 0.78799 0.0
H2425 H 0.33634 0.60552 0.70292 0.0
H2426 H 0.37812 0.62232 0.8813 0.0
H2427 H 0.36061 0.62493 0.91729 0.0
H2428 H 0.36814 0.64009 0.87564 0.0
H2429 H 0.35226 0.57634 0.77496 0.0
H2430 H 0.33476 0.581 0.74048 0.0
H2431 H 0.33554 0.57979 0.81449 0.0
C2432 C 0.1231 0.62329 0.70437 0.0
C2433 C 0.12667 0.63815 0.71979 0.0
C2434 C 0.1161 0.6203 0.65392 0.0
C2435 C 0.11283 0.63249 0.61785 0.0
C2436 C 0.11566 0.6476 0.63445 0.0
C2437 C 0.12246 0.65027 0.68563 0.0
C2438 C 0.11293 0.60403 0.63805 0.0
C2439 C 0.1124 0.66084 0.5969 0.0
C2440 C 0.11399 0.61933 0.47056 0.0
C2441 C 0.0986 0.61664 0.46033 0.0
C2442 C 0.11872 0.62565 0.52048 0.0
C2443 C 0.10776 0.62912 0.56116 0.0
C2444 C 0.09213 0.6275 0.54943 0.0
C2445 C 0.08771 0.62137 0.49878 0.0
C2446 C 0.13549 0.62757 0.53114 0.0
C2447 C 0.08014 0.63106 0.59187 0.0
H2448 H 0.12621 0.61393 0.73107 0.0
H2449 H 0.12521 0.6618 0.6975 0.0
H2450 H 0.10106 0.60281 0.62356 0.0
H2451 H 0.12049 0.60067 0.60363 0.0
H2452 H 0.1148 0.59605 0.67277 0.0
H2453 H 0.1133 0.67189 0.61867 0.0
H2454 H 0.12065 0.66081 0.56241 0.0
H2455 H 0.10089 0.65987 0.57879 0.0
H2456 H 0.1224 0.61585 0.44054 0.0
H2457 H 0.07577 0.61937 0.49091 0.0
H2458 H 0.1393 0.61894 0.56137 0.0
H2459 H 0.13784 0.6389 0.54902 0.0
H2460 H 0.14234 0.62623 0.49308 0.0
H2461 H 0.08025 0.62214 0.62408 0.0
H2462 H 0.0686 0.63149 0.57359 0.0
H2463 H 0.08251 0.64205 0.61236 0.0
C2464 C 0.16678 0.35515 0.313 0.0
C2465 C 0.17161 0.36368 0.26767 0.0
C2466 C 0.16027 0.36222 0.35879 0.0
C2467 C 0.15825 0.37814 0.35854 0.0
C2468 C 0.16358 0.38687 0.31364 0.0
C2469 C 0.17037 0.37952 0.26879 0.0
C2470 C 0.15499 0.35256 0.40642 0.0
C2471 C 0.16138 0.40385 0.31167 0.0
C2472 C 0.1247 0.39149 0.44228 0.0
C2473 C 0.13177 0.39703 0.48976 0.0
C2474 C 0.13327 0.3858 0.39848 0.0
C2475 C 0.14928 0.38537 0.40287 0.0
C2476 C 0.15651 0.39108 0.45053 0.0
C2477 C 0.14764 0.39701 0.49335 0.0
C2478 C 0.12517 0.38005 0.34787 0.0
C2479 C 0.17354 0.39052 0.45687 0.0
H2480 H 0.16792 0.3429 0.31241 0.0
H2481 H 0.17409 0.38609 0.23362 0.0
H2482 H 0.15923 0.35727 0.44581 0.0
H2483 H 0.14241 0.35264 0.4083 0.0
H2484 H 0.15885 0.3406 0.40275 0.0
H2485 H 0.16734 0.40912 0.27622 0.0
H2486 H 0.14909 0.40647 0.30835 0.0
H2487 H 0.16555 0.40917 0.35012 0.0
H2488 H 0.11242 0.39166 0.43918 0.0
H2489 H 0.15309 0.40128 0.53017 0.0
H2490 H 0.12707 0.36767 0.34343 0.0
H2491 H 0.12981 0.3856 0.31054 0.0
H2492 H 0.11274 0.38215 0.34954 0.0
H2493 H 0.1774 0.37853 0.45705 0.0
H2494 H 0.17743 0.39604 0.49543 0.0
H2495 H 0.17912 0.39618 0.4215 0.0
loop_
_geom_bond_atom_site_label_1
_geom_bond_atom_site_label_2
_geom_bond_distance
_geom_bond_site_symmetry_2
_ccdc_geom_bond_type
C0 O1 1.306 . S
C0 O3 1.160 . S
O1 C0 1.306 . S
O1 Cd2 2.228 . S
Cd2 O1 2.228 . S
Cd2 O6 2.273 . S
Cd2 O10 2.277 . S
O3 C0 1.160 . S
O3 Cd4 2.203 . S
Cd4 O3 2.203 . S
Cd4 O6 2.411 . S
Cd4 O7 2.333 . S
Cd4 O8 2.352 . S
Cd4 O12 2.277 . S
Cd4 O13 2.356 . S
C5 O10 1.209 . S
C5 O12 1.226 . S
O6 Cd2 2.273 . S
O6 Cd4 2.411 . S
O6 C9 1.320 . S
O7 Cd4 2.333 . S
O7 C9 1.214 . S
O8 Cd4 2.352 . S
O8 C11 1.258 . S
C9 O6 1.320 . S
C9 O7 1.214 . S
O10 Cd2 2.277 . S
O10 C5 1.209 . S
C11 O8 1.258 . S
C11 O13 1.282 . S
O12 Cd4 2.277 . S
O12 C5 1.226 . S
O13 Cd4 2.356 . S
O13 C11 1.282 . S
C14 O15 1.306 . S
C14 O17 1.160 . S
O15 C14 1.306 . S
O15 Cd16 2.228 . S
Cd16 O15 2.228 . S
Cd16 O20 2.273 . S
Cd16 O24 2.277 . S
O17 C14 1.160 . S
O17 Cd18 2.203 . S
Cd18 O17 2.203 . S
Cd18 O20 2.411 . S
Cd18 O21 2.333 . S
Cd18 O22 2.352 . S
Cd18 O26 2.277 . S
Cd18 O27 2.356 . S
C19 O24 1.209 . S
C19 O26 1.226 . S
O20 Cd16 2.273 . S
O20 Cd18 2.411 . S
O20 C23 1.320 . S
O21 Cd18 2.333 . S
O21 C23 1.214 . S
O22 Cd18 2.352 . S
O22 C25 1.258 . S
C23 O20 1.320 . S
C23 O21 1.214 . S
O24 Cd16 2.277 . S
O24 C19 1.209 . S
C25 O22 1.258 . S
C25 O27 1.282 . S
O26 Cd18 2.277 . S
O26 C19 1.226 . S
O27 Cd18 2.356 . S
O27 C25 1.282 . S
C28 O29 1.306 . S
C28 O31 1.160 . S
O29 C28 1.306 . S
O29 Cd30 2.228 . S
Cd30 O29 2.228 . S
Cd30 O34 2.273 . S
Cd30 O38 2.277 . S
O31 C28 1.160 . S
O31 Cd32 2.203 . S
Cd32 O31 2.203 . S
Cd32 O34 2.411 . S
Cd32 O35 2.333 . S
Cd32 O36 2.352 . S
Cd32 O40 2.277 . S
Cd32 O41 2.356 . S
C33 O38 1.209 . S
C33 O40 1.226 . S
O34 Cd30 2.273 . S
O34 Cd32 2.411 . S
O34 C37 1.320 . S
O35 Cd32 2.333 . S
O35 C37 1.214 . S
O36 Cd32 2.352 . S
O36 C39 1.258 . S
C37 O34 1.320 . S
C37 O35 1.214 . S
O38 Cd30 2.277 . S
O38 C33 1.209 . S
C39 O36 1.258 . S
C39 O41 1.282 . S
O40 Cd32 2.277 . S
O40 C33 1.226 . S
O41 Cd32 2.356 . S
O41 C39 1.282 . S
C42 O43 1.306 . S
C42 O45 1.160 . S
O43 C42 1.306 . S
O43 Cd44 2.228 1_556 S
Cd44 O43 2.228 1_554 S
Cd44 O48 2.273 1_554 S
Cd44 O52 2.277 1_554 S
O45 C42 1.160 . S
O45 Cd46 2.203 . S
Cd46 O45 2.203 . S
Cd46 O48 2.411 . S
Cd46 O49 2.333 . S
Cd46 O50 2.352 . S
Cd46 O54 2.277 . S
Cd46 O55 2.356 . S
C47 O52 1.209 . S
C47 O54 1.226 . S
O48 Cd44 2.273 1_556 S
O48 Cd46 2.411 . S
O48 C51 1.320 . S
O49 Cd46 2.333 . S
O49 C51 1.214 . S
O50 Cd46 2.352 . S
O50 C53 1.258 . S
C51 O48 1.320 . S
C51 O49 1.214 . S
O52 Cd44 2.277 1_556 S
O52 C47 1.209 . S
C53 O50 1.258 . S
C53 O55 1.282 . S
O54 Cd46 2.277 . S
O54 C47 1.226 . S
O55 Cd46 2.356 . S
O55 C53 1.282 . S
C56 O57 1.306 . S
C56 O59 1.160 . S
O57 C56 1.306 . S
O57 Cd58 2.228 . S
Cd58 O57 2.228 . S
Cd58 O62 2.273 . S
Cd58 O66 2.277 . S
O59 C56 1.160 . S
O59 Cd60 2.203 . S
Cd60 O59 2.203 . S
Cd60 O62 2.411 . S
Cd60 O63 2.333 . S
Cd60 O64 2.352 . S
Cd60 O68 2.277 . S
Cd60 O69 2.356 . S
C61 O66 1.209 . S
C61 O68 1.226 . S
O62 Cd58 2.273 . S
O62 Cd60 2.411 . S
O62 C65 1.320 . S
O63 Cd60 2.333 . S
O63 C65 1.214 . S
O64 Cd60 2.352 . S
O64 C67 1.258 . S
C65 O62 1.320 . S
C65 O63 1.214 . S
O66 Cd58 2.277 . S
O66 C61 1.209 . S
C67 O64 1.258 . S
C67 O69 1.282 . S
O68 Cd60 2.277 . S
O68 C61 1.226 . S
O69 Cd60 2.356 . S
O69 C67 1.282 . S
C70 O71 1.306 . S
C70 O73 1.160 . S
O71 C70 1.306 . S
O71 Cd72 2.228 1_554 S
Cd72 O71 2.228 1_556 S
Cd72 O76 2.273 1_556 S
Cd72 O80 2.277 1_556 S
O73 C70 1.160 . S
O73 Cd74 2.203 . S
Cd74 O73 2.203 . S
Cd74 O76 2.411 . S
Cd74 O77 2.333 . S
Cd74 O78 2.352 . S
Cd74 O82 2.277 . S
Cd74 O83 2.356 . S
C75 O80 1.209 . S
C75 O82 1.226 . S
O76 Cd72 2.273 1_554 S
O76 Cd74 2.411 . S
O76 C79 1.320 . S
O77 Cd74 2.333 . S
O77 C79 1.214 . S
O78 Cd74 2.352 . S
O78 C81 1.258 . S
C79 O76 1.320 . S
C79 O77 1.214 . S
O80 Cd72 2.277 1_554 S
O80 C75 1.209 . S
C81 O78 1.258 . S
C81 O83 1.282 . S
O82 Cd74 2.277 . S
O82 C75 1.226 . S
O83 Cd74 2.356 . S
O83 C81 1.282 . S
C84 O85 1.306 . S
C84 O87 1.160 . S
O85 C84 1.306 . S
O85 Cd86 2.228 . S
Cd86 O85 2.228 . S
Cd86 O90 2.273 . S
Cd86 O94 2.277 . S
O87 C84 1.160 . S
O87 Cd88 2.203 . S
Cd88 O87 2.203 . S
Cd88 O90 2.411 . S
Cd88 O91 2.333 . S
Cd88 O92 2.352 . S
Cd88 O96 2.277 . S
Cd88 O97 2.356 . S
C89 O94 1.209 . S
C89 O96 1.226 . S
O90 Cd86 2.273 . S
O90 Cd88 2.411 . S
O90 C93 1.320 . S
O91 Cd88 2.333 . S
O91 C93 1.214 . S
O92 Cd88 2.352 . S
O92 C95 1.258 . S
C93 O90 1.320 . S
C93 O91 1.214 . S
O94 Cd86 2.277 . S
O94 C89 1.209 . S
C95 O92 1.258 . S
C95 O97 1.282 . S
O96 Cd88 2.277 . S
O96 C89 1.226 . S
O97 Cd88 2.356 . S
O97 C95 1.282 . S
C98 O99 1.306 . S
C98 O101 1.160 . S
O99 C98 1.306 . S
O99 Cd100 2.228 . S
Cd100 O99 2.228 . S
Cd100 O104 2.273 . S
Cd100 O108 2.277 . S
O101 C98 1.160 . S
O101 Cd102 2.203 . S
Cd102 O101 2.203 . S
Cd102 O104 2.411 . S
Cd102 O105 2.333 . S
Cd102 O106 2.352 . S
Cd102 O110 2.277 . S
Cd102 O111 2.356 . S
C103 O108 1.209 . S
C103 O110 1.226 . S
O104 Cd100 2.273 . S
O104 Cd102 2.411 . S
O104 C107 1.320 . S
O105 Cd102 2.333 . S
O105 C107 1.214 . S
O106 Cd102 2.352 . S
O106 C109 1.258 . S
C107 O104 1.320 . S
C107 O105 1.214 . S
O108 Cd100 2.277 . S
O108 C103 1.209 . S
C109 O106 1.258 . S
C109 O111 1.282 . S
O110 Cd102 2.277 . S
O110 C103 1.226 . S
O111 Cd102 2.356 . S
O111 C109 1.282 . S
C112 O113 1.306 . S
C112 O115 1.160 . S
O113 C112 1.306 . S
O113 Cd114 2.228 . S
Cd114 O113 2.228 . S
Cd114 O118 2.273 . S
Cd114 O122 2.277 . S
O115 C112 1.160 . S
O115 Cd116 2.203 . S
Cd116 O115 2.203 . S
Cd116 O118 2.411 . S
Cd116 O119 2.333 . S
Cd116 O120 2.352 . S
Cd116 O124 2.277 . S
Cd116 O125 2.356 . S
C117 O122 1.209 . S
C117 O124 1.226 . S
O118 Cd114 2.273 . S
O118 Cd116 2.411 . S
O118 C121 1.320 . S
O119 Cd116 2.333 . S
O119 C121 1.214 . S
O120 Cd116 2.352 . S
O120 C123 1.258 . S
C121 O118 1.320 . S
C121 O119 1.214 . S
O122 Cd114 2.277 . S
O122 C117 1.209 . S
C123 O120 1.258 . S
C123 O125 1.282 . S
O124 Cd116 2.277 . S
O124 C117 1.226 . S
O125 Cd116 2.356 . S
O125 C123 1.282 . S
C126 O127 1.306 . S
C126 O129 1.160 . S
O127 C126 1.306 . S
O127 Cd128 2.228 . S
Cd128 O127 2.228 . S
Cd128 O132 2.273 . S
Cd128 O136 2.277 . S
O129 C126 1.160 . S
O129 Cd130 2.203 . S
Cd130 O129 2.203 . S
Cd130 O132 2.411 . S
Cd130 O133 2.333 . S
Cd130 O134 2.352 . S
Cd130 O138 2.277 . S
Cd130 O139 2.356 . S
C131 O136 1.209 . S
C131 O138 1.226 . S
O132 Cd128 2.273 . S
O132 Cd130 2.411 . S
O132 C135 1.320 . S
O133 Cd130 2.333 . S
O133 C135 1.214 . S
O134 Cd130 2.352 . S
O134 C137 1.258 . S
C135 O132 1.320 . S
C135 O133 1.214 . S
O136 Cd128 2.277 . S
O136 C131 1.209 . S
C137 O134 1.258 . S
C137 O139 1.282 . S
O138 Cd130 2.277 . S
O138 C131 1.226 . S
O139 Cd130 2.356 . S
O139 C137 1.282 . S
C140 O141 1.306 . S
C140 O143 1.160 . S
O141 C140 1.306 . S
O141 Cd142 2.228 . S
Cd142 O141 2.228 . S
Cd142 O146 2.273 . S
Cd142 O150 2.277 . S
O143 C140 1.160 . S
O143 Cd144 2.203 . S
Cd144 O143 2.203 . S
Cd144 O146 2.411 . S
Cd144 O147 2.333 . S
Cd144 O148 2.352 . S
Cd144 O152 2.277 . S
Cd144 O153 2.356 . S
C145 O150 1.209 . S
C145 O152 1.226 . S
O146 Cd142 2.273 . S
O146 Cd144 2.411 . S
O146 C149 1.320 . S
O147 Cd144 2.333 . S
O147 C149 1.214 . S
O148 Cd144 2.352 . S
O148 C151 1.258 . S
C149 O146 1.320 . S
C149 O147 1.214 . S
O150 Cd142 2.277 . S
O150 C145 1.209 . S
C151 O148 1.258 . S
C151 O153 1.282 . S
O152 Cd144 2.277 . S
O152 C145 1.226 . S
O153 Cd144 2.356 . S
O153 C151 1.282 . S
C154 O155 1.306 . S
C154 O157 1.160 . S
O155 C154 1.306 . S
O155 Cd156 2.228 1_554 S
Cd156 O155 2.228 1_556 S
Cd156 O160 2.273 1_556 S
Cd156 O164 2.277 1_556 S
O157 C154 1.160 . S
O157 Cd158 2.203 . S
Cd158 O157 2.203 . S
Cd158 O160 2.411 . S
Cd158 O161 2.333 . S
Cd158 O162 2.352 . S
Cd158 O166 2.277 . S
Cd158 O167 2.356 . S
C159 O164 1.209 . S
C159 O166 1.226 . S
O160 Cd156 2.273 1_554 S
O160 Cd158 2.411 . S
O160 C163 1.320 . S
O161 Cd158 2.333 . S
O161 C163 1.214 . S
O162 Cd158 2.352 . S
O162 C165 1.258 . S
C163 O160 1.320 . S
C163 O161 1.214 . S
O164 Cd156 2.277 1_554 S
O164 C159 1.209 . S
C165 O162 1.258 . S
C165 O167 1.282 . S
O166 Cd158 2.277 . S
O166 C159 1.226 . S
O167 Cd158 2.356 . S
O167 C165 1.282 . S
C168 O169 1.306 . S
C168 O171 1.160 . S
O169 C168 1.306 . S
O169 Cd170 2.228 . S
Cd170 O169 2.228 . S
Cd170 O174 2.273 . S
Cd170 O178 2.277 . S
O171 C168 1.160 . S
O171 Cd172 2.203 . S
Cd172 O171 2.203 . S
Cd172 O174 2.411 . S
Cd172 O175 2.333 . S
Cd172 O176 2.352 . S
Cd172 O180 2.277 . S
Cd172 O181 2.356 . S
C173 O178 1.209 . S
C173 O180 1.226 . S
O174 Cd170 2.273 . S
O174 Cd172 2.411 . S
O174 C177 1.320 . S
O175 Cd172 2.333 . S
O175 C177 1.214 . S
O176 Cd172 2.352 . S
O176 C179 1.258 . S
C177 O174 1.320 . S
C177 O175 1.214 . S
O178 Cd170 2.277 . S
O178 C173 1.209 . S
C179 O176 1.258 . S
C179 O181 1.282 . S
O180 Cd172 2.277 . S
O180 C173 1.226 . S
O181 Cd172 2.356 . S
O181 C179 1.282 . S
C182 O183 1.306 . S
C182 O185 1.160 . S
O183 C182 1.306 . S
O183 Cd184 2.228 1_556 S
Cd184 O183 2.228 1_554 S
Cd184 O188 2.273 1_554 S
Cd184 O192 2.277 1_554 S
O185 C182 1.160 . S
O185 Cd186 2.203 . S
Cd186 O185 2.203 . S
Cd186 O188 2.411 . S
Cd186 O189 2.333 . S
Cd186 O190 2.352 . S
Cd186 O194 2.277 . S
Cd186 O195 2.356 . S
C187 O192 1.209 . S
C187 O194 1.226 . S
O188 Cd184 2.273 1_556 S
O188 Cd186 2.411 . S
O188 C191 1.320 . S
O189 Cd186 2.333 . S
O189 C191 1.214 . S
O190 Cd186 2.352 . S
O190 C193 1.258 . S
C191 O188 1.320 . S
C191 O189 1.214 . S
O192 Cd184 2.277 1_556 S
O192 C187 1.209 . S
C193 O190 1.258 . S
C193 O195 1.282 . S
O194 Cd186 2.277 . S
O194 C187 1.226 . S
O195 Cd186 2.356 . S
O195 C193 1.282 . S
C196 O197 1.306 . S
C196 O199 1.160 . S
O197 C196 1.306 . S
O197 Cd198 2.228 . S
Cd198 O197 2.228 . S
Cd198 O202 2.273 . S
Cd198 O206 2.277 . S
O199 C196 1.160 . S
O199 Cd200 2.203 . S
Cd200 O199 2.203 . S
Cd200 O202 2.411 . S
Cd200 O203 2.333 . S
Cd200 O204 2.352 . S
Cd200 O208 2.277 . S
Cd200 O209 2.356 . S
C201 O206 1.209 . S
C201 O208 1.226 . S
O202 Cd198 2.273 . S
O202 Cd200 2.411 . S
O202 C205 1.320 . S
O203 Cd200 2.333 . S
O203 C205 1.214 . S
O204 Cd200 2.352 . S
O204 C207 1.258 . S
C205 O202 1.320 . S
C205 O203 1.214 . S
O206 Cd198 2.277 . S
O206 C201 1.209 . S
C207 O204 1.258 . S
C207 O209 1.282 . S
O208 Cd200 2.277 . S
O208 C201 1.226 . S
O209 Cd200 2.356 . S
O209 C207 1.282 . S
C210 O211 1.306 . S
C210 O213 1.160 . S
O211 C210 1.306 . S
O211 Cd212 2.228 . S
Cd212 O211 2.228 . S
Cd212 O216 2.273 . S
Cd212 O220 2.277 . S
O213 C210 1.160 . S
O213 Cd214 2.203 . S
Cd214 O213 2.203 . S
Cd214 O216 2.411 . S
Cd214 O217 2.333 . S
Cd214 O218 2.352 . S
Cd214 O222 2.277 . S
Cd214 O223 2.356 . S
C215 O220 1.209 . S
C215 O222 1.226 . S
O216 Cd212 2.273 . S
O216 Cd214 2.411 . S
O216 C219 1.320 . S
O217 Cd214 2.333 . S
O217 C219 1.214 . S
O218 Cd214 2.352 . S
O218 C221 1.258 . S
C219 O216 1.320 . S
C219 O217 1.214 . S
O220 Cd212 2.277 . S
O220 C215 1.209 . S
C221 O218 1.258 . S
C221 O223 1.282 . S
O222 Cd214 2.277 . S
O222 C215 1.226 . S
O223 Cd214 2.356 . S
O223 C221 1.282 . S
C224 O225 1.306 . S
C224 O227 1.160 . S
O225 C224 1.306 . S
O225 Cd226 2.228 . S
Cd226 O225 2.228 . S
Cd226 O230 2.273 . S
Cd226 O234 2.277 . S
O227 C224 1.160 . S
O227 Cd228 2.203 . S
Cd228 O227 2.203 . S
Cd228 O230 2.411 . S
Cd228 O231 2.333 . S
Cd228 O232 2.352 . S
Cd228 O236 2.277 . S
Cd228 O237 2.356 . S
C229 O234 1.209 . S
C229 O236 1.226 . S
O230 Cd226 2.273 . S
O230 Cd228 2.411 . S
O230 C233 1.320 . S
O231 Cd228 2.333 . S
O231 C233 1.214 . S
O232 Cd228 2.352 . S
O232 C235 1.258 . S
C233 O230 1.320 . S
C233 O231 1.214 . S
O234 Cd226 2.277 . S
O234 C229 1.209 . S
C235 O232 1.258 . S
C235 O237 1.282 . S
O236 Cd228 2.277 . S
O236 C229 1.226 . S
O237 Cd228 2.356 . S
O237 C235 1.282 . S
C238 O239 1.306 . S
C238 O241 1.160 . S
O239 C238 1.306 . S
O239 Cd240 2.228 1_556 S
Cd240 O239 2.228 1_554 S
Cd240 O244 2.273 1_554 S
Cd240 O248 2.277 1_554 S
O241 C238 1.160 . S
O241 Cd242 2.203 . S
Cd242 O241 2.203 . S
Cd242 O244 2.411 . S
Cd242 O245 2.333 . S
Cd242 O246 2.352 . S
Cd242 O250 2.277 . S
Cd242 O251 2.356 . S
C243 O248 1.209 . S
C243 O250 1.226 . S
O244 Cd240 2.273 1_556 S
O244 Cd242 2.411 . S
O244 C247 1.320 . S
O245 Cd242 2.333 . S
O245 C247 1.214 . S
O246 Cd242 2.352 . S
O246 C249 1.258 . S
C247 O244 1.320 . S
C247 O245 1.214 . S
O248 Cd240 2.277 1_556 S
O248 C243 1.209 . S
C249 O246 1.258 . S
C249 O251 1.282 . S
O250 Cd242 2.277 . S
O250 C243 1.226 . S
O251 Cd242 2.356 . S
O251 C249 1.282 . S
C252 O253 1.306 . S
C252 O255 1.160 . S
O253 C252 1.306 . S
O253 Cd254 2.228 . S
Cd254 O253 2.228 . S
Cd254 O258 2.273 . S
Cd254 O262 2.277 . S
O255 C252 1.160 . S
O255 Cd256 2.203 . S
Cd256 O255 2.203 . S
Cd256 O258 2.411 . S
Cd256 O259 2.333 . S
Cd256 O260 2.352 . S
Cd256 O264 2.277 . S
Cd256 O265 2.356 . S
C257 O262 1.209 . S
C257 O264 1.226 . S
O258 Cd254 2.273 . S
O258 Cd256 2.411 . S
O258 C261 1.320 . S
O259 Cd256 2.333 . S
O259 C261 1.214 . S
O260 Cd256 2.352 . S
O260 C263 1.258 . S
C261 O258 1.320 . S
C261 O259 1.214 . S
O262 Cd254 2.277 . S
O262 C257 1.209 . S
C263 O260 1.258 . S
C263 O265 1.282 . S
O264 Cd256 2.277 . S
O264 C257 1.226 . S
O265 Cd256 2.356 . S
O265 C263 1.282 . S
C266 O267 1.306 . S
C266 O269 1.160 . S
O267 C266 1.306 . S
O267 Cd268 2.228 . S
Cd268 O267 2.228 . S
Cd268 O272 2.273 . S
Cd268 O276 2.277 . S
O269 C266 1.160 . S
O269 Cd270 2.203 . S
Cd270 O269 2.203 . S
Cd270 O272 2.411 . S
Cd270 O273 2.333 . S
Cd270 O274 2.352 . S
Cd270 O278 2.277 . S
Cd270 O279 2.356 . S
C271 O276 1.209 . S
C271 O278 1.226 . S
O272 Cd268 2.273 . S
O272 Cd270 2.411 . S
O272 C275 1.320 . S
O273 Cd270 2.333 . S
O273 C275 1.214 . S
O274 Cd270 2.352 . S
O274 C277 1.258 . S
C275 O272 1.320 . S
C275 O273 1.214 . S
O276 Cd268 2.277 . S
O276 C271 1.209 . S
C277 O274 1.258 . S
C277 O279 1.282 . S
O278 Cd270 2.277 . S
O278 C271 1.226 . S
O279 Cd270 2.356 . S
O279 C277 1.282 . S
C280 O281 1.306 . S
C280 O283 1.160 . S
O281 C280 1.306 . S
O281 Cd282 2.228 . S
Cd282 O281 2.228 . S
Cd282 O286 2.273 . S
Cd282 O290 2.277 . S
O283 C280 1.160 . S
O283 Cd284 2.203 . S
Cd284 O283 2.203 . S
Cd284 O286 2.411 . S
Cd284 O287 2.333 . S
Cd284 O288 2.352 . S
Cd284 O292 2.277 . S
Cd284 O293 2.356 . S
C285 O290 1.209 . S
C285 O292 1.226 . S
O286 Cd282 2.273 . S
O286 Cd284 2.411 . S
O286 C289 1.320 . S
O287 Cd284 2.333 . S
O287 C289 1.214 . S
O288 Cd284 2.352 . S
O288 C291 1.258 . S
C289 O286 1.320 . S
C289 O287 1.214 . S
O290 Cd282 2.277 . S
O290 C285 1.209 . S
C291 O288 1.258 . S
C291 O293 1.282 . S
O292 Cd284 2.277 . S
O292 C285 1.226 . S
O293 Cd284 2.356 . S
O293 C291 1.282 . S
C294 O295 1.306 . S
C294 O297 1.160 . S
O295 C294 1.306 . S
O295 Cd296 2.228 . S
Cd296 O295 2.228 . S
Cd296 O300 2.273 . S
Cd296 O304 2.277 . S
O297 C294 1.160 . S
O297 Cd298 2.203 . S
Cd298 O297 2.203 . S
Cd298 O300 2.411 . S
Cd298 O301 2.333 . S
Cd298 O302 2.352 . S
Cd298 O306 2.277 . S
Cd298 O307 2.356 . S
C299 O304 1.209 . S
C299 O306 1.226 . S
O300 Cd296 2.273 . S
O300 Cd298 2.411 . S
O300 C303 1.320 . S
O301 Cd298 2.333 . S
O301 C303 1.214 . S
O302 Cd298 2.352 . S
O302 C305 1.258 . S
C303 O300 1.320 . S
C303 O301 1.214 . S
O304 Cd296 2.277 . S
O304 C299 1.209 . S
C305 O302 1.258 . S
C305 O307 1.282 . S
O306 Cd298 2.277 . S
O306 C299 1.226 . S
O307 Cd298 2.356 . S
O307 C305 1.282 . S
C308 O309 1.306 . S
C308 O311 1.160 . S
O309 C308 1.306 . S
O309 Cd310 2.228 . S
Cd310 O309 2.228 . S
Cd310 O314 2.273 . S
Cd310 O318 2.277 . S
O311 C308 1.160 . S
O311 Cd312 2.203 . S
Cd312 O311 2.203 . S
Cd312 O314 2.411 . S
Cd312 O315 2.333 . S
Cd312 O316 2.352 . S
Cd312 O320 2.277 . S
Cd312 O321 2.356 . S
C313 O318 1.209 . S
C313 O320 1.226 . S
O314 Cd310 2.273 . S
O314 Cd312 2.411 . S
O314 C317 1.320 . S
O315 Cd312 2.333 . S
O315 C317 1.214 . S
O316 Cd312 2.352 . S
O316 C319 1.258 . S
C317 O314 1.320 . S
C317 O315 1.214 . S
O318 Cd310 2.277 . S
O318 C313 1.209 . S
C319 O316 1.258 . S
C319 O321 1.282 . S
O320 Cd312 2.277 . S
O320 C313 1.226 . S
O321 Cd312 2.356 . S
O321 C319 1.282 . S
C322 O323 1.306 . S
C322 O325 1.160 . S
O323 C322 1.306 . S
O323 Cd324 2.228 1_554 S
Cd324 O323 2.228 1_556 S
Cd324 O328 2.273 1_556 S
Cd324 O332 2.277 1_556 S
O325 C322 1.160 . S
O325 Cd326 2.203 . S
Cd326 O325 2.203 . S
Cd326 O328 2.411 . S
Cd326 O329 2.333 . S
Cd326 O330 2.352 . S
Cd326 O334 2.277 . S
Cd326 O335 2.356 . S
C327 O332 1.209 . S
C327 O334 1.226 . S
O328 Cd324 2.273 1_554 S
O328 Cd326 2.411 . S
O328 C331 1.320 . S
O329 Cd326 2.333 . S
O329 C331 1.214 . S
O330 Cd326 2.352 . S
O330 C333 1.258 . S
C331 O328 1.320 . S
C331 O329 1.214 . S
O332 Cd324 2.277 1_554 S
O332 C327 1.209 . S
C333 O330 1.258 . S
C333 O335 1.282 . S
O334 Cd326 2.277 . S
O334 C327 1.226 . S
O335 Cd326 2.356 . S
O335 C333 1.282 . S
C336 O337 1.306 . S
C336 O339 1.160 . S
O337 C336 1.306 . S
O337 Cd338 2.228 . S
Cd338 O337 2.228 . S
Cd338 O342 2.273 . S
Cd338 O346 2.277 . S
O339 C336 1.160 . S
O339 Cd340 2.203 . S
Cd340 O339 2.203 . S
Cd340 O342 2.411 . S
Cd340 O343 2.333 . S
Cd340 O344 2.352 . S
Cd340 O348 2.277 . S
Cd340 O349 2.356 . S
C341 O346 1.209 . S
C341 O348 1.226 . S
O342 Cd338 2.273 . S
O342 Cd340 2.411 . S
O342 C345 1.320 . S
O343 Cd340 2.333 . S
O343 C345 1.214 . S
O344 Cd340 2.352 . S
O344 C347 1.258 . S
C345 O342 1.320 . S
C345 O343 1.214 . S
O346 Cd338 2.277 . S
O346 C341 1.209 . S
C347 O344 1.258 . S
C347 O349 1.282 . S
O348 Cd340 2.277 . S
O348 C341 1.226 . S
O349 Cd340 2.356 . S
O349 C347 1.282 . S
C350 O351 1.306 . S
C350 O353 1.160 . S
O351 C350 1.306 . S
O351 Cd352 2.228 1_554 S
Cd352 O351 2.228 1_556 S
Cd352 O356 2.273 1_556 S
Cd352 O360 2.277 1_556 S
O353 C350 1.160 . S
O353 Cd354 2.203 . S
Cd354 O353 2.203 . S
Cd354 O356 2.411 . S
Cd354 O357 2.333 . S
Cd354 O358 2.352 . S
Cd354 O362 2.277 . S
Cd354 O363 2.356 . S
C355 O360 1.209 . S
C355 O362 1.226 . S
O356 Cd352 2.273 1_554 S
O356 Cd354 2.411 . S
O356 C359 1.320 . S
O357 Cd354 2.333 . S
O357 C359 1.214 . S
O358 Cd354 2.352 . S
O358 C361 1.258 . S
C359 O356 1.320 . S
C359 O357 1.214 . S
O360 Cd352 2.277 1_554 S
O360 C355 1.209 . S
C361 O358 1.258 . S
C361 O363 1.282 . S
O362 Cd354 2.277 . S
O362 C355 1.226 . S
O363 Cd354 2.356 . S
O363 C361 1.282 . S
C364 O365 1.306 . S
C364 O367 1.160 . S
O365 C364 1.306 . S
O365 Cd366 2.228 . S
Cd366 O365 2.228 . S
Cd366 O370 2.273 . S
Cd366 O374 2.277 . S
O367 C364 1.160 . S
O367 Cd368 2.203 . S
Cd368 O367 2.203 . S
Cd368 O370 2.411 . S
Cd368 O371 2.333 . S
Cd368 O372 2.352 . S
Cd368 O376 2.277 . S
Cd368 O377 2.356 . S
C369 O374 1.209 . S
C369 O376 1.226 . S
O370 Cd366 2.273 . S
O370 Cd368 2.411 . S
O370 C373 1.320 . S
O371 Cd368 2.333 . S
O371 C373 1.214 . S
O372 Cd368 2.352 . S
O372 C375 1.258 . S
C373 O370 1.320 . S
C373 O371 1.214 . S
O374 Cd366 2.277 . S
O374 C369 1.209 . S
C375 O372 1.258 . S
C375 O377 1.282 . S
O376 Cd368 2.277 . S
O376 C369 1.226 . S
O377 Cd368 2.356 . S
O377 C375 1.282 . S
C378 O379 1.306 . S
C378 O381 1.160 . S
O379 C378 1.306 . S
O379 Cd380 2.228 . S
Cd380 O379 2.228 . S
Cd380 O384 2.273 . S
Cd380 O388 2.277 . S
O381 C378 1.160 . S
O381 Cd382 2.203 . S
Cd382 O381 2.203 . S
Cd382 O384 2.411 . S
Cd382 O385 2.333 . S
Cd382 O386 2.352 . S
Cd382 O390 2.277 . S
Cd382 O391 2.356 . S
C383 O388 1.209 . S
C383 O390 1.226 . S
O384 Cd380 2.273 . S
O384 Cd382 2.411 . S
O384 C387 1.320 . S
O385 Cd382 2.333 . S
O385 C387 1.214 . S
O386 Cd382 2.352 . S
O386 C389 1.258 . S
C387 O384 1.320 . S
C387 O385 1.214 . S
O388 Cd380 2.277 . S
O388 C383 1.209 . S
C389 O386 1.258 . S
C389 O391 1.282 . S
O390 Cd382 2.277 . S
O390 C383 1.226 . S
O391 Cd382 2.356 . S
O391 C389 1.282 . S
C392 O393 1.306 . S
C392 O395 1.160 . S
O393 C392 1.306 . S
O393 Cd394 2.228 . S
Cd394 O393 2.228 . S
Cd394 O398 2.273 . S
Cd394 O402 2.277 . S
O395 C392 1.160 . S
O395 Cd396 2.203 . S
Cd396 O395 2.203 . S
Cd396 O398 2.411 . S
Cd396 O399 2.333 . S
Cd396 O400 2.352 . S
Cd396 O404 2.277 . S
Cd396 O405 2.356 . S
C397 O402 1.209 . S
C397 O404 1.226 . S
O398 Cd394 2.273 . S
O398 Cd396 2.411 . S
O398 C401 1.320 . S
O399 Cd396 2.333 . S
O399 C401 1.214 . S
O400 Cd396 2.352 . S
O400 C403 1.258 . S
C401 O398 1.320 . S
C401 O399 1.214 . S
O402 Cd394 2.277 . S
O402 C397 1.209 . S
C403 O400 1.258 . S
C403 O405 1.282 . S
O404 Cd396 2.277 . S
O404 C397 1.226 . S
O405 Cd396 2.356 . S
O405 C403 1.282 . S
C406 O407 1.306 . S
C406 O409 1.160 . S
O407 C406 1.306 . S
O407 Cd408 2.228 . S
Cd408 O407 2.228 . S
Cd408 O412 2.273 . S
Cd408 O416 2.277 . S
O409 C406 1.160 . S
O409 Cd410 2.203 . S
Cd410 O409 2.203 . S
Cd410 O412 2.411 . S
Cd410 O413 2.333 . S
Cd410 O414 2.352 . S
Cd410 O418 2.277 . S
Cd410 O419 2.356 . S
C411 O416 1.209 . S
C411 O418 1.226 . S
O412 Cd408 2.273 . S
O412 Cd410 2.411 . S
O412 C415 1.320 . S
O413 Cd410 2.333 . S
O413 C415 1.214 . S
O414 Cd410 2.352 . S
O414 C417 1.258 . S
C415 O412 1.320 . S
C415 O413 1.214 . S
O416 Cd408 2.277 . S
O416 C411 1.209 . S
C417 O414 1.258 . S
C417 O419 1.282 . S
O418 Cd410 2.277 . S
O418 C411 1.226 . S
O419 Cd410 2.356 . S
O419 C417 1.282 . S
C420 O421 1.306 . S
C420 O423 1.160 . S
O421 C420 1.306 . S
O421 Cd422 2.228 . S
Cd422 O421 2.228 . S
Cd422 O426 2.273 . S
Cd422 O430 2.277 . S
O423 C420 1.160 . S
O423 Cd424 2.203 . S
Cd424 O423 2.203 . S
Cd424 O426 2.411 . S
Cd424 O427 2.333 . S
Cd424 O428 2.352 . S
Cd424 O432 2.277 . S
Cd424 O433 2.356 . S
C425 O430 1.209 . S
C425 O432 1.226 . S
O426 Cd422 2.273 . S
O426 Cd424 2.411 . S
O426 C429 1.320 . S
O427 Cd424 2.333 . S
O427 C429 1.214 . S
O428 Cd424 2.352 . S
O428 C431 1.258 . S
C429 O426 1.320 . S
C429 O427 1.214 . S
O430 Cd422 2.277 . S
O430 C425 1.209 . S
C431 O428 1.258 . S
C431 O433 1.282 . S
O432 Cd424 2.277 . S
O432 C425 1.226 . S
O433 Cd424 2.356 . S
O433 C431 1.282 . S
C434 O435 1.306 . S
C434 O437 1.160 . S
O435 C434 1.306 . S
O435 Cd436 2.228 1_556 S
Cd436 O435 2.228 1_554 S
Cd436 O440 2.273 1_554 S
Cd436 O444 2.277 1_554 S
O437 C434 1.160 . S
O437 Cd438 2.203 . S
Cd438 O437 2.203 . S
Cd438 O440 2.411 . S
Cd438 O441 2.333 . S
Cd438 O442 2.352 . S
Cd438 O446 2.277 . S
Cd438 O447 2.356 . S
C439 O444 1.209 . S
C439 O446 1.226 . S
O440 Cd436 2.273 1_556 S
O440 Cd438 2.411 . S
O440 C443 1.320 . S
O441 Cd438 2.333 . S
O441 C443 1.214 . S
O442 Cd438 2.352 . S
O442 C445 1.258 . S
C443 O440 1.320 . S
C443 O441 1.214 . S
O444 Cd436 2.277 1_556 S
O444 C439 1.209 . S
C445 O442 1.258 . S
C445 O447 1.282 . S
O446 Cd438 2.277 . S
O446 C439 1.226 . S
O447 Cd438 2.356 . S
O447 C445 1.282 . S
C448 C449 1.391 . S
C448 C450 1.394 . S
C448 H464 0.931 . S
C449 C448 1.391 . S
C449 C453 1.376 . S
C450 C448 1.394 . S
C450 C451 1.369 . S
C450 C454 1.531 . S
C451 C450 1.369 . S
C451 C452 1.410 . S
C451 C459 1.503 . S
C452 C451 1.410 . S
C452 C453 1.392 . S
C452 C455 1.511 . S
C453 C449 1.376 . S
C453 C452 1.392 . S
C453 H465 0.929 . S
C454 C450 1.531 . S
C454 H466 0.960 . S
C454 H467 0.962 . S
C454 H468 0.960 . S
C455 C452 1.511 . S
C455 H469 0.961 . S
C455 H470 0.961 . S
C455 H471 0.961 . S
C456 C457 1.370 . S
C456 C458 1.363 . S
C456 H472 0.931 . S
C457 C456 1.370 . S
C457 C461 1.408 . S
C458 C456 1.363 . S
C458 C459 1.370 . S
C458 C462 1.524 . S
C459 C451 1.503 . S
C459 C458 1.370 . S
C459 C460 1.403 . S
C460 C459 1.403 . S
C460 C461 1.404 . S
C460 C463 1.539 . S
C461 C457 1.408 . S
C461 C460 1.404 . S
C461 H473 0.930 . S
C462 C458 1.524 . S
C462 H474 0.956 . S
C462 H475 0.961 . S
C462 H476 0.961 . S
C463 C460 1.539 . S
C463 H477 0.958 . S
C463 H478 0.961 . S
C463 H479 0.960 . S
H464 C448 0.931 . S
H465 C453 0.929 . S
H466 C454 0.960 . S
H467 C454 0.962 . S
H468 C454 0.960 . S
H469 C455 0.961 . S
H470 C455 0.961 . S
H471 C455 0.961 . S
H472 C456 0.931 . S
H473 C461 0.930 . S
H474 C462 0.956 . S
H475 C462 0.961 . S
H476 C462 0.961 . S
H477 C463 0.958 . S
H478 C463 0.961 . S
H479 C463 0.960 . S
C480 C481 1.391 . S
C480 C482 1.394 . S
C480 H496 0.931 . S
C481 C480 1.391 . S
C481 C485 1.376 . S
C482 C480 1.394 . S
C482 C483 1.369 . S
C482 C486 1.531 . S
C483 C482 1.369 . S
C483 C484 1.410 . S
C483 C491 1.503 1_565 S
C484 C483 1.410 . S
C484 C485 1.392 . S
C484 C487 1.511 . S
C485 C481 1.376 . S
C485 C484 1.392 . S
C485 H497 0.929 . S
C486 C482 1.531 . S
C486 H498 0.960 . S
C486 H499 0.962 . S
C486 H500 0.960 . S
C487 C484 1.511 . S
C487 H501 0.961 . S
C487 H502 0.961 1_565 S
C487 H503 0.961 . S
C488 C489 1.370 . S
C488 C490 1.363 . S
C488 H504 0.931 . S
C489 C488 1.370 . S
C489 C493 1.408 . S
C490 C488 1.363 . S
C490 C491 1.370 . S
C490 C494 1.524 . S
C491 C483 1.503 1_545 S
C491 C490 1.370 . S
C491 C492 1.403 . S
C492 C491 1.403 . S
C492 C493 1.404 . S
C492 C495 1.539 1_545 S
C493 C489 1.408 . S
C493 C492 1.404 . S
C493 H505 0.930 . S
C494 C490 1.524 . S
C494 H506 0.956 . S
C494 H507 0.961 . S
C494 H508 0.961 . S
C495 C492 1.539 1_565 S
C495 H509 0.958 . S
C495 H510 0.961 1_565 S
C495 H511 0.960 . S
H496 C480 0.931 . S
H497 C485 0.929 . S
H498 C486 0.960 . S
H499 C486 0.962 . S
H500 C486 0.960 . S
H501 C487 0.961 . S
H502 C487 0.961 1_545 S
H503 C487 0.961 . S
H504 C488 0.931 . S
H505 C493 0.930 . S
H506 C494 0.956 . S
H507 C494 0.961 . S
H508 C494 0.961 . S
H509 C495 0.958 . S
H510 C495 0.961 1_545 S
H511 C495 0.960 . S
C512 C513 1.391 . S
C512 C514 1.394 . S
C512 H528 0.931 . S
C513 C512 1.391 . S
C513 C517 1.376 . S
C514 C512 1.394 . S
C514 C515 1.369 . S
C514 C518 1.531 . S
C515 C514 1.369 . S
C515 C516 1.410 . S
C515 C523 1.503 . S
C516 C515 1.410 . S
C516 C517 1.392 . S
C516 C519 1.511 . S
C517 C513 1.376 . S
C517 C516 1.392 . S
C517 H529 0.929 . S
C518 C514 1.531 . S
C518 H530 0.960 . S
C518 H531 0.962 . S
C518 H532 0.960 . S
C519 C516 1.511 . S
C519 H533 0.961 . S
C519 H534 0.961 . S
C519 H535 0.961 . S
C520 C521 1.370 . S
C520 C522 1.363 . S
C520 H536 0.931 . S
C521 C520 1.370 . S
C521 C525 1.408 . S
C522 C520 1.363 . S
C522 C523 1.370 . S
C522 C526 1.524 . S
C523 C515 1.503 . S
C523 C522 1.370 . S
C523 C524 1.403 . S
C524 C523 1.403 . S
C524 C525 1.404 . S
C524 C527 1.539 . S
C525 C521 1.408 . S
C525 C524 1.404 . S
C525 H537 0.930 . S
C526 C522 1.524 . S
C526 H538 0.956 . S
C526 H539 0.961 . S
C526 H540 0.961 . S
C527 C524 1.539 . S
C527 H541 0.958 . S
C527 H542 0.961 . S
C527 H543 0.960 . S
H528 C512 0.931 . S
H529 C517 0.929 . S
H530 C518 0.960 . S
H531 C518 0.962 . S
H532 C518 0.960 . S
H533 C519 0.961 . S
H534 C519 0.961 . S
H535 C519 0.961 . S
H536 C520 0.931 . S
H537 C525 0.930 . S
H538 C526 0.956 . S
H539 C526 0.961 . S
H540 C526 0.961 . S
H541 C527 0.958 . S
H542 C527 0.961 . S
H543 C527 0.960 . S
C544 C545 1.391 . S
C544 C546 1.394 1_556 S
C544 H560 0.931 . S
C545 C544 1.391 . S
C545 C549 1.376 . S
C546 C544 1.394 1_554 S
C546 C547 1.369 . S
C546 C550 1.531 . S
C547 C546 1.369 . S
C547 C548 1.408 1_554 S
C547 C555 1.505 1_545 S
C548 C547 1.408 1_556 S
C548 C549 1.392 . S
C548 C551 1.511 . S
C549 C545 1.376 . S
C549 C548 1.392 . S
C549 H561 0.929 . S
C550 C546 1.531 . S
C550 H562 0.960 . S
C550 H563 0.962 . S
C550 H564 0.960 . S
C551 C548 1.511 . S
C551 H565 0.961 . S
C551 H566 0.961 1_545 S
C551 H567 0.961 1_556 S
C552 C553 1.370 . S
C552 C554 1.363 1_554 S
C552 H568 0.931 1_554 S
C553 C552 1.370 . S
C553 C557 1.408 . S
C554 C552 1.363 1_556 S
C554 C555 1.370 1_556 S
C554 C558 1.524 . S
C555 C547 1.505 1_565 S
C555 C554 1.370 1_554 S
C555 C556 1.403 . S
C556 C555 1.403 . S
C556 C557 1.404 . S
C556 C559 1.539 1_565 S
C557 C553 1.408 . S
C557 C556 1.404 . S
C557 H569 0.930 . S
C558 C554 1.524 . S
C558 H570 0.956 . S
C558 H571 0.961 . S
C558 H572 0.961 . S
C559 C556 1.539 1_545 S
C559 H573 0.958 . S
C559 H574 0.961 1_545 S
C559 H575 0.960 . S
H560 C544 0.931 . S
H561 C549 0.929 . S
H562 C550 0.960 . S
H563 C550 0.962 . S
H564 C550 0.960 . S
H565 C551 0.961 . S
H566 C551 0.961 1_565 S
H567 C551 0.961 1_554 S
H568 C552 0.931 1_556 S
H569 C557 0.930 . S
H570 C558 0.956 . S
H571 C558 0.961 . S
H572 C558 0.961 . S
H573 C559 0.958 . S
H574 C559 0.961 1_565 S
H575 C559 0.960 . S
C576 C577 1.391 . S
C576 C578 1.394 . S
C576 H592 0.931 . S
C577 C576 1.391 . S
C577 C581 1.376 . S
C578 C576 1.394 . S
C578 C579 1.369 . S
C578 C582 1.531 . S
C579 C578 1.369 . S
C579 C580 1.410 . S
C579 C587 1.503 . S
C580 C579 1.410 . S
C580 C581 1.392 . S
C580 C583 1.511 . S
C581 C577 1.376 . S
C581 C580 1.392 . S
C581 H593 0.929 . S
C582 C578 1.531 . S
C582 H594 0.960 . S
C582 H595 0.962 . S
C582 H596 0.960 . S
C583 C580 1.511 . S
C583 H597 0.961 . S
C583 H598 0.961 . S
C583 H599 0.961 . S
C584 C585 1.370 . S
C584 C586 1.363 . S
C584 H600 0.931 . S
C585 C584 1.370 . S
C585 C589 1.408 . S
C586 C584 1.363 . S
C586 C587 1.370 . S
C586 C590 1.524 . S
C587 C579 1.503 . S
C587 C586 1.370 . S
C587 C588 1.403 . S
C588 C587 1.403 . S
C588 C589 1.404 . S
C588 C591 1.539 . S
C589 C585 1.408 . S
C589 C588 1.404 . S
C589 H601 0.930 . S
C590 C586 1.524 . S
C590 H602 0.956 . S
C590 H603 0.961 . S
C590 H604 0.961 . S
C591 C588 1.539 . S
C591 H605 0.958 . S
C591 H606 0.961 . S
C591 H607 0.960 . S
H592 C576 0.931 . S
H593 C581 0.929 . S
H594 C582 0.960 . S
H595 C582 0.962 . S
H596 C582 0.960 . S
H597 C583 0.961 . S
H598 C583 0.961 . S
H599 C583 0.961 . S
H600 C584 0.931 . S
H601 C589 0.930 . S
H602 C590 0.956 . S
H603 C590 0.961 . S
H604 C590 0.961 . S
H605 C591 0.958 . S
H606 C591 0.961 . S
H607 C591 0.960 . S
C608 C609 1.391 . S
C608 C610 1.394 . S
C608 H624 0.931 . S
C609 C608 1.391 . S
C609 C613 1.376 . S
C610 C608 1.394 . S
C610 C611 1.369 . S
C610 C614 1.531 . S
C611 C610 1.369 . S
C611 C612 1.410 . S
C611 C619 1.503 1_565 S
C612 C611 1.410 . S
C612 C613 1.392 . S
C612 C615 1.511 . S
C613 C609 1.376 . S
C613 C612 1.392 . S
C613 H625 0.929 . S
C614 C610 1.531 . S
C614 H626 0.960 1_565 S
C614 H627 0.962 . S
C614 H628 0.960 . S
C615 C612 1.511 . S
C615 H629 0.961 . S
C615 H630 0.961 . S
C615 H631 0.961 . S
C616 C617 1.370 . S
C616 C618 1.363 . S
C616 H632 0.931 . S
C617 C616 1.370 . S
C617 C621 1.408 . S
C618 C616 1.363 . S
C618 C619 1.370 . S
C618 C622 1.524 1_545 S
C619 C611 1.503 1_545 S
C619 C618 1.370 . S
C619 C620 1.403 . S
C620 C619 1.403 . S
C620 C621 1.404 . S
C620 C623 1.539 . S
C621 C617 1.408 . S
C621 C620 1.404 . S
C621 H633 0.930 . S
C622 C618 1.524 1_565 S
C622 H634 0.956 . S
C622 H635 0.961 . S
C622 H636 0.960 . S
C623 C620 1.539 . S
C623 H637 0.958 . S
C623 H638 0.961 . S
C623 H639 0.960 . S
H624 C608 0.931 . S
H625 C613 0.929 . S
H626 C614 0.960 1_545 S
H627 C614 0.962 . S
H628 C614 0.960 . S
H629 C615 0.961 . S
H630 C615 0.961 . S
H631 C615 0.961 . S
H632 C616 0.931 . S
H633 C621 0.930 . S
H634 C622 0.956 . S
H635 C622 0.961 . S
H636 C622 0.960 . S
H637 C623 0.958 . S
H638 C623 0.961 . S
H639 C623 0.960 . S
C640 C641 1.391 . S
C640 C642 1.394 . S
C640 H656 0.931 . S
C641 C640 1.391 . S
C641 C645 1.376 . S
C642 C640 1.394 . S
C642 C643 1.369 . S
C642 C646 1.531 . S
C643 C642 1.369 . S
C643 C644 1.410 . S
C643 C651 1.503 . S
C644 C643 1.410 . S
C644 C645 1.392 . S
C644 C647 1.511 . S
C645 C641 1.376 . S
C645 C644 1.392 . S
C645 H657 0.929 . S
C646 C642 1.531 . S
C646 H658 0.960 . S
C646 H659 0.962 . S
C646 H660 0.960 . S
C647 C644 1.511 . S
C647 H661 0.961 . S
C647 H662 0.961 . S
C647 H663 0.961 . S
C648 C649 1.370 . S
C648 C650 1.363 . S
C648 H664 0.931 . S
C649 C648 1.370 . S
C649 C653 1.408 . S
C650 C648 1.363 . S
C650 C651 1.370 . S
C650 C654 1.524 . S
C651 C643 1.503 . S
C651 C650 1.370 . S
C651 C652 1.403 . S
C652 C651 1.403 . S
C652 C653 1.404 . S
C652 C655 1.539 . S
C653 C649 1.408 . S
C653 C652 1.404 . S
C653 H665 0.930 . S
C654 C650 1.524 . S
C654 H666 0.956 . S
C654 H667 0.961 . S
C654 H668 0.961 . S
C655 C652 1.539 . S
C655 H669 0.958 . S
C655 H670 0.961 . S
C655 H671 0.960 . S
H656 C640 0.931 . S
H657 C645 0.929 . S
H658 C646 0.960 . S
H659 C646 0.962 . S
H660 C646 0.960 . S
H661 C647 0.961 . S
H662 C647 0.961 . S
H663 C647 0.961 . S
H664 C648 0.931 . S
H665 C653 0.930 . S
H666 C654 0.956 . S
H667 C654 0.961 . S
H668 C654 0.961 . S
H669 C655 0.958 . S
H670 C655 0.961 . S
H671 C655 0.960 . S
C672 C673 1.391 . S
C672 C674 1.394 . S
C672 H688 0.931 . S
C673 C672 1.391 . S
C673 C677 1.376 . S
C674 C672 1.394 . S
C674 C675 1.366 1_556 S
C674 C678 1.533 . S
C675 C674 1.366 1_554 S
C675 C676 1.408 1_554 S
C675 C683 1.507 1_545 S
C676 C675 1.408 1_556 S
C676 C677 1.392 . S
C676 C679 1.511 1_556 S
C677 C673 1.376 . S
C677 C676 1.392 . S
C677 H689 0.929 . S
C678 C674 1.533 . S
C678 H690 0.949 1_556 S
C678 H691 0.973 . S
C678 H692 0.958 1_556 S
C679 C676 1.511 1_554 S
C679 H693 0.961 1_554 S
C679 H694 0.961 1_545 S
C679 H695 0.961 . S
C680 C681 1.378 . S
C680 C682 1.361 1_554 S
C680 H696 0.925 1_554 S
C681 C680 1.378 . S
C681 C685 1.408 . S
C682 C680 1.361 1_556 S
C682 C683 1.370 1_556 S
C682 C686 1.524 . S
C683 C675 1.507 1_565 S
C683 C682 1.370 1_554 S
C683 C684 1.403 . S
C684 C683 1.403 . S
C684 C685 1.404 . S
C684 C687 1.539 1_565 S
C685 C681 1.408 . S
C685 C684 1.404 . S
C685 H697 0.930 . S
C686 C682 1.524 . S
C686 H698 0.956 . S
C686 H699 0.961 . S
C686 H700 0.961 . S
C687 C684 1.539 1_545 S
C687 H701 0.958 . S
C687 H702 0.942 1_545 S
C687 H703 0.960 . S
H688 C672 0.931 . S
H689 C677 0.929 . S
H690 C678 0.949 1_554 S
H691 C678 0.973 . S
H692 C678 0.958 1_554 S
H693 C679 0.961 1_556 S
H694 C679 0.961 1_565 S
H695 C679 0.961 . S
H696 C680 0.925 1_556 S
H697 C685 0.930 . S
H698 C686 0.956 . S
H699 C686 0.961 . S
H700 C686 0.961 . S
H701 C687 0.958 . S
H702 C687 0.942 1_565 S
H703 C687 0.960 . S
C704 C705 1.391 . S
C704 C706 1.394 . S
C704 H720 0.931 . S
C705 C704 1.391 . S
C705 C709 1.376 . S
C706 C704 1.394 . S
C706 C707 1.369 . S
C706 C710 1.531 . S
C707 C706 1.369 . S
C707 C708 1.410 . S
C707 C715 1.503 . S
C708 C707 1.410 . S
C708 C709 1.392 . S
C708 C711 1.511 . S
C709 C705 1.376 . S
C709 C708 1.392 . S
C709 H721 0.929 . S
C710 C706 1.531 . S
C710 H722 0.960 . S
C710 H723 0.962 . S
C710 H724 0.960 . S
C711 C708 1.511 . S
C711 H725 0.961 . S
C711 H726 0.961 . S
C711 H727 0.961 . S
C712 C713 1.370 . S
C712 C714 1.363 . S
C712 H728 0.931 . S
C713 C712 1.370 . S
C713 C717 1.408 . S
C714 C712 1.363 . S
C714 C715 1.370 . S
C714 C718 1.524 . S
C715 C707 1.503 . S
C715 C714 1.370 . S
C715 C716 1.403 . S
C716 C715 1.403 . S
C716 C717 1.404 . S
C716 C719 1.539 . S
C717 C713 1.408 . S
C717 C716 1.404 . S
C717 H729 0.930 . S
C718 C714 1.524 . S
C718 H730 0.956 . S
C718 H731 0.961 . S
C718 H732 0.961 . S
C719 C716 1.539 . S
C719 H733 0.958 . S
C719 H734 0.961 . S
C719 H735 0.960 . S
H720 C704 0.931 . S
H721 C709 0.929 . S
H722 C710 0.960 . S
H723 C710 0.962 . S
H724 C710 0.960 . S
H725 C711 0.961 . S
H726 C711 0.961 . S
H727 C711 0.961 . S
H728 C712 0.931 . S
H729 C717 0.930 . S
H730 C718 0.956 . S
H731 C718 0.961 . S
H732 C718 0.961 . S
H733 C719 0.958 . S
H734 C719 0.961 . S
H735 C719 0.960 . S
C736 C737 1.391 . S
C736 C738 1.394 . S
C736 H752 0.931 . S
C737 C736 1.391 . S
C737 C741 1.376 . S
C738 C736 1.394 . S
C738 C739 1.369 . S
C738 C742 1.531 . S
C739 C738 1.369 . S
C739 C740 1.410 1_556 S
C739 C747 1.503 1_556 S
C740 C739 1.410 1_554 S
C740 C741 1.392 1_554 S
C740 C743 1.511 . S
C741 C737 1.376 . S
C741 C740 1.392 1_556 S
C741 H753 0.929 1_556 S
C742 C738 1.531 . S
C742 H754 0.960 . S
C742 H755 0.962 . S
C742 H756 0.960 . S
C743 C740 1.511 . S
C743 H757 0.961 . S
C743 H758 0.961 . S
C743 H759 0.961 . S
C744 C745 1.370 . S
C744 C746 1.363 . S
C744 H760 0.931 . S
C745 C744 1.370 . S
C745 C749 1.408 . S
C746 C744 1.363 . S
C746 C747 1.370 . S
C746 C750 1.524 . S
C747 C739 1.503 1_554 S
C747 C746 1.370 . S
C747 C748 1.403 . S
C748 C747 1.403 . S
C748 C749 1.404 . S
C748 C751 1.539 1_554 S
C749 C745 1.408 . S
C749 C748 1.404 . S
C749 H761 0.930 . S
C750 C746 1.524 . S
C750 H762 0.956 . S
C750 H763 0.961 . S
C750 H764 0.961 . S
C751 C748 1.539 1_556 S
C751 H765 0.958 . S
C751 H766 0.961 . S
C751 H767 0.960 . S
H752 C736 0.931 . S
H753 C741 0.929 1_554 S
H754 C742 0.960 . S
H755 C742 0.962 . S
H756 C742 0.960 . S
H757 C743 0.961 . S
H758 C743 0.961 . S
H759 C743 0.961 . S
H760 C744 0.931 . S
H761 C749 0.930 . S
H762 C750 0.956 . S
H763 C750 0.961 . S
H764 C750 0.961 . S
H765 C751 0.958 . S
H766 C751 0.961 . S
H767 C751 0.960 . S
C768 C769 1.391 . S
C768 C770 1.394 . S
C768 H784 0.931 . S
C769 C768 1.391 . S
C769 C773 1.376 . S
C770 C768 1.394 . S
C770 C771 1.369 . S
C770 C774 1.531 . S
C771 C770 1.369 . S
C771 C772 1.410 . S
C771 C779 1.503 . S
C772 C771 1.410 . S
C772 C773 1.392 . S
C772 C775 1.511 . S
C773 C769 1.376 . S
C773 C772 1.392 . S
C773 H785 0.929 . S
C774 C770 1.531 . S
C774 H786 0.960 . S
C774 H787 0.962 . S
C774 H788 0.960 . S
C775 C772 1.511 . S
C775 H789 0.961 . S
C775 H790 0.961 . S
C775 H791 0.961 . S
C776 C777 1.370 . S
C776 C778 1.363 . S
C776 H792 0.931 . S
C777 C776 1.370 . S
C777 C781 1.408 . S
C778 C776 1.363 . S
C778 C779 1.370 . S
C778 C782 1.524 . S
C779 C771 1.503 . S
C779 C778 1.370 . S
C779 C780 1.403 . S
C780 C779 1.403 . S
C780 C781 1.404 . S
C780 C783 1.539 . S
C781 C777 1.408 . S
C781 C780 1.404 . S
C781 H793 0.930 . S
C782 C778 1.524 . S
C782 H794 0.956 . S
C782 H795 0.961 . S
C782 H796 0.961 . S
C783 C780 1.539 . S
C783 H797 0.958 . S
C783 H798 0.961 . S
C783 H799 0.960 . S
H784 C768 0.931 . S
H785 C773 0.929 . S
H786 C774 0.960 . S
H787 C774 0.962 . S
H788 C774 0.960 . S
H789 C775 0.961 . S
H790 C775 0.961 . S
H791 C775 0.961 . S
H792 C776 0.931 . S
H793 C781 0.930 . S
H794 C782 0.956 . S
H795 C782 0.961 . S
H796 C782 0.961 . S
H797 C783 0.958 . S
H798 C783 0.961 . S
H799 C783 0.960 . S
C800 C801 1.391 . S
C800 C802 1.394 . S
C800 H816 0.931 . S
C801 C800 1.391 . S
C801 C805 1.376 . S
C802 C800 1.394 . S
C802 C803 1.369 . S
C802 C806 1.531 . S
C803 C802 1.369 . S
C803 C804 1.410 . S
C803 C811 1.503 . S
C804 C803 1.410 . S
C804 C805 1.392 . S
C804 C807 1.511 . S
C805 C801 1.376 . S
C805 C804 1.392 . S
C805 H817 0.929 . S
C806 C802 1.531 . S
C806 H818 0.960 . S
C806 H819 0.962 . S
C806 H820 0.960 . S
C807 C804 1.511 . S
C807 H821 0.961 . S
C807 H822 0.961 . S
C807 H823 0.961 . S
C808 C809 1.370 . S
C808 C810 1.363 . S
C808 H824 0.931 . S
C809 C808 1.370 . S
C809 C813 1.408 . S
C810 C808 1.363 . S
C810 C811 1.370 . S
C810 C814 1.524 . S
C811 C803 1.503 . S
C811 C810 1.370 . S
C811 C812 1.403 . S
C812 C811 1.403 . S
C812 C813 1.404 . S
C812 C815 1.539 . S
C813 C809 1.408 . S
C813 C812 1.404 . S
C813 H825 0.930 . S
C814 C810 1.524 . S
C814 H826 0.956 . S
C814 H827 0.961 . S
C814 H828 0.961 . S
C815 C812 1.539 . S
C815 H829 0.958 . S
C815 H830 0.961 . S
C815 H831 0.960 . S
H816 C800 0.931 . S
H817 C805 0.929 . S
H818 C806 0.960 . S
H819 C806 0.962 . S
H820 C806 0.960 . S
H821 C807 0.961 . S
H822 C807 0.961 . S
H823 C807 0.961 . S
H824 C808 0.931 . S
H825 C813 0.930 . S
H826 C814 0.956 . S
H827 C814 0.961 . S
H828 C814 0.961 . S
H829 C815 0.958 . S
H830 C815 0.961 . S
H831 C815 0.960 . S
C832 C833 1.391 . S
C832 C834 1.394 . S
C832 H848 0.931 . S
C833 C832 1.391 . S
C833 C837 1.376 . S
C834 C832 1.394 . S
C834 C835 1.369 . S
C834 C838 1.531 . S
C835 C834 1.369 . S
C835 C836 1.410 . S
C835 C843 1.503 . S
C836 C835 1.410 . S
C836 C837 1.392 . S
C836 C839 1.511 . S
C837 C833 1.376 . S
C837 C836 1.392 . S
C837 H849 0.929 . S
C838 C834 1.531 . S
C838 H850 0.960 . S
C838 H851 0.962 . S
C838 H852 0.960 . S
C839 C836 1.511 . S
C839 H853 0.961 . S
C839 H854 0.961 . S
C839 H855 0.961 . S
C840 C841 1.370 . S
C840 C842 1.363 . S
C840 H856 0.931 . S
C841 C840 1.370 . S
C841 C845 1.408 . S
C842 C840 1.363 . S
C842 C843 1.370 . S
C842 C846 1.524 . S
C843 C835 1.503 . S
C843 C842 1.370 . S
C843 C844 1.403 . S
C844 C843 1.403 . S
C844 C845 1.404 . S
C844 C847 1.539 . S
C845 C841 1.408 . S
C845 C844 1.404 . S
C845 H857 0.930 . S
C846 C842 1.524 . S
C846 H858 0.956 . S
C846 H859 0.961 . S
C846 H860 0.961 . S
C847 C844 1.539 . S
C847 H861 0.958 . S
C847 H862 0.961 . S
C847 H863 0.960 . S
H848 C832 0.931 . S
H849 C837 0.929 . S
H850 C838 0.960 . S
H851 C838 0.962 . S
H852 C838 0.960 . S
H853 C839 0.961 . S
H854 C839 0.961 . S
H855 C839 0.961 . S
H856 C840 0.931 . S
H857 C845 0.930 . S
H858 C846 0.956 . S
H859 C846 0.961 . S
H860 C846 0.961 . S
H861 C847 0.958 . S
H862 C847 0.961 . S
H863 C847 0.960 . S
C864 C865 1.391 . S
C864 C866 1.394 . S
C864 H880 0.931 . S
C865 C864 1.391 . S
C865 C869 1.376 . S
C866 C864 1.394 . S
C866 C867 1.369 . S
C866 C870 1.531 . S
C867 C866 1.369 . S
C867 C868 1.410 1_554 S
C867 C875 1.503 1_554 S
C868 C867 1.410 1_556 S
C868 C869 1.392 1_556 S
C868 C871 1.511 . S
C869 C865 1.376 . S
C869 C868 1.392 1_554 S
C869 H881 0.929 1_554 S
C870 C866 1.531 . S
C870 H882 0.960 . S
C870 H883 0.962 . S
C870 H884 0.960 . S
C871 C868 1.511 . S
C871 H885 0.961 . S
C871 H886 0.961 . S
C871 H887 0.961 . S
C872 C873 1.370 . S
C872 C874 1.363 1_556 S
C872 H888 0.929 1_556 S
C873 C872 1.370 . S
C873 C877 1.408 . S
C874 C872 1.363 1_554 S
C874 C875 1.370 1_554 S
C874 C878 1.524 . S
C875 C867 1.503 1_556 S
C875 C874 1.370 1_556 S
C875 C876 1.403 . S
C876 C875 1.403 . S
C876 C877 1.404 . S
C876 C879 1.539 . S
C877 C873 1.408 . S
C877 C876 1.404 . S
C877 H889 0.930 . S
C878 C874 1.524 . S
C878 H890 0.956 . S
C878 H891 0.961 . S
C878 H892 0.961 . S
C879 C876 1.539 . S
C879 H893 0.958 . S
C879 H894 0.961 . S
C879 H895 0.960 . S
H880 C864 0.931 . S
H881 C869 0.929 1_556 S
H882 C870 0.960 . S
H883 C870 0.962 . S
H884 C870 0.960 . S
H885 C871 0.961 . S
H886 C871 0.961 . S
H887 C871 0.961 . S
H888 C872 0.929 1_554 S
H889 C877 0.930 . S
H890 C878 0.956 . S
H891 C878 0.961 . S
H892 C878 0.961 . S
H893 C879 0.958 . S
H894 C879 0.961 . S
H895 C879 0.960 . S
C896 C897 1.391 . S
C896 C898 1.394 . S
C896 H912 0.931 . S
C897 C896 1.391 . S
C897 C901 1.376 . S
C898 C896 1.394 . S
C898 C899 1.369 . S
C898 C902 1.531 . S
C899 C898 1.369 . S
C899 C900 1.410 . S
C899 C907 1.503 . S
C900 C899 1.410 . S
C900 C901 1.392 . S
C900 C903 1.511 . S
C901 C897 1.376 . S
C901 C900 1.392 . S
C901 H913 0.929 . S
C902 C898 1.531 . S
C902 H914 0.960 . S
C902 H915 0.962 . S
C902 H916 0.960 . S
C903 C900 1.511 . S
C903 H917 0.961 . S
C903 H918 0.961 . S
C903 H919 0.961 . S
C904 C905 1.370 . S
C904 C906 1.363 . S
C904 H920 0.931 . S
C905 C904 1.370 . S
C905 C909 1.408 . S
C906 C904 1.363 . S
C906 C907 1.370 . S
C906 C910 1.524 . S
C907 C899 1.503 . S
C907 C906 1.370 . S
C907 C908 1.403 . S
C908 C907 1.403 . S
C908 C909 1.404 . S
C908 C911 1.539 . S
C909 C905 1.408 . S
C909 C908 1.404 . S
C909 H921 0.930 . S
C910 C906 1.524 . S
C910 H922 0.956 . S
C910 H923 0.961 . S
C910 H924 0.961 . S
C911 C908 1.539 . S
C911 H925 0.958 . S
C911 H926 0.961 . S
C911 H927 0.960 . S
H912 C896 0.931 . S
H913 C901 0.929 . S
H914 C902 0.960 . S
H915 C902 0.962 . S
H916 C902 0.960 . S
H917 C903 0.961 . S
H918 C903 0.961 . S
H919 C903 0.961 . S
H920 C904 0.931 . S
H921 C909 0.930 . S
H922 C910 0.956 . S
H923 C910 0.961 . S
H924 C910 0.961 . S
H925 C911 0.958 . S
H926 C911 0.961 . S
H927 C911 0.960 . S
C928 C929 1.391 . S
C928 C930 1.394 . S
C928 H944 0.931 . S
C929 C928 1.391 . S
C929 C933 1.376 . S
C930 C928 1.394 . S
C930 C931 1.369 . S
C930 C934 1.531 . S
C931 C930 1.369 . S
C931 C932 1.410 . S
C931 C939 1.503 . S
C932 C931 1.410 . S
C932 C933 1.392 . S
C932 C935 1.511 . S
C933 C929 1.376 . S
C933 C932 1.392 . S
C933 H945 0.929 . S
C934 C930 1.531 . S
C934 H946 0.960 . S
C934 H947 0.962 . S
C934 H948 0.960 . S
C935 C932 1.511 . S
C935 H949 0.961 . S
C935 H950 0.961 . S
C935 H951 0.961 . S
C936 C937 1.370 . S
C936 C938 1.363 . S
C936 H952 0.931 . S
C937 C936 1.370 . S
C937 C941 1.408 . S
C938 C936 1.363 . S
C938 C939 1.370 . S
C938 C942 1.524 . S
C939 C931 1.503 . S
C939 C938 1.370 . S
C939 C940 1.403 . S
C940 C939 1.403 . S
C940 C941 1.404 . S
C940 C943 1.539 . S
C941 C937 1.408 . S
C941 C940 1.404 . S
C941 H953 0.930 . S
C942 C938 1.524 . S
C942 H954 0.956 . S
C942 H955 0.961 . S
C942 H956 0.961 . S
C943 C940 1.539 . S
C943 H957 0.958 . S
C943 H958 0.961 . S
C943 H959 0.960 . S
H944 C928 0.931 . S
H945 C933 0.929 . S
H946 C934 0.960 . S
H947 C934 0.962 . S
H948 C934 0.960 . S
H949 C935 0.961 . S
H950 C935 0.961 . S
H951 C935 0.961 . S
H952 C936 0.931 . S
H953 C941 0.930 . S
H954 C942 0.956 . S
H955 C942 0.961 . S
H956 C942 0.961 . S
H957 C943 0.958 . S
H958 C943 0.961 . S
H959 C943 0.960 . S
C960 C961 1.391 . S
C960 C962 1.394 . S
C960 H976 0.931 1_556 S
C961 C960 1.391 . S
C961 C965 1.376 . S
C962 C960 1.394 . S
C962 C963 1.369 . S
C962 C966 1.531 . S
C963 C962 1.369 . S
C963 C964 1.410 . S
C963 C971 1.503 . S
C964 C963 1.410 . S
C964 C965 1.392 . S
C964 C967 1.511 . S
C965 C961 1.376 . S
C965 C964 1.392 . S
C965 H977 0.929 . S
C966 C962 1.531 . S
C966 H978 0.960 . S
C966 H979 0.962 . S
C966 H980 0.960 . S
C967 C964 1.511 . S
C967 H981 0.961 . S
C967 H982 0.961 . S
C967 H983 0.961 . S
C968 C969 1.370 . S
C968 C970 1.363 . S
C968 H984 0.931 . S
C969 C968 1.370 . S
C969 C973 1.408 . S
C970 C968 1.363 . S
C970 C971 1.370 . S
C970 C974 1.524 . S
C971 C963 1.503 . S
C971 C970 1.370 . S
C971 C972 1.403 . S
C972 C971 1.403 . S
C972 C973 1.404 . S
C972 C975 1.539 . S
C973 C969 1.408 . S
C973 C972 1.404 . S
C973 H985 0.930 . S
C974 C970 1.524 . S
C974 H986 0.956 . S
C974 H987 0.961 . S
C974 H988 0.961 . S
C975 C972 1.539 . S
C975 H989 0.958 . S
C975 H990 0.961 . S
C975 H991 0.960 . S
H976 C960 0.931 1_554 S
H977 C965 0.929 . S
H978 C966 0.960 . S
H979 C966 0.962 . S
H980 C966 0.960 . S
H981 C967 0.961 . S
H982 C967 0.961 . S
H983 C967 0.961 . S
H984 C968 0.931 . S
H985 C973 0.930 . S
H986 C974 0.956 . S
H987 C974 0.961 . S
H988 C974 0.961 . S
H989 C975 0.958 . S
H990 C975 0.961 . S
H991 C975 0.960 . S
C992 C993 1.391 . S
C992 C994 1.394 . S
C992 H1008 0.931 1_554 S
C993 C992 1.391 . S
C993 C997 1.376 . S
C994 C992 1.394 . S
C994 C995 1.369 . S
C994 C998 1.531 . S
C995 C994 1.369 . S
C995 C996 1.410 . S
C995 C1003 1.503 . S
C996 C995 1.410 . S
C996 C997 1.392 . S
C996 C999 1.511 . S
C997 C993 1.376 . S
C997 C996 1.392 . S
C997 H1009 0.929 . S
C998 C994 1.531 . S
C998 H1010 0.960 . S
C998 H1011 0.962 . S
C998 H1012 0.960 . S
C999 C996 1.511 . S
C999 H1013 0.961 . S
C999 H1014 0.961 . S
C999 H1015 0.961 . S
C1000 C1001 1.370 . S
C1000 C1002 1.363 . S
C1000 H1016 0.931 . S
C1001 C1000 1.370 . S
C1001 C1005 1.408 . S
C1002 C1000 1.363 . S
C1002 C1003 1.370 . S
C1002 C1006 1.524 . S
C1003 C995 1.503 . S
C1003 C1002 1.370 . S
C1003 C1004 1.403 . S
C1004 C1003 1.403 . S
C1004 C1005 1.404 . S
C1004 C1007 1.539 . S
C1005 C1001 1.408 . S
C1005 C1004 1.404 . S
C1005 H1017 0.930 . S
C1006 C1002 1.524 . S
C1006 H1018 0.956 . S
C1006 H1019 0.961 . S
C1006 H1020 0.961 . S
C1007 C1004 1.539 . S
C1007 H1021 0.958 . S
C1007 H1022 0.961 . S
C1007 H1023 0.960 . S
H1008 C992 0.931 1_556 S
H1009 C997 0.929 . S
H1010 C998 0.960 . S
H1011 C998 0.962 . S
H1012 C998 0.960 . S
H1013 C999 0.961 . S
H1014 C999 0.961 . S
H1015 C999 0.961 . S
H1016 C1000 0.931 . S
H1017 C1005 0.930 . S
H1018 C1006 0.956 . S
H1019 C1006 0.961 . S
H1020 C1006 0.961 . S
H1021 C1007 0.958 . S
H1022 C1007 0.961 . S
H1023 C1007 0.960 . S
C1024 C1025 1.391 . S
C1024 C1026 1.394 . S
C1024 H1040 0.931 . S
C1025 C1024 1.391 . S
C1025 C1029 1.376 . S
C1026 C1024 1.394 . S
C1026 C1027 1.369 . S
C1026 C1030 1.531 . S
C1027 C1026 1.369 . S
C1027 C1028 1.410 . S
C1027 C1035 1.503 . S
C1028 C1027 1.410 . S
C1028 C1029 1.392 . S
C1028 C1031 1.511 . S
C1029 C1025 1.376 . S
C1029 C1028 1.392 . S
C1029 H1041 0.929 . S
C1030 C1026 1.531 . S
C1030 H1042 0.960 . S
C1030 H1043 0.962 . S
C1030 H1044 0.960 . S
C1031 C1028 1.511 . S
C1031 H1045 0.961 . S
C1031 H1046 0.961 . S
C1031 H1047 0.961 . S
C1032 C1033 1.370 . S
C1032 C1034 1.363 . S
C1032 H1048 0.931 . S
C1033 C1032 1.370 . S
C1033 C1037 1.408 . S
C1034 C1032 1.363 . S
C1034 C1035 1.370 . S
C1034 C1038 1.524 . S
C1035 C1027 1.503 . S
C1035 C1034 1.370 . S
C1035 C1036 1.403 . S
C1036 C1035 1.403 . S
C1036 C1037 1.404 . S
C1036 C1039 1.539 . S
C1037 C1033 1.408 . S
C1037 C1036 1.404 . S
C1037 H1049 0.930 . S
C1038 C1034 1.524 . S
C1038 H1050 0.956 . S
C1038 H1051 0.961 . S
C1038 H1052 0.961 . S
C1039 C1036 1.539 . S
C1039 H1053 0.958 . S
C1039 H1054 0.961 . S
C1039 H1055 0.960 . S
H1040 C1024 0.931 . S
H1041 C1029 0.929 . S
H1042 C1030 0.960 . S
H1043 C1030 0.962 . S
H1044 C1030 0.960 . S
H1045 C1031 0.961 . S
H1046 C1031 0.961 . S
H1047 C1031 0.961 . S
H1048 C1032 0.931 . S
H1049 C1037 0.930 . S
H1050 C1038 0.956 . S
H1051 C1038 0.961 . S
H1052 C1038 0.961 . S
H1053 C1039 0.958 . S
H1054 C1039 0.961 . S
H1055 C1039 0.960 . S
C1056 C1057 1.391 . S
C1056 C1058 1.394 . S
C1056 H1072 0.931 . S
C1057 C1056 1.391 . S
C1057 C1061 1.376 . S
C1058 C1056 1.394 . S
C1058 C1059 1.369 . S
C1058 C1062 1.531 . S
C1059 C1058 1.369 . S
C1059 C1060 1.410 . S
C1059 C1067 1.503 . S
C1060 C1059 1.410 . S
C1060 C1061 1.392 . S
C1060 C1063 1.511 . S
C1061 C1057 1.376 . S
C1061 C1060 1.392 . S
C1061 H1073 0.929 . S
C1062 C1058 1.531 . S
C1062 H1074 0.960 . S
C1062 H1075 0.962 . S
C1062 H1076 0.960 . S
C1063 C1060 1.511 . S
C1063 H1077 0.961 . S
C1063 H1078 0.961 . S
C1063 H1079 0.961 . S
C1064 C1065 1.370 . S
C1064 C1066 1.363 . S
C1064 H1080 0.931 . S
C1065 C1064 1.370 . S
C1065 C1069 1.408 . S
C1066 C1064 1.363 . S
C1066 C1067 1.370 . S
C1066 C1070 1.524 . S
C1067 C1059 1.503 . S
C1067 C1066 1.370 . S
C1067 C1068 1.403 . S
C1068 C1067 1.403 . S
C1068 C1069 1.404 . S
C1068 C1071 1.539 . S
C1069 C1065 1.408 . S
C1069 C1068 1.404 . S
C1069 H1081 0.930 . S
C1070 C1066 1.524 . S
C1070 H1082 0.956 . S
C1070 H1083 0.961 . S
C1070 H1084 0.961 . S
C1071 C1068 1.539 . S
C1071 H1085 0.958 . S
C1071 H1086 0.961 . S
C1071 H1087 0.960 . S
H1072 C1056 0.931 . S
H1073 C1061 0.929 . S
H1074 C1062 0.960 . S
H1075 C1062 0.962 . S
H1076 C1062 0.960 . S
H1077 C1063 0.961 . S
H1078 C1063 0.961 . S
H1079 C1063 0.961 . S
H1080 C1064 0.931 . S
H1081 C1069 0.930 . S
H1082 C1070 0.956 . S
H1083 C1070 0.961 . S
H1084 C1070 0.961 . S
H1085 C1071 0.958 . S
H1086 C1071 0.961 . S
H1087 C1071 0.960 . S
C1088 C1089 1.391 . S
C1088 C1090 1.394 . S
C1088 H1104 0.931 . S
C1089 C1088 1.391 . S
C1089 C1093 1.376 . S
C1090 C1088 1.394 . S
C1090 C1091 1.369 . S
C1090 C1094 1.531 . S
C1091 C1090 1.369 . S
C1091 C1092 1.410 . S
C1091 C1099 1.503 . S
C1092 C1091 1.410 . S
C1092 C1093 1.392 . S
C1092 C1095 1.511 . S
C1093 C1089 1.376 . S
C1093 C1092 1.392 . S
C1093 H1105 0.929 1_554 S
C1094 C1090 1.531 . S
C1094 H1106 0.960 . S
C1094 H1107 0.962 . S
C1094 H1108 0.960 . S
C1095 C1092 1.511 . S
C1095 H1109 0.961 . S
C1095 H1110 0.961 . S
C1095 H1111 0.961 . S
C1096 C1097 1.370 . S
C1096 C1098 1.363 . S
C1096 H1112 0.931 . S
C1097 C1096 1.370 . S
C1097 C1101 1.408 . S
C1098 C1096 1.363 . S
C1098 C1099 1.370 . S
C1098 C1102 1.524 . S
C1099 C1091 1.503 . S
C1099 C1098 1.370 . S
C1099 C1100 1.403 . S
C1100 C1099 1.403 . S
C1100 C1101 1.404 . S
C1100 C1103 1.539 . S
C1101 C1097 1.408 . S
C1101 C1100 1.404 . S
C1101 H1113 0.930 . S
C1102 C1098 1.524 . S
C1102 H1114 0.956 . S
C1102 H1115 0.961 . S
C1102 H1116 0.961 . S
C1103 C1100 1.539 . S
C1103 H1117 0.958 . S
C1103 H1118 0.961 . S
C1103 H1119 0.960 . S
H1104 C1088 0.931 . S
H1105 C1093 0.929 1_556 S
H1106 C1094 0.960 . S
H1107 C1094 0.962 . S
H1108 C1094 0.960 . S
H1109 C1095 0.961 . S
H1110 C1095 0.961 . S
H1111 C1095 0.961 . S
H1112 C1096 0.931 . S
H1113 C1101 0.930 . S
H1114 C1102 0.956 . S
H1115 C1102 0.961 . S
H1116 C1102 0.961 . S
H1117 C1103 0.958 . S
H1118 C1103 0.961 . S
H1119 C1103 0.960 . S
C1120 C1121 1.391 . S
C1120 C1122 1.394 . S
C1120 H1136 0.931 . S
C1121 C1120 1.391 . S
C1121 C1125 1.376 . S
C1122 C1120 1.394 . S
C1122 C1123 1.369 . S
C1122 C1126 1.531 . S
C1123 C1122 1.369 . S
C1123 C1124 1.410 . S
C1123 C1131 1.503 . S
C1124 C1123 1.410 . S
C1124 C1125 1.392 . S
C1124 C1127 1.511 . S
C1125 C1121 1.376 . S
C1125 C1124 1.392 . S
C1125 H1137 0.929 1_556 S
C1126 C1122 1.531 . S
C1126 H1138 0.960 . S
C1126 H1139 0.962 . S
C1126 H1140 0.960 . S
C1127 C1124 1.511 . S
C1127 H1141 0.950 1_556 S
C1127 H1142 0.961 . S
C1127 H1143 0.961 . S
C1128 C1129 1.370 . S
C1128 C1130 1.363 . S
C1128 H1144 0.931 . S
C1129 C1128 1.370 . S
C1129 C1133 1.408 . S
C1130 C1128 1.363 . S
C1130 C1131 1.370 . S
C1130 C1134 1.524 . S
C1131 C1123 1.503 . S
C1131 C1130 1.370 . S
C1131 C1132 1.403 . S
C1132 C1131 1.403 . S
C1132 C1133 1.404 . S
C1132 C1135 1.539 . S
C1133 C1129 1.408 . S
C1133 C1132 1.404 . S
C1133 H1145 0.930 . S
C1134 C1130 1.524 . S
C1134 H1146 0.956 . S
C1134 H1147 0.961 . S
C1134 H1148 0.961 . S
C1135 C1132 1.539 . S
C1135 H1149 0.958 . S
C1135 H1150 0.961 . S
C1135 H1151 0.960 . S
H1136 C1120 0.931 . S
H1137 C1125 0.929 1_554 S
H1138 C1126 0.960 . S
H1139 C1126 0.962 . S
H1140 C1126 0.960 . S
H1141 C1127 0.950 1_554 S
H1142 C1127 0.961 . S
H1143 C1127 0.961 . S
H1144 C1128 0.931 . S
H1145 C1133 0.930 . S
H1146 C1134 0.956 . S
H1147 C1134 0.961 . S
H1148 C1134 0.961 . S
H1149 C1135 0.958 . S
H1150 C1135 0.961 . S
H1151 C1135 0.960 . S
C1152 C1153 1.391 . S
C1152 C1154 1.394 . S
C1152 H1168 0.931 . S
C1153 C1152 1.391 . S
C1153 C1157 1.376 . S
C1154 C1152 1.394 . S
C1154 C1155 1.369 . S
C1154 C1158 1.531 . S
C1155 C1154 1.369 . S
C1155 C1156 1.410 . S
C1155 C1163 1.503 . S
C1156 C1155 1.410 . S
C1156 C1157 1.392 . S
C1156 C1159 1.511 . S
C1157 C1153 1.376 . S
C1157 C1156 1.392 . S
C1157 H1169 0.929 . S
C1158 C1154 1.531 . S
C1158 H1170 0.960 . S
C1158 H1171 0.962 . S
C1158 H1172 0.960 . S
C1159 C1156 1.511 . S
C1159 H1173 0.961 . S
C1159 H1174 0.961 . S
C1159 H1175 0.961 . S
C1160 C1161 1.370 . S
C1160 C1162 1.363 . S
C1160 H1176 0.931 . S
C1161 C1160 1.370 . S
C1161 C1165 1.408 . S
C1162 C1160 1.363 . S
C1162 C1163 1.370 . S
C1162 C1166 1.524 . S
C1163 C1155 1.503 . S
C1163 C1162 1.370 . S
C1163 C1164 1.403 . S
C1164 C1163 1.403 . S
C1164 C1165 1.404 . S
C1164 C1167 1.539 . S
C1165 C1161 1.408 . S
C1165 C1164 1.404 . S
C1165 H1177 0.930 . S
C1166 C1162 1.524 . S
C1166 H1178 0.956 . S
C1166 H1179 0.961 . S
C1166 H1180 0.961 . S
C1167 C1164 1.539 . S
C1167 H1181 0.958 . S
C1167 H1182 0.961 . S
C1167 H1183 0.960 . S
H1168 C1152 0.931 . S
H1169 C1157 0.929 . S
H1170 C1158 0.960 . S
H1171 C1158 0.962 . S
H1172 C1158 0.960 . S
H1173 C1159 0.961 . S
H1174 C1159 0.961 . S
H1175 C1159 0.961 . S
H1176 C1160 0.931 . S
H1177 C1165 0.930 . S
H1178 C1166 0.956 . S
H1179 C1166 0.961 . S
H1180 C1166 0.961 . S
H1181 C1167 0.958 . S
H1182 C1167 0.961 . S
H1183 C1167 0.960 . S
C1184 C1185 1.391 . S
C1184 C1186 1.394 . S
C1184 H1200 0.931 . S
C1185 C1184 1.391 . S
C1185 C1189 1.376 . S
C1186 C1184 1.394 . S
C1186 C1187 1.369 . S
C1186 C1190 1.531 . S
C1187 C1186 1.369 . S
C1187 C1188 1.410 . S
C1187 C1195 1.503 . S
C1188 C1187 1.410 . S
C1188 C1189 1.392 . S
C1188 C1191 1.511 . S
C1189 C1185 1.376 . S
C1189 C1188 1.392 . S
C1189 H1201 0.929 . S
C1190 C1186 1.531 . S
C1190 H1202 0.960 . S
C1190 H1203 0.962 . S
C1190 H1204 0.960 . S
C1191 C1188 1.511 . S
C1191 H1205 0.961 . S
C1191 H1206 0.961 . S
C1191 H1207 0.961 . S
C1192 C1193 1.370 . S
C1192 C1194 1.363 . S
C1192 H1208 0.931 . S
C1193 C1192 1.370 . S
C1193 C1197 1.408 . S
C1194 C1192 1.363 . S
C1194 C1195 1.370 . S
C1194 C1198 1.524 . S
C1195 C1187 1.503 . S
C1195 C1194 1.370 . S
C1195 C1196 1.403 . S
C1196 C1195 1.403 . S
C1196 C1197 1.404 . S
C1196 C1199 1.539 . S
C1197 C1193 1.408 . S
C1197 C1196 1.404 . S
C1197 H1209 0.930 . S
C1198 C1194 1.524 . S
C1198 H1210 0.956 . S
C1198 H1211 0.961 . S
C1198 H1212 0.961 . S
C1199 C1196 1.539 . S
C1199 H1213 0.958 . S
C1199 H1214 0.961 . S
C1199 H1215 0.960 . S
H1200 C1184 0.931 . S
H1201 C1189 0.929 . S
H1202 C1190 0.960 . S
H1203 C1190 0.962 . S
H1204 C1190 0.960 . S
H1205 C1191 0.961 . S
H1206 C1191 0.961 . S
H1207 C1191 0.961 . S
H1208 C1192 0.931 . S
H1209 C1197 0.930 . S
H1210 C1198 0.956 . S
H1211 C1198 0.961 . S
H1212 C1198 0.961 . S
H1213 C1199 0.958 . S
H1214 C1199 0.961 . S
H1215 C1199 0.960 . S
C1216 C1217 1.391 . S
C1216 C1218 1.394 . S
C1216 H1232 0.931 . S
C1217 C1216 1.391 . S
C1217 C1221 1.376 . S
C1218 C1216 1.394 . S
C1218 C1219 1.369 . S
C1218 C1222 1.531 . S
C1219 C1218 1.369 . S
C1219 C1220 1.410 . S
C1219 C1227 1.503 . S
C1220 C1219 1.410 . S
C1220 C1221 1.392 . S
C1220 C1223 1.511 . S
C1221 C1217 1.376 . S
C1221 C1220 1.392 . S
C1221 H1233 0.929 . S
C1222 C1218 1.531 . S
C1222 H1234 0.960 . S
C1222 H1235 0.962 . S
C1222 H1236 0.960 . S
C1223 C1220 1.511 . S
C1223 H1237 0.961 . S
C1223 H1238 0.961 . S
C1223 H1239 0.961 . S
C1224 C1225 1.370 . S
C1224 C1226 1.363 . S
C1224 H1240 0.931 . S
C1225 C1224 1.370 . S
C1225 C1229 1.408 . S
C1226 C1224 1.363 . S
C1226 C1227 1.370 . S
C1226 C1230 1.524 . S
C1227 C1219 1.503 . S
C1227 C1226 1.370 . S
C1227 C1228 1.403 . S
C1228 C1227 1.403 . S
C1228 C1229 1.404 . S
C1228 C1231 1.539 . S
C1229 C1225 1.408 . S
C1229 C1228 1.404 . S
C1229 H1241 0.930 . S
C1230 C1226 1.524 . S
C1230 H1242 0.956 . S
C1230 H1243 0.961 . S
C1230 H1244 0.961 . S
C1231 C1228 1.539 . S
C1231 H1245 0.958 . S
C1231 H1246 0.961 . S
C1231 H1247 0.960 . S
H1232 C1216 0.931 . S
H1233 C1221 0.929 . S
H1234 C1222 0.960 . S
H1235 C1222 0.962 . S
H1236 C1222 0.960 . S
H1237 C1223 0.961 . S
H1238 C1223 0.961 . S
H1239 C1223 0.961 . S
H1240 C1224 0.931 . S
H1241 C1229 0.930 . S
H1242 C1230 0.956 . S
H1243 C1230 0.961 . S
H1244 C1230 0.961 . S
H1245 C1231 0.958 . S
H1246 C1231 0.961 . S
H1247 C1231 0.960 . S
C1248 C1249 1.391 . S
C1248 C1250 1.394 . S
C1248 H1264 0.931 . S
C1249 C1248 1.391 . S
C1249 C1253 1.376 . S
C1250 C1248 1.394 . S
C1250 C1251 1.369 . S
C1250 C1254 1.531 . S
C1251 C1250 1.369 . S
C1251 C1252 1.410 . S
C1251 C1259 1.503 . S
C1252 C1251 1.410 . S
C1252 C1253 1.392 . S
C1252 C1255 1.511 . S
C1253 C1249 1.376 . S
C1253 C1252 1.392 . S
C1253 H1265 0.929 . S
C1254 C1250 1.531 . S
C1254 H1266 0.960 . S
C1254 H1267 0.962 . S
C1254 H1268 0.960 . S
C1255 C1252 1.511 . S
C1255 H1269 0.961 . S
C1255 H1270 0.961 . S
C1255 H1271 0.961 . S
C1256 C1257 1.370 . S
C1256 C1258 1.363 . S
C1256 H1272 0.931 . S
C1257 C1256 1.370 . S
C1257 C1261 1.408 . S
C1258 C1256 1.363 . S
C1258 C1259 1.370 . S
C1258 C1262 1.524 . S
C1259 C1251 1.503 . S
C1259 C1258 1.370 . S
C1259 C1260 1.403 . S
C1260 C1259 1.403 . S
C1260 C1261 1.404 . S
C1260 C1263 1.539 . S
C1261 C1257 1.408 . S
C1261 C1260 1.404 . S
C1261 H1273 0.930 . S
C1262 C1258 1.524 . S
C1262 H1274 0.956 . S
C1262 H1275 0.961 . S
C1262 H1276 0.961 . S
C1263 C1260 1.539 . S
C1263 H1277 0.958 . S
C1263 H1278 0.961 . S
C1263 H1279 0.960 . S
H1264 C1248 0.931 . S
H1265 C1253 0.929 . S
H1266 C1254 0.960 . S
H1267 C1254 0.962 . S
H1268 C1254 0.960 . S
H1269 C1255 0.961 . S
H1270 C1255 0.961 . S
H1271 C1255 0.961 . S
H1272 C1256 0.931 . S
H1273 C1261 0.930 . S
H1274 C1262 0.956 . S
H1275 C1262 0.961 . S
H1276 C1262 0.961 . S
H1277 C1263 0.958 . S
H1278 C1263 0.961 . S
H1279 C1263 0.960 . S
C1280 C1281 1.391 . S
C1280 C1282 1.394 . S
C1280 H1296 0.931 . S
C1281 C1280 1.391 . S
C1281 C1285 1.376 . S
C1282 C1280 1.394 . S
C1282 C1283 1.369 . S
C1282 C1286 1.531 . S
C1283 C1282 1.369 . S
C1283 C1284 1.410 . S
C1283 C1291 1.503 . S
C1284 C1283 1.410 . S
C1284 C1285 1.392 . S
C1284 C1287 1.511 . S
C1285 C1281 1.376 . S
C1285 C1284 1.392 . S
C1285 H1297 0.929 . S
C1286 C1282 1.531 . S
C1286 H1298 0.960 . S
C1286 H1299 0.962 . S
C1286 H1300 0.960 . S
C1287 C1284 1.511 . S
C1287 H1301 0.961 . S
C1287 H1302 0.961 . S
C1287 H1303 0.961 . S
C1288 C1289 1.370 . S
C1288 C1290 1.363 . S
C1288 H1304 0.931 . S
C1289 C1288 1.370 . S
C1289 C1293 1.408 1_556 S
C1290 C1288 1.363 . S
C1290 C1291 1.370 . S
C1290 C1294 1.524 . S
C1291 C1283 1.503 . S
C1291 C1290 1.370 . S
C1291 C1292 1.403 . S
C1292 C1291 1.403 . S
C1292 C1293 1.404 1_556 S
C1292 C1295 1.539 . S
C1293 C1289 1.408 1_554 S
C1293 C1292 1.404 1_554 S
C1293 H1305 0.930 . S
C1294 C1290 1.524 . S
C1294 H1306 0.956 . S
C1294 H1307 0.961 . S
C1294 H1308 0.961 . S
C1295 C1292 1.539 . S
C1295 H1309 0.958 . S
C1295 H1310 0.961 1_556 S
C1295 H1311 0.960 . S
H1296 C1280 0.931 . S
H1297 C1285 0.929 . S
H1298 C1286 0.960 . S
H1299 C1286 0.962 . S
H1300 C1286 0.960 . S
H1301 C1287 0.961 . S
H1302 C1287 0.961 . S
H1303 C1287 0.961 . S
H1304 C1288 0.931 . S
H1305 C1293 0.930 . S
H1306 C1294 0.956 . S
H1307 C1294 0.961 . S
H1308 C1294 0.961 . S
H1309 C1295 0.958 . S
H1310 C1295 0.961 1_554 S
H1311 C1295 0.960 . S
C1312 C1313 1.391 . S
C1312 C1314 1.394 . S
C1312 H1328 0.931 . S
C1313 C1312 1.391 . S
C1313 C1317 1.376 . S
C1314 C1312 1.394 . S
C1314 C1315 1.369 . S
C1314 C1318 1.531 . S
C1315 C1314 1.369 . S
C1315 C1316 1.410 . S
C1315 C1323 1.503 . S
C1316 C1315 1.410 . S
C1316 C1317 1.392 . S
C1316 C1319 1.511 . S
C1317 C1313 1.376 . S
C1317 C1316 1.392 . S
C1317 H1329 0.929 . S
C1318 C1314 1.531 . S
C1318 H1330 0.960 . S
C1318 H1331 0.962 . S
C1318 H1332 0.960 . S
C1319 C1316 1.511 . S
C1319 H1333 0.961 . S
C1319 H1334 0.961 . S
C1319 H1335 0.961 . S
C1320 C1321 1.370 . S
C1320 C1322 1.363 . S
C1320 H1336 0.931 . S
C1321 C1320 1.370 . S
C1321 C1325 1.408 . S
C1322 C1320 1.363 . S
C1322 C1323 1.370 . S
C1322 C1326 1.524 . S
C1323 C1315 1.503 . S
C1323 C1322 1.370 . S
C1323 C1324 1.403 . S
C1324 C1323 1.403 . S
C1324 C1325 1.404 . S
C1324 C1327 1.539 . S
C1325 C1321 1.408 . S
C1325 C1324 1.404 . S
C1325 H1337 0.930 . S
C1326 C1322 1.524 . S
C1326 H1338 0.956 . S
C1326 H1339 0.961 . S
C1326 H1340 0.961 . S
C1327 C1324 1.539 . S
C1327 H1341 0.958 . S
C1327 H1342 0.961 . S
C1327 H1343 0.960 . S
H1328 C1312 0.931 . S
H1329 C1317 0.929 . S
H1330 C1318 0.960 . S
H1331 C1318 0.962 . S
H1332 C1318 0.960 . S
H1333 C1319 0.961 . S
H1334 C1319 0.961 . S
H1335 C1319 0.961 . S
H1336 C1320 0.931 . S
H1337 C1325 0.930 . S
H1338 C1326 0.956 . S
H1339 C1326 0.961 . S
H1340 C1326 0.961 . S
H1341 C1327 0.958 . S
H1342 C1327 0.961 . S
H1343 C1327 0.960 . S
C1344 C1345 1.391 . S
C1344 C1346 1.394 . S
C1344 H1360 0.931 . S
C1345 C1344 1.391 . S
C1345 C1349 1.376 . S
C1346 C1344 1.394 . S
C1346 C1347 1.369 . S
C1346 C1350 1.531 . S
C1347 C1346 1.369 . S
C1347 C1348 1.410 . S
C1347 C1355 1.503 . S
C1348 C1347 1.410 . S
C1348 C1349 1.392 . S
C1348 C1351 1.511 . S
C1349 C1345 1.376 . S
C1349 C1348 1.392 . S
C1349 H1361 0.929 . S
C1350 C1346 1.531 . S
C1350 H1362 0.960 . S
C1350 H1363 0.962 . S
C1350 H1364 0.960 . S
C1351 C1348 1.511 . S
C1351 H1365 0.961 . S
C1351 H1366 0.961 . S
C1351 H1367 0.961 . S
C1352 C1353 1.370 . S
C1352 C1354 1.363 . S
C1352 H1368 0.931 . S
C1353 C1352 1.370 . S
C1353 C1357 1.408 . S
C1354 C1352 1.363 . S
C1354 C1355 1.370 . S
C1354 C1358 1.524 . S
C1355 C1347 1.503 . S
C1355 C1354 1.370 . S
C1355 C1356 1.403 . S
C1356 C1355 1.403 . S
C1356 C1357 1.404 . S
C1356 C1359 1.539 . S
C1357 C1353 1.408 . S
C1357 C1356 1.404 . S
C1357 H1369 0.930 . S
C1358 C1354 1.524 . S
C1358 H1370 0.956 . S
C1358 H1371 0.961 . S
C1358 H1372 0.961 . S
C1359 C1356 1.539 . S
C1359 H1373 0.958 . S
C1359 H1374 0.961 . S
C1359 H1375 0.960 . S
H1360 C1344 0.931 . S
H1361 C1349 0.929 . S
H1362 C1350 0.960 . S
H1363 C1350 0.962 . S
H1364 C1350 0.960 . S
H1365 C1351 0.961 . S
H1366 C1351 0.961 . S
H1367 C1351 0.961 . S
H1368 C1352 0.931 . S
H1369 C1357 0.930 . S
H1370 C1358 0.956 . S
H1371 C1358 0.961 . S
H1372 C1358 0.961 . S
H1373 C1359 0.958 . S
H1374 C1359 0.961 . S
H1375 C1359 0.960 . S
C1376 C1377 1.391 . S
C1376 C1378 1.394 . S
C1376 H1392 0.931 . S
C1377 C1376 1.391 . S
C1377 C1381 1.376 . S
C1378 C1376 1.394 . S
C1378 C1379 1.369 . S
C1378 C1382 1.531 . S
C1379 C1378 1.369 . S
C1379 C1380 1.410 . S
C1379 C1387 1.503 . S
C1380 C1379 1.410 . S
C1380 C1381 1.392 . S
C1380 C1383 1.511 . S
C1381 C1377 1.376 . S
C1381 C1380 1.392 . S
C1381 H1393 0.929 . S
C1382 C1378 1.531 . S
C1382 H1394 0.960 . S
C1382 H1395 0.962 . S
C1382 H1396 0.960 . S
C1383 C1380 1.511 . S
C1383 H1397 0.961 . S
C1383 H1398 0.961 . S
C1383 H1399 0.961 . S
C1384 C1385 1.370 . S
C1384 C1386 1.363 . S
C1384 H1400 0.931 . S
C1385 C1384 1.370 . S
C1385 C1389 1.408 . S
C1386 C1384 1.363 . S
C1386 C1387 1.370 . S
C1386 C1390 1.524 . S
C1387 C1379 1.503 . S
C1387 C1386 1.370 . S
C1387 C1388 1.403 . S
C1388 C1387 1.403 . S
C1388 C1389 1.404 . S
C1388 C1391 1.539 . S
C1389 C1385 1.408 . S
C1389 C1388 1.404 . S
C1389 H1401 0.930 . S
C1390 C1386 1.524 . S
C1390 H1402 0.956 . S
C1390 H1403 0.961 . S
C1390 H1404 0.961 . S
C1391 C1388 1.539 . S
C1391 H1405 0.958 . S
C1391 H1406 0.961 . S
C1391 H1407 0.960 . S
H1392 C1376 0.931 . S
H1393 C1381 0.929 . S
H1394 C1382 0.960 . S
H1395 C1382 0.962 . S
H1396 C1382 0.960 . S
H1397 C1383 0.961 . S
H1398 C1383 0.961 . S
H1399 C1383 0.961 . S
H1400 C1384 0.931 . S
H1401 C1389 0.930 . S
H1402 C1390 0.956 . S
H1403 C1390 0.961 . S
H1404 C1390 0.961 . S
H1405 C1391 0.958 . S
H1406 C1391 0.961 . S
H1407 C1391 0.960 . S
C1408 C1409 1.391 . S
C1408 C1410 1.394 . S
C1408 H1424 0.931 1_554 S
C1409 C1408 1.391 . S
C1409 C1413 1.376 . S
C1410 C1408 1.394 . S
C1410 C1411 1.369 . S
C1410 C1414 1.531 . S
C1411 C1410 1.369 . S
C1411 C1412 1.410 . S
C1411 C1419 1.503 . S
C1412 C1411 1.410 . S
C1412 C1413 1.392 . S
C1412 C1415 1.511 . S
C1413 C1409 1.376 . S
C1413 C1412 1.392 . S
C1413 H1425 0.929 . S
C1414 C1410 1.531 . S
C1414 H1426 0.960 . S
C1414 H1427 0.962 . S
C1414 H1428 0.960 . S
C1415 C1412 1.511 . S
C1415 H1429 0.961 . S
C1415 H1430 0.961 . S
C1415 H1431 0.961 . S
C1416 C1417 1.370 . S
C1416 C1418 1.363 . S
C1416 H1432 0.931 . S
C1417 C1416 1.370 . S
C1417 C1421 1.408 . S
C1418 C1416 1.363 . S
C1418 C1419 1.370 . S
C1418 C1422 1.524 . S
C1419 C1411 1.503 . S
C1419 C1418 1.370 . S
C1419 C1420 1.403 . S
C1420 C1419 1.403 . S
C1420 C1421 1.404 . S
C1420 C1423 1.539 . S
C1421 C1417 1.408 . S
C1421 C1420 1.404 . S
C1421 H1433 0.930 . S
C1422 C1418 1.524 . S
C1422 H1434 0.956 . S
C1422 H1435 0.961 . S
C1422 H1436 0.961 . S
C1423 C1420 1.539 . S
C1423 H1437 0.958 . S
C1423 H1438 0.961 . S
C1423 H1439 0.960 . S
H1424 C1408 0.931 1_556 S
H1425 C1413 0.929 . S
H1426 C1414 0.960 . S
H1427 C1414 0.962 . S
H1428 C1414 0.960 . S
H1429 C1415 0.961 . S
H1430 C1415 0.961 . S
H1431 C1415 0.961 . S
H1432 C1416 0.931 . S
H1433 C1421 0.930 . S
H1434 C1422 0.956 . S
H1435 C1422 0.961 . S
H1436 C1422 0.961 . S
H1437 C1423 0.958 . S
H1438 C1423 0.961 . S
H1439 C1423 0.960 . S
C1440 C1441 1.391 . S
C1440 C1442 1.394 . S
C1440 H1456 0.931 . S
C1441 C1440 1.391 . S
C1441 C1445 1.376 . S
C1442 C1440 1.394 . S
C1442 C1443 1.369 . S
C1442 C1446 1.531 . S
C1443 C1442 1.369 . S
C1443 C1444 1.410 . S
C1443 C1451 1.503 . S
C1444 C1443 1.410 . S
C1444 C1445 1.392 . S
C1444 C1447 1.511 . S
C1445 C1441 1.376 . S
C1445 C1444 1.392 . S
C1445 H1457 0.929 . S
C1446 C1442 1.531 . S
C1446 H1458 0.960 . S
C1446 H1459 0.962 . S
C1446 H1460 0.960 . S
C1447 C1444 1.511 . S
C1447 H1461 0.961 . S
C1447 H1462 0.961 . S
C1447 H1463 0.961 . S
C1448 C1449 1.370 . S
C1448 C1450 1.363 . S
C1448 H1464 0.931 1_556 S
C1449 C1448 1.370 . S
C1449 C1453 1.408 . S
C1450 C1448 1.363 . S
C1450 C1451 1.370 . S
C1450 C1454 1.524 . S
C1451 C1443 1.503 . S
C1451 C1450 1.370 . S
C1451 C1452 1.403 . S
C1452 C1451 1.403 . S
C1452 C1453 1.404 . S
C1452 C1455 1.539 . S
C1453 C1449 1.408 . S
C1453 C1452 1.404 . S
C1453 H1465 0.930 . S
C1454 C1450 1.524 . S
C1454 H1466 0.956 . S
C1454 H1467 0.961 . S
C1454 H1468 0.961 . S
C1455 C1452 1.539 . S
C1455 H1469 0.958 . S
C1455 H1470 0.961 . S
C1455 H1471 0.960 . S
H1456 C1440 0.931 . S
H1457 C1445 0.929 . S
H1458 C1446 0.960 . S
H1459 C1446 0.962 . S
H1460 C1446 0.960 . S
H1461 C1447 0.961 . S
H1462 C1447 0.961 . S
H1463 C1447 0.961 . S
H1464 C1448 0.931 1_554 S
H1465 C1453 0.930 . S
H1466 C1454 0.956 . S
H1467 C1454 0.961 . S
H1468 C1454 0.961 . S
H1469 C1455 0.958 . S
H1470 C1455 0.961 . S
H1471 C1455 0.960 . S
C1472 C1473 1.391 . S
C1472 C1474 1.394 . S
C1472 H1488 0.931 . S
C1473 C1472 1.391 . S
C1473 C1477 1.376 . S
C1474 C1472 1.394 . S
C1474 C1475 1.369 . S
C1474 C1478 1.531 . S
C1475 C1474 1.369 . S
C1475 C1476 1.410 . S
C1475 C1483 1.503 . S
C1476 C1475 1.410 . S
C1476 C1477 1.392 . S
C1476 C1479 1.511 . S
C1477 C1473 1.376 . S
C1477 C1476 1.392 . S
C1477 H1489 0.929 . S
C1478 C1474 1.531 . S
C1478 H1490 0.960 . S
C1478 H1491 0.962 . S
C1478 H1492 0.960 . S
C1479 C1476 1.511 . S
C1479 H1493 0.961 . S
C1479 H1494 0.961 . S
C1479 H1495 0.961 . S
C1480 C1481 1.370 . S
C1480 C1482 1.363 . S
C1480 H1496 0.931 . S
C1481 C1480 1.370 . S
C1481 C1485 1.408 . S
C1482 C1480 1.363 . S
C1482 C1483 1.370 . S
C1482 C1486 1.524 . S
C1483 C1475 1.503 . S
C1483 C1482 1.370 . S
C1483 C1484 1.403 . S
C1484 C1483 1.403 . S
C1484 C1485 1.404 . S
C1484 C1487 1.539 . S
C1485 C1481 1.408 . S
C1485 C1484 1.404 . S
C1485 H1497 0.930 . S
C1486 C1482 1.524 . S
C1486 H1498 0.956 . S
C1486 H1499 0.961 . S
C1486 H1500 0.961 . S
C1487 C1484 1.539 . S
C1487 H1501 0.958 1_554 S
C1487 H1502 0.961 . S
C1487 H1503 0.960 . S
H1488 C1472 0.931 . S
H1489 C1477 0.929 . S
H1490 C1478 0.960 . S
H1491 C1478 0.962 . S
H1492 C1478 0.960 . S
H1493 C1479 0.961 . S
H1494 C1479 0.961 . S
H1495 C1479 0.961 . S
H1496 C1480 0.931 . S
H1497 C1485 0.930 . S
H1498 C1486 0.956 . S
H1499 C1486 0.961 . S
H1500 C1486 0.961 . S
H1501 C1487 0.958 1_556 S
H1502 C1487 0.961 . S
H1503 C1487 0.960 . S
C1504 C1505 1.391 . S
C1504 C1506 1.394 . S
C1504 H1520 0.931 . S
C1505 C1504 1.391 . S
C1505 C1509 1.376 . S
C1506 C1504 1.394 . S
C1506 C1507 1.369 . S
C1506 C1510 1.531 . S
C1507 C1506 1.369 . S
C1507 C1508 1.410 . S
C1507 C1515 1.503 1_655 S
C1508 C1507 1.410 . S
C1508 C1509 1.392 . S
C1508 C1511 1.511 . S
C1509 C1505 1.376 . S
C1509 C1508 1.392 . S
C1509 H1521 0.929 . S
C1510 C1506 1.531 . S
C1510 H1522 0.960 1_655 S
C1510 H1523 0.962 . S
C1510 H1524 0.960 . S
C1511 C1508 1.511 . S
C1511 H1525 0.961 . S
C1511 H1526 0.961 1_655 S
C1511 H1527 0.961 . S
C1512 C1513 1.370 . S
C1512 C1514 1.363 . S
C1512 H1528 0.931 . S
C1513 C1512 1.370 . S
C1513 C1517 1.408 . S
C1514 C1512 1.363 . S
C1514 C1515 1.370 . S
C1514 C1518 1.524 . S
C1515 C1507 1.503 1_455 S
C1515 C1514 1.370 . S
C1515 C1516 1.403 . S
C1516 C1515 1.403 . S
C1516 C1517 1.404 . S
C1516 C1519 1.539 . S
C1517 C1513 1.408 . S
C1517 C1516 1.404 . S
C1517 H1529 0.930 . S
C1518 C1514 1.524 . S
C1518 H1530 0.982 . S
C1518 H1531 0.919 1_455 S
C1518 H1532 0.961 . S
C1519 C1516 1.539 . S
C1519 H1533 0.958 . S
C1519 H1534 0.961 . S
C1519 H1535 0.968 . S
H1520 C1504 0.931 . S
H1521 C1509 0.929 . S
H1522 C1510 0.960 1_455 S
H1523 C1510 0.962 . S
H1524 C1510 0.960 . S
H1525 C1511 0.961 . S
H1526 C1511 0.961 1_455 S
H1527 C1511 0.961 . S
H1528 C1512 0.931 . S
H1529 C1517 0.930 . S
H1530 C1518 0.982 . S
H1531 C1518 0.919 1_655 S
H1532 C1518 0.961 . S
H1533 C1519 0.958 . S
H1534 C1519 0.961 . S
H1535 C1519 0.968 . S
C1536 C1537 1.391 . S
C1536 C1538 1.394 . S
C1536 H1552 0.931 . S
C1537 C1536 1.391 . S
C1537 C1541 1.376 . S
C1538 C1536 1.394 . S
C1538 C1539 1.369 . S
C1538 C1542 1.531 . S
C1539 C1538 1.369 . S
C1539 C1540 1.410 . S
C1539 C1547 1.503 . S
C1540 C1539 1.410 . S
C1540 C1541 1.392 . S
C1540 C1543 1.511 . S
C1541 C1537 1.376 . S
C1541 C1540 1.392 . S
C1541 H1553 0.929 . S
C1542 C1538 1.531 . S
C1542 H1554 0.960 . S
C1542 H1555 0.962 . S
C1542 H1556 0.960 . S
C1543 C1540 1.511 . S
C1543 H1557 0.961 . S
C1543 H1558 0.961 . S
C1543 H1559 0.961 . S
C1544 C1545 1.370 . S
C1544 C1546 1.363 . S
C1544 H1560 0.931 . S
C1545 C1544 1.370 . S
C1545 C1549 1.408 . S
C1546 C1544 1.363 . S
C1546 C1547 1.370 . S
C1546 C1550 1.524 . S
C1547 C1539 1.503 . S
C1547 C1546 1.370 . S
C1547 C1548 1.403 . S
C1548 C1547 1.403 . S
C1548 C1549 1.404 . S
C1548 C1551 1.539 . S
C1549 C1545 1.408 . S
C1549 C1548 1.404 . S
C1549 H1561 0.930 . S
C1550 C1546 1.524 . S
C1550 H1562 0.956 . S
C1550 H1563 0.961 . S
C1550 H1564 0.961 . S
C1551 C1548 1.539 . S
C1551 H1565 0.958 . S
C1551 H1566 0.961 . S
C1551 H1567 0.960 . S
H1552 C1536 0.931 . S
H1553 C1541 0.929 . S
H1554 C1542 0.960 . S
H1555 C1542 0.962 . S
H1556 C1542 0.960 . S
H1557 C1543 0.961 . S
H1558 C1543 0.961 . S
H1559 C1543 0.961 . S
H1560 C1544 0.931 . S
H1561 C1549 0.930 . S
H1562 C1550 0.956 . S
H1563 C1550 0.961 . S
H1564 C1550 0.961 . S
H1565 C1551 0.958 . S
H1566 C1551 0.961 . S
H1567 C1551 0.960 . S
C1568 C1569 1.391 . S
C1568 C1570 1.394 . S
C1568 H1584 0.931 . S
C1569 C1568 1.391 . S
C1569 C1573 1.376 . S
C1570 C1568 1.394 . S
C1570 C1571 1.369 . S
C1570 C1574 1.531 . S
C1571 C1570 1.369 . S
C1571 C1572 1.410 . S
C1571 C1579 1.503 . S
C1572 C1571 1.410 . S
C1572 C1573 1.392 . S
C1572 C1575 1.511 . S
C1573 C1569 1.376 . S
C1573 C1572 1.392 . S
C1573 H1585 0.929 . S
C1574 C1570 1.531 . S
C1574 H1586 0.960 . S
C1574 H1587 0.962 . S
C1574 H1588 0.960 . S
C1575 C1572 1.511 . S
C1575 H1589 0.961 . S
C1575 H1590 0.961 . S
C1575 H1591 0.961 . S
C1576 C1577 1.370 . S
C1576 C1578 1.363 . S
C1576 H1592 0.931 . S
C1577 C1576 1.370 . S
C1577 C1581 1.408 . S
C1578 C1576 1.363 . S
C1578 C1579 1.370 . S
C1578 C1582 1.524 . S
C1579 C1571 1.503 . S
C1579 C1578 1.370 . S
C1579 C1580 1.403 . S
C1580 C1579 1.403 . S
C1580 C1581 1.404 . S
C1580 C1583 1.539 . S
C1581 C1577 1.408 . S
C1581 C1580 1.404 . S
C1581 H1593 0.930 . S
C1582 C1578 1.524 . S
C1582 H1594 0.956 . S
C1582 H1595 0.961 . S
C1582 H1596 0.961 . S
C1583 C1580 1.539 . S
C1583 H1597 0.958 . S
C1583 H1598 0.961 . S
C1583 H1599 0.960 . S
H1584 C1568 0.931 . S
H1585 C1573 0.929 . S
H1586 C1574 0.960 . S
H1587 C1574 0.962 . S
H1588 C1574 0.960 . S
H1589 C1575 0.961 . S
H1590 C1575 0.961 . S
H1591 C1575 0.961 . S
H1592 C1576 0.931 . S
H1593 C1581 0.930 . S
H1594 C1582 0.956 . S
H1595 C1582 0.961 . S
H1596 C1582 0.961 . S
H1597 C1583 0.958 . S
H1598 C1583 0.961 . S
H1599 C1583 0.960 . S
C1600 C1601 1.391 . S
C1600 C1602 1.394 . S
C1600 H1616 0.931 . S
C1601 C1600 1.391 . S
C1601 C1605 1.376 . S
C1602 C1600 1.394 . S
C1602 C1603 1.369 . S
C1602 C1606 1.531 . S
C1603 C1602 1.369 . S
C1603 C1604 1.410 . S
C1603 C1611 1.503 . S
C1604 C1603 1.410 . S
C1604 C1605 1.392 . S
C1604 C1607 1.511 . S
C1605 C1601 1.376 . S
C1605 C1604 1.392 . S
C1605 H1617 0.929 . S
C1606 C1602 1.531 . S
C1606 H1618 0.960 . S
C1606 H1619 0.962 . S
C1606 H1620 0.960 . S
C1607 C1604 1.511 . S
C1607 H1621 0.961 . S
C1607 H1622 0.961 . S
C1607 H1623 0.961 . S
C1608 C1609 1.370 . S
C1608 C1610 1.363 . S
C1608 H1624 0.931 . S
C1609 C1608 1.370 . S
C1609 C1613 1.408 . S
C1610 C1608 1.363 . S
C1610 C1611 1.370 . S
C1610 C1614 1.524 . S
C1611 C1603 1.503 . S
C1611 C1610 1.370 . S
C1611 C1612 1.403 . S
C1612 C1611 1.403 . S
C1612 C1613 1.404 . S
C1612 C1615 1.539 . S
C1613 C1609 1.408 . S
C1613 C1612 1.404 . S
C1613 H1625 0.930 . S
C1614 C1610 1.524 . S
C1614 H1626 0.956 . S
C1614 H1627 0.961 . S
C1614 H1628 0.961 . S
C1615 C1612 1.539 . S
C1615 H1629 0.958 . S
C1615 H1630 0.961 . S
C1615 H1631 0.960 . S
H1616 C1600 0.931 . S
H1617 C1605 0.929 . S
H1618 C1606 0.960 . S
H1619 C1606 0.962 . S
H1620 C1606 0.960 . S
H1621 C1607 0.961 . S
H1622 C1607 0.961 . S
H1623 C1607 0.961 . S
H1624 C1608 0.931 . S
H1625 C1613 0.930 . S
H1626 C1614 0.956 . S
H1627 C1614 0.961 . S
H1628 C1614 0.961 . S
H1629 C1615 0.958 . S
H1630 C1615 0.961 . S
H1631 C1615 0.960 . S
C1632 C1633 1.391 . S
C1632 C1634 1.394 . S
C1632 H1648 0.931 . S
C1633 C1632 1.391 . S
C1633 C1637 1.376 . S
C1634 C1632 1.394 . S
C1634 C1635 1.369 . S
C1634 C1638 1.531 . S
C1635 C1634 1.369 . S
C1635 C1636 1.410 . S
C1635 C1643 1.503 . S
C1636 C1635 1.410 . S
C1636 C1637 1.392 . S
C1636 C1639 1.511 . S
C1637 C1633 1.376 . S
C1637 C1636 1.392 . S
C1637 H1649 0.929 . S
C1638 C1634 1.531 . S
C1638 H1650 0.960 . S
C1638 H1651 0.962 . S
C1638 H1652 0.960 . S
C1639 C1636 1.511 . S
C1639 H1653 0.961 . S
C1639 H1654 0.961 . S
C1639 H1655 0.961 . S
C1640 C1641 1.370 . S
C1640 C1642 1.363 . S
C1640 H1656 0.931 . S
C1641 C1640 1.370 . S
C1641 C1645 1.408 . S
C1642 C1640 1.363 . S
C1642 C1643 1.370 . S
C1642 C1646 1.524 . S
C1643 C1635 1.503 . S
C1643 C1642 1.370 . S
C1643 C1644 1.403 . S
C1644 C1643 1.403 . S
C1644 C1645 1.404 . S
C1644 C1647 1.539 . S
C1645 C1641 1.408 . S
C1645 C1644 1.404 . S
C1645 H1657 0.930 . S
C1646 C1642 1.524 . S
C1646 H1658 0.956 . S
C1646 H1659 0.961 . S
C1646 H1660 0.961 . S
C1647 C1644 1.539 . S
C1647 H1661 0.958 . S
C1647 H1662 0.961 . S
C1647 H1663 0.960 . S
H1648 C1632 0.931 . S
H1649 C1637 0.929 . S
H1650 C1638 0.960 . S
H1651 C1638 0.962 . S
H1652 C1638 0.960 . S
H1653 C1639 0.961 . S
H1654 C1639 0.961 . S
H1655 C1639 0.961 . S
H1656 C1640 0.931 . S
H1657 C1645 0.930 . S
H1658 C1646 0.956 . S
H1659 C1646 0.961 . S
H1660 C1646 0.961 . S
H1661 C1647 0.958 . S
H1662 C1647 0.961 . S
H1663 C1647 0.960 . S
C1664 C1665 1.391 . S
C1664 C1666 1.394 . S
C1664 H1680 0.931 . S
C1665 C1664 1.391 . S
C1665 C1669 1.376 . S
C1666 C1664 1.394 . S
C1666 C1667 1.369 . S
C1666 C1670 1.531 . S
C1667 C1666 1.369 . S
C1667 C1668 1.410 . S
C1667 C1675 1.503 . S
C1668 C1667 1.410 . S
C1668 C1669 1.392 . S
C1668 C1671 1.511 . S
C1669 C1665 1.376 . S
C1669 C1668 1.392 . S
C1669 H1681 0.929 . S
C1670 C1666 1.531 . S
C1670 H1682 0.960 . S
C1670 H1683 0.962 . S
C1670 H1684 0.960 . S
C1671 C1668 1.511 . S
C1671 H1685 0.961 . S
C1671 H1686 0.961 . S
C1671 H1687 0.961 . S
C1672 C1673 1.370 . S
C1672 C1674 1.363 . S
C1672 H1688 0.931 . S
C1673 C1672 1.370 . S
C1673 C1677 1.408 . S
C1674 C1672 1.363 . S
C1674 C1675 1.370 . S
C1674 C1678 1.524 . S
C1675 C1667 1.503 . S
C1675 C1674 1.370 . S
C1675 C1676 1.403 . S
C1676 C1675 1.403 . S
C1676 C1677 1.404 . S
C1676 C1679 1.539 . S
C1677 C1673 1.408 . S
C1677 C1676 1.404 . S
C1677 H1689 0.930 . S
C1678 C1674 1.524 . S
C1678 H1690 0.956 . S
C1678 H1691 0.961 . S
C1678 H1692 0.961 . S
C1679 C1676 1.539 . S
C1679 H1693 0.958 . S
C1679 H1694 0.961 . S
C1679 H1695 0.960 . S
H1680 C1664 0.931 . S
H1681 C1669 0.929 . S
H1682 C1670 0.960 . S
H1683 C1670 0.962 . S
H1684 C1670 0.960 . S
H1685 C1671 0.961 . S
H1686 C1671 0.961 . S
H1687 C1671 0.961 . S
H1688 C1672 0.931 . S
H1689 C1677 0.930 . S
H1690 C1678 0.956 . S
H1691 C1678 0.961 . S
H1692 C1678 0.961 . S
H1693 C1679 0.958 . S
H1694 C1679 0.961 . S
H1695 C1679 0.960 . S
C1696 C1697 1.391 . S
C1696 C1698 1.394 . S
C1696 H1712 0.931 . S
C1697 C1696 1.391 . S
C1697 C1701 1.376 . S
C1698 C1696 1.394 . S
C1698 C1699 1.369 . S
C1698 C1702 1.531 . S
C1699 C1698 1.369 . S
C1699 C1700 1.410 . S
C1699 C1707 1.503 1_655 S
C1700 C1699 1.410 . S
C1700 C1701 1.392 . S
C1700 C1703 1.511 . S
C1701 C1697 1.376 . S
C1701 C1700 1.392 . S
C1701 H1713 0.929 . S
C1702 C1698 1.531 . S
C1702 H1714 0.960 1_655 S
C1702 H1715 0.962 . S
C1702 H1716 0.960 . S
C1703 C1700 1.511 . S
C1703 H1717 0.961 . S
C1703 H1718 0.961 1_655 S
C1703 H1719 0.961 . S
C1704 C1705 1.370 . S
C1704 C1706 1.363 . S
C1704 H1720 0.931 . S
C1705 C1704 1.370 . S
C1705 C1709 1.408 . S
C1706 C1704 1.363 . S
C1706 C1707 1.370 . S
C1706 C1710 1.524 . S
C1707 C1699 1.503 1_455 S
C1707 C1706 1.370 . S
C1707 C1708 1.403 . S
C1708 C1707 1.403 . S
C1708 C1709 1.404 . S
C1708 C1711 1.539 . S
C1709 C1705 1.408 . S
C1709 C1708 1.404 . S
C1709 H1721 0.930 . S
C1710 C1706 1.524 . S
C1710 H1722 0.982 . S
C1710 H1723 0.919 1_455 S
C1710 H1724 0.961 . S
C1711 C1708 1.539 . S
C1711 H1725 0.958 . S
C1711 H1726 0.961 . S
C1711 H1727 0.968 . S
H1712 C1696 0.931 . S
H1713 C1701 0.929 . S
H1714 C1702 0.960 1_455 S
H1715 C1702 0.962 . S
H1716 C1702 0.960 . S
H1717 C1703 0.961 . S
H1718 C1703 0.961 1_455 S
H1719 C1703 0.961 . S
H1720 C1704 0.931 . S
H1721 C1709 0.930 . S
H1722 C1710 0.982 . S
H1723 C1710 0.919 1_655 S
H1724 C1710 0.961 . S
H1725 C1711 0.958 . S
H1726 C1711 0.961 . S
H1727 C1711 0.968 . S
C1728 C1729 1.391 . S
C1728 C1730 1.394 . S
C1728 H1744 0.931 . S
C1729 C1728 1.391 . S
C1729 C1733 1.376 . S
C1730 C1728 1.394 . S
C1730 C1731 1.369 . S
C1730 C1734 1.531 . S
C1731 C1730 1.369 . S
C1731 C1732 1.410 . S
C1731 C1739 1.503 . S
C1732 C1731 1.410 . S
C1732 C1733 1.392 . S
C1732 C1735 1.511 . S
C1733 C1729 1.376 . S
C1733 C1732 1.392 . S
C1733 H1745 0.929 . S
C1734 C1730 1.531 . S
C1734 H1746 0.960 . S
C1734 H1747 0.962 . S
C1734 H1748 0.960 . S
C1735 C1732 1.511 . S
C1735 H1749 0.961 . S
C1735 H1750 0.961 . S
C1735 H1751 0.961 . S
C1736 C1737 1.370 . S
C1736 C1738 1.363 . S
C1736 H1752 0.931 . S
C1737 C1736 1.370 . S
C1737 C1741 1.408 . S
C1738 C1736 1.363 . S
C1738 C1739 1.370 . S
C1738 C1742 1.524 . S
C1739 C1731 1.503 . S
C1739 C1738 1.370 . S
C1739 C1740 1.403 . S
C1740 C1739 1.403 . S
C1740 C1741 1.404 . S
C1740 C1743 1.539 . S
C1741 C1737 1.408 . S
C1741 C1740 1.404 . S
C1741 H1753 0.930 . S
C1742 C1738 1.524 . S
C1742 H1754 0.956 . S
C1742 H1755 0.961 . S
C1742 H1756 0.968 . S
C1743 C1740 1.539 . S
C1743 H1757 0.958 . S
C1743 H1758 0.961 . S
C1743 H1759 0.960 . S
H1744 C1728 0.931 . S
H1745 C1733 0.929 . S
H1746 C1734 0.960 . S
H1747 C1734 0.962 . S
H1748 C1734 0.960 . S
H1749 C1735 0.961 . S
H1750 C1735 0.961 . S
H1751 C1735 0.961 . S
H1752 C1736 0.931 . S
H1753 C1741 0.930 . S
H1754 C1742 0.956 . S
H1755 C1742 0.961 . S
H1756 C1742 0.968 . S
H1757 C1743 0.958 . S
H1758 C1743 0.961 . S
H1759 C1743 0.960 . S
C1760 C1761 1.391 . S
C1760 C1762 1.394 . S
C1760 H1776 0.931 . S
C1761 C1760 1.391 . S
C1761 C1765 1.376 . S
C1762 C1760 1.394 . S
C1762 C1763 1.369 . S
C1762 C1766 1.531 . S
C1763 C1762 1.369 . S
C1763 C1764 1.410 . S
C1763 C1771 1.503 . S
C1764 C1763 1.410 . S
C1764 C1765 1.392 . S
C1764 C1767 1.511 . S
C1765 C1761 1.376 . S
C1765 C1764 1.392 . S
C1765 H1777 0.929 . S
C1766 C1762 1.531 . S
C1766 H1778 0.960 . S
C1766 H1779 0.962 . S
C1766 H1780 0.960 . S
C1767 C1764 1.511 . S
C1767 H1781 0.961 . S
C1767 H1782 0.961 . S
C1767 H1783 0.961 . S
C1768 C1769 1.370 . S
C1768 C1770 1.363 . S
C1768 H1784 0.931 . S
C1769 C1768 1.370 . S
C1769 C1773 1.408 . S
C1770 C1768 1.363 . S
C1770 C1771 1.370 . S
C1770 C1774 1.524 . S
C1771 C1763 1.503 . S
C1771 C1770 1.370 . S
C1771 C1772 1.403 . S
C1772 C1771 1.403 . S
C1772 C1773 1.404 . S
C1772 C1775 1.539 . S
C1773 C1769 1.408 . S
C1773 C1772 1.404 . S
C1773 H1785 0.930 . S
C1774 C1770 1.524 . S
C1774 H1786 0.956 . S
C1774 H1787 0.961 . S
C1774 H1788 0.961 . S
C1775 C1772 1.539 . S
C1775 H1789 0.958 . S
C1775 H1790 0.961 . S
C1775 H1791 0.960 . S
H1776 C1760 0.931 . S
H1777 C1765 0.929 . S
H1778 C1766 0.960 . S
H1779 C1766 0.962 . S
H1780 C1766 0.960 . S
H1781 C1767 0.961 . S
H1782 C1767 0.961 . S
H1783 C1767 0.961 . S
H1784 C1768 0.931 . S
H1785 C1773 0.930 . S
H1786 C1774 0.956 . S
H1787 C1774 0.961 . S
H1788 C1774 0.961 . S
H1789 C1775 0.958 . S
H1790 C1775 0.961 . S
H1791 C1775 0.960 . S
C1792 C1793 1.391 . S
C1792 C1794 1.394 . S
C1792 H1808 0.931 . S
C1793 C1792 1.391 . S
C1793 C1797 1.376 . S
C1794 C1792 1.394 . S
C1794 C1795 1.369 . S
C1794 C1798 1.531 . S
C1795 C1794 1.369 . S
C1795 C1796 1.410 . S
C1795 C1803 1.503 . S
C1796 C1795 1.410 . S
C1796 C1797 1.392 . S
C1796 C1799 1.511 . S
C1797 C1793 1.376 . S
C1797 C1796 1.392 . S
C1797 H1809 0.929 . S
C1798 C1794 1.531 . S
C1798 H1810 0.960 . S
C1798 H1811 0.962 . S
C1798 H1812 0.960 . S
C1799 C1796 1.511 . S
C1799 H1813 0.961 . S
C1799 H1814 0.961 . S
C1799 H1815 0.961 . S
C1800 C1801 1.370 . S
C1800 C1802 1.363 . S
C1800 H1816 0.931 . S
C1801 C1800 1.370 . S
C1801 C1805 1.408 . S
C1802 C1800 1.363 . S
C1802 C1803 1.370 . S
C1802 C1806 1.524 . S
C1803 C1795 1.503 . S
C1803 C1802 1.370 . S
C1803 C1804 1.403 . S
C1804 C1803 1.403 . S
C1804 C1805 1.404 . S
C1804 C1807 1.539 . S
C1805 C1801 1.408 . S
C1805 C1804 1.404 . S
C1805 H1817 0.930 . S
C1806 C1802 1.524 . S
C1806 H1818 0.956 . S
C1806 H1819 0.961 . S
C1806 H1820 0.961 . S
C1807 C1804 1.539 . S
C1807 H1821 0.958 . S
C1807 H1822 0.961 . S
C1807 H1823 0.960 . S
H1808 C1792 0.931 . S
H1809 C1797 0.929 . S
H1810 C1798 0.960 . S
H1811 C1798 0.962 . S
H1812 C1798 0.960 . S
H1813 C1799 0.961 . S
H1814 C1799 0.961 . S
H1815 C1799 0.961 . S
H1816 C1800 0.931 . S
H1817 C1805 0.930 . S
H1818 C1806 0.956 . S
H1819 C1806 0.961 . S
H1820 C1806 0.961 . S
H1821 C1807 0.958 . S
H1822 C1807 0.961 . S
H1823 C1807 0.960 . S
C1824 C1825 1.391 . S
C1824 C1826 1.394 . S
C1824 H1840 0.931 . S
C1825 C1824 1.391 . S
C1825 C1829 1.376 . S
C1826 C1824 1.394 . S
C1826 C1827 1.369 . S
C1826 C1830 1.531 . S
C1827 C1826 1.369 . S
C1827 C1828 1.410 . S
C1827 C1835 1.503 . S
C1828 C1827 1.410 . S
C1828 C1829 1.392 . S
C1828 C1831 1.511 . S
C1829 C1825 1.376 . S
C1829 C1828 1.392 . S
C1829 H1841 0.929 . S
C1830 C1826 1.531 . S
C1830 H1842 0.960 . S
C1830 H1843 0.962 . S
C1830 H1844 0.960 . S
C1831 C1828 1.511 . S
C1831 H1845 0.961 . S
C1831 H1846 0.961 . S
C1831 H1847 0.961 . S
C1832 C1833 1.370 . S
C1832 C1834 1.363 . S
C1832 H1848 0.931 . S
C1833 C1832 1.370 . S
C1833 C1837 1.408 . S
C1834 C1832 1.363 . S
C1834 C1835 1.370 . S
C1834 C1838 1.524 . S
C1835 C1827 1.503 . S
C1835 C1834 1.370 . S
C1835 C1836 1.403 . S
C1836 C1835 1.403 . S
C1836 C1837 1.404 . S
C1836 C1839 1.539 . S
C1837 C1833 1.408 . S
C1837 C1836 1.404 . S
C1837 H1849 0.930 . S
C1838 C1834 1.524 . S
C1838 H1850 0.956 . S
C1838 H1851 0.961 . S
C1838 H1852 0.961 . S
C1839 C1836 1.539 . S
C1839 H1853 0.958 . S
C1839 H1854 0.961 . S
C1839 H1855 0.960 . S
H1840 C1824 0.931 . S
H1841 C1829 0.929 . S
H1842 C1830 0.960 . S
H1843 C1830 0.962 . S
H1844 C1830 0.960 . S
H1845 C1831 0.961 . S
H1846 C1831 0.961 . S
H1847 C1831 0.961 . S
H1848 C1832 0.931 . S
H1849 C1837 0.930 . S
H1850 C1838 0.956 . S
H1851 C1838 0.961 . S
H1852 C1838 0.961 . S
H1853 C1839 0.958 . S
H1854 C1839 0.961 . S
H1855 C1839 0.960 . S
C1856 C1857 1.391 . S
C1856 C1858 1.394 . S
C1856 H1872 0.931 . S
C1857 C1856 1.391 . S
C1857 C1861 1.376 . S
C1858 C1856 1.394 . S
C1858 C1859 1.369 . S
C1858 C1862 1.531 . S
C1859 C1858 1.369 . S
C1859 C1860 1.410 . S
C1859 C1867 1.503 . S
C1860 C1859 1.410 . S
C1860 C1861 1.392 . S
C1860 C1863 1.511 . S
C1861 C1857 1.376 . S
C1861 C1860 1.392 . S
C1861 H1873 0.929 . S
C1862 C1858 1.531 . S
C1862 H1874 0.960 . S
C1862 H1875 0.962 . S
C1862 H1876 0.960 . S
C1863 C1860 1.511 . S
C1863 H1877 0.961 . S
C1863 H1878 0.961 . S
C1863 H1879 0.961 . S
C1864 C1865 1.370 . S
C1864 C1866 1.363 . S
C1864 H1880 0.931 . S
C1865 C1864 1.370 . S
C1865 C1869 1.408 . S
C1866 C1864 1.363 . S
C1866 C1867 1.370 . S
C1866 C1870 1.524 . S
C1867 C1859 1.503 . S
C1867 C1866 1.370 . S
C1867 C1868 1.403 . S
C1868 C1867 1.403 . S
C1868 C1869 1.404 . S
C1868 C1871 1.539 . S
C1869 C1865 1.408 . S
C1869 C1868 1.404 . S
C1869 H1881 0.930 . S
C1870 C1866 1.524 . S
C1870 H1882 0.956 . S
C1870 H1883 0.961 . S
C1870 H1884 0.961 . S
C1871 C1868 1.539 . S
C1871 H1885 0.962 . S
C1871 H1886 0.961 . S
C1871 H1887 0.960 . S
H1872 C1856 0.931 . S
H1873 C1861 0.929 . S
H1874 C1862 0.960 . S
H1875 C1862 0.962 . S
H1876 C1862 0.960 . S
H1877 C1863 0.961 . S
H1878 C1863 0.961 . S
H1879 C1863 0.961 . S
H1880 C1864 0.931 . S
H1881 C1869 0.930 . S
H1882 C1870 0.956 . S
H1883 C1870 0.961 . S
H1884 C1870 0.961 . S
H1885 C1871 0.962 . S
H1886 C1871 0.961 . S
H1887 C1871 0.960 . S
C1888 C1889 1.391 . S
C1888 C1890 1.394 . S
C1888 H1904 0.931 . S
C1889 C1888 1.391 . S
C1889 C1893 1.376 . S
C1890 C1888 1.394 . S
C1890 C1891 1.369 . S
C1890 C1894 1.531 . S
C1891 C1890 1.369 . S
C1891 C1892 1.410 . S
C1891 C1899 1.503 1_655 S
C1892 C1891 1.410 . S
C1892 C1893 1.392 . S
C1892 C1895 1.511 . S
C1893 C1889 1.376 . S
C1893 C1892 1.392 . S
C1893 H1905 0.929 . S
C1894 C1890 1.531 . S
C1894 H1906 0.960 1_655 S
C1894 H1907 0.962 . S
C1894 H1908 0.960 . S
C1895 C1892 1.511 . S
C1895 H1909 0.961 . S
C1895 H1910 0.961 1_655 S
C1895 H1911 0.961 . S
C1896 C1897 1.370 . S
C1896 C1898 1.363 . S
C1896 H1912 0.931 . S
C1897 C1896 1.370 . S
C1897 C1901 1.408 . S
C1898 C1896 1.363 . S
C1898 C1899 1.370 . S
C1898 C1902 1.524 . S
C1899 C1891 1.503 1_455 S
C1899 C1898 1.370 . S
C1899 C1900 1.403 . S
C1900 C1899 1.403 . S
C1900 C1901 1.404 . S
C1900 C1903 1.539 . S
C1901 C1897 1.408 . S
C1901 C1900 1.404 . S
C1901 H1913 0.930 . S
C1902 C1898 1.524 . S
C1902 H1914 0.982 . S
C1902 H1915 0.919 1_455 S
C1902 H1916 0.961 . S
C1903 C1900 1.539 . S
C1903 H1917 0.958 . S
C1903 H1918 0.961 . S
C1903 H1919 0.968 . S
H1904 C1888 0.931 . S
H1905 C1893 0.929 . S
H1906 C1894 0.960 1_455 S
H1907 C1894 0.962 . S
H1908 C1894 0.960 . S
H1909 C1895 0.961 . S
H1910 C1895 0.961 1_455 S
H1911 C1895 0.961 . S
H1912 C1896 0.931 . S
H1913 C1901 0.930 . S
H1914 C1902 0.982 . S
H1915 C1902 0.919 1_655 S
H1916 C1902 0.961 . S
H1917 C1903 0.958 . S
H1918 C1903 0.961 . S
H1919 C1903 0.968 . S
C1920 C1921 1.391 . S
C1920 C1922 1.394 . S
C1920 H1936 0.931 . S
C1921 C1920 1.391 . S
C1921 C1925 1.376 . S
C1922 C1920 1.394 . S
C1922 C1923 1.369 . S
C1922 C1926 1.531 . S
C1923 C1922 1.369 . S
C1923 C1924 1.410 . S
C1923 C1931 1.503 1_655 S
C1924 C1923 1.410 . S
C1924 C1925 1.392 . S
C1924 C1927 1.511 . S
C1925 C1921 1.376 . S
C1925 C1924 1.392 . S
C1925 H1937 0.929 . S
C1926 C1922 1.531 . S
C1926 H1938 0.960 1_655 S
C1926 H1939 0.962 . S
C1926 H1940 0.960 . S
C1927 C1924 1.511 . S
C1927 H1941 0.961 . S
C1927 H1942 0.961 1_655 S
C1927 H1943 0.961 . S
C1928 C1929 1.370 . S
C1928 C1930 1.363 . S
C1928 H1944 0.931 . S
C1929 C1928 1.370 . S
C1929 C1933 1.408 . S
C1930 C1928 1.363 . S
C1930 C1931 1.370 . S
C1930 C1934 1.524 . S
C1931 C1923 1.503 1_455 S
C1931 C1930 1.370 . S
C1931 C1932 1.403 . S
C1932 C1931 1.403 . S
C1932 C1933 1.404 . S
C1932 C1935 1.539 . S
C1933 C1929 1.408 . S
C1933 C1932 1.404 . S
C1933 H1945 0.930 . S
C1934 C1930 1.524 . S
C1934 H1946 0.982 . S
C1934 H1947 0.919 1_455 S
C1934 H1948 0.961 . S
C1935 C1932 1.539 . S
C1935 H1949 0.958 . S
C1935 H1950 0.961 . S
C1935 H1951 0.968 . S
H1936 C1920 0.931 . S
H1937 C1925 0.929 . S
H1938 C1926 0.960 1_455 S
H1939 C1926 0.962 . S
H1940 C1926 0.960 . S
H1941 C1927 0.961 . S
H1942 C1927 0.961 1_455 S
H1943 C1927 0.961 . S
H1944 C1928 0.931 . S
H1945 C1933 0.930 . S
H1946 C1934 0.982 . S
H1947 C1934 0.919 1_655 S
H1948 C1934 0.961 . S
H1949 C1935 0.958 . S
H1950 C1935 0.961 . S
H1951 C1935 0.968 . S
C1952 C1953 1.391 . S
C1952 C1954 1.394 . S
C1952 H1968 0.931 . S
C1953 C1952 1.391 . S
C1953 C1957 1.376 . S
C1954 C1952 1.394 . S
C1954 C1955 1.369 . S
C1954 C1958 1.531 . S
C1955 C1954 1.369 . S
C1955 C1956 1.410 . S
C1955 C1963 1.503 . S
C1956 C1955 1.410 . S
C1956 C1957 1.392 . S
C1956 C1959 1.511 . S
C1957 C1953 1.376 . S
C1957 C1956 1.392 . S
C1957 H1969 0.929 . S
C1958 C1954 1.531 . S
C1958 H1970 0.960 . S
C1958 H1971 0.962 . S
C1958 H1972 0.960 . S
C1959 C1956 1.511 . S
C1959 H1973 0.961 . S
C1959 H1974 0.961 . S
C1959 H1975 0.961 . S
C1960 C1961 1.370 . S
C1960 C1962 1.363 . S
C1960 H1976 0.931 . S
C1961 C1960 1.370 . S
C1961 C1965 1.408 . S
C1962 C1960 1.363 . S
C1962 C1963 1.370 . S
C1962 C1966 1.524 . S
C1963 C1955 1.503 . S
C1963 C1962 1.370 . S
C1963 C1964 1.403 . S
C1964 C1963 1.403 . S
C1964 C1965 1.404 . S
C1964 C1967 1.539 . S
C1965 C1961 1.408 . S
C1965 C1964 1.404 . S
C1965 H1977 0.930 . S
C1966 C1962 1.524 . S
C1966 H1978 0.956 . S
C1966 H1979 0.961 . S
C1966 H1980 0.961 . S
C1967 C1964 1.539 . S
C1967 H1981 0.958 . S
C1967 H1982 0.961 . S
C1967 H1983 0.960 . S
H1968 C1952 0.931 . S
H1969 C1957 0.929 . S
H1970 C1958 0.960 . S
H1971 C1958 0.962 . S
H1972 C1958 0.960 . S
H1973 C1959 0.961 . S
H1974 C1959 0.961 . S
H1975 C1959 0.961 . S
H1976 C1960 0.931 . S
H1977 C1965 0.930 . S
H1978 C1966 0.956 . S
H1979 C1966 0.961 . S
H1980 C1966 0.961 . S
H1981 C1967 0.958 . S
H1982 C1967 0.961 . S
H1983 C1967 0.960 . S
C1984 C1985 1.391 . S
C1984 C1986 1.394 . S
C1984 H2000 0.931 . S
C1985 C1984 1.391 . S
C1985 C1989 1.376 . S
C1986 C1984 1.394 . S
C1986 C1987 1.369 . S
C1986 C1990 1.531 . S
C1987 C1986 1.369 . S
C1987 C1988 1.410 . S
C1987 C1995 1.503 . S
C1988 C1987 1.410 . S
C1988 C1989 1.392 . S
C1988 C1991 1.511 . S
C1989 C1985 1.376 . S
C1989 C1988 1.392 . S
C1989 H2001 0.929 . S
C1990 C1986 1.531 . S
C1990 H2002 0.960 . S
C1990 H2003 0.962 . S
C1990 H2004 0.960 . S
C1991 C1988 1.511 . S
C1991 H2005 0.961 . S
C1991 H2006 0.961 . S
C1991 H2007 0.961 . S
C1992 C1993 1.370 . S
C1992 C1994 1.363 . S
C1992 H2008 0.931 . S
C1993 C1992 1.370 . S
C1993 C1997 1.408 . S
C1994 C1992 1.363 . S
C1994 C1995 1.370 . S
C1994 C1998 1.524 . S
C1995 C1987 1.503 . S
C1995 C1994 1.370 . S
C1995 C1996 1.403 . S
C1996 C1995 1.403 . S
C1996 C1997 1.404 . S
C1996 C1999 1.539 . S
C1997 C1993 1.408 . S
C1997 C1996 1.404 . S
C1997 H2009 0.930 . S
C1998 C1994 1.524 . S
C1998 H2010 0.956 . S
C1998 H2011 0.961 . S
C1998 H2012 0.961 . S
C1999 C1996 1.539 . S
C1999 H2013 0.958 . S
C1999 H2014 0.961 . S
C1999 H2015 0.960 . S
H2000 C1984 0.931 . S
H2001 C1989 0.929 . S
H2002 C1990 0.960 . S
H2003 C1990 0.962 . S
H2004 C1990 0.960 . S
H2005 C1991 0.961 . S
H2006 C1991 0.961 . S
H2007 C1991 0.961 . S
H2008 C1992 0.931 . S
H2009 C1997 0.930 . S
H2010 C1998 0.956 . S
H2011 C1998 0.961 . S
H2012 C1998 0.961 . S
H2013 C1999 0.958 . S
H2014 C1999 0.961 . S
H2015 C1999 0.960 . S
C2016 C2017 1.391 . S
C2016 C2018 1.394 . S
C2016 H2032 0.931 . S
C2017 C2016 1.391 . S
C2017 C2021 1.376 . S
C2018 C2016 1.394 . S
C2018 C2019 1.369 . S
C2018 C2022 1.531 . S
C2019 C2018 1.369 . S
C2019 C2020 1.410 . S
C2019 C2027 1.503 . S
C2020 C2019 1.410 . S
C2020 C2021 1.392 . S
C2020 C2023 1.511 . S
C2021 C2017 1.376 . S
C2021 C2020 1.392 . S
C2021 H2033 0.929 . S
C2022 C2018 1.531 . S
C2022 H2034 0.960 . S
C2022 H2035 0.962 . S
C2022 H2036 0.960 . S
C2023 C2020 1.511 . S
C2023 H2037 0.961 . S
C2023 H2038 0.961 . S
C2023 H2039 0.961 . S
C2024 C2025 1.370 . S
C2024 C2026 1.363 . S
C2024 H2040 0.931 . S
C2025 C2024 1.370 . S
C2025 C2029 1.408 . S
C2026 C2024 1.363 . S
C2026 C2027 1.370 . S
C2026 C2030 1.524 . S
C2027 C2019 1.503 . S
C2027 C2026 1.370 . S
C2027 C2028 1.403 . S
C2028 C2027 1.403 . S
C2028 C2029 1.404 . S
C2028 C2031 1.539 . S
C2029 C2025 1.408 . S
C2029 C2028 1.404 . S
C2029 H2041 0.930 . S
C2030 C2026 1.524 . S
C2030 H2042 0.956 . S
C2030 H2043 0.961 . S
C2030 H2044 0.961 . S
C2031 C2028 1.539 . S
C2031 H2045 0.958 . S
C2031 H2046 0.961 . S
C2031 H2047 0.960 . S
H2032 C2016 0.931 . S
H2033 C2021 0.929 . S
H2034 C2022 0.960 . S
H2035 C2022 0.962 . S
H2036 C2022 0.960 . S
H2037 C2023 0.961 . S
H2038 C2023 0.961 . S
H2039 C2023 0.961 . S
H2040 C2024 0.931 . S
H2041 C2029 0.930 . S
H2042 C2030 0.956 . S
H2043 C2030 0.961 . S
H2044 C2030 0.961 . S
H2045 C2031 0.958 . S
H2046 C2031 0.961 . S
H2047 C2031 0.960 . S
C2048 C2049 1.391 . S
C2048 C2050 1.394 . S
C2048 H2064 0.931 . S
C2049 C2048 1.391 . S
C2049 C2053 1.376 . S
C2050 C2048 1.394 . S
C2050 C2051 1.369 . S
C2050 C2054 1.531 . S
C2051 C2050 1.369 . S
C2051 C2052 1.410 . S
C2051 C2059 1.503 . S
C2052 C2051 1.410 . S
C2052 C2053 1.392 . S
C2052 C2055 1.511 . S
C2053 C2049 1.376 . S
C2053 C2052 1.392 . S
C2053 H2065 0.929 1_556 S
C2054 C2050 1.531 . S
C2054 H2066 0.960 . S
C2054 H2067 0.962 . S
C2054 H2068 0.960 . S
C2055 C2052 1.511 . S
C2055 H2069 0.961 . S
C2055 H2070 0.961 . S
C2055 H2071 0.961 . S
C2056 C2057 1.370 . S
C2056 C2058 1.363 . S
C2056 H2072 0.931 . S
C2057 C2056 1.370 . S
C2057 C2061 1.408 . S
C2058 C2056 1.363 . S
C2058 C2059 1.370 . S
C2058 C2062 1.524 . S
C2059 C2051 1.503 . S
C2059 C2058 1.370 . S
C2059 C2060 1.403 . S
C2060 C2059 1.403 . S
C2060 C2061 1.404 . S
C2060 C2063 1.539 . S
C2061 C2057 1.408 . S
C2061 C2060 1.404 . S
C2061 H2073 0.930 . S
C2062 C2058 1.524 . S
C2062 H2074 0.956 . S
C2062 H2075 0.961 . S
C2062 H2076 0.961 . S
C2063 C2060 1.539 . S
C2063 H2077 0.958 . S
C2063 H2078 0.961 . S
C2063 H2079 0.960 . S
H2064 C2048 0.931 . S
H2065 C2053 0.929 1_554 S
H2066 C2054 0.960 . S
H2067 C2054 0.962 . S
H2068 C2054 0.960 . S
H2069 C2055 0.961 . S
H2070 C2055 0.961 . S
H2071 C2055 0.961 . S
H2072 C2056 0.931 . S
H2073 C2061 0.930 . S
H2074 C2062 0.956 . S
H2075 C2062 0.961 . S
H2076 C2062 0.961 . S
H2077 C2063 0.958 . S
H2078 C2063 0.961 . S
H2079 C2063 0.960 . S
C2080 C2081 1.391 . S
C2080 C2082 1.394 . S
C2080 H2096 0.931 . S
C2081 C2080 1.391 . S
C2081 C2085 1.376 . S
C2082 C2080 1.394 . S
C2082 C2083 1.369 . S
C2082 C2086 1.531 . S
C2083 C2082 1.369 . S
C2083 C2084 1.410 . S
C2083 C2091 1.503 . S
C2084 C2083 1.410 . S
C2084 C2085 1.392 . S
C2084 C2087 1.511 . S
C2085 C2081 1.376 . S
C2085 C2084 1.392 . S
C2085 H2097 0.929 . S
C2086 C2082 1.531 . S
C2086 H2098 0.960 . S
C2086 H2099 0.962 . S
C2086 H2100 0.960 . S
C2087 C2084 1.511 . S
C2087 H2101 0.961 . S
C2087 H2102 0.961 . S
C2087 H2103 0.961 . S
C2088 C2089 1.370 . S
C2088 C2090 1.363 . S
C2088 H2104 0.931 . S
C2089 C2088 1.370 . S
C2089 C2093 1.408 . S
C2090 C2088 1.363 . S
C2090 C2091 1.370 . S
C2090 C2094 1.524 . S
C2091 C2083 1.503 . S
C2091 C2090 1.370 . S
C2091 C2092 1.403 . S
C2092 C2091 1.403 . S
C2092 C2093 1.404 . S
C2092 C2095 1.539 . S
C2093 C2089 1.408 . S
C2093 C2092 1.404 . S
C2093 H2105 0.930 . S
C2094 C2090 1.524 . S
C2094 H2106 0.956 . S
C2094 H2107 0.961 . S
C2094 H2108 0.961 . S
C2095 C2092 1.539 . S
C2095 H2109 0.958 . S
C2095 H2110 0.961 . S
C2095 H2111 0.960 . S
H2096 C2080 0.931 . S
H2097 C2085 0.929 . S
H2098 C2086 0.960 . S
H2099 C2086 0.962 . S
H2100 C2086 0.960 . S
H2101 C2087 0.961 . S
H2102 C2087 0.961 . S
H2103 C2087 0.961 . S
H2104 C2088 0.931 . S
H2105 C2093 0.930 . S
H2106 C2094 0.956 . S
H2107 C2094 0.961 . S
H2108 C2094 0.961 . S
H2109 C2095 0.958 . S
H2110 C2095 0.961 . S
H2111 C2095 0.960 . S
C2112 C2113 1.391 . S
C2112 C2114 1.394 . S
C2112 H2128 0.931 . S
C2113 C2112 1.391 . S
C2113 C2117 1.376 . S
C2114 C2112 1.394 . S
C2114 C2115 1.369 . S
C2114 C2118 1.531 . S
C2115 C2114 1.369 . S
C2115 C2116 1.410 . S
C2115 C2123 1.503 . S
C2116 C2115 1.410 . S
C2116 C2117 1.392 . S
C2116 C2119 1.511 . S
C2117 C2113 1.376 . S
C2117 C2116 1.392 . S
C2117 H2129 0.929 . S
C2118 C2114 1.531 . S
C2118 H2130 0.960 . S
C2118 H2131 0.962 . S
C2118 H2132 0.960 . S
C2119 C2116 1.511 . S
C2119 H2133 0.961 . S
C2119 H2134 0.961 . S
C2119 H2135 0.961 . S
C2120 C2121 1.370 . S
C2120 C2122 1.363 . S
C2120 H2136 0.931 . S
C2121 C2120 1.370 . S
C2121 C2125 1.408 . S
C2122 C2120 1.363 . S
C2122 C2123 1.370 . S
C2122 C2126 1.524 . S
C2123 C2115 1.503 . S
C2123 C2122 1.370 . S
C2123 C2124 1.403 . S
C2124 C2123 1.403 . S
C2124 C2125 1.404 . S
C2124 C2127 1.539 . S
C2125 C2121 1.408 . S
C2125 C2124 1.404 . S
C2125 H2137 0.930 . S
C2126 C2122 1.524 . S
C2126 H2138 0.956 . S
C2126 H2139 0.961 . S
C2126 H2140 0.961 . S
C2127 C2124 1.539 . S
C2127 H2141 0.958 . S
C2127 H2142 0.961 . S
C2127 H2143 0.960 . S
H2128 C2112 0.931 . S
H2129 C2117 0.929 . S
H2130 C2118 0.960 . S
H2131 C2118 0.962 . S
H2132 C2118 0.960 . S
H2133 C2119 0.961 . S
H2134 C2119 0.961 . S
H2135 C2119 0.961 . S
H2136 C2120 0.931 . S
H2137 C2125 0.930 . S
H2138 C2126 0.956 . S
H2139 C2126 0.961 . S
H2140 C2126 0.961 . S
H2141 C2127 0.958 . S
H2142 C2127 0.961 . S
H2143 C2127 0.960 . S
C2144 C2145 1.391 . S
C2144 C2146 1.394 . S
C2144 H2160 0.931 . S
C2145 C2144 1.391 . S
C2145 C2149 1.376 . S
C2146 C2144 1.394 . S
C2146 C2147 1.369 . S
C2146 C2150 1.531 . S
C2147 C2146 1.369 . S
C2147 C2148 1.410 . S
C2147 C2155 1.503 . S
C2148 C2147 1.410 . S
C2148 C2149 1.392 . S
C2148 C2151 1.511 . S
C2149 C2145 1.376 . S
C2149 C2148 1.392 . S
C2149 H2161 0.929 . S
C2150 C2146 1.531 . S
C2150 H2162 0.960 . S
C2150 H2163 0.962 . S
C2150 H2164 0.960 . S
C2151 C2148 1.511 . S
C2151 H2165 0.961 . S
C2151 H2166 0.961 . S
C2151 H2167 0.961 . S
C2152 C2153 1.370 . S
C2152 C2154 1.363 . S
C2152 H2168 0.931 . S
C2153 C2152 1.370 . S
C2153 C2157 1.408 . S
C2154 C2152 1.363 . S
C2154 C2155 1.370 . S
C2154 C2158 1.524 . S
C2155 C2147 1.503 . S
C2155 C2154 1.370 . S
C2155 C2156 1.403 . S
C2156 C2155 1.403 . S
C2156 C2157 1.404 . S
C2156 C2159 1.539 . S
C2157 C2153 1.408 . S
C2157 C2156 1.404 . S
C2157 H2169 0.930 . S
C2158 C2154 1.524 . S
C2158 H2170 0.956 . S
C2158 H2171 0.961 . S
C2158 H2172 0.961 . S
C2159 C2156 1.539 . S
C2159 H2173 0.958 . S
C2159 H2174 0.961 . S
C2159 H2175 0.960 . S
H2160 C2144 0.931 . S
H2161 C2149 0.929 . S
H2162 C2150 0.960 . S
H2163 C2150 0.962 . S
H2164 C2150 0.960 . S
H2165 C2151 0.961 . S
H2166 C2151 0.961 . S
H2167 C2151 0.961 . S
H2168 C2152 0.931 . S
H2169 C2157 0.930 . S
H2170 C2158 0.956 . S
H2171 C2158 0.961 . S
H2172 C2158 0.961 . S
H2173 C2159 0.958 . S
H2174 C2159 0.961 . S
H2175 C2159 0.960 . S
C2176 C2177 1.391 . S
C2176 C2178 1.394 . S
C2176 H2192 0.931 . S
C2177 C2176 1.391 . S
C2177 C2181 1.376 . S
C2178 C2176 1.394 . S
C2178 C2179 1.369 . S
C2178 C2182 1.531 . S
C2179 C2178 1.369 . S
C2179 C2180 1.410 . S
C2179 C2187 1.503 . S
C2180 C2179 1.410 . S
C2180 C2181 1.392 . S
C2180 C2183 1.511 . S
C2181 C2177 1.376 . S
C2181 C2180 1.392 . S
C2181 H2193 0.929 . S
C2182 C2178 1.531 . S
C2182 H2194 0.960 . S
C2182 H2195 0.962 . S
C2182 H2196 0.960 . S
C2183 C2180 1.511 . S
C2183 H2197 0.961 . S
C2183 H2198 0.961 . S
C2183 H2199 0.961 . S
C2184 C2185 1.370 . S
C2184 C2186 1.363 . S
C2184 H2200 0.931 . S
C2185 C2184 1.370 . S
C2185 C2189 1.408 1_554 S
C2186 C2184 1.363 . S
C2186 C2187 1.370 . S
C2186 C2190 1.524 . S
C2187 C2179 1.503 . S
C2187 C2186 1.370 . S
C2187 C2188 1.403 . S
C2188 C2187 1.403 . S
C2188 C2189 1.404 1_554 S
C2188 C2191 1.539 . S
C2189 C2185 1.408 1_556 S
C2189 C2188 1.404 1_556 S
C2189 H2201 0.930 . S
C2190 C2186 1.524 . S
C2190 H2202 0.956 . S
C2190 H2203 0.961 . S
C2190 H2204 0.961 . S
C2191 C2188 1.539 . S
C2191 H2205 0.958 . S
C2191 H2206 0.961 1_554 S
C2191 H2207 0.960 . S
H2192 C2176 0.931 . S
H2193 C2181 0.929 . S
H2194 C2182 0.960 . S
H2195 C2182 0.962 . S
H2196 C2182 0.960 . S
H2197 C2183 0.961 . S
H2198 C2183 0.961 . S
H2199 C2183 0.961 . S
H2200 C2184 0.931 . S
H2201 C2189 0.930 . S
H2202 C2190 0.956 . S
H2203 C2190 0.961 . S
H2204 C2190 0.961 . S
H2205 C2191 0.958 . S
H2206 C2191 0.961 1_556 S
H2207 C2191 0.960 . S
C2208 C2209 1.391 . S
C2208 C2210 1.394 . S
C2208 H2224 0.931 . S
C2209 C2208 1.391 . S
C2209 C2213 1.376 . S
C2210 C2208 1.394 . S
C2210 C2211 1.369 . S
C2210 C2214 1.531 . S
C2211 C2210 1.369 . S
C2211 C2212 1.410 . S
C2211 C2219 1.503 . S
C2212 C2211 1.410 . S
C2212 C2213 1.392 . S
C2212 C2215 1.511 . S
C2213 C2209 1.376 . S
C2213 C2212 1.392 . S
C2213 H2225 0.929 . S
C2214 C2210 1.531 . S
C2214 H2226 0.960 . S
C2214 H2227 0.962 . S
C2214 H2228 0.960 . S
C2215 C2212 1.511 . S
C2215 H2229 0.961 . S
C2215 H2230 0.961 . S
C2215 H2231 0.961 . S
C2216 C2217 1.370 . S
C2216 C2218 1.363 . S
C2216 H2232 0.931 1_556 S
C2217 C2216 1.370 . S
C2217 C2221 1.408 . S
C2218 C2216 1.363 . S
C2218 C2219 1.370 . S
C2218 C2222 1.524 . S
C2219 C2211 1.503 . S
C2219 C2218 1.370 . S
C2219 C2220 1.403 . S
C2220 C2219 1.403 . S
C2220 C2221 1.404 . S
C2220 C2223 1.539 . S
C2221 C2217 1.408 . S
C2221 C2220 1.404 . S
C2221 H2233 0.930 . S
C2222 C2218 1.524 . S
C2222 H2234 0.956 . S
C2222 H2235 0.961 . S
C2222 H2236 0.961 . S
C2223 C2220 1.539 . S
C2223 H2237 0.958 . S
C2223 H2238 0.961 . S
C2223 H2239 0.960 . S
H2224 C2208 0.931 . S
H2225 C2213 0.929 . S
H2226 C2214 0.960 . S
H2227 C2214 0.962 . S
H2228 C2214 0.960 . S
H2229 C2215 0.961 . S
H2230 C2215 0.961 . S
H2231 C2215 0.961 . S
H2232 C2216 0.931 1_554 S
H2233 C2221 0.930 . S
H2234 C2222 0.956 . S
H2235 C2222 0.961 . S
H2236 C2222 0.961 . S
H2237 C2223 0.958 . S
H2238 C2223 0.961 . S
H2239 C2223 0.960 . S
C2240 C2241 1.391 . S
C2240 C2242 1.394 . S
C2240 H2256 0.931 . S
C2241 C2240 1.391 . S
C2241 C2245 1.376 . S
C2242 C2240 1.394 . S
C2242 C2243 1.369 . S
C2242 C2246 1.531 . S
C2243 C2242 1.369 . S
C2243 C2244 1.410 . S
C2243 C2251 1.503 . S
C2244 C2243 1.410 . S
C2244 C2245 1.392 . S
C2244 C2247 1.511 . S
C2245 C2241 1.376 . S
C2245 C2244 1.392 . S
C2245 H2257 0.929 . S
C2246 C2242 1.531 . S
C2246 H2258 0.960 . S
C2246 H2259 0.962 . S
C2246 H2260 0.960 . S
C2247 C2244 1.511 . S
C2247 H2261 0.961 . S
C2247 H2262 0.961 . S
C2247 H2263 0.961 . S
C2248 C2249 1.370 . S
C2248 C2250 1.363 . S
C2248 H2264 0.931 . S
C2249 C2248 1.370 . S
C2249 C2253 1.408 . S
C2250 C2248 1.363 . S
C2250 C2251 1.370 . S
C2250 C2254 1.524 . S
C2251 C2243 1.503 . S
C2251 C2250 1.370 . S
C2251 C2252 1.403 . S
C2252 C2251 1.403 . S
C2252 C2253 1.404 . S
C2252 C2255 1.539 . S
C2253 C2249 1.408 . S
C2253 C2252 1.404 . S
C2253 H2265 0.930 . S
C2254 C2250 1.524 . S
C2254 H2266 0.956 . S
C2254 H2267 0.961 . S
C2254 H2268 0.961 . S
C2255 C2252 1.539 . S
C2255 H2269 0.958 . S
C2255 H2270 0.961 . S
C2255 H2271 0.960 . S
H2256 C2240 0.931 . S
H2257 C2245 0.929 . S
H2258 C2246 0.960 . S
H2259 C2246 0.962 . S
H2260 C2246 0.960 . S
H2261 C2247 0.961 . S
H2262 C2247 0.961 . S
H2263 C2247 0.961 . S
H2264 C2248 0.931 . S
H2265 C2253 0.930 . S
H2266 C2254 0.956 . S
H2267 C2254 0.961 . S
H2268 C2254 0.961 . S
H2269 C2255 0.958 . S
H2270 C2255 0.961 . S
H2271 C2255 0.960 . S
C2272 C2273 1.391 . S
C2272 C2274 1.394 . S
C2272 H2288 0.931 . S
C2273 C2272 1.391 . S
C2273 C2277 1.376 . S
C2274 C2272 1.394 . S
C2274 C2275 1.369 . S
C2274 C2278 1.531 . S
C2275 C2274 1.369 . S
C2275 C2276 1.410 . S
C2275 C2283 1.503 . S
C2276 C2275 1.410 . S
C2276 C2277 1.392 . S
C2276 C2279 1.511 . S
C2277 C2273 1.376 . S
C2277 C2276 1.392 . S
C2277 H2289 0.929 . S
C2278 C2274 1.531 . S
C2278 H2290 0.960 . S
C2278 H2291 0.962 . S
C2278 H2292 0.960 . S
C2279 C2276 1.511 . S
C2279 H2293 0.961 . S
C2279 H2294 0.961 . S
C2279 H2295 0.961 . S
C2280 C2281 1.370 . S
C2280 C2282 1.363 . S
C2280 H2296 0.931 . S
C2281 C2280 1.370 . S
C2281 C2285 1.408 1_554 S
C2282 C2280 1.363 . S
C2282 C2283 1.370 . S
C2282 C2286 1.524 . S
C2283 C2275 1.503 . S
C2283 C2282 1.370 . S
C2283 C2284 1.403 . S
C2284 C2283 1.403 . S
C2284 C2285 1.404 1_554 S
C2284 C2287 1.539 . S
C2285 C2281 1.408 1_556 S
C2285 C2284 1.404 1_556 S
C2285 H2297 0.930 . S
C2286 C2282 1.524 . S
C2286 H2298 0.956 . S
C2286 H2299 0.961 . S
C2286 H2300 0.961 . S
C2287 C2284 1.539 . S
C2287 H2301 0.958 . S
C2287 H2302 0.961 1_554 S
C2287 H2303 0.960 . S
H2288 C2272 0.931 . S
H2289 C2277 0.929 . S
H2290 C2278 0.960 . S
H2291 C2278 0.962 . S
H2292 C2278 0.960 . S
H2293 C2279 0.961 . S
H2294 C2279 0.961 . S
H2295 C2279 0.961 . S
H2296 C2280 0.931 . S
H2297 C2285 0.930 . S
H2298 C2286 0.956 . S
H2299 C2286 0.961 . S
H2300 C2286 0.961 . S
H2301 C2287 0.958 . S
H2302 C2287 0.961 1_556 S
H2303 C2287 0.960 . S
C2304 C2305 1.391 . S
C2304 C2306 1.394 . S
C2304 H2320 0.931 . S
C2305 C2304 1.391 . S
C2305 C2309 1.376 . S
C2306 C2304 1.394 . S
C2306 C2307 1.369 . S
C2306 C2310 1.531 . S
C2307 C2306 1.369 . S
C2307 C2308 1.410 . S
C2307 C2315 1.503 . S
C2308 C2307 1.410 . S
C2308 C2309 1.392 . S
C2308 C2311 1.511 . S
C2309 C2305 1.376 . S
C2309 C2308 1.392 . S
C2309 H2321 0.929 . S
C2310 C2306 1.531 . S
C2310 H2322 0.960 . S
C2310 H2323 0.962 . S
C2310 H2324 0.960 . S
C2311 C2308 1.511 . S
C2311 H2325 0.961 . S
C2311 H2326 0.961 . S
C2311 H2327 0.961 . S
C2312 C2313 1.370 . S
C2312 C2314 1.363 . S
C2312 H2328 0.931 . S
C2313 C2312 1.370 . S
C2313 C2317 1.408 . S
C2314 C2312 1.363 . S
C2314 C2315 1.370 . S
C2314 C2318 1.524 . S
C2315 C2307 1.503 . S
C2315 C2314 1.370 . S
C2315 C2316 1.403 . S
C2316 C2315 1.403 . S
C2316 C2317 1.404 . S
C2316 C2319 1.539 . S
C2317 C2313 1.408 . S
C2317 C2316 1.404 . S
C2317 H2329 0.930 . S
C2318 C2314 1.524 . S
C2318 H2330 0.956 . S
C2318 H2331 0.961 . S
C2318 H2332 0.961 . S
C2319 C2316 1.539 . S
C2319 H2333 0.958 . S
C2319 H2334 0.961 . S
C2319 H2335 0.960 . S
H2320 C2304 0.931 . S
H2321 C2309 0.929 . S
H2322 C2310 0.960 . S
H2323 C2310 0.962 . S
H2324 C2310 0.960 . S
H2325 C2311 0.961 . S
H2326 C2311 0.961 . S
H2327 C2311 0.961 . S
H2328 C2312 0.931 . S
H2329 C2317 0.930 . S
H2330 C2318 0.956 . S
H2331 C2318 0.961 . S
H2332 C2318 0.961 . S
H2333 C2319 0.958 . S
H2334 C2319 0.961 . S
H2335 C2319 0.960 . S
C2336 C2337 1.391 . S
C2336 C2338 1.394 . S
C2336 H2352 0.931 . S
C2337 C2336 1.391 . S
C2337 C2341 1.376 . S
C2338 C2336 1.394 . S
C2338 C2339 1.369 . S
C2338 C2342 1.531 . S
C2339 C2338 1.369 . S
C2339 C2340 1.410 . S
C2339 C2347 1.503 . S
C2340 C2339 1.410 . S
C2340 C2341 1.392 . S
C2340 C2343 1.511 . S
C2341 C2337 1.376 . S
C2341 C2340 1.392 . S
C2341 H2353 0.929 . S
C2342 C2338 1.531 . S
C2342 H2354 0.960 . S
C2342 H2355 0.962 . S
C2342 H2356 0.960 . S
C2343 C2340 1.511 . S
C2343 H2357 0.961 . S
C2343 H2358 0.961 . S
C2343 H2359 0.961 . S
C2344 C2345 1.370 . S
C2344 C2346 1.363 . S
C2344 H2360 0.931 . S
C2345 C2344 1.370 . S
C2345 C2349 1.408 . S
C2346 C2344 1.363 . S
C2346 C2347 1.370 . S
C2346 C2350 1.524 . S
C2347 C2339 1.503 . S
C2347 C2346 1.370 . S
C2347 C2348 1.403 . S
C2348 C2347 1.403 . S
C2348 C2349 1.404 . S
C2348 C2351 1.539 . S
C2349 C2345 1.408 . S
C2349 C2348 1.404 . S
C2349 H2361 0.930 . S
C2350 C2346 1.524 . S
C2350 H2362 0.956 . S
C2350 H2363 0.961 . S
C2350 H2364 0.961 . S
C2351 C2348 1.539 . S
C2351 H2365 0.958 . S
C2351 H2366 0.961 . S
C2351 H2367 0.960 . S
H2352 C2336 0.931 . S
H2353 C2341 0.929 . S
H2354 C2342 0.960 . S
H2355 C2342 0.962 . S
H2356 C2342 0.960 . S
H2357 C2343 0.961 . S
H2358 C2343 0.961 . S
H2359 C2343 0.961 . S
H2360 C2344 0.931 . S
H2361 C2349 0.930 . S
H2362 C2350 0.956 . S
H2363 C2350 0.961 . S
H2364 C2350 0.961 . S
H2365 C2351 0.958 . S
H2366 C2351 0.961 . S
H2367 C2351 0.960 . S
C2368 C2369 1.391 . S
C2368 C2370 1.394 . S
C2368 H2384 0.931 . S
C2369 C2368 1.391 . S
C2369 C2373 1.376 . S
C2370 C2368 1.394 . S
C2370 C2371 1.369 . S
C2370 C2374 1.531 . S
C2371 C2370 1.369 . S
C2371 C2372 1.410 . S
C2371 C2379 1.503 . S
C2372 C2371 1.410 . S
C2372 C2373 1.392 . S
C2372 C2375 1.511 . S
C2373 C2369 1.376 . S
C2373 C2372 1.392 . S
C2373 H2385 0.929 . S
C2374 C2370 1.531 . S
C2374 H2386 0.960 . S
C2374 H2387 0.962 . S
C2374 H2388 0.960 . S
C2375 C2372 1.511 . S
C2375 H2389 0.961 . S
C2375 H2390 0.961 . S
C2375 H2391 0.961 . S
C2376 C2377 1.370 . S
C2376 C2378 1.363 . S
C2376 H2392 0.931 . S
C2377 C2376 1.370 . S
C2377 C2381 1.408 1_554 S
C2378 C2376 1.363 . S
C2378 C2379 1.370 . S
C2378 C2382 1.524 . S
C2379 C2371 1.503 . S
C2379 C2378 1.370 . S
C2379 C2380 1.403 . S
C2380 C2379 1.403 . S
C2380 C2381 1.404 1_554 S
C2380 C2383 1.539 . S
C2381 C2377 1.408 1_556 S
C2381 C2380 1.404 1_556 S
C2381 H2393 0.930 . S
C2382 C2378 1.524 . S
C2382 H2394 0.956 . S
C2382 H2395 0.961 . S
C2382 H2396 0.961 . S
C2383 C2380 1.539 . S
C2383 H2397 0.958 . S
C2383 H2398 0.962 . S
C2383 H2399 0.960 . S
H2384 C2368 0.931 . S
H2385 C2373 0.929 . S
H2386 C2374 0.960 . S
H2387 C2374 0.962 . S
H2388 C2374 0.960 . S
H2389 C2375 0.961 . S
H2390 C2375 0.961 . S
H2391 C2375 0.961 . S
H2392 C2376 0.931 . S
H2393 C2381 0.930 . S
H2394 C2382 0.956 . S
H2395 C2382 0.961 . S
H2396 C2382 0.961 . S
H2397 C2383 0.958 . S
H2398 C2383 0.962 . S
H2399 C2383 0.960 . S
C2400 C2401 1.391 . S
C2400 C2402 1.394 . S
C2400 H2416 0.931 . S
C2401 C2400 1.391 . S
C2401 C2405 1.376 . S
C2402 C2400 1.394 . S
C2402 C2403 1.369 . S
C2402 C2406 1.531 . S
C2403 C2402 1.369 . S
C2403 C2404 1.410 . S
C2403 C2411 1.503 . S
C2404 C2403 1.410 . S
C2404 C2405 1.392 . S
C2404 C2407 1.511 . S
C2405 C2401 1.376 . S
C2405 C2404 1.392 . S
C2405 H2417 0.929 1_556 S
C2406 C2402 1.531 . S
C2406 H2418 0.960 . S
C2406 H2419 0.962 . S
C2406 H2420 0.960 . S
C2407 C2404 1.511 . S
C2407 H2421 0.961 . S
C2407 H2422 0.961 . S
C2407 H2423 0.961 . S
C2408 C2409 1.370 . S
C2408 C2410 1.363 . S
C2408 H2424 0.931 . S
C2409 C2408 1.370 . S
C2409 C2413 1.408 . S
C2410 C2408 1.363 . S
C2410 C2411 1.370 . S
C2410 C2414 1.524 . S
C2411 C2403 1.503 . S
C2411 C2410 1.370 . S
C2411 C2412 1.403 . S
C2412 C2411 1.403 . S
C2412 C2413 1.404 . S
C2412 C2415 1.539 . S
C2413 C2409 1.408 . S
C2413 C2412 1.404 . S
C2413 H2425 0.930 . S
C2414 C2410 1.524 . S
C2414 H2426 0.956 . S
C2414 H2427 0.961 . S
C2414 H2428 0.961 . S
C2415 C2412 1.539 . S
C2415 H2429 0.958 . S
C2415 H2430 0.961 . S
C2415 H2431 0.960 . S
H2416 C2400 0.931 . S
H2417 C2405 0.929 1_554 S
H2418 C2406 0.960 . S
H2419 C2406 0.962 . S
H2420 C2406 0.960 . S
H2421 C2407 0.961 . S
H2422 C2407 0.961 . S
H2423 C2407 0.961 . S
H2424 C2408 0.931 . S
H2425 C2413 0.930 . S
H2426 C2414 0.956 . S
H2427 C2414 0.961 . S
H2428 C2414 0.961 . S
H2429 C2415 0.958 . S
H2430 C2415 0.961 . S
H2431 C2415 0.960 . S
C2432 C2433 1.391 . S
C2432 C2434 1.394 . S
C2432 H2448 0.931 . S
C2433 C2432 1.391 . S
C2433 C2437 1.376 . S
C2434 C2432 1.394 . S
C2434 C2435 1.369 . S
C2434 C2438 1.531 . S
C2435 C2434 1.369 . S
C2435 C2436 1.410 . S
C2435 C2443 1.503 . S
C2436 C2435 1.410 . S
C2436 C2437 1.392 . S
C2436 C2439 1.511 . S
C2437 C2433 1.376 . S
C2437 C2436 1.392 . S
C2437 H2449 0.929 . S
C2438 C2434 1.531 . S
C2438 H2450 0.960 . S
C2438 H2451 0.962 . S
C2438 H2452 0.960 . S
C2439 C2436 1.511 . S
C2439 H2453 0.961 . S
C2439 H2454 0.961 . S
C2439 H2455 0.961 . S
C2440 C2441 1.370 . S
C2440 C2442 1.363 . S
C2440 H2456 0.931 . S
C2441 C2440 1.370 . S
C2441 C2445 1.408 . S
C2442 C2440 1.363 . S
C2442 C2443 1.370 . S
C2442 C2446 1.524 . S
C2443 C2435 1.503 . S
C2443 C2442 1.370 . S
C2443 C2444 1.403 . S
C2444 C2443 1.403 . S
C2444 C2445 1.404 . S
C2444 C2447 1.539 . S
C2445 C2441 1.408 . S
C2445 C2444 1.404 . S
C2445 H2457 0.930 . S
C2446 C2442 1.524 . S
C2446 H2458 0.956 . S
C2446 H2459 0.961 . S
C2446 H2460 0.961 . S
C2447 C2444 1.539 . S
C2447 H2461 0.958 . S
C2447 H2462 0.961 . S
C2447 H2463 0.960 . S
H2448 C2432 0.931 . S
H2449 C2437 0.929 . S
H2450 C2438 0.960 . S
H2451 C2438 0.962 . S
H2452 C2438 0.960 . S
H2453 C2439 0.961 . S
H2454 C2439 0.961 . S
H2455 C2439 0.961 . S
H2456 C2440 0.931 . S
H2457 C2445 0.930 . S
H2458 C2446 0.956 . S
H2459 C2446 0.961 . S
H2460 C2446 0.961 . S
H2461 C2447 0.958 . S
H2462 C2447 0.961 . S
H2463 C2447 0.960 . S
C2464 C2465 1.391 . S
C2464 C2466 1.394 . S
C2464 H2480 0.931 . S
C2465 C2464 1.391 . S
C2465 C2469 1.376 . S
C2466 C2464 1.394 . S
C2466 C2467 1.369 . S
C2466 C2470 1.531 . S
C2467 C2466 1.369 . S
C2467 C2468 1.410 . S
C2467 C2475 1.503 . S
C2468 C2467 1.410 . S
C2468 C2469 1.392 . S
C2468 C2471 1.511 . S
C2469 C2465 1.376 . S
C2469 C2468 1.392 . S
C2469 H2481 0.929 . S
C2470 C2466 1.531 . S
C2470 H2482 0.960 . S
C2470 H2483 0.962 . S
C2470 H2484 0.960 . S
C2471 C2468 1.511 . S
C2471 H2485 0.961 . S
C2471 H2486 0.961 . S
C2471 H2487 0.961 . S
C2472 C2473 1.370 . S
C2472 C2474 1.363 . S
C2472 H2488 0.931 . S
C2473 C2472 1.370 . S
C2473 C2477 1.408 . S
C2474 C2472 1.363 . S
C2474 C2475 1.370 . S
C2474 C2478 1.524 . S
C2475 C2467 1.503 . S
C2475 C2474 1.370 . S
C2475 C2476 1.403 . S
C2476 C2475 1.403 . S
C2476 C2477 1.404 . S
C2476 C2479 1.539 . S
C2477 C2473 1.408 . S
C2477 C2476 1.404 . S
C2477 H2489 0.930 . S
C2478 C2474 1.524 . S
C2478 H2490 0.956 . S
C2478 H2491 0.961 . S
C2478 H2492 0.961 . S
C2479 C2476 1.539 . S
C2479 H2493 0.958 . S
C2479 H2494 0.961 . S
C2479 H2495 0.960 . S
H2480 C2464 0.931 . S
H2481 C2469 0.929 . S
H2482 C2470 0.960 . S
H2483 C2470 0.962 . S
H2484 C2470 0.960 . S
H2485 C2471 0.961 . S
H2486 C2471 0.961 . S
H2487 C2471 0.961 . S
H2488 C2472 0.931 . S
H2489 C2477 0.930 . S
H2490 C2478 0.956 . S
H2491 C2478 0.961 . S
H2492 C2478 0.961 . S
H2493 C2479 0.958 . S
H2494 C2479 0.961 . S
H2495 C2479 0.960 . S
C449 C89 1.477 . S
C457 C5 1.487 . S
C481 C19 1.479 . S
C489 C103 1.489 . S
C513 C61 1.479 . S
C521 C33 1.489 . S
C545 C47 1.480 . S
C553 C75 1.489 . S
C577 C117 1.484 . S
C585 C201 1.490 . S
C609 C215 1.489 . S
C617 C131 1.486 . S
C641 C145 1.477 . S
C649 C173 1.486 . S
C673 C187 1.478 . S
C681 C159 1.489 . S
C705 C229 1.477 . S
C713 C313 1.486 . S
C737 C243 1.481 . S
C745 C327 1.485 . S
C769 C285 1.480 . S
C777 C257 1.485 . S
C801 C299 1.485 . S
C809 C271 1.484 . S
C833 C341 1.480 . S
C841 C425 1.489 . S
C865 C355 1.483 . S
C873 C439 1.490 . S
C897 C397 1.481 . S
C905 C369 1.484 . S
C929 C383 1.489 . S
C937 C411 1.486 . S
C961 C11 1.468 1_556 S
C969 C109 1.476 . S
C993 C67 1.465 1_554 S
C1001 C25 1.475 . S
C1025 C81 1.458 . S
C1033 C39 1.473 . S
C1057 C53 1.472 . S
C1065 C95 1.476 . S
C1089 C123 1.479 1_554 S
C1097 C221 1.474 . S
C1121 C179 1.477 1_556 S
C1129 C137 1.476 . S
C1153 C193 1.477 . S
C1161 C151 1.471 . S
C1185 C207 1.459 . S
C1193 C165 1.467 . S
C1217 C235 1.475 . S
C1225 C333 1.475 . S
C1249 C249 1.478 . S
C1257 C291 1.474 . S
C1281 C305 1.475 . S
C1289 C263 1.469 1_556 S
C1313 C277 1.475 . S
C1321 C319 1.475 1_554 S
C1345 C347 1.470 . S
C1353 C445 1.476 . S
C1377 C403 1.478 . S
C1385 C361 1.472 . S
C1409 C375 1.462 1_554 S
C1417 C417 1.467 . S
C1441 C389 1.457 . S
C1449 C431 1.470 1_556 S
C1473 C420 1.491 . S
C1481 C0 1.486 . S
C1505 C210 1.457 . S
C1513 C14 1.473 . S
C1537 C28 1.457 . S
C1545 C392 1.473 . S
C1569 C42 1.490 . S
C1577 C182 1.485 . S
C1601 C56 1.460 . S
C1609 C364 1.475 . S
C1633 C70 1.460 . S
C1641 C154 1.475 . S
C1665 C84 1.472 . S
C1673 C336 1.480 . S
C1697 C126 1.495 . S
C1705 C98 1.489 . S
C1729 C308 1.462 . S
C1737 C112 1.474 . S
C1761 C140 1.458 . S
C1769 C280 1.474 . S
C1793 C252 1.459 . S
C1801 C168 1.474 . S
C1825 C224 1.475 . S
C1833 C196 1.481 . S
C1857 C238 1.457 . S
C1865 C434 1.473 . S
C1889 C266 1.496 . S
C1897 C406 1.488 . S
C1921 C294 1.460 . S
C1929 C378 1.474 . S
C1953 C350 1.488 . S
C1961 C322 1.486 . S
C1985 C9 1.476 . S
C1993 C107 1.480 . S
C2017 C23 1.478 . S
C2025 C65 1.481 . S
C2049 C79 1.478 1_556 S
C2057 C37 1.480 . S
C2081 C51 1.478 1_554 S
C2089 C93 1.480 . S
C2113 C219 1.477 . S
C2121 C121 1.481 . S
C2145 C177 1.475 . S
C2153 C135 1.480 . S
C2177 C149 1.478 . S
C2185 C191 1.480 1_554 S
C2209 C205 1.476 . S
C2217 C163 1.481 1_556 S
C2241 C331 1.478 1_556 S
C2249 C233 1.480 . S
C2273 C289 1.477 . S
C2281 C247 1.480 1_554 S
C2305 C303 1.478 . S
C2313 C261 1.480 . S
C2337 C317 1.475 . S
C2345 C275 1.480 . S
C2369 C345 1.477 . S
C2377 C443 1.480 1_554 S
C2401 C359 1.475 1_556 S
C2409 C401 1.480 . S
C2433 C373 1.478 . S
C2441 C415 1.480 . S
C2465 C429 1.475 . S
C2473 C387 1.480 . S
