# Generated by pormake.
# Topology ghw, (5)-cn, num edge types: 1
# Building blocks:
#     Node 0, Type 0, BuildingBlock: BEQFEK_clean_sbu_0, # of connection points: 5
#     Node 1, Type 0, BuildingBlock: BEQFEK_clean_sbu_0, # of connection points: 5
#     Node 2, Type 0, BuildingBlock: BEQFEK_clean_sbu_0, # of connection points: 5
#     Node 3, Type 0, BuildingBlock: BEQFEK_clean_sbu_0, # of connection points: 5
#     Node 4, Type 0, BuildingBlock: BEQFEK_clean_sbu_0, # of connection points: 5
#     Node 5, Type 0, BuildingBlock: BEQFEK_clean_sbu_0, # of connection points: 5
#     Node 6, Type 0, BuildingBlock: BEQFEK_clean_sbu_0, # of connection points: 5
#     Node 7, Type 0, BuildingBlock: BEQFEK_clean_sbu_0, # of connection points: 5
#     Node 8, Type 0, BuildingBlock: BEQFEK_clean_sbu_0, # of connection points: 5
#     Node 9, Type 0, BuildingBlock: BEQFEK_clean_sbu_0, # of connection points: 5
#     Node 10, Type 0, BuildingBlock: BEQFEK_clean_sbu_0, # of connection points: 5
#     Node 11, Type 0, BuildingBlock: BEQFEK_clean_sbu_0, # of connection points: 5
#     Node 12, Type 0, BuildingBlock: BEQFEK_clean_sbu_0, # of connection points: 5
#     Node 13, Type 0, BuildingBlock: BEQFEK_clean_sbu_0, # of connection points: 5
#     Node 14, Type 0, BuildingBlock: BEQFEK_clean_sbu_0, # of connection points: 5
#     Node 15, Type 0, BuildingBlock: BEQFEK_clean_sbu_0, # of connection points: 5
#     Edge 16, Type (0, 0), BuildingBlock: OJICUG_clean_linker_0, # of connection points: 2
#     Edge 17, Type (0, 0), BuildingBlock: OJICUG_clean_linker_0, # of connection points: 2
#     Edge 18, Type (0, 0), BuildingBlock: OJICUG_clean_linker_0, # of connection points: 2
#     Edge 19, Type (0, 0), BuildingBlock: OJICUG_clean_linker_0, # of connection points: 2
#     Edge 20, Type (0, 0), BuildingBlock: OJICUG_clean_linker_0, # of connection points: 2
#     Edge 21, Type (0, 0), BuildingBlock: OJICUG_clean_linker_0, # of connection points: 2
#     Edge 22, Type (0, 0), BuildingBlock: OJICUG_clean_linker_0, # of connection points: 2
#     Edge 23, Type (0, 0), BuildingBlock: OJICUG_clean_linker_0, # of connection points: 2
#     Edge 24, Type (0, 0), BuildingBlock: OJICUG_clean_linker_0, # of connection points: 2
#     Edge 25, Type (0, 0), BuildingBlock: OJICUG_clean_linker_0, # of connection points: 2
#     Edge 26, Type (0, 0), BuildingBlock: OJICUG_clean_linker_0, # of connection points: 2
#     Edge 27, Type (0, 0), BuildingBlock: OJICUG_clean_linker_0, # of connection points: 2
#     Edge 28, Type (0, 0), BuildingBlock: OJICUG_clean_linker_0, # of connection points: 2
#     Edge 29, Type (0, 0), BuildingBlock: OJICUG_clean_linker_0, # of connection points: 2
#     Edge 30, Type (0, 0), BuildingBlock: OJICUG_clean_linker_0, # of connection points: 2
#     Edge 31, Type (0, 0), BuildingBlock: OJICUG_clean_linker_0, # of connection points: 2
#     Edge 32, Type (0, 0), BuildingBlock: OJICUG_clean_linker_0, # of connection points: 2
#     Edge 33, Type (0, 0), BuildingBlock: OJICUG_clean_linker_0, # of connection points: 2
#     Edge 34, Type (0, 0), BuildingBlock: OJICUG_clean_linker_0, # of connection points: 2
#     Edge 35, Type (0, 0), BuildingBlock: OJICUG_clean_linker_0, # of connection points: 2
#     Edge 36, Type (0, 0), BuildingBlock: OJICUG_clean_linker_0, # of connection points: 2
#     Edge 37, Type (0, 0), BuildingBlock: OJICUG_clean_linker_0, # of connection points: 2
#     Edge 38, Type (0, 0), BuildingBlock: OJICUG_clean_linker_0, # of connection points: 2
#     Edge 39, Type (0, 0), BuildingBlock: OJICUG_clean_linker_0, # of connection points: 2
#     Edge 40, Type (0, 0), BuildingBlock: OJICUG_clean_linker_0, # of connection points: 2
#     Edge 41, Type (0, 0), BuildingBlock: OJICUG_clean_linker_0, # of connection points: 2
#     Edge 42, Type (0, 0), BuildingBlock: OJICUG_clean_linker_0, # of connection points: 2
#     Edge 43, Type (0, 0), BuildingBlock: OJICUG_clean_linker_0, # of connection points: 2
#     Edge 44, Type (0, 0), BuildingBlock: OJICUG_clean_linker_0, # of connection points: 2
#     Edge 45, Type (0, 0), BuildingBlock: OJICUG_clean_linker_0, # of connection points: 2
#     Edge 46, Type (0, 0), BuildingBlock: OJICUG_clean_linker_0, # of connection points: 2
#     Edge 47, Type (0, 0), BuildingBlock: OJICUG_clean_linker_0, # of connection points: 2
#     Edge 48, Type (0, 0), BuildingBlock: OJICUG_clean_linker_0, # of connection points: 2
#     Edge 49, Type (0, 0), BuildingBlock: OJICUG_clean_linker_0, # of connection points: 2
#     Edge 50, Type (0, 0), BuildingBlock: OJICUG_clean_linker_0, # of connection points: 2
#     Edge 51, Type (0, 0), BuildingBlock: OJICUG_clean_linker_0, # of connection points: 2
#     Edge 52, Type (0, 0), BuildingBlock: OJICUG_clean_linker_0, # of connection points: 2
#     Edge 53, Type (0, 0), BuildingBlock: OJICUG_clean_linker_0, # of connection points: 2
#     Edge 54, Type (0, 0), BuildingBlock: OJICUG_clean_linker_0, # of connection points: 2
#     Edge 55, Type (0, 0), BuildingBlock: OJICUG_clean_linker_0, # of connection points: 2
# Relax obj value: 0.497
# Max RMSD: 0.302
# Mean RMSD: 0.302
data_MOF--net-ghw--node1-BEQFEK_clean_sbu_0--edge1-OJICUG_clean_linker_0
_symmetry_space_group_name_H-M    P1
_symmetry_Int_Tables_number       1
_symmetry_cell_setting            triclinic
loop_
_symmetry_equiv_pos_as_xyz
'x, y, z'
_cell_length_a     27.956383
_cell_length_b     32.477528
_cell_length_c     21.94961
_cell_angle_alpha  116.95672
_cell_angle_beta   89.988365
_cell_angle_gamma 90.021788
loop_
_atom_site_label
_atom_site_type_symbol
_atom_site_fract_x
_atom_site_fract_y
_atom_site_fract_z
_atom_type_partial_charge
Co0 Co 0.1371 0.08701 0.33594 0.0
Co1 Co 0.05522 0.16135 0.38967 0.0
C2 C 0.08732 0.11664 0.24259 0.0
O3 O 0.11784 0.09096 0.25185 0.0
O4 O 0.06128 0.1448 0.29108 0.0
C5 C 0.22687 0.06376 0.29543 0.0
O6 O 0.21494 0.09564 0.27702 0.0
C7 C 0.95749 0.19085 0.38627 0.0
C8 C 0.94874 0.25093 0.48742 0.0
C9 C 0.92497 0.22398 0.42687 0.0
N10 N -0.00105 0.19818 0.42053 0.0
N11 N -0.00621 0.23467 0.48065 0.0
C12 C 0.94795 0.15017 0.31868 0.0
H13 H 0.97307 0.12157 0.30999 0.0
H14 H 0.91053 0.13799 0.31592 0.0
H15 H 0.95308 0.1607 0.27758 0.0
C16 C 0.0753 0.0423 0.39928 0.0
N17 N 0.08493 0.07592 0.38121 0.0
N18 N 0.05039 0.10696 0.40357 0.0
C19 C 0.01739 0.09347 0.43581 0.0
C20 C 0.03207 0.05202 0.43378 0.0
C21 C 0.10929 0.00475 0.39168 0.0
H22 H 0.14109 0.00454 0.36164 0.0
H23 H 0.09109 0.97077 0.36703 0.0
H24 H 0.1209 0.01017 0.44314 0.0
O25 O 0.16528 0.14509 0.39637 0.0
O26 O 0.11158 0.20064 0.43907 0.0
H27 H 0.98094 0.156 0.50066 0.0
H28 H 0.95276 0.10457 0.49618 0.0
C29 C 0.97232 0.11936 0.46675 0.0
H30 H 0.9486 0.11807 0.42547 0.0
H31 H 0.02047 0.2475 0.51789 0.0
O32 O 0.19447 0.04758 0.31934 0.0
C33 C 0.15472 0.18681 0.43366 0.0
Co34 Co 0.1383 0.15924 0.89704 0.0
Co35 Co 0.05812 0.08379 0.84185 0.0
C36 C 0.08771 0.12994 0.98998 0.0
O37 O 0.11819 0.1558 0.98105 0.0
O38 O 0.06234 0.1013 0.94101 0.0
C39 C 0.22705 0.1846 0.93995 0.0
O40 O 0.21556 0.15297 0.95911 0.0
C41 C 0.95935 0.05596 0.83729 0.0
C42 C 0.95518 0.99095 0.74173 0.0
C43 C 0.9279 0.02186 0.7959 0.0
N44 N 0.00314 0.0456 0.80961 0.0
N45 N 0.00078 0.006 0.75322 0.0
C46 C 0.94717 0.09997 0.89918 0.0
H47 H 0.97566 0.12617 0.90996 0.0
H48 H 0.91235 0.11379 0.8924 0.0
H49 H 0.94385 0.09274 0.9438 0.0
C50 C 0.07732 0.20273 0.83132 0.0
N51 N 0.08683 0.16927 0.84976 0.0
N52 N 0.05314 0.1374 0.82556 0.0
C53 C 0.02109 0.14998 0.79098 0.0
C54 C 0.03517 0.19196 0.79431 0.0
C55 C 0.11056 0.2413 0.84113 0.0
H56 H 0.14154 0.24242 0.87303 0.0
H57 H 0.09126 0.27472 0.8647 0.0
H58 H 0.12357 0.23632 0.79046 0.0
O59 O 0.16816 0.10149 0.83816 0.0
O60 O 0.11508 0.04535 0.79519 0.0
H61 H 0.9859 0.0854 0.73126 0.0
H62 H 0.96343 0.13252 0.71731 0.0
C63 C 0.97753 0.12275 0.75612 0.0
H64 H 0.94918 0.12956 0.79478 0.0
H65 H 0.02971 0.99053 0.72079 0.0
O66 O 0.1946 0.19974 0.91475 0.0
C67 C 0.15807 0.05957 0.80137 0.0
Co68 Co 0.83658 0.90881 0.64723 0.0
Co69 Co 0.91711 0.83376 0.59215 0.0
C70 C 0.88734 0.8795 0.74008 0.0
O71 O 0.85674 0.90525 0.73117 0.0
O72 O 0.9128 0.85101 0.69113 0.0
C73 C 0.74777 0.93405 0.69045 0.0
O74 O 0.75912 0.90215 0.7091 0.0
C75 C 0.01605 0.80658 0.58851 0.0
C76 C 0.02091 0.74164 0.49297 0.0
C77 C 0.04783 0.77272 0.54747 0.0
N78 N 0.97241 0.79593 0.56029 0.0
N79 N 0.9752 0.75638 0.5039 0.0
C80 C 0.02773 0.85054 0.65078 0.0
H81 H -0.00073 0.87668 0.66108 0.0
H82 H 0.06272 0.8645 0.64486 0.0
H83 H 0.03043 0.84321 0.69536 0.0
C84 C 0.89705 0.95249 0.58121 0.0
N85 N 0.88795 0.91914 0.60005 0.0
N86 N 0.92197 0.88761 0.57632 0.0
C87 C 0.95399 0.90044 0.54196 0.0
C88 C 0.93941 0.94212 0.54464 0.0
C89 C 0.86302 0.9902 0.58954 0.0
H90 H 0.83186 0.99097 0.62094 0.0
H91 H 0.88148 0.02406 0.61302 0.0
H92 H 0.85038 0.98449 0.53838 0.0
O93 O 0.80694 0.85108 0.58809 0.0
O94 O 0.86014 0.79508 0.545 0.0
H95 H -0.00968 0.83639 0.48333 0.0
H96 H 0.01279 0.88375 0.47001 0.0
C97 C -0.00185 0.87383 0.50837 0.0
H98 H 0.02594 0.88103 0.54788 0.0
H99 H 0.94648 0.74071 0.47113 0.0
O100 O 0.78025 0.94922 0.6653 0.0
C101 C 0.81711 0.80921 0.55111 0.0
Co102 Co 0.83673 0.83757 0.08633 0.0
Co103 Co 0.91775 0.91218 0.14026 0.0
C104 C 0.88771 0.86611 -0.0074 0.0
O105 O 0.85684 0.84083 0.00212 0.0
O106 O 0.91356 0.89447 0.04116 0.0
C107 C 0.74802 0.81186 0.04252 0.0
O108 O 0.75938 0.84373 0.02379 0.0
C109 C 0.01673 0.93948 0.14447 0.0
C110 C 0.02084 0.00528 0.2388 0.0
C111 C 0.04816 0.97384 0.18522 0.0
N112 N 0.9729 0.95018 0.17198 0.0
N113 N 0.97524 0.99022 0.22763 0.0
C114 C 0.02887 0.89515 0.08314 0.0
H115 H 0.00019 0.86914 0.07254 0.0
H116 H 0.06351 0.8813 0.09045 0.0
H117 H 0.03257 0.90195 0.03817 0.0
C118 C 0.89749 0.79375 0.15196 0.0
N119 N 0.88824 0.8272 0.13337 0.0
N120 N 0.92235 0.85867 0.15691 0.0
C121 C 0.95443 0.8458 0.19115 0.0
C122 C 0.9399 0.80411 0.18838 0.0
C123 C 0.86386 0.75557 0.14277 0.0
H124 H 0.83291 0.75453 0.11088 0.0
H125 H 0.88283 0.72197 0.11949 0.0
H126 H 0.85085 0.76098 0.19364 0.0
O127 O 0.80711 0.89554 0.1453 0.0
O128 O 0.86099 0.95105 0.18691 0.0
H129 H -0.00871 0.90984 0.24802 0.0
H130 H 0.01206 0.86341 0.26481 0.0
C131 C -0.00141 0.87235 0.22484 0.0
H132 H 0.02702 0.86388 0.18582 0.0
H133 H 0.94627 0.00607 0.25974 0.0
O134 O 0.78042 0.79702 0.06824 0.0
C135 C 0.81782 0.9374 0.18154 0.0
Co136 Co 0.13874 0.58808 0.83666 0.0
Co137 Co 0.05825 0.66323 0.89158 0.0
C138 C 0.08824 0.61753 0.74366 0.0
O139 O 0.11885 0.59184 0.75271 0.0
O140 O 0.06262 0.64594 0.7925 0.0
C141 C 0.2276 0.56233 0.79334 0.0
O142 O 0.21656 0.59433 0.77475 0.0
C143 C 0.95933 0.69068 0.8957 0.0
C144 C 0.95471 0.75546 -0.00847 0.0
C145 C 0.92764 0.72451 0.93711 0.0
N146 N 0.00305 0.70123 0.92365 0.0
N147 N 0.00041 0.74069 0.98021 0.0
C148 C 0.94746 0.64675 0.83351 0.0
H149 H 0.97595 0.62059 0.82293 0.0
H150 H 0.91255 0.6328 0.83972 0.0
H151 H 0.94451 0.65411 0.78898 0.0
C152 C 0.07758 0.54424 0.90196 0.0
N153 N 0.08706 0.57773 0.88353 0.0
N154 N 0.05321 0.60943 0.90745 0.0
C155 C 0.02105 0.59666 0.94171 0.0
C156 C 0.03525 0.55477 0.93858 0.0
C157 C 0.1111 0.50603 0.89287 0.0
H158 H 0.1421 0.50493 0.86101 0.0
H159 H 0.09206 0.47245 0.86964 0.0
H160 H 0.12405 0.51146 0.94377 0.0
O161 O 0.16855 0.64577 0.89601 0.0
O162 O 0.11525 0.70173 0.93871 0.0
H163 H 0.98532 0.66098 0.00082 0.0
H164 H 0.96301 0.61382 0.01479 0.0
C165 C 0.97723 0.62359 0.97603 0.0
H166 H 0.94906 0.61648 0.93704 0.0
H167 H 0.02921 0.75623 0.01288 0.0
O168 O 0.19495 0.54743 0.81864 0.0
C169 C 0.15829 0.68765 0.93288 0.0
Co170 Co 0.1382 0.66003 0.39751 0.0
Co171 Co 0.05771 0.58479 0.343 0.0
C172 C 0.08804 0.63073 0.49085 0.0
O173 O 0.11859 0.65642 0.48165 0.0
O174 O 0.06239 0.60226 0.44211 0.0
C175 C 0.22721 0.68548 0.43987 0.0
O176 O 0.21613 0.65358 0.45867 0.0
C177 C 0.9587 0.55782 0.33987 0.0
C178 C 0.95383 0.4922 0.24538 0.0
C179 C 0.9269 0.52371 0.29944 0.0
N180 N 0.00235 0.5469 0.31175 0.0
N181 N -0.00045 0.50696 0.25599 0.0
C182 C 0.94705 0.60215 0.40152 0.0
H183 H 0.97576 0.62805 0.41167 0.0
H184 H 0.91231 0.61617 0.39491 0.0
H185 H 0.94381 0.59528 0.44647 0.0
C186 C 0.07679 0.70381 0.33254 0.0
N187 N 0.0864 0.67028 0.35082 0.0
N188 N 0.05262 0.63849 0.32686 0.0
C189 C 0.02042 0.6512 0.29259 0.0
C190 C 0.0345 0.69315 0.29583 0.0
C191 C 0.10997 0.74245 0.34242 0.0
H192 H 0.14119 0.74332 0.37377 0.0
H193 H 0.09073 0.77588 0.36671 0.0
H194 H 0.12256 0.73781 0.29174 0.0
O195 O 0.16782 0.60228 0.33808 0.0
O196 O 0.11461 0.5462 0.29557 0.0
H197 H 0.98436 0.58683 0.23465 0.0
H198 H 0.96274 0.63346 0.21893 0.0
C199 C 0.97656 0.62426 0.25846 0.0
H200 H 0.94819 0.63207 0.29739 0.0
H201 H 0.02828 0.491 0.22341 0.0
O202 O 0.19451 0.70054 0.41492 0.0
C203 C 0.15762 0.56038 0.30127 0.0
Co204 Co 0.83715 0.41041 0.14826 0.0
Co205 Co 0.91733 0.33504 0.09218 0.0
C206 C 0.8873 0.37969 0.24007 0.0
O207 O 0.85676 0.40573 0.23172 0.0
O208 O 0.91289 0.35157 0.19093 0.0
C209 C 0.7481 0.43554 0.19068 0.0
O210 O 0.75921 0.40347 0.2091 0.0
C211 C 0.01597 0.30698 0.08764 0.0
C212 C 0.02024 0.24242 -0.00856 0.0
C213 C 0.04743 0.27299 0.04605 0.0
N214 N 0.97225 0.29687 0.05963 0.0
N215 N 0.97467 0.25754 0.00284 0.0
C216 C 0.02806 0.35066 0.15013 0.0
H217 H -0.00023 0.37704 0.16099 0.0
H218 H 0.06311 0.36447 0.1441 0.0
H219 H 0.03084 0.34301 0.19441 0.0
C220 C 0.89863 0.45477 0.08394 0.0
N221 N 0.88897 0.42104 0.1018 0.0
N222 N 0.92258 0.38913 0.07719 0.0
C223 C 0.95469 0.40192 0.04289 0.0
C224 C 0.94075 0.44408 0.04677 0.0
C225 C 0.86557 0.49361 0.09453 0.0
H226 H 0.83428 0.4942 0.12563 0.0
H227 H 0.88489 0.52698 0.11946 0.0
H228 H 0.85308 0.48949 0.04408 0.0
O229 O 0.80726 0.35294 0.08808 0.0
O230 O 0.86041 0.29691 0.0447 0.0
H231 H -0.01036 0.33741 0.98213 0.0
H232 H 0.0128 0.385 0.96991 0.0
C233 C -0.00178 0.37471 0.00792 0.0
H234 H 0.02632 0.38092 0.0467 0.0
H235 H 0.9458 0.24231 0.97013 0.0
O236 O 0.78085 0.45098 0.16629 0.0
C237 C 0.81743 0.31112 0.05069 0.0
Co238 Co 0.83653 0.33495 0.58411 0.0
Co239 Co 0.91622 0.41075 0.63951 0.0
C240 C 0.88705 0.36381 0.4908 0.0
O241 O 0.85682 0.33762 0.49946 0.0
O242 O 0.91194 0.39285 0.54011 0.0
C243 C 0.74779 0.31022 0.542 0.0
O244 O 0.76014 0.34067 0.52091 0.0
C245 C 0.01474 0.43956 0.6447 0.0
C246 C 0.01813 0.50444 0.7406 0.0
C247 C 0.04577 0.47395 0.68653 0.0
N248 N 0.97083 0.44937 0.67206 0.0
N249 N 0.97272 0.48888 0.72864 0.0
C250 C 0.02745 0.39577 0.58278 0.0
H251 H -0.00077 0.36927 0.57161 0.0
H252 H 0.06239 0.38226 0.58978 0.0
H253 H 0.03077 0.40317 0.53832 0.0
C254 C 0.89825 0.29153 0.64954 0.0
N255 N 0.88808 0.32517 0.63171 0.0
N256 N 0.92138 0.35742 0.65637 0.0
C257 C 0.95362 0.34507 0.69099 0.0
C258 C 0.94022 0.30274 0.68699 0.0
C259 C 0.8666 0.25128 0.63661 0.0
H260 H 0.83295 0.25276 0.61125 0.0
H261 H 0.88578 0.21868 0.60442 0.0
H262 H 0.85824 0.25094 0.68583 0.0
O263 O 0.80648 0.393 0.64252 0.0
O264 O 0.85945 0.44914 0.68604 0.0
H265 H -0.01177 0.40991 0.751 0.0
H266 H 0.0114 0.36286 0.76455 0.0
C267 C -0.00302 0.37265 0.72593 0.0
H268 H 0.02524 0.36621 0.68727 0.0
H269 H 0.94361 0.50394 0.7609 0.0
O270 O 0.77984 0.29509 0.56781 0.0
C271 C 0.81647 0.43494 0.67947 0.0
Co272 Co 0.6394 0.08744 0.83595 0.0
Co273 Co 0.55874 0.16236 0.89047 0.0
C274 C 0.58884 0.11623 0.74235 0.0
O275 O 0.61929 0.09048 0.75154 0.0
O276 O 0.56331 0.14479 0.7912 0.0
C277 C 0.72815 0.06133 0.79251 0.0
O278 O 0.71712 0.09304 0.77332 0.0
C279 C 0.45933 0.18743 0.8944 0.0
C280 C 0.4542 0.25461 0.98629 0.0
C281 C 0.42734 0.22164 0.93375 0.0
N282 N 0.50309 0.19967 0.92155 0.0
N283 N 0.50012 0.24044 0.97577 0.0
C284 C 0.4479 0.14209 0.83449 0.0
H285 H 0.47794 0.1174 0.82344 0.0
H286 H 0.4147 0.12713 0.84393 0.0
H287 H 0.44165 0.14787 0.78903 0.0
C288 C 0.57968 0.04472 0.90396 0.0
N289 N 0.58828 0.07759 0.88396 0.0
N290 N 0.5541 0.10893 0.90721 0.0
C291 C 0.5223 0.09627 0.94202 0.0
C292 C 0.53718 0.05496 0.94037 0.0
C293 C 0.61242 0.00523 0.89082 0.0
H294 H 0.6392 0.0012 0.8516 0.0
H295 H 0.59156 0.97289 0.87492 0.0
H296 H 0.63176 0.0121 0.9386 0.0
O297 O 0.66897 0.14544 0.89433 0.0
O298 O 0.61548 0.20125 0.93748 0.0
H299 H 0.4701 0.11637 0.02306 0.0
H300 H 0.44978 0.11734 0.94607 0.0
C301 C 0.48059 0.12482 0.98123 0.0
H302 H 0.48935 0.16207 0.00342 0.0
H303 H 0.52896 0.25753 0.00733 0.0
O304 O 0.69558 0.04686 0.81849 0.0
C305 C 0.65861 0.18731 0.93117 0.0
Co306 Co 0.64035 0.16191 0.39886 0.0
Co307 Co 0.55979 0.08689 0.34291 0.0
C308 C 0.59022 0.13106 0.49056 0.0
O309 O 0.62135 0.15645 0.48173 0.0
O310 O 0.56394 0.10358 0.44178 0.0
C311 C 0.72308 0.20273 0.37437 0.0
O312 O 0.71021 0.17981 0.31003 0.0
C313 C 0.4602 0.06201 0.33872 0.0
C314 C 0.45463 0.99484 0.24695 0.0
C315 C 0.42796 0.02796 0.2996 0.0
N316 N 0.50393 0.04957 0.31138 0.0
N317 N 0.50066 0.00882 0.25717 0.0
C318 C 0.44906 0.1073 0.3989 0.0
H319 H 0.47934 0.13179 0.41027 0.0
H320 H 0.41611 0.12263 0.38955 0.0
H321 H 0.44246 0.10134 0.44413 0.0
C322 C 0.57895 0.20628 0.33445 0.0
N323 N 0.58844 0.17255 0.35239 0.0
N324 N 0.55479 0.14072 0.3277 0.0
C325 C 0.52285 0.15355 0.29333 0.0
C326 C 0.53681 0.1957 0.29722 0.0
C327 C 0.61 0.24745 0.3513 0.0
H328 H 0.63081 0.24228 0.30536 0.0
H329 H 0.63539 0.25201 0.39228 0.0
H330 H 0.58776 0.27893 0.36683 0.0
O331 O 0.67131 0.10487 0.33958 0.0
O332 O 0.61732 0.04922 0.29607 0.0
H333 H 0.47209 0.13318 0.21053 0.0
H334 H 0.45058 0.13117 0.28622 0.0
C335 C 0.48199 0.12445 0.25228 0.0
H336 H 0.49136 0.08733 0.22977 0.0
H337 H 0.52938 0.99155 0.22548 0.0
O338 O 0.69466 0.20476 0.42091 0.0
C339 C 0.66054 0.06309 0.30213 0.0
Co340 Co 0.33693 0.91088 0.14951 0.0
Co341 Co 0.41733 0.83574 0.09394 0.0
C342 C 0.38756 0.88115 0.24208 0.0
O343 O 0.35701 0.90703 0.23335 0.0
O344 O 0.41304 0.85275 0.19301 0.0
C345 C 0.24822 0.93674 0.19261 0.0
O346 O 0.25935 0.90498 0.21166 0.0
C347 C 0.51648 0.80895 0.08831 0.0
C348 C 0.52031 0.74249 -0.00504 0.0
C349 C 0.54782 0.77448 0.04771 0.0
N350 N 0.47246 0.79777 0.06166 0.0
N351 N 0.47466 0.7574 0.00656 0.0
C352 C 0.52884 0.85373 0.14869 0.0
H353 H 0.49923 0.87899 0.1608 0.0
H354 H 0.56224 0.86834 0.13908 0.0
H355 H 0.53518 0.84727 0.19353 0.0
C356 C 0.39727 0.95458 0.08364 0.0
N357 N 0.3883 0.9211 0.10224 0.0
N358 N 0.42243 0.88972 0.07856 0.0
C359 C 0.45456 0.90297 0.04486 0.0
C360 C 0.4399 0.94464 0.04757 0.0
C361 C 0.36495 0.99459 0.09827 0.0
H362 H 0.33841 0.99842 0.1377 0.0
H363 H 0.38616 0.02678 0.1147 0.0
H364 H 0.34533 0.98851 0.05102 0.0
O365 O 0.30695 0.85325 0.09029 0.0
O366 O 0.36028 0.79737 0.04675 0.0
H367 H 0.50658 0.88301 0.96368 0.0
H368 H 0.52744 0.88266 0.04088 0.0
C369 C 0.49649 0.87476 0.00583 0.0
H370 H 0.48809 0.83751 0.98418 0.0
H371 H 0.4455 0.74115 0.97512 0.0
O372 O 0.28086 0.95164 0.16732 0.0
C373 C 0.31721 0.81143 0.05303 0.0
Co374 Co 0.33694 0.83664 0.58637 0.0
Co375 Co 0.41715 0.91205 0.64213 0.0
C376 C 0.38743 0.86655 0.49392 0.0
O377 O 0.35688 0.84063 0.50259 0.0
O378 O 0.41288 0.89496 0.54303 0.0
C379 C 0.24794 0.81135 0.54357 0.0
O380 O 0.25916 0.84332 0.52499 0.0
C381 C 0.51591 0.9394 0.64605 0.0
C382 C 0.52096 0.00378 0.74242 0.0
C383 C 0.54777 0.97301 0.6875 0.0
N384 N 0.47233 0.94989 0.67445 0.0
N385 N 0.47521 0.98912 0.73135 0.0
C386 C 0.52746 0.89568 0.58331 0.0
H387 H 0.49923 0.86933 0.57322 0.0
H388 H 0.5627 0.88183 0.58845 0.0
H389 H 0.52947 0.90328 0.53893 0.0
C390 C 0.39816 0.79268 0.6514 0.0
N391 N 0.38855 0.82629 0.63329 0.0
N392 N 0.42207 0.85829 0.65797 0.0
C393 C 0.45403 0.84575 0.69271 0.0
C394 C 0.44016 0.80356 0.68884 0.0
C395 C 0.36514 0.7538 0.64083 0.0
H396 H 0.33392 0.75307 0.60955 0.0
H397 H 0.38452 0.72046 0.61614 0.0
H398 H 0.35254 0.758 0.69128 0.0
O399 O 0.30721 0.89434 0.64591 0.0
O400 O 0.36031 0.95047 0.68924 0.0
H401 H 0.48819 0.91043 0.75584 0.0
H402 H 0.51272 0.86199 0.76467 0.0
C403 C 0.49733 0.87325 0.72817 0.0
H404 H 0.52501 0.86838 0.6894 0.0
H405 H 0.44655 0.00457 0.76435 0.0
O406 O 0.28056 0.79614 0.56847 0.0
C407 C 0.31732 0.93622 0.68307 0.0
Co408 Co 0.6376 0.58657 0.33581 0.0
Co409 Co 0.55759 0.6623 0.39048 0.0
C410 C 0.58781 0.6161 0.24252 0.0
O411 O 0.61817 0.59026 0.25168 0.0
O412 O 0.56229 0.64472 0.29132 0.0
C413 C 0.72665 0.56133 0.294 0.0
O414 O 0.71543 0.59309 0.27501 0.0
C415 C 0.45881 0.68992 0.394 0.0
C416 C 0.45431 0.7552 0.48907 0.0
C417 C 0.4272 0.72404 0.4349 0.0
N418 N 0.50252 0.70051 0.42199 0.0
N419 N 0.49995 0.74026 0.47808 0.0
C420 C 0.44688 0.64575 0.33222 0.0
H421 H 0.47538 0.61964 0.32191 0.0
H422 H 0.412 0.63191 0.33878 0.0
H423 H 0.44382 0.65277 0.28739 0.0
C424 C 0.57529 0.54283 0.4 0.0
N425 N 0.58551 0.57653 0.38231 0.0
N426 N 0.5521 0.60865 0.40666 0.0
C427 C 0.51966 0.59609 0.44082 0.0
C428 C 0.53309 0.55382 0.43695 0.0
C429 C 0.60768 0.50343 0.38882 0.0
H430 H 0.63912 0.50263 0.35782 0.0
H431 H 0.58785 0.47036 0.36348 0.0
H432 H 0.61996 0.50701 0.43908 0.0
O433 O 0.66742 0.64427 0.3953 0.0
O434 O 0.61457 0.70062 0.43774 0.0
H435 H 0.48444 0.66081 0.49958 0.0
H436 H 0.46218 0.61417 0.51483 0.0
C437 C 0.47614 0.62346 0.47545 0.0
H438 H 0.4477 0.61615 0.43676 0.0
H439 H 0.52876 0.75592 0.51067 0.0
O440 O 0.69394 0.54607 0.31873 0.0
C441 C 0.65747 0.68623 0.43204 0.0
Co442 Co 0.63884 0.65869 0.89679 0.0
Co443 Co 0.55818 0.58363 0.8417 0.0
C444 C 0.58835 0.62917 0.98965 0.0
O445 O 0.61902 0.65488 0.98069 0.0
O446 O 0.56269 0.60083 0.94077 0.0
C447 C 0.72785 0.68446 0.93995 0.0
O448 O 0.71693 0.6523 0.95829 0.0
C449 C 0.45922 0.55639 0.83779 0.0
C450 C 0.45435 0.49175 0.74178 0.0
C451 C 0.42742 0.52267 0.79639 0.0
N452 N 0.50288 0.5458 0.80967 0.0
N453 N 0.50009 0.50641 0.75299 0.0
C454 C 0.44752 0.60029 0.90014 0.0
H455 H 0.47605 0.62642 0.91064 0.0
H456 H 0.4126 0.61431 0.89419 0.0
H457 H 0.44468 0.59284 0.94461 0.0
C458 C 0.57748 0.70298 0.83244 0.0
N459 N 0.58708 0.66925 0.85031 0.0
N460 N 0.5533 0.63748 0.82603 0.0
C461 C 0.52117 0.65034 0.79187 0.0
C462 C 0.53524 0.69243 0.79561 0.0
C463 C 0.6107 0.74166 0.84268 0.0
H464 H 0.6416 0.74269 0.87466 0.0
H465 H 0.59134 0.77505 0.86642 0.0
H466 H 0.6238 0.73688 0.79216 0.0
O467 O 0.66841 0.60086 0.83713 0.0
O468 O 0.61491 0.54505 0.79424 0.0
H469 H 0.48583 0.58592 0.73171 0.0
H470 H 0.46318 0.63337 0.71876 0.0
C471 C 0.4775 0.62327 0.7571 0.0
H472 H 0.44933 0.6299 0.79593 0.0
H473 H 0.52883 0.49086 0.7202 0.0
O474 O 0.69513 0.69935 0.91478 0.0
C475 C 0.65799 0.55902 0.80007 0.0
Co476 Co 0.33425 0.41017 0.64698 0.0
Co477 Co 0.41444 0.33487 0.59108 0.0
C478 C 0.38519 0.38114 0.73967 0.0
O479 O 0.35463 0.40705 0.73113 0.0
O480 O 0.41028 0.35251 0.69034 0.0
C481 C 0.24574 0.43613 0.69112 0.0
O482 O 0.25702 0.40439 0.71014 0.0
C483 C 0.51389 0.31071 0.58923 0.0
C484 C 0.52051 0.24367 0.49744 0.0
C485 C 0.54657 0.27693 0.5508 0.0
N486 N 0.47054 0.29803 0.56068 0.0
N487 N 0.4744 0.25734 0.5065 0.0
C488 C 0.52417 0.35584 0.65026 0.0
H489 H 0.49482 0.38087 0.65886 0.0
H490 H 0.5586 0.37053 0.64408 0.0
H491 H 0.52726 0.34985 0.69602 0.0
C492 C 0.39466 0.45375 0.58055 0.0
N493 N 0.38536 0.4203 0.59913 0.0
N494 N 0.41878 0.38824 0.57412 0.0
C495 C 0.4503 0.40056 0.53856 0.0
C496 C 0.43634 0.44271 0.54243 0.0
C497 C 0.36158 0.49261 0.5913 0.0
H498 H 0.33085 0.49376 0.62361 0.0
H499 H 0.38113 0.5259 0.61485 0.0
H500 H 0.34821 0.48796 0.54097 0.0
O501 O 0.30439 0.35215 0.58848 0.0
O502 O 0.35746 0.29597 0.54463 0.0
H503 H 0.48509 0.33565 0.47824 0.0
H504 H 0.50688 0.38257 0.46321 0.0
C505 C 0.49344 0.37306 0.50261 0.0
H506 H 0.52224 0.38029 0.5407 0.0
H507 H 0.44605 0.2399 0.47409 0.0
O508 O 0.27812 0.45075 0.66508 0.0
C509 C 0.31439 0.3102 0.55148 0.0
Co510 Co 0.3362 0.33736 0.08485 0.0
Co511 Co 0.41674 0.41251 0.13945 0.0
C512 C 0.38645 0.36662 -0.00849 0.0
O513 O 0.35604 0.34077 0.00059 0.0
O514 O 0.41198 0.39516 0.04036 0.0
C515 C 0.24744 0.31157 0.04204 0.0
O516 O 0.25863 0.34332 0.02301 0.0
C517 C 0.51618 0.43813 0.14354 0.0
C518 C 0.52082 0.50543 0.23526 0.0
C519 C 0.54796 0.47256 0.18301 0.0
N520 N 0.47229 0.45013 0.17038 0.0
N521 N 0.47498 0.49099 0.22448 0.0
C522 C 0.52797 0.39274 0.08399 0.0
H523 H 0.49783 0.36806 0.07231 0.0
H524 H 0.56086 0.37781 0.0943 0.0
H525 H 0.535 0.39843 0.03862 0.0
C526 C 0.39653 0.29423 0.15154 0.0
N527 N 0.38764 0.32737 0.1322 0.0
N528 N 0.42178 0.35877 0.15548 0.0
C529 C 0.45384 0.34588 0.18965 0.0
C530 C 0.43917 0.30441 0.18768 0.0
C531 C 0.36402 0.25447 0.13777 0.0
H532 H 0.33745 0.25041 0.09828 0.0
H533 H 0.38506 0.22224 0.12186 0.0
H534 H 0.34438 0.26107 0.18523 0.0
O535 O 0.30653 0.39517 0.14386 0.0
O536 O 0.35985 0.45115 0.18693 0.0
H537 H 0.50505 0.36708 0.27195 0.0
H538 H 0.52697 0.36548 0.19394 0.0
C539 C 0.49568 0.3743 0.22858 0.0
H540 H 0.48763 0.41148 0.24851 0.0
H541 H 0.44602 0.50795 0.25584 0.0
O542 O 0.28001 0.29673 0.06751 0.0
C543 C 0.31678 0.43704 0.18086 0.0
C544 C 0.3113 0.07088 0.26689 0.0
C545 C 0.27787 0.05171 0.2946 0.0
H546 H 0.38481 0.07785 0.24692 0.0
C547 C 0.2943 0.02394 0.3243 0.0
H548 H 0.3001 0.09261 0.24393 0.0
C549 C 0.34339 0.01529 0.32541 0.0
C550 C 0.37625 0.03464 0.29739 0.0
H551 H 0.26938 0.00922 0.34684 0.0
H552 H 0.3557 0.99413 0.34877 0.0
C553 C 0.35989 0.06261 0.26864 0.0
C554 C 0.85333 0.23129 0.36399 0.0
C555 C 0.87306 0.22292 0.41612 0.0
H556 H 0.78927 0.23216 0.31028 0.0
C557 C 0.84326 0.20972 0.45531 0.0
H558 H 0.87613 0.24086 0.33254 0.0
C559 C 0.79422 0.20516 0.44328 0.0
C560 C 0.77403 0.2134 0.39125 0.0
H561 H 0.85827 0.20095 0.49326 0.0
H562 H 0.77232 0.19358 0.4733 0.0
C563 C 0.80395 0.22643 0.35147 0.0
C564 C 0.34259 0.23332 0.90803 0.0
C565 C 0.3758 0.21488 0.93684 0.0
H566 H 0.26842 0.2384 0.88657 0.0
C567 C 0.36002 0.18756 0.96699 0.0
H568 H 0.3545 0.25396 0.88361 0.0
C569 C 0.31158 0.17893 0.96919 0.0
C570 C 0.2778 0.19718 0.94067 0.0
H571 H 0.38529 0.17299 0.98926 0.0
H572 H 0.30078 0.15764 -0.00691 0.0
C573 C 0.29365 0.22439 0.90974 0.0
C574 C 0.86061 0.05417 0.75988 0.0
C575 C 0.87636 0.02845 0.79258 0.0
H576 H 0.80146 0.08362 0.73272 0.0
C577 C 0.84326 0.01225 0.82466 0.0
H578 H 0.88595 0.06763 0.73607 0.0
C579 C 0.79444 0.02178 0.82361 0.0
C580 C 0.77861 0.04758 0.79042 0.0
H581 H 0.8552 0.99293 0.85114 0.0
H582 H 0.7693 0.00958 0.84936 0.0
C583 C 0.81227 0.06343 0.75839 0.0
C584 C 0.68125 0.97395 0.66041 0.0
C585 C 0.69714 0.94712 0.69195 0.0
H586 H 0.62041 0.00357 0.63442 0.0
C587 C 0.66346 0.92975 0.72187 0.0
H588 H 0.7064 0.98724 0.63613 0.0
C589 C 0.61508 0.93891 0.72054 0.0
C590 C 0.59929 0.9659 0.68987 0.0
H591 H 0.6743 0.90874 0.7462 0.0
H592 H 0.58985 0.92491 0.74372 0.0
C593 C 0.63237 0.98331 0.65942 0.0
C594 C 0.11525 0.80598 0.51309 0.0
C595 C 0.0994 0.7796 0.54473 0.0
H596 H 0.17452 0.83554 0.48635 0.0
C597 C 0.13249 0.76259 0.57571 0.0
H598 H 0.08996 0.82003 0.49008 0.0
C599 C 0.18139 0.77184 0.57444 0.0
C600 C 0.19732 0.79814 0.54206 0.0
H601 H 0.1205 0.74276 0.60139 0.0
H602 H 0.20651 0.75894 0.59925 0.0
C603 C 0.16365 0.81493 0.51132 0.0
C604 C 0.68141 0.77195 0.07247 0.0
C605 C 0.6974 0.79859 0.04067 0.0
H606 H 0.62045 0.74287 0.09922 0.0
C607 C 0.66377 0.81582 0.01047 0.0
H608 H 0.70652 0.75867 0.0968 0.0
C609 C 0.61532 0.80716 0.01254 0.0
C610 C 0.59941 0.78063 0.04388 0.0
H611 H 0.67469 0.83665 0.98588 0.0
H612 H 0.59006 0.8216 0.99006 0.0
C613 C 0.63248 0.7629 0.07389 0.0
C614 C 0.13299 0.98475 0.15865 0.0
C615 C 0.0997 0.96743 0.18899 0.0
H616 H 0.20718 0.98895 0.13639 0.0
C617 C 0.11535 0.9413 0.22109 0.0
H618 H 0.12116 0.00444 0.1327 0.0
C619 C 0.16376 0.93278 0.22381 0.0
C620 C 0.19761 0.94975 0.19354 0.0
H621 H 0.0899 0.92706 0.24366 0.0
H622 H 0.17447 0.91229 0.24903 0.0
C623 C 0.18189 0.97589 0.16083 0.0
C624 C 0.31184 0.56517 0.76027 0.0
C625 C 0.27812 0.54879 0.7915 0.0
H626 H 0.38554 0.56959 0.73826 0.0
C627 C 0.29391 0.5226 0.8241 0.0
H628 H 0.30107 0.58569 0.73511 0.0
C629 C 0.34275 0.5131 0.82518 0.0
C630 C 0.3759 0.52968 0.79366 0.0
H631 H 0.26874 0.51002 0.84931 0.0
H632 H 0.35465 0.49342 0.85112 0.0
C633 C 0.36019 0.55589 0.76171 0.0
C634 C 0.79411 0.72436 0.9093 0.0
C635 C 0.77832 0.69829 0.94211 0.0
H636 H 0.85483 0.75355 0.88217 0.0
C637 C 0.81203 0.68225 0.97379 0.0
H638 H 0.76895 0.73671 0.88379 0.0
C639 C 0.86037 0.69161 0.97237 0.0
C640 C 0.87609 0.71762 0.94009 0.0
H641 H 0.80126 0.66186 -0.00084 0.0
H642 H 0.88572 0.67806 -0.00399 0.0
C643 C 0.84294 0.73399 0.90832 0.0
C644 C 0.34244 0.7343 0.4072 0.0
C645 C 0.37564 0.71733 0.4381 0.0
H646 H 0.26834 0.73786 0.3839 0.0
C647 C 0.35992 0.69109 0.47001 0.0
H648 H 0.35432 0.75408 0.38139 0.0
C649 C 0.31155 0.68211 0.47199 0.0
C650 C 0.27778 0.69877 0.44122 0.0
H651 H 0.38528 0.67714 0.49305 0.0
H652 H 0.3008 0.66157 0.49712 0.0
C653 C 0.29356 0.72502 0.40869 0.0
C654 C 0.81109 0.56575 0.26309 0.0
C655 C 0.77733 0.54845 0.29305 0.0
H656 H 0.88483 0.57146 0.24278 0.0
C657 C 0.79321 0.52191 0.32506 0.0
H658 H 0.80029 0.58654 0.2384 0.0
C659 C 0.84214 0.51284 0.3266 0.0
C660 C 0.87532 0.53044 0.2965 0.0
H661 H 0.76801 0.50859 0.34924 0.0
H662 H 0.85407 0.49272 0.35184 0.0
C663 C 0.85951 0.55707 0.26527 0.0
C664 C 0.61511 0.43945 0.21813 0.0
C665 C 0.5995 0.46606 0.18677 0.0
H666 H 0.67419 0.4101 0.24557 0.0
C667 C 0.63287 0.48393 0.1573 0.0
H668 H 0.58966 0.42495 0.24027 0.0
C669 C 0.68177 0.47504 0.15943 0.0
C670 C 0.69745 0.44842 0.19142 0.0
H671 H 0.6211 0.50405 0.13198 0.0
H672 H 0.70712 0.48851 0.13563 0.0
C673 C 0.66352 0.43094 0.22089 0.0
C674 C 0.18093 0.27209 0.07302 0.0
C675 C 0.19686 0.29823 0.0404 0.0
H676 H 0.12004 0.24312 0.10016 0.0
C677 C 0.16323 0.31481 0.00934 0.0
H678 H 0.20605 0.25936 0.09808 0.0
C679 C 0.11484 0.30584 0.01109 0.0
C680 C 0.09899 0.27964 0.043 0.0
H681 H 0.1741 0.3353 0.98418 0.0
H682 H 0.08956 0.31977 0.98789 0.0
C683 C 0.13205 0.2628 0.07425 0.0
C684 C 0.61438 0.31375 0.52337 0.0
C685 C 0.59822 0.28409 0.54928 0.0
H686 H 0.67399 0.34441 0.49954 0.0
C687 C 0.63128 0.2626 0.57362 0.0
H688 H 0.58936 0.33048 0.50416 0.0
C689 C 0.68043 0.27043 0.57101 0.0
C690 C 0.69663 0.29968 0.54372 0.0
H691 H 0.61911 0.24018 0.59492 0.0
H692 H 0.70557 0.25368 0.59011 0.0
C693 C 0.66297 0.32141 0.52041 0.0
C694 C 0.11325 0.44203 0.72276 0.0
C695 C 0.09733 0.46785 0.69029 0.0
H696 H 0.17259 0.41287 0.74997 0.0
C697 C 0.13032 0.4846 0.65882 0.0
H698 H 0.088 0.42822 0.74619 0.0
C699 C 0.17921 0.47547 0.66019 0.0
C700 C 0.1952 0.44953 0.69307 0.0
H701 H 0.11825 0.504 0.63255 0.0
H702 H 0.20427 0.48807 0.63486 0.0
C703 C 0.16165 0.43316 0.72454 0.0
C704 C 0.1298 0.12171 0.14701 0.0
C705 C 0.0865 0.11838 0.1768 0.0
H706 H 0.16374 0.12999 0.0658 0.0
C707 C 0.04311 0.12021 0.14587 0.0
H708 H 0.16367 0.12099 0.17053 0.0
C709 C 0.04316 0.12416 0.08489 0.0
C710 C 0.08657 0.12837 0.05593 0.0
H711 H 0.00932 0.11801 0.1684 0.0
H712 H 0.00943 0.12441 0.06075 0.0
C713 C 0.12981 0.12746 0.08777 0.0
C714 C 0.84534 0.86999 0.89612 0.0
C715 C 0.88867 0.86763 0.92663 0.0
H716 H 0.81131 0.87766 0.81449 0.0
C717 C 0.93205 0.87048 0.89646 0.0
H718 H 0.81146 0.86854 0.91907 0.0
C719 C 0.93196 0.87448 0.8355 0.0
C720 C 0.8885 0.87779 0.80591 0.0
H721 H 0.96586 0.86911 0.91961 0.0
H722 H 0.96569 0.87555 0.81193 0.0
C723 C 0.84526 0.87584 0.83696 0.0
C724 C 0.13037 0.62713 0.58766 0.0
C725 C 0.08706 0.62913 0.5568 0.0
H726 H 0.16435 0.61985 0.66966 0.0
C727 C 0.04367 0.62603 0.58677 0.0
H728 H 0.16426 0.62882 0.56493 0.0
C729 C 0.04372 0.62214 0.64782 0.0
C730 C 0.08716 0.6192 0.67777 0.0
H731 H 0.00988 0.62715 0.56339 0.0
H732 H 0.00997 0.62088 0.67119 0.0
C733 C 0.13042 0.62139 0.64693 0.0
C734 C 0.93158 0.37102 0.39692 0.0
C735 C 0.88827 0.3655 0.42489 0.0
H736 H 0.96534 0.37892 0.31471 0.0
C737 C 0.84506 0.36565 0.39245 0.0
H738 H 0.96529 0.37135 0.4215 0.0
C739 C 0.84498 0.37219 0.33384 0.0
C740 C 0.8882 0.37703 0.30522 0.0
H741 H 0.81117 0.36207 0.41357 0.0
H742 H 0.81113 0.37239 0.30993 0.0
C743 C 0.9316 0.3757 0.33649 0.0
C744 C 0.54528 0.12654 0.58626 0.0
C745 C 0.5889 0.12878 0.55606 0.0
H746 H 0.51101 0.12173 0.67061 0.0
C747 C 0.63196 0.12541 0.58633 0.0
H748 H 0.51165 0.12872 0.56337 0.0
C749 C 0.63154 0.11926 0.64528 0.0
C750 C 0.58809 0.11801 0.67645 0.0
H751 H 0.666 0.12642 0.56342 0.0
H752 H 0.66532 0.11675 0.66758 0.0
C753 C 0.54491 0.12223 0.64701 0.0
C754 C 0.34531 0.87702 0.33859 0.0
C755 C 0.38861 0.87916 0.30778 0.0
H756 H 0.31134 0.86929 0.42027 0.0
C757 C 0.432 0.87584 0.33753 0.0
H758 H 0.31141 0.87885 0.31602 0.0
C759 C 0.43197 0.87162 0.39835 0.0
C760 C 0.38853 0.86855 0.42824 0.0
H761 H 0.46578 0.87704 0.31419 0.0
H762 H 0.46572 0.8702 0.42157 0.0
C763 C 0.34527 0.87094 0.39758 0.0
C764 C 0.6304 0.62511 0.08628 0.0
C765 C 0.58718 0.62747 0.0555 0.0
H766 H 0.66411 0.61762 0.16829 0.0
C767 C 0.54369 0.62473 0.08553 0.0
H768 H 0.66436 0.62651 0.06348 0.0
C769 C 0.54356 0.62089 0.14663 0.0
C770 C 0.5869 0.61765 0.17654 0.0
H771 H 0.50997 0.62612 0.06221 0.0
H772 H 0.50974 0.61994 0.17008 0.0
C773 C 0.63025 0.61942 0.14559 0.0
C774 C 0.43015 0.3763 0.83505 0.0
C775 C 0.38657 0.37923 0.80539 0.0
H776 H 0.46434 0.37096 0.91901 0.0
C777 C 0.34346 0.37662 0.83619 0.0
H778 H 0.4638 0.37786 0.81168 0.0
C779 C 0.34378 0.37048 0.89513 0.0
C780 C 0.38721 0.36849 0.92573 0.0
H781 H 0.30943 0.37812 0.81365 0.0
H782 H 0.30997 0.3685 0.91784 0.0
C783 C 0.43046 0.37203 0.89582 0.0
C784 C 0.22681 0.296 0.52883 0.0
C785 C 0.2739 0.27839 0.52013 0.0
H786 H 0.15211 0.28106 0.50913 0.0
C787 C 0.28103 0.23068 0.48446 0.0
H788 H 0.21993 0.33276 0.55642 0.0
C789 C 0.24199 0.20119 0.45794 0.0
C790 C 0.19491 0.21877 0.46631 0.0
H791 H 0.31665 0.21607 0.47734 0.0
H792 H 0.24897 0.16445 0.43034 0.0
C793 C 0.18773 0.26648 0.5022 0.0
C794 C 0.97281 0.95137 0.44573 0.0
C795 C 0.96333 0.97002 0.51597 0.0
H796 H 0.00212 0.9634 0.36487 0.0
C797 C 0.97599 0.01603 0.55907 0.0
H798 H 0.96255 0.91622 0.41138 0.0
C799 C -0.00191 0.04299 0.53244 0.0
C800 C 0.00785 0.02421 0.46227 0.0
H801 H 0.96918 0.0309 0.61344 0.0
H802 H 0.00804 0.07827 0.56664 0.0
C803 C -0.00484 0.97825 0.41917 0.0
C804 C 0.22993 0.95052 0.70597 0.0
C805 C 0.27705 0.96803 0.71519 0.0
H806 H 0.1553 0.96558 0.7252 0.0
C807 C 0.28443 0.01566 0.75202 0.0
H808 H 0.22287 0.91383 0.67756 0.0
C809 C 0.2455 0.04522 0.7789 0.0
C810 C 0.19837 0.02772 0.76959 0.0
H811 H 0.32013 0.03016 0.75966 0.0
H812 H 0.25256 0.08191 0.8073 0.0
C813 C 0.191 0.98008 0.73285 0.0
C814 C 0.97307 0.29229 0.78511 0.0
C815 C 0.96512 0.27477 0.71465 0.0
H816 H 0.00142 0.27904 0.86536 0.0
C817 C 0.98003 0.22972 0.67037 0.0
H818 H 0.9612 0.32673 0.82026 0.0
C819 C 0.00277 0.20254 0.69608 0.0
C820 C 0.01068 0.22005 0.76653 0.0
H821 H 0.97448 0.21581 0.61584 0.0
H822 H 0.01459 0.16808 0.66096 0.0
C823 C -0.00417 0.26512 0.81081 0.0
C824 C 0.78396 0.72972 0.48245 0.0
C825 C 0.77678 0.7774 0.51897 0.0
H826 H 0.75183 0.66355 0.42718 0.0
C827 C 0.72972 0.79503 0.52781 0.0
H828 H 0.81959 0.71511 0.47514 0.0
C829 C 0.6907 0.7656 0.50077 0.0
C830 C 0.69787 0.71793 0.46422 0.0
H831 H 0.72278 0.83175 0.55599 0.0
H832 H 0.65508 0.78023 0.50809 0.0
C833 C 0.74492 0.70027 0.45539 0.0
C834 C 0.69227 0.98316 0.23332 0.0
C835 C 0.70032 0.03076 0.26922 0.0
H836 H 0.72313 0.9164 0.17835 0.0
C837 C 0.74762 0.04765 0.2768 0.0
H838 H 0.65642 0.96911 0.22691 0.0
C839 C 0.78608 0.01751 0.24941 0.0
C840 C 0.77804 0.96989 0.21374 0.0
H841 H 0.75517 0.08429 0.30434 0.0
H842 H 0.82194 0.03153 0.25584 0.0
C843 C 0.73072 0.95304 0.20592 0.0
C844 C 0.97273 0.79364 0.28653 0.0
C845 C 0.96428 0.77594 0.21616 0.0
H846 H 0.00148 0.78054 0.36669 0.0
C847 C 0.97863 0.73068 0.17198 0.0
H848 H 0.96132 0.82826 0.32159 0.0
C849 C 0.00143 0.70352 0.19768 0.0
C850 C 0.0099 0.72123 0.26806 0.0
H851 H 0.97261 0.71661 0.11752 0.0
H852 H 0.01288 0.66892 0.1626 0.0
C853 C -0.00451 0.76647 0.31223 0.0
C854 C 0.28451 0.7319 0.98353 0.0
C855 C 0.27701 0.77949 0.02066 0.0
H856 H 0.25284 0.66561 0.92751 0.0
C857 C 0.22983 0.79685 0.02974 0.0
H858 H 0.32024 0.7175 0.97599 0.0
C859 C 0.19098 0.7672 0.00234 0.0
C860 C 0.19848 0.7196 0.96523 0.0
H861 H 0.22266 0.8335 0.05838 0.0
H862 H 0.15525 0.7816 0.00988 0.0
C863 C 0.24566 0.70225 0.95615 0.0
C864 C -0.00375 0.48148 0.92247 0.0
C865 C 0.01079 0.52671 0.96653 0.0
H866 H 0.9619 0.41981 0.91335 0.0
C867 C 0.00249 0.54448 0.03695 0.0
H868 H 0.00214 0.46735 0.86796 0.0
C869 C 0.97973 0.51738 0.06283 0.0
C870 C 0.96517 0.47216 0.01878 0.0
H871 H 0.01403 0.57907 0.07193 0.0
H872 H 0.97392 0.53149 0.11733 0.0
C873 C 0.97345 0.4544 0.94835 0.0
C874 C 0.245 0.54605 0.27772 0.0
C875 C 0.19787 0.52855 0.2688 0.0
H876 H 0.3196 0.53103 0.25769 0.0
C877 C 0.19049 0.48093 0.23176 0.0
H878 H 0.25209 0.58272 0.3063 0.0
C879 C 0.2294 0.45141 0.2043 0.0
C880 C 0.27653 0.4689 0.21324 0.0
H881 H 0.15481 0.46642 0.22435 0.0
H882 H 0.22231 0.41473 0.17574 0.0
C883 C 0.28392 0.51652 0.25027 0.0
C884 C 0.78476 0.23169 0.98112 0.0
C885 C 0.77724 0.27928 0.01816 0.0
H886 H 0.75314 0.16537 0.92542 0.0
C887 C 0.73006 0.29663 0.02726 0.0
H888 H 0.82049 0.21729 0.97359 0.0
C889 C 0.69122 0.26696 6e-05 0.0
C890 C 0.69876 0.21935 0.96313 0.0
H891 H 0.72291 0.33329 0.05586 0.0
H892 H 0.65547 0.28132 0.00766 0.0
C893 C 0.74594 0.20203 0.95393 0.0
C894 C 0.78398 0.51438 0.74938 0.0
C895 C 0.77626 0.46687 0.71147 0.0
H896 H 0.75265 0.58069 0.80631 0.0
C897 C 0.72899 0.44968 0.7017 0.0
H898 H 0.81979 0.52865 0.75749 0.0
C899 C 0.69027 0.47945 0.72938 0.0
C900 C 0.69802 0.52696 0.7674 0.0
H901 H 0.7217 0.4131 0.67239 0.0
H902 H 0.65445 0.4652 0.72137 0.0
C903 C 0.74528 0.54412 0.777 0.0
C904 C 0.51314 0.98436 0.03525 0.0
C905 C 0.46477 0.97269 0.01975 0.0
H906 H 0.57375 0.02063 0.02371 0.0
C907 C 0.44035 0.98847 0.97849 0.0
H908 H 0.53253 0.97308 0.06775 0.0
C909 C 0.46391 0.01552 0.95319 0.0
C910 C 0.51229 0.02717 0.96866 0.0
H911 H 0.4033 0.97928 0.96478 0.0
H912 H 0.44453 0.02674 0.92063 0.0
C913 C 0.5367 0.01144 0.01 0.0
C914 C 0.43953 0.26069 0.25704 0.0
C915 C 0.4641 0.27683 0.21628 0.0
H916 H 0.44367 0.22242 0.31492 0.0
C917 C 0.51278 0.26612 0.20222 0.0
H918 H 0.40226 0.26922 0.26982 0.0
C919 C 0.53649 0.23965 0.22835 0.0
C920 C 0.51188 0.22341 0.26892 0.0
H921 H 0.53234 0.27767 0.17015 0.0
H922 H 0.57382 0.23123 0.21582 0.0
C923 C 0.46321 0.23409 0.283 0.0
C924 C 0.47296 0.79291 0.7869 0.0
C925 C 0.46475 0.77541 0.71649 0.0
H926 H 0.50169 0.77962 0.86694 0.0
C927 C 0.47957 0.73035 0.67211 0.0
H928 H 0.46125 0.82739 0.82212 0.0
C929 C 0.5025 0.70315 0.69764 0.0
C930 C 0.51069 0.72065 0.76804 0.0
H931 H 0.47382 0.71645 0.61761 0.0
H932 H 0.51422 0.66869 0.66241 0.0
C933 C 0.4959 0.76571 0.81244 0.0
C934 C 0.49244 0.48097 0.41947 0.0
C935 C 0.50789 0.52573 0.46419 0.0
H936 H 0.45688 0.41954 0.40917 0.0
C937 C 0.49977 0.54299 0.53457 0.0
H938 H 0.49812 0.46731 0.36501 0.0
C939 C 0.4764 0.51581 0.55978 0.0
C940 C 0.46103 0.471 0.51506 0.0
H941 H 0.51196 0.57723 0.57004 0.0
H942 H 0.47078 0.5295 0.61428 0.0
C943 C 0.46904 0.45379 0.44465 0.0
loop_
_geom_bond_atom_site_label_1
_geom_bond_atom_site_label_2
_geom_bond_distance
_geom_bond_site_symmetry_2
_ccdc_geom_bond_type
Co0 O3 1.970 . S
Co0 N17 1.989 . S
Co0 O25 1.967 . S
Co0 O32 1.920 . S
Co1 O4 1.966 . S
Co1 N10 2.022 1_455 S
Co1 N18 1.993 . S
Co1 O26 1.941 . S
C2 O3 1.258 . S
C2 O4 1.263 . S
O3 Co0 1.970 . S
O3 C2 1.258 . S
O4 Co1 1.966 . S
O4 C2 1.263 . S
C5 O6 1.235 . S
C5 O32 1.289 . S
O6 C5 1.235 . S
C7 C9 1.400 . S
C7 N10 1.351 . S
C7 C12 1.501 . S
C8 C9 1.387 . S
C8 N11 1.341 . S
C9 C7 1.400 . S
C9 C8 1.387 . S
N10 Co1 2.022 1_655 S
N10 C7 1.351 . S
N10 N11 1.365 . S
N11 C8 1.341 . S
N11 N10 1.365 . S
N11 H31 0.862 . S
C12 C7 1.501 . S
C12 H13 0.961 . S
C12 H14 0.961 . S
C12 H15 0.960 . S
H13 C12 0.961 . S
H14 C12 0.961 . S
H15 C12 0.960 . S
C16 N17 1.342 . S
C16 C20 1.401 . S
C16 C21 1.499 . S
N17 Co0 1.989 . S
N17 C16 1.342 . S
N17 N18 1.388 . S
N18 Co1 1.993 . S
N18 N17 1.388 . S
N18 C19 1.346 . S
C19 N18 1.346 . S
C19 C20 1.396 . S
C19 C29 1.510 1_455 S
C20 C16 1.401 . S
C20 C19 1.396 . S
C21 C16 1.499 . S
C21 H22 0.959 . S
C21 H23 0.960 . S
C21 H24 0.961 . S
H22 C21 0.959 . S
H23 C21 0.960 . S
H24 C21 0.961 . S
O25 Co0 1.967 . S
O25 C33 1.258 . S
O26 Co1 1.941 . S
O26 C33 1.266 . S
H27 C29 0.959 . S
H28 C29 0.961 . S
C29 C19 1.510 1_655 S
C29 H27 0.959 . S
C29 H28 0.961 . S
C29 H30 0.960 . S
H30 C29 0.960 . S
H31 N11 0.862 . S
O32 Co0 1.920 . S
O32 C5 1.289 . S
C33 O25 1.258 . S
C33 O26 1.266 . S
Co34 O37 1.970 . S
Co34 N51 1.989 . S
Co34 O59 1.967 . S
Co34 O66 1.920 . S
Co35 O38 1.966 . S
Co35 N44 2.022 1_455 S
Co35 N52 1.993 . S
Co35 O60 1.941 . S
C36 O37 1.258 . S
C36 O38 1.263 . S
O37 Co34 1.970 . S
O37 C36 1.258 . S
O38 Co35 1.966 . S
O38 C36 1.263 . S
C39 O40 1.235 . S
C39 O66 1.289 . S
O40 C39 1.235 . S
C41 C43 1.400 . S
C41 N44 1.351 . S
C41 C46 1.501 . S
C42 C43 1.387 . S
C42 N45 1.341 . S
C43 C41 1.400 . S
C43 C42 1.387 . S
N44 Co35 2.022 1_655 S
N44 C41 1.351 . S
N44 N45 1.365 . S
N45 C42 1.341 . S
N45 N44 1.365 . S
N45 H65 0.862 . S
C46 C41 1.501 . S
C46 H47 0.961 . S
C46 H48 0.961 . S
C46 H49 0.960 . S
H47 C46 0.961 . S
H48 C46 0.961 . S
H49 C46 0.960 . S
C50 N51 1.342 . S
C50 C54 1.401 . S
C50 C55 1.499 . S
N51 Co34 1.989 . S
N51 C50 1.342 . S
N51 N52 1.388 . S
N52 Co35 1.993 . S
N52 N51 1.388 . S
N52 C53 1.346 . S
C53 N52 1.346 . S
C53 C54 1.396 . S
C53 C63 1.510 1_455 S
C54 C50 1.401 . S
C54 C53 1.396 . S
C55 C50 1.499 . S
C55 H56 0.959 . S
C55 H57 0.960 . S
C55 H58 0.961 . S
H56 C55 0.959 . S
H57 C55 0.960 . S
H58 C55 0.961 . S
O59 Co34 1.967 . S
O59 C67 1.258 . S
O60 Co35 1.941 . S
O60 C67 1.266 . S
H61 C63 0.959 . S
H62 C63 0.961 . S
C63 C53 1.510 1_655 S
C63 H61 0.959 . S
C63 H62 0.961 . S
C63 H64 0.960 . S
H64 C63 0.960 . S
H65 N45 0.862 . S
O66 Co34 1.920 . S
O66 C39 1.289 . S
C67 O59 1.258 . S
C67 O60 1.266 . S
Co68 O71 1.970 . S
Co68 N85 1.989 . S
Co68 O93 1.967 . S
Co68 O100 1.920 . S
Co69 O72 1.966 . S
Co69 N78 2.022 1_655 S
Co69 N86 1.993 . S
Co69 O94 1.941 . S
C70 O71 1.258 . S
C70 O72 1.263 . S
O71 Co68 1.970 . S
O71 C70 1.258 . S
O72 Co69 1.966 . S
O72 C70 1.263 . S
C73 O74 1.235 . S
C73 O100 1.289 . S
O74 C73 1.235 . S
C75 C77 1.400 . S
C75 N78 1.351 . S
C75 C80 1.501 . S
C76 C77 1.387 . S
C76 N79 1.341 . S
C77 C75 1.400 . S
C77 C76 1.387 . S
N78 Co69 2.022 1_455 S
N78 C75 1.351 . S
N78 N79 1.365 . S
N79 C76 1.341 . S
N79 N78 1.365 . S
N79 H99 0.862 . S
C80 C75 1.501 . S
C80 H81 0.961 . S
C80 H82 0.961 . S
C80 H83 0.960 . S
H81 C80 0.961 . S
H82 C80 0.961 . S
H83 C80 0.960 . S
C84 N85 1.342 . S
C84 C88 1.401 . S
C84 C89 1.499 . S
N85 Co68 1.989 . S
N85 C84 1.342 . S
N85 N86 1.388 . S
N86 Co69 1.993 . S
N86 N85 1.388 . S
N86 C87 1.346 . S
C87 N86 1.346 . S
C87 C88 1.396 . S
C87 C97 1.510 1_655 S
C88 C84 1.401 . S
C88 C87 1.396 . S
C89 C84 1.499 . S
C89 H90 0.959 . S
C89 H91 0.960 . S
C89 H92 0.961 . S
H90 C89 0.959 . S
H91 C89 0.960 . S
H92 C89 0.961 . S
O93 Co68 1.967 . S
O93 C101 1.258 . S
O94 Co69 1.941 . S
O94 C101 1.266 . S
H95 C97 0.959 . S
H96 C97 0.961 . S
C97 C87 1.510 1_455 S
C97 H95 0.959 . S
C97 H96 0.961 . S
C97 H98 0.960 . S
H98 C97 0.960 . S
H99 N79 0.862 . S
O100 Co68 1.920 . S
O100 C73 1.289 . S
C101 O93 1.258 . S
C101 O94 1.266 . S
Co102 O105 1.970 . S
Co102 N119 1.989 . S
Co102 O127 1.967 . S
Co102 O134 1.920 . S
Co103 O106 1.966 . S
Co103 N112 2.022 1_655 S
Co103 N120 1.993 . S
Co103 O128 1.941 . S
C104 O105 1.258 . S
C104 O106 1.263 . S
O105 Co102 1.970 . S
O105 C104 1.258 . S
O106 Co103 1.966 . S
O106 C104 1.263 . S
C107 O108 1.235 . S
C107 O134 1.289 . S
O108 C107 1.235 . S
C109 C111 1.400 . S
C109 N112 1.351 . S
C109 C114 1.501 . S
C110 C111 1.387 . S
C110 N113 1.341 . S
C111 C109 1.400 . S
C111 C110 1.387 . S
N112 Co103 2.022 1_455 S
N112 C109 1.351 . S
N112 N113 1.365 . S
N113 C110 1.341 . S
N113 N112 1.365 . S
N113 H133 0.862 . S
C114 C109 1.501 . S
C114 H115 0.961 . S
C114 H116 0.961 . S
C114 H117 0.960 . S
H115 C114 0.961 . S
H116 C114 0.961 . S
H117 C114 0.960 . S
C118 N119 1.342 . S
C118 C122 1.401 . S
C118 C123 1.499 . S
N119 Co102 1.989 . S
N119 C118 1.342 . S
N119 N120 1.388 . S
N120 Co103 1.993 . S
N120 N119 1.388 . S
N120 C121 1.346 . S
C121 N120 1.346 . S
C121 C122 1.396 . S
C121 C131 1.510 1_655 S
C122 C118 1.401 . S
C122 C121 1.396 . S
C123 C118 1.499 . S
C123 H124 0.959 . S
C123 H125 0.960 . S
C123 H126 0.961 . S
H124 C123 0.959 . S
H125 C123 0.960 . S
H126 C123 0.961 . S
O127 Co102 1.967 . S
O127 C135 1.258 . S
O128 Co103 1.941 . S
O128 C135 1.266 . S
H129 C131 0.959 . S
H130 C131 0.961 . S
C131 C121 1.510 1_455 S
C131 H129 0.959 . S
C131 H130 0.961 . S
C131 H132 0.960 . S
H132 C131 0.960 . S
H133 N113 0.862 . S
O134 Co102 1.920 . S
O134 C107 1.289 . S
C135 O127 1.258 . S
C135 O128 1.266 . S
Co136 O139 1.970 . S
Co136 N153 1.989 . S
Co136 O161 1.967 . S
Co136 O168 1.920 . S
Co137 O140 1.966 . S
Co137 N146 2.022 1_455 S
Co137 N154 1.993 . S
Co137 O162 1.941 . S
C138 O139 1.258 . S
C138 O140 1.263 . S
O139 Co136 1.970 . S
O139 C138 1.258 . S
O140 Co137 1.966 . S
O140 C138 1.263 . S
C141 O142 1.235 . S
C141 O168 1.289 . S
O142 C141 1.235 . S
C143 C145 1.400 . S
C143 N146 1.351 . S
C143 C148 1.501 . S
C144 C145 1.387 . S
C144 N147 1.341 . S
C145 C143 1.400 . S
C145 C144 1.387 . S
N146 Co137 2.022 1_655 S
N146 C143 1.351 . S
N146 N147 1.365 . S
N147 C144 1.341 . S
N147 N146 1.365 . S
N147 H167 0.862 1_556 S
C148 C143 1.501 . S
C148 H149 0.961 . S
C148 H150 0.961 . S
C148 H151 0.960 . S
H149 C148 0.961 . S
H150 C148 0.961 . S
H151 C148 0.960 . S
C152 N153 1.342 . S
C152 C156 1.401 . S
C152 C157 1.499 . S
N153 Co136 1.989 . S
N153 C152 1.342 . S
N153 N154 1.388 . S
N154 Co137 1.993 . S
N154 N153 1.388 . S
N154 C155 1.346 . S
C155 N154 1.346 . S
C155 C156 1.396 . S
C155 C165 1.510 1_455 S
C156 C152 1.401 . S
C156 C155 1.396 . S
C157 C152 1.499 . S
C157 H158 0.959 . S
C157 H159 0.960 . S
C157 H160 0.961 . S
H158 C157 0.959 . S
H159 C157 0.960 . S
H160 C157 0.961 . S
O161 Co136 1.967 . S
O161 C169 1.258 . S
O162 Co137 1.941 . S
O162 C169 1.266 . S
H163 C165 0.959 . S
H164 C165 0.961 . S
C165 C155 1.510 1_655 S
C165 H163 0.959 . S
C165 H164 0.961 . S
C165 H166 0.960 . S
H166 C165 0.960 . S
H167 N147 0.862 1_554 S
O168 Co136 1.920 . S
O168 C141 1.289 . S
C169 O161 1.258 . S
C169 O162 1.266 . S
Co170 O173 1.970 . S
Co170 N187 1.989 . S
Co170 O195 1.967 . S
Co170 O202 1.920 . S
Co171 O174 1.966 . S
Co171 N180 2.022 1_455 S
Co171 N188 1.993 . S
Co171 O196 1.941 . S
C172 O173 1.258 . S
C172 O174 1.263 . S
O173 Co170 1.970 . S
O173 C172 1.258 . S
O174 Co171 1.966 . S
O174 C172 1.263 . S
C175 O176 1.235 . S
C175 O202 1.289 . S
O176 C175 1.235 . S
C177 C179 1.400 . S
C177 N180 1.351 . S
C177 C182 1.501 . S
C178 C179 1.387 . S
C178 N181 1.341 . S
C179 C177 1.400 . S
C179 C178 1.387 . S
N180 Co171 2.022 1_655 S
N180 C177 1.351 . S
N180 N181 1.365 . S
N181 C178 1.341 . S
N181 N180 1.365 . S
N181 H201 0.862 . S
C182 C177 1.501 . S
C182 H183 0.961 . S
C182 H184 0.961 . S
C182 H185 0.960 . S
H183 C182 0.961 . S
H184 C182 0.961 . S
H185 C182 0.960 . S
C186 N187 1.342 . S
C186 C190 1.401 . S
C186 C191 1.499 . S
N187 Co170 1.989 . S
N187 C186 1.342 . S
N187 N188 1.388 . S
N188 Co171 1.993 . S
N188 N187 1.388 . S
N188 C189 1.346 . S
C189 N188 1.346 . S
C189 C190 1.396 . S
C189 C199 1.510 1_455 S
C190 C186 1.401 . S
C190 C189 1.396 . S
C191 C186 1.499 . S
C191 H192 0.959 . S
C191 H193 0.960 . S
C191 H194 0.961 . S
H192 C191 0.959 . S
H193 C191 0.960 . S
H194 C191 0.961 . S
O195 Co170 1.967 . S
O195 C203 1.258 . S
O196 Co171 1.941 . S
O196 C203 1.266 . S
H197 C199 0.959 . S
H198 C199 0.961 . S
C199 C189 1.510 1_655 S
C199 H197 0.959 . S
C199 H198 0.961 . S
C199 H200 0.960 . S
H200 C199 0.960 . S
H201 N181 0.862 . S
O202 Co170 1.920 . S
O202 C175 1.289 . S
C203 O195 1.258 . S
C203 O196 1.266 . S
Co204 O207 1.970 . S
Co204 N221 1.989 . S
Co204 O229 1.967 . S
Co204 O236 1.920 . S
Co205 O208 1.966 . S
Co205 N214 2.022 1_655 S
Co205 N222 1.993 . S
Co205 O230 1.941 . S
C206 O207 1.258 . S
C206 O208 1.263 . S
O207 Co204 1.970 . S
O207 C206 1.258 . S
O208 Co205 1.966 . S
O208 C206 1.263 . S
C209 O210 1.235 . S
C209 O236 1.289 . S
O210 C209 1.235 . S
C211 C213 1.400 . S
C211 N214 1.351 . S
C211 C216 1.501 . S
C212 C213 1.387 . S
C212 N215 1.341 . S
C213 C211 1.400 . S
C213 C212 1.387 . S
N214 Co205 2.022 1_455 S
N214 C211 1.351 . S
N214 N215 1.365 . S
N215 C212 1.341 . S
N215 N214 1.365 . S
N215 H235 0.862 1_554 S
C216 C211 1.501 . S
C216 H217 0.961 . S
C216 H218 0.961 . S
C216 H219 0.960 . S
H217 C216 0.961 . S
H218 C216 0.961 . S
H219 C216 0.960 . S
C220 N221 1.342 . S
C220 C224 1.401 . S
C220 C225 1.499 . S
N221 Co204 1.989 . S
N221 C220 1.342 . S
N221 N222 1.388 . S
N222 Co205 1.993 . S
N222 N221 1.388 . S
N222 C223 1.346 . S
C223 N222 1.346 . S
C223 C224 1.396 . S
C223 C233 1.510 1_655 S
C224 C220 1.401 . S
C224 C223 1.396 . S
C225 C220 1.499 . S
C225 H226 0.959 . S
C225 H227 0.960 . S
C225 H228 0.961 . S
H226 C225 0.959 . S
H227 C225 0.960 . S
H228 C225 0.961 . S
O229 Co204 1.967 . S
O229 C237 1.258 . S
O230 Co205 1.941 . S
O230 C237 1.266 . S
H231 C233 0.959 . S
H232 C233 0.961 . S
C233 C223 1.510 1_455 S
C233 H231 0.959 . S
C233 H232 0.961 . S
C233 H234 0.960 . S
H234 C233 0.960 . S
H235 N215 0.862 1_556 S
O236 Co204 1.920 . S
O236 C209 1.289 . S
C237 O229 1.258 . S
C237 O230 1.266 . S
Co238 O241 1.970 . S
Co238 N255 1.989 . S
Co238 O263 1.967 . S
Co238 O270 1.920 . S
Co239 O242 1.966 . S
Co239 N248 2.022 1_655 S
Co239 N256 1.993 . S
Co239 O264 1.941 . S
C240 O241 1.258 . S
C240 O242 1.263 . S
O241 Co238 1.970 . S
O241 C240 1.258 . S
O242 Co239 1.966 . S
O242 C240 1.263 . S
C243 O244 1.235 . S
C243 O270 1.289 . S
O244 C243 1.235 . S
C245 C247 1.400 . S
C245 N248 1.351 . S
C245 C250 1.501 . S
C246 C247 1.387 . S
C246 N249 1.341 . S
C247 C245 1.400 . S
C247 C246 1.387 . S
N248 Co239 2.022 1_455 S
N248 C245 1.351 . S
N248 N249 1.365 . S
N249 C246 1.341 . S
N249 N248 1.365 . S
N249 H269 0.862 . S
C250 C245 1.501 . S
C250 H251 0.961 . S
C250 H252 0.961 . S
C250 H253 0.960 . S
H251 C250 0.961 . S
H252 C250 0.961 . S
H253 C250 0.960 . S
C254 N255 1.342 . S
C254 C258 1.401 . S
C254 C259 1.499 . S
N255 Co238 1.989 . S
N255 C254 1.342 . S
N255 N256 1.388 . S
N256 Co239 1.993 . S
N256 N255 1.388 . S
N256 C257 1.346 . S
C257 N256 1.346 . S
C257 C258 1.396 . S
C257 C267 1.510 1_655 S
C258 C254 1.401 . S
C258 C257 1.396 . S
C259 C254 1.499 . S
C259 H260 0.959 . S
C259 H261 0.960 . S
C259 H262 0.961 . S
H260 C259 0.959 . S
H261 C259 0.960 . S
H262 C259 0.961 . S
O263 Co238 1.967 . S
O263 C271 1.258 . S
O264 Co239 1.941 . S
O264 C271 1.266 . S
H265 C267 0.959 . S
H266 C267 0.961 . S
C267 C257 1.510 1_455 S
C267 H265 0.959 . S
C267 H266 0.961 . S
C267 H268 0.960 . S
H268 C267 0.960 . S
H269 N249 0.862 . S
O270 Co238 1.920 . S
O270 C243 1.289 . S
C271 O263 1.258 . S
C271 O264 1.266 . S
Co272 O275 1.970 . S
Co272 N289 1.989 . S
Co272 O297 1.967 . S
Co272 O304 1.920 . S
Co273 O276 1.966 . S
Co273 N282 2.022 . S
Co273 N290 1.993 . S
Co273 O298 1.941 . S
C274 O275 1.258 . S
C274 O276 1.263 . S
O275 Co272 1.970 . S
O275 C274 1.258 . S
O276 Co273 1.966 . S
O276 C274 1.263 . S
C277 O278 1.235 . S
C277 O304 1.289 . S
O278 C277 1.235 . S
C279 C281 1.400 . S
C279 N282 1.351 . S
C279 C284 1.501 . S
C280 C281 1.387 . S
C280 N283 1.341 . S
C281 C279 1.400 . S
C281 C280 1.387 . S
N282 Co273 2.022 . S
N282 C279 1.351 . S
N282 N283 1.365 . S
N283 C280 1.341 . S
N283 N282 1.365 . S
N283 H303 0.862 1_556 S
C284 C279 1.501 . S
C284 H285 0.961 . S
C284 H286 0.961 . S
C284 H287 0.960 . S
H285 C284 0.961 . S
H286 C284 0.961 . S
H287 C284 0.960 . S
C288 N289 1.342 . S
C288 C292 1.401 . S
C288 C293 1.499 . S
N289 Co272 1.989 . S
N289 C288 1.342 . S
N289 N290 1.388 . S
N290 Co273 1.993 . S
N290 N289 1.388 . S
N290 C291 1.346 . S
C291 N290 1.346 . S
C291 C292 1.396 . S
C291 C301 1.510 . S
C292 C288 1.401 . S
C292 C291 1.396 . S
C293 C288 1.499 . S
C293 H294 0.959 . S
C293 H295 0.960 . S
C293 H296 0.961 . S
H294 C293 0.959 . S
H295 C293 0.960 . S
H296 C293 0.961 . S
O297 Co272 1.967 . S
O297 C305 1.258 . S
O298 Co273 1.941 . S
O298 C305 1.266 . S
H299 C301 0.959 . S
H300 C301 0.961 . S
C301 C291 1.510 . S
C301 H299 0.959 . S
C301 H300 0.961 . S
C301 H302 0.960 . S
H302 C301 0.960 . S
H303 N283 0.862 1_554 S
O304 Co272 1.920 . S
O304 C277 1.289 . S
C305 O297 1.258 . S
C305 O298 1.266 . S
Co306 O309 1.970 . S
Co306 N323 1.989 . S
Co306 O331 1.967 . S
Co306 O338 1.920 . S
Co307 O310 1.966 . S
Co307 N316 2.022 . S
Co307 N324 1.993 . S
Co307 O332 1.941 . S
C308 O309 1.258 . S
C308 O310 1.263 . S
O309 Co306 1.970 . S
O309 C308 1.258 . S
O310 Co307 1.966 . S
O310 C308 1.263 . S
C311 O312 1.235 . S
C311 O338 1.289 . S
O312 C311 1.235 . S
C313 C315 1.400 . S
C313 N316 1.351 . S
C313 C318 1.501 . S
C314 C315 1.387 . S
C314 N317 1.341 . S
C315 C313 1.400 . S
C315 C314 1.387 . S
N316 Co307 2.022 . S
N316 C313 1.351 . S
N316 N317 1.365 . S
N317 C314 1.341 . S
N317 N316 1.365 . S
N317 H337 0.862 . S
C318 C313 1.501 . S
C318 H319 0.961 . S
C318 H320 0.961 . S
C318 H321 0.960 . S
H319 C318 0.961 . S
H320 C318 0.961 . S
H321 C318 0.960 . S
C322 N323 1.342 . S
C322 C326 1.401 . S
C322 C327 1.499 . S
N323 Co306 1.989 . S
N323 C322 1.342 . S
N323 N324 1.388 . S
N324 Co307 1.993 . S
N324 N323 1.388 . S
N324 C325 1.346 . S
C325 N324 1.346 . S
C325 C326 1.396 . S
C325 C335 1.510 . S
C326 C322 1.401 . S
C326 C325 1.396 . S
C327 C322 1.499 . S
C327 H328 0.959 . S
C327 H329 0.960 . S
C327 H330 0.961 . S
H328 C327 0.959 . S
H329 C327 0.960 . S
H330 C327 0.961 . S
O331 Co306 1.967 . S
O331 C339 1.258 . S
O332 Co307 1.941 . S
O332 C339 1.266 . S
H333 C335 0.959 . S
H334 C335 0.961 . S
C335 C325 1.510 . S
C335 H333 0.959 . S
C335 H334 0.961 . S
C335 H336 0.960 . S
H336 C335 0.960 . S
H337 N317 0.862 . S
O338 Co306 1.920 . S
O338 C311 1.289 . S
C339 O331 1.258 . S
C339 O332 1.266 . S
Co340 O343 1.970 . S
Co340 N357 1.989 . S
Co340 O365 1.967 . S
Co340 O372 1.920 . S
Co341 O344 1.966 . S
Co341 N350 2.022 . S
Co341 N358 1.993 . S
Co341 O366 1.941 . S
C342 O343 1.258 . S
C342 O344 1.263 . S
O343 Co340 1.970 . S
O343 C342 1.258 . S
O344 Co341 1.966 . S
O344 C342 1.263 . S
C345 O346 1.235 . S
C345 O372 1.289 . S
O346 C345 1.235 . S
C347 C349 1.400 . S
C347 N350 1.351 . S
C347 C352 1.501 . S
C348 C349 1.387 . S
C348 N351 1.341 . S
C349 C347 1.400 . S
C349 C348 1.387 . S
N350 Co341 2.022 . S
N350 C347 1.351 . S
N350 N351 1.365 . S
N351 C348 1.341 . S
N351 N350 1.365 . S
N351 H371 0.862 1_554 S
C352 C347 1.501 . S
C352 H353 0.961 . S
C352 H354 0.961 . S
C352 H355 0.960 . S
H353 C352 0.961 . S
H354 C352 0.961 . S
H355 C352 0.960 . S
C356 N357 1.342 . S
C356 C360 1.401 . S
C356 C361 1.499 . S
N357 Co340 1.989 . S
N357 C356 1.342 . S
N357 N358 1.388 . S
N358 Co341 1.993 . S
N358 N357 1.388 . S
N358 C359 1.346 . S
C359 N358 1.346 . S
C359 C360 1.396 . S
C359 C369 1.510 . S
C360 C356 1.401 . S
C360 C359 1.396 . S
C361 C356 1.499 . S
C361 H362 0.959 . S
C361 H363 0.960 . S
C361 H364 0.961 . S
H362 C361 0.959 . S
H363 C361 0.960 . S
H364 C361 0.961 . S
O365 Co340 1.967 . S
O365 C373 1.258 . S
O366 Co341 1.941 . S
O366 C373 1.266 . S
H367 C369 0.959 . S
H368 C369 0.961 . S
C369 C359 1.510 . S
C369 H367 0.959 . S
C369 H368 0.961 . S
C369 H370 0.960 . S
H370 C369 0.960 . S
H371 N351 0.862 1_556 S
O372 Co340 1.920 . S
O372 C345 1.289 . S
C373 O365 1.258 . S
C373 O366 1.266 . S
Co374 O377 1.970 . S
Co374 N391 1.989 . S
Co374 O399 1.967 . S
Co374 O406 1.920 . S
Co375 O378 1.966 . S
Co375 N384 2.022 . S
Co375 N392 1.993 . S
Co375 O400 1.941 . S
C376 O377 1.258 . S
C376 O378 1.263 . S
O377 Co374 1.970 . S
O377 C376 1.258 . S
O378 Co375 1.966 . S
O378 C376 1.263 . S
C379 O380 1.235 . S
C379 O406 1.289 . S
O380 C379 1.235 . S
C381 C383 1.400 . S
C381 N384 1.351 . S
C381 C386 1.501 . S
C382 C383 1.387 . S
C382 N385 1.341 . S
C383 C381 1.400 . S
C383 C382 1.387 . S
N384 Co375 2.022 . S
N384 C381 1.351 . S
N384 N385 1.365 . S
N385 C382 1.341 . S
N385 N384 1.365 . S
N385 H405 0.862 . S
C386 C381 1.501 . S
C386 H387 0.961 . S
C386 H388 0.961 . S
C386 H389 0.960 . S
H387 C386 0.961 . S
H388 C386 0.961 . S
H389 C386 0.960 . S
C390 N391 1.342 . S
C390 C394 1.401 . S
C390 C395 1.499 . S
N391 Co374 1.989 . S
N391 C390 1.342 . S
N391 N392 1.388 . S
N392 Co375 1.993 . S
N392 N391 1.388 . S
N392 C393 1.346 . S
C393 N392 1.346 . S
C393 C394 1.396 . S
C393 C403 1.510 . S
C394 C390 1.401 . S
C394 C393 1.396 . S
C395 C390 1.499 . S
C395 H396 0.959 . S
C395 H397 0.960 . S
C395 H398 0.961 . S
H396 C395 0.959 . S
H397 C395 0.960 . S
H398 C395 0.961 . S
O399 Co374 1.967 . S
O399 C407 1.258 . S
O400 Co375 1.941 . S
O400 C407 1.266 . S
H401 C403 0.959 . S
H402 C403 0.961 . S
C403 C393 1.510 . S
C403 H401 0.959 . S
C403 H402 0.961 . S
C403 H404 0.960 . S
H404 C403 0.960 . S
H405 N385 0.862 . S
O406 Co374 1.920 . S
O406 C379 1.289 . S
C407 O399 1.258 . S
C407 O400 1.266 . S
Co408 O411 1.970 . S
Co408 N425 1.989 . S
Co408 O433 1.967 . S
Co408 O440 1.920 . S
Co409 O412 1.966 . S
Co409 N418 2.022 . S
Co409 N426 1.993 . S
Co409 O434 1.941 . S
C410 O411 1.258 . S
C410 O412 1.263 . S
O411 Co408 1.970 . S
O411 C410 1.258 . S
O412 Co409 1.966 . S
O412 C410 1.263 . S
C413 O414 1.235 . S
C413 O440 1.289 . S
O414 C413 1.235 . S
C415 C417 1.400 . S
C415 N418 1.351 . S
C415 C420 1.501 . S
C416 C417 1.387 . S
C416 N419 1.341 . S
C417 C415 1.400 . S
C417 C416 1.387 . S
N418 Co409 2.022 . S
N418 C415 1.351 . S
N418 N419 1.365 . S
N419 C416 1.341 . S
N419 N418 1.365 . S
N419 H439 0.862 . S
C420 C415 1.501 . S
C420 H421 0.961 . S
C420 H422 0.961 . S
C420 H423 0.960 . S
H421 C420 0.961 . S
H422 C420 0.961 . S
H423 C420 0.960 . S
C424 N425 1.342 . S
C424 C428 1.401 . S
C424 C429 1.499 . S
N425 Co408 1.989 . S
N425 C424 1.342 . S
N425 N426 1.388 . S
N426 Co409 1.993 . S
N426 N425 1.388 . S
N426 C427 1.346 . S
C427 N426 1.346 . S
C427 C428 1.396 . S
C427 C437 1.510 . S
C428 C424 1.401 . S
C428 C427 1.396 . S
C429 C424 1.499 . S
C429 H430 0.959 . S
C429 H431 0.960 . S
C429 H432 0.961 . S
H430 C429 0.959 . S
H431 C429 0.960 . S
H432 C429 0.961 . S
O433 Co408 1.967 . S
O433 C441 1.258 . S
O434 Co409 1.941 . S
O434 C441 1.266 . S
H435 C437 0.959 . S
H436 C437 0.961 . S
C437 C427 1.510 . S
C437 H435 0.959 . S
C437 H436 0.961 . S
C437 H438 0.960 . S
H438 C437 0.960 . S
H439 N419 0.862 . S
O440 Co408 1.920 . S
O440 C413 1.289 . S
C441 O433 1.258 . S
C441 O434 1.266 . S
Co442 O445 1.970 . S
Co442 N459 1.989 . S
Co442 O467 1.967 . S
Co442 O474 1.920 . S
Co443 O446 1.966 . S
Co443 N452 2.022 . S
Co443 N460 1.993 . S
Co443 O468 1.941 . S
C444 O445 1.258 . S
C444 O446 1.263 . S
O445 Co442 1.970 . S
O445 C444 1.258 . S
O446 Co443 1.966 . S
O446 C444 1.263 . S
C447 O448 1.235 . S
C447 O474 1.289 . S
O448 C447 1.235 . S
C449 C451 1.400 . S
C449 N452 1.351 . S
C449 C454 1.501 . S
C450 C451 1.387 . S
C450 N453 1.341 . S
C451 C449 1.400 . S
C451 C450 1.387 . S
N452 Co443 2.022 . S
N452 C449 1.351 . S
N452 N453 1.365 . S
N453 C450 1.341 . S
N453 N452 1.365 . S
N453 H473 0.862 . S
C454 C449 1.501 . S
C454 H455 0.961 . S
C454 H456 0.961 . S
C454 H457 0.960 . S
H455 C454 0.961 . S
H456 C454 0.961 . S
H457 C454 0.960 . S
C458 N459 1.342 . S
C458 C462 1.401 . S
C458 C463 1.499 . S
N459 Co442 1.989 . S
N459 C458 1.342 . S
N459 N460 1.388 . S
N460 Co443 1.993 . S
N460 N459 1.388 . S
N460 C461 1.346 . S
C461 N460 1.346 . S
C461 C462 1.396 . S
C461 C471 1.510 . S
C462 C458 1.401 . S
C462 C461 1.396 . S
C463 C458 1.499 . S
C463 H464 0.959 . S
C463 H465 0.960 . S
C463 H466 0.961 . S
H464 C463 0.959 . S
H465 C463 0.960 . S
H466 C463 0.961 . S
O467 Co442 1.967 . S
O467 C475 1.258 . S
O468 Co443 1.941 . S
O468 C475 1.266 . S
H469 C471 0.959 . S
H470 C471 0.961 . S
C471 C461 1.510 . S
C471 H469 0.959 . S
C471 H470 0.961 . S
C471 H472 0.960 . S
H472 C471 0.960 . S
H473 N453 0.862 . S
O474 Co442 1.920 . S
O474 C447 1.289 . S
C475 O467 1.258 . S
C475 O468 1.266 . S
Co476 O479 1.970 . S
Co476 N493 1.989 . S
Co476 O501 1.967 . S
Co476 O508 1.920 . S
Co477 O480 1.966 . S
Co477 N486 2.022 . S
Co477 N494 1.993 . S
Co477 O502 1.941 . S
C478 O479 1.258 . S
C478 O480 1.263 . S
O479 Co476 1.970 . S
O479 C478 1.258 . S
O480 Co477 1.966 . S
O480 C478 1.263 . S
C481 O482 1.235 . S
C481 O508 1.289 . S
O482 C481 1.235 . S
C483 C485 1.400 . S
C483 N486 1.351 . S
C483 C488 1.501 . S
C484 C485 1.387 . S
C484 N487 1.341 . S
C485 C483 1.400 . S
C485 C484 1.387 . S
N486 Co477 2.022 . S
N486 C483 1.351 . S
N486 N487 1.365 . S
N487 C484 1.341 . S
N487 N486 1.365 . S
N487 H507 0.862 . S
C488 C483 1.501 . S
C488 H489 0.961 . S
C488 H490 0.961 . S
C488 H491 0.960 . S
H489 C488 0.961 . S
H490 C488 0.961 . S
H491 C488 0.960 . S
C492 N493 1.342 . S
C492 C496 1.401 . S
C492 C497 1.499 . S
N493 Co476 1.989 . S
N493 C492 1.342 . S
N493 N494 1.388 . S
N494 Co477 1.993 . S
N494 N493 1.388 . S
N494 C495 1.346 . S
C495 N494 1.346 . S
C495 C496 1.396 . S
C495 C505 1.510 . S
C496 C492 1.401 . S
C496 C495 1.396 . S
C497 C492 1.499 . S
C497 H498 0.959 . S
C497 H499 0.960 . S
C497 H500 0.961 . S
H498 C497 0.959 . S
H499 C497 0.960 . S
H500 C497 0.961 . S
O501 Co476 1.967 . S
O501 C509 1.258 . S
O502 Co477 1.941 . S
O502 C509 1.266 . S
H503 C505 0.959 . S
H504 C505 0.961 . S
C505 C495 1.510 . S
C505 H503 0.959 . S
C505 H504 0.961 . S
C505 H506 0.960 . S
H506 C505 0.960 . S
H507 N487 0.862 . S
O508 Co476 1.920 . S
O508 C481 1.289 . S
C509 O501 1.258 . S
C509 O502 1.266 . S
Co510 O513 1.970 . S
Co510 N527 1.989 . S
Co510 O535 1.967 . S
Co510 O542 1.920 . S
Co511 O514 1.966 . S
Co511 N520 2.022 . S
Co511 N528 1.993 . S
Co511 O536 1.941 . S
C512 O513 1.258 . S
C512 O514 1.263 . S
O513 Co510 1.970 . S
O513 C512 1.258 . S
O514 Co511 1.966 . S
O514 C512 1.263 . S
C515 O516 1.235 . S
C515 O542 1.289 . S
O516 C515 1.235 . S
C517 C519 1.400 . S
C517 N520 1.351 . S
C517 C522 1.501 . S
C518 C519 1.387 . S
C518 N521 1.341 . S
C519 C517 1.400 . S
C519 C518 1.387 . S
N520 Co511 2.022 . S
N520 C517 1.351 . S
N520 N521 1.365 . S
N521 C518 1.341 . S
N521 N520 1.365 . S
N521 H541 0.862 . S
C522 C517 1.501 . S
C522 H523 0.961 . S
C522 H524 0.961 . S
C522 H525 0.960 . S
H523 C522 0.961 . S
H524 C522 0.961 . S
H525 C522 0.960 . S
C526 N527 1.342 . S
C526 C530 1.401 . S
C526 C531 1.499 . S
N527 Co510 1.989 . S
N527 C526 1.342 . S
N527 N528 1.388 . S
N528 Co511 1.993 . S
N528 N527 1.388 . S
N528 C529 1.346 . S
C529 N528 1.346 . S
C529 C530 1.396 . S
C529 C539 1.510 . S
C530 C526 1.401 . S
C530 C529 1.396 . S
C531 C526 1.499 . S
C531 H532 0.959 . S
C531 H533 0.960 . S
C531 H534 0.961 . S
H532 C531 0.959 . S
H533 C531 0.960 . S
H534 C531 0.961 . S
O535 Co510 1.967 . S
O535 C543 1.258 . S
O536 Co511 1.941 . S
O536 C543 1.266 . S
H537 C539 0.959 . S
H538 C539 0.961 . S
C539 C529 1.510 . S
C539 H537 0.959 . S
C539 H538 0.961 . S
C539 H540 0.960 . S
H540 C539 0.960 . S
H541 N521 0.862 . S
O542 Co510 1.920 . S
O542 C515 1.289 . S
C543 O535 1.258 . S
C543 O536 1.266 . S
C544 C545 1.387 . S
C544 H548 0.950 . S
C544 C553 1.390 . S
C545 C544 1.387 . S
C545 C547 1.387 . S
H546 C553 0.950 . S
C547 C545 1.387 . S
C547 C549 1.390 . S
C547 H551 0.950 . S
H548 C544 0.950 . S
C549 C547 1.390 . S
C549 C550 1.387 . S
C549 H552 0.950 . S
C550 C549 1.387 . S
C550 C553 1.387 . S
H551 C547 0.950 . S
H552 C549 0.950 . S
C553 C544 1.390 . S
C553 H546 0.950 . S
C553 C550 1.387 . S
C554 C555 1.387 . S
C554 H558 0.950 . S
C554 C563 1.390 . S
C555 C554 1.387 . S
C555 C557 1.387 . S
H556 C563 0.950 . S
C557 C555 1.387 . S
C557 C559 1.390 . S
C557 H561 0.950 . S
H558 C554 0.950 . S
C559 C557 1.390 . S
C559 C560 1.387 . S
C559 H562 0.950 . S
C560 C559 1.387 . S
C560 C563 1.387 . S
H561 C557 0.950 . S
H562 C559 0.950 . S
C563 C554 1.390 . S
C563 H556 0.950 . S
C563 C560 1.387 . S
C564 C565 1.387 . S
C564 H568 0.950 . S
C564 C573 1.390 . S
C565 C564 1.387 . S
C565 C567 1.387 . S
H566 C573 0.950 . S
C567 C565 1.387 . S
C567 C569 1.390 . S
C567 H571 0.950 . S
H568 C564 0.950 . S
C569 C567 1.390 . S
C569 C570 1.387 . S
C569 H572 0.950 1_556 S
C570 C569 1.387 . S
C570 C573 1.387 . S
H571 C567 0.950 . S
H572 C569 0.950 1_554 S
C573 C564 1.390 . S
C573 H566 0.950 . S
C573 C570 1.387 . S
C574 C575 1.387 . S
C574 H578 0.950 . S
C574 C583 1.390 . S
C575 C574 1.387 . S
C575 C577 1.387 . S
H576 C583 0.950 . S
C577 C575 1.387 . S
C577 C579 1.390 . S
C577 H581 0.950 . S
H578 C574 0.950 . S
C579 C577 1.390 . S
C579 C580 1.387 . S
C579 H582 0.950 . S
C580 C579 1.387 . S
C580 C583 1.387 . S
H581 C577 0.950 . S
H582 C579 0.950 . S
C583 C574 1.390 . S
C583 H576 0.950 . S
C583 C580 1.387 . S
C584 C585 1.387 . S
C584 H588 0.950 . S
C584 C593 1.390 . S
C585 C584 1.387 . S
C585 C587 1.387 . S
H586 C593 0.950 . S
C587 C585 1.387 . S
C587 C589 1.390 . S
C587 H591 0.950 . S
H588 C584 0.950 . S
C589 C587 1.390 . S
C589 C590 1.387 . S
C589 H592 0.950 . S
C590 C589 1.387 . S
C590 C593 1.387 . S
H591 C587 0.950 . S
H592 C589 0.950 . S
C593 C584 1.390 . S
C593 H586 0.950 . S
C593 C590 1.387 . S
C594 C595 1.387 . S
C594 H598 0.950 . S
C594 C603 1.390 . S
C595 C594 1.387 . S
C595 C597 1.387 . S
H596 C603 0.950 . S
C597 C595 1.387 . S
C597 C599 1.390 . S
C597 H601 0.950 . S
H598 C594 0.950 . S
C599 C597 1.390 . S
C599 C600 1.387 . S
C599 H602 0.950 . S
C600 C599 1.387 . S
C600 C603 1.387 . S
H601 C597 0.950 . S
H602 C599 0.950 . S
C603 C594 1.390 . S
C603 H596 0.950 . S
C603 C600 1.387 . S
C604 C605 1.387 . S
C604 H608 0.950 . S
C604 C613 1.390 . S
C605 C604 1.387 . S
C605 C607 1.387 . S
H606 C613 0.950 . S
C607 C605 1.387 . S
C607 C609 1.390 . S
C607 H611 0.950 1_554 S
H608 C604 0.950 . S
C609 C607 1.390 . S
C609 C610 1.387 . S
C609 H612 0.950 . S
C610 C609 1.387 . S
C610 C613 1.387 . S
H611 C607 0.950 1_556 S
H612 C609 0.950 . S
C613 C604 1.390 . S
C613 H606 0.950 . S
C613 C610 1.387 . S
C614 C615 1.387 . S
C614 H618 0.950 . S
C614 C623 1.390 . S
C615 C614 1.387 . S
C615 C617 1.387 . S
H616 C623 0.950 . S
C617 C615 1.387 . S
C617 C619 1.390 . S
C617 H621 0.950 . S
H618 C614 0.950 . S
C619 C617 1.390 . S
C619 C620 1.387 . S
C619 H622 0.950 . S
C620 C619 1.387 . S
C620 C623 1.387 . S
H621 C617 0.950 . S
H622 C619 0.950 . S
C623 C614 1.390 . S
C623 H616 0.950 . S
C623 C620 1.387 . S
C624 C625 1.387 . S
C624 H628 0.950 . S
C624 C633 1.390 . S
C625 C624 1.387 . S
C625 C627 1.387 . S
H626 C633 0.950 . S
C627 C625 1.387 . S
C627 C629 1.390 . S
C627 H631 0.950 . S
H628 C624 0.950 . S
C629 C627 1.390 . S
C629 C630 1.387 . S
C629 H632 0.950 . S
C630 C629 1.387 . S
C630 C633 1.387 . S
H631 C627 0.950 . S
H632 C629 0.950 . S
C633 C624 1.390 . S
C633 H626 0.950 . S
C633 C630 1.387 . S
C634 C635 1.387 . S
C634 H638 0.950 . S
C634 C643 1.390 . S
C635 C634 1.387 . S
C635 C637 1.387 . S
H636 C643 0.950 . S
C637 C635 1.387 . S
C637 C639 1.390 . S
C637 H641 0.957 . S
H638 C634 0.950 . S
C639 C637 1.390 . S
C639 C640 1.387 . S
C639 H642 0.950 . S
C640 C639 1.387 . S
C640 C643 1.387 . S
H641 C637 0.957 . S
H642 C639 0.950 . S
C643 C634 1.390 . S
C643 H636 0.950 . S
C643 C640 1.387 . S
C644 C645 1.387 . S
C644 H648 0.950 . S
C644 C653 1.390 . S
C645 C644 1.387 . S
C645 C647 1.387 . S
H646 C653 0.950 . S
C647 C645 1.387 . S
C647 C649 1.390 . S
C647 H651 0.950 . S
H648 C644 0.950 . S
C649 C647 1.390 . S
C649 C650 1.387 . S
C649 H652 0.950 . S
C650 C649 1.387 . S
C650 C653 1.387 . S
H651 C647 0.950 . S
H652 C649 0.950 . S
C653 C644 1.390 . S
C653 H646 0.950 . S
C653 C650 1.387 . S
C654 C655 1.387 . S
C654 H658 0.950 . S
C654 C663 1.390 . S
C655 C654 1.387 . S
C655 C657 1.387 . S
H656 C663 0.950 . S
C657 C655 1.387 . S
C657 C659 1.390 . S
C657 H661 0.950 . S
H658 C654 0.950 . S
C659 C657 1.390 . S
C659 C660 1.387 . S
C659 H662 0.950 . S
C660 C659 1.387 . S
C660 C663 1.387 . S
H661 C657 0.950 . S
H662 C659 0.950 . S
C663 C654 1.390 . S
C663 H656 0.950 . S
C663 C660 1.387 . S
C664 C665 1.387 . S
C664 H668 0.950 . S
C664 C673 1.390 . S
C665 C664 1.387 . S
C665 C667 1.387 . S
H666 C673 0.950 . S
C667 C665 1.387 . S
C667 C669 1.390 . S
C667 H671 0.950 . S
H668 C664 0.950 . S
C669 C667 1.390 . S
C669 C670 1.387 . S
C669 H672 0.950 . S
C670 C669 1.387 . S
C670 C673 1.387 . S
H671 C667 0.950 . S
H672 C669 0.950 . S
C673 C664 1.390 . S
C673 H666 0.950 . S
C673 C670 1.387 . S
C674 C675 1.387 . S
C674 H678 0.950 . S
C674 C683 1.390 . S
C675 C674 1.387 . S
C675 C677 1.387 . S
H676 C683 0.950 . S
C677 C675 1.387 . S
C677 C679 1.390 . S
C677 H681 0.950 . S
H678 C674 0.950 . S
C679 C677 1.390 . S
C679 C680 1.387 . S
C679 H682 0.950 . S
C680 C679 1.387 . S
C680 C683 1.387 . S
H681 C677 0.950 . S
H682 C679 0.950 . S
C683 C674 1.390 . S
C683 H676 0.950 . S
C683 C680 1.387 . S
C684 C685 1.387 . S
C684 H688 0.950 . S
C684 C693 1.390 . S
C685 C684 1.387 . S
C685 C687 1.387 . S
H686 C693 0.950 . S
C687 C685 1.387 . S
C687 C689 1.390 . S
C687 H691 0.950 . S
H688 C684 0.950 . S
C689 C687 1.390 . S
C689 C690 1.387 . S
C689 H692 0.950 . S
C690 C689 1.387 . S
C690 C693 1.387 . S
H691 C687 0.950 . S
H692 C689 0.950 . S
C693 C684 1.390 . S
C693 H686 0.950 . S
C693 C690 1.387 . S
C694 C695 1.387 . S
C694 H698 0.950 . S
C694 C703 1.390 . S
C695 C694 1.387 . S
C695 C697 1.387 . S
H696 C703 0.950 . S
C697 C695 1.387 . S
C697 C699 1.390 . S
C697 H701 0.950 . S
H698 C694 0.950 . S
C699 C697 1.390 . S
C699 C700 1.387 . S
C699 H702 0.950 . S
C700 C699 1.387 . S
C700 C703 1.387 . S
H701 C697 0.950 . S
H702 C699 0.950 . S
C703 C694 1.390 . S
C703 H696 0.950 . S
C703 C700 1.387 . S
C704 C705 1.387 . S
C704 H708 0.950 . S
C704 C713 1.390 . S
C705 C704 1.387 . S
C705 C707 1.387 . S
H706 C713 0.950 . S
C707 C705 1.387 . S
C707 C709 1.390 . S
C707 H711 0.950 . S
H708 C704 0.950 . S
C709 C707 1.390 . S
C709 C710 1.387 . S
C709 H712 0.950 . S
C710 C709 1.387 . S
C710 C713 1.387 . S
H711 C707 0.950 . S
H712 C709 0.950 . S
C713 C704 1.390 . S
C713 H706 0.950 . S
C713 C710 1.387 . S
C714 C715 1.387 . S
C714 H718 0.950 . S
C714 C723 1.390 . S
C715 C714 1.387 . S
C715 C717 1.387 . S
H716 C723 0.950 . S
C717 C715 1.387 . S
C717 C719 1.390 . S
C717 H721 0.950 . S
H718 C714 0.950 . S
C719 C717 1.390 . S
C719 C720 1.387 . S
C719 H722 0.950 . S
C720 C719 1.387 . S
C720 C723 1.387 . S
H721 C717 0.950 . S
H722 C719 0.950 . S
C723 C714 1.390 . S
C723 H716 0.950 . S
C723 C720 1.387 . S
C724 C725 1.387 . S
C724 H728 0.950 . S
C724 C733 1.390 . S
C725 C724 1.387 . S
C725 C727 1.387 . S
H726 C733 0.950 . S
C727 C725 1.387 . S
C727 C729 1.390 . S
C727 H731 0.950 . S
H728 C724 0.950 . S
C729 C727 1.390 . S
C729 C730 1.387 . S
C729 H732 0.950 . S
C730 C729 1.387 . S
C730 C733 1.387 . S
H731 C727 0.950 . S
H732 C729 0.950 . S
C733 C724 1.390 . S
C733 H726 0.950 . S
C733 C730 1.387 . S
C734 C735 1.387 . S
C734 H738 0.950 . S
C734 C743 1.390 . S
C735 C734 1.387 . S
C735 C737 1.387 . S
H736 C743 0.950 . S
C737 C735 1.387 . S
C737 C739 1.390 . S
C737 H741 0.950 . S
H738 C734 0.950 . S
C739 C737 1.390 . S
C739 C740 1.387 . S
C739 H742 0.950 . S
C740 C739 1.387 . S
C740 C743 1.387 . S
H741 C737 0.950 . S
H742 C739 0.950 . S
C743 C734 1.390 . S
C743 H736 0.950 . S
C743 C740 1.387 . S
C744 C745 1.387 . S
C744 H748 0.950 . S
C744 C753 1.390 . S
C745 C744 1.387 . S
C745 C747 1.387 . S
H746 C753 0.950 . S
C747 C745 1.387 . S
C747 C749 1.390 . S
C747 H751 0.950 . S
H748 C744 0.950 . S
C749 C747 1.390 . S
C749 C750 1.387 . S
C749 H752 0.950 . S
C750 C749 1.387 . S
C750 C753 1.387 . S
H751 C747 0.950 . S
H752 C749 0.950 . S
C753 C744 1.390 . S
C753 H746 0.950 . S
C753 C750 1.387 . S
C754 C755 1.387 . S
C754 H758 0.950 . S
C754 C763 1.390 . S
C755 C754 1.387 . S
C755 C757 1.387 . S
H756 C763 0.950 . S
C757 C755 1.387 . S
C757 C759 1.390 . S
C757 H761 0.950 . S
H758 C754 0.950 . S
C759 C757 1.390 . S
C759 C760 1.387 . S
C759 H762 0.950 . S
C760 C759 1.387 . S
C760 C763 1.387 . S
H761 C757 0.950 . S
H762 C759 0.950 . S
C763 C754 1.390 . S
C763 H756 0.950 . S
C763 C760 1.387 . S
C764 C765 1.387 . S
C764 H768 0.950 . S
C764 C773 1.390 . S
C765 C764 1.387 . S
C765 C767 1.387 . S
H766 C773 0.950 . S
C767 C765 1.387 . S
C767 C769 1.390 . S
C767 H771 0.950 . S
H768 C764 0.950 . S
C769 C767 1.390 . S
C769 C770 1.387 . S
C769 H772 0.950 . S
C770 C769 1.387 . S
C770 C773 1.387 . S
H771 C767 0.950 . S
H772 C769 0.950 . S
C773 C764 1.390 . S
C773 H766 0.950 . S
C773 C770 1.387 . S
C774 C775 1.387 . S
C774 H778 0.950 . S
C774 C783 1.390 . S
C775 C774 1.387 . S
C775 C777 1.387 . S
H776 C783 0.950 . S
C777 C775 1.387 . S
C777 C779 1.390 . S
C777 H781 0.950 . S
H778 C774 0.950 . S
C779 C777 1.390 . S
C779 C780 1.387 . S
C779 H782 0.950 . S
C780 C779 1.387 . S
C780 C783 1.387 . S
H781 C777 0.950 . S
H782 C779 0.950 . S
C783 C774 1.390 . S
C783 H776 0.950 . S
C783 C780 1.387 . S
C784 C785 1.387 . S
C784 H788 0.950 . S
C784 C793 1.390 . S
C785 C784 1.387 . S
C785 C787 1.387 . S
H786 C793 0.950 . S
C787 C785 1.387 . S
C787 C789 1.390 . S
C787 H791 0.950 . S
H788 C784 0.950 . S
C789 C787 1.390 . S
C789 C790 1.387 . S
C789 H792 0.950 . S
C790 C789 1.387 . S
C790 C793 1.387 . S
H791 C787 0.950 . S
H792 C789 0.950 . S
C793 C784 1.390 . S
C793 H786 0.950 . S
C793 C790 1.387 . S
C794 C795 1.387 . S
C794 H798 0.950 . S
C794 C803 1.390 1_655 S
C795 C794 1.387 . S
C795 C797 1.387 1_565 S
H796 C803 0.950 . S
C797 C795 1.387 1_545 S
C797 C799 1.390 1_655 S
C797 H801 0.950 . S
H798 C794 0.950 . S
C799 C797 1.390 1_455 S
C799 C800 1.387 . S
C799 H802 0.950 . S
C800 C799 1.387 . S
C800 C803 1.387 1_545 S
H801 C797 0.950 . S
H802 C799 0.950 . S
C803 C794 1.390 1_455 S
C803 H796 0.950 . S
C803 C800 1.387 1_565 S
C804 C805 1.387 . S
C804 H808 0.950 . S
C804 C813 1.390 . S
C805 C804 1.387 . S
C805 C807 1.387 1_565 S
H806 C813 0.950 . S
C807 C805 1.387 1_545 S
C807 C809 1.390 . S
C807 H811 0.950 . S
H808 C804 0.950 . S
C809 C807 1.390 . S
C809 C810 1.387 . S
C809 H812 0.950 . S
C810 C809 1.387 . S
C810 C813 1.387 1_545 S
H811 C807 0.950 . S
H812 C809 0.950 . S
C813 C804 1.390 . S
C813 H806 0.950 . S
C813 C810 1.387 1_565 S
C814 C815 1.387 . S
C814 H818 0.950 . S
C814 C823 1.390 1_655 S
C815 C814 1.387 . S
C815 C817 1.387 . S
H816 C823 0.950 . S
C817 C815 1.387 . S
C817 C819 1.390 1_655 S
C817 H821 0.950 . S
H818 C814 0.950 . S
C819 C817 1.390 1_455 S
C819 C820 1.387 . S
C819 H822 0.950 . S
C820 C819 1.387 . S
C820 C823 1.387 . S
H821 C817 0.950 . S
H822 C819 0.950 . S
C823 C814 1.390 1_455 S
C823 H816 0.950 . S
C823 C820 1.387 . S
C824 C825 1.387 . S
C824 H828 0.950 . S
C824 C833 1.390 . S
C825 C824 1.387 . S
C825 C827 1.387 . S
H826 C833 0.950 . S
C827 C825 1.387 . S
C827 C829 1.390 . S
C827 H831 0.950 . S
H828 C824 0.950 . S
C829 C827 1.390 . S
C829 C830 1.387 . S
C829 H832 0.950 . S
C830 C829 1.387 . S
C830 C833 1.387 . S
H831 C827 0.950 . S
H832 C829 0.950 . S
C833 C824 1.390 . S
C833 H826 0.950 . S
C833 C830 1.387 . S
C834 C835 1.387 1_565 S
C834 H838 0.950 . S
C834 C843 1.390 . S
C835 C834 1.387 1_545 S
C835 C837 1.387 . S
H836 C843 0.950 . S
C837 C835 1.387 . S
C837 C839 1.390 . S
C837 H841 0.950 . S
H838 C834 0.950 . S
C839 C837 1.390 . S
C839 C840 1.387 1_545 S
C839 H842 0.950 . S
C840 C839 1.387 1_565 S
C840 C843 1.387 . S
H841 C837 0.950 . S
H842 C839 0.950 . S
C843 C834 1.390 . S
C843 H836 0.950 . S
C843 C840 1.387 . S
C844 C845 1.387 . S
C844 H848 0.950 . S
C844 C853 1.390 1_655 S
C845 C844 1.387 . S
C845 C847 1.387 . S
H846 C853 0.950 . S
C847 C845 1.387 . S
C847 C849 1.390 1_655 S
C847 H851 0.950 . S
H848 C844 0.950 . S
C849 C847 1.390 1_455 S
C849 C850 1.387 . S
C849 H852 0.950 . S
C850 C849 1.387 . S
C850 C853 1.387 . S
H851 C847 0.950 . S
H852 C849 0.950 . S
C853 C844 1.390 1_455 S
C853 H846 0.950 . S
C853 C850 1.387 . S
C854 C855 1.387 1_556 S
C854 H858 0.950 . S
C854 C863 1.390 . S
C855 C854 1.387 1_554 S
C855 C857 1.387 . S
H856 C863 0.950 . S
C857 C855 1.387 . S
C857 C859 1.390 . S
C857 H861 0.950 . S
H858 C854 0.950 . S
C859 C857 1.390 . S
C859 C860 1.387 1_554 S
C859 H862 0.950 . S
C860 C859 1.387 1_556 S
C860 C863 1.387 . S
H861 C857 0.950 . S
H862 C859 0.950 . S
C863 C854 1.390 . S
C863 H856 0.950 . S
C863 C860 1.387 . S
C864 C865 1.387 . S
C864 H868 0.950 . S
C864 C873 1.390 1_455 S
C865 C864 1.387 . S
C865 C867 1.387 1_556 S
H866 C873 0.950 . S
C867 C865 1.387 1_554 S
C867 C869 1.390 1_455 S
C867 H871 0.950 . S
H868 C864 0.950 . S
C869 C867 1.390 1_655 S
C869 C870 1.387 . S
C869 H872 0.950 . S
C870 C869 1.387 . S
C870 C873 1.387 1_554 S
H871 C867 0.950 . S
H872 C869 0.950 . S
C873 C864 1.390 1_655 S
C873 H866 0.950 . S
C873 C870 1.387 1_556 S
C874 C875 1.387 . S
C874 H878 0.950 . S
C874 C883 1.390 . S
C875 C874 1.387 . S
C875 C877 1.387 . S
H876 C883 0.950 . S
C877 C875 1.387 . S
C877 C879 1.390 . S
C877 H881 0.950 . S
H878 C874 0.950 . S
C879 C877 1.390 . S
C879 C880 1.387 . S
C879 H882 0.950 . S
C880 C879 1.387 . S
C880 C883 1.387 . S
H881 C877 0.950 . S
H882 C879 0.950 . S
C883 C874 1.390 . S
C883 H876 0.950 . S
C883 C880 1.387 . S
C884 C885 1.387 . S
C884 H888 0.950 . S
C884 C893 1.390 . S
C885 C884 1.387 . S
C885 C887 1.387 1_554 S
H886 C893 0.950 . S
C887 C885 1.387 1_556 S
C887 C889 1.390 . S
C887 H891 0.950 . S
H888 C884 0.950 . S
C889 C887 1.390 . S
C889 C890 1.387 . S
C889 H892 0.950 . S
C890 C889 1.387 . S
C890 C893 1.387 1_556 S
H891 C887 0.950 . S
H892 C889 0.950 . S
C893 C884 1.390 . S
C893 H886 0.950 . S
C893 C890 1.387 1_554 S
C894 C895 1.387 . S
C894 H898 0.950 . S
C894 C903 1.390 . S
C895 C894 1.387 . S
C895 C897 1.387 . S
H896 C903 0.950 . S
C897 C895 1.387 . S
C897 C899 1.390 . S
C897 H901 0.950 . S
H898 C894 0.950 . S
C899 C897 1.390 . S
C899 C900 1.387 . S
C899 H902 0.950 . S
C900 C899 1.387 . S
C900 C903 1.387 . S
H901 C897 0.950 . S
H902 C899 0.950 . S
C903 C894 1.390 . S
C903 H896 0.950 . S
C903 C900 1.387 . S
C904 C905 1.387 . S
C904 H908 0.950 . S
C904 C913 1.390 1_565 S
C905 C904 1.387 . S
C905 C907 1.387 1_554 S
H906 C913 0.950 . S
C907 C905 1.387 1_556 S
C907 C909 1.390 1_565 S
C907 H911 0.950 . S
H908 C904 0.950 . S
C909 C907 1.390 1_545 S
C909 C910 1.387 . S
C909 H912 0.950 . S
C910 C909 1.387 . S
C910 C913 1.387 1_556 S
H911 C907 0.950 . S
H912 C909 0.950 . S
C913 C904 1.390 1_545 S
C913 H906 0.950 . S
C913 C910 1.387 1_554 S
C914 C915 1.387 . S
C914 H918 0.950 . S
C914 C923 1.390 . S
C915 C914 1.387 . S
C915 C917 1.387 . S
H916 C923 0.950 . S
C917 C915 1.387 . S
C917 C919 1.390 . S
C917 H921 0.950 . S
H918 C914 0.950 . S
C919 C917 1.390 . S
C919 C920 1.387 . S
C919 H922 0.950 . S
C920 C919 1.387 . S
C920 C923 1.387 . S
H921 C917 0.950 . S
H922 C919 0.950 . S
C923 C914 1.390 . S
C923 H916 0.950 . S
C923 C920 1.387 . S
C924 C925 1.387 . S
C924 H928 0.950 . S
C924 C933 1.390 . S
C925 C924 1.387 . S
C925 C927 1.387 . S
H926 C933 0.950 . S
C927 C925 1.387 . S
C927 C929 1.390 . S
C927 H931 0.950 . S
H928 C924 0.950 . S
C929 C927 1.390 . S
C929 C930 1.387 . S
C929 H932 0.950 . S
C930 C929 1.387 . S
C930 C933 1.387 . S
H931 C927 0.950 . S
H932 C929 0.950 . S
C933 C924 1.390 . S
C933 H926 0.950 . S
C933 C930 1.387 . S
C934 C935 1.387 . S
C934 H938 0.950 . S
C934 C943 1.390 . S
C935 C934 1.387 . S
C935 C937 1.387 . S
H936 C943 0.950 . S
C937 C935 1.387 . S
C937 C939 1.390 . S
C937 H941 0.950 . S
H938 C934 0.950 . S
C939 C937 1.390 . S
C939 C940 1.387 . S
C939 H942 0.950 . S
C940 C939 1.387 . S
C940 C943 1.387 . S
H941 C937 0.950 . S
H942 C939 0.950 . S
C943 C934 1.390 . S
C943 H936 0.950 . S
C943 C940 1.387 . S
C545 C5 0.904 . S
C550 C315 0.874 . S
C555 C9 0.868 . S
C560 C311 0.900 . S
C565 C281 0.868 . S
C570 C39 0.899 . S
C575 C43 0.875 . S
C580 C277 0.903 . S
C585 C73 0.904 . S
C590 C383 0.875 . S
C595 C77 0.868 . S
C600 C379 0.899 . S
C605 C107 0.904 . S
C610 C349 0.875 . S
C615 C111 0.875 . S
C620 C345 0.904 . S
C625 C141 0.904 . S
C630 C451 0.875 . S
C635 C447 0.899 . S
C640 C145 0.868 . S
C645 C417 0.869 . S
C650 C175 0.899 . S
C655 C413 0.904 . S
C660 C179 0.875 . S
C665 C519 0.868 . S
C670 C209 0.900 . S
C675 C515 0.904 . S
C680 C213 0.875 . S
C685 C485 0.869 . S
C690 C243 0.901 . S
C695 C247 0.868 . S
C700 C481 0.899 . S
C705 C2 1.627 . S
C710 C36 1.627 1_554 S
C715 C104 1.627 1_556 S
C720 C70 1.627 . S
C725 C172 1.627 . S
C730 C138 1.627 . S
C735 C240 1.627 . S
C740 C206 1.627 . S
C745 C308 1.627 . S
C750 C274 1.627 . S
C755 C342 1.627 . S
C760 C376 1.627 . S
C765 C444 1.627 1_554 S
C770 C410 1.627 . S
C775 C478 1.627 . S
C780 C512 1.627 1_556 S
C785 C509 1.773 . S
C790 C33 1.773 . S
C795 C88 1.881 . S
C800 C20 1.881 . S
C805 C407 1.773 . S
C810 C67 1.773 . S
C815 C258 1.881 . S
C820 C54 1.881 . S
C825 C101 1.776 . S
C830 C441 1.776 . S
C835 C339 1.773 . S
C840 C135 1.773 . S
C845 C122 1.881 . S
C850 C190 1.881 . S
C855 C373 1.776 . S
C860 C169 1.776 . S
C865 C156 1.881 . S
C870 C224 1.881 . S
C875 C203 1.775 . S
C880 C543 1.775 . S
C885 C237 1.777 . S
C890 C305 1.777 . S
C895 C271 1.777 . S
C900 C475 1.777 . S
C905 C360 1.883 . S
C910 C292 1.883 . S
C915 C530 1.883 . S
C920 C326 1.883 . S
C925 C394 1.881 . S
C930 C462 1.881 . S
C935 C428 1.881 . S
C940 C496 1.881 . S
