# Generated by pormake.
# Topology upa, (4)-cn, num edge types: 1
# Building blocks:
#     Node 0, Type 0, BuildingBlock: NAHDIM_clean_sbu_0, # of connection points: 4
#     Node 1, Type 0, BuildingBlock: NAHDIM_clean_sbu_0, # of connection points: 4
#     Node 2, Type 0, BuildingBlock: NAHDIM_clean_sbu_0, # of connection points: 4
#     Node 3, Type 0, BuildingBlock: NAHDIM_clean_sbu_0, # of connection points: 4
#     Node 4, Type 0, BuildingBlock: NAHDIM_clean_sbu_0, # of connection points: 4
#     Node 5, Type 0, BuildingBlock: NAHDIM_clean_sbu_0, # of connection points: 4
#     Node 6, Type 0, BuildingBlock: NAHDIM_clean_sbu_0, # of connection points: 4
#     Node 7, Type 0, BuildingBlock: NAHDIM_clean_sbu_0, # of connection points: 4
#     Edge 8, Type (0, 0), BuildingBlock: TEMPAE_clean_linker_10, # of connection points: 2
#     Edge 9, Type (0, 0), BuildingBlock: TEMPAE_clean_linker_10, # of connection points: 2
#     Edge 10, Type (0, 0), BuildingBlock: TEMPAE_clean_linker_10, # of connection points: 2
#     Edge 11, Type (0, 0), BuildingBlock: TEMPAE_clean_linker_10, # of connection points: 2
#     Edge 12, Type (0, 0), BuildingBlock: TEMPAE_clean_linker_10, # of connection points: 2
#     Edge 13, Type (0, 0), BuildingBlock: TEMPAE_clean_linker_10, # of connection points: 2
#     Edge 14, Type (0, 0), BuildingBlock: TEMPAE_clean_linker_10, # of connection points: 2
#     Edge 15, Type (0, 0), BuildingBlock: TEMPAE_clean_linker_10, # of connection points: 2
#     Edge 16, Type (0, 0), BuildingBlock: TEMPAE_clean_linker_10, # of connection points: 2
#     Edge 17, Type (0, 0), BuildingBlock: TEMPAE_clean_linker_10, # of connection points: 2
#     Edge 18, Type (0, 0), BuildingBlock: TEMPAE_clean_linker_10, # of connection points: 2
#     Edge 19, Type (0, 0), BuildingBlock: TEMPAE_clean_linker_10, # of connection points: 2
#     Edge 20, Type (0, 0), BuildingBlock: TEMPAE_clean_linker_10, # of connection points: 2
#     Edge 21, Type (0, 0), BuildingBlock: TEMPAE_clean_linker_10, # of connection points: 2
#     Edge 22, Type (0, 0), BuildingBlock: TEMPAE_clean_linker_10, # of connection points: 2
#     Edge 23, Type (0, 0), BuildingBlock: TEMPAE_clean_linker_10, # of connection points: 2
# Relax obj value: 0.273
# Max RMSD: 0.206
# Mean RMSD: 0.206
data_MOF--net-upa--node1-NAHDIM_clean_sbu_0--edge1-TEMPAE_clean_linker_10
_symmetry_space_group_name_H-M    P1
_symmetry_Int_Tables_number       1
_symmetry_cell_setting            triclinic
loop_
_symmetry_equiv_pos_as_xyz
'x, y, z'
_cell_length_a     26.881459
_cell_length_b     26.892763
_cell_length_c     42.117398
_cell_angle_alpha  90.018217
_cell_angle_beta   89.991258
_cell_angle_gamma 89.972711
loop_
_atom_site_label
_atom_site_type_symbol
_atom_site_fract_x
_atom_site_fract_y
_atom_site_fract_z
_atom_type_partial_charge
C0 C 0.28196 0.21495 0.28693 0.0
O1 O 0.26388 0.26026 0.28883 0.0
O2 O 0.14895 0.24388 0.29429 0.0
Zn3 Zn 0.18818 0.18948 0.31616 0.0
O4 O 0.19426 0.20047 0.3634 0.0
C5 C 0.12172 0.12505 0.28352 0.0
O6 O 0.12777 0.15897 0.26143 0.0
O7 O 0.2559 0.17884 0.29692 0.0
C8 C 0.15705 0.19143 0.38113 0.0
O9 O 0.11522 0.17646 0.36812 0.0
C10 C 0.11807 0.27167 0.30873 0.0
O11 O 0.1205 0.27498 0.33979 0.0
O12 O 0.14663 0.12826 0.30912 0.0
C13 C 0.29185 0.80998 0.7822 0.0
O14 O 0.24884 0.78859 0.78794 0.0
O15 O 0.27236 0.6789 0.79585 0.0
Zn16 Zn 0.32852 0.72156 0.81248 0.0
O17 O 0.32323 0.73201 0.85987 0.0
C18 C 0.3897 0.65423 0.77803 0.0
O19 O 0.35289 0.65894 0.75775 0.0
O20 O 0.3316 0.78778 0.79029 0.0
C21 C 0.3407 0.69938 0.87866 0.0
O22 O 0.36169 0.65936 0.86676 0.0
C23 C 0.25169 0.64581 0.81288 0.0
O24 O 0.25883 0.64652 0.8437 0.0
O25 O 0.38987 0.68095 0.80297 0.0
C26 C 0.69868 0.78418 0.27682 0.0
O27 O 0.72956 0.75308 0.263 0.0
O28 O 0.82593 0.75428 0.29484 0.0
Zn29 Zn 0.78423 0.80701 0.31645 0.0
O30 O 0.78453 0.79924 0.36406 0.0
C31 C 0.845 0.8742 0.28117 0.0
O32 O 0.84252 0.83803 0.26027 0.0
O33 O 0.71398 0.81037 0.29995 0.0
C34 C 0.82482 0.80789 0.37888 0.0
O35 O 0.86476 0.8201 0.36266 0.0
C36 C 0.85499 0.72401 0.30873 0.0
O37 O 0.85125 0.718 0.33957 0.0
O38 O 0.81982 0.87102 0.30666 0.0
C39 C 0.72287 0.20664 0.78305 0.0
O40 O 0.76532 0.22812 0.79017 0.0
O41 O 0.74006 0.33814 0.79718 0.0
Zn42 Zn 0.68376 0.2946 0.8127 0.0
O43 O 0.68667 0.28327 0.86011 0.0
C44 C 0.6228 0.36165 0.77775 0.0
O45 O 0.66035 0.35788 0.75793 0.0
O46 O 0.68248 0.22864 0.79005 0.0
C47 C 0.66798 0.31531 0.87886 0.0
O48 O 0.64775 0.35572 0.86698 0.0
C49 C 0.75855 0.37233 0.81436 0.0
O50 O 0.74884 0.3726 0.8449 0.0
O51 O 0.62225 0.3345 0.80249 0.0
C52 C 0.77903 0.2632 0.21172 0.0
O53 O 0.76001 0.21829 0.20988 0.0
O54 O 0.64834 0.23347 0.20385 0.0
Zn55 Zn 0.68644 0.2881 0.18167 0.0
O56 O 0.69307 0.27782 0.13436 0.0
C57 C 0.6464 0.39249 0.18342 0.0
O58 O 0.68922 0.40954 0.17308 0.0
O59 O 0.75384 0.29978 0.20138 0.0
C60 C 0.65532 0.28496 0.11673 0.0
O61 O 0.61257 0.29662 0.12991 0.0
C62 C 0.61935 0.20364 0.1895 0.0
O63 O 0.62284 0.19928 0.15854 0.0
O64 O 0.64102 0.34627 0.18837 0.0
C65 C 0.22189 0.30925 0.71349 0.0
O66 O 0.26458 0.28673 0.70852 0.0
O67 O 0.24019 0.17787 0.70094 0.0
Zn68 Zn 0.18361 0.22021 0.68454 0.0
O69 O 0.18557 0.22724 0.63683 0.0
C70 C 0.12357 0.15407 0.72094 0.0
O71 O 0.16145 0.1583 0.74046 0.0
O72 O 0.18188 0.28761 0.70533 0.0
C73 C 0.1709 0.19088 0.61995 0.0
O74 O 0.15584 0.15 0.63408 0.0
C75 C 0.26454 0.14734 0.68392 0.0
O76 O 0.26125 0.15041 0.65289 0.0
O77 O 0.12248 0.1807 0.69599 0.0
C78 C 0.19189 0.7198 0.2083 0.0
O79 O 0.21375 0.76349 0.20759 0.0
O80 O 0.32588 0.73712 0.20419 0.0
Zn81 Zn 0.28307 0.69114 0.17813 0.0
O82 O 0.27953 0.71173 0.13222 0.0
C83 C 0.34618 0.61551 0.20338 0.0
O84 O 0.33923 0.64111 0.22959 0.0
O85 O 0.21471 0.68239 0.19697 0.0
C86 C 0.3201 0.71107 0.11668 0.0
O87 O 0.3616 0.70008 0.13162 0.0
C88 C 0.34966 0.77497 0.19445 0.0
O89 O 0.33981 0.79314 0.1662 0.0
O90 O 0.32177 0.62723 0.17864 0.0
C91 C 0.79354 0.70617 0.71182 0.0
O92 O 0.75112 0.72811 0.70515 0.0
O93 O 0.77714 0.83836 0.69935 0.0
Zn94 Zn 0.83296 0.79474 0.68309 0.0
O95 O 0.82952 0.78591 0.6355 0.0
C96 C 0.89418 0.8594 0.71931 0.0
O97 O 0.85685 0.85425 0.73916 0.0
O98 O 0.83396 0.72801 0.70477 0.0
C99 C 0.84671 0.81979 0.61752 0.0
O100 O 0.86619 0.85982 0.63038 0.0
C101 C 0.75599 0.871 0.68219 0.0
O102 O 0.76231 0.86952 0.6513 0.0
O103 O 0.89464 0.83379 0.69391 0.0
C104 C 0.08027 0.04648 0.30087 0.0
C105 C 0.08228 0.08719 0.28016 0.0
C106 C 0.04115 0.0121 0.29918 0.0
C107 C 0.00288 0.01904 0.2765 0.0
C108 C 0.00494 0.05981 0.25533 0.0
C109 C 0.04484 0.09325 0.25727 0.0
C110 C 0.04039 0.96874 0.32197 0.0
C111 C 0.96459 0.06859 0.23102 0.0
C112 C 0.92326 0.9067 0.25719 0.0
C113 C 0.88252 0.91386 0.27751 0.0
C114 C 0.96235 0.94115 0.25615 0.0
C115 C 0.96019 0.9841 0.27552 0.0
C116 C 0.9182 0.99253 0.29511 0.0
C117 C 0.88001 0.95703 0.29608 0.0
C118 C 0.00681 0.93061 0.23526 0.0
C119 C 0.91432 0.03831 0.31574 0.0
H120 H 0.10914 0.04164 0.31857 0.0
H121 H 0.04593 0.12493 0.24137 0.0
H122 H 0.00687 0.97097 0.33727 0.0
H123 H 0.0382 0.93323 0.30862 0.0
H124 H 0.07385 0.96775 0.33744 0.0
H125 H 0.9713 0.10261 0.21668 0.0
H126 H 0.96208 0.03624 0.21475 0.0
H127 H 0.92802 0.07222 0.24301 0.0
H128 H 0.92566 0.87314 0.24301 0.0
H129 H 0.8485 0.96272 0.31174 0.0
H130 H 0.04041 0.92556 0.25021 0.0
H131 H 0.014 0.96261 0.2193 0.0
H132 H 0.00168 0.89669 0.22056 0.0
H133 H 0.94402 0.03766 0.33402 0.0
H134 H 0.87774 0.041 0.32791 0.0
H135 H 0.91991 0.07231 0.30125 0.0
C136 C 0.41664 0.57478 0.75257 0.0
C137 C 0.42604 0.61332 0.77424 0.0
C138 C 0.44787 0.53306 0.75088 0.0
C139 C 0.4898 0.5301 0.77108 0.0
C140 C 0.50041 0.56961 0.79227 0.0
C141 C 0.46821 0.61064 0.79374 0.0
C142 C 0.43534 0.49163 0.72802 0.0
C143 C 0.5452 0.56801 0.8139 0.0
C144 C 0.54377 0.40442 0.79332 0.0
C145 C 0.58603 0.40215 0.77387 0.0
C146 C 0.51132 0.44526 0.79197 0.0
C147 C 0.52174 0.48498 0.77092 0.0
C148 C 0.56365 0.48235 0.75067 0.0
C149 C 0.59516 0.44083 0.75227 0.0
C150 C 0.46656 0.44651 0.81364 0.0
C151 C 0.57592 0.52397 0.72792 0.0
H152 H 0.38392 0.57637 0.73756 0.0
H153 H 0.4757 0.64033 0.81048 0.0
H154 H 0.46642 0.48615 0.71105 0.0
H155 H 0.43054 0.4562 0.74115 0.0
H156 H 0.40083 0.49925 0.71435 0.0
H157 H 0.54934 0.60263 0.82805 0.0
H158 H 0.54192 0.53611 0.83047 0.0
H159 H 0.57957 0.56231 0.79975 0.0
H160 H 0.53645 0.37462 0.81 0.0
H161 H 0.62791 0.43953 0.73726 0.0
H162 H 0.43217 0.45261 0.7996 0.0
H163 H 0.46998 0.47804 0.8305 0.0
H164 H 0.46236 0.4116 0.82748 0.0
H165 H 0.5447 0.52952 0.71107 0.0
H166 H 0.61034 0.51653 0.71411 0.0
H167 H 0.58074 0.55931 0.74116 0.0
C168 C 0.60754 0.47749 0.18521 0.0
C169 C 0.60285 0.42569 0.18745 0.0
C170 C 0.56574 0.50858 0.18836 0.0
C171 C 0.51823 0.48722 0.19351 0.0
C172 C 0.51332 0.435 0.19568 0.0
C173 C 0.55567 0.40497 0.19293 0.0
C174 C 0.57229 0.56422 0.18595 0.0
C175 C 0.46342 0.4106 0.20105 0.0
C176 C 0.41522 0.567 0.2284 0.0
C177 C 0.38779 0.5796 0.20123 0.0
C178 C 0.45775 0.5369 0.22626 0.0
C179 C 0.47339 0.51929 0.19621 0.0
C180 C 0.44549 0.53126 0.16875 0.0
C181 C 0.40291 0.5611 0.1716 0.0
C182 C 0.48621 0.52431 0.2561 0.0
C183 C 0.46079 0.51271 0.13633 0.0
H184 H 0.64384 0.49376 0.18102 0.0
H185 H 0.55152 0.36497 0.19468 0.0
H186 H 0.55006 0.57882 0.16581 0.0
H187 H 0.55826 0.58247 0.20783 0.0
H188 H 0.61179 0.57502 0.18243 0.0
H189 H 0.46482 0.36995 0.19655 0.0
H190 H 0.45159 0.41674 0.22598 0.0
H191 H 0.43454 0.42702 0.18543 0.0
H192 H 0.40384 0.5812 0.25137 0.0
H193 H 0.38214 0.57086 0.15045 0.0
H194 H 0.52517 0.53753 0.25402 0.0
H195 H 0.48755 0.48338 0.25928 0.0
H196 H 0.46928 0.54118 0.27762 0.0
H197 H 0.49906 0.52547 0.13078 0.0
H198 H 0.43538 0.52583 0.11729 0.0
H199 H 0.46128 0.47145 0.13614 0.0
C200 C 0.09744 0.07455 0.74661 0.0
C201 C 0.08733 0.11323 0.72519 0.0
C202 C 0.06666 0.03251 0.74826 0.0
C203 C 0.02449 0.0294 0.72827 0.0
C204 C 0.01303 0.06916 0.70747 0.0
C205 C 0.04476 0.11051 0.70605 0.0
C206 C 0.08005 0.99084 0.77072 0.0
C207 C 0.96801 0.06737 0.68603 0.0
C208 C 0.97273 0.90355 0.70453 0.0
C209 C 0.93048 0.90009 0.72391 0.0
C210 C 0.00454 0.9448 0.70644 0.0
C211 C 0.99345 0.98371 0.72799 0.0
C212 C 0.95159 0.97983 0.74819 0.0
C213 C 0.92076 0.9379 0.74605 0.0
C214 C 0.04922 0.94744 0.68475 0.0
C215 C 0.93857 0.02061 0.77142 0.0
H216 H 0.13045 0.0762 0.76136 0.0
H217 H 0.0367 0.14031 0.6895 0.0
H218 H 0.04917 0.98449 0.78771 0.0
H219 H 0.08541 0.95577 0.75727 0.0
H220 H 0.11452 0.99875 0.78437 0.0
H221 H 0.96289 0.10241 0.67246 0.0
H222 H 0.97189 0.0362 0.66893 0.0
H223 H 0.93394 0.06033 0.70021 0.0
H224 H 0.98049 0.87442 0.68743 0.0
H225 H 0.88799 0.93568 0.76098 0.0
H226 H 0.08351 0.95396 0.69881 0.0
H227 H 0.04506 0.97923 0.66818 0.0
H228 H 0.05414 0.91292 0.67059 0.0
H229 H 0.96977 0.02641 0.78824 0.0
H230 H 0.9044 0.01211 0.78522 0.0
H231 H 0.93285 0.05616 0.75856 0.0
C232 C 0.20731 0.19769 0.43097 0.0
C233 C 0.16074 0.19679 0.41598 0.0
C234 C 0.21104 0.19937 0.46421 0.0
C235 C 0.16715 0.20103 0.48278 0.0
C236 C 0.12011 0.202 0.4677 0.0
C237 C 0.11747 0.19942 0.43448 0.0
C238 C 0.26183 0.19761 0.47947 0.0
C239 C 0.07249 0.20463 0.48667 0.0
C240 C 0.1683 0.15024 0.56675 0.0
C241 C 0.17158 0.19382 0.5849 0.0
C242 C 0.16798 0.1521 0.53349 0.0
C243 C 0.17015 0.19875 0.51799 0.0
C244 C 0.17374 0.24291 0.53616 0.0
C245 C 0.17483 0.2399 0.56945 0.0
C246 C 0.16487 0.10412 0.51494 0.0
C247 C 0.17541 0.29334 0.52045 0.0
H248 H 0.24088 0.19555 0.41677 0.0
H249 H 0.08138 0.19925 0.423 0.0
H250 H 0.26644 0.22922 0.49613 0.0
H251 H 0.26557 0.16292 0.49354 0.0
H252 H 0.29233 0.19885 0.46169 0.0
H253 H 0.03918 0.20883 0.47129 0.0
H254 H 0.06818 0.17028 0.50098 0.0
H255 H 0.07385 0.23638 0.50347 0.0
H256 H 0.16621 0.11449 0.57855 0.0
H257 H 0.1772 0.27371 0.58339 0.0
H258 H 0.19626 0.10167 0.4979 0.0
H259 H 0.12996 0.1033 0.50092 0.0
H260 H 0.16576 0.07085 0.53057 0.0
H261 H 0.20701 0.29518 0.50355 0.0
H262 H 0.17925 0.32404 0.53793 0.0
H263 H 0.14087 0.29936 0.50654 0.0
C264 C 0.32389 0.7514 0.92686 0.0
C265 C 0.33574 0.70514 0.91344 0.0
C266 C 0.31982 0.7571 0.95993 0.0
C267 C 0.32701 0.71537 0.97989 0.0
C268 C 0.33826 0.66847 0.9664 0.0
C269 C 0.34286 0.66402 0.93338 0.0
C270 C 0.30851 0.80782 0.97351 0.0
C271 C 0.34556 0.62292 0.98688 0.0
C272 C 0.36547 0.72742 0.0661 0.0
C273 C 0.3205 0.71816 0.08188 0.0
C274 C 0.36762 0.72911 0.03285 0.0
C275 C 0.32388 0.72051 0.01498 0.0
C276 C 0.278 0.71295 0.03079 0.0
C277 C 0.27679 0.71226 0.06412 0.0
C278 C 0.41708 0.73816 0.01687 0.0
C279 C 0.23068 0.70312 0.01253 0.0
H280 H 0.31851 0.78335 0.91156 0.0
H281 H 0.35165 0.62808 0.92315 0.0
H282 H 0.27423 0.80626 0.98814 0.0
H283 H 0.33925 0.8197 0.98937 0.0
H284 H 0.30346 0.83639 0.95474 0.0
H285 H 0.35239 0.58886 0.97259 0.0
H286 H 0.37763 0.62859 0.00305 0.0
H287 H 0.31223 0.61677 0.00191 0.0
H288 H 0.39929 0.73249 0.07974 0.0
H289 H 0.24195 0.70497 0.0762 0.0
H290 H 0.41352 0.76782 -0.00129 0.0
H291 H 0.42927 0.70386 0.00445 0.0
H292 H 0.44647 0.74905 0.03406 0.0
H293 H 0.22477 0.7323 0.99432 0.0
H294 H 0.19752 0.70174 0.02825 0.0
H295 H 0.23383 0.66705 -0.00013 0.0
C296 C 0.83409 0.76937 0.56818 0.0
C297 C 0.84268 0.81558 0.58261 0.0
C298 C 0.83067 0.76516 0.53501 0.0
C299 C 0.83501 0.80832 0.51596 0.0
C300 C 0.84303 0.85512 0.53047 0.0
C301 C 0.84722 0.8581 0.56359 0.0
C302 C 0.82298 0.71452 0.52032 0.0
C303 C 0.84709 0.90211 0.511 0.0
C304 C 0.87284 0.80019 0.42933 0.0
C305 C 0.8269 0.80499 0.41389 0.0
C306 C 0.87582 0.7995 0.46258 0.0
C307 C 0.83187 0.80474 0.48079 0.0
C308 C 0.78527 0.80891 0.46534 0.0
C309 C 0.78329 0.80849 0.43202 0.0
C310 C 0.92609 0.79403 0.4782 0.0
C311 C 0.7377 0.81537 0.48396 0.0
H312 H 0.83076 0.73636 0.58278 0.0
H313 H 0.85346 0.89398 0.57463 0.0
H314 H 0.78832 0.71429 0.50603 0.0
H315 H 0.85415 0.70591 0.50394 0.0
H316 H 0.82058 0.68461 0.53844 0.0
H317 H 0.85173 0.93576 0.52601 0.0
H318 H 0.8793 0.89947 0.49462 0.0
H319 H 0.81327 0.90682 0.49619 0.0
H320 H 0.90661 0.79699 0.4154 0.0
H321 H 0.74771 0.81241 0.42018 0.0
H322 H 0.92536 0.76302 0.49556 0.0
H323 H 0.93526 0.82842 0.49152 0.0
H324 H 0.95619 0.78689 0.4607 0.0
H325 H 0.73328 0.78455 0.50122 0.0
H326 H 0.70436 0.81648 0.4684 0.0
H327 H 0.73934 0.85048 0.49778 0.0
C328 C 0.66209 0.34827 0.93408 0.0
C329 C 0.66941 0.30781 0.91362 0.0
C330 C 0.66227 0.34194 0.96712 0.0
C331 C 0.66905 0.2938 0.98002 0.0
C332 C 0.67676 0.25279 0.95951 0.0
C333 C 0.6773 0.26036 0.9265 0.0
C334 C 0.65474 0.38675 0.98822 0.0
C335 C 0.68333 0.20082 0.9724 0.0
C336 C 0.70611 0.28754 0.06696 0.0
C337 C 0.65965 0.28264 0.08177 0.0
C338 C 0.70997 0.28997 0.03375 0.0
C339 C 0.6664 0.28653 0.01497 0.0
C340 C 0.61968 0.27936 0.02979 0.0
C341 C 0.61682 0.27797 0.06303 0.0
C342 C 0.76035 0.29831 0.01882 0.0
C343 C 0.57249 0.27461 0.01057 0.0
H344 H 0.65641 0.3851 0.92427 0.0
H345 H 0.68278 0.22893 0.91077 0.0
H346 H 0.61992 0.38245 0.00209 0.0
H347 H 0.68579 0.38978 0.00547 0.0
H348 H 0.65248 0.42194 0.97448 0.0
H349 H 0.69016 0.17312 0.95331 0.0
H350 H 0.71494 0.19974 0.98931 0.0
H351 H 0.64952 0.18966 0.98572 0.0
H352 H 0.73932 0.29132 0.08136 0.0
H353 H 0.58086 0.27368 0.07435 0.0
H354 H 0.76096 0.33509 0.00689 0.0
H355 H 0.76768 0.26978 0.00038 0.0
H356 H 0.79091 0.29716 0.03656 0.0
H357 H 0.56465 0.31023 0.99826 0.0
H358 H 0.53986 0.26497 0.02554 0.0
H359 H 0.57696 0.24563 0.99203 0.0
C360 C 0.53151 0.17334 0.1881 0.0
C361 C 0.57333 0.18742 0.20591 0.0
C362 C 0.48422 0.17071 0.20214 0.0
C363 C 0.47879 0.18175 0.23483 0.0
C364 C 0.52153 0.19124 0.25351 0.0
C365 C 0.5683 0.19413 0.2388 0.0
C366 C 0.43962 0.16033 0.18139 0.0
C367 C 0.51746 0.20224 0.28856 0.0
C368 C 0.35916 0.24539 0.26018 0.0
C369 C 0.33226 0.20608 0.27364 0.0
C370 C 0.40681 0.23779 0.24752 0.0
C371 C 0.42832 0.1897 0.24846 0.0
C372 C 0.40154 0.14984 0.26215 0.0
C373 C 0.35372 0.15845 0.27449 0.0
C374 C 0.43404 0.2813 0.23299 0.0
C375 C 0.42345 0.09821 0.26384 0.0
H376 H 0.53495 0.16786 0.1627 0.0
H377 H 0.6005 0.20449 0.25282 0.0
H378 H 0.4145 0.133 0.19285 0.0
H379 H 0.41816 0.1952 0.17801 0.0
H380 H 0.45053 0.14595 0.15765 0.0
H381 H 0.55428 0.20124 0.30052 0.0
H382 H 0.50118 0.2398 0.29194 0.0
H383 H 0.4924 0.17519 0.30036 0.0
H384 H 0.34289 0.28226 0.25938 0.0
H385 H 0.33327 0.12785 0.28497 0.0
H386 H 0.44274 0.27329 0.20774 0.0
H387 H 0.4699 0.28734 0.24544 0.0
H388 H 0.41205 0.31624 0.23417 0.0
H389 H 0.43196 0.08453 0.23959 0.0
H390 H 0.39801 0.07132 0.27555 0.0
H391 H 0.45904 0.09908 0.27716 0.0
C392 C 0.33922 0.88542 0.76465 0.0
C393 C 0.29388 0.85988 0.76733 0.0
C394 C 0.34132 0.93326 0.75134 0.0
C395 C 0.29709 0.95588 0.74025 0.0
C396 C 0.25129 0.93012 0.7426 0.0
C397 C 0.25023 0.88252 0.7562 0.0
C398 C 0.39072 0.95981 0.74946 0.0
C399 C 0.20327 0.95294 0.73088 0.0
C400 C 0.28167 0.09531 0.73189 0.0
C401 C 0.28376 0.10125 0.69881 0.0
C402 C 0.28875 0.04854 0.74592 0.0
C403 C 0.29816 0.00673 0.7264 0.0
C404 C 0.30395 0.01312 0.69324 0.0
C405 C 0.29688 0.06038 0.67984 0.0
C406 C 0.2828 0.04337 0.78142 0.0
C407 C 0.31407 0.96945 0.67164 0.0
H408 H 0.37312 0.86828 0.77328 0.0
H409 H 0.21506 0.86306 0.75811 0.0
H410 H 0.39905 0.96989 0.72449 0.0
H411 H 0.38899 0.99495 0.76323 0.0
H412 H 0.4218 0.93684 0.7588 0.0
H413 H 0.17109 0.92738 0.73357 0.0
H414 H 0.19529 0.98761 0.74423 0.0
H415 H 0.20678 0.96316 0.70546 0.0
H416 H 0.2719 0.12671 0.74679 0.0
H417 H 0.29875 0.06455 0.65428 0.0
H418 H 0.31344 0.0207 0.79152 0.0
H419 H 0.24739 0.02385 0.78668 0.0
H420 H 0.28218 0.08003 0.79358 0.0
H421 H 0.34536 0.9468 0.68089 0.0
H422 H 0.32305 0.98134 0.64703 0.0
H423 H 0.28077 0.94512 0.67083 0.0
C424 C 0.61488 0.825 0.27846 0.0
C425 C 0.64649 0.78843 0.26582 0.0
C426 C 0.56517 0.82897 0.26853 0.0
C427 C 0.54659 0.79539 0.24555 0.0
C428 C 0.57836 0.75857 0.23258 0.0
C429 C 0.62796 0.75566 0.24278 0.0
C430 C 0.5324 0.8687 0.28285 0.0
C431 C 0.55978 0.72174 0.2082 0.0
C432 C 0.4096 0.76426 0.23923 0.0
C433 C 0.39627 0.78878 0.21105 0.0
C434 C 0.45783 0.76806 0.25162 0.0
C435 C 0.49354 0.79745 0.23562 0.0
C436 C 0.47934 0.8253 0.20856 0.0
C437 C 0.43081 0.82062 0.19657 0.0
C438 C 0.4714 0.7379 0.28061 0.0
C439 C 0.51627 0.8575 0.19108 0.0
H440 H 0.62893 0.8506 0.2962 0.0
H441 H 0.65206 0.72726 0.23292 0.0
H442 H 0.51619 0.89219 0.26383 0.0
H443 H 0.50096 0.85118 0.29572 0.0
H444 H 0.553 0.89301 0.29964 0.0
H445 H 0.58948 0.69601 0.20001 0.0
H446 H 0.52903 0.69933 0.21839 0.0
H447 H 0.54465 0.74177 0.18729 0.0
H448 H 0.3831 0.73985 0.25078 0.0
H449 H 0.42086 0.83987 0.17487 0.0
H450 H 0.49118 0.76134 0.29822 0.0
H451 H 0.49701 0.7074 0.27365 0.0
H452 H 0.43823 0.72123 0.29219 0.0
H453 H 0.53668 0.88177 0.20792 0.0
H454 H 0.49806 0.88121 0.17287 0.0
H455 H 0.54414 0.83352 0.17909 0.0
C456 C 0.67719 0.13107 0.76393 0.0
C457 C 0.72214 0.1569 0.76789 0.0
C458 C 0.67626 0.08342 0.75028 0.0
C459 C 0.7213 0.06127 0.74013 0.0
C460 C 0.76675 0.08729 0.74382 0.0
C461 C 0.76662 0.13469 0.75775 0.0
C462 C 0.62721 0.05659 0.74696 0.0
C463 C 0.81559 0.06501 0.73312 0.0
C464 C 0.73734 0.92201 0.73046 0.0
C465 C 0.73683 0.91698 0.69729 0.0
C466 C 0.72968 0.96844 0.74487 0.0
C467 C 0.72136 0.01081 0.72566 0.0
C468 C 0.71742 0.00538 0.69233 0.0
C469 C 0.72499 0.95847 0.67855 0.0
C470 C 0.73366 0.97261 0.78054 0.0
C471 C 0.70855 0.04967 0.67103 0.0
H472 H 0.64266 0.14787 0.7718 0.0
H473 H 0.8015 0.15438 0.76065 0.0
H474 H 0.62032 0.04729 0.72168 0.0
H475 H 0.62845 0.02101 0.76027 0.0
H476 H 0.59546 0.07903 0.75592 0.0
H477 H 0.82282 0.02992 0.74618 0.0
H478 H 0.81382 0.05562 0.70749 0.0
H479 H 0.84746 0.09057 0.73702 0.0
H480 H 0.74619 0.89016 0.74518 0.0
H481 H 0.72433 0.955 0.65291 0.0
H482 H 0.70231 0.99478 0.79021 0.0
H483 H 0.7686 0.99223 0.78683 0.0
H484 H 0.73388 0.93561 0.79226 0.0
H485 H 0.6765 0.07184 0.67969 0.0
H486 H 0.70138 0.03853 0.64605 0.0
H487 H 0.74171 0.07423 0.6715 0.0
C488 C 0.03031 0.30252 0.30961 0.0
C489 C 0.07173 0.28645 0.29209 0.0
C490 C 0.98289 0.30481 0.29572 0.0
C491 C 0.97686 0.29121 0.26348 0.0
C492 C 0.01915 0.27904 0.245 0.0
C493 C 0.06609 0.27679 0.25953 0.0
C494 C 0.93876 0.31805 0.31624 0.0
C495 C 0.01442 0.26487 0.21044 0.0
C496 C 0.85461 0.23122 0.2397 0.0
C497 C 0.82946 0.27081 0.22513 0.0
C498 C 0.9025 0.23753 0.25232 0.0
C499 C 0.92606 0.28451 0.2501 0.0
C500 C 0.90104 0.3246 0.2353 0.0
C501 C 0.85292 0.31735 0.22312 0.0
C502 C 0.92784 0.19384 0.26809 0.0
C503 C 0.92526 0.375 0.23215 0.0
H504 H 0.03422 0.3103 0.33473 0.0
H505 H 0.09789 0.26473 0.24569 0.0
H506 H 0.91478 0.34578 0.30417 0.0
H507 H 0.91588 0.28431 0.32032 0.0
H508 H 0.9502 0.33323 0.33966 0.0
H509 H 0.05111 0.26383 0.19831 0.0
H510 H 0.99725 0.22747 0.20858 0.0
H511 H 0.98987 0.29139 0.19773 0.0
H512 H 0.8368 0.19517 0.2414 0.0
H513 H 0.83385 0.34808 0.21175 0.0
H514 H 0.93758 0.20338 0.29295 0.0
H515 H 0.96304 0.18501 0.25555 0.0
H516 H 0.90413 0.16002 0.26827 0.0
H517 H 0.93478 0.38981 0.25597 0.0
H518 H 0.90091 0.40229 0.21987 0.0
H519 H 0.96056 0.37157 0.21866 0.0
C520 C 0.26433 0.3816 0.73917 0.0
C521 C 0.22048 0.35946 0.72797 0.0
C522 C 0.26375 0.42924 0.75274 0.0
C523 C 0.21822 0.45555 0.75501 0.0
C524 C 0.17381 0.43352 0.74375 0.0
C525 C 0.17544 0.38565 0.73045 0.0
C526 C 0.31192 0.45143 0.76465 0.0
C527 C 0.1247 0.46062 0.7456 0.0
C528 C 0.21913 0.55893 0.81618 0.0
C529 C 0.23247 0.60007 0.79756 0.0
C530 C 0.21173 0.51199 0.80241 0.0
C531 C 0.21755 0.50617 0.76922 0.0
C532 C 0.22731 0.54825 0.75004 0.0
C533 C 0.23457 0.59474 0.76443 0.0
C534 C 0.20112 0.46805 0.82367 0.0
C535 C 0.23343 0.54364 0.71452 0.0
H536 H 0.29927 0.36165 0.73741 0.0
H537 H 0.14138 0.36889 0.72178 0.0
H538 H 0.31993 0.48656 0.75184 0.0
H539 H 0.30858 0.46071 0.79023 0.0
H540 H 0.34399 0.42583 0.7615 0.0
H541 H 0.0935 0.43827 0.73584 0.0
H542 H 0.11612 0.47015 0.77064 0.0
H543 H 0.127 0.49609 0.73224 0.0
H544 H 0.21713 0.56267 0.84178 0.0
H545 H 0.24458 0.62632 0.74978 0.0
H546 H 0.23415 0.4433 0.8243 0.0
H547 H 0.1696 0.44594 0.81422 0.0
H548 H 0.19224 0.47958 0.84836 0.0
H549 H 0.26872 0.52389 0.7092 0.0
H550 H 0.23443 0.5805 0.70263 0.0
H551 H 0.20269 0.52142 0.70417 0.0
C552 C 0.11788 0.75523 0.23634 0.0
C553 C 0.14137 0.7144 0.22202 0.0
C554 C 0.07014 0.75089 0.2495 0.0
C555 C 0.04511 0.70459 0.24823 0.0
C556 C 0.0684 0.66327 0.23365 0.0
C557 C 0.11635 0.66861 0.2208 0.0
C558 C 0.04654 0.79591 0.26487 0.0
C559 C 0.04259 0.61353 0.23153 0.0
C560 C 0.94213 0.69147 0.30919 0.0
C561 C 0.90068 0.70796 0.2919 0.0
C562 C 0.9891 0.68755 0.29481 0.0
C563 C 0.99456 0.69989 0.26232 0.0
C564 C 0.95212 0.7126 0.24417 0.0
C565 C 0.9057 0.71658 0.25919 0.0
C566 C 0.03345 0.67385 0.315 0.0
C567 C 0.95623 0.72539 0.20936 0.0
H568 H 0.13687 0.79074 0.23739 0.0
H569 H 0.13413 0.6369 0.20968 0.0
H570 H 0.01118 0.80526 0.25267 0.0
H571 H 0.03737 0.78765 0.29001 0.0
H572 H 0.07117 0.82906 0.26418 0.0
H573 H 0.06563 0.58515 0.21923 0.0
H574 H 0.0336 0.59977 0.25568 0.0
H575 H 0.00688 0.61758 0.21858 0.0
H576 H 0.93869 0.68465 0.33446 0.0
H577 H 0.8738 0.72896 0.24556 0.0
H578 H 0.05743 0.70705 0.31823 0.0
H579 H 0.05622 0.64494 0.30308 0.0
H580 H 0.0223 0.65996 0.3388 0.0
H581 H 0.97479 0.762 0.20673 0.0
H582 H 0.91922 0.72743 0.19769 0.0
H583 H 0.97932 0.69749 0.19672 0.0
C584 C 0.77881 0.42205 0.76581 0.0
C585 C 0.77838 0.41782 0.79903 0.0
C586 C 0.78688 0.46813 0.75105 0.0
C587 C 0.79483 0.51092 0.76996 0.0
C588 C 0.79804 0.50623 0.80336 0.0
C589 C 0.7899 0.4597 0.8175 0.0
C590 C 0.78357 0.47151 0.71533 0.0
C591 C 0.80667 0.55095 0.82434 0.0
C592 C 0.83914 0.63059 0.73109 0.0
C593 C 0.79418 0.65637 0.7269 0.0
C594 C 0.84003 0.58312 0.74497 0.0
C595 C 0.79495 0.56107 0.75508 0.0
C596 C 0.74949 0.58697 0.75106 0.0
C597 C 0.74965 0.63421 0.73693 0.0
C598 C 0.88912 0.55645 0.7487 0.0
C599 C 0.70059 0.56479 0.76169 0.0
H600 H 0.77021 0.3899 0.75129 0.0
H601 H 0.78993 0.45681 0.84317 0.0
H602 H 0.74868 0.49092 0.70862 0.0
H603 H 0.81502 0.49352 0.7057 0.0
H604 H 0.78366 0.43425 0.70392 0.0
H605 H 0.81359 0.54031 0.84944 0.0
H606 H 0.8388 0.57292 0.81565 0.0
H607 H 0.7735 0.57551 0.82355 0.0
H608 H 0.87371 0.64736 0.72332 0.0
H609 H 0.71477 0.65385 0.73385 0.0
H610 H 0.88807 0.52051 0.73577 0.0
H611 H 0.89583 0.54783 0.7741 0.0
H612 H 0.92089 0.5787 0.73961 0.0
H613 H 0.69377 0.52928 0.749 0.0
H614 H 0.66867 0.5901 0.75729 0.0
H615 H 0.702 0.55618 0.78744 0.0
loop_
_geom_bond_atom_site_label_1
_geom_bond_atom_site_label_2
_geom_bond_distance
_geom_bond_site_symmetry_2
_ccdc_geom_bond_type
C0 O1 1.160 . S
C0 O7 1.185 . S
O1 C0 1.160 . S
O2 Zn3 1.899 . S
O2 C10 1.284 . S
Zn3 O2 1.899 . S
Zn3 O4 2.032 . S
Zn3 O7 2.086 . S
Zn3 O12 1.977 . S
O4 Zn3 2.032 . S
O4 C8 1.278 . S
C5 O6 1.203 . S
C5 O12 1.267 . S
O6 C5 1.203 . S
O7 C0 1.185 . S
O7 Zn3 2.086 . S
C8 O4 1.278 . S
C8 O9 1.211 . S
O9 C8 1.211 . S
C10 O2 1.284 . S
C10 O11 1.273 . S
O11 C10 1.273 . S
O12 Zn3 1.977 . S
O12 C5 1.267 . S
C13 O14 1.160 . S
C13 O20 1.185 . S
O14 C13 1.160 . S
O15 Zn16 1.899 . S
O15 C23 1.284 . S
Zn16 O15 1.899 . S
Zn16 O17 2.032 . S
Zn16 O20 2.086 . S
Zn16 O25 1.977 . S
O17 Zn16 2.032 . S
O17 C21 1.278 . S
C18 O19 1.203 . S
C18 O25 1.267 . S
O19 C18 1.203 . S
O20 C13 1.185 . S
O20 Zn16 2.086 . S
C21 O17 1.278 . S
C21 O22 1.211 . S
O22 C21 1.211 . S
C23 O15 1.284 . S
C23 O24 1.273 . S
O24 C23 1.273 . S
O25 Zn16 1.977 . S
O25 C18 1.267 . S
C26 O27 1.160 . S
C26 O33 1.185 . S
O27 C26 1.160 . S
O28 Zn29 1.899 . S
O28 C36 1.284 . S
Zn29 O28 1.899 . S
Zn29 O30 2.032 . S
Zn29 O33 2.086 . S
Zn29 O38 1.977 . S
O30 Zn29 2.032 . S
O30 C34 1.278 . S
C31 O32 1.203 . S
C31 O38 1.267 . S
O32 C31 1.203 . S
O33 C26 1.185 . S
O33 Zn29 2.086 . S
C34 O30 1.278 . S
C34 O35 1.211 . S
O35 C34 1.211 . S
C36 O28 1.284 . S
C36 O37 1.273 . S
O37 C36 1.273 . S
O38 Zn29 1.977 . S
O38 C31 1.267 . S
C39 O40 1.160 . S
C39 O46 1.185 . S
O40 C39 1.160 . S
O41 Zn42 1.899 . S
O41 C49 1.284 . S
Zn42 O41 1.899 . S
Zn42 O43 2.032 . S
Zn42 O46 2.086 . S
Zn42 O51 1.977 . S
O43 Zn42 2.032 . S
O43 C47 1.278 . S
C44 O45 1.203 . S
C44 O51 1.267 . S
O45 C44 1.203 . S
O46 C39 1.185 . S
O46 Zn42 2.086 . S
C47 O43 1.278 . S
C47 O48 1.211 . S
O48 C47 1.211 . S
C49 O41 1.284 . S
C49 O50 1.273 . S
O50 C49 1.273 . S
O51 Zn42 1.977 . S
O51 C44 1.267 . S
C52 O53 1.160 . S
C52 O59 1.185 . S
O53 C52 1.160 . S
O54 Zn55 1.899 . S
O54 C62 1.284 . S
Zn55 O54 1.899 . S
Zn55 O56 2.032 . S
Zn55 O59 2.086 . S
Zn55 O64 1.977 . S
O56 Zn55 2.032 . S
O56 C60 1.278 . S
C57 O58 1.203 . S
C57 O64 1.267 . S
O58 C57 1.203 . S
O59 C52 1.185 . S
O59 Zn55 2.086 . S
C60 O56 1.278 . S
C60 O61 1.211 . S
O61 C60 1.211 . S
C62 O54 1.284 . S
C62 O63 1.273 . S
O63 C62 1.273 . S
O64 Zn55 1.977 . S
O64 C57 1.267 . S
C65 O66 1.160 . S
C65 O72 1.185 . S
O66 C65 1.160 . S
O67 Zn68 1.899 . S
O67 C75 1.284 . S
Zn68 O67 1.899 . S
Zn68 O69 2.032 . S
Zn68 O72 2.086 . S
Zn68 O77 1.977 . S
O69 Zn68 2.032 . S
O69 C73 1.278 . S
C70 O71 1.203 . S
C70 O77 1.267 . S
O71 C70 1.203 . S
O72 C65 1.185 . S
O72 Zn68 2.086 . S
C73 O69 1.278 . S
C73 O74 1.211 . S
O74 C73 1.211 . S
C75 O67 1.284 . S
C75 O76 1.273 . S
O76 C75 1.273 . S
O77 Zn68 1.977 . S
O77 C70 1.267 . S
C78 O79 1.160 . S
C78 O85 1.185 . S
O79 C78 1.160 . S
O80 Zn81 1.899 . S
O80 C88 1.284 . S
Zn81 O80 1.899 . S
Zn81 O82 2.032 . S
Zn81 O85 2.086 . S
Zn81 O90 1.977 . S
O82 Zn81 2.032 . S
O82 C86 1.278 . S
C83 O84 1.203 . S
C83 O90 1.267 . S
O84 C83 1.203 . S
O85 C78 1.185 . S
O85 Zn81 2.086 . S
C86 O82 1.278 . S
C86 O87 1.211 . S
O87 C86 1.211 . S
C88 O80 1.284 . S
C88 O89 1.273 . S
O89 C88 1.273 . S
O90 Zn81 1.977 . S
O90 C83 1.267 . S
C91 O92 1.160 . S
C91 O98 1.185 . S
O92 C91 1.160 . S
O93 Zn94 1.899 . S
O93 C101 1.284 . S
Zn94 O93 1.899 . S
Zn94 O95 2.032 . S
Zn94 O98 2.086 . S
Zn94 O103 1.977 . S
O95 Zn94 2.032 . S
O95 C99 1.278 . S
C96 O97 1.203 . S
C96 O103 1.267 . S
O97 C96 1.203 . S
O98 C91 1.185 . S
O98 Zn94 2.086 . S
C99 O95 1.278 . S
C99 O100 1.211 . S
O100 C99 1.211 . S
C101 O93 1.284 . S
C101 O102 1.273 . S
O102 C101 1.273 . S
O103 Zn94 1.977 . S
O103 C96 1.267 . S
C104 C105 1.391 . S
C104 C106 1.394 . S
C104 H120 0.931 . S
C105 C104 1.391 . S
C105 C109 1.376 . S
C106 C104 1.394 . S
C106 C107 1.369 . S
C106 C110 1.531 1_545 S
C107 C106 1.369 . S
C107 C108 1.410 . S
C107 C115 1.503 1_445 S
C108 C107 1.410 . S
C108 C109 1.392 . S
C108 C111 1.511 1_455 S
C109 C105 1.376 . S
C109 C108 1.392 . S
C109 H121 0.929 . S
C110 C106 1.531 1_565 S
C110 H122 0.960 . S
C110 H123 0.962 . S
C110 H124 0.960 . S
C111 C108 1.511 1_655 S
C111 H125 0.961 . S
C111 H126 0.961 . S
C111 H127 0.961 . S
C112 C113 1.370 . S
C112 C114 1.363 . S
C112 H128 0.931 . S
C113 C112 1.370 . S
C113 C117 1.408 . S
C114 C112 1.363 . S
C114 C115 1.370 . S
C114 C118 1.524 1_655 S
C115 C107 1.503 1_665 S
C115 C114 1.370 . S
C115 C116 1.403 . S
C116 C115 1.403 . S
C116 C117 1.404 . S
C116 C119 1.539 1_565 S
C117 C113 1.408 . S
C117 C116 1.404 . S
C117 H129 0.930 . S
C118 C114 1.524 1_455 S
C118 H130 0.956 . S
C118 H131 0.961 . S
C118 H132 0.961 . S
C119 C116 1.539 1_545 S
C119 H133 0.958 . S
C119 H134 0.961 . S
C119 H135 0.960 . S
H120 C104 0.931 . S
H121 C109 0.929 . S
H122 C110 0.960 . S
H123 C110 0.962 . S
H124 C110 0.960 . S
H125 C111 0.961 . S
H126 C111 0.961 . S
H127 C111 0.961 . S
H128 C112 0.931 . S
H129 C117 0.930 . S
H130 C118 0.956 . S
H131 C118 0.961 . S
H132 C118 0.961 . S
H133 C119 0.958 . S
H134 C119 0.961 . S
H135 C119 0.960 . S
C136 C137 1.391 . S
C136 C138 1.394 . S
C136 H152 0.931 . S
C137 C136 1.391 . S
C137 C141 1.376 . S
C138 C136 1.394 . S
C138 C139 1.369 . S
C138 C142 1.531 . S
C139 C138 1.369 . S
C139 C140 1.410 . S
C139 C147 1.503 . S
C140 C139 1.410 . S
C140 C141 1.392 . S
C140 C143 1.511 . S
C141 C137 1.376 . S
C141 C140 1.392 . S
C141 H153 0.929 . S
C142 C138 1.531 . S
C142 H154 0.960 . S
C142 H155 0.962 . S
C142 H156 0.960 . S
C143 C140 1.511 . S
C143 H157 0.961 . S
C143 H158 0.961 . S
C143 H159 0.961 . S
C144 C145 1.370 . S
C144 C146 1.363 . S
C144 H160 0.931 . S
C145 C144 1.370 . S
C145 C149 1.408 . S
C146 C144 1.363 . S
C146 C147 1.370 . S
C146 C150 1.524 . S
C147 C139 1.503 . S
C147 C146 1.370 . S
C147 C148 1.403 . S
C148 C147 1.403 . S
C148 C149 1.404 . S
C148 C151 1.539 . S
C149 C145 1.408 . S
C149 C148 1.404 . S
C149 H161 0.930 . S
C150 C146 1.524 . S
C150 H162 0.956 . S
C150 H163 0.961 . S
C150 H164 0.961 . S
C151 C148 1.539 . S
C151 H165 0.958 . S
C151 H166 0.961 . S
C151 H167 0.960 . S
H152 C136 0.931 . S
H153 C141 0.929 . S
H154 C142 0.960 . S
H155 C142 0.962 . S
H156 C142 0.960 . S
H157 C143 0.961 . S
H158 C143 0.961 . S
H159 C143 0.961 . S
H160 C144 0.931 . S
H161 C149 0.930 . S
H162 C150 0.956 . S
H163 C150 0.961 . S
H164 C150 0.961 . S
H165 C151 0.958 . S
H166 C151 0.961 . S
H167 C151 0.960 . S
C168 C169 1.391 . S
C168 C170 1.394 . S
C168 H184 0.931 . S
C169 C168 1.391 . S
C169 C173 1.376 . S
C170 C168 1.394 . S
C170 C171 1.369 . S
C170 C174 1.531 . S
C171 C170 1.369 . S
C171 C172 1.410 . S
C171 C179 1.503 . S
C172 C171 1.410 . S
C172 C173 1.392 . S
C172 C175 1.511 . S
C173 C169 1.376 . S
C173 C172 1.392 . S
C173 H185 0.929 . S
C174 C170 1.531 . S
C174 H186 0.960 . S
C174 H187 0.962 . S
C174 H188 0.960 . S
C175 C172 1.511 . S
C175 H189 0.961 . S
C175 H190 0.961 . S
C175 H191 0.961 . S
C176 C177 1.370 . S
C176 C178 1.363 . S
C176 H192 0.931 . S
C177 C176 1.370 . S
C177 C181 1.408 . S
C178 C176 1.363 . S
C178 C179 1.370 . S
C178 C182 1.524 . S
C179 C171 1.503 . S
C179 C178 1.370 . S
C179 C180 1.403 . S
C180 C179 1.403 . S
C180 C181 1.404 . S
C180 C183 1.539 . S
C181 C177 1.408 . S
C181 C180 1.404 . S
C181 H193 0.930 . S
C182 C178 1.524 . S
C182 H194 0.956 . S
C182 H195 0.961 . S
C182 H196 0.961 . S
C183 C180 1.539 . S
C183 H197 0.958 . S
C183 H198 0.961 . S
C183 H199 0.960 . S
H184 C168 0.931 . S
H185 C173 0.929 . S
H186 C174 0.960 . S
H187 C174 0.962 . S
H188 C174 0.960 . S
H189 C175 0.961 . S
H190 C175 0.961 . S
H191 C175 0.961 . S
H192 C176 0.931 . S
H193 C181 0.930 . S
H194 C182 0.956 . S
H195 C182 0.961 . S
H196 C182 0.961 . S
H197 C183 0.958 . S
H198 C183 0.961 . S
H199 C183 0.960 . S
C200 C201 1.391 . S
C200 C202 1.394 . S
C200 H216 0.931 . S
C201 C200 1.391 . S
C201 C205 1.376 . S
C202 C200 1.394 . S
C202 C203 1.369 . S
C202 C206 1.531 . S
C203 C202 1.369 . S
C203 C204 1.410 . S
C203 C211 1.503 1_445 S
C204 C203 1.410 . S
C204 C205 1.392 . S
C204 C207 1.511 1_455 S
C205 C201 1.376 . S
C205 C204 1.392 . S
C205 H217 0.929 . S
C206 C202 1.531 . S
C206 H218 0.960 1_445 S
C206 H219 0.962 1_545 S
C206 H220 0.960 . S
C207 C204 1.511 1_655 S
C207 H221 0.961 1_655 S
C207 H222 0.961 . S
C207 H223 0.961 . S
C208 C209 1.370 . S
C208 C210 1.363 . S
C208 H224 0.931 . S
C209 C208 1.370 . S
C209 C213 1.408 . S
C210 C208 1.363 . S
C210 C211 1.370 . S
C210 C214 1.524 1_655 S
C211 C203 1.503 1_665 S
C211 C210 1.370 . S
C211 C212 1.403 . S
C212 C211 1.403 . S
C212 C213 1.404 . S
C212 C215 1.539 1_565 S
C213 C209 1.408 . S
C213 C212 1.404 . S
C213 H225 0.930 . S
C214 C210 1.524 1_455 S
C214 H226 0.956 . S
C214 H227 0.961 . S
C214 H228 0.961 . S
C215 C212 1.539 1_545 S
C215 H229 0.958 . S
C215 H230 0.961 . S
C215 H231 0.960 . S
H216 C200 0.931 . S
H217 C205 0.929 . S
H218 C206 0.960 1_665 S
H219 C206 0.962 1_565 S
H220 C206 0.960 . S
H221 C207 0.961 1_455 S
H222 C207 0.961 . S
H223 C207 0.961 . S
H224 C208 0.931 . S
H225 C213 0.930 . S
H226 C214 0.956 . S
H227 C214 0.961 . S
H228 C214 0.961 . S
H229 C215 0.958 . S
H230 C215 0.961 . S
H231 C215 0.960 . S
C232 C233 1.391 . S
C232 C234 1.394 . S
C232 H248 0.931 . S
C233 C232 1.391 . S
C233 C237 1.376 . S
C234 C232 1.394 . S
C234 C235 1.369 . S
C234 C238 1.531 . S
C235 C234 1.369 . S
C235 C236 1.410 . S
C235 C243 1.503 . S
C236 C235 1.410 . S
C236 C237 1.392 . S
C236 C239 1.511 . S
C237 C233 1.376 . S
C237 C236 1.392 . S
C237 H249 0.929 . S
C238 C234 1.531 . S
C238 H250 0.960 . S
C238 H251 0.962 . S
C238 H252 0.960 . S
C239 C236 1.511 . S
C239 H253 0.961 . S
C239 H254 0.961 . S
C239 H255 0.961 . S
C240 C241 1.370 . S
C240 C242 1.363 . S
C240 H256 0.931 . S
C241 C240 1.370 . S
C241 C245 1.408 . S
C242 C240 1.363 . S
C242 C243 1.370 . S
C242 C246 1.524 . S
C243 C235 1.503 . S
C243 C242 1.370 . S
C243 C244 1.403 . S
C244 C243 1.403 . S
C244 C245 1.404 . S
C244 C247 1.539 . S
C245 C241 1.408 . S
C245 C244 1.404 . S
C245 H257 0.930 . S
C246 C242 1.524 . S
C246 H258 0.956 . S
C246 H259 0.961 . S
C246 H260 0.961 . S
C247 C244 1.539 . S
C247 H261 0.958 . S
C247 H262 0.961 . S
C247 H263 0.960 . S
H248 C232 0.931 . S
H249 C237 0.929 . S
H250 C238 0.960 . S
H251 C238 0.962 . S
H252 C238 0.960 . S
H253 C239 0.961 . S
H254 C239 0.961 . S
H255 C239 0.961 . S
H256 C240 0.931 . S
H257 C245 0.930 . S
H258 C246 0.956 . S
H259 C246 0.961 . S
H260 C246 0.961 . S
H261 C247 0.958 . S
H262 C247 0.961 . S
H263 C247 0.960 . S
C264 C265 1.391 . S
C264 C266 1.394 . S
C264 H280 0.931 . S
C265 C264 1.391 . S
C265 C269 1.376 . S
C266 C264 1.394 . S
C266 C267 1.369 . S
C266 C270 1.531 . S
C267 C266 1.369 . S
C267 C268 1.410 . S
C267 C275 1.503 1_556 S
C268 C267 1.410 . S
C268 C269 1.392 . S
C268 C271 1.511 1_556 S
C269 C265 1.376 . S
C269 C268 1.392 . S
C269 H281 0.929 . S
C270 C266 1.531 . S
C270 H282 0.960 . S
C270 H283 0.962 . S
C270 H284 0.960 . S
C271 C268 1.511 1_554 S
C271 H285 0.953 1_554 S
C271 H286 0.961 . S
C271 H287 0.961 . S
C272 C273 1.370 . S
C272 C274 1.363 . S
C272 H288 0.931 . S
C273 C272 1.370 . S
C273 C277 1.408 . S
C274 C272 1.363 . S
C274 C275 1.370 . S
C274 C278 1.524 . S
C275 C267 1.503 1_554 S
C275 C274 1.370 . S
C275 C276 1.403 . S
C276 C275 1.403 . S
C276 C277 1.404 . S
C276 C279 1.539 . S
C277 C273 1.408 . S
C277 C276 1.404 . S
C277 H289 0.930 . S
C278 C274 1.524 . S
C278 H290 0.956 1_554 S
C278 H291 0.961 . S
C278 H292 0.961 . S
C279 C276 1.539 . S
C279 H293 0.958 . S
C279 H294 0.961 . S
C279 H295 0.960 . S
H280 C264 0.931 . S
H281 C269 0.929 . S
H282 C270 0.960 . S
H283 C270 0.962 . S
H284 C270 0.960 . S
H285 C271 0.953 1_556 S
H286 C271 0.961 . S
H287 C271 0.961 . S
H288 C272 0.931 . S
H289 C277 0.930 . S
H290 C278 0.956 1_556 S
H291 C278 0.961 . S
H292 C278 0.961 . S
H293 C279 0.958 . S
H294 C279 0.961 . S
H295 C279 0.960 . S
C296 C297 1.391 . S
C296 C298 1.394 . S
C296 H312 0.931 . S
C297 C296 1.391 . S
C297 C301 1.376 . S
C298 C296 1.394 . S
C298 C299 1.369 . S
C298 C302 1.531 . S
C299 C298 1.369 . S
C299 C300 1.410 . S
C299 C307 1.503 . S
C300 C299 1.410 . S
C300 C301 1.392 . S
C300 C303 1.511 . S
C301 C297 1.376 . S
C301 C300 1.392 . S
C301 H313 0.929 . S
C302 C298 1.531 . S
C302 H314 0.960 . S
C302 H315 0.962 . S
C302 H316 0.960 . S
C303 C300 1.511 . S
C303 H317 0.961 . S
C303 H318 0.961 . S
C303 H319 0.961 . S
C304 C305 1.370 . S
C304 C306 1.363 . S
C304 H320 0.931 . S
C305 C304 1.370 . S
C305 C309 1.408 . S
C306 C304 1.363 . S
C306 C307 1.370 . S
C306 C310 1.524 . S
C307 C299 1.503 . S
C307 C306 1.370 . S
C307 C308 1.403 . S
C308 C307 1.403 . S
C308 C309 1.404 . S
C308 C311 1.539 . S
C309 C305 1.408 . S
C309 C308 1.404 . S
C309 H321 0.930 . S
C310 C306 1.524 . S
C310 H322 0.956 . S
C310 H323 0.961 . S
C310 H324 0.961 . S
C311 C308 1.539 . S
C311 H325 0.958 . S
C311 H326 0.961 . S
C311 H327 0.960 . S
H312 C296 0.931 . S
H313 C301 0.929 . S
H314 C302 0.960 . S
H315 C302 0.962 . S
H316 C302 0.960 . S
H317 C303 0.961 . S
H318 C303 0.961 . S
H319 C303 0.961 . S
H320 C304 0.931 . S
H321 C309 0.930 . S
H322 C310 0.956 . S
H323 C310 0.961 . S
H324 C310 0.961 . S
H325 C311 0.958 . S
H326 C311 0.961 . S
H327 C311 0.960 . S
C328 C329 1.391 . S
C328 C330 1.394 . S
C328 H344 0.931 . S
C329 C328 1.391 . S
C329 C333 1.376 . S
C330 C328 1.394 . S
C330 C331 1.369 . S
C330 C334 1.531 1_556 S
C331 C330 1.369 . S
C331 C332 1.410 . S
C331 C339 1.503 1_556 S
C332 C331 1.410 . S
C332 C333 1.392 . S
C332 C335 1.511 . S
C333 C329 1.376 . S
C333 C332 1.392 . S
C333 H345 0.929 . S
C334 C330 1.531 1_554 S
C334 H346 0.960 . S
C334 H347 0.962 . S
C334 H348 0.960 1_554 S
C335 C332 1.511 . S
C335 H349 0.961 . S
C335 H350 0.961 . S
C335 H351 0.961 . S
C336 C337 1.370 . S
C336 C338 1.363 . S
C336 H352 0.931 . S
C337 C336 1.370 . S
C337 C341 1.408 . S
C338 C336 1.363 . S
C338 C339 1.370 . S
C338 C342 1.524 . S
C339 C331 1.503 1_554 S
C339 C338 1.370 . S
C339 C340 1.403 . S
C340 C339 1.403 . S
C340 C341 1.404 . S
C340 C343 1.539 . S
C341 C337 1.408 . S
C341 C340 1.404 . S
C341 H353 0.930 . S
C342 C338 1.524 . S
C342 H354 0.956 . S
C342 H355 0.961 1_554 S
C342 H356 0.961 . S
C343 C340 1.539 . S
C343 H357 0.958 . S
C343 H358 0.961 . S
C343 H359 0.960 1_554 S
H344 C328 0.931 . S
H345 C333 0.929 . S
H346 C334 0.960 . S
H347 C334 0.962 . S
H348 C334 0.960 1_556 S
H349 C335 0.961 . S
H350 C335 0.961 . S
H351 C335 0.961 . S
H352 C336 0.931 . S
H353 C341 0.930 . S
H354 C342 0.956 . S
H355 C342 0.961 1_556 S
H356 C342 0.961 . S
H357 C343 0.958 . S
H358 C343 0.961 . S
H359 C343 0.960 1_556 S
C360 C361 1.391 . S
C360 C362 1.394 . S
C360 H376 0.931 . S
C361 C360 1.391 . S
C361 C365 1.376 . S
C362 C360 1.394 . S
C362 C363 1.369 . S
C362 C366 1.531 . S
C363 C362 1.369 . S
C363 C364 1.410 . S
C363 C371 1.503 . S
C364 C363 1.410 . S
C364 C365 1.392 . S
C364 C367 1.511 . S
C365 C361 1.376 . S
C365 C364 1.392 . S
C365 H377 0.929 . S
C366 C362 1.531 . S
C366 H378 0.960 . S
C366 H379 0.962 . S
C366 H380 0.960 . S
C367 C364 1.511 . S
C367 H381 0.961 . S
C367 H382 0.961 . S
C367 H383 0.961 . S
C368 C369 1.370 . S
C368 C370 1.363 . S
C368 H384 0.931 . S
C369 C368 1.370 . S
C369 C373 1.408 . S
C370 C368 1.363 . S
C370 C371 1.370 . S
C370 C374 1.524 . S
C371 C363 1.503 . S
C371 C370 1.370 . S
C371 C372 1.403 . S
C372 C371 1.403 . S
C372 C373 1.404 . S
C372 C375 1.539 . S
C373 C369 1.408 . S
C373 C372 1.404 . S
C373 H385 0.930 . S
C374 C370 1.524 . S
C374 H386 0.956 . S
C374 H387 0.961 . S
C374 H388 0.961 . S
C375 C372 1.539 . S
C375 H389 0.958 . S
C375 H390 0.961 . S
C375 H391 0.960 . S
H376 C360 0.931 . S
H377 C365 0.929 . S
H378 C366 0.960 . S
H379 C366 0.962 . S
H380 C366 0.960 . S
H381 C367 0.961 . S
H382 C367 0.961 . S
H383 C367 0.961 . S
H384 C368 0.931 . S
H385 C373 0.930 . S
H386 C374 0.956 . S
H387 C374 0.961 . S
H388 C374 0.961 . S
H389 C375 0.958 . S
H390 C375 0.961 . S
H391 C375 0.960 . S
C392 C393 1.391 . S
C392 C394 1.394 . S
C392 H408 0.931 . S
C393 C392 1.391 . S
C393 C397 1.376 . S
C394 C392 1.394 . S
C394 C395 1.369 . S
C394 C398 1.531 . S
C395 C394 1.369 . S
C395 C396 1.410 . S
C395 C403 1.503 . S
C396 C395 1.410 . S
C396 C397 1.392 . S
C396 C399 1.511 . S
C397 C393 1.376 . S
C397 C396 1.392 . S
C397 H409 0.929 . S
C398 C394 1.531 . S
C398 H410 0.960 . S
C398 H411 0.962 . S
C398 H412 0.960 . S
C399 C396 1.511 . S
C399 H413 0.961 . S
C399 H414 0.961 . S
C399 H415 0.961 . S
C400 C401 1.370 1_565 S
C400 C402 1.363 . S
C400 H416 0.931 1_565 S
C401 C400 1.370 1_545 S
C401 C405 1.408 1_545 S
C402 C400 1.363 . S
C402 C403 1.370 . S
C402 C406 1.524 . S
C403 C395 1.503 . S
C403 C402 1.370 . S
C403 C404 1.403 . S
C404 C403 1.403 . S
C404 C405 1.404 . S
C404 C407 1.539 . S
C405 C401 1.408 1_565 S
C405 C404 1.404 . S
C405 H417 0.930 . S
C406 C402 1.524 . S
C406 H418 0.956 . S
C406 H419 0.961 . S
C406 H420 0.961 . S
C407 C404 1.539 . S
C407 H421 0.958 . S
C407 H422 0.961 . S
C407 H423 0.960 . S
H408 C392 0.931 . S
H409 C397 0.929 . S
H410 C398 0.960 . S
H411 C398 0.962 . S
H412 C398 0.960 . S
H413 C399 0.961 . S
H414 C399 0.961 . S
H415 C399 0.961 . S
H416 C400 0.931 1_545 S
H417 C405 0.930 . S
H418 C406 0.956 . S
H419 C406 0.961 . S
H420 C406 0.961 . S
H421 C407 0.958 . S
H422 C407 0.961 . S
H423 C407 0.960 . S
C424 C425 1.391 . S
C424 C426 1.394 . S
C424 H440 0.931 . S
C425 C424 1.391 . S
C425 C429 1.376 . S
C426 C424 1.394 . S
C426 C427 1.369 . S
C426 C430 1.531 . S
C427 C426 1.369 . S
C427 C428 1.410 . S
C427 C435 1.503 . S
C428 C427 1.410 . S
C428 C429 1.392 . S
C428 C431 1.511 . S
C429 C425 1.376 . S
C429 C428 1.392 . S
C429 H441 0.929 . S
C430 C426 1.531 . S
C430 H442 0.960 . S
C430 H443 0.962 . S
C430 H444 0.960 . S
C431 C428 1.511 . S
C431 H445 0.961 . S
C431 H446 0.961 . S
C431 H447 0.961 . S
C432 C433 1.370 . S
C432 C434 1.363 . S
C432 H448 0.931 . S
C433 C432 1.370 . S
C433 C437 1.408 . S
C434 C432 1.363 . S
C434 C435 1.370 . S
C434 C438 1.524 . S
C435 C427 1.503 . S
C435 C434 1.370 . S
C435 C436 1.403 . S
C436 C435 1.403 . S
C436 C437 1.404 . S
C436 C439 1.539 . S
C437 C433 1.408 . S
C437 C436 1.404 . S
C437 H449 0.930 . S
C438 C434 1.524 . S
C438 H450 0.956 . S
C438 H451 0.961 . S
C438 H452 0.961 . S
C439 C436 1.539 . S
C439 H453 0.958 . S
C439 H454 0.961 . S
C439 H455 0.960 . S
H440 C424 0.931 . S
H441 C429 0.929 . S
H442 C430 0.960 . S
H443 C430 0.962 . S
H444 C430 0.960 . S
H445 C431 0.961 . S
H446 C431 0.961 . S
H447 C431 0.961 . S
H448 C432 0.931 . S
H449 C437 0.930 . S
H450 C438 0.956 . S
H451 C438 0.961 . S
H452 C438 0.961 . S
H453 C439 0.958 . S
H454 C439 0.961 . S
H455 C439 0.960 . S
C456 C457 1.391 . S
C456 C458 1.394 . S
C456 H472 0.931 . S
C457 C456 1.391 . S
C457 C461 1.376 . S
C458 C456 1.394 . S
C458 C459 1.369 . S
C458 C462 1.531 . S
C459 C458 1.369 . S
C459 C460 1.410 . S
C459 C467 1.503 . S
C460 C459 1.410 . S
C460 C461 1.392 . S
C460 C463 1.511 . S
C461 C457 1.376 . S
C461 C460 1.392 . S
C461 H473 0.929 . S
C462 C458 1.531 . S
C462 H474 0.960 . S
C462 H475 0.962 . S
C462 H476 0.960 . S
C463 C460 1.511 . S
C463 H477 0.961 . S
C463 H478 0.961 . S
C463 H479 0.961 . S
C464 C465 1.370 1_545 S
C464 C466 1.363 . S
C464 H480 0.931 1_545 S
C465 C464 1.370 1_565 S
C465 C469 1.408 1_565 S
C466 C464 1.363 . S
C466 C467 1.370 . S
C466 C470 1.524 . S
C467 C459 1.503 . S
C467 C466 1.370 . S
C467 C468 1.403 . S
C468 C467 1.403 . S
C468 C469 1.404 . S
C468 C471 1.539 . S
C469 C465 1.408 1_545 S
C469 C468 1.404 . S
C469 H481 0.930 . S
C470 C466 1.524 . S
C470 H482 0.956 . S
C470 H483 0.961 . S
C470 H484 0.961 . S
C471 C468 1.539 . S
C471 H485 0.958 . S
C471 H486 0.961 . S
C471 H487 0.960 . S
H472 C456 0.931 . S
H473 C461 0.929 . S
H474 C462 0.960 . S
H475 C462 0.962 . S
H476 C462 0.960 . S
H477 C463 0.961 . S
H478 C463 0.961 . S
H479 C463 0.961 . S
H480 C464 0.931 1_565 S
H481 C469 0.930 . S
H482 C470 0.956 . S
H483 C470 0.961 . S
H484 C470 0.961 . S
H485 C471 0.958 . S
H486 C471 0.961 . S
H487 C471 0.960 . S
C488 C489 1.391 1_655 S
C488 C490 1.394 . S
C488 H504 0.931 . S
C489 C488 1.391 1_455 S
C489 C493 1.376 . S
C490 C488 1.394 . S
C490 C491 1.369 . S
C490 C494 1.531 . S
C491 C490 1.369 . S
C491 C492 1.410 . S
C491 C499 1.503 . S
C492 C491 1.410 . S
C492 C493 1.392 1_655 S
C492 C495 1.511 . S
C493 C489 1.376 . S
C493 C492 1.392 1_455 S
C493 H505 0.929 . S
C494 C490 1.531 . S
C494 H506 0.960 . S
C494 H507 0.962 . S
C494 H508 0.960 . S
C495 C492 1.511 . S
C495 H509 0.961 . S
C495 H510 0.961 . S
C495 H511 0.961 . S
C496 C497 1.370 . S
C496 C498 1.363 . S
C496 H512 0.931 . S
C497 C496 1.370 . S
C497 C501 1.408 . S
C498 C496 1.363 . S
C498 C499 1.370 . S
C498 C502 1.524 . S
C499 C491 1.503 . S
C499 C498 1.370 . S
C499 C500 1.403 . S
C500 C499 1.403 . S
C500 C501 1.404 . S
C500 C503 1.539 . S
C501 C497 1.408 . S
C501 C500 1.404 . S
C501 H513 0.930 . S
C502 C498 1.524 . S
C502 H514 0.956 . S
C502 H515 0.961 . S
C502 H516 0.961 . S
C503 C500 1.539 . S
C503 H517 0.958 . S
C503 H518 0.961 . S
C503 H519 0.960 . S
H504 C488 0.931 . S
H505 C493 0.929 . S
H506 C494 0.960 . S
H507 C494 0.962 . S
H508 C494 0.960 . S
H509 C495 0.961 . S
H510 C495 0.961 . S
H511 C495 0.961 . S
H512 C496 0.931 . S
H513 C501 0.930 . S
H514 C502 0.956 . S
H515 C502 0.961 . S
H516 C502 0.961 . S
H517 C503 0.958 . S
H518 C503 0.961 . S
H519 C503 0.960 . S
C520 C521 1.391 . S
C520 C522 1.394 . S
C520 H536 0.931 . S
C521 C520 1.391 . S
C521 C525 1.376 . S
C522 C520 1.394 . S
C522 C523 1.369 . S
C522 C526 1.531 . S
C523 C522 1.369 . S
C523 C524 1.410 . S
C523 C531 1.503 . S
C524 C523 1.410 . S
C524 C525 1.392 . S
C524 C527 1.511 . S
C525 C521 1.376 . S
C525 C524 1.392 . S
C525 H537 0.929 . S
C526 C522 1.531 . S
C526 H538 0.960 . S
C526 H539 0.962 . S
C526 H540 0.960 . S
C527 C524 1.511 . S
C527 H541 0.961 . S
C527 H542 0.961 . S
C527 H543 0.961 . S
C528 C529 1.370 . S
C528 C530 1.363 . S
C528 H544 0.931 . S
C529 C528 1.370 . S
C529 C533 1.408 . S
C530 C528 1.363 . S
C530 C531 1.370 . S
C530 C534 1.524 . S
C531 C523 1.503 . S
C531 C530 1.370 . S
C531 C532 1.403 . S
C532 C531 1.403 . S
C532 C533 1.404 . S
C532 C535 1.539 . S
C533 C529 1.408 . S
C533 C532 1.404 . S
C533 H545 0.930 . S
C534 C530 1.524 . S
C534 H546 0.956 . S
C534 H547 0.961 . S
C534 H548 0.961 . S
C535 C532 1.539 . S
C535 H549 0.958 . S
C535 H550 0.961 . S
C535 H551 0.960 . S
H536 C520 0.931 . S
H537 C525 0.929 . S
H538 C526 0.960 . S
H539 C526 0.962 . S
H540 C526 0.960 . S
H541 C527 0.961 . S
H542 C527 0.961 . S
H543 C527 0.961 . S
H544 C528 0.931 . S
H545 C533 0.930 . S
H546 C534 0.956 . S
H547 C534 0.961 . S
H548 C534 0.961 . S
H549 C535 0.958 . S
H550 C535 0.961 . S
H551 C535 0.960 . S
C552 C553 1.391 . S
C552 C554 1.394 . S
C552 H568 0.931 . S
C553 C552 1.391 . S
C553 C557 1.376 . S
C554 C552 1.394 . S
C554 C555 1.369 . S
C554 C558 1.531 . S
C555 C554 1.369 . S
C555 C556 1.410 . S
C555 C563 1.503 . S
C556 C555 1.410 . S
C556 C557 1.392 . S
C556 C559 1.511 . S
C557 C553 1.376 . S
C557 C556 1.392 . S
C557 H569 0.929 . S
C558 C554 1.531 . S
C558 H570 0.960 . S
C558 H571 0.962 . S
C558 H572 0.960 . S
C559 C556 1.511 . S
C559 H573 0.961 . S
C559 H574 0.961 . S
C559 H575 0.961 . S
C560 C561 1.370 1_455 S
C560 C562 1.363 . S
C560 H576 0.931 . S
C561 C560 1.370 1_655 S
C561 C565 1.408 1_655 S
C562 C560 1.363 . S
C562 C563 1.370 . S
C562 C566 1.524 . S
C563 C555 1.503 . S
C563 C562 1.370 . S
C563 C564 1.403 . S
C564 C563 1.403 . S
C564 C565 1.404 . S
C564 C567 1.539 . S
C565 C561 1.408 1_455 S
C565 C564 1.404 . S
C565 H577 0.930 1_455 S
C566 C562 1.524 . S
C566 H578 0.956 . S
C566 H579 0.961 . S
C566 H580 0.961 . S
C567 C564 1.539 . S
C567 H581 0.958 . S
C567 H582 0.961 . S
C567 H583 0.960 . S
H568 C552 0.931 . S
H569 C557 0.929 . S
H570 C558 0.960 . S
H571 C558 0.962 . S
H572 C558 0.960 . S
H573 C559 0.961 . S
H574 C559 0.961 . S
H575 C559 0.961 . S
H576 C560 0.931 . S
H577 C565 0.930 1_655 S
H578 C566 0.956 . S
H579 C566 0.961 . S
H580 C566 0.961 . S
H581 C567 0.958 . S
H582 C567 0.961 . S
H583 C567 0.960 . S
C584 C585 1.391 . S
C584 C586 1.394 . S
C584 H600 0.931 . S
C585 C584 1.391 . S
C585 C589 1.376 . S
C586 C584 1.394 . S
C586 C587 1.369 . S
C586 C590 1.531 . S
C587 C586 1.369 . S
C587 C588 1.410 . S
C587 C595 1.503 . S
C588 C587 1.410 . S
C588 C589 1.392 . S
C588 C591 1.511 . S
C589 C585 1.376 . S
C589 C588 1.392 . S
C589 H601 0.929 . S
C590 C586 1.531 . S
C590 H602 0.960 . S
C590 H603 0.962 . S
C590 H604 0.960 . S
C591 C588 1.511 . S
C591 H605 0.961 . S
C591 H606 0.961 . S
C591 H607 0.961 . S
C592 C593 1.370 . S
C592 C594 1.363 . S
C592 H608 0.931 . S
C593 C592 1.370 . S
C593 C597 1.408 . S
C594 C592 1.363 . S
C594 C595 1.370 . S
C594 C598 1.524 . S
C595 C587 1.503 . S
C595 C594 1.370 . S
C595 C596 1.403 . S
C596 C595 1.403 . S
C596 C597 1.404 . S
C596 C599 1.539 . S
C597 C593 1.408 . S
C597 C596 1.404 . S
C597 H609 0.930 . S
C598 C594 1.524 . S
C598 H610 0.956 . S
C598 H611 0.961 . S
C598 H612 0.961 . S
C599 C596 1.539 . S
C599 H613 0.958 . S
C599 H614 0.961 . S
C599 H615 0.960 . S
H600 C584 0.931 . S
H601 C589 0.929 . S
H602 C590 0.960 . S
H603 C590 0.962 . S
H604 C590 0.960 . S
H605 C591 0.961 . S
H606 C591 0.961 . S
H607 C591 0.961 . S
H608 C592 0.931 . S
H609 C597 0.930 . S
H610 C598 0.956 . S
H611 C598 0.961 . S
H612 C598 0.961 . S
H613 C599 0.958 . S
H614 C599 0.961 . S
H615 C599 0.960 . S
C105 C5 0.463 . S
C113 C31 0.590 . S
C137 C18 0.617 . S
C145 C44 0.542 . S
C169 C57 0.580 . S
C177 C83 0.543 . S
C201 C70 0.671 . S
C209 C96 0.509 . S
C233 C8 1.421 . S
C241 C73 1.388 . S
C265 C21 1.416 . S
C273 C86 1.394 . S
C297 C99 1.420 . S
C305 C34 1.378 . S
C329 C47 1.341 . S
C337 C60 1.367 . S
C361 C62 1.501 . S
C369 C0 1.541 . S
C393 C13 1.535 . S
C401 C75 1.493 . S
C425 C26 1.540 . S
C433 C88 1.514 . S
C457 C39 1.530 . S
C465 C101 1.493 . S
C489 C10 1.531 . S
C497 C52 1.549 . S
C521 C65 1.553 . S
C529 C23 1.504 . S
C553 C78 1.546 . S
C561 C36 1.498 . S
C585 C49 1.477 . S
C593 C91 1.546 . S
