# Generated by pormake.
# Topology yfz, (5)-cn, num edge types: 1
# Building blocks:
#     Node 0, Type 0, BuildingBlock: XOMCOT_clean_sbu_0, # of connection points: 5
#     Node 1, Type 0, BuildingBlock: XOMCOT_clean_sbu_0, # of connection points: 5
#     Node 2, Type 0, BuildingBlock: XOMCOT_clean_sbu_0, # of connection points: 5
#     Node 3, Type 0, BuildingBlock: XOMCOT_clean_sbu_0, # of connection points: 5
#     Node 4, Type 0, BuildingBlock: XOMCOT_clean_sbu_0, # of connection points: 5
#     Node 5, Type 0, BuildingBlock: XOMCOT_clean_sbu_0, # of connection points: 5
#     Node 6, Type 0, BuildingBlock: XOMCOT_clean_sbu_0, # of connection points: 5
#     Node 7, Type 0, BuildingBlock: XOMCOT_clean_sbu_0, # of connection points: 5
#     Edge 8, Type (0, 0), BuildingBlock: CIFDUS_clean_linker_0, # of connection points: 2
#     Edge 9, Type (0, 0), BuildingBlock: CIFDUS_clean_linker_0, # of connection points: 2
#     Edge 10, Type (0, 0), BuildingBlock: CIFDUS_clean_linker_0, # of connection points: 2
#     Edge 11, Type (0, 0), BuildingBlock: CIFDUS_clean_linker_0, # of connection points: 2
#     Edge 12, Type (0, 0), BuildingBlock: CIFDUS_clean_linker_0, # of connection points: 2
#     Edge 13, Type (0, 0), BuildingBlock: CIFDUS_clean_linker_0, # of connection points: 2
#     Edge 14, Type (0, 0), BuildingBlock: CIFDUS_clean_linker_0, # of connection points: 2
#     Edge 15, Type (0, 0), BuildingBlock: CIFDUS_clean_linker_0, # of connection points: 2
#     Edge 16, Type (0, 0), BuildingBlock: CIFDUS_clean_linker_0, # of connection points: 2
#     Edge 17, Type (0, 0), BuildingBlock: CIFDUS_clean_linker_0, # of connection points: 2
#     Edge 18, Type (0, 0), BuildingBlock: CIFDUS_clean_linker_0, # of connection points: 2
#     Edge 19, Type (0, 0), BuildingBlock: CIFDUS_clean_linker_0, # of connection points: 2
#     Edge 20, Type (0, 0), BuildingBlock: CIFDUS_clean_linker_0, # of connection points: 2
#     Edge 21, Type (0, 0), BuildingBlock: CIFDUS_clean_linker_0, # of connection points: 2
#     Edge 22, Type (0, 0), BuildingBlock: CIFDUS_clean_linker_0, # of connection points: 2
#     Edge 23, Type (0, 0), BuildingBlock: CIFDUS_clean_linker_0, # of connection points: 2
#     Edge 24, Type (0, 0), BuildingBlock: CIFDUS_clean_linker_0, # of connection points: 2
#     Edge 25, Type (0, 0), BuildingBlock: CIFDUS_clean_linker_0, # of connection points: 2
#     Edge 26, Type (0, 0), BuildingBlock: CIFDUS_clean_linker_0, # of connection points: 2
#     Edge 27, Type (0, 0), BuildingBlock: CIFDUS_clean_linker_0, # of connection points: 2
# Relax obj value: 0.170
# Max RMSD: 0.157
# Mean RMSD: 0.157
data_MOF--net-yfz--node1-XOMCOT_clean_sbu_0--edge1-CIFDUS_clean_linker_0
_symmetry_space_group_name_H-M    P1
_symmetry_Int_Tables_number       1
_symmetry_cell_setting            triclinic
loop_
_symmetry_equiv_pos_as_xyz
'x, y, z'
_cell_length_a     45.136729
_cell_length_b     45.128416
_cell_length_c     15.52907
_cell_angle_alpha  89.633944
_cell_angle_beta   90.338221
_cell_angle_gamma 89.920023
loop_
_atom_site_label
_atom_site_type_symbol
_atom_site_fract_x
_atom_site_fract_y
_atom_site_fract_z
_atom_type_partial_charge
Co0 Co 0.5702 0.1066 0.36764 0.0
C1 C 0.56608 0.1014 0.17732 0.0
C2 C 0.53341 0.07474 0.24087 0.0
C3 C 0.5293 0.07247 0.15325 0.0
N4 N 0.55652 0.09281 0.25603 0.0
N5 N 0.54967 0.08944 0.11289 0.0
H6 H 0.58398 0.11694 0.16782 0.0
H7 H 0.51991 0.06442 0.28983 0.0
C8 C 0.56244 0.0517 0.47601 0.0
O9 O 0.59047 0.05405 0.49843 0.0
N10 N 0.58305 0.12133 0.48095 0.0
C11 C 0.6017 0.1441 0.49684 0.0
C12 C 0.60429 0.1481 0.5843 0.0
C13 C 0.57306 0.11338 0.56009 0.0
N14 N 0.58646 0.12854 0.62431 0.0
C15 C 0.6331 0.1017 0.3535 0.0
C16 C 0.63585 0.04264 0.30811 0.0
C17 C 0.66215 0.05877 0.31725 0.0
C18 C 0.66053 0.08865 0.33904 0.0
C19 C 0.60858 0.0567 0.32348 0.0
N20 N 0.60757 0.0856 0.34991 0.0
H21 H 0.63256 0.12509 0.36501 0.0
H22 H 0.58833 0.04431 0.31464 0.0
H23 H 0.61214 0.15785 0.4487 0.0
H24 H 0.55598 0.09716 0.57122 0.0
O25 O 0.58142 0.14344 0.31501 0.0
O26 O 0.5372 0.13457 0.37075 0.0
O27 O 0.55087 0.07091 0.4248 0.0
C28 C 0.55488 0.15291 0.33096 0.0
H29 H 0.51226 0.05946 0.12222 0.0
H30 H 0.61777 0.16467 0.61577 0.0
H31 H 0.63637 0.01957 0.28944 0.0
H32 H 0.68043 0.10197 0.34401 0.0
Co33 Co 0.37032 0.57057 0.86214 0.0
C34 C 0.37537 0.56489 0.66976 0.0
C35 C 0.38379 0.52403 0.73618 0.0
C36 C 0.38532 0.519 0.64886 0.0
N37 N 0.37832 0.55302 0.7498 0.0
N38 N 0.37994 0.54473 0.60705 0.0
H39 H 0.36918 0.58746 0.65648 0.0
H40 H 0.38576 0.50742 0.78639 0.0
C41 C 0.42772 0.53751 0.89528 0.0
O42 O 0.43797 0.54629 0.82035 0.0
N43 N 0.36187 0.58722 0.97402 0.0
C44 C 0.35354 0.61525 0.99039 0.0
C45 C 0.35063 0.61846 0.07809 0.0
C46 C 0.3638 0.57368 0.05178 0.0
N47 N 0.35712 0.59233 0.11688 0.0
C48 C 0.38913 0.6245 0.78297 0.0
C49 C 0.43767 0.63539 0.8867 0.0
C50 C 0.42907 0.65698 0.82584 0.0
C51 C 0.40462 0.6509 0.77312 0.0
C52 C 0.42156 0.60886 0.89396 0.0
N53 N 0.39779 0.60337 0.84122 0.0
H54 H 0.3687 0.6224 0.74776 0.0
H55 H 0.42717 0.5938 0.94574 0.0
H56 H 0.35021 0.63228 0.94197 0.0
H57 H 0.36972 0.55061 0.06036 0.0
O58 O 0.33507 0.58893 0.81667 0.0
O59 O 0.33645 0.54392 0.87422 0.0
O60 O 0.40178 0.54511 0.91925 0.0
C61 C 0.32091 0.56514 0.83878 0.0
H62 H 0.38899 0.49779 0.61856 0.0
H63 H 0.34483 0.63875 0.11071 0.0
H64 H 0.45596 0.6394 0.93052 0.0
H65 H 0.39598 0.66735 0.72849 0.0
Co66 Co 0.91585 0.37844 0.31236 0.0
C67 C 0.9246 0.36857 0.12646 0.0
C68 C 0.95814 0.39718 0.17653 0.0
C69 C 0.96332 0.39304 0.09024 0.0
N70 N 0.933 0.38286 0.19856 0.0
N71 N 0.94207 0.37507 0.05921 0.0
H72 H 0.9059 0.35373 0.12243 0.0
H73 H 0.9725 0.40916 0.21967 0.0
C74 C 0.94475 0.43819 0.34004 0.0
O75 O 0.92916 0.44934 0.27584 0.0
N76 N 0.90035 0.37317 0.42605 0.0
C77 C 0.87368 0.36285 0.45093 0.0
C78 C 0.87308 0.36232 0.53991 0.0
C79 C 0.91553 0.37848 0.49871 0.0
N80 N 0.89938 0.37246 0.5688 0.0
C81 C 0.86679 0.40085 0.21436 0.0
C82 C 0.84655 0.44123 0.3331 0.0
C83 C 0.82908 0.43534 0.25995 0.0
C84 C 0.84008 0.41539 0.19944 0.0
C85 C 0.87379 0.42648 0.34477 0.0
N86 N 0.88355 0.40623 0.28593 0.0
H87 H 0.8724 0.38345 0.17105 0.0
H88 H 0.88623 0.43019 0.40341 0.0
H89 H 0.85604 0.3563 0.40765 0.0
H90 H 0.93821 0.38617 0.50072 0.0
O91 O 0.89573 0.34301 0.27771 0.0
O92 O 0.94146 0.34406 0.33082 0.0
O93 O 0.94267 0.41066 0.359 0.0
C94 C 0.91929 0.32851 0.3013 0.0
H95 H 0.98134 0.40238 0.05332 0.0
H96 H 0.85475 0.35555 0.5801 0.0
H97 H 0.83877 0.45621 0.38225 0.0
H98 H 0.82701 0.40908 0.14378 0.0
Co99 Co 0.10827 0.91926 0.83547 0.0
C100 C 0.10355 0.92526 0.64223 0.0
C101 C 0.09702 0.96632 0.70763 0.0
C102 C 0.09536 0.97157 0.62019 0.0
N103 N 0.1015 0.93712 0.72193 0.0
N104 N 0.09957 0.9457 0.57915 0.0
H105 H 0.10828 0.90241 0.62918 0.0
H106 H 0.09549 0.98282 0.75763 0.0
C107 C 0.04907 0.94893 0.84992 0.0
O108 O 0.04231 0.93906 0.77288 0.0
N109 N 0.11553 0.90245 0.94848 0.0
C110 C 0.12462 0.87466 0.96616 0.0
C111 C 0.12724 0.87142 0.05407 0.0
C112 C 0.11284 0.91584 0.02565 0.0
N113 N 0.11989 0.89732 0.0917 0.0
C114 C 0.09507 0.86476 0.75225 0.0
C115 C 0.04361 0.85081 0.83863 0.0
C116 C 0.05447 0.83115 0.77667 0.0
C117 C 0.08056 0.83845 0.73378 0.0
C118 C 0.05861 0.87765 0.85374 0.0
N119 N 0.08359 0.88485 0.80838 0.0
H120 H 0.11638 0.86817 0.72325 0.0
H121 H 0.05079 0.89187 0.90441 0.0
H122 H 0.12895 0.85788 0.91843 0.0
H123 H 0.1063 0.93875 0.03299 0.0
O124 O 0.14546 0.90375 0.79667 0.0
O125 O 0.14001 0.94799 0.85465 0.0
O126 O 0.07399 0.94242 0.88467 0.0
C127 C 0.15759 0.92839 0.82055 0.0
H128 H 0.09222 0.99291 0.58924 0.0
H129 H 0.1337 0.85131 0.08753 0.0
H130 H 0.02406 0.84534 0.87551 0.0
H131 H 0.0905 0.8232 0.68863 0.0
Co132 Co 0.56868 0.37007 0.18017 0.0
C133 C 0.56251 0.37493 0.37239 0.0
C134 C 0.52127 0.38092 0.30575 0.0
C135 C 0.51615 0.38239 0.39313 0.0
N136 N 0.55049 0.37686 0.29232 0.0
N137 N 0.54213 0.37852 0.43501 0.0
H138 H 0.58548 0.37056 0.38587 0.0
H139 H 0.50469 0.38227 0.25528 0.0
C140 C 0.53749 0.42936 0.15545 0.0
O141 O 0.5428 0.43702 0.2355 0.0
N142 N 0.586 0.36292 0.06839 0.0
C143 C 0.61389 0.35415 0.05219 0.0
C144 C 0.61724 0.35163 0.96442 0.0
C145 C 0.57267 0.36546 0.99044 0.0
N146 N 0.59131 0.35872 0.92531 0.0
C147 C 0.62353 0.381 0.26564 0.0
C148 C 0.63693 0.4351 0.19209 0.0
C149 C 0.65692 0.42247 0.25161 0.0
C150 C 0.64981 0.395 0.28789 0.0
C151 C 0.61024 0.42037 0.17242 0.0
N152 N 0.60339 0.39391 0.21116 0.0
H153 H 0.61994 0.35913 0.29157 0.0
H154 H 0.59591 0.42979 0.12365 0.0
H155 H 0.63067 0.34993 0.10075 0.0
H156 H 0.54969 0.3717 0.98192 0.0
O157 O 0.58299 0.33215 0.21988 0.0
O158 O 0.53929 0.33934 0.15758 0.0
O159 O 0.54673 0.40462 0.12658 0.0
C160 C 0.55828 0.32104 0.19234 0.0
H161 H 0.4948 0.38517 0.42343 0.0
H162 H 0.63747 0.34543 0.93211 0.0
H163 H 0.64201 0.45589 0.16027 0.0
H164 H 0.66511 0.38361 0.33077 0.0
Co165 Co 0.10413 0.57128 0.66128 0.0
C166 C 0.09726 0.56937 0.8513 0.0
C167 C 0.0738 0.53386 0.7899 0.0
C168 C 0.07017 0.53128 0.87767 0.0
N169 N 0.09059 0.55788 0.77335 0.0
N170 N 0.08504 0.55352 0.91617 0.0
H171 H 0.1108 0.5889 0.86035 0.0
H172 H 0.06521 0.51887 0.74185 0.0
C173 C 0.04985 0.56125 0.55361 0.0
O174 O 0.05144 0.58939 0.53182 0.0
N175 N 0.11879 0.58363 0.54738 0.0
C176 C 0.14182 0.6019 0.53079 0.0
C177 C 0.14668 0.6031 0.44356 0.0
C178 C 0.11148 0.57253 0.46904 0.0
N179 N 0.12745 0.58472 0.40439 0.0
C180 C 0.09581 0.6342 0.66511 0.0
C181 C 0.03935 0.63433 0.73302 0.0
C182 C 0.05398 0.66133 0.71988 0.0
C183 C 0.08233 0.66103 0.68466 0.0
C184 C 0.05346 0.60775 0.71007 0.0
N185 N 0.0814 0.60789 0.67585 0.0
H186 H 0.11855 0.63482 0.64607 0.0
H187 H 0.04224 0.58699 0.72207 0.0
H188 H 0.15516 0.61305 0.57858 0.0
H189 H 0.09596 0.55471 0.45916 0.0
O190 O 0.14007 0.5848 0.71397 0.0
O191 O 0.13379 0.53963 0.66218 0.0
O192 O 0.06939 0.55012 0.6046 0.0
C193 C 0.15108 0.55868 0.70067 0.0
H194 H 0.05826 0.51385 0.91078 0.0
H195 H 0.16329 0.61646 0.41183 0.0
H196 H 0.01757 0.63377 0.76181 0.0
H197 H 0.09468 0.68143 0.6764 0.0
Co198 Co 0.92124 0.10637 0.18582 0.0
C199 C 0.92633 0.10074 0.37903 0.0
C200 C 0.96647 0.08958 0.31427 0.0
C201 C 0.97142 0.08754 0.40171 0.0
N202 N 0.9379 0.09701 0.29945 0.0
N203 N 0.94615 0.09465 0.44241 0.0
H204 H 0.90434 0.10865 0.39164 0.0
H205 H 0.98292 0.0866 0.26472 0.0
C206 C 0.94898 0.04675 0.16248 0.0
O207 O 0.93688 0.03848 0.23553 0.0
N208 N 0.90569 0.11627 0.07286 0.0
C209 C 0.87869 0.12751 0.0552 0.0
C210 C 0.87577 0.13067 0.96734 0.0
C211 C 0.91891 0.1128 0.99571 0.0
N212 N 0.90105 0.12143 0.92975 0.0
C213 C 0.86607 0.09075 0.2628 0.0
C214 C 0.85079 0.04597 0.1508 0.0
C215 C 0.83017 0.05511 0.21248 0.0
C216 C 0.83841 0.07745 0.26969 0.0
C217 C 0.87885 0.05939 0.14775 0.0
N218 N 0.88641 0.08138 0.20422 0.0
H219 H 0.8698 0.11037 0.29999 0.0
H220 H 0.89355 0.05349 0.09602 0.0
H221 H 0.86212 0.13263 0.1029 0.0
H222 H 0.94118 0.10434 0.98819 0.0
O223 O 0.90544 0.14272 0.23014 0.0
O224 O 0.95029 0.13817 0.17514 0.0
O225 O 0.94462 0.07289 0.13279 0.0
C226 C 0.9304 0.15515 0.21042 0.0
H227 H 0.99233 0.08238 0.43286 0.0
H228 H 0.8562 0.13859 0.93379 0.0
H229 H 0.84489 0.02944 0.10345 0.0
H230 H 0.82266 0.08632 0.31524 0.0
Co231 Co 0.38141 0.91603 0.71919 0.0
C232 C 0.37406 0.92273 0.906 0.0
C233 C 0.39939 0.95855 0.85403 0.0
C234 C 0.39519 0.9636 0.94034 0.0
N235 N 0.38712 0.93222 0.83317 0.0
N236 N 0.37912 0.94103 0.97223 0.0
H237 H 0.36041 0.90318 0.9108 0.0
H238 H 0.40948 0.97395 0.80967 0.0
C239 C 0.44027 0.94615 0.69111 0.0
O240 O 0.4515 0.93081 0.75572 0.0
N241 N 0.37483 0.90137 0.6055 0.0
C242 C 0.3655 0.87442 0.58005 0.0
C243 C 0.36468 0.87422 0.49113 0.0
C244 C 0.37917 0.91715 0.53345 0.0
N245 N 0.3736 0.90107 0.46303 0.0
C246 C 0.40467 0.86512 0.80716 0.0
C247 C 0.44431 0.8483 0.68196 0.0
C248 C 0.43799 0.82833 0.74922 0.0
C249 C 0.41862 0.83768 0.81372 0.0
C250 C 0.42989 0.87588 0.67811 0.0
N251 N 0.40981 0.88385 0.7396 0.0
H252 H 0.38764 0.86974 0.85276 0.0
H253 H 0.43336 0.88989 0.62238 0.0
H254 H 0.36022 0.85621 0.62288 0.0
H255 H 0.38624 0.94004 0.53218 0.0
O256 O 0.34667 0.89524 0.75619 0.0
O257 O 0.34654 0.9414 0.70629 0.0
O258 O 0.41286 0.94349 0.67136 0.0
C259 C 0.33161 0.91879 0.73577 0.0
H260 H 0.40268 0.98267 0.97632 0.0
H261 H 0.35885 0.85571 0.45043 0.0
H262 H 0.45908 0.84213 0.63037 0.0
H263 H 0.41205 0.82292 0.86541 0.0
H264 H 0.49992 0.95433 0.70618 0.0
H265 H 0.42327 0.98494 0.5637 0.0
H266 H 0.45418 0.01953 0.48291 0.0
H267 H 0.50296 0.04196 0.45437 0.0
H268 H 0.57951 0.01076 0.5965 0.0
H269 H 0.5487 0.97563 0.67492 0.0
C270 C 0.48992 0.96857 0.65757 0.0
C271 C 0.45922 0.96708 0.64172 0.0
C272 C 0.50786 0.98838 0.61089 0.0
C273 C 0.44679 0.9856 0.57775 0.0
C274 C 0.46447 1.00544 0.53133 0.0
C275 C 0.51295 0.02738 0.50217 0.0
C276 C 0.54358 0.02918 0.51942 0.0
C277 C 0.49504 1.00713 0.54754 0.0
C278 C 0.55605 0.01001 0.58165 0.0
C279 C 0.53841 0.98988 0.62686 0.0
H280 H 0.49524 0.47004 0.19686 0.0
H281 H 0.54192 0.43305 0.98105 0.0
H282 H 0.51312 0.464 0.88169 0.0
H283 H 0.47353 0.50071 0.85527 0.0
H284 H 0.42451 0.5351 0.0703 0.0
H285 H 0.45512 0.50622 0.17023 0.0
C286 C 0.49926 0.469 0.12815 0.0
C287 C 0.5208 0.44939 0.09653 0.0
C288 C 0.48201 0.48632 0.07098 0.0
C289 C 0.52544 0.44792 1.00713 0.0
C290 C 0.50897 0.46564 0.95018 0.0
C291 C 0.46967 0.50196 0.92402 0.0
C292 C 0.44674 0.52003 0.95515 0.0
C293 C 0.48703 0.48477 0.98122 0.0
C294 C 0.44183 0.52119 0.04446 0.0
C295 C 0.45943 0.50474 0.1018 0.0
H296 H 0.95301 0.49783 0.32366 0.0
H297 H 0.9836 0.42151 0.46776 0.0
H298 H 0.01819 0.45261 0.54784 0.0
H299 H 0.04053 0.50159 0.5758 0.0
H300 H 0.00929 0.5777 0.43161 0.0
H301 H 0.97438 0.54665 0.35357 0.0
C302 C 0.96724 0.48794 0.37247 0.0
C303 C 0.9657 0.45728 0.38902 0.0
C304 C 0.98708 0.50598 0.41869 0.0
C305 C 0.98426 0.445 0.45319 0.0
C306 C 1.00411 0.4628 0.49921 0.0
C307 C 0.02601 0.51141 0.52758 0.0
C308 C 0.0277 0.54202 0.50985 0.0
C309 C 1.00581 0.49334 0.48238 0.0
C310 C 1.00861 0.55427 0.44701 0.0
C311 C 0.98858 0.53649 0.40197 0.0
H312 H 0.95661 0.04221 0.9895 0.0
H313 H 0.98543 1.00497 0.23233 0.0
H314 H 0.01949 0.97181 0.15756 0.0
H315 H 0.04147 0.95366 0.02281 0.0
H316 H 0.00964 0.98792 0.77941 0.0
H317 H 0.97634 0.02183 0.85426 0.0
C318 C 0.97036 0.02679 0.02583 0.0
C319 C 0.96868 0.02611 0.11624 0.0
C320 C 0.9893 1.00722 0.98223 0.0
C321 C 0.98628 1.00579 0.16265 0.0
C322 C 1.00581 0.98689 0.11996 0.0
C323 C 0.02719 0.96854 0.98631 0.0
C324 C 0.0281 0.96843 0.89578 0.0
C325 C 1.00756 0.98745 0.02977 0.0
C326 C 0.00923 0.98753 0.84915 0.0
C327 C 0.99027 1.00699 0.89191 0.0
H328 H 0.5784 0.18457 0.202 0.0
H329 H 0.51231 0.18928 0.40059 0.0
H330 H 0.50428 0.24206 0.36733 0.0
H331 H 0.52086 0.28823 0.29223 0.0
H332 H 0.58841 0.28212 0.09822 0.0
H333 H 0.59089 0.22845 0.1181 0.0
C334 C 0.56198 0.19706 0.23751 0.0
C335 C 0.54627 0.18327 0.30447 0.0
C336 C 0.55782 0.22716 0.21859 0.0
C337 C 0.52472 0.19951 0.34888 0.0
C338 C 0.52026 0.22969 0.33009 0.0
C339 C 0.53541 0.27487 0.25289 0.0
C340 C 0.55426 0.28877 0.19323 0.0
C341 C 0.53728 0.24396 0.26652 0.0
C342 C 0.57357 0.27162 0.14376 0.0
C343 C 0.57513 0.24104 0.15555 0.0
H344 H 0.18612 0.59363 0.79607 0.0
H345 H 0.1856 0.50931 0.66702 0.0
H346 H 0.23806 0.50197 0.70591 0.0
H347 H 0.28531 0.52188 0.76862 0.0
H348 H 0.284 0.60775 0.88891 0.0
H349 H 0.23096 0.61201 0.86227 0.0
C350 C 0.19731 0.5735 0.77646 0.0
C351 C 0.182 0.55218 0.72793 0.0
C352 C 0.22724 0.56975 0.7978 0.0
C353 C 0.1969 0.52614 0.70416 0.0
C354 C 0.2269 0.52198 0.7263 0.0
C355 C 0.27313 0.54117 0.79011 0.0
C356 C 0.28837 0.56448 0.83087 0.0
C357 C 0.24249 0.5439 0.77209 0.0
C358 C 0.27264 0.58962 0.85736 0.0
C359 C 0.24236 0.5921 0.84198 0.0
H360 H 0.89064 0.1931 0.27587 0.0
H361 H 0.98042 0.18909 0.1832 0.0
H362 H 0.98621 0.24243 0.20965 0.0
H363 H 0.96439 0.29096 0.25408 0.0
H364 H 0.87356 0.29318 0.33875 0.0
H365 H 0.86966 0.23976 0.32153 0.0
C366 C 0.9116 0.20374 0.2616 0.0
C367 C 0.93504 0.18712 0.22737 0.0
C368 C 0.91456 0.23419 0.27594 0.0
C369 C 0.96198 0.20141 0.20938 0.0
C370 C 0.96528 0.2319 0.2246 0.0
C371 C 0.94399 0.27953 0.26975 0.0
C372 C 0.91929 0.29586 0.29783 0.0
C373 C 0.9416 0.24863 0.25734 0.0
C374 C 0.89279 0.28102 0.31678 0.0
C375 C 0.89052 0.2505 0.30686 0.0
H376 H 0.2933 0.96371 0.7809 0.0
H377 H 0.29704 0.87192 0.70536 0.0
H378 H 0.24381 0.86728 0.72362 0.0
H379 H 0.19674 0.88813 0.76505 0.0
H380 H 0.19082 0.97901 0.84733 0.0
H381 H 0.2443 0.98519 0.82326 0.0
C382 C 0.28225 0.94289 0.76769 0.0
C383 C 0.299 0.91817 0.7417 0.0
C384 C 0.25138 0.94011 0.7804 0.0
C385 C 0.28462 0.89118 0.72582 0.0
C386 C 0.25418 0.88848 0.73626 0.0
C387 C 0.20699 0.9094 0.77771 0.0
C388 C 0.18979 0.93307 0.80796 0.0
C389 C 0.23745 0.91263 0.7644 0.0
C390 C 0.20361 0.96039 0.82422 0.0
C391 C 0.23416 0.96392 0.81023 0.0
H392 H 0.45361 0.79195 0.88409 0.0
H393 H 0.44216 0.79256 0.6078 0.0
H394 H 0.44454 0.73868 0.60629 0.0
H395 H 0.44069 0.69158 0.68525 0.0
H396 H 0.44617 0.69115 0.9628 0.0
H397 H 0.4557 0.74435 0.96175 0.0
C398 C 0.45199 0.78034 0.82333 0.0
C399 C 0.44714 0.7965 0.74641 0.0
C400 C 0.45194 0.74917 0.82323 0.0
C401 C 0.446 0.78098 0.66813 0.0
C402 C 0.44698 0.75001 0.66725 0.0
C403 C 0.44437 0.70305 0.74553 0.0
C404 C 0.44215 0.68735 0.82404 0.0
C405 C 0.44852 0.73391 0.74473 0.0
C406 C 0.44778 0.70248 0.90133 0.0
C407 C 0.45291 0.73306 0.90085 0.0
H408 H 0.78661 0.43785 0.38385 0.0
H409 H 0.80103 0.45557 0.11413 0.0
H410 H 0.74764 0.45793 0.08909 0.0
H411 H 0.69735 0.44545 0.13915 0.0
H412 H 0.68318 0.42808 0.40913 0.0
H413 H 0.73572 0.43574 0.43887 0.0
C414 C 0.77815 0.44333 0.32021 0.0
C415 C 0.79786 0.44584 0.25069 0.0
C416 C 0.74732 0.44422 0.30591 0.0
C417 C 0.78635 0.45288 0.16855 0.0
C418 C 0.75577 0.45417 0.15406 0.0
C419 C 0.70558 0.44437 0.20485 0.0
C420 C 0.68647 0.43554 0.27146 0.0
C421 C 0.73604 0.4484 0.22147 0.0
C422 C 0.69755 0.43424 0.35636 0.0
C423 C 0.72764 0.43856 0.37346 0.0
H424 H 0.04569 0.7855 0.8893 0.0
H425 H 0.03495 0.81093 0.62304 0.0
H426 H 0.02808 0.75918 0.58275 0.0
H427 H 0.03539 0.70665 0.61949 0.0
H428 H 0.04781 0.68052 0.88421 0.0
H429 H 0.04327 0.73229 0.92952 0.0
C430 C 0.04063 0.77971 0.82315 0.0
C431 C 0.04096 0.80187 0.75904 0.0
C432 C 0.03754 0.74969 0.80009 0.0
C433 C 0.0348 0.79415 0.67327 0.0
C434 C 0.03113 0.76456 0.65015 0.0
C435 C 0.0359 0.71229 0.68731 0.0
C436 C 0.0418 0.69003 0.74858 0.0
C437 C 0.03394 0.74208 0.71234 0.0
C438 C 0.0429 0.69739 0.83623 0.0
C439 C 0.04064 0.72701 0.86193 0.0
H440 H 0.79749 0.03563 0.34734 0.0
H441 H 0.79228 0.05404 0.07507 0.0
H442 H 0.73816 0.05151 0.08042 0.0
H443 H 0.69256 0.05335 0.16826 0.0
H444 H 0.69829 0.03705 0.44129 0.0
H445 H 0.75178 0.02909 0.43036 0.0
C446 C 0.78447 0.03823 0.28882 0.0
C447 C 0.79879 0.04525 0.21112 0.0
C448 C 0.75339 0.03747 0.29293 0.0
C449 C 0.78177 0.04845 0.13556 0.0
C450 C 0.7508 0.04733 0.13882 0.0
C451 C 0.70548 0.04691 0.22447 0.0
C452 C 0.69172 0.04548 0.30534 0.0
C453 C 0.73636 0.04315 0.21784 0.0
C454 C 0.70854 0.03782 0.37839 0.0
C455 C 0.73911 0.03357 0.3722 0.0
H456 H 0.53943 0.10569 0.71017 0.0
H457 H 0.62756 0.14049 0.74715 0.0
H458 H 0.62399 0.1316 0.90164 0.0
H459 H 0.59645 0.11286 0.02636 0.0
H460 H 0.50786 0.0789 0.98935 0.0
H461 H 0.51153 0.08777 0.8355 0.0
C462 C 0.55794 0.1112 0.75175 0.0
C463 C 0.5837 0.12386 0.71632 0.0
C464 C 0.55584 0.10589 0.84105 0.0
C465 C 0.60725 0.13118 0.77213 0.0
C466 C 0.60534 0.12588 0.86076 0.0
C467 C 0.57777 0.10759 0.98523 0.0
C468 C 0.55199 0.09498 0.02092 0.0
C469 C 0.57977 0.11318 0.89603 0.0
C470 C 0.52827 0.0881 0.96499 0.0
C471 C 0.53021 0.09339 0.87637 0.0
H472 H 0.3467 0.58522 0.52056 0.0
H473 H 0.40984 0.51464 0.48452 0.0
H474 H 0.40787 0.5225 0.32871 0.0
H475 H 0.38908 0.55032 0.2024 0.0
H476 H 0.32558 0.62059 0.23962 0.0
H477 H 0.32725 0.61226 0.39466 0.0
C478 C 0.36024 0.5717 0.47885 0.0
C479 C 0.37848 0.54941 0.51474 0.0
C480 C 0.35902 0.57636 0.38911 0.0
C481 C 0.39538 0.53176 0.45897 0.0
C482 C 0.39438 0.53634 0.36971 0.0
C483 C 0.37536 0.56362 0.24417 0.0
C484 C 0.35737 0.58623 0.20864 0.0
C485 C 0.3763 0.55862 0.33393 0.0
C486 C 0.34003 0.60339 0.2646 0.0
C487 C 0.34083 0.59854 0.35359 0.0
H488 H 0.95302 0.4096 0.92265 0.0
H489 H 0.9161 0.3254 0.99835 0.0
H490 H 0.89818 0.31739 0.85148 0.0
H491 H 0.89144 0.33553 0.7023 0.0
H492 H 0.92942 0.4193 0.62784 0.0
H493 H 0.94856 0.42647 0.77362 0.0
C494 C 0.94165 0.38922 0.90654 0.0
C495 C 0.93576 0.36821 0.97098 0.0
C496 C 0.93123 0.38495 0.82263 0.0
C497 C 0.92056 0.34206 0.9497 0.0
C498 C 0.91028 0.33749 0.86595 0.0
C499 C 0.90368 0.35537 0.71883 0.0
C500 C 0.90893 0.37697 0.65562 0.0
C501 C 0.91499 0.35908 0.8023 0.0
C502 C 0.92525 0.40244 0.67623 0.0
C503 C 0.93621 0.4065 0.75919 0.0
H504 H 0.08813 0.93941 0.17516 0.0
H505 H 0.15192 0.86926 0.21596 0.0
H506 H 0.15091 0.87783 0.37033 0.0
H507 H 0.13212 0.90508 0.49471 0.0
H508 H 0.06918 0.9759 0.45576 0.0
H509 H 0.07015 0.96766 0.30018 0.0
C510 C 0.10205 0.92618 0.21755 0.0
C511 C 0.11988 0.9035 0.18317 0.0
C512 C 0.1016 0.9314 0.30702 0.0
C513 C 0.13752 0.88646 0.23996 0.0
C514 C 0.13712 0.89147 0.32861 0.0
C515 C 0.11842 0.91856 0.45235 0.0
C516 C 0.10049 0.94098 0.48716 0.0
C517 C 0.11914 0.91373 0.36297 0.0
C518 C 0.08336 0.95865 0.4308 0.0
C519 C 0.08381 0.95385 0.34177 0.0
H520 H 0.58401 0.34726 0.52168 0.0
H521 H 0.51105 0.40761 0.55721 0.0
H522 H 0.51938 0.40659 0.713 0.0
H523 H 0.54822 0.38932 0.8394 0.0
H524 H 0.62052 0.32805 0.80221 0.0
H525 H 0.61194 0.32917 0.64752 0.0
C526 C 0.57007 0.36039 0.56329 0.0
C527 C 0.547 0.3776 0.5273 0.0
C528 C 0.57496 0.35966 0.65297 0.0
C529 C 0.5288 0.39398 0.5829 0.0
C530 C 0.53365 0.39351 0.67213 0.0
C531 C 0.56194 0.37596 0.79777 0.0
C532 C 0.58521 0.35881 0.83343 0.0
C533 C 0.55671 0.37644 0.70803 0.0
C534 C 0.60284 0.34193 0.77743 0.0
C535 C 0.59783 0.34238 0.68852 0.0
H536 H 0.13313 0.57413 1.00036 0.0
H537 H 0.04394 0.54297 0.03819 0.0
H538 H 0.04925 0.54935 0.19383 0.0
H539 H 0.07912 0.56431 0.31913 0.0
H540 H 0.16914 0.59364 0.28127 0.0
H541 H 0.1635 0.58778 0.12632 0.0
C542 C 0.1148 0.56902 0.0427 0.0
C543 C 0.08813 0.55822 1.00768 0.0
C544 C 0.11816 0.5724 0.13233 0.0
C545 C 0.06474 0.55115 0.06357 0.0
C546 C 0.06776 0.55485 0.15256 0.0
C547 C 0.09767 0.56908 0.27735 0.0
C548 C 0.12449 0.57958 0.31271 0.0
C549 C 0.09441 0.56538 0.18778 0.0
C550 C 0.14807 0.58599 0.25658 0.0
C551 C 0.14493 0.58252 0.16758 0.0
H552 H 0.90915 0.13153 0.52634 0.0
H553 H 0.97324 0.0618 0.56641 0.0
H554 H 0.96558 0.06427 0.72196 0.0
H555 H 0.93965 0.08549 0.84672 0.0
H556 H 0.87609 0.15578 0.80526 0.0
H557 H 0.88419 0.15344 0.65064 0.0
C558 C 0.92126 0.11669 0.56893 0.0
C559 C 0.94165 0.09641 0.5344 0.0
C560 C 0.91675 0.11824 0.65839 0.0
C561 C 0.9576 0.07779 0.5911 0.0
C562 C 0.95312 0.0791 0.68014 0.0
C563 C 0.92779 0.10053 0.80411 0.0
C564 C 0.90708 0.12064 0.83829 0.0
C565 C 0.9327 0.09922 0.71462 0.0
C566 C 0.89175 0.1397 0.7813 0.0
C567 C 0.89649 0.13851 0.69257 0.0
H568 H 0.33806 0.89141 0.32794 0.0
H569 H 0.41949 0.93319 0.40664 0.0
H570 H 0.42709 0.95208 0.26081 0.0
H571 H 0.41155 0.95481 0.11021 0.0
H572 H 0.32987 0.91368 0.03026 0.0
H573 H 0.32102 0.89659 0.17751 0.0
C574 C 0.35747 0.90447 0.31235 0.0
C575 C 0.37828 0.91085 0.37665 0.0
C576 C 0.36146 0.91551 0.22884 0.0
C577 C 0.40321 0.92819 0.35734 0.0
C578 C 0.40753 0.93899 0.27436 0.0
C579 C 0.39153 0.94269 0.12558 0.0
C580 C 0.37153 0.93528 0.06003 0.0
C581 C 0.38683 0.93272 0.20966 0.0
C582 C 0.34579 0.91922 0.08002 0.0
C583 C 0.34074 0.90943 0.16392 0.0
loop_
_geom_bond_atom_site_label_1
_geom_bond_atom_site_label_2
_geom_bond_distance
_geom_bond_site_symmetry_2
_ccdc_geom_bond_type
Co0 N4 2.148 . S
Co0 N10 2.128 . S
Co0 N20 2.194 . S
Co0 O25 2.351 . S
Co0 O26 2.155 . S
Co0 O27 2.096 . S
C1 N4 1.301 . S
C1 N5 1.328 . S
C1 H6 0.930 . S
C2 C3 1.333 . S
C2 N4 1.317 . S
C2 H7 0.930 . S
C3 C2 1.333 . S
C3 N5 1.350 . S
C3 H29 0.931 . S
N4 Co0 2.148 . S
N4 C1 1.301 . S
N4 C2 1.317 . S
N5 C1 1.328 . S
N5 C3 1.350 . S
H6 C1 0.930 . S
H7 C2 0.930 . S
C8 O9 1.224 . S
C8 O27 1.247 . S
O9 C8 1.224 . S
N10 Co0 2.128 . S
N10 C11 1.355 . S
N10 C13 1.311 . S
C11 N10 1.355 . S
C11 C12 1.363 . S
C11 H23 0.929 . S
C12 C11 1.363 . S
C12 N14 1.375 . S
C12 H30 0.931 . S
C13 N10 1.311 . S
C13 N14 1.347 . S
C13 H24 0.929 . S
N14 C12 1.375 . S
N14 C13 1.347 . S
C15 C18 1.365 . S
C15 N20 1.328 . S
C15 H21 0.929 . S
C16 C17 1.362 . S
C16 C19 1.378 . S
C16 H31 0.929 . S
C17 C16 1.362 . S
C17 C18 1.366 . S
C18 C15 1.365 . S
C18 C17 1.366 . S
C18 H32 0.930 . S
C19 C16 1.378 . S
C19 N20 1.315 . S
C19 H22 0.930 . S
N20 Co0 2.194 . S
N20 C15 1.328 . S
N20 C19 1.315 . S
H21 C15 0.929 . S
H22 C19 0.930 . S
H23 C11 0.929 . S
H24 C13 0.929 . S
O25 Co0 2.351 . S
O25 C28 1.244 . S
O26 Co0 2.155 . S
O26 C28 1.240 . S
O27 Co0 2.096 . S
O27 C8 1.247 . S
C28 O25 1.244 . S
C28 O26 1.240 . S
H29 C3 0.931 . S
H30 C12 0.931 . S
H31 C16 0.929 . S
H32 C18 0.930 . S
Co33 N37 2.148 . S
Co33 N43 2.128 . S
Co33 N53 2.194 . S
Co33 O58 2.351 . S
Co33 O59 2.155 . S
Co33 O60 2.096 . S
C34 N37 1.301 . S
C34 N38 1.328 . S
C34 H39 0.930 . S
C35 C36 1.333 . S
C35 N37 1.317 . S
C35 H40 0.930 . S
C36 C35 1.333 . S
C36 N38 1.350 . S
C36 H62 0.931 . S
N37 Co33 2.148 . S
N37 C34 1.301 . S
N37 C35 1.317 . S
N38 C34 1.328 . S
N38 C36 1.350 . S
H39 C34 0.930 . S
H40 C35 0.930 . S
C41 O42 1.224 . S
C41 O60 1.247 . S
O42 C41 1.224 . S
N43 Co33 2.128 . S
N43 C44 1.355 . S
N43 C46 1.311 1_556 S
C44 N43 1.355 . S
C44 C45 1.363 1_556 S
C44 H56 0.929 . S
C45 C44 1.363 1_554 S
C45 N47 1.375 . S
C45 H63 0.931 . S
C46 N43 1.311 1_554 S
C46 N47 1.347 . S
C46 H57 0.929 . S
N47 C45 1.375 . S
N47 C46 1.347 . S
C48 C51 1.365 . S
C48 N53 1.328 . S
C48 H54 0.929 . S
C49 C50 1.362 . S
C49 C52 1.378 . S
C49 H64 0.929 . S
C50 C49 1.362 . S
C50 C51 1.366 . S
C51 C48 1.365 . S
C51 C50 1.366 . S
C51 H65 0.930 . S
C52 C49 1.378 . S
C52 N53 1.315 . S
C52 H55 0.930 . S
N53 Co33 2.194 . S
N53 C48 1.328 . S
N53 C52 1.315 . S
H54 C48 0.929 . S
H55 C52 0.930 . S
H56 C44 0.929 . S
H57 C46 0.929 . S
O58 Co33 2.351 . S
O58 C61 1.244 . S
O59 Co33 2.155 . S
O59 C61 1.240 . S
O60 Co33 2.096 . S
O60 C41 1.247 . S
C61 O58 1.244 . S
C61 O59 1.240 . S
H62 C36 0.931 . S
H63 C45 0.931 . S
H64 C49 0.929 . S
H65 C51 0.930 . S
Co66 N70 2.148 . S
Co66 N76 2.128 . S
Co66 N86 2.194 . S
Co66 O91 2.351 . S
Co66 O92 2.155 . S
Co66 O93 2.096 . S
C67 N70 1.301 . S
C67 N71 1.328 . S
C67 H72 0.930 . S
C68 C69 1.333 . S
C68 N70 1.317 . S
C68 H73 0.930 . S
C69 C68 1.333 . S
C69 N71 1.350 . S
C69 H95 0.931 . S
N70 Co66 2.148 . S
N70 C67 1.301 . S
N70 C68 1.317 . S
N71 C67 1.328 . S
N71 C69 1.350 . S
H72 C67 0.930 . S
H73 C68 0.930 . S
C74 O75 1.224 . S
C74 O93 1.247 . S
O75 C74 1.224 . S
N76 Co66 2.128 . S
N76 C77 1.355 . S
N76 C79 1.311 . S
C77 N76 1.355 . S
C77 C78 1.363 . S
C77 H89 0.929 . S
C78 C77 1.363 . S
C78 N80 1.375 . S
C78 H96 0.931 . S
C79 N76 1.311 . S
C79 N80 1.347 . S
C79 H90 0.929 . S
N80 C78 1.375 . S
N80 C79 1.347 . S
C81 C84 1.365 . S
C81 N86 1.328 . S
C81 H87 0.929 . S
C82 C83 1.362 . S
C82 C85 1.378 . S
C82 H97 0.929 . S
C83 C82 1.362 . S
C83 C84 1.366 . S
C84 C81 1.365 . S
C84 C83 1.366 . S
C84 H98 0.930 . S
C85 C82 1.378 . S
C85 N86 1.315 . S
C85 H88 0.930 . S
N86 Co66 2.194 . S
N86 C81 1.328 . S
N86 C85 1.315 . S
H87 C81 0.929 . S
H88 C85 0.930 . S
H89 C77 0.929 . S
H90 C79 0.929 . S
O91 Co66 2.351 . S
O91 C94 1.244 . S
O92 Co66 2.155 . S
O92 C94 1.240 . S
O93 Co66 2.096 . S
O93 C74 1.247 . S
C94 O91 1.244 . S
C94 O92 1.240 . S
H95 C69 0.931 . S
H96 C78 0.931 . S
H97 C82 0.929 . S
H98 C84 0.930 . S
Co99 N103 2.148 . S
Co99 N109 2.128 . S
Co99 N119 2.194 . S
Co99 O124 2.351 . S
Co99 O125 2.155 . S
Co99 O126 2.096 . S
C100 N103 1.301 . S
C100 N104 1.328 . S
C100 H105 0.930 . S
C101 C102 1.333 . S
C101 N103 1.317 . S
C101 H106 0.930 . S
C102 C101 1.333 . S
C102 N104 1.350 . S
C102 H128 0.931 . S
N103 Co99 2.148 . S
N103 C100 1.301 . S
N103 C101 1.317 . S
N104 C100 1.328 . S
N104 C102 1.350 . S
H105 C100 0.930 . S
H106 C101 0.930 . S
C107 O108 1.224 . S
C107 O126 1.247 . S
O108 C107 1.224 . S
N109 Co99 2.128 . S
N109 C110 1.355 . S
N109 C112 1.311 1_556 S
C110 N109 1.355 . S
C110 C111 1.363 1_556 S
C110 H122 0.929 . S
C111 C110 1.363 1_554 S
C111 N113 1.375 . S
C111 H129 0.931 . S
C112 N109 1.311 1_554 S
C112 N113 1.347 . S
C112 H123 0.929 . S
N113 C111 1.375 . S
N113 C112 1.347 . S
C114 C117 1.365 . S
C114 N119 1.328 . S
C114 H120 0.929 . S
C115 C116 1.362 . S
C115 C118 1.378 . S
C115 H130 0.929 . S
C116 C115 1.362 . S
C116 C117 1.366 . S
C117 C114 1.365 . S
C117 C116 1.366 . S
C117 H131 0.930 . S
C118 C115 1.378 . S
C118 N119 1.315 . S
C118 H121 0.930 . S
N119 Co99 2.194 . S
N119 C114 1.328 . S
N119 C118 1.315 . S
H120 C114 0.929 . S
H121 C118 0.930 . S
H122 C110 0.929 . S
H123 C112 0.929 . S
O124 Co99 2.351 . S
O124 C127 1.244 . S
O125 Co99 2.155 . S
O125 C127 1.240 . S
O126 Co99 2.096 . S
O126 C107 1.247 . S
C127 O124 1.244 . S
C127 O125 1.240 . S
H128 C102 0.931 . S
H129 C111 0.931 . S
H130 C115 0.929 . S
H131 C117 0.930 . S
Co132 N136 2.148 . S
Co132 N142 2.128 . S
Co132 N152 2.194 . S
Co132 O157 2.351 . S
Co132 O158 2.155 . S
Co132 O159 2.096 . S
C133 N136 1.301 . S
C133 N137 1.328 . S
C133 H138 0.930 . S
C134 C135 1.333 . S
C134 N136 1.317 . S
C134 H139 0.930 . S
C135 C134 1.333 . S
C135 N137 1.350 . S
C135 H161 0.931 . S
N136 Co132 2.148 . S
N136 C133 1.301 . S
N136 C134 1.317 . S
N137 C133 1.328 . S
N137 C135 1.350 . S
H138 C133 0.930 . S
H139 C134 0.930 . S
C140 O141 1.224 . S
C140 O159 1.247 . S
O141 C140 1.224 . S
N142 Co132 2.128 . S
N142 C143 1.355 . S
N142 C145 1.311 1_554 S
C143 N142 1.355 . S
C143 C144 1.363 1_554 S
C143 H155 0.929 . S
C144 C143 1.363 1_556 S
C144 N146 1.375 . S
C144 H162 0.931 . S
C145 N142 1.311 1_556 S
C145 N146 1.347 . S
C145 H156 0.929 . S
N146 C144 1.375 . S
N146 C145 1.347 . S
C147 C150 1.365 . S
C147 N152 1.328 . S
C147 H153 0.929 . S
C148 C149 1.362 . S
C148 C151 1.378 . S
C148 H163 0.929 . S
C149 C148 1.362 . S
C149 C150 1.366 . S
C150 C147 1.365 . S
C150 C149 1.366 . S
C150 H164 0.930 . S
C151 C148 1.378 . S
C151 N152 1.315 . S
C151 H154 0.930 . S
N152 Co132 2.194 . S
N152 C147 1.328 . S
N152 C151 1.315 . S
H153 C147 0.929 . S
H154 C151 0.930 . S
H155 C143 0.929 . S
H156 C145 0.929 . S
O157 Co132 2.351 . S
O157 C160 1.244 . S
O158 Co132 2.155 . S
O158 C160 1.240 . S
O159 Co132 2.096 . S
O159 C140 1.247 . S
C160 O157 1.244 . S
C160 O158 1.240 . S
H161 C135 0.931 . S
H162 C144 0.931 . S
H163 C148 0.929 . S
H164 C150 0.930 . S
Co165 N169 2.148 . S
Co165 N175 2.128 . S
Co165 N185 2.194 . S
Co165 O190 2.351 . S
Co165 O191 2.155 . S
Co165 O192 2.096 . S
C166 N169 1.301 . S
C166 N170 1.328 . S
C166 H171 0.930 . S
C167 C168 1.333 . S
C167 N169 1.317 . S
C167 H172 0.930 . S
C168 C167 1.333 . S
C168 N170 1.350 . S
C168 H194 0.931 . S
N169 Co165 2.148 . S
N169 C166 1.301 . S
N169 C167 1.317 . S
N170 C166 1.328 . S
N170 C168 1.350 . S
H171 C166 0.930 . S
H172 C167 0.930 . S
C173 O174 1.224 . S
C173 O192 1.247 . S
O174 C173 1.224 . S
N175 Co165 2.128 . S
N175 C176 1.355 . S
N175 C178 1.311 . S
C176 N175 1.355 . S
C176 C177 1.363 . S
C176 H188 0.929 . S
C177 C176 1.363 . S
C177 N179 1.375 . S
C177 H195 0.931 . S
C178 N175 1.311 . S
C178 N179 1.347 . S
C178 H189 0.929 . S
N179 C177 1.375 . S
N179 C178 1.347 . S
C180 C183 1.365 . S
C180 N185 1.328 . S
C180 H186 0.929 . S
C181 C182 1.362 . S
C181 C184 1.378 . S
C181 H196 0.929 . S
C182 C181 1.362 . S
C182 C183 1.366 . S
C183 C180 1.365 . S
C183 C182 1.366 . S
C183 H197 0.930 . S
C184 C181 1.378 . S
C184 N185 1.315 . S
C184 H187 0.930 . S
N185 Co165 2.194 . S
N185 C180 1.328 . S
N185 C184 1.315 . S
H186 C180 0.929 . S
H187 C184 0.930 . S
H188 C176 0.929 . S
H189 C178 0.929 . S
O190 Co165 2.351 . S
O190 C193 1.244 . S
O191 Co165 2.155 . S
O191 C193 1.240 . S
O192 Co165 2.096 . S
O192 C173 1.247 . S
C193 O190 1.244 . S
C193 O191 1.240 . S
H194 C168 0.931 . S
H195 C177 0.931 . S
H196 C181 0.929 . S
H197 C183 0.930 . S
Co198 N202 2.148 . S
Co198 N208 2.128 . S
Co198 N218 2.194 . S
Co198 O223 2.351 . S
Co198 O224 2.155 . S
Co198 O225 2.096 . S
C199 N202 1.301 . S
C199 N203 1.328 . S
C199 H204 0.930 . S
C200 C201 1.333 . S
C200 N202 1.317 . S
C200 H205 0.930 . S
C201 C200 1.333 . S
C201 N203 1.350 . S
C201 H227 0.931 . S
N202 Co198 2.148 . S
N202 C199 1.301 . S
N202 C200 1.317 . S
N203 C199 1.328 . S
N203 C201 1.350 . S
H204 C199 0.930 . S
H205 C200 0.930 . S
C206 O207 1.224 . S
C206 O225 1.247 . S
O207 C206 1.224 . S
N208 Co198 2.128 . S
N208 C209 1.355 . S
N208 C211 1.311 1_554 S
C209 N208 1.355 . S
C209 C210 1.363 1_554 S
C209 H221 0.929 . S
C210 C209 1.363 1_556 S
C210 N212 1.375 . S
C210 H228 0.931 . S
C211 N208 1.311 1_556 S
C211 N212 1.347 . S
C211 H222 0.929 . S
N212 C210 1.375 . S
N212 C211 1.347 . S
C213 C216 1.365 . S
C213 N218 1.328 . S
C213 H219 0.929 . S
C214 C215 1.362 . S
C214 C217 1.378 . S
C214 H229 0.929 . S
C215 C214 1.362 . S
C215 C216 1.366 . S
C216 C213 1.365 . S
C216 C215 1.366 . S
C216 H230 0.930 . S
C217 C214 1.378 . S
C217 N218 1.315 . S
C217 H220 0.930 . S
N218 Co198 2.194 . S
N218 C213 1.328 . S
N218 C217 1.315 . S
H219 C213 0.929 . S
H220 C217 0.930 . S
H221 C209 0.929 . S
H222 C211 0.929 . S
O223 Co198 2.351 . S
O223 C226 1.244 . S
O224 Co198 2.155 . S
O224 C226 1.240 . S
O225 Co198 2.096 . S
O225 C206 1.247 . S
C226 O223 1.244 . S
C226 O224 1.240 . S
H227 C201 0.931 . S
H228 C210 0.931 . S
H229 C214 0.929 . S
H230 C216 0.930 . S
Co231 N235 2.148 . S
Co231 N241 2.128 . S
Co231 N251 2.194 . S
Co231 O256 2.351 . S
Co231 O257 2.155 . S
Co231 O258 2.096 . S
C232 N235 1.301 . S
C232 N236 1.328 . S
C232 H237 0.930 . S
C233 C234 1.333 . S
C233 N235 1.317 . S
C233 H238 0.930 . S
C234 C233 1.333 . S
C234 N236 1.350 . S
C234 H260 0.931 . S
N235 Co231 2.148 . S
N235 C232 1.301 . S
N235 C233 1.317 . S
N236 C232 1.328 . S
N236 C234 1.350 . S
H237 C232 0.930 . S
H238 C233 0.930 . S
C239 O240 1.224 . S
C239 O258 1.247 . S
O240 C239 1.224 . S
N241 Co231 2.128 . S
N241 C242 1.355 . S
N241 C244 1.311 . S
C242 N241 1.355 . S
C242 C243 1.363 . S
C242 H254 0.929 . S
C243 C242 1.363 . S
C243 N245 1.375 . S
C243 H261 0.931 . S
C244 N241 1.311 . S
C244 N245 1.347 . S
C244 H255 0.929 . S
N245 C243 1.375 . S
N245 C244 1.347 . S
C246 C249 1.365 . S
C246 N251 1.328 . S
C246 H252 0.929 . S
C247 C248 1.362 . S
C247 C250 1.378 . S
C247 H262 0.929 . S
C248 C247 1.362 . S
C248 C249 1.366 . S
C249 C246 1.365 . S
C249 C248 1.366 . S
C249 H263 0.930 . S
C250 C247 1.378 . S
C250 N251 1.315 . S
C250 H253 0.930 . S
N251 Co231 2.194 . S
N251 C246 1.328 . S
N251 C250 1.315 . S
H252 C246 0.929 . S
H253 C250 0.930 . S
H254 C242 0.929 . S
H255 C244 0.929 . S
O256 Co231 2.351 . S
O256 C259 1.244 . S
O257 Co231 2.155 . S
O257 C259 1.240 . S
O258 Co231 2.096 . S
O258 C239 1.247 . S
C259 O256 1.244 . S
C259 O257 1.240 . S
H260 C234 0.931 . S
H261 C243 0.931 . S
H262 C247 0.929 . S
H263 C249 0.930 . S
H264 C270 0.930 . S
H265 C273 0.930 . S
H266 C274 0.930 . S
H267 C275 0.930 . S
H268 C278 0.930 . S
H269 C279 0.930 . S
C270 H264 0.930 . S
C270 C271 1.355 . S
C270 C272 1.415 . S
C271 C270 1.355 . S
C271 C273 1.419 1_565 S
C272 C270 1.415 . S
C272 C277 1.425 1_565 S
C272 C279 1.409 . S
C273 H265 0.930 . S
C273 C271 1.419 1_545 S
C273 C274 1.362 . S
C274 H266 0.930 . S
C274 C273 1.362 . S
C274 C277 1.409 . S
C275 H267 0.930 . S
C275 C276 1.355 . S
C275 C277 1.415 . S
C276 C275 1.355 . S
C276 C278 1.419 1_545 S
C277 C272 1.425 1_545 S
C277 C274 1.409 . S
C277 C275 1.415 . S
C278 H268 0.930 . S
C278 C276 1.419 1_565 S
C278 C279 1.362 . S
C279 H269 0.930 . S
C279 C272 1.409 . S
C279 C278 1.362 . S
H280 C286 0.930 . S
H281 C289 0.930 . S
H282 C290 0.930 . S
H283 C291 0.930 . S
H284 C294 0.930 . S
H285 C295 0.930 . S
C286 H280 0.930 . S
C286 C287 1.355 . S
C286 C288 1.415 . S
C287 C286 1.355 . S
C287 C289 1.419 . S
C288 C286 1.415 . S
C288 C293 1.425 1_554 S
C288 C295 1.409 . S
C289 H281 0.930 . S
C289 C287 1.419 . S
C289 C290 1.362 1_554 S
C290 H282 0.930 . S
C290 C289 1.362 1_556 S
C290 C293 1.409 . S
C291 H283 0.930 . S
C291 C292 1.355 . S
C291 C293 1.415 . S
C292 C291 1.355 . S
C292 C294 1.419 . S
C293 C288 1.425 1_556 S
C293 C290 1.409 . S
C293 C291 1.415 . S
C294 H284 0.930 . S
C294 C292 1.419 . S
C294 C295 1.362 1_556 S
C295 H285 0.930 . S
C295 C288 1.409 . S
C295 C294 1.362 1_554 S
H296 C302 0.930 . S
H297 C305 0.930 . S
H298 C306 0.930 . S
H299 C307 0.930 . S
H300 C310 0.930 . S
H301 C311 0.930 . S
C302 H296 0.930 . S
C302 C303 1.355 . S
C302 C304 1.415 . S
C303 C302 1.355 . S
C303 C305 1.419 1_655 S
C304 C302 1.415 . S
C304 C309 1.425 1_655 S
C304 C311 1.409 . S
C305 H297 0.930 . S
C305 C303 1.419 1_455 S
C305 C306 1.362 . S
C306 H298 0.930 . S
C306 C305 1.362 . S
C306 C309 1.409 . S
C307 H299 0.930 . S
C307 C308 1.355 . S
C307 C309 1.415 . S
C308 C307 1.355 . S
C308 C310 1.419 1_455 S
C309 C304 1.425 1_455 S
C309 C306 1.409 . S
C309 C307 1.415 . S
C310 H300 0.930 . S
C310 C308 1.419 1_655 S
C310 C311 1.362 . S
C311 H301 0.930 . S
C311 C304 1.409 . S
C311 C310 1.362 . S
H312 C318 0.930 . S
H313 C321 0.930 . S
H314 C322 0.930 . S
H315 C323 0.930 . S
H316 C326 0.930 . S
H317 C327 0.930 . S
C318 H312 0.930 . S
C318 C319 1.355 . S
C318 C320 1.415 1_554 S
C319 C318 1.355 . S
C319 C321 1.419 1_655 S
C320 C318 1.415 1_556 S
C320 C325 1.425 1_646 S
C320 C327 1.409 1_545 S
C321 H313 0.930 . S
C321 C319 1.419 1_455 S
C321 C322 1.362 . S
C322 H314 0.930 . S
C322 C321 1.362 . S
C322 C325 1.409 1_545 S
C323 H315 0.930 . S
C323 C324 1.355 . S
C323 C325 1.415 1_556 S
C324 C323 1.355 . S
C324 C326 1.419 1_455 S
C325 C320 1.425 1_464 S
C325 C322 1.409 1_565 S
C325 C323 1.415 1_554 S
C326 H316 0.930 . S
C326 C324 1.419 1_655 S
C326 C327 1.362 . S
C327 H317 0.930 . S
C327 C320 1.409 1_565 S
C327 C326 1.362 . S
H328 C334 0.930 . S
H329 C337 0.930 . S
H330 C338 0.930 . S
H331 C339 0.930 . S
H332 C342 0.930 . S
H333 C343 0.930 . S
C334 H328 0.930 . S
C334 C335 1.355 . S
C334 C336 1.415 . S
C335 C334 1.355 . S
C335 C337 1.419 . S
C336 C334 1.415 . S
C336 C341 1.425 . S
C336 C343 1.409 . S
C337 H329 0.930 . S
C337 C335 1.419 . S
C337 C338 1.362 . S
C338 H330 0.930 . S
C338 C337 1.362 . S
C338 C341 1.409 . S
C339 H331 0.930 . S
C339 C340 1.355 . S
C339 C341 1.415 . S
C340 C339 1.355 . S
C340 C342 1.419 . S
C341 C336 1.425 . S
C341 C338 1.409 . S
C341 C339 1.415 . S
C342 H332 0.930 . S
C342 C340 1.419 . S
C342 C343 1.362 . S
C343 H333 0.930 . S
C343 C336 1.409 . S
C343 C342 1.362 . S
H344 C350 0.930 . S
H345 C353 0.930 . S
H346 C354 0.930 . S
H347 C355 0.930 . S
H348 C358 0.930 . S
H349 C359 0.930 . S
C350 H344 0.930 . S
C350 C351 1.355 . S
C350 C352 1.415 . S
C351 C350 1.355 . S
C351 C353 1.419 . S
C352 C350 1.415 . S
C352 C357 1.425 . S
C352 C359 1.409 . S
C353 H345 0.930 . S
C353 C351 1.419 . S
C353 C354 1.362 . S
C354 H346 0.930 . S
C354 C353 1.362 . S
C354 C357 1.409 . S
C355 H347 0.930 . S
C355 C356 1.355 . S
C355 C357 1.415 . S
C356 C355 1.355 . S
C356 C358 1.419 . S
C357 C352 1.425 . S
C357 C354 1.409 . S
C357 C355 1.415 . S
C358 H348 0.930 . S
C358 C356 1.419 . S
C358 C359 1.362 . S
C359 H349 0.930 . S
C359 C352 1.409 . S
C359 C358 1.362 . S
H360 C366 0.930 . S
H361 C369 0.930 . S
H362 C370 0.930 . S
H363 C371 0.930 . S
H364 C374 0.930 . S
H365 C375 0.930 . S
C366 H360 0.930 . S
C366 C367 1.355 . S
C366 C368 1.415 . S
C367 C366 1.355 . S
C367 C369 1.419 . S
C368 C366 1.415 . S
C368 C373 1.425 . S
C368 C375 1.409 . S
C369 H361 0.930 . S
C369 C367 1.419 . S
C369 C370 1.362 . S
C370 H362 0.930 . S
C370 C369 1.362 . S
C370 C373 1.409 . S
C371 H363 0.930 . S
C371 C372 1.355 . S
C371 C373 1.415 . S
C372 C371 1.355 . S
C372 C374 1.419 . S
C373 C368 1.425 . S
C373 C370 1.409 . S
C373 C371 1.415 . S
C374 H364 0.930 . S
C374 C372 1.419 . S
C374 C375 1.362 . S
C375 H365 0.930 . S
C375 C368 1.409 . S
C375 C374 1.362 . S
H376 C382 0.930 . S
H377 C385 0.930 . S
H378 C386 0.930 . S
H379 C387 0.930 . S
H380 C390 0.930 . S
H381 C391 0.930 . S
C382 H376 0.930 . S
C382 C383 1.355 . S
C382 C384 1.415 . S
C383 C382 1.355 . S
C383 C385 1.419 . S
C384 C382 1.415 . S
C384 C389 1.425 . S
C384 C391 1.409 . S
C385 H377 0.930 . S
C385 C383 1.419 . S
C385 C386 1.362 . S
C386 H378 0.930 . S
C386 C385 1.362 . S
C386 C389 1.409 . S
C387 H379 0.930 . S
C387 C388 1.355 . S
C387 C389 1.415 . S
C388 C387 1.355 . S
C388 C390 1.419 . S
C389 C384 1.425 . S
C389 C386 1.409 . S
C389 C387 1.415 . S
C390 H380 0.930 . S
C390 C388 1.419 . S
C390 C391 1.362 . S
C391 H381 0.930 . S
C391 C384 1.409 . S
C391 C390 1.362 . S
H392 C398 0.930 . S
H393 C401 0.930 . S
H394 C402 0.930 . S
H395 C403 0.930 . S
H396 C406 0.930 . S
H397 C407 0.930 . S
C398 H392 0.930 . S
C398 C399 1.355 . S
C398 C400 1.415 . S
C399 C398 1.355 . S
C399 C401 1.419 . S
C400 C398 1.415 . S
C400 C405 1.425 . S
C400 C407 1.409 . S
C401 H393 0.930 . S
C401 C399 1.419 . S
C401 C402 1.362 . S
C402 H394 0.930 . S
C402 C401 1.362 . S
C402 C405 1.409 . S
C403 H395 0.930 . S
C403 C404 1.355 . S
C403 C405 1.415 . S
C404 C403 1.355 . S
C404 C406 1.419 . S
C405 C400 1.425 . S
C405 C402 1.409 . S
C405 C403 1.415 . S
C406 H396 0.930 . S
C406 C404 1.419 . S
C406 C407 1.362 . S
C407 H397 0.930 . S
C407 C400 1.409 . S
C407 C406 1.362 . S
H408 C414 0.930 . S
H409 C417 0.930 . S
H410 C418 0.930 . S
H411 C419 0.930 . S
H412 C422 0.930 . S
H413 C423 0.930 . S
C414 H408 0.930 . S
C414 C415 1.355 . S
C414 C416 1.415 . S
C415 C414 1.355 . S
C415 C417 1.419 . S
C416 C414 1.415 . S
C416 C421 1.425 . S
C416 C423 1.409 . S
C417 H409 0.930 . S
C417 C415 1.419 . S
C417 C418 1.362 . S
C418 H410 0.930 . S
C418 C417 1.362 . S
C418 C421 1.409 . S
C419 H411 0.930 . S
C419 C420 1.355 . S
C419 C421 1.415 . S
C420 C419 1.355 . S
C420 C422 1.419 . S
C421 C416 1.425 . S
C421 C418 1.409 . S
C421 C419 1.415 . S
C422 H412 0.930 . S
C422 C420 1.419 . S
C422 C423 1.362 . S
C423 H413 0.930 . S
C423 C416 1.409 . S
C423 C422 1.362 . S
H424 C430 0.930 . S
H425 C433 0.930 . S
H426 C434 0.930 . S
H427 C435 0.930 . S
H428 C438 0.930 . S
H429 C439 0.930 . S
C430 H424 0.930 . S
C430 C431 1.355 . S
C430 C432 1.415 . S
C431 C430 1.355 . S
C431 C433 1.419 . S
C432 C430 1.415 . S
C432 C437 1.425 . S
C432 C439 1.409 . S
C433 H425 0.930 . S
C433 C431 1.419 . S
C433 C434 1.362 . S
C434 H426 0.930 . S
C434 C433 1.362 . S
C434 C437 1.409 . S
C435 H427 0.930 . S
C435 C436 1.355 . S
C435 C437 1.415 . S
C436 C435 1.355 . S
C436 C438 1.419 . S
C437 C432 1.425 . S
C437 C434 1.409 . S
C437 C435 1.415 . S
C438 H428 0.930 . S
C438 C436 1.419 . S
C438 C439 1.362 . S
C439 H429 0.930 . S
C439 C432 1.409 . S
C439 C438 1.362 . S
H440 C446 0.930 . S
H441 C449 0.930 . S
H442 C450 0.930 . S
H443 C451 0.930 . S
H444 C454 0.930 . S
H445 C455 0.930 . S
C446 H440 0.930 . S
C446 C447 1.355 . S
C446 C448 1.415 . S
C447 C446 1.355 . S
C447 C449 1.419 . S
C448 C446 1.415 . S
C448 C453 1.425 . S
C448 C455 1.409 . S
C449 H441 0.930 . S
C449 C447 1.419 . S
C449 C450 1.362 . S
C450 H442 0.930 . S
C450 C449 1.362 . S
C450 C453 1.409 . S
C451 H443 0.930 . S
C451 C452 1.355 . S
C451 C453 1.415 . S
C452 C451 1.355 . S
C452 C454 1.419 . S
C453 C448 1.425 . S
C453 C450 1.409 . S
C453 C451 1.415 . S
C454 H444 0.930 . S
C454 C452 1.419 . S
C454 C455 1.362 . S
C455 H445 0.930 . S
C455 C448 1.409 . S
C455 C454 1.362 . S
H456 C462 0.930 . S
H457 C465 0.930 . S
H458 C466 0.930 . S
H459 C467 0.930 . S
H460 C470 0.930 . S
H461 C471 0.930 . S
C462 H456 0.930 . S
C462 C463 1.355 . S
C462 C464 1.415 . S
C463 C462 1.355 . S
C463 C465 1.419 . S
C464 C462 1.415 . S
C464 C469 1.425 . S
C464 C471 1.409 . S
C465 H457 0.930 . S
C465 C463 1.419 . S
C465 C466 1.362 . S
C466 H458 0.930 . S
C466 C465 1.362 . S
C466 C469 1.409 . S
C467 H459 0.930 . S
C467 C468 1.355 . S
C467 C469 1.415 . S
C468 C467 1.355 . S
C468 C470 1.419 . S
C469 C464 1.425 . S
C469 C466 1.409 . S
C469 C467 1.415 . S
C470 H460 0.930 . S
C470 C468 1.419 . S
C470 C471 1.362 . S
C471 H461 0.930 . S
C471 C464 1.409 . S
C471 C470 1.362 . S
H472 C478 0.930 . S
H473 C481 0.930 . S
H474 C482 0.930 . S
H475 C483 0.930 . S
H476 C486 0.930 . S
H477 C487 0.930 . S
C478 H472 0.930 . S
C478 C479 1.355 . S
C478 C480 1.415 . S
C479 C478 1.355 . S
C479 C481 1.419 . S
C480 C478 1.415 . S
C480 C485 1.425 . S
C480 C487 1.409 . S
C481 H473 0.930 . S
C481 C479 1.419 . S
C481 C482 1.362 . S
C482 H474 0.930 . S
C482 C481 1.362 . S
C482 C485 1.409 . S
C483 H475 0.930 . S
C483 C484 1.355 . S
C483 C485 1.415 . S
C484 C483 1.355 . S
C484 C486 1.419 . S
C485 C480 1.425 . S
C485 C482 1.409 . S
C485 C483 1.415 . S
C486 H476 0.930 . S
C486 C484 1.419 . S
C486 C487 1.362 . S
C487 H477 0.930 . S
C487 C480 1.409 . S
C487 C486 1.362 . S
H488 C494 0.930 . S
H489 C497 0.930 . S
H490 C498 0.930 . S
H491 C499 0.930 . S
H492 C502 0.930 . S
H493 C503 0.930 . S
C494 H488 0.930 . S
C494 C495 1.355 . S
C494 C496 1.415 . S
C495 C494 1.355 . S
C495 C497 1.419 . S
C496 C494 1.415 . S
C496 C501 1.425 . S
C496 C503 1.409 . S
C497 H489 0.930 . S
C497 C495 1.419 . S
C497 C498 1.362 . S
C498 H490 0.930 . S
C498 C497 1.362 . S
C498 C501 1.409 . S
C499 H491 0.930 . S
C499 C500 1.355 . S
C499 C501 1.415 . S
C500 C499 1.355 . S
C500 C502 1.419 . S
C501 C496 1.425 . S
C501 C498 1.409 . S
C501 C499 1.415 . S
C502 H492 0.930 . S
C502 C500 1.419 . S
C502 C503 1.362 . S
C503 H493 0.930 . S
C503 C496 1.409 . S
C503 C502 1.362 . S
H504 C510 0.930 . S
H505 C513 0.930 . S
H506 C514 0.930 . S
H507 C515 0.930 . S
H508 C518 0.930 . S
H509 C519 0.930 . S
C510 H504 0.930 . S
C510 C511 1.355 . S
C510 C512 1.415 . S
C511 C510 1.355 . S
C511 C513 1.419 . S
C512 C510 1.415 . S
C512 C517 1.425 . S
C512 C519 1.409 . S
C513 H505 0.930 . S
C513 C511 1.419 . S
C513 C514 1.362 . S
C514 H506 0.930 . S
C514 C513 1.362 . S
C514 C517 1.409 . S
C515 H507 0.930 . S
C515 C516 1.355 . S
C515 C517 1.415 . S
C516 C515 1.355 . S
C516 C518 1.419 . S
C517 C512 1.425 . S
C517 C514 1.409 . S
C517 C515 1.415 . S
C518 H508 0.930 . S
C518 C516 1.419 . S
C518 C519 1.362 . S
C519 H509 0.930 . S
C519 C512 1.409 . S
C519 C518 1.362 . S
H520 C526 0.930 . S
H521 C529 0.930 . S
H522 C530 0.930 . S
H523 C531 0.930 . S
H524 C534 0.930 . S
H525 C535 0.930 . S
C526 H520 0.930 . S
C526 C527 1.355 . S
C526 C528 1.415 . S
C527 C526 1.355 . S
C527 C529 1.419 . S
C528 C526 1.415 . S
C528 C533 1.425 . S
C528 C535 1.409 . S
C529 H521 0.930 . S
C529 C527 1.419 . S
C529 C530 1.362 . S
C530 H522 0.930 . S
C530 C529 1.362 . S
C530 C533 1.409 . S
C531 H523 0.930 . S
C531 C532 1.355 . S
C531 C533 1.415 . S
C532 C531 1.355 . S
C532 C534 1.419 . S
C533 C528 1.425 . S
C533 C530 1.409 . S
C533 C531 1.415 . S
C534 H524 0.930 . S
C534 C532 1.419 . S
C534 C535 1.362 . S
C535 H525 0.930 . S
C535 C528 1.409 . S
C535 C534 1.362 . S
H536 C542 0.930 . S
H537 C545 0.930 . S
H538 C546 0.930 . S
H539 C547 0.930 . S
H540 C550 0.930 . S
H541 C551 0.930 . S
C542 H536 0.930 . S
C542 C543 1.355 . S
C542 C544 1.415 . S
C543 C542 1.355 . S
C543 C545 1.419 . S
C544 C542 1.415 . S
C544 C549 1.425 . S
C544 C551 1.409 . S
C545 H537 0.930 . S
C545 C543 1.419 . S
C545 C546 1.362 . S
C546 H538 0.930 . S
C546 C545 1.362 . S
C546 C549 1.409 . S
C547 H539 0.930 . S
C547 C548 1.355 . S
C547 C549 1.415 . S
C548 C547 1.355 . S
C548 C550 1.419 . S
C549 C544 1.425 . S
C549 C546 1.409 . S
C549 C547 1.415 . S
C550 H540 0.930 . S
C550 C548 1.419 . S
C550 C551 1.362 . S
C551 H541 0.930 . S
C551 C544 1.409 . S
C551 C550 1.362 . S
H552 C558 0.930 . S
H553 C561 0.930 . S
H554 C562 0.930 . S
H555 C563 0.930 . S
H556 C566 0.930 . S
H557 C567 0.930 . S
C558 H552 0.930 . S
C558 C559 1.355 . S
C558 C560 1.415 . S
C559 C558 1.355 . S
C559 C561 1.419 . S
C560 C558 1.415 . S
C560 C565 1.425 . S
C560 C567 1.409 . S
C561 H553 0.930 . S
C561 C559 1.419 . S
C561 C562 1.362 . S
C562 H554 0.930 . S
C562 C561 1.362 . S
C562 C565 1.409 . S
C563 H555 0.930 . S
C563 C564 1.355 . S
C563 C565 1.415 . S
C564 C563 1.355 . S
C564 C566 1.419 . S
C565 C560 1.425 . S
C565 C562 1.409 . S
C565 C563 1.415 . S
C566 H556 0.930 . S
C566 C564 1.419 . S
C566 C567 1.362 . S
C567 H557 0.930 . S
C567 C560 1.409 . S
C567 C566 1.362 . S
H568 C574 0.930 . S
H569 C577 0.930 . S
H570 C578 0.930 . S
H571 C579 0.930 . S
H572 C582 0.930 . S
H573 C583 0.930 . S
C574 H568 0.930 . S
C574 C575 1.355 . S
C574 C576 1.415 . S
C575 C574 1.355 . S
C575 C577 1.419 . S
C576 C574 1.415 . S
C576 C581 1.425 . S
C576 C583 1.409 . S
C577 H569 0.930 . S
C577 C575 1.419 . S
C577 C578 1.362 . S
C578 H570 0.930 . S
C578 C577 1.362 . S
C578 C581 1.409 . S
C579 H571 0.930 . S
C579 C580 1.355 . S
C579 C581 1.415 . S
C580 C579 1.355 . S
C580 C582 1.419 . S
C581 C576 1.425 . S
C581 C578 1.409 . S
C581 C579 1.415 . S
C582 H572 0.930 . S
C582 C580 1.419 . S
C582 C583 1.362 . S
C583 H573 0.930 . S
C583 C576 1.409 . S
C583 C582 1.362 . S
C271 C239 1.177 . S
C276 C8 1.173 . S
C287 C140 1.104 . S
C292 C41 1.105 . S
C303 C74 1.184 . S
C308 C173 1.181 . S
C319 C206 1.189 . S
C324 C107 1.188 . S
C335 C28 1.495 . S
C340 C160 1.494 . S
C351 C193 1.518 . S
C356 C61 1.511 . S
C367 C226 1.523 . S
C372 C94 1.492 . S
C383 C259 1.488 . S
C388 C127 1.503 . S
C399 C248 1.582 . S
C404 C50 1.558 . S
C415 C83 1.544 . S
C420 C149 1.553 . S
C431 C116 1.541 . S
C436 C182 1.573 . S
C447 C215 1.573 . S
C452 C17 1.576 . S
C463 N14 1.279 . S
C468 N5 1.285 1_556 S
C479 N38 1.283 . S
C484 N47 1.278 . S
C495 N71 1.315 1_556 S
C500 N80 1.311 . S
C511 N113 1.285 . S
C516 N104 1.286 . S
C527 N137 1.283 . S
C532 N146 1.280 . S
C543 N170 1.290 1_554 S
C548 N179 1.284 . S
C559 N203 1.283 . S
C564 N212 1.279 . S
C575 N245 1.313 . S
C580 N236 1.317 1_554 S
