# Generated by pormake.
# Topology zfy, (5)-cn, num edge types: 1
# Building blocks:
#     Node 0, Type 0, BuildingBlock: XOMCOT_clean_sbu_0, # of connection points: 5
#     Node 1, Type 0, BuildingBlock: XOMCOT_clean_sbu_0, # of connection points: 5
#     Node 2, Type 0, BuildingBlock: XOMCOT_clean_sbu_0, # of connection points: 5
#     Node 3, Type 0, BuildingBlock: XOMCOT_clean_sbu_0, # of connection points: 5
#     Node 4, Type 0, BuildingBlock: XOMCOT_clean_sbu_0, # of connection points: 5
#     Node 5, Type 0, BuildingBlock: XOMCOT_clean_sbu_0, # of connection points: 5
#     Node 6, Type 0, BuildingBlock: XOMCOT_clean_sbu_0, # of connection points: 5
#     Node 7, Type 0, BuildingBlock: XOMCOT_clean_sbu_0, # of connection points: 5
#     Node 8, Type 0, BuildingBlock: XOMCOT_clean_sbu_0, # of connection points: 5
#     Node 9, Type 0, BuildingBlock: XOMCOT_clean_sbu_0, # of connection points: 5
#     Node 10, Type 0, BuildingBlock: XOMCOT_clean_sbu_0, # of connection points: 5
#     Node 11, Type 0, BuildingBlock: XOMCOT_clean_sbu_0, # of connection points: 5
#     Node 12, Type 0, BuildingBlock: XOMCOT_clean_sbu_0, # of connection points: 5
#     Node 13, Type 0, BuildingBlock: XOMCOT_clean_sbu_0, # of connection points: 5
#     Node 14, Type 0, BuildingBlock: XOMCOT_clean_sbu_0, # of connection points: 5
#     Node 15, Type 0, BuildingBlock: XOMCOT_clean_sbu_0, # of connection points: 5
#     Edge 16, Type (0, 0), BuildingBlock: EZIPEK_clean_linker_0, # of connection points: 2
#     Edge 17, Type (0, 0), BuildingBlock: EZIPEK_clean_linker_0, # of connection points: 2
#     Edge 18, Type (0, 0), BuildingBlock: EZIPEK_clean_linker_0, # of connection points: 2
#     Edge 19, Type (0, 0), BuildingBlock: EZIPEK_clean_linker_0, # of connection points: 2
#     Edge 20, Type (0, 0), BuildingBlock: EZIPEK_clean_linker_0, # of connection points: 2
#     Edge 21, Type (0, 0), BuildingBlock: EZIPEK_clean_linker_0, # of connection points: 2
#     Edge 22, Type (0, 0), BuildingBlock: EZIPEK_clean_linker_0, # of connection points: 2
#     Edge 23, Type (0, 0), BuildingBlock: EZIPEK_clean_linker_0, # of connection points: 2
#     Edge 24, Type (0, 0), BuildingBlock: EZIPEK_clean_linker_0, # of connection points: 2
#     Edge 25, Type (0, 0), BuildingBlock: EZIPEK_clean_linker_0, # of connection points: 2
#     Edge 26, Type (0, 0), BuildingBlock: EZIPEK_clean_linker_0, # of connection points: 2
#     Edge 27, Type (0, 0), BuildingBlock: EZIPEK_clean_linker_0, # of connection points: 2
#     Edge 28, Type (0, 0), BuildingBlock: EZIPEK_clean_linker_0, # of connection points: 2
#     Edge 29, Type (0, 0), BuildingBlock: EZIPEK_clean_linker_0, # of connection points: 2
#     Edge 30, Type (0, 0), BuildingBlock: EZIPEK_clean_linker_0, # of connection points: 2
#     Edge 31, Type (0, 0), BuildingBlock: EZIPEK_clean_linker_0, # of connection points: 2
#     Edge 32, Type (0, 0), BuildingBlock: EZIPEK_clean_linker_0, # of connection points: 2
#     Edge 33, Type (0, 0), BuildingBlock: EZIPEK_clean_linker_0, # of connection points: 2
#     Edge 34, Type (0, 0), BuildingBlock: EZIPEK_clean_linker_0, # of connection points: 2
#     Edge 35, Type (0, 0), BuildingBlock: EZIPEK_clean_linker_0, # of connection points: 2
#     Edge 36, Type (0, 0), BuildingBlock: EZIPEK_clean_linker_0, # of connection points: 2
#     Edge 37, Type (0, 0), BuildingBlock: EZIPEK_clean_linker_0, # of connection points: 2
#     Edge 38, Type (0, 0), BuildingBlock: EZIPEK_clean_linker_0, # of connection points: 2
#     Edge 39, Type (0, 0), BuildingBlock: EZIPEK_clean_linker_0, # of connection points: 2
#     Edge 40, Type (0, 0), BuildingBlock: EZIPEK_clean_linker_0, # of connection points: 2
#     Edge 41, Type (0, 0), BuildingBlock: EZIPEK_clean_linker_0, # of connection points: 2
#     Edge 42, Type (0, 0), BuildingBlock: EZIPEK_clean_linker_0, # of connection points: 2
#     Edge 43, Type (0, 0), BuildingBlock: EZIPEK_clean_linker_0, # of connection points: 2
#     Edge 44, Type (0, 0), BuildingBlock: EZIPEK_clean_linker_0, # of connection points: 2
#     Edge 45, Type (0, 0), BuildingBlock: EZIPEK_clean_linker_0, # of connection points: 2
#     Edge 46, Type (0, 0), BuildingBlock: EZIPEK_clean_linker_0, # of connection points: 2
#     Edge 47, Type (0, 0), BuildingBlock: EZIPEK_clean_linker_0, # of connection points: 2
#     Edge 48, Type (0, 0), BuildingBlock: EZIPEK_clean_linker_0, # of connection points: 2
#     Edge 49, Type (0, 0), BuildingBlock: EZIPEK_clean_linker_0, # of connection points: 2
#     Edge 50, Type (0, 0), BuildingBlock: EZIPEK_clean_linker_0, # of connection points: 2
#     Edge 51, Type (0, 0), BuildingBlock: EZIPEK_clean_linker_0, # of connection points: 2
#     Edge 52, Type (0, 0), BuildingBlock: EZIPEK_clean_linker_0, # of connection points: 2
#     Edge 53, Type (0, 0), BuildingBlock: EZIPEK_clean_linker_0, # of connection points: 2
#     Edge 54, Type (0, 0), BuildingBlock: EZIPEK_clean_linker_0, # of connection points: 2
#     Edge 55, Type (0, 0), BuildingBlock: EZIPEK_clean_linker_0, # of connection points: 2
# Relax obj value: 0.183
# Max RMSD: 0.238
# Mean RMSD: 0.233
data_MOF--net-zfy--node1-XOMCOT_clean_sbu_0--edge1-EZIPEK_clean_linker_0
_symmetry_space_group_name_H-M    P1
_symmetry_Int_Tables_number       1
_symmetry_cell_setting            triclinic
loop_
_symmetry_equiv_pos_as_xyz
'x, y, z'
_cell_length_a     39.981663
_cell_length_b     40.235289
_cell_length_c     22.951829
_cell_angle_alpha  90.343234
_cell_angle_beta   89.535308
_cell_angle_gamma 89.928332
loop_
_atom_site_label
_atom_site_type_symbol
_atom_site_fract_x
_atom_site_fract_y
_atom_site_fract_z
_atom_type_partial_charge
Co0 Co 0.34502 0.21404 0.02022 0.0
C1 C 0.29622 0.24634 0.10502 0.0
C2 C 0.34246 0.23024 0.14283 0.0
C3 C 0.32312 0.24421 0.18597 0.0
N4 N 0.32575 0.23123 0.09216 0.0
N5 N 0.2941 0.25428 0.16257 0.0
H6 H 0.27695 0.25145 0.07345 0.0
H7 H 0.36731 0.22009 0.14799 0.0
C8 C 0.36232 0.14357 0.05255 0.0
O9 O 0.35138 0.13338 1.00165 0.0
N10 N 0.36664 0.19658 0.94947 0.0
C11 C 0.35633 0.19711 0.89348 0.0
C12 C 0.38057 0.18278 0.85827 0.0
C13 C 0.39762 0.18295 0.94679 0.0
N14 N 0.40632 0.17375 0.89202 0.0
C15 C 0.2849 0.20789 0.95509 0.0
C16 C 0.25939 0.15162 1.00689 0.0
C17 C 0.2442 0.16403 0.95667 0.0
C18 C 0.25641 0.19322 0.93228 0.0
C19 C 0.28813 0.16732 0.02849 0.0
N20 N 0.30217 0.19357 0.99963 0.0
H21 H 0.29356 0.23033 0.93473 0.0
H22 H 0.29909 0.15787 0.06756 0.0
H23 H 0.33336 0.20768 0.87799 0.0
H24 H 0.41361 0.18001 0.98422 0.0
O25 O 0.33784 0.25573 0.98247 0.0
O26 O 0.38338 0.24316 0.03159 0.0
O27 O 0.3614 0.17439 0.06593 0.0
C28 C 0.3671 0.26465 1.00033 0.0
H29 H 0.32984 0.24698 0.23136 0.0
H30 H 0.37949 0.17933 0.81152 0.0
H31 H 0.24966 0.12967 0.02816 0.0
H32 H 0.24458 0.2041 0.89458 0.0
Co33 Co 0.56841 0.58737 0.26363 0.0
C34 C 0.53243 0.54302 0.35045 0.0
C35 C 0.54619 0.59096 0.38372 0.0
C36 C 0.53071 0.57369 0.42758 0.0
N37 N 0.54811 0.57164 0.33561 0.0
N38 N 0.52225 0.54355 0.40681 0.0
H39 H 0.52839 0.52213 0.32184 0.0
H40 H 0.55566 0.61607 0.38672 0.0
C41 C 0.62458 0.59294 0.3495 0.0
O42 O 0.61799 0.56237 0.36587 0.0
N43 N 0.58868 0.60511 0.19394 0.0
C44 C 0.59395 0.5906 0.1415 0.0
C45 C 0.60756 0.61397 0.10428 0.0
C46 C 0.59925 0.63667 0.18827 0.0
N47 N 0.61082 0.64271 0.13416 0.0
C48 C 0.57129 0.51887 0.23043 0.0
C49 C 0.63981 0.51444 0.21642 0.0
C50 C 0.61974 0.48814 0.19752 0.0
C51 C 0.58521 0.49021 0.20578 0.0
C52 C 0.62482 0.54277 0.24093 0.0
N53 N 0.59084 0.54485 0.24812 0.0
H54 H 0.54444 0.52094 0.2309 0.0
H55 H 0.64051 0.56377 0.24973 0.0
H56 H 0.58733 0.5653 0.13051 0.0
H57 H 0.59772 0.65515 0.22268 0.0
O58 O 0.52774 0.57838 0.22168 0.0
O59 O 0.53864 0.62581 0.26697 0.0
O60 O 0.60719 0.60644 0.30955 0.0
C61 C 0.5182 0.60825 0.23535 0.0
H62 H 0.52604 0.58248 0.47159 0.0
H63 H 0.6138 0.61045 0.05868 0.0
H64 H 0.6666 0.51392 0.20904 0.0
H65 H 0.56896 0.47062 0.19012 0.0
Co66 Co 0.1818 0.81637 0.52586 0.0
C67 C 0.22724 0.7867 0.61641 0.0
C68 C 0.17537 0.7885 0.64133 0.0
C69 C 0.19321 0.77654 0.68749 0.0
N70 N 0.19647 0.79482 0.59662 0.0
N71 N 0.22568 0.77548 0.67191 0.0
H72 H 0.25028 0.79013 0.59215 0.0
H73 H 0.14883 0.7937 0.64128 0.0
C74 C 0.16753 0.88626 0.56364 0.0
O75 O 0.17703 0.89656 0.51191 0.0
N76 N 0.16418 0.83832 0.45626 0.0
C77 C 0.1788 0.84551 0.40443 0.0
C78 C 0.15539 0.85952 0.36819 0.0
C79 C 0.13189 0.84814 0.45011 0.0
N80 N 0.12603 0.8611 0.39697 0.0
C81 C 0.24495 0.8212 0.46776 0.0
C82 C 0.27139 0.87282 0.53221 0.0
C83 C 0.28755 0.8627 0.48061 0.0
C84 C 0.27494 0.83549 0.45006 0.0
C85 C 0.24101 0.85779 0.5482 0.0
N86 N 0.22672 0.83431 0.51296 0.0
H87 H 0.23536 0.80095 0.44193 0.0
H88 H 0.22896 0.86538 0.58834 0.0
H89 H 0.20432 0.84071 0.39201 0.0
H90 H 0.11301 0.84582 0.4839 0.0
O91 O 0.18761 0.77577 0.48303 0.0
O92 O 0.14069 0.7901 0.52837 0.0
O93 O 0.16785 0.85534 0.57575 0.0
C94 C 0.15696 0.76856 0.49624 0.0
H95 H 0.18341 0.77051 0.73025 0.0
H96 H 0.15954 0.86781 0.32394 0.0
H97 H 0.28142 0.89289 0.55838 0.0
H98 H 0.28741 0.82628 0.41107 0.0
Co99 Co 0.95503 0.43162 0.78518 0.0
C100 C 1.00266 0.45957 0.8748 0.0
C101 C 0.95055 0.46768 0.89387 0.0
C102 C 0.96876 0.48198 0.93732 0.0
N103 N 0.97151 0.45353 0.85456 0.0
N104 N 1.00132 0.47698 0.92541 0.0
H105 H 0.02558 0.45202 0.8532 0.0
H106 H 0.9236 0.4681 0.89065 0.0
C107 C 0.89065 0.39758 0.8293 0.0
O108 O 0.87919 0.39177 0.7769 0.0
N109 N 0.93771 0.40973 0.71648 0.0
C110 C 0.92887 0.42354 0.66539 0.0
C111 C 0.91834 0.3987 0.62823 0.0
C112 C 0.93332 0.37676 0.70922 0.0
N113 N 0.92063 0.36952 0.65647 0.0
C114 C 0.94799 0.49996 0.76104 0.0
C115 C 0.88012 0.50083 0.73929 0.0
C116 C 0.89919 0.52928 0.72849 0.0
C117 C 0.93331 0.52901 0.74078 0.0
C118 C 0.89598 0.47202 0.75852 0.0
N119 N 0.92963 0.47165 0.76828 0.0
H120 H 0.97459 0.49981 0.76896 0.0
H121 H 0.88136 0.4499 0.76195 0.0
H122 H 0.93024 0.44975 0.65554 0.0
H123 H 0.93781 0.35858 0.74287 0.0
O124 O 0.9947 0.44282 0.74105 0.0
O125 O 0.98853 0.39641 0.79107 0.0
O126 O 0.91851 0.41243 0.83748 0.0
C127 C 1.00689 0.41419 0.75574 0.0
H128 H 0.95896 0.49532 0.97489 0.0
H129 H 0.90878 0.40182 0.58461 0.0
H130 H 0.85368 0.50032 0.72938 0.0
H131 H 0.94866 0.55069 0.73269 0.0
Co132 Co 0.67644 0.83089 0.99797 0.0
C133 C 0.7172 0.80731 0.89283 0.0
C134 C 0.66644 0.79015 0.89543 0.0
C135 C 0.68156 0.7771 0.84654 0.0
N136 N 0.68847 0.80928 0.92458 0.0
N137 N 0.71335 0.78785 0.84494 0.0
H138 H 0.74054 0.81896 0.90443 0.0
H139 H 0.641 0.78549 0.90952 0.0
C140 C 0.65569 0.77359 0.07733 0.0
O141 O 0.65754 0.7922 0.12431 0.0
N142 N 0.66207 0.85189 0.07065 0.0
C143 C 0.67921 0.87221 0.1066 0.0
C144 C 0.65734 0.8851 0.14804 0.0
C145 C 0.63014 0.85295 0.09053 0.0
N146 N 0.62657 0.87281 0.13777 0.0
C147 C 0.74471 0.8517 1.0049 0.0
C148 C 0.76378 0.81317 0.09798 0.0
C149 C 0.78512 0.83856 0.07908 0.0
C150 C 0.77581 0.85714 0.03067 0.0
C151 C 0.73276 0.80852 0.07091 0.0
N152 N 0.72286 0.8284 0.02599 0.0
H153 H 0.73779 0.86746 0.96914 0.0
H154 H 0.71653 0.79009 0.0888 0.0
H155 H 0.70526 0.87872 0.1014 0.0
H156 H 0.60954 0.84049 0.06939 0.0
O157 O 0.67902 0.87431 0.96233 0.0
O158 O 0.63348 0.84344 0.96419 0.0
O159 O 0.66384 0.78487 0.02717 0.0
C160 C 0.64774 0.87121 0.94907 0.0
H161 H 0.67043 0.76028 0.81523 0.0
H162 H 0.66324 0.90316 0.18154 0.0
H163 H 0.77018 0.79837 0.13556 0.0
H164 H 0.79166 0.87701 1.01484 0.0
Co165 Co 0.44786 0.43577 0.7547 0.0
C166 C 0.46103 0.45388 0.62889 0.0
C167 C 0.50154 0.46464 0.68694 0.0
C168 C 0.51003 0.47607 0.63289 0.0
N169 N 0.47094 0.45061 0.68494 0.0
N170 N 0.48466 0.46955 0.59651 0.0
H171 H 0.43689 0.44628 0.6126 0.0
H172 H 0.51624 0.46789 0.72585 0.0
C173 C 0.50317 0.4153 0.83762 0.0
O174 O 0.48352 0.4193 0.88307 0.0
N175 N 0.42544 0.42092 0.82564 0.0
C176 C 0.41076 0.43962 0.86763 0.0
C177 C 0.39965 0.41925 0.91166 0.0
C178 C 0.42188 0.3892 0.84394 0.0
N179 N 0.40645 0.38758 0.89639 0.0
C180 C 0.4302 0.50394 0.75442 0.0
C181 C 0.46046 0.52344 0.85665 0.0
C182 C 0.43736 0.54478 0.83052 0.0
C183 C 0.42346 0.53546 0.77733 0.0
C184 C 0.46691 0.49215 0.83168 0.0
N185 N 0.44988 0.48177 0.78342 0.0
H186 H 0.41807 0.49676 0.71446 0.0
H187 H 0.48391 0.4761 0.85362 0.0
H188 H 0.40797 0.46613 0.86653 0.0
H189 H 0.43041 0.36766 0.81963 0.0
O190 O 0.40455 0.4384 0.71773 0.0
O191 O 0.43637 0.39349 0.71783 0.0
O192 O 0.49329 0.42231 0.78631 0.0
C193 C 0.40803 0.40725 0.70389 0.0
H194 H 0.5327 0.48926 0.62131 0.0
H195 H 0.38688 0.42695 0.95128 0.0
H196 H 0.47194 0.53014 0.89766 0.0
H197 H 0.40576 0.55152 0.75567 0.0
Co198 Co 0.85316 0.18823 0.50143 0.0
C199 C 0.81922 0.20378 0.38948 0.0
C200 C 0.84764 0.24498 0.42222 0.0
C201 C 0.83139 0.25491 0.37288 0.0
N202 N 0.83972 0.21304 0.43328 0.0
N203 N 0.81363 0.22907 0.35208 0.0
H204 H 0.80849 0.17923 0.3851 0.0
H205 H 0.86392 0.2604 0.44817 0.0
C206 C 0.87004 0.24078 0.59352 0.0
O207 O 0.86393 0.22059 0.63699 0.0
N208 N 0.86674 0.16379 0.57014 0.0
C209 C 0.84774 0.14524 0.6065 0.0
C210 C 0.86725 0.13447 0.65199 0.0
C211 C 0.89758 0.16348 0.59359 0.0
N212 N 0.89834 0.14639 0.64391 0.0
C213 C 0.78628 0.16279 0.50763 0.0
C214 C 0.76243 0.20353 0.59584 0.0
C215 C 0.74324 0.17621 0.57856 0.0
C216 C 0.75487 0.15644 0.5324 0.0
C217 C 0.79385 0.20884 0.57024 0.0
N218 N 0.80631 0.18767 0.52848 0.0
H219 H 0.79507 0.14627 0.47371 0.0
H220 H 0.8081 0.22922 0.58636 0.0
H221 H 0.8216 0.13959 0.60074 0.0
H222 H 0.919 0.17586 0.57469 0.0
O223 O 0.85374 0.14707 0.45658 0.0
O224 O 0.89707 0.18052 0.46574 0.0
O225 O 0.8644 0.23211 0.54084 0.0
C226 C 0.88487 0.15319 0.44424 0.0
H227 H 0.8325 0.27937 0.35354 0.0
H228 H 0.85957 0.11834 0.68721 0.0
H229 H 0.75394 0.2196 0.63101 0.0
H230 H 0.74049 0.13528 0.51747 0.0
Co231 Co 0.08736 0.59156 0.25716 0.0
C232 C 0.07371 0.55116 0.1489 0.0
C233 C 0.04232 0.59412 0.15865 0.0
C234 C 0.03366 0.57793 0.10818 0.0
N235 N 0.06685 0.57699 0.18512 0.0
N236 N 0.05328 0.55091 0.10245 0.0
H237 H 0.09296 0.53285 0.15517 0.0
H238 H 0.03142 0.61696 0.17514 0.0
C239 C 0.01428 0.58654 0.29001 0.0
O240 O 0.01359 0.55714 0.26478 0.0
N241 N 0.10705 0.60742 0.32818 0.0
C242 C 0.13144 0.59338 0.35998 0.0
C243 C 0.14042 0.61539 0.40346 0.0
C244 C 0.10144 0.63744 0.35238 0.0
N245 N 0.12147 0.64292 0.39829 0.0
C246 C 0.11082 0.52461 0.26535 0.0
C247 C 0.07736 0.50729 0.36625 0.0
C248 C 0.10088 0.48515 0.34222 0.0
C249 C 0.11719 0.49385 0.29062 0.0
C250 C 0.07154 0.53794 0.33919 0.0
N251 N 0.08788 0.54628 0.2887 0.0
H252 H 0.12633 0.53176 0.22898 0.0
H253 H 0.05565 0.55563 0.36127 0.0
H254 H 0.14318 0.56974 0.35035 0.0
H255 H 0.08486 0.65589 0.33414 0.0
O256 O 0.13108 0.59115 0.22084 0.0
O257 O 0.09692 0.63403 0.21971 0.0
O258 O 0.04159 0.60302 0.29107 0.0
C259 C 0.12575 0.6215 0.2044 0.0
H260 H 0.01443 0.5853 0.07791 0.0
H261 H 0.16091 0.61253 0.43356 0.0
H262 H 0.0652 0.50181 0.40742 0.0
H263 H 0.13642 0.4779 0.27208 0.0
Co264 Co 0.84427 0.69675 0.52015 0.0
C265 C 0.80115 0.72925 0.61655 0.0
C266 C 0.85335 0.72462 0.63527 0.0
C267 C 0.83787 0.73875 0.68284 0.0
N268 N 0.83071 0.71877 0.59304 0.0
N269 N 0.80519 0.74167 0.67109 0.0
H270 H 0.77707 0.72705 0.59623 0.0
H271 H 0.87955 0.71811 0.63226 0.0
C272 C 0.84424 0.64224 0.60686 0.0
O273 O 0.81366 0.65125 0.62123 0.0
N274 N 0.86054 0.67429 0.45042 0.0
C275 C 0.84625 0.67135 0.398 0.0
C276 C 0.86694 0.65225 0.3629 0.0
C277 C 0.88966 0.65741 0.4461 0.0
N278 N 0.89375 0.64167 0.39383 0.0
C279 C 0.77415 0.69863 0.49434 0.0
C280 C 0.76619 0.63123 0.47547 0.0
C281 C 0.73967 0.65263 0.46298 0.0
C282 C 0.74356 0.68665 0.47377 0.0
C283 C 0.79609 0.64419 0.49708 0.0
N284 N 0.7999 0.67753 0.507 0.0
H285 H 0.77756 0.72518 0.4976 0.0
H286 H 0.81678 0.62752 0.50208 0.0
H287 H 0.82297 0.68297 0.38569 0.0
H288 H 0.90774 0.65819 0.48061 0.0
O289 O 0.83775 0.73709 0.47696 0.0
O290 O 0.88507 0.72332 0.52035 0.0
O291 O 0.86024 0.65782 0.56724 0.0
C292 C 0.86845 0.7446 0.48922 0.0
H293 H 0.84945 0.74546 0.72372 0.0
H294 H 0.86274 0.64792 0.31704 0.0
H295 H 0.76425 0.60486 0.46637 0.0
H296 H 0.72377 0.70397 0.46332 0.0
Co297 Co 0.07087 0.08805 0.78317 0.0
C298 C 0.02475 0.0576 0.87383 0.0
C299 C 0.07525 0.06374 0.90281 0.0
C300 C 0.05736 0.04903 0.94644 0.0
N301 N 0.05523 0.069 0.8566 0.0
N302 N 0.0257 0.04505 0.92861 0.0
H303 H 1.00254 0.0582 0.84723 0.0
H304 H 0.10145 0.06984 0.90552 0.0
C305 C 0.14163 0.10881 0.80871 0.0
O306 O 0.15063 0.09909 0.75618 0.0
N307 N 0.08773 0.10861 0.71149 0.0
C308 C 0.09837 0.09518 0.6603 0.0
C309 C 0.11136 0.11997 0.62559 0.0
C310 C 0.09465 0.14143 0.70667 0.0
N311 N 0.10922 0.14884 0.65515 0.0
C312 C 0.07741 0.02725 0.72086 0.0
C313 C 0.13497 1.00368 0.77162 0.0
C314 C 0.12177 0.98712 0.72309 0.0
C315 C 0.09201 0.99844 0.69931 0.0
C316 C 0.11941 0.03288 0.79191 0.0
N317 N 0.09225 0.04561 0.7638 0.0
H318 H 0.05536 0.03588 0.69904 0.0
H319 H 0.12963 0.04522 0.82939 0.0
H320 H 0.09781 0.06934 0.64824 0.0
H321 H 0.09033 0.1594 0.74116 0.0
O322 O 0.02887 0.07864 0.74708 0.0
O323 O 0.04003 0.12596 0.79136 0.0
O324 O 0.11119 0.10619 0.82554 0.0
C325 C 0.01941 0.10849 0.75965 0.0
H326 H 0.06686 0.0417 0.98853 0.0
H327 H 0.12251 0.11692 0.58274 0.0
H328 H 0.15751 0.99477 0.79222 0.0
H329 H 0.0808 0.98584 0.66245 0.0
Co330 Co 0.68109 0.30602 0.02893 0.0
C331 C 0.7236 0.27 0.11567 0.0
C332 C 0.68086 0.29484 0.15308 0.0
C333 C 0.69893 0.28118 0.19727 0.0
N334 N 0.69651 0.28848 0.10209 0.0
N335 N 0.72577 0.26553 0.17408 0.0
H336 H 0.74143 0.2605 0.08394 0.0
H337 H 0.65797 0.30897 0.15793 0.0
C338 C 0.67263 0.37857 0.05822 0.0
O339 O 0.68951 0.38558 1.01048 0.0
N340 N 0.66284 0.32461 0.95749 0.0
C341 C 0.67057 0.3192 0.9007 0.0
C342 C 0.64693 0.33457 0.86648 0.0
C343 C 0.63415 0.34248 0.95643 0.0
N344 N 0.6242 0.34916 0.90183 0.0
C345 C 0.74191 0.31023 0.96355 0.0
C346 C 0.77384 0.3571 0.03141 0.0
C347 C 0.78797 0.34781 0.97763 0.0
C348 C 0.77241 0.32306 0.94485 0.0
C349 C 0.74286 0.34371 0.04814 0.0
N350 N 0.72598 0.32267 1.01177 0.0
H351 H 0.73119 0.29019 0.93887 0.0
H352 H 0.73223 0.35085 0.08955 0.0
H353 H 0.69025 0.30342 0.88417 0.0
H354 H 0.61974 0.34905 0.99492 0.0
O355 O 0.68621 0.26284 0.99258 0.0
O356 O 0.64007 0.28031 0.03733 0.0
O357 O 0.66718 0.34825 0.07191 0.0
C358 C 0.65569 0.25683 1.00855 0.0
H359 H 0.69292 0.28265 0.24331 0.0
H360 H 0.64571 0.33396 0.81939 0.0
H361 H 0.78606 0.3752 0.05908 0.0
H362 H 0.78348 0.31409 0.90446 0.0
Co363 Co 0.45297 0.93854 0.27522 0.0
C364 C 0.50332 0.96367 0.36437 0.0
C365 C 0.45196 0.97582 0.3828 0.0
C366 C 0.4711 0.98906 0.42607 0.0
N367 N 0.47178 0.95971 0.34397 0.0
N368 N 0.50323 0.98156 0.41471 0.0
H369 H 0.52565 0.95438 0.34297 0.0
H370 H 0.42512 0.97837 0.37935 0.0
C371 C 0.38503 0.91292 0.32324 0.0
O372 O 0.37087 0.91016 0.27218 0.0
N373 N 0.43288 0.91775 0.20731 0.0
C374 C 0.42722 0.93229 0.15585 0.0
C375 C 0.40986 0.91052 0.12129 0.0
C376 C 0.42023 0.88676 0.202 0.0
N377 N 0.40293 0.88247 0.15159 0.0
C378 C 0.45308 1.0071 0.24814 0.0
C379 C 0.3867 0.01332 0.21757 0.0
C380 C 0.40884 0.03918 0.2051 0.0
C381 C 0.44212 0.03648 0.2225 0.0
C382 C 0.39871 0.98436 0.24337 0.0
N383 N 0.43182 0.98093 0.2564 0.0
H384 H 0.47929 1.00465 0.25845 0.0
H385 H 0.38173 0.96421 0.24801 0.0
H386 H 0.43553 0.95691 0.14393 0.0
H387 H 0.42351 0.86839 0.23546 0.0
O388 O 0.49345 0.94505 0.23021 0.0
O389 O 0.4829 0.90023 0.28245 0.0
O390 O 0.41502 0.92349 0.32888 0.0
C391 C 0.50298 0.91574 0.24663 0.0
H392 H 0.46222 1.00348 0.4631 0.0
H393 H 0.40342 0.91529 0.07648 0.0
H394 H 0.36081 0.01469 0.20425 0.0
H395 H 0.45985 0.05615 0.21341 0.0
Co396 Co 0.18582 0.33195 0.51362 0.0
C397 C 0.20571 0.31595 0.38854 0.0
C398 C 0.2178 0.27778 0.44988 0.0
C399 C 0.22943 0.26809 0.39607 0.0
N400 N 0.20285 0.30773 0.44571 0.0
N401 N 0.22205 0.292 0.35753 0.0
H402 H 0.19713 0.33913 0.37023 0.0
H403 H 0.22112 0.26424 0.48994 0.0
C404 C 0.16053 0.27806 0.59742 0.0
O405 O 0.16006 0.29855 0.64203 0.0
N406 N 0.16866 0.35567 0.58179 0.0
C407 C 0.18535 0.37531 0.61959 0.0
C408 C 0.16286 0.38846 0.65953 0.0
C409 C 0.13623 0.35783 0.59851 0.0
N410 N 0.13214 0.37713 0.6463 0.0
C411 C 0.25484 0.34702 0.51623 0.0
C412 C 0.26933 0.32335 0.6258 0.0
C413 C 0.29284 0.34355 0.5972 0.0
C414 C 0.28581 0.35425 0.54083 0.0
C415 C 0.23829 0.31699 0.59975 0.0
N416 N 0.23078 0.33016 0.54665 0.0
H417 H 0.24949 0.35668 0.4735 0.0
H418 H 0.21995 0.30343 0.62421 0.0
H419 H 0.21175 0.38082 0.6172 0.0
H420 H 0.11592 0.34566 0.57603 0.0
O421 O 0.19052 0.37417 0.47457 0.0
O422 O 0.14474 0.34353 0.47283 0.0
O423 O 0.17122 0.2872 0.54714 0.0
C424 C 0.15959 0.37124 0.45867 0.0
H425 H 0.24312 0.2455 0.38604 0.0
H426 H 0.16843 0.40559 0.69466 0.0
H427 H 0.27407 0.31444 0.6694 0.0
H428 H 0.30346 0.36959 0.51711 0.0
Co429 Co 0.9367 0.9249 0.2549 0.0
C430 C 0.95229 0.9661 0.15019 0.0
C431 C 0.97794 0.91918 0.14989 0.0
C432 C 0.98678 0.93604 0.1003 0.0
N433 N 0.95726 0.93841 0.18217 0.0
N434 N 0.97076 0.96555 0.10041 0.0
H435 H 0.93565 0.98616 0.16291 0.0
H436 H 0.9863 0.89462 0.16202 0.0
C437 C 1.01281 0.91867 0.28122 0.0
O438 O 0.02218 0.93752 0.23761 0.0
N439 N 0.91684 0.90932 0.32728 0.0
C440 C 0.89265 0.92183 0.36273 0.0
C441 C 0.88379 0.89798 0.4029 0.0
C442 C 0.92286 0.87855 0.34778 0.0
N443 N 0.90267 0.87082 0.3929 0.0
C444 C 0.90603 0.98654 0.28705 0.0
C445 C 0.96253 0.02198 0.31573 0.0
C446 C 0.93107 0.03655 0.3255 0.0
C447 C 0.90268 0.01856 0.30969 0.0
C448 C 0.96464 0.98914 0.29478 0.0
N449 N 0.93648 0.97113 0.28321 0.0
H450 H 0.88353 0.97383 0.27428 0.0
H451 H 0.98886 0.97892 0.28685 0.0
H452 H 0.8802 0.94536 0.35839 0.0
H453 H 0.9399 0.86109 0.32709 0.0
O454 O 0.8935 0.9257 0.21741 0.0
O455 O 0.92611 0.88155 0.21968 0.0
O456 O 0.98174 0.91344 0.29225 0.0
C457 C 0.89781 0.89472 0.20382 0.0
H458 H 1.00366 0.92729 0.0664 0.0
H459 H 0.86364 0.89964 0.43457 0.0
H460 H 0.9852 0.03566 0.32506 0.0
H461 H 0.87793 0.02924 0.31479 0.0
Co462 Co 0.34701 0.69611 1.0036 0.0
C463 C 0.31125 0.72316 0.89643 0.0
C464 C 0.36128 0.74082 0.90809 0.0
C465 C 0.34906 0.75428 0.85764 0.0
N466 N 0.33779 0.72119 0.93278 0.0
N467 N 0.31771 0.74313 0.85054 0.0
H468 H 0.28765 0.7108 0.90223 0.0
H469 H 0.38594 0.74499 0.9257 0.0
C470 C 0.3451 0.7661 0.04493 0.0
O471 O 0.31573 0.76829 1.01995 0.0
N472 N 0.35888 0.67249 0.0736 0.0
C473 C 0.34224 0.64838 0.10231 0.0
C474 C 0.36325 0.63512 0.14373 0.0
C475 C 0.38923 0.67405 0.09848 0.0
N476 N 0.39271 0.65132 0.14085 0.0
C477 C 0.27719 0.68107 1.00211 0.0
C478 C 0.26275 0.7016 0.11451 0.0
C479 C 0.23886 0.68295 0.08411 0.0
C480 C 0.24582 0.67421 0.02618 0.0
C481 C 0.29339 0.70946 0.08758 0.0
N482 N 0.30066 0.69876 0.0321 0.0
H483 H 0.28343 0.66944 0.96102 0.0
H484 H 0.31236 0.72129 0.11355 0.0
H485 H 0.31764 0.63934 0.09109 0.0
H486 H 0.40939 0.68958 0.08258 0.0
O487 O 0.34315 0.65465 0.96143 0.0
O488 O 0.39011 0.68311 0.97003 0.0
O489 O 0.3611 0.73868 0.04315 0.0
C490 C 0.37498 0.65666 0.95055 0.0
H491 H 0.36203 0.77103 0.82846 0.0
H492 H 0.35822 0.61371 0.17074 0.0
H493 H 0.25859 0.7083 0.15977 0.0
H494 H 0.2283 0.65929 1.00154 0.0
Co495 Co 0.58899 0.09222 0.74934 0.0
C496 C 0.57796 0.05422 0.63908 0.0
C497 C 0.54445 0.0957 0.64961 0.0
C498 C 0.53663 0.07932 0.59881 0.0
N499 N 0.57005 0.07982 0.67517 0.0
N500 N 0.55747 0.0532 0.59248 0.0
H501 H 0.59763 0.03639 0.64706 0.0
H502 H 0.53208 0.11756 0.66708 0.0
C503 C 0.52943 0.10673 0.83013 0.0
O504 O 0.54583 0.09548 0.87526 0.0
N505 N 0.60791 0.10532 0.82372 0.0
C506 C 0.62803 0.08809 0.85922 0.0
C507 C 0.63401 0.10699 0.90823 0.0
C508 C 0.603 0.13471 0.85092 0.0
N509 N 0.61676 0.13593 0.90483 0.0
C510 C 0.61507 0.02677 0.76482 0.0
C511 C 0.56296 1.00067 0.82937 0.0
C512 C 0.59313 0.98302 0.82504 0.0
C513 C 0.61865 0.9956 0.78991 0.0
C514 C 0.56011 0.0317 0.80199 0.0
N515 N 0.58699 0.04563 0.77423 0.0
H516 H 0.63609 0.03625 0.74062 0.0
H517 H 0.53657 0.04441 0.80429 0.0
H518 H 0.63865 0.06397 0.84997 0.0
H519 H 0.59008 0.15491 0.83025 0.0
O520 O 0.63343 0.09167 0.71537 0.0
O521 O 0.6005 0.13577 0.71754 0.0
O522 O 0.54187 0.10408 0.77855 0.0
C523 C 0.62904 0.12262 0.70234 0.0
H524 H 0.51679 0.08573 0.56904 0.0
H525 H 0.65129 0.10009 0.94198 0.0
H526 H 0.54233 0.99113 0.85512 0.0
H527 H 0.64215 0.98237 0.78502 0.0
C528 C 0.49292 0.1582 0.83048 0.0
C529 C 0.49633 0.12338 0.84005 0.0
C530 C 0.43797 0.12169 0.875 0.0
C531 C 0.43644 0.15678 0.87326 0.0
N532 N 0.46264 0.20912 0.85402 0.0
N533 N 0.47255 0.07229 0.87664 0.0
C534 C 0.46398 0.17521 0.85207 0.0
C535 C 0.46895 0.1052 0.86383 0.0
N536 N 0.5171 0.17508 0.80044 0.0
N537 N 0.40941 0.10412 0.88575 0.0
H538 H 0.49411 0.0588 0.86679 0.0
H539 H 0.45491 0.05886 0.9004 0.0
H540 H 0.38654 0.11569 0.89468 0.0
H541 H 0.40783 0.07838 0.88167 0.0
H542 H 0.51449 0.19964 0.78722 0.0
H543 H 0.53881 0.16392 0.78444 0.0
H544 H 0.48315 0.22435 0.84576 0.0
H545 H 0.44138 0.22199 0.86816 0.0
C546 C 0.65579 0.6801 0.09999 0.0
C547 C 0.62156 0.67446 0.11237 0.0
C548 C 0.60917 0.73338 0.09691 0.0
C549 C 0.64341 0.73898 0.0832 0.0
N550 N 0.69768 0.71653 0.05801 0.0
N551 N 0.56458 0.69314 0.11048 0.0
C552 C 0.66622 0.71192 0.0801 0.0
C553 C 0.5979 0.70041 0.1071 0.0
N554 N 0.67851 0.65549 0.11028 0.0
N555 N 0.58753 0.75964 0.10099 0.0
H556 H 0.55583 0.66903 0.11702 0.0
H557 H 0.54568 0.71017 0.10174 0.0
H558 H 0.59431 0.78385 0.09016 0.0
H559 H 0.56334 0.75779 0.11775 0.0
H560 H 0.70428 0.65904 0.1084 0.0
H561 H 0.67153 0.63207 0.12532 0.0
H562 H 0.71435 0.69713 0.04976 0.0
H563 H 0.70607 0.73937 0.04262 0.0
C564 C 0.0731 0.85379 0.34311 0.0
C565 C 0.09515 0.87457 0.37466 0.0
C566 C 0.05906 0.92266 0.35532 0.0
C567 C 0.03914 0.90275 0.31778 0.0
N568 N 0.02756 0.84944 0.27383 0.0
N569 N 0.11095 0.92864 0.40893 0.0
C570 C 0.04601 0.86818 0.31167 0.0
C571 C 0.08847 0.90896 0.38052 0.0
N572 N 0.07828 0.82024 0.34353 0.0
N573 N 0.04921 0.95436 0.36842 0.0
H574 H 0.13201 0.91899 0.42939 0.0
H575 H 0.10995 0.95449 0.40934 0.0
H576 H 0.0274 0.96474 0.35208 0.0
H577 H 0.0607 0.96925 0.39959 0.0
H578 H 0.06171 0.80298 0.32618 0.0
H579 H 0.09834 0.80945 0.36528 0.0
H580 H 0.03336 0.82505 0.26235 0.0
H581 H 1.00722 0.85889 0.25108 0.0
C582 C 0.87416 0.3336 0.62367 0.0
C583 C 0.90839 0.33761 0.63756 0.0
C584 C 0.91721 0.27775 0.62521 0.0
C585 C 0.88366 0.27433 0.60593 0.0
N586 N 0.83296 0.30083 0.57289 0.0
N587 N 0.96404 0.31513 0.63985 0.0
C588 C 0.86302 0.30284 0.60049 0.0
C589 C 0.93039 0.31009 0.63501 0.0
N590 N 0.85187 0.35847 0.63591 0.0
N591 N 0.93645 0.25024 0.63448 0.0
H592 H 0.97436 0.33875 0.64515 0.0
H593 H 0.98178 0.29651 0.63291 0.0
H594 H 0.92826 0.22619 0.6257 0.0
H595 H 0.95968 0.25112 0.65464 0.0
H596 H 0.82608 0.35559 0.632 0.0
H597 H 0.85871 0.38065 0.65618 0.0
H598 H 0.81854 0.32164 0.56322 0.0
H599 H 0.82411 0.27902 0.55403 0.0
C600 C 0.5899 0.87551 0.22608 0.0
C601 C 0.59542 0.88222 0.16607 0.0
C602 C 0.53777 0.90192 0.15852 0.0
C603 C 0.53367 0.90033 0.21997 0.0
N604 N 0.55732 0.88741 0.31361 0.0
N605 N 0.57621 0.90793 0.07793 0.0
C606 C 0.56009 0.88739 0.25429 0.0
C607 C 0.56977 0.89714 0.13313 0.0
N608 N 0.61263 0.85678 0.25546 0.0
N609 N 0.51063 0.90626 0.12377 0.0
H610 H 0.59957 0.9056 0.05822 0.0
H611 H 0.55941 0.9222 0.0542 0.0
H612 H 0.48648 0.90673 0.14056 0.0
H613 H 0.5117 0.90469 0.07845 0.0
H614 H 0.60868 0.84822 0.29768 0.0
H615 H 0.63418 0.84729 0.23554 0.0
H616 H 0.57718 0.8819 0.34102 0.0
H617 H 0.53573 0.89497 0.33568 0.0
C618 C 0.35687 0.32459 0.98113 0.0
C619 C 0.3801 0.29792 0.98404 0.0
C620 C 0.42282 0.33454 0.94284 0.0
C621 C 0.3978 0.35799 0.92838 0.0
N622 N 0.33909 0.37169 0.92469 0.0
N623 N 0.4352 0.27662 0.95856 0.0
C624 C 0.36424 0.35217 0.94532 0.0
C625 C 0.41328 0.30259 0.96295 0.0
N626 N 0.32799 0.32387 1.01329 0.0
N627 N 0.45569 0.34315 0.93931 0.0
H628 H 0.42937 0.25242 0.97055 0.0
H629 H 0.45836 0.27866 0.93767 0.0
H630 H 0.46315 0.36704 0.92808 0.0
H631 H 0.47492 0.32796 0.95417 0.0
H632 H 0.3115 0.34394 1.01571 0.0
H633 H 0.32275 0.30499 0.04294 0.0
H634 H 0.31389 0.36645 0.93203 0.0
H635 H 0.34319 0.39072 0.89487 0.0
C636 C 0.96504 0.14239 0.75981 0.0
C637 C 0.98896 0.12189 0.73056 0.0
C638 C 0.94973 0.11388 0.65036 0.0
C639 C 0.92785 0.13729 0.67542 0.0
N640 N 0.91576 0.17758 0.75021 0.0
N641 N 1.00712 0.09847 0.63772 0.0
C642 C 0.93587 0.15282 0.7291 0.0
C643 C 0.98218 0.11058 0.67286 0.0
N644 N 0.96911 0.15051 0.81713 0.0
N645 N 0.93928 0.0942 0.6055 0.0
H646 H 0.03211 0.09895 0.64959 0.0
H647 H 1.00348 0.09236 0.59401 0.0
H648 H 0.91532 0.09591 0.58807 0.0
H649 H 0.95334 0.07412 0.59002 0.0
H650 H 0.95086 0.16275 0.84182 0.0
H651 H 0.98948 0.1426 0.84141 0.0
H652 H 0.92188 0.19219 0.78619 0.0
H653 H 0.89405 0.18491 0.72885 0.0
C654 C 0.1462 0.69841 0.39046 0.0
C655 C 0.12836 0.67485 0.42357 0.0
C656 C 0.12602 0.71371 0.50615 0.0
C657 C 0.14183 0.73817 0.47092 0.0
N658 N 0.15662 0.75649 0.37405 0.0
N659 N 0.09626 0.66097 0.50866 0.0
C660 C 0.14867 0.73132 0.4113 0.0
C661 C 0.11655 0.68286 0.48018 0.0
N662 N 0.16207 0.68897 0.34015 0.0
N663 N 0.12172 0.71903 0.56454 0.0
H664 H 0.08968 0.63806 0.4905 0.0
H665 H 0.08411 0.66652 0.54784 0.0
H666 H 0.12828 0.74115 0.58517 0.0
H667 H 0.1137 0.70067 0.5932 0.0
H668 H 0.17859 0.70445 0.31779 0.0
H669 H 0.16134 0.6647 0.32398 0.0
H670 H 0.15909 0.75307 0.32915 0.0
H671 H 0.15666 0.7813 0.38714 0.0
C672 C 0.95147 0.61675 0.40628 0.0
C673 C 0.92219 0.62145 0.37262 0.0
C674 C 0.95242 0.5992 0.28713 0.0
C675 C 0.98305 0.59999 0.31828 0.0
N676 N 1.0116 0.61258 0.40881 0.0
N677 N 0.8925 0.59391 0.29555 0.0
C678 C 0.98262 0.60994 0.37803 0.0
C679 C 0.92178 0.60624 0.31669 0.0
N680 N 0.94859 0.61228 0.46491 0.0
N681 N 0.95245 0.5932 0.22848 0.0
H682 H 0.87092 0.59281 0.32136 0.0
H683 H 0.89104 0.58002 0.25719 0.0
H684 H 0.97425 0.58923 0.20424 0.0
H685 H 0.93111 0.59573 0.20308 0.0
H686 H 0.96865 0.60615 0.49152 0.0
H687 H 0.92541 0.6082 0.48456 0.0
H688 H 1.01249 0.62361 0.44999 0.0
H689 H 0.03503 0.60621 0.39235 0.0
C690 C 0.1572 0.18626 0.63621 0.0
C691 C 0.12219 0.18069 0.63728 0.0
C692 C 0.11227 0.23864 0.60943 0.0
C693 C 0.14741 0.24388 0.60609 0.0
N694 N 0.20341 0.22175 0.60702 0.0
N695 N 0.06651 0.199 0.61633 0.0
C696 C 0.16992 0.21731 0.61639 0.0
C697 C 0.09975 0.20623 0.62143 0.0
N698 N 0.17815 0.1623 0.65683 0.0
N699 N 0.09092 0.26482 0.60207 0.0
H700 H 0.05689 0.17541 0.62487 0.0
H701 H 0.04891 0.21536 0.59956 0.0
H702 H 0.09906 0.28842 0.59004 0.0
H703 H 0.06534 0.2637 0.61063 0.0
H704 H 0.20361 0.16588 0.66349 0.0
H705 H 0.16953 0.13941 0.67164 0.0
H706 H 0.22084 0.20253 0.60788 0.0
H707 H 0.2136 0.24435 0.59384 0.0
C708 C 0.53527 0.36389 0.85749 0.0
C709 C 0.53561 0.39833 0.84596 0.0
C710 C 0.5959 0.3996 0.86506 0.0
C711 C 0.59415 0.36625 0.88459 0.0
N712 N 0.55997 0.31968 0.9127 0.0
N713 N 0.56554 0.45014 0.84139 0.0
C714 C 0.56322 0.34919 0.88449 0.0
C715 C 0.56583 0.41659 0.8501 0.0
N716 N 0.5085 0.34502 0.84138 0.0
N717 N 0.62629 0.41488 0.86119 0.0
H718 H 0.54415 0.4629 0.82846 0.0
H719 H 0.58589 0.4655 0.84983 0.0
H720 H 0.64835 0.40341 0.87446 0.0
H721 H 0.62988 0.43802 0.84211 0.0
H722 H 0.50824 0.31917 0.84414 0.0
H723 H 0.48809 0.35499 0.81953 0.0
H724 H 0.53719 0.30741 0.9177 0.0
H725 H 0.57902 0.30991 0.93779 0.0
C726 C 0.36422 0.85646 0.07912 0.0
C727 C 0.38233 0.8544 0.13181 0.0
C728 C 0.37117 0.79423 0.13335 0.0
C729 C 0.3593 0.79588 0.07493 0.0
N730 N 0.35035 0.82926 0.98898 0.0
N731 N 0.3788 0.8251 0.22267 0.0
C732 C 0.35735 0.8272 0.04701 0.0
C733 C 0.37977 0.82419 0.16329 0.0
N734 N 0.3492 0.88558 0.06406 0.0
N735 N 0.37368 0.76443 0.1612 0.0
H736 H 0.37503 0.84733 0.24523 0.0
H737 H 0.37481 0.80431 0.24861 0.0
H738 H 0.36472 0.74214 0.14446 0.0
H739 H 0.38655 0.76162 0.20018 0.0
H740 H 0.33339 0.88765 0.02833 0.0
H741 H 0.34822 0.90586 0.09261 0.0
H742 H 0.35147 0.85164 0.96633 0.0
H743 H 0.34733 0.80845 0.96227 0.0
C744 C 0.07627 0.40296 0.64301 0.0
C745 C 0.1009 0.38574 0.67454 0.0
C746 C 0.06461 0.38724 0.76162 0.0
C747 C 0.0387 0.40191 0.72822 0.0
N748 N 0.01756 0.41379 0.63196 0.0
N749 N 0.11635 0.35544 0.76012 0.0
C750 C 0.04389 0.40697 0.66742 0.0
C751 C 0.09444 0.37611 0.73289 0.0
N752 N 0.08407 0.41642 0.59017 0.0
N753 N 0.06156 0.38516 0.8208 0.0
H754 H 0.13802 0.34654 0.73974 0.0
H755 H 0.1115 0.34477 0.80055 0.0
H756 H 0.04044 0.39314 0.84372 0.0
H757 H 0.08115 0.37803 0.84766 0.0
H758 H 0.06802 0.43222 0.56784 0.0
H759 H 0.10786 0.41462 0.57164 0.0
H760 H 0.01959 0.41454 0.58669 0.0
H761 H 0.99304 0.41436 0.64696 0.0
C762 C 0.90356 0.83257 0.47676 0.0
C763 C 0.89738 0.83827 0.41699 0.0
C764 C 0.88276 0.77979 0.40398 0.0
C765 C 0.88356 0.77529 0.46509 0.0
N766 N 0.89301 0.79801 0.5611 0.0
N767 N 0.87544 0.81862 0.32545 0.0
C768 C 0.89388 0.80175 0.50204 0.0
C769 C 0.88562 0.81218 0.3809 0.0
N770 N 0.91924 0.85651 0.50884 0.0
N771 N 0.88017 0.75287 0.36783 0.0
H772 H 0.87585 0.8423 0.30754 0.0
H773 H 0.86341 0.80113 0.29936 0.0
H774 H 0.88012 0.72868 0.3836 0.0
H775 H 0.88232 0.75435 0.32265 0.0
H776 H 0.92736 0.85288 0.55133 0.0
H777 H 0.92667 0.87914 0.49096 0.0
H778 H 0.89639 0.81757 0.59036 0.0
H779 H 0.88698 0.77561 0.58096 0.0
C780 C 0.46088 0.63417 0.24967 0.0
C781 C 0.48643 0.62179 0.21188 0.0
C782 C 0.44832 0.62564 0.1291 0.0
C783 C 0.42395 0.64074 0.16555 0.0
N784 N 0.40802 0.66392 0.25821 0.0
N785 N 0.50672 0.61348 0.11342 0.0
C786 C 0.43055 0.64635 0.2253 0.0
C787 C 0.48076 0.61971 0.15094 0.0
N788 N 0.46488 0.63286 0.30867 0.0
N789 N 0.4401 0.61594 0.07393 0.0
H790 H 0.53116 0.61044 0.12742 0.0
H791 H 0.50472 0.6151 0.0683 0.0
H792 H 0.41632 0.61941 0.05688 0.0
H793 H 0.45572 0.60158 0.04733 0.0
H794 H 0.44581 0.63829 0.3384 0.0
H795 H 0.48649 0.62378 0.32809 0.0
H796 H 0.41267 0.67186 0.30065 0.0
H797 H 0.38559 0.67273 0.24118 0.0
C798 C 0.63606 0.16416 0.99705 0.0
C799 C 0.61696 0.16421 0.94522 0.0
C800 C 0.61528 0.22454 0.94705 0.0
C801 C 0.63949 0.22505 0.99181 0.0
N802 N 0.67154 0.19524 0.06324 0.0
N803 N 0.56949 0.19331 0.90715 0.0
C804 C 0.64926 0.19478 1.01849 0.0
C805 C 0.60061 0.19408 0.93076 0.0
N806 N 0.6374 0.136 0.02967 0.0
N807 N 0.60803 0.2525 0.91664 0.0
H808 H 0.5562 0.17107 0.90374 0.0
H809 H 0.55552 0.21475 0.89953 0.0
H810 H 0.62033 0.27477 0.92427 0.0
H811 H 0.59259 0.25234 0.8802 0.0
H812 H 0.64894 0.13468 0.07009 0.0
H813 H 0.62243 0.11549 1.02004 0.0
H814 H 0.68267 0.1739 0.07976 0.0
H815 H 0.68001 0.21727 0.08213 0.0
C816 C 0.2392 0.25268 0.21345 0.0
C817 C 0.26793 0.27067 0.19585 0.0
C818 C 0.25942 0.31012 0.27674 0.0
C819 C 0.23209 0.29077 0.29681 0.0
N820 N 0.18992 0.2503 0.27633 0.0
N821 N 0.29922 0.32125 0.19841 0.0
C822 C 0.21979 0.26446 0.26175 0.0
C823 C 0.27555 0.30133 0.2232 0.0
N824 N 0.23205 0.22313 0.18689 0.0
N825 N 0.27165 0.33504 0.31103 0.0
H826 H 0.31121 0.31468 0.15939 0.0
H827 H 0.30461 0.34515 0.2132 0.0
H828 H 0.26046 0.34206 0.35033 0.0
H829 H 0.29385 0.34759 0.30213 0.0
H830 H 0.21375 0.2068 0.20174 0.0
H831 H 0.24562 0.21424 0.15109 0.0
H832 H 0.17799 0.2325 0.25081 0.0
H833 H 0.17574 0.25883 0.31181 0.0
C834 C 0.51025 0.46778 0.49974 0.0
C835 C 0.4845 0.48001 0.53658 0.0
C836 C 0.47525 0.52563 0.46856 0.0
C837 C 0.50604 0.51799 0.44063 0.0
N838 N 0.55371 0.48154 0.42996 0.0
N839 N 0.44145 0.52048 0.55618 0.0
C840 C 0.52337 0.4884 0.455 0.0
C841 C 0.46598 0.50843 0.52017 0.0
N842 N 0.52303 0.43694 0.51004 0.0
N843 N 0.45552 0.55 0.44606 0.0
H844 H 0.43388 0.50829 0.59394 0.0
H845 H 0.42977 0.54334 0.55015 0.0
H846 H 0.46215 0.56258 0.408 0.0
H847 H 0.43155 0.55537 0.46158 0.0
H848 H 0.54025 0.42518 0.48255 0.0
H849 H 0.51365 0.42203 0.54351 0.0
H850 H 0.56917 0.46228 0.44353 0.0
H851 H 0.56464 0.49641 0.39815 0.0
C852 C 0.26141 0.79295 0.75327 0.0
C853 C 0.25261 0.76859 0.71138 0.0
C854 C 0.28962 0.72829 0.75832 0.0
C855 C 0.29563 0.75161 0.80354 0.0
N856 N 0.2852 0.80476 0.84824 0.0
N857 N 0.25578 0.7127 0.6749 0.0
C858 C 0.28114 0.78372 0.80191 0.0
C859 C 0.26624 0.73615 0.7139 0.0
N860 N 0.25086 0.82493 0.74592 0.0
N861 N 0.30694 0.69902 0.75745 0.0
H862 H 0.23933 0.71829 0.64125 0.0
H863 H 0.26188 0.68761 0.67757 0.0
H864 H 0.3241 0.69281 0.78964 0.0
H865 H 0.30617 0.68204 0.7231 0.0
H866 H 0.25855 0.84475 0.77186 0.0
H867 H 0.23638 0.83208 0.71049 0.0
H868 H 0.27288 0.82744 0.85272 0.0
H869 H 0.29911 0.7983 0.88474 0.0
C870 C 0.02975 0.47428 1.0184 0.0
C871 C 0.02762 0.48854 0.96256 0.0
C872 C 0.05692 0.53781 0.998 0.0
C873 C 0.05145 0.52693 0.05581 0.0
N874 N 0.03296 0.4844 0.1223 0.0
N875 N 0.04088 0.53262 0.89652 0.0
C876 C 0.03892 0.49455 0.06652 0.0
C877 C 0.04267 0.5196 0.95114 0.0
N878 N 0.02106 0.44175 0.02506 0.0
N879 N 0.07512 0.56598 0.98873 0.0
H880 H 0.03109 0.51923 0.86155 0.0
H881 H 0.04787 0.55683 0.88639 0.0
H882 H 0.08579 0.57928 0.02308 0.0
H883 H 0.08206 0.57433 0.94753 0.0
H884 H 0.02407 0.4287 0.0637 0.0
H885 H 0.0137 0.42717 0.98959 0.0
H886 H 0.02052 0.46247 0.13263 0.0
H887 H 0.03855 0.49887 0.15867 0.0
C888 C 0.76983 0.7315 0.75761 0.0
C889 C 0.78011 0.75296 0.71223 0.0
C890 C 0.7465 0.79814 0.75526 0.0
C891 C 0.73815 0.77728 0.80271 0.0
N892 N 0.74497 0.726 0.85406 0.0
N893 N 0.78191 0.80736 0.67014 0.0
C894 C 0.75076 0.74443 0.80523 0.0
C895 C 0.76938 0.78653 0.71163 0.0
N896 N 0.77786 0.69855 0.7541 0.0
N897 N 0.73167 0.82861 0.75131 0.0
H898 H 0.79806 0.79911 0.63714 0.0
H899 H 0.77792 0.83293 0.67023 0.0
H900 H 0.71532 0.83773 0.78328 0.0
H901 H 0.73393 0.84394 0.71513 0.0
H902 H 0.769 0.68069 0.78295 0.0
H903 H 0.7913 0.68862 0.71898 0.0
H904 H 0.75574 0.70286 0.86145 0.0
H905 H 0.73135 0.7352 0.88965 0.0
C906 C 0.78469 0.25769 0.20675 0.0
C907 C 0.75052 0.24826 0.20815 0.0
C908 C 0.75888 0.22107 0.30212 0.0
C909 C 0.79321 0.22995 0.30032 0.0
N910 N 0.84049 0.24524 0.2409 0.0
N911 N 0.70905 0.21069 0.24544 0.0
C912 C 0.80667 0.24427 0.24891 0.0
C913 C 0.73917 0.22611 0.25176 0.0
N914 N 0.79583 0.28125 0.16876 0.0
N915 N 0.74418 0.21073 0.35273 0.0
H916 H 0.69465 0.21371 0.20806 0.0
H917 H 0.70045 0.19244 0.27391 0.0
H918 H 0.75679 0.2092 0.39208 0.0
H919 H 0.71847 0.20703 0.35693 0.0
H920 H 0.81986 0.29121 0.17053 0.0
H921 H 0.78045 0.29307 0.13899 0.0
H922 H 0.85168 0.25327 0.2023 0.0
H923 H 0.85692 0.23442 0.27042 0.0
C924 C 0.97061 0.9802 0.99625 0.0
C925 C 0.97404 0.99034 0.05522 0.0
C926 C 0.99495 0.04403 0.02111 0.0
C927 C 0.99993 0.03042 0.96473 0.0
N928 N 0.99249 0.98469 0.8979 0.0
N929 N 0.99181 0.03236 0.12414 0.0
C930 C 0.98697 0.99853 0.95151 0.0
C931 C 0.98598 0.02279 0.06797 0.0
N932 N 0.95205 0.95271 0.98357 0.0
N933 N 1.00054 0.07711 0.02978 0.0
H934 H 0.98749 0.01715 0.15985 0.0
H935 H 1.00378 0.0545 0.13503 0.0
H936 H 1.00741 0.09268 0.99545 0.0
H937 H 0.99506 0.08934 0.06886 0.0
H938 H 0.94654 0.94528 0.94116 0.0
H939 H 0.93934 0.93952 1.01592 0.0
H940 H 0.98707 0.95996 0.88814 0.0
H941 H 1.0043 0.99736 0.86412 0.0
C942 C 0.54637 0.02242 0.44087 0.0
C943 C 0.53016 0.99187 0.45195 0.0
C944 C 0.54239 0.99703 0.55603 0.0
C945 C 0.55581 0.02911 0.54572 0.0
N946 N 0.57979 0.06806 0.47897 0.0
N947 N 0.52164 0.9453 0.51422 0.0
C948 C 0.56121 0.04011 0.48793 0.0
C949 C 0.53187 0.9774 0.50775 0.0
N950 N 0.54514 0.0355 0.38623 0.0
N951 N 0.53706 0.98662 0.61184 0.0
H952 H 0.51337 0.93124 0.47873 0.0
H953 H 0.52407 0.93195 0.55266 0.0
H954 H 0.5442 1.00047 0.64812 0.0
H955 H 0.52405 0.96507 0.62246 0.0
H956 H 0.55309 0.0594 0.37599 0.0
H957 H 0.53495 0.02242 0.35124 0.0
H958 H 0.5867 0.07664 0.43791 0.0
H959 H 0.59065 0.08107 0.51349 0.0
C960 C 0.16111 0.15093 0.88289 0.0
C961 C 0.16728 0.12138 0.85011 0.0
C962 C 0.22383 0.11838 0.89094 0.0
C963 C 0.21659 0.14638 0.92665 0.0
N964 N 0.17616 0.18474 0.96648 0.0
N965 N 0.2021 0.07272 0.83416 0.0
C966 C 0.1844 0.16104 0.92595 0.0
C967 C 0.19791 0.10381 0.85742 0.0
N968 N 0.13428 0.17067 0.87036 0.0
N969 N 0.25585 0.10654 0.88674 0.0
H970 H 0.18409 0.06067 0.80946 0.0
H971 H 0.22233 0.05747 0.84406 0.0
H972 H 0.2756 0.11604 0.91107 0.0
H973 H 0.26337 0.089 0.85571 0.0
H974 H 0.13061 0.19411 0.88885 0.0
H975 H 0.11757 0.16545 0.83698 0.0
H976 H 0.15201 0.19409 0.9718 0.0
H977 H 0.19278 0.19259 0.99858 0.0
C978 C 0.6323 0.46133 0.10104 0.0
C979 C 0.63415 0.4603 0.16263 0.0
C980 C 0.6634 0.40677 0.15647 0.0
C981 C 0.6587 0.40621 0.09491 0.0
N982 N 0.63124 0.42994 1.01119 0.0
N983 N 0.64653 0.43008 0.25002 0.0
C984 C 0.64119 0.43272 0.06785 0.0
C985 C 0.64821 0.4324 0.19067 0.0
N986 N 0.6225 0.48989 0.07402 0.0
N987 N 0.6837 0.38393 0.18224 0.0
H988 H 0.63644 0.44882 0.27647 0.0
H989 H 0.65268 0.4086 0.27266 0.0
H990 H 0.6958 0.36502 0.15943 0.0
H991 H 0.69103 0.38546 0.22561 0.0
H992 H 0.62436 0.49333 0.02915 0.0
H993 H 0.61534 0.51131 0.09673 0.0
H994 H 0.61528 0.44685 0.99135 0.0
H995 H 0.63581 0.40898 0.98564 0.0
C996 C 0.31049 0.91115 0.42443 0.0
C997 C 0.31629 0.88107 0.45485 0.0
C998 C 0.37111 0.87521 0.40704 0.0
C999 C 0.36477 0.90474 0.37551 0.0
N1000 N 0.33426 0.95604 0.36755 0.0
N1001 N 0.35502 0.83963 0.48777 0.0
C1002 C 0.33634 0.92447 0.38881 0.0
C1003 C 0.34778 0.86494 0.45052 0.0
N1004 N 0.27963 0.92582 0.42625 0.0
N1005 N 0.39827 0.85602 0.39308 0.0
H1006 H 0.33821 0.83191 0.52001 0.0
H1007 H 0.37848 0.82851 0.49037 0.0
H1008 H 0.41612 0.86304 0.36214 0.0
H1009 H 0.40215 0.8323 0.4096 0.0
H1010 H 0.27277 0.94529 0.39912 0.0
H1011 H 0.25998 0.91723 0.45214 0.0
H1012 H 0.31563 0.97282 0.3799 0.0
H1013 H 0.35326 0.96656 0.34234 0.0
C1014 C 0.86302 0.61522 0.69942 0.0
C1015 C 0.86017 0.61399 0.63763 0.0
C1016 C 0.88101 0.55651 0.63662 0.0
C1017 C 0.88457 0.55811 0.69798 0.0
N1018 N 0.88205 0.58873 0.78827 0.0
N1019 N 0.87203 0.58555 0.54638 0.0
C1020 C 0.87635 0.58741 0.72958 0.0
C1021 C 0.87078 0.58526 0.60592 0.0
N1022 N 0.85328 0.64324 0.72911 0.0
N1023 N 0.8871 0.52723 0.60764 0.0
H1024 H 0.86503 0.6057 0.5214 0.0
H1025 H 0.88298 0.56691 0.52106 0.0
H1026 H 0.89715 0.50625 0.62738 0.0
H1027 H 0.88024 0.52274 0.56468 0.0
H1028 H 0.85035 0.64462 0.77412 0.0
H1029 H 0.8474 0.66543 0.70845 0.0
H1030 H 0.88018 0.6102 0.81351 0.0
H1031 H 0.8902 0.56827 0.81202 0.0
C1032 C 0.84771 0.84274 0.09364 0.0
C1033 C 0.81468 0.84901 0.11418 0.0
C1034 C 0.83744 0.87776 0.19959 0.0
C1035 C 0.87022 0.87566 0.17527 0.0
N1036 N 0.90619 0.85894 0.09535 0.0
N1037 N 0.77785 0.8768 0.18271 0.0
C1038 C 0.87539 0.85852 0.12155 0.0
C1039 C 0.80949 0.86752 0.16625 0.0
N1040 N 0.85258 0.82146 0.04775 0.0
N1041 N 0.83295 0.88873 0.25554 0.0
H1042 H 0.75647 0.86975 0.16015 0.0
H1043 H 0.77293 0.89389 0.21597 0.0
H1044 H 0.8527 0.89588 0.2819 0.0
H1045 H 0.81022 0.88726 0.27789 0.0
H1046 H 0.87608 0.81316 0.03421 0.0
H1047 H 0.83282 0.80983 0.02632 0.0
H1048 H 0.91064 0.85028 0.05316 0.0
H1049 H 0.92694 0.8703 0.11398 0.0
C1050 C 0.39774 0.56848 0.90477 0.0
C1051 C 0.42333 0.57386 0.86287 0.0
C1052 C 0.41634 0.63418 0.87525 0.0
C1053 C 0.39311 0.62856 0.92152 0.0
N1054 N 0.36878 0.58937 0.98949 0.0
N1055 N 0.46071 0.61143 0.81377 0.0
C1056 C 0.38587 0.59544 0.9389 0.0
C1057 C 0.43389 0.60664 0.84998 0.0
N1058 N 0.38365 0.53776 0.91067 0.0
N1059 N 0.42017 0.66536 0.85292 0.0
H1060 H 0.47356 0.59176 0.79388 0.0
H1061 H 0.47181 0.63454 0.80732 0.0
H1062 H 0.40682 0.68591 0.86828 0.0
H1063 H 0.43413 0.67032 0.81549 0.0
H1064 H 0.36223 0.53339 0.93562 0.0
H1065 H 0.39115 0.51731 0.88598 0.0
H1066 H 0.36625 0.56571 1.00722 0.0
H1067 H 0.36063 0.60804 1.01751 0.0
C1068 C 0.71662 0.15268 0.66902 0.0
C1069 C 0.71289 0.16618 0.61239 0.0
C1070 C 0.65271 0.15362 0.61585 0.0
C1071 C 0.65635 0.14161 0.67352 0.0
N1072 N 0.68976 0.13783 0.76009 0.0
N1073 N 0.67672 0.1856 0.53637 0.0
C1074 C 0.68772 0.14372 0.70165 0.0
C1075 C 0.68065 0.16859 0.58721 0.0
N1076 N 0.74783 0.1467 0.69063 0.0
N1077 N 0.62316 0.14919 0.58734 0.0
H1078 H 0.69667 0.19676 0.5144 0.0
H1079 H 0.65347 0.19109 0.51868 0.0
H1080 H 0.60211 0.13872 0.607 0.0
H1081 H 0.62017 0.15376 0.54308 0.0
H1082 H 0.75197 0.13337 0.72866 0.0
H1083 H 0.76982 0.15233 0.66811 0.0
H1084 H 0.71125 0.14223 0.78429 0.0
H1085 H 0.66892 0.13197 0.78556 0.0
C1086 C 0.13516 0.46038 0.42206 0.0
C1087 C 0.11285 0.45564 0.37514 0.0
C1088 C 0.12152 0.39516 0.38087 0.0
C1089 C 0.14179 0.3998 0.43096 0.0
N1090 N 0.16024 0.43706 0.50759 0.0
N1091 N 0.08016 0.41868 0.31576 0.0
C1092 C 0.1464 0.43247 0.45392 0.0
C1093 C 0.10451 0.42302 0.3565 0.0
N1094 N 0.1468 0.4915 0.43505 0.0
N1095 N 0.12001 0.36471 0.35436 0.0
H1096 H 0.06758 0.43858 0.29683 0.0
H1097 H 0.07045 0.39552 0.30456 0.0
H1098 H 0.13274 0.34392 0.36951 0.0
H1099 H 0.10862 0.36068 0.31431 0.0
H1100 H 0.16635 0.49578 0.46388 0.0
H1101 H 0.13917 0.51287 0.41338 0.0
H1102 H 0.16071 0.45998 0.52894 0.0
H1103 H 0.1675 0.41759 0.53411 0.0
C1104 C 0.6543 0.61212 0.44001 0.0
C1105 C 0.65246 0.61161 0.37809 0.0
C1106 C 0.7054 0.64291 0.37296 0.0
C1107 C 0.70901 0.63964 0.43415 0.0
N1108 N 0.68855 0.61903 0.52604 0.0
N1109 N 0.67782 0.62506 0.28482 0.0
C1110 C 0.68392 0.62362 0.46768 0.0
C1111 C 0.67819 0.62702 0.34432 0.0
N1112 N 0.62701 0.60322 0.47261 0.0
N1113 N 0.72807 0.66135 0.34202 0.0
H1114 H 0.65806 0.61551 0.26103 0.0
H1115 H 0.69814 0.63123 0.25841 0.0
H1116 H 0.74966 0.67135 0.36022 0.0
H1117 H 0.72447 0.6687 0.29911 0.0
H1118 H 0.62546 0.60628 0.51762 0.0
H1119 H 0.60439 0.59599 0.45427 0.0
H1120 H 0.67336 0.60385 0.55154 0.0
H1121 H 0.70898 0.62868 0.54849 0.0
C1122 C 0.12272 0.92783 0.69203 0.0
C1123 C 0.13896 0.95902 0.69343 0.0
C1124 C 0.17861 0.93943 0.61902 0.0
C1125 C 0.15844 0.91076 0.60986 0.0
N1126 N 0.10753 0.88067 0.63244 0.0
N1127 N 0.18038 0.99631 0.65336 0.0
C1128 C 0.12967 0.90545 0.64548 0.0
C1129 C 0.16662 0.96526 0.65606 0.0
N1130 N 0.10014 0.91999 0.73474 0.0
N1131 N 0.2096 0.94181 0.59389 0.0
H1132 H 0.17282 0.01596 0.68017 0.0
H1133 H 0.19766 1.00321 0.62145 0.0
H1134 H 0.21992 0.92343 0.56726 0.0
H1135 H 0.22653 0.96055 0.60434 0.0
H1136 H 0.08961 0.89644 0.73898 0.0
H1137 H 0.09471 0.93613 0.76935 0.0
H1138 H 0.08462 0.87792 0.65379 0.0
H1139 H 0.11006 0.86509 0.59625 0.0
C1140 C 0.84785 0.34514 0.94493 0.0
C1141 C 0.81827 0.36418 0.95322 0.0
C1142 C 0.8433 0.40972 0.89764 0.0
C1143 C 0.8695 0.38818 0.87976 0.0
N1144 N 0.89794 0.33561 0.88652 0.0
N1145 N 0.78663 0.41419 0.93442 0.0
C1146 C 0.87243 0.35606 0.90414 0.0
C1147 C 0.81585 0.39666 0.92969 0.0
N1148 N 0.85223 0.31669 0.97619 0.0
N1149 N 0.84479 0.44268 0.88413 0.0
H1150 H 0.76577 0.40571 0.9574 0.0
H1151 H 0.78216 0.43613 0.91193 0.0
H1152 H 0.86516 0.45295 0.86218 0.0
H1153 H 0.82792 0.46028 0.90025 0.0
H1154 H 0.87433 0.30299 0.97588 0.0
H1155 H 0.83463 0.30849 1.00672 0.0
H1156 H 0.89936 0.31056 0.89731 0.0
H1157 H 0.91703 0.34346 0.85855 0.0
C1158 C 0.37842 0.09327 0.19135 0.0
C1159 C 0.39815 0.06714 0.16777 0.0
C1160 C 0.4 0.0953 0.07373 0.0
C1161 C 0.3762 0.11892 0.09431 0.0
N1162 N 0.34017 0.13848 0.17296 0.0
N1163 N 0.42348 0.04032 0.08396 0.0
C1164 C 0.36487 0.11763 0.1534 0.0
C1165 C 0.40773 0.0673 0.10822 0.0
N1166 N 0.37318 0.09514 0.25022 0.0
N1167 N 0.41674 0.10056 0.02256 0.0
H1168 H 0.42976 0.01918 0.1076 0.0
H1169 H 0.4276 0.03771 0.03927 0.0
H1170 H 0.41344 0.12196 0.99812 0.0
H1171 H 0.43669 0.08587 1.00822 0.0
H1172 H 0.36229 0.1156 0.27094 0.0
H1173 H 0.38235 0.07743 0.27904 0.0
H1174 H 0.32809 0.13568 0.21299 0.0
H1175 H 0.32984 0.15727 0.14806 0.0
C1176 C 0.31863 0.37969 0.67477 0.0
C1177 C 0.32289 0.3569 0.62788 0.0
C1178 C 0.38359 0.36735 0.62907 0.0
C1179 C 0.37942 0.38805 0.67905 0.0
N1180 N 0.34347 0.40544 0.75898 0.0
N1181 N 0.36005 0.32392 0.5679 0.0
C1182 C 0.3471 0.39166 0.70474 0.0
C1183 C 0.35563 0.34911 0.6074 0.0
N1184 N 0.28751 0.39143 0.68913 0.0
N1185 N 0.41363 0.3664 0.60031 0.0
H1186 H 0.34016 0.31 0.55163 0.0
H1187 H 0.38349 0.31487 0.55554 0.0
H1188 H 0.43444 0.37989 0.61375 0.0
H1189 H 0.41707 0.35461 0.56019 0.0
H1190 H 0.28362 0.41092 0.71854 0.0
H1191 H 0.26582 0.38421 0.66765 0.0
H1192 H 0.32089 0.40534 0.78201 0.0
H1193 H 0.36354 0.4135 0.78382 0.0
C1194 C 0.92959 0.10941 0.43373 0.0
C1195 C 0.9049 0.12953 0.40765 0.0
C1196 C 0.90909 0.09504 0.31923 0.0
C1197 C 0.92685 0.07061 0.35106 0.0
N1198 N 0.95217 0.05397 0.44184 0.0
N1199 N 0.87399 0.14426 0.3222 0.0
C1200 C 0.93723 0.07783 0.40886 0.0
C1201 C 0.89563 0.12322 0.34912 0.0
N1202 N 0.94615 0.12054 0.48165 0.0
N1203 N 0.9058 0.0915 0.2603 0.0
H1204 H 0.86718 0.16702 0.34059 0.0
H1205 H 0.86261 0.13898 0.28257 0.0
H1206 H 0.91646 0.07168 0.2372 0.0
H1207 H 0.89547 0.10962 0.23369 0.0
H1208 H 0.96704 0.10841 0.4982 0.0
H1209 H 0.94182 0.14392 0.49973 0.0
H1210 H 0.95696 0.05715 0.48607 0.0
H1211 H 0.95711 0.02999 0.42677 0.0
C1212 C 0.15768 0.6745 0.17418 0.0
C1213 C 0.15163 0.63959 0.16886 0.0
C1214 C 0.20425 0.63363 0.11445 0.0
C1215 C 0.2088 0.66859 0.1143 0.0
N1216 N 0.18512 0.72284 0.13256 0.0
N1217 N 0.16324 0.58999 0.11198 0.0
C1218 C 0.18405 0.68925 0.14066 0.0
C1219 C 0.1731 0.62039 0.13228 0.0
N1220 N 0.13963 0.69358 0.21251 0.0
N1221 N 0.22995 0.61273 0.09967 0.0
H1222 H 0.13917 0.58076 0.11866 0.0
H1223 H 0.17734 0.5763 0.08182 0.0
H1224 H 0.25402 0.62111 0.09001 0.0
H1225 H 0.2282 0.58699 0.10386 0.0
H1226 H 0.14556 0.71825 0.22179 0.0
H1227 H 0.1209 0.68442 0.23954 0.0
H1228 H 0.16587 0.73877 0.14557 0.0
H1229 H 0.20368 0.73436 0.10772 0.0
C1230 C 0.59408 0.92137 0.84287 0.0
C1231 C 0.60073 0.95406 0.86276 0.0
C1232 C 0.63211 0.93178 0.94533 0.0
C1233 C 0.62926 0.89917 0.92128 0.0
N1234 N 0.6105 0.86336 0.84324 0.0
N1235 N 0.62666 0.99124 0.93149 0.0
C1236 C 0.61054 0.89394 0.86949 0.0
C1237 C 0.61965 0.95944 0.91394 0.0
N1238 N 0.57222 0.91668 0.79813 0.0
N1239 N 0.64591 0.93632 0.99913 0.0
H1240 H 0.61596 0.01215 0.91246 0.0
H1241 H 0.64437 0.99715 0.96287 0.0
H1242 H 0.655 0.91694 0.02423 0.0
H1243 H 0.64527 0.95875 0.02192 0.0
H1244 H 0.56354 0.89343 0.78514 0.0
H1245 H 0.56042 0.9364 0.77723 0.0
H1246 H 0.60057 0.85883 0.80218 0.0
H1247 H 0.62293 0.84285 0.86004 0.0
loop_
_geom_bond_atom_site_label_1
_geom_bond_atom_site_label_2
_geom_bond_distance
_geom_bond_site_symmetry_2
_ccdc_geom_bond_type
Co0 N4 2.148 . S
Co0 N10 2.128 1_554 S
Co0 N20 2.194 1_554 S
Co0 O25 2.351 1_554 S
Co0 O26 2.155 . S
Co0 O27 2.096 . S
C1 N4 1.301 . S
C1 N5 1.328 . S
C1 H6 0.930 . S
C2 C3 1.333 . S
C2 N4 1.317 . S
C2 H7 0.930 . S
C3 C2 1.333 . S
C3 N5 1.350 . S
C3 H29 0.931 . S
N4 Co0 2.148 . S
N4 C1 1.301 . S
N4 C2 1.317 . S
N5 C1 1.328 . S
N5 C3 1.350 . S
H6 C1 0.930 . S
H7 C2 0.930 . S
C8 O9 1.224 . S
C8 O27 1.247 . S
O9 C8 1.224 . S
N10 Co0 2.128 1_556 S
N10 C11 1.355 . S
N10 C13 1.311 . S
C11 N10 1.355 . S
C11 C12 1.363 . S
C11 H23 0.929 . S
C12 C11 1.363 . S
C12 N14 1.375 . S
C12 H30 0.931 . S
C13 N10 1.311 . S
C13 N14 1.347 . S
C13 H24 0.929 . S
N14 C12 1.375 . S
N14 C13 1.347 . S
C15 C18 1.365 . S
C15 N20 1.328 . S
C15 H21 0.929 . S
C16 C17 1.362 . S
C16 C19 1.378 . S
C16 H31 0.929 . S
C17 C16 1.362 . S
C17 C18 1.366 . S
C18 C15 1.365 . S
C18 C17 1.366 . S
C18 H32 0.930 . S
C19 C16 1.378 . S
C19 N20 1.315 . S
C19 H22 0.930 1_556 S
N20 Co0 2.194 1_556 S
N20 C15 1.328 . S
N20 C19 1.315 . S
H21 C15 0.929 . S
H22 C19 0.930 1_554 S
H23 C11 0.929 . S
H24 C13 0.929 . S
O25 Co0 2.351 1_556 S
O25 C28 1.244 . S
O26 Co0 2.155 . S
O26 C28 1.240 1_554 S
O27 Co0 2.096 . S
O27 C8 1.247 . S
C28 O25 1.244 . S
C28 O26 1.240 1_556 S
H29 C3 0.931 . S
H30 C12 0.931 . S
H31 C16 0.929 . S
H32 C18 0.930 . S
Co33 N37 2.148 . S
Co33 N43 2.128 . S
Co33 N53 2.194 . S
Co33 O58 2.351 . S
Co33 O59 2.155 . S
Co33 O60 2.096 . S
C34 N37 1.301 . S
C34 N38 1.328 . S
C34 H39 0.930 . S
C35 C36 1.333 . S
C35 N37 1.317 . S
C35 H40 0.930 . S
C36 C35 1.333 . S
C36 N38 1.350 . S
C36 H62 0.931 . S
N37 Co33 2.148 . S
N37 C34 1.301 . S
N37 C35 1.317 . S
N38 C34 1.328 . S
N38 C36 1.350 . S
H39 C34 0.930 . S
H40 C35 0.930 . S
C41 O42 1.224 . S
C41 O60 1.247 . S
O42 C41 1.224 . S
N43 Co33 2.128 . S
N43 C44 1.355 . S
N43 C46 1.311 . S
C44 N43 1.355 . S
C44 C45 1.363 . S
C44 H56 0.929 . S
C45 C44 1.363 . S
C45 N47 1.375 . S
C45 H63 0.931 . S
C46 N43 1.311 . S
C46 N47 1.347 . S
C46 H57 0.929 . S
N47 C45 1.375 . S
N47 C46 1.347 . S
C48 C51 1.365 . S
C48 N53 1.328 . S
C48 H54 0.929 . S
C49 C50 1.362 . S
C49 C52 1.378 . S
C49 H64 0.929 . S
C50 C49 1.362 . S
C50 C51 1.366 . S
C51 C48 1.365 . S
C51 C50 1.366 . S
C51 H65 0.930 . S
C52 C49 1.378 . S
C52 N53 1.315 . S
C52 H55 0.930 . S
N53 Co33 2.194 . S
N53 C48 1.328 . S
N53 C52 1.315 . S
H54 C48 0.929 . S
H55 C52 0.930 . S
H56 C44 0.929 . S
H57 C46 0.929 . S
O58 Co33 2.351 . S
O58 C61 1.244 . S
O59 Co33 2.155 . S
O59 C61 1.240 . S
O60 Co33 2.096 . S
O60 C41 1.247 . S
C61 O58 1.244 . S
C61 O59 1.240 . S
H62 C36 0.931 . S
H63 C45 0.931 . S
H64 C49 0.929 . S
H65 C51 0.930 . S
Co66 N70 2.148 . S
Co66 N76 2.128 . S
Co66 N86 2.194 . S
Co66 O91 2.351 . S
Co66 O92 2.155 . S
Co66 O93 2.096 . S
C67 N70 1.301 . S
C67 N71 1.328 . S
C67 H72 0.930 . S
C68 C69 1.333 . S
C68 N70 1.317 . S
C68 H73 0.930 . S
C69 C68 1.333 . S
C69 N71 1.350 . S
C69 H95 0.931 . S
N70 Co66 2.148 . S
N70 C67 1.301 . S
N70 C68 1.317 . S
N71 C67 1.328 . S
N71 C69 1.350 . S
H72 C67 0.930 . S
H73 C68 0.930 . S
C74 O75 1.224 . S
C74 O93 1.247 . S
O75 C74 1.224 . S
N76 Co66 2.128 . S
N76 C77 1.355 . S
N76 C79 1.311 . S
C77 N76 1.355 . S
C77 C78 1.363 . S
C77 H89 0.929 . S
C78 C77 1.363 . S
C78 N80 1.375 . S
C78 H96 0.931 . S
C79 N76 1.311 . S
C79 N80 1.347 . S
C79 H90 0.929 . S
N80 C78 1.375 . S
N80 C79 1.347 . S
C81 C84 1.365 . S
C81 N86 1.328 . S
C81 H87 0.929 . S
C82 C83 1.362 . S
C82 C85 1.378 . S
C82 H97 0.929 . S
C83 C82 1.362 . S
C83 C84 1.366 . S
C84 C81 1.365 . S
C84 C83 1.366 . S
C84 H98 0.930 . S
C85 C82 1.378 . S
C85 N86 1.315 . S
C85 H88 0.930 . S
N86 Co66 2.194 . S
N86 C81 1.328 . S
N86 C85 1.315 . S
H87 C81 0.929 . S
H88 C85 0.930 . S
H89 C77 0.929 . S
H90 C79 0.929 . S
O91 Co66 2.351 . S
O91 C94 1.244 . S
O92 Co66 2.155 . S
O92 C94 1.240 . S
O93 Co66 2.096 . S
O93 C74 1.247 . S
C94 O91 1.244 . S
C94 O92 1.240 . S
H95 C69 0.931 . S
H96 C78 0.931 . S
H97 C82 0.929 . S
H98 C84 0.930 . S
Co99 N103 2.148 . S
Co99 N109 2.128 . S
Co99 N119 2.194 . S
Co99 O124 2.351 . S
Co99 O125 2.155 . S
Co99 O126 2.096 . S
C100 N103 1.301 . S
C100 N104 1.328 . S
C100 H105 0.930 . S
C101 C102 1.333 . S
C101 N103 1.317 . S
C101 H106 0.930 . S
C102 C101 1.333 . S
C102 N104 1.350 . S
C102 H128 0.931 . S
N103 Co99 2.148 . S
N103 C100 1.301 . S
N103 C101 1.317 . S
N104 C100 1.328 . S
N104 C102 1.350 . S
H105 C100 0.930 . S
H106 C101 0.930 . S
C107 O108 1.224 . S
C107 O126 1.247 . S
O108 C107 1.224 . S
N109 Co99 2.128 . S
N109 C110 1.355 . S
N109 C112 1.311 . S
C110 N109 1.355 . S
C110 C111 1.363 . S
C110 H122 0.929 . S
C111 C110 1.363 . S
C111 N113 1.375 . S
C111 H129 0.931 . S
C112 N109 1.311 . S
C112 N113 1.347 . S
C112 H123 0.929 . S
N113 C111 1.375 . S
N113 C112 1.347 . S
C114 C117 1.365 . S
C114 N119 1.328 . S
C114 H120 0.929 . S
C115 C116 1.362 . S
C115 C118 1.378 . S
C115 H130 0.929 . S
C116 C115 1.362 . S
C116 C117 1.366 . S
C117 C114 1.365 . S
C117 C116 1.366 . S
C117 H131 0.930 . S
C118 C115 1.378 . S
C118 N119 1.315 . S
C118 H121 0.930 . S
N119 Co99 2.194 . S
N119 C114 1.328 . S
N119 C118 1.315 . S
H120 C114 0.929 . S
H121 C118 0.930 . S
H122 C110 0.929 . S
H123 C112 0.929 . S
O124 Co99 2.351 . S
O124 C127 1.244 1_655 S
O125 Co99 2.155 . S
O125 C127 1.240 1_655 S
O126 Co99 2.096 . S
O126 C107 1.247 . S
C127 O124 1.244 1_455 S
C127 O125 1.240 1_455 S
H128 C102 0.931 . S
H129 C111 0.931 . S
H130 C115 0.929 . S
H131 C117 0.930 . S
Co132 N136 2.148 . S
Co132 N142 2.128 1_556 S
Co132 N152 2.194 1_556 S
Co132 O157 2.351 . S
Co132 O158 2.155 . S
Co132 O159 2.096 . S
C133 N136 1.301 . S
C133 N137 1.328 . S
C133 H138 0.930 . S
C134 C135 1.333 . S
C134 N136 1.317 . S
C134 H139 0.930 . S
C135 C134 1.333 . S
C135 N137 1.350 . S
C135 H161 0.931 . S
N136 Co132 2.148 . S
N136 C133 1.301 . S
N136 C134 1.317 . S
N137 C133 1.328 . S
N137 C135 1.350 . S
H138 C133 0.930 . S
H139 C134 0.930 . S
C140 O141 1.224 . S
C140 O159 1.247 1_554 S
O141 C140 1.224 . S
N142 Co132 2.128 1_554 S
N142 C143 1.355 . S
N142 C145 1.311 . S
C143 N142 1.355 . S
C143 C144 1.363 . S
C143 H155 0.929 . S
C144 C143 1.363 . S
C144 N146 1.375 . S
C144 H162 0.931 . S
C145 N142 1.311 . S
C145 N146 1.347 . S
C145 H156 0.929 . S
N146 C144 1.375 . S
N146 C145 1.347 . S
C147 C150 1.365 . S
C147 N152 1.328 . S
C147 H153 0.929 1_554 S
C148 C149 1.362 . S
C148 C151 1.378 . S
C148 H163 0.929 . S
C149 C148 1.362 . S
C149 C150 1.366 . S
C150 C147 1.365 . S
C150 C149 1.366 . S
C150 H164 0.930 . S
C151 C148 1.378 . S
C151 N152 1.315 . S
C151 H154 0.930 . S
N152 Co132 2.194 1_554 S
N152 C147 1.328 . S
N152 C151 1.315 . S
H153 C147 0.929 1_556 S
H154 C151 0.930 . S
H155 C143 0.929 . S
H156 C145 0.929 . S
O157 Co132 2.351 . S
O157 C160 1.244 . S
O158 Co132 2.155 . S
O158 C160 1.240 . S
O159 Co132 2.096 . S
O159 C140 1.247 1_556 S
C160 O157 1.244 . S
C160 O158 1.240 . S
H161 C135 0.931 . S
H162 C144 0.931 . S
H163 C148 0.929 . S
H164 C150 0.930 . S
Co165 N169 2.148 . S
Co165 N175 2.128 . S
Co165 N185 2.194 . S
Co165 O190 2.351 . S
Co165 O191 2.155 . S
Co165 O192 2.096 . S
C166 N169 1.301 . S
C166 N170 1.328 . S
C166 H171 0.930 . S
C167 C168 1.333 . S
C167 N169 1.317 . S
C167 H172 0.930 . S
C168 C167 1.333 . S
C168 N170 1.350 . S
C168 H194 0.931 . S
N169 Co165 2.148 . S
N169 C166 1.301 . S
N169 C167 1.317 . S
N170 C166 1.328 . S
N170 C168 1.350 . S
H171 C166 0.930 . S
H172 C167 0.930 . S
C173 O174 1.224 . S
C173 O192 1.247 . S
O174 C173 1.224 . S
N175 Co165 2.128 . S
N175 C176 1.355 . S
N175 C178 1.311 . S
C176 N175 1.355 . S
C176 C177 1.363 . S
C176 H188 0.929 . S
C177 C176 1.363 . S
C177 N179 1.375 . S
C177 H195 0.931 . S
C178 N175 1.311 . S
C178 N179 1.347 . S
C178 H189 0.929 . S
N179 C177 1.375 . S
N179 C178 1.347 . S
C180 C183 1.365 . S
C180 N185 1.328 . S
C180 H186 0.929 . S
C181 C182 1.362 . S
C181 C184 1.378 . S
C181 H196 0.929 . S
C182 C181 1.362 . S
C182 C183 1.366 . S
C183 C180 1.365 . S
C183 C182 1.366 . S
C183 H197 0.930 . S
C184 C181 1.378 . S
C184 N185 1.315 . S
C184 H187 0.930 . S
N185 Co165 2.194 . S
N185 C180 1.328 . S
N185 C184 1.315 . S
H186 C180 0.929 . S
H187 C184 0.930 . S
H188 C176 0.929 . S
H189 C178 0.929 . S
O190 Co165 2.351 . S
O190 C193 1.244 . S
O191 Co165 2.155 . S
O191 C193 1.240 . S
O192 Co165 2.096 . S
O192 C173 1.247 . S
C193 O190 1.244 . S
C193 O191 1.240 . S
H194 C168 0.931 . S
H195 C177 0.931 . S
H196 C181 0.929 . S
H197 C183 0.930 . S
Co198 N202 2.148 . S
Co198 N208 2.128 . S
Co198 N218 2.194 . S
Co198 O223 2.351 . S
Co198 O224 2.155 . S
Co198 O225 2.096 . S
C199 N202 1.301 . S
C199 N203 1.328 . S
C199 H204 0.930 . S
C200 C201 1.333 . S
C200 N202 1.317 . S
C200 H205 0.930 . S
C201 C200 1.333 . S
C201 N203 1.350 . S
C201 H227 0.931 . S
N202 Co198 2.148 . S
N202 C199 1.301 . S
N202 C200 1.317 . S
N203 C199 1.328 . S
N203 C201 1.350 . S
H204 C199 0.930 . S
H205 C200 0.930 . S
C206 O207 1.224 . S
C206 O225 1.247 . S
O207 C206 1.224 . S
N208 Co198 2.128 . S
N208 C209 1.355 . S
N208 C211 1.311 . S
C209 N208 1.355 . S
C209 C210 1.363 . S
C209 H221 0.929 . S
C210 C209 1.363 . S
C210 N212 1.375 . S
C210 H228 0.931 . S
C211 N208 1.311 . S
C211 N212 1.347 . S
C211 H222 0.929 . S
N212 C210 1.375 . S
N212 C211 1.347 . S
C213 C216 1.365 . S
C213 N218 1.328 . S
C213 H219 0.929 . S
C214 C215 1.362 . S
C214 C217 1.378 . S
C214 H229 0.929 . S
C215 C214 1.362 . S
C215 C216 1.366 . S
C216 C213 1.365 . S
C216 C215 1.366 . S
C216 H230 0.930 . S
C217 C214 1.378 . S
C217 N218 1.315 . S
C217 H220 0.930 . S
N218 Co198 2.194 . S
N218 C213 1.328 . S
N218 C217 1.315 . S
H219 C213 0.929 . S
H220 C217 0.930 . S
H221 C209 0.929 . S
H222 C211 0.929 . S
O223 Co198 2.351 . S
O223 C226 1.244 . S
O224 Co198 2.155 . S
O224 C226 1.240 . S
O225 Co198 2.096 . S
O225 C206 1.247 . S
C226 O223 1.244 . S
C226 O224 1.240 . S
H227 C201 0.931 . S
H228 C210 0.931 . S
H229 C214 0.929 . S
H230 C216 0.930 . S
Co231 N235 2.148 . S
Co231 N241 2.128 . S
Co231 N251 2.194 . S
Co231 O256 2.351 . S
Co231 O257 2.155 . S
Co231 O258 2.096 . S
C232 N235 1.301 . S
C232 N236 1.328 . S
C232 H237 0.930 . S
C233 C234 1.333 . S
C233 N235 1.317 . S
C233 H238 0.930 . S
C234 C233 1.333 . S
C234 N236 1.350 . S
C234 H260 0.931 1_455 S
N235 Co231 2.148 . S
N235 C232 1.301 . S
N235 C233 1.317 . S
N236 C232 1.328 . S
N236 C234 1.350 . S
H237 C232 0.930 . S
H238 C233 0.930 . S
C239 O240 1.224 . S
C239 O258 1.247 . S
O240 C239 1.224 . S
N241 Co231 2.128 . S
N241 C242 1.355 . S
N241 C244 1.311 . S
C242 N241 1.355 . S
C242 C243 1.363 . S
C242 H254 0.929 . S
C243 C242 1.363 . S
C243 N245 1.375 . S
C243 H261 0.931 . S
C244 N241 1.311 . S
C244 N245 1.347 . S
C244 H255 0.929 . S
N245 C243 1.375 . S
N245 C244 1.347 . S
C246 C249 1.365 . S
C246 N251 1.328 . S
C246 H252 0.929 . S
C247 C248 1.362 . S
C247 C250 1.378 . S
C247 H262 0.929 . S
C248 C247 1.362 . S
C248 C249 1.366 . S
C249 C246 1.365 . S
C249 C248 1.366 . S
C249 H263 0.930 . S
C250 C247 1.378 . S
C250 N251 1.315 . S
C250 H253 0.930 . S
N251 Co231 2.194 . S
N251 C246 1.328 . S
N251 C250 1.315 . S
H252 C246 0.929 . S
H253 C250 0.930 . S
H254 C242 0.929 . S
H255 C244 0.929 . S
O256 Co231 2.351 . S
O256 C259 1.244 . S
O257 Co231 2.155 . S
O257 C259 1.240 . S
O258 Co231 2.096 . S
O258 C239 1.247 . S
C259 O256 1.244 . S
C259 O257 1.240 . S
H260 C234 0.931 1_655 S
H261 C243 0.931 . S
H262 C247 0.929 . S
H263 C249 0.930 . S
Co264 N268 2.148 . S
Co264 N274 2.128 . S
Co264 N284 2.194 . S
Co264 O289 2.351 . S
Co264 O290 2.155 . S
Co264 O291 2.096 . S
C265 N268 1.301 . S
C265 N269 1.328 . S
C265 H270 0.930 . S
C266 C267 1.333 . S
C266 N268 1.317 . S
C266 H271 0.930 . S
C267 C266 1.333 . S
C267 N269 1.350 . S
C267 H293 0.931 . S
N268 Co264 2.148 . S
N268 C265 1.301 . S
N268 C266 1.317 . S
N269 C265 1.328 . S
N269 C267 1.350 . S
H270 C265 0.930 . S
H271 C266 0.930 . S
C272 O273 1.224 . S
C272 O291 1.247 . S
O273 C272 1.224 . S
N274 Co264 2.128 . S
N274 C275 1.355 . S
N274 C277 1.311 . S
C275 N274 1.355 . S
C275 C276 1.363 . S
C275 H287 0.929 . S
C276 C275 1.363 . S
C276 N278 1.375 . S
C276 H294 0.931 . S
C277 N274 1.311 . S
C277 N278 1.347 . S
C277 H288 0.929 . S
N278 C276 1.375 . S
N278 C277 1.347 . S
C279 C282 1.365 . S
C279 N284 1.328 . S
C279 H285 0.929 . S
C280 C281 1.362 . S
C280 C283 1.378 . S
C280 H295 0.929 . S
C281 C280 1.362 . S
C281 C282 1.366 . S
C282 C279 1.365 . S
C282 C281 1.366 . S
C282 H296 0.930 . S
C283 C280 1.378 . S
C283 N284 1.315 . S
C283 H286 0.930 . S
N284 Co264 2.194 . S
N284 C279 1.328 . S
N284 C283 1.315 . S
H285 C279 0.929 . S
H286 C283 0.930 . S
H287 C275 0.929 . S
H288 C277 0.929 . S
O289 Co264 2.351 . S
O289 C292 1.244 . S
O290 Co264 2.155 . S
O290 C292 1.240 . S
O291 Co264 2.096 . S
O291 C272 1.247 . S
C292 O289 1.244 . S
C292 O290 1.240 . S
H293 C267 0.931 . S
H294 C276 0.931 . S
H295 C280 0.929 . S
H296 C282 0.930 . S
Co297 N301 2.148 . S
Co297 N307 2.128 . S
Co297 N317 2.194 . S
Co297 O322 2.351 . S
Co297 O323 2.155 . S
Co297 O324 2.096 . S
C298 N301 1.301 . S
C298 N302 1.328 . S
C298 H303 0.930 . S
C299 C300 1.333 . S
C299 N301 1.317 . S
C299 H304 0.930 . S
C300 C299 1.333 . S
C300 N302 1.350 . S
C300 H326 0.931 . S
N301 Co297 2.148 . S
N301 C298 1.301 . S
N301 C299 1.317 . S
N302 C298 1.328 . S
N302 C300 1.350 . S
H303 C298 0.930 . S
H304 C299 0.930 . S
C305 O306 1.224 . S
C305 O324 1.247 . S
O306 C305 1.224 . S
N307 Co297 2.128 . S
N307 C308 1.355 . S
N307 C310 1.311 . S
C308 N307 1.355 . S
C308 C309 1.363 . S
C308 H320 0.929 . S
C309 C308 1.363 . S
C309 N311 1.375 . S
C309 H327 0.931 . S
C310 N307 1.311 . S
C310 N311 1.347 . S
C310 H321 0.929 . S
N311 C309 1.375 . S
N311 C310 1.347 . S
C312 C315 1.349 1_545 S
C312 N317 1.328 . S
C312 H318 0.929 . S
C313 C314 1.362 1_545 S
C313 C316 1.378 . S
C313 H328 0.929 . S
C314 C313 1.362 1_565 S
C314 C315 1.372 . S
C315 C312 1.349 1_565 S
C315 C314 1.372 . S
C315 H329 0.941 . S
C316 C313 1.378 . S
C316 N317 1.315 . S
C316 H319 0.930 . S
N317 Co297 2.194 . S
N317 C312 1.328 . S
N317 C316 1.315 . S
H318 C312 0.929 . S
H319 C316 0.930 . S
H320 C308 0.929 . S
H321 C310 0.929 . S
O322 Co297 2.351 . S
O322 C325 1.244 1_455 S
O323 Co297 2.155 . S
O323 C325 1.240 1_455 S
O324 Co297 2.096 . S
O324 C305 1.247 . S
C325 O322 1.244 1_655 S
C325 O323 1.240 1_655 S
H326 C300 0.931 . S
H327 C309 0.931 . S
H328 C313 0.929 . S
H329 C315 0.941 . S
Co330 N334 2.148 . S
Co330 N340 2.128 1_554 S
Co330 N350 2.194 1_554 S
Co330 O355 2.351 1_554 S
Co330 O356 2.155 . S
Co330 O357 2.096 . S
C331 N334 1.301 . S
C331 N335 1.328 . S
C331 H336 0.930 . S
C332 C333 1.333 . S
C332 N334 1.317 . S
C332 H337 0.930 . S
C333 C332 1.333 . S
C333 N335 1.350 . S
C333 H359 0.931 . S
N334 Co330 2.148 . S
N334 C331 1.301 . S
N334 C332 1.317 . S
N335 C331 1.328 . S
N335 C333 1.350 . S
H336 C331 0.930 . S
H337 C332 0.930 . S
C338 O339 1.224 . S
C338 O357 1.247 . S
O339 C338 1.224 . S
N340 Co330 2.128 1_556 S
N340 C341 1.355 . S
N340 C343 1.311 . S
C341 N340 1.355 . S
C341 C342 1.363 . S
C341 H353 0.929 . S
C342 C341 1.363 . S
C342 N344 1.375 . S
C342 H360 0.931 . S
C343 N340 1.311 . S
C343 N344 1.347 . S
C343 H354 0.929 . S
N344 C342 1.375 . S
N344 C343 1.347 . S
C345 C348 1.365 . S
C345 N350 1.328 . S
C345 H351 0.929 . S
C346 C347 1.362 . S
C346 C349 1.378 . S
C346 H361 0.929 . S
C347 C346 1.362 . S
C347 C348 1.366 . S
C348 C345 1.365 . S
C348 C347 1.366 . S
C348 H362 0.930 . S
C349 C346 1.378 . S
C349 N350 1.315 . S
C349 H352 0.930 1_556 S
N350 Co330 2.194 1_556 S
N350 C345 1.328 . S
N350 C349 1.315 . S
H351 C345 0.929 . S
H352 C349 0.930 1_554 S
H353 C341 0.929 . S
H354 C343 0.929 . S
O355 Co330 2.351 1_556 S
O355 C358 1.244 . S
O356 Co330 2.155 . S
O356 C358 1.240 1_554 S
O357 Co330 2.096 . S
O357 C338 1.247 . S
C358 O355 1.244 . S
C358 O356 1.240 1_556 S
H359 C333 0.931 . S
H360 C342 0.931 . S
H361 C346 0.929 . S
H362 C348 0.930 . S
Co363 N367 2.148 . S
Co363 N373 2.128 . S
Co363 N383 2.194 . S
Co363 O388 2.351 . S
Co363 O389 2.155 . S
Co363 O390 2.096 . S
C364 N367 1.301 . S
C364 N368 1.328 . S
C364 H369 0.930 . S
C365 C366 1.333 . S
C365 N367 1.317 . S
C365 H370 0.930 . S
C366 C365 1.333 . S
C366 N368 1.350 . S
C366 H392 0.931 . S
N367 Co363 2.148 . S
N367 C364 1.301 . S
N367 C365 1.317 . S
N368 C364 1.328 . S
N368 C366 1.350 . S
H369 C364 0.930 . S
H370 C365 0.930 . S
C371 O372 1.224 . S
C371 O390 1.247 . S
O372 C371 1.224 . S
N373 Co363 2.128 . S
N373 C374 1.355 . S
N373 C376 1.311 . S
C374 N373 1.355 . S
C374 C375 1.363 . S
C374 H386 0.929 . S
C375 C374 1.363 . S
C375 N377 1.375 . S
C375 H393 0.931 . S
C376 N373 1.311 . S
C376 N377 1.347 . S
C376 H387 0.929 . S
N377 C375 1.375 . S
N377 C376 1.347 . S
C378 C381 1.365 1_565 S
C378 N383 1.328 . S
C378 H384 0.929 . S
C379 C380 1.362 1_565 S
C379 C382 1.378 . S
C379 H394 0.929 . S
C380 C379 1.362 1_545 S
C380 C381 1.366 . S
C381 C378 1.365 1_545 S
C381 C380 1.366 . S
C381 H395 0.930 . S
C382 C379 1.378 . S
C382 N383 1.315 . S
C382 H385 0.930 . S
N383 Co363 2.194 . S
N383 C378 1.328 . S
N383 C382 1.315 . S
H384 C378 0.929 . S
H385 C382 0.930 . S
H386 C374 0.929 . S
H387 C376 0.929 . S
O388 Co363 2.351 . S
O388 C391 1.244 . S
O389 Co363 2.155 . S
O389 C391 1.240 . S
O390 Co363 2.096 . S
O390 C371 1.247 . S
C391 O388 1.244 . S
C391 O389 1.240 . S
H392 C366 0.931 . S
H393 C375 0.931 . S
H394 C379 0.929 . S
H395 C381 0.930 . S
Co396 N400 2.148 . S
Co396 N406 2.128 . S
Co396 N416 2.194 . S
Co396 O421 2.351 . S
Co396 O422 2.155 . S
Co396 O423 2.096 . S
C397 N400 1.301 . S
C397 N401 1.328 . S
C397 H402 0.930 . S
C398 C399 1.333 . S
C398 N400 1.317 . S
C398 H403 0.930 . S
C399 C398 1.333 . S
C399 N401 1.350 . S
C399 H425 0.931 . S
N400 Co396 2.148 . S
N400 C397 1.301 . S
N400 C398 1.317 . S
N401 C397 1.328 . S
N401 C399 1.350 . S
H402 C397 0.930 . S
H403 C398 0.930 . S
C404 O405 1.224 . S
C404 O423 1.247 . S
O405 C404 1.224 . S
N406 Co396 2.128 . S
N406 C407 1.355 . S
N406 C409 1.311 . S
C407 N406 1.355 . S
C407 C408 1.363 . S
C407 H419 0.929 . S
C408 C407 1.363 . S
C408 N410 1.375 . S
C408 H426 0.931 . S
C409 N406 1.311 . S
C409 N410 1.347 . S
C409 H420 0.929 . S
N410 C408 1.375 . S
N410 C409 1.347 . S
C411 C414 1.365 . S
C411 N416 1.328 . S
C411 H417 0.929 . S
C412 C413 1.362 . S
C412 C415 1.378 . S
C412 H427 0.929 . S
C413 C412 1.362 . S
C413 C414 1.366 . S
C414 C411 1.365 . S
C414 C413 1.366 . S
C414 H428 0.930 . S
C415 C412 1.378 . S
C415 N416 1.315 . S
C415 H418 0.930 . S
N416 Co396 2.194 . S
N416 C411 1.328 . S
N416 C415 1.315 . S
H417 C411 0.929 . S
H418 C415 0.930 . S
H419 C407 0.929 . S
H420 C409 0.929 . S
O421 Co396 2.351 . S
O421 C424 1.244 . S
O422 Co396 2.155 . S
O422 C424 1.240 . S
O423 Co396 2.096 . S
O423 C404 1.247 . S
C424 O421 1.244 . S
C424 O422 1.240 . S
H425 C399 0.931 . S
H426 C408 0.931 . S
H427 C412 0.929 . S
H428 C414 0.930 . S
Co429 N433 2.148 . S
Co429 N439 2.128 . S
Co429 N449 2.194 . S
Co429 O454 2.351 . S
Co429 O455 2.155 . S
Co429 O456 2.096 . S
C430 N433 1.301 . S
C430 N434 1.328 . S
C430 H435 0.930 . S
C431 C432 1.333 . S
C431 N433 1.317 . S
C431 H436 0.930 . S
C432 C431 1.333 . S
C432 N434 1.350 . S
C432 H458 0.931 1_655 S
N433 Co429 2.148 . S
N433 C430 1.301 . S
N433 C431 1.317 . S
N434 C430 1.328 . S
N434 C432 1.350 . S
H435 C430 0.930 . S
H436 C431 0.930 . S
C437 O438 1.224 . S
C437 O456 1.247 . S
O438 C437 1.224 . S
N439 Co429 2.128 . S
N439 C440 1.355 . S
N439 C442 1.311 . S
C440 N439 1.355 . S
C440 C441 1.363 . S
C440 H452 0.929 . S
C441 C440 1.363 . S
C441 N443 1.375 . S
C441 H459 0.931 . S
C442 N439 1.311 . S
C442 N443 1.347 . S
C442 H453 0.929 . S
N443 C441 1.375 . S
N443 C442 1.347 . S
C444 C447 1.365 1_565 S
C444 N449 1.328 . S
C444 H450 0.929 . S
C445 C446 1.362 . S
C445 C448 1.378 1_545 S
C445 H460 0.929 . S
C446 C445 1.362 . S
C446 C447 1.366 . S
C447 C444 1.365 1_545 S
C447 C446 1.366 . S
C447 H461 0.930 . S
C448 C445 1.378 1_565 S
C448 N449 1.315 . S
C448 H451 0.930 . S
N449 Co429 2.194 . S
N449 C444 1.328 . S
N449 C448 1.315 . S
H450 C444 0.929 . S
H451 C448 0.930 . S
H452 C440 0.929 . S
H453 C442 0.929 . S
O454 Co429 2.351 . S
O454 C457 1.244 . S
O455 Co429 2.155 . S
O455 C457 1.240 . S
O456 Co429 2.096 . S
O456 C437 1.247 . S
C457 O454 1.244 . S
C457 O455 1.240 . S
H458 C432 0.931 1_455 S
H459 C441 0.931 . S
H460 C445 0.929 . S
H461 C447 0.930 . S
Co462 N466 2.148 . S
Co462 N472 2.128 1_556 S
Co462 N482 2.194 1_556 S
Co462 O487 2.351 . S
Co462 O488 2.155 . S
Co462 O489 2.096 . S
C463 N466 1.301 . S
C463 N467 1.328 . S
C463 H468 0.930 . S
C464 C465 1.333 . S
C464 N466 1.317 . S
C464 H469 0.930 . S
C465 C464 1.333 . S
C465 N467 1.350 . S
C465 H491 0.931 . S
N466 Co462 2.148 . S
N466 C463 1.301 . S
N466 C464 1.317 . S
N467 C463 1.328 . S
N467 C465 1.350 . S
H468 C463 0.930 . S
H469 C464 0.930 . S
C470 O471 1.224 . S
C470 O489 1.247 1_554 S
O471 C470 1.224 . S
N472 Co462 2.128 1_554 S
N472 C473 1.355 . S
N472 C475 1.311 . S
C473 N472 1.355 . S
C473 C474 1.363 . S
C473 H485 0.929 . S
C474 C473 1.363 . S
C474 N476 1.375 . S
C474 H492 0.931 . S
C475 N472 1.311 . S
C475 N476 1.347 . S
C475 H486 0.929 . S
N476 C474 1.375 . S
N476 C475 1.347 . S
C477 C480 1.365 . S
C477 N482 1.328 . S
C477 H483 0.929 1_554 S
C478 C479 1.362 . S
C478 C481 1.378 . S
C478 H493 0.929 . S
C479 C478 1.362 . S
C479 C480 1.366 . S
C480 C477 1.365 . S
C480 C479 1.366 . S
C480 H494 0.930 . S
C481 C478 1.378 . S
C481 N482 1.315 . S
C481 H484 0.930 . S
N482 Co462 2.194 1_554 S
N482 C477 1.328 . S
N482 C481 1.315 . S
H483 C477 0.929 1_556 S
H484 C481 0.930 . S
H485 C473 0.929 . S
H486 C475 0.929 . S
O487 Co462 2.351 . S
O487 C490 1.244 . S
O488 Co462 2.155 . S
O488 C490 1.240 . S
O489 Co462 2.096 . S
O489 C470 1.247 1_556 S
C490 O487 1.244 . S
C490 O488 1.240 . S
H491 C465 0.931 . S
H492 C474 0.931 . S
H493 C478 0.929 . S
H494 C480 0.930 . S
Co495 N499 2.148 . S
Co495 N505 2.128 . S
Co495 N515 2.194 . S
Co495 O520 2.351 . S
Co495 O521 2.155 . S
Co495 O522 2.096 . S
C496 N499 1.301 . S
C496 N500 1.328 . S
C496 H501 0.930 . S
C497 C498 1.333 . S
C497 N499 1.317 . S
C497 H502 0.930 . S
C498 C497 1.333 . S
C498 N500 1.350 . S
C498 H524 0.931 . S
N499 Co495 2.148 . S
N499 C496 1.301 . S
N499 C497 1.317 . S
N500 C496 1.328 . S
N500 C498 1.350 . S
H501 C496 0.930 . S
H502 C497 0.930 . S
C503 O504 1.224 . S
C503 O522 1.247 . S
O504 C503 1.224 . S
N505 Co495 2.128 . S
N505 C506 1.355 . S
N505 C508 1.311 . S
C506 N505 1.355 . S
C506 C507 1.363 . S
C506 H518 0.929 . S
C507 C506 1.363 . S
C507 N509 1.375 . S
C507 H525 0.931 . S
C508 N505 1.311 . S
C508 N509 1.347 . S
C508 H519 0.929 . S
N509 C507 1.375 . S
N509 C508 1.347 . S
C510 C513 1.365 1_545 S
C510 N515 1.328 . S
C510 H516 0.929 . S
C511 C512 1.362 . S
C511 C514 1.378 1_565 S
C511 H526 0.929 . S
C512 C511 1.362 . S
C512 C513 1.366 . S
C513 C510 1.365 1_565 S
C513 C512 1.366 . S
C513 H527 0.930 . S
C514 C511 1.378 1_545 S
C514 N515 1.315 . S
C514 H517 0.930 . S
N515 Co495 2.194 . S
N515 C510 1.328 . S
N515 C514 1.315 . S
H516 C510 0.929 . S
H517 C514 0.930 . S
H518 C506 0.929 . S
H519 C508 0.929 . S
O520 Co495 2.351 . S
O520 C523 1.244 . S
O521 Co495 2.155 . S
O521 C523 1.240 . S
O522 Co495 2.096 . S
O522 C503 1.247 . S
C523 O520 1.244 . S
C523 O521 1.240 . S
H524 C498 0.931 . S
H525 C507 0.931 . S
H526 C511 0.929 . S
H527 C513 0.930 . S
C528 C529 1.363 . S
C528 C534 1.379 . S
C528 N536 1.356 . S
C529 C528 1.363 . S
C529 C535 1.363 . S
C530 C531 1.363 . S
C530 C535 1.379 . S
C530 N537 1.356 . S
C531 C530 1.363 . S
C531 C534 1.363 . S
N532 C534 1.356 . S
N532 H544 0.984 . S
N532 H545 0.985 . S
N533 C535 1.356 . S
N533 H538 0.984 . S
N533 H539 0.985 . S
C534 C528 1.379 . S
C534 C531 1.363 . S
C534 N532 1.356 . S
C535 C529 1.363 . S
C535 C530 1.379 . S
C535 N533 1.356 . S
N536 C528 1.356 . S
N536 H542 0.984 . S
N536 H543 0.984 . S
N537 C530 1.356 . S
N537 H540 0.984 . S
N537 H541 0.985 . S
H538 N533 0.984 . S
H539 N533 0.985 . S
H540 N537 0.984 . S
H541 N537 0.985 . S
H542 N536 0.984 . S
H543 N536 0.984 . S
H544 N532 0.984 . S
H545 N532 0.985 . S
C546 C547 1.363 . S
C546 C552 1.379 . S
C546 N554 1.356 . S
C547 C546 1.363 . S
C547 C553 1.363 . S
C548 C549 1.363 . S
C548 C553 1.379 . S
C548 N555 1.356 . S
C549 C548 1.363 . S
C549 C552 1.363 . S
N550 C552 1.356 . S
N550 H562 0.984 1_554 S
N550 H563 0.985 1_554 S
N551 C553 1.356 . S
N551 H556 0.984 . S
N551 H557 0.985 . S
C552 C546 1.379 . S
C552 C549 1.363 . S
C552 N550 1.356 . S
C553 C547 1.363 . S
C553 C548 1.379 . S
C553 N551 1.356 . S
N554 C546 1.356 . S
N554 H560 0.984 . S
N554 H561 0.984 . S
N555 C548 1.356 . S
N555 H558 0.984 . S
N555 H559 0.985 . S
H556 N551 0.984 . S
H557 N551 0.985 . S
H558 N555 0.984 . S
H559 N555 0.985 . S
H560 N554 0.984 . S
H561 N554 0.984 . S
H562 N550 0.984 1_556 S
H563 N550 0.985 1_556 S
C564 C565 1.363 . S
C564 C570 1.379 . S
C564 N572 1.356 . S
C565 C564 1.363 . S
C565 C571 1.363 . S
C566 C567 1.363 . S
C566 C571 1.379 . S
C566 N573 1.356 . S
C567 C566 1.363 . S
C567 C570 1.363 . S
N568 C570 1.356 . S
N568 H580 0.984 . S
N568 H581 0.985 1_455 S
N569 C571 1.356 . S
N569 H574 0.984 . S
N569 H575 0.985 . S
C570 C564 1.379 . S
C570 C567 1.363 . S
C570 N568 1.356 . S
C571 C565 1.363 . S
C571 C566 1.379 . S
C571 N569 1.356 . S
N572 C564 1.356 . S
N572 H578 0.984 . S
N572 H579 0.984 . S
N573 C566 1.356 . S
N573 H576 0.985 1_455 S
N573 H577 0.984 . S
H574 N569 0.984 . S
H575 N569 0.985 . S
H576 N573 0.985 1_655 S
H577 N573 0.984 . S
H578 N572 0.984 . S
H579 N572 0.984 . S
H580 N568 0.984 . S
H581 N568 0.985 1_655 S
C582 C583 1.363 . S
C582 C588 1.379 . S
C582 N590 1.356 . S
C583 C582 1.363 . S
C583 C589 1.363 . S
C584 C585 1.363 . S
C584 C589 1.379 . S
C584 N591 1.356 . S
C585 C584 1.363 . S
C585 C588 1.363 . S
N586 C588 1.356 . S
N586 H598 0.984 . S
N586 H599 0.985 . S
N587 C589 1.356 . S
N587 H592 0.984 . S
N587 H593 0.985 . S
C588 C582 1.379 . S
C588 C585 1.363 . S
C588 N586 1.356 . S
C589 C583 1.363 . S
C589 C584 1.379 . S
C589 N587 1.356 . S
N590 C582 1.356 . S
N590 H596 0.984 . S
N590 H597 0.984 . S
N591 C584 1.356 . S
N591 H594 0.984 . S
N591 H595 0.985 . S
H592 N587 0.984 . S
H593 N587 0.985 . S
H594 N591 0.984 . S
H595 N591 0.985 . S
H596 N590 0.984 . S
H597 N590 0.984 . S
H598 N586 0.984 . S
H599 N586 0.985 . S
C600 C601 1.363 . S
C600 C606 1.379 . S
C600 N608 1.356 . S
C601 C600 1.363 . S
C601 C607 1.363 . S
C602 C603 1.363 . S
C602 C607 1.379 . S
C602 N609 1.356 . S
C603 C602 1.363 . S
C603 C606 1.363 . S
N604 C606 1.356 . S
N604 H616 0.984 . S
N604 H617 0.985 . S
N605 C607 1.356 . S
N605 H610 0.984 . S
N605 H611 0.985 . S
C606 C600 1.379 . S
C606 C603 1.363 . S
C606 N604 1.356 . S
C607 C601 1.363 . S
C607 C602 1.379 . S
C607 N605 1.356 . S
N608 C600 1.356 . S
N608 H614 0.984 . S
N608 H615 0.984 . S
N609 C602 1.356 . S
N609 H612 0.984 . S
N609 H613 0.985 . S
H610 N605 0.984 . S
H611 N605 0.985 . S
H612 N609 0.984 . S
H613 N609 0.985 . S
H614 N608 0.984 . S
H615 N608 0.984 . S
H616 N604 0.984 . S
H617 N604 0.985 . S
C618 C619 1.363 . S
C618 C624 1.379 . S
C618 N626 1.356 . S
C619 C618 1.363 . S
C619 C625 1.363 . S
C620 C621 1.363 . S
C620 C625 1.379 . S
C620 N627 1.356 . S
C621 C620 1.363 . S
C621 C624 1.363 . S
N622 C624 1.356 . S
N622 H634 0.984 . S
N622 H635 0.985 . S
N623 C625 1.356 1_554 S
N623 H628 0.984 . S
N623 H629 0.985 . S
C624 C618 1.379 . S
C624 C621 1.363 . S
C624 N622 1.356 . S
C625 C619 1.363 . S
C625 C620 1.379 . S
C625 N623 1.356 1_556 S
N626 C618 1.356 . S
N626 H632 0.984 . S
N626 H633 0.984 . S
N627 C620 1.356 . S
N627 H630 0.984 . S
N627 H631 0.985 . S
H628 N623 0.984 . S
H629 N623 0.985 . S
H630 N627 0.984 . S
H631 N627 0.985 . S
H632 N626 0.984 . S
H633 N626 0.984 . S
H634 N622 0.984 . S
H635 N622 0.985 . S
C636 C637 1.363 . S
C636 C642 1.379 . S
C636 N644 1.356 . S
C637 C636 1.363 . S
C637 C643 1.363 . S
C638 C639 1.363 . S
C638 C643 1.379 . S
C638 N645 1.356 . S
C639 C638 1.363 . S
C639 C642 1.363 . S
N640 C642 1.356 . S
N640 H652 0.984 . S
N640 H653 0.985 . S
N641 C643 1.356 . S
N641 H646 0.984 1_655 S
N641 H647 0.985 . S
C642 C636 1.379 . S
C642 C639 1.363 . S
C642 N640 1.356 . S
C643 C637 1.363 . S
C643 C638 1.379 . S
C643 N641 1.356 . S
N644 C636 1.356 . S
N644 H650 0.984 . S
N644 H651 0.984 . S
N645 C638 1.356 . S
N645 H648 0.984 . S
N645 H649 0.985 . S
H646 N641 0.984 1_455 S
H647 N641 0.985 . S
H648 N645 0.984 . S
H649 N645 0.985 . S
H650 N644 0.984 . S
H651 N644 0.984 . S
H652 N640 0.984 . S
H653 N640 0.985 . S
C654 C655 1.363 . S
C654 C660 1.379 . S
C654 N662 1.356 . S
C655 C654 1.363 . S
C655 C661 1.363 . S
C656 C657 1.363 . S
C656 C661 1.379 . S
C656 N663 1.356 . S
C657 C656 1.363 . S
C657 C660 1.363 . S
N658 C660 1.356 . S
N658 H670 0.984 . S
N658 H671 0.985 . S
N659 C661 1.356 . S
N659 H664 0.984 . S
N659 H665 0.985 . S
C660 C654 1.379 . S
C660 C657 1.363 . S
C660 N658 1.356 . S
C661 C655 1.363 . S
C661 C656 1.379 . S
C661 N659 1.356 . S
N662 C654 1.356 . S
N662 H668 0.984 . S
N662 H669 0.984 . S
N663 C656 1.356 . S
N663 H666 0.984 . S
N663 H667 0.985 . S
H664 N659 0.984 . S
H665 N659 0.985 . S
H666 N663 0.984 . S
H667 N663 0.985 . S
H668 N662 0.984 . S
H669 N662 0.984 . S
H670 N658 0.984 . S
H671 N658 0.985 . S
C672 C673 1.363 . S
C672 C678 1.379 . S
C672 N680 1.356 . S
C673 C672 1.363 . S
C673 C679 1.363 . S
C674 C675 1.363 . S
C674 C679 1.379 . S
C674 N681 1.356 . S
C675 C674 1.363 . S
C675 C678 1.363 . S
N676 C678 1.356 1_455 S
N676 H688 0.984 . S
N676 H689 0.985 . S
N677 C679 1.356 . S
N677 H682 0.984 . S
N677 H683 0.985 . S
C678 C672 1.379 . S
C678 C675 1.363 . S
C678 N676 1.356 1_655 S
C679 C673 1.363 . S
C679 C674 1.379 . S
C679 N677 1.356 . S
N680 C672 1.356 . S
N680 H686 0.984 . S
N680 H687 0.984 . S
N681 C674 1.356 . S
N681 H684 0.984 . S
N681 H685 0.985 . S
H682 N677 0.984 . S
H683 N677 0.985 . S
H684 N681 0.984 . S
H685 N681 0.985 . S
H686 N680 0.984 . S
H687 N680 0.984 . S
H688 N676 0.984 . S
H689 N676 0.985 . S
C690 C691 1.363 . S
C690 C696 1.379 . S
C690 N698 1.356 . S
C691 C690 1.363 . S
C691 C697 1.363 . S
C692 C693 1.363 . S
C692 C697 1.379 . S
C692 N699 1.356 . S
C693 C692 1.363 . S
C693 C696 1.363 . S
N694 C696 1.356 . S
N694 H706 0.984 . S
N694 H707 0.985 . S
N695 C697 1.356 . S
N695 H700 0.984 . S
N695 H701 0.985 . S
C696 C690 1.379 . S
C696 C693 1.363 . S
C696 N694 1.356 . S
C697 C691 1.363 . S
C697 C692 1.379 . S
C697 N695 1.356 . S
N698 C690 1.356 . S
N698 H704 0.984 . S
N698 H705 0.984 . S
N699 C692 1.356 . S
N699 H702 0.984 . S
N699 H703 0.985 . S
H700 N695 0.984 . S
H701 N695 0.985 . S
H702 N699 0.984 . S
H703 N699 0.985 . S
H704 N698 0.984 . S
H705 N698 0.984 . S
H706 N694 0.984 . S
H707 N694 0.985 . S
C708 C709 1.363 . S
C708 C714 1.379 . S
C708 N716 1.356 . S
C709 C708 1.363 . S
C709 C715 1.363 . S
C710 C711 1.363 . S
C710 C715 1.379 . S
C710 N717 1.356 . S
C711 C710 1.363 . S
C711 C714 1.363 . S
N712 C714 1.356 . S
N712 H724 0.984 . S
N712 H725 0.985 . S
N713 C715 1.356 . S
N713 H718 0.984 . S
N713 H719 0.985 . S
C714 C708 1.379 . S
C714 C711 1.363 . S
C714 N712 1.356 . S
C715 C709 1.363 . S
C715 C710 1.379 . S
C715 N713 1.356 . S
N716 C708 1.356 . S
N716 H722 0.984 . S
N716 H723 0.984 . S
N717 C710 1.356 . S
N717 H720 0.984 . S
N717 H721 0.985 . S
H718 N713 0.984 . S
H719 N713 0.985 . S
H720 N717 0.984 . S
H721 N717 0.985 . S
H722 N716 0.984 . S
H723 N716 0.984 . S
H724 N712 0.984 . S
H725 N712 0.985 . S
C726 C727 1.363 . S
C726 C732 1.379 . S
C726 N734 1.356 . S
C727 C726 1.363 . S
C727 C733 1.363 . S
C728 C729 1.363 . S
C728 C733 1.379 . S
C728 N735 1.356 . S
C729 C728 1.363 . S
C729 C732 1.363 . S
N730 C732 1.356 1_556 S
N730 H742 0.984 . S
N730 H743 0.985 . S
N731 C733 1.356 . S
N731 H736 0.984 . S
N731 H737 0.985 . S
C732 C726 1.379 . S
C732 C729 1.363 . S
C732 N730 1.356 1_554 S
C733 C727 1.363 . S
C733 C728 1.379 . S
C733 N731 1.356 . S
N734 C726 1.356 . S
N734 H740 0.984 1_554 S
N734 H741 0.984 . S
N735 C728 1.356 . S
N735 H738 0.984 . S
N735 H739 0.985 . S
H736 N731 0.984 . S
H737 N731 0.985 . S
H738 N735 0.984 . S
H739 N735 0.985 . S
H740 N734 0.984 1_556 S
H741 N734 0.984 . S
H742 N730 0.984 . S
H743 N730 0.985 . S
C744 C745 1.363 . S
C744 C750 1.379 . S
C744 N752 1.356 . S
C745 C744 1.363 . S
C745 C751 1.363 . S
C746 C747 1.363 . S
C746 C751 1.379 . S
C746 N753 1.356 . S
C747 C746 1.363 . S
C747 C750 1.363 . S
N748 C750 1.356 . S
N748 H760 0.984 1_455 S
N748 H761 0.985 1_455 S
N749 C751 1.356 . S
N749 H754 0.984 . S
N749 H755 0.985 . S
C750 C744 1.379 . S
C750 C747 1.363 . S
C750 N748 1.356 . S
C751 C745 1.363 . S
C751 C746 1.379 . S
C751 N749 1.356 . S
N752 C744 1.356 . S
N752 H758 0.984 . S
N752 H759 0.984 . S
N753 C746 1.356 . S
N753 H756 0.984 . S
N753 H757 0.985 . S
H754 N749 0.984 . S
H755 N749 0.985 . S
H756 N753 0.984 . S
H757 N753 0.985 . S
H758 N752 0.984 . S
H759 N752 0.984 . S
H760 N748 0.984 1_655 S
H761 N748 0.985 1_655 S
C762 C763 1.363 . S
C762 C768 1.379 . S
C762 N770 1.356 . S
C763 C762 1.363 . S
C763 C769 1.363 . S
C764 C765 1.363 . S
C764 C769 1.379 . S
C764 N771 1.356 . S
C765 C764 1.363 . S
C765 C768 1.363 . S
N766 C768 1.356 . S
N766 H778 0.984 . S
N766 H779 0.985 . S
N767 C769 1.356 . S
N767 H772 0.984 . S
N767 H773 0.985 . S
C768 C762 1.379 . S
C768 C765 1.363 . S
C768 N766 1.356 . S
C769 C763 1.363 . S
C769 C764 1.379 . S
C769 N767 1.356 . S
N770 C762 1.356 . S
N770 H776 0.984 . S
N770 H777 0.984 . S
N771 C764 1.356 . S
N771 H774 0.984 . S
N771 H775 0.985 . S
H772 N767 0.984 . S
H773 N767 0.985 . S
H774 N771 0.984 . S
H775 N771 0.985 . S
H776 N770 0.984 . S
H777 N770 0.984 . S
H778 N766 0.984 . S
H779 N766 0.985 . S
C780 C781 1.363 . S
C780 C786 1.379 . S
C780 N788 1.356 . S
C781 C780 1.363 . S
C781 C787 1.363 . S
C782 C783 1.363 . S
C782 C787 1.379 . S
C782 N789 1.356 . S
C783 C782 1.363 . S
C783 C786 1.363 . S
N784 C786 1.356 . S
N784 H796 0.984 . S
N784 H797 0.985 . S
N785 C787 1.356 . S
N785 H790 0.984 . S
N785 H791 0.985 . S
C786 C780 1.379 . S
C786 C783 1.363 . S
C786 N784 1.356 . S
C787 C781 1.363 . S
C787 C782 1.379 . S
C787 N785 1.356 . S
N788 C780 1.356 . S
N788 H794 0.984 . S
N788 H795 0.984 . S
N789 C782 1.356 . S
N789 H792 0.984 . S
N789 H793 0.985 . S
H790 N785 0.984 . S
H791 N785 0.985 . S
H792 N789 0.984 . S
H793 N789 0.985 . S
H794 N788 0.984 . S
H795 N788 0.984 . S
H796 N784 0.984 . S
H797 N784 0.985 . S
C798 C799 1.363 . S
C798 C804 1.379 . S
C798 N806 1.356 . S
C799 C798 1.363 . S
C799 C805 1.363 . S
C800 C801 1.363 . S
C800 C805 1.379 . S
C800 N807 1.356 . S
C801 C800 1.363 . S
C801 C804 1.363 . S
N802 C804 1.356 1_554 S
N802 H814 0.984 . S
N802 H815 0.985 . S
N803 C805 1.356 . S
N803 H808 0.984 . S
N803 H809 0.985 . S
C804 C798 1.379 . S
C804 C801 1.363 . S
C804 N802 1.356 1_556 S
C805 C799 1.363 . S
C805 C800 1.379 . S
C805 N803 1.356 . S
N806 C798 1.356 . S
N806 H812 0.984 . S
N806 H813 0.984 . S
N807 C800 1.356 . S
N807 H810 0.984 . S
N807 H811 0.985 . S
H808 N803 0.984 . S
H809 N803 0.985 . S
H810 N807 0.984 . S
H811 N807 0.985 . S
H812 N806 0.984 . S
H813 N806 0.984 . S
H814 N802 0.984 . S
H815 N802 0.985 . S
C816 C817 1.363 . S
C816 C822 1.379 . S
C816 N824 1.356 . S
C817 C816 1.363 . S
C817 C823 1.363 . S
C818 C819 1.363 . S
C818 C823 1.379 . S
C818 N825 1.356 . S
C819 C818 1.363 . S
C819 C822 1.363 . S
N820 C822 1.356 . S
N820 H832 0.984 . S
N820 H833 0.985 . S
N821 C823 1.356 . S
N821 H826 0.984 . S
N821 H827 0.985 . S
C822 C816 1.379 . S
C822 C819 1.363 . S
C822 N820 1.356 . S
C823 C817 1.363 . S
C823 C818 1.379 . S
C823 N821 1.356 . S
N824 C816 1.356 . S
N824 H830 0.984 . S
N824 H831 0.984 . S
N825 C818 1.356 . S
N825 H828 0.984 . S
N825 H829 0.985 . S
H826 N821 0.984 . S
H827 N821 0.985 . S
H828 N825 0.984 . S
H829 N825 0.985 . S
H830 N824 0.984 . S
H831 N824 0.984 . S
H832 N820 0.984 . S
H833 N820 0.985 . S
C834 C835 1.363 . S
C834 C840 1.379 . S
C834 N842 1.356 . S
C835 C834 1.363 . S
C835 C841 1.363 . S
C836 C837 1.363 . S
C836 C841 1.379 . S
C836 N843 1.356 . S
C837 C836 1.363 . S
C837 C840 1.363 . S
N838 C840 1.356 . S
N838 H850 0.984 . S
N838 H851 0.985 . S
N839 C841 1.356 . S
N839 H844 0.984 . S
N839 H845 0.985 . S
C840 C834 1.379 . S
C840 C837 1.363 . S
C840 N838 1.356 . S
C841 C835 1.363 . S
C841 C836 1.379 . S
C841 N839 1.356 . S
N842 C834 1.356 . S
N842 H848 0.984 . S
N842 H849 0.984 . S
N843 C836 1.356 . S
N843 H846 0.984 . S
N843 H847 0.985 . S
H844 N839 0.984 . S
H845 N839 0.985 . S
H846 N843 0.984 . S
H847 N843 0.985 . S
H848 N842 0.984 . S
H849 N842 0.984 . S
H850 N838 0.984 . S
H851 N838 0.985 . S
C852 C853 1.363 . S
C852 C858 1.379 . S
C852 N860 1.356 . S
C853 C852 1.363 . S
C853 C859 1.363 . S
C854 C855 1.363 . S
C854 C859 1.379 . S
C854 N861 1.356 . S
C855 C854 1.363 . S
C855 C858 1.363 . S
N856 C858 1.356 . S
N856 H868 0.984 . S
N856 H869 0.985 . S
N857 C859 1.356 . S
N857 H862 0.984 . S
N857 H863 0.985 . S
C858 C852 1.379 . S
C858 C855 1.363 . S
C858 N856 1.356 . S
C859 C853 1.363 . S
C859 C854 1.379 . S
C859 N857 1.356 . S
N860 C852 1.356 . S
N860 H866 0.984 . S
N860 H867 0.984 . S
N861 C854 1.356 . S
N861 H864 0.984 . S
N861 H865 0.985 . S
H862 N857 0.984 . S
H863 N857 0.985 . S
H864 N861 0.984 . S
H865 N861 0.985 . S
H866 N860 0.984 . S
H867 N860 0.984 . S
H868 N856 0.984 . S
H869 N856 0.985 . S
C870 C871 1.363 1_655 S
C870 C876 1.379 1_656 S
C870 N878 1.356 . S
C871 C870 1.363 1_455 S
C871 C877 1.363 . S
C872 C873 1.363 . S
C872 C877 1.379 1_554 S
C872 N879 1.356 . S
C873 C872 1.363 . S
C873 C876 1.363 . S
N874 C876 1.356 . S
N874 H886 0.984 1_455 S
N874 H887 0.985 . S
N875 C877 1.356 . S
N875 H880 0.984 . S
N875 H881 0.985 . S
C876 C870 1.379 1_454 S
C876 C873 1.363 . S
C876 N874 1.356 . S
C877 C871 1.363 . S
C877 C872 1.379 1_556 S
C877 N875 1.356 . S
N878 C870 1.356 . S
N878 H884 0.984 . S
N878 H885 0.984 . S
N879 C872 1.356 . S
N879 H882 0.984 . S
N879 H883 0.985 . S
H880 N875 0.984 . S
H881 N875 0.985 . S
H882 N879 0.984 . S
H883 N879 0.985 . S
H884 N878 0.984 . S
H885 N878 0.984 . S
H886 N874 0.984 1_655 S
H887 N874 0.985 . S
C888 C889 1.363 . S
C888 C894 1.379 . S
C888 N896 1.356 . S
C889 C888 1.363 . S
C889 C895 1.363 . S
C890 C891 1.363 . S
C890 C895 1.379 . S
C890 N897 1.356 . S
C891 C890 1.363 . S
C891 C894 1.363 . S
N892 C894 1.356 . S
N892 H904 0.984 . S
N892 H905 0.985 . S
N893 C895 1.356 . S
N893 H898 0.984 . S
N893 H899 0.985 . S
C894 C888 1.379 . S
C894 C891 1.363 . S
C894 N892 1.356 . S
C895 C889 1.363 . S
C895 C890 1.379 . S
C895 N893 1.356 . S
N896 C888 1.356 . S
N896 H902 0.984 . S
N896 H903 0.984 . S
N897 C890 1.356 . S
N897 H900 0.984 . S
N897 H901 0.985 . S
H898 N893 0.984 . S
H899 N893 0.985 . S
H900 N897 0.984 . S
H901 N897 0.985 . S
H902 N896 0.984 . S
H903 N896 0.984 . S
H904 N892 0.984 . S
H905 N892 0.985 . S
C906 C907 1.363 . S
C906 C912 1.379 . S
C906 N914 1.356 . S
C907 C906 1.363 . S
C907 C913 1.363 . S
C908 C909 1.363 . S
C908 C913 1.379 . S
C908 N915 1.356 . S
C909 C908 1.363 . S
C909 C912 1.363 . S
N910 C912 1.356 . S
N910 H922 0.984 . S
N910 H923 0.985 . S
N911 C913 1.356 . S
N911 H916 0.984 . S
N911 H917 0.985 . S
C912 C906 1.379 . S
C912 C909 1.363 . S
C912 N910 1.356 . S
C913 C907 1.363 . S
C913 C908 1.379 . S
C913 N911 1.356 . S
N914 C906 1.356 . S
N914 H920 0.984 . S
N914 H921 0.984 . S
N915 C908 1.356 . S
N915 H918 0.984 . S
N915 H919 0.985 . S
H916 N911 0.984 . S
H917 N911 0.985 . S
H918 N915 0.984 . S
H919 N915 0.985 . S
H920 N914 0.984 . S
H921 N914 0.984 . S
H922 N910 0.984 . S
H923 N910 0.985 . S
C924 C925 1.363 1_565 S
C924 C930 1.378 1_554 S
C924 N932 1.356 . S
C925 C924 1.363 1_545 S
C925 C931 1.363 . S
C926 C927 1.363 . S
C926 C931 1.379 1_556 S
C926 N933 1.356 . S
C927 C926 1.363 . S
C927 C930 1.363 1_545 S
N928 C930 1.357 1_455 S
N928 H940 0.984 . S
N928 H941 0.985 . S
N929 C931 1.356 . S
N929 H934 0.984 . S
N929 H935 0.985 . S
C930 C924 1.378 1_556 S
C930 C927 1.363 1_565 S
C930 N928 1.357 1_655 S
C931 C925 1.363 . S
C931 C926 1.379 1_554 S
C931 N929 1.356 . S
N932 C924 1.356 . S
N932 H938 0.984 1_655 S
N932 H939 0.984 . S
N933 C926 1.356 . S
N933 H936 0.984 . S
N933 H937 0.985 . S
H934 N929 0.984 . S
H935 N929 0.985 . S
H936 N933 0.984 . S
H937 N933 0.985 . S
H938 N932 0.984 1_455 S
H939 N932 0.984 . S
H940 N928 0.984 . S
H941 N928 0.985 . S
C942 C943 1.363 1_545 S
C942 C948 1.379 . S
C942 N950 1.356 . S
C943 C942 1.363 1_565 S
C943 C949 1.363 . S
C944 C945 1.363 . S
C944 C949 1.379 . S
C944 N951 1.356 . S
C945 C944 1.363 . S
C945 C948 1.363 1_565 S
N946 C948 1.356 . S
N946 H958 0.984 . S
N946 H959 0.985 . S
N947 C949 1.356 . S
N947 H952 0.984 . S
N947 H953 0.985 . S
C948 C942 1.379 . S
C948 C945 1.363 1_545 S
C948 N946 1.356 . S
C949 C943 1.363 . S
C949 C944 1.379 . S
C949 N947 1.356 . S
N950 C942 1.356 . S
N950 H956 0.984 . S
N950 H957 0.984 . S
N951 C944 1.356 . S
N951 H954 0.984 . S
N951 H955 0.985 . S
H952 N947 0.984 . S
H953 N947 0.985 . S
H954 N951 0.984 . S
H955 N951 0.985 . S
H956 N950 0.984 . S
H957 N950 0.984 . S
H958 N946 0.984 . S
H959 N946 0.985 . S
C960 C961 1.363 . S
C960 C966 1.379 . S
C960 N968 1.356 . S
C961 C960 1.363 . S
C961 C967 1.363 . S
C962 C963 1.363 . S
C962 C967 1.379 . S
C962 N969 1.356 . S
C963 C962 1.363 . S
C963 C966 1.363 . S
N964 C966 1.356 . S
N964 H976 0.984 . S
N964 H977 0.985 . S
N965 C967 1.356 . S
N965 H970 0.984 . S
N965 H971 0.985 . S
C966 C960 1.379 . S
C966 C963 1.363 . S
C966 N964 1.356 . S
C967 C961 1.363 . S
C967 C962 1.379 . S
C967 N965 1.356 . S
N968 C960 1.356 . S
N968 H974 0.984 . S
N968 H975 0.984 . S
N969 C962 1.356 . S
N969 H972 0.984 . S
N969 H973 0.985 . S
H970 N965 0.984 . S
H971 N965 0.985 . S
H972 N969 0.984 . S
H973 N969 0.985 . S
H974 N968 0.984 . S
H975 N968 0.984 . S
H976 N964 0.984 . S
H977 N964 0.985 . S
C978 C979 1.363 . S
C978 C984 1.379 . S
C978 N986 1.356 . S
C979 C978 1.363 . S
C979 C985 1.363 . S
C980 C981 1.363 . S
C980 C985 1.379 . S
C980 N987 1.356 . S
C981 C980 1.363 . S
C981 C984 1.363 . S
N982 C984 1.356 . S
N982 H994 0.984 1_554 S
N982 H995 0.985 . S
N983 C985 1.356 . S
N983 H988 0.984 . S
N983 H989 0.985 . S
C984 C978 1.379 . S
C984 C981 1.363 . S
C984 N982 1.356 . S
C985 C979 1.363 . S
C985 C980 1.379 . S
C985 N983 1.356 . S
N986 C978 1.356 . S
N986 H992 0.984 . S
N986 H993 0.984 . S
N987 C980 1.356 . S
N987 H990 0.984 . S
N987 H991 0.985 . S
H988 N983 0.984 . S
H989 N983 0.985 . S
H990 N987 0.984 . S
H991 N987 0.985 . S
H992 N986 0.984 . S
H993 N986 0.984 . S
H994 N982 0.984 1_556 S
H995 N982 0.985 . S
C996 C997 1.363 . S
C996 C1002 1.379 . S
C996 N1004 1.356 . S
C997 C996 1.363 . S
C997 C1003 1.363 . S
C998 C999 1.363 . S
C998 C1003 1.379 . S
C998 N1005 1.356 . S
C999 C998 1.363 . S
C999 C1002 1.363 . S
N1000 C1002 1.356 . S
N1000 H1012 0.984 . S
N1000 H1013 0.985 . S
N1001 C1003 1.356 . S
N1001 H1006 0.984 . S
N1001 H1007 0.985 . S
C1002 C996 1.379 . S
C1002 C999 1.363 . S
C1002 N1000 1.356 . S
C1003 C997 1.363 . S
C1003 C998 1.379 . S
C1003 N1001 1.356 . S
N1004 C996 1.356 . S
N1004 H1010 0.984 . S
N1004 H1011 0.984 . S
N1005 C998 1.356 . S
N1005 H1008 0.984 . S
N1005 H1009 0.985 . S
H1006 N1001 0.984 . S
H1007 N1001 0.985 . S
H1008 N1005 0.984 . S
H1009 N1005 0.985 . S
H1010 N1004 0.984 . S
H1011 N1004 0.984 . S
H1012 N1000 0.984 . S
H1013 N1000 0.985 . S
C1014 C1015 1.363 . S
C1014 C1020 1.379 . S
C1014 N1022 1.356 . S
C1015 C1014 1.363 . S
C1015 C1021 1.363 . S
C1016 C1017 1.363 . S
C1016 C1021 1.379 . S
C1016 N1023 1.356 . S
C1017 C1016 1.363 . S
C1017 C1020 1.363 . S
N1018 C1020 1.356 . S
N1018 H1030 0.984 . S
N1018 H1031 0.985 . S
N1019 C1021 1.356 . S
N1019 H1024 0.984 . S
N1019 H1025 0.985 . S
C1020 C1014 1.379 . S
C1020 C1017 1.363 . S
C1020 N1018 1.356 . S
C1021 C1015 1.363 . S
C1021 C1016 1.379 . S
C1021 N1019 1.356 . S
N1022 C1014 1.356 . S
N1022 H1028 0.984 . S
N1022 H1029 0.984 . S
N1023 C1016 1.356 . S
N1023 H1026 0.984 . S
N1023 H1027 0.985 . S
H1024 N1019 0.984 . S
H1025 N1019 0.985 . S
H1026 N1023 0.984 . S
H1027 N1023 0.985 . S
H1028 N1022 0.984 . S
H1029 N1022 0.984 . S
H1030 N1018 0.984 . S
H1031 N1018 0.985 . S
C1032 C1033 1.363 . S
C1032 C1038 1.379 . S
C1032 N1040 1.356 . S
C1033 C1032 1.363 . S
C1033 C1039 1.363 . S
C1034 C1035 1.363 . S
C1034 C1039 1.379 . S
C1034 N1041 1.356 . S
C1035 C1034 1.363 . S
C1035 C1038 1.363 . S
N1036 C1038 1.356 . S
N1036 H1048 0.984 . S
N1036 H1049 0.985 . S
N1037 C1039 1.356 . S
N1037 H1042 0.984 . S
N1037 H1043 0.985 . S
C1038 C1032 1.379 . S
C1038 C1035 1.363 . S
C1038 N1036 1.356 . S
C1039 C1033 1.363 . S
C1039 C1034 1.379 . S
C1039 N1037 1.356 . S
N1040 C1032 1.356 . S
N1040 H1046 0.984 1_554 S
N1040 H1047 0.984 . S
N1041 C1034 1.356 . S
N1041 H1044 0.984 . S
N1041 H1045 0.985 . S
H1042 N1037 0.984 . S
H1043 N1037 0.985 . S
H1044 N1041 0.984 . S
H1045 N1041 0.985 . S
H1046 N1040 0.984 1_556 S
H1047 N1040 0.984 . S
H1048 N1036 0.984 . S
H1049 N1036 0.985 . S
C1050 C1051 1.363 . S
C1050 C1056 1.379 . S
C1050 N1058 1.356 . S
C1051 C1050 1.363 . S
C1051 C1057 1.363 . S
C1052 C1053 1.363 . S
C1052 C1057 1.379 . S
C1052 N1059 1.356 . S
C1053 C1052 1.363 . S
C1053 C1056 1.363 . S
N1054 C1056 1.356 . S
N1054 H1066 0.984 . S
N1054 H1067 0.985 . S
N1055 C1057 1.356 . S
N1055 H1060 0.984 . S
N1055 H1061 0.985 . S
C1056 C1050 1.379 . S
C1056 C1053 1.363 . S
C1056 N1054 1.356 . S
C1057 C1051 1.363 . S
C1057 C1052 1.379 . S
C1057 N1055 1.356 . S
N1058 C1050 1.356 . S
N1058 H1064 0.984 . S
N1058 H1065 0.984 . S
N1059 C1052 1.356 . S
N1059 H1062 0.984 . S
N1059 H1063 0.985 . S
H1060 N1055 0.984 . S
H1061 N1055 0.985 . S
H1062 N1059 0.984 . S
H1063 N1059 0.985 . S
H1064 N1058 0.984 . S
H1065 N1058 0.984 . S
H1066 N1054 0.984 . S
H1067 N1054 0.985 . S
C1068 C1069 1.363 . S
C1068 C1074 1.379 . S
C1068 N1076 1.356 . S
C1069 C1068 1.363 . S
C1069 C1075 1.363 . S
C1070 C1071 1.363 . S
C1070 C1075 1.379 . S
C1070 N1077 1.356 . S
C1071 C1070 1.363 . S
C1071 C1074 1.363 . S
N1072 C1074 1.356 . S
N1072 H1084 0.984 . S
N1072 H1085 0.985 . S
N1073 C1075 1.356 . S
N1073 H1078 0.984 . S
N1073 H1079 0.985 . S
C1074 C1068 1.379 . S
C1074 C1071 1.363 . S
C1074 N1072 1.356 . S
C1075 C1069 1.363 . S
C1075 C1070 1.379 . S
C1075 N1073 1.356 . S
N1076 C1068 1.356 . S
N1076 H1082 0.984 . S
N1076 H1083 0.984 . S
N1077 C1070 1.356 . S
N1077 H1080 0.984 . S
N1077 H1081 0.985 . S
H1078 N1073 0.984 . S
H1079 N1073 0.985 . S
H1080 N1077 0.984 . S
H1081 N1077 0.985 . S
H1082 N1076 0.984 . S
H1083 N1076 0.984 . S
H1084 N1072 0.984 . S
H1085 N1072 0.985 . S
C1086 C1087 1.363 . S
C1086 C1092 1.379 . S
C1086 N1094 1.356 . S
C1087 C1086 1.363 . S
C1087 C1093 1.363 . S
C1088 C1089 1.363 . S
C1088 C1093 1.379 . S
C1088 N1095 1.356 . S
C1089 C1088 1.363 . S
C1089 C1092 1.363 . S
N1090 C1092 1.356 . S
N1090 H1102 0.984 . S
N1090 H1103 0.985 . S
N1091 C1093 1.356 . S
N1091 H1096 0.984 . S
N1091 H1097 0.985 . S
C1092 C1086 1.379 . S
C1092 C1089 1.363 . S
C1092 N1090 1.356 . S
C1093 C1087 1.363 . S
C1093 C1088 1.379 . S
C1093 N1091 1.356 . S
N1094 C1086 1.356 . S
N1094 H1100 0.984 . S
N1094 H1101 0.984 . S
N1095 C1088 1.356 . S
N1095 H1098 0.984 . S
N1095 H1099 0.985 . S
H1096 N1091 0.984 . S
H1097 N1091 0.985 . S
H1098 N1095 0.984 . S
H1099 N1095 0.985 . S
H1100 N1094 0.984 . S
H1101 N1094 0.984 . S
H1102 N1090 0.984 . S
H1103 N1090 0.985 . S
C1104 C1105 1.363 . S
C1104 C1110 1.379 . S
C1104 N1112 1.356 . S
C1105 C1104 1.363 . S
C1105 C1111 1.363 . S
C1106 C1107 1.363 . S
C1106 C1111 1.379 . S
C1106 N1113 1.356 . S
C1107 C1106 1.363 . S
C1107 C1110 1.363 . S
N1108 C1110 1.356 . S
N1108 H1120 0.984 . S
N1108 H1121 0.985 . S
N1109 C1111 1.356 . S
N1109 H1114 0.984 . S
N1109 H1115 0.985 . S
C1110 C1104 1.379 . S
C1110 C1107 1.363 . S
C1110 N1108 1.356 . S
C1111 C1105 1.363 . S
C1111 C1106 1.379 . S
C1111 N1109 1.356 . S
N1112 C1104 1.356 . S
N1112 H1118 0.984 . S
N1112 H1119 0.984 . S
N1113 C1106 1.356 . S
N1113 H1116 0.984 . S
N1113 H1117 0.985 . S
H1114 N1109 0.984 . S
H1115 N1109 0.985 . S
H1116 N1113 0.984 . S
H1117 N1113 0.985 . S
H1118 N1112 0.984 . S
H1119 N1112 0.984 . S
H1120 N1108 0.984 . S
H1121 N1108 0.985 . S
C1122 C1123 1.363 . S
C1122 C1128 1.379 . S
C1122 N1130 1.356 . S
C1123 C1122 1.363 . S
C1123 C1129 1.363 . S
C1124 C1125 1.363 . S
C1124 C1129 1.379 . S
C1124 N1131 1.356 . S
C1125 C1124 1.363 . S
C1125 C1128 1.363 . S
N1126 C1128 1.356 . S
N1126 H1138 0.984 . S
N1126 H1139 0.985 . S
N1127 C1129 1.356 . S
N1127 H1132 0.984 . S
N1127 H1133 0.985 . S
C1128 C1122 1.379 . S
C1128 C1125 1.363 . S
C1128 N1126 1.356 . S
C1129 C1123 1.363 . S
C1129 C1124 1.379 . S
C1129 N1127 1.356 . S
N1130 C1122 1.356 . S
N1130 H1136 0.984 . S
N1130 H1137 0.984 . S
N1131 C1124 1.356 . S
N1131 H1134 0.984 . S
N1131 H1135 0.985 . S
H1132 N1127 0.984 . S
H1133 N1127 0.985 . S
H1134 N1131 0.984 . S
H1135 N1131 0.985 . S
H1136 N1130 0.984 . S
H1137 N1130 0.984 . S
H1138 N1126 0.984 . S
H1139 N1126 0.985 . S
C1140 C1141 1.363 . S
C1140 C1146 1.379 . S
C1140 N1148 1.356 . S
C1141 C1140 1.363 . S
C1141 C1147 1.363 . S
C1142 C1143 1.363 . S
C1142 C1147 1.379 . S
C1142 N1149 1.356 . S
C1143 C1142 1.363 . S
C1143 C1146 1.363 . S
N1144 C1146 1.356 . S
N1144 H1156 0.984 . S
N1144 H1157 0.985 . S
N1145 C1147 1.356 . S
N1145 H1150 0.984 . S
N1145 H1151 0.985 . S
C1146 C1140 1.379 . S
C1146 C1143 1.363 . S
C1146 N1144 1.356 . S
C1147 C1141 1.363 . S
C1147 C1142 1.379 . S
C1147 N1145 1.356 . S
N1148 C1140 1.356 . S
N1148 H1154 0.984 . S
N1148 H1155 0.984 . S
N1149 C1142 1.356 . S
N1149 H1152 0.984 . S
N1149 H1153 0.985 . S
H1150 N1145 0.984 . S
H1151 N1145 0.985 . S
H1152 N1149 0.984 . S
H1153 N1149 0.985 . S
H1154 N1148 0.984 . S
H1155 N1148 0.984 . S
H1156 N1144 0.984 . S
H1157 N1144 0.985 . S
C1158 C1159 1.363 . S
C1158 C1164 1.379 . S
C1158 N1166 1.356 . S
C1159 C1158 1.363 . S
C1159 C1165 1.363 . S
C1160 C1161 1.363 . S
C1160 C1165 1.379 . S
C1160 N1167 1.356 . S
C1161 C1160 1.363 . S
C1161 C1164 1.363 . S
N1162 C1164 1.356 . S
N1162 H1174 0.984 . S
N1162 H1175 0.985 . S
N1163 C1165 1.356 . S
N1163 H1168 0.984 . S
N1163 H1169 0.985 . S
C1164 C1158 1.379 . S
C1164 C1161 1.363 . S
C1164 N1162 1.356 . S
C1165 C1159 1.363 . S
C1165 C1160 1.379 . S
C1165 N1163 1.356 . S
N1166 C1158 1.356 . S
N1166 H1172 0.984 . S
N1166 H1173 0.984 . S
N1167 C1160 1.356 . S
N1167 H1170 0.984 . S
N1167 H1171 0.985 1_554 S
H1168 N1163 0.984 . S
H1169 N1163 0.985 . S
H1170 N1167 0.984 . S
H1171 N1167 0.985 1_556 S
H1172 N1166 0.984 . S
H1173 N1166 0.984 . S
H1174 N1162 0.984 . S
H1175 N1162 0.985 . S
C1176 C1177 1.363 . S
C1176 C1182 1.379 . S
C1176 N1184 1.356 . S
C1177 C1176 1.363 . S
C1177 C1183 1.363 . S
C1178 C1179 1.363 . S
C1178 C1183 1.379 . S
C1178 N1185 1.356 . S
C1179 C1178 1.363 . S
C1179 C1182 1.363 . S
N1180 C1182 1.356 . S
N1180 H1192 0.984 . S
N1180 H1193 0.985 . S
N1181 C1183 1.356 . S
N1181 H1186 0.984 . S
N1181 H1187 0.985 . S
C1182 C1176 1.379 . S
C1182 C1179 1.363 . S
C1182 N1180 1.356 . S
C1183 C1177 1.363 . S
C1183 C1178 1.379 . S
C1183 N1181 1.356 . S
N1184 C1176 1.356 . S
N1184 H1190 0.984 . S
N1184 H1191 0.984 . S
N1185 C1178 1.356 . S
N1185 H1188 0.984 . S
N1185 H1189 0.985 . S
H1186 N1181 0.984 . S
H1187 N1181 0.985 . S
H1188 N1185 0.984 . S
H1189 N1185 0.985 . S
H1190 N1184 0.984 . S
H1191 N1184 0.984 . S
H1192 N1180 0.984 . S
H1193 N1180 0.985 . S
C1194 C1195 1.363 . S
C1194 C1200 1.379 . S
C1194 N1202 1.356 . S
C1195 C1194 1.363 . S
C1195 C1201 1.363 . S
C1196 C1197 1.363 . S
C1196 C1201 1.379 . S
C1196 N1203 1.356 . S
C1197 C1196 1.363 . S
C1197 C1200 1.363 . S
N1198 C1200 1.356 . S
N1198 H1210 0.984 . S
N1198 H1211 0.985 . S
N1199 C1201 1.356 . S
N1199 H1204 0.984 . S
N1199 H1205 0.985 . S
C1200 C1194 1.379 . S
C1200 C1197 1.363 . S
C1200 N1198 1.356 . S
C1201 C1195 1.363 . S
C1201 C1196 1.379 . S
C1201 N1199 1.356 . S
N1202 C1194 1.356 . S
N1202 H1208 0.984 . S
N1202 H1209 0.984 . S
N1203 C1196 1.356 . S
N1203 H1206 0.984 . S
N1203 H1207 0.985 . S
H1204 N1199 0.984 . S
H1205 N1199 0.985 . S
H1206 N1203 0.984 . S
H1207 N1203 0.985 . S
H1208 N1202 0.984 . S
H1209 N1202 0.984 . S
H1210 N1198 0.984 . S
H1211 N1198 0.985 . S
C1212 C1213 1.363 . S
C1212 C1218 1.379 . S
C1212 N1220 1.356 . S
C1213 C1212 1.363 . S
C1213 C1219 1.363 . S
C1214 C1215 1.363 . S
C1214 C1219 1.379 . S
C1214 N1221 1.356 . S
C1215 C1214 1.363 . S
C1215 C1218 1.363 . S
N1216 C1218 1.356 . S
N1216 H1228 0.984 . S
N1216 H1229 0.985 . S
N1217 C1219 1.356 . S
N1217 H1222 0.984 . S
N1217 H1223 0.985 . S
C1218 C1212 1.379 . S
C1218 C1215 1.363 . S
C1218 N1216 1.356 . S
C1219 C1213 1.363 . S
C1219 C1214 1.379 . S
C1219 N1217 1.356 . S
N1220 C1212 1.356 . S
N1220 H1226 0.984 . S
N1220 H1227 0.984 . S
N1221 C1214 1.356 . S
N1221 H1224 0.984 . S
N1221 H1225 0.985 . S
H1222 N1217 0.984 . S
H1223 N1217 0.985 . S
H1224 N1221 0.984 . S
H1225 N1221 0.985 . S
H1226 N1220 0.984 . S
H1227 N1220 0.984 . S
H1228 N1216 0.984 . S
H1229 N1216 0.985 . S
C1230 C1231 1.363 . S
C1230 C1236 1.379 . S
C1230 N1238 1.356 . S
C1231 C1230 1.363 . S
C1231 C1237 1.363 . S
C1232 C1233 1.363 . S
C1232 C1237 1.379 . S
C1232 N1239 1.356 . S
C1233 C1232 1.363 . S
C1233 C1236 1.363 . S
N1234 C1236 1.356 . S
N1234 H1246 0.984 . S
N1234 H1247 0.985 . S
N1235 C1237 1.356 . S
N1235 H1240 0.984 . S
N1235 H1241 0.985 . S
C1236 C1230 1.379 . S
C1236 C1233 1.363 . S
C1236 N1234 1.356 . S
C1237 C1231 1.363 . S
C1237 C1232 1.379 . S
C1237 N1235 1.356 . S
N1238 C1230 1.356 . S
N1238 H1244 0.984 . S
N1238 H1245 0.984 . S
N1239 C1232 1.356 . S
N1239 H1242 0.984 . S
N1239 H1243 0.985 . S
H1240 N1235 0.984 . S
H1241 N1235 0.985 . S
H1242 N1239 0.984 . S
H1243 N1239 0.985 . S
H1244 N1238 0.984 . S
H1245 N1238 0.984 . S
H1246 N1234 0.984 . S
H1247 N1234 0.985 . S
C529 C503 1.616 . S
C531 N14 1.587 . S
C547 N47 1.592 . S
C549 C140 1.624 . S
C565 N80 1.578 . S
C567 C437 1.610 1_455 S
C583 N113 1.573 . S
C585 C206 1.604 . S
C601 N146 1.511 . S
C603 C391 1.532 . S
C619 C28 1.539 . S
C621 N179 1.520 . S
C637 C325 1.524 . S
C639 N212 1.502 . S
C655 N245 1.497 . S
C657 C94 1.519 . S
C673 N278 1.578 . S
C675 C239 1.610 1_655 S
C691 N311 1.573 . S
C693 C404 1.604 . S
C709 C173 1.616 . S
C711 N344 1.587 . S
C727 N377 1.592 . S
C729 C470 1.624 . S
C745 N410 1.502 . S
C747 C127 1.524 . S
C763 N443 1.497 . S
C765 C292 1.519 . S
C781 C61 1.531 . S
C783 N476 1.512 . S
C799 N509 1.518 . S
C801 C358 1.539 . S
C817 N5 1.587 . S
C819 N401 1.654 . S
C835 N170 1.686 . S
C837 N38 1.612 . S
C853 N71 1.586 . S
C855 N467 1.654 . S
C871 N104 1.595 1_455 S
C873 N236 1.665 . S
C889 N269 1.586 . S
C891 N137 1.654 . S
C907 N335 1.587 . S
C909 N203 1.654 . S
C925 N434 1.665 1_545 S
C927 N302 1.595 1_655 S
C943 N368 1.612 . S
C945 N500 1.686 1_565 S
C961 C305 1.603 . S
C963 C17 1.643 . S
C979 C50 1.613 . S
C981 C338 1.571 . S
C997 C83 1.629 . S
C999 C371 1.589 . S
C1015 C272 1.600 . S
C1017 C116 1.640 . S
C1033 C149 1.162 . S
C1035 C457 1.125 . S
C1051 C182 1.138 . S
C1053 C490 1.097 . S
C1069 C215 1.150 . S
C1071 C523 1.111 . S
C1087 C248 1.160 . S
C1089 C424 1.121 . S
C1105 C41 1.589 . S
C1107 C281 1.629 . S
C1123 C314 1.640 . S
C1125 C74 1.601 . S
C1141 C347 1.642 . S
C1143 C107 1.604 . S
C1159 C380 1.613 . S
C1161 C8 1.571 . S
C1177 C413 1.150 . S
C1179 C193 1.111 . S
C1195 C226 1.121 . S
C1197 C446 1.160 . S
C1213 C259 1.123 . S
C1215 C479 1.163 . S
C1231 C512 1.138 . S
C1233 C160 1.097 . S
