# Generated by pormake.
# Topology gsi, (4)-cn, num edge types: 1
# Building blocks:
#     Node 0, Type 0, BuildingBlock: CEKHIL_clean_sbu_0, # of connection points: 4
#     Node 1, Type 0, BuildingBlock: CEKHIL_clean_sbu_0, # of connection points: 4
#     Node 2, Type 0, BuildingBlock: CEKHIL_clean_sbu_0, # of connection points: 4
#     Node 3, Type 0, BuildingBlock: CEKHIL_clean_sbu_0, # of connection points: 4
#     Node 4, Type 0, BuildingBlock: CEKHIL_clean_sbu_0, # of connection points: 4
#     Node 5, Type 0, BuildingBlock: CEKHIL_clean_sbu_0, # of connection points: 4
#     Node 6, Type 0, BuildingBlock: CEKHIL_clean_sbu_0, # of connection points: 4
#     Node 7, Type 0, BuildingBlock: CEKHIL_clean_sbu_0, # of connection points: 4
#     Node 8, Type 0, BuildingBlock: CEKHIL_clean_sbu_0, # of connection points: 4
#     Node 9, Type 0, BuildingBlock: CEKHIL_clean_sbu_0, # of connection points: 4
#     Node 10, Type 0, BuildingBlock: CEKHIL_clean_sbu_0, # of connection points: 4
#     Node 11, Type 0, BuildingBlock: CEKHIL_clean_sbu_0, # of connection points: 4
#     Node 12, Type 0, BuildingBlock: CEKHIL_clean_sbu_0, # of connection points: 4
#     Node 13, Type 0, BuildingBlock: CEKHIL_clean_sbu_0, # of connection points: 4
#     Node 14, Type 0, BuildingBlock: CEKHIL_clean_sbu_0, # of connection points: 4
#     Node 15, Type 0, BuildingBlock: CEKHIL_clean_sbu_0, # of connection points: 4
#     Edge 16, Type (0, 0), BuildingBlock: KIFKEQ_clean_linker_1, # of connection points: 2
#     Edge 17, Type (0, 0), BuildingBlock: KIFKEQ_clean_linker_1, # of connection points: 2
#     Edge 18, Type (0, 0), BuildingBlock: KIFKEQ_clean_linker_1, # of connection points: 2
#     Edge 19, Type (0, 0), BuildingBlock: KIFKEQ_clean_linker_1, # of connection points: 2
#     Edge 20, Type (0, 0), BuildingBlock: KIFKEQ_clean_linker_1, # of connection points: 2
#     Edge 21, Type (0, 0), BuildingBlock: KIFKEQ_clean_linker_1, # of connection points: 2
#     Edge 22, Type (0, 0), BuildingBlock: KIFKEQ_clean_linker_1, # of connection points: 2
#     Edge 23, Type (0, 0), BuildingBlock: KIFKEQ_clean_linker_1, # of connection points: 2
#     Edge 24, Type (0, 0), BuildingBlock: KIFKEQ_clean_linker_1, # of connection points: 2
#     Edge 25, Type (0, 0), BuildingBlock: KIFKEQ_clean_linker_1, # of connection points: 2
#     Edge 26, Type (0, 0), BuildingBlock: KIFKEQ_clean_linker_1, # of connection points: 2
#     Edge 27, Type (0, 0), BuildingBlock: KIFKEQ_clean_linker_1, # of connection points: 2
#     Edge 28, Type (0, 0), BuildingBlock: KIFKEQ_clean_linker_1, # of connection points: 2
#     Edge 29, Type (0, 0), BuildingBlock: KIFKEQ_clean_linker_1, # of connection points: 2
#     Edge 30, Type (0, 0), BuildingBlock: KIFKEQ_clean_linker_1, # of connection points: 2
#     Edge 31, Type (0, 0), BuildingBlock: KIFKEQ_clean_linker_1, # of connection points: 2
#     Edge 32, Type (0, 0), BuildingBlock: KIFKEQ_clean_linker_1, # of connection points: 2
#     Edge 33, Type (0, 0), BuildingBlock: KIFKEQ_clean_linker_1, # of connection points: 2
#     Edge 34, Type (0, 0), BuildingBlock: KIFKEQ_clean_linker_1, # of connection points: 2
#     Edge 35, Type (0, 0), BuildingBlock: KIFKEQ_clean_linker_1, # of connection points: 2
#     Edge 36, Type (0, 0), BuildingBlock: KIFKEQ_clean_linker_1, # of connection points: 2
#     Edge 37, Type (0, 0), BuildingBlock: KIFKEQ_clean_linker_1, # of connection points: 2
#     Edge 38, Type (0, 0), BuildingBlock: KIFKEQ_clean_linker_1, # of connection points: 2
#     Edge 39, Type (0, 0), BuildingBlock: KIFKEQ_clean_linker_1, # of connection points: 2
#     Edge 40, Type (0, 0), BuildingBlock: KIFKEQ_clean_linker_1, # of connection points: 2
#     Edge 41, Type (0, 0), BuildingBlock: KIFKEQ_clean_linker_1, # of connection points: 2
#     Edge 42, Type (0, 0), BuildingBlock: KIFKEQ_clean_linker_1, # of connection points: 2
#     Edge 43, Type (0, 0), BuildingBlock: KIFKEQ_clean_linker_1, # of connection points: 2
#     Edge 44, Type (0, 0), BuildingBlock: KIFKEQ_clean_linker_1, # of connection points: 2
#     Edge 45, Type (0, 0), BuildingBlock: KIFKEQ_clean_linker_1, # of connection points: 2
#     Edge 46, Type (0, 0), BuildingBlock: KIFKEQ_clean_linker_1, # of connection points: 2
#     Edge 47, Type (0, 0), BuildingBlock: KIFKEQ_clean_linker_1, # of connection points: 2
# Relax obj value: 0.147
# Max RMSD: 0.206
# Mean RMSD: 0.126
data_MOF--net-gsi--node1-CEKHIL_clean_sbu_0--edge1-KIFKEQ_clean_linker_1
_symmetry_space_group_name_H-M    P1
_symmetry_Int_Tables_number       1
_symmetry_cell_setting            triclinic
loop_
_symmetry_equiv_pos_as_xyz
'x, y, z'
_cell_length_a     39.366409
_cell_length_b     44.080531
_cell_length_c     41.565706
_cell_angle_alpha  91.108821
_cell_angle_beta   93.260121
_cell_angle_gamma 97.213444
loop_
_atom_site_label
_atom_site_type_symbol
_atom_site_fract_x
_atom_site_fract_y
_atom_site_fract_z
_atom_type_partial_charge
Co0 Co 0.16402 0.15469 0.1223 0.0
O1 O 0.18989 0.12274 0.13835 0.0
O2 O 0.13798 0.12899 0.15223 0.0
C3 C 0.17722 0.14815 0.06983 0.0
O4 O 0.12759 0.18358 0.11133 0.0
Co5 Co 0.19599 0.21222 0.08871 0.0
O6 O 0.14932 0.22476 0.08486 0.0
C7 C 0.21224 0.20373 0.15778 0.0
C8 C 0.16391 0.11348 0.15517 0.0
C9 C 0.12432 0.20927 0.09764 0.0
O10 O 0.18593 0.18319 0.15858 0.0
O11 O 0.22269 0.2153 0.13154 0.0
O12 O 0.15198 0.13071 0.08165 0.0
O13 O 0.19366 0.16808 0.08996 0.0
Co14 Co 0.86169 0.35611 0.13426 0.0
O15 O 0.83691 0.38709 0.15243 0.0
O16 O 0.89096 0.38234 0.16568 0.0
C17 C 0.84101 0.36261 0.0827 0.0
O18 O 0.89752 0.32796 0.1212 0.0
Co19 Co 0.82697 0.2983 0.09682 0.0
O20 O 0.87347 0.28776 0.09035 0.0
C21 C 0.81846 0.30644 0.16657 0.0
C22 C 0.86466 0.39677 0.16995 0.0
C23 C 0.89972 0.30312 0.10467 0.0
O24 O 0.84431 0.32762 0.16885 0.0
O25 O 0.80605 0.29409 0.1396 0.0
O26 O 0.86794 0.3802 0.0949 0.0
O27 O 0.82797 0.34222 0.1017 0.0
Co28 Co 0.17252 0.88573 0.32759 0.0
O29 O 0.19772 0.92282 0.31229 0.0
O30 O 0.14181 0.91037 0.30452 0.0
C31 C 0.20056 0.88927 0.37752 0.0
O32 O 0.13666 0.84998 0.33932 0.0
Co33 Co 0.20784 0.83014 0.35129 0.0
O34 O 0.16148 0.81192 0.36237 0.0
C35 C 0.20253 0.84471 0.28193 0.0
C36 C 0.16877 0.92968 0.29979 0.0
C37 C 0.13483 0.82356 0.35258 0.0
O38 O 0.18034 0.86323 0.28644 0.0
O39 O 0.21868 0.83242 0.3048 0.0
O40 O 0.17432 0.90408 0.37179 0.0
O41 O 0.209 0.87392 0.35336 0.0
Co42 Co 0.86981 0.63592 0.33278 0.0
O43 O 0.90973 0.6533 0.31042 0.0
O44 O 0.901 0.663 0.36133 0.0
C45 C 0.86892 0.58705 0.31275 0.0
O46 O 0.83358 0.62419 0.36568 0.0
Co47 Co 0.80132 0.6041 0.30063 0.0
O48 O 0.78514 0.59716 0.34455 0.0
C49 C 0.82105 0.671 0.29553 0.0
C50 C 0.92025 0.66823 0.33721 0.0
C51 C 0.80314 0.61009 0.36856 0.0
O52 O 0.84491 0.67085 0.31805 0.0
O53 O 0.80355 0.64654 0.2835 0.0
O54 O 0.88932 0.59676 0.33764 0.0
O55 O 0.85087 0.60695 0.30087 0.0
Co56 Co 0.36116 0.85452 0.63558 0.0
O57 O 0.33623 0.88541 0.65367 0.0
O58 O 0.39019 0.88066 0.66727 0.0
C59 C 0.34089 0.86134 0.58393 0.0
O60 O 0.39707 0.82641 0.62262 0.0
Co61 Co 0.32654 0.79693 0.59786 0.0
O62 O 0.37303 0.78607 0.59195 0.0
C63 C 0.31745 0.80493 0.66749 0.0
C64 C 0.36384 0.89507 0.67138 0.0
C65 C 0.39927 0.80147 0.60626 0.0
O66 O 0.34355 0.82586 0.66995 0.0
O67 O 0.30504 0.79287 0.64039 0.0
O68 O 0.36776 0.87881 0.59641 0.0
O69 O 0.32763 0.84086 0.60275 0.0
Co70 Co 0.86715 0.86714 0.89786 0.0
O71 O 0.88347 0.83059 0.9158 0.0
O72 O 0.91319 0.86315 0.8853 0.0
C73 C 0.8445 0.88311 0.944 0.0
O74 O 0.86155 0.90746 0.87466 0.0
Co75 Co 0.79087 0.87877 0.89316 0.0
O76 O 0.80681 0.9172 0.87159 0.0
C77 C 0.81404 0.82987 0.85359 0.0
C78 C 0.91167 0.8381 0.90136 0.0
C79 C 0.83813 0.92406 0.86546 0.0
O80 O 0.84565 0.8417 0.85891 0.0
O81 O 0.78943 0.83933 0.86817 0.0
O82 O 0.87725 0.88925 0.94016 0.0
O83 O 0.82754 0.86677 0.92111 0.0
Co84 Co 0.14859 0.67493 0.89248 0.0
O85 O 0.13425 0.71144 0.91207 0.0
O86 O 0.10265 0.68098 0.8763 0.0
C87 C 0.17067 0.65629 0.93898 0.0
O88 O 0.1527 0.63507 0.86691 0.0
Co89 Co 0.22465 0.66119 0.89511 0.0
O90 O 0.20552 0.62116 0.87491 0.0
C91 C 0.20273 0.71072 0.85505 0.0
C92 C 0.10542 0.70524 0.89497 0.0
C93 C 0.1748 0.61621 0.86276 0.0
O94 O 0.17073 0.70051 0.85733 0.0
O95 O 0.22709 0.70031 0.87136 0.0
O96 O 0.13775 0.65167 0.93189 0.0
O97 O 0.18805 0.67315 0.91934 0.0
Co98 Co 0.85887 0.14358 0.68545 0.0
O99 O 0.81526 0.12346 0.6667 0.0
O100 O 0.85623 0.14763 0.6391 0.0
C101 C 0.86939 0.10466 0.71892 0.0
O102 O 0.9069 0.1679 0.69485 0.0
Co103 Co 0.87135 0.16055 0.75794 0.0
O104 O 0.91897 0.1755 0.74803 0.0
C105 C 0.83153 0.19821 0.71543 0.0
C106 C 0.8255 0.13285 0.639 0.0
C107 C 0.92718 0.17883 0.71901 0.0
O108 O 0.83749 0.18238 0.6906 0.0
O109 O 0.84122 0.19219 0.7443 0.0
O110 O 0.87699 0.10402 0.68888 0.0
O111 O 0.85438 0.12774 0.72732 0.0
Co112 Co 0.17873 0.39322 0.68449 0.0
O113 O 0.21848 0.41512 0.66531 0.0
O114 O 0.17996 0.38123 0.63949 0.0
C115 C 0.16261 0.43441 0.71135 0.0
O116 O 0.13462 0.36529 0.6944 0.0
Co117 Co 0.172 0.38896 0.75868 0.0
O118 O 0.12659 0.36517 0.74749 0.0
C119 C 0.22224 0.35647 0.72629 0.0
C120 C 0.20824 0.39981 0.63872 0.0
C121 C 0.1172 0.35619 0.71865 0.0
O122 O 0.20753 0.3604 0.69842 0.0
O123 O 0.21428 0.36921 0.75227 0.0
O124 O 0.15371 0.42964 0.68082 0.0
O125 O 0.18207 0.41574 0.72345 0.0
Co126 Co 0.65165 0.17701 0.39187 0.0
O127 O 0.63652 0.2129 0.41187 0.0
O128 O 0.60463 0.18127 0.37735 0.0
C129 C 0.6771 0.16036 0.438 0.0
O130 O 0.65666 0.13751 0.36604 0.0
Co131 Co 0.72865 0.16698 0.39152 0.0
O132 O 0.71193 0.12932 0.36558 0.0
C133 C 0.70216 0.21567 0.35371 0.0
C134 C 0.60732 0.20583 0.39561 0.0
C135 C 0.68033 0.12195 0.35697 0.0
O136 O 0.67092 0.20313 0.35584 0.0
O137 O 0.7276 0.20707 0.37007 0.0
O138 O 0.64414 0.15364 0.43192 0.0
O139 O 0.69238 0.17742 0.41723 0.0
Co140 Co 0.66568 0.65509 0.62436 0.0
O141 O 0.69183 0.62344 0.64074 0.0
O142 O 0.63954 0.62901 0.65395 0.0
C143 C 0.68054 0.64825 0.57243 0.0
O144 O 0.62868 0.68348 0.61304 0.0
Co145 Co 0.69586 0.71248 0.58988 0.0
O146 O 0.64892 0.724 0.58491 0.0
C147 C 0.71135 0.70627 0.65984 0.0
C148 C 0.66569 0.61379 0.65716 0.0
C149 C 0.62448 0.70858 0.59849 0.0
O150 O 0.687 0.6838 0.66078 0.0
O151 O 0.72059 0.71838 0.63346 0.0
O152 O 0.65464 0.63106 0.58348 0.0
O153 O 0.69591 0.66868 0.59258 0.0
Co154 Co 0.67177 0.38309 0.82599 0.0
O155 O 0.6978 0.41996 0.81092 0.0
O156 O 0.64186 0.40828 0.80271 0.0
C157 C 0.69951 0.38653 0.87603 0.0
O158 O 0.63483 0.34797 0.83743 0.0
Co159 Co 0.70411 0.32654 0.85111 0.0
O160 O 0.6577 0.31065 0.86374 0.0
C161 C 0.69828 0.33879 0.78089 0.0
C162 C 0.66912 0.42731 0.79829 0.0
C163 C 0.63178 0.32236 0.85233 0.0
O164 O 0.67986 0.36057 0.78489 0.0
O165 O 0.71178 0.3247 0.80399 0.0
O166 O 0.67352 0.40159 0.87004 0.0
O167 O 0.70769 0.37058 0.85217 0.0
Co168 Co 0.36674 0.13512 0.83184 0.0
O169 O 0.40714 0.15227 0.81012 0.0
O170 O 0.3973 0.16251 0.86064 0.0
C171 C 0.36626 0.08606 0.81249 0.0
O172 O 0.32969 0.12342 0.86413 0.0
Co173 Co 0.2991 0.10352 0.79772 0.0
O174 O 0.28118 0.09805 0.84111 0.0
C175 C 0.31971 0.17005 0.79222 0.0
C176 C 0.41704 0.16755 0.83683 0.0
C177 C 0.29869 0.11011 0.86585 0.0
O178 O 0.34226 0.16996 0.81594 0.0
O179 O 0.30272 0.14557 0.77971 0.0
O180 O 0.38615 0.09598 0.83764 0.0
O181 O 0.34865 0.10594 0.79991 0.0
Co182 Co 0.36887 0.36742 0.39376 0.0
O183 O 0.38543 0.33123 0.412 0.0
O184 O 0.41589 0.36474 0.38304 0.0
C185 C 0.34361 0.38163 0.43917 0.0
O186 O 0.36265 0.40763 0.37077 0.0
Co187 Co 0.2919 0.37577 0.38619 0.0
O188 O 0.30707 0.41449 0.36462 0.0
C189 C 0.31927 0.3286 0.34799 0.0
C190 C 0.41414 0.3394 0.39868 0.0
C191 C 0.33858 0.42293 0.3602 0.0
O192 O 0.35005 0.34218 0.35387 0.0
O193 O 0.2934 0.33618 0.36207 0.0
O194 O 0.37634 0.38933 0.43632 0.0
O195 O 0.32818 0.36514 0.41559 0.0
Co196 Co 0.35529 0.64478 0.18438 0.0
O197 O 0.31347 0.62283 0.16409 0.0
O198 O 0.35323 0.65075 0.13828 0.0
C199 C 0.3681 0.60589 0.2169 0.0
O200 O 0.40157 0.67129 0.19591 0.0
Co201 Co 0.36247 0.65983 0.25755 0.0
O202 O 0.40903 0.68004 0.24943 0.0
C203 C 0.31583 0.69049 0.21503 0.0
C204 C 0.32333 0.63429 0.13709 0.0
C205 C 0.41925 0.68364 0.22103 0.0
O206 O 0.33051 0.68146 0.19045 0.0
O207 O 0.32219 0.68151 0.24362 0.0
O208 O 0.37653 0.60657 0.18705 0.0
O209 O 0.3508 0.62739 0.2253 0.0
Co210 Co 0.67689 0.89332 0.18787 0.0
O211 O 0.71759 0.91389 0.16891 0.0
O212 O 0.67986 0.8789 0.14387 0.0
C213 C 0.66055 0.93607 0.21132 0.0
O214 O 0.63187 0.8665 0.19747 0.0
Co215 Co 0.66684 0.89263 0.26164 0.0
O216 O 0.62117 0.86953 0.24986 0.0
C217 C 0.71704 0.85682 0.23347 0.0
C218 C 0.70828 0.89727 0.14296 0.0
C219 C 0.61299 0.85913 0.22126 0.0
O220 O 0.70446 0.8608 0.20477 0.0
O221 O 0.70788 0.87025 0.25854 0.0
O222 O 0.65281 0.92975 0.18083 0.0
O223 O 0.67907 0.9178 0.22559 0.0
H224 H 0.18709 0.21127 0.21713 0.0
H225 H 0.28033 0.22342 0.16652 0.0
H226 H 0.21743 0.23759 0.26447 0.0
H227 H 0.31134 0.24806 0.21423 0.0
H228 H 0.34146 0.3288 0.28695 0.0
H229 H 0.31795 0.29446 0.2422 0.0
H230 H 0.25693 0.23904 0.30793 0.0
H231 H 0.27899 0.27462 0.35194 0.0
C232 C 0.21429 0.21891 0.21646 0.0
C233 C 0.23123 0.21564 0.18807 0.0
C234 C 0.23188 0.2339 0.24367 0.0
C235 C 0.26702 0.24537 0.24331 0.0
C236 C 0.28421 0.24041 0.21532 0.0
C237 C 0.26647 0.22605 0.18798 0.0
C238 C 0.32365 0.30884 0.29178 0.0
C239 C 0.31189 0.30437 0.32273 0.0
C240 C 0.31006 0.28905 0.26616 0.0
C241 C 0.28492 0.26404 0.27115 0.0
C242 C 0.27533 0.25846 0.30279 0.0
C243 C 0.28831 0.27861 0.32815 0.0
H244 H 0.77618 0.25368 0.17388 0.0
H245 H 0.81883 0.33758 0.22455 0.0
H246 H 0.74259 0.23877 0.21934 0.0
H247 H 0.78421 0.32294 0.27016 0.0
H248 H 0.75596 0.26056 0.3569 0.0
H249 H 0.78166 0.28682 0.3119 0.0
H250 H 0.6948 0.24892 0.24904 0.0
H251 H 0.6696 0.22148 0.29434 0.0
C252 C 0.77831 0.26904 0.19476 0.0
C253 C 0.80041 0.29674 0.19567 0.0
C254 C 0.75858 0.26067 0.22071 0.0
C255 C 0.76016 0.27984 0.24828 0.0
C256 C 0.78243 0.30755 0.24934 0.0
C257 C 0.80246 0.31587 0.22332 0.0
C258 C 0.74189 0.25842 0.33362 0.0
C259 C 0.7111 0.23846 0.32897 0.0
C260 C 0.7566 0.27366 0.30778 0.0
C261 C 0.74077 0.26941 0.27663 0.0
C262 C 0.70812 0.252 0.27262 0.0
C263 C 0.69338 0.23662 0.29861 0.0
H264 H 0.31641 0.73591 0.17097 0.0
H265 H 0.26002 0.6957 0.249 0.0
H266 H 0.28015 0.77739 0.1692 0.0
H267 H 0.22363 0.73634 0.24678 0.0
H268 H 0.15941 0.80369 0.24566 0.0
H269 H 0.18067 0.76426 0.21303 0.0
H270 H 0.28022 0.8182 0.21546 0.0
H271 H 0.25895 0.85724 0.24826 0.0
C272 C 0.29572 0.73552 0.18711 0.0
C273 C 0.2913 0.71296 0.21051 0.0
C274 C 0.27495 0.75911 0.18597 0.0
C275 C 0.2489 0.75993 0.20761 0.0
C276 C 0.24306 0.73607 0.22937 0.0
C277 C 0.26422 0.71301 0.231 0.0
C278 C 0.18507 0.80807 0.2372 0.0
C279 C 0.20772 0.83323 0.24955 0.0
C280 C 0.19736 0.78535 0.21883 0.0
C281 C 0.2323 0.78786 0.21252 0.0
C282 C 0.25319 0.81562 0.22 0.0
C283 C 0.24098 0.83813 0.23866 0.0
H284 H 0.772 0.67965 0.24885 0.0
H285 H 0.85098 0.72921 0.3132 0.0
H286 H 0.75482 0.72737 0.23033 0.0
H287 H 0.83407 0.77746 0.2938 0.0
H288 H 0.753 0.84638 0.28933 0.0
H289 H 0.78482 0.80391 0.30078 0.0
H290 H 0.76921 0.77338 0.201 0.0
H291 H 0.73619 0.81567 0.18957 0.0
C292 C 0.78607 0.70075 0.25881 0.0
C293 C 0.8126 0.70052 0.28293 0.0
C294 C 0.77642 0.72822 0.24781 0.0
C295 C 0.79308 0.75627 0.26051 0.0
C296 C 0.8205 0.75618 0.28377 0.0
C297 C 0.83018 0.72856 0.29488 0.0
C298 C 0.75663 0.8309 0.26963 0.0
C299 C 0.74131 0.83405 0.23865 0.0
C300 C 0.77529 0.80666 0.27618 0.0
C301 C 0.77921 0.78503 0.25191 0.0
C302 C 0.76606 0.7894 0.22036 0.0
C303 C 0.74728 0.8137 0.21378 0.0
H304 H 0.26975 0.75516 0.67255 0.0
H305 H 0.3234 0.83237 0.72798 0.0
H306 H 0.2377 0.73941 0.71866 0.0
H307 H 0.29042 0.81682 0.77437 0.0
H308 H 0.26179 0.74979 0.85695 0.0
H309 H 0.28715 0.77692 0.81237 0.0
H310 H 0.19385 0.75094 0.75305 0.0
H311 H 0.16874 0.72253 0.79783 0.0
C312 C 0.27464 0.76893 0.69459 0.0
C313 C 0.29944 0.79494 0.69659 0.0
C314 C 0.25581 0.76008 0.72098 0.0
C315 C 0.26106 0.77702 0.75018 0.0
C316 C 0.28581 0.80314 0.75227 0.0
C317 C 0.30486 0.81198 0.72576 0.0
C318 C 0.24635 0.7503 0.83459 0.0
C319 C 0.2135 0.73344 0.83068 0.0
C320 C 0.26088 0.76613 0.80902 0.0
C321 C 0.24286 0.76565 0.77887 0.0
C322 C 0.20874 0.75114 0.7758 0.0
C323 C 0.19415 0.73516 0.80152 0.0
H324 H 0.70407 0.68752 0.72243 0.0
H325 H 0.76123 0.75521 0.66578 0.0
H326 H 0.7341 0.71134 0.77151 0.0
H327 H 0.79012 0.77914 0.71427 0.0
H328 H 0.85145 0.8121 0.80385 0.0
H329 H 0.83055 0.77654 0.75896 0.0
H330 H 0.73304 0.75751 0.80205 0.0
H331 H 0.75405 0.7918 0.84685 0.0
C332 C 0.72297 0.70736 0.72038 0.0
C333 C 0.72985 0.71953 0.69008 0.0
C334 C 0.74021 0.72105 0.74849 0.0
C335 C 0.76463 0.74722 0.74691 0.0
C336 C 0.77205 0.75875 0.71652 0.0
C337 C 0.75502 0.74511 0.68859 0.0
C338 C 0.82584 0.7998 0.80398 0.0
C339 C 0.80426 0.80529 0.82863 0.0
C340 C 0.81373 0.77958 0.77818 0.0
C341 C 0.77987 0.76442 0.77661 0.0
C342 C 0.75926 0.76849 0.8024 0.0
C343 C 0.77129 0.78856 0.82803 0.0
H344 H 0.74879 0.36545 0.7459 0.0
H345 H 0.66919 0.28894 0.74632 0.0
H346 H 0.78293 0.3351 0.71383 0.0
H347 H 0.70303 0.25854 0.71427 0.0
H348 H 0.77886 0.20422 0.67095 0.0
H349 H 0.7424 0.24562 0.66907 0.0
H350 H 0.80573 0.29299 0.74732 0.0
H351 H 0.84123 0.25173 0.74963 0.0
C352 C 0.73753 0.34291 0.7371 0.0
C353 C 0.70657 0.32936 0.74862 0.0
C354 C 0.75722 0.3254 0.71906 0.0
C355 C 0.746 0.29424 0.71238 0.0
C356 C 0.71238 0.28247 0.71908 0.0
C357 C 0.69282 0.29994 0.7373 0.0
C358 C 0.78526 0.22387 0.68721 0.0
C359 C 0.81247 0.22468 0.71079 0.0
C360 C 0.76454 0.24752 0.68604 0.0
C361 C 0.77141 0.27265 0.7078 0.0
C362 C 0.80011 0.27425 0.7298 0.0
C363 C 0.82019 0.25041 0.73147 0.0
H364 H 0.26554 0.34993 0.77836 0.0
H365 H 0.23537 0.3123 0.68268 0.0
H366 H 0.29619 0.30685 0.78993 0.0
H367 H 0.26754 0.26938 0.69392 0.0
H368 H 0.26818 0.17898 0.7483 0.0
H369 H 0.25366 0.22664 0.72723 0.0
H370 H 0.3405 0.27576 0.7824 0.0
H371 H 0.35465 0.22758 0.80452 0.0
C372 C 0.26613 0.33278 0.75944 0.0
C373 C 0.24714 0.33409 0.72988 0.0
C374 C 0.28414 0.30816 0.76601 0.0
C375 C 0.28381 0.2843 0.7431 0.0
C376 C 0.26758 0.28706 0.71238 0.0
C377 C 0.24935 0.31175 0.70582 0.0
C378 C 0.28446 0.19984 0.75588 0.0
C379 C 0.31235 0.19944 0.77851 0.0
C380 C 0.27634 0.22725 0.74336 0.0
C381 C 0.29597 0.2551 0.75295 0.0
C382 C 0.32464 0.25471 0.77475 0.0
C383 C 0.33271 0.22714 0.78749 0.0
H384 H 0.11276 0.94809 0.26655 0.0
H385 H 0.22119 0.97415 0.28783 0.0
H386 H 0.11114 0.99217 0.23193 0.0
H387 H 0.21952 0.0185 0.254 0.0
H388 H 0.11412 0.09019 0.19491 0.0
H389 H 0.11477 0.0468 0.23054 0.0
H390 H 0.21436 0.03227 0.19915 0.0
H391 H 0.21397 0.07604 0.16425 0.0
C392 C 0.13621 0.96337 0.2641 0.0
C393 C 0.16711 0.95743 0.27998 0.0
C394 C 0.13528 0.9888 0.24431 0.0
C395 C 0.16524 1.00905 0.23984 0.0
C396 C 0.196 1.00326 0.25621 0.0
C397 C 0.19693 0.97785 0.2759 0.0
C398 C 0.13617 0.07774 0.19564 0.0
C399 C 0.16402 0.08674 0.17669 0.0
C400 C 0.13647 0.05266 0.21599 0.0
C401 C 0.16465 0.03582 0.21798 0.0
C402 C 0.19242 0.04484 0.19885 0.0
C403 C 0.19212 0.06991 0.17857 0.0
H404 H 0.81054 0.42233 0.19198 0.0
H405 H 0.92091 0.42928 0.20283 0.0
H406 H 0.81123 0.46483 0.23018 0.0
H407 H 0.92188 0.473 0.24033 0.0
H408 H 0.91022 0.54106 0.32387 0.0
H409 H 0.90936 0.49319 0.2922 0.0
H410 H 0.82475 0.51769 0.23153 0.0
H411 H 0.8249 0.56405 0.26333 0.0
C412 C 0.83506 0.4331 0.20237 0.0
C413 C 0.86568 0.42254 0.19396 0.0
C414 C 0.83552 0.4577 0.22429 0.0
C415 C 0.86667 0.47295 0.23823 0.0
C416 C 0.89734 0.46185 0.23042 0.0
C417 C 0.89683 0.43689 0.20867 0.0
C418 C 0.89114 0.53583 0.30408 0.0
C419 C 0.86757 0.55645 0.29633 0.0
C420 C 0.89082 0.50853 0.28567 0.0
C421 C 0.86688 0.50124 0.25915 0.0
C422 C 0.84314 0.52184 0.252 0.0
C423 C 0.8434 0.54878 0.27028 0.0
H424 H 0.23197 0.0888 0.87773 0.0
H425 H 0.32518 0.13589 0.92436 0.0
H426 H 0.20129 0.09743 0.92561 0.0
H427 H 0.29469 0.14374 0.97264 0.0
H428 H 0.225 0.18517 0.03926 0.0
H429 H 0.25382 0.1741 0.99103 0.0
H430 H 0.19187 0.08596 0.98059 0.0
H431 H 0.16227 0.09759 0.02878 0.0
C432 C 0.24617 0.10056 0.89836 0.0
C433 C 0.28122 0.11175 0.89686 0.0
C434 C 0.22846 0.10545 0.92601 0.0
C435 C 0.24519 0.12167 0.95313 0.0
C436 C 0.28057 0.13179 0.95208 0.0
C437 C 0.29827 0.12698 0.92439 0.0
C438 C 0.21718 0.16353 0.02652 0.0
C439 C 0.19123 0.14229 0.03799 0.0
C440 C 0.23409 0.15698 0.99895 0.0
C441 C 0.22581 0.12885 0.98194 0.0
C442 C 0.19899 0.10794 0.99283 0.0
C443 C 0.1819 0.11459 0.02048 0.0
H444 H 0.77541 0.33995 0.06401 0.0
H445 H 0.86212 0.39953 0.03252 0.0
H446 H 0.74155 0.35046 0.01572 0.0
H447 H 0.82796 0.40955 0.98327 0.0
H448 H 0.7661 0.37781 0.88426 0.0
H449 H 0.80103 0.37592 0.93426 0.0
H450 H 0.71575 0.39556 0.98849 0.0
H451 H 0.68059 0.39811 0.93785 0.0
C452 C 0.7874 0.35524 0.04669 0.0
C453 C 0.8217 0.36874 0.05212 0.0
C454 C 0.76772 0.36151 0.01912 0.0
C455 C 0.78188 0.38103 0.99577 0.0
C456 C 0.8163 0.39443 1.00091 0.0
C457 C 0.8359 0.38864 0.029 0.0
C458 C 0.75478 0.38206 0.90681 0.0
C459 C 0.72044 0.38792 0.90709 0.0
C460 C 0.77498 0.38121 0.93547 0.0
C461 C 0.76125 0.38558 0.96536 0.0
C462 C 0.72703 0.39202 0.96577 0.0
C463 C 0.70692 0.39357 0.93686 0.0
H464 H 0.27546 0.83866 0.56449 0.0
H465 H 0.36222 0.8992 0.53461 0.0
H466 H 0.24182 0.85007 0.51636 0.0
H467 H 0.32832 0.91015 0.48555 0.0
H468 H 0.26725 0.8809 0.38573 0.0
H469 H 0.30184 0.87786 0.43573 0.0
H470 H 0.21594 0.89549 0.49015 0.0
H471 H 0.18111 0.89918 0.43952 0.0
C472 C 0.28751 0.85435 0.54755 0.0
C473 C 0.32176 0.86786 0.55339 0.0
C474 C 0.26797 0.86113 0.52008 0.0
C475 C 0.28221 0.88121 0.49725 0.0
C476 C 0.31658 0.8946 0.50278 0.0
C477 C 0.33605 0.88827 0.53077 0.0
C478 C 0.25573 0.88449 0.40833 0.0
C479 C 0.22131 0.89012 0.40865 0.0
C480 C 0.27573 0.88295 0.437 0.0
C481 C 0.26173 0.88641 0.46693 0.0
C482 C 0.22743 0.89264 0.4674 0.0
C483 C 0.20751 0.89486 0.43849 0.0
H484 H 0.65204 0.61721 0.51648 0.0
H485 H 0.7473 0.6625 0.56052 0.0
H486 H 0.68144 0.60688 0.46767 0.0
H487 H 0.77696 0.65046 0.51375 0.0
H488 H 0.81923 0.65404 0.41594 0.0
H489 H 0.78839 0.66292 0.46318 0.0
H490 H 0.71857 0.5805 0.44029 0.0
H491 H 0.74847 0.573 0.39139 0.0
C492 C 0.67924 0.62478 0.51581 0.0
C493 C 0.6971 0.64114 0.54223 0.0
C494 C 0.69633 0.61863 0.48791 0.0
C495 C 0.73189 0.62807 0.48607 0.0
C496 C 0.74955 0.64364 0.51316 0.0
C497 C 0.73243 0.65041 0.54041 0.0
C498 C 0.7976 0.63753 0.42115 0.0
C499 C 0.78666 0.61263 0.39987 0.0
C500 C 0.77973 0.64254 0.44857 0.0
C501 C 0.75073 0.62237 0.4563 0.0
C502 C 0.74026 0.59697 0.43526 0.0
C503 C 0.75774 0.59237 0.40731 0.0
H504 H 0.9106 0.24659 0.08202 0.0
H505 H 0.9653 0.33002 0.12486 0.0
H506 H 0.96393 0.22429 0.08098 0.0
H507 H 0.01915 0.30742 0.12366 0.0
H508 H 0.11198 0.26731 0.08208 0.0
H509 H 0.05896 0.2902 0.0846 0.0
H510 H 1.00771 0.20519 0.11762 0.0
H511 H 0.061 0.18212 0.11522 0.0
C512 C 0.93401 0.26036 0.09116 0.0
C513 C 0.93333 0.29035 0.10344 0.0
C514 C 0.96472 0.24732 0.09079 0.0
C515 C 0.99604 0.26385 0.10234 0.0
C516 C 0.99559 0.29399 0.11435 0.0
C517 C 0.96465 0.30697 0.11512 0.0
C518 C 0.08945 0.2533 0.08979 0.0
C519 C 0.09103 0.22262 0.09825 0.0
C520 C 0.059 0.26664 0.09151 0.0
C521 C 0.02887 0.24971 0.10138 0.0
C522 C 0.03027 0.21896 0.10965 0.0
C523 C 0.06093 0.20568 0.10833 0.0
H524 H 0.95296 0.69538 0.39216 0.0
H525 H 0.95804 0.69396 0.2887 0.0
H526 H 1.00279 0.73458 0.39716 0.0
H527 H 1.00792 0.73345 0.29372 0.0
H528 H 0.07596 0.82612 0.31419 0.0
H529 H 0.02374 0.78922 0.31062 0.0
H530 H 0.06534 0.73913 0.3885 0.0
H531 H 0.11741 0.77572 0.39196 0.0
C532 C 0.96476 0.70335 0.37044 0.0
C533 C 0.95153 0.69132 0.34002 0.0
C534 C 0.99341 0.72585 0.37334 0.0
C535 C 1.00941 0.73733 0.34586 0.0
C536 C 0.99606 0.72541 0.31538 0.0
C537 C 0.96764 0.70255 0.31251 0.0
C538 C 0.07373 0.80755 0.33094 0.0
C539 C 0.10099 0.80403 0.35343 0.0
C540 C 0.04393 0.78617 0.32863 0.0
C541 C 0.04036 0.76102 0.34911 0.0
C542 C 0.06705 0.75824 0.37243 0.0
C543 C 0.09699 0.77928 0.37439 0.0
H544 H 0.61082 0.76574 0.58105 0.0
H545 H 0.56194 0.68149 0.61824 0.0
H546 H 0.55765 0.78827 0.58393 0.0
H547 H 0.5084 0.70422 0.62095 0.0
H548 H 0.40991 0.74423 0.58559 0.0
H549 H 0.46331 0.72199 0.58449 0.0
H550 H 0.51895 0.80645 0.62354 0.0
H551 H 0.46505 0.82896 0.62484 0.0
C552 C 0.58872 0.75184 0.58972 0.0
C553 C 0.59095 0.72154 0.59923 0.0
C554 C 0.55817 0.76499 0.59165 0.0
C555 C 0.52856 0.74824 0.60277 0.0
C556 C 0.53057 0.71784 0.61204 0.0
C557 C 0.56136 0.70476 0.61052 0.0
C558 C 0.43343 0.75829 0.59393 0.0
C559 C 0.43286 0.78864 0.60519 0.0
C560 C 0.46417 0.7453 0.59353 0.0
C561 C 0.49564 0.76224 0.604 0.0
C562 C 0.49528 0.7927 0.61506 0.0
C563 C 0.46431 0.80563 0.6159 0.0
H564 H 0.87165 0.10564 0.78485 0.0
H565 H 0.87225 0.04446 0.70264 0.0
H566 H 0.86886 0.06187 0.8207 0.0
H567 H 0.86829 1.00068 0.73854 0.0
H568 H 0.7965 0.94626 0.81954 0.0
H569 H 0.80954 0.9893 0.78424 0.0
H570 H 0.91194 1.0066 0.8286 0.0
H571 H 0.89938 0.96247 0.86359 0.0
C572 C 0.8717 0.08291 0.77447 0.0
C573 C 0.87226 0.07858 0.74085 0.0
C574 C 0.87019 0.05791 0.79503 0.0
C575 C 0.86848 0.02793 0.7824 0.0
C576 C 0.86984 0.02358 0.74891 0.0
C577 C 0.87218 0.04866 0.72839 0.0
C578 C 0.82186 0.95915 0.82193 0.0
C579 C 0.84683 0.95091 0.84465 0.0
C580 C 0.82932 0.98371 0.80152 0.0
C581 C 0.86171 1.00122 0.80364 0.0
C582 C 0.88676 0.99338 0.82645 0.0
C583 C 0.87956 0.96817 0.84644 0.0
H584 H 0.20481 0.56392 0.8639 0.0
H585 H 0.12484 0.60559 0.81282 0.0
H586 H 0.19507 0.52035 0.82651 0.0
H587 H 0.11491 0.56133 0.7749 0.0
H588 H 0.1496 0.49241 0.69394 0.0
H589 H 0.14658 0.53627 0.73089 0.0
H590 H 0.15155 0.47693 0.81195 0.0
H591 H 0.15506 0.43391 0.77558 0.0
C592 C 0.18481 0.56365 0.84485 0.0
C593 C 0.16556 0.58832 0.84155 0.0
C594 C 0.17909 0.5385 0.82339 0.0
C595 C 0.15408 0.53716 0.79766 0.0
C596 C 0.13445 0.56166 0.79437 0.0
C597 C 0.13991 0.58686 0.81628 0.0
C598 C 0.14916 0.48873 0.7196 0.0
C599 C 0.15305 0.45974 0.73181 0.0
C600 C 0.14748 0.51383 0.7408 0.0
C601 C 0.14958 0.51027 0.7745 0.0
C602 C 0.15075 0.48074 0.78626 0.0
C603 C 0.15262 0.45595 0.7653 0.0
H604 H 0.7696 0.93292 0.13335 0.0
H605 H 0.69514 0.86307 0.08718 0.0
H606 H 0.80392 0.93324 0.08586 0.0
H607 H 0.72944 0.8628 0.04047 0.0
H608 H 0.77658 0.88614 0.94816 0.0
H609 H 0.74518 0.89249 0.9958 0.0
H610 H 0.84025 0.90416 0.05451 0.0
H611 H 0.87208 0.89861 1.00593 0.0
C612 C 0.76052 0.91765 0.11311 0.0
C613 C 0.72938 0.89814 0.11409 0.0
C614 C 0.78034 0.91768 0.08591 0.0
C615 C 0.76949 0.89826 0.05895 0.0
C616 C 0.73845 0.87864 0.06026 0.0
C617 C 0.71874 0.87864 0.08728 0.0
C618 C 0.79099 0.89045 0.97112 0.0
C619 C 0.82692 0.89165 0.97313 0.0
C620 C 0.77284 0.89382 0.99865 0.0
C621 C 0.78989 0.89814 0.02939 0.0
C622 C 0.82611 0.90088 0.03134 0.0
C623 C 0.84443 0.89773 1.00348 0.0
H624 H 0.23275 0.63596 0.94118 0.0
H625 H 0.14958 0.64949 1.00088 0.0
H626 H 0.26813 0.62566 0.9884 0.0
H627 H 0.18564 0.64 0.04896 0.0
H628 H 0.25683 0.60629 0.129 0.0
H629 H 0.21748 0.60592 0.08116 0.0
H630 H 0.29779 0.65717 0.03058 0.0
H631 H 0.33697 0.65695 0.07788 0.0
C632 C 0.22185 0.63641 0.96447 0.0
C633 C 0.18844 0.64382 0.96729 0.0
C634 C 0.24232 0.63074 0.99169 0.0
C635 C 0.23023 0.63276 0.02274 0.0
C636 C 0.1959 0.63822 0.02547 0.0
C637 C 0.17514 0.64358 0.99795 0.0
C638 C 0.26618 0.61709 0.10747 0.0
C639 C 0.30019 0.63151 0.10727 0.0
C640 C 0.24349 0.6171 0.08011 0.0
C641 C 0.25431 0.63142 0.05181 0.0
C642 C 0.28854 0.64538 0.0516 0.0
C643 C 0.31111 0.64539 0.07887 0.0
H644 H 0.74371 0.17913 0.45488 0.0
H645 H 0.65589 0.12172 0.48732 0.0
H646 H 0.77733 0.16838 0.50237 0.0
H647 H 0.6907 0.10947 0.53529 0.0
H648 H 0.7552 0.12657 0.63414 0.0
H649 H 0.71792 0.12913 0.5854 0.0
H650 H 0.80645 0.13292 0.52793 0.0
H651 H 0.8435 0.13232 0.5767 0.0
C652 C 0.7316 0.16366 0.47199 0.0
C653 C 0.69695 0.15123 0.46706 0.0
C654 C 0.75122 0.15719 0.49936 0.0
C655 C 0.73722 0.13758 0.52283 0.0
C656 C 0.70247 0.12481 0.51793 0.0
C657 C 0.6825 0.13164 0.49034 0.0
C658 C 0.76654 0.1276 0.61098 0.0
C659 C 0.80235 0.12962 0.60928 0.0
C660 C 0.74512 0.12895 0.58294 0.0
C661 C 0.75899 0.13188 0.55246 0.0
C662 C 0.7947 0.13177 0.55086 0.0
C663 C 0.81607 0.13113 0.57886 0.0
H664 H 0.27766 0.41592 0.63473 0.0
H665 H 0.18456 0.38819 0.57629 0.0
H666 H 0.31109 0.41371 0.5871 0.0
H667 H 0.21716 0.38803 0.52846 0.0
H668 H 0.28214 0.35305 0.4548 0.0
H669 H 0.25117 0.35949 0.50227 0.0
H670 H 0.33033 0.43117 0.53789 0.0
H671 H 0.36275 0.42304 0.49035 0.0
C672 C 0.26427 0.40994 0.61155 0.0
C673 C 0.22845 0.40191 0.60938 0.0
C674 C 0.28346 0.40879 0.58406 0.0
C675 C 0.26725 0.40013 0.5535 0.0
C676 C 0.23111 0.3937 0.55141 0.0
C677 C 0.21215 0.39411 0.57891 0.0
C678 C 0.29305 0.37035 0.47261 0.0
C679 C 0.32497 0.38763 0.46851 0.0
C680 C 0.27494 0.37432 0.5 0.0
C681 C 0.28755 0.3963 0.52423 0.0
C682 C 0.31963 0.4138 0.52013 0.0
C683 C 0.33823 0.40934 0.49271 0.0
H684 H 0.10836 0.76333 0.92101 0.0
H685 H 0.03814 0.69138 0.87292 0.0
H686 H 0.06192 0.79531 0.92348 0.0
H687 H 0.99163 0.72319 0.87583 0.0
H688 H 0.91046 0.77821 0.91913 0.0
H689 H 0.95702 0.74615 0.91808 0.0
H690 H 0.02439 0.82221 0.88437 0.0
H691 H 0.97781 0.85407 0.88494 0.0
C692 C 0.08301 0.75427 0.91105 0.0
C693 C 0.07708 0.72474 0.89673 0.0
C694 C 0.05639 0.77268 0.91235 0.0
C695 C 0.02294 0.76186 0.89991 0.0
C696 C 0.01695 0.73219 0.88591 0.0
C697 C 0.0437 0.714 0.88408 0.0
C698 C 0.93524 0.78813 0.91162 0.0
C699 C 0.94031 0.81878 0.90214 0.0
C700 C 0.96189 0.76969 0.91083 0.0
C701 C 0.99454 0.78155 0.90113 0.0
C702 C 0.99973 0.81235 0.8922 0.0
C703 C 0.97293 0.8306 0.89242 0.0
H704 H 0.06997 0.33758 0.76219 0.0
H705 H 0.09631 0.31867 0.66499 0.0
H706 H 0.02644 0.29335 0.7587 0.0
H707 H 0.05236 0.27376 0.66162 0.0
H708 H 0.94381 0.21163 0.66482 0.0
H709 H 0.9892 0.25486 0.66148 0.0
H710 H 0.02702 0.23829 0.75822 0.0
H711 H 0.9819 0.19571 0.76169 0.0
C712 C 0.06636 0.32415 0.73988 0.0
C713 C 0.08708 0.33179 0.71398 0.0
C714 C 0.04146 0.29848 0.73799 0.0
C715 C 0.03629 0.2794 0.71015 0.0
C716 C 0.05567 0.28781 0.6835 0.0
C717 C 0.08083 0.31366 0.68542 0.0
C718 C 0.96235 0.21674 0.68506 0.0
C719 C 0.95888 0.20021 0.71364 0.0
C720 C 0.98831 0.24167 0.68319 0.0
C721 C 1.01134 0.25066 0.70988 0.0
C722 C 1.00921 0.23271 0.7375 0.0
C723 C 0.98343 0.20798 0.73938 0.0
H724 H 0.53991 0.19163 0.37382 0.0
H725 H 0.61025 0.26411 0.42089 0.0
H726 H 0.4936 0.22376 0.37575 0.0
H727 H 0.56404 0.29635 0.42246 0.0
H728 H 0.48068 0.35518 0.38291 0.0
H729 H 0.52709 0.32304 0.38312 0.0
H730 H 0.45884 0.24751 0.41672 0.0
H731 H 0.41253 0.27975 0.41689 0.0
C732 C 0.54552 0.2144 0.38461 0.0
C733 C 0.57888 0.22521 0.39723 0.0
C734 C 0.5189 0.23279 0.38585 0.0
C735 C 0.52501 0.26271 0.39924 0.0
C736 C 0.55842 0.27354 0.41175 0.0
C737 C 0.5849 0.25497 0.41099 0.0
C738 C 0.4756 0.33178 0.39053 0.0
C739 C 0.44281 0.32014 0.39995 0.0
C740 C 0.50227 0.31336 0.39076 0.0
C741 C 0.49677 0.2826 0.39988 0.0
C742 C 0.46396 0.27098 0.4093 0.0
C743 C 0.43744 0.28955 0.40959 0.0
H744 H 0.71594 0.57651 0.66608 0.0
H745 H 0.6157 0.58979 0.69639 0.0
H746 H 0.71618 0.53216 0.70014 0.0
H747 H 0.61621 0.54583 0.73123 0.0
H748 H 0.6136 0.44661 0.7652 0.0
H749 H 0.61248 0.49137 0.73157 0.0
H750 H 0.72089 0.51678 0.75436 0.0
H751 H 0.72206 0.47167 0.78718 0.0
C752 C 0.69399 0.57009 0.68017 0.0
C753 C 0.6658 0.58682 0.67839 0.0
C754 C 0.69419 0.54466 0.69997 0.0
C755 C 0.66626 0.53518 0.71874 0.0
C756 C 0.63804 0.55201 0.71693 0.0
C757 C 0.63782 0.57743 0.69704 0.0
C758 C 0.63718 0.46181 0.7631 0.0
C759 C 0.66793 0.45539 0.7789 0.0
C760 C 0.63653 0.48766 0.74389 0.0
C761 C 0.66662 0.5079 0.73994 0.0
C762 C 0.69727 0.5016 0.75618 0.0
C763 C 0.69791 0.47574 0.77529 0.0
H764 H 0.40756 0.04025 0.82462 0.0
H765 H 0.32281 0.06259 0.7629 0.0
H766 H 0.40721 0.99216 0.79343 0.0
H767 H 0.32316 0.01602 0.7316 0.0
H768 H 0.41982 0.9278 0.7045 0.0
H769 H 0.42036 0.97169 0.74173 0.0
H770 H 0.30972 0.96311 0.7309 0.0
H771 H 0.30946 0.92045 0.69299 0.0
C772 C 0.3887 0.03482 0.80469 0.0
C773 C 0.36514 0.05532 0.79646 0.0
C774 C 0.38869 1.0074 0.78655 0.0
C775 C 0.36505 0.99987 0.75986 0.0
C776 C 0.34131 0.02035 0.75222 0.0
C777 C 0.34128 0.04741 0.77022 0.0
C778 C 0.39565 0.93535 0.71014 0.0
C779 C 0.36463 0.92086 0.69532 0.0
C780 C 0.39592 0.96041 0.73174 0.0
C781 C 0.36512 0.97144 0.73924 0.0
C782 C 0.3341 0.95602 0.72523 0.0
C783 C 0.33389 0.93134 0.70348 0.0
H784 H 0.45637 0.19175 0.78867 0.0
H785 H 0.4477 0.19675 0.89163 0.0
H786 H 0.50598 0.23146 0.79369 0.0
H787 H 0.4972 0.23628 0.89663 0.0
H788 H 0.61205 0.27704 0.89393 0.0
H789 H 0.55977 0.24081 0.89046 0.0
H790 H 0.52176 0.28738 0.80812 0.0
H791 H 0.57432 0.32388 0.81163 0.0
C792 C 0.46511 0.2012 0.81239 0.0
C793 C 0.4481 0.19086 0.83976 0.0
C794 C 0.49337 0.2242 0.81523 0.0
C795 C 0.50563 0.23721 0.84557 0.0
C796 C 0.48869 0.22669 0.87292 0.0
C797 C 0.46023 0.204 0.87003 0.0
C798 C 0.59236 0.27993 0.87536 0.0
C799 C 0.59752 0.30352 0.8531 0.0
C800 C 0.56228 0.25911 0.8734 0.0
C801 C 0.53656 0.26093 0.84885 0.0
C802 C 0.5412 0.28504 0.82711 0.0
C803 C 0.57117 0.30622 0.82936 0.0
H804 H 0.37142 0.60582 0.28273 0.0
H805 H 0.37163 0.54611 0.19929 0.0
H806 H 0.36906 0.56147 0.31773 0.0
H807 H 0.36796 0.50168 0.23431 0.0
H808 H 0.29917 0.44205 0.3106 0.0
H809 H 0.31207 0.48561 0.27591 0.0
H810 H 0.4094 0.50979 0.32876 0.0
H811 H 0.39712 0.46514 0.36307 0.0
C812 C 0.37152 0.58328 0.27191 0.0
C813 C 0.37185 0.57953 0.2382 0.0
C814 C 0.37022 0.55792 0.29197 0.0
C815 C 0.36832 0.52814 0.27875 0.0
C816 C 0.36954 0.5244 0.24515 0.0
C817 C 0.37178 0.54985 0.22513 0.0
C818 C 0.32339 0.45657 0.31494 0.0
C819 C 0.34703 0.45012 0.33982 0.0
C820 C 0.33082 0.48141 0.29487 0.0
C821 C 0.36175 0.50103 0.29955 0.0
C822 C 0.38538 0.49496 0.32458 0.0
C823 C 0.37835 0.46945 0.34419 0.0
H824 H 0.71957 0.10389 0.31029 0.0
H825 H 0.62116 0.08065 0.35033 0.0
H826 H 0.70707 0.06064 0.27217 0.0
H827 H 0.60907 0.03638 0.31245 0.0
H828 H 0.64214 0.93973 0.27306 0.0
H829 H 0.64077 0.98598 0.30619 0.0
H830 H 0.662 0.0413 0.22349 0.0
H831 H 0.66235 0.99474 0.18997 0.0
C832 C 0.69522 0.08949 0.311 0.0
C833 C 0.67148 0.09563 0.33361 0.0
C834 C 0.68794 0.06486 0.28889 0.0
C835 C 0.65702 0.04518 0.28913 0.0
C836 C 0.63309 0.05124 0.31162 0.0
C837 C 0.64 0.07653 0.3333 0.0
C838 C 0.64545 0.96173 0.26171 0.0
C839 C 0.6522 0.96361 0.22887 0.0
C840 C 0.64462 0.98822 0.2807 0.0
C841 C 0.65144 0.0173 0.26753 0.0
C842 C 0.65668 0.01918 0.23431 0.0
C843 C 0.65661 0.99256 0.21506 0.0
H844 H 0.59453 0.81828 0.16984 0.0
H845 H 0.56217 0.84496 0.26265 0.0
H846 H 0.54933 0.77439 0.16713 0.0
H847 H 0.51722 0.80182 0.25973 0.0
H848 H 0.46872 0.70532 0.26751 0.0
H849 H 0.51444 0.74739 0.26446 0.0
H850 H 0.48685 0.75619 0.16338 0.0
H851 H 0.44095 0.71336 0.16632 0.0
C852 C 0.57747 0.81519 0.18938 0.0
C853 C 0.58238 0.8352 0.2166 0.0
C854 C 0.55154 0.78993 0.18785 0.0
C855 C 0.52994 0.784 0.21354 0.0
C856 C 0.53387 0.80496 0.23988 0.0
C857 C 0.55961 0.83002 0.24142 0.0
C858 C 0.47251 0.71586 0.24444 0.0
C859 C 0.45076 0.70588 0.21723 0.0
C860 C 0.49867 0.74032 0.24276 0.0
C861 C 0.50401 0.75587 0.21385 0.0
C862 C 0.48355 0.74489 0.1861 0.0
C863 C 0.45723 0.72022 0.18777 0.0
loop_
_geom_bond_atom_site_label_1
_geom_bond_atom_site_label_2
_geom_bond_distance
_geom_bond_site_symmetry_2
_ccdc_geom_bond_type
Co0 O1 2.216 . S
Co0 O2 2.091 . S
Co0 O4 2.004 . S
Co0 O10 2.021 . S
Co0 O12 2.137 . S
Co0 O13 2.244 . S
O1 Co0 2.216 . S
O1 C8 1.247 . S
O2 Co0 2.091 . S
O2 C8 1.261 . S
C3 O12 1.247 . S
C3 O13 1.272 . S
O4 Co0 2.004 . S
O4 C9 1.259 . S
Co5 O6 2.061 . S
Co5 O11 2.052 . S
Co5 O13 2.135 . S
O6 Co5 2.061 . S
O6 C9 1.235 . S
C7 O10 1.238 . S
C7 O11 1.241 . S
C8 O1 1.247 . S
C8 O2 1.261 . S
C9 O4 1.259 . S
C9 O6 1.235 . S
O10 Co0 2.021 . S
O10 C7 1.238 . S
O11 Co5 2.052 . S
O11 C7 1.241 . S
O12 Co0 2.137 . S
O12 C3 1.247 . S
O13 Co0 2.244 . S
O13 C3 1.272 . S
O13 Co5 2.135 . S
Co14 O15 2.216 . S
Co14 O16 2.091 . S
Co14 O18 2.004 . S
Co14 O24 2.021 . S
Co14 O26 2.137 . S
Co14 O27 2.244 . S
O15 Co14 2.216 . S
O15 C22 1.247 . S
O16 Co14 2.091 . S
O16 C22 1.261 . S
C17 O26 1.247 . S
C17 O27 1.272 . S
O18 Co14 2.004 . S
O18 C23 1.259 . S
Co19 O20 2.061 . S
Co19 O25 2.052 . S
Co19 O27 2.135 . S
O20 Co19 2.061 . S
O20 C23 1.235 . S
C21 O24 1.238 . S
C21 O25 1.241 . S
C22 O15 1.247 . S
C22 O16 1.261 . S
C23 O18 1.259 . S
C23 O20 1.235 . S
O24 Co14 2.021 . S
O24 C21 1.238 . S
O25 Co19 2.052 . S
O25 C21 1.241 . S
O26 Co14 2.137 . S
O26 C17 1.247 . S
O27 Co14 2.244 . S
O27 C17 1.272 . S
O27 Co19 2.135 . S
Co28 O29 2.216 . S
Co28 O30 2.091 . S
Co28 O32 2.004 . S
Co28 O38 2.021 . S
Co28 O40 2.137 . S
Co28 O41 2.244 . S
O29 Co28 2.216 . S
O29 C36 1.247 . S
O30 Co28 2.091 . S
O30 C36 1.261 . S
C31 O40 1.247 . S
C31 O41 1.272 . S
O32 Co28 2.004 . S
O32 C37 1.259 . S
Co33 O34 2.061 . S
Co33 O39 2.052 . S
Co33 O41 2.135 . S
O34 Co33 2.061 . S
O34 C37 1.235 . S
C35 O38 1.238 . S
C35 O39 1.241 . S
C36 O29 1.247 . S
C36 O30 1.261 . S
C37 O32 1.259 . S
C37 O34 1.235 . S
O38 Co28 2.021 . S
O38 C35 1.238 . S
O39 Co33 2.052 . S
O39 C35 1.241 . S
O40 Co28 2.137 . S
O40 C31 1.247 . S
O41 Co28 2.244 . S
O41 C31 1.272 . S
O41 Co33 2.135 . S
Co42 O43 2.216 . S
Co42 O44 2.091 . S
Co42 O46 2.004 . S
Co42 O52 2.021 . S
Co42 O54 2.137 . S
Co42 O55 2.244 . S
O43 Co42 2.216 . S
O43 C50 1.247 . S
O44 Co42 2.091 . S
O44 C50 1.261 . S
C45 O54 1.247 . S
C45 O55 1.272 . S
O46 Co42 2.004 . S
O46 C51 1.259 . S
Co47 O48 2.061 . S
Co47 O53 2.052 . S
Co47 O55 2.135 . S
O48 Co47 2.061 . S
O48 C51 1.235 . S
C49 O52 1.238 . S
C49 O53 1.241 . S
C50 O43 1.247 . S
C50 O44 1.261 . S
C51 O46 1.259 . S
C51 O48 1.235 . S
O52 Co42 2.021 . S
O52 C49 1.238 . S
O53 Co47 2.052 . S
O53 C49 1.241 . S
O54 Co42 2.137 . S
O54 C45 1.247 . S
O55 Co42 2.244 . S
O55 C45 1.272 . S
O55 Co47 2.135 . S
Co56 O57 2.216 . S
Co56 O58 2.091 . S
Co56 O60 2.004 . S
Co56 O66 2.021 . S
Co56 O68 2.137 . S
Co56 O69 2.244 . S
O57 Co56 2.216 . S
O57 C64 1.247 . S
O58 Co56 2.091 . S
O58 C64 1.261 . S
C59 O68 1.247 . S
C59 O69 1.272 . S
O60 Co56 2.004 . S
O60 C65 1.259 . S
Co61 O62 2.061 . S
Co61 O67 2.052 . S
Co61 O69 2.135 . S
O62 Co61 2.061 . S
O62 C65 1.235 . S
C63 O66 1.238 . S
C63 O67 1.241 . S
C64 O57 1.247 . S
C64 O58 1.261 . S
C65 O60 1.259 . S
C65 O62 1.235 . S
O66 Co56 2.021 . S
O66 C63 1.238 . S
O67 Co61 2.052 . S
O67 C63 1.241 . S
O68 Co56 2.137 . S
O68 C59 1.247 . S
O69 Co56 2.244 . S
O69 C59 1.272 . S
O69 Co61 2.135 . S
Co70 O71 2.216 . S
Co70 O72 2.091 . S
Co70 O74 2.004 . S
Co70 O80 2.021 . S
Co70 O82 2.137 . S
Co70 O83 2.244 . S
O71 Co70 2.216 . S
O71 C78 1.247 . S
O72 Co70 2.091 . S
O72 C78 1.261 . S
C73 O82 1.247 . S
C73 O83 1.272 . S
O74 Co70 2.004 . S
O74 C79 1.259 . S
Co75 O76 2.061 . S
Co75 O81 2.052 . S
Co75 O83 2.135 . S
O76 Co75 2.061 . S
O76 C79 1.235 . S
C77 O80 1.238 . S
C77 O81 1.241 . S
C78 O71 1.247 . S
C78 O72 1.261 . S
C79 O74 1.259 . S
C79 O76 1.235 . S
O80 Co70 2.021 . S
O80 C77 1.238 . S
O81 Co75 2.052 . S
O81 C77 1.241 . S
O82 Co70 2.137 . S
O82 C73 1.247 . S
O83 Co70 2.244 . S
O83 C73 1.272 . S
O83 Co75 2.135 . S
Co84 O85 2.216 . S
Co84 O86 2.091 . S
Co84 O88 2.004 . S
Co84 O94 2.021 . S
Co84 O96 2.137 . S
Co84 O97 2.244 . S
O85 Co84 2.216 . S
O85 C92 1.247 . S
O86 Co84 2.091 . S
O86 C92 1.261 . S
C87 O96 1.247 . S
C87 O97 1.272 . S
O88 Co84 2.004 . S
O88 C93 1.259 . S
Co89 O90 2.061 . S
Co89 O95 2.052 . S
Co89 O97 2.135 . S
O90 Co89 2.061 . S
O90 C93 1.235 . S
C91 O94 1.238 . S
C91 O95 1.241 . S
C92 O85 1.247 . S
C92 O86 1.261 . S
C93 O88 1.259 . S
C93 O90 1.235 . S
O94 Co84 2.021 . S
O94 C91 1.238 . S
O95 Co89 2.052 . S
O95 C91 1.241 . S
O96 Co84 2.137 . S
O96 C87 1.247 . S
O97 Co84 2.244 . S
O97 C87 1.272 . S
O97 Co89 2.135 . S
Co98 O99 2.216 . S
Co98 O100 2.091 . S
Co98 O102 2.004 . S
Co98 O108 2.021 . S
Co98 O110 2.137 . S
Co98 O111 2.244 . S
O99 Co98 2.216 . S
O99 C106 1.247 . S
O100 Co98 2.091 . S
O100 C106 1.261 . S
C101 O110 1.247 . S
C101 O111 1.272 . S
O102 Co98 2.004 . S
O102 C107 1.259 . S
Co103 O104 2.061 . S
Co103 O109 2.052 . S
Co103 O111 2.135 . S
O104 Co103 2.061 . S
O104 C107 1.235 . S
C105 O108 1.238 . S
C105 O109 1.241 . S
C106 O99 1.247 . S
C106 O100 1.261 . S
C107 O102 1.259 . S
C107 O104 1.235 . S
O108 Co98 2.021 . S
O108 C105 1.238 . S
O109 Co103 2.052 . S
O109 C105 1.241 . S
O110 Co98 2.137 . S
O110 C101 1.247 . S
O111 Co98 2.244 . S
O111 C101 1.272 . S
O111 Co103 2.135 . S
Co112 O113 2.216 . S
Co112 O114 2.091 . S
Co112 O116 2.004 . S
Co112 O122 2.021 . S
Co112 O124 2.137 . S
Co112 O125 2.244 . S
O113 Co112 2.216 . S
O113 C120 1.247 . S
O114 Co112 2.091 . S
O114 C120 1.261 . S
C115 O124 1.247 . S
C115 O125 1.272 . S
O116 Co112 2.004 . S
O116 C121 1.259 . S
Co117 O118 2.061 . S
Co117 O123 2.052 . S
Co117 O125 2.135 . S
O118 Co117 2.061 . S
O118 C121 1.235 . S
C119 O122 1.238 . S
C119 O123 1.241 . S
C120 O113 1.247 . S
C120 O114 1.261 . S
C121 O116 1.259 . S
C121 O118 1.235 . S
O122 Co112 2.021 . S
O122 C119 1.238 . S
O123 Co117 2.052 . S
O123 C119 1.241 . S
O124 Co112 2.137 . S
O124 C115 1.247 . S
O125 Co112 2.244 . S
O125 C115 1.272 . S
O125 Co117 2.135 . S
Co126 O127 2.216 . S
Co126 O128 2.091 . S
Co126 O130 2.004 . S
Co126 O136 2.021 . S
Co126 O138 2.137 . S
Co126 O139 2.244 . S
O127 Co126 2.216 . S
O127 C134 1.247 . S
O128 Co126 2.091 . S
O128 C134 1.261 . S
C129 O138 1.247 . S
C129 O139 1.272 . S
O130 Co126 2.004 . S
O130 C135 1.259 . S
Co131 O132 2.061 . S
Co131 O137 2.052 . S
Co131 O139 2.135 . S
O132 Co131 2.061 . S
O132 C135 1.235 . S
C133 O136 1.238 . S
C133 O137 1.241 . S
C134 O127 1.247 . S
C134 O128 1.261 . S
C135 O130 1.259 . S
C135 O132 1.235 . S
O136 Co126 2.021 . S
O136 C133 1.238 . S
O137 Co131 2.052 . S
O137 C133 1.241 . S
O138 Co126 2.137 . S
O138 C129 1.247 . S
O139 Co126 2.244 . S
O139 C129 1.272 . S
O139 Co131 2.135 . S
Co140 O141 2.216 . S
Co140 O142 2.091 . S
Co140 O144 2.004 . S
Co140 O150 2.021 . S
Co140 O152 2.137 . S
Co140 O153 2.244 . S
O141 Co140 2.216 . S
O141 C148 1.247 . S
O142 Co140 2.091 . S
O142 C148 1.261 . S
C143 O152 1.247 . S
C143 O153 1.272 . S
O144 Co140 2.004 . S
O144 C149 1.259 . S
Co145 O146 2.061 . S
Co145 O151 2.052 . S
Co145 O153 2.135 . S
O146 Co145 2.061 . S
O146 C149 1.235 . S
C147 O150 1.238 . S
C147 O151 1.241 . S
C148 O141 1.247 . S
C148 O142 1.261 . S
C149 O144 1.259 . S
C149 O146 1.235 . S
O150 Co140 2.021 . S
O150 C147 1.238 . S
O151 Co145 2.052 . S
O151 C147 1.241 . S
O152 Co140 2.137 . S
O152 C143 1.247 . S
O153 Co140 2.244 . S
O153 C143 1.272 . S
O153 Co145 2.135 . S
Co154 O155 2.216 . S
Co154 O156 2.091 . S
Co154 O158 2.004 . S
Co154 O164 2.021 . S
Co154 O166 2.137 . S
Co154 O167 2.244 . S
O155 Co154 2.216 . S
O155 C162 1.247 . S
O156 Co154 2.091 . S
O156 C162 1.261 . S
C157 O166 1.247 . S
C157 O167 1.272 . S
O158 Co154 2.004 . S
O158 C163 1.259 . S
Co159 O160 2.061 . S
Co159 O165 2.052 . S
Co159 O167 2.135 . S
O160 Co159 2.061 . S
O160 C163 1.235 . S
C161 O164 1.238 . S
C161 O165 1.241 . S
C162 O155 1.247 . S
C162 O156 1.261 . S
C163 O158 1.259 . S
C163 O160 1.235 . S
O164 Co154 2.021 . S
O164 C161 1.238 . S
O165 Co159 2.052 . S
O165 C161 1.241 . S
O166 Co154 2.137 . S
O166 C157 1.247 . S
O167 Co154 2.244 . S
O167 C157 1.272 . S
O167 Co159 2.135 . S
Co168 O169 2.216 . S
Co168 O170 2.091 . S
Co168 O172 2.004 . S
Co168 O178 2.021 . S
Co168 O180 2.137 . S
Co168 O181 2.244 . S
O169 Co168 2.216 . S
O169 C176 1.247 . S
O170 Co168 2.091 . S
O170 C176 1.261 . S
C171 O180 1.247 . S
C171 O181 1.272 . S
O172 Co168 2.004 . S
O172 C177 1.259 . S
Co173 O174 2.061 . S
Co173 O179 2.052 . S
Co173 O181 2.135 . S
O174 Co173 2.061 . S
O174 C177 1.235 . S
C175 O178 1.238 . S
C175 O179 1.241 . S
C176 O169 1.247 . S
C176 O170 1.261 . S
C177 O172 1.259 . S
C177 O174 1.235 . S
O178 Co168 2.021 . S
O178 C175 1.238 . S
O179 Co173 2.052 . S
O179 C175 1.241 . S
O180 Co168 2.137 . S
O180 C171 1.247 . S
O181 Co168 2.244 . S
O181 C171 1.272 . S
O181 Co173 2.135 . S
Co182 O183 2.216 . S
Co182 O184 2.091 . S
Co182 O186 2.004 . S
Co182 O192 2.021 . S
Co182 O194 2.137 . S
Co182 O195 2.244 . S
O183 Co182 2.216 . S
O183 C190 1.247 . S
O184 Co182 2.091 . S
O184 C190 1.261 . S
C185 O194 1.247 . S
C185 O195 1.272 . S
O186 Co182 2.004 . S
O186 C191 1.259 . S
Co187 O188 2.061 . S
Co187 O193 2.052 . S
Co187 O195 2.135 . S
O188 Co187 2.061 . S
O188 C191 1.235 . S
C189 O192 1.238 . S
C189 O193 1.241 . S
C190 O183 1.247 . S
C190 O184 1.261 . S
C191 O186 1.259 . S
C191 O188 1.235 . S
O192 Co182 2.021 . S
O192 C189 1.238 . S
O193 Co187 2.052 . S
O193 C189 1.241 . S
O194 Co182 2.137 . S
O194 C185 1.247 . S
O195 Co182 2.244 . S
O195 C185 1.272 . S
O195 Co187 2.135 . S
Co196 O197 2.216 . S
Co196 O198 2.091 . S
Co196 O200 2.004 . S
Co196 O206 2.021 . S
Co196 O208 2.137 . S
Co196 O209 2.244 . S
O197 Co196 2.216 . S
O197 C204 1.247 . S
O198 Co196 2.091 . S
O198 C204 1.261 . S
C199 O208 1.247 . S
C199 O209 1.272 . S
O200 Co196 2.004 . S
O200 C205 1.259 . S
Co201 O202 2.061 . S
Co201 O207 2.052 . S
Co201 O209 2.135 . S
O202 Co201 2.061 . S
O202 C205 1.235 . S
C203 O206 1.238 . S
C203 O207 1.241 . S
C204 O197 1.247 . S
C204 O198 1.261 . S
C205 O200 1.259 . S
C205 O202 1.235 . S
O206 Co196 2.021 . S
O206 C203 1.238 . S
O207 Co201 2.052 . S
O207 C203 1.241 . S
O208 Co196 2.137 . S
O208 C199 1.247 . S
O209 Co196 2.244 . S
O209 C199 1.272 . S
O209 Co201 2.135 . S
Co210 O211 2.216 . S
Co210 O212 2.091 . S
Co210 O214 2.004 . S
Co210 O220 2.021 . S
Co210 O222 2.137 . S
Co210 O223 2.244 . S
O211 Co210 2.216 . S
O211 C218 1.247 . S
O212 Co210 2.091 . S
O212 C218 1.261 . S
C213 O222 1.247 . S
C213 O223 1.272 . S
O214 Co210 2.004 . S
O214 C219 1.259 . S
Co215 O216 2.061 . S
Co215 O221 2.052 . S
Co215 O223 2.135 . S
O216 Co215 2.061 . S
O216 C219 1.235 . S
C217 O220 1.238 . S
C217 O221 1.241 . S
C218 O211 1.247 . S
C218 O212 1.261 . S
C219 O214 1.259 . S
C219 O216 1.235 . S
O220 Co210 2.021 . S
O220 C217 1.238 . S
O221 Co215 2.052 . S
O221 C217 1.241 . S
O222 Co210 2.137 . S
O222 C213 1.247 . S
O223 Co210 2.244 . S
O223 C213 1.272 . S
O223 Co215 2.135 . S
H224 C232 0.950 . S
H225 C237 0.950 . S
H226 C234 0.950 . S
H227 C236 0.950 . S
H228 C238 0.950 . S
H229 C240 0.950 . S
H230 C242 0.950 . S
H231 C243 0.950 . S
C232 H224 0.950 . S
C232 C233 1.386 . S
C232 C234 1.391 . S
C233 C232 1.386 . S
C233 C237 1.393 . S
C234 H226 0.950 . S
C234 C232 1.391 . S
C234 C235 1.400 . S
C235 C234 1.400 . S
C235 C236 1.398 . S
C235 C241 1.491 . S
C236 H227 0.950 . S
C236 C235 1.398 . S
C236 C237 1.391 . S
C237 H225 0.950 . S
C237 C233 1.393 . S
C237 C236 1.391 . S
C238 H228 0.950 . S
C238 C239 1.386 . S
C238 C240 1.391 . S
C239 C238 1.386 . S
C239 C243 1.393 . S
C240 H229 0.950 . S
C240 C238 1.391 . S
C240 C241 1.400 . S
C241 C235 1.491 . S
C241 C240 1.400 . S
C241 C242 1.398 . S
C242 H230 0.950 . S
C242 C241 1.398 . S
C242 C243 1.391 . S
C243 H231 0.950 . S
C243 C239 1.393 . S
C243 C242 1.391 . S
H244 C252 0.950 . S
H245 C257 0.950 . S
H246 C254 0.950 . S
H247 C256 0.950 . S
H248 C258 0.950 . S
H249 C260 0.950 . S
H250 C262 0.950 . S
H251 C263 0.950 . S
C252 H244 0.950 . S
C252 C253 1.386 . S
C252 C254 1.391 . S
C253 C252 1.386 . S
C253 C257 1.393 . S
C254 H246 0.950 . S
C254 C252 1.391 . S
C254 C255 1.400 . S
C255 C254 1.400 . S
C255 C256 1.398 . S
C255 C261 1.491 . S
C256 H247 0.950 . S
C256 C255 1.398 . S
C256 C257 1.391 . S
C257 H245 0.950 . S
C257 C253 1.393 . S
C257 C256 1.391 . S
C258 H248 0.950 . S
C258 C259 1.386 . S
C258 C260 1.391 . S
C259 C258 1.386 . S
C259 C263 1.393 . S
C260 H249 0.950 . S
C260 C258 1.391 . S
C260 C261 1.400 . S
C261 C255 1.491 . S
C261 C260 1.400 . S
C261 C262 1.398 . S
C262 H250 0.950 . S
C262 C261 1.398 . S
C262 C263 1.391 . S
C263 H251 0.950 . S
C263 C259 1.393 . S
C263 C262 1.391 . S
H264 C272 0.950 . S
H265 C277 0.950 . S
H266 C274 0.950 . S
H267 C276 0.950 . S
H268 C278 0.950 . S
H269 C280 0.950 . S
H270 C282 0.950 . S
H271 C283 0.950 . S
C272 H264 0.950 . S
C272 C273 1.386 . S
C272 C274 1.391 . S
C273 C272 1.386 . S
C273 C277 1.393 . S
C274 H266 0.950 . S
C274 C272 1.391 . S
C274 C275 1.400 . S
C275 C274 1.400 . S
C275 C276 1.398 . S
C275 C281 1.491 . S
C276 H267 0.950 . S
C276 C275 1.398 . S
C276 C277 1.391 . S
C277 H265 0.950 . S
C277 C273 1.393 . S
C277 C276 1.391 . S
C278 H268 0.950 . S
C278 C279 1.386 . S
C278 C280 1.391 . S
C279 C278 1.386 . S
C279 C283 1.393 . S
C280 H269 0.950 . S
C280 C278 1.391 . S
C280 C281 1.400 . S
C281 C275 1.491 . S
C281 C280 1.400 . S
C281 C282 1.398 . S
C282 H270 0.950 . S
C282 C281 1.398 . S
C282 C283 1.391 . S
C283 H271 0.950 . S
C283 C279 1.393 . S
C283 C282 1.391 . S
H284 C292 0.950 . S
H285 C297 0.950 . S
H286 C294 0.950 . S
H287 C296 0.950 . S
H288 C298 0.950 . S
H289 C300 0.950 . S
H290 C302 0.950 . S
H291 C303 0.950 . S
C292 H284 0.950 . S
C292 C293 1.386 . S
C292 C294 1.391 . S
C293 C292 1.386 . S
C293 C297 1.393 . S
C294 H286 0.950 . S
C294 C292 1.391 . S
C294 C295 1.400 . S
C295 C294 1.400 . S
C295 C296 1.398 . S
C295 C301 1.491 . S
C296 H287 0.950 . S
C296 C295 1.398 . S
C296 C297 1.391 . S
C297 H285 0.950 . S
C297 C293 1.393 . S
C297 C296 1.391 . S
C298 H288 0.950 . S
C298 C299 1.386 . S
C298 C300 1.391 . S
C299 C298 1.386 . S
C299 C303 1.393 . S
C300 H289 0.950 . S
C300 C298 1.391 . S
C300 C301 1.400 . S
C301 C295 1.491 . S
C301 C300 1.400 . S
C301 C302 1.398 . S
C302 H290 0.950 . S
C302 C301 1.398 . S
C302 C303 1.391 . S
C303 H291 0.950 . S
C303 C299 1.393 . S
C303 C302 1.391 . S
H304 C312 0.950 . S
H305 C317 0.950 . S
H306 C314 0.950 . S
H307 C316 0.950 . S
H308 C318 0.950 . S
H309 C320 0.950 . S
H310 C322 0.950 . S
H311 C323 0.950 . S
C312 H304 0.950 . S
C312 C313 1.386 . S
C312 C314 1.391 . S
C313 C312 1.386 . S
C313 C317 1.393 . S
C314 H306 0.950 . S
C314 C312 1.391 . S
C314 C315 1.400 . S
C315 C314 1.400 . S
C315 C316 1.398 . S
C315 C321 1.491 . S
C316 H307 0.950 . S
C316 C315 1.398 . S
C316 C317 1.391 . S
C317 H305 0.950 . S
C317 C313 1.393 . S
C317 C316 1.391 . S
C318 H308 0.950 . S
C318 C319 1.386 . S
C318 C320 1.391 . S
C319 C318 1.386 . S
C319 C323 1.393 . S
C320 H309 0.950 . S
C320 C318 1.391 . S
C320 C321 1.400 . S
C321 C315 1.491 . S
C321 C320 1.400 . S
C321 C322 1.398 . S
C322 H310 0.950 . S
C322 C321 1.398 . S
C322 C323 1.391 . S
C323 H311 0.950 . S
C323 C319 1.393 . S
C323 C322 1.391 . S
H324 C332 0.950 . S
H325 C337 0.950 . S
H326 C334 0.950 . S
H327 C336 0.950 . S
H328 C338 0.950 . S
H329 C340 0.950 . S
H330 C342 0.950 . S
H331 C343 0.950 . S
C332 H324 0.950 . S
C332 C333 1.386 . S
C332 C334 1.391 . S
C333 C332 1.386 . S
C333 C337 1.393 . S
C334 H326 0.950 . S
C334 C332 1.391 . S
C334 C335 1.400 . S
C335 C334 1.400 . S
C335 C336 1.398 . S
C335 C341 1.491 . S
C336 H327 0.950 . S
C336 C335 1.398 . S
C336 C337 1.391 . S
C337 H325 0.950 . S
C337 C333 1.393 . S
C337 C336 1.391 . S
C338 H328 0.950 . S
C338 C339 1.386 . S
C338 C340 1.391 . S
C339 C338 1.386 . S
C339 C343 1.393 . S
C340 H329 0.950 . S
C340 C338 1.391 . S
C340 C341 1.400 . S
C341 C335 1.491 . S
C341 C340 1.400 . S
C341 C342 1.398 . S
C342 H330 0.950 . S
C342 C341 1.398 . S
C342 C343 1.391 . S
C343 H331 0.950 . S
C343 C339 1.393 . S
C343 C342 1.391 . S
H344 C352 0.950 . S
H345 C357 0.950 . S
H346 C354 0.950 . S
H347 C356 0.950 . S
H348 C358 0.950 . S
H349 C360 0.950 . S
H350 C362 0.950 . S
H351 C363 0.950 . S
C352 H344 0.950 . S
C352 C353 1.386 . S
C352 C354 1.391 . S
C353 C352 1.386 . S
C353 C357 1.393 . S
C354 H346 0.950 . S
C354 C352 1.391 . S
C354 C355 1.400 . S
C355 C354 1.400 . S
C355 C356 1.398 . S
C355 C361 1.491 . S
C356 H347 0.950 . S
C356 C355 1.398 . S
C356 C357 1.391 . S
C357 H345 0.950 . S
C357 C353 1.393 . S
C357 C356 1.391 . S
C358 H348 0.950 . S
C358 C359 1.386 . S
C358 C360 1.391 . S
C359 C358 1.386 . S
C359 C363 1.393 . S
C360 H349 0.950 . S
C360 C358 1.391 . S
C360 C361 1.400 . S
C361 C355 1.491 . S
C361 C360 1.400 . S
C361 C362 1.398 . S
C362 H350 0.950 . S
C362 C361 1.398 . S
C362 C363 1.391 . S
C363 H351 0.950 . S
C363 C359 1.393 . S
C363 C362 1.391 . S
H364 C372 0.950 . S
H365 C377 0.950 . S
H366 C374 0.950 . S
H367 C376 0.950 . S
H368 C378 0.950 . S
H369 C380 0.950 . S
H370 C382 0.950 . S
H371 C383 0.950 . S
C372 H364 0.950 . S
C372 C373 1.386 . S
C372 C374 1.391 . S
C373 C372 1.386 . S
C373 C377 1.393 . S
C374 H366 0.950 . S
C374 C372 1.391 . S
C374 C375 1.400 . S
C375 C374 1.400 . S
C375 C376 1.398 . S
C375 C381 1.491 . S
C376 H367 0.950 . S
C376 C375 1.398 . S
C376 C377 1.391 . S
C377 H365 0.950 . S
C377 C373 1.393 . S
C377 C376 1.391 . S
C378 H368 0.950 . S
C378 C379 1.386 . S
C378 C380 1.391 . S
C379 C378 1.386 . S
C379 C383 1.393 . S
C380 H369 0.950 . S
C380 C378 1.391 . S
C380 C381 1.400 . S
C381 C375 1.491 . S
C381 C380 1.400 . S
C381 C382 1.398 . S
C382 H370 0.950 . S
C382 C381 1.398 . S
C382 C383 1.391 . S
C383 H371 0.950 . S
C383 C379 1.393 . S
C383 C382 1.391 . S
H384 C392 0.950 . S
H385 C397 0.950 . S
H386 C394 0.950 . S
H387 C396 0.950 1_545 S
H388 C398 0.950 . S
H389 C400 0.950 . S
H390 C402 0.950 1_565 S
H391 C403 0.950 . S
C392 H384 0.950 . S
C392 C393 1.386 . S
C392 C394 1.391 . S
C393 C392 1.386 . S
C393 C397 1.393 . S
C394 H386 0.950 . S
C394 C392 1.391 . S
C394 C395 1.400 . S
C395 C394 1.400 . S
C395 C396 1.398 . S
C395 C401 1.491 1_565 S
C396 H387 0.950 1_565 S
C396 C395 1.398 . S
C396 C397 1.391 . S
C397 H385 0.950 . S
C397 C393 1.393 . S
C397 C396 1.391 . S
C398 H388 0.950 . S
C398 C399 1.386 . S
C398 C400 1.391 . S
C399 C398 1.386 . S
C399 C403 1.393 . S
C400 H389 0.950 . S
C400 C398 1.391 . S
C400 C401 1.400 . S
C401 C395 1.491 1_545 S
C401 C400 1.400 . S
C401 C402 1.398 . S
C402 H390 0.950 1_545 S
C402 C401 1.398 . S
C402 C403 1.391 . S
C403 H391 0.950 . S
C403 C399 1.393 . S
C403 C402 1.391 . S
H404 C412 0.950 . S
H405 C417 0.950 . S
H406 C414 0.950 . S
H407 C416 0.950 . S
H408 C418 0.950 . S
H409 C420 0.950 . S
H410 C422 0.950 . S
H411 C423 0.950 . S
C412 H404 0.950 . S
C412 C413 1.386 . S
C412 C414 1.391 . S
C413 C412 1.386 . S
C413 C417 1.393 . S
C414 H406 0.950 . S
C414 C412 1.391 . S
C414 C415 1.400 . S
C415 C414 1.400 . S
C415 C416 1.398 . S
C415 C421 1.491 . S
C416 H407 0.950 . S
C416 C415 1.398 . S
C416 C417 1.391 . S
C417 H405 0.950 . S
C417 C413 1.393 . S
C417 C416 1.391 . S
C418 H408 0.950 . S
C418 C419 1.386 . S
C418 C420 1.391 . S
C419 C418 1.386 . S
C419 C423 1.393 . S
C420 H409 0.950 . S
C420 C418 1.391 . S
C420 C421 1.400 . S
C421 C415 1.491 . S
C421 C420 1.400 . S
C421 C422 1.398 . S
C422 H410 0.950 . S
C422 C421 1.398 . S
C422 C423 1.391 . S
C423 H411 0.950 . S
C423 C419 1.393 . S
C423 C422 1.391 . S
H424 C432 0.950 . S
H425 C437 0.950 . S
H426 C434 0.950 . S
H427 C436 0.950 . S
H428 C438 0.950 . S
H429 C440 0.950 . S
H430 C442 0.950 . S
H431 C443 0.950 . S
C432 H424 0.950 . S
C432 C433 1.386 . S
C432 C434 1.391 . S
C433 C432 1.386 . S
C433 C437 1.393 . S
C434 H426 0.950 . S
C434 C432 1.391 . S
C434 C435 1.400 . S
C435 C434 1.400 . S
C435 C436 1.398 . S
C435 C441 1.491 . S
C436 H427 0.950 . S
C436 C435 1.398 . S
C436 C437 1.391 . S
C437 H425 0.950 . S
C437 C433 1.393 . S
C437 C436 1.391 . S
C438 H428 0.950 . S
C438 C439 1.386 . S
C438 C440 1.391 . S
C439 C438 1.386 . S
C439 C443 1.393 . S
C440 H429 0.950 . S
C440 C438 1.391 . S
C440 C441 1.400 1_554 S
C441 C435 1.491 . S
C441 C440 1.400 1_556 S
C441 C442 1.398 . S
C442 H430 0.950 . S
C442 C441 1.398 . S
C442 C443 1.391 1_556 S
C443 H431 0.950 . S
C443 C439 1.393 . S
C443 C442 1.391 1_554 S
H444 C452 0.950 . S
H445 C457 0.950 . S
H446 C454 0.950 . S
H447 C456 0.950 . S
H448 C458 0.950 . S
H449 C460 0.950 . S
H450 C462 0.950 . S
H451 C463 0.950 . S
C452 H444 0.950 . S
C452 C453 1.386 . S
C452 C454 1.391 . S
C453 C452 1.386 . S
C453 C457 1.393 . S
C454 H446 0.950 . S
C454 C452 1.391 . S
C454 C455 1.400 1_554 S
C455 C454 1.400 1_556 S
C455 C456 1.398 . S
C455 C461 1.491 . S
C456 H447 0.950 . S
C456 C455 1.398 . S
C456 C457 1.391 1_556 S
C457 H445 0.950 . S
C457 C453 1.393 . S
C457 C456 1.391 1_554 S
C458 H448 0.950 . S
C458 C459 1.386 . S
C458 C460 1.391 . S
C459 C458 1.386 . S
C459 C463 1.393 . S
C460 H449 0.950 . S
C460 C458 1.391 . S
C460 C461 1.400 . S
C461 C455 1.491 . S
C461 C460 1.400 . S
C461 C462 1.398 . S
C462 H450 0.950 . S
C462 C461 1.398 . S
C462 C463 1.391 . S
C463 H451 0.950 . S
C463 C459 1.393 . S
C463 C462 1.391 . S
H464 C472 0.950 . S
H465 C477 0.950 . S
H466 C474 0.950 . S
H467 C476 0.950 . S
H468 C478 0.950 . S
H469 C480 0.950 . S
H470 C482 0.950 . S
H471 C483 0.950 . S
C472 H464 0.950 . S
C472 C473 1.386 . S
C472 C474 1.391 . S
C473 C472 1.386 . S
C473 C477 1.393 . S
C474 H466 0.950 . S
C474 C472 1.391 . S
C474 C475 1.400 . S
C475 C474 1.400 . S
C475 C476 1.398 . S
C475 C481 1.491 . S
C476 H467 0.950 . S
C476 C475 1.398 . S
C476 C477 1.391 . S
C477 H465 0.950 . S
C477 C473 1.393 . S
C477 C476 1.391 . S
C478 H468 0.950 . S
C478 C479 1.386 . S
C478 C480 1.391 . S
C479 C478 1.386 . S
C479 C483 1.393 . S
C480 H469 0.950 . S
C480 C478 1.391 . S
C480 C481 1.400 . S
C481 C475 1.491 . S
C481 C480 1.400 . S
C481 C482 1.398 . S
C482 H470 0.950 . S
C482 C481 1.398 . S
C482 C483 1.391 . S
C483 H471 0.950 . S
C483 C479 1.393 . S
C483 C482 1.391 . S
H484 C492 0.950 . S
H485 C497 0.950 . S
H486 C494 0.950 . S
H487 C496 0.950 . S
H488 C498 0.950 . S
H489 C500 0.950 . S
H490 C502 0.950 . S
H491 C503 0.950 . S
C492 H484 0.950 . S
C492 C493 1.386 . S
C492 C494 1.391 . S
C493 C492 1.386 . S
C493 C497 1.393 . S
C494 H486 0.950 . S
C494 C492 1.391 . S
C494 C495 1.400 . S
C495 C494 1.400 . S
C495 C496 1.398 . S
C495 C501 1.491 . S
C496 H487 0.950 . S
C496 C495 1.398 . S
C496 C497 1.391 . S
C497 H485 0.950 . S
C497 C493 1.393 . S
C497 C496 1.391 . S
C498 H488 0.950 . S
C498 C499 1.386 . S
C498 C500 1.391 . S
C499 C498 1.386 . S
C499 C503 1.393 . S
C500 H489 0.950 . S
C500 C498 1.391 . S
C500 C501 1.400 . S
C501 C495 1.491 . S
C501 C500 1.400 . S
C501 C502 1.398 . S
C502 H490 0.950 . S
C502 C501 1.398 . S
C502 C503 1.391 . S
C503 H491 0.950 . S
C503 C499 1.393 . S
C503 C502 1.391 . S
H504 C512 0.950 . S
H505 C517 0.950 . S
H506 C514 0.950 . S
H507 C516 0.950 1_455 S
H508 C518 0.950 . S
H509 C520 0.950 . S
H510 C522 0.950 1_655 S
H511 C523 0.950 . S
C512 H504 0.950 . S
C512 C513 1.386 . S
C512 C514 1.391 . S
C513 C512 1.386 . S
C513 C517 1.393 . S
C514 H506 0.950 . S
C514 C512 1.391 . S
C514 C515 1.400 . S
C515 C514 1.400 . S
C515 C516 1.398 . S
C515 C521 1.491 1_655 S
C516 H507 0.950 1_655 S
C516 C515 1.398 . S
C516 C517 1.391 . S
C517 H505 0.950 . S
C517 C513 1.393 . S
C517 C516 1.391 . S
C518 H508 0.950 . S
C518 C519 1.386 . S
C518 C520 1.391 . S
C519 C518 1.386 . S
C519 C523 1.393 . S
C520 H509 0.950 . S
C520 C518 1.391 . S
C520 C521 1.400 . S
C521 C515 1.491 1_455 S
C521 C520 1.400 . S
C521 C522 1.398 . S
C522 H510 0.950 1_455 S
C522 C521 1.398 . S
C522 C523 1.391 . S
C523 H511 0.950 . S
C523 C519 1.393 . S
C523 C522 1.391 . S
H524 C532 0.950 . S
H525 C537 0.950 . S
H526 C534 0.943 1_455 S
H527 C536 0.950 . S
H528 C538 0.950 . S
H529 C540 0.950 . S
H530 C542 0.950 . S
H531 C543 0.950 . S
C532 H524 0.950 . S
C532 C533 1.386 . S
C532 C534 1.391 . S
C533 C532 1.386 . S
C533 C537 1.393 . S
C534 H526 0.943 1_655 S
C534 C532 1.391 . S
C534 C535 1.400 . S
C535 C534 1.400 . S
C535 C536 1.398 . S
C535 C541 1.491 1_655 S
C536 H527 0.950 . S
C536 C535 1.398 . S
C536 C537 1.391 . S
C537 H525 0.950 . S
C537 C533 1.393 . S
C537 C536 1.391 . S
C538 H528 0.950 . S
C538 C539 1.386 . S
C538 C540 1.391 . S
C539 C538 1.386 . S
C539 C543 1.393 . S
C540 H529 0.950 . S
C540 C538 1.391 . S
C540 C541 1.400 . S
C541 C535 1.491 1_455 S
C541 C540 1.400 . S
C541 C542 1.398 . S
C542 H530 0.950 . S
C542 C541 1.398 . S
C542 C543 1.391 . S
C543 H531 0.950 . S
C543 C539 1.393 . S
C543 C542 1.391 . S
H544 C552 0.950 . S
H545 C557 0.950 . S
H546 C554 0.950 . S
H547 C556 0.950 . S
H548 C558 0.950 . S
H549 C560 0.950 . S
H550 C562 0.950 . S
H551 C563 0.950 . S
C552 H544 0.950 . S
C552 C553 1.386 . S
C552 C554 1.391 . S
C553 C552 1.386 . S
C553 C557 1.393 . S
C554 H546 0.950 . S
C554 C552 1.391 . S
C554 C555 1.400 . S
C555 C554 1.400 . S
C555 C556 1.398 . S
C555 C561 1.491 . S
C556 H547 0.950 . S
C556 C555 1.398 . S
C556 C557 1.391 . S
C557 H545 0.950 . S
C557 C553 1.393 . S
C557 C556 1.391 . S
C558 H548 0.950 . S
C558 C559 1.386 . S
C558 C560 1.391 . S
C559 C558 1.386 . S
C559 C563 1.393 . S
C560 H549 0.950 . S
C560 C558 1.391 . S
C560 C561 1.400 . S
C561 C555 1.491 . S
C561 C560 1.400 . S
C561 C562 1.398 . S
C562 H550 0.950 . S
C562 C561 1.398 . S
C562 C563 1.391 . S
C563 H551 0.950 . S
C563 C559 1.393 . S
C563 C562 1.391 . S
H564 C572 0.950 . S
H565 C577 0.950 . S
H566 C574 0.950 . S
H567 C576 0.950 . S
H568 C578 0.950 . S
H569 C580 0.950 . S
H570 C582 0.950 . S
H571 C583 0.950 . S
C572 H564 0.950 . S
C572 C573 1.386 . S
C572 C574 1.391 . S
C573 C572 1.386 . S
C573 C577 1.393 . S
C574 H566 0.950 . S
C574 C572 1.391 . S
C574 C575 1.400 . S
C575 C574 1.400 . S
C575 C576 1.398 . S
C575 C581 1.491 1_545 S
C576 H567 0.950 . S
C576 C575 1.398 . S
C576 C577 1.391 . S
C577 H565 0.950 . S
C577 C573 1.393 . S
C577 C576 1.391 . S
C578 H568 0.950 . S
C578 C579 1.386 . S
C578 C580 1.391 . S
C579 C578 1.386 . S
C579 C583 1.393 . S
C580 H569 0.950 . S
C580 C578 1.391 . S
C580 C581 1.400 . S
C581 C575 1.491 1_565 S
C581 C580 1.400 . S
C581 C582 1.398 1_565 S
C582 H570 0.950 . S
C582 C581 1.398 1_545 S
C582 C583 1.391 1_545 S
C583 H571 0.950 . S
C583 C579 1.393 . S
C583 C582 1.391 1_565 S
H584 C592 0.950 . S
H585 C597 0.950 . S
H586 C594 0.950 . S
H587 C596 0.950 . S
H588 C598 0.950 . S
H589 C600 0.950 . S
H590 C602 0.950 . S
H591 C603 0.950 . S
C592 H584 0.950 . S
C592 C593 1.386 . S
C592 C594 1.391 . S
C593 C592 1.386 . S
C593 C597 1.393 . S
C594 H586 0.950 . S
C594 C592 1.391 . S
C594 C595 1.400 . S
C595 C594 1.400 . S
C595 C596 1.398 . S
C595 C601 1.491 . S
C596 H587 0.950 . S
C596 C595 1.398 . S
C596 C597 1.391 . S
C597 H585 0.950 . S
C597 C593 1.393 . S
C597 C596 1.391 . S
C598 H588 0.950 . S
C598 C599 1.386 . S
C598 C600 1.391 . S
C599 C598 1.386 . S
C599 C603 1.393 . S
C600 H589 0.950 . S
C600 C598 1.391 . S
C600 C601 1.400 . S
C601 C595 1.491 . S
C601 C600 1.400 . S
C601 C602 1.398 . S
C602 H590 0.950 . S
C602 C601 1.398 . S
C602 C603 1.391 . S
C603 H591 0.950 . S
C603 C599 1.393 . S
C603 C602 1.391 . S
H604 C612 0.950 . S
H605 C617 0.950 . S
H606 C614 0.950 . S
H607 C616 0.950 . S
H608 C618 0.950 . S
H609 C620 0.954 . S
H610 C622 0.950 . S
H611 C623 0.950 . S
C612 H604 0.950 . S
C612 C613 1.386 . S
C612 C614 1.391 . S
C613 C612 1.386 . S
C613 C617 1.393 . S
C614 H606 0.950 . S
C614 C612 1.391 . S
C614 C615 1.400 . S
C615 C614 1.400 . S
C615 C616 1.398 . S
C615 C621 1.491 . S
C616 H607 0.950 . S
C616 C615 1.398 . S
C616 C617 1.391 . S
C617 H605 0.950 . S
C617 C613 1.393 . S
C617 C616 1.391 . S
C618 H608 0.950 . S
C618 C619 1.386 . S
C618 C620 1.391 . S
C619 C618 1.386 . S
C619 C623 1.393 . S
C620 H609 0.954 . S
C620 C618 1.391 . S
C620 C621 1.400 1_556 S
C621 C615 1.491 . S
C621 C620 1.400 1_554 S
C621 C622 1.398 . S
C622 H610 0.950 . S
C622 C621 1.398 . S
C622 C623 1.391 1_554 S
C623 H611 0.950 . S
C623 C619 1.393 . S
C623 C622 1.391 1_556 S
H624 C632 0.950 . S
H625 C637 0.950 . S
H626 C634 0.950 . S
H627 C636 0.950 1_554 S
H628 C638 0.950 . S
H629 C640 0.950 . S
H630 C642 0.950 . S
H631 C643 0.950 . S
C632 H624 0.950 . S
C632 C633 1.386 . S
C632 C634 1.391 . S
C633 C632 1.386 . S
C633 C637 1.393 . S
C634 H626 0.950 . S
C634 C632 1.391 . S
C634 C635 1.375 1_556 S
C635 C634 1.375 1_554 S
C635 C636 1.398 1_554 S
C635 C641 1.515 . S
C636 H627 0.950 1_556 S
C636 C635 1.398 1_556 S
C636 C637 1.391 . S
C637 H625 0.950 . S
C637 C633 1.393 . S
C637 C636 1.391 . S
C638 H628 0.950 . S
C638 C639 1.386 . S
C638 C640 1.391 . S
C639 C638 1.386 . S
C639 C643 1.393 . S
C640 H629 0.950 . S
C640 C638 1.391 . S
C640 C641 1.400 . S
C641 C635 1.515 . S
C641 C640 1.400 . S
C641 C642 1.398 . S
C642 H630 0.950 . S
C642 C641 1.398 . S
C642 C643 1.391 . S
C643 H631 0.950 . S
C643 C639 1.393 . S
C643 C642 1.391 . S
H644 C652 0.950 . S
H645 C657 0.950 . S
H646 C654 0.950 . S
H647 C656 0.950 . S
H648 C658 0.950 . S
H649 C660 0.950 . S
H650 C662 0.950 . S
H651 C663 0.950 . S
C652 H644 0.950 . S
C652 C653 1.386 . S
C652 C654 1.391 . S
C653 C652 1.386 . S
C653 C657 1.393 . S
C654 H646 0.950 . S
C654 C652 1.391 . S
C654 C655 1.400 . S
C655 C654 1.400 . S
C655 C656 1.398 . S
C655 C661 1.491 . S
C656 H647 0.950 . S
C656 C655 1.398 . S
C656 C657 1.391 . S
C657 H645 0.950 . S
C657 C653 1.393 . S
C657 C656 1.391 . S
C658 H648 0.950 . S
C658 C659 1.386 . S
C658 C660 1.391 . S
C659 C658 1.386 . S
C659 C663 1.393 . S
C660 H649 0.950 . S
C660 C658 1.391 . S
C660 C661 1.400 . S
C661 C655 1.491 . S
C661 C660 1.400 . S
C661 C662 1.398 . S
C662 H650 0.950 . S
C662 C661 1.398 . S
C662 C663 1.391 . S
C663 H651 0.950 . S
C663 C659 1.393 . S
C663 C662 1.391 . S
H664 C672 0.950 . S
H665 C677 0.950 . S
H666 C674 0.950 . S
H667 C676 0.950 . S
H668 C678 0.950 . S
H669 C680 0.950 . S
H670 C682 0.950 . S
H671 C683 0.950 . S
C672 H664 0.950 . S
C672 C673 1.386 . S
C672 C674 1.391 . S
C673 C672 1.386 . S
C673 C677 1.393 . S
C674 H666 0.950 . S
C674 C672 1.391 . S
C674 C675 1.400 . S
C675 C674 1.400 . S
C675 C676 1.398 . S
C675 C681 1.491 . S
C676 H667 0.950 . S
C676 C675 1.398 . S
C676 C677 1.391 . S
C677 H665 0.950 . S
C677 C673 1.393 . S
C677 C676 1.391 . S
C678 H668 0.950 . S
C678 C679 1.386 . S
C678 C680 1.391 . S
C679 C678 1.386 . S
C679 C683 1.393 . S
C680 H669 0.950 . S
C680 C678 1.391 . S
C680 C681 1.400 . S
C681 C675 1.491 . S
C681 C680 1.400 . S
C681 C682 1.398 . S
C682 H670 0.950 . S
C682 C681 1.398 . S
C682 C683 1.391 . S
C683 H671 0.950 . S
C683 C679 1.393 . S
C683 C682 1.391 . S
H684 C692 0.950 . S
H685 C697 0.950 . S
H686 C694 0.950 . S
H687 C696 0.950 . S
H688 C698 0.950 . S
H689 C700 0.950 . S
H690 C702 0.950 1_455 S
H691 C703 0.950 . S
C692 H684 0.950 . S
C692 C693 1.386 . S
C692 C694 1.391 . S
C693 C692 1.386 . S
C693 C697 1.393 . S
C694 H686 0.950 . S
C694 C692 1.391 . S
C694 C695 1.400 . S
C695 C694 1.400 . S
C695 C696 1.398 1_455 S
C695 C701 1.491 1_455 S
C696 H687 0.950 . S
C696 C695 1.398 1_655 S
C696 C697 1.391 1_655 S
C697 H685 0.950 . S
C697 C693 1.393 . S
C697 C696 1.391 1_455 S
C698 H688 0.950 . S
C698 C699 1.386 . S
C698 C700 1.391 . S
C699 C698 1.386 . S
C699 C703 1.393 . S
C700 H689 0.950 . S
C700 C698 1.391 . S
C700 C701 1.400 . S
C701 C695 1.491 1_655 S
C701 C700 1.400 . S
C701 C702 1.398 . S
C702 H690 0.950 1_655 S
C702 C701 1.398 . S
C702 C703 1.391 . S
C703 H691 0.950 . S
C703 C699 1.393 . S
C703 C702 1.391 . S
H704 C712 0.950 . S
H705 C717 0.950 . S
H706 C714 0.950 . S
H707 C716 0.950 . S
H708 C718 0.950 . S
H709 C720 0.950 . S
H710 C722 0.960 . S
H711 C723 0.950 . S
C712 H704 0.950 . S
C712 C713 1.386 . S
C712 C714 1.391 . S
C713 C712 1.386 . S
C713 C717 1.393 . S
C714 H706 0.950 . S
C714 C712 1.391 . S
C714 C715 1.400 . S
C715 C714 1.400 . S
C715 C716 1.398 . S
C715 C721 1.491 1_455 S
C716 H707 0.950 . S
C716 C715 1.398 . S
C716 C717 1.391 . S
C717 H705 0.950 . S
C717 C713 1.393 . S
C717 C716 1.391 . S
C718 H708 0.950 . S
C718 C719 1.386 . S
C718 C720 1.391 . S
C719 C718 1.386 . S
C719 C723 1.393 . S
C720 H709 0.950 . S
C720 C718 1.391 . S
C720 C721 1.400 . S
C721 C715 1.491 1_655 S
C721 C720 1.400 . S
C721 C722 1.398 . S
C722 H710 0.960 . S
C722 C721 1.398 . S
C722 C723 1.391 . S
C723 H711 0.950 . S
C723 C719 1.393 . S
C723 C722 1.391 . S
H724 C732 0.950 . S
H725 C737 0.950 . S
H726 C734 0.950 . S
H727 C736 0.950 . S
H728 C738 0.950 . S
H729 C740 0.950 . S
H730 C742 0.950 . S
H731 C743 0.950 . S
C732 H724 0.950 . S
C732 C733 1.386 . S
C732 C734 1.391 . S
C733 C732 1.386 . S
C733 C737 1.393 . S
C734 H726 0.950 . S
C734 C732 1.391 . S
C734 C735 1.400 . S
C735 C734 1.400 . S
C735 C736 1.398 . S
C735 C741 1.491 . S
C736 H727 0.950 . S
C736 C735 1.398 . S
C736 C737 1.391 . S
C737 H725 0.950 . S
C737 C733 1.393 . S
C737 C736 1.391 . S
C738 H728 0.950 . S
C738 C739 1.386 . S
C738 C740 1.391 . S
C739 C738 1.386 . S
C739 C743 1.393 . S
C740 H729 0.950 . S
C740 C738 1.391 . S
C740 C741 1.400 . S
C741 C735 1.491 . S
C741 C740 1.400 . S
C741 C742 1.398 . S
C742 H730 0.950 . S
C742 C741 1.398 . S
C742 C743 1.391 . S
C743 H731 0.950 . S
C743 C739 1.393 . S
C743 C742 1.391 . S
H744 C752 0.950 . S
H745 C757 0.950 . S
H746 C754 0.950 . S
H747 C756 0.950 . S
H748 C758 0.950 . S
H749 C760 0.950 . S
H750 C762 0.950 . S
H751 C763 0.950 . S
C752 H744 0.950 . S
C752 C753 1.386 . S
C752 C754 1.391 . S
C753 C752 1.386 . S
C753 C757 1.393 . S
C754 H746 0.950 . S
C754 C752 1.391 . S
C754 C755 1.400 . S
C755 C754 1.400 . S
C755 C756 1.398 . S
C755 C761 1.491 . S
C756 H747 0.950 . S
C756 C755 1.398 . S
C756 C757 1.391 . S
C757 H745 0.950 . S
C757 C753 1.393 . S
C757 C756 1.391 . S
C758 H748 0.950 . S
C758 C759 1.386 . S
C758 C760 1.391 . S
C759 C758 1.386 . S
C759 C763 1.393 . S
C760 H749 0.950 . S
C760 C758 1.391 . S
C760 C761 1.400 . S
C761 C755 1.491 . S
C761 C760 1.400 . S
C761 C762 1.398 . S
C762 H750 0.950 . S
C762 C761 1.398 . S
C762 C763 1.391 . S
C763 H751 0.950 . S
C763 C759 1.393 . S
C763 C762 1.391 . S
H764 C772 0.950 . S
H765 C777 0.950 . S
H766 C774 0.950 1_565 S
H767 C776 0.950 . S
H768 C778 0.950 . S
H769 C780 0.950 1_545 S
H770 C782 0.950 . S
H771 C783 0.950 . S
C772 H764 0.950 . S
C772 C773 1.386 . S
C772 C774 1.391 . S
C773 C772 1.386 . S
C773 C777 1.393 . S
C774 H766 0.950 1_545 S
C774 C772 1.391 . S
C774 C775 1.400 . S
C775 C774 1.400 . S
C775 C776 1.398 . S
C775 C781 1.491 1_545 S
C776 H767 0.950 . S
C776 C775 1.398 . S
C776 C777 1.391 . S
C777 H765 0.950 . S
C777 C773 1.393 . S
C777 C776 1.391 . S
C778 H768 0.950 . S
C778 C779 1.386 . S
C778 C780 1.391 . S
C779 C778 1.386 . S
C779 C783 1.393 . S
C780 H769 0.950 1_565 S
C780 C778 1.391 . S
C780 C781 1.400 . S
C781 C775 1.491 1_565 S
C781 C780 1.400 . S
C781 C782 1.398 . S
C782 H770 0.950 . S
C782 C781 1.398 . S
C782 C783 1.391 . S
C783 H771 0.950 . S
C783 C779 1.393 . S
C783 C782 1.391 . S
H784 C792 0.950 . S
H785 C797 0.950 . S
H786 C794 0.950 . S
H787 C796 0.950 . S
H788 C798 0.950 . S
H789 C800 0.950 . S
H790 C802 0.950 . S
H791 C803 0.950 . S
C792 H784 0.950 . S
C792 C793 1.386 . S
C792 C794 1.391 . S
C793 C792 1.386 . S
C793 C797 1.393 . S
C794 H786 0.950 . S
C794 C792 1.391 . S
C794 C795 1.400 . S
C795 C794 1.400 . S
C795 C796 1.398 . S
C795 C801 1.491 . S
C796 H787 0.950 . S
C796 C795 1.398 . S
C796 C797 1.391 . S
C797 H785 0.950 . S
C797 C793 1.393 . S
C797 C796 1.391 . S
C798 H788 0.950 . S
C798 C799 1.386 . S
C798 C800 1.391 . S
C799 C798 1.386 . S
C799 C803 1.393 . S
C800 H789 0.950 . S
C800 C798 1.391 . S
C800 C801 1.400 . S
C801 C795 1.491 . S
C801 C800 1.400 . S
C801 C802 1.398 . S
C802 H790 0.950 . S
C802 C801 1.398 . S
C802 C803 1.391 . S
C803 H791 0.950 . S
C803 C799 1.393 . S
C803 C802 1.391 . S
H804 C812 0.950 . S
H805 C817 0.950 . S
H806 C814 0.950 . S
H807 C816 0.950 . S
H808 C818 0.950 . S
H809 C820 0.950 . S
H810 C822 0.950 . S
H811 C823 0.950 . S
C812 H804 0.950 . S
C812 C813 1.386 . S
C812 C814 1.391 . S
C813 C812 1.386 . S
C813 C817 1.393 . S
C814 H806 0.950 . S
C814 C812 1.391 . S
C814 C815 1.400 . S
C815 C814 1.400 . S
C815 C816 1.398 . S
C815 C821 1.491 . S
C816 H807 0.950 . S
C816 C815 1.398 . S
C816 C817 1.391 . S
C817 H805 0.950 . S
C817 C813 1.393 . S
C817 C816 1.391 . S
C818 H808 0.950 . S
C818 C819 1.386 . S
C818 C820 1.391 . S
C819 C818 1.386 . S
C819 C823 1.393 . S
C820 H809 0.950 . S
C820 C818 1.391 . S
C820 C821 1.400 . S
C821 C815 1.491 . S
C821 C820 1.400 . S
C821 C822 1.398 . S
C822 H810 0.950 . S
C822 C821 1.398 . S
C822 C823 1.391 . S
C823 H811 0.950 . S
C823 C819 1.393 . S
C823 C822 1.391 . S
H824 C832 0.950 . S
H825 C837 0.950 . S
H826 C834 0.950 . S
H827 C836 0.950 1_565 S
H828 C838 0.950 . S
H829 C840 0.950 . S
H830 C842 0.950 1_545 S
H831 C843 0.950 . S
C832 H824 0.950 . S
C832 C833 1.386 . S
C832 C834 1.391 . S
C833 C832 1.386 . S
C833 C837 1.393 . S
C834 H826 0.950 . S
C834 C832 1.391 . S
C834 C835 1.400 . S
C835 C834 1.400 . S
C835 C836 1.398 . S
C835 C841 1.491 1_545 S
C836 H827 0.950 1_545 S
C836 C835 1.398 . S
C836 C837 1.391 . S
C837 H825 0.950 . S
C837 C833 1.393 . S
C837 C836 1.391 . S
C838 H828 0.950 . S
C838 C839 1.386 . S
C838 C840 1.391 . S
C839 C838 1.386 . S
C839 C843 1.393 . S
C840 H829 0.950 . S
C840 C838 1.391 . S
C840 C841 1.400 . S
C841 C835 1.491 1_565 S
C841 C840 1.400 . S
C841 C842 1.398 . S
C842 H830 0.950 1_565 S
C842 C841 1.398 . S
C842 C843 1.391 . S
C843 H831 0.950 . S
C843 C839 1.393 . S
C843 C842 1.391 . S
H844 C852 0.950 . S
H845 C857 0.950 . S
H846 C854 0.950 . S
H847 C856 0.950 . S
H848 C858 0.950 . S
H849 C860 0.950 . S
H850 C862 0.950 . S
H851 C863 0.950 . S
C852 H844 0.950 . S
C852 C853 1.386 . S
C852 C854 1.391 . S
C853 C852 1.386 . S
C853 C857 1.393 . S
C854 H846 0.950 . S
C854 C852 1.391 . S
C854 C855 1.400 . S
C855 C854 1.400 . S
C855 C856 1.398 . S
C855 C861 1.491 . S
C856 H847 0.950 . S
C856 C855 1.398 . S
C856 C857 1.391 . S
C857 H845 0.950 . S
C857 C853 1.393 . S
C857 C856 1.391 . S
C858 H848 0.950 . S
C858 C859 1.386 . S
C858 C860 1.391 . S
C859 C858 1.386 . S
C859 C863 1.393 . S
C860 H849 0.950 . S
C860 C858 1.391 . S
C860 C861 1.400 . S
C861 C855 1.491 . S
C861 C860 1.400 . S
C861 C862 1.398 . S
C862 H850 0.950 . S
C862 C861 1.398 . S
C862 C863 1.391 . S
C863 H851 0.950 . S
C863 C859 1.393 . S
C863 C862 1.391 . S
C233 C7 1.324 . S
C239 C189 1.328 . S
C253 C21 1.398 . S
C259 C133 1.412 . S
C273 C203 0.500 . S
C279 C35 0.525 . S
C293 C49 0.743 . S
C299 C217 0.743 . S
C313 C63 1.398 . S
C319 C91 1.402 . S
C333 C147 1.318 . S
C339 C77 1.326 . S
C353 C161 0.537 . S
C359 C105 0.475 . S
C373 C119 0.716 . S
C379 C175 0.725 . S
C393 C36 1.546 . S
C399 C8 1.575 . S
C413 C22 1.596 . S
C419 C45 1.590 . S
C433 C177 1.503 . S
C439 C3 1.507 . S
C453 C17 1.582 . S
C459 C157 1.570 . S
C473 C59 1.584 . S
C479 C31 1.574 . S
C493 C143 1.509 . S
C499 C51 1.505 . S
C513 C23 1.973 . S
C519 C9 1.968 . S
C533 C50 1.539 . S
C539 C37 1.539 . S
C553 C149 1.967 . S
C559 C65 1.971 . S
C573 C101 1.841 . S
C579 C79 1.827 . S
C593 C93 1.519 . S
C599 C115 1.538 . S
C613 C218 1.858 . S
C619 C73 1.862 . S
C633 C87 1.403 . S
C639 C204 1.403 . S
C653 C129 1.402 . S
C659 C106 1.403 . S
C673 C120 1.859 . S
C679 C185 1.861 . S
C693 C92 1.550 . S
C699 C78 1.549 . S
C713 C121 1.655 . S
C719 C107 1.659 . S
C733 C134 1.549 . S
C739 C190 1.540 . S
C753 C148 1.572 . S
C759 C162 1.557 . S
C773 C171 1.593 . S
C779 C64 1.596 . S
C793 C176 1.529 . S
C799 C163 1.533 . S
C813 C199 1.842 . S
C819 C191 1.830 . S
C833 C135 1.509 . S
C839 C213 1.537 . S
C853 C219 1.651 . S
C859 C205 1.658 . S
