# Generated by pormake.
# Topology smc, (6)-cn, num edge types: 1
# Building blocks:
#     Node 0, Type 0, BuildingBlock: GEDQOX_clean_sbu_0, # of connection points: 6
#     Node 1, Type 0, BuildingBlock: GEDQOX_clean_sbu_0, # of connection points: 6
#     Node 2, Type 0, BuildingBlock: GEDQOX_clean_sbu_0, # of connection points: 6
#     Node 3, Type 0, BuildingBlock: GEDQOX_clean_sbu_0, # of connection points: 6
#     Node 4, Type 0, BuildingBlock: GEDQOX_clean_sbu_0, # of connection points: 6
#     Node 5, Type 0, BuildingBlock: GEDQOX_clean_sbu_0, # of connection points: 6
#     Node 6, Type 0, BuildingBlock: GEDQOX_clean_sbu_0, # of connection points: 6
#     Node 7, Type 0, BuildingBlock: GEDQOX_clean_sbu_0, # of connection points: 6
#     Node 8, Type 0, BuildingBlock: GEDQOX_clean_sbu_0, # of connection points: 6
#     Edge 9, Type (0, 0), BuildingBlock: MIFKUJ_clean_linker_0, # of connection points: 2
#     Edge 10, Type (0, 0), BuildingBlock: MIFKUJ_clean_linker_0, # of connection points: 2
#     Edge 11, Type (0, 0), BuildingBlock: MIFKUJ_clean_linker_0, # of connection points: 2
#     Edge 12, Type (0, 0), BuildingBlock: MIFKUJ_clean_linker_0, # of connection points: 2
#     Edge 13, Type (0, 0), BuildingBlock: MIFKUJ_clean_linker_0, # of connection points: 2
#     Edge 14, Type (0, 0), BuildingBlock: MIFKUJ_clean_linker_0, # of connection points: 2
#     Edge 15, Type (0, 0), BuildingBlock: MIFKUJ_clean_linker_0, # of connection points: 2
#     Edge 16, Type (0, 0), BuildingBlock: MIFKUJ_clean_linker_0, # of connection points: 2
#     Edge 17, Type (0, 0), BuildingBlock: MIFKUJ_clean_linker_0, # of connection points: 2
#     Edge 18, Type (0, 0), BuildingBlock: MIFKUJ_clean_linker_0, # of connection points: 2
#     Edge 19, Type (0, 0), BuildingBlock: MIFKUJ_clean_linker_0, # of connection points: 2
#     Edge 20, Type (0, 0), BuildingBlock: MIFKUJ_clean_linker_0, # of connection points: 2
#     Edge 21, Type (0, 0), BuildingBlock: MIFKUJ_clean_linker_0, # of connection points: 2
#     Edge 22, Type (0, 0), BuildingBlock: MIFKUJ_clean_linker_0, # of connection points: 2
#     Edge 23, Type (0, 0), BuildingBlock: MIFKUJ_clean_linker_0, # of connection points: 2
#     Edge 24, Type (0, 0), BuildingBlock: MIFKUJ_clean_linker_0, # of connection points: 2
#     Edge 25, Type (0, 0), BuildingBlock: MIFKUJ_clean_linker_0, # of connection points: 2
#     Edge 26, Type (0, 0), BuildingBlock: MIFKUJ_clean_linker_0, # of connection points: 2
#     Edge 27, Type (0, 0), BuildingBlock: MIFKUJ_clean_linker_0, # of connection points: 2
#     Edge 28, Type (0, 0), BuildingBlock: MIFKUJ_clean_linker_0, # of connection points: 2
#     Edge 29, Type (0, 0), BuildingBlock: MIFKUJ_clean_linker_0, # of connection points: 2
#     Edge 30, Type (0, 0), BuildingBlock: MIFKUJ_clean_linker_0, # of connection points: 2
#     Edge 31, Type (0, 0), BuildingBlock: MIFKUJ_clean_linker_0, # of connection points: 2
#     Edge 32, Type (0, 0), BuildingBlock: MIFKUJ_clean_linker_0, # of connection points: 2
#     Edge 33, Type (0, 0), BuildingBlock: MIFKUJ_clean_linker_0, # of connection points: 2
#     Edge 34, Type (0, 0), BuildingBlock: MIFKUJ_clean_linker_0, # of connection points: 2
#     Edge 35, Type (0, 0), BuildingBlock: MIFKUJ_clean_linker_0, # of connection points: 2
# Relax obj value: 0.153
# Max RMSD: 0.294
# Mean RMSD: 0.294
data_MOF--net-smc--node1-GEDQOX_clean_sbu_0--edge1-MIFKUJ_clean_linker_0
_symmetry_space_group_name_H-M    P1
_symmetry_Int_Tables_number       1
_symmetry_cell_setting            triclinic
loop_
_symmetry_equiv_pos_as_xyz
'x, y, z'
_cell_length_a     48.525743
_cell_length_b     48.591796
_cell_length_c     51.036081
_cell_angle_alpha  89.402802
_cell_angle_beta   89.8682
_cell_angle_gamma 120.04374
loop_
_atom_site_label
_atom_site_type_symbol
_atom_site_fract_x
_atom_site_fract_y
_atom_site_fract_z
_atom_type_partial_charge
Nd0 Nd 0.04874 0.42932 0.03225 0.0
Nd1 Nd 1.00329 0.45539 0.03458 0.0
C2 C 0.09236 0.41588 0.04785 0.0
C3 C 0.12701 0.43041 0.04311 0.0
C4 C 0.1485 0.46078 0.05269 0.0
C5 C 0.18119 0.47415 0.04856 0.0
C6 C 0.19325 0.45765 0.03457 0.0
C7 C 0.1717 0.42749 1.02462 0.0
C8 C 0.13894 0.41397 1.02895 0.0
C9 C 0.03315 0.43189 0.98121 0.0
C10 C 0.07629 0.50698 1.02626 0.0
C11 C 0.95889 0.47114 0.0341 0.0
C12 C 0.93417 0.48022 0.03342 0.0
C13 C 0.93268 0.4979 1.01212 0.0
C14 C 0.91084 0.5086 1.01219 0.0
C15 C 0.89018 0.50207 0.03367 0.0
C16 C 0.89135 0.48384 0.0548 0.0
C17 C 0.91314 0.47301 0.05466 0.0
C18 C 0.02784 0.44844 0.08152 0.0
C19 C 0.97349 0.37979 1.02876 0.0
O20 O 0.0834 0.43268 0.06163 0.0
O21 O 0.07348 0.40149 1.02811 0.0
O22 O 0.05405 0.42447 0.98886 0.0
O23 O 0.02237 0.44034 1.00038 0.0
O24 O 0.08255 0.48419 0.03257 0.0
O25 O 0.04712 0.50095 1.02228 0.0
O26 O 0.98235 0.48248 1.01705 0.0
O27 O 0.95862 0.45068 0.05117 0.0
O28 O 0.02732 0.47412 0.07534 0.0
O29 O 1.01667 0.42912 0.06323 0.0
O30 O 0.97069 0.40444 1.02185 0.0
O31 O 1.00052 0.38295 0.03772 0.0
H32 H 0.1402 0.47426 0.06362 0.0
H33 H 0.19701 0.49719 0.05686 0.0
H34 H 0.18009 0.41432 1.01337 0.0
H35 H 0.12292 0.39063 1.02123 0.0
H36 H 0.94862 0.50378 0.99546 0.0
H37 H 0.9102 0.52204 0.99537 0.0
H38 H 0.87608 0.47868 0.07182 0.0
H39 H 0.9141 0.45974 0.07147 0.0
Nd40 Nd 0.60393 0.61851 1.02941 0.0
Nd41 Nd 0.57894 0.54925 0.03787 0.0
C42 C 0.62622 0.68058 0.03076 0.0
C43 C 0.61145 0.70068 0.03191 0.0
C44 C 0.57958 0.68802 0.03985 0.0
C45 C 0.56541 0.70705 0.03954 0.0
C46 C 0.58282 0.73907 0.03118 0.0
C47 C 0.61473 0.75147 1.02319 0.0
C48 C 0.62885 0.73247 1.02357 0.0
C49 C 0.60002 0.5874 0.9835 0.0
C50 C 0.52888 0.57288 1.02453 0.0
C51 C 0.54889 0.48625 0.03712 0.0
C52 C 0.54859 0.45582 0.04104 0.0
C53 C 0.55684 0.44231 1.02042 0.0
C54 C 0.55082 0.41102 1.02239 0.0
C55 C 0.53613 0.39237 0.04495 0.0
C56 C 0.52915 0.4064 0.06601 0.0
C57 C 0.53526 0.43771 0.06405 0.0
C58 C 0.58877 0.58343 0.08297 0.0
C59 C 0.65384 0.59182 0.04205 0.0
O60 O 0.6233 0.6634 0.05162 0.0
O61 O 0.62168 0.66493 1.00906 0.0
O62 O 0.58968 0.60718 0.98642 0.0
O63 O 0.60971 0.58281 1.00517 0.0
O64 O 0.55062 0.60146 0.03194 0.0
O65 O 0.53632 0.55072 1.0206 0.0
O66 O 0.564 0.50428 1.01682 0.0
O67 O 0.54959 0.50244 0.05766 0.0
O68 O 0.59604 0.56125 0.08048 0.0
O69 O 0.57587 0.58614 0.06244 0.0
O70 O 0.63036 0.56285 0.03787 0.0
O71 O 0.64976 0.61693 0.04159 0.0
H72 H 0.5656 0.66339 0.04614 0.0
H73 H 0.54091 0.69672 0.04604 0.0
H74 H 0.62872 0.77577 1.01612 0.0
H75 H 0.65332 0.74251 1.01701 0.0
H76 H 0.56685 0.45544 1.0023 0.0
H77 H 0.55704 0.40123 1.00595 0.0
H78 H 0.51751 0.39274 0.08357 0.0
H79 H 0.52814 0.44721 0.08015 0.0
Nd80 Nd 0.41741 0.98673 1.02814 0.0
Nd81 Nd 0.48653 0.0325 0.0346 0.0
C82 C 0.35552 0.9458 0.03113 0.0
C83 C 0.33559 0.9107 0.03032 0.0
C84 C 0.31422 0.89428 0.05092 0.0
C85 C 0.29532 0.86112 0.05064 0.0
C86 C 0.29718 0.84355 1.02961 0.0
C87 C 0.31886 0.8601 1.00907 0.0
C88 C 0.33794 0.89325 1.00947 0.0
C89 C 0.44785 0.01303 0.98093 0.0
C90 C 0.46436 0.95835 1.02341 0.0
C91 C 0.54945 0.06638 0.03269 0.0
C92 C 0.57954 0.09692 0.03492 0.0
C93 C 0.59023 0.12017 1.01491 0.0
C94 C 0.62131 0.14613 1.01524 0.0
C95 C 0.64234 0.14922 0.03546 0.0
C96 C 0.63102 0.12658 0.05599 0.0
C97 C 0.60002 0.10078 0.0557 0.0
C98 C 0.45314 1.00877 0.08067 0.0
C99 C 0.443 0.06349 0.03811 0.0
O100 O 0.37337 0.95758 0.05177 0.0
O101 O 0.37011 0.96046 1.00945 0.0
O102 O 0.42854 0.98294 0.9852 0.0
O103 O 0.45235 0.02769 1.00222 0.0
O104 O 0.43505 0.95083 1.02967 0.0
O105 O 0.48668 0.98819 1.02001 0.0
O106 O 0.53146 0.06129 1.01216 0.0
O107 O 0.53331 0.05272 0.0541 0.0
O108 O 0.47452 0.03843 0.07721 0.0
O109 O 0.45042 0.99278 0.06059 0.0
O110 O 0.47191 0.06962 0.03226 0.0
O111 O 0.41863 0.03389 0.04036 0.0
H112 H 0.31221 0.90714 0.06735 0.0
H113 H 0.27945 0.84926 0.06708 0.0
H114 H 0.32078 0.84753 0.9924 0.0
H115 H 0.35442 0.90516 0.99337 0.0
H116 H 0.57505 0.11778 0.99855 0.0
H117 H 0.62907 0.16339 0.99932 0.0
H118 H 0.64657 0.12782 0.07167 0.0
H119 H 0.59259 0.08297 0.07117 0.0
Nd120 Nd 0.71542 0.76895 0.36194 0.0
Nd121 Nd 0.67652 0.79964 0.36649 0.0
C122 C 0.75221 0.74313 0.36485 0.0
C123 C 0.78696 0.75662 0.36692 0.0
C124 C 0.80669 0.78785 0.37555 0.0
C125 C 0.83989 0.80149 0.37503 0.0
C126 C 0.85405 0.78422 0.36573 0.0
C127 C 0.83405 0.75276 0.35748 0.0
C128 C 0.8009 0.73919 0.35799 0.0
C129 C 0.69342 0.77592 0.31384 0.0
C130 C 0.75124 0.84446 0.35573 0.0
C131 C 0.64731 0.83346 0.36409 0.0
C132 C 0.61686 0.8336 0.36583 0.0
C133 C 0.60019 0.83226 0.34294 0.0
C134 C 0.57448 0.83768 0.34386 0.0
C135 C 0.56491 0.84482 0.36767 0.0
C136 C 0.58084 0.84496 0.39072 0.0
C137 C 0.60653 0.83949 0.38981 0.0
C138 C 0.69724 0.78797 0.41349 0.0
C139 C 0.63717 0.72436 0.3707 0.0
O140 O 0.73734 0.74596 0.38516 0.0
O141 O 0.74273 0.74926 0.34279 0.0
O142 O 0.7228 0.78458 0.31894 0.0
O143 O 0.67736 0.76723 0.33491 0.0
O144 O 0.75427 0.82134 0.36634 0.0
O145 O 0.72309 0.83945 0.34885 0.0
O146 O 0.65259 0.82071 0.34362 0.0
O147 O 0.6593 0.82911 0.38557 0.0
O148 O 0.66841 0.78223 0.40979 0.0
O149 O 0.71377 0.79962 0.39308 0.0
O150 O 0.63572 0.74981 0.36414 0.0
O151 O 0.66512 0.72575 0.37376 0.0
H152 H 0.79648 0.80193 0.38218 0.0
H153 H 0.85444 0.82586 0.38122 0.0
H154 H 0.844 0.73855 0.35057 0.0
H155 H 0.78613 0.71519 0.351 0.0
H156 H 0.60768 0.8281 0.3241 0.0
H157 H 0.56246 0.83686 0.32578 0.0
H158 H 0.57441 0.85072 0.40937 0.0
H159 H 0.61909 0.84116 0.40777 0.0
Nd160 Nd 0.26817 0.95065 0.36331 0.0
Nd161 Nd 0.24226 0.88141 0.3698 0.0
C162 C 0.29045 1.01261 0.36545 0.0
C163 C 0.27584 0.03313 0.36591 0.0
C164 C 0.26135 0.03636 0.38867 0.0
C165 C 0.24725 0.05546 0.38841 0.0
C166 C 0.24722 0.07166 0.36537 0.0
C167 C 0.26155 0.06815 0.34263 0.0
C168 C 0.27583 0.04933 0.34295 0.0
C169 C 0.26383 0.92128 0.31637 0.0
C170 C 0.19328 0.90632 0.35763 0.0
C171 C 0.21097 0.81861 0.36725 0.0
C172 C 0.20857 0.78767 0.37322 0.0
C173 C 0.22785 0.77791 0.36042 0.0
C174 C 0.22139 0.74651 0.36304 0.0
C175 C 0.19539 0.72421 0.37834 0.0
C176 C 0.17697 0.7345 0.39188 0.0
C177 C 0.18352 0.76583 0.38935 0.0
C178 C 0.2524 0.91391 0.41598 0.0
C179 C 0.31734 0.92266 0.37496 0.0
O180 O 0.28703 0.9951 0.38624 0.0
O181 O 0.28734 0.99752 0.34364 0.0
O182 O 0.25349 0.94091 0.32024 0.0
O183 O 0.27336 0.91567 0.3377 0.0
O184 O 0.21488 0.93362 0.36737 0.0
O185 O 0.20098 0.8849 0.35125 0.0
O186 O 0.23123 0.83717 0.34927 0.0
O187 O 0.2072 0.83414 0.38639 0.0
O188 O 0.2593 0.89157 0.41271 0.0
O189 O 0.23969 0.91749 0.39573 0.0
O190 O 0.29348 0.89378 0.3712 0.0
O191 O 0.31367 0.94804 0.37463 0.0
H192 H 0.2609 0.0242 0.40672 0.0
H193 H 0.23679 0.05786 0.40638 0.0
H194 H 0.26149 0.07968 0.32438 0.0
H195 H 0.2867 0.04728 0.32507 0.0
H196 H 0.24727 0.79417 0.34772 0.0
H197 H 0.2364 0.73958 0.35267 0.0
H198 H 0.15649 0.71801 0.40352 0.0
H199 H 0.16799 0.7726 0.39913 0.0
Nd200 Nd 0.0849 0.32137 0.3642 0.0
Nd201 Nd 0.15438 0.36344 0.36898 0.0
C202 C 0.02257 0.28343 0.36825 0.0
C203 C 1.00184 0.24864 0.37001 0.0
C204 C 1.01244 0.22937 0.3818 0.0
C205 C 0.99347 0.1962 0.38135 0.0
C206 C 0.96372 0.18173 0.36887 0.0
C207 C 0.95318 0.20121 0.35729 0.0
C208 C 0.97209 0.23432 0.35784 0.0
C209 C 0.11394 0.34499 0.31619 0.0
C210 C 0.12773 0.28917 0.35816 0.0
C211 C 0.21743 0.39351 0.36695 0.0
C212 C 0.24867 0.42206 0.37183 0.0
C213 C 0.26162 0.44816 0.35433 0.0
C214 C 0.29339 0.47234 0.35657 0.0
C215 C 0.31289 0.47085 0.37625 0.0
C216 C 0.29946 0.44539 0.39436 0.0
C217 C 0.26777 0.42126 0.39212 0.0
C218 C 0.12162 0.34221 0.41581 0.0
C219 C 0.1147 0.39888 0.37205 0.0
O220 O 0.0407 0.29754 0.38837 0.0
O221 O 0.03747 0.29416 0.34589 0.0
O222 O 0.09338 0.31534 0.32098 0.0
O223 O 0.12044 0.36058 0.33713 0.0
O224 O 0.10048 0.28406 0.36806 0.0
O225 O 0.14979 0.31813 0.35138 0.0
O226 O 0.19986 0.39396 0.34773 0.0
O227 O 0.20074 0.37625 0.38703 0.0
O228 O 0.14369 0.37149 0.4115 0.0
O229 O 0.1179 0.32553 0.396 0.0
O230 O 0.14281 0.40276 0.36608 0.0
O231 O 0.08931 0.37015 0.37549 0.0
H232 H 0.03562 0.23992 0.39089 0.0
H233 H 1.00247 0.18191 0.39014 0.0
H234 H 0.93027 0.19086 0.34777 0.0
H235 H 0.96367 0.24877 0.34837 0.0
H236 H 0.24767 0.44932 0.33828 0.0
H237 H 0.30303 0.49145 0.34213 0.0
H238 H 0.31363 0.44375 0.41001 0.0
H239 H 0.25859 0.40128 0.40572 0.0
Nd240 Nd 0.37918 0.10017 0.6952 0.0
Nd241 Nd 0.33717 0.12743 0.7006 0.0
C242 C 0.41745 0.07621 0.69839 0.0
C243 C 0.45222 0.09041 0.70032 0.0
C244 C 0.47117 0.12069 0.71103 0.0
C245 C 0.50439 0.13486 0.71094 0.0
C246 C 0.51929 0.11914 0.6999 0.0
C247 C 0.50005 0.08882 0.68915 0.0
C248 C 0.46689 0.07463 0.68942 0.0
C249 C 0.35394 0.10404 0.64792 0.0
C250 C 0.41121 0.17531 0.68773 0.0
C251 C 0.30612 0.15923 0.69721 0.0
C252 C 0.27698 0.16076 0.70272 0.0
C253 C 0.2492 0.14349 0.68794 0.0
C254 C 0.22389 0.14941 0.69041 0.0
C255 C 0.22592 0.17285 0.70758 0.0
C256 C 0.25327 0.18915 0.72306 0.0
C257 C 0.27846 0.18316 0.72065 0.0
C258 C 0.35998 0.11807 0.74725 0.0
C259 C 0.30195 0.05268 0.70862 0.0
O260 O 0.40252 0.07896 0.71869 0.0
O261 O 0.4075 0.08154 0.67622 0.0
O262 O 0.38386 0.1139 0.65172 0.0
O263 O 0.33886 0.09514 0.66944 0.0
O264 O 0.41658 0.15333 0.69767 0.0
O265 O 0.38211 0.16799 0.6815 0.0
O266 O 0.30537 0.14006 0.67905 0.0
O267 O 0.32458 0.16194 0.71681 0.0
O268 O 0.33082 0.11163 0.74409 0.0
O269 O 0.37603 0.12988 0.72658 0.0
O270 O 0.2977 0.0768 0.70329 0.0
O271 O 0.33075 0.05563 0.7084 0.0
H272 H 0.46032 0.13354 0.71918 0.0
H273 H 0.51833 0.15806 0.7196 0.0
H274 H 0.51058 0.07626 0.67995 0.0
H275 H 0.45269 0.05152 0.68061 0.0
H276 H 0.24736 0.12616 0.67384 0.0
H277 H 0.20299 0.13604 0.67849 0.0
H278 H 0.25597 0.20766 0.73621 0.0
H279 H 0.29975 0.19715 0.73202 0.0
Nd280 Nd 0.93224 0.28279 0.69707 0.0
Nd281 Nd 0.90805 0.21494 0.70427 0.0
C282 C 0.95532 0.34487 0.69957 0.0
C283 C 0.94094 0.36553 0.70007 0.0
C284 C 0.92084 0.36387 0.72069 0.0
C285 C 0.9068 0.383 0.72022 0.0
C286 C 0.91233 0.40403 0.69906 0.0
C287 C 0.93226 0.40536 0.6784 0.0
C288 C 0.9465 0.38649 0.67899 0.0
C289 C 0.92656 0.25399 0.64955 0.0
C290 C 0.85673 0.23794 0.69371 0.0
C291 C 0.87646 0.15207 0.70569 0.0
C292 C 0.87195 0.1198 0.70616 0.0
C293 C 0.88876 0.11049 0.68944 0.0
C294 C 0.8809 0.0785 0.68871 0.0
C295 C 0.85591 0.05547 0.70444 0.0
C296 C 0.83989 0.06524 0.7216 0.0
C297 C 0.84788 0.09704 0.72245 0.0
C298 C 0.91931 0.24883 0.74998 0.0
C299 C 0.98252 0.25564 0.70344 0.0
O300 O 0.95129 0.32701 0.72023 0.0
O301 O 0.9524 0.33006 0.67766 0.0
O302 O 0.91562 0.27285 0.65472 0.0
O303 O 0.93684 0.24801 0.67036 0.0
O304 O 0.87903 0.26676 0.70011 0.0
O305 O 0.86384 0.21554 0.68987 0.0
O306 O 0.88493 0.16872 0.68386 0.0
O307 O 0.88611 0.16928 0.72676 0.0
O308 O 0.92891 0.22864 0.74599 0.0
O309 O 0.90488 0.25074 0.73025 0.0
O310 O 0.95871 0.22764 0.69728 0.0
O311 O 0.97804 0.28007 0.70788 0.0
H312 H 0.91587 0.34779 0.73717 0.0
H313 H 0.89193 0.38154 0.73663 0.0
H314 H 0.93659 0.42069 0.6615 0.0
H315 H 0.96164 0.38804 0.66274 0.0
H316 H 0.90738 0.1277 0.67661 0.0
H317 H 0.89364 0.07162 0.67529 0.0
H318 H 0.82094 0.0482 0.73428 0.0
H319 H 0.83457 0.10376 0.73543 0.0
Nd320 Nd 0.75015 0.65401 0.69422 0.0
Nd321 Nd 0.82034 0.6942 0.7005 0.0
C322 C 0.68772 0.61546 0.69559 0.0
C323 C 0.66693 0.58046 0.69653 0.0
C324 C 0.6717 0.56143 0.71484 0.0
C325 C 0.65255 0.52824 0.71453 0.0
C326 C 0.62843 0.5133 0.69572 0.0
C327 C 0.62407 0.53255 0.6773 0.0
C328 C 0.64297 0.56567 0.6778 0.0
C329 C 0.78178 0.68099 0.64749 0.0
C330 C 0.79189 0.62076 0.68692 0.0
C331 C 0.88314 0.72305 0.69679 0.0
C332 C 0.9149 0.74991 0.7029 0.0
C333 C 0.92358 0.78161 0.69721 0.0
C334 C 0.95533 0.8059 0.69969 0.0
C335 C 0.97886 0.79881 0.70774 0.0
C336 C 0.96969 0.76721 0.71438 0.0
C337 C 0.93809 0.74307 0.71196 0.0
C338 C 0.78723 0.67167 0.74685 0.0
C339 C 0.78205 0.73109 0.70739 0.0
O340 O 0.70445 0.62924 0.7164 0.0
O341 O 0.7039 0.62715 0.67388 0.0
O342 O 0.76057 0.65125 0.6507 0.0
O343 O 0.78728 0.69455 0.66934 0.0
O344 O 0.765 0.616 0.69734 0.0
O345 O 0.81411 0.64968 0.68036 0.0
O346 O 0.86534 0.72761 0.68009 0.0
O347 O 0.86688 0.70256 0.71543 0.0
O348 O 0.81163 0.70002 0.74406 0.0
O349 O 0.78212 0.65579 0.72625 0.0
O350 O 0.81012 0.73421 0.70257 0.0
O351 O 0.75541 0.70283 0.70708 0.0
H352 H 0.6903 0.57212 0.72934 0.0
H353 H 0.65649 0.51436 0.72921 0.0
H354 H 0.60634 0.52207 0.66212 0.0
H355 H 0.63916 0.57978 0.66324 0.0
H356 H 0.90613 0.7875 0.69008 0.0
H357 H 0.96166 0.82999 0.69432 0.0
H358 H 0.98708 0.76102 0.7211 0.0
H359 H 0.93195 0.71877 0.71636 0.0
H360 H 0.47775 0.51337 1.02131 0.0
H361 H 0.42186 0.49783 1.0206 0.0
H362 H 0.44694 0.59648 1.02229 0.0
H363 H 0.50351 0.61232 1.02423 0.0
H364 H 0.39942 0.56391 0.05391 0.0
H365 H 0.41956 0.55029 0.96509 0.0
H366 H 0.43933 0.53197 0.92852 0.0
H367 H 0.37585 0.43484 0.9514 0.0
H368 H 0.35603 0.45258 0.98837 0.0
H369 H 0.23831 0.52018 1.02525 0.0
H370 H 0.29592 0.54314 1.02139 0.0
H371 H 0.28503 0.44994 0.0312 0.0
H372 H 0.22754 0.42682 0.03585 0.0
H373 H 0.32582 0.48447 0.99053 0.0
H374 H 0.30897 0.50016 0.08139 0.0
H375 H 0.28913 0.51978 0.11698 0.0
H376 H 0.34668 0.61547 0.08799 0.0
H377 H 0.3665 0.59633 0.05198 0.0
C378 C 0.47154 0.5319 1.02128 0.0
C379 C 0.49512 0.56416 1.02253 0.0
C380 C 0.43945 0.52292 1.02075 0.0
C381 C 0.43013 0.54598 1.02073 0.0
C382 C 0.45359 0.57828 1.02207 0.0
C383 C 0.48587 0.58731 1.02306 0.0
C384 C 0.39579 0.53598 1.02018 0.0
C385 C 0.38346 0.54705 0.03969 0.0
C386 C 0.37478 0.5136 1.00189 0.0
C387 C 0.38646 0.50279 0.97958 0.0
C388 C 0.40996 0.52503 0.96242 0.0
C389 C 0.42116 0.51475 0.94161 0.0
C390 C 0.40889 0.48227 0.93766 0.0
C391 C 0.38534 0.45999 0.95449 0.0
C392 C 0.37408 0.47015 0.97535 0.0
C393 C 0.24813 0.50455 1.02684 0.0
C394 C 0.22819 0.4716 0.03097 0.0
C395 C 0.28106 0.51773 1.02451 0.0
C396 C 0.29469 0.49825 1.02621 0.0
C397 C 0.27491 0.46536 1.02978 0.0
C398 C 0.24202 0.45217 0.03228 0.0
C399 C 0.3296 0.51204 1.02443 0.0
C400 C 0.34195 0.50165 1.00448 0.0
C401 C 0.35062 0.53529 0.0421 0.0
C402 C 0.33893 0.54678 0.06385 0.0
C403 C 0.31719 0.52535 0.0825 0.0
C404 C 0.30598 0.53639 0.10275 0.0
C405 C 0.31656 0.56884 0.1047 0.0
C406 C 0.33846 0.59033 0.08643 0.0
C407 C 0.34969 0.57941 0.0661 0.0
H408 H 0.30786 0.57734 0.1204 0.0
H409 H 0.4176 0.47436 0.92154 0.0
H410 H 0.42628 0.89408 1.01559 0.0
H411 H 0.4429 0.85401 1.01445 0.0
H412 H 0.53985 0.92696 1.02939 0.0
H413 H 0.52375 0.96691 1.02892 0.0
H414 H 0.54225 0.89097 0.99607 0.0
H415 H 0.48382 0.86961 0.07804 0.0
H416 H 0.43659 0.85661 0.10518 0.0
H417 H 0.38206 0.7695 0.06349 0.0
H418 H 0.4289 0.78218 0.03592 0.0
H419 H 0.61006 0.80202 0.04388 0.0
H420 H 0.58675 0.83623 0.04089 0.0
H421 H 0.49837 0.75707 1.0147 0.0
H422 H 0.52167 0.7226 1.01728 0.0
H423 H 0.4881 0.79239 0.05031 0.0
H424 H 0.549 0.8128 0.97101 0.0
H425 H 0.597 0.82616 0.94486 0.0
H426 H 0.64805 0.91625 0.98307 0.0
H427 H 0.60046 0.90321 1.00972 0.0
C428 C 0.45113 0.90146 1.01846 0.0
C429 C 0.47368 0.93365 1.02222 0.0
C430 C 0.46062 0.87853 1.01804 0.0
C431 C 0.49265 0.88723 1.02227 0.0
C432 C 0.51505 0.91946 1.02596 0.0
C433 C 0.50576 0.94236 1.02572 0.0
C434 C 0.50332 0.86325 1.02283 0.0
C435 C 0.53053 0.86964 1.00821 0.0
C436 C 0.48768 0.83478 0.03798 0.0
C437 C 0.45973 0.82697 0.05479 0.0
C438 C 0.4617 0.84776 0.07461 0.0
C439 C 0.43502 0.84045 0.09006 0.0
C440 C 0.40632 0.81229 0.08602 0.0
C441 C 0.40428 0.79132 0.06658 0.0
C442 C 0.43089 0.79854 0.05105 0.0
C443 C 0.58574 0.79183 0.03725 0.0
C444 C 0.56792 0.75953 0.03055 0.0
C445 C 0.57239 0.81146 0.03564 0.0
C446 C 0.54094 0.79936 1.02718 0.0
C447 C 0.52271 0.76695 1.02122 0.0
C448 C 0.53607 0.74725 1.0228 0.0
C449 C 0.52742 0.82076 1.0242 0.0
C450 C 0.49968 0.81376 0.03818 0.0
C451 C 0.54273 0.84886 1.00869 0.0
C452 C 0.57125 0.85693 0.99247 0.0
C453 C 0.57052 0.83538 0.97393 0.0
C454 C 0.59765 0.8429 0.95902 0.0
C455 C 0.62557 0.87201 0.96233 0.0
C456 C 0.62641 0.8937 0.98053 0.0
C457 C 0.59936 0.88627 0.99552 0.0
H458 H 0.64656 0.87778 0.95077 0.0
H459 H 0.38567 0.80668 0.09798 0.0
H460 H 0.31184 0.79914 1.01153 0.0
H461 H 0.27725 0.74148 1.01011 0.0
H462 H 0.20097 0.74996 0.04522 0.0
H463 H 0.23506 0.8076 0.04623 0.0
H464 H 0.20531 0.70282 0.06799 0.0
H465 H 0.20109 0.73552 0.98026 0.0
H466 H 0.22243 0.76235 0.93766 0.0
H467 H 0.26564 0.70503 0.9251 0.0
H468 H 0.24494 0.67819 0.96785 0.0
H469 H 0.06957 0.55895 0.03083 0.0
H470 H 0.111 0.6147 0.03114 0.0
H471 H 0.18266 0.58815 1.02005 0.0
H472 H 0.14102 0.53158 1.02034 0.0
H473 H 0.18401 0.64267 0.98538 0.0
H474 H 0.18405 0.6082 0.07425 0.0
H475 H 0.15848 0.58093 0.11581 0.0
H476 H 0.11885 0.64197 0.12487 0.0
H477 H 0.14375 0.66923 0.08308 0.0
C478 C 0.2876 0.78885 1.01868 0.0
C479 C 0.27633 0.80823 1.02897 0.0
C480 C 0.26787 0.7558 1.01793 0.0
C481 C 0.23641 0.74135 1.02739 0.0
C482 C 0.22519 0.76053 0.03789 0.0
C483 C 0.24483 0.79356 0.03857 0.0
C484 C 0.21517 0.70625 1.02653 0.0
C485 C 0.2006 0.68978 0.04987 0.0
C486 C 0.20926 0.689 1.003 0.0
C487 C 0.22183 0.70516 0.97738 0.0
C488 C 0.21541 0.72887 0.96852 0.0
C489 C 0.22734 0.74403 0.94433 0.0
C490 C 0.24548 0.73548 0.92872 0.0
C491 C 0.25166 0.71168 0.93724 0.0
C492 C 0.23983 0.69649 0.96145 0.0
C493 C 0.09409 0.56479 1.02828 0.0
C494 C 0.10199 0.54075 1.02547 0.0
C495 C 0.11773 0.59673 1.02853 0.0
C496 C 0.1498 0.60547 1.02562 0.0
C497 C 0.15795 0.58175 1.02227 0.0
C498 C 0.13421 0.54953 1.02253 0.0
C499 C 0.17446 0.63953 1.02679 0.0
C500 C 0.18933 0.65578 1.0035 0.0
C501 C 0.18034 0.65669 0.05027 0.0
C502 C 0.1655 0.64053 0.07544 0.0
C503 C 0.16962 0.61559 0.08498 0.0
C504 C 0.1553 0.60018 0.1086 0.0
C505 C 0.13699 0.60966 0.12294 0.0
C506 C 0.13301 0.63463 0.11372 0.0
C507 C 0.14724 0.65008 0.09008 0.0
H508 H 0.12593 0.59771 0.14123 0.0
H509 H 0.25467 0.74723 0.90998 0.0
H510 H 0.43632 0.09838 0.99995 0.0
H511 H 0.45 0.15402 1.00354 0.0
H512 H 0.46044 0.14905 0.08715 0.0
H513 H 0.446 0.09312 0.08348 0.0
H514 H 0.43872 0.18727 0.07798 0.0
H515 H 0.5228 0.17623 0.04536 0.0
H516 H 0.55455 0.16076 1.01798 0.0
H517 H 0.54621 0.2124 0.9526 0.0
H518 H 0.51285 0.22658 0.97908 0.0
H519 H 0.53803 0.35716 0.08682 0.0
H520 H 0.51972 0.3002 0.08843 0.0
H521 H 0.49383 0.29265 1.00696 0.0
H522 H 0.51159 0.34929 1.00524 0.0
H523 H 0.52637 0.26154 1.01871 0.0
H524 H 0.43765 0.26904 0.05772 0.0
H525 H 0.41587 0.2894 0.09121 0.0
H526 H 0.44634 0.24925 0.15214 0.0
H527 H 0.46859 0.22898 0.11901 0.0
C528 C 0.43998 0.1088 1.01921 0.0
C529 C 0.43924 0.09137 0.04154 0.0
C530 C 0.44843 0.14076 1.02122 0.0
C531 C 0.45697 0.15601 0.04555 0.0
C532 C 0.454 0.1379 0.06816 0.0
C533 C 0.44537 0.10584 0.06614 0.0
C534 C 0.47088 0.19112 0.0471 0.0
C535 C 0.45802 0.20342 0.06508 0.0
C536 C 0.49662 0.21252 0.03074 0.0
C537 C 0.51483 0.20209 1.01417 0.0
C538 C 0.52704 0.18363 1.02497 0.0
C539 C 0.54537 0.17507 1.00958 0.0
C540 C 0.55225 0.18539 0.98351 0.0
C541 C 0.5407 0.20418 0.97274 0.0
C542 C 0.52183 0.21225 0.98786 0.0
C543 C 0.52827 0.34337 0.06927 0.0
C544 C 0.52638 0.35796 0.04588 0.0
C545 C 0.51782 0.31078 0.07023 0.0
C546 C 0.50506 0.29205 0.04789 0.0
C547 C 0.50361 0.30661 1.02445 0.0
C548 C 0.514 0.33912 1.02347 0.0
C549 C 0.49324 0.25729 0.04863 0.0
C550 C 0.5068 0.24514 0.03129 0.0
C551 C 0.46907 0.23621 0.06622 0.0
C552 C 0.4549 0.24768 0.08594 0.0
C553 C 0.43975 0.26465 0.07827 0.0
C554 C 0.42734 0.27617 0.09718 0.0
C555 C 0.42976 0.27066 0.12378 0.0
C556 C 0.44448 0.25351 0.13153 0.0
C557 C 0.45695 0.24196 0.11271 0.0
H558 H 0.42019 0.27966 0.1384 0.0
H559 H 0.56664 0.17894 0.97169 0.0
H560 H 0.68166 0.17207 0.99235 0.0
H561 H 0.73861 0.21034 0.99115 0.0
H562 H 0.73802 0.22034 0.07501 0.0
H563 H 0.68068 0.18339 0.07622 0.0
H564 H 0.77533 0.27623 0.05281 0.0
H565 H 0.76348 0.17235 0.04601 0.0
H566 H 0.74317 0.11905 1.02739 0.0
H567 H 0.78668 0.16114 0.95322 0.0
H568 H 0.8069 0.2147 0.97133 0.0
H569 H 0.94194 0.34381 0.07118 0.0
H570 H 0.88538 0.30253 0.07256 0.0
H571 H 0.88137 0.30757 0.98834 0.0
H572 H 0.93754 0.34942 0.98705 0.0
H573 H 0.84711 0.24384 1.01121 0.0
H574 H 0.85865 0.34777 1.01838 0.0
H575 H 0.87876 0.40093 0.0372 0.0
H576 H 0.8358 0.35835 0.11138 0.0
H577 H 0.81594 0.30491 0.09311 0.0
C578 C 0.69343 0.1829 1.01049 0.0
C579 C 0.6765 0.17448 0.03441 0.0
C580 C 0.72615 0.20447 1.00981 0.0
C581 C 0.74276 0.21771 0.03306 0.0
C582 C 0.72578 0.21025 0.05684 0.0
C583 C 0.69301 0.1889 0.05751 0.0
C584 C 0.7779 0.2388 0.0327 0.0
C585 C 0.79101 0.26892 0.04405 0.0
C586 C 0.79844 0.2296 1.02084 0.0
C587 C 0.78642 0.19747 1.00995 0.0
C588 C 0.76851 0.17021 1.02568 0.0
C589 C 0.75705 0.13997 1.01523 0.0
C590 C 0.76356 0.13671 0.98912 0.0
C591 C 0.78162 0.1637 0.97343 0.0
C592 C 0.79311 0.194 0.98378 0.0
C593 C 0.92923 0.33506 0.05296 0.0
C594 C 0.94403 0.349 1.02895 0.0
C595 C 0.89693 0.3119 0.05377 0.0
C596 C 0.87927 0.30225 0.03055 0.0
C597 C 0.89466 0.31466 1.00642 0.0
C598 C 0.92672 0.33825 1.00567 0.0
C599 C 0.84435 0.28098 0.03144 0.0
C600 C 0.83134 0.25095 1.02011 0.0
C601 C 0.82396 0.29024 0.04339 0.0
C602 C 0.83622 0.32235 0.05448 0.0
C603 C 0.85386 0.34974 0.0388 0.0
C604 C 0.86513 0.37993 0.04934 0.0
C605 C 0.85864 0.38301 0.07549 0.0
C606 C 0.84087 0.35592 0.09114 0.0
C607 C 0.82962 0.32568 0.08071 0.0
H608 H 0.86724 0.40636 0.08363 0.0
H609 H 0.75466 0.11327 0.98106 0.0
H610 H 0.82892 0.4729 0.05262 0.0
H611 H 0.79308 0.49442 0.05414 0.0
H612 H 0.86466 0.58089 1.01636 0.0
H613 H 0.90138 0.56035 1.01626 0.0
H614 H 0.83775 0.59517 0.05378 0.0
H615 H 0.79937 0.5229 0.98269 0.0
H616 H 0.78046 0.47218 0.95983 0.0
H617 H 0.701 0.42616 1.01306 0.0
H618 H 0.7197 0.47652 0.0365 0.0
H619 H 0.71145 0.63253 1.01849 0.0
H620 H 0.75755 0.62406 1.01715 0.0
H621 H 0.71029 0.54644 0.07266 0.0
H622 H 0.66506 0.55512 0.07443 0.0
H623 H 0.72718 0.53171 1.02145 0.0
H624 H 0.76917 0.60451 0.09396 0.0
H625 H 0.78802 0.65611 0.11529 0.0
H626 H 0.8609 0.70211 0.05634 0.0
H627 H 0.84206 0.65078 0.03439 0.0
C628 C 0.83721 0.49664 0.0449 0.0
C629 C 0.86801 0.51481 0.0342 0.0
C630 C 0.81653 0.50877 0.04548 0.0
C631 C 0.82597 0.53906 0.03492 0.0
C632 C 0.85678 0.55738 1.02446 0.0
C633 C 0.87762 0.54542 1.02415 0.0
C634 C 0.80377 0.55169 0.03506 0.0
C635 C 0.81376 0.5815 0.04626 0.0
C636 C 0.77237 0.53384 1.02543 0.0
C637 C 0.76108 0.50345 1.01146 0.0
C638 C 0.778 0.50191 0.98965 0.0
C639 C 0.7673 0.47323 0.97657 0.0
C640 C 0.73958 0.44595 0.98502 0.0
C641 C 0.72248 0.4473 1.00655 0.0
C642 C 0.73311 0.47592 1.01973 0.0
C643 C 0.71172 0.61471 0.03124 0.0
C644 C 0.68496 0.59456 0.04667 0.0
C645 C 0.73777 0.60963 0.03024 0.0
C646 C 0.73696 0.58437 0.0446 0.0
C647 C 0.7112 0.56589 0.06136 0.0
C648 C 0.68555 0.57105 0.06249 0.0
C649 C 0.76107 0.57473 0.04056 0.0
C650 C 0.75136 0.54547 1.02859 0.0
C651 C 0.79269 0.59316 0.04922 0.0
C652 C 0.80393 0.62394 0.06234 0.0
C653 C 0.78896 0.62569 0.08537 0.0
C654 C 0.79969 0.65487 0.09761 0.0
C655 C 0.82557 0.6824 0.08712 0.0
C656 C 0.8408 0.68079 0.0644 0.0
C657 C 0.83011 0.65166 0.05205 0.0
H658 H 0.83387 0.70497 0.09665 0.0
H659 H 0.73131 0.42378 0.97484 0.0
H660 H 0.88969 0.77788 0.32697 0.0
H661 H 0.94734 0.80078 0.32491 0.0
H662 H 0.95667 0.84753 0.39841 0.0
H663 H 0.89885 0.82448 0.40076 0.0
H664 H 1.00193 0.88682 0.3635 0.0
H665 H 0.96109 0.7791 0.39511 0.0
H666 H 0.92691 0.72081 0.39324 0.0
H667 H 0.96887 0.7202 0.31923 0.0
H668 H 1.003 0.77854 0.3205 0.0
H669 H 0.16214 0.92774 0.38848 0.0
H670 H 0.10507 0.9088 0.38974 0.0
H671 H 0.09127 0.84756 0.32435 0.0
H672 H 0.14797 0.86478 0.32445 0.0
H673 H 0.04758 0.81594 0.35563 0.0
H674 H 0.08804 0.92232 0.3223 0.0
H675 H 0.12202 0.98071 0.32224 0.0
H676 H 0.08099 0.98475 0.39573 0.0
H677 H 0.04709 0.92634 0.3964 0.0
C678 C 0.90389 0.79276 0.34287 0.0
C679 C 0.88943 0.79898 0.36419 0.0
C680 C 0.93694 0.80596 0.3416 0.0
C681 C 0.95638 0.82553 0.3617 0.0
C682 C 0.94218 0.83247 0.38269 0.0
C683 C 0.90908 0.8193 0.38396 0.0
C684 C 0.99143 0.83834 0.36097 0.0
C685 C 1.01199 0.87134 0.36205 0.0
C686 C 1.0046 0.81827 0.3584 0.0
C687 C 0.98438 0.78318 0.35781 0.0
C688 C 0.96288 0.76654 0.37837 0.0
C689 C 0.94353 0.7335 0.37743 0.0
C690 C 0.94566 0.71682 0.35611 0.0
C691 C 0.96722 0.73315 0.33572 0.0
C692 C 0.98659 0.76619 0.33656 0.0
C693 C 0.14694 0.91057 0.37415 0.0
C694 C 0.15952 0.89795 0.3562 0.0
C695 C 0.11424 0.89981 0.37478 0.0
C696 C 0.09358 0.87709 0.3568 0.0
C697 C 0.10645 0.86505 0.33849 0.0
C698 C 0.13895 0.87507 0.3384 0.0
C699 C 0.05847 0.86469 0.35773 0.0
C700 C 0.03777 0.83164 0.35687 0.0
C701 C 0.04522 0.88481 0.36007 0.0
C702 C 0.06524 0.91995 0.3595 0.0
C703 C 0.08639 0.93566 0.3385 0.0
C704 C 0.10563 0.96876 0.33837 0.0
C705 C 0.10373 0.98643 0.359 0.0
C706 C 0.08247 0.97104 0.37977 0.0
C707 C 0.06322 0.93794 0.38003 0.0
H708 H 0.11868 1.01205 0.35888 0.0
H709 H 0.93065 0.69124 0.3554 0.0
H710 H 0.17748 0.29009 0.33243 0.0
H711 H 0.19328 0.24969 0.3335 0.0
H712 H 0.11203 0.18966 0.38252 0.0
H713 H 0.09592 0.23015 0.38155 0.0
H714 H 0.16851 0.19537 0.40121 0.0
H715 H 0.11124 0.16978 0.32092 0.0
H716 H 0.0966 0.18049 0.27734 0.0
H717 H 0.1915 0.21281 0.24901 0.0
H718 H 0.20686 0.20277 0.29257 0.0
H719 H 0.19279 0.0621 0.39058 0.0
H720 H 0.16917 0.09631 0.38943 0.0
H721 H 0.24431 0.16186 0.33759 0.0
H722 H 0.26854 0.12841 0.33914 0.0
H723 H 0.18643 0.14987 0.32069 0.0
H724 H 0.24474 0.17904 0.40118 0.0
H725 H 0.26029 0.16931 0.44475 0.0
H726 H 0.16424 0.13114 0.47264 0.0
H727 H 0.14804 0.14022 0.42908 0.0
C728 C 0.1627 0.26815 0.34321 0.0
C729 C 0.13531 0.26325 0.35679 0.0
C730 C 0.17178 0.24506 0.34377 0.0
C731 C 0.15373 0.21659 0.35796 0.0
C732 C 0.12624 0.21146 0.37141 0.0
C733 C 0.11695 0.2345 0.37067 0.0
C734 C 0.16428 0.19272 0.35921 0.0
C735 C 0.17185 0.18492 0.38365 0.0
C736 C 0.16937 0.17972 0.33627 0.0
C737 C 0.16025 0.18576 0.31005 0.0
C738 C 0.12906 0.17942 0.30545 0.0
C739 C 0.12062 0.18533 0.28075 0.0
C740 C 0.14312 0.19738 0.26043 0.0
C741 C 0.1741 0.2035 0.26477 0.0
C742 C 0.18268 0.19768 0.28946 0.0
C743 C 0.20456 0.08399 0.3792 0.0
C744 C 0.23264 0.0924 0.36495 0.0
C745 C 0.19091 0.10345 0.37847 0.0
C746 C 0.20504 0.13171 0.3635 0.0
C747 C 0.2329 0.14008 0.34916 0.0
C748 C 0.24665 0.12079 0.34999 0.0
C749 C 0.19092 0.15269 0.36268 0.0
C750 C 0.18278 0.16003 0.33828 0.0
C751 C 0.18542 0.16535 0.38566 0.0
C752 C 0.19511 0.15995 0.41182 0.0
C753 C 0.22689 0.16831 0.41655 0.0
C754 C 0.23583 0.16296 0.44124 0.0
C755 C 0.21324 0.14952 0.46143 0.0
C756 C 0.18169 0.14149 0.45697 0.0
C757 C 0.17262 0.14673 0.43229 0.0
H758 H 0.22021 0.14541 0.48054 0.0
H759 H 0.13653 0.20191 0.2413 0.0
H760 H 0.9523 0.13745 0.4075 0.0
H761 H 0.91876 0.07962 0.40509 0.0
H762 H 0.89705 0.08854 0.32459 0.0
H763 H 0.93033 0.14624 0.32691 0.0
H764 H 0.84467 0.04882 0.35058 0.0
H765 H 0.95047 0.06275 0.34263 0.0
H766 H 1.00552 0.08185 0.35715 0.0
H767 H 0.97037 0.02742 0.42857 0.0
H768 H 0.91513 1.00833 0.41461 0.0
H769 H 0.76538 0.88839 0.31717 0.0
H770 H 0.80502 0.94495 0.31828 0.0
H771 H 0.83436 0.93178 0.39504 0.0
H772 H 0.79645 0.87462 0.39282 0.0
H773 H 0.88311 0.97404 0.3721 0.0
H774 H 0.77848 0.96085 0.38233 0.0
H775 H 0.72274 0.94215 0.37012 0.0
H776 H 0.75422 0.99558 0.29795 0.0
H777 H 0.81012 0.0143 0.30961 0.0
C778 C 0.94063 0.12706 0.38921 0.0
C779 C 0.94394 0.14649 0.36742 0.0
C780 C 0.92147 0.09398 0.38785 0.0
C781 C 0.90562 0.07966 0.36456 0.0
C782 C 0.90899 0.09902 0.34279 0.0
C783 C 0.92795 0.13204 0.34418 0.0
C784 C 0.8848 0.04459 0.36291 0.0
C785 C 0.85319 0.03247 0.35498 0.0
C786 C 0.89554 0.02317 0.36948 0.0
C787 C 0.92872 0.03434 0.37767 0.0
C788 C 0.95451 0.05501 0.36149 0.0
C789 C 0.98573 0.06582 0.36961 0.0
C790 C 0.99144 0.05591 0.39379 0.0
C791 C 0.96592 0.0351 0.40986 0.0
C792 C 0.93466 0.02426 0.40184 0.0
C793 C 0.78087 0.89756 0.33397 0.0
C794 C 0.77806 0.87731 0.35486 0.0
C795 C 0.8032 0.92996 0.33481 0.0
C796 C 0.82199 0.94304 0.35718 0.0
C797 C 0.82006 0.92246 0.37762 0.0
C798 C 0.79848 0.88979 0.37634 0.0
C799 C 0.8429 0.97812 0.35957 0.0
C800 C 0.87449 0.99029 0.36771 0.0
C801 C 0.83201 0.99964 0.35359 0.0
C802 C 0.79843 0.98876 0.34676 0.0
C803 C 0.77348 0.9685 0.36382 0.0
C804 C 0.74187 0.9579 0.35699 0.0
C805 C 0.73494 0.96762 0.33325 0.0
C806 C 0.75962 0.98805 0.31632 0.0
C807 C 0.79126 0.99869 0.32304 0.0
H808 H 0.71046 0.95936 0.32799 0.0
H809 H 1.01563 0.06432 0.40005 0.0
H810 H 0.17189 0.68233 0.42005 0.0
H811 H 0.15279 0.62541 0.42012 0.0
H812 H 0.18013 0.63168 0.3388 0.0
H813 H 0.19744 0.68825 0.33811 0.0
H814 H 0.12483 0.5822 0.34529 0.0
H815 H 0.22348 0.62331 0.38961 0.0
H816 H 0.26445 0.65382 0.42246 0.0
H817 H 0.19993 0.59739 0.48425 0.0
H818 H 0.15839 0.56682 0.45175 0.0
H819 H 0.13716 0.44448 0.33505 0.0
H820 H 0.14478 0.49773 0.33808 0.0
H821 H 0.09715 0.4736 0.41333 0.0
H822 H 0.08936 0.41944 0.41023 0.0
H823 H 0.158 0.53017 0.41235 0.0
H824 H 0.06079 0.48573 0.36241 0.0
H825 H 0.02651 0.45449 0.32592 0.0
H826 H 0.09711 0.5179 0.27045 0.0
H827 H 0.13181 0.54937 0.30658 0.0
C828 C 0.17369 0.67163 0.40211 0.0
C829 C 0.18627 0.69002 0.37908 0.0
C830 C 0.16306 0.63907 0.40227 0.0
C831 C 0.16529 0.62423 0.37954 0.0
C832 C 0.17817 0.64256 0.3566 0.0
C833 C 0.18848 0.67506 0.35634 0.0
C834 C 0.15358 0.58949 0.37949 0.0
C835 C 0.13228 0.57095 0.35991 0.0
C836 C 0.16291 0.57455 0.39869 0.0
C837 C 0.18771 0.59304 0.41829 0.0
C838 C 0.21793 0.61761 0.41022 0.0
C839 C 0.24127 0.63488 0.42877 0.0
C840 C 0.23477 0.62762 0.45543 0.0
C841 C 0.20491 0.60303 0.46359 0.0
C842 C 0.18146 0.58572 0.44512 0.0
C843 C 0.12748 0.45019 0.35191 0.0
C844 C 0.11236 0.42787 0.37227 0.0
C845 C 0.13192 0.48067 0.35365 0.0
C846 C 0.12137 0.48957 0.37584 0.0
C847 C 0.10529 0.46704 0.39597 0.0
C848 C 0.10053 0.43613 0.39409 0.0
C849 C 0.12929 0.52311 0.37828 0.0
C850 C 0.15009 0.54146 0.39816 0.0
C851 C 0.12027 0.53805 0.35893 0.0
C852 C 0.09887 0.51986 0.33719 0.0
C853 C 0.06896 0.49299 0.34241 0.0
C854 C 0.04945 0.47525 0.32179 0.0
C855 C 0.05958 0.4842 0.29587 0.0
C856 C 0.08918 0.51102 0.29051 0.0
C857 C 0.10874 0.52889 0.31105 0.0
H858 H 0.04447 0.47032 0.27995 0.0
H859 H 0.25289 0.64098 0.46977 0.0
H860 H 0.34157 0.53531 0.3682 0.0
H861 H 0.39851 0.57412 0.36787 0.0
H862 H 0.41942 0.49955 0.38576 0.0
H863 H 0.36254 0.46059 0.38612 0.0
H864 H 0.45678 0.55178 0.41364 0.0
H865 H 0.42785 0.52925 0.32305 0.0
H866 H 0.39591 0.52349 0.28381 0.0
H867 H 0.42178 0.62175 0.28807 0.0
H868 H 0.45353 0.62798 0.32755 0.0
H869 H 0.62428 0.66232 0.38033 0.0
H870 H 0.57108 0.6139 0.38172 0.0
H871 H 0.52751 0.67118 0.36756 0.0
H872 H 0.57897 0.71843 0.36625 0.0
H873 H 0.50417 0.62143 0.33532 0.0
H874 H 0.52702 0.64325 0.4274 0.0
H875 H 0.55803 0.65081 0.46757 0.0
H876 H 0.54305 0.55622 0.46126 0.0
H877 H 0.51235 0.54831 0.42077 0.0
C878 C 0.35827 0.52714 0.37198 0.0
C879 C 0.34744 0.49481 0.37711 0.0
C880 C 0.39083 0.54935 0.37181 0.0
C881 C 0.41328 0.53966 0.37641 0.0
C882 C 0.40255 0.50757 0.38215 0.0
C883 C 0.36999 0.48535 0.38242 0.0
C884 C 0.44793 0.56295 0.37468 0.0
C885 C 0.46728 0.56662 0.39632 0.0
C886 C 0.46163 0.58257 0.35224 0.0
C887 C 0.44291 0.57901 0.32831 0.0
C888 C 0.42659 0.54958 0.31568 0.0
C889 C 0.40854 0.54623 0.29339 0.0
C890 C 0.40679 0.57222 0.28347 0.0
C891 C 0.42316 0.60164 0.29578 0.0
C892 C 0.44122 0.6051 0.31808 0.0
C893 C 0.60328 0.66443 0.37765 0.0
C894 C 0.60612 0.69434 0.37303 0.0
C895 C 0.57297 0.63684 0.37842 0.0
C896 C 0.54537 0.639 0.3745 0.0
C897 C 0.54839 0.66884 0.37032 0.0
C898 C 0.57815 0.696 0.36967 0.0
C899 C 0.51286 0.61079 0.37448 0.0
C900 C 0.49383 0.60616 0.35244 0.0
C901 C 0.49946 0.59063 0.39663 0.0
C902 C 0.51782 0.59536 0.42091 0.0
C903 C 0.53062 0.62419 0.43445 0.0
C904 C 0.54808 0.62852 0.45729 0.0
C905 C 0.55262 0.60405 0.46691 0.0
C906 C 0.53961 0.57518 0.45374 0.0
C907 C 0.52218 0.57076 0.43085 0.0
H908 H 0.56613 0.60743 0.48461 0.0
H909 H 0.39278 0.56958 0.26622 0.0
H910 H 0.33255 0.89271 0.41164 0.0
H911 H 0.37812 0.88428 0.41096 0.0
H912 H 0.4167 0.94714 0.34378 0.0
H913 H 0.37068 0.95558 0.34451 0.0
H914 H 0.41202 0.88842 0.33641 0.0
H915 H 0.45368 0.96907 0.40251 0.0
H916 H 0.45106 0.99376 0.4437 0.0
H917 H 0.4353 0.91084 0.48709 0.0
H918 H 0.43735 0.88546 0.4461 0.0
H919 H 0.55481 0.88145 0.33208 0.0
H920 H 0.51487 0.89787 0.33381 0.0
H921 H 0.47821 0.84575 0.40651 0.0
H922 H 0.51806 0.82905 0.40485 0.0
H923 H 0.48339 0.90161 0.41054 0.0
H924 H 0.43844 0.8191 0.34815 0.0
H925 H 0.43531 0.78903 0.30859 0.0
H926 H 0.45085 0.86834 0.26004 0.0
H927 H 0.45469 0.89913 0.29936 0.0
C928 C 0.35141 0.90567 0.39737 0.0
C929 C 0.34865 0.92539 0.37854 0.0
C930 C 0.37734 0.90072 0.39689 0.0
C931 C 0.40096 0.91523 0.37743 0.0
C932 C 0.39884 0.93589 0.35908 0.0
C933 C 0.37289 0.94111 0.35973 0.0
C934 C 0.42635 0.90672 0.37527 0.0
C935 C 0.42818 0.89197 0.35236 0.0
C936 C 0.44632 0.90993 0.39656 0.0
C937 C 0.44552 0.92533 0.42123 0.0
C938 C 0.44948 0.95604 0.42082 0.0
C939 C 0.44811 0.97016 0.44413 0.0
C940 C 0.44298 0.95387 0.46799 0.0
C941 C 0.43927 0.92344 0.46859 0.0
C942 C 0.44059 0.90919 0.44534 0.0
C943 C 0.53794 0.87299 0.34824 0.0
C944 C 0.53962 0.85373 0.36826 0.0
C945 C 0.51511 0.8825 0.34923 0.0
C946 C 0.49326 0.87283 0.37017 0.0
C947 C 0.49483 0.85359 0.39017 0.0
C948 C 0.51769 0.8441 0.38922 0.0
C949 C 0.46935 0.88347 0.37155 0.0
C950 C 0.46761 0.89842 0.39439 0.0
C951 C 0.44897 0.87979 0.35039 0.0
C952 C 0.44728 0.86158 0.32672 0.0
C953 C 0.44159 0.83028 0.32905 0.0
C954 C 0.43961 0.81308 0.30667 0.0
C955 C 0.443 0.82681 0.28182 0.0
C956 C 0.44834 0.85777 0.27931 0.0
C957 C 0.45043 0.87512 0.30163 0.0
H958 H 0.44138 0.81342 0.26451 0.0
H959 H 0.44192 0.96484 0.48602 0.0
H960 H 0.80544 0.17835 0.69442 0.0
H961 H 0.74952 0.16267 0.69426 0.0
H962 H 0.77441 0.26123 0.69002 0.0
H963 H 0.83115 0.27734 0.69145 0.0
H964 H 0.72685 0.23119 0.72221 0.0
H965 H 0.74612 0.21022 0.63531 0.0
H966 H 0.76572 0.18913 0.60072 0.0
H967 H 0.70319 0.09394 0.62878 0.0
H968 H 0.68354 0.1145 0.66379 0.0
H969 H 0.56394 0.18223 0.6916 0.0
H970 H 0.62186 0.20631 0.68946 0.0
H971 H 0.6128 0.11451 0.70377 0.0
H972 H 0.5551 0.09035 0.70662 0.0
H973 H 0.65291 0.14608 0.66281 0.0
H974 H 0.63684 0.16952 0.7517 0.0
H975 H 0.6172 0.19206 0.78506 0.0
H976 H 0.67384 0.28503 0.75053 0.0
H977 H 0.69346 0.26292 0.71674 0.0
C978 C 0.79919 0.19684 0.69326 0.0
C979 C 0.82283 0.22917 0.6926 0.0
C980 C 0.76705 0.18775 0.69304 0.0
C981 C 0.7576 0.21068 0.69139 0.0
C982 C 0.7811 0.24307 0.69105 0.0
C983 C 0.81349 0.25226 0.69176 0.0
C984 C 0.72312 0.20044 0.69061 0.0
C985 C 0.71081 0.21303 0.70884 0.0
C986 C 0.70195 0.17645 0.67342 0.0
C987 C 0.7135 0.16394 0.65226 0.0
C988 C 0.73668 0.18481 0.63419 0.0
C989 C 0.74779 0.17294 0.6145 0.0
C990 C 0.73574 0.14022 0.61257 0.0
C991 C 0.7125 0.11929 0.6303 0.0
C992 C 0.70134 0.13103 0.65005 0.0
C993 C 0.57423 0.16719 0.69471 0.0
C994 C 0.55469 0.13425 0.69925 0.0
C995 C 0.60738 0.18101 0.69335 0.0
C996 C 0.62165 0.16222 0.69653 0.0
C997 C 0.60228 0.12944 0.70112 0.0
C998 C 0.56923 0.11564 0.70262 0.0
C999 C 0.65673 0.17637 0.6947 0.0
C1000 C 0.66909 0.1645 0.67593 0.0
C1001 C 0.6779 0.20125 0.71114 0.0
C1002 C 0.66633 0.21453 0.73156 0.0
C1003 C 0.64491 0.19472 0.75112 0.0
C1004 C 0.63381 0.20742 0.77012 0.0
C1005 C 0.64419 0.23994 0.76987 0.0
C1006 C 0.66577 0.25984 0.75067 0.0
C1007 C 0.6769 0.24724 0.73161 0.0
H1008 H 0.63557 0.24973 0.78459 0.0
H1009 H 0.74438 0.13109 0.59731 0.0
H1010 H 0.8528 0.38991 0.71652 0.0
H1011 H 0.8294 0.42421 0.71562 0.0
H1012 H 0.91434 0.49855 0.67811 0.0
H1013 H 0.93868 0.46534 0.68052 0.0
H1014 H 0.89609 0.52327 0.71374 0.0
H1015 H 0.84206 0.44852 0.64453 0.0
H1016 H 0.80967 0.39519 0.62575 0.0
H1017 H 0.73244 0.37648 0.6779 0.0
H1018 H 0.76456 0.42956 0.69723 0.0
H1019 H 0.84372 0.62311 0.6639 0.0
H1020 H 0.86029 0.58346 0.6664 0.0
H1021 H 0.7748 0.52036 0.70983 0.0
H1022 H 0.75765 0.56001 0.7071 0.0
H1023 H 0.79035 0.48825 0.67443 0.0
H1024 H 0.84359 0.56412 0.74196 0.0
H1025 H 0.87562 0.61791 0.75996 0.0
H1026 H 0.9544 0.63467 0.71051 0.0
H1027 H 0.92265 0.58113 0.69191 0.0
C1028 C 0.86671 0.4137 0.70838 0.0
C1029 C 0.89766 0.42469 0.69847 0.0
C1030 C 0.85308 0.43316 0.70755 0.0
C1031 C 0.86984 0.46383 0.69637 0.0
C1032 C 0.9008 0.47494 0.68671 0.0
C1033 C 0.91458 0.4557 0.68783 0.0
C1034 C 0.85559 0.48474 0.69502 0.0
C1035 C 0.87313 0.51565 0.70486 0.0
C1036 C 0.82515 0.47463 0.68419 0.0
C1037 C 0.80582 0.44283 0.6725 0.0
C1038 C 0.81825 0.43293 0.65211 0.0
C1039 C 0.79993 0.40277 0.64136 0.0
C1040 C 0.76905 0.38242 0.65068 0.0
C1041 C 0.75639 0.39224 0.67073 0.0
C1042 C 0.77463 0.42235 0.68158 0.0
C1043 C 0.82813 0.60066 0.6737 0.0
C1044 C 0.79941 0.59481 0.68546 0.0
C1045 C 0.83777 0.57806 0.67523 0.0
C1046 C 0.81912 0.54923 0.68878 0.0
C1047 C 0.78965 0.54256 0.69942 0.0
C1048 C 0.77987 0.56521 0.69781 0.0
C1049 C 0.83122 0.52682 0.69261 0.0
C1050 C 0.81325 0.49571 0.68338 0.0
C1051 C 0.8613 0.53671 0.70395 0.0
C1052 C 0.88065 0.56872 0.71541 0.0
C1053 C 0.86768 0.57935 0.73482 0.0
C1054 C 0.88579 0.60978 0.74513 0.0
C1055 C 0.917 0.62972 0.73634 0.0
C1056 C 0.93021 0.61921 0.71728 0.0
C1057 C 0.91218 0.58881 0.70687 0.0
H1058 H 0.93097 0.6533 0.74433 0.0
H1059 H 0.75491 0.35908 0.64233 0.0
H1060 H 0.56498 0.47837 0.68356 0.0
H1061 H 0.53155 0.42092 0.6817 0.0
H1062 H 0.61037 0.40983 0.7066 0.0
H1063 H 0.6448 0.46761 0.7067 0.0
H1064 H 0.57921 0.36828 0.67055 0.0
H1065 H 0.54833 0.3979 0.74928 0.0
H1066 H 0.53119 0.42802 0.77691 0.0
H1067 H 0.44536 0.39313 0.73238 0.0
H1068 H 0.46221 0.36315 0.70423 0.0
H1069 H 0.47407 0.20193 0.70204 0.0
H1070 H 0.51381 0.25876 0.70376 0.0
H1071 H 0.44524 0.28189 0.67253 0.0
H1072 H 0.40564 0.22567 0.67089 0.0
H1073 H 0.47369 0.31642 0.71492 0.0
H1074 H 0.50708 0.2881 0.63521 0.0
H1075 H 0.52482 0.25728 0.60915 0.0
H1076 H 0.60672 0.28873 0.65822 0.0
H1077 H 0.5892 0.31941 0.68481 0.0
C1078 C 0.57551 0.46388 0.68827 0.0
C1079 C 0.60777 0.47791 0.69529 0.0
C1080 C 0.55613 0.43086 0.68757 0.0
C1081 C 0.56818 0.41088 0.69452 0.0
C1082 C 0.60041 0.42468 0.70131 0.0
C1083 C 0.62 0.45781 0.70167 0.0
C1084 C 0.54702 0.37566 0.69468 0.0
C1085 C 0.55636 0.35693 0.68062 0.0
C1086 C 0.517 0.36067 0.70757 0.0
C1087 C 0.50666 0.37848 0.72454 0.0
C1088 C 0.5259 0.39682 0.74528 0.0
C1089 C 0.51623 0.41384 0.76104 0.0
C1090 C 0.48723 0.41254 0.75637 0.0
C1091 C 0.46782 0.39414 0.73596 0.0
C1092 C 0.47741 0.37709 0.72011 0.0
C1093 C 0.46763 0.21913 0.6952 0.0
C1094 C 0.43668 0.20917 0.68626 0.0
C1095 C 0.49036 0.2516 0.69621 0.0
C1096 C 0.48252 0.27462 0.68823 0.0
C1097 C 0.45184 0.26462 0.67885 0.0
C1098 C 0.42924 0.23234 0.6778 0.0
C1099 C 0.50562 0.30921 0.69039 0.0
C1100 C 0.49663 0.32781 0.70499 0.0
C1101 C 0.53601 0.32394 0.67824 0.0
C1102 C 0.54667 0.30577 0.66214 0.0
C1103 C 0.52875 0.28825 0.64055 0.0
C1104 C 0.53878 0.27084 0.62567 0.0
C1105 C 0.56683 0.27098 0.63207 0.0
C1106 C 0.58497 0.28861 0.65331 0.0
C1107 C 0.57501 0.30603 0.66828 0.0
H1108 H 0.57456 0.25748 0.62052 0.0
H1109 H 0.47979 0.42574 0.7686 0.0
H1110 H 0.7345 0.74601 0.69832 0.0
H1111 H 0.74099 0.79968 0.69946 0.0
H1112 H 0.83783 0.83747 0.72553 0.0
H1113 H 0.83077 0.78476 0.72624 0.0
H1114 H 0.8179 0.86788 0.74835 0.0
H1115 H 0.8145 0.83837 0.65865 0.0
H1116 H 0.7904 0.80422 0.6203 0.0
H1117 H 0.71242 0.82228 0.62313 0.0
H1118 H 0.73575 0.85605 0.66186 0.0
H1119 H 0.89369 0.0284 0.70361 0.0
H1120 H 0.87642 0.97151 0.70413 0.0
H1121 H 0.77831 0.94849 0.70247 0.0
H1122 H 0.79536 1.00517 0.70173 0.0
H1123 H 0.79385 0.91048 0.6683 0.0
H1124 H 0.80772 0.9465 0.75911 0.0
H1125 H 0.83973 0.98216 0.79465 0.0
H1126 H 0.91027 0.95444 0.78401 0.0
H1127 H 0.87885 0.91895 0.74818 0.0
C1128 C 0.75673 0.76574 0.70502 0.0
C1129 C 0.78217 0.76118 0.71196 0.0
C1130 C 0.76065 0.79648 0.7053 0.0
C1131 C 0.7902 0.82294 0.71208 0.0
C1132 C 0.8148 0.81777 0.72023 0.0
C1133 C 0.81074 0.78741 0.72043 0.0
C1134 C 0.79675 0.85634 0.70997 0.0
C1135 C 0.81268 0.87702 0.73071 0.0
C1136 C 0.79015 0.86871 0.68705 0.0
C1137 C 0.77656 0.84927 0.66337 0.0
C1138 C 0.79212 0.8349 0.65117 0.0
C1139 C 0.77862 0.81563 0.62939 0.0
C1140 C 0.74981 0.81092 0.61945 0.0
C1141 C 0.73464 0.82582 0.631 0.0
C1142 C 0.74797 0.845 0.65287 0.0
C1143 C 0.86848 1.0112 0.70297 0.0
C1144 C 0.84588 0.02122 0.70285 0.0
C1145 C 0.85865 0.97877 0.70337 0.0
C1146 C 0.82608 0.95586 0.7035 0.0
C1147 C 0.80353 0.9658 0.70237 0.0
C1148 C 0.81332 0.99816 0.70218 0.0
C1149 C 0.81545 0.92159 0.70637 0.0
C1150 C 0.79872 0.90096 0.68589 0.0
C1151 C 0.82261 0.90946 0.729 0.0
C1152 C 0.84104 0.93024 0.75092 0.0
C1153 C 0.83012 0.94814 0.7643 0.0
C1154 C 0.84816 0.9683 0.78448 0.0
C1155 C 0.87704 0.9706 0.79156 0.0
C1156 C 0.8879 0.95265 0.77851 0.0
C1157 C 0.86998 0.93248 0.7583 0.0
H1158 H 0.89098 0.98625 0.80717 0.0
H1159 H 0.73922 0.79565 0.60285 0.0
H1160 H 1.00511 0.85976 0.7258 0.0
H1161 H 0.0615 0.90044 0.72684 0.0
H1162 H 0.08613 0.83522 0.69151 0.0
H1163 H 0.02995 0.79442 0.69076 0.0
H1164 H 0.12587 0.86516 0.72913 0.0
H1165 H 0.08589 0.89767 0.65627 0.0
H1166 H 0.05 0.91224 0.63374 0.0
H1167 H 0.07771 0.99024 0.6861 0.0
H1168 H 0.11343 0.97586 0.70919 0.0
H1169 H 0.28618 0.99214 0.69338 0.0
H1170 H 0.23215 0.94516 0.69456 0.0
H1171 H 0.19799 0.99881 0.73676 0.0
H1172 H 0.2512 0.04508 0.73574 0.0
H1173 H 0.16423 0.9734 0.69256 0.0
H1174 H 0.19662 0.93697 0.76881 0.0
H1175 H 0.22987 0.92145 0.79429 0.0
H1176 H 0.21737 0.85323 0.73589 0.0
H1177 H 0.18303 0.86764 0.7105 0.0
C1178 C 0.02254 0.85418 0.71811 0.0
C1179 C 1.01303 0.82384 0.70825 0.0
C1180 C 0.05478 0.87746 0.71867 0.0
C1181 C 0.07812 0.87107 0.70892 0.0
C1182 C 0.06864 0.84074 0.69918 0.0
C1183 C 0.03648 0.81741 0.69882 0.0
C1184 C 0.1124 0.89585 0.70901 0.0
C1185 C 0.13428 0.88865 0.72069 0.0
C1186 C 0.12348 0.92675 0.69848 0.0
C1187 C 0.10214 0.93554 0.68456 0.0
C1188 C 0.08417 0.91781 0.66308 0.0
C1189 C 0.06388 0.92604 0.6502 0.0
C1190 C 0.06153 0.95211 0.65851 0.0
C1191 C 0.07953 0.97004 0.6797 0.0
C1192 C 0.09982 0.96188 0.69267 0.0
C1193 C 0.26729 0.9934 0.70363 0.0
C1194 C 0.27274 0.02219 0.71435 0.0
C1195 C 0.23644 0.96671 0.70416 0.0
C1196 C 0.21099 0.96868 0.71548 0.0
C1197 C 0.21713 0.99683 0.72768 0.0
C1198 C 0.24761 0.02321 0.72717 0.0
C1199 C 0.17745 0.94275 0.71296 0.0
C1200 C 0.15577 0.94976 0.70071 0.0
C1201 C 0.16655 0.9118 0.72297 0.0
C1202 C 0.18772 0.90365 0.73766 0.0
C1203 C 0.20123 0.91886 0.76132 0.0
C1204 C 0.22019 0.91022 0.77576 0.0
C1205 C 0.22622 0.88676 0.76651 0.0
C1206 C 0.21286 0.87154 0.74295 0.0
C1207 C 0.19346 0.87976 0.72863 0.0
H1208 H 0.24101 0.88018 0.7777 0.0
H1209 H 0.04582 0.95846 0.64851 0.0
H1210 H 0.20305 0.18943 0.75027 0.0
H1211 H 0.16493 0.20822 0.75073 0.0
H1212 H 0.15241 0.19413 0.66731 0.0
H1213 H 0.19191 0.1771 0.66643 0.0
H1214 H 0.15713 0.24777 0.67792 0.0
H1215 H 0.09542 0.14345 0.71252 0.0
H1216 H 0.08108 0.09702 0.74123 0.0
H1217 H 0.08248 0.15036 0.80828 0.0
H1218 H 0.09732 0.1973 0.77999 0.0
H1219 H 1.00684 0.2367 0.66531 0.0
H1220 H 0.05142 0.22699 0.66878 0.0
H1221 H 0.07313 0.26909 0.74525 0.0
H1222 H 0.02741 0.27806 0.74223 0.0
H1223 H 0.06598 0.2054 0.7403 0.0
H1224 H 0.12298 0.3092 0.69866 0.0
H1225 H 0.12973 0.34876 0.66484 0.0
H1226 H 0.12884 0.28719 0.60469 0.0
H1227 H 0.1215 0.24702 0.63811 0.0
C1228 C 0.19234 0.19046 0.73197 0.0
C1229 C 0.20063 0.18169 0.70831 0.0
C1230 C 0.17023 0.20091 0.73231 0.0
C1231 C 0.1555 0.20234 0.7091 0.0
C1232 C 0.16342 0.19324 0.6855 0.0
C1233 C 0.18574 0.18308 0.68509 0.0
C1234 C 0.13248 0.2141 0.70929 0.0
C1235 C 0.13712 0.23831 0.69149 0.0
C1236 C 0.10641 0.20201 0.72706 0.0
C1237 C 0.09789 0.17401 0.74419 0.0
C1238 C 0.09301 0.14539 0.73343 0.0
C1239 C 0.08472 0.11896 0.74961 0.0
C1240 C 0.08098 0.12077 0.77657 0.0
C1241 C 0.08546 0.14901 0.7874 0.0
C1242 C 0.09381 0.17554 0.7713 0.0
C1243 C 0.02175 0.24485 0.68253 0.0
C1244 C 1.01419 0.25867 0.70333 0.0
C1245 C 0.04716 0.23931 0.68443 0.0
C1246 C 0.06584 0.24784 0.70698 0.0
C1247 C 0.05911 0.26269 0.72755 0.0
C1248 C 0.03343 0.26825 0.72567 0.0
C1249 C 0.09096 0.23914 0.70919 0.0
C1250 C 0.08646 0.21525 0.7272 0.0
C1251 C 0.11647 0.25065 0.69098 0.0
C1252 C 0.12161 0.27509 0.6709 0.0
C1253 C 0.12408 0.30405 0.67821 0.0
C1254 C 0.12801 0.32657 0.65911 0.0
C1255 C 0.12971 0.3205 0.63263 0.0
C1256 C 0.12764 0.29193 0.62521 0.0
C1257 C 0.12361 0.26927 0.64423 0.0
H1258 H 0.13266 0.33793 0.61787 0.0
H1259 H 0.07451 0.10026 0.78907 0.0
H1260 H 0.08767 0.31461 0.27051 0.0
H1261 H 0.07852 0.33721 0.23085 0.0
H1262 H 0.12929 0.43086 0.26413 0.0
H1263 H 0.13815 0.40811 0.30417 0.0
H1264 H 0.07567 0.42184 0.24282 0.0
H1265 H 0.16141 0.40823 0.21343 0.0
H1266 H 0.19071 0.37958 0.20638 0.0
H1267 H 0.11454 0.31137 0.15898 0.0
H1268 H 0.08457 0.33937 0.16606 0.0
H1269 H 0.06228 0.48976 0.12094 0.0
H1270 H 0.0834 0.47764 0.16043 0.0
H1271 H 0.04178 0.37999 0.13637 0.0
H1272 H 0.02194 0.39228 0.09681 0.0
H1273 H 0.0972 0.39744 0.15352 0.0
H1274 H 1.00912 0.40779 0.18714 0.0
H1275 H 0.97964 0.43627 0.19437 0.0
H1276 H 0.06047 0.51087 0.23332 0.0
H1277 H 0.09046 0.48278 0.22636 0.0
C1278 C 0.09745 0.3401 0.26923 0.0
C1279 C 0.11367 0.35955 0.29053 0.0
C1280 C 0.09218 0.35305 0.24649 0.0
C1281 C 0.10339 0.38585 0.24429 0.0
C1282 C 0.12038 0.4055 0.26528 0.0
C1283 C 0.12564 0.39251 0.2881 0.0
C1284 C 0.09635 0.39923 0.22043 0.0
C1285 C 0.08089 0.41696 0.22329 0.0
C1286 C 0.10266 0.39259 0.19487 0.0
C1287 C 0.12069 0.37581 0.19039 0.0
C1288 C 0.15083 0.38702 0.20162 0.0
C1289 C 0.16756 0.37091 0.19761 0.0
C1290 C 0.15448 0.34366 0.18226 0.0
C1291 C 0.12465 0.33248 0.17086 0.0
C1292 C 0.10779 0.34849 0.17484 0.0
C1293 C 0.05766 0.46576 0.12421 0.0
C1294 C 0.04034 0.44197 0.10587 0.0
C1295 C 0.06959 0.45876 0.14683 0.0
C1296 C 0.06387 0.42771 0.15172 0.0
C1297 C 0.04664 0.40411 0.13322 0.0
C1298 C 0.03512 0.41115 0.11061 0.0
C1299 C 0.07572 0.41933 0.17583 0.0
C1300 C 0.09218 0.40256 0.17303 0.0
C1301 C 0.07025 0.4268 0.2014 0.0
C1302 C 0.05209 0.44336 0.20602 0.0
C1303 C 0.02062 0.4303 0.1972 0.0
C1304 C 1.00382 0.44634 0.2013 0.0
C1305 C 1.0182 0.47536 0.2143 0.0
C1306 C 0.04939 0.48836 0.2233 0.0
C1307 C 0.06625 0.47236 0.21935 0.0
H1308 H 1.00518 0.48776 0.21743 0.0
H1309 H 0.16748 0.33122 0.17917 0.0
H1310 H 0.70256 0.72945 0.29543 0.0
H1311 H 0.68167 0.69871 0.25574 0.0
H1312 H 0.63264 0.75002 0.23763 0.0
H1313 H 0.65254 0.78002 0.27864 0.0
H1314 H 0.59684 0.69068 0.22407 0.0
H1315 H 0.70544 0.76744 0.20664 0.0
H1316 H 0.76319 0.79774 0.21475 0.0
H1317 H 0.76738 0.7116 0.21219 0.0
H1318 H 0.70955 0.68072 0.20444 0.0
H1319 H 0.57439 0.63045 0.09217 0.0
H1320 H 0.58989 0.66578 0.13006 0.0
H1321 H 0.63748 0.61892 0.1634 0.0
H1322 H 0.62249 0.58405 0.12558 0.0
H1323 H 0.67409 0.68172 0.16607 0.0
H1324 H 0.56371 0.60518 0.18586 0.0
H1325 H 0.50606 0.57623 0.1771 0.0
H1326 H 0.50595 0.66451 0.17335 0.0
H1327 H 0.56371 0.69401 0.18172 0.0
C1328 C 0.68743 0.73431 0.28293 0.0
C1329 C 0.67984 0.7577 0.28966 0.0
C1330 C 0.67555 0.71676 0.26015 0.0
C1331 C 0.65647 0.72274 0.24304 0.0
C1332 C 0.64773 0.74528 0.25026 0.0
C1333 C 0.65919 0.76252 0.27355 0.0
C1334 C 0.64628 0.70553 0.21765 0.0
C1335 C 0.61384 0.68923 0.21115 0.0
C1336 C 0.66827 0.70325 0.20074 0.0
C1337 C 0.70313 0.72177 0.2051 0.0
C1338 C 0.71865 0.75495 0.20793 0.0
C1339 C 0.7514 0.77222 0.21247 0.0
C1340 C 0.76894 0.7566 0.21402 0.0
C1341 C 0.75377 0.72367 0.21098 0.0
C1342 C 0.72101 0.70627 0.20649 0.0
C1343 C 0.58805 0.62766 0.10767 0.0
C1344 C 0.59711 0.60438 0.10599 0.0
C1345 C 0.59679 0.64777 0.12935 0.0
C1346 C 0.61462 0.64485 0.14978 0.0
C1347 C 0.6237 0.62165 0.14797 0.0
C1348 C 0.61499 0.60161 0.12638 0.0
C1349 C 0.62464 0.66623 0.17286 0.0
C1350 C 0.65714 0.68343 0.17886 0.0
C1351 C 0.60274 0.66955 0.18906 0.0
C1352 C 0.56806 0.6518 0.18412 0.0
C1353 C 0.55143 0.61842 0.18295 0.0
C1354 C 0.51873 0.60192 0.17809 0.0
C1355 C 0.50237 0.61852 0.17459 0.0
C1356 C 0.51866 0.65168 0.17601 0.0
C1357 C 0.55137 0.66829 0.18082 0.0
H1358 H 0.47705 0.6057 0.17084 0.0
H1359 H 0.79429 0.77001 0.21754 0.0
H1360 H 0.3949 1.00272 0.08775 0.0
H1361 H 0.36085 0.98308 0.1269 0.0
H1362 H 0.43185 0.96905 0.16586 0.0
H1363 H 0.46523 0.9874 0.12607 0.0
H1364 H 0.37486 0.9215 0.17777 0.0
H1365 H 0.42318 0.03492 0.17725 0.0
H1366 H 0.43794 0.08746 0.1583 0.0
H1367 H 0.33912 0.05916 0.15096 0.0
H1368 H 0.32377 1.00624 0.16948 0.0
H1369 H 0.31479 0.91281 0.3077 0.0
H1370 H 0.34613 0.92459 0.26739 0.0
H1371 H 0.2793 0.94399 0.22732 0.0
H1372 H 0.24874 0.93367 0.26801 0.0
H1373 H 0.33544 0.98877 0.21633 0.0
H1374 H 0.28755 0.87439 0.21716 0.0
H1375 H 0.2741 0.82226 0.23627 0.0
H1376 H 0.37351 0.85315 0.24398 0.0
H1377 H 0.38753 0.9056 0.2252 0.0
C1378 C 0.40291 0.99493 0.10455 0.0
C1379 C 0.43243 0.99624 0.10399 0.0
C1380 C 0.38363 0.98403 0.12702 0.0
C1381 C 0.39395 0.97503 0.14959 0.0
C1382 C 0.42334 0.97588 0.14878 0.0
C1383 C 0.44245 0.98646 0.12615 0.0
C1384 C 0.37447 0.96548 0.17417 0.0
C1385 C 0.36651 0.93637 0.18636 0.0
C1386 C 0.36317 0.9846 0.1853 0.0
C1387 C 0.37234 0.01655 0.17452 0.0
C1388 C 0.4046 0.03984 0.17144 0.0
C1389 C 0.41307 0.06969 0.16079 0.0
C1390 C 0.38948 0.07662 0.15337 0.0
C1391 C 0.35737 0.05374 0.15668 0.0
C1392 C 0.34877 0.02383 0.16726 0.0
C1393 C 0.30636 0.91887 0.29014 0.0
C1394 C 0.27911 0.92209 0.29097 0.0
C1395 C 0.32434 0.92561 0.26702 0.0
C1396 C 0.31504 0.93492 0.24404 0.0
C1397 C 0.28711 0.93692 0.24469 0.0
C1398 C 0.26945 0.93072 0.26791 0.0
C1399 C 0.33518 0.94439 0.21976 0.0
C1400 C 0.34354 0.97371 0.2077 0.0
C1401 C 0.34697 0.92552 0.20888 0.0
C1402 C 0.33855 0.89396 0.21999 0.0
C1403 C 0.30652 0.8701 0.22308 0.0
C1404 C 0.2988 0.8405 0.23383 0.0
C1405 C 0.32293 0.83442 0.24138 0.0
C1406 C 0.35484 0.8579 0.23814 0.0
C1407 C 0.36268 0.88755 0.22742 0.0
H1408 H 0.3169 0.81148 0.24971 0.0
H1409 H 0.39609 0.09973 0.1451 0.0
H1410 H 0.48791 0.03914 0.93837 0.0
H1411 H 0.47645 0.05859 0.89729 0.0
H1412 H 0.38494 0.03686 0.92862 0.0
H1413 H 0.39631 0.01742 0.96926 0.0
H1414 H 0.37972 0.01459 0.87935 0.0
H1415 H 0.44741 0.11276 0.9245 0.0
H1416 H 0.49699 0.14982 0.94665 0.0
H1417 H 0.55033 0.16069 0.87615 0.0
H1418 H 0.50089 0.12272 0.85378 0.0
H1419 H 0.3272 0.09054 0.79236 0.0
H1420 H 0.34579 0.07486 0.83109 0.0
H1421 H 0.43776 0.10983 0.79432 0.0
H1422 H 0.41954 0.12682 0.75588 0.0
H1423 H 0.44605 0.12427 0.84394 0.0
H1424 H 0.38275 0.02911 0.79793 0.0
H1425 H 0.33575 0.98927 0.77407 0.0
H1426 H 0.27777 0.97057 0.84298 0.0
H1427 H 0.32441 1.0107 0.86721 0.0
C1428 C 0.46552 0.0388 0.93638 0.0
C1429 C 0.44293 0.0268 0.95675 0.0
C1430 C 0.45896 0.04989 0.91301 0.0
C1431 C 0.42976 0.04917 0.90983 0.0
C1432 C 0.40749 0.0375 0.93048 0.0
C1433 C 0.41405 0.02654 0.9537 0.0
C1434 C 0.42184 0.06004 0.88503 0.0
C1435 C 0.39407 0.03868 0.87178 0.0
C1436 C 0.4411 0.09105 0.87449 0.0
C1437 C 0.47056 0.11471 0.88758 0.0
C1438 C 0.46973 0.12294 0.91376 0.0
C1439 C 0.49786 0.14413 0.92636 0.0
C1440 C 0.52692 0.15768 0.91283 0.0
C1441 C 0.52783 0.15015 0.88662 0.0
C1442 C 0.49977 0.12875 0.87398 0.0
C1443 C 0.35145 0.09509 0.7926 0.0
C1444 C 0.37184 0.10971 0.77102 0.0
C1445 C 0.36202 0.0859 0.81469 0.0
C1446 C 0.39304 0.09054 0.81552 0.0
C1447 C 0.41371 0.10584 0.79418 0.0
C1448 C 0.40322 0.11539 0.77216 0.0
C1449 C 0.40352 0.079 0.83855 0.0
C1450 C 0.43175 0.10014 0.85142 0.0
C1451 C 0.38502 0.04754 0.8485 0.0
C1452 C 0.35699 0.02306 0.83429 0.0
C1453 C 0.35994 0.01662 0.80796 0.0
C1454 C 0.3334 0.99401 0.79438 0.0
C1455 C 0.30384 0.97749 0.80699 0.0
C1456 C 0.30072 0.98344 0.83325 0.0
C1457 C 0.32721 1.00609 0.84693 0.0
H1458 H 0.28342 0.96008 0.79637 0.0
H1459 H 0.54876 0.17399 0.92258 0.0
H1460 H 0.06187 0.42455 0.93926 0.0
H1461 H 0.03787 0.39749 0.89909 0.0
H1462 H 0.94895 0.39082 0.92183 0.0
H1463 H 0.97287 0.41641 0.96375 0.0
H1464 H 0.93555 0.3377 0.9024 0.0
H1465 H 0.99943 0.44122 0.86844 0.0
H1466 H 0.04696 0.49415 0.86224 0.0
H1467 H 0.09873 0.45125 0.83134 0.0
H1468 H 0.05165 0.398 0.83772 0.0
H1469 H 0.8944 0.28602 0.76454 0.0
H1470 H 0.90923 0.32137 0.80247 0.0
H1471 H 0.97948 0.29598 0.82417 0.0
H1472 H 0.96416 0.25994 0.78684 0.0
H1473 H 0.99558 0.36941 0.81821 0.0
H1474 H 0.92721 0.26399 0.85937 0.0
H1475 H 0.87603 0.21383 0.86365 0.0
H1476 H 0.82783 0.26624 0.87748 0.0
H1477 H 0.87871 0.31673 0.87278 0.0
C1478 C 0.03737 0.41805 0.93557 0.0
C1479 C 1.01945 0.42305 0.95461 0.0
C1480 C 0.02362 0.40263 0.91233 0.0
C1481 C 0.99166 0.39261 0.90677 0.0
C1482 C 0.97375 0.39852 0.9254 0.0
C1483 C 0.98753 0.41362 0.94919 0.0
C1484 C 0.97722 0.3743 0.88227 0.0
C1485 C 0.94847 0.34513 0.88392 0.0
C1486 C 0.99365 0.38364 0.85782 0.0
C1487 C 0.022 0.41561 0.85363 0.0
C1488 C 0.02099 0.44306 0.86043 0.0
C1489 C 0.04786 0.47312 0.85689 0.0
C1490 C 0.07585 0.47606 0.84641 0.0
C1491 C 0.07701 0.44893 0.83942 0.0
C1492 C 0.05022 0.4188 0.84295 0.0
C1493 C 0.91281 0.28779 0.77755 0.0
C1494 C 0.92791 0.26997 0.77292 0.0
C1495 C 0.92124 0.30798 0.79916 0.0
C1496 C 0.94527 0.31107 0.81619 0.0
C1497 C 0.96073 0.29374 0.81133 0.0
C1498 C 0.9519 0.2731 0.79007 0.0
C1499 C 0.95488 0.33282 0.83887 0.0
C1500 C 0.98263 0.36252 0.8367 0.0
C1501 C 0.93705 0.32444 0.86247 0.0
C1502 C 0.90664 0.29409 0.86536 0.0
C1503 C 0.90564 0.26481 0.86299 0.0
C1504 C 0.8767 0.23632 0.86557 0.0
C1505 C 0.84867 0.23684 0.87074 0.0
C1506 C 0.84954 0.26586 0.87341 0.0
C1507 C 0.87841 0.29441 0.87079 0.0
H1508 H 0.8263 0.21476 0.87277 0.0
H1509 H 0.09663 0.49937 0.84369 0.0
H1510 H 0.8018 0.65428 0.79324 0.0
H1511 H 0.76913 0.63637 0.83341 0.0
H1512 H 0.69547 0.64568 0.79411 0.0
H1513 H 0.72896 0.66517 0.75464 0.0
H1514 H 0.70431 0.66991 0.84091 0.0
H1515 H 0.68992 0.57128 0.80706 0.0
H1516 H 0.70813 0.53537 0.79085 0.0
H1517 H 0.75466 0.54248 0.86402 0.0
H1518 H 0.73705 0.57877 0.88054 0.0
H1519 H 0.58271 0.59504 0.93452 0.0
H1520 H 0.61318 0.605 0.89383 0.0
H1521 H 0.68352 0.59218 0.93517 0.0
H1522 H 0.65235 0.58084 0.97568 0.0
H1523 H 0.67757 0.56963 0.888 0.0
H1524 H 0.69335 0.66803 0.92197 0.0
H1525 H 0.67683 0.705 0.93886 0.0
H1526 H 0.6301 0.69995 0.86623 0.0
H1527 H 0.64603 0.66263 0.84903 0.0
C1528 C 0.77854 0.65226 0.79328 0.0
C1529 C 0.76734 0.66008 0.77073 0.0
C1530 C 0.75979 0.64186 0.81613 0.0
C1531 C 0.72945 0.63897 0.81672 0.0
C1532 C 0.71857 0.6473 0.79414 0.0
C1533 C 0.73743 0.65792 0.77143 0.0
C1534 C 0.70943 0.62838 0.84102 0.0
C1535 C 0.69809 0.64773 0.85095 0.0
C1536 C 0.7021 0.59998 0.85474 0.0
C1537 C 0.71239 0.57792 0.84494 0.0
C1538 C 0.70419 0.56532 0.81963 0.0
C1539 C 0.71438 0.54488 0.81039 0.0
C1540 C 0.7326 0.5367 0.82637 0.0
C1541 C 0.74057 0.54886 0.85166 0.0
C1542 C 0.73046 0.56933 0.86098 0.0
C1543 C 0.60427 0.59358 0.93477 0.0
C1544 C 0.61511 0.5872 0.95828 0.0
C1545 C 0.6219 0.59965 0.91157 0.0
C1546 C 0.6512 0.60029 0.91149 0.0
C1547 C 0.66114 0.59207 0.93467 0.0
C1548 C 0.64321 0.58547 0.95783 0.0
C1549 C 0.67202 0.61092 0.88762 0.0
C1550 C 0.68369 0.59173 0.87789 0.0
C1551 C 0.67992 0.63964 0.87414 0.0
C1552 C 0.67064 0.66235 0.88432 0.0
C1553 C 0.67941 0.67468 0.90967 0.0
C1554 C 0.67017 0.69571 0.91929 0.0
C1555 C 0.65237 0.70476 0.90365 0.0
C1556 C 0.64386 0.69289 0.87833 0.0
C1557 C 0.65302 0.67183 0.86862 0.0
H1558 H 0.64521 0.72102 0.91114 0.0
H1559 H 0.74048 0.52088 0.81918 0.0
H1560 H 0.66595 0.76632 0.46036 0.0
H1561 H 0.6847 0.75174 0.49993 0.0
H1562 H 0.77252 0.7754 0.46032 0.0
H1563 H 0.75455 0.79134 0.42112 0.0
H1564 H 0.73541 0.71071 0.4889 0.0
H1565 H 0.78363 0.8251 0.501 0.0
H1566 H 0.78196 0.87494 0.50349 0.0
H1567 H 0.71084 0.83411 0.56432 0.0
H1568 H 0.71145 0.78373 0.56155 0.0
H1569 H 0.8081 0.68523 0.5991 0.0
H1570 H 0.79927 0.708 0.55902 0.0
H1571 H 0.73825 0.73265 0.60243 0.0
H1572 H 0.74954 0.71259 0.64258 0.0
H1573 H 0.76403 0.77459 0.56983 0.0
H1574 H 0.71191 0.6612 0.55951 0.0
H1575 H 0.70797 0.60861 0.55786 0.0
H1576 H 0.77647 0.6414 0.49493 0.0
H1577 H 0.78102 0.69427 0.49639 0.0
C1578 C 0.68932 0.76859 0.46015 0.0
C1579 C 0.70868 0.77976 0.4376 0.0
C1580 C 0.69997 0.76023 0.48273 0.0
C1581 C 0.72993 0.7624 0.48297 0.0
C1582 C 0.74928 0.77344 0.46046 0.0
C1583 C 0.73894 0.78248 0.4381 0.0
C1584 C 0.74095 0.75302 0.50675 0.0
C1585 C 0.74208 0.72479 0.50656 0.0
C1586 C 0.74858 0.77085 0.52993 0.0
C1587 C 0.7477 0.8008 0.53117 0.0
C1588 C 0.76748 0.82672 0.51475 0.0
C1589 C 0.76669 0.85503 0.51618 0.0
C1590 C 0.74634 0.85771 0.53408 0.0
C1591 C 0.72661 0.83203 0.55048 0.0
C1592 C 0.72717 0.8036 0.54898 0.0
C1593 C 0.79338 0.69614 0.59998 0.0
C1594 C 0.77961 0.69734 0.62377 0.0
C1595 C 0.78785 0.70871 0.57703 0.0
C1596 C 0.76713 0.72122 0.57724 0.0
C1597 C 0.75421 0.72315 0.6014 0.0
C1598 C 0.76063 0.71163 0.62441 0.0
C1599 C 0.75823 0.73166 0.55249 0.0
C1600 C 0.75741 0.76021 0.55237 0.0
C1601 C 0.74986 0.71348 0.52922 0.0
C1602 C 0.74702 0.68171 0.52823 0.0
C1603 C 0.72623 0.6572 0.54541 0.0
C1604 C 0.72388 0.62736 0.54451 0.0
C1605 C 0.74202 0.62169 0.52635 0.0
C1606 C 0.76247 0.64583 0.509 0.0
C1607 C 0.76492 0.67572 0.50984 0.0
H1608 H 0.74018 0.59858 0.52569 0.0
H1609 H 0.74585 0.87969 0.53523 0.0
H1610 H 0.28905 0.91608 0.45718 0.0
H1611 H 0.30353 0.95004 0.49559 0.0
H1612 H 0.24859 0.99124 0.46642 0.0
H1613 H 0.23519 0.95816 0.42738 0.0
H1614 H 0.29916 0.03581 0.48618 0.0
H1615 H 0.22181 0.9327 0.51822 0.0
H1616 H 0.19787 0.87489 0.52543 0.0
H1617 H 0.28069 0.89023 0.56774 0.0
H1618 H 0.30529 0.94811 0.56049 0.0
H1619 H 0.2922 0.05756 0.63903 0.0
H1620 H 0.27099 0.02658 0.59905 0.0
H1621 H 0.36191 0.08378 0.56057 0.0
H1622 H 0.38294 0.11505 0.6002 0.0
H1623 H 0.28744 0.9893 0.57532 0.0
H1624 H 0.35434 0.08781 0.4964 0.0
H1625 H 0.37254 0.14476 0.48966 0.0
H1626 H 0.29954 0.13687 0.54214 0.0
H1627 H 0.28073 0.07984 0.54897 0.0
C1628 C 0.27997 0.9323 0.45902 0.0
C1629 C 0.26065 0.93417 0.43945 0.0
C1630 C 0.28814 0.95165 0.48108 0.0
C1631 C 0.27659 0.97281 0.48439 0.0
C1632 C 0.25769 0.97504 0.46455 0.0
C1633 C 0.24988 0.95599 0.44228 0.0
C1634 C 0.28432 0.99263 0.50843 0.0
C1635 C 0.2965 0.02553 0.50563 0.0
C1636 C 0.2803 0.97942 0.53403 0.0
C1637 C 0.26545 0.94469 0.53867 0.0
C1638 C 0.23496 0.92371 0.52896 0.0
C1639 C 0.22128 0.89095 0.53305 0.0
C1640 C 0.23777 0.87889 0.547 0.0
C1641 C 0.26795 0.8996 0.55693 0.0
C1642 C 0.28175 0.93239 0.55287 0.0
C1643 C 0.3074 0.06405 0.62181 0.0
C1644 C 0.33922 0.08894 0.62272 0.0
C1645 C 0.29534 0.0461 0.59904 0.0
C1646 C 0.31474 0.05284 0.57665 0.0
C1647 C 0.34623 0.07832 0.57735 0.0
C1648 C 0.35827 0.09623 0.60006 0.0
C1649 C 0.30274 0.03246 0.55297 0.0
C1650 C 0.2899 0.99949 0.55585 0.0
C1651 C 0.30533 0.04547 0.52752 0.0
C1652 C 0.31629 0.07965 0.5233 0.0
C1653 C 0.3421 0.09822 0.50639 0.0
C1654 C 0.35254 0.13051 0.50259 0.0
C1655 C 0.33725 0.14444 0.5155 0.0
C1656 C 0.31143 0.12608 0.53222 0.0
C1657 C 0.30091 0.09379 0.53609 0.0
H1658 H 0.34536 0.16944 0.51253 0.0
H1659 H 0.22714 0.85351 0.55014 0.0
H1660 H 0.93366 0.21067 0.62012 0.0
H1661 H 0.96439 0.22126 0.57915 0.0
H1662 H 0.99341 0.32085 0.58432 0.0
H1663 H 0.96099 0.30978 0.6235 0.0
H1664 H 0.98295 0.30912 0.53843 0.0
H1665 H 0.0456 0.28573 0.59747 0.0
H1666 H 0.05688 0.2549 0.62966 0.0
H1667 H 0.02449 0.17754 0.57586 0.0
H1668 H 1.01323 0.20832 0.54308 0.0
H1669 H 0.12028 0.37732 0.4566 0.0
H1670 H 0.08536 0.35851 0.49528 0.0
H1671 H 0.04157 0.26236 0.46726 0.0
H1672 H 0.07656 0.28107 0.42849 0.0
H1673 H 0.05631 0.26794 0.52146 0.0
H1674 H 1.00307 0.30237 0.46015 0.0
H1675 H 1.00144 0.34155 0.43004 0.0
H1676 H 0.02559 0.40728 0.49319 0.0
H1677 H 0.02782 0.36864 0.52358 0.0
C1678 C 0.94629 0.23464 0.61213 0.0
C1679 C 0.94424 0.25919 0.62458 0.0
C1680 C 0.96428 0.24087 0.58891 0.0
C1681 C 0.98165 0.27204 0.5784 0.0
C1682 C 0.98001 0.29651 0.59144 0.0
C1683 C 0.96135 0.29014 0.61398 0.0
C1684 C 1.00104 0.27964 0.55366 0.0
C1685 C 0.9992 0.30026 0.53508 0.0
C1686 C 0.02198 0.26787 0.54848 0.0
C1687 C 0.02814 0.24906 0.56807 0.0
C1688 C 0.04062 0.26202 0.59261 0.0
C1689 C 0.04706 0.24455 0.61095 0.0
C1690 C 0.04115 0.21407 0.605 0.0
C1691 C 0.02896 0.2011 0.58052 0.0
C1692 C 0.02262 0.21858 0.56201 0.0
C1693 C 0.10333 0.35216 0.45875 0.0
C1694 C 0.10116 0.33067 0.43956 0.0
C1695 C 0.08331 0.34144 0.48081 0.0
C1696 C 0.06068 0.30904 0.48408 0.0
C1697 C 0.05885 0.28744 0.46514 0.0
C1698 C 0.07878 0.29818 0.44299 0.0
C1699 C 0.03866 0.29791 0.50708 0.0
C1700 C 0.03986 0.27651 0.52503 0.0
C1701 C 1.01797 0.30986 0.51218 0.0
C1702 C 1.01576 0.33269 0.49407 0.0
C1703 C 1.00814 0.32522 0.46757 0.0
C1704 C 1.00712 0.34734 0.45047 0.0
C1705 C 1.01345 0.37691 0.45969 0.0
C1706 C 0.02069 0.38438 0.48607 0.0
C1707 C 0.0218 0.36237 0.50325 0.0
H1708 H 1.01271 0.39402 0.4464 0.0
H1709 H 0.04619 0.2006 0.61929 0.0
loop_
_geom_bond_atom_site_label_1
_geom_bond_atom_site_label_2
_geom_bond_distance
_geom_bond_site_symmetry_2
_ccdc_geom_bond_type
Nd0 C2 2.836 . S
Nd0 O20 2.500 1_556 S
Nd0 O21 2.492 . S
Nd0 O22 2.487 . S
Nd0 O23 2.682 1_455 S
Nd0 O24 2.410 . S
Nd0 O29 2.414 1_556 S
Nd0 O31 2.424 1_456 S
Nd1 C11 2.836 . S
Nd1 O23 2.414 1_554 S
Nd1 O25 2.424 1_655 S
Nd1 O26 2.500 1_554 S
Nd1 O27 2.492 . S
Nd1 O28 2.487 . S
Nd1 O29 2.682 1_655 S
Nd1 O30 2.410 . S
C2 Nd0 2.836 . S
C2 C3 1.498 . S
C2 O20 1.258 1_556 S
C2 O21 1.239 . S
C3 C2 1.498 . S
C3 C4 1.366 1_556 S
C3 C8 1.407 . S
C4 C3 1.366 1_554 S
C4 C5 1.392 . S
C4 H32 0.930 . S
C5 C4 1.392 . S
C5 C6 1.398 1_554 S
C5 H33 0.929 . S
C6 C5 1.398 1_556 S
C6 C7 1.352 . S
C7 C6 1.352 . S
C7 C8 1.384 . S
C7 H34 0.930 . S
C8 C3 1.407 . S
C8 C7 1.384 . S
C8 H35 0.929 . S
C9 O22 1.241 1_655 S
C9 O23 1.273 . S
C10 O24 1.251 . S
C10 O25 1.268 1_556 S
C11 Nd1 2.836 . S
C11 C12 1.498 . S
C11 O26 1.258 1_554 S
C11 O27 1.239 . S
C12 C11 1.498 . S
C12 C13 1.366 1_554 S
C12 C17 1.407 . S
C13 C12 1.366 1_556 S
C13 C14 1.392 . S
C13 H36 0.930 . S
C14 C13 1.392 . S
C14 C15 1.398 1_556 S
C14 H37 0.929 . S
C15 C14 1.398 1_554 S
C15 C16 1.352 . S
C16 C15 1.352 . S
C16 C17 1.384 . S
C16 H38 0.930 . S
C17 C12 1.407 . S
C17 C16 1.384 . S
C17 H39 0.929 . S
C18 O28 1.241 1_455 S
C18 O29 1.273 . S
C19 O30 1.251 . S
C19 O31 1.268 . S
O20 Nd0 2.500 1_554 S
O20 C2 1.258 1_554 S
O21 Nd0 2.492 . S
O21 C2 1.239 . S
O22 Nd0 2.487 . S
O22 C9 1.241 1_455 S
O23 Nd0 2.682 1_655 S
O23 Nd1 2.414 1_556 S
O23 C9 1.273 . S
O24 Nd0 2.410 . S
O24 C10 1.251 . S
O25 Nd1 2.424 1_455 S
O25 C10 1.268 1_554 S
O26 Nd1 2.500 1_556 S
O26 C11 1.258 1_556 S
O27 Nd1 2.492 . S
O27 C11 1.239 . S
O28 Nd1 2.487 . S
O28 C18 1.241 1_655 S
O29 Nd0 2.414 1_554 S
O29 Nd1 2.682 1_455 S
O29 C18 1.273 . S
O30 Nd1 2.410 . S
O30 C19 1.251 . S
O31 Nd0 2.424 1_654 S
O31 C19 1.268 . S
H32 C4 0.930 . S
H33 C5 0.929 . S
H34 C7 0.930 . S
H35 C8 0.929 . S
H36 C13 0.930 . S
H37 C14 0.929 . S
H38 C16 0.930 . S
H39 C17 0.929 . S
Nd40 C42 2.836 . S
Nd40 O60 2.500 1_556 S
Nd40 O61 2.492 . S
Nd40 O62 2.487 . S
Nd40 O63 2.682 . S
Nd40 O64 2.410 . S
Nd40 O69 2.414 1_556 S
Nd40 O71 2.424 1_556 S
Nd41 C51 2.836 . S
Nd41 O63 2.414 1_554 S
Nd41 O65 2.424 . S
Nd41 O66 2.500 1_554 S
Nd41 O67 2.492 . S
Nd41 O68 2.487 . S
Nd41 O69 2.682 . S
Nd41 O70 2.410 . S
C42 Nd40 2.836 . S
C42 C43 1.498 . S
C42 O60 1.258 1_556 S
C42 O61 1.239 . S
C43 C42 1.498 . S
C43 C44 1.366 1_556 S
C43 C48 1.407 . S
C44 C43 1.366 1_554 S
C44 C45 1.392 . S
C44 H72 0.930 . S
C45 C44 1.392 . S
C45 C46 1.398 1_554 S
C45 H73 0.929 . S
C46 C45 1.398 1_556 S
C46 C47 1.352 . S
C47 C46 1.352 . S
C47 C48 1.384 . S
C47 H74 0.930 . S
C48 C43 1.407 . S
C48 C47 1.384 . S
C48 H75 0.929 . S
C49 O62 1.241 . S
C49 O63 1.273 . S
C50 O64 1.251 . S
C50 O65 1.268 1_556 S
C51 Nd41 2.836 . S
C51 C52 1.498 . S
C51 O66 1.258 1_554 S
C51 O67 1.239 . S
C52 C51 1.498 . S
C52 C53 1.366 1_554 S
C52 C57 1.407 . S
C53 C52 1.366 1_556 S
C53 C54 1.392 . S
C53 H76 0.930 . S
C54 C53 1.392 . S
C54 C55 1.398 1_556 S
C54 H77 0.929 . S
C55 C54 1.398 1_554 S
C55 C56 1.352 . S
C56 C55 1.352 . S
C56 C57 1.384 . S
C56 H78 0.930 . S
C57 C52 1.407 . S
C57 C56 1.384 . S
C57 H79 0.929 . S
C58 O68 1.241 . S
C58 O69 1.273 . S
C59 O70 1.251 . S
C59 O71 1.268 . S
O60 Nd40 2.500 1_554 S
O60 C42 1.258 1_554 S
O61 Nd40 2.492 . S
O61 C42 1.239 . S
O62 Nd40 2.487 . S
O62 C49 1.241 . S
O63 Nd40 2.682 . S
O63 Nd41 2.414 1_556 S
O63 C49 1.273 . S
O64 Nd40 2.410 . S
O64 C50 1.251 . S
O65 Nd41 2.424 . S
O65 C50 1.268 1_554 S
O66 Nd41 2.500 1_556 S
O66 C51 1.258 1_556 S
O67 Nd41 2.492 . S
O67 C51 1.239 . S
O68 Nd41 2.487 . S
O68 C58 1.241 . S
O69 Nd40 2.414 1_554 S
O69 Nd41 2.682 . S
O69 C58 1.273 . S
O70 Nd41 2.410 . S
O70 C59 1.251 . S
O71 Nd40 2.424 1_554 S
O71 C59 1.268 . S
H72 C44 0.930 . S
H73 C45 0.929 . S
H74 C47 0.930 . S
H75 C48 0.929 . S
H76 C53 0.930 . S
H77 C54 0.929 . S
H78 C56 0.930 . S
H79 C57 0.929 . S
Nd80 C82 2.836 . S
Nd80 O100 2.500 1_556 S
Nd80 O101 2.492 . S
Nd80 O102 2.487 . S
Nd80 O103 2.682 1_565 S
Nd80 O104 2.410 . S
Nd80 O109 2.414 1_556 S
Nd80 O111 2.424 1_566 S
Nd81 C91 2.836 . S
Nd81 O103 2.414 1_554 S
Nd81 O105 2.424 1_545 S
Nd81 O106 2.500 1_554 S
Nd81 O107 2.492 . S
Nd81 O108 2.487 . S
Nd81 O109 2.682 1_545 S
Nd81 O110 2.410 . S
C82 Nd80 2.836 . S
C82 C83 1.498 . S
C82 O100 1.258 1_556 S
C82 O101 1.239 . S
C83 C82 1.498 . S
C83 C84 1.366 1_556 S
C83 C88 1.407 . S
C84 C83 1.366 1_554 S
C84 C85 1.392 . S
C84 H112 0.930 . S
C85 C84 1.392 . S
C85 C86 1.398 1_554 S
C85 H113 0.929 . S
C86 C85 1.398 1_556 S
C86 C87 1.352 . S
C87 C86 1.352 . S
C87 C88 1.384 . S
C87 H114 0.930 . S
C88 C83 1.407 . S
C88 C87 1.384 . S
C88 H115 0.929 . S
C89 O102 1.241 1_545 S
C89 O103 1.273 . S
C90 O104 1.251 . S
C90 O105 1.268 1_556 S
C91 Nd81 2.836 . S
C91 C92 1.498 . S
C91 O106 1.258 1_554 S
C91 O107 1.239 . S
C92 C91 1.498 . S
C92 C93 1.366 1_554 S
C92 C97 1.407 . S
C93 C92 1.366 1_556 S
C93 C94 1.392 . S
C93 H116 0.930 . S
C94 C93 1.392 . S
C94 C95 1.398 1_556 S
C94 H117 0.929 . S
C95 C94 1.398 1_554 S
C95 C96 1.352 . S
C96 C95 1.352 . S
C96 C97 1.384 . S
C96 H118 0.930 . S
C97 C92 1.407 . S
C97 C96 1.384 . S
C97 H119 0.929 . S
C98 O108 1.241 1_565 S
C98 O109 1.273 . S
C99 O110 1.251 . S
C99 O111 1.268 . S
O100 Nd80 2.500 1_554 S
O100 C82 1.258 1_554 S
O101 Nd80 2.492 . S
O101 C82 1.239 . S
O102 Nd80 2.487 . S
O102 C89 1.241 1_565 S
O103 Nd80 2.682 1_545 S
O103 Nd81 2.414 1_556 S
O103 C89 1.273 . S
O104 Nd80 2.410 . S
O104 C90 1.251 . S
O105 Nd81 2.424 1_565 S
O105 C90 1.268 1_554 S
O106 Nd81 2.500 1_556 S
O106 C91 1.258 1_556 S
O107 Nd81 2.492 . S
O107 C91 1.239 . S
O108 Nd81 2.487 . S
O108 C98 1.241 1_545 S
O109 Nd80 2.414 1_554 S
O109 Nd81 2.682 1_565 S
O109 C98 1.273 . S
O110 Nd81 2.410 . S
O110 C99 1.251 . S
O111 Nd80 2.424 1_544 S
O111 C99 1.268 . S
H112 C84 0.930 . S
H113 C85 0.929 . S
H114 C87 0.930 . S
H115 C88 0.929 . S
H116 C93 0.930 . S
H117 C94 0.929 . S
H118 C96 0.930 . S
H119 C97 0.929 . S
Nd120 C122 2.836 . S
Nd120 O140 2.500 . S
Nd120 O141 2.492 . S
Nd120 O142 2.487 . S
Nd120 O143 2.682 . S
Nd120 O144 2.410 . S
Nd120 O149 2.414 . S
Nd120 O151 2.424 . S
Nd121 C131 2.836 . S
Nd121 O143 2.414 . S
Nd121 O145 2.424 . S
Nd121 O146 2.500 . S
Nd121 O147 2.492 . S
Nd121 O148 2.487 . S
Nd121 O149 2.682 . S
Nd121 O150 2.410 . S
C122 Nd120 2.836 . S
C122 C123 1.498 . S
C122 O140 1.258 . S
C122 O141 1.239 . S
C123 C122 1.498 . S
C123 C124 1.366 . S
C123 C128 1.407 . S
C124 C123 1.366 . S
C124 C125 1.392 . S
C124 H152 0.930 . S
C125 C124 1.392 . S
C125 C126 1.398 . S
C125 H153 0.929 . S
C126 C125 1.398 . S
C126 C127 1.352 . S
C127 C126 1.352 . S
C127 C128 1.384 . S
C127 H154 0.930 . S
C128 C123 1.407 . S
C128 C127 1.384 . S
C128 H155 0.929 . S
C129 O142 1.241 . S
C129 O143 1.273 . S
C130 O144 1.251 . S
C130 O145 1.268 . S
C131 Nd121 2.836 . S
C131 C132 1.498 . S
C131 O146 1.258 . S
C131 O147 1.239 . S
C132 C131 1.498 . S
C132 C133 1.366 . S
C132 C137 1.407 . S
C133 C132 1.366 . S
C133 C134 1.392 . S
C133 H156 0.930 . S
C134 C133 1.392 . S
C134 C135 1.398 . S
C134 H157 0.929 . S
C135 C134 1.398 . S
C135 C136 1.352 . S
C136 C135 1.352 . S
C136 C137 1.384 . S
C136 H158 0.930 . S
C137 C132 1.407 . S
C137 C136 1.384 . S
C137 H159 0.929 . S
C138 O148 1.241 . S
C138 O149 1.273 . S
C139 O150 1.251 . S
C139 O151 1.268 . S
O140 Nd120 2.500 . S
O140 C122 1.258 . S
O141 Nd120 2.492 . S
O141 C122 1.239 . S
O142 Nd120 2.487 . S
O142 C129 1.241 . S
O143 Nd120 2.682 . S
O143 Nd121 2.414 . S
O143 C129 1.273 . S
O144 Nd120 2.410 . S
O144 C130 1.251 . S
O145 Nd121 2.424 . S
O145 C130 1.268 . S
O146 Nd121 2.500 . S
O146 C131 1.258 . S
O147 Nd121 2.492 . S
O147 C131 1.239 . S
O148 Nd121 2.487 . S
O148 C138 1.241 . S
O149 Nd120 2.414 . S
O149 Nd121 2.682 . S
O149 C138 1.273 . S
O150 Nd121 2.410 . S
O150 C139 1.251 . S
O151 Nd120 2.424 . S
O151 C139 1.268 . S
H152 C124 0.930 . S
H153 C125 0.929 . S
H154 C127 0.930 . S
H155 C128 0.929 . S
H156 C133 0.930 . S
H157 C134 0.929 . S
H158 C136 0.930 . S
H159 C137 0.929 . S
Nd160 C162 2.836 . S
Nd160 O180 2.500 . S
Nd160 O181 2.492 . S
Nd160 O182 2.487 . S
Nd160 O183 2.682 . S
Nd160 O184 2.410 . S
Nd160 O189 2.414 . S
Nd160 O191 2.424 . S
Nd161 C171 2.836 . S
Nd161 O183 2.414 . S
Nd161 O185 2.424 . S
Nd161 O186 2.500 . S
Nd161 O187 2.492 . S
Nd161 O188 2.487 . S
Nd161 O189 2.682 . S
Nd161 O190 2.410 . S
C162 Nd160 2.836 . S
C162 C163 1.498 1_565 S
C162 O180 1.258 . S
C162 O181 1.239 . S
C163 C162 1.498 1_545 S
C163 C164 1.366 . S
C163 C168 1.407 . S
C164 C163 1.366 . S
C164 C165 1.392 . S
C164 H192 0.930 1_545 S
C165 C164 1.392 . S
C165 C166 1.398 . S
C165 H193 0.929 . S
C166 C165 1.398 . S
C166 C167 1.352 . S
C167 C166 1.352 . S
C167 C168 1.384 . S
C167 H194 0.930 . S
C168 C163 1.407 . S
C168 C167 1.384 . S
C168 H195 0.929 . S
C169 O182 1.241 . S
C169 O183 1.273 . S
C170 O184 1.251 . S
C170 O185 1.268 . S
C171 Nd161 2.836 . S
C171 C172 1.498 . S
C171 O186 1.258 . S
C171 O187 1.239 . S
C172 C171 1.498 . S
C172 C173 1.366 . S
C172 C177 1.407 . S
C173 C172 1.366 . S
C173 C174 1.392 . S
C173 H196 0.930 . S
C174 C173 1.392 . S
C174 C175 1.398 . S
C174 H197 0.929 . S
C175 C174 1.398 . S
C175 C176 1.352 . S
C176 C175 1.352 . S
C176 C177 1.384 . S
C176 H198 0.930 . S
C177 C172 1.407 . S
C177 C176 1.384 . S
C177 H199 0.929 . S
C178 O188 1.241 . S
C178 O189 1.273 . S
C179 O190 1.251 . S
C179 O191 1.268 . S
O180 Nd160 2.500 . S
O180 C162 1.258 . S
O181 Nd160 2.492 . S
O181 C162 1.239 . S
O182 Nd160 2.487 . S
O182 C169 1.241 . S
O183 Nd160 2.682 . S
O183 Nd161 2.414 . S
O183 C169 1.273 . S
O184 Nd160 2.410 . S
O184 C170 1.251 . S
O185 Nd161 2.424 . S
O185 C170 1.268 . S
O186 Nd161 2.500 . S
O186 C171 1.258 . S
O187 Nd161 2.492 . S
O187 C171 1.239 . S
O188 Nd161 2.487 . S
O188 C178 1.241 . S
O189 Nd160 2.414 . S
O189 Nd161 2.682 . S
O189 C178 1.273 . S
O190 Nd161 2.410 . S
O190 C179 1.251 . S
O191 Nd160 2.424 . S
O191 C179 1.268 . S
H192 C164 0.930 1_565 S
H193 C165 0.929 . S
H194 C167 0.930 . S
H195 C168 0.929 . S
H196 C173 0.930 . S
H197 C174 0.929 . S
H198 C176 0.930 . S
H199 C177 0.929 . S
Nd200 C202 2.836 . S
Nd200 O220 2.500 . S
Nd200 O221 2.492 . S
Nd200 O222 2.487 . S
Nd200 O223 2.682 . S
Nd200 O224 2.410 . S
Nd200 O229 2.414 . S
Nd200 O231 2.424 . S
Nd201 C211 2.836 . S
Nd201 O223 2.414 . S
Nd201 O225 2.424 . S
Nd201 O226 2.500 . S
Nd201 O227 2.492 . S
Nd201 O228 2.487 . S
Nd201 O229 2.682 . S
Nd201 O230 2.410 . S
C202 Nd200 2.836 . S
C202 C203 1.510 . S
C202 O220 1.258 . S
C202 O221 1.239 . S
C203 C202 1.510 . S
C203 C204 1.376 1_455 S
C203 C208 1.387 1_455 S
C204 C203 1.376 1_655 S
C204 C205 1.392 . S
C204 H232 0.930 1_655 S
C205 C204 1.392 . S
C205 C206 1.398 . S
C205 H233 0.929 . S
C206 C205 1.398 . S
C206 C207 1.352 . S
C207 C206 1.352 . S
C207 C208 1.384 . S
C207 H234 0.930 . S
C208 C203 1.387 1_655 S
C208 C207 1.384 . S
C208 H235 0.929 . S
C209 O222 1.241 . S
C209 O223 1.273 . S
C210 O224 1.251 . S
C210 O225 1.268 . S
C211 Nd201 2.836 . S
C211 C212 1.498 . S
C211 O226 1.258 . S
C211 O227 1.239 . S
C212 C211 1.498 . S
C212 C213 1.366 . S
C212 C217 1.407 . S
C213 C212 1.366 . S
C213 C214 1.392 . S
C213 H236 0.930 . S
C214 C213 1.392 . S
C214 C215 1.398 . S
C214 H237 0.929 . S
C215 C214 1.398 . S
C215 C216 1.352 . S
C216 C215 1.352 . S
C216 C217 1.384 . S
C216 H238 0.930 . S
C217 C212 1.407 . S
C217 C216 1.384 . S
C217 H239 0.929 . S
C218 O228 1.241 . S
C218 O229 1.273 . S
C219 O230 1.251 . S
C219 O231 1.268 . S
O220 Nd200 2.500 . S
O220 C202 1.258 . S
O221 Nd200 2.492 . S
O221 C202 1.239 . S
O222 Nd200 2.487 . S
O222 C209 1.241 . S
O223 Nd200 2.682 . S
O223 Nd201 2.414 . S
O223 C209 1.273 . S
O224 Nd200 2.410 . S
O224 C210 1.251 . S
O225 Nd201 2.424 . S
O225 C210 1.268 . S
O226 Nd201 2.500 . S
O226 C211 1.258 . S
O227 Nd201 2.492 . S
O227 C211 1.239 . S
O228 Nd201 2.487 . S
O228 C218 1.241 . S
O229 Nd200 2.414 . S
O229 Nd201 2.682 . S
O229 C218 1.273 . S
O230 Nd201 2.410 . S
O230 C219 1.251 . S
O231 Nd200 2.424 . S
O231 C219 1.268 . S
H232 C204 0.930 1_455 S
H233 C205 0.929 . S
H234 C207 0.930 . S
H235 C208 0.929 . S
H236 C213 0.930 . S
H237 C214 0.929 . S
H238 C216 0.930 . S
H239 C217 0.929 . S
Nd240 C242 2.836 . S
Nd240 O260 2.500 . S
Nd240 O261 2.492 . S
Nd240 O262 2.487 . S
Nd240 O263 2.682 . S
Nd240 O264 2.410 . S
Nd240 O269 2.414 . S
Nd240 O271 2.424 . S
Nd241 C251 2.836 . S
Nd241 O263 2.414 . S
Nd241 O265 2.424 . S
Nd241 O266 2.500 . S
Nd241 O267 2.492 . S
Nd241 O268 2.487 . S
Nd241 O269 2.682 . S
Nd241 O270 2.410 . S
C242 Nd240 2.836 . S
C242 C243 1.498 . S
C242 O260 1.258 . S
C242 O261 1.239 . S
C243 C242 1.498 . S
C243 C244 1.366 . S
C243 C248 1.407 . S
C244 C243 1.366 . S
C244 C245 1.392 . S
C244 H272 0.930 . S
C245 C244 1.392 . S
C245 C246 1.398 . S
C245 H273 0.929 . S
C246 C245 1.398 . S
C246 C247 1.352 . S
C247 C246 1.352 . S
C247 C248 1.384 . S
C247 H274 0.930 . S
C248 C243 1.407 . S
C248 C247 1.384 . S
C248 H275 0.929 . S
C249 O262 1.241 . S
C249 O263 1.273 . S
C250 O264 1.251 . S
C250 O265 1.268 . S
C251 Nd241 2.836 . S
C251 C252 1.498 . S
C251 O266 1.258 . S
C251 O267 1.239 . S
C252 C251 1.498 . S
C252 C253 1.366 . S
C252 C257 1.407 . S
C253 C252 1.366 . S
C253 C254 1.392 . S
C253 H276 0.930 . S
C254 C253 1.392 . S
C254 C255 1.398 . S
C254 H277 0.929 . S
C255 C254 1.398 . S
C255 C256 1.352 . S
C256 C255 1.352 . S
C256 C257 1.384 . S
C256 H278 0.930 . S
C257 C252 1.407 . S
C257 C256 1.384 . S
C257 H279 0.929 . S
C258 O268 1.241 . S
C258 O269 1.273 . S
C259 O270 1.251 . S
C259 O271 1.268 . S
O260 Nd240 2.500 . S
O260 C242 1.258 . S
O261 Nd240 2.492 . S
O261 C242 1.239 . S
O262 Nd240 2.487 . S
O262 C249 1.241 . S
O263 Nd240 2.682 . S
O263 Nd241 2.414 . S
O263 C249 1.273 . S
O264 Nd240 2.410 . S
O264 C250 1.251 . S
O265 Nd241 2.424 . S
O265 C250 1.268 . S
O266 Nd241 2.500 . S
O266 C251 1.258 . S
O267 Nd241 2.492 . S
O267 C251 1.239 . S
O268 Nd241 2.487 . S
O268 C258 1.241 . S
O269 Nd240 2.414 . S
O269 Nd241 2.682 . S
O269 C258 1.273 . S
O270 Nd241 2.410 . S
O270 C259 1.251 . S
O271 Nd240 2.424 . S
O271 C259 1.268 . S
H272 C244 0.930 . S
H273 C245 0.929 . S
H274 C247 0.930 . S
H275 C248 0.929 . S
H276 C253 0.930 . S
H277 C254 0.929 . S
H278 C256 0.930 . S
H279 C257 0.929 . S
Nd280 C282 2.836 . S
Nd280 O300 2.500 . S
Nd280 O301 2.492 . S
Nd280 O302 2.487 . S
Nd280 O303 2.682 . S
Nd280 O304 2.410 . S
Nd280 O309 2.414 . S
Nd280 O311 2.424 . S
Nd281 C291 2.836 . S
Nd281 O303 2.414 . S
Nd281 O305 2.424 . S
Nd281 O306 2.500 . S
Nd281 O307 2.492 . S
Nd281 O308 2.487 . S
Nd281 O309 2.682 . S
Nd281 O310 2.410 . S
C282 Nd280 2.836 . S
C282 C283 1.498 . S
C282 O300 1.258 . S
C282 O301 1.239 . S
C283 C282 1.498 . S
C283 C284 1.366 . S
C283 C288 1.407 . S
C284 C283 1.366 . S
C284 C285 1.392 . S
C284 H312 0.930 . S
C285 C284 1.392 . S
C285 C286 1.398 . S
C285 H313 0.929 . S
C286 C285 1.398 . S
C286 C287 1.352 . S
C287 C286 1.352 . S
C287 C288 1.384 . S
C287 H314 0.930 . S
C288 C283 1.407 . S
C288 C287 1.384 . S
C288 H315 0.929 . S
C289 O302 1.241 . S
C289 O303 1.273 . S
C290 O304 1.251 . S
C290 O305 1.268 . S
C291 Nd281 2.836 . S
C291 C292 1.498 . S
C291 O306 1.258 . S
C291 O307 1.239 . S
C292 C291 1.498 . S
C292 C293 1.366 . S
C292 C297 1.407 . S
C293 C292 1.366 . S
C293 C294 1.392 . S
C293 H316 0.930 . S
C294 C293 1.392 . S
C294 C295 1.398 . S
C294 H317 0.929 . S
C295 C294 1.398 . S
C295 C296 1.352 . S
C296 C295 1.352 . S
C296 C297 1.384 . S
C296 H318 0.930 . S
C297 C292 1.407 . S
C297 C296 1.384 . S
C297 H319 0.929 . S
C298 O308 1.241 . S
C298 O309 1.273 . S
C299 O310 1.251 . S
C299 O311 1.268 . S
O300 Nd280 2.500 . S
O300 C282 1.258 . S
O301 Nd280 2.492 . S
O301 C282 1.239 . S
O302 Nd280 2.487 . S
O302 C289 1.241 . S
O303 Nd280 2.682 . S
O303 Nd281 2.414 . S
O303 C289 1.273 . S
O304 Nd280 2.410 . S
O304 C290 1.251 . S
O305 Nd281 2.424 . S
O305 C290 1.268 . S
O306 Nd281 2.500 . S
O306 C291 1.258 . S
O307 Nd281 2.492 . S
O307 C291 1.239 . S
O308 Nd281 2.487 . S
O308 C298 1.241 . S
O309 Nd280 2.414 . S
O309 Nd281 2.682 . S
O309 C298 1.273 . S
O310 Nd281 2.410 . S
O310 C299 1.251 . S
O311 Nd280 2.424 . S
O311 C299 1.268 . S
H312 C284 0.930 . S
H313 C285 0.929 . S
H314 C287 0.930 . S
H315 C288 0.929 . S
H316 C293 0.930 . S
H317 C294 0.929 . S
H318 C296 0.930 . S
H319 C297 0.929 . S
Nd320 C322 2.836 . S
Nd320 O340 2.500 . S
Nd320 O341 2.492 . S
Nd320 O342 2.487 . S
Nd320 O343 2.682 . S
Nd320 O344 2.410 . S
Nd320 O349 2.414 . S
Nd320 O351 2.424 . S
Nd321 C331 2.836 . S
Nd321 O343 2.414 . S
Nd321 O345 2.424 . S
Nd321 O346 2.500 . S
Nd321 O347 2.492 . S
Nd321 O348 2.487 . S
Nd321 O349 2.682 . S
Nd321 O350 2.410 . S
C322 Nd320 2.836 . S
C322 C323 1.498 . S
C322 O340 1.258 . S
C322 O341 1.239 . S
C323 C322 1.498 . S
C323 C324 1.366 . S
C323 C328 1.407 . S
C324 C323 1.366 . S
C324 C325 1.392 . S
C324 H352 0.930 . S
C325 C324 1.392 . S
C325 C326 1.398 . S
C325 H353 0.929 . S
C326 C325 1.398 . S
C326 C327 1.352 . S
C327 C326 1.352 . S
C327 C328 1.384 . S
C327 H354 0.930 . S
C328 C323 1.407 . S
C328 C327 1.384 . S
C328 H355 0.929 . S
C329 O342 1.241 . S
C329 O343 1.273 . S
C330 O344 1.251 . S
C330 O345 1.268 . S
C331 Nd321 2.836 . S
C331 C332 1.498 . S
C331 O346 1.258 . S
C331 O347 1.239 . S
C332 C331 1.498 . S
C332 C333 1.366 . S
C332 C337 1.407 . S
C333 C332 1.366 . S
C333 C334 1.392 . S
C333 H356 0.930 . S
C334 C333 1.392 . S
C334 C335 1.398 . S
C334 H357 0.929 . S
C335 C334 1.398 . S
C335 C336 1.352 . S
C336 C335 1.352 . S
C336 C337 1.384 . S
C336 H358 0.930 . S
C337 C332 1.407 . S
C337 C336 1.384 . S
C337 H359 0.929 . S
C338 O348 1.241 . S
C338 O349 1.273 . S
C339 O350 1.251 . S
C339 O351 1.268 . S
O340 Nd320 2.500 . S
O340 C322 1.258 . S
O341 Nd320 2.492 . S
O341 C322 1.239 . S
O342 Nd320 2.487 . S
O342 C329 1.241 . S
O343 Nd320 2.682 . S
O343 Nd321 2.414 . S
O343 C329 1.273 . S
O344 Nd320 2.410 . S
O344 C330 1.251 . S
O345 Nd321 2.424 . S
O345 C330 1.268 . S
O346 Nd321 2.500 . S
O346 C331 1.258 . S
O347 Nd321 2.492 . S
O347 C331 1.239 . S
O348 Nd321 2.487 . S
O348 C338 1.241 . S
O349 Nd320 2.414 . S
O349 Nd321 2.682 . S
O349 C338 1.273 . S
O350 Nd321 2.410 . S
O350 C339 1.251 . S
O351 Nd320 2.424 . S
O351 C339 1.268 . S
H352 C324 0.930 . S
H353 C325 0.929 . S
H354 C327 0.930 . S
H355 C328 0.929 . S
H356 C333 0.930 . S
H357 C334 0.929 . S
H358 C336 0.930 . S
H359 C337 0.929 . S
H360 C378 0.951 . S
H361 C380 0.953 . S
H362 C382 0.950 . S
H363 C383 0.950 . S
H364 C385 0.950 . S
H365 C388 0.950 . S
H366 C389 0.950 . S
H367 C391 0.950 . S
H368 C392 0.950 . S
H369 C393 0.951 . S
H370 C395 0.951 . S
H371 C397 0.950 . S
H372 C398 0.950 . S
H373 C400 0.950 . S
H374 C403 0.950 . S
H375 C404 0.950 . S
H376 C406 0.950 . S
H377 C407 0.950 . S
C378 H360 0.951 . S
C378 C379 1.366 1_554 S
C378 C380 1.388 1_554 S
C379 C378 1.366 1_556 S
C379 C383 1.385 . S
C380 H361 0.953 . S
C380 C378 1.388 1_556 S
C380 C381 1.366 . S
C381 C380 1.366 . S
C381 C382 1.414 . S
C381 C384 1.499 . S
C382 H362 0.950 . S
C382 C381 1.414 . S
C382 C383 1.374 . S
C383 H363 0.950 . S
C383 C379 1.385 . S
C383 C382 1.374 . S
C384 C381 1.499 . S
C384 C385 1.373 1_556 S
C384 C386 1.389 . S
C385 H364 0.950 . S
C385 C384 1.373 1_554 S
C385 C401 1.377 . S
C386 C384 1.389 . S
C386 C387 1.524 . S
C386 C400 1.377 . S
C387 C386 1.524 . S
C387 C388 1.397 . S
C387 C392 1.363 . S
C388 H365 0.950 . S
C388 C387 1.397 . S
C388 C389 1.334 . S
C389 H366 0.950 . S
C389 C388 1.334 . S
C389 C390 1.287 . S
C390 C389 1.287 . S
C390 C391 1.524 . S
C390 H409 0.913 . S
C391 H367 0.950 . S
C391 C390 1.524 . S
C391 C392 1.415 . S
C392 H368 0.950 . S
C392 C387 1.363 . S
C392 C391 1.415 . S
C393 H369 0.951 . S
C393 C394 1.366 . S
C393 C395 1.388 . S
C394 C393 1.366 . S
C394 C398 1.385 . S
C395 H370 0.951 . S
C395 C393 1.388 . S
C395 C396 1.366 . S
C396 C395 1.366 . S
C396 C397 1.414 . S
C396 C399 1.499 . S
C397 H371 0.950 . S
C397 C396 1.414 . S
C397 C398 1.374 . S
C398 H372 0.950 . S
C398 C394 1.385 . S
C398 C397 1.374 . S
C399 C396 1.499 . S
C399 C400 1.373 . S
C399 C401 1.389 1_556 S
C400 H373 0.950 . S
C400 C386 1.377 . S
C400 C399 1.373 . S
C401 C385 1.377 . S
C401 C399 1.389 1_554 S
C401 C402 1.524 . S
C402 C401 1.524 . S
C402 C403 1.397 . S
C402 C407 1.363 . S
C403 H374 0.950 . S
C403 C402 1.397 . S
C403 C404 1.334 . S
C404 H375 0.950 . S
C404 C403 1.334 . S
C404 C405 1.287 . S
C405 C404 1.287 . S
C405 C406 1.524 . S
C405 H408 0.999 . S
C406 H376 0.950 . S
C406 C405 1.524 . S
C406 C407 1.415 . S
C407 H377 0.950 . S
C407 C402 1.363 . S
C407 C406 1.415 . S
H408 C405 0.999 . S
H409 C390 0.913 . S
H410 C428 0.951 . S
H411 C430 0.951 . S
H412 C432 0.950 . S
H413 C433 0.950 . S
H414 C435 0.950 . S
H415 C438 0.950 . S
H416 C439 0.950 . S
H417 C441 0.950 . S
H418 C442 0.919 1_556 S
H419 C443 0.951 . S
H420 C445 0.951 . S
H421 C447 0.950 . S
H422 C448 0.950 . S
H423 C450 0.950 . S
H424 C453 0.950 . S
H425 C454 0.950 . S
H426 C456 0.950 . S
H427 C457 0.950 . S
C428 H410 0.951 . S
C428 C429 1.371 . S
C428 C430 1.388 . S
C429 C428 1.371 . S
C429 C433 1.379 1_556 S
C430 H411 0.951 . S
C430 C428 1.388 . S
C430 C431 1.378 . S
C431 C430 1.378 . S
C431 C432 1.403 1_556 S
C431 C434 1.500 . S
C432 H412 0.950 . S
C432 C431 1.403 1_554 S
C432 C433 1.374 . S
C433 H413 0.950 . S
C433 C429 1.379 1_554 S
C433 C432 1.374 . S
C434 C431 1.500 . S
C434 C435 1.373 . S
C434 C436 1.389 1_556 S
C435 H414 0.950 . S
C435 C434 1.373 . S
C435 C451 1.377 . S
C436 C434 1.389 1_554 S
C436 C437 1.524 . S
C436 C450 1.377 . S
C437 C436 1.524 . S
C437 C438 1.397 . S
C437 C442 1.363 . S
C438 H415 0.950 . S
C438 C437 1.397 . S
C438 C439 1.334 . S
C439 H416 0.950 . S
C439 C438 1.334 . S
C439 C440 1.287 . S
C440 C439 1.287 . S
C440 C441 1.524 . S
C440 H459 0.913 . S
C441 H417 0.950 . S
C441 C440 1.524 . S
C441 C442 1.415 . S
C442 H418 0.919 1_554 S
C442 C437 1.363 . S
C442 C441 1.415 . S
C443 H419 0.951 . S
C443 C444 1.366 1_554 S
C443 C445 1.388 . S
C444 C443 1.366 1_556 S
C444 C448 1.385 . S
C445 H420 0.951 . S
C445 C443 1.388 . S
C445 C446 1.366 1_554 S
C446 C445 1.366 1_556 S
C446 C447 1.414 . S
C446 C449 1.499 . S
C447 H421 0.950 . S
C447 C446 1.414 . S
C447 C448 1.374 . S
C448 H422 0.950 . S
C448 C444 1.385 . S
C448 C447 1.374 . S
C449 C446 1.499 . S
C449 C450 1.373 1_556 S
C449 C451 1.389 . S
C450 H423 0.950 . S
C450 C436 1.377 . S
C450 C449 1.373 1_554 S
C451 C435 1.377 . S
C451 C449 1.389 . S
C451 C452 1.524 . S
C452 C451 1.524 . S
C452 C453 1.397 . S
C452 C457 1.363 . S
C453 H424 0.950 . S
C453 C452 1.397 . S
C453 C454 1.334 . S
C454 H425 0.950 . S
C454 C453 1.334 . S
C454 C455 1.287 . S
C455 C454 1.287 . S
C455 C456 1.524 . S
C455 H458 0.999 . S
C456 H426 0.950 . S
C456 C455 1.524 . S
C456 C457 1.415 . S
C457 H427 0.950 . S
C457 C452 1.363 . S
C457 C456 1.415 . S
H458 C455 0.999 . S
H459 C440 0.913 . S
H460 C478 0.951 . S
H461 C480 0.951 . S
H462 C482 0.950 . S
H463 C483 0.950 . S
H464 C485 0.950 . S
H465 C488 0.950 . S
H466 C489 0.950 . S
H467 C491 0.950 . S
H468 C492 0.950 . S
H469 C493 0.951 . S
H470 C495 0.951 . S
H471 C497 0.950 . S
H472 C498 0.950 . S
H473 C500 0.950 . S
H474 C503 0.950 . S
H475 C504 0.950 . S
H476 C506 0.950 . S
H477 C507 0.950 . S
C478 H460 0.951 . S
C478 C479 1.366 . S
C478 C480 1.388 . S
C479 C478 1.366 . S
C479 C483 1.385 1_556 S
C480 H461 0.951 . S
C480 C478 1.388 . S
C480 C481 1.366 . S
C481 C480 1.366 . S
C481 C482 1.414 1_556 S
C481 C484 1.499 . S
C482 H462 0.950 . S
C482 C481 1.414 1_554 S
C482 C483 1.374 . S
C483 H463 0.950 . S
C483 C479 1.385 1_554 S
C483 C482 1.374 . S
C484 C481 1.499 . S
C484 C485 1.373 1_556 S
C484 C486 1.389 . S
C485 H464 0.950 . S
C485 C484 1.373 1_554 S
C485 C501 1.377 . S
C486 C484 1.389 . S
C486 C487 1.524 . S
C486 C500 1.377 . S
C487 C486 1.524 . S
C487 C488 1.397 . S
C487 C492 1.363 . S
C488 H465 0.950 . S
C488 C487 1.397 . S
C488 C489 1.334 . S
C489 H466 0.950 . S
C489 C488 1.334 . S
C489 C490 1.287 . S
C490 C489 1.287 . S
C490 C491 1.524 . S
C490 H509 0.913 . S
C491 H467 0.950 . S
C491 C490 1.524 . S
C491 C492 1.415 . S
C492 H468 0.950 . S
C492 C487 1.363 . S
C492 C491 1.415 . S
C493 H469 0.951 . S
C493 C494 1.359 1_554 S
C493 C495 1.388 . S
C494 C493 1.359 1_556 S
C494 C498 1.392 . S
C495 H470 0.951 . S
C495 C493 1.388 . S
C495 C496 1.346 1_554 S
C496 C495 1.346 1_556 S
C496 C497 1.434 . S
C496 C499 1.501 . S
C497 H471 0.950 . S
C497 C496 1.434 . S
C497 C498 1.374 . S
C498 H472 0.950 . S
C498 C494 1.392 . S
C498 C497 1.374 . S
C499 C496 1.501 . S
C499 C500 1.373 . S
C499 C501 1.389 1_556 S
C500 H473 0.950 . S
C500 C486 1.377 . S
C500 C499 1.373 . S
C501 C485 1.377 . S
C501 C499 1.389 1_554 S
C501 C502 1.524 . S
C502 C501 1.524 . S
C502 C503 1.397 . S
C502 C507 1.363 . S
C503 H474 0.950 . S
C503 C502 1.397 . S
C503 C504 1.334 . S
C504 H475 0.950 . S
C504 C503 1.334 . S
C504 C505 1.287 . S
C505 C504 1.287 . S
C505 C506 1.524 . S
C505 H508 0.999 . S
C506 H476 0.950 . S
C506 C505 1.524 . S
C506 C507 1.415 . S
C507 H477 0.950 . S
C507 C502 1.363 . S
C507 C506 1.415 . S
H508 C505 0.999 . S
H509 C490 0.913 . S
H510 C528 0.951 . S
H511 C530 0.951 . S
H512 C532 0.950 . S
H513 C533 0.950 . S
H514 C535 0.950 . S
H515 C538 0.950 . S
H516 C539 0.950 . S
H517 C541 0.950 . S
H518 C542 0.950 . S
H519 C543 0.951 . S
H520 C545 0.951 . S
H521 C547 0.950 . S
H522 C548 0.950 . S
H523 C550 0.950 . S
H524 C553 0.950 . S
H525 C554 0.950 . S
H526 C556 0.950 . S
H527 C557 0.950 . S
C528 H510 0.951 . S
C528 C529 1.366 1_556 S
C528 C530 1.388 . S
C529 C528 1.366 1_554 S
C529 C533 1.385 . S
C530 H511 0.951 . S
C530 C528 1.388 . S
C530 C531 1.366 1_556 S
C531 C530 1.366 1_554 S
C531 C532 1.414 . S
C531 C534 1.499 . S
C532 H512 0.950 . S
C532 C531 1.414 . S
C532 C533 1.374 . S
C533 H513 0.950 . S
C533 C529 1.385 . S
C533 C532 1.374 . S
C534 C531 1.499 . S
C534 C535 1.373 . S
C534 C536 1.389 1_554 S
C535 H514 0.950 . S
C535 C534 1.373 . S
C535 C551 1.377 . S
C536 C534 1.389 1_556 S
C536 C537 1.524 . S
C536 C550 1.377 . S
C537 C536 1.524 . S
C537 C538 1.397 . S
C537 C542 1.363 . S
C538 H515 0.950 . S
C538 C537 1.397 . S
C538 C539 1.334 . S
C539 H516 0.950 . S
C539 C538 1.334 . S
C539 C540 1.287 . S
C540 C539 1.287 . S
C540 C541 1.524 . S
C540 H559 0.913 . S
C541 H517 0.950 . S
C541 C540 1.524 . S
C541 C542 1.415 . S
C542 H518 0.950 . S
C542 C537 1.363 . S
C542 C541 1.415 . S
C543 H519 0.951 . S
C543 C544 1.366 . S
C543 C545 1.388 . S
C544 C543 1.366 . S
C544 C548 1.385 1_554 S
C545 H520 0.951 . S
C545 C543 1.388 . S
C545 C546 1.366 . S
C546 C545 1.366 . S
C546 C547 1.414 1_554 S
C546 C549 1.499 . S
C547 H521 0.950 . S
C547 C546 1.414 1_556 S
C547 C548 1.374 . S
C548 H522 0.950 . S
C548 C544 1.385 1_556 S
C548 C547 1.374 . S
C549 C546 1.499 . S
C549 C550 1.373 1_554 S
C549 C551 1.389 . S
C550 H523 0.950 . S
C550 C536 1.377 . S
C550 C549 1.373 1_556 S
C551 C535 1.377 . S
C551 C549 1.389 . S
C551 C552 1.524 . S
C552 C551 1.524 . S
C552 C553 1.397 . S
C552 C557 1.363 . S
C553 H524 0.950 . S
C553 C552 1.397 . S
C553 C554 1.334 . S
C554 H525 0.950 . S
C554 C553 1.334 . S
C554 C555 1.287 . S
C555 C554 1.287 . S
C555 C556 1.524 . S
C555 H558 0.999 . S
C556 H526 0.950 . S
C556 C555 1.524 . S
C556 C557 1.415 . S
C557 H527 0.950 . S
C557 C552 1.363 . S
C557 C556 1.415 . S
H558 C555 0.999 . S
H559 C540 0.913 . S
H560 C578 0.951 . S
H561 C580 0.951 . S
H562 C582 0.950 . S
H563 C583 0.950 . S
H564 C585 0.950 . S
H565 C588 0.950 . S
H566 C589 0.950 . S
H567 C591 0.950 . S
H568 C592 0.950 . S
H569 C593 0.951 . S
H570 C595 0.951 . S
H571 C597 0.950 . S
H572 C598 0.950 . S
H573 C600 0.962 . S
H574 C603 0.950 1_556 S
H575 C604 0.930 1_556 S
H576 C606 0.950 . S
H577 C607 0.950 . S
C578 H560 0.951 . S
C578 C579 1.366 1_556 S
C578 C580 1.388 . S
C579 C578 1.366 1_554 S
C579 C583 1.385 . S
C580 H561 0.951 . S
C580 C578 1.388 . S
C580 C581 1.366 1_556 S
C581 C580 1.366 1_554 S
C581 C582 1.414 . S
C581 C584 1.499 . S
C582 H562 0.950 . S
C582 C581 1.414 . S
C582 C583 1.374 . S
C583 H563 0.950 . S
C583 C579 1.385 . S
C583 C582 1.374 . S
C584 C581 1.499 . S
C584 C585 1.373 . S
C584 C586 1.389 . S
C585 H564 0.950 . S
C585 C584 1.373 . S
C585 C601 1.377 . S
C586 C584 1.389 . S
C586 C587 1.524 1_554 S
C586 C600 1.374 1_554 S
C587 C586 1.524 1_556 S
C587 C588 1.397 1_556 S
C587 C592 1.363 . S
C588 H565 0.950 . S
C588 C587 1.397 1_554 S
C588 C589 1.334 . S
C589 H566 0.950 . S
C589 C588 1.334 . S
C589 C590 1.287 1_554 S
C590 C589 1.287 1_556 S
C590 C591 1.524 . S
C590 H609 0.913 . S
C591 H567 0.950 . S
C591 C590 1.524 . S
C591 C592 1.415 . S
C592 H568 0.950 . S
C592 C587 1.363 . S
C592 C591 1.415 . S
C593 H569 0.951 . S
C593 C594 1.366 . S
C593 C595 1.388 . S
C594 C593 1.366 . S
C594 C598 1.385 1_554 S
C595 H570 0.951 . S
C595 C593 1.388 . S
C595 C596 1.366 . S
C596 C595 1.366 . S
C596 C597 1.414 1_554 S
C596 C599 1.499 . S
C597 H571 0.950 . S
C597 C596 1.414 1_556 S
C597 C598 1.374 . S
C598 H572 0.950 . S
C598 C594 1.385 1_556 S
C598 C597 1.374 . S
C599 C596 1.499 . S
C599 C600 1.364 1_554 S
C599 C601 1.389 . S
C600 H573 0.962 . S
C600 C586 1.374 1_556 S
C600 C599 1.364 1_556 S
C601 C585 1.377 . S
C601 C599 1.389 . S
C601 C602 1.524 . S
C602 C601 1.524 . S
C602 C603 1.397 . S
C602 C607 1.363 . S
C603 H574 0.950 1_554 S
C603 C602 1.397 . S
C603 C604 1.334 . S
C604 H575 0.930 1_554 S
C604 C603 1.334 . S
C604 C605 1.287 . S
C605 C604 1.287 . S
C605 C606 1.524 . S
C605 H608 0.999 . S
C606 H576 0.950 . S
C606 C605 1.524 . S
C606 C607 1.415 . S
C607 H577 0.950 . S
C607 C602 1.363 . S
C607 C606 1.415 . S
H608 C605 0.999 . S
H609 C590 0.913 . S
H610 C628 0.951 . S
H611 C630 0.951 . S
H612 C632 0.950 . S
H613 C633 0.950 . S
H614 C635 0.950 . S
H615 C638 0.950 . S
H616 C639 0.950 . S
H617 C641 0.950 . S
H618 C642 0.950 . S
H619 C643 0.945 1_556 S
H620 C645 0.951 1_556 S
H621 C647 0.950 . S
H622 C648 0.950 . S
H623 C650 0.950 . S
H624 C653 0.950 . S
H625 C654 0.950 . S
H626 C656 0.950 . S
H627 C657 0.950 . S
C628 H610 0.951 . S
C628 C629 1.366 . S
C628 C630 1.388 . S
C629 C628 1.366 . S
C629 C633 1.385 . S
C630 H611 0.951 . S
C630 C628 1.388 . S
C630 C631 1.366 . S
C631 C630 1.366 . S
C631 C632 1.414 . S
C631 C634 1.499 . S
C632 H612 0.950 . S
C632 C631 1.414 . S
C632 C633 1.374 . S
C633 H613 0.950 . S
C633 C629 1.385 . S
C633 C632 1.374 . S
C634 C631 1.499 . S
C634 C635 1.373 . S
C634 C636 1.389 1_554 S
C635 H614 0.950 . S
C635 C634 1.373 . S
C635 C651 1.377 . S
C636 C634 1.389 1_556 S
C636 C637 1.524 . S
C636 C650 1.377 . S
C637 C636 1.524 . S
C637 C638 1.397 . S
C637 C642 1.363 . S
C638 H615 0.950 . S
C638 C637 1.397 . S
C638 C639 1.334 . S
C639 H616 0.950 . S
C639 C638 1.334 . S
C639 C640 1.287 . S
C640 C639 1.287 . S
C640 C641 1.524 . S
C640 H659 0.913 . S
C641 H617 0.950 . S
C641 C640 1.524 . S
C641 C642 1.415 . S
C642 H618 0.950 . S
C642 C637 1.363 . S
C642 C641 1.415 . S
C643 H619 0.945 1_554 S
C643 C644 1.371 . S
C643 C645 1.389 . S
C644 C643 1.371 . S
C644 C648 1.385 . S
C645 H620 0.951 1_554 S
C645 C643 1.389 . S
C645 C646 1.366 . S
C646 C645 1.366 . S
C646 C647 1.414 . S
C646 C649 1.499 . S
C647 H621 0.950 . S
C647 C646 1.414 . S
C647 C648 1.374 . S
C648 H622 0.950 . S
C648 C644 1.385 . S
C648 C647 1.374 . S
C649 C646 1.499 . S
C649 C650 1.373 1_554 S
C649 C651 1.389 . S
C650 H623 0.950 . S
C650 C636 1.377 . S
C650 C649 1.373 1_556 S
C651 C635 1.377 . S
C651 C649 1.389 . S
C651 C652 1.524 . S
C652 C651 1.524 . S
C652 C653 1.397 . S
C652 C657 1.363 . S
C653 H624 0.950 . S
C653 C652 1.397 . S
C653 C654 1.334 . S
C654 H625 0.950 . S
C654 C653 1.334 . S
C654 C655 1.287 . S
C655 C654 1.287 . S
C655 C656 1.524 . S
C655 H658 0.999 . S
C656 H626 0.950 . S
C656 C655 1.524 . S
C656 C657 1.415 . S
C657 H627 0.950 . S
C657 C652 1.363 . S
C657 C656 1.415 . S
H658 C655 0.999 . S
H659 C640 0.913 . S
H660 C678 0.951 . S
H661 C680 0.951 . S
H662 C682 0.950 . S
H663 C683 0.950 . S
H664 C685 0.950 . S
H665 C688 0.950 . S
H666 C689 0.950 . S
H667 C691 0.950 . S
H668 C692 0.950 . S
H669 C693 0.951 . S
H670 C695 0.951 . S
H671 C697 0.950 . S
H672 C698 0.950 . S
H673 C700 0.950 . S
H674 C703 0.950 . S
H675 C704 0.950 . S
H676 C706 0.950 . S
H677 C707 0.950 . S
C678 H660 0.951 . S
C678 C679 1.366 . S
C678 C680 1.388 . S
C679 C678 1.366 . S
C679 C683 1.385 . S
C680 H661 0.951 . S
C680 C678 1.388 . S
C680 C681 1.366 . S
C681 C680 1.366 . S
C681 C682 1.414 . S
C681 C684 1.499 . S
C682 H662 0.950 . S
C682 C681 1.414 . S
C682 C683 1.374 . S
C683 H663 0.950 . S
C683 C679 1.385 . S
C683 C682 1.374 . S
C684 C681 1.499 . S
C684 C685 1.373 . S
C684 C686 1.389 . S
C685 H664 0.950 . S
C685 C684 1.373 . S
C685 C701 1.377 1_655 S
C686 C684 1.389 . S
C686 C687 1.524 . S
C686 C700 1.377 1_655 S
C687 C686 1.524 . S
C687 C688 1.397 . S
C687 C692 1.363 . S
C688 H665 0.950 . S
C688 C687 1.397 . S
C688 C689 1.334 . S
C689 H666 0.950 . S
C689 C688 1.334 . S
C689 C690 1.287 . S
C690 C689 1.287 . S
C690 C691 1.524 . S
C690 H709 0.913 . S
C691 H667 0.950 . S
C691 C690 1.524 . S
C691 C692 1.415 . S
C692 H668 0.950 . S
C692 C687 1.363 . S
C692 C691 1.415 . S
C693 H669 0.951 . S
C693 C694 1.366 . S
C693 C695 1.388 . S
C694 C693 1.366 . S
C694 C698 1.385 . S
C695 H670 0.951 . S
C695 C693 1.388 . S
C695 C696 1.366 . S
C696 C695 1.366 . S
C696 C697 1.414 . S
C696 C699 1.499 . S
C697 H671 0.950 . S
C697 C696 1.414 . S
C697 C698 1.374 . S
C698 H672 0.950 . S
C698 C694 1.385 . S
C698 C697 1.374 . S
C699 C696 1.499 . S
C699 C700 1.373 . S
C699 C701 1.389 . S
C700 H673 0.950 . S
C700 C686 1.377 1_455 S
C700 C699 1.373 . S
C701 C685 1.377 1_455 S
C701 C699 1.389 . S
C701 C702 1.524 . S
C702 C701 1.524 . S
C702 C703 1.397 . S
C702 C707 1.363 . S
C703 H674 0.950 . S
C703 C702 1.397 . S
C703 C704 1.334 . S
C704 H675 0.950 . S
C704 C703 1.334 . S
C704 C705 1.287 . S
C705 C704 1.287 . S
C705 C706 1.524 . S
C705 H708 0.999 . S
C706 H676 0.950 . S
C706 C705 1.524 . S
C706 C707 1.415 . S
C707 H677 0.950 . S
C707 C702 1.363 . S
C707 C706 1.415 . S
H708 C705 0.999 . S
H709 C690 0.913 . S
H710 C728 0.951 . S
H711 C730 0.951 . S
H712 C732 0.950 . S
H713 C733 0.950 . S
H714 C735 0.950 . S
H715 C738 0.950 . S
H716 C739 0.950 . S
H717 C741 0.950 . S
H718 C742 0.950 . S
H719 C743 0.951 . S
H720 C745 0.951 . S
H721 C747 0.950 . S
H722 C748 0.950 . S
H723 C750 0.950 . S
H724 C753 0.950 . S
H725 C754 0.950 . S
H726 C756 0.950 . S
H727 C757 0.950 . S
C728 H710 0.951 . S
C728 C729 1.366 . S
C728 C730 1.388 . S
C729 C728 1.366 . S
C729 C733 1.385 . S
C730 H711 0.951 . S
C730 C728 1.388 . S
C730 C731 1.366 . S
C731 C730 1.366 . S
C731 C732 1.414 . S
C731 C734 1.499 . S
C732 H712 0.950 . S
C732 C731 1.414 . S
C732 C733 1.374 . S
C733 H713 0.950 . S
C733 C729 1.385 . S
C733 C732 1.374 . S
C734 C731 1.499 . S
C734 C735 1.373 . S
C734 C736 1.389 . S
C735 H714 0.950 . S
C735 C734 1.373 . S
C735 C751 1.377 . S
C736 C734 1.389 . S
C736 C737 1.524 . S
C736 C750 1.377 . S
C737 C736 1.524 . S
C737 C738 1.397 . S
C737 C742 1.363 . S
C738 H715 0.950 . S
C738 C737 1.397 . S
C738 C739 1.334 . S
C739 H716 0.950 . S
C739 C738 1.334 . S
C739 C740 1.287 . S
C740 C739 1.287 . S
C740 C741 1.524 . S
C740 H759 0.913 . S
C741 H717 0.950 . S
C741 C740 1.524 . S
C741 C742 1.415 . S
C742 H718 0.950 . S
C742 C737 1.363 . S
C742 C741 1.415 . S
C743 H719 0.951 . S
C743 C744 1.366 . S
C743 C745 1.388 . S
C744 C743 1.366 . S
C744 C748 1.385 . S
C745 H720 0.951 . S
C745 C743 1.388 . S
C745 C746 1.366 . S
C746 C745 1.366 . S
C746 C747 1.414 . S
C746 C749 1.499 . S
C747 H721 0.950 . S
C747 C746 1.414 . S
C747 C748 1.374 . S
C748 H722 0.950 . S
C748 C744 1.385 . S
C748 C747 1.374 . S
C749 C746 1.499 . S
C749 C750 1.373 . S
C749 C751 1.389 . S
C750 H723 0.950 . S
C750 C736 1.377 . S
C750 C749 1.373 . S
C751 C735 1.377 . S
C751 C749 1.389 . S
C751 C752 1.524 . S
C752 C751 1.524 . S
C752 C753 1.397 . S
C752 C757 1.363 . S
C753 H724 0.950 . S
C753 C752 1.397 . S
C753 C754 1.334 . S
C754 H725 0.950 . S
C754 C753 1.334 . S
C754 C755 1.287 . S
C755 C754 1.287 . S
C755 C756 1.524 . S
C755 H758 0.999 . S
C756 H726 0.950 . S
C756 C755 1.524 . S
C756 C757 1.415 . S
C757 H727 0.950 . S
C757 C752 1.363 . S
C757 C756 1.415 . S
H758 C755 0.999 . S
H759 C740 0.913 . S
H760 C778 0.951 . S
H761 C780 0.951 . S
H762 C782 0.950 . S
H763 C783 0.950 . S
H764 C785 0.950 . S
H765 C788 0.950 . S
H766 C789 0.950 . S
H767 C791 0.950 . S
H768 C792 0.950 1_565 S
H769 C793 0.951 . S
H770 C795 0.951 . S
H771 C797 0.950 . S
H772 C798 0.950 . S
H773 C800 0.950 . S
H774 C803 0.950 . S
H775 C804 0.950 . S
H776 C806 0.950 . S
H777 C807 0.950 . S
C778 H760 0.951 . S
C778 C779 1.366 . S
C778 C780 1.388 . S
C779 C778 1.366 . S
C779 C783 1.385 . S
C780 H761 0.951 . S
C780 C778 1.388 . S
C780 C781 1.366 . S
C781 C780 1.366 . S
C781 C782 1.414 . S
C781 C784 1.499 . S
C782 H762 0.950 . S
C782 C781 1.414 . S
C782 C783 1.374 . S
C783 H763 0.950 . S
C783 C779 1.385 . S
C783 C782 1.374 . S
C784 C781 1.499 . S
C784 C785 1.373 . S
C784 C786 1.389 . S
C785 H764 0.950 . S
C785 C784 1.373 . S
C785 C801 1.377 1_545 S
C786 C784 1.389 . S
C786 C787 1.524 . S
C786 C800 1.377 1_545 S
C787 C786 1.524 . S
C787 C788 1.397 . S
C787 C792 1.363 . S
C788 H765 0.950 . S
C788 C787 1.397 . S
C788 C789 1.334 . S
C789 H766 0.950 . S
C789 C788 1.334 . S
C789 C790 1.287 . S
C790 C789 1.287 . S
C790 C791 1.524 . S
C790 H809 0.913 . S
C791 H767 0.950 . S
C791 C790 1.524 . S
C791 C792 1.415 . S
C792 H768 0.950 1_545 S
C792 C787 1.363 . S
C792 C791 1.415 . S
C793 H769 0.951 . S
C793 C794 1.366 . S
C793 C795 1.388 . S
C794 C793 1.366 . S
C794 C798 1.385 . S
C795 H770 0.951 . S
C795 C793 1.388 . S
C795 C796 1.366 . S
C796 C795 1.366 . S
C796 C797 1.414 . S
C796 C799 1.499 . S
C797 H771 0.950 . S
C797 C796 1.414 . S
C797 C798 1.374 . S
C798 H772 0.950 . S
C798 C794 1.385 . S
C798 C797 1.374 . S
C799 C796 1.499 . S
C799 C800 1.373 . S
C799 C801 1.389 . S
C800 H773 0.950 . S
C800 C786 1.377 1_565 S
C800 C799 1.373 . S
C801 C785 1.377 1_565 S
C801 C799 1.389 . S
C801 C802 1.524 . S
C802 C801 1.524 . S
C802 C803 1.397 . S
C802 C807 1.363 . S
C803 H774 0.950 . S
C803 C802 1.397 . S
C803 C804 1.334 . S
C804 H775 0.950 . S
C804 C803 1.334 . S
C804 C805 1.287 . S
C805 C804 1.287 . S
C805 C806 1.524 . S
C805 H808 0.999 . S
C806 H776 0.950 . S
C806 C805 1.524 . S
C806 C807 1.415 . S
C807 H777 0.950 . S
C807 C802 1.363 . S
C807 C806 1.415 . S
H808 C805 0.999 . S
H809 C790 0.913 . S
H810 C828 0.951 . S
H811 C830 0.951 . S
H812 C832 0.950 . S
H813 C833 0.950 . S
H814 C835 0.950 . S
H815 C838 0.950 . S
H816 C839 0.950 . S
H817 C841 0.950 . S
H818 C842 0.950 . S
H819 C843 0.951 . S
H820 C845 0.951 . S
H821 C847 0.950 . S
H822 C848 0.950 . S
H823 C850 0.950 . S
H824 C853 0.950 . S
H825 C854 0.950 . S
H826 C856 0.950 . S
H827 C857 0.950 . S
C828 H810 0.951 . S
C828 C829 1.366 . S
C828 C830 1.388 . S
C829 C828 1.366 . S
C829 C833 1.385 . S
C830 H811 0.951 . S
C830 C828 1.388 . S
C830 C831 1.366 . S
C831 C830 1.366 . S
C831 C832 1.414 . S
C831 C834 1.499 . S
C832 H812 0.950 . S
C832 C831 1.414 . S
C832 C833 1.374 . S
C833 H813 0.950 . S
C833 C829 1.385 . S
C833 C832 1.374 . S
C834 C831 1.499 . S
C834 C835 1.373 . S
C834 C836 1.389 . S
C835 H814 0.950 . S
C835 C834 1.373 . S
C835 C851 1.377 . S
C836 C834 1.389 . S
C836 C837 1.524 . S
C836 C850 1.377 . S
C837 C836 1.524 . S
C837 C838 1.397 . S
C837 C842 1.363 . S
C838 H815 0.950 . S
C838 C837 1.397 . S
C838 C839 1.334 . S
C839 H816 0.950 . S
C839 C838 1.334 . S
C839 C840 1.287 . S
C840 C839 1.287 . S
C840 C841 1.524 . S
C840 H859 0.913 . S
C841 H817 0.950 . S
C841 C840 1.524 . S
C841 C842 1.415 . S
C842 H818 0.950 . S
C842 C837 1.363 . S
C842 C841 1.415 . S
C843 H819 0.951 . S
C843 C844 1.366 . S
C843 C845 1.388 . S
C844 C843 1.366 . S
C844 C848 1.385 . S
C845 H820 0.951 . S
C845 C843 1.388 . S
C845 C846 1.366 . S
C846 C845 1.366 . S
C846 C847 1.414 . S
C846 C849 1.499 . S
C847 H821 0.950 . S
C847 C846 1.414 . S
C847 C848 1.374 . S
C848 H822 0.950 . S
C848 C844 1.385 . S
C848 C847 1.374 . S
C849 C846 1.499 . S
C849 C850 1.373 . S
C849 C851 1.389 . S
C850 H823 0.950 . S
C850 C836 1.377 . S
C850 C849 1.373 . S
C851 C835 1.377 . S
C851 C849 1.389 . S
C851 C852 1.524 . S
C852 C851 1.524 . S
C852 C853 1.397 . S
C852 C857 1.363 . S
C853 H824 0.950 . S
C853 C852 1.397 . S
C853 C854 1.334 . S
C854 H825 0.950 . S
C854 C853 1.334 . S
C854 C855 1.287 . S
C855 C854 1.287 . S
C855 C856 1.524 . S
C855 H858 0.999 . S
C856 H826 0.950 . S
C856 C855 1.524 . S
C856 C857 1.415 . S
C857 H827 0.950 . S
C857 C852 1.363 . S
C857 C856 1.415 . S
H858 C855 0.999 . S
H859 C840 0.913 . S
H860 C878 0.951 . S
H861 C880 0.951 . S
H862 C882 0.950 . S
H863 C883 0.950 . S
H864 C885 0.950 . S
H865 C888 0.950 . S
H866 C889 0.950 . S
H867 C891 0.950 . S
H868 C892 0.950 . S
H869 C893 0.951 . S
H870 C895 0.951 . S
H871 C897 0.950 . S
H872 C898 0.950 . S
H873 C900 0.950 . S
H874 C903 0.950 . S
H875 C904 0.950 . S
H876 C906 0.950 . S
H877 C907 0.950 . S
C878 H860 0.951 . S
C878 C879 1.366 . S
C878 C880 1.388 . S
C879 C878 1.366 . S
C879 C883 1.385 . S
C880 H861 0.951 . S
C880 C878 1.388 . S
C880 C881 1.366 . S
C881 C880 1.366 . S
C881 C882 1.414 . S
C881 C884 1.499 . S
C882 H862 0.950 . S
C882 C881 1.414 . S
C882 C883 1.374 . S
C883 H863 0.950 . S
C883 C879 1.385 . S
C883 C882 1.374 . S
C884 C881 1.499 . S
C884 C885 1.373 . S
C884 C886 1.389 . S
C885 H864 0.950 . S
C885 C884 1.373 . S
C885 C901 1.377 . S
C886 C884 1.389 . S
C886 C887 1.524 . S
C886 C900 1.377 . S
C887 C886 1.524 . S
C887 C888 1.397 . S
C887 C892 1.363 . S
C888 H865 0.950 . S
C888 C887 1.397 . S
C888 C889 1.334 . S
C889 H866 0.950 . S
C889 C888 1.334 . S
C889 C890 1.287 . S
C890 C889 1.287 . S
C890 C891 1.524 . S
C890 H909 0.913 . S
C891 H867 0.950 . S
C891 C890 1.524 . S
C891 C892 1.415 . S
C892 H868 0.950 . S
C892 C887 1.363 . S
C892 C891 1.415 . S
C893 H869 0.951 . S
C893 C894 1.366 . S
C893 C895 1.388 . S
C894 C893 1.366 . S
C894 C898 1.385 . S
C895 H870 0.951 . S
C895 C893 1.388 . S
C895 C896 1.366 . S
C896 C895 1.366 . S
C896 C897 1.414 . S
C896 C899 1.499 . S
C897 H871 0.950 . S
C897 C896 1.414 . S
C897 C898 1.374 . S
C898 H872 0.950 . S
C898 C894 1.385 . S
C898 C897 1.374 . S
C899 C896 1.499 . S
C899 C900 1.373 . S
C899 C901 1.389 . S
C900 H873 0.950 . S
C900 C886 1.377 . S
C900 C899 1.373 . S
C901 C885 1.377 . S
C901 C899 1.389 . S
C901 C902 1.524 . S
C902 C901 1.524 . S
C902 C903 1.397 . S
C902 C907 1.363 . S
C903 H874 0.950 . S
C903 C902 1.397 . S
C903 C904 1.334 . S
C904 H875 0.950 . S
C904 C903 1.334 . S
C904 C905 1.287 . S
C905 C904 1.287 . S
C905 C906 1.524 . S
C905 H908 0.999 . S
C906 H876 0.950 . S
C906 C905 1.524 . S
C906 C907 1.415 . S
C907 H877 0.950 . S
C907 C902 1.363 . S
C907 C906 1.415 . S
H908 C905 0.999 . S
H909 C890 0.913 . S
H910 C928 0.951 . S
H911 C930 0.951 . S
H912 C932 0.950 . S
H913 C933 0.950 . S
H914 C935 0.950 . S
H915 C938 0.950 . S
H916 C939 0.950 . S
H917 C941 0.950 . S
H918 C942 0.950 . S
H919 C943 0.951 . S
H920 C945 0.951 . S
H921 C947 0.950 . S
H922 C948 0.950 . S
H923 C950 0.950 . S
H924 C953 0.950 . S
H925 C954 0.950 . S
H926 C956 0.950 . S
H927 C957 0.950 . S
C928 H910 0.951 . S
C928 C929 1.366 . S
C928 C930 1.388 . S
C929 C928 1.366 . S
C929 C933 1.385 . S
C930 H911 0.951 . S
C930 C928 1.388 . S
C930 C931 1.366 . S
C931 C930 1.366 . S
C931 C932 1.414 . S
C931 C934 1.499 . S
C932 H912 0.950 . S
C932 C931 1.414 . S
C932 C933 1.374 . S
C933 H913 0.950 . S
C933 C929 1.385 . S
C933 C932 1.374 . S
C934 C931 1.499 . S
C934 C935 1.373 . S
C934 C936 1.389 . S
C935 H914 0.950 . S
C935 C934 1.373 . S
C935 C951 1.377 . S
C936 C934 1.389 . S
C936 C937 1.524 . S
C936 C950 1.377 . S
C937 C936 1.524 . S
C937 C938 1.397 . S
C937 C942 1.363 . S
C938 H915 0.950 . S
C938 C937 1.397 . S
C938 C939 1.334 . S
C939 H916 0.950 . S
C939 C938 1.334 . S
C939 C940 1.287 . S
C940 C939 1.287 . S
C940 C941 1.524 . S
C940 H959 0.913 . S
C941 H917 0.950 . S
C941 C940 1.524 . S
C941 C942 1.415 . S
C942 H918 0.950 . S
C942 C937 1.363 . S
C942 C941 1.415 . S
C943 H919 0.951 . S
C943 C944 1.366 . S
C943 C945 1.388 . S
C944 C943 1.366 . S
C944 C948 1.385 . S
C945 H920 0.951 . S
C945 C943 1.388 . S
C945 C946 1.366 . S
C946 C945 1.366 . S
C946 C947 1.414 . S
C946 C949 1.499 . S
C947 H921 0.950 . S
C947 C946 1.414 . S
C947 C948 1.374 . S
C948 H922 0.950 . S
C948 C944 1.385 . S
C948 C947 1.374 . S
C949 C946 1.499 . S
C949 C950 1.373 . S
C949 C951 1.389 . S
C950 H923 0.950 . S
C950 C936 1.377 . S
C950 C949 1.373 . S
C951 C935 1.377 . S
C951 C949 1.389 . S
C951 C952 1.524 . S
C952 C951 1.524 . S
C952 C953 1.397 . S
C952 C957 1.363 . S
C953 H924 0.950 . S
C953 C952 1.397 . S
C953 C954 1.334 . S
C954 H925 0.950 . S
C954 C953 1.334 . S
C954 C955 1.287 . S
C955 C954 1.287 . S
C955 C956 1.524 . S
C955 H958 0.999 . S
C956 H926 0.950 . S
C956 C955 1.524 . S
C956 C957 1.415 . S
C957 H927 0.950 . S
C957 C952 1.363 . S
C957 C956 1.415 . S
H958 C955 0.999 . S
H959 C940 0.913 . S
H960 C978 0.951 . S
H961 C980 0.951 . S
H962 C982 0.950 . S
H963 C983 0.950 . S
H964 C985 0.950 . S
H965 C988 0.950 . S
H966 C989 0.950 . S
H967 C991 0.950 . S
H968 C992 0.950 . S
H969 C993 0.951 . S
H970 C995 0.951 . S
H971 C997 0.950 . S
H972 C998 0.950 . S
H973 C1000 0.950 . S
H974 C1003 0.950 . S
H975 C1004 0.950 . S
H976 C1006 0.950 . S
H977 C1007 0.950 . S
C978 H960 0.951 . S
C978 C979 1.366 . S
C978 C980 1.388 . S
C979 C978 1.366 . S
C979 C983 1.385 . S
C980 H961 0.951 . S
C980 C978 1.388 . S
C980 C981 1.366 . S
C981 C980 1.366 . S
C981 C982 1.414 . S
C981 C984 1.499 . S
C982 H962 0.950 . S
C982 C981 1.414 . S
C982 C983 1.374 . S
C983 H963 0.950 . S
C983 C979 1.385 . S
C983 C982 1.374 . S
C984 C981 1.499 . S
C984 C985 1.373 . S
C984 C986 1.389 . S
C985 H964 0.950 . S
C985 C984 1.373 . S
C985 C1001 1.377 . S
C986 C984 1.389 . S
C986 C987 1.524 . S
C986 C1000 1.377 . S
C987 C986 1.524 . S
C987 C988 1.397 . S
C987 C992 1.363 . S
C988 H965 0.950 . S
C988 C987 1.397 . S
C988 C989 1.334 . S
C989 H966 0.950 . S
C989 C988 1.334 . S
C989 C990 1.287 . S
C990 C989 1.287 . S
C990 C991 1.524 . S
C990 H1009 0.913 . S
C991 H967 0.950 . S
C991 C990 1.524 . S
C991 C992 1.415 . S
C992 H968 0.950 . S
C992 C987 1.363 . S
C992 C991 1.415 . S
C993 H969 0.951 . S
C993 C994 1.366 . S
C993 C995 1.388 . S
C994 C993 1.366 . S
C994 C998 1.385 . S
C995 H970 0.951 . S
C995 C993 1.388 . S
C995 C996 1.366 . S
C996 C995 1.366 . S
C996 C997 1.414 . S
C996 C999 1.499 . S
C997 H971 0.950 . S
C997 C996 1.414 . S
C997 C998 1.374 . S
C998 H972 0.950 . S
C998 C994 1.385 . S
C998 C997 1.374 . S
C999 C996 1.499 . S
C999 C1000 1.373 . S
C999 C1001 1.389 . S
C1000 H973 0.950 . S
C1000 C986 1.377 . S
C1000 C999 1.373 . S
C1001 C985 1.377 . S
C1001 C999 1.389 . S
C1001 C1002 1.524 . S
C1002 C1001 1.524 . S
C1002 C1003 1.397 . S
C1002 C1007 1.363 . S
C1003 H974 0.950 . S
C1003 C1002 1.397 . S
C1003 C1004 1.334 . S
C1004 H975 0.950 . S
C1004 C1003 1.334 . S
C1004 C1005 1.287 . S
C1005 C1004 1.287 . S
C1005 C1006 1.524 . S
C1005 H1008 0.999 . S
C1006 H976 0.950 . S
C1006 C1005 1.524 . S
C1006 C1007 1.415 . S
C1007 H977 0.950 . S
C1007 C1002 1.363 . S
C1007 C1006 1.415 . S
H1008 C1005 0.999 . S
H1009 C990 0.913 . S
H1010 C1028 0.951 . S
H1011 C1030 0.951 . S
H1012 C1032 0.950 . S
H1013 C1033 0.950 . S
H1014 C1035 0.950 . S
H1015 C1038 0.950 . S
H1016 C1039 0.950 . S
H1017 C1041 0.950 . S
H1018 C1042 0.950 . S
H1019 C1043 0.951 . S
H1020 C1045 0.951 . S
H1021 C1047 0.950 . S
H1022 C1048 0.950 . S
H1023 C1050 0.950 . S
H1024 C1053 0.950 . S
H1025 C1054 0.950 . S
H1026 C1056 0.950 . S
H1027 C1057 0.950 . S
C1028 H1010 0.951 . S
C1028 C1029 1.366 . S
C1028 C1030 1.388 . S
C1029 C1028 1.366 . S
C1029 C1033 1.385 . S
C1030 H1011 0.951 . S
C1030 C1028 1.388 . S
C1030 C1031 1.366 . S
C1031 C1030 1.366 . S
C1031 C1032 1.414 . S
C1031 C1034 1.499 . S
C1032 H1012 0.950 . S
C1032 C1031 1.414 . S
C1032 C1033 1.374 . S
C1033 H1013 0.950 . S
C1033 C1029 1.385 . S
C1033 C1032 1.374 . S
C1034 C1031 1.499 . S
C1034 C1035 1.373 . S
C1034 C1036 1.389 . S
C1035 H1014 0.950 . S
C1035 C1034 1.373 . S
C1035 C1051 1.377 . S
C1036 C1034 1.389 . S
C1036 C1037 1.524 . S
C1036 C1050 1.377 . S
C1037 C1036 1.524 . S
C1037 C1038 1.397 . S
C1037 C1042 1.363 . S
C1038 H1015 0.950 . S
C1038 C1037 1.397 . S
C1038 C1039 1.334 . S
C1039 H1016 0.950 . S
C1039 C1038 1.334 . S
C1039 C1040 1.287 . S
C1040 C1039 1.287 . S
C1040 C1041 1.524 . S
C1040 H1059 0.913 . S
C1041 H1017 0.950 . S
C1041 C1040 1.524 . S
C1041 C1042 1.415 . S
C1042 H1018 0.950 . S
C1042 C1037 1.363 . S
C1042 C1041 1.415 . S
C1043 H1019 0.951 . S
C1043 C1044 1.366 . S
C1043 C1045 1.388 . S
C1044 C1043 1.366 . S
C1044 C1048 1.385 . S
C1045 H1020 0.951 . S
C1045 C1043 1.388 . S
C1045 C1046 1.366 . S
C1046 C1045 1.366 . S
C1046 C1047 1.414 . S
C1046 C1049 1.499 . S
C1047 H1021 0.950 . S
C1047 C1046 1.414 . S
C1047 C1048 1.374 . S
C1048 H1022 0.950 . S
C1048 C1044 1.385 . S
C1048 C1047 1.374 . S
C1049 C1046 1.499 . S
C1049 C1050 1.373 . S
C1049 C1051 1.389 . S
C1050 H1023 0.950 . S
C1050 C1036 1.377 . S
C1050 C1049 1.373 . S
C1051 C1035 1.377 . S
C1051 C1049 1.389 . S
C1051 C1052 1.524 . S
C1052 C1051 1.524 . S
C1052 C1053 1.397 . S
C1052 C1057 1.363 . S
C1053 H1024 0.950 . S
C1053 C1052 1.397 . S
C1053 C1054 1.334 . S
C1054 H1025 0.950 . S
C1054 C1053 1.334 . S
C1054 C1055 1.287 . S
C1055 C1054 1.287 . S
C1055 C1056 1.524 . S
C1055 H1058 0.999 . S
C1056 H1026 0.950 . S
C1056 C1055 1.524 . S
C1056 C1057 1.415 . S
C1057 H1027 0.950 . S
C1057 C1052 1.363 . S
C1057 C1056 1.415 . S
H1058 C1055 0.999 . S
H1059 C1040 0.913 . S
H1060 C1078 0.951 . S
H1061 C1080 0.951 . S
H1062 C1082 0.950 . S
H1063 C1083 0.950 . S
H1064 C1085 0.950 . S
H1065 C1088 0.950 . S
H1066 C1089 0.950 . S
H1067 C1091 0.950 . S
H1068 C1092 0.950 . S
H1069 C1093 0.951 . S
H1070 C1095 0.951 . S
H1071 C1097 0.950 . S
H1072 C1098 0.950 . S
H1073 C1100 0.950 . S
H1074 C1103 0.950 . S
H1075 C1104 0.950 . S
H1076 C1106 0.950 . S
H1077 C1107 0.950 . S
C1078 H1060 0.951 . S
C1078 C1079 1.366 . S
C1078 C1080 1.388 . S
C1079 C1078 1.366 . S
C1079 C1083 1.385 . S
C1080 H1061 0.951 . S
C1080 C1078 1.388 . S
C1080 C1081 1.366 . S
C1081 C1080 1.366 . S
C1081 C1082 1.414 . S
C1081 C1084 1.499 . S
C1082 H1062 0.950 . S
C1082 C1081 1.414 . S
C1082 C1083 1.374 . S
C1083 H1063 0.950 . S
C1083 C1079 1.385 . S
C1083 C1082 1.374 . S
C1084 C1081 1.499 . S
C1084 C1085 1.373 . S
C1084 C1086 1.389 . S
C1085 H1064 0.950 . S
C1085 C1084 1.373 . S
C1085 C1101 1.377 . S
C1086 C1084 1.389 . S
C1086 C1087 1.524 . S
C1086 C1100 1.377 . S
C1087 C1086 1.524 . S
C1087 C1088 1.397 . S
C1087 C1092 1.363 . S
C1088 H1065 0.950 . S
C1088 C1087 1.397 . S
C1088 C1089 1.334 . S
C1089 H1066 0.950 . S
C1089 C1088 1.334 . S
C1089 C1090 1.287 . S
C1090 C1089 1.287 . S
C1090 C1091 1.524 . S
C1090 H1109 0.913 . S
C1091 H1067 0.950 . S
C1091 C1090 1.524 . S
C1091 C1092 1.415 . S
C1092 H1068 0.950 . S
C1092 C1087 1.363 . S
C1092 C1091 1.415 . S
C1093 H1069 0.951 . S
C1093 C1094 1.366 . S
C1093 C1095 1.388 . S
C1094 C1093 1.366 . S
C1094 C1098 1.385 . S
C1095 H1070 0.951 . S
C1095 C1093 1.388 . S
C1095 C1096 1.366 . S
C1096 C1095 1.366 . S
C1096 C1097 1.414 . S
C1096 C1099 1.499 . S
C1097 H1071 0.950 . S
C1097 C1096 1.414 . S
C1097 C1098 1.374 . S
C1098 H1072 0.950 . S
C1098 C1094 1.385 . S
C1098 C1097 1.374 . S
C1099 C1096 1.499 . S
C1099 C1100 1.373 . S
C1099 C1101 1.389 . S
C1100 H1073 0.950 . S
C1100 C1086 1.377 . S
C1100 C1099 1.373 . S
C1101 C1085 1.377 . S
C1101 C1099 1.389 . S
C1101 C1102 1.524 . S
C1102 C1101 1.524 . S
C1102 C1103 1.397 . S
C1102 C1107 1.363 . S
C1103 H1074 0.950 . S
C1103 C1102 1.397 . S
C1103 C1104 1.334 . S
C1104 H1075 0.950 . S
C1104 C1103 1.334 . S
C1104 C1105 1.287 . S
C1105 C1104 1.287 . S
C1105 C1106 1.524 . S
C1105 H1108 0.999 . S
C1106 H1076 0.950 . S
C1106 C1105 1.524 . S
C1106 C1107 1.415 . S
C1107 H1077 0.950 . S
C1107 C1102 1.363 . S
C1107 C1106 1.415 . S
H1108 C1105 0.999 . S
H1109 C1090 0.913 . S
H1110 C1128 0.951 . S
H1111 C1130 0.951 . S
H1112 C1132 0.950 . S
H1113 C1133 0.950 . S
H1114 C1135 0.950 . S
H1115 C1138 0.950 . S
H1116 C1139 0.950 . S
H1117 C1141 0.950 . S
H1118 C1142 0.950 . S
H1119 C1143 0.951 . S
H1120 C1145 0.951 . S
H1121 C1147 0.950 . S
H1122 C1148 0.950 1_545 S
H1123 C1150 0.950 . S
H1124 C1153 0.950 . S
H1125 C1154 0.950 . S
H1126 C1156 0.950 . S
H1127 C1157 0.950 . S
C1128 H1110 0.951 . S
C1128 C1129 1.366 . S
C1128 C1130 1.388 . S
C1129 C1128 1.366 . S
C1129 C1133 1.385 . S
C1130 H1111 0.951 . S
C1130 C1128 1.388 . S
C1130 C1131 1.366 . S
C1131 C1130 1.366 . S
C1131 C1132 1.414 . S
C1131 C1134 1.499 . S
C1132 H1112 0.950 . S
C1132 C1131 1.414 . S
C1132 C1133 1.374 . S
C1133 H1113 0.950 . S
C1133 C1129 1.385 . S
C1133 C1132 1.374 . S
C1134 C1131 1.499 . S
C1134 C1135 1.373 . S
C1134 C1136 1.389 . S
C1135 H1114 0.950 . S
C1135 C1134 1.373 . S
C1135 C1151 1.377 . S
C1136 C1134 1.389 . S
C1136 C1137 1.524 . S
C1136 C1150 1.377 . S
C1137 C1136 1.524 . S
C1137 C1138 1.397 . S
C1137 C1142 1.363 . S
C1138 H1115 0.950 . S
C1138 C1137 1.397 . S
C1138 C1139 1.334 . S
C1139 H1116 0.950 . S
C1139 C1138 1.334 . S
C1139 C1140 1.287 . S
C1140 C1139 1.287 . S
C1140 C1141 1.524 . S
C1140 H1159 0.913 . S
C1141 H1117 0.950 . S
C1141 C1140 1.524 . S
C1141 C1142 1.415 . S
C1142 H1118 0.950 . S
C1142 C1137 1.363 . S
C1142 C1141 1.415 . S
C1143 H1119 0.951 . S
C1143 C1144 1.366 . S
C1143 C1145 1.388 1_545 S
C1144 C1143 1.366 . S
C1144 C1148 1.385 1_545 S
C1145 H1120 0.951 . S
C1145 C1143 1.388 1_565 S
C1145 C1146 1.366 . S
C1146 C1145 1.366 . S
C1146 C1147 1.414 . S
C1146 C1149 1.499 . S
C1147 H1121 0.950 . S
C1147 C1146 1.414 . S
C1147 C1148 1.374 . S
C1148 H1122 0.950 1_565 S
C1148 C1144 1.385 1_565 S
C1148 C1147 1.374 . S
C1149 C1146 1.499 . S
C1149 C1150 1.373 . S
C1149 C1151 1.389 . S
C1150 H1123 0.950 . S
C1150 C1136 1.377 . S
C1150 C1149 1.373 . S
C1151 C1135 1.377 . S
C1151 C1149 1.389 . S
C1151 C1152 1.524 . S
C1152 C1151 1.524 . S
C1152 C1153 1.397 . S
C1152 C1157 1.363 . S
C1153 H1124 0.950 . S
C1153 C1152 1.397 . S
C1153 C1154 1.334 . S
C1154 H1125 0.950 . S
C1154 C1153 1.334 . S
C1154 C1155 1.287 . S
C1155 C1154 1.287 . S
C1155 C1156 1.524 . S
C1155 H1158 0.999 . S
C1156 H1126 0.950 . S
C1156 C1155 1.524 . S
C1156 C1157 1.415 . S
C1157 H1127 0.950 . S
C1157 C1152 1.363 . S
C1157 C1156 1.415 . S
H1158 C1155 0.999 . S
H1159 C1140 0.913 . S
H1160 C1178 0.951 . S
H1161 C1180 0.951 . S
H1162 C1182 0.950 . S
H1163 C1183 0.950 1_655 S
H1164 C1185 0.950 . S
H1165 C1188 0.950 . S
H1166 C1189 0.950 . S
H1167 C1191 0.950 . S
H1168 C1192 0.950 . S
H1169 C1193 0.951 . S
H1170 C1195 0.951 . S
H1171 C1197 0.950 . S
H1172 C1198 0.950 . S
H1173 C1200 0.950 1_545 S
H1174 C1203 0.950 . S
H1175 C1204 0.950 . S
H1176 C1206 0.950 . S
H1177 C1207 0.950 . S
C1178 H1160 0.951 . S
C1178 C1179 1.366 . S
C1178 C1180 1.388 1_655 S
C1179 C1178 1.366 . S
C1179 C1183 1.385 1_655 S
C1180 H1161 0.951 . S
C1180 C1178 1.388 1_455 S
C1180 C1181 1.366 . S
C1181 C1180 1.366 . S
C1181 C1182 1.414 . S
C1181 C1184 1.499 . S
C1182 H1162 0.950 . S
C1182 C1181 1.414 . S
C1182 C1183 1.374 . S
C1183 H1163 0.950 1_455 S
C1183 C1179 1.385 1_455 S
C1183 C1182 1.374 . S
C1184 C1181 1.499 . S
C1184 C1185 1.373 . S
C1184 C1186 1.389 . S
C1185 H1164 0.950 . S
C1185 C1184 1.373 . S
C1185 C1201 1.377 . S
C1186 C1184 1.389 . S
C1186 C1187 1.524 . S
C1186 C1200 1.377 . S
C1187 C1186 1.524 . S
C1187 C1188 1.397 . S
C1187 C1192 1.363 1_565 S
C1188 H1165 0.950 . S
C1188 C1187 1.397 . S
C1188 C1189 1.334 . S
C1189 H1166 0.950 . S
C1189 C1188 1.334 . S
C1189 C1190 1.287 . S
C1190 C1189 1.287 . S
C1190 C1191 1.524 1_565 S
C1190 H1209 0.913 . S
C1191 H1167 0.950 . S
C1191 C1190 1.524 1_545 S
C1191 C1192 1.415 . S
C1192 H1168 0.950 . S
C1192 C1187 1.363 1_545 S
C1192 C1191 1.415 . S
C1193 H1169 0.951 . S
C1193 C1194 1.366 . S
C1193 C1195 1.388 1_545 S
C1194 C1193 1.366 . S
C1194 C1198 1.385 . S
C1195 H1170 0.951 . S
C1195 C1193 1.388 1_565 S
C1195 C1196 1.366 . S
C1196 C1195 1.366 . S
C1196 C1197 1.414 1_565 S
C1196 C1199 1.499 . S
C1197 H1171 0.950 . S
C1197 C1196 1.414 1_545 S
C1197 C1198 1.374 . S
C1198 H1172 0.950 . S
C1198 C1194 1.385 . S
C1198 C1197 1.374 . S
C1199 C1196 1.499 . S
C1199 C1200 1.373 . S
C1199 C1201 1.389 . S
C1200 H1173 0.950 1_565 S
C1200 C1186 1.377 . S
C1200 C1199 1.373 . S
C1201 C1185 1.377 . S
C1201 C1199 1.389 . S
C1201 C1202 1.524 . S
C1202 C1201 1.524 . S
C1202 C1203 1.397 . S
C1202 C1207 1.363 . S
C1203 H1174 0.950 . S
C1203 C1202 1.397 . S
C1203 C1204 1.334 . S
C1204 H1175 0.950 . S
C1204 C1203 1.334 . S
C1204 C1205 1.287 . S
C1205 C1204 1.287 . S
C1205 C1206 1.524 . S
C1205 H1208 0.999 . S
C1206 H1176 0.950 . S
C1206 C1205 1.524 . S
C1206 C1207 1.415 . S
C1207 H1177 0.950 . S
C1207 C1202 1.363 . S
C1207 C1206 1.415 . S
H1208 C1205 0.999 . S
H1209 C1190 0.913 . S
H1210 C1228 0.951 . S
H1211 C1230 0.951 . S
H1212 C1232 0.950 . S
H1213 C1233 0.950 . S
H1214 C1235 0.950 . S
H1215 C1238 0.950 . S
H1216 C1239 0.950 . S
H1217 C1241 0.950 . S
H1218 C1242 0.950 . S
H1219 C1243 0.951 . S
H1220 C1245 0.951 . S
H1221 C1247 0.950 1_455 S
H1222 C1248 0.950 . S
H1223 C1250 0.950 . S
H1224 C1253 0.950 . S
H1225 C1254 0.950 . S
H1226 C1256 0.950 . S
H1227 C1257 0.950 . S
C1228 H1210 0.951 . S
C1228 C1229 1.366 . S
C1228 C1230 1.388 . S
C1229 C1228 1.366 . S
C1229 C1233 1.385 . S
C1230 H1211 0.951 . S
C1230 C1228 1.388 . S
C1230 C1231 1.366 . S
C1231 C1230 1.366 . S
C1231 C1232 1.414 . S
C1231 C1234 1.499 . S
C1232 H1212 0.950 . S
C1232 C1231 1.414 . S
C1232 C1233 1.374 . S
C1233 H1213 0.950 . S
C1233 C1229 1.385 . S
C1233 C1232 1.374 . S
C1234 C1231 1.499 . S
C1234 C1235 1.373 . S
C1234 C1236 1.389 . S
C1235 H1214 0.950 . S
C1235 C1234 1.373 . S
C1235 C1251 1.377 . S
C1236 C1234 1.389 . S
C1236 C1237 1.524 . S
C1236 C1250 1.377 . S
C1237 C1236 1.524 . S
C1237 C1238 1.397 . S
C1237 C1242 1.363 . S
C1238 H1215 0.950 . S
C1238 C1237 1.397 . S
C1238 C1239 1.334 . S
C1239 H1216 0.950 . S
C1239 C1238 1.334 . S
C1239 C1240 1.287 . S
C1240 C1239 1.287 . S
C1240 C1241 1.524 . S
C1240 H1259 0.913 . S
C1241 H1217 0.950 . S
C1241 C1240 1.524 . S
C1241 C1242 1.415 . S
C1242 H1218 0.950 . S
C1242 C1237 1.363 . S
C1242 C1241 1.415 . S
C1243 H1219 0.951 . S
C1243 C1244 1.366 . S
C1243 C1245 1.388 . S
C1244 C1243 1.366 . S
C1244 C1248 1.385 . S
C1245 H1220 0.951 . S
C1245 C1243 1.388 . S
C1245 C1246 1.366 1_655 S
C1246 C1245 1.366 1_455 S
C1246 C1247 1.414 1_455 S
C1246 C1249 1.499 . S
C1247 H1221 0.950 1_655 S
C1247 C1246 1.414 1_655 S
C1247 C1248 1.374 . S
C1248 H1222 0.950 . S
C1248 C1244 1.385 . S
C1248 C1247 1.374 . S
C1249 C1246 1.499 . S
C1249 C1250 1.373 . S
C1249 C1251 1.389 . S
C1250 H1223 0.950 . S
C1250 C1236 1.377 . S
C1250 C1249 1.373 . S
C1251 C1235 1.377 . S
C1251 C1249 1.389 . S
C1251 C1252 1.524 . S
C1252 C1251 1.524 . S
C1252 C1253 1.397 . S
C1252 C1257 1.363 . S
C1253 H1224 0.950 . S
C1253 C1252 1.397 . S
C1253 C1254 1.334 . S
C1254 H1225 0.950 . S
C1254 C1253 1.334 . S
C1254 C1255 1.287 . S
C1255 C1254 1.287 . S
C1255 C1256 1.524 . S
C1255 H1258 0.999 . S
C1256 H1226 0.950 . S
C1256 C1255 1.524 . S
C1256 C1257 1.415 . S
C1257 H1227 0.950 . S
C1257 C1252 1.363 . S
C1257 C1256 1.415 . S
H1258 C1255 0.999 . S
H1259 C1240 0.913 . S
H1260 C1278 0.951 . S
H1261 C1280 0.951 . S
H1262 C1282 0.950 . S
H1263 C1283 0.950 . S
H1264 C1285 0.950 . S
H1265 C1288 0.950 . S
H1266 C1289 0.950 . S
H1267 C1291 0.950 . S
H1268 C1292 0.950 . S
H1269 C1293 0.951 . S
H1270 C1295 0.951 . S
H1271 C1297 0.950 . S
H1272 C1298 0.950 . S
H1273 C1300 0.950 . S
H1274 C1303 0.950 . S
H1275 C1304 0.950 . S
H1276 C1306 0.950 . S
H1277 C1307 0.950 . S
C1278 H1260 0.951 . S
C1278 C1279 1.366 . S
C1278 C1280 1.388 . S
C1279 C1278 1.366 . S
C1279 C1283 1.385 . S
C1280 H1261 0.951 . S
C1280 C1278 1.388 . S
C1280 C1281 1.366 . S
C1281 C1280 1.366 . S
C1281 C1282 1.414 . S
C1281 C1284 1.499 . S
C1282 H1262 0.950 . S
C1282 C1281 1.414 . S
C1282 C1283 1.374 . S
C1283 H1263 0.950 . S
C1283 C1279 1.385 . S
C1283 C1282 1.374 . S
C1284 C1281 1.499 . S
C1284 C1285 1.373 . S
C1284 C1286 1.389 . S
C1285 H1264 0.950 . S
C1285 C1284 1.373 . S
C1285 C1301 1.377 . S
C1286 C1284 1.389 . S
C1286 C1287 1.524 . S
C1286 C1300 1.377 . S
C1287 C1286 1.524 . S
C1287 C1288 1.397 . S
C1287 C1292 1.363 . S
C1288 H1265 0.950 . S
C1288 C1287 1.397 . S
C1288 C1289 1.334 . S
C1289 H1266 0.950 . S
C1289 C1288 1.334 . S
C1289 C1290 1.287 . S
C1290 C1289 1.287 . S
C1290 C1291 1.524 . S
C1290 H1309 0.913 . S
C1291 H1267 0.950 . S
C1291 C1290 1.524 . S
C1291 C1292 1.415 . S
C1292 H1268 0.950 . S
C1292 C1287 1.363 . S
C1292 C1291 1.415 . S
C1293 H1269 0.951 . S
C1293 C1294 1.366 . S
C1293 C1295 1.388 . S
C1294 C1293 1.366 . S
C1294 C1298 1.385 . S
C1295 H1270 0.951 . S
C1295 C1293 1.388 . S
C1295 C1296 1.366 . S
C1296 C1295 1.366 . S
C1296 C1297 1.414 . S
C1296 C1299 1.499 . S
C1297 H1271 0.950 . S
C1297 C1296 1.414 . S
C1297 C1298 1.374 . S
C1298 H1272 0.950 . S
C1298 C1294 1.385 . S
C1298 C1297 1.374 . S
C1299 C1296 1.499 . S
C1299 C1300 1.373 . S
C1299 C1301 1.389 . S
C1300 H1273 0.950 . S
C1300 C1286 1.377 . S
C1300 C1299 1.373 . S
C1301 C1285 1.377 . S
C1301 C1299 1.389 . S
C1301 C1302 1.524 . S
C1302 C1301 1.524 . S
C1302 C1303 1.397 . S
C1302 C1307 1.363 . S
C1303 H1274 0.950 . S
C1303 C1302 1.397 . S
C1303 C1304 1.334 1_455 S
C1304 H1275 0.950 . S
C1304 C1303 1.334 1_655 S
C1304 C1305 1.287 1_655 S
C1305 C1304 1.287 1_455 S
C1305 C1306 1.524 . S
C1305 H1308 0.999 1_455 S
C1306 H1276 0.950 . S
C1306 C1305 1.524 . S
C1306 C1307 1.415 . S
C1307 H1277 0.950 . S
C1307 C1302 1.363 . S
C1307 C1306 1.415 . S
H1308 C1305 0.999 1_655 S
H1309 C1290 0.913 . S
H1310 C1328 0.951 . S
H1311 C1330 0.951 . S
H1312 C1332 0.950 . S
H1313 C1333 0.950 . S
H1314 C1335 0.950 . S
H1315 C1338 0.950 . S
H1316 C1339 0.950 . S
H1317 C1341 0.950 . S
H1318 C1342 0.950 . S
H1319 C1343 0.951 . S
H1320 C1345 0.951 . S
H1321 C1347 0.950 . S
H1322 C1348 0.950 . S
H1323 C1350 0.950 . S
H1324 C1353 0.950 . S
H1325 C1354 0.950 . S
H1326 C1356 0.950 . S
H1327 C1357 0.950 . S
C1328 H1310 0.951 . S
C1328 C1329 1.366 . S
C1328 C1330 1.388 . S
C1329 C1328 1.366 . S
C1329 C1333 1.385 . S
C1330 H1311 0.951 . S
C1330 C1328 1.388 . S
C1330 C1331 1.366 . S
C1331 C1330 1.366 . S
C1331 C1332 1.414 . S
C1331 C1334 1.499 . S
C1332 H1312 0.950 . S
C1332 C1331 1.414 . S
C1332 C1333 1.374 . S
C1333 H1313 0.950 . S
C1333 C1329 1.385 . S
C1333 C1332 1.374 . S
C1334 C1331 1.499 . S
C1334 C1335 1.373 . S
C1334 C1336 1.389 . S
C1335 H1314 0.950 . S
C1335 C1334 1.373 . S
C1335 C1351 1.377 . S
C1336 C1334 1.389 . S
C1336 C1337 1.524 . S
C1336 C1350 1.377 . S
C1337 C1336 1.524 . S
C1337 C1338 1.397 . S
C1337 C1342 1.363 . S
C1338 H1315 0.950 . S
C1338 C1337 1.397 . S
C1338 C1339 1.334 . S
C1339 H1316 0.950 . S
C1339 C1338 1.334 . S
C1339 C1340 1.287 . S
C1340 C1339 1.287 . S
C1340 C1341 1.524 . S
C1340 H1359 0.913 . S
C1341 H1317 0.950 . S
C1341 C1340 1.524 . S
C1341 C1342 1.415 . S
C1342 H1318 0.950 . S
C1342 C1337 1.363 . S
C1342 C1341 1.415 . S
C1343 H1319 0.951 . S
C1343 C1344 1.366 . S
C1343 C1345 1.388 . S
C1344 C1343 1.366 . S
C1344 C1348 1.385 . S
C1345 H1320 0.951 . S
C1345 C1343 1.388 . S
C1345 C1346 1.366 . S
C1346 C1345 1.366 . S
C1346 C1347 1.414 . S
C1346 C1349 1.499 . S
C1347 H1321 0.950 . S
C1347 C1346 1.414 . S
C1347 C1348 1.374 . S
C1348 H1322 0.950 . S
C1348 C1344 1.385 . S
C1348 C1347 1.374 . S
C1349 C1346 1.499 . S
C1349 C1350 1.373 . S
C1349 C1351 1.389 . S
C1350 H1323 0.950 . S
C1350 C1336 1.377 . S
C1350 C1349 1.373 . S
C1351 C1335 1.377 . S
C1351 C1349 1.389 . S
C1351 C1352 1.524 . S
C1352 C1351 1.524 . S
C1352 C1353 1.397 . S
C1352 C1357 1.363 . S
C1353 H1324 0.950 . S
C1353 C1352 1.397 . S
C1353 C1354 1.334 . S
C1354 H1325 0.950 . S
C1354 C1353 1.334 . S
C1354 C1355 1.287 . S
C1355 C1354 1.287 . S
C1355 C1356 1.524 . S
C1355 H1358 0.999 . S
C1356 H1326 0.950 . S
C1356 C1355 1.524 . S
C1356 C1357 1.415 . S
C1357 H1327 0.950 . S
C1357 C1352 1.363 . S
C1357 C1356 1.415 . S
H1358 C1355 0.999 . S
H1359 C1340 0.913 . S
H1360 C1378 0.951 . S
H1361 C1380 0.951 . S
H1362 C1382 0.950 . S
H1363 C1383 0.950 . S
H1364 C1385 0.950 . S
H1365 C1388 0.950 . S
H1366 C1389 0.950 . S
H1367 C1391 0.950 . S
H1368 C1392 0.950 1_565 S
H1369 C1393 0.951 . S
H1370 C1395 0.951 . S
H1371 C1397 0.950 . S
H1372 C1398 0.950 . S
H1373 C1400 0.950 . S
H1374 C1403 0.950 . S
H1375 C1404 0.950 . S
H1376 C1406 0.950 . S
H1377 C1407 0.950 . S
C1378 H1360 0.951 . S
C1378 C1379 1.366 . S
C1378 C1380 1.388 . S
C1379 C1378 1.366 . S
C1379 C1383 1.385 . S
C1380 H1361 0.951 . S
C1380 C1378 1.388 . S
C1380 C1381 1.366 . S
C1381 C1380 1.366 . S
C1381 C1382 1.414 . S
C1381 C1384 1.499 . S
C1382 H1362 0.950 . S
C1382 C1381 1.414 . S
C1382 C1383 1.374 . S
C1383 H1363 0.950 . S
C1383 C1379 1.385 . S
C1383 C1382 1.374 . S
C1384 C1381 1.499 . S
C1384 C1385 1.373 . S
C1384 C1386 1.389 . S
C1385 H1364 0.950 . S
C1385 C1384 1.373 . S
C1385 C1401 1.377 . S
C1386 C1384 1.389 . S
C1386 C1387 1.524 . S
C1386 C1400 1.377 . S
C1387 C1386 1.524 . S
C1387 C1388 1.397 1_565 S
C1387 C1392 1.363 1_565 S
C1388 H1365 0.950 . S
C1388 C1387 1.397 1_545 S
C1388 C1389 1.334 . S
C1389 H1366 0.950 . S
C1389 C1388 1.334 . S
C1389 C1390 1.287 . S
C1390 C1389 1.287 . S
C1390 C1391 1.524 . S
C1390 H1409 0.913 . S
C1391 H1367 0.950 . S
C1391 C1390 1.524 . S
C1391 C1392 1.415 . S
C1392 H1368 0.950 1_545 S
C1392 C1387 1.363 1_545 S
C1392 C1391 1.415 . S
C1393 H1369 0.951 . S
C1393 C1394 1.366 . S
C1393 C1395 1.388 . S
C1394 C1393 1.366 . S
C1394 C1398 1.385 . S
C1395 H1370 0.951 . S
C1395 C1393 1.388 . S
C1395 C1396 1.366 . S
C1396 C1395 1.366 . S
C1396 C1397 1.414 . S
C1396 C1399 1.499 . S
C1397 H1371 0.950 . S
C1397 C1396 1.414 . S
C1397 C1398 1.374 . S
C1398 H1372 0.950 . S
C1398 C1394 1.385 . S
C1398 C1397 1.374 . S
C1399 C1396 1.499 . S
C1399 C1400 1.373 . S
C1399 C1401 1.389 . S
C1400 H1373 0.950 . S
C1400 C1386 1.377 . S
C1400 C1399 1.373 . S
C1401 C1385 1.377 . S
C1401 C1399 1.389 . S
C1401 C1402 1.524 . S
C1402 C1401 1.524 . S
C1402 C1403 1.397 . S
C1402 C1407 1.363 . S
C1403 H1374 0.950 . S
C1403 C1402 1.397 . S
C1403 C1404 1.334 . S
C1404 H1375 0.950 . S
C1404 C1403 1.334 . S
C1404 C1405 1.287 . S
C1405 C1404 1.287 . S
C1405 C1406 1.524 . S
C1405 H1408 0.999 . S
C1406 H1376 0.950 . S
C1406 C1405 1.524 . S
C1406 C1407 1.415 . S
C1407 H1377 0.950 . S
C1407 C1402 1.363 . S
C1407 C1406 1.415 . S
H1408 C1405 0.999 . S
H1409 C1390 0.913 . S
H1410 C1428 0.951 . S
H1411 C1430 0.951 . S
H1412 C1432 0.950 . S
H1413 C1433 0.950 . S
H1414 C1435 0.950 . S
H1415 C1438 0.950 . S
H1416 C1439 0.950 . S
H1417 C1441 0.950 . S
H1418 C1442 0.950 . S
H1419 C1443 0.951 . S
H1420 C1445 0.951 . S
H1421 C1447 0.950 . S
H1422 C1448 0.950 . S
H1423 C1450 0.950 . S
H1424 C1453 0.950 . S
H1425 C1454 0.950 . S
H1426 C1456 0.950 . S
H1427 C1457 0.950 . S
C1428 H1410 0.951 . S
C1428 C1429 1.366 . S
C1428 C1430 1.388 . S
C1429 C1428 1.366 . S
C1429 C1433 1.385 . S
C1430 H1411 0.951 . S
C1430 C1428 1.388 . S
C1430 C1431 1.366 . S
C1431 C1430 1.366 . S
C1431 C1432 1.414 . S
C1431 C1434 1.499 . S
C1432 H1412 0.950 . S
C1432 C1431 1.414 . S
C1432 C1433 1.374 . S
C1433 H1413 0.950 . S
C1433 C1429 1.385 . S
C1433 C1432 1.374 . S
C1434 C1431 1.499 . S
C1434 C1435 1.373 . S
C1434 C1436 1.389 . S
C1435 H1414 0.950 . S
C1435 C1434 1.373 . S
C1435 C1451 1.377 . S
C1436 C1434 1.389 . S
C1436 C1437 1.524 . S
C1436 C1450 1.377 . S
C1437 C1436 1.524 . S
C1437 C1438 1.397 . S
C1437 C1442 1.363 . S
C1438 H1415 0.950 . S
C1438 C1437 1.397 . S
C1438 C1439 1.334 . S
C1439 H1416 0.950 . S
C1439 C1438 1.334 . S
C1439 C1440 1.287 . S
C1440 C1439 1.287 . S
C1440 C1441 1.524 . S
C1440 H1459 0.913 . S
C1441 H1417 0.950 . S
C1441 C1440 1.524 . S
C1441 C1442 1.415 . S
C1442 H1418 0.950 . S
C1442 C1437 1.363 . S
C1442 C1441 1.415 . S
C1443 H1419 0.951 . S
C1443 C1444 1.366 . S
C1443 C1445 1.388 . S
C1444 C1443 1.366 . S
C1444 C1448 1.385 . S
C1445 H1420 0.951 . S
C1445 C1443 1.388 . S
C1445 C1446 1.366 . S
C1446 C1445 1.366 . S
C1446 C1447 1.414 . S
C1446 C1449 1.499 . S
C1447 H1421 0.950 . S
C1447 C1446 1.414 . S
C1447 C1448 1.374 . S
C1448 H1422 0.950 . S
C1448 C1444 1.385 . S
C1448 C1447 1.374 . S
C1449 C1446 1.499 . S
C1449 C1450 1.373 . S
C1449 C1451 1.389 . S
C1450 H1423 0.950 . S
C1450 C1436 1.377 . S
C1450 C1449 1.373 . S
C1451 C1435 1.377 . S
C1451 C1449 1.389 . S
C1451 C1452 1.524 . S
C1452 C1451 1.524 . S
C1452 C1453 1.397 . S
C1452 C1457 1.363 . S
C1453 H1424 0.950 . S
C1453 C1452 1.397 . S
C1453 C1454 1.334 1_545 S
C1454 H1425 0.950 . S
C1454 C1453 1.334 1_565 S
C1454 C1455 1.287 . S
C1455 C1454 1.287 . S
C1455 C1456 1.524 . S
C1455 H1458 0.999 . S
C1456 H1426 0.950 . S
C1456 C1455 1.524 . S
C1456 C1457 1.415 1_565 S
C1457 H1427 0.950 . S
C1457 C1452 1.363 . S
C1457 C1456 1.415 1_545 S
H1458 C1455 0.999 . S
H1459 C1440 0.913 . S
H1460 C1478 0.951 1_455 S
H1461 C1480 0.951 . S
H1462 C1482 0.950 . S
H1463 C1483 0.950 . S
H1464 C1485 0.950 . S
H1465 C1488 0.950 . S
H1466 C1489 0.950 . S
H1467 C1491 0.950 . S
H1468 C1492 0.950 . S
H1469 C1493 0.951 . S
H1470 C1495 0.951 . S
H1471 C1497 0.950 . S
H1472 C1498 0.950 . S
H1473 C1500 0.950 . S
H1474 C1503 0.950 . S
H1475 C1504 0.950 . S
H1476 C1506 0.950 . S
H1477 C1507 0.950 . S
C1478 H1460 0.951 1_655 S
C1478 C1479 1.366 . S
C1478 C1480 1.388 . S
C1479 C1478 1.366 . S
C1479 C1483 1.385 . S
C1480 H1461 0.951 . S
C1480 C1478 1.388 . S
C1480 C1481 1.366 . S
C1481 C1480 1.366 . S
C1481 C1482 1.414 . S
C1481 C1484 1.499 . S
C1482 H1462 0.950 . S
C1482 C1481 1.414 . S
C1482 C1483 1.374 . S
C1483 H1463 0.950 . S
C1483 C1479 1.385 . S
C1483 C1482 1.374 . S
C1484 C1481 1.499 . S
C1484 C1485 1.373 . S
C1484 C1486 1.389 . S
C1485 H1464 0.950 . S
C1485 C1484 1.373 . S
C1485 C1501 1.377 . S
C1486 C1484 1.389 . S
C1486 C1487 1.524 . S
C1486 C1500 1.377 . S
C1487 C1486 1.524 . S
C1487 C1488 1.397 . S
C1487 C1492 1.363 1_655 S
C1488 H1465 0.950 . S
C1488 C1487 1.397 . S
C1488 C1489 1.334 1_655 S
C1489 H1466 0.950 . S
C1489 C1488 1.334 1_455 S
C1489 C1490 1.287 . S
C1490 C1489 1.287 . S
C1490 C1491 1.524 . S
C1490 H1509 0.913 . S
C1491 H1467 0.950 . S
C1491 C1490 1.524 . S
C1491 C1492 1.415 . S
C1492 H1468 0.950 . S
C1492 C1487 1.363 1_455 S
C1492 C1491 1.415 . S
C1493 H1469 0.951 . S
C1493 C1494 1.366 . S
C1493 C1495 1.388 . S
C1494 C1493 1.366 . S
C1494 C1498 1.385 . S
C1495 H1470 0.951 . S
C1495 C1493 1.388 . S
C1495 C1496 1.366 . S
C1496 C1495 1.366 . S
C1496 C1497 1.414 . S
C1496 C1499 1.499 . S
C1497 H1471 0.950 . S
C1497 C1496 1.414 . S
C1497 C1498 1.374 . S
C1498 H1472 0.950 . S
C1498 C1494 1.385 . S
C1498 C1497 1.374 . S
C1499 C1496 1.499 . S
C1499 C1500 1.373 . S
C1499 C1501 1.389 . S
C1500 H1473 0.950 . S
C1500 C1486 1.377 . S
C1500 C1499 1.373 . S
C1501 C1485 1.377 . S
C1501 C1499 1.389 . S
C1501 C1502 1.524 . S
C1502 C1501 1.524 . S
C1502 C1503 1.397 . S
C1502 C1507 1.363 . S
C1503 H1474 0.950 . S
C1503 C1502 1.397 . S
C1503 C1504 1.334 . S
C1504 H1475 0.950 . S
C1504 C1503 1.334 . S
C1504 C1505 1.287 . S
C1505 C1504 1.287 . S
C1505 C1506 1.524 . S
C1505 H1508 0.999 . S
C1506 H1476 0.950 . S
C1506 C1505 1.524 . S
C1506 C1507 1.415 . S
C1507 H1477 0.950 . S
C1507 C1502 1.363 . S
C1507 C1506 1.415 . S
H1508 C1505 0.999 . S
H1509 C1490 0.913 . S
H1510 C1528 0.951 . S
H1511 C1530 0.951 . S
H1512 C1532 0.950 . S
H1513 C1533 0.950 . S
H1514 C1535 0.950 . S
H1515 C1538 0.950 . S
H1516 C1539 0.950 . S
H1517 C1541 0.950 . S
H1518 C1542 0.950 . S
H1519 C1543 0.951 . S
H1520 C1545 0.951 . S
H1521 C1547 0.950 . S
H1522 C1548 0.950 . S
H1523 C1550 0.950 . S
H1524 C1553 0.950 . S
H1525 C1554 0.950 . S
H1526 C1556 0.950 . S
H1527 C1557 0.950 . S
C1528 H1510 0.951 . S
C1528 C1529 1.366 . S
C1528 C1530 1.388 . S
C1529 C1528 1.366 . S
C1529 C1533 1.385 . S
C1530 H1511 0.951 . S
C1530 C1528 1.388 . S
C1530 C1531 1.366 . S
C1531 C1530 1.366 . S
C1531 C1532 1.414 . S
C1531 C1534 1.499 . S
C1532 H1512 0.950 . S
C1532 C1531 1.414 . S
C1532 C1533 1.374 . S
C1533 H1513 0.950 . S
C1533 C1529 1.385 . S
C1533 C1532 1.374 . S
C1534 C1531 1.499 . S
C1534 C1535 1.373 . S
C1534 C1536 1.389 . S
C1535 H1514 0.950 . S
C1535 C1534 1.373 . S
C1535 C1551 1.377 . S
C1536 C1534 1.389 . S
C1536 C1537 1.524 . S
C1536 C1550 1.377 . S
C1537 C1536 1.524 . S
C1537 C1538 1.397 . S
C1537 C1542 1.363 . S
C1538 H1515 0.950 . S
C1538 C1537 1.397 . S
C1538 C1539 1.334 . S
C1539 H1516 0.950 . S
C1539 C1538 1.334 . S
C1539 C1540 1.287 . S
C1540 C1539 1.287 . S
C1540 C1541 1.524 . S
C1540 H1559 0.913 . S
C1541 H1517 0.950 . S
C1541 C1540 1.524 . S
C1541 C1542 1.415 . S
C1542 H1518 0.950 . S
C1542 C1537 1.363 . S
C1542 C1541 1.415 . S
C1543 H1519 0.951 . S
C1543 C1544 1.366 . S
C1543 C1545 1.388 . S
C1544 C1543 1.366 . S
C1544 C1548 1.385 . S
C1545 H1520 0.951 . S
C1545 C1543 1.388 . S
C1545 C1546 1.366 . S
C1546 C1545 1.366 . S
C1546 C1547 1.414 . S
C1546 C1549 1.499 . S
C1547 H1521 0.950 . S
C1547 C1546 1.414 . S
C1547 C1548 1.374 . S
C1548 H1522 0.950 . S
C1548 C1544 1.385 . S
C1548 C1547 1.374 . S
C1549 C1546 1.499 . S
C1549 C1550 1.373 . S
C1549 C1551 1.389 . S
C1550 H1523 0.950 . S
C1550 C1536 1.377 . S
C1550 C1549 1.373 . S
C1551 C1535 1.377 . S
C1551 C1549 1.389 . S
C1551 C1552 1.524 . S
C1552 C1551 1.524 . S
C1552 C1553 1.397 . S
C1552 C1557 1.363 . S
C1553 H1524 0.950 . S
C1553 C1552 1.397 . S
C1553 C1554 1.334 . S
C1554 H1525 0.950 . S
C1554 C1553 1.334 . S
C1554 C1555 1.287 . S
C1555 C1554 1.287 . S
C1555 C1556 1.524 . S
C1555 H1558 0.999 . S
C1556 H1526 0.950 . S
C1556 C1555 1.524 . S
C1556 C1557 1.415 . S
C1557 H1527 0.950 . S
C1557 C1552 1.363 . S
C1557 C1556 1.415 . S
H1558 C1555 0.999 . S
H1559 C1540 0.913 . S
H1560 C1578 0.951 . S
H1561 C1580 0.951 . S
H1562 C1582 0.950 . S
H1563 C1583 0.950 . S
H1564 C1585 0.950 . S
H1565 C1588 0.950 . S
H1566 C1589 0.950 . S
H1567 C1591 0.950 . S
H1568 C1592 0.950 . S
H1569 C1593 0.951 . S
H1570 C1595 0.951 . S
H1571 C1597 0.950 . S
H1572 C1598 0.950 . S
H1573 C1600 0.950 . S
H1574 C1603 0.950 . S
H1575 C1604 0.950 . S
H1576 C1606 0.950 . S
H1577 C1607 0.950 . S
C1578 H1560 0.951 . S
C1578 C1579 1.366 . S
C1578 C1580 1.388 . S
C1579 C1578 1.366 . S
C1579 C1583 1.385 . S
C1580 H1561 0.951 . S
C1580 C1578 1.388 . S
C1580 C1581 1.366 . S
C1581 C1580 1.366 . S
C1581 C1582 1.414 . S
C1581 C1584 1.499 . S
C1582 H1562 0.950 . S
C1582 C1581 1.414 . S
C1582 C1583 1.374 . S
C1583 H1563 0.950 . S
C1583 C1579 1.385 . S
C1583 C1582 1.374 . S
C1584 C1581 1.499 . S
C1584 C1585 1.373 . S
C1584 C1586 1.389 . S
C1585 H1564 0.950 . S
C1585 C1584 1.373 . S
C1585 C1601 1.377 . S
C1586 C1584 1.389 . S
C1586 C1587 1.524 . S
C1586 C1600 1.377 . S
C1587 C1586 1.524 . S
C1587 C1588 1.397 . S
C1587 C1592 1.363 . S
C1588 H1565 0.950 . S
C1588 C1587 1.397 . S
C1588 C1589 1.334 . S
C1589 H1566 0.950 . S
C1589 C1588 1.334 . S
C1589 C1590 1.287 . S
C1590 C1589 1.287 . S
C1590 C1591 1.524 . S
C1590 H1609 0.913 . S
C1591 H1567 0.950 . S
C1591 C1590 1.524 . S
C1591 C1592 1.415 . S
C1592 H1568 0.950 . S
C1592 C1587 1.363 . S
C1592 C1591 1.415 . S
C1593 H1569 0.951 . S
C1593 C1594 1.366 . S
C1593 C1595 1.388 . S
C1594 C1593 1.366 . S
C1594 C1598 1.385 . S
C1595 H1570 0.951 . S
C1595 C1593 1.388 . S
C1595 C1596 1.366 . S
C1596 C1595 1.366 . S
C1596 C1597 1.414 . S
C1596 C1599 1.499 . S
C1597 H1571 0.950 . S
C1597 C1596 1.414 . S
C1597 C1598 1.374 . S
C1598 H1572 0.950 . S
C1598 C1594 1.385 . S
C1598 C1597 1.374 . S
C1599 C1596 1.499 . S
C1599 C1600 1.373 . S
C1599 C1601 1.389 . S
C1600 H1573 0.950 . S
C1600 C1586 1.377 . S
C1600 C1599 1.373 . S
C1601 C1585 1.377 . S
C1601 C1599 1.389 . S
C1601 C1602 1.524 . S
C1602 C1601 1.524 . S
C1602 C1603 1.397 . S
C1602 C1607 1.363 . S
C1603 H1574 0.950 . S
C1603 C1602 1.397 . S
C1603 C1604 1.334 . S
C1604 H1575 0.950 . S
C1604 C1603 1.334 . S
C1604 C1605 1.287 . S
C1605 C1604 1.287 . S
C1605 C1606 1.524 . S
C1605 H1608 0.999 . S
C1606 H1576 0.950 . S
C1606 C1605 1.524 . S
C1606 C1607 1.415 . S
C1607 H1577 0.950 . S
C1607 C1602 1.363 . S
C1607 C1606 1.415 . S
H1608 C1605 0.999 . S
H1609 C1590 0.913 . S
H1610 C1628 0.951 . S
H1611 C1630 0.951 . S
H1612 C1632 0.950 . S
H1613 C1633 0.950 . S
H1614 C1635 0.950 . S
H1615 C1638 0.950 . S
H1616 C1639 0.950 . S
H1617 C1641 0.950 . S
H1618 C1642 0.950 . S
H1619 C1643 0.951 . S
H1620 C1645 0.951 . S
H1621 C1647 0.950 . S
H1622 C1648 0.950 . S
H1623 C1650 0.950 . S
H1624 C1653 0.950 . S
H1625 C1654 0.950 . S
H1626 C1656 0.950 . S
H1627 C1657 0.950 . S
C1628 H1610 0.951 . S
C1628 C1629 1.366 . S
C1628 C1630 1.388 . S
C1629 C1628 1.366 . S
C1629 C1633 1.385 . S
C1630 H1611 0.951 . S
C1630 C1628 1.388 . S
C1630 C1631 1.366 . S
C1631 C1630 1.366 . S
C1631 C1632 1.414 . S
C1631 C1634 1.499 . S
C1632 H1612 0.950 . S
C1632 C1631 1.414 . S
C1632 C1633 1.374 . S
C1633 H1613 0.950 . S
C1633 C1629 1.385 . S
C1633 C1632 1.374 . S
C1634 C1631 1.499 . S
C1634 C1635 1.373 1_565 S
C1634 C1636 1.389 . S
C1635 H1614 0.950 . S
C1635 C1634 1.373 1_545 S
C1635 C1651 1.377 . S
C1636 C1634 1.389 . S
C1636 C1637 1.524 . S
C1636 C1650 1.377 . S
C1637 C1636 1.524 . S
C1637 C1638 1.397 . S
C1637 C1642 1.363 . S
C1638 H1615 0.950 . S
C1638 C1637 1.397 . S
C1638 C1639 1.334 . S
C1639 H1616 0.950 . S
C1639 C1638 1.334 . S
C1639 C1640 1.287 . S
C1640 C1639 1.287 . S
C1640 C1641 1.524 . S
C1640 H1659 0.913 . S
C1641 H1617 0.950 . S
C1641 C1640 1.524 . S
C1641 C1642 1.415 . S
C1642 H1618 0.950 . S
C1642 C1637 1.363 . S
C1642 C1641 1.415 . S
C1643 H1619 0.951 . S
C1643 C1644 1.366 . S
C1643 C1645 1.388 . S
C1644 C1643 1.366 . S
C1644 C1648 1.385 . S
C1645 H1620 0.951 . S
C1645 C1643 1.388 . S
C1645 C1646 1.366 . S
C1646 C1645 1.366 . S
C1646 C1647 1.414 . S
C1646 C1649 1.499 . S
C1647 H1621 0.950 . S
C1647 C1646 1.414 . S
C1647 C1648 1.374 . S
C1648 H1622 0.950 . S
C1648 C1644 1.385 . S
C1648 C1647 1.374 . S
C1649 C1646 1.499 . S
C1649 C1650 1.373 1_545 S
C1649 C1651 1.389 . S
C1650 H1623 0.950 . S
C1650 C1636 1.377 . S
C1650 C1649 1.373 1_565 S
C1651 C1635 1.377 . S
C1651 C1649 1.389 . S
C1651 C1652 1.524 . S
C1652 C1651 1.524 . S
C1652 C1653 1.397 . S
C1652 C1657 1.363 . S
C1653 H1624 0.950 . S
C1653 C1652 1.397 . S
C1653 C1654 1.334 . S
C1654 H1625 0.950 . S
C1654 C1653 1.334 . S
C1654 C1655 1.287 . S
C1655 C1654 1.287 . S
C1655 C1656 1.524 . S
C1655 H1658 0.999 . S
C1656 H1626 0.950 . S
C1656 C1655 1.524 . S
C1656 C1657 1.415 . S
C1657 H1627 0.950 . S
C1657 C1652 1.363 . S
C1657 C1656 1.415 . S
H1658 C1655 0.999 . S
H1659 C1640 0.913 . S
H1660 C1678 0.951 . S
H1661 C1680 0.951 . S
H1662 C1682 0.950 . S
H1663 C1683 0.950 . S
H1664 C1685 0.950 . S
H1665 C1688 0.950 . S
H1666 C1689 0.950 . S
H1667 C1691 0.950 . S
H1668 C1692 0.950 . S
H1669 C1693 0.951 . S
H1670 C1695 0.951 . S
H1671 C1697 0.950 . S
H1672 C1698 0.950 . S
H1673 C1700 0.950 . S
H1674 C1703 0.950 . S
H1675 C1704 0.950 . S
H1676 C1706 0.950 . S
H1677 C1707 0.950 . S
C1678 H1660 0.951 . S
C1678 C1679 1.366 . S
C1678 C1680 1.388 . S
C1679 C1678 1.366 . S
C1679 C1683 1.385 . S
C1680 H1661 0.951 . S
C1680 C1678 1.388 . S
C1680 C1681 1.366 . S
C1681 C1680 1.366 . S
C1681 C1682 1.414 . S
C1681 C1684 1.499 . S
C1682 H1662 0.950 . S
C1682 C1681 1.414 . S
C1682 C1683 1.374 . S
C1683 H1663 0.950 . S
C1683 C1679 1.385 . S
C1683 C1682 1.374 . S
C1684 C1681 1.499 . S
C1684 C1685 1.373 . S
C1684 C1686 1.364 1_655 S
C1685 H1664 0.950 . S
C1685 C1684 1.373 . S
C1685 C1701 1.377 1_655 S
C1686 C1684 1.364 1_455 S
C1686 C1687 1.537 . S
C1686 C1700 1.392 . S
C1687 C1686 1.537 . S
C1687 C1688 1.397 . S
C1687 C1692 1.363 1_455 S
C1688 H1665 0.950 . S
C1688 C1687 1.397 . S
C1688 C1689 1.334 . S
C1689 H1666 0.950 . S
C1689 C1688 1.334 . S
C1689 C1690 1.287 . S
C1690 C1689 1.287 . S
C1690 C1691 1.524 1_455 S
C1690 H1709 0.913 . S
C1691 H1667 0.950 . S
C1691 C1690 1.524 1_655 S
C1691 C1692 1.415 . S
C1692 H1668 0.950 . S
C1692 C1687 1.363 1_655 S
C1692 C1691 1.415 . S
C1693 H1669 0.951 . S
C1693 C1694 1.366 . S
C1693 C1695 1.388 . S
C1694 C1693 1.366 . S
C1694 C1698 1.385 . S
C1695 H1670 0.951 . S
C1695 C1693 1.388 . S
C1695 C1696 1.366 . S
C1696 C1695 1.366 . S
C1696 C1697 1.414 . S
C1696 C1699 1.499 . S
C1697 H1671 0.950 . S
C1697 C1696 1.414 . S
C1697 C1698 1.374 . S
C1698 H1672 0.950 . S
C1698 C1694 1.385 . S
C1698 C1697 1.374 . S
C1699 C1696 1.499 . S
C1699 C1700 1.373 . S
C1699 C1701 1.389 . S
C1700 H1673 0.950 . S
C1700 C1686 1.392 . S
C1700 C1699 1.373 . S
C1701 C1685 1.377 1_455 S
C1701 C1699 1.389 . S
C1701 C1702 1.524 . S
C1702 C1701 1.524 . S
C1702 C1703 1.397 1_455 S
C1702 C1707 1.363 . S
C1703 H1674 0.950 . S
C1703 C1702 1.397 1_655 S
C1703 C1704 1.334 . S
C1704 H1675 0.950 . S
C1704 C1703 1.334 . S
C1704 C1705 1.276 . S
C1705 C1704 1.276 . S
C1705 C1706 1.520 1_655 S
C1705 H1708 1.013 . S
C1706 H1676 0.950 . S
C1706 C1705 1.520 1_455 S
C1706 C1707 1.415 . S
C1707 H1677 0.950 . S
C1707 C1702 1.363 . S
C1707 C1706 1.415 . S
H1708 C1705 1.013 . S
H1709 C1690 0.913 . S
C379 C50 1.387 . S
C394 C6 1.427 . S
C429 C90 1.386 . S
C444 C46 1.427 . S
C479 C86 1.427 . S
C494 C10 1.386 . S
C529 C99 1.509 . S
C544 C55 1.471 . S
C579 C95 1.471 . S
C594 C19 1.509 . S
C629 C15 1.470 . S
C644 C59 1.509 . S
C679 C126 1.427 . S
C694 C170 1.385 . S
C729 C210 1.386 . S
C744 C166 1.427 . S
C779 C206 1.427 . S
C794 C130 1.386 . S
C829 C175 1.470 . S
C844 C219 1.509 . S
C879 C215 1.470 . S
C894 C139 1.509 . S
C929 C179 1.509 . S
C944 C135 1.470 . S
C979 C290 1.386 . S
C994 C246 1.427 . S
C1029 C286 1.427 . S
C1044 C330 1.386 . S
C1079 C326 1.427 . S
C1094 C250 1.386 . S
C1129 C339 1.509 . S
C1144 C295 1.470 . S
C1179 C335 1.470 . S
C1194 C259 1.509 . S
C1229 C255 1.470 . S
C1244 C299 1.509 . S
C1279 C209 2.333 . S
C1294 C18 2.579 . S
C1329 C129 2.334 . S
C1344 C58 2.578 . S
C1379 C98 2.579 . S
C1394 C169 2.333 . S
C1429 C89 2.334 . S
C1444 C258 2.579 . S
C1479 C9 2.334 . S
C1494 C298 2.579 . S
C1529 C338 2.579 . S
C1544 C49 2.335 . S
C1579 C138 2.579 . S
C1594 C329 2.334 . S
C1629 C178 2.579 . S
C1644 C249 2.334 . S
C1679 C289 2.334 . S
C1694 C218 2.579 . S
