# Generated by pormake.
# Topology whh, (6)-cn, num edge types: 1
# Building blocks:
#     Node 0, Type 0, BuildingBlock: VOLQOD_clean_sbu_1, # of connection points: 6
#     Node 1, Type 0, BuildingBlock: VOLQOD_clean_sbu_1, # of connection points: 6
#     Node 2, Type 0, BuildingBlock: VOLQOD_clean_sbu_1, # of connection points: 6
#     Node 3, Type 0, BuildingBlock: VOLQOD_clean_sbu_1, # of connection points: 6
#     Node 4, Type 0, BuildingBlock: VOLQOD_clean_sbu_1, # of connection points: 6
#     Node 5, Type 0, BuildingBlock: VOLQOD_clean_sbu_1, # of connection points: 6
#     Node 6, Type 0, BuildingBlock: VOLQOD_clean_sbu_1, # of connection points: 6
#     Node 7, Type 0, BuildingBlock: VOLQOD_clean_sbu_1, # of connection points: 6
#     Node 8, Type 0, BuildingBlock: VOLQOD_clean_sbu_1, # of connection points: 6
#     Node 9, Type 0, BuildingBlock: VOLQOD_clean_sbu_1, # of connection points: 6
#     Node 10, Type 0, BuildingBlock: VOLQOD_clean_sbu_1, # of connection points: 6
#     Node 11, Type 0, BuildingBlock: VOLQOD_clean_sbu_1, # of connection points: 6
#     Node 12, Type 0, BuildingBlock: VOLQOD_clean_sbu_1, # of connection points: 6
#     Node 13, Type 0, BuildingBlock: VOLQOD_clean_sbu_1, # of connection points: 6
#     Node 14, Type 0, BuildingBlock: VOLQOD_clean_sbu_1, # of connection points: 6
#     Node 15, Type 0, BuildingBlock: VOLQOD_clean_sbu_1, # of connection points: 6
#     Edge 16, Type (0, 0), BuildingBlock: CIFDUS_clean_linker_0, # of connection points: 2
#     Edge 17, Type (0, 0), BuildingBlock: CIFDUS_clean_linker_0, # of connection points: 2
#     Edge 18, Type (0, 0), BuildingBlock: CIFDUS_clean_linker_0, # of connection points: 2
#     Edge 19, Type (0, 0), BuildingBlock: CIFDUS_clean_linker_0, # of connection points: 2
#     Edge 20, Type (0, 0), BuildingBlock: CIFDUS_clean_linker_0, # of connection points: 2
#     Edge 21, Type (0, 0), BuildingBlock: CIFDUS_clean_linker_0, # of connection points: 2
#     Edge 22, Type (0, 0), BuildingBlock: CIFDUS_clean_linker_0, # of connection points: 2
#     Edge 23, Type (0, 0), BuildingBlock: CIFDUS_clean_linker_0, # of connection points: 2
#     Edge 24, Type (0, 0), BuildingBlock: CIFDUS_clean_linker_0, # of connection points: 2
#     Edge 25, Type (0, 0), BuildingBlock: CIFDUS_clean_linker_0, # of connection points: 2
#     Edge 26, Type (0, 0), BuildingBlock: CIFDUS_clean_linker_0, # of connection points: 2
#     Edge 27, Type (0, 0), BuildingBlock: CIFDUS_clean_linker_0, # of connection points: 2
#     Edge 28, Type (0, 0), BuildingBlock: CIFDUS_clean_linker_0, # of connection points: 2
#     Edge 29, Type (0, 0), BuildingBlock: CIFDUS_clean_linker_0, # of connection points: 2
#     Edge 30, Type (0, 0), BuildingBlock: CIFDUS_clean_linker_0, # of connection points: 2
#     Edge 31, Type (0, 0), BuildingBlock: CIFDUS_clean_linker_0, # of connection points: 2
#     Edge 32, Type (0, 0), BuildingBlock: CIFDUS_clean_linker_0, # of connection points: 2
#     Edge 33, Type (0, 0), BuildingBlock: CIFDUS_clean_linker_0, # of connection points: 2
#     Edge 34, Type (0, 0), BuildingBlock: CIFDUS_clean_linker_0, # of connection points: 2
#     Edge 35, Type (0, 0), BuildingBlock: CIFDUS_clean_linker_0, # of connection points: 2
#     Edge 36, Type (0, 0), BuildingBlock: CIFDUS_clean_linker_0, # of connection points: 2
#     Edge 37, Type (0, 0), BuildingBlock: CIFDUS_clean_linker_0, # of connection points: 2
#     Edge 38, Type (0, 0), BuildingBlock: CIFDUS_clean_linker_0, # of connection points: 2
#     Edge 39, Type (0, 0), BuildingBlock: CIFDUS_clean_linker_0, # of connection points: 2
#     Edge 40, Type (0, 0), BuildingBlock: CIFDUS_clean_linker_0, # of connection points: 2
#     Edge 41, Type (0, 0), BuildingBlock: CIFDUS_clean_linker_0, # of connection points: 2
#     Edge 42, Type (0, 0), BuildingBlock: CIFDUS_clean_linker_0, # of connection points: 2
#     Edge 43, Type (0, 0), BuildingBlock: CIFDUS_clean_linker_0, # of connection points: 2
#     Edge 44, Type (0, 0), BuildingBlock: CIFDUS_clean_linker_0, # of connection points: 2
#     Edge 45, Type (0, 0), BuildingBlock: CIFDUS_clean_linker_0, # of connection points: 2
#     Edge 46, Type (0, 0), BuildingBlock: CIFDUS_clean_linker_0, # of connection points: 2
#     Edge 47, Type (0, 0), BuildingBlock: CIFDUS_clean_linker_0, # of connection points: 2
#     Edge 48, Type (0, 0), BuildingBlock: CIFDUS_clean_linker_0, # of connection points: 2
#     Edge 49, Type (0, 0), BuildingBlock: CIFDUS_clean_linker_0, # of connection points: 2
#     Edge 50, Type (0, 0), BuildingBlock: CIFDUS_clean_linker_0, # of connection points: 2
#     Edge 51, Type (0, 0), BuildingBlock: CIFDUS_clean_linker_0, # of connection points: 2
#     Edge 52, Type (0, 0), BuildingBlock: CIFDUS_clean_linker_0, # of connection points: 2
#     Edge 53, Type (0, 0), BuildingBlock: CIFDUS_clean_linker_0, # of connection points: 2
#     Edge 54, Type (0, 0), BuildingBlock: CIFDUS_clean_linker_0, # of connection points: 2
#     Edge 55, Type (0, 0), BuildingBlock: CIFDUS_clean_linker_0, # of connection points: 2
#     Edge 56, Type (0, 0), BuildingBlock: CIFDUS_clean_linker_0, # of connection points: 2
#     Edge 57, Type (0, 0), BuildingBlock: CIFDUS_clean_linker_0, # of connection points: 2
#     Edge 58, Type (0, 0), BuildingBlock: CIFDUS_clean_linker_0, # of connection points: 2
#     Edge 59, Type (0, 0), BuildingBlock: CIFDUS_clean_linker_0, # of connection points: 2
#     Edge 60, Type (0, 0), BuildingBlock: CIFDUS_clean_linker_0, # of connection points: 2
#     Edge 61, Type (0, 0), BuildingBlock: CIFDUS_clean_linker_0, # of connection points: 2
#     Edge 62, Type (0, 0), BuildingBlock: CIFDUS_clean_linker_0, # of connection points: 2
#     Edge 63, Type (0, 0), BuildingBlock: CIFDUS_clean_linker_0, # of connection points: 2
# Relax obj value: 0.570
# Max RMSD: 0.276
# Mean RMSD: 0.276
data_MOF--net-whh--node1-VOLQOD_clean_sbu_1--edge1-CIFDUS_clean_linker_0
_symmetry_space_group_name_H-M    P1
_symmetry_Int_Tables_number       1
_symmetry_cell_setting            triclinic
loop_
_symmetry_equiv_pos_as_xyz
'x, y, z'
_cell_length_a     30.512675
_cell_length_b     30.485758
_cell_length_c     45.557039
_cell_angle_alpha  89.822976
_cell_angle_beta   90.126027
_cell_angle_gamma 89.777175
loop_
_atom_site_label
_atom_site_type_symbol
_atom_site_fract_x
_atom_site_fract_y
_atom_site_fract_z
_atom_type_partial_charge
O0 O 0.09391 0.53696 0.12072 0.0
Zn1 Zn 0.0966 0.57735 0.15726 0.0
O2 O 0.04312 0.6113 0.15237 0.0
Zn3 Zn -0.00327 0.58026 0.17173 0.0
Zn4 Zn 0.03144 0.61708 0.11033 0.0
Zn5 Zn 0.04974 0.66823 0.16774 0.0
O6 O 0.96231 0.62106 0.19843 0.0
O7 O 0.0085 0.67749 0.20084 0.0
O8 O 0.09242 0.54116 0.19608 0.0
O9 O 0.02011 0.53465 0.19925 0.0
O10 O 0.96074 0.55008 0.14131 0.0
O11 O 0.98093 0.57987 0.09868 0.0
O12 O 0.02088 0.67886 0.0964 0.0
O13 O 0.14774 0.62212 0.15934 0.0
O14 O 0.03617 0.71354 0.13786 0.0
O15 O 0.11168 0.67965 0.17765 0.0
C16 C 0.08632 0.55057 0.09455 0.0
C17 C 0.97392 0.65785 0.20919 0.0
C18 C 0.95799 0.55312 0.11346 0.0
C19 C 0.05834 0.52492 0.20833 0.0
C20 C 0.02577 0.71403 0.11088 0.0
C21 C 0.14725 0.66121 0.16983 0.0
O22 O 0.08264 0.59152 0.09012 0.0
O23 O 0.93879 0.06345 0.09973 0.0
Zn24 Zn 0.90064 0.07644 0.13732 0.0
O25 O 0.85778 0.02905 0.13615 0.0
Zn26 Zn 0.87811 0.98008 0.15908 0.0
Zn27 Zn 0.85179 0.01344 0.09471 0.0
Zn28 Zn 0.80148 0.04634 0.1496 0.0
O29 O 0.83392 0.9621 0.19015 0.0
O30 O 0.78508 0.01634 0.18729 0.0
O31 O 0.93962 0.06864 0.17518 0.0
O32 O 0.93035 -0.00292 0.18277 0.0
O33 O 0.89615 0.93154 0.13208 0.0
O34 O 0.88077 0.95576 0.0869 0.0
O35 O 0.79052 0.00925 0.08017 0.0
O36 O 0.86358 0.13573 0.13739 0.0
O37 O 0.75609 0.03283 0.11988 0.0
O38 O 0.79896 0.11053 0.15266 0.0
C39 C 0.92282 0.05866 0.07389 0.0
C40 C 0.79998 0.98191 0.19976 0.0
C41 C 0.89614 0.92686 0.10428 0.0
C42 C 0.94928 0.03298 0.18885 0.0
C43 C 0.7556 0.01963 0.09345 0.0
C44 C 0.82344 0.14226 0.14519 0.0
O45 O 0.88163 0.05842 0.0707 0.0
O46 O 0.39936 0.96339 0.12387 0.0
Zn47 Zn 0.39287 0.92223 0.16024 0.0
O48 O 0.44385 0.88464 0.15565 0.0
Zn49 Zn 0.49264 0.90992 0.17592 0.0
Zn50 Zn 0.45545 0.87973 0.11363 0.0
Zn51 Zn 0.4326 0.82807 0.17011 0.0
O52 O 0.52636 0.86358 0.19952 0.0
O53 O 0.47524 0.81158 0.20115 0.0
O54 O 0.39951 0.95704 0.19951 0.0
O55 O 0.47186 0.95357 0.20544 0.0
O56 O 0.52823 0.94212 0.14623 0.0
O57 O 0.50719 0.91544 0.10289 0.0
O58 O 0.46339 0.818 0.0993 0.0
O59 O 0.33884 0.88021 0.1613 0.0
O60 O 0.44019 0.78336 0.13911 0.0
O61 O 0.37122 0.82236 0.18233 0.0
C62 C 0.40591 0.94992 0.0976 0.0
C63 C 0.51229 0.82672 0.20889 0.0
C64 C 0.53053 0.94095 0.11831 0.0
C65 C 0.43451 0.96784 0.21333 0.0
C66 C 0.45318 0.78289 0.11268 0.0
C67 C 0.33697 0.84175 0.17293 0.0
O68 O 0.40615 0.90887 0.09301 0.0
O69 O 0.54685 0.43182 0.10291 0.0
Zn70 Zn 0.5882 0.41963 0.13917 0.0
O71 O 0.62915 0.46862 0.13716 0.0
Zn72 Zn 0.60821 0.51612 0.16131 0.0
Zn73 Zn 0.63268 0.48672 0.09593 0.0
Zn74 Zn 0.68664 0.4522 0.14934 0.0
O75 O 0.65347 0.5336 0.19202 0.0
O76 O 0.70421 0.48159 0.18687 0.0
O77 O 0.55251 0.42523 0.17843 0.0
O78 O 0.55711 0.49724 0.18555 0.0
O79 O 0.58794 0.56573 0.13566 0.0
O80 O 0.60357 0.54482 0.08996 0.0
O81 O 0.69334 0.49157 0.08001 0.0
O82 O 0.62654 0.36145 0.13816 0.0
O83 O 0.73011 0.46762 0.11891 0.0
O84 O 0.69133 0.38787 0.15208 0.0
C85 C 0.55954 0.44087 0.07674 0.0
C86 C 0.68877 0.5147 0.20038 0.0
C87 C 0.58762 0.57221 0.108 0.0
C88 C 0.54111 0.46012 0.19224 0.0
C89 C 0.72909 0.48152 0.0926 0.0
C90 C 0.66715 0.35568 0.14513 0.0
O91 O 0.60023 0.44399 0.07166 0.0
O92 O 0.06835 0.94897 0.43003 0.0
Zn93 Zn 0.07814 0.91135 0.3923 0.0
O94 O 0.03361 0.86702 0.39678 0.0
Zn95 Zn 0.98021 0.88783 0.37951 0.0
Zn96 Zn 0.02789 0.857 0.43895 0.0
Zn97 Zn 0.05171 0.81391 0.37902 0.0
O98 O 0.95416 0.84293 0.35185 0.0
O99 O 0.0096 0.79561 0.34795 0.0
O100 O 0.06414 0.94861 0.35451 0.0
O101 O 0.99165 0.94034 0.35414 0.0
O102 O 0.93887 0.90362 0.41172 0.0
O103 O 0.96954 0.87849 0.45306 0.0
O104 O 0.03464 0.79445 0.4509 0.0
O105 O 0.13687 0.8752 0.39037 0.0
O106 O 0.05374 0.76556 0.40824 0.0
O107 O 0.11256 0.81808 0.36476 0.0
C108 C 0.06879 0.93325 0.45614 0.0
C109 C 0.97144 0.80874 0.34067 0.0
C110 C 0.93835 0.89733 0.43939 0.0
C111 C 0.02612 0.95852 0.34426 0.0
C112 C 0.04664 0.76188 0.43559 0.0
C113 C 0.1438 0.8387 0.37696 0.0
O114 O 0.07295 0.89218 0.45961 0.0
O115 O 0.54324 0.07876 0.44925 0.0
Zn116 Zn 0.58191 0.08893 0.41201 0.0
O117 O 0.61933 0.03719 0.4123 0.0
Zn118 Zn 0.59193 0.99184 0.38954 0.0
Zn119 Zn 0.6269 0.01923 0.45332 0.0
Zn120 Zn 0.67539 0.04937 0.39663 0.0
O121 O 0.63243 0.96862 0.35751 0.0
O122 O 0.68566 0.01834 0.35868 0.0
O123 O 0.54374 0.08761 0.37375 0.0
O124 O 0.5415 0.01557 0.36659 0.0
O125 O 0.56797 0.94661 0.41687 0.0
O126 O 0.5942 0.96406 0.46107 0.0
O127 O 0.68964 0.01066 0.46567 0.0
O128 O 0.62371 0.14347 0.41269 0.0
O129 O 0.722 0.03148 0.42436 0.0
O130 O 0.68365 0.11304 0.39344 0.0
C131 C 0.55721 0.06855 0.47498 0.0
C132 C 0.66721 0.98545 0.34683 0.0
C133 C 0.57121 0.94 0.44442 0.0
C134 C 0.52857 0.05407 0.36022 0.0
C135 C 0.72393 0.01811 0.45074 0.0
C136 C 0.66319 0.14641 0.40301 0.0
O137 O 0.59808 0.06324 0.47901 0.0
O138 O 0.41094 0.54491 0.43143 0.0
Zn139 Zn 0.40608 0.58886 0.39556 0.0
O140 O 0.4569 0.62685 0.40173 0.0
Zn141 Zn 0.50507 0.609 0.37735 0.0
Zn142 Zn 0.4721 0.62124 0.44305 0.0
Zn143 Zn 0.44457 0.68714 0.39648 0.0
O144 O 0.53233 0.6612 0.35603 0.0
O145 O 0.48173 0.71228 0.36487 0.0
O146 O 0.41388 0.55576 0.35544 0.0
O147 O 0.48425 0.56849 0.34596 0.0
O148 O 0.54653 0.57369 0.40195 0.0
O149 O 0.52094 0.57853 0.4477 0.0
O150 O 0.49018 0.67642 0.463 0.0
O151 O 0.35025 0.63039 0.39388 0.0
O152 O 0.45831 0.72218 0.43187 0.0
O153 O 0.38191 0.69581 0.38883 0.0
C154 C 0.41485 0.55738 0.45817 0.0
C155 C 0.51674 0.69975 0.35223 0.0
C156 C 0.54768 0.56313 0.42904 0.0
C157 C 0.44808 0.55038 0.33947 0.0
C158 C 0.47808 0.71481 0.45594 0.0
C159 C 0.34771 0.67224 0.38999 0.0
O160 O 0.41991 0.5978 0.46331 0.0
O161 O 0.9574 0.41266 0.44497 0.0
Zn162 Zn 0.91779 0.40097 0.40838 0.0
O163 O 0.87959 0.45205 0.40893 0.0
Zn164 Zn 0.90595 0.49812 0.38641 0.0
Zn165 Zn 0.87224 0.46849 0.45023 0.0
Zn166 Zn 0.82389 0.43925 0.39327 0.0
O167 O 0.86433 0.522 0.35491 0.0
O168 O 0.81228 0.47104 0.35565 0.0
O169 O 0.95461 0.40317 0.36974 0.0
O170 O 0.95625 0.47541 0.36302 0.0
O171 O 0.92934 0.5427 0.41426 0.0
O172 O 0.90405 0.52406 0.45849 0.0
O173 O 0.8097 0.47528 0.46304 0.0
O174 O 0.87656 0.34602 0.40999 0.0
O175 O 0.77785 0.45649 0.4212 0.0
O176 O 0.81633 0.37551 0.39016 0.0
C177 C 0.94307 0.42196 0.47066 0.0
C178 C 0.82969 0.50487 0.34421 0.0
C179 C 0.92654 0.54873 0.44188 0.0
C180 C 0.96924 0.43711 0.3563 0.0
C181 C 0.77551 0.46855 0.44781 0.0
C182 C 0.83708 0.34254 0.40029 0.0
O183 O 0.90195 0.42342 0.47464 0.0
O184 O 0.93677 0.43436 0.94499 0.0
Zn185 Zn 0.9217 0.39898 0.90658 0.0
O186 O 0.96573 0.35265 0.90399 0.0
Zn187 Zn 0.01324 0.36977 0.87912 0.0
Zn188 Zn 0.98932 0.338 0.94244 0.0
Zn189 Zn 0.93989 0.30057 0.88869 0.0
O190 O 0.02936 0.32273 0.84981 0.0
O191 O 0.97512 0.27519 0.8559 0.0
O192 O 0.92896 0.44109 0.87004 0.0
O193 O -0.00321 0.42307 0.85629 0.0
O194 O 0.06445 0.38388 0.90437 0.0
O195 O 0.05503 0.34111 0.94348 0.0
O196 O 0.97002 0.28023 0.95829 0.0
O197 O 0.86157 0.36458 0.90779 0.0
O198 O 0.93562 0.25437 0.91933 0.0
O199 O 0.87863 0.31099 0.8768 0.0
C200 C 0.95699 0.4221 0.96843 0.0
C201 C 0.01022 0.28705 0.84319 0.0
C202 C 0.07823 0.3672 0.92832 0.0
C203 C 0.96277 0.44699 0.85374 0.0
C204 C 0.94811 0.25026 0.94581 0.0
C205 C 0.8508 0.33027 0.89302 0.0
O206 O 0.9736 0.38401 0.97048 0.0
O207 O 0.04132 0.91117 0.9329 0.0
Zn208 Zn 0.08084 0.90804 0.89521 0.0
O209 O 0.12132 0.95622 0.90275 0.0
Zn210 Zn 0.0993 0.00887 0.88488 0.0
Zn211 Zn 0.12531 0.9625 0.94539 0.0
Zn212 Zn 0.17861 0.94439 0.88918 0.0
O213 O 0.14603 0.03993 0.86104 0.0
O214 O 0.19514 0.9859 0.85734 0.0
O215 O 0.04359 0.92252 0.85712 0.0
O216 O 0.05249 0.99489 0.85577 0.0
O217 O 0.07198 0.04568 0.91606 0.0
O218 O 0.09016 0.014 0.9586 0.0
O219 O 0.18632 0.97008 0.96074 0.0
O220 O 0.12031 0.85134 0.89031 0.0
O221 O 0.22309 0.95289 0.92051 0.0
O222 O 0.18387 0.88232 0.87812 0.0
C223 C 0.05621 0.91092 0.95926 0.0
C224 C 0.18127 0.024 0.85041 0.0
C225 C 0.07043 0.0436 0.94398 0.0
C226 C 0.03486 0.96025 0.84584 0.0
C227 C 0.22219 0.96324 0.94746 0.0
C228 C 0.16062 0.8483 0.88209 0.0
O229 O 0.09739 0.91008 0.96305 0.0
O230 O 0.56538 0.05212 0.94899 0.0
Zn231 Zn 0.57665 0.0943 0.91317 0.0
O232 O 0.52977 0.13785 0.91822 0.0
Zn233 Zn 0.47889 0.12146 0.89564 0.0
Zn234 Zn 0.51634 0.14049 0.96037 0.0
Zn235 Zn 0.54719 0.19494 0.90672 0.0
O236 O 0.46082 0.1689 0.8665 0.0
O237 O 0.51581 0.21613 0.87076 0.0
O238 O 0.56465 0.05904 0.87437 0.0
O239 O 0.4928 0.07051 0.86973 0.0
O240 O 0.43088 0.10335 0.92313 0.0
O241 O 0.45794 0.11376 0.96813 0.0
O242 O 0.51575 0.20068 0.97787 0.0
O243 O 0.63682 0.12972 0.91183 0.0
O244 O 0.53657 0.2375 0.9384 0.0
O245 O 0.61069 0.19649 0.9017 0.0
C246 C 0.55886 0.06396 0.97563 0.0
C247 C 0.48085 0.2034 0.85819 0.0
C248 C 0.42758 0.10137 0.951 0.0
C249 C 0.52781 0.05126 0.86177 0.0
C250 C 0.52578 0.2364 0.96529 0.0
C251 C 0.64283 0.17073 0.90602 0.0
O252 O 0.56005 0.10446 0.9817 0.0
O253 O 0.45245 0.58702 0.92404 0.0
Zn254 Zn 0.41194 0.58879 0.88707 0.0
O255 O 0.37584 0.5371 0.89403 0.0
Zn256 Zn 0.40178 0.48738 0.87507 0.0
Zn257 Zn 0.37367 0.52735 0.93636 0.0
Zn258 Zn 0.31734 0.5451 0.88129 0.0
O259 O 0.35731 0.45521 0.85004 0.0
O260 O 0.30604 0.50742 0.84642 0.0
O261 O 0.44887 0.5794 0.84837 0.0
O262 O 0.44571 0.50665 0.84581 0.0
O263 O 0.43471 0.45155 0.90486 0.0
O264 O 0.4142 0.47962 0.94781 0.0
O265 O 0.31449 0.51151 0.95181 0.0
O266 O 0.36858 0.64221 0.88405 0.0
O267 O 0.27529 0.52563 0.9118 0.0
O268 O 0.30529 0.60844 0.87474 0.0
C269 C 0.43901 0.58203 0.9505 0.0
C270 C 0.32241 0.47081 0.83846 0.0
C271 C 0.43706 0.45324 0.93278 0.0
C272 C 0.4601 0.54301 0.83635 0.0
C273 C 0.27804 0.51349 0.93842 0.0
C274 C 0.32726 0.64347 0.87824 0.0
O275 O 0.39799 0.58033 0.95495 0.0
O276 O 0.92011 0.04486 0.59941 0.0
Zn277 Zn 0.91497 0.08364 0.63726 0.0
O278 O 0.96433 0.12373 0.63232 0.0
Zn279 Zn 0.01419 0.10244 0.65367 0.0
Zn280 Zn 0.97656 0.12583 0.59031 0.0
Zn281 Zn 0.95107 0.18199 0.64343 0.0
O282 O 0.04052 0.14978 0.67946 0.0
O283 O 0.98633 0.19909 0.67834 0.0
O284 O 0.92486 0.04529 0.67551 0.0
O285 O -0.0037 0.05599 0.68203 0.0
O286 O 0.05508 0.07347 0.62537 0.0
O287 O 0.02696 0.08633 0.58088 0.0
O288 O 0.99 0.18544 0.57416 0.0
O289 O 0.85841 0.12346 0.63966 0.0
O290 O 0.96619 0.2242 0.61193 0.0
O291 O 0.88746 0.18889 0.64937 0.0
C292 C 0.92196 0.06099 0.57343 0.0
C293 C 0.02266 0.18511 0.68859 0.0
C294 C 0.05519 0.06834 0.59759 0.0
C295 C 0.96078 0.0374 0.68935 0.0
C296 C 0.98142 0.22201 0.58606 0.0
C297 C 0.85419 0.16462 0.64546 0.0
O298 O 0.9239 0.10226 0.5705 0.0
O299 O 0.44358 0.92467 0.62601 0.0
Zn300 Zn 0.40082 0.91514 0.661 0.0
O301 O 0.35551 0.95745 0.65167 0.0
Zn302 Zn 0.37177 0.01339 0.66736 0.0
Zn303 Zn 0.34952 0.95916 0.60886 0.0
Zn304 Zn 0.30156 0.93877 0.66772 0.0
O305 O 0.32295 0.03982 0.69194 0.0
O306 O 0.27725 0.98331 0.69504 0.0
O307 O 0.4332 0.93438 0.69962 0.0
O308 O 0.4228 0.00643 0.695 0.0
O309 O 0.38811 0.0526 0.6338 0.0
O310 O 0.36496 0.01812 0.59354 0.0
O311 O 0.28945 0.9446 0.59412 0.0
O312 O 0.36678 0.85514 0.66361 0.0
O313 O 0.2569 0.93067 0.6365 0.0
O314 O 0.30782 0.88084 0.68659 0.0
C315 C 0.43381 0.92662 0.59867 0.0
C316 C 0.2879 0.02237 0.70157 0.0
C317 C 0.38204 0.05093 0.60613 0.0
C318 C 0.44129 0.97389 0.70765 0.0
C319 C 0.25579 0.93347 0.60868 0.0
C320 C 0.32957 0.84882 0.67623 0.0
O321 O 0.39436 0.92059 0.59074 0.0
O322 O 0.56235 0.43332 0.59834 0.0
Zn323 Zn 0.57315 0.39552 0.63643 0.0
O324 O 0.52711 0.35109 0.63362 0.0
Zn325 Zn 0.4765 0.36853 0.65593 0.0
Zn326 Zn 0.51341 0.34602 0.59184 0.0
Zn327 Zn 0.54509 0.29427 0.6463 0.0
O328 O 0.46065 0.32381 0.68741 0.0
O329 O 0.51538 0.27582 0.68339 0.0
O330 O 0.56103 0.43604 0.67309 0.0
O331 O 0.4897 0.42311 0.67835 0.0
O332 O 0.42712 0.38262 0.6283 0.0
O333 O 0.45561 0.37397 0.5836 0.0
O334 O 0.50903 0.28477 0.57727 0.0
O335 O 0.63356 0.36031 0.63871 0.0
O336 O 0.53257 0.24849 0.61643 0.0
O337 O 0.60863 0.29391 0.65052 0.0
C338 C 0.55871 0.41867 0.5721 0.0
C339 C 0.48108 0.28967 0.69627 0.0
C340 C 0.42431 0.38481 0.60041 0.0
C341 C 0.52388 0.44469 0.68502 0.0
C342 C 0.51908 0.24914 0.59004 0.0
C343 C 0.64031 0.31968 0.64546 0.0
O344 O 0.5576 0.37763 0.56799 0.0
O345 O 0.04068 0.58487 0.61759 0.0
Zn346 Zn 0.08227 0.58785 0.65405 0.0
O347 O 0.12066 0.53735 0.64653 0.0
Zn348 Zn 0.09681 0.48641 0.6654 0.0
Zn349 Zn 0.12334 0.52842 0.60398 0.0
Zn350 Zn 0.17874 0.54736 0.6596 0.0
O351 O 0.1417 0.45643 0.69154 0.0
O352 O 0.19345 0.50777 0.69318 0.0
O353 O 0.04518 0.57623 0.6922 0.0
O354 O 0.04947 0.5034 0.69309 0.0
O355 O 0.06928 0.44764 0.63526 0.0
O356 O 0.0881 0.47653 0.59211 0.0
O357 O 0.18386 0.52028 0.58803 0.0
O358 O 0.12335 0.64305 0.65822 0.0
O359 O 0.22194 0.53488 0.62829 0.0
O360 O 0.18694 0.61006 0.6686 0.0
C361 C 0.05355 0.57966 0.59106 0.0
C362 C 0.17742 0.47152 0.70195 0.0
C363 C 0.06796 0.44815 0.60731 0.0
C364 C 0.03383 0.53905 0.70299 0.0
C365 C 0.22014 0.52517 0.60125 0.0
C366 C 0.16427 0.6448 0.66521 0.0
O367 O 0.09443 0.58001 0.5861 0.0
H368 H 0.80144 0.43267 0.09714 0.0
H369 H 0.75032 0.55023 0.05682 0.0
H370 H 0.82465 0.57916 0.05177 0.0
H371 H 0.89888 0.57974 0.0732 0.0
H372 H 0.94567 0.46632 0.12066 0.0
H373 H 0.87912 0.42631 0.10809 0.0
C374 C 0.80693 0.4639 0.08625 0.0
C375 C 0.77105 0.49015 0.07831 0.0
C376 C 0.84904 0.4813 0.08535 0.0
C377 C 0.77784 0.52992 0.06348 0.0
C378 C 0.82023 0.54663 0.06095 0.0
C379 C 0.8949 0.54574 0.07976 0.0
C380 C 0.9258 0.52605 0.09844 0.0
C381 C 0.85545 0.52411 0.07403 0.0
C382 C 0.92126 0.48206 0.10683 0.0
C383 C 0.88336 0.45932 0.09968 0.0
H384 H 0.95317 0.73559 0.08011 0.0
H385 H 0.07405 0.7876 0.11426 0.0
H386 H 0.04602 0.86228 0.10886 0.0
H387 H 0.9815 0.90982 0.10617 0.0
H388 H 0.85825 0.85812 0.07627 0.0
H389 H 0.89243 0.78618 0.06794 0.0
C390 C 0.97383 0.76348 0.08513 0.0
C391 C 0.01521 0.75664 0.09782 0.0
C392 C 0.95654 0.80611 0.0835 0.0
C393 C 0.0419 0.79258 0.10462 0.0
C394 C 0.02577 0.83512 0.10179 0.0
C395 C 0.96267 0.88295 0.09703 0.0
C396 C 0.9177 0.88823 0.09224 0.0
C397 C 0.98223 0.84192 0.09313 0.0
C398 C 0.89306 0.85404 0.08019 0.0
C399 C 0.91254 0.81307 0.07559 0.0
H400 H 0.58711 0.91951 0.0754 0.0
H401 H 0.54191 0.02702 0.1287 0.0
H402 H 0.60607 0.07007 0.1152 0.0
H403 H 0.68279 0.06676 0.10149 0.0
H404 H 0.73325 0.95417 0.05549 0.0
H405 H 0.65928 0.9241 0.05148 0.0
C406 C 0.59091 0.9529 0.08316 0.0
C407 C 0.56143 0.96991 0.10373 0.0
C408 C 0.62916 0.97617 0.0768 0.0
C409 C 0.56551 0.01321 0.11353 0.0
C410 C 0.60197 0.03772 0.10578 0.0
C411 C 0.67716 0.03641 0.08965 0.0
C412 C 0.71293 0.01162 0.07989 0.0
C413 C 0.63547 0.01806 0.08946 0.0
C414 C 0.70587 0.97322 0.06369 0.0
C415 C 0.66372 0.95582 0.06174 0.0
H416 H 0.52415 0.76136 0.08042 0.0
H417 H 0.40633 0.70837 0.11848 0.0
H418 H 0.43654 0.63435 0.11543 0.0
H419 H 0.50238 0.58851 0.11313 0.0
H420 H 0.62203 0.6411 0.07792 0.0
H421 H 0.5855 0.71173 0.06851 0.0
C422 C 0.50449 0.73334 0.08679 0.0
C423 C 0.46356 0.73996 0.10009 0.0
C424 C 0.52299 0.69119 0.08636 0.0
C425 C 0.43819 0.70371 0.10844 0.0
C426 C 0.4556 0.66154 0.107 0.0
C427 C 0.51994 0.6153 0.10277 0.0
C428 C 0.56464 0.61074 0.09677 0.0
C429 C 0.49895 0.65544 0.09787 0.0
C430 C 0.58751 0.64472 0.08293 0.0
C431 C 0.56668 0.68489 0.07763 0.0
H432 H 0.91927 0.98162 0.44457 0.0
H433 H 0.87548 0.85284 0.46939 0.0
H434 H 0.8039 0.88295 0.4837 0.0
H435 H 0.75009 0.94298 0.47708 0.0
H436 H 0.79466 0.07029 0.44894 0.0
H437 H 0.87039 0.04466 0.44948 0.0
C438 C 0.89451 0.96068 0.45431 0.0
C439 C 0.90167 0.91547 0.4558 0.0
C440 C 0.85374 0.9781 0.4618 0.0
C441 C 0.86999 0.88793 0.46813 0.0
C442 C 0.82918 0.90511 0.47611 0.0
C443 C 0.77672 0.96544 0.47247 0.0
C444 C 0.76736 0.00803 0.46252 0.0
C445 C 0.81995 0.94976 0.47139 0.0
C446 C 0.80161 0.03717 0.45637 0.0
C447 C 0.84475 0.02244 0.45641 0.0
H448 H 0.59909 0.86943 0.47526 0.0
H449 H 0.48365 0.9352 0.44248 0.0
H450 H 0.43899 0.8712 0.45412 0.0
H451 H 0.43754 0.79228 0.46089 0.0
H452 H 0.55494 0.72286 0.48635 0.0
H453 H 0.59374 0.79238 0.49198 0.0
C454 C 0.56396 0.86981 0.47155 0.0
C455 C 0.5444 0.90579 0.45746 0.0
C456 C 0.53905 0.83213 0.47693 0.0
C457 C 0.49904 0.90693 0.45275 0.0
C458 C 0.47363 0.87056 0.45946 0.0
C459 C 0.47115 0.79262 0.46878 0.0
C460 C 0.49397 0.75299 0.47221 0.0
C461 C 0.49387 0.83216 0.4697 0.0
C462 C 0.537 0.75326 0.48318 0.0
C463 C 0.55937 0.79295 0.48592 0.0
H464 H 0.60726 0.57362 0.47214 0.0
H465 H 0.56107 0.48278 0.40683 0.0
H466 H 0.62517 0.43603 0.41485 0.0
H467 H 0.7005 0.43126 0.43128 0.0
H468 H 0.75293 0.52873 0.48988 0.0
H469 H 0.67999 0.56176 0.49492 0.0
C470 C 0.611 0.54294 0.46037 0.0
C471 C 0.58063 0.53158 0.43861 0.0
C472 C 0.64918 0.5178 0.46383 0.0
C473 C 0.58496 0.49206 0.42329 0.0
C474 C 0.6214 0.46547 0.42791 0.0
C475 C 0.69566 0.4591 0.44574 0.0
C476 C 0.73184 0.47864 0.45938 0.0
C477 C 0.65482 0.47951 0.44673 0.0
C478 C 0.72539 0.51366 0.47883 0.0
C479 C 0.68386 0.5328 0.48141 0.0
H480 H 0.98988 0.73268 0.47642 0.0
H481 H 0.09685 0.69179 0.42098 0.0
H482 H 0.07262 0.61583 0.42422 0.0
H483 H 0.01002 0.56722 0.43065 0.0
H484 H 0.89931 0.60882 0.48217 0.0
H485 H 0.93595 0.6784 0.49307 0.0
C486 C 0.00893 0.7068 0.46619 0.0
C487 C 0.04413 0.7175 0.44776 0.0
C488 C 0.99324 0.66374 0.46669 0.0
C489 C 0.06902 0.684 0.43478 0.0
C490 C 0.05496 0.64074 0.43639 0.0
C491 C 0.99454 0.59126 0.44484 0.0
C492 C 0.95174 0.58441 0.45472 0.0
C493 C 0.01523 0.63109 0.45025 0.0
C494 C 0.93209 0.61441 0.4739 0.0
C495 C 0.95296 0.65404 0.48002 0.0
H496 H 0.0889 0.45053 0.9424 0.0
H497 H 0.15476 0.32538 0.94295 0.0
H498 H 0.22445 0.36147 0.95497 0.0
H499 H 0.26755 0.42981 0.95456 0.0
H500 H 0.20107 0.55442 0.94844 0.0
H501 H 0.13007 0.51775 0.95073 0.0
C502 C 0.1185 0.43126 0.94582 0.0
C503 C 0.11767 0.38589 0.94127 0.0
C504 C 0.15797 0.45228 0.95191 0.0
C505 C 0.15537 0.36057 0.94613 0.0
C506 C 0.19497 0.38121 0.95291 0.0
C507 C 0.23739 0.44878 0.95515 0.0
C508 C 0.23891 0.49446 0.95147 0.0
C509 C 0.19694 0.42722 0.95443 0.0
C510 C 0.20012 0.51917 0.95153 0.0
C511 C 0.15972 0.49819 0.95241 0.0
H512 H -0.00041 0.2182 0.98964 0.0
H513 H 0.89461 0.18242 0.93088 0.0
H514 H 0.92076 0.10691 0.9303 0.0
H515 H 0.98673 0.06099 0.93248 0.0
H516 H 0.09344 0.09637 0.98956 0.0
H517 H 0.05373 0.16267 1.0047 0.0
C518 C 0.9812 0.19346 0.97784 0.0
C519 C 0.94707 0.20607 0.95879 0.0
C520 C -0.00208 0.15073 0.97629 0.0
C521 C 0.92225 0.17357 0.94469 0.0
C522 C 0.93751 0.13054 0.94403 0.0
C523 C 0.00052 0.08269 0.94892 0.0
C524 C 0.04311 0.07541 0.95924 0.0
C525 C 0.97764 0.12023 0.95733 0.0
C526 C 0.06073 0.10234 0.9811 0.0
C527 C 0.03808 0.14006 0.98969 0.0
H528 H 0.23944 0.03757 0.97656 0.0
H529 H 0.29791 0.91688 0.94665 0.0
H530 H 0.371 0.94847 0.95164 0.0
H531 H 0.41514 0.0153 0.95238 0.0
H532 H 0.35602 0.13846 0.97632 0.0
H533 H 0.28614 0.10153 0.98602 0.0
C534 C 0.26839 0.01774 0.97246 0.0
C535 C 0.26381 0.97528 0.96111 0.0
C536 C 0.3099 0.03714 0.97344 0.0
C537 C 0.30113 0.94974 0.95538 0.0
C538 C 0.34274 0.96795 0.95789 0.0
C539 C 0.38709 0.03358 0.96051 0.0
C540 C 0.3897 0.07915 0.96331 0.0
C541 C 0.34714 0.0124 0.96496 0.0
C542 C 0.35396 0.10317 0.97394 0.0
C543 C 0.31421 0.08211 0.97936 0.0
H544 H 0.57219 0.3094 0.95722 0.0
H545 H 0.46206 0.25791 1.00498 0.0
H546 H 0.42834 0.33076 1.00603 0.0
H547 H 0.41931 0.39979 0.97825 0.0
H548 H 0.52304 0.4435 0.92135 0.0
H549 H 0.57033 0.38392 0.93863 0.0
C550 C 0.54166 0.31473 0.96892 0.0
C551 C 0.51847 0.27861 0.97977 0.0
C552 C 0.52063 0.35523 0.96661 0.0
C553 C 0.47991 0.28541 0.99588 0.0
C554 C 0.46028 0.32689 0.99597 0.0
C555 C 0.45273 0.39667 0.97041 0.0
C556 C 0.46766 0.42432 0.94798 0.0
C557 C 0.47841 0.3607 0.97895 0.0
C558 C 0.51091 0.42119 0.938 0.0
C559 C 0.53786 0.38742 0.94797 0.0
H560 H 0.06705 0.98499 0.61321 0.0
H561 H 0.1142 0.08459 0.55414 0.0
H562 H 0.17959 0.04019 0.54374 0.0
H563 H 0.2303 0.98405 0.56285 0.0
H564 H 0.18354 0.88738 0.62447 0.0
H565 H 0.10975 0.91783 0.62104 0.0
C566 C 0.09122 -0.00379 0.59744 0.0
C567 C 0.08732 0.03816 0.58516 0.0
C568 C 0.12846 0.97087 0.59197 0.0
C569 C 0.11751 0.05245 0.56413 0.0
C570 C 0.15473 0.02713 0.55826 0.0
C571 C 0.20349 0.96828 0.57432 0.0
C572 C 0.21233 0.93484 0.59482 0.0
C573 C 0.16181 0.98769 0.57362 0.0
C574 C 0.1774 0.91397 0.60914 0.0
C575 C 0.13539 0.93176 0.60752 0.0
H576 H 0.44241 0.23166 0.56428 0.0
H577 H 0.56629 0.17358 0.58857 0.0
H578 H 0.53375 0.10048 0.58719 0.0
H579 H 0.46659 0.0585 0.59455 0.0
H580 H 0.34096 0.11873 0.57851 0.0
H581 H 0.37695 0.18573 0.56107 0.0
C582 C 0.46258 0.20272 0.56788 0.0
C583 C 0.50622 0.20745 0.57699 0.0
C584 C 0.44274 0.16153 0.56957 0.0
C585 C 0.53241 0.17021 0.58179 0.0
C586 C 0.51369 0.12864 0.58136 0.0
C587 C 0.44741 0.08596 0.58623 0.0
C588 C 0.40171 0.0849 0.58813 0.0
C589 C 0.46828 0.12456 0.57775 0.0
C590 C 0.37641 0.11973 0.57731 0.0
C591 C 0.39697 0.15785 0.56751 0.0
H592 H 0.23604 0.44924 0.57378 0.0
H593 H 0.29566 0.57098 0.59982 0.0
H594 H 0.36846 0.53811 0.59553 0.0
H595 H 0.41197 0.47062 0.59706 0.0
H596 H 0.35204 0.34684 0.57671 0.0
H597 H 0.28222 0.38404 0.56608 0.0
C598 C 0.26519 0.46893 0.5771 0.0
C599 C 0.26108 0.51212 0.58723 0.0
C600 C 0.30655 0.4489 0.57657 0.0
C601 C 0.29858 0.53756 0.59199 0.0
C602 C 0.34003 0.51863 0.5899 0.0
C603 C 0.38382 0.45225 0.58934 0.0
C604 C 0.38619 0.40655 0.5878 0.0
C605 C 0.34403 0.47368 0.58422 0.0
C606 C 0.35018 0.38228 0.57805 0.0
C607 C 0.31049 0.4035 0.57207 0.0
H608 H 0.09434 0.3844 0.57042 0.0
H609 H 0.98073 0.44072 0.61198 0.0
H610 H 0.93728 0.37648 0.59902 0.0
H611 H 0.93841 0.29832 0.58868 0.0
H612 H 0.05465 0.23784 0.55341 0.0
H613 H 0.08998 0.30961 0.5498 0.0
C614 C 0.0597 0.38287 0.57565 0.0
C615 C 0.04054 0.41604 0.59258 0.0
C616 C 0.03573 0.34485 0.56951 0.0
C617 C -0.00415 0.41465 0.59937 0.0
C618 C 0.97116 0.37808 0.592 0.0
C619 C 0.97086 0.30125 0.57914 0.0
C620 C 0.99458 0.26328 0.57215 0.0
C621 C 0.99166 0.34189 0.57897 0.0
C622 C 0.0361 0.26691 0.55921 0.0
C623 C 0.05648 0.30783 0.55755 0.0
H624 H 0.94301 0.74003 0.21557 0.0
H625 H 0.95764 0.61633 0.26054 0.0
H626 H 0.94925 0.653 0.3079 0.0
H627 H 0.95636 0.72208 0.33554 0.0
H628 H 0.94084 0.84571 0.29058 0.0
H629 H 0.9299 0.8074 0.24402 0.0
C630 C 0.94231 0.72102 0.23575 0.0
C631 C 0.9514 0.67588 0.23488 0.0
C632 C 0.93815 0.74245 0.26278 0.0
C633 C 0.95049 0.65117 0.26089 0.0
C634 C 0.94629 0.67222 0.28794 0.0
C635 C 0.9488 0.74038 0.31568 0.0
C636 C 0.94998 0.78639 0.31611 0.0
C637 C 0.94289 0.71812 0.28909 0.0
C638 C 0.93999 0.81017 0.29055 0.0
C639 C 0.93419 0.78829 0.26394 0.0
H640 H 0.7509 0.96565 0.33249 0.0
H641 H 0.62039 0.97528 0.29672 0.0
H642 H 0.64981 0.97082 0.24682 0.0
H643 H 0.71381 0.97527 0.21371 0.0
H644 H 0.84391 0.96061 0.24955 0.0
H645 H 0.81369 0.95525 0.29912 0.0
C646 C 0.72895 0.96544 0.31373 0.0
C647 C 0.68371 0.97101 0.31807 0.0
C648 C 0.74609 0.96248 0.2852 0.0
C649 C 0.65534 0.97066 0.29377 0.0
C650 C 0.67219 0.96856 0.26528 0.0
C651 C 0.73532 0.96979 0.23236 0.0
C652 C 0.78094 0.96876 0.22817 0.0
C653 C 0.71764 0.96612 0.26074 0.0
C654 C 0.80865 0.96133 0.25233 0.0
C655 C 0.79141 0.9586 0.28068 0.0
H656 H 0.53241 0.8527 0.26362 0.0
H657 H 0.54198 0.74351 0.20429 0.0
H658 H 0.55581 0.69356 0.2454 0.0
H659 H 0.54688 0.67922 0.29815 0.0
H660 H 0.52702 0.78763 0.35716 0.0
H661 H 0.53648 0.83962 0.31679 0.0
C662 C 0.53961 0.81831 0.25976 0.0
C663 C 0.5365 0.8016 0.2312 0.0
C664 C 0.54468 0.78947 0.28366 0.0
C665 C 0.54467 0.75689 0.22623 0.0
C666 C 0.55204 0.7283 0.24975 0.0
C667 C 0.5464 0.71425 0.30226 0.0
C668 C 0.53594 0.72972 0.33037 0.0
C669 C 0.54944 0.74384 0.27863 0.0
C670 C 0.53475 0.77513 0.33553 0.0
C671 C 0.53991 0.80483 0.31243 0.0
H672 H 0.77556 0.52242 0.21249 0.0
H673 H 0.64739 0.53299 0.2515 0.0
H674 H 0.68037 0.53604 0.30044 0.0
H675 H 0.74512 0.52445 0.33213 0.0
H676 H 0.87364 0.51866 0.29334 0.0
H677 H 0.84135 0.52585 0.24424 0.0
C678 C 0.75505 0.52655 0.23171 0.0
C679 C 0.70919 0.52704 0.22855 0.0
C680 C 0.7743 0.5288 0.25974 0.0
C681 C 0.68279 0.53272 0.25347 0.0
C682 C 0.70161 0.5341 0.28145 0.0
C683 C 0.766 0.52608 0.31291 0.0
C684 C 0.81152 0.52077 0.31613 0.0
C685 C 0.74721 0.53058 0.28487 0.0
C686 C 0.8385 0.52299 0.29126 0.0
C687 C 0.82001 0.52667 0.26322 0.0
H688 H 0.03087 0.15069 0.74237 0.0
H689 H 0.04879 0.26972 0.69283 0.0
H690 H 0.05576 0.31171 0.73836 0.0
H691 H 0.04231 0.31608 0.79146 0.0
H692 H 0.01253 0.19827 0.83988 0.0
H693 H 0.02506 0.15401 0.796 0.0
C694 C 0.03803 0.18553 0.74173 0.0
C695 C 0.03996 0.20725 0.71461 0.0
C696 C 0.03887 0.20969 0.76788 0.0
C697 C 0.04781 0.25253 0.71368 0.0
C698 C 0.05131 0.2765 0.73965 0.0
C699 C 0.03984 0.28062 0.79248 0.0
C700 C 0.02641 0.26031 0.81864 0.0
C701 C 0.04474 0.25573 0.76681 0.0
C702 C 0.0226 0.21445 0.8198 0.0
C703 C 0.02966 0.18921 0.79475 0.0
H704 H 0.31662 0.05412 0.75295 0.0
H705 H 0.20025 0.0364 0.70077 0.0
H706 H 0.15428 0.04864 0.74391 0.0
H707 H 0.14871 0.04533 0.79758 0.0
H708 H 0.266 0.04971 0.85014 0.0
H709 H 0.31018 0.0629 0.80627 0.0
C710 C 0.28118 0.05494 0.75094 0.0
C711 C 0.26159 0.04454 0.724 0.0
C712 C 0.25523 0.05882 0.77621 0.0
C713 C 0.21575 0.04456 0.72147 0.0
C714 C 0.18956 0.05113 0.74615 0.0
C715 C 0.18368 0.05118 0.79938 0.0
C716 C 0.20433 0.04686 0.82675 0.0
C717 C 0.20903 0.05554 0.77389 0.0
C718 C 0.24969 0.05328 0.82911 0.0
C719 C 0.27491 0.06036 0.80403 0.0
H720 H 0.46371 0.16649 0.80584 0.0
H721 H 0.47074 0.29113 0.84983 0.0
H722 H 0.46302 0.32958 0.80278 0.0
H723 H 0.4653 0.32732 0.74875 0.0
H724 H 0.46987 0.20242 0.70489 0.0
H725 H 0.4615 0.16427 0.75192 0.0
C726 C 0.46222 0.20205 0.80508 0.0
C727 C 0.46722 0.22612 0.83109 0.0
C728 C 0.46042 0.22375 0.77784 0.0
C729 C 0.46657 0.27213 0.82997 0.0
C730 C 0.46243 0.29403 0.80309 0.0
C731 C 0.46321 0.29182 0.74956 0.0
C732 C 0.46773 0.26755 0.72358 0.0
C733 C 0.46089 0.27018 0.77681 0.0
C734 C 0.46618 0.22157 0.72474 0.0
C735 C 0.46161 0.19983 0.75159 0.0
H736 H 0.26307 0.45277 0.71013 0.0
H737 H 0.1367 0.44647 0.7519 0.0
H738 H 0.17191 0.43681 0.79979 0.0
H739 H 0.23834 0.44725 0.82988 0.0
H740 H 0.36475 0.45161 0.78809 0.0
H741 H 0.33012 0.4438 0.73991 0.0
C742 C 0.24342 0.44753 0.72964 0.0
C743 C 0.1976 0.45086 0.72781 0.0
C744 C 0.26391 0.44222 0.75701 0.0
C745 C 0.1721 0.44388 0.75297 0.0
C746 C 0.19222 0.43883 0.78035 0.0
C747 C 0.25824 0.4446 0.81024 0.0
C748 C 0.30375 0.45035 0.81221 0.0
C749 C 0.23805 0.44041 0.78272 0.0
C750 C 0.3296 0.44696 0.78689 0.0
C751 C 0.30977 0.44302 0.75937 0.0
H752 H 0.15134 0.75004 0.17006 0.0
H753 H 0.23335 0.63424 0.17091 0.0
H754 H 0.29872 0.68069 0.17254 0.0
H755 H 0.33195 0.75342 0.17364 0.0
H756 H 0.25069 0.86963 0.17031 0.0
H757 H 0.18495 0.82329 0.16967 0.0
C758 C 0.1835 0.73478 0.17083 0.0
C759 C 0.18744 0.68851 0.17077 0.0
C760 C 0.22076 0.76169 0.17127 0.0
C761 C 0.22938 0.66956 0.17108 0.0
C762 C 0.26668 0.69614 0.17203 0.0
C763 C 0.29989 0.76891 0.17306 0.0
C764 C 0.29624 0.81517 0.17252 0.0
C765 C 0.26265 0.74215 0.1722 0.0
C766 C 0.25442 0.8343 0.17094 0.0
C767 C 0.21694 0.80776 0.17059 0.0
H768 H 0.73601 0.15921 0.14366 0.0
H769 H 0.86123 0.22479 0.14334 0.0
H770 H 0.82329 0.29605 0.14302 0.0
H771 H 0.75489 0.33912 0.14392 0.0
H772 H 0.62982 0.27322 0.14312 0.0
H773 H 0.66782 0.20212 0.14274 0.0
C774 C 0.75534 0.18899 0.14365 0.0
C775 C 0.80179 0.18639 0.14393 0.0
C776 C 0.73329 0.22962 0.14328 0.0
C777 C 0.82574 0.22558 0.14326 0.0
C778 C 0.80395 0.26631 0.14313 0.0
C779 C 0.73565 0.30929 0.14377 0.0
C780 C 0.68918 0.31176 0.14391 0.0
C781 C 0.75777 0.26865 0.14335 0.0
C782 C 0.66531 0.27253 0.14314 0.0
C783 C 0.68713 0.23188 0.14296 0.0
H784 H 0.33385 0.75967 0.39656 0.0
H785 H 0.26542 0.63923 0.3776 0.0
H786 H 0.19717 0.681 0.3708 0.0
H787 H 0.15769 0.75135 0.36983 0.0
H788 H 0.22562 0.87139 0.39065 0.0
H789 H 0.29404 0.82973 0.39679 0.0
C790 C 0.3041 0.74227 0.39085 0.0
C791 C 0.30503 0.69608 0.38735 0.0
C792 C 0.26518 0.76648 0.38708 0.0
C793 C 0.26583 0.67448 0.38045 0.0
C794 C 0.22687 0.69846 0.37643 0.0
C795 C 0.1875 0.76876 0.37537 0.0
C796 C 0.18651 0.81488 0.37927 0.0
C797 C 0.22631 0.74446 0.37949 0.0
C798 C 0.22539 0.83625 0.38721 0.0
C799 C 0.26444 0.81234 0.39082 0.0
H800 H 0.74886 0.3349 0.40274 0.0
H801 H 0.8675 0.25721 0.40399 0.0
H802 H 0.82336 0.19004 0.40563 0.0
H803 H 0.7515 0.15404 0.40499 0.0
H804 H 0.63291 0.23183 0.40497 0.0
H805 H 0.67708 0.299 0.40471 0.0
C806 C 0.7653 0.3033 0.40325 0.0
C807 C 0.81167 0.30111 0.40273 0.0
C808 C 0.73975 0.26512 0.4044 0.0
C809 C 0.8321 0.25987 0.40418 0.0
C810 C 0.8068 0.22155 0.40506 0.0
C811 C 0.73509 0.18567 0.40483 0.0
C812 C 0.68871 0.18786 0.40452 0.0
C813 C 0.76067 0.22387 0.40486 0.0
C814 C 0.66832 0.22915 0.40506 0.0
C815 C 0.69363 0.26748 0.40483 0.0
H816 H 0.66117 0.2553 0.9185 0.0
H817 H 0.72367 0.13458 0.89192 0.0
H818 H 0.79314 0.17413 0.88543 0.0
H819 H 0.83457 0.24348 0.88512 0.0
H820 H 0.77204 0.36365 0.91291 0.0
H821 H 0.70342 0.32357 0.92083 0.0
C822 C 0.68997 0.23736 0.91132 0.0
C823 C 0.68694 0.19185 0.90536 0.0
C824 C 0.72943 0.26037 0.90753 0.0
C825 C 0.72493 0.16933 0.8967 0.0
C826 C 0.76452 0.19211 0.89278 0.0
C827 C 0.80587 0.26121 0.89267 0.0
C828 C 0.80834 0.30704 0.8978 0.0
C829 C 0.76688 0.23774 0.89765 0.0
C830 C 0.77107 0.32879 0.90845 0.0
C831 C 0.7319 0.30577 0.91303 0.0
H832 H 0.23849 0.6549 0.87941 0.0
H833 H 0.35967 0.72748 0.87531 0.0
H834 H 0.31812 0.79634 0.8748 0.0
H835 H 0.24833 0.83552 0.87662 0.0
H836 H 0.12676 0.76399 0.88304 0.0
H837 H 0.16795 0.69464 0.88137 0.0
C838 C 0.25602 0.68572 0.8782 0.0
C839 C 0.30247 0.68579 0.87722 0.0
C840 C 0.23188 0.72521 0.87835 0.0
C841 C 0.32422 0.72624 0.87605 0.0
C842 C 0.3004 0.76563 0.87574 0.0
C843 C 0.2304 0.80491 0.87743 0.0
C844 C 0.18409 0.80527 0.87975 0.0
C845 C 0.25431 0.76544 0.87701 0.0
C846 C 0.16212 0.76493 0.88114 0.0
C847 C 0.18576 0.72528 0.88023 0.0
H848 H 0.83767 0.2527 0.64567 0.0
H849 H 0.77211 0.12729 0.64588 0.0
H850 H 0.70109 0.165 0.64612 0.0
H851 H 0.65827 0.23257 0.64604 0.0
H852 H 0.72261 0.35857 0.64448 0.0
H853 H 0.79416 0.3211 0.64489 0.0
C854 C 0.80793 0.23335 0.64594 0.0
C855 C 0.81047 0.18684 0.64599 0.0
C856 C 0.76724 0.25532 0.64576 0.0
C857 C 0.77136 0.16281 0.64592 0.0
C858 C 0.73075 0.18444 0.64606 0.0
C859 C 0.68776 0.25231 0.64597 0.0
C860 C 0.68475 0.29875 0.64553 0.0
C861 C 0.7284 0.23058 0.64597 0.0
C862 C 0.7237 0.32306 0.64493 0.0
C863 C 0.76458 0.30154 0.64519 0.0
H864 H 0.24197 0.83576 0.68034 0.0
H865 H 0.36362 0.76551 0.66768 0.0
H866 H 0.32261 0.69658 0.66353 0.0
H867 H 0.25246 0.65701 0.663 0.0
H868 H 0.1308 0.7282 0.67315 0.0
H869 H 0.17201 0.79666 0.6786 0.0
C870 C 0.25988 0.80538 0.67703 0.0
C871 C 0.30623 0.80588 0.67485 0.0
C872 C 0.23602 0.76628 0.674 0.0
C873 C 0.32827 0.76617 0.66973 0.0
C874 C 0.30473 0.72682 0.6673 0.0
C875 C 0.23471 0.6874 0.66656 0.0
C876 C 0.18828 0.68721 0.66796 0.0
C877 C 0.25863 0.72657 0.66934 0.0
C878 C 0.16624 0.7272 0.67204 0.0
C879 C 0.18988 0.76631 0.67523 0.0
H880 H 0.99168 0.40216 1.02173 0.0
H881 H 0.95479 0.51283 0.96761 0.0
H882 H 0.99318 0.56208 1.00145 0.0
H883 H 0.04192 0.57269 0.04421 0.0
H884 H 0.07996 0.46091 0.09709 0.0
H885 H 0.03768 0.41284 0.065 0.0
C886 C 0.99139 0.43715 1.01735 0.0
C887 C 0.97028 0.45359 0.99188 0.0
C888 C 0.01496 0.46489 0.03619 0.0
C889 C 0.97025 0.49913 0.98701 0.0
C890 C 0.99283 0.52722 1.00617 0.0
C891 C 0.04147 0.53773 0.04864 0.0
C892 C 0.06484 0.52052 0.07305 0.0
C893 C 0.01635 0.51027 0.03035 0.0
C894 C 0.06295 0.47517 0.07845 0.0
C895 C 0.03837 0.44768 0.06023 0.0
H896 H 0.98831 0.97009 0.95652 0.0
H897 H 0.06738 0.896 1.01771 0.0
H898 H 0.03685 0.93784 0.05862 0.0
H899 H 0.98917 -0.00234 0.07717 0.0
H900 H 0.91031 0.07143 1.01569 0.0
H901 H 0.93843 0.02736 0.97527 0.0
C902 C -0.00198 0.96227 0.97885 0.0
C903 C 0.02982 0.92941 0.98393 0.0
C904 C 0.98127 0.98747 1.00234 0.0
C905 C 0.0427 0.92074 1.0131 0.0
C906 C 0.02565 0.9451 0.03653 0.0
C907 C 0.97949 0.00521 0.05479 0.0
C908 C 0.94858 0.03886 0.04948 0.0
C909 C -0.0043 0.97936 0.0314 0.0
C910 C 0.93488 0.0466 1.0204 0.0
C911 C 0.95077 0.02116 0.99721 0.0
H912 H 0.5256 0.08543 0.02933 0.0
H913 H 0.53586 0.97701 0.96895 0.0
H914 H 0.48717 0.93363 1.00025 0.0
H915 H 0.44021 0.92711 0.04413 0.0
H916 H 0.4295 0.03638 0.10382 0.0
H917 H 0.47888 0.07906 0.07286 0.0
C918 C 0.51774 0.05211 1.02301 0.0
C919 C 0.53491 0.03464 0.99663 0.0
C920 C 0.48875 0.02777 0.04071 0.0
C921 C 0.52373 0.9914 0.98908 0.0
C922 C 0.49545 0.96669 1.00688 0.0
C923 C 0.4481 0.96049 0.05027 0.0
C924 C 0.43053 0.97839 0.07642 0.0
C925 C 0.47726 0.98475 0.03254 0.0
C926 C 0.44183 0.02166 0.08386 0.0
C927 C 0.47051 0.04602 0.06625 0.0
H928 H 0.58013 0.47301 1.02259 0.0
H929 H 0.47064 0.45699 0.08147 0.0
H930 H 0.42483 0.50153 0.04858 0.0
H931 H 0.41668 0.54733 1.00406 0.0
H932 H 0.527 0.56365 0.94584 0.0
H933 H 0.57192 0.51777 0.97815 0.0
C934 C 0.54609 0.4787 0.02825 0.0
C935 C 0.52905 0.46129 0.05471 0.0
C936 C 0.52032 0.50539 1.00967 0.0
C937 C 0.48477 0.46944 0.06133 0.0
C938 C 0.45866 0.49539 0.04262 0.0
C939 C 0.45074 0.54145 0.99852 0.0
C940 C 0.46831 0.5596 0.97241 0.0
C941 C 0.47631 0.5142 1.017 0.0
C942 C 0.51247 0.55082 0.96574 0.0
C943 C 0.53813 0.52412 0.98412 0.0
H944 H 0.98234 0.99438 0.57528 0.0
H945 H 0.90518 0.07297 0.51555 0.0
H946 H 0.94739 0.04509 0.47407 0.0
H947 H 0.00659 -0.00175 0.45441 0.0
H948 H 0.08442 0.9204 0.51425 0.0
H949 H 0.04159 0.94755 0.55562 0.0
C950 C 0.97377 0.00421 0.55309 0.0
C951 C 0.9399 0.03507 0.54854 0.0
C952 C -0.00098 0.98881 0.52926 0.0
C953 C 0.93047 0.04864 0.51965 0.0
C954 C 0.95496 0.03307 0.49591 0.0
C955 C 0.01505 0.98827 0.47659 0.0
C956 C 0.04931 0.95786 0.48116 0.0
C957 C 0.98974 0.00358 0.50042 0.0
C958 C 0.05874 0.94428 0.51007 0.0
C959 C 0.03398 0.95954 0.53379 0.0
H960 H 0.41217 0.96625 0.54671 0.0
H961 H 0.52227 0.94194 0.60423 0.0
H962 H 0.5688 0.98703 0.57254 0.0
H963 H 0.57837 0.03279 0.52838 0.0
H964 H 0.4678 0.05782 0.47134 0.0
H965 H 0.42108 0.01412 0.50361 0.0
C966 C 0.44651 0.97017 0.55223 0.0
C967 C 0.46373 0.94979 0.57776 0.0
C968 C 0.47281 -0.00291 0.53429 0.0
C969 C 0.50813 0.95649 0.58465 0.0
C970 C 0.53469 0.98264 0.56661 0.0
C971 C 0.54391 0.02928 0.52307 0.0
C972 C 0.52686 0.04887 0.4972 0.0
C973 C 0.51734 0.00325 0.54145 0.0
C974 C 0.48202 0.04358 0.491 0.0
C975 C 0.45531 0.01812 0.50934 0.0
H976 H 0.49269 0.47889 0.5754 0.0
H977 H 0.58035 0.41648 0.51428 0.0
H978 H 0.53966 0.44847 0.47305 0.0
H979 H 0.47854 0.4943 0.45409 0.0
H980 H 0.39143 0.55715 0.5154 0.0
H981 H 0.43158 0.52441 0.55648 0.0
C982 C 0.50362 0.47338 0.55307 0.0
C983 C 0.54036 0.44631 0.54801 0.0
C984 C 0.4791 0.49079 0.52936 0.0
C985 C 0.55291 0.43806 0.51883 0.0
C986 C 0.52924 0.45588 0.4952 0.0
C987 C 0.46747 0.49957 0.47642 0.0
C988 C 0.43121 0.5273 0.48158 0.0
C989 C 0.49183 0.48178 0.50013 0.0
C990 C 0.41844 0.53506 0.51076 0.0
C991 C 0.44182 0.51681 0.53433 0.0
H992 H 0.07715 0.54371 0.53839 0.0
H993 H 0.96666 0.5569 0.59682 0.0
H994 H 0.92446 0.50666 0.5661 0.0
H995 H 0.9192 0.45797 0.52323 0.0
H996 H 0.03013 0.444 0.46527 0.0
H997 H 0.0722 0.49441 0.4959 0.0
C998 C 0.04362 0.53617 0.54435 0.0
C999 C 0.02524 0.55462 0.57005 0.0
C1000 C 0.01989 0.50619 0.52701 0.0
C1001 C 0.98178 0.54377 0.57722 0.0
C1002 C 0.95771 0.51461 0.55976 0.0
C1003 C 0.95279 0.46541 0.51737 0.0
C1004 C 0.97132 0.44673 0.4918 0.0
C1005 C 0.9766 0.4952 0.53481 0.0
C1006 C 0.01491 0.45728 0.48478 0.0
C1007 C 0.0389 0.48658 0.50218 0.0
H1008 H 0.04208 0.48301 0.34162 0.0
H1009 H 0.95188 0.38658 0.3086 0.0
H1010 H 0.97687 0.40092 0.25844 0.0
H1011 H 0.01395 0.45127 0.22377 0.0
H1012 H 0.10601 0.54594 0.25682 0.0
H1013 H 0.09156 0.52144 0.30712 0.0
C1014 C 0.02926 0.46383 0.32353 0.0
C1015 C -0.00483 0.4337 0.32884 0.0
C1016 C 0.04369 0.47252 0.2947 0.0
C1017 C 0.97853 0.40941 0.3052 0.0
C1018 C 0.99242 0.41811 0.27643 0.0
C1019 C 0.03208 0.46533 0.24193 0.0
C1020 C 0.06097 0.5005 0.23657 0.0
C1021 C 0.02349 0.45104 0.27083 0.0
C1022 C 0.08406 0.51857 0.26029 0.0
C1023 C 0.07535 0.50488 0.28912 0.0
H1024 H 0.06489 0.95622 0.29002 0.0
H1025 H 0.97016 0.02724 0.34144 0.0
H1026 H 0.94314 0.0645 0.2974 0.0
H1027 H 0.93737 0.0668 0.24336 0.0
H1028 H 0.02752 0.99097 0.19149 0.0
H1029 H 0.06575 0.96663 0.23598 0.0
C1030 C 0.03957 0.98114 0.29166 0.0
C1031 C 0.01992 0.98927 0.31909 0.0
C1032 C 0.02287 0.00131 0.26586 0.0
C1033 C 0.98614 0.02071 0.32068 0.0
C1034 C 0.97039 0.04181 0.29541 0.0
C1035 C 0.96662 0.0466 0.2418 0.0
C1036 C 0.98022 0.03159 0.21408 0.0
C1037 C 0.98723 0.03108 0.2677 0.0
C1038 C 0.01707 0.00384 0.2125 0.0
C1039 C 0.0386 0.98943 0.23803 0.0
H1040 H 0.45416 0.01017 0.34627 0.0
H1041 H 0.54636 0.10388 0.31214 0.0
H1042 H 0.5203 0.08974 0.26219 0.0
H1043 H 0.48137 0.04005 0.22804 0.0
H1044 H 0.38724 0.94829 0.26216 0.0
H1045 H 0.40317 0.97274 0.31225 0.0
C1046 C 0.46716 0.02888 0.32799 0.0
C1047 C 0.5021 0.05817 0.33294 0.0
C1048 C 0.45211 0.02029 0.29927 0.0
C1049 C 0.51904 0.08177 0.30903 0.0
C1050 C 0.50454 0.07315 0.28038 0.0
C1051 C 0.46312 0.02669 0.2464 0.0
C1052 C 0.4331 0.99241 0.24141 0.0
C1053 C 0.47253 0.041 0.27516 0.0
C1054 C 0.40998 0.97506 0.26536 0.0
C1055 C 0.41952 0.98872 0.29406 0.0
H1056 H 0.49184 0.47583 0.32465 0.0
H1057 H 0.40444 0.57445 0.28998 0.0
H1058 H 0.421 0.5506 0.23988 0.0
H1059 H 0.47037 0.51029 0.20619 0.0
H1060 H 0.55547 0.40948 0.24067 0.0
H1061 H 0.52923 0.42464 0.29044 0.0
C1062 C 0.47507 0.49083 0.30613 0.0
C1063 C 0.44659 0.52665 0.31104 0.0
C1064 C 0.48484 0.47682 0.27732 0.0
C1065 C 0.42575 0.54636 0.28684 0.0
C1066 C 0.43569 0.53302 0.25815 0.0
C1067 C 0.48183 0.49045 0.22449 0.0
C1068 C 0.51475 0.45862 0.21968 0.0
C1069 C 0.46653 0.49947 0.2531 0.0
C1070 C 0.52969 0.43358 0.24365 0.0
C1071 C 0.51507 0.44272 0.27221 0.0
H1072 H 0.04424 0.56928 0.75907 0.0
H1073 H 0.9576 0.49475 0.70387 0.0
H1074 H 0.9205 0.46518 0.74703 0.0
H1075 H 0.9226 0.44918 0.80025 0.0
H1076 H 0.0124 0.51996 0.85533 0.0
H1077 H 0.03755 0.56266 0.81311 0.0
C1078 C 0.01595 0.54818 0.75656 0.0
C1079 C 0.00332 0.53474 0.72823 0.0
C1080 C -0.00431 0.52989 0.78171 0.0
C1081 C 0.96752 0.50612 0.72539 0.0
C1082 C 0.94657 0.48877 0.75013 0.0
C1083 C 0.94611 0.47541 0.80317 0.0
C1084 C 0.96495 0.48198 0.83103 0.0
C1085 C 0.96164 0.49881 0.77843 0.0
C1086 C -0.0033 0.51495 0.83425 0.0
C1087 C 0.01153 0.53902 0.80998 0.0
H1088 H 0.9269 0.04866 0.74428 0.0
H1089 H 0.00551 0.96085 0.69244 0.0
H1090 H 0.03049 0.92294 0.73688 0.0
H1091 H 0.03983 0.92295 0.79104 0.0
H1092 H 0.96507 0.01461 0.84259 0.0
H1093 H 0.92848 0.04195 0.79841 0.0
C1094 C 0.94795 0.02002 0.74271 0.0
C1095 C 0.96349 0.00701 0.71497 0.0
C1096 C 0.96361 -0.00064 0.76862 0.0
C1097 C 0.99227 0.97091 0.71344 0.0
C1098 C 0.00701 0.9495 0.73894 0.0
C1099 C 0.01426 0.94763 0.79266 0.0
C1100 C 0.00482 0.96624 0.82023 0.0
C1101 C 0.99429 0.96447 0.76678 0.0
C1102 C 0.97258 -0.00069 0.82174 0.0
C1103 C 0.95186 0.01529 0.79638 0.0
H1104 H 0.44778 0.93429 0.76215 0.0
H1105 H 0.50101 0.03885 0.70944 0.0
H1106 H 0.53967 0.06789 0.752 0.0
H1107 H 0.54966 0.07033 0.80563 0.0
H1108 H 0.49213 0.96987 0.85949 0.0
H1109 H 0.46489 0.93224 0.81563 0.0
C1110 C 0.46894 0.96258 0.75987 0.0
C1111 C 0.47152 0.98422 0.73251 0.0
C1112 C 0.49025 0.98015 0.78492 0.0
C1113 C 0.4984 0.0215 0.73016 0.0
C1114 C 0.52047 0.03829 0.75458 0.0
C1115 C 0.53277 0.03921 0.80761 0.0
C1116 C 0.52405 0.02224 0.83575 0.0
C1117 C 0.51555 0.01882 0.78228 0.0
C1118 C 0.50035 0.98292 0.83805 0.0
C1119 C 0.48425 0.9617 0.81293 0.0
H1120 H 0.43808 0.5646 0.78032 0.0
H1121 H 0.54223 0.50975 0.83273 0.0
H1122 H 0.57683 0.47953 0.78875 0.0
H1123 H 0.56976 0.45701 0.73654 0.0
H1124 H 0.46225 0.50816 0.68526 0.0
H1125 H 0.43735 0.55169 0.7269 0.0
C1126 C 0.46947 0.54791 0.78187 0.0
C1127 C 0.48809 0.54044 0.80974 0.0
C1128 C 0.4882 0.52894 0.75649 0.0
C1129 C 0.52782 0.51698 0.81149 0.0
C1130 C 0.5473 0.49909 0.78632 0.0
C1131 C 0.54196 0.47902 0.73421 0.0
C1132 C 0.51811 0.47947 0.70767 0.0
C1133 C 0.5268 0.50315 0.7588 0.0
C1134 C 0.48138 0.50736 0.70534 0.0
C1135 C 0.46688 0.53211 0.72927 0.0
loop_
_geom_bond_atom_site_label_1
_geom_bond_atom_site_label_2
_geom_bond_distance
_geom_bond_site_symmetry_2
_ccdc_geom_bond_type
O0 Zn1 1.953 . S
O0 C16 1.225 . S
Zn1 O0 1.953 . S
Zn1 O2 1.949 . S
Zn1 O8 1.919 . S
Zn1 O13 1.924 . S
O2 Zn1 1.949 . S
O2 Zn3 1.923 1_455 S
O2 Zn4 1.950 . S
O2 Zn5 1.945 . S
Zn3 O2 1.923 1_655 S
Zn3 O6 1.933 . S
Zn3 O9 1.941 1_655 S
Zn3 O10 1.965 . S
Zn4 O2 1.950 . S
Zn4 O11 1.938 1_455 S
Zn4 O12 1.906 1_455 S
Zn4 O22 1.953 . S
Zn5 O2 1.945 . S
Zn5 O7 1.932 . S
Zn5 O14 1.977 . S
Zn5 O15 1.910 . S
O6 Zn3 1.933 . S
O6 C17 1.226 1_655 S
O7 Zn5 1.932 . S
O7 C17 1.307 . S
O8 Zn1 1.919 . S
O8 C19 1.253 . S
O9 Zn3 1.941 1_455 S
O9 C19 1.283 . S
O10 Zn3 1.965 . S
O10 C18 1.303 . S
O11 Zn4 1.938 1_655 S
O11 C18 1.247 . S
O12 Zn4 1.906 1_655 S
O12 C20 1.304 1_655 S
O13 Zn1 1.924 . S
O13 C21 1.311 . S
O14 Zn5 1.977 . S
O14 C20 1.272 . S
O15 Zn5 1.910 . S
O15 C21 1.231 . S
C16 O0 1.225 . S
C16 O22 1.298 . S
C17 O6 1.226 1_455 S
C17 O7 1.307 . S
C18 O10 1.303 . S
C18 O11 1.247 . S
C19 O8 1.253 . S
C19 O9 1.283 . S
C20 O12 1.304 1_455 S
C20 O14 1.272 . S
C21 O13 1.311 . S
C21 O15 1.231 . S
O22 Zn4 1.953 . S
O22 C16 1.298 . S
O23 Zn24 1.953 . S
O23 C39 1.225 . S
Zn24 O23 1.953 . S
Zn24 O25 1.949 . S
Zn24 O31 1.919 . S
Zn24 O36 1.924 . S
O25 Zn24 1.949 . S
O25 Zn26 1.923 1_545 S
O25 Zn27 1.950 . S
O25 Zn28 1.945 . S
Zn26 O25 1.923 1_565 S
Zn26 O29 1.933 . S
Zn26 O32 1.941 1_565 S
Zn26 O33 1.965 . S
Zn27 O25 1.950 . S
Zn27 O34 1.938 1_545 S
Zn27 O35 1.906 1_545 S
Zn27 O45 1.953 . S
Zn28 O25 1.945 . S
Zn28 O30 1.932 . S
Zn28 O37 1.977 . S
Zn28 O38 1.910 . S
O29 Zn26 1.933 . S
O29 C40 1.226 1_565 S
O30 Zn28 1.932 . S
O30 C40 1.307 . S
O31 Zn24 1.919 . S
O31 C42 1.253 . S
O32 Zn26 1.941 1_545 S
O32 C42 1.283 . S
O33 Zn26 1.965 . S
O33 C41 1.303 . S
O34 Zn27 1.938 1_565 S
O34 C41 1.247 . S
O35 Zn27 1.906 1_565 S
O35 C43 1.304 1_565 S
O36 Zn24 1.924 . S
O36 C44 1.311 . S
O37 Zn28 1.977 . S
O37 C43 1.272 . S
O38 Zn28 1.910 . S
O38 C44 1.231 . S
C39 O23 1.225 . S
C39 O45 1.298 . S
C40 O29 1.226 1_545 S
C40 O30 1.307 . S
C41 O33 1.303 . S
C41 O34 1.247 . S
C42 O31 1.253 . S
C42 O32 1.283 . S
C43 O35 1.304 1_545 S
C43 O37 1.272 . S
C44 O36 1.311 . S
C44 O38 1.231 . S
O45 Zn27 1.953 . S
O45 C39 1.298 . S
O46 Zn47 1.953 . S
O46 C62 1.225 . S
Zn47 O46 1.953 . S
Zn47 O48 1.949 . S
Zn47 O54 1.919 . S
Zn47 O59 1.924 . S
O48 Zn47 1.949 . S
O48 Zn49 1.923 . S
O48 Zn50 1.950 . S
O48 Zn51 1.945 . S
Zn49 O48 1.923 . S
Zn49 O52 1.933 . S
Zn49 O55 1.941 . S
Zn49 O56 1.965 . S
Zn50 O48 1.950 . S
Zn50 O57 1.938 . S
Zn50 O58 1.906 . S
Zn50 O68 1.953 . S
Zn51 O48 1.945 . S
Zn51 O53 1.932 . S
Zn51 O60 1.977 . S
Zn51 O61 1.910 . S
O52 Zn49 1.933 . S
O52 C63 1.226 . S
O53 Zn51 1.932 . S
O53 C63 1.307 . S
O54 Zn47 1.919 . S
O54 C65 1.253 . S
O55 Zn49 1.941 . S
O55 C65 1.283 . S
O56 Zn49 1.965 . S
O56 C64 1.303 . S
O57 Zn50 1.938 . S
O57 C64 1.247 . S
O58 Zn50 1.906 . S
O58 C66 1.304 . S
O59 Zn47 1.924 . S
O59 C67 1.311 . S
O60 Zn51 1.977 . S
O60 C66 1.272 . S
O61 Zn51 1.910 . S
O61 C67 1.231 . S
C62 O46 1.225 . S
C62 O68 1.298 . S
C63 O52 1.226 . S
C63 O53 1.307 . S
C64 O56 1.303 . S
C64 O57 1.247 . S
C65 O54 1.253 . S
C65 O55 1.283 . S
C66 O58 1.304 . S
C66 O60 1.272 . S
C67 O59 1.311 . S
C67 O61 1.231 . S
O68 Zn50 1.953 . S
O68 C62 1.298 . S
O69 Zn70 1.953 . S
O69 C85 1.225 . S
Zn70 O69 1.953 . S
Zn70 O71 1.949 . S
Zn70 O77 1.919 . S
Zn70 O82 1.924 . S
O71 Zn70 1.949 . S
O71 Zn72 1.923 . S
O71 Zn73 1.950 . S
O71 Zn74 1.945 . S
Zn72 O71 1.923 . S
Zn72 O75 1.933 . S
Zn72 O78 1.941 . S
Zn72 O79 1.965 . S
Zn73 O71 1.950 . S
Zn73 O80 1.938 . S
Zn73 O81 1.906 . S
Zn73 O91 1.953 . S
Zn74 O71 1.945 . S
Zn74 O76 1.932 . S
Zn74 O83 1.977 . S
Zn74 O84 1.910 . S
O75 Zn72 1.933 . S
O75 C86 1.226 . S
O76 Zn74 1.932 . S
O76 C86 1.307 . S
O77 Zn70 1.919 . S
O77 C88 1.253 . S
O78 Zn72 1.941 . S
O78 C88 1.283 . S
O79 Zn72 1.965 . S
O79 C87 1.303 . S
O80 Zn73 1.938 . S
O80 C87 1.247 . S
O81 Zn73 1.906 . S
O81 C89 1.304 . S
O82 Zn70 1.924 . S
O82 C90 1.311 . S
O83 Zn74 1.977 . S
O83 C89 1.272 . S
O84 Zn74 1.910 . S
O84 C90 1.231 . S
C85 O69 1.225 . S
C85 O91 1.298 . S
C86 O75 1.226 . S
C86 O76 1.307 . S
C87 O79 1.303 . S
C87 O80 1.247 . S
C88 O77 1.253 . S
C88 O78 1.283 . S
C89 O81 1.304 . S
C89 O83 1.272 . S
C90 O82 1.311 . S
C90 O84 1.231 . S
O91 Zn73 1.953 . S
O91 C85 1.298 . S
O92 Zn93 1.953 . S
O92 C108 1.225 . S
Zn93 O92 1.953 . S
Zn93 O94 1.949 . S
Zn93 O100 1.919 . S
Zn93 O105 1.924 . S
O94 Zn93 1.949 . S
O94 Zn95 1.923 1_455 S
O94 Zn96 1.950 . S
O94 Zn97 1.945 . S
Zn95 O94 1.923 1_655 S
Zn95 O98 1.933 . S
Zn95 O101 1.941 1_655 S
Zn95 O102 1.965 . S
Zn96 O94 1.950 . S
Zn96 O103 1.938 1_455 S
Zn96 O104 1.906 1_455 S
Zn96 O114 1.953 . S
Zn97 O94 1.945 . S
Zn97 O99 1.932 . S
Zn97 O106 1.977 . S
Zn97 O107 1.910 . S
O98 Zn95 1.933 . S
O98 C109 1.226 1_655 S
O99 Zn97 1.932 . S
O99 C109 1.307 . S
O100 Zn93 1.919 . S
O100 C111 1.253 . S
O101 Zn95 1.941 1_455 S
O101 C111 1.283 . S
O102 Zn95 1.965 . S
O102 C110 1.303 . S
O103 Zn96 1.938 1_655 S
O103 C110 1.247 . S
O104 Zn96 1.906 1_655 S
O104 C112 1.304 1_655 S
O105 Zn93 1.924 . S
O105 C113 1.311 . S
O106 Zn97 1.977 . S
O106 C112 1.272 . S
O107 Zn97 1.910 . S
O107 C113 1.231 . S
C108 O92 1.225 . S
C108 O114 1.298 . S
C109 O98 1.226 1_455 S
C109 O99 1.307 . S
C110 O102 1.303 . S
C110 O103 1.247 . S
C111 O100 1.253 . S
C111 O101 1.283 . S
C112 O104 1.304 1_455 S
C112 O106 1.272 . S
C113 O105 1.311 . S
C113 O107 1.231 . S
O114 Zn96 1.953 . S
O114 C108 1.298 . S
O115 Zn116 1.953 . S
O115 C131 1.225 . S
Zn116 O115 1.953 . S
Zn116 O117 1.949 . S
Zn116 O123 1.919 . S
Zn116 O128 1.924 . S
O117 Zn116 1.949 . S
O117 Zn118 1.923 1_545 S
O117 Zn119 1.950 . S
O117 Zn120 1.945 . S
Zn118 O117 1.923 1_565 S
Zn118 O121 1.933 . S
Zn118 O124 1.941 1_565 S
Zn118 O125 1.965 . S
Zn119 O117 1.950 . S
Zn119 O126 1.938 1_545 S
Zn119 O127 1.906 1_545 S
Zn119 O137 1.953 . S
Zn120 O117 1.945 . S
Zn120 O122 1.932 . S
Zn120 O129 1.977 . S
Zn120 O130 1.910 . S
O121 Zn118 1.933 . S
O121 C132 1.226 1_565 S
O122 Zn120 1.932 . S
O122 C132 1.307 . S
O123 Zn116 1.919 . S
O123 C134 1.253 . S
O124 Zn118 1.941 1_545 S
O124 C134 1.283 . S
O125 Zn118 1.965 . S
O125 C133 1.303 . S
O126 Zn119 1.938 1_565 S
O126 C133 1.247 . S
O127 Zn119 1.906 1_565 S
O127 C135 1.304 1_565 S
O128 Zn116 1.924 . S
O128 C136 1.311 . S
O129 Zn120 1.977 . S
O129 C135 1.272 . S
O130 Zn120 1.910 . S
O130 C136 1.231 . S
C131 O115 1.225 . S
C131 O137 1.298 . S
C132 O121 1.226 1_545 S
C132 O122 1.307 . S
C133 O125 1.303 . S
C133 O126 1.247 . S
C134 O123 1.253 . S
C134 O124 1.283 . S
C135 O127 1.304 1_545 S
C135 O129 1.272 . S
C136 O128 1.311 . S
C136 O130 1.231 . S
O137 Zn119 1.953 . S
O137 C131 1.298 . S
O138 Zn139 1.953 . S
O138 C154 1.225 . S
Zn139 O138 1.953 . S
Zn139 O140 1.949 . S
Zn139 O146 1.919 . S
Zn139 O151 1.924 . S
O140 Zn139 1.949 . S
O140 Zn141 1.923 . S
O140 Zn142 1.950 . S
O140 Zn143 1.945 . S
Zn141 O140 1.923 . S
Zn141 O144 1.933 . S
Zn141 O147 1.941 . S
Zn141 O148 1.965 . S
Zn142 O140 1.950 . S
Zn142 O149 1.938 . S
Zn142 O150 1.906 . S
Zn142 O160 1.953 . S
Zn143 O140 1.945 . S
Zn143 O145 1.932 . S
Zn143 O152 1.977 . S
Zn143 O153 1.910 . S
O144 Zn141 1.933 . S
O144 C155 1.226 . S
O145 Zn143 1.932 . S
O145 C155 1.307 . S
O146 Zn139 1.919 . S
O146 C157 1.253 . S
O147 Zn141 1.941 . S
O147 C157 1.283 . S
O148 Zn141 1.965 . S
O148 C156 1.303 . S
O149 Zn142 1.938 . S
O149 C156 1.247 . S
O150 Zn142 1.906 . S
O150 C158 1.304 . S
O151 Zn139 1.924 . S
O151 C159 1.311 . S
O152 Zn143 1.977 . S
O152 C158 1.272 . S
O153 Zn143 1.910 . S
O153 C159 1.231 . S
C154 O138 1.225 . S
C154 O160 1.298 . S
C155 O144 1.226 . S
C155 O145 1.307 . S
C156 O148 1.303 . S
C156 O149 1.247 . S
C157 O146 1.253 . S
C157 O147 1.283 . S
C158 O150 1.304 . S
C158 O152 1.272 . S
C159 O151 1.311 . S
C159 O153 1.231 . S
O160 Zn142 1.953 . S
O160 C154 1.298 . S
O161 Zn162 1.953 . S
O161 C177 1.225 . S
Zn162 O161 1.953 . S
Zn162 O163 1.949 . S
Zn162 O169 1.919 . S
Zn162 O174 1.924 . S
O163 Zn162 1.949 . S
O163 Zn164 1.923 . S
O163 Zn165 1.950 . S
O163 Zn166 1.945 . S
Zn164 O163 1.923 . S
Zn164 O167 1.933 . S
Zn164 O170 1.941 . S
Zn164 O171 1.965 . S
Zn165 O163 1.950 . S
Zn165 O172 1.938 . S
Zn165 O173 1.906 . S
Zn165 O183 1.953 . S
Zn166 O163 1.945 . S
Zn166 O168 1.932 . S
Zn166 O175 1.977 . S
Zn166 O176 1.910 . S
O167 Zn164 1.933 . S
O167 C178 1.226 . S
O168 Zn166 1.932 . S
O168 C178 1.307 . S
O169 Zn162 1.919 . S
O169 C180 1.253 . S
O170 Zn164 1.941 . S
O170 C180 1.283 . S
O171 Zn164 1.965 . S
O171 C179 1.303 . S
O172 Zn165 1.938 . S
O172 C179 1.247 . S
O173 Zn165 1.906 . S
O173 C181 1.304 . S
O174 Zn162 1.924 . S
O174 C182 1.311 . S
O175 Zn166 1.977 . S
O175 C181 1.272 . S
O176 Zn166 1.910 . S
O176 C182 1.231 . S
C177 O161 1.225 . S
C177 O183 1.298 . S
C178 O167 1.226 . S
C178 O168 1.307 . S
C179 O171 1.303 . S
C179 O172 1.247 . S
C180 O169 1.253 . S
C180 O170 1.283 . S
C181 O173 1.304 . S
C181 O175 1.272 . S
C182 O174 1.311 . S
C182 O176 1.231 . S
O183 Zn165 1.953 . S
O183 C177 1.298 . S
O184 Zn185 1.953 . S
O184 C200 1.225 . S
Zn185 O184 1.953 . S
Zn185 O186 1.949 . S
Zn185 O192 1.919 . S
Zn185 O197 1.924 . S
O186 Zn185 1.949 . S
O186 Zn187 1.923 1_655 S
O186 Zn188 1.950 . S
O186 Zn189 1.945 . S
Zn187 O186 1.923 1_455 S
Zn187 O190 1.933 . S
Zn187 O193 1.941 1_455 S
Zn187 O194 1.965 . S
Zn188 O186 1.950 . S
Zn188 O195 1.938 1_655 S
Zn188 O196 1.906 1_655 S
Zn188 O206 1.953 . S
Zn189 O186 1.945 . S
Zn189 O191 1.932 . S
Zn189 O198 1.977 . S
Zn189 O199 1.910 . S
O190 Zn187 1.933 . S
O190 C201 1.226 1_455 S
O191 Zn189 1.932 . S
O191 C201 1.307 . S
O192 Zn185 1.919 . S
O192 C203 1.253 . S
O193 Zn187 1.941 1_655 S
O193 C203 1.283 . S
O194 Zn187 1.965 . S
O194 C202 1.303 . S
O195 Zn188 1.938 1_455 S
O195 C202 1.247 . S
O196 Zn188 1.906 1_455 S
O196 C204 1.304 1_455 S
O197 Zn185 1.924 . S
O197 C205 1.311 . S
O198 Zn189 1.977 . S
O198 C204 1.272 . S
O199 Zn189 1.910 . S
O199 C205 1.231 . S
C200 O184 1.225 . S
C200 O206 1.298 . S
C201 O190 1.226 1_655 S
C201 O191 1.307 . S
C202 O194 1.303 . S
C202 O195 1.247 . S
C203 O192 1.253 . S
C203 O193 1.283 . S
C204 O196 1.304 1_655 S
C204 O198 1.272 . S
C205 O197 1.311 . S
C205 O199 1.231 . S
O206 Zn188 1.953 . S
O206 C200 1.298 . S
O207 Zn208 1.953 . S
O207 C223 1.225 . S
Zn208 O207 1.953 . S
Zn208 O209 1.949 . S
Zn208 O215 1.919 . S
Zn208 O220 1.924 . S
O209 Zn208 1.949 . S
O209 Zn210 1.923 1_565 S
O209 Zn211 1.950 . S
O209 Zn212 1.945 . S
Zn210 O209 1.923 1_545 S
Zn210 O213 1.933 . S
Zn210 O216 1.941 1_545 S
Zn210 O217 1.965 . S
Zn211 O209 1.950 . S
Zn211 O218 1.938 1_565 S
Zn211 O219 1.906 1_565 S
Zn211 O229 1.953 . S
Zn212 O209 1.945 . S
Zn212 O214 1.932 . S
Zn212 O221 1.977 . S
Zn212 O222 1.910 . S
O213 Zn210 1.933 . S
O213 C224 1.226 1_545 S
O214 Zn212 1.932 . S
O214 C224 1.307 . S
O215 Zn208 1.919 . S
O215 C226 1.253 . S
O216 Zn210 1.941 1_565 S
O216 C226 1.283 . S
O217 Zn210 1.965 . S
O217 C225 1.303 . S
O218 Zn211 1.938 1_545 S
O218 C225 1.247 . S
O219 Zn211 1.906 1_545 S
O219 C227 1.304 1_545 S
O220 Zn208 1.924 . S
O220 C228 1.311 . S
O221 Zn212 1.977 . S
O221 C227 1.272 . S
O222 Zn212 1.910 . S
O222 C228 1.231 . S
C223 O207 1.225 . S
C223 O229 1.298 . S
C224 O213 1.226 1_565 S
C224 O214 1.307 . S
C225 O217 1.303 . S
C225 O218 1.247 . S
C226 O215 1.253 . S
C226 O216 1.283 . S
C227 O219 1.304 1_565 S
C227 O221 1.272 . S
C228 O220 1.311 . S
C228 O222 1.231 . S
O229 Zn211 1.953 . S
O229 C223 1.298 . S
O230 Zn231 1.953 . S
O230 C246 1.225 . S
Zn231 O230 1.953 . S
Zn231 O232 1.949 . S
Zn231 O238 1.919 . S
Zn231 O243 1.924 . S
O232 Zn231 1.949 . S
O232 Zn233 1.923 . S
O232 Zn234 1.950 . S
O232 Zn235 1.945 . S
Zn233 O232 1.923 . S
Zn233 O236 1.933 . S
Zn233 O239 1.941 . S
Zn233 O240 1.965 . S
Zn234 O232 1.950 . S
Zn234 O241 1.938 . S
Zn234 O242 1.906 . S
Zn234 O252 1.953 . S
Zn235 O232 1.945 . S
Zn235 O237 1.932 . S
Zn235 O244 1.977 . S
Zn235 O245 1.910 . S
O236 Zn233 1.933 . S
O236 C247 1.226 . S
O237 Zn235 1.932 . S
O237 C247 1.307 . S
O238 Zn231 1.919 . S
O238 C249 1.253 . S
O239 Zn233 1.941 . S
O239 C249 1.283 . S
O240 Zn233 1.965 . S
O240 C248 1.303 . S
O241 Zn234 1.938 . S
O241 C248 1.247 . S
O242 Zn234 1.906 . S
O242 C250 1.304 . S
O243 Zn231 1.924 . S
O243 C251 1.311 . S
O244 Zn235 1.977 . S
O244 C250 1.272 . S
O245 Zn235 1.910 . S
O245 C251 1.231 . S
C246 O230 1.225 . S
C246 O252 1.298 . S
C247 O236 1.226 . S
C247 O237 1.307 . S
C248 O240 1.303 . S
C248 O241 1.247 . S
C249 O238 1.253 . S
C249 O239 1.283 . S
C250 O242 1.304 . S
C250 O244 1.272 . S
C251 O243 1.311 . S
C251 O245 1.231 . S
O252 Zn234 1.953 . S
O252 C246 1.298 . S
O253 Zn254 1.953 . S
O253 C269 1.225 . S
Zn254 O253 1.953 . S
Zn254 O255 1.949 . S
Zn254 O261 1.919 . S
Zn254 O266 1.924 . S
O255 Zn254 1.949 . S
O255 Zn256 1.923 . S
O255 Zn257 1.950 . S
O255 Zn258 1.945 . S
Zn256 O255 1.923 . S
Zn256 O259 1.933 . S
Zn256 O262 1.941 . S
Zn256 O263 1.965 . S
Zn257 O255 1.950 . S
Zn257 O264 1.938 . S
Zn257 O265 1.906 . S
Zn257 O275 1.953 . S
Zn258 O255 1.945 . S
Zn258 O260 1.932 . S
Zn258 O267 1.977 . S
Zn258 O268 1.910 . S
O259 Zn256 1.933 . S
O259 C270 1.226 . S
O260 Zn258 1.932 . S
O260 C270 1.307 . S
O261 Zn254 1.919 . S
O261 C272 1.253 . S
O262 Zn256 1.941 . S
O262 C272 1.283 . S
O263 Zn256 1.965 . S
O263 C271 1.303 . S
O264 Zn257 1.938 . S
O264 C271 1.247 . S
O265 Zn257 1.906 . S
O265 C273 1.304 . S
O266 Zn254 1.924 . S
O266 C274 1.311 . S
O267 Zn258 1.977 . S
O267 C273 1.272 . S
O268 Zn258 1.910 . S
O268 C274 1.231 . S
C269 O253 1.225 . S
C269 O275 1.298 . S
C270 O259 1.226 . S
C270 O260 1.307 . S
C271 O263 1.303 . S
C271 O264 1.247 . S
C272 O261 1.253 . S
C272 O262 1.283 . S
C273 O265 1.304 . S
C273 O267 1.272 . S
C274 O266 1.311 . S
C274 O268 1.231 . S
O275 Zn257 1.953 . S
O275 C269 1.298 . S
O276 Zn277 1.953 . S
O276 C292 1.225 . S
Zn277 O276 1.953 . S
Zn277 O278 1.949 . S
Zn277 O284 1.919 . S
Zn277 O289 1.924 . S
O278 Zn277 1.949 . S
O278 Zn279 1.923 1_655 S
O278 Zn280 1.950 . S
O278 Zn281 1.945 . S
Zn279 O278 1.923 1_455 S
Zn279 O282 1.933 . S
Zn279 O285 1.941 1_455 S
Zn279 O286 1.965 . S
Zn280 O278 1.950 . S
Zn280 O287 1.938 1_655 S
Zn280 O288 1.906 1_655 S
Zn280 O298 1.953 . S
Zn281 O278 1.945 . S
Zn281 O283 1.932 . S
Zn281 O290 1.977 . S
Zn281 O291 1.910 . S
O282 Zn279 1.933 . S
O282 C293 1.226 1_455 S
O283 Zn281 1.932 . S
O283 C293 1.307 . S
O284 Zn277 1.919 . S
O284 C295 1.253 . S
O285 Zn279 1.941 1_655 S
O285 C295 1.283 . S
O286 Zn279 1.965 . S
O286 C294 1.303 . S
O287 Zn280 1.938 1_455 S
O287 C294 1.247 . S
O288 Zn280 1.906 1_455 S
O288 C296 1.304 1_455 S
O289 Zn277 1.924 . S
O289 C297 1.311 . S
O290 Zn281 1.977 . S
O290 C296 1.272 . S
O291 Zn281 1.910 . S
O291 C297 1.231 . S
C292 O276 1.225 . S
C292 O298 1.298 . S
C293 O282 1.226 1_655 S
C293 O283 1.307 . S
C294 O286 1.303 . S
C294 O287 1.247 . S
C295 O284 1.253 . S
C295 O285 1.283 . S
C296 O288 1.304 1_655 S
C296 O290 1.272 . S
C297 O289 1.311 . S
C297 O291 1.231 . S
O298 Zn280 1.953 . S
O298 C292 1.298 . S
O299 Zn300 1.953 . S
O299 C315 1.225 . S
Zn300 O299 1.953 . S
Zn300 O301 1.949 . S
Zn300 O307 1.919 . S
Zn300 O312 1.924 . S
O301 Zn300 1.949 . S
O301 Zn302 1.923 1_565 S
O301 Zn303 1.950 . S
O301 Zn304 1.945 . S
Zn302 O301 1.923 1_545 S
Zn302 O305 1.933 . S
Zn302 O308 1.941 1_545 S
Zn302 O309 1.965 . S
Zn303 O301 1.950 . S
Zn303 O310 1.938 1_565 S
Zn303 O311 1.906 1_565 S
Zn303 O321 1.953 . S
Zn304 O301 1.945 . S
Zn304 O306 1.932 . S
Zn304 O313 1.977 . S
Zn304 O314 1.910 . S
O305 Zn302 1.933 . S
O305 C316 1.226 1_545 S
O306 Zn304 1.932 . S
O306 C316 1.307 . S
O307 Zn300 1.919 . S
O307 C318 1.253 . S
O308 Zn302 1.941 1_565 S
O308 C318 1.283 . S
O309 Zn302 1.965 . S
O309 C317 1.303 . S
O310 Zn303 1.938 1_545 S
O310 C317 1.247 . S
O311 Zn303 1.906 1_545 S
O311 C319 1.304 1_545 S
O312 Zn300 1.924 . S
O312 C320 1.311 . S
O313 Zn304 1.977 . S
O313 C319 1.272 . S
O314 Zn304 1.910 . S
O314 C320 1.231 . S
C315 O299 1.225 . S
C315 O321 1.298 . S
C316 O305 1.226 1_565 S
C316 O306 1.307 . S
C317 O309 1.303 . S
C317 O310 1.247 . S
C318 O307 1.253 . S
C318 O308 1.283 . S
C319 O311 1.304 1_565 S
C319 O313 1.272 . S
C320 O312 1.311 . S
C320 O314 1.231 . S
O321 Zn303 1.953 . S
O321 C315 1.298 . S
O322 Zn323 1.953 . S
O322 C338 1.225 . S
Zn323 O322 1.953 . S
Zn323 O324 1.949 . S
Zn323 O330 1.919 . S
Zn323 O335 1.924 . S
O324 Zn323 1.949 . S
O324 Zn325 1.923 . S
O324 Zn326 1.950 . S
O324 Zn327 1.945 . S
Zn325 O324 1.923 . S
Zn325 O328 1.933 . S
Zn325 O331 1.941 . S
Zn325 O332 1.965 . S
Zn326 O324 1.950 . S
Zn326 O333 1.938 . S
Zn326 O334 1.906 . S
Zn326 O344 1.953 . S
Zn327 O324 1.945 . S
Zn327 O329 1.932 . S
Zn327 O336 1.977 . S
Zn327 O337 1.910 . S
O328 Zn325 1.933 . S
O328 C339 1.226 . S
O329 Zn327 1.932 . S
O329 C339 1.307 . S
O330 Zn323 1.919 . S
O330 C341 1.253 . S
O331 Zn325 1.941 . S
O331 C341 1.283 . S
O332 Zn325 1.965 . S
O332 C340 1.303 . S
O333 Zn326 1.938 . S
O333 C340 1.247 . S
O334 Zn326 1.906 . S
O334 C342 1.304 . S
O335 Zn323 1.924 . S
O335 C343 1.311 . S
O336 Zn327 1.977 . S
O336 C342 1.272 . S
O337 Zn327 1.910 . S
O337 C343 1.231 . S
C338 O322 1.225 . S
C338 O344 1.298 . S
C339 O328 1.226 . S
C339 O329 1.307 . S
C340 O332 1.303 . S
C340 O333 1.247 . S
C341 O330 1.253 . S
C341 O331 1.283 . S
C342 O334 1.304 . S
C342 O336 1.272 . S
C343 O335 1.311 . S
C343 O337 1.231 . S
O344 Zn326 1.953 . S
O344 C338 1.298 . S
O345 Zn346 1.953 . S
O345 C361 1.225 . S
Zn346 O345 1.953 . S
Zn346 O347 1.949 . S
Zn346 O353 1.919 . S
Zn346 O358 1.924 . S
O347 Zn346 1.949 . S
O347 Zn348 1.923 . S
O347 Zn349 1.950 . S
O347 Zn350 1.945 . S
Zn348 O347 1.923 . S
Zn348 O351 1.933 . S
Zn348 O354 1.941 . S
Zn348 O355 1.965 . S
Zn349 O347 1.950 . S
Zn349 O356 1.938 . S
Zn349 O357 1.906 . S
Zn349 O367 1.953 . S
Zn350 O347 1.945 . S
Zn350 O352 1.932 . S
Zn350 O359 1.977 . S
Zn350 O360 1.910 . S
O351 Zn348 1.933 . S
O351 C362 1.226 . S
O352 Zn350 1.932 . S
O352 C362 1.307 . S
O353 Zn346 1.919 . S
O353 C364 1.253 . S
O354 Zn348 1.941 . S
O354 C364 1.283 . S
O355 Zn348 1.965 . S
O355 C363 1.303 . S
O356 Zn349 1.938 . S
O356 C363 1.247 . S
O357 Zn349 1.906 . S
O357 C365 1.304 . S
O358 Zn346 1.924 . S
O358 C366 1.311 . S
O359 Zn350 1.977 . S
O359 C365 1.272 . S
O360 Zn350 1.910 . S
O360 C366 1.231 . S
C361 O345 1.225 . S
C361 O367 1.298 . S
C362 O351 1.226 . S
C362 O352 1.307 . S
C363 O355 1.303 . S
C363 O356 1.247 . S
C364 O353 1.253 . S
C364 O354 1.283 . S
C365 O357 1.304 . S
C365 O359 1.272 . S
C366 O358 1.311 . S
C366 O360 1.231 . S
O367 Zn349 1.953 . S
O367 C361 1.298 . S
H368 C374 0.930 . S
H369 C377 0.930 . S
H370 C378 0.930 . S
H371 C379 0.930 . S
H372 C382 0.930 . S
H373 C383 0.930 . S
C374 H368 0.930 . S
C374 C375 1.355 . S
C374 C376 1.415 . S
C375 C374 1.355 . S
C375 C377 1.419 . S
C376 C374 1.415 . S
C376 C381 1.425 . S
C376 C383 1.409 . S
C377 H369 0.930 . S
C377 C375 1.419 . S
C377 C378 1.362 . S
C378 H370 0.930 . S
C378 C377 1.362 . S
C378 C381 1.409 . S
C379 H371 0.930 . S
C379 C380 1.355 . S
C379 C381 1.415 . S
C380 C379 1.355 . S
C380 C382 1.419 . S
C381 C376 1.425 . S
C381 C378 1.409 . S
C381 C379 1.415 . S
C382 H372 0.930 . S
C382 C380 1.419 . S
C382 C383 1.362 . S
C383 H373 0.930 . S
C383 C376 1.409 . S
C383 C382 1.362 . S
H384 C390 0.930 . S
H385 C393 0.930 . S
H386 C394 0.930 . S
H387 C395 0.930 . S
H388 C398 0.930 . S
H389 C399 0.930 . S
C390 H384 0.930 . S
C390 C391 1.355 1_655 S
C390 C392 1.415 . S
C391 C390 1.355 1_455 S
C391 C393 1.419 . S
C392 C390 1.415 . S
C392 C397 1.425 . S
C392 C399 1.409 . S
C393 H385 0.930 . S
C393 C391 1.419 . S
C393 C394 1.362 . S
C394 H386 0.930 . S
C394 C393 1.362 . S
C394 C397 1.409 1_455 S
C395 H387 0.930 . S
C395 C396 1.355 . S
C395 C397 1.415 . S
C396 C395 1.355 . S
C396 C398 1.419 . S
C397 C392 1.425 . S
C397 C394 1.409 1_655 S
C397 C395 1.415 . S
C398 H388 0.930 . S
C398 C396 1.419 . S
C398 C399 1.362 . S
C399 H389 0.930 . S
C399 C392 1.409 . S
C399 C398 1.362 . S
H400 C406 0.930 . S
H401 C409 0.930 . S
H402 C410 0.930 . S
H403 C411 0.930 . S
H404 C414 0.930 . S
H405 C415 0.930 . S
C406 H400 0.930 . S
C406 C407 1.355 . S
C406 C408 1.415 . S
C407 C406 1.355 . S
C407 C409 1.419 . S
C408 C406 1.415 . S
C408 C413 1.425 . S
C408 C415 1.409 . S
C409 H401 0.930 . S
C409 C407 1.419 . S
C409 C410 1.362 . S
C410 H402 0.930 . S
C410 C409 1.362 . S
C410 C413 1.409 . S
C411 H403 0.930 . S
C411 C412 1.355 . S
C411 C413 1.415 1_545 S
C412 C411 1.355 . S
C412 C414 1.415 1_545 S
C413 C408 1.425 . S
C413 C410 1.409 . S
C413 C411 1.415 1_565 S
C414 H404 0.930 . S
C414 C412 1.415 1_565 S
C414 C415 1.362 . S
C415 H405 0.930 . S
C415 C408 1.409 . S
C415 C414 1.362 . S
H416 C422 0.930 . S
H417 C425 0.930 . S
H418 C426 0.930 . S
H419 C427 0.930 . S
H420 C430 0.930 . S
H421 C431 0.930 . S
C422 H416 0.930 . S
C422 C423 1.355 . S
C422 C424 1.415 . S
C423 C422 1.355 . S
C423 C425 1.419 . S
C424 C422 1.415 . S
C424 C429 1.425 . S
C424 C431 1.409 . S
C425 H417 0.930 . S
C425 C423 1.419 . S
C425 C426 1.362 . S
C426 H418 0.930 . S
C426 C425 1.362 . S
C426 C429 1.409 . S
C427 H419 0.930 . S
C427 C428 1.355 . S
C427 C429 1.415 . S
C428 C427 1.355 . S
C428 C430 1.419 . S
C429 C424 1.425 . S
C429 C426 1.409 . S
C429 C427 1.415 . S
C430 H420 0.930 . S
C430 C428 1.419 . S
C430 C431 1.362 . S
C431 H421 0.930 . S
C431 C424 1.409 . S
C431 C430 1.362 . S
H432 C438 0.930 . S
H433 C441 0.930 . S
H434 C442 0.930 . S
H435 C443 0.930 1_545 S
H436 C446 0.930 . S
H437 C447 0.930 . S
C438 H432 0.930 . S
C438 C439 1.355 . S
C438 C440 1.415 . S
C439 C438 1.355 . S
C439 C441 1.419 . S
C440 C438 1.415 . S
C440 C445 1.425 . S
C440 C447 1.409 . S
C441 H433 0.930 . S
C441 C439 1.419 . S
C441 C442 1.362 . S
C442 H434 0.930 . S
C442 C441 1.362 . S
C442 C445 1.409 . S
C443 H435 0.930 1_565 S
C443 C444 1.355 1_565 S
C443 C445 1.415 . S
C444 C443 1.355 1_545 S
C444 C446 1.419 1_545 S
C445 C440 1.425 . S
C445 C442 1.409 . S
C445 C443 1.415 . S
C446 H436 0.930 . S
C446 C444 1.419 1_565 S
C446 C447 1.362 . S
C447 H437 0.930 . S
C447 C440 1.409 . S
C447 C446 1.362 . S
H448 C454 0.930 . S
H449 C457 0.930 . S
H450 C458 0.930 . S
H451 C459 0.930 . S
H452 C462 0.930 . S
H453 C463 0.930 . S
C454 H448 0.930 . S
C454 C455 1.355 . S
C454 C456 1.415 . S
C455 C454 1.355 . S
C455 C457 1.419 . S
C456 C454 1.415 . S
C456 C461 1.425 . S
C456 C463 1.409 . S
C457 H449 0.930 . S
C457 C455 1.419 . S
C457 C458 1.362 . S
C458 H450 0.930 . S
C458 C457 1.362 . S
C458 C461 1.409 . S
C459 H451 0.930 . S
C459 C460 1.355 . S
C459 C461 1.415 . S
C460 C459 1.355 . S
C460 C462 1.419 . S
C461 C456 1.425 . S
C461 C458 1.409 . S
C461 C459 1.415 . S
C462 H452 0.930 . S
C462 C460 1.419 . S
C462 C463 1.362 . S
C463 H453 0.930 . S
C463 C456 1.409 . S
C463 C462 1.362 . S
H464 C470 0.930 . S
H465 C473 0.930 . S
H466 C474 0.930 . S
H467 C475 0.930 . S
H468 C478 0.930 . S
H469 C479 0.930 . S
C470 H464 0.930 . S
C470 C471 1.355 . S
C470 C472 1.415 . S
C471 C470 1.355 . S
C471 C473 1.419 . S
C472 C470 1.415 . S
C472 C477 1.425 . S
C472 C479 1.409 . S
C473 H465 0.930 . S
C473 C471 1.419 . S
C473 C474 1.362 . S
C474 H466 0.930 . S
C474 C473 1.362 . S
C474 C477 1.409 . S
C475 H467 0.930 . S
C475 C476 1.355 . S
C475 C477 1.415 . S
C476 C475 1.355 . S
C476 C478 1.419 . S
C477 C472 1.425 . S
C477 C474 1.409 . S
C477 C475 1.415 . S
C478 H468 0.930 . S
C478 C476 1.419 . S
C478 C479 1.362 . S
C479 H469 0.930 . S
C479 C472 1.409 . S
C479 C478 1.362 . S
H480 C486 0.930 . S
H481 C489 0.930 . S
H482 C490 0.930 1_455 S
H483 C491 0.930 . S
H484 C494 0.930 . S
H485 C495 0.930 . S
C486 H480 0.930 . S
C486 C487 1.355 1_655 S
C486 C488 1.415 . S
C487 C486 1.355 1_455 S
C487 C489 1.419 . S
C488 C486 1.415 . S
C488 C493 1.425 . S
C488 C495 1.409 . S
C489 H481 0.930 . S
C489 C487 1.419 . S
C489 C490 1.362 1_455 S
C490 H482 0.930 1_655 S
C490 C489 1.362 1_655 S
C490 C493 1.409 . S
C491 H483 0.930 . S
C491 C492 1.355 . S
C491 C493 1.415 . S
C492 C491 1.355 . S
C492 C494 1.419 . S
C493 C488 1.425 . S
C493 C490 1.409 . S
C493 C491 1.415 . S
C494 H484 0.930 . S
C494 C492 1.419 . S
C494 C495 1.362 . S
C495 H485 0.930 . S
C495 C488 1.409 . S
C495 C494 1.362 . S
H496 C502 0.930 . S
H497 C505 0.930 . S
H498 C506 0.930 . S
H499 C507 0.930 . S
H500 C510 0.930 . S
H501 C511 0.930 . S
C502 H496 0.930 . S
C502 C503 1.355 . S
C502 C504 1.415 . S
C503 C502 1.355 . S
C503 C505 1.419 . S
C504 C502 1.415 . S
C504 C509 1.425 . S
C504 C511 1.409 . S
C505 H497 0.930 . S
C505 C503 1.419 . S
C505 C506 1.362 . S
C506 H498 0.930 . S
C506 C505 1.362 . S
C506 C509 1.409 . S
C507 H499 0.930 . S
C507 C508 1.355 . S
C507 C509 1.415 . S
C508 C507 1.355 . S
C508 C510 1.419 . S
C509 C504 1.425 . S
C509 C506 1.409 . S
C509 C507 1.415 . S
C510 H500 0.930 . S
C510 C508 1.419 . S
C510 C511 1.362 . S
C511 H501 0.930 . S
C511 C504 1.409 . S
C511 C510 1.362 . S
H512 C518 0.930 . S
H513 C521 0.930 . S
H514 C522 0.930 1_655 S
H515 C523 0.930 . S
H516 C526 0.930 . S
H517 C527 0.930 . S
C518 H512 0.930 . S
C518 C519 1.355 1_455 S
C518 C520 1.415 . S
C519 C518 1.355 1_655 S
C519 C521 1.419 . S
C520 C518 1.415 . S
C520 C525 1.425 . S
C520 C527 1.409 . S
C521 H513 0.930 . S
C521 C519 1.419 . S
C521 C522 1.362 1_655 S
C522 H514 0.930 1_455 S
C522 C521 1.362 1_455 S
C522 C525 1.409 . S
C523 H515 0.930 . S
C523 C524 1.355 . S
C523 C525 1.415 . S
C524 C523 1.355 . S
C524 C526 1.419 . S
C525 C520 1.425 . S
C525 C522 1.409 . S
C525 C523 1.415 . S
C526 H516 0.930 . S
C526 C524 1.419 . S
C526 C527 1.362 . S
C527 H517 0.930 . S
C527 C520 1.409 . S
C527 C526 1.362 . S
H528 C534 0.930 . S
H529 C537 0.930 . S
H530 C538 0.930 . S
H531 C539 0.930 . S
H532 C542 0.930 . S
H533 C543 0.930 . S
C534 H528 0.930 . S
C534 C535 1.355 1_545 S
C534 C536 1.415 . S
C535 C534 1.355 1_565 S
C535 C537 1.419 . S
C536 C534 1.415 . S
C536 C541 1.425 . S
C536 C543 1.409 . S
C537 H529 0.930 . S
C537 C535 1.419 . S
C537 C538 1.362 . S
C538 H530 0.930 . S
C538 C537 1.362 . S
C538 C541 1.409 1_565 S
C539 H531 0.930 . S
C539 C540 1.355 . S
C539 C541 1.415 . S
C540 C539 1.355 . S
C540 C542 1.419 . S
C541 C536 1.425 . S
C541 C538 1.409 1_545 S
C541 C539 1.415 . S
C542 H532 0.930 . S
C542 C540 1.419 . S
C542 C543 1.362 . S
C543 H533 0.930 . S
C543 C536 1.409 . S
C543 C542 1.362 . S
H544 C550 0.930 . S
H545 C553 0.930 . S
H546 C554 0.930 . S
H547 C555 0.930 . S
H548 C558 0.930 . S
H549 C559 0.930 . S
C550 H544 0.930 . S
C550 C551 1.355 . S
C550 C552 1.415 . S
C551 C550 1.355 . S
C551 C553 1.419 . S
C552 C550 1.415 . S
C552 C557 1.425 . S
C552 C559 1.409 . S
C553 H545 0.930 . S
C553 C551 1.419 . S
C553 C554 1.362 . S
C554 H546 0.930 . S
C554 C553 1.362 . S
C554 C557 1.409 . S
C555 H547 0.930 . S
C555 C556 1.355 . S
C555 C557 1.415 . S
C556 C555 1.355 . S
C556 C558 1.419 . S
C557 C552 1.425 . S
C557 C554 1.409 . S
C557 C555 1.415 . S
C558 H548 0.930 . S
C558 C556 1.419 . S
C558 C559 1.362 . S
C559 H549 0.930 . S
C559 C552 1.409 . S
C559 C558 1.362 . S
H560 C566 0.930 . S
H561 C569 0.930 . S
H562 C570 0.930 . S
H563 C571 0.930 . S
H564 C574 0.930 . S
H565 C575 0.930 . S
C566 H560 0.930 . S
C566 C567 1.355 . S
C566 C568 1.415 . S
C567 C566 1.355 . S
C567 C569 1.419 . S
C568 C566 1.415 . S
C568 C573 1.425 . S
C568 C575 1.409 1_545 S
C569 H561 0.930 . S
C569 C567 1.419 . S
C569 C570 1.362 . S
C570 H562 0.930 . S
C570 C569 1.362 . S
C570 C573 1.409 . S
C571 H563 0.930 . S
C571 C572 1.355 1_545 S
C571 C573 1.415 . S
C572 C571 1.355 1_565 S
C572 C574 1.419 . S
C573 C568 1.425 . S
C573 C570 1.409 . S
C573 C571 1.415 . S
C574 H564 0.930 . S
C574 C572 1.419 . S
C574 C575 1.362 . S
C575 H565 0.930 . S
C575 C568 1.409 1_565 S
C575 C574 1.362 . S
H576 C582 0.930 . S
H577 C585 0.930 . S
H578 C586 0.930 . S
H579 C587 0.930 . S
H580 C590 0.930 . S
H581 C591 0.930 . S
C582 H576 0.930 . S
C582 C583 1.355 . S
C582 C584 1.415 . S
C583 C582 1.355 . S
C583 C585 1.419 . S
C584 C582 1.415 . S
C584 C589 1.425 . S
C584 C591 1.409 . S
C585 H577 0.930 . S
C585 C583 1.419 . S
C585 C586 1.362 . S
C586 H578 0.930 . S
C586 C585 1.362 . S
C586 C589 1.409 . S
C587 H579 0.930 . S
C587 C588 1.355 . S
C587 C589 1.415 . S
C588 C587 1.355 . S
C588 C590 1.419 . S
C589 C584 1.425 . S
C589 C586 1.409 . S
C589 C587 1.415 . S
C590 H580 0.930 . S
C590 C588 1.419 . S
C590 C591 1.362 . S
C591 H581 0.930 . S
C591 C584 1.409 . S
C591 C590 1.362 . S
H592 C598 0.930 . S
H593 C601 0.930 . S
H594 C602 0.930 . S
H595 C603 0.930 . S
H596 C606 0.930 . S
H597 C607 0.930 . S
C598 H592 0.930 . S
C598 C599 1.355 . S
C598 C600 1.415 . S
C599 C598 1.355 . S
C599 C601 1.419 . S
C600 C598 1.415 . S
C600 C605 1.425 . S
C600 C607 1.409 . S
C601 H593 0.930 . S
C601 C599 1.419 . S
C601 C602 1.362 . S
C602 H594 0.930 . S
C602 C601 1.362 . S
C602 C605 1.409 . S
C603 H595 0.930 . S
C603 C604 1.355 . S
C603 C605 1.415 . S
C604 C603 1.355 . S
C604 C606 1.419 . S
C605 C600 1.425 . S
C605 C602 1.409 . S
C605 C603 1.415 . S
C606 H596 0.930 . S
C606 C604 1.419 . S
C606 C607 1.362 . S
C607 H597 0.930 . S
C607 C600 1.409 . S
C607 C606 1.362 . S
H608 C614 0.930 . S
H609 C617 0.930 . S
H610 C618 0.930 1_655 S
H611 C619 0.930 . S
H612 C622 0.930 . S
H613 C623 0.930 . S
C614 H608 0.930 . S
C614 C615 1.355 . S
C614 C616 1.415 . S
C615 C614 1.355 . S
C615 C617 1.419 . S
C616 C614 1.415 . S
C616 C621 1.425 . S
C616 C623 1.409 . S
C617 H609 0.930 . S
C617 C615 1.419 . S
C617 C618 1.362 . S
C618 H610 0.930 1_455 S
C618 C617 1.362 . S
C618 C621 1.409 . S
C619 H611 0.930 . S
C619 C620 1.355 1_655 S
C619 C621 1.415 1_655 S
C620 C619 1.355 1_455 S
C620 C622 1.419 . S
C621 C616 1.425 . S
C621 C618 1.409 . S
C621 C619 1.415 1_455 S
C622 H612 0.930 . S
C622 C620 1.419 . S
C622 C623 1.362 . S
C623 H613 0.930 . S
C623 C616 1.409 . S
C623 C622 1.362 . S
H624 C630 0.930 . S
H625 C633 0.930 . S
H626 C634 0.930 . S
H627 C635 0.930 1_655 S
H628 C638 0.930 . S
H629 C639 0.930 . S
C630 H624 0.930 . S
C630 C631 1.355 . S
C630 C632 1.415 . S
C631 C630 1.355 . S
C631 C633 1.419 1_455 S
C632 C630 1.415 . S
C632 C637 1.425 . S
C632 C639 1.409 . S
C633 H625 0.930 . S
C633 C631 1.419 1_655 S
C633 C634 1.362 . S
C634 H626 0.930 . S
C634 C633 1.362 . S
C634 C637 1.409 1_655 S
C635 H627 0.930 1_455 S
C635 C636 1.355 . S
C635 C637 1.415 . S
C636 C635 1.355 . S
C636 C638 1.419 . S
C637 C632 1.425 . S
C637 C634 1.409 1_455 S
C637 C635 1.415 . S
C638 H628 0.930 . S
C638 C636 1.419 . S
C638 C639 1.362 . S
C639 H629 0.930 . S
C639 C632 1.409 . S
C639 C638 1.362 . S
H640 C646 0.930 . S
H641 C649 0.930 . S
H642 C650 0.930 . S
H643 C651 0.930 . S
H644 C654 0.930 . S
H645 C655 0.930 . S
C646 H640 0.930 . S
C646 C647 1.355 . S
C646 C648 1.415 . S
C647 C646 1.355 . S
C647 C649 1.419 . S
C648 C646 1.415 . S
C648 C653 1.425 . S
C648 C655 1.409 . S
C649 H641 0.930 . S
C649 C647 1.419 . S
C649 C650 1.362 . S
C650 H642 0.930 . S
C650 C649 1.362 . S
C650 C653 1.409 . S
C651 H643 0.930 . S
C651 C652 1.355 . S
C651 C653 1.415 . S
C652 C651 1.355 . S
C652 C654 1.419 . S
C653 C648 1.425 . S
C653 C650 1.409 . S
C653 C651 1.415 . S
C654 H644 0.930 . S
C654 C652 1.419 . S
C654 C655 1.362 . S
C655 H645 0.930 . S
C655 C648 1.409 . S
C655 C654 1.362 . S
H656 C662 0.930 . S
H657 C665 0.930 . S
H658 C666 0.930 . S
H659 C667 0.930 . S
H660 C670 0.930 . S
H661 C671 0.930 . S
C662 H656 0.930 . S
C662 C663 1.355 . S
C662 C664 1.415 . S
C663 C662 1.355 . S
C663 C665 1.419 . S
C664 C662 1.415 . S
C664 C669 1.425 . S
C664 C671 1.409 . S
C665 H657 0.930 . S
C665 C663 1.419 . S
C665 C666 1.362 . S
C666 H658 0.930 . S
C666 C665 1.362 . S
C666 C669 1.409 . S
C667 H659 0.930 . S
C667 C668 1.355 . S
C667 C669 1.415 . S
C668 C667 1.355 . S
C668 C670 1.419 . S
C669 C664 1.425 . S
C669 C666 1.409 . S
C669 C667 1.415 . S
C670 H660 0.930 . S
C670 C668 1.419 . S
C670 C671 1.362 . S
C671 H661 0.930 . S
C671 C664 1.409 . S
C671 C670 1.362 . S
H672 C678 0.930 . S
H673 C681 0.930 . S
H674 C682 0.930 . S
H675 C683 0.930 . S
H676 C686 0.930 . S
H677 C687 0.930 . S
C678 H672 0.930 . S
C678 C679 1.355 . S
C678 C680 1.415 . S
C679 C678 1.355 . S
C679 C681 1.419 . S
C680 C678 1.415 . S
C680 C685 1.425 . S
C680 C687 1.409 . S
C681 H673 0.930 . S
C681 C679 1.419 . S
C681 C682 1.362 . S
C682 H674 0.930 . S
C682 C681 1.362 . S
C682 C685 1.409 . S
C683 H675 0.930 . S
C683 C684 1.355 . S
C683 C685 1.415 . S
C684 C683 1.355 . S
C684 C686 1.419 . S
C685 C680 1.425 . S
C685 C682 1.409 . S
C685 C683 1.415 . S
C686 H676 0.930 . S
C686 C684 1.419 . S
C686 C687 1.362 . S
C687 H677 0.930 . S
C687 C680 1.409 . S
C687 C686 1.362 . S
H688 C694 0.930 . S
H689 C697 0.930 . S
H690 C698 0.930 . S
H691 C699 0.930 . S
H692 C702 0.930 . S
H693 C703 0.930 . S
C694 H688 0.930 . S
C694 C695 1.355 . S
C694 C696 1.415 . S
C695 C694 1.355 . S
C695 C697 1.419 1_655 S
C696 C694 1.415 . S
C696 C701 1.412 1_655 S
C696 C703 1.409 . S
C697 H689 0.930 . S
C697 C695 1.419 1_455 S
C697 C698 1.362 . S
C698 H690 0.930 . S
C698 C697 1.362 . S
C698 C701 1.420 . S
C699 H691 0.930 . S
C699 C700 1.355 1_455 S
C699 C701 1.417 . S
C700 C699 1.355 1_655 S
C700 C702 1.419 . S
C701 C696 1.412 1_455 S
C701 C698 1.420 . S
C701 C699 1.417 . S
C702 H692 0.930 . S
C702 C700 1.419 . S
C702 C703 1.362 . S
C703 H693 0.930 . S
C703 C696 1.409 . S
C703 C702 1.362 . S
H704 C710 0.930 . S
H705 C713 0.930 . S
H706 C714 0.930 . S
H707 C715 0.930 . S
H708 C718 0.930 . S
H709 C719 0.930 . S
C710 H704 0.930 . S
C710 C711 1.355 1_545 S
C710 C712 1.416 . S
C711 C710 1.355 1_565 S
C711 C713 1.419 . S
C712 C710 1.416 . S
C712 C717 1.420 1_545 S
C712 C719 1.413 . S
C713 H705 0.930 . S
C713 C711 1.419 . S
C713 C714 1.362 . S
C714 H706 0.930 . S
C714 C713 1.362 . S
C714 C717 1.409 . S
C715 H707 0.930 . S
C715 C716 1.355 . S
C715 C717 1.415 . S
C716 C715 1.355 . S
C716 C718 1.419 1_565 S
C717 C712 1.420 1_565 S
C717 C714 1.409 . S
C717 C715 1.415 . S
C718 H708 0.930 . S
C718 C716 1.419 1_545 S
C718 C719 1.362 . S
C719 H709 0.930 . S
C719 C712 1.413 . S
C719 C718 1.362 . S
H720 C726 0.930 . S
H721 C729 0.930 . S
H722 C730 0.930 . S
H723 C731 0.930 . S
H724 C734 0.930 . S
H725 C735 0.930 . S
C726 H720 0.930 . S
C726 C727 1.355 . S
C726 C728 1.415 . S
C727 C726 1.355 . S
C727 C729 1.419 . S
C728 C726 1.415 . S
C728 C733 1.425 . S
C728 C735 1.409 . S
C729 H721 0.930 . S
C729 C727 1.419 . S
C729 C730 1.362 . S
C730 H722 0.930 . S
C730 C729 1.362 . S
C730 C733 1.409 . S
C731 H723 0.930 . S
C731 C732 1.355 . S
C731 C733 1.415 . S
C732 C731 1.355 . S
C732 C734 1.419 . S
C733 C728 1.425 . S
C733 C730 1.409 . S
C733 C731 1.415 . S
C734 H724 0.930 . S
C734 C732 1.419 . S
C734 C735 1.362 . S
C735 H725 0.930 . S
C735 C728 1.409 . S
C735 C734 1.362 . S
H736 C742 0.930 . S
H737 C745 0.930 . S
H738 C746 0.930 . S
H739 C747 0.930 . S
H740 C750 0.930 . S
H741 C751 0.930 . S
C742 H736 0.930 . S
C742 C743 1.355 . S
C742 C744 1.415 . S
C743 C742 1.355 . S
C743 C745 1.419 . S
C744 C742 1.415 . S
C744 C749 1.425 . S
C744 C751 1.409 . S
C745 H737 0.930 . S
C745 C743 1.419 . S
C745 C746 1.362 . S
C746 H738 0.930 . S
C746 C745 1.362 . S
C746 C749 1.409 . S
C747 H739 0.930 . S
C747 C748 1.355 . S
C747 C749 1.415 . S
C748 C747 1.355 . S
C748 C750 1.419 . S
C749 C744 1.425 . S
C749 C746 1.409 . S
C749 C747 1.415 . S
C750 H740 0.930 . S
C750 C748 1.419 . S
C750 C751 1.362 . S
C751 H741 0.930 . S
C751 C744 1.409 . S
C751 C750 1.362 . S
H752 C758 0.930 . S
H753 C761 0.930 . S
H754 C762 0.930 . S
H755 C763 0.930 . S
H756 C766 0.930 . S
H757 C767 0.930 . S
C758 H752 0.930 . S
C758 C759 1.355 . S
C758 C760 1.415 . S
C759 C758 1.355 . S
C759 C761 1.419 . S
C760 C758 1.415 . S
C760 C765 1.425 . S
C760 C767 1.409 . S
C761 H753 0.930 . S
C761 C759 1.419 . S
C761 C762 1.362 . S
C762 H754 0.930 . S
C762 C761 1.362 . S
C762 C765 1.409 . S
C763 H755 0.930 . S
C763 C764 1.355 . S
C763 C765 1.415 . S
C764 C763 1.355 . S
C764 C766 1.419 . S
C765 C760 1.425 . S
C765 C762 1.409 . S
C765 C763 1.415 . S
C766 H756 0.930 . S
C766 C764 1.419 . S
C766 C767 1.362 . S
C767 H757 0.930 . S
C767 C760 1.409 . S
C767 C766 1.362 . S
H768 C774 0.930 . S
H769 C777 0.930 . S
H770 C778 0.930 . S
H771 C779 0.930 . S
H772 C782 0.930 . S
H773 C783 0.930 . S
C774 H768 0.930 . S
C774 C775 1.355 . S
C774 C776 1.415 . S
C775 C774 1.355 . S
C775 C777 1.419 . S
C776 C774 1.415 . S
C776 C781 1.425 . S
C776 C783 1.409 . S
C777 H769 0.930 . S
C777 C775 1.419 . S
C777 C778 1.362 . S
C778 H770 0.930 . S
C778 C777 1.362 . S
C778 C781 1.409 . S
C779 H771 0.930 . S
C779 C780 1.355 . S
C779 C781 1.415 . S
C780 C779 1.355 . S
C780 C782 1.419 . S
C781 C776 1.425 . S
C781 C778 1.409 . S
C781 C779 1.415 . S
C782 H772 0.930 . S
C782 C780 1.419 . S
C782 C783 1.362 . S
C783 H773 0.930 . S
C783 C776 1.409 . S
C783 C782 1.362 . S
H784 C790 0.930 . S
H785 C793 0.930 . S
H786 C794 0.930 . S
H787 C795 0.930 . S
H788 C798 0.930 . S
H789 C799 0.930 . S
C790 H784 0.930 . S
C790 C791 1.355 . S
C790 C792 1.415 . S
C791 C790 1.355 . S
C791 C793 1.419 . S
C792 C790 1.415 . S
C792 C797 1.425 . S
C792 C799 1.409 . S
C793 H785 0.930 . S
C793 C791 1.419 . S
C793 C794 1.362 . S
C794 H786 0.930 . S
C794 C793 1.362 . S
C794 C797 1.409 . S
C795 H787 0.930 . S
C795 C796 1.355 . S
C795 C797 1.415 . S
C796 C795 1.355 . S
C796 C798 1.419 . S
C797 C792 1.425 . S
C797 C794 1.409 . S
C797 C795 1.415 . S
C798 H788 0.930 . S
C798 C796 1.419 . S
C798 C799 1.362 . S
C799 H789 0.930 . S
C799 C792 1.409 . S
C799 C798 1.362 . S
H800 C806 0.930 . S
H801 C809 0.930 . S
H802 C810 0.930 . S
H803 C811 0.930 . S
H804 C814 0.930 . S
H805 C815 0.930 . S
C806 H800 0.930 . S
C806 C807 1.355 . S
C806 C808 1.415 . S
C807 C806 1.355 . S
C807 C809 1.419 . S
C808 C806 1.415 . S
C808 C813 1.425 . S
C808 C815 1.409 . S
C809 H801 0.930 . S
C809 C807 1.419 . S
C809 C810 1.362 . S
C810 H802 0.930 . S
C810 C809 1.362 . S
C810 C813 1.409 . S
C811 H803 0.930 . S
C811 C812 1.355 . S
C811 C813 1.415 . S
C812 C811 1.355 . S
C812 C814 1.419 . S
C813 C808 1.425 . S
C813 C810 1.409 . S
C813 C811 1.415 . S
C814 H804 0.930 . S
C814 C812 1.419 . S
C814 C815 1.362 . S
C815 H805 0.930 . S
C815 C808 1.409 . S
C815 C814 1.362 . S
H816 C822 0.930 . S
H817 C825 0.930 . S
H818 C826 0.930 . S
H819 C827 0.930 . S
H820 C830 0.930 . S
H821 C831 0.930 . S
C822 H816 0.930 . S
C822 C823 1.355 . S
C822 C824 1.415 . S
C823 C822 1.355 . S
C823 C825 1.419 . S
C824 C822 1.415 . S
C824 C829 1.425 . S
C824 C831 1.409 . S
C825 H817 0.930 . S
C825 C823 1.419 . S
C825 C826 1.362 . S
C826 H818 0.930 . S
C826 C825 1.362 . S
C826 C829 1.409 . S
C827 H819 0.930 . S
C827 C828 1.355 . S
C827 C829 1.415 . S
C828 C827 1.355 . S
C828 C830 1.419 . S
C829 C824 1.425 . S
C829 C826 1.409 . S
C829 C827 1.415 . S
C830 H820 0.930 . S
C830 C828 1.419 . S
C830 C831 1.362 . S
C831 H821 0.930 . S
C831 C824 1.409 . S
C831 C830 1.362 . S
H832 C838 0.930 . S
H833 C841 0.930 . S
H834 C842 0.930 . S
H835 C843 0.930 . S
H836 C846 0.930 . S
H837 C847 0.930 . S
C838 H832 0.930 . S
C838 C839 1.355 . S
C838 C840 1.415 . S
C839 C838 1.355 . S
C839 C841 1.419 . S
C840 C838 1.415 . S
C840 C845 1.425 . S
C840 C847 1.409 . S
C841 H833 0.930 . S
C841 C839 1.419 . S
C841 C842 1.362 . S
C842 H834 0.930 . S
C842 C841 1.362 . S
C842 C845 1.409 . S
C843 H835 0.930 . S
C843 C844 1.355 . S
C843 C845 1.415 . S
C844 C843 1.355 . S
C844 C846 1.419 . S
C845 C840 1.425 . S
C845 C842 1.409 . S
C845 C843 1.415 . S
C846 H836 0.930 . S
C846 C844 1.419 . S
C846 C847 1.362 . S
C847 H837 0.930 . S
C847 C840 1.409 . S
C847 C846 1.362 . S
H848 C854 0.930 . S
H849 C857 0.930 . S
H850 C858 0.930 . S
H851 C859 0.930 . S
H852 C862 0.930 . S
H853 C863 0.930 . S
C854 H848 0.930 . S
C854 C855 1.355 . S
C854 C856 1.415 . S
C855 C854 1.355 . S
C855 C857 1.419 . S
C856 C854 1.415 . S
C856 C861 1.425 . S
C856 C863 1.409 . S
C857 H849 0.930 . S
C857 C855 1.419 . S
C857 C858 1.362 . S
C858 H850 0.930 . S
C858 C857 1.362 . S
C858 C861 1.409 . S
C859 H851 0.930 . S
C859 C860 1.355 . S
C859 C861 1.415 . S
C860 C859 1.355 . S
C860 C862 1.419 . S
C861 C856 1.425 . S
C861 C858 1.409 . S
C861 C859 1.415 . S
C862 H852 0.930 . S
C862 C860 1.419 . S
C862 C863 1.362 . S
C863 H853 0.930 . S
C863 C856 1.409 . S
C863 C862 1.362 . S
H864 C870 0.930 . S
H865 C873 0.930 . S
H866 C874 0.930 . S
H867 C875 0.930 . S
H868 C878 0.930 . S
H869 C879 0.930 . S
C870 H864 0.930 . S
C870 C871 1.355 . S
C870 C872 1.415 . S
C871 C870 1.355 . S
C871 C873 1.419 . S
C872 C870 1.415 . S
C872 C877 1.425 . S
C872 C879 1.409 . S
C873 H865 0.930 . S
C873 C871 1.419 . S
C873 C874 1.362 . S
C874 H866 0.930 . S
C874 C873 1.362 . S
C874 C877 1.409 . S
C875 H867 0.930 . S
C875 C876 1.355 . S
C875 C877 1.415 . S
C876 C875 1.355 . S
C876 C878 1.419 . S
C877 C872 1.425 . S
C877 C874 1.409 . S
C877 C875 1.415 . S
C878 H868 0.930 . S
C878 C876 1.419 . S
C878 C879 1.362 . S
C879 H869 0.930 . S
C879 C872 1.409 . S
C879 C878 1.362 . S
H880 C886 0.940 . S
H881 C889 0.930 . S
H882 C890 0.930 . S
H883 C891 0.940 . S
H884 C894 0.930 . S
H885 C895 0.930 . S
C886 H880 0.940 . S
C886 C887 1.339 1_455 S
C886 C888 1.420 . S
C887 C886 1.339 1_655 S
C887 C889 1.419 . S
C888 C886 1.420 . S
C888 C893 1.425 1_456 S
C888 C895 1.409 . S
C889 H881 0.930 . S
C889 C887 1.419 . S
C889 C890 1.362 1_556 S
C890 H882 0.930 . S
C890 C889 1.362 1_554 S
C890 C893 1.409 . S
C891 H883 0.940 . S
C891 C892 1.339 1_655 S
C891 C893 1.420 . S
C892 C891 1.339 1_455 S
C892 C894 1.419 . S
C893 C888 1.425 1_654 S
C893 C890 1.409 . S
C893 C891 1.420 . S
C894 H884 0.930 . S
C894 C892 1.419 . S
C894 C895 1.362 1_554 S
C895 H885 0.930 . S
C895 C888 1.409 . S
C895 C894 1.362 1_556 S
H896 C902 0.930 1_655 S
H897 C905 0.930 . S
H898 C906 0.930 . S
H899 C907 0.930 1_455 S
H900 C910 0.930 . S
H901 C911 0.930 . S
C902 H896 0.930 1_455 S
C902 C903 1.355 . S
C902 C904 1.415 1_465 S
C903 C902 1.355 . S
C903 C905 1.419 . S
C904 C902 1.415 1_645 S
C904 C909 1.425 1_646 S
C904 C911 1.409 . S
C905 H897 0.930 . S
C905 C903 1.419 . S
C905 C906 1.362 1_556 S
C906 H898 0.930 . S
C906 C905 1.362 1_554 S
C906 C909 1.409 . S
C907 H899 0.930 1_655 S
C907 C908 1.355 . S
C907 C909 1.415 1_645 S
C908 C907 1.355 . S
C908 C910 1.419 . S
C909 C904 1.425 1_464 S
C909 C906 1.409 . S
C909 C907 1.415 1_465 S
C910 H900 0.930 . S
C910 C908 1.419 . S
C910 C911 1.362 1_554 S
C911 H901 0.930 . S
C911 C904 1.409 . S
C911 C910 1.362 1_556 S
H912 C918 0.930 . S
H913 C921 0.930 . S
H914 C922 0.930 1_565 S
H915 C923 0.930 . S
H916 C926 0.930 . S
H917 C927 0.930 1_545 S
C918 H912 0.930 . S
C918 C919 1.355 . S
C918 C920 1.415 1_556 S
C919 C918 1.355 . S
C919 C921 1.419 . S
C920 C918 1.415 1_554 S
C920 C925 1.425 1_544 S
C920 C927 1.409 1_545 S
C921 H913 0.930 . S
C921 C919 1.419 . S
C921 C922 1.362 . S
C922 H914 0.930 1_545 S
C922 C921 1.362 . S
C922 C925 1.409 1_545 S
C923 H915 0.930 . S
C923 C924 1.355 . S
C923 C925 1.415 1_554 S
C924 C923 1.355 . S
C924 C926 1.419 . S
C925 C920 1.425 1_566 S
C925 C922 1.409 1_565 S
C925 C923 1.415 1_556 S
C926 H916 0.930 . S
C926 C924 1.419 . S
C926 C927 1.362 . S
C927 H917 0.930 1_565 S
C927 C920 1.409 1_565 S
C927 C926 1.362 . S
H928 C934 0.930 . S
H929 C937 0.930 . S
H930 C938 0.930 . S
H931 C939 0.930 . S
H932 C942 0.930 . S
H933 C943 0.930 . S
C934 H928 0.930 . S
C934 C935 1.355 . S
C934 C936 1.415 1_554 S
C935 C934 1.355 . S
C935 C937 1.419 . S
C936 C934 1.415 1_556 S
C936 C941 1.425 1_556 S
C936 C943 1.409 . S
C937 H929 0.930 . S
C937 C935 1.419 . S
C937 C938 1.362 . S
C938 H930 0.930 . S
C938 C937 1.362 . S
C938 C941 1.409 . S
C939 H931 0.930 . S
C939 C940 1.355 . S
C939 C941 1.415 1_556 S
C940 C939 1.355 . S
C940 C942 1.419 . S
C941 C936 1.425 1_554 S
C941 C938 1.409 . S
C941 C939 1.415 1_554 S
C942 H932 0.930 . S
C942 C940 1.419 . S
C942 C943 1.362 . S
C943 H933 0.930 . S
C943 C936 1.409 . S
C943 C942 1.362 . S
H944 C950 0.930 1_565 S
H945 C953 0.930 . S
H946 C954 0.930 . S
H947 C955 0.930 1_545 S
H948 C958 0.930 . S
H949 C959 0.930 . S
C950 H944 0.930 1_545 S
C950 C951 1.355 . S
C950 C952 1.415 1_545 S
C951 C950 1.355 . S
C951 C953 1.419 . S
C952 C950 1.415 1_565 S
C952 C957 1.425 1_665 S
C952 C959 1.409 . S
C953 H945 0.930 . S
C953 C951 1.419 . S
C953 C954 1.362 1_655 S
C954 H946 0.930 . S
C954 C953 1.362 1_455 S
C954 C957 1.409 . S
C955 H947 0.930 1_565 S
C955 C956 1.355 . S
C955 C957 1.415 1_565 S
C956 C955 1.355 . S
C956 C958 1.419 . S
C957 C952 1.425 1_445 S
C957 C954 1.409 . S
C957 C955 1.415 1_545 S
C958 H948 0.930 . S
C958 C956 1.419 . S
C958 C959 1.362 1_455 S
C959 H949 0.930 . S
C959 C952 1.409 . S
C959 C958 1.362 1_655 S
H960 C966 0.930 . S
H961 C969 0.930 . S
H962 C970 0.930 . S
H963 C971 0.930 . S
H964 C974 0.930 . S
H965 C975 0.930 . S
C966 H960 0.930 . S
C966 C967 1.355 . S
C966 C968 1.415 . S
C967 C966 1.355 . S
C967 C969 1.419 . S
C968 C966 1.415 . S
C968 C973 1.425 1_565 S
C968 C975 1.409 1_565 S
C969 H961 0.930 . S
C969 C967 1.419 . S
C969 C970 1.362 . S
C970 H962 0.930 . S
C970 C969 1.362 . S
C970 C973 1.409 1_565 S
C971 H963 0.930 . S
C971 C972 1.355 . S
C971 C973 1.415 . S
C972 C971 1.355 . S
C972 C974 1.419 . S
C973 C968 1.425 1_545 S
C973 C970 1.409 1_545 S
C973 C971 1.415 . S
C974 H964 0.930 . S
C974 C972 1.419 . S
C974 C975 1.362 . S
C975 H965 0.930 . S
C975 C968 1.409 1_545 S
C975 C974 1.362 . S
H976 C982 0.930 . S
H977 C985 0.930 . S
H978 C986 0.930 . S
H979 C987 0.930 . S
H980 C990 0.930 . S
H981 C991 0.930 . S
C982 H976 0.930 . S
C982 C983 1.355 . S
C982 C984 1.415 . S
C983 C982 1.355 . S
C983 C985 1.419 . S
C984 C982 1.415 . S
C984 C989 1.425 . S
C984 C991 1.409 . S
C985 H977 0.930 . S
C985 C983 1.419 . S
C985 C986 1.362 . S
C986 H978 0.930 . S
C986 C985 1.362 . S
C986 C989 1.409 . S
C987 H979 0.930 . S
C987 C988 1.355 . S
C987 C989 1.415 . S
C988 C987 1.355 . S
C988 C990 1.419 . S
C989 C984 1.425 . S
C989 C986 1.409 . S
C989 C987 1.415 . S
C990 H980 0.930 . S
C990 C988 1.419 . S
C990 C991 1.362 . S
C991 H981 0.930 . S
C991 C984 1.409 . S
C991 C990 1.362 . S
H992 C998 0.930 . S
H993 C1001 0.930 . S
H994 C1002 0.930 . S
H995 C1003 0.930 . S
H996 C1006 0.930 . S
H997 C1007 0.930 . S
C998 H992 0.930 . S
C998 C999 1.355 . S
C998 C1000 1.415 . S
C999 C998 1.355 . S
C999 C1001 1.419 1_455 S
C1000 C998 1.415 . S
C1000 C1005 1.425 1_455 S
C1000 C1007 1.409 . S
C1001 H993 0.930 . S
C1001 C999 1.419 1_655 S
C1001 C1002 1.362 . S
C1002 H994 0.930 . S
C1002 C1001 1.362 . S
C1002 C1005 1.409 . S
C1003 H995 0.930 . S
C1003 C1004 1.355 . S
C1003 C1005 1.415 . S
C1004 C1003 1.355 . S
C1004 C1006 1.419 1_655 S
C1005 C1000 1.425 1_655 S
C1005 C1002 1.409 . S
C1005 C1003 1.415 . S
C1006 H996 0.930 . S
C1006 C1004 1.419 1_455 S
C1006 C1007 1.362 . S
C1007 H997 0.930 . S
C1007 C1000 1.409 . S
C1007 C1006 1.362 . S
H1008 C1014 0.930 . S
H1009 C1017 0.930 . S
H1010 C1018 0.930 . S
H1011 C1019 0.930 . S
H1012 C1022 0.930 . S
H1013 C1023 0.930 . S
C1014 H1008 0.930 . S
C1014 C1015 1.355 . S
C1014 C1016 1.415 . S
C1015 C1014 1.355 . S
C1015 C1017 1.419 1_655 S
C1016 C1014 1.415 . S
C1016 C1021 1.425 1_655 S
C1016 C1023 1.409 . S
C1017 H1009 0.930 . S
C1017 C1015 1.419 1_455 S
C1017 C1018 1.362 . S
C1018 H1010 0.930 . S
C1018 C1017 1.362 . S
C1018 C1021 1.409 . S
C1019 H1011 0.930 . S
C1019 C1020 1.355 . S
C1019 C1021 1.415 . S
C1020 C1019 1.355 . S
C1020 C1022 1.419 . S
C1021 C1016 1.425 1_455 S
C1021 C1018 1.409 . S
C1021 C1019 1.415 . S
C1022 H1012 0.930 . S
C1022 C1020 1.419 . S
C1022 C1023 1.362 1_455 S
C1023 H1013 0.930 . S
C1023 C1016 1.409 . S
C1023 C1022 1.362 1_655 S
H1024 C1030 0.930 . S
H1025 C1033 0.930 . S
H1026 C1034 0.930 . S
H1027 C1035 0.930 . S
H1028 C1038 0.930 . S
H1029 C1039 0.930 . S
C1030 H1024 0.930 . S
C1030 C1031 1.355 . S
C1030 C1032 1.415 . S
C1031 C1030 1.355 . S
C1031 C1033 1.419 1_565 S
C1032 C1030 1.415 . S
C1032 C1037 1.425 1_565 S
C1032 C1039 1.409 1_455 S
C1033 H1025 0.930 . S
C1033 C1031 1.419 1_545 S
C1033 C1034 1.362 . S
C1034 H1026 0.930 . S
C1034 C1033 1.362 . S
C1034 C1037 1.409 . S
C1035 H1027 0.930 . S
C1035 C1036 1.355 . S
C1035 C1037 1.415 1_655 S
C1036 C1035 1.355 . S
C1036 C1038 1.419 1_545 S
C1037 C1032 1.425 1_545 S
C1037 C1034 1.409 . S
C1037 C1035 1.415 1_455 S
C1038 H1028 0.930 . S
C1038 C1036 1.419 1_565 S
C1038 C1039 1.362 . S
C1039 H1029 0.930 . S
C1039 C1032 1.409 1_655 S
C1039 C1038 1.362 . S
H1040 C1046 0.930 . S
H1041 C1049 0.930 . S
H1042 C1050 0.930 . S
H1043 C1051 0.930 . S
H1044 C1054 0.930 . S
H1045 C1055 0.930 . S
C1046 H1040 0.930 . S
C1046 C1047 1.355 . S
C1046 C1048 1.415 . S
C1047 C1046 1.355 . S
C1047 C1049 1.419 . S
C1048 C1046 1.415 . S
C1048 C1053 1.425 . S
C1048 C1055 1.409 . S
C1049 H1041 0.930 . S
C1049 C1047 1.419 . S
C1049 C1050 1.362 . S
C1050 H1042 0.930 . S
C1050 C1049 1.362 . S
C1050 C1053 1.409 . S
C1051 H1043 0.930 . S
C1051 C1052 1.355 . S
C1051 C1053 1.415 1_565 S
C1052 C1051 1.355 . S
C1052 C1054 1.419 . S
C1053 C1048 1.425 . S
C1053 C1050 1.409 . S
C1053 C1051 1.415 1_545 S
C1054 H1044 0.930 . S
C1054 C1052 1.419 . S
C1054 C1055 1.362 1_565 S
C1055 H1045 0.930 . S
C1055 C1048 1.409 . S
C1055 C1054 1.362 1_545 S
H1056 C1062 0.930 . S
H1057 C1065 0.930 . S
H1058 C1066 0.930 . S
H1059 C1067 0.930 . S
H1060 C1070 0.930 . S
H1061 C1071 0.930 . S
C1062 H1056 0.930 . S
C1062 C1063 1.355 . S
C1062 C1064 1.415 . S
C1063 C1062 1.355 . S
C1063 C1065 1.419 . S
C1064 C1062 1.415 . S
C1064 C1069 1.425 . S
C1064 C1071 1.409 . S
C1065 H1057 0.930 . S
C1065 C1063 1.419 . S
C1065 C1066 1.362 . S
C1066 H1058 0.930 . S
C1066 C1065 1.362 . S
C1066 C1069 1.409 . S
C1067 H1059 0.930 . S
C1067 C1068 1.355 . S
C1067 C1069 1.415 . S
C1068 C1067 1.355 . S
C1068 C1070 1.419 . S
C1069 C1064 1.425 . S
C1069 C1066 1.409 . S
C1069 C1067 1.415 . S
C1070 H1060 0.930 . S
C1070 C1068 1.419 . S
C1070 C1071 1.362 . S
C1071 H1061 0.930 . S
C1071 C1064 1.409 . S
C1071 C1070 1.362 . S
H1072 C1078 0.930 . S
H1073 C1081 0.930 . S
H1074 C1082 0.930 . S
H1075 C1083 0.930 . S
H1076 C1086 0.930 . S
H1077 C1087 0.930 . S
C1078 H1072 0.930 . S
C1078 C1079 1.355 . S
C1078 C1080 1.415 1_455 S
C1079 C1078 1.355 . S
C1079 C1081 1.419 . S
C1080 C1078 1.415 1_655 S
C1080 C1085 1.425 . S
C1080 C1087 1.409 . S
C1081 H1073 0.930 . S
C1081 C1079 1.419 . S
C1081 C1082 1.362 . S
C1082 H1074 0.930 . S
C1082 C1081 1.362 . S
C1082 C1085 1.409 1_455 S
C1083 H1075 0.930 . S
C1083 C1084 1.355 . S
C1083 C1085 1.415 . S
C1084 C1083 1.355 . S
C1084 C1086 1.419 . S
C1085 C1080 1.425 . S
C1085 C1082 1.409 1_655 S
C1085 C1083 1.415 . S
C1086 H1076 0.930 . S
C1086 C1084 1.419 . S
C1086 C1087 1.362 . S
C1087 H1077 0.930 . S
C1087 C1080 1.409 . S
C1087 C1086 1.362 . S
H1088 C1094 0.930 . S
H1089 C1097 0.930 . S
H1090 C1098 0.930 . S
H1091 C1099 0.930 . S
H1092 C1102 0.929 1_545 S
H1093 C1103 0.930 . S
C1094 H1088 0.930 . S
C1094 C1095 1.355 . S
C1094 C1096 1.415 . S
C1095 C1094 1.355 . S
C1095 C1097 1.419 1_545 S
C1096 C1094 1.415 . S
C1096 C1101 1.425 1_645 S
C1096 C1103 1.409 . S
C1097 H1089 0.930 . S
C1097 C1095 1.419 1_565 S
C1097 C1098 1.362 1_655 S
C1098 H1090 0.930 . S
C1098 C1097 1.362 1_455 S
C1098 C1101 1.409 . S
C1099 H1091 0.930 . S
C1099 C1100 1.355 . S
C1099 C1101 1.415 . S
C1100 C1099 1.355 . S
C1100 C1102 1.422 1_455 S
C1101 C1096 1.425 1_465 S
C1101 C1098 1.409 . S
C1101 C1099 1.415 . S
C1102 H1092 0.929 1_565 S
C1102 C1100 1.422 1_655 S
C1102 C1103 1.361 1_565 S
C1103 H1093 0.930 . S
C1103 C1096 1.409 . S
C1103 C1102 1.361 1_545 S
H1104 C1110 0.930 . S
H1105 C1113 0.935 . S
H1106 C1114 0.930 . S
H1107 C1115 0.930 . S
H1108 C1118 0.930 . S
H1109 C1119 0.930 . S
C1110 H1104 0.930 . S
C1110 C1111 1.355 . S
C1110 C1112 1.415 . S
C1111 C1110 1.355 . S
C1111 C1113 1.419 . S
C1112 C1110 1.415 . S
C1112 C1117 1.425 1_565 S
C1112 C1119 1.409 . S
C1113 H1105 0.935 . S
C1113 C1111 1.419 . S
C1113 C1114 1.362 1_565 S
C1114 H1106 0.930 . S
C1114 C1113 1.362 1_545 S
C1114 C1117 1.409 . S
C1115 H1107 0.930 . S
C1115 C1116 1.355 . S
C1115 C1117 1.415 . S
C1116 C1115 1.355 . S
C1116 C1118 1.419 1_545 S
C1117 C1112 1.425 1_545 S
C1117 C1114 1.409 . S
C1117 C1115 1.415 . S
C1118 H1108 0.930 . S
C1118 C1116 1.419 1_565 S
C1118 C1119 1.362 . S
C1119 H1109 0.930 . S
C1119 C1112 1.409 . S
C1119 C1118 1.362 . S
H1120 C1126 0.930 . S
H1121 C1129 0.930 . S
H1122 C1130 0.930 . S
H1123 C1131 0.930 . S
H1124 C1134 0.930 . S
H1125 C1135 0.930 . S
C1126 H1120 0.930 . S
C1126 C1127 1.355 . S
C1126 C1128 1.415 . S
C1127 C1126 1.355 . S
C1127 C1129 1.419 . S
C1128 C1126 1.415 . S
C1128 C1133 1.425 . S
C1128 C1135 1.409 . S
C1129 H1121 0.930 . S
C1129 C1127 1.419 . S
C1129 C1130 1.362 . S
C1130 H1122 0.930 . S
C1130 C1129 1.362 . S
C1130 C1133 1.409 . S
C1131 H1123 0.930 . S
C1131 C1132 1.355 . S
C1131 C1133 1.415 . S
C1132 C1131 1.355 . S
C1132 C1134 1.419 . S
C1133 C1128 1.425 . S
C1133 C1130 1.409 . S
C1133 C1131 1.415 . S
C1134 H1124 0.930 . S
C1134 C1132 1.419 . S
C1134 C1135 1.362 . S
C1135 H1125 0.930 . S
C1135 C1128 1.409 . S
C1135 C1134 1.362 . S
C375 C89 0.800 . S
C380 C18 0.851 . S
C391 C20 0.895 . S
C396 C41 0.853 . S
C407 C64 0.869 . S
C412 C43 0.898 . S
C423 C66 0.880 . S
C428 C87 0.843 . S
C439 C110 0.862 . S
C444 C135 0.899 . S
C455 C133 0.865 . S
C460 C158 0.898 . S
C471 C156 0.877 . S
C476 C181 0.873 . S
C487 C112 0.899 . S
C492 C179 0.861 . S
C503 C202 0.836 . S
C508 C273 0.847 . S
C519 C204 0.804 . S
C524 C225 0.845 . S
C535 C227 0.850 . S
C540 C248 0.836 . S
C551 C250 0.834 . S
C556 C271 0.875 . S
C567 C294 0.836 . S
C572 C319 0.844 . S
C583 C342 0.829 . S
C588 C317 0.837 . S
C599 C365 0.804 . S
C604 C340 0.845 . S
C615 C363 0.876 . S
C620 C296 0.841 1_455 S
C631 C17 0.757 . S
C636 C109 0.756 . S
C647 C132 0.755 . S
C652 C40 0.758 . S
C663 C63 0.754 . S
C668 C155 0.761 . S
C679 C86 0.752 . S
C684 C178 0.762 . S
C695 C293 0.762 . S
C700 C201 0.752 . S
C711 C316 0.753 . S
C716 C224 0.761 . S
C727 C247 0.760 . S
C732 C339 0.755 . S
C743 C362 0.756 . S
C748 C270 0.757 . S
C759 C21 1.785 . S
C764 C67 1.808 . S
C775 C44 1.858 . S
C780 C90 1.864 . S
C791 C159 1.867 . S
C796 C113 1.853 . S
C807 C182 1.784 . S
C812 C136 1.812 . S
C823 C251 1.807 . S
C828 C205 1.856 . S
C839 C274 1.834 . S
C844 C228 1.789 . S
C855 C297 1.784 . S
C860 C343 1.816 . S
C871 C320 1.847 . S
C876 C366 1.869 . S
C887 C200 1.570 . S
C892 C16 1.570 . S
C903 C223 1.546 . S
C908 C39 1.546 . S
C919 C246 1.513 . S
C924 C62 1.513 . S
C935 C85 1.511 . S
C940 C269 1.511 . S
C951 C292 1.525 . S
C956 C108 1.525 . S
C967 C315 1.547 . S
C972 C131 1.547 . S
C983 C338 1.538 . S
C988 C154 1.538 . S
C999 C361 1.552 . S
C1004 C177 1.552 . S
C1015 C180 1.794 . S
C1020 C19 1.751 . S
C1031 C111 1.782 . S
C1036 C42 1.725 . S
C1047 C134 1.744 . S
C1052 C65 1.795 . S
C1063 C157 1.795 . S
C1068 C88 1.746 . S
C1079 C364 1.725 . S
C1084 C203 1.781 . S
C1095 C295 1.739 . S
C1100 C226 1.746 . S
C1111 C318 1.734 . S
C1116 C249 1.752 . S
C1127 C272 1.726 . S
C1132 C341 1.785 . S
