# Generated by pormake.
# Topology lta, (4)-cn, num edge types: 1
# Building blocks:
#     Node 0, Type 0, BuildingBlock: CEKHIL_clean_sbu_0, # of connection points: 4
#     Node 1, Type 0, BuildingBlock: CEKHIL_clean_sbu_0, # of connection points: 4
#     Node 2, Type 0, BuildingBlock: CEKHIL_clean_sbu_0, # of connection points: 4
#     Node 3, Type 0, BuildingBlock: CEKHIL_clean_sbu_0, # of connection points: 4
#     Node 4, Type 0, BuildingBlock: CEKHIL_clean_sbu_0, # of connection points: 4
#     Node 5, Type 0, BuildingBlock: CEKHIL_clean_sbu_0, # of connection points: 4
#     Node 6, Type 0, BuildingBlock: CEKHIL_clean_sbu_0, # of connection points: 4
#     Node 7, Type 0, BuildingBlock: CEKHIL_clean_sbu_0, # of connection points: 4
#     Node 8, Type 0, BuildingBlock: CEKHIL_clean_sbu_0, # of connection points: 4
#     Node 9, Type 0, BuildingBlock: CEKHIL_clean_sbu_0, # of connection points: 4
#     Node 10, Type 0, BuildingBlock: CEKHIL_clean_sbu_0, # of connection points: 4
#     Node 11, Type 0, BuildingBlock: CEKHIL_clean_sbu_0, # of connection points: 4
#     Node 12, Type 0, BuildingBlock: CEKHIL_clean_sbu_0, # of connection points: 4
#     Node 13, Type 0, BuildingBlock: CEKHIL_clean_sbu_0, # of connection points: 4
#     Node 14, Type 0, BuildingBlock: CEKHIL_clean_sbu_0, # of connection points: 4
#     Node 15, Type 0, BuildingBlock: CEKHIL_clean_sbu_0, # of connection points: 4
#     Node 16, Type 0, BuildingBlock: CEKHIL_clean_sbu_0, # of connection points: 4
#     Node 17, Type 0, BuildingBlock: CEKHIL_clean_sbu_0, # of connection points: 4
#     Node 18, Type 0, BuildingBlock: CEKHIL_clean_sbu_0, # of connection points: 4
#     Node 19, Type 0, BuildingBlock: CEKHIL_clean_sbu_0, # of connection points: 4
#     Node 20, Type 0, BuildingBlock: CEKHIL_clean_sbu_0, # of connection points: 4
#     Node 21, Type 0, BuildingBlock: CEKHIL_clean_sbu_0, # of connection points: 4
#     Node 22, Type 0, BuildingBlock: CEKHIL_clean_sbu_0, # of connection points: 4
#     Node 23, Type 0, BuildingBlock: CEKHIL_clean_sbu_0, # of connection points: 4
#     Edge 24, Type (0, 0), BuildingBlock: XUDNAN_clean_linker_2, # of connection points: 2
#     Edge 25, Type (0, 0), BuildingBlock: XUDNAN_clean_linker_2, # of connection points: 2
#     Edge 26, Type (0, 0), BuildingBlock: XUDNAN_clean_linker_2, # of connection points: 2
#     Edge 27, Type (0, 0), BuildingBlock: XUDNAN_clean_linker_2, # of connection points: 2
#     Edge 28, Type (0, 0), BuildingBlock: XUDNAN_clean_linker_2, # of connection points: 2
#     Edge 29, Type (0, 0), BuildingBlock: XUDNAN_clean_linker_2, # of connection points: 2
#     Edge 30, Type (0, 0), BuildingBlock: XUDNAN_clean_linker_2, # of connection points: 2
#     Edge 31, Type (0, 0), BuildingBlock: XUDNAN_clean_linker_2, # of connection points: 2
#     Edge 32, Type (0, 0), BuildingBlock: XUDNAN_clean_linker_2, # of connection points: 2
#     Edge 33, Type (0, 0), BuildingBlock: XUDNAN_clean_linker_2, # of connection points: 2
#     Edge 34, Type (0, 0), BuildingBlock: XUDNAN_clean_linker_2, # of connection points: 2
#     Edge 35, Type (0, 0), BuildingBlock: XUDNAN_clean_linker_2, # of connection points: 2
#     Edge 36, Type (0, 0), BuildingBlock: XUDNAN_clean_linker_2, # of connection points: 2
#     Edge 37, Type (0, 0), BuildingBlock: XUDNAN_clean_linker_2, # of connection points: 2
#     Edge 38, Type (0, 0), BuildingBlock: XUDNAN_clean_linker_2, # of connection points: 2
#     Edge 39, Type (0, 0), BuildingBlock: XUDNAN_clean_linker_2, # of connection points: 2
#     Edge 40, Type (0, 0), BuildingBlock: XUDNAN_clean_linker_2, # of connection points: 2
#     Edge 41, Type (0, 0), BuildingBlock: XUDNAN_clean_linker_2, # of connection points: 2
#     Edge 42, Type (0, 0), BuildingBlock: XUDNAN_clean_linker_2, # of connection points: 2
#     Edge 43, Type (0, 0), BuildingBlock: XUDNAN_clean_linker_2, # of connection points: 2
#     Edge 44, Type (0, 0), BuildingBlock: XUDNAN_clean_linker_2, # of connection points: 2
#     Edge 45, Type (0, 0), BuildingBlock: XUDNAN_clean_linker_2, # of connection points: 2
#     Edge 46, Type (0, 0), BuildingBlock: XUDNAN_clean_linker_2, # of connection points: 2
#     Edge 47, Type (0, 0), BuildingBlock: XUDNAN_clean_linker_2, # of connection points: 2
#     Edge 48, Type (0, 0), BuildingBlock: XUDNAN_clean_linker_2, # of connection points: 2
#     Edge 49, Type (0, 0), BuildingBlock: XUDNAN_clean_linker_2, # of connection points: 2
#     Edge 50, Type (0, 0), BuildingBlock: XUDNAN_clean_linker_2, # of connection points: 2
#     Edge 51, Type (0, 0), BuildingBlock: XUDNAN_clean_linker_2, # of connection points: 2
#     Edge 52, Type (0, 0), BuildingBlock: XUDNAN_clean_linker_2, # of connection points: 2
#     Edge 53, Type (0, 0), BuildingBlock: XUDNAN_clean_linker_2, # of connection points: 2
#     Edge 54, Type (0, 0), BuildingBlock: XUDNAN_clean_linker_2, # of connection points: 2
#     Edge 55, Type (0, 0), BuildingBlock: XUDNAN_clean_linker_2, # of connection points: 2
#     Edge 56, Type (0, 0), BuildingBlock: XUDNAN_clean_linker_2, # of connection points: 2
#     Edge 57, Type (0, 0), BuildingBlock: XUDNAN_clean_linker_2, # of connection points: 2
#     Edge 58, Type (0, 0), BuildingBlock: XUDNAN_clean_linker_2, # of connection points: 2
#     Edge 59, Type (0, 0), BuildingBlock: XUDNAN_clean_linker_2, # of connection points: 2
#     Edge 60, Type (0, 0), BuildingBlock: XUDNAN_clean_linker_2, # of connection points: 2
#     Edge 61, Type (0, 0), BuildingBlock: XUDNAN_clean_linker_2, # of connection points: 2
#     Edge 62, Type (0, 0), BuildingBlock: XUDNAN_clean_linker_2, # of connection points: 2
#     Edge 63, Type (0, 0), BuildingBlock: XUDNAN_clean_linker_2, # of connection points: 2
#     Edge 64, Type (0, 0), BuildingBlock: XUDNAN_clean_linker_2, # of connection points: 2
#     Edge 65, Type (0, 0), BuildingBlock: XUDNAN_clean_linker_2, # of connection points: 2
#     Edge 66, Type (0, 0), BuildingBlock: XUDNAN_clean_linker_2, # of connection points: 2
#     Edge 67, Type (0, 0), BuildingBlock: XUDNAN_clean_linker_2, # of connection points: 2
#     Edge 68, Type (0, 0), BuildingBlock: XUDNAN_clean_linker_2, # of connection points: 2
#     Edge 69, Type (0, 0), BuildingBlock: XUDNAN_clean_linker_2, # of connection points: 2
#     Edge 70, Type (0, 0), BuildingBlock: XUDNAN_clean_linker_2, # of connection points: 2
#     Edge 71, Type (0, 0), BuildingBlock: XUDNAN_clean_linker_2, # of connection points: 2
# Relax obj value: 0.292
# Max RMSD: 0.167
# Mean RMSD: 0.167
data_MOF--net-lta--node1-CEKHIL_clean_sbu_0--edge1-XUDNAN_clean_linker_2
_symmetry_space_group_name_H-M    P1
_symmetry_Int_Tables_number       1
_symmetry_cell_setting            triclinic
loop_
_symmetry_equiv_pos_as_xyz
'x, y, z'
_cell_length_a     56.093175
_cell_length_b     56.035933
_cell_length_c     56.049541
_cell_angle_alpha  90.034997
_cell_angle_beta   89.97999
_cell_angle_gamma 90.003397
loop_
_atom_site_label
_atom_site_type_symbol
_atom_site_fract_x
_atom_site_fract_y
_atom_site_fract_z
_atom_type_partial_charge
Co0 Co 0.14285 0.32218 0.48506 0.0
O1 O 0.17645 0.31683 0.48736 0.0
O2 O 0.14897 0.29129 0.49975 0.0
C3 C 0.14374 0.3347 0.44671 0.0
O4 O 0.10629 0.32212 0.48518 0.0
Co5 Co 0.12492 0.37411 0.47448 0.0
O6 O 0.0934 0.35841 0.4736 0.0
C7 C 0.13985 0.36063 0.52347 0.0
C8 C 0.17145 0.2964 0.49692 0.0
C9 C 0.08943 0.33701 0.48019 0.0
O10 O 0.14298 0.33867 0.51732 0.0
O11 O 0.13463 0.37723 0.50866 0.0
O12 O 0.14326 0.31203 0.45135 0.0
O13 O 0.14559 0.34856 0.46491 0.0
Co14 Co 0.68541 0.13841 0.48676 0.0
O15 O 0.698 0.17047 0.48656 0.0
O16 O 0.71745 0.13847 0.49919 0.0
C17 C 0.6704 0.13949 0.44939 0.0
O18 O 0.67921 0.10265 0.48919 0.0
Co19 Co 0.6312 0.12784 0.48102 0.0
O20 O 0.64064 0.09378 0.48289 0.0
C21 C 0.64982 0.14755 0.52628 0.0
C22 C 0.7175 0.16129 0.49504 0.0
C23 C 0.66201 0.08754 0.48739 0.0
O24 O 0.67149 0.1435 0.51975 0.0
O25 O 0.63191 0.14507 0.51233 0.0
O26 O 0.69289 0.13507 0.45262 0.0
O27 O 0.65837 0.14471 0.46826 0.0
Co28 Co 0.86471 0.69054 0.48774 0.0
O29 O 0.83224 0.70192 0.4875 0.0
O30 O 0.86402 0.72432 0.49442 0.0
C31 C 0.86136 0.66874 0.45378 0.0
O32 O 0.90077 0.68605 0.48895 0.0
Co33 Co 0.87719 0.63634 0.49009 0.0
O34 O 0.91078 0.64717 0.48857 0.0
C35 C 0.85801 0.6615 0.53232 0.0
C36 C 0.84101 0.7229 0.49202 0.0
C37 C 0.91636 0.66921 0.48921 0.0
O38 O 0.86196 0.68213 0.52289 0.0
O39 O 0.86007 0.64183 0.52089 0.0
O40 O 0.86566 0.69151 0.45246 0.0
O41 O 0.85817 0.6606 0.47496 0.0
Co42 Co 0.3218 0.86151 0.4893 0.0
O43 O 0.31801 0.82765 0.49124 0.0
O44 O 0.28958 0.85358 0.49983 0.0
C45 C 0.33965 0.8599 0.45303 0.0
O46 O 0.31932 0.89795 0.48864 0.0
Co47 Co 0.37253 0.88352 0.4847 0.0
O48 O 0.3548 0.91327 0.47793 0.0
C49 C 0.35607 0.86339 0.53074 0.0
C50 C 0.29618 0.83138 0.49772 0.0
C51 C 0.33274 0.91571 0.48283 0.0
O52 O 0.33433 0.86226 0.5233 0.0
O53 O 0.37368 0.86898 0.51731 0.0
O54 O 0.31654 0.86021 0.45448 0.0
O55 O 0.35077 0.85971 0.47308 0.0
Co56 Co 0.14038 0.68473 0.52427 0.0
O57 O 0.17422 0.68873 0.52405 0.0
O58 O 0.14874 0.71565 0.51057 0.0
C59 C 0.13863 0.67132 0.56233 0.0
O60 O 0.1039 0.68612 0.52225 0.0
Co61 Co 0.12041 0.63307 0.53246 0.0
O62 O 0.08955 0.6501 0.53302 0.0
C63 C 0.14155 0.64642 0.48597 0.0
C64 C 0.17078 0.70953 0.51464 0.0
C65 C 0.08645 0.67175 0.52677 0.0
O66 O 0.14187 0.66869 0.4918 0.0
O67 O 0.13612 0.62972 0.50059 0.0
O68 O 0.13935 0.69411 0.55828 0.0
O69 O 0.14094 0.65793 0.54385 0.0
Co70 Co 0.31692 0.13905 0.51968 0.0
O71 O 0.31361 0.17285 0.52302 0.0
O72 O 0.28558 0.14917 0.50854 0.0
C73 C 0.33237 0.13333 0.55649 0.0
O74 O 0.31456 0.10297 0.51427 0.0
Co75 Co 0.36862 0.11776 0.5227 0.0
O76 O 0.3514 0.08721 0.5187 0.0
C77 C 0.35328 0.14442 0.48006 0.0
C78 C 0.29227 0.17063 0.51452 0.0
C79 C 0.32915 0.08515 0.51442 0.0
O80 O 0.33128 0.14344 0.48669 0.0
O81 O 0.37068 0.13795 0.49335 0.0
O82 O 0.30942 0.13491 0.55391 0.0
O83 O 0.3447 0.13722 0.53758 0.0
Co84 Co 0.86629 0.31518 0.51354 0.0
O85 O 0.83385 0.30371 0.51253 0.0
O86 O 0.86582 0.28219 0.50384 0.0
C87 C 0.86319 0.33357 0.54936 0.0
O88 O 0.90236 0.31988 0.51308 0.0
Co89 Co 0.87834 0.3695 0.51556 0.0
O90 O 0.91195 0.35866 0.51678 0.0
C91 C 0.86044 0.34774 0.47101 0.0
C92 C 0.84281 0.28324 0.50635 0.0
C93 C 0.91781 0.3368 0.51449 0.0
O94 O 0.86392 0.32652 0.47921 0.0
O95 O 0.86238 0.36661 0.48376 0.0
O96 O 0.86693 0.31071 0.54844 0.0
O97 O 0.85982 0.34393 0.52917 0.0
Co98 Co 0.68181 0.86478 0.51501 0.0
O99 O 0.69418 0.83289 0.51082 0.0
O100 O 0.71409 0.86613 0.5032 0.0
C101 C 0.66625 0.85782 0.55165 0.0
O102 O 0.67627 0.90061 0.5176 0.0
Co103 Co 0.62828 0.87636 0.52296 0.0
O104 O 0.63873 0.90976 0.52793 0.0
C105 C 0.64669 0.86713 0.47393 0.0
C106 C 0.71395 0.84296 0.50414 0.0
C107 C 0.66001 0.9159 0.52292 0.0
O108 O 0.66833 0.86488 0.4814 0.0
O109 O 0.62881 0.87015 0.48782 0.0
O110 O 0.68867 0.86318 0.54939 0.0
O111 O 0.65441 0.85587 0.53206 0.0
Co112 Co 0.48884 0.14054 0.3227 0.0
O113 O 0.49236 0.17267 0.31064 0.0
O114 O 0.49705 0.13976 0.2893 0.0
C115 C 0.45432 0.14796 0.34239 0.0
O116 O 0.48615 0.10456 0.32768 0.0
Co117 Co 0.48611 0.12779 0.37668 0.0
O118 O 0.47933 0.09484 0.36591 0.0
C119 C 0.53309 0.13668 0.35343 0.0
C120 C 0.4966 0.16294 0.29003 0.0
C121 C 0.48217 0.08903 0.34412 0.0
O122 O 0.52363 0.13951 0.33263 0.0
O123 O 0.52103 0.13344 0.37255 0.0
O124 O 0.45394 0.14313 0.31971 0.0
O125 O 0.47514 0.14904 0.35197 0.0
Co126 Co 0.86281 0.48602 0.32001 0.0
O127 O 0.82882 0.48754 0.31709 0.0
O128 O 0.85404 0.49761 0.28846 0.0
C129 C 0.86228 0.44912 0.33651 0.0
O130 O 0.89913 0.48632 0.31651 0.0
Co131 Co 0.88665 0.47971 0.36967 0.0
O132 O 0.9159 0.47398 0.35078 0.0
C133 C 0.86541 0.5262 0.35573 0.0
C134 C 0.83205 0.495 0.29547 0.0
C135 C 0.91744 0.48018 0.32896 0.0
O136 O 0.86327 0.51951 0.3338 0.0
O137 O 0.87209 0.51222 0.37252 0.0
O138 O 0.862 0.4514 0.31345 0.0
O139 O 0.8621 0.46872 0.34843 0.0
Co140 Co 0.51476 0.86535 0.31589 0.0
O141 O 0.51565 0.83306 0.30382 0.0
O142 O 0.50392 0.86457 0.28316 0.0
C143 C 0.5514 0.8646 0.33286 0.0
O144 O 0.51195 0.9013 0.32157 0.0
Co145 Co 0.51806 0.87622 0.37048 0.0
O146 O 0.51647 0.91009 0.36048 0.0
C147 C 0.47387 0.85625 0.34989 0.0
C148 C 0.50811 0.84176 0.28372 0.0
C149 C 0.51295 0.9164 0.33892 0.0
O150 O 0.48114 0.86045 0.32845 0.0
O151 O 0.48717 0.85855 0.3683 0.0
O152 O 0.54935 0.8686 0.31013 0.0
O153 O 0.53191 0.85951 0.34383 0.0
Co154 Co 0.13974 0.51386 0.32155 0.0
O155 O 0.17371 0.51249 0.31872 0.0
O156 O 0.14884 0.50697 0.28864 0.0
C157 C 0.1405 0.54779 0.34377 0.0
O158 O 0.10337 0.51411 0.31791 0.0
Co159 Co 0.11591 0.51303 0.37213 0.0
O160 O 0.08608 0.5176 0.35409 0.0
C161 C 0.13277 0.468 0.3494 0.0
C162 C 0.17076 0.50819 0.29621 0.0
C163 C 0.08487 0.51573 0.33148 0.0
O164 O 0.1387 0.47864 0.32987 0.0
O165 O 0.12512 0.47885 0.368 0.0
O166 O 0.14101 0.54917 0.32062 0.0
O167 O 0.14026 0.52652 0.35226 0.0
Co168 Co 0.49276 0.86501 0.68834 0.0
O169 O 0.49225 0.83271 0.70035 0.0
O170 O 0.50136 0.86463 0.72175 0.0
C171 C 0.45743 0.86201 0.66883 0.0
O172 O 0.49465 0.90102 0.68308 0.0
Co173 Co 0.49197 0.87673 0.63407 0.0
O174 O 0.49055 0.91053 0.64437 0.0
C175 C 0.53543 0.85708 0.65673 0.0
C176 C 0.49811 0.84167 0.7209 0.0
C177 C 0.49334 0.91648 0.66614 0.0
O178 O 0.52722 0.86113 0.67787 0.0
O179 O 0.52296 0.85946 0.63775 0.0
O180 O 0.4577 0.86698 0.6915 0.0
O181 O 0.47794 0.85817 0.65935 0.0
Co182 Co 0.13621 0.4903 0.68774 0.0
O183 O 0.16874 0.4928 0.69893 0.0
O184 O 0.13655 0.49833 0.72114 0.0
C185 C 0.14121 0.45559 0.66749 0.0
O186 O 0.10004 0.48876 0.68363 0.0
Co187 Co 0.12298 0.48953 0.63361 0.0
O188 O 0.09007 0.48409 0.6451 0.0
C189 C 0.13362 0.53546 0.65777 0.0
C190 C 0.15965 0.4973 0.71979 0.0
C191 C 0.0844 0.486 0.66701 0.0
O192 O 0.13595 0.52533 0.6783 0.0
O193 O 0.13019 0.52405 0.63829 0.0
O194 O 0.13788 0.45522 0.69042 0.0
O195 O 0.14315 0.47646 0.65812 0.0
Co196 Co 0.5144 0.1414 0.68205 0.0
O197 O 0.50876 0.17441 0.68883 0.0
O198 O 0.50397 0.1453 0.71506 0.0
C199 C 0.54976 0.1482 0.66366 0.0
O200 O 0.51863 0.10507 0.68098 0.0
Co201 Co 0.5203 0.1247 0.62912 0.0
O202 O 0.52865 0.09376 0.64377 0.0
C203 C 0.47195 0.13306 0.64951 0.0
C204 C 0.50302 0.16802 0.71026 0.0
C205 C 0.52441 0.08893 0.66558 0.0
O206 O 0.48035 0.13767 0.67044 0.0
O207 O 0.48503 0.12923 0.63116 0.0
O208 O 0.54903 0.14591 0.68671 0.0
O209 O 0.5295 0.1474 0.65301 0.0
Co210 Co 0.85979 0.5187 0.67671 0.0
O211 O 0.82616 0.51845 0.6819 0.0
O212 O 0.85253 0.50705 0.70881 0.0
C213 C 0.8595 0.55607 0.66112 0.0
O214 O 0.89626 0.5171 0.67722 0.0
Co215 Co 0.87889 0.5252 0.62484 0.0
O216 O 0.91026 0.52658 0.64075 0.0
C217 C 0.86293 0.4774 0.64156 0.0
C218 C 0.83029 0.51092 0.70331 0.0
C219 C 0.91355 0.52073 0.66247 0.0
O220 O 0.85854 0.48523 0.66277 0.0
O221 O 0.86945 0.49081 0.62425 0.0
O222 O 0.8608 0.55311 0.68404 0.0
O223 O 0.85735 0.53685 0.64875 0.0
Co224 Co 0.32249 0.4847 0.14417 0.0
O225 O 0.31778 0.48401 0.17795 0.0
O226 O 0.29042 0.49571 0.15207 0.0
C227 C 0.33926 0.44799 0.14182 0.0
O228 O 0.32164 0.48714 0.1077 0.0
Co229 Co 0.37511 0.48181 0.12538 0.0
O230 O 0.35885 0.4802 0.09408 0.0
C231 C 0.35728 0.52597 0.14776 0.0
C232 C 0.2964 0.49188 0.17421 0.0
C233 C 0.33675 0.48425 0.09054 0.0
O234 O 0.3356 0.51841 0.14655 0.0
O235 O 0.37539 0.51294 0.14288 0.0
O236 O 0.3162 0.45 0.14235 0.0
O237 O 0.35085 0.46754 0.14485 0.0
Co238 Co 0.31483 0.51568 0.86733 0.0
O239 O 0.30368 0.51422 0.83471 0.0
O240 O 0.28262 0.50387 0.86649 0.0
C241 C 0.33081 0.5527 0.86483 0.0
O242 O 0.31904 0.51531 0.90347 0.0
Co243 Co 0.36867 0.52124 0.88019 0.0
O244 O 0.35745 0.52057 0.91372 0.0
C245 C 0.35026 0.47524 0.86213 0.0
C246 C 0.28357 0.50676 0.84351 0.0
C247 C 0.33566 0.5172 0.91917 0.0
O248 O 0.32847 0.48212 0.86492 0.0
O249 O 0.36817 0.4892 0.86447 0.0
O250 O 0.30804 0.55021 0.86822 0.0
O251 O 0.34253 0.53326 0.86137 0.0
Co252 Co 0.48933 0.31967 0.86299 0.0
O253 O 0.48664 0.31491 0.82926 0.0
O254 O 0.49737 0.28678 0.85467 0.0
C255 C 0.45394 0.33923 0.86513 0.0
O256 O 0.49336 0.31796 0.89924 0.0
Co257 Co 0.4891 0.37073 0.88489 0.0
O258 O 0.48464 0.35364 0.91546 0.0
C259 C 0.53206 0.35208 0.85994 0.0
C260 C 0.4923 0.2928 0.83281 0.0
C261 C 0.4897 0.33157 0.91742 0.0
O262 O 0.52359 0.33068 0.85929 0.0
O263 O 0.52013 0.37019 0.86718 0.0
O264 O 0.45441 0.31607 0.86609 0.0
O265 O 0.47432 0.34939 0.86252 0.0
Co266 Co 0.68614 0.48911 0.86217 0.0
O267 O 0.68987 0.49189 0.82839 0.0
O268 O 0.71846 0.49959 0.85447 0.0
C269 C 0.66782 0.45313 0.85971 0.0
O270 O 0.68849 0.48766 0.89861 0.0
Co271 Co 0.63516 0.48466 0.88385 0.0
O272 O 0.65273 0.4772 0.91351 0.0
C273 C 0.65213 0.53063 0.86404 0.0
C274 C 0.71167 0.49839 0.83227 0.0
C275 C 0.67484 0.48174 0.91618 0.0
O276 O 0.67389 0.52319 0.86353 0.0
O277 O 0.63437 0.5172 0.86913 0.0
O278 O 0.69097 0.45421 0.86005 0.0
O279 O 0.65704 0.47336 0.86002 0.0
Co280 Co 0.51205 0.68299 0.86523 0.0
O281 O 0.50967 0.69546 0.83318 0.0
O282 O 0.50196 0.71596 0.86603 0.0
C283 C 0.54806 0.66544 0.85954 0.0
O284 O 0.51296 0.6773 0.90118 0.0
Co285 Co 0.51707 0.62883 0.87671 0.0
O286 O 0.52068 0.63907 0.91035 0.0
C287 C 0.46938 0.64978 0.86609 0.0
C288 C 0.50375 0.71565 0.8429 0.0
C289 C 0.51654 0.66056 0.9165 0.0
O290 O 0.47783 0.67113 0.86423 0.0
O291 O 0.48233 0.63124 0.86928 0.0
O292 O 0.54684 0.68799 0.86478 0.0
O293 O 0.52792 0.65475 0.85693 0.0
Co294 Co 0.68388 0.51345 0.14027 0.0
O295 O 0.68648 0.51452 0.17435 0.0
O296 O 0.71515 0.5022 0.15019 0.0
C297 C 0.66808 0.55046 0.13674 0.0
O298 O 0.68746 0.51036 0.10398 0.0
Co299 Co 0.63329 0.51767 0.11682 0.0
O300 O 0.65165 0.51687 0.08678 0.0
C301 C 0.64935 0.47145 0.137 0.0
C302 C 0.70806 0.50665 0.17186 0.0
C303 C 0.67385 0.51219 0.08551 0.0
O304 O 0.67016 0.47993 0.14197 0.0
O305 O 0.63227 0.484 0.12854 0.0
O306 O 0.69099 0.54787 0.13866 0.0
O307 O 0.65573 0.53123 0.13889 0.0
Co308 Co 0.49026 0.68323 0.13956 0.0
O309 O 0.49461 0.69565 0.17144 0.0
O310 O 0.4996 0.71641 0.13826 0.0
C311 C 0.45516 0.66492 0.14791 0.0
O312 O 0.48705 0.67756 0.10372 0.0
Co313 Co 0.48506 0.629 0.12807 0.0
O314 O 0.47903 0.63932 0.09484 0.0
C315 C 0.53311 0.65068 0.13559 0.0
C316 C 0.4994 0.716 0.16145 0.0
C317 C 0.48265 0.66086 0.08856 0.0
O318 O 0.52465 0.67196 0.13813 0.0
O319 O 0.52014 0.63203 0.13325 0.0
O320 O 0.45545 0.68748 0.14256 0.0
O321 O 0.47566 0.65469 0.14883 0.0
Co322 Co 0.51839 0.31438 0.13921 0.0
O323 O 0.51403 0.30455 0.17204 0.0
O324 O 0.50679 0.28208 0.14038 0.0
C325 C 0.55486 0.33083 0.14467 0.0
O326 O 0.5212 0.3168 0.10297 0.0
Co327 Co 0.52578 0.36738 0.12357 0.0
O328 O 0.52788 0.35447 0.09077 0.0
C329 C 0.47713 0.34921 0.13457 0.0
C330 C 0.50763 0.28396 0.16346 0.0
C331 C 0.52472 0.33239 0.08652 0.0
O332 O 0.48468 0.32768 0.13776 0.0
O333 O 0.49093 0.36701 0.13076 0.0
O334 O 0.55282 0.30792 0.14185 0.0
O335 O 0.5352 0.34262 0.14551 0.0
H336 H 0.10028 0.43959 0.3699 0.0
H337 H 0.16917 0.43815 0.3352 0.0
H338 H 0.17538 0.39674 0.34962 0.0
H339 H 0.11774 0.41708 0.42063 0.0
H340 H 0.09152 0.39978 0.42745 0.0
H341 H 0.08919 0.42522 0.40829 0.0
H342 H 0.07067 0.399 0.37502 0.0
H343 H 0.07271 0.37332 0.3943 0.0
H344 H 0.08607 0.37258 0.36506 0.0
H345 H 0.17805 0.36032 0.37607 0.0
H346 H 0.17706 0.33369 0.41139 0.0
H347 H 0.10687 0.35992 0.42927 0.0
C348 C 0.11621 0.4301 0.36444 0.0
C349 C 0.13421 0.44182 0.35139 0.0
C350 C 0.15502 0.42922 0.34485 0.0
C351 C 0.15865 0.40573 0.35302 0.0
C352 C 0.1411 0.39515 0.36729 0.0
C353 C 0.12004 0.40691 0.37256 0.0
C354 C 0.10573 0.3939 0.39136 0.0
C355 C 0.1008 0.40995 0.4132 0.0
C356 C 0.08242 0.38411 0.38079 0.0
C357 C 0.12278 0.37392 0.3973 0.0
C358 C 0.14274 0.37435 0.38274 0.0
C359 C 0.16218 0.35935 0.38701 0.0
C360 C 0.16149 0.34424 0.40703 0.0
C361 C 0.14168 0.34461 0.42259 0.0
C362 C 0.12189 0.359 0.41722 0.0
H363 H 0.63816 0.10618 0.43713 0.0
H364 H 0.67433 0.16899 0.41089 0.0
H365 H 0.64646 0.17071 0.37652 0.0
H366 H 0.62052 0.08078 0.37622 0.0
H367 H 0.59251 0.07062 0.38828 0.0
H368 H 0.61874 0.07118 0.40687 0.0
H369 H 0.59626 0.0972 0.43779 0.0
H370 H 0.57015 0.09686 0.41938 0.0
H371 H 0.58301 0.12495 0.42833 0.0
H372 H 0.60917 0.17032 0.35046 0.0
H373 H 0.56736 0.16754 0.33598 0.0
H374 H 0.557 0.1043 0.37903 0.0
C375 C 0.64081 0.11961 0.42352 0.0
C376 C 0.65846 0.13718 0.42621 0.0
C377 C 0.66116 0.15504 0.40863 0.0
C378 C 0.64539 0.15613 0.38913 0.0
C379 C 0.6274 0.13896 0.38739 0.0
C380 C 0.62542 0.12073 0.40397 0.0
C381 C 0.60301 0.10629 0.40022 0.0
C382 C 0.60907 0.0807 0.39243 0.0
C383 C 0.58719 0.10637 0.42275 0.0
C384 C 0.59177 0.12018 0.38006 0.0
C385 C 0.60621 0.13865 0.37238 0.0
C386 C 0.59804 0.1555 0.35584 0.0
C387 C 0.57433 0.1538 0.34762 0.0
C388 C 0.55919 0.13562 0.35631 0.0
C389 C 0.56841 0.11819 0.37191 0.0
H390 H 0.84663 0.62303 0.45463 0.0
H391 H 0.87399 0.677 0.40647 0.0
H392 H 0.87369 0.6472 0.37346 0.0
H393 H 0.8812 0.57627 0.43401 0.0
H394 H 0.85837 0.55404 0.43828 0.0
H395 H 0.85863 0.5804 0.45654 0.0
H396 H 0.81522 0.5898 0.44361 0.0
H397 H 0.81488 0.56348 0.42514 0.0
H398 H 0.80816 0.5922 0.41233 0.0
H399 H 0.87312 0.60902 0.34661 0.0
H400 H 0.87422 0.56768 0.33036 0.0
H401 H 0.84694 0.54096 0.39753 0.0
C402 C 0.85236 0.62883 0.43711 0.0
C403 C 0.86039 0.65232 0.43311 0.0
C404 C 0.86771 0.65906 0.40989 0.0
C405 C 0.86752 0.64226 0.39107 0.0
C406 C 0.85971 0.61902 0.39585 0.0
C407 C 0.8522 0.61251 0.41842 0.0
C408 C 0.84609 0.58636 0.4199 0.0
C409 C 0.86203 0.57353 0.43825 0.0
C410 C 0.81951 0.58276 0.42557 0.0
C411 C 0.85184 0.57877 0.39477 0.0
C412 C 0.8594 0.5977 0.38087 0.0
C413 C 0.86694 0.5942 0.35733 0.0
C414 C 0.86739 0.57073 0.34817 0.0
C415 C 0.86064 0.5512 0.36272 0.0
C416 C 0.85216 0.55554 0.38598 0.0
H417 H 0.37918 0.8337 0.44731 0.0
H418 H 0.33053 0.87944 0.40859 0.0
H419 H 0.35712 0.87731 0.37305 0.0
H420 H 0.43061 0.8587 0.42863 0.0
H421 H 0.44735 0.83129 0.4269 0.0
H422 H 0.4225 0.8335 0.44689 0.0
H423 H 0.40322 0.79641 0.42698 0.0
H424 H 0.42808 0.79421 0.4067 0.0
H425 H 0.39813 0.79624 0.39522 0.0
H426 H 0.39328 0.87537 0.34461 0.0
H427 H 0.4341 0.87452 0.32752 0.0
H428 H 0.45684 0.8281 0.38487 0.0
C429 C 0.37383 0.84285 0.43115 0.0
C430 C 0.35297 0.85679 0.43057 0.0
C431 C 0.34645 0.86853 0.40922 0.0
C432 C 0.36143 0.86734 0.389 0.0
C433 C 0.38236 0.85381 0.3904 0.0
C434 C 0.38823 0.84147 0.41094 0.0
C435 C 0.41245 0.82991 0.40915 0.0
C436 C 0.4292 0.83891 0.42905 0.0
C437 C 0.41033 0.80257 0.40953 0.0
C438 C 0.42011 0.83872 0.3849 0.0
C439 C 0.4025 0.85215 0.37401 0.0
C440 C 0.40691 0.86437 0.35271 0.0
C441 C 0.4301 0.86366 0.34299 0.0
C442 C 0.4485 0.85105 0.3548 0.0
C443 C 0.44299 0.83758 0.37529 0.0
H444 H 0.10089 0.56046 0.63396 0.0
H445 H 0.16561 0.56878 0.67507 0.0
H446 H 0.16878 0.61082 0.66124 0.0
H447 H 0.12092 0.58563 0.585 0.0
H448 H 0.09357 0.59978 0.57579 0.0
H449 H 0.09251 0.57387 0.59444 0.0
H450 H 0.06779 0.59711 0.62588 0.0
H451 H 0.06865 0.62324 0.60712 0.0
H452 H 0.07891 0.62495 0.63755 0.0
H453 H 0.1694 0.64837 0.63558 0.0
H454 H 0.16819 0.67574 0.60079 0.0
H455 H 0.1039 0.64126 0.576 0.0
C456 C 0.11515 0.57152 0.64088 0.0
C457 C 0.13289 0.56166 0.65569 0.0
C458 C 0.15161 0.57628 0.66407 0.0
C459 C 0.15352 0.60012 0.65624 0.0
C460 C 0.13634 0.60895 0.6404 0.0
C461 C 0.1173 0.59503 0.63313 0.0
C462 C 0.10343 0.60663 0.61314 0.0
C463 C 0.1026 0.59053 0.5908 0.0
C464 C 0.0782 0.61339 0.62143 0.0
C465 C 0.11847 0.62856 0.60906 0.0
C466 C 0.13695 0.63015 0.62537 0.0
C467 C 0.15461 0.64763 0.62321 0.0
C468 C 0.15377 0.66317 0.60349 0.0
C469 C 0.1357 0.66071 0.5861 0.0
C470 C 0.11753 0.64378 0.5894 0.0
H471 H 0.36754 0.10193 0.56437 0.0
H472 H 0.32559 0.15671 0.59883 0.0
H473 H 0.35434 0.15761 0.63248 0.0
H474 H 0.39057 0.07206 0.62157 0.0
H475 H 0.41891 0.06667 0.60737 0.0
H476 H 0.39187 0.06608 0.58998 0.0
H477 H 0.40983 0.09767 0.56142 0.0
H478 H 0.43662 0.0987 0.57878 0.0
H479 H 0.42006 0.12574 0.57342 0.0
H480 H 0.39283 0.15888 0.65703 0.0
H481 H 0.4352 0.15892 0.67015 0.0
H482 H 0.45044 0.10255 0.61948 0.0
C483 C 0.36384 0.11323 0.57961 0.0
C484 C 0.34437 0.12899 0.57936 0.0
C485 C 0.34021 0.14409 0.59913 0.0
C486 C 0.35652 0.14476 0.61822 0.0
C487 C 0.37645 0.12981 0.61735 0.0
C488 C 0.37973 0.11386 0.59873 0.0
C489 C 0.4038 0.10191 0.59997 0.0
C490 C 0.40112 0.07509 0.60504 0.0
C491 C 0.41842 0.1063 0.57706 0.0
C492 C 0.41433 0.1148 0.62113 0.0
C493 C 0.39829 0.13048 0.63139 0.0
C494 C 0.40529 0.14617 0.64953 0.0
C495 C 0.42935 0.14613 0.65689 0.0
C496 C 0.44599 0.1308 0.64573 0.0
C497 C 0.43806 0.11447 0.62832 0.0
H498 H 0.89269 0.45386 0.61224 0.0
H499 H 0.83204 0.44272 0.65879 0.0
H500 H 0.82936 0.40063 0.64473 0.0
H501 H 0.87122 0.42474 0.56401 0.0
H502 H 0.89934 0.41236 0.55454 0.0
H503 H 0.89878 0.43945 0.57161 0.0
H504 H 0.92665 0.4203 0.60318 0.0
H505 H 0.92726 0.39302 0.58612 0.0
H506 H 0.91828 0.39249 0.61699 0.0
H507 H 0.83035 0.36137 0.62044 0.0
H508 H 0.83405 0.33076 0.58849 0.0
H509 H 0.8937 0.36937 0.55857 0.0
C510 C 0.87908 0.44246 0.61987 0.0
C511 C 0.86246 0.4515 0.63646 0.0
C512 C 0.84502 0.43603 0.64613 0.0
C513 C 0.84343 0.41215 0.63824 0.0
C514 C 0.85974 0.40405 0.62114 0.0
C515 C 0.87741 0.41884 0.61236 0.0
C516 C 0.89145 0.40714 0.59256 0.0
C517 C 0.89008 0.42178 0.56933 0.0
C518 C 0.91745 0.40299 0.60018 0.0
C519 C 0.87815 0.38386 0.59046 0.0
C520 C 0.86029 0.38194 0.60741 0.0
C521 C 0.84461 0.36254 0.60748 0.0
C522 C 0.84688 0.34518 0.5894 0.0
C523 C 0.8644 0.34769 0.57143 0.0
C524 C 0.88047 0.3669 0.57239 0.0
H525 H 0.55284 0.82558 0.62516 0.0
H526 H 0.57468 0.87794 0.67749 0.0
H527 H 0.61532 0.87825 0.66001 0.0
H528 H 0.61332 0.79489 0.6165 0.0
H529 H 0.60736 0.79197 0.58503 0.0
H530 H 0.5832 0.79041 0.6062 0.0
H531 H 0.56155 0.82428 0.58342 0.0
H532 H 0.5857 0.82639 0.56259 0.0
H533 H 0.57651 0.85243 0.57909 0.0
H534 H 0.65051 0.87933 0.63086 0.0
H535 H 0.67571 0.88047 0.59437 0.0
H536 H 0.62889 0.82914 0.56066 0.0
C537 C 0.56658 0.83615 0.63371 0.0
C538 C 0.56084 0.85147 0.65281 0.0
C539 C 0.57894 0.86562 0.66321 0.0
C540 C 0.60202 0.86601 0.65324 0.0
C541 C 0.60663 0.85191 0.63315 0.0
C542 C 0.58938 0.83687 0.62383 0.0
C543 C 0.59695 0.82645 0.60014 0.0
C544 C 0.60042 0.79932 0.60209 0.0
C545 C 0.57913 0.83279 0.58016 0.0
C546 C 0.62048 0.83904 0.59672 0.0
C547 C 0.62626 0.85314 0.61614 0.0
C548 C 0.64637 0.86791 0.61584 0.0
C549 C 0.66057 0.8685 0.59509 0.0
C550 C 0.65414 0.85488 0.57483 0.0
C551 C 0.63421 0.83965 0.57599 0.0
H552 H 0.39253 0.16844 0.46613 0.0
H553 H 0.32917 0.13401 0.43854 0.0
H554 H 0.34594 0.13619 0.3976 0.0
H555 H 0.4056 0.20702 0.41237 0.0
H556 H 0.43718 0.20264 0.4164 0.0
H557 H 0.41765 0.20323 0.44194 0.0
H558 H 0.4338 0.16186 0.45488 0.0
H559 H 0.45298 0.1609 0.42928 0.0
H560 H 0.43197 0.13711 0.43439 0.0
H561 H 0.37358 0.13562 0.36084 0.0
H562 H 0.40793 0.13393 0.3328 0.0
H563 H 0.45239 0.16818 0.38597 0.0
C564 C 0.38176 0.16222 0.45133 0.0
C565 C 0.35953 0.15123 0.45538 0.0
C566 C 0.34608 0.1429 0.4357 0.0
C567 C 0.35555 0.14396 0.41243 0.0
C568 C 0.37825 0.15376 0.40923 0.0
C569 C 0.39091 0.16317 0.42823 0.0
C570 C 0.41587 0.17025 0.42105 0.0
C571 C 0.41926 0.1974 0.42305 0.0
C572 C 0.43474 0.15671 0.43576 0.0
C573 C 0.41583 0.16229 0.39534 0.0
C574 C 0.39396 0.1532 0.38852 0.0
C575 C 0.39061 0.14315 0.36591 0.0
C576 C 0.41017 0.1422 0.35012 0.0
C577 C 0.43276 0.15089 0.35727 0.0
C578 C 0.43532 0.16142 0.37997 0.0
H579 H 0.83005 0.37966 0.45221 0.0
H580 H 0.88238 0.32646 0.43259 0.0
H581 H 0.88341 0.34276 0.39143 0.0
H582 H 0.79993 0.38539 0.39129 0.0
H583 H 0.79653 0.41705 0.39585 0.0
H584 H 0.79511 0.39695 0.42093 0.0
H585 H 0.82853 0.42112 0.44181 0.0
H586 H 0.8304 0.44094 0.41681 0.0
H587 H 0.85665 0.42529 0.42676 0.0
H588 H 0.88472 0.37077 0.35506 0.0
H589 H 0.88553 0.40632 0.32841 0.0
H590 H 0.83345 0.44101 0.37361 0.0
C591 C 0.84085 0.37073 0.4389 0.0
C592 C 0.8559 0.3517 0.44537 0.0
C593 C 0.8703 0.34074 0.42777 0.0
C594 C 0.87107 0.35001 0.40439 0.0
C595 C 0.85703 0.36991 0.39896 0.0
C596 C 0.84182 0.37978 0.41575 0.0
C597 C 0.83112 0.40295 0.40712 0.0
C598 C 0.80407 0.40042 0.40358 0.0
C599 C 0.83706 0.42377 0.42412 0.0
C600 C 0.84379 0.4055 0.38351 0.0
C601 C 0.8582 0.38607 0.3786 0.0
C602 C 0.87307 0.38576 0.35853 0.0
C603 C 0.87346 0.40596 0.34349 0.0
C604 C 0.85952 0.42621 0.34908 0.0
C605 C 0.84419 0.42562 0.36895 0.0
H606 H 0.55817 0.89406 0.37002 0.0
H607 H 0.59378 0.84078 0.32711 0.0
H608 H 0.62699 0.83952 0.3565 0.0
H609 H 0.61362 0.92461 0.39326 0.0
H610 H 0.59951 0.92944 0.42176 0.0
H611 H 0.58189 0.92944 0.39486 0.0
H612 H 0.55467 0.89673 0.41292 0.0
H613 H 0.57227 0.89635 0.43963 0.0
H614 H 0.56776 0.86914 0.42305 0.0
H615 H 0.65244 0.83938 0.39505 0.0
H616 H 0.66702 0.84109 0.43699 0.0
H617 H 0.61382 0.89484 0.45285 0.0
C618 C 0.57339 0.88283 0.36634 0.0
C619 C 0.57369 0.86777 0.3463 0.0
C620 C 0.59361 0.85285 0.34221 0.0
C621 C 0.61245 0.85199 0.35885 0.0
C622 C 0.61113 0.8665 0.37912 0.0
C623 C 0.59222 0.88201 0.38254 0.0
C624 C 0.59326 0.89397 0.40663 0.0
C625 C 0.59732 0.92097 0.40396 0.0
C626 C 0.57067 0.88871 0.42141 0.0
C627 C 0.61491 0.88182 0.41695 0.0
C628 C 0.62543 0.86635 0.40086 0.0
C629 C 0.6446 0.85181 0.40756 0.0
C630 C 0.65279 0.85286 0.43137 0.0
C631 C 0.64144 0.868 0.44809 0.0
C632 C 0.6228 0.88304 0.44045 0.0
H633 H 0.15779 0.6035 0.4713 0.0
H634 H 0.13435 0.67205 0.44431 0.0
H635 H 0.1347 0.65565 0.40307 0.0
H636 H 0.19541 0.58601 0.42001 0.0
H637 H 0.18636 0.55527 0.4228 0.0
H638 H 0.18798 0.57398 0.4489 0.0
H639 H 0.14395 0.56374 0.45872 0.0
H640 H 0.14205 0.54535 0.43253 0.0
H641 H 0.12119 0.56945 0.43674 0.0
H642 H 0.1333 0.6289 0.36478 0.0
H643 H 0.13124 0.59583 0.33505 0.0
H644 H 0.15408 0.5461 0.38966 0.0
C645 C 0.15327 0.61532 0.4567 0.0
C646 C 0.14606 0.63903 0.46099 0.0
C647 C 0.14021 0.65387 0.44138 0.0
C648 C 0.14025 0.64465 0.41793 0.0
C649 C 0.14643 0.62071 0.41451 0.0
C650 C 0.15312 0.60645 0.43351 0.0
C651 C 0.15708 0.58092 0.42604 0.0
C652 C 0.18327 0.57363 0.42964 0.0
C653 C 0.14005 0.56389 0.43929 0.0
C654 C 0.15092 0.58267 0.39996 0.0
C655 C 0.14512 0.60568 0.39327 0.0
C656 C 0.13805 0.6109 0.36989 0.0
C657 C 0.13686 0.59207 0.35314 0.0
C658 C 0.1423 0.56842 0.36012 0.0
C659 C 0.1496 0.56395 0.38375 0.0
H660 H 0.39333 0.83801 0.5468 0.0
H661 H 0.33329 0.87996 0.57115 0.0
H662 H 0.35024 0.88026 0.61215 0.0
H663 H 0.40328 0.80337 0.60344 0.0
H664 H 0.43511 0.80451 0.5991 0.0
H665 H 0.41546 0.80363 0.57367 0.0
H666 H 0.43519 0.84218 0.55742 0.0
H667 H 0.45454 0.84347 0.58288 0.0
H668 H 0.43574 0.86857 0.57582 0.0
H669 H 0.37821 0.88124 0.64911 0.0
H670 H 0.41263 0.88147 0.67718 0.0
H671 H 0.45337 0.83939 0.62671 0.0
C672 C 0.38329 0.84649 0.56098 0.0
C673 C 0.36196 0.85876 0.55599 0.0
C674 C 0.34945 0.87005 0.5748 0.0
C675 C 0.35906 0.87041 0.59807 0.0
C676 C 0.3809 0.85906 0.60214 0.0
C677 C 0.39255 0.84693 0.58404 0.0
C678 C 0.41679 0.83823 0.5918 0.0
C679 C 0.4177 0.8108 0.59203 0.0
C680 C 0.43671 0.84875 0.57605 0.0
C681 C 0.41761 0.84823 0.61676 0.0
C682 C 0.39673 0.85988 0.62279 0.0
C683 C 0.39443 0.87178 0.64464 0.0
C684 C 0.41403 0.87189 0.66046 0.0
C685 C 0.43564 0.86052 0.65405 0.0
C686 C 0.4371 0.84828 0.63213 0.0
H687 H 0.11499 0.45075 0.62762 0.0
H688 H 0.16526 0.41293 0.67222 0.0
H689 H 0.16795 0.38083 0.64154 0.0
H690 H 0.08486 0.39706 0.60241 0.0
H691 H 0.08108 0.41175 0.57406 0.0
H692 H 0.08082 0.42896 0.60124 0.0
H693 H 0.11463 0.45566 0.58443 0.0
H694 H 0.11528 0.43842 0.55743 0.0
H695 H 0.14211 0.44204 0.57475 0.0
H696 H 0.16856 0.35576 0.60222 0.0
H697 H 0.16608 0.34067 0.56048 0.0
H698 H 0.11502 0.39634 0.54399 0.0
C699 C 0.12609 0.43548 0.63131 0.0
C700 C 0.13984 0.43422 0.65222 0.0
C701 C 0.15431 0.41396 0.65634 0.0
C702 C 0.15598 0.39575 0.63898 0.0
C703 C 0.14264 0.39802 0.618 0.0
C704 C 0.12762 0.41728 0.61449 0.0
C705 C 0.11629 0.41691 0.59013 0.0
C706 C 0.08915 0.41345 0.59209 0.0
C707 C 0.12247 0.43959 0.57586 0.0
C708 C 0.12816 0.39513 0.57978 0.0
C709 C 0.14302 0.38405 0.59603 0.0
C710 C 0.1567 0.36419 0.58954 0.0
C711 C 0.15523 0.35574 0.56583 0.0
C712 C 0.14056 0.3675 0.54897 0.0
C713 C 0.12662 0.38709 0.55636 0.0
H714 H 0.55336 0.17231 0.62254 0.0
H715 H 0.59527 0.13145 0.67287 0.0
H716 H 0.62983 0.13304 0.64503 0.0
H717 H 0.57096 0.14392 0.5727 0.0
H718 H 0.57122 0.16982 0.55364 0.0
H719 H 0.55219 0.16919 0.57935 0.0
H720 H 0.5715 0.2083 0.59485 0.0
H721 H 0.59069 0.20905 0.56906 0.0
H722 H 0.60338 0.20988 0.59859 0.0
H723 H 0.6571 0.1336 0.60804 0.0
H724 H 0.67321 0.13242 0.56681 0.0
H725 H 0.61287 0.17394 0.54233 0.0
C726 C 0.57002 0.16422 0.628 0.0
C727 C 0.57178 0.15175 0.64973 0.0
C728 C 0.59374 0.14128 0.65631 0.0
C729 C 0.6134 0.14214 0.64062 0.0
C730 C 0.61079 0.15403 0.61882 0.0
C731 C 0.58963 0.16518 0.6128 0.0
C732 C 0.5901 0.17471 0.58763 0.0
C733 C 0.56995 0.16374 0.57246 0.0
C734 C 0.58885 0.20212 0.58754 0.0
C735 C 0.61431 0.16606 0.57975 0.0
C736 C 0.62634 0.15458 0.59798 0.0
C737 C 0.64806 0.14305 0.59385 0.0
C738 C 0.65716 0.14255 0.57041 0.0
C739 C 0.6443 0.1532 0.55146 0.0
C740 C 0.62318 0.16585 0.55652 0.0
H741 H 0.829 0.56774 0.62624 0.0
H742 H 0.88586 0.59676 0.66957 0.0
H743 H 0.88537 0.63385 0.64518 0.0
H744 H 0.84904 0.5853 0.573 0.0
H745 H 0.82037 0.5921 0.56017 0.0
H746 H 0.82247 0.57086 0.58393 0.0
H747 H 0.79191 0.59547 0.60852 0.0
H748 H 0.78998 0.61706 0.58475 0.0
H749 H 0.79761 0.62656 0.61451 0.0
H750 H 0.88399 0.66345 0.6105 0.0
H751 H 0.88247 0.68104 0.56995 0.0
H752 H 0.8244 0.6337 0.55172 0.0
C753 C 0.84088 0.58222 0.63099 0.0
C754 C 0.85748 0.57958 0.64961 0.0
C755 C 0.87288 0.59869 0.6554 0.0
C756 C 0.87263 0.61978 0.64169 0.0
C757 C 0.85635 0.6216 0.62286 0.0
C758 C 0.84045 0.60337 0.6179 0.0
C759 C 0.82642 0.60818 0.59544 0.0
C760 C 0.82981 0.58793 0.57707 0.0
C761 C 0.79991 0.61205 0.60116 0.0
C762 C 0.83804 0.63112 0.5874 0.0
C763 C 0.85492 0.63902 0.60361 0.0
C764 C 0.87028 0.6579 0.5981 0.0
C765 C 0.86918 0.668 0.5751 0.0
C766 C 0.85299 0.65896 0.558 0.0
C767 C 0.83644 0.64133 0.56478 0.0
H768 H 0.37551 0.44064 0.11129 0.0
H769 H 0.3327 0.40521 0.16476 0.0
H770 H 0.36088 0.37095 0.16446 0.0
H771 H 0.39543 0.38463 0.07878 0.0
H772 H 0.42424 0.39776 0.07321 0.0
H773 H 0.39806 0.41639 0.07439 0.0
H774 H 0.41818 0.44243 0.10688 0.0
H775 H 0.44418 0.42385 0.10607 0.0
H776 H 0.42873 0.42851 0.13389 0.0
H777 H 0.39875 0.34466 0.16362 0.0
H778 H 0.44031 0.32925 0.16106 0.0
H779 H 0.45598 0.38204 0.10684 0.0
C780 C 0.37155 0.42527 0.12223 0.0
C781 C 0.35196 0.42535 0.13787 0.0
C782 C 0.34748 0.40516 0.15232 0.0
C783 C 0.36343 0.38571 0.15229 0.0
C784 C 0.3833 0.38662 0.13723 0.0
C785 C 0.38695 0.40575 0.12204 0.0
C786 C 0.41055 0.40401 0.10926 0.0
C787 C 0.40684 0.40048 0.08231 0.0
C788 C 0.42632 0.42598 0.11436 0.0
C789 C 0.42045 0.38176 0.12071 0.0
C790 C 0.4045 0.37156 0.13651 0.0
C791 C 0.41111 0.3522 0.15085 0.0
C792 C 0.4347 0.34352 0.14931 0.0
C793 C 0.45131 0.35454 0.13384 0.0
C794 C 0.44367 0.37327 0.11888 0.0
H795 H 0.44686 0.62112 0.89679 0.0
H796 H 0.43388 0.66766 0.83657 0.0
H797 H 0.39219 0.65254 0.83424 0.0
H798 H 0.4204 0.57272 0.87401 0.0
H799 H 0.40848 0.56151 0.90169 0.0
H800 H 0.43452 0.58007 0.90197 0.0
H801 H 0.4136 0.60957 0.93085 0.0
H802 H 0.3874 0.59093 0.93077 0.0
H803 H 0.38506 0.62203 0.92292 0.0
H804 H 0.35423 0.62647 0.83462 0.0
H805 H 0.32575 0.59252 0.83691 0.0
H806 H 0.36555 0.56323 0.89606 0.0
C807 C 0.43499 0.62872 0.88357 0.0
C808 C 0.44341 0.64554 0.86689 0.0
C809 C 0.42757 0.65497 0.8497 0.0
C810 C 0.40393 0.64643 0.84828 0.0
C811 C 0.39651 0.62885 0.86443 0.0
C812 C 0.41168 0.62039 0.88194 0.0
C813 C 0.40113 0.59947 0.89523 0.0
C814 C 0.41707 0.57715 0.89307 0.0
C815 C 0.39652 0.6059 0.9215 0.0
C816 C 0.37806 0.59649 0.88176 0.0
C817 C 0.37524 0.61387 0.86443 0.0
C818 C 0.35607 0.61318 0.8485 0.0
C819 C 0.33993 0.59394 0.84995 0.0
C820 C 0.34343 0.5756 0.86691 0.0
C821 C 0.36232 0.5773 0.88327 0.0
H822 H 0.44866 0.38009 0.8408 0.0
H823 H 0.40979 0.33093 0.88597 0.0
H824 H 0.37474 0.35827 0.88508 0.0
H825 H 0.43043 0.43195 0.86702 0.0
H826 H 0.42883 0.4488 0.83969 0.0
H827 H 0.44875 0.42385 0.84185 0.0
H828 H 0.42893 0.40477 0.80461 0.0
H829 H 0.40872 0.42968 0.80248 0.0
H830 H 0.39719 0.39972 0.80437 0.0
H831 H 0.34615 0.39476 0.88314 0.0
H832 H 0.3285 0.4354 0.88124 0.0
H833 H 0.3865 0.45817 0.83563 0.0
C834 C 0.43266 0.37484 0.85027 0.0
C835 C 0.43189 0.35356 0.8636 0.0
C836 C 0.41062 0.34721 0.8756 0.0
C837 C 0.39068 0.3626 0.87511 0.0
C838 C 0.39225 0.38383 0.86202 0.0
C839 C 0.41273 0.38964 0.84959 0.0
C840 C 0.41104 0.41392 0.83812 0.0
C841 C 0.43092 0.4306 0.84723 0.0
C842 C 0.41149 0.41189 0.81077 0.0
C843 C 0.38681 0.42161 0.84692 0.0
C844 C 0.37591 0.40404 0.86039 0.0
C845 C 0.35434 0.40838 0.87218 0.0
C846 C 0.34431 0.43144 0.87087 0.0
C847 C 0.35606 0.4498 0.8581 0.0
C848 C 0.37697 0.44438 0.84526 0.0
H849 H 0.62653 0.44925 0.83607 0.0
H850 H 0.67757 0.4075 0.87621 0.0
H851 H 0.65031 0.37245 0.87401 0.0
H852 H 0.57684 0.43007 0.86397 0.0
H853 H 0.55805 0.43017 0.83788 0.0
H854 H 0.58339 0.44962 0.83928 0.0
H855 H 0.59943 0.43154 0.79978 0.0
H856 H 0.57408 0.41182 0.79837 0.0
H857 H 0.60385 0.39976 0.79745 0.0
H858 H 0.61364 0.34451 0.87286 0.0
H859 H 0.57252 0.32802 0.8739 0.0
H860 H 0.54747 0.38856 0.83315 0.0
C861 C 0.63225 0.43257 0.84397 0.0
C862 C 0.65401 0.43098 0.85639 0.0
C863 C 0.66095 0.40893 0.86649 0.0
C864 C 0.6456 0.389 0.86525 0.0
C865 C 0.6238 0.39141 0.85332 0.0
C866 C 0.61743 0.4127 0.84259 0.0
C867 C 0.59238 0.41197 0.83284 0.0
C868 C 0.57677 0.43159 0.84418 0.0
C869 C 0.59245 0.41387 0.80548 0.0
C870 C 0.58493 0.38739 0.84084 0.0
C871 C 0.60328 0.37544 0.85223 0.0
C872 C 0.59939 0.35347 0.86342 0.0
C873 C 0.57605 0.3441 0.86379 0.0
C874 C 0.55703 0.35693 0.8533 0.0
C875 C 0.56185 0.37821 0.84087 0.0
H876 H 0.61661 0.54614 0.8361 0.0
H877 H 0.67328 0.57128 0.88202 0.0
H878 H 0.65574 0.61204 0.88121 0.0
H879 H 0.60769 0.60324 0.80118 0.0
H880 H 0.57596 0.59819 0.80034 0.0
H881 H 0.59621 0.57321 0.80027 0.0
H882 H 0.57458 0.55589 0.8373 0.0
H883 H 0.5546 0.58087 0.83777 0.0
H884 H 0.57201 0.57386 0.86387 0.0
H885 H 0.62711 0.6482 0.88091 0.0
H886 H 0.5918 0.67509 0.88036 0.0
H887 H 0.5546 0.62456 0.83524 0.0
C888 C 0.62586 0.56048 0.84518 0.0
C889 C 0.64635 0.55578 0.8589 0.0
C890 C 0.6578 0.57474 0.87101 0.0
C891 C 0.64787 0.59787 0.87071 0.0
C892 C 0.62678 0.60164 0.85791 0.0
C893 C 0.61625 0.58341 0.845 0.0
C894 C 0.59238 0.59076 0.83497 0.0
C895 C 0.59312 0.59139 0.80756 0.0
C896 C 0.57223 0.57438 0.84404 0.0
C897 C 0.59037 0.61555 0.84525 0.0
C898 C 0.61047 0.62191 0.85803 0.0
C899 C 0.61153 0.64351 0.87054 0.0
C900 C 0.59144 0.65867 0.87016 0.0
C901 C 0.57055 0.65182 0.85778 0.0
C902 C 0.57037 0.63027 0.84483 0.0
H903 H 0.63281 0.56039 0.10579 0.0
H904 H 0.67576 0.5918 0.16162 0.0
H905 H 0.64883 0.62696 0.16261 0.0
H906 H 0.61493 0.61906 0.07601 0.0
H907 H 0.58581 0.60714 0.06947 0.0
H908 H 0.61143 0.5877 0.06975 0.0
H909 H 0.59029 0.56042 0.10053 0.0
H910 H 0.56483 0.57973 0.10048 0.0
H911 H 0.57977 0.57311 0.12817 0.0
H912 H 0.61171 0.65376 0.16344 0.0
H913 H 0.57019 0.66943 0.16253 0.0
H914 H 0.55388 0.62125 0.10437 0.0
C915 C 0.63705 0.57516 0.1175 0.0
C916 C 0.65629 0.57366 0.13347 0.0
C917 C 0.66125 0.59297 0.14894 0.0
C918 C 0.64601 0.61294 0.14963 0.0
C919 C 0.62641 0.61347 0.13425 0.0
C920 C 0.62236 0.59525 0.11802 0.0
C921 C 0.59895 0.59842 0.10517 0.0
C922 C 0.60304 0.60338 0.07852 0.0
C923 C 0.58251 0.57665 0.10884 0.0
C924 C 0.58957 0.62028 0.11782 0.0
C925 C 0.60566 0.62913 0.13429 0.0
C926 C 0.59929 0.64743 0.1501 0.0
C927 C 0.57574 0.6563 0.14947 0.0
C928 C 0.559 0.64654 0.13334 0.0
C929 C 0.56644 0.62913 0.11677 0.0
H930 H 0.39396 0.54261 0.17388 0.0
H931 H 0.33312 0.56594 0.13256 0.0
H932 H 0.34859 0.60746 0.13338 0.0
H933 H 0.40237 0.59938 0.20972 0.0
H934 H 0.43429 0.59595 0.20826 0.0
H935 H 0.41536 0.56996 0.20906 0.0
H936 H 0.4352 0.55455 0.17021 0.0
H937 H 0.45386 0.58051 0.16905 0.0
H938 H 0.43507 0.57321 0.144 0.0
H939 H 0.37547 0.64481 0.13229 0.0
H940 H 0.40959 0.67315 0.1306 0.0
H941 H 0.45192 0.62395 0.17248 0.0
C942 C 0.3834 0.55665 0.16583 0.0
C943 C 0.36232 0.55122 0.15332 0.0
C944 C 0.34912 0.56989 0.14262 0.0
C945 C 0.35786 0.59348 0.14292 0.0
C946 C 0.37953 0.59802 0.15439 0.0
C947 C 0.39181 0.58006 0.16607 0.0
C948 C 0.41591 0.58841 0.17465 0.0
C949 C 0.41704 0.58843 0.20205 0.0
C950 C 0.43617 0.57328 0.16381 0.0
C951 C 0.41598 0.61349 0.1649 0.0
C952 C 0.39477 0.61909 0.15365 0.0
C953 C 0.39191 0.64074 0.14153 0.0
C954 C 0.41132 0.65674 0.14063 0.0
C955 C 0.4333 0.65067 0.15142 0.0
C956 C 0.43527 0.62908 0.16413 0.0
H957 H 0.62512 0.44375 0.10623 0.0
H958 H 0.66181 0.44155 0.17415 0.0
H959 H 0.6469 0.40024 0.18064 0.0
H960 H 0.57405 0.41797 0.12378 0.0
H961 H 0.56862 0.40133 0.09679 0.0
H962 H 0.58609 0.42811 0.09572 0.0
H963 H 0.621 0.40475 0.07632 0.0
H964 H 0.60351 0.37777 0.07732 0.0
H965 H 0.63263 0.37856 0.0909 0.0
H966 H 0.62166 0.36212 0.18236 0.0
H967 H 0.58921 0.33209 0.1792 0.0
H968 H 0.57027 0.35997 0.10987 0.0
C969 C 0.63057 0.4343 0.12219 0.0
C970 C 0.64455 0.44569 0.13972 0.0
C971 C 0.65128 0.43294 0.16042 0.0
C972 C 0.64289 0.40952 0.16419 0.0
C973 C 0.62833 0.39907 0.14681 0.0
C974 C 0.6226 0.41106 0.12602 0.0
C975 C 0.60485 0.39732 0.1111 0.0
C976 C 0.58207 0.41206 0.10662 0.0
C977 C 0.61618 0.38911 0.08751 0.0
C978 C 0.60015 0.3764 0.12738 0.0
C979 C 0.61421 0.37726 0.14766 0.0
C980 C 0.61109 0.36094 0.16625 0.0
C981 C 0.59274 0.34388 0.1643 0.0
C982 C 0.57774 0.34356 0.14405 0.0
C983 C 0.58194 0.35956 0.12521 0.0
H984 H 0.05109 0.36676 0.47915 0.0
H985 H 0.0703 0.29275 0.49171 0.0
H986 H 0.02812 0.28392 0.50195 0.0
H987 H 0.01183 0.37214 0.52779 0.0
H988 H 0.99152 0.3917 0.51235 0.0
H989 H 0.02262 0.39143 0.50443 0.0
H990 H 0.01172 0.38214 0.46042 0.0
H991 H 0.98057 0.38267 0.46813 0.0
H992 H 0.99311 0.35677 0.45376 0.0
H993 H 0.98283 0.28404 0.51121 0.0
H994 H 0.9402 0.2931 0.51888 0.0
H995 H 0.95334 0.36755 0.50218 0.0
C996 C 0.04659 0.34852 0.4837 0.0
C997 C 0.06411 0.33039 0.48439 0.0
C998 C 0.05721 0.30693 0.49087 0.0
C999 C 0.03331 0.30178 0.49676 0.0
C1000 C 0.01665 0.32033 0.49628 0.0
C1001 C 0.02316 0.34322 0.48991 0.0
C1002 C 0.0025 0.36041 0.4916 0.0
C1003 C 0.00742 0.38007 0.51015 0.0
C1004 C 0.99663 0.37112 0.46702 0.0
C1005 C 0.98314 0.34371 0.49994 0.0
C1006 C 0.99142 0.3206 0.50241 0.0
C1007 C 0.97627 0.30211 0.50941 0.0
C1008 C 0.95211 0.30742 0.51376 0.0
C1009 C 0.94345 0.33108 0.51138 0.0
C1010 C 0.95937 0.34934 0.50454 0.0
H1011 H 0.62955 0.05219 0.49686 0.0
H1012 H 0.70553 0.06511 0.4895 0.0
H1013 H 0.71354 0.02295 0.49968 0.0
H1014 H 0.63396 0.01285 0.54729 0.0
H1015 H 0.60991 0.99386 0.53758 0.0
H1016 H 0.61015 0.02494 0.52941 0.0
H1017 H 0.60723 0.01348 0.48468 0.0
H1018 H 0.60671 0.9824 0.49273 0.0
H1019 H 0.62885 0.99326 0.4721 0.0
H1020 H 0.71306 0.97899 0.50999 0.0
H1021 H 0.70413 0.93673 0.51876 0.0
H1022 H 0.62853 0.95333 0.52069 0.0
C1023 C 0.6479 0.04617 0.49719 0.0
C1024 C 0.66692 0.06199 0.49224 0.0
C1025 C 0.69066 0.05336 0.49318 0.0
C1026 C 0.69539 0.02945 0.499 0.0
C1027 C 0.67621 0.01445 0.50405 0.0
C1028 C 0.65294 0.0225 0.5032 0.0
C1029 C 0.63551 0.00285 0.50947 0.0
C1030 C 0.62157 0.009 0.5323 0.0
C1031 C 0.61859 0.99769 0.48849 0.0
C1032 C 0.65257 0.98235 0.51366 0.0
C1033 C 0.67597 0.98939 0.51051 0.0
C1034 C 0.69481 0.97332 0.51264 0.0
C1035 C 0.68955 0.94935 0.51767 0.0
C1036 C 0.66564 0.94167 0.52059 0.0
C1037 C 0.64702 0.9586 0.51892 0.0
H1038 H 0.94925 0.64348 0.51351 0.0
H1039 H 0.94041 0.70937 0.47402 0.0
H1040 H 0.98288 0.71948 0.4816 0.0
H1041 H 0.98775 0.66852 0.55907 0.0
H1042 H 0.00503 0.64154 0.56178 0.0
H1043 H 0.97412 0.63998 0.55319 0.0
H1044 H 0.98565 0.61664 0.51488 0.0
H1045 H 0.0165 0.6179 0.52351 0.0
H1046 H 0.00743 0.62914 0.49479 0.0
H1047 H 0.02787 0.72053 0.49201 0.0
H1048 H 0.06967 0.71244 0.5041 0.0
H1049 H 0.04634 0.64739 0.53908 0.0
C1050 C 0.95626 0.65998 0.50628 0.0
C1051 C 0.94172 0.67547 0.49285 0.0
C1052 C 0.95138 0.69718 0.48423 0.0
C1053 C 0.97542 0.70307 0.48851 0.0
C1054 C 0.98929 0.68733 0.50194 0.0
C1055 C 0.97986 0.66634 0.51086 0.0
C1056 C 0.99808 0.6524 0.5249 0.0
C1057 C 0.9908 0.65051 0.5513 0.0
C1058 C 0.00216 0.62757 0.51385 0.0
C1059 C 0.01957 0.66831 0.52184 0.0
C1060 C 0.01433 0.68847 0.50869 0.0
C1061 C 0.03204 0.70493 0.50258 0.0
C1062 C 0.05573 0.70026 0.50962 0.0
C1063 C 0.0614 0.67929 0.52257 0.0
C1064 C 0.0428 0.66363 0.52924 0.0
H1065 H 0.35256 0.05434 0.48616 0.0
H1066 H 0.28768 0.06166 0.52742 0.0
H1067 H 0.27804 0.01902 0.51935 0.0
H1068 H 0.32874 0.01186 0.44106 0.0
H1069 H 0.35681 0.99626 0.43957 0.0
H1070 H 0.35624 0.02778 0.44596 0.0
H1071 H 0.3803 0.02036 0.48476 0.0
H1072 H 0.38089 0.98893 0.47856 0.0
H1073 H 0.36905 0.99953 0.50653 0.0
H1074 H 0.27928 0.97361 0.51107 0.0
H1075 H 0.29066 0.93158 0.5032 0.0
H1076 H 0.35413 0.95609 0.46637 0.0
C1077 C 0.33606 0.04711 0.49312 0.0
C1078 C 0.32088 0.06112 0.50748 0.0
C1079 C 0.29943 0.05115 0.51624 0.0
C1080 C 0.29388 0.027 0.51174 0.0
C1081 C 0.30973 0.01342 0.49802 0.0
C1082 C 0.33021 0.02339 0.48856 0.0
C1083 C 0.34535 0.0051 0.47585 0.0
C1084 C 0.34686 0.01058 0.44901 0.0
C1085 C 0.37035 0.00338 0.48711 0.0
C1086 C 0.33085 0.9829 0.48046 0.0
C1087 C 0.3102 0.9879 0.49299 0.0
C1088 C 0.29517 0.96964 0.50086 0.0
C1089 C 0.30176 0.94579 0.49627 0.0
C1090 C 0.3233 0.94046 0.48412 0.0
C1091 C 0.33749 0.95943 0.47558 0.0
H1092 H 0.50715 0.95217 0.37173 0.0
H1093 H 0.50806 0.93888 0.29539 0.0
H1094 H 0.49861 0.98142 0.28813 0.0
H1095 H 0.45803 0.9928 0.37168 0.0
H1096 H 0.47037 0.01146 0.39479 0.0
H1097 H 0.47759 0.98016 0.39383 0.0
H1098 H 0.52268 0.99031 0.39276 0.0
H1099 H 0.51561 0.02162 0.39399 0.0
H1100 H 0.53386 0.0102 0.3701 0.0
H1101 H 0.48952 0.02605 0.28956 0.0
H1102 H 0.48247 0.06849 0.29947 0.0
H1103 H 0.4863 0.05128 0.37489 0.0
C1104 C 0.50552 0.9581 0.35342 0.0
C1105 C 0.50846 0.94209 0.33412 0.0
C1106 C 0.50596 0.95076 0.31049 0.0
C1107 C 0.50053 0.97489 0.30619 0.0
C1108 C 0.4975 0.99007 0.3257 0.0
C1109 C 0.49995 0.98196 0.34884 0.0
C1110 C 0.4958 0.00172 0.36677 0.0
C1111 C 0.47416 0.99619 0.3827 0.0
C1112 C 0.51833 0.00622 0.38178 0.0
C1113 C 0.49074 0.02235 0.35015 0.0
C1114 C 0.4918 0.01536 0.32653 0.0
C1115 C 0.48851 0.03165 0.30801 0.0
C1116 C 0.48446 0.05572 0.31383 0.0
C1117 C 0.48361 0.06328 0.33797 0.0
C1118 C 0.48646 0.04615 0.35626 0.0
H1119 H 0.9581 0.45885 0.3444 0.0
H1120 H 0.93186 0.50927 0.29201 0.0
H1121 H 0.97344 0.52048 0.28212 0.0
H1122 H 1.00002 0.49424 0.36815 0.0
H1123 H 0.02202 0.47139 0.37337 0.0
H1124 H 0.99101 0.46363 0.3723 0.0
H1125 H 0.99941 0.43278 0.33885 0.0
H1126 H 0.03065 0.44024 0.34002 0.0
H1127 H 0.01474 0.44208 0.31215 0.0
H1128 H 0.01827 0.53072 0.28305 0.0
H1129 H 0.06056 0.53806 0.29462 0.0
H1130 H 0.05563 0.48151 0.34697 0.0
C1131 C 0.96107 0.47169 0.33028 0.0
C1132 C 0.94174 0.48313 0.31895 0.0
C1133 C 0.9464 0.50002 0.30073 0.0
C1134 C 0.96999 0.50655 0.29504 0.0
C1135 C 0.98866 0.49573 0.30747 0.0
C1136 C 0.98433 0.47833 0.32446 0.0
C1137 C 0.00688 0.47111 0.33725 0.0
C1138 C 0.00484 0.47537 0.36435 0.0
C1139 C 0.0133 0.44501 0.33173 0.0
C1140 C 0.02441 0.48805 0.32585 0.0
C1141 C 0.01391 0.5018 0.30829 0.0
C1142 C 0.0267 0.51974 0.29649 0.0
C1143 C 0.05063 0.52384 0.30313 0.0
C1144 C 0.06109 0.51038 0.32169 0.0
C1145 C 0.04792 0.49205 0.33271 0.0
H1146 H 0.50393 0.95238 0.63489 0.0
H1147 H 0.49204 0.9386 0.71014 0.0
H1148 H 0.50062 0.98106 0.71912 0.0
H1149 H 0.55299 0.99234 0.64255 0.0
H1150 H 0.54441 0.0112 0.61797 0.0
H1151 H 0.53677 0.97999 0.61767 0.0
H1152 H 0.4921 0.99066 0.61214 0.0
H1153 H 0.49966 0.02187 0.6121 0.0
H1154 H 0.47796 0.01066 0.633 0.0
H1155 H 0.50965 0.0262 0.71921 0.0
H1156 H 0.51785 0.06877 0.71025 0.0
H1157 H 0.52589 0.05081 0.63531 0.0
C1158 C 0.50289 0.95822 0.65328 0.0
C1159 C 0.4971 0.94212 0.67178 0.0
C1160 C 0.49634 0.9506 0.69562 0.0
C1161 C 0.50125 0.97467 0.7009 0.0
C1162 C 0.50716 0.98998 0.68218 0.0
C1163 C 0.50803 0.98197 0.65886 0.0
C1164 C 0.51501 0.00169 0.64187 0.0
C1165 C 0.5387 0.99595 0.62928 0.0
C1166 C 0.49499 0.0065 0.62372 0.0
C1167 C 0.51778 0.02218 0.65918 0.0
C1168 C 0.51314 0.01527 0.68236 0.0
C1169 C 0.51353 0.03171 0.70112 0.0
C1170 C 0.5183 0.05585 0.69589 0.0
C1171 C 0.52279 0.06325 0.67212 0.0
C1172 C 0.52294 0.04591 0.65376 0.0
H1173 H 0.94936 0.50678 0.63327 0.0
H1174 H 0.93369 0.52123 0.70768 0.0
H1175 H 0.9756 0.51112 0.71815 0.0
H1176 H 0.98794 0.45625 0.64383 0.0
H1177 H 0.0072 0.46362 0.61917 0.0
H1178 H 0.9761 0.47157 0.61817 0.0
H1179 H 0.98742 0.51587 0.61084 0.0
H1180 H 0.01848 0.50801 0.61161 0.0
H1181 H 0.00719 0.53071 0.63142 0.0
H1182 H 0.02078 0.50148 0.71925 0.0
H1183 H 0.06345 0.49333 0.71114 0.0
H1184 H 0.04691 0.48342 0.63612 0.0
C1185 C 0.95466 0.50802 0.65182 0.0
C1186 C 0.93836 0.51519 0.66964 0.0
C1187 C 0.94596 0.51595 0.69373 0.0
C1188 C 0.96968 0.51017 0.6998 0.0
C1189 C 0.98529 0.50321 0.68162 0.0
C1190 C 0.97787 0.50195 0.65815 0.0
C1191 C 0.9977 0.49412 0.64171 0.0
C1192 C 0.99188 0.46995 0.63004 0.0
C1193 C 0.00301 0.51333 0.6228 0.0
C1194 C 0.01783 0.49181 0.65939 0.0
C1195 C 0.01048 0.49697 0.68237 0.0
C1196 C 0.02658 0.49715 0.70136 0.0
C1197 C 0.05079 0.49244 0.69657 0.0
C1198 C 0.05864 0.48763 0.67299 0.0
C1199 C 0.04166 0.48682 0.65439 0.0
H1200 H 0.36422 0.49764 0.9529 0.0
H1201 H 0.29359 0.52727 0.94259 0.0
H1202 H 0.2844 0.51992 0.98533 0.0
H1203 H 0.34565 0.45055 0.99316 0.0
H1204 H 0.37264 0.45232 0.01052 0.0
H1205 H 0.37312 0.45985 0.97928 0.0
H1206 H 0.39077 0.50145 0.98935 0.0
H1207 H 0.39055 0.49397 0.02054 0.0
H1208 H 0.37546 0.52045 0.01031 0.0
H1209 H 0.2845 0.511 0.03068 0.0
H1210 H 0.29374 0.5012 0.07287 0.0
H1211 H 0.3633 0.47522 0.0509 0.0
C1212 C 0.34684 0.50273 0.95962 0.0
C1213 C 0.32972 0.51333 0.94458 0.0
C1214 C 0.30699 0.51922 0.95392 0.0
C1215 C 0.30163 0.51507 0.97812 0.0
C1216 C 0.31902 0.50453 0.9925 0.0
C1217 C 0.34107 0.49825 0.9834 0.0
C1218 C 0.35674 0.48702 0.00216 0.0
C1219 C 0.36236 0.46089 0.9959 0.0
C1220 C 0.37972 0.5016 0.0058 0.0
C1221 C 0.34046 0.48866 0.02354 0.0
C1222 C 0.3187 0.49866 0.0178 0.0
C1223 C 0.3014 0.5029 0.03526 0.0
C1224 C 0.30676 0.49721 0.05917 0.0
C1225 C 0.32924 0.48742 0.06532 0.0
C1226 C 0.34591 0.48265 0.047 0.0
H1227 H 0.46775 0.34518 0.95849 0.0
H1228 H 0.52312 0.29866 0.93121 0.0
H1229 H 0.53635 0.29031 0.97255 0.0
H1230 H 0.49937 0.37263 0.00153 0.0
H1231 H 0.47619 0.37377 0.0238 0.0
H1232 H 0.46844 0.37257 0.99273 0.0
H1233 H 0.44288 0.33473 1.00009 0.0
H1234 H 0.45027 0.33604 0.03137 0.0
H1235 H 0.45607 0.30923 0.01456 0.0
H1236 H 0.54667 0.29154 0.01704 0.0
H1237 H 0.55188 0.30127 0.06007 0.0
H1238 H 0.49016 0.34754 0.05702 0.0
C1239 C 0.48219 0.33265 0.96128 0.0
C1240 C 0.49433 0.32245 0.94174 0.0
C1241 C 0.51332 0.30634 0.94599 0.0
C1242 C 0.52101 0.30159 0.9694 0.0
C1243 C 0.50918 0.31271 0.9883 0.0
C1244 C 0.48984 0.32753 0.98444 0.0
C1245 C 0.48104 0.33854 0.00745 0.0
C1246 C 0.48131 0.366 0.00629 0.0
C1247 C 0.45609 0.32907 0.01374 0.0
C1248 C 0.49952 0.32911 0.02462 0.0
C1249 C 0.51525 0.31368 0.01352 0.0
C1250 C 0.53425 0.30335 0.02593 0.0
C1251 C 0.53715 0.30898 0.05025 0.0
C1252 C 0.52147 0.3252 0.06152 0.0
C1253 C 0.50241 0.33517 0.0486 0.0
H1254 H 0.6533 0.46398 0.95586 0.0
H1255 H 0.71634 0.50252 0.93299 0.0
H1256 H 0.72668 0.51026 0.9753 0.0
H1257 H 0.63644 0.5034 0.99834 0.0
H1258 H 0.6251 0.48164 0.01912 0.0
H1259 H 0.62563 0.47498 0.9878 0.0
H1260 H 0.65049 0.43683 0.99592 0.0
H1261 H 0.64984 0.44325 0.02743 0.0
H1262 H 0.67797 0.43904 0.01245 0.0
H1263 H 0.72664 0.51843 0.02077 0.0
H1264 H 0.71564 0.5263 0.06314 0.0
H1265 H 0.65192 0.48363 0.05407 0.0
C1266 C 0.66968 0.47349 0.95964 0.0
C1267 C 0.68401 0.4826 0.94104 0.0
C1268 C 0.70517 0.49513 0.94691 0.0
C1269 C 0.71116 0.49965 0.97092 0.0
C1270 C 0.69594 0.4913 0.98881 0.0
C1271 C 0.67574 0.47824 0.98329 0.0
C1272 C 0.66072 0.47341 0.00512 0.0
C1273 C 0.63551 0.484 0.00242 0.0
C1274 C 0.65971 0.44653 0.01055 0.0
C1275 C 0.67501 0.4866 0.02372 0.0
C1276 C 0.69557 0.49643 0.01431 0.0
C1277 C 0.71073 0.51052 0.02831 0.0
C1278 C 0.70442 0.51491 0.0523 0.0
C1279 C 0.68291 0.50567 0.06167 0.0
C1280 C 0.66845 0.49099 0.04727 0.0
H1281 H 0.51009 0.62863 0.95296 0.0
H1282 H 0.51432 0.70457 0.93819 0.0
H1283 H 0.50465 0.71319 0.98039 0.0
H1284 H 0.46027 0.6319 0.99208 0.0
H1285 H 0.47081 0.60873 0.01171 0.0
H1286 H 0.47919 0.60851 0.98069 0.0
H1287 H 0.52391 0.60779 0.99238 0.0
H1288 H 0.51566 0.60761 0.02342 0.0
H1289 H 0.53541 0.63037 0.01221 0.0
H1290 H 0.49416 0.7133 0.02454 0.0
H1291 H 0.4852 0.70487 0.06691 0.0
H1292 H 0.48634 0.62888 0.05169 0.0
C1293 C 0.50936 0.64711 0.9586 0.0
C1294 C 0.51317 0.66592 0.94223 0.0
C1295 C 0.51159 0.68983 0.95038 0.0
C1296 C 0.50603 0.69491 0.97431 0.0
C1297 C 0.5019 0.6759 0.98982 0.0
C1298 C 0.50358 0.65248 0.98227 0.0
C1299 C 0.49789 0.63526 0.00227 0.0
C1300 C 0.47572 0.62022 0.99632 0.0
C1301 C 0.51951 0.61933 0.0079 0.0
C1302 C 0.49288 0.65261 0.02235 0.0
C1303 C 0.49527 0.67598 0.01487 0.0
C1304 C 0.49216 0.69506 0.03055 0.0
C1305 C 0.48699 0.69009 0.05458 0.0
C1306 C 0.48486 0.66622 0.0627 0.0
C1307 C 0.48747 0.64735 0.04612 0.0
H1308 H 0.17176 0.24696 0.49719 0.0
H1309 H 0.21551 0.30937 0.51088 0.0
H1310 H 0.25036 0.28361 0.51752 0.0
H1311 H 0.20163 0.2069 0.54047 0.0
H1312 H 0.19968 0.18122 0.52118 0.0
H1313 H 0.17735 0.20429 0.51956 0.0
H1314 H 0.18567 0.20897 0.47436 0.0
H1315 H 0.20822 0.18614 0.47589 0.0
H1316 H 0.21558 0.21525 0.46437 0.0
H1317 H 0.2807 0.25247 0.52023 0.0
H1318 H 0.30566 0.21658 0.52069 0.0
H1319 H 0.2437 0.17288 0.50456 0.0
C1320 C 0.18858 0.25504 0.50214 0.0
C1321 C 0.19097 0.28013 0.50371 0.0
C1322 C 0.21333 0.29019 0.50964 0.0
C1323 C 0.23323 0.27572 0.51344 0.0
C1324 C 0.23055 0.25116 0.51113 0.0
C1325 C 0.20887 0.24075 0.50576 0.0
C1326 C 0.21153 0.21384 0.50326 0.0
C1327 C 0.19667 0.20079 0.52225 0.0
C1328 C 0.20485 0.20557 0.47797 0.0
C1329 C 0.23809 0.21095 0.50785 0.0
C1330 C 0.24852 0.23282 0.51241 0.0
C1331 C 0.27276 0.23519 0.51686 0.0
C1332 C 0.2868 0.21463 0.51703 0.0
C1333 C 0.27667 0.19186 0.51271 0.0
C1334 C 0.25196 0.19003 0.50787 0.0
H1335 H 0.72095 0.21011 0.49609 0.0
H1336 H 0.7631 0.14536 0.50113 0.0
H1337 H 0.79983 0.16955 0.50367 0.0
H1338 H 0.76153 0.24371 0.46044 0.0
H1339 H 0.75614 0.27157 0.4756 0.0
H1340 H 0.73307 0.24925 0.47434 0.0
H1341 H 0.72995 0.2495 0.52048 0.0
H1342 H 0.75286 0.27199 0.52186 0.0
H1343 H 0.75635 0.24446 0.53811 0.0
H1344 H 0.83207 0.2007 0.50356 0.0
H1345 H 0.85736 0.23676 0.50506 0.0
H1346 H 0.79412 0.28128 0.50209 0.0
C1347 C 0.73791 0.20103 0.49786 0.0
C1348 C 0.73922 0.17586 0.49834 0.0
C1349 C 0.7617 0.16463 0.5008 0.0
C1350 C 0.78266 0.17821 0.50214 0.0
C1351 C 0.78079 0.20299 0.50128 0.0
C1352 C 0.75898 0.21432 0.49955 0.0
C1353 C 0.76187 0.24121 0.4995 0.0
C1354 C 0.7526 0.25206 0.47607 0.0
C1355 C 0.74953 0.25244 0.52129 0.0
C1356 C 0.78874 0.24322 0.50128 0.0
C1357 C 0.79932 0.22096 0.50205 0.0
C1358 C 0.82398 0.21823 0.50316 0.0
C1359 C 0.8382 0.23881 0.50388 0.0
C1360 C 0.8277 0.26179 0.50377 0.0
C1361 C 0.80264 0.26394 0.50232 0.0
H1362 H 0.79233 0.72429 0.49607 0.0
H1363 H 0.85482 0.7697 0.49117 0.0
H1364 H 0.82893 0.80539 0.49194 0.0
H1365 H 0.75339 0.75975 0.45955 0.0
H1366 H 0.72742 0.75444 0.47775 0.0
H1367 H 0.7508 0.73244 0.47636 0.0
H1368 H 0.75494 0.73362 0.5224 0.0
H1369 H 0.73146 0.75548 0.52395 0.0
H1370 H 0.7601 0.76178 0.53709 0.0
H1371 H 0.79612 0.8361 0.49258 0.0
H1372 H 0.75912 0.85969 0.49644 0.0
H1373 H 0.71818 0.7942 0.50225 0.0
C1374 C 0.80057 0.74174 0.49514 0.0
C1375 C 0.82558 0.74424 0.49346 0.0
C1376 C 0.83569 0.76738 0.4925 0.0
C1377 C 0.82113 0.78774 0.49281 0.0
C1378 C 0.79652 0.78465 0.49429 0.0
C1379 C 0.78632 0.76225 0.4957 0.0
C1380 C 0.75946 0.76385 0.498 0.0
C1381 C 0.74704 0.75191 0.47664 0.0
C1382 C 0.751 0.75305 0.52177 0.0
C1383 C 0.75612 0.79066 0.49761 0.0
C1384 C 0.77769 0.80234 0.49525 0.0
C1385 C 0.77913 0.82715 0.49448 0.0
C1386 C 0.758 0.84039 0.4966 0.0
C1387 C 0.73576 0.8288 0.49964 0.0
C1388 C 0.73489 0.80359 0.49991 0.0
H1389 H 0.1724 0.75896 0.50969 0.0
H1390 H 0.2162 0.69503 0.50879 0.0
H1391 H 0.25217 0.71958 0.50477 0.0
H1392 H 0.20878 0.79307 0.46669 0.0
H1393 H 0.20496 0.82101 0.48218 0.0
H1394 H 0.18204 0.79852 0.4837 0.0
H1395 H 0.18426 0.79956 0.52983 0.0
H1396 H 0.20738 0.82184 0.52845 0.0
H1397 H 0.21244 0.79439 0.5444 0.0
H1398 H 0.28332 0.74977 0.50296 0.0
H1399 H 0.30905 0.78502 0.50058 0.0
H1400 H 0.24671 0.83104 0.5025 0.0
C1401 C 0.18956 0.75022 0.50822 0.0
C1402 C 0.1915 0.72505 0.50955 0.0
C1403 C 0.21426 0.71425 0.50791 0.0
C1404 C 0.23484 0.72803 0.50563 0.0
C1405 C 0.23249 0.7527 0.50501 0.0
C1406 C 0.21054 0.76385 0.50603 0.0
C1407 C 0.21354 0.79085 0.50545 0.0
C1408 C 0.20162 0.80149 0.48318 0.0
C1409 C 0.20383 0.80233 0.5284 0.0
C1410 C 0.24057 0.79293 0.50411 0.0
C1411 C 0.25094 0.77057 0.50392 0.0
C1412 C 0.27547 0.76741 0.50294 0.0
C1413 C 0.28994 0.78762 0.50163 0.0
C1414 C 0.27995 0.81084 0.5013 0.0
C1415 C 0.25487 0.81354 0.50283 0.0
H1416 H 0.50044 0.21175 0.28644 0.0
H1417 H 0.49768 0.14697 0.24401 0.0
H1418 H 0.49858 0.17108 0.20719 0.0
H1419 H 0.46349 0.24767 0.24854 0.0
H1420 H 0.48067 0.27454 0.25265 0.0
H1421 H 0.47982 0.25232 0.27585 0.0
H1422 H 0.52594 0.24969 0.27542 0.0
H1423 H 0.52694 0.27209 0.25241 0.0
H1424 H 0.54115 0.24362 0.24774 0.0
H1425 H 0.49842 0.20208 0.17505 0.0
H1426 H 0.50121 0.23777 0.1495 0.0
H1427 H 0.50548 0.28261 0.21256 0.0
C1428 C 0.50016 0.20264 0.2694 0.0
C1429 C 0.49896 0.17746 0.26809 0.0
C1430 C 0.49867 0.16621 0.24546 0.0
C1431 C 0.49906 0.17976 0.22443 0.0
C1432 C 0.4999 0.20454 0.22633 0.0
C1433 C 0.50075 0.21589 0.2482 0.0
C1434 C 0.50214 0.24276 0.2452 0.0
C1435 C 0.48022 0.25504 0.25621 0.0
C1436 C 0.52543 0.25261 0.25582 0.0
C1437 C 0.50197 0.24471 0.21822 0.0
C1438 C 0.5004 0.22245 0.20773 0.0
C1439 C 0.49976 0.2196 0.18305 0.0
C1440 C 0.50125 0.24002 0.16869 0.0
C1441 C 0.5036 0.26299 0.17901 0.0
C1442 C 0.5037 0.26531 0.20413 0.0
H1443 H 0.8304 0.49661 0.24606 0.0
H1444 H 0.78655 0.50229 0.30968 0.0
H1445 H 0.75066 0.50551 0.28476 0.0
H1446 H 0.7954 0.53791 0.2092 0.0
H1447 H 0.79902 0.52054 0.18236 0.0
H1448 H 0.82173 0.51993 0.20508 0.0
H1449 H 0.81835 0.47387 0.20705 0.0
H1450 H 0.79545 0.47436 0.18454 0.0
H1451 H 0.78977 0.46037 0.21292 0.0
H1452 H 0.71954 0.5067 0.25397 0.0
H1453 H 0.69428 0.50761 0.21819 0.0
H1454 H 0.75711 0.50056 0.17339 0.0
C1455 C 0.81327 0.49892 0.25465 0.0
C1456 C 0.81127 0.49927 0.27982 0.0
C1457 C 0.78852 0.50195 0.29046 0.0
C1458 C 0.76799 0.50378 0.27646 0.0
C1459 C 0.77043 0.50283 0.2518 0.0
C1460 C 0.7924 0.50061 0.24086 0.0
C1461 C 0.78964 0.49949 0.2139 0.0
C1462 C 0.80219 0.52073 0.20193 0.0
C1463 C 0.79885 0.4756 0.20403 0.0
C1464 C 0.76271 0.50135 0.21154 0.0
C1465 C 0.75212 0.50328 0.23372 0.0
C1466 C 0.72757 0.50529 0.23647 0.0
C1467 C 0.71338 0.50574 0.216 0.0
C1468 C 0.72369 0.50413 0.19298 0.0
C1469 C 0.74871 0.50165 0.19075 0.0
H1470 H 0.50439 0.71961 0.21004 0.0
H1471 H 0.50081 0.76212 0.14544 0.0
H1472 H 0.50219 0.79896 0.16968 0.0
H1473 H 0.46782 0.75672 0.24613 0.0
H1474 H 0.48513 0.75266 0.27291 0.0
H1475 H 0.48455 0.72961 0.25052 0.0
H1476 H 0.53066 0.73071 0.24775 0.0
H1477 H 0.53139 0.7536 0.27032 0.0
H1478 H 0.54547 0.75865 0.24185 0.0
H1479 H 0.50157 0.83119 0.20124 0.0
H1480 H 0.50287 0.85639 0.23744 0.0
H1481 H 0.50837 0.79284 0.2813 0.0
C1482 C 0.50413 0.73667 0.20096 0.0
C1483 C 0.50248 0.73799 0.17583 0.0
C1484 C 0.50218 0.76066 0.16466 0.0
C1485 C 0.50284 0.78169 0.17829 0.0
C1486 C 0.50404 0.77975 0.20306 0.0
C1487 C 0.50502 0.75782 0.21428 0.0
C1488 C 0.50642 0.76065 0.24114 0.0
C1489 C 0.48469 0.74923 0.25339 0.0
C1490 C 0.52988 0.75029 0.25083 0.0
C1491 C 0.50589 0.78759 0.2433 0.0
C1492 C 0.50433 0.79829 0.22115 0.0
C1493 C 0.50298 0.82301 0.21866 0.0
C1494 C 0.50361 0.83717 0.23934 0.0
C1495 C 0.50579 0.8266 0.26218 0.0
C1496 C 0.50681 0.80146 0.26409 0.0
H1497 H 0.17277 0.5055 0.24657 0.0
H1498 H 0.21663 0.50449 0.31048 0.0
H1499 H 0.25259 0.50142 0.28588 0.0
H1500 H 0.2086 0.46324 0.21274 0.0
H1501 H 0.20503 0.47853 0.18468 0.0
H1502 H 0.18212 0.48058 0.20713 0.0
H1503 H 0.18501 0.52668 0.20587 0.0
H1504 H 0.20804 0.52476 0.18352 0.0
H1505 H 0.21342 0.54089 0.21082 0.0
H1506 H 0.28368 0.49864 0.25571 0.0
H1507 H 0.3093 0.4948 0.2205 0.0
H1508 H 0.24703 0.49772 0.17448 0.0
C1509 C 0.18996 0.50451 0.2553 0.0
C1510 C 0.19182 0.50528 0.28051 0.0
C1511 C 0.21465 0.50402 0.29127 0.0
C1512 C 0.23526 0.50229 0.27744 0.0
C1513 C 0.23292 0.50186 0.25277 0.0
C1514 C 0.21097 0.50283 0.24165 0.0
C1515 C 0.21395 0.50195 0.21466 0.0
C1516 C 0.2017 0.47975 0.20419 0.0
C1517 C 0.20454 0.52494 0.20303 0.0
C1518 C 0.24095 0.50023 0.21256 0.0
C1519 C 0.25133 0.50028 0.23491 0.0
C1520 C 0.27583 0.49856 0.23808 0.0
C1521 C 0.29023 0.49637 0.2179 0.0
C1522 C 0.28022 0.49593 0.1947 0.0
C1523 C 0.2552 0.49817 0.19198 0.0
H1524 H 0.50193 0.71938 0.79411 0.0
H1525 H 0.49995 0.76162 0.859 0.0
H1526 H 0.49886 0.79853 0.8349 0.0
H1527 H 0.53939 0.75808 0.76051 0.0
H1528 H 0.52392 0.75351 0.7327 0.0
H1529 H 0.52401 0.73037 0.75498 0.0
H1530 H 0.47782 0.7297 0.75489 0.0
H1531 H 0.47759 0.75268 0.73244 0.0
H1532 H 0.46161 0.75702 0.76002 0.0
H1533 H 0.50014 0.83095 0.8036 0.0
H1534 H 0.49998 0.85628 0.76748 0.0
H1535 H 0.49964 0.7928 0.72311 0.0
C1536 C 0.50106 0.73638 0.80326 0.0
C1537 C 0.50103 0.73762 0.82846 0.0
C1538 C 0.49988 0.76022 0.83973 0.0
C1539 C 0.49936 0.7813 0.82619 0.0
C1540 C 0.49979 0.77946 0.80139 0.0
C1541 C 0.50031 0.75757 0.79002 0.0
C1542 C 0.50044 0.7605 0.76315 0.0
C1543 C 0.5233 0.74999 0.7522 0.0
C1544 C 0.47803 0.74932 0.75197 0.0
C1545 C 0.50008 0.78745 0.76115 0.0
C1546 C 0.4999 0.79808 0.78341 0.0
C1547 C 0.5001 0.82282 0.78608 0.0
C1548 C 0.50012 0.83706 0.76547 0.0
C1549 C 0.49972 0.82653 0.74249 0.0
C1550 C 0.49983 0.80139 0.74042 0.0
H1551 H 0.28102 0.50586 0.79447 0.0
H1552 H 0.23771 0.50077 0.85848 0.0
H1553 H 0.20143 0.4986 0.83373 0.0
H1554 H 0.24125 0.54209 0.76056 0.0
H1555 H 0.24682 0.52713 0.73263 0.0
H1556 H 0.26962 0.52792 0.75523 0.0
H1557 H 0.27222 0.48176 0.75459 0.0
H1558 H 0.24959 0.48084 0.73181 0.0
H1559 H 0.24557 0.46436 0.75913 0.0
H1560 H 0.16978 0.49907 0.80236 0.0
H1561 H 0.14484 0.49814 0.76614 0.0
H1562 H 0.20852 0.50123 0.72218 0.0
C1563 C 0.26391 0.50411 0.80326 0.0
C1564 C 0.26218 0.50352 0.82842 0.0
C1565 C 0.23948 0.50116 0.83924 0.0
C1566 C 0.21875 0.50003 0.82534 0.0
C1567 C 0.22103 0.50102 0.80062 0.0
C1568 C 0.24302 0.50266 0.78962 0.0
C1569 C 0.24044 0.50301 0.76268 0.0
C1570 C 0.25011 0.52643 0.75217 0.0
C1571 C 0.25268 0.48119 0.75139 0.0
C1572 C 0.21355 0.50153 0.76031 0.0
C1573 C 0.20273 0.50059 0.78244 0.0
C1574 C 0.17804 0.49962 0.78492 0.0
C1575 C 0.16403 0.49921 0.76423 0.0
C1576 C 0.17472 0.49955 0.74134 0.0
C1577 C 0.19983 0.50087 0.73943 0.0
H1578 H 0.51335 0.17117 0.7586 0.0
H1579 H 0.47683 0.20687 0.70047 0.0
H1580 H 0.46862 0.24122 0.72652 0.0
H1581 H 0.47482 0.19481 0.80776 0.0
H1582 H 0.49958 0.19859 0.82791 0.0
H1583 H 0.50027 0.17526 0.80575 0.0
H1584 H 0.54034 0.19175 0.78983 0.0
H1585 H 0.53964 0.21528 0.81172 0.0
H1586 H 0.54219 0.22248 0.78049 0.0
H1587 H 0.46779 0.27293 0.75623 0.0
H1588 H 0.47202 0.30058 0.78981 0.0
H1589 H 0.509 0.24592 0.83047 0.0
C1590 C 0.50303 0.18596 0.75171 0.0
C1591 C 0.49548 0.18635 0.7276 0.0
C1592 C 0.48266 0.20624 0.7189 0.0
C1593 C 0.47789 0.22583 0.73355 0.0
C1594 C 0.48617 0.22536 0.75693 0.0
C1595 C 0.49829 0.20598 0.76617 0.0
C1596 C 0.50644 0.21113 0.79158 0.0
C1597 C 0.49456 0.19392 0.8093 0.0
C1598 C 0.53378 0.2101 0.79351 0.0
C1599 C 0.49732 0.2365 0.79485 0.0
C1600 C 0.48567 0.24415 0.77453 0.0
C1601 C 0.4766 0.26711 0.77239 0.0
C1602 C 0.47926 0.28275 0.79159 0.0
C1603 C 0.49082 0.27548 0.81285 0.0
C1604 C 0.49994 0.25195 0.81452 0.0
H1605 H 0.76118 0.49544 0.82895 0.0
H1606 H 0.69722 0.51308 0.78899 0.0
H1607 H 0.72103 0.51787 0.75263 0.0
H1608 H 0.80139 0.53668 0.79651 0.0
H1609 H 0.8262 0.51623 0.79678 0.0
H1610 H 0.80455 0.51555 0.82055 0.0
H1611 H 0.79729 0.47065 0.81243 0.0
H1612 H 0.81867 0.47126 0.78844 0.0
H1613 H 0.78868 0.4611 0.78294 0.0
H1614 H 0.74977 0.51803 0.72041 0.0
H1615 H 0.78372 0.51732 0.69312 0.0
H1616 H 0.83111 0.50029 0.75209 0.0
C1617 C 0.75238 0.50077 0.81261 0.0
C1618 C 0.72732 0.50388 0.81178 0.0
C1619 C 0.71633 0.51049 0.79003 0.0
C1620 C 0.7297 0.51326 0.76924 0.0
C1621 C 0.75413 0.50938 0.77037 0.0
C1622 C 0.76558 0.50354 0.79139 0.0
C1623 C 0.79214 0.49987 0.78698 0.0
C1624 C 0.80695 0.51818 0.80104 0.0
C1625 C 0.79963 0.47419 0.79306 0.0
C1626 C 0.79357 0.50443 0.76023 0.0
C1627 C 0.77127 0.50975 0.75125 0.0
C1628 C 0.7674 0.51413 0.7272 0.0
C1629 C 0.78691 0.51359 0.7118 0.0
C1630 C 0.8102 0.50885 0.72039 0.0
C1631 C 0.81355 0.50395 0.74498 0.0
loop_
_geom_bond_atom_site_label_1
_geom_bond_atom_site_label_2
_geom_bond_distance
_geom_bond_site_symmetry_2
_ccdc_geom_bond_type
Co0 O1 2.216 . S
Co0 O2 2.091 . S
Co0 O4 2.004 . S
Co0 O10 2.021 . S
Co0 O12 2.137 . S
Co0 O13 2.244 . S
O1 Co0 2.216 . S
O1 C8 1.247 . S
O2 Co0 2.091 . S
O2 C8 1.261 . S
C3 O12 1.247 . S
C3 O13 1.272 . S
O4 Co0 2.004 . S
O4 C9 1.259 . S
Co5 O6 2.061 . S
Co5 O11 2.052 . S
Co5 O13 2.135 . S
O6 Co5 2.061 . S
O6 C9 1.235 . S
C7 O10 1.238 . S
C7 O11 1.241 . S
C8 O1 1.247 . S
C8 O2 1.261 . S
C9 O4 1.259 . S
C9 O6 1.235 . S
O10 Co0 2.021 . S
O10 C7 1.238 . S
O11 Co5 2.052 . S
O11 C7 1.241 . S
O12 Co0 2.137 . S
O12 C3 1.247 . S
O13 Co0 2.244 . S
O13 C3 1.272 . S
O13 Co5 2.135 . S
Co14 O15 2.216 . S
Co14 O16 2.091 . S
Co14 O18 2.004 . S
Co14 O24 2.021 . S
Co14 O26 2.137 . S
Co14 O27 2.244 . S
O15 Co14 2.216 . S
O15 C22 1.247 . S
O16 Co14 2.091 . S
O16 C22 1.261 . S
C17 O26 1.247 . S
C17 O27 1.272 . S
O18 Co14 2.004 . S
O18 C23 1.259 . S
Co19 O20 2.061 . S
Co19 O25 2.052 . S
Co19 O27 2.135 . S
O20 Co19 2.061 . S
O20 C23 1.235 . S
C21 O24 1.238 . S
C21 O25 1.241 . S
C22 O15 1.247 . S
C22 O16 1.261 . S
C23 O18 1.259 . S
C23 O20 1.235 . S
O24 Co14 2.021 . S
O24 C21 1.238 . S
O25 Co19 2.052 . S
O25 C21 1.241 . S
O26 Co14 2.137 . S
O26 C17 1.247 . S
O27 Co14 2.244 . S
O27 C17 1.272 . S
O27 Co19 2.135 . S
Co28 O29 2.216 . S
Co28 O30 2.091 . S
Co28 O32 2.004 . S
Co28 O38 2.021 . S
Co28 O40 2.137 . S
Co28 O41 2.244 . S
O29 Co28 2.216 . S
O29 C36 1.247 . S
O30 Co28 2.091 . S
O30 C36 1.261 . S
C31 O40 1.247 . S
C31 O41 1.272 . S
O32 Co28 2.004 . S
O32 C37 1.259 . S
Co33 O34 2.061 . S
Co33 O39 2.052 . S
Co33 O41 2.135 . S
O34 Co33 2.061 . S
O34 C37 1.235 . S
C35 O38 1.238 . S
C35 O39 1.241 . S
C36 O29 1.247 . S
C36 O30 1.261 . S
C37 O32 1.259 . S
C37 O34 1.235 . S
O38 Co28 2.021 . S
O38 C35 1.238 . S
O39 Co33 2.052 . S
O39 C35 1.241 . S
O40 Co28 2.137 . S
O40 C31 1.247 . S
O41 Co28 2.244 . S
O41 C31 1.272 . S
O41 Co33 2.135 . S
Co42 O43 2.216 . S
Co42 O44 2.091 . S
Co42 O46 2.004 . S
Co42 O52 2.021 . S
Co42 O54 2.137 . S
Co42 O55 2.244 . S
O43 Co42 2.216 . S
O43 C50 1.247 . S
O44 Co42 2.091 . S
O44 C50 1.261 . S
C45 O54 1.247 . S
C45 O55 1.272 . S
O46 Co42 2.004 . S
O46 C51 1.259 . S
Co47 O48 2.061 . S
Co47 O53 2.052 . S
Co47 O55 2.135 . S
O48 Co47 2.061 . S
O48 C51 1.235 . S
C49 O52 1.238 . S
C49 O53 1.241 . S
C50 O43 1.247 . S
C50 O44 1.261 . S
C51 O46 1.259 . S
C51 O48 1.235 . S
O52 Co42 2.021 . S
O52 C49 1.238 . S
O53 Co47 2.052 . S
O53 C49 1.241 . S
O54 Co42 2.137 . S
O54 C45 1.247 . S
O55 Co42 2.244 . S
O55 C45 1.272 . S
O55 Co47 2.135 . S
Co56 O57 2.216 . S
Co56 O58 2.091 . S
Co56 O60 2.004 . S
Co56 O66 2.021 . S
Co56 O68 2.137 . S
Co56 O69 2.244 . S
O57 Co56 2.216 . S
O57 C64 1.247 . S
O58 Co56 2.091 . S
O58 C64 1.261 . S
C59 O68 1.247 . S
C59 O69 1.272 . S
O60 Co56 2.004 . S
O60 C65 1.259 . S
Co61 O62 2.061 . S
Co61 O67 2.052 . S
Co61 O69 2.135 . S
O62 Co61 2.061 . S
O62 C65 1.235 . S
C63 O66 1.238 . S
C63 O67 1.241 . S
C64 O57 1.247 . S
C64 O58 1.261 . S
C65 O60 1.259 . S
C65 O62 1.235 . S
O66 Co56 2.021 . S
O66 C63 1.238 . S
O67 Co61 2.052 . S
O67 C63 1.241 . S
O68 Co56 2.137 . S
O68 C59 1.247 . S
O69 Co56 2.244 . S
O69 C59 1.272 . S
O69 Co61 2.135 . S
Co70 O71 2.216 . S
Co70 O72 2.091 . S
Co70 O74 2.004 . S
Co70 O80 2.021 . S
Co70 O82 2.137 . S
Co70 O83 2.244 . S
O71 Co70 2.216 . S
O71 C78 1.247 . S
O72 Co70 2.091 . S
O72 C78 1.261 . S
C73 O82 1.247 . S
C73 O83 1.272 . S
O74 Co70 2.004 . S
O74 C79 1.259 . S
Co75 O76 2.061 . S
Co75 O81 2.052 . S
Co75 O83 2.135 . S
O76 Co75 2.061 . S
O76 C79 1.235 . S
C77 O80 1.238 . S
C77 O81 1.241 . S
C78 O71 1.247 . S
C78 O72 1.261 . S
C79 O74 1.259 . S
C79 O76 1.235 . S
O80 Co70 2.021 . S
O80 C77 1.238 . S
O81 Co75 2.052 . S
O81 C77 1.241 . S
O82 Co70 2.137 . S
O82 C73 1.247 . S
O83 Co70 2.244 . S
O83 C73 1.272 . S
O83 Co75 2.135 . S
Co84 O85 2.216 . S
Co84 O86 2.091 . S
Co84 O88 2.004 . S
Co84 O94 2.021 . S
Co84 O96 2.137 . S
Co84 O97 2.244 . S
O85 Co84 2.216 . S
O85 C92 1.247 . S
O86 Co84 2.091 . S
O86 C92 1.261 . S
C87 O96 1.247 . S
C87 O97 1.272 . S
O88 Co84 2.004 . S
O88 C93 1.259 . S
Co89 O90 2.061 . S
Co89 O95 2.052 . S
Co89 O97 2.135 . S
O90 Co89 2.061 . S
O90 C93 1.235 . S
C91 O94 1.238 . S
C91 O95 1.241 . S
C92 O85 1.247 . S
C92 O86 1.261 . S
C93 O88 1.259 . S
C93 O90 1.235 . S
O94 Co84 2.021 . S
O94 C91 1.238 . S
O95 Co89 2.052 . S
O95 C91 1.241 . S
O96 Co84 2.137 . S
O96 C87 1.247 . S
O97 Co84 2.244 . S
O97 C87 1.272 . S
O97 Co89 2.135 . S
Co98 O99 2.216 . S
Co98 O100 2.091 . S
Co98 O102 2.004 . S
Co98 O108 2.021 . S
Co98 O110 2.137 . S
Co98 O111 2.244 . S
O99 Co98 2.216 . S
O99 C106 1.247 . S
O100 Co98 2.091 . S
O100 C106 1.261 . S
C101 O110 1.247 . S
C101 O111 1.272 . S
O102 Co98 2.004 . S
O102 C107 1.259 . S
Co103 O104 2.061 . S
Co103 O109 2.052 . S
Co103 O111 2.135 . S
O104 Co103 2.061 . S
O104 C107 1.235 . S
C105 O108 1.238 . S
C105 O109 1.241 . S
C106 O99 1.247 . S
C106 O100 1.261 . S
C107 O102 1.259 . S
C107 O104 1.235 . S
O108 Co98 2.021 . S
O108 C105 1.238 . S
O109 Co103 2.052 . S
O109 C105 1.241 . S
O110 Co98 2.137 . S
O110 C101 1.247 . S
O111 Co98 2.244 . S
O111 C101 1.272 . S
O111 Co103 2.135 . S
Co112 O113 2.216 . S
Co112 O114 2.091 . S
Co112 O116 2.004 . S
Co112 O122 2.021 . S
Co112 O124 2.137 . S
Co112 O125 2.244 . S
O113 Co112 2.216 . S
O113 C120 1.247 . S
O114 Co112 2.091 . S
O114 C120 1.261 . S
C115 O124 1.247 . S
C115 O125 1.272 . S
O116 Co112 2.004 . S
O116 C121 1.259 . S
Co117 O118 2.061 . S
Co117 O123 2.052 . S
Co117 O125 2.135 . S
O118 Co117 2.061 . S
O118 C121 1.235 . S
C119 O122 1.238 . S
C119 O123 1.241 . S
C120 O113 1.247 . S
C120 O114 1.261 . S
C121 O116 1.259 . S
C121 O118 1.235 . S
O122 Co112 2.021 . S
O122 C119 1.238 . S
O123 Co117 2.052 . S
O123 C119 1.241 . S
O124 Co112 2.137 . S
O124 C115 1.247 . S
O125 Co112 2.244 . S
O125 C115 1.272 . S
O125 Co117 2.135 . S
Co126 O127 2.216 . S
Co126 O128 2.091 . S
Co126 O130 2.004 . S
Co126 O136 2.021 . S
Co126 O138 2.137 . S
Co126 O139 2.244 . S
O127 Co126 2.216 . S
O127 C134 1.247 . S
O128 Co126 2.091 . S
O128 C134 1.261 . S
C129 O138 1.247 . S
C129 O139 1.272 . S
O130 Co126 2.004 . S
O130 C135 1.259 . S
Co131 O132 2.061 . S
Co131 O137 2.052 . S
Co131 O139 2.135 . S
O132 Co131 2.061 . S
O132 C135 1.235 . S
C133 O136 1.238 . S
C133 O137 1.241 . S
C134 O127 1.247 . S
C134 O128 1.261 . S
C135 O130 1.259 . S
C135 O132 1.235 . S
O136 Co126 2.021 . S
O136 C133 1.238 . S
O137 Co131 2.052 . S
O137 C133 1.241 . S
O138 Co126 2.137 . S
O138 C129 1.247 . S
O139 Co126 2.244 . S
O139 C129 1.272 . S
O139 Co131 2.135 . S
Co140 O141 2.216 . S
Co140 O142 2.091 . S
Co140 O144 2.004 . S
Co140 O150 2.021 . S
Co140 O152 2.137 . S
Co140 O153 2.244 . S
O141 Co140 2.216 . S
O141 C148 1.247 . S
O142 Co140 2.091 . S
O142 C148 1.261 . S
C143 O152 1.247 . S
C143 O153 1.272 . S
O144 Co140 2.004 . S
O144 C149 1.259 . S
Co145 O146 2.061 . S
Co145 O151 2.052 . S
Co145 O153 2.135 . S
O146 Co145 2.061 . S
O146 C149 1.235 . S
C147 O150 1.238 . S
C147 O151 1.241 . S
C148 O141 1.247 . S
C148 O142 1.261 . S
C149 O144 1.259 . S
C149 O146 1.235 . S
O150 Co140 2.021 . S
O150 C147 1.238 . S
O151 Co145 2.052 . S
O151 C147 1.241 . S
O152 Co140 2.137 . S
O152 C143 1.247 . S
O153 Co140 2.244 . S
O153 C143 1.272 . S
O153 Co145 2.135 . S
Co154 O155 2.216 . S
Co154 O156 2.091 . S
Co154 O158 2.004 . S
Co154 O164 2.021 . S
Co154 O166 2.137 . S
Co154 O167 2.244 . S
O155 Co154 2.216 . S
O155 C162 1.247 . S
O156 Co154 2.091 . S
O156 C162 1.261 . S
C157 O166 1.247 . S
C157 O167 1.272 . S
O158 Co154 2.004 . S
O158 C163 1.259 . S
Co159 O160 2.061 . S
Co159 O165 2.052 . S
Co159 O167 2.135 . S
O160 Co159 2.061 . S
O160 C163 1.235 . S
C161 O164 1.238 . S
C161 O165 1.241 . S
C162 O155 1.247 . S
C162 O156 1.261 . S
C163 O158 1.259 . S
C163 O160 1.235 . S
O164 Co154 2.021 . S
O164 C161 1.238 . S
O165 Co159 2.052 . S
O165 C161 1.241 . S
O166 Co154 2.137 . S
O166 C157 1.247 . S
O167 Co154 2.244 . S
O167 C157 1.272 . S
O167 Co159 2.135 . S
Co168 O169 2.216 . S
Co168 O170 2.091 . S
Co168 O172 2.004 . S
Co168 O178 2.021 . S
Co168 O180 2.137 . S
Co168 O181 2.244 . S
O169 Co168 2.216 . S
O169 C176 1.247 . S
O170 Co168 2.091 . S
O170 C176 1.261 . S
C171 O180 1.247 . S
C171 O181 1.272 . S
O172 Co168 2.004 . S
O172 C177 1.259 . S
Co173 O174 2.061 . S
Co173 O179 2.052 . S
Co173 O181 2.135 . S
O174 Co173 2.061 . S
O174 C177 1.235 . S
C175 O178 1.238 . S
C175 O179 1.241 . S
C176 O169 1.247 . S
C176 O170 1.261 . S
C177 O172 1.259 . S
C177 O174 1.235 . S
O178 Co168 2.021 . S
O178 C175 1.238 . S
O179 Co173 2.052 . S
O179 C175 1.241 . S
O180 Co168 2.137 . S
O180 C171 1.247 . S
O181 Co168 2.244 . S
O181 C171 1.272 . S
O181 Co173 2.135 . S
Co182 O183 2.216 . S
Co182 O184 2.091 . S
Co182 O186 2.004 . S
Co182 O192 2.021 . S
Co182 O194 2.137 . S
Co182 O195 2.244 . S
O183 Co182 2.216 . S
O183 C190 1.247 . S
O184 Co182 2.091 . S
O184 C190 1.261 . S
C185 O194 1.247 . S
C185 O195 1.272 . S
O186 Co182 2.004 . S
O186 C191 1.259 . S
Co187 O188 2.061 . S
Co187 O193 2.052 . S
Co187 O195 2.135 . S
O188 Co187 2.061 . S
O188 C191 1.235 . S
C189 O192 1.238 . S
C189 O193 1.241 . S
C190 O183 1.247 . S
C190 O184 1.261 . S
C191 O186 1.259 . S
C191 O188 1.235 . S
O192 Co182 2.021 . S
O192 C189 1.238 . S
O193 Co187 2.052 . S
O193 C189 1.241 . S
O194 Co182 2.137 . S
O194 C185 1.247 . S
O195 Co182 2.244 . S
O195 C185 1.272 . S
O195 Co187 2.135 . S
Co196 O197 2.216 . S
Co196 O198 2.091 . S
Co196 O200 2.004 . S
Co196 O206 2.021 . S
Co196 O208 2.137 . S
Co196 O209 2.244 . S
O197 Co196 2.216 . S
O197 C204 1.247 . S
O198 Co196 2.091 . S
O198 C204 1.261 . S
C199 O208 1.247 . S
C199 O209 1.272 . S
O200 Co196 2.004 . S
O200 C205 1.259 . S
Co201 O202 2.061 . S
Co201 O207 2.052 . S
Co201 O209 2.135 . S
O202 Co201 2.061 . S
O202 C205 1.235 . S
C203 O206 1.238 . S
C203 O207 1.241 . S
C204 O197 1.247 . S
C204 O198 1.261 . S
C205 O200 1.259 . S
C205 O202 1.235 . S
O206 Co196 2.021 . S
O206 C203 1.238 . S
O207 Co201 2.052 . S
O207 C203 1.241 . S
O208 Co196 2.137 . S
O208 C199 1.247 . S
O209 Co196 2.244 . S
O209 C199 1.272 . S
O209 Co201 2.135 . S
Co210 O211 2.216 . S
Co210 O212 2.091 . S
Co210 O214 2.004 . S
Co210 O220 2.021 . S
Co210 O222 2.137 . S
Co210 O223 2.244 . S
O211 Co210 2.216 . S
O211 C218 1.247 . S
O212 Co210 2.091 . S
O212 C218 1.261 . S
C213 O222 1.247 . S
C213 O223 1.272 . S
O214 Co210 2.004 . S
O214 C219 1.259 . S
Co215 O216 2.061 . S
Co215 O221 2.052 . S
Co215 O223 2.135 . S
O216 Co215 2.061 . S
O216 C219 1.235 . S
C217 O220 1.238 . S
C217 O221 1.241 . S
C218 O211 1.247 . S
C218 O212 1.261 . S
C219 O214 1.259 . S
C219 O216 1.235 . S
O220 Co210 2.021 . S
O220 C217 1.238 . S
O221 Co215 2.052 . S
O221 C217 1.241 . S
O222 Co210 2.137 . S
O222 C213 1.247 . S
O223 Co210 2.244 . S
O223 C213 1.272 . S
O223 Co215 2.135 . S
Co224 O225 2.216 . S
Co224 O226 2.091 . S
Co224 O228 2.004 . S
Co224 O234 2.021 . S
Co224 O236 2.137 . S
Co224 O237 2.244 . S
O225 Co224 2.216 . S
O225 C232 1.247 . S
O226 Co224 2.091 . S
O226 C232 1.261 . S
C227 O236 1.247 . S
C227 O237 1.272 . S
O228 Co224 2.004 . S
O228 C233 1.259 . S
Co229 O230 2.061 . S
Co229 O235 2.052 . S
Co229 O237 2.135 . S
O230 Co229 2.061 . S
O230 C233 1.235 . S
C231 O234 1.238 . S
C231 O235 1.241 . S
C232 O225 1.247 . S
C232 O226 1.261 . S
C233 O228 1.259 . S
C233 O230 1.235 . S
O234 Co224 2.021 . S
O234 C231 1.238 . S
O235 Co229 2.052 . S
O235 C231 1.241 . S
O236 Co224 2.137 . S
O236 C227 1.247 . S
O237 Co224 2.244 . S
O237 C227 1.272 . S
O237 Co229 2.135 . S
Co238 O239 2.216 . S
Co238 O240 2.091 . S
Co238 O242 2.004 . S
Co238 O248 2.021 . S
Co238 O250 2.137 . S
Co238 O251 2.244 . S
O239 Co238 2.216 . S
O239 C246 1.247 . S
O240 Co238 2.091 . S
O240 C246 1.261 . S
C241 O250 1.247 . S
C241 O251 1.272 . S
O242 Co238 2.004 . S
O242 C247 1.259 . S
Co243 O244 2.061 . S
Co243 O249 2.052 . S
Co243 O251 2.135 . S
O244 Co243 2.061 . S
O244 C247 1.235 . S
C245 O248 1.238 . S
C245 O249 1.241 . S
C246 O239 1.247 . S
C246 O240 1.261 . S
C247 O242 1.259 . S
C247 O244 1.235 . S
O248 Co238 2.021 . S
O248 C245 1.238 . S
O249 Co243 2.052 . S
O249 C245 1.241 . S
O250 Co238 2.137 . S
O250 C241 1.247 . S
O251 Co238 2.244 . S
O251 C241 1.272 . S
O251 Co243 2.135 . S
Co252 O253 2.216 . S
Co252 O254 2.091 . S
Co252 O256 2.004 . S
Co252 O262 2.021 . S
Co252 O264 2.137 . S
Co252 O265 2.244 . S
O253 Co252 2.216 . S
O253 C260 1.247 . S
O254 Co252 2.091 . S
O254 C260 1.261 . S
C255 O264 1.247 . S
C255 O265 1.272 . S
O256 Co252 2.004 . S
O256 C261 1.259 . S
Co257 O258 2.061 . S
Co257 O263 2.052 . S
Co257 O265 2.135 . S
O258 Co257 2.061 . S
O258 C261 1.235 . S
C259 O262 1.238 . S
C259 O263 1.241 . S
C260 O253 1.247 . S
C260 O254 1.261 . S
C261 O256 1.259 . S
C261 O258 1.235 . S
O262 Co252 2.021 . S
O262 C259 1.238 . S
O263 Co257 2.052 . S
O263 C259 1.241 . S
O264 Co252 2.137 . S
O264 C255 1.247 . S
O265 Co252 2.244 . S
O265 C255 1.272 . S
O265 Co257 2.135 . S
Co266 O267 2.216 . S
Co266 O268 2.091 . S
Co266 O270 2.004 . S
Co266 O276 2.021 . S
Co266 O278 2.137 . S
Co266 O279 2.244 . S
O267 Co266 2.216 . S
O267 C274 1.247 . S
O268 Co266 2.091 . S
O268 C274 1.261 . S
C269 O278 1.247 . S
C269 O279 1.272 . S
O270 Co266 2.004 . S
O270 C275 1.259 . S
Co271 O272 2.061 . S
Co271 O277 2.052 . S
Co271 O279 2.135 . S
O272 Co271 2.061 . S
O272 C275 1.235 . S
C273 O276 1.238 . S
C273 O277 1.241 . S
C274 O267 1.247 . S
C274 O268 1.261 . S
C275 O270 1.259 . S
C275 O272 1.235 . S
O276 Co266 2.021 . S
O276 C273 1.238 . S
O277 Co271 2.052 . S
O277 C273 1.241 . S
O278 Co266 2.137 . S
O278 C269 1.247 . S
O279 Co266 2.244 . S
O279 C269 1.272 . S
O279 Co271 2.135 . S
Co280 O281 2.216 . S
Co280 O282 2.091 . S
Co280 O284 2.004 . S
Co280 O290 2.021 . S
Co280 O292 2.137 . S
Co280 O293 2.244 . S
O281 Co280 2.216 . S
O281 C288 1.247 . S
O282 Co280 2.091 . S
O282 C288 1.261 . S
C283 O292 1.247 . S
C283 O293 1.272 . S
O284 Co280 2.004 . S
O284 C289 1.259 . S
Co285 O286 2.061 . S
Co285 O291 2.052 . S
Co285 O293 2.135 . S
O286 Co285 2.061 . S
O286 C289 1.235 . S
C287 O290 1.238 . S
C287 O291 1.241 . S
C288 O281 1.247 . S
C288 O282 1.261 . S
C289 O284 1.259 . S
C289 O286 1.235 . S
O290 Co280 2.021 . S
O290 C287 1.238 . S
O291 Co285 2.052 . S
O291 C287 1.241 . S
O292 Co280 2.137 . S
O292 C283 1.247 . S
O293 Co280 2.244 . S
O293 C283 1.272 . S
O293 Co285 2.135 . S
Co294 O295 2.216 . S
Co294 O296 2.091 . S
Co294 O298 2.004 . S
Co294 O304 2.021 . S
Co294 O306 2.137 . S
Co294 O307 2.244 . S
O295 Co294 2.216 . S
O295 C302 1.247 . S
O296 Co294 2.091 . S
O296 C302 1.261 . S
C297 O306 1.247 . S
C297 O307 1.272 . S
O298 Co294 2.004 . S
O298 C303 1.259 . S
Co299 O300 2.061 . S
Co299 O305 2.052 . S
Co299 O307 2.135 . S
O300 Co299 2.061 . S
O300 C303 1.235 . S
C301 O304 1.238 . S
C301 O305 1.241 . S
C302 O295 1.247 . S
C302 O296 1.261 . S
C303 O298 1.259 . S
C303 O300 1.235 . S
O304 Co294 2.021 . S
O304 C301 1.238 . S
O305 Co299 2.052 . S
O305 C301 1.241 . S
O306 Co294 2.137 . S
O306 C297 1.247 . S
O307 Co294 2.244 . S
O307 C297 1.272 . S
O307 Co299 2.135 . S
Co308 O309 2.216 . S
Co308 O310 2.091 . S
Co308 O312 2.004 . S
Co308 O318 2.021 . S
Co308 O320 2.137 . S
Co308 O321 2.244 . S
O309 Co308 2.216 . S
O309 C316 1.247 . S
O310 Co308 2.091 . S
O310 C316 1.261 . S
C311 O320 1.247 . S
C311 O321 1.272 . S
O312 Co308 2.004 . S
O312 C317 1.259 . S
Co313 O314 2.061 . S
Co313 O319 2.052 . S
Co313 O321 2.135 . S
O314 Co313 2.061 . S
O314 C317 1.235 . S
C315 O318 1.238 . S
C315 O319 1.241 . S
C316 O309 1.247 . S
C316 O310 1.261 . S
C317 O312 1.259 . S
C317 O314 1.235 . S
O318 Co308 2.021 . S
O318 C315 1.238 . S
O319 Co313 2.052 . S
O319 C315 1.241 . S
O320 Co308 2.137 . S
O320 C311 1.247 . S
O321 Co308 2.244 . S
O321 C311 1.272 . S
O321 Co313 2.135 . S
Co322 O323 2.216 . S
Co322 O324 2.091 . S
Co322 O326 2.004 . S
Co322 O332 2.021 . S
Co322 O334 2.137 . S
Co322 O335 2.244 . S
O323 Co322 2.216 . S
O323 C330 1.247 . S
O324 Co322 2.091 . S
O324 C330 1.261 . S
C325 O334 1.247 . S
C325 O335 1.272 . S
O326 Co322 2.004 . S
O326 C331 1.259 . S
Co327 O328 2.061 . S
Co327 O333 2.052 . S
Co327 O335 2.135 . S
O328 Co327 2.061 . S
O328 C331 1.235 . S
C329 O332 1.238 . S
C329 O333 1.241 . S
C330 O323 1.247 . S
C330 O324 1.261 . S
C331 O326 1.259 . S
C331 O328 1.235 . S
O332 Co322 2.021 . S
O332 C329 1.238 . S
O333 Co327 2.052 . S
O333 C329 1.241 . S
O334 Co322 2.137 . S
O334 C325 1.247 . S
O335 Co322 2.244 . S
O335 C325 1.272 . S
O335 Co327 2.135 . S
H336 C348 0.930 . S
H337 C350 0.930 . S
H338 C351 0.930 . S
H339 C355 0.959 . S
H340 C355 0.959 . S
H341 C355 0.961 . S
H342 C356 0.960 . S
H343 C356 0.961 . S
H344 C356 0.959 . S
H345 C359 0.929 . S
H346 C360 0.931 . S
H347 C362 0.930 . S
C348 H336 0.930 . S
C348 C349 1.399 . S
C348 C353 1.399 . S
C349 C348 1.399 . S
C349 C350 1.376 . S
C350 H337 0.930 . S
C350 C349 1.376 . S
C350 C351 1.388 . S
C351 H338 0.930 . S
C351 C350 1.388 . S
C351 C352 1.390 . S
C352 C351 1.390 . S
C352 C353 1.394 . S
C352 C358 1.465 . S
C353 C348 1.399 . S
C353 C352 1.394 . S
C353 C354 1.516 . S
C354 C353 1.516 . S
C354 C355 1.502 . S
C354 C356 1.561 . S
C354 C357 1.526 . S
C355 H339 0.959 . S
C355 H340 0.959 . S
C355 H341 0.961 . S
C355 C354 1.502 . S
C356 H342 0.960 . S
C356 H343 0.961 . S
C356 H344 0.959 . S
C356 C354 1.561 . S
C357 C354 1.526 . S
C357 C358 1.396 . S
C357 C362 1.390 . S
C358 C352 1.465 . S
C358 C357 1.396 . S
C358 C359 1.399 . S
C359 H345 0.929 . S
C359 C358 1.399 . S
C359 C360 1.385 . S
C360 H346 0.931 . S
C360 C359 1.385 . S
C360 C361 1.389 . S
C361 C360 1.389 . S
C361 C362 1.387 . S
C362 H347 0.930 . S
C362 C357 1.390 . S
C362 C361 1.387 . S
H363 C375 0.930 . S
H364 C377 0.930 . S
H365 C378 0.930 . S
H366 C382 0.959 . S
H367 C382 0.959 . S
H368 C382 0.961 . S
H369 C383 0.960 . S
H370 C383 0.961 . S
H371 C383 0.959 . S
H372 C386 0.929 . S
H373 C387 0.931 . S
H374 C389 0.930 . S
C375 H363 0.930 . S
C375 C376 1.399 . S
C375 C380 1.399 . S
C376 C375 1.399 . S
C376 C377 1.376 . S
C377 H364 0.930 . S
C377 C376 1.376 . S
C377 C378 1.388 . S
C378 H365 0.930 . S
C378 C377 1.388 . S
C378 C379 1.390 . S
C379 C378 1.390 . S
C379 C380 1.394 . S
C379 C385 1.465 . S
C380 C375 1.399 . S
C380 C379 1.394 . S
C380 C381 1.516 . S
C381 C380 1.516 . S
C381 C382 1.502 . S
C381 C383 1.561 . S
C381 C384 1.526 . S
C382 H366 0.959 . S
C382 H367 0.959 . S
C382 H368 0.961 . S
C382 C381 1.502 . S
C383 H369 0.960 . S
C383 H370 0.961 . S
C383 H371 0.959 . S
C383 C381 1.561 . S
C384 C381 1.526 . S
C384 C385 1.396 . S
C384 C389 1.390 . S
C385 C379 1.465 . S
C385 C384 1.396 . S
C385 C386 1.399 . S
C386 H372 0.929 . S
C386 C385 1.399 . S
C386 C387 1.385 . S
C387 H373 0.931 . S
C387 C386 1.385 . S
C387 C388 1.389 . S
C388 C387 1.389 . S
C388 C389 1.387 . S
C389 H374 0.930 . S
C389 C384 1.390 . S
C389 C388 1.387 . S
H390 C402 0.930 . S
H391 C404 0.930 . S
H392 C405 0.930 . S
H393 C409 0.959 . S
H394 C409 0.959 . S
H395 C409 0.961 . S
H396 C410 0.960 . S
H397 C410 0.961 . S
H398 C410 0.959 . S
H399 C413 0.929 . S
H400 C414 0.931 . S
H401 C416 0.930 . S
C402 H390 0.930 . S
C402 C403 1.399 . S
C402 C407 1.399 . S
C403 C402 1.399 . S
C403 C404 1.376 . S
C404 H391 0.930 . S
C404 C403 1.376 . S
C404 C405 1.388 . S
C405 H392 0.930 . S
C405 C404 1.388 . S
C405 C406 1.390 . S
C406 C405 1.390 . S
C406 C407 1.394 . S
C406 C412 1.465 . S
C407 C402 1.399 . S
C407 C406 1.394 . S
C407 C408 1.516 . S
C408 C407 1.516 . S
C408 C409 1.502 . S
C408 C410 1.561 . S
C408 C411 1.526 . S
C409 H393 0.959 . S
C409 H394 0.959 . S
C409 H395 0.961 . S
C409 C408 1.502 . S
C410 H396 0.960 . S
C410 H397 0.961 . S
C410 H398 0.959 . S
C410 C408 1.561 . S
C411 C408 1.526 . S
C411 C412 1.396 . S
C411 C416 1.390 . S
C412 C406 1.465 . S
C412 C411 1.396 . S
C412 C413 1.399 . S
C413 H399 0.929 . S
C413 C412 1.399 . S
C413 C414 1.385 . S
C414 H400 0.931 . S
C414 C413 1.385 . S
C414 C415 1.389 . S
C415 C414 1.389 . S
C415 C416 1.387 . S
C416 H401 0.930 . S
C416 C411 1.390 . S
C416 C415 1.387 . S
H417 C429 0.930 . S
H418 C431 0.930 . S
H419 C432 0.930 . S
H420 C436 0.959 . S
H421 C436 0.959 . S
H422 C436 0.961 . S
H423 C437 0.960 . S
H424 C437 0.961 . S
H425 C437 0.959 . S
H426 C440 0.929 . S
H427 C441 0.931 . S
H428 C443 0.930 . S
C429 H417 0.930 . S
C429 C430 1.399 . S
C429 C434 1.399 . S
C430 C429 1.399 . S
C430 C431 1.376 . S
C431 H418 0.930 . S
C431 C430 1.376 . S
C431 C432 1.388 . S
C432 H419 0.930 . S
C432 C431 1.388 . S
C432 C433 1.390 . S
C433 C432 1.390 . S
C433 C434 1.394 . S
C433 C439 1.465 . S
C434 C429 1.399 . S
C434 C433 1.394 . S
C434 C435 1.516 . S
C435 C434 1.516 . S
C435 C436 1.502 . S
C435 C437 1.561 . S
C435 C438 1.526 . S
C436 H420 0.959 . S
C436 H421 0.959 . S
C436 H422 0.961 . S
C436 C435 1.502 . S
C437 H423 0.960 . S
C437 H424 0.961 . S
C437 H425 0.959 . S
C437 C435 1.561 . S
C438 C435 1.526 . S
C438 C439 1.396 . S
C438 C443 1.390 . S
C439 C433 1.465 . S
C439 C438 1.396 . S
C439 C440 1.399 . S
C440 H426 0.929 . S
C440 C439 1.399 . S
C440 C441 1.385 . S
C441 H427 0.931 . S
C441 C440 1.385 . S
C441 C442 1.389 . S
C442 C441 1.389 . S
C442 C443 1.387 . S
C443 H428 0.930 . S
C443 C438 1.390 . S
C443 C442 1.387 . S
H444 C456 0.930 . S
H445 C458 0.930 . S
H446 C459 0.930 . S
H447 C463 0.959 . S
H448 C463 0.959 . S
H449 C463 0.961 . S
H450 C464 0.960 . S
H451 C464 0.961 . S
H452 C464 0.959 . S
H453 C467 0.929 . S
H454 C468 0.931 . S
H455 C470 0.930 . S
C456 H444 0.930 . S
C456 C457 1.399 . S
C456 C461 1.399 . S
C457 C456 1.399 . S
C457 C458 1.376 . S
C458 H445 0.930 . S
C458 C457 1.376 . S
C458 C459 1.388 . S
C459 H446 0.930 . S
C459 C458 1.388 . S
C459 C460 1.390 . S
C460 C459 1.390 . S
C460 C461 1.394 . S
C460 C466 1.465 . S
C461 C456 1.399 . S
C461 C460 1.394 . S
C461 C462 1.516 . S
C462 C461 1.516 . S
C462 C463 1.502 . S
C462 C464 1.561 . S
C462 C465 1.526 . S
C463 H447 0.959 . S
C463 H448 0.959 . S
C463 H449 0.961 . S
C463 C462 1.502 . S
C464 H450 0.960 . S
C464 H451 0.961 . S
C464 H452 0.959 . S
C464 C462 1.561 . S
C465 C462 1.526 . S
C465 C466 1.396 . S
C465 C470 1.390 . S
C466 C460 1.465 . S
C466 C465 1.396 . S
C466 C467 1.399 . S
C467 H453 0.929 . S
C467 C466 1.399 . S
C467 C468 1.385 . S
C468 H454 0.931 . S
C468 C467 1.385 . S
C468 C469 1.389 . S
C469 C468 1.389 . S
C469 C470 1.387 . S
C470 H455 0.930 . S
C470 C465 1.390 . S
C470 C469 1.387 . S
H471 C483 0.930 . S
H472 C485 0.930 . S
H473 C486 0.930 . S
H474 C490 0.959 . S
H475 C490 0.959 . S
H476 C490 0.961 . S
H477 C491 0.960 . S
H478 C491 0.961 . S
H479 C491 0.959 . S
H480 C494 0.929 . S
H481 C495 0.931 . S
H482 C497 0.930 . S
C483 H471 0.930 . S
C483 C484 1.399 . S
C483 C488 1.399 . S
C484 C483 1.399 . S
C484 C485 1.376 . S
C485 H472 0.930 . S
C485 C484 1.376 . S
C485 C486 1.388 . S
C486 H473 0.930 . S
C486 C485 1.388 . S
C486 C487 1.390 . S
C487 C486 1.390 . S
C487 C488 1.394 . S
C487 C493 1.465 . S
C488 C483 1.399 . S
C488 C487 1.394 . S
C488 C489 1.516 . S
C489 C488 1.516 . S
C489 C490 1.502 . S
C489 C491 1.561 . S
C489 C492 1.526 . S
C490 H474 0.959 . S
C490 H475 0.959 . S
C490 H476 0.961 . S
C490 C489 1.502 . S
C491 H477 0.960 . S
C491 H478 0.961 . S
C491 H479 0.959 . S
C491 C489 1.561 . S
C492 C489 1.526 . S
C492 C493 1.396 . S
C492 C497 1.390 . S
C493 C487 1.465 . S
C493 C492 1.396 . S
C493 C494 1.399 . S
C494 H480 0.929 . S
C494 C493 1.399 . S
C494 C495 1.385 . S
C495 H481 0.931 . S
C495 C494 1.385 . S
C495 C496 1.389 . S
C496 C495 1.389 . S
C496 C497 1.387 . S
C497 H482 0.930 . S
C497 C492 1.390 . S
C497 C496 1.387 . S
H498 C510 0.930 . S
H499 C512 0.930 . S
H500 C513 0.930 . S
H501 C517 0.959 . S
H502 C517 0.959 . S
H503 C517 0.961 . S
H504 C518 0.960 . S
H505 C518 0.961 . S
H506 C518 0.959 . S
H507 C521 0.929 . S
H508 C522 0.931 . S
H509 C524 0.930 . S
C510 H498 0.930 . S
C510 C511 1.399 . S
C510 C515 1.399 . S
C511 C510 1.399 . S
C511 C512 1.376 . S
C512 H499 0.930 . S
C512 C511 1.376 . S
C512 C513 1.388 . S
C513 H500 0.930 . S
C513 C512 1.388 . S
C513 C514 1.390 . S
C514 C513 1.390 . S
C514 C515 1.394 . S
C514 C520 1.465 . S
C515 C510 1.399 . S
C515 C514 1.394 . S
C515 C516 1.516 . S
C516 C515 1.516 . S
C516 C517 1.502 . S
C516 C518 1.561 . S
C516 C519 1.526 . S
C517 H501 0.959 . S
C517 H502 0.959 . S
C517 H503 0.961 . S
C517 C516 1.502 . S
C518 H504 0.960 . S
C518 H505 0.961 . S
C518 H506 0.959 . S
C518 C516 1.561 . S
C519 C516 1.526 . S
C519 C520 1.396 . S
C519 C524 1.390 . S
C520 C514 1.465 . S
C520 C519 1.396 . S
C520 C521 1.399 . S
C521 H507 0.929 . S
C521 C520 1.399 . S
C521 C522 1.385 . S
C522 H508 0.931 . S
C522 C521 1.385 . S
C522 C523 1.389 . S
C523 C522 1.389 . S
C523 C524 1.387 . S
C524 H509 0.930 . S
C524 C519 1.390 . S
C524 C523 1.387 . S
H525 C537 0.930 . S
H526 C539 0.930 . S
H527 C540 0.930 . S
H528 C544 0.959 . S
H529 C544 0.959 . S
H530 C544 0.961 . S
H531 C545 0.960 . S
H532 C545 0.961 . S
H533 C545 0.959 . S
H534 C548 0.929 . S
H535 C549 0.931 . S
H536 C551 0.930 . S
C537 H525 0.930 . S
C537 C538 1.399 . S
C537 C542 1.399 . S
C538 C537 1.399 . S
C538 C539 1.376 . S
C539 H526 0.930 . S
C539 C538 1.376 . S
C539 C540 1.388 . S
C540 H527 0.930 . S
C540 C539 1.388 . S
C540 C541 1.390 . S
C541 C540 1.390 . S
C541 C542 1.394 . S
C541 C547 1.465 . S
C542 C537 1.399 . S
C542 C541 1.394 . S
C542 C543 1.516 . S
C543 C542 1.516 . S
C543 C544 1.502 . S
C543 C545 1.561 . S
C543 C546 1.526 . S
C544 H528 0.959 . S
C544 H529 0.959 . S
C544 H530 0.961 . S
C544 C543 1.502 . S
C545 H531 0.960 . S
C545 H532 0.961 . S
C545 H533 0.959 . S
C545 C543 1.561 . S
C546 C543 1.526 . S
C546 C547 1.396 . S
C546 C551 1.390 . S
C547 C541 1.465 . S
C547 C546 1.396 . S
C547 C548 1.399 . S
C548 H534 0.929 . S
C548 C547 1.399 . S
C548 C549 1.385 . S
C549 H535 0.931 . S
C549 C548 1.385 . S
C549 C550 1.389 . S
C550 C549 1.389 . S
C550 C551 1.387 . S
C551 H536 0.930 . S
C551 C546 1.390 . S
C551 C550 1.387 . S
H552 C564 0.930 . S
H553 C566 0.930 . S
H554 C567 0.930 . S
H555 C571 0.959 . S
H556 C571 0.959 . S
H557 C571 0.961 . S
H558 C572 0.960 . S
H559 C572 0.961 . S
H560 C572 0.959 . S
H561 C575 0.929 . S
H562 C576 0.931 . S
H563 C578 0.930 . S
C564 H552 0.930 . S
C564 C565 1.399 . S
C564 C569 1.399 . S
C565 C564 1.399 . S
C565 C566 1.376 . S
C566 H553 0.930 . S
C566 C565 1.376 . S
C566 C567 1.388 . S
C567 H554 0.930 . S
C567 C566 1.388 . S
C567 C568 1.390 . S
C568 C567 1.390 . S
C568 C569 1.394 . S
C568 C574 1.465 . S
C569 C564 1.399 . S
C569 C568 1.394 . S
C569 C570 1.516 . S
C570 C569 1.516 . S
C570 C571 1.502 . S
C570 C572 1.561 . S
C570 C573 1.526 . S
C571 H555 0.959 . S
C571 H556 0.959 . S
C571 H557 0.961 . S
C571 C570 1.502 . S
C572 H558 0.960 . S
C572 H559 0.961 . S
C572 H560 0.959 . S
C572 C570 1.561 . S
C573 C570 1.526 . S
C573 C574 1.396 . S
C573 C578 1.390 . S
C574 C568 1.465 . S
C574 C573 1.396 . S
C574 C575 1.399 . S
C575 H561 0.929 . S
C575 C574 1.399 . S
C575 C576 1.385 . S
C576 H562 0.931 . S
C576 C575 1.385 . S
C576 C577 1.389 . S
C577 C576 1.389 . S
C577 C578 1.387 . S
C578 H563 0.930 . S
C578 C573 1.390 . S
C578 C577 1.387 . S
H579 C591 0.930 . S
H580 C593 0.930 . S
H581 C594 0.930 . S
H582 C598 0.959 . S
H583 C598 0.959 . S
H584 C598 0.961 . S
H585 C599 0.960 . S
H586 C599 0.961 . S
H587 C599 0.959 . S
H588 C602 0.929 . S
H589 C603 0.931 . S
H590 C605 0.930 . S
C591 H579 0.930 . S
C591 C592 1.399 . S
C591 C596 1.399 . S
C592 C591 1.399 . S
C592 C593 1.376 . S
C593 H580 0.930 . S
C593 C592 1.376 . S
C593 C594 1.388 . S
C594 H581 0.930 . S
C594 C593 1.388 . S
C594 C595 1.390 . S
C595 C594 1.390 . S
C595 C596 1.394 . S
C595 C601 1.465 . S
C596 C591 1.399 . S
C596 C595 1.394 . S
C596 C597 1.516 . S
C597 C596 1.516 . S
C597 C598 1.502 . S
C597 C599 1.561 . S
C597 C600 1.526 . S
C598 H582 0.959 . S
C598 H583 0.959 . S
C598 H584 0.961 . S
C598 C597 1.502 . S
C599 H585 0.960 . S
C599 H586 0.961 . S
C599 H587 0.959 . S
C599 C597 1.561 . S
C600 C597 1.526 . S
C600 C601 1.396 . S
C600 C605 1.390 . S
C601 C595 1.465 . S
C601 C600 1.396 . S
C601 C602 1.399 . S
C602 H588 0.929 . S
C602 C601 1.399 . S
C602 C603 1.385 . S
C603 H589 0.931 . S
C603 C602 1.385 . S
C603 C604 1.389 . S
C604 C603 1.389 . S
C604 C605 1.387 . S
C605 H590 0.930 . S
C605 C600 1.390 . S
C605 C604 1.387 . S
H606 C618 0.930 . S
H607 C620 0.930 . S
H608 C621 0.930 . S
H609 C625 0.959 . S
H610 C625 0.959 . S
H611 C625 0.961 . S
H612 C626 0.960 . S
H613 C626 0.961 . S
H614 C626 0.959 . S
H615 C629 0.929 . S
H616 C630 0.931 . S
H617 C632 0.930 . S
C618 H606 0.930 . S
C618 C619 1.399 . S
C618 C623 1.399 . S
C619 C618 1.399 . S
C619 C620 1.376 . S
C620 H607 0.930 . S
C620 C619 1.376 . S
C620 C621 1.388 . S
C621 H608 0.930 . S
C621 C620 1.388 . S
C621 C622 1.390 . S
C622 C621 1.390 . S
C622 C623 1.394 . S
C622 C628 1.465 . S
C623 C618 1.399 . S
C623 C622 1.394 . S
C623 C624 1.516 . S
C624 C623 1.516 . S
C624 C625 1.502 . S
C624 C626 1.561 . S
C624 C627 1.526 . S
C625 H609 0.959 . S
C625 H610 0.959 . S
C625 H611 0.961 . S
C625 C624 1.502 . S
C626 H612 0.960 . S
C626 H613 0.961 . S
C626 H614 0.959 . S
C626 C624 1.561 . S
C627 C624 1.526 . S
C627 C628 1.396 . S
C627 C632 1.390 . S
C628 C622 1.465 . S
C628 C627 1.396 . S
C628 C629 1.399 . S
C629 H615 0.929 . S
C629 C628 1.399 . S
C629 C630 1.385 . S
C630 H616 0.931 . S
C630 C629 1.385 . S
C630 C631 1.389 . S
C631 C630 1.389 . S
C631 C632 1.387 . S
C632 H617 0.930 . S
C632 C627 1.390 . S
C632 C631 1.387 . S
H633 C645 0.930 . S
H634 C647 0.930 . S
H635 C648 0.930 . S
H636 C652 0.959 . S
H637 C652 0.959 . S
H638 C652 0.961 . S
H639 C653 0.960 . S
H640 C653 0.961 . S
H641 C653 0.959 . S
H642 C656 0.929 . S
H643 C657 0.931 . S
H644 C659 0.930 . S
C645 H633 0.930 . S
C645 C646 1.399 . S
C645 C650 1.399 . S
C646 C645 1.399 . S
C646 C647 1.376 . S
C647 H634 0.930 . S
C647 C646 1.376 . S
C647 C648 1.388 . S
C648 H635 0.930 . S
C648 C647 1.388 . S
C648 C649 1.390 . S
C649 C648 1.390 . S
C649 C650 1.394 . S
C649 C655 1.465 . S
C650 C645 1.399 . S
C650 C649 1.394 . S
C650 C651 1.516 . S
C651 C650 1.516 . S
C651 C652 1.502 . S
C651 C653 1.561 . S
C651 C654 1.526 . S
C652 H636 0.959 . S
C652 H637 0.959 . S
C652 H638 0.961 . S
C652 C651 1.502 . S
C653 H639 0.960 . S
C653 H640 0.961 . S
C653 H641 0.959 . S
C653 C651 1.561 . S
C654 C651 1.526 . S
C654 C655 1.396 . S
C654 C659 1.390 . S
C655 C649 1.465 . S
C655 C654 1.396 . S
C655 C656 1.399 . S
C656 H642 0.929 . S
C656 C655 1.399 . S
C656 C657 1.385 . S
C657 H643 0.931 . S
C657 C656 1.385 . S
C657 C658 1.389 . S
C658 C657 1.389 . S
C658 C659 1.387 . S
C659 H644 0.930 . S
C659 C654 1.390 . S
C659 C658 1.387 . S
H660 C672 0.930 . S
H661 C674 0.930 . S
H662 C675 0.930 . S
H663 C679 0.959 . S
H664 C679 0.959 . S
H665 C679 0.961 . S
H666 C680 0.960 . S
H667 C680 0.961 . S
H668 C680 0.959 . S
H669 C683 0.929 . S
H670 C684 0.931 . S
H671 C686 0.930 . S
C672 H660 0.930 . S
C672 C673 1.399 . S
C672 C677 1.399 . S
C673 C672 1.399 . S
C673 C674 1.376 . S
C674 H661 0.930 . S
C674 C673 1.376 . S
C674 C675 1.388 . S
C675 H662 0.930 . S
C675 C674 1.388 . S
C675 C676 1.390 . S
C676 C675 1.390 . S
C676 C677 1.394 . S
C676 C682 1.465 . S
C677 C672 1.399 . S
C677 C676 1.394 . S
C677 C678 1.516 . S
C678 C677 1.516 . S
C678 C679 1.502 . S
C678 C680 1.561 . S
C678 C681 1.526 . S
C679 H663 0.959 . S
C679 H664 0.959 . S
C679 H665 0.961 . S
C679 C678 1.502 . S
C680 H666 0.960 . S
C680 H667 0.961 . S
C680 H668 0.959 . S
C680 C678 1.561 . S
C681 C678 1.526 . S
C681 C682 1.396 . S
C681 C686 1.390 . S
C682 C676 1.465 . S
C682 C681 1.396 . S
C682 C683 1.399 . S
C683 H669 0.929 . S
C683 C682 1.399 . S
C683 C684 1.385 . S
C684 H670 0.931 . S
C684 C683 1.385 . S
C684 C685 1.389 . S
C685 C684 1.389 . S
C685 C686 1.387 . S
C686 H671 0.930 . S
C686 C681 1.390 . S
C686 C685 1.387 . S
H687 C699 0.930 . S
H688 C701 0.930 . S
H689 C702 0.930 . S
H690 C706 0.959 . S
H691 C706 0.959 . S
H692 C706 0.961 . S
H693 C707 0.960 . S
H694 C707 0.961 . S
H695 C707 0.959 . S
H696 C710 0.929 . S
H697 C711 0.931 . S
H698 C713 0.930 . S
C699 H687 0.930 . S
C699 C700 1.399 . S
C699 C704 1.399 . S
C700 C699 1.399 . S
C700 C701 1.376 . S
C701 H688 0.930 . S
C701 C700 1.376 . S
C701 C702 1.388 . S
C702 H689 0.930 . S
C702 C701 1.388 . S
C702 C703 1.390 . S
C703 C702 1.390 . S
C703 C704 1.394 . S
C703 C709 1.465 . S
C704 C699 1.399 . S
C704 C703 1.394 . S
C704 C705 1.516 . S
C705 C704 1.516 . S
C705 C706 1.502 . S
C705 C707 1.561 . S
C705 C708 1.526 . S
C706 H690 0.959 . S
C706 H691 0.959 . S
C706 H692 0.961 . S
C706 C705 1.502 . S
C707 H693 0.960 . S
C707 H694 0.961 . S
C707 H695 0.959 . S
C707 C705 1.561 . S
C708 C705 1.526 . S
C708 C709 1.396 . S
C708 C713 1.390 . S
C709 C703 1.465 . S
C709 C708 1.396 . S
C709 C710 1.399 . S
C710 H696 0.929 . S
C710 C709 1.399 . S
C710 C711 1.385 . S
C711 H697 0.931 . S
C711 C710 1.385 . S
C711 C712 1.389 . S
C712 C711 1.389 . S
C712 C713 1.387 . S
C713 H698 0.930 . S
C713 C708 1.390 . S
C713 C712 1.387 . S
H714 C726 0.930 . S
H715 C728 0.930 . S
H716 C729 0.930 . S
H717 C733 0.959 . S
H718 C733 0.959 . S
H719 C733 0.961 . S
H720 C734 0.960 . S
H721 C734 0.961 . S
H722 C734 0.959 . S
H723 C737 0.929 . S
H724 C738 0.931 . S
H725 C740 0.930 . S
C726 H714 0.930 . S
C726 C727 1.399 . S
C726 C731 1.399 . S
C727 C726 1.399 . S
C727 C728 1.376 . S
C728 H715 0.930 . S
C728 C727 1.376 . S
C728 C729 1.388 . S
C729 H716 0.930 . S
C729 C728 1.388 . S
C729 C730 1.390 . S
C730 C729 1.390 . S
C730 C731 1.394 . S
C730 C736 1.465 . S
C731 C726 1.399 . S
C731 C730 1.394 . S
C731 C732 1.516 . S
C732 C731 1.516 . S
C732 C733 1.502 . S
C732 C734 1.561 . S
C732 C735 1.526 . S
C733 H717 0.959 . S
C733 H718 0.959 . S
C733 H719 0.961 . S
C733 C732 1.502 . S
C734 H720 0.960 . S
C734 H721 0.961 . S
C734 H722 0.959 . S
C734 C732 1.561 . S
C735 C732 1.526 . S
C735 C736 1.396 . S
C735 C740 1.390 . S
C736 C730 1.465 . S
C736 C735 1.396 . S
C736 C737 1.399 . S
C737 H723 0.929 . S
C737 C736 1.399 . S
C737 C738 1.385 . S
C738 H724 0.931 . S
C738 C737 1.385 . S
C738 C739 1.389 . S
C739 C738 1.389 . S
C739 C740 1.387 . S
C740 H725 0.930 . S
C740 C735 1.390 . S
C740 C739 1.387 . S
H741 C753 0.930 . S
H742 C755 0.930 . S
H743 C756 0.930 . S
H744 C760 0.959 . S
H745 C760 0.959 . S
H746 C760 0.961 . S
H747 C761 0.960 . S
H748 C761 0.961 . S
H749 C761 0.959 . S
H750 C764 0.929 . S
H751 C765 0.931 . S
H752 C767 0.930 . S
C753 H741 0.930 . S
C753 C754 1.399 . S
C753 C758 1.399 . S
C754 C753 1.399 . S
C754 C755 1.376 . S
C755 H742 0.930 . S
C755 C754 1.376 . S
C755 C756 1.388 . S
C756 H743 0.930 . S
C756 C755 1.388 . S
C756 C757 1.390 . S
C757 C756 1.390 . S
C757 C758 1.394 . S
C757 C763 1.465 . S
C758 C753 1.399 . S
C758 C757 1.394 . S
C758 C759 1.516 . S
C759 C758 1.516 . S
C759 C760 1.502 . S
C759 C761 1.561 . S
C759 C762 1.526 . S
C760 H744 0.959 . S
C760 H745 0.959 . S
C760 H746 0.961 . S
C760 C759 1.502 . S
C761 H747 0.960 . S
C761 H748 0.961 . S
C761 H749 0.959 . S
C761 C759 1.561 . S
C762 C759 1.526 . S
C762 C763 1.396 . S
C762 C767 1.390 . S
C763 C757 1.465 . S
C763 C762 1.396 . S
C763 C764 1.399 . S
C764 H750 0.929 . S
C764 C763 1.399 . S
C764 C765 1.385 . S
C765 H751 0.931 . S
C765 C764 1.385 . S
C765 C766 1.389 . S
C766 C765 1.389 . S
C766 C767 1.387 . S
C767 H752 0.930 . S
C767 C762 1.390 . S
C767 C766 1.387 . S
H768 C780 0.930 . S
H769 C782 0.930 . S
H770 C783 0.930 . S
H771 C787 0.959 . S
H772 C787 0.959 . S
H773 C787 0.961 . S
H774 C788 0.960 . S
H775 C788 0.961 . S
H776 C788 0.959 . S
H777 C791 0.929 . S
H778 C792 0.931 . S
H779 C794 0.930 . S
C780 H768 0.930 . S
C780 C781 1.399 . S
C780 C785 1.399 . S
C781 C780 1.399 . S
C781 C782 1.376 . S
C782 H769 0.930 . S
C782 C781 1.376 . S
C782 C783 1.388 . S
C783 H770 0.930 . S
C783 C782 1.388 . S
C783 C784 1.390 . S
C784 C783 1.390 . S
C784 C785 1.394 . S
C784 C790 1.465 . S
C785 C780 1.399 . S
C785 C784 1.394 . S
C785 C786 1.516 . S
C786 C785 1.516 . S
C786 C787 1.502 . S
C786 C788 1.561 . S
C786 C789 1.526 . S
C787 H771 0.959 . S
C787 H772 0.959 . S
C787 H773 0.961 . S
C787 C786 1.502 . S
C788 H774 0.960 . S
C788 H775 0.961 . S
C788 H776 0.959 . S
C788 C786 1.561 . S
C789 C786 1.526 . S
C789 C790 1.396 . S
C789 C794 1.390 . S
C790 C784 1.465 . S
C790 C789 1.396 . S
C790 C791 1.399 . S
C791 H777 0.929 . S
C791 C790 1.399 . S
C791 C792 1.385 . S
C792 H778 0.931 . S
C792 C791 1.385 . S
C792 C793 1.389 . S
C793 C792 1.389 . S
C793 C794 1.387 . S
C794 H779 0.930 . S
C794 C789 1.390 . S
C794 C793 1.387 . S
H795 C807 0.930 . S
H796 C809 0.930 . S
H797 C810 0.930 . S
H798 C814 0.959 . S
H799 C814 0.959 . S
H800 C814 0.961 . S
H801 C815 0.960 . S
H802 C815 0.961 . S
H803 C815 0.959 . S
H804 C818 0.929 . S
H805 C819 0.931 . S
H806 C821 0.930 . S
C807 H795 0.930 . S
C807 C808 1.399 . S
C807 C812 1.399 . S
C808 C807 1.399 . S
C808 C809 1.376 . S
C809 H796 0.930 . S
C809 C808 1.376 . S
C809 C810 1.388 . S
C810 H797 0.930 . S
C810 C809 1.388 . S
C810 C811 1.390 . S
C811 C810 1.390 . S
C811 C812 1.394 . S
C811 C817 1.465 . S
C812 C807 1.399 . S
C812 C811 1.394 . S
C812 C813 1.516 . S
C813 C812 1.516 . S
C813 C814 1.502 . S
C813 C815 1.561 . S
C813 C816 1.526 . S
C814 H798 0.959 . S
C814 H799 0.959 . S
C814 H800 0.961 . S
C814 C813 1.502 . S
C815 H801 0.960 . S
C815 H802 0.961 . S
C815 H803 0.959 . S
C815 C813 1.561 . S
C816 C813 1.526 . S
C816 C817 1.396 . S
C816 C821 1.390 . S
C817 C811 1.465 . S
C817 C816 1.396 . S
C817 C818 1.399 . S
C818 H804 0.929 . S
C818 C817 1.399 . S
C818 C819 1.385 . S
C819 H805 0.931 . S
C819 C818 1.385 . S
C819 C820 1.389 . S
C820 C819 1.389 . S
C820 C821 1.387 . S
C821 H806 0.930 . S
C821 C816 1.390 . S
C821 C820 1.387 . S
H822 C834 0.930 . S
H823 C836 0.930 . S
H824 C837 0.930 . S
H825 C841 0.959 . S
H826 C841 0.959 . S
H827 C841 0.961 . S
H828 C842 0.960 . S
H829 C842 0.961 . S
H830 C842 0.959 . S
H831 C845 0.929 . S
H832 C846 0.931 . S
H833 C848 0.930 . S
C834 H822 0.930 . S
C834 C835 1.399 . S
C834 C839 1.399 . S
C835 C834 1.399 . S
C835 C836 1.376 . S
C836 H823 0.930 . S
C836 C835 1.376 . S
C836 C837 1.388 . S
C837 H824 0.930 . S
C837 C836 1.388 . S
C837 C838 1.390 . S
C838 C837 1.390 . S
C838 C839 1.394 . S
C838 C844 1.465 . S
C839 C834 1.399 . S
C839 C838 1.394 . S
C839 C840 1.516 . S
C840 C839 1.516 . S
C840 C841 1.502 . S
C840 C842 1.561 . S
C840 C843 1.526 . S
C841 H825 0.959 . S
C841 H826 0.959 . S
C841 H827 0.961 . S
C841 C840 1.502 . S
C842 H828 0.960 . S
C842 H829 0.961 . S
C842 H830 0.959 . S
C842 C840 1.561 . S
C843 C840 1.526 . S
C843 C844 1.396 . S
C843 C848 1.390 . S
C844 C838 1.465 . S
C844 C843 1.396 . S
C844 C845 1.399 . S
C845 H831 0.929 . S
C845 C844 1.399 . S
C845 C846 1.385 . S
C846 H832 0.931 . S
C846 C845 1.385 . S
C846 C847 1.389 . S
C847 C846 1.389 . S
C847 C848 1.387 . S
C848 H833 0.930 . S
C848 C843 1.390 . S
C848 C847 1.387 . S
H849 C861 0.930 . S
H850 C863 0.930 . S
H851 C864 0.930 . S
H852 C868 0.959 . S
H853 C868 0.959 . S
H854 C868 0.961 . S
H855 C869 0.960 . S
H856 C869 0.961 . S
H857 C869 0.959 . S
H858 C872 0.929 . S
H859 C873 0.931 . S
H860 C875 0.930 . S
C861 H849 0.930 . S
C861 C862 1.399 . S
C861 C866 1.399 . S
C862 C861 1.399 . S
C862 C863 1.376 . S
C863 H850 0.930 . S
C863 C862 1.376 . S
C863 C864 1.388 . S
C864 H851 0.930 . S
C864 C863 1.388 . S
C864 C865 1.390 . S
C865 C864 1.390 . S
C865 C866 1.394 . S
C865 C871 1.465 . S
C866 C861 1.399 . S
C866 C865 1.394 . S
C866 C867 1.516 . S
C867 C866 1.516 . S
C867 C868 1.502 . S
C867 C869 1.561 . S
C867 C870 1.526 . S
C868 H852 0.959 . S
C868 H853 0.959 . S
C868 H854 0.961 . S
C868 C867 1.502 . S
C869 H855 0.960 . S
C869 H856 0.961 . S
C869 H857 0.959 . S
C869 C867 1.561 . S
C870 C867 1.526 . S
C870 C871 1.396 . S
C870 C875 1.390 . S
C871 C865 1.465 . S
C871 C870 1.396 . S
C871 C872 1.399 . S
C872 H858 0.929 . S
C872 C871 1.399 . S
C872 C873 1.385 . S
C873 H859 0.931 . S
C873 C872 1.385 . S
C873 C874 1.389 . S
C874 C873 1.389 . S
C874 C875 1.387 . S
C875 H860 0.930 . S
C875 C870 1.390 . S
C875 C874 1.387 . S
H876 C888 0.930 . S
H877 C890 0.930 . S
H878 C891 0.930 . S
H879 C895 0.959 . S
H880 C895 0.959 . S
H881 C895 0.961 . S
H882 C896 0.960 . S
H883 C896 0.961 . S
H884 C896 0.959 . S
H885 C899 0.929 . S
H886 C900 0.931 . S
H887 C902 0.930 . S
C888 H876 0.930 . S
C888 C889 1.399 . S
C888 C893 1.399 . S
C889 C888 1.399 . S
C889 C890 1.376 . S
C890 H877 0.930 . S
C890 C889 1.376 . S
C890 C891 1.388 . S
C891 H878 0.930 . S
C891 C890 1.388 . S
C891 C892 1.390 . S
C892 C891 1.390 . S
C892 C893 1.394 . S
C892 C898 1.465 . S
C893 C888 1.399 . S
C893 C892 1.394 . S
C893 C894 1.516 . S
C894 C893 1.516 . S
C894 C895 1.502 . S
C894 C896 1.561 . S
C894 C897 1.526 . S
C895 H879 0.959 . S
C895 H880 0.959 . S
C895 H881 0.961 . S
C895 C894 1.502 . S
C896 H882 0.960 . S
C896 H883 0.961 . S
C896 H884 0.959 . S
C896 C894 1.561 . S
C897 C894 1.526 . S
C897 C898 1.396 . S
C897 C902 1.390 . S
C898 C892 1.465 . S
C898 C897 1.396 . S
C898 C899 1.399 . S
C899 H885 0.929 . S
C899 C898 1.399 . S
C899 C900 1.385 . S
C900 H886 0.931 . S
C900 C899 1.385 . S
C900 C901 1.389 . S
C901 C900 1.389 . S
C901 C902 1.387 . S
C902 H887 0.930 . S
C902 C897 1.390 . S
C902 C901 1.387 . S
H903 C915 0.930 . S
H904 C917 0.930 . S
H905 C918 0.930 . S
H906 C922 0.959 . S
H907 C922 0.959 . S
H908 C922 0.961 . S
H909 C923 0.960 . S
H910 C923 0.961 . S
H911 C923 0.959 . S
H912 C926 0.929 . S
H913 C927 0.931 . S
H914 C929 0.930 . S
C915 H903 0.930 . S
C915 C916 1.399 . S
C915 C920 1.399 . S
C916 C915 1.399 . S
C916 C917 1.376 . S
C917 H904 0.930 . S
C917 C916 1.376 . S
C917 C918 1.388 . S
C918 H905 0.930 . S
C918 C917 1.388 . S
C918 C919 1.390 . S
C919 C918 1.390 . S
C919 C920 1.394 . S
C919 C925 1.465 . S
C920 C915 1.399 . S
C920 C919 1.394 . S
C920 C921 1.516 . S
C921 C920 1.516 . S
C921 C922 1.502 . S
C921 C923 1.561 . S
C921 C924 1.526 . S
C922 H906 0.959 . S
C922 H907 0.959 . S
C922 H908 0.961 . S
C922 C921 1.502 . S
C923 H909 0.960 . S
C923 H910 0.961 . S
C923 H911 0.959 . S
C923 C921 1.561 . S
C924 C921 1.526 . S
C924 C925 1.396 . S
C924 C929 1.390 . S
C925 C919 1.465 . S
C925 C924 1.396 . S
C925 C926 1.399 . S
C926 H912 0.929 . S
C926 C925 1.399 . S
C926 C927 1.385 . S
C927 H913 0.931 . S
C927 C926 1.385 . S
C927 C928 1.389 . S
C928 C927 1.389 . S
C928 C929 1.387 . S
C929 H914 0.930 . S
C929 C924 1.390 . S
C929 C928 1.387 . S
H930 C942 0.930 . S
H931 C944 0.930 . S
H932 C945 0.930 . S
H933 C949 0.959 . S
H934 C949 0.959 . S
H935 C949 0.961 . S
H936 C950 0.960 . S
H937 C950 0.961 . S
H938 C950 0.959 . S
H939 C953 0.929 . S
H940 C954 0.931 . S
H941 C956 0.930 . S
C942 H930 0.930 . S
C942 C943 1.399 . S
C942 C947 1.399 . S
C943 C942 1.399 . S
C943 C944 1.376 . S
C944 H931 0.930 . S
C944 C943 1.376 . S
C944 C945 1.388 . S
C945 H932 0.930 . S
C945 C944 1.388 . S
C945 C946 1.390 . S
C946 C945 1.390 . S
C946 C947 1.394 . S
C946 C952 1.465 . S
C947 C942 1.399 . S
C947 C946 1.394 . S
C947 C948 1.516 . S
C948 C947 1.516 . S
C948 C949 1.502 . S
C948 C950 1.561 . S
C948 C951 1.526 . S
C949 H933 0.959 . S
C949 H934 0.959 . S
C949 H935 0.961 . S
C949 C948 1.502 . S
C950 H936 0.960 . S
C950 H937 0.961 . S
C950 H938 0.959 . S
C950 C948 1.561 . S
C951 C948 1.526 . S
C951 C952 1.396 . S
C951 C956 1.390 . S
C952 C946 1.465 . S
C952 C951 1.396 . S
C952 C953 1.399 . S
C953 H939 0.929 . S
C953 C952 1.399 . S
C953 C954 1.385 . S
C954 H940 0.931 . S
C954 C953 1.385 . S
C954 C955 1.389 . S
C955 C954 1.389 . S
C955 C956 1.387 . S
C956 H941 0.930 . S
C956 C951 1.390 . S
C956 C955 1.387 . S
H957 C969 0.930 . S
H958 C971 0.930 . S
H959 C972 0.930 . S
H960 C976 0.959 . S
H961 C976 0.959 . S
H962 C976 0.961 . S
H963 C977 0.960 . S
H964 C977 0.961 . S
H965 C977 0.959 . S
H966 C980 0.929 . S
H967 C981 0.931 . S
H968 C983 0.930 . S
C969 H957 0.930 . S
C969 C970 1.399 . S
C969 C974 1.399 . S
C970 C969 1.399 . S
C970 C971 1.376 . S
C971 H958 0.930 . S
C971 C970 1.376 . S
C971 C972 1.388 . S
C972 H959 0.930 . S
C972 C971 1.388 . S
C972 C973 1.390 . S
C973 C972 1.390 . S
C973 C974 1.394 . S
C973 C979 1.465 . S
C974 C969 1.399 . S
C974 C973 1.394 . S
C974 C975 1.516 . S
C975 C974 1.516 . S
C975 C976 1.502 . S
C975 C977 1.561 . S
C975 C978 1.526 . S
C976 H960 0.959 . S
C976 H961 0.959 . S
C976 H962 0.961 . S
C976 C975 1.502 . S
C977 H963 0.960 . S
C977 H964 0.961 . S
C977 H965 0.959 . S
C977 C975 1.561 . S
C978 C975 1.526 . S
C978 C979 1.396 . S
C978 C983 1.390 . S
C979 C973 1.465 . S
C979 C978 1.396 . S
C979 C980 1.399 . S
C980 H966 0.929 . S
C980 C979 1.399 . S
C980 C981 1.385 . S
C981 H967 0.931 . S
C981 C980 1.385 . S
C981 C982 1.389 . S
C982 C981 1.389 . S
C982 C983 1.387 . S
C983 H968 0.930 . S
C983 C978 1.390 . S
C983 C982 1.387 . S
H984 C996 0.930 . S
H985 C998 0.930 . S
H986 C999 0.930 . S
H987 C1003 0.962 . S
H988 C1003 0.983 . S
H989 C1003 0.935 1_455 S
H990 C1004 0.960 1_455 S
H991 C1004 0.961 . S
H992 C1004 0.959 . S
H993 C1007 0.929 . S
H994 C1008 0.931 . S
H995 C1010 0.930 . S
C996 H984 0.930 . S
C996 C997 1.399 . S
C996 C1001 1.399 . S
C997 C996 1.399 . S
C997 C998 1.376 . S
C998 H985 0.930 . S
C998 C997 1.376 . S
C998 C999 1.388 . S
C999 H986 0.930 . S
C999 C998 1.388 . S
C999 C1000 1.390 . S
C1000 C999 1.390 . S
C1000 C1001 1.394 . S
C1000 C1006 1.465 1_455 S
C1001 C996 1.399 . S
C1001 C1000 1.394 . S
C1001 C1002 1.501 1_455 S
C1002 C1001 1.501 1_655 S
C1002 C1003 1.502 . S
C1002 C1004 1.562 . S
C1002 C1005 1.541 . S
C1003 H987 0.962 . S
C1003 H988 0.983 . S
C1003 H989 0.935 1_655 S
C1003 C1002 1.502 . S
C1004 H990 0.960 1_655 S
C1004 H991 0.961 . S
C1004 H992 0.959 . S
C1004 C1002 1.562 . S
C1005 C1002 1.541 . S
C1005 C1006 1.396 . S
C1005 C1010 1.390 . S
C1006 C1000 1.465 1_655 S
C1006 C1005 1.396 . S
C1006 C1007 1.399 . S
C1007 H993 0.929 . S
C1007 C1006 1.399 . S
C1007 C1008 1.385 . S
C1008 H994 0.931 . S
C1008 C1007 1.385 . S
C1008 C1009 1.389 . S
C1009 C1008 1.389 . S
C1009 C1010 1.387 . S
C1010 H995 0.930 . S
C1010 C1005 1.390 . S
C1010 C1009 1.387 . S
H1011 C1023 0.930 . S
H1012 C1025 0.930 . S
H1013 C1026 0.930 . S
H1014 C1030 0.957 1_565 S
H1015 C1030 0.942 1_565 S
H1016 C1030 0.980 . S
H1017 C1031 0.960 . S
H1018 C1031 0.961 1_565 S
H1019 C1031 0.957 1_565 S
H1020 C1034 0.929 . S
H1021 C1035 0.931 . S
H1022 C1037 0.930 . S
C1023 H1011 0.930 . S
C1023 C1024 1.399 . S
C1023 C1028 1.399 . S
C1024 C1023 1.399 . S
C1024 C1025 1.376 . S
C1025 H1012 0.930 . S
C1025 C1024 1.376 . S
C1025 C1026 1.388 . S
C1026 H1013 0.930 . S
C1026 C1025 1.388 . S
C1026 C1027 1.390 . S
C1027 C1026 1.390 . S
C1027 C1028 1.394 . S
C1027 C1033 1.465 1_545 S
C1028 C1023 1.399 . S
C1028 C1027 1.394 . S
C1028 C1029 1.540 . S
C1029 C1028 1.540 . S
C1029 C1030 1.502 . S
C1029 C1031 1.562 . S
C1029 C1032 1.502 1_545 S
C1030 H1014 0.957 1_545 S
C1030 H1015 0.942 1_545 S
C1030 H1016 0.980 . S
C1030 C1029 1.502 . S
C1031 H1017 0.960 . S
C1031 H1018 0.961 1_545 S
C1031 H1019 0.957 1_545 S
C1031 C1029 1.562 . S
C1032 C1029 1.502 1_565 S
C1032 C1033 1.396 . S
C1032 C1037 1.390 . S
C1033 C1027 1.465 1_565 S
C1033 C1032 1.396 . S
C1033 C1034 1.399 . S
C1034 H1020 0.929 . S
C1034 C1033 1.399 . S
C1034 C1035 1.385 . S
C1035 H1021 0.931 . S
C1035 C1034 1.385 . S
C1035 C1036 1.389 . S
C1036 C1035 1.389 . S
C1036 C1037 1.387 . S
C1037 H1022 0.930 . S
C1037 C1032 1.390 . S
C1037 C1036 1.387 . S
H1038 C1050 0.930 . S
H1039 C1052 0.930 . S
H1040 C1053 0.930 . S
H1041 C1057 0.960 1_455 S
H1042 C1057 0.960 1_455 S
H1043 C1057 0.960 . S
H1044 C1058 0.960 . S
H1045 C1058 0.961 1_455 S
H1046 C1058 0.958 1_455 S
H1047 C1061 0.929 . S
H1048 C1062 0.931 . S
H1049 C1064 0.930 . S
C1050 H1038 0.930 . S
C1050 C1051 1.399 . S
C1050 C1055 1.399 . S
C1051 C1050 1.399 . S
C1051 C1052 1.376 . S
C1052 H1039 0.930 . S
C1052 C1051 1.376 . S
C1052 C1053 1.388 . S
C1053 H1040 0.930 . S
C1053 C1052 1.388 . S
C1053 C1054 1.390 . S
C1054 C1053 1.390 . S
C1054 C1055 1.394 . S
C1054 C1060 1.465 1_655 S
C1055 C1050 1.399 . S
C1055 C1054 1.394 . S
C1055 C1056 1.534 . S
C1056 C1055 1.534 . S
C1056 C1057 1.502 . S
C1056 C1058 1.562 . S
C1056 C1059 1.507 1_655 S
C1057 H1041 0.960 1_655 S
C1057 H1042 0.960 1_655 S
C1057 H1043 0.960 . S
C1057 C1056 1.502 . S
C1058 H1044 0.960 . S
C1058 H1045 0.961 1_655 S
C1058 H1046 0.958 1_655 S
C1058 C1056 1.562 . S
C1059 C1056 1.507 1_455 S
C1059 C1060 1.396 . S
C1059 C1064 1.390 . S
C1060 C1054 1.465 1_455 S
C1060 C1059 1.396 . S
C1060 C1061 1.399 . S
C1061 H1047 0.929 . S
C1061 C1060 1.399 . S
C1061 C1062 1.385 . S
C1062 H1048 0.931 . S
C1062 C1061 1.385 . S
C1062 C1063 1.389 . S
C1063 C1062 1.389 . S
C1063 C1064 1.387 . S
C1064 H1049 0.930 . S
C1064 C1059 1.390 . S
C1064 C1063 1.387 . S
H1065 C1077 0.930 . S
H1066 C1079 0.930 . S
H1067 C1080 0.930 . S
H1068 C1084 0.956 1_565 S
H1069 C1084 0.932 1_565 S
H1070 C1084 0.992 . S
H1071 C1085 0.984 . S
H1072 C1085 0.940 1_565 S
H1073 C1085 0.956 1_565 S
H1074 C1088 0.929 . S
H1075 C1089 0.931 . S
H1076 C1091 0.930 . S
C1077 H1065 0.930 . S
C1077 C1078 1.399 . S
C1077 C1082 1.399 . S
C1078 C1077 1.399 . S
C1078 C1079 1.376 . S
C1079 H1066 0.930 . S
C1079 C1078 1.376 . S
C1079 C1080 1.388 . S
C1080 H1067 0.930 . S
C1080 C1079 1.388 . S
C1080 C1081 1.390 . S
C1081 C1080 1.390 . S
C1081 C1082 1.394 . S
C1081 C1087 1.465 1_545 S
C1082 C1077 1.399 . S
C1082 C1081 1.394 . S
C1082 C1083 1.537 . S
C1083 C1082 1.537 . S
C1083 C1084 1.502 . S
C1083 C1085 1.561 . S
C1083 C1086 1.505 1_545 S
C1084 H1068 0.956 1_545 S
C1084 H1069 0.932 1_545 S
C1084 H1070 0.992 . S
C1084 C1083 1.502 . S
C1085 H1071 0.984 . S
C1085 H1072 0.940 1_545 S
C1085 H1073 0.956 1_545 S
C1085 C1083 1.561 . S
C1086 C1083 1.505 1_565 S
C1086 C1087 1.396 . S
C1086 C1091 1.390 . S
C1087 C1081 1.465 1_565 S
C1087 C1086 1.396 . S
C1087 C1088 1.399 . S
C1088 H1074 0.929 . S
C1088 C1087 1.399 . S
C1088 C1089 1.385 . S
C1089 H1075 0.931 . S
C1089 C1088 1.385 . S
C1089 C1090 1.389 . S
C1090 C1089 1.389 . S
C1090 C1091 1.387 . S
C1091 H1076 0.930 . S
C1091 C1086 1.390 . S
C1091 C1090 1.387 . S
H1092 C1104 0.930 . S
H1093 C1106 0.930 . S
H1094 C1107 0.930 . S
H1095 C1111 0.957 1_545 S
H1096 C1111 0.950 1_545 S
H1097 C1111 0.971 . S
H1098 C1112 0.947 1_565 S
H1099 C1112 0.973 . S
H1100 C1112 0.961 . S
H1101 C1115 0.929 . S
H1102 C1116 0.931 . S
H1103 C1118 0.930 . S
C1104 H1092 0.930 . S
C1104 C1105 1.399 . S
C1104 C1109 1.399 . S
C1105 C1104 1.399 . S
C1105 C1106 1.376 . S
C1106 H1093 0.930 . S
C1106 C1105 1.376 . S
C1106 C1107 1.388 . S
C1107 H1094 0.930 . S
C1107 C1106 1.388 . S
C1107 C1108 1.390 . S
C1108 C1107 1.390 . S
C1108 C1109 1.394 . S
C1108 C1114 1.465 1_565 S
C1109 C1104 1.399 . S
C1109 C1108 1.394 . S
C1109 C1110 1.518 . S
C1110 C1109 1.518 . S
C1110 C1111 1.502 . S
C1110 C1112 1.561 1_565 S
C1110 C1113 1.524 1_565 S
C1111 H1095 0.957 1_565 S
C1111 H1096 0.950 1_565 S
C1111 H1097 0.971 . S
C1111 C1110 1.502 . S
C1112 H1098 0.947 1_545 S
C1112 H1099 0.973 . S
C1112 H1100 0.961 . S
C1112 C1110 1.561 1_545 S
C1113 C1110 1.524 1_545 S
C1113 C1114 1.396 . S
C1113 C1118 1.390 . S
C1114 C1108 1.465 1_545 S
C1114 C1113 1.396 . S
C1114 C1115 1.399 . S
C1115 H1101 0.929 . S
C1115 C1114 1.399 . S
C1115 C1116 1.385 . S
C1116 H1102 0.931 . S
C1116 C1115 1.385 . S
C1116 C1117 1.389 . S
C1117 C1116 1.389 . S
C1117 C1118 1.387 . S
C1118 H1103 0.930 . S
C1118 C1113 1.390 . S
C1118 C1117 1.387 . S
H1119 C1131 0.930 . S
H1120 C1133 0.930 . S
H1121 C1134 0.930 . S
H1122 C1138 0.959 . S
H1123 C1138 0.959 . S
H1124 C1138 0.961 1_655 S
H1125 C1139 0.938 1_655 S
H1126 C1139 0.981 . S
H1127 C1139 0.961 . S
H1128 C1142 0.929 . S
H1129 C1143 0.931 . S
H1130 C1145 0.930 . S
C1131 H1119 0.930 . S
C1131 C1132 1.399 . S
C1131 C1136 1.399 . S
C1132 C1131 1.399 . S
C1132 C1133 1.376 . S
C1133 H1120 0.930 . S
C1133 C1132 1.376 . S
C1133 C1134 1.388 . S
C1134 H1121 0.930 . S
C1134 C1133 1.388 . S
C1134 C1135 1.390 . S
C1135 C1134 1.390 . S
C1135 C1136 1.394 . S
C1135 C1141 1.465 1_655 S
C1136 C1131 1.399 . S
C1136 C1135 1.394 . S
C1136 C1137 1.493 1_655 S
C1137 C1136 1.493 1_455 S
C1137 C1138 1.503 . S
C1137 C1139 1.561 . S
C1137 C1140 1.548 . S
C1138 H1122 0.959 . S
C1138 H1123 0.959 . S
C1138 H1124 0.961 1_455 S
C1138 C1137 1.503 . S
C1139 H1125 0.938 1_455 S
C1139 H1126 0.981 . S
C1139 H1127 0.961 . S
C1139 C1137 1.561 . S
C1140 C1137 1.548 . S
C1140 C1141 1.396 . S
C1140 C1145 1.390 . S
C1141 C1135 1.465 1_455 S
C1141 C1140 1.396 . S
C1141 C1142 1.399 . S
C1142 H1128 0.929 . S
C1142 C1141 1.399 . S
C1142 C1143 1.385 . S
C1143 H1129 0.931 . S
C1143 C1142 1.385 . S
C1143 C1144 1.389 . S
C1144 C1143 1.389 . S
C1144 C1145 1.387 . S
C1145 H1130 0.930 . S
C1145 C1140 1.390 . S
C1145 C1144 1.387 . S
H1146 C1158 0.930 . S
H1147 C1160 0.930 . S
H1148 C1161 0.930 . S
H1149 C1165 0.957 1_545 S
H1150 C1165 0.949 1_545 S
H1151 C1165 0.972 . S
H1152 C1166 0.947 1_565 S
H1153 C1166 0.972 . S
H1154 C1166 0.961 . S
H1155 C1169 0.929 . S
H1156 C1170 0.931 . S
H1157 C1172 0.930 . S
C1158 H1146 0.930 . S
C1158 C1159 1.399 . S
C1158 C1163 1.399 . S
C1159 C1158 1.399 . S
C1159 C1160 1.376 . S
C1160 H1147 0.930 . S
C1160 C1159 1.376 . S
C1160 C1161 1.388 . S
C1161 H1148 0.930 . S
C1161 C1160 1.388 . S
C1161 C1162 1.390 . S
C1162 C1161 1.390 . S
C1162 C1163 1.394 . S
C1162 C1168 1.465 1_565 S
C1163 C1158 1.399 . S
C1163 C1162 1.394 . S
C1163 C1164 1.518 . S
C1164 C1163 1.518 . S
C1164 C1165 1.502 . S
C1164 C1166 1.561 1_565 S
C1164 C1167 1.524 1_565 S
C1165 H1149 0.957 1_565 S
C1165 H1150 0.949 1_565 S
C1165 H1151 0.972 . S
C1165 C1164 1.502 . S
C1166 H1152 0.947 1_545 S
C1166 H1153 0.972 . S
C1166 H1154 0.961 . S
C1166 C1164 1.561 1_545 S
C1167 C1164 1.524 1_545 S
C1167 C1168 1.396 . S
C1167 C1172 1.390 . S
C1168 C1162 1.465 1_545 S
C1168 C1167 1.396 . S
C1168 C1169 1.399 . S
C1169 H1155 0.929 . S
C1169 C1168 1.399 . S
C1169 C1170 1.385 . S
C1170 H1156 0.931 . S
C1170 C1169 1.385 . S
C1170 C1171 1.389 . S
C1171 C1170 1.389 . S
C1171 C1172 1.387 . S
C1172 H1157 0.930 . S
C1172 C1167 1.390 . S
C1172 C1171 1.387 . S
H1173 C1185 0.930 . S
H1174 C1187 0.930 . S
H1175 C1188 0.930 . S
H1176 C1192 0.957 1_455 S
H1177 C1192 0.949 1_455 S
H1178 C1192 0.972 . S
H1179 C1193 0.947 1_655 S
H1180 C1193 0.973 . S
H1181 C1193 0.961 . S
H1182 C1196 0.929 . S
H1183 C1197 0.931 . S
H1184 C1199 0.930 . S
C1185 H1173 0.930 . S
C1185 C1186 1.399 . S
C1185 C1190 1.399 . S
C1186 C1185 1.399 . S
C1186 C1187 1.376 . S
C1187 H1174 0.930 . S
C1187 C1186 1.376 . S
C1187 C1188 1.388 . S
C1188 H1175 0.930 . S
C1188 C1187 1.388 . S
C1188 C1189 1.390 . S
C1189 C1188 1.390 . S
C1189 C1190 1.394 . S
C1189 C1195 1.465 1_655 S
C1190 C1185 1.399 . S
C1190 C1189 1.394 . S
C1190 C1191 1.518 . S
C1191 C1190 1.518 . S
C1191 C1192 1.502 . S
C1191 C1193 1.561 1_655 S
C1191 C1194 1.524 1_655 S
C1192 H1176 0.957 1_655 S
C1192 H1177 0.949 1_655 S
C1192 H1178 0.972 . S
C1192 C1191 1.502 . S
C1193 H1179 0.947 1_455 S
C1193 H1180 0.973 . S
C1193 H1181 0.961 . S
C1193 C1191 1.561 1_455 S
C1194 C1191 1.524 1_455 S
C1194 C1195 1.396 . S
C1194 C1199 1.390 . S
C1195 C1189 1.465 1_455 S
C1195 C1194 1.396 . S
C1195 C1196 1.399 . S
C1196 H1182 0.929 . S
C1196 C1195 1.399 . S
C1196 C1197 1.385 . S
C1197 H1183 0.931 . S
C1197 C1196 1.385 . S
C1197 C1198 1.389 . S
C1198 C1197 1.389 . S
C1198 C1199 1.387 . S
C1199 H1184 0.930 . S
C1199 C1194 1.390 . S
C1199 C1198 1.387 . S
H1200 C1212 0.930 . S
H1201 C1214 0.930 . S
H1202 C1215 0.930 . S
H1203 C1219 0.958 1_554 S
H1204 C1219 0.943 1_554 S
H1205 C1219 0.979 . S
H1206 C1220 0.960 . S
H1207 C1220 0.961 1_554 S
H1208 C1220 0.957 1_554 S
H1209 C1223 0.929 . S
H1210 C1224 0.931 . S
H1211 C1226 0.930 . S
C1212 H1200 0.930 . S
C1212 C1213 1.399 . S
C1212 C1217 1.399 . S
C1213 C1212 1.399 . S
C1213 C1214 1.376 . S
C1214 H1201 0.930 . S
C1214 C1213 1.376 . S
C1214 C1215 1.388 . S
C1215 H1202 0.930 . S
C1215 C1214 1.388 . S
C1215 C1216 1.390 . S
C1216 C1215 1.390 . S
C1216 C1217 1.394 . S
C1216 C1222 1.465 1_556 S
C1217 C1212 1.399 . S
C1217 C1216 1.394 . S
C1217 C1218 1.539 . S
C1218 C1217 1.539 . S
C1218 C1219 1.502 . S
C1218 C1220 1.562 . S
C1218 C1221 1.502 1_556 S
C1219 H1203 0.958 1_556 S
C1219 H1204 0.943 1_556 S
C1219 H1205 0.979 . S
C1219 C1218 1.502 . S
C1220 H1206 0.960 . S
C1220 H1207 0.961 1_556 S
C1220 H1208 0.957 1_556 S
C1220 C1218 1.562 . S
C1221 C1218 1.502 1_554 S
C1221 C1222 1.396 . S
C1221 C1226 1.390 . S
C1222 C1216 1.465 1_554 S
C1222 C1221 1.396 . S
C1222 C1223 1.399 . S
C1223 H1209 0.929 . S
C1223 C1222 1.399 . S
C1223 C1224 1.385 . S
C1224 H1210 0.931 . S
C1224 C1223 1.385 . S
C1224 C1225 1.389 . S
C1225 C1224 1.389 . S
C1225 C1226 1.387 . S
C1226 H1211 0.930 . S
C1226 C1221 1.390 . S
C1226 C1225 1.387 . S
H1227 C1239 0.930 . S
H1228 C1241 0.930 . S
H1229 C1242 0.930 . S
H1230 C1246 0.959 . S
H1231 C1246 0.959 . S
H1232 C1246 0.961 1_556 S
H1233 C1247 0.957 . S
H1234 C1247 0.963 1_554 S
H1235 C1247 0.957 1_554 S
H1236 C1250 0.929 . S
H1237 C1251 0.931 . S
H1238 C1253 0.930 . S
C1239 H1227 0.930 . S
C1239 C1240 1.399 . S
C1239 C1244 1.399 . S
C1240 C1239 1.399 . S
C1240 C1241 1.376 . S
C1241 H1228 0.930 . S
C1241 C1240 1.376 . S
C1241 C1242 1.388 . S
C1242 H1229 0.930 . S
C1242 C1241 1.388 . S
C1242 C1243 1.390 . S
C1243 C1242 1.390 . S
C1243 C1244 1.394 . S
C1243 C1249 1.465 1_556 S
C1244 C1239 1.399 . S
C1244 C1243 1.394 . S
C1244 C1245 1.506 1_556 S
C1245 C1244 1.506 1_554 S
C1245 C1246 1.502 . S
C1245 C1247 1.561 1_554 S
C1245 C1248 1.535 . S
C1246 H1230 0.959 . S
C1246 H1231 0.959 . S
C1246 H1232 0.961 1_554 S
C1246 C1245 1.502 . S
C1247 H1233 0.957 . S
C1247 H1234 0.963 1_556 S
C1247 H1235 0.957 1_556 S
C1247 C1245 1.561 1_556 S
C1248 C1245 1.535 . S
C1248 C1249 1.396 . S
C1248 C1253 1.390 . S
C1249 C1243 1.465 1_554 S
C1249 C1248 1.396 . S
C1249 C1250 1.399 . S
C1250 H1236 0.929 . S
C1250 C1249 1.399 . S
C1250 C1251 1.385 . S
C1251 H1237 0.931 . S
C1251 C1250 1.385 . S
C1251 C1252 1.389 . S
C1252 C1251 1.389 . S
C1252 C1253 1.387 . S
C1253 H1238 0.930 . S
C1253 C1248 1.390 . S
C1253 C1252 1.387 . S
H1254 C1266 0.930 . S
H1255 C1268 0.930 . S
H1256 C1269 0.930 . S
H1257 C1273 0.959 . S
H1258 C1273 0.959 . S
H1259 C1273 0.961 1_556 S
H1260 C1274 0.960 1_556 S
H1261 C1274 0.961 . S
H1262 C1274 0.959 . S
H1263 C1277 0.929 . S
H1264 C1278 0.931 . S
H1265 C1280 0.930 . S
C1266 H1254 0.930 . S
C1266 C1267 1.399 . S
C1266 C1271 1.399 . S
C1267 C1266 1.399 . S
C1267 C1268 1.376 . S
C1268 H1255 0.930 . S
C1268 C1267 1.376 . S
C1268 C1269 1.388 . S
C1269 H1256 0.930 . S
C1269 C1268 1.388 . S
C1269 C1270 1.390 . S
C1270 C1269 1.390 . S
C1270 C1271 1.394 . S
C1270 C1276 1.465 1_556 S
C1271 C1266 1.399 . S
C1271 C1270 1.394 . S
C1271 C1272 1.485 1_556 S
C1272 C1271 1.485 1_554 S
C1272 C1273 1.503 . S
C1272 C1274 1.563 . S
C1272 C1275 1.556 . S
C1273 H1257 0.959 . S
C1273 H1258 0.959 . S
C1273 H1259 0.961 1_554 S
C1273 C1272 1.503 . S
C1274 H1260 0.960 1_554 S
C1274 H1261 0.961 . S
C1274 H1262 0.959 . S
C1274 C1272 1.563 . S
C1275 C1272 1.556 . S
C1275 C1276 1.396 . S
C1275 C1280 1.390 . S
C1276 C1270 1.465 1_554 S
C1276 C1275 1.396 . S
C1276 C1277 1.399 . S
C1277 H1263 0.929 . S
C1277 C1276 1.399 . S
C1277 C1278 1.385 . S
C1278 H1264 0.931 . S
C1278 C1277 1.385 . S
C1278 C1279 1.389 . S
C1279 C1278 1.389 . S
C1279 C1280 1.387 . S
C1280 H1265 0.930 . S
C1280 C1275 1.390 . S
C1280 C1279 1.387 . S
H1281 C1293 0.930 . S
H1282 C1295 0.930 . S
H1283 C1296 0.930 . S
H1284 C1300 0.957 1_554 S
H1285 C1300 0.943 1_554 S
H1286 C1300 0.979 . S
H1287 C1301 0.957 1_556 S
H1288 C1301 0.964 . S
H1289 C1301 0.959 . S
H1290 C1304 0.929 . S
H1291 C1305 0.931 . S
H1292 C1307 0.930 . S
C1293 H1281 0.930 . S
C1293 C1294 1.399 . S
C1293 C1298 1.399 . S
C1294 C1293 1.399 . S
C1294 C1295 1.376 . S
C1295 H1282 0.930 . S
C1295 C1294 1.376 . S
C1295 C1296 1.388 . S
C1296 H1283 0.930 . S
C1296 C1295 1.388 . S
C1296 C1297 1.390 . S
C1297 C1296 1.390 . S
C1297 C1298 1.394 . S
C1297 C1303 1.465 1_556 S
C1298 C1293 1.399 . S
C1298 C1297 1.394 . S
C1298 C1299 1.523 . S
C1299 C1298 1.523 . S
C1299 C1300 1.502 . S
C1299 C1301 1.561 1_556 S
C1299 C1302 1.519 1_556 S
C1300 H1284 0.957 1_556 S
C1300 H1285 0.943 1_556 S
C1300 H1286 0.979 . S
C1300 C1299 1.502 . S
C1301 H1287 0.957 1_554 S
C1301 H1288 0.964 . S
C1301 H1289 0.959 . S
C1301 C1299 1.561 1_554 S
C1302 C1299 1.519 1_554 S
C1302 C1303 1.396 . S
C1302 C1307 1.390 . S
C1303 C1297 1.465 1_554 S
C1303 C1302 1.396 . S
C1303 C1304 1.399 . S
C1304 H1290 0.929 . S
C1304 C1303 1.399 . S
C1304 C1305 1.385 . S
C1305 H1291 0.931 . S
C1305 C1304 1.385 . S
C1305 C1306 1.389 . S
C1306 C1305 1.389 . S
C1306 C1307 1.387 . S
C1307 H1292 0.930 . S
C1307 C1302 1.390 . S
C1307 C1306 1.387 . S
H1308 C1320 0.930 . S
H1309 C1322 0.930 . S
H1310 C1323 0.930 . S
H1311 C1327 0.959 . S
H1312 C1327 0.959 . S
H1313 C1327 0.961 . S
H1314 C1328 0.960 . S
H1315 C1328 0.961 . S
H1316 C1328 0.959 . S
H1317 C1331 0.929 . S
H1318 C1332 0.931 . S
H1319 C1334 0.930 . S
C1320 H1308 0.930 . S
C1320 C1321 1.399 . S
C1320 C1325 1.399 . S
C1321 C1320 1.399 . S
C1321 C1322 1.376 . S
C1322 H1309 0.930 . S
C1322 C1321 1.376 . S
C1322 C1323 1.388 . S
C1323 H1310 0.930 . S
C1323 C1322 1.388 . S
C1323 C1324 1.390 . S
C1324 C1323 1.390 . S
C1324 C1325 1.394 . S
C1324 C1330 1.465 . S
C1325 C1320 1.399 . S
C1325 C1324 1.394 . S
C1325 C1326 1.516 . S
C1326 C1325 1.516 . S
C1326 C1327 1.502 . S
C1326 C1328 1.561 . S
C1326 C1329 1.526 . S
C1327 H1311 0.959 . S
C1327 H1312 0.959 . S
C1327 H1313 0.961 . S
C1327 C1326 1.502 . S
C1328 H1314 0.960 . S
C1328 H1315 0.961 . S
C1328 H1316 0.959 . S
C1328 C1326 1.561 . S
C1329 C1326 1.526 . S
C1329 C1330 1.396 . S
C1329 C1334 1.390 . S
C1330 C1324 1.465 . S
C1330 C1329 1.396 . S
C1330 C1331 1.399 . S
C1331 H1317 0.929 . S
C1331 C1330 1.399 . S
C1331 C1332 1.385 . S
C1332 H1318 0.931 . S
C1332 C1331 1.385 . S
C1332 C1333 1.389 . S
C1333 C1332 1.389 . S
C1333 C1334 1.387 . S
C1334 H1319 0.930 . S
C1334 C1329 1.390 . S
C1334 C1333 1.387 . S
H1335 C1347 0.930 . S
H1336 C1349 0.930 . S
H1337 C1350 0.930 . S
H1338 C1354 0.959 . S
H1339 C1354 0.959 . S
H1340 C1354 0.961 . S
H1341 C1355 0.960 . S
H1342 C1355 0.961 . S
H1343 C1355 0.959 . S
H1344 C1358 0.929 . S
H1345 C1359 0.931 . S
H1346 C1361 0.930 . S
C1347 H1335 0.930 . S
C1347 C1348 1.399 . S
C1347 C1352 1.399 . S
C1348 C1347 1.399 . S
C1348 C1349 1.376 . S
C1349 H1336 0.930 . S
C1349 C1348 1.376 . S
C1349 C1350 1.388 . S
C1350 H1337 0.930 . S
C1350 C1349 1.388 . S
C1350 C1351 1.390 . S
C1351 C1350 1.390 . S
C1351 C1352 1.394 . S
C1351 C1357 1.465 . S
C1352 C1347 1.399 . S
C1352 C1351 1.394 . S
C1352 C1353 1.516 . S
C1353 C1352 1.516 . S
C1353 C1354 1.502 . S
C1353 C1355 1.561 . S
C1353 C1356 1.526 . S
C1354 H1338 0.959 . S
C1354 H1339 0.959 . S
C1354 H1340 0.961 . S
C1354 C1353 1.502 . S
C1355 H1341 0.960 . S
C1355 H1342 0.961 . S
C1355 H1343 0.959 . S
C1355 C1353 1.561 . S
C1356 C1353 1.526 . S
C1356 C1357 1.396 . S
C1356 C1361 1.390 . S
C1357 C1351 1.465 . S
C1357 C1356 1.396 . S
C1357 C1358 1.399 . S
C1358 H1344 0.929 . S
C1358 C1357 1.399 . S
C1358 C1359 1.385 . S
C1359 H1345 0.931 . S
C1359 C1358 1.385 . S
C1359 C1360 1.389 . S
C1360 C1359 1.389 . S
C1360 C1361 1.387 . S
C1361 H1346 0.930 . S
C1361 C1356 1.390 . S
C1361 C1360 1.387 . S
H1362 C1374 0.930 . S
H1363 C1376 0.930 . S
H1364 C1377 0.930 . S
H1365 C1381 0.959 . S
H1366 C1381 0.959 . S
H1367 C1381 0.961 . S
H1368 C1382 0.960 . S
H1369 C1382 0.961 . S
H1370 C1382 0.959 . S
H1371 C1385 0.929 . S
H1372 C1386 0.931 . S
H1373 C1388 0.930 . S
C1374 H1362 0.930 . S
C1374 C1375 1.399 . S
C1374 C1379 1.399 . S
C1375 C1374 1.399 . S
C1375 C1376 1.376 . S
C1376 H1363 0.930 . S
C1376 C1375 1.376 . S
C1376 C1377 1.388 . S
C1377 H1364 0.930 . S
C1377 C1376 1.388 . S
C1377 C1378 1.390 . S
C1378 C1377 1.390 . S
C1378 C1379 1.394 . S
C1378 C1384 1.465 . S
C1379 C1374 1.399 . S
C1379 C1378 1.394 . S
C1379 C1380 1.516 . S
C1380 C1379 1.516 . S
C1380 C1381 1.502 . S
C1380 C1382 1.561 . S
C1380 C1383 1.526 . S
C1381 H1365 0.959 . S
C1381 H1366 0.959 . S
C1381 H1367 0.961 . S
C1381 C1380 1.502 . S
C1382 H1368 0.960 . S
C1382 H1369 0.961 . S
C1382 H1370 0.959 . S
C1382 C1380 1.561 . S
C1383 C1380 1.526 . S
C1383 C1384 1.396 . S
C1383 C1388 1.390 . S
C1384 C1378 1.465 . S
C1384 C1383 1.396 . S
C1384 C1385 1.399 . S
C1385 H1371 0.929 . S
C1385 C1384 1.399 . S
C1385 C1386 1.385 . S
C1386 H1372 0.931 . S
C1386 C1385 1.385 . S
C1386 C1387 1.389 . S
C1387 C1386 1.389 . S
C1387 C1388 1.387 . S
C1388 H1373 0.930 . S
C1388 C1383 1.390 . S
C1388 C1387 1.387 . S
H1389 C1401 0.930 . S
H1390 C1403 0.930 . S
H1391 C1404 0.930 . S
H1392 C1408 0.959 . S
H1393 C1408 0.959 . S
H1394 C1408 0.961 . S
H1395 C1409 0.960 . S
H1396 C1409 0.961 . S
H1397 C1409 0.959 . S
H1398 C1412 0.929 . S
H1399 C1413 0.931 . S
H1400 C1415 0.930 . S
C1401 H1389 0.930 . S
C1401 C1402 1.399 . S
C1401 C1406 1.399 . S
C1402 C1401 1.399 . S
C1402 C1403 1.376 . S
C1403 H1390 0.930 . S
C1403 C1402 1.376 . S
C1403 C1404 1.388 . S
C1404 H1391 0.930 . S
C1404 C1403 1.388 . S
C1404 C1405 1.390 . S
C1405 C1404 1.390 . S
C1405 C1406 1.394 . S
C1405 C1411 1.465 . S
C1406 C1401 1.399 . S
C1406 C1405 1.394 . S
C1406 C1407 1.516 . S
C1407 C1406 1.516 . S
C1407 C1408 1.502 . S
C1407 C1409 1.561 . S
C1407 C1410 1.526 . S
C1408 H1392 0.959 . S
C1408 H1393 0.959 . S
C1408 H1394 0.961 . S
C1408 C1407 1.502 . S
C1409 H1395 0.960 . S
C1409 H1396 0.961 . S
C1409 H1397 0.959 . S
C1409 C1407 1.561 . S
C1410 C1407 1.526 . S
C1410 C1411 1.396 . S
C1410 C1415 1.390 . S
C1411 C1405 1.465 . S
C1411 C1410 1.396 . S
C1411 C1412 1.399 . S
C1412 H1398 0.929 . S
C1412 C1411 1.399 . S
C1412 C1413 1.385 . S
C1413 H1399 0.931 . S
C1413 C1412 1.385 . S
C1413 C1414 1.389 . S
C1414 C1413 1.389 . S
C1414 C1415 1.387 . S
C1415 H1400 0.930 . S
C1415 C1410 1.390 . S
C1415 C1414 1.387 . S
H1416 C1428 0.930 . S
H1417 C1430 0.930 . S
H1418 C1431 0.930 . S
H1419 C1435 0.959 . S
H1420 C1435 0.959 . S
H1421 C1435 0.961 . S
H1422 C1436 0.960 . S
H1423 C1436 0.961 . S
H1424 C1436 0.959 . S
H1425 C1439 0.929 . S
H1426 C1440 0.931 . S
H1427 C1442 0.930 . S
C1428 H1416 0.930 . S
C1428 C1429 1.399 . S
C1428 C1433 1.399 . S
C1429 C1428 1.399 . S
C1429 C1430 1.376 . S
C1430 H1417 0.930 . S
C1430 C1429 1.376 . S
C1430 C1431 1.388 . S
C1431 H1418 0.930 . S
C1431 C1430 1.388 . S
C1431 C1432 1.390 . S
C1432 C1431 1.390 . S
C1432 C1433 1.394 . S
C1432 C1438 1.465 . S
C1433 C1428 1.399 . S
C1433 C1432 1.394 . S
C1433 C1434 1.516 . S
C1434 C1433 1.516 . S
C1434 C1435 1.502 . S
C1434 C1436 1.561 . S
C1434 C1437 1.526 . S
C1435 H1419 0.959 . S
C1435 H1420 0.959 . S
C1435 H1421 0.961 . S
C1435 C1434 1.502 . S
C1436 H1422 0.960 . S
C1436 H1423 0.961 . S
C1436 H1424 0.959 . S
C1436 C1434 1.561 . S
C1437 C1434 1.526 . S
C1437 C1438 1.396 . S
C1437 C1442 1.390 . S
C1438 C1432 1.465 . S
C1438 C1437 1.396 . S
C1438 C1439 1.399 . S
C1439 H1425 0.929 . S
C1439 C1438 1.399 . S
C1439 C1440 1.385 . S
C1440 H1426 0.931 . S
C1440 C1439 1.385 . S
C1440 C1441 1.389 . S
C1441 C1440 1.389 . S
C1441 C1442 1.387 . S
C1442 H1427 0.930 . S
C1442 C1437 1.390 . S
C1442 C1441 1.387 . S
H1443 C1455 0.930 . S
H1444 C1457 0.930 . S
H1445 C1458 0.930 . S
H1446 C1462 0.959 . S
H1447 C1462 0.959 . S
H1448 C1462 0.961 . S
H1449 C1463 0.960 . S
H1450 C1463 0.961 . S
H1451 C1463 0.959 . S
H1452 C1466 0.929 . S
H1453 C1467 0.931 . S
H1454 C1469 0.930 . S
C1455 H1443 0.930 . S
C1455 C1456 1.399 . S
C1455 C1460 1.399 . S
C1456 C1455 1.399 . S
C1456 C1457 1.376 . S
C1457 H1444 0.930 . S
C1457 C1456 1.376 . S
C1457 C1458 1.388 . S
C1458 H1445 0.930 . S
C1458 C1457 1.388 . S
C1458 C1459 1.390 . S
C1459 C1458 1.390 . S
C1459 C1460 1.394 . S
C1459 C1465 1.465 . S
C1460 C1455 1.399 . S
C1460 C1459 1.394 . S
C1460 C1461 1.516 . S
C1461 C1460 1.516 . S
C1461 C1462 1.502 . S
C1461 C1463 1.561 . S
C1461 C1464 1.526 . S
C1462 H1446 0.959 . S
C1462 H1447 0.959 . S
C1462 H1448 0.961 . S
C1462 C1461 1.502 . S
C1463 H1449 0.960 . S
C1463 H1450 0.961 . S
C1463 H1451 0.959 . S
C1463 C1461 1.561 . S
C1464 C1461 1.526 . S
C1464 C1465 1.396 . S
C1464 C1469 1.390 . S
C1465 C1459 1.465 . S
C1465 C1464 1.396 . S
C1465 C1466 1.399 . S
C1466 H1452 0.929 . S
C1466 C1465 1.399 . S
C1466 C1467 1.385 . S
C1467 H1453 0.931 . S
C1467 C1466 1.385 . S
C1467 C1468 1.389 . S
C1468 C1467 1.389 . S
C1468 C1469 1.387 . S
C1469 H1454 0.930 . S
C1469 C1464 1.390 . S
C1469 C1468 1.387 . S
H1470 C1482 0.930 . S
H1471 C1484 0.930 . S
H1472 C1485 0.930 . S
H1473 C1489 0.959 . S
H1474 C1489 0.959 . S
H1475 C1489 0.961 . S
H1476 C1490 0.960 . S
H1477 C1490 0.961 . S
H1478 C1490 0.959 . S
H1479 C1493 0.929 . S
H1480 C1494 0.931 . S
H1481 C1496 0.930 . S
C1482 H1470 0.930 . S
C1482 C1483 1.399 . S
C1482 C1487 1.399 . S
C1483 C1482 1.399 . S
C1483 C1484 1.376 . S
C1484 H1471 0.930 . S
C1484 C1483 1.376 . S
C1484 C1485 1.388 . S
C1485 H1472 0.930 . S
C1485 C1484 1.388 . S
C1485 C1486 1.390 . S
C1486 C1485 1.390 . S
C1486 C1487 1.394 . S
C1486 C1492 1.465 . S
C1487 C1482 1.399 . S
C1487 C1486 1.394 . S
C1487 C1488 1.516 . S
C1488 C1487 1.516 . S
C1488 C1489 1.502 . S
C1488 C1490 1.561 . S
C1488 C1491 1.526 . S
C1489 H1473 0.959 . S
C1489 H1474 0.959 . S
C1489 H1475 0.961 . S
C1489 C1488 1.502 . S
C1490 H1476 0.960 . S
C1490 H1477 0.961 . S
C1490 H1478 0.959 . S
C1490 C1488 1.561 . S
C1491 C1488 1.526 . S
C1491 C1492 1.396 . S
C1491 C1496 1.390 . S
C1492 C1486 1.465 . S
C1492 C1491 1.396 . S
C1492 C1493 1.399 . S
C1493 H1479 0.929 . S
C1493 C1492 1.399 . S
C1493 C1494 1.385 . S
C1494 H1480 0.931 . S
C1494 C1493 1.385 . S
C1494 C1495 1.389 . S
C1495 C1494 1.389 . S
C1495 C1496 1.387 . S
C1496 H1481 0.930 . S
C1496 C1491 1.390 . S
C1496 C1495 1.387 . S
H1497 C1509 0.930 . S
H1498 C1511 0.930 . S
H1499 C1512 0.930 . S
H1500 C1516 0.959 . S
H1501 C1516 0.959 . S
H1502 C1516 0.961 . S
H1503 C1517 0.960 . S
H1504 C1517 0.961 . S
H1505 C1517 0.959 . S
H1506 C1520 0.929 . S
H1507 C1521 0.931 . S
H1508 C1523 0.930 . S
C1509 H1497 0.930 . S
C1509 C1510 1.399 . S
C1509 C1514 1.399 . S
C1510 C1509 1.399 . S
C1510 C1511 1.376 . S
C1511 H1498 0.930 . S
C1511 C1510 1.376 . S
C1511 C1512 1.388 . S
C1512 H1499 0.930 . S
C1512 C1511 1.388 . S
C1512 C1513 1.390 . S
C1513 C1512 1.390 . S
C1513 C1514 1.394 . S
C1513 C1519 1.465 . S
C1514 C1509 1.399 . S
C1514 C1513 1.394 . S
C1514 C1515 1.516 . S
C1515 C1514 1.516 . S
C1515 C1516 1.502 . S
C1515 C1517 1.561 . S
C1515 C1518 1.526 . S
C1516 H1500 0.959 . S
C1516 H1501 0.959 . S
C1516 H1502 0.961 . S
C1516 C1515 1.502 . S
C1517 H1503 0.960 . S
C1517 H1504 0.961 . S
C1517 H1505 0.959 . S
C1517 C1515 1.561 . S
C1518 C1515 1.526 . S
C1518 C1519 1.396 . S
C1518 C1523 1.390 . S
C1519 C1513 1.465 . S
C1519 C1518 1.396 . S
C1519 C1520 1.399 . S
C1520 H1506 0.929 . S
C1520 C1519 1.399 . S
C1520 C1521 1.385 . S
C1521 H1507 0.931 . S
C1521 C1520 1.385 . S
C1521 C1522 1.389 . S
C1522 C1521 1.389 . S
C1522 C1523 1.387 . S
C1523 H1508 0.930 . S
C1523 C1518 1.390 . S
C1523 C1522 1.387 . S
H1524 C1536 0.930 . S
H1525 C1538 0.930 . S
H1526 C1539 0.930 . S
H1527 C1543 0.959 . S
H1528 C1543 0.959 . S
H1529 C1543 0.961 . S
H1530 C1544 0.960 . S
H1531 C1544 0.961 . S
H1532 C1544 0.959 . S
H1533 C1547 0.929 . S
H1534 C1548 0.931 . S
H1535 C1550 0.930 . S
C1536 H1524 0.930 . S
C1536 C1537 1.399 . S
C1536 C1541 1.399 . S
C1537 C1536 1.399 . S
C1537 C1538 1.376 . S
C1538 H1525 0.930 . S
C1538 C1537 1.376 . S
C1538 C1539 1.388 . S
C1539 H1526 0.930 . S
C1539 C1538 1.388 . S
C1539 C1540 1.390 . S
C1540 C1539 1.390 . S
C1540 C1541 1.394 . S
C1540 C1546 1.465 . S
C1541 C1536 1.399 . S
C1541 C1540 1.394 . S
C1541 C1542 1.516 . S
C1542 C1541 1.516 . S
C1542 C1543 1.502 . S
C1542 C1544 1.561 . S
C1542 C1545 1.526 . S
C1543 H1527 0.959 . S
C1543 H1528 0.959 . S
C1543 H1529 0.961 . S
C1543 C1542 1.502 . S
C1544 H1530 0.960 . S
C1544 H1531 0.961 . S
C1544 H1532 0.959 . S
C1544 C1542 1.561 . S
C1545 C1542 1.526 . S
C1545 C1546 1.396 . S
C1545 C1550 1.390 . S
C1546 C1540 1.465 . S
C1546 C1545 1.396 . S
C1546 C1547 1.399 . S
C1547 H1533 0.929 . S
C1547 C1546 1.399 . S
C1547 C1548 1.385 . S
C1548 H1534 0.931 . S
C1548 C1547 1.385 . S
C1548 C1549 1.389 . S
C1549 C1548 1.389 . S
C1549 C1550 1.387 . S
C1550 H1535 0.930 . S
C1550 C1545 1.390 . S
C1550 C1549 1.387 . S
H1551 C1563 0.930 . S
H1552 C1565 0.930 . S
H1553 C1566 0.930 . S
H1554 C1570 0.959 . S
H1555 C1570 0.959 . S
H1556 C1570 0.961 . S
H1557 C1571 0.960 . S
H1558 C1571 0.961 . S
H1559 C1571 0.959 . S
H1560 C1574 0.929 . S
H1561 C1575 0.931 . S
H1562 C1577 0.930 . S
C1563 H1551 0.930 . S
C1563 C1564 1.399 . S
C1563 C1568 1.399 . S
C1564 C1563 1.399 . S
C1564 C1565 1.376 . S
C1565 H1552 0.930 . S
C1565 C1564 1.376 . S
C1565 C1566 1.388 . S
C1566 H1553 0.930 . S
C1566 C1565 1.388 . S
C1566 C1567 1.390 . S
C1567 C1566 1.390 . S
C1567 C1568 1.394 . S
C1567 C1573 1.465 . S
C1568 C1563 1.399 . S
C1568 C1567 1.394 . S
C1568 C1569 1.516 . S
C1569 C1568 1.516 . S
C1569 C1570 1.502 . S
C1569 C1571 1.561 . S
C1569 C1572 1.526 . S
C1570 H1554 0.959 . S
C1570 H1555 0.959 . S
C1570 H1556 0.961 . S
C1570 C1569 1.502 . S
C1571 H1557 0.960 . S
C1571 H1558 0.961 . S
C1571 H1559 0.959 . S
C1571 C1569 1.561 . S
C1572 C1569 1.526 . S
C1572 C1573 1.396 . S
C1572 C1577 1.390 . S
C1573 C1567 1.465 . S
C1573 C1572 1.396 . S
C1573 C1574 1.399 . S
C1574 H1560 0.929 . S
C1574 C1573 1.399 . S
C1574 C1575 1.385 . S
C1575 H1561 0.931 . S
C1575 C1574 1.385 . S
C1575 C1576 1.389 . S
C1576 C1575 1.389 . S
C1576 C1577 1.387 . S
C1577 H1562 0.930 . S
C1577 C1572 1.390 . S
C1577 C1576 1.387 . S
H1578 C1590 0.930 . S
H1579 C1592 0.930 . S
H1580 C1593 0.930 . S
H1581 C1597 0.959 . S
H1582 C1597 0.959 . S
H1583 C1597 0.961 . S
H1584 C1598 0.960 . S
H1585 C1598 0.961 . S
H1586 C1598 0.959 . S
H1587 C1601 0.929 . S
H1588 C1602 0.931 . S
H1589 C1604 0.930 . S
C1590 H1578 0.930 . S
C1590 C1591 1.399 . S
C1590 C1595 1.399 . S
C1591 C1590 1.399 . S
C1591 C1592 1.376 . S
C1592 H1579 0.930 . S
C1592 C1591 1.376 . S
C1592 C1593 1.388 . S
C1593 H1580 0.930 . S
C1593 C1592 1.388 . S
C1593 C1594 1.390 . S
C1594 C1593 1.390 . S
C1594 C1595 1.394 . S
C1594 C1600 1.465 . S
C1595 C1590 1.399 . S
C1595 C1594 1.394 . S
C1595 C1596 1.516 . S
C1596 C1595 1.516 . S
C1596 C1597 1.502 . S
C1596 C1598 1.561 . S
C1596 C1599 1.526 . S
C1597 H1581 0.959 . S
C1597 H1582 0.959 . S
C1597 H1583 0.961 . S
C1597 C1596 1.502 . S
C1598 H1584 0.960 . S
C1598 H1585 0.961 . S
C1598 H1586 0.959 . S
C1598 C1596 1.561 . S
C1599 C1596 1.526 . S
C1599 C1600 1.396 . S
C1599 C1604 1.390 . S
C1600 C1594 1.465 . S
C1600 C1599 1.396 . S
C1600 C1601 1.399 . S
C1601 H1587 0.929 . S
C1601 C1600 1.399 . S
C1601 C1602 1.385 . S
C1602 H1588 0.931 . S
C1602 C1601 1.385 . S
C1602 C1603 1.389 . S
C1603 C1602 1.389 . S
C1603 C1604 1.387 . S
C1604 H1589 0.930 . S
C1604 C1599 1.390 . S
C1604 C1603 1.387 . S
H1605 C1617 0.930 . S
H1606 C1619 0.930 . S
H1607 C1620 0.930 . S
H1608 C1624 0.959 . S
H1609 C1624 0.959 . S
H1610 C1624 0.961 . S
H1611 C1625 0.960 . S
H1612 C1625 0.961 . S
H1613 C1625 0.959 . S
H1614 C1628 0.929 . S
H1615 C1629 0.931 . S
H1616 C1631 0.930 . S
C1617 H1605 0.930 . S
C1617 C1618 1.399 . S
C1617 C1622 1.399 . S
C1618 C1617 1.399 . S
C1618 C1619 1.376 . S
C1619 H1606 0.930 . S
C1619 C1618 1.376 . S
C1619 C1620 1.388 . S
C1620 H1607 0.930 . S
C1620 C1619 1.388 . S
C1620 C1621 1.390 . S
C1621 C1620 1.390 . S
C1621 C1622 1.394 . S
C1621 C1627 1.465 . S
C1622 C1617 1.399 . S
C1622 C1621 1.394 . S
C1622 C1623 1.516 . S
C1623 C1622 1.516 . S
C1623 C1624 1.502 . S
C1623 C1625 1.561 . S
C1623 C1626 1.526 . S
C1624 H1608 0.959 . S
C1624 H1609 0.959 . S
C1624 H1610 0.961 . S
C1624 C1623 1.502 . S
C1625 H1611 0.960 . S
C1625 H1612 0.961 . S
C1625 H1613 0.959 . S
C1625 C1623 1.561 . S
C1626 C1623 1.526 . S
C1626 C1627 1.396 . S
C1626 C1631 1.390 . S
C1627 C1621 1.465 . S
C1627 C1626 1.396 . S
C1627 C1628 1.399 . S
C1628 H1614 0.929 . S
C1628 C1627 1.399 . S
C1628 C1629 1.385 . S
C1629 H1615 0.931 . S
C1629 C1628 1.385 . S
C1629 C1630 1.389 . S
C1630 C1629 1.389 . S
C1630 C1631 1.387 . S
C1631 H1616 0.930 . S
C1631 C1626 1.390 . S
C1631 C1630 1.387 . S
C349 C161 1.349 . S
C361 C3 1.424 . S
C376 C17 1.424 . S
C388 C119 1.348 . S
C403 C31 1.451 . S
C415 C133 1.395 . S
C430 C45 1.446 . S
C442 C147 1.362 . S
C457 C189 1.348 . S
C469 C59 1.424 . S
C484 C73 1.423 . S
C496 C203 1.346 . S
C511 C217 1.363 . S
C523 C87 1.429 . S
C538 C175 1.293 . S
C550 C101 1.420 . S
C565 C77 1.304 . S
C577 C115 1.426 . S
C592 C91 1.299 . S
C604 C129 1.413 . S
C619 C143 1.427 . S
C631 C105 1.357 . S
C646 C63 1.367 . S
C658 C157 1.447 . S
C673 C49 1.291 . S
C685 C171 1.419 . S
C700 C185 1.414 . S
C712 C7 1.309 . S
C727 C199 1.449 . S
C739 C21 1.378 . S
C754 C213 1.423 . S
C766 C35 1.299 . S
C781 C227 1.422 . S
C793 C329 1.341 . S
C808 C287 1.394 . S
C820 C241 1.443 . S
C835 C255 1.442 . S
C847 C245 1.347 . S
C862 C269 1.441 . S
C874 C259 1.346 . S
C889 C273 1.294 . S
C901 C283 1.413 . S
C916 C297 1.429 . S
C928 C315 1.362 . S
C943 C231 1.293 . S
C955 C311 1.420 . S
C970 C301 1.319 . S
C982 C325 1.416 . S
C997 C9 1.537 . S
C1009 C93 1.535 . S
C1024 C23 1.490 . S
C1036 C107 1.500 . S
C1051 C37 1.484 . S
C1063 C65 1.490 . S
C1078 C79 1.507 . S
C1090 C51 1.517 . S
C1105 C149 1.527 . S
C1117 C121 1.533 . S
C1132 C135 1.505 . S
C1144 C163 1.495 . S
C1159 C177 1.527 . S
C1171 C205 1.533 . S
C1186 C219 1.527 . S
C1198 C191 1.533 . S
C1213 C247 1.490 . S
C1225 C233 1.499 . S
C1240 C261 1.493 . S
C1252 C331 1.487 . S
C1267 C275 1.530 . S
C1279 C303 1.522 . S
C1294 C289 1.523 . S
C1306 C317 1.531 . S
C1321 C8 1.046 . S
C1333 C78 1.034 . S
C1348 C22 1.016 . S
C1360 C92 1.031 . S
C1375 C36 1.017 . S
C1387 C106 1.035 . S
C1402 C64 1.045 . S
C1414 C50 1.032 . S
C1429 C120 1.025 . S
C1441 C330 1.016 . S
C1456 C134 1.045 . S
C1468 C302 1.030 . S
C1483 C316 1.038 . S
C1495 C148 1.020 . S
C1510 C162 1.045 . S
C1522 C232 1.032 . S
C1537 C288 1.025 . S
C1549 C176 1.016 . S
C1564 C246 1.017 . S
C1576 C190 1.034 . S
C1591 C204 1.045 . S
C1603 C260 1.030 . S
C1618 C274 1.045 . S
C1630 C218 1.031 . S
