# Generated by pormake.
# Topology snp, (6)-cn, num edge types: 1
# Building blocks:
#     Node 0, Type 0, BuildingBlock: LEVNOQ01_clean_sbu_1, # of connection points: 6
#     Node 1, Type 0, BuildingBlock: LEVNOQ01_clean_sbu_1, # of connection points: 6
#     Node 2, Type 0, BuildingBlock: LEVNOQ01_clean_sbu_1, # of connection points: 6
#     Node 3, Type 0, BuildingBlock: LEVNOQ01_clean_sbu_1, # of connection points: 6
#     Edge 4, Type (0, 0), BuildingBlock: ZUJKAS_clean_linker_0, # of connection points: 2
#     Edge 5, Type (0, 0), BuildingBlock: ZUJKAS_clean_linker_0, # of connection points: 2
#     Edge 6, Type (0, 0), BuildingBlock: ZUJKAS_clean_linker_0, # of connection points: 2
#     Edge 7, Type (0, 0), BuildingBlock: ZUJKAS_clean_linker_0, # of connection points: 2
#     Edge 8, Type (0, 0), BuildingBlock: ZUJKAS_clean_linker_0, # of connection points: 2
#     Edge 9, Type (0, 0), BuildingBlock: ZUJKAS_clean_linker_0, # of connection points: 2
#     Edge 10, Type (0, 0), BuildingBlock: ZUJKAS_clean_linker_0, # of connection points: 2
#     Edge 11, Type (0, 0), BuildingBlock: ZUJKAS_clean_linker_0, # of connection points: 2
#     Edge 12, Type (0, 0), BuildingBlock: ZUJKAS_clean_linker_0, # of connection points: 2
#     Edge 13, Type (0, 0), BuildingBlock: ZUJKAS_clean_linker_0, # of connection points: 2
#     Edge 14, Type (0, 0), BuildingBlock: ZUJKAS_clean_linker_0, # of connection points: 2
#     Edge 15, Type (0, 0), BuildingBlock: ZUJKAS_clean_linker_0, # of connection points: 2
# Relax obj value: 0.511
# Max RMSD: 0.249
# Mean RMSD: 0.247
data_MOF--net-snp--node1-LEVNOQ01_clean_sbu_1--edge1-ZUJKAS_clean_linker_0
_symmetry_space_group_name_H-M    P1
_symmetry_Int_Tables_number       1
_symmetry_cell_setting            triclinic
loop_
_symmetry_equiv_pos_as_xyz
'x, y, z'
_cell_length_a     34.571286
_cell_length_b     34.459523
_cell_length_c     31.891272
_cell_angle_alpha  99.326978
_cell_angle_beta   99.468349
_cell_angle_gamma 92.135555
loop_
_atom_site_label
_atom_site_type_symbol
_atom_site_fract_x
_atom_site_fract_y
_atom_site_fract_z
_atom_type_partial_charge
O0 O 0.19571 0.10648 0.04672 0.0
Mg1 Mg 0.15547 0.05625 0.02694 0.0
O2 O 0.24221 0.06509 0.04173 0.0
Mg3 Mg 0.22821 0.01783 0.084 0.0
O4 O 0.16517 0.02831 0.07664 0.0
O5 O 0.10515 0.04137 0.0536 0.0
O6 O 0.21432 0.97007 0.12665 0.0
O7 O 0.23903 0.06598 0.14554 0.0
Mg8 Mg 0.30441 0.00309 0.15487 0.0
O9 O 0.29236 0.00662 0.09116 0.0
O10 O 0.26932 0.95617 0.16661 0.0
O11 O 0.29462 0.0594 0.18913 0.0
O12 O 0.35162 -0.00543 0.12226 0.0
C13 C 0.19338 0.9794 0.98364 0.0
C14 C 0.2283 0.09797 0.03553 0.0
C15 C 0.12845 0.02064 0.0753 0.0
C16 C 0.23242 0.95072 0.15419 0.0
C17 C 0.26419 0.07805 0.17975 0.0
C18 C 0.32868 0.00173 0.08861 0.0
O19 O 0.17323 0.00965 0.98056 0.0
O20 O 0.21374 0.97388 0.01947 0.0
O21 O 0.9719 0.25748 0.67336 0.0
Mg22 Mg 0.01827 0.28808 0.65401 0.0
O23 O 0.97328 0.20363 0.62471 0.0
Mg24 Mg 0.01743 0.21637 0.57853 0.0
O25 O 0.00723 0.28181 0.58798 0.0
O26 O 0.00692 0.33936 0.63167 0.0
O27 O 0.06153 0.22764 0.53177 0.0
O28 O 0.96465 0.20549 0.51912 0.0
Mg29 Mg 0.02641 0.13237 0.508 0.0
O30 O 0.02879 0.1547 0.56984 0.0
O31 O 0.06882 0.16982 0.49092 0.0
O32 O 0.9678 0.14445 0.48293 0.0
O33 O 0.03971 0.09313 0.5531 0.0
C34 C 0.08917 0.24447 0.66834 0.0
C35 C 0.95974 0.22229 0.65674 0.0
C36 C 0.00141 0.31899 0.59324 0.0
C37 C 0.07713 0.20666 0.50272 0.0
C38 C 0.95033 0.17627 0.4894 0.0
C39 C 0.0359 0.12223 0.58264 0.0
O40 O 0.0762 0.27751 0.68068 0.0
O41 O 0.07065 0.22136 0.63522 0.0
O42 O 0.71945 0.00518 0.90076 0.0
Mg43 Mg 0.69597 0.95565 0.92383 0.0
O44 O 0.7701 0.02044 0.95472 0.0
Mg45 Mg 0.7678 0.97948 0.00532 0.0
O46 O 0.70161 0.97184 0.98888 0.0
O47 O 0.64339 0.95717 0.94723 0.0
O48 O 0.76911 0.9407 0.05795 0.0
O49 O 0.75793 0.03318 0.05912 0.0
Mg50 Mg 0.84013 0.01823 0.07929 0.0
O51 O 0.83322 -0.01415 0.02047 0.0
O52 O 0.81274 0.97621 0.11153 0.0
O53 O 0.81238 0.07044 0.06952 0.0
O54 O 0.89253 0.00515 0.05591 0.0
C55 C 0.75842 0.89914 0.9229 0.0
C56 C 0.75066 0.02621 0.9188 0.0
C57 C 0.66384 0.96992 0.98488 0.0
C58 C 0.78754 0.94692 0.097 0.0
C59 C 0.7774 0.06596 0.07546 0.0
C60 C 0.87049 -0.01589 0.02298 0.0
O61 O 0.72228 0.90206 0.90916 0.0
O62 O 0.77767 0.9248 0.95354 0.0
O63 O 0.91842 0.67998 0.38984 0.0
Mg64 Mg 0.97676 0.67193 0.42193 0.0
O65 O 0.91408 0.73497 0.43502 0.0
Mg66 Mg 0.96279 0.74954 0.49401 0.0
O67 O -0.02108 0.68763 0.48684 0.0
O68 O -0.00823 0.62788 0.45923 0.0
O69 O 0.01167 0.7683 0.55529 0.0
O70 O 0.91938 0.73415 0.54062 0.0
Mg71 Mg 0.93572 0.82917 0.55562 0.0
O72 O 0.94305 0.80916 0.49568 0.0
O73 O -0.00641 0.82483 0.59008 0.0
O74 O 0.89273 0.78914 0.56626 0.0
O75 O 0.92281 0.86783 0.51113 0.0
C76 C 0.02488 0.74712 0.41959 0.0
C77 C 0.90055 0.71066 0.40076 0.0
C78 C -0.01273 0.65277 0.49258 0.0
C79 C 0.0179 0.79807 0.58603 0.0
C80 C 0.89491 0.75207 0.5619 0.0
C81 C 0.93346 0.84128 0.48284 0.0
O82 O 0.01925 0.71018 0.40645 0.0
O83 O 0.00734 0.76487 0.44897 0.0
H84 H 0.84405 0.90711 0.99788 0.0
H85 H 0.88531 0.85298 0.97936 0.0
H86 H -0.02068 0.93812 0.97587 0.0
H87 H 0.93739 -0.00876 0.99129 0.0
H88 H -0.0087 0.86695 0.93017 0.0
H89 H 0.95494 0.83378 0.08357 0.0
H90 H 0.92029 0.82459 0.03373 0.0
H91 H 0.92945 0.87377 0.06456 0.0
C92 C 0.87267 0.91392 0.99033 0.0
C93 C 0.88781 0.95321 0.99611 0.0
C94 C 0.89655 0.88292 0.98053 0.0
C95 C 0.9361 0.89118 0.978 0.0
C96 C 0.94907 0.93046 0.97786 0.0
H97 H 0.05968 0.00342 0.10023 0.0
H98 H 0.02276 0.93997 0.08004 0.0
C99 C 0.92514 0.96115 0.98692 0.0
C100 C 0.96675 0.86299 0.98699 0.0
H101 H 0.01996 0.86104 0.08604 0.0
C102 C -0.00217 0.86346 0.96375 0.0
C103 C 0.97521 0.85432 0.02938 0.0
C104 C 0.94322 0.84602 0.05422 0.0
C105 C 0.03665 0.87118 0.986 0.0
C106 C 0.04359 0.87521 0.03167 0.0
C107 C 0.01411 0.8606 0.05148 0.0
C108 C 0.07062 0.90808 0.05776 0.0
C109 C 0.06798 0.88212 0.96142 0.0
C110 C 0.11071 0.91099 0.05528 0.0
C111 C 0.13162 0.9478 0.06611 0.0
C112 C 0.1131 -0.01822 0.08103 0.0
C113 C 0.07474 0.97769 0.08918 0.0
C114 C 0.05367 0.9412 0.07764 0.0
H115 H 0.05773 0.87522 0.92603 0.0
H116 H 0.07633 0.9142 0.9702 0.0
H117 H 0.09451 0.86581 0.96945 0.0
H118 H 0.12481 0.88578 0.04119 0.0
H119 H 0.16095 0.95004 0.05889 0.0
H120 H 0.00467 0.83849 0.45752 0.0
H121 H 0.02932 0.90535 0.47911 0.0
H122 H 0.91522 0.94308 0.43094 0.0
H123 H 0.8899 0.87401 0.41517 0.0
H124 H 0.03903 0.97161 0.49816 0.0
H125 H 0.88848 0.97024 0.5405 0.0
H126 H 0.89744 0.93045 0.50115 0.0
H127 H 0.8963 0.9795 0.48897 0.0
C128 C -0.01499 0.86073 0.44926 0.0
C129 C 0.9444 0.85265 0.44363 0.0
C130 C -0.00081 0.89997 0.46255 0.0
C131 C 0.97216 0.92981 0.46368 0.0
C132 C 0.93522 0.92048 0.43705 0.0
H133 H 0.96671 0.12422 0.61074 0.0
H134 H 0.94559 0.05805 0.61226 0.0
C135 C 0.92109 0.8808 0.42643 0.0
C136 C 0.97835 0.96173 0.50261 0.0
H137 H 0.9397 -0.00711 0.59338 0.0
C138 C 0.0171 0.97679 0.51879 0.0
C139 C 0.94965 0.96937 0.52985 0.0
C140 C 0.9058 0.96171 0.51441 0.0
C141 C 0.02891 -0.00348 0.5613 0.0
C142 C 0.00011 0.0045 0.58853 0.0
C143 C 0.96163 -0.01179 0.5727 0.0
C144 C 0.00514 0.03833 0.62579 0.0
C145 C 0.07263 0.00611 0.57585 0.0
C146 C 0.04274 0.05278 0.64797 0.0
C147 C 0.05521 0.09144 0.64574 0.0
C148 C 0.02846 0.11453 0.62446 0.0
C149 C -0.01146 0.10544 0.6235 0.0
C150 C 0.97644 0.06648 0.6237 0.0
H151 H 0.09012 -0.00652 0.55125 0.0
H152 H 0.07976 0.03829 0.58223 0.0
H153 H 0.08296 -0.00654 0.60521 0.0
H154 H 0.06433 0.03297 0.65855 0.0
H155 H 0.08644 0.09949 0.65157 0.0
H156 H 0.66471 0.04774 0.01331 0.0
H157 H 0.60716 0.07959 0.035 0.0
H158 H 0.55741 0.96711 0.04996 0.0
H159 H 0.61389 0.93509 0.02635 0.0
H160 H 0.53122 0.03154 0.97086 0.0
H161 H 0.52589 0.06551 0.14623 0.0
H162 H 0.57121 0.06865 0.12511 0.0
H163 H 0.549 0.02142 0.12779 0.0
C164 C 0.64261 0.03031 0.02391 0.0
C165 C 0.64343 -0.01089 0.01836 0.0
C166 C 0.60966 0.04848 0.03591 0.0
C167 C 0.57816 0.02556 0.04373 0.0
C168 C 0.58171 -0.01478 0.0443 0.0
H169 H 0.36221 0.95231 0.03261 0.0
H170 H 0.42082 0.97273 0.00632 0.0
C171 C 0.61406 0.96696 0.03119 0.0
C172 C 0.53855 0.0403 0.04027 0.0
H173 H 0.46433 0.05509 0.0978 0.0
C174 C 0.51669 0.03813 0.99862 0.0
C175 C 0.52 0.04874 0.0765 0.0
C176 C 0.54266 0.05153 0.12159 0.0
C177 C 0.47578 0.04027 0.99219 0.0
C178 C 0.45676 0.04525 0.02832 0.0
C179 C 0.47917 0.0515 0.0701 0.0
C180 C 0.41438 0.03514 0.02431 0.0
C181 C 0.45277 0.0341 0.94697 0.0
C182 C 0.38967 0.06357 0.03936 0.0
C183 C 0.35536 0.05178 0.05303 0.0
C184 C 0.34657 0.01167 0.05302 0.0
C185 C 0.36824 -0.01666 0.03228 0.0
C186 C 0.40187 -0.00494 0.01753 0.0
H187 H 0.47157 0.04006 0.92332 0.0
H188 H 0.44061 0.00304 0.93787 0.0
H189 H 0.42774 0.05341 0.94502 0.0
H190 H 0.39908 0.09459 0.04505 0.0
H191 H 0.33921 0.07407 0.0695 0.0
H192 H 0.92505 0.32543 0.56459 0.0
H193 H 0.90225 0.38834 0.5479 0.0
H194 H 0.01873 0.42247 0.52968 0.0
H195 H 0.04173 0.36007 0.54751 0.0
H196 H -0.0167 0.45486 0.61438 0.0
H197 H 0.89632 0.47292 0.45609 0.0
H198 H 0.89232 0.42774 0.47753 0.0
H199 H 0.93577 0.43997 0.45733 0.0
C200 C 0.94498 0.34515 0.55375 0.0
C201 C -0.01487 0.33854 0.55777 0.0
C202 C 0.93198 0.38121 0.5446 0.0
C203 C 0.95907 0.41006 0.53845 0.0
C204 C -0.00249 0.40036 0.53444 0.0
H205 H 0.04294 0.61826 0.54051 0.0
H206 H 0.02665 0.56406 0.57591 0.0
C207 C 0.01057 0.36455 0.54416 0.0
C208 C 0.95173 0.45189 0.54958 0.0
H209 H 0.91974 0.53081 0.50582 0.0
C210 C 0.96863 0.47154 0.59103 0.0
C211 C 0.93171 0.47297 0.51946 0.0
C212 C 0.91276 0.45255 0.47503 0.0
C213 C 0.96932 0.51258 0.60175 0.0
C214 C 0.95276 0.53421 0.57015 0.0
C215 C 0.93225 0.5141 0.53021 0.0
C216 C 0.9652 0.57597 0.57238 0.0
C217 C -0.00984 0.53262 0.64561 0.0
C218 C 0.93704 0.60303 0.56299 0.0
C219 C 0.94672 0.63467 0.54346 0.0
C220 C -0.01578 0.63849 0.53257 0.0
C221 C 0.01389 0.61568 0.54882 0.0
C222 C 0.00449 0.58467 0.56913 0.0
H223 H -0.01206 0.51366 0.67028 0.0
H224 H 0.02181 0.53799 0.64451 0.0
H225 H 0.97796 0.56135 0.65563 0.0
H226 H 0.9066 0.59675 0.56532 0.0
H227 H 0.92338 0.65194 0.53084 0.0
H228 H 0.05814 0.21896 0.42137 0.0
H229 H 0.10412 0.22029 0.37117 0.0
H230 H 0.20139 0.23289 0.47725 0.0
H231 H 0.15497 0.23009 0.52758 0.0
H232 H 0.16774 0.26213 0.35469 0.0
H233 H 0.21153 0.12342 0.41287 0.0
H234 H 0.17084 0.14949 0.42923 0.0
H235 H 0.22048 0.16745 0.45265 0.0
C236 C 0.0893 0.22394 0.43416 0.0
C237 C 0.10315 0.22461 0.47818 0.0
C238 C 0.11561 0.22449 0.40543 0.0
C239 C 0.15621 0.22558 0.42031 0.0
C240 C 0.17013 0.23117 0.46502 0.0
H241 H 0.31179 0.11404 0.25425 0.0
H242 H 0.29285 0.15991 0.31303 0.0
C243 C 0.14368 0.23021 0.49384 0.0
C244 C 0.18247 0.21399 0.38857 0.0
H245 H 0.23473 0.13722 0.35226 0.0
C246 C 0.18306 0.23522 0.35455 0.0
C247 C 0.20216 0.1786 0.38814 0.0
C248 C 0.20111 0.15316 0.4224 0.0
C249 C 0.20165 0.22134 0.31949 0.0
C250 C 0.21979 0.18516 0.31831 0.0
C251 C 0.22098 0.16508 0.35335 0.0
C252 C 0.23403 0.16497 0.27953 0.0
C253 C 0.20094 0.24508 0.28364 0.0
C254 C 0.2076 0.15337 0.24063 0.0
C255 C 0.21834 0.12713 0.20688 0.0
C256 C 0.25557 0.11157 0.21162 0.0
C257 C 0.28279 0.1252 0.24958 0.0
C258 C 0.27207 0.15154 0.28322 0.0
H259 H 0.19862 0.27689 0.29559 0.0
H260 H 0.22767 0.24156 0.26862 0.0
H261 H 0.17485 0.23481 0.25841 0.0
H262 H 0.17779 0.16256 0.23733 0.0
H263 H 0.19659 0.11726 0.17815 0.0
H264 H 0.96571 0.15324 0.68726 0.0
H265 H 0.92126 0.12408 0.72781 0.0
H266 H 0.84729 0.22136 0.71853 0.0
H267 H 0.891 0.24966 0.67611 0.0
H268 H 0.88596 0.19652 0.80978 0.0
H269 H 0.79324 0.08382 0.68531 0.0
H270 H 0.84467 0.09089 0.68241 0.0
H271 H 0.8125 0.12931 0.67287 0.0
C272 C 0.93889 0.16715 0.69175 0.0
C273 C 0.93083 0.20264 0.67693 0.0
C274 C 0.91392 0.15096 0.71565 0.0
C275 C 0.88082 0.17039 0.72563 0.0
C276 C 0.8725 0.20578 0.71069 0.0
H277 H 0.71148 0.06245 0.85555 0.0
H278 H 0.74019 0.10367 0.81125 0.0
C279 C 0.89737 0.22182 0.68652 0.0
C280 C 0.85697 0.15519 0.75466 0.0
H281 H 0.78882 0.0822 0.75807 0.0
C282 C 0.86437 0.17179 0.79856 0.0
C283 C 0.82859 0.12338 0.73967 0.0
C284 C 0.81889 0.1057 0.69246 0.0
C285 C 0.84498 0.15646 0.82831 0.0
C286 C 0.81805 0.12308 0.81376 0.0
C287 C 0.80957 0.10759 0.7694 0.0
C288 C 0.80006 0.10226 0.84396 0.0
C289 C 0.85365 0.17629 0.87492 0.0
C290 C 0.82398 0.08815 0.87754 0.0
C291 C 0.80757 0.06524 0.90336 0.0
C292 C 0.76695 0.05505 0.89545 0.0
C293 C 0.74288 0.06977 0.86239 0.0
C294 C 0.75927 0.09327 0.83702 0.0
H295 H 0.86274 0.20802 0.87786 0.0
H296 H 0.82778 0.17371 0.89103 0.0
H297 H 0.87838 0.16224 0.89223 0.0
H298 H 0.8556 0.09351 0.88279 0.0
H299 H 0.82701 0.05389 0.92812 0.0
H300 H 0.86158 0.77806 0.41119 0.0
H301 H 0.82497 0.80804 0.3546 0.0
H302 H 0.83146 0.70347 0.26186 0.0
H303 H 0.86961 0.67347 0.31844 0.0
H304 H 0.86003 0.76652 0.2373 0.0
H305 H 0.71747 0.80218 0.28485 0.0
H306 H 0.75693 0.82038 0.32832 0.0
H307 H 0.74841 0.76804 0.30947 0.0
C308 C 0.8542 0.76071 0.37911 0.0
C309 C 0.86893 0.72334 0.36939 0.0
C310 C 0.83289 0.77796 0.34666 0.0
C311 C 0.82504 0.75798 0.30388 0.0
C312 C 0.83703 0.71943 0.29466 0.0
H313 H 0.7602 0.8693 0.07389 0.0
H314 H 0.76226 0.81947 0.12108 0.0
C315 C 0.85871 0.7022 0.32712 0.0
C316 C 0.81013 0.77968 0.26844 0.0
H317 H 0.74178 0.84368 0.23834 0.0
C318 C 0.83358 0.78252 0.23688 0.0
C319 C 0.77577 0.80088 0.26798 0.0
C320 C 0.74805 0.79737 0.29927 0.0
C321 C 0.82483 0.80753 0.20647 0.0
C322 C 0.79166 0.83018 0.20746 0.0
C323 C 0.76725 0.82628 0.23779 0.0
C324 C 0.78436 0.86058 0.17968 0.0
C325 C 0.85223 0.8112 0.17483 0.0
C326 C 0.795 0.90024 0.1973 0.0
C327 C 0.79419 0.92863 0.17053 0.0
C328 C 0.78238 0.91793 0.12561 0.0
C329 C 0.76938 0.87851 0.10834 0.0
C330 C 0.7706 0.84999 0.13519 0.0
H331 H 0.87857 0.79403 0.18068 0.0
H332 H 0.8364 0.80041 0.14153 0.0
H333 H 0.86203 0.84261 0.17682 0.0
H334 H 0.8057 0.90894 0.23158 0.0
H335 H 0.80404 0.95878 0.18489 0.0
H336 H 0.06652 0.86293 0.61751 0.0
H337 H 0.1135 0.87511 0.68494 0.0
H338 H 0.09289 0.75477 0.70162 0.0
H339 H 0.04582 0.7423 0.63319 0.0
H340 H 0.07861 0.81139 0.76998 0.0
H341 H 0.22423 0.84579 0.73069 0.0
H342 H 0.1868 0.87102 0.70203 0.0
H343 H 0.18504 0.81795 0.6916 0.0
C344 C 0.07316 0.83866 0.63472 0.0
C345 C 0.05292 0.80163 0.62008 0.0
C346 C 0.10013 0.84558 0.67319 0.0
C347 C 0.10715 0.81573 0.69812 0.0
C348 C 0.08833 0.77804 0.68256 0.0
H349 H 0.19796 0.89908 0.97686 0.0
H350 H 0.18384 0.84996 0.91004 0.0
C351 C 0.06168 0.77088 0.64344 0.0
C352 C 0.12911 0.82635 0.74291 0.0
H353 H 0.21186 0.87905 0.80037 0.0
C354 C 0.1083 0.82494 0.77697 0.0
C355 C 0.16777 0.84409 0.75192 0.0
C356 C 0.19238 0.84445 0.7171 0.0
C357 C 0.1237 0.84412 0.81908 0.0
C358 C 0.16107 0.86473 0.82732 0.0
C359 C 0.18316 0.86335 0.79397 0.0
C360 C 0.17448 0.89319 0.86777 0.0
C361 C 0.09844 0.84538 0.85353 0.0
C362 C 0.17516 0.93357 0.86594 0.0
C363 C 0.18309 0.9614 0.90368 0.0
C364 C 0.19091 0.94951 0.94419 0.0
C365 C 0.19228 0.90906 0.94605 0.0
C366 C 0.18393 0.88103 0.90801 0.0
H367 H 0.06888 0.83024 0.84102 0.0
H368 H 0.11304 0.83099 0.88007 0.0
H369 H 0.0948 0.87648 0.86727 0.0
H370 H 0.16798 0.94359 0.83525 0.0
H371 H 0.18209 -0.00765 0.90119 0.0
H372 H 0.72856 0.82668 0.87991 0.0
H373 H 0.75575 0.78463 0.8241 0.0
H374 H 0.86079 0.86235 0.8511 0.0
H375 H 0.83298 0.90531 0.90581 0.0
H376 H 0.82529 0.8532 0.7681 0.0
H377 H 0.83964 0.70565 0.81438 0.0
H378 H 0.79232 0.72432 0.81817 0.0
H379 H 0.83542 0.74935 0.85277 0.0
C380 C 0.75802 0.83408 0.87494 0.0
C381 C 0.77891 0.86901 0.89779 0.0
C382 C 0.77366 0.80984 0.84318 0.0
C383 C 0.81056 0.81996 0.83369 0.0
C384 C 0.83246 0.85364 0.85823 0.0
H385 H 0.93046 0.71927 0.62837 0.0
H386 H 0.90736 0.72784 0.69765 0.0
C387 C 0.81678 0.87795 0.88997 0.0
C388 C 0.82319 0.79935 0.79399 0.0
H389 H 0.83922 0.70892 0.73957 0.0
C390 C 0.82875 0.82172 0.76216 0.0
C391 C 0.82769 0.75825 0.78613 0.0
C392 C 0.82384 0.73302 0.81984 0.0
C393 C 0.83783 0.80417 0.72248 0.0
C394 C 0.84065 0.76282 0.71381 0.0
C395 C 0.83625 0.74044 0.74598 0.0
C396 C 0.84933 0.74338 0.67164 0.0
C397 C 0.84444 0.83023 0.69015 0.0
C398 C 0.82315 0.74555 0.63361 0.0
C399 C 0.83635 0.74077 0.59407 0.0
C400 C 0.87573 0.73329 0.59206 0.0
C401 C 0.89981 0.72451 0.6289 0.0
C402 C 0.88678 0.72992 0.66869 0.0
H403 H 0.85018 0.86171 0.70544 0.0
H404 H 0.86961 0.82099 0.67414 0.0
H405 H 0.81779 0.82781 0.66493 0.0
H406 H 0.79392 0.75535 0.63516 0.0
H407 H 0.81734 0.7481 0.56627 0.0
H408 H 0.15209 0.93788 0.14824 0.0
H409 H 0.11767 0.90269 0.19325 0.0
H410 H 0.22901 0.87594 0.262 0.0
H411 H 0.26314 0.90775 0.21487 0.0
H412 H 0.18191 0.8164 0.25306 0.0
H413 H 0.10278 0.94539 0.3118 0.0
H414 H 0.09028 0.93061 0.25448 0.0
H415 H 0.13983 0.94875 0.27862 0.0
C416 C 0.16917 0.92345 0.17189 0.0
C417 C 0.21044 0.92553 0.17734 0.0
C418 C 0.14946 0.9041 0.1985 0.0
C419 C 0.17069 0.88764 0.23214 0.0
C420 C 0.21179 0.88856 0.23661 0.0
H421 H 0.06857 0.81848 0.4479 0.0
H422 H 0.10626 0.85434 0.4053 0.0
C423 C 0.23134 0.9069 0.20943 0.0
C424 C 0.15065 0.8692 0.26275 0.0
H425 H 0.08372 0.88408 0.33085 0.0
C426 C 0.16066 0.83145 0.2702 0.0
C427 C 0.12356 0.88901 0.28618 0.0
C428 C 0.1138 0.93083 0.28276 0.0
C429 C 0.14384 0.8127 0.29941 0.0
C430 C 0.11489 0.8314 0.32063 0.0
C431 C 0.10558 0.86955 0.31423 0.0
C432 C 0.09223 0.81061 0.34711 0.0
C433 C 0.15772 0.77313 0.30758 0.0
C434 C 0.07137 0.77466 0.32844 0.0
C435 C 0.05026 0.75429 0.35254 0.0
C436 C 0.04869 0.76963 0.39585 0.0
C437 C 0.06894 0.80608 0.41455 0.0
C438 C 0.09055 0.82647 0.39029 0.0
H439 H 0.18824 0.7696 0.30149 0.0
H440 H 0.15673 0.76908 0.34123 0.0
H441 H 0.13848 0.74942 0.28527 0.0
H442 H 0.07115 0.76236 0.29491 0.0
H443 H 0.03444 0.72666 0.33678 0.0
H444 H 0.1129 0.16911 0.6651 0.0
H445 H 0.1538 0.14326 0.72337 0.0
H446 H 0.17906 0.26103 0.7954 0.0
H447 H 0.13816 0.28711 0.73779 0.0
H448 H 0.24181 0.17529 0.78454 0.0
H449 H 0.10406 0.18412 0.85415 0.0
H450 H 0.10359 0.17782 0.79675 0.0
H451 H 0.11851 0.22485 0.82991 0.0
C452 C 0.12815 0.18964 0.6927 0.0
C453 C 0.1217 0.23011 0.69712 0.0
C454 C 0.15161 0.1748 0.72589 0.0
C455 C 0.16924 0.20029 0.76362 0.0
C456 C 0.16575 0.24097 0.76639 0.0
H457 H 0.225 0.17531 0.02798 0.0
H458 H 0.21985 0.20143 0.96059 0.0
C459 C 0.14223 0.25578 0.73345 0.0
C460 C 0.18524 0.18447 0.80288 0.0
H461 H 0.1604 0.16779 0.89777 0.0
C462 C 0.22417 0.17344 0.80938 0.0
C463 C 0.16192 0.18195 0.83487 0.0
C464 C 0.1196 0.19255 0.8288 0.0
C465 C 0.24075 0.16097 0.84801 0.0
C466 C 0.21759 0.15941 0.88051 0.0
C467 C 0.17839 0.16961 0.87322 0.0
C468 C 0.2324 0.14698 0.92245 0.0
C469 C 0.28302 0.15051 0.85413 0.0
C470 C 0.24367 0.10843 0.92403 0.0
C471 C 0.24756 0.09373 0.96289 0.0
C472 C 0.23932 0.1171 1.00048 0.0
C473 C 0.23165 0.15672 0.9996 0.0
C474 C 0.22846 0.17156 0.96101 0.0
H475 H 0.29947 0.16295 0.83169 0.0
H476 H 0.29808 0.16129 0.88778 0.0
H477 H 0.28401 0.11797 0.84757 0.0
H478 H 0.24618 0.08863 0.89469 0.0
H479 H 0.25292 0.06288 0.96235 0.0
H480 H 0.79227 0.1448 0.10262 0.0
H481 H 0.80447 0.17729 0.17809 0.0
H482 H 0.75948 0.07215 0.21555 0.0
H483 H 0.74622 0.03982 0.13993 0.0
H484 H 0.74843 0.14707 0.27159 0.0
H485 H 0.90138 0.12918 0.24194 0.0
H486 H 0.87224 0.15672 0.20666 0.0
H487 H 0.85916 0.10538 0.20448 0.0
C488 C 0.783 0.12935 0.12665 0.0
C489 C 0.76845 0.08972 0.11532 0.0
C490 C 0.79034 0.14782 0.16985 0.0
C491 C 0.78384 0.12678 0.2025 0.0
C492 C 0.76486 0.08888 0.19087 0.0
H493 H 0.88843 0.12262 0.46144 0.0
H494 H 0.84085 0.11799 0.39464 0.0
C495 C 0.75699 0.07051 0.14749 0.0
C496 C 0.80311 0.14129 0.24787 0.0
H497 H 0.89387 0.15941 0.31126 0.0
C498 C 0.7802 0.15007 0.28029 0.0
C499 C 0.84463 0.14466 0.25928 0.0
C500 C 0.87091 0.13318 0.22645 0.0
C501 C 0.79787 0.16237 0.3238 0.0
C502 C 0.83932 0.16581 0.33496 0.0
C503 C 0.86208 0.15743 0.30248 0.0
C504 C 0.86024 0.17401 0.38035 0.0
C505 C 0.77232 0.1715 0.35765 0.0
C506 C 0.8861 0.20771 0.39529 0.0
C507 C 0.91291 0.21075 0.43402 0.0
C508 C 0.91481 0.17966 0.4577 0.0
C509 C 0.88721 0.1472 0.44405 0.0
C510 C 0.85998 0.14454 0.4059 0.0
H511 H 0.74144 0.17509 0.34316 0.0
H512 H 0.77245 0.14701 0.37637 0.0
H513 H 0.78403 0.19882 0.38052 0.0
H514 H 0.88717 0.23049 0.37568 0.0
H515 H 0.93438 0.23567 0.44332 0.0
loop_
_geom_bond_atom_site_label_1
_geom_bond_atom_site_label_2
_geom_bond_distance
_geom_bond_site_symmetry_2
_ccdc_geom_bond_type
O0 Mg1 1.990 . S
O0 C14 1.253 . S
Mg1 O0 1.990 . S
Mg1 O4 2.180 1_556 S
Mg1 O5 2.117 1_556 S
Mg1 O19 2.030 1_545 S
O2 Mg3 2.072 . S
O2 C14 1.260 1_554 S
Mg3 O2 2.072 . S
Mg3 O4 2.099 . S
Mg3 O6 2.079 1_545 S
Mg3 O7 2.072 . S
Mg3 O9 2.099 . S
Mg3 O20 2.079 1_545 S
O4 Mg1 2.180 1_554 S
O4 Mg3 2.099 . S
O4 C15 1.279 . S
O5 Mg1 2.117 1_554 S
O5 C15 1.250 . S
O6 Mg3 2.079 1_565 S
O6 C16 1.264 . S
O7 Mg3 2.072 . S
O7 C17 1.260 . S
Mg8 O9 2.180 . S
Mg8 O10 2.030 1_545 S
Mg8 O11 1.990 . S
Mg8 O12 2.117 . S
O9 Mg3 2.099 . S
O9 Mg8 2.180 . S
O9 C18 1.279 . S
O10 Mg8 2.030 1_565 S
O10 C16 1.248 . S
O11 Mg8 1.990 . S
O11 C17 1.253 . S
O12 Mg8 2.117 . S
O12 C18 1.250 . S
C13 O19 1.248 . S
C13 O20 1.264 1_556 S
C14 O0 1.253 . S
C14 O2 1.260 1_556 S
C15 O4 1.279 . S
C15 O5 1.250 . S
C16 O6 1.264 . S
C16 O10 1.248 . S
C17 O7 1.260 . S
C17 O11 1.253 . S
C18 O9 1.279 . S
C18 O12 1.250 . S
O19 Mg1 2.030 1_565 S
O19 C13 1.248 . S
O20 Mg3 2.079 1_565 S
O20 C13 1.264 1_554 S
O21 Mg22 1.990 1_655 S
O21 C35 1.253 . S
Mg22 O21 1.990 1_455 S
Mg22 O25 2.180 . S
Mg22 O26 2.123 . S
Mg22 O40 2.030 . S
O23 Mg24 2.072 1_655 S
O23 C35 1.260 . S
Mg24 O23 2.072 1_455 S
Mg24 O25 2.099 . S
Mg24 O27 2.079 . S
Mg24 O28 2.072 1_455 S
Mg24 O30 2.099 . S
Mg24 O41 2.079 . S
O25 Mg22 2.180 . S
O25 Mg24 2.099 . S
O25 C36 1.279 . S
O26 Mg22 2.123 . S
O26 C36 1.260 . S
O27 Mg24 2.079 . S
O27 C37 1.264 . S
O28 Mg24 2.072 1_655 S
O28 C38 1.260 . S
Mg29 O30 2.180 . S
Mg29 O31 2.030 . S
Mg29 O32 1.990 1_455 S
Mg29 O33 2.117 1_455 S
O30 Mg24 2.099 . S
O30 Mg29 2.180 . S
O30 C39 1.279 . S
O31 Mg29 2.030 . S
O31 C37 1.248 . S
O32 Mg29 1.990 1_655 S
O32 C38 1.253 . S
O33 Mg29 2.117 1_655 S
O33 C39 1.250 1_655 S
C34 O40 1.248 . S
C34 O41 1.264 . S
C35 O21 1.253 . S
C35 O23 1.260 . S
C36 O25 1.279 . S
C36 O26 1.260 . S
C37 O27 1.264 . S
C37 O31 1.248 . S
C38 O28 1.260 . S
C38 O32 1.253 . S
C39 O30 1.279 . S
C39 O33 1.250 1_455 S
O40 Mg22 2.030 . S
O40 C34 1.248 . S
O41 Mg24 2.079 . S
O41 C34 1.264 . S
O42 Mg43 1.990 1_545 S
O42 C56 1.253 . S
Mg43 O42 1.990 1_565 S
Mg43 O46 2.180 . S
Mg43 O47 2.117 1_565 S
Mg43 O61 2.030 . S
O44 Mg45 2.072 1_546 S
O44 C56 1.260 . S
Mg45 O44 2.072 1_564 S
Mg45 O46 2.099 1_554 S
Mg45 O48 2.079 . S
Mg45 O49 2.072 1_565 S
Mg45 O51 2.099 . S
Mg45 O62 2.079 1_554 S
O46 Mg43 2.180 . S
O46 Mg45 2.099 1_556 S
O46 C57 1.279 1_565 S
O47 Mg43 2.117 1_545 S
O47 C57 1.250 . S
O48 Mg45 2.079 . S
O48 C58 1.264 . S
O49 Mg45 2.072 1_545 S
O49 C59 1.260 . S
Mg50 O51 2.181 1_545 S
Mg50 O52 2.020 1_545 S
Mg50 O53 2.003 . S
Mg50 O54 2.124 . S
O51 Mg45 2.099 . S
O51 Mg50 2.181 1_565 S
O51 C60 1.279 1_565 S
O52 Mg50 2.020 1_565 S
O52 C58 1.248 . S
O53 Mg50 2.003 . S
O53 C59 1.253 . S
O54 Mg50 2.124 . S
O54 C60 1.250 . S
C55 O61 1.248 . S
C55 O62 1.264 . S
C56 O42 1.253 . S
C56 O44 1.260 . S
C57 O46 1.279 1_545 S
C57 O47 1.250 . S
C58 O48 1.264 . S
C58 O52 1.248 . S
C59 O49 1.260 . S
C59 O53 1.253 . S
C60 O51 1.279 1_545 S
C60 O54 1.250 . S
O61 Mg43 2.030 . S
O61 C55 1.248 . S
O62 Mg45 2.079 1_556 S
O62 C55 1.264 . S
O63 Mg64 1.990 1_655 S
O63 C77 1.253 . S
Mg64 O63 1.990 1_455 S
Mg64 O67 2.180 . S
Mg64 O68 2.117 1_455 S
Mg64 O82 2.030 . S
O65 Mg66 2.072 1_655 S
O65 C77 1.260 . S
Mg66 O65 2.072 1_455 S
Mg66 O67 2.099 . S
Mg66 O69 2.079 . S
Mg66 O70 2.072 1_455 S
Mg66 O72 2.099 . S
Mg66 O83 2.079 . S
O67 Mg64 2.180 . S
O67 Mg66 2.099 . S
O67 C78 1.279 1_455 S
O68 Mg64 2.117 1_655 S
O68 C78 1.250 . S
O69 Mg66 2.079 . S
O69 C79 1.264 . S
O70 Mg66 2.072 1_655 S
O70 C80 1.260 . S
Mg71 O72 2.180 . S
Mg71 O73 2.030 . S
Mg71 O74 1.990 1_455 S
Mg71 O75 2.117 1_455 S
O72 Mg66 2.099 . S
O72 Mg71 2.180 . S
O72 C81 1.279 1_455 S
O73 Mg71 2.030 . S
O73 C79 1.248 . S
O74 Mg71 1.990 1_655 S
O74 C80 1.253 . S
O75 Mg71 2.117 1_655 S
O75 C81 1.250 . S
C76 O82 1.248 . S
C76 O83 1.264 . S
C77 O63 1.253 . S
C77 O65 1.260 . S
C78 O67 1.279 1_655 S
C78 O68 1.250 . S
C79 O69 1.264 . S
C79 O73 1.248 . S
C80 O70 1.260 . S
C80 O74 1.253 . S
C81 O72 1.279 1_655 S
C81 O75 1.250 . S
O82 Mg64 2.030 . S
O82 C76 1.248 . S
O83 Mg66 2.079 . S
O83 C76 1.264 . S
H84 C92 0.929 . S
H85 C94 0.930 . S
H86 C96 0.930 . S
H87 C99 0.929 . S
H88 C102 0.930 . S
H89 C104 0.960 . S
H90 C104 0.960 . S
H91 C104 0.960 1_545 S
C92 H84 0.929 . S
C92 C93 1.377 1_565 S
C92 C94 1.384 . S
C93 C92 1.377 1_545 S
C93 C99 1.390 1_556 S
C94 H85 0.930 . S
C94 C92 1.384 . S
C94 C95 1.372 1_566 S
C95 C94 1.372 1_544 S
C95 C96 1.400 . S
C95 C100 1.490 . S
C96 H86 0.930 . S
C96 C95 1.400 . S
C96 C99 1.386 . S
H97 C113 0.930 . S
H98 C114 0.931 . S
C99 H87 0.929 . S
C99 C93 1.390 1_554 S
C99 C96 1.386 . S
C100 C95 1.490 . S
C100 C102 1.395 1_554 S
C100 C103 1.403 . S
H101 C107 0.930 . S
C102 H88 0.930 . S
C102 C100 1.395 1_556 S
C102 C105 1.403 1_656 S
C103 C100 1.403 . S
C103 C104 1.524 1_545 S
C103 C107 1.400 1_655 S
C104 H89 0.960 . S
C104 H90 0.960 . S
C104 H91 0.960 1_565 S
C104 C103 1.524 1_565 S
C105 C102 1.403 1_454 S
C105 C106 1.392 . S
C105 C109 1.495 1_554 S
C106 C105 1.392 . S
C106 C107 1.385 . S
C106 C108 1.478 . S
C107 H101 0.930 . S
C107 C103 1.400 1_455 S
C107 C106 1.385 . S
C108 C106 1.478 . S
C108 C110 1.381 . S
C108 C114 1.383 . S
C109 C105 1.495 1_556 S
C109 H115 0.959 . S
C109 H116 0.961 . S
C109 H117 0.960 . S
C110 C108 1.381 . S
C110 C111 1.394 . S
C110 H118 0.930 1_545 S
C111 C110 1.394 . S
C111 C112 1.383 . S
C111 H119 0.929 1_545 S
C112 C111 1.383 . S
C112 C113 1.377 . S
C113 H97 0.930 . S
C113 C112 1.377 . S
C113 C114 1.379 . S
C114 H98 0.931 . S
C114 C108 1.383 . S
C114 C113 1.379 . S
H115 C109 0.959 . S
H116 C109 0.961 . S
H117 C109 0.960 . S
H118 C110 0.930 1_565 S
H119 C111 0.929 1_565 S
H120 C128 0.929 . S
H121 C130 0.930 . S
H122 C132 0.930 . S
H123 C135 0.929 . S
H124 C138 0.930 . S
H125 C140 0.960 . S
H126 C140 0.960 . S
H127 C140 0.960 . S
C128 H120 0.929 . S
C128 C129 1.377 1_455 S
C128 C130 1.384 . S
C129 C128 1.377 1_655 S
C129 C135 1.390 . S
C130 H121 0.930 . S
C130 C128 1.384 . S
C130 C131 1.372 1_455 S
C131 C130 1.372 1_655 S
C131 C132 1.400 . S
C131 C136 1.490 1_655 S
C132 H122 0.930 . S
C132 C131 1.400 . S
C132 C135 1.386 . S
H133 C149 0.930 . S
H134 C150 0.931 . S
C135 H123 0.929 . S
C135 C129 1.390 . S
C135 C132 1.386 . S
C136 C131 1.490 1_455 S
C136 C138 1.395 . S
C136 C139 1.403 1_455 S
H137 C143 0.930 . S
C138 H124 0.930 . S
C138 C136 1.395 . S
C138 C141 1.403 1_565 S
C139 C136 1.403 1_655 S
C139 C140 1.524 . S
C139 C143 1.400 1_565 S
C140 H125 0.960 . S
C140 H126 0.960 . S
C140 H127 0.960 . S
C140 C139 1.524 . S
C141 C138 1.403 1_545 S
C141 C142 1.392 . S
C141 C145 1.495 . S
C142 C141 1.392 . S
C142 C143 1.385 1_455 S
C142 C144 1.478 . S
C143 H137 0.930 . S
C143 C139 1.400 1_545 S
C143 C142 1.385 1_655 S
C144 C142 1.478 . S
C144 C146 1.381 . S
C144 C150 1.383 1_455 S
C145 C141 1.495 . S
C145 H151 0.959 . S
C145 H152 0.961 . S
C145 H153 0.960 . S
C146 C144 1.381 . S
C146 C147 1.394 . S
C146 H154 0.930 . S
C147 C146 1.394 . S
C147 C148 1.383 . S
C147 H155 0.929 . S
C148 C147 1.383 . S
C148 C149 1.377 1_455 S
C149 H133 0.930 . S
C149 C148 1.377 1_655 S
C149 C150 1.379 . S
C150 H134 0.931 . S
C150 C144 1.383 1_655 S
C150 C149 1.379 . S
H151 C145 0.959 . S
H152 C145 0.961 . S
H153 C145 0.960 . S
H154 C146 0.930 . S
H155 C147 0.929 . S
H156 C164 0.929 1_556 S
H157 C166 0.923 1_556 S
H158 C168 0.930 . S
H159 C171 0.929 . S
H160 C174 0.930 . S
H161 C176 0.960 . S
H162 C176 0.960 . S
H163 C176 0.983 . S
C164 H156 0.929 1_554 S
C164 C165 1.377 . S
C164 C166 1.384 . S
C165 C164 1.377 . S
C165 C171 1.390 1_545 S
C166 H157 0.923 1_554 S
C166 C164 1.384 . S
C166 C167 1.372 . S
C167 C166 1.372 . S
C167 C168 1.400 1_545 S
C167 C172 1.490 . S
C168 H158 0.930 . S
C168 C167 1.400 1_565 S
C168 C171 1.386 . S
H169 C185 0.930 . S
H170 C186 0.931 . S
C171 H159 0.929 . S
C171 C165 1.390 1_565 S
C171 C168 1.386 . S
C172 C167 1.490 . S
C172 C174 1.395 1_554 S
C172 C175 1.403 . S
H173 C179 0.930 . S
C174 H160 0.930 . S
C174 C172 1.395 1_556 S
C174 C177 1.403 . S
C175 C172 1.403 . S
C175 C176 1.524 . S
C175 C179 1.400 . S
C176 H161 0.960 . S
C176 H162 0.960 . S
C176 H163 0.983 . S
C176 C175 1.524 . S
C177 C174 1.403 . S
C177 C178 1.392 1_556 S
C177 C181 1.495 . S
C178 C177 1.392 1_554 S
C178 C179 1.385 . S
C178 C180 1.478 . S
C179 H173 0.930 . S
C179 C175 1.400 . S
C179 C178 1.385 . S
C180 C178 1.478 . S
C180 C182 1.381 . S
C180 C186 1.383 1_545 S
C181 C177 1.495 . S
C181 H187 0.959 . S
C181 H188 0.961 1_545 S
C181 H189 0.960 . S
C182 C180 1.381 . S
C182 C183 1.394 . S
C182 H190 0.930 . S
C183 C182 1.394 . S
C183 C184 1.383 . S
C183 H191 0.929 . S
C184 C183 1.383 . S
C184 C185 1.377 1_545 S
C185 H169 0.930 . S
C185 C184 1.377 1_565 S
C185 C186 1.379 . S
C186 H170 0.931 . S
C186 C180 1.383 1_565 S
C186 C185 1.379 . S
H187 C181 0.959 . S
H188 C181 0.961 1_565 S
H189 C181 0.960 . S
H190 C182 0.930 . S
H191 C183 0.929 . S
H192 C200 0.929 . S
H193 C202 0.930 . S
H194 C204 0.930 . S
H195 C207 0.929 . S
H196 C210 0.930 . S
H197 C212 0.960 . S
H198 C212 0.960 . S
H199 C212 0.960 . S
C200 H192 0.929 . S
C200 C201 1.377 1_655 S
C200 C202 1.384 . S
C201 C200 1.377 1_455 S
C201 C207 1.390 . S
C202 H193 0.930 . S
C202 C200 1.384 . S
C202 C203 1.372 1_655 S
C203 C202 1.372 1_455 S
C203 C204 1.400 . S
C203 C208 1.490 . S
C204 H194 0.930 . S
C204 C203 1.400 . S
C204 C207 1.386 . S
H205 C221 0.930 . S
H206 C222 0.931 . S
C207 H195 0.929 . S
C207 C201 1.390 . S
C207 C204 1.386 . S
C208 C203 1.490 . S
C208 C210 1.395 . S
C208 C211 1.403 1_455 S
H209 C215 0.930 . S
C210 H196 0.930 . S
C210 C208 1.395 . S
C210 C213 1.403 . S
C211 C208 1.403 1_655 S
C211 C212 1.524 . S
C211 C215 1.400 . S
C212 H197 0.960 . S
C212 H198 0.960 . S
C212 H199 0.960 . S
C212 C211 1.524 . S
C213 C210 1.403 . S
C213 C214 1.392 . S
C213 C217 1.495 . S
C214 C213 1.392 . S
C214 C215 1.385 1_455 S
C214 C216 1.478 . S
C215 H209 0.930 . S
C215 C211 1.400 . S
C215 C214 1.385 1_655 S
C216 C214 1.478 . S
C216 C218 1.381 1_455 S
C216 C222 1.383 . S
C217 C213 1.495 . S
C217 H223 0.959 . S
C217 H224 0.961 . S
C217 H225 0.960 . S
C218 C216 1.381 1_655 S
C218 C219 1.394 . S
C218 H226 0.930 . S
C219 C218 1.394 . S
C219 C220 1.383 . S
C219 H227 0.929 . S
C220 C219 1.383 . S
C220 C221 1.377 1_655 S
C221 H205 0.930 . S
C221 C220 1.377 1_455 S
C221 C222 1.379 . S
C222 H206 0.931 . S
C222 C216 1.383 . S
C222 C221 1.379 . S
H223 C217 0.959 . S
H224 C217 0.961 . S
H225 C217 0.960 . S
H226 C218 0.930 . S
H227 C219 0.929 . S
H228 C236 0.929 . S
H229 C238 0.930 . S
H230 C240 0.930 . S
H231 C243 0.929 . S
H232 C246 0.930 . S
H233 C248 0.960 . S
H234 C248 0.960 . S
H235 C248 0.960 . S
C236 H228 0.929 . S
C236 C237 1.377 . S
C236 C238 1.384 . S
C237 C236 1.377 . S
C237 C243 1.390 . S
C238 H229 0.930 . S
C238 C236 1.384 . S
C238 C239 1.372 . S
C239 C238 1.372 . S
C239 C240 1.400 . S
C239 C244 1.490 . S
C240 H230 0.930 . S
C240 C239 1.400 . S
C240 C243 1.386 . S
H241 C257 0.930 . S
H242 C258 0.931 . S
C243 H231 0.929 . S
C243 C237 1.390 . S
C243 C240 1.386 . S
C244 C239 1.490 . S
C244 C246 1.395 . S
C244 C247 1.403 . S
H245 C251 0.930 . S
C246 H232 0.930 . S
C246 C244 1.395 . S
C246 C249 1.403 . S
C247 C244 1.403 . S
C247 C248 1.524 . S
C247 C251 1.400 . S
C248 H233 0.960 . S
C248 H234 0.960 . S
C248 H235 0.960 . S
C248 C247 1.524 . S
C249 C246 1.403 . S
C249 C250 1.392 . S
C249 C253 1.495 . S
C250 C249 1.392 . S
C250 C251 1.385 . S
C250 C252 1.478 . S
C251 H245 0.930 . S
C251 C247 1.400 . S
C251 C250 1.385 . S
C252 C250 1.478 . S
C252 C254 1.381 . S
C252 C258 1.383 . S
C253 C249 1.495 . S
C253 H259 0.959 . S
C253 H260 0.961 . S
C253 H261 0.960 . S
C254 C252 1.381 . S
C254 C255 1.394 . S
C254 H262 0.930 . S
C255 C254 1.394 . S
C255 C256 1.383 . S
C255 H263 0.929 . S
C256 C255 1.383 . S
C256 C257 1.377 . S
C257 H241 0.930 . S
C257 C256 1.377 . S
C257 C258 1.379 . S
C258 H242 0.931 . S
C258 C252 1.383 . S
C258 C257 1.379 . S
H259 C253 0.959 . S
H260 C253 0.961 . S
H261 C253 0.960 . S
H262 C254 0.930 . S
H263 C255 0.929 . S
H264 C272 0.929 . S
H265 C274 0.930 . S
H266 C276 0.930 . S
H267 C279 0.929 . S
H268 C282 0.930 . S
H269 C284 0.960 . S
H270 C284 0.960 . S
H271 C284 0.960 . S
C272 H264 0.929 . S
C272 C273 1.377 . S
C272 C274 1.384 . S
C273 C272 1.377 . S
C273 C279 1.390 . S
C274 H265 0.930 . S
C274 C272 1.384 . S
C274 C275 1.372 . S
C275 C274 1.372 . S
C275 C276 1.400 . S
C275 C280 1.490 . S
C276 H266 0.930 . S
C276 C275 1.400 . S
C276 C279 1.386 . S
H277 C293 0.930 . S
H278 C294 0.931 . S
C279 H267 0.929 . S
C279 C273 1.390 . S
C279 C276 1.386 . S
C280 C275 1.490 . S
C280 C282 1.395 . S
C280 C283 1.403 . S
H281 C287 0.930 . S
C282 H268 0.930 . S
C282 C280 1.395 . S
C282 C285 1.403 . S
C283 C280 1.403 . S
C283 C284 1.524 . S
C283 C287 1.400 . S
C284 H269 0.960 . S
C284 H270 0.960 . S
C284 H271 0.960 . S
C284 C283 1.524 . S
C285 C282 1.403 . S
C285 C286 1.392 . S
C285 C289 1.495 . S
C286 C285 1.392 . S
C286 C287 1.385 . S
C286 C288 1.478 . S
C287 H281 0.930 . S
C287 C283 1.400 . S
C287 C286 1.385 . S
C288 C286 1.478 . S
C288 C290 1.381 . S
C288 C294 1.383 . S
C289 C285 1.495 . S
C289 H295 0.959 . S
C289 H296 0.961 . S
C289 H297 0.960 . S
C290 C288 1.381 . S
C290 C291 1.394 . S
C290 H298 0.930 . S
C291 C290 1.394 . S
C291 C292 1.383 . S
C291 H299 0.929 . S
C292 C291 1.383 . S
C292 C293 1.377 . S
C293 H277 0.930 . S
C293 C292 1.377 . S
C293 C294 1.379 . S
C294 H278 0.931 . S
C294 C288 1.383 . S
C294 C293 1.379 . S
H295 C289 0.959 . S
H296 C289 0.961 . S
H297 C289 0.960 . S
H298 C290 0.930 . S
H299 C291 0.929 . S
H300 C308 0.929 . S
H301 C310 0.930 . S
H302 C312 0.930 . S
H303 C315 0.929 . S
H304 C318 0.930 . S
H305 C320 0.960 . S
H306 C320 0.960 . S
H307 C320 0.960 . S
C308 H300 0.929 . S
C308 C309 1.377 . S
C308 C310 1.384 . S
C309 C308 1.377 . S
C309 C315 1.390 . S
C310 H301 0.930 . S
C310 C308 1.384 . S
C310 C311 1.372 . S
C311 C310 1.372 . S
C311 C312 1.400 . S
C311 C316 1.490 . S
C312 H302 0.930 . S
C312 C311 1.400 . S
C312 C315 1.386 . S
H313 C329 0.930 . S
H314 C330 0.931 . S
C315 H303 0.929 . S
C315 C309 1.390 . S
C315 C312 1.386 . S
C316 C311 1.490 . S
C316 C318 1.395 . S
C316 C319 1.403 . S
H317 C323 0.930 . S
C318 H304 0.930 . S
C318 C316 1.395 . S
C318 C321 1.403 . S
C319 C316 1.403 . S
C319 C320 1.524 . S
C319 C323 1.400 . S
C320 H305 0.960 . S
C320 H306 0.960 . S
C320 H307 0.960 . S
C320 C319 1.524 . S
C321 C318 1.403 . S
C321 C322 1.392 . S
C321 C325 1.495 . S
C322 C321 1.392 . S
C322 C323 1.385 . S
C322 C324 1.478 . S
C323 H317 0.930 . S
C323 C319 1.400 . S
C323 C322 1.385 . S
C324 C322 1.478 . S
C324 C326 1.381 . S
C324 C330 1.383 . S
C325 C321 1.495 . S
C325 H331 0.959 . S
C325 H332 0.961 . S
C325 H333 0.960 . S
C326 C324 1.381 . S
C326 C327 1.394 . S
C326 H334 0.930 . S
C327 C326 1.394 . S
C327 C328 1.383 . S
C327 H335 0.929 . S
C328 C327 1.383 . S
C328 C329 1.377 . S
C329 H313 0.930 . S
C329 C328 1.377 . S
C329 C330 1.379 . S
C330 H314 0.931 . S
C330 C324 1.383 . S
C330 C329 1.379 . S
H331 C325 0.959 . S
H332 C325 0.961 . S
H333 C325 0.960 . S
H334 C326 0.930 . S
H335 C327 0.929 . S
H336 C344 0.929 . S
H337 C346 0.930 . S
H338 C348 0.930 . S
H339 C351 0.929 . S
H340 C354 0.930 . S
H341 C356 0.960 . S
H342 C356 0.960 . S
H343 C356 0.960 . S
C344 H336 0.929 . S
C344 C345 1.377 . S
C344 C346 1.384 . S
C345 C344 1.377 . S
C345 C351 1.390 . S
C346 H337 0.930 . S
C346 C344 1.384 . S
C346 C347 1.372 . S
C347 C346 1.372 . S
C347 C348 1.400 . S
C347 C352 1.490 . S
C348 H338 0.930 . S
C348 C347 1.400 . S
C348 C351 1.386 . S
H349 C365 0.930 . S
H350 C366 0.931 . S
C351 H339 0.929 . S
C351 C345 1.390 . S
C351 C348 1.386 . S
C352 C347 1.490 . S
C352 C354 1.395 . S
C352 C355 1.403 . S
H353 C359 0.930 . S
C354 H340 0.930 . S
C354 C352 1.395 . S
C354 C357 1.403 . S
C355 C352 1.403 . S
C355 C356 1.524 . S
C355 C359 1.400 . S
C356 H341 0.960 . S
C356 H342 0.960 . S
C356 H343 0.960 . S
C356 C355 1.524 . S
C357 C354 1.403 . S
C357 C358 1.392 . S
C357 C361 1.495 . S
C358 C357 1.392 . S
C358 C359 1.385 . S
C358 C360 1.478 . S
C359 H353 0.930 . S
C359 C355 1.400 . S
C359 C358 1.385 . S
C360 C358 1.478 . S
C360 C362 1.381 . S
C360 C366 1.383 . S
C361 C357 1.495 . S
C361 H367 0.959 . S
C361 H368 0.961 . S
C361 H369 0.960 . S
C362 C360 1.381 . S
C362 C363 1.394 . S
C362 H370 0.930 . S
C363 C362 1.394 . S
C363 C364 1.383 . S
C363 H371 0.929 . S
C364 C363 1.383 . S
C364 C365 1.377 . S
C365 H349 0.930 . S
C365 C364 1.377 . S
C365 C366 1.379 . S
C366 H350 0.931 . S
C366 C360 1.383 . S
C366 C365 1.379 . S
H367 C361 0.959 . S
H368 C361 0.961 . S
H369 C361 0.960 . S
H370 C362 0.930 . S
H371 C363 0.929 . S
H372 C380 0.929 . S
H373 C382 0.930 . S
H374 C384 0.930 . S
H375 C387 0.929 . S
H376 C390 0.930 . S
H377 C392 0.960 . S
H378 C392 0.960 . S
H379 C392 0.960 . S
C380 H372 0.929 . S
C380 C381 1.377 . S
C380 C382 1.384 . S
C381 C380 1.377 . S
C381 C387 1.390 . S
C382 H373 0.930 . S
C382 C380 1.384 . S
C382 C383 1.372 . S
C383 C382 1.372 . S
C383 C384 1.400 . S
C383 C388 1.490 . S
C384 H374 0.930 . S
C384 C383 1.400 . S
C384 C387 1.386 . S
H385 C401 0.930 . S
H386 C402 0.931 . S
C387 H375 0.929 . S
C387 C381 1.390 . S
C387 C384 1.386 . S
C388 C383 1.490 . S
C388 C390 1.395 . S
C388 C391 1.403 . S
H389 C395 0.930 . S
C390 H376 0.930 . S
C390 C388 1.395 . S
C390 C393 1.403 . S
C391 C388 1.403 . S
C391 C392 1.524 . S
C391 C395 1.400 . S
C392 H377 0.960 . S
C392 H378 0.960 . S
C392 H379 0.960 . S
C392 C391 1.524 . S
C393 C390 1.403 . S
C393 C394 1.392 . S
C393 C397 1.495 . S
C394 C393 1.392 . S
C394 C395 1.385 . S
C394 C396 1.478 . S
C395 H389 0.930 . S
C395 C391 1.400 . S
C395 C394 1.385 . S
C396 C394 1.478 . S
C396 C398 1.381 . S
C396 C402 1.383 . S
C397 C393 1.495 . S
C397 H403 0.959 . S
C397 H404 0.961 . S
C397 H405 0.960 . S
C398 C396 1.381 . S
C398 C399 1.394 . S
C398 H406 0.930 . S
C399 C398 1.394 . S
C399 C400 1.383 . S
C399 H407 0.929 . S
C400 C399 1.383 . S
C400 C401 1.377 . S
C401 H385 0.930 . S
C401 C400 1.377 . S
C401 C402 1.379 . S
C402 H386 0.931 . S
C402 C396 1.383 . S
C402 C401 1.379 . S
H403 C397 0.959 . S
H404 C397 0.961 . S
H405 C397 0.960 . S
H406 C398 0.930 . S
H407 C399 0.929 . S
H408 C416 0.929 . S
H409 C418 0.930 . S
H410 C420 0.930 . S
H411 C423 0.929 . S
H412 C426 0.930 . S
H413 C428 0.960 . S
H414 C428 0.960 . S
H415 C428 0.960 . S
C416 H408 0.929 . S
C416 C417 1.377 . S
C416 C418 1.384 . S
C417 C416 1.377 . S
C417 C423 1.390 . S
C418 H409 0.930 . S
C418 C416 1.384 . S
C418 C419 1.372 . S
C419 C418 1.372 . S
C419 C420 1.400 . S
C419 C424 1.490 . S
C420 H410 0.930 . S
C420 C419 1.400 . S
C420 C423 1.386 . S
H421 C437 0.930 . S
H422 C438 0.931 . S
C423 H411 0.929 . S
C423 C417 1.390 . S
C423 C420 1.386 . S
C424 C419 1.490 . S
C424 C426 1.395 . S
C424 C427 1.403 . S
H425 C431 0.930 . S
C426 H412 0.930 . S
C426 C424 1.395 . S
C426 C429 1.403 . S
C427 C424 1.403 . S
C427 C428 1.524 . S
C427 C431 1.400 . S
C428 H413 0.960 . S
C428 H414 0.960 . S
C428 H415 0.960 . S
C428 C427 1.524 . S
C429 C426 1.403 . S
C429 C430 1.392 . S
C429 C433 1.495 . S
C430 C429 1.392 . S
C430 C431 1.385 . S
C430 C432 1.478 . S
C431 H425 0.930 . S
C431 C427 1.400 . S
C431 C430 1.385 . S
C432 C430 1.478 . S
C432 C434 1.381 . S
C432 C438 1.383 . S
C433 C429 1.495 . S
C433 H439 0.959 . S
C433 H440 0.961 . S
C433 H441 0.960 . S
C434 C432 1.381 . S
C434 C435 1.394 . S
C434 H442 0.930 . S
C435 C434 1.394 . S
C435 C436 1.383 . S
C435 H443 0.929 . S
C436 C435 1.383 . S
C436 C437 1.377 . S
C437 H421 0.930 . S
C437 C436 1.377 . S
C437 C438 1.379 . S
C438 H422 0.931 . S
C438 C432 1.383 . S
C438 C437 1.379 . S
H439 C433 0.959 . S
H440 C433 0.961 . S
H441 C433 0.960 . S
H442 C434 0.930 . S
H443 C435 0.929 . S
H444 C452 0.929 . S
H445 C454 0.930 . S
H446 C456 0.930 . S
H447 C459 0.929 . S
H448 C462 0.930 . S
H449 C464 0.960 . S
H450 C464 0.960 . S
H451 C464 0.960 . S
C452 H444 0.929 . S
C452 C453 1.377 . S
C452 C454 1.384 . S
C453 C452 1.377 . S
C453 C459 1.390 . S
C454 H445 0.930 . S
C454 C452 1.384 . S
C454 C455 1.372 . S
C455 C454 1.372 . S
C455 C456 1.400 . S
C455 C460 1.490 . S
C456 H446 0.930 . S
C456 C455 1.400 . S
C456 C459 1.386 . S
H457 C473 0.930 . S
H458 C474 0.931 . S
C459 H447 0.929 . S
C459 C453 1.390 . S
C459 C456 1.386 . S
C460 C455 1.490 . S
C460 C462 1.395 . S
C460 C463 1.403 . S
H461 C467 0.930 . S
C462 H448 0.930 . S
C462 C460 1.395 . S
C462 C465 1.403 . S
C463 C460 1.403 . S
C463 C464 1.524 . S
C463 C467 1.400 . S
C464 H449 0.960 . S
C464 H450 0.960 . S
C464 H451 0.960 . S
C464 C463 1.524 . S
C465 C462 1.403 . S
C465 C466 1.392 . S
C465 C469 1.495 . S
C466 C465 1.392 . S
C466 C467 1.385 . S
C466 C468 1.478 . S
C467 H461 0.930 . S
C467 C463 1.400 . S
C467 C466 1.385 . S
C468 C466 1.478 . S
C468 C470 1.381 . S
C468 C474 1.383 . S
C469 C465 1.495 . S
C469 H475 0.959 . S
C469 H476 0.961 . S
C469 H477 0.960 . S
C470 C468 1.381 . S
C470 C471 1.394 . S
C470 H478 0.930 . S
C471 C470 1.394 . S
C471 C472 1.383 . S
C471 H479 0.929 . S
C472 C471 1.383 . S
C472 C473 1.377 . S
C473 H457 0.930 . S
C473 C472 1.377 . S
C473 C474 1.379 . S
C474 H458 0.931 . S
C474 C468 1.383 . S
C474 C473 1.379 . S
H475 C469 0.959 . S
H476 C469 0.961 . S
H477 C469 0.960 . S
H478 C470 0.930 . S
H479 C471 0.929 . S
H480 C488 0.929 . S
H481 C490 0.930 . S
H482 C492 0.930 . S
H483 C495 0.929 . S
H484 C498 0.930 . S
H485 C500 0.960 . S
H486 C500 0.960 . S
H487 C500 0.960 . S
C488 H480 0.929 . S
C488 C489 1.377 . S
C488 C490 1.384 . S
C489 C488 1.377 . S
C489 C495 1.390 . S
C490 H481 0.930 . S
C490 C488 1.384 . S
C490 C491 1.372 . S
C491 C490 1.372 . S
C491 C492 1.400 . S
C491 C496 1.490 . S
C492 H482 0.930 . S
C492 C491 1.400 . S
C492 C495 1.386 . S
H493 C509 0.930 . S
H494 C510 0.931 . S
C495 H483 0.929 . S
C495 C489 1.390 . S
C495 C492 1.386 . S
C496 C491 1.490 . S
C496 C498 1.395 . S
C496 C499 1.403 . S
H497 C503 0.930 . S
C498 H484 0.930 . S
C498 C496 1.395 . S
C498 C501 1.403 . S
C499 C496 1.403 . S
C499 C500 1.524 . S
C499 C503 1.400 . S
C500 H485 0.960 . S
C500 H486 0.960 . S
C500 H487 0.960 . S
C500 C499 1.524 . S
C501 C498 1.403 . S
C501 C502 1.392 . S
C501 C505 1.495 . S
C502 C501 1.392 . S
C502 C503 1.385 . S
C502 C504 1.478 . S
C503 H497 0.930 . S
C503 C499 1.400 . S
C503 C502 1.385 . S
C504 C502 1.478 . S
C504 C506 1.381 . S
C504 C510 1.383 . S
C505 C501 1.495 . S
C505 H511 0.959 . S
C505 H512 0.961 . S
C505 H513 0.960 . S
C506 C504 1.381 . S
C506 C507 1.394 . S
C506 H514 0.930 . S
C507 C506 1.394 . S
C507 C508 1.383 . S
C507 H515 0.929 . S
C508 C507 1.383 . S
C508 C509 1.377 . S
C509 H493 0.930 . S
C509 C508 1.377 . S
C509 C510 1.379 . S
C510 H494 0.931 . S
C510 C504 1.383 . S
C510 C509 1.379 . S
H511 C505 0.959 . S
H512 C505 0.961 . S
H513 C505 0.960 . S
H514 C506 0.930 . S
H515 C507 0.929 . S
C93 C60 1.561 1_556 S
C112 C15 1.528 . S
C129 C81 1.553 . S
C148 C39 1.560 . S
C165 C57 0.734 1_554 S
C184 C18 0.810 . S
C201 C36 0.728 . S
C220 C78 0.800 . S
C237 C37 1.173 . S
C256 C17 1.339 . S
C273 C35 1.756 . S
C292 C56 1.760 . S
C309 C77 1.328 . S
C328 C58 1.138 . S
C345 C79 0.884 . S
C364 C13 0.854 . S
C381 C55 1.351 . S
C400 C80 1.185 . S
C417 C16 1.626 . S
C436 C76 1.622 . S
C453 C34 1.342 . S
C472 C14 1.244 . S
C489 C59 1.010 . S
C508 C38 1.050 . S
