# Generated by pormake.
# Topology ukm, (4)-cn, num edge types: 1
# Building blocks:
#     Node 0, Type 0, BuildingBlock: CEKHIL_clean_sbu_0, # of connection points: 4
#     Node 1, Type 0, BuildingBlock: CEKHIL_clean_sbu_0, # of connection points: 4
#     Node 2, Type 0, BuildingBlock: CEKHIL_clean_sbu_0, # of connection points: 4
#     Node 3, Type 0, BuildingBlock: CEKHIL_clean_sbu_0, # of connection points: 4
#     Node 4, Type 0, BuildingBlock: CEKHIL_clean_sbu_0, # of connection points: 4
#     Node 5, Type 0, BuildingBlock: CEKHIL_clean_sbu_0, # of connection points: 4
#     Node 6, Type 0, BuildingBlock: CEKHIL_clean_sbu_0, # of connection points: 4
#     Node 7, Type 0, BuildingBlock: CEKHIL_clean_sbu_0, # of connection points: 4
#     Node 8, Type 0, BuildingBlock: CEKHIL_clean_sbu_0, # of connection points: 4
#     Node 9, Type 0, BuildingBlock: CEKHIL_clean_sbu_0, # of connection points: 4
#     Node 10, Type 0, BuildingBlock: CEKHIL_clean_sbu_0, # of connection points: 4
#     Node 11, Type 0, BuildingBlock: CEKHIL_clean_sbu_0, # of connection points: 4
#     Node 12, Type 0, BuildingBlock: CEKHIL_clean_sbu_0, # of connection points: 4
#     Node 13, Type 0, BuildingBlock: CEKHIL_clean_sbu_0, # of connection points: 4
#     Node 14, Type 0, BuildingBlock: CEKHIL_clean_sbu_0, # of connection points: 4
#     Node 15, Type 0, BuildingBlock: CEKHIL_clean_sbu_0, # of connection points: 4
#     Node 16, Type 0, BuildingBlock: CEKHIL_clean_sbu_0, # of connection points: 4
#     Node 17, Type 0, BuildingBlock: CEKHIL_clean_sbu_0, # of connection points: 4
#     Node 18, Type 0, BuildingBlock: CEKHIL_clean_sbu_0, # of connection points: 4
#     Node 19, Type 0, BuildingBlock: CEKHIL_clean_sbu_0, # of connection points: 4
#     Node 20, Type 0, BuildingBlock: CEKHIL_clean_sbu_0, # of connection points: 4
#     Node 21, Type 0, BuildingBlock: CEKHIL_clean_sbu_0, # of connection points: 4
#     Node 22, Type 0, BuildingBlock: CEKHIL_clean_sbu_0, # of connection points: 4
#     Node 23, Type 0, BuildingBlock: CEKHIL_clean_sbu_0, # of connection points: 4
#     Node 24, Type 0, BuildingBlock: CEKHIL_clean_sbu_0, # of connection points: 4
#     Node 25, Type 0, BuildingBlock: CEKHIL_clean_sbu_0, # of connection points: 4
#     Node 26, Type 0, BuildingBlock: CEKHIL_clean_sbu_0, # of connection points: 4
#     Node 27, Type 0, BuildingBlock: CEKHIL_clean_sbu_0, # of connection points: 4
#     Node 28, Type 0, BuildingBlock: CEKHIL_clean_sbu_0, # of connection points: 4
#     Node 29, Type 0, BuildingBlock: CEKHIL_clean_sbu_0, # of connection points: 4
#     Node 30, Type 0, BuildingBlock: CEKHIL_clean_sbu_0, # of connection points: 4
#     Node 31, Type 0, BuildingBlock: CEKHIL_clean_sbu_0, # of connection points: 4
#     Edge 32, Type (0, 0), BuildingBlock: AJUNOK_clean_linker_0, # of connection points: 2
#     Edge 33, Type (0, 0), BuildingBlock: AJUNOK_clean_linker_0, # of connection points: 2
#     Edge 34, Type (0, 0), BuildingBlock: AJUNOK_clean_linker_0, # of connection points: 2
#     Edge 35, Type (0, 0), BuildingBlock: AJUNOK_clean_linker_0, # of connection points: 2
#     Edge 36, Type (0, 0), BuildingBlock: AJUNOK_clean_linker_0, # of connection points: 2
#     Edge 37, Type (0, 0), BuildingBlock: AJUNOK_clean_linker_0, # of connection points: 2
#     Edge 38, Type (0, 0), BuildingBlock: AJUNOK_clean_linker_0, # of connection points: 2
#     Edge 39, Type (0, 0), BuildingBlock: AJUNOK_clean_linker_0, # of connection points: 2
#     Edge 40, Type (0, 0), BuildingBlock: AJUNOK_clean_linker_0, # of connection points: 2
#     Edge 41, Type (0, 0), BuildingBlock: AJUNOK_clean_linker_0, # of connection points: 2
#     Edge 42, Type (0, 0), BuildingBlock: AJUNOK_clean_linker_0, # of connection points: 2
#     Edge 43, Type (0, 0), BuildingBlock: AJUNOK_clean_linker_0, # of connection points: 2
#     Edge 44, Type (0, 0), BuildingBlock: AJUNOK_clean_linker_0, # of connection points: 2
#     Edge 45, Type (0, 0), BuildingBlock: AJUNOK_clean_linker_0, # of connection points: 2
#     Edge 46, Type (0, 0), BuildingBlock: AJUNOK_clean_linker_0, # of connection points: 2
#     Edge 47, Type (0, 0), BuildingBlock: AJUNOK_clean_linker_0, # of connection points: 2
#     Edge 48, Type (0, 0), BuildingBlock: AJUNOK_clean_linker_0, # of connection points: 2
#     Edge 49, Type (0, 0), BuildingBlock: AJUNOK_clean_linker_0, # of connection points: 2
#     Edge 50, Type (0, 0), BuildingBlock: AJUNOK_clean_linker_0, # of connection points: 2
#     Edge 51, Type (0, 0), BuildingBlock: AJUNOK_clean_linker_0, # of connection points: 2
#     Edge 52, Type (0, 0), BuildingBlock: AJUNOK_clean_linker_0, # of connection points: 2
#     Edge 53, Type (0, 0), BuildingBlock: AJUNOK_clean_linker_0, # of connection points: 2
#     Edge 54, Type (0, 0), BuildingBlock: AJUNOK_clean_linker_0, # of connection points: 2
#     Edge 55, Type (0, 0), BuildingBlock: AJUNOK_clean_linker_0, # of connection points: 2
#     Edge 56, Type (0, 0), BuildingBlock: AJUNOK_clean_linker_0, # of connection points: 2
#     Edge 57, Type (0, 0), BuildingBlock: AJUNOK_clean_linker_0, # of connection points: 2
#     Edge 58, Type (0, 0), BuildingBlock: AJUNOK_clean_linker_0, # of connection points: 2
#     Edge 59, Type (0, 0), BuildingBlock: AJUNOK_clean_linker_0, # of connection points: 2
#     Edge 60, Type (0, 0), BuildingBlock: AJUNOK_clean_linker_0, # of connection points: 2
#     Edge 61, Type (0, 0), BuildingBlock: AJUNOK_clean_linker_0, # of connection points: 2
#     Edge 62, Type (0, 0), BuildingBlock: AJUNOK_clean_linker_0, # of connection points: 2
#     Edge 63, Type (0, 0), BuildingBlock: AJUNOK_clean_linker_0, # of connection points: 2
#     Edge 64, Type (0, 0), BuildingBlock: AJUNOK_clean_linker_0, # of connection points: 2
#     Edge 65, Type (0, 0), BuildingBlock: AJUNOK_clean_linker_0, # of connection points: 2
#     Edge 66, Type (0, 0), BuildingBlock: AJUNOK_clean_linker_0, # of connection points: 2
#     Edge 67, Type (0, 0), BuildingBlock: AJUNOK_clean_linker_0, # of connection points: 2
#     Edge 68, Type (0, 0), BuildingBlock: AJUNOK_clean_linker_0, # of connection points: 2
#     Edge 69, Type (0, 0), BuildingBlock: AJUNOK_clean_linker_0, # of connection points: 2
#     Edge 70, Type (0, 0), BuildingBlock: AJUNOK_clean_linker_0, # of connection points: 2
#     Edge 71, Type (0, 0), BuildingBlock: AJUNOK_clean_linker_0, # of connection points: 2
#     Edge 72, Type (0, 0), BuildingBlock: AJUNOK_clean_linker_0, # of connection points: 2
#     Edge 73, Type (0, 0), BuildingBlock: AJUNOK_clean_linker_0, # of connection points: 2
#     Edge 74, Type (0, 0), BuildingBlock: AJUNOK_clean_linker_0, # of connection points: 2
#     Edge 75, Type (0, 0), BuildingBlock: AJUNOK_clean_linker_0, # of connection points: 2
#     Edge 76, Type (0, 0), BuildingBlock: AJUNOK_clean_linker_0, # of connection points: 2
#     Edge 77, Type (0, 0), BuildingBlock: AJUNOK_clean_linker_0, # of connection points: 2
#     Edge 78, Type (0, 0), BuildingBlock: AJUNOK_clean_linker_0, # of connection points: 2
#     Edge 79, Type (0, 0), BuildingBlock: AJUNOK_clean_linker_0, # of connection points: 2
#     Edge 80, Type (0, 0), BuildingBlock: AJUNOK_clean_linker_0, # of connection points: 2
#     Edge 81, Type (0, 0), BuildingBlock: AJUNOK_clean_linker_0, # of connection points: 2
#     Edge 82, Type (0, 0), BuildingBlock: AJUNOK_clean_linker_0, # of connection points: 2
#     Edge 83, Type (0, 0), BuildingBlock: AJUNOK_clean_linker_0, # of connection points: 2
#     Edge 84, Type (0, 0), BuildingBlock: AJUNOK_clean_linker_0, # of connection points: 2
#     Edge 85, Type (0, 0), BuildingBlock: AJUNOK_clean_linker_0, # of connection points: 2
#     Edge 86, Type (0, 0), BuildingBlock: AJUNOK_clean_linker_0, # of connection points: 2
#     Edge 87, Type (0, 0), BuildingBlock: AJUNOK_clean_linker_0, # of connection points: 2
#     Edge 88, Type (0, 0), BuildingBlock: AJUNOK_clean_linker_0, # of connection points: 2
#     Edge 89, Type (0, 0), BuildingBlock: AJUNOK_clean_linker_0, # of connection points: 2
#     Edge 90, Type (0, 0), BuildingBlock: AJUNOK_clean_linker_0, # of connection points: 2
#     Edge 91, Type (0, 0), BuildingBlock: AJUNOK_clean_linker_0, # of connection points: 2
#     Edge 92, Type (0, 0), BuildingBlock: AJUNOK_clean_linker_0, # of connection points: 2
#     Edge 93, Type (0, 0), BuildingBlock: AJUNOK_clean_linker_0, # of connection points: 2
#     Edge 94, Type (0, 0), BuildingBlock: AJUNOK_clean_linker_0, # of connection points: 2
#     Edge 95, Type (0, 0), BuildingBlock: AJUNOK_clean_linker_0, # of connection points: 2
# Relax obj value: 0.250
# Max RMSD: 0.189
# Mean RMSD: 0.187
data_MOF--net-ukm--node1-CEKHIL_clean_sbu_0--edge1-AJUNOK_clean_linker_0
_symmetry_space_group_name_H-M    P1
_symmetry_Int_Tables_number       1
_symmetry_cell_setting            triclinic
loop_
_symmetry_equiv_pos_as_xyz
'x, y, z'
_cell_length_a     17.231975
_cell_length_b     74.772329
_cell_length_c     32.152851
_cell_angle_alpha  90.019498
_cell_angle_beta   89.98361
_cell_angle_gamma 90.073743
loop_
_atom_site_label
_atom_site_type_symbol
_atom_site_fract_x
_atom_site_fract_y
_atom_site_fract_z
_atom_type_partial_charge
Co0 Co 0.12778 0.31282 0.27239 0.0
O1 O 0.1398 0.29066 0.24329 0.0
O2 O 0.02692 0.30142 0.26423 0.0
C3 C 0.22682 0.30754 0.31514 0.0
O4 O 0.09606 0.33567 0.30356 0.0
Co5 Co 0.26925 0.33961 0.2701 0.0
O6 O 0.19841 0.35468 0.30308 0.0
C7 C 0.17474 0.33254 0.19608 0.0
C8 C 0.06533 0.2888 0.24522 0.0
C9 C 0.12839 0.35082 0.31223 0.0
O10 O 0.12051 0.32553 0.21817 0.0
O11 O 0.24132 0.33697 0.21027 0.0
O12 O 0.15856 0.30135 0.32486 0.0
O13 O 0.23243 0.31574 0.28036 0.0
Co14 Co 0.11608 0.95367 0.27026 0.0
O15 O 0.10036 0.97586 0.24178 0.0
O16 O 0.21454 0.96618 0.26381 0.0
C17 C 0.01585 0.95689 0.31344 0.0
O18 O 0.15207 0.93119 0.30081 0.0
Co19 Co 0.98067 0.92525 0.26481 0.0
O20 O 0.05559 0.9107 0.29658 0.0
C21 C 0.0846 0.93127 0.19412 0.0
C22 C 0.17433 0.97851 0.24491 0.0
C23 C 0.12391 0.91545 0.30712 0.0
O24 O 0.1299 0.94115 0.21603 0.0
O25 O 0.01857 0.92551 0.20635 0.0
O26 O 0.08188 0.96425 0.32296 0.0
O27 O 0.01148 0.94933 0.27775 0.0
Co28 Co 0.13521 0.94924 0.94839 0.0
O29 O 0.13912 0.97099 0.97987 0.0
O30 O 0.0313 0.95937 0.95403 0.0
C31 C 0.23689 0.95636 0.90852 0.0
O32 O 0.11209 0.92659 0.91431 0.0
Co33 Co 0.28126 0.92413 0.95358 0.0
O34 O 0.21852 0.90889 0.91651 0.0
C35 C 0.17385 0.92763 0.024 0.0
C36 C 0.06481 0.97209 0.97525 0.0
C37 C 0.14891 0.91204 0.90538 0.0
O38 O 0.12362 0.93546 0.00087 0.0
O39 O 0.24267 0.92379 0.01213 0.0
O40 O 0.16802 0.96194 0.89832 0.0
O41 O 0.24186 0.94779 0.943 0.0
Co42 Co 0.13386 0.32015 0.94003 0.0
O43 O 0.12146 0.29716 0.96548 0.0
O44 O 0.23333 0.30778 0.94195 0.0
C45 C 0.02944 0.31776 0.89927 0.0
O46 O 0.16539 0.34372 0.91188 0.0
Co47 Co -0.00056 0.34789 0.95515 0.0
O48 O 0.06961 0.36377 0.92393 0.0
C49 C 0.10389 0.33745 0.02225 0.0
C50 C 0.1951 0.29489 0.96004 0.0
C51 C 0.13602 0.35959 0.9095 0.0
O52 O 0.15197 0.33082 -0.00402 0.0
O53 O 0.03595 0.34284 0.01254 0.0
O54 O 0.09466 0.3107 0.88726 0.0
O55 O 0.02871 0.32446 0.936 0.0
Co56 Co 0.88465 0.68678 0.7068 0.0
O57 O 0.93911 0.681 0.75743 0.0
O58 O 0.81955 0.69194 0.7526 0.0
C59 C 0.91153 0.66154 0.67131 0.0
O60 O 0.80503 0.69369 0.66517 0.0
Co61 Co 0.95305 0.69261 0.62052 0.0
O62 O 0.84466 0.69422 0.59934 0.0
C63 C 0.96473 0.72169 0.6827 0.0
C64 C 0.87543 0.68622 0.77579 0.0
C65 C 0.79171 0.69582 0.62664 0.0
O66 O 0.92588 0.712 0.70831 0.0
O67 O 0.98535 0.71598 0.6468 0.0
O68 O 0.85664 0.66196 0.69891 0.0
O69 O 0.95312 0.67596 0.66766 0.0
Co70 Co 0.86807 0.08618 0.70259 0.0
O71 O 0.80713 0.08993 0.75202 0.0
O72 O 0.93272 0.08319 0.74958 0.0
C73 C 0.827 0.11016 0.66648 0.0
O74 O 0.95351 0.08199 0.66182 0.0
Co75 Co 0.80673 0.0774 0.61632 0.0
O76 O 0.91614 0.07733 0.59642 0.0
C77 C 0.80091 0.04967 0.6811 0.0
C78 C 0.87182 0.08662 0.77166 0.0
C79 C 0.96906 0.07903 0.62369 0.0
O80 O 0.84201 0.05993 0.70427 0.0
O81 O 0.77492 0.05472 0.64569 0.0
O82 O 0.87966 0.11169 0.69515 0.0
O83 O 0.79575 0.09442 0.66246 0.0
Co84 Co 0.87767 0.07535 0.01824 0.0
O85 O 0.94506 0.08005 0.97199 0.0
O86 O 0.82033 0.07256 0.96827 0.0
C87 C 0.91121 0.09947 0.05606 0.0
O88 O 0.78697 0.07068 0.05585 0.0
Co89 Co 0.9315 0.06651 0.1059 0.0
O90 O 0.82267 0.0717 0.12252 0.0
C91 C 0.94321 0.03877 0.0412 0.0
C92 C 0.88366 0.07715 0.94933 0.0
C93 C 0.77058 0.07154 0.09452 0.0
O94 O 0.90635 0.04928 0.01669 0.0
O95 O 0.96384 0.04352 0.07787 0.0
O96 O 0.86212 0.1007 0.02565 0.0
O97 O 0.94411 0.08396 0.06099 0.0
Co98 Co 0.85257 0.69632 0.02219 0.0
O99 O 0.7871 0.69054 0.97548 0.0
O100 O 0.90999 0.69958 0.97254 0.0
C101 C 0.82359 0.67192 0.06062 0.0
O102 O 0.94197 0.70248 0.05914 0.0
Co103 Co 0.80152 0.70415 0.11103 0.0
O104 O 0.91067 0.698 0.12551 0.0
C105 C 0.7829 0.73215 0.04685 0.0
C106 C 0.84865 0.69401 0.95328 0.0
C107 C 0.961 0.69988 0.09692 0.0
O108 O 0.81814 0.72203 0.02067 0.0
O109 O 0.76689 0.72713 0.08398 0.0
O110 O 0.87338 0.67112 0.03039 0.0
O111 O 0.78844 0.68716 0.06532 0.0
Co112 Co 0.14138 0.81423 0.76645 0.0
O113 O 0.14769 0.79217 0.73652 0.0
O114 O 0.03857 0.80338 0.76187 0.0
C115 C 0.24431 0.80815 0.80592 0.0
O116 O 0.11581 0.83709 0.79921 0.0
Co117 Co 0.28511 0.84027 0.76092 0.0
O118 O 0.22128 0.85518 0.79809 0.0
C119 C 0.17901 0.83533 0.69009 0.0
C120 C 0.07358 0.79066 0.74142 0.0
C121 C 0.15145 0.85178 0.80848 0.0
O122 O 0.1287 0.82731 0.71299 0.0
O123 O 0.24687 0.83977 0.70244 0.0
O124 O 0.17633 0.80237 0.81734 0.0
O125 O 0.24744 0.81647 0.77114 0.0
Co126 Co 0.12062 0.45733 0.7765 0.0
O127 O 0.10596 0.47945 0.74787 0.0
O128 O 0.21897 0.47014 0.7721 0.0
C129 C 0.0158 0.46072 0.81648 0.0
O130 O 0.15504 0.43483 0.80781 0.0
Co131 Co 0.98717 0.42861 0.76885 0.0
O132 O 0.05742 0.41459 0.80454 0.0
C133 C 0.0954 0.43517 0.69958 0.0
C134 C 0.17948 0.48233 0.75226 0.0
C135 C 0.12554 0.4193 0.81543 0.0
O136 O 0.13907 0.44503 0.72245 0.0
O137 O 0.02951 0.42906 0.71122 0.0
O138 O 0.08111 0.46785 0.82824 0.0
O139 O 0.01579 0.45288 0.78108 0.0
Co140 Co 0.13293 0.44668 0.45176 0.0
O141 O 0.15072 0.46824 0.4824 0.0
O142 O 0.03535 0.45951 0.46033 0.0
C143 C 0.23405 0.45124 0.4094 0.0
O144 O 0.0963 0.4247 0.41878 0.0
Co145 Co 0.26698 0.41812 0.45469 0.0
O146 O 0.19352 0.40434 0.42022 0.0
C147 C 0.17414 0.42677 0.52799 0.0
C148 C 0.07711 0.47129 0.48032 0.0
C149 C 0.12528 0.40922 0.41 0.0
O150 O 0.12081 0.43346 0.50496 0.0
O151 O 0.24082 0.42199 0.51458 0.0
O152 O 0.16723 0.4584 0.40061 0.0
O153 O 0.23715 0.44248 0.44364 0.0
Co154 Co 0.11695 0.81891 0.43902 0.0
O155 O 0.10091 0.79658 0.46669 0.0
O156 O 0.2143 0.8058 0.44263 0.0
C157 C 0.01245 0.81667 0.39829 0.0
O158 O 0.15272 0.84148 0.4085 0.0
Co159 Co 0.98703 0.84812 0.45091 0.0
O160 O 0.062 0.86282 0.41952 0.0
C161 C 0.09126 0.83883 0.51884 0.0
C162 C 0.17425 0.79351 0.46182 0.0
C163 C 0.12722 0.85764 0.40526 0.0
O164 O 0.13684 0.83065 0.49365 0.0
O165 O 0.02407 0.84463 0.5089 0.0
O166 O 0.07629 0.80873 0.38721 0.0
O167 O 0.01269 0.82411 0.43424 0.0
Co168 Co 0.87389 0.18627 0.19687 0.0
O169 O 0.93224 0.18063 0.24596 0.0
O170 O 0.80962 0.18983 0.24399 0.0
C171 C 0.90759 0.16195 0.16024 0.0
O172 O 0.79135 0.19254 0.15598 0.0
Co173 Co 0.93982 0.19432 0.11078 0.0
O174 O 0.83091 0.19469 0.09013 0.0
C175 C 0.95018 0.22188 0.1764 0.0
C176 C 0.86844 0.18455 0.26577 0.0
C177 C 0.77769 0.19505 0.11751 0.0
O178 O 0.90857 0.21189 0.19994 0.0
O179 O 0.9743 0.21678 0.1406 0.0
O180 O 0.85339 0.16116 0.18818 0.0
O181 O 0.94406 0.17709 0.15667 0.0
Co182 Co 0.86052 0.58717 0.20879 0.0
O183 O 0.7958 0.59087 0.25697 0.0
O184 O 0.92128 0.58392 0.25727 0.0
C185 C 0.82353 0.61132 0.17217 0.0
O186 O 0.94877 0.58296 0.16945 0.0
Co187 Co 0.80152 0.57913 0.12066 0.0
O188 O 0.91238 0.57856 0.10355 0.0
C189 C 0.79087 0.5512 0.18508 0.0
C190 C 0.85874 0.5874 0.27801 0.0
C191 C 0.96464 0.58001 0.1313 0.0
O192 O 0.83306 0.56093 0.20902 0.0
O193 O 0.76585 0.55674 0.14985 0.0
O194 O 0.87356 0.61279 0.20215 0.0
O195 O 0.79192 0.59571 0.16738 0.0
Co196 Co 0.88987 0.57447 0.52399 0.0
O197 O 0.94432 0.58295 0.47567 0.0
O198 O 0.82872 0.56974 0.47598 0.0
C199 C 0.90843 0.59946 0.56236 0.0
O200 O 0.81308 0.56458 0.56449 0.0
Co201 Co 0.9502 0.56766 0.61051 0.0
O202 O 0.84222 0.57461 0.62691 0.0
C203 C 0.97363 0.53999 0.54546 0.0
C204 C 0.88315 0.57767 0.45522 0.0
C205 C 0.79194 0.5711 0.59917 0.0
O206 O 0.93915 0.55022 0.51929 0.0
O207 O 0.98585 0.54461 0.58335 0.0
O208 O 0.85388 0.59843 0.53468 0.0
O209 O 0.95334 0.58551 0.56551 0.0
Co210 Co 0.84955 0.19161 0.51148 0.0
O211 O 0.7821 0.18609 0.46538 0.0
O212 O 0.90897 0.19177 0.46219 0.0
C213 C 0.81042 0.1696 0.55397 0.0
O214 O 0.94092 0.19649 0.5481 0.0
Co215 Co 0.80012 0.2045 0.59716 0.0
O216 O 0.90921 0.20051 0.6146 0.0
C217 C 0.80004 0.23024 0.52791 0.0
C218 C 0.84555 0.18729 0.4434 0.0
C219 C 0.95967 0.19841 0.58619 0.0
O220 O 0.82757 0.21788 0.50449 0.0
O221 O 0.78167 0.22757 0.566 0.0
O222 O 0.85885 0.16653 0.52397 0.0
O223 O 0.78116 0.18563 0.55588 0.0
Co224 Co 0.64646 0.31272 0.76631 0.0
O225 O 0.66592 0.29062 0.73786 0.0
O226 O 0.54986 0.2996 0.75876 0.0
C227 C 0.74508 0.31026 0.81057 0.0
O228 O 0.60709 0.33508 0.79676 0.0
Co229 Co 0.77769 0.34208 0.76119 0.0
O230 O 0.69726 0.3568 0.78834 0.0
C231 C 0.68272 0.33343 0.68889 0.0
C232 C 0.59211 0.28759 0.74003 0.0
C233 C 0.63104 0.35137 0.80077 0.0
O234 O 0.63376 0.32498 0.71173 0.0
O235 O 0.74815 0.33923 0.70182 0.0
O236 O 0.68013 0.30221 0.8192 0.0
O237 O 0.74972 0.31788 0.77498 0.0
Co238 Co 0.62149 0.95858 0.77476 0.0
O239 O 0.61235 0.98041 0.74415 0.0
O240 O 0.72237 0.97041 0.77075 0.0
C241 C 0.51562 0.96365 0.81306 0.0
O242 O 0.64987 0.93609 0.80823 0.0
Co243 Co 0.48274 0.93111 0.76763 0.0
O244 O 0.54633 0.91741 0.80724 0.0
C245 C 0.59623 0.93525 0.69982 0.0
C246 C 0.68608 0.98263 0.74932 0.0
C247 C 0.61545 0.92131 0.818 0.0
O248 O 0.63986 0.94544 0.72188 0.0
O249 O 0.52954 0.9295 0.71107 0.0
O250 O 0.58186 0.97024 0.82504 0.0
O251 O 0.5156 0.95526 0.7783 0.0
Co252 Co 0.63547 0.94357 0.44964 0.0
O253 O 0.65905 0.96597 0.47637 0.0
O254 O 0.542 0.95798 0.45478 0.0
C255 C 0.73764 0.94482 0.40656 0.0
O256 O 0.59099 0.92129 0.42063 0.0
Co257 Co 0.75657 0.91257 0.45752 0.0
O258 O 0.67747 0.89877 0.42721 0.0
C259 C 0.66676 0.92457 0.529 0.0
C260 C 0.58632 0.96986 0.47261 0.0
C261 C 0.61192 0.90484 0.41561 0.0
O262 O 0.61857 0.93267 0.50525 0.0
O263 O 0.73019 0.91752 0.51677 0.0
O264 O 0.67319 0.95284 0.39677 0.0
O265 O 0.73879 0.93726 0.44246 0.0
Co266 Co 0.6216 0.32022 0.43794 0.0
O267 O 0.62204 0.29742 0.4652 0.0
O268 O 0.72635 0.31031 0.43819 0.0
C269 C 0.51419 0.31405 0.40145 0.0
O270 O 0.64019 0.34396 0.40719 0.0
Co271 Co 0.47678 0.34502 0.4527 0.0
O272 O 0.53577 0.36176 0.41743 0.0
C273 C 0.59226 0.3389 0.5183 0.0
C274 C 0.69568 0.29681 0.45793 0.0
C275 C 0.60344 0.35891 0.40291 0.0
O276 O 0.64003 0.3322 0.49204 0.0
O277 O 0.52187 0.34285 0.50966 0.0
O278 O 0.58158 0.30903 0.3874 0.0
O279 O 0.51459 0.32174 0.43712 0.0
Co280 Co 0.39921 0.68305 0.19615 0.0
O281 O 0.46462 0.67831 0.24338 0.0
O282 O 0.33939 0.68574 0.24488 0.0
C283 C 0.43264 0.65934 0.15752 0.0
O284 O 0.31036 0.68794 0.15852 0.0
Co285 Co 0.45198 0.69238 0.10834 0.0
O286 O 0.34017 0.69218 0.09187 0.0
C287 C 0.47164 0.71887 0.17513 0.0
C288 C 0.40177 0.68146 0.26483 0.0
C289 C 0.29054 0.69046 0.12091 0.0
O290 O 0.42823 0.70915 0.19838 0.0
O291 O 0.4947 0.71382 0.13913 0.0
O292 O 0.38319 0.65778 0.18771 0.0
O293 O 0.4659 0.67484 0.15323 0.0
Co294 Co 0.3344 0.08442 0.20744 0.0
O295 O 0.26798 0.0871 0.25538 0.0
O296 O 0.39516 0.08187 0.25591 0.0
C297 C 0.29233 0.10812 0.1711 0.0
O298 O 0.42436 0.08159 0.16867 0.0
Co299 Co 0.2817 0.07588 0.11873 0.0
O300 O 0.39255 0.07809 0.10198 0.0
C301 C 0.27667 0.04753 0.18233 0.0
C302 C 0.33171 0.08457 0.27646 0.0
C303 C 0.4431 0.07986 0.13053 0.0
O304 O 0.31387 0.05793 0.20706 0.0
O305 O 0.25234 0.05267 0.14664 0.0
O306 O 0.34119 0.11011 0.20149 0.0
O307 O 0.26484 0.09211 0.16568 0.0
Co308 Co 0.38236 0.07146 0.52065 0.0
O309 O 0.42591 0.08248 0.47222 0.0
O310 O 0.31962 0.06556 0.47386 0.0
C311 C 0.3896 0.09619 0.56041 0.0
O312 O 0.31766 0.05832 0.56234 0.0
Co313 Co 0.45413 0.06485 0.6036 0.0
O314 O 0.34576 0.06931 0.62363 0.0
C315 C 0.48459 0.03911 0.53559 0.0
C316 C 0.3669 0.07553 0.45272 0.0
C317 C 0.29532 0.06424 0.59736 0.0
O318 O 0.44535 0.04935 0.51159 0.0
O319 O 0.49606 0.04287 0.57405 0.0
O320 O 0.33287 0.09359 0.53465 0.0
O321 O 0.44345 0.08392 0.56133 0.0
Co322 Co 0.36427 0.69039 0.51076 0.0
O323 O 0.30658 0.68472 0.46107 0.0
O324 O 0.43065 0.69268 0.46444 0.0
C325 C 0.32518 0.66704 0.54963 0.0
O326 O 0.4482 0.6959 0.55103 0.0
Co327 Co 0.30309 0.70025 0.5966 0.0
O328 O 0.41236 0.69955 0.61688 0.0
C329 C 0.29076 0.72631 0.52832 0.0
C330 C 0.37244 0.68765 0.44208 0.0
C331 C 0.46466 0.69835 0.58912 0.0
O332 O 0.33468 0.71634 0.50597 0.0
O333 O 0.26561 0.72155 0.56413 0.0
O334 O 0.37863 0.66517 0.52149 0.0
O335 O 0.29238 0.68264 0.55169 0.0
Co336 Co 0.6186 0.8134 0.27125 0.0
O337 O 0.64495 0.79234 0.24031 0.0
O338 O 0.52763 0.79806 0.26413 0.0
C339 C 0.72226 0.81224 0.31298 0.0
O340 O 0.57311 0.83422 0.30512 0.0
Co341 Co 0.73822 0.84548 0.26648 0.0
O342 O 0.65474 0.85773 0.29716 0.0
C343 C 0.63504 0.83749 0.19657 0.0
C344 C 0.57361 0.78723 0.24399 0.0
C345 C 0.59168 0.85084 0.31028 0.0
O346 O 0.59528 0.8264 0.21845 0.0
O347 O 0.69843 0.84468 0.20867 0.0
O348 O 0.66173 0.8026 0.32194 0.0
O349 O 0.72019 0.82065 0.27831 0.0
Co350 Co 0.60889 0.45846 0.26966 0.0
O351 O 0.59933 0.48077 0.24114 0.0
O352 O 0.71011 0.47022 0.26536 0.0
C353 C 0.50601 0.46296 0.31038 0.0
O354 O 0.63698 0.43542 0.30109 0.0
Co355 Co 0.46778 0.43172 0.26165 0.0
O356 O 0.53143 0.41733 0.30002 0.0
C357 C 0.5815 0.43554 0.1937 0.0
C358 C 0.67317 0.48294 0.24588 0.0
C359 C 0.60128 0.42074 0.31036 0.0
O360 O 0.62481 0.44584 0.21571 0.0
O361 O 0.51454 0.43 0.20514 0.0
O362 O 0.573 0.46939 0.32146 0.0
O363 O 0.50285 0.45546 0.27458 0.0
Co364 Co 0.63333 0.44415 0.94943 0.0
O365 O 0.64905 0.46538 0.98151 0.0
O366 O 0.53488 0.45657 0.95769 0.0
C367 C 0.73517 0.44933 0.90804 0.0
O368 O 0.59855 0.42256 0.91484 0.0
Co369 Co 0.76722 0.41582 0.95275 0.0
O370 O 0.69481 0.40202 0.91758 0.0
C371 C 0.67113 0.42345 0.02524 0.0
C372 C 0.57532 0.46821 0.97884 0.0
C373 C 0.62732 0.40705 0.90636 0.0
O374 O 0.61927 0.43033 0.0016 0.0
O375 O 0.73857 0.41885 0.01264 0.0
O376 O 0.66831 0.45648 0.8994 0.0
O377 O 0.73834 0.44032 0.94202 0.0
Co378 Co 0.61008 0.82307 0.95068 0.0
O379 O 0.59728 0.80127 0.9809 0.0
O380 O 0.71112 0.81221 0.96182 0.0
C381 C 0.51514 0.81662 0.90597 0.0
O382 O 0.64189 0.84573 0.919 0.0
Co383 Co 0.46578 0.84891 0.94972 0.0
O384 O 0.53755 0.86413 0.91744 0.0
C385 C 0.55686 0.8432 0.02521 0.0
C386 C 0.67187 0.79971 0.98083 0.0
C387 C 0.60844 0.86064 0.90952 0.0
O388 O 0.61263 0.83648 0.00389 0.0
O389 O 0.49001 0.84693 0.01034 0.0
O390 O 0.58491 0.81075 0.89872 0.0
O391 O 0.50572 0.82524 0.94007 0.0
Co392 Co 0.38117 0.18693 0.69618 0.0
O393 O 0.4282 0.17699 0.74506 0.0
O394 O 0.3202 0.19319 0.74317 0.0
C395 C 0.38943 0.16175 0.65806 0.0
O396 O 0.31196 0.19896 0.65513 0.0
Co397 Co 0.44769 0.19235 0.61087 0.0
O398 O 0.3378 0.18895 0.59225 0.0
C399 C 0.4792 0.21941 0.67629 0.0
C400 C 0.36941 0.18396 0.76471 0.0
C401 C 0.28894 0.19366 0.61971 0.0
O402 O 0.44163 0.20965 0.70218 0.0
O403 O 0.48972 0.21478 0.63828 0.0
O404 O 0.33382 0.1642 0.68462 0.0
O405 O 0.44142 0.17438 0.65555 0.0
Co406 Co 0.35397 0.58618 0.70612 0.0
O407 O 0.28616 0.58897 0.75334 0.0
O408 O 0.41374 0.58402 0.75513 0.0
C409 C 0.31281 0.60945 0.6682 0.0
O410 O 0.44433 0.58301 0.66784 0.0
Co411 Co 0.30052 0.5767 0.61765 0.0
O412 O 0.412 0.57798 0.60169 0.0
C413 C 0.29179 0.54957 0.68381 0.0
C414 C 0.34924 0.5864 0.77494 0.0
C415 C 0.46275 0.58024 0.62996 0.0
O416 O 0.33361 0.55971 0.70688 0.0
O417 O 0.26565 0.55459 0.64839 0.0
O418 O 0.36048 0.61184 0.69897 0.0
O419 O 0.28526 0.59341 0.66367 0.0
Co420 Co 0.38683 0.57101 0.01885 0.0
O421 O 0.4424 0.57769 0.96948 0.0
O422 O 0.32379 0.56605 0.9717 0.0
C423 C 0.41307 0.59647 0.05386 0.0
O424 O 0.30703 0.56325 0.06026 0.0
Co425 Co 0.4506 0.56547 0.10549 0.0
O426 O 0.34318 0.57208 0.12312 0.0
C427 C 0.46771 0.53654 0.04305 0.0
C428 C 0.37972 0.57279 0.94984 0.0
C429 C 0.29031 0.56813 0.09711 0.0
O430 O 0.43038 0.54618 0.01683 0.0
O431 O 0.48445 0.54201 0.07979 0.0
O432 O 0.35732 0.59564 0.02681 0.0
O433 O 0.45418 0.58201 0.05825 0.0
Co434 Co 0.338 0.18754 0.0095 0.0
O435 O 0.27038 0.18206 0.96335 0.0
O436 O 0.39736 0.18767 0.96018 0.0
C437 C 0.29872 0.16556 0.05222 0.0
O438 O 0.42925 0.19257 0.04607 0.0
Co439 Co 0.28838 0.20028 0.09541 0.0
O440 O 0.39946 0.19908 0.11174 0.0
C441 C 0.28397 0.22578 0.02568 0.0
C442 C 0.33382 0.18329 0.94139 0.0
C443 C 0.44915 0.19627 0.08325 0.0
O444 O 0.31616 0.21386 0.00272 0.0
O445 O 0.26336 0.22264 0.06325 0.0
O446 O 0.34708 0.16243 0.02218 0.0
O447 O 0.26971 0.18159 0.05385 0.0
C448 C 0.08396 0.39758 0.34195 0.0
C449 C 0.08167 0.39601 0.38539 0.0
C450 C 0.08614 0.38225 0.31678 0.0
C451 C 0.0857 0.36498 0.33438 0.0
H452 H 0.09515 0.41047 0.32773 0.0
H453 H 0.09813 0.38392 0.28391 0.0
S454 S 0.06006 0.35407 0.44565 0.0
N455 N 0.06328 0.37616 0.4443 0.0
N456 N 0.06728 0.34735 0.39684 0.0
C457 C 0.07102 0.36337 0.37703 0.0
C458 C 0.06896 0.37896 0.40265 0.0
C459 C 0.17563 0.90367 0.373 0.0
C460 C 0.16852 0.90188 0.32979 0.0
C461 C 0.17608 0.88846 0.39846 0.0
C462 C 0.16991 0.87117 0.38124 0.0
H463 H 0.16963 0.91669 0.38744 0.0
H464 H 0.1707 0.89031 0.43178 0.0
S465 S 0.1731 0.8597 0.26944 0.0
N466 N 0.17312 0.88179 0.27051 0.0
N467 N 0.17429 0.85318 0.31853 0.0
C468 C 0.17659 0.86928 0.33809 0.0
C469 C 0.17573 0.88474 0.31219 0.0
C470 C 0.1089 0.88044 0.89989 0.0
C471 C 0.11149 0.89757 0.88162 0.0
C472 C 0.10919 0.86489 0.87538 0.0
C473 C 0.11231 0.86609 0.83189 0.0
H474 H 0.11561 0.87903 0.93325 0.0
H475 H 0.11657 0.85207 0.89053 0.0
S476 S 0.1055 0.90762 0.76912 0.0
N477 N 0.10555 0.91472 0.81779 0.0
N478 N 0.10609 0.88554 0.77154 0.0
C479 C 0.105 0.88306 0.81341 0.0
C480 C 0.10453 0.89886 0.83837 0.0
C481 C 0.17421 0.40672 0.8814 0.0
C482 C 0.16994 0.40561 0.83796 0.0
C483 C 0.17721 0.39112 0.90553 0.0
C484 C 0.1757 0.37405 0.88681 0.0
H485 H 0.16479 0.41942 0.89686 0.0
H486 H 0.17038 0.39236 0.93892 0.0
S487 S 0.18438 0.3645 0.77412 0.0
N488 N 0.18014 0.38654 0.7771 0.0
N489 N 0.18529 0.35719 0.82261 0.0
C490 C 0.18383 0.37297 0.84358 0.0
C491 C 0.1808 0.38883 0.81902 0.0
C492 C 0.85074 0.62743 0.5912 0.0
C493 C 0.91356 0.61537 0.59004 0.0
C494 C 0.85182 0.64255 0.6169 0.0
C495 C 0.91637 0.64647 0.64183 0.0
H496 H 0.79933 0.62505 0.57261 0.0
H497 H 0.80141 0.6512 0.61746 0.0
S498 S 0.09574 0.61952 0.65078 0.0
N499 N 0.04224 0.60847 0.61669 0.0
N500 N 0.04465 0.63729 0.66434 0.0
C501 C 0.98016 0.63482 0.64075 0.0
C502 C 0.97861 0.61915 0.61506 0.0
C503 C 0.82481 0.14305 0.65299 0.0
C504 C 0.80766 0.12555 0.63937 0.0
C505 C 0.81794 0.15779 0.62621 0.0
C506 C 0.79514 0.15545 0.58471 0.0
H507 H 0.84645 0.14533 0.68418 0.0
H508 H 0.83571 0.17083 0.63727 0.0
S509 S 0.73537 0.11293 0.53478 0.0
N510 N 0.75884 0.10716 0.58273 0.0
N511 N 0.7492 0.13476 0.53199 0.0
C512 C 0.77357 0.13825 0.57137 0.0
C513 C 0.77884 0.12331 0.59884 0.0
C514 C 0.92122 0.14778 0.09058 0.0
C515 C 0.92423 0.1463 0.13399 0.0
C516 C 0.92099 0.13243 0.06547 0.0
C517 C 0.92604 0.11517 0.0829 0.0
H518 H 0.914 0.16075 0.0761 0.0
H519 H 0.91415 0.13407 0.03219 0.0
S520 S 0.94566 0.10452 0.19492 0.0
N521 N 0.93829 0.12653 0.19343 0.0
N522 N 0.94231 0.09774 0.14605 0.0
C523 C 0.9353 0.11366 0.1261 0.0
C524 C 0.93306 0.12924 0.15174 0.0
C525 C 0.82912 0.62426 0.10091 0.0
C526 C 0.81077 0.62626 0.14314 0.0
C527 C 0.83077 0.63911 0.07427 0.0
C528 C 0.81217 0.65639 0.08868 0.0
H529 H 0.84622 0.61133 0.08886 0.0
H530 H 0.8484 0.63707 0.04227 0.0
S531 S 0.75081 0.66807 0.1959 0.0
N532 N 0.76865 0.64638 0.19784 0.0
N533 N 0.76766 0.67419 0.14736 0.0
C534 C 0.78871 0.65829 0.13033 0.0
C535 C 0.78923 0.64324 0.15771 0.0
C536 C 0.58258 0.39688 0.83747 0.0
C537 C 0.58456 0.39412 0.88058 0.0
C538 C 0.58373 0.38226 0.8101 0.0
C539 C 0.58681 0.36456 0.82519 0.0
H540 H 0.59117 0.41018 0.82491 0.0
H541 H 0.59272 0.38486 0.77729 0.0
S542 S 0.57156 0.35061 0.93519 0.0
N543 N 0.57286 0.37269 0.93692 0.0
N544 N 0.57493 0.34522 0.88538 0.0
C545 C 0.57555 0.36175 0.86782 0.0
C546 C 0.57465 0.37661 0.89566 0.0
C547 C 0.66106 0.87453 0.84566 0.0
C548 C 0.6515 0.87516 0.88894 0.0
C549 C 0.66323 0.89038 0.82229 0.0
C550 C 0.65568 0.90723 0.84156 0.0
H551 H 0.65668 0.86187 0.8294 0.0
H552 H 0.66067 0.88936 0.78868 0.0
S553 S 0.64657 0.91586 0.95464 0.0
N554 N 0.64864 0.89383 0.9507 0.0
N555 N 0.65188 0.92359 0.90657 0.0
C556 C 0.65732 0.90801 0.88502 0.0
C557 C 0.65535 0.89191 0.90882 0.0
C558 C 0.55131 0.85976 0.38028 0.0
C559 C 0.54616 0.86275 0.33733 0.0
C560 C 0.5598 0.87421 0.40774 0.0
C561 C 0.56254 0.89196 0.39293 0.0
H562 H 0.56168 0.84638 0.39197 0.0
H563 H 0.57479 0.87136 0.43979 0.0
S564 S 0.52427 0.90661 0.28508 0.0
N565 N 0.52306 0.88453 0.28275 0.0
N566 N 0.53924 0.91171 0.33445 0.0
C567 C 0.54208 0.89509 0.35144 0.0
C568 C 0.53333 0.88038 0.32352 0.0
C569 C 0.63808 0.39099 0.40019 0.0
C570 C 0.63855 0.37413 0.38053 0.0
C571 C 0.63907 0.40688 0.37697 0.0
C572 C 0.64037 0.40634 0.3334 0.0
H573 H 0.62863 0.39189 0.43345 0.0
H574 H 0.62933 0.41945 0.39293 0.0
S575 S 0.65575 0.3658 0.26756 0.0
N576 N 0.65173 0.35796 0.31556 0.0
N577 N 0.65336 0.38782 0.27175 0.0
C578 C 0.65046 0.38967 0.31377 0.0
C579 C 0.64966 0.3735 0.33743 0.0
C580 C 0.37615 0.62773 0.07209 0.0
C581 C 0.42615 0.61306 0.0783 0.0
C582 C 0.38241 0.64327 0.09612 0.0
C583 C 0.4395 0.64487 0.12689 0.0
H584 H 0.32995 0.62707 0.04931 0.0
H585 H 0.34014 0.65382 0.09174 0.0
S586 S 0.58836 0.61118 0.15419 0.0
N587 N 0.53773 0.60168 0.1165 0.0
N588 N 0.54899 0.63107 0.16169 0.0
C589 C 0.49183 0.63072 0.13261 0.0
C590 C 0.48542 0.61478 0.10822 0.0
C591 C 0.28075 0.13347 0.06986 0.0
C592 C 0.28187 0.15144 0.08301 0.0
C593 C 0.27808 0.1194 0.09861 0.0
C594 C 0.27887 0.12284 0.1415 0.0
H595 H 0.28451 0.13024 0.03707 0.0
H596 H 0.28032 0.10579 0.08716 0.0
S597 S 0.2741 0.16743 0.19199 0.0
N598 N 0.2761 0.17186 0.14167 0.0
N599 N 0.27461 0.1454 0.19589 0.0
C600 C 0.27613 0.14071 0.15505 0.0
C601 C 0.27663 0.15504 0.12573 0.0
C602 C 0.46048 0.12066 0.59893 0.0
C603 C 0.39041 0.11248 0.58673 0.0
C604 C 0.46048 0.13702 0.62081 0.0
C605 C 0.3904 0.14545 0.6319 0.0
H606 H 0.5155 0.11461 0.59079 0.0
H607 H 0.51546 0.1429 0.62983 0.0
S608 S 0.19156 0.12946 0.60752 0.0
N609 N 0.24938 0.11418 0.58735 0.0
N610 N 0.24956 0.14447 0.62878 0.0
C611 C 0.32027 0.13732 0.62005 0.0
C612 C 0.32024 0.12094 0.59743 0.0
C613 C 0.3209 0.63456 0.56664 0.0
C614 C 0.30845 0.65238 0.57917 0.0
C615 C 0.31613 0.62041 0.59514 0.0
C616 C 0.30124 0.62371 0.63733 0.0
H617 H 0.33651 0.63156 0.53475 0.0
H618 H 0.32867 0.607 0.58448 0.0
S619 S 0.25571 0.66748 0.68537 0.0
N620 N 0.27185 0.67217 0.63592 0.0
N621 N 0.26749 0.64565 0.68989 0.0
C622 C 0.28507 0.64127 0.64996 0.0
C623 C 0.28735 0.65561 0.62072 0.0
C624 C 0.37007 0.31452 0.4005 0.0
C625 C 0.4405 0.31024 0.38038 0.0
C626 C 0.29873 0.31204 0.38066 0.0
C627 C 0.29622 0.30527 0.3402 0.0
H628 H 0.36991 0.32035 0.43135 0.0
H629 H 0.2461 0.3165 0.39591 0.0
S630 S 0.46183 0.29005 0.27574 0.0
N631 N 0.50194 0.29735 0.3192 0.0
N632 N 0.36748 0.29288 0.28172 0.0
C633 C 0.36534 0.29998 0.32065 0.0
C634 C 0.43782 0.30242 0.3408 0.0
C635 C 0.88297 0.96511 0.33263 0.0
C636 C 0.95072 0.95555 0.34182 0.0
C637 C 0.81352 0.9613 0.35321 0.0
C638 C 0.80978 0.94762 0.38311 0.0
H639 H 0.88331 0.97528 0.30862 0.0
H640 H 0.76264 0.96914 0.34562 0.0
S641 S 0.97152 0.91788 0.41539 0.0
N642 N 0.01055 0.93155 0.38091 0.0
N643 N 0.87982 0.92403 0.41959 0.0
C644 C 0.87758 0.93787 0.39222 0.0
C645 C 0.9483 0.94193 0.37152 0.0
C646 C 0.44782 0.9621 0.88085 0.0
C647 C 0.44472 0.96447 0.83773 0.0
C648 C 0.37953 0.95977 0.90362 0.0
C649 C 0.30648 0.96007 0.88394 0.0
H650 H 0.50315 0.96114 0.8967 0.0
H651 H 0.38412 0.95742 0.93678 0.0
S652 S 0.26831 0.96757 0.77201 0.0
N653 N 0.36377 0.96815 0.77632 0.0
N654 N 0.23504 0.96409 0.81949 0.0
C655 C 0.30268 0.96337 0.84116 0.0
C656 C 0.37214 0.96548 0.81791 0.0
C657 C 0.86494 0.29731 0.83888 0.0
C658 C 0.81047 0.31122 0.83878 0.0
C659 C 0.93776 0.29971 0.85732 0.0
C660 C 0.95735 0.31609 0.8759 0.0
H661 H 0.85218 0.28477 0.82338 0.0
H662 H 0.97843 0.28867 0.85749 0.0
S663 S 0.83498 0.35676 0.88184 0.0
N664 N 0.7805 0.34182 0.8578 0.0
N665 N 0.91761 0.34651 0.89206 0.0
C666 C 0.90305 0.33005 0.87591 0.0
C667 C 0.82928 0.32756 0.85734 0.0
C668 C 0.68141 0.69227 0.5777 0.0
C669 C 0.7103 0.69898 0.61519 0.0
C670 C 0.60181 0.69229 0.56985 0.0
C671 C 0.54808 0.69906 0.59915 0.0
H672 H 0.71998 0.68622 0.55511 0.0
H673 H 0.58234 0.68646 0.54081 0.0
S674 S 0.59598 0.72026 0.69999 0.0
N675 N 0.68056 0.71418 0.68047 0.0
N676 N 0.53036 0.71402 0.6655 0.0
C677 C 0.57657 0.70653 0.63601 0.0
C678 C 0.65785 0.70659 0.64399 0.0
C679 C 0.10853 0.0826 0.64136 0.0
C680 C 0.05165 0.0761 0.61364 0.0
C681 C 0.18673 0.07817 0.63678 0.0
C682 C 0.21147 0.06714 0.60412 0.0
H683 H 0.09252 0.0911 0.66727 0.0
H684 H 0.22812 0.08372 0.65863 0.0
S685 S 0.08588 0.04656 0.52293 0.0
N686 N 0.02539 0.05805 0.55242 0.0
N687 N 0.17272 0.04973 0.54329 0.0
C688 C 0.15533 0.06063 0.57584 0.0
C689 C 0.07545 0.06518 0.58059 0.0
C690 C 0.55191 0.06982 0.08491 0.0
C691 C 0.52679 0.07864 0.121 0.0
C692 C 0.63096 0.06715 0.07734 0.0
C693 C 0.68787 0.07318 0.10558 0.0
H694 H 0.5103 0.06464 0.0627 0.0
H695 H 0.64756 0.06027 0.04905 0.0
S696 S 0.65287 0.09816 0.20335 0.0
N697 N 0.56547 0.0942 0.18447 0.0
N698 N 0.71398 0.08903 0.17003 0.0
C699 C 0.66374 0.08216 0.14159 0.0
C700 C 0.58326 0.08497 0.14927 0.0
C701 C 0.09838 0.70656 0.07877 0.0
C702 C 0.04447 0.69817 0.10549 0.0
C703 C 0.17817 0.7035 0.08259 0.0
C704 C 0.2066 0.69192 0.11321 0.0
H705 H 0.07872 0.71555 0.05456 0.0
H706 H 0.21773 0.71055 0.06214 0.0
S707 S 0.08931 0.66544 0.18843 0.0
N708 N 0.02484 0.6771 0.16194 0.0
N709 N 0.17462 0.67115 0.16919 0.0
C710 C 0.15314 0.68318 0.13962 0.0
C711 C 0.07213 0.6864 0.13588 0.0
C712 C 0.37375 0.81242 0.89855 0.0
C713 C 0.44803 0.81225 0.8802 0.0
C714 C 0.30723 0.80972 0.8747 0.0
C715 C 0.31335 0.80708 0.83181 0.0
H716 H 0.3667 0.81504 0.93148 0.0
H717 H 0.25087 0.81074 0.88948 0.0
S718 S 0.49412 0.80355 0.76966 0.0
N719 N 0.52411 0.80761 0.81752 0.0
N720 N 0.39843 0.80284 0.77215 0.0
C721 C 0.38723 0.80593 0.8134 0.0
C722 C 0.455 0.80843 0.8378 0.0
C723 C 0.87878 0.45106 0.90399 0.0
C724 C 0.806 0.45345 0.88473 0.0
C725 C 0.94768 0.45473 0.8827 0.0
C726 C 0.94541 0.46061 0.84145 0.0
H727 H 0.88271 0.44617 0.93564 0.0
H728 H 0.00271 0.4521 0.8978 0.0
S729 S 0.77079 0.47003 0.77786 0.0
N730 N 0.73625 0.46305 0.82294 0.0
N731 N 0.86619 0.46957 0.78251 0.0
C732 C 0.8734 0.46358 0.82225 0.0
C733 C 0.80336 0.46009 0.84404 0.0
C734 C 0.36485 0.46456 0.3209 0.0
C735 C 0.43911 0.46202 0.33787 0.0
C736 C 0.29839 0.46124 0.34446 0.0
C737 C 0.3045 0.45484 0.38529 0.0
H738 H 0.35817 0.46888 0.28892 0.0
H739 H 0.24207 0.46329 0.33028 0.0
S740 S 0.48687 0.44599 0.44356 0.0
N741 N 0.51594 0.45305 0.39746 0.0
N742 N 0.39111 0.44639 0.4421 0.0
C743 C 0.37886 0.45243 0.40275 0.0
C744 C 0.44638 0.45617 0.37892 0.0
C745 C 0.83716 0.79779 0.34424 0.0
C746 C 0.79158 0.81314 0.33865 0.0
C747 C 0.91135 0.7991 0.3618 0.0
C748 C 0.94078 0.81576 0.37443 0.0
H749 H 0.81638 0.78486 0.33382 0.0
H750 H 0.94506 0.78703 0.36635 0.0
S751 S 0.84333 0.85973 0.36627 0.0
N752 N 0.78046 0.8453 0.34685 0.0
N753 N 0.91945 0.84776 0.38015 0.0
C754 C 0.89535 0.8311 0.3692 0.0
C755 C 0.8206 0.82979 0.35113 0.0
C756 C 0.66589 0.18993 0.07009 0.0
C757 C 0.696 0.19775 0.10618 0.0
C758 C 0.58585 0.18965 0.06305 0.0
C759 C 0.53322 0.19722 0.09182 0.0
H760 H 0.7039 0.18327 0.04817 0.0
H761 H 0.56514 0.183 0.03524 0.0
S762 S 0.58509 0.22155 0.18837 0.0
N763 N 0.66888 0.21484 0.16902 0.0
N764 N 0.51822 0.21426 0.15573 0.0
C765 C 0.56321 0.20584 0.12705 0.0
C766 C 0.64469 0.20616 0.13417 0.0
C767 C 0.18358 0.58134 0.13954 0.0
C768 C 0.20724 0.56976 0.10766 0.0
C769 C 0.10485 0.58491 0.14615 0.0
C770 C 0.04698 0.57709 0.12101 0.0
H771 H 0.22609 0.5881 0.15879 0.0
H772 H 0.08924 0.59399 0.17105 0.0
S773 S 0.07803 0.54461 0.03558 0.0
N774 N 0.16607 0.54956 0.05221 0.0
N775 N 0.01833 0.55651 0.06462 0.0
C776 C 0.06966 0.56525 0.0895 0.0
C777 C 0.1497 0.56148 0.08294 0.0
C778 C 0.67929 0.57529 0.64688 0.0
C779 C 0.70829 0.57378 0.60638 0.0
C780 C 0.59994 0.5776 0.6539 0.0
C781 C 0.54648 0.57862 0.62064 0.0
H782 H 0.71785 0.5744 0.67341 0.0
H783 H 0.58055 0.57835 0.6859 0.0
S784 S 0.59455 0.57718 0.50829 0.0
N785 N 0.67855 0.5747 0.53219 0.0
N786 N 0.5293 0.57901 0.54561 0.0
C787 C 0.5751 0.57761 0.57989 0.0
C788 C 0.65598 0.57522 0.57271 0.0
C789 C 0.09802 0.19921 0.5635 0.0
C790 C 0.04322 0.19768 0.59604 0.0
C791 C 0.17763 0.1976 0.57094 0.0
C792 C 0.20524 0.19457 0.61123 0.0
H793 H 0.07947 0.20168 0.53183 0.0
H794 H 0.21765 0.19902 0.54516 0.0
S795 S 0.08661 0.18823 0.70676 0.0
N796 N 0.02262 0.19211 0.6697 0.0
N797 N 0.17223 0.18911 0.68388 0.0
C798 C 0.15129 0.19278 0.644 0.0
C799 C 0.07029 0.19438 0.6364 0.0
C800 C 0.04078 0.24805 0.17659 0.0
C801 C 0.97346 0.2398 0.19218 0.0
C802 C 0.06811 0.26416 0.1933 0.0
C803 C 0.02874 0.2729 0.22587 0.0
H804 H 0.07434 0.24172 0.15218 0.0
H805 H 0.12151 0.26967 0.1809 0.0
S806 S 0.84596 0.25785 0.27553 0.0
N807 N 0.86519 0.24224 0.24068 0.0
N808 N 0.91659 0.27271 0.27156 0.0
C809 C 0.95947 0.26532 0.24057 0.0
C810 C 0.93197 0.24871 0.22393 0.0
C811 C 0.17251 1.003 0.19275 0.0
C812 C 0.20872 0.99497 0.22721 0.0
C813 C 0.19696 0.01962 0.17755 0.0
C814 C 0.25789 0.02909 0.19663 0.0
H815 H 0.12371 0.99652 0.17771 0.0
H816 H 0.16578 0.02533 0.15149 0.0
S817 S 0.37466 0.01336 0.28675 0.0
N818 N 0.31098 0.99719 0.27885 0.0
N819 N 0.35675 0.02863 0.25091 0.0
C820 C 0.29634 0.02092 0.23046 0.0
C821 C 0.27194 1.00379 0.24553 0.0
C822 C 0.01928 0.01032 0.04811 0.0
C823 C 0.96564 0.02068 0.02557 0.0
C824 C 0.04789 0.99416 0.03225 0.0
C825 C 0.0231 0.98746 -0.00642 0.0
H826 H 0.04184 0.01499 0.07762 0.0
H827 H 0.09145 0.98705 0.05003 0.0
S828 S 0.88048 1.00856 0.9229 0.0
N829 N 0.88631 0.02243 0.96277 0.0
N830 N 0.93989 0.99187 0.93369 0.0
C831 C 0.96698 0.99711 0.97147 0.0
C832 C 0.93841 0.01376 -0.01275 0.0
C833 C 0.24564 0.25792 0.03446 0.0
C834 C 0.26978 0.24394 0.00805 0.0
C835 C 0.22642 0.2748 0.01866 0.0
C836 C 0.23173 0.27851 0.97598 0.0
H837 H 0.23953 0.25574 0.0676 0.0
H838 H 0.20485 0.2849 0.03991 0.0
S839 S 0.29226 0.24709 0.89317 0.0
N840 N 0.29875 0.23531 0.93648 0.0
N841 N 0.2631 0.26723 0.90736 0.0
C842 C 0.25806 0.26503 0.94922 0.0
C843 C 0.27708 0.24771 0.96513 0.0
C844 C 0.96491 0.74673 0.73535 0.0
C845 C 0.98615 0.74026 0.69558 0.0
C846 C 0.98818 0.76376 0.74927 0.0
C847 C 0.03383 0.77487 0.72402 0.0
H848 H 0.93178 0.73842 0.75648 0.0
H849 H 0.97395 0.76782 0.7807 0.0
S850 S 0.09724 0.76576 0.61605 0.0
N851 N 0.04966 0.74753 0.6299 0.0
N852 N 0.09383 0.77922 0.65664 0.0
C853 C 0.05216 0.76907 0.68371 0.0
C854 C 0.02823 0.75186 0.66932 0.0
C855 C 0.69135 1.00595 0.69444 0.0
C856 C 0.7243 0.99841 0.73044 0.0
C857 C 0.71862 0.02208 0.6779 0.0
C858 C 0.77948 0.03158 0.69698 0.0
H859 H 0.64274 0.99948 0.6792 0.0
H860 H 0.68963 0.02742 0.65072 0.0
S861 S 0.88923 0.0169 0.7906 0.0
N862 N 0.82391 1.001 0.78343 0.0
N863 N 0.87531 0.03153 0.75286 0.0
C864 C 0.8151 0.02382 0.73226 0.0
C865 C 0.78762 1.00718 0.7488 0.0
C866 C 0.77166 0.77529 0.98373 0.0
C867 C 0.70751 0.78403 0.00133 0.0
C868 C 0.79656 0.75864 -0.0009 0.0
C869 C 0.75885 0.75029 0.03296 0.0
H870 H 0.80041 0.78091 0.95676 0.0
H871 H 0.84498 0.75213 -0.01613 0.0
S872 S 0.59146 0.76866 0.09187 0.0
N873 N 0.6099 0.78383 0.05594 0.0
N874 N 0.65603 0.75269 0.08454 0.0
C875 C 0.6967 0.75939 0.05184 0.0
C876 C 0.67125 0.77621 0.03609 0.0
C877 C 0.19894 0.52406 0.68659 0.0
C878 C 0.26886 0.53176 0.70007 0.0
C879 C 0.17206 0.50795 0.7033 0.0
C880 C 0.2141 0.49871 0.73408 0.0
H881 H 0.1632 0.53079 0.66376 0.0
H882 H 0.1171 0.50281 0.6921 0.0
S883 S 0.40208 0.51284 0.77952 0.0
N884 N 0.38091 0.52874 0.74571 0.0
N885 N 0.33021 0.49824 0.77689 0.0
C886 C 0.28508 0.50598 0.74734 0.0
C887 C 0.31232 0.52258 0.73052 0.0
C888 C 0.9833 0.49701 0.48145 0.0
C889 C 0.04519 0.48769 0.49972 0.0
C890 C 0.96055 0.51387 0.49657 0.0
C891 C -0.00203 0.52191 0.53096 0.0
H892 H 0.95425 0.49158 0.45437 0.0
H893 H 0.91341 0.5207 0.48098 0.0
S894 S 0.16013 0.50218 0.59139 0.0
N895 N 0.14111 0.4872 0.55512 0.0
N896 N 0.09806 0.51865 0.58372 0.0
C897 C 0.05807 0.51233 0.55038 0.0
C898 C 0.08171 0.49531 0.5347 0.0
C899 C 0.19166 0.75032 0.52245 0.0
C900 C 0.26504 0.74375 0.51137 0.0
C901 C 0.16382 0.76642 0.50631 0.0
C902 C 0.20837 0.7768 0.4786 0.0
H903 H 0.15446 0.74274 0.54314 0.0
H904 H 0.10641 0.77072 0.51571 0.0
S905 S 0.40564 0.76574 0.44032 0.0
N906 N 0.38271 0.7489 0.47124 0.0
N907 N 0.33047 0.77943 0.44115 0.0
C908 C 0.28247 0.77054 0.46754 0.0
C909 C 0.31065 0.75393 0.48373 0.0
C910 C 0.67061 0.5091 0.19832 0.0
C911 C 0.71026 0.49937 0.22919 0.0
C912 C 0.69848 0.52549 0.18363 0.0
C913 C 0.76682 0.53312 0.19957 0.0
H914 H 0.61654 0.50413 0.18556 0.0
H915 H 0.6646 0.53248 0.16039 0.0
S916 S 0.89436 0.51286 0.27994 0.0
N917 N 0.82308 0.49825 0.27437 0.0
N918 N 0.8754 0.52934 0.24728 0.0
C919 C 0.80815 0.52342 0.23003 0.0
C920 C 0.78006 0.50647 0.24462 0.0
C921 C 0.75898 0.24892 0.46733 0.0
C922 C 0.78492 0.24798 0.50884 0.0
C923 C 0.73598 0.26523 0.44963 0.0
C924 C 0.73999 0.28122 0.47239 0.0
H925 H 0.75245 0.23683 0.44906 0.0
H926 H 0.71123 0.26519 0.41864 0.0
S927 S 0.81271 0.28653 0.58004 0.0
N928 N 0.82015 0.26485 0.57076 0.0
N929 N 0.77646 0.29546 0.53727 0.0
C930 C 0.76975 0.28068 0.51297 0.0
C931 C 0.79251 0.26406 0.53123 0.0
C932 C 0.50222 0.2613 0.74295 0.0
C933 C 0.55956 0.27105 0.72183 0.0
C934 C 0.47731 0.24458 0.72811 0.0
C935 C 0.50777 0.23712 0.69115 0.0
H936 H 0.47824 0.26635 0.7718 0.0
H937 H 0.43358 0.23749 0.74585 0.0
S938 S 0.6544 0.25838 0.62256 0.0
N939 N 0.64338 0.2727 0.6612 0.0
N940 N 0.59555 0.24152 0.63278 0.0
C941 C 0.56335 0.24713 0.66908 0.0
C942 C 0.5895 0.264 0.68457 0.0
C943 C 0.54959 0.00916 0.54441 0.0
C944 C 0.51267 0.0217 0.51836 0.0
C945 C 0.57213 0.99229 0.52942 0.0
C946 C 0.55711 0.98715 0.48815 0.0
H947 H 0.56098 0.0123 0.57672 0.0
H948 H 0.60108 0.98313 0.55041 0.0
S949 S 0.46847 0.01506 0.40593 0.0
N950 N 0.46712 0.02784 0.4478 0.0
N951 N 0.50771 0.99596 0.42073 0.0
C952 C 0.52128 0.99944 0.46158 0.0
C953 C 0.49959 0.01675 0.4764 0.0
C954 C 0.46946 0.76449 0.22795 0.0
C955 C 0.54777 0.76982 0.226 0.0
C956 C 0.445 0.74799 0.21132 0.0
C957 C 0.49768 0.73639 0.19149 0.0
H958 H 0.42676 0.77305 0.24257 0.0
H959 H 0.3843 0.74434 0.21369 0.0
S960 S 0.70982 0.7431 0.18127 0.0
N961 N 0.67865 0.76138 0.20468 0.0
N962 N 0.63182 0.73077 0.17306 0.0
C963 C 0.57594 0.74144 0.18961 0.0
C964 C 0.60117 0.75805 0.20694 0.0
C965 C 0.47864 0.49326 0.9805 0.0
C966 C 0.54179 0.48434 -0.00146 0.0
C967 C 0.45447 0.51 -0.00444 0.0
C968 C 0.49183 0.51832 0.0296 0.0
H969 H 0.44984 0.48766 0.95352 0.0
H970 H 0.40665 0.51658 0.97996 0.0
S971 S 0.65627 0.49947 0.08984 0.0
N972 N 0.63816 0.48435 0.05377 0.0
N973 N 0.59267 0.51563 0.08218 0.0
C974 C 0.55286 0.50906 0.04902 0.0
C975 C 0.57783 0.49214 0.03345 0.0
C976 C 0.08381 0.33829 0.1385 0.0
C977 C 0.15996 0.33523 0.15191 0.0
C978 C 0.06694 0.33969 0.09638 0.0
C979 C 0.12561 0.33784 0.06626 0.0
H980 H 0.03666 0.33943 0.16066 0.0
H981 H 0.00691 0.34165 0.0875 0.0
S982 S 0.33536 0.33039 0.08592 0.0
N983 N 0.29531 0.33096 0.13253 0.0
N984 N 0.26359 0.33358 0.0528 0.0
C985 C 0.2026 0.33527 0.07936 0.0
C986 C 0.21983 0.33398 0.1224 0.0
C987 C 0.07378 0.92535 0.07882 0.0
C988 C 0.15256 0.92465 0.06754 0.0
C989 C 0.05193 0.92649 0.12036 0.0
C990 C 0.10824 0.9271 0.15176 0.0
H991 H 0.02867 0.92588 0.05538 0.0
H992 H 0.99087 0.92796 0.12768 0.0
S993 S 0.32089 0.92222 0.13942 0.0
N994 N 0.28643 0.92207 0.09152 0.0
N995 N 0.24454 0.9243 0.17005 0.0
C996 C 0.18663 0.9249 0.14136 0.0
C997 C 0.20905 0.92357 0.09902 0.0
C998 C 0.9325 0.6866 0.84653 0.0
C999 C 0.86655 0.68651 0.82113 0.0
C1000 C 0.92551 0.68888 0.8894 0.0
C1001 C 0.85231 0.69094 0.90832 0.0
H1002 H 0.99001 0.68548 0.83315 0.0
H1003 H 0.97818 0.68915 0.9078 0.0
S1004 S 0.66128 0.69028 0.85571 0.0
N1005 N 0.72514 0.68767 0.81792 0.0
N1006 N 0.71257 0.69187 0.89891 0.0
C1007 C 0.78568 0.69018 0.88353 0.0
C1008 C 0.7927 0.68801 0.83976 0.0
C1009 C 0.80809 0.08322 0.84031 0.0
C1010 C 0.87617 0.0855 0.8171 0.0
C1011 C 0.81153 0.08039 0.88312 0.0
C1012 C 0.88313 0.07991 0.90419 0.0
H1013 H 0.75186 0.08317 0.82524 0.0
H1014 H 0.7574 0.07858 0.89974 0.0
S1015 S 0.07817 0.08598 0.85763 0.0
N1016 N 0.0174 0.08771 0.81818 0.0
N1017 N 0.02349 0.0824 0.89894 0.0
C1018 C 0.95164 0.08253 0.88149 0.0
C1019 C 0.94823 0.08534 0.83782 0.0
C1020 C 0.08003 0.83904 0.63513 0.0
C1021 C 0.1586 0.83871 0.64666 0.0
C1022 C 0.05871 0.84002 0.59349 0.0
C1023 C 0.11532 0.84049 0.56213 0.0
H1024 H 0.03457 0.83805 0.65831 0.0
H1025 H 0.9975 0.83953 0.58582 0.0
S1026 S 0.32872 0.84198 0.57606 0.0
N1027 N 0.29334 0.84048 0.62363 0.0
N1028 N 0.25258 0.84228 0.54496 0.0
C1029 C 0.19397 0.84115 0.57318 0.0
C1030 C 0.21583 0.8403 0.61565 0.0
C1031 C 0.06625 0.42422 0.62853 0.0
C1032 C 0.12054 0.43118 0.65698 0.0
C1033 C 0.08542 0.42198 0.58686 0.0
C1034 C 0.15975 0.42631 0.57248 0.0
H1035 H 0.00741 0.42112 0.63797 0.0
H1036 H 0.04116 0.4173 0.5655 0.0
S1037 S 0.32476 0.4438 0.63422 0.0
N1038 N 0.25341 0.44147 0.66805 0.0
N1039 N 0.28919 0.43709 0.58919 0.0
C1040 C 0.21593 0.43243 0.60064 0.0
C1041 C 0.19631 0.43493 0.64311 0.0
C1042 C 0.79262 0.18921 0.33047 0.0
C1043 C 0.86162 0.18339 0.31114 0.0
C1044 C 0.78563 0.18949 0.37369 0.0
C1045 C 0.84761 0.18407 0.39871 0.0
H1046 H 0.74424 0.19409 0.31222 0.0
H1047 H 0.73307 0.19477 0.38751 0.0
S1048 S 0.03593 0.16529 0.36382 0.0
N1049 N 0.9897 0.17032 0.32043 0.0
N1050 N 0.97663 0.17093 0.40194 0.0
C1051 C 0.91515 0.17729 0.37995 0.0
C1052 C 0.92221 0.17694 0.33599 0.0
C1053 C 0.93963 0.5852 0.38651 0.0
C1054 C 0.87418 0.58105 0.41051 0.0
C1055 C 0.93312 0.58782 0.34373 0.0
C1056 C 0.86083 0.58658 0.32356 0.0
H1057 H 0.99661 0.58603 0.40062 0.0
H1058 H 0.98556 0.59058 0.32626 0.0
S1059 S 0.67076 0.57742 0.37303 0.0
N1060 N 0.73382 0.57681 0.41165 0.0
N1061 N 0.72198 0.58184 0.33086 0.0
C1062 C 0.79439 0.58313 0.34735 0.0
C1063 C 0.80102 0.58028 0.39098 0.0
C1064 C 0.56134 0.33945 0.59324 0.0
C1065 C 0.61739 0.34021 0.56158 0.0
C1066 C 0.58332 0.33762 0.63459 0.0
C1067 C 0.66197 0.33669 0.64559 0.0
H1068 H 0.49992 0.33943 0.58604 0.0
H1069 H 0.53825 0.33661 0.658 0.0
S1070 S 0.83135 0.33995 0.5747 0.0
N1071 N 0.75487 0.34139 0.54401 0.0
N1072 N 0.79639 0.33782 0.62223 0.0
C1073 C 0.71883 0.33838 0.61453 0.0
C1074 C 0.69643 0.34017 0.57232 0.0
C1075 C 0.66957 0.94263 0.59198 0.0
C1076 C 0.65413 0.92614 0.5731 0.0
C1077 C 0.65395 0.94517 0.63396 0.0
C1078 C 0.62109 0.93135 0.65765 0.0
H1079 H 0.69262 0.95369 0.57397 0.0
H1080 H 0.66452 0.95824 0.64746 0.0
S1081 S 0.57424 0.88542 0.62221 0.0
N1082 N 0.60868 0.89558 0.58043 0.0
N1083 N 0.57698 0.90041 0.65999 0.0
C1084 C 0.60709 0.91464 0.63919 0.0
C1085 C 0.62429 0.91199 0.59652 0.0
C1086 C 0.31982 0.67959 0.37275 0.0
C1087 C 0.38281 0.68506 0.39718 0.0
C1088 C 0.32793 0.67767 0.32987 0.0
C1089 C 0.39935 0.68103 0.31014 0.0
H1090 H 0.26354 0.67709 0.38662 0.0
H1091 H 0.27732 0.67386 0.3119 0.0
S1092 S 0.58306 0.69497 0.36003 0.0
N1093 N 0.52029 0.69324 0.39861 0.0
N1094 N 0.53449 0.68951 0.31766 0.0
C1095 C 0.46353 0.68587 0.33414 0.0
C1096 C 0.45542 0.68797 0.37783 0.0
C1097 C 0.41513 0.08531 0.38405 0.0
C1098 C 0.35364 0.07898 0.40846 0.0
C1099 C 0.40583 0.08779 0.34146 0.0
C1100 C 0.33453 0.08419 0.32189 0.0
H1101 H 0.47159 0.0879 0.39762 0.0
H1102 H 0.45561 0.09221 0.32359 0.0
S1103 S 0.15332 0.06894 0.37266 0.0
N1104 N 0.21724 0.0703 0.4108 0.0
N1105 N 0.20006 0.07507 0.33012 0.0
C1106 C 0.27138 0.07866 0.34611 0.0
C1107 C 0.28097 0.07596 0.38962 0.0
C1108 C 0.64503 0.84922 0.08346 0.0
C1109 C 0.56994 0.84519 0.06964 0.0
C1110 C 0.66436 0.8475 0.12515 0.0
C1111 C 0.60933 0.84149 0.15426 0.0
H1112 H 0.6901 0.85298 0.0616 0.0
H1113 H 0.724 0.85002 0.13408 0.0
S1114 S 0.40183 0.83146 0.13412 0.0
N1115 N 0.43804 0.83668 0.08814 0.0
N1116 N 0.47447 0.8334 0.16729 0.0
C1117 C 0.5325 0.83857 0.14127 0.0
C1118 C 0.51265 0.84049 0.09866 0.0
C1119 C 0.57705 0.42034 0.08233 0.0
C1120 C 0.65398 0.423 0.06958 0.0
C1121 C 0.55491 0.42376 0.12314 0.0
C1122 C 0.6089 0.43015 0.15238 0.0
H1123 H 0.53295 0.41634 0.06016 0.0
H1124 H 0.49424 0.42214 0.13114 0.0
S1125 S 0.81957 0.4375 0.135 0.0
N1126 N 0.78576 0.43096 0.08944 0.0
N1127 N 0.74429 0.4374 0.16675 0.0
C1128 C 0.68718 0.43184 0.14056 0.0
C1129 C 0.70979 0.4282 0.09895 0.0
C1130 C 0.28971 0.18858 0.82817 0.0
C1131 C 0.35735 0.18159 0.80954 0.0
C1132 C 0.27905 0.18791 0.87119 0.0
C1133 C 0.33598 0.18035 0.89665 0.0
H1134 H 0.24562 0.19512 0.80963 0.0
H1135 H 0.22845 0.19426 0.88469 0.0
S1136 S 0.5177 0.15803 0.86333 0.0
N1137 N 0.47779 0.16519 0.81975 0.0
N1138 N 0.45782 0.16409 0.90084 0.0
C1139 C 0.40137 0.17235 0.87842 0.0
C1140 C 0.4121 0.17293 0.83469 0.0
C1141 C 0.42385 0.58684 0.88415 0.0
C1142 C 0.36926 0.57625 0.90524 0.0
C1143 C 0.41422 0.59089 0.84218 0.0
C1144 C 0.3494 0.58465 0.82006 0.0
H1145 H 0.4746 0.592 0.90002 0.0
H1146 H 0.45867 0.5987 0.82667 0.0
S1147 S 0.19073 0.5561 0.8602 0.0
N1148 N 0.24819 0.55938 0.90059 0.0
N1149 N 0.23056 0.56723 0.82131 0.0
C1150 C 0.29366 0.57432 0.84064 0.0
C1151 C 0.30363 0.57001 0.88339 0.0
loop_
_geom_bond_atom_site_label_1
_geom_bond_atom_site_label_2
_geom_bond_distance
_geom_bond_site_symmetry_2
_ccdc_geom_bond_type
Co0 O1 2.216 . S
Co0 O2 2.091 1_455 S
Co0 O4 2.004 . S
Co0 O10 2.021 . S
Co0 O12 2.137 . S
Co0 O13 2.244 . S
O1 Co0 2.216 . S
O1 C8 1.247 . S
O2 Co0 2.091 1_655 S
O2 C8 1.261 1_655 S
C3 O12 1.247 . S
C3 O13 1.272 . S
O4 Co0 2.004 . S
O4 C9 1.259 . S
Co5 O6 2.061 . S
Co5 O11 2.052 . S
Co5 O13 2.135 . S
O6 Co5 2.061 . S
O6 C9 1.235 . S
C7 O10 1.238 . S
C7 O11 1.241 . S
C8 O1 1.247 . S
C8 O2 1.261 1_455 S
C9 O4 1.259 . S
C9 O6 1.235 . S
O10 Co0 2.021 . S
O10 C7 1.238 . S
O11 Co5 2.052 . S
O11 C7 1.241 . S
O12 Co0 2.137 . S
O12 C3 1.247 . S
O13 Co0 2.244 . S
O13 C3 1.272 . S
O13 Co5 2.135 . S
Co14 O15 2.216 . S
Co14 O16 2.091 . S
Co14 O18 2.004 . S
Co14 O24 2.021 . S
Co14 O26 2.137 . S
Co14 O27 2.244 . S
O15 Co14 2.216 . S
O15 C22 1.247 . S
O16 Co14 2.091 . S
O16 C22 1.261 . S
C17 O26 1.247 . S
C17 O27 1.272 . S
O18 Co14 2.004 . S
O18 C23 1.259 . S
Co19 O20 2.061 . S
Co19 O25 2.052 . S
Co19 O27 2.135 . S
O20 Co19 2.061 . S
O20 C23 1.235 . S
C21 O24 1.238 . S
C21 O25 1.241 . S
C22 O15 1.247 . S
C22 O16 1.261 . S
C23 O18 1.259 . S
C23 O20 1.235 . S
O24 Co14 2.021 . S
O24 C21 1.238 . S
O25 Co19 2.052 . S
O25 C21 1.241 . S
O26 Co14 2.137 . S
O26 C17 1.247 . S
O27 Co14 2.244 . S
O27 C17 1.272 . S
O27 Co19 2.135 . S
Co28 O29 2.216 . S
Co28 O30 2.091 1_455 S
Co28 O32 2.004 . S
Co28 O38 2.021 1_556 S
Co28 O40 2.137 . S
Co28 O41 2.244 . S
O29 Co28 2.216 . S
O29 C36 1.247 . S
O30 Co28 2.091 1_655 S
O30 C36 1.261 1_655 S
C31 O40 1.247 . S
C31 O41 1.272 . S
O32 Co28 2.004 . S
O32 C37 1.259 . S
Co33 O34 2.061 . S
Co33 O39 2.052 1_556 S
Co33 O41 2.135 . S
O34 Co33 2.061 . S
O34 C37 1.235 . S
C35 O38 1.238 . S
C35 O39 1.241 . S
C36 O29 1.247 . S
C36 O30 1.261 1_455 S
C37 O32 1.259 . S
C37 O34 1.235 . S
O38 Co28 2.021 1_554 S
O38 C35 1.238 . S
O39 Co33 2.052 1_554 S
O39 C35 1.241 . S
O40 Co28 2.137 . S
O40 C31 1.247 . S
O41 Co28 2.244 . S
O41 C31 1.272 . S
O41 Co33 2.135 . S
Co42 O43 2.216 . S
Co42 O44 2.091 . S
Co42 O46 2.004 . S
Co42 O52 2.021 1_556 S
Co42 O54 2.137 . S
Co42 O55 2.244 . S
O43 Co42 2.216 . S
O43 C50 1.247 . S
O44 Co42 2.091 . S
O44 C50 1.261 . S
C45 O54 1.247 . S
C45 O55 1.272 . S
O46 Co42 2.004 . S
O46 C51 1.259 . S
Co47 O48 2.061 . S
Co47 O53 2.052 1_556 S
Co47 O55 2.135 . S
O48 Co47 2.061 . S
O48 C51 1.235 . S
C49 O52 1.238 . S
C49 O53 1.241 . S
C50 O43 1.247 . S
C50 O44 1.261 . S
C51 O46 1.259 . S
C51 O48 1.235 . S
O52 Co42 2.021 1_554 S
O52 C49 1.238 . S
O53 Co47 2.052 1_554 S
O53 C49 1.241 . S
O54 Co42 2.137 . S
O54 C45 1.247 . S
O55 Co42 2.244 . S
O55 C45 1.272 . S
O55 Co47 2.135 . S
Co56 O57 2.216 . S
Co56 O58 2.091 . S
Co56 O60 2.004 . S
Co56 O66 2.021 . S
Co56 O68 2.137 . S
Co56 O69 2.244 . S
O57 Co56 2.216 . S
O57 C64 1.247 . S
O58 Co56 2.091 . S
O58 C64 1.261 . S
C59 O68 1.247 . S
C59 O69 1.272 . S
O60 Co56 2.004 . S
O60 C65 1.259 . S
Co61 O62 2.061 . S
Co61 O67 2.052 . S
Co61 O69 2.135 . S
O62 Co61 2.061 . S
O62 C65 1.235 . S
C63 O66 1.238 . S
C63 O67 1.241 . S
C64 O57 1.247 . S
C64 O58 1.261 . S
C65 O60 1.259 . S
C65 O62 1.235 . S
O66 Co56 2.021 . S
O66 C63 1.238 . S
O67 Co61 2.052 . S
O67 C63 1.241 . S
O68 Co56 2.137 . S
O68 C59 1.247 . S
O69 Co56 2.244 . S
O69 C59 1.272 . S
O69 Co61 2.135 . S
Co70 O71 2.216 . S
Co70 O72 2.091 . S
Co70 O74 2.004 . S
Co70 O80 2.021 . S
Co70 O82 2.137 . S
Co70 O83 2.244 . S
O71 Co70 2.216 . S
O71 C78 1.247 . S
O72 Co70 2.091 . S
O72 C78 1.261 . S
C73 O82 1.247 . S
C73 O83 1.272 . S
O74 Co70 2.004 . S
O74 C79 1.259 . S
Co75 O76 2.061 . S
Co75 O81 2.052 . S
Co75 O83 2.135 . S
O76 Co75 2.061 . S
O76 C79 1.235 . S
C77 O80 1.238 . S
C77 O81 1.241 . S
C78 O71 1.247 . S
C78 O72 1.261 . S
C79 O74 1.259 . S
C79 O76 1.235 . S
O80 Co70 2.021 . S
O80 C77 1.238 . S
O81 Co75 2.052 . S
O81 C77 1.241 . S
O82 Co70 2.137 . S
O82 C73 1.247 . S
O83 Co70 2.244 . S
O83 C73 1.272 . S
O83 Co75 2.135 . S
Co84 O85 2.216 1_554 S
Co84 O86 2.091 1_554 S
Co84 O88 2.004 . S
Co84 O94 2.021 . S
Co84 O96 2.137 . S
Co84 O97 2.244 . S
O85 Co84 2.216 1_556 S
O85 C92 1.247 . S
O86 Co84 2.091 1_556 S
O86 C92 1.261 . S
C87 O96 1.247 . S
C87 O97 1.272 . S
O88 Co84 2.004 . S
O88 C93 1.259 . S
Co89 O90 2.061 . S
Co89 O95 2.052 . S
Co89 O97 2.135 . S
O90 Co89 2.061 . S
O90 C93 1.235 . S
C91 O94 1.238 . S
C91 O95 1.241 . S
C92 O85 1.247 . S
C92 O86 1.261 . S
C93 O88 1.259 . S
C93 O90 1.235 . S
O94 Co84 2.021 . S
O94 C91 1.238 . S
O95 Co89 2.052 . S
O95 C91 1.241 . S
O96 Co84 2.137 . S
O96 C87 1.247 . S
O97 Co84 2.244 . S
O97 C87 1.272 . S
O97 Co89 2.135 . S
Co98 O99 2.216 1_554 S
Co98 O100 2.091 1_554 S
Co98 O102 2.004 . S
Co98 O108 2.021 . S
Co98 O110 2.137 . S
Co98 O111 2.244 . S
O99 Co98 2.216 1_556 S
O99 C106 1.247 . S
O100 Co98 2.091 1_556 S
O100 C106 1.261 . S
C101 O110 1.247 . S
C101 O111 1.272 . S
O102 Co98 2.004 . S
O102 C107 1.259 . S
Co103 O104 2.061 . S
Co103 O109 2.052 . S
Co103 O111 2.135 . S
O104 Co103 2.061 . S
O104 C107 1.235 . S
C105 O108 1.238 . S
C105 O109 1.241 . S
C106 O99 1.247 . S
C106 O100 1.261 . S
C107 O102 1.259 . S
C107 O104 1.235 . S
O108 Co98 2.021 . S
O108 C105 1.238 . S
O109 Co103 2.052 . S
O109 C105 1.241 . S
O110 Co98 2.137 . S
O110 C101 1.247 . S
O111 Co98 2.244 . S
O111 C101 1.272 . S
O111 Co103 2.135 . S
Co112 O113 2.216 . S
Co112 O114 2.091 1_455 S
Co112 O116 2.004 . S
Co112 O122 2.021 . S
Co112 O124 2.137 . S
Co112 O125 2.244 . S
O113 Co112 2.216 . S
O113 C120 1.247 . S
O114 Co112 2.091 1_655 S
O114 C120 1.261 1_655 S
C115 O124 1.247 . S
C115 O125 1.272 . S
O116 Co112 2.004 . S
O116 C121 1.259 . S
Co117 O118 2.061 . S
Co117 O123 2.052 . S
Co117 O125 2.135 . S
O118 Co117 2.061 . S
O118 C121 1.235 . S
C119 O122 1.238 . S
C119 O123 1.241 . S
C120 O113 1.247 . S
C120 O114 1.261 1_455 S
C121 O116 1.259 . S
C121 O118 1.235 . S
O122 Co112 2.021 . S
O122 C119 1.238 . S
O123 Co117 2.052 . S
O123 C119 1.241 . S
O124 Co112 2.137 . S
O124 C115 1.247 . S
O125 Co112 2.244 . S
O125 C115 1.272 . S
O125 Co117 2.135 . S
Co126 O127 2.216 . S
Co126 O128 2.091 . S
Co126 O130 2.004 . S
Co126 O136 2.021 . S
Co126 O138 2.137 . S
Co126 O139 2.244 . S
O127 Co126 2.216 . S
O127 C134 1.247 . S
O128 Co126 2.091 . S
O128 C134 1.261 . S
C129 O138 1.247 . S
C129 O139 1.272 . S
O130 Co126 2.004 . S
O130 C135 1.259 . S
Co131 O132 2.061 . S
Co131 O137 2.052 . S
Co131 O139 2.135 . S
O132 Co131 2.061 . S
O132 C135 1.235 . S
C133 O136 1.238 . S
C133 O137 1.241 . S
C134 O127 1.247 . S
C134 O128 1.261 . S
C135 O130 1.259 . S
C135 O132 1.235 . S
O136 Co126 2.021 . S
O136 C133 1.238 . S
O137 Co131 2.052 . S
O137 C133 1.241 . S
O138 Co126 2.137 . S
O138 C129 1.247 . S
O139 Co126 2.244 . S
O139 C129 1.272 . S
O139 Co131 2.135 . S
Co140 O141 2.216 . S
Co140 O142 2.091 1_455 S
Co140 O144 2.004 . S
Co140 O150 2.021 . S
Co140 O152 2.137 . S
Co140 O153 2.244 . S
O141 Co140 2.216 . S
O141 C148 1.247 . S
O142 Co140 2.091 1_655 S
O142 C148 1.261 1_655 S
C143 O152 1.247 . S
C143 O153 1.272 . S
O144 Co140 2.004 . S
O144 C149 1.259 . S
Co145 O146 2.061 . S
Co145 O151 2.052 . S
Co145 O153 2.135 . S
O146 Co145 2.061 . S
O146 C149 1.235 . S
C147 O150 1.238 . S
C147 O151 1.241 . S
C148 O141 1.247 . S
C148 O142 1.261 1_455 S
C149 O144 1.259 . S
C149 O146 1.235 . S
O150 Co140 2.021 . S
O150 C147 1.238 . S
O151 Co145 2.052 . S
O151 C147 1.241 . S
O152 Co140 2.137 . S
O152 C143 1.247 . S
O153 Co140 2.244 . S
O153 C143 1.272 . S
O153 Co145 2.135 . S
Co154 O155 2.216 . S
Co154 O156 2.091 . S
Co154 O158 2.004 . S
Co154 O164 2.021 . S
Co154 O166 2.137 . S
Co154 O167 2.244 . S
O155 Co154 2.216 . S
O155 C162 1.247 . S
O156 Co154 2.091 . S
O156 C162 1.261 . S
C157 O166 1.247 . S
C157 O167 1.272 . S
O158 Co154 2.004 . S
O158 C163 1.259 . S
Co159 O160 2.061 . S
Co159 O165 2.052 . S
Co159 O167 2.135 . S
O160 Co159 2.061 . S
O160 C163 1.235 . S
C161 O164 1.238 . S
C161 O165 1.241 . S
C162 O155 1.247 . S
C162 O156 1.261 . S
C163 O158 1.259 . S
C163 O160 1.235 . S
O164 Co154 2.021 . S
O164 C161 1.238 . S
O165 Co159 2.052 . S
O165 C161 1.241 . S
O166 Co154 2.137 . S
O166 C157 1.247 . S
O167 Co154 2.244 . S
O167 C157 1.272 . S
O167 Co159 2.135 . S
Co168 O169 2.216 . S
Co168 O170 2.091 . S
Co168 O172 2.004 . S
Co168 O178 2.021 . S
Co168 O180 2.137 . S
Co168 O181 2.244 . S
O169 Co168 2.216 . S
O169 C176 1.247 . S
O170 Co168 2.091 . S
O170 C176 1.261 . S
C171 O180 1.247 . S
C171 O181 1.272 . S
O172 Co168 2.004 . S
O172 C177 1.259 . S
Co173 O174 2.061 . S
Co173 O179 2.052 . S
Co173 O181 2.135 . S
O174 Co173 2.061 . S
O174 C177 1.235 . S
C175 O178 1.238 . S
C175 O179 1.241 . S
C176 O169 1.247 . S
C176 O170 1.261 . S
C177 O172 1.259 . S
C177 O174 1.235 . S
O178 Co168 2.021 . S
O178 C175 1.238 . S
O179 Co173 2.052 . S
O179 C175 1.241 . S
O180 Co168 2.137 . S
O180 C171 1.247 . S
O181 Co168 2.244 . S
O181 C171 1.272 . S
O181 Co173 2.135 . S
Co182 O183 2.216 . S
Co182 O184 2.091 . S
Co182 O186 2.004 . S
Co182 O192 2.021 . S
Co182 O194 2.137 . S
Co182 O195 2.244 . S
O183 Co182 2.216 . S
O183 C190 1.247 . S
O184 Co182 2.091 . S
O184 C190 1.261 . S
C185 O194 1.247 . S
C185 O195 1.272 . S
O186 Co182 2.004 . S
O186 C191 1.259 . S
Co187 O188 2.061 . S
Co187 O193 2.052 . S
Co187 O195 2.135 . S
O188 Co187 2.061 . S
O188 C191 1.235 . S
C189 O192 1.238 . S
C189 O193 1.241 . S
C190 O183 1.247 . S
C190 O184 1.261 . S
C191 O186 1.259 . S
C191 O188 1.235 . S
O192 Co182 2.021 . S
O192 C189 1.238 . S
O193 Co187 2.052 . S
O193 C189 1.241 . S
O194 Co182 2.137 . S
O194 C185 1.247 . S
O195 Co182 2.244 . S
O195 C185 1.272 . S
O195 Co187 2.135 . S
Co196 O197 2.216 . S
Co196 O198 2.091 . S
Co196 O200 2.004 . S
Co196 O206 2.021 . S
Co196 O208 2.137 . S
Co196 O209 2.244 . S
O197 Co196 2.216 . S
O197 C204 1.247 . S
O198 Co196 2.091 . S
O198 C204 1.261 . S
C199 O208 1.247 . S
C199 O209 1.272 . S
O200 Co196 2.004 . S
O200 C205 1.259 . S
Co201 O202 2.061 . S
Co201 O207 2.052 . S
Co201 O209 2.135 . S
O202 Co201 2.061 . S
O202 C205 1.235 . S
C203 O206 1.238 . S
C203 O207 1.241 . S
C204 O197 1.247 . S
C204 O198 1.261 . S
C205 O200 1.259 . S
C205 O202 1.235 . S
O206 Co196 2.021 . S
O206 C203 1.238 . S
O207 Co201 2.052 . S
O207 C203 1.241 . S
O208 Co196 2.137 . S
O208 C199 1.247 . S
O209 Co196 2.244 . S
O209 C199 1.272 . S
O209 Co201 2.135 . S
Co210 O211 2.216 . S
Co210 O212 2.091 . S
Co210 O214 2.004 . S
Co210 O220 2.021 . S
Co210 O222 2.137 . S
Co210 O223 2.244 . S
O211 Co210 2.216 . S
O211 C218 1.247 . S
O212 Co210 2.091 . S
O212 C218 1.261 . S
C213 O222 1.247 . S
C213 O223 1.272 . S
O214 Co210 2.004 . S
O214 C219 1.259 . S
Co215 O216 2.061 . S
Co215 O221 2.052 . S
Co215 O223 2.135 . S
O216 Co215 2.061 . S
O216 C219 1.235 . S
C217 O220 1.238 . S
C217 O221 1.241 . S
C218 O211 1.247 . S
C218 O212 1.261 . S
C219 O214 1.259 . S
C219 O216 1.235 . S
O220 Co210 2.021 . S
O220 C217 1.238 . S
O221 Co215 2.052 . S
O221 C217 1.241 . S
O222 Co210 2.137 . S
O222 C213 1.247 . S
O223 Co210 2.244 . S
O223 C213 1.272 . S
O223 Co215 2.135 . S
Co224 O225 2.216 . S
Co224 O226 2.091 . S
Co224 O228 2.004 . S
Co224 O234 2.021 . S
Co224 O236 2.137 . S
Co224 O237 2.244 . S
O225 Co224 2.216 . S
O225 C232 1.247 . S
O226 Co224 2.091 . S
O226 C232 1.261 . S
C227 O236 1.247 . S
C227 O237 1.272 . S
O228 Co224 2.004 . S
O228 C233 1.259 . S
Co229 O230 2.061 . S
Co229 O235 2.052 . S
Co229 O237 2.135 . S
O230 Co229 2.061 . S
O230 C233 1.235 . S
C231 O234 1.238 . S
C231 O235 1.241 . S
C232 O225 1.247 . S
C232 O226 1.261 . S
C233 O228 1.259 . S
C233 O230 1.235 . S
O234 Co224 2.021 . S
O234 C231 1.238 . S
O235 Co229 2.052 . S
O235 C231 1.241 . S
O236 Co224 2.137 . S
O236 C227 1.247 . S
O237 Co224 2.244 . S
O237 C227 1.272 . S
O237 Co229 2.135 . S
Co238 O239 2.216 . S
Co238 O240 2.091 . S
Co238 O242 2.004 . S
Co238 O248 2.021 . S
Co238 O250 2.137 . S
Co238 O251 2.244 . S
O239 Co238 2.216 . S
O239 C246 1.247 . S
O240 Co238 2.091 . S
O240 C246 1.261 . S
C241 O250 1.247 . S
C241 O251 1.272 . S
O242 Co238 2.004 . S
O242 C247 1.259 . S
Co243 O244 2.061 . S
Co243 O249 2.052 . S
Co243 O251 2.135 . S
O244 Co243 2.061 . S
O244 C247 1.235 . S
C245 O248 1.238 . S
C245 O249 1.241 . S
C246 O239 1.247 . S
C246 O240 1.261 . S
C247 O242 1.259 . S
C247 O244 1.235 . S
O248 Co238 2.021 . S
O248 C245 1.238 . S
O249 Co243 2.052 . S
O249 C245 1.241 . S
O250 Co238 2.137 . S
O250 C241 1.247 . S
O251 Co238 2.244 . S
O251 C241 1.272 . S
O251 Co243 2.135 . S
Co252 O253 2.216 . S
Co252 O254 2.091 . S
Co252 O256 2.004 . S
Co252 O262 2.021 . S
Co252 O264 2.137 . S
Co252 O265 2.244 . S
O253 Co252 2.216 . S
O253 C260 1.247 . S
O254 Co252 2.091 . S
O254 C260 1.261 . S
C255 O264 1.247 . S
C255 O265 1.272 . S
O256 Co252 2.004 . S
O256 C261 1.259 . S
Co257 O258 2.061 . S
Co257 O263 2.052 . S
Co257 O265 2.135 . S
O258 Co257 2.061 . S
O258 C261 1.235 . S
C259 O262 1.238 . S
C259 O263 1.241 . S
C260 O253 1.247 . S
C260 O254 1.261 . S
C261 O256 1.259 . S
C261 O258 1.235 . S
O262 Co252 2.021 . S
O262 C259 1.238 . S
O263 Co257 2.052 . S
O263 C259 1.241 . S
O264 Co252 2.137 . S
O264 C255 1.247 . S
O265 Co252 2.244 . S
O265 C255 1.272 . S
O265 Co257 2.135 . S
Co266 O267 2.216 . S
Co266 O268 2.091 . S
Co266 O270 2.004 . S
Co266 O276 2.021 . S
Co266 O278 2.137 . S
Co266 O279 2.244 . S
O267 Co266 2.216 . S
O267 C274 1.247 . S
O268 Co266 2.091 . S
O268 C274 1.261 . S
C269 O278 1.247 . S
C269 O279 1.272 . S
O270 Co266 2.004 . S
O270 C275 1.259 . S
Co271 O272 2.061 . S
Co271 O277 2.052 . S
Co271 O279 2.135 . S
O272 Co271 2.061 . S
O272 C275 1.235 . S
C273 O276 1.238 . S
C273 O277 1.241 . S
C274 O267 1.247 . S
C274 O268 1.261 . S
C275 O270 1.259 . S
C275 O272 1.235 . S
O276 Co266 2.021 . S
O276 C273 1.238 . S
O277 Co271 2.052 . S
O277 C273 1.241 . S
O278 Co266 2.137 . S
O278 C269 1.247 . S
O279 Co266 2.244 . S
O279 C269 1.272 . S
O279 Co271 2.135 . S
Co280 O281 2.216 . S
Co280 O282 2.091 . S
Co280 O284 2.004 . S
Co280 O290 2.021 . S
Co280 O292 2.137 . S
Co280 O293 2.244 . S
O281 Co280 2.216 . S
O281 C288 1.247 . S
O282 Co280 2.091 . S
O282 C288 1.261 . S
C283 O292 1.247 . S
C283 O293 1.272 . S
O284 Co280 2.004 . S
O284 C289 1.259 . S
Co285 O286 2.061 . S
Co285 O291 2.052 . S
Co285 O293 2.135 . S
O286 Co285 2.061 . S
O286 C289 1.235 . S
C287 O290 1.238 . S
C287 O291 1.241 . S
C288 O281 1.247 . S
C288 O282 1.261 . S
C289 O284 1.259 . S
C289 O286 1.235 . S
O290 Co280 2.021 . S
O290 C287 1.238 . S
O291 Co285 2.052 . S
O291 C287 1.241 . S
O292 Co280 2.137 . S
O292 C283 1.247 . S
O293 Co280 2.244 . S
O293 C283 1.272 . S
O293 Co285 2.135 . S
Co294 O295 2.216 . S
Co294 O296 2.091 . S
Co294 O298 2.004 . S
Co294 O304 2.021 . S
Co294 O306 2.137 . S
Co294 O307 2.244 . S
O295 Co294 2.216 . S
O295 C302 1.247 . S
O296 Co294 2.091 . S
O296 C302 1.261 . S
C297 O306 1.247 . S
C297 O307 1.272 . S
O298 Co294 2.004 . S
O298 C303 1.259 . S
Co299 O300 2.061 . S
Co299 O305 2.052 . S
Co299 O307 2.135 . S
O300 Co299 2.061 . S
O300 C303 1.235 . S
C301 O304 1.238 . S
C301 O305 1.241 . S
C302 O295 1.247 . S
C302 O296 1.261 . S
C303 O298 1.259 . S
C303 O300 1.235 . S
O304 Co294 2.021 . S
O304 C301 1.238 . S
O305 Co299 2.052 . S
O305 C301 1.241 . S
O306 Co294 2.137 . S
O306 C297 1.247 . S
O307 Co294 2.244 . S
O307 C297 1.272 . S
O307 Co299 2.135 . S
Co308 O309 2.216 . S
Co308 O310 2.091 . S
Co308 O312 2.004 . S
Co308 O318 2.021 . S
Co308 O320 2.137 . S
Co308 O321 2.244 . S
O309 Co308 2.216 . S
O309 C316 1.247 . S
O310 Co308 2.091 . S
O310 C316 1.261 . S
C311 O320 1.247 . S
C311 O321 1.272 . S
O312 Co308 2.004 . S
O312 C317 1.259 . S
Co313 O314 2.061 . S
Co313 O319 2.052 . S
Co313 O321 2.135 . S
O314 Co313 2.061 . S
O314 C317 1.235 . S
C315 O318 1.238 . S
C315 O319 1.241 . S
C316 O309 1.247 . S
C316 O310 1.261 . S
C317 O312 1.259 . S
C317 O314 1.235 . S
O318 Co308 2.021 . S
O318 C315 1.238 . S
O319 Co313 2.052 . S
O319 C315 1.241 . S
O320 Co308 2.137 . S
O320 C311 1.247 . S
O321 Co308 2.244 . S
O321 C311 1.272 . S
O321 Co313 2.135 . S
Co322 O323 2.216 . S
Co322 O324 2.091 . S
Co322 O326 2.004 . S
Co322 O332 2.021 . S
Co322 O334 2.137 . S
Co322 O335 2.244 . S
O323 Co322 2.216 . S
O323 C330 1.247 . S
O324 Co322 2.091 . S
O324 C330 1.261 . S
C325 O334 1.247 . S
C325 O335 1.272 . S
O326 Co322 2.004 . S
O326 C331 1.259 . S
Co327 O328 2.061 . S
Co327 O333 2.052 . S
Co327 O335 2.135 . S
O328 Co327 2.061 . S
O328 C331 1.235 . S
C329 O332 1.238 . S
C329 O333 1.241 . S
C330 O323 1.247 . S
C330 O324 1.261 . S
C331 O326 1.259 . S
C331 O328 1.235 . S
O332 Co322 2.021 . S
O332 C329 1.238 . S
O333 Co327 2.052 . S
O333 C329 1.241 . S
O334 Co322 2.137 . S
O334 C325 1.247 . S
O335 Co322 2.244 . S
O335 C325 1.272 . S
O335 Co327 2.135 . S
Co336 O337 2.216 . S
Co336 O338 2.091 . S
Co336 O340 2.004 . S
Co336 O346 2.021 . S
Co336 O348 2.137 . S
Co336 O349 2.244 . S
O337 Co336 2.216 . S
O337 C344 1.247 . S
O338 Co336 2.091 . S
O338 C344 1.261 . S
C339 O348 1.247 . S
C339 O349 1.272 . S
O340 Co336 2.004 . S
O340 C345 1.259 . S
Co341 O342 2.061 . S
Co341 O347 2.052 . S
Co341 O349 2.135 . S
O342 Co341 2.061 . S
O342 C345 1.235 . S
C343 O346 1.238 . S
C343 O347 1.241 . S
C344 O337 1.247 . S
C344 O338 1.261 . S
C345 O340 1.259 . S
C345 O342 1.235 . S
O346 Co336 2.021 . S
O346 C343 1.238 . S
O347 Co341 2.052 . S
O347 C343 1.241 . S
O348 Co336 2.137 . S
O348 C339 1.247 . S
O349 Co336 2.244 . S
O349 C339 1.272 . S
O349 Co341 2.135 . S
Co350 O351 2.216 . S
Co350 O352 2.091 . S
Co350 O354 2.004 . S
Co350 O360 2.021 . S
Co350 O362 2.137 . S
Co350 O363 2.244 . S
O351 Co350 2.216 . S
O351 C358 1.247 . S
O352 Co350 2.091 . S
O352 C358 1.261 . S
C353 O362 1.247 . S
C353 O363 1.272 . S
O354 Co350 2.004 . S
O354 C359 1.259 . S
Co355 O356 2.061 . S
Co355 O361 2.052 . S
Co355 O363 2.135 . S
O356 Co355 2.061 . S
O356 C359 1.235 . S
C357 O360 1.238 . S
C357 O361 1.241 . S
C358 O351 1.247 . S
C358 O352 1.261 . S
C359 O354 1.259 . S
C359 O356 1.235 . S
O360 Co350 2.021 . S
O360 C357 1.238 . S
O361 Co355 2.052 . S
O361 C357 1.241 . S
O362 Co350 2.137 . S
O362 C353 1.247 . S
O363 Co350 2.244 . S
O363 C353 1.272 . S
O363 Co355 2.135 . S
Co364 O365 2.216 . S
Co364 O366 2.091 . S
Co364 O368 2.004 . S
Co364 O374 2.021 1_556 S
Co364 O376 2.137 . S
Co364 O377 2.244 . S
O365 Co364 2.216 . S
O365 C372 1.247 . S
O366 Co364 2.091 . S
O366 C372 1.261 . S
C367 O376 1.247 . S
C367 O377 1.272 . S
O368 Co364 2.004 . S
O368 C373 1.259 . S
Co369 O370 2.061 . S
Co369 O375 2.052 1_556 S
Co369 O377 2.135 . S
O370 Co369 2.061 . S
O370 C373 1.235 . S
C371 O374 1.238 . S
C371 O375 1.241 . S
C372 O365 1.247 . S
C372 O366 1.261 . S
C373 O368 1.259 . S
C373 O370 1.235 . S
O374 Co364 2.021 1_554 S
O374 C371 1.238 . S
O375 Co369 2.052 1_554 S
O375 C371 1.241 . S
O376 Co364 2.137 . S
O376 C367 1.247 . S
O377 Co364 2.244 . S
O377 C367 1.272 . S
O377 Co369 2.135 . S
Co378 O379 2.216 . S
Co378 O380 2.091 . S
Co378 O382 2.004 . S
Co378 O388 2.021 1_556 S
Co378 O390 2.137 . S
Co378 O391 2.244 . S
O379 Co378 2.216 . S
O379 C386 1.247 . S
O380 Co378 2.091 . S
O380 C386 1.261 . S
C381 O390 1.247 . S
C381 O391 1.272 . S
O382 Co378 2.004 . S
O382 C387 1.259 . S
Co383 O384 2.061 . S
Co383 O389 2.052 1_556 S
Co383 O391 2.135 . S
O384 Co383 2.061 . S
O384 C387 1.235 . S
C385 O388 1.238 . S
C385 O389 1.241 . S
C386 O379 1.247 . S
C386 O380 1.261 . S
C387 O382 1.259 . S
C387 O384 1.235 . S
O388 Co378 2.021 1_554 S
O388 C385 1.238 . S
O389 Co383 2.052 1_554 S
O389 C385 1.241 . S
O390 Co378 2.137 . S
O390 C381 1.247 . S
O391 Co378 2.244 . S
O391 C381 1.272 . S
O391 Co383 2.135 . S
Co392 O393 2.216 . S
Co392 O394 2.091 . S
Co392 O396 2.004 . S
Co392 O402 2.021 . S
Co392 O404 2.137 . S
Co392 O405 2.244 . S
O393 Co392 2.216 . S
O393 C400 1.247 . S
O394 Co392 2.091 . S
O394 C400 1.261 . S
C395 O404 1.247 . S
C395 O405 1.272 . S
O396 Co392 2.004 . S
O396 C401 1.259 . S
Co397 O398 2.061 . S
Co397 O403 2.052 . S
Co397 O405 2.135 . S
O398 Co397 2.061 . S
O398 C401 1.235 . S
C399 O402 1.238 . S
C399 O403 1.241 . S
C400 O393 1.247 . S
C400 O394 1.261 . S
C401 O396 1.259 . S
C401 O398 1.235 . S
O402 Co392 2.021 . S
O402 C399 1.238 . S
O403 Co397 2.052 . S
O403 C399 1.241 . S
O404 Co392 2.137 . S
O404 C395 1.247 . S
O405 Co392 2.244 . S
O405 C395 1.272 . S
O405 Co397 2.135 . S
Co406 O407 2.216 . S
Co406 O408 2.091 . S
Co406 O410 2.004 . S
Co406 O416 2.021 . S
Co406 O418 2.137 . S
Co406 O419 2.244 . S
O407 Co406 2.216 . S
O407 C414 1.247 . S
O408 Co406 2.091 . S
O408 C414 1.261 . S
C409 O418 1.247 . S
C409 O419 1.272 . S
O410 Co406 2.004 . S
O410 C415 1.259 . S
Co411 O412 2.061 . S
Co411 O417 2.052 . S
Co411 O419 2.135 . S
O412 Co411 2.061 . S
O412 C415 1.235 . S
C413 O416 1.238 . S
C413 O417 1.241 . S
C414 O407 1.247 . S
C414 O408 1.261 . S
C415 O410 1.259 . S
C415 O412 1.235 . S
O416 Co406 2.021 . S
O416 C413 1.238 . S
O417 Co411 2.052 . S
O417 C413 1.241 . S
O418 Co406 2.137 . S
O418 C409 1.247 . S
O419 Co406 2.244 . S
O419 C409 1.272 . S
O419 Co411 2.135 . S
Co420 O421 2.216 1_554 S
Co420 O422 2.091 1_554 S
Co420 O424 2.004 . S
Co420 O430 2.021 . S
Co420 O432 2.137 . S
Co420 O433 2.244 . S
O421 Co420 2.216 1_556 S
O421 C428 1.247 . S
O422 Co420 2.091 1_556 S
O422 C428 1.261 . S
C423 O432 1.247 . S
C423 O433 1.272 . S
O424 Co420 2.004 . S
O424 C429 1.259 . S
Co425 O426 2.061 . S
Co425 O431 2.052 . S
Co425 O433 2.135 . S
O426 Co425 2.061 . S
O426 C429 1.235 . S
C427 O430 1.238 . S
C427 O431 1.241 . S
C428 O421 1.247 . S
C428 O422 1.261 . S
C429 O424 1.259 . S
C429 O426 1.235 . S
O430 Co420 2.021 . S
O430 C427 1.238 . S
O431 Co425 2.052 . S
O431 C427 1.241 . S
O432 Co420 2.137 . S
O432 C423 1.247 . S
O433 Co420 2.244 . S
O433 C423 1.272 . S
O433 Co425 2.135 . S
Co434 O435 2.216 1_554 S
Co434 O436 2.091 1_554 S
Co434 O438 2.004 . S
Co434 O444 2.021 . S
Co434 O446 2.137 . S
Co434 O447 2.244 . S
O435 Co434 2.216 1_556 S
O435 C442 1.247 . S
O436 Co434 2.091 1_556 S
O436 C442 1.261 . S
C437 O446 1.247 . S
C437 O447 1.272 . S
O438 Co434 2.004 . S
O438 C443 1.259 . S
Co439 O440 2.061 . S
Co439 O445 2.052 . S
Co439 O447 2.135 . S
O440 Co439 2.061 . S
O440 C443 1.235 . S
C441 O444 1.238 . S
C441 O445 1.241 . S
C442 O435 1.247 . S
C442 O436 1.261 . S
C443 O438 1.259 . S
C443 O440 1.235 . S
O444 Co434 2.021 . S
O444 C441 1.238 . S
O445 Co439 2.052 . S
O445 C441 1.241 . S
O446 Co434 2.137 . S
O446 C437 1.247 . S
O447 Co434 2.244 . S
O447 C437 1.272 . S
O447 Co439 2.135 . S
C448 C449 1.369 . S
C448 C450 1.419 . S
C448 H452 0.930 . S
C449 C448 1.369 . S
C449 C458 1.429 . S
C450 C448 1.419 . S
C450 C451 1.363 . S
C450 H453 0.929 . S
C451 C450 1.363 . S
C451 C457 1.428 . S
H452 C448 0.930 . S
H453 C450 0.929 . S
S454 N455 1.613 . S
S454 N456 1.610 . S
N455 S454 1.613 . S
N455 C458 1.350 1_655 S
N456 S454 1.610 . S
N456 C457 1.351 1_655 S
C457 C451 1.428 . S
C457 N456 1.351 1_455 S
C457 C458 1.434 . S
C458 C449 1.429 . S
C458 N455 1.350 1_455 S
C458 C457 1.434 . S
C459 C460 1.369 . S
C459 C461 1.419 . S
C459 H463 0.930 . S
C460 C459 1.369 . S
C460 C469 1.429 . S
C461 C459 1.419 . S
C461 C462 1.363 . S
C461 H464 0.929 . S
C462 C461 1.363 . S
C462 C468 1.428 . S
H463 C459 0.930 . S
H464 C461 0.929 . S
S465 N466 1.613 . S
S465 N467 1.610 . S
N466 S465 1.613 . S
N466 C469 1.350 . S
N467 S465 1.610 . S
N467 C468 1.351 . S
C468 C462 1.428 . S
C468 N467 1.351 . S
C468 C469 1.434 . S
C469 C460 1.429 . S
C469 N466 1.350 . S
C469 C468 1.434 . S
C470 C471 1.369 . S
C470 C472 1.419 . S
C470 H474 0.930 . S
C471 C470 1.369 . S
C471 C480 1.429 . S
C472 C470 1.419 . S
C472 C473 1.363 . S
C472 H475 0.929 . S
C473 C472 1.363 . S
C473 C479 1.428 . S
H474 C470 0.930 . S
H475 C472 0.929 . S
S476 N477 1.613 . S
S476 N478 1.610 . S
N477 S476 1.613 . S
N477 C480 1.350 . S
N478 S476 1.610 . S
N478 C479 1.351 . S
C479 C473 1.428 . S
C479 N478 1.351 . S
C479 C480 1.434 . S
C480 C471 1.429 . S
C480 N477 1.350 . S
C480 C479 1.434 . S
C481 C482 1.369 . S
C481 C483 1.419 . S
C481 H485 0.930 . S
C482 C481 1.369 . S
C482 C491 1.429 . S
C483 C481 1.419 . S
C483 C484 1.363 . S
C483 H486 0.929 . S
C484 C483 1.363 . S
C484 C490 1.428 . S
H485 C481 0.930 . S
H486 C483 0.929 . S
S487 N488 1.613 . S
S487 N489 1.610 . S
N488 S487 1.613 . S
N488 C491 1.350 . S
N489 S487 1.610 . S
N489 C490 1.351 . S
C490 C484 1.428 . S
C490 N489 1.351 . S
C490 C491 1.434 . S
C491 C482 1.429 . S
C491 N488 1.350 . S
C491 C490 1.434 . S
C492 C493 1.369 . S
C492 C494 1.419 . S
C492 H496 0.930 . S
C493 C492 1.369 . S
C493 C502 1.429 1_655 S
C494 C492 1.419 . S
C494 C495 1.363 . S
C494 H497 0.929 . S
C495 C494 1.363 . S
C495 C501 1.428 1_655 S
H496 C492 0.930 . S
H497 C494 0.929 . S
S498 N499 1.613 . S
S498 N500 1.610 . S
N499 S498 1.613 . S
N499 C502 1.350 . S
N500 S498 1.610 . S
N500 C501 1.351 . S
C501 C495 1.428 1_455 S
C501 N500 1.351 . S
C501 C502 1.434 . S
C502 C493 1.429 1_455 S
C502 N499 1.350 . S
C502 C501 1.434 . S
C503 C504 1.369 . S
C503 C505 1.419 . S
C503 H507 0.930 . S
C504 C503 1.369 . S
C504 C513 1.429 . S
C505 C503 1.419 . S
C505 C506 1.363 . S
C505 H508 0.929 . S
C506 C505 1.363 . S
C506 C512 1.428 . S
H507 C503 0.930 . S
H508 C505 0.929 . S
S509 N510 1.613 . S
S509 N511 1.610 . S
N510 S509 1.613 . S
N510 C513 1.350 . S
N511 S509 1.610 . S
N511 C512 1.351 . S
C512 C506 1.428 . S
C512 N511 1.351 . S
C512 C513 1.434 . S
C513 C504 1.429 . S
C513 N510 1.350 . S
C513 C512 1.434 . S
C514 C515 1.369 . S
C514 C516 1.419 . S
C514 H518 0.930 . S
C515 C514 1.369 . S
C515 C524 1.429 . S
C516 C514 1.419 . S
C516 C517 1.363 . S
C516 H519 0.934 . S
C517 C516 1.363 . S
C517 C523 1.428 . S
H518 C514 0.930 . S
H519 C516 0.934 . S
S520 N521 1.613 . S
S520 N522 1.610 . S
N521 S520 1.613 . S
N521 C524 1.350 . S
N522 S520 1.610 . S
N522 C523 1.351 . S
C523 C517 1.428 . S
C523 N522 1.351 . S
C523 C524 1.434 . S
C524 C515 1.429 . S
C524 N521 1.350 . S
C524 C523 1.434 . S
C525 C526 1.369 . S
C525 C527 1.419 . S
C525 H529 0.930 . S
C526 C525 1.369 . S
C526 C535 1.429 . S
C527 C525 1.419 . S
C527 C528 1.363 . S
C527 H530 0.929 . S
C528 C527 1.363 . S
C528 C534 1.428 . S
H529 C525 0.930 . S
H530 C527 0.929 . S
S531 N532 1.613 . S
S531 N533 1.610 . S
N532 S531 1.613 . S
N532 C535 1.350 . S
N533 S531 1.610 . S
N533 C534 1.351 . S
C534 C528 1.428 . S
C534 N533 1.351 . S
C534 C535 1.434 . S
C535 C526 1.429 . S
C535 N532 1.350 . S
C535 C534 1.434 . S
C536 C537 1.369 . S
C536 C538 1.419 . S
C536 H540 0.930 . S
C537 C536 1.369 . S
C537 C546 1.429 . S
C538 C536 1.419 . S
C538 C539 1.363 . S
C538 H541 0.929 . S
C539 C538 1.363 . S
C539 C545 1.428 . S
H540 C536 0.930 . S
H541 C538 0.929 . S
S542 N543 1.613 . S
S542 N544 1.610 . S
N543 S542 1.613 . S
N543 C546 1.350 . S
N544 S542 1.610 . S
N544 C545 1.351 . S
C545 C539 1.428 . S
C545 N544 1.351 . S
C545 C546 1.434 . S
C546 C537 1.429 . S
C546 N543 1.350 . S
C546 C545 1.434 . S
C547 C548 1.369 . S
C547 C549 1.419 . S
C547 H551 0.930 . S
C548 C547 1.369 . S
C548 C557 1.429 . S
C549 C547 1.419 . S
C549 C550 1.363 . S
C549 H552 0.929 . S
C550 C549 1.363 . S
C550 C556 1.428 . S
H551 C547 0.930 . S
H552 C549 0.929 . S
S553 N554 1.613 . S
S553 N555 1.610 . S
N554 S553 1.613 . S
N554 C557 1.350 . S
N555 S553 1.610 . S
N555 C556 1.351 . S
C556 C550 1.428 . S
C556 N555 1.351 . S
C556 C557 1.434 . S
C557 C548 1.429 . S
C557 N554 1.350 . S
C557 C556 1.434 . S
C558 C559 1.369 . S
C558 C560 1.419 . S
C558 H562 0.930 . S
C559 C558 1.369 . S
C559 C568 1.429 . S
C560 C558 1.419 . S
C560 C561 1.363 . S
C560 H563 0.929 . S
C561 C560 1.363 . S
C561 C567 1.428 . S
H562 C558 0.930 . S
H563 C560 0.929 . S
S564 N565 1.613 . S
S564 N566 1.610 . S
N565 S564 1.613 . S
N565 C568 1.350 . S
N566 S564 1.610 . S
N566 C567 1.351 . S
C567 C561 1.428 . S
C567 N566 1.351 . S
C567 C568 1.434 . S
C568 C559 1.429 . S
C568 N565 1.350 . S
C568 C567 1.434 . S
C569 C570 1.369 . S
C569 C571 1.419 . S
C569 H573 0.930 . S
C570 C569 1.369 . S
C570 C579 1.429 . S
C571 C569 1.419 . S
C571 C572 1.363 . S
C571 H574 0.929 . S
C572 C571 1.363 . S
C572 C578 1.428 . S
H573 C569 0.930 . S
H574 C571 0.929 . S
S575 N576 1.613 . S
S575 N577 1.610 . S
N576 S575 1.613 . S
N576 C579 1.350 . S
N577 S575 1.610 . S
N577 C578 1.351 . S
C578 C572 1.428 . S
C578 N577 1.351 . S
C578 C579 1.434 . S
C579 C570 1.429 . S
C579 N576 1.350 . S
C579 C578 1.434 . S
C580 C581 1.369 . S
C580 C582 1.419 . S
C580 H584 0.930 . S
C581 C580 1.369 . S
C581 C590 1.429 . S
C582 C580 1.419 . S
C582 C583 1.363 . S
C582 H585 0.929 . S
C583 C582 1.363 . S
C583 C589 1.428 . S
H584 C580 0.930 . S
H585 C582 0.929 . S
S586 N587 1.613 . S
S586 N588 1.610 . S
N587 S586 1.613 . S
N587 C590 1.350 . S
N588 S586 1.610 . S
N588 C589 1.351 . S
C589 C583 1.428 . S
C589 N588 1.351 . S
C589 C590 1.434 . S
C590 C581 1.429 . S
C590 N587 1.350 . S
C590 C589 1.434 . S
C591 C592 1.369 . S
C591 C593 1.419 . S
C591 H595 0.930 . S
C592 C591 1.369 . S
C592 C601 1.429 . S
C593 C591 1.419 . S
C593 C594 1.363 . S
C593 H596 0.929 . S
C594 C593 1.363 . S
C594 C600 1.428 . S
H595 C591 0.930 . S
H596 C593 0.929 . S
S597 N598 1.613 . S
S597 N599 1.610 . S
N598 S597 1.613 . S
N598 C601 1.350 . S
N599 S597 1.610 . S
N599 C600 1.351 . S
C600 C594 1.428 . S
C600 N599 1.351 . S
C600 C601 1.434 . S
C601 C592 1.429 . S
C601 N598 1.350 . S
C601 C600 1.434 . S
C602 C603 1.369 . S
C602 C604 1.419 . S
C602 H606 0.930 . S
C603 C602 1.369 . S
C603 C612 1.429 . S
C604 C602 1.419 . S
C604 C605 1.363 . S
C604 H607 0.929 . S
C605 C604 1.363 . S
C605 C611 1.428 . S
H606 C602 0.930 . S
H607 C604 0.929 . S
S608 N609 1.613 . S
S608 N610 1.610 . S
N609 S608 1.613 . S
N609 C612 1.350 . S
N610 S608 1.610 . S
N610 C611 1.351 . S
C611 C605 1.428 . S
C611 N610 1.351 . S
C611 C612 1.434 . S
C612 C603 1.429 . S
C612 N609 1.350 . S
C612 C611 1.434 . S
C613 C614 1.369 . S
C613 C615 1.419 . S
C613 H617 0.930 . S
C614 C613 1.369 . S
C614 C623 1.429 . S
C615 C613 1.419 . S
C615 C616 1.363 . S
C615 H618 0.929 . S
C616 C615 1.363 . S
C616 C622 1.428 . S
H617 C613 0.930 . S
H618 C615 0.929 . S
S619 N620 1.613 . S
S619 N621 1.610 . S
N620 S619 1.613 . S
N620 C623 1.350 . S
N621 S619 1.610 . S
N621 C622 1.351 . S
C622 C616 1.428 . S
C622 N621 1.351 . S
C622 C623 1.434 . S
C623 C614 1.429 . S
C623 N620 1.350 . S
C623 C622 1.434 . S
C624 C625 1.369 . S
C624 C626 1.419 . S
C624 H628 0.930 . S
C625 C624 1.369 . S
C625 C634 1.429 . S
C626 C624 1.419 . S
C626 C627 1.363 . S
C626 H629 0.929 . S
C627 C626 1.363 . S
C627 C633 1.428 . S
H628 C624 0.930 . S
H629 C626 0.929 . S
S630 N631 1.613 . S
S630 N632 1.610 . S
N631 S630 1.613 . S
N631 C634 1.350 . S
N632 S630 1.610 . S
N632 C633 1.351 . S
C633 C627 1.428 . S
C633 N632 1.351 . S
C633 C634 1.434 . S
C634 C625 1.429 . S
C634 N631 1.350 . S
C634 C633 1.434 . S
C635 C636 1.369 . S
C635 C637 1.419 . S
C635 H639 0.930 . S
C636 C635 1.369 . S
C636 C645 1.429 . S
C637 C635 1.419 . S
C637 C638 1.363 . S
C637 H640 0.929 . S
C638 C637 1.363 . S
C638 C644 1.428 . S
H639 C635 0.930 . S
H640 C637 0.929 . S
S641 N642 1.613 . S
S641 N643 1.610 . S
N642 S641 1.613 . S
N642 C645 1.350 . S
N643 S641 1.610 . S
N643 C644 1.351 . S
C644 C638 1.428 . S
C644 N643 1.351 . S
C644 C645 1.434 . S
C645 C636 1.429 . S
C645 N642 1.350 . S
C645 C644 1.434 . S
C646 C647 1.369 . S
C646 C648 1.419 . S
C646 H650 0.930 . S
C647 C646 1.369 . S
C647 C656 1.429 . S
C648 C646 1.419 . S
C648 C649 1.363 . S
C648 H651 0.929 . S
C649 C648 1.363 . S
C649 C655 1.428 . S
H650 C646 0.930 . S
H651 C648 0.929 . S
S652 N653 1.613 . S
S652 N654 1.610 . S
N653 S652 1.613 . S
N653 C656 1.350 . S
N654 S652 1.610 . S
N654 C655 1.351 . S
C655 C649 1.428 . S
C655 N654 1.351 . S
C655 C656 1.434 . S
C656 C647 1.429 . S
C656 N653 1.350 . S
C656 C655 1.434 . S
C657 C658 1.369 . S
C657 C659 1.419 . S
C657 H661 0.930 . S
C658 C657 1.369 . S
C658 C667 1.429 . S
C659 C657 1.419 . S
C659 C660 1.363 . S
C659 H662 0.929 . S
C660 C659 1.363 . S
C660 C666 1.428 . S
H661 C657 0.930 . S
H662 C659 0.929 . S
S663 N664 1.613 . S
S663 N665 1.610 . S
N664 S663 1.613 . S
N664 C667 1.350 . S
N665 S663 1.610 . S
N665 C666 1.351 . S
C666 C660 1.428 . S
C666 N665 1.351 . S
C666 C667 1.434 . S
C667 C658 1.429 . S
C667 N664 1.350 . S
C667 C666 1.434 . S
C668 C669 1.369 . S
C668 C670 1.419 . S
C668 H672 0.930 . S
C669 C668 1.369 . S
C669 C678 1.429 . S
C670 C668 1.419 . S
C670 C671 1.363 . S
C670 H673 0.929 . S
C671 C670 1.363 . S
C671 C677 1.428 . S
H672 C668 0.930 . S
H673 C670 0.929 . S
S674 N675 1.613 . S
S674 N676 1.610 . S
N675 S674 1.613 . S
N675 C678 1.350 . S
N676 S674 1.610 . S
N676 C677 1.351 . S
C677 C671 1.428 . S
C677 N676 1.351 . S
C677 C678 1.434 . S
C678 C669 1.429 . S
C678 N675 1.350 . S
C678 C677 1.434 . S
C679 C680 1.369 . S
C679 C681 1.419 . S
C679 H683 0.930 . S
C680 C679 1.369 . S
C680 C689 1.429 . S
C681 C679 1.419 . S
C681 C682 1.363 . S
C681 H684 0.929 . S
C682 C681 1.363 . S
C682 C688 1.428 . S
H683 C679 0.930 . S
H684 C681 0.929 . S
S685 N686 1.613 . S
S685 N687 1.610 . S
N686 S685 1.613 . S
N686 C689 1.350 . S
N687 S685 1.610 . S
N687 C688 1.351 . S
C688 C682 1.428 . S
C688 N687 1.351 . S
C688 C689 1.434 . S
C689 C680 1.429 . S
C689 N686 1.350 . S
C689 C688 1.434 . S
C690 C691 1.369 . S
C690 C692 1.419 . S
C690 H694 0.930 . S
C691 C690 1.369 . S
C691 C700 1.429 . S
C692 C690 1.419 . S
C692 C693 1.363 . S
C692 H695 0.929 . S
C693 C692 1.363 . S
C693 C699 1.428 . S
H694 C690 0.930 . S
H695 C692 0.929 . S
S696 N697 1.613 . S
S696 N698 1.610 . S
N697 S696 1.613 . S
N697 C700 1.350 . S
N698 S696 1.610 . S
N698 C699 1.351 . S
C699 C693 1.428 . S
C699 N698 1.351 . S
C699 C700 1.434 . S
C700 C691 1.429 . S
C700 N697 1.350 . S
C700 C699 1.434 . S
C701 C702 1.369 . S
C701 C703 1.419 . S
C701 H705 0.930 . S
C702 C701 1.369 . S
C702 C711 1.429 . S
C703 C701 1.419 . S
C703 C704 1.363 . S
C703 H706 0.929 . S
C704 C703 1.363 . S
C704 C710 1.428 . S
H705 C701 0.930 . S
H706 C703 0.929 . S
S707 N708 1.613 . S
S707 N709 1.610 . S
N708 S707 1.613 . S
N708 C711 1.350 . S
N709 S707 1.610 . S
N709 C710 1.351 . S
C710 C704 1.428 . S
C710 N709 1.351 . S
C710 C711 1.434 . S
C711 C702 1.429 . S
C711 N708 1.350 . S
C711 C710 1.434 . S
C712 C713 1.369 . S
C712 C714 1.419 . S
C712 H716 0.930 . S
C713 C712 1.369 . S
C713 C722 1.429 . S
C714 C712 1.419 . S
C714 C715 1.363 . S
C714 H717 0.929 . S
C715 C714 1.363 . S
C715 C721 1.428 . S
H716 C712 0.930 . S
H717 C714 0.929 . S
S718 N719 1.613 . S
S718 N720 1.610 . S
N719 S718 1.613 . S
N719 C722 1.350 . S
N720 S718 1.610 . S
N720 C721 1.351 . S
C721 C715 1.428 . S
C721 N720 1.351 . S
C721 C722 1.434 . S
C722 C713 1.429 . S
C722 N719 1.350 . S
C722 C721 1.434 . S
C723 C724 1.369 . S
C723 C725 1.419 . S
C723 H727 0.930 . S
C724 C723 1.369 . S
C724 C733 1.429 . S
C725 C723 1.419 . S
C725 C726 1.363 . S
C725 H728 0.929 . S
C726 C725 1.363 . S
C726 C732 1.428 . S
H727 C723 0.930 . S
H728 C725 0.929 . S
S729 N730 1.613 . S
S729 N731 1.610 . S
N730 S729 1.613 . S
N730 C733 1.350 . S
N731 S729 1.610 . S
N731 C732 1.351 . S
C732 C726 1.428 . S
C732 N731 1.351 . S
C732 C733 1.434 . S
C733 C724 1.429 . S
C733 N730 1.350 . S
C733 C732 1.434 . S
C734 C735 1.369 . S
C734 C736 1.419 . S
C734 H738 0.930 . S
C735 C734 1.369 . S
C735 C744 1.429 . S
C736 C734 1.419 . S
C736 C737 1.363 . S
C736 H739 0.929 . S
C737 C736 1.363 . S
C737 C743 1.428 . S
H738 C734 0.930 . S
H739 C736 0.929 . S
S740 N741 1.613 . S
S740 N742 1.610 . S
N741 S740 1.613 . S
N741 C744 1.350 . S
N742 S740 1.610 . S
N742 C743 1.351 . S
C743 C737 1.428 . S
C743 N742 1.351 . S
C743 C744 1.434 . S
C744 C735 1.429 . S
C744 N741 1.350 . S
C744 C743 1.434 . S
C745 C746 1.369 . S
C745 C747 1.419 . S
C745 H749 0.930 . S
C746 C745 1.369 . S
C746 C755 1.429 . S
C747 C745 1.419 . S
C747 C748 1.363 . S
C747 H750 0.929 . S
C748 C747 1.363 . S
C748 C754 1.428 . S
H749 C745 0.930 . S
H750 C747 0.929 . S
S751 N752 1.613 . S
S751 N753 1.610 . S
N752 S751 1.613 . S
N752 C755 1.350 . S
N753 S751 1.610 . S
N753 C754 1.351 . S
C754 C748 1.428 . S
C754 N753 1.351 . S
C754 C755 1.434 . S
C755 C746 1.429 . S
C755 N752 1.350 . S
C755 C754 1.434 . S
C756 C757 1.369 . S
C756 C758 1.419 . S
C756 H760 0.930 . S
C757 C756 1.369 . S
C757 C766 1.429 . S
C758 C756 1.419 . S
C758 C759 1.363 . S
C758 H761 0.929 . S
C759 C758 1.363 . S
C759 C765 1.428 . S
H760 C756 0.930 . S
H761 C758 0.929 . S
S762 N763 1.613 . S
S762 N764 1.610 . S
N763 S762 1.613 . S
N763 C766 1.350 . S
N764 S762 1.610 . S
N764 C765 1.351 . S
C765 C759 1.428 . S
C765 N764 1.351 . S
C765 C766 1.434 . S
C766 C757 1.429 . S
C766 N763 1.350 . S
C766 C765 1.434 . S
C767 C768 1.369 . S
C767 C769 1.419 . S
C767 H771 0.930 . S
C768 C767 1.369 . S
C768 C777 1.429 . S
C769 C767 1.419 . S
C769 C770 1.363 . S
C769 H772 0.929 . S
C770 C769 1.363 . S
C770 C776 1.428 . S
H771 C767 0.930 . S
H772 C769 0.929 . S
S773 N774 1.613 . S
S773 N775 1.610 . S
N774 S773 1.613 . S
N774 C777 1.350 . S
N775 S773 1.610 . S
N775 C776 1.351 . S
C776 C770 1.428 . S
C776 N775 1.351 . S
C776 C777 1.434 . S
C777 C768 1.429 . S
C777 N774 1.350 . S
C777 C776 1.434 . S
C778 C779 1.369 . S
C778 C780 1.419 . S
C778 H782 0.930 . S
C779 C778 1.369 . S
C779 C788 1.429 . S
C780 C778 1.419 . S
C780 C781 1.363 . S
C780 H783 0.929 . S
C781 C780 1.363 . S
C781 C787 1.428 . S
H782 C778 0.930 . S
H783 C780 0.929 . S
S784 N785 1.613 . S
S784 N786 1.610 . S
N785 S784 1.613 . S
N785 C788 1.350 . S
N786 S784 1.610 . S
N786 C787 1.351 . S
C787 C781 1.428 . S
C787 N786 1.351 . S
C787 C788 1.434 . S
C788 C779 1.429 . S
C788 N785 1.350 . S
C788 C787 1.434 . S
C789 C790 1.369 . S
C789 C791 1.419 . S
C789 H793 0.930 . S
C790 C789 1.369 . S
C790 C799 1.429 . S
C791 C789 1.419 . S
C791 C792 1.363 . S
C791 H794 0.929 . S
C792 C791 1.363 . S
C792 C798 1.428 . S
H793 C789 0.930 . S
H794 C791 0.929 . S
S795 N796 1.613 . S
S795 N797 1.610 . S
N796 S795 1.613 . S
N796 C799 1.350 . S
N797 S795 1.610 . S
N797 C798 1.351 . S
C798 C792 1.428 . S
C798 N797 1.351 . S
C798 C799 1.434 . S
C799 C790 1.429 . S
C799 N796 1.350 . S
C799 C798 1.434 . S
C800 C801 1.369 1_455 S
C800 C802 1.419 . S
C800 H804 0.930 . S
C801 C800 1.369 1_655 S
C801 C810 1.429 . S
C802 C800 1.419 . S
C802 C803 1.363 . S
C802 H805 0.929 . S
C803 C802 1.363 . S
C803 C809 1.428 1_455 S
H804 C800 0.930 . S
H805 C802 0.929 . S
S806 N807 1.613 . S
S806 N808 1.610 . S
N807 S806 1.613 . S
N807 C810 1.350 . S
N808 S806 1.610 . S
N808 C809 1.351 . S
C809 C803 1.428 1_655 S
C809 N808 1.351 . S
C809 C810 1.434 . S
C810 C801 1.429 . S
C810 N807 1.350 . S
C810 C809 1.434 . S
C811 C812 1.369 . S
C811 C813 1.419 1_565 S
C811 H815 0.930 . S
C812 C811 1.369 . S
C812 C821 1.429 1_565 S
C813 C811 1.419 1_545 S
C813 C814 1.363 . S
C813 H816 0.929 . S
C814 C813 1.363 . S
C814 C820 1.428 . S
H815 C811 0.930 . S
H816 C813 0.929 . S
S817 N818 1.613 . S
S817 N819 1.610 . S
N818 S817 1.613 . S
N818 C821 1.350 . S
N819 S817 1.610 . S
N819 C820 1.351 . S
C820 C814 1.428 . S
C820 N819 1.351 . S
C820 C821 1.434 . S
C821 C812 1.429 1_545 S
C821 N818 1.350 . S
C821 C820 1.434 . S
C822 C823 1.369 . S
C822 C824 1.419 1_545 S
C822 H826 0.930 . S
C823 C822 1.369 . S
C823 C832 1.429 1_654 S
C824 C822 1.419 1_565 S
C824 C825 1.363 1_654 S
C824 H827 0.929 . S
C825 C824 1.363 1_456 S
C825 C831 1.428 1_565 S
H826 C822 0.930 . S
H827 C824 0.929 . S
S828 N829 1.613 . S
S828 N830 1.610 . S
N829 S828 1.613 . S
N829 C832 1.350 . S
N830 S828 1.610 . S
N830 C831 1.351 . S
C831 C825 1.428 1_545 S
C831 N830 1.351 . S
C831 C832 1.434 . S
C832 C823 1.429 1_456 S
C832 N829 1.350 . S
C832 C831 1.434 . S
C833 C834 1.369 . S
C833 C835 1.419 . S
C833 H837 0.930 . S
C834 C833 1.369 . S
C834 C843 1.429 1_554 S
C835 C833 1.419 . S
C835 C836 1.363 1_554 S
C835 H838 0.929 . S
C836 C835 1.363 1_556 S
C836 C842 1.428 . S
H837 C833 0.930 . S
H838 C835 0.929 . S
S839 N840 1.613 . S
S839 N841 1.610 . S
N840 S839 1.613 . S
N840 C843 1.350 . S
N841 S839 1.610 . S
N841 C842 1.351 . S
C842 C836 1.428 . S
C842 N841 1.351 . S
C842 C843 1.434 . S
C843 C834 1.429 1_556 S
C843 N840 1.350 . S
C843 C842 1.434 . S
C844 C845 1.369 1_455 S
C844 C846 1.419 . S
C844 H848 0.930 . S
C845 C844 1.369 1_655 S
C845 C854 1.429 . S
C846 C844 1.419 . S
C846 C847 1.363 . S
C846 H849 0.929 . S
C847 C846 1.363 . S
C847 C853 1.428 1_455 S
H848 C844 0.930 . S
H849 C846 0.929 . S
S850 N851 1.613 . S
S850 N852 1.610 . S
N851 S850 1.613 . S
N851 C854 1.350 . S
N852 S850 1.610 . S
N852 C853 1.351 . S
C853 C847 1.428 1_655 S
C853 N852 1.351 . S
C853 C854 1.434 . S
C854 C845 1.429 . S
C854 N851 1.350 . S
C854 C853 1.434 . S
C855 C856 1.369 . S
C855 C857 1.419 1_565 S
C855 H859 0.930 . S
C856 C855 1.369 . S
C856 C865 1.429 1_565 S
C857 C855 1.419 1_545 S
C857 C858 1.363 . S
C857 H860 0.929 . S
C858 C857 1.363 . S
C858 C864 1.428 . S
H859 C855 0.930 . S
H860 C857 0.929 . S
S861 N862 1.613 . S
S861 N863 1.610 . S
N862 S861 1.613 . S
N862 C865 1.350 . S
N863 S861 1.610 . S
N863 C864 1.351 . S
C864 C858 1.428 . S
C864 N863 1.351 . S
C864 C865 1.434 . S
C865 C856 1.429 1_545 S
C865 N862 1.350 . S
C865 C864 1.434 . S
C866 C867 1.369 . S
C866 C868 1.419 . S
C866 H870 0.930 . S
C867 C866 1.369 . S
C867 C876 1.429 1_556 S
C868 C866 1.419 . S
C868 C869 1.363 1_556 S
C868 H871 0.929 . S
C869 C868 1.363 1_554 S
C869 C875 1.428 . S
H870 C866 0.930 . S
H871 C868 0.929 . S
S872 N873 1.613 . S
S872 N874 1.610 . S
N873 S872 1.613 . S
N873 C876 1.350 . S
N874 S872 1.610 . S
N874 C875 1.351 . S
C875 C869 1.428 . S
C875 N874 1.351 . S
C875 C876 1.434 . S
C876 C867 1.429 1_554 S
C876 N873 1.350 . S
C876 C875 1.434 . S
C877 C878 1.369 . S
C877 C879 1.419 . S
C877 H881 0.930 . S
C878 C877 1.369 . S
C878 C887 1.429 . S
C879 C877 1.419 . S
C879 C880 1.363 . S
C879 H882 0.929 . S
C880 C879 1.363 . S
C880 C886 1.428 . S
H881 C877 0.930 . S
H882 C879 0.929 . S
S883 N884 1.613 . S
S883 N885 1.610 . S
N884 S883 1.613 . S
N884 C887 1.350 . S
N885 S883 1.610 . S
N885 C886 1.351 . S
C886 C880 1.428 . S
C886 N885 1.351 . S
C886 C887 1.434 . S
C887 C878 1.429 . S
C887 N884 1.350 . S
C887 C886 1.434 . S
C888 C889 1.369 1_655 S
C888 C890 1.419 . S
C888 H892 0.930 . S
C889 C888 1.369 1_455 S
C889 C898 1.429 . S
C890 C888 1.419 . S
C890 C891 1.363 . S
C890 H893 0.929 . S
C891 C890 1.363 . S
C891 C897 1.428 1_655 S
H892 C888 0.930 . S
H893 C890 0.929 . S
S894 N895 1.613 . S
S894 N896 1.610 . S
N895 S894 1.613 . S
N895 C898 1.350 . S
N896 S894 1.610 . S
N896 C897 1.351 . S
C897 C891 1.428 1_455 S
C897 N896 1.351 . S
C897 C898 1.434 . S
C898 C889 1.429 . S
C898 N895 1.350 . S
C898 C897 1.434 . S
C899 C900 1.369 . S
C899 C901 1.419 . S
C899 H903 0.930 . S
C900 C899 1.369 . S
C900 C909 1.429 . S
C901 C899 1.419 . S
C901 C902 1.363 . S
C901 H904 0.929 . S
C902 C901 1.363 . S
C902 C908 1.428 . S
H903 C899 0.930 . S
H904 C901 0.929 . S
S905 N906 1.613 . S
S905 N907 1.610 . S
N906 S905 1.613 . S
N906 C909 1.350 . S
N907 S905 1.610 . S
N907 C908 1.351 . S
C908 C902 1.428 . S
C908 N907 1.351 . S
C908 C909 1.434 . S
C909 C900 1.429 . S
C909 N906 1.350 . S
C909 C908 1.434 . S
C910 C911 1.369 . S
C910 C912 1.419 . S
C910 H914 0.930 . S
C911 C910 1.369 . S
C911 C920 1.429 . S
C912 C910 1.419 . S
C912 C913 1.363 . S
C912 H915 0.929 . S
C913 C912 1.363 . S
C913 C919 1.428 . S
H914 C910 0.930 . S
H915 C912 0.929 . S
S916 N917 1.613 . S
S916 N918 1.610 . S
N917 S916 1.613 . S
N917 C920 1.350 . S
N918 S916 1.610 . S
N918 C919 1.351 . S
C919 C913 1.428 . S
C919 N918 1.351 . S
C919 C920 1.434 . S
C920 C911 1.429 . S
C920 N917 1.350 . S
C920 C919 1.434 . S
C921 C922 1.369 . S
C921 C923 1.419 . S
C921 H925 0.930 . S
C922 C921 1.369 . S
C922 C931 1.429 . S
C923 C921 1.419 . S
C923 C924 1.363 . S
C923 H926 0.929 . S
C924 C923 1.363 . S
C924 C930 1.428 . S
H925 C921 0.930 . S
H926 C923 0.929 . S
S927 N928 1.613 . S
S927 N929 1.610 . S
N928 S927 1.613 . S
N928 C931 1.350 . S
N929 S927 1.610 . S
N929 C930 1.351 . S
C930 C924 1.428 . S
C930 N929 1.351 . S
C930 C931 1.434 . S
C931 C922 1.429 . S
C931 N928 1.350 . S
C931 C930 1.434 . S
C932 C933 1.369 . S
C932 C934 1.419 . S
C932 H936 0.930 . S
C933 C932 1.369 . S
C933 C942 1.429 . S
C934 C932 1.419 . S
C934 C935 1.363 . S
C934 H937 0.929 . S
C935 C934 1.363 . S
C935 C941 1.428 . S
H936 C932 0.930 . S
H937 C934 0.929 . S
S938 N939 1.613 . S
S938 N940 1.610 . S
N939 S938 1.613 . S
N939 C942 1.350 . S
N940 S938 1.610 . S
N940 C941 1.351 . S
C941 C935 1.428 . S
C941 N940 1.351 . S
C941 C942 1.434 . S
C942 C933 1.429 . S
C942 N939 1.350 . S
C942 C941 1.434 . S
C943 C944 1.369 . S
C943 C945 1.419 1_545 S
C943 H947 0.930 . S
C944 C943 1.369 . S
C944 C953 1.429 . S
C945 C943 1.419 1_565 S
C945 C946 1.363 . S
C945 H948 0.929 . S
C946 C945 1.363 . S
C946 C952 1.428 1_565 S
H947 C943 0.930 . S
H948 C945 0.929 . S
S949 N950 1.613 . S
S949 N951 1.610 . S
N950 S949 1.613 . S
N950 C953 1.350 . S
N951 S949 1.610 . S
N951 C952 1.351 . S
C952 C946 1.428 1_545 S
C952 N951 1.351 . S
C952 C953 1.434 . S
C953 C944 1.429 . S
C953 N950 1.350 . S
C953 C952 1.434 . S
C954 C955 1.369 . S
C954 C956 1.419 . S
C954 H958 0.930 . S
C955 C954 1.369 . S
C955 C964 1.429 . S
C956 C954 1.419 . S
C956 C957 1.363 . S
C956 H959 0.929 . S
C957 C956 1.363 . S
C957 C963 1.428 . S
H958 C954 0.930 . S
H959 C956 0.929 . S
S960 N961 1.613 . S
S960 N962 1.610 . S
N961 S960 1.613 . S
N961 C964 1.350 . S
N962 S960 1.610 . S
N962 C963 1.351 . S
C963 C957 1.428 . S
C963 N962 1.351 . S
C963 C964 1.434 . S
C964 C955 1.429 . S
C964 N961 1.350 . S
C964 C963 1.434 . S
C965 C966 1.369 . S
C965 C967 1.419 . S
C965 H969 0.930 . S
C966 C965 1.369 . S
C966 C975 1.429 1_556 S
C967 C965 1.419 . S
C967 C968 1.363 1_556 S
C967 H970 0.929 . S
C968 C967 1.363 1_554 S
C968 C974 1.428 . S
H969 C965 0.930 . S
H970 C967 0.929 . S
S971 N972 1.613 . S
S971 N973 1.610 . S
N972 S971 1.613 . S
N972 C975 1.350 . S
N973 S971 1.610 . S
N973 C974 1.351 . S
C974 C968 1.428 . S
C974 N973 1.351 . S
C974 C975 1.434 . S
C975 C966 1.429 1_554 S
C975 N972 1.350 . S
C975 C974 1.434 . S
C976 C977 1.369 . S
C976 C978 1.419 . S
C976 H980 0.930 1_455 S
C977 C976 1.369 . S
C977 C986 1.429 . S
C978 C976 1.419 . S
C978 C979 1.363 . S
C978 H981 0.929 . S
C979 C978 1.363 . S
C979 C985 1.428 . S
H980 C976 0.930 1_655 S
H981 C978 0.929 . S
S982 N983 1.613 . S
S982 N984 1.610 . S
N983 S982 1.613 . S
N983 C986 1.350 . S
N984 S982 1.610 . S
N984 C985 1.351 . S
C985 C979 1.428 . S
C985 N984 1.351 . S
C985 C986 1.434 . S
C986 C977 1.429 . S
C986 N983 1.350 . S
C986 C985 1.434 . S
C987 C988 1.369 . S
C987 C989 1.419 . S
C987 H991 0.930 . S
C988 C987 1.369 . S
C988 C997 1.429 . S
C989 C987 1.419 . S
C989 C990 1.363 . S
C989 H992 0.929 . S
C990 C989 1.363 . S
C990 C996 1.428 . S
H991 C987 0.930 . S
H992 C989 0.929 . S
S993 N994 1.613 . S
S993 N995 1.610 . S
N994 S993 1.613 . S
N994 C997 1.350 . S
N995 S993 1.610 . S
N995 C996 1.351 . S
C996 C990 1.428 . S
C996 N995 1.351 . S
C996 C997 1.434 . S
C997 C988 1.429 . S
C997 N994 1.350 . S
C997 C996 1.434 . S
C998 C999 1.369 . S
C998 C1000 1.419 . S
C998 H1002 0.930 . S
C999 C998 1.369 . S
C999 C1008 1.429 . S
C1000 C998 1.419 . S
C1000 C1001 1.363 . S
C1000 H1003 0.929 . S
C1001 C1000 1.363 . S
C1001 C1007 1.428 . S
H1002 C998 0.930 . S
H1003 C1000 0.929 . S
S1004 N1005 1.613 . S
S1004 N1006 1.610 . S
N1005 S1004 1.613 . S
N1005 C1008 1.350 . S
N1006 S1004 1.610 . S
N1006 C1007 1.351 . S
C1007 C1001 1.428 . S
C1007 N1006 1.351 . S
C1007 C1008 1.434 . S
C1008 C999 1.429 . S
C1008 N1005 1.350 . S
C1008 C1007 1.434 . S
C1009 C1010 1.369 . S
C1009 C1011 1.419 . S
C1009 H1013 0.930 . S
C1010 C1009 1.369 . S
C1010 C1019 1.429 . S
C1011 C1009 1.419 . S
C1011 C1012 1.363 . S
C1011 H1014 0.929 . S
C1012 C1011 1.363 . S
C1012 C1018 1.428 . S
H1013 C1009 0.930 . S
H1014 C1011 0.929 . S
S1015 N1016 1.613 1_455 S
S1015 N1017 1.610 . S
N1016 S1015 1.613 1_655 S
N1016 C1019 1.350 . S
N1017 S1015 1.610 . S
N1017 C1018 1.351 1_455 S
C1018 C1012 1.428 . S
C1018 N1017 1.351 1_655 S
C1018 C1019 1.434 . S
C1019 C1010 1.429 . S
C1019 N1016 1.350 . S
C1019 C1018 1.434 . S
C1020 C1021 1.369 . S
C1020 C1022 1.419 . S
C1020 H1024 0.930 . S
C1021 C1020 1.369 . S
C1021 C1030 1.429 . S
C1022 C1020 1.419 . S
C1022 C1023 1.363 . S
C1022 H1025 0.929 . S
C1023 C1022 1.363 . S
C1023 C1029 1.428 . S
H1024 C1020 0.930 . S
H1025 C1022 0.929 . S
S1026 N1027 1.613 . S
S1026 N1028 1.610 . S
N1027 S1026 1.613 . S
N1027 C1030 1.350 . S
N1028 S1026 1.610 . S
N1028 C1029 1.351 . S
C1029 C1023 1.428 . S
C1029 N1028 1.351 . S
C1029 C1030 1.434 . S
C1030 C1021 1.429 . S
C1030 N1027 1.350 . S
C1030 C1029 1.434 . S
C1031 C1032 1.369 . S
C1031 C1033 1.419 . S
C1031 H1035 0.930 . S
C1032 C1031 1.369 . S
C1032 C1041 1.429 . S
C1033 C1031 1.419 . S
C1033 C1034 1.363 . S
C1033 H1036 0.929 . S
C1034 C1033 1.363 . S
C1034 C1040 1.428 . S
H1035 C1031 0.930 . S
H1036 C1033 0.929 . S
S1037 N1038 1.613 . S
S1037 N1039 1.610 . S
N1038 S1037 1.613 . S
N1038 C1041 1.350 . S
N1039 S1037 1.610 . S
N1039 C1040 1.351 . S
C1040 C1034 1.428 . S
C1040 N1039 1.351 . S
C1040 C1041 1.434 . S
C1041 C1032 1.429 . S
C1041 N1038 1.350 . S
C1041 C1040 1.434 . S
C1042 C1043 1.369 . S
C1042 C1044 1.419 . S
C1042 H1046 0.930 . S
C1043 C1042 1.369 . S
C1043 C1052 1.429 . S
C1044 C1042 1.419 . S
C1044 C1045 1.363 . S
C1044 H1047 0.929 . S
C1045 C1044 1.363 . S
C1045 C1051 1.428 . S
H1046 C1042 0.930 . S
H1047 C1044 0.929 . S
S1048 N1049 1.613 . S
S1048 N1050 1.610 . S
N1049 S1048 1.613 . S
N1049 C1052 1.350 . S
N1050 S1048 1.610 . S
N1050 C1051 1.351 . S
C1051 C1045 1.428 . S
C1051 N1050 1.351 . S
C1051 C1052 1.434 . S
C1052 C1043 1.429 . S
C1052 N1049 1.350 . S
C1052 C1051 1.434 . S
C1053 C1054 1.369 . S
C1053 C1055 1.419 . S
C1053 H1057 0.930 1_655 S
C1054 C1053 1.369 . S
C1054 C1063 1.429 . S
C1055 C1053 1.419 . S
C1055 C1056 1.363 . S
C1055 H1058 0.929 . S
C1056 C1055 1.363 . S
C1056 C1062 1.428 . S
H1057 C1053 0.930 1_455 S
H1058 C1055 0.929 . S
S1059 N1060 1.613 . S
S1059 N1061 1.610 . S
N1060 S1059 1.613 . S
N1060 C1063 1.350 . S
N1061 S1059 1.610 . S
N1061 C1062 1.351 . S
C1062 C1056 1.428 . S
C1062 N1061 1.351 . S
C1062 C1063 1.434 . S
C1063 C1054 1.429 . S
C1063 N1060 1.350 . S
C1063 C1062 1.434 . S
C1064 C1065 1.369 . S
C1064 C1066 1.419 . S
C1064 H1068 0.930 . S
C1065 C1064 1.369 . S
C1065 C1074 1.429 . S
C1066 C1064 1.419 . S
C1066 C1067 1.363 . S
C1066 H1069 0.929 . S
C1067 C1066 1.363 . S
C1067 C1073 1.428 . S
H1068 C1064 0.930 . S
H1069 C1066 0.929 . S
S1070 N1071 1.613 . S
S1070 N1072 1.610 . S
N1071 S1070 1.613 . S
N1071 C1074 1.350 . S
N1072 S1070 1.610 . S
N1072 C1073 1.351 . S
C1073 C1067 1.428 . S
C1073 N1072 1.351 . S
C1073 C1074 1.434 . S
C1074 C1065 1.429 . S
C1074 N1071 1.350 . S
C1074 C1073 1.434 . S
C1075 C1076 1.369 . S
C1075 C1077 1.419 . S
C1075 H1079 0.930 . S
C1076 C1075 1.369 . S
C1076 C1085 1.429 . S
C1077 C1075 1.419 . S
C1077 C1078 1.363 . S
C1077 H1080 0.929 . S
C1078 C1077 1.363 . S
C1078 C1084 1.428 . S
H1079 C1075 0.930 . S
H1080 C1077 0.929 . S
S1081 N1082 1.613 . S
S1081 N1083 1.610 . S
N1082 S1081 1.613 . S
N1082 C1085 1.350 . S
N1083 S1081 1.610 . S
N1083 C1084 1.351 . S
C1084 C1078 1.428 . S
C1084 N1083 1.351 . S
C1084 C1085 1.434 . S
C1085 C1076 1.429 . S
C1085 N1082 1.350 . S
C1085 C1084 1.434 . S
C1086 C1087 1.369 . S
C1086 C1088 1.419 . S
C1086 H1090 0.930 . S
C1087 C1086 1.369 . S
C1087 C1096 1.429 . S
C1088 C1086 1.419 . S
C1088 C1089 1.363 . S
C1088 H1091 0.929 . S
C1089 C1088 1.363 . S
C1089 C1095 1.428 . S
H1090 C1086 0.930 . S
H1091 C1088 0.929 . S
S1092 N1093 1.613 . S
S1092 N1094 1.610 . S
N1093 S1092 1.613 . S
N1093 C1096 1.350 . S
N1094 S1092 1.610 . S
N1094 C1095 1.351 . S
C1095 C1089 1.428 . S
C1095 N1094 1.351 . S
C1095 C1096 1.434 . S
C1096 C1087 1.429 . S
C1096 N1093 1.350 . S
C1096 C1095 1.434 . S
C1097 C1098 1.369 . S
C1097 C1099 1.419 . S
C1097 H1101 0.930 . S
C1098 C1097 1.369 . S
C1098 C1107 1.429 . S
C1099 C1097 1.419 . S
C1099 C1100 1.363 . S
C1099 H1102 0.929 . S
C1100 C1099 1.363 . S
C1100 C1106 1.428 . S
H1101 C1097 0.930 . S
H1102 C1099 0.929 . S
S1103 N1104 1.613 . S
S1103 N1105 1.610 . S
N1104 S1103 1.613 . S
N1104 C1107 1.350 . S
N1105 S1103 1.610 . S
N1105 C1106 1.351 . S
C1106 C1100 1.428 . S
C1106 N1105 1.351 . S
C1106 C1107 1.434 . S
C1107 C1098 1.429 . S
C1107 N1104 1.350 . S
C1107 C1106 1.434 . S
C1108 C1109 1.369 . S
C1108 C1110 1.419 . S
C1108 H1112 0.930 . S
C1109 C1108 1.369 . S
C1109 C1118 1.429 . S
C1110 C1108 1.419 . S
C1110 C1111 1.363 . S
C1110 H1113 0.929 . S
C1111 C1110 1.363 . S
C1111 C1117 1.428 . S
H1112 C1108 0.930 . S
H1113 C1110 0.929 . S
S1114 N1115 1.613 . S
S1114 N1116 1.610 . S
N1115 S1114 1.613 . S
N1115 C1118 1.350 . S
N1116 S1114 1.610 . S
N1116 C1117 1.351 . S
C1117 C1111 1.428 . S
C1117 N1116 1.351 . S
C1117 C1118 1.434 . S
C1118 C1109 1.429 . S
C1118 N1115 1.350 . S
C1118 C1117 1.434 . S
C1119 C1120 1.369 . S
C1119 C1121 1.419 . S
C1119 H1123 0.930 . S
C1120 C1119 1.369 . S
C1120 C1129 1.429 . S
C1121 C1119 1.419 . S
C1121 C1122 1.363 . S
C1121 H1124 0.929 . S
C1122 C1121 1.363 . S
C1122 C1128 1.428 . S
H1123 C1119 0.930 . S
H1124 C1121 0.929 . S
S1125 N1126 1.613 . S
S1125 N1127 1.610 . S
N1126 S1125 1.613 . S
N1126 C1129 1.350 . S
N1127 S1125 1.610 . S
N1127 C1128 1.351 . S
C1128 C1122 1.428 . S
C1128 N1127 1.351 . S
C1128 C1129 1.434 . S
C1129 C1120 1.429 . S
C1129 N1126 1.350 . S
C1129 C1128 1.434 . S
C1130 C1131 1.369 . S
C1130 C1132 1.419 . S
C1130 H1134 0.930 . S
C1131 C1130 1.369 . S
C1131 C1140 1.429 . S
C1132 C1130 1.419 . S
C1132 C1133 1.363 . S
C1132 H1135 0.929 . S
C1133 C1132 1.363 . S
C1133 C1139 1.428 . S
H1134 C1130 0.930 . S
H1135 C1132 0.929 . S
S1136 N1137 1.613 . S
S1136 N1138 1.610 . S
N1137 S1136 1.613 . S
N1137 C1140 1.350 . S
N1138 S1136 1.610 . S
N1138 C1139 1.351 . S
C1139 C1133 1.428 . S
C1139 N1138 1.351 . S
C1139 C1140 1.434 . S
C1140 C1131 1.429 . S
C1140 N1137 1.350 . S
C1140 C1139 1.434 . S
C1141 C1142 1.369 . S
C1141 C1143 1.419 . S
C1141 H1145 0.930 . S
C1142 C1141 1.369 . S
C1142 C1151 1.429 . S
C1143 C1141 1.419 . S
C1143 C1144 1.363 . S
C1143 H1146 0.929 . S
C1144 C1143 1.363 . S
C1144 C1150 1.428 . S
H1145 C1141 0.930 . S
H1146 C1143 0.929 . S
S1147 N1148 1.613 . S
S1147 N1149 1.610 . S
N1148 S1147 1.613 . S
N1148 C1151 1.350 . S
N1149 S1147 1.610 . S
N1149 C1150 1.351 . S
C1150 C1144 1.428 . S
C1150 N1149 1.351 . S
C1150 C1151 1.434 . S
C1151 C1142 1.429 . S
C1151 N1148 1.350 . S
C1151 C1150 1.434 . S
C449 C149 1.390 . S
C451 C9 1.388 . S
C460 C23 1.388 . S
C462 C163 1.387 . S
C471 C37 1.389 . S
C473 C121 1.390 . S
C482 C135 1.393 . S
C484 C51 1.391 . S
C493 C199 1.339 . S
C495 C59 1.340 . S
C504 C73 1.337 . S
C506 C213 1.339 . S
C515 C171 1.339 . S
C517 C87 1.337 . S
C526 C185 1.340 . S
C528 C101 1.339 . S
C537 C373 1.389 . S
C539 C233 1.387 . S
C548 C387 1.387 . S
C550 C247 1.386 . S
C559 C345 1.393 . S
C561 C261 1.391 . S
C570 C275 1.386 . S
C572 C359 1.388 . S
C581 C423 1.339 . S
C583 C283 1.340 . S
C592 C437 1.336 . S
C594 C297 1.338 . S
C603 C311 1.337 . S
C605 C395 1.336 . S
C614 C325 1.336 . S
C616 C409 1.338 . S
C625 C269 1.478 . S
C627 C3 1.477 . S
C636 C17 1.476 1_655 S
C638 C255 1.476 . S
C647 C241 1.477 . S
C649 C31 1.478 . S
C658 C227 1.475 . S
C660 C45 1.477 1_655 S
C669 C65 1.345 . S
C671 C331 1.347 . S
C680 C79 1.347 1_455 S
C682 C317 1.347 . S
C691 C303 1.344 . S
C693 C93 1.344 . S
C702 C107 1.345 1_455 S
C704 C289 1.344 . S
C713 C381 1.478 . S
C715 C115 1.476 . S
C724 C367 1.478 . S
C726 C129 1.476 1_655 S
C735 C353 1.476 . S
C737 C143 1.476 . S
C746 C339 1.476 . S
C748 C157 1.476 1_655 S
C757 C177 1.346 . S
C759 C443 1.347 . S
C768 C429 1.347 . S
C770 C191 1.347 1_455 S
C779 C205 1.344 . S
C781 C415 1.345 . S
C790 C219 1.346 1_455 S
C792 C401 1.344 . S
C801 C175 1.554 . S
C803 C8 1.511 . S
C812 C22 1.513 . S
C814 C301 1.554 . S
C823 C91 1.553 . S
C825 C36 1.514 . S
C834 C441 1.553 . S
C836 C50 1.513 . S
C845 C63 1.556 . S
C847 C120 1.508 . S
C856 C246 1.515 . S
C858 C77 1.553 . S
C867 C386 1.507 . S
C869 C105 1.556 . S
C878 C413 1.552 . S
C880 C134 1.514 . S
C889 C148 1.506 . S
C891 C203 1.556 . S
C900 C329 1.554 . S
C902 C162 1.511 . S
C911 C358 1.516 . S
C913 C189 1.552 . S
C922 C217 1.556 . S
C924 C274 1.508 . S
C933 C232 1.507 . S
C935 C399 1.556 . S
C944 C315 1.553 . S
C946 C260 1.513 . S
C955 C344 1.509 . S
C957 C287 1.556 . S
C966 C372 1.507 . S
C968 C427 1.556 . S
C977 C7 1.268 . S
C979 C49 1.277 . S
C988 C35 1.271 . S
C990 C21 1.274 . S
C999 C64 1.114 . S
C1001 C106 1.115 . S
C1010 C78 1.109 . S
C1012 C92 1.120 . S
C1021 C119 1.269 . S
C1023 C161 1.275 . S
C1032 C133 1.278 . S
C1034 C147 1.270 . S
C1043 C176 1.117 . S
C1045 C218 1.116 . S
C1054 C204 1.109 . S
C1056 C190 1.121 . S
C1065 C273 1.279 . S
C1067 C231 1.269 . S
C1076 C259 1.275 . S
C1078 C245 1.271 . S
C1087 C330 1.111 . S
C1089 C288 1.117 . S
C1098 C316 1.111 . S
C1100 C302 1.120 . S
C1109 C385 1.268 . S
C1111 C343 1.276 . S
C1120 C371 1.267 . S
C1122 C357 1.277 . S
C1131 C400 1.116 . S
C1133 C442 1.118 . S
C1142 C428 1.117 . S
C1144 C414 1.113 . S
