# Generated by pormake.
# Topology ung, (4)-cn, num edge types: 1
# Building blocks:
#     Node 0, Type 0, BuildingBlock: QUQFOY_clean_sbu_1, # of connection points: 4
#     Node 1, Type 0, BuildingBlock: QUQFOY_clean_sbu_1, # of connection points: 4
#     Node 2, Type 0, BuildingBlock: QUQFOY_clean_sbu_1, # of connection points: 4
#     Node 3, Type 0, BuildingBlock: QUQFOY_clean_sbu_1, # of connection points: 4
#     Node 4, Type 0, BuildingBlock: QUQFOY_clean_sbu_1, # of connection points: 4
#     Node 5, Type 0, BuildingBlock: QUQFOY_clean_sbu_1, # of connection points: 4
#     Node 6, Type 0, BuildingBlock: QUQFOY_clean_sbu_1, # of connection points: 4
#     Node 7, Type 0, BuildingBlock: QUQFOY_clean_sbu_1, # of connection points: 4
#     Node 8, Type 0, BuildingBlock: QUQFOY_clean_sbu_1, # of connection points: 4
#     Node 9, Type 0, BuildingBlock: QUQFOY_clean_sbu_1, # of connection points: 4
#     Node 10, Type 0, BuildingBlock: QUQFOY_clean_sbu_1, # of connection points: 4
#     Node 11, Type 0, BuildingBlock: QUQFOY_clean_sbu_1, # of connection points: 4
#     Node 12, Type 0, BuildingBlock: QUQFOY_clean_sbu_1, # of connection points: 4
#     Node 13, Type 0, BuildingBlock: QUQFOY_clean_sbu_1, # of connection points: 4
#     Node 14, Type 0, BuildingBlock: QUQFOY_clean_sbu_1, # of connection points: 4
#     Node 15, Type 0, BuildingBlock: QUQFOY_clean_sbu_1, # of connection points: 4
#     Node 16, Type 0, BuildingBlock: QUQFOY_clean_sbu_1, # of connection points: 4
#     Node 17, Type 0, BuildingBlock: QUQFOY_clean_sbu_1, # of connection points: 4
#     Edge 18, Type (0, 0), BuildingBlock: MIFKUJ_clean_linker_0, # of connection points: 2
#     Edge 19, Type (0, 0), BuildingBlock: MIFKUJ_clean_linker_0, # of connection points: 2
#     Edge 20, Type (0, 0), BuildingBlock: MIFKUJ_clean_linker_0, # of connection points: 2
#     Edge 21, Type (0, 0), BuildingBlock: MIFKUJ_clean_linker_0, # of connection points: 2
#     Edge 22, Type (0, 0), BuildingBlock: MIFKUJ_clean_linker_0, # of connection points: 2
#     Edge 23, Type (0, 0), BuildingBlock: MIFKUJ_clean_linker_0, # of connection points: 2
#     Edge 24, Type (0, 0), BuildingBlock: MIFKUJ_clean_linker_0, # of connection points: 2
#     Edge 25, Type (0, 0), BuildingBlock: MIFKUJ_clean_linker_0, # of connection points: 2
#     Edge 26, Type (0, 0), BuildingBlock: MIFKUJ_clean_linker_0, # of connection points: 2
#     Edge 27, Type (0, 0), BuildingBlock: MIFKUJ_clean_linker_0, # of connection points: 2
#     Edge 28, Type (0, 0), BuildingBlock: MIFKUJ_clean_linker_0, # of connection points: 2
#     Edge 29, Type (0, 0), BuildingBlock: MIFKUJ_clean_linker_0, # of connection points: 2
#     Edge 30, Type (0, 0), BuildingBlock: MIFKUJ_clean_linker_0, # of connection points: 2
#     Edge 31, Type (0, 0), BuildingBlock: MIFKUJ_clean_linker_0, # of connection points: 2
#     Edge 32, Type (0, 0), BuildingBlock: MIFKUJ_clean_linker_0, # of connection points: 2
#     Edge 33, Type (0, 0), BuildingBlock: MIFKUJ_clean_linker_0, # of connection points: 2
#     Edge 34, Type (0, 0), BuildingBlock: MIFKUJ_clean_linker_0, # of connection points: 2
#     Edge 35, Type (0, 0), BuildingBlock: MIFKUJ_clean_linker_0, # of connection points: 2
#     Edge 36, Type (0, 0), BuildingBlock: MIFKUJ_clean_linker_0, # of connection points: 2
#     Edge 37, Type (0, 0), BuildingBlock: MIFKUJ_clean_linker_0, # of connection points: 2
#     Edge 38, Type (0, 0), BuildingBlock: MIFKUJ_clean_linker_0, # of connection points: 2
#     Edge 39, Type (0, 0), BuildingBlock: MIFKUJ_clean_linker_0, # of connection points: 2
#     Edge 40, Type (0, 0), BuildingBlock: MIFKUJ_clean_linker_0, # of connection points: 2
#     Edge 41, Type (0, 0), BuildingBlock: MIFKUJ_clean_linker_0, # of connection points: 2
#     Edge 42, Type (0, 0), BuildingBlock: MIFKUJ_clean_linker_0, # of connection points: 2
#     Edge 43, Type (0, 0), BuildingBlock: MIFKUJ_clean_linker_0, # of connection points: 2
#     Edge 44, Type (0, 0), BuildingBlock: MIFKUJ_clean_linker_0, # of connection points: 2
#     Edge 45, Type (0, 0), BuildingBlock: MIFKUJ_clean_linker_0, # of connection points: 2
#     Edge 46, Type (0, 0), BuildingBlock: MIFKUJ_clean_linker_0, # of connection points: 2
#     Edge 47, Type (0, 0), BuildingBlock: MIFKUJ_clean_linker_0, # of connection points: 2
#     Edge 48, Type (0, 0), BuildingBlock: MIFKUJ_clean_linker_0, # of connection points: 2
#     Edge 49, Type (0, 0), BuildingBlock: MIFKUJ_clean_linker_0, # of connection points: 2
#     Edge 50, Type (0, 0), BuildingBlock: MIFKUJ_clean_linker_0, # of connection points: 2
#     Edge 51, Type (0, 0), BuildingBlock: MIFKUJ_clean_linker_0, # of connection points: 2
#     Edge 52, Type (0, 0), BuildingBlock: MIFKUJ_clean_linker_0, # of connection points: 2
#     Edge 53, Type (0, 0), BuildingBlock: MIFKUJ_clean_linker_0, # of connection points: 2
# Relax obj value: 0.067
# Max RMSD: 0.172
# Mean RMSD: 0.149
data_MOF--net-ung--node1-QUQFOY_clean_sbu_1--edge1-MIFKUJ_clean_linker_0
_symmetry_space_group_name_H-M    P1
_symmetry_Int_Tables_number       1
_symmetry_cell_setting            triclinic
loop_
_symmetry_equiv_pos_as_xyz
'x, y, z'
_cell_length_a     90.830116
_cell_length_b     108.15173
_cell_length_c     29.28029
_cell_angle_alpha  90.598079
_cell_angle_beta   93.917071
_cell_angle_gamma 125.19977
loop_
_atom_site_label
_atom_site_type_symbol
_atom_site_fract_x
_atom_site_fract_y
_atom_site_fract_z
_atom_type_partial_charge
O0 O 0.04393 0.56238 0.29301 0.0
Cd1 Cd 0.04762 0.57638 0.2412 0.0
Cd2 Cd 0.0192 0.57367 0.27441 0.0
O3 O 0.01697 0.55587 0.30854 0.0
O4 O 0.0596 0.57283 0.19275 0.0
O5 O 0.0314 0.56594 0.18325 0.0
C6 C 0.0444 0.56602 0.16761 0.0
C7 C 0.99564 0.57182 0.22906 0.0
C8 C 0.02985 0.55432 0.31427 0.0
C9 C 0.05544 0.60429 0.28774 0.0
O10 O 0.03943 0.59554 0.29958 0.0
O11 O 0.06141 0.5993 0.26025 0.0
O12 O 0.99618 0.57232 0.27326 0.0
O13 O 0.00787 0.5714 0.21067 0.0
O14 O 0.48957 0.45896 0.29646 0.0
Cd15 Cd 0.47378 0.44641 0.23792 0.0
Cd16 Cd 0.47735 0.42657 0.27782 0.0
O17 O 0.49782 0.44448 0.32157 0.0
O18 O 0.47709 0.46201 0.19581 0.0
O19 O 0.48654 0.44758 0.18296 0.0
C20 C 0.48579 0.45871 0.17134 0.0
C21 C 0.47807 0.4088 0.23421 0.0
C22 C 0.49886 0.45672 0.32502 0.0
C23 C 0.44099 0.42139 0.27483 0.0
O24 O 0.45169 0.41852 0.29334 0.0
O25 O 0.4465 0.43154 0.24588 0.0
O26 O 0.478 0.40844 0.27829 0.0
O27 O 0.47948 0.42016 0.21541 0.0
O28 O 0.57561 0.00545 0.2215 0.0
Cd29 Cd 0.59438 0.00955 0.27352 0.0
Cd30 Cd 0.58816 0.98437 0.23459 0.0
O31 O 0.56738 0.983 0.19437 0.0
O32 O 0.59418 0.02358 0.31764 0.0
O33 O 0.58511 1.00032 0.33305 0.0
C34 C 0.58684 0.01266 0.34494 0.0
C35 C 0.5857 0.96575 0.28022 0.0
C36 C 0.56571 0.99392 0.1937 0.0
C37 C 0.62473 0.0137 0.22746 0.0
O38 O 0.61363 0.99976 0.21457 0.0
O39 O 0.62034 0.02001 0.25492 0.0
O40 O 0.5851 0.9645 0.23609 0.0
O41 O 0.58645 0.9771 0.29813 0.0
O42 O 0.0384 0.46992 0.78603 0.0
Cd43 Cd 0.04122 0.4584 0.73476 0.0
Cd44 Cd 0.01388 0.43518 0.77285 0.0
O45 O 0.01086 0.45133 0.80082 0.0
O46 O 0.05427 0.47336 0.68704 0.0
O47 O 0.02562 0.45372 0.6761 0.0
C48 C 0.03919 0.46596 0.66127 0.0
C49 C 0.99293 0.414 0.72364 0.0
C50 C 0.02426 0.46522 0.80628 0.0
C51 C 0.04968 0.43996 0.78878 0.0
O52 O 0.0345 0.43466 0.80442 0.0
O53 O 0.05433 0.44838 0.7549 0.0
O54 O 0.99085 0.41404 0.76687 0.0
O55 O 0.00623 0.42629 0.70821 0.0
O56 O 0.58312 0.56312 0.73763 0.0
Cd57 Cd 0.60141 0.57908 0.78771 0.0
Cd58 Cd 0.58753 0.5932 0.75201 0.0
O59 O 0.56735 0.5723 0.7193 0.0
O60 O 0.60573 0.56722 0.83169 0.0
O61 O 0.59208 0.57804 0.8485 0.0
C62 C 0.59689 0.56927 0.85987 0.0
C63 C 0.58488 0.60853 0.80259 0.0
C64 C 0.56977 0.56185 0.71534 0.0
C65 C 0.62559 0.60502 0.73375 0.0
O66 O 0.61142 0.60438 0.72194 0.0
O67 O 0.62545 0.59687 0.76507 0.0
O68 O 0.58063 0.60771 0.75907 0.0
O69 O 0.58924 0.59974 0.81741 0.0
O70 O 0.48234 0.0176 0.78702 0.0
Cd71 Cd 0.46412 0.013 0.73284 0.0
Cd72 Cd 0.46863 0.0376 0.77009 0.0
O73 O 0.48933 0.03976 0.81307 0.0
O74 O 0.46586 0.99963 0.68974 0.0
O75 O 0.47409 0.02268 0.67429 0.0
C76 C 0.47318 0.01067 0.66285 0.0
C77 C 0.47024 0.05579 0.72421 0.0
C78 C 0.49151 0.02914 0.81506 0.0
C79 C 0.43249 0.00765 0.77463 0.0
O80 O 0.44302 0.0216 0.78779 0.0
O81 O 0.43768 1.00167 0.74854 0.0
O82 O 0.47024 0.05681 0.7682 0.0
O83 O 0.47082 0.04507 0.7067 0.0
O84 O 0.70304 0.8934 0.63742 0.0
Cd85 Cd 0.70606 0.90694 0.58451 0.0
Cd86 Cd 0.67822 0.90425 0.62064 0.0
O87 O 0.67603 0.88642 0.65426 0.0
O88 O 0.71871 0.90371 0.53723 0.0
O89 O 0.69023 0.896 0.52631 0.0
C90 C 0.70363 0.89652 0.51152 0.0
C91 C 0.65554 0.9029 0.57283 0.0
C92 C 0.6892 0.88522 0.65945 0.0
C93 C 0.7141 0.93487 0.63146 0.0
O94 O 0.69865 0.92595 0.64622 0.0
O95 O 0.71939 0.92997 0.60152 0.0
O96 O 0.65541 0.90333 0.61691 0.0
O97 O 0.66783 0.90219 0.55607 0.0
O98 O 0.15314 0.79306 0.6185 0.0
Cd99 Cd 0.13445 0.77868 0.56641 0.0
Cd100 Cd 0.14287 0.76063 0.60175 0.0
O101 O 0.16385 0.78 0.6404 0.0
O102 O 0.13347 0.79249 0.52365 0.0
O103 O 0.14387 0.77906 0.50627 0.0
C104 C 0.14132 0.78928 0.49557 0.0
C105 C 0.14445 0.74473 0.55095 0.0
C106 C 0.16424 0.79195 0.64362 0.0
C107 C 0.10578 0.75275 0.61367 0.0
O108 O 0.11787 0.75065 0.62562 0.0
O109 O 0.10891 0.76283 0.58594 0.0
O110 O 0.14697 0.74439 0.59478 0.0
O111 O 0.14254 0.75498 0.53617 0.0
O112 O 0.24161 0.33465 0.63268 0.0
Cd113 Cd 0.24765 0.3242 0.58577 0.0
Cd114 Cd 0.28216 0.34774 0.62535 0.0
O115 O 0.26861 0.35419 0.66138 0.0
O116 O 0.22574 0.31366 0.53955 0.0
O117 O 0.25304 0.33262 0.52389 0.0
C118 C 0.23604 0.32347 0.51121 0.0
C119 C 0.30168 0.36223 0.57042 0.0
C120 C 0.25145 0.34659 0.65904 0.0
C121 C 0.26973 0.31518 0.63652 0.0
O122 O 0.28137 0.3293 0.64662 0.0
O123 O 0.25539 0.31049 0.61042 0.0
O124 O 0.30752 0.36496 0.61339 0.0
O125 O 0.28484 0.35169 0.55961 0.0
O126 O 0.70177 0.80162 0.13196 0.0
Cd127 Cd 0.70429 0.79012 0.07979 0.0
Cd128 Cd 0.67704 0.76706 0.11779 0.0
O129 O 0.67413 0.78313 0.14644 0.0
O130 O 0.71728 0.80521 0.03243 0.0
O131 O 0.68855 0.78572 0.02154 0.0
C132 C 0.70215 0.79801 0.00693 0.0
C133 C 0.65549 0.74562 0.07028 0.0
C134 C 0.68763 0.79697 0.15218 0.0
C135 C 0.71264 0.7714 0.13218 0.0
O136 O 0.69765 0.76636 0.14849 0.0
O137 O 0.71725 0.77981 0.0983 0.0
O138 O 0.65423 0.7459 0.11393 0.0
O139 O 0.66832 0.75788 0.05349 0.0
O140 O 0.24593 0.8969 0.05992 0.0
Cd141 Cd 0.26275 0.91083 0.11524 0.0
Cd142 Cd 0.25497 0.92891 0.07755 0.0
O143 O 0.23575 0.91002 0.03439 0.0
O144 O 0.26237 0.89676 0.15929 0.0
O145 O 0.25126 0.90996 0.17219 0.0
C146 C 0.25359 0.89974 0.1847 0.0
C147 C 0.2506 0.9444 0.12222 0.0
C148 C 0.23568 0.89821 0.03186 0.0
C149 C 0.29298 0.93747 0.07492 0.0
O150 O 0.2811 0.93959 0.06078 0.0
O151 O 0.28905 0.92693 0.10145 0.0
O152 O 0.25056 0.94505 0.07818 0.0
O153 O 0.25166 0.93408 0.1404 0.0
O154 O 0.1619 0.36026 0.12444 0.0
Cd155 Cd 0.14195 0.35352 0.07254 0.0
Cd156 Cd 0.14322 0.37671 0.11053 0.0
O157 O 0.16456 0.38036 0.15437 0.0
O158 O 0.14497 0.34081 0.02997 0.0
O159 O 0.14922 0.36234 0.01125 0.0
C160 C 0.1499 0.35107 1.00075 0.0
C161 C 0.14324 0.39387 0.06293 0.0
C162 C 0.16937 0.37138 0.15395 0.0
C163 C 0.10905 0.34544 0.11559 0.0
O164 O 0.11798 0.35949 0.12714 0.0
O165 O 0.11574 0.34034 0.09126 0.0
O166 O 0.14273 0.39492 0.10671 0.0
O167 O 0.14519 0.38378 0.04674 0.0
O168 O 0.3612 0.22062 0.97582 0.0
Cd169 Cd 0.3688 0.23702 0.92877 0.0
Cd170 Cd 0.34223 0.2367 0.96658 0.0
O171 O 0.3367 0.21764 0.99854 0.0
O172 O 0.38221 0.23312 0.88588 0.0
O173 O 0.35612 0.22954 0.86513 0.0
C174 C 0.36886 0.22832 0.85515 0.0
C175 C 0.32282 0.23778 0.91285 0.0
C176 C 0.34754 0.21376 0.99905 0.0
C177 C 0.37998 0.26509 0.98374 0.0
O178 O 0.36399 0.25714 0.99603 0.0
O179 O 0.38463 0.25982 0.9531 0.0
O180 O 0.32106 0.238 0.95624 0.0
O181 O 0.33495 0.23611 0.9002 0.0
O182 O 0.81268 0.12713 0.94294 0.0
Cd183 Cd 0.79523 0.11398 0.88743 0.0
Cd184 Cd 0.80246 0.09492 0.92077 0.0
O185 O 0.82295 0.11359 0.96282 0.0
O186 O 0.79651 0.12867 0.84411 0.0
O187 O 0.80638 0.11459 0.83027 0.0
C188 C 0.80488 0.12531 0.81841 0.0
C189 C 0.80447 0.079 0.87111 0.0
C190 C 0.82329 0.12548 0.96821 0.0
C191 C 0.76509 0.08732 0.92809 0.0
O192 O 0.77686 0.08492 0.94069 0.0
O193 O 0.76895 0.09799 0.90214 0.0
O194 O 0.80581 0.07819 0.91504 0.0
O195 O 0.80363 0.08976 0.85586 0.0
O196 O 0.91617 0.67578 0.89108 0.0
Cd197 Cd 0.9325 0.67809 0.9471 0.0
Cd198 Cd 0.92629 0.65304 0.9066 0.0
O199 O 0.90733 0.65324 0.8629 0.0
O200 O 0.93095 0.69074 0.99403 0.0
O201 O 0.92003 0.66658 1.0011 0.0
C202 C 0.9219 0.67868 0.01652 0.0
C203 C 0.9218 0.63318 0.94933 0.0
C204 C 0.90667 0.6647 0.86153 0.0
C205 C 0.96397 0.68194 0.90885 0.0
O206 O 0.95269 0.66832 0.89303 0.0
O207 O 0.95918 0.68817 0.93531 0.0
O208 O 0.92255 0.63286 0.90546 0.0
O209 O 0.92214 0.64421 0.96818 0.0
O210 O 0.35887 0.13162 0.4704 0.0
Cd211 Cd 0.36401 0.12117 0.42067 0.0
Cd212 Cd 0.33901 0.09712 0.46395 0.0
O213 O 0.33485 0.11172 0.4973 0.0
O214 O 0.37674 0.13733 0.37626 0.0
O215 O 0.34979 0.11595 0.35895 0.0
C216 C 0.36266 0.12919 0.3474 0.0
C217 C 0.31772 0.07586 0.41569 0.0
C218 C 0.34607 0.12603 0.49642 0.0
C219 C 0.37665 0.10497 0.47313 0.0
O220 O 0.36134 0.09806 0.48932 0.0
O221 O 0.3802 0.11387 0.44089 0.0
O222 O 0.3177 0.07531 0.45977 0.0
O223 O 0.32919 0.08875 0.39922 0.0
O224 O 0.91561 0.22962 0.38762 0.0
Cd225 Cd 0.93322 0.24392 0.4413 0.0
Cd226 Cd 0.92491 0.26188 0.40431 0.0
O227 O 0.90431 0.24224 0.36584 0.0
O228 O 0.93312 0.23021 0.48676 0.0
O229 O 0.92232 0.24371 0.49854 0.0
C230 C 0.92454 0.2335 0.51189 0.0
C231 C 0.92229 0.27782 0.45226 0.0
C232 C 0.90442 0.23053 0.36218 0.0
C233 C 0.9624 0.27002 0.39595 0.0
O234 O 0.95025 0.2719 0.38227 0.0
O235 O 0.9591 0.26008 0.42439 0.0
O236 O 0.91998 0.27776 0.4082 0.0
O237 O 0.92477 0.26808 0.46886 0.0
O238 O 0.82242 0.68747 0.45446 0.0
Cd239 Cd 0.80281 0.68283 0.40375 0.0
Cd240 Cd 0.81174 0.70903 0.43942 0.0
O241 O 0.83402 0.71138 0.47373 0.0
O242 O 0.80155 0.66735 0.3628 0.0
O243 O 0.81092 0.69021 0.34168 0.0
C244 C 0.80862 0.67745 0.33282 0.0
C245 C 0.81092 0.72521 0.38909 0.0
C246 C 0.83428 0.69978 0.4774 0.0
C247 C 0.77534 0.68113 0.45606 0.0
O248 O 0.78801 0.69479 0.46868 0.0
O249 O 0.77743 0.67414 0.4248 0.0
O250 O 0.81414 0.72849 0.43282 0.0
O251 O 0.80966 0.71335 0.37384 0.0
H252 H 0.0525 0.49412 0.83398 0.0
H253 H 0.05362 0.51112 0.89156 0.0
H254 H 0.9973 0.47796 0.90969 0.0
H255 H 0.99604 0.4606 0.85203 0.0
H256 H 0.00967 0.51033 0.9056 0.0
H257 H 0.02348 0.47894 0.98534 0.0
H258 H 0.03936 0.46678 0.99837 0.0
H259 H 0.09035 0.51048 0.01531 0.0
H260 H 0.07478 0.52291 0.00166 0.0
H261 H 0.01221 0.54477 0.11894 0.0
H262 H 0.00711 0.52803 0.05385 0.0
H263 H 0.06476 0.55095 0.05272 0.0
H264 H 0.06988 0.56731 0.11904 0.0
H265 H 0.04973 0.52241 0.0478 0.0
H266 H 0.03724 0.55422 0.96734 0.0
H267 H 0.02248 0.56719 0.95132 0.0
H268 H 0.97062 0.52424 0.93279 0.0
H269 H 0.98504 0.51101 0.94931 0.0
C270 C 0.04024 0.49041 0.84974 0.0
C271 C 0.02418 0.4759 0.83849 0.0
C272 C 0.04094 0.50018 0.88273 0.0
C273 C 0.02559 0.49577 0.90505 0.0
C274 C 0.0093 0.48157 0.89276 0.0
C275 C 0.00862 0.47165 0.85996 0.0
C276 C 0.02709 0.50575 0.943 0.0
C277 C 0.01818 0.51283 0.93708 0.0
C278 C 0.03859 0.50928 0.98342 0.0
C279 C 0.04797 0.50184 0.99206 0.0
C280 C 0.03809 0.48596 0.99146 0.0
C281 C 0.04703 0.47902 0.99902 0.0
C282 C 0.06586 0.48785 0.00755 0.0
C283 C 0.07577 0.50365 0.00865 0.0
C284 C 0.06689 0.51065 1.00104 0.0
C285 C 0.02382 0.54641 0.10436 0.0
C286 C 0.04146 0.55737 0.12422 0.0
C287 C 0.02088 0.53684 0.06694 0.0
C288 C 0.03554 0.53823 0.04793 0.0
C289 C 0.0532 0.54956 0.06677 0.0
C290 C 0.05613 0.55898 0.10459 0.0
C291 C 0.03252 0.52731 0.01051 0.0
C292 C 0.04115 0.51998 0.01652 0.0
C293 C 0.02091 0.52371 0.97003 0.0
C294 C 0.01221 0.53163 0.96004 0.0
C295 C 0.02267 0.54754 0.96021 0.0
C296 C 0.01437 0.55494 0.95097 0.0
C297 C 0.99562 0.54655 0.94118 0.0
C298 C 0.98514 0.53073 0.94046 0.0
C299 C 0.99337 0.52327 0.94972 0.0
H300 H 0.98922 0.5523 0.93403 0.0
H301 H 0.07276 0.48246 0.0134 0.0
H302 H 0.60145 0.54751 0.88774 0.0
H303 H 0.58491 0.52887 0.94425 0.0
H304 H 0.55982 0.55113 0.97878 0.0
H305 H 0.57646 0.56992 0.92285 0.0
H306 H 0.56736 0.54061 0.0541 0.0
H307 H 0.53877 0.52144 0.9003 0.0
H308 H 0.5378 0.51487 0.81871 0.0
H309 H 0.55087 0.48381 0.85691 0.0
H310 H 0.5522 0.49038 0.93878 0.0
H311 H 0.48708 0.48303 0.14092 0.0
H312 H 0.50788 0.50165 0.08957 0.0
H313 H 0.52952 0.47574 0.06809 0.0
H314 H 0.50859 0.45691 0.11943 0.0
H315 H 0.52573 0.48759 0.98841 0.0
H316 H 0.55197 0.50544 0.14279 0.0
H317 H 0.5526 0.512 0.22413 0.0
H318 H 0.54372 0.54551 0.18489 0.0
H319 H 0.54276 0.53899 0.10323 0.0
C320 C 0.59275 0.54867 0.90814 0.0
C321 C 0.59012 0.56011 0.90043 0.0
C322 C 0.58322 0.53794 0.94022 0.0
C323 C 0.57083 0.53842 0.96496 0.0
C324 C 0.56922 0.55049 0.95984 0.0
C325 C 0.57876 0.56123 0.92782 0.0
C326 C 0.55851 0.52578 0.99343 0.0
C327 C 0.55819 0.52904 0.03968 0.0
C328 C 0.54677 0.51061 0.97482 0.0
C329 C 0.54578 0.50653 0.92564 0.0
C330 C 0.54157 0.51329 0.89129 0.0
C331 C 0.54094 0.50956 0.845 0.0
C332 C 0.54432 0.49896 0.83264 0.0
C333 C 0.54829 0.49204 0.86654 0.0
C334 C 0.54898 0.49576 0.91289 0.0
C335 C 0.49604 0.48113 0.12477 0.0
C336 C 0.49627 0.46854 0.13457 0.0
C337 C 0.50801 0.49185 0.09562 0.0
C338 C 0.5205 0.49024 0.07581 0.0
C339 C 0.52007 0.47724 0.08332 0.0
C340 C 0.50808 0.46649 0.1126 0.0
C341 C 0.53443 0.50247 0.0489 0.0
C342 C 0.53504 0.49913 0.00296 0.0
C343 C 0.54642 0.51758 0.06777 0.0
C344 C 0.54715 0.52163 0.11686 0.0
C345 C 0.55002 0.51413 0.15148 0.0
C346 C 0.55046 0.51786 0.19765 0.0
C347 C 0.54816 0.52914 0.20966 0.0
C348 C 0.54548 0.53676 0.17552 0.0
C349 C 0.54501 0.53306 0.12929 0.0
H350 H 0.5485 0.53201 0.24543 0.0
H351 H 0.54383 0.49608 0.79678 0.0
H352 H 0.55173 0.01032 0.197 0.0
H353 H 0.53833 0.01592 0.13285 0.0
H354 H 0.54036 0.98508 0.04346 0.0
H355 H 0.55397 0.97945 0.10788 0.0
H356 H 0.55656 0.01323 0.01015 0.0
H357 H 0.50016 0.97696 0.07019 0.0
H358 H 0.47866 0.96523 0.12937 0.0
H359 H 0.48206 0.00617 0.15092 0.0
H360 H 0.5038 0.01824 0.09233 0.0
H361 H 0.50638 0.01344 0.81513 0.0
H362 H 0.5196 0.0084 0.88103 0.0
H363 H 0.51545 0.03871 0.96708 0.0
H364 H 0.50188 0.04368 0.90078 0.0
H365 H 0.50063 0.01143 0.00316 0.0
H366 H 0.55667 0.04774 0.94338 0.0
H367 H 0.57832 0.05978 0.88463 0.0
H368 H 0.57597 0.01931 0.86342 0.0
H369 H 0.55409 0.00693 0.9216 0.0
C370 C 0.54894 0.00444 0.16393 0.0
C371 C 0.55397 0.99448 0.15743 0.0
C372 C 0.54123 0.00764 0.12728 0.0
C373 C 0.53837 1.00095 0.08332 0.0
C374 C 0.54249 0.99038 0.07714 0.0
C375 C 0.5501 0.98707 0.11402 0.0
C376 C 0.53262 0.00606 0.04342 0.0
C377 C 0.54417 0.01259 0.0082 0.0
C378 C 0.51683 0.00579 0.04185 0.0
C379 C 0.50376 0.99856 0.07716 0.0
C380 C 0.49645 0.98352 0.08783 0.0
C381 C 0.48419 0.9768 0.12122 0.0
C382 C 0.47903 0.98496 0.14398 0.0
C383 C 0.48609 0.99986 0.13331 0.0
C384 C 0.49837 0.00665 0.09998 0.0
C385 C 0.50864 0.01931 0.84785 0.0
C386 C 0.50305 0.02893 0.85279 0.0
C387 C 0.51626 0.01644 0.88553 0.0
C388 C 0.51855 0.02318 0.92904 0.0
C389 C 0.51379 0.03338 0.93378 0.0
C390 C 0.50621 0.03633 0.89584 0.0
C391 C 0.52452 0.01853 0.96974 0.0
C392 C 0.51304 0.01209 0.00514 0.0
C393 C 0.54042 0.01895 0.9716 0.0
C394 C 0.55361 0.02636 0.93662 0.0
C395 C 0.56065 0.04135 0.92593 0.0
C396 C 0.57299 0.04825 0.89278 0.0
C397 C 0.57848 0.0403 0.87023 0.0
C398 C 0.57168 0.02545 0.88088 0.0
C399 C 0.55933 0.01849 0.91399 0.0
H400 H 0.58803 0.04566 0.84457 0.0
H401 H 0.46954 0.97974 0.1698 0.0
H402 H 0.56564 0.99007 0.40111 0.0
H403 H 0.54682 0.99015 0.45679 0.0
H404 H 0.56956 0.03704 0.43427 0.0
H405 H 0.58852 0.03711 0.37879 0.0
H406 H 0.5638 0.03075 0.52486 0.0
H407 H 0.53079 0.01049 0.37662 0.0
H408 H 0.5188 0.99344 0.30669 0.0
H409 H 0.48895 0.95482 0.38761 0.0
H410 H 0.50099 0.97165 0.45814 0.0
H411 H 0.49487 0.03382 0.60874 0.0
H412 H 0.51432 0.03438 0.55375 0.0
H413 H 0.49212 0.98746 0.57423 0.0
H414 H 0.47256 0.98676 0.62897 0.0
H415 H 0.49771 0.99408 0.48422 0.0
H416 H 0.53092 0.0145 0.63264 0.0
H417 H 0.54296 0.03168 0.7023 0.0
H418 H 0.5724 0.07015 0.62062 0.0
H419 H 0.56031 0.0532 0.55036 0.0
C420 C 0.56696 1.00051 0.40878 0.0
C421 C 0.57843 0.01355 0.38517 0.0
C422 C 0.55611 1.0005 0.44039 0.0
C423 C 0.55654 0.01351 0.44887 0.0
C424 C 0.56895 0.02686 0.42796 0.0
C425 C 0.57977 0.02687 0.39625 0.0
C426 C 0.54315 0.01289 0.47678 0.0
C427 C 0.54936 0.02285 0.51574 0.0
C428 C 0.52431 1.00246 0.46507 0.0
C429 C 0.51694 0.99232 0.4227 0.0
C430 C 0.52178 0.99836 0.37954 0.0
C431 C 0.51496 0.98874 0.33979 0.0
C432 C 0.50316 0.97306 0.34272 0.0
C433 C 0.49811 0.96697 0.3854 0.0
C434 C 0.50493 0.97654 0.42528 0.0
C435 C 0.49384 0.02352 0.60081 0.0
C436 C 0.48229 0.01028 0.62351 0.0
C437 C 0.50505 0.0239 0.56963 0.0
C438 C 0.5049 0.01104 0.56066 0.0
C439 C 0.49252 0.99753 0.5809 0.0
C440 C 0.48135 0.99716 0.61219 0.0
C441 C 0.51835 0.01189 0.53243 0.0
C442 C 0.51215 1.00198 0.49335 0.0
C443 C 0.53719 0.02239 0.544 0.0
C444 C 0.54456 0.03259 0.58621 0.0
C445 C 0.53985 0.02663 0.6295 0.0
C446 C 0.5467 0.03632 0.6691 0.0
C447 C 0.5584 0.052 0.66588 0.0
C448 C 0.56331 0.05801 0.62305 0.0
C449 C 0.55648 0.04837 0.58334 0.0
H450 H 0.56369 0.05949 0.69657 0.0
H451 H 0.49789 0.96562 0.3119 0.0
H452 H 0.05737 0.55251 0.34648 0.0
H453 H 0.05646 0.53506 0.39985 0.0
H454 H 0.99939 0.51357 0.40797 0.0
H455 H 1.00036 0.53149 0.35535 0.0
H456 H 0.01458 0.51683 0.48964 0.0
H457 H 0.01603 0.49641 0.34721 0.0
H458 H 0.02654 0.49637 0.27182 0.0
H459 H 0.07841 0.51101 0.33676 0.0
H460 H 0.06831 0.51136 0.41255 0.0
H461 H 0.0077 0.45709 0.61143 0.0
H462 H 0.00394 0.46961 0.54713 0.0
H463 H 0.06185 0.5014 0.54991 0.0
H464 H 0.06575 0.48908 0.6147 0.0
H465 H 0.04296 0.49012 0.45904 0.0
H466 H 0.04078 0.51226 0.60137 0.0
H467 H 0.02886 0.51109 0.6756 0.0
H468 H 0.97588 0.49114 0.60729 0.0
H469 H 0.98745 0.49198 0.53268 0.0
C470 C 0.04456 0.54404 0.35934 0.0
C471 C 0.0289 0.54337 0.34635 0.0
C472 C 0.04404 0.53397 0.38975 0.0
C473 C 0.02777 0.52273 0.40732 0.0
C474 C 0.01209 0.52207 0.39472 0.0
C475 C 0.01265 0.53231 0.36459 0.0
C476 C 0.02746 0.5121 0.44 0.0
C477 C 0.02046 0.51076 0.48243 0.0
C478 C 0.03529 0.50425 0.43108 0.0
C479 C 0.04144 0.50402 0.38557 0.0
C480 C 0.02972 0.49973 0.34541 0.0
C481 C 0.0356 0.49964 0.3026 0.0
C482 C 0.05314 0.50372 0.2995 0.0
C483 C 0.06483 0.50786 0.33922 0.0
C484 C 0.05902 0.50799 0.38212 0.0
C485 C 0.01966 0.46659 0.59791 0.0
C486 C 0.03704 0.47213 0.61832 0.0
C487 C 0.01747 0.47376 0.56127 0.0
C488 C 0.03261 0.48651 0.54405 0.0
C489 C 0.04999 0.49158 0.56274 0.0
C490 C 0.05219 0.48454 0.59979 0.0
C491 C 0.03036 0.49513 0.50849 0.0
C492 C 0.03688 0.49607 0.46571 0.0
C493 C 0.02185 0.50242 0.51676 0.0
C494 C 0.01493 0.50202 0.56154 0.0
C495 C 0.02656 0.5075 0.60223 0.0
C496 C 0.01987 0.50692 0.64436 0.0
C497 C 1.00161 0.501 0.64618 0.0
C498 C 0.99001 0.49569 0.60584 0.0
C499 C 0.99663 0.49623 0.56363 0.0
H500 H 0.99646 0.50056 0.67882 0.0
H501 H 0.05767 0.50364 0.26632 0.0
H502 H 0.56589 0.53497 0.71377 0.0
H503 H 0.55294 0.51584 0.65023 0.0
H504 H 0.53605 0.54034 0.57482 0.0
H505 H 0.54887 0.55957 0.63884 0.0
H506 H 0.51116 0.50968 0.56129 0.0
H507 H 0.57515 0.54539 0.55582 0.0
H508 H 0.60721 0.56025 0.58623 0.0
H509 H 0.60313 0.51916 0.60697 0.0
H510 H 0.57092 0.50404 0.57734 0.0
H511 H 0.50601 0.48474 0.33611 0.0
H512 H 0.51772 0.50122 0.40582 0.0
H513 H 0.52654 0.47067 0.47457 0.0
H514 H 0.51455 0.45382 0.40446 0.0
H515 H 0.55503 0.50299 0.49385 0.0
H516 H 0.49073 0.4674 0.49482 0.0
H517 H 0.45901 0.45326 0.46188 0.0
H518 H 0.46419 0.49502 0.44702 0.0
H519 H 0.49605 0.50944 0.47921 0.0
C520 C 0.55912 0.53617 0.68403 0.0
C521 C 0.55859 0.54889 0.68108 0.0
C522 C 0.55181 0.52525 0.64765 0.0
C523 C 0.54396 0.52687 0.60734 0.0
C524 C 0.54219 0.53895 0.60552 0.0
C525 C 0.54945 0.54989 0.64217 0.0
C526 C 0.53867 0.51651 0.56627 0.0
C527 C 0.52079 0.50832 0.54635 0.0
C528 C 0.55118 0.51452 0.54722 0.0
C529 C 0.57057 0.52358 0.56482 0.0
C530 C 0.58105 0.53952 0.56721 0.0
C531 C 0.59926 0.54799 0.58425 0.0
C532 C 0.6072 0.54066 0.59864 0.0
C533 C 0.59695 0.52483 0.59589 0.0
C534 C 0.57872 0.5163 0.57896 0.0
C535 C 0.51064 0.48155 0.36574 0.0
C536 C 0.50911 0.46783 0.36482 0.0
C537 C 0.51731 0.491 0.40562 0.0
C538 C 0.52266 0.48701 0.4455 0.0
C539 C 0.52235 0.47387 0.4441 0.0
C540 C 0.51554 0.46429 0.40403 0.0
C541 C 0.52756 0.49624 0.48895 0.0
C542 C 0.54538 0.50424 0.50917 0.0
C543 C 0.51504 0.49815 0.50809 0.0
C544 C 0.49583 0.48951 0.48907 0.0
C545 C 0.48516 0.47358 0.48418 0.0
C546 C 0.46714 0.46551 0.4657 0.0
C547 C 0.4596 0.47324 0.45227 0.0
C548 C 0.47005 0.48905 0.4574 0.0
C549 C 0.48809 0.49718 0.4758 0.0
H550 H 0.44565 0.46697 0.43798 0.0
H551 H 0.6213 0.54723 0.61181 0.0
H552 H 0.71601 0.82572 0.18108 0.0
H553 H 0.71689 0.84278 0.23803 0.0
H554 H 0.66027 0.80989 0.25354 0.0
H555 H 0.65923 0.7925 0.1965 0.0
H556 H 0.67235 0.84179 0.24921 0.0
H557 H 0.68672 0.811 0.33073 0.0
H558 H 0.70306 0.79929 0.34513 0.0
H559 H 0.75352 0.84337 0.36318 0.0
H560 H 0.73749 0.85535 0.34818 0.0
H561 H 0.67202 0.87487 0.46148 0.0
H562 H 0.66804 0.85857 0.39647 0.0
H563 H 0.72598 0.88271 0.39855 0.0
H564 H 0.72999 0.89865 0.46479 0.0
H565 H 0.71176 0.85428 0.39305 0.0
H566 H 0.69866 0.88554 0.31175 0.0
H567 H 0.68341 0.89805 0.29482 0.0
H568 H 0.63216 0.85466 0.27357 0.0
H569 H 0.64708 0.84188 0.29099 0.0
C570 C 0.70365 0.82209 0.19618 0.0
C571 C 0.68755 0.80766 0.18434 0.0
C572 C 0.70421 0.83189 0.2288 0.0
C573 C 0.68869 0.82756 0.25018 0.0
C574 C 0.6724 0.81343 0.23736 0.0
C575 C 0.67185 0.80349 0.20493 0.0
C576 C 0.68993 0.83757 0.28762 0.0
C577 C 0.68074 0.84438 0.28101 0.0
C578 C 0.70126 0.84124 0.32848 0.0
C579 C 0.71092 0.83406 0.33791 0.0
C580 C 0.70131 0.8182 0.3374 0.0
C581 C 0.71052 0.81151 0.34573 0.0
C582 C 0.72932 0.82058 0.35495 0.0
C583 C 0.73896 0.83636 0.35598 0.0
C584 C 0.72981 0.8431 0.34761 0.0
C585 C 0.68393 0.87687 0.44765 0.0
C586 C 0.70134 0.88806 0.46836 0.0
C587 C 0.68163 0.86755 0.41027 0.0
C588 C 0.6967 0.86943 0.39216 0.0
C589 C 0.71411 0.88096 0.41189 0.0
C590 C 0.71641 0.89013 0.44967 0.0
C591 C 0.69436 0.85879 0.35476 0.0
C592 C 0.70333 0.85177 0.36138 0.0
C593 C 0.68298 0.8551 0.31376 0.0
C594 C 0.67397 0.86276 0.30314 0.0
C595 C 0.68412 0.87866 0.30382 0.0
C596 C 0.67554 0.88581 0.29407 0.0
C597 C 0.65682 0.87716 0.28325 0.0
C598 C 0.64666 0.86135 0.28202 0.0
C599 C 0.65517 0.85414 0.29179 0.0
H600 H 0.6502 0.88271 0.27573 0.0
H601 H 0.73643 0.81538 0.36139 0.0
H602 H 0.16263 0.78794 0.43711 0.0
H603 H 0.18114 0.80669 0.38275 0.0
H604 H 0.15765 0.83072 0.41115 0.0
H605 H 0.139 0.81199 0.46543 0.0
H606 H 0.1634 0.83047 0.31947 0.0
H607 H 0.19653 0.84194 0.46737 0.0
H608 H 0.20876 0.83632 0.53546 0.0
H609 H 0.23921 0.82787 0.45076 0.0
H610 H 0.22693 0.83321 0.38202 0.0
H611 H 0.23089 0.90085 0.23862 0.0
H612 H 0.21166 0.88225 0.29253 0.0
H613 H 0.23588 0.85838 0.27091 0.0
H614 H 0.2553 0.87701 0.21748 0.0
H615 H 0.2296 0.85872 0.35975 0.0
H616 H 0.19643 0.84691 0.21192 0.0
H617 H 0.18409 0.85222 0.14329 0.0
H618 H 0.15369 0.86101 0.22705 0.0
H619 H 0.16607 0.85596 0.2963 0.0
C620 C 0.16107 0.79701 0.43103 0.0
C621 C 0.14948 0.79857 0.45596 0.0
C622 C 0.17175 0.80776 0.40015 0.0
C623 C 0.17102 0.82025 0.39372 0.0
C624 C 0.15848 0.82121 0.41589 0.0
C625 C 0.14783 0.81049 0.44689 0.0
C626 C 0.18425 0.83286 0.36665 0.0
C627 C 0.17787 0.83677 0.32854 0.0
C628 C 0.20313 0.84091 0.37818 0.0
C629 C 0.21067 0.83783 0.41951 0.0
C630 C 0.20573 0.83877 0.46322 0.0
C631 C 0.21268 0.83565 0.50194 0.0
C632 C 0.22472 0.8317 0.49742 0.0
C633 C 0.22986 0.83091 0.45419 0.0
C634 C 0.22292 0.83399 0.41535 0.0
C635 C 0.2324 0.89183 0.24606 0.0
C636 C 0.2445 0.89033 0.22344 0.0
C637 C 0.22131 0.88115 0.27663 0.0
C638 C 0.22208 0.86876 0.28493 0.0
C639 C 0.23499 0.8678 0.26476 0.0
C640 C 0.24608 0.87847 0.23421 0.0
C641 C 0.20877 0.85633 0.31242 0.0
C642 C 0.21514 0.85244 0.35067 0.0
C643 C 0.18988 0.84828 0.30093 0.0
C644 C 0.18232 0.85122 0.25933 0.0
C645 C 0.18722 0.85009 0.21574 0.0
C646 C 0.1802 0.85303 0.17673 0.0
C647 C 0.16815 0.85699 0.18082 0.0
C648 C 0.16305 0.85797 0.22394 0.0
C649 C 0.17006 0.85506 0.26308 0.0
H650 H 0.16273 0.85926 0.15058 0.0
H651 H 0.23009 0.82929 0.52744 0.0
H652 H 0.20256 0.31735 0.49399 0.0
H653 H 0.19275 0.32679 0.43249 0.0
H654 H 0.24277 0.3448 0.3711 0.0
H655 H 0.25306 0.33618 0.43439 0.0
H656 H 0.23763 0.36515 0.37139 0.0
H657 H 0.19866 0.31262 0.32331 0.0
H658 H 0.17618 0.28523 0.3302 0.0
H659 H 0.13706 0.29328 0.36464 0.0
H660 H 0.15939 0.32075 0.35853 0.0
H661 H 0.19474 0.36586 0.14709 0.0
H662 H 0.20861 0.35991 0.20969 0.0
H663 H 0.18369 0.37066 0.30773 0.0
H664 H 0.17026 0.37716 0.24527 0.0
H665 H 0.17645 0.33659 0.288 0.0
H666 H 0.21849 0.39054 0.33569 0.0
H667 H 0.24176 0.41717 0.32088 0.0
H668 H 0.27594 0.40474 0.27666 0.0
H669 H 0.25271 0.37799 0.29053 0.0
C670 C 0.21125 0.32296 0.46671 0.0
C671 C 0.22851 0.32593 0.46879 0.0
C672 C 0.20563 0.32838 0.43143 0.0
C673 C 0.21693 0.33646 0.39665 0.0
C674 C 0.23382 0.33871 0.39753 0.0
C675 C 0.23962 0.33363 0.43345 0.0
C676 C 0.21169 0.34341 0.36125 0.0
C677 C 0.22428 0.35877 0.35291 0.0
C678 C 0.19423 0.33528 0.33716 0.0
C679 C 0.18076 0.31876 0.34089 0.0
C680 C 0.18531 0.30856 0.33269 0.0
C681 C 0.17259 0.29302 0.33639 0.0
C682 C 0.15522 0.28752 0.34797 0.0
C683 C 0.15053 0.29756 0.35574 0.0
C684 C 0.1632 0.31311 0.35211 0.0
C685 C 0.19284 0.36755 0.18216 0.0
C686 C 0.18156 0.37207 0.19146 0.0
C687 C 0.20069 0.36409 0.21778 0.0
C688 C 0.19713 0.36485 0.26315 0.0
C689 C 0.1867 0.37016 0.27287 0.0
C690 C 0.17917 0.37397 0.23726 0.0
C691 C 0.20229 0.35815 0.29902 0.0
C692 C 0.18971 0.34284 0.30696 0.0
C693 C 0.21983 0.36619 0.32186 0.0
C694 C 0.23377 0.38225 0.31354 0.0
C695 C 0.23086 0.39346 0.32225 0.0
C696 C 0.24407 0.40858 0.31418 0.0
C697 C 0.26029 0.41264 0.29768 0.0
C698 C 0.26336 0.40158 0.28935 0.0
C699 C 0.25018 0.38644 0.29733 0.0
H700 H 0.27051 0.42435 0.29147 0.0
H701 H 0.14539 0.27549 0.35082 0.0
H702 H 0.15749 0.33106 0.97682 0.0
H703 H 0.17443 0.33232 0.91401 0.0
H704 H 0.17714 0.37116 0.86633 0.0
H705 H 0.16065 0.37028 0.93048 0.0
H706 H 0.1697 0.32971 0.82656 0.0
H707 H 0.21719 0.39484 0.8192 0.0
H708 H 0.23012 0.41787 0.86982 0.0
H709 H 0.22543 0.39293 0.9877 0.0
H710 H 0.2127 0.36982 0.93774 0.0
H711 H 0.21896 0.342 0.63966 0.0
H712 H 0.20169 0.3455 0.69204 0.0
H713 H 0.24572 0.36367 0.79817 0.0
H714 H 0.26343 0.36081 0.74494 0.0
H715 H 0.22957 0.3773 0.8066 0.0
H716 H 0.20992 0.32561 0.78915 0.0
H717 H 0.19903 0.3016 0.74652 0.0
H718 H 0.15131 0.29785 0.69301 0.0
H719 H 0.16205 0.32197 0.73487 0.0
C720 C 0.16149 0.33978 0.95274 0.0
C721 C 0.15783 0.35063 0.95882 0.0
C722 C 0.17119 0.34049 0.91674 0.0
C723 C 0.17733 0.35198 0.8858 0.0
C724 C 0.17288 0.36238 0.89034 0.0
C725 C 0.16333 0.36179 0.92679 0.0
C726 C 0.18881 0.35317 0.84986 0.0
C727 C 0.18273 0.34016 0.82204 0.0
C728 C 0.20599 0.36672 0.84443 0.0
C729 C 0.2138 0.38057 0.87476 0.0
C730 C 0.21897 0.39429 0.85591 0.0
C731 C 0.22625 0.40735 0.88449 0.0
C732 C 0.22853 0.40684 0.93196 0.0
C733 C 0.2236 0.39329 0.95094 0.0
C734 C 0.21633 0.38021 0.92252 0.0
C735 C 0.22509 0.34701 0.67392 0.0
C736 C 0.24242 0.35095 0.68854 0.0
C737 C 0.21518 0.34896 0.70386 0.0
C738 C 0.22219 0.35445 0.74943 0.0
C739 C 0.23999 0.35933 0.76323 0.0
C740 C 0.25009 0.35768 0.73287 0.0
C741 C 0.21043 0.35383 0.78348 0.0
C742 C 0.21644 0.36693 0.81081 0.0
C743 C 0.19343 0.34021 0.78969 0.0
C744 C 0.18687 0.32566 0.76475 0.0
C745 C 0.19716 0.31971 0.76805 0.0
C746 C 0.19101 0.30608 0.74406 0.0
C747 C 0.17451 0.29822 0.71698 0.0
C748 C 0.1641 0.30396 0.71394 0.0
C749 C 0.1702 0.31761 0.73781 0.0
H750 H 0.16977 0.28767 0.69842 0.0
H751 H 0.23416 0.41696 0.95402 0.0
H752 H 0.72875 0.82107 0.96045 0.0
H753 H 0.72509 0.83406 0.89764 0.0
H754 H 0.66706 0.80329 0.89686 0.0
H755 H 0.67065 0.78989 0.95854 0.0
H756 H 0.67517 0.80971 0.81262 0.0
H757 H 0.69166 0.8393 0.95306 0.0
H758 H 0.70982 0.85285 0.02587 0.0
H759 H 0.75603 0.88283 0.95247 0.0
H760 H 0.73821 0.86931 0.87922 0.0
H761 H 0.66045 0.86212 0.70213 0.0
H762 H 0.66102 0.84549 0.75775 0.0
H763 H 0.71815 0.8683 0.74717 0.0
H764 H 0.7177 0.88472 0.69158 0.0
H765 H 0.70858 0.86545 0.83814 0.0
H766 H 0.6904 0.83466 0.69661 0.0
H767 H 0.67074 0.82104 0.62559 0.0
H768 H 0.62544 0.7934 0.70433 0.0
H769 H 0.6448 0.80702 0.77583 0.0
C770 C 0.7152 0.81692 0.94642 0.0
C771 C 0.7 0.80452 0.96476 0.0
C772 C 0.71312 0.82442 0.91069 0.0
C773 C 0.69579 0.81994 0.89323 0.0
C774 C 0.68058 0.80706 0.90986 0.0
C775 C 0.68266 0.7994 0.94517 0.0
C776 C 0.6936 0.82909 0.85931 0.0
C777 C 0.6823 0.82187 0.81854 0.0
C778 C 0.70289 0.845 0.86674 0.0
C779 C 0.71365 0.8532 0.91069 0.0
C780 C 0.70573 0.84871 0.95247 0.0
C781 C 0.71596 0.8564 0.99381 0.0
C782 C 0.73408 0.86867 0.9938 0.0
C783 C 0.742 0.87331 0.95243 0.0
C784 C 0.73184 0.86565 0.91098 0.0
C785 C 0.67311 0.86354 0.71153 0.0
C786 C 0.68902 0.87476 0.69234 0.0
C787 C 0.6734 0.854 0.74318 0.0
C788 C 0.68963 0.85565 0.75651 0.0
C789 C 0.70548 0.86683 0.7374 0.0
C790 C 0.70516 0.87619 0.70546 0.0
C791 C 0.69044 0.84611 0.79134 0.0
C792 C 0.70142 0.85328 0.8324 0.0
C793 C 0.68062 0.83017 0.78446 0.0
C794 C 0.669 0.82198 0.74152 0.0
C795 C 0.67621 0.82578 0.69876 0.0
C796 C 0.66513 0.81804 0.65842 0.0
C797 C 0.64684 0.80639 0.66043 0.0
C798 C 0.6396 0.80244 0.70281 0.0
C799 C 0.65063 0.81016 0.74325 0.0
H800 H 0.63828 0.80041 0.62917 0.0
H801 H 0.74197 0.8746 0.02585 0.0
H802 H 0.22221 0.90064 0.94802 0.0
H803 H 0.21029 0.88261 0.88102 0.0
H804 H 0.21428 0.85146 0.96235 0.0
H805 H 0.22635 0.86939 0.02887 0.0
H806 H 0.22981 0.85548 0.88527 0.0
H807 H 0.1732 0.84434 0.92596 0.0
H808 H 0.15163 0.85014 0.94447 0.0
H809 H 0.15504 0.86797 0.81223 0.0
H810 H 0.17682 0.86246 0.79315 0.0
H811 H 0.17907 0.79004 0.72594 0.0
H812 H 0.19241 0.80871 0.79156 0.0
H813 H 0.18866 0.83978 0.70907 0.0
H814 H 0.17519 0.8212 0.64394 0.0
H815 H 0.17326 0.836 0.78637 0.0
H816 H 0.22963 0.8467 0.74536 0.0
H817 H 0.25103 0.84069 0.7271 0.0
H818 H 0.24791 0.82342 0.86015 0.0
H819 H 0.22629 0.82915 0.879 0.0
C820 C 0.22014 0.8898 0.95183 0.0
C821 C 0.22529 0.88648 0.99369 0.0
C822 C 0.21338 0.87952 0.91348 0.0
C823 C 0.21148 0.86569 0.91658 0.0
C824 C 0.2158 0.8621 0.95897 0.0
C825 C 0.2226 0.87235 0.99706 0.0
C826 C 0.20594 0.85528 0.87538 0.0
C827 C 0.21732 0.85106 0.86396 0.0
C828 C 0.18988 0.8498 0.84694 0.0
C829 C 0.17679 0.85313 0.85833 0.0
C830 C 0.16947 0.84962 0.90098 0.0
C831 C 0.15718 0.85283 0.91154 0.0
C832 C 0.152 0.85946 0.8796 0.0
C833 C 0.15908 0.86286 0.83697 0.0
C834 C 0.17139 0.85968 0.82625 0.0
C835 C 0.18157 0.80101 0.7215 0.0
C836 C 0.17597 0.8041 0.67989 0.0
C837 C 0.18914 0.81167 0.75906 0.0
C838 C 0.19141 0.82562 0.75534 0.0
C839 C 0.18687 0.82904 0.71292 0.0
C840 C 0.17925 0.81842 0.67564 0.0
C841 C 0.19714 0.8362 0.79621 0.0
C842 C 0.18578 0.84044 0.80761 0.0
C843 C 0.2132 0.84167 0.82466 0.0
C844 C 0.22619 0.83821 0.81341 0.0
C845 C 0.23338 0.8415 0.77058 0.0
C846 C 0.24558 0.83817 0.76016 0.0
C847 C 0.25078 0.83164 0.79239 0.0
C848 C 0.24384 0.82846 0.83518 0.0
C849 C 0.23163 0.83176 0.84577 0.0
H850 H 0.26023 0.82907 0.78426 0.0
H851 H 0.14248 0.86193 0.88783 0.0
H852 H 0.3887 0.21778 0.834 0.0
H853 H 0.38347 0.20147 0.76775 0.0
H854 H 0.34014 0.20403 0.71192 0.0
H855 H 0.34485 0.2199 0.77939 0.0
H856 H 0.32937 0.17639 0.70291 0.0
H857 H 0.38262 0.22277 0.6657 0.0
H858 H 0.41372 0.246 0.67797 0.0
H859 H 0.43429 0.21915 0.69899 0.0
H860 H 0.40329 0.19576 0.68744 0.0
H861 H 0.35985 0.15566 0.48502 0.0
H862 H 0.3616 0.17383 0.53921 0.0
H863 H 0.3332 0.1386 0.63338 0.0
H864 H 0.33077 0.1202 0.57818 0.0
H865 H 0.37894 0.18412 0.61681 0.0
H866 H 0.31261 0.14694 0.70693 0.0
H867 H 0.28079 0.12544 0.68745 0.0
H868 H 0.28493 0.13695 0.54677 0.0
H869 H 0.31669 0.15863 0.5655 0.0
C870 C 0.37824 0.21509 0.80731 0.0
C871 C 0.36726 0.22021 0.81189 0.0
C872 C 0.37527 0.20575 0.76927 0.0
C873 C 0.36152 0.2016 0.73435 0.0
C874 C 0.35081 0.20702 0.73834 0.0
C875 C 0.3536 0.21619 0.77679 0.0
C876 C 0.35791 0.19112 0.69478 0.0
C877 C 0.3402 0.17813 0.68393 0.0
C878 C 0.37191 0.19347 0.66918 0.0
C879 C 0.3906 0.20751 0.67603 0.0
C880 C 0.39376 0.22182 0.67324 0.0
C881 C 0.41138 0.23502 0.68002 0.0
C882 C 0.42597 0.23405 0.68935 0.0
C883 C 0.42298 0.21988 0.6918 0.0
C884 C 0.40539 0.20665 0.68507 0.0
C885 C 0.35371 0.15172 0.51698 0.0
C886 C 0.34518 0.13648 0.52735 0.0
C887 C 0.35478 0.16215 0.54806 0.0
C888 C 0.34754 0.15767 0.59056 0.0
C889 C 0.33862 0.14235 0.60057 0.0
C890 C 0.33727 0.13182 0.56903 0.0
C891 C 0.35043 0.16924 0.62528 0.0
C892 C 0.36804 0.18242 0.63543 0.0
C893 C 0.33623 0.16729 0.64913 0.0
C894 C 0.31709 0.15433 0.63759 0.0
C895 C 0.30671 0.14492 0.67188 0.0
C896 C 0.28869 0.13269 0.66095 0.0
C897 C 0.28086 0.1298 0.61587 0.0
C898 C 0.29102 0.13916 0.58164 0.0
C899 C 0.30905 0.15141 0.59238 0.0
H900 H 0.26691 0.12033 0.60748 0.0
H901 H 0.43959 0.24429 0.6946 0.0
H902 H 0.8266 0.12298 0.7642 0.0
H903 H 0.84692 0.14142 0.71152 0.0
H904 H 0.82596 0.16777 0.73462 0.0
H905 H 0.80549 0.14934 0.78719 0.0
H906 H 0.83236 0.16695 0.64446 0.0
H907 H 0.86403 0.1773 0.79389 0.0
H908 H 0.87485 0.17099 0.86321 0.0
H909 H 0.90393 0.16013 0.78164 0.0
H910 H 0.89305 0.16616 0.71169 0.0
H911 H 0.90308 0.23604 0.56655 0.0
H912 H 0.88314 0.21784 0.62023 0.0
H913 H 0.90452 0.19175 0.59825 0.0
H914 H 0.92464 0.20997 0.54478 0.0
H915 H 0.89793 0.19241 0.6879 0.0
H916 H 0.86631 0.18187 0.53864 0.0
H917 H 0.85548 0.18799 0.46891 0.0
H918 H 0.82627 0.19894 0.54956 0.0
H919 H 0.83716 0.1931 0.61992 0.0
C920 C 0.82603 0.13253 0.75739 0.0
C921 C 0.81453 0.13476 0.78021 0.0
C922 C 0.83774 0.1431 0.72749 0.0
C923 C 0.8382 0.15611 0.71993 0.0
C924 C 0.8259 0.15786 0.74023 0.0
C925 C 0.8142 0.1473 0.77024 0.0
C926 C 0.8522 0.16832 0.6931 0.0
C927 C 0.84669 0.17264 0.65424 0.0
C928 C 0.8709 0.17555 0.70545 0.0
C929 C 0.87758 0.17204 0.7475 0.0
C930 C 0.87262 0.17346 0.79069 0.0
C931 C 0.87878 0.16994 0.8301 0.0
C932 C 0.89003 0.16512 0.82682 0.0
C933 C 0.89519 0.16384 0.78412 0.0
C934 C 0.88904 0.16732 0.74458 0.0
C935 C 0.90385 0.22662 0.57387 0.0
C936 C 0.91533 0.22437 0.55102 0.0
C937 C 0.89235 0.21618 0.60435 0.0
C938 C 0.89207 0.20327 0.61241 0.0
C939 C 0.90443 0.20158 0.59225 0.0
C940 C 0.91594 0.21202 0.56171 0.0
C941 C 0.8781 0.19106 0.6393 0.0
C942 C 0.8836 0.18673 0.67814 0.0
C943 C 0.85939 0.18379 0.62688 0.0
C944 C 0.8527 0.1872 0.5846 0.0
C945 C 0.85769 0.1857 0.54155 0.0
C946 C 0.85152 0.1891 0.50191 0.0
C947 C 0.84023 0.19389 0.50482 0.0
C948 C 0.83504 0.19525 0.54737 0.0
C949 C 0.8412 0.19189 0.58715 0.0
H950 H 0.83547 0.19652 0.47408 0.0
H951 H 0.89478 0.16241 0.85737 0.0
H952 H 0.89432 0.64944 0.77662 0.0
H953 H 0.88251 0.65568 0.70967 0.0
H954 H 0.88498 0.69017 0.79246 0.0
H955 H 0.89646 0.68389 0.85921 0.0
H956 H 0.85526 0.67567 0.73404 0.0
H957 H 0.91884 0.69926 0.72635 0.0
H958 H 0.94641 0.69994 0.72482 0.0
H959 H 0.92372 0.67054 0.60221 0.0
H960 H 0.89589 0.66952 0.60341 0.0
H961 H 0.85053 0.71736 0.5577 0.0
H962 H 0.86472 0.71248 0.62257 0.0
H963 H 0.85946 0.67641 0.54133 0.0
H964 H 0.84542 0.68126 0.47661 0.0
H965 H 0.89096 0.692 0.59867 0.0
H966 H 0.82714 0.66823 0.60775 0.0
H967 H 0.79987 0.66801 0.60926 0.0
H968 H 0.82352 0.69829 0.72996 0.0
H969 H 0.85106 0.69887 0.72874 0.0
C970 C 0.89194 0.6581 0.78072 0.0
C971 C 0.89647 0.66625 0.82311 0.0
C972 C 0.88537 0.66176 0.74238 0.0
C973 C 0.88322 0.67361 0.74589 0.0
C974 C 0.88664 0.68106 0.78883 0.0
C975 C 0.89324 0.67746 0.82697 0.0
C976 C 0.87825 0.67883 0.70473 0.0
C977 C 0.86319 0.67938 0.70467 0.0
C978 C 0.88847 0.68354 0.66615 0.0
C979 C 0.90521 0.68418 0.66526 0.0
C980 C 0.91967 0.69284 0.69928 0.0
C981 C 0.93535 0.69331 0.69844 0.0
C982 C 0.93679 0.68525 0.66351 0.0
C983 C 0.92257 0.67675 0.62929 0.0
C984 C 0.90684 0.67623 0.63002 0.0
C985 C 0.85292 0.70872 0.55327 0.0
C986 C 0.84669 0.69958 0.5123 0.0
C987 C 0.86089 0.70586 0.59043 0.0
C988 C 0.86279 0.69387 0.587 0.0
C989 C 0.85802 0.68564 0.54483 0.0
C990 C 0.84996 0.68841 0.5079 0.0
C991 C 0.86803 0.68887 0.62814 0.0
C992 C 0.88309 0.68832 0.62814 0.0
C993 C 0.85785 0.6842 0.66677 0.0
C994 C 0.84123 0.68372 0.66786 0.0
C995 C 0.82657 0.67493 0.63442 0.0
C996 C 0.81107 0.67473 0.63524 0.0
C997 C 0.80999 0.68316 0.66961 0.0
C998 C 0.82439 0.69178 0.70332 0.0
C999 C 0.83995 0.69205 0.70258 0.0
H1000 H 0.79797 0.683 0.67019 0.0
H1001 H 0.94895 0.68563 0.66291 0.0
H1002 H 0.81409 0.65554 0.3181 0.0
H1003 H 0.8327 0.65526 0.26225 0.0
H1004 H 0.83959 0.69433 0.20234 0.0
H1005 H 0.82126 0.69494 0.25888 0.0
H1006 H 0.83373 0.66923 0.13775 0.0
H1007 H 0.87083 0.70319 0.27067 0.0
H1008 H 0.87875 0.70925 0.35399 0.0
H1009 H 0.88615 0.67356 0.36493 0.0
H1010 H 0.87796 0.66712 0.28172 0.0
H1011 H 0.92789 0.70267 0.06789 0.0
H1012 H 0.90823 0.70198 0.12275 0.0
H1013 H 0.87344 0.65321 0.10522 0.0
H1014 H 0.89321 0.65374 0.0513 0.0
H1015 H 0.89372 0.68435 0.20769 0.0
H1016 H 0.83032 0.64655 0.08348 0.0
H1017 H 0.82192 0.64003 1.00036 0.0
H1018 H 0.86765 0.68416 0.97175 0.0
H1019 H 0.87613 0.69101 0.05464 0.0
C1020 C 0.81916 0.66386 0.29237 0.0
C1021 C 0.81631 0.67534 0.29309 0.0
C1022 C 0.82984 0.6637 0.26061 0.0
C1023 C 0.8376 0.67486 0.22863 0.0
C1024 C 0.83368 0.68564 0.22689 0.0
C1025 C 0.82323 0.68596 0.25918 0.0
C1026 C 0.8512 0.67613 0.20025 0.0
C1027 C 0.84684 0.67253 0.15296 0.0
C1028 C 0.86832 0.68052 0.22026 0.0
C1029 C 0.8736 0.68458 0.27008 0.0
C1030 C 0.874 0.69656 0.29091 0.0
C1031 C 0.87856 0.70007 0.3381 0.0
C1032 C 0.8829 0.69177 0.36476 0.0
C1033 C 0.88276 0.67997 0.34424 0.0
C1034 C 0.87817 0.67639 0.29707 0.0
C1035 C 0.91629 0.69179 0.07658 0.0
C1036 C 0.91206 0.67826 0.05527 0.0
C1037 C 0.90511 0.69142 0.10787 0.0
C1038 C 0.88935 0.67756 0.11752 0.0
C1039 C 0.88553 0.66401 0.09797 0.0
C1040 C 0.89688 0.66434 0.06736 0.0
C1041 C 0.87619 0.6773 0.14524 0.0
C1042 C 0.88062 0.68105 0.19246 0.0
C1043 C 0.85916 0.67308 0.12514 0.0
C1044 C 0.85396 0.66921 0.07523 0.0
C1045 C 0.83853 0.65487 0.05943 0.0
C1046 C 0.83376 0.65112 0.01236 0.0
C1047 C 0.84428 0.66165 0.9808 0.0
C1048 C 0.85955 0.67599 0.99623 0.0
C1049 C 0.86436 0.6798 0.04325 0.0
H1050 H 0.84058 0.65872 0.94438 0.0
H1051 H 0.88641 0.69449 0.4013 0.0
H1052 H 0.33583 0.11459 0.27654 0.0
H1053 H 0.33129 0.12588 0.20971 0.0
H1054 H 0.37973 0.16951 0.25666 0.0
H1055 H 0.38467 0.15825 0.32215 0.0
H1056 H 0.3245 0.14588 0.20236 0.0
H1057 H 0.39992 0.19157 0.172 0.0
H1058 H 0.42887 0.19427 0.17664 0.0
H1059 H 0.40026 0.14594 0.15934 0.0
H1060 H 0.37115 0.14296 0.15397 0.0
H1061 H 0.33328 0.20625 0.08204 0.0
H1062 H 0.33348 0.18888 0.13461 0.0
H1063 H 0.35591 0.17638 0.03352 0.0
H1064 H 0.35671 0.19438 0.98231 0.0
H1065 H 0.37379 0.18106 0.10714 0.0
H1066 H 0.31035 0.15163 0.06723 0.0
H1067 H 0.2799 0.14606 0.05494 0.0
H1068 H 0.28171 0.15664 0.19786 0.0
H1069 H 0.31228 0.16247 0.21091 0.0
C1070 C 0.34568 0.12653 0.27211 0.0
C1071 C 0.3607 0.13549 0.3045 0.0
C1072 C 0.343 0.133 0.23405 0.0
C1073 C 0.35524 0.14854 0.22773 0.0
C1074 C 0.37029 0.15744 0.25998 0.0
C1075 C 0.37309 0.15097 0.29761 0.0
C1076 C 0.35206 0.15569 0.18858 0.0
C1077 C 0.33523 0.15351 0.18131 0.0
C1078 C 0.36587 0.16534 0.16019 0.0
C1079 C 0.38335 0.16705 0.16296 0.0
C1080 C 0.39981 0.18153 0.16897 0.0
C1081 C 0.41625 0.1831 0.17178 0.0
C1082 C 0.4164 0.17028 0.16842 0.0
C1083 C 0.40012 0.15586 0.1621 0.0
C1084 C 0.38364 0.15422 0.15924 0.0
C1085 C 0.33797 0.1996 0.07088 0.0
C1086 C 0.34503 0.20169 0.02819 0.0
C1087 C 0.33802 0.1896 0.10086 0.0
C1088 C 0.34461 0.18116 0.08815 0.0
C1089 C 0.35089 0.1828 0.04452 0.0
C1090 C 0.35127 0.19305 0.01512 0.0
C1091 C 0.3463 0.17153 0.12129 0.0
C1092 C 0.36292 0.17331 0.12766 0.0
C1093 C 0.33207 0.1611 0.14761 0.0
C1094 C 0.31368 0.1576 0.13996 0.0
C1095 C 0.30431 0.15287 0.09598 0.0
C1096 C 0.28702 0.14965 0.08889 0.0
C1097 C 0.2789 0.15103 0.12558 0.0
C1098 C 0.28803 0.15559 0.16946 0.0
C1099 C 0.30533 0.15884 0.17674 0.0
H1100 H 0.26551 0.14853 0.12001 0.0
H1101 H 0.42914 0.17152 0.17063 0.0
H1102 H 0.88578 0.23119 0.28514 0.0
H1103 H 0.87137 0.21259 0.21927 0.0
H1104 H 0.88319 0.18409 0.2902 0.0
H1105 H 0.89762 0.20254 0.35561 0.0
H1106 H 0.89419 0.18838 0.20605 0.0
H1107 H 0.84013 0.17385 0.27282 0.0
H1108 H 0.81851 0.17763 0.30492 0.0
H1109 H 0.81157 0.19354 0.17704 0.0
H1110 H 0.83336 0.19004 0.14435 0.0
H1111 H 0.84056 0.12315 0.04529 0.0
H1112 H 0.85462 0.1408 0.11357 0.0
H1113 H 0.84507 0.17114 0.0462 0.0
H1114 H 0.8311 0.15373 0.97843 0.0
H1115 H 0.83256 0.16521 0.13001 0.0
H1116 H 0.88727 0.18014 0.06411 0.0
H1117 H 0.90876 0.17611 0.03244 0.0
H1118 H 0.91422 0.15906 0.15952 0.0
H1119 H 0.89255 0.16279 0.19176 0.0
C1120 C 0.88496 0.22081 0.28705 0.0
C1121 C 0.89295 0.21841 0.32552 0.0
C1122 C 0.87676 0.2102 0.24935 0.0
C1123 C 0.87629 0.19697 0.24971 0.0
C1124 C 0.88354 0.19427 0.28894 0.0
C1125 C 0.89172 0.20482 0.32642 0.0
C1126 C 0.86919 0.18632 0.20847 0.0
C1127 C 0.88061 0.18314 0.1898 0.0
C1128 C 0.85162 0.1797 0.18675 0.0
C1129 C 0.83852 0.18183 0.20629 0.0
C1130 C 0.83412 0.17828 0.25166 0.0
C1131 C 0.82181 0.18035 0.26994 0.0
C1132 C 0.81371 0.18586 0.24308 0.0
C1133 C 0.81788 0.18929 0.19783 0.0
C1134 C 0.83019 0.18725 0.1794 0.0
C1135 C 0.84182 0.13373 0.04473 0.0
C1136 C 0.83459 0.13696 0.00652 0.0
C1137 C 0.8498 0.14378 0.0838 0.0
C1138 C 0.85075 0.15724 0.08508 0.0
C1139 C 0.8443 0.16077 0.04618 0.0
C1140 C 0.83638 0.15079 0.00735 0.0
C1141 C 0.8576 0.16736 0.12747 0.0
C1142 C 0.84612 0.17042 0.14636 0.0
C1143 C 0.87509 0.17383 0.14946 0.0
C1144 C 0.88813 0.17159 0.13016 0.0
C1145 C 0.89292 0.1754 0.08517 0.0
C1146 C 0.90516 0.1732 0.06714 0.0
C1147 C 0.91281 0.16729 0.09391 0.0
C1148 C 0.90826 0.16361 0.13881 0.0
C1149 C 0.89601 0.16578 0.15698 0.0
H1150 H 0.92229 0.1656 0.0799 0.0
H1151 H 0.80418 0.18745 0.25729 0.0
H1152 H 0.09238 0.62464 0.28793 0.0
H1153 H 0.11177 0.64962 0.32935 0.0
H1154 H 0.06454 0.64468 0.37467 0.0
H1155 H 0.04523 0.61974 0.33449 0.0
H1156 H 0.11574 0.67619 0.32785 0.0
H1157 H 0.07222 0.65815 0.48289 0.0
H1158 H 0.05224 0.63506 0.52364 0.0
H1159 H 0.07965 0.61615 0.47787 0.0
H1160 H 0.09995 0.63921 0.4374 0.0
H1161 H 0.13208 0.73899 0.46013 0.0
H1162 H 0.12176 0.71639 0.41199 0.0
H1163 H 0.13964 0.70017 0.52113 0.0
H1164 H 0.14943 0.72256 0.57009 0.0
H1165 H 0.10736 0.67885 0.49245 0.0
H1166 H 0.16007 0.71145 0.41638 0.0
H1167 H 0.18245 0.73419 0.37761 0.0
H1168 H 0.14165 0.72373 0.27002 0.0
H1169 H 0.11895 0.70103 0.30846 0.0
C1170 C 0.08613 0.62895 0.30639 0.0
C1171 C 0.06725 0.62009 0.30833 0.0
C1172 C 0.09724 0.64324 0.33002 0.0
C1173 C 0.08966 0.64892 0.35594 0.0
C1174 C 0.07077 0.64042 0.35586 0.0
C1175 C 0.05971 0.62614 0.33267 0.0
C1176 C 0.10136 0.66343 0.38456 0.0
C1177 C 0.11397 0.6768 0.36387 0.0
C1178 C 0.09949 0.66419 0.43195 0.0
C1179 C 0.08751 0.65037 0.45681 0.0
C1180 C 0.07404 0.6491 0.48172 0.0
C1181 C 0.06265 0.63601 0.50473 0.0
C1182 C 0.06464 0.62413 0.50324 0.0
C1183 C 0.07808 0.62534 0.47887 0.0
C1184 C 0.08952 0.63841 0.45586 0.0
C1185 C 0.1342 0.73079 0.4736 0.0
C1186 C 0.14152 0.73257 0.5191 0.0
C1187 C 0.12833 0.71785 0.44587 0.0
C1188 C 0.12994 0.70651 0.46268 0.0
C1189 C 0.13815 0.70869 0.50732 0.0
C1190 C 0.14384 0.72155 0.53525 0.0
C1191 C 0.12144 0.6918 0.43557 0.0
C1192 C 0.10934 0.67833 0.45655 0.0
C1193 C 0.12417 0.69096 0.38883 0.0
C1194 C 0.13777 0.70459 0.36551 0.0
C1195 C 0.15583 0.71406 0.38462 0.0
C1196 C 0.16858 0.72693 0.36267 0.0
C1197 C 0.16346 0.73042 0.32142 0.0
C1198 C 0.14559 0.72102 0.30199 0.0
C1199 C 0.13278 0.70813 0.32381 0.0
H1200 H 0.17336 0.74039 0.30449 0.0
H1201 H 0.0558 0.614 0.52103 0.0
H1202 H 0.42427 0.39729 0.32825 0.0
H1203 H 0.39698 0.38762 0.3664 0.0
H1204 H 0.38912 0.41882 0.29805 0.0
H1205 H 0.41691 0.4289 0.26019 0.0
H1206 H 0.38659 0.42011 0.38809 0.0
H1207 H 0.36045 0.3807 0.27042 0.0
H1208 H 0.35901 0.36149 0.22036 0.0
H1209 H 0.35644 0.33703 0.33763 0.0
H1210 H 0.35819 0.35623 0.38852 0.0
H1211 H 0.29256 0.3587 0.47823 0.0
H1212 H 0.31284 0.36965 0.41734 0.0
H1213 H 0.35872 0.39424 0.51865 0.0
H1214 H 0.33846 0.38341 0.57998 0.0
H1215 H 0.33801 0.36554 0.39895 0.0
H1216 H 0.39234 0.42691 0.47577 0.0
H1217 H 0.39402 0.44671 0.52332 0.0
H1218 H 0.33831 0.42759 0.481 0.0
H1219 H 0.33637 0.40781 0.43267 0.0
C1220 C 0.41662 0.40197 0.32063 0.0
C1221 C 0.42282 0.41393 0.29131 0.0
C1222 C 0.40093 0.39635 0.34237 0.0
C1223 C 0.39093 0.40242 0.33488 0.0
C1224 C 0.39665 0.41397 0.30425 0.0
C1225 C 0.41244 0.41964 0.28242 0.0
C1226 C 0.37534 0.39736 0.36191 0.0
C1227 C 0.37584 0.4082 0.39012 0.0
C1228 C 0.36117 0.38183 0.36398 0.0
C1229 C 0.35951 0.36996 0.33334 0.0
C1230 C 0.35963 0.37126 0.28558 0.0
C1231 C 0.35877 0.36037 0.25704 0.0
C1232 C 0.35766 0.34806 0.27581 0.0
C1233 C 0.3573 0.34657 0.32314 0.0
C1234 C 0.35819 0.35744 0.35184 0.0
C1235 C 0.30695 0.3666 0.48767 0.0
C1236 C 0.31392 0.37015 0.53401 0.0
C1237 C 0.31852 0.37281 0.45274 0.0
C1238 C 0.33728 0.38278 0.46338 0.0
C1239 C 0.34426 0.38671 0.50962 0.0
C1240 C 0.33268 0.38049 0.54466 0.0
C1241 C 0.34962 0.38826 0.42627 0.0
C1242 C 0.34853 0.37748 0.3963 0.0
C1243 C 0.3631 0.40386 0.42217 0.0
C1244 C 0.36419 0.4158 0.45088 0.0
C1245 C 0.38047 0.42697 0.47644 0.0
C1246 C 0.38146 0.43819 0.50356 0.0
C1247 C 0.36627 0.43839 0.50528 0.0
C1248 C 0.35006 0.42739 0.47978 0.0
C1249 C 0.349 0.41616 0.45256 0.0
H1250 H 0.36706 0.44708 0.52632 0.0
H1251 H 0.35706 0.33967 0.25367 0.0
H1252 H 0.64803 0.89733 0.47982 0.0
H1253 H 0.63159 0.90414 0.429 0.0
H1254 H 0.61997 0.92064 0.54623 0.0
H1255 H 0.63572 0.91323 0.59727 0.0
H1256 H 0.59245 0.90865 0.48464 0.0
H1257 H 0.65656 0.94468 0.48155 0.0
H1258 H 0.68778 0.9531 0.47204 0.0
H1259 H 0.67202 0.93492 0.3323 0.0
H1260 H 0.64064 0.92624 0.34117 0.0
H1261 H 0.58613 0.96475 0.37385 0.0
H1262 H 0.59347 0.95033 0.42225 0.0
H1263 H 0.59717 0.92942 0.30155 0.0
H1264 H 0.5898 0.94372 0.25296 0.0
H1265 H 0.6274 0.94246 0.36281 0.0
H1266 H 0.56298 0.90859 0.36702 0.0
H1267 H 0.5326 0.90172 0.37939 0.0
H1268 H 0.55005 0.91796 0.5206 0.0
H1269 H 0.58063 0.92513 0.50892 0.0
C1270 C 0.64168 0.90214 0.49481 0.0
C1271 C 0.64331 0.90484 0.54257 0.0
C1272 C 0.63238 0.90614 0.46569 0.0
C1273 C 0.62492 0.91331 0.48359 0.0
C1274 C 0.62566 0.91522 0.53144 0.0
C1275 C 0.63469 0.91097 0.56064 0.0
C1276 C 0.61743 0.91967 0.45258 0.0
C1277 C 0.60017 0.91614 0.45826 0.0
C1278 C 0.62735 0.92936 0.41772 0.0
C1279 C 0.64623 0.93467 0.41217 0.0
C1280 C 0.65974 0.9424 0.44888 0.0
C1281 C 0.67746 0.94723 0.4436 0.0
C1282 C 0.68187 0.94451 0.40163 0.0
C1283 C 0.66858 0.937 0.36481 0.0
C1284 C 0.65083 0.93213 0.36993 0.0
C1285 C 0.58816 0.95686 0.35757 0.0
C1286 C 0.58742 0.95543 0.30949 0.0
C1287 C 0.59232 0.9486 0.38531 0.0
C1288 C 0.59587 0.93878 0.36554 0.0
C1289 C 0.5945 0.93694 0.31756 0.0
C1290 C 0.59021 0.94509 0.28982 0.0
C1291 C 0.60243 0.9314 0.39474 0.0
C1292 C 0.6196 0.93484 0.38888 0.0
C1293 C 0.59255 0.92188 0.42982 0.0
C1294 C 0.57415 0.91752 0.43697 0.0
C1295 C 0.56039 0.91082 0.40062 0.0
C1296 C 0.54312 0.90684 0.40753 0.0
C1297 C 0.53941 0.90943 0.45073 0.0
C1298 C 0.55295 0.91597 0.48715 0.0
C1299 C 0.57025 0.91998 0.48041 0.0
H1300 H 0.52603 0.90635 0.45601 0.0
H1301 H 0.6956 0.94825 0.39761 0.0
H1302 H 0.64264 0.00382 0.18729 0.0
H1303 H 0.66736 0.01791 0.13818 0.0
H1304 H 0.66931 0.05811 0.16567 0.0
H1305 H 0.64468 0.04412 0.21549 0.0
H1306 H 0.66558 0.04943 0.07029 0.0
H1307 H 0.70319 0.0587 0.20784 0.0
H1308 H 0.7129 0.05172 0.27765 0.0
H1309 H 0.72106 0.0233 0.19594 0.0
H1310 H 0.71115 0.02994 0.12565 0.0
H1311 H 0.74437 0.09704 0.94936 0.0
H1312 H 0.72 0.08513 1.0003 0.0
H1313 H 0.72255 0.04652 0.00545 0.0
H1314 H 0.74734 0.05866 0.95615 0.0
H1315 H 0.72456 0.05621 0.08774 0.0
H1316 H 0.6856 0.04509 0.95122 0.0
H1317 H 0.67472 0.0506 0.88019 0.0
H1318 H 0.66779 0.08064 0.95717 0.0
H1319 H 0.67886 0.07547 0.02863 0.0
C1320 C 0.6486 0.01575 0.18371 0.0
C1321 C 0.64174 0.02287 0.20521 0.0
C1322 C 0.66269 0.02377 0.15563 0.0
C1323 C 0.67006 0.03901 0.14823 0.0
C1324 C 0.66374 0.04634 0.17099 0.0
C1325 C 0.6498 0.03837 0.19971 0.0
C1326 C 0.68352 0.04688 0.11438 0.0
C1327 C 0.67864 0.0512 0.07431 0.0
C1328 C 0.70025 0.04871 0.11928 0.0
C1329 C 0.70628 0.04473 0.16149 0.0
C1330 C 0.70691 0.05086 0.20477 0.0
C1331 C 0.71248 0.04699 0.24443 0.0
C1332 C 0.71755 0.03704 0.24124 0.0
C1333 C 0.71711 0.03099 0.19836 0.0
C1334 C 0.71154 0.03482 0.1586 0.0
C1335 C 0.73936 0.08583 0.96035 0.0
C1336 C 0.74777 0.07878 0.94904 0.0
C1337 C 0.72544 0.07903 0.98953 0.0
C1338 C 0.71946 0.06494 0.00693 0.0
C1339 C 0.72704 0.05746 0.9929 0.0
C1340 C 0.74113 0.06435 0.96449 0.0
C1341 C 0.70656 0.05856 0.04284 0.0
C1342 C 0.71156 0.05455 0.08352 0.0
C1343 C 0.68984 0.05684 0.03815 0.0
C1344 C 0.68325 0.06002 0.99521 0.0
C1345 C 0.68191 0.05298 0.95295 0.0
C1346 C 0.67568 0.05602 0.91262 0.0
C1347 C 0.67062 0.066 0.91414 0.0
C1348 C 0.67174 0.07293 0.95603 0.0
C1349 C 0.67798 0.06994 0.99646 0.0
H1350 H 0.66579 0.06833 0.88289 0.0
H1351 H 0.72186 0.03406 0.27198 0.0
H1352 H 0.92857 0.61277 0.92229 0.0
H1353 H 0.93581 0.59855 0.97132 0.0
H1354 H 0.92476 0.6149 0.09006 0.0
H1355 H 0.91808 0.6296 0.04121 0.0
H1356 H 0.95562 0.61926 0.10627 0.0
H1357 H 0.89748 0.57638 0.04766 0.0
H1358 H 0.87276 0.55896 0.98891 0.0
H1359 H 0.90679 0.54851 0.93079 0.0
H1360 H 0.93182 0.56603 0.98881 0.0
H1361 H 0.97191 0.57739 0.25834 0.0
H1362 H 0.95414 0.58388 0.21176 0.0
H1363 H 0.97235 0.57646 0.08898 0.0
H1364 H 0.99022 0.56997 0.13531 0.0
H1365 H 0.93554 0.56614 0.07854 0.0
H1366 H 0.99418 0.61099 0.13365 0.0
H1367 H 0.01861 0.62823 0.19328 0.0
H1368 H 0.9824 0.63456 0.25914 0.0
H1369 H 0.95767 0.61717 0.20022 0.0
C1370 C 0.92728 0.61309 0.95871 0.0
C1371 C 0.92279 0.62237 0.97782 0.0
C1372 C 0.93138 0.60487 0.9868 0.0
C1373 C 0.93076 0.60553 0.03456 0.0
C1374 C 0.9254 0.61421 0.05339 0.0
C1375 C 0.92149 0.62256 0.02537 0.0
C1376 C 0.93737 0.5984 0.06507 0.0
C1377 C 0.95088 0.60754 0.10068 0.0
C1378 C 0.93161 0.5832 0.05735 0.0
C1379 C 0.91658 0.57263 0.0224 0.0
C1380 C 0.89975 0.57046 0.02214 0.0
C1381 C 0.88567 0.56055 0.989 0.0
C1382 C 0.88822 0.55266 0.95608 0.0
C1383 C 0.90484 0.55464 0.95629 0.0
C1384 C 0.91897 0.56455 0.98934 0.0
C1385 C 0.97188 0.57684 0.22138 0.0
C1386 C 0.98262 0.57329 0.20059 0.0
C1387 C 0.96174 0.5806 0.19481 0.0
C1388 C 0.9621 0.58083 0.14694 0.0
C1389 C 0.97189 0.57637 0.12585 0.0
C1390 C 0.98214 0.5727 0.15243 0.0
C1391 C 0.95364 0.58702 0.11936 0.0
C1392 C 0.93996 0.57777 0.08429 0.0
C1393 C 0.95914 0.6021 0.12763 0.0
C1394 C 0.97403 0.61265 0.16284 0.0
C1395 C 0.99139 0.61597 0.16106 0.0
C1396 C 0.0053 0.62578 0.19469 0.0
C1397 C 0.00205 0.63245 0.23006 0.0
C1398 C 0.98489 0.62936 0.23178 0.0
C1399 C 0.97093 0.61953 0.19827 0.0
H1400 H 0.01283 0.64004 0.25607 0.0
H1401 H 0.8773 0.545 0.93045 0.0
H1402 H 0.40879 0.29051 0.94875 0.0
H1403 H 0.42863 0.31607 0.98656 0.0
H1404 H 0.40091 0.29923 0.10926 0.0
H1405 H 0.38059 0.27413 0.07084 0.0
H1406 H 0.4046 0.32349 0.09657 0.0
H1407 H 0.44612 0.30952 0.09451 0.0
H1408 H 0.46308 0.30102 0.05979 0.0
H1409 H 0.48827 0.33969 0.97766 0.0
H1410 H 0.47128 0.34833 0.01151 0.0
H1411 H 0.46683 0.38097 0.26289 0.0
H1412 H 0.45377 0.35769 0.21511 0.0
H1413 H 0.46637 0.38289 0.09359 0.0
H1414 H 0.47917 0.40634 0.14119 0.0
H1415 H 0.47157 0.3562 0.10039 0.0
H1416 H 0.42882 0.36961 0.10896 0.0
H1417 H 0.41282 0.37756 0.15168 0.0
H1418 H 0.39057 0.33827 0.23067 0.0
H1419 H 0.40674 0.33024 0.18897 0.0
C1420 C 0.40707 0.29232 0.98387 0.0
C1421 C 0.39309 0.28035 0.00674 0.0
C1422 C 0.41847 0.30691 0.00562 0.0
C1423 C 0.41644 0.30968 0.05111 0.0
C1424 C 0.40275 0.29755 0.07412 0.0
C1425 C 0.39113 0.28314 0.05213 0.0
C1426 C 0.4279 0.32519 0.07465 0.0
C1427 C 0.41925 0.3305 0.09753 0.0
C1428 C 0.44706 0.33465 0.07556 0.0
C1429 C 0.45727 0.32947 0.05515 0.0
C1430 C 0.45517 0.31615 0.06878 0.0
C1431 C 0.46481 0.31131 0.04931 0.0
C1432 C 0.4767 0.31978 0.01643 0.0
C1433 C 0.47903 0.33312 0.00306 0.0
C1434 C 0.46941 0.338 0.0224 0.0
C1435 C 0.46727 0.38169 0.22609 0.0
C1436 C 0.47394 0.39553 0.20586 0.0
C1437 C 0.45977 0.36834 0.19884 0.0
C1438 C 0.45903 0.36858 0.15089 0.0
C1439 C 0.46688 0.3825 0.13058 0.0
C1440 C 0.47415 0.39587 0.15784 0.0
C1441 C 0.44816 0.35409 0.12245 0.0
C1442 C 0.45691 0.34909 0.09882 0.0
C1443 C 0.42909 0.34471 0.12158 0.0
C1444 C 0.41915 0.34942 0.14617 0.0
C1445 C 0.42066 0.36274 0.13574 0.0
C1446 C 0.41153 0.36725 0.15972 0.0
C1447 C 0.40072 0.35845 0.19396 0.0
C1448 C 0.39897 0.34509 0.20419 0.0
C1449 C 0.40811 0.34055 0.18038 0.0
H1450 H 0.39366 0.36195 0.21248 0.0
H1451 H 0.48415 0.31602 1.0014 0.0
H1452 H 0.9404 0.2884 0.53702 0.0
H1453 H 0.94734 0.3104 0.58242 0.0
H1454 H 0.91485 0.31618 0.48247 0.0
H1455 H 0.90897 0.2947 0.43519 0.0
H1456 H 0.94217 0.34168 0.5027 0.0
H1457 H 0.90271 0.30373 0.59826 0.0
H1458 H 0.88947 0.28087 0.6424 0.0
H1459 H 0.93898 0.30217 0.72979 0.0
H1460 H 0.95261 0.32509 0.6858 0.0
H1461 H 0.95904 0.38873 0.73574 0.0
H1462 H 0.94147 0.3649 0.6882 0.0
H1463 H 0.98449 0.38327 0.59867 0.0
H1464 H 1.00137 0.40727 0.64411 0.0
H1465 H 0.94541 0.34459 0.67254 0.0
H1466 H 0.97208 0.36752 0.49434 0.0
H1467 H 0.98016 0.38947 0.44956 0.0
H1468 H 0.94664 0.39653 0.52597 0.0
H1469 H 0.93815 0.3745 0.57079 0.0
C1470 C 0.93448 0.2942 0.52505 0.0
C1471 C 0.92406 0.28976 0.48259 0.0
C1472 C 0.93837 0.30679 0.55129 0.0
C1473 C 0.93141 0.31496 0.53661 0.0
C1474 C 0.92047 0.31018 0.49478 0.0
C1475 C 0.91699 0.29782 0.46784 0.0
C1476 C 0.93665 0.32904 0.56328 0.0
C1477 C 0.9427 0.34223 0.53982 0.0
C1478 C 0.93685 0.32985 0.61174 0.0
C1479 C 0.92872 0.31611 0.63851 0.0
C1480 C 0.91082 0.30351 0.62672 0.0
C1481 C 0.90324 0.29054 0.65173 0.0
C1482 C 0.91339 0.29006 0.68883 0.0
C1483 C 0.93113 0.30256 0.70104 0.0
C1484 C 0.93878 0.31555 0.67612 0.0
C1485 C 0.96453 0.38774 0.70533 0.0
C1486 C 0.9815 0.39994 0.69341 0.0
C1487 C 0.95453 0.37407 0.67826 0.0
C1488 C 0.96143 0.37221 0.63915 0.0
C1489 C 0.97845 0.38444 0.62753 0.0
C1490 C 0.9882 0.39819 0.65381 0.0
C1491 C 0.95146 0.3573 0.61201 0.0
C1492 C 0.94458 0.34397 0.63538 0.0
C1493 C 0.94968 0.35622 0.56336 0.0
C1494 C 0.95459 0.36941 0.53616 0.0
C1495 C 0.96635 0.3737 0.50142 0.0
C1496 C 0.97103 0.38617 0.47607 0.0
C1497 C 0.96396 0.39441 0.48499 0.0
C1498 C 0.95215 0.39017 0.5192 0.0
C1499 C 0.94743 0.3777 0.54462 0.0
H1500 H 0.9676 0.40407 0.46535 0.0
H1501 H 0.90749 0.28001 0.70814 0.0
H1502 H 0.62846 0.62107 0.65973 0.0
H1503 H 0.65293 0.63358 0.61011 0.0
H1504 H 0.68358 0.62265 0.69783 0.0
H1505 H 0.65869 0.60953 0.74717 0.0
H1506 H 0.68575 0.65645 0.61778 0.0
H1507 H 0.70849 0.61608 0.63446 0.0
H1508 H 0.69516 0.58928 0.64873 0.0
H1509 H 0.64273 0.57706 0.59706 0.0
H1510 H 0.65576 0.60373 0.58197 0.0
H1511 H 0.77051 0.69074 0.53605 0.0
H1512 H 0.74427 0.67753 0.57976 0.0
H1513 H 0.71625 0.64055 0.47621 0.0
H1514 H 0.74299 0.65357 0.43265 0.0
H1515 H 0.71056 0.62964 0.55701 0.0
H1516 H 0.70544 0.66641 0.48664 0.0
H1517 H 0.7154 0.69169 0.46223 0.0
H1518 H 0.72647 0.70835 0.60297 0.0
H1519 H 0.71677 0.68321 0.62828 0.0
C1520 C 0.64043 0.62138 0.66884 0.0
C1521 C 0.64154 0.61418 0.70735 0.0
C1522 C 0.65446 0.62859 0.64034 0.0
C1523 C 0.66999 0.62887 0.64975 0.0
C1524 C 0.67154 0.62229 0.68932 0.0
C1525 C 0.65738 0.61491 0.71771 0.0
C1526 C 0.68434 0.63586 0.61756 0.0
C1527 C 0.69118 0.65058 0.60456 0.0
C1528 C 0.69101 0.62803 0.59897 0.0
C1529 C 0.68308 0.61193 0.60757 0.0
C1530 C 0.69412 0.60766 0.62602 0.0
C1531 C 0.68662 0.59249 0.63428 0.0
C1532 C 0.66809 0.58148 0.62397 0.0
C1533 C 0.65705 0.5856 0.60523 0.0
C1534 C 0.66449 0.60074 0.59687 0.0
C1535 C 0.75874 0.67985 0.5222 0.0
C1536 C 0.75879 0.67325 0.48062 0.0
C1537 C 0.74369 0.67232 0.54727 0.0
C1538 C 0.72815 0.65817 0.53094 0.0
C1539 C 0.72809 0.6515 0.48941 0.0
C1540 C 0.74333 0.65897 0.46446 0.0
C1541 C 0.71221 0.65033 0.55808 0.0
C1542 C 0.70509 0.63548 0.57015 0.0
C1543 C 0.70475 0.6578 0.57435 0.0
C1544 C 0.71049 0.67294 0.55935 0.0
C1545 C 0.71011 0.67549 0.5124 0.0
C1546 C 0.7157 0.68979 0.49839 0.0
C1547 C 0.72161 0.70162 0.53102 0.0
C1548 C 0.72189 0.69917 0.57774 0.0
C1549 C 0.71632 0.68489 0.59193 0.0
H1550 H 0.72594 0.71269 0.5201 0.0
H1551 H 0.6623 0.56975 0.63041 0.0
H1552 H 0.40436 0.10697 0.4325 0.0
H1553 H 0.42596 0.10218 0.46752 0.0
H1554 H 0.40175 0.09404 0.59534 0.0
H1555 H 0.37994 0.0983 0.56053 0.0
H1556 H 0.44274 0.11463 0.59867 0.0
H1557 H 0.38866 0.06501 0.53908 0.0
H1558 H 0.3664 0.04752 0.47602 0.0
H1559 H 0.40921 0.05365 0.40219 0.0
H1560 H 0.43175 0.07137 0.46462 0.0
H1561 H 0.45949 0.07357 0.74907 0.0
H1562 H 0.44942 0.08559 0.69899 0.0
H1563 H 0.4643 0.07192 0.58168 0.0
H1564 H 0.47356 0.05911 0.63185 0.0
H1565 H 0.4333 0.06559 0.56066 0.0
H1566 H 0.48707 0.11088 0.62384 0.0
H1567 H 0.51073 0.1294 0.68288 0.0
H1568 H 0.47209 0.13365 0.74395 0.0
H1569 H 0.44812 0.11499 0.68569 0.0
C1570 C 0.40375 0.10423 0.4681 0.0
C1571 C 0.3904 0.10291 0.4937 0.0
C1572 C 0.41606 0.10151 0.48801 0.0
C1573 C 0.41544 0.0978 0.53402 0.0
C1574 C 0.40249 0.09694 0.55986 0.0
C1575 C 0.38997 0.09929 0.5398 0.0
C1576 C 0.42761 0.09408 0.55536 0.0
C1577 C 0.44077 0.10393 0.59051 0.0
C1578 C 0.42544 0.0804 0.54336 0.0
C1579 C 0.41188 0.06966 0.50617 0.0
C1580 C 0.39333 0.06274 0.5092 0.0
C1581 C 0.38066 0.05276 0.47362 0.0
C1582 C 0.38639 0.04952 0.43504 0.0
C1583 C 0.4048 0.0562 0.43204 0.0
C1584 C 0.41752 0.06621 0.46751 0.0
C1585 C 0.461 0.07338 0.71275 0.0
C1586 C 0.46735 0.06538 0.6945 0.0
C1587 C 0.45531 0.08037 0.68399 0.0
C1588 C 0.45628 0.07991 0.63632 0.0
C1589 C 0.46338 0.07247 0.61824 0.0
C1590 C 0.46878 0.06521 0.647 0.0
C1591 C 0.44831 0.08596 0.6055 0.0
C1592 C 0.43581 0.07651 0.56847 0.0
C1593 C 0.4514 0.1002 0.61523 0.0
C1594 C 0.46576 0.11145 0.65045 0.0
C1595 C 0.48358 0.11568 0.65003 0.0
C1596 C 0.49706 0.12622 0.68334 0.0
C1597 C 0.49291 0.13268 0.71718 0.0
C1598 C 0.47528 0.12864 0.71771 0.0
C1599 C 0.46175 0.1181 0.68449 0.0
H1600 H 0.50337 0.14084 0.74294 0.0
H1601 H 0.37657 0.04179 0.40753 0.0
H1602 H 0.30967 0.96513 0.03945 0.0
H1603 H 0.33401 0.97609 0.98882 0.0
H1604 H 0.33927 0.93936 0.01039 0.0
H1605 H 0.31517 0.92851 0.06227 0.0
H1606 H 0.3718 0.96557 1.00009 0.0
H1607 H 0.31306 0.937 0.91928 0.0
H1608 H 0.28188 0.92917 0.89935 0.0
H1609 H 0.30215 0.97376 0.85643 0.0
H1610 H 0.33347 0.98194 0.87681 0.0
H1611 H 0.41484 0.97792 0.79379 0.0
H1612 H 0.39034 0.96422 0.84417 0.0
H1613 H 0.38715 1.00242 0.85397 0.0
H1614 H 0.41183 0.01627 0.8045 0.0
H1615 H 0.35265 0.97276 0.8455 0.0
H1616 H 0.41163 1.00121 0.93273 0.0
H1617 H 0.44251 0.0082 0.95183 0.0
H1618 H 0.42094 0.96211 0.98034 0.0
H1619 H 0.38992 0.95479 0.96063 0.0
C1620 C 0.31634 0.9596 0.03439 0.0
C1621 C 0.31039 0.94587 0.05431 0.0
C1622 C 0.33016 0.96582 0.00524 0.0
C1623 C 0.33802 0.95827 0.99476 0.0
C1624 C 0.33323 0.94527 0.0177 0.0
C1625 C 0.31951 0.93912 0.04746 0.0
C1626 C 0.35003 0.96328 0.9571 0.0
C1627 C 0.36752 0.96692 0.96612 0.0
C1628 C 0.34443 0.96502 0.91271 0.0
C1629 C 0.32561 0.96012 0.89993 0.0
C1630 C 0.31087 0.94517 0.90588 0.0
C1631 C 0.29317 0.94066 0.89447 0.0
C1632 C 0.29003 0.95097 0.87672 0.0
C1633 C 0.3046 0.9658 0.87022 0.0
C1634 C 0.32233 0.97037 0.88166 0.0
C1635 C 0.40856 0.98321 0.80564 0.0
C1636 C 0.41524 0.99817 0.79546 0.0
C1637 C 0.39468 0.97543 0.83462 0.0
C1638 C 0.38716 0.98242 0.85307 0.0
C1639 C 0.39286 0.99688 0.84008 0.0
C1640 C 0.40692 0.00476 0.81186 0.0
C1641 C 0.37445 0.97531 0.88883 0.0
C1642 C 0.35682 0.97125 0.87937 0.0
C1643 C 0.37986 0.97301 0.93254 0.0
C1644 C 0.39848 0.97742 0.94464 0.0
C1645 C 0.41348 0.99254 0.94263 0.0
C1646 C 0.43101 0.99657 0.95364 0.0
C1647 C 0.43369 0.9856 0.96714 0.0
C1648 C 0.41884 0.97059 0.96977 0.0
C1649 C 0.40129 0.96649 0.95869 0.0
H1650 H 0.44727 0.98874 0.97569 0.0
H1651 H 0.27632 0.94746 0.86791 0.0
H1652 H 0.07774 0.44094 0.75414 0.0
H1653 H 0.0982 0.43579 0.79448 0.0
H1654 H 0.07067 0.42757 0.91671 0.0
H1655 H 0.05 0.43224 0.87666 0.0
H1656 H 0.11138 0.44853 0.92667 0.0
H1657 H 0.0599 0.39862 0.86285 0.0
H1658 H 0.03926 0.38059 0.79859 0.0
H1659 H 0.08445 0.38753 0.7347 0.0
H1660 H 0.10538 0.40578 0.79834 0.0
H1661 H 0.12967 0.40982 0.08422 0.0
H1662 H 0.11862 0.42058 0.03158 0.0
H1663 H 0.13723 0.4088 0.91833 0.0
H1664 H 0.14753 0.39725 0.97098 0.0
H1665 H 0.10561 0.40076 0.89374 0.0
H1666 H 0.15702 0.44722 0.96015 0.0
H1667 H 0.17908 0.46617 0.02086 0.0
H1668 H 0.13744 0.46789 0.07459 0.0
H1669 H 0.11506 0.44879 0.01461 0.0
C1670 C 0.07606 0.43801 0.78958 0.0
C1671 C 0.06219 0.43691 0.81213 0.0
C1672 C 0.08774 0.43509 0.81252 0.0
C1673 C 0.08594 0.43135 0.85858 0.0
C1674 C 0.0723 0.43049 0.88124 0.0
C1675 C 0.06043 0.43306 0.85816 0.0
C1676 C 0.09794 0.42802 0.88348 0.0
C1677 C 0.11017 0.43809 0.9197 0.0
C1678 C 0.0968 0.4147 0.87306 0.0
C1679 C 0.08421 0.4037 0.83499 0.0
C1680 C 0.06544 0.39642 0.83486 0.0
C1681 C 0.05369 0.38613 0.79861 0.0
C1682 C 0.06055 0.38296 0.7625 0.0
C1683 C 0.07917 0.39003 0.76264 0.0
C1684 C 0.09097 0.40033 0.79879 0.0
C1685 C 0.13177 0.40978 0.04826 0.0
C1686 C 0.13952 0.40269 0.03185 0.0
C1687 C 0.1255 0.41604 0.01805 0.0
C1688 C 0.12726 0.41575 0.97077 0.0
C1689 C 0.13567 0.40919 0.95455 0.0
C1690 C 0.14166 0.40267 0.98473 0.0
C1691 C 0.11893 0.42111 0.93829 0.0
C1692 C 0.10729 0.41141 0.90051 0.0
C1693 C 0.12092 0.43497 0.94677 0.0
C1694 C 0.13433 0.44648 0.98298 0.0
C1695 C 0.15254 0.45155 0.98509 0.0
C1696 C 0.16511 0.46234 0.01936 0.0
C1697 C 0.15966 0.46821 0.0516 0.0
C1698 C 0.14164 0.46333 0.04959 0.0
C1699 C 0.12901 0.45254 0.01541 0.0
H1700 H 0.16942 0.47656 0.0781 0.0
H1701 H 0.05143 0.37499 0.73447 0.0
H1702 H 0.59705 0.61491 0.89351 0.0
H1703 H 0.60491 0.63686 0.94158 0.0
H1704 H 0.58556 0.65131 0.83055 0.0
H1705 H 0.57765 0.62934 0.7821 0.0
H1706 H 0.62995 0.66605 0.92409 0.0
H1707 H 0.57135 0.67198 0.8785 0.0
H1708 H 0.53844 0.65563 0.85686 0.0
H1709 H 0.53424 0.61907 0.92622 0.0
H1710 H 0.56706 0.63525 0.9488 0.0
H1711 H 0.65856 0.74053 0.98096 0.0
H1712 H 0.6426 0.71616 0.93698 0.0
H1713 H 0.61034 0.6938 0.04937 0.0
H1714 H 0.62635 0.71817 0.09393 0.0
H1715 H 0.59055 0.68218 0.96007 0.0
H1716 H 0.64481 0.69322 0.04397 0.0
H1717 H 0.67746 0.70916 0.06879 0.0
H1718 H 0.68961 0.7102 0.92911 0.0
H1719 H 0.65701 0.69445 0.90339 0.0
C1720 C 0.59412 0.62258 0.87951 0.0
C1721 C 0.58677 0.62037 0.83382 0.0
C1722 C 0.59871 0.63518 0.90702 0.0
C1723 C 0.59588 0.64577 0.88971 0.0
C1724 C 0.58774 0.64324 0.84483 0.0
C1725 C 0.58324 0.63066 0.81713 0.0
C1726 C 0.60275 0.66003 0.91733 0.0
C1727 C 0.62129 0.66952 0.93194 0.0
C1728 C 0.59149 0.66459 0.9279 0.0
C1729 C 0.5717 0.6548 0.91493 0.0
C1730 C 0.56339 0.66047 0.88927 0.0
C1731 C 0.54475 0.65123 0.87682 0.0
C1732 C 0.53427 0.63631 0.89003 0.0
C1733 C 0.54238 0.63061 0.91584 0.0
C1734 C 0.56101 0.63981 0.92841 0.0
C1735 C 0.64784 0.7305 0.9961 0.0
C1736 C 0.64383 0.7313 0.04115 0.0
C1737 C 0.63875 0.71656 0.97089 0.0
C1738 C 0.62541 0.70316 0.99007 0.0
C1739 C 0.62059 0.70402 0.03392 0.0
C1740 C 0.62979 0.71795 0.05938 0.0
C1741 C 0.61773 0.68819 0.966 0.0
C1742 C 0.59913 0.67864 0.95206 0.0
C1743 C 0.62888 0.68346 0.9563 0.0
C1744 C 0.64848 0.69278 0.97173 0.0
C1745 C 0.65445 0.69694 0.01852 0.0
C1746 C 0.67295 0.70593 0.03275 0.0
C1747 C 0.68561 0.71072 1.00054 0.0
C1748 C 0.67979 0.7065 0.95402 0.0
C1749 C 0.66131 0.69753 0.9396 0.0
H1750 H 0.69992 0.71768 0.01162 0.0
H1751 H 0.51984 0.62917 0.88034 0.0
H1752 H 0.7078 0.9478 0.70089 0.0
H1753 H 0.72687 0.97387 0.73283 0.0
H1754 H 0.76619 0.98458 0.63722 0.0
H1755 H 0.74722 0.95821 0.60539 0.0
H1756 H 0.78269 0.9975 0.72116 0.0
H1757 H 0.73792 0.99567 0.61997 0.0
H1758 H 0.70702 0.98537 0.58635 0.0
H1759 H 0.69321 0.9926 0.71654 0.0
H1760 H 0.72395 0.00274 0.75112 0.0
H1761 H 0.79732 0.07588 0.77782 0.0
H1762 H 0.78647 0.05347 0.72769 0.0
H1763 H 0.79299 0.03175 0.84213 0.0
H1764 H 0.80394 0.05414 0.89246 0.0
H1765 H 0.75609 0.02641 0.73572 0.0
H1766 H 0.79959 0.0055 0.8031 0.0
H1767 H 0.83118 0.01639 0.83196 0.0
H1768 H 0.84927 0.0565 0.75975 0.0
H1769 H 0.81785 0.04577 0.72992 0.0
C1770 C 0.72047 0.95565 0.68641 0.0
C1771 C 0.72589 0.95089 0.65025 0.0
C1772 C 0.73137 0.97062 0.70472 0.0
C1773 C 0.74786 0.98129 0.687 0.0
C1774 C 0.75349 0.97656 0.65135 0.0
C1775 C 0.7426 0.9615 0.63308 0.0
C1776 C 0.75903 0.99732 0.706 0.0
C1777 C 0.77693 0.00386 0.72416 0.0
C1778 C 0.75167 0.00579 0.70901 0.0
C1779 C 0.73322 0.99989 0.68818 0.0
C1780 C 0.72827 0.99499 0.64149 0.0
C1781 C 0.71078 0.98918 0.62226 0.0
C1782 C 0.69815 0.98831 0.64931 0.0
C1783 C 0.703 0.99328 0.69563 0.0
C1784 C 0.72047 0.99908 0.71504 0.0
C1785 C 0.79688 0.0665 0.79216 0.0
C1786 C 0.80143 0.0668 0.83928 0.0
C1787 C 0.79058 0.05365 0.76344 0.0
C1788 C 0.78885 0.04089 0.78106 0.0
C1789 C 0.79436 0.04149 0.82754 0.0
C1790 C 0.80061 0.05432 0.85636 0.0
C1791 C 0.7796 0.02645 0.75222 0.0
C1792 C 0.76199 0.02016 0.7323 0.0
C1793 C 0.78735 0.01836 0.74702 0.0
C1794 C 0.80632 0.02487 0.76461 0.0
C1795 C 0.81031 0.01662 0.79322 0.0
C1796 C 0.82819 0.02277 0.80978 0.0
C1797 C 0.84222 0.03715 0.79781 0.0
C1798 C 0.83839 0.04539 0.76915 0.0
C1799 C 0.82054 0.03929 0.75248 0.0
H1800 H 0.85605 0.04189 0.81067 0.0
H1801 H 0.68462 0.9838 0.63437 0.0
H1802 H 0.09004 0.72553 0.65182 0.0
H1803 H 0.06529 0.7141 0.70146 0.0
H1804 H 0.05932 0.75043 0.67971 0.0
H1805 H 0.08397 0.76186 0.62927 0.0
H1806 H 0.06392 0.7451 0.77449 0.0
H1807 H 0.02721 0.71797 0.63495 0.0
H1808 H 0.01863 0.70232 0.56309 0.0
H1809 H 0.01342 0.66644 0.63902 0.0
H1810 H 0.02222 0.68195 0.71132 0.0
H1811 H 0.98399 0.71203 0.89329 0.0
H1812 H 0.00891 0.72509 0.84436 0.0
H1813 H 0.00881 0.6852 0.8328 0.0
H1814 H 0.98337 0.67193 0.87998 0.0
H1815 H 0.0069 0.6934 0.75225 0.0
H1816 H 0.04464 0.71994 0.89082 0.0
H1817 H 0.0544 0.7353 0.96379 0.0
H1818 H 0.05912 0.77177 0.89251 0.0
H1819 H 0.04915 0.75654 0.81914 0.0
C1820 C 0.08321 0.73092 0.65683 0.0
C1821 C 0.08891 0.74458 0.63671 0.0
C1822 C 0.0691 0.72439 0.68519 0.0
C1823 C 0.06058 0.73148 0.69429 0.0
C1824 C 0.06579 0.74483 0.67304 0.0
C1825 C 0.07974 0.75126 0.64399 0.0
C1826 C 0.04702 0.72534 0.72821 0.0
C1827 C 0.05127 0.7339 0.7695 0.0
C1828 C 0.03088 0.71056 0.72198 0.0
C1829 C 0.02553 0.70118 0.67854 0.0
C1830 C 0.02439 0.70679 0.63631 0.0
C1831 C 0.01945 0.69793 0.59549 0.0
C1832 C 0.01552 0.68341 0.59648 0.0
C1833 C 0.01648 0.6777 0.6383 0.0
C1834 C 0.02142 0.68651 0.67921 0.0
C1835 C 0.98967 0.70623 0.88146 0.0
C1836 C 0.98174 0.69097 0.89023 0.0
C1837 C 0.00392 0.7137 0.85341 0.0
C1838 C 0.01073 0.70612 0.83468 0.0
C1839 C 0.00368 0.69124 0.84642 0.0
C1840 C 0.98924 0.6837 0.87365 0.0
C1841 C 0.02385 0.71303 0.79934 0.0
C1842 C 0.01949 0.70462 0.75755 0.0
C1843 C 0.04001 0.72787 0.80545 0.0
C1844 C 0.04596 0.73704 0.84954 0.0
C1845 C 0.0476 0.73119 0.89075 0.0
C1846 C 0.05321 0.73988 0.93218 0.0
C1847 C 0.05733 0.75448 0.93281 0.0
C1848 C 0.05589 0.76044 0.89198 0.0
C1849 C 0.05028 0.75179 0.85046 0.0
H1850 H 0.06167 0.7612 0.96491 0.0
H1851 H 0.0117 0.67657 0.56484 0.0
H1852 H 0.29865 0.32192 0.694 0.0
H1853 H 0.30376 0.30462 0.73133 0.0
H1854 H 0.25354 0.26646 0.66426 0.0
H1855 H 0.24805 0.28388 0.62702 0.0
H1856 H 0.25703 0.26153 0.75244 0.0
H1857 H 0.29385 0.27615 0.62905 0.0
H1858 H 0.31623 0.29357 0.57693 0.0
H1859 H 0.35732 0.31526 0.68992 0.0
H1860 H 0.33513 0.29812 0.74287 0.0
H1861 H 0.32021 0.23438 0.81933 0.0
H1862 H 0.30661 0.24248 0.76342 0.0
H1863 H 0.28957 0.25696 0.8736 0.0
H1864 H 0.30255 0.24837 0.92942 0.0
H1865 H 0.31629 0.26914 0.75005 0.0
H1866 H 0.25475 0.2585 0.83963 0.0
H1867 H 0.23111 0.23923 0.88583 0.0
H1868 H 0.23694 0.20563 0.82928 0.0
H1869 H 0.26043 0.22464 0.78225 0.0
C1870 C 0.28866 0.30986 0.68677 0.0
C1871 C 0.27294 0.30433 0.6572 0.0
C1872 C 0.29168 0.29995 0.70812 0.0
C1873 C 0.2792 0.28421 0.70015 0.0
C1874 C 0.26342 0.27856 0.67079 0.0
C1875 C 0.26033 0.28854 0.64937 0.0
C1876 C 0.2827 0.27387 0.72363 0.0
C1877 C 0.26992 0.26309 0.75169 0.0
C1878 C 0.29931 0.27558 0.72171 0.0
C1879 C 0.31278 0.28589 0.68998 0.0
C1880 C 0.30763 0.2847 0.64284 0.0
C1881 C 0.32029 0.29451 0.61314 0.0
C1882 C 0.33818 0.30552 0.63011 0.0
C1883 C 0.34345 0.30672 0.67682 0.0
C1884 C 0.33084 0.29694 0.70669 0.0
C1885 C 0.31322 0.23899 0.83159 0.0
C1886 C 0.31248 0.24073 0.87886 0.0
C1887 C 0.30549 0.24367 0.79956 0.0
C1888 C 0.29695 0.2503 0.81404 0.0
C1889 C 0.29571 0.25161 0.86125 0.0
C1890 C 0.30323 0.24674 0.89326 0.0
C1891 C 0.2909 0.25714 0.78039 0.0
C1892 C 0.30325 0.26734 0.75041 0.0
C1893 C 0.27372 0.25459 0.77977 0.0
C1894 C 0.25947 0.24304 0.80765 0.0
C1895 C 0.25093 0.24698 0.83686 0.0
C1896 C 0.23757 0.23611 0.86324 0.0
C1897 C 0.23256 0.22123 0.86058 0.0
C1898 C 0.24088 0.21718 0.83143 0.0
C1899 C 0.25424 0.22801 0.80495 0.0
H1900 H 0.22222 0.21283 0.88105 0.0
H1901 H 0.34796 0.31312 0.60706 0.0
H1902 H 0.98542 0.26172 0.38668 0.0
H1903 H 0.01028 0.27277 0.33732 0.0
H1904 H 0.00281 0.30782 0.30593 0.0
H1905 H 0.97764 0.29656 0.35391 0.0
H1906 H 0.00365 0.29559 0.23025 0.0
H1907 H 0.04023 0.31446 0.37475 0.0
H1908 H 0.05067 0.31265 0.45275 0.0
H1909 H 0.06441 0.28374 0.3994 0.0
H1910 H 0.05382 0.28522 0.3211 0.0
H1911 H 0.08584 0.35177 0.14175 0.0
H1912 H 0.0598 0.33619 0.18577 0.0
H1913 H 0.06734 0.30033 0.17983 0.0
H1914 H 0.09338 0.31585 0.13495 0.0
H1915 H 0.06569 0.30974 0.27025 0.0
H1916 H 0.03164 0.29352 0.12385 0.0
H1917 H 0.02215 0.29669 0.04653 0.0
H1918 H 0.00451 0.32216 0.10488 0.0
H1919 H 0.01414 0.31933 0.18256 0.0
C1920 C 0.98936 0.27198 0.37008 0.0
C1921 C 0.97954 0.27824 0.37399 0.0
C1922 C 0.00357 0.27828 0.3418 0.0
C1923 C 0.0084 0.29111 0.31775 0.0
C1924 C 0.99922 0.29783 0.32375 0.0
C1925 C 0.9849 0.29144 0.35141 0.0
C1926 C 0.02213 0.29702 0.28398 0.0
C1927 C 0.01727 0.29883 0.23923 0.0
C1928 C 0.03972 0.30074 0.29509 0.0
C1929 C 0.04603 0.2998 0.34215 0.0
C1930 C 0.04533 0.30761 0.3797 0.0
C1931 C 0.0513 0.30666 0.42396 0.0
C1932 C 0.05814 0.29804 0.43105 0.0
C1933 C 0.05907 0.29038 0.39387 0.0
C1934 C 0.0531 0.29128 0.34955 0.0
C1935 C 0.08173 0.34045 0.14896 0.0
C1936 C 0.09162 0.33501 0.13495 0.0
C1937 C 0.06686 0.33156 0.17408 0.0
C1938 C 0.06171 0.31714 0.18605 0.0
C1939 C 0.07114 0.31144 0.17083 0.0
C1940 C 0.08589 0.32026 0.14495 0.0
C1941 C 0.04728 0.30864 0.21722 0.0
C1942 C 0.05199 0.30632 0.26132 0.0
C1943 C 0.02961 0.3046 0.20574 0.0
C1944 C 0.02374 0.3063 0.15905 0.0
C1945 C 0.02588 0.2999 0.1202 0.0
C1946 C 0.02044 0.30162 0.07629 0.0
C1947 C 0.01276 0.30965 0.07079 0.0
C1948 C 0.01047 0.31595 0.10919 0.0
C1949 C 0.01589 0.31427 0.15317 0.0
H1950 H 0.00856 0.31096 0.03677 0.0
H1951 H 0.06277 0.29733 0.46533 0.0
H1952 H 0.8031 0.74511 0.41329 0.0
H1953 H 0.78956 0.75467 0.36333 0.0
H1954 H 0.79443 0.73364 0.2451 0.0
H1955 H 0.80763 0.72365 0.295 0.0
H1956 H 0.80273 0.76723 0.24293 0.0
H1957 H 0.75805 0.71339 0.2673 0.0
H1958 H 0.74324 0.69215 0.31814 0.0
H1959 H 0.72753 0.71554 0.3983 0.0
H1960 H 0.74251 0.73704 0.34824 0.0
H1961 H 0.73848 0.76983 0.09432 0.0
H1962 H 0.75772 0.76314 0.13229 0.0
H1963 H 0.73421 0.7593 0.25926 0.0
H1964 H 0.71438 0.76504 0.2209 0.0
H1965 H 0.7364 0.73754 0.25248 0.0
H1966 H 0.77913 0.7907 0.23296 0.0
H1967 H 0.79564 0.81391 0.19042 0.0
H1968 H 0.81655 0.79478 0.11023 0.0
H1969 H 0.79997 0.77137 0.15195 0.0
C1970 C 0.80174 0.74282 0.37658 0.0
C1971 C 0.80636 0.73354 0.35815 0.0
C1972 C 0.79398 0.74829 0.3481 0.0
C1973 C 0.79097 0.74482 0.30063 0.0
C1974 C 0.79673 0.73648 0.28167 0.0
C1975 C 0.80423 0.73077 0.31024 0.0
C1976 C 0.77982 0.74829 0.27206 0.0
C1977 C 0.78818 0.76066 0.24427 0.0
C1978 C 0.76096 0.73993 0.27501 0.0
C1979 C 0.75153 0.72686 0.30431 0.0
C1980 C 0.75155 0.71404 0.29595 0.0
C1981 C 0.7431 0.70195 0.32458 0.0
C1982 C 0.73449 0.70251 0.36149 0.0
C1983 C 0.73423 0.71513 0.36972 0.0
C1984 C 0.74267 0.72726 0.3412 0.0
C1985 C 0.73748 0.76756 0.13033 0.0
C1986 C 0.72487 0.7679 0.15457 0.0
C1987 C 0.74857 0.76383 0.15216 0.0
C1988 C 0.74766 0.76085 0.199 0.0
C1989 C 0.73518 0.76141 0.22313 0.0
C1990 C 0.72384 0.76474 0.20113 0.0
C1991 C 0.75921 0.75676 0.22311 0.0
C1992 C 0.75091 0.74418 0.2504 0.0
C1993 C 0.77819 0.76517 0.22033 0.0
C1994 C 0.78815 0.77922 0.19521 0.0
C1995 C 0.78714 0.7914 0.20602 0.0
C1996 C 0.79652 0.8046 0.1821 0.0
C1997 C 0.80709 0.8058 0.14755 0.0
C1998 C 0.80833 0.79382 0.13694 0.0
C1999 C 0.79895 0.78059 0.16073 0.0
H2000 H 0.81435 0.81603 0.12907 0.0
H2001 H 0.72798 0.69315 0.38363 0.0
H2002 H 0.24979 0.94586 0.21553 0.0
H2003 H 0.25668 0.96748 0.26401 0.0
H2004 H 0.2615 0.99172 0.14354 0.0
H2005 H 0.25454 0.97017 0.09486 0.0
H2006 H 0.2915 0.00789 0.20651 0.0
H2007 H 0.22697 0.98001 0.20665 0.0
H2008 H 0.19625 0.95769 0.21728 0.0
H2009 H 0.21225 0.95853 0.35934 0.0
H2010 H 0.24315 0.98074 0.34942 0.0
H2011 H 0.3113 0.07366 0.32224 0.0
H2012 H 0.29549 0.05069 0.2713 0.0
H2013 H 0.28299 0.02351 0.38857 0.0
H2014 H 0.29822 0.04641 0.43971 0.0
H2015 H 0.25567 0.00872 0.32548 0.0
H2016 H 0.31973 0.03417 0.32682 0.0
H2017 H 0.35128 0.05568 0.3193 0.0
H2018 H 0.33731 0.05829 0.17837 0.0
H2019 H 0.3056 0.03691 0.18524 0.0
C2020 C 0.25193 0.95566 0.19929 0.0
C2021 C 0.25166 0.95628 0.15127 0.0
C2022 C 0.25584 0.96802 0.22708 0.0
C2023 C 0.25963 0.98125 0.20742 0.0
C2024 C 0.25865 0.98165 0.15946 0.0
C2025 C 0.25458 0.96926 0.13166 0.0
C2026 C 0.26615 0.9951 0.23677 0.0
C2027 C 0.28352 0.00815 0.23193 0.0
C2028 C 0.25602 0.99529 0.27108 0.0
C2029 C 0.23743 0.98196 0.27717 0.0
C2030 C 0.22399 0.97536 0.24007 0.0
C2031 C 0.20653 0.96274 0.24599 0.0
C2032 C 0.20231 0.95667 0.28893 0.0
C2033 C 0.21554 0.96323 0.32608 0.0
C2034 C 0.23302 0.97585 0.32034 0.0
C2035 C 0.30494 0.06278 0.33722 0.0
C2036 C 0.30616 0.06189 0.38505 0.0
C2037 C 0.29598 0.04963 0.30802 0.0
C2038 C 0.28839 0.03534 0.32596 0.0
C2039 C 0.28879 0.03437 0.37379 0.0
C2040 C 0.29754 0.0475 0.40303 0.0
C2041 C 0.28102 0.02156 0.29501 0.0
C2042 C 0.26358 0.00851 0.29973 0.0
C2043 C 0.2912 0.02124 0.26101 0.0
C2044 C 0.31026 0.03405 0.25668 0.0
C2045 C 0.32336 0.0394 0.29432 0.0
C2046 C 0.34127 0.05156 0.29016 0.0
C2047 C 0.34628 0.05838 0.24842 0.0
C2048 C 0.3334 0.05302 0.2107 0.0
C2049 C 0.31546 0.04088 0.21469 0.0
H2050 H 0.36015 0.06779 0.24527 0.0
H2051 H 0.18879 0.9469 0.29345 0.0
loop_
_geom_bond_atom_site_label_1
_geom_bond_atom_site_label_2
_geom_bond_distance
_geom_bond_site_symmetry_2
_ccdc_geom_bond_type
O0 Cd1 2.223 . S
O0 C8 1.315 . S
Cd1 O0 2.223 . S
Cd1 O4 2.297 . S
Cd1 O5 2.439 . S
Cd1 O11 2.240 . S
Cd2 O3 2.240 . S
Cd2 O10 2.223 . S
Cd2 O12 2.297 . S
Cd2 O13 2.439 . S
O3 Cd2 2.240 . S
O3 C8 1.279 . S
O4 Cd1 2.297 . S
O4 C6 1.247 . S
O5 Cd1 2.439 . S
O5 C6 1.208 . S
C6 O4 1.247 . S
C6 O5 1.208 . S
C7 O12 1.247 . S
C7 O13 1.208 . S
C8 O0 1.315 . S
C8 O3 1.279 . S
C9 O10 1.315 . S
C9 O11 1.279 . S
O10 Cd2 2.223 . S
O10 C9 1.315 . S
O11 Cd1 2.240 . S
O11 C9 1.279 . S
O12 Cd2 2.297 . S
O12 C7 1.247 . S
O13 Cd2 2.439 . S
O13 C7 1.208 . S
O14 Cd15 2.223 . S
O14 C22 1.315 . S
Cd15 O14 2.223 . S
Cd15 O18 2.297 . S
Cd15 O19 2.439 . S
Cd15 O25 2.240 . S
Cd16 O17 2.240 . S
Cd16 O24 2.223 . S
Cd16 O26 2.297 . S
Cd16 O27 2.439 . S
O17 Cd16 2.240 . S
O17 C22 1.279 . S
O18 Cd15 2.297 . S
O18 C20 1.247 . S
O19 Cd15 2.439 . S
O19 C20 1.208 . S
C20 O18 1.247 . S
C20 O19 1.208 . S
C21 O26 1.247 . S
C21 O27 1.208 . S
C22 O14 1.315 . S
C22 O17 1.279 . S
C23 O24 1.315 . S
C23 O25 1.279 . S
O24 Cd16 2.223 . S
O24 C23 1.315 . S
O25 Cd15 2.240 . S
O25 C23 1.279 . S
O26 Cd16 2.297 . S
O26 C21 1.247 . S
O27 Cd16 2.439 . S
O27 C21 1.208 . S
O28 Cd29 2.223 . S
O28 C36 1.315 . S
Cd29 O28 2.223 . S
Cd29 O32 2.297 . S
Cd29 O33 2.439 . S
Cd29 O39 2.240 . S
Cd30 O31 2.240 . S
Cd30 O38 2.230 . S
Cd30 O40 2.297 . S
Cd30 O41 2.439 . S
O31 Cd30 2.240 . S
O31 C36 1.279 1_565 S
O32 Cd29 2.297 . S
O32 C34 1.247 . S
O33 Cd29 2.439 . S
O33 C34 1.208 . S
C34 O32 1.247 . S
C34 O33 1.208 . S
C35 O40 1.247 . S
C35 O41 1.208 . S
C36 O28 1.315 . S
C36 O31 1.279 1_545 S
C37 O38 1.300 1_545 S
C37 O39 1.279 . S
O38 Cd30 2.230 . S
O38 C37 1.300 1_565 S
O39 Cd29 2.240 . S
O39 C37 1.279 . S
O40 Cd30 2.297 . S
O40 C35 1.247 . S
O41 Cd30 2.439 . S
O41 C35 1.208 . S
O42 Cd43 2.223 . S
O42 C50 1.315 . S
Cd43 O42 2.223 . S
Cd43 O46 2.297 . S
Cd43 O47 2.439 . S
Cd43 O53 2.240 . S
Cd44 O45 2.240 1_655 S
Cd44 O52 2.223 1_655 S
Cd44 O54 2.297 . S
Cd44 O55 2.439 . S
O45 Cd44 2.240 1_455 S
O45 C50 1.279 . S
O46 Cd43 2.297 . S
O46 C48 1.247 . S
O47 Cd43 2.439 . S
O47 C48 1.208 . S
C48 O46 1.247 . S
C48 O47 1.208 . S
C49 O54 1.247 . S
C49 O55 1.208 . S
C50 O42 1.315 . S
C50 O45 1.279 . S
C51 O52 1.315 . S
C51 O53 1.279 . S
O52 Cd44 2.223 1_455 S
O52 C51 1.315 . S
O53 Cd43 2.240 . S
O53 C51 1.279 . S
O54 Cd44 2.297 . S
O54 C49 1.247 . S
O55 Cd44 2.439 . S
O55 C49 1.208 . S
O56 Cd57 2.223 . S
O56 C64 1.315 . S
Cd57 O56 2.223 . S
Cd57 O60 2.297 . S
Cd57 O61 2.439 . S
Cd57 O67 2.240 . S
Cd58 O59 2.240 . S
Cd58 O66 2.223 . S
Cd58 O68 2.297 . S
Cd58 O69 2.439 . S
O59 Cd58 2.240 . S
O59 C64 1.279 . S
O60 Cd57 2.297 . S
O60 C62 1.247 . S
O61 Cd57 2.439 . S
O61 C62 1.208 . S
C62 O60 1.247 . S
C62 O61 1.208 . S
C63 O68 1.247 . S
C63 O69 1.208 . S
C64 O56 1.315 . S
C64 O59 1.279 . S
C65 O66 1.315 . S
C65 O67 1.279 . S
O66 Cd58 2.223 . S
O66 C65 1.315 . S
O67 Cd57 2.240 . S
O67 C65 1.279 . S
O68 Cd58 2.297 . S
O68 C63 1.247 . S
O69 Cd58 2.439 . S
O69 C63 1.208 . S
O70 Cd71 2.223 . S
O70 C78 1.315 . S
Cd71 O70 2.223 . S
Cd71 O74 2.297 . S
Cd71 O75 2.439 . S
Cd71 O81 2.240 . S
Cd72 O73 2.240 . S
Cd72 O80 2.223 . S
Cd72 O82 2.297 . S
Cd72 O83 2.439 . S
O73 Cd72 2.240 . S
O73 C78 1.279 . S
O74 Cd71 2.297 . S
O74 C76 1.247 . S
O75 Cd71 2.439 . S
O75 C76 1.208 . S
C76 O74 1.247 . S
C76 O75 1.208 . S
C77 O82 1.247 . S
C77 O83 1.208 . S
C78 O70 1.315 . S
C78 O73 1.279 . S
C79 O80 1.315 . S
C79 O81 1.279 . S
O80 Cd72 2.223 . S
O80 C79 1.315 . S
O81 Cd71 2.240 . S
O81 C79 1.279 . S
O82 Cd72 2.297 . S
O82 C77 1.247 . S
O83 Cd72 2.439 . S
O83 C77 1.208 . S
O84 Cd85 2.223 . S
O84 C92 1.315 . S
Cd85 O84 2.223 . S
Cd85 O88 2.297 . S
Cd85 O89 2.439 . S
Cd85 O95 2.240 . S
Cd86 O87 2.240 . S
Cd86 O94 2.223 . S
Cd86 O96 2.297 . S
Cd86 O97 2.439 . S
O87 Cd86 2.240 . S
O87 C92 1.279 . S
O88 Cd85 2.297 . S
O88 C90 1.247 . S
O89 Cd85 2.439 . S
O89 C90 1.208 . S
C90 O88 1.247 . S
C90 O89 1.208 . S
C91 O96 1.247 . S
C91 O97 1.208 . S
C92 O84 1.315 . S
C92 O87 1.279 . S
C93 O94 1.315 . S
C93 O95 1.279 . S
O94 Cd86 2.223 . S
O94 C93 1.315 . S
O95 Cd85 2.240 . S
O95 C93 1.279 . S
O96 Cd86 2.297 . S
O96 C91 1.247 . S
O97 Cd86 2.439 . S
O97 C91 1.208 . S
O98 Cd99 2.223 . S
O98 C106 1.315 . S
Cd99 O98 2.223 . S
Cd99 O102 2.297 . S
Cd99 O103 2.439 . S
Cd99 O109 2.240 . S
Cd100 O101 2.240 . S
Cd100 O108 2.223 . S
Cd100 O110 2.297 . S
Cd100 O111 2.439 . S
O101 Cd100 2.240 . S
O101 C106 1.279 . S
O102 Cd99 2.297 . S
O102 C104 1.247 . S
O103 Cd99 2.439 . S
O103 C104 1.208 . S
C104 O102 1.247 . S
C104 O103 1.208 . S
C105 O110 1.247 . S
C105 O111 1.208 . S
C106 O98 1.315 . S
C106 O101 1.279 . S
C107 O108 1.315 . S
C107 O109 1.279 . S
O108 Cd100 2.223 . S
O108 C107 1.315 . S
O109 Cd99 2.240 . S
O109 C107 1.279 . S
O110 Cd100 2.297 . S
O110 C105 1.247 . S
O111 Cd100 2.439 . S
O111 C105 1.208 . S
O112 Cd113 2.223 . S
O112 C120 1.315 . S
Cd113 O112 2.223 . S
Cd113 O116 2.297 . S
Cd113 O117 2.439 . S
Cd113 O123 2.240 . S
Cd114 O115 2.240 . S
Cd114 O122 2.223 . S
Cd114 O124 2.297 . S
Cd114 O125 2.439 . S
O115 Cd114 2.240 . S
O115 C120 1.279 . S
O116 Cd113 2.297 . S
O116 C118 1.247 . S
O117 Cd113 2.439 . S
O117 C118 1.208 . S
C118 O116 1.247 . S
C118 O117 1.208 . S
C119 O124 1.247 . S
C119 O125 1.208 . S
C120 O112 1.315 . S
C120 O115 1.279 . S
C121 O122 1.315 . S
C121 O123 1.279 . S
O122 Cd114 2.223 . S
O122 C121 1.315 . S
O123 Cd113 2.240 . S
O123 C121 1.279 . S
O124 Cd114 2.297 . S
O124 C119 1.247 . S
O125 Cd114 2.439 . S
O125 C119 1.208 . S
O126 Cd127 2.223 . S
O126 C134 1.315 . S
Cd127 O126 2.223 . S
Cd127 O130 2.297 . S
Cd127 O131 2.439 1_554 S
Cd127 O137 2.240 . S
Cd128 O129 2.240 . S
Cd128 O136 2.223 . S
Cd128 O138 2.297 . S
Cd128 O139 2.439 . S
O129 Cd128 2.240 . S
O129 C134 1.279 . S
O130 Cd127 2.297 . S
O130 C132 1.247 1_554 S
O131 Cd127 2.439 1_556 S
O131 C132 1.208 . S
C132 O130 1.247 1_556 S
C132 O131 1.208 . S
C133 O138 1.247 . S
C133 O139 1.208 . S
C134 O126 1.315 . S
C134 O129 1.279 . S
C135 O136 1.315 . S
C135 O137 1.279 . S
O136 Cd128 2.223 . S
O136 C135 1.315 . S
O137 Cd127 2.240 . S
O137 C135 1.279 . S
O138 Cd128 2.297 . S
O138 C133 1.247 . S
O139 Cd128 2.439 . S
O139 C133 1.208 . S
O140 Cd141 2.223 . S
O140 C148 1.315 . S
Cd141 O140 2.223 . S
Cd141 O144 2.297 . S
Cd141 O145 2.439 . S
Cd141 O151 2.240 . S
Cd142 O143 2.240 . S
Cd142 O150 2.223 . S
Cd142 O152 2.297 . S
Cd142 O153 2.439 . S
O143 Cd142 2.240 . S
O143 C148 1.279 . S
O144 Cd141 2.297 . S
O144 C146 1.247 . S
O145 Cd141 2.439 . S
O145 C146 1.208 . S
C146 O144 1.247 . S
C146 O145 1.208 . S
C147 O152 1.247 . S
C147 O153 1.208 . S
C148 O140 1.315 . S
C148 O143 1.279 . S
C149 O150 1.315 . S
C149 O151 1.279 . S
O150 Cd142 2.223 . S
O150 C149 1.315 . S
O151 Cd141 2.240 . S
O151 C149 1.279 . S
O152 Cd142 2.297 . S
O152 C147 1.247 . S
O153 Cd142 2.439 . S
O153 C147 1.208 . S
O154 Cd155 2.223 . S
O154 C162 1.315 . S
Cd155 O154 2.223 . S
Cd155 O158 2.297 . S
Cd155 O159 2.439 1_554 S
Cd155 O165 2.240 . S
Cd156 O157 2.240 . S
Cd156 O164 2.223 . S
Cd156 O166 2.297 . S
Cd156 O167 2.439 . S
O157 Cd156 2.240 . S
O157 C162 1.279 . S
O158 Cd155 2.297 . S
O158 C160 1.247 1_554 S
O159 Cd155 2.439 1_556 S
O159 C160 1.208 . S
C160 O158 1.247 1_556 S
C160 O159 1.208 . S
C161 O166 1.247 . S
C161 O167 1.208 . S
C162 O154 1.315 . S
C162 O157 1.279 . S
C163 O164 1.315 . S
C163 O165 1.279 . S
O164 Cd156 2.223 . S
O164 C163 1.315 . S
O165 Cd155 2.240 . S
O165 C163 1.279 . S
O166 Cd156 2.297 . S
O166 C161 1.247 . S
O167 Cd156 2.439 . S
O167 C161 1.208 . S
O168 Cd169 2.223 . S
O168 C176 1.315 . S
Cd169 O168 2.223 . S
Cd169 O172 2.297 . S
Cd169 O173 2.439 . S
Cd169 O179 2.240 . S
Cd170 O171 2.240 . S
Cd170 O178 2.223 1_556 S
Cd170 O180 2.297 . S
Cd170 O181 2.439 . S
O171 Cd170 2.240 . S
O171 C176 1.279 . S
O172 Cd169 2.297 . S
O172 C174 1.247 . S
O173 Cd169 2.439 . S
O173 C174 1.208 . S
C174 O172 1.247 . S
C174 O173 1.208 . S
C175 O180 1.247 . S
C175 O181 1.208 . S
C176 O168 1.315 . S
C176 O171 1.279 . S
C177 O178 1.315 1_556 S
C177 O179 1.279 . S
O178 Cd170 2.223 1_554 S
O178 C177 1.315 1_554 S
O179 Cd169 2.240 . S
O179 C177 1.279 . S
O180 Cd170 2.297 . S
O180 C175 1.247 . S
O181 Cd170 2.439 . S
O181 C175 1.208 . S
O182 Cd183 2.223 . S
O182 C190 1.315 . S
Cd183 O182 2.223 . S
Cd183 O186 2.297 . S
Cd183 O187 2.439 . S
Cd183 O193 2.240 . S
Cd184 O185 2.240 . S
Cd184 O192 2.223 . S
Cd184 O194 2.297 . S
Cd184 O195 2.439 . S
O185 Cd184 2.240 . S
O185 C190 1.279 . S
O186 Cd183 2.297 . S
O186 C188 1.247 . S
O187 Cd183 2.439 . S
O187 C188 1.208 . S
C188 O186 1.247 . S
C188 O187 1.208 . S
C189 O194 1.247 . S
C189 O195 1.208 . S
C190 O182 1.315 . S
C190 O185 1.279 . S
C191 O192 1.315 . S
C191 O193 1.279 . S
O192 Cd184 2.223 . S
O192 C191 1.315 . S
O193 Cd183 2.240 . S
O193 C191 1.279 . S
O194 Cd184 2.297 . S
O194 C189 1.247 . S
O195 Cd184 2.439 . S
O195 C189 1.208 . S
O196 Cd197 2.223 . S
O196 C204 1.315 . S
Cd197 O196 2.223 . S
Cd197 O200 2.297 . S
Cd197 O201 2.439 . S
Cd197 O207 2.240 . S
Cd198 O199 2.240 . S
Cd198 O206 2.223 . S
Cd198 O208 2.297 . S
Cd198 O209 2.439 . S
O199 Cd198 2.240 . S
O199 C204 1.279 . S
O200 Cd197 2.297 . S
O200 C202 1.247 . S
O201 Cd197 2.439 . S
O201 C202 1.208 . S
C202 O200 1.247 . S
C202 O201 1.208 . S
C203 O208 1.247 . S
C203 O209 1.208 . S
C204 O196 1.315 . S
C204 O199 1.279 . S
C205 O206 1.315 . S
C205 O207 1.279 . S
O206 Cd198 2.223 . S
O206 C205 1.315 . S
O207 Cd197 2.240 . S
O207 C205 1.279 . S
O208 Cd198 2.297 . S
O208 C203 1.247 . S
O209 Cd198 2.439 . S
O209 C203 1.208 . S
O210 Cd211 2.223 . S
O210 C218 1.315 . S
Cd211 O210 2.223 . S
Cd211 O214 2.297 . S
Cd211 O215 2.439 . S
Cd211 O221 2.240 . S
Cd212 O213 2.240 . S
Cd212 O220 2.223 . S
Cd212 O222 2.297 . S
Cd212 O223 2.439 . S
O213 Cd212 2.240 . S
O213 C218 1.279 . S
O214 Cd211 2.297 . S
O214 C216 1.247 . S
O215 Cd211 2.439 . S
O215 C216 1.208 . S
C216 O214 1.247 . S
C216 O215 1.208 . S
C217 O222 1.247 . S
C217 O223 1.208 . S
C218 O210 1.315 . S
C218 O213 1.279 . S
C219 O220 1.315 . S
C219 O221 1.279 . S
O220 Cd212 2.223 . S
O220 C219 1.315 . S
O221 Cd211 2.240 . S
O221 C219 1.279 . S
O222 Cd212 2.297 . S
O222 C217 1.247 . S
O223 Cd212 2.439 . S
O223 C217 1.208 . S
O224 Cd225 2.223 . S
O224 C232 1.315 . S
Cd225 O224 2.223 . S
Cd225 O228 2.297 . S
Cd225 O229 2.439 . S
Cd225 O235 2.240 . S
Cd226 O227 2.240 . S
Cd226 O234 2.223 . S
Cd226 O236 2.297 . S
Cd226 O237 2.439 . S
O227 Cd226 2.240 . S
O227 C232 1.279 . S
O228 Cd225 2.297 . S
O228 C230 1.247 . S
O229 Cd225 2.439 . S
O229 C230 1.208 . S
C230 O228 1.247 . S
C230 O229 1.208 . S
C231 O236 1.247 . S
C231 O237 1.208 . S
C232 O224 1.315 . S
C232 O227 1.279 . S
C233 O234 1.315 . S
C233 O235 1.279 . S
O234 Cd226 2.223 . S
O234 C233 1.315 . S
O235 Cd225 2.240 . S
O235 C233 1.279 . S
O236 Cd226 2.297 . S
O236 C231 1.247 . S
O237 Cd226 2.439 . S
O237 C231 1.208 . S
O238 Cd239 2.223 . S
O238 C246 1.315 . S
Cd239 O238 2.223 . S
Cd239 O242 2.297 . S
Cd239 O243 2.439 . S
Cd239 O249 2.240 . S
Cd240 O241 2.240 . S
Cd240 O248 2.223 . S
Cd240 O250 2.297 . S
Cd240 O251 2.439 . S
O241 Cd240 2.240 . S
O241 C246 1.279 . S
O242 Cd239 2.297 . S
O242 C244 1.247 . S
O243 Cd239 2.439 . S
O243 C244 1.208 . S
C244 O242 1.247 . S
C244 O243 1.208 . S
C245 O250 1.247 . S
C245 O251 1.208 . S
C246 O238 1.315 . S
C246 O241 1.279 . S
C247 O248 1.315 . S
C247 O249 1.279 . S
O248 Cd240 2.223 . S
O248 C247 1.315 . S
O249 Cd239 2.240 . S
O249 C247 1.279 . S
O250 Cd240 2.297 . S
O250 C245 1.247 . S
O251 Cd240 2.439 . S
O251 C245 1.208 . S
H252 C270 0.951 . S
H253 C272 0.951 . S
H254 C274 0.950 . S
H255 C275 0.950 . S
H256 C277 0.950 . S
H257 C280 0.950 . S
H258 C281 0.950 . S
H259 C283 0.950 . S
H260 C284 0.950 . S
H261 C285 0.951 . S
H262 C287 0.951 . S
H263 C289 0.950 . S
H264 C290 0.950 . S
H265 C292 0.950 . S
H266 C295 0.950 . S
H267 C296 0.950 . S
H268 C298 0.950 . S
H269 C299 0.950 . S
C270 H252 0.951 . S
C270 C271 1.366 . S
C270 C272 1.388 . S
C271 C270 1.366 . S
C271 C275 1.385 1_455 S
C272 H253 0.951 . S
C272 C270 1.388 . S
C272 C273 1.366 . S
C273 C272 1.366 . S
C273 C274 1.414 1_455 S
C273 C276 1.499 . S
C274 H254 0.950 . S
C274 C273 1.414 1_655 S
C274 C275 1.374 . S
C275 H255 0.950 . S
C275 C271 1.385 1_655 S
C275 C274 1.374 . S
C276 C273 1.499 . S
C276 C277 1.373 . S
C276 C278 1.389 . S
C277 H256 0.950 . S
C277 C276 1.373 . S
C277 C293 1.377 . S
C278 C276 1.389 . S
C278 C279 1.524 . S
C278 C292 1.377 1_556 S
C279 C278 1.524 . S
C279 C280 1.397 . S
C279 C284 1.363 . S
C280 H257 0.950 . S
C280 C279 1.397 . S
C280 C281 1.334 . S
C281 H258 0.950 . S
C281 C280 1.334 . S
C281 C282 1.284 1_556 S
C282 C281 1.284 1_554 S
C282 C283 1.524 . S
C282 H301 0.915 . S
C283 H259 0.950 . S
C283 C282 1.524 . S
C283 C284 1.415 1_554 S
C284 H260 0.950 . S
C284 C279 1.363 . S
C284 C283 1.415 1_556 S
C285 H261 0.951 . S
C285 C286 1.366 . S
C285 C287 1.388 . S
C286 C285 1.366 . S
C286 C290 1.385 . S
C287 H262 0.951 . S
C287 C285 1.388 . S
C287 C288 1.366 . S
C288 C287 1.366 . S
C288 C289 1.414 . S
C288 C291 1.499 . S
C289 H263 0.950 . S
C289 C288 1.414 . S
C289 C290 1.374 . S
C290 H264 0.950 . S
C290 C286 1.385 . S
C290 C289 1.374 . S
C291 C288 1.499 . S
C291 C292 1.373 . S
C291 C293 1.389 1_554 S
C292 H265 0.950 . S
C292 C278 1.377 1_554 S
C292 C291 1.373 . S
C293 C277 1.377 . S
C293 C291 1.389 1_556 S
C293 C294 1.524 . S
C294 C293 1.524 . S
C294 C295 1.397 . S
C294 C299 1.363 1_455 S
C295 H266 0.950 . S
C295 C294 1.397 . S
C295 C296 1.334 . S
C296 H267 0.950 . S
C296 C295 1.334 . S
C296 C297 1.287 1_455 S
C297 C296 1.287 1_655 S
C297 C298 1.524 . S
C297 H300 0.999 . S
C298 H268 0.950 . S
C298 C297 1.524 . S
C298 C299 1.415 . S
C299 H269 0.950 . S
C299 C294 1.363 1_655 S
C299 C298 1.415 . S
H300 C297 0.999 . S
H301 C282 0.915 . S
H302 C320 0.951 . S
H303 C322 0.951 . S
H304 C324 0.950 . S
H305 C325 0.950 . S
H306 C327 0.950 1_556 S
H307 C330 0.950 . S
H308 C331 0.950 . S
H309 C333 0.950 1_554 S
H310 C334 0.950 . S
H311 C335 0.951 . S
H312 C337 0.951 . S
H313 C339 0.950 . S
H314 C340 0.950 . S
H315 C342 0.950 . S
H316 C345 0.950 . S
H317 C346 0.950 . S
H318 C348 0.950 . S
H319 C349 0.950 . S
C320 H302 0.951 . S
C320 C321 1.366 . S
C320 C322 1.388 . S
C321 C320 1.366 . S
C321 C325 1.385 . S
C322 H303 0.951 . S
C322 C320 1.388 . S
C322 C323 1.366 . S
C323 C322 1.366 . S
C323 C324 1.414 . S
C323 C326 1.499 . S
C324 H304 0.950 . S
C324 C323 1.414 . S
C324 C325 1.374 . S
C325 H305 0.950 . S
C325 C321 1.385 . S
C325 C324 1.374 . S
C326 C323 1.499 . S
C326 C327 1.373 1_556 S
C326 C328 1.389 1_556 S
C327 H306 0.950 1_554 S
C327 C326 1.373 1_554 S
C327 C343 1.377 . S
C328 C326 1.389 1_554 S
C328 C329 1.524 1_554 S
C328 C342 1.377 . S
C329 C328 1.524 1_556 S
C329 C330 1.397 . S
C329 C334 1.363 1_556 S
C330 H307 0.950 . S
C330 C329 1.397 . S
C330 C331 1.334 . S
C331 H308 0.950 . S
C331 C330 1.334 . S
C331 C332 1.287 . S
C332 C331 1.287 . S
C332 C333 1.524 . S
C332 H351 0.913 . S
C333 H309 0.950 1_556 S
C333 C332 1.524 . S
C333 C334 1.415 1_556 S
C334 H310 0.950 . S
C334 C329 1.363 1_554 S
C334 C333 1.415 1_554 S
C335 H311 0.951 . S
C335 C336 1.366 . S
C335 C337 1.388 . S
C336 C335 1.366 . S
C336 C340 1.385 . S
C337 H312 0.951 . S
C337 C335 1.388 . S
C337 C338 1.366 . S
C338 C337 1.366 . S
C338 C339 1.414 . S
C338 C341 1.499 . S
C339 H313 0.950 . S
C339 C338 1.414 . S
C339 C340 1.374 . S
C340 H314 0.950 . S
C340 C336 1.385 . S
C340 C339 1.374 . S
C341 C338 1.499 . S
C341 C342 1.373 . S
C341 C343 1.389 . S
C342 H315 0.950 . S
C342 C328 1.377 . S
C342 C341 1.373 . S
C343 C327 1.377 . S
C343 C341 1.389 . S
C343 C344 1.524 . S
C344 C343 1.524 . S
C344 C345 1.397 . S
C344 C349 1.363 . S
C345 H316 0.950 . S
C345 C344 1.397 . S
C345 C346 1.334 . S
C346 H317 0.950 . S
C346 C345 1.334 . S
C346 C347 1.287 . S
C347 C346 1.287 . S
C347 C348 1.524 . S
C347 H350 0.999 . S
C348 H318 0.950 . S
C348 C347 1.524 . S
C348 C349 1.415 . S
C349 H319 0.950 . S
C349 C344 1.363 . S
C349 C348 1.415 . S
H350 C347 0.999 . S
H351 C332 0.913 . S
H352 C370 0.942 1_565 S
H353 C372 0.951 . S
H354 C374 0.950 . S
H355 C375 0.950 . S
H356 C377 0.950 . S
H357 C380 0.950 . S
H358 C381 0.950 . S
H359 C383 0.950 . S
H360 C384 0.950 . S
H361 C385 0.951 . S
H362 C387 0.951 . S
H363 C389 0.950 . S
H364 C390 0.950 . S
H365 C392 0.950 . S
H366 C395 0.950 1_554 S
H367 C396 0.950 . S
H368 C398 0.950 . S
H369 C399 0.950 . S
C370 H352 0.942 1_545 S
C370 C371 1.366 . S
C370 C372 1.388 . S
C371 C370 1.366 . S
C371 C375 1.385 . S
C372 H353 0.951 . S
C372 C370 1.388 . S
C372 C373 1.366 . S
C373 C372 1.366 . S
C373 C374 1.414 . S
C373 C376 1.499 . S
C374 H354 0.950 . S
C374 C373 1.414 . S
C374 C375 1.374 . S
C375 H355 0.950 . S
C375 C371 1.385 . S
C375 C374 1.374 . S
C376 C373 1.499 . S
C376 C377 1.373 . S
C376 C378 1.389 . S
C377 H356 0.950 . S
C377 C376 1.373 . S
C377 C393 1.377 1_554 S
C378 C376 1.389 . S
C378 C379 1.524 1_545 S
C378 C392 1.377 1_554 S
C379 C378 1.524 1_565 S
C379 C380 1.397 . S
C379 C384 1.363 . S
C380 H357 0.950 . S
C380 C379 1.397 . S
C380 C381 1.334 . S
C381 H358 0.950 . S
C381 C380 1.334 . S
C381 C382 1.287 . S
C382 C381 1.287 . S
C382 C383 1.524 . S
C382 H401 0.913 . S
C383 H359 0.950 . S
C383 C382 1.524 . S
C383 C384 1.415 . S
C384 H360 0.950 . S
C384 C379 1.363 . S
C384 C383 1.415 . S
C385 H361 0.951 . S
C385 C386 1.366 . S
C385 C387 1.388 . S
C386 C385 1.366 . S
C386 C390 1.385 . S
C387 H362 0.951 . S
C387 C385 1.388 . S
C387 C388 1.366 . S
C388 C387 1.366 . S
C388 C389 1.414 . S
C388 C391 1.499 . S
C389 H363 0.950 . S
C389 C388 1.414 . S
C389 C390 1.374 . S
C390 H364 0.950 . S
C390 C386 1.385 . S
C390 C389 1.374 . S
C391 C388 1.499 . S
C391 C392 1.373 . S
C391 C393 1.389 . S
C392 H365 0.950 . S
C392 C378 1.377 1_556 S
C392 C391 1.373 . S
C393 C377 1.377 1_556 S
C393 C391 1.389 . S
C393 C394 1.524 . S
C394 C393 1.524 . S
C394 C395 1.397 . S
C394 C399 1.363 . S
C395 H366 0.950 1_556 S
C395 C394 1.397 . S
C395 C396 1.334 . S
C396 H367 0.950 . S
C396 C395 1.334 . S
C396 C397 1.287 . S
C397 C396 1.287 . S
C397 C398 1.524 . S
C397 H400 0.999 . S
C398 H368 0.950 . S
C398 C397 1.524 . S
C398 C399 1.415 . S
C399 H369 0.950 . S
C399 C394 1.363 . S
C399 C398 1.415 . S
H400 C397 0.999 . S
H401 C382 0.913 . S
H402 C420 0.951 1_565 S
H403 C422 0.969 . S
H404 C424 0.950 . S
H405 C425 0.950 . S
H406 C427 0.950 . S
H407 C430 0.950 . S
H408 C431 0.950 . S
H409 C433 0.950 1_565 S
H410 C434 0.950 . S
H411 C435 0.951 . S
H412 C437 0.951 . S
H413 C439 0.950 . S
H414 C440 0.950 . S
H415 C442 0.950 . S
H416 C445 0.950 . S
H417 C446 0.950 . S
H418 C448 0.950 . S
H419 C449 0.950 . S
C420 H402 0.951 1_545 S
C420 C421 1.366 . S
C420 C422 1.388 . S
C421 C420 1.366 . S
C421 C425 1.385 . S
C422 H403 0.969 . S
C422 C420 1.388 . S
C422 C423 1.366 . S
C423 C422 1.366 . S
C423 C424 1.414 . S
C423 C426 1.499 . S
C424 H404 0.950 . S
C424 C423 1.414 . S
C424 C425 1.374 . S
C425 H405 0.950 . S
C425 C421 1.385 . S
C425 C424 1.374 . S
C426 C423 1.499 . S
C426 C427 1.373 . S
C426 C428 1.389 . S
C427 H406 0.950 . S
C427 C426 1.373 . S
C427 C443 1.377 . S
C428 C426 1.389 . S
C428 C429 1.524 . S
C428 C442 1.377 . S
C429 C428 1.524 . S
C429 C430 1.397 . S
C429 C434 1.363 . S
C430 H407 0.950 . S
C430 C429 1.397 . S
C430 C431 1.334 . S
C431 H408 0.950 . S
C431 C430 1.334 . S
C431 C432 1.287 . S
C432 C431 1.287 . S
C432 C433 1.524 . S
C432 H451 0.913 . S
C433 H409 0.950 1_545 S
C433 C432 1.524 . S
C433 C434 1.415 . S
C434 H410 0.950 . S
C434 C429 1.363 . S
C434 C433 1.415 . S
C435 H411 0.951 . S
C435 C436 1.366 . S
C435 C437 1.388 . S
C436 C435 1.366 . S
C436 C440 1.385 . S
C437 H412 0.951 . S
C437 C435 1.388 . S
C437 C438 1.366 . S
C438 C437 1.366 . S
C438 C439 1.414 . S
C438 C441 1.499 . S
C439 H413 0.950 . S
C439 C438 1.414 . S
C439 C440 1.374 . S
C440 H414 0.950 . S
C440 C436 1.385 . S
C440 C439 1.374 . S
C441 C438 1.499 . S
C441 C442 1.373 . S
C441 C443 1.389 . S
C442 H415 0.950 . S
C442 C428 1.377 . S
C442 C441 1.373 . S
C443 C427 1.377 . S
C443 C441 1.389 . S
C443 C444 1.524 . S
C444 C443 1.524 . S
C444 C445 1.397 . S
C444 C449 1.363 . S
C445 H416 0.950 . S
C445 C444 1.397 . S
C445 C446 1.334 . S
C446 H417 0.950 . S
C446 C445 1.334 . S
C446 C447 1.287 . S
C447 C446 1.287 . S
C447 C448 1.524 . S
C447 H450 0.999 . S
C448 H418 0.950 . S
C448 C447 1.524 . S
C448 C449 1.415 . S
C449 H419 0.950 . S
C449 C444 1.363 . S
C449 C448 1.415 . S
H450 C447 0.999 . S
H451 C432 0.913 . S
H452 C470 0.951 . S
H453 C472 0.951 . S
H454 C474 0.950 1_655 S
H455 C475 0.950 1_655 S
H456 C477 0.950 . S
H457 C480 0.950 . S
H458 C481 0.950 . S
H459 C483 0.950 . S
H460 C484 0.950 . S
H461 C485 0.951 1_655 S
H462 C487 0.951 1_655 S
H463 C489 0.950 . S
H464 C490 0.950 . S
H465 C492 0.950 . S
H466 C495 0.950 . S
H467 C496 0.950 . S
H468 C498 0.950 . S
H469 C499 0.950 . S
C470 H452 0.951 . S
C470 C471 1.366 . S
C470 C472 1.388 . S
C471 C470 1.366 . S
C471 C475 1.385 . S
C472 H453 0.951 . S
C472 C470 1.388 . S
C472 C473 1.366 . S
C473 C472 1.366 . S
C473 C474 1.414 . S
C473 C476 1.499 . S
C474 H454 0.950 1_455 S
C474 C473 1.414 . S
C474 C475 1.374 . S
C475 H455 0.950 1_455 S
C475 C471 1.385 . S
C475 C474 1.374 . S
C476 C473 1.499 . S
C476 C477 1.373 . S
C476 C478 1.389 . S
C477 H456 0.950 . S
C477 C476 1.373 . S
C477 C493 1.377 . S
C478 C476 1.389 . S
C478 C479 1.524 . S
C478 C492 1.377 . S
C479 C478 1.524 . S
C479 C480 1.397 . S
C479 C484 1.363 . S
C480 H457 0.950 . S
C480 C479 1.397 . S
C480 C481 1.334 . S
C481 H458 0.950 . S
C481 C480 1.334 . S
C481 C482 1.287 . S
C482 C481 1.287 . S
C482 C483 1.524 . S
C482 H501 0.913 . S
C483 H459 0.950 . S
C483 C482 1.524 . S
C483 C484 1.415 . S
C484 H460 0.950 . S
C484 C479 1.363 . S
C484 C483 1.415 . S
C485 H461 0.951 1_455 S
C485 C486 1.366 . S
C485 C487 1.388 . S
C486 C485 1.366 . S
C486 C490 1.385 . S
C487 H462 0.951 1_455 S
C487 C485 1.388 . S
C487 C488 1.366 . S
C488 C487 1.366 . S
C488 C489 1.414 . S
C488 C491 1.499 . S
C489 H463 0.950 . S
C489 C488 1.414 . S
C489 C490 1.374 . S
C490 H464 0.950 . S
C490 C486 1.385 . S
C490 C489 1.374 . S
C491 C488 1.499 . S
C491 C492 1.373 . S
C491 C493 1.389 . S
C492 H465 0.950 . S
C492 C478 1.377 . S
C492 C491 1.373 . S
C493 C477 1.377 . S
C493 C491 1.389 . S
C493 C494 1.524 . S
C494 C493 1.524 . S
C494 C495 1.397 . S
C494 C499 1.363 1_455 S
C495 H466 0.950 . S
C495 C494 1.397 . S
C495 C496 1.334 . S
C496 H467 0.950 . S
C496 C495 1.334 . S
C496 C497 1.287 1_455 S
C497 C496 1.287 1_655 S
C497 C498 1.524 . S
C497 H500 0.999 . S
C498 H468 0.950 . S
C498 C497 1.524 . S
C498 C499 1.415 . S
C499 H469 0.950 . S
C499 C494 1.363 1_655 S
C499 C498 1.415 . S
H500 C497 0.999 . S
H501 C482 0.913 . S
H502 C520 0.951 . S
H503 C522 0.951 . S
H504 C524 0.950 . S
H505 C525 0.950 . S
H506 C527 0.950 . S
H507 C530 0.950 . S
H508 C531 0.950 . S
H509 C533 0.950 . S
H510 C534 0.950 . S
H511 C535 0.951 . S
H512 C537 0.951 . S
H513 C539 0.950 . S
H514 C540 0.950 . S
H515 C542 0.950 . S
H516 C545 0.950 . S
H517 C546 0.950 . S
H518 C548 0.950 . S
H519 C549 0.950 . S
C520 H502 0.951 . S
C520 C521 1.366 . S
C520 C522 1.388 . S
C521 C520 1.366 . S
C521 C525 1.385 . S
C522 H503 0.951 . S
C522 C520 1.388 . S
C522 C523 1.366 . S
C523 C522 1.366 . S
C523 C524 1.414 . S
C523 C526 1.499 . S
C524 H504 0.950 . S
C524 C523 1.414 . S
C524 C525 1.374 . S
C525 H505 0.950 . S
C525 C521 1.385 . S
C525 C524 1.374 . S
C526 C523 1.499 . S
C526 C527 1.373 . S
C526 C528 1.389 . S
C527 H506 0.950 . S
C527 C526 1.373 . S
C527 C543 1.377 . S
C528 C526 1.389 . S
C528 C529 1.524 . S
C528 C542 1.377 . S
C529 C528 1.524 . S
C529 C530 1.397 . S
C529 C534 1.363 . S
C530 H507 0.950 . S
C530 C529 1.397 . S
C530 C531 1.334 . S
C531 H508 0.950 . S
C531 C530 1.334 . S
C531 C532 1.287 . S
C532 C531 1.287 . S
C532 C533 1.524 . S
C532 H551 0.913 . S
C533 H509 0.950 . S
C533 C532 1.524 . S
C533 C534 1.415 . S
C534 H510 0.950 . S
C534 C529 1.363 . S
C534 C533 1.415 . S
C535 H511 0.951 . S
C535 C536 1.366 . S
C535 C537 1.388 . S
C536 C535 1.366 . S
C536 C540 1.385 . S
C537 H512 0.951 . S
C537 C535 1.388 . S
C537 C538 1.366 . S
C538 C537 1.366 . S
C538 C539 1.414 . S
C538 C541 1.499 . S
C539 H513 0.950 . S
C539 C538 1.414 . S
C539 C540 1.374 . S
C540 H514 0.950 . S
C540 C536 1.385 . S
C540 C539 1.374 . S
C541 C538 1.499 . S
C541 C542 1.373 . S
C541 C543 1.389 . S
C542 H515 0.950 . S
C542 C528 1.377 . S
C542 C541 1.373 . S
C543 C527 1.377 . S
C543 C541 1.389 . S
C543 C544 1.524 . S
C544 C543 1.524 . S
C544 C545 1.397 . S
C544 C549 1.363 . S
C545 H516 0.950 . S
C545 C544 1.397 . S
C545 C546 1.334 . S
C546 H517 0.950 . S
C546 C545 1.334 . S
C546 C547 1.287 . S
C547 C546 1.287 . S
C547 C548 1.524 . S
C547 H550 0.999 . S
C548 H518 0.950 . S
C548 C547 1.524 . S
C548 C549 1.415 . S
C549 H519 0.950 . S
C549 C544 1.363 . S
C549 C548 1.415 . S
H550 C547 0.999 . S
H551 C532 0.913 . S
H552 C570 0.951 . S
H553 C572 0.951 . S
H554 C574 0.950 . S
H555 C575 0.950 . S
H556 C577 0.950 . S
H557 C580 0.950 . S
H558 C581 0.950 . S
H559 C583 0.950 . S
H560 C584 0.950 . S
H561 C585 0.951 . S
H562 C587 0.951 . S
H563 C589 0.950 . S
H564 C590 0.950 . S
H565 C592 0.950 . S
H566 C595 0.950 . S
H567 C596 0.950 . S
H568 C598 0.950 . S
H569 C599 0.950 . S
C570 H552 0.951 . S
C570 C571 1.366 . S
C570 C572 1.388 . S
C571 C570 1.366 . S
C571 C575 1.385 . S
C572 H553 0.951 . S
C572 C570 1.388 . S
C572 C573 1.366 . S
C573 C572 1.366 . S
C573 C574 1.414 . S
C573 C576 1.499 . S
C574 H554 0.950 . S
C574 C573 1.414 . S
C574 C575 1.374 . S
C575 H555 0.950 . S
C575 C571 1.385 . S
C575 C574 1.374 . S
C576 C573 1.499 . S
C576 C577 1.373 . S
C576 C578 1.389 . S
C577 H556 0.950 . S
C577 C576 1.373 . S
C577 C593 1.377 . S
C578 C576 1.389 . S
C578 C579 1.524 . S
C578 C592 1.377 . S
C579 C578 1.524 . S
C579 C580 1.397 . S
C579 C584 1.363 . S
C580 H557 0.950 . S
C580 C579 1.397 . S
C580 C581 1.334 . S
C581 H558 0.950 . S
C581 C580 1.334 . S
C581 C582 1.287 . S
C582 C581 1.287 . S
C582 C583 1.524 . S
C582 H601 0.913 . S
C583 H559 0.950 . S
C583 C582 1.524 . S
C583 C584 1.415 . S
C584 H560 0.950 . S
C584 C579 1.363 . S
C584 C583 1.415 . S
C585 H561 0.951 . S
C585 C586 1.366 . S
C585 C587 1.388 . S
C586 C585 1.366 . S
C586 C590 1.385 . S
C587 H562 0.951 . S
C587 C585 1.388 . S
C587 C588 1.366 . S
C588 C587 1.366 . S
C588 C589 1.414 . S
C588 C591 1.499 . S
C589 H563 0.950 . S
C589 C588 1.414 . S
C589 C590 1.374 . S
C590 H564 0.950 . S
C590 C586 1.385 . S
C590 C589 1.374 . S
C591 C588 1.499 . S
C591 C592 1.373 . S
C591 C593 1.389 . S
C592 H565 0.950 . S
C592 C578 1.377 . S
C592 C591 1.373 . S
C593 C577 1.377 . S
C593 C591 1.389 . S
C593 C594 1.524 . S
C594 C593 1.524 . S
C594 C595 1.397 . S
C594 C599 1.363 . S
C595 H566 0.950 . S
C595 C594 1.397 . S
C595 C596 1.334 . S
C596 H567 0.950 . S
C596 C595 1.334 . S
C596 C597 1.287 . S
C597 C596 1.287 . S
C597 C598 1.524 . S
C597 H600 0.999 . S
C598 H568 0.950 . S
C598 C597 1.524 . S
C598 C599 1.415 . S
C599 H569 0.950 . S
C599 C594 1.363 . S
C599 C598 1.415 . S
H600 C597 0.999 . S
H601 C582 0.913 . S
H602 C620 0.951 . S
H603 C622 0.951 . S
H604 C624 0.950 . S
H605 C625 0.950 . S
H606 C627 0.950 . S
H607 C630 0.950 . S
H608 C631 0.950 . S
H609 C633 0.950 . S
H610 C634 0.950 . S
H611 C635 0.951 . S
H612 C637 0.951 . S
H613 C639 0.950 . S
H614 C640 0.950 . S
H615 C642 0.950 . S
H616 C645 0.950 . S
H617 C646 0.950 . S
H618 C648 0.950 . S
H619 C649 0.950 . S
C620 H602 0.951 . S
C620 C621 1.366 . S
C620 C622 1.388 . S
C621 C620 1.366 . S
C621 C625 1.385 . S
C622 H603 0.951 . S
C622 C620 1.388 . S
C622 C623 1.366 . S
C623 C622 1.366 . S
C623 C624 1.414 . S
C623 C626 1.499 . S
C624 H604 0.950 . S
C624 C623 1.414 . S
C624 C625 1.374 . S
C625 H605 0.950 . S
C625 C621 1.385 . S
C625 C624 1.374 . S
C626 C623 1.499 . S
C626 C627 1.373 . S
C626 C628 1.389 . S
C627 H606 0.950 . S
C627 C626 1.373 . S
C627 C643 1.377 . S
C628 C626 1.389 . S
C628 C629 1.524 . S
C628 C642 1.377 . S
C629 C628 1.524 . S
C629 C630 1.397 . S
C629 C634 1.363 . S
C630 H607 0.950 . S
C630 C629 1.397 . S
C630 C631 1.334 . S
C631 H608 0.950 . S
C631 C630 1.334 . S
C631 C632 1.287 . S
C632 C631 1.287 . S
C632 C633 1.524 . S
C632 H651 0.913 . S
C633 H609 0.950 . S
C633 C632 1.524 . S
C633 C634 1.415 . S
C634 H610 0.950 . S
C634 C629 1.363 . S
C634 C633 1.415 . S
C635 H611 0.951 . S
C635 C636 1.366 . S
C635 C637 1.388 . S
C636 C635 1.366 . S
C636 C640 1.385 . S
C637 H612 0.951 . S
C637 C635 1.388 . S
C637 C638 1.366 . S
C638 C637 1.366 . S
C638 C639 1.414 . S
C638 C641 1.499 . S
C639 H613 0.950 . S
C639 C638 1.414 . S
C639 C640 1.374 . S
C640 H614 0.950 . S
C640 C636 1.385 . S
C640 C639 1.374 . S
C641 C638 1.499 . S
C641 C642 1.373 . S
C641 C643 1.389 . S
C642 H615 0.950 . S
C642 C628 1.377 . S
C642 C641 1.373 . S
C643 C627 1.377 . S
C643 C641 1.389 . S
C643 C644 1.524 . S
C644 C643 1.524 . S
C644 C645 1.397 . S
C644 C649 1.363 . S
C645 H616 0.950 . S
C645 C644 1.397 . S
C645 C646 1.334 . S
C646 H617 0.950 . S
C646 C645 1.334 . S
C646 C647 1.287 . S
C647 C646 1.287 . S
C647 C648 1.524 . S
C647 H650 0.999 . S
C648 H618 0.950 . S
C648 C647 1.524 . S
C648 C649 1.415 . S
C649 H619 0.950 . S
C649 C644 1.363 . S
C649 C648 1.415 . S
H650 C647 0.999 . S
H651 C632 0.913 . S
H652 C670 0.951 . S
H653 C672 0.951 . S
H654 C674 0.950 . S
H655 C675 0.950 . S
H656 C677 0.950 . S
H657 C680 0.950 . S
H658 C681 0.950 . S
H659 C683 0.950 . S
H660 C684 0.950 . S
H661 C685 0.951 . S
H662 C687 0.951 . S
H663 C689 0.950 . S
H664 C690 0.950 . S
H665 C692 0.950 . S
H666 C695 0.950 . S
H667 C696 0.950 . S
H668 C698 0.950 . S
H669 C699 0.950 . S
C670 H652 0.951 . S
C670 C671 1.366 . S
C670 C672 1.388 . S
C671 C670 1.366 . S
C671 C675 1.385 . S
C672 H653 0.951 . S
C672 C670 1.388 . S
C672 C673 1.366 . S
C673 C672 1.366 . S
C673 C674 1.414 . S
C673 C676 1.499 . S
C674 H654 0.950 . S
C674 C673 1.414 . S
C674 C675 1.374 . S
C675 H655 0.950 . S
C675 C671 1.385 . S
C675 C674 1.374 . S
C676 C673 1.499 . S
C676 C677 1.373 . S
C676 C678 1.389 . S
C677 H656 0.950 . S
C677 C676 1.373 . S
C677 C693 1.377 . S
C678 C676 1.389 . S
C678 C679 1.524 . S
C678 C692 1.377 . S
C679 C678 1.524 . S
C679 C680 1.397 . S
C679 C684 1.363 . S
C680 H657 0.950 . S
C680 C679 1.397 . S
C680 C681 1.334 . S
C681 H658 0.950 . S
C681 C680 1.334 . S
C681 C682 1.287 . S
C682 C681 1.287 . S
C682 C683 1.524 . S
C682 H701 0.913 . S
C683 H659 0.950 . S
C683 C682 1.524 . S
C683 C684 1.415 . S
C684 H660 0.950 . S
C684 C679 1.363 . S
C684 C683 1.415 . S
C685 H661 0.951 . S
C685 C686 1.366 . S
C685 C687 1.388 . S
C686 C685 1.366 . S
C686 C690 1.385 . S
C687 H662 0.951 . S
C687 C685 1.388 . S
C687 C688 1.366 . S
C688 C687 1.366 . S
C688 C689 1.414 . S
C688 C691 1.499 . S
C689 H663 0.950 . S
C689 C688 1.414 . S
C689 C690 1.374 . S
C690 H664 0.950 . S
C690 C686 1.385 . S
C690 C689 1.374 . S
C691 C688 1.499 . S
C691 C692 1.373 . S
C691 C693 1.389 . S
C692 H665 0.950 . S
C692 C678 1.377 . S
C692 C691 1.373 . S
C693 C677 1.377 . S
C693 C691 1.389 . S
C693 C694 1.524 . S
C694 C693 1.524 . S
C694 C695 1.397 . S
C694 C699 1.363 . S
C695 H666 0.950 . S
C695 C694 1.397 . S
C695 C696 1.334 . S
C696 H667 0.950 . S
C696 C695 1.334 . S
C696 C697 1.287 . S
C697 C696 1.287 . S
C697 C698 1.524 . S
C697 H700 0.999 . S
C698 H668 0.950 . S
C698 C697 1.524 . S
C698 C699 1.415 . S
C699 H669 0.950 . S
C699 C694 1.363 . S
C699 C698 1.415 . S
H700 C697 0.999 . S
H701 C682 0.913 . S
H702 C720 0.951 1_554 S
H703 C722 0.951 . S
H704 C724 0.950 . S
H705 C725 0.950 . S
H706 C727 0.950 . S
H707 C730 0.950 . S
H708 C731 0.950 . S
H709 C733 0.950 . S
H710 C734 0.950 . S
H711 C735 0.951 . S
H712 C737 0.951 . S
H713 C739 0.950 . S
H714 C740 0.950 . S
H715 C742 0.950 . S
H716 C745 0.950 . S
H717 C746 0.950 . S
H718 C748 0.950 . S
H719 C749 0.950 . S
C720 H702 0.951 1_556 S
C720 C721 1.366 . S
C720 C722 1.388 . S
C721 C720 1.366 . S
C721 C725 1.385 . S
C722 H703 0.951 . S
C722 C720 1.388 . S
C722 C723 1.366 . S
C723 C722 1.366 . S
C723 C724 1.414 . S
C723 C726 1.499 . S
C724 H704 0.950 . S
C724 C723 1.414 . S
C724 C725 1.374 . S
C725 H705 0.950 . S
C725 C721 1.385 . S
C725 C724 1.374 . S
C726 C723 1.499 . S
C726 C727 1.373 . S
C726 C728 1.389 . S
C727 H706 0.950 . S
C727 C726 1.373 . S
C727 C743 1.377 . S
C728 C726 1.389 . S
C728 C729 1.524 . S
C728 C742 1.377 . S
C729 C728 1.524 . S
C729 C730 1.397 . S
C729 C734 1.363 . S
C730 H707 0.950 . S
C730 C729 1.397 . S
C730 C731 1.334 . S
C731 H708 0.950 . S
C731 C730 1.334 . S
C731 C732 1.287 . S
C732 C731 1.287 . S
C732 C733 1.524 . S
C732 H751 0.913 . S
C733 H709 0.950 . S
C733 C732 1.524 . S
C733 C734 1.415 . S
C734 H710 0.950 . S
C734 C729 1.363 . S
C734 C733 1.415 . S
C735 H711 0.951 . S
C735 C736 1.366 . S
C735 C737 1.388 . S
C736 C735 1.366 . S
C736 C740 1.385 . S
C737 H712 0.951 . S
C737 C735 1.388 . S
C737 C738 1.366 . S
C738 C737 1.366 . S
C738 C739 1.414 . S
C738 C741 1.499 . S
C739 H713 0.950 . S
C739 C738 1.414 . S
C739 C740 1.374 . S
C740 H714 0.950 . S
C740 C736 1.385 . S
C740 C739 1.374 . S
C741 C738 1.499 . S
C741 C742 1.373 . S
C741 C743 1.389 . S
C742 H715 0.950 . S
C742 C728 1.377 . S
C742 C741 1.373 . S
C743 C727 1.377 . S
C743 C741 1.389 . S
C743 C744 1.524 . S
C744 C743 1.524 . S
C744 C745 1.397 . S
C744 C749 1.363 . S
C745 H716 0.950 . S
C745 C744 1.397 . S
C745 C746 1.334 . S
C746 H717 0.950 . S
C746 C745 1.334 . S
C746 C747 1.287 . S
C747 C746 1.287 . S
C747 C748 1.524 . S
C747 H750 0.999 . S
C748 H718 0.950 . S
C748 C747 1.524 . S
C748 C749 1.415 . S
C749 H719 0.950 . S
C749 C744 1.363 . S
C749 C748 1.415 . S
H750 C747 0.999 . S
H751 C732 0.913 . S
H752 C770 0.951 . S
H753 C772 0.951 . S
H754 C774 0.950 . S
H755 C775 0.950 . S
H756 C777 0.950 . S
H757 C780 0.950 . S
H758 C781 0.950 . S
H759 C783 0.950 . S
H760 C784 0.950 . S
H761 C785 0.951 . S
H762 C787 0.951 . S
H763 C789 0.950 . S
H764 C790 0.950 . S
H765 C792 0.950 . S
H766 C795 0.950 . S
H767 C796 0.950 . S
H768 C798 0.950 . S
H769 C799 0.950 . S
C770 H752 0.951 . S
C770 C771 1.366 . S
C770 C772 1.388 . S
C771 C770 1.366 . S
C771 C775 1.385 . S
C772 H753 0.951 . S
C772 C770 1.388 . S
C772 C773 1.366 . S
C773 C772 1.366 . S
C773 C774 1.414 . S
C773 C776 1.499 . S
C774 H754 0.950 . S
C774 C773 1.414 . S
C774 C775 1.374 . S
C775 H755 0.950 . S
C775 C771 1.385 . S
C775 C774 1.374 . S
C776 C773 1.499 . S
C776 C777 1.373 . S
C776 C778 1.389 . S
C777 H756 0.950 . S
C777 C776 1.373 . S
C777 C793 1.377 . S
C778 C776 1.389 . S
C778 C779 1.524 . S
C778 C792 1.377 . S
C779 C778 1.524 . S
C779 C780 1.397 . S
C779 C784 1.363 . S
C780 H757 0.950 . S
C780 C779 1.397 . S
C780 C781 1.334 . S
C781 H758 0.950 . S
C781 C780 1.334 . S
C781 C782 1.287 . S
C782 C781 1.287 . S
C782 C783 1.524 . S
C782 H801 0.913 . S
C783 H759 0.950 . S
C783 C782 1.524 . S
C783 C784 1.415 . S
C784 H760 0.950 . S
C784 C779 1.363 . S
C784 C783 1.415 . S
C785 H761 0.951 . S
C785 C786 1.366 . S
C785 C787 1.388 . S
C786 C785 1.366 . S
C786 C790 1.385 . S
C787 H762 0.951 . S
C787 C785 1.388 . S
C787 C788 1.366 . S
C788 C787 1.366 . S
C788 C789 1.414 . S
C788 C791 1.499 . S
C789 H763 0.950 . S
C789 C788 1.414 . S
C789 C790 1.374 . S
C790 H764 0.950 . S
C790 C786 1.385 . S
C790 C789 1.374 . S
C791 C788 1.499 . S
C791 C792 1.373 . S
C791 C793 1.389 . S
C792 H765 0.950 . S
C792 C778 1.377 . S
C792 C791 1.373 . S
C793 C777 1.377 . S
C793 C791 1.389 . S
C793 C794 1.524 . S
C794 C793 1.524 . S
C794 C795 1.397 . S
C794 C799 1.363 . S
C795 H766 0.950 . S
C795 C794 1.397 . S
C795 C796 1.334 . S
C796 H767 0.950 . S
C796 C795 1.334 . S
C796 C797 1.287 . S
C797 C796 1.287 . S
C797 C798 1.524 . S
C797 H800 0.999 . S
C798 H768 0.950 . S
C798 C797 1.524 . S
C798 C799 1.415 . S
C799 H769 0.950 . S
C799 C794 1.363 . S
C799 C798 1.415 . S
H800 C797 0.999 . S
H801 C782 0.913 . S
H802 C820 0.951 . S
H803 C822 0.951 . S
H804 C824 0.950 . S
H805 C825 0.950 1_554 S
H806 C827 0.950 . S
H807 C830 0.950 . S
H808 C831 0.950 . S
H809 C833 0.950 . S
H810 C834 0.950 . S
H811 C835 0.951 . S
H812 C837 0.951 . S
H813 C839 0.950 . S
H814 C840 0.950 . S
H815 C842 0.950 . S
H816 C845 0.950 . S
H817 C846 0.950 . S
H818 C848 0.950 . S
H819 C849 0.950 . S
C820 H802 0.951 . S
C820 C821 1.366 . S
C820 C822 1.388 . S
C821 C820 1.366 . S
C821 C825 1.385 . S
C822 H803 0.951 . S
C822 C820 1.388 . S
C822 C823 1.366 . S
C823 C822 1.366 . S
C823 C824 1.414 . S
C823 C826 1.499 . S
C824 H804 0.950 . S
C824 C823 1.414 . S
C824 C825 1.374 . S
C825 H805 0.950 1_556 S
C825 C821 1.385 . S
C825 C824 1.374 . S
C826 C823 1.499 . S
C826 C827 1.373 . S
C826 C828 1.389 . S
C827 H806 0.950 . S
C827 C826 1.373 . S
C827 C843 1.377 . S
C828 C826 1.389 . S
C828 C829 1.524 . S
C828 C842 1.377 . S
C829 C828 1.524 . S
C829 C830 1.397 . S
C829 C834 1.363 . S
C830 H807 0.950 . S
C830 C829 1.397 . S
C830 C831 1.334 . S
C831 H808 0.950 . S
C831 C830 1.334 . S
C831 C832 1.287 . S
C832 C831 1.287 . S
C832 C833 1.524 . S
C832 H851 0.913 . S
C833 H809 0.950 . S
C833 C832 1.524 . S
C833 C834 1.415 . S
C834 H810 0.950 . S
C834 C829 1.363 . S
C834 C833 1.415 . S
C835 H811 0.951 . S
C835 C836 1.366 . S
C835 C837 1.388 . S
C836 C835 1.366 . S
C836 C840 1.385 . S
C837 H812 0.951 . S
C837 C835 1.388 . S
C837 C838 1.366 . S
C838 C837 1.366 . S
C838 C839 1.414 . S
C838 C841 1.499 . S
C839 H813 0.950 . S
C839 C838 1.414 . S
C839 C840 1.374 . S
C840 H814 0.950 . S
C840 C836 1.385 . S
C840 C839 1.374 . S
C841 C838 1.499 . S
C841 C842 1.373 . S
C841 C843 1.389 . S
C842 H815 0.950 . S
C842 C828 1.377 . S
C842 C841 1.373 . S
C843 C827 1.377 . S
C843 C841 1.389 . S
C843 C844 1.524 . S
C844 C843 1.524 . S
C844 C845 1.397 . S
C844 C849 1.363 . S
C845 H816 0.950 . S
C845 C844 1.397 . S
C845 C846 1.334 . S
C846 H817 0.950 . S
C846 C845 1.334 . S
C846 C847 1.287 . S
C847 C846 1.287 . S
C847 C848 1.524 . S
C847 H850 0.999 . S
C848 H818 0.950 . S
C848 C847 1.524 . S
C848 C849 1.415 . S
C849 H819 0.950 . S
C849 C844 1.363 . S
C849 C848 1.415 . S
H850 C847 0.999 . S
H851 C832 0.913 . S
H852 C870 0.951 . S
H853 C872 0.951 . S
H854 C874 0.950 . S
H855 C875 0.950 . S
H856 C877 0.950 . S
H857 C880 0.950 . S
H858 C881 0.950 . S
H859 C883 0.950 . S
H860 C884 0.950 . S
H861 C885 0.951 . S
H862 C887 0.951 . S
H863 C889 0.950 . S
H864 C890 0.950 . S
H865 C892 0.950 . S
H866 C895 0.950 . S
H867 C896 0.950 . S
H868 C898 0.950 . S
H869 C899 0.950 . S
C870 H852 0.951 . S
C870 C871 1.366 . S
C870 C872 1.388 . S
C871 C870 1.366 . S
C871 C875 1.385 . S
C872 H853 0.951 . S
C872 C870 1.388 . S
C872 C873 1.366 . S
C873 C872 1.366 . S
C873 C874 1.414 . S
C873 C876 1.499 . S
C874 H854 0.950 . S
C874 C873 1.414 . S
C874 C875 1.374 . S
C875 H855 0.950 . S
C875 C871 1.385 . S
C875 C874 1.374 . S
C876 C873 1.499 . S
C876 C877 1.373 . S
C876 C878 1.389 . S
C877 H856 0.950 . S
C877 C876 1.373 . S
C877 C893 1.377 . S
C878 C876 1.389 . S
C878 C879 1.524 . S
C878 C892 1.377 . S
C879 C878 1.524 . S
C879 C880 1.397 . S
C879 C884 1.363 . S
C880 H857 0.950 . S
C880 C879 1.397 . S
C880 C881 1.334 . S
C881 H858 0.950 . S
C881 C880 1.334 . S
C881 C882 1.287 . S
C882 C881 1.287 . S
C882 C883 1.524 . S
C882 H901 0.913 . S
C883 H859 0.950 . S
C883 C882 1.524 . S
C883 C884 1.415 . S
C884 H860 0.950 . S
C884 C879 1.363 . S
C884 C883 1.415 . S
C885 H861 0.951 . S
C885 C886 1.366 . S
C885 C887 1.388 . S
C886 C885 1.366 . S
C886 C890 1.385 . S
C887 H862 0.951 . S
C887 C885 1.388 . S
C887 C888 1.366 . S
C888 C887 1.366 . S
C888 C889 1.414 . S
C888 C891 1.499 . S
C889 H863 0.950 . S
C889 C888 1.414 . S
C889 C890 1.374 . S
C890 H864 0.950 . S
C890 C886 1.385 . S
C890 C889 1.374 . S
C891 C888 1.499 . S
C891 C892 1.373 . S
C891 C893 1.389 . S
C892 H865 0.950 . S
C892 C878 1.377 . S
C892 C891 1.373 . S
C893 C877 1.377 . S
C893 C891 1.389 . S
C893 C894 1.524 . S
C894 C893 1.524 . S
C894 C895 1.397 . S
C894 C899 1.363 . S
C895 H866 0.950 . S
C895 C894 1.397 . S
C895 C896 1.334 . S
C896 H867 0.950 . S
C896 C895 1.334 . S
C896 C897 1.287 . S
C897 C896 1.287 . S
C897 C898 1.524 . S
C897 H900 0.999 . S
C898 H868 0.950 . S
C898 C897 1.524 . S
C898 C899 1.415 . S
C899 H869 0.950 . S
C899 C894 1.363 . S
C899 C898 1.415 . S
H900 C897 0.999 . S
H901 C882 0.913 . S
H902 C920 0.951 . S
H903 C922 0.951 . S
H904 C924 0.950 . S
H905 C925 0.950 . S
H906 C927 0.950 . S
H907 C930 0.950 . S
H908 C931 0.950 . S
H909 C933 0.950 . S
H910 C934 0.950 . S
H911 C935 0.951 . S
H912 C937 0.951 . S
H913 C939 0.950 . S
H914 C940 0.950 . S
H915 C942 0.950 . S
H916 C945 0.950 . S
H917 C946 0.950 . S
H918 C948 0.950 . S
H919 C949 0.950 . S
C920 H902 0.951 . S
C920 C921 1.366 . S
C920 C922 1.388 . S
C921 C920 1.366 . S
C921 C925 1.385 . S
C922 H903 0.951 . S
C922 C920 1.388 . S
C922 C923 1.366 . S
C923 C922 1.366 . S
C923 C924 1.414 . S
C923 C926 1.499 . S
C924 H904 0.950 . S
C924 C923 1.414 . S
C924 C925 1.374 . S
C925 H905 0.950 . S
C925 C921 1.385 . S
C925 C924 1.374 . S
C926 C923 1.499 . S
C926 C927 1.373 . S
C926 C928 1.389 . S
C927 H906 0.950 . S
C927 C926 1.373 . S
C927 C943 1.377 . S
C928 C926 1.389 . S
C928 C929 1.524 . S
C928 C942 1.377 . S
C929 C928 1.524 . S
C929 C930 1.397 . S
C929 C934 1.363 . S
C930 H907 0.950 . S
C930 C929 1.397 . S
C930 C931 1.334 . S
C931 H908 0.950 . S
C931 C930 1.334 . S
C931 C932 1.287 . S
C932 C931 1.287 . S
C932 C933 1.524 . S
C932 H951 0.913 . S
C933 H909 0.950 . S
C933 C932 1.524 . S
C933 C934 1.415 . S
C934 H910 0.950 . S
C934 C929 1.363 . S
C934 C933 1.415 . S
C935 H911 0.951 . S
C935 C936 1.366 . S
C935 C937 1.388 . S
C936 C935 1.366 . S
C936 C940 1.385 . S
C937 H912 0.951 . S
C937 C935 1.388 . S
C937 C938 1.366 . S
C938 C937 1.366 . S
C938 C939 1.414 . S
C938 C941 1.499 . S
C939 H913 0.950 . S
C939 C938 1.414 . S
C939 C940 1.374 . S
C940 H914 0.950 . S
C940 C936 1.385 . S
C940 C939 1.374 . S
C941 C938 1.499 . S
C941 C942 1.373 . S
C941 C943 1.389 . S
C942 H915 0.950 . S
C942 C928 1.377 . S
C942 C941 1.373 . S
C943 C927 1.377 . S
C943 C941 1.389 . S
C943 C944 1.524 . S
C944 C943 1.524 . S
C944 C945 1.397 . S
C944 C949 1.363 . S
C945 H916 0.950 . S
C945 C944 1.397 . S
C945 C946 1.334 . S
C946 H917 0.950 . S
C946 C945 1.334 . S
C946 C947 1.287 . S
C947 C946 1.287 . S
C947 C948 1.524 . S
C947 H950 0.999 . S
C948 H918 0.950 . S
C948 C947 1.524 . S
C948 C949 1.415 . S
C949 H919 0.950 . S
C949 C944 1.363 . S
C949 C948 1.415 . S
H950 C947 0.999 . S
H951 C932 0.913 . S
H952 C970 0.951 . S
H953 C972 0.951 . S
H954 C974 0.950 . S
H955 C975 0.950 . S
H956 C977 0.950 . S
H957 C980 0.950 . S
H958 C981 0.950 . S
H959 C983 0.950 . S
H960 C984 0.950 . S
H961 C985 0.951 . S
H962 C987 0.951 . S
H963 C989 0.950 . S
H964 C990 0.950 . S
H965 C992 0.950 . S
H966 C995 0.950 . S
H967 C996 0.950 . S
H968 C998 0.950 . S
H969 C999 0.950 . S
C970 H952 0.951 . S
C970 C971 1.366 . S
C970 C972 1.388 . S
C971 C970 1.366 . S
C971 C975 1.385 . S
C972 H953 0.951 . S
C972 C970 1.388 . S
C972 C973 1.366 . S
C973 C972 1.366 . S
C973 C974 1.414 . S
C973 C976 1.499 . S
C974 H954 0.950 . S
C974 C973 1.414 . S
C974 C975 1.374 . S
C975 H955 0.950 . S
C975 C971 1.385 . S
C975 C974 1.374 . S
C976 C973 1.499 . S
C976 C977 1.373 . S
C976 C978 1.389 . S
C977 H956 0.950 . S
C977 C976 1.373 . S
C977 C993 1.377 . S
C978 C976 1.389 . S
C978 C979 1.524 . S
C978 C992 1.377 . S
C979 C978 1.524 . S
C979 C980 1.397 . S
C979 C984 1.363 . S
C980 H957 0.950 . S
C980 C979 1.397 . S
C980 C981 1.334 . S
C981 H958 0.950 . S
C981 C980 1.334 . S
C981 C982 1.287 . S
C982 C981 1.287 . S
C982 C983 1.524 . S
C982 H1001 0.913 . S
C983 H959 0.950 . S
C983 C982 1.524 . S
C983 C984 1.415 . S
C984 H960 0.950 . S
C984 C979 1.363 . S
C984 C983 1.415 . S
C985 H961 0.951 . S
C985 C986 1.366 . S
C985 C987 1.388 . S
C986 C985 1.366 . S
C986 C990 1.385 . S
C987 H962 0.951 . S
C987 C985 1.388 . S
C987 C988 1.366 . S
C988 C987 1.366 . S
C988 C989 1.414 . S
C988 C991 1.499 . S
C989 H963 0.950 . S
C989 C988 1.414 . S
C989 C990 1.374 . S
C990 H964 0.950 . S
C990 C986 1.385 . S
C990 C989 1.374 . S
C991 C988 1.499 . S
C991 C992 1.373 . S
C991 C993 1.389 . S
C992 H965 0.950 . S
C992 C978 1.377 . S
C992 C991 1.373 . S
C993 C977 1.377 . S
C993 C991 1.389 . S
C993 C994 1.524 . S
C994 C993 1.524 . S
C994 C995 1.397 . S
C994 C999 1.363 . S
C995 H966 0.950 . S
C995 C994 1.397 . S
C995 C996 1.334 . S
C996 H967 0.950 . S
C996 C995 1.334 . S
C996 C997 1.287 . S
C997 C996 1.287 . S
C997 C998 1.524 . S
C997 H1000 0.999 . S
C998 H968 0.950 . S
C998 C997 1.524 . S
C998 C999 1.415 . S
C999 H969 0.950 . S
C999 C994 1.363 . S
C999 C998 1.415 . S
H1000 C997 0.999 . S
H1001 C982 0.913 . S
H1002 C1020 0.951 . S
H1003 C1022 0.951 . S
H1004 C1024 0.950 . S
H1005 C1025 0.950 . S
H1006 C1027 0.950 . S
H1007 C1030 0.950 . S
H1008 C1031 0.950 . S
H1009 C1033 0.950 . S
H1010 C1034 0.950 . S
H1011 C1035 0.951 1_556 S
H1012 C1037 0.951 . S
H1013 C1039 0.950 . S
H1014 C1040 0.950 . S
H1015 C1042 0.950 . S
H1016 C1045 0.950 . S
H1017 C1046 0.950 . S
H1018 C1048 0.950 . S
H1019 C1049 0.950 . S
C1020 H1002 0.951 . S
C1020 C1021 1.366 . S
C1020 C1022 1.388 . S
C1021 C1020 1.366 . S
C1021 C1025 1.385 . S
C1022 H1003 0.951 . S
C1022 C1020 1.388 . S
C1022 C1023 1.366 . S
C1023 C1022 1.366 . S
C1023 C1024 1.414 . S
C1023 C1026 1.499 . S
C1024 H1004 0.950 . S
C1024 C1023 1.414 . S
C1024 C1025 1.374 . S
C1025 H1005 0.950 . S
C1025 C1021 1.385 . S
C1025 C1024 1.374 . S
C1026 C1023 1.499 . S
C1026 C1027 1.373 . S
C1026 C1028 1.389 . S
C1027 H1006 0.950 . S
C1027 C1026 1.373 . S
C1027 C1043 1.377 . S
C1028 C1026 1.389 . S
C1028 C1029 1.524 . S
C1028 C1042 1.377 . S
C1029 C1028 1.524 . S
C1029 C1030 1.397 . S
C1029 C1034 1.363 . S
C1030 H1007 0.950 . S
C1030 C1029 1.397 . S
C1030 C1031 1.334 . S
C1031 H1008 0.950 . S
C1031 C1030 1.334 . S
C1031 C1032 1.287 . S
C1032 C1031 1.287 . S
C1032 C1033 1.524 . S
C1032 H1051 0.913 . S
C1033 H1009 0.950 . S
C1033 C1032 1.524 . S
C1033 C1034 1.415 . S
C1034 H1010 0.950 . S
C1034 C1029 1.363 . S
C1034 C1033 1.415 . S
C1035 H1011 0.951 1_554 S
C1035 C1036 1.366 . S
C1035 C1037 1.388 . S
C1036 C1035 1.366 . S
C1036 C1040 1.385 . S
C1037 H1012 0.951 . S
C1037 C1035 1.388 . S
C1037 C1038 1.366 . S
C1038 C1037 1.366 . S
C1038 C1039 1.414 . S
C1038 C1041 1.499 . S
C1039 H1013 0.950 . S
C1039 C1038 1.414 . S
C1039 C1040 1.374 . S
C1040 H1014 0.950 . S
C1040 C1036 1.385 . S
C1040 C1039 1.374 . S
C1041 C1038 1.499 . S
C1041 C1042 1.373 . S
C1041 C1043 1.389 . S
C1042 H1015 0.950 . S
C1042 C1028 1.377 . S
C1042 C1041 1.373 . S
C1043 C1027 1.377 . S
C1043 C1041 1.389 . S
C1043 C1044 1.524 . S
C1044 C1043 1.524 . S
C1044 C1045 1.397 . S
C1044 C1049 1.363 . S
C1045 H1016 0.950 . S
C1045 C1044 1.397 . S
C1045 C1046 1.334 . S
C1046 H1017 0.950 . S
C1046 C1045 1.334 . S
C1046 C1047 1.287 . S
C1047 C1046 1.287 . S
C1047 C1048 1.524 . S
C1047 H1050 0.999 . S
C1048 H1018 0.950 . S
C1048 C1047 1.524 . S
C1048 C1049 1.415 . S
C1049 H1019 0.950 . S
C1049 C1044 1.363 . S
C1049 C1048 1.415 . S
H1050 C1047 0.999 . S
H1051 C1032 0.913 . S
H1052 C1070 0.951 . S
H1053 C1072 0.951 . S
H1054 C1074 0.950 . S
H1055 C1075 0.950 . S
H1056 C1077 0.950 . S
H1057 C1080 0.950 . S
H1058 C1081 0.950 . S
H1059 C1083 0.950 . S
H1060 C1084 0.950 . S
H1061 C1085 0.951 . S
H1062 C1087 0.951 . S
H1063 C1089 0.950 . S
H1064 C1090 0.950 1_556 S
H1065 C1092 0.950 . S
H1066 C1095 0.950 . S
H1067 C1096 0.950 . S
H1068 C1098 0.950 . S
H1069 C1099 0.950 . S
C1070 H1052 0.951 . S
C1070 C1071 1.366 . S
C1070 C1072 1.388 . S
C1071 C1070 1.366 . S
C1071 C1075 1.385 . S
C1072 H1053 0.951 . S
C1072 C1070 1.388 . S
C1072 C1073 1.366 . S
C1073 C1072 1.366 . S
C1073 C1074 1.414 . S
C1073 C1076 1.499 . S
C1074 H1054 0.950 . S
C1074 C1073 1.414 . S
C1074 C1075 1.374 . S
C1075 H1055 0.950 . S
C1075 C1071 1.385 . S
C1075 C1074 1.374 . S
C1076 C1073 1.499 . S
C1076 C1077 1.373 . S
C1076 C1078 1.389 . S
C1077 H1056 0.950 . S
C1077 C1076 1.373 . S
C1077 C1093 1.377 . S
C1078 C1076 1.389 . S
C1078 C1079 1.524 . S
C1078 C1092 1.377 . S
C1079 C1078 1.524 . S
C1079 C1080 1.397 . S
C1079 C1084 1.363 . S
C1080 H1057 0.950 . S
C1080 C1079 1.397 . S
C1080 C1081 1.334 . S
C1081 H1058 0.950 . S
C1081 C1080 1.334 . S
C1081 C1082 1.287 . S
C1082 C1081 1.287 . S
C1082 C1083 1.524 . S
C1082 H1101 0.913 . S
C1083 H1059 0.950 . S
C1083 C1082 1.524 . S
C1083 C1084 1.415 . S
C1084 H1060 0.950 . S
C1084 C1079 1.363 . S
C1084 C1083 1.415 . S
C1085 H1061 0.951 . S
C1085 C1086 1.366 . S
C1085 C1087 1.388 . S
C1086 C1085 1.366 . S
C1086 C1090 1.385 . S
C1087 H1062 0.951 . S
C1087 C1085 1.388 . S
C1087 C1088 1.366 . S
C1088 C1087 1.366 . S
C1088 C1089 1.414 . S
C1088 C1091 1.499 . S
C1089 H1063 0.950 . S
C1089 C1088 1.414 . S
C1089 C1090 1.374 . S
C1090 H1064 0.950 1_554 S
C1090 C1086 1.385 . S
C1090 C1089 1.374 . S
C1091 C1088 1.499 . S
C1091 C1092 1.373 . S
C1091 C1093 1.389 . S
C1092 H1065 0.950 . S
C1092 C1078 1.377 . S
C1092 C1091 1.373 . S
C1093 C1077 1.377 . S
C1093 C1091 1.389 . S
C1093 C1094 1.524 . S
C1094 C1093 1.524 . S
C1094 C1095 1.397 . S
C1094 C1099 1.363 . S
C1095 H1066 0.950 . S
C1095 C1094 1.397 . S
C1095 C1096 1.334 . S
C1096 H1067 0.950 . S
C1096 C1095 1.334 . S
C1096 C1097 1.287 . S
C1097 C1096 1.287 . S
C1097 C1098 1.524 . S
C1097 H1100 0.999 . S
C1098 H1068 0.950 . S
C1098 C1097 1.524 . S
C1098 C1099 1.415 . S
C1099 H1069 0.950 . S
C1099 C1094 1.363 . S
C1099 C1098 1.415 . S
H1100 C1097 0.999 . S
H1101 C1082 0.913 . S
H1102 C1120 0.951 . S
H1103 C1122 0.951 . S
H1104 C1124 0.950 . S
H1105 C1125 0.950 . S
H1106 C1127 0.950 . S
H1107 C1130 0.950 . S
H1108 C1131 0.950 . S
H1109 C1133 0.950 . S
H1110 C1134 0.950 . S
H1111 C1135 0.951 . S
H1112 C1137 0.951 . S
H1113 C1139 0.950 . S
H1114 C1140 0.950 . S
H1115 C1142 0.950 . S
H1116 C1145 0.950 . S
H1117 C1146 0.950 . S
H1118 C1148 0.950 . S
H1119 C1149 0.950 . S
C1120 H1102 0.951 . S
C1120 C1121 1.366 . S
C1120 C1122 1.388 . S
C1121 C1120 1.366 . S
C1121 C1125 1.385 . S
C1122 H1103 0.951 . S
C1122 C1120 1.388 . S
C1122 C1123 1.366 . S
C1123 C1122 1.366 . S
C1123 C1124 1.414 . S
C1123 C1126 1.499 . S
C1124 H1104 0.950 . S
C1124 C1123 1.414 . S
C1124 C1125 1.374 . S
C1125 H1105 0.950 . S
C1125 C1121 1.385 . S
C1125 C1124 1.374 . S
C1126 C1123 1.499 . S
C1126 C1127 1.373 . S
C1126 C1128 1.389 . S
C1127 H1106 0.950 . S
C1127 C1126 1.373 . S
C1127 C1143 1.377 . S
C1128 C1126 1.389 . S
C1128 C1129 1.524 . S
C1128 C1142 1.377 . S
C1129 C1128 1.524 . S
C1129 C1130 1.397 . S
C1129 C1134 1.363 . S
C1130 H1107 0.950 . S
C1130 C1129 1.397 . S
C1130 C1131 1.334 . S
C1131 H1108 0.950 . S
C1131 C1130 1.334 . S
C1131 C1132 1.287 . S
C1132 C1131 1.287 . S
C1132 C1133 1.524 . S
C1132 H1151 0.913 . S
C1133 H1109 0.950 . S
C1133 C1132 1.524 . S
C1133 C1134 1.415 . S
C1134 H1110 0.950 . S
C1134 C1129 1.363 . S
C1134 C1133 1.415 . S
C1135 H1111 0.951 . S
C1135 C1136 1.366 . S
C1135 C1137 1.388 . S
C1136 C1135 1.366 . S
C1136 C1140 1.385 . S
C1137 H1112 0.951 . S
C1137 C1135 1.388 . S
C1137 C1138 1.366 . S
C1138 C1137 1.366 . S
C1138 C1139 1.414 . S
C1138 C1141 1.499 . S
C1139 H1113 0.950 . S
C1139 C1138 1.414 . S
C1139 C1140 1.374 . S
C1140 H1114 0.950 . S
C1140 C1136 1.385 . S
C1140 C1139 1.374 . S
C1141 C1138 1.499 . S
C1141 C1142 1.373 . S
C1141 C1143 1.389 . S
C1142 H1115 0.950 . S
C1142 C1128 1.377 . S
C1142 C1141 1.373 . S
C1143 C1127 1.377 . S
C1143 C1141 1.389 . S
C1143 C1144 1.524 . S
C1144 C1143 1.524 . S
C1144 C1145 1.397 . S
C1144 C1149 1.363 . S
C1145 H1116 0.950 . S
C1145 C1144 1.397 . S
C1145 C1146 1.334 1_554 S
C1146 H1117 0.950 . S
C1146 C1145 1.334 1_556 S
C1146 C1147 1.287 . S
C1147 C1146 1.287 . S
C1147 C1148 1.524 1_556 S
C1147 H1150 0.999 . S
C1148 H1118 0.950 . S
C1148 C1147 1.524 1_554 S
C1148 C1149 1.415 . S
C1149 H1119 0.950 . S
C1149 C1144 1.363 . S
C1149 C1148 1.415 . S
H1150 C1147 0.999 . S
H1151 C1132 0.913 . S
H1152 C1170 0.951 . S
H1153 C1172 0.951 . S
H1154 C1174 0.950 . S
H1155 C1175 0.950 . S
H1156 C1177 0.950 . S
H1157 C1180 0.950 . S
H1158 C1181 0.950 . S
H1159 C1183 0.950 . S
H1160 C1184 0.950 . S
H1161 C1185 0.951 . S
H1162 C1187 0.951 . S
H1163 C1189 0.950 . S
H1164 C1190 0.950 . S
H1165 C1192 0.950 . S
H1166 C1195 0.950 . S
H1167 C1196 0.950 . S
H1168 C1198 0.950 . S
H1169 C1199 0.950 . S
C1170 H1152 0.951 . S
C1170 C1171 1.366 . S
C1170 C1172 1.388 . S
C1171 C1170 1.366 . S
C1171 C1175 1.385 . S
C1172 H1153 0.951 . S
C1172 C1170 1.388 . S
C1172 C1173 1.366 . S
C1173 C1172 1.366 . S
C1173 C1174 1.414 . S
C1173 C1176 1.499 . S
C1174 H1154 0.950 . S
C1174 C1173 1.414 . S
C1174 C1175 1.374 . S
C1175 H1155 0.950 . S
C1175 C1171 1.385 . S
C1175 C1174 1.374 . S
C1176 C1173 1.499 . S
C1176 C1177 1.373 . S
C1176 C1178 1.389 . S
C1177 H1156 0.950 . S
C1177 C1176 1.373 . S
C1177 C1193 1.377 . S
C1178 C1176 1.389 . S
C1178 C1179 1.524 . S
C1178 C1192 1.377 . S
C1179 C1178 1.524 . S
C1179 C1180 1.397 . S
C1179 C1184 1.363 . S
C1180 H1157 0.950 . S
C1180 C1179 1.397 . S
C1180 C1181 1.334 . S
C1181 H1158 0.950 . S
C1181 C1180 1.334 . S
C1181 C1182 1.287 . S
C1182 C1181 1.287 . S
C1182 C1183 1.524 . S
C1182 H1201 0.913 . S
C1183 H1159 0.950 . S
C1183 C1182 1.524 . S
C1183 C1184 1.415 . S
C1184 H1160 0.950 . S
C1184 C1179 1.363 . S
C1184 C1183 1.415 . S
C1185 H1161 0.951 . S
C1185 C1186 1.366 . S
C1185 C1187 1.388 . S
C1186 C1185 1.366 . S
C1186 C1190 1.385 . S
C1187 H1162 0.951 . S
C1187 C1185 1.388 . S
C1187 C1188 1.366 . S
C1188 C1187 1.366 . S
C1188 C1189 1.414 . S
C1188 C1191 1.499 . S
C1189 H1163 0.950 . S
C1189 C1188 1.414 . S
C1189 C1190 1.374 . S
C1190 H1164 0.950 . S
C1190 C1186 1.385 . S
C1190 C1189 1.374 . S
C1191 C1188 1.499 . S
C1191 C1192 1.373 . S
C1191 C1193 1.389 . S
C1192 H1165 0.950 . S
C1192 C1178 1.377 . S
C1192 C1191 1.373 . S
C1193 C1177 1.377 . S
C1193 C1191 1.389 . S
C1193 C1194 1.524 . S
C1194 C1193 1.524 . S
C1194 C1195 1.397 . S
C1194 C1199 1.363 . S
C1195 H1166 0.950 . S
C1195 C1194 1.397 . S
C1195 C1196 1.334 . S
C1196 H1167 0.950 . S
C1196 C1195 1.334 . S
C1196 C1197 1.287 . S
C1197 C1196 1.287 . S
C1197 C1198 1.524 . S
C1197 H1200 0.999 . S
C1198 H1168 0.950 . S
C1198 C1197 1.524 . S
C1198 C1199 1.415 . S
C1199 H1169 0.950 . S
C1199 C1194 1.363 . S
C1199 C1198 1.415 . S
H1200 C1197 0.999 . S
H1201 C1182 0.913 . S
H1202 C1220 0.951 . S
H1203 C1222 0.951 . S
H1204 C1224 0.950 . S
H1205 C1225 0.950 . S
H1206 C1227 0.950 . S
H1207 C1230 0.950 . S
H1208 C1231 0.950 . S
H1209 C1233 0.950 . S
H1210 C1234 0.950 . S
H1211 C1235 0.951 . S
H1212 C1237 0.951 . S
H1213 C1239 0.950 . S
H1214 C1240 0.950 . S
H1215 C1242 0.950 . S
H1216 C1245 0.950 . S
H1217 C1246 0.950 . S
H1218 C1248 0.950 . S
H1219 C1249 0.950 . S
C1220 H1202 0.951 . S
C1220 C1221 1.366 . S
C1220 C1222 1.388 . S
C1221 C1220 1.366 . S
C1221 C1225 1.385 . S
C1222 H1203 0.951 . S
C1222 C1220 1.388 . S
C1222 C1223 1.366 . S
C1223 C1222 1.366 . S
C1223 C1224 1.414 . S
C1223 C1226 1.499 . S
C1224 H1204 0.950 . S
C1224 C1223 1.414 . S
C1224 C1225 1.374 . S
C1225 H1205 0.950 . S
C1225 C1221 1.385 . S
C1225 C1224 1.374 . S
C1226 C1223 1.499 . S
C1226 C1227 1.373 . S
C1226 C1228 1.389 . S
C1227 H1206 0.950 . S
C1227 C1226 1.373 . S
C1227 C1243 1.377 . S
C1228 C1226 1.389 . S
C1228 C1229 1.524 . S
C1228 C1242 1.377 . S
C1229 C1228 1.524 . S
C1229 C1230 1.397 . S
C1229 C1234 1.363 . S
C1230 H1207 0.950 . S
C1230 C1229 1.397 . S
C1230 C1231 1.334 . S
C1231 H1208 0.950 . S
C1231 C1230 1.334 . S
C1231 C1232 1.287 . S
C1232 C1231 1.287 . S
C1232 C1233 1.524 . S
C1232 H1251 0.913 . S
C1233 H1209 0.950 . S
C1233 C1232 1.524 . S
C1233 C1234 1.415 . S
C1234 H1210 0.950 . S
C1234 C1229 1.363 . S
C1234 C1233 1.415 . S
C1235 H1211 0.951 . S
C1235 C1236 1.366 . S
C1235 C1237 1.388 . S
C1236 C1235 1.366 . S
C1236 C1240 1.385 . S
C1237 H1212 0.951 . S
C1237 C1235 1.388 . S
C1237 C1238 1.366 . S
C1238 C1237 1.366 . S
C1238 C1239 1.414 . S
C1238 C1241 1.499 . S
C1239 H1213 0.950 . S
C1239 C1238 1.414 . S
C1239 C1240 1.374 . S
C1240 H1214 0.950 . S
C1240 C1236 1.385 . S
C1240 C1239 1.374 . S
C1241 C1238 1.499 . S
C1241 C1242 1.373 . S
C1241 C1243 1.389 . S
C1242 H1215 0.950 . S
C1242 C1228 1.377 . S
C1242 C1241 1.373 . S
C1243 C1227 1.377 . S
C1243 C1241 1.389 . S
C1243 C1244 1.524 . S
C1244 C1243 1.524 . S
C1244 C1245 1.397 . S
C1244 C1249 1.363 . S
C1245 H1216 0.950 . S
C1245 C1244 1.397 . S
C1245 C1246 1.334 . S
C1246 H1217 0.950 . S
C1246 C1245 1.334 . S
C1246 C1247 1.287 . S
C1247 C1246 1.287 . S
C1247 C1248 1.524 . S
C1247 H1250 0.999 . S
C1248 H1218 0.950 . S
C1248 C1247 1.524 . S
C1248 C1249 1.415 . S
C1249 H1219 0.950 . S
C1249 C1244 1.363 . S
C1249 C1248 1.415 . S
H1250 C1247 0.999 . S
H1251 C1232 0.913 . S
H1252 C1270 0.951 . S
H1253 C1272 0.951 . S
H1254 C1274 0.950 . S
H1255 C1275 0.950 . S
H1256 C1277 0.950 . S
H1257 C1280 0.950 . S
H1258 C1281 0.950 . S
H1259 C1283 0.950 . S
H1260 C1284 0.950 . S
H1261 C1285 0.951 . S
H1262 C1287 0.951 . S
H1263 C1289 0.950 . S
H1264 C1290 0.950 . S
H1265 C1292 0.950 . S
H1266 C1295 0.950 . S
H1267 C1296 0.950 . S
H1268 C1298 0.950 . S
H1269 C1299 0.950 . S
C1270 H1252 0.951 . S
C1270 C1271 1.366 . S
C1270 C1272 1.388 . S
C1271 C1270 1.366 . S
C1271 C1275 1.385 . S
C1272 H1253 0.951 . S
C1272 C1270 1.388 . S
C1272 C1273 1.366 . S
C1273 C1272 1.366 . S
C1273 C1274 1.414 . S
C1273 C1276 1.499 . S
C1274 H1254 0.950 . S
C1274 C1273 1.414 . S
C1274 C1275 1.374 . S
C1275 H1255 0.950 . S
C1275 C1271 1.385 . S
C1275 C1274 1.374 . S
C1276 C1273 1.499 . S
C1276 C1277 1.373 . S
C1276 C1278 1.389 . S
C1277 H1256 0.950 . S
C1277 C1276 1.373 . S
C1277 C1293 1.377 . S
C1278 C1276 1.389 . S
C1278 C1279 1.524 . S
C1278 C1292 1.377 . S
C1279 C1278 1.524 . S
C1279 C1280 1.397 . S
C1279 C1284 1.363 . S
C1280 H1257 0.950 . S
C1280 C1279 1.397 . S
C1280 C1281 1.334 . S
C1281 H1258 0.950 . S
C1281 C1280 1.334 . S
C1281 C1282 1.287 . S
C1282 C1281 1.287 . S
C1282 C1283 1.524 . S
C1282 H1301 0.913 . S
C1283 H1259 0.950 . S
C1283 C1282 1.524 . S
C1283 C1284 1.415 . S
C1284 H1260 0.950 . S
C1284 C1279 1.363 . S
C1284 C1283 1.415 . S
C1285 H1261 0.951 . S
C1285 C1286 1.366 . S
C1285 C1287 1.388 . S
C1286 C1285 1.366 . S
C1286 C1290 1.385 . S
C1287 H1262 0.951 . S
C1287 C1285 1.388 . S
C1287 C1288 1.366 . S
C1288 C1287 1.366 . S
C1288 C1289 1.414 . S
C1288 C1291 1.499 . S
C1289 H1263 0.950 . S
C1289 C1288 1.414 . S
C1289 C1290 1.374 . S
C1290 H1264 0.950 . S
C1290 C1286 1.385 . S
C1290 C1289 1.374 . S
C1291 C1288 1.499 . S
C1291 C1292 1.373 . S
C1291 C1293 1.389 . S
C1292 H1265 0.950 . S
C1292 C1278 1.377 . S
C1292 C1291 1.373 . S
C1293 C1277 1.377 . S
C1293 C1291 1.389 . S
C1293 C1294 1.524 . S
C1294 C1293 1.524 . S
C1294 C1295 1.397 . S
C1294 C1299 1.363 . S
C1295 H1266 0.950 . S
C1295 C1294 1.397 . S
C1295 C1296 1.334 . S
C1296 H1267 0.950 . S
C1296 C1295 1.334 . S
C1296 C1297 1.287 . S
C1297 C1296 1.287 . S
C1297 C1298 1.524 . S
C1297 H1300 0.999 . S
C1298 H1268 0.950 . S
C1298 C1297 1.524 . S
C1298 C1299 1.415 . S
C1299 H1269 0.950 . S
C1299 C1294 1.363 . S
C1299 C1298 1.415 . S
H1300 C1297 0.999 . S
H1301 C1282 0.913 . S
H1302 C1320 0.951 . S
H1303 C1322 0.951 . S
H1304 C1324 0.950 . S
H1305 C1325 0.950 . S
H1306 C1327 0.950 . S
H1307 C1330 0.950 . S
H1308 C1331 0.950 . S
H1309 C1333 0.950 . S
H1310 C1334 0.950 . S
H1311 C1335 0.951 . S
H1312 C1337 0.951 . S
H1313 C1339 0.950 . S
H1314 C1340 0.950 . S
H1315 C1342 0.950 . S
H1316 C1345 0.950 . S
H1317 C1346 0.950 . S
H1318 C1348 0.950 . S
H1319 C1349 0.950 . S
C1320 H1302 0.951 . S
C1320 C1321 1.366 . S
C1320 C1322 1.388 . S
C1321 C1320 1.366 . S
C1321 C1325 1.385 . S
C1322 H1303 0.951 . S
C1322 C1320 1.388 . S
C1322 C1323 1.366 . S
C1323 C1322 1.366 . S
C1323 C1324 1.414 . S
C1323 C1326 1.499 . S
C1324 H1304 0.950 . S
C1324 C1323 1.414 . S
C1324 C1325 1.374 . S
C1325 H1305 0.950 . S
C1325 C1321 1.385 . S
C1325 C1324 1.374 . S
C1326 C1323 1.499 . S
C1326 C1327 1.373 . S
C1326 C1328 1.389 . S
C1327 H1306 0.950 . S
C1327 C1326 1.373 . S
C1327 C1343 1.377 . S
C1328 C1326 1.389 . S
C1328 C1329 1.524 . S
C1328 C1342 1.377 . S
C1329 C1328 1.524 . S
C1329 C1330 1.397 . S
C1329 C1334 1.363 . S
C1330 H1307 0.950 . S
C1330 C1329 1.397 . S
C1330 C1331 1.334 . S
C1331 H1308 0.950 . S
C1331 C1330 1.334 . S
C1331 C1332 1.287 . S
C1332 C1331 1.287 . S
C1332 C1333 1.524 . S
C1332 H1351 0.913 . S
C1333 H1309 0.950 . S
C1333 C1332 1.524 . S
C1333 C1334 1.415 . S
C1334 H1310 0.950 . S
C1334 C1329 1.363 . S
C1334 C1333 1.415 . S
C1335 H1311 0.951 . S
C1335 C1336 1.366 . S
C1335 C1337 1.388 1_556 S
C1336 C1335 1.366 . S
C1336 C1340 1.385 1_556 S
C1337 H1312 0.951 . S
C1337 C1335 1.388 1_554 S
C1337 C1338 1.366 . S
C1338 C1337 1.366 . S
C1338 C1339 1.414 . S
C1338 C1341 1.499 . S
C1339 H1313 0.950 . S
C1339 C1338 1.414 . S
C1339 C1340 1.374 . S
C1340 H1314 0.950 . S
C1340 C1336 1.385 1_554 S
C1340 C1339 1.374 . S
C1341 C1338 1.499 . S
C1341 C1342 1.373 . S
C1341 C1343 1.389 . S
C1342 H1315 0.950 . S
C1342 C1328 1.377 . S
C1342 C1341 1.373 . S
C1343 C1327 1.377 . S
C1343 C1341 1.389 . S
C1343 C1344 1.524 1_554 S
C1344 C1343 1.524 1_556 S
C1344 C1345 1.397 . S
C1344 C1349 1.363 . S
C1345 H1316 0.950 . S
C1345 C1344 1.397 . S
C1345 C1346 1.334 . S
C1346 H1317 0.950 . S
C1346 C1345 1.334 . S
C1346 C1347 1.287 . S
C1347 C1346 1.287 . S
C1347 C1348 1.524 . S
C1347 H1350 0.999 . S
C1348 H1318 0.950 . S
C1348 C1347 1.524 . S
C1348 C1349 1.415 . S
C1349 H1319 0.950 . S
C1349 C1344 1.363 . S
C1349 C1348 1.415 . S
H1350 C1347 0.999 . S
H1351 C1332 0.913 . S
H1352 C1370 0.951 . S
H1353 C1372 0.951 . S
H1354 C1374 0.950 . S
H1355 C1375 0.950 . S
H1356 C1377 0.950 . S
H1357 C1380 0.950 1_554 S
H1358 C1381 0.950 . S
H1359 C1383 0.950 . S
H1360 C1384 0.950 . S
H1361 C1385 0.951 . S
H1362 C1387 0.951 . S
H1363 C1389 0.950 . S
H1364 C1390 0.950 . S
H1365 C1392 0.950 . S
H1366 C1395 0.950 . S
H1367 C1396 0.950 . S
H1368 C1398 0.950 . S
H1369 C1399 0.950 . S
C1370 H1352 0.951 . S
C1370 C1371 1.366 . S
C1370 C1372 1.388 . S
C1371 C1370 1.366 . S
C1371 C1375 1.385 1_556 S
C1372 H1353 0.951 . S
C1372 C1370 1.388 . S
C1372 C1373 1.366 1_556 S
C1373 C1372 1.366 1_554 S
C1373 C1374 1.414 . S
C1373 C1376 1.499 . S
C1374 H1354 0.950 . S
C1374 C1373 1.414 . S
C1374 C1375 1.374 . S
C1375 H1355 0.950 . S
C1375 C1371 1.385 1_554 S
C1375 C1374 1.374 . S
C1376 C1373 1.499 . S
C1376 C1377 1.373 . S
C1376 C1378 1.389 . S
C1377 H1356 0.950 . S
C1377 C1376 1.373 . S
C1377 C1393 1.377 . S
C1378 C1376 1.389 . S
C1378 C1379 1.524 1_554 S
C1378 C1392 1.377 . S
C1379 C1378 1.524 1_556 S
C1379 C1380 1.397 . S
C1379 C1384 1.363 . S
C1380 H1357 0.950 1_556 S
C1380 C1379 1.397 . S
C1380 C1381 1.334 . S
C1381 H1358 0.950 . S
C1381 C1380 1.334 . S
C1381 C1382 1.287 . S
C1382 C1381 1.287 . S
C1382 C1383 1.524 . S
C1382 H1401 0.913 . S
C1383 H1359 0.950 . S
C1383 C1382 1.524 . S
C1383 C1384 1.415 . S
C1384 H1360 0.950 . S
C1384 C1379 1.363 . S
C1384 C1383 1.415 . S
C1385 H1361 0.951 . S
C1385 C1386 1.366 1_655 S
C1385 C1387 1.388 . S
C1386 C1385 1.366 1_455 S
C1386 C1390 1.385 . S
C1387 H1362 0.951 . S
C1387 C1385 1.388 . S
C1387 C1388 1.366 . S
C1388 C1387 1.366 . S
C1388 C1389 1.414 . S
C1388 C1391 1.499 . S
C1389 H1363 0.950 . S
C1389 C1388 1.414 . S
C1389 C1390 1.374 1_655 S
C1390 H1364 0.950 . S
C1390 C1386 1.385 . S
C1390 C1389 1.374 1_455 S
C1391 C1388 1.499 . S
C1391 C1392 1.373 . S
C1391 C1393 1.389 . S
C1392 H1365 0.950 . S
C1392 C1378 1.377 . S
C1392 C1391 1.373 . S
C1393 C1377 1.377 . S
C1393 C1391 1.389 . S
C1393 C1394 1.524 . S
C1394 C1393 1.524 . S
C1394 C1395 1.397 1_655 S
C1394 C1399 1.363 . S
C1395 H1366 0.950 . S
C1395 C1394 1.397 1_455 S
C1395 C1396 1.334 . S
C1396 H1367 0.950 . S
C1396 C1395 1.334 . S
C1396 C1397 1.287 . S
C1397 C1396 1.287 . S
C1397 C1398 1.524 . S
C1397 H1400 0.999 . S
C1398 H1368 0.950 . S
C1398 C1397 1.524 . S
C1398 C1399 1.415 1_455 S
C1399 H1369 0.950 . S
C1399 C1394 1.363 . S
C1399 C1398 1.415 1_655 S
H1400 C1397 0.999 . S
H1401 C1382 0.913 . S
H1402 C1420 0.951 . S
H1403 C1422 0.951 1_556 S
H1404 C1424 0.950 . S
H1405 C1425 0.950 . S
H1406 C1427 0.950 . S
H1407 C1430 0.950 . S
H1408 C1431 0.950 . S
H1409 C1433 0.950 . S
H1410 C1434 0.950 . S
H1411 C1435 0.951 . S
H1412 C1437 0.951 . S
H1413 C1439 0.950 . S
H1414 C1440 0.950 . S
H1415 C1442 0.950 . S
H1416 C1445 0.950 . S
H1417 C1446 0.950 . S
H1418 C1448 0.950 . S
H1419 C1449 0.950 . S
C1420 H1402 0.951 . S
C1420 C1421 1.366 1_556 S
C1420 C1422 1.388 1_556 S
C1421 C1420 1.366 1_554 S
C1421 C1425 1.385 . S
C1422 H1403 0.951 1_554 S
C1422 C1420 1.388 1_554 S
C1422 C1423 1.366 . S
C1423 C1422 1.366 . S
C1423 C1424 1.414 . S
C1423 C1426 1.499 . S
C1424 H1404 0.950 . S
C1424 C1423 1.414 . S
C1424 C1425 1.374 . S
C1425 H1405 0.950 . S
C1425 C1421 1.385 . S
C1425 C1424 1.374 . S
C1426 C1423 1.499 . S
C1426 C1427 1.373 . S
C1426 C1428 1.389 . S
C1427 H1406 0.950 . S
C1427 C1426 1.373 . S
C1427 C1443 1.377 . S
C1428 C1426 1.389 . S
C1428 C1429 1.524 . S
C1428 C1442 1.377 . S
C1429 C1428 1.524 . S
C1429 C1430 1.397 . S
C1429 C1434 1.363 . S
C1430 H1407 0.950 . S
C1430 C1429 1.397 . S
C1430 C1431 1.334 . S
C1431 H1408 0.950 . S
C1431 C1430 1.334 . S
C1431 C1432 1.287 1_554 S
C1432 C1431 1.287 1_556 S
C1432 C1433 1.524 . S
C1432 H1451 0.913 . S
C1433 H1409 0.950 . S
C1433 C1432 1.524 . S
C1433 C1434 1.415 1_556 S
C1434 H1410 0.950 . S
C1434 C1429 1.363 . S
C1434 C1433 1.415 1_554 S
C1435 H1411 0.951 . S
C1435 C1436 1.366 . S
C1435 C1437 1.388 . S
C1436 C1435 1.366 . S
C1436 C1440 1.385 . S
C1437 H1412 0.951 . S
C1437 C1435 1.388 . S
C1437 C1438 1.366 . S
C1438 C1437 1.366 . S
C1438 C1439 1.414 . S
C1438 C1441 1.499 . S
C1439 H1413 0.950 . S
C1439 C1438 1.414 . S
C1439 C1440 1.374 . S
C1440 H1414 0.950 . S
C1440 C1436 1.385 . S
C1440 C1439 1.374 . S
C1441 C1438 1.499 . S
C1441 C1442 1.373 . S
C1441 C1443 1.389 . S
C1442 H1415 0.950 . S
C1442 C1428 1.377 . S
C1442 C1441 1.373 . S
C1443 C1427 1.377 . S
C1443 C1441 1.389 . S
C1443 C1444 1.524 . S
C1444 C1443 1.524 . S
C1444 C1445 1.397 . S
C1444 C1449 1.363 . S
C1445 H1416 0.950 . S
C1445 C1444 1.397 . S
C1445 C1446 1.334 . S
C1446 H1417 0.950 . S
C1446 C1445 1.334 . S
C1446 C1447 1.287 . S
C1447 C1446 1.287 . S
C1447 C1448 1.524 . S
C1447 H1450 0.999 . S
C1448 H1418 0.950 . S
C1448 C1447 1.524 . S
C1448 C1449 1.415 . S
C1449 H1419 0.950 . S
C1449 C1444 1.363 . S
C1449 C1448 1.415 . S
H1450 C1447 0.999 . S
H1451 C1432 0.913 . S
H1452 C1470 0.951 . S
H1453 C1472 0.951 . S
H1454 C1474 0.950 . S
H1455 C1475 0.950 . S
H1456 C1477 0.950 . S
H1457 C1480 0.950 . S
H1458 C1481 0.950 . S
H1459 C1483 0.950 . S
H1460 C1484 0.950 . S
H1461 C1485 0.951 . S
H1462 C1487 0.951 . S
H1463 C1489 0.950 . S
H1464 C1490 0.929 1_455 S
H1465 C1492 0.950 . S
H1466 C1495 0.950 . S
H1467 C1496 0.950 . S
H1468 C1498 0.950 . S
H1469 C1499 0.950 . S
C1470 H1452 0.951 . S
C1470 C1471 1.366 . S
C1470 C1472 1.388 . S
C1471 C1470 1.366 . S
C1471 C1475 1.385 . S
C1472 H1453 0.951 . S
C1472 C1470 1.388 . S
C1472 C1473 1.366 . S
C1473 C1472 1.366 . S
C1473 C1474 1.414 . S
C1473 C1476 1.499 . S
C1474 H1454 0.950 . S
C1474 C1473 1.414 . S
C1474 C1475 1.374 . S
C1475 H1455 0.950 . S
C1475 C1471 1.385 . S
C1475 C1474 1.374 . S
C1476 C1473 1.499 . S
C1476 C1477 1.373 . S
C1476 C1478 1.389 . S
C1477 H1456 0.950 . S
C1477 C1476 1.373 . S
C1477 C1493 1.377 . S
C1478 C1476 1.389 . S
C1478 C1479 1.524 . S
C1478 C1492 1.377 . S
C1479 C1478 1.524 . S
C1479 C1480 1.397 . S
C1479 C1484 1.363 . S
C1480 H1457 0.950 . S
C1480 C1479 1.397 . S
C1480 C1481 1.334 . S
C1481 H1458 0.950 . S
C1481 C1480 1.334 . S
C1481 C1482 1.287 . S
C1482 C1481 1.287 . S
C1482 C1483 1.524 . S
C1482 H1501 0.913 . S
C1483 H1459 0.950 . S
C1483 C1482 1.524 . S
C1483 C1484 1.415 . S
C1484 H1460 0.950 . S
C1484 C1479 1.363 . S
C1484 C1483 1.415 . S
C1485 H1461 0.951 . S
C1485 C1486 1.366 . S
C1485 C1487 1.388 . S
C1486 C1485 1.366 . S
C1486 C1490 1.385 . S
C1487 H1462 0.951 . S
C1487 C1485 1.388 . S
C1487 C1488 1.366 . S
C1488 C1487 1.366 . S
C1488 C1489 1.414 . S
C1488 C1491 1.499 . S
C1489 H1463 0.950 . S
C1489 C1488 1.414 . S
C1489 C1490 1.374 . S
C1490 H1464 0.929 1_655 S
C1490 C1486 1.385 . S
C1490 C1489 1.374 . S
C1491 C1488 1.499 . S
C1491 C1492 1.373 . S
C1491 C1493 1.389 . S
C1492 H1465 0.950 . S
C1492 C1478 1.377 . S
C1492 C1491 1.373 . S
C1493 C1477 1.377 . S
C1493 C1491 1.389 . S
C1493 C1494 1.524 . S
C1494 C1493 1.524 . S
C1494 C1495 1.397 . S
C1494 C1499 1.363 . S
C1495 H1466 0.950 . S
C1495 C1494 1.397 . S
C1495 C1496 1.334 . S
C1496 H1467 0.950 . S
C1496 C1495 1.334 . S
C1496 C1497 1.287 . S
C1497 C1496 1.287 . S
C1497 C1498 1.524 . S
C1497 H1500 0.999 . S
C1498 H1468 0.950 . S
C1498 C1497 1.524 . S
C1498 C1499 1.415 . S
C1499 H1469 0.950 . S
C1499 C1494 1.363 . S
C1499 C1498 1.415 . S
H1500 C1497 0.999 . S
H1501 C1482 0.913 . S
H1502 C1520 0.951 . S
H1503 C1522 0.951 . S
H1504 C1524 0.950 . S
H1505 C1525 0.950 . S
H1506 C1527 0.950 . S
H1507 C1530 0.950 . S
H1508 C1531 0.950 . S
H1509 C1533 0.950 . S
H1510 C1534 0.950 . S
H1511 C1535 0.951 . S
H1512 C1537 0.951 . S
H1513 C1539 0.950 . S
H1514 C1540 0.950 . S
H1515 C1542 0.950 . S
H1516 C1545 0.950 . S
H1517 C1546 0.950 . S
H1518 C1548 0.950 . S
H1519 C1549 0.950 . S
C1520 H1502 0.951 . S
C1520 C1521 1.366 . S
C1520 C1522 1.388 . S
C1521 C1520 1.366 . S
C1521 C1525 1.385 . S
C1522 H1503 0.951 . S
C1522 C1520 1.388 . S
C1522 C1523 1.366 . S
C1523 C1522 1.366 . S
C1523 C1524 1.414 . S
C1523 C1526 1.499 . S
C1524 H1504 0.950 . S
C1524 C1523 1.414 . S
C1524 C1525 1.374 . S
C1525 H1505 0.950 . S
C1525 C1521 1.385 . S
C1525 C1524 1.374 . S
C1526 C1523 1.499 . S
C1526 C1527 1.373 . S
C1526 C1528 1.389 . S
C1527 H1506 0.950 . S
C1527 C1526 1.373 . S
C1527 C1543 1.377 . S
C1528 C1526 1.389 . S
C1528 C1529 1.524 . S
C1528 C1542 1.377 . S
C1529 C1528 1.524 . S
C1529 C1530 1.397 . S
C1529 C1534 1.363 . S
C1530 H1507 0.950 . S
C1530 C1529 1.397 . S
C1530 C1531 1.334 . S
C1531 H1508 0.950 . S
C1531 C1530 1.334 . S
C1531 C1532 1.287 . S
C1532 C1531 1.287 . S
C1532 C1533 1.524 . S
C1532 H1551 0.913 . S
C1533 H1509 0.950 . S
C1533 C1532 1.524 . S
C1533 C1534 1.415 . S
C1534 H1510 0.950 . S
C1534 C1529 1.363 . S
C1534 C1533 1.415 . S
C1535 H1511 0.951 . S
C1535 C1536 1.366 . S
C1535 C1537 1.388 . S
C1536 C1535 1.366 . S
C1536 C1540 1.385 . S
C1537 H1512 0.951 . S
C1537 C1535 1.388 . S
C1537 C1538 1.366 . S
C1538 C1537 1.366 . S
C1538 C1539 1.414 . S
C1538 C1541 1.499 . S
C1539 H1513 0.950 . S
C1539 C1538 1.414 . S
C1539 C1540 1.374 . S
C1540 H1514 0.950 . S
C1540 C1536 1.385 . S
C1540 C1539 1.374 . S
C1541 C1538 1.499 . S
C1541 C1542 1.373 . S
C1541 C1543 1.389 . S
C1542 H1515 0.950 . S
C1542 C1528 1.377 . S
C1542 C1541 1.373 . S
C1543 C1527 1.377 . S
C1543 C1541 1.389 . S
C1543 C1544 1.524 . S
C1544 C1543 1.524 . S
C1544 C1545 1.397 . S
C1544 C1549 1.363 . S
C1545 H1516 0.950 . S
C1545 C1544 1.397 . S
C1545 C1546 1.334 . S
C1546 H1517 0.950 . S
C1546 C1545 1.334 . S
C1546 C1547 1.287 . S
C1547 C1546 1.287 . S
C1547 C1548 1.524 . S
C1547 H1550 0.999 . S
C1548 H1518 0.950 . S
C1548 C1547 1.524 . S
C1548 C1549 1.415 . S
C1549 H1519 0.950 . S
C1549 C1544 1.363 . S
C1549 C1548 1.415 . S
H1550 C1547 0.999 . S
H1551 C1532 0.913 . S
H1552 C1570 0.951 . S
H1553 C1572 0.951 . S
H1554 C1574 0.950 . S
H1555 C1575 0.950 . S
H1556 C1577 0.950 . S
H1557 C1580 0.950 . S
H1558 C1581 0.950 . S
H1559 C1583 0.950 . S
H1560 C1584 0.950 . S
H1561 C1585 0.951 . S
H1562 C1587 0.951 . S
H1563 C1589 0.950 . S
H1564 C1590 0.950 . S
H1565 C1592 0.950 . S
H1566 C1595 0.950 . S
H1567 C1596 0.950 . S
H1568 C1598 0.950 . S
H1569 C1599 0.950 . S
C1570 H1552 0.951 . S
C1570 C1571 1.366 . S
C1570 C1572 1.388 . S
C1571 C1570 1.366 . S
C1571 C1575 1.385 . S
C1572 H1553 0.951 . S
C1572 C1570 1.388 . S
C1572 C1573 1.366 . S
C1573 C1572 1.366 . S
C1573 C1574 1.414 . S
C1573 C1576 1.499 . S
C1574 H1554 0.950 . S
C1574 C1573 1.414 . S
C1574 C1575 1.374 . S
C1575 H1555 0.950 . S
C1575 C1571 1.385 . S
C1575 C1574 1.374 . S
C1576 C1573 1.499 . S
C1576 C1577 1.373 . S
C1576 C1578 1.389 . S
C1577 H1556 0.950 . S
C1577 C1576 1.373 . S
C1577 C1593 1.377 . S
C1578 C1576 1.389 . S
C1578 C1579 1.524 . S
C1578 C1592 1.377 . S
C1579 C1578 1.524 . S
C1579 C1580 1.397 . S
C1579 C1584 1.363 . S
C1580 H1557 0.950 . S
C1580 C1579 1.397 . S
C1580 C1581 1.334 . S
C1581 H1558 0.950 . S
C1581 C1580 1.334 . S
C1581 C1582 1.287 . S
C1582 C1581 1.287 . S
C1582 C1583 1.524 . S
C1582 H1601 0.913 . S
C1583 H1559 0.950 . S
C1583 C1582 1.524 . S
C1583 C1584 1.415 . S
C1584 H1560 0.950 . S
C1584 C1579 1.363 . S
C1584 C1583 1.415 . S
C1585 H1561 0.951 . S
C1585 C1586 1.366 . S
C1585 C1587 1.388 . S
C1586 C1585 1.366 . S
C1586 C1590 1.385 . S
C1587 H1562 0.951 . S
C1587 C1585 1.388 . S
C1587 C1588 1.366 . S
C1588 C1587 1.366 . S
C1588 C1589 1.414 . S
C1588 C1591 1.499 . S
C1589 H1563 0.950 . S
C1589 C1588 1.414 . S
C1589 C1590 1.374 . S
C1590 H1564 0.950 . S
C1590 C1586 1.385 . S
C1590 C1589 1.374 . S
C1591 C1588 1.499 . S
C1591 C1592 1.373 . S
C1591 C1593 1.389 . S
C1592 H1565 0.950 . S
C1592 C1578 1.377 . S
C1592 C1591 1.373 . S
C1593 C1577 1.377 . S
C1593 C1591 1.389 . S
C1593 C1594 1.524 . S
C1594 C1593 1.524 . S
C1594 C1595 1.397 . S
C1594 C1599 1.363 . S
C1595 H1566 0.950 . S
C1595 C1594 1.397 . S
C1595 C1596 1.334 . S
C1596 H1567 0.950 . S
C1596 C1595 1.334 . S
C1596 C1597 1.287 . S
C1597 C1596 1.287 . S
C1597 C1598 1.524 . S
C1597 H1600 0.999 . S
C1598 H1568 0.950 . S
C1598 C1597 1.524 . S
C1598 C1599 1.415 . S
C1599 H1569 0.950 . S
C1599 C1594 1.363 . S
C1599 C1598 1.415 . S
H1600 C1597 0.999 . S
H1601 C1582 0.913 . S
H1602 C1620 0.951 . S
H1603 C1622 0.951 . S
H1604 C1624 0.950 . S
H1605 C1625 0.950 . S
H1606 C1627 0.950 . S
H1607 C1630 0.950 . S
H1608 C1631 0.950 . S
H1609 C1633 0.950 . S
H1610 C1634 0.950 . S
H1611 C1635 0.992 . S
H1612 C1637 0.951 . S
H1613 C1639 0.950 . S
H1614 C1640 0.950 . S
H1615 C1642 0.950 1_545 S
H1616 C1645 0.950 . S
H1617 C1646 0.950 . S
H1618 C1648 0.950 . S
H1619 C1649 0.950 . S
C1620 H1602 0.951 . S
C1620 C1621 1.366 . S
C1620 C1622 1.388 . S
C1621 C1620 1.366 . S
C1621 C1625 1.385 1_554 S
C1622 H1603 0.951 . S
C1622 C1620 1.388 . S
C1622 C1623 1.366 1_554 S
C1623 C1622 1.366 1_556 S
C1623 C1624 1.414 . S
C1623 C1626 1.499 . S
C1624 H1604 0.950 . S
C1624 C1623 1.414 . S
C1624 C1625 1.374 . S
C1625 H1605 0.950 . S
C1625 C1621 1.385 1_556 S
C1625 C1624 1.374 . S
C1626 C1623 1.499 . S
C1626 C1627 1.373 . S
C1626 C1628 1.389 . S
C1627 H1606 0.950 . S
C1627 C1626 1.373 . S
C1627 C1643 1.377 . S
C1628 C1626 1.389 . S
C1628 C1629 1.524 . S
C1628 C1642 1.377 . S
C1629 C1628 1.524 . S
C1629 C1630 1.397 . S
C1629 C1634 1.363 1_565 S
C1630 H1607 0.950 . S
C1630 C1629 1.397 . S
C1630 C1631 1.334 . S
C1631 H1608 0.950 . S
C1631 C1630 1.334 . S
C1631 C1632 1.287 . S
C1632 C1631 1.287 . S
C1632 C1633 1.524 1_565 S
C1632 H1651 0.913 . S
C1633 H1609 0.950 . S
C1633 C1632 1.524 1_545 S
C1633 C1634 1.415 . S
C1634 H1610 0.950 . S
C1634 C1629 1.363 1_545 S
C1634 C1633 1.415 . S
C1635 H1611 0.992 . S
C1635 C1636 1.366 . S
C1635 C1637 1.388 1_545 S
C1636 C1635 1.366 . S
C1636 C1640 1.385 . S
C1637 H1612 0.951 . S
C1637 C1635 1.388 1_565 S
C1637 C1638 1.366 . S
C1638 C1637 1.366 . S
C1638 C1639 1.414 1_565 S
C1638 C1641 1.499 . S
C1639 H1613 0.950 . S
C1639 C1638 1.414 1_545 S
C1639 C1640 1.374 . S
C1640 H1614 0.950 . S
C1640 C1636 1.385 . S
C1640 C1639 1.374 . S
C1641 C1638 1.499 . S
C1641 C1642 1.373 . S
C1641 C1643 1.389 . S
C1642 H1615 0.950 1_565 S
C1642 C1628 1.377 . S
C1642 C1641 1.373 . S
C1643 C1627 1.377 . S
C1643 C1641 1.389 . S
C1643 C1644 1.524 . S
C1644 C1643 1.524 . S
C1644 C1645 1.397 . S
C1644 C1649 1.363 . S
C1645 H1616 0.950 . S
C1645 C1644 1.397 . S
C1645 C1646 1.334 . S
C1646 H1617 0.950 . S
C1646 C1645 1.334 . S
C1646 C1647 1.287 . S
C1647 C1646 1.287 . S
C1647 C1648 1.524 . S
C1647 H1650 0.999 . S
C1648 H1618 0.950 . S
C1648 C1647 1.524 . S
C1648 C1649 1.415 . S
C1649 H1619 0.950 . S
C1649 C1644 1.363 . S
C1649 C1648 1.415 . S
H1650 C1647 0.999 . S
H1651 C1632 0.913 . S
H1652 C1670 0.951 . S
H1653 C1672 0.951 . S
H1654 C1674 0.950 . S
H1655 C1675 0.950 . S
H1656 C1677 0.950 . S
H1657 C1680 0.950 . S
H1658 C1681 0.950 . S
H1659 C1683 0.950 . S
H1660 C1684 0.950 . S
H1661 C1685 0.951 . S
H1662 C1687 0.951 . S
H1663 C1689 0.950 . S
H1664 C1690 0.950 . S
H1665 C1692 0.950 . S
H1666 C1695 0.950 . S
H1667 C1696 0.950 . S
H1668 C1698 0.950 . S
H1669 C1699 0.950 . S
C1670 H1652 0.951 . S
C1670 C1671 1.366 . S
C1670 C1672 1.388 . S
C1671 C1670 1.366 . S
C1671 C1675 1.385 . S
C1672 H1653 0.951 . S
C1672 C1670 1.388 . S
C1672 C1673 1.366 . S
C1673 C1672 1.366 . S
C1673 C1674 1.414 . S
C1673 C1676 1.499 . S
C1674 H1654 0.950 . S
C1674 C1673 1.414 . S
C1674 C1675 1.374 . S
C1675 H1655 0.950 . S
C1675 C1671 1.385 . S
C1675 C1674 1.374 . S
C1676 C1673 1.499 . S
C1676 C1677 1.373 . S
C1676 C1678 1.389 . S
C1677 H1656 0.950 . S
C1677 C1676 1.373 . S
C1677 C1693 1.377 . S
C1678 C1676 1.389 . S
C1678 C1679 1.524 . S
C1678 C1692 1.377 . S
C1679 C1678 1.524 . S
C1679 C1680 1.397 . S
C1679 C1684 1.363 . S
C1680 H1657 0.950 . S
C1680 C1679 1.397 . S
C1680 C1681 1.334 . S
C1681 H1658 0.950 . S
C1681 C1680 1.334 . S
C1681 C1682 1.287 . S
C1682 C1681 1.287 . S
C1682 C1683 1.524 . S
C1682 H1701 0.913 . S
C1683 H1659 0.950 . S
C1683 C1682 1.524 . S
C1683 C1684 1.415 . S
C1684 H1660 0.950 . S
C1684 C1679 1.363 . S
C1684 C1683 1.415 . S
C1685 H1661 0.951 . S
C1685 C1686 1.366 . S
C1685 C1687 1.388 1_554 S
C1686 C1685 1.366 . S
C1686 C1690 1.385 1_554 S
C1687 H1662 0.951 . S
C1687 C1685 1.388 1_556 S
C1687 C1688 1.366 . S
C1688 C1687 1.366 . S
C1688 C1689 1.414 . S
C1688 C1691 1.499 . S
C1689 H1663 0.950 . S
C1689 C1688 1.414 . S
C1689 C1690 1.374 . S
C1690 H1664 0.950 . S
C1690 C1686 1.385 1_556 S
C1690 C1689 1.374 . S
C1691 C1688 1.499 . S
C1691 C1692 1.373 . S
C1691 C1693 1.389 . S
C1692 H1665 0.950 . S
C1692 C1678 1.377 . S
C1692 C1691 1.373 . S
C1693 C1677 1.377 . S
C1693 C1691 1.389 . S
C1693 C1694 1.548 . S
C1694 C1693 1.548 . S
C1694 C1695 1.388 1_556 S
C1694 C1699 1.349 1_556 S
C1695 H1666 0.950 . S
C1695 C1694 1.388 1_554 S
C1695 C1696 1.334 . S
C1696 H1667 0.950 . S
C1696 C1695 1.334 . S
C1696 C1697 1.287 . S
C1697 C1696 1.287 . S
C1697 C1698 1.524 . S
C1697 H1700 0.999 . S
C1698 H1668 0.950 . S
C1698 C1697 1.524 . S
C1698 C1699 1.415 . S
C1699 H1669 0.950 . S
C1699 C1694 1.349 1_554 S
C1699 C1698 1.415 . S
H1700 C1697 0.999 . S
H1701 C1682 0.913 . S
H1702 C1720 0.951 . S
H1703 C1722 0.951 . S
H1704 C1724 0.950 . S
H1705 C1725 0.950 . S
H1706 C1727 0.950 . S
H1707 C1730 0.950 . S
H1708 C1731 0.950 . S
H1709 C1733 0.950 . S
H1710 C1734 0.950 . S
H1711 C1735 0.951 . S
H1712 C1737 0.951 . S
H1713 C1739 0.950 . S
H1714 C1740 0.950 . S
H1715 C1742 0.950 . S
H1716 C1745 0.950 . S
H1717 C1746 0.950 . S
H1718 C1748 0.950 . S
H1719 C1749 0.950 . S
C1720 H1702 0.951 . S
C1720 C1721 1.366 . S
C1720 C1722 1.388 . S
C1721 C1720 1.366 . S
C1721 C1725 1.385 . S
C1722 H1703 0.951 . S
C1722 C1720 1.388 . S
C1722 C1723 1.366 . S
C1723 C1722 1.366 . S
C1723 C1724 1.414 . S
C1723 C1726 1.499 . S
C1724 H1704 0.950 . S
C1724 C1723 1.414 . S
C1724 C1725 1.374 . S
C1725 H1705 0.950 . S
C1725 C1721 1.385 . S
C1725 C1724 1.374 . S
C1726 C1723 1.499 . S
C1726 C1727 1.373 . S
C1726 C1728 1.389 . S
C1727 H1706 0.950 . S
C1727 C1726 1.373 . S
C1727 C1743 1.377 . S
C1728 C1726 1.389 . S
C1728 C1729 1.524 . S
C1728 C1742 1.377 . S
C1729 C1728 1.524 . S
C1729 C1730 1.397 . S
C1729 C1734 1.363 . S
C1730 H1707 0.950 . S
C1730 C1729 1.397 . S
C1730 C1731 1.334 . S
C1731 H1708 0.950 . S
C1731 C1730 1.334 . S
C1731 C1732 1.287 . S
C1732 C1731 1.287 . S
C1732 C1733 1.524 . S
C1732 H1751 0.913 . S
C1733 H1709 0.950 . S
C1733 C1732 1.524 . S
C1733 C1734 1.415 . S
C1734 H1710 0.950 . S
C1734 C1729 1.363 . S
C1734 C1733 1.415 . S
C1735 H1711 0.951 . S
C1735 C1736 1.366 1_556 S
C1735 C1737 1.388 . S
C1736 C1735 1.366 1_554 S
C1736 C1740 1.385 . S
C1737 H1712 0.951 . S
C1737 C1735 1.388 . S
C1737 C1738 1.366 . S
C1738 C1737 1.366 . S
C1738 C1739 1.414 . S
C1738 C1741 1.499 . S
C1739 H1713 0.950 . S
C1739 C1738 1.414 . S
C1739 C1740 1.374 1_556 S
C1740 H1714 0.950 . S
C1740 C1736 1.385 . S
C1740 C1739 1.374 1_554 S
C1741 C1738 1.499 . S
C1741 C1742 1.373 . S
C1741 C1743 1.389 . S
C1742 H1715 0.950 . S
C1742 C1728 1.377 . S
C1742 C1741 1.373 . S
C1743 C1727 1.377 . S
C1743 C1741 1.389 . S
C1743 C1744 1.524 . S
C1744 C1743 1.524 . S
C1744 C1745 1.397 1_556 S
C1744 C1749 1.363 . S
C1745 H1716 0.950 . S
C1745 C1744 1.397 1_554 S
C1745 C1746 1.334 . S
C1746 H1717 0.950 . S
C1746 C1745 1.334 . S
C1746 C1747 1.287 . S
C1747 C1746 1.287 . S
C1747 C1748 1.524 1_554 S
C1747 H1750 0.999 . S
C1748 H1718 0.950 . S
C1748 C1747 1.524 1_556 S
C1748 C1749 1.415 . S
C1749 H1719 0.950 . S
C1749 C1744 1.363 . S
C1749 C1748 1.415 . S
H1750 C1747 0.999 . S
H1751 C1732 0.913 . S
H1752 C1770 0.951 . S
H1753 C1772 0.951 . S
H1754 C1774 0.950 . S
H1755 C1775 0.950 . S
H1756 C1777 0.950 . S
H1757 C1780 0.950 . S
H1758 C1781 0.950 . S
H1759 C1783 0.950 . S
H1760 C1784 0.950 . S
H1761 C1785 0.951 . S
H1762 C1787 0.951 . S
H1763 C1789 0.953 . S
H1764 C1790 0.950 . S
H1765 C1792 0.950 . S
H1766 C1795 0.950 1_565 S
H1767 C1796 0.950 . S
H1768 C1798 0.950 . S
H1769 C1799 0.948 . S
C1770 H1752 0.951 . S
C1770 C1771 1.366 . S
C1770 C1772 1.388 . S
C1771 C1770 1.366 . S
C1771 C1775 1.385 . S
C1772 H1753 0.951 . S
C1772 C1770 1.388 . S
C1772 C1773 1.366 . S
C1773 C1772 1.366 . S
C1773 C1774 1.414 . S
C1773 C1776 1.499 . S
C1774 H1754 0.950 . S
C1774 C1773 1.414 . S
C1774 C1775 1.374 . S
C1775 H1755 0.950 . S
C1775 C1771 1.385 . S
C1775 C1774 1.374 . S
C1776 C1773 1.499 . S
C1776 C1777 1.373 . S
C1776 C1778 1.389 . S
C1777 H1756 0.950 . S
C1777 C1776 1.373 . S
C1777 C1793 1.377 . S
C1778 C1776 1.389 . S
C1778 C1779 1.524 . S
C1778 C1792 1.377 . S
C1779 C1778 1.524 . S
C1779 C1780 1.397 . S
C1779 C1784 1.363 . S
C1780 H1757 0.950 . S
C1780 C1779 1.397 . S
C1780 C1781 1.334 . S
C1781 H1758 0.950 . S
C1781 C1780 1.334 . S
C1781 C1782 1.287 . S
C1782 C1781 1.287 . S
C1782 C1783 1.524 . S
C1782 H1801 0.913 . S
C1783 H1759 0.950 . S
C1783 C1782 1.524 . S
C1783 C1784 1.415 . S
C1784 H1760 0.950 . S
C1784 C1779 1.363 . S
C1784 C1783 1.415 . S
C1785 H1761 0.951 . S
C1785 C1786 1.366 . S
C1785 C1787 1.388 . S
C1786 C1785 1.366 . S
C1786 C1790 1.385 . S
C1787 H1762 0.951 . S
C1787 C1785 1.388 . S
C1787 C1788 1.366 . S
C1788 C1787 1.366 . S
C1788 C1789 1.414 . S
C1788 C1791 1.499 1_545 S
C1789 H1763 0.953 . S
C1789 C1788 1.414 . S
C1789 C1790 1.374 . S
C1790 H1764 0.950 . S
C1790 C1786 1.385 . S
C1790 C1789 1.374 . S
C1791 C1788 1.499 1_565 S
C1791 C1792 1.373 . S
C1791 C1793 1.389 . S
C1792 H1765 0.950 . S
C1792 C1778 1.377 . S
C1792 C1791 1.373 . S
C1793 C1777 1.377 . S
C1793 C1791 1.389 . S
C1793 C1794 1.521 . S
C1794 C1793 1.521 . S
C1794 C1795 1.410 1_565 S
C1794 C1799 1.366 1_565 S
C1795 H1766 0.950 1_545 S
C1795 C1794 1.410 1_545 S
C1795 C1796 1.334 . S
C1796 H1767 0.950 . S
C1796 C1795 1.334 . S
C1796 C1797 1.287 . S
C1797 C1796 1.287 . S
C1797 C1798 1.524 . S
C1797 H1800 0.999 . S
C1798 H1768 0.950 . S
C1798 C1797 1.524 . S
C1798 C1799 1.415 . S
C1799 H1769 0.948 . S
C1799 C1794 1.366 1_545 S
C1799 C1798 1.415 . S
H1800 C1797 0.999 . S
H1801 C1782 0.913 . S
H1802 C1820 0.951 . S
H1803 C1822 0.951 . S
H1804 C1824 0.950 . S
H1805 C1825 0.950 . S
H1806 C1827 0.950 . S
H1807 C1830 0.950 . S
H1808 C1831 0.950 . S
H1809 C1833 0.950 . S
H1810 C1834 0.950 . S
H1811 C1835 0.951 . S
H1812 C1837 0.951 . S
H1813 C1839 0.985 . S
H1814 C1840 0.950 . S
H1815 C1842 0.950 . S
H1816 C1845 0.950 . S
H1817 C1846 0.950 . S
H1818 C1848 0.950 . S
H1819 C1849 0.950 . S
C1820 H1802 0.951 . S
C1820 C1821 1.366 . S
C1820 C1822 1.388 . S
C1821 C1820 1.366 . S
C1821 C1825 1.385 . S
C1822 H1803 0.951 . S
C1822 C1820 1.388 . S
C1822 C1823 1.366 . S
C1823 C1822 1.366 . S
C1823 C1824 1.414 . S
C1823 C1826 1.499 . S
C1824 H1804 0.950 . S
C1824 C1823 1.414 . S
C1824 C1825 1.374 . S
C1825 H1805 0.950 . S
C1825 C1821 1.385 . S
C1825 C1824 1.374 . S
C1826 C1823 1.499 . S
C1826 C1827 1.373 . S
C1826 C1828 1.389 . S
C1827 H1806 0.950 . S
C1827 C1826 1.373 . S
C1827 C1843 1.377 . S
C1828 C1826 1.389 . S
C1828 C1829 1.524 . S
C1828 C1842 1.377 . S
C1829 C1828 1.524 . S
C1829 C1830 1.397 . S
C1829 C1834 1.363 . S
C1830 H1807 0.950 . S
C1830 C1829 1.397 . S
C1830 C1831 1.334 . S
C1831 H1808 0.950 . S
C1831 C1830 1.334 . S
C1831 C1832 1.287 . S
C1832 C1831 1.287 . S
C1832 C1833 1.524 . S
C1832 H1851 0.913 . S
C1833 H1809 0.950 . S
C1833 C1832 1.524 . S
C1833 C1834 1.415 . S
C1834 H1810 0.950 . S
C1834 C1829 1.363 . S
C1834 C1833 1.415 . S
C1835 H1811 0.951 . S
C1835 C1836 1.366 . S
C1835 C1837 1.388 1_655 S
C1836 C1835 1.366 . S
C1836 C1840 1.385 . S
C1837 H1812 0.951 . S
C1837 C1835 1.388 1_455 S
C1837 C1838 1.366 . S
C1838 C1837 1.366 . S
C1838 C1839 1.412 . S
C1838 C1841 1.499 . S
C1839 H1813 0.985 . S
C1839 C1838 1.412 . S
C1839 C1840 1.341 1_455 S
C1840 H1814 0.950 . S
C1840 C1836 1.385 . S
C1840 C1839 1.341 1_655 S
C1841 C1838 1.499 . S
C1841 C1842 1.373 . S
C1841 C1843 1.389 . S
C1842 H1815 0.950 . S
C1842 C1828 1.377 . S
C1842 C1841 1.373 . S
C1843 C1827 1.377 . S
C1843 C1841 1.389 . S
C1843 C1844 1.524 . S
C1844 C1843 1.524 . S
C1844 C1845 1.397 . S
C1844 C1849 1.363 . S
C1845 H1816 0.950 . S
C1845 C1844 1.397 . S
C1845 C1846 1.334 . S
C1846 H1817 0.950 . S
C1846 C1845 1.334 . S
C1846 C1847 1.287 . S
C1847 C1846 1.287 . S
C1847 C1848 1.524 . S
C1847 H1850 0.999 . S
C1848 H1818 0.950 . S
C1848 C1847 1.524 . S
C1848 C1849 1.415 . S
C1849 H1819 0.950 . S
C1849 C1844 1.363 . S
C1849 C1848 1.415 . S
H1850 C1847 0.999 . S
H1851 C1832 0.913 . S
H1852 C1870 0.951 . S
H1853 C1872 0.951 . S
H1854 C1874 0.950 . S
H1855 C1875 0.950 . S
H1856 C1877 0.950 . S
H1857 C1880 0.950 . S
H1858 C1881 0.950 . S
H1859 C1883 0.950 . S
H1860 C1884 0.950 . S
H1861 C1885 0.951 . S
H1862 C1887 0.951 . S
H1863 C1889 0.950 . S
H1864 C1890 0.950 . S
H1865 C1892 0.950 . S
H1866 C1895 0.950 . S
H1867 C1896 0.950 . S
H1868 C1898 0.950 . S
H1869 C1899 0.950 . S
C1870 H1852 0.951 . S
C1870 C1871 1.366 . S
C1870 C1872 1.388 . S
C1871 C1870 1.366 . S
C1871 C1875 1.385 . S
C1872 H1853 0.951 . S
C1872 C1870 1.388 . S
C1872 C1873 1.366 . S
C1873 C1872 1.366 . S
C1873 C1874 1.414 . S
C1873 C1876 1.499 . S
C1874 H1854 0.950 . S
C1874 C1873 1.414 . S
C1874 C1875 1.374 . S
C1875 H1855 0.950 . S
C1875 C1871 1.385 . S
C1875 C1874 1.374 . S
C1876 C1873 1.499 . S
C1876 C1877 1.373 . S
C1876 C1878 1.389 . S
C1877 H1856 0.950 . S
C1877 C1876 1.373 . S
C1877 C1893 1.377 . S
C1878 C1876 1.389 . S
C1878 C1879 1.524 . S
C1878 C1892 1.377 . S
C1879 C1878 1.524 . S
C1879 C1880 1.397 . S
C1879 C1884 1.363 . S
C1880 H1857 0.950 . S
C1880 C1879 1.397 . S
C1880 C1881 1.334 . S
C1881 H1858 0.950 . S
C1881 C1880 1.334 . S
C1881 C1882 1.287 . S
C1882 C1881 1.287 . S
C1882 C1883 1.524 . S
C1882 H1901 0.913 . S
C1883 H1859 0.950 . S
C1883 C1882 1.524 . S
C1883 C1884 1.415 . S
C1884 H1860 0.950 . S
C1884 C1879 1.363 . S
C1884 C1883 1.415 . S
C1885 H1861 0.951 . S
C1885 C1886 1.366 . S
C1885 C1887 1.388 . S
C1886 C1885 1.366 . S
C1886 C1890 1.385 . S
C1887 H1862 0.951 . S
C1887 C1885 1.388 . S
C1887 C1888 1.366 . S
C1888 C1887 1.366 . S
C1888 C1889 1.414 . S
C1888 C1891 1.499 . S
C1889 H1863 0.950 . S
C1889 C1888 1.414 . S
C1889 C1890 1.374 . S
C1890 H1864 0.950 . S
C1890 C1886 1.385 . S
C1890 C1889 1.374 . S
C1891 C1888 1.499 . S
C1891 C1892 1.373 . S
C1891 C1893 1.389 . S
C1892 H1865 0.950 . S
C1892 C1878 1.377 . S
C1892 C1891 1.373 . S
C1893 C1877 1.377 . S
C1893 C1891 1.389 . S
C1893 C1894 1.524 . S
C1894 C1893 1.524 . S
C1894 C1895 1.397 . S
C1894 C1899 1.363 . S
C1895 H1866 0.950 . S
C1895 C1894 1.397 . S
C1895 C1896 1.334 . S
C1896 H1867 0.950 . S
C1896 C1895 1.334 . S
C1896 C1897 1.287 . S
C1897 C1896 1.287 . S
C1897 C1898 1.524 . S
C1897 H1900 0.999 . S
C1898 H1868 0.950 . S
C1898 C1897 1.524 . S
C1898 C1899 1.415 . S
C1899 H1869 0.950 . S
C1899 C1894 1.363 . S
C1899 C1898 1.415 . S
H1900 C1897 0.999 . S
H1901 C1882 0.913 . S
H1902 C1920 0.951 . S
H1903 C1922 0.951 . S
H1904 C1924 0.950 . S
H1905 C1925 0.950 . S
H1906 C1927 0.950 1_655 S
H1907 C1930 0.950 . S
H1908 C1931 0.950 . S
H1909 C1933 0.950 . S
H1910 C1934 0.950 . S
H1911 C1935 0.951 . S
H1912 C1937 0.951 . S
H1913 C1939 0.950 . S
H1914 C1940 0.950 . S
H1915 C1942 0.950 . S
H1916 C1945 0.950 . S
H1917 C1946 0.950 . S
H1918 C1948 0.950 1_655 S
H1919 C1949 0.950 . S
C1920 H1902 0.951 . S
C1920 C1921 1.366 . S
C1920 C1922 1.388 . S
C1921 C1920 1.366 . S
C1921 C1925 1.385 . S
C1922 H1903 0.951 . S
C1922 C1920 1.388 . S
C1922 C1923 1.366 . S
C1923 C1922 1.366 . S
C1923 C1924 1.414 . S
C1923 C1926 1.499 1_655 S
C1924 H1904 0.950 . S
C1924 C1923 1.414 . S
C1924 C1925 1.374 . S
C1925 H1905 0.950 . S
C1925 C1921 1.385 . S
C1925 C1924 1.374 . S
C1926 C1923 1.499 1_455 S
C1926 C1927 1.373 . S
C1926 C1928 1.389 . S
C1927 H1906 0.950 1_455 S
C1927 C1926 1.373 . S
C1927 C1943 1.377 . S
C1928 C1926 1.389 . S
C1928 C1929 1.524 . S
C1928 C1942 1.377 . S
C1929 C1928 1.524 . S
C1929 C1930 1.397 . S
C1929 C1934 1.363 . S
C1930 H1907 0.950 . S
C1930 C1929 1.397 . S
C1930 C1931 1.334 . S
C1931 H1908 0.950 . S
C1931 C1930 1.334 . S
C1931 C1932 1.287 . S
C1932 C1931 1.287 . S
C1932 C1933 1.524 . S
C1932 H1951 0.913 . S
C1933 H1909 0.950 . S
C1933 C1932 1.524 . S
C1933 C1934 1.415 . S
C1934 H1910 0.950 . S
C1934 C1929 1.363 . S
C1934 C1933 1.415 . S
C1935 H1911 0.951 . S
C1935 C1936 1.366 . S
C1935 C1937 1.388 . S
C1936 C1935 1.366 . S
C1936 C1940 1.385 . S
C1937 H1912 0.951 . S
C1937 C1935 1.388 . S
C1937 C1938 1.366 . S
C1938 C1937 1.366 . S
C1938 C1939 1.414 . S
C1938 C1941 1.499 . S
C1939 H1913 0.950 . S
C1939 C1938 1.414 . S
C1939 C1940 1.374 . S
C1940 H1914 0.950 . S
C1940 C1936 1.385 . S
C1940 C1939 1.374 . S
C1941 C1938 1.499 . S
C1941 C1942 1.373 . S
C1941 C1943 1.389 . S
C1942 H1915 0.950 . S
C1942 C1928 1.377 . S
C1942 C1941 1.373 . S
C1943 C1927 1.377 . S
C1943 C1941 1.389 . S
C1943 C1944 1.524 . S
C1944 C1943 1.524 . S
C1944 C1945 1.397 . S
C1944 C1949 1.363 . S
C1945 H1916 0.950 . S
C1945 C1944 1.397 . S
C1945 C1946 1.334 . S
C1946 H1917 0.950 . S
C1946 C1945 1.334 . S
C1946 C1947 1.287 . S
C1947 C1946 1.287 . S
C1947 C1948 1.524 . S
C1947 H1950 0.999 . S
C1948 H1918 0.950 1_455 S
C1948 C1947 1.524 . S
C1948 C1949 1.415 . S
C1949 H1919 0.950 . S
C1949 C1944 1.363 . S
C1949 C1948 1.415 . S
H1950 C1947 0.999 . S
H1951 C1932 0.913 . S
H1952 C1970 0.951 . S
H1953 C1972 0.951 . S
H1954 C1974 0.950 . S
H1955 C1975 0.950 . S
H1956 C1977 0.950 . S
H1957 C1980 0.950 . S
H1958 C1981 0.950 . S
H1959 C1983 0.950 . S
H1960 C1984 0.950 . S
H1961 C1985 0.951 . S
H1962 C1987 0.951 . S
H1963 C1989 0.950 . S
H1964 C1990 0.950 . S
H1965 C1992 0.950 . S
H1966 C1995 0.950 . S
H1967 C1996 0.950 . S
H1968 C1998 0.950 . S
H1969 C1999 0.950 . S
C1970 H1952 0.951 . S
C1970 C1971 1.366 . S
C1970 C1972 1.388 . S
C1971 C1970 1.366 . S
C1971 C1975 1.385 . S
C1972 H1953 0.951 . S
C1972 C1970 1.388 . S
C1972 C1973 1.366 . S
C1973 C1972 1.366 . S
C1973 C1974 1.414 . S
C1973 C1976 1.499 . S
C1974 H1954 0.950 . S
C1974 C1973 1.414 . S
C1974 C1975 1.374 . S
C1975 H1955 0.950 . S
C1975 C1971 1.385 . S
C1975 C1974 1.374 . S
C1976 C1973 1.499 . S
C1976 C1977 1.373 . S
C1976 C1978 1.389 . S
C1977 H1956 0.950 . S
C1977 C1976 1.373 . S
C1977 C1993 1.377 . S
C1978 C1976 1.389 . S
C1978 C1979 1.524 . S
C1978 C1992 1.377 . S
C1979 C1978 1.524 . S
C1979 C1980 1.397 . S
C1979 C1984 1.363 . S
C1980 H1957 0.950 . S
C1980 C1979 1.397 . S
C1980 C1981 1.334 . S
C1981 H1958 0.950 . S
C1981 C1980 1.334 . S
C1981 C1982 1.287 . S
C1982 C1981 1.287 . S
C1982 C1983 1.524 . S
C1982 H2001 0.913 . S
C1983 H1959 0.950 . S
C1983 C1982 1.524 . S
C1983 C1984 1.415 . S
C1984 H1960 0.950 . S
C1984 C1979 1.363 . S
C1984 C1983 1.415 . S
C1985 H1961 0.951 . S
C1985 C1986 1.366 . S
C1985 C1987 1.388 . S
C1986 C1985 1.366 . S
C1986 C1990 1.385 . S
C1987 H1962 0.951 . S
C1987 C1985 1.388 . S
C1987 C1988 1.366 . S
C1988 C1987 1.366 . S
C1988 C1989 1.414 . S
C1988 C1991 1.499 . S
C1989 H1963 0.950 . S
C1989 C1988 1.414 . S
C1989 C1990 1.374 . S
C1990 H1964 0.950 . S
C1990 C1986 1.385 . S
C1990 C1989 1.374 . S
C1991 C1988 1.499 . S
C1991 C1992 1.373 . S
C1991 C1993 1.389 . S
C1992 H1965 0.950 . S
C1992 C1978 1.377 . S
C1992 C1991 1.373 . S
C1993 C1977 1.377 . S
C1993 C1991 1.389 . S
C1993 C1994 1.524 . S
C1994 C1993 1.524 . S
C1994 C1995 1.397 . S
C1994 C1999 1.363 . S
C1995 H1966 0.950 . S
C1995 C1994 1.397 . S
C1995 C1996 1.334 . S
C1996 H1967 0.950 . S
C1996 C1995 1.334 . S
C1996 C1997 1.287 . S
C1997 C1996 1.287 . S
C1997 C1998 1.524 . S
C1997 H2000 0.999 . S
C1998 H1968 0.950 . S
C1998 C1997 1.524 . S
C1998 C1999 1.415 . S
C1999 H1969 0.950 . S
C1999 C1994 1.363 . S
C1999 C1998 1.415 . S
H2000 C1997 0.999 . S
H2001 C1982 0.913 . S
H2002 C2020 0.951 . S
H2003 C2022 0.951 . S
H2004 C2024 0.950 . S
H2005 C2025 0.950 . S
H2006 C2027 0.950 . S
H2007 C2030 0.950 . S
H2008 C2031 0.950 . S
H2009 C2033 0.950 . S
H2010 C2034 0.950 . S
H2011 C2035 0.951 . S
H2012 C2037 0.951 . S
H2013 C2039 0.950 . S
H2014 C2040 0.950 . S
H2015 C2042 0.950 . S
H2016 C2045 0.950 . S
H2017 C2046 0.950 . S
H2018 C2048 0.950 . S
H2019 C2049 0.950 . S
C2020 H2002 0.951 . S
C2020 C2021 1.366 . S
C2020 C2022 1.388 . S
C2021 C2020 1.366 . S
C2021 C2025 1.385 . S
C2022 H2003 0.951 . S
C2022 C2020 1.388 . S
C2022 C2023 1.366 . S
C2023 C2022 1.366 . S
C2023 C2024 1.414 . S
C2023 C2026 1.499 . S
C2024 H2004 0.950 . S
C2024 C2023 1.414 . S
C2024 C2025 1.374 . S
C2025 H2005 0.950 . S
C2025 C2021 1.385 . S
C2025 C2024 1.374 . S
C2026 C2023 1.499 . S
C2026 C2027 1.373 1_565 S
C2026 C2028 1.389 . S
C2027 H2006 0.950 . S
C2027 C2026 1.373 1_545 S
C2027 C2043 1.377 . S
C2028 C2026 1.389 . S
C2028 C2029 1.524 . S
C2028 C2042 1.377 1_565 S
C2029 C2028 1.524 . S
C2029 C2030 1.397 . S
C2029 C2034 1.363 . S
C2030 H2007 0.950 . S
C2030 C2029 1.397 . S
C2030 C2031 1.334 . S
C2031 H2008 0.950 . S
C2031 C2030 1.334 . S
C2031 C2032 1.287 . S
C2032 C2031 1.287 . S
C2032 C2033 1.524 . S
C2032 H2051 0.913 . S
C2033 H2009 0.950 . S
C2033 C2032 1.524 . S
C2033 C2034 1.415 . S
C2034 H2010 0.950 . S
C2034 C2029 1.363 . S
C2034 C2033 1.415 . S
C2035 H2011 0.951 . S
C2035 C2036 1.366 . S
C2035 C2037 1.388 . S
C2036 C2035 1.366 . S
C2036 C2040 1.385 . S
C2037 H2012 0.951 . S
C2037 C2035 1.388 . S
C2037 C2038 1.366 . S
C2038 C2037 1.366 . S
C2038 C2039 1.414 . S
C2038 C2041 1.499 . S
C2039 H2013 0.950 . S
C2039 C2038 1.414 . S
C2039 C2040 1.374 . S
C2040 H2014 0.950 . S
C2040 C2036 1.385 . S
C2040 C2039 1.374 . S
C2041 C2038 1.499 . S
C2041 C2042 1.373 . S
C2041 C2043 1.389 . S
C2042 H2015 0.950 . S
C2042 C2028 1.377 1_545 S
C2042 C2041 1.373 . S
C2043 C2027 1.377 . S
C2043 C2041 1.389 . S
C2043 C2044 1.524 . S
C2044 C2043 1.524 . S
C2044 C2045 1.397 . S
C2044 C2049 1.363 . S
C2045 H2016 0.950 . S
C2045 C2044 1.397 . S
C2045 C2046 1.334 . S
C2046 H2017 0.950 . S
C2046 C2045 1.334 . S
C2046 C2047 1.287 . S
C2047 C2046 1.287 . S
C2047 C2048 1.524 . S
C2047 H2050 0.999 . S
C2048 H2018 0.950 . S
C2048 C2047 1.524 . S
C2048 C2049 1.415 . S
C2049 H2019 0.950 . S
C2049 C2044 1.363 . S
C2049 C2048 1.415 . S
H2050 C2047 0.999 . S
H2051 C2032 0.913 . S
C271 C50 1.264 . S
C286 C6 1.313 . S
C321 C62 1.496 . S
C336 C20 1.473 . S
C371 C36 1.583 . S
C386 C78 1.558 . S
C421 C34 1.391 . S
C436 C76 1.380 . S
C471 C8 1.320 . S
C486 C48 1.344 . S
C521 C64 1.508 . S
C536 C22 1.460 . S
C571 C134 1.219 . S
C586 C90 1.252 . S
C621 C104 1.364 . S
C636 C146 1.373 . S
C671 C118 1.336 . S
C686 C162 1.292 . S
C721 C160 1.534 . S
C736 C120 1.490 . S
C771 C132 1.391 . S
C786 C92 1.349 . S
C821 C148 1.612 1_556 S
C836 C106 1.587 . S
C871 C174 1.477 . S
C886 C218 1.444 . S
C921 C188 1.411 . S
C936 C230 1.420 . S
C971 C204 1.535 . S
C986 C246 1.508 . S
C1021 C244 1.354 . S
C1036 C202 1.364 1_554 S
C1071 C216 1.324 . S
C1086 C176 1.272 1_554 S
C1121 C232 1.487 . S
C1136 C190 1.467 1_554 S
C1171 C9 1.313 . S
C1186 C105 1.365 . S
C1221 C23 1.363 . S
C1236 C119 1.368 . S
C1271 C91 1.002 . S
C1286 C35 1.004 . S
C1321 C37 1.573 . S
C1336 C191 1.603 . S
C1371 C203 0.905 . S
C1386 C7 0.904 . S
C1421 C177 1.416 1_554 S
C1436 C21 1.422 . S
C1471 C231 0.969 . S
C1486 C49 0.967 . S
C1521 C65 1.501 . S
C1536 C247 1.540 . S
C1571 C219 1.313 . S
C1586 C77 1.349 . S
C1621 C149 1.551 . S
C1636 C79 1.579 . S
C1671 C51 1.173 . S
C1686 C161 1.212 . S
C1721 C63 0.891 . S
C1736 C133 0.890 . S
C1771 C93 1.204 . S
C1786 C189 1.237 . S
C1821 C107 1.522 . S
C1836 C205 1.488 . S
C1871 C121 1.148 . S
C1886 C175 1.168 . S
C1921 C233 1.487 . S
C1936 C163 1.500 . S
C1971 C245 1.334 . S
C1986 C135 1.291 . S
C2021 C147 0.996 . S
C2036 C217 0.994 . S
