# Generated by pormake.
# Topology vcb, (5)-cn, num edge types: 1
# Building blocks:
#     Node 0, Type 0, BuildingBlock: XOMCOT_clean_sbu_1, # of connection points: 5
#     Node 1, Type 0, BuildingBlock: XOMCOT_clean_sbu_1, # of connection points: 5
#     Node 2, Type 0, BuildingBlock: XOMCOT_clean_sbu_1, # of connection points: 5
#     Node 3, Type 0, BuildingBlock: XOMCOT_clean_sbu_1, # of connection points: 5
#     Node 4, Type 0, BuildingBlock: XOMCOT_clean_sbu_1, # of connection points: 5
#     Node 5, Type 0, BuildingBlock: XOMCOT_clean_sbu_1, # of connection points: 5
#     Node 6, Type 0, BuildingBlock: XOMCOT_clean_sbu_1, # of connection points: 5
#     Node 7, Type 0, BuildingBlock: XOMCOT_clean_sbu_1, # of connection points: 5
#     Node 8, Type 0, BuildingBlock: XOMCOT_clean_sbu_1, # of connection points: 5
#     Node 9, Type 0, BuildingBlock: XOMCOT_clean_sbu_1, # of connection points: 5
#     Node 10, Type 0, BuildingBlock: XOMCOT_clean_sbu_1, # of connection points: 5
#     Node 11, Type 0, BuildingBlock: XOMCOT_clean_sbu_1, # of connection points: 5
#     Node 12, Type 0, BuildingBlock: XOMCOT_clean_sbu_1, # of connection points: 5
#     Node 13, Type 0, BuildingBlock: XOMCOT_clean_sbu_1, # of connection points: 5
#     Node 14, Type 0, BuildingBlock: XOMCOT_clean_sbu_1, # of connection points: 5
#     Node 15, Type 0, BuildingBlock: XOMCOT_clean_sbu_1, # of connection points: 5
#     Node 16, Type 0, BuildingBlock: XOMCOT_clean_sbu_1, # of connection points: 5
#     Node 17, Type 0, BuildingBlock: XOMCOT_clean_sbu_1, # of connection points: 5
#     Node 18, Type 0, BuildingBlock: XOMCOT_clean_sbu_1, # of connection points: 5
#     Node 19, Type 0, BuildingBlock: XOMCOT_clean_sbu_1, # of connection points: 5
#     Node 20, Type 0, BuildingBlock: XOMCOT_clean_sbu_1, # of connection points: 5
#     Node 21, Type 0, BuildingBlock: XOMCOT_clean_sbu_1, # of connection points: 5
#     Node 22, Type 0, BuildingBlock: XOMCOT_clean_sbu_1, # of connection points: 5
#     Node 23, Type 0, BuildingBlock: XOMCOT_clean_sbu_1, # of connection points: 5
#     Node 24, Type 0, BuildingBlock: XOMCOT_clean_sbu_1, # of connection points: 5
#     Node 25, Type 0, BuildingBlock: XOMCOT_clean_sbu_1, # of connection points: 5
#     Node 26, Type 0, BuildingBlock: XOMCOT_clean_sbu_1, # of connection points: 5
#     Node 27, Type 0, BuildingBlock: XOMCOT_clean_sbu_1, # of connection points: 5
#     Node 28, Type 0, BuildingBlock: XOMCOT_clean_sbu_1, # of connection points: 5
#     Node 29, Type 0, BuildingBlock: XOMCOT_clean_sbu_1, # of connection points: 5
#     Node 30, Type 0, BuildingBlock: XOMCOT_clean_sbu_1, # of connection points: 5
#     Node 31, Type 0, BuildingBlock: XOMCOT_clean_sbu_1, # of connection points: 5
#     Edge 32, Type (0, 0), BuildingBlock: TEMPAE_clean_linker_10, # of connection points: 2
#     Edge 33, Type (0, 0), BuildingBlock: TEMPAE_clean_linker_10, # of connection points: 2
#     Edge 34, Type (0, 0), BuildingBlock: TEMPAE_clean_linker_10, # of connection points: 2
#     Edge 35, Type (0, 0), BuildingBlock: TEMPAE_clean_linker_10, # of connection points: 2
#     Edge 36, Type (0, 0), BuildingBlock: TEMPAE_clean_linker_10, # of connection points: 2
#     Edge 37, Type (0, 0), BuildingBlock: TEMPAE_clean_linker_10, # of connection points: 2
#     Edge 38, Type (0, 0), BuildingBlock: TEMPAE_clean_linker_10, # of connection points: 2
#     Edge 39, Type (0, 0), BuildingBlock: TEMPAE_clean_linker_10, # of connection points: 2
#     Edge 40, Type (0, 0), BuildingBlock: TEMPAE_clean_linker_10, # of connection points: 2
#     Edge 41, Type (0, 0), BuildingBlock: TEMPAE_clean_linker_10, # of connection points: 2
#     Edge 42, Type (0, 0), BuildingBlock: TEMPAE_clean_linker_10, # of connection points: 2
#     Edge 43, Type (0, 0), BuildingBlock: TEMPAE_clean_linker_10, # of connection points: 2
#     Edge 44, Type (0, 0), BuildingBlock: TEMPAE_clean_linker_10, # of connection points: 2
#     Edge 45, Type (0, 0), BuildingBlock: TEMPAE_clean_linker_10, # of connection points: 2
#     Edge 46, Type (0, 0), BuildingBlock: TEMPAE_clean_linker_10, # of connection points: 2
#     Edge 47, Type (0, 0), BuildingBlock: TEMPAE_clean_linker_10, # of connection points: 2
#     Edge 48, Type (0, 0), BuildingBlock: TEMPAE_clean_linker_10, # of connection points: 2
#     Edge 49, Type (0, 0), BuildingBlock: TEMPAE_clean_linker_10, # of connection points: 2
#     Edge 50, Type (0, 0), BuildingBlock: TEMPAE_clean_linker_10, # of connection points: 2
#     Edge 51, Type (0, 0), BuildingBlock: TEMPAE_clean_linker_10, # of connection points: 2
#     Edge 52, Type (0, 0), BuildingBlock: TEMPAE_clean_linker_10, # of connection points: 2
#     Edge 53, Type (0, 0), BuildingBlock: TEMPAE_clean_linker_10, # of connection points: 2
#     Edge 54, Type (0, 0), BuildingBlock: TEMPAE_clean_linker_10, # of connection points: 2
#     Edge 55, Type (0, 0), BuildingBlock: TEMPAE_clean_linker_10, # of connection points: 2
#     Edge 56, Type (0, 0), BuildingBlock: TEMPAE_clean_linker_10, # of connection points: 2
#     Edge 57, Type (0, 0), BuildingBlock: TEMPAE_clean_linker_10, # of connection points: 2
#     Edge 58, Type (0, 0), BuildingBlock: TEMPAE_clean_linker_10, # of connection points: 2
#     Edge 59, Type (0, 0), BuildingBlock: TEMPAE_clean_linker_10, # of connection points: 2
#     Edge 60, Type (0, 0), BuildingBlock: TEMPAE_clean_linker_10, # of connection points: 2
#     Edge 61, Type (0, 0), BuildingBlock: TEMPAE_clean_linker_10, # of connection points: 2
#     Edge 62, Type (0, 0), BuildingBlock: TEMPAE_clean_linker_10, # of connection points: 2
#     Edge 63, Type (0, 0), BuildingBlock: TEMPAE_clean_linker_10, # of connection points: 2
#     Edge 64, Type (0, 0), BuildingBlock: TEMPAE_clean_linker_10, # of connection points: 2
#     Edge 65, Type (0, 0), BuildingBlock: TEMPAE_clean_linker_10, # of connection points: 2
#     Edge 66, Type (0, 0), BuildingBlock: TEMPAE_clean_linker_10, # of connection points: 2
#     Edge 67, Type (0, 0), BuildingBlock: TEMPAE_clean_linker_10, # of connection points: 2
#     Edge 68, Type (0, 0), BuildingBlock: TEMPAE_clean_linker_10, # of connection points: 2
#     Edge 69, Type (0, 0), BuildingBlock: TEMPAE_clean_linker_10, # of connection points: 2
#     Edge 70, Type (0, 0), BuildingBlock: TEMPAE_clean_linker_10, # of connection points: 2
#     Edge 71, Type (0, 0), BuildingBlock: TEMPAE_clean_linker_10, # of connection points: 2
#     Edge 72, Type (0, 0), BuildingBlock: TEMPAE_clean_linker_10, # of connection points: 2
#     Edge 73, Type (0, 0), BuildingBlock: TEMPAE_clean_linker_10, # of connection points: 2
#     Edge 74, Type (0, 0), BuildingBlock: TEMPAE_clean_linker_10, # of connection points: 2
#     Edge 75, Type (0, 0), BuildingBlock: TEMPAE_clean_linker_10, # of connection points: 2
#     Edge 76, Type (0, 0), BuildingBlock: TEMPAE_clean_linker_10, # of connection points: 2
#     Edge 77, Type (0, 0), BuildingBlock: TEMPAE_clean_linker_10, # of connection points: 2
#     Edge 78, Type (0, 0), BuildingBlock: TEMPAE_clean_linker_10, # of connection points: 2
#     Edge 79, Type (0, 0), BuildingBlock: TEMPAE_clean_linker_10, # of connection points: 2
#     Edge 80, Type (0, 0), BuildingBlock: TEMPAE_clean_linker_10, # of connection points: 2
#     Edge 81, Type (0, 0), BuildingBlock: TEMPAE_clean_linker_10, # of connection points: 2
#     Edge 82, Type (0, 0), BuildingBlock: TEMPAE_clean_linker_10, # of connection points: 2
#     Edge 83, Type (0, 0), BuildingBlock: TEMPAE_clean_linker_10, # of connection points: 2
#     Edge 84, Type (0, 0), BuildingBlock: TEMPAE_clean_linker_10, # of connection points: 2
#     Edge 85, Type (0, 0), BuildingBlock: TEMPAE_clean_linker_10, # of connection points: 2
#     Edge 86, Type (0, 0), BuildingBlock: TEMPAE_clean_linker_10, # of connection points: 2
#     Edge 87, Type (0, 0), BuildingBlock: TEMPAE_clean_linker_10, # of connection points: 2
#     Edge 88, Type (0, 0), BuildingBlock: TEMPAE_clean_linker_10, # of connection points: 2
#     Edge 89, Type (0, 0), BuildingBlock: TEMPAE_clean_linker_10, # of connection points: 2
#     Edge 90, Type (0, 0), BuildingBlock: TEMPAE_clean_linker_10, # of connection points: 2
#     Edge 91, Type (0, 0), BuildingBlock: TEMPAE_clean_linker_10, # of connection points: 2
#     Edge 92, Type (0, 0), BuildingBlock: TEMPAE_clean_linker_10, # of connection points: 2
#     Edge 93, Type (0, 0), BuildingBlock: TEMPAE_clean_linker_10, # of connection points: 2
#     Edge 94, Type (0, 0), BuildingBlock: TEMPAE_clean_linker_10, # of connection points: 2
#     Edge 95, Type (0, 0), BuildingBlock: TEMPAE_clean_linker_10, # of connection points: 2
#     Edge 96, Type (0, 0), BuildingBlock: TEMPAE_clean_linker_10, # of connection points: 2
#     Edge 97, Type (0, 0), BuildingBlock: TEMPAE_clean_linker_10, # of connection points: 2
#     Edge 98, Type (0, 0), BuildingBlock: TEMPAE_clean_linker_10, # of connection points: 2
#     Edge 99, Type (0, 0), BuildingBlock: TEMPAE_clean_linker_10, # of connection points: 2
#     Edge 100, Type (0, 0), BuildingBlock: TEMPAE_clean_linker_10, # of connection points: 2
#     Edge 101, Type (0, 0), BuildingBlock: TEMPAE_clean_linker_10, # of connection points: 2
#     Edge 102, Type (0, 0), BuildingBlock: TEMPAE_clean_linker_10, # of connection points: 2
#     Edge 103, Type (0, 0), BuildingBlock: TEMPAE_clean_linker_10, # of connection points: 2
#     Edge 104, Type (0, 0), BuildingBlock: TEMPAE_clean_linker_10, # of connection points: 2
#     Edge 105, Type (0, 0), BuildingBlock: TEMPAE_clean_linker_10, # of connection points: 2
#     Edge 106, Type (0, 0), BuildingBlock: TEMPAE_clean_linker_10, # of connection points: 2
#     Edge 107, Type (0, 0), BuildingBlock: TEMPAE_clean_linker_10, # of connection points: 2
#     Edge 108, Type (0, 0), BuildingBlock: TEMPAE_clean_linker_10, # of connection points: 2
#     Edge 109, Type (0, 0), BuildingBlock: TEMPAE_clean_linker_10, # of connection points: 2
#     Edge 110, Type (0, 0), BuildingBlock: TEMPAE_clean_linker_10, # of connection points: 2
#     Edge 111, Type (0, 0), BuildingBlock: TEMPAE_clean_linker_10, # of connection points: 2
# Relax obj value: 0.111
# Max RMSD: 0.136
# Mean RMSD: 0.135
data_MOF--net-vcb--node1-XOMCOT_clean_sbu_1--edge1-TEMPAE_clean_linker_10
_symmetry_space_group_name_H-M    P1
_symmetry_Int_Tables_number       1
_symmetry_cell_setting            triclinic
loop_
_symmetry_equiv_pos_as_xyz
'x, y, z'
_cell_length_a     68.897605
_cell_length_b     96.47989
_cell_length_c     27.178706
_cell_angle_alpha  89.939643
_cell_angle_beta   89.916545
_cell_angle_gamma 90.015771
loop_
_atom_site_label
_atom_site_type_symbol
_atom_site_fract_x
_atom_site_fract_y
_atom_site_fract_z
_atom_type_partial_charge
C0 C 0.99523 0.08001 0.28762 0.0
C1 C 0.97546 0.07902 0.28192 0.0
N2 N 0.96678 0.08409 0.32265 0.0
N3 N 0.99919 0.08581 0.33151 0.0
C4 C 0.98159 0.08816 0.35205 0.0
H5 H 1.00602 0.07654 0.2615 0.0
Co6 Co 0.02421 0.08878 0.35619 0.0
C7 C 1.01861 0.11027 0.43092 0.0
O8 O 0.03123 0.1181 0.40756 0.0
N9 N 0.04958 0.09166 0.3817 0.0
C10 C 0.07403 0.09204 0.43522 0.0
C11 C 0.05484 0.08877 0.4285 0.0
C12 C 0.066 0.09678 0.36083 0.0
N13 N 0.08108 0.09708 0.39261 0.0
O14 O 0.02592 0.1051 0.3167 0.0
H15 H 0.0452 0.0847 0.45644 0.0
H16 H 0.06707 0.1002 0.3231 0.0
O17 O 1.01379 0.09861 0.41261 0.0
C18 C 0.03339 0.10101 0.27623 0.0
O19 O 0.03959 0.08815 0.27331 0.0
N20 N 1.02273 0.07202 0.38888 0.0
C21 C 1.01962 0.04449 0.41721 0.0
C22 C 1.00846 0.05471 0.44068 0.0
C23 C 1.01014 0.06852 0.42567 0.0
C24 C 0.03411 0.06231 0.36697 0.0
C25 C 0.03291 0.04849 0.38081 0.0
H26 H 1.00077 0.07621 0.44203 0.0
H27 H 0.04374 0.0653 0.33734 0.0
H28 H 0.97969 0.0924 0.38852 0.0
H29 H 0.96817 0.07486 0.24998 0.0
H30 H 0.08204 0.09111 0.4693 0.0
H31 H 0.99793 0.05198 0.4687 0.0
H32 H 0.042 0.04094 0.36238 0.0
C33 C 0.29673 0.1666 0.31075 0.0
C34 C 0.31632 0.16829 0.30287 0.0
N35 N 0.32583 0.15818 0.32714 0.0
N36 N 0.29385 0.15553 0.34013 0.0
C37 C 0.31184 0.15053 0.34917 0.0
H38 H 0.28529 0.1732 0.29685 0.0
Co39 Co 0.26968 0.14985 0.36388 0.0
C40 C 0.27951 0.12745 0.43272 0.0
O41 O 0.2681 0.11893 0.40852 0.0
N42 N 0.24517 0.14427 0.38857 0.0
C43 C 0.22128 0.14069 0.44231 0.0
C44 C 0.24018 0.14483 0.43664 0.0
C45 C 0.2289 0.13969 0.36572 0.0
N46 N 0.21413 0.13749 0.39772 0.0
O47 O 0.27043 0.13452 0.31986 0.0
H48 H 0.2497 0.1481 0.46601 0.0
H49 H 0.22767 0.13825 0.32642 0.0
O50 O 0.28207 0.13972 0.41664 0.0
C51 C 0.26314 0.13936 0.28028 0.0
O52 O 0.2565 0.15214 0.28058 0.0
N53 N 0.26838 0.16569 0.40191 0.0
C54 C 0.26408 0.19149 0.44589 0.0
C55 C 0.27692 0.18162 0.46567 0.0
C56 C 0.27908 0.16878 0.44263 0.0
C57 C 0.25579 0.17504 0.38247 0.0
C58 C 0.25346 0.18802 0.40368 0.0
H59 H 0.28946 0.16149 0.45718 0.0
H60 H 0.24779 0.17245 0.34954 0.0
H61 H 0.31473 0.14175 0.37286 0.0
H62 H 0.32305 0.17642 0.28132 0.0
H63 H 0.21347 0.13995 0.4768 0.0
H64 H 0.28535 0.18382 0.49832 0.0
H65 H 0.24382 0.19538 0.38615 0.0
C66 C 0.99732 0.16931 0.89986 0.0
C67 C 0.97776 0.17121 0.90765 0.0
N68 N 0.96813 0.16075 0.88572 0.0
N69 N 1.00002 0.15768 0.8733 0.0
C70 C 0.98198 0.15266 0.86542 0.0
H71 H 1.00885 0.17615 0.91165 0.0
Co72 Co 0.02389 0.15118 0.85085 0.0
C73 C 1.01351 0.12643 0.7934 0.0
O74 O 0.02471 0.11875 0.82148 0.0
N75 N 0.04799 0.14467 0.82758 0.0
C76 C 0.07073 0.13751 0.7753 0.0
C77 C 0.05244 0.14296 0.7795 0.0
C78 C 0.0641 0.14045 0.85189 0.0
N79 N 0.07804 0.13593 0.8208 0.0
O80 O 0.02364 0.13762 0.90201 0.0
H81 H 0.04284 0.14538 0.74922 0.0
H82 H 0.06553 0.14043 0.8915 0.0
O83 O 1.0111 0.13918 0.80386 0.0
C84 C 0.03056 0.14392 0.93939 0.0
O85 O 0.03714 0.15659 0.93318 0.0
N86 N 0.02455 0.16543 0.80532 0.0
C87 C 0.02458 0.19055 0.7556 0.0
C88 C 1.01061 0.18042 0.74473 0.0
C89 C 1.01079 0.16786 0.7703 0.0
C90 C 0.03861 0.17493 0.81503 0.0
C91 C 0.039 0.18754 0.7903 0.0
H92 H 0.99925 0.16049 0.764 0.0
H93 H 0.049 0.17296 0.84401 0.0
H94 H 0.97899 0.14333 0.84476 0.0
H95 H 0.97112 0.17991 0.92634 0.0
H96 H 0.07819 0.13503 0.74134 0.0
H97 H 0.99921 0.1824 0.71824 0.0
H98 H 0.04978 0.19517 0.8006 0.0
C99 C 0.29469 0.072 0.904 0.0
C100 C 0.31417 0.06982 0.91214 0.0
N101 N 0.32418 0.07993 0.88907 0.0
N102 N 0.29244 0.08345 0.87615 0.0
C103 C 0.31066 0.08807 0.86778 0.0
H104 H 0.28292 0.06546 0.91649 0.0
Co105 Co 0.26885 0.09017 0.85289 0.0
C106 C 0.28014 0.11485 0.7955 0.0
O107 O 0.26851 0.12272 0.82174 0.0
N108 N 0.24501 0.09687 0.82887 0.0
C109 C 0.22259 0.10421 0.77615 0.0
C110 C 0.24086 0.09873 0.78072 0.0
C111 C 0.22877 0.101 0.85282 0.0
N112 N 0.21501 0.10564 0.82149 0.0
O113 O 0.26904 0.10368 0.90389 0.0
H114 H 0.25061 0.09638 0.75065 0.0
H115 H 0.22709 0.10087 0.89237 0.0
O116 O 0.28216 0.10213 0.80685 0.0
C117 C 0.26186 0.09762 0.94149 0.0
O118 O 0.25481 0.08505 0.93585 0.0
N119 N 0.26834 0.07602 0.80712 0.0
C120 C 0.26919 0.05086 0.75788 0.0
C121 C 0.28257 0.06133 0.74609 0.0
C122 C 0.282 0.07387 0.77154 0.0
C123 C 0.25464 0.06628 0.81725 0.0
C124 C 0.25473 0.05362 0.79289 0.0
H125 H 0.29326 0.08142 0.76471 0.0
H126 H 0.24429 0.06807 0.84653 0.0
H127 H 0.31403 0.09717 0.84609 0.0
H128 H 0.3205 0.06119 0.93187 0.0
H129 H 0.21532 0.10679 0.74206 0.0
H130 H 0.29393 0.0596 0.7192 0.0
H131 H 0.24438 0.04575 0.80389 0.0
C132 C 0.05019 0.92112 0.61753 0.0
C133 C 0.06943 0.9217 0.63031 0.0
N134 N 0.07672 0.90875 0.62936 0.0
N135 N 0.04526 0.9079 0.60741 0.0
C136 C 0.0616 0.90054 0.61667 0.0
H137 H 0.04048 0.92989 0.61508 0.0
Co138 Co 1.02023 0.90215 0.58841 0.0
C139 C 0.04498 0.8872 0.50939 0.0
O140 O 0.06173 0.89312 0.51871 0.0
N141 N 0.99503 0.89652 0.56988 0.0
C142 C 0.96947 0.89255 0.52202 0.0
C143 C 0.98849 0.89668 0.52306 0.0
C144 C 0.97959 0.89214 0.59675 0.0
N145 N 0.96383 0.88972 0.56836 0.0
O146 O 1.02149 0.8876 0.63585 0.0
H147 H 0.99698 0.8998 0.49144 0.0
H148 H 0.97969 0.89101 0.63633 0.0
O149 O 0.02999 0.89027 0.53502 0.0
C150 C 1.01623 0.89352 0.67571 0.0
O151 O 1.01139 0.9067 0.67377 0.0
N152 N 1.01814 0.91743 0.54665 0.0
C153 C 1.01463 0.94332 0.50267 0.0
C154 C 0.02802 0.93361 0.48462 0.0
C155 C 0.02962 0.92067 0.50734 0.0
C156 C 1.00468 0.9266 0.56363 0.0
C157 C 1.0026 0.93957 0.54203 0.0
H158 H 0.04067 0.91369 0.49465 0.0
H159 H 0.99606 0.92399 0.59562 0.0
H160 H 0.06247 0.88938 0.61327 0.0
H161 H 0.07759 0.93105 0.63777 0.0
H162 H 0.96052 0.89157 0.48951 0.0
H163 H 0.03757 0.93614 0.45422 0.0
H164 H 0.99236 0.94684 0.55778 0.0
C165 C 0.74833 0.82419 0.68269 0.0
C166 C 0.72861 0.82296 0.6894 0.0
N167 N 0.71963 0.8316 0.6578 0.0
N168 N 0.75185 0.83362 0.64721 0.0
C169 C 0.73408 0.83798 0.63278 0.0
H170 H 0.75939 0.81824 0.70134 0.0
Co171 Co 0.77651 0.83777 0.62272 0.0
C172 C 0.76997 0.86144 0.55709 0.0
O173 O 0.7826 0.86876 0.58229 0.0
N174 N 0.80153 0.84183 0.59737 0.0
C175 C 0.82554 0.84423 0.54312 0.0
C176 C 0.80646 0.84058 0.54942 0.0
C177 C 0.81799 0.84638 0.61942 0.0
N178 N 0.83282 0.84787 0.58715 0.0
O179 O 0.77821 0.85262 0.66856 0.0
H180 H 0.79669 0.83737 0.52048 0.0
H181 H 0.81924 0.84852 0.65829 0.0
O182 O 0.76548 0.84931 0.5717 0.0
C183 C 0.78529 0.84728 0.70756 0.0
O184 O 0.79116 0.83432 0.70597 0.0
N185 N 0.77498 0.82233 0.58263 0.0
C186 C 0.77192 0.7964 0.53949 0.0
C187 C 0.75954 0.8072 0.52504 0.0
C188 C 0.76126 0.82016 0.5473 0.0
C189 C 0.78737 0.81206 0.59634 0.0
C190 C 0.78621 0.79902 0.57491 0.0
H191 H 0.75101 0.82818 0.53779 0.0
H192 H 0.79774 0.8139 0.62546 0.0
H193 H 0.73172 0.8455 0.60385 0.0
H194 H 0.72145 0.81579 0.71414 0.0
H195 H 0.83333 0.84451 0.50851 0.0
H196 H 0.74829 0.80552 0.49788 0.0
H197 H 0.79577 0.79088 0.5878 0.0
C198 C 0.05336 0.82796 0.02242 0.0
C199 C 0.0732 0.82903 0.02063 0.0
N200 N 0.07949 0.83494 0.0627 0.0
N201 N 0.04689 0.83312 0.06535 0.0
C202 C 0.06311 0.83732 0.08928 0.0
H203 H 0.04419 0.82333 0.99468 0.0
Co204 Co 1.02061 0.83236 0.08181 0.0
C205 C 1.01727 0.84116 0.18463 0.0
O206 O 1.00474 0.83102 0.19037 0.0
N207 N 0.99319 0.83159 0.09672 0.0
C208 C 0.96285 0.82453 0.11121 0.0
C209 C 0.9818 0.82046 0.10634 0.0
C210 C 0.98045 0.84238 0.09665 0.0
N211 N 0.96188 0.83832 0.1047 0.0
O212 O 1.01655 0.84861 0.04337 0.0
H213 H 0.98651 0.8099 0.1104 0.0
H214 H 0.98464 0.85301 0.08963 0.0
O215 O 0.02513 0.84323 0.14244 0.0
C216 C 1.00964 0.84466 0.00216 0.0
O217 O 1.00498 0.83153 -0.00321 0.0
N218 N 0.0255 0.81545 0.11311 0.0
C219 C 0.03226 0.78838 0.14451 0.0
C220 C 0.03964 0.79969 0.17113 0.0
C221 C 0.03643 0.81318 0.15423 0.0
C222 C 1.02035 0.80461 0.08392 0.0
C223 C 1.02291 0.79101 0.09964 0.0
H224 H 0.04306 0.82167 0.17377 0.0
H225 H 1.01331 0.80658 0.04907 0.0
H226 H 0.06288 0.8418 0.12572 0.0
H227 H 0.08226 0.82518 0.99114 0.0
H228 H 0.9507 0.8178 0.11947 0.0
H229 H 0.04797 0.79816 0.20445 0.0
H230 H 1.01709 0.78273 0.07727 0.0
C231 C 0.75152 0.91722 0.07799 0.0
C232 C 0.73186 0.91885 0.07137 0.0
N233 N 0.72253 0.90876 0.0964 0.0
N234 N 0.75474 0.90616 0.10707 0.0
C235 C 0.73681 0.90118 0.11763 0.0
H236 H 0.76279 0.92391 0.06359 0.0
Co237 Co 0.77937 0.90058 0.12874 0.0
C238 C 0.77079 0.8772 0.19454 0.0
O239 O 0.78233 0.86918 0.16866 0.0
N240 N 0.80433 0.895 0.15132 0.0
C241 C 0.82844 0.89046 0.20337 0.0
C242 C 0.80986 0.8954 0.19897 0.0
C243 C 0.82004 0.88981 0.12739 0.0
N244 N 0.8349 0.88687 0.15837 0.0
O245 O 0.77882 0.88585 0.08221 0.0
H246 H 0.80083 0.89895 0.22901 0.0
H247 H 0.8205 0.8879 0.08824 0.0
O248 O 0.76773 0.8896 0.18043 0.0
C249 C 0.78561 0.89133 0.04303 0.0
O250 O 0.792 0.90416 0.04526 0.0
N251 N 0.78026 0.91593 0.16942 0.0
C252 C 0.7809 0.94192 0.213 0.0
C253 C 0.76743 0.93188 0.2284 0.0
C254 C 0.76726 0.91889 0.20581 0.0
C255 C 0.79373 0.9254 0.15492 0.0
C256 C 0.79442 0.93844 0.17647 0.0
H257 H 0.75613 0.91153 0.21589 0.0
H258 H 0.8035 0.92296 0.12495 0.0
H259 H 0.73427 0.89223 0.14076 0.0
H260 H 0.72499 0.92716 0.05106 0.0
H261 H 0.83658 0.88964 0.23727 0.0
H262 H 0.75674 0.9342 0.25648 0.0
H263 H 0.80477 0.94597 0.16276 0.0
C264 C 0.9987 0.56839 0.85766 0.0
C265 C 0.97947 0.56787 0.84456 0.0
N266 N 0.97187 0.58068 0.84895 0.0
N267 N 1.0033 0.58141 0.8715 0.0
C268 C 0.98682 0.58876 0.86389 0.0
H269 H 1.00859 0.5597 0.85795 0.0
Co270 Co 0.02802 0.58727 0.89285 0.0
C271 C 1.00221 0.59865 0.97678 0.0
O272 O 0.98606 0.59243 0.96389 0.0
N273 N 0.05287 0.59305 0.91332 0.0
C274 C 0.07816 0.59699 0.96208 0.0
C275 C 0.05918 0.59273 0.96032 0.0
C276 C 0.06839 0.59758 0.88711 0.0
N277 N 0.08399 0.60002 0.916 0.0
O278 O 0.02583 0.60314 0.85126 0.0
H279 H 0.05059 0.58937 0.99146 0.0
H280 H 0.06848 0.59876 0.84757 0.0
O281 O 1.01756 0.59716 0.95073 0.0
C282 C 0.03167 0.59861 0.80966 0.0
O283 O 0.03745 0.58564 0.8068 0.0
N284 N 0.03109 0.57087 0.92855 0.0
C285 C 0.0349 0.54351 0.95937 0.0
C286 C 1.02123 0.5523 0.98153 0.0
C287 C 1.0195 0.56598 0.96545 0.0
C288 C 0.04508 0.56266 0.90839 0.0
C289 C 0.04735 0.54898 0.92349 0.0
H290 H 1.00804 0.57219 0.98056 0.0
H291 H 0.05392 0.56658 0.87853 0.0
H292 H 0.9857 0.59978 0.87065 0.0
H293 H 0.97154 0.5586 0.83481 0.0
H294 H 0.08695 0.59791 0.9949 0.0
H295 H 1.01114 0.54842 0.00888 0.0
H296 H 0.05825 0.54259 0.90586 0.0
C297 C 0.30054 0.6659 0.80343 0.0
C298 C 0.32032 0.66737 0.79888 0.0
N299 N 0.32898 0.65904 0.83211 0.0
N300 N 0.29662 0.65664 0.83922 0.0
C301 C 0.31425 0.65261 0.85596 0.0
H302 H 0.28967 0.67148 0.78269 0.0
Co303 Co 0.27162 0.65228 0.86113 0.0
C304 C 0.27763 0.6288 0.92782 0.0
O305 O 0.2656 0.62136 0.90124 0.0
N306 N 0.24627 0.64803 0.88431 0.0
C307 C 0.22183 0.64572 0.93742 0.0
C308 C 0.24092 0.64934 0.93198 0.0
C309 C 0.22997 0.64341 0.86153 0.0
N310 N 0.21489 0.642 0.89315 0.0
O311 O 0.27088 0.63725 0.8155 0.0
H312 H 0.25041 0.65256 0.96146 0.0
H313 H 0.22902 0.64119 0.82265 0.0
O314 O 0.28211 0.64099 0.91369 0.0
C315 C 0.26391 0.64254 0.77624 0.0
O316 O 0.25805 0.6555 0.77758 0.0
N317 N 0.27198 0.66791 0.90038 0.0
C318 C 0.26938 0.69333 0.94781 0.0
C319 C 0.28121 0.68273 0.96687 0.0
C320 C 0.28251 0.67007 0.94214 0.0
C321 C 0.2607 0.67809 0.88104 0.0
C322 C 0.2592 0.69089 0.90404 0.0
H323 H 0.29193 0.66211 0.95651 0.0
H324 H 0.25288 0.67623 0.84721 0.0
H325 H 0.31628 0.64549 0.88628 0.0
H326 H 0.32771 0.67414 0.77319 0.0
H327 H 0.21378 0.6455 0.97165 0.0
H328 H 0.28933 0.68418 0.00055 0.0
H329 H 0.25039 0.69885 0.88709 0.0
C330 C 0.98762 0.65866 0.45006 0.0
C331 C 0.96777 0.65882 0.44835 0.0
N332 N 0.96213 0.65578 0.40217 0.0
N333 N 0.99473 0.65542 0.40531 0.0
C334 C 0.9788 0.65367 0.37668 0.0
H335 H 0.99634 0.66111 0.48187 0.0
Co336 Co 1.02143 0.65527 0.3926 0.0
C337 C 1.01851 0.62916 0.33088 0.0
O338 O 0.02353 0.62028 0.36523 0.0
N339 N 0.04839 0.65533 0.38165 0.0
C340 C 0.07853 0.66346 0.37917 0.0
C341 C 0.05927 0.66694 0.38253 0.0
C342 C 0.06143 0.64485 0.37831 0.0
N343 N 0.07997 0.64955 0.37695 0.0
O344 O 0.02458 0.64141 0.44235 0.0
H345 H 0.05356 0.67731 0.38671 0.0
H346 H 0.05746 0.63402 0.37935 0.0
O347 O 1.01757 0.64203 0.34063 0.0
C348 C 0.03133 0.64697 0.48132 0.0
O349 O 0.0359 0.6602 0.48008 0.0
N350 N 1.01851 0.66955 0.34679 0.0
C351 C 1.0194 0.69316 0.28855 0.0
C352 C 0.02684 0.68065 0.27068 0.0
C353 C 0.02612 0.66887 0.30037 0.0
C354 C 1.01086 0.68161 0.3642 0.0
C355 C 1.01089 0.69354 0.33527 0.0
H356 H 0.0329 0.65946 0.28732 0.0
H357 H 1.00553 0.68217 0.40158 0.0
H358 H 0.97944 0.65142 0.3377 0.0
H359 H 0.95819 0.66111 0.47888 0.0
H360 H 0.09054 0.67069 0.37886 0.0
H361 H 0.03374 0.68013 0.23489 0.0
H362 H 1.00534 0.70315 0.35033 0.0
C363 C 0.29073 0.57217 0.40865 0.0
C364 C 0.31037 0.57012 0.41427 0.0
N365 N 0.31988 0.57927 0.38543 0.0
N366 N 0.28775 0.58258 0.3765 0.0
C367 C 0.30577 0.58674 0.3631 0.0
H368 H 0.27931 0.56629 0.42631 0.0
Co369 Co 0.26334 0.58854 0.35513 0.0
C370 C 0.27268 0.61197 0.29004 0.0
O371 O 0.26133 0.62011 0.31604 0.0
N372 N 0.23863 0.59443 0.33268 0.0
C373 C 0.21487 0.59956 0.28028 0.0
C374 C 0.23333 0.59444 0.28481 0.0
C375 C 0.22287 0.5995 0.35664 0.0
N376 N 0.20826 0.60279 0.32543 0.0
O377 O 0.26441 0.60324 0.40194 0.0
H378 H 0.24246 0.59108 0.25469 0.0
H379 H 0.22219 0.60108 0.39598 0.0
O380 O 0.27527 0.59948 0.30365 0.0
C381 C 0.25755 0.59803 0.44151 0.0
O382 O 0.25034 0.58542 0.43971 0.0
N383 N 0.26191 0.57324 0.31445 0.0
C384 C 0.25931 0.54756 0.26966 0.0
C385 C 0.27148 0.55781 0.24995 0.0
C386 C 0.27281 0.57064 0.27349 0.0
C387 C 0.24965 0.56351 0.33311 0.0
C388 C 0.24815 0.55054 0.31132 0.0
H389 H 0.28299 0.57822 0.25974 0.0
H390 H 0.24145 0.56574 0.36611 0.0
H391 H 0.30854 0.59481 0.33637 0.0
H392 H 0.31707 0.56245 0.43783 0.0
H393 H 0.2069 0.60076 0.24626 0.0
H394 H 0.28049 0.55568 0.21814 0.0
H395 H 0.23868 0.54279 0.32744 0.0
C396 C 0.04762 0.41345 0.18941 0.0
C397 C 0.06736 0.4141 0.19699 0.0
N398 N 0.07616 0.40673 0.16141 0.0
N399 N 0.04393 0.40552 0.14964 0.0
C400 C 0.0617 0.40165 0.13316 0.0
H401 H 0.03666 0.41847 0.2116 0.0
Co402 Co 1.019 0.40109 0.12629 0.0
C403 C 0.02644 0.37705 0.06207 0.0
O404 O 1.01433 0.36947 0.08808 0.0
N405 N 0.9938 0.39659 0.10232 0.0
C406 C 0.96962 0.39323 0.04933 0.0
C407 C 0.98858 0.39735 0.0545 0.0
C408 C 0.9776 0.39189 0.12546 0.0
N409 N 0.96264 0.38978 0.09399 0.0
O410 O 1.01791 0.38643 0.17325 0.0
H411 H 0.9981 0.40051 0.02486 0.0
H412 H 0.97667 0.39001 0.16457 0.0
O413 O 0.03001 0.38946 0.0753 0.0
C414 C 1.01097 0.39202 0.21203 0.0
O415 O 1.00421 0.40473 0.20872 0.0
N416 N 1.01992 0.41644 0.08532 0.0
C417 C 1.0224 0.44237 0.04136 0.0
C418 C 0.03508 0.4317 0.02738 0.0
C419 C 0.03367 0.41876 0.05011 0.0
C420 C 1.00719 0.42656 0.09847 0.0
C421 C 1.00806 0.43959 0.07667 0.0
H422 H 0.04426 0.41093 0.04126 0.0
H423 H 0.9968 0.42463 0.12757 0.0
H424 H 0.0641 0.39513 0.10137 0.0
H425 H 0.07472 0.41976 0.22586 0.0
H426 H 0.96178 0.39244 0.01496 0.0
H427 H 0.04637 0.43346 0.00031 0.0
H428 H 0.99826 0.44762 0.08929 0.0
C429 C 0.74361 0.33035 0.20767 0.0
C430 C 0.72371 0.33003 0.20597 0.0
N431 N 0.71804 0.33317 0.15989 0.0
N432 N 0.75065 0.33372 0.16297 0.0
C433 C 0.73468 0.33546 0.13446 0.0
H434 H 0.75243 0.32779 0.23924 0.0
Co435 Co 0.77729 0.33322 0.14974 0.0
C436 C 0.78368 0.34518 0.05112 0.0
O437 O 0.79797 0.33635 0.04509 0.0
N438 N 0.80483 0.33257 0.13861 0.0
C439 C 0.83533 0.32547 0.1277 0.0
C440 C 0.81639 0.32134 0.13299 0.0
C441 C 0.81743 0.34343 0.13737 0.0
N442 N 0.83605 0.33938 0.13034 0.0
O443 O 0.78079 0.34887 0.19143 0.0
H444 H 0.81173 0.3107 0.13283 0.0
H445 H 0.81295 0.35414 0.14073 0.0
O446 O 0.77366 0.34504 0.09093 0.0
C447 C 0.78751 0.34429 0.23204 0.0
O448 O 0.79177 0.33104 0.23548 0.0
N449 N 0.77324 0.31693 0.11474 0.0
C450 C 0.76565 0.29016 0.08199 0.0
C451 C 0.76178 0.30165 0.05171 0.0
C452 C 0.76544 0.31503 0.06907 0.0
C453 C 0.77581 0.30597 0.14555 0.0
C454 C 0.77266 0.29251 0.12961 0.0
H455 H 0.7613 0.32369 0.04637 0.0
H456 H 0.78083 0.30775 0.1827 0.0
H457 H 0.73522 0.33767 0.09545 0.0
H458 H 0.71414 0.32746 0.23626 0.0
H459 H 0.8477 0.31868 0.12315 0.0
H460 H 0.75559 0.30034 0.01542 0.0
H461 H 0.77596 0.28404 0.15439 0.0
C462 C 0.0546 0.31896 0.58643 0.0
C463 C 0.07379 0.31854 0.57266 0.0
N464 N 0.0817 0.33113 0.58028 0.0
N465 N 0.0503 0.33169 0.60374 0.0
C466 C 0.06694 0.33901 0.59779 0.0
H467 H 0.04453 0.31038 0.58491 0.0
Co468 Co 0.02572 0.33719 0.62806 0.0
C469 C 0.05225 0.34769 0.71173 0.0
O470 O 0.06818 0.34117 0.69887 0.0
N471 N 1.00103 0.3427 0.65213 0.0
C472 C 0.97686 0.34582 0.7054 0.0
C473 C 0.99584 0.34183 0.7 0.0
C474 C 0.98481 0.34739 0.62914 0.0
N475 N 0.96987 0.34929 0.66087 0.0
O476 O 0.02705 0.35333 0.58771 0.0
H477 H 1.00521 0.33825 0.72927 0.0
H478 H 0.98373 0.34903 0.58989 0.0
O479 O 0.0369 0.3466 0.68556 0.0
C480 C 1.0202 0.34856 0.54746 0.0
O481 O 1.01454 0.33554 0.54633 0.0
N482 N 1.02325 0.32042 0.66187 0.0
C483 C 1.01958 0.29262 0.68727 0.0
C484 C 0.03382 0.30093 0.70947 0.0
C485 C 0.03546 0.31487 0.69613 0.0
C486 C 1.00876 0.31264 0.64195 0.0
C487 C 1.00653 0.29877 0.65447 0.0
H488 H 0.04726 0.32077 0.71102 0.0
H489 H 0.99941 0.31707 0.61415 0.0
H490 H 0.06833 0.34985 0.60747 0.0
H491 H 0.08152 0.30943 0.5602 0.0
H492 H 0.96882 0.3462 0.73963 0.0
H493 H 0.04433 0.29652 0.73461 0.0
H494 H 0.99514 0.29279 0.63709 0.0
C495 C 0.75294 0.41935 0.59803 0.0
C496 C 0.73325 0.42116 0.5926 0.0
N497 N 0.72398 0.41064 0.61549 0.0
N498 N 0.75622 0.40776 0.62437 0.0
C499 C 0.73834 0.40262 0.63424 0.0
H500 H 0.76418 0.42627 0.58496 0.0
Co501 Co 0.78077 0.40166 0.64485 0.0
C502 C 0.76905 0.37865 0.70962 0.0
O503 O 0.77656 0.36963 0.67884 0.0
N504 N 0.80549 0.39544 0.66627 0.0
C505 C 0.82997 0.39093 0.71715 0.0
C506 C 0.81101 0.39514 0.71394 0.0
C507 C 0.82148 0.39124 0.64114 0.0
N508 N 0.83662 0.38849 0.67138 0.0
O509 O 0.77906 0.38675 0.59945 0.0
H510 H 0.80187 0.39805 0.74464 0.0
H511 H 0.82227 0.39054 0.60148 0.0
O512 O 0.76912 0.39148 0.6986 0.0
C513 C 0.78567 0.39215 0.55995 0.0
O514 O 0.79198 0.40501 0.56164 0.0
N515 N 0.78306 0.41727 0.6839 0.0
C516 C 0.7849 0.44425 0.71892 0.0
C517 C 0.77019 0.43523 0.73514 0.0
C518 C 0.76952 0.42168 0.71704 0.0
C519 C 0.79788 0.42568 0.66959 0.0
C520 C 0.79929 0.43912 0.68734 0.0
H521 H 0.75738 0.41512 0.72672 0.0
H522 H 0.80814 0.42216 0.64219 0.0
H523 H 0.7359 0.39325 0.6552 0.0
H524 H 0.72636 0.42987 0.57466 0.0
H525 H 0.83824 0.38969 0.7507 0.0
H526 H 0.75867 0.43883 0.75904 0.0
H527 H 0.81109 0.44563 0.67465 0.0
C528 C 0.49763 0.07145 0.82055 0.0
C529 C 0.47803 0.06963 0.81395 0.0
N530 N 0.46852 0.07829 0.84458 0.0
N531 N 0.50057 0.08126 0.85493 0.0
C532 C 0.48259 0.08527 0.86884 0.0
H533 H 0.50904 0.06578 0.80211 0.0
Co534 Co 0.52494 0.08647 0.87783 0.0
C535 C 0.51537 0.10975 0.94342 0.0
O536 O 0.52447 0.11824 0.9134 0.0
N537 N 0.5496 0.09159 0.90138 0.0
C538 C 0.57399 0.09515 0.95334 0.0
C539 C 0.55501 0.09105 0.94911 0.0
C540 C 0.56561 0.09612 0.87732 0.0
N541 N 0.58065 0.09833 0.90815 0.0
O542 O 0.52476 0.10171 0.83277 0.0
H543 H 0.5457 0.08785 0.97912 0.0
H544 H 0.56645 0.0976 0.83798 0.0
O545 O 0.51351 0.09703 0.93159 0.0
C546 C 0.53174 0.09677 0.79292 0.0
O547 O 0.53796 0.08389 0.79317 0.0
N548 N 0.52556 0.07065 0.91619 0.0
C549 C 0.52533 0.04384 0.9528 0.0
C550 C 0.51215 0.05369 0.97083 0.0
C551 C 0.51238 0.06713 0.95157 0.0
C552 C 0.53891 0.06136 0.89976 0.0
C553 C 0.53916 0.0479 0.91785 0.0
H554 H 0.5013 0.07438 0.96287 0.0
H555 H 0.54888 0.06428 0.87076 0.0
H556 H 0.47985 0.09282 0.8974 0.0
H557 H 0.47137 0.06243 0.78858 0.0
H558 H 0.58217 0.09596 0.9872 0.0
H559 H 0.5011 0.05083 -0.00265 0.0
H560 H 0.54964 0.04059 0.90336 0.0
C561 C 0.79515 0.16612 0.80822 0.0
C562 C 0.81478 0.1681 0.80275 0.0
N563 N 0.82406 0.16028 0.83648 0.0
N564 N 0.79195 0.15702 0.84495 0.0
C565 C 0.80984 0.15365 0.86153 0.0
H566 H 0.78389 0.17122 0.78729 0.0
Co567 Co 0.76744 0.1519 0.86748 0.0
C568 C 0.77472 0.12793 0.93124 0.0
O569 O 0.76285 0.12055 0.90402 0.0
N570 N 0.74256 0.14696 0.89104 0.0
C571 C 0.71829 0.14371 0.94397 0.0
C572 C 0.73731 0.14758 0.93897 0.0
C573 C 0.72634 0.14252 0.86766 0.0
N574 N 0.71139 0.14055 0.89914 0.0
O575 O 0.76705 0.13727 0.82006 0.0
H576 H 0.74679 0.15054 0.96881 0.0
H577 H 0.72531 0.14088 0.82844 0.0
O578 O 0.77876 0.14032 0.91842 0.0
C579 C 0.75982 0.14269 0.78132 0.0
O580 O 0.75321 0.15545 0.78411 0.0
N581 N 0.76739 0.16714 0.90842 0.0
C582 C 0.76427 0.19227 0.95753 0.0
C583 C 0.77601 0.1816 0.97644 0.0
C584 C 0.77759 0.16909 0.95085 0.0
C585 C 0.7561 0.17737 0.88943 0.0
C586 C 0.75437 0.19002 0.91322 0.0
H587 H 0.78697 0.16108 0.96508 0.0
H588 H 0.74853 0.17567 0.85514 0.0
H589 H 0.81239 0.14683 0.89244 0.0
H590 H 0.82163 0.17481 0.77596 0.0
H591 H 0.71026 0.14297 0.97814 0.0
H592 H 0.78392 0.18289 0.01053 0.0
H593 H 0.74566 0.19805 0.8963 0.0
C594 C 0.4942 0.16319 0.43812 0.0
C595 C 0.47434 0.16256 0.43944 0.0
N596 N 0.46807 0.15615 0.39836 0.0
N597 N 0.50065 0.15723 0.39649 0.0
C598 C 0.48441 0.15306 0.37269 0.0
H599 H 0.50342 0.16799 0.4654 0.0
Co600 Co 0.52703 0.1569 0.38226 0.0
C601 C 0.53232 0.14415 0.28418 0.0
O602 O 0.54694 0.15265 0.27711 0.0
N603 N 0.55441 0.15675 0.37037 0.0
C604 C 0.58522 0.16278 0.35721 0.0
C605 C 0.56662 0.16755 0.36281 0.0
C606 C 0.5663 0.1455 0.37002 0.0
N607 N 0.58506 0.14891 0.36164 0.0
O608 O 0.52983 0.14148 0.42579 0.0
H609 H 0.56267 0.17832 0.36134 0.0
H610 H 0.5612 0.13498 0.37489 0.0
O611 O 0.52255 0.1447 0.3244 0.0
C612 C 0.53639 0.14616 0.46644 0.0
O613 O 0.54127 0.15931 0.46884 0.0
N614 N 0.52363 0.17301 0.3454 0.0
C615 C 0.51877 0.19947 0.30731 0.0
C616 C 0.51302 0.18787 0.27997 0.0
C617 C 0.51534 0.17462 0.30008 0.0
C618 C 0.52747 0.18428 0.37389 0.0
C619 C 0.52571 0.19761 0.35511 0.0
H620 H 0.51003 0.16585 0.27961 0.0
H621 H 0.53257 0.18283 0.41117 0.0
H622 H 0.48455 0.14796 0.33727 0.0
H623 H 0.46522 0.16694 0.46789 0.0
H624 H 0.59799 0.16911 0.35115 0.0
H625 H 0.50692 0.18905 0.24349 0.0
H626 H 0.52964 0.20639 0.37782 0.0
C627 C 0.79523 0.07534 0.42843 0.0
C628 C 0.81501 0.07443 0.43415 0.0
N629 N 0.82366 0.08141 0.39705 0.0
N630 N 0.79124 0.08296 0.38819 0.0
C631 C 0.80883 0.08651 0.36982 0.0
H632 H 0.78445 0.07057 0.45188 0.0
Co633 Co 0.76619 0.08655 0.36484 0.0
C634 C 0.77198 0.10896 0.29344 0.0
O635 O 0.75984 0.11667 0.3188 0.0
N636 N 0.7408 0.09008 0.3407 0.0
C637 C 0.71616 0.09182 0.2881 0.0
C638 C 0.73523 0.08803 0.2936 0.0
C639 C 0.72469 0.09515 0.36306 0.0
N640 N 0.70948 0.09631 0.33184 0.0
O641 O 0.76503 0.10234 0.40712 0.0
H642 H 0.74461 0.08425 0.26462 0.0
H643 H 0.72401 0.09798 0.40143 0.0
O644 O 0.77655 0.09698 0.30953 0.0
C645 C 0.75812 0.09759 0.44738 0.0
O646 O 0.75209 0.08465 0.44827 0.0
N647 N 0.7671 0.07023 0.32944 0.0
C648 C 0.77004 0.04293 0.29857 0.0
C649 C 0.78187 0.05321 0.2775 0.0
C650 C 0.78024 0.06691 0.29375 0.0
C651 C 0.75501 0.0605 0.34873 0.0
C652 C 0.75609 0.0468 0.33347 0.0
H653 H 0.7902 0.0746 0.2797 0.0
H654 H 0.745 0.06333 0.37771 0.0
H655 H 0.8107 0.09237 0.33626 0.0
H656 H 0.82233 0.069 0.46358 0.0
H657 H 0.70806 0.0917 0.25402 0.0
H658 H 0.79294 0.05057 0.25077 0.0
H659 H 0.74649 0.03922 0.35004 0.0
C660 C 0.54981 0.9127 0.18681 0.0
C661 C 0.56955 0.91451 0.1905 0.0
N662 N 0.5781 0.90826 0.15184 0.0
N663 N 0.54571 0.90524 0.14622 0.0
C664 C 0.56331 0.90278 0.12543 0.0
H665 H 0.5391 0.91675 0.21204 0.0
Co666 Co 0.52003 0.90094 0.1272 0.0
C667 C 0.5386 0.87968 0.05944 0.0
O668 O 0.54787 0.87259 0.09336 0.0
N669 N 0.4941 0.89671 0.10745 0.0
C670 C 0.46873 0.8941 0.05743 0.0
C671 C 0.48756 0.8986 0.06105 0.0
C672 C 0.47867 0.89106 0.13145 0.0
N673 N 0.4631 0.88931 0.10168 0.0
O674 O 0.52039 0.88541 0.17082 0.0
H675 H 0.49601 0.90292 0.03123 0.0
H676 H 0.47887 0.88788 0.16956 0.0
O677 O 0.52857 0.89026 0.07114 0.0
C678 C 0.51369 0.89028 0.21112 0.0
O679 O 0.50705 0.90305 0.21126 0.0
N680 N 0.51949 0.91697 0.08992 0.0
C681 C 0.5189 0.94339 0.0497 0.0
C682 C 0.5312 0.93318 0.03016 0.0
C683 C 0.53129 0.91993 0.05094 0.0
C684 C 0.50737 0.92672 0.10899 0.0
C685 C 0.50669 0.93998 0.08912 0.0
H686 H 0.54126 0.91226 0.03681 0.0
H687 H 0.49853 0.92423 0.14072 0.0
H688 H 0.56534 0.89756 0.09072 0.0
H689 H 0.57701 0.91995 0.21968 0.0
H690 H 0.45986 0.89436 0.0246 0.0
H691 H 0.54086 0.93549 -0.00023 0.0
H692 H 0.49729 0.94765 0.10579 0.0
C693 C 0.2435 0.82448 0.21044 0.0
C694 C 0.22366 0.82463 0.20662 0.0
N695 N 0.21881 0.83232 0.1672 0.0
N696 N 0.25131 0.83198 0.1735 0.0
C697 C 0.23583 0.83674 0.14768 0.0
H698 H 0.25178 0.81873 0.23732 0.0
Co699 Co 0.27818 0.83215 0.16324 0.0
C700 C 0.28486 0.84401 0.06524 0.0
O701 O 0.29853 0.83465 0.05984 0.0
N702 N 0.30595 0.83214 0.15494 0.0
C703 C 0.33683 0.82567 0.14615 0.0
C704 C 0.31797 0.82124 0.14755 0.0
C705 C 0.31824 0.84316 0.1579 0.0
N706 N 0.33715 0.83947 0.15299 0.0
O707 O 0.28036 0.84726 0.20815 0.0
H708 H 0.31377 0.8106 0.14283 0.0
H709 H 0.3134 0.85368 0.1642 0.0
O710 O 0.2753 0.8446 0.10573 0.0
C711 C 0.28389 0.84132 0.24919 0.0
O712 O 0.28747 0.82794 0.24901 0.0
N713 N 0.2751 0.81615 0.12528 0.0
C714 C 0.26828 0.78981 0.08718 0.0
C715 C 0.26297 0.80169 0.06048 0.0
C716 C 0.26609 0.81481 0.08075 0.0
C717 C 0.27875 0.80472 0.15313 0.0
C718 C 0.27608 0.79149 0.13434 0.0
H719 H 0.26054 0.82372 0.06137 0.0
H720 H 0.28424 0.80592 0.19012 0.0
H721 H 0.23698 0.84263 0.11389 0.0
H722 H 0.21352 0.8192 0.23026 0.0
H723 H 0.34938 0.81917 0.13969 0.0
H724 H 0.25599 0.80085 0.02494 0.0
H725 H 0.28029 0.78268 0.15662 0.0
C726 C 0.54724 0.81939 0.57783 0.0
C727 C 0.56694 0.81775 0.57202 0.0
N728 N 0.57605 0.8274 0.59942 0.0
N729 N 0.54385 0.83003 0.60872 0.0
C730 C 0.56167 0.83476 0.62105 0.0
H731 H 0.53605 0.81304 0.5614 0.0
Co732 Co 0.51918 0.8354 0.63016 0.0
C733 C 0.53516 0.85778 0.69697 0.0
O734 O 0.53464 0.86787 0.6645 0.0
N735 N 0.49433 0.84079 0.6525 0.0
C736 C 0.47001 0.84459 0.70465 0.0
C737 C 0.48899 0.84055 0.70033 0.0
C738 C 0.4782 0.84512 0.62838 0.0
N739 N 0.46315 0.84743 0.65942 0.0
O740 O 0.52006 0.85068 0.58546 0.0
H741 H 0.49828 0.83747 0.73041 0.0
H742 H 0.47731 0.84634 0.58891 0.0
O743 O 0.53005 0.84559 0.6847 0.0
C744 C 0.51364 0.84528 0.54574 0.0
O745 O 0.50732 0.83242 0.5475 0.0
N746 N 0.51792 0.81958 0.66862 0.0
C747 C 0.51719 0.79314 0.70876 0.0
C748 C 0.53099 0.80287 0.72453 0.0
C749 C 0.5312 0.81608 0.70367 0.0
C750 C 0.5041 0.81041 0.65387 0.0
C751 C 0.50336 0.79714 0.67378 0.0
H752 H 0.54264 0.82318 0.71379 0.0
H753 H 0.49412 0.81325 0.62488 0.0
H754 H 0.56413 0.8431 0.64675 0.0
H755 H 0.57396 0.80998 0.54951 0.0
H756 H 0.46196 0.84555 0.7387 0.0
H757 H 0.54192 0.80013 0.75144 0.0
H758 H 0.49273 0.78986 0.6599 0.0
C759 C 0.24706 0.9202 0.61532 0.0
C760 C 0.22768 0.92024 0.6039 0.0
N761 N 0.22021 0.90775 0.61534 0.0
N762 N 0.25192 0.90785 0.63509 0.0
C763 C 0.23533 0.90031 0.63302 0.0
H764 H 0.25697 0.92875 0.60978 0.0
Co765 Co 0.27739 0.90318 0.6543 0.0
C766 C 0.25455 0.8923 0.74509 0.0
O767 O 0.23732 0.89721 0.73432 0.0
N768 N 0.30303 0.89865 0.67233 0.0
C769 C 0.33004 0.89732 0.71673 0.0
C770 C 0.31099 0.90142 0.71658 0.0
C771 C 0.31767 0.89289 0.64602 0.0
N772 N 0.33431 0.89198 0.67227 0.0
O773 O 0.27515 0.8863 0.61884 0.0
H774 H 0.30355 0.90649 0.74659 0.0
H775 H 0.31638 0.88973 0.60807 0.0
O776 O 0.26899 0.8944 0.7163 0.0
C777 C 0.27879 0.88956 0.5743 0.0
O778 O 0.28355 0.90242 0.56384 0.0
N779 N 0.28016 0.92043 0.68407 0.0
C780 C 0.2822 0.9486 0.7041 0.0
C781 C 0.26928 0.94006 0.73024 0.0
C782 C 0.26847 0.92591 0.71959 0.0
C783 C 0.29343 0.92846 0.66016 0.0
C784 C 0.29487 0.94254 0.67005 0.0
H785 H 0.25751 0.91971 0.73724 0.0
H786 H 0.30225 0.92402 0.63126 0.0
H787 H 0.23436 0.88957 0.64437 0.0
H788 H 0.21961 0.929 0.5897 0.0
H789 H 0.33994 0.89815 0.74746 0.0
H790 H 0.25906 0.94437 0.75636 0.0
H791 H 0.30526 0.94872 0.64963 0.0
C792 C 0.49268 0.57285 0.30585 0.0
C793 C 0.47296 0.57168 0.29919 0.0
N794 N 0.46402 0.58071 0.3295 0.0
N795 N 0.49628 0.58262 0.34001 0.0
C796 C 0.47852 0.58724 0.35373 0.0
H797 H 0.5037 0.56663 0.28808 0.0
Co798 Co 0.52098 0.58687 0.36419 0.0
C799 C 0.51445 0.6109 0.42764 0.0
O800 O 0.52696 0.61806 0.40136 0.0
N801 N 0.54601 0.59108 0.3895 0.0
C802 C 0.56976 0.59363 0.44426 0.0
C803 C 0.55073 0.58995 0.43762 0.0
C804 C 0.56256 0.59565 0.36771 0.0
N805 N 0.57723 0.59721 0.40032 0.0
O806 O 0.52288 0.60142 0.31699 0.0
H807 H 0.54084 0.5868 0.46647 0.0
H808 H 0.56399 0.59775 0.32881 0.0
O809 O 0.50991 0.59868 0.41425 0.0
C810 C 0.53011 0.59557 0.27905 0.0
O811 O 0.53566 0.58257 0.28285 0.0
N812 N 0.5194 0.57165 0.40537 0.0
C813 C 0.51736 0.54606 0.45155 0.0
C814 C 0.50447 0.55669 0.46466 0.0
C815 C 0.50571 0.56951 0.44092 0.0
C816 C 0.53209 0.56148 0.39255 0.0
C817 C 0.53146 0.54863 0.41552 0.0
H818 H 0.49523 0.57746 0.44968 0.0
H819 H 0.54242 0.56328 0.3632 0.0
H820 H 0.47621 0.59508 0.38154 0.0
H821 H 0.46576 0.56432 0.27536 0.0
H822 H 0.57739 0.59398 0.47903 0.0
H823 H 0.49331 0.55501 0.49213 0.0
H824 H 0.54137 0.54059 0.40355 0.0
C825 C 0.79321 0.67091 0.35486 0.0
C826 C 0.81227 0.67156 0.3401 0.0
N827 N 0.82014 0.65884 0.34446 0.0
N828 N 0.78901 0.65789 0.36958 0.0
C829 C 0.80554 0.65067 0.36103 0.0
H830 H 0.78315 0.6795 0.35558 0.0
Co831 Co 0.76451 0.65188 0.39249 0.0
C832 C 0.79108 0.63999 0.47375 0.0
O833 O 0.80712 0.64639 0.46084 0.0
N834 N 0.73988 0.64593 0.41466 0.0
C835 C 0.71517 0.64172 0.46528 0.0
C836 C 0.73408 0.6461 0.46214 0.0
C837 C 0.72414 0.64135 0.38958 0.0
N838 N 0.70889 0.63875 0.41962 0.0
O839 O 0.76615 0.63638 0.34942 0.0
H840 H 0.74298 0.64942 0.49269 0.0
H841 H 0.72363 0.64022 0.35004 0.0
O842 O 0.77558 0.64164 0.44854 0.0
C843 C 0.75979 0.64155 0.30926 0.0
O844 O 0.75413 0.65457 0.30928 0.0
N845 N 0.76186 0.66803 0.42955 0.0
C846 C 0.75838 0.69527 0.4613 0.0
C847 C 0.77242 0.68649 0.48192 0.0
C848 C 0.77398 0.67284 0.46535 0.0
C849 C 0.74751 0.67623 0.41113 0.0
C850 C 0.74539 0.68985 0.42677 0.0
H851 H 0.7857 0.66663 0.47902 0.0
H852 H 0.73826 0.67237 0.38208 0.0
H853 H 0.80697 0.63967 0.36805 0.0
H854 H 0.81997 0.68086 0.32919 0.0
H855 H 0.70673 0.6407 0.49871 0.0
H856 H 0.78289 0.69035 0.50822 0.0
H857 H 0.73421 0.69625 0.4104 0.0
C858 C 0.50171 0.66389 0.91525 0.0
C859 C 0.48204 0.66551 0.92211 0.0
N860 N 0.47268 0.65631 0.8933 0.0
N861 N 0.50483 0.6537 0.88233 0.0
C862 C 0.48688 0.64924 0.86979 0.0
H863 H 0.51303 0.67005 0.93198 0.0
Co864 Co 0.52919 0.64857 0.85788 0.0
C865 C 0.51991 0.62599 0.78974 0.0
O866 O 0.53154 0.61768 0.81416 0.0
N867 N 0.55383 0.64343 0.83239 0.0
C868 C 0.57726 0.63944 0.7777 0.0
C869 C 0.55878 0.64439 0.78437 0.0
C870 C 0.56978 0.63796 0.85424 0.0
N871 N 0.5842 0.63535 0.82164 0.0
O872 O 0.52918 0.63323 0.90195 0.0
H873 H 0.54939 0.64829 0.75565 0.0
H874 H 0.57071 0.63557 0.89301 0.0
O875 O 0.51712 0.63828 0.80522 0.0
C876 C 0.53645 0.63819 0.94135 0.0
O877 O 0.54323 0.65093 0.94031 0.0
N878 N 0.5295 0.66449 0.8201 0.0
C879 C 0.5279 0.69166 0.78731 0.0
C880 C 0.51477 0.68178 0.76922 0.0
C881 C 0.51574 0.66815 0.78644 0.0
C882 C 0.54295 0.67378 0.836 0.0
C883 C 0.54253 0.68742 0.81971 0.0
H884 H 0.50469 0.66086 0.77535 0.0
H885 H 0.55341 0.67073 0.86358 0.0
H886 H 0.48423 0.64108 0.84338 0.0
H887 H 0.47519 0.67326 0.94504 0.0
H888 H 0.58501 0.63894 0.74307 0.0
H889 H 0.50315 0.68474 0.74456 0.0
H890 H 0.55305 0.69472 0.834 0.0
C891 C 0.80411 0.58662 0.95933 0.0
C892 C 0.82401 0.58698 0.9591 0.0
N893 N 0.83011 0.58801 0.91214 0.0
N894 N 0.79752 0.58747 0.91275 0.0
C895 C 0.81374 0.58838 0.88464 0.0
H896 H 0.79506 0.5853 0.99149 0.0
Co897 Co 0.77131 0.58569 0.89588 0.0
C898 C 0.77392 0.61024 0.82804 0.0
O899 O 0.76843 0.61937 0.86109 0.0
N900 N 0.74483 0.58389 0.87988 0.0
C901 C 0.71543 0.5747 0.87207 0.0
C902 C 0.73478 0.5719 0.87902 0.0
C903 C 0.73121 0.59387 0.8738 0.0
N904 N 0.71309 0.58856 0.86925 0.0
O905 O 0.76533 0.60059 0.9393 0.0
H906 H 0.74102 0.56174 0.88472 0.0
H907 H 0.73441 0.60483 0.87545 0.0
O908 O 0.7753 0.5975 0.83959 0.0
C909 C 0.75799 0.59538 0.97829 0.0
O910 O 0.75458 0.58197 0.97941 0.0
N911 N 0.77713 0.57029 0.8578 0.0
C912 C 0.78272 0.54479 0.81306 0.0
C913 C 0.77522 0.55597 0.78608 0.0
C914 C 0.77258 0.56875 0.80924 0.0
C915 C 0.7845 0.55953 0.88431 0.0
C916 C 0.78768 0.54674 0.86246 0.0
H917 H 0.76591 0.57713 0.789 0.0
H918 H 0.78728 0.56078 0.9232 0.0
H919 H 0.81358 0.5886 0.84482 0.0
H920 H 0.83331 0.58627 0.99107 0.0
H921 H 0.70397 0.56706 0.87005 0.0
H922 H 0.77101 0.55472 0.74795 0.0
H923 H 0.79306 0.53824 0.88469 0.0
C924 C 0.55113 0.42302 0.63928 0.0
C925 C 0.5703 0.42466 0.65196 0.0
N926 N 0.57914 0.4122 0.64972 0.0
N927 N 0.54778 0.40963 0.62792 0.0
C928 C 0.56492 0.40321 0.63678 0.0
H929 H 0.5405 0.43123 0.63681 0.0
Co930 Co 0.52415 0.40217 0.6043 0.0
C931 C 0.55292 0.39187 0.52529 0.0
O932 O 0.5677 0.39971 0.53759 0.0
N933 N 0.50047 0.39471 0.58071 0.0
C934 C 0.47752 0.3889 0.52705 0.0
C935 C 0.49592 0.39406 0.53245 0.0
C936 C 0.48441 0.38984 0.60403 0.0
N937 N 0.47017 0.38628 0.57203 0.0
O938 O 0.5271 0.38699 0.64855 0.0
H939 H 0.50529 0.39741 0.50277 0.0
H940 H 0.48295 0.38925 0.6436 0.0
O941 O 0.53709 0.39242 0.54991 0.0
C942 C 0.51977 0.39202 0.68788 0.0
O943 O 0.51246 0.40461 0.68611 0.0
N944 N 0.51995 0.41799 0.56624 0.0
C945 C 0.51321 0.44489 0.53389 0.0
C946 C 0.52816 0.43692 0.51308 0.0
C947 C 0.53133 0.42342 0.52989 0.0
C948 C 0.50469 0.42533 0.58465 0.0
C949 C 0.50094 0.43874 0.56871 0.0
H950 H 0.54362 0.41786 0.51581 0.0
H951 H 0.49595 0.42098 0.6139 0.0
H952 H 0.56711 0.39221 0.63141 0.0
H953 H 0.57737 0.43444 0.65949 0.0
H954 H 0.47016 0.38714 0.49246 0.0
H955 H 0.53807 0.44135 0.4864 0.0
H956 H 0.48906 0.44446 0.58513 0.0
C957 C 0.25069 0.33308 0.68021 0.0
C958 C 0.23082 0.33364 0.68081 0.0
N959 N 0.22454 0.33623 0.63482 0.0
N960 N 0.25719 0.33541 0.63417 0.0
C961 C 0.24086 0.33742 0.60712 0.0
H962 H 0.2598 0.33058 0.71127 0.0
Co963 Co 0.28361 0.3333 0.61945 0.0
C964 C 0.29029 0.34299 0.51859 0.0
O965 O 0.3017 0.33216 0.51392 0.0
N966 N 0.31093 0.33111 0.607 0.0
C967 C 0.34103 0.32297 0.59808 0.0
C968 C 0.32177 0.31948 0.60267 0.0
C969 C 0.3242 0.34153 0.6051 0.0
N970 N 0.34261 0.33686 0.59984 0.0
O971 O 0.28927 0.34887 0.66047 0.0
H972 H 0.31644 0.309 0.60352 0.0
H973 H 0.3204 0.35238 0.60774 0.0
O974 O 0.28119 0.34496 0.55932 0.0
C975 C 0.29608 0.34389 0.70048 0.0
O976 O 0.29881 0.33043 0.70347 0.0
N977 N 0.27742 0.31704 0.58599 0.0
C978 C 0.26664 0.29053 0.55625 0.0
C979 C 0.26257 0.30208 0.5265 0.0
C980 C 0.26778 0.31534 0.5425 0.0
C981 C 0.2801 0.30606 0.61667 0.0
C982 C 0.27539 0.29271 0.60209 0.0
H983 H 0.26347 0.32412 0.52054 0.0
H984 H 0.28636 0.30772 0.65266 0.0
H985 H 0.24086 0.33897 0.56769 0.0
H986 H 0.22165 0.33191 0.71261 0.0
H987 H 0.35301 0.31576 0.59528 0.0
H988 H 0.25509 0.30093 0.49174 0.0
H989 H 0.27885 0.28418 0.62646 0.0
C990 C 0.54704 0.32169 0.06471 0.0
C991 C 0.56675 0.31997 0.05858 0.0
N992 N 0.57601 0.33077 0.07963 0.0
N993 N 0.54376 0.3335 0.08969 0.0
C994 C 0.56163 0.33886 0.09787 0.0
H995 H 0.53583 0.31457 0.05305 0.0
Co996 Co 0.51949 0.33995 0.11113 0.0
C997 C 0.53059 0.36304 0.17526 0.0
O998 O 0.52025 0.37156 0.14816 0.0
N999 N 0.4951 0.34654 0.13407 0.0
C1000 C 0.47215 0.35232 0.18802 0.0
C1001 C 0.49 0.34631 0.1821 0.0
C1002 C 0.47981 0.35271 0.11137 0.0
N1003 N 0.4657 0.35643 0.14364 0.0
O1004 O 0.52134 0.35467 0.06466 0.0
H1005 H 0.49891 0.34223 0.21145 0.0
H1006 H 0.47922 0.35482 0.07232 0.0
O1007 O 0.53194 0.35034 0.16298 0.0
C1008 C 0.51461 0.34922 0.02545 0.0
O1009 O 0.50717 0.33669 0.02841 0.0
N1010 N 0.51719 0.32451 0.15118 0.0
C1011 C 0.51423 0.29825 0.19184 0.0
C1012 C 0.52786 0.30773 0.21016 0.0
C1013 C 0.52931 0.32087 0.18871 0.0
C1014 C 0.50343 0.31559 0.13434 0.0
C1015 C 0.50168 0.30238 0.15419 0.0
H1016 H 0.54072 0.32777 0.20047 0.0
H1017 H 0.49431 0.31859 0.10377 0.0
H1018 H 0.56403 0.34848 0.11731 0.0
H1019 H 0.57366 0.31111 0.04159 0.0
H1020 H 0.46449 0.35357 0.22253 0.0
H1021 H 0.53797 0.30474 0.23875 0.0
H1022 H 0.49102 0.29528 0.13922 0.0
C1023 C 0.24356 0.39713 0.0461 0.0
C1024 C 0.22386 0.39528 0.05005 0.0
N1025 N 0.21862 0.39809 0.09658 0.0
N1026 N 0.25092 0.4009 0.09016 0.0
C1027 C 0.2352 0.40149 0.12027 0.0
H1028 H 0.25185 0.39607 0.01258 0.0
Co1029 Co 0.2774 0.40485 0.10061 0.0
C1030 C 0.28615 0.39785 0.20391 0.0
O1031 O 0.29758 0.40875 0.20427 0.0
N1032 N 0.30457 0.40864 0.10931 0.0
C1033 C 0.33404 0.41819 0.10977 0.0
C1034 C 0.31443 0.42075 0.1075 0.0
C1035 C 0.31874 0.3989 0.11299 0.0
N1036 N 0.33682 0.4044 0.11278 0.0
O1037 O 0.28419 0.38845 0.06472 0.0
H1038 H 0.3081 0.43091 0.10367 0.0
H1039 H 0.31582 0.38789 0.11391 0.0
O1040 O 0.27676 0.39482 0.16455 0.0
C1041 C 0.29036 0.39279 0.02307 0.0
O1042 O 0.2909 0.40622 0.01502 0.0
N1043 N 0.27033 0.4218 0.12877 0.0
C1044 C 0.26216 0.44916 0.15225 0.0
C1045 C 0.25932 0.43867 0.18721 0.0
C1046 C 0.26329 0.42492 0.1745 0.0
C1047 C 0.27112 0.43175 0.09325 0.0
C1048 C 0.26757 0.44556 0.10441 0.0
H1049 H 0.26054 0.41697 0.20145 0.0
H1050 H 0.27548 0.42897 0.05632 0.0
H1051 H 0.23577 0.40438 0.15864 0.0
H1052 H 0.21398 0.3926 0.02059 0.0
H1053 H 0.34537 0.42596 0.10884 0.0
H1054 H 0.25461 0.44111 0.22424 0.0
H1055 H 0.26936 0.45339 0.07615 0.0
C1056 C 0.99927 0.10551 0.50751 0.0
C1057 C 1.01336 0.11341 0.48277 0.0
C1058 C 0.99616 0.10704 0.55839 0.0
C1059 C 1.00754 0.11662 0.58529 0.0
C1060 C 1.02119 0.12503 0.56012 0.0
C1061 C 0.02384 0.12339 0.50921 0.0
C1062 C 0.98122 0.09805 0.58363 0.0
C1063 C 0.03367 0.13536 0.58737 0.0
C1064 C 0.99561 0.12947 0.714 0.0
C1065 C 1.00877 0.12185 0.74269 0.0
C1066 C 0.99412 0.12728 0.66302 0.0
C1067 C 1.00621 0.11733 0.64007 0.0
C1068 C 1.01856 0.10898 0.66936 0.0
C1069 C 1.0196 0.11128 0.72034 0.0
C1070 C 0.98048 0.13623 0.6334 0.0
C1071 C 0.03174 0.09827 0.64643 0.0
H1072 H 0.99096 0.09786 0.48734 0.0
H1073 H 0.03479 0.12953 0.49057 0.0
H1074 H 0.98862 0.09048 0.60793 0.0
H1075 H 0.97161 0.10446 0.60722 0.0
H1076 H 0.97214 0.09225 0.55691 0.0
H1077 H 0.043 0.14153 0.56218 0.0
H1078 H 0.02444 0.14257 0.60884 0.0
H1079 H 0.04314 0.12982 0.6139 0.0
H1080 H 0.98705 0.13757 0.73108 0.0
H1081 H 0.02988 0.10538 0.74207 0.0
H1082 H 0.97219 0.12985 0.60675 0.0
H1083 H 0.98899 0.14391 0.61196 0.0
H1084 H 0.97007 0.14193 0.65719 0.0
H1085 H 0.0234 0.09139 0.62156 0.0
H1086 H 0.03915 0.09178 0.6745 0.0
H1087 H 0.04297 0.10355 0.62385 0.0
C1088 C 0.29847 0.13282 0.50896 0.0
C1089 C 0.28501 0.12439 0.48436 0.0
C1090 C 0.30109 0.13181 0.56012 0.0
C1091 C 0.28987 0.12219 0.58739 0.0
C1092 C 0.27711 0.1131 0.56236 0.0
C1093 C 0.27491 0.11425 0.51114 0.0
C1094 C 0.31513 0.1415 0.58522 0.0
C1095 C 0.26488 0.10268 0.59003 0.0
C1096 C 0.30003 0.11153 0.71944 0.0
C1097 C 0.28584 0.11907 0.74506 0.0
C1098 C 0.30242 0.11306 0.66838 0.0
C1099 C 0.2902 0.12228 0.64227 0.0
C1100 C 0.27682 0.13064 0.66849 0.0
C1101 C 0.27489 0.129 0.71964 0.0
C1102 C 0.31714 0.10415 0.64208 0.0
C1103 C 0.2635 0.14061 0.6421 0.0
H1104 H 0.30651 0.14057 0.48843 0.0
H1105 H 0.26445 0.10771 0.49256 0.0
H1106 H 0.30692 0.14931 0.60675 0.0
H1107 H 0.32445 0.13572 0.61139 0.0
H1108 H 0.32455 0.14704 0.55844 0.0
H1109 H 0.25655 0.09581 0.56495 0.0
H1110 H 0.27417 0.09614 0.61392 0.0
H1111 H 0.25448 0.1082 0.61429 0.0
H1112 H 0.30869 0.10393 0.73899 0.0
H1113 H 0.26382 0.13482 0.73904 0.0
H1114 H 0.32542 0.11036 0.6148 0.0
H1115 H 0.30952 0.09582 0.62169 0.0
H1116 H 0.32752 0.09925 0.66806 0.0
H1117 H 0.27194 0.14741 0.61706 0.0
H1118 H 0.25515 0.14721 0.66805 0.0
H1119 H 0.25308 0.13469 0.61918 0.0
C1120 C 0.02396 0.87566 0.44622 0.0
C1121 C 0.04254 0.87939 0.46262 0.0
C1122 C 1.02113 0.86984 0.39946 0.0
C1123 C 0.03733 0.86724 0.36871 0.0
C1124 C 0.05622 0.87047 0.38569 0.0
C1125 C 0.05858 0.87662 0.43223 0.0
C1126 C 1.00071 0.86662 0.38276 0.0
C1127 C 0.07391 0.86748 0.35465 0.0
C1128 C 0.02808 0.83993 0.27137 0.0
C1129 C 0.02468 0.848 0.22934 0.0
C1130 C 0.0332 0.84603 0.31627 0.0
C1131 C 0.03443 0.86064 0.31966 0.0
C1132 C 0.03159 0.86885 0.27687 0.0
C1133 C 0.02699 0.86239 0.23187 0.0
C1134 C 0.03662 0.83685 0.36046 0.0
C1135 C 0.03247 0.88446 0.2792 0.0
H1136 H 1.01149 0.87754 0.46947 0.0
H1137 H 0.07303 0.87937 0.44456 0.0
H1138 H 0.99772 0.8719 0.34727 0.0
H1139 H 0.99912 0.85532 0.37648 0.0
H1140 H 0.98961 0.86993 0.41003 0.0
H1141 H 0.08762 0.87033 0.37359 0.0
H1142 H 0.07443 0.85629 0.34529 0.0
H1143 H 0.07307 0.87329 0.3195 0.0
H1144 H 0.02652 0.82876 0.26921 0.0
H1145 H 0.02426 0.86861 0.19937 0.0
H1146 H 0.02485 0.83841 0.38777 0.0
H1147 H 0.05049 0.83964 0.37864 0.0
H1148 H 0.03707 0.82569 0.35049 0.0
H1149 H 1.02059 0.88835 0.30309 0.0
H1150 H 0.03104 0.88931 0.24229 0.0
H1151 H 0.04636 0.88785 0.29587 0.0
C1152 C 0.75091 0.85802 0.47957 0.0
C1153 C 0.76503 0.86545 0.50588 0.0
C1154 C 0.74869 0.85981 0.42856 0.0
C1155 C 0.76095 0.86919 0.4032 0.0
C1156 C 0.77439 0.87732 0.43004 0.0
C1157 C 0.7762 0.8754 0.48106 0.0
C1158 C 0.73395 0.85112 0.40152 0.0
C1159 C 0.7877 0.88748 0.40445 0.0
C1160 C 0.77569 0.86291 0.27038 0.0
C1161 C 0.76549 0.87339 0.24573 0.0
C1162 C 0.77366 0.86103 0.32139 0.0
C1163 C 0.76097 0.86975 0.34835 0.0
C1164 C 0.74963 0.87971 0.32313 0.0
C1165 C 0.75207 0.88144 0.27215 0.0
C1166 C 0.786 0.85026 0.34684 0.0
C1167 C 0.7357 0.88904 0.35029 0.0
H1168 H 0.74204 0.85043 0.49855 0.0
H1169 H 0.78715 0.88118 0.50097 0.0
H1170 H 0.72536 0.85763 0.3759 0.0
H1171 H 0.74156 0.84319 0.37914 0.0
H1172 H 0.72386 0.84573 0.4271 0.0
H1173 H 0.79637 0.8937 0.43087 0.0
H1174 H 0.79784 0.88177 0.38002 0.0
H1175 H 0.7792 0.89465 0.38096 0.0
H1176 H 0.78611 0.85666 0.25036 0.0
H1177 H 0.74395 0.88945 0.25327 0.0
H1178 H 0.77684 0.84351 0.37041 0.0
H1179 H 0.79666 0.85548 0.37118 0.0
H1180 H 0.79405 0.84365 0.32033 0.0
H1181 H 0.72652 0.88293 0.37593 0.0
H1182 H 0.72612 0.89489 0.32479 0.0
H1183 H 0.744 0.8966 0.37267 0.0
C1184 C 1.01951 0.61111 0.26394 0.0
C1185 C 1.01508 0.62462 0.2793 0.0
C1186 C 1.01722 0.60712 0.21443 0.0
C1187 C 1.01034 0.61686 0.17944 0.0
C1188 C 1.00561 0.63044 0.19491 0.0
C1189 C 1.00796 0.63413 0.24449 0.0
C1190 C 1.02233 0.59251 0.19944 0.0
C1191 C 0.99819 0.64115 0.15898 0.0
C1192 C 1.02122 0.61046 0.04372 0.0
C1193 C 1.00376 0.60459 0.02717 0.0
C1194 C 0.02353 0.61457 0.09302 0.0
C1195 C 1.00798 0.61286 0.12668 0.0
C1196 C 0.99014 0.60734 0.10989 0.0
C1197 C 0.98823 0.60332 0.06045 0.0
C1198 C 0.04273 0.62054 0.10928 0.0
C1199 C 0.97317 0.6054 0.14445 0.0
H1200 H 0.02503 0.6037 0.29043 0.0
H1201 H 1.00426 0.64456 0.2559 0.0
H1202 H 1.00954 0.58741 0.18254 0.0
H1203 H 0.034 0.59271 0.17126 0.0
H1204 H 0.02729 0.58613 0.23107 0.0
H1205 H 0.9953 0.6513 0.17684 0.0
H1206 H 1.00895 0.64274 0.12908 0.0
H1207 H 0.98459 0.63744 0.14161 0.0
H1208 H 0.03325 0.61162 0.01835 0.0
H1209 H 0.97466 0.59881 0.04826 0.0
H1210 H 0.04913 0.61392 0.13846 0.0
H1211 H 0.04052 0.63099 0.1253 0.0
H1212 H 0.0533 0.62137 0.07849 0.0
H1213 H 0.97722 0.59814 0.17439 0.0
H1214 H 0.96014 0.60127 0.12544 0.0
H1215 H 0.96931 0.61542 0.16194 0.0
C1216 C 0.29549 0.63221 0.00722 0.0
C1217 C 0.28182 0.62478 0.97946 0.0
C1218 C 0.29706 0.63028 0.05834 0.0
C1219 C 0.28458 0.62076 0.08233 0.0
C1220 C 0.27154 0.61268 0.05409 0.0
C1221 C 0.27039 0.61473 0.00301 0.0
C1222 C 0.3114 0.63892 0.08691 0.0
C1223 C 0.25797 0.60241 0.0782 0.0
C1224 C 0.29207 0.60797 0.21334 0.0
C1225 C 0.27839 0.61592 0.23927 0.0
C1226 C 0.29504 0.60992 0.16262 0.0
C1227 C 0.28395 0.61997 0.13714 0.0
C1228 C 0.27095 0.62855 0.16368 0.0
C1229 C 0.26841 0.62648 0.21446 0.0
C1230 C 0.3093 0.60072 0.13594 0.0
C1231 C 0.25882 0.63939 0.13794 0.0
H1232 H 0.30455 0.63988 0.98923 0.0
H1233 H 0.25976 0.60896 0.98199 0.0
H1234 H 0.30347 0.64667 0.10939 0.0
H1235 H 0.31983 0.63232 0.1126 0.0
H1236 H 0.32167 0.64452 0.06238 0.0
H1237 H 0.2496 0.5963 0.05085 0.0
H1238 H 0.26623 0.59513 0.10185 0.0
H1239 H 0.24757 0.608 0.10225 0.0
H1240 H 0.30002 0.5999 0.23237 0.0
H1241 H 0.25778 0.63264 0.23411 0.0
H1242 H 0.31876 0.60697 0.1114 0.0
H1243 H 0.30128 0.59327 0.11247 0.0
H1244 H 0.31859 0.59476 0.16179 0.0
H1245 H 0.26818 0.64627 0.11539 0.0
H1246 H 0.25044 0.64586 0.16423 0.0
H1247 H 0.24847 0.63425 0.11259 0.0
C1248 C 0.02684 0.35951 0.99378 0.0
C1249 C 0.03309 0.37226 0.01284 0.0
C1250 C 0.03113 0.35566 0.94505 0.0
C1251 C 0.04178 0.36482 0.91444 0.0
C1252 C 0.04866 0.37749 0.93392 0.0
C1253 C 0.04439 0.38098 0.98289 0.0
C1254 C 0.0238 0.34194 0.9259 0.0
C1255 C 0.06 0.38759 0.90256 0.0
C1256 C 0.0647 0.3503 0.79784 0.0
C1257 C 0.05062 0.35346 0.76223 0.0
C1258 C 0.06213 0.35406 0.84736 0.0
C1259 C 0.0452 0.36133 0.86164 0.0
C1260 C 0.03129 0.36503 0.82557 0.0
C1261 C 0.03412 0.36101 0.7764 0.0
C1262 C 0.07722 0.34982 0.88469 0.0
C1263 C 1.01318 0.37298 0.83912 0.0
H1264 H 1.01816 0.35265 0.01652 0.0
H1265 H 0.04953 0.39077 -0.00279 0.0
H1266 H 1.01312 0.34374 0.89607 0.0
H1267 H 0.03596 0.33589 0.90991 0.0
H1268 H 1.01675 0.33563 0.95512 0.0
H1269 H 0.06488 0.39679 0.92371 0.0
H1270 H 0.07291 0.38242 0.8865 0.0
H1271 H 0.05085 0.39117 0.87147 0.0
H1272 H 0.07745 0.34441 0.78745 0.0
H1273 H 1.02321 0.36355 0.74917 0.0
H1274 H 0.07068 0.34257 0.91175 0.0
H1275 H 0.08237 0.35901 0.90545 0.0
H1276 H 0.08994 0.34469 0.86739 0.0
H1277 H 1.00421 0.36674 0.86486 0.0
H1278 H 1.00423 0.3756 0.80644 0.0
H1279 H 1.01711 0.38271 0.85838 0.0
C1280 C 0.75826 0.35446 0.99401 0.0
C1281 C 0.77779 0.35342 0.00793 0.0
C1282 C 0.75318 0.3595 0.94708 0.0
C1283 C 0.76799 0.36371 0.91399 0.0
C1284 C 0.7876 0.36359 0.92958 0.0
C1285 C 0.79224 0.35834 0.97613 0.0
C1286 C 0.73213 0.35945 0.93188 0.0
C1287 C 0.80386 0.36824 0.89602 0.0
C1288 C 0.76575 0.36054 0.77529 0.0
C1289 C 0.76453 0.37448 0.761 0.0
C1290 C 0.76522 0.35676 0.82521 0.0
C1291 C 0.76359 0.36718 0.86173 0.0
C1292 C 0.76079 0.38113 0.84736 0.0
C1293 C 0.76123 0.38461 0.79719 0.0
C1294 C 0.76791 0.34172 0.83892 0.0
C1295 C 0.75893 0.39255 0.88499 0.0
H1296 H 0.74709 0.3505 0.01837 0.0
H1297 H 0.80734 0.35756 0.98703 0.0
H1298 H 0.72831 0.36922 0.91262 0.0
H1299 H 0.7296 0.35081 0.90577 0.0
H1300 H 0.72226 0.35808 0.96389 0.0
H1301 H 0.81807 0.36862 0.91524 0.0
H1302 H 0.80512 0.36098 0.86453 0.0
H1303 H 0.8007 0.37867 0.88078 0.0
H1304 H 0.76806 0.35262 0.74766 0.0
H1305 H 0.7601 0.39541 0.78667 0.0
H1306 H 0.75728 0.33861 0.86756 0.0
H1307 H 0.78265 0.34021 0.85448 0.0
H1308 H 0.76626 0.33474 0.8067 0.0
H1309 H 0.74895 0.38945 0.91511 0.0
H1310 H 0.75357 0.40235 0.86833 0.0
H1311 H 0.77335 0.39458 0.90165 0.0
C1312 C 0.5402 0.13019 0.21049 0.0
C1313 C 0.526 0.13576 0.24164 0.0
C1314 C 0.53539 0.12483 0.16419 0.0
C1315 C 0.51586 0.12524 0.14805 0.0
C1316 C 0.50124 0.13012 0.18053 0.0
C1317 C 0.50648 0.13527 0.22724 0.0
C1318 C 0.55145 0.11949 0.13137 0.0
C1319 C 0.48027 0.13077 0.16482 0.0
C1320 C 0.51376 0.12802 0.00888 0.0
C1321 C 0.51144 0.11412 0.99501 0.0
C1322 C 0.5137 0.13194 0.05869 0.0
C1323 C 0.51141 0.12171 0.09572 0.0
C1324 C 0.50766 0.10782 0.08186 0.0
C1325 C 0.50766 0.1042 0.03172 0.0
C1326 C 0.51747 0.14691 0.0717 0.0
C1327 C 0.5051 0.09658 0.11997 0.0
H1328 H 0.55531 0.13056 0.22164 0.0
H1329 H 0.4955 0.13976 0.25096 0.0
H1330 H 0.54766 0.10913 0.11659 0.0
H1331 H 0.55334 0.12658 0.09954 0.0
H1332 H 0.56554 0.1187 0.15104 0.0
H1333 H 0.4704 0.1328 0.19637 0.0
H1334 H 0.47843 0.13921 0.13749 0.0
H1335 H 0.47585 0.12096 0.14678 0.0
H1336 H 0.51649 0.13579 0.98089 0.0
H1337 H 0.50579 0.09343 0.02162 0.0
H1338 H 0.53224 0.14791 0.08754 0.0
H1339 H 0.50699 0.1505 0.09996 0.0
H1340 H 0.51645 0.15383 0.03912 0.0
H1341 H 0.51936 0.09419 0.13688 0.0
H1342 H 0.49919 0.08689 0.10373 0.0
H1343 H 0.49526 0.10007 0.14984 0.0
C1344 C 0.76651 0.12325 0.21774 0.0
C1345 C 0.77686 0.11272 0.24183 0.0
C1346 C 0.76868 0.12552 0.16696 0.0
C1347 C 0.78171 0.11719 0.13951 0.0
C1348 C 0.79302 0.10707 0.16409 0.0
C1349 C 0.79038 0.10491 0.21488 0.0
C1350 C 0.75626 0.13638 0.14225 0.0
C1351 C 0.80732 0.09815 0.13643 0.0
C1352 C 0.76802 0.11306 0.00487 0.0
C1353 C 0.77914 0.12349 0.98238 0.0
C1354 C 0.76934 0.11051 0.05567 0.0
C1355 C 0.78229 0.11844 0.08473 0.0
C1356 C 0.79449 0.12834 0.0617 0.0
C1357 C 0.79271 0.13079 0.01086 0.0
C1358 C 0.75601 0.09989 0.07867 0.0
C1359 C 0.80875 0.13683 0.09109 0.0
H1360 H 0.756 0.12933 0.23809 0.0
H1361 H 0.79858 0.09683 0.23321 0.0
H1362 H 0.76547 0.14361 0.12066 0.0
H1363 H 0.74614 0.13132 0.11612 0.0
H1364 H 0.74762 0.14249 0.16909 0.0
H1365 H 0.81659 0.09194 0.16158 0.0
H1366 H 0.79936 0.09094 0.11191 0.0
H1367 H 0.8168 0.10466 0.11279 0.0
H1368 H 0.75746 0.10738 0.98332 0.0
H1369 H 0.80152 0.13875 0.99372 0.0
H1370 H 0.74547 0.10518 0.10324 0.0
H1371 H 0.76442 0.09253 0.10161 0.0
H1372 H 0.74778 0.09392 0.05069 0.0
H1373 H 0.80073 0.14431 0.11449 0.0
H1374 H 0.81889 0.14272 0.06709 0.0
H1375 H 0.81732 0.13006 0.11595 0.0
C1376 C 0.52471 0.87914 0.97492 0.0
C1377 C 0.54009 0.87594 0.00666 0.0
C1378 C 0.52571 0.87619 0.92448 0.0
C1379 C 0.54271 0.87009 0.9048 0.0
C1380 C 0.55844 0.86694 0.93655 0.0
C1381 C 0.55685 0.86976 0.9873 0.0
C1382 C 0.5084 0.87944 0.8924 0.0
C1383 C 0.57692 0.86065 0.91684 0.0
C1384 C 0.53496 0.85051 0.78539 0.0
C1385 C 0.53934 0.86061 0.74974 0.0
C1386 C 0.5367 0.85329 0.83582 0.0
C1387 C 0.5434 0.86643 0.85142 0.0
C1388 C 0.54887 0.87644 0.81573 0.0
C1389 C 0.54659 0.87347 0.76529 0.0
C1390 C 0.53033 0.84239 0.8724 0.0
C1391 C 0.55647 0.89047 0.83085 0.0
H1392 H 0.51164 0.88378 0.9897 0.0
H1393 H 0.56887 0.8674 0.01161 0.0
H1394 H 0.51269 0.88666 0.8625 0.0
H1395 H 0.50303 0.8698 0.87478 0.0
H1396 H 0.49628 0.88419 0.91347 0.0
H1397 H 0.58815 0.85943 0.94583 0.0
H1398 H 0.57385 0.85033 0.9007 0.0
H1399 H 0.58289 0.86725 0.88695 0.0
H1400 H 0.52937 0.84052 0.77409 0.0
H1401 H 0.55019 0.88129 0.73813 0.0
H1402 H 0.51732 0.8461 0.89257 0.0
H1403 H 0.54188 0.84053 0.9 0.0
H1404 H 0.52671 0.83239 0.85441 0.0
H1405 H 0.54461 0.89658 0.84791 0.0
H1406 H 0.56232 0.89641 0.79909 0.0
H1407 H 0.56808 0.88931 0.85882 0.0
C1408 C 0.27601 0.88608 0.81607 0.0
C1409 C 0.2577 0.88564 0.79369 0.0
C1410 C 0.27914 0.88025 0.8627 0.0
C1411 C 0.26373 0.87337 0.88712 0.0
C1412 C 0.24517 0.87286 0.86477 0.0
C1413 C 0.24231 0.87917 0.81863 0.0
C1414 C 0.29907 0.88127 0.88549 0.0
C1415 C 0.22851 0.86526 0.88884 0.0
C1416 C 0.28043 0.84522 0.9747 0.0
C1417 C 0.27825 0.85155 0.02084 0.0
C1418 C 0.27502 0.85202 0.9313 0.0
C1419 C 0.26763 0.86568 0.93374 0.0
C1420 C 0.26506 0.87209 0.9803 0.0
C1421 C 0.27017 0.86485 0.02351 0.0
C1422 C 0.27758 0.84465 0.8827 0.0
C1423 C 0.25756 0.88673 0.98432 0.0
H1424 H 0.28791 0.89115 0.79746 0.0
H1425 H 0.22812 0.87877 0.80153 0.0
H1426 H 0.29798 0.88538 0.92352 0.0
H1427 H 0.30569 0.87081 0.88788 0.0
H1428 H 0.30895 0.88807 0.86394 0.0
H1429 H 0.21477 0.86639 0.86792 0.0
H1430 H 0.23206 0.85407 0.89169 0.0
H1431 H 0.2262 0.86914 0.92679 0.0
H1432 H 0.28634 0.83483 0.97244 0.0
H1433 H 0.26844 0.86974 0.05914 0.0
H1434 H 0.28882 0.85 0.86042 0.0
H1435 H 0.26386 0.84494 0.8614 0.0
H1436 H 0.282 0.83366 0.88747 0.0
H1437 H 0.26794 0.89394 0.96636 0.0
H1438 H 0.25552 0.89 0.02316 0.0
H1439 H 0.24352 0.88774 0.96473 0.0
C1440 C 0.52358 0.61205 0.71275 0.0
C1441 C 0.51397 0.62256 0.73876 0.0
C1442 C 0.52083 0.6104 0.66191 0.0
C1443 C 0.50798 0.61937 0.63653 0.0
C1444 C 0.49725 0.62938 0.66317 0.0
C1445 C 0.50044 0.63089 0.71393 0.0
C1446 C 0.53256 0.59959 0.63489 0.0
C1447 C 0.48316 0.63896 0.63771 0.0
C1448 C 0.52157 0.625 0.50261 0.0
C1449 C 0.50998 0.61511 0.47889 0.0
C1450 C 0.52038 0.62696 0.55372 0.0
C1451 C 0.50713 0.61894 0.58174 0.0
C1452 C 0.49438 0.60969 0.55751 0.0
C1453 C 0.49601 0.60785 0.50639 0.0
C1454 C 0.53422 0.63696 0.57809 0.0
C1455 C 0.47981 0.60115 0.58585 0.0
H1456 H 0.53409 0.60558 0.73154 0.0
H1457 H 0.49279 0.63894 0.73388 0.0
H1458 H 0.52291 0.59296 0.61229 0.0
H1459 H 0.54289 0.60476 0.60944 0.0
H1460 H 0.54094 0.59285 0.66034 0.0
H1461 H 0.47407 0.64481 0.66434 0.0
H1462 H 0.4913 0.64651 0.61481 0.0
H1463 H 0.4735 0.63303 0.61278 0.0
H1464 H 0.53242 0.63065 0.48177 0.0
H1465 H 0.48683 0.6003 0.48827 0.0
H1466 H 0.54464 0.63111 0.6013 0.0
H1467 H 0.52619 0.64414 0.60261 0.0
H1468 H 0.54257 0.64317 0.55089 0.0
H1469 H 0.48751 0.59304 0.60724 0.0
H1470 H 0.46919 0.59598 0.56119 0.0
H1471 H 0.47178 0.60771 0.61249 0.0
C1472 C 0.77293 0.62777 0.75947 0.0
C1473 C 0.77755 0.61442 0.77616 0.0
C1474 C 0.77551 0.63149 0.70979 0.0
C1475 C 0.78287 0.62161 0.67596 0.0
C1476 C 0.78779 0.60818 0.69274 0.0
C1477 C 0.78516 0.60478 0.74253 0.0
C1478 C 0.7702 0.64595 0.69337 0.0
C1479 C 0.7957 0.59735 0.658 0.0
C1480 C 0.77241 0.62759 0.53998 0.0
C1481 C 0.78972 0.63377 0.52373 0.0
C1482 C 0.77008 0.62339 0.58919 0.0
C1483 C 0.78546 0.62534 0.62304 0.0
C1484 C 0.80322 0.63107 0.60646 0.0
C1485 C 0.80516 0.63517 0.55707 0.0
C1486 C 0.75098 0.61717 0.60525 0.0
C1487 C 0.82001 0.63328 0.64127 0.0
H1488 H 0.76705 0.63529 0.78507 0.0
H1489 H 0.78904 0.59448 0.75503 0.0
H1490 H 0.783 0.65108 0.67652 0.0
H1491 H 0.75874 0.64545 0.66479 0.0
H1492 H 0.76488 0.65246 0.72426 0.0
H1493 H 0.79872 0.58736 0.67683 0.0
H1494 H 0.78519 0.59545 0.62787 0.0
H1495 H 0.80933 0.60112 0.64079 0.0
H1496 H 0.76046 0.62631 0.51451 0.0
H1497 H 0.81862 0.63991 0.54506 0.0
H1498 H 0.74413 0.62388 0.63351 0.0
H1499 H 0.75342 0.60688 0.62237 0.0
H1500 H 0.74068 0.61595 0.57413 0.0
H1501 H 0.81575 0.64074 0.67038 0.0
H1502 H 0.83311 0.63733 0.62221 0.0
H1503 H 0.82383 0.62341 0.6598 0.0
C1504 C 0.54838 0.35819 0.25373 0.0
C1505 C 0.53751 0.36736 0.22459 0.0
C1506 C 0.55272 0.36128 0.30297 0.0
C1507 C 0.54618 0.37391 0.32351 0.0
C1508 C 0.53601 0.38351 0.29366 0.0
C1509 C 0.53179 0.38012 0.24458 0.0
C1510 C 0.56368 0.3508 0.33347 0.0
C1511 C 0.52895 0.39716 0.31409 0.0
C1512 C 0.53677 0.37738 0.46069 0.0
C1513 C 0.55274 0.38532 0.47589 0.0
C1514 C 0.53482 0.37316 0.41152 0.0
C1515 C 0.54922 0.37691 0.3767 0.0
C1516 C 0.56591 0.38422 0.39235 0.0
C1517 C 0.56749 0.3883 0.44176 0.0
C1518 C 0.5169 0.36523 0.39641 0.0
C1519 C 0.58161 0.38837 0.35643 0.0
H1520 H 0.55311 0.34839 0.23848 0.0
H1521 H 0.52342 0.38729 0.22241 0.0
H1522 H 0.57638 0.35575 0.35134 0.0
H1523 H 0.55415 0.34682 0.36322 0.0
H1524 H 0.56884 0.34188 0.31118 0.0
H1525 H 0.52218 0.4038 0.28543 0.0
H1526 H 0.5181 0.39525 0.34353 0.0
H1527 H 0.54119 0.40293 0.33091 0.0
H1528 H 0.52543 0.37486 0.48687 0.0
H1529 H 0.57994 0.39439 0.45304 0.0
H1530 H 0.52104 0.35566 0.37635 0.0
H1531 H 0.50808 0.37164 0.37096 0.0
H1532 H 0.50772 0.36232 0.42845 0.0
H1533 H 0.58636 0.3793 0.33445 0.0
H1534 H 0.59447 0.39287 0.37516 0.0
H1535 H 0.5758 0.39617 0.3303 0.0
C1536 C 0.30088 0.35115 0.43611 0.0
C1537 C 0.2873 0.35185 0.47459 0.0
C1538 C 0.29834 0.35861 0.3924 0.0
C1539 C 0.28172 0.36705 0.38653 0.0
C1540 C 0.26787 0.36786 0.42514 0.0
C1541 C 0.27086 0.36028 0.46896 0.0
C1542 C 0.31367 0.35758 0.3527 0.0
C1543 C 0.24996 0.37672 0.42014 0.0
C1544 C 0.29048 0.39591 0.29475 0.0
C1545 C 0.28303 0.39029 0.25098 0.0
C1546 C 0.28901 0.38883 0.33963 0.0
C1547 C 0.27992 0.3757 0.34117 0.0
C1548 C 0.27154 0.37021 0.29766 0.0
C1549 C 0.27316 0.37759 0.25299 0.0
C1550 C 0.29818 0.39511 0.38491 0.0
C1551 C 0.26167 0.35625 0.29783 0.0
H1552 H 0.3137 0.34474 0.44016 0.0
H1553 H 0.26022 0.36076 0.49832 0.0
H1554 H 0.307 0.3542 0.31758 0.0
H1555 H 0.32027 0.36791 0.34624 0.0
H1556 H 0.32541 0.35018 0.36239 0.0
H1557 H 0.24013 0.37574 0.45241 0.0
H1558 H 0.25418 0.38776 0.41602 0.0
H1559 H 0.24185 0.37378 0.38649 0.0
H1560 H 0.29788 0.40582 0.29399 0.0
H1561 H 0.26722 0.37323 0.21951 0.0
H1562 H 0.3111 0.38894 0.39559 0.0
H1563 H 0.28789 0.39485 0.41632 0.0
H1564 H 0.30282 0.40601 0.37881 0.0
H1565 H 0.2727 0.34799 0.30282 0.0
H1566 H 0.25373 0.35425 0.26302 0.0
H1567 H 0.25134 0.35549 0.32907 0.0
C1568 C 0.11616 0.09671 0.4108 0.0
C1569 C 0.10051 0.10221 0.38419 0.0
C1570 C 0.13487 0.10235 0.40668 0.0
C1571 C 0.1381 0.11383 0.3752 0.0
C1572 C 0.12257 0.11906 0.34655 0.0
C1573 C 0.10396 0.11318 0.35133 0.0
C1574 C 0.15101 0.09636 0.43764 0.0
C1575 C 0.12539 0.13128 0.31259 0.0
C1576 C 0.17922 0.1371 0.41725 0.0
C1577 C 0.19471 0.13264 0.38773 0.0
C1578 C 0.16057 0.13148 0.41197 0.0
C1579 C 0.15724 0.12108 0.37628 0.0
C1580 C 0.1726 0.11696 0.34476 0.0
C1581 C 0.19118 0.12283 0.35077 0.0
C1582 C 0.1446 0.13631 0.44606 0.0
C1583 C 0.16965 0.10591 0.30623 0.0
H1584 H 0.1137 0.08807 0.43547 0.0
H1585 H 0.09195 0.11754 0.33083 0.0
H1586 H 0.1638 0.09396 0.41432 0.0
H1587 H 0.15568 0.1041 0.46538 0.0
H1588 H 0.1465 0.08677 0.45721 0.0
H1589 H 0.11255 0.13309 0.28875 0.0
H1590 H 0.12801 0.14076 0.3347 0.0
H1591 H 0.13832 0.1297 0.28888 0.0
H1592 H 0.18177 0.14489 0.44517 0.0
H1593 H 0.20311 0.11931 0.32799 0.0
H1594 H 0.14014 0.12765 0.47051 0.0
H1595 H 0.13166 0.13946 0.42456 0.0
H1596 H 0.1492 0.14517 0.46936 0.0
H1597 H 0.16721 0.09577 0.32449 0.0
H1598 H 0.18235 0.10495 0.28126 0.0
H1599 H 0.15656 0.10821 0.28391 0.0
C1600 C 0.10842 0.13676 0.86883 0.0
C1601 C 0.09695 0.13054 0.83249 0.0
C1602 C 0.12788 0.13274 0.87549 0.0
C1603 C 0.13583 0.12215 0.8455 0.0
C1604 C 0.12385 0.11526 0.81103 0.0
C1605 C 0.10462 0.11961 0.80475 0.0
C1606 C 0.14019 0.14039 0.91244 0.0
C1607 C 0.13161 0.10377 0.77885 0.0
C1608 C 0.1884 0.12191 0.80517 0.0
C1609 C 0.19602 0.11094 0.83285 0.0
C1610 C 0.16914 0.12623 0.81131 0.0
C1611 C 0.15707 0.11927 0.84556 0.0
C1612 C 0.16496 0.10863 0.87545 0.0
C1613 C 0.18444 0.10464 0.86894 0.0
C1614 C 0.16145 0.13778 0.77922 0.0
C1615 C 0.15255 0.10091 0.91215 0.0
H1616 H 0.10248 0.14524 0.89016 0.0
H1617 H 0.09561 0.11465 0.77725 0.0
H1618 H 0.14877 0.133 0.93491 0.0
H1619 H 0.15064 0.14716 0.89269 0.0
H1620 H 0.1313 0.14694 0.93739 0.0
H1621 H 0.11993 0.09853 0.7577 0.0
H1622 H 0.14231 0.10808 0.75238 0.0
H1623 H 0.13924 0.09591 0.80149 0.0
H1624 H 0.19748 0.12693 0.77787 0.0
H1625 H 0.19033 0.09613 0.89023 0.0
H1626 H 0.15377 0.1456 0.80193 0.0
H1627 H 0.15081 0.13351 0.75264 0.0
H1628 H 0.17317 0.14305 0.75822 0.0
H1629 H 0.14392 0.10825 0.9347 0.0
H1630 H 0.16137 0.0943 0.93703 0.0
H1631 H 0.14214 0.09418 0.89219 0.0
C1632 C 0.86772 0.84797 0.5677 0.0
C1633 C 0.85222 0.85289 0.59619 0.0
C1634 C 0.88627 0.85385 0.57125 0.0
C1635 C 0.88946 0.86502 0.60401 0.0
C1636 C 0.87414 0.86955 0.63494 0.0
C1637 C 0.85568 0.86339 0.63074 0.0
C1638 C 0.9022 0.84858 0.53791 0.0
C1639 C 0.87693 0.8814 0.67041 0.0
C1640 C 0.94265 0.87492 0.62007 0.0
C1641 C 0.94485 0.8849 0.58293 0.0
C1642 C 0.92443 0.86881 0.62944 0.0
C1643 C 0.90811 0.87287 0.60118 0.0
C1644 C 0.9101 0.88357 0.56585 0.0
C1645 C 0.92841 0.88941 0.55715 0.0
C1646 C 0.92292 0.85748 0.66755 0.0
C1647 C 0.89309 0.88837 0.53524 0.0
H1648 H 0.8652 0.83966 0.54168 0.0
H1649 H 0.84373 0.86726 0.65275 0.0
H1650 H 0.90593 0.85666 0.51039 0.0
H1651 H 0.91551 0.84637 0.55947 0.0
H1652 H 0.89789 0.83902 0.51796 0.0
H1653 H 0.86463 0.88233 0.69668 0.0
H1654 H 0.89058 0.88007 0.69151 0.0
H1655 H 0.87816 0.89125 0.64952 0.0
H1656 H 0.95533 0.87139 0.64002 0.0
H1657 H 0.93 0.89733 0.52915 0.0
H1658 H 0.9211 0.84734 0.64886 0.0
H1659 H 0.91 0.85908 0.69128 0.0
H1660 H 0.93604 0.85694 0.69118 0.0
H1661 H 0.88849 0.8799 0.51021 0.0
H1662 H 0.89665 0.89763 0.51264 0.0
H1663 H 0.88054 0.89089 0.55923 0.0
C1664 C 0.92652 0.84062 0.09203 0.0
C1665 C 0.94434 0.84659 0.10548 0.0
C1666 C 0.90899 0.84791 0.09674 0.0
C1667 C 0.90914 0.86162 0.11521 0.0
C1668 C 0.92715 0.86797 0.12676 0.0
C1669 C 0.94454 0.86039 0.12172 0.0
C1670 C 0.89021 0.84071 0.08377 0.0
C1671 C 0.92797 0.88258 0.14638 0.0
C1672 C 0.86236 0.8826 0.10088 0.0
C1673 C 0.85355 0.88071 0.14704 0.0
C1674 C 0.88065 0.87674 0.09021 0.0
C1675 C 0.89033 0.86873 0.12642 0.0
C1676 C 0.88151 0.86682 0.17302 0.0
C1677 C 0.86332 0.8728 0.18267 0.0
C1678 C 0.88956 0.87906 0.04013 0.0
C1679 C 0.89113 0.85823 0.21257 0.0
H1680 H 0.92623 0.83009 0.07829 0.0
H1681 H 0.9582 0.86508 0.13225 0.0
H1682 H 0.88135 0.83926 0.1175 0.0
H1683 H 0.88161 0.84718 0.05803 0.0
H1684 H 0.89266 0.83041 0.06664 0.0
H1685 H 0.94309 0.88652 0.14895 0.0
H1686 H 0.91946 0.88965 0.12249 0.0
H1687 H 0.92133 0.88291 0.18358 0.0
H1688 H 0.85506 0.88879 0.07329 0.0
H1689 H 0.85656 0.87103 0.2181 0.0
H1690 H 0.8914 0.86898 0.02104 0.0
H1691 H 0.90421 0.88371 0.04405 0.0
H1692 H 0.88056 0.88595 0.01665 0.0
H1693 H 0.8928 0.84739 0.19972 0.0
H1694 H 0.88271 0.85816 0.24746 0.0
H1695 H 0.90588 0.86229 0.22026 0.0
C1696 C 0.17989 0.64238 0.91079 0.0
C1697 C 0.19551 0.63702 0.88373 0.0
C1698 C 0.16137 0.63642 0.9081 0.0
C1699 C 0.15832 0.62472 0.87766 0.0
C1700 C 0.17375 0.61976 0.84788 0.0
C1701 C 0.19219 0.62601 0.85117 0.0
C1702 C 0.14535 0.64217 0.94014 0.0
C1703 C 0.17109 0.60737 0.8148 0.0
C1704 C 0.11937 0.60095 0.92871 0.0
C1705 C 0.10297 0.60497 0.90175 0.0
C1706 C 0.13767 0.60675 0.91924 0.0
C1707 C 0.1397 0.61689 0.88187 0.0
C1708 C 0.12341 0.62047 0.8527 0.0
C1709 C 0.10522 0.61444 0.86293 0.0
C1710 C 0.15464 0.60249 0.95098 0.0
C1711 C 0.12496 0.63119 0.81244 0.0
H1712 H 0.18233 0.65106 0.93528 0.0
H1713 H 0.20424 0.62182 0.83031 0.0
H1714 H 0.13206 0.64396 0.91806 0.0
H1715 H 0.14164 0.63454 0.96926 0.0
H1716 H 0.14956 0.65206 0.9581 0.0
H1717 H 0.18343 0.60609 0.78883 0.0
H1718 H 0.16994 0.59785 0.8376 0.0
H1719 H 0.15745 0.60829 0.7934 0.0
H1720 H 0.11782 0.59341 0.95799 0.0
H1721 H 0.0926 0.6176 0.84201 0.0
H1722 H 0.1592 0.61137 0.97419 0.0
H1723 H 0.16722 0.59958 0.92768 0.0
H1724 H 0.15105 0.59363 0.97549 0.0
H1725 H 0.12681 0.6416 0.82911 0.0
H1726 H 0.11184 0.63138 0.78873 0.0
H1727 H 0.13787 0.6292 0.78908 0.0
C1728 C 0.09839 0.6284 0.35398 0.0
C1729 C 0.09779 0.64161 0.37554 0.0
C1730 C 0.11603 0.62112 0.34929 0.0
C1731 C 0.13349 0.62721 0.36641 0.0
C1732 C 0.13284 0.64028 0.38989 0.0
C1733 C 0.11506 0.64726 0.39435 0.0
C1734 C 0.11607 0.60716 0.32433 0.0
C1735 C 0.15107 0.64717 0.40867 0.0
C1736 C 0.17992 0.60592 0.38071 0.0
C1737 C 0.18966 0.60896 0.33663 0.0
C1738 C 0.16146 0.61156 0.39068 0.0
C1739 C 0.15265 0.62057 0.35601 0.0
C1740 C 0.16254 0.62374 0.3117 0.0
C1741 C 0.18083 0.61789 0.30258 0.0
C1742 C 0.15134 0.60785 0.43818 0.0
C1743 C 0.15389 0.63346 0.27404 0.0
H1744 H 0.08519 0.62395 0.33927 0.0
H1745 H 0.11475 0.65726 0.41228 0.0
H1746 H 0.12377 0.60794 0.28855 0.0
H1747 H 0.124 0.59947 0.34706 0.0
H1748 H 0.10115 0.60324 0.3175 0.0
H1749 H 0.14796 0.65693 0.42885 0.0
H1750 H 0.15907 0.64006 0.4335 0.0
H1751 H 0.16082 0.64961 0.37729 0.0
H1752 H 0.18659 0.59894 0.40693 0.0
H1753 H 0.18839 0.62048 0.26884 0.0
H1754 H 0.13698 0.60315 0.43022 0.0
H1755 H 0.14867 0.61735 0.46013 0.0
H1756 H 0.15992 0.60047 0.4608 0.0
H1757 H 0.13952 0.62956 0.26197 0.0
H1758 H 0.16331 0.63469 0.24111 0.0
H1759 H 0.15156 0.64382 0.29072 0.0
C1760 C 0.92777 0.38752 0.07369 0.0
C1761 C 0.9435 0.38428 0.10446 0.0
C1762 C 0.9095 0.38129 0.08018 0.0
C1763 C 0.90674 0.37154 0.11853 0.0
C1764 C 0.92229 0.36866 0.15111 0.0
C1765 C 0.94046 0.37506 0.14372 0.0
C1766 C 0.89335 0.38473 0.04469 0.0
C1767 C 0.92 0.35835 0.19253 0.0
C1768 C 0.85503 0.36042 0.15187 0.0
C1769 C 0.85335 0.34783 0.12634 0.0
C1770 C 0.8723 0.36825 0.14996 0.0
C1771 C 0.88823 0.36345 0.12159 0.0
C1772 C 0.88646 0.35086 0.09519 0.0
C1773 C 0.86911 0.34326 0.0979 0.0
C1774 C 0.8736 0.38159 0.17869 0.0
C1775 C 0.90292 0.34539 0.064 0.0
H1776 H 0.9298 0.39484 0.04391 0.0
H1777 H 0.95248 0.3724 0.16755 0.0
H1778 H 0.88982 0.37546 0.02232 0.0
H1779 H 0.88001 0.38766 0.06507 0.0
H1780 H 0.89731 0.39334 0.0194 0.0
H1781 H 0.93277 0.35825 0.21742 0.0
H1782 H 0.90684 0.36075 0.21447 0.0
H1783 H 0.91808 0.3478 0.17707 0.0
H1784 H 0.843 0.36397 0.17425 0.0
H1785 H 0.86785 0.33369 0.07734 0.0
H1786 H 0.87703 0.39033 0.15357 0.0
H1787 H 0.88558 0.38091 0.20582 0.0
H1788 H 0.85991 0.38399 0.19858 0.0
H1789 H 0.90675 0.35307 0.03515 0.0
H1790 H 0.89925 0.33542 0.04587 0.0
H1791 H 0.91601 0.34382 0.08707 0.0
C1792 C 0.93477 0.3486 0.67804 0.0
C1793 C 0.95036 0.35398 0.65082 0.0
C1794 C 0.91601 0.35412 0.67368 0.0
C1795 C 0.91266 0.36543 0.64155 0.0
C1796 C 0.92813 0.37047 0.61202 0.0
C1797 C 0.94681 0.36463 0.61682 0.0
C1798 C 0.89997 0.34825 0.70542 0.0
C1799 C 0.92523 0.38252 0.5774 0.0
C1800 C 0.85922 0.37432 0.62123 0.0
C1801 C 0.856 0.384 0.65886 0.0
C1802 C 0.87781 0.36861 0.61333 0.0
C1803 C 0.89356 0.3728 0.64346 0.0
C1804 C 0.89053 0.38318 0.67951 0.0
C1805 C 0.87184 0.38857 0.68685 0.0
C1806 C 0.88037 0.35758 0.57459 0.0
C1807 C 0.90686 0.38813 0.71208 0.0
H1808 H 0.93738 0.3402 0.70367 0.0
H1809 H 0.95882 0.36884 0.59581 0.0
H1810 H 0.8956 0.35603 0.73335 0.0
H1811 H 0.887 0.34592 0.68275 0.0
H1812 H 0.90447 0.33864 0.72483 0.0
H1813 H 0.93784 0.38399 0.55239 0.0
H1814 H 0.91197 0.381 0.55493 0.0
H1815 H 0.92318 0.39215 0.59904 0.0
H1816 H 0.84702 0.37073 0.5996 0.0
H1817 H 0.8695 0.39624 0.71532 0.0
H1818 H 0.88261 0.34739 0.59272 0.0
H1819 H 0.89342 0.35972 0.55186 0.0
H1820 H 0.86753 0.35679 0.55006 0.0
H1821 H 0.91147 0.37959 0.73685 0.0
H1822 H 0.90256 0.39713 0.73507 0.0
H1823 H 0.91963 0.3911 0.68949 0.0
C1824 C 0.60241 0.1133 0.85897 0.0
C1825 C 0.59974 0.10342 0.89629 0.0
C1826 C 0.62066 0.11943 0.85101 0.0
C1827 C 0.63657 0.11551 0.88091 0.0
C1828 C 0.63415 0.10498 0.91672 0.0
C1829 C 0.61577 0.09911 0.92404 0.0
C1830 C 0.62266 0.13062 0.81251 0.0
C1831 C 0.65076 0.10036 0.94903 0.0
C1832 C 0.68914 0.12496 0.85434 0.0
C1833 C 0.69214 0.13558 0.88866 0.0
C1834 C 0.67079 0.11873 0.84931 0.0
C1835 C 0.65516 0.12334 0.87905 0.0
C1836 C 0.65791 0.13466 0.9114 0.0
C1837 C 0.67637 0.14059 0.91591 0.0
C1838 C 0.66843 0.1067 0.81441 0.0
C1839 C 0.64161 0.14004 0.94333 0.0
H1840 H 0.59004 0.11669 0.83757 0.0
H1841 H 0.61382 0.09127 0.9522 0.0
H1842 H 0.62439 0.14082 0.83086 0.0
H1843 H 0.63579 0.12888 0.78969 0.0
H1844 H 0.60978 0.13114 0.78801 0.0
H1845 H 0.64692 0.09121 0.9719 0.0
H1846 H 0.66361 0.09774 0.92625 0.0
H1847 H 0.65501 0.10895 0.9739 0.0
H1848 H 0.70135 0.12106 0.83338 0.0
H1849 H 0.67863 0.14897 0.94178 0.0
H1850 H 0.65504 0.1079 0.7922 0.0
H1851 H 0.66697 0.09695 0.83583 0.0
H1852 H 0.68104 0.10564 0.78915 0.0
H1853 H 0.62851 0.14208 0.92079 0.0
H1854 H 0.64564 0.14972 0.96292 0.0
H1855 H 0.63766 0.13208 0.97113 0.0
C1856 C 0.68781 0.11211 0.37817 0.0
C1857 C 0.69047 0.10203 0.34158 0.0
C1858 C 0.66978 0.1187 0.38459 0.0
C1859 C 0.654 0.11516 0.35364 0.0
C1860 C 0.65635 0.10456 0.31819 0.0
C1861 C 0.6745 0.09813 0.31266 0.0
C1862 C 0.66789 0.12994 0.42292 0.0
C1863 C 0.63991 0.10042 0.28455 0.0
C1864 C 0.60311 0.12783 0.3866 0.0
C1865 C 0.60174 0.13991 0.35805 0.0
C1866 C 0.61998 0.11959 0.38554 0.0
C1867 C 0.63575 0.12348 0.35491 0.0
C1868 C 0.6342 0.13549 0.32519 0.0
C1869 C 0.61727 0.14353 0.32718 0.0
C1870 C 0.6211 0.10689 0.41783 0.0
C1871 C 0.65053 0.13994 0.29153 0.0
H1872 H 0.70002 0.11528 0.4005 0.0
H1873 H 0.67628 0.09015 0.28502 0.0
H1874 H 0.6661 0.14012 0.40449 0.0
H1875 H 0.65479 0.12818 0.4459 0.0
H1876 H 0.68079 0.13048 0.44733 0.0
H1877 H 0.64353 0.09116 0.26207 0.0
H1878 H 0.62662 0.09819 0.30624 0.0
H1879 H 0.63647 0.10913 0.25933 0.0
H1880 H 0.59121 0.12506 0.4108 0.0
H1881 H 0.61616 0.1527 0.30437 0.0
H1882 H 0.63311 0.10807 0.44467 0.0
H1883 H 0.62438 0.09761 0.39523 0.0
H1884 H 0.60739 0.10503 0.43839 0.0
H1885 H 0.66381 0.14197 0.31338 0.0
H1886 H 0.64692 0.14945 0.27032 0.0
H1887 H 0.65399 0.13152 0.26519 0.0
C1888 C 0.3539 0.86195 0.13848 0.0
C1889 C 0.3544 0.84806 0.15384 0.0
C1890 C 0.37112 0.86978 0.13416 0.0
C1891 C 0.38927 0.86356 0.14518 0.0
C1892 C 0.38972 0.84977 0.16291 0.0
C1893 C 0.37235 0.84227 0.16733 0.0
C1894 C 0.36997 0.88452 0.11578 0.0
C1895 C 0.40866 0.84267 0.17498 0.0
C1896 C 0.43457 0.8755 0.07698 0.0
C1897 C 0.44456 0.88302 0.11313 0.0
C1898 C 0.41648 0.86938 0.08677 0.0
C1899 C 0.40793 0.87087 0.13389 0.0
C1900 C 0.41782 0.87858 0.17052 0.0
C1901 C 0.43609 0.88448 0.15983 0.0
C1902 C 0.4067 0.86104 0.04684 0.0
C1903 C 0.40914 0.88056 0.22102 0.0
H1904 H 0.34017 0.86653 0.12797 0.0
H1905 H 0.3729 0.8317 0.18057 0.0
H1906 H 0.37864 0.89148 0.13967 0.0
H1907 H 0.37622 0.88514 0.07819 0.0
H1908 H 0.35479 0.88837 0.11449 0.0
H1909 H 0.40645 0.83223 0.19136 0.0
H1910 H 0.41744 0.84152 0.14097 0.0
H1911 H 0.41724 0.84903 0.20104 0.0
H1912 H 0.44112 0.87414 0.04106 0.0
H1913 H 0.44363 0.8904 0.18774 0.0
H1914 H 0.39194 0.86515 0.03973 0.0
H1915 H 0.40505 0.85011 0.05899 0.0
H1916 H 0.41501 0.86117 0.01177 0.0
H1917 H 0.3944 0.8851 0.21785 0.0
H1918 H 0.41815 0.8874 0.24458 0.0
H1919 H 0.40756 0.87038 0.23959 0.0
C1920 C 0.44056 0.86186 0.61031 0.0
C1921 C 0.44384 0.8523 0.64831 0.0
C1922 C 0.42224 0.86814 0.60432 0.0
C1923 C 0.40694 0.86476 0.63718 0.0
C1924 C 0.40989 0.8544 0.67334 0.0
C1925 C 0.42823 0.8483 0.67832 0.0
C1926 C 0.41962 0.87896 0.56479 0.0
C1927 C 0.394 0.85037 0.70896 0.0
C1928 C 0.36995 0.89125 0.67903 0.0
C1929 C 0.35282 0.88635 0.65733 0.0
C1930 C 0.38785 0.8848 0.67029 0.0
C1931 C 0.38877 0.87316 0.6387 0.0
C1932 C 0.37178 0.86873 0.61392 0.0
C1933 C 0.35396 0.87537 0.6236 0.0
C1934 C 0.40559 0.88998 0.69726 0.0
C1935 C 0.37216 0.85651 0.57936 0.0
H1936 H 0.45254 0.86498 0.58692 0.0
H1937 H 0.43054 0.84065 0.70689 0.0
H1938 H 0.40555 0.87754 0.54565 0.0
H1939 H 0.41946 0.8894 0.58183 0.0
H1940 H 0.43152 0.87864 0.53717 0.0
H1941 H 0.39808 0.84131 0.732 0.0
H1942 H 0.39077 0.85923 0.73366 0.0
H1943 H 0.38047 0.84785 0.68882 0.0
H1944 H 0.3693 0.89998 0.704 0.0
H1945 H 0.34081 0.87153 0.60655 0.0
H1946 H 0.41775 0.89165 0.67116 0.0
H1947 H 0.41034 0.88207 0.72435 0.0
H1948 H 0.40278 0.89983 0.7172 0.0
H1949 H 0.38507 0.85697 0.55495 0.0
H1950 H 0.35888 0.856 0.55628 0.0
H1951 H 0.37316 0.84679 0.60105 0.0
C1952 C 0.60031 0.61304 0.35867 0.0
C1953 C 0.5967 0.60219 0.39182 0.0
C1954 C 0.61883 0.61919 0.35548 0.0
C1955 C 0.63407 0.61426 0.38585 0.0
C1956 C 0.63071 0.60276 0.41714 0.0
C1957 C 0.61209 0.59693 0.41985 0.0
C1958 C 0.62178 0.63143 0.3217 0.0
C1959 C 0.64654 0.59702 0.44972 0.0
C1960 C 0.68729 0.62408 0.36878 0.0
C1961 C 0.68981 0.63375 0.40674 0.0
C1962 C 0.66901 0.61804 0.35984 0.0
C1963 C 0.65288 0.62189 0.3893 0.0
C1964 C 0.6552 0.6322 0.42584 0.0
C1965 C 0.67361 0.63795 0.43418 0.0
C1966 C 0.66718 0.60707 0.3206 0.0
C1967 C 0.63841 0.63676 0.45773 0.0
H1968 H 0.58843 0.61718 0.33711 0.0
H1969 H 0.60942 0.58838 0.44487 0.0
H1970 H 0.62337 0.64099 0.34398 0.0
H1971 H 0.63531 0.63018 0.29995 0.0
H1972 H 0.60941 0.63284 0.29602 0.0
H1973 H 0.6421 0.58727 0.4684 0.0
H1974 H 0.65984 0.59497 0.42785 0.0
H1975 H 0.65035 0.60477 0.47827 0.0
H1976 H 0.69978 0.62077 0.34757 0.0
H1977 H 0.67541 0.64563 0.46286 0.0
H1978 H 0.65436 0.60911 0.29704 0.0
H1979 H 0.66496 0.59682 0.33824 0.0
H1980 H 0.68031 0.6065 0.29693 0.0
H1981 H 0.6258 0.63965 0.43455 0.0
H1982 H 0.64221 0.64572 0.48148 0.0
H1983 H 0.63378 0.62805 0.48172 0.0
C1984 C 0.61251 0.63095 0.87568 0.0
C1985 C 0.60288 0.62904 0.83073 0.0
C1986 C 0.6309 0.62504 0.88417 0.0
C1987 C 0.63978 0.6169 0.84701 0.0
C1988 C 0.63007 0.6149 0.80171 0.0
C1989 C 0.61182 0.621 0.79413 0.0
C1990 C 0.64083 0.6275 0.93284 0.0
C1991 C 0.63885 0.60615 0.76134 0.0
C1992 C 0.6942 0.60953 0.84667 0.0
C1993 C 0.69488 0.59599 0.86562 0.0
C1994 C 0.67645 0.61663 0.84172 0.0
C1995 C 0.65891 0.61004 0.85578 0.0
C1996 C 0.65954 0.5965 0.87582 0.0
C1997 C 0.67745 0.5897 0.88068 0.0
C1998 C 0.67642 0.63108 0.8204 0.0
C1999 C 0.64121 0.58906 0.8912 0.0
H2000 H 0.60579 0.63725 0.90391 0.0
H2001 H 0.60437 0.61927 0.75963 0.0
H2002 H 0.64332 0.61747 0.95183 0.0
H2003 H 0.65525 0.63231 0.92666 0.0
H2004 H 0.63221 0.63432 0.95747 0.0
H2005 H 0.62959 0.6058 0.72794 0.0
H2006 H 0.6533 0.61029 0.7509 0.0
H2007 H 0.64105 0.5954 0.77475 0.0
H2008 H 0.70749 0.61448 0.83465 0.0
H2009 H 0.67773 0.57941 0.89647 0.0
H2010 H 0.66855 0.63827 0.84526 0.0
H2011 H 0.66865 0.63109 0.78468 0.0
H2012 H 0.69133 0.63513 0.81436 0.0
H2013 H 0.63307 0.59537 0.91837 0.0
H2014 H 0.64421 0.57873 0.90763 0.0
H2015 H 0.63163 0.58762 0.85881 0.0
C2016 C 0.44767 0.37209 0.62268 0.0
C2017 C 0.45102 0.38081 0.58223 0.0
C2018 C 0.42954 0.36557 0.62948 0.0
C2019 C 0.41439 0.36787 0.59512 0.0
C2020 C 0.41745 0.37718 0.55559 0.0
C2021 C 0.43565 0.38352 0.54972 0.0
C2022 C 0.42687 0.35576 0.67223 0.0
C2023 C 0.40173 0.38005 0.51826 0.0
C2024 C 0.37673 0.33966 0.57342 0.0
C2025 C 0.36043 0.34479 0.59854 0.0
C2026 C 0.39437 0.34696 0.57276 0.0
C2027 C 0.3959 0.35977 0.59789 0.0
C2028 C 0.37953 0.36503 0.62345 0.0
C2029 C 0.36199 0.3575 0.62336 0.0
C2030 C 0.41135 0.34102 0.54459 0.0
C2031 C 0.38055 0.37861 0.65079 0.0
H2032 H 0.45946 0.36991 0.64787 0.0
H2033 H 0.43795 0.3905 0.51902 0.0
H2034 H 0.41337 0.35829 0.69262 0.0
H2035 H 0.42535 0.34501 0.65829 0.0
H2036 H 0.4393 0.3561 0.69821 0.0
H2037 H 0.40595 0.38828 0.49169 0.0
H2038 H 0.3985 0.37044 0.49739 0.0
H2039 H 0.38815 0.38324 0.53702 0.0
H2040 H 0.37562 0.32997 0.5536 0.0
H2041 H 0.34959 0.36146 0.64344 0.0
H2042 H 0.42406 0.33988 0.56925 0.0
H2043 H 0.4156 0.34821 0.51458 0.0
H2044 H 0.40798 0.33075 0.52821 0.0
H2045 H 0.39243 0.37828 0.67828 0.0
H2046 H 0.36674 0.38109 0.67003 0.0
H2047 H 0.38394 0.38714 0.62476 0.0
C2048 C 0.37193 0.40334 0.09285 0.0
C2049 C 0.35523 0.39712 0.11285 0.0
C2050 C 0.39004 0.39662 0.09391 0.0
C2051 C 0.39161 0.38328 0.11528 0.0
C2052 C 0.37475 0.37677 0.13436 0.0
C2053 C 0.35681 0.38376 0.133 0.0
C2054 C 0.4076 0.40397 0.0732 0.0
C2055 C 0.37575 0.36256 0.1575 0.0
C2056 C 0.43708 0.36151 0.09118 0.0
C2057 C 0.4477 0.3637 0.13448 0.0
C2058 C 0.41881 0.36782 0.08418 0.0
C2059 C 0.4111 0.37663 0.12114 0.0
C2060 C 0.42203 0.37913 0.16428 0.0
C2061 C 0.4401 0.37265 0.17037 0.0
C2062 C 0.4076 0.36486 0.03773 0.0
C2063 C 0.41457 0.38857 0.20436 0.0
H2064 H 0.3709 0.4135 0.07618 0.0
H2065 H 0.34412 0.37887 0.14887 0.0
H2066 H 0.41816 0.40603 0.10312 0.0
H2067 H 0.415 0.3973 0.04575 0.0
H2068 H 0.4038 0.41398 0.05542 0.0
H2069 H 0.36117 0.35848 0.16732 0.0
H2070 H 0.38287 0.35516 0.13199 0.0
H2071 H 0.3847 0.363 0.19136 0.0
H2072 H 0.4428 0.35455 0.06349 0.0
H2073 H 0.44837 0.37462 0.20349 0.0
H2074 H 0.40401 0.37469 0.01863 0.0
H2075 H 0.39367 0.35972 0.04708 0.0
H2076 H 0.41579 0.3581 0.01197 0.0
H2077 H 0.41165 0.39904 0.18913 0.0
H2078 H 0.42498 0.3896 0.23533 0.0
H2079 H 0.40065 0.38452 0.21906 0.0
C2080 C 0.99676 0.96474 0.47751 0.0
C2081 C 1.0144 0.95774 0.48414 0.0
C2082 C 0.99643 0.97886 0.46543 0.0
C2083 C 1.01417 0.98608 0.45983 0.0
C2084 C 0.03201 0.97898 0.46505 0.0
C2085 C 0.03191 0.96488 0.4772 0.0
C2086 C 0.97714 0.98612 0.4598 0.0
C2087 C 0.05121 0.98636 0.45913 0.0
C2088 C 1.01592 0.01997 0.39012 0.0
C2089 C 1.01697 0.02963 0.42858 0.0
C2090 C 1.01456 0.00576 0.39977 0.0
C2091 C 1.01416 0.00113 0.4491 0.0
C2092 C 1.01461 0.01083 0.48815 0.0
C2093 C 1.01599 0.02502 0.47739 0.0
C2094 C 1.01401 -0.00429 0.35723 0.0
C2095 C 1.01416 0.00621 0.54123 0.0
H2096 H 0.98321 0.9592 0.48245 0.0
H2097 H 0.04558 0.95956 0.48309 0.0
H2098 H 0.97576 -0.00564 0.488 0.0
H2099 H 0.97628 0.99121 0.42326 0.0
H2100 H 0.96468 0.97889 0.46369 0.0
H2101 H 0.06378 0.97922 0.46282 0.0
H2102 H 0.05198 0.99145 0.42255 0.0
H2103 H 0.05254 -0.00538 0.48731 0.0
H2104 H 1.01628 0.02355 0.35229 0.0
H2105 H 1.01686 0.03247 0.50712 0.0
H2106 H 1.00114 0.98885 0.36038 0.0
H2107 H 0.02706 0.98897 0.3582 0.0
H2108 H 1.01353 0.00106 0.32105 0.0
H2109 H 1.00135 -0.0005 0.54798 0.0
H2110 H 1.01365 0.01509 0.56717 0.0
H2111 H 0.02727 -6e-05 0.54943 0.0
C2112 C 0.27897 0.21246 0.48476 0.0
C2113 C 0.26244 0.20562 0.46705 0.0
C2114 C 0.27795 0.22623 0.50082 0.0
C2115 C 0.26008 0.23341 0.49803 0.0
C2116 C 0.24325 0.22652 0.48123 0.0
C2117 C 0.24458 0.21264 0.46659 0.0
C2118 C 0.29613 0.2332 0.51953 0.0
C2119 C 0.22401 0.23393 0.47722 0.0
C2120 C 0.25631 0.26613 0.57373 0.0
C2121 C 0.26233 0.27622 0.53967 0.0
C2122 C 0.25499 0.25216 0.56037 0.0
C2123 C 0.25925 0.24826 0.51144 0.0
C2124 C 0.26402 0.25847 0.47604 0.0
C2125 C 0.26569 0.27234 0.49069 0.0
C2126 C 0.25003 0.24152 0.59922 0.0
C2127 C 0.26822 0.25468 0.42319 0.0
H2128 H 0.29288 0.20723 0.48465 0.0
H2129 H 0.23164 0.20735 0.45398 0.0
H2130 H 0.30034 0.24173 0.49427 0.0
H2131 H 0.29342 0.23786 0.55621 0.0
H2132 H 0.30852 0.22589 0.52259 0.0
H2133 H 0.21217 0.22695 0.4648 0.0
H2134 H 0.21988 0.23846 0.51322 0.0
H2135 H 0.22529 0.24263 0.45067 0.0
H2136 H 0.25315 0.2691 0.61134 0.0
H2137 H 0.27044 0.28003 0.46419 0.0
H2138 H 0.26278 0.23472 0.60567 0.0
H2139 H 0.23798 0.23479 0.58662 0.0
H2140 H 0.24582 0.24636 0.63473 0.0
H2141 H 0.28194 0.24869 0.42118 0.0
H2142 H 0.26966 0.26397 0.39926 0.0
H2143 H 0.25651 0.248 0.40838 0.0
C2144 C 1.0221 0.27172 0.74164 0.0
C2145 C 1.01931 0.27742 0.69477 0.0
C2146 C 1.02246 0.25732 0.74847 0.0
C2147 C 1.01996 0.24847 0.7074 0.0
C2148 C 1.01701 0.25416 0.66008 0.0
C2149 C 1.0168 0.26857 0.65431 0.0
C2150 C 0.02564 0.25157 0.79952 0.0
C2151 C 1.01432 0.24502 0.6155 0.0
C2152 C 0.03968 0.2121 0.72183 0.0
C2153 C 1.02297 0.20479 0.73578 0.0
C2154 C 0.03881 0.22628 0.71097 0.0
C2155 C 1.02078 0.23324 0.71398 0.0
C2156 C 1.00369 0.22577 0.72551 0.0
C2157 C 1.005 0.21161 0.73637 0.0
C2158 C 0.0573 0.23392 0.69842 0.0
C2159 C 0.98419 0.23287 0.72866 0.0
H2160 H 0.02392 0.27853 0.773 0.0
H2161 H 1.01504 0.27292 0.6178 0.0
H2162 H 1.01331 0.24478 0.81008 0.0
H2163 H 0.03895 0.24509 0.80005 0.0
H2164 H 0.02715 0.25986 0.82758 0.0
H2165 H 1.01159 0.25111 0.58149 0.0
H2166 H 0.02745 0.23857 0.60978 0.0
H2167 H 1.00195 0.23784 0.62144 0.0
H2168 H 0.05355 0.2068 0.72085 0.0
H2169 H 0.99208 0.20604 0.74778 0.0
H2170 H 0.0606 0.24156 0.72773 0.0
H2171 H 0.05554 0.23978 0.66358 0.0
H2172 H 0.0699 0.22681 0.69458 0.0
H2173 H 0.9842 0.24029 0.75981 0.0
H2174 H 0.97213 0.22538 0.7342 0.0
H2175 H 0.98136 0.2389 0.69465 0.0
C2176 C 0.28225 0.97223 0.66657 0.0
C2177 C 0.2813 0.96388 0.70884 0.0
C2178 C 0.28079 0.98667 0.66982 0.0
C2179 C 0.27809 0.99287 0.71639 0.0
C2180 C 0.27715 0.98452 0.75924 0.0
C2181 C 0.27881 0.9701 0.75495 0.0
C2182 C 0.28193 -0.00473 0.62343 0.0
C2183 C 0.27423 0.99083 0.80954 0.0
C2184 C 0.29024 0.03054 0.73865 0.0
C2185 C 0.27171 0.03657 0.73919 0.0
C2186 C 0.29262 0.01639 0.72917 0.0
C2187 C 0.27606 0.00809 0.72047 0.0
C2188 C 0.25743 0.01423 0.71846 0.0
C2189 C 0.25549 0.02844 0.72764 0.0
C2190 C 0.31273 0.01019 0.731 0.0
C2191 C 0.23945 0.00567 0.70904 0.0
H2192 H 0.28374 0.96747 0.63067 0.0
H2193 H 0.27821 0.96369 0.78769 0.0
H2194 H 0.26816 0.00102 0.61809 0.0
H2195 H 0.29369 0.00308 0.62668 0.0
H2196 H 0.2847 0.98885 0.59024 0.0
H2197 H 0.27382 0.98289 0.83915 0.0
H2198 H 0.28613 -0.00176 0.81759 0.0
H2199 H 0.26043 -0.00324 0.81039 0.0
H2200 H 0.30282 0.03672 0.74822 0.0
H2201 H 0.24118 0.03311 0.7274 0.0
H2202 H 0.31548 0.00381 0.6978 0.0
H2203 H 0.31395 0.00325 0.76343 0.0
H2204 H 0.32421 0.01825 0.73359 0.0
H2205 H 0.24123 -0.00056 0.67506 0.0
H2206 H 0.22624 0.01218 0.7053 0.0
H2207 H 0.23721 -0.0017 0.73991 0.0
C2208 C 0.76122 0.71519 0.51976 0.0
C2209 C 0.75855 0.71031 0.47175 0.0
C2210 C 0.7626 0.72944 0.52921 0.0
C2211 C 0.76132 0.73894 0.4896 0.0
C2212 C 0.7583 0.73408 0.44119 0.0
C2213 C 0.75699 0.71981 0.43283 0.0
C2214 C 0.76577 0.73431 0.58137 0.0
C2215 C 0.75694 0.74393 0.39809 0.0
C2216 C 0.75032 0.77634 0.521 0.0
C2217 C 0.76898 0.78212 0.5214 0.0
C2218 C 0.74753 0.76231 0.50973 0.0
C2219 C 0.76382 0.75395 0.49864 0.0
C2220 C 0.78262 0.75985 0.49732 0.0
C2221 C 0.78497 0.77389 0.50875 0.0
C2222 C 0.72728 0.75634 0.5113 0.0
C2223 C 0.8003 0.75124 0.48519 0.0
H2224 H 0.76231 0.70786 0.54989 0.0
H2225 H 0.75531 0.71607 0.39549 0.0
H2226 H 0.77985 0.73983 0.584 0.0
H2227 H 0.75425 0.74176 0.59202 0.0
H2228 H 0.76579 0.7256 0.60816 0.0
H2229 H 0.75367 0.73849 0.36306 0.0
H2230 H 0.74547 0.75177 0.40486 0.0
H2231 H 0.77085 0.74961 0.39374 0.0
H2232 H 0.73796 0.78264 0.53144 0.0
H2233 H 0.79939 0.77841 0.50862 0.0
H2234 H 0.7263 0.74845 0.54093 0.0
H2235 H 0.72392 0.75104 0.47612 0.0
H2236 H 0.71608 0.7644 0.51807 0.0
H2237 H 0.80215 0.74299 0.51326 0.0
H2238 H 0.81379 0.75755 0.48385 0.0
H2239 H 0.79838 0.74605 0.44913 0.0
C2240 C 0.04127 0.71102 0.25333 0.0
C2241 C 1.02239 0.70614 0.26119 0.0
C2242 C 0.04448 0.72413 0.23263 0.0
C2243 C 0.02837 0.73232 0.21862 0.0
C2244 C 1.00927 0.72714 0.22467 0.0
C2245 C 1.00649 0.71414 0.24665 0.0
C2246 C 0.06501 0.72945 0.22784 0.0
C2247 C 0.99176 0.73546 0.20907 0.0
C2248 C 0.03154 0.77147 0.21458 0.0
C2249 C 0.03354 0.77399 0.16395 0.0
C2250 C 0.03069 0.75792 0.23303 0.0
C2251 C 0.03136 0.74661 0.19998 0.0
C2252 C 0.03396 0.74901 0.14909 0.0
C2253 C 0.03533 0.76267 0.13178 0.0
C2254 C 0.02841 0.75572 0.28778 0.0
C2255 C 0.0345 0.73719 0.11271 0.0
H2256 H 0.0535 0.70481 0.26534 0.0
H2257 H 0.99192 0.71027 0.25297 0.0
H2258 H 0.06788 0.73293 0.18962 0.0
H2259 H 0.06698 0.73858 0.25214 0.0
H2260 H 0.07594 0.72148 0.23795 0.0
H2261 H 0.97806 0.72947 0.21264 0.0
H2262 H 0.99058 0.74492 0.23203 0.0
H2263 H 0.99338 0.73887 0.17027 0.0
H2264 H 0.02991 0.78008 0.23981 0.0
H2265 H 0.03741 0.76445 0.09277 0.0
H2266 H 0.03934 0.74819 0.30126 0.0
H2267 H 1.01386 0.75132 0.29568 0.0
H2268 H 0.03001 0.76552 0.30883 0.0
H2269 H 0.04587 0.72961 0.12313 0.0
H2270 H 0.03735 0.74079 0.07454 0.0
H2271 H 1.0204 0.73163 0.11333 0.0
C2272 C 0.76184 0.96305 0.23443 0.0
C2273 C 0.77984 0.95635 0.23118 0.0
C2274 C 0.76068 0.97714 0.24639 0.0
C2275 C 0.77794 0.98467 0.25516 0.0
C2276 C 0.79613 0.9779 0.25317 0.0
C2277 C 0.79686 0.96379 0.24125 0.0
C2278 C 0.74101 0.98403 0.24847 0.0
C2279 C 0.81483 0.98563 0.26264 0.0
C2280 C 0.77533 0.02365 0.23838 0.0
C2281 C 0.77292 0.02809 0.28704 0.0
C2282 C 0.77732 0.00951 0.22746 0.0
C2283 C 0.77691 -0.00032 0.2662 0.0
C2284 C 0.77492 0.00415 0.31545 0.0
C2285 C 0.77301 0.01831 0.32527 0.0
C2286 C 0.77947 0.00507 0.17448 0.0
C2287 C 0.77451 0.99396 0.35768 0.0
H2288 H 0.74867 0.9574 0.22588 0.0
H2289 H 0.81079 0.95859 0.2392 0.0
H2290 H 0.73885 0.989 0.28487 0.0
H2291 H 0.74019 0.99233 0.22026 0.0
H2292 H 0.72896 0.9766 0.24209 0.0
H2293 H 0.82773 0.97874 0.26082 0.0
H2294 H 0.8166 0.99403 0.23508 0.0
H2295 H 0.81437 0.99058 0.29943 0.0
H2296 H 0.77521 0.0312 0.20881 0.0
H2297 H 0.77158 0.02174 0.36307 0.0
H2298 H 0.76697 -0.00152 0.16379 0.0
H2299 H 0.79279 -0.00127 0.16994 0.0
H2300 H 0.78025 0.01404 0.14891 0.0
H2301 H 0.76194 0.98687 0.35361 0.0
H2302 H 0.77344 -0.00082 0.39399 0.0
H2303 H 0.78781 0.98747 0.35726 0.0
C2304 C 0.04374 0.46253 0.02134 0.0
C2305 C 0.02511 0.45668 0.02294 0.0
C2306 C 0.04638 0.47652 0.00927 0.0
C2307 C 0.02998 0.48482 -0.0013 0.0
C2308 C 1.0112 0.47888 -0.00128 0.0
C2309 C 1.009 0.46485 0.01081 0.0
C2310 C 0.06662 0.48253 0.00937 0.0
C2311 C 0.9934 0.48742 0.9873 0.0
C2312 C 0.03274 0.52364 0.01847 0.0
C2313 C 0.03494 0.52847 0.97015 0.0
C2314 C 0.03144 0.50941 0.0284 0.0
C2315 C 0.03236 0.49984 0.98901 0.0
C2316 C 0.03496 0.50463 0.94029 0.0
C2317 C 0.03617 0.5189 0.93142 0.0
C2318 C 0.02871 0.50463 0.08088 0.0
C2319 C 0.03599 0.4947 0.89741 0.0
H2320 H 0.05621 0.4563 0.03139 0.0
H2321 H 0.99461 0.4603 0.01152 0.0
H2322 H 0.06966 0.48776 0.97382 0.0
H2323 H 0.06782 0.49048 0.03867 0.0
H2324 H 0.0779 0.4745 0.01569 0.0
H2325 H 0.97993 0.48108 0.98707 0.0
H2326 H 0.99176 0.49575 0.0151 0.0
H2327 H 0.995 0.49251 0.9509 0.0
H2328 H 0.03194 0.53101 0.0485 0.0
H2329 H 0.0375 0.52258 0.89388 0.0
H2330 H 0.04035 0.49723 0.09109 0.0
H2331 H 1.01468 0.49907 0.08452 0.0
H2332 H 0.02886 0.51338 0.10741 0.0
H2333 H 0.04751 0.48688 0.90376 0.0
H2334 H 0.03899 0.50008 0.86205 0.0
H2335 H 1.02206 0.48902 0.89402 0.0
C2336 C 0.28449 0.71328 0.99258 0.0
C2337 C 0.26799 0.70705 0.97211 0.0
C2338 C 0.28359 0.72666 0.01248 0.0
C2339 C 0.26584 0.73404 0.01107 0.0
C2340 C 0.24906 0.72774 0.99131 0.0
C2341 C 0.25028 0.71426 0.9726 0.0
C2342 C 0.30171 0.733 0.03412 0.0
C2343 C 0.22993 0.73537 0.98887 0.0
C2344 C 0.26035 0.76463 0.09692 0.0
C2345 C 0.26585 0.77571 0.0664 0.0
C2346 C 0.26008 0.75101 0.07926 0.0
C2347 C 0.26497 0.74845 0.02957 0.0
C2348 C 0.26962 0.75963 -0.0021 0.0
C2349 C 0.27015 0.77313 0.01681 0.0
C2350 C 0.25518 0.73932 0.11416 0.0
C2351 C 0.27454 0.75728 0.94439 0.0
H2352 H 0.29827 0.70787 0.99186 0.0
H2353 H 0.23736 0.70941 0.95782 0.0
H2354 H 0.30605 0.74222 0.01228 0.0
H2355 H 0.29883 0.73658 0.07224 0.0
H2356 H 0.31406 0.7256 0.03482 0.0
H2357 H 0.21818 0.72891 0.97287 0.0
H2358 H 0.22543 0.73872 0.02619 0.0
H2359 H 0.23158 0.74486 0.96615 0.0
H2360 H 0.25653 0.76657 0.13498 0.0
H2361 H 0.27456 0.78161 0.99309 0.0
H2362 H 0.26782 0.73226 0.11763 0.0
H2363 H 0.24295 0.73311 0.09949 0.0
H2364 H 0.2512 0.74311 0.15141 0.0
H2365 H 0.28814 0.75117 0.94149 0.0
H2366 H 0.27651 0.76716 0.92394 0.0
H2367 H 0.2629 0.75119 0.92632 0.0
C2368 C 0.25365 0.53091 0.20107 0.0
C2369 C 0.2593 0.53342 0.24965 0.0
C2370 C 0.25302 0.51732 0.18274 0.0
C2371 C 0.25862 0.50618 0.21359 0.0
C2372 C 0.2646 0.50876 0.26251 0.0
C2373 C 0.26467 0.52238 0.28011 0.0
C2374 C 0.24628 0.51487 0.13065 0.0
C2375 C 0.27112 0.49718 0.2961 0.0
C2376 C 0.24385 0.46903 0.18843 0.0
C2377 C 0.26064 0.46388 0.166 0.0
C2378 C 0.24265 0.483 0.20235 0.0
C2379 C 0.25883 0.4918 0.19462 0.0
C2380 C 0.27576 0.48662 0.17161 0.0
C2381 C 0.27638 0.47272 0.15716 0.0
C2382 C 0.22425 0.48828 0.22602 0.0
C2383 C 0.29346 0.49561 0.16381 0.0
H2384 H 0.24941 0.53953 0.17786 0.0
H2385 H 0.26915 0.52445 0.31763 0.0
H2386 H 0.25806 0.50999 0.10887 0.0
H2387 H 0.23381 0.50759 0.13061 0.0
H2388 H 0.24183 0.52462 0.11205 0.0
H2389 H 0.27555 0.50102 0.33295 0.0
H2390 H 0.25923 0.48955 0.30097 0.0
H2391 H 0.28357 0.49161 0.27933 0.0
H2392 H 0.23166 0.46214 0.19482 0.0
H2393 H 0.28943 0.46862 0.14015 0.0
H2394 H 0.21908 0.4977 0.20658 0.0
H2395 H 0.22719 0.49126 0.2647 0.0
H2396 H 0.21249 0.4804 0.22577 0.0
H2397 H 0.28954 0.50505 0.14273 0.0
H2398 H 0.3052 0.49009 0.14379 0.0
H2399 H 0.29918 0.49907 0.19992 0.0
C2400 C 0.77938 0.21205 0.00322 0.0
C2401 C 0.76291 0.20595 0.98209 0.0
C2402 C 0.7787 0.22556 0.02194 0.0
C2403 C 0.76125 0.23322 0.01846 0.0
C2404 C 0.74442 0.22702 -0.00138 0.0
C2405 C 0.74538 0.21338 0.98132 0.0
C2406 C 0.79682 0.23179 0.04396 0.0
C2407 C 0.72561 0.23495 0.99385 0.0
C2408 C 0.75628 0.26541 0.09679 0.0
C2409 C 0.76273 0.27577 0.06429 0.0
C2410 C 0.75557 0.2515 0.08229 0.0
C2411 C 0.76087 0.24794 0.03369 0.0
C2412 C 0.76643 0.25839 -8e-05 0.0
C2413 C 0.76749 0.27218 0.01578 0.0
C2414 C 0.74977 0.24059 0.11941 0.0
C2415 C 0.77177 0.25496 0.9474 0.0
H2416 H 0.79303 0.20646 0.00356 0.0
H2417 H 0.73246 0.20863 0.96617 0.0
H2418 H 0.80204 0.24042 0.02038 0.0
H2419 H 0.7936 0.23618 0.08079 0.0
H2420 H 0.8087 0.22407 0.04771 0.0
H2421 H 0.71364 0.22842 0.97934 0.0
H2422 H 0.72115 0.2392 0.03003 0.0
H2423 H 0.72772 0.24389 0.96865 0.0
H2424 H 0.75208 0.26813 0.13398 0.0
H2425 H 0.77265 0.28007 0.99054 0.0
H2426 H 0.76207 0.23336 0.12547 0.0
H2427 H 0.73745 0.23437 0.10528 0.0
H2428 H 0.74554 0.24515 0.15538 0.0
H2429 H 0.78512 0.24853 0.94681 0.0
H2430 H 0.77436 0.2644 0.92488 0.0
H2431 H 0.76005 0.2488 0.92998 0.0
C2432 C 0.80066 0.52285 0.79746 0.0
C2433 C 0.78377 0.53076 0.79191 0.0
C2434 C 0.80102 0.50888 0.7837 0.0
C2435 C 0.784 0.5027 0.76461 0.0
C2436 C 0.76706 0.51076 0.75759 0.0
C2437 C 0.76719 0.52477 0.77111 0.0
C2438 C 0.81944 0.50064 0.79079 0.0
C2439 C 0.74862 0.50447 0.73762 0.0
C2440 C 0.78892 0.46905 0.69467 0.0
C2441 C 0.78446 0.45921 0.73111 0.0
C2442 C 0.78884 0.48323 0.70509 0.0
C2443 C 0.78383 0.48772 0.75289 0.0
C2444 C 0.77894 0.47791 0.78967 0.0
C2445 C 0.77939 0.46373 0.77838 0.0
C2446 C 0.79421 0.49341 0.66503 0.0
C2447 C 0.77336 0.48239 0.84099 0.0
H2448 H 0.81346 0.52756 0.81348 0.0
H2449 H 0.75406 0.53088 0.76754 0.0
H2450 H 0.81694 0.49228 0.81813 0.0
H2451 H 0.82373 0.4956 0.75574 0.0
H2452 H 0.83168 0.50718 0.80374 0.0
H2453 H 0.73697 0.5123 0.73257 0.0
H2454 H 0.75146 0.49938 0.70176 0.0
H2455 H 0.74329 0.49634 0.76324 0.0
H2456 H 0.79235 0.46566 0.65765 0.0
H2457 H 0.77601 0.45618 0.80668 0.0
H2458 H 0.80686 0.49971 0.67675 0.0
H2459 H 0.78201 0.50068 0.65839 0.0
H2460 H 0.79788 0.48819 0.62982 0.0
H2461 H 0.78562 0.48802 0.8583 0.0
H2462 H 0.76936 0.47348 0.86487 0.0
H2463 H 0.7609 0.48966 0.8394 0.0
C2464 C 0.52398 0.01888 0.93033 0.0
C2465 C 0.5238 0.0291 0.96696 0.0
C2466 C 0.52285 0.00481 0.9425 0.0
C2467 C 0.5216 0.00091 0.99254 0.0
C2468 C 0.5212 0.01118 0.02974 0.0
C2469 C 0.52221 0.02521 0.01643 0.0
C2470 C 0.52308 0.99415 0.90185 0.0
C2471 C 0.51995 0.00733 0.08351 0.0
C2472 C 0.50237 0.96516 0.02332 0.0
C2473 C 0.51961 0.95782 0.03169 0.0
C2474 C 0.5028 0.97921 0.01027 0.0
C2475 C 0.5209 0.98603 0.00584 0.0
C2476 C 0.53835 0.97862 0.01357 0.0
C2477 C 0.5375 0.96456 0.02626 0.0
C2478 C 0.48391 0.98677 0.00166 0.0
C2479 C 0.55791 0.98561 0.00927 0.0
H2480 H 0.52484 0.02191 0.89196 0.0
H2481 H 0.52212 0.03314 0.04468 0.0
H2482 H 0.53579 0.9872 0.90627 0.0
H2483 H 0.50988 0.98759 0.90403 0.0
H2484 H 0.52376 -0.00104 0.86473 0.0
H2485 H 0.51961 0.01658 0.10781 0.0
H2486 H 0.50671 0.00107 0.09039 0.0
H2487 H 0.5326 0.00083 0.0938 0.0
H2488 H 0.48854 0.95991 0.02725 0.0
H2489 H 0.55081 0.95893 0.03346 0.0
H2490 H 0.48373 0.99127 0.96408 0.0
H2491 H 0.48253 -0.00451 0.02798 0.0
H2492 H 0.47109 0.97988 0.00594 0.0
H2493 H 0.55971 0.99008 0.97192 0.0
H2494 H 0.5701 0.97834 0.01633 0.0
H2495 H 0.55884 -0.00571 0.03589 0.0
C2496 C 0.49983 0.21908 0.27183 0.0
C2497 C 0.51764 0.21356 0.28682 0.0
C2498 C 0.49849 0.23292 0.25634 0.0
C2499 C 0.51545 0.24122 0.25502 0.0
C2500 C 0.53355 0.23552 0.26892 0.0
C2501 C 0.53438 0.22176 0.28516 0.0
C2502 C 0.47892 0.23875 0.24242 0.0
C2503 C 0.55201 0.24395 0.26691 0.0
C2504 C 0.51618 0.27308 0.17381 0.0
C2505 C 0.51417 0.28372 0.20849 0.0
C2506 C 0.51648 0.25917 0.18845 0.0
C2507 C 0.51439 0.25587 0.23888 0.0
C2508 C 0.51206 0.26658 0.27403 0.0
C2509 C 0.51221 0.28045 0.2584 0.0
C2510 C 0.51944 0.24805 0.1501 0.0
C2511 C 0.50951 0.2634 0.32804 0.0
H2512 H 0.4869 0.21268 0.2737 0.0
H2513 H 0.54814 0.21738 0.29671 0.0
H2514 H 0.47536 0.24767 0.26653 0.0
H2515 H 0.47929 0.24267 0.20405 0.0
H2516 H 0.46715 0.23092 0.2456 0.0
H2517 H 0.56498 0.23779 0.27741 0.0
H2518 H 0.55424 0.2481 0.22922 0.0
H2519 H 0.55086 0.25296 0.29207 0.0
H2520 H 0.5179 0.27569 0.13523 0.0
H2521 H 0.51057 0.28873 0.28501 0.0
H2522 H 0.50721 0.24057 0.15106 0.0
H2523 H 0.53289 0.24216 0.15827 0.0
H2524 H 0.52059 0.25238 0.11231 0.0
H2525 H 0.49713 0.25618 0.33335 0.0
H2526 H 0.50688 0.27288 0.35022 0.0
H2527 H 0.52267 0.25815 0.34237 0.0
C2528 C 0.52202 0.7111 0.72812 0.0
C2529 C 0.52542 0.70655 0.77627 0.0
C2530 C 0.52002 0.72527 0.71775 0.0
C2531 C 0.52136 0.735 0.75658 0.0
C2532 C 0.52437 0.73043 0.80537 0.0
C2533 C 0.52636 0.71624 0.81462 0.0
C2534 C 0.51682 0.72985 0.66524 0.0
C2535 C 0.52574 0.74051 0.84771 0.0
C2536 C 0.53624 0.77168 0.72494 0.0
C2537 C 0.5183 0.77852 0.72473 0.0
C2538 C 0.53743 0.75751 0.7355 0.0
C2539 C 0.52026 0.75003 0.74606 0.0
C2540 C 0.50213 0.75692 0.74683 0.0
C2541 C 0.50137 0.77111 0.7361 0.0
C2542 C 0.55702 0.75048 0.73445 0.0
C2543 C 0.48356 0.74926 0.75838 0.0
H2544 H 0.52131 0.7036 0.6985 0.0
H2545 H 0.52855 0.7127 0.85208 0.0
H2546 H 0.50345 0.73621 0.66267 0.0
H2547 H 0.5291 0.73646 0.65303 0.0
H2548 H 0.51551 0.72094 0.63959 0.0
H2549 H 0.52753 0.7352 0.88369 0.0
H2550 H 0.53826 0.74757 0.84203 0.0
H2551 H 0.5125 0.74704 0.84931 0.0
H2552 H 0.54932 0.77732 0.7153 0.0
H2553 H 0.4875 0.77642 0.73624 0.0
H2554 H 0.55708 0.74219 0.70617 0.0
H2555 H 0.55996 0.74547 0.77045 0.0
H2556 H 0.569 0.75784 0.72622 0.0
H2557 H 0.48123 0.7409 0.73099 0.0
H2558 H 0.47069 0.7562 0.7582 0.0
H2559 H 0.48461 0.74424 0.79503 0.0
C2560 C 0.53187 0.52444 0.4856 0.0
C2561 C 0.51533 0.53193 0.47184 0.0
C2562 C 0.53059 0.51038 0.49793 0.0
C2563 C 0.51231 0.50371 0.49646 0.0
C2564 C 0.49542 0.51137 0.48477 0.0
C2565 C 0.49713 0.52543 0.47257 0.0
C2566 C 0.5489 0.50256 0.51074 0.0
C2567 C 0.47569 0.50457 0.48315 0.0
C2568 C 0.51375 0.46493 0.47531 0.0
C2569 C 0.5116 0.45989 0.52333 0.0
C2570 C 0.51349 0.47922 0.46584 0.0
C2571 C 0.51108 0.4886 0.50541 0.0
C2572 C 0.50848 0.48356 0.55379 0.0
C2573 C 0.50884 0.46926 0.5622 0.0
C2574 C 0.51626 0.48428 0.4137 0.0
C2575 C 0.50594 0.49328 0.59687 0.0
H2576 H 0.54591 0.52951 0.48551 0.0
H2577 H 0.48436 0.53118 0.4614 0.0
H2578 H 0.54718 0.49724 0.54669 0.0
H2579 H 0.55166 0.49445 0.48268 0.0
H2580 H 0.56179 0.50945 0.51263 0.0
H2581 H 0.46385 0.51219 0.47679 0.0
H2582 H 0.47535 0.49678 0.45317 0.0
H2583 H 0.47277 0.499 0.51811 0.0
H2584 H 0.51574 0.45771 0.4452 0.0
H2585 H 0.50755 0.46542 0.59956 0.0
H2586 H 0.52985 0.49042 0.41111 0.0
H2587 H 0.50413 0.49122 0.4031 0.0
H2588 H 0.51708 0.47562 0.38686 0.0
H2589 H 0.51934 0.4995 0.60194 0.0
H2590 H 0.50282 0.48766 0.63169 0.0
H2591 H 0.49392 0.50065 0.58962 0.0
C2592 C 0.9387 0.0929 0.37095 0.0
C2593 C 0.94613 0.08447 0.3332 0.0
C2594 C 0.91875 0.09305 0.3822 0.0
C2595 C 0.90579 0.08472 0.35469 0.0
C2596 C 0.91309 0.07638 0.31609 0.0
C2597 C 0.93309 0.07627 0.30611 0.0
C2598 C 0.91157 0.10201 0.42395 0.0
C2599 C 0.89976 0.06739 0.28565 0.0
C2600 C 0.85754 0.07344 0.40988 0.0
C2601 C 0.84432 0.08258 0.38745 0.0
C2602 C 0.87755 0.07426 0.40045 0.0
C2603 C 0.88468 0.08433 0.36714 0.0
C2604 C 0.87155 0.09364 0.34449 0.0
C2605 C 0.8516 0.09272 0.35513 0.0
C2606 C 0.89106 0.06418 0.42564 0.0
C2607 C 0.87856 0.10446 0.30842 0.0
H2608 H 0.9484 0.09945 0.39182 0.0
H2609 H 0.93846 0.06953 0.27739 0.0
H2610 H 0.90044 0.10937 0.41037 0.0
H2611 H 0.90455 0.09544 0.45239 0.0
H2612 H 0.92346 0.10801 0.4415 0.0
H2613 H 0.90757 0.062 0.25542 0.0
H2614 H 0.89278 0.05947 0.30944 0.0
H2615 H 0.88801 0.07377 0.26942 0.0
H2616 H 0.8523 0.06542 0.43432 0.0
H2617 H 0.84175 0.1 0.33802 0.0
H2618 H 0.9027 0.06989 0.4452 0.0
H2619 H 0.89818 0.05748 0.39782 0.0
H2620 H 0.88337 0.05744 0.45253 0.0
H2621 H 0.88959 0.1112 0.32603 0.0
H2622 H 0.86657 0.11108 0.29453 0.0
H2623 H 0.88566 0.09934 0.2766 0.0
C2624 C 0.43354 0.15362 0.42129 0.0
C2625 C 0.44798 0.15399 0.38477 0.0
C2626 C 0.41377 0.15318 0.40919 0.0
C2627 C 0.40814 0.15282 0.35917 0.0
C2628 C 0.42261 0.15238 0.32203 0.0
C2629 C 0.44236 0.15304 0.33524 0.0
C2630 C 0.39889 0.15369 0.45005 0.0
C2631 C 0.41721 0.15174 0.2683 0.0
C2632 C 0.35505 0.14353 0.3374 0.0
C2633 C 0.34659 0.15667 0.33208 0.0
C2634 C 0.37521 0.14203 0.344 0.0
C2635 C 0.38714 0.15398 0.34623 0.0
C2636 C 0.37869 0.16725 0.34003 0.0
C2637 C 0.35858 0.16842 0.33275 0.0
C2638 C 0.38367 0.1277 0.34961 0.0
C2639 C 0.39078 0.18029 0.34299 0.0
H2640 H 0.43766 0.15392 0.45968 0.0
H2641 H 0.45332 0.15332 0.30667 0.0
H2642 H 0.39029 0.16338 0.44702 0.0
H2643 H 0.38862 0.14489 0.44677 0.0
H2644 H 0.40565 0.15334 0.48712 0.0
H2645 H 0.43001 0.14973 0.24443 0.0
H2646 H 0.40626 0.14351 0.26196 0.0
H2647 H 0.41059 0.16173 0.25698 0.0
H2648 H 0.34588 0.13441 0.33629 0.0
H2649 H 0.35213 0.17861 0.32928 0.0
H2650 H 0.38935 0.12634 0.38749 0.0
H2651 H 0.39607 0.12631 0.32397 0.0
H2652 H 0.37279 0.11945 0.34247 0.0
H2653 H 0.39712 0.18124 0.38035 0.0
H2654 H 0.38216 0.18977 0.33514 0.0
H2655 H 0.40301 0.17977 0.31649 0.0
C2656 C 0.93923 0.15329 0.83901 0.0
C2657 C 0.94737 0.15927 0.88125 0.0
C2658 C 0.91903 0.15264 0.83267 0.0
C2659 C 0.90664 0.15805 0.86958 0.0
C2660 C 0.91475 0.16372 0.91297 0.0
C2661 C 0.93501 0.1643 0.91818 0.0
C2662 C 0.91096 0.14661 0.78571 0.0
C2663 C 0.90204 0.16947 0.95337 0.0
C2664 C 0.85676 0.17073 0.83098 0.0
C2665 C 0.84474 0.15967 0.84515 0.0
C2666 C 0.87688 0.1703 0.83866 0.0
C2667 C 0.88528 0.15855 0.86146 0.0
C2668 C 0.87328 0.14738 0.87624 0.0
C2669 C 0.85317 0.14805 0.8678 0.0
C2670 C 0.88916 0.18244 0.82236 0.0
C2671 C 0.8817 0.13469 0.90078 0.0
H2672 H 0.94867 0.14954 0.81004 0.0
H2673 H 0.94122 0.16875 0.95117 0.0
H2674 H 0.90016 0.13842 0.79423 0.0
H2675 H 0.90334 0.15482 0.76463 0.0
H2676 H 0.92248 0.1421 0.76196 0.0
H2677 H 0.91056 0.17273 0.98605 0.0
H2678 H 0.89386 0.17856 0.93943 0.0
H2679 H 0.89123 0.1616 0.96506 0.0
H2680 H 0.85044 0.17986 0.81434 0.0
H2681 H 0.8441 0.13938 0.87839 0.0
H2682 H 0.90039 0.17891 0.79587 0.0
H2683 H 0.89685 0.18693 0.85444 0.0
H2684 H 0.88042 0.19073 0.80467 0.0
H2685 H 0.8923 0.12964 0.87582 0.0
H2686 H 0.87037 0.12701 0.91093 0.0
H2687 H 0.88968 0.13773 0.93453 0.0
C2688 C 0.35708 0.07638 0.92257 0.0
C2689 C 0.34497 0.08105 0.88458 0.0
C2690 C 0.37736 0.07671 0.91763 0.0
C2691 C 0.38574 0.0817 0.87342 0.0
C2692 C 0.3736 0.08669 0.83532 0.0
C2693 C 0.35337 0.08635 0.84144 0.0
C2694 C 0.38982 0.07144 0.95931 0.0
C2695 C 0.38195 0.09197 0.78744 0.0
C2696 C 0.43934 0.09129 0.87145 0.0
C2697 C 0.44776 0.07926 0.85166 0.0
C2698 C 0.41919 0.09224 0.8789 0.0
C2699 C 0.40713 0.08095 0.86592 0.0
C2700 C 0.41548 0.06882 0.84577 0.0
C2701 C 0.43565 0.0681 0.83915 0.0
C2702 C 0.41081 0.10533 0.90065 0.0
C2703 C 0.40312 0.05655 0.83135 0.0
H2704 H 0.35065 0.07245 0.95619 0.0
H2705 H 0.3441 0.08979 0.8117 0.0
H2706 H 0.39795 0.06212 0.94721 0.0
H2707 H 0.40067 0.07939 0.96982 0.0
H2708 H 0.3811 0.06868 0.99233 0.0
H2709 H 0.37061 0.09618 0.76257 0.0
H2710 H 0.39282 0.10021 0.7946 0.0
H2711 H 0.38958 0.08342 0.76818 0.0
H2712 H 0.44847 0.10004 0.8807 0.0
H2713 H 0.44192 0.05866 0.82473 0.0
H2714 H 0.4027 0.10286 0.93485 0.0
H2715 H 0.40033 0.11004 0.87456 0.0
H2716 H 0.42217 0.11312 0.90938 0.0
H2717 H 0.39526 0.05252 0.86403 0.0
H2718 H 0.41182 0.04799 0.81524 0.0
H2719 H 0.39203 0.05979 0.80411 0.0
C2720 C 0.19185 0.8952 0.64975 0.0
C2721 C 0.19986 0.9041 0.61422 0.0
C2722 C 0.17161 0.89342 0.65373 0.0
C2723 C 0.15912 0.90077 0.62157 0.0
C2724 C 0.16721 0.90908 0.58375 0.0
C2725 C 0.18742 0.91058 0.58045 0.0
C2726 C 0.1636 0.88431 0.69406 0.0
C2727 C 0.1545 0.91706 0.54845 0.0
C2728 C 0.10493 0.89414 0.60653 0.0
C2729 C 0.097 0.90511 0.63388 0.0
C2730 C 0.12514 0.89201 0.60448 0.0
C2731 C 0.1377 0.90109 0.63018 0.0
C2732 C 0.12967 0.91161 0.66029 0.0
C2733 C 0.10948 0.91344 0.66191 0.0
C2734 C 0.13306 0.88054 0.57253 0.0
C2735 C 0.14246 0.92151 0.68855 0.0
H2736 H 0.20132 0.89018 0.67608 0.0
H2737 H 0.19351 0.91722 0.55222 0.0
H2738 H 0.15718 0.89088 0.72332 0.0
H2739 H 0.15189 0.87754 0.67969 0.0
H2740 H 0.17502 0.8777 0.71087 0.0
H2741 H 0.16303 0.92221 0.51892 0.0
H2742 H 0.14373 0.91005 0.53114 0.0
H2743 H 0.1463 0.92511 0.56887 0.0
H2744 H 0.09546 0.88766 0.58463 0.0
H2745 H 0.10346 0.92173 0.68398 0.0
H2746 H 0.14471 0.87481 0.592 0.0
H2747 H 0.13955 0.88507 0.53876 0.0
H2748 H 0.12158 0.8731 0.5614 0.0
H2749 H 0.15317 0.9157 0.71094 0.0
H2750 H 0.13397 0.92839 0.71331 0.0
H2751 H 0.15073 0.92809 0.66234 0.0
C2752 C 0.68588 0.82993 0.68808 0.0
C2753 C 0.69896 0.83271 0.6497 0.0
C2754 C 0.66574 0.82994 0.68008 0.0
C2755 C 0.65844 0.83279 0.63246 0.0
C2756 C 0.67152 0.836 0.59384 0.0
C2757 C 0.69161 0.83593 0.60292 0.0
C2758 C 0.65231 0.82655 0.72236 0.0
C2759 C 0.66434 0.83906 0.54252 0.0
C2760 C 0.60916 0.81749 0.60076 0.0
C2761 C 0.59674 0.82891 0.6066 0.0
C2762 C 0.62923 0.81867 0.60849 0.0
C2763 C 0.6372 0.8316 0.62256 0.0
C2764 C 0.62482 0.84321 0.62822 0.0
C2765 C 0.60476 0.84173 0.62018 0.0
C2766 C 0.64189 0.80601 0.60224 0.0
C2767 C 0.63277 0.85717 0.64306 0.0
H2768 H 0.69141 0.82766 0.72447 0.0
H2769 H 0.70158 0.83794 0.5729 0.0
H2770 H 0.6413 0.83485 0.72679 0.0
H2771 H 0.64438 0.81679 0.71445 0.0
H2772 H 0.66021 0.8253 0.75768 0.0
H2773 H 0.67625 0.84229 0.51741 0.0
H2774 H 0.6573 0.82969 0.52704 0.0
H2775 H 0.65323 0.84738 0.54348 0.0
H2776 H 0.60314 0.80749 0.5911 0.0
H2777 H 0.59537 0.85065 0.62419 0.0
H2778 H 0.64907 0.80347 0.63764 0.0
H2779 H 0.65352 0.80813 0.57498 0.0
H2780 H 0.63352 0.79681 0.58987 0.0
H2781 H 0.63993 0.85638 0.67949 0.0
H2782 H 0.62127 0.86523 0.64518 0.0
H2783 H 0.64395 0.8606 0.61628 0.0
C2784 C 0.19219 0.84699 0.13531 0.0
C2785 C 0.19945 0.83391 0.14804 0.0
C2786 C 0.17262 0.84868 0.12137 0.0
C2787 C 0.16021 0.83695 0.11898 0.0
C2788 C 0.16776 0.82367 0.13035 0.0
C2789 C 0.18717 0.82236 0.14523 0.0
C2790 C 0.16507 0.86304 0.11046 0.0
C2791 C 0.15531 0.81082 0.12704 0.0
C2792 C 0.10495 0.83869 0.12632 0.0
C2793 C 0.09961 0.83706 0.07677 0.0
C2794 C 0.12461 0.83945 0.14035 0.0
C2795 C 0.13938 0.83834 0.10419 0.0
C2796 C 0.13412 0.83727 0.05405 0.0
C2797 C 0.1144 0.83682 0.04099 0.0
C2798 C 0.12958 0.84089 0.19417 0.0
C2799 C 0.14932 0.83591 0.01424 0.0
H2800 H 0.20167 0.85592 0.13802 0.0
H2801 H 0.19286 0.81223 0.15474 0.0
H2802 H 0.15877 0.86342 0.07297 0.0
H2803 H 0.15327 0.86566 0.13668 0.0
H2804 H 0.1766 0.87105 0.11322 0.0
H2805 H 0.16358 0.80122 0.13544 0.0
H2806 H 0.14298 0.81159 0.15317 0.0
H2807 H 0.1491 0.80989 0.08953 0.0
H2808 H 0.09385 0.83891 0.15451 0.0
H2809 H 0.11066 0.836 0.00248 0.0
H2810 H 0.14056 0.84917 0.19945 0.0
H2811 H 0.13601 0.83107 0.20778 0.0
H2812 H 0.11662 0.84333 0.21696 0.0
H2813 H 0.16009 0.84441 0.01702 0.0
H2814 H 0.14292 0.83606 0.97675 0.0
H2815 H 0.1573 0.82601 0.01908 0.0
C2816 C 0.68904 0.91262 0.06599 0.0
C2817 C 0.70169 0.90717 0.10166 0.0
C2818 C 0.66878 0.91211 0.07211 0.0
C2819 C 0.66078 0.90593 0.11485 0.0
C2820 C 0.6734 0.9 0.15026 0.0
C2821 C 0.69365 0.90071 0.14331 0.0
C2822 C 0.65593 0.91856 0.03337 0.0
C2823 C 0.66552 0.89327 0.1963 0.0
C2824 C 0.61105 0.91834 0.15781 0.0
C2825 C 0.5987 0.90775 0.14128 0.0
C2826 C 0.63118 0.91786 0.14942 0.0
C2827 C 0.63934 0.90646 0.12389 0.0
C2828 C 0.62697 0.89576 0.10673 0.0
C2829 C 0.60682 0.89655 0.11547 0.0
C2830 C 0.64372 0.92959 0.16787 0.0
C2831 C 0.63505 0.88341 0.07955 0.0
H2832 H 0.69499 0.91739 0.03322 0.0
H2833 H 0.70316 0.89657 0.17136 0.0
H2834 H 0.64503 0.91093 0.02046 0.0
H2835 H 0.64785 0.92742 0.04944 0.0
H2836 H 0.66432 0.92235 0.00112 0.0
H2837 H 0.67709 0.88826 0.21849 0.0
H2838 H 0.65819 0.90118 0.21939 0.0
H2839 H 0.65449 0.88535 0.18665 0.0
H2840 H 0.60494 0.92715 0.17702 0.0
H2841 H 0.59747 0.88825 0.10298 0.0
H2842 H 0.65154 0.93446 0.13661 0.0
H2843 H 0.65484 0.92553 0.19362 0.0
H2844 H 0.63516 0.9377 0.18709 0.0
H2845 H 0.64303 0.88689 0.04627 0.0
H2846 H 0.62353 0.87602 0.06819 0.0
H2847 H 0.64559 0.87785 0.10327 0.0
C2848 C 0.93861 0.57594 0.81907 0.0
C2849 C 0.95145 0.58416 0.8466 0.0
C2850 C 0.91841 0.57755 0.82319 0.0
C2851 C 0.91076 0.58772 0.8553 0.0
C2852 C 0.92361 0.59676 0.88025 0.0
C2853 C 0.94378 0.59486 0.87572 0.0
C2854 C 0.90528 0.56769 0.79577 0.0
C2855 C 0.91609 0.60785 0.91448 0.0
C2856 C 0.8563 0.59538 0.8552 0.0
C2857 C 0.85003 0.58756 0.89574 0.0
C2858 C 0.87602 0.59557 0.84127 0.0
C2859 C 0.88967 0.5876 0.86816 0.0
C2860 C 0.88324 0.57941 0.90827 0.0
C2861 C 0.86359 0.57954 0.92159 0.0
C2862 C 0.88232 0.60451 0.79856 0.0
C2863 C 0.89717 0.57055 0.93752 0.0
H2864 H 0.94435 0.56787 0.79556 0.0
H2865 H 0.95345 0.60127 0.89728 0.0
H2866 H 0.89856 0.56035 0.82224 0.0
H2867 H 0.89333 0.57342 0.7775 0.0
H2868 H 0.91327 0.56162 0.76757 0.0
H2869 H 0.92767 0.61524 0.92548 0.0
H2870 H 0.90412 0.61372 0.8969 0.0
H2871 H 0.91016 0.60293 0.94822 0.0
H2872 H 0.84586 0.60164 0.83533 0.0
H2873 H 0.85876 0.57326 0.95232 0.0
H2874 H 0.89026 0.59819 0.77104 0.0
H2875 H 0.89247 0.61262 0.8117 0.0
H2876 H 0.86984 0.60962 0.78013 0.0
H2877 H 0.90475 0.56318 0.91276 0.0
H2878 H 0.88976 0.56455 0.96695 0.0
H2879 H 0.90841 0.57719 0.95476 0.0
C2880 C 0.36205 0.66903 0.83137 0.0
C2881 C 0.34957 0.65789 0.84172 0.0
C2882 C 0.38209 0.66814 0.84032 0.0
C2883 C 0.38997 0.65579 0.86019 0.0
C2884 C 0.37749 0.6445 0.87084 0.0
C2885 C 0.35746 0.64569 0.86157 0.0
C2886 C 0.39481 0.68047 0.82875 0.0
C2887 C 0.38532 0.63114 0.89188 0.0
C2888 C 0.44429 0.65055 0.84122 0.0
C2889 C 0.45192 0.65521 0.88615 0.0
C2890 C 0.42415 0.6503 0.83277 0.0
C2891 C 0.41126 0.65484 0.87007 0.0
C2892 C 0.41883 0.6592 0.91594 0.0
C2893 C 0.43901 0.65932 0.9234 0.0
C2894 C 0.41671 0.64558 0.78333 0.0
C2895 C 0.40561 0.66408 0.95677 0.0
H2896 H 0.35612 0.67858 0.8169 0.0
H2897 H 0.348 0.63698 0.86922 0.0
H2898 H 0.4022 0.68406 0.86268 0.0
H2899 H 0.40628 0.67746 0.80213 0.0
H2900 H 0.38647 0.68927 0.81306 0.0
H2901 H 0.37373 0.62333 0.8982 0.0
H2902 H 0.39627 0.62667 0.86648 0.0
H2903 H 0.39275 0.6332 0.92731 0.0
H2904 H 0.45407 0.6475 0.81196 0.0
H2905 H 0.44471 0.66272 0.95848 0.0
H2906 H 0.40961 0.65438 0.7642 0.0
H2907 H 0.4056 0.63736 0.78818 0.0
H2908 H 0.42849 0.64152 0.75939 0.0
H2909 H 0.39773 0.67353 0.94486 0.0
H2910 H 0.41369 0.66649 0.99105 0.0
H2911 H 0.39456 0.65605 0.9651 0.0
C2912 C 0.92852 0.66436 0.4067 0.0
C2913 C 0.94232 0.65562 0.38479 0.0
C2914 C 0.90885 0.66369 0.39393 0.0
C2915 C 0.90264 0.65406 0.35796 0.0
C2916 C 0.91655 0.6455 0.33434 0.0
C2917 C 0.93627 0.6464 0.348 0.0
C2918 C 0.89464 0.67315 0.41978 0.0
C2919 C 0.91054 0.63517 0.29564 0.0
C2920 C 0.84904 0.64581 0.37244 0.0
C2921 C 0.84058 0.65558 0.34075 0.0
C2922 C 0.86932 0.64444 0.37575 0.0
C2923 C 0.88148 0.65299 0.34651 0.0
C2924 C 0.87299 0.66206 0.31166 0.0
C2925 C 0.85268 0.66326 0.30929 0.0
C2926 C 0.87771 0.63461 0.41336 0.0
C2927 C 0.88534 0.67125 0.27931 0.0
H2928 H 0.93312 0.67175 0.43428 0.0
H2929 H 0.94685 0.6396 0.33105 0.0
H2930 H 0.88672 0.67954 0.39243 0.0
H2931 H 0.8837 0.66688 0.43996 0.0
H2932 H 0.90187 0.68019 0.44636 0.0
H2933 H 0.92322 0.63008 0.27799 0.0
H2934 H 0.90127 0.62705 0.31261 0.0
H2935 H 0.90175 0.64033 0.26677 0.0
H2936 H 0.83988 0.63985 0.397 0.0
H2937 H 0.84626 0.67062 0.28401 0.0
H2938 H 0.88382 0.64065 0.44444 0.0
H2939 H 0.88973 0.62848 0.39711 0.0
H2940 H 0.86661 0.62737 0.42818 0.0
H2941 H 0.89175 0.67966 0.30188 0.0
H2942 H 0.87679 0.67605 0.24916 0.0
H2943 H 0.89751 0.66528 0.263 0.0
C2944 C 0.34917 0.59281 0.36252 0.0
C2945 C 0.34066 0.58033 0.37822 0.0
C2946 C 0.36933 0.59386 0.35475 0.0
C2947 C 0.38133 0.58216 0.36287 0.0
C2948 C 0.37286 0.56958 0.37904 0.0
C2949 C 0.3527 0.56882 0.38642 0.0
C2950 C 0.37778 0.60747 0.33762 0.0
C2951 C 0.38508 0.55683 0.38797 0.0
C2952 C 0.43031 0.57895 0.29894 0.0
C2953 C 0.44332 0.58211 0.33704 0.0
C2954 C 0.41014 0.5793 0.30648 0.0
C2955 C 0.40267 0.58288 0.35335 0.0
C2956 C 0.41569 0.58646 0.39163 0.0
C2957 C 0.43582 0.58603 0.38303 0.0
C2958 C 0.39681 0.57549 0.26455 0.0
C2959 C 0.40835 0.59031 0.44216 0.0
H2960 H 0.34011 0.60182 0.35667 0.0
H2961 H 0.34634 0.55906 0.39776 0.0
H2962 H 0.38892 0.6111 0.36409 0.0
H2963 H 0.38513 0.60606 0.30162 0.0
H2964 H 0.36656 0.61566 0.33365 0.0
H2965 H 0.37636 0.54794 0.40176 0.0
H2966 H 0.39237 0.55368 0.35331 0.0
H2967 H 0.39663 0.55915 0.41516 0.0
H2968 H 0.43594 0.57613 0.2631 0.0
H2969 H 0.4457 0.58834 0.41287 0.0
H2970 H 0.3861 0.58389 0.25822 0.0
H2971 H 0.38853 0.56599 0.2741 0.0
H2972 H 0.40485 0.5736 0.22975 0.0
H2973 H 0.39753 0.59879 0.43943 0.0
H2974 H 0.42024 0.59368 0.467 0.0
H2975 H 0.40092 0.58128 0.45906 0.0
C2976 C 0.10872 0.40194 0.19495 0.0
C2977 C 0.09676 0.40497 0.15467 0.0
C2978 C 0.1289 0.40038 0.18912 0.0
C2979 C 0.1374 0.40237 0.14213 0.0
C2980 C 0.12534 0.40561 0.10143 0.0
C2981 C 0.10514 0.40664 0.10808 0.0
C2982 C 0.14108 0.39647 0.23311 0.0
C2983 C 0.13381 0.40816 0.05096 0.0
C2984 C 0.19133 0.4111 0.1325 0.0
C2985 C 0.19897 0.39867 0.11436 0.0
C2986 C 0.17135 0.41243 0.14236 0.0
C2987 C 0.15885 0.40091 0.13521 0.0
C2988 C 0.16678 0.38813 0.11924 0.0
C2989 C 0.18667 0.38725 0.10813 0.0
C2990 C 0.16347 0.42634 0.15806 0.0
C2991 C 0.15417 0.37547 0.11262 0.0
H2992 H 0.10217 0.40056 0.23089 0.0
H2993 H 0.09588 0.40914 0.07711 0.0
H2994 H 0.14916 0.38676 0.22533 0.0
H2995 H 0.15198 0.40466 0.24048 0.0
H2996 H 0.13218 0.39492 0.2668 0.0
H2997 H 0.12256 0.41116 0.02369 0.0
H2998 H 0.14485 0.41652 0.05283 0.0
H2999 H 0.14124 0.39869 0.03759 0.0
H3000 H 0.20087 0.41997 0.1364 0.0
H3001 H 0.19268 0.37768 0.09388 0.0
H3002 H 0.15513 0.42531 0.19279 0.0
H3003 H 0.15332 0.43028 0.12964 0.0
H3004 H 0.17515 0.43412 0.16354 0.0
H3005 H 0.14537 0.37361 0.14621 0.0
H3006 H 0.16285 0.36602 0.1047 0.0
H3007 H 0.14393 0.37716 0.08175 0.0
C3008 C 0.60445 0.34092 0.12278 0.0
C3009 C 0.59682 0.33256 0.08514 0.0
C3010 C 0.62459 0.34189 0.13079 0.0
C3011 C 0.63756 0.33423 0.10085 0.0
C3012 C 0.63005 0.32615 0.06178 0.0
C3013 C 0.60986 0.32547 0.05427 0.0
C3014 C 0.63193 0.35071 0.17269 0.0
C3015 C 0.64331 0.31776 0.02905 0.0
C3016 C 0.69185 0.34259 0.10691 0.0
C3017 C 0.69828 0.33298 0.14205 0.0
C3018 C 0.67217 0.34308 0.09261 0.0
C3019 C 0.6587 0.33361 0.11344 0.0
C3020 C 0.66533 0.3236 0.14764 0.0
C3021 C 0.68493 0.32346 0.16159 0.0
C3022 C 0.6657 0.35398 0.05632 0.0
C3023 C 0.65164 0.31312 0.17017 0.0
H3024 H 0.59471 0.34638 0.14726 0.0
H3025 H 0.60431 0.31921 0.02444 0.0
H3026 H 0.63818 0.34395 0.20167 0.0
H3027 H 0.64366 0.3577 0.15969 0.0
H3028 H 0.62024 0.35709 0.18944 0.0
H3029 H 0.6354 0.31289 -0.00205 0.0
H3030 H 0.65504 0.32439 0.01397 0.0
H3031 H 0.65032 0.30945 0.05099 0.0
H3032 H 0.70208 0.35001 0.09188 0.0
H3033 H 0.68987 0.31583 0.18802 0.0
H3034 H 0.65543 0.3612 0.07453 0.0
H3035 H 0.65785 0.34909 0.02524 0.0
H3036 H 0.67808 0.36006 0.04141 0.0
H3037 H 0.64029 0.31854 0.19184 0.0
H3038 H 0.65923 0.30569 0.19474 0.0
H3039 H 0.64416 0.3072 0.1408 0.0
C3040 C 0.19774 0.34517 0.58252 0.0
C3041 C 0.20446 0.33617 0.61931 0.0
C3042 C 0.17783 0.34576 0.57035 0.0
C3043 C 0.16441 0.33703 0.5952 0.0
C3044 C 0.1713 0.32766 0.6313 0.0
C3045 C 0.19113 0.32737 0.64284 0.0
C3046 C 0.17108 0.35591 0.53175 0.0
C3047 C 0.15768 0.318 0.65829 0.0
C3048 C 0.11037 0.34423 0.61001 0.0
C3049 C 0.1022 0.33447 0.57786 0.0
C3050 C 0.13064 0.34588 0.6136 0.0
C3051 C 0.14311 0.33757 0.58441 0.0
C3052 C 0.13491 0.32837 0.54957 0.0
C3053 C 0.11462 0.32696 0.54667 0.0
C3054 C 0.1387 0.35587 0.65106 0.0
C3055 C 0.14756 0.31934 0.51752 0.0
H3056 H 0.20796 0.35202 0.56437 0.0
H3057 H 0.19626 0.32018 0.67053 0.0
H3058 H 0.16269 0.35044 0.50285 0.0
H3059 H 0.16122 0.36363 0.54875 0.0
H3060 H 0.18337 0.36148 0.51413 0.0
H3061 H 0.16541 0.31117 0.68471 0.0
H3062 H 0.14669 0.3241 0.67883 0.0
H3063 H 0.14978 0.31139 0.63161 0.0
H3064 H 0.10102 0.35006 0.63444 0.0
H3065 H 0.10848 0.31961 0.52096 0.0
H3066 H 0.15043 0.36226 0.63458 0.0
H3067 H 0.14513 0.34997 0.68208 0.0
H3068 H 0.12734 0.36288 0.66601 0.0
H3069 H 0.15931 0.32554 0.5003 0.0
H3070 H 0.13914 0.31412 0.48805 0.0
H3071 H 0.15456 0.31125 0.54053 0.0
C3072 C 0.61211 0.41905 0.67665 0.0
C3073 C 0.59989 0.40976 0.65169 0.0
C3074 C 0.63242 0.41806 0.67316 0.0
C3075 C 0.6409 0.40742 0.64441 0.0
C3076 C 0.62872 0.39753 0.62135 0.0
C3077 C 0.60841 0.39884 0.62513 0.0
C3078 C 0.6448 0.42882 0.69844 0.0
C3079 C 0.63712 0.38593 0.5908 0.0
C3080 C 0.69033 0.41551 0.58839 0.0
C3081 C 0.70316 0.40899 0.62122 0.0
C3082 C 0.67012 0.41486 0.59511 0.0
C3083 C 0.66234 0.40736 0.6354 0.0
C3084 C 0.67511 0.40037 0.66783 0.0
C3085 C 0.69533 0.40131 0.66051 0.0
C3086 C 0.65709 0.42248 0.55957 0.0
C3087 C 0.66744 0.39215 0.71095 0.0
H3088 H 0.60577 0.42735 0.69809 0.0
H3089 H 0.59926 0.39163 0.60538 0.0
H3090 H 0.656 0.42374 0.72152 0.0
H3091 H 0.65251 0.43514 0.67041 0.0
H3092 H 0.63609 0.43588 0.72203 0.0
H3093 H 0.62593 0.37824 0.57988 0.0
H3094 H 0.64378 0.39028 0.55694 0.0
H3095 H 0.64875 0.38051 0.61141 0.0
H3096 H 0.69607 0.42122 0.55733 0.0
H3097 H 0.70497 0.39631 0.68644 0.0
H3098 H 0.64869 0.43052 0.57953 0.0
H3099 H 0.64647 0.41521 0.54304 0.0
H3100 H 0.66536 0.42758 0.52945 0.0
H3101 H 0.66017 0.39921 0.73736 0.0
H3102 H 0.67912 0.38647 0.73062 0.0
H3103 H 0.6564 0.38457 0.69834 0.0
C3104 C 0.04813 0.10671 0.19584 0.0
C3105 C 0.03394 0.10958 0.2314 0.0
C3106 C 0.04729 0.11264 0.14892 0.0
C3107 C 0.03176 0.12162 0.13707 0.0
C3108 C 1.01774 0.12499 0.17342 0.0
C3109 C 1.01905 0.11895 0.22048 0.0
C3110 C 0.06274 0.10899 0.11161 0.0
C3111 C 1.00102 0.13456 0.16203 0.0
C3112 C 0.04015 0.14506 0.02741 0.0
C3113 C 0.03076 0.13784 0.9894 0.0
C3114 C 0.04014 0.14007 0.07576 0.0
C3115 C 0.03049 0.12752 0.08663 0.0
C3116 C 1.02086 0.12017 0.04861 0.0
C3117 C 1.02114 0.12542 0.00027 0.0
C3118 C 0.05075 0.14813 0.11507 0.0
C3119 C 1.01045 0.10672 0.05898 0.0
H3120 H 0.0597 0.09948 0.20436 0.0
H3121 H 1.00793 0.12101 0.24776 0.0
H3122 H 0.05603 0.10362 0.07979 0.0
H3123 H 0.06974 0.11854 0.09739 0.0
H3124 H 0.07416 0.10216 0.12726 0.0
H3125 H 0.99178 0.13655 0.19481 0.0
H3126 H 1.00652 0.14461 0.14787 0.0
H3127 H 0.99187 0.12995 0.13273 0.0
H3128 H 0.04765 0.15469 0.01946 0.0
H3129 H 1.01375 0.11986 0.97117 0.0
H3130 H 0.06285 0.14181 0.12992 0.0
H3131 H 0.04083 0.15045 0.14618 0.0
H3132 H 0.0568 0.15805 0.10096 0.0
H3133 H 1.021 0.09882 0.07178 0.0
H3134 H 1.00285 0.10264 0.02601 0.0
H3135 H 0.99968 0.1082 0.08891 0.0
C3136 C 0.25225 0.09704 0.0296 0.0
C3137 C 0.26226 0.10373 0.99132 0.0
C3138 C 0.25301 0.10199 0.07792 0.0
C3139 C 0.26409 0.11395 0.08842 0.0
C3140 C 0.27432 0.12076 0.05008 0.0
C3141 C 0.27324 0.11558 0.00179 0.0
C3142 C 0.24169 0.09453 0.11761 0.0
C3143 C 0.28626 0.13357 0.06005 0.0
C3144 C 0.2488 0.13539 0.19819 0.0
C3145 C 0.26252 0.13156 0.23375 0.0
C3146 C 0.24913 0.12966 0.15099 0.0
C3147 C 0.26364 0.11989 0.13881 0.0
C3148 C 0.27727 0.11567 0.17492 0.0
C3149 C 0.27649 0.12152 0.2223 0.0
C3150 C 0.23411 0.13424 0.11392 0.0
C3151 C 0.29291 0.10524 0.16309 0.0
H3152 H 0.2437 0.08787 0.02188 0.0
H3153 H 0.28114 0.12071 0.97244 0.0
H3154 H 0.25145 0.09163 0.14837 0.0
H3155 H 0.2304 0.10152 0.13286 0.0
H3156 H 0.23449 0.08501 0.10372 0.0
H3157 H 0.29416 0.13722 0.02682 0.0
H3158 H 0.27668 0.14204 0.07317 0.0
H3159 H 0.29694 0.13146 0.08963 0.0
H3160 H 0.23789 0.14309 0.2071 0.0
H3161 H 0.28721 0.11867 0.24964 0.0
H3162 H 0.22589 0.12514 0.1002 0.0
H3163 H 0.24135 0.13909 0.08174 0.0
H3164 H 0.22363 0.1418 0.12961 0.0
H3165 H 0.2863 0.09546 0.14981 0.0
H3166 H 0.30219 0.10289 0.19543 0.0
H3167 H 0.30225 0.10927 0.133 0.0
C3168 C 0.99575 0.85075 0.92107 0.0
C3169 C 1.00912 0.85368 0.95845 0.0
C3170 C 0.99686 0.85737 0.8753 0.0
C3171 C 1.01191 0.86703 0.86644 0.0
C3172 C 0.02513 0.87036 0.90457 0.0
C3173 C 0.02349 0.8637 0.95045 0.0
C3174 C 0.98219 0.85377 0.83606 0.0
C3175 C 0.04138 0.8806 0.89634 0.0
C3176 C 0.02473 0.87375 0.73209 0.0
C3177 C 1.015 0.88626 0.72352 0.0
C3178 C 0.02418 0.86747 0.77885 0.0
C3179 C 1.01347 0.87379 0.81741 0.0
C3180 C 1.00348 0.88632 0.8086 0.0
C3181 C 1.00443 0.89241 0.76193 0.0
C3182 C 0.03508 0.8541 0.78711 0.0
C3183 C 0.99162 0.89327 0.84839 0.0
H3184 H 0.98462 0.84299 0.92731 0.0
H3185 H 0.03402 0.8658 0.97909 0.0
H3186 H 0.97481 0.86329 0.8229 0.0
H3187 H 0.98966 0.84908 0.80395 0.0
H3188 H 0.971 0.84638 0.8495 0.0
H3189 H 0.05022 0.88225 0.92999 0.0
H3190 H 0.05103 0.87683 0.86649 0.0
H3191 H 0.03541 0.89073 0.8843 0.0
H3192 H 0.03301 0.86902 0.70262 0.0
H3193 H 0.99674 0.90204 0.75553 0.0
H3194 H 0.02477 0.84576 0.79752 0.0
H3195 H 0.04543 0.85533 0.81804 0.0
H3196 H 0.04325 0.85076 0.7539 0.0
H3197 H 0.97991 0.8862 0.86097 0.0
H3198 H 0.98492 0.90311 0.83566 0.0
H3199 H 1.00089 0.89553 0.88073 0.0
C3200 C 0.77354 0.86575 0.76522 0.0
C3201 C 0.78607 0.8547 0.75495 0.0
C3202 C 0.77284 0.87159 0.8126 0.0
C3203 C 0.78511 0.86631 0.85005 0.0
C3204 C 0.7981 0.85538 0.83934 0.0
C3205 C 0.79836 0.8497 0.79202 0.0
C3206 C 0.75883 0.88326 0.82283 0.0
C3207 C 0.81167 0.84964 0.87794 0.0
C3208 C 0.79799 0.88936 0.95765 0.0
C3209 C 0.78605 0.88411 0.99518 0.0
C3210 C 0.7977 0.88371 0.9103 0.0
C3211 C 0.78508 0.87255 0.9 0.0
C3212 C 0.77313 0.86704 0.93782 0.0
C3213 C 0.77383 0.87287 0.98524 0.0
C3214 C 0.81092 0.88972 0.87129 0.0
C3215 C 0.7595 0.85512 0.928 0.0
H3216 H 0.76388 0.86954 0.73676 0.0
H3217 H 0.80816 0.84119 0.78417 0.0
H3218 H 0.7488 0.88025 0.85301 0.0
H3219 H 0.76687 0.89258 0.83529 0.0
H3220 H 0.7501 0.88606 0.78994 0.0
H3221 H 0.82087 0.84109 0.86356 0.0
H3222 H 0.8213 0.85798 0.89184 0.0
H3223 H 0.80322 0.84569 0.90976 0.0
H3224 H 0.80758 0.89801 0.9652 0.0
H3225 H 0.76447 0.86887 0.01406 0.0
H3226 H 0.80221 0.89346 0.83965 0.0
H3227 H 0.82084 0.88158 0.85722 0.0
H3228 H 0.81979 0.89847 0.88533 0.0
H3229 H 0.74933 0.85791 0.89796 0.0
H3230 H 0.75093 0.8522 0.96108 0.0
H3231 H 0.76785 0.84594 0.91554 0.0
C3232 C 1.01885 0.6177 0.75586 0.0
C3233 C 0.03238 0.60718 0.76472 0.0
C3234 C 1.01823 0.62442 0.70986 0.0
C3235 C 0.03164 0.6206 0.67255 0.0
C3236 C 0.04575 0.61033 0.68224 0.0
C3237 C 0.04587 0.60372 0.72804 0.0
C3238 C 1.00297 0.63533 0.70068 0.0
C3239 C 0.06054 0.60614 0.64393 0.0
C3240 C 1.02116 0.62756 0.53726 0.0
C3241 C 0.03208 0.63958 0.52896 0.0
C3242 C 1.02052 0.62141 0.5842 0.0
C3243 C 0.03121 0.62738 0.62338 0.0
C3244 C 0.04247 0.6394 0.61488 0.0
C3245 C 0.04271 0.64536 0.56788 0.0
C3246 C 1.00836 0.60858 0.59197 0.0
C3247 C 0.05435 0.64593 0.65539 0.0
H3248 H 1.00831 0.62027 0.78406 0.0
H3249 H 0.05648 0.59565 0.73498 0.0
H3250 H 1.00994 0.64521 0.68944 0.0
H3251 H 0.99344 0.63203 0.66997 0.0
H3252 H 0.99384 0.63727 0.73368 0.0
H3253 H 0.07086 0.59821 0.65787 0.0
H3254 H 0.05307 0.6019 0.6111 0.0
H3255 H 0.06895 0.61533 0.63171 0.0
H3256 H 1.01276 0.62314 0.50743 0.0
H3257 H 0.05124 0.65465 0.56169 0.0
H3258 H 0.99773 0.61036 0.62202 0.0
H3259 H 1.01776 0.59982 0.60344 0.0
H3260 H 1.00036 0.60551 0.55823 0.0
H3261 H 0.04486 0.64867 0.68691 0.0
H3262 H 0.06204 0.65543 0.64292 0.0
H3263 H 0.06527 0.63841 0.66909 0.0
C3264 C 0.27486 0.62378 0.71844 0.0
C3265 C 0.26265 0.63498 0.72914 0.0
C3266 C 0.27489 0.61776 0.67124 0.0
C3267 C 0.26228 0.62302 0.63446 0.0
C3268 C 0.24964 0.63411 0.64566 0.0
C3269 C 0.25003 0.63996 0.69271 0.0
C3270 C 0.28855 0.60592 0.6605 0.0
C3271 C 0.23571 0.63985 0.60788 0.0
C3272 C 0.27115 0.61616 0.49822 0.0
C3273 C 0.25833 0.60516 0.48957 0.0
C3274 C 0.27294 0.62192 0.54558 0.0
C3275 C 0.26152 0.6166 0.58476 0.0
C3276 C 0.2484 0.60563 0.57589 0.0
C3277 C 0.247 0.60005 0.52854 0.0
C3278 C 0.28708 0.63364 0.55379 0.0
C3279 C 0.23572 0.59982 0.61639 0.0
H3280 H 0.28475 0.62 0.74638 0.0
H3281 H 0.24045 0.64857 0.70088 0.0
H3282 H 0.28018 0.59664 0.64911 0.0
H3283 H 0.29826 0.60871 0.62942 0.0
H3284 H 0.29761 0.60315 0.69283 0.0
H3285 H 0.2269 0.64858 0.6225 0.0
H3286 H 0.24384 0.64356 0.57515 0.0
H3287 H 0.22571 0.63157 0.59528 0.0
H3288 H 0.28007 0.62004 0.46834 0.0
H3289 H 0.23698 0.59158 0.52211 0.0
H3290 H 0.29749 0.6308 0.58325 0.0
H3291 H 0.27917 0.64301 0.56634 0.0
H3292 H 0.29536 0.63628 0.51995 0.0
H3293 H 0.24483 0.59617 0.64741 0.0
H3294 H 0.22658 0.59105 0.60359 0.0
H3295 H 0.22605 0.60805 0.63093 0.0
C3296 C 0.03168 0.36709 0.48927 0.0
C3297 C 1.01829 0.35678 0.50201 0.0
C3298 C 0.03124 0.37318 0.44215 0.0
C3299 C 1.017 0.36888 0.40769 0.0
C3300 C 1.00306 0.35884 0.42135 0.0
C3301 C 1.0039 0.35293 0.46823 0.0
C3302 C 0.04626 0.38392 0.42874 0.0
C3303 C 0.98744 0.35413 0.38612 0.0
C3304 C 1.00248 0.39177 0.30085 0.0
C3305 C 1.01205 0.38545 0.26111 0.0
C3306 C 1.00443 0.3867 0.34884 0.0
C3307 C 1.01621 0.37497 0.3575 0.0
C3308 C 0.02587 0.36847 0.31761 0.0
C3309 C 0.02366 0.37378 0.26972 0.0
C3310 C 0.99369 0.39384 0.39021 0.0
C3311 C 0.03846 0.35587 0.32557 0.0
H3312 H 0.04292 0.36995 0.51522 0.0
H3313 H 0.99341 0.34502 0.4782 0.0
H3314 H 0.05518 0.38013 0.3975 0.0
H3315 H 0.03905 0.3936 0.41648 0.0
H3316 H 0.05604 0.38638 0.46002 0.0
H3317 H 0.97755 0.34634 0.40284 0.0
H3318 H 0.97865 0.36313 0.37387 0.0
H3319 H 0.99417 0.34952 0.35284 0.0
H3320 H 0.99345 0.4008 0.29457 0.0
H3321 H 0.03124 0.36896 0.23925 0.0
H3322 H 1.00398 0.39686 0.41967 0.0
H3323 H 0.98301 0.38659 0.4068 0.0
H3324 H 0.98585 0.40325 0.37759 0.0
H3325 H 0.04974 0.35813 0.35352 0.0
H3326 H 0.0457 0.35241 0.29116 0.0
H3327 H 0.02951 0.3472 0.33998 0.0
C3328 C 0.77554 0.36367 0.28506 0.0
C3329 C 0.78862 0.35281 0.2768 0.0
C3330 C 0.77457 0.37016 0.33128 0.0
C3331 C 0.78714 0.36576 0.36947 0.0
C3332 C 0.80086 0.35516 0.3605 0.0
C3333 C 0.80136 0.34879 0.31434 0.0
C3334 C 0.75978 0.38146 0.33968 0.0
C3335 C 0.81478 0.35038 0.39993 0.0
C3336 C 0.79799 0.39015 0.47457 0.0
C3337 C 0.78637 0.38475 0.51251 0.0
C3338 C 0.7982 0.38413 0.42783 0.0
C3339 C 0.78644 0.37244 0.41858 0.0
C3340 C 0.77476 0.36683 0.45675 0.0
C3341 C 0.77494 0.37304 0.50356 0.0
C3342 C 0.8111 0.39028 0.38838 0.0
C3343 C 0.76204 0.35434 0.44799 0.0
H3344 H 0.76551 0.36664 0.25622 0.0
H3345 H 0.81154 0.34041 0.30788 0.0
H3346 H 0.74967 0.37833 0.3695 0.0
H3347 H 0.76712 0.3911 0.35181 0.0
H3348 H 0.75121 0.38376 0.30607 0.0
H3349 H 0.82481 0.34218 0.38658 0.0
H3350 H 0.82356 0.35925 0.41327 0.0
H3351 H 0.80656 0.34627 0.4319 0.0
H3352 H 0.80699 0.39916 0.48134 0.0
H3353 H 0.76586 0.36891 0.53272 0.0
H3354 H 0.80226 0.39333 0.35605 0.0
H3355 H 0.82172 0.38242 0.37565 0.0
H3356 H 0.81919 0.39952 0.4015 0.0
H3357 H 0.7519 0.35644 0.41718 0.0
H3358 H 0.75346 0.35147 0.48109 0.0
H3359 H 0.77111 0.34535 0.43713 0.0
C3360 C 0.52117 0.11626 0.73757 0.0
C3361 C 0.53303 0.10475 0.74658 0.0
C3362 C 0.52135 0.12284 0.69128 0.0
C3363 C 0.53382 0.11783 0.65367 0.0
C3364 C 0.54609 0.10641 0.66315 0.0
C3365 C 0.5455 0.10001 0.70933 0.0
C3366 C 0.50806 0.13501 0.68236 0.0
C3367 C 0.55983 0.10091 0.62443 0.0
C3368 C 0.52416 0.12668 0.51926 0.0
C3369 C 0.53685 0.13784 0.51206 0.0
C3370 C 0.52284 0.12012 0.56542 0.0
C3371 C 0.53464 0.12477 0.60481 0.0
C3372 C 0.54786 0.13577 0.59712 0.0
C3373 C 0.54874 0.14219 0.55095 0.0
C3374 C 0.50859 0.1084 0.57236 0.0
C3375 C 0.56098 0.14086 0.63779 0.0
H3376 H 0.51143 0.11988 0.76614 0.0
H3377 H 0.55483 0.09117 0.71615 0.0
H3378 H 0.51673 0.14428 0.67227 0.0
H3379 H 0.49828 0.13275 0.65098 0.0
H3380 H 0.49908 0.13752 0.71513 0.0
H3381 H 0.56843 0.09192 0.63778 0.0
H3382 H 0.55158 0.09766 0.59139 0.0
H3383 H 0.57002 0.10919 0.61272 0.0
H3384 H 0.51479 0.12341 0.48943 0.0
H3385 H 0.55863 0.1508 0.54547 0.0
H3386 H 0.49812 0.11106 0.60195 0.0
H3387 H 0.51635 0.09888 0.58411 0.0
H3388 H 0.50036 0.10608 0.53821 0.0
H3389 H 0.55214 0.14449 0.66939 0.0
H3390 H 0.57054 0.14949 0.62562 0.0
H3391 H 0.57023 0.13225 0.65126 0.0
C3392 C 0.74791 0.14123 0.69536 0.0
C3393 C 0.75932 0.13558 0.73316 0.0
C3394 C 0.74808 0.13563 0.6479 0.0
C3395 C 0.75998 0.12406 0.63773 0.0
C3396 C 0.77146 0.1182 0.67573 0.0
C3397 C 0.77094 0.12401 0.72322 0.0
C3398 C 0.73541 0.14207 0.60871 0.0
C3399 C 0.78429 0.10582 0.66612 0.0
C3400 C 0.74491 0.10131 0.53107 0.0
C3401 C 0.75762 0.10558 0.49364 0.0
C3402 C 0.7456 0.10722 0.57799 0.0
C3403 C 0.75942 0.11767 0.58797 0.0
C3404 C 0.77203 0.1223 0.55005 0.0
C3405 C 0.77093 0.11621 0.50305 0.0
C3406 C 0.73164 0.10217 0.61705 0.0
C3407 C 0.78691 0.13346 0.55945 0.0
H3408 H 0.73879 0.15015 0.70275 0.0
H3409 H 0.7799 0.11969 0.75218 0.0
H3410 H 0.74439 0.14528 0.57677 0.0
H3411 H 0.72475 0.13434 0.5952 0.0
H3412 H 0.72734 0.15126 0.62239 0.0
H3413 H 0.79277 0.10275 0.69912 0.0
H3414 H 0.77531 0.09687 0.65437 0.0
H3415 H 0.79452 0.10815 0.63565 0.0
H3416 H 0.7345 0.09312 0.52387 0.0
H3417 H 0.78092 0.11941 0.47435 0.0
H3418 H 0.72272 0.11092 0.63078 0.0
H3419 H 0.73983 0.09798 0.64888 0.0
H3420 H 0.72175 0.09396 0.60319 0.0
H3421 H 0.77961 0.14307 0.57209 0.0
H3422 H 0.79563 0.1359 0.52613 0.0
H3423 H 0.79687 0.13013 0.58924 0.0
C3424 C 0.50337 0.84656 0.45843 0.0
C3425 C 0.51377 0.85246 0.4976 0.0
C3426 C 0.50411 0.85222 0.41108 0.0
C3427 C 0.51554 0.86413 0.40235 0.0
C3428 C 0.52602 0.87024 0.44168 0.0
C3429 C 0.52498 0.86434 0.48906 0.0
C3430 C 0.49249 0.84549 0.37045 0.0
C3431 C 0.5383 0.88299 0.43361 0.0
C3432 C 0.52745 0.87234 0.26836 0.0
C3433 C 0.5135 0.88247 0.25784 0.0
C3434 C 0.52857 0.86641 0.31566 0.0
C3435 C 0.5153 0.87064 0.35271 0.0
C3436 C 0.50093 0.88061 0.34164 0.0
C3437 C 0.50026 0.88641 0.29449 0.0
C3438 C 0.54406 0.85577 0.32624 0.0
C3439 C 0.48624 0.8852 0.37964 0.0
H3440 H 0.49458 0.83741 0.46466 0.0
H3441 H 0.53316 0.86885 0.51907 0.0
H3442 H 0.48155 0.85291 0.35614 0.0
H3443 H 0.50215 0.84269 0.33933 0.0
H3444 H 0.48483 0.83599 0.38305 0.0
H3445 H 0.54615 0.88617 0.46746 0.0
H3446 H 0.54907 0.88105 0.40401 0.0
H3447 H 0.52902 0.89172 0.42135 0.0
H3448 H 0.53784 0.86942 0.24026 0.0
H3449 H 0.48937 0.8942 0.2864 0.0
H3450 H 0.53725 0.84586 0.33778 0.0
H3451 H 0.55329 0.85934 0.35716 0.0
H3452 H 0.55346 0.85377 0.29377 0.0
H3453 H 0.47758 0.87618 0.39231 0.0
H3454 H 0.47615 0.8932 0.36519 0.0
H3455 H 0.49379 0.88948 0.41229 0.0
C3456 C 0.26075 0.87838 0.50688 0.0
C3457 C 0.27792 0.87962 0.53388 0.0
C3458 C 0.26078 0.87204 0.46042 0.0
C3459 C 0.27845 0.86698 0.44071 0.0
C3460 C 0.2957 0.86779 0.4689 0.0
C3461 C 0.29522 0.87419 0.51517 0.0
C3462 C 0.24208 0.87126 0.43165 0.0
C3463 C 0.3148 0.86242 0.44936 0.0
C3464 C 0.27791 0.8403 0.33897 0.0
C3465 C 0.28185 0.84838 0.2971 0.0
C3466 C 0.2763 0.84629 0.3856 0.0
C3467 C 0.27896 0.86072 0.3908 0.0
C3468 C 0.28268 0.86902 0.34865 0.0
C3469 C 0.28392 0.86273 0.302 0.0
C3470 C 0.27202 0.83712 0.42942 0.0
C3471 C 0.28574 0.88445 0.35303 0.0
H3472 H 0.24753 0.88301 0.52104 0.0
H3473 H 0.30856 0.87553 0.53572 0.0
H3474 H 0.24333 0.87765 0.39782 0.0
H3475 H 0.23927 0.86044 0.4199 0.0
H3476 H 0.22944 0.87499 0.4533 0.0
H3477 H 0.32672 0.86344 0.47662 0.0
H3478 H 0.31341 0.85134 0.43901 0.0
H3479 H 0.31888 0.86822 0.41563 0.0
H3480 H 0.27596 0.8292 0.33536 0.0
H3481 H 0.28694 0.86898 0.2697 0.0
H3482 H 0.25897 0.84094 0.44917 0.0
H3483 H 0.28432 0.83749 0.45569 0.0
H3484 H 0.26953 0.82615 0.41874 0.0
H3485 H 0.27299 0.88932 0.37106 0.0
H3486 H 0.28806 0.88947 0.31669 0.0
H3487 H 0.29854 0.88655 0.37661 0.0
C3488 C 0.54891 0.63516 0.02609 0.0
C3489 C 0.53635 0.63071 0.98871 0.0
C3490 C 0.54776 0.62965 0.07362 0.0
C3491 C 0.53364 0.61945 0.08421 0.0
C3492 C 0.52116 0.61466 0.0464 0.0
C3493 C 0.52272 0.62032 -0.00118 0.0
C3494 C 0.56156 0.63486 0.11262 0.0
C3495 C 0.50596 0.60375 0.05649 0.0
C3496 C 0.54338 0.59646 0.19425 0.0
C3497 C 0.53166 0.60248 0.2307 0.0
C3498 C 0.54399 0.60181 0.14644 0.0
C3499 C 0.53254 0.61349 0.13456 0.0
C3500 C 0.52084 0.61977 0.17128 0.0
C3501 C 0.52059 0.61421 0.21917 0.0
C3502 C 0.55689 0.59495 0.10862 0.0
C3503 C 0.50849 0.63228 0.1598 0.0
H3504 H 0.55956 0.64315 0.01835 0.0
H3505 H 0.51287 0.61698 0.97012 0.0
H3506 H 0.55326 0.63942 0.14364 0.0
H3507 H 0.57017 0.62612 0.12767 0.0
H3508 H 0.57175 0.64283 0.09823 0.0
H3509 H 0.49736 0.60117 0.02319 0.0
H3510 H 0.51295 0.59415 0.0703 0.0
H3511 H 0.49591 0.60742 0.08565 0.0
H3512 H 0.55208 0.58742 0.20299 0.0
H3513 H 0.5114 0.61881 0.24712 0.0
H3514 H 0.56775 0.60248 0.09465 0.0
H3515 H 0.54811 0.59152 0.07669 0.0
H3516 H 0.56472 0.58583 0.12375 0.0
H3517 H 0.51783 0.64096 0.14724 0.0
H3518 H 0.49993 0.63578 0.19215 0.0
H3519 H 0.49835 0.62984 0.12933 0.0
C3520 C 0.74541 0.63835 0.22678 0.0
C3521 C 0.75839 0.63369 0.26293 0.0
C3522 C 0.74491 0.63231 0.18009 0.0
C3523 C 0.75778 0.62136 0.16906 0.0
C3524 C 0.77064 0.61635 0.20573 0.0
C3525 C 0.77073 0.62255 0.25257 0.0
C3526 C 0.73076 0.63781 0.14235 0.0
C3527 C 0.78455 0.60464 0.19507 0.0
C3528 C 0.74459 0.59802 0.06238 0.0
C3529 C 0.75642 0.60323 0.02461 0.0
C3530 C 0.74491 0.60383 0.10953 0.0
C3531 C 0.75746 0.61509 0.11922 0.0
C3532 C 0.76909 0.62065 0.0809 0.0
C3533 C 0.76836 0.61467 0.0338 0.0
C3534 C 0.73202 0.59778 0.14914 0.0
C3535 C 0.78259 0.6327 0.08999 0.0
H3536 H 0.73569 0.64689 0.23482 0.0
H3537 H 0.78086 0.61903 0.28038 0.0
H3538 H 0.73879 0.64185 0.10994 0.0
H3539 H 0.72123 0.62933 0.12917 0.0
H3540 H 0.72149 0.64625 0.1572 0.0
H3541 H 0.79348 0.60187 0.22763 0.0
H3542 H 0.77641 0.59532 0.18306 0.0
H3543 H 0.79438 0.60761 0.16445 0.0
H3544 H 0.73529 0.58917 0.05531 0.0
H3545 H 0.7777 0.61859 0.00481 0.0
H3546 H 0.72229 0.60592 0.16412 0.0
H3547 H 0.74102 0.59393 0.18008 0.0
H3548 H 0.72295 0.5891 0.13536 0.0
H3549 H 0.77422 0.64177 0.10335 0.0
H3550 H 0.7907 0.63577 0.05634 0.0
H3551 H 0.79317 0.62994 0.11913 0.0
C3552 C 0.5283 0.36717 0.96787 0.0
C3553 C 0.51598 0.35588 0.97658 0.0
C3554 C 0.53042 0.37265 0.92013 0.0
C3555 C 0.51986 0.36673 0.88061 0.0
C3556 C 0.50741 0.35535 0.88941 0.0
C3557 C 0.50563 0.35009 0.93716 0.0
C3558 C 0.54379 0.38483 0.91198 0.0
C3559 C 0.49566 0.34887 0.84852 0.0
C3560 C 0.50647 0.38916 0.77183 0.0
C3561 C 0.51951 0.38466 0.73551 0.0
C3562 C 0.50669 0.38354 0.81922 0.0
C3563 C 0.52033 0.37312 0.83085 0.0
C3564 C 0.53344 0.36835 0.79427 0.0
C3565 C 0.53283 0.37416 0.74672 0.0
C3566 C 0.49223 0.38875 0.85679 0.0
C3567 C 0.54814 0.35721 0.80554 0.0
H3568 H 0.53647 0.37158 -0.00189 0.0
H3569 H 0.49603 0.34137 0.94354 0.0
H3570 H 0.55443 0.38239 0.88255 0.0
H3571 H 0.53527 0.39393 0.89947 0.0
H3572 H 0.55181 0.38772 0.94588 0.0
H3573 H 0.48739 0.33964 0.86109 0.0
H3574 H 0.48523 0.35657 0.83364 0.0
H3575 H 0.50532 0.34573 0.81781 0.0
H3576 H 0.49602 0.39721 0.76329 0.0
H3577 H 0.54304 0.37077 0.71885 0.0
H3578 H 0.49995 0.39273 0.88965 0.0
H3579 H 0.48279 0.38011 0.86919 0.0
H3580 H 0.48286 0.39715 0.84202 0.0
H3581 H 0.55738 0.36046 0.83687 0.0
H3582 H 0.55761 0.35489 0.77348 0.0
H3583 H 0.5406 0.34755 0.81677 0.0
C3584 C 0.31087 0.34707 0.78258 0.0
C3585 C 0.29867 0.35218 0.74547 0.0
C3586 C 0.31115 0.35306 0.82943 0.0
C3587 C 0.29886 0.36443 0.83948 0.0
C3588 C 0.28711 0.37004 0.80154 0.0
C3589 C 0.2872 0.36385 0.75471 0.0
C3590 C 0.32411 0.34693 0.86861 0.0
C3591 C 0.27392 0.38224 0.81096 0.0
C3592 C 0.28343 0.37206 0.97111 0.0
C3593 C 0.295 0.38358 0.98167 0.0
C3594 C 0.28488 0.36543 0.92518 0.0
C3595 C 0.29831 0.37044 0.88973 0.0
C3596 C 0.31086 0.3815 0.90177 0.0
C3597 C 0.30898 0.38797 0.94755 0.0
C3598 C 0.27134 0.35358 0.91361 0.0
C3599 C 0.3256 0.38698 0.86541 0.0
H3600 H 0.31985 0.33806 0.7754 0.0
H3601 H 0.27761 0.36771 0.72623 0.0
H3602 H 0.3335 0.35508 0.88472 0.0
H3603 H 0.3151 0.34265 0.89889 0.0
H3604 H 0.33351 0.33851 0.85406 0.0
H3605 H 0.2661 0.3856 0.77727 0.0
H3606 H 0.26307 0.37948 0.83955 0.0
H3607 H 0.28245 0.39113 0.8252 0.0
H3608 H 0.27245 0.36881 -0.0027 0.0
H3609 H 0.31796 0.3969 0.95593 0.0
H3610 H 0.2797 0.34449 0.9003 0.0
H3611 H 0.26131 0.35668 0.88366 0.0
H3612 H 0.2626 0.35039 0.94607 0.0
H3613 H 0.33467 0.3784 0.85093 0.0
H3614 H 0.33529 0.39491 0.882 0.0
H3615 H 0.318 0.39173 0.83362 0.0
loop_
_geom_bond_atom_site_label_1
_geom_bond_atom_site_label_2
_geom_bond_distance
_geom_bond_site_symmetry_2
_ccdc_geom_bond_type
C0 C1 1.351 . S
C0 N3 1.368 . S
C0 H5 0.931 . S
C1 C0 1.351 . S
C1 N2 1.373 . S
C1 H29 0.930 . S
N2 C1 1.373 . S
N2 C4 1.340 . S
N3 C0 1.368 . S
N3 C4 1.321 . S
N3 Co6 2.196 . S
C4 N2 1.340 . S
C4 N3 1.321 . S
C4 H28 0.930 . S
H5 C0 0.931 . S
Co6 N3 2.196 . S
Co6 N9 2.059 1_655 S
Co6 O14 2.054 . S
Co6 O17 2.049 . S
Co6 N20 2.136 1_655 S
C7 O8 1.227 . S
C7 O17 1.265 . S
O8 C7 1.227 . S
N9 Co6 2.059 1_455 S
N9 C11 1.375 . S
N9 C12 1.313 . S
C10 C11 1.338 . S
C10 N13 1.377 . S
C10 H30 0.930 . S
C11 N9 1.375 . S
C11 C10 1.338 . S
C11 H15 0.931 . S
C12 N9 1.313 . S
C12 N13 1.344 . S
C12 H16 0.930 . S
N13 C10 1.377 . S
N13 C12 1.344 . S
O14 Co6 2.054 . S
O14 C18 1.250 1_655 S
H15 C11 0.931 . S
H16 C12 0.930 . S
O17 Co6 2.049 . S
O17 C7 1.265 . S
C18 O14 1.250 1_455 S
C18 O19 1.227 . S
O19 C18 1.227 . S
N20 Co6 2.136 1_455 S
N20 C23 1.346 1_455 S
N20 C24 1.345 . S
C21 C22 1.387 1_455 S
C21 C25 1.391 . S
C22 C21 1.387 1_655 S
C22 C23 1.369 . S
C22 H31 0.929 . S
C23 N20 1.346 1_655 S
C23 C22 1.369 . S
C23 H26 0.928 . S
C24 N20 1.345 . S
C24 C25 1.371 . S
C24 H27 0.931 . S
C25 C21 1.391 . S
C25 C24 1.371 . S
C25 H32 0.930 . S
H26 C23 0.928 . S
H27 C24 0.931 . S
H28 C4 0.930 . S
H29 C1 0.930 . S
H30 C10 0.930 . S
H31 C22 0.929 . S
H32 C25 0.930 . S
C33 C34 1.351 . S
C33 N36 1.368 . S
C33 H38 0.931 . S
C34 C33 1.351 . S
C34 N35 1.373 . S
C34 H62 0.930 . S
N35 C34 1.373 . S
N35 C37 1.340 . S
N36 C33 1.368 . S
N36 C37 1.321 . S
N36 Co39 2.135 . S
C37 N35 1.340 . S
C37 N36 1.321 . S
C37 H61 0.930 . S
H38 C33 0.931 . S
Co39 N36 2.135 . S
Co39 N42 2.121 . S
Co39 O47 2.055 . S
Co39 O50 2.039 . S
Co39 N53 2.140 . S
C40 O41 1.227 . S
C40 O50 1.265 . S
O41 C40 1.227 . S
N42 Co39 2.121 . S
N42 C44 1.375 . S
N42 C45 1.313 . S
C43 C44 1.338 . S
C43 N46 1.377 . S
C43 H63 0.930 . S
C44 N42 1.375 . S
C44 C43 1.338 . S
C44 H48 0.931 . S
C45 N42 1.313 . S
C45 N46 1.344 . S
C45 H49 0.930 . S
N46 C43 1.377 . S
N46 C45 1.344 . S
O47 Co39 2.055 . S
O47 C51 1.253 . S
H48 C44 0.931 . S
H49 C45 0.930 . S
O50 Co39 2.039 . S
O50 C40 1.265 . S
C51 O47 1.253 . S
C51 O52 1.227 . S
O52 C51 1.227 . S
N53 Co39 2.140 . S
N53 C56 1.346 . S
N53 C57 1.345 . S
C54 C55 1.387 . S
C54 C58 1.391 . S
C55 C54 1.387 . S
C55 C56 1.369 . S
C55 H64 0.929 . S
C56 N53 1.346 . S
C56 C55 1.369 . S
C56 H59 0.928 . S
C57 N53 1.345 . S
C57 C58 1.371 . S
C57 H60 0.931 . S
C58 C54 1.391 . S
C58 C57 1.371 . S
C58 H65 0.930 . S
H59 C56 0.928 . S
H60 C57 0.931 . S
H61 C37 0.930 . S
H62 C34 0.930 . S
H63 C43 0.930 . S
H64 C55 0.929 . S
H65 C58 0.930 . S
C66 C67 1.351 . S
C66 N69 1.368 . S
C66 H71 0.931 . S
C67 C66 1.351 . S
C67 N68 1.373 . S
C67 H95 0.930 . S
N68 C67 1.373 . S
N68 C70 1.340 . S
N69 C66 1.368 . S
N69 C70 1.321 . S
N69 Co72 2.196 . S
C70 N68 1.340 . S
C70 N69 1.321 . S
C70 H94 0.930 . S
H71 C66 0.931 . S
Co72 N69 2.196 . S
Co72 N75 2.059 1_655 S
Co72 O80 2.054 . S
Co72 O83 2.049 . S
Co72 N86 2.136 1_655 S
C73 O74 1.227 . S
C73 O83 1.265 . S
O74 C73 1.227 . S
N75 Co72 2.059 1_455 S
N75 C77 1.375 . S
N75 C78 1.313 . S
C76 C77 1.338 . S
C76 N79 1.377 . S
C76 H96 0.930 . S
C77 N75 1.375 . S
C77 C76 1.338 . S
C77 H81 0.931 . S
C78 N75 1.313 . S
C78 N79 1.344 . S
C78 H82 0.930 . S
N79 C76 1.377 . S
N79 C78 1.344 . S
O80 Co72 2.054 . S
O80 C84 1.250 1_655 S
H81 C77 0.931 . S
H82 C78 0.930 . S
O83 Co72 2.049 . S
O83 C73 1.265 . S
C84 O80 1.250 1_455 S
C84 O85 1.227 . S
O85 C84 1.227 . S
N86 Co72 2.136 1_455 S
N86 C89 1.346 1_455 S
N86 C90 1.345 . S
C87 C88 1.387 1_455 S
C87 C91 1.391 . S
C88 C87 1.387 1_655 S
C88 C89 1.369 . S
C88 H97 0.929 . S
C89 N86 1.346 1_655 S
C89 C88 1.369 . S
C89 H92 0.928 . S
C90 N86 1.345 . S
C90 C91 1.371 . S
C90 H93 0.931 . S
C91 C87 1.391 . S
C91 C90 1.371 . S
C91 H98 0.930 . S
H92 C89 0.928 . S
H93 C90 0.931 . S
H94 C70 0.930 . S
H95 C67 0.930 . S
H96 C76 0.930 . S
H97 C88 0.929 . S
H98 C91 0.930 . S
C99 C100 1.351 . S
C99 N102 1.368 . S
C99 H104 0.931 . S
C100 C99 1.351 . S
C100 N101 1.373 . S
C100 H128 0.930 . S
N101 C100 1.373 . S
N101 C103 1.340 . S
N102 C99 1.368 . S
N102 C103 1.321 . S
N102 Co105 2.135 . S
C103 N101 1.340 . S
C103 N102 1.321 . S
C103 H127 0.930 . S
H104 C99 0.931 . S
Co105 N102 2.135 . S
Co105 N108 2.121 . S
Co105 O113 2.055 . S
Co105 O116 2.039 . S
Co105 N119 2.140 . S
C106 O107 1.227 . S
C106 O116 1.265 . S
O107 C106 1.227 . S
N108 Co105 2.121 . S
N108 C110 1.375 . S
N108 C111 1.313 . S
C109 C110 1.338 . S
C109 N112 1.377 . S
C109 H129 0.930 . S
C110 N108 1.375 . S
C110 C109 1.338 . S
C110 H114 0.931 . S
C111 N108 1.313 . S
C111 N112 1.344 . S
C111 H115 0.930 . S
N112 C109 1.377 . S
N112 C111 1.344 . S
O113 Co105 2.055 . S
O113 C117 1.253 . S
H114 C110 0.931 . S
H115 C111 0.930 . S
O116 Co105 2.039 . S
O116 C106 1.265 . S
C117 O113 1.253 . S
C117 O118 1.227 . S
O118 C117 1.227 . S
N119 Co105 2.140 . S
N119 C122 1.346 . S
N119 C123 1.345 . S
C120 C121 1.387 . S
C120 C124 1.391 . S
C121 C120 1.387 . S
C121 C122 1.369 . S
C121 H130 0.929 . S
C122 N119 1.346 . S
C122 C121 1.369 . S
C122 H125 0.928 . S
C123 N119 1.345 . S
C123 C124 1.371 . S
C123 H126 0.931 . S
C124 C120 1.391 . S
C124 C123 1.371 . S
C124 H131 0.930 . S
H125 C122 0.928 . S
H126 C123 0.931 . S
H127 C103 0.930 . S
H128 C100 0.930 . S
H129 C109 0.930 . S
H130 C121 0.929 . S
H131 C124 0.930 . S
C132 C133 1.351 . S
C132 N135 1.368 . S
C132 H137 0.931 . S
C133 C132 1.351 . S
C133 N134 1.373 . S
C133 H161 0.930 . S
N134 C133 1.373 . S
N134 C136 1.340 . S
N135 C132 1.368 . S
N135 C136 1.321 . S
N135 Co138 2.196 . S
C136 N134 1.340 . S
C136 N135 1.321 . S
C136 H160 0.930 . S
H137 C132 0.931 . S
Co138 N135 2.196 . S
Co138 N141 2.059 1_455 S
Co138 O146 2.054 . S
Co138 O149 2.049 . S
Co138 N152 2.136 1_455 S
C139 O140 1.227 . S
C139 O149 1.265 . S
O140 C139 1.227 . S
N141 Co138 2.059 1_655 S
N141 C143 1.375 . S
N141 C144 1.313 . S
C142 C143 1.338 . S
C142 N145 1.377 . S
C142 H162 0.930 . S
C143 N141 1.375 . S
C143 C142 1.338 . S
C143 H147 0.931 . S
C144 N141 1.313 . S
C144 N145 1.344 . S
C144 H148 0.930 . S
N145 C142 1.377 . S
N145 C144 1.344 . S
O146 Co138 2.054 . S
O146 C150 1.250 1_455 S
H147 C143 0.931 . S
H148 C144 0.930 . S
O149 Co138 2.049 . S
O149 C139 1.265 . S
C150 O146 1.250 1_655 S
C150 O151 1.227 . S
O151 C150 1.227 . S
N152 Co138 2.136 1_655 S
N152 C155 1.346 1_655 S
N152 C156 1.345 . S
C153 C154 1.387 1_655 S
C153 C157 1.391 . S
C154 C153 1.387 1_455 S
C154 C155 1.369 . S
C154 H163 0.929 . S
C155 N152 1.346 1_455 S
C155 C154 1.369 . S
C155 H158 0.928 . S
C156 N152 1.345 . S
C156 C157 1.371 . S
C156 H159 0.931 . S
C157 C153 1.391 . S
C157 C156 1.371 . S
C157 H164 0.930 . S
H158 C155 0.928 . S
H159 C156 0.931 . S
H160 C136 0.930 . S
H161 C133 0.930 . S
H162 C142 0.930 . S
H163 C154 0.929 . S
H164 C157 0.930 . S
C165 C166 1.351 . S
C165 N168 1.368 . S
C165 H170 0.931 . S
C166 C165 1.351 . S
C166 N167 1.373 . S
C166 H194 0.930 . S
N167 C166 1.373 . S
N167 C169 1.340 . S
N168 C165 1.368 . S
N168 C169 1.321 . S
N168 Co171 2.135 . S
C169 N167 1.340 . S
C169 N168 1.321 . S
C169 H193 0.930 . S
H170 C165 0.931 . S
Co171 N168 2.135 . S
Co171 N174 2.121 . S
Co171 O179 2.055 . S
Co171 O182 2.039 . S
Co171 N185 2.140 . S
C172 O173 1.227 . S
C172 O182 1.265 . S
O173 C172 1.227 . S
N174 Co171 2.121 . S
N174 C176 1.375 . S
N174 C177 1.313 . S
C175 C176 1.338 . S
C175 N178 1.377 . S
C175 H195 0.930 . S
C176 N174 1.375 . S
C176 C175 1.338 . S
C176 H180 0.931 . S
C177 N174 1.313 . S
C177 N178 1.344 . S
C177 H181 0.930 . S
N178 C175 1.377 . S
N178 C177 1.344 . S
O179 Co171 2.055 . S
O179 C183 1.253 . S
H180 C176 0.931 . S
H181 C177 0.930 . S
O182 Co171 2.039 . S
O182 C172 1.265 . S
C183 O179 1.253 . S
C183 O184 1.227 . S
O184 C183 1.227 . S
N185 Co171 2.140 . S
N185 C188 1.346 . S
N185 C189 1.345 . S
C186 C187 1.387 . S
C186 C190 1.391 . S
C187 C186 1.387 . S
C187 C188 1.369 . S
C187 H196 0.929 . S
C188 N185 1.346 . S
C188 C187 1.369 . S
C188 H191 0.928 . S
C189 N185 1.345 . S
C189 C190 1.371 . S
C189 H192 0.931 . S
C190 C186 1.391 . S
C190 C189 1.371 . S
C190 H197 0.930 . S
H191 C188 0.928 . S
H192 C189 0.931 . S
H193 C169 0.930 . S
H194 C166 0.930 . S
H195 C175 0.930 . S
H196 C187 0.929 . S
H197 C190 0.930 . S
C198 C199 1.351 . S
C198 N201 1.368 . S
C198 H203 0.931 . S
C199 C198 1.351 . S
C199 N200 1.373 . S
C199 H227 0.930 . S
N200 C199 1.373 . S
N200 C202 1.340 . S
N201 C198 1.368 . S
N201 C202 1.321 . S
N201 Co204 2.196 . S
C202 N200 1.340 . S
C202 N201 1.321 . S
C202 H226 0.930 . S
H203 C198 0.931 . S
Co204 N201 2.196 . S
Co204 N207 2.059 1_455 S
Co204 O212 2.054 . S
Co204 O215 2.049 . S
Co204 N218 2.136 1_455 S
C205 O206 1.227 . S
C205 O215 1.265 . S
O206 C205 1.227 . S
N207 Co204 2.059 1_655 S
N207 C209 1.375 . S
N207 C210 1.313 . S
C208 C209 1.338 . S
C208 N211 1.377 . S
C208 H228 0.930 . S
C209 N207 1.375 . S
C209 C208 1.338 . S
C209 H213 0.931 . S
C210 N207 1.313 . S
C210 N211 1.344 . S
C210 H214 0.930 . S
N211 C208 1.377 . S
N211 C210 1.344 . S
O212 Co204 2.054 . S
O212 C216 1.250 1_455 S
H213 C209 0.931 . S
H214 C210 0.930 . S
O215 Co204 2.049 . S
O215 C205 1.265 . S
C216 O212 1.250 1_655 S
C216 O217 1.227 . S
O217 C216 1.227 . S
N218 Co204 2.136 1_655 S
N218 C221 1.346 1_655 S
N218 C222 1.345 . S
C219 C220 1.387 1_655 S
C219 C223 1.391 . S
C220 C219 1.387 1_455 S
C220 C221 1.369 . S
C220 H229 0.929 . S
C221 N218 1.346 1_455 S
C221 C220 1.369 . S
C221 H224 0.928 . S
C222 N218 1.345 . S
C222 C223 1.371 . S
C222 H225 0.931 . S
C223 C219 1.391 . S
C223 C222 1.371 . S
C223 H230 0.930 . S
H224 C221 0.928 . S
H225 C222 0.931 . S
H226 C202 0.930 . S
H227 C199 0.930 . S
H228 C208 0.930 . S
H229 C220 0.929 . S
H230 C223 0.930 . S
C231 C232 1.351 . S
C231 N234 1.368 . S
C231 H236 0.931 . S
C232 C231 1.351 . S
C232 N233 1.373 . S
C232 H260 0.930 . S
N233 C232 1.373 . S
N233 C235 1.340 . S
N234 C231 1.368 . S
N234 C235 1.321 . S
N234 Co237 2.135 . S
C235 N233 1.340 . S
C235 N234 1.321 . S
C235 H259 0.930 . S
H236 C231 0.931 . S
Co237 N234 2.135 . S
Co237 N240 2.121 . S
Co237 O245 2.055 . S
Co237 O248 2.039 . S
Co237 N251 2.140 . S
C238 O239 1.227 . S
C238 O248 1.265 . S
O239 C238 1.227 . S
N240 Co237 2.121 . S
N240 C242 1.375 . S
N240 C243 1.313 . S
C241 C242 1.338 . S
C241 N244 1.377 . S
C241 H261 0.930 . S
C242 N240 1.375 . S
C242 C241 1.338 . S
C242 H246 0.931 . S
C243 N240 1.313 . S
C243 N244 1.344 . S
C243 H247 0.930 . S
N244 C241 1.377 . S
N244 C243 1.344 . S
O245 Co237 2.055 . S
O245 C249 1.253 . S
H246 C242 0.931 . S
H247 C243 0.930 . S
O248 Co237 2.039 . S
O248 C238 1.265 . S
C249 O245 1.253 . S
C249 O250 1.227 . S
O250 C249 1.227 . S
N251 Co237 2.140 . S
N251 C254 1.346 . S
N251 C255 1.345 . S
C252 C253 1.387 . S
C252 C256 1.391 . S
C253 C252 1.387 . S
C253 C254 1.369 . S
C253 H262 0.929 . S
C254 N251 1.346 . S
C254 C253 1.369 . S
C254 H257 0.928 . S
C255 N251 1.345 . S
C255 C256 1.371 . S
C255 H258 0.931 . S
C256 C252 1.391 . S
C256 C255 1.371 . S
C256 H263 0.930 . S
H257 C254 0.928 . S
H258 C255 0.931 . S
H259 C235 0.930 . S
H260 C232 0.930 . S
H261 C241 0.930 . S
H262 C253 0.929 . S
H263 C256 0.930 . S
C264 C265 1.351 . S
C264 N267 1.368 . S
C264 H269 0.931 . S
C265 C264 1.351 . S
C265 N266 1.373 . S
C265 H293 0.930 . S
N266 C265 1.373 . S
N266 C268 1.340 . S
N267 C264 1.368 . S
N267 C268 1.321 . S
N267 Co270 2.196 . S
C268 N266 1.340 . S
C268 N267 1.321 . S
C268 H292 0.930 . S
H269 C264 0.931 . S
Co270 N267 2.196 . S
Co270 N273 2.059 1_655 S
Co270 O278 2.054 . S
Co270 O281 2.049 . S
Co270 N284 2.136 1_655 S
C271 O272 1.227 . S
C271 O281 1.265 . S
O272 C271 1.227 . S
N273 Co270 2.059 1_455 S
N273 C275 1.375 . S
N273 C276 1.313 . S
C274 C275 1.338 . S
C274 N277 1.377 . S
C274 H294 0.930 . S
C275 N273 1.375 . S
C275 C274 1.338 . S
C275 H279 0.931 . S
C276 N273 1.313 . S
C276 N277 1.344 . S
C276 H280 0.930 . S
N277 C274 1.377 . S
N277 C276 1.344 . S
O278 Co270 2.054 . S
O278 C282 1.250 1_655 S
H279 C275 0.931 . S
H280 C276 0.930 . S
O281 Co270 2.049 . S
O281 C271 1.265 . S
C282 O278 1.250 1_455 S
C282 O283 1.227 . S
O283 C282 1.227 . S
N284 Co270 2.136 1_455 S
N284 C287 1.346 1_455 S
N284 C288 1.345 . S
C285 C286 1.387 1_455 S
C285 C289 1.391 . S
C286 C285 1.387 1_655 S
C286 C287 1.369 . S
C286 H295 0.929 . S
C287 N284 1.346 1_655 S
C287 C286 1.369 . S
C287 H290 0.928 . S
C288 N284 1.345 . S
C288 C289 1.371 . S
C288 H291 0.931 . S
C289 C285 1.391 . S
C289 C288 1.371 . S
C289 H296 0.930 . S
H290 C287 0.928 . S
H291 C288 0.931 . S
H292 C268 0.930 . S
H293 C265 0.930 . S
H294 C274 0.930 . S
H295 C286 0.929 . S
H296 C289 0.930 . S
C297 C298 1.351 . S
C297 N300 1.368 . S
C297 H302 0.931 . S
C298 C297 1.351 . S
C298 N299 1.373 . S
C298 H326 0.930 . S
N299 C298 1.373 . S
N299 C301 1.340 . S
N300 C297 1.368 . S
N300 C301 1.321 . S
N300 Co303 2.135 . S
C301 N299 1.340 . S
C301 N300 1.321 . S
C301 H325 0.930 . S
H302 C297 0.931 . S
Co303 N300 2.135 . S
Co303 N306 2.121 . S
Co303 O311 2.055 . S
Co303 O314 2.039 . S
Co303 N317 2.140 . S
C304 O305 1.227 . S
C304 O314 1.265 . S
O305 C304 1.227 . S
N306 Co303 2.121 . S
N306 C308 1.375 . S
N306 C309 1.313 . S
C307 C308 1.338 . S
C307 N310 1.377 . S
C307 H327 0.930 . S
C308 N306 1.375 . S
C308 C307 1.338 . S
C308 H312 0.931 . S
C309 N306 1.313 . S
C309 N310 1.344 . S
C309 H313 0.930 . S
N310 C307 1.377 . S
N310 C309 1.344 . S
O311 Co303 2.055 . S
O311 C315 1.253 . S
H312 C308 0.931 . S
H313 C309 0.930 . S
O314 Co303 2.039 . S
O314 C304 1.265 . S
C315 O311 1.253 . S
C315 O316 1.227 . S
O316 C315 1.227 . S
N317 Co303 2.140 . S
N317 C320 1.346 . S
N317 C321 1.345 . S
C318 C319 1.387 . S
C318 C322 1.391 . S
C319 C318 1.387 . S
C319 C320 1.369 . S
C319 H328 0.929 . S
C320 N317 1.346 . S
C320 C319 1.369 . S
C320 H323 0.928 . S
C321 N317 1.345 . S
C321 C322 1.371 . S
C321 H324 0.931 . S
C322 C318 1.391 . S
C322 C321 1.371 . S
C322 H329 0.930 . S
H323 C320 0.928 . S
H324 C321 0.931 . S
H325 C301 0.930 . S
H326 C298 0.930 . S
H327 C307 0.930 . S
H328 C319 0.929 . S
H329 C322 0.930 . S
C330 C331 1.351 . S
C330 N333 1.368 . S
C330 H335 0.931 . S
C331 C330 1.351 . S
C331 N332 1.373 . S
C331 H359 0.930 . S
N332 C331 1.373 . S
N332 C334 1.340 . S
N333 C330 1.368 . S
N333 C334 1.321 . S
N333 Co336 2.196 . S
C334 N332 1.340 . S
C334 N333 1.321 . S
C334 H358 0.930 . S
H335 C330 0.931 . S
Co336 N333 2.196 . S
Co336 N339 2.059 1_655 S
Co336 O344 2.054 . S
Co336 O347 2.049 . S
Co336 N350 2.136 1_655 S
C337 O338 1.227 . S
C337 O347 1.265 . S
O338 C337 1.227 . S
N339 Co336 2.059 1_455 S
N339 C341 1.375 . S
N339 C342 1.313 . S
C340 C341 1.338 . S
C340 N343 1.377 . S
C340 H360 0.930 . S
C341 N339 1.375 . S
C341 C340 1.338 . S
C341 H345 0.931 . S
C342 N339 1.313 . S
C342 N343 1.344 . S
C342 H346 0.930 . S
N343 C340 1.377 . S
N343 C342 1.344 . S
O344 Co336 2.054 . S
O344 C348 1.250 1_655 S
H345 C341 0.931 . S
H346 C342 0.930 . S
O347 Co336 2.049 . S
O347 C337 1.265 . S
C348 O344 1.250 1_455 S
C348 O349 1.227 . S
O349 C348 1.227 . S
N350 Co336 2.136 1_455 S
N350 C353 1.346 1_455 S
N350 C354 1.345 . S
C351 C352 1.387 1_455 S
C351 C355 1.391 . S
C352 C351 1.387 1_655 S
C352 C353 1.369 . S
C352 H361 0.929 . S
C353 N350 1.346 1_655 S
C353 C352 1.369 . S
C353 H356 0.928 . S
C354 N350 1.345 . S
C354 C355 1.371 . S
C354 H357 0.931 . S
C355 C351 1.391 . S
C355 C354 1.371 . S
C355 H362 0.930 . S
H356 C353 0.928 . S
H357 C354 0.931 . S
H358 C334 0.930 . S
H359 C331 0.930 . S
H360 C340 0.930 . S
H361 C352 0.929 . S
H362 C355 0.930 . S
C363 C364 1.351 . S
C363 N366 1.368 . S
C363 H368 0.931 . S
C364 C363 1.351 . S
C364 N365 1.373 . S
C364 H392 0.930 . S
N365 C364 1.373 . S
N365 C367 1.340 . S
N366 C363 1.368 . S
N366 C367 1.321 . S
N366 Co369 2.135 . S
C367 N365 1.340 . S
C367 N366 1.321 . S
C367 H391 0.930 . S
H368 C363 0.931 . S
Co369 N366 2.135 . S
Co369 N372 2.121 . S
Co369 O377 2.055 . S
Co369 O380 2.039 . S
Co369 N383 2.140 . S
C370 O371 1.227 . S
C370 O380 1.265 . S
O371 C370 1.227 . S
N372 Co369 2.121 . S
N372 C374 1.375 . S
N372 C375 1.313 . S
C373 C374 1.338 . S
C373 N376 1.377 . S
C373 H393 0.930 . S
C374 N372 1.375 . S
C374 C373 1.338 . S
C374 H378 0.931 . S
C375 N372 1.313 . S
C375 N376 1.344 . S
C375 H379 0.930 . S
N376 C373 1.377 . S
N376 C375 1.344 . S
O377 Co369 2.055 . S
O377 C381 1.253 . S
H378 C374 0.931 . S
H379 C375 0.930 . S
O380 Co369 2.039 . S
O380 C370 1.265 . S
C381 O377 1.253 . S
C381 O382 1.227 . S
O382 C381 1.227 . S
N383 Co369 2.140 . S
N383 C386 1.346 . S
N383 C387 1.345 . S
C384 C385 1.387 . S
C384 C388 1.391 . S
C385 C384 1.387 . S
C385 C386 1.369 . S
C385 H394 0.929 . S
C386 N383 1.346 . S
C386 C385 1.369 . S
C386 H389 0.928 . S
C387 N383 1.345 . S
C387 C388 1.371 . S
C387 H390 0.931 . S
C388 C384 1.391 . S
C388 C387 1.371 . S
C388 H395 0.930 . S
H389 C386 0.928 . S
H390 C387 0.931 . S
H391 C367 0.930 . S
H392 C364 0.930 . S
H393 C373 0.930 . S
H394 C385 0.929 . S
H395 C388 0.930 . S
C396 C397 1.351 . S
C396 N399 1.368 . S
C396 H401 0.931 . S
C397 C396 1.351 . S
C397 N398 1.373 . S
C397 H425 0.930 . S
N398 C397 1.373 . S
N398 C400 1.340 . S
N399 C396 1.368 . S
N399 C400 1.321 . S
N399 Co402 2.196 . S
C400 N398 1.340 . S
C400 N399 1.321 . S
C400 H424 0.930 . S
H401 C396 0.931 . S
Co402 N399 2.196 . S
Co402 N405 2.059 1_455 S
Co402 O410 2.054 . S
Co402 O413 2.049 . S
Co402 N416 2.136 1_455 S
C403 O404 1.227 . S
C403 O413 1.265 . S
O404 C403 1.227 . S
N405 Co402 2.059 1_655 S
N405 C407 1.375 . S
N405 C408 1.313 . S
C406 C407 1.338 . S
C406 N409 1.377 . S
C406 H426 0.930 . S
C407 N405 1.375 . S
C407 C406 1.338 . S
C407 H411 0.931 . S
C408 N405 1.313 . S
C408 N409 1.344 . S
C408 H412 0.930 . S
N409 C406 1.377 . S
N409 C408 1.344 . S
O410 Co402 2.054 . S
O410 C414 1.250 1_455 S
H411 C407 0.931 . S
H412 C408 0.930 . S
O413 Co402 2.049 . S
O413 C403 1.265 . S
C414 O410 1.250 1_655 S
C414 O415 1.227 . S
O415 C414 1.227 . S
N416 Co402 2.136 1_655 S
N416 C419 1.346 1_655 S
N416 C420 1.345 . S
C417 C418 1.387 1_655 S
C417 C421 1.391 . S
C418 C417 1.387 1_455 S
C418 C419 1.369 . S
C418 H427 0.929 . S
C419 N416 1.346 1_455 S
C419 C418 1.369 . S
C419 H422 0.928 . S
C420 N416 1.345 . S
C420 C421 1.371 . S
C420 H423 0.931 . S
C421 C417 1.391 . S
C421 C420 1.371 . S
C421 H428 0.930 . S
H422 C419 0.928 . S
H423 C420 0.931 . S
H424 C400 0.930 . S
H425 C397 0.930 . S
H426 C406 0.930 . S
H427 C418 0.929 . S
H428 C421 0.930 . S
C429 C430 1.351 . S
C429 N432 1.368 . S
C429 H434 0.931 . S
C430 C429 1.351 . S
C430 N431 1.373 . S
C430 H458 0.930 . S
N431 C430 1.373 . S
N431 C433 1.340 . S
N432 C429 1.368 . S
N432 C433 1.321 . S
N432 Co435 2.135 . S
C433 N431 1.340 . S
C433 N432 1.321 . S
C433 H457 0.930 . S
H434 C429 0.931 . S
Co435 N432 2.135 . S
Co435 N438 2.121 . S
Co435 O443 2.055 . S
Co435 O446 2.039 . S
Co435 N449 2.140 . S
C436 O437 1.227 . S
C436 O446 1.265 . S
O437 C436 1.227 . S
N438 Co435 2.121 . S
N438 C440 1.375 . S
N438 C441 1.313 . S
C439 C440 1.338 . S
C439 N442 1.377 . S
C439 H459 0.930 . S
C440 N438 1.375 . S
C440 C439 1.338 . S
C440 H444 0.931 . S
C441 N438 1.313 . S
C441 N442 1.344 . S
C441 H445 0.930 . S
N442 C439 1.377 . S
N442 C441 1.344 . S
O443 Co435 2.055 . S
O443 C447 1.253 . S
H444 C440 0.931 . S
H445 C441 0.930 . S
O446 Co435 2.039 . S
O446 C436 1.265 . S
C447 O443 1.253 . S
C447 O448 1.227 . S
O448 C447 1.227 . S
N449 Co435 2.140 . S
N449 C452 1.346 . S
N449 C453 1.345 . S
C450 C451 1.387 . S
C450 C454 1.391 . S
C451 C450 1.387 . S
C451 C452 1.369 . S
C451 H460 0.929 . S
C452 N449 1.346 . S
C452 C451 1.369 . S
C452 H455 0.928 . S
C453 N449 1.345 . S
C453 C454 1.371 . S
C453 H456 0.931 . S
C454 C450 1.391 . S
C454 C453 1.371 . S
C454 H461 0.930 . S
H455 C452 0.928 . S
H456 C453 0.931 . S
H457 C433 0.930 . S
H458 C430 0.930 . S
H459 C439 0.930 . S
H460 C451 0.929 . S
H461 C454 0.930 . S
C462 C463 1.351 . S
C462 N465 1.368 . S
C462 H467 0.931 . S
C463 C462 1.351 . S
C463 N464 1.373 . S
C463 H491 0.930 . S
N464 C463 1.373 . S
N464 C466 1.340 . S
N465 C462 1.368 . S
N465 C466 1.321 . S
N465 Co468 2.196 . S
C466 N464 1.340 . S
C466 N465 1.321 . S
C466 H490 0.930 . S
H467 C462 0.931 . S
Co468 N465 2.196 . S
Co468 N471 2.059 1_455 S
Co468 O476 2.054 . S
Co468 O479 2.049 . S
Co468 N482 2.136 1_455 S
C469 O470 1.227 . S
C469 O479 1.265 . S
O470 C469 1.227 . S
N471 Co468 2.059 1_655 S
N471 C473 1.375 . S
N471 C474 1.313 . S
C472 C473 1.338 . S
C472 N475 1.377 . S
C472 H492 0.930 . S
C473 N471 1.375 . S
C473 C472 1.338 . S
C473 H477 0.931 . S
C474 N471 1.313 . S
C474 N475 1.344 . S
C474 H478 0.930 . S
N475 C472 1.377 . S
N475 C474 1.344 . S
O476 Co468 2.054 . S
O476 C480 1.250 1_455 S
H477 C473 0.931 . S
H478 C474 0.930 . S
O479 Co468 2.049 . S
O479 C469 1.265 . S
C480 O476 1.250 1_655 S
C480 O481 1.227 . S
O481 C480 1.227 . S
N482 Co468 2.136 1_655 S
N482 C485 1.346 1_655 S
N482 C486 1.345 . S
C483 C484 1.387 1_655 S
C483 C487 1.391 . S
C484 C483 1.387 1_455 S
C484 C485 1.369 . S
C484 H493 0.929 . S
C485 N482 1.346 1_455 S
C485 C484 1.369 . S
C485 H488 0.928 . S
C486 N482 1.345 . S
C486 C487 1.371 . S
C486 H489 0.931 . S
C487 C483 1.391 . S
C487 C486 1.371 . S
C487 H494 0.930 . S
H488 C485 0.928 . S
H489 C486 0.931 . S
H490 C466 0.930 . S
H491 C463 0.930 . S
H492 C472 0.930 . S
H493 C484 0.929 . S
H494 C487 0.930 . S
C495 C496 1.351 . S
C495 N498 1.368 . S
C495 H500 0.931 . S
C496 C495 1.351 . S
C496 N497 1.373 . S
C496 H524 0.930 . S
N497 C496 1.373 . S
N497 C499 1.340 . S
N498 C495 1.368 . S
N498 C499 1.321 . S
N498 Co501 2.135 . S
C499 N497 1.340 . S
C499 N498 1.321 . S
C499 H523 0.930 . S
H500 C495 0.931 . S
Co501 N498 2.135 . S
Co501 N504 2.121 . S
Co501 O509 2.055 . S
Co501 O512 2.039 . S
Co501 N515 2.140 . S
C502 O503 1.227 . S
C502 O512 1.265 . S
O503 C502 1.227 . S
N504 Co501 2.121 . S
N504 C506 1.375 . S
N504 C507 1.313 . S
C505 C506 1.338 . S
C505 N508 1.377 . S
C505 H525 0.930 . S
C506 N504 1.375 . S
C506 C505 1.338 . S
C506 H510 0.931 . S
C507 N504 1.313 . S
C507 N508 1.344 . S
C507 H511 0.930 . S
N508 C505 1.377 . S
N508 C507 1.344 . S
O509 Co501 2.055 . S
O509 C513 1.253 . S
H510 C506 0.931 . S
H511 C507 0.930 . S
O512 Co501 2.039 . S
O512 C502 1.265 . S
C513 O509 1.253 . S
C513 O514 1.227 . S
O514 C513 1.227 . S
N515 Co501 2.140 . S
N515 C518 1.346 . S
N515 C519 1.345 . S
C516 C517 1.387 . S
C516 C520 1.391 . S
C517 C516 1.387 . S
C517 C518 1.369 . S
C517 H526 0.929 . S
C518 N515 1.346 . S
C518 C517 1.369 . S
C518 H521 0.928 . S
C519 N515 1.345 . S
C519 C520 1.371 . S
C519 H522 0.931 . S
C520 C516 1.391 . S
C520 C519 1.371 . S
C520 H527 0.930 . S
H521 C518 0.928 . S
H522 C519 0.931 . S
H523 C499 0.930 . S
H524 C496 0.930 . S
H525 C505 0.930 . S
H526 C517 0.929 . S
H527 C520 0.930 . S
C528 C529 1.351 . S
C528 N531 1.368 . S
C528 H533 0.931 . S
C529 C528 1.351 . S
C529 N530 1.373 . S
C529 H557 0.930 . S
N530 C529 1.373 . S
N530 C532 1.340 . S
N531 C528 1.368 . S
N531 C532 1.321 . S
N531 Co534 2.135 . S
C532 N530 1.340 . S
C532 N531 1.321 . S
C532 H556 0.930 . S
H533 C528 0.931 . S
Co534 N531 2.135 . S
Co534 N537 2.121 . S
Co534 O542 2.055 . S
Co534 O545 2.039 . S
Co534 N548 2.140 . S
C535 O536 1.227 . S
C535 O545 1.265 . S
O536 C535 1.227 . S
N537 Co534 2.121 . S
N537 C539 1.375 . S
N537 C540 1.313 . S
C538 C539 1.338 . S
C538 N541 1.377 . S
C538 H558 0.930 . S
C539 N537 1.375 . S
C539 C538 1.338 . S
C539 H543 0.931 . S
C540 N537 1.313 . S
C540 N541 1.344 . S
C540 H544 0.930 . S
N541 C538 1.377 . S
N541 C540 1.344 . S
O542 Co534 2.055 . S
O542 C546 1.253 . S
H543 C539 0.931 . S
H544 C540 0.930 . S
O545 Co534 2.039 . S
O545 C535 1.265 . S
C546 O542 1.253 . S
C546 O547 1.227 . S
O547 C546 1.227 . S
N548 Co534 2.140 . S
N548 C551 1.346 . S
N548 C552 1.345 . S
C549 C550 1.387 . S
C549 C553 1.391 . S
C550 C549 1.387 . S
C550 C551 1.369 . S
C550 H559 0.929 . S
C551 N548 1.346 . S
C551 C550 1.369 . S
C551 H554 0.928 . S
C552 N548 1.345 . S
C552 C553 1.371 . S
C552 H555 0.931 . S
C553 C549 1.391 . S
C553 C552 1.371 . S
C553 H560 0.930 . S
H554 C551 0.928 . S
H555 C552 0.931 . S
H556 C532 0.930 . S
H557 C529 0.930 . S
H558 C538 0.930 . S
H559 C550 0.929 . S
H560 C553 0.930 . S
C561 C562 1.351 . S
C561 N564 1.368 . S
C561 H566 0.931 . S
C562 C561 1.351 . S
C562 N563 1.373 . S
C562 H590 0.930 . S
N563 C562 1.373 . S
N563 C565 1.340 . S
N564 C561 1.368 . S
N564 C565 1.321 . S
N564 Co567 2.135 . S
C565 N563 1.340 . S
C565 N564 1.321 . S
C565 H589 0.930 . S
H566 C561 0.931 . S
Co567 N564 2.135 . S
Co567 N570 2.121 . S
Co567 O575 2.055 . S
Co567 O578 2.039 . S
Co567 N581 2.140 . S
C568 O569 1.227 . S
C568 O578 1.265 . S
O569 C568 1.227 . S
N570 Co567 2.121 . S
N570 C572 1.375 . S
N570 C573 1.313 . S
C571 C572 1.338 . S
C571 N574 1.377 . S
C571 H591 0.930 . S
C572 N570 1.375 . S
C572 C571 1.338 . S
C572 H576 0.931 . S
C573 N570 1.313 . S
C573 N574 1.344 . S
C573 H577 0.930 . S
N574 C571 1.377 . S
N574 C573 1.344 . S
O575 Co567 2.055 . S
O575 C579 1.253 . S
H576 C572 0.931 . S
H577 C573 0.930 . S
O578 Co567 2.039 . S
O578 C568 1.265 . S
C579 O575 1.253 . S
C579 O580 1.227 . S
O580 C579 1.227 . S
N581 Co567 2.140 . S
N581 C584 1.346 . S
N581 C585 1.345 . S
C582 C583 1.387 . S
C582 C586 1.391 . S
C583 C582 1.387 . S
C583 C584 1.369 . S
C583 H592 0.929 . S
C584 N581 1.346 . S
C584 C583 1.369 . S
C584 H587 0.928 . S
C585 N581 1.345 . S
C585 C586 1.371 . S
C585 H588 0.931 . S
C586 C582 1.391 . S
C586 C585 1.371 . S
C586 H593 0.930 . S
H587 C584 0.928 . S
H588 C585 0.931 . S
H589 C565 0.930 . S
H590 C562 0.930 . S
H591 C571 0.930 . S
H592 C583 0.929 . S
H593 C586 0.930 . S
C594 C595 1.351 . S
C594 N597 1.368 . S
C594 H599 0.931 . S
C595 C594 1.351 . S
C595 N596 1.373 . S
C595 H623 0.930 . S
N596 C595 1.373 . S
N596 C598 1.340 . S
N597 C594 1.368 . S
N597 C598 1.321 . S
N597 Co600 2.135 . S
C598 N596 1.340 . S
C598 N597 1.321 . S
C598 H622 0.930 . S
H599 C594 0.931 . S
Co600 N597 2.135 . S
Co600 N603 2.121 . S
Co600 O608 2.055 . S
Co600 O611 2.039 . S
Co600 N614 2.140 . S
C601 O602 1.227 . S
C601 O611 1.265 . S
O602 C601 1.227 . S
N603 Co600 2.121 . S
N603 C605 1.375 . S
N603 C606 1.313 . S
C604 C605 1.338 . S
C604 N607 1.377 . S
C604 H624 0.930 . S
C605 N603 1.375 . S
C605 C604 1.338 . S
C605 H609 0.931 . S
C606 N603 1.313 . S
C606 N607 1.344 . S
C606 H610 0.930 . S
N607 C604 1.377 . S
N607 C606 1.344 . S
O608 Co600 2.055 . S
O608 C612 1.253 . S
H609 C605 0.931 . S
H610 C606 0.930 . S
O611 Co600 2.039 . S
O611 C601 1.265 . S
C612 O608 1.253 . S
C612 O613 1.227 . S
O613 C612 1.227 . S
N614 Co600 2.140 . S
N614 C617 1.346 . S
N614 C618 1.345 . S
C615 C616 1.387 . S
C615 C619 1.391 . S
C616 C615 1.387 . S
C616 C617 1.369 . S
C616 H625 0.929 . S
C617 N614 1.346 . S
C617 C616 1.369 . S
C617 H620 0.928 . S
C618 N614 1.345 . S
C618 C619 1.371 . S
C618 H621 0.931 . S
C619 C615 1.391 . S
C619 C618 1.371 . S
C619 H626 0.930 . S
H620 C617 0.928 . S
H621 C618 0.931 . S
H622 C598 0.930 . S
H623 C595 0.930 . S
H624 C604 0.930 . S
H625 C616 0.929 . S
H626 C619 0.930 . S
C627 C628 1.351 . S
C627 N630 1.368 . S
C627 H632 0.931 . S
C628 C627 1.351 . S
C628 N629 1.373 . S
C628 H656 0.930 . S
N629 C628 1.373 . S
N629 C631 1.340 . S
N630 C627 1.368 . S
N630 C631 1.321 . S
N630 Co633 2.135 . S
C631 N629 1.340 . S
C631 N630 1.321 . S
C631 H655 0.930 . S
H632 C627 0.931 . S
Co633 N630 2.135 . S
Co633 N636 2.121 . S
Co633 O641 2.055 . S
Co633 O644 2.039 . S
Co633 N647 2.140 . S
C634 O635 1.227 . S
C634 O644 1.265 . S
O635 C634 1.227 . S
N636 Co633 2.121 . S
N636 C638 1.375 . S
N636 C639 1.313 . S
C637 C638 1.338 . S
C637 N640 1.377 . S
C637 H657 0.930 . S
C638 N636 1.375 . S
C638 C637 1.338 . S
C638 H642 0.931 . S
C639 N636 1.313 . S
C639 N640 1.344 . S
C639 H643 0.930 . S
N640 C637 1.377 . S
N640 C639 1.344 . S
O641 Co633 2.055 . S
O641 C645 1.253 . S
H642 C638 0.931 . S
H643 C639 0.930 . S
O644 Co633 2.039 . S
O644 C634 1.265 . S
C645 O641 1.253 . S
C645 O646 1.227 . S
O646 C645 1.227 . S
N647 Co633 2.140 . S
N647 C650 1.346 . S
N647 C651 1.345 . S
C648 C649 1.387 . S
C648 C652 1.391 . S
C649 C648 1.387 . S
C649 C650 1.369 . S
C649 H658 0.929 . S
C650 N647 1.346 . S
C650 C649 1.369 . S
C650 H653 0.928 . S
C651 N647 1.345 . S
C651 C652 1.371 . S
C651 H654 0.931 . S
C652 C648 1.391 . S
C652 C651 1.371 . S
C652 H659 0.930 . S
H653 C650 0.928 . S
H654 C651 0.931 . S
H655 C631 0.930 . S
H656 C628 0.930 . S
H657 C637 0.930 . S
H658 C649 0.929 . S
H659 C652 0.930 . S
C660 C661 1.351 . S
C660 N663 1.368 . S
C660 H665 0.931 . S
C661 C660 1.351 . S
C661 N662 1.373 . S
C661 H689 0.930 . S
N662 C661 1.373 . S
N662 C664 1.340 . S
N663 C660 1.368 . S
N663 C664 1.321 . S
N663 Co666 2.135 . S
C664 N662 1.340 . S
C664 N663 1.321 . S
C664 H688 0.930 . S
H665 C660 0.931 . S
Co666 N663 2.135 . S
Co666 N669 2.121 . S
Co666 O674 2.055 . S
Co666 O677 2.039 . S
Co666 N680 2.140 . S
C667 O668 1.227 . S
C667 O677 1.265 . S
O668 C667 1.227 . S
N669 Co666 2.121 . S
N669 C671 1.375 . S
N669 C672 1.313 . S
C670 C671 1.338 . S
C670 N673 1.377 . S
C670 H690 0.930 . S
C671 N669 1.375 . S
C671 C670 1.338 . S
C671 H675 0.931 . S
C672 N669 1.313 . S
C672 N673 1.344 . S
C672 H676 0.930 . S
N673 C670 1.377 . S
N673 C672 1.344 . S
O674 Co666 2.055 . S
O674 C678 1.253 . S
H675 C671 0.931 . S
H676 C672 0.930 . S
O677 Co666 2.039 . S
O677 C667 1.265 . S
C678 O674 1.253 . S
C678 O679 1.227 . S
O679 C678 1.227 . S
N680 Co666 2.140 . S
N680 C683 1.346 . S
N680 C684 1.345 . S
C681 C682 1.387 . S
C681 C685 1.391 . S
C682 C681 1.387 . S
C682 C683 1.369 . S
C682 H691 0.929 . S
C683 N680 1.346 . S
C683 C682 1.369 . S
C683 H686 0.928 . S
C684 N680 1.345 . S
C684 C685 1.371 . S
C684 H687 0.931 . S
C685 C681 1.391 . S
C685 C684 1.371 . S
C685 H692 0.930 . S
H686 C683 0.928 . S
H687 C684 0.931 . S
H688 C664 0.930 . S
H689 C661 0.930 . S
H690 C670 0.930 . S
H691 C682 0.929 . S
H692 C685 0.930 . S
C693 C694 1.351 . S
C693 N696 1.368 . S
C693 H698 0.931 . S
C694 C693 1.351 . S
C694 N695 1.373 . S
C694 H722 0.930 . S
N695 C694 1.373 . S
N695 C697 1.340 . S
N696 C693 1.368 . S
N696 C697 1.321 . S
N696 Co699 2.135 . S
C697 N695 1.340 . S
C697 N696 1.321 . S
C697 H721 0.930 . S
H698 C693 0.931 . S
Co699 N696 2.135 . S
Co699 N702 2.121 . S
Co699 O707 2.055 . S
Co699 O710 2.039 . S
Co699 N713 2.140 . S
C700 O701 1.227 . S
C700 O710 1.265 . S
O701 C700 1.227 . S
N702 Co699 2.121 . S
N702 C704 1.375 . S
N702 C705 1.313 . S
C703 C704 1.338 . S
C703 N706 1.377 . S
C703 H723 0.930 . S
C704 N702 1.375 . S
C704 C703 1.338 . S
C704 H708 0.931 . S
C705 N702 1.313 . S
C705 N706 1.344 . S
C705 H709 0.930 . S
N706 C703 1.377 . S
N706 C705 1.344 . S
O707 Co699 2.055 . S
O707 C711 1.253 . S
H708 C704 0.931 . S
H709 C705 0.930 . S
O710 Co699 2.039 . S
O710 C700 1.265 . S
C711 O707 1.253 . S
C711 O712 1.227 . S
O712 C711 1.227 . S
N713 Co699 2.140 . S
N713 C716 1.346 . S
N713 C717 1.345 . S
C714 C715 1.387 . S
C714 C718 1.391 . S
C715 C714 1.387 . S
C715 C716 1.369 . S
C715 H724 0.929 . S
C716 N713 1.346 . S
C716 C715 1.369 . S
C716 H719 0.928 . S
C717 N713 1.345 . S
C717 C718 1.371 . S
C717 H720 0.931 . S
C718 C714 1.391 . S
C718 C717 1.371 . S
C718 H725 0.930 . S
H719 C716 0.928 . S
H720 C717 0.931 . S
H721 C697 0.930 . S
H722 C694 0.930 . S
H723 C703 0.930 . S
H724 C715 0.929 . S
H725 C718 0.930 . S
C726 C727 1.351 . S
C726 N729 1.368 . S
C726 H731 0.931 . S
C727 C726 1.351 . S
C727 N728 1.373 . S
C727 H755 0.930 . S
N728 C727 1.373 . S
N728 C730 1.340 . S
N729 C726 1.368 . S
N729 C730 1.321 . S
N729 Co732 2.135 . S
C730 N728 1.340 . S
C730 N729 1.321 . S
C730 H754 0.930 . S
H731 C726 0.931 . S
Co732 N729 2.135 . S
Co732 N735 2.121 . S
Co732 O740 2.055 . S
Co732 O743 2.039 . S
Co732 N746 2.140 . S
C733 O734 1.227 . S
C733 O743 1.265 . S
O734 C733 1.227 . S
N735 Co732 2.121 . S
N735 C737 1.375 . S
N735 C738 1.313 . S
C736 C737 1.338 . S
C736 N739 1.377 . S
C736 H756 0.930 . S
C737 N735 1.375 . S
C737 C736 1.338 . S
C737 H741 0.931 . S
C738 N735 1.313 . S
C738 N739 1.344 . S
C738 H742 0.930 . S
N739 C736 1.377 . S
N739 C738 1.344 . S
O740 Co732 2.055 . S
O740 C744 1.253 . S
H741 C737 0.931 . S
H742 C738 0.930 . S
O743 Co732 2.039 . S
O743 C733 1.265 . S
C744 O740 1.253 . S
C744 O745 1.227 . S
O745 C744 1.227 . S
N746 Co732 2.140 . S
N746 C749 1.346 . S
N746 C750 1.345 . S
C747 C748 1.387 . S
C747 C751 1.391 . S
C748 C747 1.387 . S
C748 C749 1.369 . S
C748 H757 0.929 . S
C749 N746 1.346 . S
C749 C748 1.369 . S
C749 H752 0.928 . S
C750 N746 1.345 . S
C750 C751 1.371 . S
C750 H753 0.931 . S
C751 C747 1.391 . S
C751 C750 1.371 . S
C751 H758 0.930 . S
H752 C749 0.928 . S
H753 C750 0.931 . S
H754 C730 0.930 . S
H755 C727 0.930 . S
H756 C736 0.930 . S
H757 C748 0.929 . S
H758 C751 0.930 . S
C759 C760 1.351 . S
C759 N762 1.368 . S
C759 H764 0.931 . S
C760 C759 1.351 . S
C760 N761 1.373 . S
C760 H788 0.930 . S
N761 C760 1.373 . S
N761 C763 1.340 . S
N762 C759 1.368 . S
N762 C763 1.321 . S
N762 Co765 2.135 . S
C763 N761 1.340 . S
C763 N762 1.321 . S
C763 H787 0.930 . S
H764 C759 0.931 . S
Co765 N762 2.135 . S
Co765 N768 2.121 . S
Co765 O773 2.055 . S
Co765 O776 2.039 . S
Co765 N779 2.140 . S
C766 O767 1.227 . S
C766 O776 1.265 . S
O767 C766 1.227 . S
N768 Co765 2.121 . S
N768 C770 1.375 . S
N768 C771 1.313 . S
C769 C770 1.338 . S
C769 N772 1.377 . S
C769 H789 0.930 . S
C770 N768 1.375 . S
C770 C769 1.338 . S
C770 H774 0.931 . S
C771 N768 1.313 . S
C771 N772 1.344 . S
C771 H775 0.930 . S
N772 C769 1.377 . S
N772 C771 1.344 . S
O773 Co765 2.055 . S
O773 C777 1.253 . S
H774 C770 0.931 . S
H775 C771 0.930 . S
O776 Co765 2.039 . S
O776 C766 1.265 . S
C777 O773 1.253 . S
C777 O778 1.227 . S
O778 C777 1.227 . S
N779 Co765 2.140 . S
N779 C782 1.346 . S
N779 C783 1.345 . S
C780 C781 1.387 . S
C780 C784 1.391 . S
C781 C780 1.387 . S
C781 C782 1.369 . S
C781 H790 0.929 . S
C782 N779 1.346 . S
C782 C781 1.369 . S
C782 H785 0.928 . S
C783 N779 1.345 . S
C783 C784 1.371 . S
C783 H786 0.931 . S
C784 C780 1.391 . S
C784 C783 1.371 . S
C784 H791 0.930 . S
H785 C782 0.928 . S
H786 C783 0.931 . S
H787 C763 0.930 . S
H788 C760 0.930 . S
H789 C769 0.930 . S
H790 C781 0.929 . S
H791 C784 0.930 . S
C792 C793 1.351 . S
C792 N795 1.368 . S
C792 H797 0.931 . S
C793 C792 1.351 . S
C793 N794 1.373 . S
C793 H821 0.930 . S
N794 C793 1.373 . S
N794 C796 1.340 . S
N795 C792 1.368 . S
N795 C796 1.321 . S
N795 Co798 2.135 . S
C796 N794 1.340 . S
C796 N795 1.321 . S
C796 H820 0.930 . S
H797 C792 0.931 . S
Co798 N795 2.135 . S
Co798 N801 2.121 . S
Co798 O806 2.055 . S
Co798 O809 2.039 . S
Co798 N812 2.140 . S
C799 O800 1.227 . S
C799 O809 1.265 . S
O800 C799 1.227 . S
N801 Co798 2.121 . S
N801 C803 1.375 . S
N801 C804 1.313 . S
C802 C803 1.338 . S
C802 N805 1.377 . S
C802 H822 0.930 . S
C803 N801 1.375 . S
C803 C802 1.338 . S
C803 H807 0.931 . S
C804 N801 1.313 . S
C804 N805 1.344 . S
C804 H808 0.930 . S
N805 C802 1.377 . S
N805 C804 1.344 . S
O806 Co798 2.055 . S
O806 C810 1.253 . S
H807 C803 0.931 . S
H808 C804 0.930 . S
O809 Co798 2.039 . S
O809 C799 1.265 . S
C810 O806 1.253 . S
C810 O811 1.227 . S
O811 C810 1.227 . S
N812 Co798 2.140 . S
N812 C815 1.346 . S
N812 C816 1.345 . S
C813 C814 1.387 . S
C813 C817 1.391 . S
C814 C813 1.387 . S
C814 C815 1.369 . S
C814 H823 0.929 . S
C815 N812 1.346 . S
C815 C814 1.369 . S
C815 H818 0.928 . S
C816 N812 1.345 . S
C816 C817 1.371 . S
C816 H819 0.931 . S
C817 C813 1.391 . S
C817 C816 1.371 . S
C817 H824 0.930 . S
H818 C815 0.928 . S
H819 C816 0.931 . S
H820 C796 0.930 . S
H821 C793 0.930 . S
H822 C802 0.930 . S
H823 C814 0.929 . S
H824 C817 0.930 . S
C825 C826 1.351 . S
C825 N828 1.368 . S
C825 H830 0.931 . S
C826 C825 1.351 . S
C826 N827 1.373 . S
C826 H854 0.930 . S
N827 C826 1.373 . S
N827 C829 1.340 . S
N828 C825 1.368 . S
N828 C829 1.321 . S
N828 Co831 2.135 . S
C829 N827 1.340 . S
C829 N828 1.321 . S
C829 H853 0.930 . S
H830 C825 0.931 . S
Co831 N828 2.135 . S
Co831 N834 2.121 . S
Co831 O839 2.055 . S
Co831 O842 2.039 . S
Co831 N845 2.140 . S
C832 O833 1.227 . S
C832 O842 1.265 . S
O833 C832 1.227 . S
N834 Co831 2.121 . S
N834 C836 1.375 . S
N834 C837 1.313 . S
C835 C836 1.338 . S
C835 N838 1.377 . S
C835 H855 0.930 . S
C836 N834 1.375 . S
C836 C835 1.338 . S
C836 H840 0.931 . S
C837 N834 1.313 . S
C837 N838 1.344 . S
C837 H841 0.930 . S
N838 C835 1.377 . S
N838 C837 1.344 . S
O839 Co831 2.055 . S
O839 C843 1.253 . S
H840 C836 0.931 . S
H841 C837 0.930 . S
O842 Co831 2.039 . S
O842 C832 1.265 . S
C843 O839 1.253 . S
C843 O844 1.227 . S
O844 C843 1.227 . S
N845 Co831 2.140 . S
N845 C848 1.346 . S
N845 C849 1.345 . S
C846 C847 1.387 . S
C846 C850 1.391 . S
C847 C846 1.387 . S
C847 C848 1.369 . S
C847 H856 0.929 . S
C848 N845 1.346 . S
C848 C847 1.369 . S
C848 H851 0.928 . S
C849 N845 1.345 . S
C849 C850 1.371 . S
C849 H852 0.931 . S
C850 C846 1.391 . S
C850 C849 1.371 . S
C850 H857 0.930 . S
H851 C848 0.928 . S
H852 C849 0.931 . S
H853 C829 0.930 . S
H854 C826 0.930 . S
H855 C835 0.930 . S
H856 C847 0.929 . S
H857 C850 0.930 . S
C858 C859 1.351 . S
C858 N861 1.368 . S
C858 H863 0.931 . S
C859 C858 1.351 . S
C859 N860 1.373 . S
C859 H887 0.930 . S
N860 C859 1.373 . S
N860 C862 1.340 . S
N861 C858 1.368 . S
N861 C862 1.321 . S
N861 Co864 2.135 . S
C862 N860 1.340 . S
C862 N861 1.321 . S
C862 H886 0.930 . S
H863 C858 0.931 . S
Co864 N861 2.135 . S
Co864 N867 2.121 . S
Co864 O872 2.055 . S
Co864 O875 2.039 . S
Co864 N878 2.140 . S
C865 O866 1.227 . S
C865 O875 1.265 . S
O866 C865 1.227 . S
N867 Co864 2.121 . S
N867 C869 1.375 . S
N867 C870 1.313 . S
C868 C869 1.338 . S
C868 N871 1.377 . S
C868 H888 0.930 . S
C869 N867 1.375 . S
C869 C868 1.338 . S
C869 H873 0.931 . S
C870 N867 1.313 . S
C870 N871 1.344 . S
C870 H874 0.930 . S
N871 C868 1.377 . S
N871 C870 1.344 . S
O872 Co864 2.055 . S
O872 C876 1.253 . S
H873 C869 0.931 . S
H874 C870 0.930 . S
O875 Co864 2.039 . S
O875 C865 1.265 . S
C876 O872 1.253 . S
C876 O877 1.227 . S
O877 C876 1.227 . S
N878 Co864 2.140 . S
N878 C881 1.346 . S
N878 C882 1.345 . S
C879 C880 1.387 . S
C879 C883 1.391 . S
C880 C879 1.387 . S
C880 C881 1.369 . S
C880 H889 0.929 . S
C881 N878 1.346 . S
C881 C880 1.369 . S
C881 H884 0.928 . S
C882 N878 1.345 . S
C882 C883 1.371 . S
C882 H885 0.931 . S
C883 C879 1.391 . S
C883 C882 1.371 . S
C883 H890 0.930 . S
H884 C881 0.928 . S
H885 C882 0.931 . S
H886 C862 0.930 . S
H887 C859 0.930 . S
H888 C868 0.930 . S
H889 C880 0.929 . S
H890 C883 0.930 . S
C891 C892 1.351 . S
C891 N894 1.368 . S
C891 H896 0.931 . S
C892 C891 1.351 . S
C892 N893 1.373 . S
C892 H920 0.930 . S
N893 C892 1.373 . S
N893 C895 1.340 . S
N894 C891 1.368 . S
N894 C895 1.321 . S
N894 Co897 2.135 . S
C895 N893 1.340 . S
C895 N894 1.321 . S
C895 H919 0.930 . S
H896 C891 0.931 . S
Co897 N894 2.135 . S
Co897 N900 2.121 . S
Co897 O905 2.055 . S
Co897 O908 2.039 . S
Co897 N911 2.140 . S
C898 O899 1.227 . S
C898 O908 1.265 . S
O899 C898 1.227 . S
N900 Co897 2.121 . S
N900 C902 1.375 . S
N900 C903 1.313 . S
C901 C902 1.338 . S
C901 N904 1.377 . S
C901 H921 0.930 . S
C902 N900 1.375 . S
C902 C901 1.338 . S
C902 H906 0.931 . S
C903 N900 1.313 . S
C903 N904 1.344 . S
C903 H907 0.930 . S
N904 C901 1.377 . S
N904 C903 1.344 . S
O905 Co897 2.055 . S
O905 C909 1.253 . S
H906 C902 0.931 . S
H907 C903 0.930 . S
O908 Co897 2.039 . S
O908 C898 1.265 . S
C909 O905 1.253 . S
C909 O910 1.227 . S
O910 C909 1.227 . S
N911 Co897 2.140 . S
N911 C914 1.346 . S
N911 C915 1.345 . S
C912 C913 1.387 . S
C912 C916 1.391 . S
C913 C912 1.387 . S
C913 C914 1.369 . S
C913 H922 0.929 . S
C914 N911 1.346 . S
C914 C913 1.369 . S
C914 H917 0.928 . S
C915 N911 1.345 . S
C915 C916 1.371 . S
C915 H918 0.931 . S
C916 C912 1.391 . S
C916 C915 1.371 . S
C916 H923 0.930 . S
H917 C914 0.928 . S
H918 C915 0.931 . S
H919 C895 0.930 . S
H920 C892 0.930 . S
H921 C901 0.930 . S
H922 C913 0.929 . S
H923 C916 0.930 . S
C924 C925 1.351 . S
C924 N927 1.368 . S
C924 H929 0.931 . S
C925 C924 1.351 . S
C925 N926 1.373 . S
C925 H953 0.930 . S
N926 C925 1.373 . S
N926 C928 1.340 . S
N927 C924 1.368 . S
N927 C928 1.321 . S
N927 Co930 2.135 . S
C928 N926 1.340 . S
C928 N927 1.321 . S
C928 H952 0.930 . S
H929 C924 0.931 . S
Co930 N927 2.135 . S
Co930 N933 2.121 . S
Co930 O938 2.055 . S
Co930 O941 2.039 . S
Co930 N944 2.140 . S
C931 O932 1.227 . S
C931 O941 1.265 . S
O932 C931 1.227 . S
N933 Co930 2.121 . S
N933 C935 1.375 . S
N933 C936 1.313 . S
C934 C935 1.338 . S
C934 N937 1.377 . S
C934 H954 0.930 . S
C935 N933 1.375 . S
C935 C934 1.338 . S
C935 H939 0.931 . S
C936 N933 1.313 . S
C936 N937 1.344 . S
C936 H940 0.930 . S
N937 C934 1.377 . S
N937 C936 1.344 . S
O938 Co930 2.055 . S
O938 C942 1.253 . S
H939 C935 0.931 . S
H940 C936 0.930 . S
O941 Co930 2.039 . S
O941 C931 1.265 . S
C942 O938 1.253 . S
C942 O943 1.227 . S
O943 C942 1.227 . S
N944 Co930 2.140 . S
N944 C947 1.346 . S
N944 C948 1.345 . S
C945 C946 1.387 . S
C945 C949 1.391 . S
C946 C945 1.387 . S
C946 C947 1.369 . S
C946 H955 0.929 . S
C947 N944 1.346 . S
C947 C946 1.369 . S
C947 H950 0.928 . S
C948 N944 1.345 . S
C948 C949 1.371 . S
C948 H951 0.931 . S
C949 C945 1.391 . S
C949 C948 1.371 . S
C949 H956 0.930 . S
H950 C947 0.928 . S
H951 C948 0.931 . S
H952 C928 0.930 . S
H953 C925 0.930 . S
H954 C934 0.930 . S
H955 C946 0.929 . S
H956 C949 0.930 . S
C957 C958 1.351 . S
C957 N960 1.368 . S
C957 H962 0.931 . S
C958 C957 1.351 . S
C958 N959 1.373 . S
C958 H986 0.930 . S
N959 C958 1.373 . S
N959 C961 1.340 . S
N960 C957 1.368 . S
N960 C961 1.321 . S
N960 Co963 2.135 . S
C961 N959 1.340 . S
C961 N960 1.321 . S
C961 H985 0.930 . S
H962 C957 0.931 . S
Co963 N960 2.135 . S
Co963 N966 2.121 . S
Co963 O971 2.055 . S
Co963 O974 2.039 . S
Co963 N977 2.140 . S
C964 O965 1.227 . S
C964 O974 1.265 . S
O965 C964 1.227 . S
N966 Co963 2.121 . S
N966 C968 1.375 . S
N966 C969 1.313 . S
C967 C968 1.338 . S
C967 N970 1.377 . S
C967 H987 0.930 . S
C968 N966 1.375 . S
C968 C967 1.338 . S
C968 H972 0.931 . S
C969 N966 1.313 . S
C969 N970 1.344 . S
C969 H973 0.930 . S
N970 C967 1.377 . S
N970 C969 1.344 . S
O971 Co963 2.055 . S
O971 C975 1.253 . S
H972 C968 0.931 . S
H973 C969 0.930 . S
O974 Co963 2.039 . S
O974 C964 1.265 . S
C975 O971 1.253 . S
C975 O976 1.227 . S
O976 C975 1.227 . S
N977 Co963 2.140 . S
N977 C980 1.346 . S
N977 C981 1.345 . S
C978 C979 1.387 . S
C978 C982 1.391 . S
C979 C978 1.387 . S
C979 C980 1.369 . S
C979 H988 0.929 . S
C980 N977 1.346 . S
C980 C979 1.369 . S
C980 H983 0.928 . S
C981 N977 1.345 . S
C981 C982 1.371 . S
C981 H984 0.931 . S
C982 C978 1.391 . S
C982 C981 1.371 . S
C982 H989 0.930 . S
H983 C980 0.928 . S
H984 C981 0.931 . S
H985 C961 0.930 . S
H986 C958 0.930 . S
H987 C967 0.930 . S
H988 C979 0.929 . S
H989 C982 0.930 . S
C990 C991 1.351 . S
C990 N993 1.368 . S
C990 H995 0.931 . S
C991 C990 1.351 . S
C991 N992 1.373 . S
C991 H1019 0.930 . S
N992 C991 1.373 . S
N992 C994 1.340 . S
N993 C990 1.368 . S
N993 C994 1.321 . S
N993 Co996 2.135 . S
C994 N992 1.340 . S
C994 N993 1.321 . S
C994 H1018 0.930 . S
H995 C990 0.931 . S
Co996 N993 2.135 . S
Co996 N999 2.121 . S
Co996 O1004 2.055 . S
Co996 O1007 2.039 . S
Co996 N1010 2.140 . S
C997 O998 1.227 . S
C997 O1007 1.265 . S
O998 C997 1.227 . S
N999 Co996 2.121 . S
N999 C1001 1.375 . S
N999 C1002 1.313 . S
C1000 C1001 1.338 . S
C1000 N1003 1.377 . S
C1000 H1020 0.930 . S
C1001 N999 1.375 . S
C1001 C1000 1.338 . S
C1001 H1005 0.931 . S
C1002 N999 1.313 . S
C1002 N1003 1.344 . S
C1002 H1006 0.930 . S
N1003 C1000 1.377 . S
N1003 C1002 1.344 . S
O1004 Co996 2.055 . S
O1004 C1008 1.253 . S
H1005 C1001 0.931 . S
H1006 C1002 0.930 . S
O1007 Co996 2.039 . S
O1007 C997 1.265 . S
C1008 O1004 1.253 . S
C1008 O1009 1.227 . S
O1009 C1008 1.227 . S
N1010 Co996 2.140 . S
N1010 C1013 1.346 . S
N1010 C1014 1.345 . S
C1011 C1012 1.387 . S
C1011 C1015 1.391 . S
C1012 C1011 1.387 . S
C1012 C1013 1.369 . S
C1012 H1021 0.929 . S
C1013 N1010 1.346 . S
C1013 C1012 1.369 . S
C1013 H1016 0.928 . S
C1014 N1010 1.345 . S
C1014 C1015 1.371 . S
C1014 H1017 0.931 . S
C1015 C1011 1.391 . S
C1015 C1014 1.371 . S
C1015 H1022 0.930 . S
H1016 C1013 0.928 . S
H1017 C1014 0.931 . S
H1018 C994 0.930 . S
H1019 C991 0.930 . S
H1020 C1000 0.930 . S
H1021 C1012 0.929 . S
H1022 C1015 0.930 . S
C1023 C1024 1.351 . S
C1023 N1026 1.368 . S
C1023 H1028 0.931 . S
C1024 C1023 1.351 . S
C1024 N1025 1.373 . S
C1024 H1052 0.930 . S
N1025 C1024 1.373 . S
N1025 C1027 1.340 . S
N1026 C1023 1.368 . S
N1026 C1027 1.321 . S
N1026 Co1029 2.135 . S
C1027 N1025 1.340 . S
C1027 N1026 1.321 . S
C1027 H1051 0.930 . S
H1028 C1023 0.931 . S
Co1029 N1026 2.135 . S
Co1029 N1032 2.121 . S
Co1029 O1037 2.055 . S
Co1029 O1040 2.039 . S
Co1029 N1043 2.140 . S
C1030 O1031 1.227 . S
C1030 O1040 1.265 . S
O1031 C1030 1.227 . S
N1032 Co1029 2.121 . S
N1032 C1034 1.375 . S
N1032 C1035 1.313 . S
C1033 C1034 1.338 . S
C1033 N1036 1.377 . S
C1033 H1053 0.930 . S
C1034 N1032 1.375 . S
C1034 C1033 1.338 . S
C1034 H1038 0.931 . S
C1035 N1032 1.313 . S
C1035 N1036 1.344 . S
C1035 H1039 0.930 . S
N1036 C1033 1.377 . S
N1036 C1035 1.344 . S
O1037 Co1029 2.055 . S
O1037 C1041 1.253 . S
H1038 C1034 0.931 . S
H1039 C1035 0.930 . S
O1040 Co1029 2.039 . S
O1040 C1030 1.265 . S
C1041 O1037 1.253 . S
C1041 O1042 1.227 . S
O1042 C1041 1.227 . S
N1043 Co1029 2.140 . S
N1043 C1046 1.346 . S
N1043 C1047 1.345 . S
C1044 C1045 1.387 . S
C1044 C1048 1.391 . S
C1045 C1044 1.387 . S
C1045 C1046 1.369 . S
C1045 H1054 0.929 . S
C1046 N1043 1.346 . S
C1046 C1045 1.369 . S
C1046 H1049 0.928 . S
C1047 N1043 1.345 . S
C1047 C1048 1.371 . S
C1047 H1050 0.931 . S
C1048 C1044 1.391 . S
C1048 C1047 1.371 . S
C1048 H1055 0.930 . S
H1049 C1046 0.928 . S
H1050 C1047 0.931 . S
H1051 C1027 0.930 . S
H1052 C1024 0.930 . S
H1053 C1033 0.930 . S
H1054 C1045 0.929 . S
H1055 C1048 0.930 . S
C1056 C1057 1.391 . S
C1056 C1058 1.394 . S
C1056 H1072 0.931 . S
C1057 C1056 1.391 . S
C1057 C1061 1.376 1_655 S
C1058 C1056 1.394 . S
C1058 C1059 1.369 . S
C1058 C1062 1.531 . S
C1059 C1058 1.369 . S
C1059 C1060 1.410 1_655 S
C1059 C1067 1.503 . S
C1060 C1059 1.410 1_455 S
C1060 C1061 1.392 . S
C1060 C1063 1.511 . S
C1061 C1057 1.376 1_455 S
C1061 C1060 1.392 . S
C1061 H1073 0.929 . S
C1062 C1058 1.531 . S
C1062 H1074 0.960 . S
C1062 H1075 0.962 . S
C1062 H1076 0.960 . S
C1063 C1060 1.511 . S
C1063 H1077 0.961 . S
C1063 H1078 0.961 . S
C1063 H1079 0.961 . S
C1064 C1065 1.370 . S
C1064 C1066 1.363 . S
C1064 H1080 0.931 . S
C1065 C1064 1.370 . S
C1065 C1069 1.408 1_655 S
C1066 C1064 1.363 . S
C1066 C1067 1.370 . S
C1066 C1070 1.524 . S
C1067 C1059 1.503 . S
C1067 C1066 1.370 . S
C1067 C1068 1.403 1_655 S
C1068 C1067 1.403 1_455 S
C1068 C1069 1.404 . S
C1068 C1071 1.539 . S
C1069 C1065 1.408 1_455 S
C1069 C1068 1.404 . S
C1069 H1081 0.930 . S
C1070 C1066 1.524 . S
C1070 H1082 0.956 . S
C1070 H1083 0.961 . S
C1070 H1084 0.961 . S
C1071 C1068 1.539 . S
C1071 H1085 0.958 . S
C1071 H1086 0.961 . S
C1071 H1087 0.960 . S
H1072 C1056 0.931 . S
H1073 C1061 0.929 . S
H1074 C1062 0.960 . S
H1075 C1062 0.962 . S
H1076 C1062 0.960 . S
H1077 C1063 0.961 . S
H1078 C1063 0.961 . S
H1079 C1063 0.961 . S
H1080 C1064 0.931 . S
H1081 C1069 0.930 . S
H1082 C1070 0.956 . S
H1083 C1070 0.961 . S
H1084 C1070 0.961 . S
H1085 C1071 0.958 . S
H1086 C1071 0.961 . S
H1087 C1071 0.960 . S
C1088 C1089 1.391 . S
C1088 C1090 1.394 . S
C1088 H1104 0.931 . S
C1089 C1088 1.391 . S
C1089 C1093 1.376 . S
C1090 C1088 1.394 . S
C1090 C1091 1.369 . S
C1090 C1094 1.531 . S
C1091 C1090 1.369 . S
C1091 C1092 1.410 . S
C1091 C1099 1.503 . S
C1092 C1091 1.410 . S
C1092 C1093 1.392 . S
C1092 C1095 1.511 . S
C1093 C1089 1.376 . S
C1093 C1092 1.392 . S
C1093 H1105 0.929 . S
C1094 C1090 1.531 . S
C1094 H1106 0.960 . S
C1094 H1107 0.962 . S
C1094 H1108 0.960 . S
C1095 C1092 1.511 . S
C1095 H1109 0.961 . S
C1095 H1110 0.961 . S
C1095 H1111 0.961 . S
C1096 C1097 1.370 . S
C1096 C1098 1.363 . S
C1096 H1112 0.931 . S
C1097 C1096 1.370 . S
C1097 C1101 1.408 . S
C1098 C1096 1.363 . S
C1098 C1099 1.370 . S
C1098 C1102 1.524 . S
C1099 C1091 1.503 . S
C1099 C1098 1.370 . S
C1099 C1100 1.403 . S
C1100 C1099 1.403 . S
C1100 C1101 1.404 . S
C1100 C1103 1.539 . S
C1101 C1097 1.408 . S
C1101 C1100 1.404 . S
C1101 H1113 0.930 . S
C1102 C1098 1.524 . S
C1102 H1114 0.956 . S
C1102 H1115 0.961 . S
C1102 H1116 0.961 . S
C1103 C1100 1.539 . S
C1103 H1117 0.958 . S
C1103 H1118 0.961 . S
C1103 H1119 0.960 . S
H1104 C1088 0.931 . S
H1105 C1093 0.929 . S
H1106 C1094 0.960 . S
H1107 C1094 0.962 . S
H1108 C1094 0.960 . S
H1109 C1095 0.961 . S
H1110 C1095 0.961 . S
H1111 C1095 0.961 . S
H1112 C1096 0.931 . S
H1113 C1101 0.930 . S
H1114 C1102 0.956 . S
H1115 C1102 0.961 . S
H1116 C1102 0.961 . S
H1117 C1103 0.958 . S
H1118 C1103 0.961 . S
H1119 C1103 0.960 . S
C1120 C1121 1.367 1_655 S
C1120 C1122 1.392 1_655 S
C1120 H1136 0.959 . S
C1121 C1120 1.367 1_455 S
C1121 C1125 1.376 . S
C1122 C1120 1.392 1_455 S
C1122 C1123 1.376 . S
C1122 C1126 1.525 1_455 S
C1123 C1122 1.376 . S
C1123 C1124 1.410 . S
C1123 C1131 1.503 . S
C1124 C1123 1.410 . S
C1124 C1125 1.392 . S
C1124 C1127 1.511 . S
C1125 C1121 1.376 . S
C1125 C1124 1.392 . S
C1125 H1137 0.929 . S
C1126 C1122 1.525 1_655 S
C1126 H1138 0.960 . S
C1126 H1139 0.962 . S
C1126 H1140 0.960 . S
C1127 C1124 1.511 . S
C1127 H1141 0.961 . S
C1127 H1142 0.961 . S
C1127 H1143 0.961 . S
C1128 C1129 1.370 1_655 S
C1128 C1130 1.363 . S
C1128 H1144 0.931 . S
C1129 C1128 1.370 1_455 S
C1129 C1133 1.408 . S
C1130 C1128 1.363 . S
C1130 C1131 1.370 1_655 S
C1130 C1134 1.524 . S
C1131 C1123 1.503 . S
C1131 C1130 1.370 1_455 S
C1131 C1132 1.403 . S
C1132 C1131 1.403 . S
C1132 C1133 1.404 . S
C1132 C1135 1.539 . S
C1133 C1129 1.408 . S
C1133 C1132 1.404 . S
C1133 H1145 0.930 . S
C1134 C1130 1.524 . S
C1134 H1146 0.956 . S
C1134 H1147 0.961 . S
C1134 H1148 0.961 . S
C1135 C1132 1.539 . S
C1135 H1149 0.958 . S
C1135 H1150 0.961 . S
C1135 H1151 0.960 . S
H1136 C1120 0.959 . S
H1137 C1125 0.929 . S
H1138 C1126 0.960 . S
H1139 C1126 0.962 . S
H1140 C1126 0.960 . S
H1141 C1127 0.961 . S
H1142 C1127 0.961 . S
H1143 C1127 0.961 . S
H1144 C1128 0.931 . S
H1145 C1133 0.930 . S
H1146 C1134 0.956 . S
H1147 C1134 0.961 . S
H1148 C1134 0.961 . S
H1149 C1135 0.958 . S
H1150 C1135 0.961 . S
H1151 C1135 0.960 . S
C1152 C1153 1.391 . S
C1152 C1154 1.394 . S
C1152 H1168 0.931 . S
C1153 C1152 1.391 . S
C1153 C1157 1.376 . S
C1154 C1152 1.394 . S
C1154 C1155 1.369 . S
C1154 C1158 1.531 . S
C1155 C1154 1.369 . S
C1155 C1156 1.410 . S
C1155 C1163 1.503 . S
C1156 C1155 1.410 . S
C1156 C1157 1.392 . S
C1156 C1159 1.511 . S
C1157 C1153 1.376 . S
C1157 C1156 1.392 . S
C1157 H1169 0.929 . S
C1158 C1154 1.531 . S
C1158 H1170 0.960 . S
C1158 H1171 0.962 . S
C1158 H1172 0.960 . S
C1159 C1156 1.511 . S
C1159 H1173 0.961 . S
C1159 H1174 0.961 . S
C1159 H1175 0.961 . S
C1160 C1161 1.370 . S
C1160 C1162 1.363 . S
C1160 H1176 0.931 . S
C1161 C1160 1.370 . S
C1161 C1165 1.408 . S
C1162 C1160 1.363 . S
C1162 C1163 1.370 . S
C1162 C1166 1.524 . S
C1163 C1155 1.503 . S
C1163 C1162 1.370 . S
C1163 C1164 1.403 . S
C1164 C1163 1.403 . S
C1164 C1165 1.404 . S
C1164 C1167 1.539 . S
C1165 C1161 1.408 . S
C1165 C1164 1.404 . S
C1165 H1177 0.930 . S
C1166 C1162 1.524 . S
C1166 H1178 0.956 . S
C1166 H1179 0.961 . S
C1166 H1180 0.961 . S
C1167 C1164 1.539 . S
C1167 H1181 0.958 . S
C1167 H1182 0.961 . S
C1167 H1183 0.960 . S
H1168 C1152 0.931 . S
H1169 C1157 0.929 . S
H1170 C1158 0.960 . S
H1171 C1158 0.962 . S
H1172 C1158 0.960 . S
H1173 C1159 0.961 . S
H1174 C1159 0.961 . S
H1175 C1159 0.961 . S
H1176 C1160 0.931 . S
H1177 C1165 0.930 . S
H1178 C1166 0.956 . S
H1179 C1166 0.961 . S
H1180 C1166 0.961 . S
H1181 C1167 0.958 . S
H1182 C1167 0.961 . S
H1183 C1167 0.960 . S
C1184 C1185 1.391 1_455 S
C1184 C1186 1.394 . S
C1184 H1200 0.931 . S
C1185 C1184 1.391 1_655 S
C1185 C1189 1.376 . S
C1186 C1184 1.394 . S
C1186 C1187 1.369 1_455 S
C1186 C1190 1.531 . S
C1187 C1186 1.369 1_655 S
C1187 C1188 1.410 . S
C1187 C1195 1.503 . S
C1188 C1187 1.410 . S
C1188 C1189 1.392 . S
C1188 C1191 1.511 . S
C1189 C1185 1.376 . S
C1189 C1188 1.392 . S
C1189 H1201 0.929 . S
C1190 C1186 1.531 . S
C1190 H1202 0.960 . S
C1190 H1203 0.962 . S
C1190 H1204 0.960 . S
C1191 C1188 1.511 . S
C1191 H1205 0.961 . S
C1191 H1206 0.961 . S
C1191 H1207 0.961 . S
C1192 C1193 1.370 . S
C1192 C1194 1.363 . S
C1192 H1208 0.931 1_554 S
C1193 C1192 1.370 . S
C1193 C1197 1.408 . S
C1194 C1192 1.363 . S
C1194 C1195 1.370 . S
C1194 C1198 1.524 . S
C1195 C1187 1.503 . S
C1195 C1194 1.370 . S
C1195 C1196 1.403 . S
C1196 C1195 1.403 . S
C1196 C1197 1.404 . S
C1196 C1199 1.539 . S
C1197 C1193 1.408 . S
C1197 C1196 1.404 . S
C1197 H1209 0.930 . S
C1198 C1194 1.524 . S
C1198 H1210 0.956 1_655 S
C1198 H1211 0.961 . S
C1198 H1212 0.961 . S
C1199 C1196 1.539 . S
C1199 H1213 0.958 1_655 S
C1199 H1214 0.961 . S
C1199 H1215 0.960 . S
H1200 C1184 0.931 . S
H1201 C1189 0.929 . S
H1202 C1190 0.960 . S
H1203 C1190 0.962 . S
H1204 C1190 0.960 . S
H1205 C1191 0.961 . S
H1206 C1191 0.961 . S
H1207 C1191 0.961 . S
H1208 C1192 0.931 1_556 S
H1209 C1197 0.930 . S
H1210 C1198 0.956 1_455 S
H1211 C1198 0.961 . S
H1212 C1198 0.961 . S
H1213 C1199 0.958 1_455 S
H1214 C1199 0.961 . S
H1215 C1199 0.960 . S
C1216 C1217 1.391 . S
C1216 C1218 1.394 . S
C1216 H1232 0.931 . S
C1217 C1216 1.391 . S
C1217 C1221 1.376 . S
C1218 C1216 1.394 . S
C1218 C1219 1.369 . S
C1218 C1222 1.531 . S
C1219 C1218 1.369 . S
C1219 C1220 1.410 . S
C1219 C1227 1.503 . S
C1220 C1219 1.410 . S
C1220 C1221 1.392 . S
C1220 C1223 1.511 . S
C1221 C1217 1.376 . S
C1221 C1220 1.392 . S
C1221 H1233 0.929 . S
C1222 C1218 1.531 . S
C1222 H1234 0.960 . S
C1222 H1235 0.962 . S
C1222 H1236 0.960 . S
C1223 C1220 1.511 . S
C1223 H1237 0.961 . S
C1223 H1238 0.961 . S
C1223 H1239 0.961 . S
C1224 C1225 1.370 . S
C1224 C1226 1.363 . S
C1224 H1240 0.931 . S
C1225 C1224 1.370 . S
C1225 C1229 1.408 . S
C1226 C1224 1.363 . S
C1226 C1227 1.370 . S
C1226 C1230 1.524 . S
C1227 C1219 1.503 . S
C1227 C1226 1.370 . S
C1227 C1228 1.403 . S
C1228 C1227 1.403 . S
C1228 C1229 1.404 . S
C1228 C1231 1.539 . S
C1229 C1225 1.408 . S
C1229 C1228 1.404 . S
C1229 H1241 0.930 . S
C1230 C1226 1.524 . S
C1230 H1242 0.956 . S
C1230 H1243 0.961 . S
C1230 H1244 0.961 . S
C1231 C1228 1.539 . S
C1231 H1245 0.958 . S
C1231 H1246 0.961 . S
C1231 H1247 0.960 . S
H1232 C1216 0.931 . S
H1233 C1221 0.929 . S
H1234 C1222 0.960 . S
H1235 C1222 0.962 . S
H1236 C1222 0.960 . S
H1237 C1223 0.961 . S
H1238 C1223 0.961 . S
H1239 C1223 0.961 . S
H1240 C1224 0.931 . S
H1241 C1229 0.930 . S
H1242 C1230 0.956 . S
H1243 C1230 0.961 . S
H1244 C1230 0.961 . S
H1245 C1231 0.958 . S
H1246 C1231 0.961 . S
H1247 C1231 0.960 . S
C1248 C1249 1.391 1_655 S
C1248 C1250 1.394 . S
C1248 H1264 0.931 . S
C1249 C1248 1.391 1_455 S
C1249 C1253 1.376 . S
C1250 C1248 1.394 . S
C1250 C1251 1.369 1_655 S
C1250 C1254 1.531 . S
C1251 C1250 1.369 1_455 S
C1251 C1252 1.410 . S
C1251 C1259 1.503 . S
C1252 C1251 1.410 . S
C1252 C1253 1.392 . S
C1252 C1255 1.511 . S
C1253 C1249 1.376 . S
C1253 C1252 1.392 . S
C1253 H1265 0.929 . S
C1254 C1250 1.531 . S
C1254 H1266 0.960 . S
C1254 H1267 0.962 . S
C1254 H1268 0.960 . S
C1255 C1252 1.511 . S
C1255 H1269 0.961 . S
C1255 H1270 0.961 . S
C1255 H1271 0.961 . S
C1256 C1257 1.370 . S
C1256 C1258 1.363 . S
C1256 H1272 0.931 1_455 S
C1257 C1256 1.370 . S
C1257 C1261 1.408 . S
C1258 C1256 1.363 . S
C1258 C1259 1.370 . S
C1258 C1262 1.524 1_455 S
C1259 C1251 1.503 . S
C1259 C1258 1.370 . S
C1259 C1260 1.403 . S
C1260 C1259 1.403 . S
C1260 C1261 1.404 . S
C1260 C1263 1.539 . S
C1261 C1257 1.408 . S
C1261 C1260 1.404 . S
C1261 H1273 0.930 . S
C1262 C1258 1.524 1_655 S
C1262 H1274 0.956 . S
C1262 H1275 0.961 1_655 S
C1262 H1276 0.961 . S
C1263 C1260 1.539 . S
C1263 H1277 0.958 . S
C1263 H1278 0.961 . S
C1263 H1279 0.960 . S
H1264 C1248 0.931 . S
H1265 C1253 0.929 . S
H1266 C1254 0.960 . S
H1267 C1254 0.962 . S
H1268 C1254 0.960 . S
H1269 C1255 0.961 . S
H1270 C1255 0.961 . S
H1271 C1255 0.961 . S
H1272 C1256 0.931 1_655 S
H1273 C1261 0.930 . S
H1274 C1262 0.956 . S
H1275 C1262 0.961 1_455 S
H1276 C1262 0.961 . S
H1277 C1263 0.958 . S
H1278 C1263 0.961 . S
H1279 C1263 0.960 . S
C1280 C1281 1.395 . S
C1280 C1282 1.394 . S
C1280 H1296 0.931 1_556 S
C1281 C1280 1.395 . S
C1281 C1285 1.385 . S
C1282 C1280 1.394 . S
C1282 C1283 1.369 . S
C1282 C1286 1.531 . S
C1283 C1282 1.369 . S
C1283 C1284 1.410 . S
C1283 C1291 1.503 . S
C1284 C1283 1.410 . S
C1284 C1285 1.392 . S
C1284 C1287 1.511 . S
C1285 C1281 1.385 . S
C1285 C1284 1.392 . S
C1285 H1297 0.929 . S
C1286 C1282 1.531 . S
C1286 H1298 0.960 . S
C1286 H1299 0.962 . S
C1286 H1300 0.960 . S
C1287 C1284 1.511 . S
C1287 H1301 0.961 . S
C1287 H1302 0.961 . S
C1287 H1303 0.961 . S
C1288 C1289 1.370 . S
C1288 C1290 1.363 . S
C1288 H1304 0.931 . S
C1289 C1288 1.370 . S
C1289 C1293 1.408 . S
C1290 C1288 1.363 . S
C1290 C1291 1.370 . S
C1290 C1294 1.524 . S
C1291 C1283 1.503 . S
C1291 C1290 1.370 . S
C1291 C1292 1.403 . S
C1292 C1291 1.403 . S
C1292 C1293 1.404 . S
C1292 C1295 1.539 . S
C1293 C1289 1.408 . S
C1293 C1292 1.404 . S
C1293 H1305 0.930 . S
C1294 C1290 1.524 . S
C1294 H1306 0.956 . S
C1294 H1307 0.961 . S
C1294 H1308 0.961 . S
C1295 C1292 1.539 . S
C1295 H1309 0.958 . S
C1295 H1310 0.961 . S
C1295 H1311 0.960 . S
H1296 C1280 0.931 1_554 S
H1297 C1285 0.929 . S
H1298 C1286 0.960 . S
H1299 C1286 0.962 . S
H1300 C1286 0.960 . S
H1301 C1287 0.961 . S
H1302 C1287 0.961 . S
H1303 C1287 0.961 . S
H1304 C1288 0.931 . S
H1305 C1293 0.930 . S
H1306 C1294 0.956 . S
H1307 C1294 0.961 . S
H1308 C1294 0.961 . S
H1309 C1295 0.958 . S
H1310 C1295 0.961 . S
H1311 C1295 0.960 . S
C1312 C1313 1.391 . S
C1312 C1314 1.394 . S
C1312 H1328 0.931 . S
C1313 C1312 1.391 . S
C1313 C1317 1.376 . S
C1314 C1312 1.394 . S
C1314 C1315 1.369 . S
C1314 C1318 1.531 . S
C1315 C1314 1.369 . S
C1315 C1316 1.410 . S
C1315 C1323 1.503 . S
C1316 C1315 1.410 . S
C1316 C1317 1.392 . S
C1316 C1319 1.511 . S
C1317 C1313 1.376 . S
C1317 C1316 1.392 . S
C1317 H1329 0.929 . S
C1318 C1314 1.531 . S
C1318 H1330 0.960 . S
C1318 H1331 0.962 . S
C1318 H1332 0.960 . S
C1319 C1316 1.511 . S
C1319 H1333 0.961 . S
C1319 H1334 0.961 . S
C1319 H1335 0.961 . S
C1320 C1321 1.370 . S
C1320 C1322 1.363 . S
C1320 H1336 0.931 1_554 S
C1321 C1320 1.370 . S
C1321 C1325 1.408 . S
C1322 C1320 1.363 . S
C1322 C1323 1.370 . S
C1322 C1326 1.524 . S
C1323 C1315 1.503 . S
C1323 C1322 1.370 . S
C1323 C1324 1.403 . S
C1324 C1323 1.403 . S
C1324 C1325 1.404 . S
C1324 C1327 1.539 . S
C1325 C1321 1.408 . S
C1325 C1324 1.404 . S
C1325 H1337 0.930 . S
C1326 C1322 1.524 . S
C1326 H1338 0.956 . S
C1326 H1339 0.961 . S
C1326 H1340 0.961 . S
C1327 C1324 1.539 . S
C1327 H1341 0.958 . S
C1327 H1342 0.961 . S
C1327 H1343 0.960 . S
H1328 C1312 0.931 . S
H1329 C1317 0.929 . S
H1330 C1318 0.960 . S
H1331 C1318 0.962 . S
H1332 C1318 0.960 . S
H1333 C1319 0.961 . S
H1334 C1319 0.961 . S
H1335 C1319 0.961 . S
H1336 C1320 0.931 1_556 S
H1337 C1325 0.930 . S
H1338 C1326 0.956 . S
H1339 C1326 0.961 . S
H1340 C1326 0.961 . S
H1341 C1327 0.958 . S
H1342 C1327 0.961 . S
H1343 C1327 0.960 . S
C1344 C1345 1.391 . S
C1344 C1346 1.394 . S
C1344 H1360 0.931 . S
C1345 C1344 1.391 . S
C1345 C1349 1.376 . S
C1346 C1344 1.394 . S
C1346 C1347 1.369 . S
C1346 C1350 1.531 . S
C1347 C1346 1.369 . S
C1347 C1348 1.410 . S
C1347 C1355 1.503 . S
C1348 C1347 1.410 . S
C1348 C1349 1.392 . S
C1348 C1351 1.511 . S
C1349 C1345 1.376 . S
C1349 C1348 1.392 . S
C1349 H1361 0.929 . S
C1350 C1346 1.531 . S
C1350 H1362 0.960 . S
C1350 H1363 0.962 . S
C1350 H1364 0.960 . S
C1351 C1348 1.511 . S
C1351 H1365 0.961 . S
C1351 H1366 0.961 . S
C1351 H1367 0.961 . S
C1352 C1353 1.370 . S
C1352 C1354 1.363 . S
C1352 H1368 0.931 1_554 S
C1353 C1352 1.370 . S
C1353 C1357 1.408 . S
C1354 C1352 1.363 . S
C1354 C1355 1.370 . S
C1354 C1358 1.524 . S
C1355 C1347 1.503 . S
C1355 C1354 1.370 . S
C1355 C1356 1.403 . S
C1356 C1355 1.403 . S
C1356 C1357 1.404 . S
C1356 C1359 1.539 . S
C1357 C1353 1.408 . S
C1357 C1356 1.404 . S
C1357 H1369 0.930 . S
C1358 C1354 1.524 . S
C1358 H1370 0.956 . S
C1358 H1371 0.961 . S
C1358 H1372 0.961 . S
C1359 C1356 1.539 . S
C1359 H1373 0.958 . S
C1359 H1374 0.961 . S
C1359 H1375 0.960 . S
H1360 C1344 0.931 . S
H1361 C1349 0.929 . S
H1362 C1350 0.960 . S
H1363 C1350 0.962 . S
H1364 C1350 0.960 . S
H1365 C1351 0.961 . S
H1366 C1351 0.961 . S
H1367 C1351 0.961 . S
H1368 C1352 0.931 1_556 S
H1369 C1357 0.930 . S
H1370 C1358 0.956 . S
H1371 C1358 0.961 . S
H1372 C1358 0.961 . S
H1373 C1359 0.958 . S
H1374 C1359 0.961 . S
H1375 C1359 0.960 . S
C1376 C1377 1.391 . S
C1376 C1378 1.394 . S
C1376 H1392 0.931 . S
C1377 C1376 1.391 . S
C1377 C1381 1.376 . S
C1378 C1376 1.394 . S
C1378 C1379 1.369 . S
C1378 C1382 1.531 . S
C1379 C1378 1.369 . S
C1379 C1380 1.410 . S
C1379 C1387 1.503 . S
C1380 C1379 1.410 . S
C1380 C1381 1.392 . S
C1380 C1383 1.511 . S
C1381 C1377 1.376 . S
C1381 C1380 1.392 . S
C1381 H1393 0.929 1_556 S
C1382 C1378 1.531 . S
C1382 H1394 0.960 . S
C1382 H1395 0.962 . S
C1382 H1396 0.960 . S
C1383 C1380 1.511 . S
C1383 H1397 0.961 . S
C1383 H1398 0.961 . S
C1383 H1399 0.961 . S
C1384 C1385 1.370 . S
C1384 C1386 1.363 . S
C1384 H1400 0.931 . S
C1385 C1384 1.370 . S
C1385 C1389 1.408 . S
C1386 C1384 1.363 . S
C1386 C1387 1.370 . S
C1386 C1390 1.524 . S
C1387 C1379 1.503 . S
C1387 C1386 1.370 . S
C1387 C1388 1.403 . S
C1388 C1387 1.403 . S
C1388 C1389 1.404 . S
C1388 C1391 1.539 . S
C1389 C1385 1.408 . S
C1389 C1388 1.404 . S
C1389 H1401 0.930 . S
C1390 C1386 1.524 . S
C1390 H1402 0.956 . S
C1390 H1403 0.961 . S
C1390 H1404 0.961 . S
C1391 C1388 1.539 . S
C1391 H1405 0.958 . S
C1391 H1406 0.961 . S
C1391 H1407 0.960 . S
H1392 C1376 0.931 . S
H1393 C1381 0.929 1_554 S
H1394 C1382 0.960 . S
H1395 C1382 0.962 . S
H1396 C1382 0.960 . S
H1397 C1383 0.961 . S
H1398 C1383 0.961 . S
H1399 C1383 0.961 . S
H1400 C1384 0.931 . S
H1401 C1389 0.930 . S
H1402 C1390 0.956 . S
H1403 C1390 0.961 . S
H1404 C1390 0.961 . S
H1405 C1391 0.958 . S
H1406 C1391 0.961 . S
H1407 C1391 0.960 . S
C1408 C1409 1.391 . S
C1408 C1410 1.394 . S
C1408 H1424 0.931 . S
C1409 C1408 1.391 . S
C1409 C1413 1.376 . S
C1410 C1408 1.394 . S
C1410 C1411 1.369 . S
C1410 C1414 1.531 . S
C1411 C1410 1.369 . S
C1411 C1412 1.410 . S
C1411 C1419 1.503 . S
C1412 C1411 1.410 . S
C1412 C1413 1.392 . S
C1412 C1415 1.511 . S
C1413 C1409 1.376 . S
C1413 C1412 1.392 . S
C1413 H1425 0.929 . S
C1414 C1410 1.531 . S
C1414 H1426 0.960 . S
C1414 H1427 0.962 . S
C1414 H1428 0.960 . S
C1415 C1412 1.511 . S
C1415 H1429 0.961 . S
C1415 H1430 0.961 . S
C1415 H1431 0.961 . S
C1416 C1417 1.370 . S
C1416 C1418 1.363 . S
C1416 H1432 0.931 . S
C1417 C1416 1.370 . S
C1417 C1421 1.408 . S
C1418 C1416 1.363 . S
C1418 C1419 1.370 . S
C1418 C1422 1.524 . S
C1419 C1411 1.503 . S
C1419 C1418 1.370 . S
C1419 C1420 1.403 . S
C1420 C1419 1.403 . S
C1420 C1421 1.404 . S
C1420 C1423 1.539 . S
C1421 C1417 1.408 . S
C1421 C1420 1.404 . S
C1421 H1433 0.930 1_556 S
C1422 C1418 1.524 . S
C1422 H1434 0.956 . S
C1422 H1435 0.961 . S
C1422 H1436 0.961 . S
C1423 C1420 1.539 . S
C1423 H1437 0.958 . S
C1423 H1438 0.961 . S
C1423 H1439 0.960 . S
H1424 C1408 0.931 . S
H1425 C1413 0.929 . S
H1426 C1414 0.960 . S
H1427 C1414 0.962 . S
H1428 C1414 0.960 . S
H1429 C1415 0.961 . S
H1430 C1415 0.961 . S
H1431 C1415 0.961 . S
H1432 C1416 0.931 . S
H1433 C1421 0.930 1_554 S
H1434 C1422 0.956 . S
H1435 C1422 0.961 . S
H1436 C1422 0.961 . S
H1437 C1423 0.958 . S
H1438 C1423 0.961 . S
H1439 C1423 0.960 . S
C1440 C1441 1.391 . S
C1440 C1442 1.394 . S
C1440 H1456 0.931 . S
C1441 C1440 1.391 . S
C1441 C1445 1.376 . S
C1442 C1440 1.394 . S
C1442 C1443 1.369 . S
C1442 C1446 1.531 . S
C1443 C1442 1.369 . S
C1443 C1444 1.410 . S
C1443 C1451 1.503 . S
C1444 C1443 1.410 . S
C1444 C1445 1.392 . S
C1444 C1447 1.511 . S
C1445 C1441 1.376 . S
C1445 C1444 1.392 . S
C1445 H1457 0.929 . S
C1446 C1442 1.531 . S
C1446 H1458 0.960 . S
C1446 H1459 0.962 . S
C1446 H1460 0.960 . S
C1447 C1444 1.511 . S
C1447 H1461 0.961 . S
C1447 H1462 0.961 . S
C1447 H1463 0.961 . S
C1448 C1449 1.370 . S
C1448 C1450 1.363 . S
C1448 H1464 0.931 . S
C1449 C1448 1.370 . S
C1449 C1453 1.408 . S
C1450 C1448 1.363 . S
C1450 C1451 1.370 . S
C1450 C1454 1.524 . S
C1451 C1443 1.503 . S
C1451 C1450 1.370 . S
C1451 C1452 1.403 . S
C1452 C1451 1.403 . S
C1452 C1453 1.404 . S
C1452 C1455 1.539 . S
C1453 C1449 1.408 . S
C1453 C1452 1.404 . S
C1453 H1465 0.930 . S
C1454 C1450 1.524 . S
C1454 H1466 0.956 . S
C1454 H1467 0.961 . S
C1454 H1468 0.961 . S
C1455 C1452 1.539 . S
C1455 H1469 0.958 . S
C1455 H1470 0.961 . S
C1455 H1471 0.960 . S
H1456 C1440 0.931 . S
H1457 C1445 0.929 . S
H1458 C1446 0.960 . S
H1459 C1446 0.962 . S
H1460 C1446 0.960 . S
H1461 C1447 0.961 . S
H1462 C1447 0.961 . S
H1463 C1447 0.961 . S
H1464 C1448 0.931 . S
H1465 C1453 0.930 . S
H1466 C1454 0.956 . S
H1467 C1454 0.961 . S
H1468 C1454 0.961 . S
H1469 C1455 0.958 . S
H1470 C1455 0.961 . S
H1471 C1455 0.960 . S
C1472 C1473 1.391 . S
C1472 C1474 1.394 . S
C1472 H1488 0.931 . S
C1473 C1472 1.391 . S
C1473 C1477 1.376 . S
C1474 C1472 1.394 . S
C1474 C1475 1.369 . S
C1474 C1478 1.531 . S
C1475 C1474 1.369 . S
C1475 C1476 1.410 . S
C1475 C1483 1.503 . S
C1476 C1475 1.410 . S
C1476 C1477 1.392 . S
C1476 C1479 1.511 . S
C1477 C1473 1.376 . S
C1477 C1476 1.392 . S
C1477 H1489 0.929 . S
C1478 C1474 1.531 . S
C1478 H1490 0.960 . S
C1478 H1491 0.962 . S
C1478 H1492 0.960 . S
C1479 C1476 1.511 . S
C1479 H1493 0.961 . S
C1479 H1494 0.961 . S
C1479 H1495 0.961 . S
C1480 C1481 1.370 . S
C1480 C1482 1.363 . S
C1480 H1496 0.931 . S
C1481 C1480 1.370 . S
C1481 C1485 1.408 . S
C1482 C1480 1.363 . S
C1482 C1483 1.370 . S
C1482 C1486 1.524 . S
C1483 C1475 1.503 . S
C1483 C1482 1.370 . S
C1483 C1484 1.403 . S
C1484 C1483 1.403 . S
C1484 C1485 1.404 . S
C1484 C1487 1.539 . S
C1485 C1481 1.408 . S
C1485 C1484 1.404 . S
C1485 H1497 0.930 . S
C1486 C1482 1.524 . S
C1486 H1498 0.956 . S
C1486 H1499 0.961 . S
C1486 H1500 0.961 . S
C1487 C1484 1.539 . S
C1487 H1501 0.958 . S
C1487 H1502 0.961 . S
C1487 H1503 0.960 . S
H1488 C1472 0.931 . S
H1489 C1477 0.929 . S
H1490 C1478 0.960 . S
H1491 C1478 0.962 . S
H1492 C1478 0.960 . S
H1493 C1479 0.961 . S
H1494 C1479 0.961 . S
H1495 C1479 0.961 . S
H1496 C1480 0.931 . S
H1497 C1485 0.930 . S
H1498 C1486 0.956 . S
H1499 C1486 0.961 . S
H1500 C1486 0.961 . S
H1501 C1487 0.958 . S
H1502 C1487 0.961 . S
H1503 C1487 0.960 . S
C1504 C1505 1.391 . S
C1504 C1506 1.394 . S
C1504 H1520 0.931 . S
C1505 C1504 1.391 . S
C1505 C1509 1.376 . S
C1506 C1504 1.394 . S
C1506 C1507 1.369 . S
C1506 C1510 1.531 . S
C1507 C1506 1.369 . S
C1507 C1508 1.410 . S
C1507 C1515 1.503 . S
C1508 C1507 1.410 . S
C1508 C1509 1.392 . S
C1508 C1511 1.511 . S
C1509 C1505 1.376 . S
C1509 C1508 1.392 . S
C1509 H1521 0.929 . S
C1510 C1506 1.531 . S
C1510 H1522 0.960 . S
C1510 H1523 0.962 . S
C1510 H1524 0.960 . S
C1511 C1508 1.511 . S
C1511 H1525 0.961 . S
C1511 H1526 0.961 . S
C1511 H1527 0.961 . S
C1512 C1513 1.370 . S
C1512 C1514 1.363 . S
C1512 H1528 0.931 . S
C1513 C1512 1.370 . S
C1513 C1517 1.408 . S
C1514 C1512 1.363 . S
C1514 C1515 1.370 . S
C1514 C1518 1.524 . S
C1515 C1507 1.503 . S
C1515 C1514 1.370 . S
C1515 C1516 1.403 . S
C1516 C1515 1.403 . S
C1516 C1517 1.404 . S
C1516 C1519 1.539 . S
C1517 C1513 1.408 . S
C1517 C1516 1.404 . S
C1517 H1529 0.930 . S
C1518 C1514 1.524 . S
C1518 H1530 0.956 . S
C1518 H1531 0.961 . S
C1518 H1532 0.961 . S
C1519 C1516 1.539 . S
C1519 H1533 0.958 . S
C1519 H1534 0.961 . S
C1519 H1535 0.960 . S
H1520 C1504 0.931 . S
H1521 C1509 0.929 . S
H1522 C1510 0.960 . S
H1523 C1510 0.962 . S
H1524 C1510 0.960 . S
H1525 C1511 0.961 . S
H1526 C1511 0.961 . S
H1527 C1511 0.961 . S
H1528 C1512 0.931 . S
H1529 C1517 0.930 . S
H1530 C1518 0.956 . S
H1531 C1518 0.961 . S
H1532 C1518 0.961 . S
H1533 C1519 0.958 . S
H1534 C1519 0.961 . S
H1535 C1519 0.960 . S
C1536 C1537 1.391 . S
C1536 C1538 1.394 . S
C1536 H1552 0.931 . S
C1537 C1536 1.391 . S
C1537 C1541 1.376 . S
C1538 C1536 1.394 . S
C1538 C1539 1.369 . S
C1538 C1542 1.531 . S
C1539 C1538 1.369 . S
C1539 C1540 1.410 . S
C1539 C1547 1.503 . S
C1540 C1539 1.410 . S
C1540 C1541 1.392 . S
C1540 C1543 1.511 . S
C1541 C1537 1.376 . S
C1541 C1540 1.392 . S
C1541 H1553 0.929 . S
C1542 C1538 1.531 . S
C1542 H1554 0.960 . S
C1542 H1555 0.962 . S
C1542 H1556 0.960 . S
C1543 C1540 1.511 . S
C1543 H1557 0.961 . S
C1543 H1558 0.961 . S
C1543 H1559 0.961 . S
C1544 C1545 1.370 . S
C1544 C1546 1.363 . S
C1544 H1560 0.931 . S
C1545 C1544 1.370 . S
C1545 C1549 1.408 . S
C1546 C1544 1.363 . S
C1546 C1547 1.370 . S
C1546 C1550 1.524 . S
C1547 C1539 1.503 . S
C1547 C1546 1.370 . S
C1547 C1548 1.403 . S
C1548 C1547 1.403 . S
C1548 C1549 1.404 . S
C1548 C1551 1.539 . S
C1549 C1545 1.408 . S
C1549 C1548 1.404 . S
C1549 H1561 0.930 . S
C1550 C1546 1.524 . S
C1550 H1562 0.956 . S
C1550 H1563 0.961 . S
C1550 H1564 0.961 . S
C1551 C1548 1.539 . S
C1551 H1565 0.958 . S
C1551 H1566 0.961 . S
C1551 H1567 0.960 . S
H1552 C1536 0.931 . S
H1553 C1541 0.929 . S
H1554 C1542 0.960 . S
H1555 C1542 0.962 . S
H1556 C1542 0.960 . S
H1557 C1543 0.961 . S
H1558 C1543 0.961 . S
H1559 C1543 0.961 . S
H1560 C1544 0.931 . S
H1561 C1549 0.930 . S
H1562 C1550 0.956 . S
H1563 C1550 0.961 . S
H1564 C1550 0.961 . S
H1565 C1551 0.958 . S
H1566 C1551 0.961 . S
H1567 C1551 0.960 . S
C1568 C1569 1.391 . S
C1568 C1570 1.394 . S
C1568 H1584 0.931 . S
C1569 C1568 1.391 . S
C1569 C1573 1.376 . S
C1570 C1568 1.394 . S
C1570 C1571 1.369 . S
C1570 C1574 1.531 . S
C1571 C1570 1.369 . S
C1571 C1572 1.410 . S
C1571 C1579 1.503 . S
C1572 C1571 1.410 . S
C1572 C1573 1.392 . S
C1572 C1575 1.511 . S
C1573 C1569 1.376 . S
C1573 C1572 1.392 . S
C1573 H1585 0.929 . S
C1574 C1570 1.531 . S
C1574 H1586 0.960 . S
C1574 H1587 0.962 . S
C1574 H1588 0.960 . S
C1575 C1572 1.511 . S
C1575 H1589 0.961 . S
C1575 H1590 0.961 . S
C1575 H1591 0.961 . S
C1576 C1577 1.370 . S
C1576 C1578 1.363 . S
C1576 H1592 0.931 . S
C1577 C1576 1.370 . S
C1577 C1581 1.408 . S
C1578 C1576 1.363 . S
C1578 C1579 1.370 . S
C1578 C1582 1.524 . S
C1579 C1571 1.503 . S
C1579 C1578 1.370 . S
C1579 C1580 1.403 . S
C1580 C1579 1.403 . S
C1580 C1581 1.404 . S
C1580 C1583 1.539 . S
C1581 C1577 1.408 . S
C1581 C1580 1.404 . S
C1581 H1593 0.930 . S
C1582 C1578 1.524 . S
C1582 H1594 0.956 . S
C1582 H1595 0.961 . S
C1582 H1596 0.961 . S
C1583 C1580 1.539 . S
C1583 H1597 0.958 . S
C1583 H1598 0.961 . S
C1583 H1599 0.960 . S
H1584 C1568 0.931 . S
H1585 C1573 0.929 . S
H1586 C1574 0.960 . S
H1587 C1574 0.962 . S
H1588 C1574 0.960 . S
H1589 C1575 0.961 . S
H1590 C1575 0.961 . S
H1591 C1575 0.961 . S
H1592 C1576 0.931 . S
H1593 C1581 0.930 . S
H1594 C1582 0.956 . S
H1595 C1582 0.961 . S
H1596 C1582 0.961 . S
H1597 C1583 0.958 . S
H1598 C1583 0.961 . S
H1599 C1583 0.960 . S
C1600 C1601 1.391 . S
C1600 C1602 1.394 . S
C1600 H1616 0.931 . S
C1601 C1600 1.391 . S
C1601 C1605 1.376 . S
C1602 C1600 1.394 . S
C1602 C1603 1.369 . S
C1602 C1606 1.531 . S
C1603 C1602 1.369 . S
C1603 C1604 1.410 . S
C1603 C1611 1.503 . S
C1604 C1603 1.410 . S
C1604 C1605 1.392 . S
C1604 C1607 1.511 . S
C1605 C1601 1.376 . S
C1605 C1604 1.392 . S
C1605 H1617 0.929 . S
C1606 C1602 1.531 . S
C1606 H1618 0.960 . S
C1606 H1619 0.962 . S
C1606 H1620 0.960 . S
C1607 C1604 1.511 . S
C1607 H1621 0.961 . S
C1607 H1622 0.961 . S
C1607 H1623 0.961 . S
C1608 C1609 1.370 . S
C1608 C1610 1.363 . S
C1608 H1624 0.931 . S
C1609 C1608 1.370 . S
C1609 C1613 1.408 . S
C1610 C1608 1.363 . S
C1610 C1611 1.370 . S
C1610 C1614 1.524 . S
C1611 C1603 1.503 . S
C1611 C1610 1.370 . S
C1611 C1612 1.403 . S
C1612 C1611 1.403 . S
C1612 C1613 1.404 . S
C1612 C1615 1.539 . S
C1613 C1609 1.408 . S
C1613 C1612 1.404 . S
C1613 H1625 0.930 . S
C1614 C1610 1.524 . S
C1614 H1626 0.956 . S
C1614 H1627 0.961 . S
C1614 H1628 0.961 . S
C1615 C1612 1.539 . S
C1615 H1629 0.958 . S
C1615 H1630 0.961 . S
C1615 H1631 0.960 . S
H1616 C1600 0.931 . S
H1617 C1605 0.929 . S
H1618 C1606 0.960 . S
H1619 C1606 0.962 . S
H1620 C1606 0.960 . S
H1621 C1607 0.961 . S
H1622 C1607 0.961 . S
H1623 C1607 0.961 . S
H1624 C1608 0.931 . S
H1625 C1613 0.930 . S
H1626 C1614 0.956 . S
H1627 C1614 0.961 . S
H1628 C1614 0.961 . S
H1629 C1615 0.958 . S
H1630 C1615 0.961 . S
H1631 C1615 0.960 . S
C1632 C1633 1.391 . S
C1632 C1634 1.394 . S
C1632 H1648 0.931 . S
C1633 C1632 1.391 . S
C1633 C1637 1.376 . S
C1634 C1632 1.394 . S
C1634 C1635 1.369 . S
C1634 C1638 1.531 . S
C1635 C1634 1.369 . S
C1635 C1636 1.410 . S
C1635 C1643 1.503 . S
C1636 C1635 1.410 . S
C1636 C1637 1.392 . S
C1636 C1639 1.511 . S
C1637 C1633 1.376 . S
C1637 C1636 1.392 . S
C1637 H1649 0.929 . S
C1638 C1634 1.531 . S
C1638 H1650 0.960 . S
C1638 H1651 0.962 . S
C1638 H1652 0.960 . S
C1639 C1636 1.511 . S
C1639 H1653 0.961 . S
C1639 H1654 0.961 . S
C1639 H1655 0.961 . S
C1640 C1641 1.370 . S
C1640 C1642 1.363 . S
C1640 H1656 0.931 . S
C1641 C1640 1.370 . S
C1641 C1645 1.408 . S
C1642 C1640 1.363 . S
C1642 C1643 1.370 . S
C1642 C1646 1.524 . S
C1643 C1635 1.503 . S
C1643 C1642 1.370 . S
C1643 C1644 1.403 . S
C1644 C1643 1.403 . S
C1644 C1645 1.404 . S
C1644 C1647 1.539 . S
C1645 C1641 1.408 . S
C1645 C1644 1.404 . S
C1645 H1657 0.930 . S
C1646 C1642 1.524 . S
C1646 H1658 0.956 . S
C1646 H1659 0.961 . S
C1646 H1660 0.961 . S
C1647 C1644 1.539 . S
C1647 H1661 0.958 . S
C1647 H1662 0.961 . S
C1647 H1663 0.960 . S
H1648 C1632 0.931 . S
H1649 C1637 0.929 . S
H1650 C1638 0.960 . S
H1651 C1638 0.962 . S
H1652 C1638 0.960 . S
H1653 C1639 0.961 . S
H1654 C1639 0.961 . S
H1655 C1639 0.961 . S
H1656 C1640 0.931 . S
H1657 C1645 0.930 . S
H1658 C1646 0.956 . S
H1659 C1646 0.961 . S
H1660 C1646 0.961 . S
H1661 C1647 0.958 . S
H1662 C1647 0.961 . S
H1663 C1647 0.960 . S
C1664 C1665 1.391 . S
C1664 C1666 1.394 . S
C1664 H1680 0.931 . S
C1665 C1664 1.391 . S
C1665 C1669 1.376 . S
C1666 C1664 1.394 . S
C1666 C1667 1.369 . S
C1666 C1670 1.531 . S
C1667 C1666 1.369 . S
C1667 C1668 1.410 . S
C1667 C1675 1.503 . S
C1668 C1667 1.410 . S
C1668 C1669 1.392 . S
C1668 C1671 1.511 . S
C1669 C1665 1.376 . S
C1669 C1668 1.392 . S
C1669 H1681 0.929 . S
C1670 C1666 1.531 . S
C1670 H1682 0.960 . S
C1670 H1683 0.962 . S
C1670 H1684 0.960 . S
C1671 C1668 1.511 . S
C1671 H1685 0.961 . S
C1671 H1686 0.961 . S
C1671 H1687 0.961 . S
C1672 C1673 1.370 . S
C1672 C1674 1.363 . S
C1672 H1688 0.931 . S
C1673 C1672 1.370 . S
C1673 C1677 1.408 . S
C1674 C1672 1.363 . S
C1674 C1675 1.370 . S
C1674 C1678 1.524 . S
C1675 C1667 1.503 . S
C1675 C1674 1.370 . S
C1675 C1676 1.403 . S
C1676 C1675 1.403 . S
C1676 C1677 1.404 . S
C1676 C1679 1.539 . S
C1677 C1673 1.408 . S
C1677 C1676 1.404 . S
C1677 H1689 0.930 . S
C1678 C1674 1.524 . S
C1678 H1690 0.956 . S
C1678 H1691 0.961 . S
C1678 H1692 0.961 . S
C1679 C1676 1.539 . S
C1679 H1693 0.958 . S
C1679 H1694 0.961 . S
C1679 H1695 0.960 . S
H1680 C1664 0.931 . S
H1681 C1669 0.929 . S
H1682 C1670 0.960 . S
H1683 C1670 0.962 . S
H1684 C1670 0.960 . S
H1685 C1671 0.961 . S
H1686 C1671 0.961 . S
H1687 C1671 0.961 . S
H1688 C1672 0.931 . S
H1689 C1677 0.930 . S
H1690 C1678 0.956 . S
H1691 C1678 0.961 . S
H1692 C1678 0.961 . S
H1693 C1679 0.958 . S
H1694 C1679 0.961 . S
H1695 C1679 0.960 . S
C1696 C1697 1.391 . S
C1696 C1698 1.394 . S
C1696 H1712 0.931 . S
C1697 C1696 1.391 . S
C1697 C1701 1.376 . S
C1698 C1696 1.394 . S
C1698 C1699 1.369 . S
C1698 C1702 1.531 . S
C1699 C1698 1.369 . S
C1699 C1700 1.410 . S
C1699 C1707 1.503 . S
C1700 C1699 1.410 . S
C1700 C1701 1.392 . S
C1700 C1703 1.511 . S
C1701 C1697 1.376 . S
C1701 C1700 1.392 . S
C1701 H1713 0.929 . S
C1702 C1698 1.531 . S
C1702 H1714 0.960 . S
C1702 H1715 0.962 . S
C1702 H1716 0.960 . S
C1703 C1700 1.511 . S
C1703 H1717 0.961 . S
C1703 H1718 0.961 . S
C1703 H1719 0.961 . S
C1704 C1705 1.370 . S
C1704 C1706 1.363 . S
C1704 H1720 0.931 . S
C1705 C1704 1.370 . S
C1705 C1709 1.408 . S
C1706 C1704 1.363 . S
C1706 C1707 1.370 . S
C1706 C1710 1.524 . S
C1707 C1699 1.503 . S
C1707 C1706 1.370 . S
C1707 C1708 1.403 . S
C1708 C1707 1.403 . S
C1708 C1709 1.404 . S
C1708 C1711 1.539 . S
C1709 C1705 1.408 . S
C1709 C1708 1.404 . S
C1709 H1721 0.930 . S
C1710 C1706 1.524 . S
C1710 H1722 0.956 . S
C1710 H1723 0.961 . S
C1710 H1724 0.961 . S
C1711 C1708 1.539 . S
C1711 H1725 0.958 . S
C1711 H1726 0.961 . S
C1711 H1727 0.960 . S
H1712 C1696 0.931 . S
H1713 C1701 0.929 . S
H1714 C1702 0.960 . S
H1715 C1702 0.962 . S
H1716 C1702 0.960 . S
H1717 C1703 0.961 . S
H1718 C1703 0.961 . S
H1719 C1703 0.961 . S
H1720 C1704 0.931 . S
H1721 C1709 0.930 . S
H1722 C1710 0.956 . S
H1723 C1710 0.961 . S
H1724 C1710 0.961 . S
H1725 C1711 0.958 . S
H1726 C1711 0.961 . S
H1727 C1711 0.960 . S
C1728 C1729 1.391 . S
C1728 C1730 1.394 . S
C1728 H1744 0.931 . S
C1729 C1728 1.391 . S
C1729 C1733 1.376 . S
C1730 C1728 1.394 . S
C1730 C1731 1.369 . S
C1730 C1734 1.531 . S
C1731 C1730 1.369 . S
C1731 C1732 1.410 . S
C1731 C1739 1.503 . S
C1732 C1731 1.410 . S
C1732 C1733 1.392 . S
C1732 C1735 1.511 . S
C1733 C1729 1.376 . S
C1733 C1732 1.392 . S
C1733 H1745 0.929 . S
C1734 C1730 1.531 . S
C1734 H1746 0.960 . S
C1734 H1747 0.962 . S
C1734 H1748 0.960 . S
C1735 C1732 1.511 . S
C1735 H1749 0.961 . S
C1735 H1750 0.961 . S
C1735 H1751 0.961 . S
C1736 C1737 1.370 . S
C1736 C1738 1.363 . S
C1736 H1752 0.931 . S
C1737 C1736 1.370 . S
C1737 C1741 1.408 . S
C1738 C1736 1.363 . S
C1738 C1739 1.370 . S
C1738 C1742 1.524 . S
C1739 C1731 1.503 . S
C1739 C1738 1.370 . S
C1739 C1740 1.403 . S
C1740 C1739 1.403 . S
C1740 C1741 1.404 . S
C1740 C1743 1.539 . S
C1741 C1737 1.408 . S
C1741 C1740 1.404 . S
C1741 H1753 0.930 . S
C1742 C1738 1.524 . S
C1742 H1754 0.956 . S
C1742 H1755 0.961 . S
C1742 H1756 0.961 . S
C1743 C1740 1.539 . S
C1743 H1757 0.958 . S
C1743 H1758 0.961 . S
C1743 H1759 0.960 . S
H1744 C1728 0.931 . S
H1745 C1733 0.929 . S
H1746 C1734 0.960 . S
H1747 C1734 0.962 . S
H1748 C1734 0.960 . S
H1749 C1735 0.961 . S
H1750 C1735 0.961 . S
H1751 C1735 0.961 . S
H1752 C1736 0.931 . S
H1753 C1741 0.930 . S
H1754 C1742 0.956 . S
H1755 C1742 0.961 . S
H1756 C1742 0.961 . S
H1757 C1743 0.958 . S
H1758 C1743 0.961 . S
H1759 C1743 0.960 . S
C1760 C1761 1.391 . S
C1760 C1762 1.394 . S
C1760 H1776 0.931 . S
C1761 C1760 1.391 . S
C1761 C1765 1.376 . S
C1762 C1760 1.394 . S
C1762 C1763 1.369 . S
C1762 C1766 1.531 . S
C1763 C1762 1.369 . S
C1763 C1764 1.410 . S
C1763 C1771 1.503 . S
C1764 C1763 1.410 . S
C1764 C1765 1.392 . S
C1764 C1767 1.511 . S
C1765 C1761 1.376 . S
C1765 C1764 1.392 . S
C1765 H1777 0.929 . S
C1766 C1762 1.531 . S
C1766 H1778 0.960 . S
C1766 H1779 0.962 . S
C1766 H1780 0.960 . S
C1767 C1764 1.511 . S
C1767 H1781 0.961 . S
C1767 H1782 0.961 . S
C1767 H1783 0.961 . S
C1768 C1769 1.370 . S
C1768 C1770 1.363 . S
C1768 H1784 0.931 . S
C1769 C1768 1.370 . S
C1769 C1773 1.408 . S
C1770 C1768 1.363 . S
C1770 C1771 1.370 . S
C1770 C1774 1.524 . S
C1771 C1763 1.503 . S
C1771 C1770 1.370 . S
C1771 C1772 1.403 . S
C1772 C1771 1.403 . S
C1772 C1773 1.404 . S
C1772 C1775 1.539 . S
C1773 C1769 1.408 . S
C1773 C1772 1.404 . S
C1773 H1785 0.930 . S
C1774 C1770 1.524 . S
C1774 H1786 0.956 . S
C1774 H1787 0.961 . S
C1774 H1788 0.961 . S
C1775 C1772 1.539 . S
C1775 H1789 0.958 . S
C1775 H1790 0.961 . S
C1775 H1791 0.960 . S
H1776 C1760 0.931 . S
H1777 C1765 0.929 . S
H1778 C1766 0.960 . S
H1779 C1766 0.962 . S
H1780 C1766 0.960 . S
H1781 C1767 0.961 . S
H1782 C1767 0.961 . S
H1783 C1767 0.961 . S
H1784 C1768 0.931 . S
H1785 C1773 0.930 . S
H1786 C1774 0.956 . S
H1787 C1774 0.961 . S
H1788 C1774 0.961 . S
H1789 C1775 0.958 . S
H1790 C1775 0.961 . S
H1791 C1775 0.960 . S
C1792 C1793 1.391 . S
C1792 C1794 1.394 . S
C1792 H1808 0.931 . S
C1793 C1792 1.391 . S
C1793 C1797 1.376 . S
C1794 C1792 1.394 . S
C1794 C1795 1.369 . S
C1794 C1798 1.531 . S
C1795 C1794 1.369 . S
C1795 C1796 1.410 . S
C1795 C1803 1.503 . S
C1796 C1795 1.410 . S
C1796 C1797 1.392 . S
C1796 C1799 1.511 . S
C1797 C1793 1.376 . S
C1797 C1796 1.392 . S
C1797 H1809 0.929 . S
C1798 C1794 1.531 . S
C1798 H1810 0.960 . S
C1798 H1811 0.962 . S
C1798 H1812 0.960 . S
C1799 C1796 1.511 . S
C1799 H1813 0.961 . S
C1799 H1814 0.961 . S
C1799 H1815 0.961 . S
C1800 C1801 1.370 . S
C1800 C1802 1.363 . S
C1800 H1816 0.931 . S
C1801 C1800 1.370 . S
C1801 C1805 1.408 . S
C1802 C1800 1.363 . S
C1802 C1803 1.370 . S
C1802 C1806 1.524 . S
C1803 C1795 1.503 . S
C1803 C1802 1.370 . S
C1803 C1804 1.403 . S
C1804 C1803 1.403 . S
C1804 C1805 1.404 . S
C1804 C1807 1.539 . S
C1805 C1801 1.408 . S
C1805 C1804 1.404 . S
C1805 H1817 0.930 . S
C1806 C1802 1.524 . S
C1806 H1818 0.956 . S
C1806 H1819 0.961 . S
C1806 H1820 0.961 . S
C1807 C1804 1.539 . S
C1807 H1821 0.958 . S
C1807 H1822 0.961 . S
C1807 H1823 0.960 . S
H1808 C1792 0.931 . S
H1809 C1797 0.929 . S
H1810 C1798 0.960 . S
H1811 C1798 0.962 . S
H1812 C1798 0.960 . S
H1813 C1799 0.961 . S
H1814 C1799 0.961 . S
H1815 C1799 0.961 . S
H1816 C1800 0.931 . S
H1817 C1805 0.930 . S
H1818 C1806 0.956 . S
H1819 C1806 0.961 . S
H1820 C1806 0.961 . S
H1821 C1807 0.958 . S
H1822 C1807 0.961 . S
H1823 C1807 0.960 . S
C1824 C1825 1.391 . S
C1824 C1826 1.394 . S
C1824 H1840 0.931 . S
C1825 C1824 1.391 . S
C1825 C1829 1.376 . S
C1826 C1824 1.394 . S
C1826 C1827 1.369 . S
C1826 C1830 1.531 . S
C1827 C1826 1.369 . S
C1827 C1828 1.410 . S
C1827 C1835 1.503 . S
C1828 C1827 1.410 . S
C1828 C1829 1.392 . S
C1828 C1831 1.511 . S
C1829 C1825 1.376 . S
C1829 C1828 1.392 . S
C1829 H1841 0.929 . S
C1830 C1826 1.531 . S
C1830 H1842 0.960 . S
C1830 H1843 0.962 . S
C1830 H1844 0.960 . S
C1831 C1828 1.511 . S
C1831 H1845 0.961 . S
C1831 H1846 0.961 . S
C1831 H1847 0.961 . S
C1832 C1833 1.370 . S
C1832 C1834 1.363 . S
C1832 H1848 0.931 . S
C1833 C1832 1.370 . S
C1833 C1837 1.408 . S
C1834 C1832 1.363 . S
C1834 C1835 1.370 . S
C1834 C1838 1.524 . S
C1835 C1827 1.503 . S
C1835 C1834 1.370 . S
C1835 C1836 1.403 . S
C1836 C1835 1.403 . S
C1836 C1837 1.404 . S
C1836 C1839 1.539 . S
C1837 C1833 1.408 . S
C1837 C1836 1.404 . S
C1837 H1849 0.930 . S
C1838 C1834 1.524 . S
C1838 H1850 0.956 . S
C1838 H1851 0.961 . S
C1838 H1852 0.961 . S
C1839 C1836 1.539 . S
C1839 H1853 0.958 . S
C1839 H1854 0.961 . S
C1839 H1855 0.960 . S
H1840 C1824 0.931 . S
H1841 C1829 0.929 . S
H1842 C1830 0.960 . S
H1843 C1830 0.962 . S
H1844 C1830 0.960 . S
H1845 C1831 0.961 . S
H1846 C1831 0.961 . S
H1847 C1831 0.961 . S
H1848 C1832 0.931 . S
H1849 C1837 0.930 . S
H1850 C1838 0.956 . S
H1851 C1838 0.961 . S
H1852 C1838 0.961 . S
H1853 C1839 0.958 . S
H1854 C1839 0.961 . S
H1855 C1839 0.960 . S
C1856 C1857 1.391 . S
C1856 C1858 1.394 . S
C1856 H1872 0.931 . S
C1857 C1856 1.391 . S
C1857 C1861 1.376 . S
C1858 C1856 1.394 . S
C1858 C1859 1.369 . S
C1858 C1862 1.531 . S
C1859 C1858 1.369 . S
C1859 C1860 1.410 . S
C1859 C1867 1.503 . S
C1860 C1859 1.410 . S
C1860 C1861 1.392 . S
C1860 C1863 1.511 . S
C1861 C1857 1.376 . S
C1861 C1860 1.392 . S
C1861 H1873 0.929 . S
C1862 C1858 1.531 . S
C1862 H1874 0.960 . S
C1862 H1875 0.962 . S
C1862 H1876 0.960 . S
C1863 C1860 1.511 . S
C1863 H1877 0.961 . S
C1863 H1878 0.961 . S
C1863 H1879 0.961 . S
C1864 C1865 1.370 . S
C1864 C1866 1.363 . S
C1864 H1880 0.931 . S
C1865 C1864 1.370 . S
C1865 C1869 1.408 . S
C1866 C1864 1.363 . S
C1866 C1867 1.370 . S
C1866 C1870 1.524 . S
C1867 C1859 1.503 . S
C1867 C1866 1.370 . S
C1867 C1868 1.403 . S
C1868 C1867 1.403 . S
C1868 C1869 1.404 . S
C1868 C1871 1.539 . S
C1869 C1865 1.408 . S
C1869 C1868 1.404 . S
C1869 H1881 0.930 . S
C1870 C1866 1.524 . S
C1870 H1882 0.956 . S
C1870 H1883 0.961 . S
C1870 H1884 0.961 . S
C1871 C1868 1.539 . S
C1871 H1885 0.958 . S
C1871 H1886 0.961 . S
C1871 H1887 0.960 . S
H1872 C1856 0.931 . S
H1873 C1861 0.929 . S
H1874 C1862 0.960 . S
H1875 C1862 0.962 . S
H1876 C1862 0.960 . S
H1877 C1863 0.961 . S
H1878 C1863 0.961 . S
H1879 C1863 0.961 . S
H1880 C1864 0.931 . S
H1881 C1869 0.930 . S
H1882 C1870 0.956 . S
H1883 C1870 0.961 . S
H1884 C1870 0.961 . S
H1885 C1871 0.958 . S
H1886 C1871 0.961 . S
H1887 C1871 0.960 . S
C1888 C1889 1.391 . S
C1888 C1890 1.394 . S
C1888 H1904 0.931 . S
C1889 C1888 1.391 . S
C1889 C1893 1.376 . S
C1890 C1888 1.394 . S
C1890 C1891 1.369 . S
C1890 C1894 1.531 . S
C1891 C1890 1.369 . S
C1891 C1892 1.410 . S
C1891 C1899 1.503 . S
C1892 C1891 1.410 . S
C1892 C1893 1.392 . S
C1892 C1895 1.511 . S
C1893 C1889 1.376 . S
C1893 C1892 1.392 . S
C1893 H1905 0.929 . S
C1894 C1890 1.531 . S
C1894 H1906 0.960 . S
C1894 H1907 0.962 . S
C1894 H1908 0.960 . S
C1895 C1892 1.511 . S
C1895 H1909 0.961 . S
C1895 H1910 0.961 . S
C1895 H1911 0.961 . S
C1896 C1897 1.370 . S
C1896 C1898 1.363 . S
C1896 H1912 0.931 . S
C1897 C1896 1.370 . S
C1897 C1901 1.408 . S
C1898 C1896 1.363 . S
C1898 C1899 1.370 . S
C1898 C1902 1.524 . S
C1899 C1891 1.503 . S
C1899 C1898 1.370 . S
C1899 C1900 1.403 . S
C1900 C1899 1.403 . S
C1900 C1901 1.404 . S
C1900 C1903 1.539 . S
C1901 C1897 1.408 . S
C1901 C1900 1.404 . S
C1901 H1913 0.930 . S
C1902 C1898 1.524 . S
C1902 H1914 0.956 . S
C1902 H1915 0.961 . S
C1902 H1916 0.961 . S
C1903 C1900 1.539 . S
C1903 H1917 0.958 . S
C1903 H1918 0.961 . S
C1903 H1919 0.960 . S
H1904 C1888 0.931 . S
H1905 C1893 0.929 . S
H1906 C1894 0.960 . S
H1907 C1894 0.962 . S
H1908 C1894 0.960 . S
H1909 C1895 0.961 . S
H1910 C1895 0.961 . S
H1911 C1895 0.961 . S
H1912 C1896 0.931 . S
H1913 C1901 0.930 . S
H1914 C1902 0.956 . S
H1915 C1902 0.961 . S
H1916 C1902 0.961 . S
H1917 C1903 0.958 . S
H1918 C1903 0.961 . S
H1919 C1903 0.960 . S
C1920 C1921 1.391 . S
C1920 C1922 1.394 . S
C1920 H1936 0.931 . S
C1921 C1920 1.391 . S
C1921 C1925 1.376 . S
C1922 C1920 1.394 . S
C1922 C1923 1.369 . S
C1922 C1926 1.531 . S
C1923 C1922 1.369 . S
C1923 C1924 1.410 . S
C1923 C1931 1.503 . S
C1924 C1923 1.410 . S
C1924 C1925 1.392 . S
C1924 C1927 1.511 . S
C1925 C1921 1.376 . S
C1925 C1924 1.392 . S
C1925 H1937 0.929 . S
C1926 C1922 1.531 . S
C1926 H1938 0.960 . S
C1926 H1939 0.962 . S
C1926 H1940 0.960 . S
C1927 C1924 1.511 . S
C1927 H1941 0.961 . S
C1927 H1942 0.961 . S
C1927 H1943 0.961 . S
C1928 C1929 1.370 . S
C1928 C1930 1.363 . S
C1928 H1944 0.931 . S
C1929 C1928 1.370 . S
C1929 C1933 1.408 . S
C1930 C1928 1.363 . S
C1930 C1931 1.370 . S
C1930 C1934 1.524 . S
C1931 C1923 1.503 . S
C1931 C1930 1.370 . S
C1931 C1932 1.403 . S
C1932 C1931 1.403 . S
C1932 C1933 1.404 . S
C1932 C1935 1.539 . S
C1933 C1929 1.408 . S
C1933 C1932 1.404 . S
C1933 H1945 0.930 . S
C1934 C1930 1.524 . S
C1934 H1946 0.956 . S
C1934 H1947 0.961 . S
C1934 H1948 0.961 . S
C1935 C1932 1.539 . S
C1935 H1949 0.958 . S
C1935 H1950 0.961 . S
C1935 H1951 0.960 . S
H1936 C1920 0.931 . S
H1937 C1925 0.929 . S
H1938 C1926 0.960 . S
H1939 C1926 0.962 . S
H1940 C1926 0.960 . S
H1941 C1927 0.961 . S
H1942 C1927 0.961 . S
H1943 C1927 0.961 . S
H1944 C1928 0.931 . S
H1945 C1933 0.930 . S
H1946 C1934 0.956 . S
H1947 C1934 0.961 . S
H1948 C1934 0.961 . S
H1949 C1935 0.958 . S
H1950 C1935 0.961 . S
H1951 C1935 0.960 . S
C1952 C1953 1.391 . S
C1952 C1954 1.394 . S
C1952 H1968 0.931 . S
C1953 C1952 1.391 . S
C1953 C1957 1.376 . S
C1954 C1952 1.394 . S
C1954 C1955 1.369 . S
C1954 C1958 1.531 . S
C1955 C1954 1.369 . S
C1955 C1956 1.410 . S
C1955 C1963 1.503 . S
C1956 C1955 1.410 . S
C1956 C1957 1.392 . S
C1956 C1959 1.511 . S
C1957 C1953 1.376 . S
C1957 C1956 1.392 . S
C1957 H1969 0.929 . S
C1958 C1954 1.531 . S
C1958 H1970 0.960 . S
C1958 H1971 0.962 . S
C1958 H1972 0.960 . S
C1959 C1956 1.511 . S
C1959 H1973 0.961 . S
C1959 H1974 0.961 . S
C1959 H1975 0.961 . S
C1960 C1961 1.370 . S
C1960 C1962 1.363 . S
C1960 H1976 0.931 . S
C1961 C1960 1.370 . S
C1961 C1965 1.408 . S
C1962 C1960 1.363 . S
C1962 C1963 1.370 . S
C1962 C1966 1.524 . S
C1963 C1955 1.503 . S
C1963 C1962 1.370 . S
C1963 C1964 1.403 . S
C1964 C1963 1.403 . S
C1964 C1965 1.404 . S
C1964 C1967 1.539 . S
C1965 C1961 1.408 . S
C1965 C1964 1.404 . S
C1965 H1977 0.930 . S
C1966 C1962 1.524 . S
C1966 H1978 0.956 . S
C1966 H1979 0.961 . S
C1966 H1980 0.961 . S
C1967 C1964 1.539 . S
C1967 H1981 0.958 . S
C1967 H1982 0.961 . S
C1967 H1983 0.960 . S
H1968 C1952 0.931 . S
H1969 C1957 0.929 . S
H1970 C1958 0.960 . S
H1971 C1958 0.962 . S
H1972 C1958 0.960 . S
H1973 C1959 0.961 . S
H1974 C1959 0.961 . S
H1975 C1959 0.961 . S
H1976 C1960 0.931 . S
H1977 C1965 0.930 . S
H1978 C1966 0.956 . S
H1979 C1966 0.961 . S
H1980 C1966 0.961 . S
H1981 C1967 0.958 . S
H1982 C1967 0.961 . S
H1983 C1967 0.960 . S
C1984 C1985 1.391 . S
C1984 C1986 1.394 . S
C1984 H2000 0.931 . S
C1985 C1984 1.391 . S
C1985 C1989 1.376 . S
C1986 C1984 1.394 . S
C1986 C1987 1.369 . S
C1986 C1990 1.531 . S
C1987 C1986 1.369 . S
C1987 C1988 1.410 . S
C1987 C1995 1.503 . S
C1988 C1987 1.410 . S
C1988 C1989 1.392 . S
C1988 C1991 1.511 . S
C1989 C1985 1.376 . S
C1989 C1988 1.392 . S
C1989 H2001 0.929 . S
C1990 C1986 1.531 . S
C1990 H2002 0.960 . S
C1990 H2003 0.962 . S
C1990 H2004 0.960 . S
C1991 C1988 1.511 . S
C1991 H2005 0.961 . S
C1991 H2006 0.961 . S
C1991 H2007 0.961 . S
C1992 C1993 1.370 . S
C1992 C1994 1.363 . S
C1992 H2008 0.931 . S
C1993 C1992 1.370 . S
C1993 C1997 1.408 . S
C1994 C1992 1.363 . S
C1994 C1995 1.370 . S
C1994 C1998 1.524 . S
C1995 C1987 1.503 . S
C1995 C1994 1.370 . S
C1995 C1996 1.403 . S
C1996 C1995 1.403 . S
C1996 C1997 1.404 . S
C1996 C1999 1.539 . S
C1997 C1993 1.408 . S
C1997 C1996 1.404 . S
C1997 H2009 0.930 . S
C1998 C1994 1.524 . S
C1998 H2010 0.956 . S
C1998 H2011 0.961 . S
C1998 H2012 0.961 . S
C1999 C1996 1.539 . S
C1999 H2013 0.958 . S
C1999 H2014 0.961 . S
C1999 H2015 0.960 . S
H2000 C1984 0.931 . S
H2001 C1989 0.929 . S
H2002 C1990 0.960 . S
H2003 C1990 0.962 . S
H2004 C1990 0.960 . S
H2005 C1991 0.961 . S
H2006 C1991 0.961 . S
H2007 C1991 0.961 . S
H2008 C1992 0.931 . S
H2009 C1997 0.930 . S
H2010 C1998 0.956 . S
H2011 C1998 0.961 . S
H2012 C1998 0.961 . S
H2013 C1999 0.958 . S
H2014 C1999 0.961 . S
H2015 C1999 0.960 . S
C2016 C2017 1.391 . S
C2016 C2018 1.394 . S
C2016 H2032 0.931 . S
C2017 C2016 1.391 . S
C2017 C2021 1.376 . S
C2018 C2016 1.394 . S
C2018 C2019 1.369 . S
C2018 C2022 1.531 . S
C2019 C2018 1.369 . S
C2019 C2020 1.410 . S
C2019 C2027 1.503 . S
C2020 C2019 1.410 . S
C2020 C2021 1.392 . S
C2020 C2023 1.511 . S
C2021 C2017 1.376 . S
C2021 C2020 1.392 . S
C2021 H2033 0.929 . S
C2022 C2018 1.531 . S
C2022 H2034 0.960 . S
C2022 H2035 0.962 . S
C2022 H2036 0.960 . S
C2023 C2020 1.511 . S
C2023 H2037 0.961 . S
C2023 H2038 0.961 . S
C2023 H2039 0.961 . S
C2024 C2025 1.370 . S
C2024 C2026 1.363 . S
C2024 H2040 0.931 . S
C2025 C2024 1.370 . S
C2025 C2029 1.408 . S
C2026 C2024 1.363 . S
C2026 C2027 1.370 . S
C2026 C2030 1.524 . S
C2027 C2019 1.503 . S
C2027 C2026 1.370 . S
C2027 C2028 1.403 . S
C2028 C2027 1.403 . S
C2028 C2029 1.404 . S
C2028 C2031 1.539 . S
C2029 C2025 1.408 . S
C2029 C2028 1.404 . S
C2029 H2041 0.930 . S
C2030 C2026 1.524 . S
C2030 H2042 0.956 . S
C2030 H2043 0.961 . S
C2030 H2044 0.961 . S
C2031 C2028 1.539 . S
C2031 H2045 0.958 . S
C2031 H2046 0.961 . S
C2031 H2047 0.960 . S
H2032 C2016 0.931 . S
H2033 C2021 0.929 . S
H2034 C2022 0.960 . S
H2035 C2022 0.962 . S
H2036 C2022 0.960 . S
H2037 C2023 0.961 . S
H2038 C2023 0.961 . S
H2039 C2023 0.961 . S
H2040 C2024 0.931 . S
H2041 C2029 0.930 . S
H2042 C2030 0.956 . S
H2043 C2030 0.961 . S
H2044 C2030 0.961 . S
H2045 C2031 0.958 . S
H2046 C2031 0.961 . S
H2047 C2031 0.960 . S
C2048 C2049 1.391 . S
C2048 C2050 1.394 . S
C2048 H2064 0.931 . S
C2049 C2048 1.391 . S
C2049 C2053 1.376 . S
C2050 C2048 1.394 . S
C2050 C2051 1.369 . S
C2050 C2054 1.531 . S
C2051 C2050 1.369 . S
C2051 C2052 1.410 . S
C2051 C2059 1.503 . S
C2052 C2051 1.410 . S
C2052 C2053 1.392 . S
C2052 C2055 1.511 . S
C2053 C2049 1.376 . S
C2053 C2052 1.392 . S
C2053 H2065 0.929 . S
C2054 C2050 1.531 . S
C2054 H2066 0.960 . S
C2054 H2067 0.962 . S
C2054 H2068 0.960 . S
C2055 C2052 1.511 . S
C2055 H2069 0.961 . S
C2055 H2070 0.961 . S
C2055 H2071 0.961 . S
C2056 C2057 1.370 . S
C2056 C2058 1.363 . S
C2056 H2072 0.931 . S
C2057 C2056 1.370 . S
C2057 C2061 1.408 . S
C2058 C2056 1.363 . S
C2058 C2059 1.370 . S
C2058 C2062 1.524 . S
C2059 C2051 1.503 . S
C2059 C2058 1.370 . S
C2059 C2060 1.403 . S
C2060 C2059 1.403 . S
C2060 C2061 1.404 . S
C2060 C2063 1.539 . S
C2061 C2057 1.408 . S
C2061 C2060 1.404 . S
C2061 H2073 0.930 . S
C2062 C2058 1.524 . S
C2062 H2074 0.956 . S
C2062 H2075 0.961 . S
C2062 H2076 0.961 . S
C2063 C2060 1.539 . S
C2063 H2077 0.958 . S
C2063 H2078 0.961 . S
C2063 H2079 0.960 . S
H2064 C2048 0.931 . S
H2065 C2053 0.929 . S
H2066 C2054 0.960 . S
H2067 C2054 0.962 . S
H2068 C2054 0.960 . S
H2069 C2055 0.961 . S
H2070 C2055 0.961 . S
H2071 C2055 0.961 . S
H2072 C2056 0.931 . S
H2073 C2061 0.930 . S
H2074 C2062 0.956 . S
H2075 C2062 0.961 . S
H2076 C2062 0.961 . S
H2077 C2063 0.958 . S
H2078 C2063 0.961 . S
H2079 C2063 0.960 . S
C2080 C2081 1.391 . S
C2080 C2082 1.394 . S
C2080 H2096 0.931 . S
C2081 C2080 1.391 . S
C2081 C2085 1.376 1_655 S
C2082 C2080 1.394 . S
C2082 C2083 1.369 . S
C2082 C2086 1.531 . S
C2083 C2082 1.369 . S
C2083 C2084 1.410 1_655 S
C2083 C2091 1.511 1_565 S
C2084 C2083 1.410 1_455 S
C2084 C2085 1.392 . S
C2084 C2087 1.508 1_565 S
C2085 C2081 1.376 1_455 S
C2085 C2084 1.392 . S
C2085 H2097 0.929 . S
C2086 C2082 1.531 . S
C2086 H2098 0.901 1_565 S
C2086 H2099 0.962 . S
C2086 H2100 0.960 . S
C2087 C2084 1.508 1_545 S
C2087 H2101 0.958 1_545 S
C2087 H2102 0.964 . S
C2087 H2103 0.963 . S
C2088 C2089 1.370 . S
C2088 C2090 1.363 . S
C2088 H2104 0.931 . S
C2089 C2088 1.370 . S
C2089 C2093 1.408 1_455 S
C2090 C2088 1.363 . S
C2090 C2091 1.347 1_455 S
C2090 C2094 1.524 1_545 S
C2091 C2083 1.511 1_545 S
C2091 C2090 1.347 1_655 S
C2091 C2092 1.422 . S
C2092 C2091 1.422 . S
C2092 C2093 1.404 . S
C2092 C2095 1.539 . S
C2093 C2089 1.408 1_655 S
C2093 C2092 1.404 . S
C2093 H2105 0.930 . S
C2094 C2090 1.524 1_565 S
C2094 H2106 0.956 . S
C2094 H2107 0.961 . S
C2094 H2108 0.961 . S
C2095 C2092 1.539 . S
C2095 H2109 0.958 . S
C2095 H2110 0.961 . S
C2095 H2111 0.960 . S
H2096 C2080 0.931 . S
H2097 C2085 0.929 . S
H2098 C2086 0.901 1_545 S
H2099 C2086 0.962 . S
H2100 C2086 0.960 . S
H2101 C2087 0.958 1_565 S
H2102 C2087 0.964 . S
H2103 C2087 0.963 . S
H2104 C2088 0.931 . S
H2105 C2093 0.930 . S
H2106 C2094 0.956 . S
H2107 C2094 0.961 . S
H2108 C2094 0.961 . S
H2109 C2095 0.958 . S
H2110 C2095 0.961 . S
H2111 C2095 0.960 . S
C2112 C2113 1.391 . S
C2112 C2114 1.394 . S
C2112 H2128 0.931 . S
C2113 C2112 1.391 . S
C2113 C2117 1.376 . S
C2114 C2112 1.394 . S
C2114 C2115 1.369 . S
C2114 C2118 1.531 . S
C2115 C2114 1.369 . S
C2115 C2116 1.410 . S
C2115 C2123 1.503 . S
C2116 C2115 1.410 . S
C2116 C2117 1.392 . S
C2116 C2119 1.511 . S
C2117 C2113 1.376 . S
C2117 C2116 1.392 . S
C2117 H2129 0.929 . S
C2118 C2114 1.531 . S
C2118 H2130 0.960 . S
C2118 H2131 0.962 . S
C2118 H2132 0.960 . S
C2119 C2116 1.511 . S
C2119 H2133 0.961 . S
C2119 H2134 0.961 . S
C2119 H2135 0.961 . S
C2120 C2121 1.370 . S
C2120 C2122 1.363 . S
C2120 H2136 0.931 . S
C2121 C2120 1.370 . S
C2121 C2125 1.408 . S
C2122 C2120 1.363 . S
C2122 C2123 1.370 . S
C2122 C2126 1.524 . S
C2123 C2115 1.503 . S
C2123 C2122 1.370 . S
C2123 C2124 1.403 . S
C2124 C2123 1.403 . S
C2124 C2125 1.404 . S
C2124 C2127 1.539 . S
C2125 C2121 1.408 . S
C2125 C2124 1.404 . S
C2125 H2137 0.930 . S
C2126 C2122 1.524 . S
C2126 H2138 0.956 . S
C2126 H2139 0.961 . S
C2126 H2140 0.961 . S
C2127 C2124 1.539 . S
C2127 H2141 0.958 . S
C2127 H2142 0.961 . S
C2127 H2143 0.960 . S
H2128 C2112 0.931 . S
H2129 C2117 0.929 . S
H2130 C2118 0.960 . S
H2131 C2118 0.962 . S
H2132 C2118 0.960 . S
H2133 C2119 0.961 . S
H2134 C2119 0.961 . S
H2135 C2119 0.961 . S
H2136 C2120 0.931 . S
H2137 C2125 0.930 . S
H2138 C2126 0.956 . S
H2139 C2126 0.961 . S
H2140 C2126 0.961 . S
H2141 C2127 0.958 . S
H2142 C2127 0.961 . S
H2143 C2127 0.960 . S
C2144 C2145 1.391 . S
C2144 C2146 1.394 . S
C2144 H2160 0.931 . S
C2145 C2144 1.391 . S
C2145 C2149 1.376 . S
C2146 C2144 1.394 . S
C2146 C2147 1.369 . S
C2146 C2150 1.531 . S
C2147 C2146 1.369 . S
C2147 C2148 1.410 . S
C2147 C2155 1.503 . S
C2148 C2147 1.410 . S
C2148 C2149 1.392 . S
C2148 C2151 1.511 1_655 S
C2149 C2145 1.376 . S
C2149 C2148 1.392 . S
C2149 H2161 0.940 . S
C2150 C2146 1.531 . S
C2150 H2162 0.960 . S
C2150 H2163 0.962 . S
C2150 H2164 0.960 . S
C2151 C2148 1.511 1_455 S
C2151 H2165 0.961 . S
C2151 H2166 0.961 . S
C2151 H2167 0.961 1_455 S
C2152 C2153 1.370 . S
C2152 C2154 1.363 . S
C2152 H2168 0.931 . S
C2153 C2152 1.370 . S
C2153 C2157 1.408 1_455 S
C2154 C2152 1.363 . S
C2154 C2155 1.370 1_455 S
C2154 C2158 1.524 . S
C2155 C2147 1.503 . S
C2155 C2154 1.370 1_655 S
C2155 C2156 1.403 . S
C2156 C2155 1.403 . S
C2156 C2157 1.404 . S
C2156 C2159 1.539 . S
C2157 C2153 1.408 1_655 S
C2157 C2156 1.404 . S
C2157 H2169 0.930 . S
C2158 C2154 1.524 . S
C2158 H2170 0.956 . S
C2158 H2171 0.961 . S
C2158 H2172 0.961 . S
C2159 C2156 1.539 . S
C2159 H2173 0.958 . S
C2159 H2174 0.961 . S
C2159 H2175 0.960 . S
H2160 C2144 0.931 . S
H2161 C2149 0.940 . S
H2162 C2150 0.960 . S
H2163 C2150 0.962 . S
H2164 C2150 0.960 . S
H2165 C2151 0.961 . S
H2166 C2151 0.961 . S
H2167 C2151 0.961 1_655 S
H2168 C2152 0.931 . S
H2169 C2157 0.930 . S
H2170 C2158 0.956 . S
H2171 C2158 0.961 . S
H2172 C2158 0.961 . S
H2173 C2159 0.958 . S
H2174 C2159 0.961 . S
H2175 C2159 0.960 . S
C2176 C2177 1.391 . S
C2176 C2178 1.394 . S
C2176 H2192 0.931 . S
C2177 C2176 1.391 . S
C2177 C2181 1.376 . S
C2178 C2176 1.394 . S
C2178 C2179 1.369 . S
C2178 C2182 1.531 1_565 S
C2179 C2178 1.369 . S
C2179 C2180 1.410 . S
C2179 C2187 1.503 1_565 S
C2180 C2179 1.410 . S
C2180 C2181 1.392 . S
C2180 C2183 1.511 . S
C2181 C2177 1.376 . S
C2181 C2180 1.392 . S
C2181 H2193 0.929 . S
C2182 C2178 1.531 1_545 S
C2182 H2194 0.960 . S
C2182 H2195 0.962 . S
C2182 H2196 0.949 1_545 S
C2183 C2180 1.511 . S
C2183 H2197 0.961 . S
C2183 H2198 0.961 . S
C2183 H2199 0.961 . S
C2184 C2185 1.370 . S
C2184 C2186 1.363 . S
C2184 H2200 0.931 . S
C2185 C2184 1.370 . S
C2185 C2189 1.408 . S
C2186 C2184 1.363 . S
C2186 C2187 1.370 . S
C2186 C2190 1.524 . S
C2187 C2179 1.503 1_545 S
C2187 C2186 1.370 . S
C2187 C2188 1.403 . S
C2188 C2187 1.403 . S
C2188 C2189 1.404 . S
C2188 C2191 1.539 1_545 S
C2189 C2185 1.408 . S
C2189 C2188 1.404 . S
C2189 H2201 0.930 . S
C2190 C2186 1.524 . S
C2190 H2202 0.956 . S
C2190 H2203 0.961 . S
C2190 H2204 0.961 . S
C2191 C2188 1.539 1_565 S
C2191 H2205 0.957 . S
C2191 H2206 0.964 . S
C2191 H2207 0.960 . S
H2192 C2176 0.931 . S
H2193 C2181 0.929 . S
H2194 C2182 0.960 . S
H2195 C2182 0.962 . S
H2196 C2182 0.949 1_565 S
H2197 C2183 0.961 . S
H2198 C2183 0.961 . S
H2199 C2183 0.961 . S
H2200 C2184 0.931 . S
H2201 C2189 0.930 . S
H2202 C2190 0.956 . S
H2203 C2190 0.961 . S
H2204 C2190 0.961 . S
H2205 C2191 0.957 . S
H2206 C2191 0.964 . S
H2207 C2191 0.960 . S
C2208 C2209 1.391 . S
C2208 C2210 1.394 . S
C2208 H2224 0.931 . S
C2209 C2208 1.391 . S
C2209 C2213 1.376 . S
C2210 C2208 1.394 . S
C2210 C2211 1.369 . S
C2210 C2214 1.531 . S
C2211 C2210 1.369 . S
C2211 C2212 1.410 . S
C2211 C2219 1.503 . S
C2212 C2211 1.410 . S
C2212 C2213 1.392 . S
C2212 C2215 1.511 . S
C2213 C2209 1.376 . S
C2213 C2212 1.392 . S
C2213 H2225 0.929 . S
C2214 C2210 1.531 . S
C2214 H2226 0.960 . S
C2214 H2227 0.962 . S
C2214 H2228 0.960 . S
C2215 C2212 1.511 . S
C2215 H2229 0.961 . S
C2215 H2230 0.961 . S
C2215 H2231 0.961 . S
C2216 C2217 1.370 . S
C2216 C2218 1.363 . S
C2216 H2232 0.931 . S
C2217 C2216 1.370 . S
C2217 C2221 1.408 . S
C2218 C2216 1.363 . S
C2218 C2219 1.370 . S
C2218 C2222 1.524 . S
C2219 C2211 1.503 . S
C2219 C2218 1.370 . S
C2219 C2220 1.403 . S
C2220 C2219 1.403 . S
C2220 C2221 1.404 . S
C2220 C2223 1.539 . S
C2221 C2217 1.408 . S
C2221 C2220 1.404 . S
C2221 H2233 0.930 . S
C2222 C2218 1.524 . S
C2222 H2234 0.956 . S
C2222 H2235 0.961 . S
C2222 H2236 0.961 . S
C2223 C2220 1.539 . S
C2223 H2237 0.958 . S
C2223 H2238 0.961 . S
C2223 H2239 0.960 . S
H2224 C2208 0.931 . S
H2225 C2213 0.929 . S
H2226 C2214 0.960 . S
H2227 C2214 0.962 . S
H2228 C2214 0.960 . S
H2229 C2215 0.961 . S
H2230 C2215 0.961 . S
H2231 C2215 0.961 . S
H2232 C2216 0.931 . S
H2233 C2221 0.930 . S
H2234 C2222 0.956 . S
H2235 C2222 0.961 . S
H2236 C2222 0.961 . S
H2237 C2223 0.958 . S
H2238 C2223 0.961 . S
H2239 C2223 0.960 . S
C2240 C2241 1.391 . S
C2240 C2242 1.394 . S
C2240 H2256 0.931 . S
C2241 C2240 1.391 . S
C2241 C2245 1.376 1_455 S
C2242 C2240 1.394 . S
C2242 C2243 1.369 1_455 S
C2242 C2246 1.531 . S
C2243 C2242 1.369 1_655 S
C2243 C2244 1.410 . S
C2243 C2251 1.503 . S
C2244 C2243 1.410 . S
C2244 C2245 1.392 . S
C2244 C2247 1.511 . S
C2245 C2241 1.376 1_655 S
C2245 C2244 1.392 . S
C2245 H2257 0.929 . S
C2246 C2242 1.531 . S
C2246 H2258 0.960 . S
C2246 H2259 0.962 . S
C2246 H2260 0.960 . S
C2247 C2244 1.511 . S
C2247 H2261 0.961 . S
C2247 H2262 0.961 . S
C2247 H2263 0.961 . S
C2248 C2249 1.370 1_455 S
C2248 C2250 1.363 . S
C2248 H2264 0.931 . S
C2249 C2248 1.370 1_655 S
C2249 C2253 1.408 . S
C2250 C2248 1.363 . S
C2250 C2251 1.370 1_455 S
C2250 C2254 1.524 . S
C2251 C2243 1.503 . S
C2251 C2250 1.370 1_655 S
C2251 C2252 1.403 . S
C2252 C2251 1.403 . S
C2252 C2253 1.404 . S
C2252 C2255 1.539 . S
C2253 C2249 1.408 . S
C2253 C2252 1.404 . S
C2253 H2265 0.930 . S
C2254 C2250 1.524 . S
C2254 H2266 0.956 . S
C2254 H2267 0.961 . S
C2254 H2268 0.961 . S
C2255 C2252 1.539 . S
C2255 H2269 0.958 . S
C2255 H2270 0.961 . S
C2255 H2271 0.960 . S
H2256 C2240 0.931 . S
H2257 C2245 0.929 . S
H2258 C2246 0.960 . S
H2259 C2246 0.962 . S
H2260 C2246 0.960 . S
H2261 C2247 0.961 . S
H2262 C2247 0.961 . S
H2263 C2247 0.961 . S
H2264 C2248 0.931 . S
H2265 C2253 0.930 . S
H2266 C2254 0.956 . S
H2267 C2254 0.961 . S
H2268 C2254 0.961 . S
H2269 C2255 0.958 . S
H2270 C2255 0.961 . S
H2271 C2255 0.960 . S
C2272 C2273 1.391 . S
C2272 C2274 1.394 . S
C2272 H2288 0.931 . S
C2273 C2272 1.391 . S
C2273 C2277 1.376 . S
C2274 C2272 1.394 . S
C2274 C2275 1.369 . S
C2274 C2278 1.531 . S
C2275 C2274 1.369 . S
C2275 C2276 1.410 . S
C2275 C2283 1.503 1_565 S
C2276 C2275 1.410 . S
C2276 C2277 1.392 . S
C2276 C2279 1.511 . S
C2277 C2273 1.376 . S
C2277 C2276 1.392 . S
C2277 H2289 0.929 . S
C2278 C2274 1.531 . S
C2278 H2290 0.960 . S
C2278 H2291 0.962 . S
C2278 H2292 0.960 . S
C2279 C2276 1.511 . S
C2279 H2293 0.961 . S
C2279 H2294 0.961 1_565 S
C2279 H2295 0.961 . S
C2280 C2281 1.370 . S
C2280 C2282 1.363 . S
C2280 H2296 0.931 . S
C2281 C2280 1.370 . S
C2281 C2285 1.408 . S
C2282 C2280 1.363 . S
C2282 C2283 1.370 . S
C2282 C2286 1.524 . S
C2283 C2275 1.503 1_545 S
C2283 C2282 1.370 . S
C2283 C2284 1.403 . S
C2284 C2283 1.403 . S
C2284 C2285 1.404 . S
C2284 C2287 1.539 1_545 S
C2285 C2281 1.408 . S
C2285 C2284 1.404 . S
C2285 H2297 0.930 . S
C2286 C2282 1.524 . S
C2286 H2298 0.956 . S
C2286 H2299 0.961 . S
C2286 H2300 0.961 . S
C2287 C2284 1.539 1_565 S
C2287 H2301 0.958 . S
C2287 H2302 0.961 . S
C2287 H2303 0.960 . S
H2288 C2272 0.931 . S
H2289 C2277 0.929 . S
H2290 C2278 0.960 . S
H2291 C2278 0.962 . S
H2292 C2278 0.960 . S
H2293 C2279 0.961 . S
H2294 C2279 0.961 1_545 S
H2295 C2279 0.961 . S
H2296 C2280 0.931 . S
H2297 C2285 0.930 . S
H2298 C2286 0.956 . S
H2299 C2286 0.961 . S
H2300 C2286 0.961 . S
H2301 C2287 0.958 . S
H2302 C2287 0.961 . S
H2303 C2287 0.960 . S
C2304 C2305 1.391 1_455 S
C2304 C2306 1.394 . S
C2304 H2320 0.931 . S
C2305 C2304 1.391 1_655 S
C2305 C2309 1.376 . S
C2306 C2304 1.394 . S
C2306 C2307 1.369 1_455 S
C2306 C2310 1.531 1_554 S
C2307 C2306 1.369 1_655 S
C2307 C2308 1.410 . S
C2307 C2315 1.501 1_654 S
C2308 C2307 1.410 . S
C2308 C2309 1.392 . S
C2308 C2311 1.511 . S
C2309 C2305 1.376 . S
C2309 C2308 1.392 . S
C2309 H2321 0.929 . S
C2310 C2306 1.531 1_556 S
C2310 H2322 0.960 . S
C2310 H2323 0.962 1_556 S
C2310 H2324 0.960 . S
C2311 C2308 1.511 . S
C2311 H2325 0.961 . S
C2311 H2326 0.961 . S
C2311 H2327 0.961 1_554 S
C2312 C2313 1.370 . S
C2312 C2314 1.363 1_556 S
C2312 H2328 0.931 1_556 S
C2313 C2312 1.370 . S
C2313 C2317 1.410 . S
C2314 C2312 1.363 1_554 S
C2314 C2315 1.375 1_554 S
C2314 C2318 1.524 . S
C2315 C2307 1.501 1_456 S
C2315 C2314 1.375 1_556 S
C2315 C2316 1.401 1_455 S
C2316 C2315 1.401 1_655 S
C2316 C2317 1.403 1_655 S
C2316 C2319 1.539 . S
C2317 C2313 1.410 . S
C2317 C2316 1.403 1_455 S
C2317 H2329 0.929 1_455 S
C2318 C2314 1.524 . S
C2318 H2330 0.956 . S
C2318 H2331 0.961 1_455 S
C2318 H2332 0.961 . S
C2319 C2316 1.539 . S
C2319 H2333 0.958 1_655 S
C2319 H2334 0.961 . S
C2319 H2335 0.960 . S
H2320 C2304 0.931 . S
H2321 C2309 0.929 . S
H2322 C2310 0.960 . S
H2323 C2310 0.962 1_554 S
H2324 C2310 0.960 . S
H2325 C2311 0.961 . S
H2326 C2311 0.961 . S
H2327 C2311 0.961 1_556 S
H2328 C2312 0.931 1_554 S
H2329 C2317 0.929 1_655 S
H2330 C2318 0.956 . S
H2331 C2318 0.961 1_655 S
H2332 C2318 0.961 . S
H2333 C2319 0.958 1_455 S
H2334 C2319 0.961 . S
H2335 C2319 0.960 . S
C2336 C2337 1.391 . S
C2336 C2338 1.394 . S
C2336 H2352 0.931 . S
C2337 C2336 1.391 . S
C2337 C2341 1.376 . S
C2338 C2336 1.394 . S
C2338 C2339 1.369 . S
C2338 C2342 1.531 . S
C2339 C2338 1.369 . S
C2339 C2340 1.410 . S
C2339 C2347 1.503 1_556 S
C2340 C2339 1.410 . S
C2340 C2341 1.392 . S
C2340 C2343 1.511 1_556 S
C2341 C2337 1.376 . S
C2341 C2340 1.392 . S
C2341 H2353 0.929 . S
C2342 C2338 1.531 . S
C2342 H2354 0.960 . S
C2342 H2355 0.962 . S
C2342 H2356 0.960 . S
C2343 C2340 1.511 1_554 S
C2343 H2357 0.961 . S
C2343 H2358 0.961 . S
C2343 H2359 0.961 . S
C2344 C2345 1.370 . S
C2344 C2346 1.363 . S
C2344 H2360 0.931 . S
C2345 C2344 1.370 . S
C2345 C2349 1.408 . S
C2346 C2344 1.363 . S
C2346 C2347 1.370 . S
C2346 C2350 1.524 . S
C2347 C2339 1.503 1_554 S
C2347 C2346 1.370 . S
C2347 C2348 1.403 1_554 S
C2348 C2347 1.403 1_556 S
C2348 C2349 1.404 1_556 S
C2348 C2351 1.539 . S
C2349 C2345 1.408 . S
C2349 C2348 1.404 1_554 S
C2349 H2361 0.930 . S
C2350 C2346 1.524 . S
C2350 H2362 0.956 . S
C2350 H2363 0.961 . S
C2350 H2364 0.961 . S
C2351 C2348 1.539 . S
C2351 H2365 0.958 . S
C2351 H2366 0.961 . S
C2351 H2367 0.960 . S
H2352 C2336 0.931 . S
H2353 C2341 0.929 . S
H2354 C2342 0.960 . S
H2355 C2342 0.962 . S
H2356 C2342 0.960 . S
H2357 C2343 0.961 . S
H2358 C2343 0.961 . S
H2359 C2343 0.961 . S
H2360 C2344 0.931 . S
H2361 C2349 0.930 . S
H2362 C2350 0.956 . S
H2363 C2350 0.961 . S
H2364 C2350 0.961 . S
H2365 C2351 0.958 . S
H2366 C2351 0.961 . S
H2367 C2351 0.960 . S
C2368 C2369 1.391 . S
C2368 C2370 1.394 . S
C2368 H2384 0.931 . S
C2369 C2368 1.391 . S
C2369 C2373 1.376 . S
C2370 C2368 1.394 . S
C2370 C2371 1.369 . S
C2370 C2374 1.531 . S
C2371 C2370 1.369 . S
C2371 C2372 1.410 . S
C2371 C2379 1.503 . S
C2372 C2371 1.410 . S
C2372 C2373 1.392 . S
C2372 C2375 1.511 . S
C2373 C2369 1.376 . S
C2373 C2372 1.392 . S
C2373 H2385 0.929 . S
C2374 C2370 1.531 . S
C2374 H2386 0.960 . S
C2374 H2387 0.962 . S
C2374 H2388 0.960 . S
C2375 C2372 1.511 . S
C2375 H2389 0.961 . S
C2375 H2390 0.961 . S
C2375 H2391 0.961 . S
C2376 C2377 1.370 . S
C2376 C2378 1.363 . S
C2376 H2392 0.931 . S
C2377 C2376 1.370 . S
C2377 C2381 1.408 . S
C2378 C2376 1.363 . S
C2378 C2379 1.370 . S
C2378 C2382 1.524 . S
C2379 C2371 1.503 . S
C2379 C2378 1.370 . S
C2379 C2380 1.403 . S
C2380 C2379 1.403 . S
C2380 C2381 1.404 . S
C2380 C2383 1.539 . S
C2381 C2377 1.408 . S
C2381 C2380 1.404 . S
C2381 H2393 0.930 . S
C2382 C2378 1.524 . S
C2382 H2394 0.956 . S
C2382 H2395 0.961 . S
C2382 H2396 0.961 . S
C2383 C2380 1.539 . S
C2383 H2397 0.958 . S
C2383 H2398 0.961 . S
C2383 H2399 0.960 . S
H2384 C2368 0.931 . S
H2385 C2373 0.929 . S
H2386 C2374 0.960 . S
H2387 C2374 0.962 . S
H2388 C2374 0.960 . S
H2389 C2375 0.961 . S
H2390 C2375 0.961 . S
H2391 C2375 0.961 . S
H2392 C2376 0.931 . S
H2393 C2381 0.930 . S
H2394 C2382 0.956 . S
H2395 C2382 0.961 . S
H2396 C2382 0.961 . S
H2397 C2383 0.958 . S
H2398 C2383 0.961 . S
H2399 C2383 0.960 . S
C2400 C2401 1.391 . S
C2400 C2402 1.394 . S
C2400 H2416 0.931 . S
C2401 C2400 1.391 . S
C2401 C2405 1.376 . S
C2402 C2400 1.394 . S
C2402 C2403 1.369 . S
C2402 C2406 1.531 . S
C2403 C2402 1.369 . S
C2403 C2404 1.410 . S
C2403 C2411 1.503 1_556 S
C2404 C2403 1.410 . S
C2404 C2405 1.392 . S
C2404 C2407 1.511 1_556 S
C2405 C2401 1.376 . S
C2405 C2404 1.392 . S
C2405 H2417 0.929 . S
C2406 C2402 1.531 . S
C2406 H2418 0.960 . S
C2406 H2419 0.962 . S
C2406 H2420 0.960 . S
C2407 C2404 1.511 1_554 S
C2407 H2421 0.961 . S
C2407 H2422 0.961 . S
C2407 H2423 0.961 . S
C2408 C2409 1.370 . S
C2408 C2410 1.363 . S
C2408 H2424 0.931 . S
C2409 C2408 1.370 . S
C2409 C2413 1.408 . S
C2410 C2408 1.363 . S
C2410 C2411 1.370 . S
C2410 C2414 1.524 . S
C2411 C2403 1.503 1_554 S
C2411 C2410 1.370 . S
C2411 C2412 1.403 1_554 S
C2412 C2411 1.403 1_556 S
C2412 C2413 1.404 1_556 S
C2412 C2415 1.539 . S
C2413 C2409 1.408 . S
C2413 C2412 1.404 1_554 S
C2413 H2425 0.930 . S
C2414 C2410 1.524 . S
C2414 H2426 0.956 . S
C2414 H2427 0.961 . S
C2414 H2428 0.961 . S
C2415 C2412 1.539 . S
C2415 H2429 0.958 . S
C2415 H2430 0.961 . S
C2415 H2431 0.960 . S
H2416 C2400 0.931 . S
H2417 C2405 0.929 . S
H2418 C2406 0.960 . S
H2419 C2406 0.962 . S
H2420 C2406 0.960 . S
H2421 C2407 0.961 . S
H2422 C2407 0.961 . S
H2423 C2407 0.961 . S
H2424 C2408 0.931 . S
H2425 C2413 0.930 . S
H2426 C2414 0.956 . S
H2427 C2414 0.961 . S
H2428 C2414 0.961 . S
H2429 C2415 0.958 . S
H2430 C2415 0.961 . S
H2431 C2415 0.960 . S
C2432 C2433 1.391 . S
C2432 C2434 1.394 . S
C2432 H2448 0.931 . S
C2433 C2432 1.391 . S
C2433 C2437 1.376 . S
C2434 C2432 1.394 . S
C2434 C2435 1.369 . S
C2434 C2438 1.531 . S
C2435 C2434 1.369 . S
C2435 C2436 1.410 . S
C2435 C2443 1.503 . S
C2436 C2435 1.410 . S
C2436 C2437 1.392 . S
C2436 C2439 1.511 . S
C2437 C2433 1.376 . S
C2437 C2436 1.392 . S
C2437 H2449 0.929 . S
C2438 C2434 1.531 . S
C2438 H2450 0.960 . S
C2438 H2451 0.962 . S
C2438 H2452 0.960 . S
C2439 C2436 1.511 . S
C2439 H2453 0.961 . S
C2439 H2454 0.961 . S
C2439 H2455 0.961 . S
C2440 C2441 1.370 . S
C2440 C2442 1.363 . S
C2440 H2456 0.931 . S
C2441 C2440 1.370 . S
C2441 C2445 1.408 . S
C2442 C2440 1.363 . S
C2442 C2443 1.370 . S
C2442 C2446 1.524 . S
C2443 C2435 1.503 . S
C2443 C2442 1.370 . S
C2443 C2444 1.403 . S
C2444 C2443 1.403 . S
C2444 C2445 1.404 . S
C2444 C2447 1.539 . S
C2445 C2441 1.408 . S
C2445 C2444 1.404 . S
C2445 H2457 0.930 . S
C2446 C2442 1.524 . S
C2446 H2458 0.956 . S
C2446 H2459 0.961 . S
C2446 H2460 0.961 . S
C2447 C2444 1.539 . S
C2447 H2461 0.958 . S
C2447 H2462 0.961 . S
C2447 H2463 0.960 . S
H2448 C2432 0.931 . S
H2449 C2437 0.929 . S
H2450 C2438 0.960 . S
H2451 C2438 0.962 . S
H2452 C2438 0.960 . S
H2453 C2439 0.961 . S
H2454 C2439 0.961 . S
H2455 C2439 0.961 . S
H2456 C2440 0.931 . S
H2457 C2445 0.930 . S
H2458 C2446 0.956 . S
H2459 C2446 0.961 . S
H2460 C2446 0.961 . S
H2461 C2447 0.958 . S
H2462 C2447 0.961 . S
H2463 C2447 0.960 . S
C2464 C2465 1.391 . S
C2464 C2466 1.394 . S
C2464 H2480 0.931 . S
C2465 C2464 1.391 . S
C2465 C2469 1.376 . S
C2466 C2464 1.394 . S
C2466 C2467 1.369 . S
C2466 C2470 1.531 1_545 S
C2467 C2466 1.369 . S
C2467 C2468 1.410 1_556 S
C2467 C2475 1.503 1_546 S
C2468 C2467 1.410 1_554 S
C2468 C2469 1.392 1_554 S
C2468 C2471 1.511 . S
C2469 C2465 1.376 . S
C2469 C2468 1.392 1_556 S
C2469 H2481 0.929 . S
C2470 C2466 1.531 1_565 S
C2470 H2482 0.960 . S
C2470 H2483 0.962 . S
C2470 H2484 0.958 1_565 S
C2471 C2468 1.511 . S
C2471 H2485 0.961 . S
C2471 H2486 0.961 . S
C2471 H2487 0.961 . S
C2472 C2473 1.370 . S
C2472 C2474 1.371 . S
C2472 H2488 0.931 . S
C2473 C2472 1.370 . S
C2473 C2477 1.408 . S
C2474 C2472 1.371 . S
C2474 C2475 1.377 . S
C2474 C2478 1.511 1_554 S
C2475 C2467 1.503 1_564 S
C2475 C2474 1.377 . S
C2475 C2476 1.403 . S
C2476 C2475 1.403 . S
C2476 C2477 1.404 . S
C2476 C2479 1.539 1_565 S
C2477 C2473 1.408 . S
C2477 C2476 1.404 . S
C2477 H2489 0.930 . S
C2478 C2474 1.511 1_556 S
C2478 H2490 0.956 . S
C2478 H2491 0.961 . S
C2478 H2492 0.961 . S
C2479 C2476 1.539 1_545 S
C2479 H2493 0.956 1_545 S
C2479 H2494 0.962 . S
C2479 H2495 0.960 . S
H2480 C2464 0.931 . S
H2481 C2469 0.929 . S
H2482 C2470 0.960 . S
H2483 C2470 0.962 . S
H2484 C2470 0.958 1_545 S
H2485 C2471 0.961 . S
H2486 C2471 0.961 . S
H2487 C2471 0.961 . S
H2488 C2472 0.931 . S
H2489 C2477 0.930 . S
H2490 C2478 0.956 . S
H2491 C2478 0.961 . S
H2492 C2478 0.961 . S
H2493 C2479 0.956 1_565 S
H2494 C2479 0.962 . S
H2495 C2479 0.960 . S
C2496 C2497 1.391 . S
C2496 C2498 1.394 . S
C2496 H2512 0.931 . S
C2497 C2496 1.391 . S
C2497 C2501 1.376 . S
C2498 C2496 1.394 . S
C2498 C2499 1.369 . S
C2498 C2502 1.531 . S
C2499 C2498 1.369 . S
C2499 C2500 1.410 . S
C2499 C2507 1.503 . S
C2500 C2499 1.410 . S
C2500 C2501 1.392 . S
C2500 C2503 1.511 . S
C2501 C2497 1.376 . S
C2501 C2500 1.392 . S
C2501 H2513 0.929 . S
C2502 C2498 1.531 . S
C2502 H2514 0.960 . S
C2502 H2515 0.962 . S
C2502 H2516 0.960 . S
C2503 C2500 1.511 . S
C2503 H2517 0.961 . S
C2503 H2518 0.961 . S
C2503 H2519 0.961 . S
C2504 C2505 1.370 . S
C2504 C2506 1.363 . S
C2504 H2520 0.931 . S
C2505 C2504 1.370 . S
C2505 C2509 1.408 . S
C2506 C2504 1.363 . S
C2506 C2507 1.370 . S
C2506 C2510 1.524 . S
C2507 C2499 1.503 . S
C2507 C2506 1.370 . S
C2507 C2508 1.403 . S
C2508 C2507 1.403 . S
C2508 C2509 1.404 . S
C2508 C2511 1.539 . S
C2509 C2505 1.408 . S
C2509 C2508 1.404 . S
C2509 H2521 0.930 . S
C2510 C2506 1.524 . S
C2510 H2522 0.956 . S
C2510 H2523 0.961 . S
C2510 H2524 0.961 . S
C2511 C2508 1.539 . S
C2511 H2525 0.958 . S
C2511 H2526 0.961 . S
C2511 H2527 0.960 . S
H2512 C2496 0.931 . S
H2513 C2501 0.929 . S
H2514 C2502 0.960 . S
H2515 C2502 0.962 . S
H2516 C2502 0.960 . S
H2517 C2503 0.961 . S
H2518 C2503 0.961 . S
H2519 C2503 0.961 . S
H2520 C2504 0.931 . S
H2521 C2509 0.930 . S
H2522 C2510 0.956 . S
H2523 C2510 0.961 . S
H2524 C2510 0.961 . S
H2525 C2511 0.958 . S
H2526 C2511 0.961 . S
H2527 C2511 0.960 . S
C2528 C2529 1.391 . S
C2528 C2530 1.394 . S
C2528 H2544 0.931 . S
C2529 C2528 1.391 . S
C2529 C2533 1.376 . S
C2530 C2528 1.394 . S
C2530 C2531 1.369 . S
C2530 C2534 1.531 . S
C2531 C2530 1.369 . S
C2531 C2532 1.410 . S
C2531 C2539 1.503 . S
C2532 C2531 1.410 . S
C2532 C2533 1.392 . S
C2532 C2535 1.511 . S
C2533 C2529 1.376 . S
C2533 C2532 1.392 . S
C2533 H2545 0.929 . S
C2534 C2530 1.531 . S
C2534 H2546 0.960 . S
C2534 H2547 0.962 . S
C2534 H2548 0.960 . S
C2535 C2532 1.511 . S
C2535 H2549 0.961 . S
C2535 H2550 0.961 . S
C2535 H2551 0.961 . S
C2536 C2537 1.370 . S
C2536 C2538 1.363 . S
C2536 H2552 0.931 . S
C2537 C2536 1.370 . S
C2537 C2541 1.408 . S
C2538 C2536 1.363 . S
C2538 C2539 1.370 . S
C2538 C2542 1.524 . S
C2539 C2531 1.503 . S
C2539 C2538 1.370 . S
C2539 C2540 1.403 . S
C2540 C2539 1.403 . S
C2540 C2541 1.404 . S
C2540 C2543 1.539 . S
C2541 C2537 1.408 . S
C2541 C2540 1.404 . S
C2541 H2553 0.930 . S
C2542 C2538 1.524 . S
C2542 H2554 0.956 . S
C2542 H2555 0.961 . S
C2542 H2556 0.961 . S
C2543 C2540 1.539 . S
C2543 H2557 0.958 . S
C2543 H2558 0.961 . S
C2543 H2559 0.960 . S
H2544 C2528 0.931 . S
H2545 C2533 0.929 . S
H2546 C2534 0.960 . S
H2547 C2534 0.962 . S
H2548 C2534 0.960 . S
H2549 C2535 0.961 . S
H2550 C2535 0.961 . S
H2551 C2535 0.961 . S
H2552 C2536 0.931 . S
H2553 C2541 0.930 . S
H2554 C2542 0.956 . S
H2555 C2542 0.961 . S
H2556 C2542 0.961 . S
H2557 C2543 0.958 . S
H2558 C2543 0.961 . S
H2559 C2543 0.960 . S
C2560 C2561 1.391 . S
C2560 C2562 1.394 . S
C2560 H2576 0.931 . S
C2561 C2560 1.391 . S
C2561 C2565 1.376 . S
C2562 C2560 1.394 . S
C2562 C2563 1.369 . S
C2562 C2566 1.531 . S
C2563 C2562 1.369 . S
C2563 C2564 1.410 . S
C2563 C2571 1.503 . S
C2564 C2563 1.410 . S
C2564 C2565 1.392 . S
C2564 C2567 1.511 . S
C2565 C2561 1.376 . S
C2565 C2564 1.392 . S
C2565 H2577 0.929 . S
C2566 C2562 1.531 . S
C2566 H2578 0.960 . S
C2566 H2579 0.962 . S
C2566 H2580 0.960 . S
C2567 C2564 1.511 . S
C2567 H2581 0.961 . S
C2567 H2582 0.961 . S
C2567 H2583 0.961 . S
C2568 C2569 1.370 . S
C2568 C2570 1.363 . S
C2568 H2584 0.931 . S
C2569 C2568 1.370 . S
C2569 C2573 1.408 . S
C2570 C2568 1.363 . S
C2570 C2571 1.370 . S
C2570 C2574 1.524 . S
C2571 C2563 1.503 . S
C2571 C2570 1.370 . S
C2571 C2572 1.403 . S
C2572 C2571 1.403 . S
C2572 C2573 1.404 . S
C2572 C2575 1.539 . S
C2573 C2569 1.408 . S
C2573 C2572 1.404 . S
C2573 H2585 0.930 . S
C2574 C2570 1.524 . S
C2574 H2586 0.956 . S
C2574 H2587 0.961 . S
C2574 H2588 0.961 . S
C2575 C2572 1.539 . S
C2575 H2589 0.958 . S
C2575 H2590 0.961 . S
C2575 H2591 0.960 . S
H2576 C2560 0.931 . S
H2577 C2565 0.929 . S
H2578 C2566 0.960 . S
H2579 C2566 0.962 . S
H2580 C2566 0.960 . S
H2581 C2567 0.961 . S
H2582 C2567 0.961 . S
H2583 C2567 0.961 . S
H2584 C2568 0.931 . S
H2585 C2573 0.930 . S
H2586 C2574 0.956 . S
H2587 C2574 0.961 . S
H2588 C2574 0.961 . S
H2589 C2575 0.958 . S
H2590 C2575 0.961 . S
H2591 C2575 0.960 . S
C2592 C2593 1.391 . S
C2592 C2594 1.394 . S
C2592 H2608 0.931 . S
C2593 C2592 1.391 . S
C2593 C2597 1.376 . S
C2594 C2592 1.394 . S
C2594 C2595 1.369 . S
C2594 C2598 1.531 . S
C2595 C2594 1.369 . S
C2595 C2596 1.410 . S
C2595 C2603 1.503 . S
C2596 C2595 1.410 . S
C2596 C2597 1.392 . S
C2596 C2599 1.511 . S
C2597 C2593 1.376 . S
C2597 C2596 1.392 . S
C2597 H2609 0.929 . S
C2598 C2594 1.531 . S
C2598 H2610 0.960 . S
C2598 H2611 0.962 . S
C2598 H2612 0.960 . S
C2599 C2596 1.511 . S
C2599 H2613 0.961 . S
C2599 H2614 0.961 . S
C2599 H2615 0.961 . S
C2600 C2601 1.370 . S
C2600 C2602 1.363 . S
C2600 H2616 0.931 . S
C2601 C2600 1.370 . S
C2601 C2605 1.408 . S
C2602 C2600 1.363 . S
C2602 C2603 1.370 . S
C2602 C2606 1.524 . S
C2603 C2595 1.503 . S
C2603 C2602 1.370 . S
C2603 C2604 1.403 . S
C2604 C2603 1.403 . S
C2604 C2605 1.404 . S
C2604 C2607 1.539 . S
C2605 C2601 1.408 . S
C2605 C2604 1.404 . S
C2605 H2617 0.930 . S
C2606 C2602 1.524 . S
C2606 H2618 0.956 . S
C2606 H2619 0.961 . S
C2606 H2620 0.961 . S
C2607 C2604 1.539 . S
C2607 H2621 0.958 . S
C2607 H2622 0.961 . S
C2607 H2623 0.960 . S
H2608 C2592 0.931 . S
H2609 C2597 0.929 . S
H2610 C2598 0.960 . S
H2611 C2598 0.962 . S
H2612 C2598 0.960 . S
H2613 C2599 0.961 . S
H2614 C2599 0.961 . S
H2615 C2599 0.961 . S
H2616 C2600 0.931 . S
H2617 C2605 0.930 . S
H2618 C2606 0.956 . S
H2619 C2606 0.961 . S
H2620 C2606 0.961 . S
H2621 C2607 0.958 . S
H2622 C2607 0.961 . S
H2623 C2607 0.960 . S
C2624 C2625 1.391 . S
C2624 C2626 1.394 . S
C2624 H2640 0.931 . S
C2625 C2624 1.391 . S
C2625 C2629 1.376 . S
C2626 C2624 1.394 . S
C2626 C2627 1.369 . S
C2626 C2630 1.531 . S
C2627 C2626 1.369 . S
C2627 C2628 1.410 . S
C2627 C2635 1.503 . S
C2628 C2627 1.410 . S
C2628 C2629 1.392 . S
C2628 C2631 1.511 . S
C2629 C2625 1.376 . S
C2629 C2628 1.392 . S
C2629 H2641 0.929 . S
C2630 C2626 1.531 . S
C2630 H2642 0.960 . S
C2630 H2643 0.962 . S
C2630 H2644 0.960 . S
C2631 C2628 1.511 . S
C2631 H2645 0.961 . S
C2631 H2646 0.961 . S
C2631 H2647 0.961 . S
C2632 C2633 1.370 . S
C2632 C2634 1.363 . S
C2632 H2648 0.931 . S
C2633 C2632 1.370 . S
C2633 C2637 1.408 . S
C2634 C2632 1.363 . S
C2634 C2635 1.370 . S
C2634 C2638 1.524 . S
C2635 C2627 1.503 . S
C2635 C2634 1.370 . S
C2635 C2636 1.403 . S
C2636 C2635 1.403 . S
C2636 C2637 1.404 . S
C2636 C2639 1.539 . S
C2637 C2633 1.408 . S
C2637 C2636 1.404 . S
C2637 H2649 0.930 . S
C2638 C2634 1.524 . S
C2638 H2650 0.956 . S
C2638 H2651 0.961 . S
C2638 H2652 0.961 . S
C2639 C2636 1.539 . S
C2639 H2653 0.958 . S
C2639 H2654 0.961 . S
C2639 H2655 0.960 . S
H2640 C2624 0.931 . S
H2641 C2629 0.929 . S
H2642 C2630 0.960 . S
H2643 C2630 0.962 . S
H2644 C2630 0.960 . S
H2645 C2631 0.961 . S
H2646 C2631 0.961 . S
H2647 C2631 0.961 . S
H2648 C2632 0.931 . S
H2649 C2637 0.930 . S
H2650 C2638 0.956 . S
H2651 C2638 0.961 . S
H2652 C2638 0.961 . S
H2653 C2639 0.958 . S
H2654 C2639 0.961 . S
H2655 C2639 0.960 . S
C2656 C2657 1.391 . S
C2656 C2658 1.394 . S
C2656 H2672 0.931 . S
C2657 C2656 1.391 . S
C2657 C2661 1.376 . S
C2658 C2656 1.394 . S
C2658 C2659 1.369 . S
C2658 C2662 1.531 . S
C2659 C2658 1.369 . S
C2659 C2660 1.410 . S
C2659 C2667 1.503 . S
C2660 C2659 1.410 . S
C2660 C2661 1.392 . S
C2660 C2663 1.511 . S
C2661 C2657 1.376 . S
C2661 C2660 1.392 . S
C2661 H2673 0.929 . S
C2662 C2658 1.531 . S
C2662 H2674 0.960 . S
C2662 H2675 0.962 . S
C2662 H2676 0.960 . S
C2663 C2660 1.511 . S
C2663 H2677 0.961 . S
C2663 H2678 0.961 . S
C2663 H2679 0.961 . S
C2664 C2665 1.370 . S
C2664 C2666 1.363 . S
C2664 H2680 0.931 . S
C2665 C2664 1.370 . S
C2665 C2669 1.408 . S
C2666 C2664 1.363 . S
C2666 C2667 1.370 . S
C2666 C2670 1.524 . S
C2667 C2659 1.503 . S
C2667 C2666 1.370 . S
C2667 C2668 1.403 . S
C2668 C2667 1.403 . S
C2668 C2669 1.404 . S
C2668 C2671 1.539 . S
C2669 C2665 1.408 . S
C2669 C2668 1.404 . S
C2669 H2681 0.930 . S
C2670 C2666 1.524 . S
C2670 H2682 0.956 . S
C2670 H2683 0.961 . S
C2670 H2684 0.961 . S
C2671 C2668 1.539 . S
C2671 H2685 0.958 . S
C2671 H2686 0.961 . S
C2671 H2687 0.960 . S
H2672 C2656 0.931 . S
H2673 C2661 0.929 . S
H2674 C2662 0.960 . S
H2675 C2662 0.962 . S
H2676 C2662 0.960 . S
H2677 C2663 0.961 . S
H2678 C2663 0.961 . S
H2679 C2663 0.961 . S
H2680 C2664 0.931 . S
H2681 C2669 0.930 . S
H2682 C2670 0.956 . S
H2683 C2670 0.961 . S
H2684 C2670 0.961 . S
H2685 C2671 0.958 . S
H2686 C2671 0.961 . S
H2687 C2671 0.960 . S
C2688 C2689 1.391 . S
C2688 C2690 1.394 . S
C2688 H2704 0.931 . S
C2689 C2688 1.391 . S
C2689 C2693 1.376 . S
C2690 C2688 1.394 . S
C2690 C2691 1.369 . S
C2690 C2694 1.531 . S
C2691 C2690 1.369 . S
C2691 C2692 1.410 . S
C2691 C2699 1.503 . S
C2692 C2691 1.410 . S
C2692 C2693 1.392 . S
C2692 C2695 1.511 . S
C2693 C2689 1.376 . S
C2693 C2692 1.392 . S
C2693 H2705 0.929 . S
C2694 C2690 1.531 . S
C2694 H2706 0.960 . S
C2694 H2707 0.962 . S
C2694 H2708 0.960 . S
C2695 C2692 1.511 . S
C2695 H2709 0.961 . S
C2695 H2710 0.961 . S
C2695 H2711 0.961 . S
C2696 C2697 1.370 . S
C2696 C2698 1.363 . S
C2696 H2712 0.931 . S
C2697 C2696 1.370 . S
C2697 C2701 1.408 . S
C2698 C2696 1.363 . S
C2698 C2699 1.370 . S
C2698 C2702 1.524 . S
C2699 C2691 1.503 . S
C2699 C2698 1.370 . S
C2699 C2700 1.403 . S
C2700 C2699 1.403 . S
C2700 C2701 1.404 . S
C2700 C2703 1.539 . S
C2701 C2697 1.408 . S
C2701 C2700 1.404 . S
C2701 H2713 0.930 . S
C2702 C2698 1.524 . S
C2702 H2714 0.956 . S
C2702 H2715 0.961 . S
C2702 H2716 0.961 . S
C2703 C2700 1.539 . S
C2703 H2717 0.958 . S
C2703 H2718 0.961 . S
C2703 H2719 0.960 . S
H2704 C2688 0.931 . S
H2705 C2693 0.929 . S
H2706 C2694 0.960 . S
H2707 C2694 0.962 . S
H2708 C2694 0.960 . S
H2709 C2695 0.961 . S
H2710 C2695 0.961 . S
H2711 C2695 0.961 . S
H2712 C2696 0.931 . S
H2713 C2701 0.930 . S
H2714 C2702 0.956 . S
H2715 C2702 0.961 . S
H2716 C2702 0.961 . S
H2717 C2703 0.958 . S
H2718 C2703 0.961 . S
H2719 C2703 0.960 . S
C2720 C2721 1.391 . S
C2720 C2722 1.394 . S
C2720 H2736 0.931 . S
C2721 C2720 1.391 . S
C2721 C2725 1.376 . S
C2722 C2720 1.394 . S
C2722 C2723 1.369 . S
C2722 C2726 1.531 . S
C2723 C2722 1.369 . S
C2723 C2724 1.410 . S
C2723 C2731 1.503 . S
C2724 C2723 1.410 . S
C2724 C2725 1.392 . S
C2724 C2727 1.511 . S
C2725 C2721 1.376 . S
C2725 C2724 1.392 . S
C2725 H2737 0.929 . S
C2726 C2722 1.531 . S
C2726 H2738 0.960 . S
C2726 H2739 0.962 . S
C2726 H2740 0.960 . S
C2727 C2724 1.511 . S
C2727 H2741 0.961 . S
C2727 H2742 0.961 . S
C2727 H2743 0.961 . S
C2728 C2729 1.370 . S
C2728 C2730 1.363 . S
C2728 H2744 0.931 . S
C2729 C2728 1.370 . S
C2729 C2733 1.408 . S
C2730 C2728 1.363 . S
C2730 C2731 1.370 . S
C2730 C2734 1.524 . S
C2731 C2723 1.503 . S
C2731 C2730 1.370 . S
C2731 C2732 1.403 . S
C2732 C2731 1.403 . S
C2732 C2733 1.404 . S
C2732 C2735 1.539 . S
C2733 C2729 1.408 . S
C2733 C2732 1.404 . S
C2733 H2745 0.930 . S
C2734 C2730 1.524 . S
C2734 H2746 0.956 . S
C2734 H2747 0.961 . S
C2734 H2748 0.961 . S
C2735 C2732 1.539 . S
C2735 H2749 0.958 . S
C2735 H2750 0.961 . S
C2735 H2751 0.960 . S
H2736 C2720 0.931 . S
H2737 C2725 0.929 . S
H2738 C2726 0.960 . S
H2739 C2726 0.962 . S
H2740 C2726 0.960 . S
H2741 C2727 0.961 . S
H2742 C2727 0.961 . S
H2743 C2727 0.961 . S
H2744 C2728 0.931 . S
H2745 C2733 0.930 . S
H2746 C2734 0.956 . S
H2747 C2734 0.961 . S
H2748 C2734 0.961 . S
H2749 C2735 0.958 . S
H2750 C2735 0.961 . S
H2751 C2735 0.960 . S
C2752 C2753 1.391 . S
C2752 C2754 1.394 . S
C2752 H2768 0.931 . S
C2753 C2752 1.391 . S
C2753 C2757 1.376 . S
C2754 C2752 1.394 . S
C2754 C2755 1.369 . S
C2754 C2758 1.531 . S
C2755 C2754 1.369 . S
C2755 C2756 1.410 . S
C2755 C2763 1.503 . S
C2756 C2755 1.410 . S
C2756 C2757 1.392 . S
C2756 C2759 1.511 . S
C2757 C2753 1.376 . S
C2757 C2756 1.392 . S
C2757 H2769 0.929 . S
C2758 C2754 1.531 . S
C2758 H2770 0.960 . S
C2758 H2771 0.962 . S
C2758 H2772 0.960 . S
C2759 C2756 1.511 . S
C2759 H2773 0.961 . S
C2759 H2774 0.961 . S
C2759 H2775 0.961 . S
C2760 C2761 1.370 . S
C2760 C2762 1.363 . S
C2760 H2776 0.931 . S
C2761 C2760 1.370 . S
C2761 C2765 1.408 . S
C2762 C2760 1.363 . S
C2762 C2763 1.370 . S
C2762 C2766 1.524 . S
C2763 C2755 1.503 . S
C2763 C2762 1.370 . S
C2763 C2764 1.403 . S
C2764 C2763 1.403 . S
C2764 C2765 1.404 . S
C2764 C2767 1.539 . S
C2765 C2761 1.408 . S
C2765 C2764 1.404 . S
C2765 H2777 0.930 . S
C2766 C2762 1.524 . S
C2766 H2778 0.956 . S
C2766 H2779 0.961 . S
C2766 H2780 0.961 . S
C2767 C2764 1.539 . S
C2767 H2781 0.958 . S
C2767 H2782 0.961 . S
C2767 H2783 0.960 . S
H2768 C2752 0.931 . S
H2769 C2757 0.929 . S
H2770 C2758 0.960 . S
H2771 C2758 0.962 . S
H2772 C2758 0.960 . S
H2773 C2759 0.961 . S
H2774 C2759 0.961 . S
H2775 C2759 0.961 . S
H2776 C2760 0.931 . S
H2777 C2765 0.930 . S
H2778 C2766 0.956 . S
H2779 C2766 0.961 . S
H2780 C2766 0.961 . S
H2781 C2767 0.958 . S
H2782 C2767 0.961 . S
H2783 C2767 0.960 . S
C2784 C2785 1.391 . S
C2784 C2786 1.394 . S
C2784 H2800 0.931 . S
C2785 C2784 1.391 . S
C2785 C2789 1.376 . S
C2786 C2784 1.394 . S
C2786 C2787 1.369 . S
C2786 C2790 1.531 . S
C2787 C2786 1.369 . S
C2787 C2788 1.410 . S
C2787 C2795 1.503 . S
C2788 C2787 1.410 . S
C2788 C2789 1.392 . S
C2788 C2791 1.511 . S
C2789 C2785 1.376 . S
C2789 C2788 1.392 . S
C2789 H2801 0.929 . S
C2790 C2786 1.531 . S
C2790 H2802 0.960 . S
C2790 H2803 0.962 . S
C2790 H2804 0.960 . S
C2791 C2788 1.511 . S
C2791 H2805 0.961 . S
C2791 H2806 0.961 . S
C2791 H2807 0.961 . S
C2792 C2793 1.370 . S
C2792 C2794 1.363 . S
C2792 H2808 0.931 . S
C2793 C2792 1.370 . S
C2793 C2797 1.408 . S
C2794 C2792 1.363 . S
C2794 C2795 1.370 . S
C2794 C2798 1.524 . S
C2795 C2787 1.503 . S
C2795 C2794 1.370 . S
C2795 C2796 1.403 . S
C2796 C2795 1.403 . S
C2796 C2797 1.404 . S
C2796 C2799 1.539 . S
C2797 C2793 1.408 . S
C2797 C2796 1.404 . S
C2797 H2809 0.930 . S
C2798 C2794 1.524 . S
C2798 H2810 0.956 . S
C2798 H2811 0.961 . S
C2798 H2812 0.961 . S
C2799 C2796 1.539 . S
C2799 H2813 0.958 . S
C2799 H2814 0.961 . S
C2799 H2815 0.960 . S
H2800 C2784 0.931 . S
H2801 C2789 0.929 . S
H2802 C2790 0.960 . S
H2803 C2790 0.962 . S
H2804 C2790 0.960 . S
H2805 C2791 0.961 . S
H2806 C2791 0.961 . S
H2807 C2791 0.961 . S
H2808 C2792 0.931 . S
H2809 C2797 0.930 . S
H2810 C2798 0.956 . S
H2811 C2798 0.961 . S
H2812 C2798 0.961 . S
H2813 C2799 0.958 . S
H2814 C2799 0.961 . S
H2815 C2799 0.960 . S
C2816 C2817 1.391 . S
C2816 C2818 1.394 . S
C2816 H2832 0.931 . S
C2817 C2816 1.391 . S
C2817 C2821 1.376 . S
C2818 C2816 1.394 . S
C2818 C2819 1.369 . S
C2818 C2822 1.531 . S
C2819 C2818 1.369 . S
C2819 C2820 1.410 . S
C2819 C2827 1.503 . S
C2820 C2819 1.410 . S
C2820 C2821 1.392 . S
C2820 C2823 1.511 . S
C2821 C2817 1.376 . S
C2821 C2820 1.392 . S
C2821 H2833 0.929 . S
C2822 C2818 1.531 . S
C2822 H2834 0.960 . S
C2822 H2835 0.962 . S
C2822 H2836 0.960 . S
C2823 C2820 1.511 . S
C2823 H2837 0.961 . S
C2823 H2838 0.961 . S
C2823 H2839 0.961 . S
C2824 C2825 1.370 . S
C2824 C2826 1.363 . S
C2824 H2840 0.931 . S
C2825 C2824 1.370 . S
C2825 C2829 1.408 . S
C2826 C2824 1.363 . S
C2826 C2827 1.370 . S
C2826 C2830 1.524 . S
C2827 C2819 1.503 . S
C2827 C2826 1.370 . S
C2827 C2828 1.403 . S
C2828 C2827 1.403 . S
C2828 C2829 1.404 . S
C2828 C2831 1.539 . S
C2829 C2825 1.408 . S
C2829 C2828 1.404 . S
C2829 H2841 0.930 . S
C2830 C2826 1.524 . S
C2830 H2842 0.956 . S
C2830 H2843 0.961 . S
C2830 H2844 0.961 . S
C2831 C2828 1.539 . S
C2831 H2845 0.958 . S
C2831 H2846 0.961 . S
C2831 H2847 0.960 . S
H2832 C2816 0.931 . S
H2833 C2821 0.929 . S
H2834 C2822 0.960 . S
H2835 C2822 0.962 . S
H2836 C2822 0.960 . S
H2837 C2823 0.961 . S
H2838 C2823 0.961 . S
H2839 C2823 0.961 . S
H2840 C2824 0.931 . S
H2841 C2829 0.930 . S
H2842 C2830 0.956 . S
H2843 C2830 0.961 . S
H2844 C2830 0.961 . S
H2845 C2831 0.958 . S
H2846 C2831 0.961 . S
H2847 C2831 0.960 . S
C2848 C2849 1.391 . S
C2848 C2850 1.394 . S
C2848 H2864 0.931 . S
C2849 C2848 1.391 . S
C2849 C2853 1.376 . S
C2850 C2848 1.394 . S
C2850 C2851 1.369 . S
C2850 C2854 1.531 . S
C2851 C2850 1.369 . S
C2851 C2852 1.410 . S
C2851 C2859 1.503 . S
C2852 C2851 1.410 . S
C2852 C2853 1.392 . S
C2852 C2855 1.511 . S
C2853 C2849 1.376 . S
C2853 C2852 1.392 . S
C2853 H2865 0.929 . S
C2854 C2850 1.531 . S
C2854 H2866 0.960 . S
C2854 H2867 0.962 . S
C2854 H2868 0.960 . S
C2855 C2852 1.511 . S
C2855 H2869 0.961 . S
C2855 H2870 0.961 . S
C2855 H2871 0.961 . S
C2856 C2857 1.370 . S
C2856 C2858 1.363 . S
C2856 H2872 0.931 . S
C2857 C2856 1.370 . S
C2857 C2861 1.408 . S
C2858 C2856 1.363 . S
C2858 C2859 1.370 . S
C2858 C2862 1.524 . S
C2859 C2851 1.503 . S
C2859 C2858 1.370 . S
C2859 C2860 1.403 . S
C2860 C2859 1.403 . S
C2860 C2861 1.404 . S
C2860 C2863 1.539 . S
C2861 C2857 1.408 . S
C2861 C2860 1.404 . S
C2861 H2873 0.930 . S
C2862 C2858 1.524 . S
C2862 H2874 0.956 . S
C2862 H2875 0.961 . S
C2862 H2876 0.961 . S
C2863 C2860 1.539 . S
C2863 H2877 0.958 . S
C2863 H2878 0.961 . S
C2863 H2879 0.960 . S
H2864 C2848 0.931 . S
H2865 C2853 0.929 . S
H2866 C2854 0.960 . S
H2867 C2854 0.962 . S
H2868 C2854 0.960 . S
H2869 C2855 0.961 . S
H2870 C2855 0.961 . S
H2871 C2855 0.961 . S
H2872 C2856 0.931 . S
H2873 C2861 0.930 . S
H2874 C2862 0.956 . S
H2875 C2862 0.961 . S
H2876 C2862 0.961 . S
H2877 C2863 0.958 . S
H2878 C2863 0.961 . S
H2879 C2863 0.960 . S
C2880 C2881 1.391 . S
C2880 C2882 1.394 . S
C2880 H2896 0.931 . S
C2881 C2880 1.391 . S
C2881 C2885 1.376 . S
C2882 C2880 1.394 . S
C2882 C2883 1.369 . S
C2882 C2886 1.531 . S
C2883 C2882 1.369 . S
C2883 C2884 1.410 . S
C2883 C2891 1.503 . S
C2884 C2883 1.410 . S
C2884 C2885 1.392 . S
C2884 C2887 1.511 . S
C2885 C2881 1.376 . S
C2885 C2884 1.392 . S
C2885 H2897 0.929 . S
C2886 C2882 1.531 . S
C2886 H2898 0.960 . S
C2886 H2899 0.962 . S
C2886 H2900 0.960 . S
C2887 C2884 1.511 . S
C2887 H2901 0.961 . S
C2887 H2902 0.961 . S
C2887 H2903 0.961 . S
C2888 C2889 1.370 . S
C2888 C2890 1.363 . S
C2888 H2904 0.931 . S
C2889 C2888 1.370 . S
C2889 C2893 1.408 . S
C2890 C2888 1.363 . S
C2890 C2891 1.370 . S
C2890 C2894 1.524 . S
C2891 C2883 1.503 . S
C2891 C2890 1.370 . S
C2891 C2892 1.403 . S
C2892 C2891 1.403 . S
C2892 C2893 1.404 . S
C2892 C2895 1.539 . S
C2893 C2889 1.408 . S
C2893 C2892 1.404 . S
C2893 H2905 0.930 . S
C2894 C2890 1.524 . S
C2894 H2906 0.956 . S
C2894 H2907 0.961 . S
C2894 H2908 0.961 . S
C2895 C2892 1.539 . S
C2895 H2909 0.958 . S
C2895 H2910 0.961 . S
C2895 H2911 0.960 . S
H2896 C2880 0.931 . S
H2897 C2885 0.929 . S
H2898 C2886 0.960 . S
H2899 C2886 0.962 . S
H2900 C2886 0.960 . S
H2901 C2887 0.961 . S
H2902 C2887 0.961 . S
H2903 C2887 0.961 . S
H2904 C2888 0.931 . S
H2905 C2893 0.930 . S
H2906 C2894 0.956 . S
H2907 C2894 0.961 . S
H2908 C2894 0.961 . S
H2909 C2895 0.958 . S
H2910 C2895 0.961 . S
H2911 C2895 0.960 . S
C2912 C2913 1.391 . S
C2912 C2914 1.394 . S
C2912 H2928 0.931 . S
C2913 C2912 1.391 . S
C2913 C2917 1.376 . S
C2914 C2912 1.394 . S
C2914 C2915 1.369 . S
C2914 C2918 1.531 . S
C2915 C2914 1.369 . S
C2915 C2916 1.410 . S
C2915 C2923 1.503 . S
C2916 C2915 1.410 . S
C2916 C2917 1.392 . S
C2916 C2919 1.511 . S
C2917 C2913 1.376 . S
C2917 C2916 1.392 . S
C2917 H2929 0.929 . S
C2918 C2914 1.531 . S
C2918 H2930 0.960 . S
C2918 H2931 0.962 . S
C2918 H2932 0.960 . S
C2919 C2916 1.511 . S
C2919 H2933 0.961 . S
C2919 H2934 0.961 . S
C2919 H2935 0.961 . S
C2920 C2921 1.370 . S
C2920 C2922 1.363 . S
C2920 H2936 0.931 . S
C2921 C2920 1.370 . S
C2921 C2925 1.408 . S
C2922 C2920 1.363 . S
C2922 C2923 1.370 . S
C2922 C2926 1.524 . S
C2923 C2915 1.503 . S
C2923 C2922 1.370 . S
C2923 C2924 1.403 . S
C2924 C2923 1.403 . S
C2924 C2925 1.404 . S
C2924 C2927 1.539 . S
C2925 C2921 1.408 . S
C2925 C2924 1.404 . S
C2925 H2937 0.930 . S
C2926 C2922 1.524 . S
C2926 H2938 0.956 . S
C2926 H2939 0.961 . S
C2926 H2940 0.961 . S
C2927 C2924 1.539 . S
C2927 H2941 0.958 . S
C2927 H2942 0.961 . S
C2927 H2943 0.960 . S
H2928 C2912 0.931 . S
H2929 C2917 0.929 . S
H2930 C2918 0.960 . S
H2931 C2918 0.962 . S
H2932 C2918 0.960 . S
H2933 C2919 0.961 . S
H2934 C2919 0.961 . S
H2935 C2919 0.961 . S
H2936 C2920 0.931 . S
H2937 C2925 0.930 . S
H2938 C2926 0.956 . S
H2939 C2926 0.961 . S
H2940 C2926 0.961 . S
H2941 C2927 0.958 . S
H2942 C2927 0.961 . S
H2943 C2927 0.960 . S
C2944 C2945 1.391 . S
C2944 C2946 1.394 . S
C2944 H2960 0.931 . S
C2945 C2944 1.391 . S
C2945 C2949 1.376 . S
C2946 C2944 1.394 . S
C2946 C2947 1.369 . S
C2946 C2950 1.531 . S
C2947 C2946 1.369 . S
C2947 C2948 1.410 . S
C2947 C2955 1.503 . S
C2948 C2947 1.410 . S
C2948 C2949 1.392 . S
C2948 C2951 1.511 . S
C2949 C2945 1.376 . S
C2949 C2948 1.392 . S
C2949 H2961 0.929 . S
C2950 C2946 1.531 . S
C2950 H2962 0.960 . S
C2950 H2963 0.962 . S
C2950 H2964 0.960 . S
C2951 C2948 1.511 . S
C2951 H2965 0.961 . S
C2951 H2966 0.961 . S
C2951 H2967 0.961 . S
C2952 C2953 1.370 . S
C2952 C2954 1.363 . S
C2952 H2968 0.931 . S
C2953 C2952 1.370 . S
C2953 C2957 1.408 . S
C2954 C2952 1.363 . S
C2954 C2955 1.370 . S
C2954 C2958 1.524 . S
C2955 C2947 1.503 . S
C2955 C2954 1.370 . S
C2955 C2956 1.403 . S
C2956 C2955 1.403 . S
C2956 C2957 1.404 . S
C2956 C2959 1.539 . S
C2957 C2953 1.408 . S
C2957 C2956 1.404 . S
C2957 H2969 0.930 . S
C2958 C2954 1.524 . S
C2958 H2970 0.956 . S
C2958 H2971 0.961 . S
C2958 H2972 0.961 . S
C2959 C2956 1.539 . S
C2959 H2973 0.958 . S
C2959 H2974 0.961 . S
C2959 H2975 0.960 . S
H2960 C2944 0.931 . S
H2961 C2949 0.929 . S
H2962 C2950 0.960 . S
H2963 C2950 0.962 . S
H2964 C2950 0.960 . S
H2965 C2951 0.961 . S
H2966 C2951 0.961 . S
H2967 C2951 0.961 . S
H2968 C2952 0.931 . S
H2969 C2957 0.930 . S
H2970 C2958 0.956 . S
H2971 C2958 0.961 . S
H2972 C2958 0.961 . S
H2973 C2959 0.958 . S
H2974 C2959 0.961 . S
H2975 C2959 0.960 . S
C2976 C2977 1.391 . S
C2976 C2978 1.394 . S
C2976 H2992 0.931 . S
C2977 C2976 1.391 . S
C2977 C2981 1.376 . S
C2978 C2976 1.394 . S
C2978 C2979 1.369 . S
C2978 C2982 1.531 . S
C2979 C2978 1.369 . S
C2979 C2980 1.410 . S
C2979 C2987 1.503 . S
C2980 C2979 1.410 . S
C2980 C2981 1.392 . S
C2980 C2983 1.511 . S
C2981 C2977 1.376 . S
C2981 C2980 1.392 . S
C2981 H2993 0.929 . S
C2982 C2978 1.531 . S
C2982 H2994 0.960 . S
C2982 H2995 0.962 . S
C2982 H2996 0.960 . S
C2983 C2980 1.511 . S
C2983 H2997 0.961 . S
C2983 H2998 0.961 . S
C2983 H2999 0.961 . S
C2984 C2985 1.370 . S
C2984 C2986 1.363 . S
C2984 H3000 0.931 . S
C2985 C2984 1.370 . S
C2985 C2989 1.408 . S
C2986 C2984 1.363 . S
C2986 C2987 1.370 . S
C2986 C2990 1.524 . S
C2987 C2979 1.503 . S
C2987 C2986 1.370 . S
C2987 C2988 1.403 . S
C2988 C2987 1.403 . S
C2988 C2989 1.404 . S
C2988 C2991 1.539 . S
C2989 C2985 1.408 . S
C2989 C2988 1.404 . S
C2989 H3001 0.930 . S
C2990 C2986 1.524 . S
C2990 H3002 0.956 . S
C2990 H3003 0.961 . S
C2990 H3004 0.961 . S
C2991 C2988 1.539 . S
C2991 H3005 0.958 . S
C2991 H3006 0.961 . S
C2991 H3007 0.960 . S
H2992 C2976 0.931 . S
H2993 C2981 0.929 . S
H2994 C2982 0.960 . S
H2995 C2982 0.962 . S
H2996 C2982 0.960 . S
H2997 C2983 0.961 . S
H2998 C2983 0.961 . S
H2999 C2983 0.961 . S
H3000 C2984 0.931 . S
H3001 C2989 0.930 . S
H3002 C2990 0.956 . S
H3003 C2990 0.961 . S
H3004 C2990 0.961 . S
H3005 C2991 0.958 . S
H3006 C2991 0.961 . S
H3007 C2991 0.960 . S
C3008 C3009 1.391 . S
C3008 C3010 1.394 . S
C3008 H3024 0.931 . S
C3009 C3008 1.391 . S
C3009 C3013 1.376 . S
C3010 C3008 1.394 . S
C3010 C3011 1.369 . S
C3010 C3014 1.531 . S
C3011 C3010 1.369 . S
C3011 C3012 1.410 . S
C3011 C3019 1.503 . S
C3012 C3011 1.410 . S
C3012 C3013 1.392 . S
C3012 C3015 1.511 . S
C3013 C3009 1.376 . S
C3013 C3012 1.392 . S
C3013 H3025 0.929 . S
C3014 C3010 1.531 . S
C3014 H3026 0.960 . S
C3014 H3027 0.962 . S
C3014 H3028 0.960 . S
C3015 C3012 1.511 . S
C3015 H3029 0.961 . S
C3015 H3030 0.961 . S
C3015 H3031 0.961 . S
C3016 C3017 1.370 . S
C3016 C3018 1.363 . S
C3016 H3032 0.931 . S
C3017 C3016 1.370 . S
C3017 C3021 1.408 . S
C3018 C3016 1.363 . S
C3018 C3019 1.370 . S
C3018 C3022 1.524 . S
C3019 C3011 1.503 . S
C3019 C3018 1.370 . S
C3019 C3020 1.403 . S
C3020 C3019 1.403 . S
C3020 C3021 1.404 . S
C3020 C3023 1.539 . S
C3021 C3017 1.408 . S
C3021 C3020 1.404 . S
C3021 H3033 0.930 . S
C3022 C3018 1.524 . S
C3022 H3034 0.956 . S
C3022 H3035 0.961 . S
C3022 H3036 0.961 . S
C3023 C3020 1.539 . S
C3023 H3037 0.958 . S
C3023 H3038 0.961 . S
C3023 H3039 0.960 . S
H3024 C3008 0.931 . S
H3025 C3013 0.929 . S
H3026 C3014 0.960 . S
H3027 C3014 0.962 . S
H3028 C3014 0.960 . S
H3029 C3015 0.961 . S
H3030 C3015 0.961 . S
H3031 C3015 0.961 . S
H3032 C3016 0.931 . S
H3033 C3021 0.930 . S
H3034 C3022 0.956 . S
H3035 C3022 0.961 . S
H3036 C3022 0.961 . S
H3037 C3023 0.958 . S
H3038 C3023 0.961 . S
H3039 C3023 0.960 . S
C3040 C3041 1.391 . S
C3040 C3042 1.394 . S
C3040 H3056 0.931 . S
C3041 C3040 1.391 . S
C3041 C3045 1.376 . S
C3042 C3040 1.394 . S
C3042 C3043 1.369 . S
C3042 C3046 1.531 . S
C3043 C3042 1.369 . S
C3043 C3044 1.410 . S
C3043 C3051 1.503 . S
C3044 C3043 1.410 . S
C3044 C3045 1.392 . S
C3044 C3047 1.511 . S
C3045 C3041 1.376 . S
C3045 C3044 1.392 . S
C3045 H3057 0.929 . S
C3046 C3042 1.531 . S
C3046 H3058 0.960 . S
C3046 H3059 0.962 . S
C3046 H3060 0.960 . S
C3047 C3044 1.511 . S
C3047 H3061 0.961 . S
C3047 H3062 0.961 . S
C3047 H3063 0.961 . S
C3048 C3049 1.370 . S
C3048 C3050 1.363 . S
C3048 H3064 0.931 . S
C3049 C3048 1.370 . S
C3049 C3053 1.408 . S
C3050 C3048 1.363 . S
C3050 C3051 1.370 . S
C3050 C3054 1.524 . S
C3051 C3043 1.503 . S
C3051 C3050 1.370 . S
C3051 C3052 1.403 . S
C3052 C3051 1.403 . S
C3052 C3053 1.404 . S
C3052 C3055 1.539 . S
C3053 C3049 1.408 . S
C3053 C3052 1.404 . S
C3053 H3065 0.930 . S
C3054 C3050 1.524 . S
C3054 H3066 0.956 . S
C3054 H3067 0.961 . S
C3054 H3068 0.961 . S
C3055 C3052 1.539 . S
C3055 H3069 0.958 . S
C3055 H3070 0.961 . S
C3055 H3071 0.960 . S
H3056 C3040 0.931 . S
H3057 C3045 0.929 . S
H3058 C3046 0.960 . S
H3059 C3046 0.962 . S
H3060 C3046 0.960 . S
H3061 C3047 0.961 . S
H3062 C3047 0.961 . S
H3063 C3047 0.961 . S
H3064 C3048 0.931 . S
H3065 C3053 0.930 . S
H3066 C3054 0.956 . S
H3067 C3054 0.961 . S
H3068 C3054 0.961 . S
H3069 C3055 0.958 . S
H3070 C3055 0.961 . S
H3071 C3055 0.960 . S
C3072 C3073 1.391 . S
C3072 C3074 1.394 . S
C3072 H3088 0.931 . S
C3073 C3072 1.391 . S
C3073 C3077 1.376 . S
C3074 C3072 1.394 . S
C3074 C3075 1.369 . S
C3074 C3078 1.531 . S
C3075 C3074 1.369 . S
C3075 C3076 1.410 . S
C3075 C3083 1.503 . S
C3076 C3075 1.410 . S
C3076 C3077 1.392 . S
C3076 C3079 1.511 . S
C3077 C3073 1.376 . S
C3077 C3076 1.392 . S
C3077 H3089 0.929 . S
C3078 C3074 1.531 . S
C3078 H3090 0.960 . S
C3078 H3091 0.962 . S
C3078 H3092 0.960 . S
C3079 C3076 1.511 . S
C3079 H3093 0.961 . S
C3079 H3094 0.961 . S
C3079 H3095 0.961 . S
C3080 C3081 1.370 . S
C3080 C3082 1.363 . S
C3080 H3096 0.931 . S
C3081 C3080 1.370 . S
C3081 C3085 1.408 . S
C3082 C3080 1.363 . S
C3082 C3083 1.370 . S
C3082 C3086 1.524 . S
C3083 C3075 1.503 . S
C3083 C3082 1.370 . S
C3083 C3084 1.403 . S
C3084 C3083 1.403 . S
C3084 C3085 1.404 . S
C3084 C3087 1.539 . S
C3085 C3081 1.408 . S
C3085 C3084 1.404 . S
C3085 H3097 0.930 . S
C3086 C3082 1.524 . S
C3086 H3098 0.956 . S
C3086 H3099 0.961 . S
C3086 H3100 0.961 . S
C3087 C3084 1.539 . S
C3087 H3101 0.958 . S
C3087 H3102 0.961 . S
C3087 H3103 0.960 . S
H3088 C3072 0.931 . S
H3089 C3077 0.929 . S
H3090 C3078 0.960 . S
H3091 C3078 0.962 . S
H3092 C3078 0.960 . S
H3093 C3079 0.961 . S
H3094 C3079 0.961 . S
H3095 C3079 0.961 . S
H3096 C3080 0.931 . S
H3097 C3085 0.930 . S
H3098 C3086 0.956 . S
H3099 C3086 0.961 . S
H3100 C3086 0.961 . S
H3101 C3087 0.958 . S
H3102 C3087 0.961 . S
H3103 C3087 0.960 . S
C3104 C3105 1.391 . S
C3104 C3106 1.394 . S
C3104 H3120 0.931 . S
C3105 C3104 1.391 . S
C3105 C3109 1.376 1_455 S
C3106 C3104 1.394 . S
C3106 C3107 1.369 . S
C3106 C3110 1.531 . S
C3107 C3106 1.369 . S
C3107 C3108 1.410 1_455 S
C3107 C3115 1.503 . S
C3108 C3107 1.410 1_655 S
C3108 C3109 1.392 . S
C3108 C3111 1.511 . S
C3109 C3105 1.376 1_655 S
C3109 C3108 1.392 . S
C3109 H3121 0.929 . S
C3110 C3106 1.531 . S
C3110 H3122 0.960 . S
C3110 H3123 0.962 . S
C3110 H3124 0.960 . S
C3111 C3108 1.511 . S
C3111 H3125 0.961 . S
C3111 H3126 0.961 . S
C3111 H3127 0.961 . S
C3112 C3113 1.380 . S
C3112 C3114 1.363 . S
C3112 H3128 0.924 1_455 S
C3113 C3112 1.380 . S
C3113 C3117 1.408 . S
C3114 C3112 1.363 . S
C3114 C3115 1.383 . S
C3114 C3118 1.514 1_455 S
C3115 C3107 1.503 . S
C3115 C3114 1.383 . S
C3115 C3116 1.403 . S
C3116 C3115 1.403 . S
C3116 C3117 1.404 . S
C3116 C3119 1.539 . S
C3117 C3113 1.408 . S
C3117 C3116 1.404 . S
C3117 H3129 0.930 1_554 S
C3118 C3114 1.514 1_655 S
C3118 H3130 0.956 1_655 S
C3118 H3131 0.961 . S
C3118 H3132 0.961 . S
C3119 C3116 1.539 . S
C3119 H3133 0.958 . S
C3119 H3134 0.961 . S
C3119 H3135 0.960 . S
H3120 C3104 0.931 . S
H3121 C3109 0.929 . S
H3122 C3110 0.960 . S
H3123 C3110 0.962 . S
H3124 C3110 0.960 . S
H3125 C3111 0.961 . S
H3126 C3111 0.961 . S
H3127 C3111 0.961 . S
H3128 C3112 0.924 1_655 S
H3129 C3117 0.930 1_556 S
H3130 C3118 0.956 1_455 S
H3131 C3118 0.961 . S
H3132 C3118 0.961 . S
H3133 C3119 0.958 . S
H3134 C3119 0.961 . S
H3135 C3119 0.960 . S
C3136 C3137 1.391 . S
C3136 C3138 1.394 . S
C3136 H3152 0.931 . S
C3137 C3136 1.391 . S
C3137 C3141 1.376 . S
C3138 C3136 1.394 . S
C3138 C3139 1.369 . S
C3138 C3142 1.531 . S
C3139 C3138 1.369 . S
C3139 C3140 1.410 . S
C3139 C3147 1.503 . S
C3140 C3139 1.410 . S
C3140 C3141 1.392 . S
C3140 C3143 1.511 . S
C3141 C3137 1.376 . S
C3141 C3140 1.392 . S
C3141 H3153 0.929 1_554 S
C3142 C3138 1.531 . S
C3142 H3154 0.960 . S
C3142 H3155 0.962 . S
C3142 H3156 0.960 . S
C3143 C3140 1.511 . S
C3143 H3157 0.961 . S
C3143 H3158 0.961 . S
C3143 H3159 0.961 . S
C3144 C3145 1.370 . S
C3144 C3146 1.363 . S
C3144 H3160 0.931 . S
C3145 C3144 1.370 . S
C3145 C3149 1.408 . S
C3146 C3144 1.363 . S
C3146 C3147 1.370 . S
C3146 C3150 1.524 . S
C3147 C3139 1.503 . S
C3147 C3146 1.370 . S
C3147 C3148 1.403 . S
C3148 C3147 1.403 . S
C3148 C3149 1.404 . S
C3148 C3151 1.539 . S
C3149 C3145 1.408 . S
C3149 C3148 1.404 . S
C3149 H3161 0.930 . S
C3150 C3146 1.524 . S
C3150 H3162 0.956 . S
C3150 H3163 0.961 . S
C3150 H3164 0.961 . S
C3151 C3148 1.539 . S
C3151 H3165 0.958 . S
C3151 H3166 0.961 . S
C3151 H3167 0.960 . S
H3152 C3136 0.931 . S
H3153 C3141 0.929 1_556 S
H3154 C3142 0.960 . S
H3155 C3142 0.962 . S
H3156 C3142 0.960 . S
H3157 C3143 0.961 . S
H3158 C3143 0.961 . S
H3159 C3143 0.961 . S
H3160 C3144 0.931 . S
H3161 C3149 0.930 . S
H3162 C3150 0.956 . S
H3163 C3150 0.961 . S
H3164 C3150 0.961 . S
H3165 C3151 0.958 . S
H3166 C3151 0.961 . S
H3167 C3151 0.960 . S
C3168 C3169 1.391 . S
C3168 C3170 1.394 . S
C3168 H3184 0.932 . S
C3169 C3168 1.391 . S
C3169 C3173 1.376 1_655 S
C3170 C3168 1.394 . S
C3170 C3171 1.369 . S
C3170 C3174 1.531 . S
C3171 C3170 1.369 . S
C3171 C3172 1.410 1_655 S
C3171 C3179 1.503 . S
C3172 C3171 1.410 1_455 S
C3172 C3173 1.392 . S
C3172 C3175 1.511 . S
C3173 C3169 1.376 1_455 S
C3173 C3172 1.392 . S
C3173 H3185 0.929 . S
C3174 C3170 1.531 . S
C3174 H3186 0.960 . S
C3174 H3187 0.962 . S
C3174 H3188 0.960 . S
C3175 C3172 1.511 . S
C3175 H3189 0.961 . S
C3175 H3190 0.961 . S
C3175 H3191 0.961 . S
C3176 C3177 1.370 . S
C3176 C3178 1.363 . S
C3176 H3192 0.931 . S
C3177 C3176 1.370 . S
C3177 C3181 1.408 1_655 S
C3178 C3176 1.363 . S
C3178 C3179 1.370 . S
C3178 C3182 1.524 . S
C3179 C3171 1.503 . S
C3179 C3178 1.370 . S
C3179 C3180 1.403 1_655 S
C3180 C3179 1.403 1_455 S
C3180 C3181 1.404 . S
C3180 C3183 1.539 . S
C3181 C3177 1.408 1_455 S
C3181 C3180 1.404 . S
C3181 H3193 0.930 . S
C3182 C3178 1.524 . S
C3182 H3194 0.956 . S
C3182 H3195 0.961 . S
C3182 H3196 0.961 . S
C3183 C3180 1.539 . S
C3183 H3197 0.999 . S
C3183 H3198 0.961 . S
C3183 H3199 0.960 . S
H3184 C3168 0.932 . S
H3185 C3173 0.929 . S
H3186 C3174 0.960 . S
H3187 C3174 0.962 . S
H3188 C3174 0.960 . S
H3189 C3175 0.961 . S
H3190 C3175 0.961 . S
H3191 C3175 0.961 . S
H3192 C3176 0.931 . S
H3193 C3181 0.930 . S
H3194 C3182 0.956 . S
H3195 C3182 0.961 . S
H3196 C3182 0.961 . S
H3197 C3183 0.999 . S
H3198 C3183 0.961 . S
H3199 C3183 0.960 . S
C3200 C3201 1.391 . S
C3200 C3202 1.394 . S
C3200 H3216 0.931 . S
C3201 C3200 1.391 . S
C3201 C3205 1.376 . S
C3202 C3200 1.394 . S
C3202 C3203 1.369 . S
C3202 C3206 1.531 . S
C3203 C3202 1.369 . S
C3203 C3204 1.410 . S
C3203 C3211 1.503 . S
C3204 C3203 1.410 . S
C3204 C3205 1.392 . S
C3204 C3207 1.511 . S
C3205 C3201 1.376 . S
C3205 C3204 1.392 . S
C3205 H3217 0.929 . S
C3206 C3202 1.531 . S
C3206 H3218 0.960 . S
C3206 H3219 0.962 . S
C3206 H3220 0.960 . S
C3207 C3204 1.511 . S
C3207 H3221 0.961 . S
C3207 H3222 0.961 . S
C3207 H3223 0.961 . S
C3208 C3209 1.370 . S
C3208 C3210 1.363 . S
C3208 H3224 0.931 . S
C3209 C3208 1.370 . S
C3209 C3213 1.408 . S
C3210 C3208 1.363 . S
C3210 C3211 1.370 . S
C3210 C3214 1.524 . S
C3211 C3203 1.503 . S
C3211 C3210 1.370 . S
C3211 C3212 1.403 . S
C3212 C3211 1.403 . S
C3212 C3213 1.404 . S
C3212 C3215 1.539 . S
C3213 C3209 1.408 . S
C3213 C3212 1.404 . S
C3213 H3225 0.930 1_556 S
C3214 C3210 1.524 . S
C3214 H3226 0.956 . S
C3214 H3227 0.961 . S
C3214 H3228 0.961 . S
C3215 C3212 1.539 . S
C3215 H3229 0.958 . S
C3215 H3230 0.961 . S
C3215 H3231 0.960 . S
H3216 C3200 0.931 . S
H3217 C3205 0.929 . S
H3218 C3206 0.960 . S
H3219 C3206 0.962 . S
H3220 C3206 0.960 . S
H3221 C3207 0.961 . S
H3222 C3207 0.961 . S
H3223 C3207 0.961 . S
H3224 C3208 0.931 . S
H3225 C3213 0.930 1_554 S
H3226 C3214 0.956 . S
H3227 C3214 0.961 . S
H3228 C3214 0.961 . S
H3229 C3215 0.958 . S
H3230 C3215 0.961 . S
H3231 C3215 0.960 . S
C3232 C3233 1.391 1_655 S
C3232 C3234 1.394 . S
C3232 H3248 0.931 . S
C3233 C3232 1.391 1_455 S
C3233 C3237 1.376 . S
C3234 C3232 1.394 . S
C3234 C3235 1.369 1_655 S
C3234 C3238 1.531 . S
C3235 C3234 1.369 1_455 S
C3235 C3236 1.410 . S
C3235 C3243 1.503 . S
C3236 C3235 1.410 . S
C3236 C3237 1.392 . S
C3236 C3239 1.511 . S
C3237 C3233 1.376 . S
C3237 C3236 1.392 . S
C3237 H3249 0.929 . S
C3238 C3234 1.531 . S
C3238 H3250 0.960 . S
C3238 H3251 0.962 . S
C3238 H3252 0.960 . S
C3239 C3236 1.511 . S
C3239 H3253 0.961 . S
C3239 H3254 0.961 . S
C3239 H3255 0.961 . S
C3240 C3241 1.370 . S
C3240 C3242 1.363 . S
C3240 H3256 0.931 . S
C3241 C3240 1.370 . S
C3241 C3245 1.408 . S
C3242 C3240 1.363 . S
C3242 C3243 1.370 . S
C3242 C3246 1.524 . S
C3243 C3235 1.503 . S
C3243 C3242 1.370 . S
C3243 C3244 1.403 . S
C3244 C3243 1.403 . S
C3244 C3245 1.404 . S
C3244 C3247 1.539 . S
C3245 C3241 1.408 . S
C3245 C3244 1.404 . S
C3245 H3257 0.930 . S
C3246 C3242 1.524 . S
C3246 H3258 0.956 1_455 S
C3246 H3259 0.961 . S
C3246 H3260 0.961 . S
C3247 C3244 1.539 . S
C3247 H3261 0.958 1_455 S
C3247 H3262 0.961 . S
C3247 H3263 0.960 . S
H3248 C3232 0.931 . S
H3249 C3237 0.929 . S
H3250 C3238 0.960 . S
H3251 C3238 0.962 . S
H3252 C3238 0.960 . S
H3253 C3239 0.961 . S
H3254 C3239 0.961 . S
H3255 C3239 0.961 . S
H3256 C3240 0.931 . S
H3257 C3245 0.930 . S
H3258 C3246 0.956 1_655 S
H3259 C3246 0.961 . S
H3260 C3246 0.961 . S
H3261 C3247 0.958 1_655 S
H3262 C3247 0.961 . S
H3263 C3247 0.960 . S
C3264 C3265 1.391 . S
C3264 C3266 1.394 . S
C3264 H3280 0.931 . S
C3265 C3264 1.391 . S
C3265 C3269 1.376 . S
C3266 C3264 1.394 . S
C3266 C3267 1.369 . S
C3266 C3270 1.531 . S
C3267 C3266 1.369 . S
C3267 C3268 1.410 . S
C3267 C3275 1.503 . S
C3268 C3267 1.410 . S
C3268 C3269 1.392 . S
C3268 C3271 1.511 . S
C3269 C3265 1.376 . S
C3269 C3268 1.392 . S
C3269 H3281 0.929 . S
C3270 C3266 1.531 . S
C3270 H3282 0.960 . S
C3270 H3283 0.962 . S
C3270 H3284 0.960 . S
C3271 C3268 1.511 . S
C3271 H3285 0.961 . S
C3271 H3286 0.961 . S
C3271 H3287 0.961 . S
C3272 C3273 1.370 . S
C3272 C3274 1.363 . S
C3272 H3288 0.931 . S
C3273 C3272 1.370 . S
C3273 C3277 1.408 . S
C3274 C3272 1.363 . S
C3274 C3275 1.370 . S
C3274 C3278 1.524 . S
C3275 C3267 1.503 . S
C3275 C3274 1.370 . S
C3275 C3276 1.403 . S
C3276 C3275 1.403 . S
C3276 C3277 1.404 . S
C3276 C3279 1.539 . S
C3277 C3273 1.408 . S
C3277 C3276 1.404 . S
C3277 H3289 0.930 . S
C3278 C3274 1.524 . S
C3278 H3290 0.956 . S
C3278 H3291 0.961 . S
C3278 H3292 0.961 . S
C3279 C3276 1.539 . S
C3279 H3293 0.958 . S
C3279 H3294 0.961 . S
C3279 H3295 0.960 . S
H3280 C3264 0.931 . S
H3281 C3269 0.929 . S
H3282 C3270 0.960 . S
H3283 C3270 0.962 . S
H3284 C3270 0.960 . S
H3285 C3271 0.961 . S
H3286 C3271 0.961 . S
H3287 C3271 0.961 . S
H3288 C3272 0.931 . S
H3289 C3277 0.930 . S
H3290 C3278 0.956 . S
H3291 C3278 0.961 . S
H3292 C3278 0.961 . S
H3293 C3279 0.958 . S
H3294 C3279 0.961 . S
H3295 C3279 0.960 . S
C3296 C3297 1.391 1_455 S
C3296 C3298 1.394 . S
C3296 H3312 0.931 . S
C3297 C3296 1.391 1_655 S
C3297 C3301 1.376 . S
C3298 C3296 1.394 . S
C3298 C3299 1.369 1_455 S
C3298 C3302 1.531 . S
C3299 C3298 1.369 1_655 S
C3299 C3300 1.410 . S
C3299 C3307 1.503 . S
C3300 C3299 1.410 . S
C3300 C3301 1.392 . S
C3300 C3303 1.511 . S
C3301 C3297 1.376 . S
C3301 C3300 1.392 . S
C3301 H3313 0.929 . S
C3302 C3298 1.531 . S
C3302 H3314 0.960 . S
C3302 H3315 0.962 . S
C3302 H3316 0.960 . S
C3303 C3300 1.511 . S
C3303 H3317 0.961 . S
C3303 H3318 0.961 . S
C3303 H3319 0.961 . S
C3304 C3305 1.370 . S
C3304 C3306 1.363 . S
C3304 H3320 0.931 1_655 S
C3305 C3304 1.370 . S
C3305 C3309 1.408 . S
C3306 C3304 1.363 . S
C3306 C3307 1.370 . S
C3306 C3310 1.524 1_655 S
C3307 C3299 1.503 . S
C3307 C3306 1.370 . S
C3307 C3308 1.403 . S
C3308 C3307 1.403 . S
C3308 C3309 1.404 . S
C3308 C3311 1.539 . S
C3309 C3305 1.408 . S
C3309 C3308 1.404 . S
C3309 H3321 0.930 . S
C3310 C3306 1.524 1_455 S
C3310 H3322 0.956 . S
C3310 H3323 0.961 1_455 S
C3310 H3324 0.961 . S
C3311 C3308 1.539 . S
C3311 H3325 0.922 1_655 S
C3311 H3326 0.961 . S
C3311 H3327 0.960 . S
H3312 C3296 0.931 . S
H3313 C3301 0.929 . S
H3314 C3302 0.960 . S
H3315 C3302 0.962 . S
H3316 C3302 0.960 . S
H3317 C3303 0.961 . S
H3318 C3303 0.961 . S
H3319 C3303 0.961 . S
H3320 C3304 0.931 1_455 S
H3321 C3309 0.930 . S
H3322 C3310 0.956 . S
H3323 C3310 0.961 1_655 S
H3324 C3310 0.961 . S
H3325 C3311 0.922 1_455 S
H3326 C3311 0.961 . S
H3327 C3311 0.960 . S
C3328 C3329 1.391 . S
C3328 C3330 1.394 . S
C3328 H3344 0.931 . S
C3329 C3328 1.391 . S
C3329 C3333 1.376 . S
C3330 C3328 1.394 . S
C3330 C3331 1.369 . S
C3330 C3334 1.531 . S
C3331 C3330 1.369 . S
C3331 C3332 1.410 . S
C3331 C3339 1.503 . S
C3332 C3331 1.410 . S
C3332 C3333 1.392 . S
C3332 C3335 1.511 . S
C3333 C3329 1.376 . S
C3333 C3332 1.392 . S
C3333 H3345 0.929 . S
C3334 C3330 1.531 . S
C3334 H3346 0.960 . S
C3334 H3347 0.962 . S
C3334 H3348 0.960 . S
C3335 C3332 1.511 . S
C3335 H3349 0.961 . S
C3335 H3350 0.961 . S
C3335 H3351 0.961 . S
C3336 C3337 1.370 . S
C3336 C3338 1.363 . S
C3336 H3352 0.931 . S
C3337 C3336 1.370 . S
C3337 C3341 1.408 . S
C3338 C3336 1.363 . S
C3338 C3339 1.370 . S
C3338 C3342 1.524 . S
C3339 C3331 1.503 . S
C3339 C3338 1.370 . S
C3339 C3340 1.403 . S
C3340 C3339 1.403 . S
C3340 C3341 1.404 . S
C3340 C3343 1.539 . S
C3341 C3337 1.408 . S
C3341 C3340 1.404 . S
C3341 H3353 0.930 . S
C3342 C3338 1.524 . S
C3342 H3354 0.956 . S
C3342 H3355 0.961 . S
C3342 H3356 0.961 . S
C3343 C3340 1.539 . S
C3343 H3357 0.958 . S
C3343 H3358 0.961 . S
C3343 H3359 0.960 . S
H3344 C3328 0.931 . S
H3345 C3333 0.929 . S
H3346 C3334 0.960 . S
H3347 C3334 0.962 . S
H3348 C3334 0.960 . S
H3349 C3335 0.961 . S
H3350 C3335 0.961 . S
H3351 C3335 0.961 . S
H3352 C3336 0.931 . S
H3353 C3341 0.930 . S
H3354 C3342 0.956 . S
H3355 C3342 0.961 . S
H3356 C3342 0.961 . S
H3357 C3343 0.958 . S
H3358 C3343 0.961 . S
H3359 C3343 0.960 . S
C3360 C3361 1.391 . S
C3360 C3362 1.394 . S
C3360 H3376 0.931 . S
C3361 C3360 1.391 . S
C3361 C3365 1.376 . S
C3362 C3360 1.394 . S
C3362 C3363 1.369 . S
C3362 C3366 1.531 . S
C3363 C3362 1.369 . S
C3363 C3364 1.410 . S
C3363 C3371 1.503 . S
C3364 C3363 1.410 . S
C3364 C3365 1.392 . S
C3364 C3367 1.511 . S
C3365 C3361 1.376 . S
C3365 C3364 1.392 . S
C3365 H3377 0.929 . S
C3366 C3362 1.531 . S
C3366 H3378 0.960 . S
C3366 H3379 0.962 . S
C3366 H3380 0.960 . S
C3367 C3364 1.511 . S
C3367 H3381 0.961 . S
C3367 H3382 0.961 . S
C3367 H3383 0.961 . S
C3368 C3369 1.370 . S
C3368 C3370 1.363 . S
C3368 H3384 0.931 . S
C3369 C3368 1.370 . S
C3369 C3373 1.408 . S
C3370 C3368 1.363 . S
C3370 C3371 1.370 . S
C3370 C3374 1.524 . S
C3371 C3363 1.503 . S
C3371 C3370 1.370 . S
C3371 C3372 1.403 . S
C3372 C3371 1.403 . S
C3372 C3373 1.404 . S
C3372 C3375 1.539 . S
C3373 C3369 1.408 . S
C3373 C3372 1.404 . S
C3373 H3385 0.930 . S
C3374 C3370 1.524 . S
C3374 H3386 0.956 . S
C3374 H3387 0.961 . S
C3374 H3388 0.961 . S
C3375 C3372 1.539 . S
C3375 H3389 0.958 . S
C3375 H3390 0.961 . S
C3375 H3391 0.960 . S
H3376 C3360 0.931 . S
H3377 C3365 0.929 . S
H3378 C3366 0.960 . S
H3379 C3366 0.962 . S
H3380 C3366 0.960 . S
H3381 C3367 0.961 . S
H3382 C3367 0.961 . S
H3383 C3367 0.961 . S
H3384 C3368 0.931 . S
H3385 C3373 0.930 . S
H3386 C3374 0.956 . S
H3387 C3374 0.961 . S
H3388 C3374 0.961 . S
H3389 C3375 0.958 . S
H3390 C3375 0.961 . S
H3391 C3375 0.960 . S
C3392 C3393 1.391 . S
C3392 C3394 1.394 . S
C3392 H3408 0.931 . S
C3393 C3392 1.391 . S
C3393 C3397 1.376 . S
C3394 C3392 1.394 . S
C3394 C3395 1.369 . S
C3394 C3398 1.531 . S
C3395 C3394 1.369 . S
C3395 C3396 1.410 . S
C3395 C3403 1.503 . S
C3396 C3395 1.410 . S
C3396 C3397 1.392 . S
C3396 C3399 1.511 . S
C3397 C3393 1.376 . S
C3397 C3396 1.392 . S
C3397 H3409 0.929 . S
C3398 C3394 1.531 . S
C3398 H3410 0.960 . S
C3398 H3411 0.962 . S
C3398 H3412 0.960 . S
C3399 C3396 1.511 . S
C3399 H3413 0.961 . S
C3399 H3414 0.961 . S
C3399 H3415 0.961 . S
C3400 C3401 1.370 . S
C3400 C3402 1.363 . S
C3400 H3416 0.931 . S
C3401 C3400 1.370 . S
C3401 C3405 1.408 . S
C3402 C3400 1.363 . S
C3402 C3403 1.370 . S
C3402 C3406 1.524 . S
C3403 C3395 1.503 . S
C3403 C3402 1.370 . S
C3403 C3404 1.403 . S
C3404 C3403 1.403 . S
C3404 C3405 1.404 . S
C3404 C3407 1.539 . S
C3405 C3401 1.408 . S
C3405 C3404 1.404 . S
C3405 H3417 0.930 . S
C3406 C3402 1.524 . S
C3406 H3418 0.956 . S
C3406 H3419 0.961 . S
C3406 H3420 0.961 . S
C3407 C3404 1.539 . S
C3407 H3421 0.958 . S
C3407 H3422 0.961 . S
C3407 H3423 0.960 . S
H3408 C3392 0.931 . S
H3409 C3397 0.929 . S
H3410 C3398 0.960 . S
H3411 C3398 0.962 . S
H3412 C3398 0.960 . S
H3413 C3399 0.961 . S
H3414 C3399 0.961 . S
H3415 C3399 0.961 . S
H3416 C3400 0.931 . S
H3417 C3405 0.930 . S
H3418 C3406 0.956 . S
H3419 C3406 0.961 . S
H3420 C3406 0.961 . S
H3421 C3407 0.958 . S
H3422 C3407 0.961 . S
H3423 C3407 0.960 . S
C3424 C3425 1.391 . S
C3424 C3426 1.394 . S
C3424 H3440 0.931 . S
C3425 C3424 1.391 . S
C3425 C3429 1.376 . S
C3426 C3424 1.394 . S
C3426 C3427 1.369 . S
C3426 C3430 1.531 . S
C3427 C3426 1.369 . S
C3427 C3428 1.410 . S
C3427 C3435 1.503 . S
C3428 C3427 1.410 . S
C3428 C3429 1.392 . S
C3428 C3431 1.511 . S
C3429 C3425 1.376 . S
C3429 C3428 1.392 . S
C3429 H3441 0.929 . S
C3430 C3426 1.531 . S
C3430 H3442 0.960 . S
C3430 H3443 0.962 . S
C3430 H3444 0.960 . S
C3431 C3428 1.511 . S
C3431 H3445 0.961 . S
C3431 H3446 0.961 . S
C3431 H3447 0.961 . S
C3432 C3433 1.370 . S
C3432 C3434 1.363 . S
C3432 H3448 0.931 . S
C3433 C3432 1.370 . S
C3433 C3437 1.408 . S
C3434 C3432 1.363 . S
C3434 C3435 1.370 . S
C3434 C3438 1.524 . S
C3435 C3427 1.503 . S
C3435 C3434 1.370 . S
C3435 C3436 1.403 . S
C3436 C3435 1.403 . S
C3436 C3437 1.404 . S
C3436 C3439 1.539 . S
C3437 C3433 1.408 . S
C3437 C3436 1.404 . S
C3437 H3449 0.930 . S
C3438 C3434 1.524 . S
C3438 H3450 0.956 . S
C3438 H3451 0.961 . S
C3438 H3452 0.961 . S
C3439 C3436 1.539 . S
C3439 H3453 0.958 . S
C3439 H3454 0.961 . S
C3439 H3455 0.960 . S
H3440 C3424 0.931 . S
H3441 C3429 0.929 . S
H3442 C3430 0.960 . S
H3443 C3430 0.962 . S
H3444 C3430 0.960 . S
H3445 C3431 0.961 . S
H3446 C3431 0.961 . S
H3447 C3431 0.961 . S
H3448 C3432 0.931 . S
H3449 C3437 0.930 . S
H3450 C3438 0.956 . S
H3451 C3438 0.961 . S
H3452 C3438 0.961 . S
H3453 C3439 0.958 . S
H3454 C3439 0.961 . S
H3455 C3439 0.960 . S
C3456 C3457 1.391 . S
C3456 C3458 1.394 . S
C3456 H3472 0.931 . S
C3457 C3456 1.391 . S
C3457 C3461 1.376 . S
C3458 C3456 1.394 . S
C3458 C3459 1.369 . S
C3458 C3462 1.531 . S
C3459 C3458 1.369 . S
C3459 C3460 1.410 . S
C3459 C3467 1.503 . S
C3460 C3459 1.410 . S
C3460 C3461 1.392 . S
C3460 C3463 1.511 . S
C3461 C3457 1.376 . S
C3461 C3460 1.392 . S
C3461 H3473 0.929 . S
C3462 C3458 1.531 . S
C3462 H3474 0.960 . S
C3462 H3475 0.962 . S
C3462 H3476 0.960 . S
C3463 C3460 1.511 . S
C3463 H3477 0.961 . S
C3463 H3478 0.961 . S
C3463 H3479 0.961 . S
C3464 C3465 1.370 . S
C3464 C3466 1.363 . S
C3464 H3480 0.931 . S
C3465 C3464 1.370 . S
C3465 C3469 1.408 . S
C3466 C3464 1.363 . S
C3466 C3467 1.370 . S
C3466 C3470 1.524 . S
C3467 C3459 1.503 . S
C3467 C3466 1.370 . S
C3467 C3468 1.403 . S
C3468 C3467 1.403 . S
C3468 C3469 1.404 . S
C3468 C3471 1.539 . S
C3469 C3465 1.408 . S
C3469 C3468 1.404 . S
C3469 H3481 0.930 . S
C3470 C3466 1.524 . S
C3470 H3482 0.956 . S
C3470 H3483 0.961 . S
C3470 H3484 0.961 . S
C3471 C3468 1.539 . S
C3471 H3485 0.958 . S
C3471 H3486 0.961 . S
C3471 H3487 0.960 . S
H3472 C3456 0.931 . S
H3473 C3461 0.929 . S
H3474 C3462 0.960 . S
H3475 C3462 0.962 . S
H3476 C3462 0.960 . S
H3477 C3463 0.961 . S
H3478 C3463 0.961 . S
H3479 C3463 0.961 . S
H3480 C3464 0.931 . S
H3481 C3469 0.930 . S
H3482 C3470 0.956 . S
H3483 C3470 0.961 . S
H3484 C3470 0.961 . S
H3485 C3471 0.958 . S
H3486 C3471 0.961 . S
H3487 C3471 0.960 . S
C3488 C3489 1.391 . S
C3488 C3490 1.394 . S
C3488 H3504 0.931 . S
C3489 C3488 1.391 . S
C3489 C3493 1.376 . S
C3490 C3488 1.394 . S
C3490 C3491 1.369 . S
C3490 C3494 1.531 . S
C3491 C3490 1.369 . S
C3491 C3492 1.410 . S
C3491 C3499 1.503 . S
C3492 C3491 1.410 . S
C3492 C3493 1.392 . S
C3492 C3495 1.511 . S
C3493 C3489 1.376 . S
C3493 C3492 1.392 . S
C3493 H3505 0.929 1_554 S
C3494 C3490 1.531 . S
C3494 H3506 0.960 . S
C3494 H3507 0.962 . S
C3494 H3508 0.960 . S
C3495 C3492 1.511 . S
C3495 H3509 0.961 . S
C3495 H3510 0.961 . S
C3495 H3511 0.961 . S
C3496 C3497 1.370 . S
C3496 C3498 1.363 . S
C3496 H3512 0.931 . S
C3497 C3496 1.370 . S
C3497 C3501 1.408 . S
C3498 C3496 1.363 . S
C3498 C3499 1.370 . S
C3498 C3502 1.524 . S
C3499 C3491 1.503 . S
C3499 C3498 1.370 . S
C3499 C3500 1.403 . S
C3500 C3499 1.403 . S
C3500 C3501 1.404 . S
C3500 C3503 1.539 . S
C3501 C3497 1.408 . S
C3501 C3500 1.404 . S
C3501 H3513 0.930 . S
C3502 C3498 1.524 . S
C3502 H3514 0.956 . S
C3502 H3515 0.961 . S
C3502 H3516 0.961 . S
C3503 C3500 1.539 . S
C3503 H3517 0.958 . S
C3503 H3518 0.961 . S
C3503 H3519 0.960 . S
H3504 C3488 0.931 . S
H3505 C3493 0.929 1_556 S
H3506 C3494 0.960 . S
H3507 C3494 0.962 . S
H3508 C3494 0.960 . S
H3509 C3495 0.961 . S
H3510 C3495 0.961 . S
H3511 C3495 0.961 . S
H3512 C3496 0.931 . S
H3513 C3501 0.930 . S
H3514 C3502 0.956 . S
H3515 C3502 0.961 . S
H3516 C3502 0.961 . S
H3517 C3503 0.958 . S
H3518 C3503 0.961 . S
H3519 C3503 0.960 . S
C3520 C3521 1.391 . S
C3520 C3522 1.394 . S
C3520 H3536 0.931 . S
C3521 C3520 1.391 . S
C3521 C3525 1.376 . S
C3522 C3520 1.394 . S
C3522 C3523 1.369 . S
C3522 C3526 1.531 . S
C3523 C3522 1.369 . S
C3523 C3524 1.410 . S
C3523 C3531 1.503 . S
C3524 C3523 1.410 . S
C3524 C3525 1.392 . S
C3524 C3527 1.511 . S
C3525 C3521 1.376 . S
C3525 C3524 1.392 . S
C3525 H3537 0.929 . S
C3526 C3522 1.531 . S
C3526 H3538 0.960 . S
C3526 H3539 0.962 . S
C3526 H3540 0.960 . S
C3527 C3524 1.511 . S
C3527 H3541 0.961 . S
C3527 H3542 0.961 . S
C3527 H3543 0.961 . S
C3528 C3529 1.370 . S
C3528 C3530 1.363 . S
C3528 H3544 0.931 . S
C3529 C3528 1.370 . S
C3529 C3533 1.408 . S
C3530 C3528 1.363 . S
C3530 C3531 1.370 . S
C3530 C3534 1.524 . S
C3531 C3523 1.503 . S
C3531 C3530 1.370 . S
C3531 C3532 1.403 . S
C3532 C3531 1.403 . S
C3532 C3533 1.404 . S
C3532 C3535 1.539 . S
C3533 C3529 1.408 . S
C3533 C3532 1.404 . S
C3533 H3545 0.930 . S
C3534 C3530 1.524 . S
C3534 H3546 0.956 . S
C3534 H3547 0.961 . S
C3534 H3548 0.961 . S
C3535 C3532 1.539 . S
C3535 H3549 0.958 . S
C3535 H3550 0.961 . S
C3535 H3551 0.960 . S
H3536 C3520 0.931 . S
H3537 C3525 0.929 . S
H3538 C3526 0.960 . S
H3539 C3526 0.962 . S
H3540 C3526 0.960 . S
H3541 C3527 0.961 . S
H3542 C3527 0.961 . S
H3543 C3527 0.961 . S
H3544 C3528 0.931 . S
H3545 C3533 0.930 . S
H3546 C3534 0.956 . S
H3547 C3534 0.961 . S
H3548 C3534 0.961 . S
H3549 C3535 0.958 . S
H3550 C3535 0.961 . S
H3551 C3535 0.960 . S
C3552 C3553 1.391 . S
C3552 C3554 1.394 . S
C3552 H3568 0.931 . S
C3553 C3552 1.391 . S
C3553 C3557 1.376 . S
C3554 C3552 1.394 . S
C3554 C3555 1.369 . S
C3554 C3558 1.531 . S
C3555 C3554 1.369 . S
C3555 C3556 1.410 . S
C3555 C3563 1.503 . S
C3556 C3555 1.410 . S
C3556 C3557 1.392 . S
C3556 C3559 1.511 . S
C3557 C3553 1.376 . S
C3557 C3556 1.392 . S
C3557 H3569 0.929 . S
C3558 C3554 1.531 . S
C3558 H3570 0.960 . S
C3558 H3571 0.962 . S
C3558 H3572 0.960 . S
C3559 C3556 1.511 . S
C3559 H3573 0.961 . S
C3559 H3574 0.961 . S
C3559 H3575 0.961 . S
C3560 C3561 1.370 . S
C3560 C3562 1.363 . S
C3560 H3576 0.931 . S
C3561 C3560 1.370 . S
C3561 C3565 1.408 . S
C3562 C3560 1.363 . S
C3562 C3563 1.370 . S
C3562 C3566 1.524 . S
C3563 C3555 1.503 . S
C3563 C3562 1.370 . S
C3563 C3564 1.403 . S
C3564 C3563 1.403 . S
C3564 C3565 1.404 . S
C3564 C3567 1.539 . S
C3565 C3561 1.408 . S
C3565 C3564 1.404 . S
C3565 H3577 0.930 . S
C3566 C3562 1.524 . S
C3566 H3578 0.956 . S
C3566 H3579 0.961 . S
C3566 H3580 0.961 . S
C3567 C3564 1.539 . S
C3567 H3581 0.958 . S
C3567 H3582 0.961 . S
C3567 H3583 0.960 . S
H3568 C3552 0.931 . S
H3569 C3557 0.929 . S
H3570 C3558 0.960 . S
H3571 C3558 0.962 . S
H3572 C3558 0.960 . S
H3573 C3559 0.961 . S
H3574 C3559 0.961 . S
H3575 C3559 0.961 . S
H3576 C3560 0.931 . S
H3577 C3565 0.930 . S
H3578 C3566 0.956 . S
H3579 C3566 0.961 . S
H3580 C3566 0.961 . S
H3581 C3567 0.958 . S
H3582 C3567 0.961 . S
H3583 C3567 0.960 . S
C3584 C3585 1.391 . S
C3584 C3586 1.394 . S
C3584 H3600 0.931 . S
C3585 C3584 1.391 . S
C3585 C3589 1.376 . S
C3586 C3584 1.394 . S
C3586 C3587 1.369 . S
C3586 C3590 1.531 . S
C3587 C3586 1.369 . S
C3587 C3588 1.410 . S
C3587 C3595 1.503 . S
C3588 C3587 1.410 . S
C3588 C3589 1.392 . S
C3588 C3591 1.511 . S
C3589 C3585 1.376 . S
C3589 C3588 1.392 . S
C3589 H3601 0.929 . S
C3590 C3586 1.531 . S
C3590 H3602 0.960 . S
C3590 H3603 0.962 . S
C3590 H3604 0.960 . S
C3591 C3588 1.511 . S
C3591 H3605 0.961 . S
C3591 H3606 0.961 . S
C3591 H3607 0.961 . S
C3592 C3593 1.370 . S
C3592 C3594 1.363 . S
C3592 H3608 0.931 . S
C3593 C3592 1.370 . S
C3593 C3597 1.408 . S
C3594 C3592 1.363 . S
C3594 C3595 1.370 . S
C3594 C3598 1.524 . S
C3595 C3587 1.503 . S
C3595 C3594 1.370 . S
C3595 C3596 1.403 . S
C3596 C3595 1.403 . S
C3596 C3597 1.404 . S
C3596 C3599 1.539 . S
C3597 C3593 1.408 . S
C3597 C3596 1.404 . S
C3597 H3609 0.930 1_556 S
C3598 C3594 1.524 . S
C3598 H3610 0.956 . S
C3598 H3611 0.961 . S
C3598 H3612 0.961 . S
C3599 C3596 1.539 . S
C3599 H3613 0.958 . S
C3599 H3614 0.961 . S
C3599 H3615 0.960 . S
H3600 C3584 0.931 . S
H3601 C3589 0.929 . S
H3602 C3590 0.960 . S
H3603 C3590 0.962 . S
H3604 C3590 0.960 . S
H3605 C3591 0.961 . S
H3606 C3591 0.961 . S
H3607 C3591 0.961 . S
H3608 C3592 0.931 . S
H3609 C3597 0.930 1_554 S
H3610 C3598 0.956 . S
H3611 C3598 0.961 . S
H3612 C3598 0.961 . S
H3613 C3599 0.958 . S
H3614 C3599 0.961 . S
H3615 C3599 0.960 . S
C1057 C7 0.728 . S
C1065 C73 0.771 . S
C1089 C40 0.729 . S
C1097 C106 0.767 . S
C1121 C139 0.734 . S
C1129 C205 0.767 . S
C1153 C172 0.792 . S
C1161 C238 0.741 . S
C1185 C337 0.799 . S
C1193 C271 0.743 1_554 S
C1217 C304 0.720 1_554 S
C1225 C370 0.771 . S
C1249 C403 0.720 1_556 S
C1257 C469 0.774 . S
C1281 C436 0.780 1_556 S
C1289 C502 0.745 . S
C1313 C601 0.789 . S
C1321 C535 0.748 1_554 S
C1345 C634 0.793 . S
C1353 C568 0.743 1_554 S
C1377 C667 0.725 1_556 S
C1385 C733 0.771 . S
C1409 C766 0.732 . S
C1417 C700 0.764 1_556 S
C1441 C865 0.792 . S
C1449 C799 0.747 . S
C1473 C898 0.796 . S
C1481 C832 0.740 . S
C1505 C997 0.798 . S
C1513 C931 0.743 . S
C1537 C964 0.716 . S
C1545 C1030 0.773 . S
C1569 N13 1.825 . S
C1577 N46 1.820 . S
C1601 N79 1.813 . S
C1609 N112 1.818 . S
C1633 N178 1.785 . S
C1641 N145 1.802 . S
C1665 N211 1.787 . S
C1673 N244 1.800 . S
C1697 N310 1.835 . S
C1705 N277 1.810 . S
C1729 N343 1.807 . S
C1737 N376 1.798 . S
C1761 N409 1.789 . S
C1769 N442 1.799 . S
C1793 N475 1.794 . S
C1801 N508 1.815 . S
C1825 N541 1.811 . S
C1833 N574 1.827 . S
C1857 N640 1.805 . S
C1865 N607 1.808 . S
C1889 N706 1.832 . S
C1897 N673 1.829 . S
C1921 N739 1.840 . S
C1929 N772 1.825 . S
C1953 N805 1.787 . S
C1961 N838 1.812 . S
C1985 N871 1.815 . S
C1993 N904 1.828 . S
C2017 N937 1.837 . S
C2025 N970 1.827 . S
C2049 N1036 1.788 . S
C2057 N1003 1.813 . S
C2081 C153 1.657 . S
C2089 C21 1.631 . S
C2113 C54 1.659 . S
C2121 C978 1.633 . S
C2145 C483 1.649 . S
C2153 C87 1.633 . S
C2177 C780 1.619 . S
C2185 C120 1.649 . S
C2209 C846 1.620 . S
C2217 C186 1.647 . S
C2241 C351 1.616 . S
C2249 C219 1.647 . S
C2273 C252 1.621 . S
C2281 C648 1.647 . S
C2305 C417 1.618 . S
C2313 C285 1.646 . S
C2337 C318 1.659 . S
C2345 C714 1.632 . S
C2369 C384 1.630 . S
C2377 C1044 1.643 . S
C2401 C582 1.658 . S
C2409 C450 1.633 . S
C2433 C912 1.656 . S
C2441 C516 1.634 . S
C2465 C549 1.628 . S
C2473 C681 1.644 . S
C2497 C615 1.656 . S
C2505 C1011 1.632 . S
C2529 C879 1.619 . S
C2537 C747 1.646 . S
C2561 C813 1.615 . S
C2569 C945 1.648 . S
C2593 N2 1.187 . S
C2601 N629 1.246 . S
C2625 N596 1.221 . S
C2633 N35 1.225 . S
C2657 N68 1.210 . S
C2665 N563 1.235 . S
C2689 N101 1.228 . S
C2697 N530 1.223 . S
C2721 N761 1.243 . S
C2729 N134 1.235 . S
C2753 N167 1.217 . S
C2761 N728 1.214 . S
C2785 N695 1.260 . S
C2793 N200 1.215 . S
C2817 N233 1.226 . S
C2825 N662 1.211 . S
C2849 N266 1.244 . S
C2857 N893 1.228 . S
C2881 N299 1.258 . S
C2889 N860 1.204 . S
C2913 N332 1.242 . S
C2921 N827 1.229 . S
C2945 N365 1.189 . S
C2953 N794 1.237 . S
C2977 N398 1.248 . S
C2985 N1025 1.217 . S
C3009 N992 1.203 . S
C3017 N431 1.237 . S
C3041 N959 1.263 . S
C3049 N464 1.215 . S
C3073 N926 1.219 . S
C3081 N497 1.213 . S
C3105 C18 1.269 . S
C3113 C84 1.268 1_554 S
C3137 C117 1.267 1_554 S
C3145 C51 1.268 . S
C3169 C216 1.263 1_556 S
C3177 C150 1.270 . S
C3201 C183 1.269 . S
C3209 C249 1.269 1_556 S
C3233 C282 1.264 . S
C3241 C348 1.271 . S
C3265 C315 1.264 . S
C3273 C381 1.271 . S
C3297 C480 1.269 . S
C3305 C414 1.269 . S
C3329 C447 1.269 . S
C3337 C513 1.269 . S
C3361 C546 1.269 . S
C3369 C612 1.269 . S
C3393 C579 1.268 . S
C3401 C645 1.268 . S
C3425 C744 1.269 . S
C3433 C678 1.269 . S
C3457 C777 1.269 . S
C3465 C711 1.269 . S
C3489 C876 1.267 1_554 S
C3497 C810 1.268 . S
C3521 C843 1.264 . S
C3529 C909 1.269 1_554 S
C3553 C1008 1.268 1_556 S
C3561 C942 1.268 . S
C3585 C975 1.269 . S
C3593 C1041 1.269 1_556 S
