# Generated by pormake.
# Topology reo-e, (6)-cn, num edge types: 1
# Building blocks:
#     Node 0, Type 0, BuildingBlock: MIDCAF_clean_sbu_0, # of connection points: 6
#     Node 1, Type 0, BuildingBlock: MIDCAF_clean_sbu_0, # of connection points: 6
#     Node 2, Type 0, BuildingBlock: MIDCAF_clean_sbu_0, # of connection points: 6
#     Node 3, Type 0, BuildingBlock: MIDCAF_clean_sbu_0, # of connection points: 6
#     Node 4, Type 0, BuildingBlock: MIDCAF_clean_sbu_0, # of connection points: 6
#     Node 5, Type 0, BuildingBlock: MIDCAF_clean_sbu_0, # of connection points: 6
#     Node 6, Type 0, BuildingBlock: MIDCAF_clean_sbu_0, # of connection points: 6
#     Node 7, Type 0, BuildingBlock: MIDCAF_clean_sbu_0, # of connection points: 6
#     Node 8, Type 0, BuildingBlock: MIDCAF_clean_sbu_0, # of connection points: 6
#     Node 9, Type 0, BuildingBlock: MIDCAF_clean_sbu_0, # of connection points: 6
#     Node 10, Type 0, BuildingBlock: MIDCAF_clean_sbu_0, # of connection points: 6
#     Node 11, Type 0, BuildingBlock: MIDCAF_clean_sbu_0, # of connection points: 6
#     Edge 12, Type (0, 0), BuildingBlock: CIFDUS_clean_linker_0, # of connection points: 2
#     Edge 13, Type (0, 0), BuildingBlock: CIFDUS_clean_linker_0, # of connection points: 2
#     Edge 14, Type (0, 0), BuildingBlock: CIFDUS_clean_linker_0, # of connection points: 2
#     Edge 15, Type (0, 0), BuildingBlock: CIFDUS_clean_linker_0, # of connection points: 2
#     Edge 16, Type (0, 0), BuildingBlock: CIFDUS_clean_linker_0, # of connection points: 2
#     Edge 17, Type (0, 0), BuildingBlock: CIFDUS_clean_linker_0, # of connection points: 2
#     Edge 18, Type (0, 0), BuildingBlock: CIFDUS_clean_linker_0, # of connection points: 2
#     Edge 19, Type (0, 0), BuildingBlock: CIFDUS_clean_linker_0, # of connection points: 2
#     Edge 20, Type (0, 0), BuildingBlock: CIFDUS_clean_linker_0, # of connection points: 2
#     Edge 21, Type (0, 0), BuildingBlock: CIFDUS_clean_linker_0, # of connection points: 2
#     Edge 22, Type (0, 0), BuildingBlock: CIFDUS_clean_linker_0, # of connection points: 2
#     Edge 23, Type (0, 0), BuildingBlock: CIFDUS_clean_linker_0, # of connection points: 2
#     Edge 24, Type (0, 0), BuildingBlock: CIFDUS_clean_linker_0, # of connection points: 2
#     Edge 25, Type (0, 0), BuildingBlock: CIFDUS_clean_linker_0, # of connection points: 2
#     Edge 26, Type (0, 0), BuildingBlock: CIFDUS_clean_linker_0, # of connection points: 2
#     Edge 27, Type (0, 0), BuildingBlock: CIFDUS_clean_linker_0, # of connection points: 2
#     Edge 28, Type (0, 0), BuildingBlock: CIFDUS_clean_linker_0, # of connection points: 2
#     Edge 29, Type (0, 0), BuildingBlock: CIFDUS_clean_linker_0, # of connection points: 2
#     Edge 30, Type (0, 0), BuildingBlock: CIFDUS_clean_linker_0, # of connection points: 2
#     Edge 31, Type (0, 0), BuildingBlock: CIFDUS_clean_linker_0, # of connection points: 2
#     Edge 32, Type (0, 0), BuildingBlock: CIFDUS_clean_linker_0, # of connection points: 2
#     Edge 33, Type (0, 0), BuildingBlock: CIFDUS_clean_linker_0, # of connection points: 2
#     Edge 34, Type (0, 0), BuildingBlock: CIFDUS_clean_linker_0, # of connection points: 2
#     Edge 35, Type (0, 0), BuildingBlock: CIFDUS_clean_linker_0, # of connection points: 2
#     Edge 36, Type (0, 0), BuildingBlock: CIFDUS_clean_linker_0, # of connection points: 2
#     Edge 37, Type (0, 0), BuildingBlock: CIFDUS_clean_linker_0, # of connection points: 2
#     Edge 38, Type (0, 0), BuildingBlock: CIFDUS_clean_linker_0, # of connection points: 2
#     Edge 39, Type (0, 0), BuildingBlock: CIFDUS_clean_linker_0, # of connection points: 2
#     Edge 40, Type (0, 0), BuildingBlock: CIFDUS_clean_linker_0, # of connection points: 2
#     Edge 41, Type (0, 0), BuildingBlock: CIFDUS_clean_linker_0, # of connection points: 2
#     Edge 42, Type (0, 0), BuildingBlock: CIFDUS_clean_linker_0, # of connection points: 2
#     Edge 43, Type (0, 0), BuildingBlock: CIFDUS_clean_linker_0, # of connection points: 2
#     Edge 44, Type (0, 0), BuildingBlock: CIFDUS_clean_linker_0, # of connection points: 2
#     Edge 45, Type (0, 0), BuildingBlock: CIFDUS_clean_linker_0, # of connection points: 2
#     Edge 46, Type (0, 0), BuildingBlock: CIFDUS_clean_linker_0, # of connection points: 2
#     Edge 47, Type (0, 0), BuildingBlock: CIFDUS_clean_linker_0, # of connection points: 2
# Relax obj value: 0.261
# Max RMSD: 0.248
# Mean RMSD: 0.246
data_MOF--net-reo-e--node1-MIDCAF_clean_sbu_0--edge1-CIFDUS_clean_linker_0
_symmetry_space_group_name_H-M    P1
_symmetry_Int_Tables_number       1
_symmetry_cell_setting            triclinic
loop_
_symmetry_equiv_pos_as_xyz
'x, y, z'
_cell_length_a     33.00619
_cell_length_b     32.778899
_cell_length_c     32.663013
_cell_angle_alpha  90.094511
_cell_angle_beta   90.296238
_cell_angle_gamma 89.93477
loop_
_atom_site_label
_atom_site_type_symbol
_atom_site_fract_x
_atom_site_fract_y
_atom_site_fract_z
_atom_type_partial_charge
Zn0 Zn 0.12609 0.24462 0.46208 0.0
Zn1 Zn 0.2136 0.13363 0.53314 0.0
Zn2 Zn 0.17577 0.19231 0.49677 0.0
C3 C 0.25189 0.15343 0.45637 0.0
C4 C 0.14411 0.09749 0.51577 0.0
O5 O 0.17089 0.24204 0.54181 0.0
O6 O 0.12938 0.28411 0.50939 0.0
C7 C 0.19342 0.24182 0.41221 0.0
O8 O 0.22617 0.18283 0.45575 0.0
O9 O 0.25153 0.12766 0.4852 0.0
O10 O 0.17283 0.09076 0.54039 0.0
O11 O 0.14185 0.13223 0.49718 0.0
O12 O 0.15827 0.25686 0.41317 0.0
O13 O 0.20548 0.21744 0.44073 0.0
O14 O 0.11476 0.16517 0.48786 0.0
O15 O 0.07747 0.21045 0.45464 0.0
C16 C 0.08105 0.17574 0.47082 0.0
O17 O 0.20082 0.21475 0.55624 0.0
O18 O 0.23296 0.16158 0.58246 0.0
C19 C 0.15104 0.27585 0.5404 0.0
C20 C 0.22277 0.19857 0.58467 0.0
Zn21 Zn 0.83533 0.24584 0.56753 0.0
Zn22 Zn 0.72965 0.13964 0.53278 0.0
Zn23 Zn 0.7796 0.19706 0.539 0.0
C24 C 0.69769 0.18272 0.5937 0.0
C25 C 0.79854 0.09843 0.53875 0.0
O26 O 0.78026 0.24321 0.49018 0.0
O27 O 0.82605 0.28309 0.51945 0.0
C28 C 0.77814 0.25208 0.62476 0.0
O29 O 0.73272 0.19919 0.58814 0.0
O30 O 0.68517 0.15544 0.56957 0.0
O31 O 0.76206 0.09067 0.54684 0.0
O32 O 0.8096 0.13572 0.53277 0.0
O33 O 0.81429 0.26355 0.62079 0.0
O34 O 0.76166 0.22861 0.59756 0.0
O35 O 0.83944 0.16572 0.54049 0.0
O36 O 0.88262 0.20929 0.56832 0.0
C37 C 0.87537 0.17465 0.55319 0.0
O38 O 0.75203 0.21171 0.47957 0.0
O39 O 0.72227 0.15165 0.47348 0.0
C40 C 0.80162 0.27601 0.49025 0.0
C41 C 0.73189 0.18568 0.45819 0.0
Zn42 Zn 0.74695 0.83727 0.45813 0.0
Zn43 Zn 0.84524 0.72711 0.49927 0.0
Zn44 Zn 0.79271 0.77955 0.48786 0.0
C45 C 0.88359 0.79778 0.5176 0.0
C46 C 0.82729 0.71718 0.41971 0.0
O47 O 0.74517 0.77788 0.53313 0.0
O48 O 0.71061 0.82972 0.50725 0.0
C49 C 0.81403 0.8781 0.48113 0.0
O50 O 0.85146 0.8107 0.49925 0.0
O51 O 0.88666 0.76065 0.52711 0.0
O52 O 0.85722 0.70915 0.44244 0.0
O53 O 0.79857 0.74014 0.43307 0.0
O54 O 0.78352 0.88499 0.4588 0.0
O55 O 0.82096 0.8416 0.49425 0.0
O56 O 0.76371 0.76344 0.42717 0.0
O57 O 0.72799 0.81613 0.40482 0.0
C58 C 0.74019 0.78001 0.40012 0.0
O59 O 0.77262 0.74456 0.54286 0.0
O60 O 0.81238 0.69107 0.53408 0.0
C61 C 0.71509 0.80277 0.53471 0.0
C62 C 0.78383 0.70825 0.55304 0.0
Zn63 Zn 0.15301 0.74284 0.46512 0.0
Zn64 Zn 0.23928 0.8606 0.46057 0.0
Zn65 Zn 0.19741 0.80054 0.46069 0.0
C66 C 0.17015 0.89196 0.43493 0.0
C67 C 0.27804 0.80292 0.4125 0.0
O68 O 0.21045 0.76665 0.51814 0.0
O69 O 0.18529 0.70654 0.50187 0.0
C70 C 0.10404 0.80887 0.47737 0.0
O71 O 0.1607 0.85766 0.45165 0.0
O72 O 0.20675 0.89909 0.42674 0.0
O73 O 0.28636 0.83276 0.43547 0.0
O74 O 0.24188 0.78828 0.4119 0.0
O75 O 0.10563 0.77216 0.48883 0.0
O76 O 0.13501 0.8252 0.46017 0.0
O77 O 0.20997 0.76098 0.40643 0.0
O78 O 0.15169 0.72842 0.40612 0.0
C79 C 0.18481 0.73652 0.38878 0.0
O80 O 0.22953 0.80397 0.51955 0.0
O81 O 0.24255 0.86986 0.52134 0.0
C82 C 0.20621 0.72838 0.52569 0.0
C83 C 0.24185 0.83572 0.53917 0.0
Zn84 Zn 0.51043 0.23895 0.1836 0.0
Zn85 Zn 0.50011 0.10812 0.27341 0.0
Zn86 Zn 0.50048 0.17547 0.23014 0.0
C87 C 0.5728 0.14654 0.29158 0.0
C88 C 0.49606 0.08322 0.19335 0.0
O89 O 0.44628 0.21284 0.24259 0.0
O90 O 0.45573 0.26037 0.19544 0.0
C91 C 0.5733 0.24323 0.23617 0.0
O92 O 0.5562 0.17336 0.26809 0.0
O93 O 0.55513 0.11311 0.2984 0.0
O94 O 0.4929 0.06843 0.22878 0.0
O95 O 0.50011 0.12193 0.18842 0.0
O96 O 0.55675 0.26613 0.21005 0.0
O97 O 0.55744 0.20853 0.24521 0.0
O98 O 0.49644 0.15773 0.16463 0.0
O99 O 0.51787 0.21127 0.12985 0.0
C100 C 0.50537 0.17491 0.13037 0.0
O101 O 0.44616 0.17947 0.26998 0.0
O102 O 0.45191 0.12237 0.30557 0.0
C103 C 0.43426 0.24483 0.2232 0.0
C104 C 0.43299 0.15496 0.29772 0.0
Zn105 Zn 0.7515 0.43818 0.15559 0.0
Zn106 Zn 0.8637 0.48081 0.25754 0.0
Zn107 Zn 0.80315 0.46627 0.20828 0.0
C108 C 0.81626 0.55171 0.25409 0.0
C109 C 0.8982 0.45966 0.18448 0.0
O110 O 0.76911 0.41347 0.23366 0.0
O111 O 0.7302 0.39007 0.18355 0.0
C112 C 0.72968 0.52048 0.18113 0.0
O113 O 0.79244 0.52857 0.23302 0.0
O114 O 0.85045 0.53871 0.26566 0.0
O115 O 0.90882 0.46738 0.22079 0.0
O116 O 0.8605 0.45908 0.17436 0.0
O117 O 0.71961 0.49023 0.15916 0.0
O118 O 0.76186 0.51861 0.20344 0.0
O119 O 0.82959 0.45817 0.14489 0.0
O120 O 0.78316 0.42882 0.10578 0.0
C121 C 0.81818 0.44353 0.10989 0.0
O122 O 0.80168 0.42146 0.25986 0.0
O123 O 0.84993 0.442 0.30222 0.0
C124 C 0.74287 0.38772 0.21989 0.0
C125 C 0.82132 0.41778 0.2939 0.0
Zn126 Zn 0.52956 0.819 0.23871 0.0
Zn127 Zn 0.48273 0.72546 0.11606 0.0
Zn128 Zn 0.5123 0.76815 0.177 0.0
C129 C 0.49773 0.79898 0.08186 0.0
C130 C 0.42783 0.71465 0.17543 0.0
O131 O 0.57262 0.74892 0.20143 0.0
O132 O 0.58204 0.79395 0.25132 0.0
C133 C 0.51948 0.86622 0.16831 0.0
O134 O 0.50935 0.80481 0.11917 0.0
O135 O 0.48353 0.76497 0.07096 0.0
O136 O 0.42952 0.70869 0.13736 0.0
O137 O 0.45601 0.73489 0.19389 0.0
O138 O 0.52866 0.86991 0.2057 0.0
O139 O 0.51245 0.83081 0.15282 0.0
O140 O 0.46364 0.76592 0.22304 0.0
O141 O 0.48232 0.80613 0.27413 0.0
C142 C 0.45688 0.78198 0.25832 0.0
O143 O 0.5589 0.7209 0.17139 0.0
O144 O 0.52838 0.68533 0.12266 0.0
C145 C 0.59429 0.76378 0.2308 0.0
C146 C 0.55738 0.68939 0.14789 0.0
Zn147 Zn 0.15451 0.46492 0.24087 0.0
Zn148 Zn 0.26774 0.48022 0.13321 0.0
Zn149 Zn 0.20691 0.47597 0.18587 0.0
C150 C 0.27456 0.54587 0.18794 0.0
C151 C 0.19438 0.48788 0.0892 0.0
O152 O 0.21859 0.41951 0.22251 0.0
O153 O 0.18206 0.42605 0.27857 0.0
C154 C 0.17779 0.54611 0.24722 0.0
O155 O 0.23961 0.53271 0.19897 0.0
O156 O 0.29519 0.52665 0.16176 0.0
O157 O 0.2322 0.49194 0.08521 0.0
O158 O 0.17898 0.47962 0.1243 0.0
O159 O 0.14881 0.52317 0.25729 0.0
O160 O 0.20578 0.53248 0.22354 0.0
O161 O 0.149 0.47157 0.15324 0.0
O162 O 0.11286 0.4428 0.20195 0.0
C163 C 0.11619 0.45435 0.16523 0.0
O164 O 0.24644 0.4216 0.19125 0.0
O165 O 0.28906 0.42386 0.1392 0.0
C166 C 0.20839 0.40687 0.25837 0.0
C167 C 0.27487 0.4054 0.16978 0.0
Zn168 Zn 0.48855 0.7584 0.81564 0.0
Zn169 Zn 0.48233 0.89895 0.67024 0.0
Zn170 Zn 0.48848 0.81511 0.76675 0.0
C171 C 0.48271 0.90033 0.76555 0.0
C172 C 0.41929 0.83177 0.68755 0.0
O173 O 0.5456 0.77873 0.76037 0.0
O174 O 0.53301 0.72263 0.79539 0.0
C175 C 0.49322 0.83058 0.86178 0.0
O176 O 0.48469 0.8757 0.79561 0.0
O177 O 0.48761 0.88437 0.73064 0.0
O178 O 0.43248 0.86247 0.66721 0.0
O179 O 0.43735 0.81599 0.71942 0.0
O180 O 0.49944 0.79269 0.86488 0.0
O181 O 0.48517 0.84642 0.82669 0.0
O182 O 0.43349 0.78089 0.75013 0.0
O183 O 0.43184 0.74147 0.80478 0.0
C184 C 0.41554 0.75396 0.77207 0.0
O185 O 0.54528 0.80971 0.73332 0.0
O186 O 0.51432 0.85868 0.70367 0.0
C187 C 0.55597 0.74269 0.7722 0.0
C188 C 0.54469 0.83525 0.70413 0.0
Zn189 Zn 0.12141 0.5434 0.72592 0.0
Zn190 Zn 0.24888 0.50548 0.80808 0.0
Zn191 Zn 0.18454 0.51694 0.76681 0.0
C192 C 0.1842 0.48866 0.86001 0.0
C193 C 0.25574 0.58408 0.78678 0.0
O194 O 0.17885 0.47095 0.71847 0.0
O195 O 0.12685 0.49777 0.68502 0.0
C196 C 0.09242 0.52442 0.80242 0.0
O197 O 0.16439 0.50483 0.83011 0.0
O198 O 0.22177 0.48225 0.85698 0.0
O199 O 0.27197 0.56094 0.8129 0.0
O200 O 0.2251 0.57159 0.7656 0.0
O201 O 0.08042 0.53985 0.76917 0.0
O202 O 0.12976 0.51357 0.80687 0.0
O203 O 0.19495 0.57764 0.7364 0.0
O204 O 0.13727 0.59836 0.70848 0.0
C205 C 0.17418 0.60445 0.71625 0.0
O206 O 0.21355 0.46021 0.74285 0.0
O207 O 0.27464 0.46634 0.77011 0.0
C208 C 0.15351 0.47015 0.68846 0.0
C209 C 0.25038 0.44764 0.74676 0.0
Zn210 Zn 0.44229 0.27264 0.87127 0.0
Zn211 Zn 0.4683 0.15378 0.7074 0.0
Zn212 Zn 0.46432 0.22549 0.812 0.0
C213 C 0.4731 0.14011 0.80378 0.0
C214 C 0.51955 0.22051 0.74905 0.0
O215 O 0.40584 0.25152 0.79442 0.0
O216 O 0.38866 0.28906 0.84778 0.0
C217 C 0.45873 0.19656 0.9062 0.0
O218 O 0.47226 0.16318 0.83514 0.0
O219 O 0.47248 0.15846 0.76972 0.0
O220 O 0.49162 0.19431 0.74761 0.0
O221 O 0.51974 0.24349 0.78043 0.0
O222 O 0.4441 0.2309 0.91566 0.0
O223 O 0.46831 0.18875 0.86884 0.0
O224 O 0.51275 0.27109 0.81224 0.0
O225 O 0.49174 0.30888 0.86403 0.0
C226 C 0.51771 0.30163 0.83648 0.0
O227 O 0.41448 0.22005 0.76221 0.0
O228 O 0.41463 0.18331 0.70257 0.0
C229 C 0.38078 0.2755 0.81242 0.0
C230 C 0.39785 0.20797 0.7279 0.0
Zn231 Zn 0.82243 0.4727 0.75686 0.0
Zn232 Zn 0.73482 0.54337 0.86921 0.0
Zn233 Zn 0.77402 0.50344 0.8119 0.0
C234 C 0.80816 0.53011 0.90392 0.0
C235 C 0.69628 0.46553 0.85245 0.0
O236 O 0.76938 0.54232 0.75631 0.0
O237 O 0.80783 0.51029 0.71133 0.0
C238 C 0.87228 0.49338 0.82107 0.0
O239 O 0.81196 0.51266 0.86863 0.0
O240 O 0.77595 0.54884 0.91256 0.0
O241 O 0.69389 0.49783 0.87367 0.0
O242 O 0.72562 0.46077 0.82707 0.0
O243 O 0.87488 0.47807 0.78574 0.0
O244 O 0.83754 0.50432 0.83527 0.0
O245 O 0.75121 0.44059 0.79902 0.0
O246 O 0.79801 0.41848 0.75598 0.0
C247 C 0.76637 0.4122 0.77646 0.0
O248 O 0.74371 0.55857 0.7862 0.0
O249 O 0.71917 0.59289 0.83892 0.0
C250 C 0.78388 0.5391 0.71991 0.0
C251 C 0.72494 0.58981 0.80092 0.0
H252 H 0.19112 0.23556 0.32978 0.0
H253 H 0.25557 0.29204 0.42965 0.0
H254 H 0.27408 0.34922 0.38571 0.0
H255 H 0.25391 0.3908 0.32573 0.0
H256 H 0.19083 0.33371 0.22523 0.0
H257 H 0.19033 0.26871 0.26196 0.0
C258 C 0.21127 0.25922 0.34108 0.0
C259 C 0.22158 0.26009 0.38283 0.0
C260 C 0.22086 0.29246 0.31582 0.0
C261 C 0.24746 0.29082 0.39748 0.0
C262 C 0.2574 0.3239 0.37253 0.0
C263 C 0.24167 0.3636 0.31133 0.0
C264 C 0.22168 0.36681 0.27345 0.0
C265 C 0.24155 0.32639 0.33267 0.0
C266 C 0.20612 0.33166 0.2546 0.0
C267 C 0.20561 0.29463 0.2757 0.0
H268 H 0.59925 0.21604 0.32916 0.0
H269 H 0.6348 0.0934 0.29756 0.0
H270 H 0.69606 0.10011 0.33907 0.0
H271 H 0.73133 0.13521 0.39427 0.0
H272 H 0.69359 0.25528 0.43173 0.0
H273 H 0.64293 0.2566 0.37632 0.0
C274 C 0.62118 0.19142 0.33039 0.0
C275 C 0.6126 0.15415 0.31073 0.0
C276 C 0.65593 0.19518 0.35532 0.0
C277 C 0.6407 0.12212 0.31295 0.0
C278 C 0.67574 0.126 0.33653 0.0
C279 C 0.71299 0.16229 0.38925 0.0
C280 C 0.71549 0.19477 0.41719 0.0
C281 C 0.68259 0.16161 0.35929 0.0
C282 C 0.69205 0.2299 0.41048 0.0
C283 C 0.66263 0.23028 0.3793 0.0
H284 H 0.76461 0.67577 0.38552 0.0
H285 H 0.88657 0.71639 0.36327 0.0
H286 H 0.8893 0.67534 0.30088 0.0
H287 H 0.86212 0.61848 0.26134 0.0
H288 H 0.74278 0.57235 0.28677 0.0
H289 H 0.7325 0.62666 0.33748 0.0
C290 C 0.79099 0.67683 0.36595 0.0
C291 C 0.8253 0.69898 0.37859 0.0
C292 C 0.79268 0.65213 0.33074 0.0
C293 C 0.85998 0.69928 0.354 0.0
C294 C 0.8615 0.67589 0.3184 0.0
C295 C 0.8333 0.6213 0.27697 0.0
C296 C 0.80342 0.59142 0.27081 0.0
C297 C 0.82876 0.6508 0.30761 0.0
C298 C 0.76614 0.59519 0.29098 0.0
C299 C 0.76058 0.62581 0.32045 0.0
H300 H 0.28088 0.78567 0.33049 0.0
H301 H 0.35037 0.78128 0.44252 0.0
H302 H 0.41219 0.76852 0.40417 0.0
H303 H 0.44789 0.77022 0.33904 0.0
H304 H 0.38045 0.77742 0.22609 0.0
H305 H 0.31656 0.77669 0.26407 0.0
C306 C 0.30942 0.78062 0.3463 0.0
C307 C 0.31141 0.78472 0.38907 0.0
C308 C 0.34529 0.77444 0.32384 0.0
C309 C 0.34843 0.77847 0.40949 0.0
C310 C 0.38378 0.7714 0.38762 0.0
C311 C 0.41912 0.77085 0.3228 0.0
C312 C 0.41867 0.77406 0.28005 0.0
C313 C 0.38284 0.77124 0.34481 0.0
C314 C 0.38139 0.77454 0.25911 0.0
C315 C 0.3449 0.77452 0.28084 0.0
H316 H 0.18831 0.75216 0.60236 0.0
H317 H 0.25523 0.66268 0.53369 0.0
H318 H 0.26205 0.62001 0.59471 0.0
H319 H 0.23365 0.6008 0.66112 0.0
H320 H 0.1558 0.68475 0.72475 0.0
H321 H 0.16929 0.73741 0.67355 0.0
C322 C 0.20569 0.72405 0.60143 0.0
C323 C 0.22115 0.71024 0.56396 0.0
C324 C 0.20689 0.69844 0.63587 0.0
C325 C 0.24311 0.67362 0.56246 0.0
C326 C 0.24674 0.64917 0.59724 0.0
C327 C 0.22122 0.63127 0.66457 0.0
C328 C 0.19391 0.63921 0.69635 0.0
C329 C 0.22655 0.66008 0.63331 0.0
C330 C 0.1771 0.67831 0.70043 0.0
C331 C 0.18445 0.70818 0.67092 0.0
H332 H 0.22501 0.18501 0.66595 0.0
H333 H 0.26835 0.26592 0.57224 0.0
H334 H 0.32647 0.28436 0.61518 0.0
H335 H 0.37339 0.26079 0.66955 0.0
H336 H 0.32982 0.17995 0.76321 0.0
H337 H 0.26285 0.17854 0.73076 0.0
C338 C 0.24613 0.20826 0.65597 0.0
C339 C 0.24327 0.22345 0.6159 0.0
C340 C 0.27987 0.2178 0.6804 0.0
C341 C 0.2703 0.25376 0.60303 0.0
C342 C 0.30383 0.26381 0.62733 0.0
C343 C 0.34858 0.24441 0.68368 0.0
C344 C 0.35617 0.22 0.71813 0.0
C345 C 0.3104 0.24353 0.6646 0.0
C346 C 0.32427 0.19884 0.73657 0.0
C347 C 0.28616 0.19782 0.71786 0.0
H348 H 0.70606 0.3911 0.72489 0.0
H349 H 0.78971 0.34297 0.81396 0.0
H350 H 0.79496 0.27951 0.77529 0.0
H351 H 0.79305 0.24958 0.70602 0.0
H352 H 0.71052 0.29804 0.61592 0.0
H353 H 0.68683 0.34921 0.66501 0.0
C354 C 0.7232 0.3656 0.73717 0.0
C355 C 0.74804 0.37175 0.77171 0.0
C356 C 0.72752 0.32996 0.71357 0.0
C357 C 0.77034 0.33877 0.78739 0.0
C358 C 0.77406 0.3028 0.76474 0.0
C359 C 0.76864 0.27028 0.69789 0.0
C360 C 0.75408 0.27096 0.65746 0.0
C361 C 0.75556 0.29973 0.72613 0.0
C362 C 0.72226 0.29741 0.64695 0.0
C363 C 0.70893 0.32678 0.67494 0.0
H364 H 0.66013 0.86077 0.55395 0.0
H365 H 0.70308 0.74237 0.59165 0.0
H366 H 0.65564 0.74268 0.64897 0.0
H367 H 0.60082 0.77662 0.68744 0.0
H368 H 0.5563 0.89365 0.64664 0.0
H369 H 0.60526 0.89369 0.591 0.0
C370 C 0.65916 0.83487 0.57456 0.0
C371 C 0.68577 0.80179 0.56891 0.0
C372 C 0.63131 0.83504 0.60674 0.0
C373 C 0.68384 0.76861 0.59596 0.0
C374 C 0.6564 0.76867 0.62849 0.0
C375 C 0.602 0.80217 0.66646 0.0
C376 C 0.57501 0.83511 0.67113 0.0
C377 C 0.62999 0.80179 0.63418 0.0
C378 C 0.57663 0.86787 0.64356 0.0
C379 C 0.60463 0.86795 0.61177 0.0
H380 H 0.38402 0.099 0.33063 0.0
H381 H 0.39896 0.22877 0.31824 0.0
H382 H 0.34064 0.24045 0.36328 0.0
H383 H 0.29014 0.21264 0.41215 0.0
H384 H 0.28025 0.08224 0.42673 0.0
H385 H 0.33259 0.07169 0.37554 0.0
C386 C 0.37442 0.12992 0.33754 0.0
C387 C 0.39554 0.16313 0.32095 0.0
C388 C 0.34221 0.13607 0.36444 0.0
C389 C 0.38251 0.2029 0.32988 0.0
C390 C 0.3496 0.20944 0.35611 0.0
C391 C 0.29897 0.18203 0.4034 0.0
C392 C 0.28145 0.14826 0.4231 0.0
C393 C 0.32977 0.17617 0.37431 0.0
C394 C 0.29363 0.10868 0.41223 0.0
C395 C 0.32344 0.1026 0.38291 0.0
H396 H 0.82013 0.4278 0.37528 0.0
H397 H 0.79844 0.33798 0.28148 0.0
H398 H 0.78476 0.28621 0.334 0.0
H399 H 0.78578 0.26533 0.40767 0.0
H400 H 0.81081 0.35688 0.49954 0.0
H401 H 0.81628 0.40887 0.44703 0.0
C402 C 0.81213 0.39693 0.36633 0.0
C403 C 0.80991 0.38675 0.32466 0.0
C404 C 0.80524 0.36747 0.39654 0.0
C405 C 0.79935 0.34673 0.31343 0.0
C406 C 0.79202 0.31706 0.34349 0.0
C407 C 0.79169 0.29679 0.41605 0.0
C408 C 0.79834 0.30709 0.45747 0.0
C409 C 0.79563 0.32687 0.38531 0.0
C410 C 0.80612 0.348 0.46789 0.0
C411 C 0.80929 0.37785 0.43788 0.0
H412 H 0.61077 0.70646 0.28722 0.0
H413 H 0.66635 0.78944 0.20258 0.0
H414 H 0.7253 0.79595 0.24756 0.0
H415 H 0.74927 0.79437 0.31924 0.0
H416 H 0.69207 0.71374 0.40521 0.0
H417 H 0.64587 0.68934 0.35172 0.0
C418 C 0.63699 0.72386 0.27757 0.0
C419 C 0.6343 0.74777 0.24203 0.0
C420 C 0.66979 0.72902 0.30471 0.0
C421 C 0.66803 0.77062 0.22979 0.0
C422 C 0.70137 0.77501 0.25597 0.0
C423 C 0.72776 0.77022 0.32561 0.0
C424 C 0.72348 0.7561 0.36589 0.0
C425 C 0.7009 0.75696 0.29486 0.0
C426 C 0.69566 0.72494 0.37424 0.0
C427 C 0.66912 0.71121 0.34374 0.0
H428 H 0.13349 0.71089 0.33059 0.0
H429 H 0.25925 0.70645 0.36607 0.0
H430 H 0.27054 0.64939 0.31862 0.0
H431 H 0.24062 0.59221 0.27784 0.0
H432 H 0.11303 0.59541 0.24875 0.0
H433 H 0.10633 0.66114 0.28278 0.0
C434 C 0.16365 0.69816 0.32708 0.0
C435 C 0.19536 0.71249 0.35199 0.0
C436 C 0.16927 0.66433 0.30153 0.0
C437 C 0.23439 0.69608 0.34697 0.0
C438 C 0.24065 0.663 0.32033 0.0
C439 C 0.21173 0.60797 0.27813 0.0
C440 C 0.1772 0.58888 0.26137 0.0
C441 C 0.20778 0.6455 0.29906 0.0
C442 C 0.13982 0.60933 0.26204 0.0
C443 C 0.13597 0.64692 0.28143 0.0
H444 H 0.289 0.7739 0.56587 0.0
H445 H 0.23836 0.8896 0.60225 0.0
H446 H 0.28409 0.89208 0.66129 0.0
H447 H 0.34807 0.86949 0.69182 0.0
H448 H 0.40587 0.7605 0.64754 0.0
H449 H 0.34732 0.74592 0.60355 0.0
C450 C 0.28706 0.79884 0.58764 0.0
C451 C 0.26081 0.83173 0.57979 0.0
C452 C 0.31508 0.80116 0.62001 0.0
C453 C 0.25873 0.86421 0.6077 0.0
C454 C 0.28493 0.86567 0.64129 0.0
C455 C 0.34682 0.84167 0.67377 0.0
C456 C 0.38039 0.81545 0.67343 0.0
C457 C 0.31471 0.83553 0.64628 0.0
C458 C 0.37952 0.78013 0.64925 0.0
C459 C 0.34643 0.77235 0.6235 0.0
H460 H 0.1377 0.35672 0.53395 0.0
H461 H 0.17209 0.26456 0.62138 0.0
H462 H 0.18077 0.31693 0.67432 0.0
H463 H 0.17502 0.38948 0.69647 0.0
H464 H 0.13505 0.47935 0.60863 0.0
H465 H 0.13179 0.42747 0.55539 0.0
C466 C 0.14699 0.34794 0.56461 0.0
C467 C 0.15513 0.30679 0.57342 0.0
C468 C 0.15068 0.37799 0.59497 0.0
C469 C 0.16709 0.29613 0.61336 0.0
C470 C 0.17154 0.32607 0.64379 0.0
C471 C 0.16608 0.39761 0.66554 0.0
C472 C 0.15525 0.43819 0.6565 0.0
C473 C 0.16324 0.36721 0.635 0.0
C474 C 0.14326 0.44829 0.61643 0.0
C475 C 0.14136 0.41865 0.58593 0.0
H476 H 0.60157 0.22612 0.75458 0.0
H477 H 0.50216 0.21951 0.66874 0.0
H478 H 0.54941 0.21079 0.61216 0.0
H479 H 0.61809 0.19758 0.58813 0.0
H480 H 0.71756 0.19644 0.67384 0.0
H481 H 0.67175 0.21618 0.72943 0.0
C482 C 0.59059 0.2238 0.7233 0.0
C483 C 0.54872 0.2236 0.71549 0.0
C484 C 0.61794 0.21697 0.69109 0.0
C485 C 0.53442 0.21978 0.67515 0.0
C486 C 0.56134 0.21457 0.64291 0.0
C487 C 0.62968 0.202 0.61898 0.0
C488 C 0.67106 0.1965 0.62698 0.0
C489 C 0.603 0.2118 0.65069 0.0
C490 C 0.68591 0.20191 0.66694 0.0
C491 C 0.65965 0.21269 0.69871 0.0
H492 H 0.7747 0.62243 0.7227 0.0
H493 H 0.76593 0.51816 0.64243 0.0
H494 H 0.75555 0.5628 0.5838 0.0
H495 H 0.76016 0.63057 0.55404 0.0
H496 H 0.7741 0.73579 0.63177 0.0
H497 H 0.76942 0.69223 0.69278 0.0
C498 C 0.76936 0.60967 0.69252 0.0
C499 C 0.77141 0.56712 0.68674 0.0
C500 C 0.76433 0.63576 0.6585 0.0
C501 C 0.76503 0.55084 0.64745 0.0
C502 C 0.75898 0.57632 0.61393 0.0
C503 C 0.76078 0.64407 0.58441 0.0
C504 C 0.76728 0.68616 0.58855 0.0
C505 C 0.76014 0.61873 0.61887 0.0
C506 C 0.76851 0.70345 0.62792 0.0
C507 C 0.76649 0.67844 0.66273 0.0
H508 H 0.37182 0.24308 0.17189 0.0
H509 H 0.41147 0.29287 0.28721 0.0
H510 H 0.35703 0.34367 0.28477 0.0
H511 H 0.30922 0.38315 0.24176 0.0
H512 H 0.27881 0.33913 0.12115 0.0
H513 H 0.31822 0.27706 0.13313 0.0
C514 C 0.36722 0.26399 0.19727 0.0
C515 C 0.3946 0.26368 0.23021 0.0
C516 C 0.33824 0.29503 0.19381 0.0
C517 C 0.38964 0.29162 0.26238 0.0
C518 C 0.35909 0.32123 0.26046 0.0
C519 C 0.3104 0.35926 0.21877 0.0
C520 C 0.29154 0.36533 0.18063 0.0
C521 C 0.33479 0.32465 0.22519 0.0
C522 C 0.29345 0.33483 0.1506 0.0
C523 C 0.31595 0.29948 0.15745 0.0
H524 H 0.29699 0.61553 0.72241 0.0
H525 H 0.25161 0.64434 0.84241 0.0
H526 H 0.29127 0.70726 0.84368 0.0
H527 H 0.34843 0.74604 0.81678 0.0
H528 H 0.40088 0.7125 0.70129 0.0
H529 H 0.34823 0.66086 0.69087 0.0
C530 C 0.29493 0.63643 0.74809 0.0
C531 C 0.27159 0.62572 0.78228 0.0
C532 C 0.31926 0.67173 0.74927 0.0
C533 C 0.26943 0.65233 0.81583 0.0
C534 C 0.29221 0.68812 0.8166 0.0
C535 C 0.34721 0.72847 0.7886 0.0
C536 C 0.37767 0.73375 0.75925 0.0
C537 C 0.31862 0.69709 0.78437 0.0
C538 C 0.37665 0.71023 0.72334 0.0
C539 C 0.3471 0.67998 0.71795 0.0
H540 H 0.2267 0.3766 0.77809 0.0
H541 H 0.30665 0.42927 0.68914 0.0
H542 H 0.35244 0.37085 0.69543 0.0
H543 H 0.37853 0.31692 0.74111 0.0
H544 H 0.30291 0.27136 0.83775 0.0
H545 H 0.24676 0.31418 0.81405 0.0
C546 C 0.25299 0.37398 0.75843 0.0
C547 C 0.26338 0.40695 0.73316 0.0
C548 C 0.28085 0.34217 0.76506 0.0
C549 C 0.29792 0.40394 0.70845 0.0
C550 C 0.32452 0.37092 0.71274 0.0
C551 C 0.34918 0.31533 0.75583 0.0
C552 C 0.34461 0.29129 0.79108 0.0
C553 C 0.31779 0.34162 0.74324 0.0
C554 C 0.30687 0.28977 0.81054 0.0
C555 C 0.27489 0.31434 0.79707 0.0
H556 H 0.67349 0.40693 0.79719 0.0
H557 H 0.64526 0.45545 0.91653 0.0
H558 H 0.58807 0.40898 0.92196 0.0
H559 H 0.54477 0.35636 0.89233 0.0
H560 H 0.57273 0.30611 0.77354 0.0
H561 H 0.63179 0.35083 0.76873 0.0
C562 C 0.65548 0.40659 0.82473 0.0
C563 C 0.66397 0.43444 0.85648 0.0
C564 C 0.62239 0.37968 0.82768 0.0
C565 C 0.63943 0.43445 0.89155 0.0
C566 C 0.60666 0.40787 0.89472 0.0
C567 C 0.56368 0.35513 0.86529 0.0
C568 C 0.55403 0.32807 0.83325 0.0
C569 C 0.59757 0.38075 0.8628 0.0
C570 C 0.57931 0.32662 0.79871 0.0
C571 C 0.61311 0.35226 0.79589 0.0
H572 H 0.7253 0.67205 0.80483 0.0
H573 H 0.67407 0.5705 0.73881 0.0
H574 H 0.6173 0.61309 0.71632 0.0
H575 H 0.57481 0.67349 0.73138 0.0
H576 H 0.62714 0.77572 0.79541 0.0
H577 H 0.69145 0.73907 0.80225 0.0
C578 C 0.70261 0.65993 0.78396 0.0
C579 C 0.70304 0.61826 0.77411 0.0
C580 C 0.66994 0.68447 0.77166 0.0
C581 C 0.674 0.60259 0.74682 0.0
C582 C 0.6413 0.62679 0.73443 0.0
C583 C 0.6009 0.68815 0.74535 0.0
C584 C 0.5965 0.72664 0.76363 0.0
C585 C 0.63768 0.6669 0.74905 0.0
C586 C 0.63018 0.7459 0.78138 0.0
C587 C 0.66677 0.72487 0.78552 0.0
H588 H 0.63492 0.68955 0.18072 0.0
H589 H 0.54512 0.61157 0.12428 0.0
H590 H 0.5898 0.5534 0.13115 0.0
H591 H 0.65334 0.52401 0.15265 0.0
H592 H 0.74636 0.59958 0.2062 0.0
H593 H 0.70103 0.65897 0.20245 0.0
C594 C 0.62511 0.65979 0.17036 0.0
C595 C 0.58655 0.65516 0.15213 0.0
C596 C 0.65131 0.62588 0.17428 0.0
C597 C 0.57465 0.61636 0.13809 0.0
C598 C 0.60011 0.58284 0.14218 0.0
C599 C 0.66399 0.55341 0.16355 0.0
C600 C 0.70309 0.55709 0.18035 0.0
C601 C 0.63839 0.58724 0.16011 0.0
C602 C 0.71606 0.59557 0.19425 0.0
C603 C 0.69027 0.62964 0.19157 0.0
H604 H 0.34692 0.71492 0.16291 0.0
H605 H 0.44099 0.66348 0.23873 0.0
H606 H 0.39634 0.60719 0.25779 0.0
H607 H 0.33775 0.56471 0.23724 0.0
H608 H 0.24288 0.6173 0.16332 0.0
H609 H 0.27993 0.68179 0.15991 0.0
C610 C 0.35684 0.69227 0.185 0.0
C611 C 0.39714 0.6924 0.19874 0.0
C612 C 0.33109 0.66003 0.19555 0.0
C613 C 0.40997 0.66354 0.22769 0.0
C614 C 0.38461 0.63117 0.23822 0.0
C615 C 0.32454 0.591 0.22204 0.0
C616 C 0.2883 0.58658 0.19995 0.0
C617 C 0.34615 0.62777 0.22008 0.0
C618 C 0.27097 0.62042 0.18037 0.0
C619 C 0.29229 0.65707 0.17812 0.0
H620 H 0.59326 0.30628 0.28522 0.0
H621 H 0.64329 0.20553 0.21751 0.0
H622 H 0.70929 0.23931 0.21568 0.0
H623 H 0.74406 0.30581 0.21522 0.0
H624 H 0.69425 0.40648 0.28317 0.0
H625 H 0.6372 0.36415 0.30457 0.0
C626 C 0.61926 0.29103 0.2719 0.0
C627 C 0.61379 0.25422 0.25073 0.0
C628 C 0.65678 0.31094 0.27053 0.0
C629 C 0.64722 0.23415 0.2337 0.0
C630 C 0.68476 0.25362 0.23234 0.0
C631 C 0.72175 0.31761 0.23648 0.0
C632 C 0.72243 0.35905 0.24707 0.0
C633 C 0.68883 0.29331 0.24791 0.0
C634 C 0.69389 0.3745 0.27469 0.0
C635 C 0.66107 0.35047 0.28646 0.0
H636 H 0.12127 0.9157 0.49639 0.0
H637 H 0.15927 0.94809 0.37482 0.0
H638 H 0.13941 0.01889 0.38671 0.0
H639 H 0.13235 0.07292 0.43819 0.0
H640 H 0.10635 0.04103 0.56307 0.0
H641 H 0.09873 0.96942 0.54363 0.0
C642 C 0.12318 0.93792 0.47188 0.0
C643 C 0.14207 0.927 0.43497 0.0
C644 C 0.11463 0.97919 0.48014 0.0
C645 C 0.14491 0.956 0.40352 0.0
C646 C 0.13401 -0.0034 0.41054 0.0
C647 C 0.12284 0.05054 0.46062 0.0
C648 C 0.12033 0.06194 0.502 0.0
C649 C 0.12188 0.00901 0.44973 0.0
C650 C 0.10852 0.03276 0.53102 0.0
C651 C 0.10477 0.99171 0.51997 0.0
H652 H 0.05496 0.14072 0.54017 0.0
H653 H 0.0239 0.1586 0.41327 0.0
H654 H 0.95278 0.14442 0.42788 0.0
H655 H 0.89915 0.14891 0.47933 0.0
H656 H 0.93048 0.14496 0.60729 0.0
H657 H 0.00104 0.13022 0.59034 0.0
C658 C 0.0328 0.13954 0.51553 0.0
C659 C 0.04419 0.15117 0.47591 0.0
C660 C -0.0084 0.13466 0.52482 0.0
C661 C 0.01546 0.14999 0.44409 0.0
C662 C 0.97477 0.14229 0.45254 0.0
C663 C 0.92117 0.14268 0.50332 0.0
C664 C 0.91013 0.1482 0.54436 0.0
C665 C 0.96219 0.13781 0.49322 0.0
C666 C 0.93865 0.14078 0.57547 0.0
C667 C 0.97905 0.13292 0.56573 0.0
H668 H 0.81753 0.03215 0.58464 0.0
H669 H 0.83583 0.08687 0.46643 0.0
H670 H 0.85227 0.02017 0.43729 0.0
H671 H 0.84268 0.94551 0.44267 0.0
H672 H 0.82811 0.89099 0.56156 0.0
H673 H 0.83038 0.9583 0.59366 0.0
C674 C 0.82712 0.02962 0.55302 0.0
C675 C 0.82488 0.06398 0.52746 0.0
C676 C 0.83652 0.99112 0.53653 0.0
C677 C 0.8374 0.06068 0.48659 0.0
C678 C 0.84631 0.02245 0.46982 0.0
C679 C 0.84213 0.94833 0.47576 0.0
C680 C 0.83443 0.91362 0.49972 0.0
C681 C 0.84329 0.98721 0.49397 0.0
C682 C 0.83398 0.91736 0.54254 0.0
C683 C 0.83469 0.95594 0.56087 0.0
H684 H 0.06293 0.81882 0.547 0.0
H685 H 0.05878 0.84607 0.41824 0.0
H686 H 0.98545 0.85763 0.42222 0.0
H687 H 0.92205 0.8406 0.45875 0.0
H688 H 0.92774 0.80832 0.58642 0.0
H689 H 0.00068 0.82 0.58729 0.0
C690 C 0.0461 0.82903 0.52027 0.0
C691 C 0.0656 0.83093 0.4823 0.0
C692 C 0.00407 0.83436 0.5227 0.0
C693 C 0.04404 0.84434 0.44774 0.0
C694 C 0.00209 0.85052 0.45 0.0
C695 C 0.93908 0.83833 0.48717 0.0
C696 C 0.91998 0.82314 0.52237 0.0
C697 C 0.98148 0.8429 0.48677 0.0
C698 C 0.94209 0.81986 0.55902 0.0
C699 C 0.98386 0.82599 0.55935 0.0
H700 H 0.41436 0.16418 0.96762 0.0
H701 H 0.53568 0.17352 0.92079 0.0
H702 H 0.56349 0.15897 0.98871 0.0
H703 H 0.55198 0.16203 0.06344 0.0
H704 H 0.43084 0.14859 0.10981 0.0
H705 H 0.40404 0.14508 0.04 0.0
C706 C 0.44681 0.1609 0.972 0.0
C707 C 0.47306 0.17041 0.93975 0.0
C708 C 0.46251 0.15259 0.01116 0.0
C709 C 0.51503 0.16617 0.94538 0.0
C710 C 0.53092 0.1584 0.98432 0.0
C711 C 0.52 0.15639 0.05808 0.0
C712 C 0.49322 0.15626 0.0913 0.0
C713 C 0.50488 0.15427 0.01786 0.0
C714 C 0.45189 0.14877 0.08445 0.0
C715 C 0.43651 0.14723 0.04455 0.0
H716 H 0.8374 0.45674 0.92582 0.0
H717 H 0.83885 0.58373 0.95953 0.0
H718 H 0.85671 0.56583 0.02993 0.0
H719 H 0.85006 0.51431 0.084 0.0
H720 H 0.83594 0.38794 0.05096 0.0
H721 H 0.84616 0.40457 0.97887 0.0
C722 C 0.84374 0.48045 0.94817 0.0
C723 C 0.83645 0.52139 0.93785 0.0
C724 C 0.85071 0.46969 0.98928 0.0
C725 C 0.84421 0.55198 0.96701 0.0
C726 C 0.85388 0.54167 0.00739 0.0
C727 C 0.85135 0.49029 0.06114 0.0
C728 C 0.84196 0.45009 0.07245 0.0
C729 C 0.85401 0.50061 0.01945 0.0
C730 C 0.84306 0.41912 0.04273 0.0
C731 C 0.8484 0.42874 0.00145 0.0
H732 H 0.44106 0.83739 0.03649 0.0
H733 H 0.56983 0.82603 0.05453 0.0
H734 H 0.58167 0.8484 0.98421 0.0
H735 H 0.55361 0.84939 0.91409 0.0
H736 H 0.42478 0.85939 0.89592 0.0
H737 H 0.41442 0.86104 0.96993 0.0
C738 C 0.4717 0.84202 0.02554 0.0
C739 C 0.50457 0.82959 0.04996 0.0
C740 C 0.47808 0.85399 0.98485 0.0
C741 C 0.54419 0.83551 0.03597 0.0
C742 C 0.5509 0.84779 -0.00439 0.0
C743 C 0.52358 0.85446 0.92649 0.0
C744 C 0.48992 0.85377 0.90003 0.0
C745 C 0.51791 0.85404 0.96905 0.0
C746 C 0.45105 0.86005 0.91596 0.0
C747 C 0.44511 0.86027 0.95829 0.0
H748 H 0.15255 0.54168 0.91454 0.0
H749 H 0.17663 0.41425 0.8938 0.0
H750 H 0.17056 0.40046 0.96698 0.0
H751 H 0.17655 0.42783 0.03666 0.0
H752 H 0.16035 0.55632 0.0579 0.0
H753 H 0.14424 0.56681 0.98537 0.0
C754 C 0.15449 0.5107 0.92605 0.0
C755 C 0.16496 0.47895 0.89922 0.0
C756 C 0.15321 0.50349 0.9685 0.0
C757 C 0.16833 0.43899 0.91416 0.0
C758 C 0.1653 0.43121 0.95601 0.0
C759 C 0.1675 0.45769 0.02557 0.0
C760 C 0.1693 0.49124 0.05217 0.0
C761 C 0.16037 0.46363 0.98359 0.0
C762 C 0.15856 0.53007 0.03776 0.0
C763 C 0.14989 0.53609 -0.00377 0.0
H764 H 0.06353 0.39292 0.15237 0.0
H765 H 0.08537 0.51927 0.12446 0.0
H766 H 0.01268 0.53086 0.11572 0.0
H767 H 0.94479 0.50939 0.13901 0.0
H768 H 0.92377 0.38346 0.16916 0.0
H769 H -0.0061 0.36668 0.15264 0.0
C770 C 0.05238 0.42238 0.14215 0.0
C771 C 0.07918 0.45548 0.14015 0.0
C772 C 0.01057 0.42895 0.13843 0.0
C773 C 0.06497 0.49348 0.12648 0.0
C774 C 0.02335 0.50022 0.12207 0.0
C775 C 0.95514 0.47796 0.13957 0.0
C776 C 0.92984 0.44768 0.15568 0.0
C777 C -0.0041 0.46893 0.13135 0.0
C778 C 0.94308 0.40707 0.15672 0.0
C779 C 0.9833 0.39761 0.14782 0.0
H780 H 0.93411 0.44234 0.83911 0.0
H781 H 0.89576 0.56757 0.84868 0.0
H782 H 0.96631 0.58945 0.85555 0.0
H783 H 0.0373 0.57359 0.83813 0.0
H784 H 0.07566 0.44835 0.8291 0.0
H785 H 0.00694 0.42542 0.84441 0.0
C786 C 0.94125 0.47417 0.84472 0.0
C787 C 0.91023 0.50351 0.84257 0.0
C788 C 0.98189 0.48644 0.84816 0.0
C789 C 0.91937 0.54461 0.85011 0.0
C790 C 0.95973 0.55712 0.85358 0.0
C791 C 0.03099 0.54133 0.84188 0.0
C792 C 0.061 0.5126 0.83182 0.0
C793 C -0.00881 0.52851 0.8497 0.0
C794 C 0.05288 0.47091 0.83674 0.0
C795 C 0.0134 0.45783 0.84481 0.0
H796 H 0.45221 0.08795 0.74388 0.0
H797 H 0.49403 0.09138 0.86905 0.0
H798 H 0.49849 0.01651 0.86979 0.0
H799 H 0.49426 0.95005 0.83253 0.0
H800 H 0.45053 0.9496 0.70775 0.0
H801 H 0.443 0.02312 0.70925 0.0
C802 C 0.4623 0.07239 0.77139 0.0
C803 C 0.47337 0.09508 0.80611 0.0
C804 C 0.4646 0.02976 0.77157 0.0
C805 C 0.48555 0.07445 0.84181 0.0
C806 C 0.48816 0.0317 0.8422 0.0
C807 C 0.48272 0.96614 0.80593 0.0
C808 C 0.47402 0.94441 0.76969 0.0
C809 C 0.47829 0.00898 0.80697 0.0
C810 C 0.45873 0.96556 0.73556 0.0
C811 C 0.45412 0.00771 0.73642 0.0
H812 H 0.57045 0.9262 0.14476 0.0
H813 H 0.44517 0.88994 0.14431 0.0
H814 H 0.42401 0.96122 0.13936 0.0
H815 H 0.44233 0.03181 0.15816 0.0
H816 H 0.56753 0.06811 0.15754 0.0
H817 H 0.58786 -0.00082 0.13802 0.0
C818 C 0.53865 0.93395 0.14121 0.0
C819 C 0.50927 0.90344 0.14568 0.0
C820 C 0.52681 0.97503 0.13884 0.0
C821 C 0.46815 0.91328 0.14103 0.0
C822 C 0.45606 0.95406 0.13869 0.0
C823 C 0.47374 0.02514 0.15109 0.0
C824 C 0.50355 0.05434 0.15998 0.0
C825 C 0.48516 0.98515 0.14086 0.0
C826 C 0.54418 0.04582 0.15087 0.0
C827 C 0.55586 0.00619 0.14043 0.0
loop_
_geom_bond_atom_site_label_1
_geom_bond_atom_site_label_2
_geom_bond_distance
_geom_bond_site_symmetry_2
_ccdc_geom_bond_type
Zn0 O6 1.920 . S
Zn0 O12 1.898 . S
Zn0 O15 1.905 . S
Zn1 O9 1.905 . S
Zn1 O10 1.898 . S
Zn1 O18 1.920 . S
Zn2 O5 2.080 . S
Zn2 O8 2.114 . S
Zn2 O11 2.120 . S
Zn2 O13 2.120 . S
Zn2 O14 2.114 . S
Zn2 O17 2.080 . S
C3 O8 1.166 . S
C3 O9 1.182 . S
C4 O10 1.167 . S
C4 O11 1.299 . S
O5 Zn2 2.080 . S
O5 C19 1.305 . S
O6 Zn0 1.920 . S
O6 C19 1.234 . S
C7 O12 1.167 . S
C7 O13 1.299 . S
O8 Zn2 2.114 . S
O8 C3 1.166 . S
O9 Zn1 1.905 . S
O9 C3 1.182 . S
O10 Zn1 1.898 . S
O10 C4 1.167 . S
O11 Zn2 2.120 . S
O11 C4 1.299 . S
O12 Zn0 1.898 . S
O12 C7 1.167 . S
O13 Zn2 2.120 . S
O13 C7 1.299 . S
O14 Zn2 2.114 . S
O14 C16 1.166 . S
O15 Zn0 1.905 . S
O15 C16 1.182 . S
C16 O14 1.166 . S
C16 O15 1.182 . S
O17 Zn2 2.080 . S
O17 C20 1.305 . S
O18 Zn1 1.920 . S
O18 C20 1.234 . S
C19 O5 1.305 . S
C19 O6 1.234 . S
C20 O17 1.305 . S
C20 O18 1.234 . S
Zn21 O27 1.920 . S
Zn21 O33 1.898 . S
Zn21 O36 1.905 . S
Zn22 O30 1.905 . S
Zn22 O31 1.898 . S
Zn22 O39 1.920 . S
Zn23 O26 2.080 . S
Zn23 O29 2.114 . S
Zn23 O32 2.120 . S
Zn23 O34 2.120 . S
Zn23 O35 2.114 . S
Zn23 O38 2.080 . S
C24 O29 1.166 . S
C24 O30 1.182 . S
C25 O31 1.167 . S
C25 O32 1.299 . S
O26 Zn23 2.080 . S
O26 C40 1.305 . S
O27 Zn21 1.920 . S
O27 C40 1.234 . S
C28 O33 1.167 . S
C28 O34 1.299 . S
O29 Zn23 2.114 . S
O29 C24 1.166 . S
O30 Zn22 1.905 . S
O30 C24 1.182 . S
O31 Zn22 1.898 . S
O31 C25 1.167 . S
O32 Zn23 2.120 . S
O32 C25 1.299 . S
O33 Zn21 1.898 . S
O33 C28 1.167 . S
O34 Zn23 2.120 . S
O34 C28 1.299 . S
O35 Zn23 2.114 . S
O35 C37 1.166 . S
O36 Zn21 1.905 . S
O36 C37 1.182 . S
C37 O35 1.166 . S
C37 O36 1.182 . S
O38 Zn23 2.080 . S
O38 C41 1.305 . S
O39 Zn22 1.920 . S
O39 C41 1.234 . S
C40 O26 1.305 . S
C40 O27 1.234 . S
C41 O38 1.305 . S
C41 O39 1.234 . S
Zn42 O48 1.920 . S
Zn42 O54 1.898 . S
Zn42 O57 1.905 . S
Zn43 O51 1.905 . S
Zn43 O52 1.898 . S
Zn43 O60 1.920 . S
Zn44 O47 2.080 . S
Zn44 O50 2.114 . S
Zn44 O53 2.120 . S
Zn44 O55 2.120 . S
Zn44 O56 2.114 . S
Zn44 O59 2.080 . S
C45 O50 1.166 . S
C45 O51 1.182 . S
C46 O52 1.167 . S
C46 O53 1.299 . S
O47 Zn44 2.080 . S
O47 C61 1.305 . S
O48 Zn42 1.920 . S
O48 C61 1.234 . S
C49 O54 1.167 . S
C49 O55 1.299 . S
O50 Zn44 2.114 . S
O50 C45 1.166 . S
O51 Zn43 1.905 . S
O51 C45 1.182 . S
O52 Zn43 1.898 . S
O52 C46 1.167 . S
O53 Zn44 2.120 . S
O53 C46 1.299 . S
O54 Zn42 1.898 . S
O54 C49 1.167 . S
O55 Zn44 2.120 . S
O55 C49 1.299 . S
O56 Zn44 2.114 . S
O56 C58 1.166 . S
O57 Zn42 1.905 . S
O57 C58 1.182 . S
C58 O56 1.166 . S
C58 O57 1.182 . S
O59 Zn44 2.080 . S
O59 C62 1.305 . S
O60 Zn43 1.920 . S
O60 C62 1.234 . S
C61 O47 1.305 . S
C61 O48 1.234 . S
C62 O59 1.305 . S
C62 O60 1.234 . S
Zn63 O69 1.920 . S
Zn63 O75 1.898 . S
Zn63 O78 1.905 . S
Zn64 O72 1.905 . S
Zn64 O73 1.898 . S
Zn64 O81 1.920 . S
Zn65 O68 2.080 . S
Zn65 O71 2.114 . S
Zn65 O74 2.120 . S
Zn65 O76 2.120 . S
Zn65 O77 2.114 . S
Zn65 O80 2.080 . S
C66 O71 1.166 . S
C66 O72 1.182 . S
C67 O73 1.167 . S
C67 O74 1.299 . S
O68 Zn65 2.080 . S
O68 C82 1.305 . S
O69 Zn63 1.920 . S
O69 C82 1.234 . S
C70 O75 1.167 . S
C70 O76 1.299 . S
O71 Zn65 2.114 . S
O71 C66 1.166 . S
O72 Zn64 1.905 . S
O72 C66 1.182 . S
O73 Zn64 1.898 . S
O73 C67 1.167 . S
O74 Zn65 2.120 . S
O74 C67 1.299 . S
O75 Zn63 1.898 . S
O75 C70 1.167 . S
O76 Zn65 2.120 . S
O76 C70 1.299 . S
O77 Zn65 2.114 . S
O77 C79 1.166 . S
O78 Zn63 1.905 . S
O78 C79 1.182 . S
C79 O77 1.166 . S
C79 O78 1.182 . S
O80 Zn65 2.080 . S
O80 C83 1.305 . S
O81 Zn64 1.920 . S
O81 C83 1.234 . S
C82 O68 1.305 . S
C82 O69 1.234 . S
C83 O80 1.305 . S
C83 O81 1.234 . S
Zn84 O90 1.920 . S
Zn84 O96 1.898 . S
Zn84 O99 1.905 . S
Zn85 O93 1.905 . S
Zn85 O94 1.898 . S
Zn85 O102 1.920 . S
Zn86 O89 2.080 . S
Zn86 O92 2.114 . S
Zn86 O95 2.120 . S
Zn86 O97 2.120 . S
Zn86 O98 2.114 . S
Zn86 O101 2.080 . S
C87 O92 1.166 . S
C87 O93 1.182 . S
C88 O94 1.167 . S
C88 O95 1.299 . S
O89 Zn86 2.080 . S
O89 C103 1.305 . S
O90 Zn84 1.920 . S
O90 C103 1.234 . S
C91 O96 1.167 . S
C91 O97 1.299 . S
O92 Zn86 2.114 . S
O92 C87 1.166 . S
O93 Zn85 1.905 . S
O93 C87 1.182 . S
O94 Zn85 1.898 . S
O94 C88 1.167 . S
O95 Zn86 2.120 . S
O95 C88 1.299 . S
O96 Zn84 1.898 . S
O96 C91 1.167 . S
O97 Zn86 2.120 . S
O97 C91 1.299 . S
O98 Zn86 2.114 . S
O98 C100 1.166 . S
O99 Zn84 1.905 . S
O99 C100 1.182 . S
C100 O98 1.166 . S
C100 O99 1.182 . S
O101 Zn86 2.080 . S
O101 C104 1.305 . S
O102 Zn85 1.920 . S
O102 C104 1.234 . S
C103 O89 1.305 . S
C103 O90 1.234 . S
C104 O101 1.305 . S
C104 O102 1.234 . S
Zn105 O111 1.920 . S
Zn105 O117 1.898 . S
Zn105 O120 1.905 . S
Zn106 O114 1.905 . S
Zn106 O115 1.898 . S
Zn106 O123 1.920 . S
Zn107 O110 2.080 . S
Zn107 O113 2.114 . S
Zn107 O116 2.120 . S
Zn107 O118 2.120 . S
Zn107 O119 2.114 . S
Zn107 O122 2.080 . S
C108 O113 1.166 . S
C108 O114 1.182 . S
C109 O115 1.167 . S
C109 O116 1.299 . S
O110 Zn107 2.080 . S
O110 C124 1.305 . S
O111 Zn105 1.920 . S
O111 C124 1.234 . S
C112 O117 1.167 . S
C112 O118 1.299 . S
O113 Zn107 2.114 . S
O113 C108 1.166 . S
O114 Zn106 1.905 . S
O114 C108 1.182 . S
O115 Zn106 1.898 . S
O115 C109 1.167 . S
O116 Zn107 2.120 . S
O116 C109 1.299 . S
O117 Zn105 1.898 . S
O117 C112 1.167 . S
O118 Zn107 2.120 . S
O118 C112 1.299 . S
O119 Zn107 2.114 . S
O119 C121 1.166 . S
O120 Zn105 1.905 . S
O120 C121 1.182 . S
C121 O119 1.166 . S
C121 O120 1.182 . S
O122 Zn107 2.080 . S
O122 C125 1.305 . S
O123 Zn106 1.920 . S
O123 C125 1.234 . S
C124 O110 1.305 . S
C124 O111 1.234 . S
C125 O122 1.305 . S
C125 O123 1.234 . S
Zn126 O132 1.920 . S
Zn126 O138 1.898 . S
Zn126 O141 1.905 . S
Zn127 O135 1.905 . S
Zn127 O136 1.898 . S
Zn127 O144 1.920 . S
Zn128 O131 2.080 . S
Zn128 O134 2.114 . S
Zn128 O137 2.120 . S
Zn128 O139 2.120 . S
Zn128 O140 2.114 . S
Zn128 O143 2.080 . S
C129 O134 1.166 . S
C129 O135 1.182 . S
C130 O136 1.167 . S
C130 O137 1.299 . S
O131 Zn128 2.080 . S
O131 C145 1.305 . S
O132 Zn126 1.920 . S
O132 C145 1.234 . S
C133 O138 1.167 . S
C133 O139 1.299 . S
O134 Zn128 2.114 . S
O134 C129 1.166 . S
O135 Zn127 1.905 . S
O135 C129 1.182 . S
O136 Zn127 1.898 . S
O136 C130 1.167 . S
O137 Zn128 2.120 . S
O137 C130 1.299 . S
O138 Zn126 1.898 . S
O138 C133 1.167 . S
O139 Zn128 2.120 . S
O139 C133 1.299 . S
O140 Zn128 2.114 . S
O140 C142 1.166 . S
O141 Zn126 1.905 . S
O141 C142 1.182 . S
C142 O140 1.166 . S
C142 O141 1.182 . S
O143 Zn128 2.080 . S
O143 C146 1.305 . S
O144 Zn127 1.920 . S
O144 C146 1.234 . S
C145 O131 1.305 . S
C145 O132 1.234 . S
C146 O143 1.305 . S
C146 O144 1.234 . S
Zn147 O153 1.920 . S
Zn147 O159 1.898 . S
Zn147 O162 1.905 . S
Zn148 O156 1.905 . S
Zn148 O157 1.898 . S
Zn148 O165 1.920 . S
Zn149 O152 2.080 . S
Zn149 O155 2.114 . S
Zn149 O158 2.120 . S
Zn149 O160 2.120 . S
Zn149 O161 2.114 . S
Zn149 O164 2.080 . S
C150 O155 1.166 . S
C150 O156 1.182 . S
C151 O157 1.167 . S
C151 O158 1.299 . S
O152 Zn149 2.080 . S
O152 C166 1.305 . S
O153 Zn147 1.920 . S
O153 C166 1.234 . S
C154 O159 1.167 . S
C154 O160 1.299 . S
O155 Zn149 2.114 . S
O155 C150 1.166 . S
O156 Zn148 1.905 . S
O156 C150 1.182 . S
O157 Zn148 1.898 . S
O157 C151 1.167 . S
O158 Zn149 2.120 . S
O158 C151 1.299 . S
O159 Zn147 1.898 . S
O159 C154 1.167 . S
O160 Zn149 2.120 . S
O160 C154 1.299 . S
O161 Zn149 2.114 . S
O161 C163 1.166 . S
O162 Zn147 1.905 . S
O162 C163 1.182 . S
C163 O161 1.166 . S
C163 O162 1.182 . S
O164 Zn149 2.080 . S
O164 C167 1.305 . S
O165 Zn148 1.920 . S
O165 C167 1.234 . S
C166 O152 1.305 . S
C166 O153 1.234 . S
C167 O164 1.305 . S
C167 O165 1.234 . S
Zn168 O174 1.920 . S
Zn168 O180 1.898 . S
Zn168 O183 1.905 . S
Zn169 O177 1.905 . S
Zn169 O178 1.898 . S
Zn169 O186 1.920 . S
Zn170 O173 2.080 . S
Zn170 O176 2.114 . S
Zn170 O179 2.120 . S
Zn170 O181 2.120 . S
Zn170 O182 2.114 . S
Zn170 O185 2.080 . S
C171 O176 1.166 . S
C171 O177 1.182 . S
C172 O178 1.167 . S
C172 O179 1.299 . S
O173 Zn170 2.080 . S
O173 C187 1.305 . S
O174 Zn168 1.920 . S
O174 C187 1.234 . S
C175 O180 1.167 . S
C175 O181 1.299 . S
O176 Zn170 2.114 . S
O176 C171 1.166 . S
O177 Zn169 1.905 . S
O177 C171 1.182 . S
O178 Zn169 1.898 . S
O178 C172 1.167 . S
O179 Zn170 2.120 . S
O179 C172 1.299 . S
O180 Zn168 1.898 . S
O180 C175 1.167 . S
O181 Zn170 2.120 . S
O181 C175 1.299 . S
O182 Zn170 2.114 . S
O182 C184 1.166 . S
O183 Zn168 1.905 . S
O183 C184 1.182 . S
C184 O182 1.166 . S
C184 O183 1.182 . S
O185 Zn170 2.080 . S
O185 C188 1.305 . S
O186 Zn169 1.920 . S
O186 C188 1.234 . S
C187 O173 1.305 . S
C187 O174 1.234 . S
C188 O185 1.305 . S
C188 O186 1.234 . S
Zn189 O195 1.920 . S
Zn189 O201 1.898 . S
Zn189 O204 1.905 . S
Zn190 O198 1.905 . S
Zn190 O199 1.898 . S
Zn190 O207 1.920 . S
Zn191 O194 2.080 . S
Zn191 O197 2.114 . S
Zn191 O200 2.120 . S
Zn191 O202 2.120 . S
Zn191 O203 2.114 . S
Zn191 O206 2.080 . S
C192 O197 1.166 . S
C192 O198 1.182 . S
C193 O199 1.167 . S
C193 O200 1.299 . S
O194 Zn191 2.080 . S
O194 C208 1.305 . S
O195 Zn189 1.920 . S
O195 C208 1.234 . S
C196 O201 1.167 . S
C196 O202 1.299 . S
O197 Zn191 2.114 . S
O197 C192 1.166 . S
O198 Zn190 1.905 . S
O198 C192 1.182 . S
O199 Zn190 1.898 . S
O199 C193 1.167 . S
O200 Zn191 2.120 . S
O200 C193 1.299 . S
O201 Zn189 1.898 . S
O201 C196 1.167 . S
O202 Zn191 2.120 . S
O202 C196 1.299 . S
O203 Zn191 2.114 . S
O203 C205 1.166 . S
O204 Zn189 1.905 . S
O204 C205 1.182 . S
C205 O203 1.166 . S
C205 O204 1.182 . S
O206 Zn191 2.080 . S
O206 C209 1.305 . S
O207 Zn190 1.920 . S
O207 C209 1.234 . S
C208 O194 1.305 . S
C208 O195 1.234 . S
C209 O206 1.305 . S
C209 O207 1.234 . S
Zn210 O216 1.920 . S
Zn210 O222 1.898 . S
Zn210 O225 1.905 . S
Zn211 O219 1.905 . S
Zn211 O220 1.898 . S
Zn211 O228 1.920 . S
Zn212 O215 2.080 . S
Zn212 O218 2.114 . S
Zn212 O221 2.120 . S
Zn212 O223 2.120 . S
Zn212 O224 2.114 . S
Zn212 O227 2.080 . S
C213 O218 1.166 . S
C213 O219 1.182 . S
C214 O220 1.167 . S
C214 O221 1.299 . S
O215 Zn212 2.080 . S
O215 C229 1.305 . S
O216 Zn210 1.920 . S
O216 C229 1.234 . S
C217 O222 1.167 . S
C217 O223 1.299 . S
O218 Zn212 2.114 . S
O218 C213 1.166 . S
O219 Zn211 1.905 . S
O219 C213 1.182 . S
O220 Zn211 1.898 . S
O220 C214 1.167 . S
O221 Zn212 2.120 . S
O221 C214 1.299 . S
O222 Zn210 1.898 . S
O222 C217 1.167 . S
O223 Zn212 2.120 . S
O223 C217 1.299 . S
O224 Zn212 2.114 . S
O224 C226 1.166 . S
O225 Zn210 1.905 . S
O225 C226 1.182 . S
C226 O224 1.166 . S
C226 O225 1.182 . S
O227 Zn212 2.080 . S
O227 C230 1.305 . S
O228 Zn211 1.920 . S
O228 C230 1.234 . S
C229 O215 1.305 . S
C229 O216 1.234 . S
C230 O227 1.305 . S
C230 O228 1.234 . S
Zn231 O237 1.920 . S
Zn231 O243 1.898 . S
Zn231 O246 1.905 . S
Zn232 O240 1.905 . S
Zn232 O241 1.898 . S
Zn232 O249 1.920 . S
Zn233 O236 2.080 . S
Zn233 O239 2.114 . S
Zn233 O242 2.120 . S
Zn233 O244 2.120 . S
Zn233 O245 2.114 . S
Zn233 O248 2.080 . S
C234 O239 1.166 . S
C234 O240 1.182 . S
C235 O241 1.167 . S
C235 O242 1.299 . S
O236 Zn233 2.080 . S
O236 C250 1.305 . S
O237 Zn231 1.920 . S
O237 C250 1.234 . S
C238 O243 1.167 . S
C238 O244 1.299 . S
O239 Zn233 2.114 . S
O239 C234 1.166 . S
O240 Zn232 1.905 . S
O240 C234 1.182 . S
O241 Zn232 1.898 . S
O241 C235 1.167 . S
O242 Zn233 2.120 . S
O242 C235 1.299 . S
O243 Zn231 1.898 . S
O243 C238 1.167 . S
O244 Zn233 2.120 . S
O244 C238 1.299 . S
O245 Zn233 2.114 . S
O245 C247 1.166 . S
O246 Zn231 1.905 . S
O246 C247 1.182 . S
C247 O245 1.166 . S
C247 O246 1.182 . S
O248 Zn233 2.080 . S
O248 C251 1.305 . S
O249 Zn232 1.920 . S
O249 C251 1.234 . S
C250 O236 1.305 . S
C250 O237 1.234 . S
C251 O248 1.305 . S
C251 O249 1.234 . S
H252 C258 0.930 . S
H253 C261 0.930 . S
H254 C262 0.930 . S
H255 C263 0.930 . S
H256 C266 0.930 . S
H257 C267 0.930 . S
C258 H252 0.930 . S
C258 C259 1.355 . S
C258 C260 1.415 . S
C259 C258 1.355 . S
C259 C261 1.419 . S
C260 C258 1.415 . S
C260 C265 1.425 . S
C260 C267 1.409 . S
C261 H253 0.930 . S
C261 C259 1.419 . S
C261 C262 1.362 . S
C262 H254 0.930 . S
C262 C261 1.362 . S
C262 C265 1.409 . S
C263 H255 0.930 . S
C263 C264 1.355 . S
C263 C265 1.415 . S
C264 C263 1.355 . S
C264 C266 1.419 . S
C265 C260 1.425 . S
C265 C262 1.409 . S
C265 C263 1.415 . S
C266 H256 0.930 . S
C266 C264 1.419 . S
C266 C267 1.362 . S
C267 H257 0.930 . S
C267 C260 1.409 . S
C267 C266 1.362 . S
H268 C274 0.930 . S
H269 C277 0.930 . S
H270 C278 0.930 . S
H271 C279 0.930 . S
H272 C282 0.930 . S
H273 C283 0.930 . S
C274 H268 0.930 . S
C274 C275 1.355 . S
C274 C276 1.415 . S
C275 C274 1.355 . S
C275 C277 1.419 . S
C276 C274 1.415 . S
C276 C281 1.425 . S
C276 C283 1.409 . S
C277 H269 0.930 . S
C277 C275 1.419 . S
C277 C278 1.362 . S
C278 H270 0.930 . S
C278 C277 1.362 . S
C278 C281 1.409 . S
C279 H271 0.930 . S
C279 C280 1.355 . S
C279 C281 1.415 . S
C280 C279 1.355 . S
C280 C282 1.419 . S
C281 C276 1.425 . S
C281 C278 1.409 . S
C281 C279 1.415 . S
C282 H272 0.930 . S
C282 C280 1.419 . S
C282 C283 1.362 . S
C283 H273 0.930 . S
C283 C276 1.409 . S
C283 C282 1.362 . S
H284 C290 0.930 . S
H285 C293 0.930 . S
H286 C294 0.930 . S
H287 C295 0.930 . S
H288 C298 0.930 . S
H289 C299 0.930 . S
C290 H284 0.930 . S
C290 C291 1.355 . S
C290 C292 1.415 . S
C291 C290 1.355 . S
C291 C293 1.419 . S
C292 C290 1.415 . S
C292 C297 1.425 . S
C292 C299 1.409 . S
C293 H285 0.930 . S
C293 C291 1.419 . S
C293 C294 1.362 . S
C294 H286 0.930 . S
C294 C293 1.362 . S
C294 C297 1.409 . S
C295 H287 0.930 . S
C295 C296 1.355 . S
C295 C297 1.415 . S
C296 C295 1.355 . S
C296 C298 1.419 . S
C297 C292 1.425 . S
C297 C294 1.409 . S
C297 C295 1.415 . S
C298 H288 0.930 . S
C298 C296 1.419 . S
C298 C299 1.362 . S
C299 H289 0.930 . S
C299 C292 1.409 . S
C299 C298 1.362 . S
H300 C306 0.930 . S
H301 C309 0.930 . S
H302 C310 0.930 . S
H303 C311 0.930 . S
H304 C314 0.930 . S
H305 C315 0.930 . S
C306 H300 0.930 . S
C306 C307 1.355 . S
C306 C308 1.415 . S
C307 C306 1.355 . S
C307 C309 1.419 . S
C308 C306 1.415 . S
C308 C313 1.425 . S
C308 C315 1.409 . S
C309 H301 0.930 . S
C309 C307 1.419 . S
C309 C310 1.362 . S
C310 H302 0.930 . S
C310 C309 1.362 . S
C310 C313 1.409 . S
C311 H303 0.930 . S
C311 C312 1.355 . S
C311 C313 1.415 . S
C312 C311 1.355 . S
C312 C314 1.419 . S
C313 C308 1.425 . S
C313 C310 1.409 . S
C313 C311 1.415 . S
C314 H304 0.930 . S
C314 C312 1.419 . S
C314 C315 1.362 . S
C315 H305 0.930 . S
C315 C308 1.409 . S
C315 C314 1.362 . S
H316 C322 0.930 . S
H317 C325 0.930 . S
H318 C326 0.930 . S
H319 C327 0.930 . S
H320 C330 0.930 . S
H321 C331 0.930 . S
C322 H316 0.930 . S
C322 C323 1.355 . S
C322 C324 1.415 . S
C323 C322 1.355 . S
C323 C325 1.419 . S
C324 C322 1.415 . S
C324 C329 1.425 . S
C324 C331 1.409 . S
C325 H317 0.930 . S
C325 C323 1.419 . S
C325 C326 1.362 . S
C326 H318 0.930 . S
C326 C325 1.362 . S
C326 C329 1.409 . S
C327 H319 0.930 . S
C327 C328 1.355 . S
C327 C329 1.415 . S
C328 C327 1.355 . S
C328 C330 1.419 . S
C329 C324 1.425 . S
C329 C326 1.409 . S
C329 C327 1.415 . S
C330 H320 0.930 . S
C330 C328 1.419 . S
C330 C331 1.362 . S
C331 H321 0.930 . S
C331 C324 1.409 . S
C331 C330 1.362 . S
H332 C338 0.930 . S
H333 C341 0.930 . S
H334 C342 0.930 . S
H335 C343 0.930 . S
H336 C346 0.930 . S
H337 C347 0.930 . S
C338 H332 0.930 . S
C338 C339 1.355 . S
C338 C340 1.415 . S
C339 C338 1.355 . S
C339 C341 1.419 . S
C340 C338 1.415 . S
C340 C345 1.425 . S
C340 C347 1.409 . S
C341 H333 0.930 . S
C341 C339 1.419 . S
C341 C342 1.362 . S
C342 H334 0.930 . S
C342 C341 1.362 . S
C342 C345 1.409 . S
C343 H335 0.930 . S
C343 C344 1.355 . S
C343 C345 1.415 . S
C344 C343 1.355 . S
C344 C346 1.419 . S
C345 C340 1.425 . S
C345 C342 1.409 . S
C345 C343 1.415 . S
C346 H336 0.930 . S
C346 C344 1.419 . S
C346 C347 1.362 . S
C347 H337 0.930 . S
C347 C340 1.409 . S
C347 C346 1.362 . S
H348 C354 0.930 . S
H349 C357 0.930 . S
H350 C358 0.930 . S
H351 C359 0.930 . S
H352 C362 0.930 . S
H353 C363 0.930 . S
C354 H348 0.930 . S
C354 C355 1.355 . S
C354 C356 1.415 . S
C355 C354 1.355 . S
C355 C357 1.419 . S
C356 C354 1.415 . S
C356 C361 1.425 . S
C356 C363 1.409 . S
C357 H349 0.930 . S
C357 C355 1.419 . S
C357 C358 1.362 . S
C358 H350 0.930 . S
C358 C357 1.362 . S
C358 C361 1.409 . S
C359 H351 0.930 . S
C359 C360 1.355 . S
C359 C361 1.415 . S
C360 C359 1.355 . S
C360 C362 1.419 . S
C361 C356 1.425 . S
C361 C358 1.409 . S
C361 C359 1.415 . S
C362 H352 0.930 . S
C362 C360 1.419 . S
C362 C363 1.362 . S
C363 H353 0.930 . S
C363 C356 1.409 . S
C363 C362 1.362 . S
H364 C370 0.930 . S
H365 C373 0.930 . S
H366 C374 0.930 . S
H367 C375 0.930 . S
H368 C378 0.930 . S
H369 C379 0.930 . S
C370 H364 0.930 . S
C370 C371 1.355 . S
C370 C372 1.415 . S
C371 C370 1.355 . S
C371 C373 1.419 . S
C372 C370 1.415 . S
C372 C377 1.425 . S
C372 C379 1.409 . S
C373 H365 0.930 . S
C373 C371 1.419 . S
C373 C374 1.362 . S
C374 H366 0.930 . S
C374 C373 1.362 . S
C374 C377 1.409 . S
C375 H367 0.930 . S
C375 C376 1.355 . S
C375 C377 1.415 . S
C376 C375 1.355 . S
C376 C378 1.419 . S
C377 C372 1.425 . S
C377 C374 1.409 . S
C377 C375 1.415 . S
C378 H368 0.930 . S
C378 C376 1.419 . S
C378 C379 1.362 . S
C379 H369 0.930 . S
C379 C372 1.409 . S
C379 C378 1.362 . S
H380 C386 0.930 . S
H381 C389 0.930 . S
H382 C390 0.930 . S
H383 C391 0.930 . S
H384 C394 0.930 . S
H385 C395 0.930 . S
C386 H380 0.930 . S
C386 C387 1.355 . S
C386 C388 1.415 . S
C387 C386 1.355 . S
C387 C389 1.419 . S
C388 C386 1.415 . S
C388 C393 1.425 . S
C388 C395 1.409 . S
C389 H381 0.930 . S
C389 C387 1.419 . S
C389 C390 1.362 . S
C390 H382 0.930 . S
C390 C389 1.362 . S
C390 C393 1.409 . S
C391 H383 0.930 . S
C391 C392 1.355 . S
C391 C393 1.415 . S
C392 C391 1.355 . S
C392 C394 1.419 . S
C393 C388 1.425 . S
C393 C390 1.409 . S
C393 C391 1.415 . S
C394 H384 0.930 . S
C394 C392 1.419 . S
C394 C395 1.362 . S
C395 H385 0.930 . S
C395 C388 1.409 . S
C395 C394 1.362 . S
H396 C402 0.930 . S
H397 C405 0.930 . S
H398 C406 0.930 . S
H399 C407 0.930 . S
H400 C410 0.930 . S
H401 C411 0.930 . S
C402 H396 0.930 . S
C402 C403 1.355 . S
C402 C404 1.415 . S
C403 C402 1.355 . S
C403 C405 1.419 . S
C404 C402 1.415 . S
C404 C409 1.425 . S
C404 C411 1.409 . S
C405 H397 0.930 . S
C405 C403 1.419 . S
C405 C406 1.362 . S
C406 H398 0.930 . S
C406 C405 1.362 . S
C406 C409 1.409 . S
C407 H399 0.930 . S
C407 C408 1.355 . S
C407 C409 1.415 . S
C408 C407 1.355 . S
C408 C410 1.419 . S
C409 C404 1.425 . S
C409 C406 1.409 . S
C409 C407 1.415 . S
C410 H400 0.930 . S
C410 C408 1.419 . S
C410 C411 1.362 . S
C411 H401 0.930 . S
C411 C404 1.409 . S
C411 C410 1.362 . S
H412 C418 0.930 . S
H413 C421 0.930 . S
H414 C422 0.930 . S
H415 C423 0.930 . S
H416 C426 0.930 . S
H417 C427 0.930 . S
C418 H412 0.930 . S
C418 C419 1.355 . S
C418 C420 1.415 . S
C419 C418 1.355 . S
C419 C421 1.419 . S
C420 C418 1.415 . S
C420 C425 1.425 . S
C420 C427 1.409 . S
C421 H413 0.930 . S
C421 C419 1.419 . S
C421 C422 1.362 . S
C422 H414 0.930 . S
C422 C421 1.362 . S
C422 C425 1.409 . S
C423 H415 0.930 . S
C423 C424 1.355 . S
C423 C425 1.415 . S
C424 C423 1.355 . S
C424 C426 1.419 . S
C425 C420 1.425 . S
C425 C422 1.409 . S
C425 C423 1.415 . S
C426 H416 0.930 . S
C426 C424 1.419 . S
C426 C427 1.362 . S
C427 H417 0.930 . S
C427 C420 1.409 . S
C427 C426 1.362 . S
H428 C434 0.930 . S
H429 C437 0.930 . S
H430 C438 0.930 . S
H431 C439 0.930 . S
H432 C442 0.930 . S
H433 C443 0.930 . S
C434 H428 0.930 . S
C434 C435 1.355 . S
C434 C436 1.415 . S
C435 C434 1.355 . S
C435 C437 1.419 . S
C436 C434 1.415 . S
C436 C441 1.425 . S
C436 C443 1.409 . S
C437 H429 0.930 . S
C437 C435 1.419 . S
C437 C438 1.362 . S
C438 H430 0.930 . S
C438 C437 1.362 . S
C438 C441 1.409 . S
C439 H431 0.930 . S
C439 C440 1.355 . S
C439 C441 1.415 . S
C440 C439 1.355 . S
C440 C442 1.419 . S
C441 C436 1.425 . S
C441 C438 1.409 . S
C441 C439 1.415 . S
C442 H432 0.930 . S
C442 C440 1.419 . S
C442 C443 1.362 . S
C443 H433 0.930 . S
C443 C436 1.409 . S
C443 C442 1.362 . S
H444 C450 0.930 . S
H445 C453 0.930 . S
H446 C454 0.930 . S
H447 C455 0.930 . S
H448 C458 0.930 . S
H449 C459 0.930 . S
C450 H444 0.930 . S
C450 C451 1.355 . S
C450 C452 1.415 . S
C451 C450 1.355 . S
C451 C453 1.419 . S
C452 C450 1.415 . S
C452 C457 1.425 . S
C452 C459 1.409 . S
C453 H445 0.930 . S
C453 C451 1.419 . S
C453 C454 1.362 . S
C454 H446 0.930 . S
C454 C453 1.362 . S
C454 C457 1.409 . S
C455 H447 0.930 . S
C455 C456 1.355 . S
C455 C457 1.415 . S
C456 C455 1.355 . S
C456 C458 1.419 . S
C457 C452 1.425 . S
C457 C454 1.409 . S
C457 C455 1.415 . S
C458 H448 0.930 . S
C458 C456 1.419 . S
C458 C459 1.362 . S
C459 H449 0.930 . S
C459 C452 1.409 . S
C459 C458 1.362 . S
H460 C466 0.930 . S
H461 C469 0.930 . S
H462 C470 0.930 . S
H463 C471 0.930 . S
H464 C474 0.930 . S
H465 C475 0.930 . S
C466 H460 0.930 . S
C466 C467 1.355 . S
C466 C468 1.415 . S
C467 C466 1.355 . S
C467 C469 1.419 . S
C468 C466 1.415 . S
C468 C473 1.425 . S
C468 C475 1.409 . S
C469 H461 0.930 . S
C469 C467 1.419 . S
C469 C470 1.362 . S
C470 H462 0.930 . S
C470 C469 1.362 . S
C470 C473 1.409 . S
C471 H463 0.930 . S
C471 C472 1.355 . S
C471 C473 1.415 . S
C472 C471 1.355 . S
C472 C474 1.419 . S
C473 C468 1.425 . S
C473 C470 1.409 . S
C473 C471 1.415 . S
C474 H464 0.930 . S
C474 C472 1.419 . S
C474 C475 1.362 . S
C475 H465 0.930 . S
C475 C468 1.409 . S
C475 C474 1.362 . S
H476 C482 0.930 . S
H477 C485 0.930 . S
H478 C486 0.930 . S
H479 C487 0.930 . S
H480 C490 0.930 . S
H481 C491 0.930 . S
C482 H476 0.930 . S
C482 C483 1.355 . S
C482 C484 1.415 . S
C483 C482 1.355 . S
C483 C485 1.419 . S
C484 C482 1.415 . S
C484 C489 1.425 . S
C484 C491 1.409 . S
C485 H477 0.930 . S
C485 C483 1.419 . S
C485 C486 1.362 . S
C486 H478 0.930 . S
C486 C485 1.362 . S
C486 C489 1.409 . S
C487 H479 0.930 . S
C487 C488 1.355 . S
C487 C489 1.415 . S
C488 C487 1.355 . S
C488 C490 1.419 . S
C489 C484 1.425 . S
C489 C486 1.409 . S
C489 C487 1.415 . S
C490 H480 0.930 . S
C490 C488 1.419 . S
C490 C491 1.362 . S
C491 H481 0.930 . S
C491 C484 1.409 . S
C491 C490 1.362 . S
H492 C498 0.930 . S
H493 C501 0.930 . S
H494 C502 0.930 . S
H495 C503 0.930 . S
H496 C506 0.930 . S
H497 C507 0.930 . S
C498 H492 0.930 . S
C498 C499 1.355 . S
C498 C500 1.415 . S
C499 C498 1.355 . S
C499 C501 1.419 . S
C500 C498 1.415 . S
C500 C505 1.425 . S
C500 C507 1.409 . S
C501 H493 0.930 . S
C501 C499 1.419 . S
C501 C502 1.362 . S
C502 H494 0.930 . S
C502 C501 1.362 . S
C502 C505 1.409 . S
C503 H495 0.930 . S
C503 C504 1.355 . S
C503 C505 1.415 . S
C504 C503 1.355 . S
C504 C506 1.419 . S
C505 C500 1.425 . S
C505 C502 1.409 . S
C505 C503 1.415 . S
C506 H496 0.930 . S
C506 C504 1.419 . S
C506 C507 1.362 . S
C507 H497 0.930 . S
C507 C500 1.409 . S
C507 C506 1.362 . S
H508 C514 0.930 . S
H509 C517 0.930 . S
H510 C518 0.930 . S
H511 C519 0.930 . S
H512 C522 0.930 . S
H513 C523 0.930 . S
C514 H508 0.930 . S
C514 C515 1.355 . S
C514 C516 1.415 . S
C515 C514 1.355 . S
C515 C517 1.419 . S
C516 C514 1.415 . S
C516 C521 1.425 . S
C516 C523 1.409 . S
C517 H509 0.930 . S
C517 C515 1.419 . S
C517 C518 1.362 . S
C518 H510 0.930 . S
C518 C517 1.362 . S
C518 C521 1.409 . S
C519 H511 0.930 . S
C519 C520 1.355 . S
C519 C521 1.415 . S
C520 C519 1.355 . S
C520 C522 1.419 . S
C521 C516 1.425 . S
C521 C518 1.409 . S
C521 C519 1.415 . S
C522 H512 0.930 . S
C522 C520 1.419 . S
C522 C523 1.362 . S
C523 H513 0.930 . S
C523 C516 1.409 . S
C523 C522 1.362 . S
H524 C530 0.930 . S
H525 C533 0.930 . S
H526 C534 0.930 . S
H527 C535 0.930 . S
H528 C538 0.930 . S
H529 C539 0.930 . S
C530 H524 0.930 . S
C530 C531 1.355 . S
C530 C532 1.415 . S
C531 C530 1.355 . S
C531 C533 1.419 . S
C532 C530 1.415 . S
C532 C537 1.425 . S
C532 C539 1.409 . S
C533 H525 0.930 . S
C533 C531 1.419 . S
C533 C534 1.362 . S
C534 H526 0.930 . S
C534 C533 1.362 . S
C534 C537 1.409 . S
C535 H527 0.930 . S
C535 C536 1.355 . S
C535 C537 1.415 . S
C536 C535 1.355 . S
C536 C538 1.419 . S
C537 C532 1.425 . S
C537 C534 1.409 . S
C537 C535 1.415 . S
C538 H528 0.930 . S
C538 C536 1.419 . S
C538 C539 1.362 . S
C539 H529 0.930 . S
C539 C532 1.409 . S
C539 C538 1.362 . S
H540 C546 0.930 . S
H541 C549 0.930 . S
H542 C550 0.930 . S
H543 C551 0.930 . S
H544 C554 0.930 . S
H545 C555 0.930 . S
C546 H540 0.930 . S
C546 C547 1.355 . S
C546 C548 1.415 . S
C547 C546 1.355 . S
C547 C549 1.419 . S
C548 C546 1.415 . S
C548 C553 1.425 . S
C548 C555 1.409 . S
C549 H541 0.930 . S
C549 C547 1.419 . S
C549 C550 1.362 . S
C550 H542 0.930 . S
C550 C549 1.362 . S
C550 C553 1.409 . S
C551 H543 0.930 . S
C551 C552 1.355 . S
C551 C553 1.415 . S
C552 C551 1.355 . S
C552 C554 1.419 . S
C553 C548 1.425 . S
C553 C550 1.409 . S
C553 C551 1.415 . S
C554 H544 0.930 . S
C554 C552 1.419 . S
C554 C555 1.362 . S
C555 H545 0.930 . S
C555 C548 1.409 . S
C555 C554 1.362 . S
H556 C562 0.930 . S
H557 C565 0.930 . S
H558 C566 0.930 . S
H559 C567 0.930 . S
H560 C570 0.930 . S
H561 C571 0.930 . S
C562 H556 0.930 . S
C562 C563 1.355 . S
C562 C564 1.415 . S
C563 C562 1.355 . S
C563 C565 1.419 . S
C564 C562 1.415 . S
C564 C569 1.425 . S
C564 C571 1.409 . S
C565 H557 0.930 . S
C565 C563 1.419 . S
C565 C566 1.362 . S
C566 H558 0.930 . S
C566 C565 1.362 . S
C566 C569 1.409 . S
C567 H559 0.930 . S
C567 C568 1.355 . S
C567 C569 1.415 . S
C568 C567 1.355 . S
C568 C570 1.419 . S
C569 C564 1.425 . S
C569 C566 1.409 . S
C569 C567 1.415 . S
C570 H560 0.930 . S
C570 C568 1.419 . S
C570 C571 1.362 . S
C571 H561 0.930 . S
C571 C564 1.409 . S
C571 C570 1.362 . S
H572 C578 0.930 . S
H573 C581 0.930 . S
H574 C582 0.930 . S
H575 C583 0.930 . S
H576 C586 0.930 . S
H577 C587 0.930 . S
C578 H572 0.930 . S
C578 C579 1.355 . S
C578 C580 1.415 . S
C579 C578 1.355 . S
C579 C581 1.419 . S
C580 C578 1.415 . S
C580 C585 1.425 . S
C580 C587 1.409 . S
C581 H573 0.930 . S
C581 C579 1.419 . S
C581 C582 1.362 . S
C582 H574 0.930 . S
C582 C581 1.362 . S
C582 C585 1.409 . S
C583 H575 0.930 . S
C583 C584 1.355 . S
C583 C585 1.415 . S
C584 C583 1.355 . S
C584 C586 1.419 . S
C585 C580 1.425 . S
C585 C582 1.409 . S
C585 C583 1.415 . S
C586 H576 0.930 . S
C586 C584 1.419 . S
C586 C587 1.362 . S
C587 H577 0.930 . S
C587 C580 1.409 . S
C587 C586 1.362 . S
H588 C594 0.930 . S
H589 C597 0.930 . S
H590 C598 0.930 . S
H591 C599 0.930 . S
H592 C602 0.930 . S
H593 C603 0.930 . S
C594 H588 0.930 . S
C594 C595 1.355 . S
C594 C596 1.415 . S
C595 C594 1.355 . S
C595 C597 1.419 . S
C596 C594 1.415 . S
C596 C601 1.425 . S
C596 C603 1.409 . S
C597 H589 0.930 . S
C597 C595 1.419 . S
C597 C598 1.362 . S
C598 H590 0.930 . S
C598 C597 1.362 . S
C598 C601 1.409 . S
C599 H591 0.930 . S
C599 C600 1.355 . S
C599 C601 1.415 . S
C600 C599 1.355 . S
C600 C602 1.419 . S
C601 C596 1.425 . S
C601 C598 1.409 . S
C601 C599 1.415 . S
C602 H592 0.930 . S
C602 C600 1.419 . S
C602 C603 1.362 . S
C603 H593 0.930 . S
C603 C596 1.409 . S
C603 C602 1.362 . S
H604 C610 0.930 . S
H605 C613 0.930 . S
H606 C614 0.930 . S
H607 C615 0.930 . S
H608 C618 0.930 . S
H609 C619 0.930 . S
C610 H604 0.930 . S
C610 C611 1.355 . S
C610 C612 1.415 . S
C611 C610 1.355 . S
C611 C613 1.419 . S
C612 C610 1.415 . S
C612 C617 1.425 . S
C612 C619 1.409 . S
C613 H605 0.930 . S
C613 C611 1.419 . S
C613 C614 1.362 . S
C614 H606 0.930 . S
C614 C613 1.362 . S
C614 C617 1.409 . S
C615 H607 0.930 . S
C615 C616 1.355 . S
C615 C617 1.415 . S
C616 C615 1.355 . S
C616 C618 1.419 . S
C617 C612 1.425 . S
C617 C614 1.409 . S
C617 C615 1.415 . S
C618 H608 0.930 . S
C618 C616 1.419 . S
C618 C619 1.362 . S
C619 H609 0.930 . S
C619 C612 1.409 . S
C619 C618 1.362 . S
H620 C626 0.930 . S
H621 C629 0.930 . S
H622 C630 0.930 . S
H623 C631 0.930 . S
H624 C634 0.930 . S
H625 C635 0.930 . S
C626 H620 0.930 . S
C626 C627 1.355 . S
C626 C628 1.415 . S
C627 C626 1.355 . S
C627 C629 1.419 . S
C628 C626 1.415 . S
C628 C633 1.425 . S
C628 C635 1.409 . S
C629 H621 0.930 . S
C629 C627 1.419 . S
C629 C630 1.362 . S
C630 H622 0.930 . S
C630 C629 1.362 . S
C630 C633 1.409 . S
C631 H623 0.930 . S
C631 C632 1.355 . S
C631 C633 1.415 . S
C632 C631 1.355 . S
C632 C634 1.419 . S
C633 C628 1.425 . S
C633 C630 1.409 . S
C633 C631 1.415 . S
C634 H624 0.930 . S
C634 C632 1.419 . S
C634 C635 1.362 . S
C635 H625 0.930 . S
C635 C628 1.409 . S
C635 C634 1.362 . S
H636 C642 0.930 . S
H637 C645 0.930 . S
H638 C646 0.930 1_545 S
H639 C647 0.930 . S
H640 C650 0.930 . S
H641 C651 0.930 1_565 S
C642 H636 0.930 . S
C642 C643 1.355 . S
C642 C644 1.415 . S
C643 C642 1.355 . S
C643 C645 1.419 . S
C644 C642 1.415 . S
C644 C649 1.425 1_565 S
C644 C651 1.409 1_565 S
C645 H637 0.930 . S
C645 C643 1.419 . S
C645 C646 1.362 . S
C646 H638 0.930 1_565 S
C646 C645 1.362 . S
C646 C649 1.409 1_565 S
C647 H639 0.930 . S
C647 C648 1.355 . S
C647 C649 1.415 . S
C648 C647 1.355 . S
C648 C650 1.419 . S
C649 C644 1.425 1_545 S
C649 C646 1.409 1_545 S
C649 C647 1.415 . S
C650 H640 0.930 . S
C650 C648 1.419 . S
C650 C651 1.362 . S
C651 H641 0.930 1_545 S
C651 C644 1.409 1_545 S
C651 C650 1.362 . S
H652 C658 0.930 . S
H653 C661 0.930 . S
H654 C662 0.930 1_655 S
H655 C663 0.930 . S
H656 C666 0.930 . S
H657 C667 0.930 1_455 S
C658 H652 0.930 . S
C658 C659 1.355 . S
C658 C660 1.415 . S
C659 C658 1.355 . S
C659 C661 1.419 . S
C660 C658 1.415 . S
C660 C665 1.425 1_455 S
C660 C667 1.409 1_455 S
C661 H653 0.930 . S
C661 C659 1.419 . S
C661 C662 1.362 . S
C662 H654 0.930 1_455 S
C662 C661 1.362 . S
C662 C665 1.409 1_455 S
C663 H655 0.930 . S
C663 C664 1.355 . S
C663 C665 1.415 . S
C664 C663 1.355 . S
C664 C666 1.419 . S
C665 C660 1.425 1_655 S
C665 C662 1.409 1_655 S
C665 C663 1.415 . S
C666 H656 0.930 . S
C666 C664 1.419 . S
C666 C667 1.362 . S
C667 H657 0.930 1_655 S
C667 C660 1.409 1_655 S
C667 C666 1.362 . S
H668 C674 0.930 . S
H669 C677 0.930 . S
H670 C678 0.922 1_565 S
H671 C679 0.930 . S
H672 C682 0.930 . S
H673 C683 0.929 1_545 S
C674 H668 0.930 . S
C674 C675 1.355 . S
C674 C676 1.415 . S
C675 C674 1.355 . S
C675 C677 1.419 . S
C676 C674 1.415 . S
C676 C681 1.425 1_545 S
C676 C683 1.409 1_545 S
C677 H669 0.930 . S
C677 C675 1.419 . S
C677 C678 1.362 . S
C678 H670 0.922 1_545 S
C678 C677 1.362 . S
C678 C681 1.409 1_545 S
C679 H671 0.930 . S
C679 C680 1.355 . S
C679 C681 1.415 . S
C680 C679 1.355 . S
C680 C682 1.419 . S
C681 C676 1.425 1_565 S
C681 C678 1.409 1_565 S
C681 C679 1.415 . S
C682 H672 0.930 . S
C682 C680 1.419 . S
C682 C683 1.362 . S
C683 H673 0.929 1_565 S
C683 C676 1.409 1_565 S
C683 C682 1.362 . S
H684 C690 0.930 . S
H685 C693 0.930 . S
H686 C694 0.930 . S
H687 C695 0.930 . S
H688 C698 0.930 . S
H689 C699 0.930 . S
C690 H684 0.930 . S
C690 C691 1.355 . S
C690 C692 1.415 . S
C691 C690 1.355 . S
C691 C693 1.419 . S
C692 C690 1.415 . S
C692 C697 1.425 1_455 S
C692 C699 1.409 1_455 S
C693 H685 0.930 . S
C693 C691 1.419 . S
C693 C694 1.362 . S
C694 H686 0.930 . S
C694 C693 1.362 . S
C694 C697 1.409 1_455 S
C695 H687 0.930 . S
C695 C696 1.355 . S
C695 C697 1.415 . S
C696 C695 1.355 . S
C696 C698 1.419 . S
C697 C692 1.425 1_655 S
C697 C694 1.409 1_655 S
C697 C695 1.415 . S
C698 H688 0.930 . S
C698 C696 1.419 . S
C698 C699 1.362 . S
C699 H689 0.930 . S
C699 C692 1.409 1_655 S
C699 C698 1.362 . S
H700 C706 0.930 . S
H701 C709 0.930 . S
H702 C710 0.930 . S
H703 C711 0.930 . S
H704 C714 0.930 . S
H705 C715 0.930 . S
C706 H700 0.930 . S
C706 C707 1.355 . S
C706 C708 1.415 . S
C707 C706 1.355 . S
C707 C709 1.419 . S
C708 C706 1.415 . S
C708 C713 1.425 1_556 S
C708 C715 1.409 1_556 S
C709 H701 0.930 . S
C709 C707 1.419 . S
C709 C710 1.362 . S
C710 H702 0.930 . S
C710 C709 1.362 . S
C710 C713 1.409 1_556 S
C711 H703 0.930 . S
C711 C712 1.355 . S
C711 C713 1.415 . S
C712 C711 1.355 . S
C712 C714 1.419 . S
C713 C708 1.425 1_554 S
C713 C710 1.409 1_554 S
C713 C711 1.415 . S
C714 H704 0.930 . S
C714 C712 1.419 . S
C714 C715 1.362 . S
C715 H705 0.930 . S
C715 C708 1.409 1_554 S
C715 C714 1.362 . S
H716 C722 0.930 . S
H717 C725 0.930 . S
H718 C726 0.930 . S
H719 C727 0.930 . S
H720 C730 0.930 . S
H721 C731 0.930 . S
C722 H716 0.930 . S
C722 C723 1.355 . S
C722 C724 1.415 . S
C723 C722 1.355 . S
C723 C725 1.419 . S
C724 C722 1.415 . S
C724 C729 1.425 1_556 S
C724 C731 1.409 1_556 S
C725 H717 0.930 . S
C725 C723 1.419 . S
C725 C726 1.362 . S
C726 H718 0.930 . S
C726 C725 1.362 . S
C726 C729 1.409 1_556 S
C727 H719 0.930 . S
C727 C728 1.355 . S
C727 C729 1.415 . S
C728 C727 1.355 . S
C728 C730 1.419 . S
C729 C724 1.425 1_554 S
C729 C726 1.409 1_554 S
C729 C727 1.415 . S
C730 H720 0.930 . S
C730 C728 1.419 . S
C730 C731 1.362 . S
C731 H721 0.930 . S
C731 C724 1.409 1_554 S
C731 C730 1.362 . S
H732 C738 0.930 . S
H733 C741 0.930 . S
H734 C742 0.930 . S
H735 C743 0.930 . S
H736 C746 0.930 . S
H737 C747 0.930 . S
C738 H732 0.930 . S
C738 C739 1.355 . S
C738 C740 1.415 . S
C739 C738 1.355 . S
C739 C741 1.419 . S
C740 C738 1.415 . S
C740 C745 1.425 1_554 S
C740 C747 1.409 1_554 S
C741 H733 0.930 . S
C741 C739 1.419 . S
C741 C742 1.362 . S
C742 H734 0.930 . S
C742 C741 1.362 . S
C742 C745 1.409 1_554 S
C743 H735 0.930 . S
C743 C744 1.355 . S
C743 C745 1.415 . S
C744 C743 1.355 . S
C744 C746 1.419 . S
C745 C740 1.425 1_556 S
C745 C742 1.409 1_556 S
C745 C743 1.415 . S
C746 H736 0.930 . S
C746 C744 1.419 . S
C746 C747 1.362 . S
C747 H737 0.930 . S
C747 C740 1.409 1_556 S
C747 C746 1.362 . S
H748 C754 0.930 . S
H749 C757 0.930 . S
H750 C758 0.930 . S
H751 C759 0.930 . S
H752 C762 0.930 . S
H753 C763 0.930 . S
C754 H748 0.930 . S
C754 C755 1.355 . S
C754 C756 1.415 . S
C755 C754 1.355 . S
C755 C757 1.419 . S
C756 C754 1.415 . S
C756 C761 1.425 1_556 S
C756 C763 1.409 1_556 S
C757 H749 0.930 . S
C757 C755 1.419 . S
C757 C758 1.362 . S
C758 H750 0.930 . S
C758 C757 1.362 . S
C758 C761 1.409 1_556 S
C759 H751 0.930 . S
C759 C760 1.355 . S
C759 C761 1.415 . S
C760 C759 1.355 . S
C760 C762 1.419 . S
C761 C756 1.425 1_554 S
C761 C758 1.409 1_554 S
C761 C759 1.415 . S
C762 H752 0.930 . S
C762 C760 1.419 . S
C762 C763 1.362 . S
C763 H753 0.930 . S
C763 C756 1.409 1_554 S
C763 C762 1.362 . S
H764 C770 0.930 . S
H765 C773 0.930 . S
H766 C774 0.930 . S
H767 C775 0.930 . S
H768 C778 0.930 . S
H769 C779 0.930 . S
C770 H764 0.930 . S
C770 C771 1.355 . S
C770 C772 1.415 . S
C771 C770 1.355 . S
C771 C773 1.419 . S
C772 C770 1.415 . S
C772 C777 1.425 1_455 S
C772 C779 1.409 1_455 S
C773 H765 0.930 . S
C773 C771 1.419 . S
C773 C774 1.362 . S
C774 H766 0.930 . S
C774 C773 1.362 . S
C774 C777 1.409 1_455 S
C775 H767 0.930 . S
C775 C776 1.355 . S
C775 C777 1.415 . S
C776 C775 1.355 . S
C776 C778 1.419 . S
C777 C772 1.425 1_655 S
C777 C774 1.409 1_655 S
C777 C775 1.415 . S
C778 H768 0.930 . S
C778 C776 1.419 . S
C778 C779 1.362 . S
C779 H769 0.930 . S
C779 C772 1.409 1_655 S
C779 C778 1.362 . S
H780 C786 0.930 . S
H781 C789 0.930 . S
H782 C790 0.930 1_455 S
H783 C791 0.930 . S
H784 C794 0.930 . S
H785 C795 0.930 1_655 S
C786 H780 0.930 . S
C786 C787 1.355 . S
C786 C788 1.415 . S
C787 C786 1.355 . S
C787 C789 1.419 . S
C788 C786 1.415 . S
C788 C793 1.425 1_655 S
C788 C795 1.409 1_655 S
C789 H781 0.930 . S
C789 C787 1.419 . S
C789 C790 1.362 . S
C790 H782 0.930 1_655 S
C790 C789 1.362 . S
C790 C793 1.409 1_655 S
C791 H783 0.930 . S
C791 C792 1.355 . S
C791 C793 1.415 . S
C792 C791 1.355 . S
C792 C794 1.419 . S
C793 C788 1.425 1_455 S
C793 C790 1.409 1_455 S
C793 C791 1.415 . S
C794 H784 0.930 . S
C794 C792 1.419 . S
C794 C795 1.362 . S
C795 H785 0.930 1_455 S
C795 C788 1.409 1_455 S
C795 C794 1.362 . S
H796 C802 0.930 . S
H797 C805 0.930 . S
H798 C806 0.930 . S
H799 C807 0.930 . S
H800 C810 0.930 . S
H801 C811 0.930 . S
C802 H796 0.930 . S
C802 C803 1.355 . S
C802 C804 1.415 . S
C803 C802 1.355 . S
C803 C805 1.419 . S
C804 C802 1.415 . S
C804 C809 1.425 1_545 S
C804 C811 1.409 1_545 S
C805 H797 0.930 . S
C805 C803 1.419 . S
C805 C806 1.362 . S
C806 H798 0.930 . S
C806 C805 1.362 . S
C806 C809 1.409 1_545 S
C807 H799 0.930 . S
C807 C808 1.355 . S
C807 C809 1.415 . S
C808 C807 1.355 . S
C808 C810 1.419 . S
C809 C804 1.425 1_565 S
C809 C806 1.409 1_565 S
C809 C807 1.415 . S
C810 H800 0.930 . S
C810 C808 1.419 . S
C810 C811 1.362 . S
C811 H801 0.930 . S
C811 C804 1.409 1_565 S
C811 C810 1.362 . S
H812 C818 0.930 . S
H813 C821 0.930 . S
H814 C822 0.930 . S
H815 C823 0.930 . S
H816 C826 0.930 . S
H817 C827 0.930 . S
C818 H812 0.930 . S
C818 C819 1.355 . S
C818 C820 1.415 . S
C819 C818 1.355 . S
C819 C821 1.419 . S
C820 C818 1.415 . S
C820 C825 1.425 1_565 S
C820 C827 1.409 1_565 S
C821 H813 0.930 . S
C821 C819 1.419 . S
C821 C822 1.362 . S
C822 H814 0.930 . S
C822 C821 1.362 . S
C822 C825 1.409 1_565 S
C823 H815 0.930 . S
C823 C824 1.355 . S
C823 C825 1.415 . S
C824 C823 1.355 . S
C824 C826 1.419 . S
C825 C820 1.425 1_545 S
C825 C822 1.409 1_545 S
C825 C823 1.415 . S
C826 H816 0.930 . S
C826 C824 1.419 . S
C826 C827 1.362 . S
C827 H817 0.930 . S
C827 C820 1.409 1_545 S
C827 C826 1.362 . S
C259 C7 1.466 . S
C264 C166 1.417 . S
C275 C87 1.468 . S
C280 C41 1.407 . S
C291 C46 1.457 . S
C296 C108 1.347 . S
C307 C67 1.444 . S
C312 C142 1.455 . S
C323 C82 1.494 . S
C328 C205 1.453 . S
C339 C20 1.470 . S
C344 C230 1.410 . S
C355 C247 1.447 . S
C360 C28 1.478 . S
C371 C61 1.415 . S
C376 C188 1.340 . S
C387 C104 1.462 . S
C392 C3 1.443 . S
C403 C125 1.449 . S
C408 C40 1.324 . S
C419 C145 1.401 . S
C424 C58 1.426 . S
C435 C79 1.342 . S
C440 C154 1.430 . S
C451 C83 1.432 . S
C456 C172 1.441 . S
C467 C19 1.409 . S
C472 C208 1.364 . S
C483 C214 1.416 . S
C488 C24 1.469 . S
C499 C250 1.402 . S
C504 C62 1.441 . S
C515 C103 1.404 . S
C520 C167 1.391 . S
C531 C193 1.395 . S
C536 C184 1.381 . S
C547 C209 1.332 . S
C552 C229 1.462 . S
C563 C235 1.452 . S
C568 C226 1.347 . S
C579 C251 1.330 . S
C584 C187 1.464 . S
C595 C146 1.334 . S
C600 C112 1.479 . S
C611 C130 1.418 . S
C616 C150 1.458 . S
C627 C91 1.419 . S
C632 C124 1.320 . S
C643 C66 1.384 . S
C648 C4 1.270 . S
C659 C16 1.399 . S
C664 C37 1.325 . S
C675 C25 1.358 . S
C680 C49 1.231 . S
C691 C70 1.323 . S
C696 C45 1.244 . S
C707 C217 1.330 . S
C712 C100 1.249 . S
C723 C234 1.260 . S
C728 C121 1.363 . S
C739 C129 1.237 . S
C744 C175 1.352 . S
C755 C192 1.294 . S
C760 C151 1.256 . S
C771 C163 1.260 . S
C776 C109 1.358 . S
C787 C238 1.336 . S
C792 C196 1.274 . S
C803 C213 1.410 . S
C808 C171 1.283 . S
C819 C133 1.206 . S
C824 C88 1.339 . S
