# Generated by pormake.
# Topology whw, (6)-cn, num edge types: 1
# Building blocks:
#     Node 0, Type 0, BuildingBlock: MIFKUJ_clean_sbu_0, # of connection points: 6
#     Node 1, Type 0, BuildingBlock: MIFKUJ_clean_sbu_0, # of connection points: 6
#     Node 2, Type 0, BuildingBlock: MIFKUJ_clean_sbu_0, # of connection points: 6
#     Node 3, Type 0, BuildingBlock: MIFKUJ_clean_sbu_0, # of connection points: 6
#     Node 4, Type 0, BuildingBlock: MIFKUJ_clean_sbu_0, # of connection points: 6
#     Node 5, Type 0, BuildingBlock: MIFKUJ_clean_sbu_0, # of connection points: 6
#     Node 6, Type 0, BuildingBlock: MIFKUJ_clean_sbu_0, # of connection points: 6
#     Node 7, Type 0, BuildingBlock: MIFKUJ_clean_sbu_0, # of connection points: 6
#     Node 8, Type 0, BuildingBlock: MIFKUJ_clean_sbu_0, # of connection points: 6
#     Node 9, Type 0, BuildingBlock: MIFKUJ_clean_sbu_0, # of connection points: 6
#     Node 10, Type 0, BuildingBlock: MIFKUJ_clean_sbu_0, # of connection points: 6
#     Node 11, Type 0, BuildingBlock: MIFKUJ_clean_sbu_0, # of connection points: 6
#     Node 12, Type 0, BuildingBlock: MIFKUJ_clean_sbu_0, # of connection points: 6
#     Node 13, Type 0, BuildingBlock: MIFKUJ_clean_sbu_0, # of connection points: 6
#     Node 14, Type 0, BuildingBlock: MIFKUJ_clean_sbu_0, # of connection points: 6
#     Node 15, Type 0, BuildingBlock: MIFKUJ_clean_sbu_0, # of connection points: 6
#     Edge 16, Type (0, 0), BuildingBlock: UVAHIK_clean_linker_0, # of connection points: 2
#     Edge 17, Type (0, 0), BuildingBlock: UVAHIK_clean_linker_0, # of connection points: 2
#     Edge 18, Type (0, 0), BuildingBlock: UVAHIK_clean_linker_0, # of connection points: 2
#     Edge 19, Type (0, 0), BuildingBlock: UVAHIK_clean_linker_0, # of connection points: 2
#     Edge 20, Type (0, 0), BuildingBlock: UVAHIK_clean_linker_0, # of connection points: 2
#     Edge 21, Type (0, 0), BuildingBlock: UVAHIK_clean_linker_0, # of connection points: 2
#     Edge 22, Type (0, 0), BuildingBlock: UVAHIK_clean_linker_0, # of connection points: 2
#     Edge 23, Type (0, 0), BuildingBlock: UVAHIK_clean_linker_0, # of connection points: 2
#     Edge 24, Type (0, 0), BuildingBlock: UVAHIK_clean_linker_0, # of connection points: 2
#     Edge 25, Type (0, 0), BuildingBlock: UVAHIK_clean_linker_0, # of connection points: 2
#     Edge 26, Type (0, 0), BuildingBlock: UVAHIK_clean_linker_0, # of connection points: 2
#     Edge 27, Type (0, 0), BuildingBlock: UVAHIK_clean_linker_0, # of connection points: 2
#     Edge 28, Type (0, 0), BuildingBlock: UVAHIK_clean_linker_0, # of connection points: 2
#     Edge 29, Type (0, 0), BuildingBlock: UVAHIK_clean_linker_0, # of connection points: 2
#     Edge 30, Type (0, 0), BuildingBlock: UVAHIK_clean_linker_0, # of connection points: 2
#     Edge 31, Type (0, 0), BuildingBlock: UVAHIK_clean_linker_0, # of connection points: 2
#     Edge 32, Type (0, 0), BuildingBlock: UVAHIK_clean_linker_0, # of connection points: 2
#     Edge 33, Type (0, 0), BuildingBlock: UVAHIK_clean_linker_0, # of connection points: 2
#     Edge 34, Type (0, 0), BuildingBlock: UVAHIK_clean_linker_0, # of connection points: 2
#     Edge 35, Type (0, 0), BuildingBlock: UVAHIK_clean_linker_0, # of connection points: 2
#     Edge 36, Type (0, 0), BuildingBlock: UVAHIK_clean_linker_0, # of connection points: 2
#     Edge 37, Type (0, 0), BuildingBlock: UVAHIK_clean_linker_0, # of connection points: 2
#     Edge 38, Type (0, 0), BuildingBlock: UVAHIK_clean_linker_0, # of connection points: 2
#     Edge 39, Type (0, 0), BuildingBlock: UVAHIK_clean_linker_0, # of connection points: 2
#     Edge 40, Type (0, 0), BuildingBlock: UVAHIK_clean_linker_0, # of connection points: 2
#     Edge 41, Type (0, 0), BuildingBlock: UVAHIK_clean_linker_0, # of connection points: 2
#     Edge 42, Type (0, 0), BuildingBlock: UVAHIK_clean_linker_0, # of connection points: 2
#     Edge 43, Type (0, 0), BuildingBlock: UVAHIK_clean_linker_0, # of connection points: 2
#     Edge 44, Type (0, 0), BuildingBlock: UVAHIK_clean_linker_0, # of connection points: 2
#     Edge 45, Type (0, 0), BuildingBlock: UVAHIK_clean_linker_0, # of connection points: 2
#     Edge 46, Type (0, 0), BuildingBlock: UVAHIK_clean_linker_0, # of connection points: 2
#     Edge 47, Type (0, 0), BuildingBlock: UVAHIK_clean_linker_0, # of connection points: 2
#     Edge 48, Type (0, 0), BuildingBlock: UVAHIK_clean_linker_0, # of connection points: 2
#     Edge 49, Type (0, 0), BuildingBlock: UVAHIK_clean_linker_0, # of connection points: 2
#     Edge 50, Type (0, 0), BuildingBlock: UVAHIK_clean_linker_0, # of connection points: 2
#     Edge 51, Type (0, 0), BuildingBlock: UVAHIK_clean_linker_0, # of connection points: 2
#     Edge 52, Type (0, 0), BuildingBlock: UVAHIK_clean_linker_0, # of connection points: 2
#     Edge 53, Type (0, 0), BuildingBlock: UVAHIK_clean_linker_0, # of connection points: 2
#     Edge 54, Type (0, 0), BuildingBlock: UVAHIK_clean_linker_0, # of connection points: 2
#     Edge 55, Type (0, 0), BuildingBlock: UVAHIK_clean_linker_0, # of connection points: 2
#     Edge 56, Type (0, 0), BuildingBlock: UVAHIK_clean_linker_0, # of connection points: 2
#     Edge 57, Type (0, 0), BuildingBlock: UVAHIK_clean_linker_0, # of connection points: 2
#     Edge 58, Type (0, 0), BuildingBlock: UVAHIK_clean_linker_0, # of connection points: 2
#     Edge 59, Type (0, 0), BuildingBlock: UVAHIK_clean_linker_0, # of connection points: 2
#     Edge 60, Type (0, 0), BuildingBlock: UVAHIK_clean_linker_0, # of connection points: 2
#     Edge 61, Type (0, 0), BuildingBlock: UVAHIK_clean_linker_0, # of connection points: 2
#     Edge 62, Type (0, 0), BuildingBlock: UVAHIK_clean_linker_0, # of connection points: 2
#     Edge 63, Type (0, 0), BuildingBlock: UVAHIK_clean_linker_0, # of connection points: 2
# Relax obj value: 0.366
# Max RMSD: 0.217
# Mean RMSD: 0.217
data_MOF--net-whw--node1-MIFKUJ_clean_sbu_0--edge1-UVAHIK_clean_linker_0
_symmetry_space_group_name_H-M    P1
_symmetry_Int_Tables_number       1
_symmetry_cell_setting            triclinic
loop_
_symmetry_equiv_pos_as_xyz
'x, y, z'
_cell_length_a     57.418464
_cell_length_b     57.44801
_cell_length_c     36.884428
_cell_angle_alpha  89.980842
_cell_angle_beta   89.982732
_cell_angle_gamma 89.994316
loop_
_atom_site_label
_atom_site_type_symbol
_atom_site_fract_x
_atom_site_fract_y
_atom_site_fract_z
_atom_type_partial_charge
Zn0 Zn 0.98715 0.09854 0.18173 0.0
Zn1 Zn 0.98008 0.10966 0.06637 0.0
C2 C 0.01801 0.08524 0.23893 0.0
O3 O 0.99854 0.07664 0.25201 0.0
C4 C 0.95931 0.13139 0.0073 0.0
O5 O 0.9814 0.13684 0.00377 0.0
O6 O 0.96401 0.11042 0.21907 0.0
O7 O 0.99168 0.12298 0.14246 0.0
O8 O 0.99179 0.13962 0.08891 0.0
C9 C 0.97173 0.12899 0.23353 0.0
O10 O 0.99163 0.13737 0.22189 0.0
O11 O 0.01777 0.09477 0.20783 0.0
C12 C 0.00439 0.08841 0.00459 0.0
O13 O 0.98322 0.08418 0.9928 0.0
O14 O 0.00702 0.09741 0.03587 0.0
O15 O 0.97213 0.09025 0.1106 0.0
O16 O 0.97899 0.06782 0.15665 0.0
O17 O 0.95297 0.11875 0.03389 0.0
C18 C 0.99582 0.14066 0.12284 0.0
C19 C 0.97631 0.06997 0.12255 0.0
Zn20 Zn 0.18536 0.7047 0.43667 0.0
Zn21 Zn 0.17573 0.69909 0.32161 0.0
C22 C 0.20329 0.7338 0.49191 0.0
O23 O 0.21586 0.71499 0.49724 0.0
C24 C 0.15489 0.67871 0.2616 0.0
O25 O 0.14958 0.70085 0.25823 0.0
O26 O 0.17489 0.68039 0.47301 0.0
O27 O 0.15961 0.70961 0.39887 0.0
O28 O 0.14539 0.71 0.34332 0.0
C29 C 0.15603 0.6871 0.48782 0.0
O30 O 0.14674 0.70676 0.47688 0.0
O31 O 0.18902 0.73417 0.46559 0.0
C32 C 0.19877 0.723 0.26164 0.0
O33 O 0.20219 0.70167 0.24995 0.0
O34 O 0.18925 0.72602 0.29247 0.0
O35 O 0.19379 0.69049 0.36608 0.0
O36 O 0.21636 0.69817 0.4114 0.0
O37 O 0.1672 0.67226 0.28848 0.0
C38 C 0.14261 0.71296 0.37731 0.0
C39 C 0.21404 0.69516 0.37748 0.0
Zn40 Zn 0.60043 0.89135 0.68912 0.0
Zn41 Zn 0.59183 0.88055 0.57786 0.0
C42 C 0.56821 0.90227 0.74437 0.0
O43 O 0.58481 0.91736 0.75136 0.0
C44 C 0.60626 0.84908 0.52517 0.0
O45 O 0.58434 0.84346 0.53058 0.0
O46 O 0.62638 0.88769 0.72535 0.0
O47 O 0.60166 0.86514 0.65219 0.0
O48 O 0.57723 0.85556 0.60913 0.0
C49 C 0.64422 0.8752 0.71924 0.0
O50 O 0.64756 0.86688 0.68648 0.0
O51 O 0.57062 0.88861 0.71753 0.0
C52 C 0.57004 0.9001 0.51449 0.0
O53 O 0.59158 0.89963 0.5025 0.0
O54 O 0.56602 0.89446 0.54727 0.0
O55 O 0.60661 0.9015 0.61513 0.0
O56 O 0.5994 0.92269 0.66242 0.0
O57 O 0.61507 0.86528 0.54424 0.0
C58 C 0.58372 0.85399 0.64204 0.0
C59 C 0.59973 0.92074 0.62807 0.0
Zn60 Zn 0.39444 0.30092 0.9385 0.0
Zn61 Zn 0.40989 0.3062 0.82412 0.0
C62 C 0.38211 0.2592 0.98154 0.0
O63 O 0.36067 0.26243 0.97017 0.0
C64 C 0.40586 0.33879 0.76488 0.0
O65 O 0.39227 0.32245 0.75177 0.0
O66 O 0.39873 0.32837 0.97202 0.0
O67 O 0.42038 0.30038 0.90137 0.0
O68 O 0.44039 0.301 0.85102 0.0
C69 C 0.41261 0.345 0.96486 0.0
O70 O 0.42191 0.34626 0.93237 0.0
O71 O 0.39816 0.2727 0.97052 0.0
C72 C 0.39668 0.26082 0.78852 0.0
O73 O 0.38766 0.25378 0.81937 0.0
O74 O 0.40603 0.28084 0.7865 0.0
O75 O 0.38566 0.30541 0.86389 0.0
O76 O 0.36335 0.30014 0.91061 0.0
O77 O 0.4135 0.33672 0.79712 0.0
C78 C 0.43989 0.29907 0.88545 0.0
C79 C 0.36554 0.30103 0.87622 0.0
Zn80 Zn 0.09351 0.8786 0.92339 0.0
Zn81 Zn 0.08859 0.89308 0.80881 0.0
C82 C 0.11429 0.85533 0.97907 0.0
O83 O 0.09366 0.84584 0.97459 0.0
C84 C 0.05771 0.90245 0.74907 0.0
O85 O 0.07634 0.91279 0.73607 0.0
O86 O 0.06522 0.88696 0.95413 0.0
O87 O 0.09961 0.90061 0.88168 0.0
O88 O 0.091 0.92355 0.83705 0.0
C89 C 0.0682 0.89617 0.9852 0.0
O90 O 0.08936 0.902 0.99524 0.0
O91 O 0.12036 0.87166 0.95769 0.0
C92 C 0.13259 0.87537 0.78135 0.0
O93 O 0.13527 0.86758 0.81459 0.0
O94 O 0.11481 0.8876 0.77377 0.0
O95 O 0.08669 0.86646 0.84485 0.0
O96 O 0.08681 0.84823 0.89706 0.0
O97 O 0.05868 0.89308 0.78026 0.0
C98 C 0.09329 0.92064 0.87105 0.0
C99 C 0.08498 0.84761 0.86261 0.0
Zn100 Zn 0.39935 0.81116 0.17885 0.0
Zn101 Zn 0.39327 0.81009 0.06412 0.0
C102 C 0.42642 0.82715 0.23483 0.0
O103 O 0.4317 0.80499 0.23153 0.0
C104 C 0.38393 0.76527 0.02999 0.0
O105 O 0.36259 0.76871 0.04168 0.0
O106 O 0.38554 0.7852 0.20905 0.0
O107 O 0.37912 0.82244 0.1369 0.0
O108 O 0.36133 0.80871 0.08915 0.0
C109 C 0.37811 0.7882 0.24122 0.0
O110 O 0.37577 0.8095 0.25366 0.0
O111 O 0.41176 0.83591 0.21282 0.0
C112 C 0.41227 0.851 0.02904 0.0
O113 O 0.42358 0.85338 0.05977 0.0
O114 O 0.39694 0.83513 0.02632 0.0
O115 O 0.41602 0.81402 0.10492 0.0
O116 O 0.427 0.79603 0.15388 0.0
O117 O 0.39966 0.78001 0.03778 0.0
C118 C 0.36137 0.81255 0.12324 0.0
C119 C 0.42861 0.79862 0.11974 0.0
Zn120 Zn 0.49049 0.11806 0.43628 0.0
Zn121 Zn 0.48804 0.10173 0.32171 0.0
C122 C 0.44722 0.1322 0.47114 0.0
O123 O 0.4431 0.14241 0.43992 0.0
C124 C 0.51759 0.0903 0.26268 0.0
O125 O 0.49868 0.0788 0.25367 0.0
O126 O 0.52088 0.1164 0.46412 0.0
O127 O 0.48655 0.09292 0.39826 0.0
O128 O 0.48458 0.07103 0.35008 0.0
C129 C 0.53148 0.09807 0.47422 0.0
O130 O 0.52382 0.0777 0.46353 0.0
O131 O 0.46521 0.11944 0.47434 0.0
C132 C 0.44724 0.1243 0.29079 0.0
O133 O 0.44623 0.13459 0.32254 0.0
O134 O 0.46226 0.10837 0.28569 0.0
O135 O 0.48927 0.12753 0.35873 0.0
O136 O 0.49022 0.14836 0.40812 0.0
O137 O 0.51786 0.10136 0.29256 0.0
C138 C 0.48511 0.07275 0.38457 0.0
C139 C 0.4896 0.14739 0.37365 0.0
Zn140 Zn 0.15985 0.20189 0.67941 0.0
Zn141 Zn 0.17879 0.20434 0.56574 0.0
C142 C 0.16 0.17249 0.7432 0.0
O143 O 0.17251 0.18966 0.75639 0.0
C144 C 0.19741 0.23447 0.51184 0.0
O145 O 0.21032 0.21588 0.50658 0.0
O146 O 0.16438 0.2294 0.71311 0.0
O147 O 0.18417 0.19844 0.64078 0.0
O148 O 0.20838 0.19848 0.59582 0.0
C149 C 0.1803 0.24476 0.7147 0.0
O150 O 0.19722 0.24467 0.69077 0.0
O151 O 0.15405 0.17308 0.70996 0.0
C152 C 0.15661 0.18612 0.50573 0.0
O153 O 0.14777 0.20704 0.50959 0.0
O154 O 0.17184 0.1793 0.52844 0.0
O155 O 0.15063 0.20697 0.59939 0.0
O156 O 0.13062 0.20744 0.65026 0.0
O157 O 0.18282 0.2344 0.5378 0.0
C158 C 0.20505 0.19792 0.62992 0.0
C159 C 0.13122 0.20896 0.61577 0.0
Zn160 Zn 0.89835 0.30897 0.68132 0.0
Zn161 Zn 0.89151 0.31039 0.56665 0.0
C162 C 0.92284 0.32532 0.74126 0.0
O163 O 0.92631 0.30274 0.74276 0.0
C164 C 0.8848 0.27507 0.51357 0.0
O165 O 0.86847 0.28974 0.50354 0.0
O166 O 0.8845 0.28247 0.71086 0.0
O167 O 0.8779 0.3211 0.63999 0.0
O168 O 0.85944 0.30942 0.59157 0.0
C169 C 0.87642 0.28471 0.74282 0.0
O170 O 0.87345 0.30571 0.75613 0.0
O171 O 0.91085 0.33371 0.71536 0.0
C172 C 0.9127 0.35 0.5311 0.0
O173 O 0.92506 0.35071 0.56104 0.0
O174 O 0.89603 0.3355 0.52877 0.0
O175 O 0.91424 0.31342 0.60772 0.0
O176 O 0.92591 0.29426 0.65521 0.0
O177 O 0.89698 0.27981 0.54136 0.0
C178 C 0.85971 0.31234 0.6259 0.0
C179 C 0.92701 0.29766 0.62116 0.0
Zn180 Zn 0.66651 0.68885 0.17457 0.0
Zn181 Zn 0.68041 0.69329 0.06032 0.0
C182 C 0.64193 0.67045 0.23138 0.0
O183 O 0.63452 0.69198 0.22777 0.0
C184 C 0.69876 0.72302 0.00557 0.0
O185 O 0.71285 0.70516 0.00178 0.0
O186 O 0.67804 0.71646 0.20392 0.0
O187 O 0.68695 0.67997 0.13259 0.0
O188 O 0.71046 0.68922 0.08897 0.0
C189 C 0.68657 0.71339 0.23542 0.0
O190 O 0.69019 0.69204 0.24687 0.0
O191 O 0.65732 0.66302 0.20935 0.0
C192 C 0.65502 0.65524 0.02769 0.0
O193 O 0.64178 0.65765 0.05648 0.0
O194 O 0.67347 0.66736 0.02508 0.0
O195 O 0.65353 0.69773 0.09571 0.0
O196 O 0.6368 0.69857 0.14932 0.0
O197 O 0.68326 0.72235 0.03016 0.0
C198 C 0.70713 0.6863 0.12273 0.0
C199 C 0.63545 0.70089 0.11501 0.0
Zn200 Zn 0.69212 0.19424 0.94569 0.0
Zn201 Zn 0.67729 0.18935 0.83158 0.0
C202 C 0.70319 0.22066 0.00863 0.0
O203 O 0.71475 0.20145 0.01573 0.0
C204 C 0.65081 0.15233 0.79705 0.0
O205 O 0.63528 0.1576 0.82189 0.0
O206 O 0.68531 0.16696 0.97874 0.0
O207 O 0.66606 0.19827 0.90921 0.0
O208 O 0.64744 0.19887 0.85737 0.0
C209 C 0.66776 0.15376 0.97429 0.0
O210 O 0.65559 0.15548 0.94426 0.0
O211 O 0.69261 0.2224 0.97847 0.0
C212 C 0.69273 0.21412 0.76744 0.0
O213 O 0.69557 0.19282 0.75532 0.0
O214 O 0.68664 0.21709 0.80034 0.0
O215 O 0.69888 0.18207 0.87331 0.0
O216 O 0.72242 0.19212 0.91653 0.0
O217 O 0.67062 0.16221 0.79799 0.0
C218 C 0.64744 0.20188 0.89163 0.0
C219 C 0.71889 0.18912 0.88276 0.0
Zn220 Zn 0.88699 0.80322 0.43286 0.0
Zn221 Zn 0.89179 0.79994 0.31862 0.0
C222 C 0.87351 0.7642 0.47754 0.0
O223 O 0.85265 0.77298 0.47231 0.0
C224 C 0.92511 0.81528 0.26893 0.0
O225 O 0.93077 0.79335 0.27391 0.0
O226 O 0.89401 0.83032 0.46586 0.0
O227 O 0.91019 0.80344 0.3919 0.0
O228 O 0.91684 0.78162 0.34471 0.0
C229 C 0.88601 0.83104 0.49798 0.0
O230 O 0.87044 0.81557 0.50795 0.0
O231 O 0.89092 0.77378 0.46231 0.0
C232 C 0.86963 0.78148 0.25461 0.0
O233 O 0.87212 0.80301 0.24325 0.0
O234 O 0.87495 0.77655 0.28719 0.0
O235 O 0.87332 0.81404 0.36007 0.0
O236 O 0.8547 0.80342 0.40879 0.0
O237 O 0.90787 0.82356 0.28637 0.0
C238 C 0.92003 0.78573 0.37823 0.0
C239 C 0.85486 0.80618 0.37449 0.0
Zn240 Zn 0.47563 0.60726 0.68527 0.0
Zn241 Zn 0.48116 0.61444 0.57216 0.0
C242 C 0.51666 0.59428 0.72546 0.0
O243 O 0.50868 0.57321 0.71942 0.0
C244 C 0.4658 0.64048 0.51259 0.0
O245 O 0.48853 0.64223 0.50972 0.0
O246 O 0.4503 0.612 0.72243 0.0
O247 O 0.47395 0.63126 0.64522 0.0
O248 O 0.49682 0.64055 0.60017 0.0
C249 C 0.43512 0.62794 0.71898 0.0
O250 O 0.43359 0.63908 0.68796 0.0
O251 O 0.50575 0.61163 0.71243 0.0
C252 C 0.50209 0.59079 0.51038 0.0
O253 O 0.48039 0.58962 0.49922 0.0
O254 O 0.5063 0.5989 0.54182 0.0
O255 O 0.46707 0.59453 0.61193 0.0
O256 O 0.47609 0.57518 0.66061 0.0
O257 O 0.45718 0.62906 0.53891 0.0
C258 C 0.49121 0.64278 0.6334 0.0
C259 C 0.47445 0.57583 0.62618 0.0
Zn260 Zn 0.0931 0.39993 0.1876 0.0
Zn261 Zn 0.10196 0.39131 0.07271 0.0
C262 C 0.05133 0.41341 0.22828 0.0
O263 O 0.05748 0.43477 0.21995 0.0
C264 C 0.14222 0.37077 0.03749 0.0
O265 O 0.14101 0.35606 0.0647 0.0
O266 O 0.11912 0.39416 0.22323 0.0
O267 O 0.09309 0.3752 0.14835 0.0
O268 O 0.09578 0.35949 0.09436 0.0
C269 C 0.13548 0.37972 0.21739 0.0
O270 O 0.13747 0.3703 0.18509 0.0
O271 O 0.06342 0.39647 0.21653 0.0
C272 C 0.07401 0.40655 0.01154 0.0
O273 O 0.09453 0.41087 0.99728 0.0
O274 O 0.07284 0.39941 0.04418 0.0
O275 O 0.10714 0.41123 0.11709 0.0
O276 O 0.09402 0.4316 0.16216 0.0
O277 O 0.12889 0.38847 0.03744 0.0
C278 C 0.09224 0.35727 0.1283 0.0
C279 C 0.09817 0.43007 0.12834 0.0
Zn280 Zn 0.58337 0.38158 0.43317 0.0
Zn281 Zn 0.58378 0.39587 0.31827 0.0
C282 C 0.59973 0.35262 0.4879 0.0
O283 O 0.5775 0.34741 0.48524 0.0
C284 C 0.55899 0.41177 0.25507 0.0
O285 O 0.5791 0.42178 0.24822 0.0
O286 O 0.55845 0.39664 0.46455 0.0
O287 O 0.59572 0.40145 0.39173 0.0
O288 O 0.59042 0.42556 0.347 0.0
C289 C 0.56299 0.40368 0.4965 0.0
O290 O 0.58474 0.40388 0.50754 0.0
O291 O 0.60808 0.36781 0.46635 0.0
C292 C 0.62259 0.36634 0.29558 0.0
O293 O 0.61975 0.35633 0.32731 0.0
O294 O 0.61035 0.38405 0.28759 0.0
O295 O 0.57378 0.37232 0.35558 0.0
O296 O 0.56732 0.35471 0.4071 0.0
O297 O 0.55657 0.40044 0.28443 0.0
C298 C 0.59199 0.42214 0.38108 0.0
C299 C 0.56538 0.35516 0.37268 0.0
Zn300 Zn 0.98033 0.61852 0.93482 0.0
Zn301 Zn 0.97905 0.60852 0.82088 0.0
C302 C 0.95851 0.64077 0.99083 0.0
O303 O 0.98018 0.64813 0.99151 0.0
C304 C 0.01709 0.59968 0.77422 0.0
O305 O 0.00306 0.58264 0.76484 0.0
O306 O 0.00734 0.60879 0.96667 0.0
O307 O 0.97588 0.59619 0.89343 0.0
O308 O 0.97727 0.57562 0.84444 0.0
C309 C 0.00538 0.5977 0.99637 0.0
O310 O 0.98472 0.5905 0.00677 0.0
O311 O 0.95252 0.62651 0.96614 0.0
C312 C 0.93826 0.62526 0.78089 0.0
O313 O 0.93076 0.6325 0.81259 0.0
O314 O 0.95707 0.61368 0.77915 0.0
O315 O 0.9739 0.63238 0.86061 0.0
O316 O 0.99098 0.64746 0.9079 0.0
O317 O 0.01101 0.61315 0.79983 0.0
C318 C 0.97723 0.57631 0.879 0.0
C319 C 0.98808 0.64713 0.87363 0.0
C320 C 0.04594 0.09703 0.98826 0.0
C321 C 0.02433 0.08716 0.97909 0.0
C322 C 0.06335 0.0997 0.96202 0.0
C323 C 0.06825 0.10687 0.86325 0.0
H324 H 0.13458 0.10694 0.88285 0.0
C325 C 0.133 0.13898 0.75554 0.0
C326 C 0.14948 0.15516 0.76817 0.0
C327 C 0.12028 0.12534 0.77998 0.0
C328 C 0.11611 0.10702 0.87696 0.0
H329 H 0.00482 0.07054 0.93593 0.0
H330 H 0.03532 0.07472 0.89046 0.0
H331 H 0.10756 0.09212 0.92858 0.0
H332 H 0.16658 0.16853 0.81631 0.0
H333 H 0.14429 0.14501 0.85877 0.0
H334 H 0.0766 0.12239 0.81224 0.0
C335 C 0.0386 0.08102 0.91765 0.0
C336 C 0.10062 0.09854 0.90318 0.0
C337 C 0.02115 0.0785 0.9438 0.0
C338 C 0.15396 0.15632 0.80561 0.0
C339 C 0.14124 0.1427 0.83002 0.0
C340 C 0.0837 0.1153 0.8371 0.0
C341 C 0.0596 0.09242 0.92607 0.0
C342 C 0.07644 0.09876 0.89691 0.0
C343 C 0.12374 0.12755 0.81759 0.0
C344 C 0.10779 0.1159 0.84384 0.0
H345 H 0.04901 0.10386 0.01521 0.0
H346 H 0.07922 0.10867 0.96951 0.0
H347 H 0.04976 0.10776 0.85765 0.0
H348 H 0.12921 0.13751 0.72687 0.0
H349 H 0.10723 0.11353 0.76943 0.0
C350 C 0.1969 0.76575 0.24776 0.0
C351 C 0.20147 0.74287 0.23634 0.0
C352 C 0.19487 0.78376 0.2224 0.0
C353 C 0.16942 0.81 0.16376 0.0
H354 H 0.19811 0.81064 0.06854 0.0
C355 C 0.11868 0.83421 0.03748 0.0
C356 C 0.12886 0.84783 0.01008 0.0
C357 C 0.13175 0.82657 0.06692 0.0
C358 C 0.1902 0.81103 0.0952 0.0
H359 H 0.20965 0.72139 0.18966 0.0
H360 H 0.20555 0.75246 0.1456 0.0
H361 H 0.21615 0.78841 0.11769 0.0
H362 H 0.16088 0.8642 0.99223 0.0
H363 H 0.18412 0.85032 0.04404 0.0
H364 H 0.14318 0.83204 0.14112 0.0
C365 C 0.20373 0.75672 0.17405 0.0
C366 C 0.20038 0.79811 0.12327 0.0
C367 C 0.2059 0.73878 0.19941 0.0
C368 C 0.15256 0.85374 0.01295 0.0
C369 C 0.16584 0.84577 0.04248 0.0
C370 C 0.15932 0.82288 0.13581 0.0
C371 C 0.1972 0.77924 0.18504 0.0
C372 C 0.1896 0.7967 0.15753 0.0
C373 C 0.15546 0.83218 0.06983 0.0
C374 C 0.16903 0.82275 0.10085 0.0
H375 H 0.19375 0.76956 0.2761 0.0
H376 H 0.19039 0.80101 0.23194 0.0
H377 H 0.16044 0.80928 0.18955 0.0
H378 H 0.10046 0.82937 0.03629 0.0
H379 H 0.12332 0.81577 0.08712 0.0
C380 C 0.43388 0.86504 0.26753 0.0
C381 C 0.43651 0.84074 0.26509 0.0
C382 C 0.44381 0.87735 0.29655 0.0
C383 C 0.46644 0.86861 0.38952 0.0
H384 H 0.5068 0.92119 0.36983 0.0
C385 C 0.55517 0.90655 0.45159 0.0
C386 C 0.55058 0.90357 0.48873 0.0
C387 C 0.53711 0.90576 0.42628 0.0
C388 C 0.49546 0.90663 0.37583 0.0
H389 H 0.45137 0.81035 0.29138 0.0
H390 H 0.46847 0.83161 0.34137 0.0
H391 H 0.48253 0.90527 0.32129 0.0
H392 H 0.52315 0.89976 0.52874 0.0
H393 H 0.49155 0.8987 0.48455 0.0
H394 H 0.48029 0.86878 0.44314 0.0
C395 C 0.45865 0.84122 0.32124 0.0
C396 C 0.48141 0.89766 0.34811 0.0
C397 C 0.44901 0.82904 0.2923 0.0
C398 C 0.52732 0.9017 0.50026 0.0
C399 C 0.50921 0.90104 0.47491 0.0
C400 C 0.48044 0.87751 0.41712 0.0
C401 C 0.45619 0.86548 0.3238 0.0
C402 C 0.46746 0.87797 0.35436 0.0
C403 C 0.51399 0.90208 0.43751 0.0
C404 C 0.49579 0.89608 0.41031 0.0
H405 H 0.42434 0.87452 0.24695 0.0
H406 H 0.44168 0.89606 0.29784 0.0
H407 H 0.45557 0.85364 0.39528 0.0
H408 H 0.57287 0.90825 0.44178 0.0
H409 H 0.54154 0.90648 0.39777 0.0
C410 C 0.40789 0.2528 0.72424 0.0
C411 C 0.39634 0.24567 0.75595 0.0
C412 C 0.40827 0.2386 0.69358 0.0
C413 C 0.40229 0.17751 0.66453 0.0
H414 H 0.40222 0.20598 0.56922 0.0
C415 C 0.44243 0.13357 0.53869 0.0
C416 C 0.4341 0.13934 0.50398 0.0
C417 C 0.4328 0.14381 0.56965 0.0
C418 C 0.40184 0.19755 0.59547 0.0
H419 H 0.3756 0.21814 0.77995 0.0
H420 H 0.37608 0.19329 0.72602 0.0
H421 H 0.39423 0.22966 0.62223 0.0
H422 H 0.40778 0.15891 0.47487 0.0
H423 H 0.39052 0.17625 0.52889 0.0
H424 H 0.40983 0.14534 0.63762 0.0
C425 C 0.38515 0.2098 0.72518 0.0
C426 C 0.39759 0.21127 0.62603 0.0
C427 C 0.38482 0.22407 0.75605 0.0
C428 C 0.41479 0.15427 0.50115 0.0
C429 C 0.40501 0.16436 0.53216 0.0
C430 C 0.40642 0.16372 0.63387 0.0
C431 C 0.39697 0.21688 0.6936 0.0
C432 C 0.39841 0.20159 0.66102 0.0
C433 C 0.41443 0.15993 0.56672 0.0
C434 C 0.40684 0.17368 0.59898 0.0
H435 H 0.417 0.2693 0.72313 0.0
H436 H 0.41793 0.24447 0.67008 0.0
H437 H 0.40311 0.16946 0.69104 0.0
H438 H 0.45728 0.12212 0.54193 0.0
H439 H 0.4407 0.14006 0.59565 0.0
C440 C 0.92912 0.85016 0.22799 0.0
C441 C 0.93827 0.82941 0.24237 0.0
C442 C 0.94133 0.86245 0.20116 0.0
C443 C 0.00018 0.86996 0.16296 0.0
H444 H 0.96903 0.88671 0.07339 0.0
C445 C 0.05256 0.90802 0.04561 0.0
C446 C 0.0491 0.89685 0.01215 0.0
C447 C 0.03652 0.90533 0.07376 0.0
C448 C 0.97793 0.88223 0.09831 0.0
H449 H 0.96756 0.80558 0.24052 0.0
H450 H 0.98881 0.82701 0.19435 0.0
H451 H 0.94635 0.87099 0.1241 0.0
H452 H 0.02523 0.87544 0.98115 0.0
H453 H 0.99742 0.87034 0.03057 0.0
H454 H 0.03183 0.88013 0.13711 0.0
C455 C 0.97227 0.83385 0.20368 0.0
C456 C 0.96493 0.87344 0.12742 0.0
C457 C 0.96001 0.82149 0.23001 0.0
C458 C 0.02843 0.88425 0.00663 0.0
C459 C 0.01242 0.88141 0.03494 0.0
C460 C 0.01312 0.87882 0.13408 0.0
C461 C 0.96304 0.85437 0.18876 0.0
C462 C 0.97604 0.86667 0.1597 0.0
C463 C 0.01674 0.89122 0.06925 0.0
C464 C 0.00226 0.88462 0.10111 0.0
H465 H 0.91234 0.85662 0.23689 0.0
H466 H 0.93385 0.87826 0.19018 0.0
H467 H 0.00919 0.86509 0.18763 0.0
H468 H 0.06814 0.91817 0.05058 0.0
H469 H 0.0401 0.91358 0.09957 0.0
C470 C 0.88251 0.24217 0.75462 0.0
C471 C 0.87538 0.26416 0.76714 0.0
C472 C 0.88588 0.22381 0.77894 0.0
C473 C 0.87604 0.20253 0.87238 0.0
H474 H 0.93884 0.17862 0.86278 0.0
C475 C 0.92469 0.15492 0.98888 0.0
C476 C 0.94277 0.1396 0.97972 0.0
C477 C 0.91236 0.16664 0.96161 0.0
C478 C 0.92103 0.18449 0.8656 0.0
H479 H 0.86424 0.28348 0.81463 0.0
H480 H 0.86998 0.25131 0.85699 0.0
H481 H 0.92361 0.20479 0.81722 0.0
H482 H 0.96115 0.12306 0.93556 0.0
H483 H 0.93871 0.14207 0.888 0.0
H484 H 0.87348 0.18218 0.92094 0.0
C485 C 0.87308 0.24836 0.82839 0.0
C486 C 0.91233 0.19967 0.83938 0.0
C487 C 0.86992 0.26682 0.80411 0.0
C488 C 0.94727 0.13489 0.94314 0.0
C489 C 0.93459 0.14607 0.91595 0.0
C490 C 0.88464 0.18697 0.89849 0.0
C491 C 0.88198 0.22695 0.81624 0.0
C492 C 0.88988 0.20909 0.84264 0.0
C493 C 0.91767 0.16292 0.92471 0.0
C494 C 0.9074 0.17795 0.89569 0.0
H495 H 0.88666 0.23941 0.7263 0.0
H496 H 0.89245 0.20738 0.76876 0.0
H497 H 0.85863 0.2095 0.8755 0.0
H498 H 0.92118 0.15899 0.01704 0.0
H499 H 0.89964 0.17956 0.96961 0.0
C500 C 0.62092 0.13018 0.76163 0.0
C501 C 0.64374 0.13882 0.7646 0.0
C502 C 0.61288 0.12099 0.72886 0.0
C503 C 0.62365 0.12666 0.63114 0.0
H504 H 0.5766 0.07845 0.62467 0.0
C505 C 0.55789 0.12153 0.51401 0.0
C506 C 0.55004 0.09967 0.50206 0.0
C507 C 0.57315 0.12328 0.54336 0.0
C508 C 0.59 0.0917 0.62581 0.0
H509 H 0.67651 0.14311 0.73603 0.0
H510 H 0.66254 0.12679 0.67898 0.0
H511 H 0.5965 0.08523 0.6821 0.0
H512 H 0.55298 0.06241 0.51059 0.0
H513 H 0.57976 0.06549 0.5618 0.0
H514 H 0.61698 0.13331 0.57499 0.0
C515 C 0.65072 0.12754 0.70184 0.0
C516 C 0.60122 0.09576 0.65887 0.0
C517 C 0.65878 0.13673 0.73466 0.0
C518 C 0.55862 0.07953 0.51917 0.0
C519 C 0.57385 0.0813 0.54868 0.0
C520 C 0.61243 0.1226 0.59811 0.0
C521 C 0.62747 0.12018 0.69824 0.0
C522 C 0.6178 0.11366 0.66217 0.0
C523 C 0.58095 0.10323 0.56156 0.0
C524 C 0.59506 0.10545 0.59525 0.0
H525 H 0.60887 0.13147 0.78414 0.0
H526 H 0.59482 0.11569 0.72706 0.0
H527 H 0.63616 0.14073 0.63269 0.0
H528 H 0.55166 0.1374 0.50146 0.0
H529 H 0.57802 0.14046 0.55276 0.0
C530 C 0.60811 0.82212 0.47229 0.0
C531 C 0.61937 0.83815 0.49508 0.0
C532 C 0.61964 0.81262 0.44251 0.0
C533 C 0.67699 0.79919 0.40501 0.0
H534 H 0.64158 0.7928 0.31604 0.0
C535 C 0.6807 0.75544 0.25138 0.0
C536 C 0.68811 0.73301 0.26133 0.0
C537 C 0.67766 0.77269 0.27773 0.0
C538 C 0.65198 0.79481 0.34032 0.0
H539 H 0.65182 0.85643 0.50483 0.0
H540 H 0.67216 0.8395 0.45259 0.0
H541 H 0.62519 0.81442 0.36655 0.0
H542 H 0.70026 0.7118 0.30619 0.0
H543 H 0.69466 0.74163 0.35198 0.0
H544 H 0.70361 0.77908 0.37887 0.0
C545 C 0.65432 0.83442 0.45794 0.0
C546 C 0.64242 0.80696 0.36949 0.0
C547 C 0.64267 0.84411 0.48777 0.0
C548 C 0.69429 0.72882 0.29763 0.0
C549 C 0.69124 0.74603 0.32393 0.0
C550 C 0.68658 0.78693 0.37576 0.0
C551 C 0.64277 0.81881 0.43474 0.0
C552 C 0.65449 0.80869 0.4025 0.0
C553 C 0.68195 0.76786 0.31454 0.0
C554 C 0.6739 0.78408 0.3434 0.0
H555 H 0.59021 0.81704 0.47712 0.0
H556 H 0.61041 0.80027 0.4256 0.0
H557 H 0.68671 0.80026 0.43011 0.0
H558 H 0.67606 0.75934 0.22357 0.0
H559 H 0.67094 0.78949 0.26948 0.0
C560 C 0.63629 0.63189 0.26315 0.0
C561 C 0.63308 0.65614 0.2618 0.0
C562 C 0.62691 0.61884 0.29188 0.0
C563 C 0.60464 0.62525 0.38562 0.0
H564 H 0.56464 0.57278 0.36365 0.0
C565 C 0.5447 0.58928 0.49547 0.0
C566 C 0.52139 0.5874 0.48426 0.0
C567 C 0.56264 0.59061 0.46988 0.0
C568 C 0.57587 0.58731 0.3703 0.0
H569 H 0.61802 0.68574 0.28992 0.0
H570 H 0.60195 0.66324 0.33946 0.0
H571 H 0.58858 0.58997 0.31572 0.0
H572 H 0.49885 0.58328 0.4375 0.0
H573 H 0.52989 0.58615 0.39306 0.0
H574 H 0.59102 0.6238 0.43935 0.0
C575 C 0.61172 0.65419 0.31864 0.0
C576 C 0.58975 0.59699 0.3429 0.0
C577 C 0.62078 0.66709 0.28997 0.0
C578 C 0.5166 0.58492 0.44709 0.0
C579 C 0.5345 0.58639 0.42152 0.0
C580 C 0.59082 0.61563 0.4129 0.0
C581 C 0.61456 0.62994 0.31996 0.0
C582 C 0.60358 0.61664 0.35001 0.0
C583 C 0.55764 0.59023 0.43252 0.0
C584 C 0.57561 0.59707 0.40533 0.0
H585 H 0.64569 0.62298 0.24179 0.0
H586 H 0.62935 0.60015 0.29222 0.0
H587 H 0.6154 0.64018 0.39204 0.0
H588 H 0.54902 0.59083 0.52396 0.0
H589 H 0.58033 0.593 0.47934 0.0
C590 C 0.68551 0.2562 0.75242 0.0
C591 C 0.69259 0.23386 0.74148 0.0
C592 C 0.68104 0.27352 0.72662 0.0
C593 C 0.65301 0.29681 0.66747 0.0
H594 H 0.68311 0.30181 0.57364 0.0
C595 C 0.60323 0.32671 0.54191 0.0
C596 C 0.61392 0.34187 0.51706 0.0
C597 C 0.61589 0.31689 0.5703 0.0
C598 C 0.67468 0.30088 0.59987 0.0
H599 H 0.70261 0.2129 0.69509 0.0
H600 H 0.69447 0.24281 0.65032 0.0
H601 H 0.70194 0.27981 0.62231 0.0
H602 H 0.64655 0.35838 0.5024 0.0
H603 H 0.66889 0.34096 0.55228 0.0
H604 H 0.62564 0.31754 0.64504 0.0
C605 C 0.69241 0.24711 0.67872 0.0
C606 C 0.68536 0.28811 0.62768 0.0
C607 C 0.69692 0.22984 0.70448 0.0
C608 C 0.6378 0.34677 0.52109 0.0
C609 C 0.65059 0.33677 0.54958 0.0
C610 C 0.64238 0.30952 0.63977 0.0
C611 C 0.68354 0.26889 0.68933 0.0
C612 C 0.67435 0.2854 0.66156 0.0
C613 C 0.63967 0.32189 0.57471 0.0
C614 C 0.65273 0.31113 0.60531 0.0
H615 H 0.68227 0.25998 0.78074 0.0
H616 H 0.67474 0.29028 0.73583 0.0
H617 H 0.64384 0.29498 0.69297 0.0
H618 H 0.58491 0.32243 0.53966 0.0
H619 H 0.60704 0.30513 0.58866 0.0
C620 C 0.05444 0.41442 0.95209 0.0
C621 C 0.05303 0.40664 0.9882 0.0
C622 C 0.0359 0.4109 0.92814 0.0
C623 C 0.99161 0.36766 0.91287 0.0
H624 H 0.9683 0.40915 0.83832 0.0
C625 C 0.9286 0.33257 0.80677 0.0
C626 C 0.93162 0.34001 0.7709 0.0
C627 C 0.9393 0.34442 0.83522 0.0
C628 C 0.97477 0.39727 0.85875 0.0
H629 H 0.03036 0.39067 0.02817 0.0
H630 H 0.99818 0.38417 0.98612 0.0
H631 H 0.99461 0.42412 0.88508 0.0
H632 H 0.94738 0.366 0.73633 0.0
H633 H 0.96738 0.38612 0.78585 0.0
H634 H 0.97337 0.34048 0.88597 0.0
C635 C 0.01368 0.39293 0.97641 0.0
C636 C 0.9897 0.40592 0.88565 0.0
C637 C 0.0321 0.3967 1.00047 0.0
C638 C 0.94477 0.36007 0.76392 0.0
C639 C 0.95611 0.37162 0.79239 0.0
C640 C 0.9771 0.35895 0.88581 0.0
C641 C 0.01571 0.39928 0.93974 0.0
C642 C 0.99831 0.39113 0.91289 0.0
C643 C 0.95403 0.36353 0.82838 0.0
C644 C 0.96848 0.37356 0.85823 0.0
H645 H 0.07024 0.42236 0.94188 0.0
H646 H 0.03797 0.41592 0.90001 0.0
H647 H 0.99841 0.35572 0.93301 0.0
H648 H 0.91823 0.31727 0.81276 0.0
H649 H 0.93651 0.33812 0.86254 0.0
C650 C 0.86585 0.76729 0.19082 0.0
C651 C 0.86544 0.76254 0.22818 0.0
C652 C 0.86697 0.74916 0.16567 0.0
C653 C 0.86793 0.70786 0.11479 0.0
H654 H 0.91498 0.66387 0.14619 0.0
C655 C 0.91782 0.64701 0.01483 0.0
C656 C 0.94209 0.64884 0.01906 0.0
C657 C 0.90277 0.65613 0.04129 0.0
C658 C 0.90165 0.67586 0.13705 0.0
H659 H 0.86302 0.73504 0.2683 0.0
H660 H 0.8645 0.70335 0.22434 0.0
H661 H 0.89664 0.68918 0.19039 0.0
H662 H 0.96958 0.66089 0.0548 0.0
H663 H 0.94363 0.67652 0.10045 0.0
H664 H 0.87444 0.69551 0.06085 0.0
C665 C 0.86475 0.72111 0.2145 0.0
C666 C 0.89088 0.69024 0.16249 0.0
C667 C 0.86383 0.73927 0.23971 0.0
C668 C 0.95098 0.65928 0.05057 0.0
C669 C 0.93607 0.66805 0.077 0.0
C670 C 0.8788 0.69345 0.08924 0.0
C671 C 0.86752 0.72583 0.17729 0.0
C672 C 0.87459 0.70713 0.15152 0.0
C673 C 0.91181 0.6668 0.07262 0.0
C674 C 0.89652 0.67805 0.09997 0.0
H675 H 0.86688 0.78502 0.18098 0.0
H676 H 0.86919 0.75357 0.13734 0.0
H677 H 0.85514 0.72036 0.10548 0.0
H678 H 0.91049 0.63907 0.99078 0.0
H679 H 0.88413 0.65493 0.03722 0.0
C680 C 0.52092 0.40141 0.51473 0.0
C681 C 0.54397 0.40774 0.52294 0.0
C682 C 0.50382 0.40133 0.54179 0.0
C683 C 0.50005 0.39483 0.64097 0.0
H684 H 0.43394 0.40359 0.62458 0.0
C685 C 0.43456 0.37069 0.75179 0.0
C686 C 0.41647 0.35608 0.73992 0.0
C687 C 0.44786 0.38333 0.7268 0.0
C688 C 0.45236 0.40111 0.62959 0.0
H689 H 0.56665 0.4209 0.56523 0.0
H690 H 0.53676 0.42144 0.61202 0.0
H691 H 0.46178 0.41464 0.57742 0.0
H692 H 0.3969 0.34489 0.69271 0.0
H693 H 0.42015 0.36668 0.64927 0.0
H694 H 0.49076 0.38069 0.69252 0.0
C695 C 0.53201 0.41577 0.58502 0.0
C696 C 0.46832 0.40739 0.60254 0.0
C697 C 0.54914 0.41559 0.55811 0.0
C698 C 0.41079 0.35586 0.70282 0.0
C699 C 0.42409 0.36848 0.67785 0.0
C700 C 0.48416 0.38864 0.66796 0.0
C701 C 0.50934 0.40778 0.5776 0.0
C702 C 0.49236 0.4039 0.60762 0.0
C703 C 0.44334 0.38165 0.68939 0.0
C704 C 0.46009 0.39126 0.66239 0.0
H705 H 0.51634 0.39528 0.4879 0.0
H706 H 0.48663 0.39493 0.53503 0.0
H707 H 0.51834 0.3914 0.64571 0.0
H708 H 0.4393 0.37145 0.78019 0.0
H709 H 0.46228 0.39369 0.73667 0.0
C710 C 0.43095 0.66327 0.49233 0.0
C711 C 0.45098 0.65038 0.48394 0.0
C712 C 0.41877 0.67496 0.46486 0.0
C713 C 0.42859 0.69657 0.37068 0.0
H714 H 0.36302 0.71247 0.37546 0.0
C715 C 0.38545 0.74625 0.25537 0.0
C716 C 0.37732 0.76819 0.26653 0.0
C717 C 0.38974 0.72877 0.28082 0.0
C718 C 0.38131 0.708 0.37381 0.0
H719 H 0.47305 0.63792 0.44056 0.0
H720 H 0.45113 0.65678 0.39252 0.0
H721 H 0.37998 0.68703 0.42181 0.0
H722 H 0.36499 0.78814 0.31265 0.0
H723 H 0.37218 0.75734 0.35705 0.0
H724 H 0.4298 0.71721 0.3225 0.0
C725 C 0.44536 0.65917 0.4202 0.0
C726 C 0.39113 0.69359 0.40046 0.0
C727 C 0.45785 0.64813 0.44768 0.0
C728 C 0.37148 0.77151 0.30322 0.0
C729 C 0.37547 0.75386 0.32864 0.0
C730 C 0.4187 0.71046 0.34382 0.0
C731 C 0.42614 0.67347 0.42843 0.0
C732 C 0.41499 0.68781 0.39939 0.0
C733 C 0.38562 0.73275 0.31782 0.0
C734 C 0.39506 0.71645 0.34521 0.0
H735 H 0.42541 0.66525 0.52024 0.0
H736 H 0.40423 0.6859 0.47247 0.0
H737 H 0.44713 0.69331 0.36928 0.0
H738 H 0.38994 0.743 0.2273 0.0
H739 H 0.39738 0.71253 0.27183 0.0
C740 C 0.14376 0.66944 0.19822 0.0
C741 C 0.14633 0.66207 0.23428 0.0
C742 C 0.13307 0.65508 0.17269 0.0
C743 C 0.08687 0.6139 0.16593 0.0
H744 H 0.10886 0.60563 0.06738 0.0
C745 C 0.02387 0.58377 0.05414 0.0
C746 C 0.02549 0.59623 0.02144 0.0
C747 C 0.04176 0.58497 0.07987 0.0
C748 C 0.10237 0.60785 0.09472 0.0
H749 H 0.14039 0.63373 0.27189 0.0
H750 H 0.12072 0.60874 0.22717 0.0
H751 H 0.13528 0.62071 0.11359 0.0
H752 H 0.04768 0.61884 0.98941 0.0
H753 H 0.07822 0.6217 0.03442 0.0
H754 H 0.05353 0.6029 0.1469 0.0
C755 C 0.12743 0.62551 0.21871 0.0
C756 C 0.1176 0.61629 0.1212 0.0
C757 C 0.13871 0.63971 0.24416 0.0
C758 C 0.04584 0.609 0.0143 0.0
C759 C 0.06353 0.61047 0.04016 0.0
C760 C 0.07151 0.60583 0.13933 0.0
C761 C 0.12426 0.63325 0.18287 0.0
C762 C 0.10979 0.62002 0.15679 0.0
C763 C 0.06152 0.59894 0.0737 0.0
C764 C 0.07884 0.60343 0.10307 0.0
H765 H 0.14956 0.68658 0.18992 0.0
H766 H 0.13064 0.66158 0.14537 0.0
H767 H 0.08035 0.61685 0.19311 0.0
H768 H 0.00851 0.57356 0.06031 0.0
H769 H 0.03978 0.57541 0.10499 0.0
C770 C 0.15953 0.26514 0.76504 0.0
C771 C 0.17992 0.26204 0.74451 0.0
C772 C 0.15909 0.28066 0.7941 0.0
C773 C 0.19607 0.30837 0.86205 0.0
H774 H 0.1415 0.34695 0.87717 0.0
C775 C 0.16657 0.34267 0.00189 0.0
C776 C 0.15463 0.36401 0.00379 0.0
C777 C 0.17417 0.33392 0.96853 0.0
C778 C 0.15707 0.33663 0.87318 0.0
H779 H 0.21589 0.27285 0.73846 0.0
H780 H 0.2152 0.29989 0.78992 0.0
H781 H 0.14545 0.3249 0.82119 0.0
H782 H 0.14307 0.39379 0.97237 0.0
H783 H 0.15653 0.37861 0.9143 0.0
H784 H 0.2074 0.31972 0.91457 0.0
C785 C 0.19954 0.29031 0.7832 0.0
C786 C 0.15919 0.32378 0.84122 0.0
C787 C 0.19989 0.27494 0.75367 0.0
C788 C 0.15203 0.37721 0.97191 0.0
C789 C 0.15961 0.36844 0.93855 0.0
C790 C 0.19387 0.32115 0.89423 0.0
C791 C 0.17909 0.29334 0.80368 0.0
C792 C 0.17844 0.3091 0.83563 0.0
C793 C 0.17001 0.34631 0.93629 0.0
C794 C 0.17411 0.33509 0.90046 0.0
H795 H 0.14384 0.25547 0.75876 0.0
H796 H 0.14317 0.28234 0.80965 0.0
H797 H 0.21106 0.29714 0.85856 0.0
H798 H 0.16895 0.33207 0.0259 0.0
H799 H 0.18201 0.31678 0.96782 0.0
C800 C 0.09176 0.31408 0.12397 0.0
C801 C 0.08654 0.33431 0.14364 0.0
C802 C 0.08436 0.29242 0.13639 0.0
C803 C 0.07284 0.24732 0.17483 0.0
H804 H 0.00556 0.24562 0.18371 0.0
C805 C 0.02179 0.16133 0.16645 0.0
C806 C 0.00497 0.16218 0.13887 0.0
C807 C 0.03156 0.18187 0.17985 0.0
C808 C 0.02439 0.24585 0.18191 0.0
H809 H 0.07045 0.34777 0.19257 0.0
H810 H 0.05684 0.30968 0.21382 0.0
H811 H 0.02579 0.28302 0.18479 0.0
H812 H 0.98469 0.18482 0.10415 0.0
H813 H 0.00172 0.22072 0.12744 0.0
H814 H 0.07132 0.21028 0.16951 0.0
C815 C 0.06687 0.3107 0.18899 0.0
C816 C 0.03598 0.26719 0.18283 0.0
C817 C 0.07465 0.33241 0.17684 0.0
C818 C 0.99763 0.18379 0.12548 0.0
C819 C 0.00717 0.2043 0.13912 0.0
C820 C 0.06128 0.22596 0.17422 0.0
C821 C 0.07134 0.29058 0.1685 0.0
C822 C 0.06018 0.26815 0.17752 0.0
C823 C 0.0245 0.20353 0.16599 0.0
C824 C 0.03686 0.22516 0.17598 0.0
H825 H 0.10105 0.31503 0.09844 0.0
H826 H 0.08776 0.27723 0.1198 0.0
H827 H 0.09155 0.24764 0.17096 0.0
H828 H 0.02795 0.14477 0.17673 0.0
H829 H 0.04499 0.18083 0.20042 0.0
C830 C 0.94798 0.78168 0.43001 0.0
C831 C 0.93761 0.77236 0.39869 0.0
C832 C 0.96834 0.77177 0.44405 0.0
C833 C 0.00932 0.72165 0.43377 0.0
H834 H 0.05672 0.76974 0.43455 0.0
C835 C 0.09967 0.70823 0.37464 0.0
C836 C 0.1192 0.71803 0.39158 0.0
C837 C 0.07738 0.71244 0.38806 0.0
C838 C 0.04374 0.75607 0.43534 0.0
H839 H 0.93871 0.74391 0.36014 0.0
H840 H 0.97398 0.72673 0.38437 0.0
H841 H 0.01585 0.78059 0.43871 0.0
H842 H 0.13089 0.74042 0.43514 0.0
H843 H 0.0916 0.74803 0.45868 0.0
H844 H 0.03727 0.69728 0.42787 0.0
C845 C 0.96665 0.74167 0.39818 0.0
C846 C 0.02027 0.76227 0.43786 0.0
C847 C 0.94649 0.75165 0.38403 0.0
C848 C 0.11607 0.73232 0.42208 0.0
C849 C 0.09366 0.73675 0.43537 0.0
C850 C 0.03277 0.71547 0.43113 0.0
C851 C 0.97844 0.75226 0.42722 0.0
C852 C 0.00277 0.74521 0.43526 0.0
C853 C 0.0741 0.7268 0.41848 0.0
C854 C 0.05012 0.73272 0.4301 0.0
H855 H 0.94136 0.79754 0.44211 0.0
H856 H 0.97687 0.78011 0.46678 0.0
H857 H 0.99624 0.70809 0.43239 0.0
H858 H 0.10164 0.69714 0.35107 0.0
H859 H 0.06263 0.70495 0.37395 0.0
C860 C 0.52524 0.66825 0.6473 0.0
C861 C 0.50287 0.66028 0.65633 0.0
C862 C 0.53444 0.68794 0.66422 0.0
C863 C 0.51404 0.74267 0.68763 0.0
H864 H 0.5754 0.75485 0.72694 0.0
C865 C 0.5514 0.83392 0.67423 0.0
C866 C 0.57487 0.83475 0.66413 0.0
C867 C 0.54214 0.81364 0.68949 0.0
C868 C 0.55825 0.75185 0.71571 0.0
H869 H 0.47331 0.66551 0.69204 0.0
H870 H 0.48903 0.70067 0.72038 0.0
H871 H 0.56101 0.71489 0.72371 0.0
H872 H 0.60749 0.81601 0.66327 0.0
H873 H 0.59132 0.78017 0.68714 0.0
H874 H 0.51188 0.77873 0.67553 0.0
C875 C 0.49954 0.69135 0.70077 0.0
C876 C 0.54996 0.72896 0.71439 0.0
C877 C 0.49058 0.6713 0.68449 0.0
C878 C 0.5893 0.81565 0.67115 0.0
C879 C 0.57995 0.79512 0.6852 0.0
C880 C 0.52255 0.7654 0.6879 0.0
C881 C 0.52121 0.70022 0.68987 0.0
C882 C 0.52807 0.72419 0.69935 0.0
C883 C 0.556 0.79349 0.69337 0.0
C884 C 0.54517 0.77027 0.70066 0.0
H885 H 0.53513 0.65997 0.62587 0.0
H886 H 0.55111 0.69462 0.65517 0.0
H887 H 0.49718 0.73933 0.67549 0.0
H888 H 0.54008 0.84867 0.66927 0.0
H889 H 0.52386 0.81352 0.69664 0.0
C890 C 0.60437 0.20564 0.89473 0.0
C891 C 0.62624 0.20974 0.91034 0.0
C892 C 0.58436 0.21482 0.91054 0.0
C893 C 0.54367 0.23033 0.9573 0.0
H894 H 0.54604 0.29766 0.95044 0.0
C895 C 0.46041 0.28347 0.9401 0.0
C896 C 0.46136 0.29428 0.90593 0.0
C897 C 0.48086 0.27592 0.95696 0.0
C898 C 0.54519 0.27892 0.95347 0.0
H899 H 0.64442 0.22581 0.9554 0.0
H900 H 0.60922 0.24283 0.9823 0.0
H901 H 0.58226 0.2753 0.95115 0.0
H902 H 0.48431 0.30758 0.86413 0.0
H903 H 0.51994 0.29472 0.89366 0.0
H904 H 0.50661 0.23378 0.95669 0.0
C905 C 0.60767 0.23211 0.95826 0.0
C906 C 0.56587 0.26615 0.95405 0.0
C907 C 0.62771 0.22243 0.94285 0.0
C908 C 0.48309 0.29905 0.89026 0.0
C909 C 0.50349 0.29194 0.9074 0.0
C910 C 0.52301 0.2431 0.95719 0.0
C911 C 0.58589 0.22861 0.94188 0.0
C912 C 0.56517 0.24172 0.95373 0.0
C913 C 0.50253 0.27959 0.94025 0.0
C914 C 0.52362 0.26739 0.95301 0.0
H915 H 0.60278 0.19576 0.86983 0.0
H916 H 0.56779 0.21218 0.8971 0.0
H917 H 0.54279 0.21149 0.95722 0.0
H918 H 0.44386 0.27971 0.95286 0.0
H919 H 0.47971 0.26638 0.98224 0.0
C920 C 0.08693 0.80436 0.86133 0.0
C921 C 0.0811 0.82527 0.84389 0.0
C922 C 0.08203 0.78305 0.84505 0.0
C923 C 0.03818 0.75679 0.79084 0.0
H924 H 0.07734 0.70245 0.80407 0.0
C925 C 0.99654 0.66844 0.81583 0.0
C926 C 0.00375 0.66076 0.8502 0.0
C927 C 0.00986 0.68486 0.79682 0.0
C928 C 0.06626 0.71743 0.79948 0.0
H929 H 0.06639 0.84038 0.79511 0.0
H930 H 0.05688 0.80277 0.76712 0.0
H931 H 0.09476 0.74123 0.80479 0.0
H932 H 0.03153 0.66208 0.8899 0.0
H933 H 0.05462 0.69035 0.85713 0.0
H934 H 0.00938 0.73327 0.78923 0.0
C935 C 0.06561 0.80304 0.79314 0.0
C936 C 0.07623 0.73959 0.79988 0.0
C937 C 0.07098 0.82448 0.80919 0.0
C938 C 0.02539 0.66799 0.8637 0.0
C939 C 0.0388 0.684 0.84459 0.0
C940 C 0.02817 0.73462 0.79071 0.0
C941 C 0.07086 0.78215 0.81119 0.0
C942 C 0.06205 0.75947 0.79797 0.0
C943 C 0.03073 0.69341 0.81172 0.0
C944 C 0.04193 0.71486 0.79764 0.0
H945 H 0.09493 0.80445 0.88793 0.0
H946 H 0.08591 0.76724 0.85989 0.0
H947 H 0.02685 0.77184 0.78928 0.0
H948 H 0.97996 0.66292 0.80474 0.0
H949 H 0.00328 0.69173 0.77146 0.0
C950 C 0.59216 0.70125 0.11694 0.0
C951 C 0.61279 0.70616 0.09803 0.0
C952 C 0.57061 0.70678 0.10196 0.0
C953 C 0.54327 0.75003 0.04777 0.0
H954 H 0.48943 0.71011 0.06078 0.0
C955 C 0.45288 0.78997 0.06487 0.0
C956 C 0.4436 0.78293 0.09839 0.0
C957 C 0.47063 0.77696 0.04844 0.0
C958 C 0.50427 0.72142 0.05642 0.0
H959 H 0.6271 0.72017 0.04816 0.0
H960 H 0.58906 0.73081 0.02244 0.0
H961 H 0.5285 0.69338 0.06287 0.0
H962 H 0.4438 0.75576 0.13916 0.0
H963 H 0.47445 0.73324 0.11088 0.0
H964 H 0.51925 0.7784 0.04474 0.0
C965 C 0.58975 0.7223 0.04862 0.0
C966 C 0.52659 0.71184 0.05756 0.0
C967 C 0.61143 0.71627 0.06336 0.0
C968 C 0.45083 0.76173 0.11353 0.0
C969 C 0.46826 0.74867 0.09701 0.0
C970 C 0.52091 0.75967 0.04693 0.0
C971 C 0.56917 0.71767 0.06794 0.0
C972 C 0.54628 0.72627 0.05534 0.0
C973 C 0.47906 0.75659 0.06509 0.0
C974 C 0.50127 0.74564 0.05351 0.0
H975 H 0.59265 0.69328 0.14356 0.0
H976 H 0.55505 0.70338 0.11772 0.0
H977 H 0.55817 0.76154 0.04604 0.0
H978 H 0.44749 0.80621 0.05254 0.0
H979 H 0.4785 0.78339 0.02371 0.0
C980 C 0.49704 0.16958 0.31626 0.0
C981 C 0.48869 0.16891 0.35207 0.0
C982 C 0.49904 0.1909 0.29807 0.0
C983 C 0.48399 0.25383 0.30531 0.0
H984 H 0.54999 0.2638 0.28947 0.0
C985 C 0.53529 0.32413 0.37222 0.0
C986 C 0.55224 0.33695 0.35352 0.0
C987 C 0.52303 0.30654 0.35472 0.0
C988 C 0.53138 0.26136 0.2925 0.0
H989 H 0.47377 0.18933 0.39565 0.0
H990 H 0.47705 0.2262 0.36421 0.0
H991 H 0.53437 0.22439 0.28797 0.0
H992 H 0.56944 0.34185 0.3017 0.0
H993 H 0.54857 0.30992 0.27138 0.0
H994 H 0.4816 0.2906 0.31399 0.0
C995 C 0.48217 0.21053 0.34997 0.0
C996 C 0.52239 0.23877 0.29157 0.0
C997 C 0.4806 0.18943 0.36826 0.0
C998 C 0.55645 0.33213 0.31669 0.0
C999 C 0.5445 0.31404 0.29933 0.0
C1000 C 0.493 0.27636 0.3065 0.0
C1001 C 0.49217 0.21165 0.31521 0.0
C1002 C 0.49898 0.23472 0.30082 0.0
C1003 C 0.52773 0.30111 0.31832 0.0
C1004 C 0.51705 0.28002 0.30273 0.0
H1005 H 0.5032 0.15388 0.30311 0.0
H1006 H 0.50683 0.1913 0.27132 0.0
H1007 H 0.46577 0.25119 0.31181 0.0
H1008 H 0.53158 0.32761 0.40051 0.0
H1009 H 0.5105 0.2965 0.37016 0.0
C1010 C 0.10864 0.22547 0.56371 0.0
C1011 C 0.10939 0.21201 0.59545 0.0
C1012 C 0.08734 0.22993 0.5466 0.0
C1013 C 0.0242 0.21398 0.54804 0.0
H1014 H 0.01483 0.28065 0.54181 0.0
C1015 C 0.9492 0.26096 0.61156 0.0
C1016 C 0.94139 0.28241 0.59809 0.0
C1017 C 0.96605 0.2483 0.59285 0.0
C1018 C 0.01708 0.26193 0.54215 0.0
H1019 H 0.08891 0.19179 0.6334 0.0
H1020 H 0.05187 0.19977 0.60419 0.0
H1021 H 0.05411 0.26516 0.54248 0.0
H1022 H 0.94344 0.30649 0.55293 0.0
H1023 H 0.97349 0.28455 0.52052 0.0
H1024 H 0.98706 0.21105 0.55101 0.0
C1025 C 0.06758 0.2066 0.59188 0.0
C1026 C 0.03968 0.25301 0.54258 0.0
C1027 C 0.08876 0.2023 0.60899 0.0
C1028 C 0.94934 0.29009 0.56408 0.0
C1029 C 0.96648 0.27754 0.54551 0.0
C1030 C 0.00158 0.22291 0.54774 0.0
C1031 C 0.06651 0.22092 0.56099 0.0
C1032 C 0.04346 0.2291 0.54801 0.0
C1033 C 0.97565 0.25699 0.56049 0.0
C1034 C 0.9979 0.24708 0.54726 0.0
H1035 H 0.1243 0.23353 0.55324 0.0
H1036 H 0.08705 0.2411 0.52295 0.0
H1037 H 0.02661 0.19539 0.55132 0.0
H1038 H 0.94316 0.25448 0.63749 0.0
H1039 H 0.97288 0.23267 0.60536 0.0
C1040 C 0.97746 0.05084 0.06187 0.0
C1041 C 0.98477 0.05154 0.09809 0.0
C1042 C 0.98787 0.0354 0.03747 0.0
C1043 C 0.02615 0.98357 0.03067 0.0
H1044 H 0.04356 0.01107 0.93847 0.0
C1045 C 0.08993 0.93842 0.93255 0.0
C1046 C 0.08275 0.93747 0.89629 0.0
C1047 C 0.07827 0.95272 0.95727 0.0
C1048 C 0.03867 0.00309 0.96398 0.0
H1049 H 0.00768 0.0358 0.13793 0.0
H1050 H 0.02614 0.00923 0.09532 0.0
H1051 H 0.02063 0.03359 0.98159 0.0
H1052 H 0.05861 0.9516 0.85674 0.0
H1053 H 0.03828 0.97653 0.89976 0.0
H1054 H 0.04433 0.9531 0.01302 0.0
C1055 C 0.01225 0.02038 0.08566 0.0
C1056 C 0.02544 0.01594 0.9886 0.0
C1057 C 0.0017 0.03565 0.11007 0.0
C1058 C 0.0645 0.95194 0.88463 0.0
C1059 C 0.05287 0.96624 0.90925 0.0
C1060 C 0.03941 0.97072 0.00604 0.0
C1061 C 0.00589 0.02054 0.04888 0.0
C1062 C 0.01903 0.00635 0.02222 0.0
C1063 C 0.05933 0.96644 0.94597 0.0
C1064 C 0.04582 0.98035 0.97247 0.0
H1065 H 0.96412 0.06265 0.05223 0.0
H1066 H 0.9822 0.0355 0.00947 0.0
H1067 H 0.02129 0.97559 0.05619 0.0
H1068 H 0.10439 0.92787 0.94178 0.0
H1069 H 0.08393 0.9529 0.98529 0.0
C1070 C 0.24581 0.72289 0.36191 0.0
C1071 C 0.23209 0.70362 0.35243 0.0
C1072 C 0.26086 0.73288 0.33661 0.0
C1073 C 0.26907 0.73772 0.23772 0.0
H1074 H 0.32697 0.76717 0.26593 0.0
C1075 C 0.3337 0.77983 0.13588 0.0
C1076 C 0.34452 0.80057 0.14695 0.0
C1077 C 0.31956 0.76741 0.15995 0.0
C1078 C 0.31078 0.75915 0.25769 0.0
H1079 H 0.22436 0.67865 0.31026 0.0
H1080 H 0.25151 0.6955 0.26626 0.0
H1081 H 0.30523 0.74463 0.31033 0.0
H1082 H 0.34786 0.82546 0.1907 0.0
H1083 H 0.32284 0.80402 0.23257 0.0
H1084 H 0.27481 0.75225 0.18496 0.0
C1085 C 0.25004 0.70341 0.2928 0.0
C1086 C 0.29829 0.74624 0.28314 0.0
C1087 C 0.23464 0.69367 0.31797 0.0
C1088 C 0.33998 0.80932 0.18173 0.0
C1089 C 0.32576 0.797 0.2057 0.0
C1090 C 0.28169 0.75053 0.21218 0.0
C1091 C 0.26281 0.72355 0.30148 0.0
C1092 C 0.27711 0.73562 0.27363 0.0
C1093 C 0.31588 0.77563 0.19538 0.0
C1094 C 0.30255 0.76161 0.22203 0.0
H1095 H 0.24409 0.73096 0.38832 0.0
H1096 H 0.27022 0.7485 0.34418 0.0
H1097 H 0.25272 0.72999 0.22956 0.0
H1098 H 0.33686 0.77272 0.10914 0.0
H1099 H 0.3122 0.75098 0.15125 0.0
C1100 C 0.48028 0.05255 0.44377 0.0
C1101 C 0.48827 0.05221 0.40782 0.0
C1102 C 0.48809 0.0359 0.46856 0.0
C1103 C 0.52301 0.98132 0.47735 0.0
H1104 H 0.54232 0.00936 0.56821 0.0
C1105 C 0.59241 0.93952 0.56837 0.0
C1106 C 0.58679 0.93733 0.6052 0.0
C1107 C 0.5788 0.95334 0.54556 0.0
C1108 C 0.53682 0.00124 0.54313 0.0
H1109 H 0.509 0.03331 0.36861 0.0
H1110 H 0.52315 0.00464 0.41184 0.0
H1111 H 0.51896 0.03184 0.52559 0.0
H1112 H 0.56344 0.94891 0.64774 0.0
H1113 H 0.53961 0.97321 0.60778 0.0
H1114 H 0.54189 0.95119 0.49431 0.0
C1115 C 0.51064 0.01743 0.42108 0.0
C1116 C 0.52328 0.01402 0.51877 0.0
C1117 C 0.50254 0.03387 0.3962 0.0
C1118 C 0.56808 0.95022 0.61935 0.0
C1119 C 0.55446 0.96409 0.59652 0.0
C1120 C 0.5368 0.96869 0.50149 0.0
C1121 C 0.50428 0.01885 0.45789 0.0
C1122 C 0.51642 0.00431 0.48537 0.0
C1123 C 0.55938 0.96533 0.55925 0.0
C1124 C 0.54405 0.97859 0.53442 0.0
H1125 H 0.46909 0.06648 0.45321 0.0
H1126 H 0.48236 0.03713 0.49647 0.0
H1127 H 0.51777 0.97314 0.45218 0.0
H1128 H 0.60705 0.9301 0.55704 0.0
H1129 H 0.58328 0.95439 0.51707 0.0
C1130 C 0.32829 0.27938 0.86628 0.0
C1131 C 0.34709 0.29211 0.85209 0.0
C1132 C 0.31296 0.26774 0.84311 0.0
C1133 C 0.31101 0.24219 0.75197 0.0
H1134 H 0.24417 0.24155 0.76681 0.0
C1135 C 0.24529 0.21156 0.64399 0.0
C1136 C 0.22439 0.20131 0.65565 0.0
C1137 C 0.26155 0.21949 0.66926 0.0
C1138 C 0.26284 0.2412 0.76265 0.0
H1139 H 0.3636 0.30405 0.80268 0.0
H1140 H 0.33689 0.28373 0.76218 0.0
H1141 H 0.26889 0.2636 0.80805 0.0
H1142 H 0.20513 0.18916 0.70243 0.0
H1143 H 0.23369 0.2027 0.74669 0.0
H1144 H 0.30495 0.21995 0.70639 0.0
C1145 C 0.33428 0.28234 0.79118 0.0
C1146 C 0.27697 0.25393 0.7862 0.0
C1147 C 0.34948 0.29408 0.81433 0.0
C1148 C 0.22096 0.19732 0.69282 0.0
C1149 C 0.23723 0.20521 0.71811 0.0
C1150 C 0.29688 0.22942 0.72845 0.0
C1151 C 0.31618 0.26862 0.80536 0.0
C1152 C 0.30117 0.25476 0.78086 0.0
C1153 C 0.25728 0.21717 0.70664 0.0
C1154 C 0.2726 0.22897 0.73332 0.0
H1155 H 0.326 0.27752 0.89529 0.0
H1156 H 0.29918 0.25728 0.85481 0.0
H1157 H 0.32968 0.24213 0.74763 0.0
H1158 H 0.2484 0.21486 0.61548 0.0
H1159 H 0.27677 0.2287 0.6595 0.0
C1160 C 0.74895 0.21841 0.86554 0.0
C1161 C 0.7348 0.19949 0.85593 0.0
C1162 C 0.76225 0.2298 0.83932 0.0
C1163 C 0.76574 0.23927 0.74037 0.0
H1164 H 0.82622 0.26455 0.76494 0.0
C1165 C 0.82998 0.28117 0.63695 0.0
C1166 C 0.84227 0.30083 0.6491 0.0
C1167 C 0.81542 0.26894 0.66069 0.0
C1168 C 0.80933 0.2577 0.75773 0.0
H1169 H 0.72436 0.17674 0.81211 0.0
H1170 H 0.74816 0.19627 0.7662 0.0
H1171 H 0.8054 0.24122 0.80923 0.0
H1172 H 0.84765 0.32421 0.69435 0.0
H1173 H 0.82202 0.30308 0.73563 0.0
H1174 H 0.7701 0.25558 0.68846 0.0
C1175 C 0.74844 0.20275 0.79376 0.0
C1176 C 0.79732 0.24437 0.78315 0.0
C1177 C 0.73495 0.1915 0.82 0.0
C1178 C 0.83868 0.30886 0.68455 0.0
C1179 C 0.82407 0.29675 0.70816 0.0
C1180 C 0.77794 0.25244 0.71471 0.0
C1181 C 0.76194 0.22229 0.80302 0.0
C1182 C 0.77525 0.23523 0.77498 0.0
C1183 C 0.81285 0.27628 0.69681 0.0
C1184 C 0.79976 0.26199 0.72335 0.0
H1185 H 0.74908 0.22502 0.89304 0.0
H1186 H 0.77221 0.24494 0.84735 0.0
H1187 H 0.74863 0.23274 0.73337 0.0
H1188 H 0.83237 0.27467 0.60964 0.0
H1189 H 0.80698 0.25321 0.65123 0.0
C1190 C 0.82534 0.77485 0.36358 0.0
C1191 C 0.83703 0.79493 0.35173 0.0
C1192 C 0.81045 0.76285 0.34008 0.0
C1193 C 0.8007 0.75455 0.24231 0.0
H1194 H 0.7429 0.72552 0.27221 0.0
C1195 C 0.73616 0.7166 0.13945 0.0
C1196 C 0.72355 0.69656 0.14884 0.0
C1197 C 0.75035 0.72757 0.1649 0.0
C1198 C 0.75918 0.73323 0.26359 0.0
H1199 H 0.84118 0.81919 0.30728 0.0
H1200 H 0.81477 0.79865 0.26656 0.0
H1201 H 0.76556 0.74786 0.31611 0.0
H1202 H 0.71669 0.67152 0.19129 0.0
H1203 H 0.74218 0.69034 0.23585 0.0
H1204 H 0.7946 0.73985 0.19002 0.0
C1205 C 0.81758 0.79172 0.29351 0.0
C1206 C 0.77212 0.74609 0.28872 0.0
C1207 C 0.83259 0.80356 0.31685 0.0
C1208 C 0.72608 0.68713 0.18367 0.0
C1209 C 0.74056 0.69796 0.20911 0.0
C1210 C 0.78792 0.74158 0.21735 0.0
C1211 C 0.80685 0.77088 0.30449 0.0
C1212 C 0.79295 0.75706 0.27823 0.0
C1213 C 0.75255 0.71853 0.20017 0.0
C1214 C 0.76686 0.73099 0.22753 0.0
H1215 H 0.82847 0.76784 0.39041 0.0
H1216 H 0.80252 0.74681 0.34933 0.0
H1217 H 0.81677 0.76252 0.23342 0.0
H1218 H 0.73441 0.72431 0.11277 0.0
H1219 H 0.75907 0.74353 0.15718 0.0
C1220 C 0.47849 0.55413 0.56824 0.0
C1221 C 0.48615 0.55814 0.60376 0.0
C1222 C 0.49071 0.53903 0.54552 0.0
C1223 C 0.53364 0.49156 0.5432 0.0
H1224 H 0.54603 0.51507 0.44649 0.0
C1225 C 0.59121 0.44076 0.44219 0.0
C1226 C 0.58306 0.43982 0.4064 0.0
C1227 C 0.58125 0.45624 0.46702 0.0
C1228 C 0.54257 0.50811 0.47325 0.0
H1229 H 0.51181 0.54864 0.64427 0.0
H1230 H 0.53338 0.52231 0.60434 0.0
H1231 H 0.52351 0.53842 0.48878 0.0
H1232 H 0.55866 0.45464 0.36798 0.0
H1233 H 0.54083 0.48108 0.41128 0.0
H1234 H 0.55219 0.46095 0.52734 0.0
C1235 C 0.5179 0.53083 0.59407 0.0
C1236 C 0.52969 0.52155 0.49751 0.0
C1237 C 0.50559 0.5459 0.61688 0.0
C1238 C 0.56535 0.4551 0.39543 0.0
C1239 C 0.5552 0.47033 0.42027 0.0
C1240 C 0.54636 0.47798 0.51877 0.0
C1241 C 0.51087 0.52769 0.5579 0.0
C1242 C 0.52493 0.51337 0.53263 0.0
C1243 C 0.56279 0.47088 0.45652 0.0
C1244 C 0.55077 0.48598 0.48336 0.0
H1245 H 0.46328 0.56306 0.5578 0.0
H1246 H 0.4846 0.53655 0.518 0.0
H1247 H 0.53012 0.48474 0.57003 0.0
H1248 H 0.60507 0.42931 0.45105 0.0
H1249 H 0.58782 0.45652 0.49453 0.0
C1250 C 0.00103 0.54035 0.88794 0.0
C1251 C 0.98462 0.55635 0.90115 0.0
C1252 C 0.0121 0.52493 0.91174 0.0
C1253 C 0.02743 0.52202 0.00848 0.0
H1254 H 0.04812 0.45954 0.98567 0.0
C1255 C 0.06815 0.46018 0.11402 0.0
C1256 C 0.0871 0.44647 0.10285 0.0
C1257 C 0.05606 0.47382 0.08899 0.0
C1258 C 0.04263 0.47706 0.99219 0.0
H1259 H 0.96513 0.56738 0.94832 0.0
H1260 H 0.98378 0.53999 0.98964 0.0
H1261 H 0.02398 0.48074 0.94221 0.0
H1262 H 0.1093 0.43751 0.05751 0.0
H1263 H 0.08813 0.46148 0.01357 0.0
H1264 H 0.0459 0.5183 0.0585 0.0
C1265 C 0.98881 0.53985 0.96134 0.0
C1266 C 0.02878 0.48918 0.96737 0.0
C1267 C 0.97799 0.55538 0.9377 0.0
C1268 C 0.09447 0.44759 0.06662 0.0
C1269 C 0.08234 0.46122 0.04153 0.0
C1270 C 0.04113 0.50987 0.0333 0.0
C1271 C 0.00672 0.52518 0.94897 0.0
C1272 C 0.02094 0.51178 0.97534 0.0
C1273 C 0.06274 0.4741 0.05235 0.0
C1274 C 0.04884 0.48726 0.02545 0.0
H1275 H 0.00652 0.54088 0.85985 0.0
H1276 H 0.02583 0.51387 0.90134 0.0
H1277 H 0.02221 0.53961 0.01505 0.0
H1278 H 0.06208 0.45973 0.14182 0.0
H1279 H 0.04098 0.48353 0.0981 0.0
C1280 C 0.03721 0.08271 0.29965 0.0
C1281 C 0.03888 0.08717 0.26229 0.0
C1282 C 0.05572 0.08801 0.32279 0.0
C1283 C 0.10507 0.12864 0.32664 0.0
H1284 H 0.11431 0.09981 0.42064 0.0
C1285 C 0.13368 0.18103 0.44914 0.0
C1286 C 0.14873 0.17142 0.47518 0.0
C1287 C 0.12539 0.16762 0.42054 0.0
C1288 C 0.11231 0.10784 0.39425 0.0
H1289 H 0.06196 0.09886 0.21947 0.0
H1290 H 0.09453 0.10747 0.25968 0.0
H1291 H 0.09121 0.07982 0.37461 0.0
H1292 H 0.16709 0.14012 0.49134 0.0
H1293 H 0.15236 0.11639 0.44088 0.0
H1294 H 0.12594 0.15672 0.3463 0.0
C1295 C 0.07866 0.10055 0.27132 0.0
C1296 C 0.09883 0.09653 0.36799 0.0
C1297 C 0.06003 0.0955 0.24821 0.0
C1298 C 0.15551 0.148 0.47168 0.0
C1299 C 0.14704 0.13443 0.44291 0.0
C1300 C 0.11863 0.13982 0.35272 0.0
C1301 C 0.07645 0.09767 0.30907 0.0
C1302 C 0.0943 0.10722 0.33435 0.0
C1303 C 0.13187 0.14416 0.41703 0.0
C1304 C 0.1216 0.13003 0.38733 0.0
H1305 H 0.02116 0.07628 0.3114 0.0
H1306 H 0.05317 0.08579 0.35167 0.0
H1307 H 0.10194 0.13757 0.30126 0.0
H1308 H 0.12805 0.19899 0.45092 0.0
H1309 H 0.11334 0.17556 0.40161 0.0
C1310 C 0.18867 0.77216 0.51506 0.0
C1311 C 0.20358 0.7529 0.51883 0.0
C1312 C 0.1869 0.78871 0.5427 0.0
C1313 C 0.19296 0.79259 0.64097 0.0
H1314 H 0.18326 0.85861 0.62522 0.0
C1315 C 0.16653 0.85188 0.75914 0.0
C1316 C 0.14777 0.86685 0.75174 0.0
C1317 C 0.17859 0.84105 0.73083 0.0
C1318 C 0.18588 0.84021 0.63007 0.0
H1319 H 0.22931 0.73664 0.55373 0.0
H1320 H 0.22621 0.76553 0.60188 0.0
H1321 H 0.1947 0.83378 0.57447 0.0
H1322 H 0.12789 0.88329 0.70873 0.0
H1323 H 0.14846 0.8641 0.65965 0.0
H1324 H 0.18318 0.79862 0.696 0.0
C1325 C 0.21569 0.76767 0.57773 0.0
C1326 C 0.19246 0.82601 0.601 0.0
C1327 C 0.21752 0.75117 0.55005 0.0
C1328 C 0.14222 0.87181 0.71543 0.0
C1329 C 0.15416 0.86089 0.68718 0.0
C1330 C 0.18626 0.80672 0.66992 0.0
C1331 C 0.19996 0.78631 0.57473 0.0
C1332 C 0.19564 0.80197 0.60603 0.0
C1333 C 0.17206 0.84486 0.69453 0.0
C1334 C 0.18218 0.83063 0.66472 0.0
H1335 H 0.17773 0.77403 0.49132 0.0
H1336 H 0.17448 0.80276 0.5397 0.0
H1337 H 0.19493 0.77408 0.64565 0.0
H1338 H 0.17139 0.84785 0.78681 0.0
H1339 H 0.19259 0.82916 0.73744 0.0
C1340 C 0.43879 0.87944 0.99826 0.0
C1341 C 0.42093 0.86277 0.99593 0.0
C1342 C 0.45013 0.88723 0.96698 0.0
C1343 C 0.46608 0.86521 0.87806 0.0
H1344 H 0.48878 0.92786 0.86145 0.0
C1345 C 0.52916 0.88545 0.76038 0.0
C1346 C 0.54772 0.9005 0.76858 0.0
C1347 C 0.5104 0.8831 0.78433 0.0
C1348 C 0.48271 0.91023 0.86582 0.0
H1349 H 0.39986 0.84248 0.95864 0.0
H1350 H 0.41977 0.85604 0.90417 0.0
H1351 H 0.46119 0.92053 0.91056 0.0
H1352 H 0.56094 0.92516 0.80807 0.0
H1353 H 0.52874 0.9206 0.85011 0.0
H1354 H 0.48831 0.85459 0.83467 0.0
C1355 C 0.4251 0.86289 0.93024 0.0
C1356 C 0.46682 0.90609 0.89384 0.0
C1357 C 0.41362 0.85525 0.96146 0.0
C1358 C 0.5469 0.91346 0.80085 0.0
C1359 C 0.52827 0.91098 0.82488 0.0
C1360 C 0.48212 0.8693 0.8503 0.0
C1361 C 0.44395 0.87839 0.93278 0.0
C1362 C 0.45863 0.88347 0.90061 0.0
C1363 C 0.50986 0.89562 0.81714 0.0
C1364 C 0.49098 0.89179 0.84421 0.0
H1365 H 0.44478 0.88565 0.02436 0.0
H1366 H 0.46466 0.89911 0.96982 0.0
H1367 H 0.46036 0.84752 0.88295 0.0
H1368 H 0.5292 0.87532 0.73561 0.0
H1369 H 0.49637 0.87137 0.7772 0.0
C1370 C 0.42235 0.15538 0.2632 0.0
C1371 C 0.43448 0.13425 0.25948 0.0
C1372 C 0.41367 0.16693 0.23272 0.0
C1373 C 0.39909 0.16118 0.13554 0.0
H1374 H 0.41742 0.22612 0.13146 0.0
C1375 C 0.36987 0.22686 0.02344 0.0
C1376 C 0.38732 0.24174 0.01003 0.0
C1377 C 0.37445 0.21196 0.05267 0.0
C1378 C 0.41223 0.20799 0.13214 0.0
H1379 H 0.44567 0.10797 0.22098 0.0
H1380 H 0.43031 0.12813 0.16778 0.0
H1381 H 0.42596 0.2033 0.18551 0.0
H1382 H 0.42356 0.25189 0.01592 0.0
H1383 H 0.43139 0.2261 0.06684 0.0
H1384 H 0.3855 0.16602 0.0818 0.0
C1385 C 0.42759 0.13574 0.19431 0.0
C1386 C 0.41688 0.19499 0.16326 0.0
C1387 C 0.43645 0.12424 0.2248 0.0
C1388 C 0.40964 0.2408 0.02566 0.0
C1389 C 0.41413 0.2261 0.05498 0.0
C1390 C 0.39417 0.17432 0.10444 0.0
C1391 C 0.41675 0.15755 0.19786 0.0
C1392 C 0.4105 0.17141 0.16527 0.0
C1393 C 0.3965 0.21183 0.06923 0.0
C1394 C 0.40094 0.1978 0.10232 0.0
H1395 H 0.42044 0.16357 0.28947 0.0
H1396 H 0.40509 0.18356 0.23633 0.0
H1397 H 0.39393 0.14305 0.13638 0.0
H1398 H 0.35252 0.22709 0.01195 0.0
H1399 H 0.36052 0.20117 0.06316 0.0
C1400 C 0.91649 0.86006 0.51604 0.0
C1401 C 0.89759 0.84576 0.5256 0.0
C1402 C 0.93011 0.8706 0.54283 0.0
C1403 C 0.94818 0.85982 0.63627 0.0
H1404 H 0.97815 0.92004 0.62772 0.0
C1405 C 0.0162 0.88992 0.74084 0.0
C1406 C 0.03641 0.90033 0.72668 0.0
C1407 C 0.99665 0.8865 0.71891 0.0
C1408 C 0.97001 0.90312 0.6304 0.0
H1409 H 0.87713 0.83276 0.57077 0.0
H1410 H 0.90082 0.85127 0.6174 0.0
H1411 H 0.94792 0.90895 0.58442 0.0
H1412 H 0.05167 0.91588 0.67863 0.0
H1413 H 0.01782 0.90946 0.64024 0.0
H1414 H 0.97071 0.85352 0.68128 0.0
C1415 C 0.90533 0.854 0.5892 0.0
C1416 C 0.95266 0.89681 0.60566 0.0
C1417 C 0.89167 0.84351 0.56243 0.0
C1418 C 0.03639 0.90782 0.69041 0.0
C1419 C 0.01688 0.90429 0.66843 0.0
C1420 C 0.96556 0.86606 0.66086 0.0
C1421 C 0.92514 0.86703 0.57974 0.0
C1422 C 0.94178 0.87495 0.60802 0.0
C1423 C 0.99688 0.89328 0.68225 0.0
C1424 C 0.97696 0.88764 0.65795 0.0
H1425 H 0.9215 0.86222 0.48793 0.0
H1426 H 0.94532 0.88043 0.53461 0.0
H1427 H 0.94046 0.84267 0.63849 0.0
H1428 H 0.01557 0.88411 0.76876 0.0
H1429 H 0.98141 0.87831 0.73062 0.0
C1430 C 0.87852 0.2509 0.45799 0.0
C1431 C 0.89039 0.25458 0.4908 0.0
C1432 C 0.88526 0.23304 0.43455 0.0
C1433 C 0.93714 0.19849 0.41164 0.0
H1434 H 0.89447 0.16763 0.34579 0.0
C1435 C 0.96833 0.16216 0.2765 0.0
C1436 C 0.95986 0.14061 0.26422 0.0
C1437 C 0.95866 0.1729 0.30679 0.0
C1438 C 0.90659 0.17583 0.36429 0.0
H1439 H 0.91792 0.24157 0.52564 0.0
H1440 H 0.92941 0.21009 0.48505 0.0
H1441 H 0.87913 0.19083 0.39594 0.0
H1442 H 0.93416 0.11366 0.27374 0.0
H1443 H 0.9171 0.13261 0.32723 0.0
H1444 H 0.96457 0.18357 0.38015 0.0
C1445 C 0.91517 0.22134 0.47705 0.0
C1446 C 0.89782 0.18934 0.39281 0.0
C1447 C 0.9085 0.23931 0.50043 0.0
C1448 C 0.94103 0.13028 0.28254 0.0
C1449 C 0.93128 0.14112 0.31311 0.0
C1450 C 0.94587 0.18497 0.38332 0.0
C1451 C 0.90398 0.21831 0.44341 0.0
C1452 C 0.91301 0.20134 0.41626 0.0
C1453 C 0.94028 0.1624 0.32585 0.0
C1454 C 0.93073 0.17405 0.35864 0.0
H1455 H 0.86448 0.26233 0.44974 0.0
H1456 H 0.87643 0.23149 0.40872 0.0
H1457 H 0.94941 0.20756 0.42887 0.0
H1458 H 0.98264 0.17078 0.26286 0.0
H1459 H 0.96561 0.18957 0.31522 0.0
C1460 C 0.66737 0.14379 0.04048 0.0
C1461 C 0.65835 0.1404 0.00541 0.0
C1462 C 0.65593 0.13456 0.07073 0.0
C1463 C 0.61096 0.09247 0.10059 0.0
H1464 H 0.59824 0.13835 0.17511 0.0
C1465 C 0.53514 0.08271 0.20172 0.0
C1466 C 0.53728 0.092 0.2368 0.0
C1467 C 0.55276 0.08587 0.17608 0.0
C1468 C 0.60197 0.1251 0.15506 0.0
H1469 H 0.63113 0.12335 0.97451 0.0
H1470 H 0.61132 0.10711 0.02725 0.0
H1471 H 0.62455 0.14794 0.12563 0.0
H1472 H 0.56011 0.11112 0.27292 0.0
H1473 H 0.59117 0.11619 0.2284 0.0
H1474 H 0.5882 0.06969 0.1298 0.0
C1475 C 0.62719 0.11694 0.03136 0.0
C1476 C 0.61706 0.13065 0.1266 0.0
C1477 C 0.63851 0.12633 1.00113 0.0
C1478 C 0.55785 0.10386 0.24605 0.0
C1479 C 0.57559 0.10689 0.22042 0.0
C1480 C 0.596 0.08684 0.12925 0.0
C1481 C 0.63537 0.12156 0.06656 0.0
C1482 C 0.62139 0.11456 0.09869 0.0
C1483 C 0.57312 0.09826 0.1849 0.0
C1484 C 0.59093 0.10326 0.15648 0.0
H1485 H 0.68263 0.15451 0.04481 0.0
H1486 H 0.66282 0.13814 0.09749 0.0
H1487 H 0.61417 0.07962 0.0797 0.0
H1488 H 0.51951 0.07354 0.1936 0.0
H1489 H 0.55 0.07928 0.14892 0.0
C1490 C 0.65059 0.87016 0.78593 0.0
C1491 C 0.65798 0.86611 0.75013 0.0
C1492 C 0.66063 0.85804 0.8148 0.0
C1493 C 0.6903 0.80229 0.83143 0.0
H1494 H 0.69331 0.82519 0.93021 0.0
C1495 C 0.71495 0.74195 0.94981 0.0
C1496 C 0.6996 0.74262 0.97949 0.0
C1497 C 0.71426 0.7593 0.92327 0.0
C1498 C 0.69255 0.81858 0.90274 0.0
H1499 H 0.68311 0.84766 0.71697 0.0
H1500 H 0.7011 0.82699 0.76746 0.0
H1501 H 0.68539 0.8523 0.88065 0.0
H1502 H 0.67221 0.76262 0.00542 0.0
H1503 H 0.67099 0.79287 0.95901 0.0
H1504 H 0.69704 0.76855 0.85351 0.0
C1505 C 0.68702 0.839 0.77311 0.0
C1506 C 0.68799 0.83408 0.87434 0.0
C1507 C 0.67684 0.851 0.74417 0.0
C1508 C 0.68423 0.76155 0.98284 0.0
C1509 C 0.68363 0.77897 0.95637 0.0
C1510 C 0.69501 0.78687 0.85974 0.0
C1511 C 0.67846 0.84172 0.80862 0.0
C1512 C 0.68633 0.82604 0.83838 0.0
C1513 C 0.69831 0.77778 0.92591 0.0
C1514 C 0.69574 0.79474 0.89577 0.0
H1515 H 0.63611 0.88171 0.79155 0.0
H1516 H 0.65343 0.8605 0.84166 0.0
H1517 H 0.68871 0.79533 0.80427 0.0
H1518 H 0.7271 0.72769 0.9465 0.0
H1519 H 0.72598 0.75806 0.90033 0.0
C1520 C 0.54297 0.62044 0.7612 0.0
C1521 C 0.53648 0.59788 0.7505 0.0
C1522 C 0.55993 0.62372 0.78789 0.0
C1523 C 0.58576 0.59332 0.86597 0.0
H1524 H 0.62719 0.64658 0.86678 0.0
C1525 C 0.62425 0.63162 0.99689 0.0
C1526 C 0.64632 0.64216 0.99586 0.0
C1527 C 0.61425 0.62264 0.96534 0.0
C1528 C 0.61604 0.63138 0.8668 0.0
H1529 H 0.54365 0.5611 0.75796 0.0
H1530 H 0.57348 0.56685 0.8041 0.0
H1531 H 0.60428 0.63822 0.81277 0.0
H1532 H 0.67585 0.65016 0.96129 0.0
H1533 H 0.6585 0.63415 0.90633 0.0
H1534 H 0.59745 0.58653 0.92004 0.0
C1535 C 0.5651 0.582 0.79244 0.0
C1536 C 0.60266 0.62677 0.83597 0.0
C1537 C 0.54809 0.57871 0.76584 0.0
C1538 C 0.65875 0.64228 0.963 0.0
C1539 C 0.64874 0.63326 0.93142 0.0
C1540 C 0.59916 0.5979 0.89676 0.0
C1541 C 0.57087 0.60451 0.80436 0.0
C1542 C 0.587 0.60797 0.83546 0.0
C1543 C 0.62611 0.62392 0.93203 0.0
C1544 C 0.61409 0.61728 0.89785 0.0
H1545 H 0.5344 0.63559 0.74989 0.0
H1546 H 0.56375 0.6413 0.79664 0.0
H1547 H 0.57374 0.5788 0.86668 0.0
H1548 H 0.61419 0.63122 0.02172 0.0
H1549 H 0.59671 0.61577 0.9668 0.0
C1550 C 0.65127 0.33593 0.27582 0.0
C1551 C 0.63698 0.355 0.26727 0.0
C1552 C 0.66252 0.32342 0.24839 0.0
C1553 C 0.67725 0.32439 0.14949 0.0
H1554 H 0.67601 0.2573 0.16083 0.0
C1555 C 0.6871 0.25885 0.03061 0.0
C1556 C 0.70035 0.23867 0.03708 0.0
C1557 C 0.68259 0.27461 0.0587 0.0
C1558 C 0.67679 0.27602 0.15742 0.0
H1559 H 0.62403 0.37644 0.2232 0.0
H1560 H 0.64306 0.35437 0.17549 0.0
H1561 H 0.66267 0.28197 0.21015 0.0
H1562 H 0.71998 0.21974 0.07783 0.0
H1563 H 0.71203 0.24716 0.12666 0.0
H1564 H 0.69061 0.31815 0.09602 0.0
C1565 C 0.64602 0.34924 0.20336 0.0
C1566 C 0.66922 0.29022 0.18579 0.0
C1567 C 0.63497 0.36188 0.2308 0.0
C1568 C 0.70963 0.23504 0.0719 0.0
C1569 C 0.70499 0.25069 0.09997 0.0
C1570 C 0.68464 0.31013 0.12092 0.0
C1571 C 0.65955 0.32953 0.2117 0.0
C1572 C 0.66918 0.3146 0.18218 0.0
C1573 C 0.69109 0.27043 0.09386 0.0
C1574 C 0.68436 0.28578 0.12453 0.0
H1575 H 0.65334 0.33029 0.30366 0.0
H1576 H 0.67322 0.30868 0.25594 0.0
H1577 H 0.67782 0.34308 0.14587 0.0
H1578 H 0.67969 0.26217 0.0041 0.0
H1579 H 0.6717 0.28959 0.05321 0.0
C1580 C 0.02739 0.38644 0.26658 0.0
C1581 C 0.03193 0.40908 0.25397 0.0
C1582 C 0.01053 0.38253 0.29321 0.0
C1583 C 0.97993 0.4128 0.36753 0.0
H1584 H 0.94439 0.35548 0.37083 0.0
C1585 C 0.94145 0.37583 0.49968 0.0
C1586 C 0.92091 0.36255 0.49835 0.0
C1587 C 0.95142 0.38457 0.46791 0.0
C1588 C 0.95384 0.37179 0.37015 0.0
H1589 H 0.02154 0.44527 0.25841 0.0
H1590 H 0.99179 0.43839 0.30446 0.0
H1591 H 0.96768 0.36443 0.31753 0.0
H1592 H 0.89394 0.34931 0.46271 0.0
H1593 H 0.91111 0.36497 0.40732 0.0
H1594 H 0.966 0.42019 0.42012 0.0
C1595 C 0.00163 0.4237 0.29427 0.0
C1596 C 0.96749 0.37676 0.33972 0.0
C1597 C 0.0186 0.42763 0.2677 0.0
C1598 C 0.90984 0.35937 0.46471 0.0
C1599 C 0.9198 0.36818 0.43289 0.0
C1600 C 0.96619 0.40787 0.3979 0.0
C1601 C 0.99765 0.40114 0.3078 0.0
C1602 C 0.98113 0.39708 0.33835 0.0
C1603 C 0.94105 0.38036 0.43399 0.0
C1604 C 0.95337 0.38705 0.39996 0.0
H1605 H 0.03734 0.37174 0.25666 0.0
H1606 H 0.00821 0.36497 0.30327 0.0
H1607 H 0.9903 0.42854 0.36761 0.0
H1608 H 0.95045 0.37863 0.52511 0.0
H1609 H 0.9679 0.39365 0.46987 0.0
C1610 C 0.93956 0.63275 0.71412 0.0
C1611 C 0.9273 0.63381 0.74707 0.0
C1612 C 0.93083 0.64358 0.68307 0.0
C1613 C 0.88996 0.69057 0.65648 0.0
H1614 H 0.90491 0.66931 0.55942 0.0
C1615 C 0.8591 0.73942 0.52863 0.0
C1616 C 0.87701 0.74531 0.50429 0.0
C1617 C 0.86304 0.72331 0.55636 0.0
C1618 C 0.90063 0.67542 0.58639 0.0
H1619 H 0.89555 0.64584 0.7727 0.0
H1620 H 0.87978 0.66394 0.71814 0.0
H1621 H 0.9146 0.6449 0.61149 0.0
H1622 H 0.91278 0.73815 0.48896 0.0
H1623 H 0.91949 0.70965 0.53715 0.0
H1624 H 0.8758 0.72099 0.63116 0.0
C1625 C 0.89658 0.65545 0.71654 0.0
C1626 C 0.90625 0.66151 0.61629 0.0
C1627 C 0.9055 0.64489 0.74779 0.0
C1628 C 0.89865 0.73402 0.50734 0.0
C1629 C 0.90247 0.71764 0.5348 0.0
C1630 C 0.88403 0.70427 0.62658 0.0
C1631 C 0.90941 0.65548 0.68397 0.0
C1632 C 0.90137 0.66909 0.65183 0.0
C1633 C 0.88484 0.7125 0.56 0.0
C1634 C 0.88963 0.69701 0.59129 0.0
H1635 H 0.95649 0.62447 0.71263 0.0
H1636 H 0.94145 0.64346 0.65882 0.0
H1637 H 0.88631 0.6973 0.68329 0.0
H1638 H 0.84224 0.7478 0.52705 0.0
H1639 H 0.8491 0.71952 0.57527 0.0
C1640 C 0.54348 0.42318 0.19408 0.0
C1641 C 0.54038 0.41149 0.22722 0.0
C1642 C 0.52709 0.42095 0.16628 0.0
C1643 C 0.46692 0.40117 0.14525 0.0
H1644 H 0.49323 0.38795 0.05067 0.0
C1645 C 0.41641 0.35443 0.03098 0.0
C1646 C 0.42192 0.35958 0.99469 0.0
C1647 C 0.42841 0.36521 0.05937 0.0
C1648 C 0.48548 0.39209 0.07664 0.0
H1649 H 0.51708 0.38905 0.25764 0.0
H1650 H 0.48862 0.38499 0.20902 0.0
H1651 H 0.51879 0.39856 0.10039 0.0
H1652 H 0.44308 0.38147 0.95989 0.0
H1653 H 0.46361 0.40065 0.0094 0.0
H1654 H 0.43359 0.39415 0.1215 0.0
C1655 C 0.50362 0.39606 0.20462 0.0
C1656 C 0.50019 0.39815 0.10525 0.0
C1657 C 0.52002 0.3983 0.23245 0.0
C1658 C 0.43855 0.37693 0.98751 0.0
C1659 C 0.45046 0.3878 0.01591 0.0
C1660 C 0.45215 0.39514 0.11653 0.0
C1661 C 0.5072 0.40697 0.17093 0.0
C1662 C 0.49115 0.40246 0.14003 0.0
C1663 C 0.4461 0.3815 0.05216 0.0
C1664 C 0.46129 0.39021 0.08197 0.0
H1665 H 0.55887 0.43362 0.18922 0.0
H1666 H 0.53018 0.42989 0.14087 0.0
H1667 H 0.45937 0.40466 0.1716 0.0
H1668 H 0.40369 0.34115 0.03753 0.0
H1669 H 0.42466 0.35979 0.08688 0.0
C1670 C 0.41079 0.74507 0.98673 0.0
C1671 C 0.38888 0.74646 0.00363 0.0
C1672 C 0.41451 0.72955 0.95818 0.0
C1673 C 0.39225 0.67729 0.91171 0.0
H1674 H 0.4203 0.70572 0.82687 0.0
C1675 C 0.42684 0.62697 0.78578 0.0
C1676 C 0.42343 0.63738 0.75164 0.0
C1677 C 0.41969 0.63833 0.81743 0.0
C1678 C 0.41226 0.69757 0.85022 0.0
H1679 H 0.35417 0.73155 0.00532 0.0
H1680 H 0.36079 0.70431 0.95552 0.0
H1681 H 0.41515 0.72862 0.88182 0.0
H1682 H 0.40824 0.66705 0.72391 0.0
H1683 H 0.39582 0.68678 0.7791 0.0
H1684 H 0.38953 0.64613 0.87984 0.0
C1685 C 0.37501 0.71534 0.96432 0.0
C1686 C 0.40959 0.7106 0.88184 0.0
C1687 C 0.37121 0.73101 0.99275 0.0
C1688 C 0.41129 0.65859 0.74973 0.0
C1689 C 0.4043 0.66999 0.78136 0.0
C1690 C 0.39517 0.66412 0.88007 0.0
C1691 C 0.39648 0.71494 0.94608 0.0
C1692 C 0.3996 0.70063 0.91295 0.0
C1693 C 0.40912 0.66035 0.81556 0.0
C1694 C 0.40513 0.67419 0.84897 0.0
H1695 H 0.42486 0.75656 0.99463 0.0
H1696 H 0.43137 0.72933 0.94498 0.0
H1697 H 0.38452 0.66917 0.93534 0.0
H1698 H 0.43606 0.6106 0.78821 0.0
H1699 H 0.42366 0.63049 0.84342 0.0
C1700 C 0.15724 0.65733 0.53808 0.0
C1701 C 0.1452 0.67453 0.51848 0.0
C1702 C 0.14727 0.64749 0.56928 0.0
C1703 C 0.10262 0.6607 0.63863 0.0
H1704 H 0.10289 0.59442 0.65818 0.0
C1705 C 0.05195 0.62437 0.75991 0.0
C1706 C 0.03789 0.605 0.75199 0.0
C1707 C 0.06965 0.63113 0.73607 0.0
C1708 C 0.10269 0.61299 0.65313 0.0
H1709 H 0.11286 0.694 0.51508 0.0
H1710 H 0.09554 0.67673 0.56859 0.0
H1711 H 0.12423 0.60959 0.60586 0.0
H1712 H 0.03226 0.57679 0.71389 0.0
H1713 H 0.0626 0.58886 0.67205 0.0
H1714 H 0.08019 0.66418 0.68439 0.0
C1715 C 0.11287 0.67124 0.56071 0.0
C1716 C 0.11511 0.62168 0.62335 0.0
C1717 C 0.12276 0.68103 0.52982 0.0
C1718 C 0.04272 0.59184 0.72077 0.0
C1719 C 0.0603 0.59867 0.69685 0.0
C1720 C 0.0902 0.65205 0.6682 0.0
C1721 C 0.12515 0.65475 0.58129 0.0
C1722 C 0.11462 0.64557 0.61521 0.0
C1723 C 0.07358 0.61877 0.70368 0.0
C1724 C 0.08959 0.62803 0.67536 0.0
H1725 H 0.17457 0.65201 0.52999 0.0
H1726 H 0.15712 0.63476 0.58457 0.0
H1727 H 0.10228 0.67926 0.63351 0.0
H1728 H 0.04879 0.6348 0.78389 0.0
H1729 H 0.07982 0.64645 0.74253 0.0
C1730 C 0.14273 0.37577 0.2841 0.0
C1731 C 0.14908 0.37033 0.24827 0.0
C1732 C 0.15281 0.36398 0.3133 0.0
C1733 C 0.18116 0.30773 0.33308 0.0
H1734 H 0.18872 0.33437 0.42896 0.0
C1735 C 0.21135 0.2519 0.45353 0.0
C1736 C 0.19744 0.25356 0.4848 0.0
C1737 C 0.20934 0.2683 0.42573 0.0
C1738 C 0.18666 0.32671 0.40232 0.0
H1739 H 0.17226 0.34944 0.21518 0.0
H1740 H 0.19035 0.32936 0.26613 0.0
H1741 H 0.17912 0.35965 0.37778 0.0
H1742 H 0.17133 0.27446 0.51215 0.0
H1743 H 0.16788 0.30315 0.46357 0.0
H1744 H 0.18845 0.27481 0.35762 0.0
C1745 C 0.17705 0.34224 0.27166 0.0
C1746 C 0.18112 0.34116 0.37299 0.0
C1747 C 0.16681 0.3539 0.24243 0.0
C1748 C 0.18229 0.27266 0.48841 0.0
C1749 C 0.18038 0.28915 0.46064 0.0
C1750 C 0.18687 0.29336 0.36228 0.0
C1751 C 0.16965 0.34659 0.30742 0.0
C1752 C 0.17793 0.3318 0.33806 0.0
C1753 C 0.19348 0.28683 0.42862 0.0
C1754 C 0.18935 0.30261 0.39733 0.0
H1755 H 0.1291 0.38832 0.28963 0.0
H1756 H 0.14647 0.36769 0.34034 0.0
H1757 H 0.17838 0.29976 0.30684 0.0
H1758 H 0.2233 0.23749 0.44992 0.0
H1759 H 0.2199 0.26622 0.4016 0.0
loop_
_geom_bond_atom_site_label_1
_geom_bond_atom_site_label_2
_geom_bond_distance
_geom_bond_site_symmetry_2
_ccdc_geom_bond_type
Zn0 O6 1.969 1_455 S
Zn0 O7 1.965 1_455 S
Zn0 O11 2.024 . S
Zn0 O16 1.969 . S
Zn1 O8 1.969 . S
Zn1 O14 1.969 . S
Zn1 O15 1.965 . S
Zn1 O17 2.024 1_455 S
C2 O3 1.229 . S
C2 O11 1.058 . S
O3 C2 1.229 . S
C4 O5 1.229 . S
C4 O17 1.058 . S
O5 C4 1.229 . S
O6 Zn0 1.969 1_655 S
O6 C9 1.267 . S
O7 Zn0 1.965 1_655 S
O7 C18 1.260 1_655 S
O8 Zn1 1.969 . S
O8 C18 1.258 . S
C9 O6 1.267 . S
C9 O10 1.228 . S
O10 C9 1.228 . S
O11 Zn0 2.024 . S
O11 C2 1.058 . S
C12 O13 1.228 . S
C12 O14 1.267 . S
O13 C12 1.228 . S
O14 Zn1 1.969 . S
O14 C12 1.267 . S
O15 Zn1 1.965 . S
O15 C19 1.260 . S
O16 Zn0 1.969 . S
O16 C19 1.258 . S
O17 Zn1 2.024 1_655 S
O17 C4 1.058 . S
C18 O7 1.260 1_455 S
C18 O8 1.258 . S
C19 O15 1.260 . S
C19 O16 1.258 . S
Zn20 O26 1.969 . S
Zn20 O27 1.965 . S
Zn20 O31 2.024 . S
Zn20 O36 1.969 . S
Zn21 O28 1.969 . S
Zn21 O34 1.969 . S
Zn21 O35 1.965 . S
Zn21 O37 2.024 . S
C22 O23 1.229 . S
C22 O31 1.058 . S
O23 C22 1.229 . S
C24 O25 1.229 . S
C24 O37 1.058 . S
O25 C24 1.229 . S
O26 Zn20 1.969 . S
O26 C29 1.267 . S
O27 Zn20 1.965 . S
O27 C38 1.260 . S
O28 Zn21 1.969 . S
O28 C38 1.258 . S
C29 O26 1.267 . S
C29 O30 1.228 . S
O30 C29 1.228 . S
O31 Zn20 2.024 . S
O31 C22 1.058 . S
C32 O33 1.228 . S
C32 O34 1.267 . S
O33 C32 1.228 . S
O34 Zn21 1.969 . S
O34 C32 1.267 . S
O35 Zn21 1.965 . S
O35 C39 1.260 . S
O36 Zn20 1.969 . S
O36 C39 1.258 . S
O37 Zn21 2.024 . S
O37 C24 1.058 . S
C38 O27 1.260 . S
C38 O28 1.258 . S
C39 O35 1.260 . S
C39 O36 1.258 . S
Zn40 O46 1.969 . S
Zn40 O47 1.965 . S
Zn40 O51 2.024 . S
Zn40 O56 1.969 . S
Zn41 O48 1.969 . S
Zn41 O54 1.969 . S
Zn41 O55 1.965 . S
Zn41 O57 2.024 . S
C42 O43 1.229 . S
C42 O51 1.058 . S
O43 C42 1.229 . S
C44 O45 1.229 . S
C44 O57 1.058 . S
O45 C44 1.229 . S
O46 Zn40 1.969 . S
O46 C49 1.267 . S
O47 Zn40 1.965 . S
O47 C58 1.260 . S
O48 Zn41 1.969 . S
O48 C58 1.258 . S
C49 O46 1.267 . S
C49 O50 1.228 . S
O50 C49 1.228 . S
O51 Zn40 2.024 . S
O51 C42 1.058 . S
C52 O53 1.228 . S
C52 O54 1.267 . S
O53 C52 1.228 . S
O54 Zn41 1.969 . S
O54 C52 1.267 . S
O55 Zn41 1.965 . S
O55 C59 1.260 . S
O56 Zn40 1.969 . S
O56 C59 1.258 . S
O57 Zn41 2.024 . S
O57 C44 1.058 . S
C58 O47 1.260 . S
C58 O48 1.258 . S
C59 O55 1.260 . S
C59 O56 1.258 . S
Zn60 O66 1.969 . S
Zn60 O67 1.965 . S
Zn60 O71 2.024 . S
Zn60 O76 1.969 . S
Zn61 O68 1.969 . S
Zn61 O74 1.969 . S
Zn61 O75 1.965 . S
Zn61 O77 2.024 . S
C62 O63 1.229 . S
C62 O71 1.058 . S
O63 C62 1.229 . S
C64 O65 1.229 . S
C64 O77 1.058 . S
O65 C64 1.229 . S
O66 Zn60 1.969 . S
O66 C69 1.267 . S
O67 Zn60 1.965 . S
O67 C78 1.260 . S
O68 Zn61 1.969 . S
O68 C78 1.258 . S
C69 O66 1.267 . S
C69 O70 1.228 . S
O70 C69 1.228 . S
O71 Zn60 2.024 . S
O71 C62 1.058 . S
C72 O73 1.228 . S
C72 O74 1.267 . S
O73 C72 1.228 . S
O74 Zn61 1.969 . S
O74 C72 1.267 . S
O75 Zn61 1.965 . S
O75 C79 1.260 . S
O76 Zn60 1.969 . S
O76 C79 1.258 . S
O77 Zn61 2.024 . S
O77 C64 1.058 . S
C78 O67 1.260 . S
C78 O68 1.258 . S
C79 O75 1.260 . S
C79 O76 1.258 . S
Zn80 O86 1.969 . S
Zn80 O87 1.965 . S
Zn80 O91 2.024 . S
Zn80 O96 1.969 . S
Zn81 O88 1.969 . S
Zn81 O94 1.969 . S
Zn81 O95 1.965 . S
Zn81 O97 2.024 . S
C82 O83 1.229 . S
C82 O91 1.058 . S
O83 C82 1.229 . S
C84 O85 1.229 . S
C84 O97 1.058 . S
O85 C84 1.229 . S
O86 Zn80 1.969 . S
O86 C89 1.267 . S
O87 Zn80 1.965 . S
O87 C98 1.260 . S
O88 Zn81 1.969 . S
O88 C98 1.258 . S
C89 O86 1.267 . S
C89 O90 1.228 . S
O90 C89 1.228 . S
O91 Zn80 2.024 . S
O91 C82 1.058 . S
C92 O93 1.228 . S
C92 O94 1.267 . S
O93 C92 1.228 . S
O94 Zn81 1.969 . S
O94 C92 1.267 . S
O95 Zn81 1.965 . S
O95 C99 1.260 . S
O96 Zn80 1.969 . S
O96 C99 1.258 . S
O97 Zn81 2.024 . S
O97 C84 1.058 . S
C98 O87 1.260 . S
C98 O88 1.258 . S
C99 O95 1.260 . S
C99 O96 1.258 . S
Zn100 O106 1.969 . S
Zn100 O107 1.965 . S
Zn100 O111 2.024 . S
Zn100 O116 1.969 . S
Zn101 O108 1.969 . S
Zn101 O114 1.969 . S
Zn101 O115 1.965 . S
Zn101 O117 2.024 . S
C102 O103 1.229 . S
C102 O111 1.058 . S
O103 C102 1.229 . S
C104 O105 1.229 . S
C104 O117 1.058 . S
O105 C104 1.229 . S
O106 Zn100 1.969 . S
O106 C109 1.267 . S
O107 Zn100 1.965 . S
O107 C118 1.260 . S
O108 Zn101 1.969 . S
O108 C118 1.258 . S
C109 O106 1.267 . S
C109 O110 1.228 . S
O110 C109 1.228 . S
O111 Zn100 2.024 . S
O111 C102 1.058 . S
C112 O113 1.228 . S
C112 O114 1.267 . S
O113 C112 1.228 . S
O114 Zn101 1.969 . S
O114 C112 1.267 . S
O115 Zn101 1.965 . S
O115 C119 1.260 . S
O116 Zn100 1.969 . S
O116 C119 1.258 . S
O117 Zn101 2.024 . S
O117 C104 1.058 . S
C118 O107 1.260 . S
C118 O108 1.258 . S
C119 O115 1.260 . S
C119 O116 1.258 . S
Zn120 O126 1.969 . S
Zn120 O127 1.965 . S
Zn120 O131 2.024 . S
Zn120 O136 1.969 . S
Zn121 O128 1.969 . S
Zn121 O134 1.969 . S
Zn121 O135 1.965 . S
Zn121 O137 2.024 . S
C122 O123 1.229 . S
C122 O131 1.058 . S
O123 C122 1.229 . S
C124 O125 1.229 . S
C124 O137 1.058 . S
O125 C124 1.229 . S
O126 Zn120 1.969 . S
O126 C129 1.267 . S
O127 Zn120 1.965 . S
O127 C138 1.260 . S
O128 Zn121 1.969 . S
O128 C138 1.258 . S
C129 O126 1.267 . S
C129 O130 1.228 . S
O130 C129 1.228 . S
O131 Zn120 2.024 . S
O131 C122 1.058 . S
C132 O133 1.228 . S
C132 O134 1.267 . S
O133 C132 1.228 . S
O134 Zn121 1.969 . S
O134 C132 1.267 . S
O135 Zn121 1.965 . S
O135 C139 1.260 . S
O136 Zn120 1.969 . S
O136 C139 1.258 . S
O137 Zn121 2.024 . S
O137 C124 1.058 . S
C138 O127 1.260 . S
C138 O128 1.258 . S
C139 O135 1.260 . S
C139 O136 1.258 . S
Zn140 O146 1.969 . S
Zn140 O147 1.965 . S
Zn140 O151 2.024 . S
Zn140 O156 1.969 . S
Zn141 O148 1.969 . S
Zn141 O154 1.969 . S
Zn141 O155 1.965 . S
Zn141 O157 2.024 . S
C142 O143 1.229 . S
C142 O151 1.058 . S
O143 C142 1.229 . S
C144 O145 1.229 . S
C144 O157 1.058 . S
O145 C144 1.229 . S
O146 Zn140 1.969 . S
O146 C149 1.267 . S
O147 Zn140 1.965 . S
O147 C158 1.260 . S
O148 Zn141 1.969 . S
O148 C158 1.258 . S
C149 O146 1.267 . S
C149 O150 1.228 . S
O150 C149 1.228 . S
O151 Zn140 2.024 . S
O151 C142 1.058 . S
C152 O153 1.228 . S
C152 O154 1.267 . S
O153 C152 1.228 . S
O154 Zn141 1.969 . S
O154 C152 1.267 . S
O155 Zn141 1.965 . S
O155 C159 1.260 . S
O156 Zn140 1.969 . S
O156 C159 1.258 . S
O157 Zn141 2.024 . S
O157 C144 1.058 . S
C158 O147 1.260 . S
C158 O148 1.258 . S
C159 O155 1.260 . S
C159 O156 1.258 . S
Zn160 O166 1.969 . S
Zn160 O167 1.965 . S
Zn160 O171 2.024 . S
Zn160 O176 1.969 . S
Zn161 O168 1.969 . S
Zn161 O174 1.969 . S
Zn161 O175 1.965 . S
Zn161 O177 2.024 . S
C162 O163 1.229 . S
C162 O171 1.058 . S
O163 C162 1.229 . S
C164 O165 1.229 . S
C164 O177 1.058 . S
O165 C164 1.229 . S
O166 Zn160 1.969 . S
O166 C169 1.267 . S
O167 Zn160 1.965 . S
O167 C178 1.260 . S
O168 Zn161 1.969 . S
O168 C178 1.258 . S
C169 O166 1.267 . S
C169 O170 1.228 . S
O170 C169 1.228 . S
O171 Zn160 2.024 . S
O171 C162 1.058 . S
C172 O173 1.228 . S
C172 O174 1.267 . S
O173 C172 1.228 . S
O174 Zn161 1.969 . S
O174 C172 1.267 . S
O175 Zn161 1.965 . S
O175 C179 1.260 . S
O176 Zn160 1.969 . S
O176 C179 1.258 . S
O177 Zn161 2.024 . S
O177 C164 1.058 . S
C178 O167 1.260 . S
C178 O168 1.258 . S
C179 O175 1.260 . S
C179 O176 1.258 . S
Zn180 O186 1.969 . S
Zn180 O187 1.965 . S
Zn180 O191 2.024 . S
Zn180 O196 1.969 . S
Zn181 O188 1.969 . S
Zn181 O194 1.969 . S
Zn181 O195 1.965 . S
Zn181 O197 2.024 . S
C182 O183 1.229 . S
C182 O191 1.058 . S
O183 C182 1.229 . S
C184 O185 1.229 . S
C184 O197 1.058 . S
O185 C184 1.229 . S
O186 Zn180 1.969 . S
O186 C189 1.267 . S
O187 Zn180 1.965 . S
O187 C198 1.260 . S
O188 Zn181 1.969 . S
O188 C198 1.258 . S
C189 O186 1.267 . S
C189 O190 1.228 . S
O190 C189 1.228 . S
O191 Zn180 2.024 . S
O191 C182 1.058 . S
C192 O193 1.228 . S
C192 O194 1.267 . S
O193 C192 1.228 . S
O194 Zn181 1.969 . S
O194 C192 1.267 . S
O195 Zn181 1.965 . S
O195 C199 1.260 . S
O196 Zn180 1.969 . S
O196 C199 1.258 . S
O197 Zn181 2.024 . S
O197 C184 1.058 . S
C198 O187 1.260 . S
C198 O188 1.258 . S
C199 O195 1.260 . S
C199 O196 1.258 . S
Zn200 O206 1.969 . S
Zn200 O207 1.965 . S
Zn200 O211 2.024 . S
Zn200 O216 1.969 . S
Zn201 O208 1.969 . S
Zn201 O214 1.969 . S
Zn201 O215 1.965 . S
Zn201 O217 2.024 . S
C202 O203 1.229 . S
C202 O211 1.058 . S
O203 C202 1.229 . S
C204 O205 1.229 . S
C204 O217 1.058 . S
O205 C204 1.229 . S
O206 Zn200 1.969 . S
O206 C209 1.267 . S
O207 Zn200 1.965 . S
O207 C218 1.260 . S
O208 Zn201 1.969 . S
O208 C218 1.258 . S
C209 O206 1.267 . S
C209 O210 1.228 . S
O210 C209 1.228 . S
O211 Zn200 2.024 . S
O211 C202 1.058 . S
C212 O213 1.228 . S
C212 O214 1.267 . S
O213 C212 1.228 . S
O214 Zn201 1.969 . S
O214 C212 1.267 . S
O215 Zn201 1.965 . S
O215 C219 1.260 . S
O216 Zn200 1.969 . S
O216 C219 1.258 . S
O217 Zn201 2.024 . S
O217 C204 1.058 . S
C218 O207 1.260 . S
C218 O208 1.258 . S
C219 O215 1.260 . S
C219 O216 1.258 . S
Zn220 O226 1.969 . S
Zn220 O227 1.965 . S
Zn220 O231 2.024 . S
Zn220 O236 1.969 . S
Zn221 O228 1.969 . S
Zn221 O234 1.969 . S
Zn221 O235 1.965 . S
Zn221 O237 2.024 . S
C222 O223 1.229 . S
C222 O231 1.058 . S
O223 C222 1.229 . S
C224 O225 1.229 . S
C224 O237 1.058 . S
O225 C224 1.229 . S
O226 Zn220 1.969 . S
O226 C229 1.267 . S
O227 Zn220 1.965 . S
O227 C238 1.260 . S
O228 Zn221 1.969 . S
O228 C238 1.258 . S
C229 O226 1.267 . S
C229 O230 1.228 . S
O230 C229 1.228 . S
O231 Zn220 2.024 . S
O231 C222 1.058 . S
C232 O233 1.228 . S
C232 O234 1.267 . S
O233 C232 1.228 . S
O234 Zn221 1.969 . S
O234 C232 1.267 . S
O235 Zn221 1.965 . S
O235 C239 1.260 . S
O236 Zn220 1.969 . S
O236 C239 1.258 . S
O237 Zn221 2.024 . S
O237 C224 1.058 . S
C238 O227 1.260 . S
C238 O228 1.258 . S
C239 O235 1.260 . S
C239 O236 1.258 . S
Zn240 O246 1.969 . S
Zn240 O247 1.965 . S
Zn240 O251 2.024 . S
Zn240 O256 1.969 . S
Zn241 O248 1.969 . S
Zn241 O254 1.969 . S
Zn241 O255 1.965 . S
Zn241 O257 2.024 . S
C242 O243 1.229 . S
C242 O251 1.058 . S
O243 C242 1.229 . S
C244 O245 1.229 . S
C244 O257 1.058 . S
O245 C244 1.229 . S
O246 Zn240 1.969 . S
O246 C249 1.267 . S
O247 Zn240 1.965 . S
O247 C258 1.260 . S
O248 Zn241 1.969 . S
O248 C258 1.258 . S
C249 O246 1.267 . S
C249 O250 1.228 . S
O250 C249 1.228 . S
O251 Zn240 2.024 . S
O251 C242 1.058 . S
C252 O253 1.228 . S
C252 O254 1.267 . S
O253 C252 1.228 . S
O254 Zn241 1.969 . S
O254 C252 1.267 . S
O255 Zn241 1.965 . S
O255 C259 1.260 . S
O256 Zn240 1.969 . S
O256 C259 1.258 . S
O257 Zn241 2.024 . S
O257 C244 1.058 . S
C258 O247 1.260 . S
C258 O248 1.258 . S
C259 O255 1.260 . S
C259 O256 1.258 . S
Zn260 O266 1.969 . S
Zn260 O267 1.965 . S
Zn260 O271 2.024 . S
Zn260 O276 1.969 . S
Zn261 O268 1.969 . S
Zn261 O274 1.969 . S
Zn261 O275 1.965 . S
Zn261 O277 2.024 . S
C262 O263 1.229 . S
C262 O271 1.058 . S
O263 C262 1.229 . S
C264 O265 1.229 . S
C264 O277 1.058 . S
O265 C264 1.229 . S
O266 Zn260 1.969 . S
O266 C269 1.267 . S
O267 Zn260 1.965 . S
O267 C278 1.260 . S
O268 Zn261 1.969 . S
O268 C278 1.258 . S
C269 O266 1.267 . S
C269 O270 1.228 . S
O270 C269 1.228 . S
O271 Zn260 2.024 . S
O271 C262 1.058 . S
C272 O273 1.228 . S
C272 O274 1.267 . S
O273 C272 1.228 . S
O274 Zn261 1.969 . S
O274 C272 1.267 . S
O275 Zn261 1.965 . S
O275 C279 1.260 . S
O276 Zn260 1.969 . S
O276 C279 1.258 . S
O277 Zn261 2.024 . S
O277 C264 1.058 . S
C278 O267 1.260 . S
C278 O268 1.258 . S
C279 O275 1.260 . S
C279 O276 1.258 . S
Zn280 O286 1.969 . S
Zn280 O287 1.965 . S
Zn280 O291 2.024 . S
Zn280 O296 1.969 . S
Zn281 O288 1.969 . S
Zn281 O294 1.969 . S
Zn281 O295 1.965 . S
Zn281 O297 2.024 . S
C282 O283 1.229 . S
C282 O291 1.058 . S
O283 C282 1.229 . S
C284 O285 1.229 . S
C284 O297 1.058 . S
O285 C284 1.229 . S
O286 Zn280 1.969 . S
O286 C289 1.267 . S
O287 Zn280 1.965 . S
O287 C298 1.260 . S
O288 Zn281 1.969 . S
O288 C298 1.258 . S
C289 O286 1.267 . S
C289 O290 1.228 . S
O290 C289 1.228 . S
O291 Zn280 2.024 . S
O291 C282 1.058 . S
C292 O293 1.228 . S
C292 O294 1.267 . S
O293 C292 1.228 . S
O294 Zn281 1.969 . S
O294 C292 1.267 . S
O295 Zn281 1.965 . S
O295 C299 1.260 . S
O296 Zn280 1.969 . S
O296 C299 1.258 . S
O297 Zn281 2.024 . S
O297 C284 1.058 . S
C298 O287 1.260 . S
C298 O288 1.258 . S
C299 O295 1.260 . S
C299 O296 1.258 . S
Zn300 O306 1.969 . S
Zn300 O307 1.965 . S
Zn300 O311 2.024 1_455 S
Zn300 O316 1.969 . S
Zn301 O308 1.969 . S
Zn301 O314 1.969 1_455 S
Zn301 O315 1.965 1_455 S
Zn301 O317 2.024 . S
C302 O303 1.229 . S
C302 O311 1.058 . S
O303 C302 1.229 . S
C304 O305 1.229 . S
C304 O317 1.058 . S
O305 C304 1.229 . S
O306 Zn300 1.969 . S
O306 C309 1.267 . S
O307 Zn300 1.965 . S
O307 C318 1.260 . S
O308 Zn301 1.969 . S
O308 C318 1.258 . S
C309 O306 1.267 . S
C309 O310 1.228 . S
O310 C309 1.228 . S
O311 Zn300 2.024 1_655 S
O311 C302 1.058 . S
C312 O313 1.228 . S
C312 O314 1.267 . S
O313 C312 1.228 . S
O314 Zn301 1.969 1_655 S
O314 C312 1.267 . S
O315 Zn301 1.965 1_655 S
O315 C319 1.260 1_655 S
O316 Zn300 1.969 . S
O316 C319 1.258 . S
O317 Zn301 2.024 . S
O317 C304 1.058 . S
C318 O307 1.260 . S
C318 O308 1.258 . S
C319 O315 1.260 1_455 S
C319 O316 1.258 . S
C320 C321 1.349 . S
C320 C322 1.327 . S
C320 H345 0.950 1_556 S
C321 C320 1.349 . S
C321 C337 1.349 . S
C322 C320 1.327 . S
C322 C341 1.429 . S
C322 H346 0.950 . S
C323 C340 1.574 . S
C323 C342 1.368 . S
C323 H347 0.949 . S
H324 C328 0.949 . S
C325 C326 1.349 . S
C325 C327 1.327 . S
C325 H348 0.950 . S
C326 C325 1.349 . S
C326 C338 1.349 . S
C327 C325 1.327 . S
C327 C343 1.429 . S
C327 H349 0.950 . S
C328 H324 0.949 . S
C328 C336 1.574 . S
C328 C344 1.368 . S
H329 C337 0.950 . S
H330 C335 0.950 . S
H331 C336 0.949 . S
H332 C338 0.950 . S
H333 C339 0.950 . S
H334 C340 0.949 . S
C335 H330 0.950 . S
C335 C337 1.327 . S
C335 C341 1.429 . S
C336 C328 1.574 . S
C336 H331 0.949 . S
C336 C342 1.368 . S
C337 C321 1.349 . S
C337 H329 0.950 . S
C337 C335 1.327 . S
C338 C326 1.349 . S
C338 H332 0.950 . S
C338 C339 1.327 . S
C339 H333 0.950 . S
C339 C338 1.327 . S
C339 C343 1.429 . S
C340 C323 1.574 . S
C340 H334 0.949 . S
C340 C344 1.368 . S
C341 C322 1.429 . S
C341 C335 1.429 . S
C341 C342 1.523 . S
C342 C323 1.368 . S
C342 C336 1.368 . S
C342 C341 1.523 . S
C343 C327 1.429 . S
C343 C339 1.429 . S
C343 C344 1.523 . S
C344 C328 1.368 . S
C344 C340 1.368 . S
C344 C343 1.523 . S
H345 C320 0.950 1_554 S
H346 C322 0.950 . S
H347 C323 0.949 . S
H348 C325 0.950 . S
H349 C327 0.950 . S
C350 C351 1.349 . S
C350 C352 1.327 . S
C350 H375 0.950 . S
C351 C350 1.349 . S
C351 C367 1.349 . S
C352 C350 1.327 . S
C352 C371 1.429 . S
C352 H376 0.950 . S
C353 C370 1.574 . S
C353 C372 1.368 . S
C353 H377 0.949 . S
H354 C358 0.949 . S
C355 C356 1.349 . S
C355 C357 1.327 1_556 S
C355 H378 0.950 . S
C356 C355 1.349 . S
C356 C368 1.349 1_556 S
C357 C355 1.327 1_554 S
C357 C373 1.429 . S
C357 H379 0.950 . S
C358 H354 0.949 . S
C358 C366 1.574 . S
C358 C374 1.368 . S
H359 C367 0.950 . S
H360 C365 0.950 . S
H361 C366 0.949 . S
H362 C368 0.950 . S
H363 C369 0.950 . S
H364 C370 0.949 . S
C365 H360 0.950 . S
C365 C367 1.327 . S
C365 C371 1.429 . S
C366 C358 1.574 . S
C366 H361 0.949 . S
C366 C372 1.368 . S
C367 C351 1.349 . S
C367 H359 0.950 . S
C367 C365 1.327 . S
C368 C356 1.349 1_554 S
C368 H362 0.950 . S
C368 C369 1.327 . S
C369 H363 0.950 . S
C369 C368 1.327 . S
C369 C373 1.429 . S
C370 C353 1.574 . S
C370 H364 0.949 . S
C370 C374 1.368 . S
C371 C352 1.429 . S
C371 C365 1.429 . S
C371 C372 1.523 . S
C372 C353 1.368 . S
C372 C366 1.368 . S
C372 C371 1.523 . S
C373 C357 1.429 . S
C373 C369 1.429 . S
C373 C374 1.523 . S
C374 C358 1.368 . S
C374 C370 1.368 . S
C374 C373 1.523 . S
H375 C350 0.950 . S
H376 C352 0.950 . S
H377 C353 0.949 . S
H378 C355 0.950 . S
H379 C357 0.950 . S
C380 C381 1.349 . S
C380 C382 1.327 . S
C380 H405 0.950 . S
C381 C380 1.349 . S
C381 C397 1.349 . S
C382 C380 1.327 . S
C382 C401 1.429 . S
C382 H406 0.950 . S
C383 C400 1.574 . S
C383 C402 1.368 . S
C383 H407 0.949 . S
H384 C388 0.949 . S
C385 C386 1.349 . S
C385 C387 1.327 . S
C385 H408 0.950 . S
C386 C385 1.349 . S
C386 C398 1.349 . S
C387 C385 1.327 . S
C387 C403 1.429 . S
C387 H409 0.950 . S
C388 H384 0.949 . S
C388 C396 1.574 . S
C388 C404 1.368 . S
H389 C397 0.950 . S
H390 C395 0.950 . S
H391 C396 0.949 . S
H392 C398 0.950 . S
H393 C399 0.950 . S
H394 C400 0.949 . S
C395 H390 0.950 . S
C395 C397 1.327 . S
C395 C401 1.429 . S
C396 C388 1.574 . S
C396 H391 0.949 . S
C396 C402 1.368 . S
C397 C381 1.349 . S
C397 H389 0.950 . S
C397 C395 1.327 . S
C398 C386 1.349 . S
C398 H392 0.950 . S
C398 C399 1.327 . S
C399 H393 0.950 . S
C399 C398 1.327 . S
C399 C403 1.429 . S
C400 C383 1.574 . S
C400 H394 0.949 . S
C400 C404 1.368 . S
C401 C382 1.429 . S
C401 C395 1.429 . S
C401 C402 1.523 . S
C402 C383 1.368 . S
C402 C396 1.368 . S
C402 C401 1.523 . S
C403 C387 1.429 . S
C403 C399 1.429 . S
C403 C404 1.523 . S
C404 C388 1.368 . S
C404 C400 1.368 . S
C404 C403 1.523 . S
H405 C380 0.950 . S
H406 C382 0.950 . S
H407 C383 0.949 . S
H408 C385 0.950 . S
H409 C387 0.950 . S
C410 C411 1.349 . S
C410 C412 1.327 . S
C410 H435 0.950 . S
C411 C410 1.349 . S
C411 C427 1.349 . S
C412 C410 1.327 . S
C412 C431 1.429 . S
C412 H436 0.950 . S
C413 C430 1.574 . S
C413 C432 1.368 . S
C413 H437 0.949 . S
H414 C418 0.949 . S
C415 C416 1.349 . S
C415 C417 1.327 . S
C415 H438 0.950 . S
C416 C415 1.349 . S
C416 C428 1.349 . S
C417 C415 1.327 . S
C417 C433 1.429 . S
C417 H439 0.950 . S
C418 H414 0.949 . S
C418 C426 1.574 . S
C418 C434 1.368 . S
H419 C427 0.950 . S
H420 C425 0.950 . S
H421 C426 0.949 . S
H422 C428 0.950 . S
H423 C429 0.950 . S
H424 C430 0.949 . S
C425 H420 0.950 . S
C425 C427 1.327 . S
C425 C431 1.429 . S
C426 C418 1.574 . S
C426 H421 0.949 . S
C426 C432 1.368 . S
C427 C411 1.349 . S
C427 H419 0.950 . S
C427 C425 1.327 . S
C428 C416 1.349 . S
C428 H422 0.950 . S
C428 C429 1.327 . S
C429 H423 0.950 . S
C429 C428 1.327 . S
C429 C433 1.429 . S
C430 C413 1.574 . S
C430 H424 0.949 . S
C430 C434 1.368 . S
C431 C412 1.429 . S
C431 C425 1.429 . S
C431 C432 1.523 . S
C432 C413 1.368 . S
C432 C426 1.368 . S
C432 C431 1.523 . S
C433 C417 1.429 . S
C433 C429 1.429 . S
C433 C434 1.523 . S
C434 C418 1.368 . S
C434 C430 1.368 . S
C434 C433 1.523 . S
H435 C410 0.950 . S
H436 C412 0.950 . S
H437 C413 0.949 . S
H438 C415 0.950 . S
H439 C417 0.950 . S
C440 C441 1.349 . S
C440 C442 1.327 . S
C440 H465 0.950 . S
C441 C440 1.349 . S
C441 C457 1.349 . S
C442 C440 1.327 . S
C442 C461 1.429 . S
C442 H466 0.950 . S
C443 C460 1.574 . S
C443 C462 1.368 . S
C443 H467 0.949 . S
H444 C448 0.949 . S
C445 C446 1.349 . S
C445 C447 1.327 . S
C445 H468 0.950 . S
C446 C445 1.349 . S
C446 C458 1.349 . S
C447 C445 1.327 . S
C447 C463 1.429 1_455 S
C447 H469 0.950 . S
C448 H444 0.949 . S
C448 C456 1.574 . S
C448 C464 1.368 . S
H449 C457 0.950 . S
H450 C455 0.950 . S
H451 C456 0.949 . S
H452 C458 0.950 1_556 S
H453 C459 0.950 . S
H454 C460 0.947 . S
C455 H450 0.950 . S
C455 C457 1.327 . S
C455 C461 1.429 . S
C456 C448 1.574 . S
C456 H451 0.949 . S
C456 C462 1.368 . S
C457 C441 1.349 . S
C457 H449 0.950 . S
C457 C455 1.327 . S
C458 C446 1.349 . S
C458 H452 0.950 1_554 S
C458 C459 1.327 1_455 S
C459 H453 0.950 . S
C459 C458 1.327 1_655 S
C459 C463 1.429 . S
C460 C443 1.574 . S
C460 H454 0.947 . S
C460 C464 1.368 . S
C461 C442 1.429 . S
C461 C455 1.429 . S
C461 C462 1.523 . S
C462 C443 1.368 . S
C462 C456 1.368 . S
C462 C461 1.523 . S
C463 C447 1.429 1_655 S
C463 C459 1.429 . S
C463 C464 1.523 . S
C464 C448 1.368 . S
C464 C460 1.368 . S
C464 C463 1.523 . S
H465 C440 0.950 . S
H466 C442 0.950 . S
H467 C443 0.949 . S
H468 C445 0.950 . S
H469 C447 0.950 . S
C470 C471 1.349 . S
C470 C472 1.327 . S
C470 H495 0.950 . S
C471 C470 1.349 . S
C471 C487 1.349 . S
C472 C470 1.327 . S
C472 C491 1.429 . S
C472 H496 0.950 . S
C473 C490 1.574 . S
C473 C492 1.368 . S
C473 H497 0.949 . S
H474 C478 0.949 . S
C475 C476 1.349 . S
C475 C477 1.327 1_554 S
C475 H498 0.950 . S
C476 C475 1.349 . S
C476 C488 1.349 1_554 S
C477 C475 1.327 1_556 S
C477 C493 1.429 . S
C477 H499 0.950 . S
C478 H474 0.949 . S
C478 C486 1.574 . S
C478 C494 1.368 . S
H479 C487 0.950 . S
H480 C485 0.950 . S
H481 C486 0.949 . S
H482 C488 0.950 . S
H483 C489 0.950 . S
H484 C490 0.949 . S
C485 H480 0.950 . S
C485 C487 1.327 . S
C485 C491 1.429 . S
C486 C478 1.574 . S
C486 H481 0.949 . S
C486 C492 1.368 . S
C487 C471 1.349 . S
C487 H479 0.950 . S
C487 C485 1.327 . S
C488 C476 1.349 1_556 S
C488 H482 0.950 . S
C488 C489 1.327 . S
C489 H483 0.950 . S
C489 C488 1.327 . S
C489 C493 1.429 . S
C490 C473 1.574 . S
C490 H484 0.949 . S
C490 C494 1.368 . S
C491 C472 1.429 . S
C491 C485 1.429 . S
C491 C492 1.523 . S
C492 C473 1.368 . S
C492 C486 1.368 . S
C492 C491 1.523 . S
C493 C477 1.429 . S
C493 C489 1.429 . S
C493 C494 1.523 . S
C494 C478 1.368 . S
C494 C490 1.368 . S
C494 C493 1.523 . S
H495 C470 0.950 . S
H496 C472 0.950 . S
H497 C473 0.949 . S
H498 C475 0.950 . S
H499 C477 0.950 . S
C500 C501 1.349 . S
C500 C502 1.327 . S
C500 H525 0.950 . S
C501 C500 1.349 . S
C501 C517 1.349 . S
C502 C500 1.327 . S
C502 C521 1.429 . S
C502 H526 0.950 . S
C503 C520 1.574 . S
C503 C522 1.368 . S
C503 H527 0.949 . S
H504 C508 0.949 . S
C505 C506 1.349 . S
C505 C507 1.327 . S
C505 H528 0.950 . S
C506 C505 1.349 . S
C506 C518 1.349 . S
C507 C505 1.327 . S
C507 C523 1.429 . S
C507 H529 0.950 . S
C508 H504 0.949 . S
C508 C516 1.574 . S
C508 C524 1.368 . S
H509 C517 0.950 . S
H510 C515 0.950 . S
H511 C516 0.949 . S
H512 C518 0.950 . S
H513 C519 0.950 . S
H514 C520 0.949 . S
C515 H510 0.950 . S
C515 C517 1.327 . S
C515 C521 1.429 . S
C516 C508 1.574 . S
C516 H511 0.949 . S
C516 C522 1.368 . S
C517 C501 1.349 . S
C517 H509 0.950 . S
C517 C515 1.327 . S
C518 C506 1.349 . S
C518 H512 0.950 . S
C518 C519 1.327 . S
C519 H513 0.950 . S
C519 C518 1.327 . S
C519 C523 1.429 . S
C520 C503 1.574 . S
C520 H514 0.949 . S
C520 C524 1.368 . S
C521 C502 1.429 . S
C521 C515 1.429 . S
C521 C522 1.523 . S
C522 C503 1.368 . S
C522 C516 1.368 . S
C522 C521 1.523 . S
C523 C507 1.429 . S
C523 C519 1.429 . S
C523 C524 1.523 . S
C524 C508 1.368 . S
C524 C520 1.368 . S
C524 C523 1.523 . S
H525 C500 0.950 . S
H526 C502 0.950 . S
H527 C503 0.949 . S
H528 C505 0.950 . S
H529 C507 0.950 . S
C530 C531 1.349 . S
C530 C532 1.327 . S
C530 H555 0.950 . S
C531 C530 1.349 . S
C531 C547 1.349 . S
C532 C530 1.327 . S
C532 C551 1.429 . S
C532 H556 0.950 . S
C533 C550 1.574 . S
C533 C552 1.368 . S
C533 H557 0.949 . S
H534 C538 0.949 . S
C535 C536 1.349 . S
C535 C537 1.327 . S
C535 H558 0.950 . S
C536 C535 1.349 . S
C536 C548 1.349 . S
C537 C535 1.327 . S
C537 C553 1.429 . S
C537 H559 0.950 . S
C538 H534 0.949 . S
C538 C546 1.574 . S
C538 C554 1.368 . S
H539 C547 0.950 . S
H540 C545 0.950 . S
H541 C546 0.949 . S
H542 C548 0.950 . S
H543 C549 0.950 . S
H544 C550 0.949 . S
C545 H540 0.950 . S
C545 C547 1.327 . S
C545 C551 1.429 . S
C546 C538 1.574 . S
C546 H541 0.949 . S
C546 C552 1.368 . S
C547 C531 1.349 . S
C547 H539 0.950 . S
C547 C545 1.327 . S
C548 C536 1.349 . S
C548 H542 0.950 . S
C548 C549 1.327 . S
C549 H543 0.950 . S
C549 C548 1.327 . S
C549 C553 1.429 . S
C550 C533 1.574 . S
C550 H544 0.949 . S
C550 C554 1.368 . S
C551 C532 1.429 . S
C551 C545 1.429 . S
C551 C552 1.523 . S
C552 C533 1.368 . S
C552 C546 1.368 . S
C552 C551 1.523 . S
C553 C537 1.429 . S
C553 C549 1.429 . S
C553 C554 1.523 . S
C554 C538 1.368 . S
C554 C550 1.368 . S
C554 C553 1.523 . S
H555 C530 0.950 . S
H556 C532 0.950 . S
H557 C533 0.949 . S
H558 C535 0.950 . S
H559 C537 0.950 . S
C560 C561 1.349 . S
C560 C562 1.327 . S
C560 H585 0.950 . S
C561 C560 1.349 . S
C561 C577 1.349 . S
C562 C560 1.327 . S
C562 C581 1.429 . S
C562 H586 0.950 . S
C563 C580 1.574 . S
C563 C582 1.368 . S
C563 H587 0.949 . S
H564 C568 0.949 . S
C565 C566 1.349 . S
C565 C567 1.327 . S
C565 H588 0.950 . S
C566 C565 1.349 . S
C566 C578 1.349 . S
C567 C565 1.327 . S
C567 C583 1.429 . S
C567 H589 0.950 . S
C568 H564 0.949 . S
C568 C576 1.574 . S
C568 C584 1.368 . S
H569 C577 0.950 . S
H570 C575 0.950 . S
H571 C576 0.949 . S
H572 C578 0.950 . S
H573 C579 0.950 . S
H574 C580 0.949 . S
C575 H570 0.950 . S
C575 C577 1.327 . S
C575 C581 1.429 . S
C576 C568 1.574 . S
C576 H571 0.949 . S
C576 C582 1.368 . S
C577 C561 1.349 . S
C577 H569 0.950 . S
C577 C575 1.327 . S
C578 C566 1.349 . S
C578 H572 0.950 . S
C578 C579 1.327 . S
C579 H573 0.950 . S
C579 C578 1.327 . S
C579 C583 1.429 . S
C580 C563 1.574 . S
C580 H574 0.949 . S
C580 C584 1.368 . S
C581 C562 1.429 . S
C581 C575 1.429 . S
C581 C582 1.523 . S
C582 C563 1.368 . S
C582 C576 1.368 . S
C582 C581 1.523 . S
C583 C567 1.429 . S
C583 C579 1.429 . S
C583 C584 1.523 . S
C584 C568 1.368 . S
C584 C580 1.368 . S
C584 C583 1.523 . S
H585 C560 0.950 . S
H586 C562 0.950 . S
H587 C563 0.949 . S
H588 C565 0.950 . S
H589 C567 0.950 . S
C590 C591 1.349 . S
C590 C592 1.327 . S
C590 H615 0.950 . S
C591 C590 1.349 . S
C591 C607 1.349 . S
C592 C590 1.327 . S
C592 C611 1.429 . S
C592 H616 0.950 . S
C593 C610 1.574 . S
C593 C612 1.368 . S
C593 H617 0.949 . S
H594 C598 0.949 . S
C595 C596 1.349 . S
C595 C597 1.327 . S
C595 H618 0.950 . S
C596 C595 1.349 . S
C596 C608 1.349 . S
C597 C595 1.327 . S
C597 C613 1.429 . S
C597 H619 0.950 . S
C598 H594 0.949 . S
C598 C606 1.574 . S
C598 C614 1.368 . S
H599 C607 0.950 . S
H600 C605 0.950 . S
H601 C606 0.949 . S
H602 C608 0.950 . S
H603 C609 0.950 . S
H604 C610 0.949 . S
C605 H600 0.950 . S
C605 C607 1.327 . S
C605 C611 1.429 . S
C606 C598 1.574 . S
C606 H601 0.949 . S
C606 C612 1.368 . S
C607 C591 1.349 . S
C607 H599 0.950 . S
C607 C605 1.327 . S
C608 C596 1.349 . S
C608 H602 0.950 . S
C608 C609 1.327 . S
C609 H603 0.950 . S
C609 C608 1.327 . S
C609 C613 1.429 . S
C610 C593 1.574 . S
C610 H604 0.949 . S
C610 C614 1.368 . S
C611 C592 1.429 . S
C611 C605 1.429 . S
C611 C612 1.523 . S
C612 C593 1.368 . S
C612 C606 1.368 . S
C612 C611 1.523 . S
C613 C597 1.429 . S
C613 C609 1.429 . S
C613 C614 1.523 . S
C614 C598 1.368 . S
C614 C610 1.368 . S
C614 C613 1.523 . S
H615 C590 0.950 . S
H616 C592 0.950 . S
H617 C593 0.949 . S
H618 C595 0.950 . S
H619 C597 0.950 . S
C620 C621 1.349 . S
C620 C622 1.327 . S
C620 H645 0.950 . S
C621 C620 1.349 . S
C621 C637 1.349 . S
C622 C620 1.327 . S
C622 C641 1.429 1_455 S
C622 H646 0.950 . S
C623 C640 1.574 . S
C623 C642 1.368 . S
C623 H647 0.949 . S
H624 C628 0.949 . S
C625 C626 1.349 . S
C625 C627 1.327 . S
C625 H648 0.950 . S
C626 C625 1.349 . S
C626 C638 1.349 . S
C627 C625 1.327 . S
C627 C643 1.429 . S
C627 H649 0.950 . S
C628 H624 0.949 . S
C628 C636 1.574 . S
C628 C644 1.368 . S
H629 C637 0.950 1_554 S
H630 C635 0.949 1_655 S
H631 C636 0.949 . S
H632 C638 0.950 . S
H633 C639 0.950 . S
H634 C640 0.949 . S
C635 H630 0.949 1_455 S
C635 C637 1.328 . S
C635 C641 1.428 1_455 S
C636 C628 1.574 . S
C636 H631 0.949 . S
C636 C642 1.368 . S
C637 C621 1.349 . S
C637 H629 0.950 1_556 S
C637 C635 1.328 . S
C638 C626 1.349 . S
C638 H632 0.950 . S
C638 C639 1.327 . S
C639 H633 0.950 . S
C639 C638 1.327 . S
C639 C643 1.429 . S
C640 C623 1.574 . S
C640 H634 0.949 . S
C640 C644 1.368 . S
C641 C622 1.429 1_655 S
C641 C635 1.428 1_655 S
C641 C642 1.523 . S
C642 C623 1.368 . S
C642 C636 1.368 . S
C642 C641 1.523 . S
C643 C627 1.429 . S
C643 C639 1.429 . S
C643 C644 1.523 . S
C644 C628 1.368 . S
C644 C640 1.368 . S
C644 C643 1.523 . S
H645 C620 0.950 . S
H646 C622 0.950 . S
H647 C623 0.949 . S
H648 C625 0.950 . S
H649 C627 0.950 . S
C650 C651 1.349 . S
C650 C652 1.327 . S
C650 H675 0.950 . S
C651 C650 1.349 . S
C651 C667 1.349 . S
C652 C650 1.327 . S
C652 C671 1.429 . S
C652 H676 0.950 . S
C653 C670 1.574 . S
C653 C672 1.368 . S
C653 H677 0.949 . S
H654 C658 0.949 . S
C655 C656 1.349 1_554 S
C655 C657 1.327 . S
C655 H678 0.950 . S
C656 C655 1.349 1_556 S
C656 C668 1.349 . S
C657 C655 1.327 . S
C657 C673 1.429 . S
C657 H679 0.950 . S
C658 H654 0.949 . S
C658 C666 1.574 . S
C658 C674 1.368 . S
H659 C667 0.950 . S
H660 C665 0.950 . S
H661 C666 0.949 . S
H662 C668 0.950 . S
H663 C669 0.950 . S
H664 C670 0.949 . S
C665 H660 0.950 . S
C665 C667 1.327 . S
C665 C671 1.429 . S
C666 C658 1.574 . S
C666 H661 0.949 . S
C666 C672 1.368 . S
C667 C651 1.349 . S
C667 H659 0.950 . S
C667 C665 1.327 . S
C668 C656 1.349 . S
C668 H662 0.950 . S
C668 C669 1.327 1_556 S
C669 H663 0.950 . S
C669 C668 1.327 1_554 S
C669 C673 1.429 . S
C670 C653 1.574 . S
C670 H664 0.949 . S
C670 C674 1.368 . S
C671 C652 1.429 . S
C671 C665 1.429 . S
C671 C672 1.523 . S
C672 C653 1.368 . S
C672 C666 1.368 . S
C672 C671 1.523 . S
C673 C657 1.429 . S
C673 C669 1.429 . S
C673 C674 1.523 . S
C674 C658 1.368 . S
C674 C670 1.368 . S
C674 C673 1.523 . S
H675 C650 0.950 . S
H676 C652 0.950 . S
H677 C653 0.949 . S
H678 C655 0.950 . S
H679 C657 0.950 . S
C680 C681 1.349 . S
C680 C682 1.327 . S
C680 H705 0.950 . S
C681 C680 1.349 . S
C681 C697 1.349 . S
C682 C680 1.327 . S
C682 C701 1.429 . S
C682 H706 0.950 . S
C683 C700 1.574 . S
C683 C702 1.368 . S
C683 H707 0.949 . S
H684 C688 0.949 . S
C685 C686 1.349 . S
C685 C687 1.327 . S
C685 H708 0.950 . S
C686 C685 1.349 . S
C686 C698 1.349 . S
C687 C685 1.327 . S
C687 C703 1.429 . S
C687 H709 0.950 . S
C688 H684 0.949 . S
C688 C696 1.574 . S
C688 C704 1.368 . S
H689 C697 0.950 . S
H690 C695 0.950 . S
H691 C696 0.949 . S
H692 C698 0.950 . S
H693 C699 0.950 . S
H694 C700 0.949 . S
C695 H690 0.950 . S
C695 C697 1.327 . S
C695 C701 1.429 . S
C696 C688 1.574 . S
C696 H691 0.949 . S
C696 C702 1.368 . S
C697 C681 1.349 . S
C697 H689 0.950 . S
C697 C695 1.327 . S
C698 C686 1.349 . S
C698 H692 0.950 . S
C698 C699 1.327 . S
C699 H693 0.950 . S
C699 C698 1.327 . S
C699 C703 1.429 . S
C700 C683 1.574 . S
C700 H694 0.949 . S
C700 C704 1.368 . S
C701 C682 1.429 . S
C701 C695 1.429 . S
C701 C702 1.523 . S
C702 C683 1.368 . S
C702 C696 1.368 . S
C702 C701 1.523 . S
C703 C687 1.429 . S
C703 C699 1.429 . S
C703 C704 1.523 . S
C704 C688 1.368 . S
C704 C700 1.368 . S
C704 C703 1.523 . S
H705 C680 0.950 . S
H706 C682 0.950 . S
H707 C683 0.949 . S
H708 C685 0.950 . S
H709 C687 0.950 . S
C710 C711 1.349 . S
C710 C712 1.327 . S
C710 H735 0.950 . S
C711 C710 1.349 . S
C711 C727 1.349 . S
C712 C710 1.327 . S
C712 C731 1.429 . S
C712 H736 0.950 . S
C713 C730 1.574 . S
C713 C732 1.368 . S
C713 H737 0.949 . S
H714 C718 0.949 . S
C715 C716 1.349 . S
C715 C717 1.327 . S
C715 H738 0.950 . S
C716 C715 1.349 . S
C716 C728 1.349 . S
C717 C715 1.327 . S
C717 C733 1.429 . S
C717 H739 0.950 . S
C718 H714 0.949 . S
C718 C726 1.574 . S
C718 C734 1.368 . S
H719 C727 0.950 . S
H720 C725 0.950 . S
H721 C726 0.949 . S
H722 C728 0.950 . S
H723 C729 0.950 . S
H724 C730 0.949 . S
C725 H720 0.950 . S
C725 C727 1.327 . S
C725 C731 1.429 . S
C726 C718 1.574 . S
C726 H721 0.949 . S
C726 C732 1.368 . S
C727 C711 1.349 . S
C727 H719 0.950 . S
C727 C725 1.327 . S
C728 C716 1.349 . S
C728 H722 0.950 . S
C728 C729 1.327 . S
C729 H723 0.950 . S
C729 C728 1.327 . S
C729 C733 1.429 . S
C730 C713 1.574 . S
C730 H724 0.949 . S
C730 C734 1.368 . S
C731 C712 1.429 . S
C731 C725 1.429 . S
C731 C732 1.523 . S
C732 C713 1.368 . S
C732 C726 1.368 . S
C732 C731 1.523 . S
C733 C717 1.429 . S
C733 C729 1.429 . S
C733 C734 1.523 . S
C734 C718 1.368 . S
C734 C730 1.368 . S
C734 C733 1.523 . S
H735 C710 0.950 . S
H736 C712 0.950 . S
H737 C713 0.949 . S
H738 C715 0.950 . S
H739 C717 0.950 . S
C740 C741 1.349 . S
C740 C742 1.327 . S
C740 H765 0.950 . S
C741 C740 1.349 . S
C741 C757 1.349 . S
C742 C740 1.327 . S
C742 C761 1.429 . S
C742 H766 0.950 . S
C743 C760 1.574 . S
C743 C762 1.368 . S
C743 H767 0.949 . S
H744 C748 0.949 . S
C745 C746 1.349 . S
C745 C747 1.327 . S
C745 H768 0.950 . S
C746 C745 1.349 . S
C746 C758 1.349 . S
C747 C745 1.327 . S
C747 C763 1.429 . S
C747 H769 0.950 . S
C748 H744 0.949 . S
C748 C756 1.574 . S
C748 C764 1.368 . S
H749 C757 0.950 . S
H750 C755 0.950 . S
H751 C756 0.949 . S
H752 C758 0.950 1_556 S
H753 C759 0.950 . S
H754 C760 0.949 . S
C755 H750 0.950 . S
C755 C757 1.327 . S
C755 C761 1.429 . S
C756 C748 1.574 . S
C756 H751 0.949 . S
C756 C762 1.368 . S
C757 C741 1.349 . S
C757 H749 0.950 . S
C757 C755 1.327 . S
C758 C746 1.349 . S
C758 H752 0.950 1_554 S
C758 C759 1.327 . S
C759 H753 0.950 . S
C759 C758 1.327 . S
C759 C763 1.429 . S
C760 C743 1.574 . S
C760 H754 0.949 . S
C760 C764 1.368 . S
C761 C742 1.429 . S
C761 C755 1.429 . S
C761 C762 1.523 . S
C762 C743 1.368 . S
C762 C756 1.368 . S
C762 C761 1.523 . S
C763 C747 1.429 . S
C763 C759 1.429 . S
C763 C764 1.523 . S
C764 C748 1.368 . S
C764 C760 1.368 . S
C764 C763 1.523 . S
H765 C740 0.950 . S
H766 C742 0.950 . S
H767 C743 0.949 . S
H768 C745 0.950 . S
H769 C747 0.950 . S
C770 C771 1.349 . S
C770 C772 1.327 . S
C770 H795 0.950 . S
C771 C770 1.349 . S
C771 C787 1.349 . S
C772 C770 1.327 . S
C772 C791 1.429 . S
C772 H796 0.950 . S
C773 C790 1.574 . S
C773 C792 1.368 . S
C773 H797 0.949 . S
H774 C778 0.949 . S
C775 C776 1.349 . S
C775 C777 1.327 1_554 S
C775 H798 0.950 . S
C776 C775 1.349 . S
C776 C788 1.349 1_554 S
C777 C775 1.327 1_556 S
C777 C793 1.429 . S
C777 H799 0.950 . S
C778 H774 0.949 . S
C778 C786 1.574 . S
C778 C794 1.368 . S
H779 C787 0.950 . S
H780 C785 0.950 . S
H781 C786 0.949 . S
H782 C788 0.950 . S
H783 C789 0.950 . S
H784 C790 0.949 . S
C785 H780 0.950 . S
C785 C787 1.327 . S
C785 C791 1.429 . S
C786 C778 1.574 . S
C786 H781 0.949 . S
C786 C792 1.368 . S
C787 C771 1.349 . S
C787 H779 0.950 . S
C787 C785 1.327 . S
C788 C776 1.349 1_556 S
C788 H782 0.950 . S
C788 C789 1.327 . S
C789 H783 0.950 . S
C789 C788 1.327 . S
C789 C793 1.429 . S
C790 C773 1.574 . S
C790 H784 0.949 . S
C790 C794 1.368 . S
C791 C772 1.429 . S
C791 C785 1.429 . S
C791 C792 1.523 . S
C792 C773 1.368 . S
C792 C786 1.368 . S
C792 C791 1.523 . S
C793 C777 1.429 . S
C793 C789 1.429 . S
C793 C794 1.523 . S
C794 C778 1.368 . S
C794 C790 1.368 . S
C794 C793 1.523 . S
H795 C770 0.950 . S
H796 C772 0.950 . S
H797 C773 0.949 . S
H798 C775 0.950 . S
H799 C777 0.950 . S
C800 C801 1.349 . S
C800 C802 1.327 . S
C800 H825 0.950 . S
C801 C800 1.349 . S
C801 C817 1.349 . S
C802 C800 1.327 . S
C802 C821 1.429 . S
C802 H826 0.950 . S
C803 C820 1.574 . S
C803 C822 1.368 . S
C803 H827 0.949 . S
H804 C808 0.949 . S
C805 C806 1.349 . S
C805 C807 1.327 . S
C805 H828 0.950 . S
C806 C805 1.349 . S
C806 C818 1.349 1_455 S
C807 C805 1.327 . S
C807 C823 1.429 . S
C807 H829 0.950 . S
C808 H804 0.949 . S
C808 C816 1.574 . S
C808 C824 1.368 . S
H809 C817 0.950 . S
H810 C815 0.950 . S
H811 C816 0.949 . S
H812 C818 0.950 . S
H813 C819 0.950 1_655 S
H814 C820 0.949 . S
C815 H810 0.950 . S
C815 C817 1.327 . S
C815 C821 1.429 . S
C816 C808 1.574 . S
C816 H811 0.949 . S
C816 C822 1.368 . S
C817 C801 1.349 . S
C817 H809 0.950 . S
C817 C815 1.327 . S
C818 C806 1.349 1_655 S
C818 H812 0.950 . S
C818 C819 1.327 1_655 S
C819 H813 0.950 1_455 S
C819 C818 1.327 1_455 S
C819 C823 1.429 . S
C820 C803 1.574 . S
C820 H814 0.949 . S
C820 C824 1.368 . S
C821 C802 1.429 . S
C821 C815 1.429 . S
C821 C822 1.523 . S
C822 C803 1.368 . S
C822 C816 1.368 . S
C822 C821 1.523 . S
C823 C807 1.429 . S
C823 C819 1.429 . S
C823 C824 1.523 . S
C824 C808 1.368 . S
C824 C820 1.368 . S
C824 C823 1.523 . S
H825 C800 0.950 . S
H826 C802 0.950 . S
H827 C803 0.949 . S
H828 C805 0.950 . S
H829 C807 0.950 . S
C830 C831 1.349 . S
C830 C832 1.327 . S
C830 H855 0.950 . S
C831 C830 1.349 . S
C831 C847 1.349 . S
C832 C830 1.327 . S
C832 C851 1.429 . S
C832 H856 0.950 . S
C833 C850 1.574 . S
C833 C852 1.368 . S
C833 H857 0.949 . S
H834 C838 0.949 . S
C835 C836 1.349 . S
C835 C837 1.327 . S
C835 H858 0.950 . S
C836 C835 1.349 . S
C836 C848 1.349 . S
C837 C835 1.327 . S
C837 C853 1.429 . S
C837 H859 0.950 . S
C838 H834 0.949 . S
C838 C846 1.574 . S
C838 C854 1.368 . S
H839 C847 0.950 . S
H840 C845 0.950 . S
H841 C846 0.949 . S
H842 C848 0.950 . S
H843 C849 0.950 . S
H844 C850 0.949 . S
C845 H840 0.950 . S
C845 C847 1.327 . S
C845 C851 1.429 . S
C846 C838 1.574 . S
C846 H841 0.949 . S
C846 C852 1.368 . S
C847 C831 1.349 . S
C847 H839 0.950 . S
C847 C845 1.327 . S
C848 C836 1.349 . S
C848 H842 0.950 . S
C848 C849 1.327 . S
C849 H843 0.950 . S
C849 C848 1.327 . S
C849 C853 1.429 . S
C850 C833 1.574 . S
C850 H844 0.949 . S
C850 C854 1.368 . S
C851 C832 1.429 . S
C851 C845 1.429 . S
C851 C852 1.523 1_655 S
C852 C833 1.368 . S
C852 C846 1.368 . S
C852 C851 1.523 1_455 S
C853 C837 1.429 . S
C853 C849 1.429 . S
C853 C854 1.523 . S
C854 C838 1.368 . S
C854 C850 1.368 . S
C854 C853 1.523 . S
H855 C830 0.950 . S
H856 C832 0.950 . S
H857 C833 0.949 . S
H858 C835 0.950 . S
H859 C837 0.950 . S
C860 C861 1.349 . S
C860 C862 1.327 . S
C860 H885 0.950 . S
C861 C860 1.349 . S
C861 C877 1.349 . S
C862 C860 1.327 . S
C862 C881 1.429 . S
C862 H886 0.950 . S
C863 C880 1.574 . S
C863 C882 1.368 . S
C863 H887 0.949 . S
H864 C868 0.949 . S
C865 C866 1.349 . S
C865 C867 1.327 . S
C865 H888 0.950 . S
C866 C865 1.349 . S
C866 C878 1.349 . S
C867 C865 1.327 . S
C867 C883 1.429 . S
C867 H889 0.950 . S
C868 H864 0.949 . S
C868 C876 1.574 . S
C868 C884 1.368 . S
H869 C877 0.950 . S
H870 C875 0.950 . S
H871 C876 0.949 . S
H872 C878 0.950 . S
H873 C879 0.950 . S
H874 C880 0.949 . S
C875 H870 0.950 . S
C875 C877 1.327 . S
C875 C881 1.429 . S
C876 C868 1.574 . S
C876 H871 0.949 . S
C876 C882 1.368 . S
C877 C861 1.349 . S
C877 H869 0.950 . S
C877 C875 1.327 . S
C878 C866 1.349 . S
C878 H872 0.950 . S
C878 C879 1.327 . S
C879 H873 0.950 . S
C879 C878 1.327 . S
C879 C883 1.429 . S
C880 C863 1.574 . S
C880 H874 0.949 . S
C880 C884 1.368 . S
C881 C862 1.429 . S
C881 C875 1.429 . S
C881 C882 1.523 . S
C882 C863 1.368 . S
C882 C876 1.368 . S
C882 C881 1.523 . S
C883 C867 1.429 . S
C883 C879 1.429 . S
C883 C884 1.523 . S
C884 C868 1.368 . S
C884 C880 1.368 . S
C884 C883 1.523 . S
H885 C860 0.950 . S
H886 C862 0.950 . S
H887 C863 0.949 . S
H888 C865 0.950 . S
H889 C867 0.950 . S
C890 C891 1.349 . S
C890 C892 1.327 . S
C890 H915 0.950 . S
C891 C890 1.349 . S
C891 C907 1.349 . S
C892 C890 1.327 . S
C892 C911 1.429 . S
C892 H916 0.950 . S
C893 C910 1.574 . S
C893 C912 1.368 . S
C893 H917 0.949 . S
H894 C898 0.949 . S
C895 C896 1.349 . S
C895 C897 1.327 . S
C895 H918 0.950 . S
C896 C895 1.349 . S
C896 C908 1.349 . S
C897 C895 1.327 . S
C897 C913 1.429 . S
C897 H919 0.950 . S
C898 H894 0.949 . S
C898 C906 1.574 . S
C898 C914 1.368 . S
H899 C907 0.950 . S
H900 C905 0.950 . S
H901 C906 0.949 . S
H902 C908 0.950 . S
H903 C909 0.950 . S
H904 C910 0.949 . S
C905 H900 0.950 . S
C905 C907 1.327 . S
C905 C911 1.429 . S
C906 C898 1.574 . S
C906 H901 0.949 . S
C906 C912 1.368 . S
C907 C891 1.349 . S
C907 H899 0.950 . S
C907 C905 1.327 . S
C908 C896 1.349 . S
C908 H902 0.950 . S
C908 C909 1.327 . S
C909 H903 0.950 . S
C909 C908 1.327 . S
C909 C913 1.429 . S
C910 C893 1.574 . S
C910 H904 0.949 . S
C910 C914 1.368 . S
C911 C892 1.429 . S
C911 C905 1.429 . S
C911 C912 1.523 . S
C912 C893 1.368 . S
C912 C906 1.368 . S
C912 C911 1.523 . S
C913 C897 1.429 . S
C913 C909 1.429 . S
C913 C914 1.523 . S
C914 C898 1.368 . S
C914 C910 1.368 . S
C914 C913 1.523 . S
H915 C890 0.950 . S
H916 C892 0.950 . S
H917 C893 0.949 . S
H918 C895 0.950 . S
H919 C897 0.950 . S
C920 C921 1.349 . S
C920 C922 1.327 . S
C920 H945 0.950 . S
C921 C920 1.349 . S
C921 C937 1.349 . S
C922 C920 1.327 . S
C922 C941 1.429 . S
C922 H946 0.950 . S
C923 C940 1.574 . S
C923 C942 1.368 . S
C923 H947 0.949 . S
H924 C928 0.949 . S
C925 C926 1.349 1_655 S
C925 C927 1.327 1_655 S
C925 H948 0.950 . S
C926 C925 1.349 1_455 S
C926 C938 1.349 . S
C927 C925 1.327 1_455 S
C927 C943 1.429 . S
C927 H949 0.950 1_455 S
C928 H924 0.949 . S
C928 C936 1.574 . S
C928 C944 1.368 . S
H929 C937 0.950 . S
H930 C935 0.950 . S
H931 C936 0.949 . S
H932 C938 0.950 . S
H933 C939 0.950 . S
H934 C940 0.949 . S
C935 H930 0.950 . S
C935 C937 1.327 . S
C935 C941 1.429 . S
C936 C928 1.574 . S
C936 H931 0.949 . S
C936 C942 1.368 . S
C937 C921 1.349 . S
C937 H929 0.950 . S
C937 C935 1.327 . S
C938 C926 1.349 . S
C938 H932 0.950 . S
C938 C939 1.327 . S
C939 H933 0.950 . S
C939 C938 1.327 . S
C939 C943 1.429 . S
C940 C923 1.574 . S
C940 H934 0.949 . S
C940 C944 1.368 . S
C941 C922 1.429 . S
C941 C935 1.429 . S
C941 C942 1.523 . S
C942 C923 1.368 . S
C942 C936 1.368 . S
C942 C941 1.523 . S
C943 C927 1.429 . S
C943 C939 1.429 . S
C943 C944 1.523 . S
C944 C928 1.368 . S
C944 C940 1.368 . S
C944 C943 1.523 . S
H945 C920 0.950 . S
H946 C922 0.950 . S
H947 C923 0.949 . S
H948 C925 0.950 . S
H949 C927 0.950 1_655 S
C950 C951 1.349 . S
C950 C952 1.327 . S
C950 H975 0.950 . S
C951 C950 1.349 . S
C951 C967 1.349 . S
C952 C950 1.327 . S
C952 C971 1.429 . S
C952 H976 0.950 . S
C953 C970 1.574 . S
C953 C972 1.368 . S
C953 H977 0.949 . S
H954 C958 0.949 . S
C955 C956 1.349 . S
C955 C957 1.327 . S
C955 H978 0.950 . S
C956 C955 1.349 . S
C956 C968 1.349 . S
C957 C955 1.327 . S
C957 C973 1.429 . S
C957 H979 0.950 . S
C958 H954 0.949 . S
C958 C966 1.574 . S
C958 C974 1.368 . S
H959 C967 0.950 . S
H960 C965 0.950 . S
H961 C966 0.949 . S
H962 C968 0.950 . S
H963 C969 0.950 . S
H964 C970 0.949 . S
C965 H960 0.950 . S
C965 C967 1.327 . S
C965 C971 1.429 . S
C966 C958 1.574 . S
C966 H961 0.949 . S
C966 C972 1.368 . S
C967 C951 1.349 . S
C967 H959 0.950 . S
C967 C965 1.327 . S
C968 C956 1.349 . S
C968 H962 0.950 . S
C968 C969 1.327 . S
C969 H963 0.950 . S
C969 C968 1.327 . S
C969 C973 1.429 . S
C970 C953 1.574 . S
C970 H964 0.949 . S
C970 C974 1.368 . S
C971 C952 1.429 . S
C971 C965 1.429 . S
C971 C972 1.523 . S
C972 C953 1.368 . S
C972 C966 1.368 . S
C972 C971 1.523 . S
C973 C957 1.429 . S
C973 C969 1.429 . S
C973 C974 1.523 . S
C974 C958 1.368 . S
C974 C970 1.368 . S
C974 C973 1.523 . S
H975 C950 0.950 . S
H976 C952 0.950 . S
H977 C953 0.949 . S
H978 C955 0.950 . S
H979 C957 0.950 . S
C980 C981 1.349 . S
C980 C982 1.327 . S
C980 H1005 0.950 . S
C981 C980 1.349 . S
C981 C997 1.349 . S
C982 C980 1.327 . S
C982 C1001 1.429 . S
C982 H1006 0.950 . S
C983 C1000 1.574 . S
C983 C1002 1.368 . S
C983 H1007 0.949 . S
H984 C988 0.949 . S
C985 C986 1.349 . S
C985 C987 1.327 . S
C985 H1008 0.950 . S
C986 C985 1.349 . S
C986 C998 1.349 . S
C987 C985 1.327 . S
C987 C1003 1.429 . S
C987 H1009 0.950 . S
C988 H984 0.949 . S
C988 C996 1.574 . S
C988 C1004 1.368 . S
H989 C997 0.950 . S
H990 C995 0.950 . S
H991 C996 0.949 . S
H992 C998 0.950 . S
H993 C999 0.950 . S
H994 C1000 0.949 . S
C995 H990 0.950 . S
C995 C997 1.327 . S
C995 C1001 1.429 . S
C996 C988 1.574 . S
C996 H991 0.949 . S
C996 C1002 1.368 . S
C997 C981 1.349 . S
C997 H989 0.950 . S
C997 C995 1.327 . S
C998 C986 1.349 . S
C998 H992 0.950 . S
C998 C999 1.327 . S
C999 H993 0.950 . S
C999 C998 1.327 . S
C999 C1003 1.429 . S
C1000 C983 1.574 . S
C1000 H994 0.949 . S
C1000 C1004 1.368 . S
C1001 C982 1.429 . S
C1001 C995 1.429 . S
C1001 C1002 1.523 . S
C1002 C983 1.368 . S
C1002 C996 1.368 . S
C1002 C1001 1.523 . S
C1003 C987 1.429 . S
C1003 C999 1.429 . S
C1003 C1004 1.523 . S
C1004 C988 1.368 . S
C1004 C1000 1.368 . S
C1004 C1003 1.523 . S
H1005 C980 0.950 . S
H1006 C982 0.950 . S
H1007 C983 0.949 . S
H1008 C985 0.950 . S
H1009 C987 0.950 . S
C1010 C1011 1.349 . S
C1010 C1012 1.327 . S
C1010 H1035 0.950 . S
C1011 C1010 1.349 . S
C1011 C1027 1.349 . S
C1012 C1010 1.327 . S
C1012 C1031 1.429 . S
C1012 H1036 0.950 . S
C1013 C1030 1.574 . S
C1013 C1032 1.368 . S
C1013 H1037 0.949 . S
H1014 C1018 0.949 . S
C1015 C1016 1.349 . S
C1015 C1017 1.327 . S
C1015 H1038 0.950 . S
C1016 C1015 1.349 . S
C1016 C1028 1.349 . S
C1017 C1015 1.327 . S
C1017 C1033 1.429 . S
C1017 H1039 0.950 . S
C1018 H1014 0.949 . S
C1018 C1026 1.574 . S
C1018 C1034 1.368 . S
H1019 C1027 0.950 . S
H1020 C1025 0.950 . S
H1021 C1026 0.949 . S
H1022 C1028 0.950 . S
H1023 C1029 0.950 . S
H1024 C1030 0.949 . S
C1025 H1020 0.950 . S
C1025 C1027 1.327 . S
C1025 C1031 1.429 . S
C1026 C1018 1.574 . S
C1026 H1021 0.949 . S
C1026 C1032 1.368 . S
C1027 C1011 1.349 . S
C1027 H1019 0.950 . S
C1027 C1025 1.327 . S
C1028 C1016 1.349 . S
C1028 H1022 0.950 . S
C1028 C1029 1.327 . S
C1029 H1023 0.950 . S
C1029 C1028 1.327 . S
C1029 C1033 1.429 . S
C1030 C1013 1.574 . S
C1030 H1024 0.949 . S
C1030 C1034 1.368 . S
C1031 C1012 1.429 . S
C1031 C1025 1.429 . S
C1031 C1032 1.523 . S
C1032 C1013 1.368 . S
C1032 C1026 1.368 . S
C1032 C1031 1.523 . S
C1033 C1017 1.429 . S
C1033 C1029 1.429 . S
C1033 C1034 1.523 1_655 S
C1034 C1018 1.368 . S
C1034 C1030 1.368 . S
C1034 C1033 1.523 1_455 S
H1035 C1010 0.950 . S
H1036 C1012 0.950 . S
H1037 C1013 0.949 . S
H1038 C1015 0.950 . S
H1039 C1017 0.950 . S
C1040 C1041 1.349 . S
C1040 C1042 1.327 . S
C1040 H1065 0.950 1_455 S
C1041 C1040 1.349 . S
C1041 C1057 1.349 . S
C1042 C1040 1.327 . S
C1042 C1061 1.429 . S
C1042 H1066 0.950 . S
C1043 C1060 1.574 . S
C1043 C1062 1.368 1_565 S
C1043 H1067 0.949 . S
H1044 C1048 0.949 . S
C1045 C1046 1.349 . S
C1045 C1047 1.327 . S
C1045 H1068 0.950 . S
C1046 C1045 1.349 . S
C1046 C1058 1.349 . S
C1047 C1045 1.327 . S
C1047 C1063 1.429 . S
C1047 H1069 0.950 . S
C1048 H1044 0.949 . S
C1048 C1056 1.574 . S
C1048 C1064 1.368 1_545 S
H1049 C1057 0.950 . S
H1050 C1055 0.950 . S
H1051 C1056 0.949 . S
H1052 C1058 0.950 . S
H1053 C1059 0.950 . S
H1054 C1060 0.949 . S
C1055 H1050 0.950 . S
C1055 C1057 1.327 . S
C1055 C1061 1.429 . S
C1056 C1048 1.574 . S
C1056 H1051 0.949 . S
C1056 C1062 1.368 1_556 S
C1057 C1041 1.349 . S
C1057 H1049 0.950 . S
C1057 C1055 1.327 . S
C1058 C1046 1.349 . S
C1058 H1052 0.950 . S
C1058 C1059 1.327 . S
C1059 H1053 0.950 . S
C1059 C1058 1.327 . S
C1059 C1063 1.429 . S
C1060 C1043 1.574 . S
C1060 H1054 0.949 . S
C1060 C1064 1.368 1_554 S
C1061 C1042 1.429 . S
C1061 C1055 1.429 . S
C1061 C1062 1.523 . S
C1062 C1043 1.368 1_545 S
C1062 C1056 1.368 1_554 S
C1062 C1061 1.523 . S
C1063 C1047 1.429 . S
C1063 C1059 1.429 . S
C1063 C1064 1.523 . S
C1064 C1048 1.368 1_565 S
C1064 C1060 1.368 1_556 S
C1064 C1063 1.523 . S
H1065 C1040 0.950 1_655 S
H1066 C1042 0.950 . S
H1067 C1043 0.949 . S
H1068 C1045 0.950 . S
H1069 C1047 0.950 . S
C1070 C1071 1.349 . S
C1070 C1072 1.327 . S
C1070 H1095 0.950 . S
C1071 C1070 1.349 . S
C1071 C1087 1.349 . S
C1072 C1070 1.327 . S
C1072 C1091 1.429 . S
C1072 H1096 0.950 . S
C1073 C1090 1.574 . S
C1073 C1092 1.368 . S
C1073 H1097 0.949 . S
H1074 C1078 0.949 . S
C1075 C1076 1.349 . S
C1075 C1077 1.327 . S
C1075 H1098 0.950 . S
C1076 C1075 1.349 . S
C1076 C1088 1.349 . S
C1077 C1075 1.327 . S
C1077 C1093 1.429 . S
C1077 H1099 0.950 . S
C1078 H1074 0.949 . S
C1078 C1086 1.574 . S
C1078 C1094 1.368 . S
H1079 C1087 0.950 . S
H1080 C1085 0.950 . S
H1081 C1086 0.949 . S
H1082 C1088 0.950 . S
H1083 C1089 0.950 . S
H1084 C1090 0.949 . S
C1085 H1080 0.950 . S
C1085 C1087 1.327 . S
C1085 C1091 1.429 . S
C1086 C1078 1.574 . S
C1086 H1081 0.949 . S
C1086 C1092 1.368 . S
C1087 C1071 1.349 . S
C1087 H1079 0.950 . S
C1087 C1085 1.327 . S
C1088 C1076 1.349 . S
C1088 H1082 0.950 . S
C1088 C1089 1.327 . S
C1089 H1083 0.950 . S
C1089 C1088 1.327 . S
C1089 C1093 1.429 . S
C1090 C1073 1.574 . S
C1090 H1084 0.949 . S
C1090 C1094 1.368 . S
C1091 C1072 1.429 . S
C1091 C1085 1.429 . S
C1091 C1092 1.523 . S
C1092 C1073 1.368 . S
C1092 C1086 1.368 . S
C1092 C1091 1.523 . S
C1093 C1077 1.429 . S
C1093 C1089 1.429 . S
C1093 C1094 1.523 . S
C1094 C1078 1.368 . S
C1094 C1090 1.368 . S
C1094 C1093 1.523 . S
H1095 C1070 0.950 . S
H1096 C1072 0.950 . S
H1097 C1073 0.949 . S
H1098 C1075 0.950 . S
H1099 C1077 0.950 . S
C1100 C1101 1.349 . S
C1100 C1102 1.327 . S
C1100 H1125 0.950 . S
C1101 C1100 1.349 . S
C1101 C1117 1.349 . S
C1102 C1100 1.327 . S
C1102 C1121 1.429 . S
C1102 H1126 0.950 . S
C1103 C1120 1.574 . S
C1103 C1122 1.368 1_565 S
C1103 H1127 0.949 . S
H1104 C1108 0.949 . S
C1105 C1106 1.349 . S
C1105 C1107 1.327 . S
C1105 H1128 0.950 . S
C1106 C1105 1.349 . S
C1106 C1118 1.349 . S
C1107 C1105 1.327 . S
C1107 C1123 1.429 . S
C1107 H1129 0.950 . S
C1108 H1104 0.949 . S
C1108 C1116 1.574 . S
C1108 C1124 1.368 1_545 S
H1109 C1117 0.950 . S
H1110 C1115 0.950 . S
H1111 C1116 0.949 . S
H1112 C1118 0.950 . S
H1113 C1119 0.950 . S
H1114 C1120 0.949 . S
C1115 H1110 0.950 . S
C1115 C1117 1.327 . S
C1115 C1121 1.429 . S
C1116 C1108 1.574 . S
C1116 H1111 0.949 . S
C1116 C1122 1.368 . S
C1117 C1101 1.349 . S
C1117 H1109 0.950 . S
C1117 C1115 1.327 . S
C1118 C1106 1.349 . S
C1118 H1112 0.950 . S
C1118 C1119 1.327 . S
C1119 H1113 0.950 . S
C1119 C1118 1.327 . S
C1119 C1123 1.429 . S
C1120 C1103 1.574 . S
C1120 H1114 0.949 . S
C1120 C1124 1.368 . S
C1121 C1102 1.429 . S
C1121 C1115 1.429 . S
C1121 C1122 1.523 . S
C1122 C1103 1.368 1_545 S
C1122 C1116 1.368 . S
C1122 C1121 1.523 . S
C1123 C1107 1.429 . S
C1123 C1119 1.429 . S
C1123 C1124 1.523 . S
C1124 C1108 1.368 1_565 S
C1124 C1120 1.368 . S
C1124 C1123 1.523 . S
H1125 C1100 0.950 . S
H1126 C1102 0.950 . S
H1127 C1103 0.949 . S
H1128 C1105 0.950 . S
H1129 C1107 0.950 . S
C1130 C1131 1.349 . S
C1130 C1132 1.327 . S
C1130 H1155 0.950 . S
C1131 C1130 1.349 . S
C1131 C1147 1.349 . S
C1132 C1130 1.327 . S
C1132 C1151 1.429 . S
C1132 H1156 0.950 . S
C1133 C1150 1.574 . S
C1133 C1152 1.368 . S
C1133 H1157 0.949 . S
H1134 C1138 0.949 . S
C1135 C1136 1.349 . S
C1135 C1137 1.327 . S
C1135 H1158 0.950 . S
C1136 C1135 1.349 . S
C1136 C1148 1.349 . S
C1137 C1135 1.327 . S
C1137 C1153 1.429 . S
C1137 H1159 0.950 . S
C1138 H1134 0.949 . S
C1138 C1146 1.574 . S
C1138 C1154 1.368 . S
H1139 C1147 0.950 . S
H1140 C1145 0.950 . S
H1141 C1146 0.949 . S
H1142 C1148 0.950 . S
H1143 C1149 0.950 . S
H1144 C1150 0.949 . S
C1145 H1140 0.950 . S
C1145 C1147 1.327 . S
C1145 C1151 1.429 . S
C1146 C1138 1.574 . S
C1146 H1141 0.949 . S
C1146 C1152 1.368 . S
C1147 C1131 1.349 . S
C1147 H1139 0.950 . S
C1147 C1145 1.327 . S
C1148 C1136 1.349 . S
C1148 H1142 0.950 . S
C1148 C1149 1.327 . S
C1149 H1143 0.950 . S
C1149 C1148 1.327 . S
C1149 C1153 1.429 . S
C1150 C1133 1.574 . S
C1150 H1144 0.949 . S
C1150 C1154 1.368 . S
C1151 C1132 1.429 . S
C1151 C1145 1.429 . S
C1151 C1152 1.523 . S
C1152 C1133 1.368 . S
C1152 C1146 1.368 . S
C1152 C1151 1.523 . S
C1153 C1137 1.429 . S
C1153 C1149 1.429 . S
C1153 C1154 1.523 . S
C1154 C1138 1.368 . S
C1154 C1150 1.368 . S
C1154 C1153 1.523 . S
H1155 C1130 0.950 . S
H1156 C1132 0.950 . S
H1157 C1133 0.949 . S
H1158 C1135 0.950 . S
H1159 C1137 0.950 . S
C1160 C1161 1.349 . S
C1160 C1162 1.327 . S
C1160 H1185 0.950 . S
C1161 C1160 1.349 . S
C1161 C1177 1.349 . S
C1162 C1160 1.327 . S
C1162 C1181 1.429 . S
C1162 H1186 0.950 . S
C1163 C1180 1.574 . S
C1163 C1182 1.368 . S
C1163 H1187 0.949 . S
H1164 C1168 0.949 . S
C1165 C1166 1.349 . S
C1165 C1167 1.327 . S
C1165 H1188 0.950 . S
C1166 C1165 1.349 . S
C1166 C1178 1.349 . S
C1167 C1165 1.327 . S
C1167 C1183 1.429 . S
C1167 H1189 0.950 . S
C1168 H1164 0.949 . S
C1168 C1176 1.574 . S
C1168 C1184 1.368 . S
H1169 C1177 0.950 . S
H1170 C1175 0.950 . S
H1171 C1176 0.949 . S
H1172 C1178 0.950 . S
H1173 C1179 0.950 . S
H1174 C1180 0.949 . S
C1175 H1170 0.950 . S
C1175 C1177 1.327 . S
C1175 C1181 1.429 . S
C1176 C1168 1.574 . S
C1176 H1171 0.949 . S
C1176 C1182 1.368 . S
C1177 C1161 1.349 . S
C1177 H1169 0.950 . S
C1177 C1175 1.327 . S
C1178 C1166 1.349 . S
C1178 H1172 0.950 . S
C1178 C1179 1.327 . S
C1179 H1173 0.950 . S
C1179 C1178 1.327 . S
C1179 C1183 1.429 . S
C1180 C1163 1.574 . S
C1180 H1174 0.949 . S
C1180 C1184 1.368 . S
C1181 C1162 1.429 . S
C1181 C1175 1.429 . S
C1181 C1182 1.523 . S
C1182 C1163 1.368 . S
C1182 C1176 1.368 . S
C1182 C1181 1.523 . S
C1183 C1167 1.429 . S
C1183 C1179 1.429 . S
C1183 C1184 1.523 . S
C1184 C1168 1.368 . S
C1184 C1180 1.368 . S
C1184 C1183 1.523 . S
H1185 C1160 0.950 . S
H1186 C1162 0.950 . S
H1187 C1163 0.949 . S
H1188 C1165 0.950 . S
H1189 C1167 0.950 . S
C1190 C1191 1.349 . S
C1190 C1192 1.327 . S
C1190 H1215 0.950 . S
C1191 C1190 1.349 . S
C1191 C1207 1.349 . S
C1192 C1190 1.327 . S
C1192 C1211 1.429 . S
C1192 H1216 0.950 . S
C1193 C1210 1.574 . S
C1193 C1212 1.368 . S
C1193 H1217 0.949 . S
H1194 C1198 0.949 . S
C1195 C1196 1.349 . S
C1195 C1197 1.327 . S
C1195 H1218 0.950 . S
C1196 C1195 1.349 . S
C1196 C1208 1.349 . S
C1197 C1195 1.327 . S
C1197 C1213 1.429 . S
C1197 H1219 0.950 . S
C1198 H1194 0.949 . S
C1198 C1206 1.574 . S
C1198 C1214 1.368 . S
H1199 C1207 0.950 . S
H1200 C1205 0.950 . S
H1201 C1206 0.949 . S
H1202 C1208 0.950 . S
H1203 C1209 0.950 . S
H1204 C1210 0.949 . S
C1205 H1200 0.950 . S
C1205 C1207 1.327 . S
C1205 C1211 1.429 . S
C1206 C1198 1.574 . S
C1206 H1201 0.949 . S
C1206 C1212 1.368 . S
C1207 C1191 1.349 . S
C1207 H1199 0.950 . S
C1207 C1205 1.327 . S
C1208 C1196 1.349 . S
C1208 H1202 0.950 . S
C1208 C1209 1.327 . S
C1209 H1203 0.950 . S
C1209 C1208 1.327 . S
C1209 C1213 1.429 . S
C1210 C1193 1.574 . S
C1210 H1204 0.949 . S
C1210 C1214 1.368 . S
C1211 C1192 1.429 . S
C1211 C1205 1.429 . S
C1211 C1212 1.523 . S
C1212 C1193 1.368 . S
C1212 C1206 1.368 . S
C1212 C1211 1.523 . S
C1213 C1197 1.429 . S
C1213 C1209 1.429 . S
C1213 C1214 1.523 . S
C1214 C1198 1.368 . S
C1214 C1210 1.368 . S
C1214 C1213 1.523 . S
H1215 C1190 0.950 . S
H1216 C1192 0.950 . S
H1217 C1193 0.949 . S
H1218 C1195 0.950 . S
H1219 C1197 0.950 . S
C1220 C1221 1.349 . S
C1220 C1222 1.327 . S
C1220 H1245 0.950 . S
C1221 C1220 1.349 . S
C1221 C1237 1.349 . S
C1222 C1220 1.327 . S
C1222 C1241 1.429 . S
C1222 H1246 0.950 . S
C1223 C1240 1.574 . S
C1223 C1242 1.368 . S
C1223 H1247 0.949 . S
H1224 C1228 0.949 . S
C1225 C1226 1.349 . S
C1225 C1227 1.327 . S
C1225 H1248 0.950 . S
C1226 C1225 1.349 . S
C1226 C1238 1.349 . S
C1227 C1225 1.327 . S
C1227 C1243 1.429 . S
C1227 H1249 0.950 . S
C1228 H1224 0.949 . S
C1228 C1236 1.574 . S
C1228 C1244 1.368 . S
H1229 C1237 0.950 . S
H1230 C1235 0.950 . S
H1231 C1236 0.949 . S
H1232 C1238 0.950 . S
H1233 C1239 0.950 . S
H1234 C1240 0.949 . S
C1235 H1230 0.950 . S
C1235 C1237 1.327 . S
C1235 C1241 1.429 . S
C1236 C1228 1.574 . S
C1236 H1231 0.949 . S
C1236 C1242 1.368 . S
C1237 C1221 1.349 . S
C1237 H1229 0.950 . S
C1237 C1235 1.327 . S
C1238 C1226 1.349 . S
C1238 H1232 0.950 . S
C1238 C1239 1.327 . S
C1239 H1233 0.950 . S
C1239 C1238 1.327 . S
C1239 C1243 1.429 . S
C1240 C1223 1.574 . S
C1240 H1234 0.949 . S
C1240 C1244 1.368 . S
C1241 C1222 1.429 . S
C1241 C1235 1.429 . S
C1241 C1242 1.523 . S
C1242 C1223 1.368 . S
C1242 C1236 1.368 . S
C1242 C1241 1.523 . S
C1243 C1227 1.429 . S
C1243 C1239 1.429 . S
C1243 C1244 1.523 . S
C1244 C1228 1.368 . S
C1244 C1240 1.368 . S
C1244 C1243 1.523 . S
H1245 C1220 0.950 . S
H1246 C1222 0.950 . S
H1247 C1223 0.949 . S
H1248 C1225 0.950 . S
H1249 C1227 0.950 . S
C1250 C1251 1.349 . S
C1250 C1252 1.327 . S
C1250 H1275 0.950 . S
C1251 C1250 1.349 . S
C1251 C1267 1.343 1_455 S
C1252 C1250 1.327 . S
C1252 C1271 1.429 . S
C1252 H1276 0.950 . S
C1253 C1270 1.574 . S
C1253 C1272 1.368 1_554 S
C1253 H1277 0.949 . S
H1254 C1258 0.949 . S
C1255 C1256 1.349 . S
C1255 C1257 1.327 . S
C1255 H1278 0.950 . S
C1256 C1255 1.349 . S
C1256 C1268 1.349 . S
C1257 C1255 1.327 . S
C1257 C1273 1.429 . S
C1257 H1279 0.950 . S
C1258 H1254 0.949 . S
C1258 C1266 1.574 . S
C1258 C1274 1.368 1_556 S
H1259 C1267 0.962 . S
H1260 C1265 0.950 . S
H1261 C1266 0.949 . S
H1262 C1268 0.950 . S
H1263 C1269 0.950 . S
H1264 C1270 0.949 . S
C1265 H1260 0.950 . S
C1265 C1267 1.321 1_455 S
C1265 C1271 1.429 . S
C1266 C1258 1.574 . S
C1266 H1261 0.949 . S
C1266 C1272 1.368 . S
C1267 C1251 1.343 1_655 S
C1267 H1259 0.962 . S
C1267 C1265 1.321 1_655 S
C1268 C1256 1.349 . S
C1268 H1262 0.950 . S
C1268 C1269 1.327 . S
C1269 H1263 0.950 . S
C1269 C1268 1.327 . S
C1269 C1273 1.429 . S
C1270 C1253 1.574 . S
C1270 H1264 0.949 . S
C1270 C1274 1.368 . S
C1271 C1252 1.429 . S
C1271 C1265 1.429 . S
C1271 C1272 1.523 . S
C1272 C1253 1.368 1_556 S
C1272 C1266 1.368 . S
C1272 C1271 1.523 . S
C1273 C1257 1.429 . S
C1273 C1269 1.429 . S
C1273 C1274 1.523 . S
C1274 C1258 1.368 1_554 S
C1274 C1270 1.368 . S
C1274 C1273 1.523 . S
H1275 C1250 0.950 . S
H1276 C1252 0.950 . S
H1277 C1253 0.949 . S
H1278 C1255 0.950 . S
H1279 C1257 0.950 . S
C1280 C1281 1.349 . S
C1280 C1282 1.327 . S
C1280 H1305 0.950 . S
C1281 C1280 1.349 . S
C1281 C1297 1.349 . S
C1282 C1280 1.327 . S
C1282 C1301 1.429 . S
C1282 H1306 0.950 . S
C1283 C1300 1.574 . S
C1283 C1302 1.368 . S
C1283 H1307 0.949 . S
H1284 C1288 0.949 . S
C1285 C1286 1.349 . S
C1285 C1287 1.327 . S
C1285 H1308 0.950 . S
C1286 C1285 1.349 . S
C1286 C1298 1.349 . S
C1287 C1285 1.327 . S
C1287 C1303 1.429 . S
C1287 H1309 0.950 . S
C1288 H1284 0.949 . S
C1288 C1296 1.574 . S
C1288 C1304 1.368 . S
H1289 C1297 0.950 . S
H1290 C1295 0.950 . S
H1291 C1296 0.949 . S
H1292 C1298 0.950 . S
H1293 C1299 0.950 . S
H1294 C1300 0.949 . S
C1295 H1290 0.950 . S
C1295 C1297 1.327 . S
C1295 C1301 1.429 . S
C1296 C1288 1.574 . S
C1296 H1291 0.949 . S
C1296 C1302 1.368 . S
C1297 C1281 1.349 . S
C1297 H1289 0.950 . S
C1297 C1295 1.327 . S
C1298 C1286 1.349 . S
C1298 H1292 0.950 . S
C1298 C1299 1.327 . S
C1299 H1293 0.950 . S
C1299 C1298 1.327 . S
C1299 C1303 1.429 . S
C1300 C1283 1.574 . S
C1300 H1294 0.949 . S
C1300 C1304 1.368 . S
C1301 C1282 1.429 . S
C1301 C1295 1.429 . S
C1301 C1302 1.523 . S
C1302 C1283 1.368 . S
C1302 C1296 1.368 . S
C1302 C1301 1.523 . S
C1303 C1287 1.429 . S
C1303 C1299 1.429 . S
C1303 C1304 1.523 . S
C1304 C1288 1.368 . S
C1304 C1300 1.368 . S
C1304 C1303 1.523 . S
H1305 C1280 0.950 . S
H1306 C1282 0.950 . S
H1307 C1283 0.949 . S
H1308 C1285 0.950 . S
H1309 C1287 0.950 . S
C1310 C1311 1.349 . S
C1310 C1312 1.327 . S
C1310 H1335 0.950 . S
C1311 C1310 1.349 . S
C1311 C1327 1.349 . S
C1312 C1310 1.327 . S
C1312 C1331 1.429 . S
C1312 H1336 0.950 . S
C1313 C1330 1.574 . S
C1313 C1332 1.368 . S
C1313 H1337 0.949 . S
H1314 C1318 0.949 . S
C1315 C1316 1.349 . S
C1315 C1317 1.327 . S
C1315 H1338 0.950 . S
C1316 C1315 1.349 . S
C1316 C1328 1.349 . S
C1317 C1315 1.327 . S
C1317 C1333 1.429 . S
C1317 H1339 0.950 . S
C1318 H1314 0.949 . S
C1318 C1326 1.574 . S
C1318 C1334 1.368 . S
H1319 C1327 0.950 . S
H1320 C1325 0.950 . S
H1321 C1326 0.949 . S
H1322 C1328 0.950 . S
H1323 C1329 0.950 . S
H1324 C1330 0.949 . S
C1325 H1320 0.950 . S
C1325 C1327 1.327 . S
C1325 C1331 1.429 . S
C1326 C1318 1.574 . S
C1326 H1321 0.949 . S
C1326 C1332 1.368 . S
C1327 C1311 1.349 . S
C1327 H1319 0.950 . S
C1327 C1325 1.327 . S
C1328 C1316 1.349 . S
C1328 H1322 0.950 . S
C1328 C1329 1.327 . S
C1329 H1323 0.950 . S
C1329 C1328 1.327 . S
C1329 C1333 1.429 . S
C1330 C1313 1.574 . S
C1330 H1324 0.949 . S
C1330 C1334 1.368 . S
C1331 C1312 1.429 . S
C1331 C1325 1.429 . S
C1331 C1332 1.523 . S
C1332 C1313 1.368 . S
C1332 C1326 1.368 . S
C1332 C1331 1.523 . S
C1333 C1317 1.429 . S
C1333 C1329 1.429 . S
C1333 C1334 1.523 . S
C1334 C1318 1.368 . S
C1334 C1330 1.368 . S
C1334 C1333 1.523 . S
H1335 C1310 0.950 . S
H1336 C1312 0.950 . S
H1337 C1313 0.949 . S
H1338 C1315 0.950 . S
H1339 C1317 0.950 . S
C1340 C1341 1.349 . S
C1340 C1342 1.327 . S
C1340 H1365 0.950 1_556 S
C1341 C1340 1.349 . S
C1341 C1357 1.349 . S
C1342 C1340 1.327 . S
C1342 C1361 1.429 . S
C1342 H1366 0.950 . S
C1343 C1360 1.574 . S
C1343 C1362 1.368 . S
C1343 H1367 0.949 . S
H1344 C1348 0.949 . S
C1345 C1346 1.349 . S
C1345 C1347 1.327 . S
C1345 H1368 0.950 . S
C1346 C1345 1.349 . S
C1346 C1358 1.349 . S
C1347 C1345 1.327 . S
C1347 C1363 1.429 . S
C1347 H1369 0.950 . S
C1348 H1344 0.949 . S
C1348 C1356 1.574 . S
C1348 C1364 1.368 . S
H1349 C1357 0.950 . S
H1350 C1355 0.950 . S
H1351 C1356 0.949 . S
H1352 C1358 0.950 . S
H1353 C1359 0.950 . S
H1354 C1360 0.949 . S
C1355 H1350 0.950 . S
C1355 C1357 1.327 . S
C1355 C1361 1.429 . S
C1356 C1348 1.574 . S
C1356 H1351 0.949 . S
C1356 C1362 1.368 . S
C1357 C1341 1.349 . S
C1357 H1349 0.950 . S
C1357 C1355 1.327 . S
C1358 C1346 1.349 . S
C1358 H1352 0.950 . S
C1358 C1359 1.327 . S
C1359 H1353 0.950 . S
C1359 C1358 1.327 . S
C1359 C1363 1.429 . S
C1360 C1343 1.574 . S
C1360 H1354 0.949 . S
C1360 C1364 1.368 . S
C1361 C1342 1.429 . S
C1361 C1355 1.429 . S
C1361 C1362 1.523 . S
C1362 C1343 1.368 . S
C1362 C1356 1.368 . S
C1362 C1361 1.523 . S
C1363 C1347 1.429 . S
C1363 C1359 1.429 . S
C1363 C1364 1.523 . S
C1364 C1348 1.368 . S
C1364 C1360 1.368 . S
C1364 C1363 1.523 . S
H1365 C1340 0.950 1_554 S
H1366 C1342 0.950 . S
H1367 C1343 0.949 . S
H1368 C1345 0.950 . S
H1369 C1347 0.950 . S
C1370 C1371 1.349 . S
C1370 C1372 1.327 . S
C1370 H1395 0.950 . S
C1371 C1370 1.349 . S
C1371 C1387 1.349 . S
C1372 C1370 1.327 . S
C1372 C1391 1.429 . S
C1372 H1396 0.950 . S
C1373 C1390 1.574 . S
C1373 C1392 1.368 . S
C1373 H1397 0.949 . S
H1374 C1378 0.949 . S
C1375 C1376 1.340 1_554 S
C1375 C1377 1.355 . S
C1375 H1398 0.931 1_554 S
C1376 C1375 1.340 1_556 S
C1376 C1388 1.349 1_556 S
C1377 C1375 1.355 . S
C1377 C1393 1.429 . S
C1377 H1399 0.950 . S
C1378 H1374 0.949 . S
C1378 C1386 1.574 . S
C1378 C1394 1.368 . S
H1379 C1387 0.950 . S
H1380 C1385 0.950 . S
H1381 C1386 0.949 . S
H1382 C1388 0.950 . S
H1383 C1389 0.950 . S
H1384 C1390 0.949 . S
C1385 H1380 0.950 . S
C1385 C1387 1.327 . S
C1385 C1391 1.429 . S
C1386 C1378 1.574 . S
C1386 H1381 0.949 . S
C1386 C1392 1.368 . S
C1387 C1371 1.349 . S
C1387 H1379 0.950 . S
C1387 C1385 1.327 . S
C1388 C1376 1.349 1_554 S
C1388 H1382 0.950 . S
C1388 C1389 1.327 . S
C1389 H1383 0.950 . S
C1389 C1388 1.327 . S
C1389 C1393 1.429 . S
C1390 C1373 1.574 . S
C1390 H1384 0.949 . S
C1390 C1394 1.368 . S
C1391 C1372 1.429 . S
C1391 C1385 1.429 . S
C1391 C1392 1.523 . S
C1392 C1373 1.368 . S
C1392 C1386 1.368 . S
C1392 C1391 1.523 . S
C1393 C1377 1.429 . S
C1393 C1389 1.429 . S
C1393 C1394 1.523 . S
C1394 C1378 1.368 . S
C1394 C1390 1.368 . S
C1394 C1393 1.523 . S
H1395 C1370 0.950 . S
H1396 C1372 0.950 . S
H1397 C1373 0.949 . S
H1398 C1375 0.931 1_556 S
H1399 C1377 0.950 . S
C1400 C1401 1.349 . S
C1400 C1402 1.327 . S
C1400 H1425 0.950 . S
C1401 C1400 1.349 . S
C1401 C1417 1.349 . S
C1402 C1400 1.327 . S
C1402 C1421 1.429 . S
C1402 H1426 0.950 . S
C1403 C1420 1.574 . S
C1403 C1422 1.368 . S
C1403 H1427 0.949 . S
H1404 C1408 0.949 . S
C1405 C1406 1.349 . S
C1405 C1407 1.327 . S
C1405 H1428 0.950 . S
C1406 C1405 1.349 . S
C1406 C1418 1.349 . S
C1407 C1405 1.327 . S
C1407 C1423 1.429 1_455 S
C1407 H1429 0.950 . S
C1408 H1404 0.949 . S
C1408 C1416 1.574 . S
C1408 C1424 1.368 . S
H1409 C1417 0.950 . S
H1410 C1415 0.950 . S
H1411 C1416 0.949 . S
H1412 C1418 0.950 . S
H1413 C1419 0.950 . S
H1414 C1420 0.949 1_455 S
C1415 H1410 0.950 . S
C1415 C1417 1.327 . S
C1415 C1421 1.429 . S
C1416 C1408 1.574 . S
C1416 H1411 0.949 . S
C1416 C1422 1.368 . S
C1417 C1401 1.349 . S
C1417 H1409 0.950 . S
C1417 C1415 1.327 . S
C1418 C1406 1.349 . S
C1418 H1412 0.950 . S
C1418 C1419 1.327 1_455 S
C1419 H1413 0.950 . S
C1419 C1418 1.327 1_655 S
C1419 C1423 1.429 . S
C1420 C1403 1.574 . S
C1420 H1414 0.949 1_655 S
C1420 C1424 1.368 . S
C1421 C1402 1.429 . S
C1421 C1415 1.429 . S
C1421 C1422 1.523 . S
C1422 C1403 1.368 . S
C1422 C1416 1.368 . S
C1422 C1421 1.523 . S
C1423 C1407 1.429 1_655 S
C1423 C1419 1.429 . S
C1423 C1424 1.523 . S
C1424 C1408 1.368 . S
C1424 C1420 1.368 . S
C1424 C1423 1.523 . S
H1425 C1400 0.950 . S
H1426 C1402 0.950 . S
H1427 C1403 0.949 . S
H1428 C1405 0.950 . S
H1429 C1407 0.950 . S
C1430 C1431 1.349 . S
C1430 C1432 1.327 . S
C1430 H1455 0.950 . S
C1431 C1430 1.349 . S
C1431 C1447 1.349 . S
C1432 C1430 1.327 . S
C1432 C1451 1.429 . S
C1432 H1456 0.950 . S
C1433 C1450 1.574 . S
C1433 C1452 1.368 . S
C1433 H1457 0.949 . S
H1434 C1438 0.949 . S
C1435 C1436 1.349 . S
C1435 C1437 1.327 . S
C1435 H1458 0.950 . S
C1436 C1435 1.349 . S
C1436 C1448 1.349 . S
C1437 C1435 1.327 . S
C1437 C1453 1.429 . S
C1437 H1459 0.950 . S
C1438 H1434 0.949 . S
C1438 C1446 1.574 . S
C1438 C1454 1.368 . S
H1439 C1447 0.950 . S
H1440 C1445 0.950 . S
H1441 C1446 0.949 . S
H1442 C1448 0.950 . S
H1443 C1449 0.950 . S
H1444 C1450 0.949 . S
C1445 H1440 0.950 . S
C1445 C1447 1.327 . S
C1445 C1451 1.429 . S
C1446 C1438 1.574 . S
C1446 H1441 0.949 . S
C1446 C1452 1.368 . S
C1447 C1431 1.349 . S
C1447 H1439 0.950 . S
C1447 C1445 1.327 . S
C1448 C1436 1.349 . S
C1448 H1442 0.950 . S
C1448 C1449 1.327 . S
C1449 H1443 0.950 . S
C1449 C1448 1.327 . S
C1449 C1453 1.429 . S
C1450 C1433 1.574 . S
C1450 H1444 0.949 . S
C1450 C1454 1.368 . S
C1451 C1432 1.429 . S
C1451 C1445 1.429 . S
C1451 C1452 1.523 . S
C1452 C1433 1.368 . S
C1452 C1446 1.368 . S
C1452 C1451 1.523 . S
C1453 C1437 1.429 . S
C1453 C1449 1.429 . S
C1453 C1454 1.523 . S
C1454 C1438 1.368 . S
C1454 C1450 1.368 . S
C1454 C1453 1.523 . S
H1455 C1430 0.950 . S
H1456 C1432 0.950 . S
H1457 C1433 0.949 . S
H1458 C1435 0.950 . S
H1459 C1437 0.950 . S
C1460 C1461 1.349 . S
C1460 C1462 1.327 . S
C1460 H1485 0.950 . S
C1461 C1460 1.349 . S
C1461 C1477 1.349 . S
C1462 C1460 1.327 . S
C1462 C1481 1.429 . S
C1462 H1486 0.950 . S
C1463 C1480 1.574 . S
C1463 C1482 1.368 . S
C1463 H1487 0.949 . S
H1464 C1468 0.949 . S
C1465 C1466 1.349 . S
C1465 C1467 1.327 . S
C1465 H1488 0.950 . S
C1466 C1465 1.349 . S
C1466 C1478 1.349 . S
C1467 C1465 1.327 . S
C1467 C1483 1.429 . S
C1467 H1489 0.950 . S
C1468 H1464 0.949 . S
C1468 C1476 1.574 . S
C1468 C1484 1.368 . S
H1469 C1477 0.950 . S
H1470 C1475 0.950 . S
H1471 C1476 0.949 . S
H1472 C1478 0.950 . S
H1473 C1479 0.950 . S
H1474 C1480 0.949 . S
C1475 H1470 0.950 . S
C1475 C1477 1.327 . S
C1475 C1481 1.429 . S
C1476 C1468 1.574 . S
C1476 H1471 0.949 . S
C1476 C1482 1.368 . S
C1477 C1461 1.349 . S
C1477 H1469 0.950 . S
C1477 C1475 1.327 . S
C1478 C1466 1.349 . S
C1478 H1472 0.950 . S
C1478 C1479 1.327 . S
C1479 H1473 0.950 . S
C1479 C1478 1.327 . S
C1479 C1483 1.429 . S
C1480 C1463 1.574 . S
C1480 H1474 0.949 . S
C1480 C1484 1.368 . S
C1481 C1462 1.429 . S
C1481 C1475 1.429 . S
C1481 C1482 1.523 . S
C1482 C1463 1.368 . S
C1482 C1476 1.368 . S
C1482 C1481 1.523 . S
C1483 C1467 1.429 . S
C1483 C1479 1.429 . S
C1483 C1484 1.523 . S
C1484 C1468 1.368 . S
C1484 C1480 1.368 . S
C1484 C1483 1.523 . S
H1485 C1460 0.950 . S
H1486 C1462 0.950 . S
H1487 C1463 0.949 . S
H1488 C1465 0.950 . S
H1489 C1467 0.950 . S
C1490 C1491 1.349 . S
C1490 C1492 1.327 . S
C1490 H1515 0.950 . S
C1491 C1490 1.349 . S
C1491 C1507 1.349 . S
C1492 C1490 1.327 . S
C1492 C1511 1.429 . S
C1492 H1516 0.950 . S
C1493 C1510 1.574 . S
C1493 C1512 1.368 . S
C1493 H1517 0.949 . S
H1494 C1498 0.949 . S
C1495 C1496 1.349 1_556 S
C1495 C1497 1.327 . S
C1495 H1518 0.950 . S
C1496 C1495 1.349 1_554 S
C1496 C1508 1.349 . S
C1497 C1495 1.327 . S
C1497 C1513 1.429 . S
C1497 H1519 0.950 . S
C1498 H1494 0.949 . S
C1498 C1506 1.574 . S
C1498 C1514 1.368 . S
H1499 C1507 0.950 . S
H1500 C1505 0.950 . S
H1501 C1506 0.949 . S
H1502 C1508 0.950 . S
H1503 C1509 0.950 . S
H1504 C1510 0.949 . S
C1505 H1500 0.950 . S
C1505 C1507 1.327 . S
C1505 C1511 1.429 . S
C1506 C1498 1.574 . S
C1506 H1501 0.949 . S
C1506 C1512 1.368 . S
C1507 C1491 1.349 . S
C1507 H1499 0.950 . S
C1507 C1505 1.327 . S
C1508 C1496 1.349 . S
C1508 H1502 0.950 . S
C1508 C1509 1.327 1_554 S
C1509 H1503 0.950 . S
C1509 C1508 1.327 1_556 S
C1509 C1513 1.429 . S
C1510 C1493 1.574 . S
C1510 H1504 0.949 . S
C1510 C1514 1.368 . S
C1511 C1492 1.429 . S
C1511 C1505 1.429 . S
C1511 C1512 1.523 . S
C1512 C1493 1.368 . S
C1512 C1506 1.368 . S
C1512 C1511 1.523 . S
C1513 C1497 1.429 . S
C1513 C1509 1.429 . S
C1513 C1514 1.523 . S
C1514 C1498 1.368 . S
C1514 C1510 1.368 . S
C1514 C1513 1.523 . S
H1515 C1490 0.950 . S
H1516 C1492 0.950 . S
H1517 C1493 0.949 . S
H1518 C1495 0.950 . S
H1519 C1497 0.950 . S
C1520 C1521 1.349 . S
C1520 C1522 1.327 . S
C1520 H1545 0.950 . S
C1521 C1520 1.349 . S
C1521 C1537 1.349 . S
C1522 C1520 1.327 . S
C1522 C1541 1.429 . S
C1522 H1546 0.950 . S
C1523 C1540 1.574 . S
C1523 C1542 1.368 . S
C1523 H1547 0.949 . S
H1524 C1528 0.949 . S
C1525 C1526 1.349 . S
C1525 C1527 1.327 . S
C1525 H1548 0.950 1_556 S
C1526 C1525 1.349 . S
C1526 C1538 1.349 . S
C1527 C1525 1.327 . S
C1527 C1543 1.429 . S
C1527 H1549 0.950 . S
C1528 H1524 0.949 . S
C1528 C1536 1.574 . S
C1528 C1544 1.368 . S
H1529 C1537 0.950 . S
H1530 C1535 0.950 . S
H1531 C1536 0.949 . S
H1532 C1538 0.950 . S
H1533 C1539 0.950 . S
H1534 C1540 0.949 . S
C1535 H1530 0.950 . S
C1535 C1537 1.327 . S
C1535 C1541 1.429 . S
C1536 C1528 1.574 . S
C1536 H1531 0.949 . S
C1536 C1542 1.368 . S
C1537 C1521 1.349 . S
C1537 H1529 0.950 . S
C1537 C1535 1.327 . S
C1538 C1526 1.349 . S
C1538 H1532 0.950 . S
C1538 C1539 1.327 . S
C1539 H1533 0.950 . S
C1539 C1538 1.327 . S
C1539 C1543 1.429 . S
C1540 C1523 1.574 . S
C1540 H1534 0.949 . S
C1540 C1544 1.368 . S
C1541 C1522 1.429 . S
C1541 C1535 1.429 . S
C1541 C1542 1.523 . S
C1542 C1523 1.368 . S
C1542 C1536 1.368 . S
C1542 C1541 1.523 . S
C1543 C1527 1.429 . S
C1543 C1539 1.429 . S
C1543 C1544 1.523 . S
C1544 C1528 1.368 . S
C1544 C1540 1.368 . S
C1544 C1543 1.523 . S
H1545 C1520 0.950 . S
H1546 C1522 0.950 . S
H1547 C1523 0.949 . S
H1548 C1525 0.950 1_554 S
H1549 C1527 0.950 . S
C1550 C1551 1.349 . S
C1550 C1552 1.327 . S
C1550 H1575 0.950 . S
C1551 C1550 1.349 . S
C1551 C1567 1.349 . S
C1552 C1550 1.327 . S
C1552 C1571 1.429 . S
C1552 H1576 0.950 . S
C1553 C1570 1.574 . S
C1553 C1572 1.368 . S
C1553 H1577 0.949 . S
H1554 C1558 0.949 . S
C1555 C1556 1.349 . S
C1555 C1557 1.327 1_556 S
C1555 H1578 0.950 . S
C1556 C1555 1.349 . S
C1556 C1568 1.349 1_556 S
C1557 C1555 1.327 1_554 S
C1557 C1573 1.429 . S
C1557 H1579 0.950 . S
C1558 H1554 0.949 . S
C1558 C1566 1.574 . S
C1558 C1574 1.368 . S
H1559 C1567 0.950 . S
H1560 C1565 0.950 . S
H1561 C1566 0.949 . S
H1562 C1568 0.950 . S
H1563 C1569 0.950 . S
H1564 C1570 0.949 . S
C1565 H1560 0.950 . S
C1565 C1567 1.327 . S
C1565 C1571 1.429 . S
C1566 C1558 1.574 . S
C1566 H1561 0.949 . S
C1566 C1572 1.368 . S
C1567 C1551 1.349 . S
C1567 H1559 0.950 . S
C1567 C1565 1.327 . S
C1568 C1556 1.349 1_554 S
C1568 H1562 0.950 . S
C1568 C1569 1.327 . S
C1569 H1563 0.950 . S
C1569 C1568 1.327 . S
C1569 C1573 1.429 . S
C1570 C1553 1.574 . S
C1570 H1564 0.949 . S
C1570 C1574 1.368 . S
C1571 C1552 1.429 . S
C1571 C1565 1.429 . S
C1571 C1572 1.523 . S
C1572 C1553 1.368 . S
C1572 C1566 1.368 . S
C1572 C1571 1.523 . S
C1573 C1557 1.429 . S
C1573 C1569 1.429 . S
C1573 C1574 1.523 . S
C1574 C1558 1.368 . S
C1574 C1570 1.368 . S
C1574 C1573 1.523 . S
H1575 C1550 0.950 . S
H1576 C1552 0.950 . S
H1577 C1553 0.949 . S
H1578 C1555 0.950 . S
H1579 C1557 0.950 . S
C1580 C1581 1.349 . S
C1580 C1582 1.327 . S
C1580 H1605 0.950 . S
C1581 C1580 1.349 . S
C1581 C1597 1.349 . S
C1582 C1580 1.327 . S
C1582 C1601 1.429 1_455 S
C1582 H1606 0.950 1_455 S
C1583 C1600 1.574 . S
C1583 C1602 1.368 . S
C1583 H1607 0.949 . S
H1584 C1588 0.949 . S
C1585 C1586 1.349 . S
C1585 C1587 1.327 . S
C1585 H1608 0.950 . S
C1586 C1585 1.349 . S
C1586 C1598 1.349 . S
C1587 C1585 1.327 . S
C1587 C1603 1.429 . S
C1587 H1609 0.950 . S
C1588 H1584 0.949 . S
C1588 C1596 1.574 . S
C1588 C1604 1.368 . S
H1589 C1597 0.950 . S
H1590 C1595 0.950 . S
H1591 C1596 0.949 . S
H1592 C1598 0.950 . S
H1593 C1599 0.950 . S
H1594 C1600 0.949 . S
C1595 H1590 0.950 . S
C1595 C1597 1.327 . S
C1595 C1601 1.429 1_455 S
C1596 C1588 1.574 . S
C1596 H1591 0.949 . S
C1596 C1602 1.368 . S
C1597 C1581 1.349 . S
C1597 H1589 0.950 . S
C1597 C1595 1.327 . S
C1598 C1586 1.349 . S
C1598 H1592 0.950 . S
C1598 C1599 1.327 . S
C1599 H1593 0.950 . S
C1599 C1598 1.327 . S
C1599 C1603 1.429 . S
C1600 C1583 1.574 . S
C1600 H1594 0.949 . S
C1600 C1604 1.368 . S
C1601 C1582 1.429 1_655 S
C1601 C1595 1.429 1_655 S
C1601 C1602 1.523 . S
C1602 C1583 1.368 . S
C1602 C1596 1.368 . S
C1602 C1601 1.523 . S
C1603 C1587 1.429 . S
C1603 C1599 1.429 . S
C1603 C1604 1.523 . S
C1604 C1588 1.368 . S
C1604 C1600 1.368 . S
C1604 C1603 1.523 . S
H1605 C1580 0.950 . S
H1606 C1582 0.950 1_655 S
H1607 C1583 0.949 . S
H1608 C1585 0.950 . S
H1609 C1587 0.950 . S
C1610 C1611 1.349 . S
C1610 C1612 1.327 . S
C1610 H1635 0.950 . S
C1611 C1610 1.349 . S
C1611 C1627 1.349 . S
C1612 C1610 1.327 . S
C1612 C1631 1.429 . S
C1612 H1636 0.950 . S
C1613 C1630 1.574 . S
C1613 C1632 1.368 . S
C1613 H1637 0.949 . S
H1614 C1618 0.949 . S
C1615 C1616 1.349 . S
C1615 C1617 1.327 . S
C1615 H1638 0.950 . S
C1616 C1615 1.349 . S
C1616 C1628 1.349 . S
C1617 C1615 1.327 . S
C1617 C1633 1.429 . S
C1617 H1639 0.950 . S
C1618 H1614 0.949 . S
C1618 C1626 1.574 . S
C1618 C1634 1.368 . S
H1619 C1627 0.950 . S
H1620 C1625 0.950 . S
H1621 C1626 0.949 . S
H1622 C1628 0.950 . S
H1623 C1629 0.950 . S
H1624 C1630 0.949 . S
C1625 H1620 0.950 . S
C1625 C1627 1.327 . S
C1625 C1631 1.429 . S
C1626 C1618 1.574 . S
C1626 H1621 0.949 . S
C1626 C1632 1.368 . S
C1627 C1611 1.349 . S
C1627 H1619 0.950 . S
C1627 C1625 1.327 . S
C1628 C1616 1.349 . S
C1628 H1622 0.950 . S
C1628 C1629 1.327 . S
C1629 H1623 0.950 . S
C1629 C1628 1.327 . S
C1629 C1633 1.429 . S
C1630 C1613 1.574 . S
C1630 H1624 0.949 . S
C1630 C1634 1.368 . S
C1631 C1612 1.429 . S
C1631 C1625 1.429 . S
C1631 C1632 1.523 . S
C1632 C1613 1.368 . S
C1632 C1626 1.368 . S
C1632 C1631 1.523 . S
C1633 C1617 1.429 . S
C1633 C1629 1.429 . S
C1633 C1634 1.523 . S
C1634 C1618 1.368 . S
C1634 C1630 1.368 . S
C1634 C1633 1.523 . S
H1635 C1610 0.950 . S
H1636 C1612 0.950 . S
H1637 C1613 0.949 . S
H1638 C1615 0.950 . S
H1639 C1617 0.950 . S
C1640 C1641 1.349 . S
C1640 C1642 1.327 . S
C1640 H1665 0.950 . S
C1641 C1640 1.349 . S
C1641 C1657 1.349 . S
C1642 C1640 1.327 . S
C1642 C1661 1.429 . S
C1642 H1666 0.950 . S
C1643 C1660 1.574 . S
C1643 C1662 1.368 . S
C1643 H1667 0.949 . S
H1644 C1648 0.949 . S
C1645 C1646 1.349 . S
C1645 C1647 1.327 . S
C1645 H1668 0.950 . S
C1646 C1645 1.349 . S
C1646 C1658 1.349 . S
C1647 C1645 1.327 . S
C1647 C1663 1.429 . S
C1647 H1669 0.950 . S
C1648 H1644 0.949 . S
C1648 C1656 1.574 . S
C1648 C1664 1.368 . S
H1649 C1657 0.950 . S
H1650 C1655 0.950 . S
H1651 C1656 0.949 . S
H1652 C1658 0.950 1_556 S
H1653 C1659 0.950 . S
H1654 C1660 0.949 . S
C1655 H1650 0.950 . S
C1655 C1657 1.327 . S
C1655 C1661 1.429 . S
C1656 C1648 1.574 . S
C1656 H1651 0.949 . S
C1656 C1662 1.368 . S
C1657 C1641 1.349 . S
C1657 H1649 0.950 . S
C1657 C1655 1.327 . S
C1658 C1646 1.349 . S
C1658 H1652 0.950 1_554 S
C1658 C1659 1.327 . S
C1659 H1653 0.950 . S
C1659 C1658 1.327 . S
C1659 C1663 1.429 . S
C1660 C1643 1.574 . S
C1660 H1654 0.949 . S
C1660 C1664 1.368 . S
C1661 C1642 1.429 . S
C1661 C1655 1.429 . S
C1661 C1662 1.523 . S
C1662 C1643 1.368 . S
C1662 C1656 1.368 . S
C1662 C1661 1.523 . S
C1663 C1647 1.429 . S
C1663 C1659 1.429 . S
C1663 C1664 1.523 . S
C1664 C1648 1.368 . S
C1664 C1660 1.368 . S
C1664 C1663 1.523 . S
H1665 C1640 0.950 . S
H1666 C1642 0.950 . S
H1667 C1643 0.949 . S
H1668 C1645 0.950 . S
H1669 C1647 0.950 . S
C1670 C1671 1.349 1_556 S
C1670 C1672 1.327 . S
C1670 H1695 0.950 . S
C1671 C1670 1.349 1_554 S
C1671 C1687 1.349 . S
C1672 C1670 1.327 . S
C1672 C1691 1.429 . S
C1672 H1696 0.950 . S
C1673 C1690 1.574 . S
C1673 C1692 1.368 . S
C1673 H1697 0.949 . S
H1674 C1678 0.949 . S
C1675 C1676 1.349 . S
C1675 C1677 1.327 . S
C1675 H1698 0.950 . S
C1676 C1675 1.349 . S
C1676 C1688 1.349 . S
C1677 C1675 1.327 . S
C1677 C1693 1.429 . S
C1677 H1699 0.950 . S
C1678 H1674 0.949 . S
C1678 C1686 1.574 . S
C1678 C1694 1.368 . S
H1679 C1687 0.950 . S
H1680 C1685 0.950 . S
H1681 C1686 0.949 . S
H1682 C1688 0.950 . S
H1683 C1689 0.950 . S
H1684 C1690 0.949 . S
C1685 H1680 0.950 . S
C1685 C1687 1.327 1_556 S
C1685 C1691 1.429 . S
C1686 C1678 1.574 . S
C1686 H1681 0.949 . S
C1686 C1692 1.368 . S
C1687 C1671 1.349 . S
C1687 H1679 0.950 . S
C1687 C1685 1.327 1_554 S
C1688 C1676 1.349 . S
C1688 H1682 0.950 . S
C1688 C1689 1.327 . S
C1689 H1683 0.950 . S
C1689 C1688 1.327 . S
C1689 C1693 1.429 . S
C1690 C1673 1.574 . S
C1690 H1684 0.949 . S
C1690 C1694 1.368 . S
C1691 C1672 1.429 . S
C1691 C1685 1.429 . S
C1691 C1692 1.523 . S
C1692 C1673 1.368 . S
C1692 C1686 1.368 . S
C1692 C1691 1.523 . S
C1693 C1677 1.429 . S
C1693 C1689 1.429 . S
C1693 C1694 1.523 . S
C1694 C1678 1.368 . S
C1694 C1690 1.368 . S
C1694 C1693 1.523 . S
H1695 C1670 0.950 . S
H1696 C1672 0.950 . S
H1697 C1673 0.949 . S
H1698 C1675 0.950 . S
H1699 C1677 0.950 . S
C1700 C1701 1.349 . S
C1700 C1702 1.327 . S
C1700 H1725 0.950 . S
C1701 C1700 1.349 . S
C1701 C1717 1.349 . S
C1702 C1700 1.327 . S
C1702 C1721 1.429 . S
C1702 H1726 0.950 . S
C1703 C1720 1.574 . S
C1703 C1722 1.368 . S
C1703 H1727 0.949 . S
H1704 C1708 0.949 . S
C1705 C1706 1.349 . S
C1705 C1707 1.327 . S
C1705 H1728 0.950 . S
C1706 C1705 1.349 . S
C1706 C1718 1.349 . S
C1707 C1705 1.327 . S
C1707 C1723 1.429 . S
C1707 H1729 0.950 . S
C1708 H1704 0.949 . S
C1708 C1716 1.574 . S
C1708 C1724 1.368 . S
H1709 C1717 0.950 . S
H1710 C1715 0.950 . S
H1711 C1716 0.949 . S
H1712 C1718 0.950 . S
H1713 C1719 0.950 . S
H1714 C1720 0.949 . S
C1715 H1710 0.950 . S
C1715 C1717 1.327 . S
C1715 C1721 1.429 . S
C1716 C1708 1.574 . S
C1716 H1711 0.949 . S
C1716 C1722 1.368 . S
C1717 C1701 1.349 . S
C1717 H1709 0.950 . S
C1717 C1715 1.327 . S
C1718 C1706 1.349 . S
C1718 H1712 0.950 . S
C1718 C1719 1.327 . S
C1719 H1713 0.950 . S
C1719 C1718 1.327 . S
C1719 C1723 1.429 . S
C1720 C1703 1.574 . S
C1720 H1714 0.949 . S
C1720 C1724 1.368 . S
C1721 C1702 1.429 . S
C1721 C1715 1.429 . S
C1721 C1722 1.523 . S
C1722 C1703 1.368 . S
C1722 C1716 1.368 . S
C1722 C1721 1.523 . S
C1723 C1707 1.429 . S
C1723 C1719 1.429 . S
C1723 C1724 1.523 . S
C1724 C1708 1.368 . S
C1724 C1720 1.368 . S
C1724 C1723 1.523 . S
H1725 C1700 0.950 . S
H1726 C1702 0.950 . S
H1727 C1703 0.949 . S
H1728 C1705 0.950 . S
H1729 C1707 0.950 . S
C1730 C1731 1.349 . S
C1730 C1732 1.327 . S
C1730 H1755 0.950 . S
C1731 C1730 1.349 . S
C1731 C1747 1.349 . S
C1732 C1730 1.327 . S
C1732 C1751 1.429 . S
C1732 H1756 0.950 . S
C1733 C1750 1.574 . S
C1733 C1752 1.368 . S
C1733 H1757 0.949 . S
H1734 C1738 0.949 . S
C1735 C1736 1.349 . S
C1735 C1737 1.327 . S
C1735 H1758 0.950 . S
C1736 C1735 1.349 . S
C1736 C1748 1.349 . S
C1737 C1735 1.327 . S
C1737 C1753 1.429 . S
C1737 H1759 0.950 . S
C1738 H1734 0.949 . S
C1738 C1746 1.574 . S
C1738 C1754 1.368 . S
H1739 C1747 0.950 . S
H1740 C1745 0.950 . S
H1741 C1746 0.949 . S
H1742 C1748 0.950 . S
H1743 C1749 0.950 . S
H1744 C1750 0.949 . S
C1745 H1740 0.950 . S
C1745 C1747 1.327 . S
C1745 C1751 1.429 . S
C1746 C1738 1.574 . S
C1746 H1741 0.949 . S
C1746 C1752 1.368 . S
C1747 C1731 1.349 . S
C1747 H1739 0.950 . S
C1747 C1745 1.327 . S
C1748 C1736 1.349 . S
C1748 H1742 0.950 . S
C1748 C1749 1.327 . S
C1749 H1743 0.950 . S
C1749 C1748 1.327 . S
C1749 C1753 1.429 . S
C1750 C1733 1.574 . S
C1750 H1744 0.949 . S
C1750 C1754 1.368 . S
C1751 C1732 1.429 . S
C1751 C1745 1.429 . S
C1751 C1752 1.523 . S
C1752 C1733 1.368 . S
C1752 C1746 1.368 . S
C1752 C1751 1.523 . S
C1753 C1737 1.429 . S
C1753 C1749 1.429 . S
C1753 C1754 1.523 . S
C1754 C1738 1.368 . S
C1754 C1750 1.368 . S
C1754 C1753 1.523 . S
H1755 C1730 0.950 . S
H1756 C1732 0.950 . S
H1757 C1733 0.949 . S
H1758 C1735 0.950 . S
H1759 C1737 0.950 . S
C321 C12 0.903 1_556 S
C326 C142 0.859 . S
C351 C32 0.903 . S
C356 C82 0.859 . S
C381 C102 0.859 . S
C386 C52 0.903 . S
C411 C72 0.903 . S
C416 C122 0.859 . S
C441 C224 0.859 . S
C446 C89 0.903 1_554 S
C471 C169 0.903 . S
C476 C4 0.859 . S
C501 C204 0.859 . S
C506 C129 0.903 . S
C531 C44 0.859 . S
C536 C189 0.903 . S
C561 C182 0.859 . S
C566 C252 0.903 . S
C591 C212 0.903 . S
C596 C282 0.859 . S
C621 C272 0.903 1_556 S
C626 C162 0.859 . S
C651 C232 0.903 . S
C656 C302 0.859 . S
C681 C289 0.903 . S
C686 C64 0.859 . S
C711 C244 0.859 . S
C716 C109 0.903 . S
C741 C24 0.859 . S
C746 C309 0.903 1_554 S
C771 C149 0.903 . S
C776 C264 0.859 . S
C801 C278 0.410 . S
C806 C18 0.410 . S
C831 C238 0.411 . S
C836 C38 0.411 . S
C861 C258 0.410 . S
C866 C58 0.410 . S
C891 C218 0.411 . S
C896 C78 0.411 . S
C921 C99 0.410 . S
C926 C319 0.410 . S
C951 C199 0.411 . S
C956 C119 0.411 . S
C981 C139 0.410 . S
C986 C299 0.410 . S
C1011 C159 0.411 . S
C1016 C179 0.411 . S
C1041 C19 1.359 . S
C1046 C98 1.359 . S
C1071 C39 1.359 . S
C1076 C118 1.359 . S
C1101 C138 1.359 . S
C1106 C59 1.359 . S
C1131 C79 1.358 . S
C1136 C158 1.358 . S
C1161 C219 1.358 . S
C1166 C178 1.358 . S
C1191 C239 1.358 . S
C1196 C198 1.358 . S
C1221 C259 1.359 . S
C1226 C298 1.359 . S
C1251 C318 1.359 . S
C1256 C279 1.359 . S
C1281 C2 1.506 . S
C1286 C152 1.469 . S
C1311 C22 1.506 . S
C1316 C92 1.469 . S
C1341 C112 1.469 1_556 S
C1346 C42 1.506 . S
C1371 C132 1.469 . S
C1376 C62 1.506 . S
C1401 C229 1.469 . S
C1406 C84 1.506 . S
C1431 C164 1.506 . S
C1436 C9 1.469 . S
C1461 C209 1.469 1_554 S
C1466 C124 1.506 . S
C1491 C49 1.469 . S
C1496 C184 1.506 . S
C1521 C242 1.506 . S
C1526 C192 1.469 1_556 S
C1551 C292 1.469 . S
C1556 C202 1.506 . S
C1581 C262 1.506 . S
C1586 C172 1.469 . S
C1611 C312 1.469 . S
C1616 C222 1.506 . S
C1641 C284 1.506 . S
C1646 C69 1.469 1_554 S
C1671 C104 1.506 . S
C1676 C249 1.469 . S
C1701 C29 1.469 . S
C1706 C304 1.506 . S
C1731 C269 1.469 . S
C1736 C144 1.506 . S
