# Generated by pormake.
# Topology umh, (4)-cn, num edge types: 1
# Building blocks:
#     Node 0, Type 0, BuildingBlock: KOZSID_clean_sbu_0, # of connection points: 4
#     Node 1, Type 0, BuildingBlock: KOZSID_clean_sbu_0, # of connection points: 4
#     Node 2, Type 0, BuildingBlock: KOZSID_clean_sbu_0, # of connection points: 4
#     Node 3, Type 0, BuildingBlock: KOZSID_clean_sbu_0, # of connection points: 4
#     Node 4, Type 0, BuildingBlock: KOZSID_clean_sbu_0, # of connection points: 4
#     Node 5, Type 0, BuildingBlock: KOZSID_clean_sbu_0, # of connection points: 4
#     Node 6, Type 0, BuildingBlock: KOZSID_clean_sbu_0, # of connection points: 4
#     Node 7, Type 0, BuildingBlock: KOZSID_clean_sbu_0, # of connection points: 4
#     Node 8, Type 0, BuildingBlock: KOZSID_clean_sbu_0, # of connection points: 4
#     Node 9, Type 0, BuildingBlock: KOZSID_clean_sbu_0, # of connection points: 4
#     Node 10, Type 0, BuildingBlock: KOZSID_clean_sbu_0, # of connection points: 4
#     Node 11, Type 0, BuildingBlock: KOZSID_clean_sbu_0, # of connection points: 4
#     Node 12, Type 0, BuildingBlock: KOZSID_clean_sbu_0, # of connection points: 4
#     Node 13, Type 0, BuildingBlock: KOZSID_clean_sbu_0, # of connection points: 4
#     Node 14, Type 0, BuildingBlock: KOZSID_clean_sbu_0, # of connection points: 4
#     Node 15, Type 0, BuildingBlock: KOZSID_clean_sbu_0, # of connection points: 4
#     Edge 16, Type (0, 0), BuildingBlock: MIFKUJ_clean_linker_0, # of connection points: 2
#     Edge 17, Type (0, 0), BuildingBlock: MIFKUJ_clean_linker_0, # of connection points: 2
#     Edge 18, Type (0, 0), BuildingBlock: MIFKUJ_clean_linker_0, # of connection points: 2
#     Edge 19, Type (0, 0), BuildingBlock: MIFKUJ_clean_linker_0, # of connection points: 2
#     Edge 20, Type (0, 0), BuildingBlock: MIFKUJ_clean_linker_0, # of connection points: 2
#     Edge 21, Type (0, 0), BuildingBlock: MIFKUJ_clean_linker_0, # of connection points: 2
#     Edge 22, Type (0, 0), BuildingBlock: MIFKUJ_clean_linker_0, # of connection points: 2
#     Edge 23, Type (0, 0), BuildingBlock: MIFKUJ_clean_linker_0, # of connection points: 2
#     Edge 24, Type (0, 0), BuildingBlock: MIFKUJ_clean_linker_0, # of connection points: 2
#     Edge 25, Type (0, 0), BuildingBlock: MIFKUJ_clean_linker_0, # of connection points: 2
#     Edge 26, Type (0, 0), BuildingBlock: MIFKUJ_clean_linker_0, # of connection points: 2
#     Edge 27, Type (0, 0), BuildingBlock: MIFKUJ_clean_linker_0, # of connection points: 2
#     Edge 28, Type (0, 0), BuildingBlock: MIFKUJ_clean_linker_0, # of connection points: 2
#     Edge 29, Type (0, 0), BuildingBlock: MIFKUJ_clean_linker_0, # of connection points: 2
#     Edge 30, Type (0, 0), BuildingBlock: MIFKUJ_clean_linker_0, # of connection points: 2
#     Edge 31, Type (0, 0), BuildingBlock: MIFKUJ_clean_linker_0, # of connection points: 2
#     Edge 32, Type (0, 0), BuildingBlock: MIFKUJ_clean_linker_0, # of connection points: 2
#     Edge 33, Type (0, 0), BuildingBlock: MIFKUJ_clean_linker_0, # of connection points: 2
#     Edge 34, Type (0, 0), BuildingBlock: MIFKUJ_clean_linker_0, # of connection points: 2
#     Edge 35, Type (0, 0), BuildingBlock: MIFKUJ_clean_linker_0, # of connection points: 2
#     Edge 36, Type (0, 0), BuildingBlock: MIFKUJ_clean_linker_0, # of connection points: 2
#     Edge 37, Type (0, 0), BuildingBlock: MIFKUJ_clean_linker_0, # of connection points: 2
#     Edge 38, Type (0, 0), BuildingBlock: MIFKUJ_clean_linker_0, # of connection points: 2
#     Edge 39, Type (0, 0), BuildingBlock: MIFKUJ_clean_linker_0, # of connection points: 2
#     Edge 40, Type (0, 0), BuildingBlock: MIFKUJ_clean_linker_0, # of connection points: 2
#     Edge 41, Type (0, 0), BuildingBlock: MIFKUJ_clean_linker_0, # of connection points: 2
#     Edge 42, Type (0, 0), BuildingBlock: MIFKUJ_clean_linker_0, # of connection points: 2
#     Edge 43, Type (0, 0), BuildingBlock: MIFKUJ_clean_linker_0, # of connection points: 2
#     Edge 44, Type (0, 0), BuildingBlock: MIFKUJ_clean_linker_0, # of connection points: 2
#     Edge 45, Type (0, 0), BuildingBlock: MIFKUJ_clean_linker_0, # of connection points: 2
#     Edge 46, Type (0, 0), BuildingBlock: MIFKUJ_clean_linker_0, # of connection points: 2
#     Edge 47, Type (0, 0), BuildingBlock: MIFKUJ_clean_linker_0, # of connection points: 2
# Relax obj value: 0.070
# Max RMSD: 0.153
# Mean RMSD: 0.153
data_MOF--net-umh--node1-KOZSID_clean_sbu_0--edge1-MIFKUJ_clean_linker_0
_symmetry_space_group_name_H-M    P1
_symmetry_Int_Tables_number       1
_symmetry_cell_setting            triclinic
loop_
_symmetry_equiv_pos_as_xyz
'x, y, z'
_cell_length_a     67.078697
_cell_length_b     67.098783
_cell_length_c     75.953379
_cell_angle_alpha  90.014176
_cell_angle_beta   90.002415
_cell_angle_gamma 89.994404
loop_
_atom_site_label
_atom_site_type_symbol
_atom_site_fract_x
_atom_site_fract_y
_atom_site_fract_z
_atom_type_partial_charge
C0 C 0.31441 0.08512 0.16451 0.0
C1 C 0.29861 0.07199 0.16665 0.0
C2 C 0.29707 0.06141 0.15123 0.0
C3 C 0.312 0.0686 0.1406 0.0
N4 N 0.32278 0.08301 0.1484 0.0
Co5 Co 0.34554 0.09745 0.13786 0.0
N6 N 0.33696 0.09036 0.1137 0.0
C7 C 0.32462 0.0753 0.10941 0.0
C8 C 0.32167 0.07363 0.09159 0.0
C9 C 0.33301 0.08846 0.08423 0.0
C10 C 0.34228 0.0984 0.09804 0.0
N11 N 0.36833 0.11191 0.12729 0.0
C12 C 0.3712 0.11805 0.11046 0.0
C13 C 0.38954 0.12742 0.10872 0.0
C14 C 0.39845 0.12684 0.12501 0.0
C15 C 0.38512 0.11722 0.13579 0.0
N16 N 0.35391 0.10428 0.16215 0.0
C17 C 0.37222 0.11027 0.16705 0.0
C18 C 0.37326 0.11465 0.18471 0.0
C19 C 0.35444 0.11114 0.19124 0.0
C20 C 0.34294 0.10471 0.17717 0.0
N21 N 0.36207 0.07302 0.1388 0.0
C22 C 0.38938 0.04089 0.1409 0.0
C23 C 0.37655 0.04548 0.155 0.0
C24 C 0.36306 0.06153 0.15369 0.0
C25 C 0.38749 0.05233 0.12552 0.0
C26 C 0.37388 0.06813 0.12473 0.0
N27 N 0.32959 0.12205 0.13685 0.0
C28 C 0.32716 0.15742 0.14215 0.0
C29 C 0.30816 0.15822 0.13442 0.0
C30 C 0.30002 0.14016 0.12824 0.0
C31 C 0.31088 0.12229 0.12969 0.0
C32 C 0.3376 0.13943 0.14303 0.0
H33 H 0.30425 0.10871 0.12483 0.0
H34 H 0.3523 0.13968 0.1487 0.0
H35 H 0.35378 0.06497 0.1649 0.0
H36 H 0.37331 0.07671 0.11276 0.0
C37 C 0.31386 0.06519 0.12247 0.0
C38 C 0.32192 0.09844 0.17833 0.0
C39 C 0.35753 0.11389 0.09572 0.0
C40 C 0.38637 0.11557 0.15422 0.0
H41 H 0.2892 0.07026 0.17813 0.0
H42 H 0.28582 0.05047 0.1479 0.0
H43 H 0.31202 0.06326 0.08477 0.0
H44 H 0.33454 0.09137 0.07028 0.0
H45 H 0.39587 0.13385 0.09691 0.0
H46 H 0.41268 0.13323 0.12865 0.0
H47 H 0.38583 0.12076 0.19182 0.0
H48 H 0.34975 0.11333 0.20472 0.0
H49 H 0.37732 0.03717 0.16719 0.0
H50 H 0.39657 0.0492 0.11407 0.0
H51 H 0.33407 0.17059 0.14765 0.0
H52 H 0.28552 0.13977 0.12201 0.0
C53 C 0.42374 0.31305 0.66449 0.0
C54 C 0.43587 0.29634 0.66601 0.0
C55 C 0.44582 0.29446 0.65034 0.0
C56 C 0.43912 0.3099 0.64008 0.0
N57 N 0.42556 0.32136 0.64831 0.0
Co58 Co 0.41121 0.34441 0.63794 0.0
N59 N 0.41772 0.33582 0.61359 0.0
C60 C 0.43197 0.32264 0.60905 0.0
C61 C 0.4328 0.31922 0.59126 0.0
C62 C 0.41834 0.33114 0.58414 0.0
C63 C 0.40957 0.3414 0.59803 0.0
N64 N 0.39691 0.36751 0.62762 0.0
C65 C 0.39077 0.37077 0.61083 0.0
C66 C 0.38195 0.3894 0.60929 0.0
C67 C 0.38278 0.39807 0.62566 0.0
C68 C 0.39206 0.38434 0.63627 0.0
N69 N 0.40483 0.35281 0.66233 0.0
C70 C 0.39929 0.37121 0.66735 0.0
C71 C 0.39567 0.37245 0.68514 0.0
C72 C 0.39922 0.35365 0.69164 0.0
C73 C 0.40476 0.34195 0.6774 0.0
N74 N 0.43594 0.36056 0.63864 0.0
C75 C 0.46886 0.387 0.64039 0.0
C76 C 0.46389 0.37454 0.65463 0.0
C77 C 0.44753 0.36142 0.65346 0.0
C78 C 0.45716 0.3854 0.62512 0.0
C79 C 0.44096 0.37222 0.62451 0.0
N80 N 0.38634 0.3288 0.63721 0.0
C81 C 0.35096 0.32684 0.6428 0.0
C82 C 0.34995 0.3076 0.63559 0.0
C83 C 0.36787 0.29914 0.62944 0.0
C84 C 0.38583 0.30991 0.63044 0.0
C85 C 0.36908 0.33713 0.64336 0.0
H86 H 0.39928 0.30303 0.62558 0.0
H87 H 0.36905 0.35196 0.64879 0.0
H88 H 0.44404 0.35222 0.66471 0.0
H89 H 0.43218 0.3719 0.61265 0.0
C90 C 0.44189 0.31151 0.6219 0.0
C91 C 0.41122 0.32106 0.67874 0.0
C92 C 0.39492 0.35753 0.59581 0.0
C93 C 0.39405 0.38549 0.65466 0.0
H94 H 0.43725 0.28634 0.6771 0.0
H95 H 0.45581 0.28254 0.64656 0.0
H96 H 0.44227 0.30876 0.58434 0.0
H97 H 0.41482 0.33224 0.57027 0.0
H98 H 0.37588 0.39615 0.59751 0.0
H99 H 0.37691 0.41248 0.62942 0.0
H100 H 0.39025 0.38522 0.69241 0.0
H101 H 0.39791 0.34907 0.70525 0.0
H102 H 0.47256 0.37487 0.66665 0.0
H103 H 0.46006 0.39474 0.61378 0.0
H104 H 0.33785 0.33402 0.64816 0.0
H105 H 0.36804 0.28443 0.6236 0.0
C106 C 0.19629 0.42266 0.16572 0.0
C107 C 0.21358 0.43398 0.16707 0.0
C108 C 0.217 0.44197 0.15086 0.0
C109 C 0.20181 0.43502 0.14049 0.0
N110 N 0.18872 0.42324 0.14912 0.0
Co111 Co 0.1653 0.40896 0.1386 0.0
N112 N 0.17321 0.4169 0.11409 0.0
C113 C 0.18883 0.4285 0.10948 0.0
C114 C 0.19111 0.43076 0.09168 0.0
C115 C 0.17617 0.41974 0.0844 0.0
C116 C 0.16554 0.41142 0.09828 0.0
N117 N 0.14174 0.39493 0.12807 0.0
C118 C 0.13678 0.39179 0.11093 0.0
C119 C 0.11907 0.38126 0.10944 0.0
C120 C 0.11268 0.37751 0.12621 0.0
C121 C 0.12677 0.38595 0.13698 0.0
N122 N 0.158 0.40032 0.1631 0.0
C123 C 0.1417 0.38973 0.16787 0.0
C124 C 0.14134 0.38484 0.18539 0.0
C125 C 0.15865 0.39237 0.19217 0.0
C126 C 0.16863 0.40145 0.17833 0.0
N127 N 0.14852 0.43386 0.14097 0.0
C128 C 0.1226 0.46772 0.14205 0.0
C129 C 0.11792 0.44999 0.15079 0.0
C130 C 0.13086 0.4336 0.15014 0.0
C131 C 0.14087 0.46829 0.13308 0.0
C132 C 0.15351 0.45148 0.13283 0.0
N133 N 0.18151 0.38421 0.13619 0.0
C134 C 0.18422 0.34843 0.13954 0.0
C135 C 0.20381 0.34838 0.13319 0.0
C136 C 0.21207 0.36689 0.12848 0.0
C137 C 0.20076 0.3845 0.13012 0.0
C138 C 0.17346 0.36619 0.14076 0.0
H139 H 0.20777 0.39822 0.12639 0.0
H140 H 0.15858 0.36496 0.14553 0.0
H141 H 0.12591 0.42084 0.15707 0.0
H142 H 0.16718 0.45316 0.12587 0.0
C143 C 0.20129 0.43672 0.12222 0.0
C144 C 0.18824 0.4108 0.18027 0.0
C145 C 0.14845 0.39829 0.09572 0.0
C146 C 0.12758 0.38377 0.15531 0.0
H147 H 0.22325 0.43575 0.17835 0.0
H148 H 0.22971 0.45082 0.14686 0.0
H149 H 0.20247 0.43918 0.08481 0.0
H150 H 0.1735 0.41789 0.07044 0.0
H151 H 0.11172 0.37655 0.09745 0.0
H152 H 0.09966 0.36906 0.13008 0.0
H153 H 0.1301 0.37633 0.19232 0.0
H154 H 0.16354 0.39106 0.2057 0.0
H155 H 0.10398 0.44846 0.15785 0.0
H156 H 0.14554 0.48171 0.12633 0.0
H157 H 0.1771 0.3348 0.14385 0.0
H158 H 0.22709 0.36785 0.12334 0.0
C159 C 0.0851 0.19721 0.6621 0.0
C160 C 0.07238 0.21354 0.66274 0.0
C161 C 0.06264 0.21423 0.64688 0.0
C162 C 0.07005 0.19851 0.63735 0.0
N163 N 0.08389 0.18803 0.64622 0.0
Co164 Co 0.09912 0.16497 0.63699 0.0
N165 N 0.093 0.17226 0.61228 0.0
C166 C 0.07801 0.18418 0.60701 0.0
C167 C 0.07696 0.18611 0.58904 0.0
C168 C 0.09215 0.17454 0.58263 0.0
C169 C 0.10171 0.16623 0.59711 0.0
N170 N 0.11432 0.14188 0.62774 0.0
C171 C 0.12132 0.13834 0.61126 0.0
C172 C 0.1312 0.12018 0.6106 0.0
C173 C 0.12996 0.11202 0.62716 0.0
C174 C 0.11952 0.12563 0.63705 0.0
N175 N 0.10506 0.15787 0.66176 0.0
C176 C 0.11097 0.13987 0.66752 0.0
C177 C 0.11418 0.13955 0.6854 0.0
C178 C 0.10997 0.15853 0.69116 0.0
C179 C 0.10448 0.16942 0.67642 0.0
N180 N 0.07484 0.14816 0.63776 0.0
C181 C 0.0427 0.12078 0.63982 0.0
C182 C 0.04671 0.13427 0.65359 0.0
C183 C 0.06274 0.14779 0.65229 0.0
C184 C 0.05481 0.12201 0.62478 0.0
C185 C 0.07062 0.13564 0.62401 0.0
N186 N 0.12357 0.18122 0.6362 0.0
C187 C 0.15869 0.18437 0.64252 0.0
C188 C 0.1595 0.20318 0.63445 0.0
C189 C 0.14159 0.21084 0.62752 0.0
C190 C 0.12384 0.1997 0.62859 0.0
C191 C 0.14082 0.17369 0.64311 0.0
H192 H 0.11037 0.20595 0.62312 0.0
H193 H 0.14105 0.15919 0.64917 0.0
H194 H 0.06565 0.15761 0.66326 0.0
H195 H 0.07971 0.13569 0.61232 0.0
C196 C 0.06744 0.19563 0.61925 0.0
C197 C 0.09747 0.19021 0.67689 0.0
C198 C 0.11761 0.15122 0.59587 0.0
C199 C 0.11703 0.12522 0.65543 0.0
H200 H 0.07041 0.22406 0.67337 0.0
H201 H 0.05224 0.22552 0.64249 0.0
H202 H 0.06677 0.19526 0.58151 0.0
H203 H 0.09557 0.17224 0.56886 0.0
H204 H 0.13844 0.11346 0.59934 0.0
H205 H 0.13649 0.09815 0.63158 0.0
H206 H 0.11979 0.12728 0.69321 0.0
H207 H 0.11083 0.16375 0.70463 0.0
H208 H 0.03794 0.13403 0.66554 0.0
H209 H 0.05219 0.11241 0.61355 0.0
H210 H 0.17178 0.17784 0.64853 0.0
H211 H 0.14126 0.22518 0.621 0.0
C212 C 0.31398 0.42579 0.34342 0.0
C213 C 0.29741 0.4381 0.34185 0.0
C214 C 0.29568 0.44825 0.35743 0.0
C215 C 0.31104 0.44145 0.36773 0.0
N216 N 0.32228 0.42762 0.3596 0.0
Co217 Co 0.34502 0.41296 0.37017 0.0
N218 N 0.33632 0.4197 0.39442 0.0
C219 C 0.32343 0.43423 0.39885 0.0
C220 C 0.32004 0.43533 0.41664 0.0
C221 C 0.33169 0.42072 0.42388 0.0
C222 C 0.3417 0.41156 0.41004 0.0
N223 N 0.36792 0.39853 0.38071 0.0
C224 C 0.37095 0.39243 0.39753 0.0
C225 C 0.38949 0.38345 0.39925 0.0
C226 C 0.39834 0.38414 0.38295 0.0
C227 C 0.38479 0.3935 0.3722 0.0
N228 N 0.35343 0.40618 0.34589 0.0
C229 C 0.37176 0.40027 0.34099 0.0
C230 C 0.37302 0.39642 0.32324 0.0
C231 C 0.35431 0.40021 0.31664 0.0
C232 C 0.34263 0.40612 0.33077 0.0
N233 N 0.3615 0.43746 0.3694 0.0
C234 C 0.38825 0.47011 0.36757 0.0
C235 C 0.37595 0.46502 0.35324 0.0
C236 C 0.36267 0.44881 0.35445 0.0
C237 C 0.38634 0.45866 0.38295 0.0
C238 C 0.37301 0.44257 0.38359 0.0
N239 N 0.32905 0.38831 0.37091 0.0
C240 C 0.32712 0.35269 0.36673 0.0
C241 C 0.3071 0.3525 0.37195 0.0
C242 C 0.29822 0.37075 0.37649 0.0
C243 C 0.3095 0.38843 0.37609 0.0
C244 C 0.33769 0.37064 0.36612 0.0
H245 H 0.30243 0.40218 0.37999 0.0
H246 H 0.35294 0.37015 0.36173 0.0
H247 H 0.35358 0.44525 0.34315 0.0
H248 H 0.37246 0.43396 0.39555 0.0
C249 C 0.31259 0.44431 0.3859 0.0
C250 C 0.32188 0.41304 0.32926 0.0
C251 C 0.35749 0.39658 0.41238 0.0
C252 C 0.38599 0.39514 0.35378 0.0
H253 H 0.28731 0.43946 0.33083 0.0
H254 H 0.28388 0.4584 0.36116 0.0
H255 H 0.30983 0.44513 0.42349 0.0
H256 H 0.33284 0.41737 0.43777 0.0
H257 H 0.39603 0.37732 0.4111 0.0
H258 H 0.4127 0.37805 0.3793 0.0
H259 H 0.38575 0.39075 0.31607 0.0
H260 H 0.34979 0.39887 0.30301 0.0
H261 H 0.37653 0.47351 0.34112 0.0
H262 H 0.39553 0.46168 0.39436 0.0
H263 H 0.33454 0.33902 0.36288 0.0
H264 H 0.28279 0.3713 0.38067 0.0
C265 C 0.08431 0.31211 0.84414 0.0
C266 C 0.07188 0.29558 0.84321 0.0
C267 C 0.062 0.29448 0.85897 0.0
C268 C 0.06906 0.31015 0.86874 0.0
N269 N 0.08282 0.321 0.86013 0.0
Co270 Co 0.09768 0.34407 0.86984 0.0
N271 N 0.09135 0.33629 0.8944 0.0
C272 C 0.07649 0.32402 0.89934 0.0
C273 C 0.07512 0.32183 0.91725 0.0
C274 C 0.08994 0.3336 0.92402 0.0
C275 C 0.09962 0.34231 0.90978 0.0
N276 N 0.11253 0.36718 0.87954 0.0
C277 C 0.1191 0.37067 0.89617 0.0
C278 C 0.12878 0.38893 0.89712 0.0
C279 C 0.12781 0.39722 0.88061 0.0
C280 C 0.11773 0.3836 0.87045 0.0
N281 N 0.10381 0.35167 0.8452 0.0
C282 C 0.10959 0.36983 0.83974 0.0
C283 C 0.1129 0.37054 0.82188 0.0
C284 C 0.1089 0.35165 0.81581 0.0
C285 C 0.10344 0.3404 0.83035 0.0
N286 N 0.07323 0.36065 0.86907 0.0
C287 C 0.04104 0.38798 0.86705 0.0
C288 C 0.04524 0.37472 0.85316 0.0
C289 C 0.06131 0.36122 0.85443 0.0
C290 C 0.05295 0.38652 0.8822 0.0
C291 C 0.06877 0.37291 0.88295 0.0
N292 N 0.12232 0.32807 0.87061 0.0
C293 C 0.15752 0.32534 0.86441 0.0
C294 C 0.15847 0.3064 0.87222 0.0
C295 C 0.14058 0.29847 0.87898 0.0
C296 C 0.12273 0.30946 0.87797 0.0
C297 C 0.13954 0.33588 0.8639 0.0
H298 H 0.10929 0.30299 0.88329 0.0
H299 H 0.13968 0.35048 0.85804 0.0
H300 H 0.06439 0.3516 0.84337 0.0
H301 H 0.07769 0.3727 0.89473 0.0
C302 C 0.06624 0.31265 0.88685 0.0
C303 C 0.09665 0.31956 0.82952 0.0
C304 C 0.11504 0.35776 0.91147 0.0
C305 C 0.11543 0.3843 0.85207 0.0
H306 H 0.0702 0.28518 0.83244 0.0
H307 H 0.05175 0.28294 0.86313 0.0
H308 H 0.06492 0.31242 0.92452 0.0
H309 H 0.09297 0.33579 0.93788 0.0
H310 H 0.13566 0.39565 0.90855 0.0
H311 H 0.13422 0.41124 0.87641 0.0
H312 H 0.11844 0.38301 0.81429 0.0
H313 H 0.10989 0.3467 0.80227 0.0
H314 H 0.0366 0.37514 0.84113 0.0
H315 H 0.05016 0.39592 0.89352 0.0
H316 H 0.17056 0.33211 0.85854 0.0
H317 H 0.14034 0.28402 0.88529 0.0
C318 C 0.19652 0.08876 0.3414 0.0
C319 C 0.21225 0.07565 0.33878 0.0
C320 C 0.21436 0.06505 0.35413 0.0
C321 C 0.19982 0.07222 0.36519 0.0
N322 N 0.18873 0.08661 0.35772 0.0
Co323 Co 0.16622 0.1009 0.36889 0.0
N324 N 0.17563 0.09379 0.3928 0.0
C325 C 0.18842 0.07896 0.39673 0.0
C326 C 0.19201 0.07731 0.41446 0.0
C327 C 0.18062 0.09187 0.42217 0.0
C328 C 0.17063 0.10161 0.40864 0.0
N329 N 0.14355 0.11499 0.38008 0.0
C330 C 0.14099 0.12081 0.39703 0.0
C331 C 0.12248 0.12971 0.39927 0.0
C332 C 0.11316 0.12921 0.38316 0.0
C333 C 0.12643 0.12007 0.37199 0.0
N334 N 0.15713 0.10796 0.34485 0.0
C335 C 0.13868 0.11393 0.3404 0.0
C336 C 0.13712 0.11846 0.3228 0.0
C337 C 0.15575 0.11507 0.31583 0.0
C338 C 0.16767 0.10857 0.3296 0.0
N339 N 0.14987 0.0763 0.36814 0.0
C340 C 0.12325 0.04351 0.36644 0.0
C341 C 0.13526 0.04881 0.35198 0.0
C342 C 0.14846 0.0651 0.35311 0.0
C343 C 0.12539 0.05484 0.38188 0.0
C344 C 0.13867 0.07097 0.38246 0.0
N345 N 0.18204 0.12564 0.3696 0.0
C346 C 0.18372 0.16124 0.36528 0.0
C347 C 0.20395 0.16167 0.37002 0.0
C348 C 0.21286 0.1434 0.37471 0.0
C349 C 0.20166 0.12565 0.37451 0.0
C350 C 0.17321 0.14325 0.365 0.0
H351 H 0.2089 0.11191 0.37823 0.0
H352 H 0.15781 0.14368 0.36103 0.0
H353 H 0.15728 0.06885 0.3417 0.0
H354 H 0.13944 0.07945 0.39449 0.0
C355 C 0.19874 0.0689 0.38337 0.0
C356 C 0.18863 0.10226 0.3279 0.0
C357 C 0.15503 0.11667 0.41147 0.0
C358 C 0.12476 0.11878 0.35356 0.0
H359 H 0.22126 0.07397 0.32705 0.0
H360 H 0.22577 0.05416 0.35712 0.0
H361 H 0.20207 0.0671 0.421 0.0
H362 H 0.17953 0.09474 0.43615 0.0
H363 H 0.11629 0.13571 0.41132 0.0
H364 H 0.0987 0.13534 0.3799 0.0
H365 H 0.12429 0.1245 0.316 0.0
H366 H 0.16006 0.1173 0.30225 0.0
H367 H 0.13453 0.04043 0.33981 0.0
H368 H 0.11642 0.05172 0.39339 0.0
H369 H 0.17578 0.17476 0.36196 0.0
H370 H 0.22846 0.14268 0.3783 0.0
C371 C 0.42381 0.19754 0.84404 0.0
C372 C 0.436 0.21425 0.84302 0.0
C373 C 0.44578 0.21567 0.85881 0.0
C374 C 0.43889 0.2 0.86869 0.0
N375 N 0.42533 0.18886 0.8601 0.0
Co376 Co 0.41073 0.1657 0.86992 0.0
N377 N 0.41686 0.17382 0.89444 0.0
C378 C 0.43146 0.1864 0.89937 0.0
C379 C 0.43247 0.18897 0.91727 0.0
C380 C 0.41769 0.17714 0.92403 0.0
C381 C 0.40843 0.16798 0.9098 0.0
N382 N 0.3962 0.14249 0.87975 0.0
C383 C 0.38964 0.13909 0.89639 0.0
C384 C 0.38051 0.12058 0.89756 0.0
C385 C 0.3817 0.11208 0.88113 0.0
C386 C 0.39141 0.12583 0.87083 0.0
N387 N 0.40473 0.15777 0.84535 0.0
C388 C 0.3992 0.13948 0.84002 0.0
C389 C 0.39592 0.13855 0.82216 0.0
C390 C 0.39968 0.15744 0.81596 0.0
C391 C 0.405 0.16889 0.83042 0.0
N392 N 0.43541 0.14946 0.86931 0.0
C393 C 0.46833 0.12299 0.86756 0.0
C394 C 0.4636 0.13574 0.85345 0.0
C395 C 0.44725 0.14888 0.85462 0.0
C396 C 0.45637 0.1243 0.8827 0.0
C397 C 0.44017 0.1375 0.8833 0.0
N398 N 0.38589 0.18139 0.87053 0.0
C399 C 0.35062 0.18356 0.86446 0.0
C400 C 0.34954 0.20272 0.87182 0.0
C401 C 0.36736 0.21104 0.87831 0.0
C402 C 0.38532 0.2002 0.8775 0.0
C403 C 0.36871 0.17321 0.86405 0.0
H404 H 0.39871 0.20695 0.88264 0.0
H405 H 0.36873 0.15846 0.85847 0.0
H406 H 0.44397 0.15831 0.84348 0.0
H407 H 0.43118 0.13759 0.89505 0.0
C408 C 0.44162 0.19777 0.88683 0.0
C409 C 0.41162 0.18977 0.82944 0.0
C410 C 0.39318 0.1524 0.9115 0.0
C411 C 0.39368 0.12499 0.85245 0.0
H412 H 0.43757 0.22457 0.83218 0.0
H413 H 0.45582 0.2274 0.86293 0.0
H414 H 0.44236 0.19874 0.92452 0.0
H415 H 0.41435 0.17525 0.93787 0.0
H416 H 0.37387 0.11385 0.90911 0.0
H417 H 0.37567 0.09784 0.87709 0.0
H418 H 0.39059 0.12593 0.81465 0.0
H419 H 0.39868 0.16223 0.80239 0.0
H420 H 0.47247 0.13564 0.84155 0.0
H421 H 0.45908 0.11474 0.89392 0.0
H422 H 0.33758 0.1765 0.85885 0.0
H423 H 0.36747 0.22569 0.88428 0.0
C424 C 0.66762 0.90442 0.82912 0.0
C425 C 0.65593 0.89776 0.81526 0.0
C426 C 0.63725 0.89422 0.82205 0.0
C427 C 0.63854 0.89879 0.83966 0.0
N428 N 0.65688 0.90494 0.84428 0.0
Co429 Co 0.66568 0.91182 0.86845 0.0
N430 N 0.64298 0.89751 0.87939 0.0
C431 C 0.62603 0.89226 0.8711 0.0
C432 C 0.61288 0.8826 0.88203 0.0
C433 C 0.62207 0.88197 0.89819 0.0
C434 C 0.64037 0.89139 0.89626 0.0
N435 N 0.67483 0.91875 0.89248 0.0
C436 C 0.66974 0.91077 0.90823 0.0
C437 C 0.6793 0.92069 0.9219 0.0
C438 C 0.69061 0.93542 0.91436 0.0
C439 C 0.68734 0.93374 0.89659 0.0
N440 N 0.6882 0.92634 0.85755 0.0
C441 C 0.69906 0.94079 0.8652 0.0
C442 C 0.71368 0.94813 0.85432 0.0
C443 C 0.71185 0.9376 0.8389 0.0
C444 C 0.69621 0.92434 0.8413 0.0
N445 N 0.6492 0.93634 0.86779 0.0
C446 C 0.62258 0.96916 0.86628 0.0
C447 C 0.62462 0.95763 0.88161 0.0
C448 C 0.63788 0.94148 0.8821 0.0
C449 C 0.63465 0.96401 0.85181 0.0
C450 C 0.64785 0.9477 0.85285 0.0
N451 N 0.68162 0.88717 0.86907 0.0
C452 C 0.71254 0.86953 0.87409 0.0
C453 C 0.70374 0.85126 0.86924 0.0
C454 C 0.68351 0.85162 0.86448 0.0
C455 C 0.67291 0.86955 0.86431 0.0
C456 C 0.70123 0.88722 0.87402 0.0
H457 H 0.65754 0.86906 0.86029 0.0
H458 H 0.70837 0.90096 0.87787 0.0
H459 H 0.63856 0.93286 0.89404 0.0
H460 H 0.65675 0.94408 0.84144 0.0
C461 C 0.62457 0.89369 0.85268 0.0
C462 C 0.68858 0.91089 0.82763 0.0
C463 C 0.6543 0.8955 0.91085 0.0
C464 C 0.6977 0.94401 0.88337 0.0
H465 H 0.66042 0.89544 0.80174 0.0
H466 H 0.62458 0.88799 0.81514 0.0
H467 H 0.59864 0.87614 0.87855 0.0
H468 H 0.61594 0.87539 0.91002 0.0
H469 H 0.67792 0.9179 0.93588 0.0
H470 H 0.70036 0.94582 0.92104 0.0
H471 H 0.72495 0.95911 0.85748 0.0
H472 H 0.72098 0.93943 0.82726 0.0
H473 H 0.61558 0.96064 0.89312 0.0
H474 H 0.63398 0.97253 0.83972 0.0
H475 H 0.72812 0.87032 0.8777 0.0
H476 H 0.67564 0.83809 0.86106 0.0
C477 C 0.60778 0.66826 0.32997 0.0
C478 C 0.61413 0.65649 0.31605 0.0
C479 C 0.6175 0.63776 0.32283 0.0
C480 C 0.61308 0.63912 0.34047 0.0
N481 N 0.6072 0.65754 0.34511 0.0
Co482 Co 0.60023 0.66635 0.36926 0.0
N483 N 0.61452 0.64366 0.38018 0.0
C484 C 0.61968 0.62668 0.37192 0.0
C485 C 0.62898 0.61336 0.38294 0.0
C486 C 0.6295 0.62251 0.39913 0.0
C487 C 0.62048 0.64098 0.39708 0.0
N488 N 0.59307 0.67538 0.39328 0.0
C489 C 0.60096 0.67024 0.40905 0.0
C490 C 0.59122 0.68006 0.42267 0.0
C491 C 0.57656 0.69143 0.41509 0.0
C492 C 0.57817 0.68804 0.39733 0.0
N493 N 0.58593 0.68898 0.35834 0.0
C494 C 0.57156 0.7 0.36592 0.0
C495 C 0.56452 0.71477 0.35504 0.0
C496 C 0.57518 0.71289 0.3397 0.0
C497 C 0.58819 0.69704 0.34213 0.0
N498 N 0.57569 0.64994 0.36841 0.0
C499 C 0.54276 0.62352 0.36669 0.0
C500 C 0.55421 0.62544 0.38207 0.0
C501 C 0.57043 0.63859 0.38266 0.0
C502 C 0.54804 0.63558 0.35226 0.0
C503 C 0.56439 0.64872 0.35342 0.0
N504 N 0.6249 0.68223 0.37013 0.0
C505 C 0.64286 0.71229 0.37758 0.0
C506 C 0.66096 0.70397 0.37171 0.0
C507 C 0.6603 0.68455 0.36483 0.0
C508 C 0.64234 0.67399 0.36431 0.0
C509 C 0.62506 0.70125 0.37661 0.0
H510 H 0.64265 0.65905 0.35915 0.0
H511 H 0.61144 0.70804 0.38121 0.0
H512 H 0.57901 0.63917 0.39463 0.0
H513 H 0.56809 0.65766 0.34206 0.0
C514 C 0.61816 0.62513 0.35349 0.0
C515 C 0.60166 0.68928 0.32854 0.0
C516 C 0.61623 0.65481 0.41167 0.0
C517 C 0.56817 0.69859 0.38408 0.0
H518 H 0.61631 0.66096 0.30251 0.0
H519 H 0.6235 0.62501 0.31588 0.0
H520 H 0.63515 0.59896 0.37955 0.0
H521 H 0.63558 0.61623 0.41111 0.0
H522 H 0.59418 0.6789 0.43664 0.0
H523 H 0.56636 0.70143 0.42172 0.0
H524 H 0.55367 0.72618 0.35817 0.0
H525 H 0.57361 0.72211 0.32809 0.0
H526 H 0.55106 0.61639 0.39354 0.0
H527 H 0.53959 0.63496 0.34013 0.0
H528 H 0.6424 0.72712 0.38318 0.0
H529 H 0.67355 0.67745 0.35966 0.0
C530 C 0.8436 0.60818 0.8298 0.0
C531 C 0.85573 0.61484 0.81625 0.0
C532 C 0.87426 0.61809 0.82349 0.0
C533 C 0.87241 0.6133 0.84103 0.0
N534 N 0.85389 0.60728 0.84517 0.0
Co535 Co 0.84442 0.59978 0.86899 0.0
N536 N 0.86689 0.61372 0.88068 0.0
C537 C 0.88411 0.61896 0.87284 0.0
C538 C 0.89729 0.62777 0.88428 0.0
C539 C 0.88782 0.62786 0.90032 0.0
C540 C 0.86928 0.61912 0.89777 0.0
N541 N 0.83462 0.59222 0.8927 0.0
C542 C 0.83929 0.59977 0.90873 0.0
C543 C 0.82828 0.59042 0.92185 0.0
C544 C 0.81693 0.57612 0.91377 0.0
C545 C 0.82137 0.57765 0.89619 0.0
N546 N 0.82211 0.58569 0.85728 0.0
C547 C 0.81078 0.57125 0.86439 0.0
C548 C 0.79636 0.56441 0.85305 0.0
C549 C 0.79879 0.57528 0.8379 0.0
C550 C 0.81457 0.58821 0.84091 0.0
N551 N 0.86081 0.57522 0.86812 0.0
C552 C 0.8879 0.54286 0.86621 0.0
C553 C 0.8855 0.55392 0.88175 0.0
C554 C 0.87196 0.56981 0.88246 0.0
C555 C 0.87571 0.54796 0.85181 0.0
C556 C 0.86236 0.56414 0.85302 0.0
N557 N 0.82856 0.62448 0.86986 0.0
C558 C 0.79765 0.64209 0.87501 0.0
C559 C 0.80678 0.66041 0.87108 0.0
C560 C 0.82696 0.66022 0.86638 0.0
C561 C 0.83745 0.64222 0.8657 0.0
C562 C 0.80884 0.62434 0.87449 0.0
H563 H 0.85286 0.64274 0.86176 0.0
H564 H 0.80155 0.61052 0.87785 0.0
H565 H 0.8709 0.57802 0.8946 0.0
H566 H 0.85362 0.56799 0.84157 0.0
C567 C 0.88609 0.61794 0.85442 0.0
C568 C 0.82266 0.60201 0.82777 0.0
C569 C 0.8553 0.61431 0.91213 0.0
C570 C 0.81132 0.56784 0.88255 0.0
H571 H 0.85163 0.61724 0.80264 0.0
H572 H 0.88721 0.6242 0.81692 0.0
H573 H 0.91185 0.63384 0.88128 0.0
H574 H 0.89401 0.6334 0.91254 0.0
H575 H 0.82852 0.5934 0.93584 0.0
H576 H 0.80625 0.56625 0.91992 0.0
H577 H 0.78476 0.55363 0.85577 0.0
H578 H 0.7899 0.57398 0.82606 0.0
H579 H 0.89413 0.5504 0.89339 0.0
H580 H 0.87691 0.53994 0.83949 0.0
H581 H 0.78209 0.64151 0.87878 0.0
H582 H 0.8346 0.67391 0.86297 0.0
C583 C 0.90551 0.84347 0.32927 0.0
C584 C 0.89969 0.85478 0.31488 0.0
C585 C 0.89597 0.87369 0.3211 0.0
C586 C 0.89969 0.87289 0.3389 0.0
N587 N 0.90547 0.85466 0.34416 0.0
Co588 Co 0.91171 0.84668 0.36868 0.0
N589 N 0.89705 0.86969 0.37866 0.0
C590 C 0.89205 0.88636 0.36985 0.0
C591 C 0.88226 0.89993 0.38028 0.0
C592 C 0.88123 0.8913 0.39667 0.0
C593 C 0.89052 0.87288 0.39534 0.0
N594 N 0.91814 0.83849 0.39308 0.0
C595 C 0.9097 0.84409 0.4085 0.0
C596 C 0.91922 0.83499 0.42263 0.0
C597 C 0.9342 0.82348 0.41572 0.0
C598 C 0.93303 0.82615 0.39783 0.0
N599 N 0.92639 0.82373 0.35871 0.0
C600 C 0.94053 0.81302 0.36695 0.0
C601 C 0.94793 0.79787 0.35666 0.0
C602 C 0.93778 0.79921 0.341 0.0
C603 C 0.92471 0.81513 0.34265 0.0
N604 N 0.93624 0.86313 0.36798 0.0
C605 C 0.96908 0.88968 0.36631 0.0
C606 C 0.9572 0.88822 0.38148 0.0
C607 C 0.94102 0.875 0.38204 0.0
C608 C 0.96429 0.87708 0.35211 0.0
C609 C 0.94798 0.8639 0.35324 0.0
N610 N 0.88705 0.83077 0.36939 0.0
C611 C 0.86887 0.80101 0.37737 0.0
C612 C 0.85094 0.80912 0.3709 0.0
C613 C 0.8518 0.82824 0.36343 0.0
C614 C 0.86977 0.83876 0.36294 0.0
C615 C 0.88671 0.81201 0.37641 0.0
H616 H 0.86962 0.85349 0.35733 0.0
H617 H 0.9002 0.8054 0.38151 0.0
H618 H 0.93208 0.87479 0.39382 0.0
H619 H 0.94466 0.85455 0.34204 0.0
C620 C 0.89414 0.88729 0.35143 0.0
C621 C 0.91179 0.82247 0.32848 0.0
C622 C 0.8942 0.85943 0.41033 0.0
C623 C 0.94344 0.81514 0.38512 0.0
H624 H 0.89815 0.84986 0.30138 0.0
H625 H 0.89024 0.8862 0.31367 0.0
H626 H 0.87605 0.91414 0.37634 0.0
H627 H 0.87459 0.89787 0.40828 0.0
H628 H 0.91589 0.83674 0.43648 0.0
H629 H 0.94432 0.81389 0.42288 0.0
H630 H 0.9587 0.78661 0.36036 0.0
H631 H 0.93974 0.78959 0.32969 0.0
H632 H 0.95996 0.89768 0.39277 0.0
H633 H 0.9731 0.87733 0.34016 0.0
H634 H 0.86916 0.78642 0.38343 0.0
H635 H 0.83869 0.83514 0.35779 0.0
C636 C 0.66785 0.60624 0.67735 0.0
C637 C 0.65624 0.61308 0.69121 0.0
C638 C 0.63754 0.61663 0.68445 0.0
C639 C 0.63875 0.6119 0.66687 0.0
N640 N 0.65704 0.60563 0.66224 0.0
Co641 Co 0.66573 0.59849 0.63811 0.0
N642 N 0.64308 0.61283 0.62712 0.0
C643 C 0.62621 0.61831 0.63541 0.0
C644 C 0.6132 0.62816 0.62449 0.0
C645 C 0.62239 0.62868 0.60833 0.0
C646 C 0.64054 0.61896 0.61023 0.0
N647 N 0.67475 0.59127 0.61411 0.0
C648 C 0.66965 0.59913 0.59832 0.0
C649 C 0.67899 0.58891 0.5847 0.0
C650 C 0.6902 0.57415 0.59231 0.0
C651 C 0.68708 0.5761 0.61009 0.0
N652 N 0.68821 0.58396 0.64904 0.0
C653 C 0.69894 0.56935 0.64149 0.0
C654 C 0.71357 0.56204 0.65238 0.0
C655 C 0.71188 0.57277 0.66771 0.0
C656 C 0.6963 0.58609 0.66524 0.0
N657 N 0.64914 0.57407 0.63899 0.0
C658 C 0.62255 0.54127 0.64075 0.0
C659 C 0.62448 0.55272 0.62537 0.0
C660 C 0.63773 0.56886 0.62475 0.0
C661 C 0.63468 0.54651 0.65516 0.0
C662 C 0.64786 0.56281 0.65399 0.0
N663 N 0.68179 0.62304 0.63725 0.0
C664 C 0.71272 0.64051 0.63185 0.0
C665 C 0.70405 0.65884 0.63668 0.0
C666 C 0.68388 0.65861 0.64162 0.0
C667 C 0.67321 0.64074 0.64198 0.0
C668 C 0.70135 0.62287 0.63213 0.0
H669 H 0.65788 0.64132 0.64612 0.0
H670 H 0.70838 0.60906 0.62831 0.0
H671 H 0.63835 0.57742 0.61277 0.0
H672 H 0.65682 0.56649 0.66534 0.0
C673 C 0.62478 0.61702 0.65385 0.0
C674 C 0.68878 0.59972 0.67882 0.0
C675 C 0.65441 0.61461 0.59565 0.0
C676 C 0.69744 0.5659 0.62335 0.0
H677 H 0.66079 0.6155 0.7047 0.0
H678 H 0.62494 0.623 0.69135 0.0
H679 H 0.59907 0.63487 0.62799 0.0
H680 H 0.61637 0.63541 0.59654 0.0
H681 H 0.67753 0.59152 0.5707 0.0
H682 H 0.69979 0.56357 0.58569 0.0
H683 H 0.72474 0.55095 0.64928 0.0
H684 H 0.72104 0.57101 0.67933 0.0
H685 H 0.61538 0.54964 0.61391 0.0
H686 H 0.63407 0.53806 0.66728 0.0
H687 H 0.72826 0.63964 0.62809 0.0
H688 H 0.67612 0.6722 0.64504 0.0
C689 C 0.90467 0.66718 0.17734 0.0
C690 C 0.89742 0.65504 0.19066 0.0
C691 C 0.89409 0.63662 0.18326 0.0
C692 C 0.89933 0.63851 0.16584 0.0
N693 N 0.9057 0.65698 0.16191 0.0
Co694 Co 0.91327 0.66666 0.13816 0.0
N695 N 0.89915 0.64447 0.12625 0.0
C696 C 0.89374 0.6272 0.1339 0.0
C697 C 0.8847 0.61431 0.12233 0.0
C698 C 0.88464 0.62402 0.10641 0.0
C699 C 0.89364 0.6424 0.10915 0.0
N700 N 0.92088 0.6767 0.11455 0.0
C701 C 0.91332 0.67225 0.09847 0.0
C702 C 0.92304 0.683 0.0854 0.0
C703 C 0.9375 0.69406 0.09359 0.0
C704 C 0.93572 0.68966 0.11115 0.0
N705 N 0.92758 0.68867 0.15005 0.0
C706 C 0.94226 0.69978 0.14306 0.0
C707 C 0.94953 0.71377 0.1546 0.0
C708 C 0.93869 0.71129 0.16976 0.0
C709 C 0.92529 0.69594 0.16654 0.0
N710 N 0.93771 0.65009 0.13883 0.0
C711 C 0.97047 0.62342 0.14019 0.0
C712 C 0.95936 0.62606 0.1247 0.0
C713 C 0.94323 0.63935 0.12428 0.0
C714 C 0.96495 0.63492 0.15491 0.0
C715 C 0.94866 0.64814 0.15395 0.0
N716 N 0.88869 0.68271 0.13749 0.0
C717 C 0.87123 0.71379 0.13286 0.0
C718 C 0.85284 0.70485 0.1371 0.0
C719 C 0.85304 0.68451 0.14138 0.0
C720 C 0.87094 0.67388 0.14165 0.0
C721 C 0.88891 0.70246 0.13305 0.0
H722 H 0.87032 0.65838 0.14525 0.0
H723 H 0.90277 0.7097 0.12969 0.0
H724 H 0.93493 0.64052 0.11219 0.0
H725 H 0.94474 0.65658 0.16555 0.0
C726 C 0.89463 0.62504 0.1523 0.0
C727 C 0.91127 0.688 0.17961 0.0
C728 C 0.89844 0.6566 0.09499 0.0
C729 C 0.94573 0.69937 0.12489 0.0
H730 H 0.89455 0.65903 0.20422 0.0
H731 H 0.88754 0.62376 0.18961 0.0
H732 H 0.8784 0.59982 0.12519 0.0
H733 H 0.87891 0.61815 0.09414 0.0
H734 H 0.92022 0.68269 0.07138 0.0
H735 H 0.94769 0.70449 0.08749 0.0
H736 H 0.96065 0.72509 0.15204 0.0
H737 H 0.94036 0.71984 0.18176 0.0
H738 H 0.96266 0.61748 0.11298 0.0
H739 H 0.97315 0.63378 0.16715 0.0
H740 H 0.8721 0.72947 0.12962 0.0
H741 H 0.83939 0.67658 0.14434 0.0
C742 C 0.84314 0.902 0.6767 0.0
C743 C 0.85477 0.89537 0.69061 0.0
C744 C 0.87346 0.89176 0.68387 0.0
C745 C 0.87222 0.89631 0.66625 0.0
N746 N 0.85392 0.90252 0.66158 0.0
Co747 Co 0.8453 0.90978 0.63746 0.0
N748 N 0.868 0.89546 0.6265 0.0
C749 C 0.88488 0.89005 0.63482 0.0
C750 C 0.89812 0.88059 0.62384 0.0
C751 C 0.88906 0.88025 0.60761 0.0
C752 C 0.87074 0.88961 0.60957 0.0
N753 N 0.83637 0.91708 0.61345 0.0
C754 C 0.84152 0.90924 0.59764 0.0
C755 C 0.83198 0.91927 0.58402 0.0
C756 C 0.82066 0.93394 0.59164 0.0
C757 C 0.82387 0.93211 0.60942 0.0
N758 N 0.82279 0.92428 0.64841 0.0
C759 C 0.81197 0.93882 0.64084 0.0
C760 C 0.79727 0.94603 0.65172 0.0
C761 C 0.799 0.93531 0.66705 0.0
C762 C 0.81467 0.9221 0.6646 0.0
N763 N 0.86194 0.93417 0.63846 0.0
C764 C 0.88913 0.96645 0.64052 0.0
C765 C 0.88703 0.95518 0.62505 0.0
C766 C 0.87347 0.93931 0.62428 0.0
C767 C 0.87662 0.96155 0.65476 0.0
C768 C 0.86319 0.94543 0.65347 0.0
N769 N 0.8292 0.88526 0.63642 0.0
C770 C 0.7983 0.86799 0.63041 0.0
C771 C 0.80709 0.84959 0.63461 0.0
C772 C 0.82707 0.84956 0.63992 0.0
C773 C 0.83773 0.86744 0.6409 0.0
C774 C 0.80966 0.88561 0.63121 0.0
H775 H 0.85297 0.86678 0.64529 0.0
H776 H 0.80267 0.89949 0.62757 0.0
H777 H 0.87269 0.93092 0.61222 0.0
H778 H 0.85416 0.94179 0.66478 0.0
C779 C 0.88626 0.89128 0.65326 0.0
C780 C 0.82222 0.90849 0.67817 0.0
C781 C 0.85695 0.89397 0.59497 0.0
C782 C 0.81343 0.94222 0.62269 0.0
H783 H 0.85022 0.8932 0.70414 0.0
H784 H 0.88611 0.88556 0.69082 0.0
H785 H 0.91237 0.87411 0.6273 0.0
H786 H 0.8953 0.87396 0.5957 0.0
H787 H 0.83337 0.91655 0.57003 0.0
H788 H 0.81089 0.94436 0.58501 0.0
H789 H 0.78601 0.95703 0.64861 0.0
H790 H 0.78977 0.93697 0.67865 0.0
H791 H 0.89588 0.95852 0.6135 0.0
H792 H 0.87758 0.96969 0.66704 0.0
H793 H 0.7829 0.86873 0.6262 0.0
H794 H 0.83441 0.83578 0.64355 0.0
C795 C 0.60879 0.84272 0.17682 0.0
C796 C 0.61554 0.8545 0.1906 0.0
C797 C 0.61904 0.87314 0.1837 0.0
C798 C 0.61437 0.87172 0.16612 0.0
N799 N 0.60821 0.85335 0.16161 0.0
Co800 Co 0.60101 0.84447 0.13753 0.0
N801 N 0.61516 0.86716 0.12641 0.0
C802 C 0.62039 0.88418 0.13459 0.0
C803 C 0.62959 0.89746 0.12348 0.0
C804 C 0.62997 0.88827 0.10731 0.0
C805 C 0.62094 0.86982 0.10946 0.0
N806 N 0.59378 0.83527 0.11357 0.0
C807 C 0.60158 0.84035 0.09773 0.0
C808 C 0.59173 0.83052 0.08418 0.0
C809 C 0.57714 0.81915 0.09186 0.0
C810 C 0.57888 0.82259 0.10961 0.0
N811 N 0.58667 0.82195 0.14861 0.0
C812 C 0.5722 0.81099 0.14109 0.0
C813 C 0.56496 0.79643 0.15207 0.0
C814 C 0.57556 0.7984 0.16743 0.0
C815 C 0.58877 0.81406 0.1649 0.0
N816 N 0.5765 0.86089 0.13844 0.0
C817 C 0.54407 0.88786 0.14043 0.0
C818 C 0.55527 0.88571 0.12494 0.0
C819 C 0.57123 0.87225 0.1242 0.0
C820 C 0.5491 0.8755 0.15473 0.0
C821 C 0.56528 0.86218 0.15347 0.0
N822 N 0.62567 0.82858 0.13663 0.0
C823 C 0.64326 0.79779 0.13099 0.0
C824 C 0.66156 0.80682 0.13514 0.0
C825 C 0.66139 0.82687 0.14022 0.0
C826 C 0.6434 0.83735 0.14104 0.0
C827 C 0.62553 0.80897 0.13163 0.0
H828 H 0.64391 0.85265 0.14527 0.0
H829 H 0.61171 0.8018 0.12805 0.0
H830 H 0.57959 0.87144 0.11212 0.0
H831 H 0.56902 0.85326 0.16483 0.0
C832 C 0.61922 0.88569 0.15302 0.0
C833 C 0.60224 0.82183 0.17849 0.0
C834 C 0.61669 0.85589 0.09495 0.0
C835 C 0.56883 0.81223 0.12293 0.0
H836 H 0.61788 0.85012 0.20414 0.0
H837 H 0.62525 0.88586 0.19053 0.0
H838 H 0.63586 0.91184 0.12682 0.0
H839 H 0.63602 0.89449 0.0953 0.0
H840 H 0.59453 0.83173 0.07019 0.0
H841 H 0.56685 0.80919 0.0853 0.0
H842 H 0.55398 0.78511 0.14902 0.0
H843 H 0.5738 0.78935 0.17912 0.0
H844 H 0.55182 0.89444 0.11335 0.0
H845 H 0.54101 0.87652 0.16703 0.0
H846 H 0.6427 0.78232 0.12695 0.0
H847 H 0.67509 0.8344 0.14378 0.0
H848 H 0.40794 0.12264 0.93205 0.0
H849 H 0.40104 0.11643 0.96325 0.0
H850 H 0.3576 0.1639 0.9631 0.0
H851 H 0.36503 0.17041 0.93193 0.0
H852 H 0.37986 0.16735 0.99099 0.0
H853 H 0.34443 0.11298 0.96516 0.0
H854 H 0.33965 0.08355 0.94617 0.0
H855 H 0.38513 0.05216 0.97468 0.0
H856 H 0.39041 0.08151 0.99368 0.0
H857 H 0.33856 0.14155 0.07546 0.0
H858 H 0.344 0.14859 0.04404 0.0
H859 H 0.39234 0.10619 0.0432 0.0
H860 H 0.38686 0.09923 0.07459 0.0
H861 H 0.3664 0.10037 0.01589 0.0
H862 H 0.40177 0.15555 0.04142 0.0
H863 H 0.4058 0.18508 0.06042 0.0
H864 H 0.35894 0.21499 0.0324 0.0
H865 H 0.35443 0.18551 0.01339 0.0
C866 C 0.39658 0.13139 0.93863 0.0
C867 C 0.38665 0.14668 0.92956 0.0
C868 C 0.39265 0.12788 0.95647 0.0
C869 C 0.37855 0.13949 0.96561 0.0
C870 C 0.36847 0.15467 0.95642 0.0
C871 C 0.37254 0.15826 0.93858 0.0
C872 C 0.37502 0.13636 0.98488 0.0
C873 C 0.37658 0.15274 0.99636 0.0
C874 C 0.37115 0.11725 0.99208 0.0
C875 C 0.36794 0.09952 0.98075 0.0
C876 C 0.35352 0.09985 0.9673 0.0
C877 C 0.3507 0.08318 0.95655 0.0
C878 C 0.36211 0.06601 0.95919 0.0
C879 C 0.37632 0.06547 0.97263 0.0
C880 C 0.37922 0.08212 0.98341 0.0
C881 C 0.35061 0.13412 0.06859 0.0
C882 C 0.36258 0.12019 0.07743 0.0
C883 C 0.35368 0.13807 0.05066 0.0
C884 C 0.36867 0.12801 0.04122 0.0
C885 C 0.38072 0.11418 0.05016 0.0
C886 C 0.37774 0.11035 0.0681 0.0
C887 C 0.37133 0.13133 0.02192 0.0
C888 C 0.36959 0.11498 0.01046 0.0
C889 C 0.37488 0.15047 0.01473 0.0
C890 C 0.37762 0.16824 0.0261 0.0
C891 C 0.39221 0.16836 0.03941 0.0
C892 C 0.3946 0.1851 0.05016 0.0
C893 C 0.38259 0.20188 0.04765 0.0
C894 C 0.36821 0.20197 0.03435 0.0
C895 C 0.36573 0.18525 0.02357 0.0
H896 H 0.38447 0.21483 0.05599 0.0
H897 H 0.35991 0.05312 0.95085 0.0
H898 H 0.35078 0.36125 0.42933 0.0
H899 H 0.35668 0.35373 0.46067 0.0
H900 H 0.38256 0.41202 0.46774 0.0
H901 H 0.37695 0.41936 0.43646 0.0
H902 H 0.39191 0.3544 0.48269 0.0
H903 H 0.36246 0.43037 0.5064 0.0
H904 H 0.33968 0.45684 0.49621 0.0
H905 H 0.30584 0.41377 0.46696 0.0
H906 H 0.32823 0.38702 0.47718 0.0
H907 H 0.41895 0.37458 0.57121 0.0
H908 H 0.41149 0.38072 0.54005 0.0
H909 H 0.35099 0.36114 0.54829 0.0
H910 H 0.35865 0.35449 0.57951 0.0
H911 H 0.35624 0.39716 0.5258 0.0
H912 H 0.37832 0.32913 0.53176 0.0
H913 H 0.40142 0.30309 0.54217 0.0
H914 H 0.44886 0.32927 0.51207 0.0
H915 H 0.4261 0.35569 0.50172 0.0
C916 C 0.35807 0.37223 0.43757 0.0
C917 C 0.36335 0.39088 0.43063 0.0
C918 C 0.36141 0.36797 0.45542 0.0
C919 C 0.36984 0.38241 0.4666 0.0
C920 C 0.37587 0.40073 0.45942 0.0
C921 C 0.37274 0.40489 0.44159 0.0
C922 C 0.37143 0.37884 0.48591 0.0
C923 C 0.38407 0.36371 0.4921 0.0
C924 C 0.36107 0.39087 0.49824 0.0
C925 C 0.34713 0.40673 0.49245 0.0
C926 C 0.35008 0.42654 0.49789 0.0
C927 C 0.33725 0.44159 0.49208 0.0
C928 C 0.32135 0.437 0.48091 0.0
C929 C 0.31818 0.41732 0.47559 0.0
C930 C 0.33096 0.40221 0.48136 0.0
C931 C 0.40401 0.37181 0.56637 0.0
C932 C 0.38941 0.36383 0.57761 0.0
C933 C 0.39977 0.37529 0.54861 0.0
C934 C 0.38075 0.3712 0.54181 0.0
C935 C 0.36578 0.36435 0.55327 0.0
C936 C 0.37012 0.36057 0.57104 0.0
C937 C 0.37699 0.37298 0.52255 0.0
C938 C 0.36399 0.38779 0.51639 0.0
C939 C 0.38697 0.36063 0.51025 0.0
C940 C 0.40055 0.34448 0.51608 0.0
C941 C 0.39371 0.32941 0.52745 0.0
C942 C 0.40674 0.31457 0.53332 0.0
C943 C 0.42661 0.31455 0.52781 0.0
C944 C 0.43347 0.32932 0.51634 0.0
C945 C 0.4205 0.34422 0.51045 0.0
H946 H 0.43668 0.30307 0.5324 0.0
H947 H 0.31147 0.44868 0.47639 0.0
H948 H 0.10388 0.39056 0.93033 0.0
H949 H 0.11023 0.39741 0.96155 0.0
H950 H 0.14562 0.34387 0.96508 0.0
H951 H 0.13921 0.33706 0.93378 0.0
H952 H 0.1193 0.34597 0.99179 0.0
H953 H 0.16738 0.39 0.96621 0.0
H954 H 0.17932 0.41666 0.94652 0.0
H955 H 0.13981 0.45838 0.97141 0.0
H956 H 0.12739 0.4319 0.99109 0.0
H957 H 0.15961 0.36519 0.07746 0.0
H958 H 0.1541 0.35812 0.04609 0.0
H959 H 0.1196 0.41216 0.0414 0.0
H960 H 0.12537 0.41924 0.07274 0.0
H961 H 0.14591 0.40964 0.0152 0.0
H962 H 0.09753 0.36576 0.04052 0.0
H963 H 0.08528 0.33919 0.06015 0.0
H964 H 0.125 0.2973 0.03573 0.0
H965 H 0.13772 0.3237 0.01612 0.0
C966 C 0.11349 0.38061 0.93768 0.0
C967 C 0.1215 0.36356 0.92958 0.0
C968 C 0.11703 0.38444 0.95554 0.0
C969 C 0.12856 0.37126 0.96572 0.0
C970 C 0.13674 0.35431 0.95755 0.0
C971 C 0.13325 0.35052 0.93965 0.0
C972 C 0.13135 0.37471 0.98501 0.0
C973 C 0.12542 0.35978 0.99689 0.0
C974 C 0.13882 0.39292 0.99177 0.0
C975 C 0.14632 0.40891 0.98001 0.0
C976 C 0.16112 0.40482 0.96739 0.0
C977 C 0.16799 0.41991 0.95625 0.0
C978 C 0.16029 0.43919 0.95768 0.0
C979 C 0.14574 0.44344 0.9703 0.0
C980 C 0.13879 0.42839 0.98146 0.0
C981 C 0.15051 0.37528 0.06974 0.0
C982 C 0.14265 0.39258 0.07745 0.0
C983 C 0.14739 0.37129 0.05183 0.0
C984 C 0.1363 0.38453 0.04131 0.0
C985 C 0.12818 0.40169 0.04917 0.0
C986 C 0.1313 0.40566 0.06708 0.0
C987 C 0.13383 0.38091 0.022 0.0
C988 C 0.13982 0.39582 0.01011 0.0
C989 C 0.12638 0.36269 0.01523 0.0
C990 C 0.11872 0.34676 0.02697 0.0
C991 C 0.10377 0.35092 0.03943 0.0
C992 C 0.09672 0.33588 0.05054 0.0
C993 C 0.10439 0.31658 0.04922 0.0
C994 C 0.1191 0.31226 0.03676 0.0
C995 C 0.12622 0.32726 0.02563 0.0
H996 H 0.09891 0.30495 0.05783 0.0
H997 H 0.16564 0.45085 0.94904 0.0
H998 H 0.14238 0.173 0.57501 0.0
H999 H 0.1501 0.16744 0.54378 0.0
H1000 H 0.11619 0.11283 0.54485 0.0
H1001 H 0.10854 0.11842 0.57608 0.0
H1002 H 0.14956 0.10843 0.52503 0.0
H1003 H 0.09572 0.15527 0.52898 0.0
H1004 H 0.07879 0.18589 0.53892 0.0
H1005 H 0.12427 0.22152 0.5146 0.0
H1006 H 0.14159 0.19107 0.50466 0.0
H1007 H 0.1306 0.09674 0.43389 0.0
H1008 H 0.12534 0.10309 0.4654 0.0
H1009 H 0.16323 0.1549 0.46218 0.0
H1010 H 0.16856 0.1484 0.43059 0.0
H1011 H 0.12902 0.16123 0.48301 0.0
H1012 H 0.182 0.11365 0.47795 0.0
H1013 H 0.19782 0.08268 0.46747 0.0
H1014 H 0.15298 0.04801 0.49372 0.0
H1015 H 0.13668 0.07881 0.50412 0.0
C1016 C 0.13703 0.15958 0.56863 0.0
C1017 C 0.12521 0.14594 0.57799 0.0
C1018 C 0.14126 0.15649 0.55076 0.0
C1019 C 0.13354 0.13981 0.54184 0.0
C1020 C 0.12237 0.12577 0.5514 0.0
C1021 C 0.11811 0.12889 0.56927 0.0
C1022 C 0.13626 0.13749 0.52241 0.0
C1023 C 0.14488 0.1199 0.51586 0.0
C1024 C 0.13048 0.15256 0.51036 0.0
C1025 C 0.12006 0.17089 0.51623 0.0
C1026 C 0.10219 0.16963 0.52586 0.0
C1027 C 0.0925 0.18695 0.53146 0.0
C1028 C 0.10049 0.20564 0.52744 0.0
C1029 C 0.11813 0.20703 0.51773 0.0
C1030 C 0.12787 0.18975 0.51208 0.0
C1031 C 0.1375 0.10965 0.43991 0.0
C1032 C 0.14985 0.12219 0.42991 0.0
C1033 C 0.13461 0.11321 0.4579 0.0
C1034 C 0.14404 0.12937 0.46623 0.0
C1035 C 0.1558 0.14236 0.45605 0.0
C1036 C 0.15881 0.13869 0.43805 0.0
C1037 C 0.14225 0.13217 0.48567 0.0
C1038 C 0.13379 0.14981 0.49221 0.0
C1039 C 0.14808 0.11711 0.4977 0.0
C1040 C 0.15801 0.09855 0.49169 0.0
C1041 C 0.17542 0.09943 0.48139 0.0
C1042 C 0.18449 0.08191 0.47547 0.0
C1043 C 0.17638 0.06339 0.47989 0.0
C1044 C 0.15923 0.06237 0.49029 0.0
C1045 C 0.15007 0.07985 0.49621 0.0
H1046 H 0.18342 0.04984 0.47529 0.0
H1047 H 0.09298 0.21903 0.53182 0.0
H1048 H 0.64746 0.84105 0.07539 0.0
H1049 H 0.65453 0.84726 0.04406 0.0
H1050 H 0.60476 0.88792 0.04168 0.0
H1051 H 0.59781 0.88169 0.07296 0.0
H1052 H 0.60433 0.86177 0.01423 0.0
H1053 H 0.65195 0.90527 0.04151 0.0
H1054 H 0.6796 0.914 0.06146 0.0
H1055 H 0.718 0.87291 0.03445 0.0
H1056 H 0.69047 0.8637 0.01449 0.0
H1057 H 0.62325 0.9076 0.93146 0.0
H1058 H 0.61742 0.90004 0.96261 0.0
H1059 H 0.6697 0.86258 0.96314 0.0
H1060 H 0.67559 0.87038 0.93192 0.0
H1061 H 0.66931 0.88588 0.99148 0.0
H1062 H 0.6221 0.84275 0.9638 0.0
H1063 H 0.59455 0.83383 0.94382 0.0
H1064 H 0.55544 0.8736 0.97156 0.0
H1065 H 0.58286 0.88301 0.99155 0.0
C1066 C 0.6383 0.85154 0.06817 0.0
C1067 C 0.6223 0.86112 0.07653 0.0
C1068 C 0.64229 0.85507 0.0503 0.0
C1069 C 0.63024 0.86815 0.04046 0.0
C1070 C 0.61428 0.87779 0.04893 0.0
C1071 C 0.6104 0.87436 0.0668 0.0
C1072 C 0.63388 0.87142 0.02126 0.0
C1073 C 0.61846 0.86728 0.00929 0.0
C1074 C 0.65249 0.87808 0.01469 0.0
C1075 C 0.66908 0.88363 0.02663 0.0
C1076 C 0.66624 0.89796 0.03992 0.0
C1077 C 0.6819 0.90302 0.05121 0.0
C1078 C 0.70053 0.89398 0.04925 0.0
C1079 C 0.70355 0.87988 0.03597 0.0
C1080 C 0.68793 0.87474 0.02466 0.0
C1081 C 0.63321 0.89741 0.93816 0.0
C1082 C 0.64957 0.88914 0.92922 0.0
C1083 C 0.62993 0.89313 0.95598 0.0
C1084 C 0.64295 0.88049 0.96527 0.0
C1085 C 0.65937 0.87228 0.95631 0.0
C1086 C 0.66265 0.87658 0.93846 0.0
C1087 C 0.63971 0.87632 0.98442 0.0
C1088 C 0.65519 0.88029 0.9964 0.0
C1089 C 0.62117 0.86943 0.991 0.0
C1090 C 0.6046 0.86372 0.97908 0.0
C1091 C 0.60767 0.84971 0.96556 0.0
C1092 C 0.59207 0.84455 0.95424 0.0
C1093 C 0.57327 0.85318 0.95639 0.0
C1094 C 0.57002 0.86695 0.9699 0.0
C1095 C 0.58558 0.87219 0.98123 0.0
H1096 H 0.5612 0.84916 0.94762 0.0
H1097 H 0.71264 0.89792 0.058 0.0
H1098 H 0.67729 0.63777 0.57417 0.0
H1099 H 0.67213 0.64493 0.54279 0.0
H1100 H 0.61671 0.6123 0.54417 0.0
H1101 H 0.6223 0.60459 0.57533 0.0
H1102 H 0.63711 0.6018 0.51629 0.0
H1103 H 0.6193 0.66515 0.54202 0.0
H1104 H 0.62501 0.69488 0.56046 0.0
H1105 H 0.67627 0.71014 0.5294 0.0
H1106 H 0.67099 0.68037 0.51089 0.0
H1107 H 0.59548 0.63205 0.43486 0.0
H1108 H 0.60305 0.62576 0.46594 0.0
H1109 H 0.6575 0.65955 0.4609 0.0
H1110 H 0.64948 0.6663 0.42983 0.0
H1111 H 0.6395 0.66958 0.49034 0.0
H1112 H 0.65695 0.6074 0.46392 0.0
H1113 H 0.65199 0.57755 0.44549 0.0
H1114 H 0.60263 0.55974 0.47785 0.0
H1115 H 0.60709 0.58966 0.49632 0.0
C1116 C 0.66385 0.63248 0.56778 0.0
C1117 C 0.64993 0.6211 0.57725 0.0
C1118 C 0.66088 0.63656 0.54986 0.0
C1119 C 0.64385 0.62943 0.54105 0.0
C1120 C 0.62991 0.6181 0.5506 0.0
C1121 C 0.63296 0.6139 0.56847 0.0
C1122 C 0.64086 0.63307 0.52178 0.0
C1123 C 0.63737 0.61667 0.51068 0.0
C1124 C 0.64186 0.65237 0.51424 0.0
C1125 C 0.64485 0.67044 0.52517 0.0
C1126 C 0.63185 0.67479 0.53918 0.0
C1127 C 0.635 0.69166 0.54964 0.0
C1128 C 0.65102 0.70436 0.54613 0.0
C1129 C 0.66387 0.70027 0.53211 0.0
C1130 C 0.66079 0.68343 0.52162 0.0
C1131 C 0.60917 0.63788 0.4404 0.0
C1132 C 0.62203 0.64946 0.43002 0.0
C1133 C 0.61353 0.63428 0.45814 0.0
C1134 C 0.63102 0.64193 0.46584 0.0
C1135 C 0.64396 0.65342 0.45534 0.0
C1136 C 0.63949 0.65716 0.43758 0.0
C1137 C 0.63546 0.63833 0.48489 0.0
C1138 C 0.63928 0.65471 0.49594 0.0
C1139 C 0.63486 0.61899 0.4924 0.0
C1140 C 0.63226 0.60087 0.48142 0.0
C1141 C 0.64495 0.59719 0.46704 0.0
C1142 C 0.64224 0.58025 0.45659 0.0
C1143 C 0.62698 0.56678 0.46048 0.0
C1144 C 0.61443 0.5702 0.47485 0.0
C1145 C 0.61706 0.58713 0.48532 0.0
H1146 H 0.6249 0.55368 0.45237 0.0
H1147 H 0.65346 0.71739 0.55425 0.0
H1148 H 0.85419 0.65076 0.92835 0.0
H1149 H 0.86161 0.65842 0.95941 0.0
H1150 H 0.87581 0.59662 0.96861 0.0
H1151 H 0.86894 0.58911 0.93759 0.0
H1152 H 0.84979 0.61291 0.99425 0.0
H1153 H 0.91214 0.62753 0.96574 0.0
H1154 H 0.9337 0.64402 0.94387 0.0
H1155 H 0.91744 0.70128 0.96466 0.0
H1156 H 0.89548 0.68512 0.98647 0.0
H1157 H 0.9227 0.64018 0.07019 0.0
H1158 H 0.9152 0.63346 0.03913 0.0
H1159 H 0.85516 0.6548 0.04688 0.0
H1160 H 0.8628 0.66164 0.07803 0.0
H1161 H 0.90388 0.65883 0.01268 0.0
H1162 H 0.82446 0.6269 0.01924 0.0
H1163 H 0.80381 0.60915 0.04108 0.0
H1164 H 0.85643 0.58395 0.06433 0.0
H1165 H 0.87735 0.60127 0.04247 0.0
C1166 C 0.85901 0.6389 0.93704 0.0
C1167 C 0.8607 0.61931 0.93071 0.0
C1168 C 0.8632 0.64325 0.95475 0.0
C1169 C 0.86908 0.62804 0.96641 0.0
C1170 C 0.87108 0.60854 0.95995 0.0
C1171 C 0.8672 0.60427 0.94224 0.0
C1172 C 0.87323 0.63235 0.98532 0.0
C1173 C 0.86154 0.62304 0.99827 0.0
C1174 C 0.8887 0.64539 0.99062 0.0
C1175 C 0.902 0.65512 0.97761 0.0
C1176 C 0.91302 0.64364 0.96555 0.0
C1177 C 0.92533 0.65293 0.95318 0.0
C1178 C 0.9269 0.67369 0.95285 0.0
C1179 C 0.91618 0.6852 0.96491 0.0
C1180 C 0.9038 0.67598 0.97729 0.0
C1181 C 0.90791 0.6434 0.06521 0.0
C1182 C 0.89335 0.65156 0.07638 0.0
C1183 C 0.90365 0.63965 0.04747 0.0
C1184 C 0.88463 0.64366 0.04059 0.0
C1185 C 0.86993 0.6515 0.05187 0.0
C1186 C 0.87425 0.65539 0.06963 0.0
C1187 C 0.88029 0.63954 0.02165 0.0
C1188 C 0.89197 0.64887 0.00867 0.0
C1189 C 0.8649 0.6264 0.01633 0.0
C1190 C 0.85247 0.61557 0.02933 0.0
C1191 C 0.83161 0.6175 0.02897 0.0
C1192 C 0.81986 0.60752 0.04135 0.0
C1193 C 0.8288 0.59548 0.05412 0.0
C1194 C 0.84952 0.59333 0.05448 0.0
C1195 C 0.86133 0.60324 0.0421 0.0
H1196 H 0.81968 0.5878 0.06371 0.0
H1197 H 0.93645 0.68086 0.94327 0.0
H1198 H 0.90908 0.88849 0.43159 0.0
H1199 H 0.90188 0.89396 0.46293 0.0
H1200 H 0.85793 0.84707 0.46142 0.0
H1201 H 0.86527 0.84157 0.43002 0.0
H1202 H 0.84565 0.88058 0.48148 0.0
H1203 H 0.90204 0.83661 0.47691 0.0
H1204 H 0.93531 0.82647 0.46641 0.0
H1205 H 0.96134 0.87779 0.49115 0.0
H1206 H 0.92816 0.8884 0.50161 0.0
H1207 H 0.83721 0.86758 0.57395 0.0
H1208 H 0.84297 0.86083 0.54255 0.0
H1209 H 0.89277 0.90155 0.54294 0.0
H1210 H 0.88719 0.90791 0.57439 0.0
H1211 H 0.90167 0.87037 0.52321 0.0
H1212 H 0.84621 0.91499 0.52748 0.0
H1213 H 0.81324 0.92626 0.53781 0.0
H1214 H 0.78571 0.87553 0.51338 0.0
H1215 H 0.81859 0.86376 0.50315 0.0
C1216 C 0.89757 0.87971 0.4379 0.0
C1217 C 0.88749 0.86483 0.42842 0.0
C1218 C 0.89357 0.88271 0.45581 0.0
C1219 C 0.87946 0.87083 0.4646 0.0
C1220 C 0.86882 0.85645 0.45493 0.0
C1221 C 0.87296 0.85335 0.43703 0.0
C1222 C 0.87661 0.87271 0.48402 0.0
C1223 C 0.85782 0.87808 0.49063 0.0
C1224 C 0.89258 0.86988 0.49598 0.0
C1225 C 0.91259 0.86339 0.48991 0.0
C1226 C 0.91484 0.84581 0.48002 0.0
C1227 C 0.93368 0.83996 0.47409 0.0
C1228 C 0.95042 0.85151 0.47807 0.0
C1229 C 0.94835 0.86888 0.48805 0.0
C1230 C 0.92953 0.8748 0.494 0.0
C1231 C 0.84959 0.87475 0.56734 0.0
C1232 C 0.86194 0.88801 0.57656 0.0
C1233 C 0.85278 0.87106 0.54938 0.0
C1234 C 0.86817 0.88088 0.54022 0.0
C1235 C 0.88084 0.89374 0.54963 0.0
C1236 C 0.8777 0.89733 0.5676 0.0
C1237 C 0.87068 0.87832 0.52077 0.0
C1238 C 0.88944 0.87282 0.51412 0.0
C1239 C 0.85471 0.88121 0.50877 0.0
C1240 C 0.83489 0.88839 0.5147 0.0
C1241 C 0.83314 0.90616 0.52441 0.0
C1242 C 0.81447 0.91265 0.53024 0.0
C1243 C 0.7974 0.90159 0.52629 0.0
C1244 C 0.79896 0.88406 0.51645 0.0
C1245 C 0.81761 0.87747 0.51063 0.0
H1246 H 0.78295 0.90664 0.53082 0.0
H1247 H 0.96499 0.84697 0.47345 0.0
H1248 H 0.24428 0.3417 0.13772 0.0
H1249 H 0.26215 0.30987 0.1366 0.0
H1250 H 0.20723 0.27935 0.12494 0.0
H1251 H 0.18941 0.31097 0.12514 0.0
H1252 H 0.22973 0.26162 0.15279 0.0
H1253 H 0.23888 0.28517 0.09322 0.0
H1254 H 0.24934 0.30948 0.0707 0.0
H1255 H 0.30939 0.30732 0.0902 0.0
H1256 H 0.29922 0.2832 0.11302 0.0
H1257 H 0.2674 0.16525 0.13491 0.0
H1258 H 0.25004 0.19708 0.13299 0.0
H1259 H 0.30643 0.22776 0.12987 0.0
H1260 H 0.3238 0.19601 0.13009 0.0
H1261 H 0.28317 0.24605 0.10983 0.0
H1262 H 0.27581 0.22387 0.1693 0.0
H1263 H 0.26687 0.20038 0.19295 0.0
H1264 H 0.20574 0.20146 0.17618 0.0
H1265 H 0.2144 0.22472 0.1522 0.0
C1266 C 0.23599 0.32832 0.1346 0.0
C1267 C 0.21523 0.32913 0.1317 0.0
C1268 C 0.24626 0.31006 0.13409 0.0
C1269 C 0.23603 0.29214 0.1308 0.0
C1270 C 0.21544 0.2929 0.12771 0.0
C1271 C 0.20523 0.31111 0.12795 0.0
C1272 C 0.24663 0.27254 0.13075 0.0
C1273 C 0.24128 0.25811 0.14328 0.0
C1274 C 0.2621 0.26813 0.1187 0.0
C1275 C 0.26824 0.28255 0.10494 0.0
C1276 C 0.25428 0.29002 0.09281 0.0
C1277 C 0.26016 0.30373 0.07997 0.0
C1278 C 0.28 0.30998 0.07905 0.0
C1279 C 0.29402 0.30249 0.09094 0.0
C1280 C 0.2882 0.28879 0.10382 0.0
C1281 C 0.2762 0.17867 0.1335 0.0
C1282 C 0.29719 0.17775 0.13292 0.0
C1283 C 0.26618 0.19703 0.1327 0.0
C1284 C 0.27682 0.2151 0.13177 0.0
C1285 C 0.29772 0.2142 0.13075 0.0
C1286 C 0.30772 0.19586 0.13117 0.0
C1287 C 0.26634 0.23491 0.13194 0.0
C1288 C 0.27169 0.24945 0.11942 0.0
C1289 C 0.25112 0.23959 0.14427 0.0
C1290 C 0.2458 0.22588 0.15885 0.0
C1291 C 0.26048 0.21902 0.1706 0.0
C1292 C 0.25546 0.20575 0.18407 0.0
C1293 C 0.23575 0.19939 0.18605 0.0
C1294 C 0.22101 0.20637 0.17461 0.0
C1295 C 0.22596 0.2196 0.16108 0.0
H1296 H 0.23189 0.18907 0.19645 0.0
H1297 H 0.28453 0.3206 0.0691 0.0
H1298 H 0.34264 0.26709 0.63851 0.0
H1299 H 0.31056 0.24977 0.63721 0.0
H1300 H 0.28045 0.30582 0.62958 0.0
H1301 H 0.31236 0.32319 0.63013 0.0
H1302 H 0.2621 0.28217 0.65515 0.0
H1303 H 0.286 0.27525 0.59565 0.0
H1304 H 0.31033 0.26581 0.57278 0.0
H1305 H 0.30817 0.20495 0.59015 0.0
H1306 H 0.28403 0.21409 0.6133 0.0
H1307 H 0.16592 0.24399 0.63535 0.0
H1308 H 0.19762 0.26182 0.63423 0.0
H1309 H 0.22911 0.20591 0.63099 0.0
H1310 H 0.19755 0.18809 0.63075 0.0
H1311 H 0.24701 0.22998 0.61087 0.0
H1312 H 0.22467 0.23561 0.67056 0.0
H1313 H 0.20135 0.2439 0.69458 0.0
H1314 H 0.20179 0.30534 0.67876 0.0
H1315 H 0.22492 0.29735 0.65449 0.0
C1316 C 0.32929 0.27579 0.63628 0.0
C1317 C 0.33035 0.29669 0.63451 0.0
C1318 C 0.31087 0.26582 0.63565 0.0
C1319 C 0.29299 0.27645 0.6333 0.0
C1320 C 0.29396 0.29725 0.63154 0.0
C1321 C 0.31234 0.3072 0.63198 0.0
C1322 C 0.27327 0.26599 0.63277 0.0
C1323 C 0.2587 0.27093 0.64533 0.0
C1324 C 0.26894 0.25092 0.62029 0.0
C1325 C 0.28336 0.24539 0.60632 0.0
C1326 C 0.29084 0.25988 0.59469 0.0
C1327 C 0.30457 0.25458 0.58166 0.0
C1328 C 0.31083 0.2348 0.58004 0.0
C1329 C 0.30333 0.22027 0.59143 0.0
C1330 C 0.28961 0.2255 0.6045 0.0
C1331 C 0.17952 0.23542 0.63412 0.0
C1332 C 0.17891 0.21443 0.63336 0.0
C1333 C 0.19778 0.24569 0.63375 0.0
C1334 C 0.21601 0.23531 0.63295 0.0
C1335 C 0.21541 0.21441 0.63176 0.0
C1336 C 0.1972 0.20416 0.63188 0.0
C1337 C 0.2357 0.24604 0.63335 0.0
C1338 C 0.25031 0.24119 0.62074 0.0
C1339 C 0.2402 0.26098 0.64599 0.0
C1340 C 0.22636 0.26584 0.6606 0.0
C1341 C 0.21968 0.25086 0.67213 0.0
C1342 C 0.20652 0.25551 0.6858 0.0
C1343 C 0.20005 0.27512 0.68816 0.0
C1344 C 0.20679 0.29014 0.67689 0.0
C1345 C 0.21993 0.28557 0.66319 0.0
H1346 H 0.18986 0.27869 0.69875 0.0
H1347 H 0.32146 0.23073 0.56995 0.0
H1348 H 0.27062 0.34375 0.35745 0.0
H1349 H 0.25333 0.31159 0.3571 0.0
H1350 H 0.30065 0.28577 0.38813 0.0
H1351 H 0.31835 0.31764 0.38768 0.0
H1352 H 0.29156 0.26022 0.36546 0.0
H1353 H 0.25111 0.29865 0.4047 0.0
H1354 H 0.23076 0.32726 0.41433 0.0
H1355 H 0.18944 0.31648 0.3722 0.0
H1356 H 0.20969 0.28793 0.36219 0.0
H1357 H 0.23521 0.17334 0.39162 0.0
H1358 H 0.25287 0.20525 0.39192 0.0
H1359 H 0.21591 0.22647 0.34954 0.0
H1360 H 0.19888 0.19443 0.34841 0.0
H1361 H 0.21939 0.25384 0.37844 0.0
H1362 H 0.26112 0.21446 0.34013 0.0
H1363 H 0.2816 0.18526 0.3323 0.0
H1364 H 0.32079 0.19741 0.37569 0.0
H1365 H 0.30035 0.22654 0.38394 0.0
C1366 C 0.27722 0.33123 0.36431 0.0
C1367 C 0.29583 0.33329 0.37264 0.0
C1368 C 0.26728 0.31279 0.36419 0.0
C1369 C 0.2754 0.29606 0.37284 0.0
C1370 C 0.29395 0.29825 0.38129 0.0
C1371 C 0.30407 0.31654 0.38109 0.0
C1372 C 0.26492 0.27621 0.37281 0.0
C1373 C 0.27584 0.25892 0.36859 0.0
C1374 C 0.24427 0.27418 0.37658 0.0
C1375 C 0.23202 0.29127 0.3826 0.0
C1376 C 0.23775 0.30246 0.39742 0.0
C1377 C 0.22623 0.31865 0.40296 0.0
C1378 C 0.20885 0.32371 0.39386 0.0
C1379 C 0.20293 0.31255 0.37923 0.0
C1380 C 0.21441 0.29635 0.37363 0.0
C1381 C 0.23098 0.18458 0.38212 0.0
C1382 C 0.21535 0.18105 0.37007 0.0
C1383 C 0.24105 0.20296 0.38242 0.0
C1384 C 0.23568 0.21838 0.37081 0.0
C1385 C 0.22021 0.21493 0.35876 0.0
C1386 C 0.21036 0.19651 0.35824 0.0
C1387 C 0.24609 0.2381 0.37119 0.0
C1388 C 0.23514 0.25529 0.37542 0.0
C1389 C 0.26674 0.24 0.36775 0.0
C1390 C 0.27908 0.22255 0.36276 0.0
C1391 C 0.274 0.2108 0.3481 0.0
C1392 C 0.28562 0.19428 0.34356 0.0
C1393 C 0.30245 0.18945 0.35352 0.0
C1394 C 0.30773 0.20116 0.36801 0.0
C1395 C 0.29614 0.21768 0.37261 0.0
H1396 H 0.31144 0.17666 0.34999 0.0
H1397 H 0.19995 0.33626 0.39816 0.0
H1398 H 0.34228 0.24325 0.86889 0.0
H1399 H 0.31017 0.26057 0.86983 0.0
H1400 H 0.27997 0.20452 0.87712 0.0
H1401 H 0.31189 0.18715 0.87686 0.0
H1402 H 0.26176 0.22799 0.85158 0.0
H1403 H 0.28536 0.23539 0.91117 0.0
H1404 H 0.30956 0.2451 0.93407 0.0
H1405 H 0.30726 0.3058 0.9163 0.0
H1406 H 0.28324 0.2964 0.89313 0.0
H1407 H 0.16525 0.26562 0.87107 0.0
H1408 H 0.19708 0.24803 0.87215 0.0
H1409 H 0.22812 0.30416 0.87564 0.0
H1410 H 0.19644 0.32173 0.87597 0.0
H1411 H 0.24624 0.28031 0.89562 0.0
H1412 H 0.22399 0.27425 0.83594 0.0
H1413 H 0.20082 0.26566 0.81189 0.0
H1414 H 0.20178 0.20429 0.82788 0.0
H1415 H 0.22476 0.21257 0.85218 0.0
C1416 C 0.32889 0.23456 0.87096 0.0
C1417 C 0.32993 0.21365 0.87272 0.0
C1418 C 0.31045 0.24453 0.8714 0.0
C1419 C 0.29254 0.2339 0.87355 0.0
C1420 C 0.2935 0.21309 0.8753 0.0
C1421 C 0.31189 0.20315 0.87505 0.0
C1422 C 0.27278 0.24434 0.87392 0.0
C1423 C 0.25827 0.23927 0.86134 0.0
C1424 C 0.26832 0.25946 0.88633 0.0
C1425 C 0.28266 0.26515 0.90031 0.0
C1426 C 0.29014 0.25078 0.91206 0.0
C1427 C 0.30379 0.25623 0.9251 0.0
C1428 C 0.30998 0.27604 0.92661 0.0
C1429 C 0.30247 0.29045 0.9151 0.0
C1430 C 0.28883 0.28507 0.90202 0.0
C1431 C 0.17877 0.2743 0.87234 0.0
C1432 C 0.17798 0.29528 0.87321 0.0
C1433 C 0.19712 0.26416 0.87268 0.0
C1434 C 0.21528 0.27467 0.87354 0.0
C1435 C 0.2145 0.29555 0.87482 0.0
C1436 C 0.1962 0.30567 0.87475 0.0
C1437 C 0.23506 0.26408 0.87319 0.0
C1438 C 0.24963 0.26908 0.88579 0.0
C1439 C 0.2397 0.2491 0.86061 0.0
C1440 C 0.22593 0.24407 0.84599 0.0
C1441 C 0.21914 0.25895 0.8344 0.0
C1442 C 0.20606 0.25413 0.82071 0.0
C1443 C 0.19978 0.23445 0.81839 0.0
C1444 C 0.20662 0.21953 0.82971 0.0
C1445 C 0.21969 0.22428 0.84344 0.0
H1446 H 0.18965 0.23075 0.80778 0.0
H1447 H 0.32056 0.28023 0.93671 0.0
H1448 H 0.73522 0.83965 0.89062 0.0
H1449 H 0.75295 0.80776 0.89078 0.0
H1450 H 0.7157 0.7865 0.84861 0.0
H1451 H 0.69869 0.81855 0.84753 0.0
H1452 H 0.71959 0.75945 0.87871 0.0
H1453 H 0.7595 0.79736 0.83791 0.0
H1454 H 0.77949 0.82632 0.82857 0.0
H1455 H 0.82055 0.81593 0.87097 0.0
H1456 H 0.80063 0.78704 0.88071 0.0
H1457 H 0.76992 0.66912 0.85724 0.0
H1458 H 0.75267 0.7013 0.85698 0.0
H1459 H 0.8009 0.72746 0.88665 0.0
H1460 H 0.81845 0.69552 0.8863 0.0
H1461 H 0.79112 0.75257 0.86335 0.0
H1462 H 0.75244 0.71516 0.90466 0.0
H1463 H 0.73247 0.68687 0.91554 0.0
H1464 H 0.68924 0.69683 0.87479 0.0
H1465 H 0.70908 0.72503 0.86352 0.0
C1466 C 0.73095 0.82841 0.88113 0.0
C1467 C 0.71523 0.83193 0.86916 0.0
C1468 C 0.74105 0.81005 0.88136 0.0
C1469 C 0.73558 0.79463 0.8698 0.0
C1470 C 0.72006 0.79805 0.85781 0.0
C1471 C 0.71021 0.81648 0.85733 0.0
C1472 C 0.74595 0.77491 0.87018 0.0
C1473 C 0.73518 0.75787 0.87517 0.0
C1474 C 0.76641 0.77289 0.86603 0.0
C1475 C 0.77845 0.79018 0.86015 0.0
C1476 C 0.77269 0.80136 0.84534 0.0
C1477 C 0.78403 0.81774 0.83995 0.0
C1478 C 0.80125 0.823 0.8492 0.0
C1479 C 0.8072 0.81185 0.86383 0.0
C1480 C 0.79589 0.79547 0.86928 0.0
C1481 C 0.77674 0.6817 0.86385 0.0
C1482 C 0.79556 0.6797 0.87181 0.0
C1483 C 0.76682 0.70016 0.86375 0.0
C1484 C 0.77523 0.71699 0.87202 0.0
C1485 C 0.79399 0.71489 0.88011 0.0
C1486 C 0.80404 0.69655 0.87994 0.0
C1487 C 0.7648 0.73685 0.87195 0.0
C1488 C 0.77555 0.75399 0.86699 0.0
C1489 C 0.74434 0.739 0.87639 0.0
C1490 C 0.73235 0.72208 0.88314 0.0
C1491 C 0.73874 0.71123 0.89794 0.0
C1492 C 0.72744 0.69522 0.90419 0.0
C1493 C 0.70963 0.69002 0.89583 0.0
C1494 C 0.70305 0.70085 0.88124 0.0
C1495 C 0.71431 0.71686 0.87492 0.0
H1496 H 0.70089 0.67762 0.90069 0.0
H1497 H 0.81002 0.83568 0.84501 0.0
H1498 H 0.66762 0.74459 0.36862 0.0
H1499 H 0.69932 0.76238 0.36965 0.0
H1500 H 0.73044 0.70673 0.37684 0.0
H1501 H 0.69881 0.68905 0.37725 0.0
H1502 H 0.7478 0.73198 0.39598 0.0
H1503 H 0.72763 0.73373 0.33562 0.0
H1504 H 0.70528 0.74032 0.3105 0.0
H1505 H 0.7051 0.80272 0.32304 0.0
H1506 H 0.72725 0.79646 0.34839 0.0
H1507 H 0.84415 0.76843 0.36876 0.0
H1508 H 0.81223 0.7508 0.36989 0.0
H1509 H 0.78135 0.8067 0.37572 0.0
H1510 H 0.81307 0.8244 0.37545 0.0
H1511 H 0.76435 0.78151 0.34979 0.0
H1512 H 0.78603 0.77814 0.4103 0.0
H1513 H 0.8096 0.77009 0.43417 0.0
H1514 H 0.80846 0.70838 0.41922 0.0
H1515 H 0.78508 0.71611 0.39508 0.0
C1516 C 0.68112 0.73608 0.3707 0.0
C1517 C 0.68039 0.7152 0.37264 0.0
C1518 C 0.6994 0.74632 0.37101 0.0
C1519 C 0.71755 0.73596 0.37289 0.0
C1520 C 0.71681 0.7152 0.37522 0.0
C1521 C 0.69856 0.705 0.3752 0.0
C1522 C 0.73726 0.74662 0.37248 0.0
C1523 C 0.75142 0.74259 0.3857 0.0
C1524 C 0.7422 0.76076 0.35927 0.0
C1525 C 0.72893 0.76459 0.34401 0.0
C1526 C 0.72271 0.74884 0.33309 0.0
C1527 C 0.7101 0.75252 0.3188 0.0
C1528 C 0.70373 0.77192 0.31521 0.0
C1529 C 0.71002 0.7877 0.32586 0.0
C1530 C 0.72261 0.78409 0.34018 0.0
C1531 C 0.83066 0.77704 0.37057 0.0
C1532 C 0.83145 0.798 0.37191 0.0
C1533 C 0.81234 0.76688 0.37109 0.0
C1534 C 0.79431 0.7774 0.37285 0.0
C1535 C 0.795 0.79824 0.3742 0.0
C1536 C 0.81328 0.80837 0.37392 0.0
C1537 C 0.7747 0.76677 0.37321 0.0
C1538 C 0.76062 0.77084 0.36 0.0
C1539 C 0.76999 0.75242 0.38622 0.0
C1540 C 0.78396 0.74774 0.40078 0.0
C1541 C 0.79093 0.76288 0.41201 0.0
C1542 C 0.80424 0.75837 0.42561 0.0
C1543 C 0.81057 0.73875 0.42818 0.0
C1544 C 0.80356 0.72358 0.41719 0.0
C1545 C 0.79028 0.72801 0.40356 0.0
H1546 H 0.82087 0.73528 0.43872 0.0
H1547 H 0.69396 0.77474 0.30414 0.0
H1548 H 0.77008 0.84101 0.64816 0.0
H1549 H 0.75264 0.80877 0.64804 0.0
H1550 H 0.80092 0.78271 0.61851 0.0
H1551 H 0.81851 0.81476 0.61883 0.0
H1552 H 0.76122 0.77228 0.60597 0.0
H1553 H 0.7999 0.77368 0.65983 0.0
H1554 H 0.81057 0.78832 0.68809 0.0
H1555 H 0.75033 0.78598 0.70711 0.0
H1556 H 0.73926 0.77159 0.67885 0.0
H1557 H 0.73517 0.67028 0.61485 0.0
H1558 H 0.75299 0.70196 0.61437 0.0
H1559 H 0.71623 0.7236 0.65686 0.0
H1560 H 0.69961 0.69151 0.65847 0.0
H1561 H 0.75022 0.73694 0.66249 0.0
H1562 H 0.7101 0.73687 0.61053 0.0
H1563 H 0.69684 0.7242 0.58238 0.0
H1564 H 0.75545 0.72637 0.55974 0.0
H1565 H 0.76912 0.73882 0.58784 0.0
C1566 C 0.77687 0.82845 0.6415 0.0
C1567 C 0.79572 0.83045 0.63356 0.0
C1568 C 0.76694 0.81001 0.6415 0.0
C1569 C 0.77549 0.79324 0.63332 0.0
C1570 C 0.794 0.79538 0.6249 0.0
C1571 C 0.80409 0.8137 0.62517 0.0
C1572 C 0.76549 0.77333 0.63401 0.0
C1573 C 0.75899 0.76442 0.61829 0.0
C1574 C 0.76204 0.7633 0.65012 0.0
C1575 C 0.76873 0.77175 0.66716 0.0
C1576 C 0.78891 0.77644 0.66999 0.0
C1577 C 0.79503 0.78466 0.68601 0.0
C1578 C 0.78113 0.78813 0.69937 0.0
C1579 C 0.76108 0.78331 0.69674 0.0
C1580 C 0.75488 0.77511 0.68073 0.0
C1581 C 0.73103 0.68159 0.62432 0.0
C1582 C 0.7156 0.67812 0.63655 0.0
C1583 C 0.74108 0.69997 0.62383 0.0
C1584 C 0.73572 0.71562 0.63526 0.0
C1585 C 0.72067 0.71201 0.64774 0.0
C1586 C 0.7109 0.69357 0.64846 0.0
C1587 C 0.74572 0.73568 0.63438 0.0
C1588 C 0.75232 0.74468 0.65009 0.0
C1589 C 0.74882 0.74601 0.61828 0.0
C1590 C 0.74066 0.73858 0.60135 0.0
C1591 C 0.72018 0.73451 0.59958 0.0
C1592 C 0.71259 0.72739 0.58363 0.0
C1593 C 0.7253 0.72443 0.5693 0.0
C1594 C 0.74563 0.72864 0.57087 0.0
C1595 C 0.7533 0.73574 0.5868 0.0
H1596 H 0.71939 0.71892 0.55696 0.0
H1597 H 0.7859 0.7945 0.71176 0.0
H1598 H 0.84154 0.73645 0.11578 0.0
H1599 H 0.80956 0.75406 0.11529 0.0
H1600 H 0.78786 0.7166 0.15715 0.0
H1601 H 0.81992 0.6996 0.15842 0.0
H1602 H 0.76101 0.72009 0.12806 0.0
H1603 H 0.79964 0.76195 0.16688 0.0
H1604 H 0.82858 0.78266 0.17502 0.0
H1605 H 0.81649 0.82193 0.13169 0.0
H1606 H 0.78764 0.80127 0.12313 0.0
H1607 H 0.67068 0.77034 0.14941 0.0
H1608 H 0.703 0.75332 0.14952 0.0
H1609 H 0.72823 0.80095 0.11851 0.0
H1610 H 0.69618 0.81834 0.11911 0.0
H1611 H 0.75384 0.79208 0.14137 0.0
H1612 H 0.716 0.75169 0.10177 0.0
H1613 H 0.68769 0.73113 0.0918 0.0
H1614 H 0.69875 0.68939 0.13352 0.0
H1615 H 0.72698 0.70984 0.14388 0.0
C1616 C 0.83016 0.73211 0.12512 0.0
C1617 C 0.83353 0.71634 0.13705 0.0
C1618 C 0.81176 0.74215 0.12472 0.0
C1619 C 0.7962 0.7366 0.13612 0.0
C1620 C 0.79952 0.72103 0.14809 0.0
C1621 C 0.81794 0.71121 0.14869 0.0
C1622 C 0.77642 0.74687 0.13557 0.0
C1623 C 0.75938 0.73579 0.13114 0.0
C1624 C 0.77432 0.76748 0.13909 0.0
C1625 C 0.79161 0.77994 0.14426 0.0
C1626 C 0.80326 0.7749 0.15899 0.0
C1627 C 0.81963 0.78665 0.1637 0.0
C1628 C 0.82441 0.80357 0.15385 0.0
C1629 C 0.81279 0.8088 0.13929 0.0
C1630 C 0.79642 0.79708 0.13451 0.0
C1631 C 0.68309 0.77706 0.14248 0.0
C1632 C 0.68083 0.79567 0.13421 0.0
C1633 C 0.70162 0.76728 0.14248 0.0
C1634 C 0.71823 0.77559 0.13379 0.0
C1635 C 0.71583 0.79412 0.12538 0.0
C1636 C 0.69744 0.80406 0.12567 0.0
C1637 C 0.73817 0.76534 0.1338 0.0
C1638 C 0.75533 0.7764 0.13817 0.0
C1639 C 0.74042 0.74476 0.12991 0.0
C1640 C 0.72348 0.7324 0.1237 0.0
C1641 C 0.7123 0.7382 0.10889 0.0
C1642 C 0.69629 0.72656 0.10316 0.0
C1643 C 0.69139 0.709 0.11205 0.0
C1644 C 0.70254 0.70301 0.12666 0.0
C1645 C 0.71856 0.71461 0.13246 0.0
H1646 H 0.67898 0.7 0.10759 0.0
H1647 H 0.83708 0.81265 0.15752 0.0
H1648 H 0.18254 0.08666 0.29496 0.0
H1649 H 0.20505 0.08841 0.2695 0.0
H1650 H 0.24514 0.12579 0.29919 0.0
H1651 H 0.22242 0.12426 0.32453 0.0
H1652 H 0.24347 0.13826 0.26552 0.0
H1653 H 0.25358 0.07647 0.29538 0.0
H1654 H 0.24346 0.04448 0.3086 0.0
H1655 H 0.22304 0.02387 0.2582 0.0
H1656 H 0.23272 0.05591 0.24473 0.0
H1657 H 0.32729 0.08284 0.21136 0.0
H1658 H 0.3051 0.08588 0.23694 0.0
H1659 H 0.26547 0.1231 0.20661 0.0
H1660 H 0.2879 0.1203 0.18117 0.0
H1661 H 0.26828 0.07399 0.24179 0.0
H1662 H 0.24069 0.15595 0.23486 0.0
H1663 H 0.25313 0.18846 0.22447 0.0
H1664 H 0.31345 0.1691 0.23246 0.0
H1665 H 0.3014 0.13671 0.24343 0.0
C1666 C 0.19588 0.09569 0.29583 0.0
C1667 C 0.20058 0.10566 0.31157 0.0
C1668 C 0.20887 0.09652 0.28136 0.0
C1669 C 0.22697 0.1071 0.2824 0.0
C1670 C 0.2313 0.1176 0.29796 0.0
C1671 C 0.21832 0.11675 0.31243 0.0
C1672 C 0.24184 0.10634 0.26768 0.0
C1673 C 0.2488 0.12421 0.26026 0.0
C1674 C 0.2493 0.08804 0.26107 0.0
C1675 C 0.24371 0.06866 0.26908 0.0
C1676 C 0.24681 0.06517 0.28713 0.0
C1677 C 0.24116 0.04703 0.29467 0.0
C1678 C 0.23257 0.03217 0.28425 0.0
C1679 C 0.22967 0.03541 0.26626 0.0
C1680 C 0.23524 0.05356 0.25866 0.0
C1681 C 0.31408 0.09205 0.21034 0.0
C1682 C 0.30956 0.10178 0.19446 0.0
C1683 C 0.30127 0.09361 0.22489 0.0
C1684 C 0.28361 0.1049 0.22388 0.0
C1685 C 0.27911 0.11461 0.20794 0.0
C1686 C 0.29193 0.11302 0.19339 0.0
C1687 C 0.26963 0.10595 0.23928 0.0
C1688 C 0.26286 0.08809 0.2469 0.0
C1689 C 0.26267 0.12429 0.24628 0.0
C1690 C 0.27011 0.14377 0.23974 0.0
C1691 C 0.25661 0.15864 0.23445 0.0
C1692 C 0.26359 0.17706 0.22846 0.0
C1693 C 0.28406 0.18079 0.22766 0.0
C1694 C 0.2976 0.16616 0.23299 0.0
C1695 C 0.29069 0.14776 0.23911 0.0
H1696 H 0.28943 0.19505 0.22299 0.0
H1697 H 0.22821 0.01813 0.29011 0.0
H1698 H 0.43997 0.31259 0.7031 0.0
H1699 H 0.43741 0.29021 0.72857 0.0
H1700 H 0.37476 0.28209 0.71814 0.0
H1701 H 0.37747 0.30414 0.69227 0.0
H1702 H 0.38681 0.2872 0.7562 0.0
H1703 H 0.40133 0.24798 0.70436 0.0
H1704 H 0.42048 0.24069 0.67742 0.0
H1705 H 0.47385 0.234 0.70808 0.0
H1706 H 0.45507 0.24166 0.73519 0.0
H1707 H 0.3777 0.20473 0.81449 0.0
H1708 H 0.37488 0.22613 0.78835 0.0
H1709 H 0.43862 0.22275 0.78102 0.0
H1710 H 0.4411 0.20035 0.80633 0.0
H1711 H 0.42364 0.22333 0.75089 0.0
H1712 H 0.41213 0.26416 0.80181 0.0
H1713 H 0.39557 0.27402 0.82947 0.0
H1714 H 0.33989 0.28015 0.80209 0.0
H1715 H 0.35609 0.27006 0.7743 0.0
C1716 C 0.42563 0.30615 0.70636 0.0
C1717 C 0.40899 0.30975 0.69558 0.0
C1718 C 0.42417 0.2934 0.7209 0.0
C1719 C 0.40594 0.2843 0.72518 0.0
C1720 C 0.38898 0.28891 0.71508 0.0
C1721 C 0.39052 0.30146 0.70033 0.0
C1722 C 0.40506 0.26897 0.73941 0.0
C1723 C 0.39458 0.27309 0.75498 0.0
C1724 C 0.41563 0.25078 0.738 0.0
C1725 C 0.42682 0.24555 0.72179 0.0
C1726 C 0.41717 0.24508 0.70535 0.0
C1727 C 0.42796 0.24088 0.69005 0.0
C1728 C 0.44838 0.23692 0.69103 0.0
C1729 C 0.45803 0.23709 0.70734 0.0
C1730 C 0.44732 0.24134 0.72268 0.0
C1731 C 0.39102 0.20843 0.80711 0.0
C1732 C 0.40968 0.20135 0.81267 0.0
C1733 C 0.38947 0.22084 0.79227 0.0
C1734 C 0.40662 0.22675 0.78288 0.0
C1735 C 0.42513 0.21873 0.788 0.0
C1736 C 0.42659 0.20602 0.80257 0.0
C1737 C 0.40553 0.24151 0.76802 0.0
C1738 C 0.41569 0.23733 0.75223 0.0
C1739 C 0.39498 0.25983 0.76939 0.0
C1740 C 0.38527 0.26615 0.78602 0.0
C1741 C 0.39633 0.26751 0.80171 0.0
C1742 C 0.38702 0.27314 0.81741 0.0
C1743 C 0.36668 0.27765 0.81754 0.0
C1744 C 0.35564 0.27662 0.80197 0.0
C1745 C 0.36488 0.27095 0.78624 0.0
H1746 H 0.35949 0.28199 0.82971 0.0
H1747 H 0.45671 0.2337 0.67917 0.0
H1748 H 0.1971 0.43975 0.2044 0.0
H1749 H 0.21999 0.43743 0.22956 0.0
H1750 H 0.22813 0.37476 0.21932 0.0
H1751 H 0.20563 0.37723 0.19376 0.0
H1752 H 0.22359 0.38737 0.25757 0.0
H1753 H 0.26178 0.40072 0.20481 0.0
H1754 H 0.26848 0.41944 0.17752 0.0
H1755 H 0.27607 0.47322 0.20741 0.0
H1756 H 0.269 0.45489 0.23488 0.0
H1757 H 0.30675 0.37882 0.31498 0.0
H1758 H 0.28521 0.3755 0.28898 0.0
H1759 H 0.28928 0.43896 0.28024 0.0
H1760 H 0.31196 0.44186 0.30532 0.0
H1761 H 0.28766 0.42348 0.25055 0.0
H1762 H 0.24785 0.41312 0.30242 0.0
H1763 H 0.23879 0.39697 0.33047 0.0
H1764 H 0.23186 0.34092 0.30385 0.0
H1765 H 0.24115 0.35671 0.27567 0.0
C1766 C 0.20363 0.42546 0.20766 0.0
C1767 C 0.19986 0.40873 0.19702 0.0
C1768 C 0.21667 0.42413 0.22202 0.0
C1769 C 0.22591 0.40595 0.22626 0.0
C1770 C 0.22119 0.38893 0.2163 0.0
C1771 C 0.20837 0.39034 0.20173 0.0
C1772 C 0.24156 0.4052 0.24022 0.0
C1773 C 0.23774 0.39499 0.25598 0.0
C1774 C 0.2598 0.41556 0.23832 0.0
C1775 C 0.2647 0.42646 0.22189 0.0
C1776 C 0.26475 0.41657 0.20556 0.0
C1777 C 0.26862 0.4271 0.19006 0.0
C1778 C 0.27266 0.44751 0.19073 0.0
C1779 C 0.27292 0.45741 0.20691 0.0
C1780 C 0.26899 0.44696 0.22246 0.0
C1781 C 0.30323 0.39195 0.30729 0.0
C1782 C 0.31054 0.41067 0.31241 0.0
C1783 C 0.29071 0.39012 0.29254 0.0
C1784 C 0.28487 0.40708 0.28285 0.0
C1785 C 0.29322 0.42561 0.28746 0.0
C1786 C 0.3061 0.42732 0.3019 0.0
C1787 C 0.26976 0.40582 0.26826 0.0
C1788 C 0.27363 0.41569 0.25227 0.0
C1789 C 0.25137 0.39548 0.27013 0.0
C1790 C 0.24539 0.38605 0.28698 0.0
C1791 C 0.24448 0.39734 0.30257 0.0
C1792 C 0.23931 0.38825 0.31849 0.0
C1793 C 0.23481 0.36792 0.31895 0.0
C1794 C 0.23539 0.35666 0.30348 0.0
C1795 C 0.24059 0.36567 0.28753 0.0
H1796 H 0.23085 0.3609 0.3313 0.0
H1797 H 0.27562 0.45565 0.17871 0.0
H1798 H 0.13093 0.2069 0.69127 0.0
H1799 H 0.13314 0.22898 0.71716 0.0
H1800 H 0.06981 0.22298 0.72528 0.0
H1801 H 0.06774 0.20047 0.69986 0.0
H1802 H 0.08441 0.2637 0.7245 0.0
H1803 H 0.09894 0.20009 0.75182 0.0
H1804 H 0.11793 0.16891 0.75546 0.0
H1805 H 0.17128 0.20245 0.76535 0.0
H1806 H 0.15267 0.23386 0.76145 0.0
H1807 H 0.06694 0.30913 0.80661 0.0
H1808 H 0.06917 0.28744 0.78085 0.0
H1809 H 0.1329 0.28322 0.78794 0.0
H1810 H 0.13031 0.30394 0.81458 0.0
H1811 H 0.12091 0.2487 0.77971 0.0
H1812 H 0.10883 0.31171 0.75354 0.0
H1813 H 0.09229 0.34404 0.74862 0.0
H1814 H 0.03806 0.31397 0.7346 0.0
H1815 H 0.05419 0.28144 0.73969 0.0
C1816 C 0.11757 0.21016 0.69875 0.0
C1817 C 0.09911 0.20232 0.69339 0.0
C1818 C 0.11881 0.22279 0.71349 0.0
C1819 C 0.10159 0.22784 0.72309 0.0
C1820 C 0.08326 0.2195 0.718 0.0
C1821 C 0.08209 0.20665 0.70349 0.0
C1822 C 0.10243 0.24217 0.73814 0.0
C1823 C 0.09222 0.26036 0.73665 0.0
C1824 C 0.11331 0.23821 0.75372 0.0
C1825 C 0.12446 0.21933 0.75612 0.0
C1826 C 0.11476 0.20082 0.75458 0.0
C1827 C 0.12545 0.1831 0.75673 0.0
C1828 C 0.14582 0.18369 0.76058 0.0
C1829 C 0.15552 0.20201 0.76233 0.0
C1830 C 0.14491 0.21978 0.76016 0.0
C1831 C 0.08141 0.3035 0.80268 0.0
C1832 C 0.0984 0.30789 0.81277 0.0
C1833 C 0.08275 0.29126 0.78778 0.0
C1834 C 0.10127 0.28373 0.78211 0.0
C1835 C 0.11839 0.28867 0.79195 0.0
C1836 C 0.11696 0.30063 0.8071 0.0
C1837 C 0.10255 0.27029 0.76629 0.0
C1838 C 0.11319 0.25224 0.76756 0.0
C1839 C 0.09245 0.27459 0.7503 0.0
C1840 C 0.08269 0.29413 0.74714 0.0
C1841 C 0.09334 0.31199 0.74952 0.0
C1842 C 0.08404 0.33035 0.74669 0.0
C1843 C 0.06412 0.33106 0.74133 0.0
C1844 C 0.05348 0.3134 0.73876 0.0
C1845 C 0.0627 0.29499 0.7416 0.0
H1846 H 0.05695 0.34529 0.73915 0.0
H1847 H 0.15406 0.16996 0.76224 0.0
H1848 H 0.68228 0.92499 0.79412 0.0
H1849 H 0.70451 0.92208 0.76856 0.0
H1850 H 0.74602 0.88803 0.79983 0.0
H1851 H 0.72347 0.89047 0.82518 0.0
H1852 H 0.74055 0.93563 0.76318 0.0
H1853 H 0.77309 0.8569 0.77421 0.0
H1854 H 0.76287 0.82468 0.78702 0.0
H1855 H 0.70155 0.8381 0.77593 0.0
H1856 H 0.71142 0.8703 0.76291 0.0
H1857 H 0.82749 0.92497 0.71085 0.0
H1858 H 0.80487 0.923 0.73625 0.0
H1859 H 0.7662 0.88376 0.70698 0.0
H1860 H 0.78894 0.88566 0.68164 0.0
H1861 H 0.76903 0.87193 0.74151 0.0
H1862 H 0.75567 0.93226 0.70977 0.0
H1863 H 0.76444 0.96426 0.69584 0.0
H1864 H 0.78378 0.98721 0.74579 0.0
H1865 H 0.77542 0.9552 0.75997 0.0
C1866 C 0.69587 0.91639 0.79534 0.0
C1867 C 0.70087 0.90742 0.81147 0.0
C1868 C 0.70873 0.91495 0.7808 0.0
C1869 C 0.72694 0.90461 0.78207 0.0
C1870 C 0.73193 0.89571 0.79826 0.0
C1871 C 0.71904 0.8971 0.81277 0.0
C1872 C 0.74099 0.90377 0.76669 0.0
C1873 C 0.74674 0.92166 0.7585 0.0
C1874 C 0.74906 0.8856 0.7603 0.0
C1875 C 0.74299 0.86607 0.76773 0.0
C1876 C 0.75744 0.85292 0.77443 0.0
C1877 C 0.7517 0.83468 0.78175 0.0
C1878 C 0.73157 0.82937 0.78232 0.0
C1879 C 0.71713 0.84226 0.77553 0.0
C1880 C 0.72278 0.86052 0.7682 0.0
C1881 C 0.8144 0.91555 0.71005 0.0
C1882 C 0.81011 0.90518 0.69443 0.0
C1883 C 0.80138 0.91456 0.72449 0.0
C1884 C 0.78368 0.90332 0.72357 0.0
C1885 C 0.77975 0.89245 0.70812 0.0
C1886 C 0.79273 0.89352 0.69365 0.0
C1887 C 0.76878 0.9038 0.73827 0.0
C1888 C 0.76287 0.88587 0.74628 0.0
C1889 C 0.76034 0.92191 0.74435 0.0
C1890 C 0.76508 0.94127 0.73591 0.0
C1891 C 0.76191 0.94409 0.71777 0.0
C1892 C 0.7668 0.96223 0.70983 0.0
C1893 C 0.7747 0.97774 0.71992 0.0
C1894 C 0.77768 0.97516 0.73799 0.0
C1895 C 0.77286 0.95703 0.74599 0.0
H1896 H 0.77848 0.99178 0.71375 0.0
H1897 H 0.72716 0.81526 0.78802 0.0
H1898 H 0.6249 0.72228 0.32532 0.0
H1899 H 0.6273 0.74506 0.30006 0.0
H1900 H 0.58787 0.70693 0.27041 0.0
H1901 H 0.58538 0.6843 0.29574 0.0
H1902 H 0.63948 0.74244 0.26592 0.0
H1903 H 0.55628 0.73656 0.24636 0.0
H1904 H 0.52399 0.72869 0.26027 0.0
H1905 H 0.54659 0.74788 0.31038 0.0
H1906 H 0.57888 0.75619 0.29672 0.0
H1907 H 0.62274 0.78706 0.18166 0.0
H1908 H 0.62475 0.76493 0.20732 0.0
H1909 H 0.59001 0.80685 0.23757 0.0
H1910 H 0.58759 0.82868 0.21171 0.0
H1911 H 0.57632 0.77098 0.24312 0.0
H1912 H 0.64136 0.80009 0.24424 0.0
H1913 H 0.67401 0.81003 0.23217 0.0
H1914 H 0.68835 0.74869 0.22218 0.0
H1915 H 0.65567 0.7384 0.23399 0.0
C1916 C 0.6171 0.71862 0.31325 0.0
C1917 C 0.60524 0.70139 0.31234 0.0
C1918 C 0.61845 0.73163 0.29883 0.0
C1919 C 0.60767 0.72786 0.2833 0.0
C1920 C 0.59623 0.7103 0.28225 0.0
C1921 C 0.59495 0.69726 0.29665 0.0
C1922 C 0.60754 0.74277 0.26862 0.0
C1923 C 0.62566 0.74861 0.26089 0.0
C1924 C 0.58959 0.75129 0.26226 0.0
C1925 C 0.57006 0.7468 0.27053 0.0
C1926 C 0.55432 0.7392 0.26032 0.0
C1927 C 0.53602 0.73465 0.26817 0.0
C1928 C 0.53326 0.73772 0.28621 0.0
C1929 C 0.54876 0.74545 0.29642 0.0
C1930 C 0.56707 0.75008 0.28863 0.0
C1931 C 0.61588 0.79167 0.19392 0.0
C1932 C 0.60549 0.80983 0.19485 0.0
C1933 C 0.61701 0.77903 0.2086 0.0
C1934 C 0.60777 0.78424 0.22459 0.0
C1935 C 0.59739 0.80246 0.22549 0.0
C1936 C 0.59622 0.81508 0.21078 0.0
C1937 C 0.60826 0.7704 0.2401 0.0
C1938 C 0.59017 0.76477 0.24804 0.0
C1939 C 0.62628 0.76237 0.24685 0.0
C1940 C 0.64599 0.76849 0.23986 0.0
C1941 C 0.65142 0.78873 0.23936 0.0
C1942 C 0.66994 0.79443 0.23258 0.0
C1943 C 0.68322 0.78001 0.22637 0.0
C1944 C 0.67804 0.75985 0.22698 0.0
C1945 C 0.65953 0.75407 0.23373 0.0
H1946 H 0.69755 0.78445 0.22112 0.0
H1947 H 0.5191 0.73415 0.29226 0.0
H1948 H 0.7899 0.6255 0.82417 0.0
H1949 H 0.76722 0.6276 0.79882 0.0
H1950 H 0.8056 0.58803 0.76958 0.0
H1951 H 0.82819 0.5859 0.795 0.0
H1952 H 0.76981 0.63918 0.7643 0.0
H1953 H 0.77589 0.55567 0.74638 0.0
H1954 H 0.78395 0.52372 0.76081 0.0
H1955 H 0.76474 0.54729 0.81056 0.0
H1956 H 0.7563 0.57925 0.7964 0.0
H1957 H 0.72367 0.62016 0.68099 0.0
H1958 H 0.74635 0.6228 0.70623 0.0
H1959 H 0.70501 0.58897 0.73786 0.0
H1960 H 0.68264 0.58589 0.71242 0.0
H1961 H 0.74105 0.57541 0.74311 0.0
H1962 H 0.71188 0.64052 0.74318 0.0
H1963 H 0.70179 0.67274 0.73036 0.0
H1964 H 0.763 0.68666 0.71933 0.0
H1965 H 0.77345 0.65438 0.73188 0.0
C1966 C 0.79369 0.61767 0.81215 0.0
C1967 C 0.81095 0.60584 0.81139 0.0
C1968 C 0.78072 0.61883 0.79768 0.0
C1969 C 0.78456 0.60787 0.78226 0.0
C1970 C 0.80219 0.59654 0.78133 0.0
C1971 C 0.81521 0.59547 0.79577 0.0
C1972 C 0.76956 0.60733 0.76766 0.0
C1973 C 0.76359 0.62523 0.75961 0.0
C1974 C 0.761 0.58921 0.76174 0.0
C1975 C 0.76566 0.56991 0.77034 0.0
C1976 C 0.7733 0.554 0.76038 0.0
C1977 C 0.77795 0.53589 0.76852 0.0
C1978 C 0.77493 0.5335 0.7866 0.0
C1979 C 0.76715 0.54918 0.79657 0.0
C1980 C 0.76245 0.5673 0.78849 0.0
C1981 C 0.71931 0.61363 0.69345 0.0
C1982 C 0.70115 0.60332 0.6949 0.0
C1983 C 0.73227 0.61513 0.7079 0.0
C1984 C 0.72737 0.60633 0.72416 0.0
C1985 C 0.70916 0.59601 0.72557 0.0
C1986 C 0.69623 0.59448 0.71109 0.0
C1987 C 0.74152 0.60725 0.73945 0.0
C1988 C 0.74731 0.58939 0.74768 0.0
C1989 C 0.74964 0.62545 0.74571 0.0
C1990 C 0.74342 0.64496 0.73833 0.0
C1991 C 0.72318 0.6504 0.73792 0.0
C1992 C 0.7174 0.66868 0.73072 0.0
C1993 C 0.73174 0.68172 0.724 0.0
C1994 C 0.75191 0.67653 0.72453 0.0
C1995 C 0.75777 0.65826 0.7317 0.0
H1996 H 0.72723 0.69586 0.71842 0.0
H1997 H 0.77857 0.51949 0.79287 0.0
H1998 H 0.93197 0.82508 0.29727 0.0
H1999 H 0.92992 0.80239 0.27189 0.0
H2000 H 0.88429 0.76855 0.29847 0.0
H2001 H 0.88643 0.79125 0.32382 0.0
H2002 H 0.93751 0.76291 0.26978 0.0
H2003 H 0.85237 0.74952 0.26788 0.0
H2004 H 0.82128 0.76774 0.27445 0.0
H2005 H 0.85088 0.82339 0.26469 0.0
H2006 H 0.88206 0.8055 0.25791 0.0
H2007 H 0.9223 0.68008 0.21385 0.0
H2008 H 0.91956 0.70228 0.23937 0.0
H2009 H 0.89072 0.74647 0.20692 0.0
H2010 H 0.89253 0.7238 0.18165 0.0
H2011 H 0.87462 0.74795 0.23804 0.0
H2012 H 0.94215 0.74699 0.2168 0.0
H2013 H 0.97388 0.7311 0.20832 0.0
H2014 H 0.98113 0.70885 0.26094 0.0
H2015 H 0.94927 0.72435 0.26966 0.0
C2016 C 0.92128 0.81299 0.29749 0.0
C2017 C 0.90907 0.81009 0.31231 0.0
C2018 C 0.92022 0.79992 0.28308 0.0
C2019 C 0.90686 0.78375 0.28313 0.0
C2020 C 0.89453 0.78101 0.29794 0.0
C2021 C 0.89571 0.79399 0.3124 0.0
C2022 C 0.90618 0.76949 0.26795 0.0
C2023 C 0.92374 0.75962 0.26288 0.0
C2024 C 0.88832 0.76531 0.25869 0.0
C2025 C 0.86958 0.77616 0.26255 0.0
C2026 C 0.85221 0.76563 0.26708 0.0
C2027 C 0.83458 0.77591 0.27086 0.0
C2028 C 0.83412 0.79671 0.27004 0.0
C2029 C 0.85128 0.80729 0.2654 0.0
C2030 C 0.86894 0.79709 0.26162 0.0
C2031 C 0.91471 0.69422 0.21234 0.0
C2032 C 0.90719 0.70001 0.19584 0.0
C2033 C 0.91347 0.7071 0.22688 0.0
C2034 C 0.90521 0.72632 0.22514 0.0
C2035 C 0.89712 0.7318 0.20875 0.0
C2036 C 0.89815 0.71883 0.19429 0.0
C2037 C 0.90593 0.74108 0.24 0.0
C2038 C 0.88839 0.75109 0.245 0.0
C2039 C 0.92391 0.7457 0.24898 0.0
C2040 C 0.94325 0.7367 0.24384 0.0
C2041 C 0.95047 0.73864 0.22654 0.0
C2042 C 0.96848 0.7297 0.22169 0.0
C2043 C 0.9795 0.71895 0.23408 0.0
C2044 C 0.97257 0.71717 0.25136 0.0
C2045 C 0.95454 0.72603 0.25626 0.0
H2046 H 0.99343 0.71202 0.2303 0.0
H2047 H 0.82046 0.80463 0.27297 0.0
H2048 H 0.42758 0.04109 0.12776 0.0
H2049 H 0.45251 0.01468 0.12861 0.0
H2050 H 0.41201 0.9774 0.15786 0.0
H2051 H 0.38682 1.00392 0.15705 0.0
H2052 H 0.44894 0.97369 0.17094 0.0
H2053 H 0.42084 0.97006 0.1131 0.0
H2054 H 0.41014 0.98296 0.08421 0.0
H2055 H 0.47035 1.0001 0.07245 0.0
H2056 H 0.48138 0.98755 0.10139 0.0
H2057 H 0.50747 0.88511 0.15716 0.0
H2058 H 0.48075 0.91 0.15828 0.0
H2059 H 0.51667 0.95037 0.12757 0.0
H2060 H 0.5433 0.92565 0.12638 0.0
H2061 H 0.48041 0.95109 0.11533 0.0
H2062 H 0.50838 0.95586 0.17346 0.0
H2063 H 0.5192 0.9433 0.20244 0.0
H2064 H 0.45946 0.92412 0.21366 0.0
H2065 H 0.44834 0.93633 0.18463 0.0
C2066 C 0.42379 0.02723 0.13424 0.0
C2067 C 0.40491 0.0247 0.14212 0.0
C2068 C 0.43817 0.01206 0.13475 0.0
C2069 C 0.43417 0.99373 0.14301 0.0
C2070 C 0.41556 0.9913 0.15133 0.0
C2071 C 0.40113 0.00656 0.15088 0.0
C2072 C 0.44936 0.9772 0.14277 0.0
C2073 C 0.45558 0.96855 0.15873 0.0
C2074 C 0.45846 0.97058 0.12694 0.0
C2075 C 0.4519 0.97801 0.10948 0.0
C2076 C 0.43178 0.9767 0.1044 0.0
C2077 C 0.42566 0.98393 0.08801 0.0
C2078 C 0.43955 0.99238 0.07652 0.0
C2079 C 0.4596 0.99357 0.08138 0.0
C2080 C 0.4658 0.98638 0.09776 0.0
C2081 C 0.50979 0.89935 0.15078 0.0
C2082 C 0.52767 0.90318 0.14161 0.0
C2083 C 0.49443 0.91365 0.15143 0.0
C2084 C 0.49657 0.93231 0.14312 0.0
C2085 C 0.51443 0.93615 0.13403 0.0
C2086 C 0.52971 0.92188 0.13332 0.0
C2087 C 0.48023 0.94773 0.14352 0.0
C2088 C 0.47375 0.95615 0.12755 0.0
C2089 C 0.47094 0.95413 0.15934 0.0
C2090 C 0.47758 0.94681 0.17679 0.0
C2091 C 0.49759 0.94882 0.18205 0.0
C2092 C 0.50377 0.94179 0.19849 0.0
C2093 C 0.49004 0.93287 0.20986 0.0
C2094 C 0.47009 0.931 0.20482 0.0
C2095 C 0.46384 0.93799 0.18838 0.0
H2096 H 0.49485 0.92744 0.22259 0.0
H2097 H 0.43478 0.99798 0.06384 0.0
H2098 H 0.61214 0.51446 0.61477 0.0
H2099 H 0.58684 0.48834 0.61567 0.0
H2100 H 0.57382 0.50309 0.66968 0.0
H2101 H 0.59912 0.52941 0.66887 0.0
H2102 H 0.57361 0.46351 0.66573 0.0
H2103 H 0.54291 0.51785 0.6353 0.0
H2104 H 0.53997 0.54408 0.61272 0.0
H2105 H 0.54186 0.49979 0.57194 0.0
H2106 H 0.5451 0.47329 0.59428 0.0
H2107 H 0.48088 0.40999 0.6687 0.0
H2108 H 0.50718 0.43525 0.66972 0.0
H2109 H 0.52142 0.42338 0.61539 0.0
H2110 H 0.49524 0.39812 0.61427 0.0
H2111 H 0.52057 0.46209 0.62026 0.0
H2112 H 0.55165 0.40771 0.65089 0.0
H2113 H 0.55452 0.38162 0.67361 0.0
H2114 H 0.55159 0.4261 0.71418 0.0
H2115 H 0.54844 0.45245 0.6917 0.0
C2116 C 0.60385 0.51233 0.62685 0.0
C2117 C 0.60772 0.52437 0.64169 0.0
C2118 C 0.58931 0.49727 0.62735 0.0
C2119 C 0.57801 0.49379 0.64265 0.0
C2120 C 0.58221 0.50537 0.65767 0.0
C2121 C 0.59681 0.52045 0.65719 0.0
C2122 C 0.56174 0.47829 0.64287 0.0
C2123 C 0.56187 0.4634 0.65592 0.0
C2124 C 0.54647 0.47772 0.62993 0.0
C2125 C 0.54444 0.49361 0.61647 0.0
C2126 C 0.54285 0.51371 0.62151 0.0
C2127 C 0.5411 0.52863 0.60876 0.0
C2128 C 0.54078 0.52361 0.59091 0.0
C2129 C 0.54214 0.50366 0.58578 0.0
C2130 C 0.54392 0.48868 0.59848 0.0
C2131 C 0.48977 0.4125 0.65701 0.0
C2132 C 0.48574 0.40185 0.64139 0.0
C2133 C 0.50487 0.42706 0.65761 0.0
C2134 C 0.51657 0.43131 0.64267 0.0
C2135 C 0.51266 0.4206 0.62712 0.0
C2136 C 0.49756 0.4061 0.62649 0.0
C2137 C 0.53252 0.44715 0.64302 0.0
C2138 C 0.5323 0.46217 0.63009 0.0
C2139 C 0.54766 0.44783 0.65608 0.0
C2140 C 0.5496 0.43203 0.66961 0.0
C2141 C 0.55146 0.41192 0.66466 0.0
C2142 C 0.55317 0.39708 0.6775 0.0
C2143 C 0.55318 0.4022 0.69533 0.0
C2144 C 0.55155 0.42216 0.70037 0.0
C2145 C 0.54982 0.43705 0.68758 0.0
H2146 H 0.5545 0.39069 0.70525 0.0
H2147 H 0.53942 0.53518 0.58105 0.0
H2148 H 0.09883 0.48095 0.16929 0.0
H2149 H 0.07416 0.50767 0.16909 0.0
H2150 H 0.08903 0.52109 0.11518 0.0
H2151 H 0.1138 0.49423 0.11526 0.0
H2152 H 0.08368 0.55495 0.13296 0.0
H2153 H 0.04608 0.4947 0.12656 0.0
H2154 H 0.03498 0.46078 0.13431 0.0
H2155 H 0.01376 0.48198 0.18425 0.0
H2156 H 0.02499 0.51599 0.17691 0.0
H2157 H 0.99762 0.61368 0.11422 0.0
H2158 H 0.02363 0.58826 0.11481 0.0
H2159 H 0.00829 0.57397 0.16845 0.0
H2160 H 0.98165 0.5989 0.16773 0.0
H2161 H 0.014 0.54062 0.15076 0.0
H2162 H 0.05145 0.60103 0.157 0.0
H2163 H 0.06251 0.63492 0.14912 0.0
H2164 H 0.08391 0.61345 0.09933 0.0
H2165 H 0.07273 0.57947 0.10681 0.0
C2166 C 0.09684 0.48944 0.1573 0.0
C2167 C 0.10833 0.48511 0.14222 0.0
C2168 C 0.08264 0.50482 0.15722 0.0
C2169 C 0.0793 0.51633 0.14202 0.0
C2170 C 0.09116 0.51249 0.1271 0.0
C2171 C 0.10544 0.4971 0.12718 0.0
C2172 C 0.06337 0.53217 0.14168 0.0
C2173 C 0.0684 0.5517 0.13663 0.0
C2174 C 0.0434 0.52827 0.14682 0.0
C2175 C 0.03656 0.50785 0.15125 0.0
C2176 C 0.03918 0.4921 0.13925 0.0
C2177 C 0.03285 0.47286 0.14356 0.0
C2178 C 0.02372 0.46921 0.15978 0.0
C2179 C 0.02086 0.48482 0.1717 0.0
C2180 C 0.02719 0.50408 0.16747 0.0
C2181 C 0.99962 0.60511 0.12616 0.0
C2182 C 0.98732 0.60852 0.14093 0.0
C2183 C 0.01476 0.59063 0.12654 0.0
C2184 C 0.01827 0.57917 0.14175 0.0
C2185 C 0.00606 0.58255 0.15653 0.0
C2186 C 0.99088 0.59704 0.15616 0.0
C2187 C 0.03431 0.56344 0.1421 0.0
C2188 C 0.02929 0.54389 0.14712 0.0
C2189 C 0.05428 0.56734 0.13692 0.0
C2190 C 0.06108 0.58774 0.1324 0.0
C2191 C 0.05838 0.60356 0.14432 0.0
C2192 C 0.06469 0.62278 0.13993 0.0
C2193 C 0.07386 0.62635 0.12372 0.0
C2194 C 0.07678 0.61068 0.11187 0.0
C2195 C 0.07048 0.59143 0.11619 0.0
H2196 H 0.07874 0.64124 0.12035 0.0
H2197 H 0.01882 0.45431 0.16309 0.0
H2198 H 0.92705 0.96693 0.62665 0.0
H2199 H 0.95191 0.99341 0.62785 0.0
H2200 H 0.91183 0.02952 0.65865 0.0
H2201 H 0.88652 1.00316 0.6571 0.0
H2202 H 0.92994 0.05205 0.63391 0.0
H2203 H 0.9522 0.00582 0.67758 0.0
H2204 H 0.96187 0.97302 0.68945 0.0
H2205 H 0.00949 0.9692 0.65182 0.0
H2206 H 0.99993 1.00187 0.63955 0.0
H2207 H 1.00546 0.12377 0.6555 0.0
H2208 H 0.97924 0.09844 0.65722 0.0
H2209 H 0.0164 0.05736 0.62846 0.0
H2210 H 0.04287 0.08223 0.62728 0.0
H2211 H 0.99889 0.03798 0.65395 0.0
H2212 H 0.9758 0.08317 0.60932 0.0
H2213 H 0.9661 0.11576 0.597 0.0
H2214 H 0.92016 0.12139 0.63606 0.0
H2215 H 0.92977 0.08893 0.64876 0.0
C2216 C 0.92334 0.98054 0.63358 0.0
C2217 C 0.90457 0.98276 0.64172 0.0
C2218 C 0.93776 0.99568 0.63442 0.0
C2219 C 0.934 0.01356 0.64352 0.0
C2220 C 0.91525 0.01593 0.65158 0.0
C2221 C 0.90079 1.00071 0.6508 0.0
C2222 C 0.94961 0.02968 0.64444 0.0
C2223 C 0.94492 0.04901 0.63858 0.0
C2224 C 0.96939 0.02584 0.65016 0.0
C2225 C 0.97523 0.00622 0.65754 0.0
C2226 C 0.96464 0.99792 0.67174 0.0
C2227 C 0.97012 0.97936 0.67856 0.0
C2228 C 0.98625 0.96901 0.67136 0.0
C2229 C 0.99698 0.97722 0.65736 0.0
C2230 C 0.99155 0.99577 0.65049 0.0
C2231 C 0.00818 0.1093 0.64966 0.0
C2232 C 0.02642 0.1053 0.64111 0.0
C2233 C 0.993 0.09482 0.65049 0.0
C2234 C 0.99553 0.0759 0.64274 0.0
C2235 C 0.01385 0.07177 0.63449 0.0
C2236 C 0.029 0.08619 0.63366 0.0
C2237 C 0.97931 0.06033 0.64323 0.0
C2238 C 0.98389 0.04108 0.64936 0.0
C2239 C 0.95946 0.06424 0.63772 0.0
C2240 C 0.95365 0.08373 0.6301 0.0
C2241 C 0.96373 0.09143 0.61536 0.0
C2242 C 0.95823 0.10987 0.6083 0.0
C2243 C 0.94256 0.12067 0.61577 0.0
C2244 C 0.93232 0.11303 0.6303 0.0
C2245 C 0.93778 0.09461 0.63743 0.0
H2246 H 0.93832 0.13494 0.61028 0.0
H2247 H 0.99047 0.95464 0.67666 0.0
H2248 H 0.51552 0.61381 0.39249 0.0
H2249 H 0.48932 0.58858 0.39169 0.0
H2250 H 0.50499 0.57423 0.33813 0.0
H2251 H 0.5313 0.59956 0.33882 0.0
H2252 H 0.46564 0.57382 0.34131 0.0
H2253 H 0.51907 0.54423 0.37385 0.0
H2254 H 0.54462 0.54211 0.39712 0.0
H2255 H 0.49909 0.54544 0.43675 0.0
H2256 H 0.47327 0.54786 0.4137 0.0
H2257 H 0.41199 0.48123 0.33949 0.0
H2258 H 0.43736 0.5074 0.33839 0.0
H2259 H 0.42419 0.5232 0.39216 0.0
H2260 H 0.39887 0.49706 0.39336 0.0
H2261 H 0.46287 0.52241 0.38814 0.0
H2262 H 0.4094 0.55234 0.3553 0.0
H2263 H 0.38407 0.55429 0.33183 0.0
H2264 H 0.42989 0.54989 0.29255 0.0
H2265 H 0.45549 0.54765 0.3158 0.0
C2266 C 0.51354 0.60525 0.38053 0.0
C2267 C 0.52582 0.60876 0.36577 0.0
C2268 C 0.49846 0.59074 0.38009 0.0
C2269 C 0.49524 0.57905 0.36496 0.0
C2270 C 0.50707 0.5829 0.35002 0.0
C2271 C 0.52214 0.59751 0.35042 0.0
C2272 C 0.47974 0.56278 0.36483 0.0
C2273 C 0.46524 0.56243 0.35144 0.0
C2274 C 0.47878 0.54797 0.37815 0.0
C2275 C 0.49426 0.54641 0.39204 0.0
C2276 C 0.51452 0.54465 0.38753 0.0
C2277 C 0.52904 0.54338 0.40068 0.0
C2278 C 0.52348 0.54369 0.4184 0.0
C2279 C 0.50337 0.54523 0.42301 0.0
C2280 C 0.48879 0.54653 0.40991 0.0
C2281 C 0.41425 0.49043 0.35103 0.0
C2282 C 0.40321 0.48686 0.36652 0.0
C2283 C 0.42887 0.50547 0.35039 0.0
C2284 C 0.43276 0.51759 0.36514 0.0
C2285 C 0.42168 0.51412 0.38057 0.0
C2286 C 0.40714 0.49905 0.38125 0.0
C2287 C 0.44861 0.53354 0.36473 0.0
C2288 C 0.46323 0.53379 0.37801 0.0
C2289 C 0.44969 0.5482 0.35128 0.0
C2290 C 0.43434 0.54962 0.33729 0.0
C2291 C 0.41406 0.55164 0.34166 0.0
C2292 C 0.39966 0.55282 0.3284 0.0
C2293 C 0.40536 0.55216 0.31071 0.0
C2294 C 0.42549 0.55037 0.30626 0.0
C2295 C 0.43996 0.54916 0.31947 0.0
H2296 H 0.39419 0.55307 0.30046 0.0
H2297 H 0.53475 0.54271 0.42856 0.0
H2298 H 1.00379 0.38514 0.85139 0.0
H2299 H 0.97739 0.41037 0.85023 0.0
H2300 H 0.0149 0.45137 0.87872 0.0
H2301 H 0.04126 0.42638 0.87987 0.0
H2302 H 0.97887 0.45278 0.89201 0.0
H2303 H 1.00518 0.45537 0.83309 0.0
H2304 H 0.01486 0.44164 0.80421 0.0
H2305 H 0.9545 0.42304 0.795 0.0
H2306 H 0.94451 0.43644 0.82395 0.0
H2307 H 0.92591 0.54272 0.87971 0.0
H2308 H 0.95072 0.51616 0.87887 0.0
H2309 H 0.91009 0.47917 0.84943 0.0
H2310 H 0.88518 0.50596 0.85001 0.0
H2311 H 0.94618 0.47428 0.83662 0.0
H2312 H 0.91957 0.47236 0.89504 0.0
H2313 H 0.90972 0.48597 0.92393 0.0
H2314 H 0.97038 0.50279 0.93421 0.0
H2315 H 0.98055 0.48952 0.90528 0.0
C2316 C 0.00655 0.39958 0.85726 0.0
C2317 C 0.0248 0.4035 0.86581 0.0
C2318 C 0.99136 0.41408 0.85659 0.0
C2319 C 0.99402 0.43301 0.86429 0.0
C2320 C 0.01225 0.43695 0.87275 0.0
C2321 C 0.02738 0.4225 0.87345 0.0
C2322 C 0.97785 0.44864 0.86392 0.0
C2323 C 0.97194 0.45761 0.87983 0.0
C2324 C 0.96819 0.45472 0.84818 0.0
C2325 C 0.97415 0.44671 0.83076 0.0
C2326 C 0.994 0.44821 0.82496 0.0
C2327 C 0.99954 0.44051 0.80857 0.0
C2328 C 0.98531 0.43142 0.7978 0.0
C2329 C 0.96551 0.43006 0.80338 0.0
C2330 C 0.9599 0.43771 0.81977 0.0
C2331 C 0.9221 0.5289 0.87315 0.0
C2332 C 0.9033 0.52653 0.86512 0.0
C2333 C 0.9364 0.51362 0.87269 0.0
C2334 C 0.93231 0.49528 0.86442 0.0
C2335 C 0.91374 0.49304 0.85599 0.0
C2336 C 0.89944 0.50844 0.85631 0.0
C2337 C 0.94739 0.47859 0.86469 0.0
C2338 C 0.95307 0.4694 0.8488 0.0
C2339 C 0.95683 0.47223 0.88047 0.0
C2340 C 0.95079 0.4801 0.89793 0.0
C2341 C 0.93079 0.47908 0.90342 0.0
C2342 C 0.92515 0.48672 0.9198 0.0
C2343 C 0.93941 0.49528 0.93088 0.0
C2344 C 0.95934 0.49617 0.92561 0.0
C2345 C 0.96506 0.48857 0.90923 0.0
H2346 H 0.93501 0.50119 0.94356 0.0
H2347 H 0.98962 0.42547 0.78511 0.0
H2348 H 0.99548 0.9005 0.39246 0.0
H2349 H 0.02161 0.9258 0.39154 0.0
H2350 H 0.0075 0.93807 0.33725 0.0
H2351 H 0.98128 0.91266 0.33806 0.0
H2352 H 0.04669 0.9388 0.34127 0.0
H2353 H 0.99237 0.96941 0.37174 0.0
H2354 H 0.96612 0.97239 0.39431 0.0
H2355 H 0.01041 0.97061 0.4351 0.0
H2356 H 0.03692 0.96734 0.41277 0.0
H2357 H 0.0997 0.03187 0.33834 0.0
H2358 H 0.07447 0.00555 0.33737 0.0
H2359 H 0.08719 0.9907 0.39142 0.0
H2360 H 0.11251 0.01681 0.39245 0.0
H2361 H 0.04815 0.99179 0.38678 0.0
H2362 H 0.1025 0.96093 0.35583 0.0
H2363 H 0.12845 0.95827 0.33295 0.0
H2364 H 0.08366 0.96122 0.29265 0.0
H2365 H 0.05745 0.96415 0.3153 0.0
C2366 C 0.99778 0.90862 0.38031 0.0
C2367 C 0.98597 0.9045 0.36538 0.0
C2368 C 0.01283 0.92318 0.37981 0.0
C2369 C 0.01647 0.9343 0.36442 0.0
C2370 C 1.0051 0.92984 0.34934 0.0
C2371 C 0.99007 0.91519 0.34981 0.0
C2372 C 0.03194 0.95061 0.36418 0.0
C2373 C 0.0468 0.95053 0.3511 0.0
C2374 C 0.03251 0.96588 0.37712 0.0
C2375 C 0.01662 0.96793 0.39058 0.0
C2376 C 0.9965 0.96951 0.38553 0.0
C2377 C 0.98158 0.97127 0.39828 0.0
C2378 C 0.98659 0.97164 0.41613 0.0
C2379 C 0.00655 0.9703 0.42127 0.0
C2380 C 0.02153 0.9685 0.40857 0.0
C2381 C 0.0974 0.02284 0.34997 0.0
C2382 C 0.10832 0.02668 0.36548 0.0
C2383 C 0.08285 0.00773 0.34941 0.0
C2384 C 0.07884 0.99586 0.36429 0.0
C2385 C 0.08979 0.99959 0.37974 0.0
C2386 C 0.10432 0.01467 0.38032 0.0
C2387 C 0.06303 0.97989 0.36397 0.0
C2388 C 0.04805 0.98007 0.37694 0.0
C2389 C 0.06232 0.96479 0.35089 0.0
C2390 C 0.07804 0.96297 0.33726 0.0
C2391 C 0.0982 0.96116 0.34209 0.0
C2392 C 0.11295 0.95958 0.32916 0.0
C2393 C 0.10771 0.95963 0.31136 0.0
C2394 C 0.0877 0.96121 0.30644 0.0
C2395 C 0.07289 0.96282 0.31932 0.0
H2396 H 0.11916 0.95841 0.30137 0.0
H2397 H 0.97501 0.97301 0.42598 0.0
H2398 H 0.61212 0.99574 0.89245 0.0
H2399 H 0.58673 0.02178 0.89175 0.0
H2400 H 0.57371 0.00747 0.83764 0.0
H2401 H 0.59909 0.98122 0.83826 0.0
H2402 H 0.5734 0.04706 0.8419 0.0
H2403 H 0.54289 0.99229 0.87192 0.0
H2404 H 0.54007 0.96585 0.89432 0.0
H2405 H 0.54178 0.0098 0.9354 0.0
H2406 H 0.5449 0.0365 0.91323 0.0
H2407 H 0.48066 0.10044 0.83909 0.0
H2408 H 0.50702 0.07526 0.83796 0.0
H2409 H 0.52069 0.0863 0.89255 0.0
H2410 H 0.4944 0.11145 0.89377 0.0
H2411 H 0.52029 0.04781 0.88731 0.0
H2412 H 0.5512 0.10261 0.85719 0.0
H2413 H 0.55403 0.12896 0.83469 0.0
H2414 H 0.55139 0.08491 0.79374 0.0
H2415 H 0.54828 0.05831 0.81599 0.0
C2416 C 0.60381 0.99795 0.88039 0.0
C2417 C 0.60771 0.98604 0.86547 0.0
C2418 C 0.58922 0.01296 0.88001 0.0
C2419 C 0.57788 0.01654 0.86473 0.0
C2420 C 0.58211 1.00511 0.84964 0.0
C2421 C 0.59676 0.99007 0.85 0.0
C2422 C 0.56156 0.032 0.86463 0.0
C2423 C 0.56165 0.04702 0.85171 0.0
C2424 C 0.54628 0.03238 0.87756 0.0
C2425 C 0.54432 0.01638 0.89092 0.0
C2426 C 0.54281 0.99631 0.88573 0.0
C2427 C 0.54114 0.98128 0.89839 0.0
C2428 C 0.5408 0.98614 0.91627 0.0
C2429 C 0.54208 0.00606 0.92154 0.0
C2430 C 0.54378 0.02115 0.90893 0.0
C2431 C 0.48943 0.09776 0.85082 0.0
C2432 C 0.48521 0.10815 0.86653 0.0
C2433 C 0.50458 0.08325 0.85015 0.0
C2434 C 0.51616 0.0788 0.86513 0.0
C2435 C 0.51205 0.08924 0.88078 0.0
C2436 C 0.49688 0.10368 0.88147 0.0
C2437 C 0.5322 0.06303 0.86469 0.0
C2438 C 0.53204 0.04788 0.8775 0.0
C2439 C 0.54738 0.06254 0.85165 0.0
C2440 C 0.5493 0.0785 0.83825 0.0
C2441 C 0.55107 0.09856 0.84338 0.0
C2442 C 0.55275 0.11354 0.83067 0.0
C2443 C 0.55284 0.10862 0.8128 0.0
C2444 C 0.5513 0.0887 0.80759 0.0
C2445 C 0.54958 0.07367 0.82024 0.0
H2446 H 0.55415 0.12024 0.80298 0.0
H2447 H 0.5395 0.97448 0.92605 0.0
loop_
_geom_bond_atom_site_label_1
_geom_bond_atom_site_label_2
_geom_bond_distance
_geom_bond_site_symmetry_2
_ccdc_geom_bond_type
C0 C1 1.443 . S
C0 N4 1.376 . S
C0 C38 1.389 . S
C1 C0 1.443 . S
C1 C2 1.340 . S
C1 H41 0.951 . S
C2 C1 1.340 . S
C2 C3 1.439 . S
C2 H42 0.950 . S
C3 C2 1.439 . S
C3 N4 1.374 . S
C3 C37 1.395 . S
N4 C0 1.376 . S
N4 C3 1.374 . S
N4 Co5 2.008 . S
Co5 N4 2.008 . S
Co5 N6 1.995 . S
Co5 N11 2.008 . S
Co5 N16 1.995 . S
Co5 N21 2.282 . S
Co5 N27 2.282 . S
N6 Co5 1.995 . S
N6 C7 1.376 . S
N6 C10 1.383 . S
C7 N6 1.376 . S
C7 C8 1.446 . S
C7 C37 1.391 . S
C8 C7 1.446 . S
C8 C9 1.339 . S
C8 H43 0.949 . S
C9 C8 1.339 . S
C9 C10 1.439 . S
C9 H44 0.950 . S
C10 N6 1.383 . S
C10 C9 1.439 . S
C10 C39 1.392 . S
N11 Co5 2.008 . S
N11 C12 1.376 . S
N11 C15 1.374 . S
C12 N11 1.376 . S
C12 C13 1.443 . S
C12 C39 1.389 . S
C13 C12 1.443 . S
C13 C14 1.340 . S
C13 H45 0.951 . S
C14 C13 1.340 . S
C14 C15 1.439 . S
C14 H46 0.950 . S
C15 N11 1.374 . S
C15 C14 1.439 . S
C15 C40 1.395 . S
N16 Co5 1.995 . S
N16 C17 1.376 . S
N16 C20 1.383 . S
C17 N16 1.376 . S
C17 C18 1.446 . S
C17 C40 1.391 . S
C18 C17 1.446 . S
C18 C19 1.339 . S
C18 H47 0.949 . S
C19 C18 1.339 . S
C19 C20 1.439 . S
C19 H48 0.950 . S
C20 N16 1.383 . S
C20 C19 1.439 . S
C20 C38 1.392 . S
N21 Co5 2.282 . S
N21 C24 1.332 . S
N21 C26 1.332 . S
C22 C23 1.386 . S
C22 C25 1.388 . S
C23 C22 1.386 . S
C23 C24 1.382 . S
C23 H49 0.950 . S
C24 N21 1.332 . S
C24 C23 1.382 . S
C24 H35 0.952 . S
C25 C22 1.388 . S
C25 C26 1.382 . S
C25 H50 0.950 . S
C26 N21 1.332 . S
C26 C25 1.382 . S
C26 H36 0.948 . S
N27 Co5 2.282 . S
N27 C31 1.332 . S
N27 C32 1.332 . S
C28 C29 1.388 . S
C28 C32 1.382 . S
C28 H51 0.950 . S
C29 C28 1.388 . S
C29 C30 1.386 . S
C30 C29 1.386 . S
C30 C31 1.382 . S
C30 H52 0.950 . S
C31 N27 1.332 . S
C31 C30 1.382 . S
C31 H33 0.952 . S
C32 N27 1.332 . S
C32 C28 1.382 . S
C32 H34 0.948 . S
H33 C31 0.952 . S
H34 C32 0.948 . S
H35 C24 0.952 . S
H36 C26 0.948 . S
C37 C3 1.395 . S
C37 C7 1.391 . S
C38 C0 1.389 . S
C38 C20 1.392 . S
C39 C10 1.392 . S
C39 C12 1.389 . S
C40 C15 1.395 . S
C40 C17 1.391 . S
H41 C1 0.951 . S
H42 C2 0.950 . S
H43 C8 0.949 . S
H44 C9 0.950 . S
H45 C13 0.951 . S
H46 C14 0.950 . S
H47 C18 0.949 . S
H48 C19 0.950 . S
H49 C23 0.950 . S
H50 C25 0.950 . S
H51 C28 0.950 . S
H52 C30 0.950 . S
C53 C54 1.443 . S
C53 N57 1.376 . S
C53 C91 1.389 . S
C54 C53 1.443 . S
C54 C55 1.340 . S
C54 H94 0.951 . S
C55 C54 1.340 . S
C55 C56 1.439 . S
C55 H95 0.950 . S
C56 C55 1.439 . S
C56 N57 1.374 . S
C56 C90 1.395 . S
N57 C53 1.376 . S
N57 C56 1.374 . S
N57 Co58 2.008 . S
Co58 N57 2.008 . S
Co58 N59 1.995 . S
Co58 N64 2.008 . S
Co58 N69 1.995 . S
Co58 N74 2.282 . S
Co58 N80 2.282 . S
N59 Co58 1.995 . S
N59 C60 1.376 . S
N59 C63 1.383 . S
C60 N59 1.376 . S
C60 C61 1.446 . S
C60 C90 1.391 . S
C61 C60 1.446 . S
C61 C62 1.339 . S
C61 H96 0.949 . S
C62 C61 1.339 . S
C62 C63 1.439 . S
C62 H97 0.950 . S
C63 N59 1.383 . S
C63 C62 1.439 . S
C63 C92 1.392 . S
N64 Co58 2.008 . S
N64 C65 1.376 . S
N64 C68 1.374 . S
C65 N64 1.376 . S
C65 C66 1.443 . S
C65 C92 1.389 . S
C66 C65 1.443 . S
C66 C67 1.340 . S
C66 H98 0.951 . S
C67 C66 1.340 . S
C67 C68 1.439 . S
C67 H99 0.950 . S
C68 N64 1.374 . S
C68 C67 1.439 . S
C68 C93 1.395 . S
N69 Co58 1.995 . S
N69 C70 1.376 . S
N69 C73 1.383 . S
C70 N69 1.376 . S
C70 C71 1.446 . S
C70 C93 1.391 . S
C71 C70 1.446 . S
C71 C72 1.339 . S
C71 H100 0.949 . S
C72 C71 1.339 . S
C72 C73 1.439 . S
C72 H101 0.950 . S
C73 N69 1.383 . S
C73 C72 1.439 . S
C73 C91 1.392 . S
N74 Co58 2.282 . S
N74 C77 1.332 . S
N74 C79 1.332 . S
C75 C76 1.386 . S
C75 C78 1.388 . S
C76 C75 1.386 . S
C76 C77 1.382 . S
C76 H102 0.950 . S
C77 N74 1.332 . S
C77 C76 1.382 . S
C77 H88 0.952 . S
C78 C75 1.388 . S
C78 C79 1.382 . S
C78 H103 0.950 . S
C79 N74 1.332 . S
C79 C78 1.382 . S
C79 H89 0.948 . S
N80 Co58 2.282 . S
N80 C84 1.332 . S
N80 C85 1.332 . S
C81 C82 1.388 . S
C81 C85 1.382 . S
C81 H104 0.950 . S
C82 C81 1.388 . S
C82 C83 1.386 . S
C83 C82 1.386 . S
C83 C84 1.382 . S
C83 H105 0.950 . S
C84 N80 1.332 . S
C84 C83 1.382 . S
C84 H86 0.952 . S
C85 N80 1.332 . S
C85 C81 1.382 . S
C85 H87 0.948 . S
H86 C84 0.952 . S
H87 C85 0.948 . S
H88 C77 0.952 . S
H89 C79 0.948 . S
C90 C56 1.395 . S
C90 C60 1.391 . S
C91 C53 1.389 . S
C91 C73 1.392 . S
C92 C63 1.392 . S
C92 C65 1.389 . S
C93 C68 1.395 . S
C93 C70 1.391 . S
H94 C54 0.951 . S
H95 C55 0.950 . S
H96 C61 0.949 . S
H97 C62 0.950 . S
H98 C66 0.951 . S
H99 C67 0.950 . S
H100 C71 0.949 . S
H101 C72 0.950 . S
H102 C76 0.950 . S
H103 C78 0.950 . S
H104 C81 0.950 . S
H105 C83 0.950 . S
C106 C107 1.443 . S
C106 N110 1.376 . S
C106 C144 1.389 . S
C107 C106 1.443 . S
C107 C108 1.340 . S
C107 H147 0.951 . S
C108 C107 1.340 . S
C108 C109 1.439 . S
C108 H148 0.950 . S
C109 C108 1.439 . S
C109 N110 1.374 . S
C109 C143 1.395 . S
N110 C106 1.376 . S
N110 C109 1.374 . S
N110 Co111 2.008 . S
Co111 N110 2.008 . S
Co111 N112 1.995 . S
Co111 N117 2.008 . S
Co111 N122 1.995 . S
Co111 N127 2.282 . S
Co111 N133 2.282 . S
N112 Co111 1.995 . S
N112 C113 1.376 . S
N112 C116 1.383 . S
C113 N112 1.376 . S
C113 C114 1.446 . S
C113 C143 1.391 . S
C114 C113 1.446 . S
C114 C115 1.339 . S
C114 H149 0.949 . S
C115 C114 1.339 . S
C115 C116 1.439 . S
C115 H150 0.950 . S
C116 N112 1.383 . S
C116 C115 1.439 . S
C116 C145 1.392 . S
N117 Co111 2.008 . S
N117 C118 1.376 . S
N117 C121 1.374 . S
C118 N117 1.376 . S
C118 C119 1.443 . S
C118 C145 1.389 . S
C119 C118 1.443 . S
C119 C120 1.340 . S
C119 H151 0.951 . S
C120 C119 1.340 . S
C120 C121 1.439 . S
C120 H152 0.950 . S
C121 N117 1.374 . S
C121 C120 1.439 . S
C121 C146 1.395 . S
N122 Co111 1.995 . S
N122 C123 1.376 . S
N122 C126 1.383 . S
C123 N122 1.376 . S
C123 C124 1.446 . S
C123 C146 1.391 . S
C124 C123 1.446 . S
C124 C125 1.339 . S
C124 H153 0.949 . S
C125 C124 1.339 . S
C125 C126 1.439 . S
C125 H154 0.950 . S
C126 N122 1.383 . S
C126 C125 1.439 . S
C126 C144 1.392 . S
N127 Co111 2.282 . S
N127 C130 1.332 . S
N127 C132 1.332 . S
C128 C129 1.386 . S
C128 C131 1.388 . S
C129 C128 1.386 . S
C129 C130 1.382 . S
C129 H155 0.950 . S
C130 N127 1.332 . S
C130 C129 1.382 . S
C130 H141 0.952 . S
C131 C128 1.388 . S
C131 C132 1.382 . S
C131 H156 0.950 . S
C132 N127 1.332 . S
C132 C131 1.382 . S
C132 H142 0.948 . S
N133 Co111 2.282 . S
N133 C137 1.332 . S
N133 C138 1.332 . S
C134 C135 1.388 . S
C134 C138 1.382 . S
C134 H157 0.950 . S
C135 C134 1.388 . S
C135 C136 1.386 . S
C136 C135 1.386 . S
C136 C137 1.382 . S
C136 H158 0.950 . S
C137 N133 1.332 . S
C137 C136 1.382 . S
C137 H139 0.952 . S
C138 N133 1.332 . S
C138 C134 1.382 . S
C138 H140 0.948 . S
H139 C137 0.952 . S
H140 C138 0.948 . S
H141 C130 0.952 . S
H142 C132 0.948 . S
C143 C109 1.395 . S
C143 C113 1.391 . S
C144 C106 1.389 . S
C144 C126 1.392 . S
C145 C116 1.392 . S
C145 C118 1.389 . S
C146 C121 1.395 . S
C146 C123 1.391 . S
H147 C107 0.951 . S
H148 C108 0.950 . S
H149 C114 0.949 . S
H150 C115 0.950 . S
H151 C119 0.951 . S
H152 C120 0.950 . S
H153 C124 0.949 . S
H154 C125 0.950 . S
H155 C129 0.950 . S
H156 C131 0.950 . S
H157 C134 0.950 . S
H158 C136 0.950 . S
C159 C160 1.443 . S
C159 N163 1.376 . S
C159 C197 1.389 . S
C160 C159 1.443 . S
C160 C161 1.340 . S
C160 H200 0.951 . S
C161 C160 1.340 . S
C161 C162 1.439 . S
C161 H201 0.950 . S
C162 C161 1.439 . S
C162 N163 1.374 . S
C162 C196 1.395 . S
N163 C159 1.376 . S
N163 C162 1.374 . S
N163 Co164 2.008 . S
Co164 N163 2.008 . S
Co164 N165 1.995 . S
Co164 N170 2.008 . S
Co164 N175 1.995 . S
Co164 N180 2.282 . S
Co164 N186 2.282 . S
N165 Co164 1.995 . S
N165 C166 1.376 . S
N165 C169 1.383 . S
C166 N165 1.376 . S
C166 C167 1.446 . S
C166 C196 1.391 . S
C167 C166 1.446 . S
C167 C168 1.339 . S
C167 H202 0.949 . S
C168 C167 1.339 . S
C168 C169 1.439 . S
C168 H203 0.950 . S
C169 N165 1.383 . S
C169 C168 1.439 . S
C169 C198 1.392 . S
N170 Co164 2.008 . S
N170 C171 1.376 . S
N170 C174 1.374 . S
C171 N170 1.376 . S
C171 C172 1.443 . S
C171 C198 1.389 . S
C172 C171 1.443 . S
C172 C173 1.340 . S
C172 H204 0.951 . S
C173 C172 1.340 . S
C173 C174 1.439 . S
C173 H205 0.950 . S
C174 N170 1.374 . S
C174 C173 1.439 . S
C174 C199 1.395 . S
N175 Co164 1.995 . S
N175 C176 1.376 . S
N175 C179 1.383 . S
C176 N175 1.376 . S
C176 C177 1.446 . S
C176 C199 1.391 . S
C177 C176 1.446 . S
C177 C178 1.339 . S
C177 H206 0.949 . S
C178 C177 1.339 . S
C178 C179 1.439 . S
C178 H207 0.950 . S
C179 N175 1.383 . S
C179 C178 1.439 . S
C179 C197 1.392 . S
N180 Co164 2.282 . S
N180 C183 1.332 . S
N180 C185 1.332 . S
C181 C182 1.386 . S
C181 C184 1.388 . S
C182 C181 1.386 . S
C182 C183 1.382 . S
C182 H208 0.950 . S
C183 N180 1.332 . S
C183 C182 1.382 . S
C183 H194 0.952 . S
C184 C181 1.388 . S
C184 C185 1.382 . S
C184 H209 0.950 . S
C185 N180 1.332 . S
C185 C184 1.382 . S
C185 H195 0.948 . S
N186 Co164 2.282 . S
N186 C190 1.332 . S
N186 C191 1.332 . S
C187 C188 1.388 . S
C187 C191 1.382 . S
C187 H210 0.950 . S
C188 C187 1.388 . S
C188 C189 1.386 . S
C189 C188 1.386 . S
C189 C190 1.382 . S
C189 H211 0.950 . S
C190 N186 1.332 . S
C190 C189 1.382 . S
C190 H192 0.952 . S
C191 N186 1.332 . S
C191 C187 1.382 . S
C191 H193 0.948 . S
H192 C190 0.952 . S
H193 C191 0.948 . S
H194 C183 0.952 . S
H195 C185 0.948 . S
C196 C162 1.395 . S
C196 C166 1.391 . S
C197 C159 1.389 . S
C197 C179 1.392 . S
C198 C169 1.392 . S
C198 C171 1.389 . S
C199 C174 1.395 . S
C199 C176 1.391 . S
H200 C160 0.951 . S
H201 C161 0.950 . S
H202 C167 0.949 . S
H203 C168 0.950 . S
H204 C172 0.951 . S
H205 C173 0.950 . S
H206 C177 0.949 . S
H207 C178 0.950 . S
H208 C182 0.950 . S
H209 C184 0.950 . S
H210 C187 0.950 . S
H211 C189 0.950 . S
C212 C213 1.443 . S
C212 N216 1.376 . S
C212 C250 1.389 . S
C213 C212 1.443 . S
C213 C214 1.340 . S
C213 H253 0.951 . S
C214 C213 1.340 . S
C214 C215 1.439 . S
C214 H254 0.950 . S
C215 C214 1.439 . S
C215 N216 1.374 . S
C215 C249 1.395 . S
N216 C212 1.376 . S
N216 C215 1.374 . S
N216 Co217 2.008 . S
Co217 N216 2.008 . S
Co217 N218 1.995 . S
Co217 N223 2.008 . S
Co217 N228 1.995 . S
Co217 N233 2.282 . S
Co217 N239 2.282 . S
N218 Co217 1.995 . S
N218 C219 1.376 . S
N218 C222 1.383 . S
C219 N218 1.376 . S
C219 C220 1.446 . S
C219 C249 1.391 . S
C220 C219 1.446 . S
C220 C221 1.339 . S
C220 H255 0.949 . S
C221 C220 1.339 . S
C221 C222 1.439 . S
C221 H256 0.950 . S
C222 N218 1.383 . S
C222 C221 1.439 . S
C222 C251 1.392 . S
N223 Co217 2.008 . S
N223 C224 1.376 . S
N223 C227 1.374 . S
C224 N223 1.376 . S
C224 C225 1.443 . S
C224 C251 1.389 . S
C225 C224 1.443 . S
C225 C226 1.340 . S
C225 H257 0.951 . S
C226 C225 1.340 . S
C226 C227 1.439 . S
C226 H258 0.950 . S
C227 N223 1.374 . S
C227 C226 1.439 . S
C227 C252 1.395 . S
N228 Co217 1.995 . S
N228 C229 1.376 . S
N228 C232 1.383 . S
C229 N228 1.376 . S
C229 C230 1.446 . S
C229 C252 1.391 . S
C230 C229 1.446 . S
C230 C231 1.339 . S
C230 H259 0.949 . S
C231 C230 1.339 . S
C231 C232 1.439 . S
C231 H260 0.950 . S
C232 N228 1.383 . S
C232 C231 1.439 . S
C232 C250 1.392 . S
N233 Co217 2.282 . S
N233 C236 1.332 . S
N233 C238 1.332 . S
C234 C235 1.386 . S
C234 C237 1.388 . S
C235 C234 1.386 . S
C235 C236 1.382 . S
C235 H261 0.950 . S
C236 N233 1.332 . S
C236 C235 1.382 . S
C236 H247 0.952 . S
C237 C234 1.388 . S
C237 C238 1.382 . S
C237 H262 0.950 . S
C238 N233 1.332 . S
C238 C237 1.382 . S
C238 H248 0.948 . S
N239 Co217 2.282 . S
N239 C243 1.332 . S
N239 C244 1.332 . S
C240 C241 1.388 . S
C240 C244 1.382 . S
C240 H263 0.950 . S
C241 C240 1.388 . S
C241 C242 1.386 . S
C242 C241 1.386 . S
C242 C243 1.382 . S
C242 H264 0.950 . S
C243 N239 1.332 . S
C243 C242 1.382 . S
C243 H245 0.952 . S
C244 N239 1.332 . S
C244 C240 1.382 . S
C244 H246 0.948 . S
H245 C243 0.952 . S
H246 C244 0.948 . S
H247 C236 0.952 . S
H248 C238 0.948 . S
C249 C215 1.395 . S
C249 C219 1.391 . S
C250 C212 1.389 . S
C250 C232 1.392 . S
C251 C222 1.392 . S
C251 C224 1.389 . S
C252 C227 1.395 . S
C252 C229 1.391 . S
H253 C213 0.951 . S
H254 C214 0.950 . S
H255 C220 0.949 . S
H256 C221 0.950 . S
H257 C225 0.951 . S
H258 C226 0.950 . S
H259 C230 0.949 . S
H260 C231 0.950 . S
H261 C235 0.950 . S
H262 C237 0.950 . S
H263 C240 0.950 . S
H264 C242 0.950 . S
C265 C266 1.443 . S
C265 N269 1.376 . S
C265 C303 1.389 . S
C266 C265 1.443 . S
C266 C267 1.340 . S
C266 H306 0.951 . S
C267 C266 1.340 . S
C267 C268 1.439 . S
C267 H307 0.950 . S
C268 C267 1.439 . S
C268 N269 1.374 . S
C268 C302 1.395 . S
N269 C265 1.376 . S
N269 C268 1.374 . S
N269 Co270 2.008 . S
Co270 N269 2.008 . S
Co270 N271 1.995 . S
Co270 N276 2.008 . S
Co270 N281 1.995 . S
Co270 N286 2.282 . S
Co270 N292 2.282 . S
N271 Co270 1.995 . S
N271 C272 1.376 . S
N271 C275 1.383 . S
C272 N271 1.376 . S
C272 C273 1.446 . S
C272 C302 1.391 . S
C273 C272 1.446 . S
C273 C274 1.339 . S
C273 H308 0.949 . S
C274 C273 1.339 . S
C274 C275 1.439 . S
C274 H309 0.950 . S
C275 N271 1.383 . S
C275 C274 1.439 . S
C275 C304 1.392 . S
N276 Co270 2.008 . S
N276 C277 1.376 . S
N276 C280 1.374 . S
C277 N276 1.376 . S
C277 C278 1.443 . S
C277 C304 1.389 . S
C278 C277 1.443 . S
C278 C279 1.340 . S
C278 H310 0.951 . S
C279 C278 1.340 . S
C279 C280 1.439 . S
C279 H311 0.950 . S
C280 N276 1.374 . S
C280 C279 1.439 . S
C280 C305 1.395 . S
N281 Co270 1.995 . S
N281 C282 1.376 . S
N281 C285 1.383 . S
C282 N281 1.376 . S
C282 C283 1.446 . S
C282 C305 1.391 . S
C283 C282 1.446 . S
C283 C284 1.339 . S
C283 H312 0.949 . S
C284 C283 1.339 . S
C284 C285 1.439 . S
C284 H313 0.950 . S
C285 N281 1.383 . S
C285 C284 1.439 . S
C285 C303 1.392 . S
N286 Co270 2.282 . S
N286 C289 1.332 . S
N286 C291 1.332 . S
C287 C288 1.386 . S
C287 C290 1.388 . S
C288 C287 1.386 . S
C288 C289 1.382 . S
C288 H314 0.950 . S
C289 N286 1.332 . S
C289 C288 1.382 . S
C289 H300 0.952 . S
C290 C287 1.388 . S
C290 C291 1.382 . S
C290 H315 0.950 . S
C291 N286 1.332 . S
C291 C290 1.382 . S
C291 H301 0.948 . S
N292 Co270 2.282 . S
N292 C296 1.332 . S
N292 C297 1.332 . S
C293 C294 1.388 . S
C293 C297 1.382 . S
C293 H316 0.950 . S
C294 C293 1.388 . S
C294 C295 1.386 . S
C295 C294 1.386 . S
C295 C296 1.382 . S
C295 H317 0.950 . S
C296 N292 1.332 . S
C296 C295 1.382 . S
C296 H298 0.952 . S
C297 N292 1.332 . S
C297 C293 1.382 . S
C297 H299 0.948 . S
H298 C296 0.952 . S
H299 C297 0.948 . S
H300 C289 0.952 . S
H301 C291 0.948 . S
C302 C268 1.395 . S
C302 C272 1.391 . S
C303 C265 1.389 . S
C303 C285 1.392 . S
C304 C275 1.392 . S
C304 C277 1.389 . S
C305 C280 1.395 . S
C305 C282 1.391 . S
H306 C266 0.951 . S
H307 C267 0.950 . S
H308 C273 0.949 . S
H309 C274 0.950 . S
H310 C278 0.951 . S
H311 C279 0.950 . S
H312 C283 0.949 . S
H313 C284 0.950 . S
H314 C288 0.950 . S
H315 C290 0.950 . S
H316 C293 0.950 . S
H317 C295 0.950 . S
C318 C319 1.443 . S
C318 N322 1.376 . S
C318 C356 1.389 . S
C319 C318 1.443 . S
C319 C320 1.340 . S
C319 H359 0.951 . S
C320 C319 1.340 . S
C320 C321 1.439 . S
C320 H360 0.950 . S
C321 C320 1.439 . S
C321 N322 1.374 . S
C321 C355 1.395 . S
N322 C318 1.376 . S
N322 C321 1.374 . S
N322 Co323 2.008 . S
Co323 N322 2.008 . S
Co323 N324 1.995 . S
Co323 N329 2.008 . S
Co323 N334 1.995 . S
Co323 N339 2.282 . S
Co323 N345 2.282 . S
N324 Co323 1.995 . S
N324 C325 1.376 . S
N324 C328 1.383 . S
C325 N324 1.376 . S
C325 C326 1.446 . S
C325 C355 1.391 . S
C326 C325 1.446 . S
C326 C327 1.339 . S
C326 H361 0.949 . S
C327 C326 1.339 . S
C327 C328 1.439 . S
C327 H362 0.950 . S
C328 N324 1.383 . S
C328 C327 1.439 . S
C328 C357 1.392 . S
N329 Co323 2.008 . S
N329 C330 1.376 . S
N329 C333 1.374 . S
C330 N329 1.376 . S
C330 C331 1.443 . S
C330 C357 1.389 . S
C331 C330 1.443 . S
C331 C332 1.340 . S
C331 H363 0.951 . S
C332 C331 1.340 . S
C332 C333 1.439 . S
C332 H364 0.950 . S
C333 N329 1.374 . S
C333 C332 1.439 . S
C333 C358 1.395 . S
N334 Co323 1.995 . S
N334 C335 1.376 . S
N334 C338 1.383 . S
C335 N334 1.376 . S
C335 C336 1.446 . S
C335 C358 1.391 . S
C336 C335 1.446 . S
C336 C337 1.339 . S
C336 H365 0.949 . S
C337 C336 1.339 . S
C337 C338 1.439 . S
C337 H366 0.950 . S
C338 N334 1.383 . S
C338 C337 1.439 . S
C338 C356 1.392 . S
N339 Co323 2.282 . S
N339 C342 1.332 . S
N339 C344 1.332 . S
C340 C341 1.386 . S
C340 C343 1.388 . S
C341 C340 1.386 . S
C341 C342 1.382 . S
C341 H367 0.950 . S
C342 N339 1.332 . S
C342 C341 1.382 . S
C342 H353 0.952 . S
C343 C340 1.388 . S
C343 C344 1.382 . S
C343 H368 0.950 . S
C344 N339 1.332 . S
C344 C343 1.382 . S
C344 H354 0.948 . S
N345 Co323 2.282 . S
N345 C349 1.332 . S
N345 C350 1.332 . S
C346 C347 1.388 . S
C346 C350 1.382 . S
C346 H369 0.950 . S
C347 C346 1.388 . S
C347 C348 1.386 . S
C348 C347 1.386 . S
C348 C349 1.382 . S
C348 H370 0.950 . S
C349 N345 1.332 . S
C349 C348 1.382 . S
C349 H351 0.952 . S
C350 N345 1.332 . S
C350 C346 1.382 . S
C350 H352 0.948 . S
H351 C349 0.952 . S
H352 C350 0.948 . S
H353 C342 0.952 . S
H354 C344 0.948 . S
C355 C321 1.395 . S
C355 C325 1.391 . S
C356 C318 1.389 . S
C356 C338 1.392 . S
C357 C328 1.392 . S
C357 C330 1.389 . S
C358 C333 1.395 . S
C358 C335 1.391 . S
H359 C319 0.951 . S
H360 C320 0.950 . S
H361 C326 0.949 . S
H362 C327 0.950 . S
H363 C331 0.951 . S
H364 C332 0.950 . S
H365 C336 0.949 . S
H366 C337 0.950 . S
H367 C341 0.950 . S
H368 C343 0.950 . S
H369 C346 0.950 . S
H370 C348 0.950 . S
C371 C372 1.443 . S
C371 N375 1.376 . S
C371 C409 1.389 . S
C372 C371 1.443 . S
C372 C373 1.340 . S
C372 H412 0.951 . S
C373 C372 1.340 . S
C373 C374 1.439 . S
C373 H413 0.950 . S
C374 C373 1.439 . S
C374 N375 1.374 . S
C374 C408 1.395 . S
N375 C371 1.376 . S
N375 C374 1.374 . S
N375 Co376 2.008 . S
Co376 N375 2.008 . S
Co376 N377 1.995 . S
Co376 N382 2.008 . S
Co376 N387 1.995 . S
Co376 N392 2.282 . S
Co376 N398 2.282 . S
N377 Co376 1.995 . S
N377 C378 1.376 . S
N377 C381 1.383 . S
C378 N377 1.376 . S
C378 C379 1.446 . S
C378 C408 1.391 . S
C379 C378 1.446 . S
C379 C380 1.339 . S
C379 H414 0.949 . S
C380 C379 1.339 . S
C380 C381 1.439 . S
C380 H415 0.950 . S
C381 N377 1.383 . S
C381 C380 1.439 . S
C381 C410 1.392 . S
N382 Co376 2.008 . S
N382 C383 1.376 . S
N382 C386 1.374 . S
C383 N382 1.376 . S
C383 C384 1.443 . S
C383 C410 1.389 . S
C384 C383 1.443 . S
C384 C385 1.340 . S
C384 H416 0.951 . S
C385 C384 1.340 . S
C385 C386 1.439 . S
C385 H417 0.950 . S
C386 N382 1.374 . S
C386 C385 1.439 . S
C386 C411 1.395 . S
N387 Co376 1.995 . S
N387 C388 1.376 . S
N387 C391 1.383 . S
C388 N387 1.376 . S
C388 C389 1.446 . S
C388 C411 1.391 . S
C389 C388 1.446 . S
C389 C390 1.339 . S
C389 H418 0.949 . S
C390 C389 1.339 . S
C390 C391 1.439 . S
C390 H419 0.950 . S
C391 N387 1.383 . S
C391 C390 1.439 . S
C391 C409 1.392 . S
N392 Co376 2.282 . S
N392 C395 1.332 . S
N392 C397 1.332 . S
C393 C394 1.386 . S
C393 C396 1.388 . S
C394 C393 1.386 . S
C394 C395 1.382 . S
C394 H420 0.950 . S
C395 N392 1.332 . S
C395 C394 1.382 . S
C395 H406 0.952 . S
C396 C393 1.388 . S
C396 C397 1.382 . S
C396 H421 0.950 . S
C397 N392 1.332 . S
C397 C396 1.382 . S
C397 H407 0.948 . S
N398 Co376 2.282 . S
N398 C402 1.332 . S
N398 C403 1.332 . S
C399 C400 1.388 . S
C399 C403 1.382 . S
C399 H422 0.950 . S
C400 C399 1.388 . S
C400 C401 1.386 . S
C401 C400 1.386 . S
C401 C402 1.382 . S
C401 H423 0.950 . S
C402 N398 1.332 . S
C402 C401 1.382 . S
C402 H404 0.952 . S
C403 N398 1.332 . S
C403 C399 1.382 . S
C403 H405 0.948 . S
H404 C402 0.952 . S
H405 C403 0.948 . S
H406 C395 0.952 . S
H407 C397 0.948 . S
C408 C374 1.395 . S
C408 C378 1.391 . S
C409 C371 1.389 . S
C409 C391 1.392 . S
C410 C381 1.392 . S
C410 C383 1.389 . S
C411 C386 1.395 . S
C411 C388 1.391 . S
H412 C372 0.951 . S
H413 C373 0.950 . S
H414 C379 0.949 . S
H415 C380 0.950 . S
H416 C384 0.951 . S
H417 C385 0.950 . S
H418 C389 0.949 . S
H419 C390 0.950 . S
H420 C394 0.950 . S
H421 C396 0.950 . S
H422 C399 0.950 . S
H423 C401 0.950 . S
C424 C425 1.443 . S
C424 N428 1.376 . S
C424 C462 1.389 . S
C425 C424 1.443 . S
C425 C426 1.340 . S
C425 H465 0.951 . S
C426 C425 1.340 . S
C426 C427 1.439 . S
C426 H466 0.950 . S
C427 C426 1.439 . S
C427 N428 1.374 . S
C427 C461 1.395 . S
N428 C424 1.376 . S
N428 C427 1.374 . S
N428 Co429 2.008 . S
Co429 N428 2.008 . S
Co429 N430 1.995 . S
Co429 N435 2.008 . S
Co429 N440 1.995 . S
Co429 N445 2.282 . S
Co429 N451 2.282 . S
N430 Co429 1.995 . S
N430 C431 1.376 . S
N430 C434 1.383 . S
C431 N430 1.376 . S
C431 C432 1.446 . S
C431 C461 1.391 . S
C432 C431 1.446 . S
C432 C433 1.339 . S
C432 H467 0.949 . S
C433 C432 1.339 . S
C433 C434 1.439 . S
C433 H468 0.950 . S
C434 N430 1.383 . S
C434 C433 1.439 . S
C434 C463 1.392 . S
N435 Co429 2.008 . S
N435 C436 1.376 . S
N435 C439 1.374 . S
C436 N435 1.376 . S
C436 C437 1.443 . S
C436 C463 1.389 . S
C437 C436 1.443 . S
C437 C438 1.340 . S
C437 H469 0.951 . S
C438 C437 1.340 . S
C438 C439 1.439 . S
C438 H470 0.950 . S
C439 N435 1.374 . S
C439 C438 1.439 . S
C439 C464 1.395 . S
N440 Co429 1.995 . S
N440 C441 1.376 . S
N440 C444 1.383 . S
C441 N440 1.376 . S
C441 C442 1.446 . S
C441 C464 1.391 . S
C442 C441 1.446 . S
C442 C443 1.339 . S
C442 H471 0.949 . S
C443 C442 1.339 . S
C443 C444 1.439 . S
C443 H472 0.950 . S
C444 N440 1.383 . S
C444 C443 1.439 . S
C444 C462 1.392 . S
N445 Co429 2.282 . S
N445 C448 1.332 . S
N445 C450 1.332 . S
C446 C447 1.386 . S
C446 C449 1.388 . S
C447 C446 1.386 . S
C447 C448 1.382 . S
C447 H473 0.950 . S
C448 N445 1.332 . S
C448 C447 1.382 . S
C448 H459 0.952 . S
C449 C446 1.388 . S
C449 C450 1.382 . S
C449 H474 0.950 . S
C450 N445 1.332 . S
C450 C449 1.382 . S
C450 H460 0.948 . S
N451 Co429 2.282 . S
N451 C455 1.332 . S
N451 C456 1.332 . S
C452 C453 1.388 . S
C452 C456 1.382 . S
C452 H475 0.950 . S
C453 C452 1.388 . S
C453 C454 1.386 . S
C454 C453 1.386 . S
C454 C455 1.382 . S
C454 H476 0.950 . S
C455 N451 1.332 . S
C455 C454 1.382 . S
C455 H457 0.952 . S
C456 N451 1.332 . S
C456 C452 1.382 . S
C456 H458 0.948 . S
H457 C455 0.952 . S
H458 C456 0.948 . S
H459 C448 0.952 . S
H460 C450 0.948 . S
C461 C427 1.395 . S
C461 C431 1.391 . S
C462 C424 1.389 . S
C462 C444 1.392 . S
C463 C434 1.392 . S
C463 C436 1.389 . S
C464 C439 1.395 . S
C464 C441 1.391 . S
H465 C425 0.951 . S
H466 C426 0.950 . S
H467 C432 0.949 . S
H468 C433 0.950 . S
H469 C437 0.951 . S
H470 C438 0.950 . S
H471 C442 0.949 . S
H472 C443 0.950 . S
H473 C447 0.950 . S
H474 C449 0.950 . S
H475 C452 0.950 . S
H476 C454 0.950 . S
C477 C478 1.443 . S
C477 N481 1.376 . S
C477 C515 1.389 . S
C478 C477 1.443 . S
C478 C479 1.340 . S
C478 H518 0.951 . S
C479 C478 1.340 . S
C479 C480 1.439 . S
C479 H519 0.950 . S
C480 C479 1.439 . S
C480 N481 1.374 . S
C480 C514 1.395 . S
N481 C477 1.376 . S
N481 C480 1.374 . S
N481 Co482 2.008 . S
Co482 N481 2.008 . S
Co482 N483 1.995 . S
Co482 N488 2.008 . S
Co482 N493 1.995 . S
Co482 N498 2.282 . S
Co482 N504 2.282 . S
N483 Co482 1.995 . S
N483 C484 1.376 . S
N483 C487 1.383 . S
C484 N483 1.376 . S
C484 C485 1.446 . S
C484 C514 1.391 . S
C485 C484 1.446 . S
C485 C486 1.339 . S
C485 H520 0.949 . S
C486 C485 1.339 . S
C486 C487 1.439 . S
C486 H521 0.950 . S
C487 N483 1.383 . S
C487 C486 1.439 . S
C487 C516 1.392 . S
N488 Co482 2.008 . S
N488 C489 1.376 . S
N488 C492 1.374 . S
C489 N488 1.376 . S
C489 C490 1.443 . S
C489 C516 1.389 . S
C490 C489 1.443 . S
C490 C491 1.340 . S
C490 H522 0.951 . S
C491 C490 1.340 . S
C491 C492 1.439 . S
C491 H523 0.950 . S
C492 N488 1.374 . S
C492 C491 1.439 . S
C492 C517 1.395 . S
N493 Co482 1.995 . S
N493 C494 1.376 . S
N493 C497 1.383 . S
C494 N493 1.376 . S
C494 C495 1.446 . S
C494 C517 1.391 . S
C495 C494 1.446 . S
C495 C496 1.339 . S
C495 H524 0.949 . S
C496 C495 1.339 . S
C496 C497 1.439 . S
C496 H525 0.950 . S
C497 N493 1.383 . S
C497 C496 1.439 . S
C497 C515 1.392 . S
N498 Co482 2.282 . S
N498 C501 1.332 . S
N498 C503 1.332 . S
C499 C500 1.386 . S
C499 C502 1.388 . S
C500 C499 1.386 . S
C500 C501 1.382 . S
C500 H526 0.950 . S
C501 N498 1.332 . S
C501 C500 1.382 . S
C501 H512 0.952 . S
C502 C499 1.388 . S
C502 C503 1.382 . S
C502 H527 0.950 . S
C503 N498 1.332 . S
C503 C502 1.382 . S
C503 H513 0.948 . S
N504 Co482 2.282 . S
N504 C508 1.332 . S
N504 C509 1.332 . S
C505 C506 1.388 . S
C505 C509 1.382 . S
C505 H528 0.950 . S
C506 C505 1.388 . S
C506 C507 1.386 . S
C507 C506 1.386 . S
C507 C508 1.382 . S
C507 H529 0.950 . S
C508 N504 1.332 . S
C508 C507 1.382 . S
C508 H510 0.952 . S
C509 N504 1.332 . S
C509 C505 1.382 . S
C509 H511 0.948 . S
H510 C508 0.952 . S
H511 C509 0.948 . S
H512 C501 0.952 . S
H513 C503 0.948 . S
C514 C480 1.395 . S
C514 C484 1.391 . S
C515 C477 1.389 . S
C515 C497 1.392 . S
C516 C487 1.392 . S
C516 C489 1.389 . S
C517 C492 1.395 . S
C517 C494 1.391 . S
H518 C478 0.951 . S
H519 C479 0.950 . S
H520 C485 0.949 . S
H521 C486 0.950 . S
H522 C490 0.951 . S
H523 C491 0.950 . S
H524 C495 0.949 . S
H525 C496 0.950 . S
H526 C500 0.950 . S
H527 C502 0.950 . S
H528 C505 0.950 . S
H529 C507 0.950 . S
C530 C531 1.443 . S
C530 N534 1.376 . S
C530 C568 1.389 . S
C531 C530 1.443 . S
C531 C532 1.340 . S
C531 H571 0.951 . S
C532 C531 1.340 . S
C532 C533 1.439 . S
C532 H572 0.950 . S
C533 C532 1.439 . S
C533 N534 1.374 . S
C533 C567 1.395 . S
N534 C530 1.376 . S
N534 C533 1.374 . S
N534 Co535 2.008 . S
Co535 N534 2.008 . S
Co535 N536 1.995 . S
Co535 N541 2.008 . S
Co535 N546 1.995 . S
Co535 N551 2.282 . S
Co535 N557 2.282 . S
N536 Co535 1.995 . S
N536 C537 1.376 . S
N536 C540 1.383 . S
C537 N536 1.376 . S
C537 C538 1.446 . S
C537 C567 1.391 . S
C538 C537 1.446 . S
C538 C539 1.339 . S
C538 H573 0.949 . S
C539 C538 1.339 . S
C539 C540 1.439 . S
C539 H574 0.950 . S
C540 N536 1.383 . S
C540 C539 1.439 . S
C540 C569 1.392 . S
N541 Co535 2.008 . S
N541 C542 1.376 . S
N541 C545 1.374 . S
C542 N541 1.376 . S
C542 C543 1.443 . S
C542 C569 1.389 . S
C543 C542 1.443 . S
C543 C544 1.340 . S
C543 H575 0.951 . S
C544 C543 1.340 . S
C544 C545 1.439 . S
C544 H576 0.950 . S
C545 N541 1.374 . S
C545 C544 1.439 . S
C545 C570 1.395 . S
N546 Co535 1.995 . S
N546 C547 1.376 . S
N546 C550 1.383 . S
C547 N546 1.376 . S
C547 C548 1.446 . S
C547 C570 1.391 . S
C548 C547 1.446 . S
C548 C549 1.339 . S
C548 H577 0.949 . S
C549 C548 1.339 . S
C549 C550 1.439 . S
C549 H578 0.950 . S
C550 N546 1.383 . S
C550 C549 1.439 . S
C550 C568 1.392 . S
N551 Co535 2.282 . S
N551 C554 1.332 . S
N551 C556 1.332 . S
C552 C553 1.386 . S
C552 C555 1.388 . S
C553 C552 1.386 . S
C553 C554 1.382 . S
C553 H579 0.950 . S
C554 N551 1.332 . S
C554 C553 1.382 . S
C554 H565 0.952 . S
C555 C552 1.388 . S
C555 C556 1.382 . S
C555 H580 0.950 . S
C556 N551 1.332 . S
C556 C555 1.382 . S
C556 H566 0.948 . S
N557 Co535 2.282 . S
N557 C561 1.332 . S
N557 C562 1.332 . S
C558 C559 1.388 . S
C558 C562 1.382 . S
C558 H581 0.950 . S
C559 C558 1.388 . S
C559 C560 1.386 . S
C560 C559 1.386 . S
C560 C561 1.382 . S
C560 H582 0.950 . S
C561 N557 1.332 . S
C561 C560 1.382 . S
C561 H563 0.952 . S
C562 N557 1.332 . S
C562 C558 1.382 . S
C562 H564 0.948 . S
H563 C561 0.952 . S
H564 C562 0.948 . S
H565 C554 0.952 . S
H566 C556 0.948 . S
C567 C533 1.395 . S
C567 C537 1.391 . S
C568 C530 1.389 . S
C568 C550 1.392 . S
C569 C540 1.392 . S
C569 C542 1.389 . S
C570 C545 1.395 . S
C570 C547 1.391 . S
H571 C531 0.951 . S
H572 C532 0.950 . S
H573 C538 0.949 . S
H574 C539 0.950 . S
H575 C543 0.951 . S
H576 C544 0.950 . S
H577 C548 0.949 . S
H578 C549 0.950 . S
H579 C553 0.950 . S
H580 C555 0.950 . S
H581 C558 0.950 . S
H582 C560 0.950 . S
C583 C584 1.443 . S
C583 N587 1.376 . S
C583 C621 1.389 . S
C584 C583 1.443 . S
C584 C585 1.340 . S
C584 H624 0.951 . S
C585 C584 1.340 . S
C585 C586 1.439 . S
C585 H625 0.950 . S
C586 C585 1.439 . S
C586 N587 1.374 . S
C586 C620 1.395 . S
N587 C583 1.376 . S
N587 C586 1.374 . S
N587 Co588 2.008 . S
Co588 N587 2.008 . S
Co588 N589 1.995 . S
Co588 N594 2.008 . S
Co588 N599 1.995 . S
Co588 N604 2.282 . S
Co588 N610 2.282 . S
N589 Co588 1.995 . S
N589 C590 1.376 . S
N589 C593 1.383 . S
C590 N589 1.376 . S
C590 C591 1.446 . S
C590 C620 1.391 . S
C591 C590 1.446 . S
C591 C592 1.339 . S
C591 H626 0.949 . S
C592 C591 1.339 . S
C592 C593 1.439 . S
C592 H627 0.950 . S
C593 N589 1.383 . S
C593 C592 1.439 . S
C593 C622 1.392 . S
N594 Co588 2.008 . S
N594 C595 1.376 . S
N594 C598 1.374 . S
C595 N594 1.376 . S
C595 C596 1.443 . S
C595 C622 1.389 . S
C596 C595 1.443 . S
C596 C597 1.340 . S
C596 H628 0.951 . S
C597 C596 1.340 . S
C597 C598 1.439 . S
C597 H629 0.950 . S
C598 N594 1.374 . S
C598 C597 1.439 . S
C598 C623 1.395 . S
N599 Co588 1.995 . S
N599 C600 1.376 . S
N599 C603 1.383 . S
C600 N599 1.376 . S
C600 C601 1.446 . S
C600 C623 1.391 . S
C601 C600 1.446 . S
C601 C602 1.339 . S
C601 H630 0.949 . S
C602 C601 1.339 . S
C602 C603 1.439 . S
C602 H631 0.950 . S
C603 N599 1.383 . S
C603 C602 1.439 . S
C603 C621 1.392 . S
N604 Co588 2.282 . S
N604 C607 1.332 . S
N604 C609 1.332 . S
C605 C606 1.386 . S
C605 C608 1.388 . S
C606 C605 1.386 . S
C606 C607 1.382 . S
C606 H632 0.950 . S
C607 N604 1.332 . S
C607 C606 1.382 . S
C607 H618 0.952 . S
C608 C605 1.388 . S
C608 C609 1.382 . S
C608 H633 0.950 . S
C609 N604 1.332 . S
C609 C608 1.382 . S
C609 H619 0.948 . S
N610 Co588 2.282 . S
N610 C614 1.332 . S
N610 C615 1.332 . S
C611 C612 1.388 . S
C611 C615 1.382 . S
C611 H634 0.950 . S
C612 C611 1.388 . S
C612 C613 1.386 . S
C613 C612 1.386 . S
C613 C614 1.382 . S
C613 H635 0.950 . S
C614 N610 1.332 . S
C614 C613 1.382 . S
C614 H616 0.952 . S
C615 N610 1.332 . S
C615 C611 1.382 . S
C615 H617 0.948 . S
H616 C614 0.952 . S
H617 C615 0.948 . S
H618 C607 0.952 . S
H619 C609 0.948 . S
C620 C586 1.395 . S
C620 C590 1.391 . S
C621 C583 1.389 . S
C621 C603 1.392 . S
C622 C593 1.392 . S
C622 C595 1.389 . S
C623 C598 1.395 . S
C623 C600 1.391 . S
H624 C584 0.951 . S
H625 C585 0.950 . S
H626 C591 0.949 . S
H627 C592 0.950 . S
H628 C596 0.951 . S
H629 C597 0.950 . S
H630 C601 0.949 . S
H631 C602 0.950 . S
H632 C606 0.950 . S
H633 C608 0.950 . S
H634 C611 0.950 . S
H635 C613 0.950 . S
C636 C637 1.443 . S
C636 N640 1.376 . S
C636 C674 1.389 . S
C637 C636 1.443 . S
C637 C638 1.340 . S
C637 H677 0.951 . S
C638 C637 1.340 . S
C638 C639 1.439 . S
C638 H678 0.950 . S
C639 C638 1.439 . S
C639 N640 1.374 . S
C639 C673 1.395 . S
N640 C636 1.376 . S
N640 C639 1.374 . S
N640 Co641 2.008 . S
Co641 N640 2.008 . S
Co641 N642 1.995 . S
Co641 N647 2.008 . S
Co641 N652 1.995 . S
Co641 N657 2.282 . S
Co641 N663 2.282 . S
N642 Co641 1.995 . S
N642 C643 1.376 . S
N642 C646 1.383 . S
C643 N642 1.376 . S
C643 C644 1.446 . S
C643 C673 1.391 . S
C644 C643 1.446 . S
C644 C645 1.339 . S
C644 H679 0.949 . S
C645 C644 1.339 . S
C645 C646 1.439 . S
C645 H680 0.950 . S
C646 N642 1.383 . S
C646 C645 1.439 . S
C646 C675 1.392 . S
N647 Co641 2.008 . S
N647 C648 1.376 . S
N647 C651 1.374 . S
C648 N647 1.376 . S
C648 C649 1.443 . S
C648 C675 1.389 . S
C649 C648 1.443 . S
C649 C650 1.340 . S
C649 H681 0.951 . S
C650 C649 1.340 . S
C650 C651 1.439 . S
C650 H682 0.950 . S
C651 N647 1.374 . S
C651 C650 1.439 . S
C651 C676 1.395 . S
N652 Co641 1.995 . S
N652 C653 1.376 . S
N652 C656 1.383 . S
C653 N652 1.376 . S
C653 C654 1.446 . S
C653 C676 1.391 . S
C654 C653 1.446 . S
C654 C655 1.339 . S
C654 H683 0.949 . S
C655 C654 1.339 . S
C655 C656 1.439 . S
C655 H684 0.950 . S
C656 N652 1.383 . S
C656 C655 1.439 . S
C656 C674 1.392 . S
N657 Co641 2.282 . S
N657 C660 1.332 . S
N657 C662 1.332 . S
C658 C659 1.386 . S
C658 C661 1.388 . S
C659 C658 1.386 . S
C659 C660 1.382 . S
C659 H685 0.950 . S
C660 N657 1.332 . S
C660 C659 1.382 . S
C660 H671 0.952 . S
C661 C658 1.388 . S
C661 C662 1.382 . S
C661 H686 0.950 . S
C662 N657 1.332 . S
C662 C661 1.382 . S
C662 H672 0.948 . S
N663 Co641 2.282 . S
N663 C667 1.332 . S
N663 C668 1.332 . S
C664 C665 1.388 . S
C664 C668 1.382 . S
C664 H687 0.950 . S
C665 C664 1.388 . S
C665 C666 1.386 . S
C666 C665 1.386 . S
C666 C667 1.382 . S
C666 H688 0.950 . S
C667 N663 1.332 . S
C667 C666 1.382 . S
C667 H669 0.952 . S
C668 N663 1.332 . S
C668 C664 1.382 . S
C668 H670 0.948 . S
H669 C667 0.952 . S
H670 C668 0.948 . S
H671 C660 0.952 . S
H672 C662 0.948 . S
C673 C639 1.395 . S
C673 C643 1.391 . S
C674 C636 1.389 . S
C674 C656 1.392 . S
C675 C646 1.392 . S
C675 C648 1.389 . S
C676 C651 1.395 . S
C676 C653 1.391 . S
H677 C637 0.951 . S
H678 C638 0.950 . S
H679 C644 0.949 . S
H680 C645 0.950 . S
H681 C649 0.951 . S
H682 C650 0.950 . S
H683 C654 0.949 . S
H684 C655 0.950 . S
H685 C659 0.950 . S
H686 C661 0.950 . S
H687 C664 0.950 . S
H688 C666 0.950 . S
C689 C690 1.443 . S
C689 N693 1.376 . S
C689 C727 1.389 . S
C690 C689 1.443 . S
C690 C691 1.340 . S
C690 H730 0.951 . S
C691 C690 1.340 . S
C691 C692 1.439 . S
C691 H731 0.950 . S
C692 C691 1.439 . S
C692 N693 1.374 . S
C692 C726 1.395 . S
N693 C689 1.376 . S
N693 C692 1.374 . S
N693 Co694 2.008 . S
Co694 N693 2.008 . S
Co694 N695 1.995 . S
Co694 N700 2.008 . S
Co694 N705 1.995 . S
Co694 N710 2.282 . S
Co694 N716 2.282 . S
N695 Co694 1.995 . S
N695 C696 1.376 . S
N695 C699 1.383 . S
C696 N695 1.376 . S
C696 C697 1.446 . S
C696 C726 1.391 . S
C697 C696 1.446 . S
C697 C698 1.339 . S
C697 H732 0.949 . S
C698 C697 1.339 . S
C698 C699 1.439 . S
C698 H733 0.950 . S
C699 N695 1.383 . S
C699 C698 1.439 . S
C699 C728 1.392 . S
N700 Co694 2.008 . S
N700 C701 1.376 . S
N700 C704 1.374 . S
C701 N700 1.376 . S
C701 C702 1.443 . S
C701 C728 1.389 . S
C702 C701 1.443 . S
C702 C703 1.340 . S
C702 H734 0.951 . S
C703 C702 1.340 . S
C703 C704 1.439 . S
C703 H735 0.950 . S
C704 N700 1.374 . S
C704 C703 1.439 . S
C704 C729 1.395 . S
N705 Co694 1.995 . S
N705 C706 1.376 . S
N705 C709 1.383 . S
C706 N705 1.376 . S
C706 C707 1.446 . S
C706 C729 1.391 . S
C707 C706 1.446 . S
C707 C708 1.339 . S
C707 H736 0.949 . S
C708 C707 1.339 . S
C708 C709 1.439 . S
C708 H737 0.950 . S
C709 N705 1.383 . S
C709 C708 1.439 . S
C709 C727 1.392 . S
N710 Co694 2.282 . S
N710 C713 1.332 . S
N710 C715 1.332 . S
C711 C712 1.386 . S
C711 C714 1.388 . S
C712 C711 1.386 . S
C712 C713 1.382 . S
C712 H738 0.950 . S
C713 N710 1.332 . S
C713 C712 1.382 . S
C713 H724 0.952 . S
C714 C711 1.388 . S
C714 C715 1.382 . S
C714 H739 0.950 . S
C715 N710 1.332 . S
C715 C714 1.382 . S
C715 H725 0.948 . S
N716 Co694 2.282 . S
N716 C720 1.332 . S
N716 C721 1.332 . S
C717 C718 1.388 . S
C717 C721 1.382 . S
C717 H740 0.950 . S
C718 C717 1.388 . S
C718 C719 1.386 . S
C719 C718 1.386 . S
C719 C720 1.382 . S
C719 H741 0.950 . S
C720 N716 1.332 . S
C720 C719 1.382 . S
C720 H722 0.952 . S
C721 N716 1.332 . S
C721 C717 1.382 . S
C721 H723 0.948 . S
H722 C720 0.952 . S
H723 C721 0.948 . S
H724 C713 0.952 . S
H725 C715 0.948 . S
C726 C692 1.395 . S
C726 C696 1.391 . S
C727 C689 1.389 . S
C727 C709 1.392 . S
C728 C699 1.392 . S
C728 C701 1.389 . S
C729 C704 1.395 . S
C729 C706 1.391 . S
H730 C690 0.951 . S
H731 C691 0.950 . S
H732 C697 0.949 . S
H733 C698 0.950 . S
H734 C702 0.951 . S
H735 C703 0.950 . S
H736 C707 0.949 . S
H737 C708 0.950 . S
H738 C712 0.950 . S
H739 C714 0.950 . S
H740 C717 0.950 . S
H741 C719 0.950 . S
C742 C743 1.443 . S
C742 N746 1.376 . S
C742 C780 1.389 . S
C743 C742 1.443 . S
C743 C744 1.340 . S
C743 H783 0.951 . S
C744 C743 1.340 . S
C744 C745 1.439 . S
C744 H784 0.950 . S
C745 C744 1.439 . S
C745 N746 1.374 . S
C745 C779 1.395 . S
N746 C742 1.376 . S
N746 C745 1.374 . S
N746 Co747 2.008 . S
Co747 N746 2.008 . S
Co747 N748 1.995 . S
Co747 N753 2.008 . S
Co747 N758 1.995 . S
Co747 N763 2.282 . S
Co747 N769 2.282 . S
N748 Co747 1.995 . S
N748 C749 1.376 . S
N748 C752 1.383 . S
C749 N748 1.376 . S
C749 C750 1.446 . S
C749 C779 1.391 . S
C750 C749 1.446 . S
C750 C751 1.339 . S
C750 H785 0.949 . S
C751 C750 1.339 . S
C751 C752 1.439 . S
C751 H786 0.950 . S
C752 N748 1.383 . S
C752 C751 1.439 . S
C752 C781 1.392 . S
N753 Co747 2.008 . S
N753 C754 1.376 . S
N753 C757 1.374 . S
C754 N753 1.376 . S
C754 C755 1.443 . S
C754 C781 1.389 . S
C755 C754 1.443 . S
C755 C756 1.340 . S
C755 H787 0.951 . S
C756 C755 1.340 . S
C756 C757 1.439 . S
C756 H788 0.950 . S
C757 N753 1.374 . S
C757 C756 1.439 . S
C757 C782 1.395 . S
N758 Co747 1.995 . S
N758 C759 1.376 . S
N758 C762 1.383 . S
C759 N758 1.376 . S
C759 C760 1.446 . S
C759 C782 1.391 . S
C760 C759 1.446 . S
C760 C761 1.339 . S
C760 H789 0.949 . S
C761 C760 1.339 . S
C761 C762 1.439 . S
C761 H790 0.950 . S
C762 N758 1.383 . S
C762 C761 1.439 . S
C762 C780 1.392 . S
N763 Co747 2.282 . S
N763 C766 1.332 . S
N763 C768 1.332 . S
C764 C765 1.386 . S
C764 C767 1.388 . S
C765 C764 1.386 . S
C765 C766 1.382 . S
C765 H791 0.950 . S
C766 N763 1.332 . S
C766 C765 1.382 . S
C766 H777 0.952 . S
C767 C764 1.388 . S
C767 C768 1.382 . S
C767 H792 0.950 . S
C768 N763 1.332 . S
C768 C767 1.382 . S
C768 H778 0.948 . S
N769 Co747 2.282 . S
N769 C773 1.332 . S
N769 C774 1.332 . S
C770 C771 1.388 . S
C770 C774 1.382 . S
C770 H793 0.950 . S
C771 C770 1.388 . S
C771 C772 1.386 . S
C772 C771 1.386 . S
C772 C773 1.382 . S
C772 H794 0.950 . S
C773 N769 1.332 . S
C773 C772 1.382 . S
C773 H775 0.952 . S
C774 N769 1.332 . S
C774 C770 1.382 . S
C774 H776 0.948 . S
H775 C773 0.952 . S
H776 C774 0.948 . S
H777 C766 0.952 . S
H778 C768 0.948 . S
C779 C745 1.395 . S
C779 C749 1.391 . S
C780 C742 1.389 . S
C780 C762 1.392 . S
C781 C752 1.392 . S
C781 C754 1.389 . S
C782 C757 1.395 . S
C782 C759 1.391 . S
H783 C743 0.951 . S
H784 C744 0.950 . S
H785 C750 0.949 . S
H786 C751 0.950 . S
H787 C755 0.951 . S
H788 C756 0.950 . S
H789 C760 0.949 . S
H790 C761 0.950 . S
H791 C765 0.950 . S
H792 C767 0.950 . S
H793 C770 0.950 . S
H794 C772 0.950 . S
C795 C796 1.443 . S
C795 N799 1.376 . S
C795 C833 1.389 . S
C796 C795 1.443 . S
C796 C797 1.340 . S
C796 H836 0.951 . S
C797 C796 1.340 . S
C797 C798 1.439 . S
C797 H837 0.950 . S
C798 C797 1.439 . S
C798 N799 1.374 . S
C798 C832 1.395 . S
N799 C795 1.376 . S
N799 C798 1.374 . S
N799 Co800 2.008 . S
Co800 N799 2.008 . S
Co800 N801 1.995 . S
Co800 N806 2.008 . S
Co800 N811 1.995 . S
Co800 N816 2.282 . S
Co800 N822 2.282 . S
N801 Co800 1.995 . S
N801 C802 1.376 . S
N801 C805 1.383 . S
C802 N801 1.376 . S
C802 C803 1.446 . S
C802 C832 1.391 . S
C803 C802 1.446 . S
C803 C804 1.339 . S
C803 H838 0.949 . S
C804 C803 1.339 . S
C804 C805 1.439 . S
C804 H839 0.950 . S
C805 N801 1.383 . S
C805 C804 1.439 . S
C805 C834 1.392 . S
N806 Co800 2.008 . S
N806 C807 1.376 . S
N806 C810 1.374 . S
C807 N806 1.376 . S
C807 C808 1.443 . S
C807 C834 1.389 . S
C808 C807 1.443 . S
C808 C809 1.340 . S
C808 H840 0.951 . S
C809 C808 1.340 . S
C809 C810 1.439 . S
C809 H841 0.950 . S
C810 N806 1.374 . S
C810 C809 1.439 . S
C810 C835 1.395 . S
N811 Co800 1.995 . S
N811 C812 1.376 . S
N811 C815 1.383 . S
C812 N811 1.376 . S
C812 C813 1.446 . S
C812 C835 1.391 . S
C813 C812 1.446 . S
C813 C814 1.339 . S
C813 H842 0.949 . S
C814 C813 1.339 . S
C814 C815 1.439 . S
C814 H843 0.950 . S
C815 N811 1.383 . S
C815 C814 1.439 . S
C815 C833 1.392 . S
N816 Co800 2.282 . S
N816 C819 1.332 . S
N816 C821 1.332 . S
C817 C818 1.386 . S
C817 C820 1.388 . S
C818 C817 1.386 . S
C818 C819 1.382 . S
C818 H844 0.950 . S
C819 N816 1.332 . S
C819 C818 1.382 . S
C819 H830 0.952 . S
C820 C817 1.388 . S
C820 C821 1.382 . S
C820 H845 0.950 . S
C821 N816 1.332 . S
C821 C820 1.382 . S
C821 H831 0.948 . S
N822 Co800 2.282 . S
N822 C826 1.332 . S
N822 C827 1.332 . S
C823 C824 1.388 . S
C823 C827 1.382 . S
C823 H846 0.950 . S
C824 C823 1.388 . S
C824 C825 1.386 . S
C825 C824 1.386 . S
C825 C826 1.382 . S
C825 H847 0.950 . S
C826 N822 1.332 . S
C826 C825 1.382 . S
C826 H828 0.952 . S
C827 N822 1.332 . S
C827 C823 1.382 . S
C827 H829 0.948 . S
H828 C826 0.952 . S
H829 C827 0.948 . S
H830 C819 0.952 . S
H831 C821 0.948 . S
C832 C798 1.395 . S
C832 C802 1.391 . S
C833 C795 1.389 . S
C833 C815 1.392 . S
C834 C805 1.392 . S
C834 C807 1.389 . S
C835 C810 1.395 . S
C835 C812 1.391 . S
H836 C796 0.951 . S
H837 C797 0.950 . S
H838 C803 0.949 . S
H839 C804 0.950 . S
H840 C808 0.951 . S
H841 C809 0.950 . S
H842 C813 0.949 . S
H843 C814 0.950 . S
H844 C818 0.950 . S
H845 C820 0.950 . S
H846 C823 0.950 . S
H847 C825 0.950 . S
H848 C866 0.951 . S
H849 C868 0.951 . S
H850 C870 0.950 . S
H851 C871 0.950 . S
H852 C873 0.950 . S
H853 C876 0.950 . S
H854 C877 0.950 . S
H855 C879 0.950 . S
H856 C880 0.950 . S
H857 C881 0.951 . S
H858 C883 0.951 . S
H859 C885 0.950 . S
H860 C886 0.950 . S
H861 C888 0.950 . S
H862 C891 0.950 . S
H863 C892 0.950 . S
H864 C894 0.950 . S
H865 C895 0.950 . S
C866 H848 0.951 . S
C866 C867 1.366 . S
C866 C868 1.388 . S
C867 C866 1.366 . S
C867 C871 1.385 . S
C868 H849 0.951 . S
C868 C866 1.388 . S
C868 C869 1.366 . S
C869 C868 1.366 . S
C869 C870 1.414 . S
C869 C872 1.499 . S
C870 H850 0.950 . S
C870 C869 1.414 . S
C870 C871 1.374 . S
C871 H851 0.950 . S
C871 C867 1.385 . S
C871 C870 1.374 . S
C872 C869 1.499 . S
C872 C873 1.373 . S
C872 C874 1.389 . S
C873 H852 0.950 . S
C873 C872 1.373 . S
C873 C889 1.377 1_556 S
C874 C872 1.389 . S
C874 C875 1.524 . S
C874 C888 1.377 1_556 S
C875 C874 1.524 . S
C875 C876 1.397 . S
C875 C880 1.363 . S
C876 H853 0.950 . S
C876 C875 1.397 . S
C876 C877 1.334 . S
C877 H854 0.950 . S
C877 C876 1.334 . S
C877 C878 1.287 . S
C878 C877 1.287 . S
C878 C879 1.524 . S
C878 H897 0.913 . S
C879 H855 0.950 . S
C879 C878 1.524 . S
C879 C880 1.415 . S
C880 H856 0.950 . S
C880 C875 1.363 . S
C880 C879 1.415 . S
C881 H857 0.951 . S
C881 C882 1.366 . S
C881 C883 1.388 . S
C882 C881 1.366 . S
C882 C886 1.385 . S
C883 H858 0.951 . S
C883 C881 1.388 . S
C883 C884 1.366 . S
C884 C883 1.366 . S
C884 C885 1.414 . S
C884 C887 1.499 . S
C885 H859 0.950 . S
C885 C884 1.414 . S
C885 C886 1.374 . S
C886 H860 0.950 . S
C886 C882 1.385 . S
C886 C885 1.374 . S
C887 C884 1.499 . S
C887 C888 1.373 . S
C887 C889 1.389 . S
C888 H861 0.950 . S
C888 C874 1.377 1_554 S
C888 C887 1.373 . S
C889 C873 1.377 1_554 S
C889 C887 1.389 . S
C889 C890 1.524 . S
C890 C889 1.524 . S
C890 C891 1.397 . S
C890 C895 1.363 . S
C891 H862 0.950 . S
C891 C890 1.397 . S
C891 C892 1.334 . S
C892 H863 0.950 . S
C892 C891 1.334 . S
C892 C893 1.287 . S
C893 C892 1.287 . S
C893 C894 1.524 . S
C893 H896 0.999 . S
C894 H864 0.950 . S
C894 C893 1.524 . S
C894 C895 1.415 . S
C895 H865 0.950 . S
C895 C890 1.363 . S
C895 C894 1.415 . S
H896 C893 0.999 . S
H897 C878 0.913 . S
H898 C916 0.951 . S
H899 C918 0.951 . S
H900 C920 0.950 . S
H901 C921 0.950 . S
H902 C923 0.950 . S
H903 C926 0.950 . S
H904 C927 0.950 . S
H905 C929 0.950 . S
H906 C930 0.950 . S
H907 C931 0.951 . S
H908 C933 0.951 . S
H909 C935 0.950 . S
H910 C936 0.950 . S
H911 C938 0.950 . S
H912 C941 0.950 . S
H913 C942 0.950 . S
H914 C944 0.950 . S
H915 C945 0.950 . S
C916 H898 0.951 . S
C916 C917 1.366 . S
C916 C918 1.388 . S
C917 C916 1.366 . S
C917 C921 1.385 . S
C918 H899 0.951 . S
C918 C916 1.388 . S
C918 C919 1.366 . S
C919 C918 1.366 . S
C919 C920 1.414 . S
C919 C922 1.499 . S
C920 H900 0.950 . S
C920 C919 1.414 . S
C920 C921 1.374 . S
C921 H901 0.950 . S
C921 C917 1.385 . S
C921 C920 1.374 . S
C922 C919 1.499 . S
C922 C923 1.373 . S
C922 C924 1.389 . S
C923 H902 0.950 . S
C923 C922 1.373 . S
C923 C939 1.377 . S
C924 C922 1.389 . S
C924 C925 1.524 . S
C924 C938 1.377 . S
C925 C924 1.524 . S
C925 C926 1.397 . S
C925 C930 1.363 . S
C926 H903 0.950 . S
C926 C925 1.397 . S
C926 C927 1.334 . S
C927 H904 0.950 . S
C927 C926 1.334 . S
C927 C928 1.287 . S
C928 C927 1.287 . S
C928 C929 1.524 . S
C928 H947 0.913 . S
C929 H905 0.950 . S
C929 C928 1.524 . S
C929 C930 1.415 . S
C930 H906 0.950 . S
C930 C925 1.363 . S
C930 C929 1.415 . S
C931 H907 0.951 . S
C931 C932 1.366 . S
C931 C933 1.388 . S
C932 C931 1.366 . S
C932 C936 1.385 . S
C933 H908 0.951 . S
C933 C931 1.388 . S
C933 C934 1.366 . S
C934 C933 1.366 . S
C934 C935 1.414 . S
C934 C937 1.499 . S
C935 H909 0.950 . S
C935 C934 1.414 . S
C935 C936 1.374 . S
C936 H910 0.950 . S
C936 C932 1.385 . S
C936 C935 1.374 . S
C937 C934 1.499 . S
C937 C938 1.373 . S
C937 C939 1.389 . S
C938 H911 0.950 . S
C938 C924 1.377 . S
C938 C937 1.373 . S
C939 C923 1.377 . S
C939 C937 1.389 . S
C939 C940 1.524 . S
C940 C939 1.524 . S
C940 C941 1.397 . S
C940 C945 1.363 . S
C941 H912 0.950 . S
C941 C940 1.397 . S
C941 C942 1.334 . S
C942 H913 0.950 . S
C942 C941 1.334 . S
C942 C943 1.287 . S
C943 C942 1.287 . S
C943 C944 1.524 . S
C943 H946 0.999 . S
C944 H914 0.950 . S
C944 C943 1.524 . S
C944 C945 1.415 . S
C945 H915 0.950 . S
C945 C940 1.363 . S
C945 C944 1.415 . S
H946 C943 0.999 . S
H947 C928 0.913 . S
H948 C966 0.951 . S
H949 C968 0.951 . S
H950 C970 0.950 . S
H951 C971 0.950 . S
H952 C973 0.950 . S
H953 C976 0.950 . S
H954 C977 0.950 . S
H955 C979 0.950 . S
H956 C980 0.950 . S
H957 C981 0.951 . S
H958 C983 0.951 . S
H959 C985 0.950 . S
H960 C986 0.950 . S
H961 C988 0.950 . S
H962 C991 0.950 . S
H963 C992 0.950 . S
H964 C994 0.950 . S
H965 C995 0.950 . S
C966 H948 0.951 . S
C966 C967 1.366 . S
C966 C968 1.388 . S
C967 C966 1.366 . S
C967 C971 1.385 . S
C968 H949 0.951 . S
C968 C966 1.388 . S
C968 C969 1.366 . S
C969 C968 1.366 . S
C969 C970 1.414 . S
C969 C972 1.499 . S
C970 H950 0.950 . S
C970 C969 1.414 . S
C970 C971 1.374 . S
C971 H951 0.950 . S
C971 C967 1.385 . S
C971 C970 1.374 . S
C972 C969 1.499 . S
C972 C973 1.373 . S
C972 C974 1.389 . S
C973 H952 0.950 . S
C973 C972 1.373 . S
C973 C989 1.377 1_556 S
C974 C972 1.389 . S
C974 C975 1.524 . S
C974 C988 1.377 1_556 S
C975 C974 1.524 . S
C975 C976 1.397 . S
C975 C980 1.363 . S
C976 H953 0.950 . S
C976 C975 1.397 . S
C976 C977 1.334 . S
C977 H954 0.950 . S
C977 C976 1.334 . S
C977 C978 1.287 . S
C978 C977 1.287 . S
C978 C979 1.524 . S
C978 H997 0.913 . S
C979 H955 0.950 . S
C979 C978 1.524 . S
C979 C980 1.415 . S
C980 H956 0.950 . S
C980 C975 1.363 . S
C980 C979 1.415 . S
C981 H957 0.951 . S
C981 C982 1.366 . S
C981 C983 1.388 . S
C982 C981 1.366 . S
C982 C986 1.385 . S
C983 H958 0.951 . S
C983 C981 1.388 . S
C983 C984 1.366 . S
C984 C983 1.366 . S
C984 C985 1.414 . S
C984 C987 1.499 . S
C985 H959 0.950 . S
C985 C984 1.414 . S
C985 C986 1.374 . S
C986 H960 0.950 . S
C986 C982 1.385 . S
C986 C985 1.374 . S
C987 C984 1.499 . S
C987 C988 1.373 . S
C987 C989 1.389 . S
C988 H961 0.950 . S
C988 C974 1.377 1_554 S
C988 C987 1.373 . S
C989 C973 1.377 1_554 S
C989 C987 1.389 . S
C989 C990 1.524 . S
C990 C989 1.524 . S
C990 C991 1.397 . S
C990 C995 1.363 . S
C991 H962 0.950 . S
C991 C990 1.397 . S
C991 C992 1.334 . S
C992 H963 0.950 . S
C992 C991 1.334 . S
C992 C993 1.287 . S
C993 C992 1.287 . S
C993 C994 1.524 . S
C993 H996 0.999 . S
C994 H964 0.950 . S
C994 C993 1.524 . S
C994 C995 1.415 . S
C995 H965 0.950 . S
C995 C990 1.363 . S
C995 C994 1.415 . S
H996 C993 0.999 . S
H997 C978 0.913 . S
H998 C1016 0.951 . S
H999 C1018 0.951 . S
H1000 C1020 0.950 . S
H1001 C1021 0.950 . S
H1002 C1023 0.950 . S
H1003 C1026 0.950 . S
H1004 C1027 0.950 . S
H1005 C1029 0.950 . S
H1006 C1030 0.950 . S
H1007 C1031 0.951 . S
H1008 C1033 0.951 . S
H1009 C1035 0.950 . S
H1010 C1036 0.950 . S
H1011 C1038 0.950 . S
H1012 C1041 0.950 . S
H1013 C1042 0.950 . S
H1014 C1044 0.950 . S
H1015 C1045 0.950 . S
C1016 H998 0.951 . S
C1016 C1017 1.366 . S
C1016 C1018 1.388 . S
C1017 C1016 1.366 . S
C1017 C1021 1.385 . S
C1018 H999 0.951 . S
C1018 C1016 1.388 . S
C1018 C1019 1.366 . S
C1019 C1018 1.366 . S
C1019 C1020 1.414 . S
C1019 C1022 1.499 . S
C1020 H1000 0.950 . S
C1020 C1019 1.414 . S
C1020 C1021 1.374 . S
C1021 H1001 0.950 . S
C1021 C1017 1.385 . S
C1021 C1020 1.374 . S
C1022 C1019 1.499 . S
C1022 C1023 1.373 . S
C1022 C1024 1.389 . S
C1023 H1002 0.950 . S
C1023 C1022 1.373 . S
C1023 C1039 1.377 . S
C1024 C1022 1.389 . S
C1024 C1025 1.524 . S
C1024 C1038 1.377 . S
C1025 C1024 1.524 . S
C1025 C1026 1.397 . S
C1025 C1030 1.363 . S
C1026 H1003 0.950 . S
C1026 C1025 1.397 . S
C1026 C1027 1.334 . S
C1027 H1004 0.950 . S
C1027 C1026 1.334 . S
C1027 C1028 1.287 . S
C1028 C1027 1.287 . S
C1028 C1029 1.524 . S
C1028 H1047 0.913 . S
C1029 H1005 0.950 . S
C1029 C1028 1.524 . S
C1029 C1030 1.415 . S
C1030 H1006 0.950 . S
C1030 C1025 1.363 . S
C1030 C1029 1.415 . S
C1031 H1007 0.951 . S
C1031 C1032 1.366 . S
C1031 C1033 1.388 . S
C1032 C1031 1.366 . S
C1032 C1036 1.385 . S
C1033 H1008 0.951 . S
C1033 C1031 1.388 . S
C1033 C1034 1.366 . S
C1034 C1033 1.366 . S
C1034 C1035 1.414 . S
C1034 C1037 1.499 . S
C1035 H1009 0.950 . S
C1035 C1034 1.414 . S
C1035 C1036 1.374 . S
C1036 H1010 0.950 . S
C1036 C1032 1.385 . S
C1036 C1035 1.374 . S
C1037 C1034 1.499 . S
C1037 C1038 1.373 . S
C1037 C1039 1.389 . S
C1038 H1011 0.950 . S
C1038 C1024 1.377 . S
C1038 C1037 1.373 . S
C1039 C1023 1.377 . S
C1039 C1037 1.389 . S
C1039 C1040 1.524 . S
C1040 C1039 1.524 . S
C1040 C1041 1.397 . S
C1040 C1045 1.363 . S
C1041 H1012 0.950 . S
C1041 C1040 1.397 . S
C1041 C1042 1.334 . S
C1042 H1013 0.950 . S
C1042 C1041 1.334 . S
C1042 C1043 1.287 . S
C1043 C1042 1.287 . S
C1043 C1044 1.524 . S
C1043 H1046 0.999 . S
C1044 H1014 0.950 . S
C1044 C1043 1.524 . S
C1044 C1045 1.415 . S
C1045 H1015 0.950 . S
C1045 C1040 1.363 . S
C1045 C1044 1.415 . S
H1046 C1043 0.999 . S
H1047 C1028 0.913 . S
H1048 C1066 0.951 . S
H1049 C1068 0.951 . S
H1050 C1070 0.950 . S
H1051 C1071 0.950 . S
H1052 C1073 0.950 . S
H1053 C1076 0.950 . S
H1054 C1077 0.950 . S
H1055 C1079 0.950 . S
H1056 C1080 0.950 . S
H1057 C1081 0.951 . S
H1058 C1083 0.951 . S
H1059 C1085 0.950 . S
H1060 C1086 0.950 . S
H1061 C1088 0.950 . S
H1062 C1091 0.950 . S
H1063 C1092 0.950 . S
H1064 C1094 0.950 . S
H1065 C1095 0.950 . S
C1066 H1048 0.951 . S
C1066 C1067 1.366 . S
C1066 C1068 1.388 . S
C1067 C1066 1.366 . S
C1067 C1071 1.385 . S
C1068 H1049 0.951 . S
C1068 C1066 1.388 . S
C1068 C1069 1.366 . S
C1069 C1068 1.366 . S
C1069 C1070 1.414 . S
C1069 C1072 1.499 . S
C1070 H1050 0.950 . S
C1070 C1069 1.414 . S
C1070 C1071 1.374 . S
C1071 H1051 0.950 . S
C1071 C1067 1.385 . S
C1071 C1070 1.374 . S
C1072 C1069 1.499 . S
C1072 C1073 1.373 . S
C1072 C1074 1.389 . S
C1073 H1052 0.950 . S
C1073 C1072 1.373 . S
C1073 C1089 1.377 1_554 S
C1074 C1072 1.389 . S
C1074 C1075 1.524 . S
C1074 C1088 1.377 1_554 S
C1075 C1074 1.524 . S
C1075 C1076 1.397 . S
C1075 C1080 1.363 . S
C1076 H1053 0.950 . S
C1076 C1075 1.397 . S
C1076 C1077 1.334 . S
C1077 H1054 0.950 . S
C1077 C1076 1.334 . S
C1077 C1078 1.287 . S
C1078 C1077 1.287 . S
C1078 C1079 1.524 . S
C1078 H1097 0.913 . S
C1079 H1055 0.950 . S
C1079 C1078 1.524 . S
C1079 C1080 1.415 . S
C1080 H1056 0.950 . S
C1080 C1075 1.363 . S
C1080 C1079 1.415 . S
C1081 H1057 0.951 . S
C1081 C1082 1.366 . S
C1081 C1083 1.388 . S
C1082 C1081 1.366 . S
C1082 C1086 1.385 . S
C1083 H1058 0.951 . S
C1083 C1081 1.388 . S
C1083 C1084 1.366 . S
C1084 C1083 1.366 . S
C1084 C1085 1.414 . S
C1084 C1087 1.499 . S
C1085 H1059 0.950 . S
C1085 C1084 1.414 . S
C1085 C1086 1.374 . S
C1086 H1060 0.950 . S
C1086 C1082 1.385 . S
C1086 C1085 1.374 . S
C1087 C1084 1.499 . S
C1087 C1088 1.373 . S
C1087 C1089 1.389 . S
C1088 H1061 0.950 . S
C1088 C1074 1.377 1_556 S
C1088 C1087 1.373 . S
C1089 C1073 1.377 1_556 S
C1089 C1087 1.389 . S
C1089 C1090 1.524 . S
C1090 C1089 1.524 . S
C1090 C1091 1.397 . S
C1090 C1095 1.363 . S
C1091 H1062 0.950 . S
C1091 C1090 1.397 . S
C1091 C1092 1.334 . S
C1092 H1063 0.950 . S
C1092 C1091 1.334 . S
C1092 C1093 1.287 . S
C1093 C1092 1.287 . S
C1093 C1094 1.524 . S
C1093 H1096 0.999 . S
C1094 H1064 0.950 . S
C1094 C1093 1.524 . S
C1094 C1095 1.415 . S
C1095 H1065 0.950 . S
C1095 C1090 1.363 . S
C1095 C1094 1.415 . S
H1096 C1093 0.999 . S
H1097 C1078 0.913 . S
H1098 C1116 0.951 . S
H1099 C1118 0.951 . S
H1100 C1120 0.950 . S
H1101 C1121 0.950 . S
H1102 C1123 0.950 . S
H1103 C1126 0.950 . S
H1104 C1127 0.950 . S
H1105 C1129 0.950 . S
H1106 C1130 0.950 . S
H1107 C1131 0.951 . S
H1108 C1133 0.951 . S
H1109 C1135 0.950 . S
H1110 C1136 0.950 . S
H1111 C1138 0.950 . S
H1112 C1141 0.950 . S
H1113 C1142 0.950 . S
H1114 C1144 0.950 . S
H1115 C1145 0.950 . S
C1116 H1098 0.951 . S
C1116 C1117 1.366 . S
C1116 C1118 1.388 . S
C1117 C1116 1.366 . S
C1117 C1121 1.385 . S
C1118 H1099 0.951 . S
C1118 C1116 1.388 . S
C1118 C1119 1.366 . S
C1119 C1118 1.366 . S
C1119 C1120 1.414 . S
C1119 C1122 1.499 . S
C1120 H1100 0.950 . S
C1120 C1119 1.414 . S
C1120 C1121 1.374 . S
C1121 H1101 0.950 . S
C1121 C1117 1.385 . S
C1121 C1120 1.374 . S
C1122 C1119 1.499 . S
C1122 C1123 1.373 . S
C1122 C1124 1.389 . S
C1123 H1102 0.950 . S
C1123 C1122 1.373 . S
C1123 C1139 1.377 . S
C1124 C1122 1.389 . S
C1124 C1125 1.524 . S
C1124 C1138 1.377 . S
C1125 C1124 1.524 . S
C1125 C1126 1.397 . S
C1125 C1130 1.363 . S
C1126 H1103 0.950 . S
C1126 C1125 1.397 . S
C1126 C1127 1.334 . S
C1127 H1104 0.950 . S
C1127 C1126 1.334 . S
C1127 C1128 1.287 . S
C1128 C1127 1.287 . S
C1128 C1129 1.524 . S
C1128 H1147 0.913 . S
C1129 H1105 0.950 . S
C1129 C1128 1.524 . S
C1129 C1130 1.415 . S
C1130 H1106 0.950 . S
C1130 C1125 1.363 . S
C1130 C1129 1.415 . S
C1131 H1107 0.951 . S
C1131 C1132 1.366 . S
C1131 C1133 1.388 . S
C1132 C1131 1.366 . S
C1132 C1136 1.385 . S
C1133 H1108 0.951 . S
C1133 C1131 1.388 . S
C1133 C1134 1.366 . S
C1134 C1133 1.366 . S
C1134 C1135 1.414 . S
C1134 C1137 1.499 . S
C1135 H1109 0.950 . S
C1135 C1134 1.414 . S
C1135 C1136 1.374 . S
C1136 H1110 0.950 . S
C1136 C1132 1.385 . S
C1136 C1135 1.374 . S
C1137 C1134 1.499 . S
C1137 C1138 1.373 . S
C1137 C1139 1.389 . S
C1138 H1111 0.950 . S
C1138 C1124 1.377 . S
C1138 C1137 1.373 . S
C1139 C1123 1.377 . S
C1139 C1137 1.389 . S
C1139 C1140 1.524 . S
C1140 C1139 1.524 . S
C1140 C1141 1.397 . S
C1140 C1145 1.363 . S
C1141 H1112 0.950 . S
C1141 C1140 1.397 . S
C1141 C1142 1.334 . S
C1142 H1113 0.950 . S
C1142 C1141 1.334 . S
C1142 C1143 1.287 . S
C1143 C1142 1.287 . S
C1143 C1144 1.524 . S
C1143 H1146 0.999 . S
C1144 H1114 0.950 . S
C1144 C1143 1.524 . S
C1144 C1145 1.415 . S
C1145 H1115 0.950 . S
C1145 C1140 1.363 . S
C1145 C1144 1.415 . S
H1146 C1143 0.999 . S
H1147 C1128 0.913 . S
H1148 C1166 0.951 . S
H1149 C1168 0.951 . S
H1150 C1170 0.950 . S
H1151 C1171 0.950 . S
H1152 C1173 0.950 . S
H1153 C1176 0.950 . S
H1154 C1177 0.950 . S
H1155 C1179 0.950 . S
H1156 C1180 0.950 . S
H1157 C1181 0.951 . S
H1158 C1183 0.951 . S
H1159 C1185 0.950 . S
H1160 C1186 0.950 . S
H1161 C1188 0.950 . S
H1162 C1191 0.950 . S
H1163 C1192 0.950 . S
H1164 C1194 0.950 . S
H1165 C1195 0.950 . S
C1166 H1148 0.951 . S
C1166 C1167 1.366 . S
C1166 C1168 1.388 . S
C1167 C1166 1.366 . S
C1167 C1171 1.385 . S
C1168 H1149 0.951 . S
C1168 C1166 1.388 . S
C1168 C1169 1.366 . S
C1169 C1168 1.366 . S
C1169 C1170 1.414 . S
C1169 C1172 1.499 . S
C1170 H1150 0.950 . S
C1170 C1169 1.414 . S
C1170 C1171 1.374 . S
C1171 H1151 0.950 . S
C1171 C1167 1.385 . S
C1171 C1170 1.374 . S
C1172 C1169 1.499 . S
C1172 C1173 1.373 . S
C1172 C1174 1.389 . S
C1173 H1152 0.950 . S
C1173 C1172 1.373 . S
C1173 C1189 1.377 1_556 S
C1174 C1172 1.389 . S
C1174 C1175 1.524 . S
C1174 C1188 1.377 1_556 S
C1175 C1174 1.524 . S
C1175 C1176 1.397 . S
C1175 C1180 1.363 . S
C1176 H1153 0.950 . S
C1176 C1175 1.397 . S
C1176 C1177 1.334 . S
C1177 H1154 0.950 . S
C1177 C1176 1.334 . S
C1177 C1178 1.287 . S
C1178 C1177 1.287 . S
C1178 C1179 1.524 . S
C1178 H1197 0.913 . S
C1179 H1155 0.950 . S
C1179 C1178 1.524 . S
C1179 C1180 1.415 . S
C1180 H1156 0.950 . S
C1180 C1175 1.363 . S
C1180 C1179 1.415 . S
C1181 H1157 0.951 . S
C1181 C1182 1.366 . S
C1181 C1183 1.388 . S
C1182 C1181 1.366 . S
C1182 C1186 1.385 . S
C1183 H1158 0.951 . S
C1183 C1181 1.388 . S
C1183 C1184 1.366 . S
C1184 C1183 1.366 . S
C1184 C1185 1.414 . S
C1184 C1187 1.499 . S
C1185 H1159 0.950 . S
C1185 C1184 1.414 . S
C1185 C1186 1.374 . S
C1186 H1160 0.950 . S
C1186 C1182 1.385 . S
C1186 C1185 1.374 . S
C1187 C1184 1.499 . S
C1187 C1188 1.373 . S
C1187 C1189 1.389 . S
C1188 H1161 0.950 . S
C1188 C1174 1.377 1_554 S
C1188 C1187 1.373 . S
C1189 C1173 1.377 1_554 S
C1189 C1187 1.389 . S
C1189 C1190 1.524 . S
C1190 C1189 1.524 . S
C1190 C1191 1.397 . S
C1190 C1195 1.363 . S
C1191 H1162 0.950 . S
C1191 C1190 1.397 . S
C1191 C1192 1.334 . S
C1192 H1163 0.950 . S
C1192 C1191 1.334 . S
C1192 C1193 1.287 . S
C1193 C1192 1.287 . S
C1193 C1194 1.524 . S
C1193 H1196 0.999 . S
C1194 H1164 0.950 . S
C1194 C1193 1.524 . S
C1194 C1195 1.415 . S
C1195 H1165 0.950 . S
C1195 C1190 1.363 . S
C1195 C1194 1.415 . S
H1196 C1193 0.999 . S
H1197 C1178 0.913 . S
H1198 C1216 0.951 . S
H1199 C1218 0.951 . S
H1200 C1220 0.950 . S
H1201 C1221 0.950 . S
H1202 C1223 0.950 . S
H1203 C1226 0.950 . S
H1204 C1227 0.950 . S
H1205 C1229 0.950 . S
H1206 C1230 0.950 . S
H1207 C1231 0.951 . S
H1208 C1233 0.951 . S
H1209 C1235 0.950 . S
H1210 C1236 0.950 . S
H1211 C1238 0.950 . S
H1212 C1241 0.950 . S
H1213 C1242 0.950 . S
H1214 C1244 0.950 . S
H1215 C1245 0.950 . S
C1216 H1198 0.951 . S
C1216 C1217 1.366 . S
C1216 C1218 1.388 . S
C1217 C1216 1.366 . S
C1217 C1221 1.385 . S
C1218 H1199 0.951 . S
C1218 C1216 1.388 . S
C1218 C1219 1.366 . S
C1219 C1218 1.366 . S
C1219 C1220 1.414 . S
C1219 C1222 1.499 . S
C1220 H1200 0.950 . S
C1220 C1219 1.414 . S
C1220 C1221 1.374 . S
C1221 H1201 0.950 . S
C1221 C1217 1.385 . S
C1221 C1220 1.374 . S
C1222 C1219 1.499 . S
C1222 C1223 1.373 . S
C1222 C1224 1.389 . S
C1223 H1202 0.950 . S
C1223 C1222 1.373 . S
C1223 C1239 1.377 . S
C1224 C1222 1.389 . S
C1224 C1225 1.524 . S
C1224 C1238 1.377 . S
C1225 C1224 1.524 . S
C1225 C1226 1.397 . S
C1225 C1230 1.363 . S
C1226 H1203 0.950 . S
C1226 C1225 1.397 . S
C1226 C1227 1.334 . S
C1227 H1204 0.950 . S
C1227 C1226 1.334 . S
C1227 C1228 1.287 . S
C1228 C1227 1.287 . S
C1228 C1229 1.524 . S
C1228 H1247 0.913 . S
C1229 H1205 0.950 . S
C1229 C1228 1.524 . S
C1229 C1230 1.415 . S
C1230 H1206 0.950 . S
C1230 C1225 1.363 . S
C1230 C1229 1.415 . S
C1231 H1207 0.951 . S
C1231 C1232 1.366 . S
C1231 C1233 1.388 . S
C1232 C1231 1.366 . S
C1232 C1236 1.385 . S
C1233 H1208 0.951 . S
C1233 C1231 1.388 . S
C1233 C1234 1.366 . S
C1234 C1233 1.366 . S
C1234 C1235 1.414 . S
C1234 C1237 1.499 . S
C1235 H1209 0.950 . S
C1235 C1234 1.414 . S
C1235 C1236 1.374 . S
C1236 H1210 0.950 . S
C1236 C1232 1.385 . S
C1236 C1235 1.374 . S
C1237 C1234 1.499 . S
C1237 C1238 1.373 . S
C1237 C1239 1.389 . S
C1238 H1211 0.950 . S
C1238 C1224 1.377 . S
C1238 C1237 1.373 . S
C1239 C1223 1.377 . S
C1239 C1237 1.389 . S
C1239 C1240 1.524 . S
C1240 C1239 1.524 . S
C1240 C1241 1.397 . S
C1240 C1245 1.363 . S
C1241 H1212 0.950 . S
C1241 C1240 1.397 . S
C1241 C1242 1.334 . S
C1242 H1213 0.950 . S
C1242 C1241 1.334 . S
C1242 C1243 1.287 . S
C1243 C1242 1.287 . S
C1243 C1244 1.524 . S
C1243 H1246 0.999 . S
C1244 H1214 0.950 . S
C1244 C1243 1.524 . S
C1244 C1245 1.415 . S
C1245 H1215 0.950 . S
C1245 C1240 1.363 . S
C1245 C1244 1.415 . S
H1246 C1243 0.999 . S
H1247 C1228 0.913 . S
H1248 C1266 0.951 . S
H1249 C1268 0.951 . S
H1250 C1270 0.950 . S
H1251 C1271 0.950 . S
H1252 C1273 0.950 . S
H1253 C1276 0.950 . S
H1254 C1277 0.950 . S
H1255 C1279 0.950 . S
H1256 C1280 0.950 . S
H1257 C1281 0.951 . S
H1258 C1283 0.951 . S
H1259 C1285 0.950 . S
H1260 C1286 0.950 . S
H1261 C1288 0.950 . S
H1262 C1291 0.950 . S
H1263 C1292 0.950 . S
H1264 C1294 0.950 . S
H1265 C1295 0.950 . S
C1266 H1248 0.951 . S
C1266 C1267 1.366 . S
C1266 C1268 1.388 . S
C1267 C1266 1.366 . S
C1267 C1271 1.385 . S
C1268 H1249 0.951 . S
C1268 C1266 1.388 . S
C1268 C1269 1.366 . S
C1269 C1268 1.366 . S
C1269 C1270 1.414 . S
C1269 C1272 1.499 . S
C1270 H1250 0.950 . S
C1270 C1269 1.414 . S
C1270 C1271 1.374 . S
C1271 H1251 0.950 . S
C1271 C1267 1.385 . S
C1271 C1270 1.374 . S
C1272 C1269 1.499 . S
C1272 C1273 1.373 . S
C1272 C1274 1.389 . S
C1273 H1252 0.950 . S
C1273 C1272 1.373 . S
C1273 C1289 1.377 . S
C1274 C1272 1.389 . S
C1274 C1275 1.524 . S
C1274 C1288 1.377 . S
C1275 C1274 1.524 . S
C1275 C1276 1.397 . S
C1275 C1280 1.363 . S
C1276 H1253 0.950 . S
C1276 C1275 1.397 . S
C1276 C1277 1.334 . S
C1277 H1254 0.950 . S
C1277 C1276 1.334 . S
C1277 C1278 1.287 . S
C1278 C1277 1.287 . S
C1278 C1279 1.524 . S
C1278 H1297 0.913 . S
C1279 H1255 0.950 . S
C1279 C1278 1.524 . S
C1279 C1280 1.415 . S
C1280 H1256 0.950 . S
C1280 C1275 1.363 . S
C1280 C1279 1.415 . S
C1281 H1257 0.951 . S
C1281 C1282 1.366 . S
C1281 C1283 1.388 . S
C1282 C1281 1.366 . S
C1282 C1286 1.385 . S
C1283 H1258 0.951 . S
C1283 C1281 1.388 . S
C1283 C1284 1.366 . S
C1284 C1283 1.366 . S
C1284 C1285 1.414 . S
C1284 C1287 1.499 . S
C1285 H1259 0.950 . S
C1285 C1284 1.414 . S
C1285 C1286 1.374 . S
C1286 H1260 0.950 . S
C1286 C1282 1.385 . S
C1286 C1285 1.374 . S
C1287 C1284 1.499 . S
C1287 C1288 1.373 . S
C1287 C1289 1.389 . S
C1288 H1261 0.950 . S
C1288 C1274 1.377 . S
C1288 C1287 1.373 . S
C1289 C1273 1.377 . S
C1289 C1287 1.389 . S
C1289 C1290 1.524 . S
C1290 C1289 1.524 . S
C1290 C1291 1.397 . S
C1290 C1295 1.363 . S
C1291 H1262 0.950 . S
C1291 C1290 1.397 . S
C1291 C1292 1.334 . S
C1292 H1263 0.950 . S
C1292 C1291 1.334 . S
C1292 C1293 1.287 . S
C1293 C1292 1.287 . S
C1293 C1294 1.524 . S
C1293 H1296 0.999 . S
C1294 H1264 0.950 . S
C1294 C1293 1.524 . S
C1294 C1295 1.415 . S
C1295 H1265 0.950 . S
C1295 C1290 1.363 . S
C1295 C1294 1.415 . S
H1296 C1293 0.999 . S
H1297 C1278 0.913 . S
H1298 C1316 0.951 . S
H1299 C1318 0.951 . S
H1300 C1320 0.950 . S
H1301 C1321 0.950 . S
H1302 C1323 0.950 . S
H1303 C1326 0.950 . S
H1304 C1327 0.950 . S
H1305 C1329 0.950 . S
H1306 C1330 0.950 . S
H1307 C1331 0.951 . S
H1308 C1333 0.951 . S
H1309 C1335 0.950 . S
H1310 C1336 0.950 . S
H1311 C1338 0.950 . S
H1312 C1341 0.950 . S
H1313 C1342 0.950 . S
H1314 C1344 0.950 . S
H1315 C1345 0.950 . S
C1316 H1298 0.951 . S
C1316 C1317 1.366 . S
C1316 C1318 1.388 . S
C1317 C1316 1.366 . S
C1317 C1321 1.385 . S
C1318 H1299 0.951 . S
C1318 C1316 1.388 . S
C1318 C1319 1.366 . S
C1319 C1318 1.366 . S
C1319 C1320 1.414 . S
C1319 C1322 1.499 . S
C1320 H1300 0.950 . S
C1320 C1319 1.414 . S
C1320 C1321 1.374 . S
C1321 H1301 0.950 . S
C1321 C1317 1.385 . S
C1321 C1320 1.374 . S
C1322 C1319 1.499 . S
C1322 C1323 1.373 . S
C1322 C1324 1.389 . S
C1323 H1302 0.950 . S
C1323 C1322 1.373 . S
C1323 C1339 1.377 . S
C1324 C1322 1.389 . S
C1324 C1325 1.524 . S
C1324 C1338 1.377 . S
C1325 C1324 1.524 . S
C1325 C1326 1.397 . S
C1325 C1330 1.363 . S
C1326 H1303 0.950 . S
C1326 C1325 1.397 . S
C1326 C1327 1.334 . S
C1327 H1304 0.950 . S
C1327 C1326 1.334 . S
C1327 C1328 1.287 . S
C1328 C1327 1.287 . S
C1328 C1329 1.524 . S
C1328 H1347 0.913 . S
C1329 H1305 0.950 . S
C1329 C1328 1.524 . S
C1329 C1330 1.415 . S
C1330 H1306 0.950 . S
C1330 C1325 1.363 . S
C1330 C1329 1.415 . S
C1331 H1307 0.951 . S
C1331 C1332 1.366 . S
C1331 C1333 1.388 . S
C1332 C1331 1.366 . S
C1332 C1336 1.385 . S
C1333 H1308 0.951 . S
C1333 C1331 1.388 . S
C1333 C1334 1.366 . S
C1334 C1333 1.366 . S
C1334 C1335 1.414 . S
C1334 C1337 1.499 . S
C1335 H1309 0.950 . S
C1335 C1334 1.414 . S
C1335 C1336 1.374 . S
C1336 H1310 0.950 . S
C1336 C1332 1.385 . S
C1336 C1335 1.374 . S
C1337 C1334 1.499 . S
C1337 C1338 1.373 . S
C1337 C1339 1.389 . S
C1338 H1311 0.950 . S
C1338 C1324 1.377 . S
C1338 C1337 1.373 . S
C1339 C1323 1.377 . S
C1339 C1337 1.389 . S
C1339 C1340 1.524 . S
C1340 C1339 1.524 . S
C1340 C1341 1.397 . S
C1340 C1345 1.363 . S
C1341 H1312 0.950 . S
C1341 C1340 1.397 . S
C1341 C1342 1.334 . S
C1342 H1313 0.950 . S
C1342 C1341 1.334 . S
C1342 C1343 1.287 . S
C1343 C1342 1.287 . S
C1343 C1344 1.524 . S
C1343 H1346 0.999 . S
C1344 H1314 0.950 . S
C1344 C1343 1.524 . S
C1344 C1345 1.415 . S
C1345 H1315 0.950 . S
C1345 C1340 1.363 . S
C1345 C1344 1.415 . S
H1346 C1343 0.999 . S
H1347 C1328 0.913 . S
H1348 C1366 0.951 . S
H1349 C1368 0.951 . S
H1350 C1370 0.950 . S
H1351 C1371 0.950 . S
H1352 C1373 0.950 . S
H1353 C1376 0.950 . S
H1354 C1377 0.950 . S
H1355 C1379 0.950 . S
H1356 C1380 0.950 . S
H1357 C1381 0.951 . S
H1358 C1383 0.951 . S
H1359 C1385 0.950 . S
H1360 C1386 0.950 . S
H1361 C1388 0.950 . S
H1362 C1391 0.950 . S
H1363 C1392 0.950 . S
H1364 C1394 0.950 . S
H1365 C1395 0.950 . S
C1366 H1348 0.951 . S
C1366 C1367 1.366 . S
C1366 C1368 1.388 . S
C1367 C1366 1.366 . S
C1367 C1371 1.385 . S
C1368 H1349 0.951 . S
C1368 C1366 1.388 . S
C1368 C1369 1.366 . S
C1369 C1368 1.366 . S
C1369 C1370 1.414 . S
C1369 C1372 1.499 . S
C1370 H1350 0.950 . S
C1370 C1369 1.414 . S
C1370 C1371 1.374 . S
C1371 H1351 0.950 . S
C1371 C1367 1.385 . S
C1371 C1370 1.374 . S
C1372 C1369 1.499 . S
C1372 C1373 1.373 . S
C1372 C1374 1.389 . S
C1373 H1352 0.950 . S
C1373 C1372 1.373 . S
C1373 C1389 1.377 . S
C1374 C1372 1.389 . S
C1374 C1375 1.524 . S
C1374 C1388 1.377 . S
C1375 C1374 1.524 . S
C1375 C1376 1.397 . S
C1375 C1380 1.363 . S
C1376 H1353 0.950 . S
C1376 C1375 1.397 . S
C1376 C1377 1.334 . S
C1377 H1354 0.950 . S
C1377 C1376 1.334 . S
C1377 C1378 1.287 . S
C1378 C1377 1.287 . S
C1378 C1379 1.524 . S
C1378 H1397 0.913 . S
C1379 H1355 0.950 . S
C1379 C1378 1.524 . S
C1379 C1380 1.415 . S
C1380 H1356 0.950 . S
C1380 C1375 1.363 . S
C1380 C1379 1.415 . S
C1381 H1357 0.951 . S
C1381 C1382 1.366 . S
C1381 C1383 1.388 . S
C1382 C1381 1.366 . S
C1382 C1386 1.385 . S
C1383 H1358 0.951 . S
C1383 C1381 1.388 . S
C1383 C1384 1.366 . S
C1384 C1383 1.366 . S
C1384 C1385 1.414 . S
C1384 C1387 1.499 . S
C1385 H1359 0.950 . S
C1385 C1384 1.414 . S
C1385 C1386 1.374 . S
C1386 H1360 0.950 . S
C1386 C1382 1.385 . S
C1386 C1385 1.374 . S
C1387 C1384 1.499 . S
C1387 C1388 1.373 . S
C1387 C1389 1.389 . S
C1388 H1361 0.950 . S
C1388 C1374 1.377 . S
C1388 C1387 1.373 . S
C1389 C1373 1.377 . S
C1389 C1387 1.389 . S
C1389 C1390 1.524 . S
C1390 C1389 1.524 . S
C1390 C1391 1.397 . S
C1390 C1395 1.363 . S
C1391 H1362 0.950 . S
C1391 C1390 1.397 . S
C1391 C1392 1.334 . S
C1392 H1363 0.950 . S
C1392 C1391 1.334 . S
C1392 C1393 1.287 . S
C1393 C1392 1.287 . S
C1393 C1394 1.524 . S
C1393 H1396 0.999 . S
C1394 H1364 0.950 . S
C1394 C1393 1.524 . S
C1394 C1395 1.415 . S
C1395 H1365 0.950 . S
C1395 C1390 1.363 . S
C1395 C1394 1.415 . S
H1396 C1393 0.999 . S
H1397 C1378 0.913 . S
H1398 C1416 0.951 . S
H1399 C1418 0.951 . S
H1400 C1420 0.950 . S
H1401 C1421 0.950 . S
H1402 C1423 0.950 . S
H1403 C1426 0.950 . S
H1404 C1427 0.950 . S
H1405 C1429 0.950 . S
H1406 C1430 0.950 . S
H1407 C1431 0.951 . S
H1408 C1433 0.951 . S
H1409 C1435 0.950 . S
H1410 C1436 0.950 . S
H1411 C1438 0.950 . S
H1412 C1441 0.950 . S
H1413 C1442 0.950 . S
H1414 C1444 0.950 . S
H1415 C1445 0.950 . S
C1416 H1398 0.951 . S
C1416 C1417 1.366 . S
C1416 C1418 1.388 . S
C1417 C1416 1.366 . S
C1417 C1421 1.385 . S
C1418 H1399 0.951 . S
C1418 C1416 1.388 . S
C1418 C1419 1.366 . S
C1419 C1418 1.366 . S
C1419 C1420 1.414 . S
C1419 C1422 1.499 . S
C1420 H1400 0.950 . S
C1420 C1419 1.414 . S
C1420 C1421 1.374 . S
C1421 H1401 0.950 . S
C1421 C1417 1.385 . S
C1421 C1420 1.374 . S
C1422 C1419 1.499 . S
C1422 C1423 1.373 . S
C1422 C1424 1.389 . S
C1423 H1402 0.950 . S
C1423 C1422 1.373 . S
C1423 C1439 1.377 . S
C1424 C1422 1.389 . S
C1424 C1425 1.524 . S
C1424 C1438 1.377 . S
C1425 C1424 1.524 . S
C1425 C1426 1.397 . S
C1425 C1430 1.363 . S
C1426 H1403 0.950 . S
C1426 C1425 1.397 . S
C1426 C1427 1.334 . S
C1427 H1404 0.950 . S
C1427 C1426 1.334 . S
C1427 C1428 1.287 . S
C1428 C1427 1.287 . S
C1428 C1429 1.524 . S
C1428 H1447 0.913 . S
C1429 H1405 0.950 . S
C1429 C1428 1.524 . S
C1429 C1430 1.415 . S
C1430 H1406 0.950 . S
C1430 C1425 1.363 . S
C1430 C1429 1.415 . S
C1431 H1407 0.951 . S
C1431 C1432 1.366 . S
C1431 C1433 1.388 . S
C1432 C1431 1.366 . S
C1432 C1436 1.385 . S
C1433 H1408 0.951 . S
C1433 C1431 1.388 . S
C1433 C1434 1.366 . S
C1434 C1433 1.366 . S
C1434 C1435 1.414 . S
C1434 C1437 1.499 . S
C1435 H1409 0.950 . S
C1435 C1434 1.414 . S
C1435 C1436 1.374 . S
C1436 H1410 0.950 . S
C1436 C1432 1.385 . S
C1436 C1435 1.374 . S
C1437 C1434 1.499 . S
C1437 C1438 1.373 . S
C1437 C1439 1.389 . S
C1438 H1411 0.950 . S
C1438 C1424 1.377 . S
C1438 C1437 1.373 . S
C1439 C1423 1.377 . S
C1439 C1437 1.389 . S
C1439 C1440 1.524 . S
C1440 C1439 1.524 . S
C1440 C1441 1.397 . S
C1440 C1445 1.363 . S
C1441 H1412 0.950 . S
C1441 C1440 1.397 . S
C1441 C1442 1.334 . S
C1442 H1413 0.950 . S
C1442 C1441 1.334 . S
C1442 C1443 1.287 . S
C1443 C1442 1.287 . S
C1443 C1444 1.524 . S
C1443 H1446 0.999 . S
C1444 H1414 0.950 . S
C1444 C1443 1.524 . S
C1444 C1445 1.415 . S
C1445 H1415 0.950 . S
C1445 C1440 1.363 . S
C1445 C1444 1.415 . S
H1446 C1443 0.999 . S
H1447 C1428 0.913 . S
H1448 C1466 0.951 . S
H1449 C1468 0.951 . S
H1450 C1470 0.950 . S
H1451 C1471 0.950 . S
H1452 C1473 0.950 . S
H1453 C1476 0.950 . S
H1454 C1477 0.950 . S
H1455 C1479 0.950 . S
H1456 C1480 0.950 . S
H1457 C1481 0.951 . S
H1458 C1483 0.951 . S
H1459 C1485 0.950 . S
H1460 C1486 0.950 . S
H1461 C1488 0.950 . S
H1462 C1491 0.950 . S
H1463 C1492 0.950 . S
H1464 C1494 0.950 . S
H1465 C1495 0.950 . S
C1466 H1448 0.951 . S
C1466 C1467 1.366 . S
C1466 C1468 1.388 . S
C1467 C1466 1.366 . S
C1467 C1471 1.385 . S
C1468 H1449 0.951 . S
C1468 C1466 1.388 . S
C1468 C1469 1.366 . S
C1469 C1468 1.366 . S
C1469 C1470 1.414 . S
C1469 C1472 1.499 . S
C1470 H1450 0.950 . S
C1470 C1469 1.414 . S
C1470 C1471 1.374 . S
C1471 H1451 0.950 . S
C1471 C1467 1.385 . S
C1471 C1470 1.374 . S
C1472 C1469 1.499 . S
C1472 C1473 1.373 . S
C1472 C1474 1.389 . S
C1473 H1452 0.950 . S
C1473 C1472 1.373 . S
C1473 C1489 1.377 . S
C1474 C1472 1.389 . S
C1474 C1475 1.524 . S
C1474 C1488 1.377 . S
C1475 C1474 1.524 . S
C1475 C1476 1.397 . S
C1475 C1480 1.363 . S
C1476 H1453 0.950 . S
C1476 C1475 1.397 . S
C1476 C1477 1.334 . S
C1477 H1454 0.950 . S
C1477 C1476 1.334 . S
C1477 C1478 1.287 . S
C1478 C1477 1.287 . S
C1478 C1479 1.524 . S
C1478 H1497 0.913 . S
C1479 H1455 0.950 . S
C1479 C1478 1.524 . S
C1479 C1480 1.415 . S
C1480 H1456 0.950 . S
C1480 C1475 1.363 . S
C1480 C1479 1.415 . S
C1481 H1457 0.951 . S
C1481 C1482 1.366 . S
C1481 C1483 1.388 . S
C1482 C1481 1.366 . S
C1482 C1486 1.385 . S
C1483 H1458 0.951 . S
C1483 C1481 1.388 . S
C1483 C1484 1.366 . S
C1484 C1483 1.366 . S
C1484 C1485 1.414 . S
C1484 C1487 1.499 . S
C1485 H1459 0.950 . S
C1485 C1484 1.414 . S
C1485 C1486 1.374 . S
C1486 H1460 0.950 . S
C1486 C1482 1.385 . S
C1486 C1485 1.374 . S
C1487 C1484 1.499 . S
C1487 C1488 1.373 . S
C1487 C1489 1.389 . S
C1488 H1461 0.950 . S
C1488 C1474 1.377 . S
C1488 C1487 1.373 . S
C1489 C1473 1.377 . S
C1489 C1487 1.389 . S
C1489 C1490 1.524 . S
C1490 C1489 1.524 . S
C1490 C1491 1.397 . S
C1490 C1495 1.363 . S
C1491 H1462 0.950 . S
C1491 C1490 1.397 . S
C1491 C1492 1.334 . S
C1492 H1463 0.950 . S
C1492 C1491 1.334 . S
C1492 C1493 1.287 . S
C1493 C1492 1.287 . S
C1493 C1494 1.524 . S
C1493 H1496 0.999 . S
C1494 H1464 0.950 . S
C1494 C1493 1.524 . S
C1494 C1495 1.415 . S
C1495 H1465 0.950 . S
C1495 C1490 1.363 . S
C1495 C1494 1.415 . S
H1496 C1493 0.999 . S
H1497 C1478 0.913 . S
H1498 C1516 0.951 . S
H1499 C1518 0.951 . S
H1500 C1520 0.950 . S
H1501 C1521 0.950 . S
H1502 C1523 0.950 . S
H1503 C1526 0.950 . S
H1504 C1527 0.950 . S
H1505 C1529 0.950 . S
H1506 C1530 0.950 . S
H1507 C1531 0.951 . S
H1508 C1533 0.951 . S
H1509 C1535 0.950 . S
H1510 C1536 0.950 . S
H1511 C1538 0.950 . S
H1512 C1541 0.950 . S
H1513 C1542 0.950 . S
H1514 C1544 0.950 . S
H1515 C1545 0.950 . S
C1516 H1498 0.951 . S
C1516 C1517 1.366 . S
C1516 C1518 1.388 . S
C1517 C1516 1.366 . S
C1517 C1521 1.385 . S
C1518 H1499 0.951 . S
C1518 C1516 1.388 . S
C1518 C1519 1.366 . S
C1519 C1518 1.366 . S
C1519 C1520 1.414 . S
C1519 C1522 1.499 . S
C1520 H1500 0.950 . S
C1520 C1519 1.414 . S
C1520 C1521 1.374 . S
C1521 H1501 0.950 . S
C1521 C1517 1.385 . S
C1521 C1520 1.374 . S
C1522 C1519 1.499 . S
C1522 C1523 1.373 . S
C1522 C1524 1.389 . S
C1523 H1502 0.950 . S
C1523 C1522 1.373 . S
C1523 C1539 1.377 . S
C1524 C1522 1.389 . S
C1524 C1525 1.524 . S
C1524 C1538 1.377 . S
C1525 C1524 1.524 . S
C1525 C1526 1.397 . S
C1525 C1530 1.363 . S
C1526 H1503 0.950 . S
C1526 C1525 1.397 . S
C1526 C1527 1.334 . S
C1527 H1504 0.950 . S
C1527 C1526 1.334 . S
C1527 C1528 1.287 . S
C1528 C1527 1.287 . S
C1528 C1529 1.524 . S
C1528 H1547 0.913 . S
C1529 H1505 0.950 . S
C1529 C1528 1.524 . S
C1529 C1530 1.415 . S
C1530 H1506 0.950 . S
C1530 C1525 1.363 . S
C1530 C1529 1.415 . S
C1531 H1507 0.951 . S
C1531 C1532 1.366 . S
C1531 C1533 1.388 . S
C1532 C1531 1.366 . S
C1532 C1536 1.385 . S
C1533 H1508 0.951 . S
C1533 C1531 1.388 . S
C1533 C1534 1.366 . S
C1534 C1533 1.366 . S
C1534 C1535 1.414 . S
C1534 C1537 1.499 . S
C1535 H1509 0.950 . S
C1535 C1534 1.414 . S
C1535 C1536 1.374 . S
C1536 H1510 0.950 . S
C1536 C1532 1.385 . S
C1536 C1535 1.374 . S
C1537 C1534 1.499 . S
C1537 C1538 1.373 . S
C1537 C1539 1.389 . S
C1538 H1511 0.950 . S
C1538 C1524 1.377 . S
C1538 C1537 1.373 . S
C1539 C1523 1.377 . S
C1539 C1537 1.389 . S
C1539 C1540 1.524 . S
C1540 C1539 1.524 . S
C1540 C1541 1.397 . S
C1540 C1545 1.363 . S
C1541 H1512 0.950 . S
C1541 C1540 1.397 . S
C1541 C1542 1.334 . S
C1542 H1513 0.950 . S
C1542 C1541 1.334 . S
C1542 C1543 1.287 . S
C1543 C1542 1.287 . S
C1543 C1544 1.524 . S
C1543 H1546 0.999 . S
C1544 H1514 0.950 . S
C1544 C1543 1.524 . S
C1544 C1545 1.415 . S
C1545 H1515 0.950 . S
C1545 C1540 1.363 . S
C1545 C1544 1.415 . S
H1546 C1543 0.999 . S
H1547 C1528 0.913 . S
H1548 C1566 0.951 . S
H1549 C1568 0.951 . S
H1550 C1570 0.950 . S
H1551 C1571 0.950 . S
H1552 C1573 0.950 . S
H1553 C1576 0.950 . S
H1554 C1577 0.950 . S
H1555 C1579 0.950 . S
H1556 C1580 0.950 . S
H1557 C1581 0.951 . S
H1558 C1583 0.951 . S
H1559 C1585 0.950 . S
H1560 C1586 0.950 . S
H1561 C1588 0.950 . S
H1562 C1591 0.950 . S
H1563 C1592 0.950 . S
H1564 C1594 0.950 . S
H1565 C1595 0.950 . S
C1566 H1548 0.951 . S
C1566 C1567 1.366 . S
C1566 C1568 1.388 . S
C1567 C1566 1.366 . S
C1567 C1571 1.385 . S
C1568 H1549 0.951 . S
C1568 C1566 1.388 . S
C1568 C1569 1.366 . S
C1569 C1568 1.366 . S
C1569 C1570 1.414 . S
C1569 C1572 1.499 . S
C1570 H1550 0.950 . S
C1570 C1569 1.414 . S
C1570 C1571 1.374 . S
C1571 H1551 0.950 . S
C1571 C1567 1.385 . S
C1571 C1570 1.374 . S
C1572 C1569 1.499 . S
C1572 C1573 1.373 . S
C1572 C1574 1.389 . S
C1573 H1552 0.950 . S
C1573 C1572 1.373 . S
C1573 C1589 1.377 . S
C1574 C1572 1.389 . S
C1574 C1575 1.524 . S
C1574 C1588 1.377 . S
C1575 C1574 1.524 . S
C1575 C1576 1.397 . S
C1575 C1580 1.363 . S
C1576 H1553 0.950 . S
C1576 C1575 1.397 . S
C1576 C1577 1.334 . S
C1577 H1554 0.950 . S
C1577 C1576 1.334 . S
C1577 C1578 1.287 . S
C1578 C1577 1.287 . S
C1578 C1579 1.524 . S
C1578 H1597 0.913 . S
C1579 H1555 0.950 . S
C1579 C1578 1.524 . S
C1579 C1580 1.415 . S
C1580 H1556 0.950 . S
C1580 C1575 1.363 . S
C1580 C1579 1.415 . S
C1581 H1557 0.951 . S
C1581 C1582 1.366 . S
C1581 C1583 1.388 . S
C1582 C1581 1.366 . S
C1582 C1586 1.385 . S
C1583 H1558 0.951 . S
C1583 C1581 1.388 . S
C1583 C1584 1.366 . S
C1584 C1583 1.366 . S
C1584 C1585 1.414 . S
C1584 C1587 1.499 . S
C1585 H1559 0.950 . S
C1585 C1584 1.414 . S
C1585 C1586 1.374 . S
C1586 H1560 0.950 . S
C1586 C1582 1.385 . S
C1586 C1585 1.374 . S
C1587 C1584 1.499 . S
C1587 C1588 1.373 . S
C1587 C1589 1.389 . S
C1588 H1561 0.950 . S
C1588 C1574 1.377 . S
C1588 C1587 1.373 . S
C1589 C1573 1.377 . S
C1589 C1587 1.389 . S
C1589 C1590 1.524 . S
C1590 C1589 1.524 . S
C1590 C1591 1.397 . S
C1590 C1595 1.363 . S
C1591 H1562 0.950 . S
C1591 C1590 1.397 . S
C1591 C1592 1.334 . S
C1592 H1563 0.950 . S
C1592 C1591 1.334 . S
C1592 C1593 1.287 . S
C1593 C1592 1.287 . S
C1593 C1594 1.524 . S
C1593 H1596 0.999 . S
C1594 H1564 0.950 . S
C1594 C1593 1.524 . S
C1594 C1595 1.415 . S
C1595 H1565 0.950 . S
C1595 C1590 1.363 . S
C1595 C1594 1.415 . S
H1596 C1593 0.999 . S
H1597 C1578 0.913 . S
H1598 C1616 0.951 . S
H1599 C1618 0.951 . S
H1600 C1620 0.950 . S
H1601 C1621 0.950 . S
H1602 C1623 0.950 . S
H1603 C1626 0.950 . S
H1604 C1627 0.950 . S
H1605 C1629 0.950 . S
H1606 C1630 0.950 . S
H1607 C1631 0.951 . S
H1608 C1633 0.951 . S
H1609 C1635 0.950 . S
H1610 C1636 0.950 . S
H1611 C1638 0.950 . S
H1612 C1641 0.950 . S
H1613 C1642 0.950 . S
H1614 C1644 0.950 . S
H1615 C1645 0.950 . S
C1616 H1598 0.951 . S
C1616 C1617 1.366 . S
C1616 C1618 1.388 . S
C1617 C1616 1.366 . S
C1617 C1621 1.385 . S
C1618 H1599 0.951 . S
C1618 C1616 1.388 . S
C1618 C1619 1.366 . S
C1619 C1618 1.366 . S
C1619 C1620 1.414 . S
C1619 C1622 1.499 . S
C1620 H1600 0.950 . S
C1620 C1619 1.414 . S
C1620 C1621 1.374 . S
C1621 H1601 0.950 . S
C1621 C1617 1.385 . S
C1621 C1620 1.374 . S
C1622 C1619 1.499 . S
C1622 C1623 1.373 . S
C1622 C1624 1.389 . S
C1623 H1602 0.950 . S
C1623 C1622 1.373 . S
C1623 C1639 1.377 . S
C1624 C1622 1.389 . S
C1624 C1625 1.524 . S
C1624 C1638 1.377 . S
C1625 C1624 1.524 . S
C1625 C1626 1.397 . S
C1625 C1630 1.363 . S
C1626 H1603 0.950 . S
C1626 C1625 1.397 . S
C1626 C1627 1.334 . S
C1627 H1604 0.950 . S
C1627 C1626 1.334 . S
C1627 C1628 1.287 . S
C1628 C1627 1.287 . S
C1628 C1629 1.524 . S
C1628 H1647 0.913 . S
C1629 H1605 0.950 . S
C1629 C1628 1.524 . S
C1629 C1630 1.415 . S
C1630 H1606 0.950 . S
C1630 C1625 1.363 . S
C1630 C1629 1.415 . S
C1631 H1607 0.951 . S
C1631 C1632 1.366 . S
C1631 C1633 1.388 . S
C1632 C1631 1.366 . S
C1632 C1636 1.385 . S
C1633 H1608 0.951 . S
C1633 C1631 1.388 . S
C1633 C1634 1.366 . S
C1634 C1633 1.366 . S
C1634 C1635 1.414 . S
C1634 C1637 1.499 . S
C1635 H1609 0.950 . S
C1635 C1634 1.414 . S
C1635 C1636 1.374 . S
C1636 H1610 0.950 . S
C1636 C1632 1.385 . S
C1636 C1635 1.374 . S
C1637 C1634 1.499 . S
C1637 C1638 1.373 . S
C1637 C1639 1.389 . S
C1638 H1611 0.950 . S
C1638 C1624 1.377 . S
C1638 C1637 1.373 . S
C1639 C1623 1.377 . S
C1639 C1637 1.389 . S
C1639 C1640 1.524 . S
C1640 C1639 1.524 . S
C1640 C1641 1.397 . S
C1640 C1645 1.363 . S
C1641 H1612 0.950 . S
C1641 C1640 1.397 . S
C1641 C1642 1.334 . S
C1642 H1613 0.950 . S
C1642 C1641 1.334 . S
C1642 C1643 1.287 . S
C1643 C1642 1.287 . S
C1643 C1644 1.524 . S
C1643 H1646 0.999 . S
C1644 H1614 0.950 . S
C1644 C1643 1.524 . S
C1644 C1645 1.415 . S
C1645 H1615 0.950 . S
C1645 C1640 1.363 . S
C1645 C1644 1.415 . S
H1646 C1643 0.999 . S
H1647 C1628 0.913 . S
H1648 C1666 0.951 . S
H1649 C1668 0.951 . S
H1650 C1670 0.950 . S
H1651 C1671 0.950 . S
H1652 C1673 0.950 . S
H1653 C1676 0.950 . S
H1654 C1677 0.950 . S
H1655 C1679 0.950 . S
H1656 C1680 0.950 . S
H1657 C1681 0.951 . S
H1658 C1683 0.951 . S
H1659 C1685 0.950 . S
H1660 C1686 0.950 . S
H1661 C1688 0.950 . S
H1662 C1691 0.950 . S
H1663 C1692 0.950 . S
H1664 C1694 0.950 . S
H1665 C1695 0.950 . S
C1666 H1648 0.951 . S
C1666 C1667 1.366 . S
C1666 C1668 1.388 . S
C1667 C1666 1.366 . S
C1667 C1671 1.385 . S
C1668 H1649 0.951 . S
C1668 C1666 1.388 . S
C1668 C1669 1.366 . S
C1669 C1668 1.366 . S
C1669 C1670 1.414 . S
C1669 C1672 1.499 . S
C1670 H1650 0.950 . S
C1670 C1669 1.414 . S
C1670 C1671 1.374 . S
C1671 H1651 0.950 . S
C1671 C1667 1.385 . S
C1671 C1670 1.374 . S
C1672 C1669 1.499 . S
C1672 C1673 1.373 . S
C1672 C1674 1.389 . S
C1673 H1652 0.950 . S
C1673 C1672 1.373 . S
C1673 C1689 1.377 . S
C1674 C1672 1.389 . S
C1674 C1675 1.524 . S
C1674 C1688 1.377 . S
C1675 C1674 1.524 . S
C1675 C1676 1.397 . S
C1675 C1680 1.363 . S
C1676 H1653 0.950 . S
C1676 C1675 1.397 . S
C1676 C1677 1.334 . S
C1677 H1654 0.950 . S
C1677 C1676 1.334 . S
C1677 C1678 1.287 . S
C1678 C1677 1.287 . S
C1678 C1679 1.524 . S
C1678 H1697 0.913 . S
C1679 H1655 0.950 . S
C1679 C1678 1.524 . S
C1679 C1680 1.415 . S
C1680 H1656 0.950 . S
C1680 C1675 1.363 . S
C1680 C1679 1.415 . S
C1681 H1657 0.951 . S
C1681 C1682 1.366 . S
C1681 C1683 1.388 . S
C1682 C1681 1.366 . S
C1682 C1686 1.385 . S
C1683 H1658 0.951 . S
C1683 C1681 1.388 . S
C1683 C1684 1.366 . S
C1684 C1683 1.366 . S
C1684 C1685 1.414 . S
C1684 C1687 1.499 . S
C1685 H1659 0.950 . S
C1685 C1684 1.414 . S
C1685 C1686 1.374 . S
C1686 H1660 0.950 . S
C1686 C1682 1.385 . S
C1686 C1685 1.374 . S
C1687 C1684 1.499 . S
C1687 C1688 1.373 . S
C1687 C1689 1.389 . S
C1688 H1661 0.950 . S
C1688 C1674 1.377 . S
C1688 C1687 1.373 . S
C1689 C1673 1.377 . S
C1689 C1687 1.389 . S
C1689 C1690 1.524 . S
C1690 C1689 1.524 . S
C1690 C1691 1.397 . S
C1690 C1695 1.363 . S
C1691 H1662 0.950 . S
C1691 C1690 1.397 . S
C1691 C1692 1.334 . S
C1692 H1663 0.950 . S
C1692 C1691 1.334 . S
C1692 C1693 1.287 . S
C1693 C1692 1.287 . S
C1693 C1694 1.524 . S
C1693 H1696 0.999 . S
C1694 H1664 0.950 . S
C1694 C1693 1.524 . S
C1694 C1695 1.415 . S
C1695 H1665 0.950 . S
C1695 C1690 1.363 . S
C1695 C1694 1.415 . S
H1696 C1693 0.999 . S
H1697 C1678 0.913 . S
H1698 C1716 0.951 . S
H1699 C1718 0.951 . S
H1700 C1720 0.950 . S
H1701 C1721 0.950 . S
H1702 C1723 0.950 . S
H1703 C1726 0.950 . S
H1704 C1727 0.950 . S
H1705 C1729 0.950 . S
H1706 C1730 0.950 . S
H1707 C1731 0.951 . S
H1708 C1733 0.951 . S
H1709 C1735 0.950 . S
H1710 C1736 0.950 . S
H1711 C1738 0.950 . S
H1712 C1741 0.950 . S
H1713 C1742 0.950 . S
H1714 C1744 0.950 . S
H1715 C1745 0.950 . S
C1716 H1698 0.951 . S
C1716 C1717 1.366 . S
C1716 C1718 1.388 . S
C1717 C1716 1.366 . S
C1717 C1721 1.385 . S
C1718 H1699 0.951 . S
C1718 C1716 1.388 . S
C1718 C1719 1.366 . S
C1719 C1718 1.366 . S
C1719 C1720 1.414 . S
C1719 C1722 1.499 . S
C1720 H1700 0.950 . S
C1720 C1719 1.414 . S
C1720 C1721 1.374 . S
C1721 H1701 0.950 . S
C1721 C1717 1.385 . S
C1721 C1720 1.374 . S
C1722 C1719 1.499 . S
C1722 C1723 1.373 . S
C1722 C1724 1.389 . S
C1723 H1702 0.950 . S
C1723 C1722 1.373 . S
C1723 C1739 1.377 . S
C1724 C1722 1.389 . S
C1724 C1725 1.524 . S
C1724 C1738 1.377 . S
C1725 C1724 1.524 . S
C1725 C1726 1.397 . S
C1725 C1730 1.363 . S
C1726 H1703 0.950 . S
C1726 C1725 1.397 . S
C1726 C1727 1.334 . S
C1727 H1704 0.950 . S
C1727 C1726 1.334 . S
C1727 C1728 1.287 . S
C1728 C1727 1.287 . S
C1728 C1729 1.524 . S
C1728 H1747 0.913 . S
C1729 H1705 0.950 . S
C1729 C1728 1.524 . S
C1729 C1730 1.415 . S
C1730 H1706 0.950 . S
C1730 C1725 1.363 . S
C1730 C1729 1.415 . S
C1731 H1707 0.951 . S
C1731 C1732 1.366 . S
C1731 C1733 1.388 . S
C1732 C1731 1.366 . S
C1732 C1736 1.385 . S
C1733 H1708 0.951 . S
C1733 C1731 1.388 . S
C1733 C1734 1.366 . S
C1734 C1733 1.366 . S
C1734 C1735 1.414 . S
C1734 C1737 1.499 . S
C1735 H1709 0.950 . S
C1735 C1734 1.414 . S
C1735 C1736 1.374 . S
C1736 H1710 0.950 . S
C1736 C1732 1.385 . S
C1736 C1735 1.374 . S
C1737 C1734 1.499 . S
C1737 C1738 1.373 . S
C1737 C1739 1.389 . S
C1738 H1711 0.950 . S
C1738 C1724 1.377 . S
C1738 C1737 1.373 . S
C1739 C1723 1.377 . S
C1739 C1737 1.389 . S
C1739 C1740 1.524 . S
C1740 C1739 1.524 . S
C1740 C1741 1.397 . S
C1740 C1745 1.363 . S
C1741 H1712 0.950 . S
C1741 C1740 1.397 . S
C1741 C1742 1.334 . S
C1742 H1713 0.950 . S
C1742 C1741 1.334 . S
C1742 C1743 1.287 . S
C1743 C1742 1.287 . S
C1743 C1744 1.524 . S
C1743 H1746 0.999 . S
C1744 H1714 0.950 . S
C1744 C1743 1.524 . S
C1744 C1745 1.415 . S
C1745 H1715 0.950 . S
C1745 C1740 1.363 . S
C1745 C1744 1.415 . S
H1746 C1743 0.999 . S
H1747 C1728 0.913 . S
H1748 C1766 0.951 . S
H1749 C1768 0.951 . S
H1750 C1770 0.950 . S
H1751 C1771 0.950 . S
H1752 C1773 0.950 . S
H1753 C1776 0.950 . S
H1754 C1777 0.950 . S
H1755 C1779 0.950 . S
H1756 C1780 0.950 . S
H1757 C1781 0.951 . S
H1758 C1783 0.951 . S
H1759 C1785 0.950 . S
H1760 C1786 0.950 . S
H1761 C1788 0.950 . S
H1762 C1791 0.950 . S
H1763 C1792 0.950 . S
H1764 C1794 0.950 . S
H1765 C1795 0.950 . S
C1766 H1748 0.951 . S
C1766 C1767 1.366 . S
C1766 C1768 1.388 . S
C1767 C1766 1.366 . S
C1767 C1771 1.385 . S
C1768 H1749 0.951 . S
C1768 C1766 1.388 . S
C1768 C1769 1.366 . S
C1769 C1768 1.366 . S
C1769 C1770 1.414 . S
C1769 C1772 1.499 . S
C1770 H1750 0.950 . S
C1770 C1769 1.414 . S
C1770 C1771 1.374 . S
C1771 H1751 0.950 . S
C1771 C1767 1.385 . S
C1771 C1770 1.374 . S
C1772 C1769 1.499 . S
C1772 C1773 1.373 . S
C1772 C1774 1.389 . S
C1773 H1752 0.950 . S
C1773 C1772 1.373 . S
C1773 C1789 1.377 . S
C1774 C1772 1.389 . S
C1774 C1775 1.524 . S
C1774 C1788 1.377 . S
C1775 C1774 1.524 . S
C1775 C1776 1.397 . S
C1775 C1780 1.363 . S
C1776 H1753 0.950 . S
C1776 C1775 1.397 . S
C1776 C1777 1.334 . S
C1777 H1754 0.950 . S
C1777 C1776 1.334 . S
C1777 C1778 1.287 . S
C1778 C1777 1.287 . S
C1778 C1779 1.524 . S
C1778 H1797 0.913 . S
C1779 H1755 0.950 . S
C1779 C1778 1.524 . S
C1779 C1780 1.415 . S
C1780 H1756 0.950 . S
C1780 C1775 1.363 . S
C1780 C1779 1.415 . S
C1781 H1757 0.951 . S
C1781 C1782 1.366 . S
C1781 C1783 1.388 . S
C1782 C1781 1.366 . S
C1782 C1786 1.385 . S
C1783 H1758 0.951 . S
C1783 C1781 1.388 . S
C1783 C1784 1.366 . S
C1784 C1783 1.366 . S
C1784 C1785 1.414 . S
C1784 C1787 1.499 . S
C1785 H1759 0.950 . S
C1785 C1784 1.414 . S
C1785 C1786 1.374 . S
C1786 H1760 0.950 . S
C1786 C1782 1.385 . S
C1786 C1785 1.374 . S
C1787 C1784 1.499 . S
C1787 C1788 1.373 . S
C1787 C1789 1.389 . S
C1788 H1761 0.950 . S
C1788 C1774 1.377 . S
C1788 C1787 1.373 . S
C1789 C1773 1.377 . S
C1789 C1787 1.389 . S
C1789 C1790 1.524 . S
C1790 C1789 1.524 . S
C1790 C1791 1.397 . S
C1790 C1795 1.363 . S
C1791 H1762 0.950 . S
C1791 C1790 1.397 . S
C1791 C1792 1.334 . S
C1792 H1763 0.950 . S
C1792 C1791 1.334 . S
C1792 C1793 1.287 . S
C1793 C1792 1.287 . S
C1793 C1794 1.524 . S
C1793 H1796 0.999 . S
C1794 H1764 0.950 . S
C1794 C1793 1.524 . S
C1794 C1795 1.415 . S
C1795 H1765 0.950 . S
C1795 C1790 1.363 . S
C1795 C1794 1.415 . S
H1796 C1793 0.999 . S
H1797 C1778 0.913 . S
H1798 C1816 0.951 . S
H1799 C1818 0.951 . S
H1800 C1820 0.950 . S
H1801 C1821 0.950 . S
H1802 C1823 0.950 . S
H1803 C1826 0.950 . S
H1804 C1827 0.950 . S
H1805 C1829 0.950 . S
H1806 C1830 0.950 . S
H1807 C1831 0.951 . S
H1808 C1833 0.951 . S
H1809 C1835 0.950 . S
H1810 C1836 0.950 . S
H1811 C1838 0.950 . S
H1812 C1841 0.950 . S
H1813 C1842 0.950 . S
H1814 C1844 0.950 . S
H1815 C1845 0.950 . S
C1816 H1798 0.951 . S
C1816 C1817 1.366 . S
C1816 C1818 1.388 . S
C1817 C1816 1.366 . S
C1817 C1821 1.385 . S
C1818 H1799 0.951 . S
C1818 C1816 1.388 . S
C1818 C1819 1.366 . S
C1819 C1818 1.366 . S
C1819 C1820 1.414 . S
C1819 C1822 1.499 . S
C1820 H1800 0.950 . S
C1820 C1819 1.414 . S
C1820 C1821 1.374 . S
C1821 H1801 0.950 . S
C1821 C1817 1.385 . S
C1821 C1820 1.374 . S
C1822 C1819 1.499 . S
C1822 C1823 1.373 . S
C1822 C1824 1.389 . S
C1823 H1802 0.950 . S
C1823 C1822 1.373 . S
C1823 C1839 1.377 . S
C1824 C1822 1.389 . S
C1824 C1825 1.524 . S
C1824 C1838 1.377 . S
C1825 C1824 1.524 . S
C1825 C1826 1.397 . S
C1825 C1830 1.363 . S
C1826 H1803 0.950 . S
C1826 C1825 1.397 . S
C1826 C1827 1.334 . S
C1827 H1804 0.950 . S
C1827 C1826 1.334 . S
C1827 C1828 1.287 . S
C1828 C1827 1.287 . S
C1828 C1829 1.524 . S
C1828 H1847 0.913 . S
C1829 H1805 0.950 . S
C1829 C1828 1.524 . S
C1829 C1830 1.415 . S
C1830 H1806 0.950 . S
C1830 C1825 1.363 . S
C1830 C1829 1.415 . S
C1831 H1807 0.951 . S
C1831 C1832 1.366 . S
C1831 C1833 1.388 . S
C1832 C1831 1.366 . S
C1832 C1836 1.385 . S
C1833 H1808 0.951 . S
C1833 C1831 1.388 . S
C1833 C1834 1.366 . S
C1834 C1833 1.366 . S
C1834 C1835 1.414 . S
C1834 C1837 1.499 . S
C1835 H1809 0.950 . S
C1835 C1834 1.414 . S
C1835 C1836 1.374 . S
C1836 H1810 0.950 . S
C1836 C1832 1.385 . S
C1836 C1835 1.374 . S
C1837 C1834 1.499 . S
C1837 C1838 1.373 . S
C1837 C1839 1.389 . S
C1838 H1811 0.950 . S
C1838 C1824 1.377 . S
C1838 C1837 1.373 . S
C1839 C1823 1.377 . S
C1839 C1837 1.389 . S
C1839 C1840 1.524 . S
C1840 C1839 1.524 . S
C1840 C1841 1.397 . S
C1840 C1845 1.363 . S
C1841 H1812 0.950 . S
C1841 C1840 1.397 . S
C1841 C1842 1.334 . S
C1842 H1813 0.950 . S
C1842 C1841 1.334 . S
C1842 C1843 1.287 . S
C1843 C1842 1.287 . S
C1843 C1844 1.524 . S
C1843 H1846 0.999 . S
C1844 H1814 0.950 . S
C1844 C1843 1.524 . S
C1844 C1845 1.415 . S
C1845 H1815 0.950 . S
C1845 C1840 1.363 . S
C1845 C1844 1.415 . S
H1846 C1843 0.999 . S
H1847 C1828 0.913 . S
H1848 C1866 0.951 . S
H1849 C1868 0.951 . S
H1850 C1870 0.950 . S
H1851 C1871 0.950 . S
H1852 C1873 0.950 . S
H1853 C1876 0.950 . S
H1854 C1877 0.950 . S
H1855 C1879 0.950 . S
H1856 C1880 0.950 . S
H1857 C1881 0.951 . S
H1858 C1883 0.951 . S
H1859 C1885 0.950 . S
H1860 C1886 0.950 . S
H1861 C1888 0.950 . S
H1862 C1891 0.950 . S
H1863 C1892 0.950 . S
H1864 C1894 0.950 . S
H1865 C1895 0.950 . S
C1866 H1848 0.951 . S
C1866 C1867 1.366 . S
C1866 C1868 1.388 . S
C1867 C1866 1.366 . S
C1867 C1871 1.385 . S
C1868 H1849 0.951 . S
C1868 C1866 1.388 . S
C1868 C1869 1.366 . S
C1869 C1868 1.366 . S
C1869 C1870 1.414 . S
C1869 C1872 1.499 . S
C1870 H1850 0.950 . S
C1870 C1869 1.414 . S
C1870 C1871 1.374 . S
C1871 H1851 0.950 . S
C1871 C1867 1.385 . S
C1871 C1870 1.374 . S
C1872 C1869 1.499 . S
C1872 C1873 1.373 . S
C1872 C1874 1.389 . S
C1873 H1852 0.950 . S
C1873 C1872 1.373 . S
C1873 C1889 1.377 . S
C1874 C1872 1.389 . S
C1874 C1875 1.524 . S
C1874 C1888 1.377 . S
C1875 C1874 1.524 . S
C1875 C1876 1.397 . S
C1875 C1880 1.363 . S
C1876 H1853 0.950 . S
C1876 C1875 1.397 . S
C1876 C1877 1.334 . S
C1877 H1854 0.950 . S
C1877 C1876 1.334 . S
C1877 C1878 1.287 . S
C1878 C1877 1.287 . S
C1878 C1879 1.524 . S
C1878 H1897 0.913 . S
C1879 H1855 0.950 . S
C1879 C1878 1.524 . S
C1879 C1880 1.415 . S
C1880 H1856 0.950 . S
C1880 C1875 1.363 . S
C1880 C1879 1.415 . S
C1881 H1857 0.951 . S
C1881 C1882 1.366 . S
C1881 C1883 1.388 . S
C1882 C1881 1.366 . S
C1882 C1886 1.385 . S
C1883 H1858 0.951 . S
C1883 C1881 1.388 . S
C1883 C1884 1.366 . S
C1884 C1883 1.366 . S
C1884 C1885 1.414 . S
C1884 C1887 1.499 . S
C1885 H1859 0.950 . S
C1885 C1884 1.414 . S
C1885 C1886 1.374 . S
C1886 H1860 0.950 . S
C1886 C1882 1.385 . S
C1886 C1885 1.374 . S
C1887 C1884 1.499 . S
C1887 C1888 1.373 . S
C1887 C1889 1.389 . S
C1888 H1861 0.950 . S
C1888 C1874 1.377 . S
C1888 C1887 1.373 . S
C1889 C1873 1.377 . S
C1889 C1887 1.389 . S
C1889 C1890 1.524 . S
C1890 C1889 1.524 . S
C1890 C1891 1.397 . S
C1890 C1895 1.363 . S
C1891 H1862 0.950 . S
C1891 C1890 1.397 . S
C1891 C1892 1.334 . S
C1892 H1863 0.950 . S
C1892 C1891 1.334 . S
C1892 C1893 1.287 . S
C1893 C1892 1.287 . S
C1893 C1894 1.524 . S
C1893 H1896 0.999 . S
C1894 H1864 0.950 . S
C1894 C1893 1.524 . S
C1894 C1895 1.415 . S
C1895 H1865 0.950 . S
C1895 C1890 1.363 . S
C1895 C1894 1.415 . S
H1896 C1893 0.999 . S
H1897 C1878 0.913 . S
H1898 C1916 0.951 . S
H1899 C1918 0.951 . S
H1900 C1920 0.950 . S
H1901 C1921 0.950 . S
H1902 C1923 0.950 . S
H1903 C1926 0.950 . S
H1904 C1927 0.950 . S
H1905 C1929 0.950 . S
H1906 C1930 0.950 . S
H1907 C1931 0.951 . S
H1908 C1933 0.951 . S
H1909 C1935 0.950 . S
H1910 C1936 0.950 . S
H1911 C1938 0.950 . S
H1912 C1941 0.950 . S
H1913 C1942 0.950 . S
H1914 C1944 0.950 . S
H1915 C1945 0.950 . S
C1916 H1898 0.951 . S
C1916 C1917 1.366 . S
C1916 C1918 1.388 . S
C1917 C1916 1.366 . S
C1917 C1921 1.385 . S
C1918 H1899 0.951 . S
C1918 C1916 1.388 . S
C1918 C1919 1.366 . S
C1919 C1918 1.366 . S
C1919 C1920 1.414 . S
C1919 C1922 1.499 . S
C1920 H1900 0.950 . S
C1920 C1919 1.414 . S
C1920 C1921 1.374 . S
C1921 H1901 0.950 . S
C1921 C1917 1.385 . S
C1921 C1920 1.374 . S
C1922 C1919 1.499 . S
C1922 C1923 1.373 . S
C1922 C1924 1.389 . S
C1923 H1902 0.950 . S
C1923 C1922 1.373 . S
C1923 C1939 1.377 . S
C1924 C1922 1.389 . S
C1924 C1925 1.524 . S
C1924 C1938 1.377 . S
C1925 C1924 1.524 . S
C1925 C1926 1.397 . S
C1925 C1930 1.363 . S
C1926 H1903 0.950 . S
C1926 C1925 1.397 . S
C1926 C1927 1.334 . S
C1927 H1904 0.950 . S
C1927 C1926 1.334 . S
C1927 C1928 1.287 . S
C1928 C1927 1.287 . S
C1928 C1929 1.524 . S
C1928 H1947 0.913 . S
C1929 H1905 0.950 . S
C1929 C1928 1.524 . S
C1929 C1930 1.415 . S
C1930 H1906 0.950 . S
C1930 C1925 1.363 . S
C1930 C1929 1.415 . S
C1931 H1907 0.951 . S
C1931 C1932 1.366 . S
C1931 C1933 1.388 . S
C1932 C1931 1.366 . S
C1932 C1936 1.385 . S
C1933 H1908 0.951 . S
C1933 C1931 1.388 . S
C1933 C1934 1.366 . S
C1934 C1933 1.366 . S
C1934 C1935 1.414 . S
C1934 C1937 1.499 . S
C1935 H1909 0.950 . S
C1935 C1934 1.414 . S
C1935 C1936 1.374 . S
C1936 H1910 0.950 . S
C1936 C1932 1.385 . S
C1936 C1935 1.374 . S
C1937 C1934 1.499 . S
C1937 C1938 1.373 . S
C1937 C1939 1.389 . S
C1938 H1911 0.950 . S
C1938 C1924 1.377 . S
C1938 C1937 1.373 . S
C1939 C1923 1.377 . S
C1939 C1937 1.389 . S
C1939 C1940 1.524 . S
C1940 C1939 1.524 . S
C1940 C1941 1.397 . S
C1940 C1945 1.363 . S
C1941 H1912 0.950 . S
C1941 C1940 1.397 . S
C1941 C1942 1.334 . S
C1942 H1913 0.950 . S
C1942 C1941 1.334 . S
C1942 C1943 1.287 . S
C1943 C1942 1.287 . S
C1943 C1944 1.524 . S
C1943 H1946 0.999 . S
C1944 H1914 0.950 . S
C1944 C1943 1.524 . S
C1944 C1945 1.415 . S
C1945 H1915 0.950 . S
C1945 C1940 1.363 . S
C1945 C1944 1.415 . S
H1946 C1943 0.999 . S
H1947 C1928 0.913 . S
H1948 C1966 0.951 . S
H1949 C1968 0.951 . S
H1950 C1970 0.950 . S
H1951 C1971 0.950 . S
H1952 C1973 0.950 . S
H1953 C1976 0.950 . S
H1954 C1977 0.950 . S
H1955 C1979 0.950 . S
H1956 C1980 0.950 . S
H1957 C1981 0.951 . S
H1958 C1983 0.951 . S
H1959 C1985 0.950 . S
H1960 C1986 0.950 . S
H1961 C1988 0.950 . S
H1962 C1991 0.950 . S
H1963 C1992 0.950 . S
H1964 C1994 0.950 . S
H1965 C1995 0.950 . S
C1966 H1948 0.951 . S
C1966 C1967 1.366 . S
C1966 C1968 1.388 . S
C1967 C1966 1.366 . S
C1967 C1971 1.385 . S
C1968 H1949 0.951 . S
C1968 C1966 1.388 . S
C1968 C1969 1.366 . S
C1969 C1968 1.366 . S
C1969 C1970 1.414 . S
C1969 C1972 1.499 . S
C1970 H1950 0.950 . S
C1970 C1969 1.414 . S
C1970 C1971 1.374 . S
C1971 H1951 0.950 . S
C1971 C1967 1.385 . S
C1971 C1970 1.374 . S
C1972 C1969 1.499 . S
C1972 C1973 1.373 . S
C1972 C1974 1.389 . S
C1973 H1952 0.950 . S
C1973 C1972 1.373 . S
C1973 C1989 1.377 . S
C1974 C1972 1.389 . S
C1974 C1975 1.524 . S
C1974 C1988 1.377 . S
C1975 C1974 1.524 . S
C1975 C1976 1.397 . S
C1975 C1980 1.363 . S
C1976 H1953 0.950 . S
C1976 C1975 1.397 . S
C1976 C1977 1.334 . S
C1977 H1954 0.950 . S
C1977 C1976 1.334 . S
C1977 C1978 1.287 . S
C1978 C1977 1.287 . S
C1978 C1979 1.524 . S
C1978 H1997 0.913 . S
C1979 H1955 0.950 . S
C1979 C1978 1.524 . S
C1979 C1980 1.415 . S
C1980 H1956 0.950 . S
C1980 C1975 1.363 . S
C1980 C1979 1.415 . S
C1981 H1957 0.951 . S
C1981 C1982 1.366 . S
C1981 C1983 1.388 . S
C1982 C1981 1.366 . S
C1982 C1986 1.385 . S
C1983 H1958 0.951 . S
C1983 C1981 1.388 . S
C1983 C1984 1.366 . S
C1984 C1983 1.366 . S
C1984 C1985 1.414 . S
C1984 C1987 1.499 . S
C1985 H1959 0.950 . S
C1985 C1984 1.414 . S
C1985 C1986 1.374 . S
C1986 H1960 0.950 . S
C1986 C1982 1.385 . S
C1986 C1985 1.374 . S
C1987 C1984 1.499 . S
C1987 C1988 1.373 . S
C1987 C1989 1.389 . S
C1988 H1961 0.950 . S
C1988 C1974 1.377 . S
C1988 C1987 1.373 . S
C1989 C1973 1.377 . S
C1989 C1987 1.389 . S
C1989 C1990 1.524 . S
C1990 C1989 1.524 . S
C1990 C1991 1.397 . S
C1990 C1995 1.363 . S
C1991 H1962 0.950 . S
C1991 C1990 1.397 . S
C1991 C1992 1.334 . S
C1992 H1963 0.950 . S
C1992 C1991 1.334 . S
C1992 C1993 1.287 . S
C1993 C1992 1.287 . S
C1993 C1994 1.524 . S
C1993 H1996 0.999 . S
C1994 H1964 0.950 . S
C1994 C1993 1.524 . S
C1994 C1995 1.415 . S
C1995 H1965 0.950 . S
C1995 C1990 1.363 . S
C1995 C1994 1.415 . S
H1996 C1993 0.999 . S
H1997 C1978 0.913 . S
H1998 C2016 0.951 . S
H1999 C2018 0.951 . S
H2000 C2020 0.950 . S
H2001 C2021 0.950 . S
H2002 C2023 0.950 . S
H2003 C2026 0.950 . S
H2004 C2027 0.950 . S
H2005 C2029 0.950 . S
H2006 C2030 0.950 . S
H2007 C2031 0.951 . S
H2008 C2033 0.951 . S
H2009 C2035 0.950 . S
H2010 C2036 0.950 . S
H2011 C2038 0.950 . S
H2012 C2041 0.950 . S
H2013 C2042 0.950 . S
H2014 C2044 0.950 . S
H2015 C2045 0.950 . S
C2016 H1998 0.951 . S
C2016 C2017 1.366 . S
C2016 C2018 1.388 . S
C2017 C2016 1.366 . S
C2017 C2021 1.385 . S
C2018 H1999 0.951 . S
C2018 C2016 1.388 . S
C2018 C2019 1.366 . S
C2019 C2018 1.366 . S
C2019 C2020 1.414 . S
C2019 C2022 1.499 . S
C2020 H2000 0.950 . S
C2020 C2019 1.414 . S
C2020 C2021 1.374 . S
C2021 H2001 0.950 . S
C2021 C2017 1.385 . S
C2021 C2020 1.374 . S
C2022 C2019 1.499 . S
C2022 C2023 1.373 . S
C2022 C2024 1.389 . S
C2023 H2002 0.950 . S
C2023 C2022 1.373 . S
C2023 C2039 1.377 . S
C2024 C2022 1.389 . S
C2024 C2025 1.524 . S
C2024 C2038 1.377 . S
C2025 C2024 1.524 . S
C2025 C2026 1.397 . S
C2025 C2030 1.363 . S
C2026 H2003 0.950 . S
C2026 C2025 1.397 . S
C2026 C2027 1.334 . S
C2027 H2004 0.950 . S
C2027 C2026 1.334 . S
C2027 C2028 1.287 . S
C2028 C2027 1.287 . S
C2028 C2029 1.524 . S
C2028 H2047 0.913 . S
C2029 H2005 0.950 . S
C2029 C2028 1.524 . S
C2029 C2030 1.415 . S
C2030 H2006 0.950 . S
C2030 C2025 1.363 . S
C2030 C2029 1.415 . S
C2031 H2007 0.951 . S
C2031 C2032 1.366 . S
C2031 C2033 1.388 . S
C2032 C2031 1.366 . S
C2032 C2036 1.385 . S
C2033 H2008 0.951 . S
C2033 C2031 1.388 . S
C2033 C2034 1.366 . S
C2034 C2033 1.366 . S
C2034 C2035 1.414 . S
C2034 C2037 1.499 . S
C2035 H2009 0.950 . S
C2035 C2034 1.414 . S
C2035 C2036 1.374 . S
C2036 H2010 0.950 . S
C2036 C2032 1.385 . S
C2036 C2035 1.374 . S
C2037 C2034 1.499 . S
C2037 C2038 1.373 . S
C2037 C2039 1.389 . S
C2038 H2011 0.950 . S
C2038 C2024 1.377 . S
C2038 C2037 1.373 . S
C2039 C2023 1.377 . S
C2039 C2037 1.389 . S
C2039 C2040 1.524 . S
C2040 C2039 1.524 . S
C2040 C2041 1.397 . S
C2040 C2045 1.363 . S
C2041 H2012 0.950 . S
C2041 C2040 1.397 . S
C2041 C2042 1.334 . S
C2042 H2013 0.950 . S
C2042 C2041 1.334 . S
C2042 C2043 1.287 . S
C2043 C2042 1.287 . S
C2043 C2044 1.524 . S
C2043 H2046 0.999 . S
C2044 H2014 0.950 . S
C2044 C2043 1.524 . S
C2044 C2045 1.415 . S
C2045 H2015 0.950 . S
C2045 C2040 1.363 . S
C2045 C2044 1.415 . S
H2046 C2043 0.999 . S
H2047 C2028 0.913 . S
H2048 C2066 0.951 . S
H2049 C2068 0.951 . S
H2050 C2070 0.950 . S
H2051 C2071 0.950 . S
H2052 C2073 0.950 . S
H2053 C2076 0.980 . S
H2054 C2077 0.950 . S
H2055 C2079 0.950 . S
H2056 C2080 0.950 . S
H2057 C2081 0.951 . S
H2058 C2083 0.951 . S
H2059 C2085 0.950 . S
H2060 C2086 0.950 . S
H2061 C2088 0.950 . S
H2062 C2091 0.950 . S
H2063 C2092 0.950 . S
H2064 C2094 0.950 . S
H2065 C2095 0.950 . S
C2066 H2048 0.951 . S
C2066 C2067 1.366 . S
C2066 C2068 1.388 . S
C2067 C2066 1.366 . S
C2067 C2071 1.385 . S
C2068 H2049 0.951 . S
C2068 C2066 1.388 . S
C2068 C2069 1.366 1_545 S
C2069 C2068 1.366 1_565 S
C2069 C2070 1.414 . S
C2069 C2072 1.499 . S
C2070 H2050 0.950 . S
C2070 C2069 1.414 . S
C2070 C2071 1.374 1_565 S
C2071 H2051 0.950 . S
C2071 C2067 1.385 . S
C2071 C2070 1.374 1_545 S
C2072 C2069 1.499 . S
C2072 C2073 1.373 . S
C2072 C2074 1.389 . S
C2073 H2052 0.950 . S
C2073 C2072 1.373 . S
C2073 C2089 1.377 . S
C2074 C2072 1.389 . S
C2074 C2075 1.524 . S
C2074 C2088 1.377 . S
C2075 C2074 1.524 . S
C2075 C2076 1.401 . S
C2075 C2080 1.363 1_565 S
C2076 H2053 0.980 . S
C2076 C2075 1.401 . S
C2076 C2077 1.302 1_565 S
C2077 H2054 0.950 . S
C2077 C2076 1.302 1_545 S
C2077 C2078 1.287 . S
C2078 C2077 1.287 . S
C2078 C2079 1.524 . S
C2078 H2097 0.913 . S
C2079 H2055 0.950 . S
C2079 C2078 1.524 . S
C2079 C2080 1.415 . S
C2080 H2056 0.950 . S
C2080 C2075 1.363 1_545 S
C2080 C2079 1.415 . S
C2081 H2057 0.951 . S
C2081 C2082 1.366 . S
C2081 C2083 1.388 . S
C2082 C2081 1.366 . S
C2082 C2086 1.385 . S
C2083 H2058 0.951 . S
C2083 C2081 1.388 . S
C2083 C2084 1.366 . S
C2084 C2083 1.366 . S
C2084 C2085 1.414 . S
C2084 C2087 1.499 . S
C2085 H2059 0.950 . S
C2085 C2084 1.414 . S
C2085 C2086 1.374 . S
C2086 H2060 0.950 . S
C2086 C2082 1.385 . S
C2086 C2085 1.374 . S
C2087 C2084 1.499 . S
C2087 C2088 1.373 . S
C2087 C2089 1.389 . S
C2088 H2061 0.950 . S
C2088 C2074 1.377 . S
C2088 C2087 1.373 . S
C2089 C2073 1.377 . S
C2089 C2087 1.389 . S
C2089 C2090 1.524 . S
C2090 C2089 1.524 . S
C2090 C2091 1.397 . S
C2090 C2095 1.363 . S
C2091 H2062 0.950 . S
C2091 C2090 1.397 . S
C2091 C2092 1.334 . S
C2092 H2063 0.950 . S
C2092 C2091 1.334 . S
C2092 C2093 1.287 . S
C2093 C2092 1.287 . S
C2093 C2094 1.524 . S
C2093 H2096 0.999 . S
C2094 H2064 0.950 . S
C2094 C2093 1.524 . S
C2094 C2095 1.415 . S
C2095 H2065 0.950 . S
C2095 C2090 1.363 . S
C2095 C2094 1.415 . S
H2096 C2093 0.999 . S
H2097 C2078 0.913 . S
H2098 C2116 0.951 . S
H2099 C2118 0.951 . S
H2100 C2120 0.950 . S
H2101 C2121 0.950 . S
H2102 C2123 0.950 . S
H2103 C2126 0.950 . S
H2104 C2127 0.950 . S
H2105 C2129 0.950 . S
H2106 C2130 0.950 . S
H2107 C2131 0.951 . S
H2108 C2133 0.951 . S
H2109 C2135 0.950 . S
H2110 C2136 0.950 . S
H2111 C2138 0.950 . S
H2112 C2141 0.950 . S
H2113 C2142 0.950 . S
H2114 C2144 0.950 . S
H2115 C2145 0.950 . S
C2116 H2098 0.951 . S
C2116 C2117 1.366 . S
C2116 C2118 1.388 . S
C2117 C2116 1.366 . S
C2117 C2121 1.385 . S
C2118 H2099 0.951 . S
C2118 C2116 1.388 . S
C2118 C2119 1.366 . S
C2119 C2118 1.366 . S
C2119 C2120 1.414 . S
C2119 C2122 1.499 . S
C2120 H2100 0.950 . S
C2120 C2119 1.414 . S
C2120 C2121 1.374 . S
C2121 H2101 0.950 . S
C2121 C2117 1.385 . S
C2121 C2120 1.374 . S
C2122 C2119 1.499 . S
C2122 C2123 1.373 . S
C2122 C2124 1.389 . S
C2123 H2102 0.950 . S
C2123 C2122 1.373 . S
C2123 C2139 1.377 . S
C2124 C2122 1.389 . S
C2124 C2125 1.524 . S
C2124 C2138 1.377 . S
C2125 C2124 1.524 . S
C2125 C2126 1.397 . S
C2125 C2130 1.363 . S
C2126 H2103 0.950 . S
C2126 C2125 1.397 . S
C2126 C2127 1.334 . S
C2127 H2104 0.950 . S
C2127 C2126 1.334 . S
C2127 C2128 1.287 . S
C2128 C2127 1.287 . S
C2128 C2129 1.524 . S
C2128 H2147 0.913 . S
C2129 H2105 0.950 . S
C2129 C2128 1.524 . S
C2129 C2130 1.415 . S
C2130 H2106 0.950 . S
C2130 C2125 1.363 . S
C2130 C2129 1.415 . S
C2131 H2107 0.951 . S
C2131 C2132 1.366 . S
C2131 C2133 1.388 . S
C2132 C2131 1.366 . S
C2132 C2136 1.385 . S
C2133 H2108 0.951 . S
C2133 C2131 1.388 . S
C2133 C2134 1.366 . S
C2134 C2133 1.366 . S
C2134 C2135 1.414 . S
C2134 C2137 1.499 . S
C2135 H2109 0.950 . S
C2135 C2134 1.414 . S
C2135 C2136 1.374 . S
C2136 H2110 0.950 . S
C2136 C2132 1.385 . S
C2136 C2135 1.374 . S
C2137 C2134 1.499 . S
C2137 C2138 1.373 . S
C2137 C2139 1.389 . S
C2138 H2111 0.950 . S
C2138 C2124 1.377 . S
C2138 C2137 1.373 . S
C2139 C2123 1.377 . S
C2139 C2137 1.389 . S
C2139 C2140 1.524 . S
C2140 C2139 1.524 . S
C2140 C2141 1.397 . S
C2140 C2145 1.363 . S
C2141 H2112 0.950 . S
C2141 C2140 1.397 . S
C2141 C2142 1.334 . S
C2142 H2113 0.950 . S
C2142 C2141 1.334 . S
C2142 C2143 1.287 . S
C2143 C2142 1.287 . S
C2143 C2144 1.524 . S
C2143 H2146 0.999 . S
C2144 H2114 0.950 . S
C2144 C2143 1.524 . S
C2144 C2145 1.415 . S
C2145 H2115 0.950 . S
C2145 C2140 1.363 . S
C2145 C2144 1.415 . S
H2146 C2143 0.999 . S
H2147 C2128 0.913 . S
H2148 C2166 0.951 . S
H2149 C2168 0.951 . S
H2150 C2170 0.950 . S
H2151 C2171 0.950 . S
H2152 C2173 0.950 . S
H2153 C2176 0.950 . S
H2154 C2177 0.950 . S
H2155 C2179 0.950 . S
H2156 C2180 0.950 1_655 S
H2157 C2181 0.951 . S
H2158 C2183 0.951 . S
H2159 C2185 0.950 . S
H2160 C2186 0.950 . S
H2161 C2188 0.916 1_655 S
H2162 C2191 0.950 . S
H2163 C2192 0.950 . S
H2164 C2194 0.950 . S
H2165 C2195 0.950 . S
C2166 H2148 0.951 . S
C2166 C2167 1.366 . S
C2166 C2168 1.388 . S
C2167 C2166 1.366 . S
C2167 C2171 1.385 . S
C2168 H2149 0.951 . S
C2168 C2166 1.388 . S
C2168 C2169 1.366 . S
C2169 C2168 1.366 . S
C2169 C2170 1.414 . S
C2169 C2172 1.499 . S
C2170 H2150 0.950 . S
C2170 C2169 1.414 . S
C2170 C2171 1.374 . S
C2171 H2151 0.950 . S
C2171 C2167 1.385 . S
C2171 C2170 1.374 . S
C2172 C2169 1.499 . S
C2172 C2173 1.373 . S
C2172 C2174 1.389 . S
C2173 H2152 0.950 . S
C2173 C2172 1.373 . S
C2173 C2189 1.377 . S
C2174 C2172 1.389 . S
C2174 C2175 1.524 . S
C2174 C2188 1.377 . S
C2175 C2174 1.524 . S
C2175 C2176 1.397 . S
C2175 C2180 1.363 . S
C2176 H2153 0.950 . S
C2176 C2175 1.397 . S
C2176 C2177 1.334 . S
C2177 H2154 0.950 . S
C2177 C2176 1.334 . S
C2177 C2178 1.287 . S
C2178 C2177 1.287 . S
C2178 C2179 1.524 1_455 S
C2178 H2197 0.913 . S
C2179 H2155 0.950 . S
C2179 C2178 1.524 1_655 S
C2179 C2180 1.415 1_655 S
C2180 H2156 0.950 1_455 S
C2180 C2175 1.363 . S
C2180 C2179 1.415 1_455 S
C2181 H2157 0.951 . S
C2181 C2182 1.366 . S
C2181 C2183 1.388 1_655 S
C2182 C2181 1.366 . S
C2182 C2186 1.385 . S
C2183 H2158 0.951 . S
C2183 C2181 1.388 1_455 S
C2183 C2184 1.366 . S
C2184 C2183 1.366 . S
C2184 C2185 1.414 1_455 S
C2184 C2187 1.499 . S
C2185 H2159 0.950 . S
C2185 C2184 1.414 1_655 S
C2185 C2186 1.374 . S
C2186 H2160 0.950 . S
C2186 C2182 1.385 . S
C2186 C2185 1.374 . S
C2187 C2184 1.499 . S
C2187 C2188 1.373 . S
C2187 C2189 1.389 . S
C2188 H2161 0.916 1_455 S
C2188 C2174 1.377 . S
C2188 C2187 1.373 . S
C2189 C2173 1.377 . S
C2189 C2187 1.389 . S
C2189 C2190 1.524 . S
C2190 C2189 1.524 . S
C2190 C2191 1.397 . S
C2190 C2195 1.363 . S
C2191 H2162 0.950 . S
C2191 C2190 1.397 . S
C2191 C2192 1.334 . S
C2192 H2163 0.950 . S
C2192 C2191 1.334 . S
C2192 C2193 1.287 . S
C2193 C2192 1.287 . S
C2193 C2194 1.524 . S
C2193 H2196 0.999 . S
C2194 H2164 0.950 . S
C2194 C2193 1.524 . S
C2194 C2195 1.415 . S
C2195 H2165 0.950 . S
C2195 C2190 1.363 . S
C2195 C2194 1.415 . S
H2196 C2193 0.999 . S
H2197 C2178 0.913 . S
H2198 C2216 0.951 . S
H2199 C2218 0.951 . S
H2200 C2220 0.950 . S
H2201 C2221 0.950 . S
H2202 C2223 0.950 . S
H2203 C2226 0.950 . S
H2204 C2227 0.950 . S
H2205 C2229 0.945 . S
H2206 C2230 0.950 . S
H2207 C2231 0.951 . S
H2208 C2233 0.951 . S
H2209 C2235 0.950 . S
H2210 C2236 0.950 . S
H2211 C2238 0.950 . S
H2212 C2241 0.950 . S
H2213 C2242 0.950 . S
H2214 C2244 0.950 . S
H2215 C2245 0.950 . S
C2216 H2198 0.951 . S
C2216 C2217 1.366 . S
C2216 C2218 1.388 . S
C2217 C2216 1.366 . S
C2217 C2221 1.385 . S
C2218 H2199 0.951 . S
C2218 C2216 1.388 . S
C2218 C2219 1.366 1_565 S
C2219 C2218 1.366 1_545 S
C2219 C2220 1.414 . S
C2219 C2222 1.499 . S
C2220 H2200 0.950 . S
C2220 C2219 1.414 . S
C2220 C2221 1.374 1_545 S
C2221 H2201 0.950 . S
C2221 C2217 1.385 . S
C2221 C2220 1.374 1_565 S
C2222 C2219 1.499 . S
C2222 C2223 1.373 . S
C2222 C2224 1.389 . S
C2223 H2202 0.950 . S
C2223 C2222 1.373 . S
C2223 C2239 1.377 . S
C2224 C2222 1.389 . S
C2224 C2225 1.524 . S
C2224 C2238 1.377 . S
C2225 C2224 1.524 . S
C2225 C2226 1.397 . S
C2225 C2230 1.363 1_545 S
C2226 H2203 0.950 . S
C2226 C2225 1.397 . S
C2226 C2227 1.334 1_545 S
C2227 H2204 0.950 . S
C2227 C2226 1.334 1_565 S
C2227 C2228 1.287 . S
C2228 C2227 1.287 . S
C2228 C2229 1.524 . S
C2228 H2247 0.913 . S
C2229 H2205 0.945 . S
C2229 C2228 1.524 . S
C2229 C2230 1.415 . S
C2230 H2206 0.950 . S
C2230 C2225 1.363 1_565 S
C2230 C2229 1.415 . S
C2231 H2207 0.951 . S
C2231 C2232 1.366 . S
C2231 C2233 1.388 1_455 S
C2232 C2231 1.366 . S
C2232 C2236 1.385 . S
C2233 H2208 0.951 . S
C2233 C2231 1.388 1_655 S
C2233 C2234 1.366 . S
C2234 C2233 1.366 . S
C2234 C2235 1.414 1_655 S
C2234 C2237 1.499 . S
C2235 H2209 0.950 . S
C2235 C2234 1.414 1_455 S
C2235 C2236 1.374 . S
C2236 H2210 0.950 . S
C2236 C2232 1.385 . S
C2236 C2235 1.374 . S
C2237 C2234 1.499 . S
C2237 C2238 1.373 . S
C2237 C2239 1.389 . S
C2238 H2211 0.950 . S
C2238 C2224 1.377 . S
C2238 C2237 1.373 . S
C2239 C2223 1.377 . S
C2239 C2237 1.389 . S
C2239 C2240 1.524 . S
C2240 C2239 1.524 . S
C2240 C2241 1.397 . S
C2240 C2245 1.363 . S
C2241 H2212 0.950 . S
C2241 C2240 1.397 . S
C2241 C2242 1.334 . S
C2242 H2213 0.950 . S
C2242 C2241 1.334 . S
C2242 C2243 1.287 . S
C2243 C2242 1.287 . S
C2243 C2244 1.524 . S
C2243 H2246 0.999 . S
C2244 H2214 0.950 . S
C2244 C2243 1.524 . S
C2244 C2245 1.415 . S
C2245 H2215 0.950 . S
C2245 C2240 1.363 . S
C2245 C2244 1.415 . S
H2246 C2243 0.999 . S
H2247 C2228 0.913 . S
H2248 C2266 0.951 . S
H2249 C2268 0.951 . S
H2250 C2270 0.950 . S
H2251 C2271 0.950 . S
H2252 C2273 0.950 . S
H2253 C2276 0.950 . S
H2254 C2277 0.950 . S
H2255 C2279 0.950 . S
H2256 C2280 0.950 . S
H2257 C2281 0.951 . S
H2258 C2283 0.951 . S
H2259 C2285 0.950 . S
H2260 C2286 0.950 . S
H2261 C2288 0.950 . S
H2262 C2291 0.950 . S
H2263 C2292 0.950 . S
H2264 C2294 0.950 . S
H2265 C2295 0.950 . S
C2266 H2248 0.951 . S
C2266 C2267 1.366 . S
C2266 C2268 1.388 . S
C2267 C2266 1.366 . S
C2267 C2271 1.385 . S
C2268 H2249 0.951 . S
C2268 C2266 1.388 . S
C2268 C2269 1.366 . S
C2269 C2268 1.366 . S
C2269 C2270 1.414 . S
C2269 C2272 1.499 . S
C2270 H2250 0.950 . S
C2270 C2269 1.414 . S
C2270 C2271 1.374 . S
C2271 H2251 0.950 . S
C2271 C2267 1.385 . S
C2271 C2270 1.374 . S
C2272 C2269 1.499 . S
C2272 C2273 1.373 . S
C2272 C2274 1.389 . S
C2273 H2252 0.950 . S
C2273 C2272 1.373 . S
C2273 C2289 1.377 . S
C2274 C2272 1.389 . S
C2274 C2275 1.524 . S
C2274 C2288 1.377 . S
C2275 C2274 1.524 . S
C2275 C2276 1.397 . S
C2275 C2280 1.363 . S
C2276 H2253 0.950 . S
C2276 C2275 1.397 . S
C2276 C2277 1.334 . S
C2277 H2254 0.950 . S
C2277 C2276 1.334 . S
C2277 C2278 1.287 . S
C2278 C2277 1.287 . S
C2278 C2279 1.524 . S
C2278 H2297 0.913 . S
C2279 H2255 0.950 . S
C2279 C2278 1.524 . S
C2279 C2280 1.415 . S
C2280 H2256 0.950 . S
C2280 C2275 1.363 . S
C2280 C2279 1.415 . S
C2281 H2257 0.951 . S
C2281 C2282 1.366 . S
C2281 C2283 1.388 . S
C2282 C2281 1.366 . S
C2282 C2286 1.385 . S
C2283 H2258 0.951 . S
C2283 C2281 1.388 . S
C2283 C2284 1.366 . S
C2284 C2283 1.366 . S
C2284 C2285 1.414 . S
C2284 C2287 1.499 . S
C2285 H2259 0.950 . S
C2285 C2284 1.414 . S
C2285 C2286 1.374 . S
C2286 H2260 0.950 . S
C2286 C2282 1.385 . S
C2286 C2285 1.374 . S
C2287 C2284 1.499 . S
C2287 C2288 1.373 . S
C2287 C2289 1.389 . S
C2288 H2261 0.950 . S
C2288 C2274 1.377 . S
C2288 C2287 1.373 . S
C2289 C2273 1.377 . S
C2289 C2287 1.389 . S
C2289 C2290 1.524 . S
C2290 C2289 1.524 . S
C2290 C2291 1.397 . S
C2290 C2295 1.363 . S
C2291 H2262 0.950 . S
C2291 C2290 1.397 . S
C2291 C2292 1.334 . S
C2292 H2263 0.950 . S
C2292 C2291 1.334 . S
C2292 C2293 1.287 . S
C2293 C2292 1.287 . S
C2293 C2294 1.524 . S
C2293 H2296 0.999 . S
C2294 H2264 0.950 . S
C2294 C2293 1.524 . S
C2294 C2295 1.415 . S
C2295 H2265 0.950 . S
C2295 C2290 1.363 . S
C2295 C2294 1.415 . S
H2296 C2293 0.999 . S
H2297 C2278 0.913 . S
H2298 C2316 0.951 . S
H2299 C2318 0.951 . S
H2300 C2320 0.950 . S
H2301 C2321 0.950 . S
H2302 C2323 0.950 . S
H2303 C2326 0.950 . S
H2304 C2327 0.950 . S
H2305 C2329 0.950 . S
H2306 C2330 0.950 . S
H2307 C2331 0.951 . S
H2308 C2333 0.951 . S
H2309 C2335 0.950 . S
H2310 C2336 0.950 . S
H2311 C2338 0.950 . S
H2312 C2341 0.950 . S
H2313 C2342 0.950 . S
H2314 C2344 0.950 1_455 S
H2315 C2345 0.950 1_455 S
C2316 H2298 0.951 . S
C2316 C2317 1.366 . S
C2316 C2318 1.388 1_455 S
C2317 C2316 1.366 . S
C2317 C2321 1.385 . S
C2318 H2299 0.951 . S
C2318 C2316 1.388 1_655 S
C2318 C2319 1.366 . S
C2319 C2318 1.366 . S
C2319 C2320 1.414 1_655 S
C2319 C2322 1.499 . S
C2320 H2300 0.950 . S
C2320 C2319 1.414 1_455 S
C2320 C2321 1.374 . S
C2321 H2301 0.950 . S
C2321 C2317 1.385 . S
C2321 C2320 1.374 . S
C2322 C2319 1.499 . S
C2322 C2323 1.373 . S
C2322 C2324 1.389 . S
C2323 H2302 0.950 . S
C2323 C2322 1.373 . S
C2323 C2339 1.377 . S
C2324 C2322 1.389 . S
C2324 C2325 1.524 . S
C2324 C2338 1.377 . S
C2325 C2324 1.524 . S
C2325 C2326 1.397 . S
C2325 C2330 1.363 . S
C2326 H2303 0.950 . S
C2326 C2325 1.397 . S
C2326 C2327 1.334 . S
C2327 H2304 0.950 . S
C2327 C2326 1.334 . S
C2327 C2328 1.287 . S
C2328 C2327 1.287 . S
C2328 C2329 1.524 . S
C2328 H2347 0.913 . S
C2329 H2305 0.950 . S
C2329 C2328 1.524 . S
C2329 C2330 1.415 . S
C2330 H2306 0.950 . S
C2330 C2325 1.363 . S
C2330 C2329 1.415 . S
C2331 H2307 0.951 . S
C2331 C2332 1.366 . S
C2331 C2333 1.388 . S
C2332 C2331 1.366 . S
C2332 C2336 1.385 . S
C2333 H2308 0.951 . S
C2333 C2331 1.388 . S
C2333 C2334 1.366 . S
C2334 C2333 1.366 . S
C2334 C2335 1.414 . S
C2334 C2337 1.499 . S
C2335 H2309 0.950 . S
C2335 C2334 1.414 . S
C2335 C2336 1.374 . S
C2336 H2310 0.950 . S
C2336 C2332 1.385 . S
C2336 C2335 1.374 . S
C2337 C2334 1.499 . S
C2337 C2338 1.373 . S
C2337 C2339 1.389 . S
C2338 H2311 0.950 . S
C2338 C2324 1.377 . S
C2338 C2337 1.373 . S
C2339 C2323 1.377 . S
C2339 C2337 1.389 . S
C2339 C2340 1.524 . S
C2340 C2339 1.524 . S
C2340 C2341 1.397 . S
C2340 C2345 1.363 . S
C2341 H2312 0.950 . S
C2341 C2340 1.397 . S
C2341 C2342 1.334 . S
C2342 H2313 0.950 . S
C2342 C2341 1.334 . S
C2342 C2343 1.287 . S
C2343 C2342 1.287 . S
C2343 C2344 1.524 . S
C2343 H2346 0.999 . S
C2344 H2314 0.950 1_655 S
C2344 C2343 1.524 . S
C2344 C2345 1.415 . S
C2345 H2315 0.950 1_655 S
C2345 C2340 1.363 . S
C2345 C2344 1.415 . S
H2346 C2343 0.999 . S
H2347 C2328 0.913 . S
H2348 C2366 0.951 . S
H2349 C2368 0.972 . S
H2350 C2370 0.950 . S
H2351 C2371 0.950 . S
H2352 C2373 0.950 . S
H2353 C2376 0.950 . S
H2354 C2377 0.950 . S
H2355 C2379 0.950 . S
H2356 C2380 0.950 . S
H2357 C2381 0.951 . S
H2358 C2383 0.951 . S
H2359 C2385 0.950 . S
H2360 C2386 0.950 . S
H2361 C2388 0.950 . S
H2362 C2391 0.950 . S
H2363 C2392 0.950 . S
H2364 C2394 0.950 . S
H2365 C2395 0.950 . S
C2366 H2348 0.951 . S
C2366 C2367 1.366 . S
C2366 C2368 1.365 1_655 S
C2367 C2366 1.366 . S
C2367 C2371 1.385 . S
C2368 H2349 0.972 . S
C2368 C2366 1.365 1_455 S
C2368 C2369 1.368 . S
C2369 C2368 1.368 . S
C2369 C2370 1.414 1_455 S
C2369 C2372 1.499 . S
C2370 H2350 0.950 . S
C2370 C2369 1.414 1_655 S
C2370 C2371 1.374 . S
C2371 H2351 0.950 . S
C2371 C2367 1.385 . S
C2371 C2370 1.374 . S
C2372 C2369 1.499 . S
C2372 C2373 1.373 . S
C2372 C2374 1.389 . S
C2373 H2352 0.950 . S
C2373 C2372 1.373 . S
C2373 C2389 1.377 . S
C2374 C2372 1.389 . S
C2374 C2375 1.524 . S
C2374 C2388 1.377 . S
C2375 C2374 1.524 . S
C2375 C2376 1.397 1_455 S
C2375 C2380 1.363 . S
C2376 H2353 0.950 . S
C2376 C2375 1.397 1_655 S
C2376 C2377 1.334 . S
C2377 H2354 0.950 . S
C2377 C2376 1.334 . S
C2377 C2378 1.287 . S
C2378 C2377 1.287 . S
C2378 C2379 1.524 1_655 S
C2378 H2397 0.913 . S
C2379 H2355 0.950 . S
C2379 C2378 1.524 1_455 S
C2379 C2380 1.415 . S
C2380 H2356 0.950 . S
C2380 C2375 1.363 . S
C2380 C2379 1.415 . S
C2381 H2357 0.951 . S
C2381 C2382 1.366 . S
C2381 C2383 1.388 . S
C2382 C2381 1.366 . S
C2382 C2386 1.385 . S
C2383 H2358 0.951 . S
C2383 C2381 1.388 . S
C2383 C2384 1.366 1_545 S
C2384 C2383 1.366 1_565 S
C2384 C2385 1.414 . S
C2384 C2387 1.499 . S
C2385 H2359 0.950 . S
C2385 C2384 1.414 . S
C2385 C2386 1.374 1_565 S
C2386 H2360 0.950 . S
C2386 C2382 1.385 . S
C2386 C2385 1.374 1_545 S
C2387 C2384 1.499 . S
C2387 C2388 1.373 . S
C2387 C2389 1.389 . S
C2388 H2361 0.950 . S
C2388 C2374 1.377 . S
C2388 C2387 1.373 . S
C2389 C2373 1.377 . S
C2389 C2387 1.389 . S
C2389 C2390 1.524 . S
C2390 C2389 1.524 . S
C2390 C2391 1.397 . S
C2390 C2395 1.363 . S
C2391 H2362 0.950 . S
C2391 C2390 1.397 . S
C2391 C2392 1.334 . S
C2392 H2363 0.950 . S
C2392 C2391 1.334 . S
C2392 C2393 1.287 . S
C2393 C2392 1.287 . S
C2393 C2394 1.524 . S
C2393 H2396 0.999 . S
C2394 H2364 0.950 . S
C2394 C2393 1.524 . S
C2394 C2395 1.415 . S
C2395 H2365 0.950 . S
C2395 C2390 1.363 . S
C2395 C2394 1.415 . S
H2396 C2393 0.999 . S
H2397 C2378 0.913 . S
H2398 C2416 0.951 . S
H2399 C2418 0.951 . S
H2400 C2420 0.950 . S
H2401 C2421 0.950 . S
H2402 C2423 0.950 . S
H2403 C2426 0.950 . S
H2404 C2427 0.950 . S
H2405 C2429 0.950 . S
H2406 C2430 0.950 . S
H2407 C2431 0.951 . S
H2408 C2433 0.951 . S
H2409 C2435 0.950 . S
H2410 C2436 0.950 . S
H2411 C2438 0.950 . S
H2412 C2441 0.950 . S
H2413 C2442 0.950 . S
H2414 C2444 0.950 . S
H2415 C2445 0.950 . S
C2416 H2398 0.951 . S
C2416 C2417 1.366 . S
C2416 C2418 1.388 1_565 S
C2417 C2416 1.366 . S
C2417 C2421 1.385 . S
C2418 H2399 0.951 . S
C2418 C2416 1.388 1_545 S
C2418 C2419 1.366 . S
C2419 C2418 1.366 . S
C2419 C2420 1.414 1_545 S
C2419 C2422 1.499 . S
C2420 H2400 0.950 . S
C2420 C2419 1.414 1_565 S
C2420 C2421 1.374 . S
C2421 H2401 0.950 . S
C2421 C2417 1.385 . S
C2421 C2420 1.374 . S
C2422 C2419 1.499 . S
C2422 C2423 1.373 . S
C2422 C2424 1.389 . S
C2423 H2402 0.950 . S
C2423 C2422 1.373 . S
C2423 C2439 1.377 . S
C2424 C2422 1.389 . S
C2424 C2425 1.524 . S
C2424 C2438 1.377 . S
C2425 C2424 1.524 . S
C2425 C2426 1.397 1_545 S
C2425 C2430 1.363 . S
C2426 H2403 0.950 . S
C2426 C2425 1.397 1_565 S
C2426 C2427 1.334 . S
C2427 H2404 0.950 . S
C2427 C2426 1.334 . S
C2427 C2428 1.287 . S
C2428 C2427 1.287 . S
C2428 C2429 1.524 1_565 S
C2428 H2447 0.913 . S
C2429 H2405 0.950 . S
C2429 C2428 1.524 1_545 S
C2429 C2430 1.415 . S
C2430 H2406 0.950 . S
C2430 C2425 1.363 . S
C2430 C2429 1.415 . S
C2431 H2407 0.951 . S
C2431 C2432 1.366 . S
C2431 C2433 1.388 . S
C2432 C2431 1.366 . S
C2432 C2436 1.385 . S
C2433 H2408 0.951 . S
C2433 C2431 1.388 . S
C2433 C2434 1.366 . S
C2434 C2433 1.366 . S
C2434 C2435 1.414 . S
C2434 C2437 1.499 . S
C2435 H2409 0.950 . S
C2435 C2434 1.414 . S
C2435 C2436 1.374 . S
C2436 H2410 0.950 . S
C2436 C2432 1.385 . S
C2436 C2435 1.374 . S
C2437 C2434 1.499 . S
C2437 C2438 1.373 . S
C2437 C2439 1.389 . S
C2438 H2411 0.950 . S
C2438 C2424 1.377 . S
C2438 C2437 1.373 . S
C2439 C2423 1.377 . S
C2439 C2437 1.389 . S
C2439 C2440 1.524 . S
C2440 C2439 1.524 . S
C2440 C2441 1.397 . S
C2440 C2445 1.363 . S
C2441 H2412 0.950 . S
C2441 C2440 1.397 . S
C2441 C2442 1.334 . S
C2442 H2413 0.950 . S
C2442 C2441 1.334 . S
C2442 C2443 1.287 . S
C2443 C2442 1.287 . S
C2443 C2444 1.524 . S
C2443 H2446 0.999 . S
C2444 H2414 0.950 . S
C2444 C2443 1.524 . S
C2444 C2445 1.415 . S
C2445 H2415 0.950 . S
C2445 C2440 1.363 . S
C2445 C2444 1.415 . S
H2446 C2443 0.999 . S
H2447 C2428 0.913 . S
C867 C410 1.849 . S
C882 C39 1.849 . S
C917 C251 1.849 . S
C932 C92 1.849 . S
C967 C304 1.849 . S
C982 C145 1.849 . S
C1017 C198 1.849 . S
C1032 C357 1.849 . S
C1067 C834 1.845 . S
C1082 C463 1.845 . S
C1117 C675 1.845 . S
C1132 C516 1.845 . S
C1167 C569 1.845 . S
C1182 C728 1.845 . S
C1217 C622 1.845 . S
C1232 C781 1.845 . S
C1267 C135 1.384 . S
C1282 C29 1.384 . S
C1317 C82 1.383 . S
C1332 C188 1.383 . S
C1367 C241 1.383 . S
C1382 C347 1.383 . S
C1417 C400 1.384 . S
C1432 C294 1.384 . S
C1467 C453 1.386 . S
C1482 C559 1.386 . S
C1517 C506 1.386 . S
C1532 C612 1.386 . S
C1567 C771 1.386 . S
C1582 C665 1.386 . S
C1617 C718 1.386 . S
C1632 C824 1.386 . S
C1667 C356 1.879 . S
C1682 C38 1.879 . S
C1717 C91 1.879 . S
C1732 C409 1.879 . S
C1767 C144 1.879 . S
C1782 C250 1.879 . S
C1817 C197 1.878 . S
C1832 C303 1.878 . S
C1867 C462 1.883 . S
C1882 C780 1.883 . S
C1917 C515 1.883 . S
C1932 C833 1.883 . S
C1967 C568 1.883 . S
C1982 C674 1.883 . S
C2017 C621 1.883 . S
C2032 C727 1.883 . S
C2067 C22 1.515 . S
C2082 C817 1.514 . S
C2117 C658 1.514 . S
C2132 C75 1.516 . S
C2167 C128 1.515 . S
C2182 C711 1.514 . S
C2217 C764 1.514 . S
C2232 C181 1.516 . S
C2267 C499 1.514 . S
C2282 C234 1.516 . S
C2317 C287 1.515 . S
C2332 C552 1.514 . S
C2367 C605 1.514 . S
C2382 C340 1.516 . S
C2417 C446 1.514 . S
C2432 C393 1.515 . S
