# Generated by pormake.
# Topology umq, (4)-cn, num edge types: 1
# Building blocks:
#     Node 0, Type 0, BuildingBlock: QUQFOY_clean_sbu_3, # of connection points: 4
#     Node 1, Type 0, BuildingBlock: QUQFOY_clean_sbu_3, # of connection points: 4
#     Node 2, Type 0, BuildingBlock: QUQFOY_clean_sbu_3, # of connection points: 4
#     Node 3, Type 0, BuildingBlock: QUQFOY_clean_sbu_3, # of connection points: 4
#     Node 4, Type 0, BuildingBlock: QUQFOY_clean_sbu_3, # of connection points: 4
#     Node 5, Type 0, BuildingBlock: QUQFOY_clean_sbu_3, # of connection points: 4
#     Node 6, Type 0, BuildingBlock: QUQFOY_clean_sbu_3, # of connection points: 4
#     Node 7, Type 0, BuildingBlock: QUQFOY_clean_sbu_3, # of connection points: 4
#     Node 8, Type 0, BuildingBlock: QUQFOY_clean_sbu_3, # of connection points: 4
#     Node 9, Type 0, BuildingBlock: QUQFOY_clean_sbu_3, # of connection points: 4
#     Node 10, Type 0, BuildingBlock: QUQFOY_clean_sbu_3, # of connection points: 4
#     Node 11, Type 0, BuildingBlock: QUQFOY_clean_sbu_3, # of connection points: 4
#     Node 12, Type 0, BuildingBlock: QUQFOY_clean_sbu_3, # of connection points: 4
#     Node 13, Type 0, BuildingBlock: QUQFOY_clean_sbu_3, # of connection points: 4
#     Node 14, Type 0, BuildingBlock: QUQFOY_clean_sbu_3, # of connection points: 4
#     Node 15, Type 0, BuildingBlock: QUQFOY_clean_sbu_3, # of connection points: 4
#     Node 16, Type 0, BuildingBlock: QUQFOY_clean_sbu_3, # of connection points: 4
#     Node 17, Type 0, BuildingBlock: QUQFOY_clean_sbu_3, # of connection points: 4
#     Node 18, Type 0, BuildingBlock: QUQFOY_clean_sbu_3, # of connection points: 4
#     Node 19, Type 0, BuildingBlock: QUQFOY_clean_sbu_3, # of connection points: 4
#     Node 20, Type 0, BuildingBlock: QUQFOY_clean_sbu_3, # of connection points: 4
#     Node 21, Type 0, BuildingBlock: QUQFOY_clean_sbu_3, # of connection points: 4
#     Node 22, Type 0, BuildingBlock: QUQFOY_clean_sbu_3, # of connection points: 4
#     Node 23, Type 0, BuildingBlock: QUQFOY_clean_sbu_3, # of connection points: 4
#     Node 24, Type 0, BuildingBlock: QUQFOY_clean_sbu_3, # of connection points: 4
#     Node 25, Type 0, BuildingBlock: QUQFOY_clean_sbu_3, # of connection points: 4
#     Node 26, Type 0, BuildingBlock: QUQFOY_clean_sbu_3, # of connection points: 4
#     Node 27, Type 0, BuildingBlock: QUQFOY_clean_sbu_3, # of connection points: 4
#     Node 28, Type 0, BuildingBlock: QUQFOY_clean_sbu_3, # of connection points: 4
#     Node 29, Type 0, BuildingBlock: QUQFOY_clean_sbu_3, # of connection points: 4
#     Node 30, Type 0, BuildingBlock: QUQFOY_clean_sbu_3, # of connection points: 4
#     Node 31, Type 0, BuildingBlock: QUQFOY_clean_sbu_3, # of connection points: 4
#     Edge 32, Type (0, 0), BuildingBlock: MIFKUJ_clean_linker_0, # of connection points: 2
#     Edge 33, Type (0, 0), BuildingBlock: MIFKUJ_clean_linker_0, # of connection points: 2
#     Edge 34, Type (0, 0), BuildingBlock: MIFKUJ_clean_linker_0, # of connection points: 2
#     Edge 35, Type (0, 0), BuildingBlock: MIFKUJ_clean_linker_0, # of connection points: 2
#     Edge 36, Type (0, 0), BuildingBlock: MIFKUJ_clean_linker_0, # of connection points: 2
#     Edge 37, Type (0, 0), BuildingBlock: MIFKUJ_clean_linker_0, # of connection points: 2
#     Edge 38, Type (0, 0), BuildingBlock: MIFKUJ_clean_linker_0, # of connection points: 2
#     Edge 39, Type (0, 0), BuildingBlock: MIFKUJ_clean_linker_0, # of connection points: 2
#     Edge 40, Type (0, 0), BuildingBlock: MIFKUJ_clean_linker_0, # of connection points: 2
#     Edge 41, Type (0, 0), BuildingBlock: MIFKUJ_clean_linker_0, # of connection points: 2
#     Edge 42, Type (0, 0), BuildingBlock: MIFKUJ_clean_linker_0, # of connection points: 2
#     Edge 43, Type (0, 0), BuildingBlock: MIFKUJ_clean_linker_0, # of connection points: 2
#     Edge 44, Type (0, 0), BuildingBlock: MIFKUJ_clean_linker_0, # of connection points: 2
#     Edge 45, Type (0, 0), BuildingBlock: MIFKUJ_clean_linker_0, # of connection points: 2
#     Edge 46, Type (0, 0), BuildingBlock: MIFKUJ_clean_linker_0, # of connection points: 2
#     Edge 47, Type (0, 0), BuildingBlock: MIFKUJ_clean_linker_0, # of connection points: 2
#     Edge 48, Type (0, 0), BuildingBlock: MIFKUJ_clean_linker_0, # of connection points: 2
#     Edge 49, Type (0, 0), BuildingBlock: MIFKUJ_clean_linker_0, # of connection points: 2
#     Edge 50, Type (0, 0), BuildingBlock: MIFKUJ_clean_linker_0, # of connection points: 2
#     Edge 51, Type (0, 0), BuildingBlock: MIFKUJ_clean_linker_0, # of connection points: 2
#     Edge 52, Type (0, 0), BuildingBlock: MIFKUJ_clean_linker_0, # of connection points: 2
#     Edge 53, Type (0, 0), BuildingBlock: MIFKUJ_clean_linker_0, # of connection points: 2
#     Edge 54, Type (0, 0), BuildingBlock: MIFKUJ_clean_linker_0, # of connection points: 2
#     Edge 55, Type (0, 0), BuildingBlock: MIFKUJ_clean_linker_0, # of connection points: 2
#     Edge 56, Type (0, 0), BuildingBlock: MIFKUJ_clean_linker_0, # of connection points: 2
#     Edge 57, Type (0, 0), BuildingBlock: MIFKUJ_clean_linker_0, # of connection points: 2
#     Edge 58, Type (0, 0), BuildingBlock: MIFKUJ_clean_linker_0, # of connection points: 2
#     Edge 59, Type (0, 0), BuildingBlock: MIFKUJ_clean_linker_0, # of connection points: 2
#     Edge 60, Type (0, 0), BuildingBlock: MIFKUJ_clean_linker_0, # of connection points: 2
#     Edge 61, Type (0, 0), BuildingBlock: MIFKUJ_clean_linker_0, # of connection points: 2
#     Edge 62, Type (0, 0), BuildingBlock: MIFKUJ_clean_linker_0, # of connection points: 2
#     Edge 63, Type (0, 0), BuildingBlock: MIFKUJ_clean_linker_0, # of connection points: 2
#     Edge 64, Type (0, 0), BuildingBlock: MIFKUJ_clean_linker_0, # of connection points: 2
#     Edge 65, Type (0, 0), BuildingBlock: MIFKUJ_clean_linker_0, # of connection points: 2
#     Edge 66, Type (0, 0), BuildingBlock: MIFKUJ_clean_linker_0, # of connection points: 2
#     Edge 67, Type (0, 0), BuildingBlock: MIFKUJ_clean_linker_0, # of connection points: 2
#     Edge 68, Type (0, 0), BuildingBlock: MIFKUJ_clean_linker_0, # of connection points: 2
#     Edge 69, Type (0, 0), BuildingBlock: MIFKUJ_clean_linker_0, # of connection points: 2
#     Edge 70, Type (0, 0), BuildingBlock: MIFKUJ_clean_linker_0, # of connection points: 2
#     Edge 71, Type (0, 0), BuildingBlock: MIFKUJ_clean_linker_0, # of connection points: 2
#     Edge 72, Type (0, 0), BuildingBlock: MIFKUJ_clean_linker_0, # of connection points: 2
#     Edge 73, Type (0, 0), BuildingBlock: MIFKUJ_clean_linker_0, # of connection points: 2
#     Edge 74, Type (0, 0), BuildingBlock: MIFKUJ_clean_linker_0, # of connection points: 2
#     Edge 75, Type (0, 0), BuildingBlock: MIFKUJ_clean_linker_0, # of connection points: 2
#     Edge 76, Type (0, 0), BuildingBlock: MIFKUJ_clean_linker_0, # of connection points: 2
#     Edge 77, Type (0, 0), BuildingBlock: MIFKUJ_clean_linker_0, # of connection points: 2
#     Edge 78, Type (0, 0), BuildingBlock: MIFKUJ_clean_linker_0, # of connection points: 2
#     Edge 79, Type (0, 0), BuildingBlock: MIFKUJ_clean_linker_0, # of connection points: 2
#     Edge 80, Type (0, 0), BuildingBlock: MIFKUJ_clean_linker_0, # of connection points: 2
#     Edge 81, Type (0, 0), BuildingBlock: MIFKUJ_clean_linker_0, # of connection points: 2
#     Edge 82, Type (0, 0), BuildingBlock: MIFKUJ_clean_linker_0, # of connection points: 2
#     Edge 83, Type (0, 0), BuildingBlock: MIFKUJ_clean_linker_0, # of connection points: 2
#     Edge 84, Type (0, 0), BuildingBlock: MIFKUJ_clean_linker_0, # of connection points: 2
#     Edge 85, Type (0, 0), BuildingBlock: MIFKUJ_clean_linker_0, # of connection points: 2
#     Edge 86, Type (0, 0), BuildingBlock: MIFKUJ_clean_linker_0, # of connection points: 2
#     Edge 87, Type (0, 0), BuildingBlock: MIFKUJ_clean_linker_0, # of connection points: 2
#     Edge 88, Type (0, 0), BuildingBlock: MIFKUJ_clean_linker_0, # of connection points: 2
#     Edge 89, Type (0, 0), BuildingBlock: MIFKUJ_clean_linker_0, # of connection points: 2
#     Edge 90, Type (0, 0), BuildingBlock: MIFKUJ_clean_linker_0, # of connection points: 2
#     Edge 91, Type (0, 0), BuildingBlock: MIFKUJ_clean_linker_0, # of connection points: 2
#     Edge 92, Type (0, 0), BuildingBlock: MIFKUJ_clean_linker_0, # of connection points: 2
#     Edge 93, Type (0, 0), BuildingBlock: MIFKUJ_clean_linker_0, # of connection points: 2
#     Edge 94, Type (0, 0), BuildingBlock: MIFKUJ_clean_linker_0, # of connection points: 2
#     Edge 95, Type (0, 0), BuildingBlock: MIFKUJ_clean_linker_0, # of connection points: 2
# Relax obj value: 0.065
# Max RMSD: 0.052
# Mean RMSD: 0.052
data_MOF--net-umq--node1-QUQFOY_clean_sbu_3--edge1-MIFKUJ_clean_linker_0
_symmetry_space_group_name_H-M    P1
_symmetry_Int_Tables_number       1
_symmetry_cell_setting            triclinic
loop_
_symmetry_equiv_pos_as_xyz
'x, y, z'
_cell_length_a     87.708019
_cell_length_b     87.80747
_cell_length_c     59.49768
_cell_angle_alpha  89.999645
_cell_angle_beta   90.11837
_cell_angle_gamma 90.021501
loop_
_atom_site_label
_atom_site_type_symbol
_atom_site_fract_x
_atom_site_fract_y
_atom_site_fract_z
_atom_type_partial_charge
C0 C 0.22125 0.09153 0.10711 0.0
O1 O 0.21253 0.10283 0.1105 0.0
Cd2 Cd 0.21024 0.11633 0.14505 0.0
O3 O 0.22919 0.08595 0.12308 0.0
Cd4 Cd 0.23226 0.09045 0.16421 0.0
C5 C 0.248 0.12496 0.15504 0.0
O6 O 0.20608 0.0973 0.1728 0.0
O7 O 0.2224 0.10256 0.19865 0.0
O8 O 0.23109 0.06315 0.17064 0.0
C9 C 0.20857 0.10226 0.19242 0.0
O10 O 0.23452 0.12954 0.15078 0.0
C11 C 0.24342 0.06234 0.18181 0.0
O12 O 0.25065 0.11097 0.1591 0.0
O13 O 0.25081 0.07466 0.18448 0.0
C14 C 0.89363 0.22429 0.10205 0.0
O15 O 0.88198 0.21598 0.10543 0.0
Cd16 Cd 0.86985 0.2104 0.14027 0.0
O17 O 0.90061 0.23062 0.11841 0.0
Cd18 Cd 0.89807 0.23172 0.16013 0.0
C19 C 0.86274 0.24769 0.15519 0.0
O20 O 0.89066 0.20556 0.16446 0.0
O21 O 0.8894 0.21866 0.19486 0.0
O22 O 0.92558 0.23033 0.16399 0.0
C23 C 0.88768 0.2059 0.18522 0.0
O24 O 0.8578 0.23456 0.14966 0.0
C25 C 0.92685 0.24207 0.17632 0.0
O26 O 0.87689 0.24994 0.15891 0.0
O27 O 0.91469 0.24939 0.18055 0.0
C28 C 0.76967 0.89164 0.10719 0.0
O29 O 0.77745 0.88015 0.11329 0.0
Cd30 Cd 0.77979 0.86964 0.14997 0.0
O31 O 0.76209 0.89939 0.12148 0.0
Cd32 Cd 0.75785 0.89889 0.16301 0.0
C33 C 0.74141 0.86386 0.15982 0.0
O34 O 0.78334 0.89139 0.17261 0.0
O35 O 0.76778 0.8908 0.20035 0.0
O36 O 0.75998 0.92642 0.16522 0.0
C37 C 0.78127 0.88889 0.19327 0.0
O38 O 0.75478 0.85848 0.1571 0.0
C39 C 0.74736 0.92846 0.17521 0.0
O40 O 0.73919 0.87818 0.16118 0.0
O41 O 0.73924 0.91672 0.17879 0.0
C42 C 0.09483 0.76747 0.11003 0.0
O43 O 0.10641 0.77572 0.11418 0.0
Cd44 Cd 0.11924 0.77906 0.14912 0.0
O45 O 0.08817 0.75999 0.12556 0.0
Cd46 Cd 0.0908 0.75732 0.16724 0.0
C47 C 0.12592 0.74118 0.16168 0.0
O48 O 0.09836 0.78328 0.17315 0.0
O49 O 0.09939 0.7696 0.20294 0.0
O50 O 0.06313 0.75786 0.17 0.0
C51 C 0.10132 0.78252 0.19388 0.0
O52 O 0.13105 0.7544 0.15713 0.0
C53 C 0.06212 0.74615 0.18246 0.0
O54 O 0.11172 0.73897 0.16484 0.0
O55 O 0.07449 0.73938 0.18736 0.0
C56 C 0.22285 0.89634 0.37685 0.0
O57 O 0.21414 0.88489 0.37434 0.0
Cd58 Cd 0.21002 0.87059 0.34086 0.0
O59 O 0.23024 0.90187 0.36029 0.0
Cd60 Cd 0.23253 0.89724 0.31902 0.0
C61 C 0.24767 0.8621 0.32882 0.0
O62 O 0.2063 0.8902 0.31427 0.0
O63 O 0.21976 0.88749 0.28448 0.0
O64 O 0.2323 0.92468 0.31392 0.0
C65 C 0.20685 0.88632 0.29386 0.0
O66 O 0.23436 0.85777 0.33453 0.0
C67 C 0.24406 0.92518 0.30154 0.0
O68 O 0.25025 0.8759 0.32334 0.0
O69 O 0.25074 0.91262 0.29761 0.0
C70 C 0.09264 0.22142 0.37881 0.0
O71 O 0.10439 0.21315 0.37643 0.0
Cd72 Cd 0.11892 0.21076 0.34288 0.0
O73 O 0.08716 0.22883 0.36222 0.0
Cd74 Cd 0.09264 0.23118 0.32123 0.0
C75 C 0.12631 0.24859 0.33107 0.0
O76 O 0.10085 0.20522 0.31433 0.0
O77 O 0.10629 0.22125 0.28817 0.0
O78 O 0.06629 0.22693 0.31107 0.0
C79 C 0.10614 0.20755 0.29486 0.0
O80 O 0.13118 0.23543 0.33657 0.0
C81 C 0.0643 0.23962 0.30132 0.0
O82 O 0.11236 0.25062 0.32589 0.0
O83 O 0.07549 0.24881 0.30123 0.0
C84 C 0.77139 0.09445 0.37493 0.0
O85 O 0.77969 0.10599 0.37089 0.0
Cd86 Cd 0.78224 0.11946 0.33646 0.0
O87 O 0.76343 0.08825 0.35943 0.0
Cd88 Cd 0.75973 0.0921 0.31807 0.0
C89 C 0.74408 0.12701 0.32736 0.0
O90 O 0.78575 0.09928 0.31076 0.0
O91 O 0.77088 0.10173 0.28234 0.0
O92 O 0.75947 0.06454 0.31344 0.0
C93 C 0.78423 0.10288 0.29034 0.0
O94 O 0.7575 0.13186 0.33146 0.0
C95 C 0.74766 0.06426 0.30104 0.0
O96 O 0.74167 0.113 0.32304 0.0
O97 O 0.74116 0.07693 0.29721 0.0
C98 C 0.8988 0.76848 0.38054 0.0
O99 O 0.88714 0.77704 0.37948 0.0
Cd100 Cd 0.87029 0.78013 0.34837 0.0
O101 O 0.90336 0.76092 0.36353 0.0
Cd102 Cd 0.89656 0.75892 0.32282 0.0
C103 C 0.8627 0.74221 0.33609 0.0
O104 O 0.88783 0.78472 0.31925 0.0
O105 O 0.88444 0.77119 0.2896 0.0
O106 O 0.92348 0.76109 0.31424 0.0
C107 C 0.88291 0.78394 0.29933 0.0
O108 O 0.8583 0.75521 0.34308 0.0
C109 C 0.92419 0.74912 0.3023 0.0
O110 O 0.87619 0.74027 0.32865 0.0
O111 O 0.91198 0.74145 0.30013 0.0
C112 C 0.77185 0.89336 0.8695 0.0
O113 O 0.78045 0.88246 0.86351 0.0
Cd114 Cd 0.78219 0.87189 0.82674 0.0
O115 O 0.76344 0.90019 0.8552 0.0
Cd116 Cd 0.75869 0.89888 0.81397 0.0
C117 C 0.74414 0.86338 0.81906 0.0
O118 O 0.78442 0.89323 0.80247 0.0
O119 O 0.7675 0.88945 0.77699 0.0
O120 O 0.75898 0.92644 0.81144 0.0
C121 C 0.78148 0.88948 0.78242 0.0
O122 O 0.75785 0.85874 0.82102 0.0
C123 C 0.74611 0.92761 0.8018 0.0
O124 O 0.74113 0.87754 0.81769 0.0
O125 O 0.73883 0.91533 0.79823 0.0
C126 C 0.09741 0.76841 0.87403 0.0
O127 O 0.10854 0.77721 0.86974 0.0
Cd128 Cd 0.12054 0.78144 0.83455 0.0
O129 O 0.09094 0.7607 0.8585 0.0
Cd130 Cd 0.09326 0.75809 0.81673 0.0
C131 C 0.12921 0.74391 0.82221 0.0
O132 O 0.09879 0.78464 0.81164 0.0
O133 O 0.10004 0.77167 0.78125 0.0
O134 O 0.06566 0.75467 0.81807 0.0
C135 C 0.10131 0.78451 0.79078 0.0
O136 O 0.13363 0.7574 0.82672 0.0
C137 C 0.06522 0.745 0.80222 0.0
O138 O 0.11515 0.74096 0.81896 0.0
O139 O 0.07784 0.74114 0.7935 0.0
C140 C 0.22208 0.09387 0.87578 0.0
O141 O 0.21294 0.10477 0.87195 0.0
Cd142 Cd 0.21067 0.11761 0.83683 0.0
O143 O 0.23046 0.08856 0.86014 0.0
Cd144 Cd 0.23392 0.093 0.81912 0.0
C145 C 0.24816 0.12796 0.82868 0.0
O146 O 0.20732 0.09785 0.80976 0.0
O147 O 0.22356 0.10428 0.78443 0.0
O148 O 0.23504 0.06551 0.81556 0.0
C149 C 0.20973 0.10258 0.79 0.0
O150 O 0.23439 0.13203 0.83193 0.0
C151 C 0.24634 0.0653 0.80228 0.0
O152 O 0.25146 0.11406 0.82512 0.0
O153 O 0.25226 0.07805 0.79727 0.0
C154 C 0.89835 0.22306 0.87148 0.0
O155 O 0.8874 0.21376 0.8688 0.0
Cd156 Cd 0.87295 0.21096 0.83525 0.0
O157 O 0.90308 0.23116 0.85514 0.0
Cd158 Cd 0.89755 0.23385 0.8142 0.0
C159 C 0.86332 0.24878 0.82736 0.0
O160 O 0.89144 0.2074 0.8066 0.0
O161 O 0.88494 0.22311 0.78066 0.0
O162 O 0.92503 0.23482 0.80946 0.0
C163 C 0.88583 0.20942 0.78723 0.0
O164 O 0.85926 0.23518 0.83183 0.0
C165 C 0.92492 0.24562 0.79528 0.0
O166 O 0.87696 0.25175 0.82152 0.0
O167 O 0.91202 0.25124 0.79019 0.0
C168 C 0.76992 0.09256 0.61021 0.0
O169 O 0.779 0.10343 0.61462 0.0
Cd170 Cd 0.78016 0.11705 0.64908 0.0
O171 O 0.76093 0.08737 0.6252 0.0
Cd172 Cd 0.75636 0.09194 0.66607 0.0
C173 C 0.74216 0.12671 0.65413 0.0
O174 O 0.78235 0.09768 0.67675 0.0
O175 O 0.76558 0.10379 0.70136 0.0
O176 O 0.75601 0.06461 0.67154 0.0
C177 C 0.77955 0.10281 0.69615 0.0
O178 O 0.75593 0.1309 0.65128 0.0
C179 C 0.7437 0.0643 0.68271 0.0
O180 O 0.73896 0.11288 0.65853 0.0
O181 O 0.73695 0.07693 0.68574 0.0
C182 C 0.8988 0.76527 0.61235 0.0
O183 O 0.88742 0.77405 0.61471 0.0
Cd184 Cd 0.87175 0.77541 0.64697 0.0
O185 O 0.9034 0.75684 0.62845 0.0
Cd186 Cd 0.89679 0.7537 0.66921 0.0
C187 C 0.86353 0.73721 0.65466 0.0
O188 O 0.88991 0.78002 0.67584 0.0
O189 O 0.88326 0.76468 0.70207 0.0
O190 O 0.92423 0.75313 0.67538 0.0
C191 C 0.88409 0.77828 0.69506 0.0
O192 O 0.85899 0.75056 0.64952 0.0
C193 C 0.92392 0.74253 0.68988 0.0
O194 O 0.87711 0.73495 0.66143 0.0
O195 O 0.91098 0.73689 0.69453 0.0
C196 C 0.22329 0.89516 0.60636 0.0
O197 O 0.21523 0.8833 0.60935 0.0
Cd198 Cd 0.21055 0.87058 0.64418 0.0
O199 O 0.22974 0.90186 0.62286 0.0
Cd200 Cd 0.23115 0.89907 0.66438 0.0
C201 C 0.24781 0.86416 0.66021 0.0
O202 O 0.20494 0.89135 0.6681 0.0
O203 O 0.21755 0.89109 0.69903 0.0
O204 O 0.23105 0.92673 0.66581 0.0
C205 C 0.20501 0.88879 0.68898 0.0
O206 O 0.23484 0.85884 0.65453 0.0
C207 C 0.24204 0.9278 0.67965 0.0
O208 O 0.24971 0.87838 0.66345 0.0
O209 O 0.24817 0.91544 0.68612 0.0
C210 C 0.09952 0.22565 0.60875 0.0
O211 O 0.11172 0.21807 0.61147 0.0
Cd212 Cd 0.12255 0.21058 0.64664 0.0
O213 O 0.09194 0.23041 0.6256 0.0
Cd214 Cd 0.09482 0.22976 0.66716 0.0
C215 C 0.12973 0.24641 0.6663 0.0
O216 O 0.10133 0.20279 0.6689 0.0
O217 O 0.1035 0.2151 0.69994 0.0
O218 O 0.06704 0.23182 0.66709 0.0
C219 C 0.10423 0.20247 0.68973 0.0
O220 O 0.13509 0.23347 0.66078 0.0
C221 C 0.06647 0.2406 0.68402 0.0
O222 O 0.11541 0.24849 0.66794 0.0
O223 O 0.07906 0.24444 0.69291 0.0
C224 C 0.7186 0.58827 0.60165 0.0
O225 O 0.71092 0.60048 0.60332 0.0
Cd226 Cd 0.70896 0.6164 0.63559 0.0
O227 O 0.72593 0.58296 0.61845 0.0
Cd228 Cd 0.72932 0.58956 0.65897 0.0
C229 C 0.74711 0.6229 0.64632 0.0
O230 O 0.70368 0.59876 0.66467 0.0
O231 O 0.71877 0.60222 0.69274 0.0
O232 O 0.72594 0.56307 0.66916 0.0
C233 C 0.70548 0.60351 0.68455 0.0
O234 O 0.73412 0.62791 0.6402 0.0
C235 C 0.73849 0.56175 0.67965 0.0
O236 O 0.7487 0.60921 0.65302 0.0
O237 O 0.74716 0.57334 0.68002 0.0
C238 C 0.39637 0.7286 0.6076 0.0
O239 O 0.38384 0.72145 0.60944 0.0
Cd240 Cd 0.37142 0.71431 0.64347 0.0
O241 O 0.40353 0.73329 0.62495 0.0
Cd242 Cd 0.39855 0.73315 0.66618 0.0
C243 C 0.36407 0.75044 0.66149 0.0
O244 O 0.39135 0.70636 0.66809 0.0
O245 O 0.38764 0.71927 0.69826 0.0
O246 O 0.42624 0.73363 0.67113 0.0
C247 C 0.38736 0.70645 0.68851 0.0
O248 O 0.35876 0.73748 0.65589 0.0
C249 C 0.42606 0.74331 0.68699 0.0
O250 O 0.37834 0.75235 0.66435 0.0
O251 O 0.41314 0.7485 0.69275 0.0
C252 C 0.26516 0.39009 0.60796 0.0
O253 O 0.27313 0.37838 0.61243 0.0
Cd254 Cd 0.28005 0.36868 0.64855 0.0
O255 O 0.25963 0.39827 0.62368 0.0
Cd256 Cd 0.25968 0.39745 0.66559 0.0
C257 C 0.24377 0.36203 0.66713 0.0
O258 O 0.28647 0.39094 0.6691 0.0
O259 O 0.27417 0.39147 0.70018 0.0
O260 O 0.25746 0.42523 0.66457 0.0
C261 C 0.28674 0.38944 0.69022 0.0
O262 O 0.25684 0.35662 0.66234 0.0
C263 C 0.24778 0.42587 0.68041 0.0
O264 O 0.24154 0.37635 0.66777 0.0
O265 O 0.24338 0.41332 0.68876 0.0
C266 C 0.58979 0.27041 0.60686 0.0
O267 O 0.60108 0.27909 0.61064 0.0
Cd268 Cd 0.61594 0.2792 0.64411 0.0
O269 O 0.585 0.2613 0.62197 0.0
Cd270 Cd 0.59115 0.25551 0.66202 0.0
C271 C 0.62497 0.24086 0.647 0.0
O272 O 0.59827 0.28103 0.67421 0.0
O273 O 0.60569 0.26271 0.69559 0.0
O274 O 0.5638 0.25526 0.66867 0.0
C275 C 0.60467 0.27693 0.69231 0.0
O276 O 0.62924 0.25465 0.64473 0.0
C277 C 0.56386 0.24342 0.6809 0.0
O278 O 0.61117 0.23766 0.65172 0.0
O279 O 0.57662 0.23691 0.68398 0.0
C280 C 0.71584 0.39691 0.87909 0.0
O281 O 0.70781 0.3851 0.87575 0.0
Cd282 Cd 0.70827 0.3702 0.84235 0.0
O283 O 0.72434 0.4022 0.86358 0.0
Cd284 Cd 0.72982 0.39659 0.82332 0.0
C285 C 0.74707 0.36367 0.83741 0.0
O286 O 0.70479 0.38759 0.81218 0.0
O287 O 0.72303 0.38209 0.78937 0.0
O288 O 0.72546 0.42289 0.81356 0.0
C289 C 0.70886 0.38192 0.79357 0.0
O290 O 0.73365 0.35869 0.84103 0.0
C291 C 0.73845 0.4253 0.80496 0.0
O292 O 0.74928 0.3775 0.83178 0.0
O293 O 0.74786 0.41429 0.80518 0.0
C294 C 0.60033 0.72222 0.87883 0.0
O295 O 0.61201 0.71428 0.87411 0.0
Cd296 Cd 0.62309 0.70944 0.83829 0.0
O297 O 0.59271 0.72891 0.86341 0.0
Cd298 Cd 0.59408 0.73104 0.82153 0.0
C299 C 0.62965 0.74685 0.82374 0.0
O300 O 0.60112 0.70475 0.81641 0.0
O301 O 0.60035 0.71767 0.78591 0.0
O302 O 0.56625 0.73288 0.82216 0.0
C303 C 0.60284 0.705 0.79536 0.0
O304 O 0.63487 0.73363 0.82811 0.0
C305 C 0.56556 0.74289 0.80677 0.0
O306 O 0.61535 0.74914 0.82187 0.0
O307 O 0.57812 0.74774 0.79896 0.0
C308 C 0.27058 0.59445 0.87195 0.0
O309 O 0.27945 0.6055 0.86767 0.0
Cd310 Cd 0.28203 0.61789 0.83236 0.0
O311 O 0.2624 0.58857 0.85646 0.0
Cd312 Cd 0.25906 0.59267 0.81517 0.0
C313 C 0.2444 0.62758 0.82403 0.0
O314 O 0.28556 0.59801 0.80566 0.0
O315 O 0.26904 0.60442 0.78068 0.0
O316 O 0.25755 0.56509 0.81084 0.0
C317 C 0.28294 0.60295 0.78606 0.0
O318 O 0.25813 0.63191 0.82698 0.0
C319 C 0.24637 0.56535 0.79727 0.0
O320 O 0.24129 0.61357 0.82096 0.0
O321 O 0.24076 0.5783 0.7926 0.0
C322 C 0.39774 0.26767 0.87703 0.0
O323 O 0.38642 0.27659 0.87482 0.0
Cd324 Cd 0.37267 0.28184 0.84106 0.0
O325 O 0.40325 0.26061 0.86015 0.0
Cd326 Cd 0.39864 0.25925 0.81881 0.0
C327 C 0.36307 0.24486 0.82726 0.0
O328 O 0.39289 0.28606 0.8155 0.0
O329 O 0.39029 0.27347 0.78487 0.0
O330 O 0.42621 0.25577 0.81719 0.0
C331 C 0.38948 0.28617 0.79487 0.0
O332 O 0.35891 0.25821 0.83298 0.0
C333 C 0.42584 0.24645 0.80088 0.0
O334 O 0.37693 0.24202 0.82246 0.0
O335 O 0.41281 0.24283 0.79323 0.0
C336 C 0.26776 0.39259 0.37418 0.0
O337 O 0.27607 0.38106 0.37014 0.0
Cd338 Cd 0.28103 0.36939 0.3348 0.0
O339 O 0.2611 0.39972 0.35823 0.0
Cd340 Cd 0.25959 0.3974 0.31637 0.0
C341 C 0.24357 0.36214 0.32103 0.0
O342 O 0.28588 0.39038 0.31092 0.0
O343 O 0.27208 0.38857 0.28124 0.0
O344 O 0.25997 0.42502 0.31246 0.0
C345 C 0.28513 0.38729 0.29021 0.0
O346 O 0.2568 0.35709 0.32583 0.0
C347 C 0.2481 0.42572 0.30023 0.0
O348 O 0.24134 0.37633 0.31793 0.0
O349 O 0.24133 0.41325 0.29605 0.0
C350 C 0.59273 0.26969 0.37752 0.0
O351 O 0.60444 0.27792 0.37434 0.0
Cd352 Cd 0.61873 0.2789 0.34041 0.0
O353 O 0.58735 0.26148 0.36171 0.0
Cd354 Cd 0.59285 0.25689 0.32119 0.0
C355 C 0.62678 0.24075 0.33328 0.0
O356 O 0.60017 0.28271 0.31176 0.0
O357 O 0.60562 0.26599 0.28668 0.0
O358 O 0.56562 0.2583 0.31464 0.0
C359 C 0.60535 0.27989 0.29239 0.0
O360 O 0.63149 0.25425 0.33701 0.0
C361 C 0.56471 0.24618 0.30309 0.0
O362 O 0.61284 0.23823 0.32852 0.0
O363 O 0.57696 0.2387 0.30033 0.0
C364 C 0.71891 0.58971 0.37553 0.0
O365 O 0.71053 0.60139 0.37322 0.0
Cd366 Cd 0.71001 0.61718 0.34069 0.0
O367 O 0.72725 0.58508 0.3594 0.0
Cd368 Cd 0.7318 0.59188 0.31938 0.0
C369 C 0.74846 0.62489 0.33462 0.0
O370 O 0.70635 0.60037 0.30974 0.0
O371 O 0.72382 0.6066 0.28609 0.0
O372 O 0.72856 0.56543 0.30921 0.0
C373 C 0.70978 0.60645 0.29114 0.0
O374 O 0.73502 0.62947 0.33913 0.0
C375 C 0.74141 0.56389 0.29976 0.0
O376 O 0.75083 0.61129 0.32806 0.0
O377 O 0.7501 0.57548 0.29953 0.0
C378 C 0.39757 0.71947 0.38112 0.0
O379 O 0.38587 0.71104 0.37929 0.0
Cd380 Cd 0.37105 0.70807 0.3459 0.0
O381 O 0.40266 0.72677 0.3642 0.0
Cd382 Cd 0.3965 0.72921 0.32348 0.0
C383 C 0.3625 0.74564 0.33491 0.0
O384 O 0.38923 0.70285 0.31715 0.0
O385 O 0.38372 0.71834 0.29029 0.0
O386 O 0.42363 0.72827 0.31535 0.0
C387 C 0.38405 0.70475 0.29748 0.0
O388 O 0.35785 0.7324 0.34037 0.0
C389 C 0.42391 0.74044 0.30384 0.0
O390 O 0.37632 0.74783 0.32929 0.0
O391 O 0.41139 0.74754 0.3016 0.0
C392 C 0.26777 0.59647 0.10688 0.0
O393 O 0.27583 0.60797 0.11205 0.0
Cd394 Cd 0.27919 0.6186 0.1485 0.0
O395 O 0.26057 0.58909 0.12198 0.0
Cd396 Cd 0.2577 0.59113 0.16366 0.0
C397 C 0.24156 0.62606 0.15986 0.0
O398 O 0.284 0.59745 0.1724 0.0
O399 O 0.2681 0.60116 0.19927 0.0
O400 O 0.25843 0.56351 0.16734 0.0
C401 C 0.28184 0.60103 0.19273 0.0
O402 O 0.255 0.63118 0.15693 0.0
C403 C 0.24631 0.5625 0.17889 0.0
O404 O 0.23911 0.61179 0.16119 0.0
O405 O 0.23921 0.57482 0.18277 0.0
C406 C 0.39657 0.26456 0.1054 0.0
O407 O 0.38495 0.27307 0.10769 0.0
Cd408 Cd 0.37121 0.27805 0.14153 0.0
O409 O 0.40253 0.25779 0.12224 0.0
Cd410 Cd 0.39863 0.25643 0.16367 0.0
C411 C 0.36332 0.24086 0.15677 0.0
O412 O 0.39148 0.28283 0.16677 0.0
O413 O 0.39075 0.27055 0.1979 0.0
O414 O 0.42629 0.25496 0.16509 0.0
C415 C 0.38866 0.28299 0.18757 0.0
O416 O 0.35868 0.25396 0.15053 0.0
C417 C 0.42676 0.24485 0.18034 0.0
O418 O 0.37731 0.23854 0.16141 0.0
O419 O 0.41409 0.23987 0.18757 0.0
C420 C 0.7179 0.39739 0.10904 0.0
O421 O 0.70983 0.38569 0.113 0.0
Cd422 Cd 0.70975 0.37176 0.14727 0.0
O423 O 0.72651 0.403 0.12424 0.0
Cd424 Cd 0.73214 0.39784 0.16466 0.0
C425 C 0.74825 0.36411 0.15219 0.0
O426 O 0.70656 0.39052 0.17577 0.0
O427 O 0.72427 0.38452 0.19917 0.0
O428 O 0.73158 0.42518 0.17095 0.0
C429 C 0.71014 0.38511 0.19475 0.0
O430 O 0.73469 0.35919 0.14952 0.0
C431 C 0.74385 0.42567 0.18228 0.0
O432 O 0.75073 0.37812 0.15635 0.0
O433 O 0.75089 0.41318 0.18511 0.0
C434 C 0.59322 0.72115 0.11468 0.0
O435 O 0.60418 0.71242 0.12003 0.0
Cd436 Cd 0.61636 0.71145 0.15578 0.0
O437 O 0.58708 0.72979 0.12932 0.0
Cd438 Cd 0.58994 0.73435 0.1705 0.0
C439 C 0.62444 0.7498 0.16168 0.0
O440 O 0.59684 0.70896 0.18301 0.0
O441 O 0.60294 0.72713 0.2055 0.0
O442 O 0.56256 0.73281 0.17555 0.0
C443 C 0.60231 0.71293 0.20182 0.0
O444 O 0.62917 0.73613 0.1598 0.0
C445 C 0.56127 0.74542 0.1858 0.0
O446 O 0.61029 0.75268 0.16403 0.0
O447 O 0.57338 0.75316 0.18855 0.0
H448 H 0.33238 0.24236 0.15209 0.0
H449 H 0.3141 0.22148 0.15382 0.0
H450 H 0.35065 0.18977 0.16654 0.0
H451 H 0.36915 0.21064 0.16471 0.0
H452 H 0.33056 0.17949 0.13422 0.0
H453 H 0.32807 0.19955 0.20867 0.0
H454 H 0.32568 0.21955 0.23754 0.0
H455 H 0.28091 0.2306 0.21321 0.0
H456 H 0.28312 0.21082 0.18396 0.0
H457 H 0.27848 0.11943 0.16147 0.0
H458 H 0.29914 0.13812 0.16323 0.0
H459 H 0.26686 0.17436 0.15179 0.0
H460 H 0.24614 0.15584 0.15016 0.0
H461 H 0.28632 0.18094 0.18604 0.0
H462 H 0.28959 0.16237 0.11 0.0
H463 H 0.29202 0.14279 0.08052 0.0
H464 H 0.33531 0.12913 0.10765 0.0
H465 H 0.33304 0.14851 0.13751 0.0
C466 C 0.33658 0.23096 0.15531 0.0
C467 C 0.35224 0.22818 0.1583 0.0
C468 C 0.32609 0.21905 0.15639 0.0
C469 C 0.33102 0.20412 0.16053 0.0
C470 C 0.34663 0.20124 0.16339 0.0
C471 C 0.35716 0.21318 0.16241 0.0
C472 C 0.31979 0.19154 0.16143 0.0
C473 C 0.32103 0.17963 0.14583 0.0
C474 C 0.30724 0.19193 0.17631 0.0
C475 C 0.30581 0.20377 0.194 0.0
C476 C 0.31776 0.20632 0.20936 0.0
C477 C 0.31643 0.21761 0.22581 0.0
C478 C 0.30317 0.22636 0.22717 0.0
C479 C 0.29118 0.22382 0.21212 0.0
C480 C 0.29246 0.21256 0.19562 0.0
C481 C 0.27577 0.13137 0.15928 0.0
C482 C 0.26064 0.13613 0.15564 0.0
C483 C 0.2876 0.14202 0.16024 0.0
C484 C 0.28452 0.1576 0.15753 0.0
C485 C 0.26946 0.16238 0.15396 0.0
C486 C 0.25764 0.15176 0.15294 0.0
C487 C 0.29694 0.16901 0.15858 0.0
C488 C 0.29593 0.18071 0.17459 0.0
C489 C 0.30968 0.16842 0.14406 0.0
C490 C 0.31106 0.15676 0.12614 0.0
C491 C 0.29956 0.15509 0.10981 0.0
C492 C 0.30093 0.14405 0.093 0.0
C493 C 0.31379 0.13469 0.09226 0.0
C494 C 0.32534 0.13637 0.10828 0.0
C495 C 0.32402 0.14739 0.12514 0.0
H496 H 0.31483 0.12615 0.07923 0.0
H497 H 0.30217 0.2351 0.23991 0.0
H498 H 0.86883 0.27778 0.16414 0.0
H499 H 0.85085 0.29911 0.16325 0.0
H500 H 0.81421 0.2681 0.14743 0.0
H501 H 0.832 0.24681 0.14811 0.0
H502 H 0.81425 0.29267 0.11982 0.0
H503 H 0.81794 0.2829 0.19964 0.0
H504 H 0.83149 0.27988 0.23573 0.0
H505 H 0.84853 0.3256 0.23065 0.0
H506 H 0.83524 0.32882 0.19436 0.0
H507 H 0.74725 0.33368 0.14268 0.0
H508 H 0.76841 0.31568 0.14233 0.0
H509 H 0.79972 0.35191 0.15877 0.0
H510 H 0.77856 0.37006 0.15941 0.0
H511 H 0.80462 0.32694 0.18454 0.0
H512 H 0.79924 0.3376 0.10646 0.0
H513 H 0.78571 0.34083 0.07042 0.0
H514 H 0.77221 0.29383 0.07177 0.0
H515 H 0.78548 0.29036 0.10801 0.0
C516 C 0.85692 0.27549 0.16063 0.0
C517 C 0.85187 0.26058 0.15615 0.0
C518 C 0.84667 0.28769 0.16015 0.0
C519 C 0.8312 0.28517 0.15529 0.0
C520 C 0.82612 0.2703 0.15111 0.0
C521 C 0.83632 0.25813 0.15159 0.0
C522 C 0.82025 0.29797 0.15406 0.0
C523 C 0.81205 0.30009 0.13403 0.0
C524 C 0.81778 0.30796 0.17235 0.0
C525 C 0.82575 0.30603 0.19417 0.0
C526 C 0.82469 0.29226 0.20613 0.0
C527 C 0.8323 0.29052 0.22664 0.0
C528 C 0.8409 0.30252 0.23544 0.0
C529 C 0.84188 0.3163 0.22379 0.0
C530 C 0.83431 0.31809 0.20326 0.0
C531 C 0.75863 0.33788 0.14611 0.0
C532 C 0.7612 0.35333 0.15105 0.0
C533 C 0.77073 0.32757 0.14581 0.0
C534 C 0.78565 0.3325 0.15031 0.0
C535 C 0.78829 0.3479 0.15522 0.0
C536 C 0.77618 0.35825 0.15549 0.0
C537 C 0.79837 0.32139 0.15047 0.0
C538 C 0.80694 0.31963 0.17025 0.0
C539 C 0.80122 0.31174 0.13191 0.0
C540 C 0.79326 0.31375 0.11006 0.0
C541 C 0.79329 0.32797 0.09917 0.0
C542 C 0.78568 0.32984 0.07868 0.0
C543 C 0.77808 0.31755 0.06883 0.0
C544 C 0.7781 0.30334 0.07943 0.0
C545 C 0.78568 0.30142 0.09993 0.0
H546 H 0.77219 0.31902 0.05297 0.0
H547 H 0.84678 0.30115 0.25133 0.0
H548 H 0.61873 0.78049 0.16015 0.0
H549 H 0.6374 0.80122 0.16071 0.0
H550 H 0.67398 0.76847 0.16372 0.0
H551 H 0.65548 0.7477 0.16319 0.0
H552 H 0.67745 0.79162 0.19449 0.0
H553 H 0.66642 0.78572 0.11574 0.0
H554 H 0.64978 0.7843 0.08236 0.0
H555 H 0.63432 0.82996 0.09443 0.0
H556 H 0.6507 0.83156 0.12813 0.0
H557 H 0.74241 0.83286 0.16242 0.0
H558 H 0.72104 0.81517 0.16392 0.0
H559 H 0.68945 0.85277 0.16154 0.0
H560 H 0.71086 0.8707 0.15992 0.0
H561 H 0.6817 0.82908 0.13234 0.0
H562 H 0.6946 0.8354 0.20989 0.0
H563 H 0.71194 0.83654 0.24252 0.0
H564 H 0.72439 0.78978 0.23218 0.0
H565 H 0.70728 0.78842 0.19927 0.0
C566 C 0.63075 0.77769 0.1609 0.0
C567 C 0.63562 0.76243 0.16159 0.0
C568 C 0.64139 0.78955 0.16117 0.0
C569 C 0.65705 0.78635 0.16219 0.0
C570 C 0.66193 0.77116 0.16298 0.0
C571 C 0.65133 0.75931 0.16256 0.0
C572 C 0.66843 0.79879 0.1625 0.0
C573 C 0.67846 0.79975 0.18084 0.0
C574 C 0.66945 0.8096 0.14493 0.0
C575 C 0.65964 0.80869 0.12462 0.0
C576 C 0.65936 0.79541 0.1114 0.0
C577 C 0.65 0.79458 0.0924 0.0
C578 C 0.64096 0.80702 0.08631 0.0
C579 C 0.6413 0.82032 0.09919 0.0
C580 C 0.65063 0.8212 0.11824 0.0
C581 C 0.73094 0.83743 0.16224 0.0
C582 C 0.72835 0.85322 0.16111 0.0
C583 C 0.71873 0.82728 0.16318 0.0
C584 C 0.70369 0.83268 0.16305 0.0
C585 C 0.70101 0.8484 0.16171 0.0
C586 C 0.71324 0.85861 0.16088 0.0
C587 C 0.69086 0.82176 0.16418 0.0
C588 C 0.68056 0.82108 0.14613 0.0
C589 C 0.68961 0.81116 0.18198 0.0
C590 C 0.69973 0.81185 0.202 0.0
C591 C 0.7011 0.82539 0.21449 0.0
C592 C 0.71088 0.82607 0.23304 0.0
C593 C 0.71929 0.81325 0.23939 0.0
C594 C 0.71788 0.7997 0.22724 0.0
C595 C 0.70812 0.79896 0.20865 0.0
H596 H 0.72687 0.81381 0.25374 0.0
H597 H 0.63372 0.80636 0.07159 0.0
H598 H 0.21096 0.61964 0.15959 0.0
H599 H 0.18979 0.63777 0.16163 0.0
H600 H 0.2218 0.67496 0.16594 0.0
H601 H 0.24299 0.657 0.16393 0.0
H602 H 0.19854 0.67745 0.19673 0.0
H603 H 0.2046 0.66774 0.11749 0.0
H604 H 0.20614 0.6517 0.08356 0.0
H605 H 0.16078 0.6352 0.09546 0.0
H606 H 0.15905 0.65099 0.12968 0.0
H607 H 0.15695 0.7424 0.16424 0.0
H608 H 0.1748 0.72113 0.16617 0.0
H609 H 0.1373 0.68938 0.1641 0.0
H610 H 0.11925 0.71066 0.16228 0.0
H611 H 0.16118 0.68212 0.13435 0.0
H612 H 0.15436 0.6938 0.21191 0.0
H613 H 0.15291 0.71025 0.24541 0.0
H614 H 0.19971 0.72326 0.23655 0.0
H615 H 0.20138 0.70706 0.20277 0.0
C616 C 0.21349 0.63167 0.16104 0.0
C617 C 0.22867 0.63688 0.16152 0.0
C618 C 0.20139 0.642 0.16213 0.0
C619 C 0.20425 0.65769 0.16381 0.0
C620 C 0.21936 0.66289 0.16467 0.0
C621 C 0.23145 0.6526 0.16342 0.0
C622 C 0.19156 0.66879 0.16444 0.0
C623 C 0.19043 0.67855 0.18303 0.0
C624 C 0.18075 0.66991 0.14683 0.0
C625 C 0.18177 0.6604 0.1263 0.0
C626 C 0.19501 0.66058 0.113 0.0
C627 C 0.1959 0.65156 0.09368 0.0
C628 C 0.18358 0.6424 0.0874 0.0
C629 C 0.17032 0.64227 0.10038 0.0
C630 C 0.16938 0.65126 0.11973 0.0
C631 C 0.15246 0.73091 0.16424 0.0
C632 C 0.13667 0.72823 0.16314 0.0
C633 C 0.16268 0.71877 0.16543 0.0
C634 C 0.15734 0.70371 0.16545 0.0
C635 C 0.14161 0.70094 0.16416 0.0
C636 C 0.13134 0.71311 0.16321 0.0
C637 C 0.16833 0.69095 0.16646 0.0
C638 C 0.16916 0.68089 0.14819 0.0
C639 C 0.17889 0.68955 0.18435 0.0
C640 C 0.17795 0.6993 0.20468 0.0
C641 C 0.16431 0.70027 0.21698 0.0
C642 C 0.16345 0.70953 0.23605 0.0
C643 C 0.1762 0.71782 0.24307 0.0
C644 C 0.18984 0.71684 0.23107 0.0
C645 C 0.19075 0.7076 0.21198 0.0
H646 H 0.17551 0.72498 0.25784 0.0
H647 H 0.1843 0.63543 0.07243 0.0
H648 H 0.27766 0.86674 0.31755 0.0
H649 H 0.29848 0.8482 0.31892 0.0
H650 H 0.26715 0.81372 0.34195 0.0
H651 H 0.24635 0.8321 0.34085 0.0
H652 H 0.29321 0.81393 0.36653 0.0
H653 H 0.27918 0.81428 0.28796 0.0
H654 H 0.27449 0.82621 0.25107 0.0
H655 H 0.32082 0.84197 0.24908 0.0
H656 H 0.32573 0.8303 0.28613 0.0
H657 H 0.3324 0.7453 0.34683 0.0
H658 H 0.31445 0.76649 0.34632 0.0
H659 H 0.3499 0.79649 0.32263 0.0
H660 H 0.36798 0.77527 0.32283 0.0
H661 H 0.32369 0.80041 0.29927 0.0
H662 H 0.33836 0.79861 0.37642 0.0
H663 H 0.34324 0.78677 0.41332 0.0
H664 H 0.29608 0.7741 0.4183 0.0
H665 H 0.29096 0.78567 0.38127 0.0
C666 C 0.27519 0.8552 0.32286 0.0
C667 C 0.26032 0.85092 0.32907 0.0
C668 C 0.2871 0.84462 0.32358 0.0
C669 C 0.28433 0.82957 0.33043 0.0
C670 C 0.26953 0.82529 0.33666 0.0
C671 C 0.25764 0.83582 0.33593 0.0
C672 C 0.29682 0.81822 0.3313 0.0
C673 C 0.29978 0.81087 0.35178 0.0
C674 C 0.3057 0.81459 0.31221 0.0
C675 C 0.30277 0.82157 0.28992 0.0
C676 C 0.28833 0.8204 0.27974 0.0
C677 C 0.28564 0.82709 0.25879 0.0
C678 C 0.29734 0.83489 0.24777 0.0
C679 C 0.31177 0.83596 0.25765 0.0
C680 C 0.31451 0.8293 0.27862 0.0
C681 C 0.33643 0.75639 0.34156 0.0
C682 C 0.35166 0.75858 0.33493 0.0
C683 C 0.32615 0.76852 0.34137 0.0
C684 C 0.33089 0.7831 0.33469 0.0
C685 C 0.34603 0.78533 0.32791 0.0
C686 C 0.35635 0.77319 0.3281 0.0
C687 C 0.31988 0.7959 0.33441 0.0
C688 C 0.31721 0.80356 0.31407 0.0
C689 C 0.31129 0.79985 0.35365 0.0
C690 C 0.31431 0.7929 0.37597 0.0
C691 C 0.32905 0.79319 0.3853 0.0
C692 C 0.33186 0.78655 0.40626 0.0
C693 C 0.31998 0.77966 0.41813 0.0
C694 C 0.30527 0.77943 0.40908 0.0
C695 C 0.3024 0.78605 0.38812 0.0
H696 H 0.32218 0.77452 0.43435 0.0
H697 H 0.29523 0.84006 0.23154 0.0
H698 H 0.2133 0.36866 0.31421 0.0
H699 H 0.19189 0.35077 0.31414 0.0
H700 H 0.223 0.31352 0.32565 0.0
H701 H 0.24442 0.3312 0.32549 0.0
H702 H 0.20219 0.3064 0.29413 0.0
H703 H 0.20239 0.32868 0.36818 0.0
H704 H 0.20173 0.34985 0.39537 0.0
H705 H 0.15777 0.36337 0.37054 0.0
H706 H 0.1583 0.34242 0.34289 0.0
H707 H 0.1571 0.24768 0.33761 0.0
H708 H 0.17528 0.26854 0.33422 0.0
H709 H 0.13864 0.29958 0.31883 0.0
H710 H 0.12021 0.27869 0.32224 0.0
H711 H 0.16017 0.31152 0.34937 0.0
H712 H 0.15944 0.2876 0.2771 0.0
H713 H 0.16041 0.26602 0.25063 0.0
H714 H 0.20572 0.25523 0.27296 0.0
H715 H 0.20494 0.27662 0.29983 0.0
C716 C 0.2156 0.35665 0.31661 0.0
C717 C 0.23059 0.35138 0.31994 0.0
C718 C 0.20334 0.34646 0.31666 0.0
C719 C 0.20585 0.33084 0.32011 0.0
C720 C 0.22081 0.32553 0.32295 0.0
C721 C 0.23304 0.33568 0.32292 0.0
C722 C 0.19296 0.31994 0.32105 0.0
C723 C 0.19306 0.30748 0.30631 0.0
C724 C 0.18084 0.32156 0.33656 0.0
C725 C 0.18047 0.3341 0.35328 0.0
C726 C 0.19264 0.33624 0.36838 0.0
C727 C 0.19228 0.34819 0.3839 0.0
C728 C 0.17973 0.35797 0.38466 0.0
C729 C 0.1675 0.3558 0.36991 0.0
C730 C 0.16782 0.3439 0.35431 0.0
C731 C 0.15284 0.25893 0.3336 0.0
C732 C 0.13719 0.26148 0.33005 0.0
C733 C 0.16327 0.27084 0.33161 0.0
C734 C 0.15831 0.28553 0.326 0.0
C735 C 0.14267 0.28828 0.32309 0.0
C736 C 0.13219 0.27633 0.32498 0.0
C737 C 0.16961 0.29786 0.32275 0.0
C738 C 0.16921 0.31057 0.33702 0.0
C739 C 0.18151 0.29645 0.30687 0.0
C740 C 0.18208 0.28365 0.2906 0.0
C741 C 0.16957 0.28056 0.27649 0.0
C742 C 0.17009 0.26837 0.26139 0.0
C743 C 0.18311 0.25924 0.26015 0.0
C744 C 0.19564 0.26231 0.27396 0.0
C745 C 0.19517 0.27447 0.2891 0.0
H746 H 0.18349 0.24981 0.24845 0.0
H747 H 0.17948 0.36721 0.3967 0.0
H748 H 0.71373 0.12096 0.3205 0.0
H749 H 0.69243 0.13888 0.32258 0.0
H750 H 0.72377 0.17534 0.33784 0.0
H751 H 0.74507 0.15755 0.33609 0.0
H752 H 0.69942 0.17589 0.36532 0.0
H753 H 0.70842 0.1714 0.28553 0.0
H754 H 0.7112 0.15756 0.2497 0.0
H755 H 0.66555 0.14038 0.25588 0.0
H756 H 0.66257 0.15397 0.29191 0.0
H757 H 0.65733 0.24215 0.34208 0.0
H758 H 0.67561 0.22128 0.34237 0.0
H759 H 0.63961 0.18947 0.3268 0.0
H760 H 0.62117 0.21039 0.32614 0.0
H761 H 0.66436 0.18457 0.30104 0.0
H762 H 0.65459 0.19079 0.37935 0.0
H763 H 0.65176 0.20479 0.41501 0.0
H764 H 0.69867 0.21864 0.41186 0.0
H765 H 0.70173 0.2049 0.376 0.0
C766 C 0.71611 0.1328 0.32425 0.0
C767 C 0.73113 0.13782 0.32809 0.0
C768 C 0.70392 0.14303 0.32538 0.0
C769 C 0.70654 0.15846 0.33022 0.0
C770 C 0.72149 0.16347 0.33412 0.0
C771 C 0.73367 0.15328 0.33302 0.0
C772 C 0.69375 0.16945 0.33139 0.0
C773 C 0.69183 0.17789 0.35121 0.0
C774 C 0.68357 0.1717 0.31321 0.0
C775 C 0.68534 0.16356 0.29153 0.0
C776 C 0.69902 0.16457 0.27934 0.0
C777 C 0.70062 0.15679 0.25898 0.0
C778 C 0.68857 0.14806 0.25055 0.0
C779 C 0.67488 0.14713 0.26244 0.0
C780 C 0.67323 0.15487 0.28283 0.0
C781 C 0.65323 0.23072 0.33882 0.0
C782 C 0.63775 0.22795 0.33413 0.0
C783 C 0.66371 0.21878 0.33909 0.0
C784 C 0.65894 0.20379 0.33489 0.0
C785 C 0.64352 0.20095 0.33016 0.0
C786 C 0.633 0.21292 0.32985 0.0
C787 C 0.67021 0.19122 0.33483 0.0
C788 C 0.67184 0.18247 0.31525 0.0
C789 C 0.68012 0.18867 0.35324 0.0
C790 C 0.67835 0.1969 0.37488 0.0
C791 C 0.66428 0.19691 0.38617 0.0
C792 C 0.66264 0.20479 0.40644 0.0
C793 C 0.67502 0.21263 0.41568 0.0
C794 C 0.68908 0.21257 0.40468 0.0
C795 C 0.69078 0.20472 0.3844 0.0
H796 H 0.67373 0.21872 0.43137 0.0
H797 H 0.68983 0.14205 0.23479 0.0
H798 H 0.74833 0.65308 0.35393 0.0
H799 H 0.7689 0.67176 0.35448 0.0
H800 H 0.79815 0.64032 0.31932 0.0
H801 H 0.77769 0.62134 0.31915 0.0
H802 H 0.81365 0.6554 0.35166 0.0
H803 H 0.78018 0.66882 0.29102 0.0
H804 H 0.75528 0.67447 0.27358 0.0
H805 H 0.74955 0.71275 0.31764 0.0
H806 H 0.77432 0.70721 0.33558 0.0
H807 H 0.8668 0.71336 0.31936 0.0
H808 H 0.84841 0.6924 0.31917 0.0
H809 H 0.81581 0.72074 0.35367 0.0
H810 H 0.83394 0.74177 0.3536 0.0
H811 H 0.80273 0.70637 0.31942 0.0
H812 H 0.83575 0.69236 0.38097 0.0
H813 H 0.86039 0.68641 0.39896 0.0
H814 H 0.86699 0.64922 0.35315 0.0
H815 H 0.84247 0.65508 0.33468 0.0
C816 C 0.75916 0.65007 0.34641 0.0
C817 C 0.76132 0.63577 0.33628 0.0
C818 C 0.77089 0.66079 0.34669 0.0
C819 C 0.78495 0.65754 0.33653 0.0
C820 C 0.78736 0.64308 0.32715 0.0
C821 C 0.77564 0.63227 0.32703 0.0
C822 C 0.7969 0.66945 0.33517 0.0
C823 C 0.81136 0.66648 0.34432 0.0
C824 C 0.79382 0.68397 0.32584 0.0
C825 C 0.77906 0.68753 0.31476 0.0
C826 C 0.77357 0.6784 0.29707 0.0
C827 C 0.75948 0.68158 0.28709 0.0
C828 C 0.75082 0.69394 0.29454 0.0
C829 C 0.75626 0.70318 0.31191 0.0
C830 C 0.77034 0.70003 0.32197 0.0
C831 C 0.85574 0.71511 0.32699 0.0
C832 C 0.85186 0.72926 0.33648 0.0
C833 C 0.84526 0.7031 0.32694 0.0
C834 C 0.83078 0.70497 0.33656 0.0
C835 C 0.82691 0.71905 0.34611 0.0
C836 C 0.83733 0.73106 0.34609 0.0
C837 C 0.81943 0.69244 0.33628 0.0
C838 C 0.80508 0.69528 0.32669 0.0
C839 C 0.82263 0.67782 0.34517 0.0
C840 C 0.83735 0.67426 0.35629 0.0
C841 C 0.84251 0.68299 0.37461 0.0
C842 C 0.85645 0.67962 0.38492 0.0
C843 C 0.86527 0.66747 0.37716 0.0
C844 C 0.86016 0.65864 0.35912 0.0
C845 C 0.84624 0.66197 0.34874 0.0
H846 H 0.87606 0.66488 0.38516 0.0
H847 H 0.7399 0.69636 0.28682 0.0
H848 H 0.71339 0.86887 0.81992 0.0
H849 H 0.69275 0.85013 0.81916 0.0
H850 H 0.72575 0.81378 0.81602 0.0
H851 H 0.74644 0.83238 0.8167 0.0
H852 H 0.70238 0.80987 0.78587 0.0
H853 H 0.70863 0.82146 0.86434 0.0
H854 H 0.7102 0.83827 0.89747 0.0
H855 H 0.66446 0.85371 0.8854 0.0
H856 H 0.6627 0.83715 0.85197 0.0
H857 H 0.66064 0.74544 0.82033 0.0
H858 H 0.67857 0.76657 0.81757 0.0
H859 H 0.64127 0.79853 0.81916 0.0
H860 H 0.62312 0.77738 0.82195 0.0
H861 H 0.6651 0.80619 0.84829 0.0
H862 H 0.65844 0.79281 0.77104 0.0
H863 H 0.65716 0.77543 0.73854 0.0
H864 H 0.70397 0.7629 0.7488 0.0
H865 H 0.70548 0.78004 0.78158 0.0
C866 C 0.71627 0.85689 0.81904 0.0
C867 C 0.73158 0.85212 0.81844 0.0
C868 C 0.70446 0.84621 0.81867 0.0
C869 C 0.70775 0.83058 0.81767 0.0
C870 C 0.72299 0.8258 0.81678 0.0
C871 C 0.73479 0.83645 0.81726 0.0
C872 C 0.69534 0.81916 0.8177 0.0
C873 C 0.6943 0.80898 0.79959 0.0
C874 C 0.68459 0.81828 0.83536 0.0
C875 C 0.6856 0.8282 0.8555 0.0
C876 C 0.69895 0.82854 0.86863 0.0
C877 C 0.69987 0.83801 0.88748 0.0
C878 C 0.68745 0.84709 0.89349 0.0
C879 C 0.67408 0.84669 0.8807 0.0
C880 C 0.67311 0.83726 0.8618 0.0
C881 C 0.6562 0.75694 0.82002 0.0
C882 C 0.64043 0.75972 0.82134 0.0
C883 C 0.66648 0.76901 0.81836 0.0
C884 C 0.66122 0.78409 0.81799 0.0
C885 C 0.64552 0.78695 0.81937 0.0
C886 C 0.63519 0.77486 0.82087 0.0
C887 C 0.67227 0.79679 0.81658 0.0
C888 C 0.67307 0.8072 0.83444 0.0
C889 C 0.68284 0.79785 0.79873 0.0
C890 C 0.68203 0.78762 0.77889 0.0
C891 C 0.66843 0.78626 0.76647 0.0
C892 C 0.66767 0.77647 0.74798 0.0
C893 C 0.68047 0.76804 0.74164 0.0
C894 C 0.69407 0.76943 0.75374 0.0
C895 C 0.69489 0.77919 0.77227 0.0
H896 H 0.67985 0.76046 0.72732 0.0
H897 H 0.68818 0.8544 0.9081 0.0
H898 H 0.12398 0.71325 0.81799 0.0
H899 H 0.14289 0.69277 0.81768 0.0
H900 H 0.17899 0.72585 0.82425 0.0
H901 H 0.16024 0.74638 0.82446 0.0
H902 H 0.18539 0.7044 0.79251 0.0
H903 H 0.16783 0.70576 0.86904 0.0
H904 H 0.14865 0.70518 0.89927 0.0
H905 H 0.13468 0.66043 0.87868 0.0
H906 H 0.15364 0.66083 0.8481 0.0
H907 H 0.24703 0.65853 0.82717 0.0
H908 H 0.22662 0.6774 0.82607 0.0
H909 H 0.19329 0.64155 0.81939 0.0
H910 H 0.21364 0.62251 0.82063 0.0
H911 H 0.18455 0.66337 0.84986 0.0
H912 H 0.20289 0.6616 0.77424 0.0
H913 H 0.22226 0.66216 0.74428 0.0
H914 H 0.23481 0.70766 0.76322 0.0
H915 H 0.21565 0.7073 0.79352 0.0
C916 C 0.13594 0.71618 0.81929 0.0
C917 C 0.14059 0.73146 0.82132 0.0
C918 C 0.14672 0.70446 0.81921 0.0
C919 C 0.16232 0.70781 0.82115 0.0
C920 C 0.167 0.72304 0.82276 0.0
C921 C 0.15625 0.73475 0.82294 0.0
C922 C 0.17382 0.69546 0.82155 0.0
C923 C 0.1853 0.69552 0.80518 0.0
C924 C 0.17344 0.68367 0.83775 0.0
C925 C 0.16203 0.6834 0.85612 0.0
C926 C 0.16057 0.69586 0.87083 0.0
C927 C 0.14976 0.69555 0.88805 0.0
C928 C 0.14042 0.6828 0.89085 0.0
C929 C 0.1419 0.67031 0.87646 0.0
C930 C 0.15269 0.67057 0.85919 0.0
C931 C 0.23537 0.65462 0.82551 0.0
C932 C 0.23198 0.639 0.82387 0.0
C933 C 0.22372 0.66543 0.8248 0.0
C934 C 0.20848 0.66087 0.82238 0.0
C935 C 0.205 0.64529 0.82121 0.0
C936 C 0.21665 0.63445 0.82185 0.0
C937 C 0.19621 0.67241 0.82096 0.0
C938 C 0.18458 0.6722 0.83711 0.0
C939 C 0.19644 0.68407 0.80456 0.0
C940 C 0.20792 0.68437 0.78628 0.0
C941 C 0.20986 0.67168 0.77213 0.0
C942 C 0.22079 0.67197 0.75507 0.0
C943 C 0.22979 0.68492 0.75188 0.0
C944 C 0.22785 0.69763 0.76572 0.0
C945 C 0.21694 0.6974 0.78283 0.0
H946 H 0.23825 0.68512 0.73866 0.0
H947 H 0.13206 0.68258 0.90421 0.0
H948 H 0.36821 0.21418 0.82402 0.0
H949 H 0.34931 0.19373 0.82466 0.0
H950 H 0.31325 0.22697 0.82969 0.0
H951 H 0.33208 0.24744 0.82969 0.0
H952 H 0.30859 0.20467 0.85838 0.0
H953 H 0.32151 0.20779 0.77972 0.0
H954 H 0.33891 0.20778 0.74721 0.0
H955 H 0.35372 0.16258 0.76402 0.0
H956 H 0.33654 0.1624 0.79681 0.0
H957 H 0.24506 0.1589 0.83104 0.0
H958 H 0.26523 0.17803 0.83113 0.0
H959 H 0.29916 0.14256 0.82736 0.0
H960 H 0.27901 0.12331 0.82676 0.0
H961 H 0.30573 0.16507 0.79905 0.0
H962 H 0.29216 0.16152 0.87683 0.0
H963 H 0.27473 0.16142 0.9093 0.0
H964 H 0.26123 0.20732 0.89429 0.0
H965 H 0.27843 0.20762 0.86154 0.0
C966 C 0.35626 0.21714 0.82515 0.0
C967 C 0.35165 0.23245 0.82676 0.0
C968 C 0.34545 0.20544 0.82544 0.0
C969 C 0.32984 0.20882 0.82698 0.0
C970 C 0.32523 0.22409 0.82852 0.0
C971 C 0.33602 0.23578 0.82845 0.0
C972 C 0.31827 0.1965 0.82739 0.0
C973 C 0.30785 0.19612 0.84525 0.0
C974 C 0.31759 0.18507 0.81062 0.0
C975 C 0.32785 0.18514 0.79084 0.0
C976 C 0.32856 0.19789 0.77658 0.0
C977 C 0.33837 0.19792 0.75809 0.0
C978 C 0.34745 0.18521 0.75359 0.0
C979 C 0.3467 0.17243 0.76754 0.0
C980 C 0.33692 0.17235 0.78607 0.0
C981 C 0.2568 0.15514 0.83029 0.0
C982 C 0.26041 0.13956 0.82897 0.0
C983 C 0.26833 0.1661 0.83043 0.0
C984 C 0.28371 0.16171 0.82958 0.0
C985 C 0.28736 0.14619 0.82809 0.0
C986 C 0.27583 0.13521 0.8278 0.0
C987 C 0.29595 0.17337 0.82988 0.0
C988 C 0.30651 0.17359 0.8122 0.0
C989 C 0.29677 0.18465 0.84683 0.0
C990 C 0.28649 0.18454 0.86662 0.0
C991 C 0.2854 0.17155 0.88036 0.0
C992 C 0.27557 0.17147 0.89883 0.0
C993 C 0.26685 0.18434 0.90382 0.0
C994 C 0.26797 0.19735 0.89039 0.0
C995 C 0.27778 0.19749 0.87189 0.0
H996 H 0.25925 0.18425 0.91813 0.0
H997 H 0.35504 0.18525 0.73927 0.0
H998 H 0.86714 0.27896 0.81691 0.0
H999 H 0.84827 0.29936 0.81974 0.0
H1000 H 0.81522 0.26731 0.8451 0.0
H1001 H 0.83387 0.24683 0.84198 0.0
H1002 H 0.80301 0.28479 0.81344 0.0
H1003 H 0.83317 0.29272 0.87983 0.0
H1004 H 0.85695 0.29676 0.90119 0.0
H1005 H 0.86503 0.33836 0.86515 0.0
H1006 H 0.8414 0.33444 0.84332 0.0
H1007 H 0.74681 0.33446 0.85307 0.0
H1008 H 0.76762 0.31608 0.85266 0.0
H1009 H 0.79759 0.34998 0.82443 0.0
H1010 H 0.77682 0.36862 0.82509 0.0
H1011 H 0.81197 0.33238 0.85652 0.0
H1012 H 0.78124 0.32423 0.79053 0.0
H1013 H 0.75726 0.3199 0.76979 0.0
H1014 H 0.75011 0.27822 0.80603 0.0
H1015 H 0.77395 0.28242 0.82723 0.0
C1016 C 0.85587 0.27625 0.82313 0.0
C1017 C 0.85202 0.26125 0.8292 0.0
C1018 C 0.84512 0.28794 0.82483 0.0
C1019 C 0.83039 0.28487 0.83283 0.0
C1020 C 0.82652 0.26992 0.83887 0.0
C1021 C 0.83722 0.25823 0.8371 0.0
C1022 C 0.81881 0.29713 0.8344 0.0
C1023 C 0.80491 0.29511 0.82309 0.0
C1024 C 0.82145 0.31075 0.84654 0.0
C1025 C 0.83559 0.3132 0.85978 0.0
C1026 C 0.84008 0.30267 0.87633 0.0
C1027 C 0.85352 0.30495 0.88855 0.0
C1028 C 0.86252 0.31779 0.88449 0.0
C1029 C 0.85806 0.3284 0.86825 0.0
C1030 C 0.84464 0.32616 0.85596 0.0
C1031 C 0.75784 0.33809 0.84691 0.0
C1032 C 0.7601 0.35298 0.83887 0.0
C1033 C 0.76972 0.32754 0.84666 0.0
C1034 C 0.78406 0.3316 0.83814 0.0
C1035 C 0.78658 0.34662 0.83099 0.0
C1036 C 0.77469 0.35723 0.83133 0.0
C1037 C 0.79614 0.31991 0.83579 0.0
C1038 C 0.81012 0.32206 0.84685 0.0
C1039 C 0.79358 0.30634 0.82351 0.0
C1040 C 0.77932 0.30371 0.81059 0.0
C1041 C 0.77451 0.31419 0.79418 0.0
C1042 C 0.76094 0.31175 0.78233 0.0
C1043 C 0.75215 0.29881 0.78662 0.0
C1044 C 0.75693 0.28825 0.80274 0.0
C1045 C 0.77047 0.29064 0.81466 0.0
H1046 H 0.74165 0.29694 0.77744 0.0
H1047 H 0.87292 0.31953 0.89396 0.0
H1048 H 0.62062 0.21019 0.65301 0.0
H1049 H 0.64006 0.1902 0.65302 0.0
H1050 H 0.67447 0.22351 0.63675 0.0
H1051 H 0.65524 0.24355 0.63694 0.0
H1052 H 0.66018 0.17964 0.62141 0.0
H1053 H 0.7066 0.21537 0.66629 0.0
H1054 H 0.7084 0.23683 0.69294 0.0
H1055 H 0.66451 0.22534 0.71995 0.0
H1056 H 0.66256 0.20369 0.69371 0.0
H1057 H 0.74473 0.15712 0.6449 0.0
H1058 H 0.72428 0.17587 0.64205 0.0
H1059 H 0.69111 0.141 0.6567 0.0
H1060 H 0.71147 0.12208 0.65932 0.0
H1061 H 0.70425 0.18522 0.67323 0.0
H1062 H 0.65792 0.14938 0.62856 0.0
H1063 H 0.65606 0.12793 0.60189 0.0
H1064 H 0.69981 0.13954 0.5745 0.0
H1065 H 0.70183 0.16117 0.60078 0.0
C1066 C 0.63231 0.21325 0.64928 0.0
C1067 C 0.63639 0.2285 0.64519 0.0
C1068 C 0.64338 0.20181 0.64924 0.0
C1069 C 0.65872 0.20543 0.64523 0.0
C1070 C 0.66273 0.22052 0.64027 0.0
C1071 C 0.65169 0.23196 0.64032 0.0
C1072 C 0.67065 0.19355 0.64695 0.0
C1073 C 0.66972 0.18073 0.63294 0.0
C1074 C 0.68321 0.19516 0.66173 0.0
C1075 C 0.68438 0.20801 0.67786 0.0
C1076 C 0.69737 0.21739 0.67798 0.0
C1077 C 0.69841 0.22959 0.69301 0.0
C1078 C 0.68655 0.23248 0.70808 0.0
C1079 C 0.67366 0.22313 0.70822 0.0
C1080 C 0.67257 0.2109 0.69325 0.0
C1081 C 0.73309 0.1534 0.64745 0.0
C1082 C 0.72975 0.13808 0.65231 0.0
C1083 C 0.72142 0.16415 0.64586 0.0
C1084 C 0.70618 0.15981 0.64897 0.0
C1085 C 0.70278 0.14455 0.65391 0.0
C1086 C 0.71445 0.13377 0.65549 0.0
C1087 C 0.69389 0.17134 0.64754 0.0
C1088 C 0.69472 0.1841 0.66168 0.0
C1089 C 0.68126 0.16965 0.6329 0.0
C1090 C 0.68009 0.15679 0.61682 0.0
C1091 C 0.66712 0.14738 0.61679 0.0
C1092 C 0.66604 0.13519 0.60175 0.0
C1093 C 0.67783 0.13235 0.58657 0.0
C1094 C 0.69071 0.14172 0.58633 0.0
C1095 C 0.69183 0.15393 0.60132 0.0
H1096 H 0.67698 0.1229 0.57495 0.0
H1097 H 0.68737 0.24194 0.71968 0.0
H1098 H 0.7757 0.61799 0.66366 0.0
H1099 H 0.79724 0.63575 0.66404 0.0
H1100 H 0.77015 0.66896 0.62849 0.0
H1101 H 0.74864 0.65135 0.62795 0.0
H1102 H 0.79916 0.66675 0.61156 0.0
H1103 H 0.77481 0.67218 0.68373 0.0
H1104 H 0.76473 0.66313 0.72002 0.0
H1105 H 0.80922 0.64703 0.73864 0.0
H1106 H 0.81952 0.6558 0.7023 0.0
H1107 H 0.83536 0.73688 0.63491 0.0
H1108 H 0.81759 0.71554 0.63232 0.0
H1109 H 0.84955 0.68683 0.6676 0.0
H1110 H 0.86747 0.70813 0.67028 0.0
H1111 H 0.82023 0.68472 0.68436 0.0
H1112 H 0.84505 0.68156 0.6133 0.0
H1113 H 0.85498 0.69103 0.57717 0.0
H1114 H 0.80965 0.70309 0.55642 0.0
H1115 H 0.79946 0.6939 0.59258 0.0
C1116 C 0.77435 0.62904 0.65582 0.0
C1117 C 0.76041 0.63328 0.64588 0.0
C1118 C 0.78665 0.63918 0.65611 0.0
C1119 C 0.78523 0.65369 0.64643 0.0
C1120 C 0.77148 0.6578 0.63604 0.0
C1121 C 0.75917 0.64774 0.63585 0.0
C1122 C 0.79789 0.66483 0.64759 0.0
C1123 C 0.8037 0.67077 0.62746 0.0
C1124 C 0.80406 0.66976 0.66835 0.0
C1125 C 0.79789 0.66447 0.69019 0.0
C1126 C 0.78241 0.66658 0.69548 0.0
C1127 C 0.77667 0.66153 0.71607 0.0
C1128 C 0.78632 0.65446 0.73159 0.0
C1129 C 0.80175 0.65247 0.72658 0.0
C1130 C 0.80755 0.65749 0.70599 0.0
C1131 C 0.83866 0.72603 0.64208 0.0
C1132 C 0.85285 0.72421 0.65279 0.0
C1133 C 0.82851 0.71383 0.64048 0.0
C1134 C 0.83233 0.69959 0.6496 0.0
C1135 C 0.84643 0.69773 0.6604 0.0
C1136 C 0.85665 0.7099 0.66186 0.0
C1137 C 0.82135 0.68681 0.64833 0.0
C1138 C 0.81583 0.68057 0.66843 0.0
C1139 C 0.81544 0.68163 0.62755 0.0
C1140 C 0.82151 0.68716 0.60575 0.0
C1141 C 0.83721 0.68635 0.60111 0.0
C1142 C 0.84288 0.69165 0.58061 0.0
C1143 C 0.83296 0.69769 0.56453 0.0
C1144 C 0.81733 0.69842 0.5689 0.0
C1145 C 0.81159 0.69315 0.58939 0.0
H1146 H 0.83737 0.70178 0.54866 0.0
H1147 H 0.78185 0.65057 0.74753 0.0
H1148 H 0.27815 0.87135 0.66308 0.0
H1149 H 0.29968 0.85371 0.6661 0.0
H1150 H 0.26855 0.81568 0.66622 0.0
H1151 H 0.24699 0.83315 0.66311 0.0
H1152 H 0.29133 0.81347 0.69897 0.0
H1153 H 0.28625 0.82407 0.61964 0.0
H1154 H 0.28486 0.84071 0.58632 0.0
H1155 H 0.32962 0.85801 0.60074 0.0
H1156 H 0.33118 0.84162 0.63437 0.0
H1157 H 0.3331 0.74936 0.66477 0.0
H1158 H 0.31543 0.77067 0.66792 0.0
H1159 H 0.35314 0.8022 0.66725 0.0
H1160 H 0.37103 0.78084 0.66415 0.0
H1161 H 0.32951 0.81015 0.63769 0.0
H1162 H 0.33568 0.79722 0.71481 0.0
H1163 H 0.33696 0.78032 0.74784 0.0
H1164 H 0.29026 0.76733 0.73767 0.0
H1165 H 0.28875 0.78399 0.70436 0.0
C1166 C 0.27588 0.85923 0.66385 0.0
C1167 C 0.26086 0.85364 0.66275 0.0
C1168 C 0.28819 0.84919 0.66552 0.0
C1169 C 0.28567 0.83342 0.66627 0.0
C1170 C 0.2707 0.82783 0.66568 0.0
C1171 C 0.25841 0.83783 0.66379 0.0
C1172 C 0.2986 0.82263 0.66718 0.0
C1173 C 0.29965 0.81267 0.68554 0.0
C1174 C 0.30965 0.82194 0.64993 0.0
C1175 C 0.30875 0.83177 0.62968 0.0
C1176 C 0.29574 0.83153 0.61583 0.0
C1177 C 0.29493 0.84089 0.59687 0.0
C1178 C 0.30712 0.85046 0.59146 0.0
C1179 C 0.32017 0.85063 0.60498 0.0
C1180 C 0.32102 0.8413 0.62399 0.0
C1181 C 0.33768 0.76081 0.66539 0.0
C1182 C 0.35348 0.7634 0.66422 0.0
C1183 C 0.32756 0.77297 0.66729 0.0
C1184 C 0.333 0.78798 0.66799 0.0
C1185 C 0.34875 0.79068 0.6668 0.0
C1186 C 0.35893 0.77847 0.66512 0.0
C1187 C 0.32207 0.80077 0.66928 0.0
C1188 C 0.32137 0.81111 0.65133 0.0
C1189 C 0.31132 0.80181 0.68691 0.0
C1190 C 0.31214 0.79178 0.70697 0.0
C1191 C 0.32571 0.79067 0.7195 0.0
C1192 C 0.32648 0.78115 0.7383 0.0
C1193 C 0.31371 0.77274 0.74483 0.0
C1194 C 0.30014 0.77385 0.73259 0.0
C1195 C 0.29932 0.78335 0.71376 0.0
H1196 H 0.31432 0.76538 0.75939 0.0
H1197 H 0.30647 0.8577 0.57677 0.0
H1198 H 0.12288 0.27679 0.66847 0.0
H1199 H 0.14074 0.29807 0.67248 0.0
H1200 H 0.17823 0.26644 0.67684 0.0
H1201 H 0.16053 0.24512 0.67273 0.0
H1202 H 0.17997 0.29025 0.70837 0.0
H1203 H 0.17184 0.28272 0.6289 0.0
H1204 H 0.15636 0.28031 0.59443 0.0
H1205 H 0.13876 0.32544 0.60429 0.0
H1206 H 0.15398 0.32802 0.63903 0.0
H1207 H 0.24519 0.33142 0.67478 0.0
H1208 H 0.22396 0.31368 0.67901 0.0
H1209 H 0.19206 0.35079 0.67248 0.0
H1210 H 0.21328 0.3687 0.66826 0.0
H1211 H 0.18531 0.32638 0.64471 0.0
H1212 H 0.19604 0.33495 0.7221 0.0
H1213 H 0.21208 0.33726 0.75599 0.0
H1214 H 0.22515 0.29031 0.75 0.0
H1215 H 0.20936 0.28777 0.71585 0.0
C1216 C 0.13491 0.27436 0.67048 0.0
C1217 C 0.14031 0.25927 0.67014 0.0
C1218 C 0.14508 0.28652 0.67271 0.0
C1219 C 0.16078 0.28379 0.67482 0.0
C1220 C 0.16614 0.26875 0.67525 0.0
C1221 C 0.15602 0.2566 0.67278 0.0
C1222 C 0.17175 0.29657 0.67555 0.0
C1223 C 0.18121 0.29812 0.69444 0.0
C1224 C 0.17305 0.30702 0.65757 0.0
C1225 C 0.16388 0.30548 0.63672 0.0
C1226 C 0.16455 0.29207 0.62384 0.0
C1227 C 0.15585 0.29069 0.60423 0.0
C1228 C 0.14654 0.3027 0.59721 0.0
C1229 C 0.14595 0.31614 0.60977 0.0
C1230 C 0.15461 0.31757 0.62942 0.0
C1231 C 0.23367 0.33585 0.67441 0.0
C1232 C 0.23092 0.35147 0.67113 0.0
C1233 C 0.22156 0.32571 0.67695 0.0
C1234 C 0.20646 0.33096 0.6762 0.0
C1235 C 0.20364 0.34655 0.67317 0.0
C1236 C 0.21578 0.35675 0.67083 0.0
C1237 C 0.19371 0.31997 0.67742 0.0
C1238 C 0.18391 0.3187 0.65885 0.0
C1239 C 0.19213 0.30978 0.69569 0.0
C1240 C 0.2016 0.31121 0.7163 0.0
C1241 C 0.20243 0.32514 0.7279 0.0
C1242 C 0.21146 0.32649 0.74718 0.0
C1243 C 0.21966 0.31395 0.75512 0.0
C1244 C 0.2188 0.30002 0.74382 0.0
C1245 C 0.20979 0.29862 0.72451 0.0
H1246 H 0.22665 0.31501 0.77004 0.0
H1247 H 0.13983 0.30161 0.58202 0.0
H1248 H 0.20088 0.09486 0.07303 0.0
H1249 H 0.2036 0.08669 0.03417 0.0
H1250 H 0.24688 0.06593 0.04999 0.0
H1251 H 0.24419 0.07407 0.0893 0.0
H1252 H 0.24822 0.08558 0.01372 0.0
H1253 H 0.21887 0.04296 0.03474 0.0
H1254 H 0.19818 0.02871 0.05323 0.0
H1255 H 0.16499 0.05238 0.01322 0.0
H1256 H 0.18545 0.06695 -0.00529 0.0
H1257 H 0.24471 0.07602 0.89379 0.0
H1258 H 0.24707 0.06754 0.93297 0.0
H1259 H 0.20415 0.08902 0.94856 0.0
H1260 H 0.20173 0.09752 0.90976 0.0
H1261 H 0.20745 0.06064 0.96898 0.0
H1262 H 0.23641 0.10775 0.95772 0.0
H1263 H 0.25668 0.12305 0.93995 0.0
H1264 H 0.29034 0.09093 0.96237 0.0
H1265 H 0.27021 0.07534 0.98004 0.0
C1266 C 0.2109 0.08838 0.06837 0.0
C1267 C 0.22237 0.08518 0.08419 0.0
C1268 C 0.21238 0.08361 0.04617 0.0
C1269 C 0.22537 0.07557 0.03926 0.0
C1270 C 0.23672 0.07202 0.05507 0.0
C1271 C 0.23516 0.07666 0.07747 0.0
C1272 C 0.2275 0.07242 0.01504 0.0
C1273 C 0.23959 0.07967 0.00396 0.0
C1274 C 0.21615 0.06484 0.00234 0.0
C1275 C 0.20373 0.05609 0.01335 0.0
C1276 C 0.20715 0.0452 0.02997 0.0
C1277 C 0.19546 0.03706 0.04045 0.0
C1278 C 0.18028 0.03964 0.03441 0.0
C1279 C 0.17676 0.05037 0.01786 0.0
C1280 C 0.18841 0.05856 0.00733 0.0
C1281 C 0.2357 0.07875 0.90553 0.0
C1282 C 0.22311 0.08757 0.89876 0.0
C1283 C 0.23707 0.07391 0.92786 0.0
C1284 C 0.2258 0.07771 0.94361 0.0
C1285 C 0.21293 0.08592 0.93662 0.0
C1286 C 0.21163 0.09087 0.91447 0.0
C1287 C 0.22775 0.07439 0.96782 0.0
C1288 C 0.21641 0.06597 0.97882 0.0
C1289 C 0.23975 0.08092 0.98047 0.0
C1290 C 0.25182 0.09029 0.9699 0.0
C1291 C 0.24813 0.10389 0.95868 0.0
C1292 C 0.25958 0.11263 0.94866 0.0
C1293 C 0.27478 0.10793 0.94996 0.0
C1294 C 0.27856 0.09452 0.96133 0.0
C1295 C 0.26713 0.08574 0.97134 0.0
H1296 H 0.28364 0.11471 0.9422 0.0
H1297 H 0.17125 0.03332 0.04255 0.0
H1298 H 0.89337 0.20532 0.90818 0.0
H1299 H 0.90015 0.21091 0.94699 0.0
H1300 H 0.92446 0.25106 0.92577 0.0
H1301 H 0.91759 0.24564 0.8865 0.0
H1302 H 0.93487 0.22402 0.96833 0.0
H1303 H 0.90261 0.26693 0.94374 0.0
H1304 H 0.88173 0.27728 0.92043 0.0
H1305 H 0.85067 0.24479 0.94887 0.0
H1306 H 0.87143 0.23413 0.97212 0.0
H1307 H 0.91886 0.24004 0.08715 0.0
H1308 H 0.9261 0.24499 0.04791 0.0
H1309 H 0.88682 0.2197 0.0252 0.0
H1310 H 0.87956 0.21471 0.06384 0.0
H1311 H 0.88975 0.24777 0.00431 0.0
H1312 H 0.92107 0.20356 0.02494 0.0
H1313 H 0.94111 0.19079 0.04717 0.0
H1314 H 0.97367 0.22441 0.02615 0.0
H1315 H 0.95375 0.23747 0.004 0.0
C1316 C 0.90039 0.2152 0.9116 0.0
C1317 C 0.90474 0.22517 0.89428 0.0
C1318 C 0.90434 0.21831 0.93378 0.0
C1319 C 0.91272 0.2314 0.9391 0.0
C1320 C 0.91801 0.24088 0.92185 0.0
C1321 C 0.91404 0.23778 0.89949 0.0
C1322 C 0.91372 0.23591 0.9629 0.0
C1323 C 0.92535 0.22975 0.9763 0.0
C1324 C 0.90115 0.24314 0.97311 0.0
C1325 C 0.88858 0.24969 0.95953 0.0
C1326 C 0.89134 0.26194 0.9449 0.0
C1327 C 0.87953 0.26787 0.93172 0.0
C1328 C 0.86489 0.26168 0.93314 0.0
C1329 C 0.86201 0.24957 0.94779 0.0
C1330 C 0.87379 0.2436 0.96099 0.0
C1331 C 0.91181 0.23552 0.07376 0.0
C1332 C 0.89861 0.227 0.07864 0.0
C1333 C 0.91597 0.23836 0.05141 0.0
C1334 C 0.90693 0.23278 0.03374 0.0
C1335 C 0.89387 0.22422 0.03863 0.0
C1336 C 0.88978 0.22131 0.06078 0.0
C1337 C 0.91076 0.2356 0.00993 0.0
C1338 C 0.89981 0.2429 -0.00348 0.0
C1339 C 0.92399 0.22947 -0.00019 0.0
C1340 C 0.9359 0.2216 0.0131 0.0
C1341 C 0.93247 0.2083 0.02524 0.0
C1342 C 0.94381 0.20099 0.03778 0.0
C1343 C 0.95864 0.20682 0.03815 0.0
C1344 C 0.96217 0.21993 0.02591 0.0
C1345 C 0.95087 0.22729 0.01336 0.0
H1346 H 0.9674 0.20114 0.04786 0.0
H1347 H 0.85576 0.26628 0.92291 0.0
H1348 H 0.78963 0.88245 0.90341 0.0
H1349 H 0.78648 0.88648 0.94357 0.0
H1350 H 0.74915 0.91725 0.93086 0.0
H1351 H 0.75222 0.91332 0.89024 0.0
H1352 H 0.77025 0.92619 0.96746 0.0
H1353 H 0.73862 0.88472 0.94426 0.0
H1354 H 0.73258 0.86103 0.92383 0.0
H1355 H 0.76739 0.83735 0.9607 0.0
H1356 H 0.77379 0.86095 0.98113 0.0
H1357 H 0.75165 0.91294 0.08591 0.0
H1358 H 0.74949 0.91731 0.04524 0.0
H1359 H 0.78415 0.88342 0.03346 0.0
H1360 H 0.78634 0.87894 0.0736 0.0
H1361 H 0.75835 0.8785 0.00865 0.0
H1362 H 0.79194 0.92071 0.02808 0.0
H1363 H 0.79852 0.94446 0.04799 0.0
H1364 H 0.75982 0.96677 0.01837 0.0
H1365 H 0.75291 0.94306 -0.00149 0.0
C1366 C 0.78084 0.89023 0.90902 0.0
C1367 C 0.77102 0.89739 0.89361 0.0
C1368 C 0.77909 0.89253 0.932 0.0
C1369 C 0.76746 0.90199 0.94009 0.0
C1370 C 0.75817 0.90988 0.92484 0.0
C1371 C 0.75991 0.90758 0.9017 0.0
C1372 C 0.76448 0.90243 0.96449 0.0
C1373 C 0.76731 0.91588 0.97652 0.0
C1374 C 0.76068 0.88894 0.97617 0.0
C1375 C 0.75674 0.87464 0.96415 0.0
C1376 C 0.74505 0.87448 0.94791 0.0
C1377 C 0.74156 0.86106 0.93634 0.0
C1378 C 0.74962 0.8477 0.94094 0.0
C1379 C 0.76116 0.84771 0.95716 0.0
C1380 C 0.76471 0.8611 0.96877 0.0
C1381 C 0.7589 0.90655 0.07463 0.0
C1382 C 0.76906 0.89549 0.083 0.0
C1383 C 0.75767 0.90908 0.05145 0.0
C1384 C 0.76661 0.90062 0.0364 0.0
C1385 C 0.77706 0.88997 0.0448 0.0
C1386 C 0.77829 0.88744 0.0678 0.0
C1387 C 0.76479 0.90209 0.01178 0.0
C1388 C 0.76095 0.88894 -0.00034 0.0
C1389 C 0.76762 0.91585 0.00014 0.0
C1390 C 0.7718 0.93007 0.01206 0.0
C1391 C 0.78476 0.93064 0.02599 0.0
C1392 C 0.78857 0.9441 0.03722 0.0
C1393 C 0.77956 0.9571 0.03451 0.0
C1394 C 0.76676 0.95668 0.0205 0.0
C1395 C 0.7629 0.94324 0.00924 0.0
H1396 H 0.78253 0.96752 0.04322 0.0
H1397 H 0.7469 0.83732 0.93196 0.0
H1398 H 0.08204 0.74472 0.8941 0.0
H1399 H 0.07695 0.74165 0.9345 0.0
H1400 H 0.096 0.78618 0.94697 0.0
H1401 H 0.10134 0.78916 0.90714 0.0
H1402 H 0.1096 0.76445 0.97169 0.0
H1403 H 0.05774 0.77892 0.95139 0.0
H1404 H 0.03336 0.77561 0.93124 0.0
H1405 H 0.02758 0.73159 0.96147 0.0
H1406 H 0.05203 0.73456 0.98159 0.0
H1407 H 0.09701 0.78921 0.07803 0.0
H1408 H 0.09238 0.78641 0.03787 0.0
H1409 H 0.07656 0.74045 0.04841 0.0
H1410 H 0.08082 0.74334 0.0891 0.0
H1411 H 0.06089 0.75681 0.01247 0.0
H1412 H 0.11161 0.7435 0.0354 0.0
H1413 H 0.13577 0.74714 0.056 0.0
H1414 H 0.1438 0.78881 0.02015 0.0
H1415 H 0.11957 0.78554 -0.00041 0.0
C1416 C 0.0849 0.75392 0.90548 0.0
C1417 C 0.09231 0.76707 0.89757 0.0
C1418 C 0.08195 0.75217 0.9285 0.0
C1419 C 0.08621 0.76365 0.9437 0.0
C1420 C 0.09277 0.77711 0.93554 0.0
C1421 C 0.09584 0.77879 0.91277 0.0
C1422 C 0.08532 0.7614 0.96831 0.0
C1423 C 0.09892 0.76283 0.98056 0.0
C1424 C 0.07149 0.75862 0.97983 0.0
C1425 C 0.0568 0.75688 0.96777 0.0
C1426 C 0.05134 0.76848 0.95358 0.0
C1427 C 0.03749 0.76668 0.9422 0.0
C1428 C 0.02895 0.75338 0.94501 0.0
C1429 C 0.03422 0.74187 0.95927 0.0
C1430 C 0.04806 0.74361 0.97067 0.0
C1431 C 0.09226 0.7786 0.07189 0.0
C1432 C 0.08953 0.76639 0.08656 0.0
C1433 C 0.08957 0.77704 0.04897 0.0
C1434 C 0.08443 0.76313 0.04019 0.0
C1435 C 0.08058 0.75125 0.05492 0.0
C1436 C 0.08306 0.7529 0.07808 0.0
C1437 C 0.08505 0.76069 0.01563 0.0
C1438 C 0.07154 0.7582 0.00348 0.0
C1439 C 0.09899 0.76245 0.00402 0.0
C1440 C 0.11374 0.7643 0.01603 0.0
C1441 C 0.1185 0.75347 0.03199 0.0
C1442 C 0.1322 0.75548 0.04366 0.0
C1443 C 0.14131 0.76821 0.0394 0.0
C1444 C 0.13674 0.77895 0.02343 0.0
C1445 C 0.12303 0.77702 0.01174 0.0
H1446 H 0.15191 0.76974 0.04847 0.0
H1447 H 0.01823 0.75201 0.93619 0.0
H1448 H 0.20337 0.89322 0.41188 0.0
H1449 H 0.20671 0.90215 0.45021 0.0
H1450 H 0.24929 0.92339 0.43197 0.0
H1451 H 0.24597 0.91443 0.39309 0.0
H1452 H 0.25166 0.9048 0.4694 0.0
H1453 H 0.2213 0.94633 0.4475 0.0
H1454 H 0.20031 0.95998 0.42867 0.0
H1455 H 0.16767 0.93615 0.46927 0.0
H1456 H 0.18843 0.92217 0.48812 0.0
H1457 H 0.24553 0.91424 0.59023 0.0
H1458 H 0.2487 0.92302 0.55128 0.0
H1459 H 0.20792 0.89879 0.53212 0.0
H1460 H 0.20478 0.88986 0.57059 0.0
H1461 H 0.2102 0.92871 0.51368 0.0
H1462 H 0.24073 0.88214 0.52465 0.0
H1463 H 0.26146 0.86774 0.54297 0.0
H1464 H 0.29379 0.90172 0.52241 0.0
H1465 H 0.27317 0.91641 0.5042 0.0
C1466 C 0.21338 0.89994 0.41587 0.0
C1467 C 0.22445 0.90305 0.39949 0.0
C1468 C 0.21521 0.90516 0.43778 0.0
C1469 C 0.22816 0.91359 0.44386 0.0
C1470 C 0.23915 0.91701 0.42751 0.0
C1471 C 0.23723 0.9119 0.40537 0.0
C1472 C 0.23056 0.91734 0.46785 0.0
C1473 C 0.24288 0.91052 0.47906 0.0
C1474 C 0.21909 0.92477 0.48042 0.0
C1475 C 0.20647 0.93319 0.46924 0.0
C1476 C 0.20965 0.94393 0.45235 0.0
C1477 C 0.19778 0.95174 0.44167 0.0
C1478 C 0.18267 0.94894 0.44778 0.0
C1479 C 0.17939 0.93833 0.46459 0.0
C1480 C 0.19121 0.93049 0.47531 0.0
C1481 C 0.23719 0.91092 0.57771 0.0
C1482 C 0.22498 0.90126 0.58338 0.0
C1483 C 0.23901 0.91595 0.55554 0.0
C1484 C 0.22851 0.91156 0.53893 0.0
C1485 C 0.21607 0.90237 0.54477 0.0
C1486 C 0.21438 0.89717 0.56672 0.0
C1487 C 0.23078 0.91543 0.51502 0.0
C1488 C 0.21932 0.92366 0.50393 0.0
C1489 C 0.24305 0.90933 0.50255 0.0
C1490 C 0.25541 0.90046 0.51336 0.0
C1491 C 0.25224 0.88659 0.52421 0.0
C1492 C 0.26397 0.87837 0.53453 0.0
C1493 C 0.27893 0.88384 0.53393 0.0
C1494 C 0.28219 0.89752 0.52292 0.0
C1495 C 0.27049 0.9058 0.5126 0.0
H1496 H 0.28799 0.87746 0.54194 0.0
H1497 H 0.1735 0.95499 0.43949 0.0
H1498 H 0.07051 0.23263 0.59472 0.0
H1499 H 0.06173 0.23606 0.55576 0.0
H1500 H 0.10773 0.22944 0.53219 0.0
H1501 H 0.11649 0.22582 0.57069 0.0
H1502 H 0.09226 0.25372 0.5107 0.0
H1503 H 0.08489 0.20017 0.53278 0.0
H1504 H 0.0733 0.18008 0.55617 0.0
H1505 H 0.02859 0.19556 0.53752 0.0
H1506 H 0.03995 0.21588 0.51422 0.0
H1507 H 0.09591 0.202 0.41399 0.0
H1508 H 0.08844 0.20623 0.45285 0.0
H1509 H 0.0668 0.24849 0.43406 0.0
H1510 H 0.0743 0.2443 0.3948 0.0
H1511 H 0.06217 0.21148 0.47736 0.0
H1512 H 0.07792 0.27389 0.47572 0.0
H1513 H 0.09164 0.29257 0.45218 0.0
H1514 H 0.12219 0.2575 0.42985 0.0
H1515 H 0.10875 0.2387 0.45345 0.0
C1516 C 0.07874 0.23208 0.5812 0.0
C1517 C 0.09417 0.22884 0.58569 0.0
C1518 C 0.07371 0.23405 0.55903 0.0
C1519 C 0.08411 0.23303 0.54119 0.0
C1520 C 0.09956 0.23036 0.54576 0.0
C1521 C 0.10453 0.22818 0.56776 0.0
C1522 C 0.07907 0.23355 0.5175 0.0
C1523 C 0.08533 0.24473 0.50344 0.0
C1524 C 0.07003 0.22183 0.50808 0.0
C1525 C 0.06325 0.20964 0.52205 0.0
C1526 C 0.07259 0.19937 0.53384 0.0
C1527 C 0.06607 0.18793 0.54704 0.0
C1528 C 0.05022 0.18658 0.5484 0.0
C1529 C 0.04086 0.19665 0.5365 0.0
C1530 C 0.04733 0.20812 0.5233 0.0
C1531 C 0.08932 0.21207 0.418 0.0
C1532 C 0.0859 0.22295 0.40142 0.0
C1533 C 0.08492 0.2144 0.4402 0.0
C1534 C 0.07716 0.22771 0.44634 0.0
C1535 C 0.07282 0.23815 0.42962 0.0
C1536 C 0.07713 0.23575 0.40725 0.0
C1537 C 0.07578 0.23137 0.47051 0.0
C1538 C 0.06838 0.22096 0.48467 0.0
C1539 C 0.08391 0.24371 0.48005 0.0
C1540 C 0.09222 0.25491 0.46608 0.0
C1541 C 0.08758 0.27021 0.46579 0.0
C1542 C 0.09531 0.2808 0.45246 0.0
C1543 C 0.10774 0.27621 0.43946 0.0
C1544 C 0.11253 0.26103 0.43986 0.0
C1545 C 0.10486 0.25041 0.4532 0.0
H1546 H 0.11369 0.28442 0.42913 0.0
H1547 H 0.04519 0.17771 0.55862 0.0
H1548 H 0.79191 0.09486 0.57842 0.0
H1549 H 0.78947 0.08955 0.53842 0.0
H1550 H 0.7441 0.07207 0.54892 0.0
H1551 H 0.74651 0.07722 0.5894 0.0
H1552 H 0.76279 0.05651 0.51323 0.0
H1553 H 0.744 0.10569 0.53495 0.0
H1554 H 0.74497 0.13007 0.55549 0.0
H1555 H 0.78636 0.142 0.5213 0.0
H1556 H 0.78577 0.11758 0.50082 0.0
H1557 H 0.74899 0.07703 0.39464 0.0
H1558 H 0.74633 0.07141 0.43494 0.0
H1559 H 0.78939 0.09353 0.44786 0.0
H1560 H 0.79203 0.09929 0.4081 0.0
H1561 H 0.76593 0.10559 0.4721 0.0
H1562 H 0.78564 0.05551 0.45259 0.0
H1563 H 0.78501 0.0309 0.43265 0.0
H1564 H 0.74153 0.02069 0.46212 0.0
H1565 H 0.74182 0.04536 0.48201 0.0
C1566 C 0.78151 0.08961 0.57236 0.0
C1567 C 0.76929 0.08672 0.58696 0.0
C1568 C 0.78017 0.0865 0.54951 0.0
C1569 C 0.76653 0.08064 0.54077 0.0
C1570 C 0.75471 0.0766 0.55544 0.0
C1571 C 0.75609 0.0796 0.57849 0.0
C1572 C 0.76416 0.08092 0.51619 0.0
C1573 C 0.76317 0.06722 0.50415 0.0
C1574 C 0.76464 0.09492 0.50449 0.0
C1575 C 0.76488 0.10976 0.51645 0.0
C1576 C 0.75336 0.11348 0.53191 0.0
C1577 C 0.75383 0.1273 0.54354 0.0
C1578 C 0.76573 0.13757 0.53973 0.0
C1579 C 0.77715 0.13404 0.52424 0.0
C1580 C 0.77674 0.12021 0.51259 0.0
C1581 C 0.758 0.08042 0.40607 0.0
C1582 C 0.7706 0.08882 0.3983 0.0
C1583 C 0.75647 0.07718 0.42904 0.0
C1584 C 0.76761 0.08218 0.44435 0.0
C1585 C 0.7806 0.08971 0.43633 0.0
C1586 C 0.78208 0.09301 0.41359 0.0
C1587 C 0.7653 0.08115 0.46892 0.0
C1588 C 0.76527 0.09484 0.48105 0.0
C1589 C 0.7638 0.06716 0.48051 0.0
C1590 C 0.76366 0.05236 0.46855 0.0
C1591 C 0.77587 0.04809 0.45464 0.0
C1592 C 0.7756 0.03411 0.44339 0.0
C1593 C 0.76321 0.02426 0.44605 0.0
C1594 C 0.7511 0.02835 0.46003 0.0
C1595 C 0.75132 0.04232 0.4713 0.0
H1596 H 0.76302 0.01344 0.43733 0.0
H1597 H 0.76608 0.14826 0.54875 0.0
H1598 H 0.9099 0.74038 0.58996 0.0
H1599 H 0.9168 0.73937 0.54995 0.0
H1600 H 0.91149 0.78814 0.54542 0.0
H1601 H 0.9041 0.78908 0.58486 0.0
H1602 H 0.89306 0.77373 0.51741 0.0
H1603 H 0.94629 0.7702 0.53805 0.0
H1604 H 0.96849 0.75885 0.55723 0.0
H1605 H 0.96122 0.7168 0.52195 0.0
H1606 H 0.93884 0.72784 0.50278 0.0
H1607 H 0.9064 0.79139 0.40859 0.0
H1608 H 0.91395 0.78912 0.44796 0.0
H1609 H 0.91538 0.74021 0.44141 0.0
H1610 H 0.90847 0.74252 0.40146 0.0
H1611 H 0.93631 0.75187 0.47453 0.0
H1612 H 0.88303 0.75469 0.45528 0.0
H1613 H 0.86066 0.76553 0.43585 0.0
H1614 H 0.86764 0.80818 0.46965 0.0
H1615 H 0.89021 0.79766 0.48901 0.0
C1616 C 0.91065 0.75089 0.58049 0.0
C1617 C 0.90627 0.76478 0.59025 0.0
C1618 C 0.91463 0.75031 0.5577 0.0
C1619 C 0.91454 0.76368 0.54469 0.0
C1620 C 0.9115 0.77768 0.5551 0.0
C1621 C 0.90727 0.77821 0.5776 0.0
C1622 C 0.91514 0.76306 0.51983 0.0
C1623 C 0.90266 0.76914 0.50812 0.0
C1624 C 0.92731 0.75642 0.50768 0.0
C1625 C 0.94079 0.7498 0.51916 0.0
C1626 C 0.94933 0.75849 0.53453 0.0
C1627 C 0.96197 0.75212 0.54537 0.0
C1628 C 0.96624 0.7371 0.54086 0.0
C1629 C 0.95789 0.72843 0.52545 0.0
C1630 C 0.94524 0.73474 0.51458 0.0
C1631 C 0.90884 0.7802 0.41537 0.0
C1632 C 0.90667 0.76711 0.40226 0.0
C1633 C 0.91319 0.7789 0.4378 0.0
C1634 C 0.91488 0.76448 0.44766 0.0
C1635 C 0.9141 0.75143 0.43408 0.0
C1636 C 0.9101 0.75275 0.41135 0.0
C1637 C 0.91456 0.76316 0.47244 0.0
C1638 C 0.92684 0.75651 0.484 0.0
C1639 C 0.90214 0.76916 0.4847 0.0
C1640 C 0.88836 0.77542 0.47345 0.0
C1641 C 0.87983 0.7664 0.45847 0.0
C1642 C 0.86712 0.77249 0.44748 0.0
C1643 C 0.86275 0.78754 0.45148 0.0
C1644 C 0.87105 0.79653 0.46655 0.0
C1645 C 0.88379 0.7905 0.47755 0.0
H1646 H 0.85291 0.79224 0.44294 0.0
H1647 H 0.97602 0.73219 0.54927 0.0
H1648 H 0.69858 0.59128 0.56714 0.0
H1649 H 0.7006 0.58084 0.52947 0.0
H1650 H 0.74187 0.55727 0.54822 0.0
H1651 H 0.73989 0.56779 0.58641 0.0
H1652 H 0.74535 0.57461 0.51051 0.0
H1653 H 0.7117 0.53602 0.53333 0.0
H1654 H 0.68966 0.52437 0.55238 0.0
H1655 H 0.65907 0.55019 0.51083 0.0
H1656 H 0.68089 0.56219 0.49174 0.0
H1657 H 0.73975 0.56871 0.39072 0.0
H1658 H 0.74162 0.55808 0.42878 0.0
H1659 H 0.70092 0.58243 0.44775 0.0
H1660 H 0.69893 0.59297 0.41007 0.0
H1661 H 0.702 0.55376 0.46654 0.0
H1662 H 0.73594 0.59806 0.45592 0.0
H1663 H 0.75764 0.61103 0.43778 0.0
H1664 H 0.78735 0.57447 0.45732 0.0
H1665 H 0.76576 0.56121 0.47536 0.0
C1666 C 0.70798 0.5837 0.56342 0.0
C1667 C 0.71914 0.58046 0.57968 0.0
C1668 C 0.70904 0.5776 0.54191 0.0
C1669 C 0.72129 0.56812 0.53611 0.0
C1670 C 0.73226 0.56445 0.55246 0.0
C1671 C 0.73111 0.57046 0.5742 0.0
C1672 C 0.72331 0.56383 0.51224 0.0
C1673 C 0.73612 0.56952 0.50094 0.0
C1674 C 0.71124 0.55724 0.49976 0.0
C1675 C 0.69799 0.55001 0.51107 0.0
C1676 C 0.70028 0.53928 0.52831 0.0
C1677 C 0.68782 0.53261 0.53912 0.0
C1678 C 0.67298 0.53653 0.53281 0.0
C1679 C 0.67057 0.54714 0.51566 0.0
C1680 C 0.68299 0.55385 0.5048 0.0
C1681 C 0.73107 0.57158 0.40293 0.0
C1682 C 0.7193 0.58184 0.39749 0.0
C1683 C 0.73216 0.56549 0.42462 0.0
C1684 C 0.72146 0.56955 0.44109 0.0
C1685 C 0.70927 0.57911 0.43528 0.0
C1686 C 0.70823 0.58524 0.41375 0.0
C1687 C 0.72356 0.5654 0.465 0.0
C1688 C 0.71153 0.55814 0.47622 0.0
C1689 C 0.7363 0.57058 0.47745 0.0
C1690 C 0.74924 0.57857 0.46669 0.0
C1691 C 0.74709 0.59275 0.4562 0.0
C1692 C 0.75936 0.60016 0.44596 0.0
C1693 C 0.77385 0.59355 0.44632 0.0
C1694 C 0.77611 0.57955 0.45699 0.0
C1695 C 0.76387 0.57208 0.46722 0.0
H1696 H 0.78334 0.59931 0.4384 0.0
H1697 H 0.66334 0.53136 0.54121 0.0
H1698 H 0.41883 0.74067 0.39425 0.0
H1699 H 0.42867 0.74493 0.43236 0.0
H1700 H 0.40243 0.70666 0.45624 0.0
H1701 H 0.3927 0.70228 0.41851 0.0
H1702 H 0.41156 0.75251 0.46776 0.0
H1703 H 0.41853 0.68971 0.49924 0.0
H1704 H 0.42867 0.66543 0.48488 0.0
H1705 H 0.45728 0.68965 0.43859 0.0
H1706 H 0.4475 0.71411 0.45288 0.0
H1707 H 0.38014 0.73204 0.56923 0.0
H1708 H 0.38983 0.73471 0.53108 0.0
H1709 H 0.436 0.7337 0.55611 0.0
H1710 H 0.42629 0.73136 0.5948 0.0
H1711 H 0.42878 0.71216 0.52038 0.0
H1712 H 0.42754 0.76489 0.53423 0.0
H1713 H 0.4174 0.78918 0.54861 0.0
H1714 H 0.37892 0.78551 0.50422 0.0
H1715 H 0.38868 0.76108 0.48981 0.0
C1716 C 0.4154 0.733 0.40756 0.0
C1717 C 0.40489 0.72121 0.4034 0.0
C1718 C 0.42103 0.73545 0.4293 0.0
C1719 C 0.41643 0.72601 0.44708 0.0
C1720 C 0.4064 0.7139 0.44272 0.0
C1721 C 0.40072 0.71151 0.42113 0.0
C1722 C 0.42038 0.7297 0.47068 0.0
C1723 C 0.41564 0.74381 0.47923 0.0
C1724 C 0.42611 0.71849 0.48556 0.0
C1725 C 0.43225 0.70378 0.47716 0.0
C1726 C 0.42709 0.68989 0.48614 0.0
C1727 C 0.43274 0.67608 0.47797 0.0
C1728 C 0.4436 0.676 0.46082 0.0
C1729 C 0.44885 0.68973 0.45184 0.0
C1730 C 0.44324 0.70357 0.45996 0.0
C1731 C 0.39236 0.73257 0.56669 0.0
C1732 C 0.40248 0.73143 0.58492 0.0
C1733 C 0.39788 0.73418 0.54491 0.0
C1734 C 0.41361 0.7345 0.54086 0.0
C1735 C 0.42382 0.73358 0.55901 0.0
C1736 C 0.41827 0.73227 0.581 0.0
C1737 C 0.41896 0.73451 0.51734 0.0
C1738 C 0.42534 0.72107 0.50882 0.0
C1739 C 0.41483 0.74636 0.50247 0.0
C1740 C 0.40887 0.76112 0.51094 0.0
C1741 C 0.41687 0.76921 0.52762 0.0
C1742 C 0.41119 0.78302 0.53577 0.0
C1743 C 0.39753 0.78888 0.52733 0.0
C1744 C 0.38952 0.78096 0.51071 0.0
C1745 C 0.39514 0.76714 0.50251 0.0
H1746 H 0.39315 0.79957 0.53367 0.0
H1747 H 0.44796 0.66529 0.45451 0.0
H1748 H 0.27903 0.37863 0.41145 0.0
H1749 H 0.27322 0.38407 0.4505 0.0
H1750 H 0.24499 0.42189 0.43045 0.0
H1751 H 0.25063 0.41644 0.39073 0.0
H1752 H 0.26802 0.42541 0.47102 0.0
H1753 H 0.22489 0.39714 0.44467 0.0
H1754 H 0.212 0.37684 0.42315 0.0
H1755 H 0.23571 0.34285 0.46153 0.0
H1756 H 0.24893 0.36292 0.48303 0.0
H1757 H 0.25157 0.41585 0.5906 0.0
H1758 H 0.24687 0.42169 0.55077 0.0
H1759 H 0.2673 0.37888 0.532 0.0
H1760 H 0.27199 0.37297 0.57128 0.0
H1761 H 0.24014 0.38405 0.51023 0.0
H1762 H 0.28724 0.41146 0.52875 0.0
H1763 H 0.30205 0.43083 0.54945 0.0
H1764 H 0.27187 0.46581 0.52562 0.0
H1765 H 0.25678 0.44659 0.50499 0.0
C1766 C 0.27168 0.38821 0.41516 0.0
C1767 C 0.26519 0.39702 0.39788 0.0
C1768 C 0.26838 0.39129 0.43755 0.0
C1769 C 0.2586 0.40328 0.44324 0.0
C1770 C 0.25256 0.41257 0.42626 0.0
C1771 C 0.25577 0.40941 0.40365 0.0
C1772 C 0.25437 0.4052 0.46706 0.0
C1773 C 0.26149 0.4167 0.47963 0.0
C1774 C 0.24599 0.39371 0.47815 0.0
C1775 C 0.23793 0.38156 0.46543 0.0
C1776 C 0.22743 0.38534 0.44842 0.0
C1777 C 0.22005 0.37387 0.43624 0.0
C1778 C 0.22304 0.35857 0.44097 0.0
C1779 C 0.23339 0.35471 0.45791 0.0
C1780 C 0.24081 0.36613 0.47013 0.0
C1781 C 0.25502 0.40769 0.57795 0.0
C1782 C 0.26217 0.39395 0.58413 0.0
C1783 C 0.25234 0.41106 0.55525 0.0
C1784 C 0.25671 0.40069 0.5385 0.0
C1785 C 0.26374 0.38698 0.54469 0.0
C1786 C 0.26649 0.38367 0.5672 0.0
C1787 C 0.25436 0.40386 0.51431 0.0
C1788 C 0.24606 0.39322 0.50167 0.0
C1789 C 0.2617 0.41609 0.50323 0.0
C1790 C 0.27077 0.42759 0.51562 0.0
C1791 C 0.28369 0.42327 0.5281 0.0
C1792 C 0.29215 0.43421 0.53978 0.0
C1793 C 0.28787 0.44953 0.53892 0.0
C1794 C 0.27514 0.45394 0.52632 0.0
C1795 C 0.26664 0.44303 0.51464 0.0
H1796 H 0.29443 0.45799 0.54797 0.0
H1797 H 0.21732 0.34971 0.43154 0.0
H1798 H 0.5689 0.25028 0.58929 0.0
H1799 H 0.55989 0.24903 0.55027 0.0
H1800 H 0.58601 0.28927 0.53449 0.0
H1801 H 0.59482 0.29073 0.57317 0.0
H1802 H 0.55902 0.28932 0.5125 0.0
H1803 H 0.6008 0.25332 0.52725 0.0
H1804 H 0.61212 0.2311 0.54643 0.0
H1805 H 0.57523 0.20295 0.52333 0.0
H1806 H 0.56361 0.22507 0.50422 0.0
H1807 H 0.59765 0.28965 0.41172 0.0
H1808 H 0.58761 0.28855 0.44972 0.0
H1809 H 0.56157 0.24848 0.43263 0.0
H1810 H 0.57169 0.24946 0.3942 0.0
H1811 H 0.57869 0.24465 0.47052 0.0
H1812 H 0.54245 0.28051 0.44518 0.0
H1813 H 0.53282 0.30313 0.42516 0.0
H1814 H 0.56006 0.3321 0.46731 0.0
H1815 H 0.57004 0.30966 0.48737 0.0
C1816 C 0.57249 0.259 0.57758 0.0
C1817 C 0.58276 0.27048 0.58424 0.0
C1818 C 0.56735 0.25826 0.55531 0.0
C1819 C 0.57241 0.26897 0.53946 0.0
C1820 C 0.58193 0.2809 0.54645 0.0
C1821 C 0.58706 0.28164 0.56857 0.0
C1822 C 0.56931 0.26714 0.51513 0.0
C1823 C 0.56318 0.27952 0.50326 0.0
C1824 C 0.57425 0.25411 0.50318 0.0
C1825 C 0.58125 0.24085 0.5146 0.0
C1826 C 0.59506 0.2424 0.52641 0.0
C1827 C 0.60153 0.22984 0.53724 0.0
C1828 C 0.59437 0.21563 0.53617 0.0
C1829 C 0.58074 0.21397 0.5242 0.0
C1830 C 0.57421 0.22651 0.51337 0.0
C1831 C 0.58966 0.28068 0.41589 0.0
C1832 C 0.58555 0.26958 0.39998 0.0
C1833 C 0.5838 0.28016 0.4376 0.0
C1834 C 0.57368 0.26856 0.44391 0.0
C1835 C 0.56927 0.2576 0.42799 0.0
C1836 C 0.57506 0.25818 0.40609 0.0
C1837 C 0.56919 0.26721 0.4678 0.0
C1838 C 0.5739 0.25422 0.47964 0.0
C1839 C 0.56305 0.27974 0.47968 0.0
C1840 C 0.55701 0.29335 0.46779 0.0
C1841 C 0.54645 0.29169 0.45012 0.0
C1842 C 0.54093 0.3045 0.43876 0.0
C1843 C 0.54583 0.31905 0.44496 0.0
C1844 C 0.55625 0.32082 0.46255 0.0
C1845 C 0.56182 0.30806 0.47396 0.0
H1846 H 0.54154 0.32894 0.43614 0.0
H1847 H 0.5994 0.20592 0.54456 0.0
H1848 H 0.69577 0.39163 0.91301 0.0
H1849 H 0.69693 0.4011 0.95134 0.0
H1850 H 0.73662 0.42787 0.93487 0.0
H1851 H 0.73562 0.41827 0.89615 0.0
H1852 H 0.74124 0.41041 0.9715 0.0
H1853 H 0.70396 0.4461 0.9493 0.0
H1854 H 0.68073 0.4556 0.9306 0.0
H1855 H 0.65316 0.4267 0.97218 0.0
H1856 H 0.67621 0.41684 0.99092 0.0
H1857 H 0.73714 0.41889 0.09103 0.0
H1858 H 0.73757 0.42798 0.05202 0.0
H1859 H 0.69833 0.40014 0.03687 0.0
H1860 H 0.69773 0.39116 0.0755 0.0
H1861 H 0.69672 0.42776 0.01595 0.0
H1862 H 0.73428 0.38703 0.02772 0.0
H1863 H 0.75721 0.3761 0.04558 0.0
H1864 H 0.78384 0.41411 0.02274 0.0
H1865 H 0.76099 0.42534 0.00496 0.0
C1866 C 0.70464 0.3997 0.91737 0.0
C1867 C 0.71567 0.4041 0.90157 0.0
C1868 C 0.70519 0.40524 0.93929 0.0
C1869 C 0.71675 0.41535 0.9459 0.0
C1870 C 0.72754 0.42017 0.93003 0.0
C1871 C 0.72694 0.41467 0.90795 0.0
C1872 C 0.71835 0.41928 0.97 0.0
C1873 C 0.73168 0.41471 0.98117 0.0
C1874 C 0.70584 0.42476 0.98262 0.0
C1875 C 0.69186 0.43072 0.97152 0.0
C1876 C 0.69295 0.4417 0.95439 0.0
C1877 C 0.67981 0.44716 0.94378 0.0
C1878 C 0.66548 0.44176 0.9502 0.0
C1879 C 0.66426 0.43089 0.96726 0.0
C1880 C 0.67737 0.42539 0.97792 0.0
C1881 C 0.72848 0.41489 0.07944 0.0
C1882 C 0.71751 0.40415 0.08628 0.0
C1883 C 0.72875 0.42009 0.05719 0.0
C1884 C 0.71804 0.41465 0.04156 0.0
C1885 C 0.70666 0.40453 0.04868 0.0
C1886 C 0.70642 0.3993 0.07076 0.0
C1887 C 0.71927 0.41815 0.01729 0.0
C1888 C 0.70647 0.4241 0.00616 0.0
C1889 C 0.73223 0.41387 0.00467 0.0
C1890 C 0.74592 0.40711 0.0153 0.0
C1891 C 0.74501 0.3931 0.02667 0.0
C1892 C 0.75799 0.38685 0.03674 0.0
C1893 C 0.77196 0.39443 0.03537 0.0
C1894 C 0.773 0.40827 0.02385 0.0
C1895 C 0.76004 0.41458 0.01377 0.0
H1896 H 0.782 0.38957 0.04318 0.0
H1897 H 0.65532 0.44599 0.94195 0.0
H1898 H 0.60193 0.70242 0.08063 0.0
H1899 H 0.59794 0.70618 0.04054 0.0
H1900 H 0.57022 0.74565 0.054 0.0
H1901 H 0.57419 0.74203 0.09456 0.0
H1902 H 0.56067 0.72372 0.01512 0.0
H1903 H 0.60128 0.75581 0.04189 0.0
H1904 H 0.62415 0.76149 0.06458 0.0
H1905 H 0.64886 0.72633 0.03019 0.0
H1906 H 0.62606 0.7203 0.00751 0.0
H1907 H 0.57818 0.74067 0.89725 0.0
H1908 H 0.57232 0.74391 0.93735 0.0
H1909 H 0.60651 0.71045 0.9541 0.0
H1910 H 0.61249 0.70725 0.91459 0.0
H1911 H 0.60982 0.73634 0.97831 0.0
H1912 H 0.56865 0.70211 0.95557 0.0
H1913 H 0.54577 0.69528 0.93361 0.0
H1914 H 0.52212 0.73408 0.96025 0.0
H1915 H 0.54495 0.74124 0.98216 0.0
C1916 C 0.59476 0.71177 0.07521 0.0
C1917 C 0.58858 0.72208 0.0908 0.0
C1918 C 0.59245 0.71385 0.05227 0.0
C1919 C 0.58393 0.72626 0.04443 0.0
C1920 C 0.57682 0.736 0.05985 0.0
C1921 C 0.57914 0.73393 0.08296 0.0
C1922 C 0.58421 0.72978 0.02019 0.0
C1923 C 0.57127 0.72686 0.00699 0.0
C1924 C 0.5981 0.7338 0.00976 0.0
C1925 C 0.61193 0.73756 0.02309 0.0
C1926 C 0.61156 0.74922 0.03927 0.0
C1927 C 0.62451 0.75252 0.05211 0.0
C1928 C 0.63794 0.74426 0.04885 0.0
C1929 C 0.63845 0.73272 0.03269 0.0
C1930 C 0.62552 0.72938 0.01981 0.0
C1931 C 0.58436 0.73395 0.90951 0.0
C1932 C 0.59589 0.7238 0.90271 0.0
C1933 C 0.58098 0.7358 0.93237 0.0
C1934 C 0.58904 0.72746 0.94865 0.0
C1935 C 0.60025 0.7171 0.94181 0.0
C1936 C 0.60364 0.71528 0.91915 0.0
C1937 C 0.58644 0.72965 0.97301 0.0
C1938 C 0.59903 0.73367 0.98631 0.0
C1939 C 0.57225 0.72666 0.9834 0.0
C1940 C 0.55856 0.72232 0.97026 0.0
C1941 C 0.55862 0.70926 0.95658 0.0
C1942 C 0.54565 0.70532 0.94418 0.0
C1943 C 0.53252 0.71428 0.94547 0.0
C1944 C 0.53231 0.72718 0.95922 0.0
C1945 C 0.54525 0.73118 0.97164 0.0
H1946 H 0.52248 0.7112 0.93586 0.0
H1947 H 0.64796 0.74682 0.05881 0.0
H1948 H 0.25199 0.57238 0.08823 0.0
H1949 H 0.24895 0.5666 0.04802 0.0
H1950 H 0.27737 0.60507 0.03147 0.0
H1951 H 0.28049 0.61089 0.07109 0.0
H1952 H 0.24995 0.60474 0.00831 0.0
H1953 H 0.29141 0.57027 0.02838 0.0
H1954 H 0.30272 0.54877 0.04923 0.0
H1955 H 0.26836 0.51877 0.02296 0.0
H1956 H 0.25673 0.54016 0.00217 0.0
H1957 H 0.28738 0.60376 0.90787 0.0
H1958 H 0.28305 0.59807 0.94732 0.0
H1959 H 0.24641 0.56763 0.92947 0.0
H1960 H 0.25056 0.57337 0.88948 0.0
H1961 H 0.27086 0.5594 0.96926 0.0
H1962 H 0.23175 0.59439 0.94446 0.0
H1963 H 0.22243 0.61641 0.92268 0.0
H1964 H 0.25346 0.64578 0.95798 0.0
H1965 H 0.26314 0.62388 0.97971 0.0
C1966 C 0.25765 0.57953 0.07599 0.0
C1967 C 0.26641 0.59215 0.08289 0.0
C1968 C 0.25592 0.5762 0.05308 0.0
C1969 C 0.26287 0.58547 0.03685 0.0
C1970 C 0.27182 0.59785 0.04376 0.0
C1971 C 0.27362 0.60112 0.06647 0.0
C1972 C 0.2607 0.58287 0.0125 0.0
C1973 C 0.25434 0.59474 -0.00019 0.0
C1974 C 0.2661 0.56965 0.00148 0.0
C1975 C 0.27307 0.55684 0.014 0.0
C1976 C 0.28618 0.55912 0.02724 0.0
C1977 C 0.29267 0.54695 0.039 0.0
C1978 C 0.28623 0.53243 0.0375 0.0
C1979 C 0.27331 0.53003 0.02416 0.0
C1980 C 0.26677 0.54217 0.01239 0.0
C1981 C 0.27852 0.59568 0.91216 0.0
C1982 C 0.26916 0.58919 0.8955 0.0
C1983 C 0.27613 0.59239 0.93474 0.0
C1984 C 0.26439 0.58251 0.94119 0.0
C1985 C 0.25557 0.57525 0.92469 0.0
C1986 C 0.25792 0.5786 0.90192 0.0
C1987 C 0.26054 0.58148 0.96526 0.0
C1988 C 0.26584 0.56906 0.97786 0.0
C1989 C 0.25419 0.59421 0.97633 0.0
C1990 C 0.24821 0.60747 0.96361 0.0
C1991 C 0.23665 0.60552 0.94746 0.0
C1992 C 0.2313 0.61799 0.93515 0.0
C1993 C 0.23736 0.63248 0.93892 0.0
C1994 C 0.24877 0.63455 0.95507 0.0
C1995 C 0.25418 0.62211 0.96742 0.0
H1996 H 0.23321 0.64212 0.92936 0.0
H1997 H 0.29127 0.52302 0.04661 0.0
H1998 H 0.41536 0.2439 0.89218 0.0
H1999 H 0.42415 0.23954 0.93092 0.0
H2000 H 0.4038 0.28207 0.95125 0.0
H2001 H 0.39497 0.28643 0.913 0.0
H2002 H 0.43243 0.27711 0.97073 0.0
H2003 H 0.38417 0.24979 0.95663 0.0
H2004 H 0.36873 0.23038 0.93703 0.0
H2005 H 0.40038 0.19564 0.95722 0.0
H2006 H 0.4161 0.21491 0.97672 0.0
H2007 H 0.39372 0.28383 0.07004 0.0
H2008 H 0.40329 0.28047 0.03201 0.0
H2009 H 0.42382 0.23773 0.05107 0.0
H2010 H 0.41437 0.24115 0.08967 0.0
H2011 H 0.40499 0.23641 0.01205 0.0
H2012 H 0.44767 0.26389 0.03743 0.0
H2013 H 0.46195 0.28372 0.05787 0.0
H2014 H 0.44099 0.31832 0.01725 0.0
H2015 H 0.42639 0.29873 -0.00322 0.0
C2016 C 0.41297 0.2524 0.9049 0.0
C2017 C 0.40434 0.26544 0.89964 0.0
C2018 C 0.41799 0.24989 0.92695 0.0
C2019 C 0.4146 0.26048 0.94389 0.0
C2020 C 0.40661 0.27379 0.93839 0.0
C2021 C 0.40145 0.27621 0.91655 0.0
C2022 C 0.41796 0.25741 0.96783 0.0
C2023 C 0.42662 0.26811 0.97982 0.0
C2024 C 0.41084 0.24532 0.9795 0.0
C2025 C 0.4014 0.23378 0.96783 0.0
C2026 C 0.38789 0.23802 0.95672 0.0
C2027 C 0.37908 0.22705 0.94566 0.0
C2028 C 0.3836 0.21179 0.94581 0.0
C2029 C 0.39692 0.20747 0.95707 0.0
C2030 C 0.40578 0.21841 0.96811 0.0
C2031 C 0.40038 0.27377 0.06627 0.0
C2032 C 0.40323 0.26271 0.08279 0.0
C2033 C 0.40595 0.27192 0.04456 0.0
C2034 C 0.4144 0.25894 0.03883 0.0
C2035 C 0.41743 0.24789 0.05528 0.0
C2036 C 0.41204 0.24986 0.07725 0.0
C2037 C 0.41872 0.25667 0.01507 0.0
C2038 C 0.41147 0.24498 0.00304 0.0
C2039 C 0.42713 0.26788 0.00338 0.0
C2040 C 0.43591 0.27979 0.01555 0.0
C2041 C 0.44603 0.27573 0.03292 0.0
C2042 C 0.45419 0.28694 0.04451 0.0
C2043 C 0.45238 0.30227 0.03886 0.0
C2044 C 0.4424 0.30643 0.02159 0.0
C2045 C 0.4342 0.29527 0.00994 0.0
H2046 H 0.45871 0.31093 0.04786 0.0
H2047 H 0.37677 0.20331 0.93725 0.0
H2048 H 0.26888 0.05717 0.20747 0.0
H2049 H 0.27587 0.03355 0.22687 0.0
H2050 H 0.23595 0.01153 0.19949 0.0
H2051 H 0.2291 0.03486 0.1798 0.0
H2052 H 0.26115 0.01931 0.25882 0.0
H2053 H 0.24107 0.97458 0.19224 0.0
H2054 H 0.24132 0.97144 0.15106 0.0
H2055 H 0.27938 0.00202 0.1462 0.0
H2056 H 0.27951 0.00518 0.18737 0.0
H2057 H 0.23096 0.95315 0.30567 0.0
H2058 H 0.23764 0.97642 0.28575 0.0
H2059 H 0.27536 0.95334 0.25411 0.0
H2060 H 0.26849 0.92979 0.27372 0.0
H2061 H 0.25965 0.96803 0.2239 0.0
H2062 H 0.28172 0.98161 0.29339 0.0
H2063 H 0.28367 0.98479 0.33447 0.0
H2064 H 0.24635 0.0164 0.3333 0.0
H2065 H 0.24401 0.01326 0.29226 0.0
C2066 C 0.26173 0.04721 0.20534 0.0
C2067 C 0.24843 0.04787 0.19212 0.0
C2068 C 0.26572 0.03374 0.21646 0.0
C2069 C 0.25653 0.02072 0.21445 0.0
C2070 C 0.24341 0.02132 0.20093 0.0
C2071 C 0.23944 0.03471 0.18978 0.0
C2072 C 0.25983 0.0068 0.22773 0.0
C2073 C 0.261 0.0081 0.25119 0.0
C2074 C 0.26012 0.99219 0.21772 0.0
C2075 C 0.26024 0.99017 0.19293 0.0
C2076 C 0.24956 0.98056 0.18241 0.0
C2077 C 0.24962 0.97879 0.15906 0.0
C2078 C 0.26034 0.98655 0.14602 0.0
C2079 C 0.27105 -0.00394 0.15631 0.0
C2080 C 0.27105 -0.00215 0.17966 0.0
C2081 C 0.24081 0.95305 0.29472 0.0
C2082 C 0.24917 0.93961 0.29122 0.0
C2083 C 0.24469 0.96641 0.28343 0.0
C2084 C 0.25712 0.96669 0.26861 0.0
C2085 C 0.26575 0.95339 0.26551 0.0
C2086 C 0.26183 0.93996 0.27676 0.0
C2087 C 0.26015 0.98054 0.25505 0.0
C2088 C 0.26016 0.97924 0.23154 0.0
C2089 C 0.26129 -0.00486 0.265 0.0
C2090 C 0.26266 -0.00286 0.28971 0.0
C2091 C 0.27386 0.98917 0.3019 0.0
C2092 C 0.27505 0.99098 0.32518 0.0
C2093 C 0.26513 0.00078 0.33649 0.0
C2094 C 0.25403 0.00882 0.32452 0.0
C2095 C 0.25279 0.00705 0.30123 0.0
H2096 H 0.26607 0.00216 0.35451 0.0
H2097 H 0.26036 0.98517 0.12794 0.0
H2098 H 0.95302 0.22545 0.17631 0.0
H2099 H 0.9761 0.23022 0.19822 0.0
H2100 H 0.95726 0.27253 0.2221 0.0
H2101 H 0.93383 0.26773 0.20052 0.0
H2102 H 0.99396 0.26752 0.20501 0.0
H2103 H 0.95329 0.25484 0.25891 0.0
H2104 H 0.93105 0.23944 0.2702 0.0
H2105 H 0.95772 0.19862 0.2645 0.0
H2106 H 0.98005 0.21379 0.25283 0.0
H2107 H 0.0528 0.26752 0.28929 0.0
H2108 H 0.0288 0.27262 0.26938 0.0
H2109 H 0.01992 0.22428 0.26604 0.0
H2110 H 0.04326 0.21928 0.28687 0.0
H2111 H -0.00478 0.23723 0.27541 0.0
H2112 H 0.03471 0.24724 0.22032 0.0
H2113 H 0.05749 0.26022 0.20538 0.0
H2114 H 0.0345 0.3033 0.20959 0.0
H2115 H 0.01164 0.29058 0.2248 0.0
C2116 C 0.95384 0.23592 0.18588 0.0
C2117 C 0.94156 0.24616 0.18685 0.0
C2118 C 0.96705 0.23862 0.19834 0.0
C2119 C 0.96828 0.25168 0.21172 0.0
C2120 C 0.95645 0.26241 0.21175 0.0
C2121 C 0.9431 0.25962 0.1995 0.0
C2122 C 0.98126 0.25307 0.22736 0.0
C2123 C 0.99421 0.26122 0.2207 0.0
C2124 C 0.98158 0.24452 0.24742 0.0
C2125 C 0.96827 0.23543 0.25481 0.0
C2126 C 0.95436 0.24257 0.25989 0.0
C2127 C 0.94175 0.23389 0.26639 0.0
C2128 C 0.94296 0.21806 0.26801 0.0
C2129 C 0.9568 0.21088 0.26321 0.0
C2130 C 0.96943 0.21952 0.25668 0.0
C2131 C 0.04563 0.25804 0.28437 0.0
C2132 C 0.04985 0.24302 0.28964 0.0
C2133 C 0.03198 0.26094 0.27288 0.0
C2134 C 0.02259 0.24883 0.26593 0.0
C2135 C 0.02687 0.23385 0.27131 0.0
C2136 C 0.04025 0.23099 0.28319 0.0
C2137 C 0.00831 0.25144 0.25298 0.0
C2138 C 0.99502 0.24392 0.26008 0.0
C2139 C 0.00784 0.26037 0.23311 0.0
C2140 C 0.02155 0.26799 0.22395 0.0
C2141 C 0.03456 0.2595 0.21821 0.0
C2142 C 0.04748 0.2668 0.20967 0.0
C2143 C 0.04746 0.28258 0.20661 0.0
C2144 C 0.03451 0.29108 0.21202 0.0
C2145 C 0.02157 0.28383 0.22058 0.0
H2146 H 0.05747 0.28822 0.19999 0.0
H2147 H 0.93319 0.21135 0.27304 0.0
H2148 H 0.7586 0.03553 0.30766 0.0
H2149 H 0.7529 0.01283 0.28546 0.0
H2150 H 0.71969 0.03813 0.2471 0.0
H2151 H 0.72537 0.06095 0.2692 0.0
H2152 H 0.72772 -0.0045 0.27547 0.0
H2153 H 0.72502 0.02797 0.19187 0.0
H2154 H 0.73374 0.05229 0.17545 0.0
H2155 H 0.77185 0.05301 0.22087 0.0
H2156 H 0.76345 0.02863 0.23733 0.0
H2157 H 0.72007 0.93719 0.19356 0.0
H2158 H 0.71448 0.96125 0.21272 0.0
H2159 H 0.75974 0.97741 0.1972 0.0
H2160 H 0.76512 0.9538 0.17734 0.0
H2161 H 0.74113 5e-05 0.19474 0.0
H2162 H 0.74993 0.95918 0.24879 0.0
H2163 H 0.74432 0.93438 0.26645 0.0
H2164 H 0.69904 0.94954 0.28226 0.0
H2165 H 0.70436 0.97438 0.26446 0.0
C2166 C 0.74989 0.03621 0.29477 0.0
C2167 C 0.74256 0.05007 0.29001 0.0
C2168 C 0.7466 0.02321 0.28217 0.0
C2169 C 0.736 0.02386 0.2645 0.0
C2170 C 0.728 0.03744 0.26055 0.0
C2171 C 0.73125 0.05045 0.27321 0.0
C2172 C 0.73452 0.01075 0.24899 0.0
C2173 C 0.73045 -0.0035 0.25775 0.0
C2174 C 0.73824 0.01206 0.22595 0.0
C2175 C 0.74349 0.02661 0.21599 0.0
C2176 C 0.73527 0.03332 0.1983 0.0
C2177 C 0.74016 0.04711 0.18899 0.0
C2178 C 0.7533 0.05422 0.19717 0.0
C2179 C 0.76163 0.04753 0.21461 0.0
C2180 C 0.7568 0.03374 0.22395 0.0
C2181 C 0.72871 0.94601 0.1939 0.0
C2182 C 0.74309 0.94356 0.18414 0.0
C2183 C 0.72553 0.95971 0.20495 0.0
C2184 C 0.7368 0.97103 0.20682 0.0
C2185 C 0.75085 0.96887 0.19603 0.0
C2186 C 0.75394 0.95532 0.18472 0.0
C2187 C 0.7346 0.98464 0.22126 0.0
C2188 C 0.73798 -0.00095 0.21231 0.0
C2189 C 0.73062 0.9834 0.24427 0.0
C2190 C 0.72748 0.96854 0.2551 0.0
C2191 C 0.73876 0.95718 0.25593 0.0
C2192 C 0.73563 0.94312 0.26597 0.0
C2193 C 0.72132 0.94037 0.27541 0.0
C2194 C 0.71011 0.95168 0.2749 0.0
C2195 C 0.71318 0.96574 0.26485 0.0
H2196 H 0.71891 0.92948 0.28317 0.0
H2197 H 0.75706 0.06489 0.18996 0.0
H2198 H 0.0568 0.72274 0.21176 0.0
H2199 H 0.03289 0.71682 0.23104 0.0
H2200 H 0.01046 0.75308 0.1949 0.0
H2201 H 0.03417 0.75889 0.17537 0.0
H2202 H 0.01832 0.73464 0.25909 0.0
H2203 H 0.97326 0.74609 0.18856 0.0
H2204 H 0.97029 0.74148 0.1479 0.0
H2205 H 0.00212 0.70442 0.1517 0.0
H2206 H 0.00512 0.70866 0.19243 0.0
H2207 H 0.95083 0.765 0.30113 0.0
H2208 H 0.97401 0.75863 0.28076 0.0
H2209 H 0.9533 0.71692 0.25742 0.0
H2210 H 0.92978 0.72346 0.27741 0.0
H2211 H 0.96712 0.73064 0.22397 0.0
H2212 H 0.98166 0.71624 0.2977 0.0
H2213 H 0.98471 0.71881 0.33873 0.0
H2214 H 0.01418 0.75732 0.32919 0.0
H2215 H 0.01114 0.75512 0.28811 0.0
C2216 C 0.0467 0.72926 0.20763 0.0
C2217 C 0.04738 0.74133 0.19212 0.0
C2218 C 0.03306 0.72588 0.21869 0.0
C2219 C 0.01987 0.73444 0.21433 0.0
C2220 C 0.02042 0.74614 0.19826 0.0
C2221 C 0.03402 0.74952 0.1872 0.0
C2222 C 0.00592 0.73224 0.22799 0.0
C2223 C 0.00714 0.73359 0.25143 0.0
C2224 C 0.99135 0.73048 0.21805 0.0
C2225 C 0.98948 0.72777 0.19356 0.0
C2226 C 0.97956 0.7369 0.18076 0.0
C2227 C 0.97789 0.73436 0.15768 0.0
C2228 C 0.98603 0.72269 0.14722 0.0
C2229 C -0.00415 0.7135 0.15982 0.0
C2230 C -0.00244 0.71598 0.18289 0.0
C2231 C 0.95121 0.7544 0.29182 0.0
C2232 C 0.93848 0.74471 0.29091 0.0
C2233 C 0.96453 0.75073 0.28027 0.0
C2234 C 0.96549 0.73718 0.26784 0.0
C2235 C 0.95282 0.72741 0.26699 0.0
C2236 C 0.93942 0.73114 0.27845 0.0
C2237 C 0.97953 0.73373 0.25493 0.0
C2238 C 0.97832 0.73136 0.23166 0.0
C2239 C 0.99414 0.73422 0.26507 0.0
C2240 C -0.00389 0.73554 0.2898 0.0
C2241 C 0.98872 0.72531 0.30435 0.0
C2242 C 0.99046 0.7267 0.32762 0.0
C2243 C -0.00038 0.73823 0.33656 0.0
C2244 C 0.00709 0.74838 0.32224 0.0
C2245 C 0.00539 0.74705 0.29896 0.0
H2246 H 0.00095 0.73929 0.35458 0.0
H2247 H 0.98473 0.72075 0.12935 0.0
H2248 H 0.7188 0.9339 0.78132 0.0
H2249 H 0.71126 0.95786 0.76335 0.0
H2250 H 0.75348 0.97848 0.785 0.0
H2251 H 0.76084 0.95486 0.80346 0.0
H2252 H 0.73158 -0.00121 0.78667 0.0
H2253 H 0.74939 0.96112 0.73247 0.0
H2254 H 0.74836 0.93639 0.71283 0.0
H2255 H 0.70276 0.94606 0.69059 0.0
H2256 H 0.70349 0.97079 0.71033 0.0
H2257 H 0.75578 0.03597 0.67803 0.0
H2258 H 0.74919 0.01312 0.69905 0.0
H2259 H 0.71263 0.03729 0.73184 0.0
H2260 H 0.71937 0.06042 0.71102 0.0
H2261 H 0.72516 -0.00502 0.70397 0.0
H2262 H 0.71221 0.02508 0.7871 0.0
H2263 H 0.71706 0.04959 0.80618 0.0
H2264 H 0.75881 0.05482 0.7694 0.0
H2265 H 0.75429 0.03027 0.75034 0.0
C2266 C 0.72633 0.94365 0.78258 0.0
C2267 C 0.7405 0.94246 0.79354 0.0
C2268 C 0.72202 0.95731 0.77228 0.0
C2269 C 0.73192 0.96988 0.77252 0.0
C2270 C 0.74565 0.96894 0.7846 0.0
C2271 C 0.74988 0.95538 0.79505 0.0
C2272 C 0.72892 0.98354 0.75855 0.0
C2273 C 0.7299 -0.00204 0.76863 0.0
C2274 C 0.72683 0.98249 0.73499 0.0
C2275 C 0.72642 0.96768 0.72309 0.0
C2276 C 0.73911 0.95791 0.72351 0.0
C2277 C 0.73859 0.94391 0.71235 0.0
C2278 C 0.72548 0.93963 0.70053 0.0
C2279 C 0.71289 0.94937 0.6998 0.0
C2280 C 0.71335 0.96338 0.71096 0.0
C2281 C 0.7462 0.0364 0.68947 0.0
C2282 C 0.73821 0.05004 0.69308 0.0
C2283 C 0.74238 0.02329 0.70139 0.0
C2284 C 0.73053 0.02355 0.71719 0.0
C2285 C 0.72194 0.03691 0.71991 0.0
C2286 C 0.72577 0.05009 0.70797 0.0
C2287 C 0.7283 0.01018 0.73201 0.0
C2288 C 0.72629 -0.00417 0.7221 0.0
C2289 C 0.72989 0.01128 0.75564 0.0
C2290 C 0.73279 0.02598 0.7671 0.0
C2291 C 0.72243 0.03147 0.78313 0.0
C2292 C 0.72512 0.04536 0.79394 0.0
C2293 C 0.7382 0.05379 0.78893 0.0
C2294 C 0.74865 0.04831 0.77319 0.0
C2295 C 0.74602 0.03443 0.76237 0.0
H2296 H 0.74026 0.06454 0.7973 0.0
H2297 H 0.7251 0.92879 0.6919 0.0
H2298 H 0.95328 0.74574 0.67584 0.0
H2299 H 0.9765 0.74029 0.69732 0.0
H2300 H 0.94934 0.72376 0.75248 0.0
H2301 H 0.92602 0.72876 0.73085 0.0
H2302 H 0.97189 0.74971 0.76021 0.0
H2303 H 0.96749 0.69859 0.73167 0.0
H2304 H 0.96426 0.67935 0.70185 0.0
H2305 H 0.00521 0.695 0.66985 0.0
H2306 H 0.00856 0.7145 0.69931 0.0
H2307 H 0.03839 0.74107 0.82457 0.0
H2308 H 0.01353 0.7348 0.80822 0.0
H2309 H 0.0342 0.73171 0.74254 0.0
H2310 H 0.05915 0.73683 0.75914 0.0
H2311 H 0.01292 0.71257 0.74337 0.0
H2312 H 0.01579 0.76546 0.76447 0.0
H2313 H 0.01951 0.78719 0.79019 0.0
H2314 H 0.98242 0.77153 0.83114 0.0
H2315 H 0.97859 0.7496 0.80578 0.0
C2316 C 0.95227 0.74069 0.69239 0.0
C2317 C 0.93788 0.73771 0.70174 0.0
C2318 C 0.96552 0.73754 0.70456 0.0
C2319 C 0.96455 0.7316 0.72638 0.0
C2320 C 0.95024 0.72826 0.73558 0.0
C2321 C 0.93698 0.7311 0.72321 0.0
C2322 C 0.97846 0.7304 0.74025 0.0
C2323 C 0.98076 0.74139 0.75696 0.0
C2324 C 0.99013 0.71987 0.73527 0.0
C2325 C 0.9882 0.70809 0.71762 0.0
C2326 C 0.97573 0.69803 0.71817 0.0
C2327 C 0.9739 0.68705 0.70136 0.0
C2328 C 0.98451 0.68598 0.68394 0.0
C2329 C -0.003 0.69585 0.68334 0.0
C2330 C -0.00112 0.70685 0.70011 0.0
C2331 C 0.03761 0.73876 0.80671 0.0
C2332 C 0.0506 0.73955 0.79304 0.0
C2333 C 0.02341 0.73528 0.79734 0.0
C2334 C 0.02187 0.73323 0.774 0.0
C2335 C 0.03502 0.73329 0.76056 0.0
C2336 C 0.04928 0.73626 0.77004 0.0
C2337 C 0.00657 0.7321 0.76329 0.0
C2338 C 0.004 0.72074 0.74705 0.0
C2339 C 0.99477 0.74263 0.76816 0.0
C2340 C -0.00297 0.75581 0.7834 0.0
C2341 C 0.00849 0.76661 0.77904 0.0
C2342 C 0.01062 0.77896 0.79354 0.0
C2343 C 0.00124 0.78071 0.81233 0.0
C2344 C 0.9897 0.77014 0.81661 0.0
C2345 C 0.98754 0.75775 0.80218 0.0
H2346 H 0.0029 0.79028 0.82353 0.0
H2347 H 0.98307 0.67747 0.67094 0.0
H2348 H 0.23255 0.95595 0.66637 0.0
H2349 H 0.23786 0.98029 0.68461 0.0
H2350 H 0.26701 0.95759 0.73258 0.0
H2351 H 0.26201 0.93324 0.71407 0.0
H2352 H 0.22965 0.98714 0.7253 0.0
H2353 H 0.29299 0.98296 0.754 0.0
H2354 H 0.31734 0.97259 0.74007 0.0
H2355 H 0.30104 0.97579 0.67213 0.0
H2356 H 0.27669 0.98637 0.68561 0.0
H2357 H 0.23894 0.03638 0.81457 0.0
H2358 H 0.2429 0.01317 0.79277 0.0
H2359 H 0.26819 0.03867 0.74334 0.0
H2360 H 0.26458 0.06194 0.76539 0.0
H2361 H 0.27934 0.00938 0.74823 0.0
H2362 H 0.23127 0.03409 0.73536 0.0
H2363 H 0.20695 0.04589 0.74665 0.0
H2364 H 0.19268 0.00382 0.77681 0.0
H2365 H 0.21703 0.99183 0.76598 0.0
C2366 C 0.2403 0.95618 0.68055 0.0
C2367 C 0.24676 0.94268 0.68892 0.0
C2368 C 0.24333 0.97009 0.69097 0.0
C2369 C 0.25283 0.97077 0.70995 0.0
C2370 C 0.25981 0.95738 0.71776 0.0
C2371 C 0.25687 0.94346 0.70725 0.0
C2372 C 0.25409 0.98512 0.72293 0.0
C2373 C 0.24054 0.992 0.73018 0.0
C2374 C 0.26828 0.99157 0.72916 0.0
C2375 C 0.28295 0.98532 0.72086 0.0
C2376 C 0.29462 0.9815 0.73608 0.0
C2377 C 0.30842 0.97558 0.72826 0.0
C2378 C 0.31071 0.97349 0.70524 0.0
C2379 C 0.29923 0.97736 0.68997 0.0
C2380 C 0.28541 0.98329 0.6977 0.0
C2381 C 0.24564 0.03699 0.79933 0.0
C2382 C 0.25123 0.051 0.79147 0.0
C2383 C 0.2479 0.02373 0.7869 0.0
C2384 C 0.25555 0.0243 0.76623 0.0
C2385 C 0.26221 0.03802 0.75922 0.0
C2386 C 0.26009 0.0513 0.7718 0.0
C2387 C 0.25492 0.01108 0.75082 0.0
C2388 C 0.26851 0.00446 0.7432 0.0
C2389 C 0.24076 0.00499 0.74376 0.0
C2390 C 0.22601 0.01211 0.75002 0.0
C2391 C 0.22298 0.02738 0.74451 0.0
C2392 C 0.20919 0.03411 0.75082 0.0
C2393 C 0.19829 0.02562 0.76248 0.0
C2394 C 0.20114 0.01039 0.7678 0.0
C2395 C 0.21493 0.00362 0.76157 0.0
H2396 H 0.18763 0.03085 0.76736 0.0
H2397 H 0.3214 0.96889 0.69922 0.0
H2398 H 0.95405 0.24208 0.81022 0.0
H2399 H 0.97755 0.24708 0.78934 0.0
H2400 H 0.9512 0.26446 0.73372 0.0
H2401 H 0.92761 0.25987 0.75476 0.0
H2402 H 0.97232 0.23838 0.72544 0.0
H2403 H 0.97091 0.2889 0.75638 0.0
H2404 H 0.96883 0.30777 0.78689 0.0
H2405 H 0.00885 0.28931 0.81837 0.0
H2406 H 0.01105 0.27017 0.78821 0.0
H2407 H 0.03959 0.24526 0.66203 0.0
H2408 H 0.01492 0.25171 0.67866 0.0
H2409 H 0.03563 0.25212 0.7446 0.0
H2410 H 0.06043 0.24682 0.72778 0.0
H2411 H 0.01556 0.27248 0.74448 0.0
H2412 H 0.01522 0.22003 0.72073 0.0
H2413 H 0.0176 0.1987 0.69397 0.0
H2414 H 0.98153 0.2175 0.6537 0.0
H2415 H 0.97907 0.23904 0.68011 0.0
C2416 C 0.95329 0.24726 0.79373 0.0
C2417 C 0.93904 0.25053 0.78404 0.0
C2418 C 0.96669 0.25016 0.78189 0.0
C2419 C 0.96603 0.25615 0.76007 0.0
C2420 C 0.95187 0.25991 0.75062 0.0
C2421 C 0.93845 0.2573 0.76265 0.0
C2422 C 0.98003 0.25681 0.74639 0.0
C2423 C 0.98169 0.24606 0.72919 0.0
C2424 C 0.99233 0.26647 0.75199 0.0
C2425 C 0.99108 0.27802 0.7701 0.0
C2426 C 0.9792 0.28877 0.7699 0.0
C2427 C 0.97801 0.29954 0.78712 0.0
C2428 C 0.98868 0.29972 0.80458 0.0
C2429 C 0.00059 0.28916 0.80484 0.0
C2430 C 0.00182 0.27836 0.78767 0.0
C2431 C 0.03884 0.24692 0.68003 0.0
C2432 C 0.05182 0.24543 0.69369 0.0
C2433 C 0.02475 0.25052 0.68955 0.0
C2434 C 0.02328 0.25201 0.71299 0.0
C2435 C 0.0364 0.25102 0.7265 0.0
C2436 C 0.05057 0.24792 0.7169 0.0
C2437 C 0.00807 0.25379 0.72364 0.0
C2438 C 0.00616 0.26495 0.74036 0.0
C2439 C -0.00437 0.24416 0.71811 0.0
C2440 C -0.00291 0.23123 0.70223 0.0
C2441 C 0.00787 0.21966 0.70608 0.0
C2442 C 0.00922 0.20753 0.69099 0.0
C2443 C -0.00024 0.20677 0.67211 0.0
C2444 C 0.98888 0.21812 0.66831 0.0
C2445 C 0.9875 0.23029 0.68333 0.0
H2446 H 0.00082 0.19737 0.66045 0.0
H2447 H 0.98775 0.30807 0.81789 0.0
H2448 H 0.766 0.55328 0.69786 0.0
H2449 H 0.77122 0.53061 0.72095 0.0
H2450 H 0.72446 0.51636 0.71333 0.0
H2451 H 0.71923 0.53859 0.68996 0.0
H2452 H 0.73911 0.51994 0.76114 0.0
H2453 H 0.74466 0.49754 0.68537 0.0
H2454 H 0.75723 0.49612 0.64838 0.0
H2455 H 0.80052 0.48922 0.68064 0.0
H2456 H 0.78821 0.49082 0.71785 0.0
H2457 H 0.71856 0.44788 0.79475 0.0
H2458 H 0.72377 0.47186 0.77599 0.0
H2459 H 0.77162 0.46059 0.7728 0.0
H2460 H 0.76631 0.43603 0.79096 0.0
H2461 H 0.76325 0.47213 0.73458 0.0
H2462 H 0.75805 0.48874 0.80943 0.0
H2463 H 0.74709 0.49076 0.84744 0.0
H2464 H 0.70614 0.51004 0.81989 0.0
H2465 H 0.71674 0.50793 0.78168 0.0
C2466 C 0.7569 0.5452 0.70092 0.0
C2467 C 0.7422 0.54769 0.69213 0.0
C2468 C 0.75991 0.53231 0.71406 0.0
C2469 C 0.74819 0.52193 0.71879 0.0
C2470 C 0.73362 0.5243 0.70981 0.0
C2471 C 0.73068 0.53697 0.69641 0.0
C2472 C 0.7507 0.50885 0.73388 0.0
C2473 C 0.7444 0.50946 0.75546 0.0
C2474 C 0.75823 0.49552 0.72669 0.0
C2475 C 0.76556 0.49452 0.70435 0.0
C2476 C 0.75688 0.4959 0.68457 0.0
C2477 C 0.76395 0.49501 0.66357 0.0
C2478 C 0.77967 0.49264 0.66216 0.0
C2479 C 0.78835 0.4911 0.68175 0.0
C2480 C 0.78133 0.49199 0.70279 0.0
C2481 C 0.73023 0.45051 0.79025 0.0
C2482 C 0.74204 0.44011 0.79445 0.0
C2483 C 0.73322 0.46431 0.77964 0.0
C2484 C 0.74815 0.46824 0.77345 0.0
C2485 C 0.76003 0.45786 0.77759 0.0
C2486 C 0.75699 0.44387 0.78798 0.0
C2487 C 0.75094 0.48288 0.76167 0.0
C2488 C 0.75829 0.48266 0.7407 0.0
C2489 C 0.74464 0.49672 0.76965 0.0
C2490 C 0.73819 0.49812 0.79264 0.0
C2491 C 0.74667 0.49333 0.81145 0.0
C2492 C 0.74052 0.4945 0.83304 0.0
C2493 C 0.72593 0.50052 0.83607 0.0
C2494 C 0.71745 0.5054 0.81752 0.0
C2495 C 0.72354 0.50424 0.79588 0.0
H2496 H 0.72119 0.50141 0.8528 0.0
H2497 H 0.78513 0.49195 0.64589 0.0
H2498 H 0.56053 0.75321 0.76443 0.0
H2499 H 0.53606 0.75747 0.74614 0.0
H2500 H 0.51292 0.74804 0.80866 0.0
H2501 H 0.5375 0.7427 0.82659 0.0
H2502 H 0.49943 0.73354 0.77913 0.0
H2503 H 0.51461 0.78532 0.7817 0.0
H2504 H 0.53134 0.80769 0.77722 0.0
H2505 H 0.53263 0.80044 0.70589 0.0
H2506 H 0.51608 0.7779 0.70994 0.0
H2507 H 0.42825 0.75543 0.729 0.0
H2508 H 0.45153 0.7596 0.751 0.0
H2509 H 0.47872 0.74513 0.69465 0.0
H2510 H 0.45548 0.74049 0.6727 0.0
H2511 H 0.48826 0.77424 0.72364 0.0
H2512 H 0.47535 0.71956 0.72524 0.0
H2513 H 0.45713 0.69861 0.73175 0.0
H2514 H 0.44995 0.71426 0.79928 0.0
H2515 H 0.46796 0.73545 0.79302 0.0
C2516 C 0.55023 0.7523 0.77436 0.0
C2517 C 0.55088 0.74761 0.7969 0.0
C2518 C 0.53621 0.75486 0.76393 0.0
C2519 C 0.52254 0.75333 0.77603 0.0
C2520 C 0.52326 0.74928 0.79889 0.0
C2521 C 0.53729 0.74628 0.80917 0.0
C2522 C 0.50758 0.75448 0.76429 0.0
C2523 C 0.49695 0.74268 0.76741 0.0
C2524 C 0.50423 0.76626 0.74872 0.0
C2525 C 0.51417 0.77984 0.74616 0.0
C2526 C 0.51854 0.78843 0.76507 0.0
C2527 C 0.52798 0.80115 0.7626 0.0
C2528 C 0.53306 0.80546 0.74129 0.0
C2529 C 0.52869 0.79708 0.72239 0.0
C2530 C 0.51926 0.78434 0.72476 0.0
C2531 C 0.4392 0.75336 0.72118 0.0
C2532 C 0.44008 0.74755 0.6992 0.0
C2533 C 0.45244 0.75577 0.73375 0.0
C2534 C 0.46675 0.75268 0.72436 0.0
C2535 C 0.46773 0.74764 0.70205 0.0
C2536 C 0.45448 0.74492 0.68962 0.0
C2537 C 0.48058 0.7533 0.73847 0.0
C2538 C 0.49086 0.76536 0.73571 0.0
C2539 C 0.4835 0.74199 0.75476 0.0
C2540 C 0.47283 0.72917 0.75857 0.0
C2541 C 0.46976 0.71861 0.7414 0.0
C2542 C 0.4595 0.70668 0.74506 0.0
C2543 C 0.45234 0.70514 0.76589 0.0
C2544 C 0.45547 0.71549 0.78314 0.0
C2545 C 0.46571 0.72745 0.77955 0.0
H2546 H 0.4444 0.69589 0.7687 0.0
H2547 H 0.54037 0.81531 0.73942 0.0
H2548 H 0.24716 0.45369 0.6599 0.0
H2549 H 0.24151 0.47829 0.67737 0.0
H2550 H 0.23277 0.45562 0.74048 0.0
H2551 H 0.23742 0.43104 0.72268 0.0
H2552 H 0.21488 0.47809 0.73834 0.0
H2553 H 0.26866 0.47233 0.72584 0.0
H2554 H 0.29204 0.46793 0.70378 0.0
H2555 H 0.28223 0.5073 0.66346 0.0
H2556 H 0.25869 0.51182 0.68513 0.0
H2557 H 0.25048 0.53596 0.81076 0.0
H2558 H 0.24502 0.51286 0.78903 0.0
H2559 H 0.22588 0.54015 0.7358 0.0
H2560 H 0.23083 0.56329 0.75768 0.0
H2561 H 0.25542 0.51713 0.73053 0.0
H2562 H 0.20177 0.52313 0.74951 0.0
H2563 H 0.18063 0.52658 0.77629 0.0
H2564 H 0.19331 0.48528 0.81017 0.0
H2565 H 0.21468 0.48172 0.78378 0.0
C2566 C 0.24378 0.45399 0.67739 0.0
C2567 C 0.24286 0.44052 0.69002 0.0
C2568 C 0.24064 0.46804 0.68741 0.0
C2569 C 0.23711 0.46888 0.71043 0.0
C2570 C 0.23549 0.45532 0.72273 0.0
C2571 C 0.23821 0.44127 0.71256 0.0
C2572 C 0.23613 0.48379 0.72215 0.0
C2573 C 0.22377 0.48659 0.7366 0.0
C2574 C 0.2477 0.49499 0.71995 0.0
C2575 C 0.26183 0.4923 0.70691 0.0
C2576 C 0.27144 0.47998 0.71216 0.0
C2577 C 0.28472 0.47747 0.69975 0.0
C2578 C 0.28859 0.4873 0.68218 0.0
C2579 C 0.2792 0.49968 0.67704 0.0
C2580 C 0.26589 0.50222 0.68938 0.0
C2581 C 0.24478 0.537 0.79466 0.0
C2582 C 0.24111 0.55139 0.78585 0.0
C2583 C 0.24164 0.52383 0.78234 0.0
C2584 C 0.235 0.52489 0.76095 0.0
C2585 C 0.23086 0.53918 0.75241 0.0
C2586 C 0.2337 0.55234 0.76493 0.0
C2587 C 0.23426 0.51128 0.74653 0.0
C2588 C 0.2464 0.50871 0.73179 0.0
C2589 C 0.22278 0.50015 0.74901 0.0
C2590 C 0.20993 0.50226 0.76483 0.0
C2591 C 0.20016 0.51488 0.76283 0.0
C2592 C 0.18811 0.51683 0.7779 0.0
C2593 C 0.18566 0.50618 0.79496 0.0
C2594 C 0.19523 0.49354 0.79696 0.0
C2595 C 0.20731 0.49154 0.78194 0.0
H2596 H 0.17632 0.50771 0.80661 0.0
H2597 H 0.29887 0.48534 0.6726 0.0
H2598 H 0.45341 0.24149 0.82076 0.0
H2599 H 0.47742 0.23508 0.80215 0.0
H2600 H 0.45418 0.23413 0.73808 0.0
H2601 H 0.43004 0.23938 0.75692 0.0
H2602 H 0.47489 0.21446 0.7362 0.0
H2603 H 0.47447 0.26676 0.76001 0.0
H2604 H 0.47232 0.28808 0.78683 0.0
H2605 H 0.51033 0.27059 0.82439 0.0
H2606 H 0.51258 0.24906 0.79792 0.0
H2607 H 0.53446 0.24876 0.66846 0.0
H2608 H 0.51141 0.2432 0.69019 0.0
H2609 H 0.53874 0.22177 0.7415 0.0
H2610 H 0.56184 0.22684 0.71952 0.0
H2611 H 0.51776 0.24972 0.75222 0.0
H2612 H 0.51917 0.19896 0.72111 0.0
H2613 H 0.52068 0.18037 0.69013 0.0
H2614 H 0.47972 0.1987 0.66119 0.0
H2615 H 0.47809 0.21755 0.69183 0.0
C2616 C 0.45344 0.23964 0.80276 0.0
C2617 C 0.43996 0.24105 0.7902 0.0
C2618 C 0.46717 0.23608 0.7921 0.0
C2619 C 0.46775 0.23457 0.76858 0.0
C2620 C 0.4541 0.23528 0.75621 0.0
C2621 C 0.4403 0.23833 0.76697 0.0
C2622 C 0.48258 0.23326 0.75666 0.0
C2623 C 0.48422 0.22222 0.7397 0.0
C2624 C 0.49489 0.24329 0.76123 0.0
C2625 C 0.49357 0.25622 0.77716 0.0
C2626 C 0.4823 0.26741 0.77408 0.0
C2627 C 0.48107 0.27954 0.7892 0.0
C2628 C 0.49115 0.28066 0.80734 0.0
C2629 C 0.50251 0.26968 0.81036 0.0
C2630 C 0.50377 0.25752 0.7953 0.0
C2631 C 0.53551 0.24256 0.68413 0.0
C2632 C 0.5499 0.23826 0.69237 0.0
C2633 C 0.52237 0.23936 0.69645 0.0
C2634 C 0.52346 0.23206 0.71733 0.0
C2635 C 0.53774 0.22732 0.7253 0.0
C2636 C 0.55087 0.2302 0.71274 0.0
C2637 C 0.50989 0.23108 0.73185 0.0
C2638 C 0.50849 0.2418 0.74914 0.0
C2639 C 0.49767 0.22113 0.72705 0.0
C2640 C 0.49859 0.20976 0.70867 0.0
C2641 C 0.51057 0.19913 0.70802 0.0
C2642 C 0.51143 0.18852 0.69055 0.0
C2643 C 0.50033 0.18838 0.67367 0.0
C2644 C 0.48832 0.19883 0.67427 0.0
C2645 C 0.48742 0.20946 0.6917 0.0
H2646 H 0.50101 0.18016 0.66016 0.0
H2647 H 0.49019 0.29005 0.81903 0.0
H2648 H 0.26018 0.53486 0.17491 0.0
H2649 H 0.254 0.51146 0.19495 0.0
H2650 H 0.21523 0.53351 0.2254 0.0
H2651 H 0.22155 0.55714 0.20566 0.0
H2652 H 0.23142 0.51979 0.25626 0.0
H2653 H 0.21011 0.50482 0.18681 0.0
H2654 H 0.20852 0.5011 0.1458 0.0
H2655 H 0.24666 0.47051 0.14834 0.0
H2656 H 0.24864 0.47421 0.18932 0.0
H2657 H 0.22298 0.4307 0.27388 0.0
H2658 H 0.21614 0.45417 0.25409 0.0
H2659 H 0.25528 0.47667 0.28301 0.0
H2660 H 0.26196 0.45345 0.30318 0.0
H2661 H 0.23124 0.46809 0.22264 0.0
H2662 H 0.24992 0.51385 0.2885 0.0
H2663 H 0.24914 0.51754 0.32956 0.0
H2664 H 0.21136 0.48661 0.33435 0.0
H2665 H 0.21176 0.48289 0.29329 0.0
C2666 C 0.2502 0.53468 0.18558 0.0
C2667 C 0.24139 0.54787 0.18877 0.0
C2668 C 0.24662 0.52126 0.19695 0.0
C2669 C 0.23407 0.52068 0.21156 0.0
C2670 C 0.22495 0.53369 0.2142 0.0
C2671 C 0.22856 0.54717 0.20286 0.0
C2672 C 0.23141 0.5069 0.22543 0.0
C2673 C 0.23121 0.50848 0.24891 0.0
C2674 C 0.23069 0.49217 0.21584 0.0
C2675 C 0.22956 0.48986 0.19117 0.0
C2676 C 0.21823 0.49738 0.17861 0.0
C2677 C 0.21725 0.49526 0.15537 0.0
C2678 C 0.22749 0.48559 0.14447 0.0
C2679 C 0.23872 0.47799 0.15681 0.0
C2680 C 0.23977 0.48008 0.18006 0.0
C2681 C 0.22998 0.44073 0.27631 0.0
C2682 C 0.24302 0.44023 0.29007 0.0
C2683 C 0.22607 0.45412 0.26495 0.0
C2684 C 0.23511 0.46723 0.26719 0.0
C2685 C 0.24794 0.46682 0.28135 0.0
C2686 C 0.2518 0.45349 0.29279 0.0
C2687 C 0.23198 0.48098 0.25345 0.0
C2688 C 0.23112 0.47939 0.23 0.0
C2689 C 0.23136 0.49571 0.26307 0.0
C2690 C 0.23093 0.49803 0.28779 0.0
C2691 C 0.24138 0.50791 0.29828 0.0
C2692 C 0.24102 0.50999 0.32157 0.0
C2693 C 0.23023 0.50229 0.33456 0.0
C2694 C 0.21975 0.49253 0.32428 0.0
C2695 C 0.22005 0.49041 0.301 0.0
H2696 H 0.22998 0.50391 0.35259 0.0
H2697 H 0.22671 0.48396 0.12647 0.0
H2698 H 0.55983 0.22271 0.27356 0.0
H2699 H 0.53674 0.21801 0.25126 0.0
H2700 H 0.51409 0.25498 0.28526 0.0
H2701 H 0.53701 0.25982 0.30741 0.0
H2702 H 0.50554 0.21213 0.26019 0.0
H2703 H 0.49767 0.27685 0.24551 0.0
H2704 H 0.51343 0.30011 0.24393 0.0
H2705 H 0.55232 0.2735 0.22459 0.0
H2706 H 0.53674 0.25013 0.22572 0.0
H2707 H 0.43139 0.23135 0.22106 0.0
H2708 H 0.45578 0.22692 0.2398 0.0
H2709 H 0.47952 0.24257 0.18062 0.0
H2710 H 0.45512 0.24768 0.16224 0.0
H2711 H 0.48995 0.25668 0.21425 0.0
H2712 H 0.48052 0.20415 0.19989 0.0
H2713 H 0.46592 0.18015 0.19935 0.0
H2714 H 0.46356 0.18059 0.27142 0.0
H2715 H 0.47797 0.2047 0.27239 0.0
C2716 C 0.54983 0.22966 0.27654 0.0
C2717 C 0.55029 0.24177 0.292 0.0
C2718 C 0.53666 0.22692 0.26385 0.0
C2719 C 0.52384 0.23629 0.26643 0.0
C2720 C 0.52397 0.24775 0.28286 0.0
C2721 C 0.53708 0.25049 0.29549 0.0
C2722 C 0.51082 0.23518 0.25068 0.0
C2723 C 0.50209 0.22181 0.25004 0.0
C2724 C 0.50666 0.24768 0.23703 0.0
C2725 C 0.51606 0.26173 0.2359 0.0
C2726 C 0.50956 0.27598 0.24081 0.0
C2727 C 0.51847 0.28918 0.24001 0.0
C2728 C 0.53387 0.28828 0.23423 0.0
C2729 C 0.5404 0.27418 0.22914 0.0
C2730 C 0.53154 0.26095 0.22989 0.0
C2731 C 0.44182 0.23358 0.21192 0.0
C2732 C 0.44139 0.23998 0.19028 0.0
C2733 C 0.45578 0.23095 0.22259 0.0
C2734 C 0.46954 0.23432 0.2116 0.0
C2735 C 0.46907 0.23994 0.1895 0.0
C2736 C 0.45513 0.24284 0.17899 0.0
C2737 C 0.48426 0.23369 0.22396 0.0
C2738 C 0.49336 0.24684 0.22408 0.0
C2739 C 0.48887 0.22085 0.23669 0.0
C2740 C 0.48025 0.2063 0.23619 0.0
C2741 C 0.4768 0.19919 0.21562 0.0
C2742 C 0.46857 0.18555 0.21524 0.0
C2743 C 0.4638 0.17886 0.23534 0.0
C2744 C 0.46727 0.18578 0.25587 0.0
C2745 C 0.47549 0.19943 0.25634 0.0
H2746 H 0.45742 0.16831 0.23501 0.0
H2747 H 0.54075 0.29851 0.23364 0.0
H2748 H 0.72355 0.53891 0.29387 0.0
H2749 H 0.7301 0.51516 0.27518 0.0
H2750 H 0.77562 0.53189 0.26308 0.0
H2751 H 0.76897 0.55604 0.28135 0.0
H2752 H 0.76464 0.51888 0.22651 0.0
H2753 H 0.769 0.5041 0.30311 0.0
H2754 H 0.76122 0.50194 0.34278 0.0
H2755 H 0.72187 0.47599 0.32324 0.0
H2756 H 0.72929 0.47816 0.28343 0.0
H2757 H 0.76578 0.42918 0.21459 0.0
H2758 H 0.7722 0.45256 0.23505 0.0
H2759 H 0.74006 0.47763 0.19443 0.0
H2760 H 0.73356 0.45439 0.17403 0.0
H2761 H 0.75214 0.46875 0.26028 0.0
H2762 H 0.75242 0.51379 0.18807 0.0
H2763 H 0.76128 0.51576 0.14887 0.0
H2764 H 0.79433 0.48062 0.16094 0.0
H2765 H 0.78583 0.47859 0.20029 0.0
C2766 C 0.735 0.53753 0.28738 0.0
C2767 C 0.74577 0.54933 0.28914 0.0
C2768 C 0.73876 0.52389 0.27682 0.0
C2769 C 0.75344 0.52163 0.26811 0.0
C2770 C 0.76426 0.53337 0.26982 0.0
C2771 C 0.76045 0.54713 0.28027 0.0
C2772 C 0.75709 0.50721 0.25634 0.0
C2773 C 0.76208 0.50791 0.23396 0.0
C2774 C 0.75412 0.49285 0.26626 0.0
C2775 C 0.7497 0.49134 0.29025 0.0
C2776 C 0.75865 0.49799 0.30726 0.0
C2777 C 0.7543 0.49676 0.32978 0.0
C2778 C 0.74105 0.48884 0.33553 0.0
C2779 C 0.73214 0.48211 0.31877 0.0
C2780 C 0.73643 0.48331 0.29622 0.0
C2781 C 0.76029 0.43974 0.20978 0.0
C2782 C 0.7491 0.43996 0.19281 0.0
C2783 C 0.76395 0.45305 0.22149 0.0
C2784 C 0.75667 0.46681 0.21615 0.0
C2785 C 0.74596 0.46716 0.19861 0.0
C2786 C 0.74219 0.45386 0.18706 0.0
C2787 C 0.75899 0.48052 0.2302 0.0
C2788 C 0.75507 0.47969 0.253 0.0
C2789 C 0.76313 0.4947 0.22075 0.0
C2790 C 0.76841 0.49598 0.19713 0.0
C2791 C 0.76163 0.50654 0.18241 0.0
C2792 C 0.76658 0.50766 0.16014 0.0
C2793 C 0.77834 0.4983 0.15241 0.0
C2794 C 0.78519 0.48783 0.16693 0.0
C2795 C 0.78029 0.48668 0.18921 0.0
H2796 H 0.78215 0.49918 0.13516 0.0
H2797 H 0.7377 0.48792 0.35297 0.0
H2798 H 0.45181 0.72686 0.30499 0.0
H2799 H 0.47481 0.73455 0.28511 0.0
H2800 H 0.45126 0.7737 0.25829 0.0
H2801 H 0.428 0.76588 0.27789 0.0
H2802 H 0.46614 0.75954 0.22612 0.0
H2803 H 0.47925 0.77837 0.29793 0.0
H2804 H 0.48228 0.7782 0.33913 0.0
H2805 H 0.51451 0.74157 0.33417 0.0
H2806 H 0.51152 0.74135 0.29295 0.0
H2807 H 0.55543 0.7704 0.21199 0.0
H2808 H 0.53144 0.77673 0.23086 0.0
H2809 H 0.51008 0.73751 0.20046 0.0
H2810 H 0.53381 0.73128 0.18141 0.0
H2811 H 0.51738 0.76032 0.26156 0.0
H2812 H 0.473 0.74269 0.19278 0.0
H2813 H 0.46995 0.74478 0.15169 0.0
H2814 H 0.50013 0.78328 0.15076 0.0
H2815 H 0.5032 0.78158 0.19188 0.0
C2816 C 0.45154 0.73719 0.29505 0.0
C2817 C 0.43808 0.74575 0.29298 0.0
C2818 C 0.46474 0.74164 0.2838 0.0
C2819 C 0.46482 0.75482 0.27045 0.0
C2820 C 0.45146 0.76352 0.26858 0.0
C2821 C 0.4382 0.75905 0.27981 0.0
C2822 C 0.47862 0.75876 0.25732 0.0
C2823 C 0.47734 0.75989 0.23386 0.0
C2824 C 0.49318 0.7597 0.2675 0.0
C2825 C 0.49511 0.75982 0.29231 0.0
C2826 C 0.48692 0.77021 0.30562 0.0
C2827 C 0.48864 0.77019 0.32899 0.0
C2828 C 0.49857 0.75987 0.33926 0.0
C2829 C 0.50682 0.74956 0.32618 0.0
C2830 C 0.50515 0.74953 0.30281 0.0
C2831 C 0.54553 0.7633 0.20903 0.0
C2832 C 0.54651 0.75031 0.19528 0.0
C2833 C 0.53186 0.76691 0.21985 0.0
C2834 C 0.51893 0.75767 0.21693 0.0
C2835 C 0.5198 0.74498 0.20265 0.0
C2836 C 0.53343 0.74136 0.19187 0.0
C2837 C 0.50494 0.76028 0.23031 0.0
C2838 C 0.50617 0.76035 0.25382 0.0
C2839 C 0.49033 0.76075 0.22019 0.0
C2840 C 0.48838 0.76195 0.19545 0.0
C2841 C 0.47891 0.75167 0.18385 0.0
C2842 C 0.4772 0.75277 0.16053 0.0
C2843 C 0.48486 0.76414 0.14862 0.0
C2844 C 0.49423 0.77446 0.16 0.0
C2845 C 0.49598 0.77341 0.18331 0.0
H2846 H 0.48353 0.76496 0.13057 0.0
H2847 H 0.49987 0.75987 0.35735 0.0
H2848 H 0.21217 0.12178 0.22778 0.0
H2849 H 0.19261 0.13749 0.2454 0.0
H2850 H 0.15829 0.11677 0.20321 0.0
H2851 H 0.17794 0.10142 0.18493 0.0
H2852 H 0.15449 0.14578 0.20283 0.0
H2853 H 0.16115 0.10902 0.26088 0.0
H2854 H 0.17528 0.0931 0.28796 0.0
H2855 H 0.19189 0.13322 0.32122 0.0
H2856 H 0.17802 0.1494 0.29416 0.0
H2857 H 0.10503 0.17709 0.3031 0.0
H2858 H 0.11991 0.157 0.28514 0.0
H2859 H 0.14108 0.19044 0.24211 0.0
H2860 H 0.12582 0.21052 0.25951 0.0
H2861 H 0.1489 0.15259 0.28515 0.0
H2862 H 0.15203 0.1749 0.19323 0.0
H2863 H 0.13588 0.18888 0.16624 0.0
H2864 H 0.09569 0.17379 0.20081 0.0
H2865 H 0.11158 0.15955 0.22782 0.0
C2866 C 0.20043 0.12042 0.22247 0.0
C2867 C 0.19658 0.11039 0.20496 0.0
C2868 C 0.18924 0.12938 0.23262 0.0
C2869 C 0.17393 0.12824 0.22577 0.0
C2870 C 0.17002 0.11789 0.20873 0.0
C2871 C 0.18124 0.10908 0.19837 0.0
C2872 C 0.16219 0.13844 0.23551 0.0
C2873 C 0.15321 0.1472 0.22084 0.0
C2874 C 0.1603 0.14011 0.259 0.0
C2875 C 0.16863 0.13042 0.27538 0.0
C2876 C 0.1679 0.11445 0.27388 0.0
C2877 C 0.17585 0.10538 0.28924 0.0
C2878 C 0.1845 0.11214 0.30627 0.0
C2879 C 0.18519 0.128 0.30801 0.0
C2880 C 0.17727 0.13713 0.29268 0.0
C2881 C 0.1127 0.18013 0.28961 0.0
C2882 C 0.11425 0.19535 0.2827 0.0
C2883 C 0.12125 0.16865 0.2794 0.0
C2884 C 0.13157 0.17218 0.26218 0.0
C2885 C 0.13299 0.18738 0.25506 0.0
C2886 C 0.1243 0.19884 0.26508 0.0
C2887 C 0.14137 0.1601 0.25247 0.0
C2888 C 0.15006 0.15105 0.26714 0.0
C2889 C 0.14268 0.15787 0.229 0.0
C2890 C 0.13302 0.16626 0.21267 0.0
C2891 C 0.13974 0.17451 0.19501 0.0
C2892 C 0.13064 0.18249 0.17972 0.0
C2893 C 0.11477 0.18226 0.18184 0.0
C2894 C 0.10798 0.17401 0.19923 0.0
C2895 C 0.11703 0.16599 0.21455 0.0
H2896 H 0.10775 0.18846 0.17 0.0
H2897 H 0.19065 0.1051 0.31815 0.0
H2898 H 0.87376 0.1819 0.16478 0.0
H2899 H 0.85786 0.16238 0.1823 0.0
H2900 H 0.86725 0.18149 0.24762 0.0
H2901 H 0.88295 0.2014 0.23015 0.0
H2902 H 0.8683 0.14624 0.24103 0.0
H2903 H 0.83717 0.19178 0.23112 0.0
H2904 H 0.82695 0.21292 0.20834 0.0
H2905 H 0.80716 0.1809 0.16217 0.0
H2906 H 0.8175 0.15956 0.1845 0.0
H2907 H 0.80998 0.11523 0.30817 0.0
H2908 H 0.82909 0.1306 0.28911 0.0
H2909 H 0.80559 0.12393 0.22602 0.0
H2910 H 0.78595 0.10905 0.24535 0.0
H2911 H 0.81253 0.15201 0.22957 0.0
H2912 H 0.84105 0.10643 0.23923 0.0
H2913 H 0.85194 0.08438 0.25926 0.0
H2914 H 0.87722 0.11443 0.30239 0.0
H2915 H 0.86632 0.13668 0.28282 0.0
C2916 C 0.87262 0.18186 0.18291 0.0
C2917 C 0.87951 0.19322 0.19613 0.0
C2918 C 0.86354 0.17071 0.19284 0.0
C2919 C 0.86141 0.17059 0.21616 0.0
C2920 C 0.86884 0.18144 0.22957 0.0
C2921 C 0.87772 0.1928 0.21959 0.0
C2922 C 0.85051 0.1598 0.22626 0.0
C2923 C 0.85609 0.14752 0.23883 0.0
C2924 C 0.83468 0.16128 0.22255 0.0
C2925 C 0.82826 0.17409 0.20933 0.0
C2926 C 0.83076 0.18925 0.21599 0.0
C2927 C 0.82493 0.20127 0.20319 0.0
C2928 C 0.81645 0.19826 0.18378 0.0
C2929 C 0.81375 0.18322 0.17719 0.0
C2930 C 0.81959 0.17116 0.18992 0.0
C2931 C 0.80896 0.11688 0.29018 0.0
C2932 C 0.79647 0.11094 0.27822 0.0
C2933 C 0.81997 0.12561 0.27926 0.0
C2934 C 0.81895 0.12825 0.25603 0.0
C2935 C 0.80664 0.12203 0.24395 0.0
C2936 C 0.79545 0.11351 0.25497 0.0
C2937 C 0.8302 0.1383 0.24473 0.0
C2938 C 0.82472 0.15053 0.23182 0.0
C2939 C 0.84615 0.13658 0.24785 0.0
C2940 C 0.85276 0.12323 0.25966 0.0
C2941 C 0.84884 0.10834 0.25309 0.0
C2942 C 0.85503 0.0958 0.26435 0.0
C2943 C 0.86524 0.098 0.28212 0.0
C2944 C 0.8693 0.11274 0.28863 0.0
C2945 C 0.86314 0.12532 0.27744 0.0
H2946 H 0.87002 0.08828 0.29081 0.0
H2947 H 0.81194 0.20757 0.17389 0.0
H2948 H 0.87603 0.78885 0.25512 0.0
H2949 H 0.85954 0.80888 0.23957 0.0
H2950 H 0.85153 0.82618 0.30631 0.0
H2951 H 0.86834 0.80658 0.32192 0.0
H2952 H 0.82409 0.81811 0.27238 0.0
H2953 H 0.87035 0.8477 0.28514 0.0
H2954 H 0.89798 0.85227 0.28159 0.0
H2955 H 0.89409 0.85102 0.20966 0.0
H2956 H 0.86645 0.8462 0.21281 0.0
H2957 H 0.78061 0.88206 0.23821 0.0
H2958 H 0.7988 0.86626 0.25907 0.0
H2959 H 0.8257 0.86078 0.19893 0.0
H2960 H 0.80799 0.87695 0.17836 0.0
H2961 H 0.84392 0.86361 0.2325 0.0
H2962 H 0.7994 0.83347 0.21732 0.0
H2963 H 0.77202 0.82709 0.21778 0.0
H2964 H 0.77244 0.82703 0.28995 0.0
H2965 H 0.79981 0.83362 0.28991 0.0
C2966 C 0.87084 0.797 0.26642 0.0
C2967 C 0.87348 0.79621 0.28968 0.0
C2968 C 0.86146 0.80839 0.25755 0.0
C2969 C 0.85439 0.81891 0.27187 0.0
C2970 C 0.85694 0.81812 0.29507 0.0
C2971 C 0.86658 0.80697 0.3039 0.0
C2972 C 0.8441 0.8306 0.26258 0.0
C2973 C 0.82834 0.82822 0.26397 0.0
C2974 C 0.84979 0.84346 0.25113 0.0
C2975 C 0.86638 0.8464 0.24922 0.0
C2976 C 0.87541 0.84823 0.26857 0.0
C2977 C 0.89107 0.85091 0.26664 0.0
C2978 C 0.8978 0.85189 0.24542 0.0
C2979 C 0.88887 0.85023 0.22609 0.0
C2980 C 0.87321 0.84754 0.22794 0.0
C2981 C 0.79051 0.87763 0.22956 0.0
C2982 C 0.79282 0.88064 0.20663 0.0
C2983 C 0.80085 0.86854 0.24144 0.0
C2984 C 0.81347 0.86209 0.23045 0.0
C2985 C 0.81606 0.8656 0.20778 0.0
C2986 C 0.80588 0.87483 0.19602 0.0
C2987 C 0.82372 0.85121 0.24213 0.0
C2988 C 0.83953 0.85365 0.24113 0.0
C2989 C 0.81805 0.83821 0.25353 0.0
C2990 C 0.80161 0.83422 0.25361 0.0
C2991 C 0.79363 0.83221 0.23328 0.0
C2992 C 0.77812 0.82854 0.23347 0.0
C2993 C 0.77048 0.8267 0.25388 0.0
C2994 C 0.77836 0.82849 0.27415 0.0
C2995 C 0.79387 0.83219 0.27406 0.0
H2996 H 0.75847 0.82386 0.25398 0.0
H2997 H 0.90992 0.85397 0.24395 0.0
H2998 H 0.18191 0.87446 0.31459 0.0
H2999 H 0.16207 0.85844 0.298 0.0
H3000 H 0.18297 0.86324 0.23286 0.0
H3001 H 0.20316 0.87908 0.24944 0.0
H3002 H 0.14842 0.8663 0.23612 0.0
H3003 H 0.19108 0.83342 0.25573 0.0
H3004 H 0.21038 0.82343 0.28207 0.0
H3005 H 0.17498 0.80864 0.32678 0.0
H3006 H 0.15546 0.81879 0.30085 0.0
H3007 H 0.11616 0.80619 0.17428 0.0
H3008 H 0.13204 0.82531 0.19237 0.0
H3009 H 0.12116 0.80631 0.25734 0.0
H3010 H 0.10583 0.7865 0.23904 0.0
H3011 H 0.14958 0.81145 0.25624 0.0
H3012 H 0.10666 0.84202 0.23742 0.0
H3013 H 0.0864 0.85285 0.21349 0.0
H3014 H 0.12015 0.87293 0.1705 0.0
H3015 H 0.14062 0.86204 0.194 0.0
C3016 C 0.18222 0.87226 0.29668 0.0
C3017 C 0.19413 0.87794 0.2833 0.0
C3018 C 0.17088 0.86311 0.28727 0.0
C3019 C 0.17115 0.85967 0.2643 0.0
C3020 C 0.18262 0.86584 0.25066 0.0
C3021 C 0.19414 0.87481 0.26013 0.0
C3022 C 0.15998 0.84883 0.25486 0.0
C3023 C 0.1487 0.85427 0.24024 0.0
C3024 C 0.16011 0.8333 0.26105 0.0
C3025 C 0.17183 0.82701 0.27648 0.0
C3026 C 0.18742 0.82816 0.27127 0.0
C3027 C 0.1984 0.82245 0.28611 0.0
C3028 C 0.19391 0.81544 0.30612 0.0
C3029 C 0.17844 0.81409 0.31129 0.0
C3030 C 0.16741 0.81981 0.29653 0.0
C3031 C 0.117 0.80616 0.19245 0.0
C3032 C 0.10974 0.79486 0.20528 0.0
C3033 C 0.12602 0.81719 0.20281 0.0
C3034 C 0.12761 0.81748 0.22629 0.0
C3035 C 0.1201 0.80636 0.2392 0.0
C3036 C 0.11131 0.79508 0.22877 0.0
C3037 C 0.13788 0.82879 0.23712 0.0
C3038 C 0.14908 0.82347 0.2521 0.0
C3039 C 0.13747 0.84449 0.23155 0.0
C3040 C 0.12518 0.85111 0.21739 0.0
C3041 C 0.10977 0.84866 0.22277 0.0
C3042 C 0.09824 0.85482 0.2093 0.0
C3043 C 0.10199 0.86355 0.19046 0.0
C3044 C 0.11727 0.86616 0.18509 0.0
C3045 C 0.12884 0.86001 0.1985 0.0
H3046 H 0.09305 0.86831 0.18005 0.0
H3047 H 0.20243 0.81103 0.31759 0.0
H3048 H 0.86322 0.77631 0.72907 0.0
H3049 H 0.8466 0.7966 0.74288 0.0
H3050 H 0.86908 0.82877 0.69924 0.0
H3051 H 0.88541 0.80847 0.68491 0.0
H3052 H 0.84991 0.82252 0.76386 0.0
H3053 H 0.84334 0.85381 0.67833 0.0
H3054 H 0.84425 0.84786 0.63782 0.0
H3055 H 0.83216 0.80141 0.65166 0.0
H3056 H 0.83094 0.80714 0.69219 0.0
H3057 H 0.8123 0.89062 0.78704 0.0
H3058 H 0.83097 0.87349 0.77006 0.0
H3059 H 0.79515 0.85192 0.73172 0.0
H3060 H 0.77651 0.8694 0.74805 0.0
H3061 H 0.82035 0.85239 0.70792 0.0
H3062 H 0.8066 0.83761 0.78246 0.0
H3063 H 0.80276 0.84138 0.82313 0.0
H3064 H 0.85059 0.8502 0.83165 0.0
H3065 H 0.85466 0.84675 0.79094 0.0
C3066 C 0.86473 0.78774 0.72261 0.0
C3067 C 0.87549 0.79078 0.70573 0.0
C3068 C 0.85523 0.79933 0.73051 0.0
C3069 C 0.85639 0.81414 0.72176 0.0
C3070 C 0.86773 0.81736 0.70585 0.0
C3071 C 0.87712 0.80576 0.69777 0.0
C3072 C 0.84539 0.82607 0.72865 0.0
C3073 C 0.8435 0.82908 0.75162 0.0
C3074 C 0.83673 0.83439 0.7127 0.0
C3075 C 0.83723 0.83088 0.68831 0.0
C3076 C 0.84082 0.84235 0.67271 0.0
C3077 C 0.84139 0.83901 0.64975 0.0
C3078 C 0.83832 0.82426 0.64218 0.0
C3079 C 0.8346 0.81282 0.65755 0.0
C3080 C 0.83398 0.8161 0.68052 0.0
C3081 C 0.80847 0.88245 0.7746 0.0
C3082 C 0.79295 0.8812 0.76906 0.0
C3083 C 0.81912 0.87262 0.76501 0.0
C3084 C 0.81438 0.86117 0.7501 0.0
C3085 C 0.79905 0.86062 0.7433 0.0
C3086 C 0.78841 0.87061 0.75265 0.0
C3087 C 0.8251 0.84901 0.74309 0.0
C3088 C 0.82688 0.84592 0.72013 0.0
C3089 C 0.83326 0.84024 0.75907 0.0
C3090 C 0.83091 0.84206 0.78362 0.0
C3091 C 0.81628 0.84044 0.79299 0.0
C3092 C 0.81406 0.84252 0.81605 0.0
C3093 C 0.82642 0.84606 0.82996 0.0
C3094 C 0.84102 0.84748 0.82085 0.0
C3095 C 0.84329 0.84546 0.79778 0.0
H3096 H 0.82468 0.84767 0.84781 0.0
H3097 H 0.83879 0.8217 0.6244 0.0
H3098 H 0.19985 0.88514 0.73393 0.0
H3099 H 0.17995 0.86973 0.75161 0.0
H3100 H 0.16218 0.85798 0.68614 0.0
H3101 H 0.18155 0.87391 0.66851 0.0
H3102 H 0.13957 0.86129 0.713 0.0
H3103 H 0.18665 0.83395 0.71661 0.0
H3104 H 0.21379 0.82973 0.72558 0.0
H3105 H 0.2044 0.83579 0.79582 0.0
H3106 H 0.17723 0.84025 0.78723 0.0
H3107 H 0.10688 0.78854 0.74588 0.0
H3108 H 0.12221 0.80877 0.72855 0.0
H3109 H 0.12893 0.82944 0.79355 0.0
H3110 H 0.11343 0.80957 0.8109 0.0
H3111 H 0.15641 0.82193 0.76748 0.0
H3112 H 0.10786 0.84767 0.76139 0.0
H3113 H 0.08092 0.84986 0.74992 0.0
H3114 H 0.09362 0.84396 0.6808 0.0
H3115 H 0.12063 0.84151 0.69191 0.0
C3116 C 0.19158 0.8794 0.72336 0.0
C3117 C 0.19232 0.88061 0.69987 0.0
C3118 C 0.18026 0.87053 0.73345 0.0
C3119 C 0.16977 0.8624 0.72018 0.0
C3120 C 0.17015 0.8641 0.69674 0.0
C3121 C 0.18127 0.87319 0.68668 0.0
C3122 C 0.15881 0.85162 0.73058 0.0
C3123 C 0.1433 0.85261 0.72476 0.0
C3124 C 0.16361 0.8403 0.74601 0.0
C3125 C 0.17994 0.8376 0.75125 0.0
C3126 C 0.1904 0.83449 0.73395 0.0
C3127 C 0.20578 0.83204 0.73897 0.0
C3128 C 0.21082 0.83253 0.76125 0.0
C3129 C 0.20048 0.83544 0.77856 0.0
C3130 C 0.18509 0.83792 0.77363 0.0
C3131 C 0.11142 0.79754 0.75639 0.0
C3132 C 0.10902 0.79744 0.77974 0.0
C3133 C 0.12014 0.80907 0.74649 0.0
C3134 C 0.12667 0.82052 0.75984 0.0
C3135 C 0.12395 0.82067 0.78302 0.0
C3136 C 0.11506 0.80933 0.79287 0.0
C3137 C 0.13729 0.83171 0.74997 0.0
C3138 C 0.15273 0.83071 0.75582 0.0
C3139 C 0.13247 0.84273 0.7342 0.0
C3140 C 0.11625 0.84425 0.72751 0.0
C3141 C 0.10489 0.84669 0.74377 0.0
C3142 C 0.08961 0.84801 0.73733 0.0
C3143 C 0.08556 0.84701 0.71465 0.0
C3144 C 0.09678 0.84472 0.69836 0.0
C3145 C 0.11208 0.84338 0.70472 0.0
H3146 H 0.07372 0.84804 0.7097 0.0
H3147 H 0.22274 0.83063 0.7651 0.0
H3148 H 0.10594 0.17361 0.67281 0.0
H3149 H 0.11999 0.152 0.68853 0.0
H3150 H 0.13333 0.17964 0.74528 0.0
H3151 H 0.11887 0.20098 0.73013 0.0
H3152 H 0.14855 0.14879 0.69459 0.0
H3153 H 0.14036 0.15959 0.79088 0.0
H3154 H 0.11997 0.16784 0.81662 0.0
H3155 H 0.08608 0.15354 0.7689 0.0
H3156 H 0.10625 0.145 0.743 0.0
H3157 H 0.21153 0.12409 0.75711 0.0
H3158 H 0.19041 0.13664 0.73791 0.0
H3159 H 0.15849 0.10724 0.77208 0.0
H3160 H 0.17962 0.09524 0.7923 0.0
H3161 H 0.14846 0.13374 0.77492 0.0
H3162 H 0.16594 0.10504 0.71299 0.0
H3163 H 0.18434 0.09418 0.68614 0.0
H3164 H 0.19575 0.13908 0.66302 0.0
H3165 H 0.17758 0.15024 0.68995 0.0
C3166 C 0.11165 0.17496 0.68885 0.0
C3167 C 0.11131 0.18898 0.70024 0.0
C3168 C 0.11971 0.16263 0.69777 0.0
C3169 C 0.12764 0.16412 0.71819 0.0
C3170 C 0.12704 0.17805 0.72978 0.0
C3171 C 0.11882 0.1903 0.72102 0.0
C3172 C 0.13749 0.1516 0.72664 0.0
C3173 C 0.14843 0.14537 0.71211 0.0
C3174 C 0.13706 0.14676 0.74931 0.0
C3175 C 0.12484 0.15174 0.76493 0.0
C3176 C 0.12856 0.15812 0.78592 0.0
C3177 C 0.11704 0.16287 0.80053 0.0
C3178 C 0.10174 0.16124 0.79438 0.0
C3179 C 0.09793 0.15483 0.77362 0.0
C3180 C 0.10941 0.15006 0.75895 0.0
C3181 C 0.20002 0.12015 0.76026 0.0
C3182 C 0.19718 0.10874 0.77622 0.0
C3183 C 0.18794 0.12727 0.74915 0.0
C3184 C 0.1728 0.12279 0.75328 0.0
C3185 C 0.17003 0.11094 0.76862 0.0
C3186 C 0.1821 0.10406 0.78011 0.0
C3187 C 0.15991 0.13135 0.74307 0.0
C3188 C 0.14841 0.13688 0.75729 0.0
C3189 C 0.15951 0.13512 0.71994 0.0
C3190 C 0.17043 0.12848 0.7036 0.0
C3191 C 0.17244 0.11261 0.70228 0.0
C3192 C 0.18283 0.1064 0.68703 0.0
C3193 C 0.19122 0.11593 0.6729 0.0
C3194 C 0.18923 0.1317 0.67397 0.0
C3195 C 0.17887 0.13798 0.6892 0.0
H3196 H 0.19926 0.1111 0.66111 0.0
H3197 H 0.09284 0.16493 0.80571 0.0
H3198 H 0.86541 0.2121 0.75274 0.0
H3199 H 0.84868 0.19227 0.73785 0.0
H3200 H 0.87048 0.15909 0.78069 0.0
H3201 H 0.88691 0.17899 0.79621 0.0
H3202 H 0.8514 0.1668 0.71604 0.0
H3203 H 0.84424 0.13395 0.79986 0.0
H3204 H 0.84573 0.13887 0.84064 0.0
H3205 H 0.83484 0.18594 0.82948 0.0
H3206 H 0.83306 0.18125 0.7887 0.0
H3207 H 0.81026 0.10073 0.69061 0.0
H3208 H 0.82983 0.11688 0.7076 0.0
H3209 H 0.79538 0.13965 0.7469 0.0
H3210 H 0.7758 0.12321 0.73044 0.0
H3211 H 0.82071 0.13707 0.77065 0.0
H3212 H 0.8074 0.15436 0.69696 0.0
H3213 H 0.80325 0.15194 0.65611 0.0
H3214 H 0.85049 0.14079 0.64689 0.0
H3215 H 0.85487 0.1429 0.68776 0.0
C3216 C 0.86677 0.20055 0.75879 0.0
C3217 C 0.87734 0.19712 0.77584 0.0
C3218 C 0.85721 0.18921 0.75025 0.0
C3219 C 0.85812 0.17426 0.75848 0.0
C3220 C 0.86933 0.17063 0.77448 0.0
C3221 C 0.87877 0.18199 0.78324 0.0
C3222 C 0.84685 0.16268 0.75109 0.0
C3223 C 0.84477 0.16024 0.72799 0.0
C3224 C 0.83791 0.15438 0.76667 0.0
C3225 C 0.83869 0.15727 0.79121 0.0
C3226 C 0.84211 0.14533 0.80613 0.0
C3227 C 0.84301 0.14808 0.82924 0.0
C3228 C 0.84044 0.16272 0.83764 0.0
C3229 C 0.83688 0.17462 0.82295 0.0
C3230 C 0.83593 0.17192 0.79984 0.0
C3231 C 0.8069 0.109 0.70318 0.0
C3232 C 0.79149 0.11086 0.709 0.0
C3233 C 0.81808 0.11825 0.7128 0.0
C3234 C 0.81401 0.1297 0.72811 0.0
C3235 C 0.79876 0.13093 0.73502 0.0
C3236 C 0.78758 0.12155 0.72559 0.0
C3237 C 0.82542 0.14107 0.73563 0.0
C3238 C 0.82749 0.1435 0.75873 0.0
C3239 C 0.83398 0.14976 0.72005 0.0
C3240 C 0.83142 0.14864 0.69544 0.0
C3241 C 0.81688 0.15129 0.68623 0.0
C3242 C 0.81448 0.14998 0.66308 0.0
C3243 C 0.82659 0.14618 0.64892 0.0
C3244 C 0.84112 0.14371 0.65788 0.0
C3245 C 0.84356 0.14497 0.68104 0.0
H3246 H 0.82471 0.14517 0.63099 0.0
H3247 H 0.84117 0.16483 0.85553 0.0
H3248 H 0.70428 0.61175 0.72883 0.0
H3249 H 0.68464 0.62721 0.74724 0.0
H3250 H 0.66004 0.63051 0.68461 0.0
H3251 H 0.67942 0.6149 0.66618 0.0
H3252 H 0.66616 0.65904 0.70745 0.0
H3253 H 0.64556 0.60885 0.72147 0.0
H3254 H 0.64677 0.5824 0.73524 0.0
H3255 H 0.65661 0.59849 0.80187 0.0
H3256 H 0.65568 0.62505 0.78841 0.0
H3257 H 0.60322 0.69925 0.75029 0.0
H3258 H 0.61837 0.68 0.73066 0.0
H3259 H 0.63634 0.66434 0.79422 0.0
H3260 H 0.62054 0.68286 0.81386 0.0
H3261 H 0.63287 0.64125 0.76945 0.0
H3262 H 0.65596 0.69014 0.75774 0.0
H3263 H 0.65713 0.71709 0.74614 0.0
H3264 H 0.64577 0.70446 0.67842 0.0
H3265 H 0.64435 0.67744 0.68969 0.0
C3266 C 0.69462 0.61568 0.71906 0.0
C3267 C 0.69338 0.61214 0.69609 0.0
C3268 C 0.68342 0.62445 0.72958 0.0
C3269 C 0.67093 0.62993 0.71723 0.0
C3270 C 0.66961 0.62634 0.69437 0.0
C3271 C 0.68067 0.6174 0.68392 0.0
C3272 C 0.65955 0.63996 0.72792 0.0
C3273 C 0.65869 0.65514 0.72079 0.0
C3274 C 0.65023 0.6349 0.74576 0.0
C3275 C 0.65069 0.61894 0.75388 0.0
C3276 C 0.64811 0.60675 0.73902 0.0
C3277 C 0.64872 0.59173 0.74677 0.0
C3278 C 0.6518 0.58876 0.7694 0.0
C3279 C 0.65424 0.6008 0.78434 0.0
C3280 C 0.65366 0.61584 0.77666 0.0
C3281 C 0.61026 0.69154 0.76002 0.0
C3282 C 0.61081 0.6926 0.78355 0.0
C3283 C 0.619 0.68062 0.74881 0.0
C3284 C 0.62882 0.67096 0.7609 0.0
C3285 C 0.6289 0.67167 0.78448 0.0
C3286 C 0.61989 0.6823 0.7957 0.0
C3287 C 0.63945 0.6605 0.74911 0.0
C3288 C 0.64023 0.64522 0.75604 0.0
C3289 C 0.64901 0.66557 0.73144 0.0
C3290 C 0.64988 0.6818 0.72461 0.0
C3291 C 0.65361 0.69313 0.74041 0.0
C3292 C 0.65433 0.70841 0.73389 0.0
C3293 C 0.65148 0.71249 0.71158 0.0
C3294 C 0.64794 0.70128 0.69571 0.0
C3295 C 0.64719 0.68599 0.70215 0.0
H3296 H 0.65205 0.72432 0.70656 0.0
H3297 H 0.65227 0.57713 0.77538 0.0
H3298 H 0.28011 0.62533 0.75463 0.0
H3299 H 0.30059 0.6393 0.7362 0.0
H3300 H 0.33387 0.61029 0.76835 0.0
H3301 H 0.31335 0.59683 0.78788 0.0
H3302 H 0.34289 0.63721 0.77251 0.0
H3303 H 0.32556 0.60917 0.70922 0.0
H3304 H 0.30701 0.59857 0.68223 0.0
H3305 H 0.29434 0.64375 0.66187 0.0
H3306 H 0.31267 0.65463 0.68895 0.0
H3307 H 0.38546 0.67759 0.67168 0.0
H3308 H 0.37102 0.65616 0.68705 0.0
H3309 H 0.35722 0.68403 0.7432 0.0
H3310 H 0.37199 0.70528 0.72831 0.0
H3311 H 0.34202 0.65339 0.69266 0.0
H3312 H 0.35045 0.66339 0.78891 0.0
H3313 H 0.37078 0.67181 0.8148 0.0
H3314 H 0.40478 0.6582 0.76705 0.0
H3315 H 0.38469 0.6495 0.74101 0.0
C3316 C 0.29179 0.62178 0.7575 0.0
C3317 C 0.29517 0.61001 0.77267 0.0
C3318 C 0.30351 0.62973 0.74684 0.0
C3319 C 0.31883 0.62575 0.75059 0.0
C3320 C 0.32217 0.61361 0.76518 0.0
C3321 C 0.31045 0.60589 0.77626 0.0
C3322 C 0.33131 0.635 0.74066 0.0
C3323 C 0.34276 0.64062 0.75499 0.0
C3324 C 0.33143 0.6392 0.71767 0.0
C3325 C 0.32045 0.63271 0.70122 0.0
C3326 C 0.31876 0.61684 0.69908 0.0
C3327 C 0.30829 0.61079 0.68375 0.0
C3328 C 0.29949 0.62048 0.67036 0.0
C3329 C 0.30117 0.63625 0.67224 0.0
C3330 C 0.31161 0.64237 0.68756 0.0
C3331 C 0.37954 0.67906 0.68748 0.0
C3332 C 0.37984 0.69311 0.69879 0.0
C3333 C 0.37125 0.66682 0.6962 0.0
C3334 C 0.36311 0.66843 0.71635 0.0
C3335 C 0.36365 0.68239 0.72786 0.0
C3336 C 0.37204 0.69457 0.71927 0.0
C3337 C 0.35326 0.6559 0.72468 0.0
C3338 C 0.34229 0.64974 0.71007 0.0
C3339 C 0.35386 0.65083 0.74723 0.0
C3340 C 0.36604 0.65589 0.76293 0.0
C3341 C 0.36227 0.66212 0.78398 0.0
C3342 C 0.37375 0.66696 0.79867 0.0
C3343 C 0.38906 0.66557 0.79255 0.0
C3344 C 0.39292 0.65931 0.77174 0.0
C3345 C 0.38149 0.65444 0.757 0.0
H3346 H 0.39793 0.66934 0.80394 0.0
H3347 H 0.29138 0.61577 0.65851 0.0
H3348 H 0.38436 0.29136 0.75021 0.0
H3349 H 0.36949 0.31215 0.73351 0.0
H3350 H 0.36211 0.33124 0.79936 0.0
H3351 H 0.3772 0.31073 0.81614 0.0
H3352 H 0.33495 0.32493 0.77204 0.0
H3353 H 0.3836 0.35027 0.76868 0.0
H3354 H 0.41078 0.35254 0.75873 0.0
H3355 H 0.39959 0.34761 0.68881 0.0
H3356 H 0.37235 0.34508 0.69837 0.0
H3357 H 0.29184 0.38749 0.73539 0.0
H3358 H 0.31187 0.37299 0.75443 0.0
H3359 H 0.33064 0.36013 0.69017 0.0
H3360 H 0.31104 0.37509 0.67111 0.0
H3361 H 0.35291 0.36431 0.71844 0.0
H3362 H 0.30587 0.33662 0.71973 0.0
H3363 H 0.27856 0.33239 0.72728 0.0
H3364 H 0.28634 0.3391 0.79786 0.0
H3365 H 0.31368 0.34359 0.79069 0.0
C3366 C 0.37976 0.30012 0.76107 0.0
C3367 C 0.38189 0.29941 0.78446 0.0
C3368 C 0.37132 0.31198 0.75152 0.0
C3369 C 0.36475 0.32317 0.76526 0.0
C3370 C 0.36714 0.32269 0.78854 0.0
C3371 C 0.37579 0.311 0.79805 0.0
C3372 C 0.35443 0.33471 0.7555 0.0
C3373 C 0.33888 0.33374 0.76064 0.0
C3374 C 0.35958 0.34578 0.74006 0.0
C3375 C 0.37595 0.34734 0.73427 0.0
C3376 C 0.38695 0.34953 0.7512 0.0
C3377 C 0.40236 0.35089 0.74563 0.0
C3378 C 0.40692 0.35018 0.72316 0.0
C3379 C 0.39605 0.34814 0.70621 0.0
C3380 C 0.38062 0.34676 0.7117 0.0
C3381 C 0.30039 0.38175 0.72536 0.0
C3382 C 0.2998 0.38228 0.70178 0.0
C3383 C 0.31178 0.37341 0.73624 0.0
C3384 C 0.32255 0.36517 0.72372 0.0
C3385 C 0.32243 0.36634 0.70019 0.0
C3386 C 0.31119 0.37488 0.68931 0.0
C3387 C 0.33333 0.3546 0.73498 0.0
C3388 C 0.34896 0.35564 0.73004 0.0
C3389 C 0.32822 0.34333 0.75026 0.0
C3390 C 0.31178 0.34061 0.75464 0.0
C3391 C 0.30173 0.33731 0.73684 0.0
C3392 C 0.28625 0.33485 0.74105 0.0
C3393 C 0.28071 0.33552 0.76303 0.0
C3394 C 0.29064 0.33861 0.78085 0.0
C3395 C 0.30613 0.34111 0.77672 0.0
H3396 H 0.26872 0.3336 0.76626 0.0
H3397 H 0.41886 0.35125 0.71888 0.0
H3398 H 0.63258 0.27153 0.71032 0.0
H3399 H 0.64992 0.29005 0.72702 0.0
H3400 H 0.61556 0.32501 0.72012 0.0
H3401 H 0.59862 0.30662 0.70169 0.0
H3402 H 0.64015 0.33659 0.70853 0.0
H3403 H 0.62691 0.3073 0.77321 0.0
H3404 H 0.62308 0.2842 0.7961 0.0
H3405 H 0.6707 0.27351 0.79072 0.0
H3406 H 0.67479 0.29645 0.76757 0.0
H3407 H 0.67802 0.38465 0.79177 0.0
H3408 H 0.65994 0.36747 0.77308 0.0
H3409 H 0.69736 0.34065 0.74792 0.0
H3410 H 0.71554 0.35803 0.76598 0.0
H3411 H 0.67116 0.32576 0.7765 0.0
H3412 H 0.68291 0.35653 0.71076 0.0
H3413 H 0.68527 0.3809 0.69047 0.0
H3414 H 0.63789 0.39025 0.70208 0.0
H3415 H 0.6353 0.36602 0.72275 0.0
C3416 C 0.62866 0.28313 0.71269 0.0
C3417 C 0.61425 0.28768 0.70496 0.0
C3418 C 0.63856 0.29371 0.72235 0.0
C3419 C 0.63399 0.30892 0.72533 0.0
C3420 C 0.61939 0.31336 0.71805 0.0
C3421 C 0.60968 0.30287 0.70768 0.0
C3422 C 0.64473 0.32032 0.73495 0.0
C3423 C 0.64672 0.33424 0.72361 0.0
C3424 C 0.65352 0.31731 0.75448 0.0
C3425 C 0.65112 0.30353 0.7685 0.0
C3426 C 0.63655 0.29997 0.77679 0.0
C3427 C 0.63433 0.28691 0.78983 0.0
C3428 C 0.64663 0.27738 0.79482 0.0
C3429 C 0.66118 0.2809 0.78683 0.0
C3430 C 0.66346 0.29394 0.77378 0.0
C3431 C 0.68237 0.37524 0.78192 0.0
C3432 C 0.69814 0.37265 0.78028 0.0
C3433 C 0.67207 0.36547 0.7713 0.0
C3434 C 0.67739 0.35286 0.75923 0.0
C3435 C 0.69311 0.35039 0.75716 0.0
C3436 C 0.70344 0.36034 0.76737 0.0
C3437 C 0.66648 0.34172 0.74998 0.0
C3438 C 0.66448 0.32796 0.76147 0.0
C3439 C 0.65741 0.34502 0.73099 0.0
C3440 C 0.65896 0.35955 0.71852 0.0
C3441 C 0.67304 0.36386 0.7092 0.0
C3442 C 0.67441 0.37763 0.69757 0.0
C3443 C 0.66175 0.38714 0.69504 0.0
C3444 C 0.64769 0.38288 0.70408 0.0
C3445 C 0.64626 0.36913 0.71573 0.0
H3446 H 0.66283 0.39779 0.68603 0.0
H3447 H 0.64489 0.26727 0.80491 0.0
H3448 H 0.38676 0.28985 0.23218 0.0
H3449 H 0.37142 0.3099 0.24959 0.0
H3450 H 0.35597 0.32431 0.184 0.0
H3451 H 0.37198 0.30492 0.16656 0.0
H3452 H 0.35911 0.34801 0.20792 0.0
H3453 H 0.33437 0.30014 0.22 0.0
H3454 H 0.33199 0.27344 0.23237 0.0
H3455 H 0.34168 0.28678 0.30036 0.0
H3456 H 0.34429 0.31355 0.28834 0.0
H3457 H 0.28758 0.3802 0.24554 0.0
H3458 H 0.30744 0.36471 0.22768 0.0
H3459 H 0.33069 0.36057 0.29131 0.0
H3460 H 0.31111 0.37616 0.30919 0.0
H3461 H 0.32385 0.3324 0.26882 0.0
H3462 H 0.3465 0.38163 0.25411 0.0
H3463 H 0.34655 0.40787 0.23936 0.0
H3464 H 0.33759 0.39102 0.17289 0.0
H3465 H 0.33727 0.36467 0.1873 0.0
C3466 C 0.38022 0.29744 0.22152 0.0
C3467 C 0.38045 0.29578 0.19807 0.0
C3468 C 0.37138 0.30882 0.23146 0.0
C3469 C 0.3622 0.31839 0.21815 0.0
C3470 C 0.36289 0.31707 0.19466 0.0
C3471 C 0.37202 0.30595 0.1847 0.0
C3472 C 0.35146 0.32936 0.22865 0.0
C3473 C 0.35131 0.34453 0.22108 0.0
C3474 C 0.34128 0.32491 0.24593 0.0
C3475 C 0.33968 0.30882 0.25323 0.0
C3476 C 0.33609 0.29736 0.23756 0.0
C3477 C 0.33469 0.28222 0.24451 0.0
C3478 C 0.33673 0.27841 0.26712 0.0
C3479 C 0.34013 0.28975 0.28284 0.0
C3480 C 0.34156 0.30491 0.27597 0.0
C3481 C 0.29704 0.37616 0.25563 0.0
C3482 C 0.29776 0.37933 0.27877 0.0
C3483 C 0.30837 0.36736 0.24541 0.0
C3484 C 0.32048 0.36153 0.25823 0.0
C3485 C 0.32142 0.36499 0.28118 0.0
C3486 C 0.31023 0.37393 0.29133 0.0
C3487 C 0.33161 0.35093 0.24813 0.0
C3488 C 0.33175 0.33583 0.25574 0.0
C3489 C 0.34144 0.35536 0.23052 0.0
C3490 C 0.34172 0.37119 0.22183 0.0
C3491 C 0.34441 0.38352 0.23639 0.0
C3492 C 0.34451 0.39842 0.22808 0.0
C3493 C 0.34203 0.40111 0.20521 0.0
C3494 C 0.33949 0.38891 0.1906 0.0
C3495 C 0.33936 0.374 0.19883 0.0
H3496 H 0.34212 0.41265 0.19882 0.0
H3497 H 0.33563 0.26668 0.27247 0.0
H3498 H 0.62505 0.27578 0.25731 0.0
H3499 H 0.64155 0.29508 0.24013 0.0
H3500 H 0.62117 0.3297 0.2817 0.0
H3501 H 0.60482 0.31052 0.29923 0.0
H3502 H 0.63241 0.32748 0.21981 0.0
H3503 H 0.64474 0.33717 0.30539 0.0
H3504 H 0.6491 0.32446 0.3419 0.0
H3505 H 0.67907 0.29235 0.31016 0.0
H3506 H 0.67469 0.30481 0.27346 0.0
H3507 H 0.67976 0.39048 0.19857 0.0
H3508 H 0.66068 0.37404 0.21618 0.0
H3509 H 0.6962 0.34268 0.23588 0.0
H3510 H 0.71533 0.3596 0.2196 0.0
H3511 H 0.67669 0.34278 0.26682 0.0
H3512 H 0.67281 0.33819 0.1866 0.0
H3513 H 0.66962 0.34733 0.14767 0.0
H3514 H 0.62529 0.36482 0.16399 0.0
H3515 H 0.6283 0.35595 0.20311 0.0
C3516 C 0.62391 0.28754 0.26253 0.0
C3517 C 0.61376 0.29164 0.27975 0.0
C3518 C 0.63333 0.29852 0.25271 0.0
C3519 C 0.63261 0.3137 0.25987 0.0
C3520 C 0.62193 0.31797 0.27616 0.0
C3521 C 0.61261 0.30701 0.28611 0.0
C3522 C 0.64379 0.32489 0.25161 0.0
C3523 C 0.64201 0.33103 0.23007 0.0
C3524 C 0.65648 0.32904 0.2648 0.0
C3525 C 0.65937 0.32185 0.28683 0.0
C3526 C 0.65224 0.3274 0.30627 0.0
C3527 C 0.65469 0.32023 0.32695 0.0
C3528 C 0.66435 0.3076 0.32835 0.0
C3529 C 0.67159 0.30212 0.30906 0.0
C3530 C 0.66911 0.30922 0.28833 0.0
C3531 C 0.68347 0.3802 0.20705 0.0
C3532 C 0.69896 0.37625 0.2077 0.0
C3533 C 0.67257 0.37074 0.21691 0.0
C3534 C 0.67693 0.35688 0.2268 0.0
C3535 C 0.69251 0.35327 0.22828 0.0
C3536 C 0.70345 0.36294 0.21899 0.0
C3537 C 0.66531 0.34586 0.2349 0.0
C3538 C 0.66703 0.33955 0.25645 0.0
C3539 C 0.65274 0.34133 0.22137 0.0
C3540 C 0.65084 0.34653 0.19782 0.0
C3541 C 0.66242 0.34406 0.18191 0.0
C3542 C 0.66064 0.34919 0.15981 0.0
C3543 C 0.64728 0.35669 0.15338 0.0
C3544 C 0.63564 0.35903 0.16901 0.0
C3545 C 0.63737 0.35395 0.19114 0.0
H3546 H 0.64592 0.36065 0.13626 0.0
H3547 H 0.66624 0.30206 0.34437 0.0
H3548 H 0.71539 0.6301 0.26253 0.0
H3549 H 0.69663 0.64773 0.24651 0.0
H3550 H 0.66021 0.62156 0.27605 0.0
H3551 H 0.6789 0.60407 0.29257 0.0
H3552 H 0.65665 0.6328 0.22741 0.0
H3553 H 0.66896 0.64906 0.30441 0.0
H3554 H 0.68772 0.65605 0.33359 0.0
H3555 H 0.70467 0.69204 0.29161 0.0
H3556 H 0.68613 0.6851 0.26206 0.0
H3557 H 0.5959 0.68391 0.21455 0.0
H3558 H 0.61367 0.66536 0.2307 0.0
H3559 H 0.64934 0.69932 0.2301 0.0
H3560 H 0.63123 0.71808 0.21583 0.0
H3561 H 0.65402 0.68363 0.26367 0.0
H3562 H 0.64409 0.67004 0.1875 0.0
H3563 H 0.62869 0.66354 0.15412 0.0
H3564 H 0.61135 0.62392 0.18781 0.0
H3565 H 0.6265 0.6303 0.22152 0.0
C3566 C 0.70338 0.62796 0.26529 0.0
C3567 C 0.69856 0.61579 0.27888 0.0
C3568 C 0.69271 0.63803 0.25618 0.0
C3569 C 0.67711 0.63591 0.26026 0.0
C3570 C 0.67223 0.62331 0.27277 0.0
C3571 C 0.68289 0.6134 0.28222 0.0
C3572 C 0.66595 0.64745 0.25292 0.0
C3573 C 0.65589 0.64387 0.23541 0.0
C3574 C 0.66547 0.66202 0.26291 0.0
C3575 C 0.67625 0.66648 0.28098 0.0
C3576 C 0.67674 0.65841 0.30137 0.0
C3577 C 0.68732 0.66237 0.31798 0.0
C3578 C 0.6974 0.67446 0.31444 0.0
C3579 C 0.69686 0.68267 0.29433 0.0
C3580 C 0.6863 0.67874 0.27766 0.0
C3581 C 0.60747 0.68742 0.21842 0.0
C3582 C 0.61224 0.70237 0.21415 0.0
C3583 C 0.61768 0.67679 0.22733 0.0
C3584 C 0.63303 0.68076 0.23101 0.0
C3585 C 0.63761 0.6959 0.22742 0.0
C3586 C 0.62726 0.70666 0.21929 0.0
C3587 C 0.64443 0.6691 0.23797 0.0
C3588 C 0.65462 0.67261 0.25549 0.0
C3589 C 0.6454 0.65464 0.22737 0.0
C3590 C 0.63631 0.65074 0.20711 0.0
C3591 C 0.63691 0.66 0.18784 0.0
C3592 C 0.62824 0.65633 0.16886 0.0
C3593 C 0.61902 0.64335 0.16887 0.0
C3594 C 0.61848 0.63399 0.18784 0.0
C3595 C 0.62712 0.63762 0.20689 0.0
H3596 H 0.61231 0.64053 0.15415 0.0
H3597 H 0.70561 0.67749 0.32729 0.0
H3598 H 0.3124 0.59928 0.18532 0.0
H3599 H 0.3326 0.61342 0.20454 0.0
H3600 H 0.29911 0.63376 0.24832 0.0
H3601 H 0.279 0.61919 0.22977 0.0
H3602 H 0.33709 0.64203 0.2053 0.0
H3603 H 0.31415 0.64487 0.29713 0.0
H3604 H 0.30049 0.62838 0.32395 0.0
H3605 H 0.31648 0.58865 0.28918 0.0
H3606 H 0.3304 0.60488 0.26233 0.0
H3607 H 0.36462 0.70689 0.26171 0.0
H3608 H 0.34995 0.68638 0.24434 0.0
H3609 H 0.37151 0.65378 0.28845 0.0
H3610 H 0.38578 0.67438 0.30647 0.0
H3611 H 0.34286 0.64837 0.2877 0.0
H3612 H 0.38005 0.65596 0.23091 0.0
H3613 H 0.39591 0.67029 0.20406 0.0
H3614 H 0.35574 0.68492 0.16882 0.0
H3615 H 0.33961 0.67084 0.19564 0.0
C3616 C 0.30941 0.60656 0.19934 0.0
C3617 C 0.29414 0.60815 0.20604 0.0
C3618 C 0.32094 0.61467 0.21025 0.0
C3619 C 0.31742 0.62463 0.22795 0.0
C3620 C 0.30219 0.62593 0.23503 0.0
C3621 C 0.29068 0.61764 0.22434 0.0
C3622 C 0.32943 0.6345 0.23787 0.0
C3623 C 0.33843 0.64332 0.22333 0.0
C3624 C 0.33145 0.63597 0.26138 0.0
C3625 C 0.32322 0.62611 0.27761 0.0
C3626 C 0.31481 0.63261 0.29527 0.0
C3627 C 0.30701 0.62331 0.31046 0.0
C3628 C 0.30759 0.60748 0.30824 0.0
C3629 C 0.316 0.60092 0.29084 0.0
C3630 C 0.32383 0.61016 0.27561 0.0
C3631 C 0.36636 0.69533 0.26753 0.0
C3632 C 0.37632 0.69223 0.28546 0.0
C3633 C 0.35802 0.68359 0.25752 0.0
C3634 C 0.35973 0.66848 0.26492 0.0
C3635 C 0.36997 0.66534 0.28248 0.0
C3636 C 0.37815 0.6771 0.2927 0.0
C3637 C 0.35025 0.65614 0.25512 0.0
C3638 C 0.34168 0.64691 0.26968 0.0
C3639 C 0.34896 0.65395 0.23162 0.0
C3640 C 0.35861 0.66242 0.2154 0.0
C3641 C 0.37459 0.66232 0.21753 0.0
C3642 C 0.38363 0.67038 0.2023 0.0
C3643 C 0.37684 0.67853 0.18477 0.0
C3644 C 0.36098 0.67861 0.18241 0.0
C3645 C 0.35189 0.67057 0.19761 0.0
H3646 H 0.38386 0.68477 0.173 0.0
H3647 H 0.30153 0.60031 0.32001 0.0
loop_
_geom_bond_atom_site_label_1
_geom_bond_atom_site_label_2
_geom_bond_distance
_geom_bond_site_symmetry_2
_ccdc_geom_bond_type
C0 O1 1.306 . S
C0 O3 1.160 . S
O1 C0 1.306 . S
O1 Cd2 2.228 . S
Cd2 O1 2.228 . S
Cd2 O6 2.273 . S
Cd2 O10 2.277 . S
O3 C0 1.160 . S
O3 Cd4 2.203 . S
Cd4 O3 2.203 . S
Cd4 O6 2.411 . S
Cd4 O7 2.333 . S
Cd4 O8 2.352 . S
Cd4 O12 2.277 . S
Cd4 O13 2.356 . S
C5 O10 1.209 . S
C5 O12 1.226 . S
O6 Cd2 2.273 . S
O6 Cd4 2.411 . S
O6 C9 1.320 . S
O7 Cd4 2.333 . S
O7 C9 1.214 . S
O8 Cd4 2.352 . S
O8 C11 1.258 . S
C9 O6 1.320 . S
C9 O7 1.214 . S
O10 Cd2 2.277 . S
O10 C5 1.209 . S
C11 O8 1.258 . S
C11 O13 1.282 . S
O12 Cd4 2.277 . S
O12 C5 1.226 . S
O13 Cd4 2.356 . S
O13 C11 1.282 . S
C14 O15 1.306 . S
C14 O17 1.160 . S
O15 C14 1.306 . S
O15 Cd16 2.228 . S
Cd16 O15 2.228 . S
Cd16 O20 2.273 . S
Cd16 O24 2.277 . S
O17 C14 1.160 . S
O17 Cd18 2.203 . S
Cd18 O17 2.203 . S
Cd18 O20 2.411 . S
Cd18 O21 2.333 . S
Cd18 O22 2.352 . S
Cd18 O26 2.277 . S
Cd18 O27 2.356 . S
C19 O24 1.209 . S
C19 O26 1.226 . S
O20 Cd16 2.273 . S
O20 Cd18 2.411 . S
O20 C23 1.320 . S
O21 Cd18 2.333 . S
O21 C23 1.214 . S
O22 Cd18 2.352 . S
O22 C25 1.258 . S
C23 O20 1.320 . S
C23 O21 1.214 . S
O24 Cd16 2.277 . S
O24 C19 1.209 . S
C25 O22 1.258 . S
C25 O27 1.282 . S
O26 Cd18 2.277 . S
O26 C19 1.226 . S
O27 Cd18 2.356 . S
O27 C25 1.282 . S
C28 O29 1.306 . S
C28 O31 1.160 . S
O29 C28 1.306 . S
O29 Cd30 2.228 . S
Cd30 O29 2.228 . S
Cd30 O34 2.273 . S
Cd30 O38 2.277 . S
O31 C28 1.160 . S
O31 Cd32 2.203 . S
Cd32 O31 2.203 . S
Cd32 O34 2.411 . S
Cd32 O35 2.333 . S
Cd32 O36 2.352 . S
Cd32 O40 2.277 . S
Cd32 O41 2.356 . S
C33 O38 1.209 . S
C33 O40 1.226 . S
O34 Cd30 2.273 . S
O34 Cd32 2.411 . S
O34 C37 1.320 . S
O35 Cd32 2.333 . S
O35 C37 1.214 . S
O36 Cd32 2.352 . S
O36 C39 1.258 . S
C37 O34 1.320 . S
C37 O35 1.214 . S
O38 Cd30 2.277 . S
O38 C33 1.209 . S
C39 O36 1.258 . S
C39 O41 1.282 . S
O40 Cd32 2.277 . S
O40 C33 1.226 . S
O41 Cd32 2.356 . S
O41 C39 1.282 . S
C42 O43 1.306 . S
C42 O45 1.160 . S
O43 C42 1.306 . S
O43 Cd44 2.228 . S
Cd44 O43 2.228 . S
Cd44 O48 2.273 . S
Cd44 O52 2.277 . S
O45 C42 1.160 . S
O45 Cd46 2.203 . S
Cd46 O45 2.203 . S
Cd46 O48 2.411 . S
Cd46 O49 2.333 . S
Cd46 O50 2.352 . S
Cd46 O54 2.277 . S
Cd46 O55 2.356 . S
C47 O52 1.209 . S
C47 O54 1.226 . S
O48 Cd44 2.273 . S
O48 Cd46 2.411 . S
O48 C51 1.320 . S
O49 Cd46 2.333 . S
O49 C51 1.214 . S
O50 Cd46 2.352 . S
O50 C53 1.258 . S
C51 O48 1.320 . S
C51 O49 1.214 . S
O52 Cd44 2.277 . S
O52 C47 1.209 . S
C53 O50 1.258 . S
C53 O55 1.282 . S
O54 Cd46 2.277 . S
O54 C47 1.226 . S
O55 Cd46 2.356 . S
O55 C53 1.282 . S
C56 O57 1.306 . S
C56 O59 1.160 . S
O57 C56 1.306 . S
O57 Cd58 2.228 . S
Cd58 O57 2.228 . S
Cd58 O62 2.273 . S
Cd58 O66 2.277 . S
O59 C56 1.160 . S
O59 Cd60 2.203 . S
Cd60 O59 2.203 . S
Cd60 O62 2.411 . S
Cd60 O63 2.333 . S
Cd60 O64 2.352 . S
Cd60 O68 2.277 . S
Cd60 O69 2.356 . S
C61 O66 1.209 . S
C61 O68 1.226 . S
O62 Cd58 2.273 . S
O62 Cd60 2.411 . S
O62 C65 1.320 . S
O63 Cd60 2.333 . S
O63 C65 1.214 . S
O64 Cd60 2.352 . S
O64 C67 1.258 . S
C65 O62 1.320 . S
C65 O63 1.214 . S
O66 Cd58 2.277 . S
O66 C61 1.209 . S
C67 O64 1.258 . S
C67 O69 1.282 . S
O68 Cd60 2.277 . S
O68 C61 1.226 . S
O69 Cd60 2.356 . S
O69 C67 1.282 . S
C70 O71 1.306 . S
C70 O73 1.160 . S
O71 C70 1.306 . S
O71 Cd72 2.228 . S
Cd72 O71 2.228 . S
Cd72 O76 2.273 . S
Cd72 O80 2.277 . S
O73 C70 1.160 . S
O73 Cd74 2.203 . S
Cd74 O73 2.203 . S
Cd74 O76 2.411 . S
Cd74 O77 2.333 . S
Cd74 O78 2.352 . S
Cd74 O82 2.277 . S
Cd74 O83 2.356 . S
C75 O80 1.209 . S
C75 O82 1.226 . S
O76 Cd72 2.273 . S
O76 Cd74 2.411 . S
O76 C79 1.320 . S
O77 Cd74 2.333 . S
O77 C79 1.214 . S
O78 Cd74 2.352 . S
O78 C81 1.258 . S
C79 O76 1.320 . S
C79 O77 1.214 . S
O80 Cd72 2.277 . S
O80 C75 1.209 . S
C81 O78 1.258 . S
C81 O83 1.282 . S
O82 Cd74 2.277 . S
O82 C75 1.226 . S
O83 Cd74 2.356 . S
O83 C81 1.282 . S
C84 O85 1.306 . S
C84 O87 1.160 . S
O85 C84 1.306 . S
O85 Cd86 2.228 . S
Cd86 O85 2.228 . S
Cd86 O90 2.273 . S
Cd86 O94 2.277 . S
O87 C84 1.160 . S
O87 Cd88 2.203 . S
Cd88 O87 2.203 . S
Cd88 O90 2.411 . S
Cd88 O91 2.333 . S
Cd88 O92 2.352 . S
Cd88 O96 2.277 . S
Cd88 O97 2.356 . S
C89 O94 1.209 . S
C89 O96 1.226 . S
O90 Cd86 2.273 . S
O90 Cd88 2.411 . S
O90 C93 1.320 . S
O91 Cd88 2.333 . S
O91 C93 1.214 . S
O92 Cd88 2.352 . S
O92 C95 1.258 . S
C93 O90 1.320 . S
C93 O91 1.214 . S
O94 Cd86 2.277 . S
O94 C89 1.209 . S
C95 O92 1.258 . S
C95 O97 1.282 . S
O96 Cd88 2.277 . S
O96 C89 1.226 . S
O97 Cd88 2.356 . S
O97 C95 1.282 . S
C98 O99 1.306 . S
C98 O101 1.160 . S
O99 C98 1.306 . S
O99 Cd100 2.228 . S
Cd100 O99 2.228 . S
Cd100 O104 2.273 . S
Cd100 O108 2.277 . S
O101 C98 1.160 . S
O101 Cd102 2.203 . S
Cd102 O101 2.203 . S
Cd102 O104 2.411 . S
Cd102 O105 2.333 . S
Cd102 O106 2.352 . S
Cd102 O110 2.277 . S
Cd102 O111 2.356 . S
C103 O108 1.209 . S
C103 O110 1.226 . S
O104 Cd100 2.273 . S
O104 Cd102 2.411 . S
O104 C107 1.320 . S
O105 Cd102 2.333 . S
O105 C107 1.214 . S
O106 Cd102 2.352 . S
O106 C109 1.258 . S
C107 O104 1.320 . S
C107 O105 1.214 . S
O108 Cd100 2.277 . S
O108 C103 1.209 . S
C109 O106 1.258 . S
C109 O111 1.282 . S
O110 Cd102 2.277 . S
O110 C103 1.226 . S
O111 Cd102 2.356 . S
O111 C109 1.282 . S
C112 O113 1.306 . S
C112 O115 1.160 . S
O113 C112 1.306 . S
O113 Cd114 2.228 . S
Cd114 O113 2.228 . S
Cd114 O118 2.273 . S
Cd114 O122 2.277 . S
O115 C112 1.160 . S
O115 Cd116 2.203 . S
Cd116 O115 2.203 . S
Cd116 O118 2.411 . S
Cd116 O119 2.333 . S
Cd116 O120 2.352 . S
Cd116 O124 2.277 . S
Cd116 O125 2.356 . S
C117 O122 1.209 . S
C117 O124 1.226 . S
O118 Cd114 2.273 . S
O118 Cd116 2.411 . S
O118 C121 1.320 . S
O119 Cd116 2.333 . S
O119 C121 1.214 . S
O120 Cd116 2.352 . S
O120 C123 1.258 . S
C121 O118 1.320 . S
C121 O119 1.214 . S
O122 Cd114 2.277 . S
O122 C117 1.209 . S
C123 O120 1.258 . S
C123 O125 1.282 . S
O124 Cd116 2.277 . S
O124 C117 1.226 . S
O125 Cd116 2.356 . S
O125 C123 1.282 . S
C126 O127 1.306 . S
C126 O129 1.160 . S
O127 C126 1.306 . S
O127 Cd128 2.228 . S
Cd128 O127 2.228 . S
Cd128 O132 2.273 . S
Cd128 O136 2.277 . S
O129 C126 1.160 . S
O129 Cd130 2.203 . S
Cd130 O129 2.203 . S
Cd130 O132 2.411 . S
Cd130 O133 2.333 . S
Cd130 O134 2.352 . S
Cd130 O138 2.277 . S
Cd130 O139 2.356 . S
C131 O136 1.209 . S
C131 O138 1.226 . S
O132 Cd128 2.273 . S
O132 Cd130 2.411 . S
O132 C135 1.320 . S
O133 Cd130 2.333 . S
O133 C135 1.214 . S
O134 Cd130 2.352 . S
O134 C137 1.258 . S
C135 O132 1.320 . S
C135 O133 1.214 . S
O136 Cd128 2.277 . S
O136 C131 1.209 . S
C137 O134 1.258 . S
C137 O139 1.282 . S
O138 Cd130 2.277 . S
O138 C131 1.226 . S
O139 Cd130 2.356 . S
O139 C137 1.282 . S
C140 O141 1.306 . S
C140 O143 1.160 . S
O141 C140 1.306 . S
O141 Cd142 2.228 . S
Cd142 O141 2.228 . S
Cd142 O146 2.273 . S
Cd142 O150 2.277 . S
O143 C140 1.160 . S
O143 Cd144 2.203 . S
Cd144 O143 2.203 . S
Cd144 O146 2.411 . S
Cd144 O147 2.333 . S
Cd144 O148 2.352 . S
Cd144 O152 2.277 . S
Cd144 O153 2.356 . S
C145 O150 1.209 . S
C145 O152 1.226 . S
O146 Cd142 2.273 . S
O146 Cd144 2.411 . S
O146 C149 1.320 . S
O147 Cd144 2.333 . S
O147 C149 1.214 . S
O148 Cd144 2.352 . S
O148 C151 1.258 . S
C149 O146 1.320 . S
C149 O147 1.214 . S
O150 Cd142 2.277 . S
O150 C145 1.209 . S
C151 O148 1.258 . S
C151 O153 1.282 . S
O152 Cd144 2.277 . S
O152 C145 1.226 . S
O153 Cd144 2.356 . S
O153 C151 1.282 . S
C154 O155 1.306 . S
C154 O157 1.160 . S
O155 C154 1.306 . S
O155 Cd156 2.228 . S
Cd156 O155 2.228 . S
Cd156 O160 2.273 . S
Cd156 O164 2.277 . S
O157 C154 1.160 . S
O157 Cd158 2.203 . S
Cd158 O157 2.203 . S
Cd158 O160 2.411 . S
Cd158 O161 2.333 . S
Cd158 O162 2.352 . S
Cd158 O166 2.277 . S
Cd158 O167 2.356 . S
C159 O164 1.209 . S
C159 O166 1.226 . S
O160 Cd156 2.273 . S
O160 Cd158 2.411 . S
O160 C163 1.320 . S
O161 Cd158 2.333 . S
O161 C163 1.214 . S
O162 Cd158 2.352 . S
O162 C165 1.258 . S
C163 O160 1.320 . S
C163 O161 1.214 . S
O164 Cd156 2.277 . S
O164 C159 1.209 . S
C165 O162 1.258 . S
C165 O167 1.282 . S
O166 Cd158 2.277 . S
O166 C159 1.226 . S
O167 Cd158 2.356 . S
O167 C165 1.282 . S
C168 O169 1.306 . S
C168 O171 1.160 . S
O169 C168 1.306 . S
O169 Cd170 2.228 . S
Cd170 O169 2.228 . S
Cd170 O174 2.273 . S
Cd170 O178 2.277 . S
O171 C168 1.160 . S
O171 Cd172 2.203 . S
Cd172 O171 2.203 . S
Cd172 O174 2.411 . S
Cd172 O175 2.333 . S
Cd172 O176 2.352 . S
Cd172 O180 2.277 . S
Cd172 O181 2.356 . S
C173 O178 1.209 . S
C173 O180 1.226 . S
O174 Cd170 2.273 . S
O174 Cd172 2.411 . S
O174 C177 1.320 . S
O175 Cd172 2.333 . S
O175 C177 1.214 . S
O176 Cd172 2.352 . S
O176 C179 1.258 . S
C177 O174 1.320 . S
C177 O175 1.214 . S
O178 Cd170 2.277 . S
O178 C173 1.209 . S
C179 O176 1.258 . S
C179 O181 1.282 . S
O180 Cd172 2.277 . S
O180 C173 1.226 . S
O181 Cd172 2.356 . S
O181 C179 1.282 . S
C182 O183 1.306 . S
C182 O185 1.160 . S
O183 C182 1.306 . S
O183 Cd184 2.228 . S
Cd184 O183 2.228 . S
Cd184 O188 2.273 . S
Cd184 O192 2.277 . S
O185 C182 1.160 . S
O185 Cd186 2.203 . S
Cd186 O185 2.203 . S
Cd186 O188 2.411 . S
Cd186 O189 2.333 . S
Cd186 O190 2.352 . S
Cd186 O194 2.277 . S
Cd186 O195 2.356 . S
C187 O192 1.209 . S
C187 O194 1.226 . S
O188 Cd184 2.273 . S
O188 Cd186 2.411 . S
O188 C191 1.320 . S
O189 Cd186 2.333 . S
O189 C191 1.214 . S
O190 Cd186 2.352 . S
O190 C193 1.258 . S
C191 O188 1.320 . S
C191 O189 1.214 . S
O192 Cd184 2.277 . S
O192 C187 1.209 . S
C193 O190 1.258 . S
C193 O195 1.282 . S
O194 Cd186 2.277 . S
O194 C187 1.226 . S
O195 Cd186 2.356 . S
O195 C193 1.282 . S
C196 O197 1.306 . S
C196 O199 1.160 . S
O197 C196 1.306 . S
O197 Cd198 2.228 . S
Cd198 O197 2.228 . S
Cd198 O202 2.273 . S
Cd198 O206 2.277 . S
O199 C196 1.160 . S
O199 Cd200 2.203 . S
Cd200 O199 2.203 . S
Cd200 O202 2.411 . S
Cd200 O203 2.333 . S
Cd200 O204 2.352 . S
Cd200 O208 2.277 . S
Cd200 O209 2.356 . S
C201 O206 1.209 . S
C201 O208 1.226 . S
O202 Cd198 2.273 . S
O202 Cd200 2.411 . S
O202 C205 1.320 . S
O203 Cd200 2.333 . S
O203 C205 1.214 . S
O204 Cd200 2.352 . S
O204 C207 1.258 . S
C205 O202 1.320 . S
C205 O203 1.214 . S
O206 Cd198 2.277 . S
O206 C201 1.209 . S
C207 O204 1.258 . S
C207 O209 1.282 . S
O208 Cd200 2.277 . S
O208 C201 1.226 . S
O209 Cd200 2.356 . S
O209 C207 1.282 . S
C210 O211 1.306 . S
C210 O213 1.160 . S
O211 C210 1.306 . S
O211 Cd212 2.228 . S
Cd212 O211 2.228 . S
Cd212 O216 2.273 . S
Cd212 O220 2.277 . S
O213 C210 1.160 . S
O213 Cd214 2.203 . S
Cd214 O213 2.203 . S
Cd214 O216 2.411 . S
Cd214 O217 2.333 . S
Cd214 O218 2.352 . S
Cd214 O222 2.277 . S
Cd214 O223 2.356 . S
C215 O220 1.209 . S
C215 O222 1.226 . S
O216 Cd212 2.273 . S
O216 Cd214 2.411 . S
O216 C219 1.320 . S
O217 Cd214 2.333 . S
O217 C219 1.214 . S
O218 Cd214 2.352 . S
O218 C221 1.258 . S
C219 O216 1.320 . S
C219 O217 1.214 . S
O220 Cd212 2.277 . S
O220 C215 1.209 . S
C221 O218 1.258 . S
C221 O223 1.282 . S
O222 Cd214 2.277 . S
O222 C215 1.226 . S
O223 Cd214 2.356 . S
O223 C221 1.282 . S
C224 O225 1.306 . S
C224 O227 1.160 . S
O225 C224 1.306 . S
O225 Cd226 2.228 . S
Cd226 O225 2.228 . S
Cd226 O230 2.273 . S
Cd226 O234 2.277 . S
O227 C224 1.160 . S
O227 Cd228 2.203 . S
Cd228 O227 2.203 . S
Cd228 O230 2.411 . S
Cd228 O231 2.333 . S
Cd228 O232 2.352 . S
Cd228 O236 2.277 . S
Cd228 O237 2.356 . S
C229 O234 1.209 . S
C229 O236 1.226 . S
O230 Cd226 2.273 . S
O230 Cd228 2.411 . S
O230 C233 1.320 . S
O231 Cd228 2.333 . S
O231 C233 1.214 . S
O232 Cd228 2.352 . S
O232 C235 1.258 . S
C233 O230 1.320 . S
C233 O231 1.214 . S
O234 Cd226 2.277 . S
O234 C229 1.209 . S
C235 O232 1.258 . S
C235 O237 1.282 . S
O236 Cd228 2.277 . S
O236 C229 1.226 . S
O237 Cd228 2.356 . S
O237 C235 1.282 . S
C238 O239 1.306 . S
C238 O241 1.160 . S
O239 C238 1.306 . S
O239 Cd240 2.228 . S
Cd240 O239 2.228 . S
Cd240 O244 2.273 . S
Cd240 O248 2.277 . S
O241 C238 1.160 . S
O241 Cd242 2.203 . S
Cd242 O241 2.203 . S
Cd242 O244 2.411 . S
Cd242 O245 2.333 . S
Cd242 O246 2.352 . S
Cd242 O250 2.277 . S
Cd242 O251 2.356 . S
C243 O248 1.209 . S
C243 O250 1.226 . S
O244 Cd240 2.273 . S
O244 Cd242 2.411 . S
O244 C247 1.320 . S
O245 Cd242 2.333 . S
O245 C247 1.214 . S
O246 Cd242 2.352 . S
O246 C249 1.258 . S
C247 O244 1.320 . S
C247 O245 1.214 . S
O248 Cd240 2.277 . S
O248 C243 1.209 . S
C249 O246 1.258 . S
C249 O251 1.282 . S
O250 Cd242 2.277 . S
O250 C243 1.226 . S
O251 Cd242 2.356 . S
O251 C249 1.282 . S
C252 O253 1.306 . S
C252 O255 1.160 . S
O253 C252 1.306 . S
O253 Cd254 2.228 . S
Cd254 O253 2.228 . S
Cd254 O258 2.273 . S
Cd254 O262 2.277 . S
O255 C252 1.160 . S
O255 Cd256 2.203 . S
Cd256 O255 2.203 . S
Cd256 O258 2.411 . S
Cd256 O259 2.333 . S
Cd256 O260 2.352 . S
Cd256 O264 2.277 . S
Cd256 O265 2.356 . S
C257 O262 1.209 . S
C257 O264 1.226 . S
O258 Cd254 2.273 . S
O258 Cd256 2.411 . S
O258 C261 1.320 . S
O259 Cd256 2.333 . S
O259 C261 1.214 . S
O260 Cd256 2.352 . S
O260 C263 1.258 . S
C261 O258 1.320 . S
C261 O259 1.214 . S
O262 Cd254 2.277 . S
O262 C257 1.209 . S
C263 O260 1.258 . S
C263 O265 1.282 . S
O264 Cd256 2.277 . S
O264 C257 1.226 . S
O265 Cd256 2.356 . S
O265 C263 1.282 . S
C266 O267 1.306 . S
C266 O269 1.160 . S
O267 C266 1.306 . S
O267 Cd268 2.228 . S
Cd268 O267 2.228 . S
Cd268 O272 2.273 . S
Cd268 O276 2.277 . S
O269 C266 1.160 . S
O269 Cd270 2.203 . S
Cd270 O269 2.203 . S
Cd270 O272 2.411 . S
Cd270 O273 2.333 . S
Cd270 O274 2.352 . S
Cd270 O278 2.277 . S
Cd270 O279 2.356 . S
C271 O276 1.209 . S
C271 O278 1.226 . S
O272 Cd268 2.273 . S
O272 Cd270 2.411 . S
O272 C275 1.320 . S
O273 Cd270 2.333 . S
O273 C275 1.214 . S
O274 Cd270 2.352 . S
O274 C277 1.258 . S
C275 O272 1.320 . S
C275 O273 1.214 . S
O276 Cd268 2.277 . S
O276 C271 1.209 . S
C277 O274 1.258 . S
C277 O279 1.282 . S
O278 Cd270 2.277 . S
O278 C271 1.226 . S
O279 Cd270 2.356 . S
O279 C277 1.282 . S
C280 O281 1.306 . S
C280 O283 1.160 . S
O281 C280 1.306 . S
O281 Cd282 2.228 . S
Cd282 O281 2.228 . S
Cd282 O286 2.273 . S
Cd282 O290 2.277 . S
O283 C280 1.160 . S
O283 Cd284 2.203 . S
Cd284 O283 2.203 . S
Cd284 O286 2.411 . S
Cd284 O287 2.333 . S
Cd284 O288 2.352 . S
Cd284 O292 2.277 . S
Cd284 O293 2.356 . S
C285 O290 1.209 . S
C285 O292 1.226 . S
O286 Cd282 2.273 . S
O286 Cd284 2.411 . S
O286 C289 1.320 . S
O287 Cd284 2.333 . S
O287 C289 1.214 . S
O288 Cd284 2.352 . S
O288 C291 1.258 . S
C289 O286 1.320 . S
C289 O287 1.214 . S
O290 Cd282 2.277 . S
O290 C285 1.209 . S
C291 O288 1.258 . S
C291 O293 1.282 . S
O292 Cd284 2.277 . S
O292 C285 1.226 . S
O293 Cd284 2.356 . S
O293 C291 1.282 . S
C294 O295 1.306 . S
C294 O297 1.160 . S
O295 C294 1.306 . S
O295 Cd296 2.228 . S
Cd296 O295 2.228 . S
Cd296 O300 2.273 . S
Cd296 O304 2.277 . S
O297 C294 1.160 . S
O297 Cd298 2.203 . S
Cd298 O297 2.203 . S
Cd298 O300 2.411 . S
Cd298 O301 2.333 . S
Cd298 O302 2.352 . S
Cd298 O306 2.277 . S
Cd298 O307 2.356 . S
C299 O304 1.209 . S
C299 O306 1.226 . S
O300 Cd296 2.273 . S
O300 Cd298 2.411 . S
O300 C303 1.320 . S
O301 Cd298 2.333 . S
O301 C303 1.214 . S
O302 Cd298 2.352 . S
O302 C305 1.258 . S
C303 O300 1.320 . S
C303 O301 1.214 . S
O304 Cd296 2.277 . S
O304 C299 1.209 . S
C305 O302 1.258 . S
C305 O307 1.282 . S
O306 Cd298 2.277 . S
O306 C299 1.226 . S
O307 Cd298 2.356 . S
O307 C305 1.282 . S
C308 O309 1.306 . S
C308 O311 1.160 . S
O309 C308 1.306 . S
O309 Cd310 2.228 . S
Cd310 O309 2.228 . S
Cd310 O314 2.273 . S
Cd310 O318 2.277 . S
O311 C308 1.160 . S
O311 Cd312 2.203 . S
Cd312 O311 2.203 . S
Cd312 O314 2.411 . S
Cd312 O315 2.333 . S
Cd312 O316 2.352 . S
Cd312 O320 2.277 . S
Cd312 O321 2.356 . S
C313 O318 1.209 . S
C313 O320 1.226 . S
O314 Cd310 2.273 . S
O314 Cd312 2.411 . S
O314 C317 1.320 . S
O315 Cd312 2.333 . S
O315 C317 1.214 . S
O316 Cd312 2.352 . S
O316 C319 1.258 . S
C317 O314 1.320 . S
C317 O315 1.214 . S
O318 Cd310 2.277 . S
O318 C313 1.209 . S
C319 O316 1.258 . S
C319 O321 1.282 . S
O320 Cd312 2.277 . S
O320 C313 1.226 . S
O321 Cd312 2.356 . S
O321 C319 1.282 . S
C322 O323 1.306 . S
C322 O325 1.160 . S
O323 C322 1.306 . S
O323 Cd324 2.228 . S
Cd324 O323 2.228 . S
Cd324 O328 2.273 . S
Cd324 O332 2.277 . S
O325 C322 1.160 . S
O325 Cd326 2.203 . S
Cd326 O325 2.203 . S
Cd326 O328 2.411 . S
Cd326 O329 2.333 . S
Cd326 O330 2.352 . S
Cd326 O334 2.277 . S
Cd326 O335 2.356 . S
C327 O332 1.209 . S
C327 O334 1.226 . S
O328 Cd324 2.273 . S
O328 Cd326 2.411 . S
O328 C331 1.320 . S
O329 Cd326 2.333 . S
O329 C331 1.214 . S
O330 Cd326 2.352 . S
O330 C333 1.258 . S
C331 O328 1.320 . S
C331 O329 1.214 . S
O332 Cd324 2.277 . S
O332 C327 1.209 . S
C333 O330 1.258 . S
C333 O335 1.282 . S
O334 Cd326 2.277 . S
O334 C327 1.226 . S
O335 Cd326 2.356 . S
O335 C333 1.282 . S
C336 O337 1.306 . S
C336 O339 1.160 . S
O337 C336 1.306 . S
O337 Cd338 2.228 . S
Cd338 O337 2.228 . S
Cd338 O342 2.273 . S
Cd338 O346 2.277 . S
O339 C336 1.160 . S
O339 Cd340 2.203 . S
Cd340 O339 2.203 . S
Cd340 O342 2.411 . S
Cd340 O343 2.333 . S
Cd340 O344 2.352 . S
Cd340 O348 2.277 . S
Cd340 O349 2.356 . S
C341 O346 1.209 . S
C341 O348 1.226 . S
O342 Cd338 2.273 . S
O342 Cd340 2.411 . S
O342 C345 1.320 . S
O343 Cd340 2.333 . S
O343 C345 1.214 . S
O344 Cd340 2.352 . S
O344 C347 1.258 . S
C345 O342 1.320 . S
C345 O343 1.214 . S
O346 Cd338 2.277 . S
O346 C341 1.209 . S
C347 O344 1.258 . S
C347 O349 1.282 . S
O348 Cd340 2.277 . S
O348 C341 1.226 . S
O349 Cd340 2.356 . S
O349 C347 1.282 . S
C350 O351 1.306 . S
C350 O353 1.160 . S
O351 C350 1.306 . S
O351 Cd352 2.228 . S
Cd352 O351 2.228 . S
Cd352 O356 2.273 . S
Cd352 O360 2.277 . S
O353 C350 1.160 . S
O353 Cd354 2.203 . S
Cd354 O353 2.203 . S
Cd354 O356 2.411 . S
Cd354 O357 2.333 . S
Cd354 O358 2.352 . S
Cd354 O362 2.277 . S
Cd354 O363 2.356 . S
C355 O360 1.209 . S
C355 O362 1.226 . S
O356 Cd352 2.273 . S
O356 Cd354 2.411 . S
O356 C359 1.320 . S
O357 Cd354 2.333 . S
O357 C359 1.214 . S
O358 Cd354 2.352 . S
O358 C361 1.258 . S
C359 O356 1.320 . S
C359 O357 1.214 . S
O360 Cd352 2.277 . S
O360 C355 1.209 . S
C361 O358 1.258 . S
C361 O363 1.282 . S
O362 Cd354 2.277 . S
O362 C355 1.226 . S
O363 Cd354 2.356 . S
O363 C361 1.282 . S
C364 O365 1.306 . S
C364 O367 1.160 . S
O365 C364 1.306 . S
O365 Cd366 2.228 . S
Cd366 O365 2.228 . S
Cd366 O370 2.273 . S
Cd366 O374 2.277 . S
O367 C364 1.160 . S
O367 Cd368 2.203 . S
Cd368 O367 2.203 . S
Cd368 O370 2.411 . S
Cd368 O371 2.333 . S
Cd368 O372 2.352 . S
Cd368 O376 2.277 . S
Cd368 O377 2.356 . S
C369 O374 1.209 . S
C369 O376 1.226 . S
O370 Cd366 2.273 . S
O370 Cd368 2.411 . S
O370 C373 1.320 . S
O371 Cd368 2.333 . S
O371 C373 1.214 . S
O372 Cd368 2.352 . S
O372 C375 1.258 . S
C373 O370 1.320 . S
C373 O371 1.214 . S
O374 Cd366 2.277 . S
O374 C369 1.209 . S
C375 O372 1.258 . S
C375 O377 1.282 . S
O376 Cd368 2.277 . S
O376 C369 1.226 . S
O377 Cd368 2.356 . S
O377 C375 1.282 . S
C378 O379 1.306 . S
C378 O381 1.160 . S
O379 C378 1.306 . S
O379 Cd380 2.228 . S
Cd380 O379 2.228 . S
Cd380 O384 2.273 . S
Cd380 O388 2.277 . S
O381 C378 1.160 . S
O381 Cd382 2.203 . S
Cd382 O381 2.203 . S
Cd382 O384 2.411 . S
Cd382 O385 2.333 . S
Cd382 O386 2.352 . S
Cd382 O390 2.277 . S
Cd382 O391 2.356 . S
C383 O388 1.209 . S
C383 O390 1.226 . S
O384 Cd380 2.273 . S
O384 Cd382 2.411 . S
O384 C387 1.320 . S
O385 Cd382 2.333 . S
O385 C387 1.214 . S
O386 Cd382 2.352 . S
O386 C389 1.258 . S
C387 O384 1.320 . S
C387 O385 1.214 . S
O388 Cd380 2.277 . S
O388 C383 1.209 . S
C389 O386 1.258 . S
C389 O391 1.282 . S
O390 Cd382 2.277 . S
O390 C383 1.226 . S
O391 Cd382 2.356 . S
O391 C389 1.282 . S
C392 O393 1.306 . S
C392 O395 1.160 . S
O393 C392 1.306 . S
O393 Cd394 2.228 . S
Cd394 O393 2.228 . S
Cd394 O398 2.273 . S
Cd394 O402 2.277 . S
O395 C392 1.160 . S
O395 Cd396 2.203 . S
Cd396 O395 2.203 . S
Cd396 O398 2.411 . S
Cd396 O399 2.333 . S
Cd396 O400 2.352 . S
Cd396 O404 2.277 . S
Cd396 O405 2.356 . S
C397 O402 1.209 . S
C397 O404 1.226 . S
O398 Cd394 2.273 . S
O398 Cd396 2.411 . S
O398 C401 1.320 . S
O399 Cd396 2.333 . S
O399 C401 1.214 . S
O400 Cd396 2.352 . S
O400 C403 1.258 . S
C401 O398 1.320 . S
C401 O399 1.214 . S
O402 Cd394 2.277 . S
O402 C397 1.209 . S
C403 O400 1.258 . S
C403 O405 1.282 . S
O404 Cd396 2.277 . S
O404 C397 1.226 . S
O405 Cd396 2.356 . S
O405 C403 1.282 . S
C406 O407 1.306 . S
C406 O409 1.160 . S
O407 C406 1.306 . S
O407 Cd408 2.228 . S
Cd408 O407 2.228 . S
Cd408 O412 2.273 . S
Cd408 O416 2.277 . S
O409 C406 1.160 . S
O409 Cd410 2.203 . S
Cd410 O409 2.203 . S
Cd410 O412 2.411 . S
Cd410 O413 2.333 . S
Cd410 O414 2.352 . S
Cd410 O418 2.277 . S
Cd410 O419 2.356 . S
C411 O416 1.209 . S
C411 O418 1.226 . S
O412 Cd408 2.273 . S
O412 Cd410 2.411 . S
O412 C415 1.320 . S
O413 Cd410 2.333 . S
O413 C415 1.214 . S
O414 Cd410 2.352 . S
O414 C417 1.258 . S
C415 O412 1.320 . S
C415 O413 1.214 . S
O416 Cd408 2.277 . S
O416 C411 1.209 . S
C417 O414 1.258 . S
C417 O419 1.282 . S
O418 Cd410 2.277 . S
O418 C411 1.226 . S
O419 Cd410 2.356 . S
O419 C417 1.282 . S
C420 O421 1.306 . S
C420 O423 1.160 . S
O421 C420 1.306 . S
O421 Cd422 2.228 . S
Cd422 O421 2.228 . S
Cd422 O426 2.273 . S
Cd422 O430 2.277 . S
O423 C420 1.160 . S
O423 Cd424 2.203 . S
Cd424 O423 2.203 . S
Cd424 O426 2.411 . S
Cd424 O427 2.333 . S
Cd424 O428 2.352 . S
Cd424 O432 2.277 . S
Cd424 O433 2.356 . S
C425 O430 1.209 . S
C425 O432 1.226 . S
O426 Cd422 2.273 . S
O426 Cd424 2.411 . S
O426 C429 1.320 . S
O427 Cd424 2.333 . S
O427 C429 1.214 . S
O428 Cd424 2.352 . S
O428 C431 1.258 . S
C429 O426 1.320 . S
C429 O427 1.214 . S
O430 Cd422 2.277 . S
O430 C425 1.209 . S
C431 O428 1.258 . S
C431 O433 1.282 . S
O432 Cd424 2.277 . S
O432 C425 1.226 . S
O433 Cd424 2.356 . S
O433 C431 1.282 . S
C434 O435 1.306 . S
C434 O437 1.160 . S
O435 C434 1.306 . S
O435 Cd436 2.228 . S
Cd436 O435 2.228 . S
Cd436 O440 2.273 . S
Cd436 O444 2.277 . S
O437 C434 1.160 . S
O437 Cd438 2.203 . S
Cd438 O437 2.203 . S
Cd438 O440 2.411 . S
Cd438 O441 2.333 . S
Cd438 O442 2.352 . S
Cd438 O446 2.277 . S
Cd438 O447 2.356 . S
C439 O444 1.209 . S
C439 O446 1.226 . S
O440 Cd436 2.273 . S
O440 Cd438 2.411 . S
O440 C443 1.320 . S
O441 Cd438 2.333 . S
O441 C443 1.214 . S
O442 Cd438 2.352 . S
O442 C445 1.258 . S
C443 O440 1.320 . S
C443 O441 1.214 . S
O444 Cd436 2.277 . S
O444 C439 1.209 . S
C445 O442 1.258 . S
C445 O447 1.282 . S
O446 Cd438 2.277 . S
O446 C439 1.226 . S
O447 Cd438 2.356 . S
O447 C445 1.282 . S
H448 C466 0.951 . S
H449 C468 0.951 . S
H450 C470 0.950 . S
H451 C471 0.950 . S
H452 C473 0.950 . S
H453 C476 0.950 . S
H454 C477 0.950 . S
H455 C479 0.950 . S
H456 C480 0.950 . S
H457 C481 0.951 . S
H458 C483 0.951 . S
H459 C485 0.950 . S
H460 C486 0.950 . S
H461 C488 0.950 . S
H462 C491 0.950 . S
H463 C492 0.950 . S
H464 C494 0.950 . S
H465 C495 0.950 . S
C466 H448 0.951 . S
C466 C467 1.366 . S
C466 C468 1.388 . S
C467 C466 1.366 . S
C467 C471 1.385 . S
C468 H449 0.951 . S
C468 C466 1.388 . S
C468 C469 1.366 . S
C469 C468 1.366 . S
C469 C470 1.414 . S
C469 C472 1.499 . S
C470 H450 0.950 . S
C470 C469 1.414 . S
C470 C471 1.374 . S
C471 H451 0.950 . S
C471 C467 1.385 . S
C471 C470 1.374 . S
C472 C469 1.499 . S
C472 C473 1.373 . S
C472 C474 1.389 . S
C473 H452 0.950 . S
C473 C472 1.373 . S
C473 C489 1.377 . S
C474 C472 1.389 . S
C474 C475 1.524 . S
C474 C488 1.377 . S
C475 C474 1.524 . S
C475 C476 1.397 . S
C475 C480 1.363 . S
C476 H453 0.950 . S
C476 C475 1.397 . S
C476 C477 1.334 . S
C477 H454 0.950 . S
C477 C476 1.334 . S
C477 C478 1.287 . S
C478 C477 1.287 . S
C478 C479 1.524 . S
C478 H497 0.913 . S
C479 H455 0.950 . S
C479 C478 1.524 . S
C479 C480 1.415 . S
C480 H456 0.950 . S
C480 C475 1.363 . S
C480 C479 1.415 . S
C481 H457 0.951 . S
C481 C482 1.366 . S
C481 C483 1.388 . S
C482 C481 1.366 . S
C482 C486 1.385 . S
C483 H458 0.951 . S
C483 C481 1.388 . S
C483 C484 1.366 . S
C484 C483 1.366 . S
C484 C485 1.414 . S
C484 C487 1.499 . S
C485 H459 0.950 . S
C485 C484 1.414 . S
C485 C486 1.374 . S
C486 H460 0.950 . S
C486 C482 1.385 . S
C486 C485 1.374 . S
C487 C484 1.499 . S
C487 C488 1.373 . S
C487 C489 1.389 . S
C488 H461 0.950 . S
C488 C474 1.377 . S
C488 C487 1.373 . S
C489 C473 1.377 . S
C489 C487 1.389 . S
C489 C490 1.524 . S
C490 C489 1.524 . S
C490 C491 1.397 . S
C490 C495 1.363 . S
C491 H462 0.950 . S
C491 C490 1.397 . S
C491 C492 1.334 . S
C492 H463 0.950 . S
C492 C491 1.334 . S
C492 C493 1.287 . S
C493 C492 1.287 . S
C493 C494 1.524 . S
C493 H496 0.999 . S
C494 H464 0.950 . S
C494 C493 1.524 . S
C494 C495 1.415 . S
C495 H465 0.950 . S
C495 C490 1.363 . S
C495 C494 1.415 . S
H496 C493 0.999 . S
H497 C478 0.913 . S
H498 C516 0.951 . S
H499 C518 0.951 . S
H500 C520 0.950 . S
H501 C521 0.950 . S
H502 C523 0.950 . S
H503 C526 0.950 . S
H504 C527 0.950 . S
H505 C529 0.950 . S
H506 C530 0.950 . S
H507 C531 0.951 . S
H508 C533 0.951 . S
H509 C535 0.950 . S
H510 C536 0.950 . S
H511 C538 0.950 . S
H512 C541 0.950 . S
H513 C542 0.950 . S
H514 C544 0.950 . S
H515 C545 0.950 . S
C516 H498 0.951 . S
C516 C517 1.366 . S
C516 C518 1.388 . S
C517 C516 1.366 . S
C517 C521 1.385 . S
C518 H499 0.951 . S
C518 C516 1.388 . S
C518 C519 1.366 . S
C519 C518 1.366 . S
C519 C520 1.414 . S
C519 C522 1.499 . S
C520 H500 0.950 . S
C520 C519 1.414 . S
C520 C521 1.374 . S
C521 H501 0.950 . S
C521 C517 1.385 . S
C521 C520 1.374 . S
C522 C519 1.499 . S
C522 C523 1.373 . S
C522 C524 1.389 . S
C523 H502 0.950 . S
C523 C522 1.373 . S
C523 C539 1.377 . S
C524 C522 1.389 . S
C524 C525 1.524 . S
C524 C538 1.377 . S
C525 C524 1.524 . S
C525 C526 1.397 . S
C525 C530 1.363 . S
C526 H503 0.950 . S
C526 C525 1.397 . S
C526 C527 1.334 . S
C527 H504 0.950 . S
C527 C526 1.334 . S
C527 C528 1.287 . S
C528 C527 1.287 . S
C528 C529 1.524 . S
C528 H547 0.913 . S
C529 H505 0.950 . S
C529 C528 1.524 . S
C529 C530 1.415 . S
C530 H506 0.950 . S
C530 C525 1.363 . S
C530 C529 1.415 . S
C531 H507 0.951 . S
C531 C532 1.366 . S
C531 C533 1.388 . S
C532 C531 1.366 . S
C532 C536 1.385 . S
C533 H508 0.951 . S
C533 C531 1.388 . S
C533 C534 1.366 . S
C534 C533 1.366 . S
C534 C535 1.414 . S
C534 C537 1.499 . S
C535 H509 0.950 . S
C535 C534 1.414 . S
C535 C536 1.374 . S
C536 H510 0.950 . S
C536 C532 1.385 . S
C536 C535 1.374 . S
C537 C534 1.499 . S
C537 C538 1.373 . S
C537 C539 1.389 . S
C538 H511 0.950 . S
C538 C524 1.377 . S
C538 C537 1.373 . S
C539 C523 1.377 . S
C539 C537 1.389 . S
C539 C540 1.524 . S
C540 C539 1.524 . S
C540 C541 1.397 . S
C540 C545 1.363 . S
C541 H512 0.950 . S
C541 C540 1.397 . S
C541 C542 1.334 . S
C542 H513 0.950 . S
C542 C541 1.334 . S
C542 C543 1.287 . S
C543 C542 1.287 . S
C543 C544 1.524 . S
C543 H546 0.999 . S
C544 H514 0.950 . S
C544 C543 1.524 . S
C544 C545 1.415 . S
C545 H515 0.950 . S
C545 C540 1.363 . S
C545 C544 1.415 . S
H546 C543 0.999 . S
H547 C528 0.913 . S
H548 C566 0.951 . S
H549 C568 0.951 . S
H550 C570 0.950 . S
H551 C571 0.950 . S
H552 C573 0.950 . S
H553 C576 0.950 . S
H554 C577 0.950 . S
H555 C579 0.950 . S
H556 C580 0.950 . S
H557 C581 0.951 . S
H558 C583 0.951 . S
H559 C585 0.950 . S
H560 C586 0.950 . S
H561 C588 0.950 . S
H562 C591 0.950 . S
H563 C592 0.950 . S
H564 C594 0.950 . S
H565 C595 0.950 . S
C566 H548 0.951 . S
C566 C567 1.366 . S
C566 C568 1.388 . S
C567 C566 1.366 . S
C567 C571 1.385 . S
C568 H549 0.951 . S
C568 C566 1.388 . S
C568 C569 1.366 . S
C569 C568 1.366 . S
C569 C570 1.414 . S
C569 C572 1.499 . S
C570 H550 0.950 . S
C570 C569 1.414 . S
C570 C571 1.374 . S
C571 H551 0.950 . S
C571 C567 1.385 . S
C571 C570 1.374 . S
C572 C569 1.499 . S
C572 C573 1.373 . S
C572 C574 1.389 . S
C573 H552 0.950 . S
C573 C572 1.373 . S
C573 C589 1.377 . S
C574 C572 1.389 . S
C574 C575 1.524 . S
C574 C588 1.377 . S
C575 C574 1.524 . S
C575 C576 1.397 . S
C575 C580 1.363 . S
C576 H553 0.950 . S
C576 C575 1.397 . S
C576 C577 1.334 . S
C577 H554 0.950 . S
C577 C576 1.334 . S
C577 C578 1.287 . S
C578 C577 1.287 . S
C578 C579 1.524 . S
C578 H597 0.913 . S
C579 H555 0.950 . S
C579 C578 1.524 . S
C579 C580 1.415 . S
C580 H556 0.950 . S
C580 C575 1.363 . S
C580 C579 1.415 . S
C581 H557 0.951 . S
C581 C582 1.366 . S
C581 C583 1.388 . S
C582 C581 1.366 . S
C582 C586 1.385 . S
C583 H558 0.951 . S
C583 C581 1.388 . S
C583 C584 1.366 . S
C584 C583 1.366 . S
C584 C585 1.414 . S
C584 C587 1.499 . S
C585 H559 0.950 . S
C585 C584 1.414 . S
C585 C586 1.374 . S
C586 H560 0.950 . S
C586 C582 1.385 . S
C586 C585 1.374 . S
C587 C584 1.499 . S
C587 C588 1.373 . S
C587 C589 1.389 . S
C588 H561 0.950 . S
C588 C574 1.377 . S
C588 C587 1.373 . S
C589 C573 1.377 . S
C589 C587 1.389 . S
C589 C590 1.524 . S
C590 C589 1.524 . S
C590 C591 1.397 . S
C590 C595 1.363 . S
C591 H562 0.950 . S
C591 C590 1.397 . S
C591 C592 1.334 . S
C592 H563 0.950 . S
C592 C591 1.334 . S
C592 C593 1.287 . S
C593 C592 1.287 . S
C593 C594 1.524 . S
C593 H596 0.999 . S
C594 H564 0.950 . S
C594 C593 1.524 . S
C594 C595 1.415 . S
C595 H565 0.950 . S
C595 C590 1.363 . S
C595 C594 1.415 . S
H596 C593 0.999 . S
H597 C578 0.913 . S
H598 C616 0.951 . S
H599 C618 0.951 . S
H600 C620 0.950 . S
H601 C621 0.950 . S
H602 C623 0.950 . S
H603 C626 0.950 . S
H604 C627 0.950 . S
H605 C629 0.950 . S
H606 C630 0.950 . S
H607 C631 0.951 . S
H608 C633 0.951 . S
H609 C635 0.950 . S
H610 C636 0.950 . S
H611 C638 0.950 . S
H612 C641 0.950 . S
H613 C642 0.950 . S
H614 C644 0.950 . S
H615 C645 0.950 . S
C616 H598 0.951 . S
C616 C617 1.366 . S
C616 C618 1.388 . S
C617 C616 1.366 . S
C617 C621 1.385 . S
C618 H599 0.951 . S
C618 C616 1.388 . S
C618 C619 1.366 . S
C619 C618 1.366 . S
C619 C620 1.414 . S
C619 C622 1.499 . S
C620 H600 0.950 . S
C620 C619 1.414 . S
C620 C621 1.374 . S
C621 H601 0.950 . S
C621 C617 1.385 . S
C621 C620 1.374 . S
C622 C619 1.499 . S
C622 C623 1.373 . S
C622 C624 1.389 . S
C623 H602 0.950 . S
C623 C622 1.373 . S
C623 C639 1.377 . S
C624 C622 1.389 . S
C624 C625 1.524 . S
C624 C638 1.377 . S
C625 C624 1.524 . S
C625 C626 1.397 . S
C625 C630 1.363 . S
C626 H603 0.950 . S
C626 C625 1.397 . S
C626 C627 1.334 . S
C627 H604 0.950 . S
C627 C626 1.334 . S
C627 C628 1.287 . S
C628 C627 1.287 . S
C628 C629 1.524 . S
C628 H647 0.913 . S
C629 H605 0.950 . S
C629 C628 1.524 . S
C629 C630 1.415 . S
C630 H606 0.950 . S
C630 C625 1.363 . S
C630 C629 1.415 . S
C631 H607 0.951 . S
C631 C632 1.366 . S
C631 C633 1.388 . S
C632 C631 1.366 . S
C632 C636 1.385 . S
C633 H608 0.951 . S
C633 C631 1.388 . S
C633 C634 1.366 . S
C634 C633 1.366 . S
C634 C635 1.414 . S
C634 C637 1.499 . S
C635 H609 0.950 . S
C635 C634 1.414 . S
C635 C636 1.374 . S
C636 H610 0.950 . S
C636 C632 1.385 . S
C636 C635 1.374 . S
C637 C634 1.499 . S
C637 C638 1.373 . S
C637 C639 1.389 . S
C638 H611 0.950 . S
C638 C624 1.377 . S
C638 C637 1.373 . S
C639 C623 1.377 . S
C639 C637 1.389 . S
C639 C640 1.524 . S
C640 C639 1.524 . S
C640 C641 1.397 . S
C640 C645 1.363 . S
C641 H612 0.950 . S
C641 C640 1.397 . S
C641 C642 1.334 . S
C642 H613 0.950 . S
C642 C641 1.334 . S
C642 C643 1.287 . S
C643 C642 1.287 . S
C643 C644 1.524 . S
C643 H646 0.999 . S
C644 H614 0.950 . S
C644 C643 1.524 . S
C644 C645 1.415 . S
C645 H615 0.950 . S
C645 C640 1.363 . S
C645 C644 1.415 . S
H646 C643 0.999 . S
H647 C628 0.913 . S
H648 C666 0.951 . S
H649 C668 0.951 . S
H650 C670 0.950 . S
H651 C671 0.950 . S
H652 C673 0.950 . S
H653 C676 0.950 . S
H654 C677 0.950 . S
H655 C679 0.950 . S
H656 C680 0.950 . S
H657 C681 0.951 . S
H658 C683 0.951 . S
H659 C685 0.950 . S
H660 C686 0.950 . S
H661 C688 0.950 . S
H662 C691 0.950 . S
H663 C692 0.950 . S
H664 C694 0.950 . S
H665 C695 0.950 . S
C666 H648 0.951 . S
C666 C667 1.366 . S
C666 C668 1.388 . S
C667 C666 1.366 . S
C667 C671 1.385 . S
C668 H649 0.951 . S
C668 C666 1.388 . S
C668 C669 1.366 . S
C669 C668 1.366 . S
C669 C670 1.414 . S
C669 C672 1.499 . S
C670 H650 0.950 . S
C670 C669 1.414 . S
C670 C671 1.374 . S
C671 H651 0.950 . S
C671 C667 1.385 . S
C671 C670 1.374 . S
C672 C669 1.499 . S
C672 C673 1.373 . S
C672 C674 1.389 . S
C673 H652 0.950 . S
C673 C672 1.373 . S
C673 C689 1.377 . S
C674 C672 1.389 . S
C674 C675 1.524 . S
C674 C688 1.377 . S
C675 C674 1.524 . S
C675 C676 1.397 . S
C675 C680 1.363 . S
C676 H653 0.950 . S
C676 C675 1.397 . S
C676 C677 1.334 . S
C677 H654 0.950 . S
C677 C676 1.334 . S
C677 C678 1.287 . S
C678 C677 1.287 . S
C678 C679 1.524 . S
C678 H697 0.913 . S
C679 H655 0.950 . S
C679 C678 1.524 . S
C679 C680 1.415 . S
C680 H656 0.950 . S
C680 C675 1.363 . S
C680 C679 1.415 . S
C681 H657 0.951 . S
C681 C682 1.366 . S
C681 C683 1.388 . S
C682 C681 1.366 . S
C682 C686 1.385 . S
C683 H658 0.951 . S
C683 C681 1.388 . S
C683 C684 1.366 . S
C684 C683 1.366 . S
C684 C685 1.414 . S
C684 C687 1.499 . S
C685 H659 0.950 . S
C685 C684 1.414 . S
C685 C686 1.374 . S
C686 H660 0.950 . S
C686 C682 1.385 . S
C686 C685 1.374 . S
C687 C684 1.499 . S
C687 C688 1.373 . S
C687 C689 1.389 . S
C688 H661 0.950 . S
C688 C674 1.377 . S
C688 C687 1.373 . S
C689 C673 1.377 . S
C689 C687 1.389 . S
C689 C690 1.524 . S
C690 C689 1.524 . S
C690 C691 1.397 . S
C690 C695 1.363 . S
C691 H662 0.950 . S
C691 C690 1.397 . S
C691 C692 1.334 . S
C692 H663 0.950 . S
C692 C691 1.334 . S
C692 C693 1.287 . S
C693 C692 1.287 . S
C693 C694 1.524 . S
C693 H696 0.999 . S
C694 H664 0.950 . S
C694 C693 1.524 . S
C694 C695 1.415 . S
C695 H665 0.950 . S
C695 C690 1.363 . S
C695 C694 1.415 . S
H696 C693 0.999 . S
H697 C678 0.913 . S
H698 C716 0.951 . S
H699 C718 0.951 . S
H700 C720 0.950 . S
H701 C721 0.950 . S
H702 C723 0.950 . S
H703 C726 0.950 . S
H704 C727 0.950 . S
H705 C729 0.950 . S
H706 C730 0.950 . S
H707 C731 0.951 . S
H708 C733 0.951 . S
H709 C735 0.950 . S
H710 C736 0.950 . S
H711 C738 0.950 . S
H712 C741 0.950 . S
H713 C742 0.950 . S
H714 C744 0.950 . S
H715 C745 0.950 . S
C716 H698 0.951 . S
C716 C717 1.366 . S
C716 C718 1.388 . S
C717 C716 1.366 . S
C717 C721 1.385 . S
C718 H699 0.951 . S
C718 C716 1.388 . S
C718 C719 1.366 . S
C719 C718 1.366 . S
C719 C720 1.414 . S
C719 C722 1.499 . S
C720 H700 0.950 . S
C720 C719 1.414 . S
C720 C721 1.374 . S
C721 H701 0.950 . S
C721 C717 1.385 . S
C721 C720 1.374 . S
C722 C719 1.499 . S
C722 C723 1.373 . S
C722 C724 1.389 . S
C723 H702 0.950 . S
C723 C722 1.373 . S
C723 C739 1.377 . S
C724 C722 1.389 . S
C724 C725 1.524 . S
C724 C738 1.377 . S
C725 C724 1.524 . S
C725 C726 1.397 . S
C725 C730 1.363 . S
C726 H703 0.950 . S
C726 C725 1.397 . S
C726 C727 1.334 . S
C727 H704 0.950 . S
C727 C726 1.334 . S
C727 C728 1.287 . S
C728 C727 1.287 . S
C728 C729 1.524 . S
C728 H747 0.913 . S
C729 H705 0.950 . S
C729 C728 1.524 . S
C729 C730 1.415 . S
C730 H706 0.950 . S
C730 C725 1.363 . S
C730 C729 1.415 . S
C731 H707 0.951 . S
C731 C732 1.366 . S
C731 C733 1.388 . S
C732 C731 1.366 . S
C732 C736 1.385 . S
C733 H708 0.951 . S
C733 C731 1.388 . S
C733 C734 1.366 . S
C734 C733 1.366 . S
C734 C735 1.414 . S
C734 C737 1.499 . S
C735 H709 0.950 . S
C735 C734 1.414 . S
C735 C736 1.374 . S
C736 H710 0.950 . S
C736 C732 1.385 . S
C736 C735 1.374 . S
C737 C734 1.499 . S
C737 C738 1.373 . S
C737 C739 1.389 . S
C738 H711 0.950 . S
C738 C724 1.377 . S
C738 C737 1.373 . S
C739 C723 1.377 . S
C739 C737 1.389 . S
C739 C740 1.524 . S
C740 C739 1.524 . S
C740 C741 1.397 . S
C740 C745 1.363 . S
C741 H712 0.950 . S
C741 C740 1.397 . S
C741 C742 1.334 . S
C742 H713 0.950 . S
C742 C741 1.334 . S
C742 C743 1.287 . S
C743 C742 1.287 . S
C743 C744 1.524 . S
C743 H746 0.999 . S
C744 H714 0.950 . S
C744 C743 1.524 . S
C744 C745 1.415 . S
C745 H715 0.950 . S
C745 C740 1.363 . S
C745 C744 1.415 . S
H746 C743 0.999 . S
H747 C728 0.913 . S
H748 C766 0.951 . S
H749 C768 0.951 . S
H750 C770 0.950 . S
H751 C771 0.950 . S
H752 C773 0.950 . S
H753 C776 0.950 . S
H754 C777 0.950 . S
H755 C779 0.950 . S
H756 C780 0.950 . S
H757 C781 0.951 . S
H758 C783 0.951 . S
H759 C785 0.950 . S
H760 C786 0.950 . S
H761 C788 0.950 . S
H762 C791 0.950 . S
H763 C792 0.950 . S
H764 C794 0.950 . S
H765 C795 0.950 . S
C766 H748 0.951 . S
C766 C767 1.366 . S
C766 C768 1.388 . S
C767 C766 1.366 . S
C767 C771 1.385 . S
C768 H749 0.951 . S
C768 C766 1.388 . S
C768 C769 1.366 . S
C769 C768 1.366 . S
C769 C770 1.414 . S
C769 C772 1.499 . S
C770 H750 0.950 . S
C770 C769 1.414 . S
C770 C771 1.374 . S
C771 H751 0.950 . S
C771 C767 1.385 . S
C771 C770 1.374 . S
C772 C769 1.499 . S
C772 C773 1.373 . S
C772 C774 1.389 . S
C773 H752 0.950 . S
C773 C772 1.373 . S
C773 C789 1.377 . S
C774 C772 1.389 . S
C774 C775 1.524 . S
C774 C788 1.377 . S
C775 C774 1.524 . S
C775 C776 1.397 . S
C775 C780 1.363 . S
C776 H753 0.950 . S
C776 C775 1.397 . S
C776 C777 1.334 . S
C777 H754 0.950 . S
C777 C776 1.334 . S
C777 C778 1.287 . S
C778 C777 1.287 . S
C778 C779 1.524 . S
C778 H797 0.913 . S
C779 H755 0.950 . S
C779 C778 1.524 . S
C779 C780 1.415 . S
C780 H756 0.950 . S
C780 C775 1.363 . S
C780 C779 1.415 . S
C781 H757 0.951 . S
C781 C782 1.366 . S
C781 C783 1.388 . S
C782 C781 1.366 . S
C782 C786 1.385 . S
C783 H758 0.951 . S
C783 C781 1.388 . S
C783 C784 1.366 . S
C784 C783 1.366 . S
C784 C785 1.414 . S
C784 C787 1.499 . S
C785 H759 0.950 . S
C785 C784 1.414 . S
C785 C786 1.374 . S
C786 H760 0.950 . S
C786 C782 1.385 . S
C786 C785 1.374 . S
C787 C784 1.499 . S
C787 C788 1.373 . S
C787 C789 1.389 . S
C788 H761 0.950 . S
C788 C774 1.377 . S
C788 C787 1.373 . S
C789 C773 1.377 . S
C789 C787 1.389 . S
C789 C790 1.524 . S
C790 C789 1.524 . S
C790 C791 1.397 . S
C790 C795 1.363 . S
C791 H762 0.950 . S
C791 C790 1.397 . S
C791 C792 1.334 . S
C792 H763 0.950 . S
C792 C791 1.334 . S
C792 C793 1.287 . S
C793 C792 1.287 . S
C793 C794 1.524 . S
C793 H796 0.999 . S
C794 H764 0.950 . S
C794 C793 1.524 . S
C794 C795 1.415 . S
C795 H765 0.950 . S
C795 C790 1.363 . S
C795 C794 1.415 . S
H796 C793 0.999 . S
H797 C778 0.913 . S
H798 C816 0.951 . S
H799 C818 0.951 . S
H800 C820 0.950 . S
H801 C821 0.950 . S
H802 C823 0.950 . S
H803 C826 0.950 . S
H804 C827 0.950 . S
H805 C829 0.950 . S
H806 C830 0.950 . S
H807 C831 0.951 . S
H808 C833 0.951 . S
H809 C835 0.950 . S
H810 C836 0.950 . S
H811 C838 0.950 . S
H812 C841 0.950 . S
H813 C842 0.950 . S
H814 C844 0.950 . S
H815 C845 0.950 . S
C816 H798 0.951 . S
C816 C817 1.366 . S
C816 C818 1.388 . S
C817 C816 1.366 . S
C817 C821 1.385 . S
C818 H799 0.951 . S
C818 C816 1.388 . S
C818 C819 1.366 . S
C819 C818 1.366 . S
C819 C820 1.414 . S
C819 C822 1.499 . S
C820 H800 0.950 . S
C820 C819 1.414 . S
C820 C821 1.374 . S
C821 H801 0.950 . S
C821 C817 1.385 . S
C821 C820 1.374 . S
C822 C819 1.499 . S
C822 C823 1.373 . S
C822 C824 1.389 . S
C823 H802 0.950 . S
C823 C822 1.373 . S
C823 C839 1.377 . S
C824 C822 1.389 . S
C824 C825 1.524 . S
C824 C838 1.377 . S
C825 C824 1.524 . S
C825 C826 1.397 . S
C825 C830 1.363 . S
C826 H803 0.950 . S
C826 C825 1.397 . S
C826 C827 1.334 . S
C827 H804 0.950 . S
C827 C826 1.334 . S
C827 C828 1.287 . S
C828 C827 1.287 . S
C828 C829 1.524 . S
C828 H847 0.913 . S
C829 H805 0.950 . S
C829 C828 1.524 . S
C829 C830 1.415 . S
C830 H806 0.950 . S
C830 C825 1.363 . S
C830 C829 1.415 . S
C831 H807 0.951 . S
C831 C832 1.366 . S
C831 C833 1.388 . S
C832 C831 1.366 . S
C832 C836 1.385 . S
C833 H808 0.951 . S
C833 C831 1.388 . S
C833 C834 1.366 . S
C834 C833 1.366 . S
C834 C835 1.414 . S
C834 C837 1.499 . S
C835 H809 0.950 . S
C835 C834 1.414 . S
C835 C836 1.374 . S
C836 H810 0.950 . S
C836 C832 1.385 . S
C836 C835 1.374 . S
C837 C834 1.499 . S
C837 C838 1.373 . S
C837 C839 1.389 . S
C838 H811 0.950 . S
C838 C824 1.377 . S
C838 C837 1.373 . S
C839 C823 1.377 . S
C839 C837 1.389 . S
C839 C840 1.524 . S
C840 C839 1.524 . S
C840 C841 1.397 . S
C840 C845 1.363 . S
C841 H812 0.950 . S
C841 C840 1.397 . S
C841 C842 1.334 . S
C842 H813 0.950 . S
C842 C841 1.334 . S
C842 C843 1.287 . S
C843 C842 1.287 . S
C843 C844 1.524 . S
C843 H846 0.999 . S
C844 H814 0.950 . S
C844 C843 1.524 . S
C844 C845 1.415 . S
C845 H815 0.950 . S
C845 C840 1.363 . S
C845 C844 1.415 . S
H846 C843 0.999 . S
H847 C828 0.913 . S
H848 C866 0.951 . S
H849 C868 0.951 . S
H850 C870 0.950 . S
H851 C871 0.950 . S
H852 C873 0.950 . S
H853 C876 0.950 . S
H854 C877 0.950 . S
H855 C879 0.950 . S
H856 C880 0.950 . S
H857 C881 0.951 . S
H858 C883 0.951 . S
H859 C885 0.950 . S
H860 C886 0.950 . S
H861 C888 0.950 . S
H862 C891 0.950 . S
H863 C892 0.950 . S
H864 C894 0.950 . S
H865 C895 0.950 . S
C866 H848 0.951 . S
C866 C867 1.366 . S
C866 C868 1.388 . S
C867 C866 1.366 . S
C867 C871 1.385 . S
C868 H849 0.951 . S
C868 C866 1.388 . S
C868 C869 1.366 . S
C869 C868 1.366 . S
C869 C870 1.414 . S
C869 C872 1.499 . S
C870 H850 0.950 . S
C870 C869 1.414 . S
C870 C871 1.374 . S
C871 H851 0.950 . S
C871 C867 1.385 . S
C871 C870 1.374 . S
C872 C869 1.499 . S
C872 C873 1.373 . S
C872 C874 1.389 . S
C873 H852 0.950 . S
C873 C872 1.373 . S
C873 C889 1.377 . S
C874 C872 1.389 . S
C874 C875 1.524 . S
C874 C888 1.377 . S
C875 C874 1.524 . S
C875 C876 1.397 . S
C875 C880 1.363 . S
C876 H853 0.950 . S
C876 C875 1.397 . S
C876 C877 1.334 . S
C877 H854 0.950 . S
C877 C876 1.334 . S
C877 C878 1.287 . S
C878 C877 1.287 . S
C878 C879 1.524 . S
C878 H897 0.913 . S
C879 H855 0.950 . S
C879 C878 1.524 . S
C879 C880 1.415 . S
C880 H856 0.950 . S
C880 C875 1.363 . S
C880 C879 1.415 . S
C881 H857 0.951 . S
C881 C882 1.366 . S
C881 C883 1.388 . S
C882 C881 1.366 . S
C882 C886 1.385 . S
C883 H858 0.951 . S
C883 C881 1.388 . S
C883 C884 1.366 . S
C884 C883 1.366 . S
C884 C885 1.414 . S
C884 C887 1.499 . S
C885 H859 0.950 . S
C885 C884 1.414 . S
C885 C886 1.374 . S
C886 H860 0.950 . S
C886 C882 1.385 . S
C886 C885 1.374 . S
C887 C884 1.499 . S
C887 C888 1.373 . S
C887 C889 1.389 . S
C888 H861 0.950 . S
C888 C874 1.377 . S
C888 C887 1.373 . S
C889 C873 1.377 . S
C889 C887 1.389 . S
C889 C890 1.524 . S
C890 C889 1.524 . S
C890 C891 1.397 . S
C890 C895 1.363 . S
C891 H862 0.950 . S
C891 C890 1.397 . S
C891 C892 1.334 . S
C892 H863 0.950 . S
C892 C891 1.334 . S
C892 C893 1.287 . S
C893 C892 1.287 . S
C893 C894 1.524 . S
C893 H896 0.999 . S
C894 H864 0.950 . S
C894 C893 1.524 . S
C894 C895 1.415 . S
C895 H865 0.950 . S
C895 C890 1.363 . S
C895 C894 1.415 . S
H896 C893 0.999 . S
H897 C878 0.913 . S
H898 C916 0.951 . S
H899 C918 0.951 . S
H900 C920 0.950 . S
H901 C921 0.950 . S
H902 C923 0.950 . S
H903 C926 0.950 . S
H904 C927 0.950 . S
H905 C929 0.950 . S
H906 C930 0.950 . S
H907 C931 0.951 . S
H908 C933 0.951 . S
H909 C935 0.950 . S
H910 C936 0.950 . S
H911 C938 0.950 . S
H912 C941 0.950 . S
H913 C942 0.950 . S
H914 C944 0.950 . S
H915 C945 0.950 . S
C916 H898 0.951 . S
C916 C917 1.366 . S
C916 C918 1.388 . S
C917 C916 1.366 . S
C917 C921 1.385 . S
C918 H899 0.951 . S
C918 C916 1.388 . S
C918 C919 1.366 . S
C919 C918 1.366 . S
C919 C920 1.414 . S
C919 C922 1.499 . S
C920 H900 0.950 . S
C920 C919 1.414 . S
C920 C921 1.374 . S
C921 H901 0.950 . S
C921 C917 1.385 . S
C921 C920 1.374 . S
C922 C919 1.499 . S
C922 C923 1.373 . S
C922 C924 1.389 . S
C923 H902 0.950 . S
C923 C922 1.373 . S
C923 C939 1.377 . S
C924 C922 1.389 . S
C924 C925 1.524 . S
C924 C938 1.377 . S
C925 C924 1.524 . S
C925 C926 1.397 . S
C925 C930 1.363 . S
C926 H903 0.950 . S
C926 C925 1.397 . S
C926 C927 1.334 . S
C927 H904 0.950 . S
C927 C926 1.334 . S
C927 C928 1.287 . S
C928 C927 1.287 . S
C928 C929 1.524 . S
C928 H947 0.913 . S
C929 H905 0.950 . S
C929 C928 1.524 . S
C929 C930 1.415 . S
C930 H906 0.950 . S
C930 C925 1.363 . S
C930 C929 1.415 . S
C931 H907 0.951 . S
C931 C932 1.366 . S
C931 C933 1.388 . S
C932 C931 1.366 . S
C932 C936 1.385 . S
C933 H908 0.951 . S
C933 C931 1.388 . S
C933 C934 1.366 . S
C934 C933 1.366 . S
C934 C935 1.414 . S
C934 C937 1.499 . S
C935 H909 0.950 . S
C935 C934 1.414 . S
C935 C936 1.374 . S
C936 H910 0.950 . S
C936 C932 1.385 . S
C936 C935 1.374 . S
C937 C934 1.499 . S
C937 C938 1.373 . S
C937 C939 1.389 . S
C938 H911 0.950 . S
C938 C924 1.377 . S
C938 C937 1.373 . S
C939 C923 1.377 . S
C939 C937 1.389 . S
C939 C940 1.524 . S
C940 C939 1.524 . S
C940 C941 1.397 . S
C940 C945 1.363 . S
C941 H912 0.950 . S
C941 C940 1.397 . S
C941 C942 1.334 . S
C942 H913 0.950 . S
C942 C941 1.334 . S
C942 C943 1.287 . S
C943 C942 1.287 . S
C943 C944 1.524 . S
C943 H946 0.999 . S
C944 H914 0.950 . S
C944 C943 1.524 . S
C944 C945 1.415 . S
C945 H915 0.950 . S
C945 C940 1.363 . S
C945 C944 1.415 . S
H946 C943 0.999 . S
H947 C928 0.913 . S
H948 C966 0.951 . S
H949 C968 0.951 . S
H950 C970 0.950 . S
H951 C971 0.950 . S
H952 C973 0.950 . S
H953 C976 0.950 . S
H954 C977 0.950 . S
H955 C979 0.950 . S
H956 C980 0.950 . S
H957 C981 0.951 . S
H958 C983 0.951 . S
H959 C985 0.950 . S
H960 C986 0.950 . S
H961 C988 0.950 . S
H962 C991 0.950 . S
H963 C992 0.950 . S
H964 C994 0.950 . S
H965 C995 0.950 . S
C966 H948 0.951 . S
C966 C967 1.366 . S
C966 C968 1.388 . S
C967 C966 1.366 . S
C967 C971 1.385 . S
C968 H949 0.951 . S
C968 C966 1.388 . S
C968 C969 1.366 . S
C969 C968 1.366 . S
C969 C970 1.414 . S
C969 C972 1.499 . S
C970 H950 0.950 . S
C970 C969 1.414 . S
C970 C971 1.374 . S
C971 H951 0.950 . S
C971 C967 1.385 . S
C971 C970 1.374 . S
C972 C969 1.499 . S
C972 C973 1.373 . S
C972 C974 1.389 . S
C973 H952 0.950 . S
C973 C972 1.373 . S
C973 C989 1.377 . S
C974 C972 1.389 . S
C974 C975 1.524 . S
C974 C988 1.377 . S
C975 C974 1.524 . S
C975 C976 1.397 . S
C975 C980 1.363 . S
C976 H953 0.950 . S
C976 C975 1.397 . S
C976 C977 1.334 . S
C977 H954 0.950 . S
C977 C976 1.334 . S
C977 C978 1.287 . S
C978 C977 1.287 . S
C978 C979 1.524 . S
C978 H997 0.913 . S
C979 H955 0.950 . S
C979 C978 1.524 . S
C979 C980 1.415 . S
C980 H956 0.950 . S
C980 C975 1.363 . S
C980 C979 1.415 . S
C981 H957 0.951 . S
C981 C982 1.366 . S
C981 C983 1.388 . S
C982 C981 1.366 . S
C982 C986 1.385 . S
C983 H958 0.951 . S
C983 C981 1.388 . S
C983 C984 1.366 . S
C984 C983 1.366 . S
C984 C985 1.414 . S
C984 C987 1.499 . S
C985 H959 0.950 . S
C985 C984 1.414 . S
C985 C986 1.374 . S
C986 H960 0.950 . S
C986 C982 1.385 . S
C986 C985 1.374 . S
C987 C984 1.499 . S
C987 C988 1.373 . S
C987 C989 1.389 . S
C988 H961 0.950 . S
C988 C974 1.377 . S
C988 C987 1.373 . S
C989 C973 1.377 . S
C989 C987 1.389 . S
C989 C990 1.524 . S
C990 C989 1.524 . S
C990 C991 1.397 . S
C990 C995 1.363 . S
C991 H962 0.950 . S
C991 C990 1.397 . S
C991 C992 1.334 . S
C992 H963 0.950 . S
C992 C991 1.334 . S
C992 C993 1.287 . S
C993 C992 1.287 . S
C993 C994 1.524 . S
C993 H996 0.999 . S
C994 H964 0.950 . S
C994 C993 1.524 . S
C994 C995 1.415 . S
C995 H965 0.950 . S
C995 C990 1.363 . S
C995 C994 1.415 . S
H996 C993 0.999 . S
H997 C978 0.913 . S
H998 C1016 0.951 . S
H999 C1018 0.951 . S
H1000 C1020 0.950 . S
H1001 C1021 0.950 . S
H1002 C1023 0.950 . S
H1003 C1026 0.950 . S
H1004 C1027 0.950 . S
H1005 C1029 0.950 . S
H1006 C1030 0.950 . S
H1007 C1031 0.951 . S
H1008 C1033 0.951 . S
H1009 C1035 0.950 . S
H1010 C1036 0.950 . S
H1011 C1038 0.950 . S
H1012 C1041 0.950 . S
H1013 C1042 0.950 . S
H1014 C1044 0.950 . S
H1015 C1045 0.950 . S
C1016 H998 0.951 . S
C1016 C1017 1.366 . S
C1016 C1018 1.388 . S
C1017 C1016 1.366 . S
C1017 C1021 1.385 . S
C1018 H999 0.951 . S
C1018 C1016 1.388 . S
C1018 C1019 1.366 . S
C1019 C1018 1.366 . S
C1019 C1020 1.414 . S
C1019 C1022 1.499 . S
C1020 H1000 0.950 . S
C1020 C1019 1.414 . S
C1020 C1021 1.374 . S
C1021 H1001 0.950 . S
C1021 C1017 1.385 . S
C1021 C1020 1.374 . S
C1022 C1019 1.499 . S
C1022 C1023 1.373 . S
C1022 C1024 1.389 . S
C1023 H1002 0.950 . S
C1023 C1022 1.373 . S
C1023 C1039 1.377 . S
C1024 C1022 1.389 . S
C1024 C1025 1.524 . S
C1024 C1038 1.377 . S
C1025 C1024 1.524 . S
C1025 C1026 1.397 . S
C1025 C1030 1.363 . S
C1026 H1003 0.950 . S
C1026 C1025 1.397 . S
C1026 C1027 1.334 . S
C1027 H1004 0.950 . S
C1027 C1026 1.334 . S
C1027 C1028 1.287 . S
C1028 C1027 1.287 . S
C1028 C1029 1.524 . S
C1028 H1047 0.913 . S
C1029 H1005 0.950 . S
C1029 C1028 1.524 . S
C1029 C1030 1.415 . S
C1030 H1006 0.950 . S
C1030 C1025 1.363 . S
C1030 C1029 1.415 . S
C1031 H1007 0.951 . S
C1031 C1032 1.366 . S
C1031 C1033 1.388 . S
C1032 C1031 1.366 . S
C1032 C1036 1.385 . S
C1033 H1008 0.951 . S
C1033 C1031 1.388 . S
C1033 C1034 1.366 . S
C1034 C1033 1.366 . S
C1034 C1035 1.414 . S
C1034 C1037 1.499 . S
C1035 H1009 0.950 . S
C1035 C1034 1.414 . S
C1035 C1036 1.374 . S
C1036 H1010 0.950 . S
C1036 C1032 1.385 . S
C1036 C1035 1.374 . S
C1037 C1034 1.499 . S
C1037 C1038 1.373 . S
C1037 C1039 1.389 . S
C1038 H1011 0.950 . S
C1038 C1024 1.377 . S
C1038 C1037 1.373 . S
C1039 C1023 1.377 . S
C1039 C1037 1.389 . S
C1039 C1040 1.524 . S
C1040 C1039 1.524 . S
C1040 C1041 1.397 . S
C1040 C1045 1.363 . S
C1041 H1012 0.950 . S
C1041 C1040 1.397 . S
C1041 C1042 1.334 . S
C1042 H1013 0.950 . S
C1042 C1041 1.334 . S
C1042 C1043 1.287 . S
C1043 C1042 1.287 . S
C1043 C1044 1.524 . S
C1043 H1046 0.999 . S
C1044 H1014 0.950 . S
C1044 C1043 1.524 . S
C1044 C1045 1.415 . S
C1045 H1015 0.950 . S
C1045 C1040 1.363 . S
C1045 C1044 1.415 . S
H1046 C1043 0.999 . S
H1047 C1028 0.913 . S
H1048 C1066 0.951 . S
H1049 C1068 0.951 . S
H1050 C1070 0.950 . S
H1051 C1071 0.950 . S
H1052 C1073 0.950 . S
H1053 C1076 0.950 . S
H1054 C1077 0.950 . S
H1055 C1079 0.950 . S
H1056 C1080 0.950 . S
H1057 C1081 0.951 . S
H1058 C1083 0.951 . S
H1059 C1085 0.950 . S
H1060 C1086 0.950 . S
H1061 C1088 0.950 . S
H1062 C1091 0.950 . S
H1063 C1092 0.950 . S
H1064 C1094 0.950 . S
H1065 C1095 0.950 . S
C1066 H1048 0.951 . S
C1066 C1067 1.366 . S
C1066 C1068 1.388 . S
C1067 C1066 1.366 . S
C1067 C1071 1.385 . S
C1068 H1049 0.951 . S
C1068 C1066 1.388 . S
C1068 C1069 1.366 . S
C1069 C1068 1.366 . S
C1069 C1070 1.414 . S
C1069 C1072 1.499 . S
C1070 H1050 0.950 . S
C1070 C1069 1.414 . S
C1070 C1071 1.374 . S
C1071 H1051 0.950 . S
C1071 C1067 1.385 . S
C1071 C1070 1.374 . S
C1072 C1069 1.499 . S
C1072 C1073 1.373 . S
C1072 C1074 1.389 . S
C1073 H1052 0.950 . S
C1073 C1072 1.373 . S
C1073 C1089 1.377 . S
C1074 C1072 1.389 . S
C1074 C1075 1.524 . S
C1074 C1088 1.377 . S
C1075 C1074 1.524 . S
C1075 C1076 1.397 . S
C1075 C1080 1.363 . S
C1076 H1053 0.950 . S
C1076 C1075 1.397 . S
C1076 C1077 1.334 . S
C1077 H1054 0.950 . S
C1077 C1076 1.334 . S
C1077 C1078 1.287 . S
C1078 C1077 1.287 . S
C1078 C1079 1.524 . S
C1078 H1097 0.913 . S
C1079 H1055 0.950 . S
C1079 C1078 1.524 . S
C1079 C1080 1.415 . S
C1080 H1056 0.950 . S
C1080 C1075 1.363 . S
C1080 C1079 1.415 . S
C1081 H1057 0.951 . S
C1081 C1082 1.366 . S
C1081 C1083 1.388 . S
C1082 C1081 1.366 . S
C1082 C1086 1.385 . S
C1083 H1058 0.951 . S
C1083 C1081 1.388 . S
C1083 C1084 1.366 . S
C1084 C1083 1.366 . S
C1084 C1085 1.414 . S
C1084 C1087 1.499 . S
C1085 H1059 0.950 . S
C1085 C1084 1.414 . S
C1085 C1086 1.374 . S
C1086 H1060 0.950 . S
C1086 C1082 1.385 . S
C1086 C1085 1.374 . S
C1087 C1084 1.499 . S
C1087 C1088 1.373 . S
C1087 C1089 1.389 . S
C1088 H1061 0.950 . S
C1088 C1074 1.377 . S
C1088 C1087 1.373 . S
C1089 C1073 1.377 . S
C1089 C1087 1.389 . S
C1089 C1090 1.524 . S
C1090 C1089 1.524 . S
C1090 C1091 1.397 . S
C1090 C1095 1.363 . S
C1091 H1062 0.950 . S
C1091 C1090 1.397 . S
C1091 C1092 1.334 . S
C1092 H1063 0.950 . S
C1092 C1091 1.334 . S
C1092 C1093 1.287 . S
C1093 C1092 1.287 . S
C1093 C1094 1.524 . S
C1093 H1096 0.999 . S
C1094 H1064 0.950 . S
C1094 C1093 1.524 . S
C1094 C1095 1.415 . S
C1095 H1065 0.950 . S
C1095 C1090 1.363 . S
C1095 C1094 1.415 . S
H1096 C1093 0.999 . S
H1097 C1078 0.913 . S
H1098 C1116 0.951 . S
H1099 C1118 0.951 . S
H1100 C1120 0.950 . S
H1101 C1121 0.950 . S
H1102 C1123 0.950 . S
H1103 C1126 0.950 . S
H1104 C1127 0.950 . S
H1105 C1129 0.950 . S
H1106 C1130 0.950 . S
H1107 C1131 0.951 . S
H1108 C1133 0.951 . S
H1109 C1135 0.950 . S
H1110 C1136 0.950 . S
H1111 C1138 0.950 . S
H1112 C1141 0.950 . S
H1113 C1142 0.950 . S
H1114 C1144 0.950 . S
H1115 C1145 0.950 . S
C1116 H1098 0.951 . S
C1116 C1117 1.366 . S
C1116 C1118 1.388 . S
C1117 C1116 1.366 . S
C1117 C1121 1.385 . S
C1118 H1099 0.951 . S
C1118 C1116 1.388 . S
C1118 C1119 1.366 . S
C1119 C1118 1.366 . S
C1119 C1120 1.414 . S
C1119 C1122 1.499 . S
C1120 H1100 0.950 . S
C1120 C1119 1.414 . S
C1120 C1121 1.374 . S
C1121 H1101 0.950 . S
C1121 C1117 1.385 . S
C1121 C1120 1.374 . S
C1122 C1119 1.499 . S
C1122 C1123 1.373 . S
C1122 C1124 1.389 . S
C1123 H1102 0.950 . S
C1123 C1122 1.373 . S
C1123 C1139 1.377 . S
C1124 C1122 1.389 . S
C1124 C1125 1.524 . S
C1124 C1138 1.377 . S
C1125 C1124 1.524 . S
C1125 C1126 1.397 . S
C1125 C1130 1.363 . S
C1126 H1103 0.950 . S
C1126 C1125 1.397 . S
C1126 C1127 1.334 . S
C1127 H1104 0.950 . S
C1127 C1126 1.334 . S
C1127 C1128 1.287 . S
C1128 C1127 1.287 . S
C1128 C1129 1.524 . S
C1128 H1147 0.913 . S
C1129 H1105 0.950 . S
C1129 C1128 1.524 . S
C1129 C1130 1.415 . S
C1130 H1106 0.950 . S
C1130 C1125 1.363 . S
C1130 C1129 1.415 . S
C1131 H1107 0.951 . S
C1131 C1132 1.366 . S
C1131 C1133 1.388 . S
C1132 C1131 1.366 . S
C1132 C1136 1.385 . S
C1133 H1108 0.951 . S
C1133 C1131 1.388 . S
C1133 C1134 1.366 . S
C1134 C1133 1.366 . S
C1134 C1135 1.414 . S
C1134 C1137 1.499 . S
C1135 H1109 0.950 . S
C1135 C1134 1.414 . S
C1135 C1136 1.374 . S
C1136 H1110 0.950 . S
C1136 C1132 1.385 . S
C1136 C1135 1.374 . S
C1137 C1134 1.499 . S
C1137 C1138 1.373 . S
C1137 C1139 1.389 . S
C1138 H1111 0.950 . S
C1138 C1124 1.377 . S
C1138 C1137 1.373 . S
C1139 C1123 1.377 . S
C1139 C1137 1.389 . S
C1139 C1140 1.524 . S
C1140 C1139 1.524 . S
C1140 C1141 1.397 . S
C1140 C1145 1.363 . S
C1141 H1112 0.950 . S
C1141 C1140 1.397 . S
C1141 C1142 1.334 . S
C1142 H1113 0.950 . S
C1142 C1141 1.334 . S
C1142 C1143 1.287 . S
C1143 C1142 1.287 . S
C1143 C1144 1.524 . S
C1143 H1146 0.999 . S
C1144 H1114 0.950 . S
C1144 C1143 1.524 . S
C1144 C1145 1.415 . S
C1145 H1115 0.950 . S
C1145 C1140 1.363 . S
C1145 C1144 1.415 . S
H1146 C1143 0.999 . S
H1147 C1128 0.913 . S
H1148 C1166 0.951 . S
H1149 C1168 0.951 . S
H1150 C1170 0.950 . S
H1151 C1171 0.950 . S
H1152 C1173 0.950 . S
H1153 C1176 0.950 . S
H1154 C1177 0.950 . S
H1155 C1179 0.950 . S
H1156 C1180 0.950 . S
H1157 C1181 0.951 . S
H1158 C1183 0.951 . S
H1159 C1185 0.950 . S
H1160 C1186 0.950 . S
H1161 C1188 0.950 . S
H1162 C1191 0.950 . S
H1163 C1192 0.950 . S
H1164 C1194 0.950 . S
H1165 C1195 0.950 . S
C1166 H1148 0.951 . S
C1166 C1167 1.366 . S
C1166 C1168 1.388 . S
C1167 C1166 1.366 . S
C1167 C1171 1.385 . S
C1168 H1149 0.951 . S
C1168 C1166 1.388 . S
C1168 C1169 1.366 . S
C1169 C1168 1.366 . S
C1169 C1170 1.414 . S
C1169 C1172 1.499 . S
C1170 H1150 0.950 . S
C1170 C1169 1.414 . S
C1170 C1171 1.374 . S
C1171 H1151 0.950 . S
C1171 C1167 1.385 . S
C1171 C1170 1.374 . S
C1172 C1169 1.499 . S
C1172 C1173 1.373 . S
C1172 C1174 1.389 . S
C1173 H1152 0.950 . S
C1173 C1172 1.373 . S
C1173 C1189 1.377 . S
C1174 C1172 1.389 . S
C1174 C1175 1.524 . S
C1174 C1188 1.377 . S
C1175 C1174 1.524 . S
C1175 C1176 1.397 . S
C1175 C1180 1.363 . S
C1176 H1153 0.950 . S
C1176 C1175 1.397 . S
C1176 C1177 1.334 . S
C1177 H1154 0.950 . S
C1177 C1176 1.334 . S
C1177 C1178 1.287 . S
C1178 C1177 1.287 . S
C1178 C1179 1.524 . S
C1178 H1197 0.913 . S
C1179 H1155 0.950 . S
C1179 C1178 1.524 . S
C1179 C1180 1.415 . S
C1180 H1156 0.950 . S
C1180 C1175 1.363 . S
C1180 C1179 1.415 . S
C1181 H1157 0.951 . S
C1181 C1182 1.366 . S
C1181 C1183 1.388 . S
C1182 C1181 1.366 . S
C1182 C1186 1.385 . S
C1183 H1158 0.951 . S
C1183 C1181 1.388 . S
C1183 C1184 1.366 . S
C1184 C1183 1.366 . S
C1184 C1185 1.414 . S
C1184 C1187 1.499 . S
C1185 H1159 0.950 . S
C1185 C1184 1.414 . S
C1185 C1186 1.374 . S
C1186 H1160 0.950 . S
C1186 C1182 1.385 . S
C1186 C1185 1.374 . S
C1187 C1184 1.499 . S
C1187 C1188 1.373 . S
C1187 C1189 1.389 . S
C1188 H1161 0.950 . S
C1188 C1174 1.377 . S
C1188 C1187 1.373 . S
C1189 C1173 1.377 . S
C1189 C1187 1.389 . S
C1189 C1190 1.524 . S
C1190 C1189 1.524 . S
C1190 C1191 1.397 . S
C1190 C1195 1.363 . S
C1191 H1162 0.950 . S
C1191 C1190 1.397 . S
C1191 C1192 1.334 . S
C1192 H1163 0.950 . S
C1192 C1191 1.334 . S
C1192 C1193 1.287 . S
C1193 C1192 1.287 . S
C1193 C1194 1.524 . S
C1193 H1196 0.999 . S
C1194 H1164 0.950 . S
C1194 C1193 1.524 . S
C1194 C1195 1.415 . S
C1195 H1165 0.950 . S
C1195 C1190 1.363 . S
C1195 C1194 1.415 . S
H1196 C1193 0.999 . S
H1197 C1178 0.913 . S
H1198 C1216 0.951 . S
H1199 C1218 0.951 . S
H1200 C1220 0.950 . S
H1201 C1221 0.950 . S
H1202 C1223 0.950 . S
H1203 C1226 0.950 . S
H1204 C1227 0.950 . S
H1205 C1229 0.950 . S
H1206 C1230 0.950 . S
H1207 C1231 0.951 . S
H1208 C1233 0.951 . S
H1209 C1235 0.950 . S
H1210 C1236 0.950 . S
H1211 C1238 0.950 . S
H1212 C1241 0.950 . S
H1213 C1242 0.950 . S
H1214 C1244 0.950 . S
H1215 C1245 0.950 . S
C1216 H1198 0.951 . S
C1216 C1217 1.366 . S
C1216 C1218 1.388 . S
C1217 C1216 1.366 . S
C1217 C1221 1.385 . S
C1218 H1199 0.951 . S
C1218 C1216 1.388 . S
C1218 C1219 1.366 . S
C1219 C1218 1.366 . S
C1219 C1220 1.414 . S
C1219 C1222 1.499 . S
C1220 H1200 0.950 . S
C1220 C1219 1.414 . S
C1220 C1221 1.374 . S
C1221 H1201 0.950 . S
C1221 C1217 1.385 . S
C1221 C1220 1.374 . S
C1222 C1219 1.499 . S
C1222 C1223 1.373 . S
C1222 C1224 1.389 . S
C1223 H1202 0.950 . S
C1223 C1222 1.373 . S
C1223 C1239 1.377 . S
C1224 C1222 1.389 . S
C1224 C1225 1.524 . S
C1224 C1238 1.377 . S
C1225 C1224 1.524 . S
C1225 C1226 1.397 . S
C1225 C1230 1.363 . S
C1226 H1203 0.950 . S
C1226 C1225 1.397 . S
C1226 C1227 1.334 . S
C1227 H1204 0.950 . S
C1227 C1226 1.334 . S
C1227 C1228 1.287 . S
C1228 C1227 1.287 . S
C1228 C1229 1.524 . S
C1228 H1247 0.913 . S
C1229 H1205 0.950 . S
C1229 C1228 1.524 . S
C1229 C1230 1.415 . S
C1230 H1206 0.950 . S
C1230 C1225 1.363 . S
C1230 C1229 1.415 . S
C1231 H1207 0.951 . S
C1231 C1232 1.366 . S
C1231 C1233 1.388 . S
C1232 C1231 1.366 . S
C1232 C1236 1.385 . S
C1233 H1208 0.951 . S
C1233 C1231 1.388 . S
C1233 C1234 1.366 . S
C1234 C1233 1.366 . S
C1234 C1235 1.414 . S
C1234 C1237 1.499 . S
C1235 H1209 0.950 . S
C1235 C1234 1.414 . S
C1235 C1236 1.374 . S
C1236 H1210 0.950 . S
C1236 C1232 1.385 . S
C1236 C1235 1.374 . S
C1237 C1234 1.499 . S
C1237 C1238 1.373 . S
C1237 C1239 1.389 . S
C1238 H1211 0.950 . S
C1238 C1224 1.377 . S
C1238 C1237 1.373 . S
C1239 C1223 1.377 . S
C1239 C1237 1.389 . S
C1239 C1240 1.524 . S
C1240 C1239 1.524 . S
C1240 C1241 1.397 . S
C1240 C1245 1.363 . S
C1241 H1212 0.950 . S
C1241 C1240 1.397 . S
C1241 C1242 1.334 . S
C1242 H1213 0.950 . S
C1242 C1241 1.334 . S
C1242 C1243 1.287 . S
C1243 C1242 1.287 . S
C1243 C1244 1.524 . S
C1243 H1246 0.999 . S
C1244 H1214 0.950 . S
C1244 C1243 1.524 . S
C1244 C1245 1.415 . S
C1245 H1215 0.950 . S
C1245 C1240 1.363 . S
C1245 C1244 1.415 . S
H1246 C1243 0.999 . S
H1247 C1228 0.913 . S
H1248 C1266 0.951 . S
H1249 C1268 0.951 . S
H1250 C1270 0.950 . S
H1251 C1271 0.950 . S
H1252 C1273 0.950 . S
H1253 C1276 0.950 . S
H1254 C1277 0.950 . S
H1255 C1279 0.950 . S
H1256 C1280 0.950 . S
H1257 C1281 0.951 . S
H1258 C1283 0.951 . S
H1259 C1285 0.950 . S
H1260 C1286 0.950 . S
H1261 C1288 0.950 . S
H1262 C1291 0.950 . S
H1263 C1292 0.950 . S
H1264 C1294 0.950 . S
H1265 C1295 0.950 . S
C1266 H1248 0.951 . S
C1266 C1267 1.366 . S
C1266 C1268 1.388 . S
C1267 C1266 1.366 . S
C1267 C1271 1.385 . S
C1268 H1249 0.951 . S
C1268 C1266 1.388 . S
C1268 C1269 1.366 . S
C1269 C1268 1.366 . S
C1269 C1270 1.414 . S
C1269 C1272 1.499 . S
C1270 H1250 0.950 . S
C1270 C1269 1.414 . S
C1270 C1271 1.374 . S
C1271 H1251 0.950 . S
C1271 C1267 1.385 . S
C1271 C1270 1.374 . S
C1272 C1269 1.499 . S
C1272 C1273 1.373 . S
C1272 C1274 1.389 . S
C1273 H1252 0.950 . S
C1273 C1272 1.373 . S
C1273 C1289 1.377 1_554 S
C1274 C1272 1.389 . S
C1274 C1275 1.524 . S
C1274 C1288 1.377 1_554 S
C1275 C1274 1.524 . S
C1275 C1276 1.397 . S
C1275 C1280 1.363 . S
C1276 H1253 0.950 . S
C1276 C1275 1.397 . S
C1276 C1277 1.334 . S
C1277 H1254 0.950 . S
C1277 C1276 1.334 . S
C1277 C1278 1.287 . S
C1278 C1277 1.287 . S
C1278 C1279 1.524 . S
C1278 H1297 0.913 . S
C1279 H1255 0.950 . S
C1279 C1278 1.524 . S
C1279 C1280 1.415 . S
C1280 H1256 0.950 . S
C1280 C1275 1.363 . S
C1280 C1279 1.415 . S
C1281 H1257 0.951 . S
C1281 C1282 1.366 . S
C1281 C1283 1.388 . S
C1282 C1281 1.366 . S
C1282 C1286 1.385 . S
C1283 H1258 0.951 . S
C1283 C1281 1.388 . S
C1283 C1284 1.366 . S
C1284 C1283 1.366 . S
C1284 C1285 1.414 . S
C1284 C1287 1.499 . S
C1285 H1259 0.950 . S
C1285 C1284 1.414 . S
C1285 C1286 1.374 . S
C1286 H1260 0.950 . S
C1286 C1282 1.385 . S
C1286 C1285 1.374 . S
C1287 C1284 1.499 . S
C1287 C1288 1.373 . S
C1287 C1289 1.389 . S
C1288 H1261 0.950 . S
C1288 C1274 1.377 1_556 S
C1288 C1287 1.373 . S
C1289 C1273 1.377 1_556 S
C1289 C1287 1.389 . S
C1289 C1290 1.524 . S
C1290 C1289 1.524 . S
C1290 C1291 1.397 . S
C1290 C1295 1.363 . S
C1291 H1262 0.950 . S
C1291 C1290 1.397 . S
C1291 C1292 1.334 . S
C1292 H1263 0.950 . S
C1292 C1291 1.334 . S
C1292 C1293 1.287 . S
C1293 C1292 1.287 . S
C1293 C1294 1.524 . S
C1293 H1296 0.999 . S
C1294 H1264 0.950 . S
C1294 C1293 1.524 . S
C1294 C1295 1.415 . S
C1295 H1265 0.950 . S
C1295 C1290 1.363 . S
C1295 C1294 1.415 . S
H1296 C1293 0.999 . S
H1297 C1278 0.913 . S
H1298 C1316 0.951 . S
H1299 C1318 0.951 . S
H1300 C1320 0.950 . S
H1301 C1321 0.950 . S
H1302 C1323 0.950 . S
H1303 C1326 0.950 . S
H1304 C1327 0.950 . S
H1305 C1329 0.950 . S
H1306 C1330 0.950 . S
H1307 C1331 0.951 . S
H1308 C1333 0.951 . S
H1309 C1335 0.950 . S
H1310 C1336 0.950 . S
H1311 C1338 0.950 . S
H1312 C1341 0.950 . S
H1313 C1342 0.950 . S
H1314 C1344 0.950 . S
H1315 C1345 0.950 . S
C1316 H1298 0.951 . S
C1316 C1317 1.366 . S
C1316 C1318 1.388 . S
C1317 C1316 1.366 . S
C1317 C1321 1.385 . S
C1318 H1299 0.951 . S
C1318 C1316 1.388 . S
C1318 C1319 1.366 . S
C1319 C1318 1.366 . S
C1319 C1320 1.414 . S
C1319 C1322 1.499 . S
C1320 H1300 0.950 . S
C1320 C1319 1.414 . S
C1320 C1321 1.374 . S
C1321 H1301 0.950 . S
C1321 C1317 1.385 . S
C1321 C1320 1.374 . S
C1322 C1319 1.499 . S
C1322 C1323 1.373 . S
C1322 C1324 1.389 . S
C1323 H1302 0.950 . S
C1323 C1322 1.373 . S
C1323 C1339 1.377 1_556 S
C1324 C1322 1.389 . S
C1324 C1325 1.524 . S
C1324 C1338 1.377 1_556 S
C1325 C1324 1.524 . S
C1325 C1326 1.397 . S
C1325 C1330 1.363 . S
C1326 H1303 0.950 . S
C1326 C1325 1.397 . S
C1326 C1327 1.334 . S
C1327 H1304 0.950 . S
C1327 C1326 1.334 . S
C1327 C1328 1.287 . S
C1328 C1327 1.287 . S
C1328 C1329 1.524 . S
C1328 H1347 0.913 . S
C1329 H1305 0.950 . S
C1329 C1328 1.524 . S
C1329 C1330 1.415 . S
C1330 H1306 0.950 . S
C1330 C1325 1.363 . S
C1330 C1329 1.415 . S
C1331 H1307 0.951 . S
C1331 C1332 1.366 . S
C1331 C1333 1.388 . S
C1332 C1331 1.366 . S
C1332 C1336 1.385 . S
C1333 H1308 0.951 . S
C1333 C1331 1.388 . S
C1333 C1334 1.366 . S
C1334 C1333 1.366 . S
C1334 C1335 1.414 . S
C1334 C1337 1.499 . S
C1335 H1309 0.950 . S
C1335 C1334 1.414 . S
C1335 C1336 1.374 . S
C1336 H1310 0.950 . S
C1336 C1332 1.385 . S
C1336 C1335 1.374 . S
C1337 C1334 1.499 . S
C1337 C1338 1.373 . S
C1337 C1339 1.389 . S
C1338 H1311 0.950 . S
C1338 C1324 1.377 1_554 S
C1338 C1337 1.373 . S
C1339 C1323 1.377 1_554 S
C1339 C1337 1.389 . S
C1339 C1340 1.524 . S
C1340 C1339 1.524 . S
C1340 C1341 1.397 . S
C1340 C1345 1.363 . S
C1341 H1312 0.950 . S
C1341 C1340 1.397 . S
C1341 C1342 1.334 . S
C1342 H1313 0.950 . S
C1342 C1341 1.334 . S
C1342 C1343 1.287 . S
C1343 C1342 1.287 . S
C1343 C1344 1.524 . S
C1343 H1346 0.999 . S
C1344 H1314 0.950 . S
C1344 C1343 1.524 . S
C1344 C1345 1.415 . S
C1345 H1315 0.950 . S
C1345 C1340 1.363 . S
C1345 C1344 1.415 . S
H1346 C1343 0.999 . S
H1347 C1328 0.913 . S
H1348 C1366 0.951 . S
H1349 C1368 0.951 . S
H1350 C1370 0.950 . S
H1351 C1371 0.950 . S
H1352 C1373 0.950 . S
H1353 C1376 0.950 . S
H1354 C1377 0.950 . S
H1355 C1379 0.950 . S
H1356 C1380 0.950 . S
H1357 C1381 0.951 . S
H1358 C1383 0.951 . S
H1359 C1385 0.950 . S
H1360 C1386 0.950 . S
H1361 C1388 0.950 . S
H1362 C1391 0.950 . S
H1363 C1392 0.950 . S
H1364 C1394 0.950 . S
H1365 C1395 0.950 . S
C1366 H1348 0.951 . S
C1366 C1367 1.366 . S
C1366 C1368 1.388 . S
C1367 C1366 1.366 . S
C1367 C1371 1.385 . S
C1368 H1349 0.951 . S
C1368 C1366 1.388 . S
C1368 C1369 1.366 . S
C1369 C1368 1.366 . S
C1369 C1370 1.414 . S
C1369 C1372 1.499 . S
C1370 H1350 0.950 . S
C1370 C1369 1.414 . S
C1370 C1371 1.374 . S
C1371 H1351 0.950 . S
C1371 C1367 1.385 . S
C1371 C1370 1.374 . S
C1372 C1369 1.499 . S
C1372 C1373 1.373 . S
C1372 C1374 1.389 . S
C1373 H1352 0.950 . S
C1373 C1372 1.373 . S
C1373 C1389 1.377 1_556 S
C1374 C1372 1.389 . S
C1374 C1375 1.524 . S
C1374 C1388 1.377 1_556 S
C1375 C1374 1.524 . S
C1375 C1376 1.397 . S
C1375 C1380 1.363 . S
C1376 H1353 0.950 . S
C1376 C1375 1.397 . S
C1376 C1377 1.334 . S
C1377 H1354 0.950 . S
C1377 C1376 1.334 . S
C1377 C1378 1.287 . S
C1378 C1377 1.287 . S
C1378 C1379 1.524 . S
C1378 H1397 0.913 . S
C1379 H1355 0.950 . S
C1379 C1378 1.524 . S
C1379 C1380 1.415 . S
C1380 H1356 0.950 . S
C1380 C1375 1.363 . S
C1380 C1379 1.415 . S
C1381 H1357 0.951 . S
C1381 C1382 1.366 . S
C1381 C1383 1.388 . S
C1382 C1381 1.366 . S
C1382 C1386 1.385 . S
C1383 H1358 0.951 . S
C1383 C1381 1.388 . S
C1383 C1384 1.366 . S
C1384 C1383 1.366 . S
C1384 C1385 1.414 . S
C1384 C1387 1.499 . S
C1385 H1359 0.950 . S
C1385 C1384 1.414 . S
C1385 C1386 1.374 . S
C1386 H1360 0.950 . S
C1386 C1382 1.385 . S
C1386 C1385 1.374 . S
C1387 C1384 1.499 . S
C1387 C1388 1.373 . S
C1387 C1389 1.389 . S
C1388 H1361 0.950 . S
C1388 C1374 1.377 1_554 S
C1388 C1387 1.373 . S
C1389 C1373 1.377 1_554 S
C1389 C1387 1.389 . S
C1389 C1390 1.524 . S
C1390 C1389 1.524 . S
C1390 C1391 1.397 . S
C1390 C1395 1.363 . S
C1391 H1362 0.950 . S
C1391 C1390 1.397 . S
C1391 C1392 1.334 . S
C1392 H1363 0.950 . S
C1392 C1391 1.334 . S
C1392 C1393 1.287 . S
C1393 C1392 1.287 . S
C1393 C1394 1.524 . S
C1393 H1396 0.999 . S
C1394 H1364 0.950 . S
C1394 C1393 1.524 . S
C1394 C1395 1.415 . S
C1395 H1365 0.950 . S
C1395 C1390 1.363 . S
C1395 C1394 1.415 . S
H1396 C1393 0.999 . S
H1397 C1378 0.913 . S
H1398 C1416 0.951 . S
H1399 C1418 0.951 . S
H1400 C1420 0.950 . S
H1401 C1421 0.950 . S
H1402 C1423 0.950 . S
H1403 C1426 0.950 . S
H1404 C1427 0.950 . S
H1405 C1429 0.950 . S
H1406 C1430 0.950 . S
H1407 C1431 0.951 . S
H1408 C1433 0.951 . S
H1409 C1435 0.950 . S
H1410 C1436 0.950 . S
H1411 C1438 0.950 . S
H1412 C1441 0.950 . S
H1413 C1442 0.950 . S
H1414 C1444 0.950 . S
H1415 C1445 0.950 . S
C1416 H1398 0.951 . S
C1416 C1417 1.366 . S
C1416 C1418 1.388 . S
C1417 C1416 1.366 . S
C1417 C1421 1.385 . S
C1418 H1399 0.951 . S
C1418 C1416 1.388 . S
C1418 C1419 1.366 . S
C1419 C1418 1.366 . S
C1419 C1420 1.414 . S
C1419 C1422 1.499 . S
C1420 H1400 0.950 . S
C1420 C1419 1.414 . S
C1420 C1421 1.374 . S
C1421 H1401 0.950 . S
C1421 C1417 1.385 . S
C1421 C1420 1.374 . S
C1422 C1419 1.499 . S
C1422 C1423 1.373 . S
C1422 C1424 1.389 . S
C1423 H1402 0.950 . S
C1423 C1422 1.373 . S
C1423 C1439 1.377 1_556 S
C1424 C1422 1.389 . S
C1424 C1425 1.524 . S
C1424 C1438 1.377 1_556 S
C1425 C1424 1.524 . S
C1425 C1426 1.397 . S
C1425 C1430 1.363 . S
C1426 H1403 0.950 . S
C1426 C1425 1.397 . S
C1426 C1427 1.334 . S
C1427 H1404 0.950 . S
C1427 C1426 1.334 . S
C1427 C1428 1.287 . S
C1428 C1427 1.287 . S
C1428 C1429 1.524 . S
C1428 H1447 0.913 . S
C1429 H1405 0.950 . S
C1429 C1428 1.524 . S
C1429 C1430 1.415 . S
C1430 H1406 0.950 . S
C1430 C1425 1.363 . S
C1430 C1429 1.415 . S
C1431 H1407 0.951 . S
C1431 C1432 1.366 . S
C1431 C1433 1.388 . S
C1432 C1431 1.366 . S
C1432 C1436 1.385 . S
C1433 H1408 0.951 . S
C1433 C1431 1.388 . S
C1433 C1434 1.366 . S
C1434 C1433 1.366 . S
C1434 C1435 1.414 . S
C1434 C1437 1.499 . S
C1435 H1409 0.950 . S
C1435 C1434 1.414 . S
C1435 C1436 1.374 . S
C1436 H1410 0.950 . S
C1436 C1432 1.385 . S
C1436 C1435 1.374 . S
C1437 C1434 1.499 . S
C1437 C1438 1.373 . S
C1437 C1439 1.389 . S
C1438 H1411 0.950 . S
C1438 C1424 1.377 1_554 S
C1438 C1437 1.373 . S
C1439 C1423 1.377 1_554 S
C1439 C1437 1.389 . S
C1439 C1440 1.524 . S
C1440 C1439 1.524 . S
C1440 C1441 1.397 . S
C1440 C1445 1.363 . S
C1441 H1412 0.950 . S
C1441 C1440 1.397 . S
C1441 C1442 1.334 . S
C1442 H1413 0.950 . S
C1442 C1441 1.334 . S
C1442 C1443 1.287 . S
C1443 C1442 1.287 . S
C1443 C1444 1.524 . S
C1443 H1446 0.999 . S
C1444 H1414 0.950 . S
C1444 C1443 1.524 . S
C1444 C1445 1.415 . S
C1445 H1415 0.950 . S
C1445 C1440 1.363 . S
C1445 C1444 1.415 . S
H1446 C1443 0.999 . S
H1447 C1428 0.913 . S
H1448 C1466 0.951 . S
H1449 C1468 0.951 . S
H1450 C1470 0.950 . S
H1451 C1471 0.950 . S
H1452 C1473 0.950 . S
H1453 C1476 0.950 . S
H1454 C1477 0.950 . S
H1455 C1479 0.950 . S
H1456 C1480 0.950 . S
H1457 C1481 0.951 . S
H1458 C1483 0.951 . S
H1459 C1485 0.950 . S
H1460 C1486 0.950 . S
H1461 C1488 0.950 . S
H1462 C1491 0.950 . S
H1463 C1492 0.950 . S
H1464 C1494 0.950 . S
H1465 C1495 0.950 . S
C1466 H1448 0.951 . S
C1466 C1467 1.366 . S
C1466 C1468 1.388 . S
C1467 C1466 1.366 . S
C1467 C1471 1.385 . S
C1468 H1449 0.951 . S
C1468 C1466 1.388 . S
C1468 C1469 1.366 . S
C1469 C1468 1.366 . S
C1469 C1470 1.414 . S
C1469 C1472 1.499 . S
C1470 H1450 0.950 . S
C1470 C1469 1.414 . S
C1470 C1471 1.374 . S
C1471 H1451 0.950 . S
C1471 C1467 1.385 . S
C1471 C1470 1.374 . S
C1472 C1469 1.499 . S
C1472 C1473 1.373 . S
C1472 C1474 1.389 . S
C1473 H1452 0.950 . S
C1473 C1472 1.373 . S
C1473 C1489 1.377 . S
C1474 C1472 1.389 . S
C1474 C1475 1.524 . S
C1474 C1488 1.377 . S
C1475 C1474 1.524 . S
C1475 C1476 1.397 . S
C1475 C1480 1.363 . S
C1476 H1453 0.950 . S
C1476 C1475 1.397 . S
C1476 C1477 1.334 . S
C1477 H1454 0.950 . S
C1477 C1476 1.334 . S
C1477 C1478 1.287 . S
C1478 C1477 1.287 . S
C1478 C1479 1.524 . S
C1478 H1497 0.913 . S
C1479 H1455 0.950 . S
C1479 C1478 1.524 . S
C1479 C1480 1.415 . S
C1480 H1456 0.950 . S
C1480 C1475 1.363 . S
C1480 C1479 1.415 . S
C1481 H1457 0.951 . S
C1481 C1482 1.366 . S
C1481 C1483 1.388 . S
C1482 C1481 1.366 . S
C1482 C1486 1.385 . S
C1483 H1458 0.951 . S
C1483 C1481 1.388 . S
C1483 C1484 1.366 . S
C1484 C1483 1.366 . S
C1484 C1485 1.414 . S
C1484 C1487 1.499 . S
C1485 H1459 0.950 . S
C1485 C1484 1.414 . S
C1485 C1486 1.374 . S
C1486 H1460 0.950 . S
C1486 C1482 1.385 . S
C1486 C1485 1.374 . S
C1487 C1484 1.499 . S
C1487 C1488 1.373 . S
C1487 C1489 1.389 . S
C1488 H1461 0.950 . S
C1488 C1474 1.377 . S
C1488 C1487 1.373 . S
C1489 C1473 1.377 . S
C1489 C1487 1.389 . S
C1489 C1490 1.524 . S
C1490 C1489 1.524 . S
C1490 C1491 1.397 . S
C1490 C1495 1.363 . S
C1491 H1462 0.950 . S
C1491 C1490 1.397 . S
C1491 C1492 1.334 . S
C1492 H1463 0.950 . S
C1492 C1491 1.334 . S
C1492 C1493 1.287 . S
C1493 C1492 1.287 . S
C1493 C1494 1.524 . S
C1493 H1496 0.999 . S
C1494 H1464 0.950 . S
C1494 C1493 1.524 . S
C1494 C1495 1.415 . S
C1495 H1465 0.950 . S
C1495 C1490 1.363 . S
C1495 C1494 1.415 . S
H1496 C1493 0.999 . S
H1497 C1478 0.913 . S
H1498 C1516 0.951 . S
H1499 C1518 0.951 . S
H1500 C1520 0.950 . S
H1501 C1521 0.950 . S
H1502 C1523 0.950 . S
H1503 C1526 0.950 . S
H1504 C1527 0.950 . S
H1505 C1529 0.950 . S
H1506 C1530 0.950 . S
H1507 C1531 0.951 . S
H1508 C1533 0.951 . S
H1509 C1535 0.950 . S
H1510 C1536 0.950 . S
H1511 C1538 0.950 . S
H1512 C1541 0.950 . S
H1513 C1542 0.950 . S
H1514 C1544 0.950 . S
H1515 C1545 0.950 . S
C1516 H1498 0.951 . S
C1516 C1517 1.366 . S
C1516 C1518 1.388 . S
C1517 C1516 1.366 . S
C1517 C1521 1.385 . S
C1518 H1499 0.951 . S
C1518 C1516 1.388 . S
C1518 C1519 1.366 . S
C1519 C1518 1.366 . S
C1519 C1520 1.414 . S
C1519 C1522 1.499 . S
C1520 H1500 0.950 . S
C1520 C1519 1.414 . S
C1520 C1521 1.374 . S
C1521 H1501 0.950 . S
C1521 C1517 1.385 . S
C1521 C1520 1.374 . S
C1522 C1519 1.499 . S
C1522 C1523 1.373 . S
C1522 C1524 1.389 . S
C1523 H1502 0.950 . S
C1523 C1522 1.373 . S
C1523 C1539 1.377 . S
C1524 C1522 1.389 . S
C1524 C1525 1.524 . S
C1524 C1538 1.377 . S
C1525 C1524 1.524 . S
C1525 C1526 1.397 . S
C1525 C1530 1.363 . S
C1526 H1503 0.950 . S
C1526 C1525 1.397 . S
C1526 C1527 1.334 . S
C1527 H1504 0.950 . S
C1527 C1526 1.334 . S
C1527 C1528 1.287 . S
C1528 C1527 1.287 . S
C1528 C1529 1.524 . S
C1528 H1547 0.913 . S
C1529 H1505 0.950 . S
C1529 C1528 1.524 . S
C1529 C1530 1.415 . S
C1530 H1506 0.950 . S
C1530 C1525 1.363 . S
C1530 C1529 1.415 . S
C1531 H1507 0.951 . S
C1531 C1532 1.366 . S
C1531 C1533 1.388 . S
C1532 C1531 1.366 . S
C1532 C1536 1.385 . S
C1533 H1508 0.951 . S
C1533 C1531 1.388 . S
C1533 C1534 1.366 . S
C1534 C1533 1.366 . S
C1534 C1535 1.414 . S
C1534 C1537 1.499 . S
C1535 H1509 0.950 . S
C1535 C1534 1.414 . S
C1535 C1536 1.374 . S
C1536 H1510 0.950 . S
C1536 C1532 1.385 . S
C1536 C1535 1.374 . S
C1537 C1534 1.499 . S
C1537 C1538 1.373 . S
C1537 C1539 1.389 . S
C1538 H1511 0.950 . S
C1538 C1524 1.377 . S
C1538 C1537 1.373 . S
C1539 C1523 1.377 . S
C1539 C1537 1.389 . S
C1539 C1540 1.524 . S
C1540 C1539 1.524 . S
C1540 C1541 1.397 . S
C1540 C1545 1.363 . S
C1541 H1512 0.950 . S
C1541 C1540 1.397 . S
C1541 C1542 1.334 . S
C1542 H1513 0.950 . S
C1542 C1541 1.334 . S
C1542 C1543 1.287 . S
C1543 C1542 1.287 . S
C1543 C1544 1.524 . S
C1543 H1546 0.999 . S
C1544 H1514 0.950 . S
C1544 C1543 1.524 . S
C1544 C1545 1.415 . S
C1545 H1515 0.950 . S
C1545 C1540 1.363 . S
C1545 C1544 1.415 . S
H1546 C1543 0.999 . S
H1547 C1528 0.913 . S
H1548 C1566 0.951 . S
H1549 C1568 0.951 . S
H1550 C1570 0.950 . S
H1551 C1571 0.950 . S
H1552 C1573 0.950 . S
H1553 C1576 0.950 . S
H1554 C1577 0.950 . S
H1555 C1579 0.950 . S
H1556 C1580 0.950 . S
H1557 C1581 0.951 . S
H1558 C1583 0.951 . S
H1559 C1585 0.950 . S
H1560 C1586 0.950 . S
H1561 C1588 0.950 . S
H1562 C1591 0.950 . S
H1563 C1592 0.950 . S
H1564 C1594 0.950 . S
H1565 C1595 0.950 . S
C1566 H1548 0.951 . S
C1566 C1567 1.366 . S
C1566 C1568 1.388 . S
C1567 C1566 1.366 . S
C1567 C1571 1.385 . S
C1568 H1549 0.951 . S
C1568 C1566 1.388 . S
C1568 C1569 1.366 . S
C1569 C1568 1.366 . S
C1569 C1570 1.414 . S
C1569 C1572 1.499 . S
C1570 H1550 0.950 . S
C1570 C1569 1.414 . S
C1570 C1571 1.374 . S
C1571 H1551 0.950 . S
C1571 C1567 1.385 . S
C1571 C1570 1.374 . S
C1572 C1569 1.499 . S
C1572 C1573 1.373 . S
C1572 C1574 1.389 . S
C1573 H1552 0.950 . S
C1573 C1572 1.373 . S
C1573 C1589 1.377 . S
C1574 C1572 1.389 . S
C1574 C1575 1.524 . S
C1574 C1588 1.377 . S
C1575 C1574 1.524 . S
C1575 C1576 1.397 . S
C1575 C1580 1.363 . S
C1576 H1553 0.950 . S
C1576 C1575 1.397 . S
C1576 C1577 1.334 . S
C1577 H1554 0.950 . S
C1577 C1576 1.334 . S
C1577 C1578 1.287 . S
C1578 C1577 1.287 . S
C1578 C1579 1.524 . S
C1578 H1597 0.913 . S
C1579 H1555 0.950 . S
C1579 C1578 1.524 . S
C1579 C1580 1.415 . S
C1580 H1556 0.950 . S
C1580 C1575 1.363 . S
C1580 C1579 1.415 . S
C1581 H1557 0.951 . S
C1581 C1582 1.366 . S
C1581 C1583 1.388 . S
C1582 C1581 1.366 . S
C1582 C1586 1.385 . S
C1583 H1558 0.951 . S
C1583 C1581 1.388 . S
C1583 C1584 1.366 . S
C1584 C1583 1.366 . S
C1584 C1585 1.414 . S
C1584 C1587 1.499 . S
C1585 H1559 0.950 . S
C1585 C1584 1.414 . S
C1585 C1586 1.374 . S
C1586 H1560 0.950 . S
C1586 C1582 1.385 . S
C1586 C1585 1.374 . S
C1587 C1584 1.499 . S
C1587 C1588 1.373 . S
C1587 C1589 1.389 . S
C1588 H1561 0.950 . S
C1588 C1574 1.377 . S
C1588 C1587 1.373 . S
C1589 C1573 1.377 . S
C1589 C1587 1.389 . S
C1589 C1590 1.524 . S
C1590 C1589 1.524 . S
C1590 C1591 1.397 . S
C1590 C1595 1.363 . S
C1591 H1562 0.950 . S
C1591 C1590 1.397 . S
C1591 C1592 1.334 . S
C1592 H1563 0.950 . S
C1592 C1591 1.334 . S
C1592 C1593 1.287 . S
C1593 C1592 1.287 . S
C1593 C1594 1.524 . S
C1593 H1596 0.999 . S
C1594 H1564 0.950 . S
C1594 C1593 1.524 . S
C1594 C1595 1.415 . S
C1595 H1565 0.950 . S
C1595 C1590 1.363 . S
C1595 C1594 1.415 . S
H1596 C1593 0.999 . S
H1597 C1578 0.913 . S
H1598 C1616 0.951 . S
H1599 C1618 0.951 . S
H1600 C1620 0.950 . S
H1601 C1621 0.950 . S
H1602 C1623 0.950 . S
H1603 C1626 0.950 . S
H1604 C1627 0.950 . S
H1605 C1629 0.950 . S
H1606 C1630 0.950 . S
H1607 C1631 0.951 . S
H1608 C1633 0.951 . S
H1609 C1635 0.950 . S
H1610 C1636 0.950 . S
H1611 C1638 0.950 . S
H1612 C1641 0.950 . S
H1613 C1642 0.950 . S
H1614 C1644 0.950 . S
H1615 C1645 0.950 . S
C1616 H1598 0.951 . S
C1616 C1617 1.366 . S
C1616 C1618 1.388 . S
C1617 C1616 1.366 . S
C1617 C1621 1.385 . S
C1618 H1599 0.951 . S
C1618 C1616 1.388 . S
C1618 C1619 1.366 . S
C1619 C1618 1.366 . S
C1619 C1620 1.414 . S
C1619 C1622 1.499 . S
C1620 H1600 0.950 . S
C1620 C1619 1.414 . S
C1620 C1621 1.374 . S
C1621 H1601 0.950 . S
C1621 C1617 1.385 . S
C1621 C1620 1.374 . S
C1622 C1619 1.499 . S
C1622 C1623 1.373 . S
C1622 C1624 1.389 . S
C1623 H1602 0.950 . S
C1623 C1622 1.373 . S
C1623 C1639 1.377 . S
C1624 C1622 1.389 . S
C1624 C1625 1.524 . S
C1624 C1638 1.377 . S
C1625 C1624 1.524 . S
C1625 C1626 1.397 . S
C1625 C1630 1.363 . S
C1626 H1603 0.950 . S
C1626 C1625 1.397 . S
C1626 C1627 1.334 . S
C1627 H1604 0.950 . S
C1627 C1626 1.334 . S
C1627 C1628 1.287 . S
C1628 C1627 1.287 . S
C1628 C1629 1.524 . S
C1628 H1647 0.913 . S
C1629 H1605 0.950 . S
C1629 C1628 1.524 . S
C1629 C1630 1.415 . S
C1630 H1606 0.950 . S
C1630 C1625 1.363 . S
C1630 C1629 1.415 . S
C1631 H1607 0.951 . S
C1631 C1632 1.366 . S
C1631 C1633 1.388 . S
C1632 C1631 1.366 . S
C1632 C1636 1.385 . S
C1633 H1608 0.951 . S
C1633 C1631 1.388 . S
C1633 C1634 1.366 . S
C1634 C1633 1.366 . S
C1634 C1635 1.414 . S
C1634 C1637 1.499 . S
C1635 H1609 0.950 . S
C1635 C1634 1.414 . S
C1635 C1636 1.374 . S
C1636 H1610 0.950 . S
C1636 C1632 1.385 . S
C1636 C1635 1.374 . S
C1637 C1634 1.499 . S
C1637 C1638 1.373 . S
C1637 C1639 1.389 . S
C1638 H1611 0.950 . S
C1638 C1624 1.377 . S
C1638 C1637 1.373 . S
C1639 C1623 1.377 . S
C1639 C1637 1.389 . S
C1639 C1640 1.524 . S
C1640 C1639 1.524 . S
C1640 C1641 1.397 . S
C1640 C1645 1.363 . S
C1641 H1612 0.950 . S
C1641 C1640 1.397 . S
C1641 C1642 1.334 . S
C1642 H1613 0.950 . S
C1642 C1641 1.334 . S
C1642 C1643 1.287 . S
C1643 C1642 1.287 . S
C1643 C1644 1.524 . S
C1643 H1646 0.999 . S
C1644 H1614 0.950 . S
C1644 C1643 1.524 . S
C1644 C1645 1.415 . S
C1645 H1615 0.950 . S
C1645 C1640 1.363 . S
C1645 C1644 1.415 . S
H1646 C1643 0.999 . S
H1647 C1628 0.913 . S
H1648 C1666 0.951 . S
H1649 C1668 0.951 . S
H1650 C1670 0.950 . S
H1651 C1671 0.950 . S
H1652 C1673 0.950 . S
H1653 C1676 0.950 . S
H1654 C1677 0.950 . S
H1655 C1679 0.950 . S
H1656 C1680 0.950 . S
H1657 C1681 0.951 . S
H1658 C1683 0.951 . S
H1659 C1685 0.950 . S
H1660 C1686 0.950 . S
H1661 C1688 0.950 . S
H1662 C1691 0.950 . S
H1663 C1692 0.950 . S
H1664 C1694 0.950 . S
H1665 C1695 0.950 . S
C1666 H1648 0.951 . S
C1666 C1667 1.366 . S
C1666 C1668 1.388 . S
C1667 C1666 1.366 . S
C1667 C1671 1.385 . S
C1668 H1649 0.951 . S
C1668 C1666 1.388 . S
C1668 C1669 1.366 . S
C1669 C1668 1.366 . S
C1669 C1670 1.414 . S
C1669 C1672 1.499 . S
C1670 H1650 0.950 . S
C1670 C1669 1.414 . S
C1670 C1671 1.374 . S
C1671 H1651 0.950 . S
C1671 C1667 1.385 . S
C1671 C1670 1.374 . S
C1672 C1669 1.499 . S
C1672 C1673 1.373 . S
C1672 C1674 1.389 . S
C1673 H1652 0.950 . S
C1673 C1672 1.373 . S
C1673 C1689 1.377 . S
C1674 C1672 1.389 . S
C1674 C1675 1.524 . S
C1674 C1688 1.377 . S
C1675 C1674 1.524 . S
C1675 C1676 1.397 . S
C1675 C1680 1.363 . S
C1676 H1653 0.950 . S
C1676 C1675 1.397 . S
C1676 C1677 1.334 . S
C1677 H1654 0.950 . S
C1677 C1676 1.334 . S
C1677 C1678 1.287 . S
C1678 C1677 1.287 . S
C1678 C1679 1.524 . S
C1678 H1697 0.913 . S
C1679 H1655 0.950 . S
C1679 C1678 1.524 . S
C1679 C1680 1.415 . S
C1680 H1656 0.950 . S
C1680 C1675 1.363 . S
C1680 C1679 1.415 . S
C1681 H1657 0.951 . S
C1681 C1682 1.366 . S
C1681 C1683 1.388 . S
C1682 C1681 1.366 . S
C1682 C1686 1.385 . S
C1683 H1658 0.951 . S
C1683 C1681 1.388 . S
C1683 C1684 1.366 . S
C1684 C1683 1.366 . S
C1684 C1685 1.414 . S
C1684 C1687 1.499 . S
C1685 H1659 0.950 . S
C1685 C1684 1.414 . S
C1685 C1686 1.374 . S
C1686 H1660 0.950 . S
C1686 C1682 1.385 . S
C1686 C1685 1.374 . S
C1687 C1684 1.499 . S
C1687 C1688 1.373 . S
C1687 C1689 1.389 . S
C1688 H1661 0.950 . S
C1688 C1674 1.377 . S
C1688 C1687 1.373 . S
C1689 C1673 1.377 . S
C1689 C1687 1.389 . S
C1689 C1690 1.524 . S
C1690 C1689 1.524 . S
C1690 C1691 1.397 . S
C1690 C1695 1.363 . S
C1691 H1662 0.950 . S
C1691 C1690 1.397 . S
C1691 C1692 1.334 . S
C1692 H1663 0.950 . S
C1692 C1691 1.334 . S
C1692 C1693 1.287 . S
C1693 C1692 1.287 . S
C1693 C1694 1.524 . S
C1693 H1696 0.999 . S
C1694 H1664 0.950 . S
C1694 C1693 1.524 . S
C1694 C1695 1.415 . S
C1695 H1665 0.950 . S
C1695 C1690 1.363 . S
C1695 C1694 1.415 . S
H1696 C1693 0.999 . S
H1697 C1678 0.913 . S
H1698 C1716 0.951 . S
H1699 C1718 0.951 . S
H1700 C1720 0.950 . S
H1701 C1721 0.950 . S
H1702 C1723 0.950 . S
H1703 C1726 0.950 . S
H1704 C1727 0.950 . S
H1705 C1729 0.950 . S
H1706 C1730 0.950 . S
H1707 C1731 0.951 . S
H1708 C1733 0.951 . S
H1709 C1735 0.950 . S
H1710 C1736 0.950 . S
H1711 C1738 0.950 . S
H1712 C1741 0.950 . S
H1713 C1742 0.950 . S
H1714 C1744 0.950 . S
H1715 C1745 0.950 . S
C1716 H1698 0.951 . S
C1716 C1717 1.366 . S
C1716 C1718 1.388 . S
C1717 C1716 1.366 . S
C1717 C1721 1.385 . S
C1718 H1699 0.951 . S
C1718 C1716 1.388 . S
C1718 C1719 1.366 . S
C1719 C1718 1.366 . S
C1719 C1720 1.414 . S
C1719 C1722 1.499 . S
C1720 H1700 0.950 . S
C1720 C1719 1.414 . S
C1720 C1721 1.374 . S
C1721 H1701 0.950 . S
C1721 C1717 1.385 . S
C1721 C1720 1.374 . S
C1722 C1719 1.499 . S
C1722 C1723 1.373 . S
C1722 C1724 1.389 . S
C1723 H1702 0.950 . S
C1723 C1722 1.373 . S
C1723 C1739 1.377 . S
C1724 C1722 1.389 . S
C1724 C1725 1.524 . S
C1724 C1738 1.377 . S
C1725 C1724 1.524 . S
C1725 C1726 1.397 . S
C1725 C1730 1.363 . S
C1726 H1703 0.950 . S
C1726 C1725 1.397 . S
C1726 C1727 1.334 . S
C1727 H1704 0.950 . S
C1727 C1726 1.334 . S
C1727 C1728 1.287 . S
C1728 C1727 1.287 . S
C1728 C1729 1.524 . S
C1728 H1747 0.913 . S
C1729 H1705 0.950 . S
C1729 C1728 1.524 . S
C1729 C1730 1.415 . S
C1730 H1706 0.950 . S
C1730 C1725 1.363 . S
C1730 C1729 1.415 . S
C1731 H1707 0.951 . S
C1731 C1732 1.366 . S
C1731 C1733 1.388 . S
C1732 C1731 1.366 . S
C1732 C1736 1.385 . S
C1733 H1708 0.951 . S
C1733 C1731 1.388 . S
C1733 C1734 1.366 . S
C1734 C1733 1.366 . S
C1734 C1735 1.414 . S
C1734 C1737 1.499 . S
C1735 H1709 0.950 . S
C1735 C1734 1.414 . S
C1735 C1736 1.374 . S
C1736 H1710 0.950 . S
C1736 C1732 1.385 . S
C1736 C1735 1.374 . S
C1737 C1734 1.499 . S
C1737 C1738 1.373 . S
C1737 C1739 1.389 . S
C1738 H1711 0.950 . S
C1738 C1724 1.377 . S
C1738 C1737 1.373 . S
C1739 C1723 1.377 . S
C1739 C1737 1.389 . S
C1739 C1740 1.524 . S
C1740 C1739 1.524 . S
C1740 C1741 1.397 . S
C1740 C1745 1.363 . S
C1741 H1712 0.950 . S
C1741 C1740 1.397 . S
C1741 C1742 1.334 . S
C1742 H1713 0.950 . S
C1742 C1741 1.334 . S
C1742 C1743 1.287 . S
C1743 C1742 1.287 . S
C1743 C1744 1.524 . S
C1743 H1746 0.999 . S
C1744 H1714 0.950 . S
C1744 C1743 1.524 . S
C1744 C1745 1.415 . S
C1745 H1715 0.950 . S
C1745 C1740 1.363 . S
C1745 C1744 1.415 . S
H1746 C1743 0.999 . S
H1747 C1728 0.913 . S
H1748 C1766 0.951 . S
H1749 C1768 0.951 . S
H1750 C1770 0.950 . S
H1751 C1771 0.950 . S
H1752 C1773 0.950 . S
H1753 C1776 0.950 . S
H1754 C1777 0.950 . S
H1755 C1779 0.950 . S
H1756 C1780 0.950 . S
H1757 C1781 0.951 . S
H1758 C1783 0.951 . S
H1759 C1785 0.950 . S
H1760 C1786 0.950 . S
H1761 C1788 0.950 . S
H1762 C1791 0.950 . S
H1763 C1792 0.950 . S
H1764 C1794 0.950 . S
H1765 C1795 0.950 . S
C1766 H1748 0.951 . S
C1766 C1767 1.366 . S
C1766 C1768 1.388 . S
C1767 C1766 1.366 . S
C1767 C1771 1.385 . S
C1768 H1749 0.951 . S
C1768 C1766 1.388 . S
C1768 C1769 1.366 . S
C1769 C1768 1.366 . S
C1769 C1770 1.414 . S
C1769 C1772 1.499 . S
C1770 H1750 0.950 . S
C1770 C1769 1.414 . S
C1770 C1771 1.374 . S
C1771 H1751 0.950 . S
C1771 C1767 1.385 . S
C1771 C1770 1.374 . S
C1772 C1769 1.499 . S
C1772 C1773 1.373 . S
C1772 C1774 1.389 . S
C1773 H1752 0.950 . S
C1773 C1772 1.373 . S
C1773 C1789 1.377 . S
C1774 C1772 1.389 . S
C1774 C1775 1.524 . S
C1774 C1788 1.377 . S
C1775 C1774 1.524 . S
C1775 C1776 1.397 . S
C1775 C1780 1.363 . S
C1776 H1753 0.950 . S
C1776 C1775 1.397 . S
C1776 C1777 1.334 . S
C1777 H1754 0.950 . S
C1777 C1776 1.334 . S
C1777 C1778 1.287 . S
C1778 C1777 1.287 . S
C1778 C1779 1.524 . S
C1778 H1797 0.913 . S
C1779 H1755 0.950 . S
C1779 C1778 1.524 . S
C1779 C1780 1.415 . S
C1780 H1756 0.950 . S
C1780 C1775 1.363 . S
C1780 C1779 1.415 . S
C1781 H1757 0.951 . S
C1781 C1782 1.366 . S
C1781 C1783 1.388 . S
C1782 C1781 1.366 . S
C1782 C1786 1.385 . S
C1783 H1758 0.951 . S
C1783 C1781 1.388 . S
C1783 C1784 1.366 . S
C1784 C1783 1.366 . S
C1784 C1785 1.414 . S
C1784 C1787 1.499 . S
C1785 H1759 0.950 . S
C1785 C1784 1.414 . S
C1785 C1786 1.374 . S
C1786 H1760 0.950 . S
C1786 C1782 1.385 . S
C1786 C1785 1.374 . S
C1787 C1784 1.499 . S
C1787 C1788 1.373 . S
C1787 C1789 1.389 . S
C1788 H1761 0.950 . S
C1788 C1774 1.377 . S
C1788 C1787 1.373 . S
C1789 C1773 1.377 . S
C1789 C1787 1.389 . S
C1789 C1790 1.524 . S
C1790 C1789 1.524 . S
C1790 C1791 1.397 . S
C1790 C1795 1.363 . S
C1791 H1762 0.950 . S
C1791 C1790 1.397 . S
C1791 C1792 1.334 . S
C1792 H1763 0.950 . S
C1792 C1791 1.334 . S
C1792 C1793 1.287 . S
C1793 C1792 1.287 . S
C1793 C1794 1.524 . S
C1793 H1796 0.999 . S
C1794 H1764 0.950 . S
C1794 C1793 1.524 . S
C1794 C1795 1.415 . S
C1795 H1765 0.950 . S
C1795 C1790 1.363 . S
C1795 C1794 1.415 . S
H1796 C1793 0.999 . S
H1797 C1778 0.913 . S
H1798 C1816 0.951 . S
H1799 C1818 0.951 . S
H1800 C1820 0.950 . S
H1801 C1821 0.950 . S
H1802 C1823 0.950 . S
H1803 C1826 0.950 . S
H1804 C1827 0.950 . S
H1805 C1829 0.950 . S
H1806 C1830 0.950 . S
H1807 C1831 0.951 . S
H1808 C1833 0.951 . S
H1809 C1835 0.950 . S
H1810 C1836 0.950 . S
H1811 C1838 0.950 . S
H1812 C1841 0.950 . S
H1813 C1842 0.950 . S
H1814 C1844 0.950 . S
H1815 C1845 0.950 . S
C1816 H1798 0.951 . S
C1816 C1817 1.366 . S
C1816 C1818 1.388 . S
C1817 C1816 1.366 . S
C1817 C1821 1.385 . S
C1818 H1799 0.951 . S
C1818 C1816 1.388 . S
C1818 C1819 1.366 . S
C1819 C1818 1.366 . S
C1819 C1820 1.414 . S
C1819 C1822 1.499 . S
C1820 H1800 0.950 . S
C1820 C1819 1.414 . S
C1820 C1821 1.374 . S
C1821 H1801 0.950 . S
C1821 C1817 1.385 . S
C1821 C1820 1.374 . S
C1822 C1819 1.499 . S
C1822 C1823 1.373 . S
C1822 C1824 1.389 . S
C1823 H1802 0.950 . S
C1823 C1822 1.373 . S
C1823 C1839 1.377 . S
C1824 C1822 1.389 . S
C1824 C1825 1.524 . S
C1824 C1838 1.377 . S
C1825 C1824 1.524 . S
C1825 C1826 1.397 . S
C1825 C1830 1.363 . S
C1826 H1803 0.950 . S
C1826 C1825 1.397 . S
C1826 C1827 1.334 . S
C1827 H1804 0.950 . S
C1827 C1826 1.334 . S
C1827 C1828 1.287 . S
C1828 C1827 1.287 . S
C1828 C1829 1.524 . S
C1828 H1847 0.913 . S
C1829 H1805 0.950 . S
C1829 C1828 1.524 . S
C1829 C1830 1.415 . S
C1830 H1806 0.950 . S
C1830 C1825 1.363 . S
C1830 C1829 1.415 . S
C1831 H1807 0.951 . S
C1831 C1832 1.366 . S
C1831 C1833 1.388 . S
C1832 C1831 1.366 . S
C1832 C1836 1.385 . S
C1833 H1808 0.951 . S
C1833 C1831 1.388 . S
C1833 C1834 1.366 . S
C1834 C1833 1.366 . S
C1834 C1835 1.414 . S
C1834 C1837 1.499 . S
C1835 H1809 0.950 . S
C1835 C1834 1.414 . S
C1835 C1836 1.374 . S
C1836 H1810 0.950 . S
C1836 C1832 1.385 . S
C1836 C1835 1.374 . S
C1837 C1834 1.499 . S
C1837 C1838 1.373 . S
C1837 C1839 1.389 . S
C1838 H1811 0.950 . S
C1838 C1824 1.377 . S
C1838 C1837 1.373 . S
C1839 C1823 1.377 . S
C1839 C1837 1.389 . S
C1839 C1840 1.524 . S
C1840 C1839 1.524 . S
C1840 C1841 1.397 . S
C1840 C1845 1.363 . S
C1841 H1812 0.950 . S
C1841 C1840 1.397 . S
C1841 C1842 1.334 . S
C1842 H1813 0.950 . S
C1842 C1841 1.334 . S
C1842 C1843 1.287 . S
C1843 C1842 1.287 . S
C1843 C1844 1.524 . S
C1843 H1846 0.999 . S
C1844 H1814 0.950 . S
C1844 C1843 1.524 . S
C1844 C1845 1.415 . S
C1845 H1815 0.950 . S
C1845 C1840 1.363 . S
C1845 C1844 1.415 . S
H1846 C1843 0.999 . S
H1847 C1828 0.913 . S
H1848 C1866 0.951 . S
H1849 C1868 0.951 . S
H1850 C1870 0.950 . S
H1851 C1871 0.950 . S
H1852 C1873 0.950 . S
H1853 C1876 0.950 . S
H1854 C1877 0.950 . S
H1855 C1879 0.950 . S
H1856 C1880 0.950 . S
H1857 C1881 0.951 . S
H1858 C1883 0.951 . S
H1859 C1885 0.950 . S
H1860 C1886 0.950 . S
H1861 C1888 0.950 . S
H1862 C1891 0.950 . S
H1863 C1892 0.950 . S
H1864 C1894 0.950 . S
H1865 C1895 0.950 . S
C1866 H1848 0.951 . S
C1866 C1867 1.366 . S
C1866 C1868 1.388 . S
C1867 C1866 1.366 . S
C1867 C1871 1.385 . S
C1868 H1849 0.951 . S
C1868 C1866 1.388 . S
C1868 C1869 1.366 . S
C1869 C1868 1.366 . S
C1869 C1870 1.414 . S
C1869 C1872 1.499 . S
C1870 H1850 0.950 . S
C1870 C1869 1.414 . S
C1870 C1871 1.374 . S
C1871 H1851 0.950 . S
C1871 C1867 1.385 . S
C1871 C1870 1.374 . S
C1872 C1869 1.499 . S
C1872 C1873 1.373 . S
C1872 C1874 1.389 . S
C1873 H1852 0.950 . S
C1873 C1872 1.373 . S
C1873 C1889 1.377 1_556 S
C1874 C1872 1.389 . S
C1874 C1875 1.524 . S
C1874 C1888 1.377 1_556 S
C1875 C1874 1.524 . S
C1875 C1876 1.397 . S
C1875 C1880 1.363 . S
C1876 H1853 0.950 . S
C1876 C1875 1.397 . S
C1876 C1877 1.334 . S
C1877 H1854 0.950 . S
C1877 C1876 1.334 . S
C1877 C1878 1.287 . S
C1878 C1877 1.287 . S
C1878 C1879 1.524 . S
C1878 H1897 0.913 . S
C1879 H1855 0.950 . S
C1879 C1878 1.524 . S
C1879 C1880 1.415 . S
C1880 H1856 0.950 . S
C1880 C1875 1.363 . S
C1880 C1879 1.415 . S
C1881 H1857 0.951 . S
C1881 C1882 1.366 . S
C1881 C1883 1.388 . S
C1882 C1881 1.366 . S
C1882 C1886 1.385 . S
C1883 H1858 0.951 . S
C1883 C1881 1.388 . S
C1883 C1884 1.366 . S
C1884 C1883 1.366 . S
C1884 C1885 1.414 . S
C1884 C1887 1.499 . S
C1885 H1859 0.950 . S
C1885 C1884 1.414 . S
C1885 C1886 1.374 . S
C1886 H1860 0.950 . S
C1886 C1882 1.385 . S
C1886 C1885 1.374 . S
C1887 C1884 1.499 . S
C1887 C1888 1.373 . S
C1887 C1889 1.389 . S
C1888 H1861 0.950 . S
C1888 C1874 1.377 1_554 S
C1888 C1887 1.373 . S
C1889 C1873 1.377 1_554 S
C1889 C1887 1.389 . S
C1889 C1890 1.524 . S
C1890 C1889 1.524 . S
C1890 C1891 1.397 . S
C1890 C1895 1.363 . S
C1891 H1862 0.950 . S
C1891 C1890 1.397 . S
C1891 C1892 1.334 . S
C1892 H1863 0.950 . S
C1892 C1891 1.334 . S
C1892 C1893 1.287 . S
C1893 C1892 1.287 . S
C1893 C1894 1.524 . S
C1893 H1896 0.999 . S
C1894 H1864 0.950 . S
C1894 C1893 1.524 . S
C1894 C1895 1.415 . S
C1895 H1865 0.950 . S
C1895 C1890 1.363 . S
C1895 C1894 1.415 . S
H1896 C1893 0.999 . S
H1897 C1878 0.913 . S
H1898 C1916 0.951 . S
H1899 C1918 0.951 . S
H1900 C1920 0.950 . S
H1901 C1921 0.950 . S
H1902 C1923 0.950 . S
H1903 C1926 0.950 . S
H1904 C1927 0.950 . S
H1905 C1929 0.950 . S
H1906 C1930 0.950 . S
H1907 C1931 0.951 . S
H1908 C1933 0.951 . S
H1909 C1935 0.950 . S
H1910 C1936 0.950 . S
H1911 C1938 0.950 . S
H1912 C1941 0.950 . S
H1913 C1942 0.950 . S
H1914 C1944 0.950 . S
H1915 C1945 0.950 . S
C1916 H1898 0.951 . S
C1916 C1917 1.366 . S
C1916 C1918 1.388 . S
C1917 C1916 1.366 . S
C1917 C1921 1.385 . S
C1918 H1899 0.951 . S
C1918 C1916 1.388 . S
C1918 C1919 1.366 . S
C1919 C1918 1.366 . S
C1919 C1920 1.414 . S
C1919 C1922 1.499 . S
C1920 H1900 0.950 . S
C1920 C1919 1.414 . S
C1920 C1921 1.374 . S
C1921 H1901 0.950 . S
C1921 C1917 1.385 . S
C1921 C1920 1.374 . S
C1922 C1919 1.499 . S
C1922 C1923 1.373 . S
C1922 C1924 1.389 . S
C1923 H1902 0.950 . S
C1923 C1922 1.373 . S
C1923 C1939 1.377 1_554 S
C1924 C1922 1.389 . S
C1924 C1925 1.524 . S
C1924 C1938 1.377 1_554 S
C1925 C1924 1.524 . S
C1925 C1926 1.397 . S
C1925 C1930 1.363 . S
C1926 H1903 0.950 . S
C1926 C1925 1.397 . S
C1926 C1927 1.334 . S
C1927 H1904 0.950 . S
C1927 C1926 1.334 . S
C1927 C1928 1.287 . S
C1928 C1927 1.287 . S
C1928 C1929 1.524 . S
C1928 H1947 0.913 . S
C1929 H1905 0.950 . S
C1929 C1928 1.524 . S
C1929 C1930 1.415 . S
C1930 H1906 0.950 . S
C1930 C1925 1.363 . S
C1930 C1929 1.415 . S
C1931 H1907 0.951 . S
C1931 C1932 1.366 . S
C1931 C1933 1.388 . S
C1932 C1931 1.366 . S
C1932 C1936 1.385 . S
C1933 H1908 0.951 . S
C1933 C1931 1.388 . S
C1933 C1934 1.366 . S
C1934 C1933 1.366 . S
C1934 C1935 1.414 . S
C1934 C1937 1.499 . S
C1935 H1909 0.950 . S
C1935 C1934 1.414 . S
C1935 C1936 1.374 . S
C1936 H1910 0.950 . S
C1936 C1932 1.385 . S
C1936 C1935 1.374 . S
C1937 C1934 1.499 . S
C1937 C1938 1.373 . S
C1937 C1939 1.389 . S
C1938 H1911 0.950 . S
C1938 C1924 1.377 1_556 S
C1938 C1937 1.373 . S
C1939 C1923 1.377 1_556 S
C1939 C1937 1.389 . S
C1939 C1940 1.524 . S
C1940 C1939 1.524 . S
C1940 C1941 1.397 . S
C1940 C1945 1.363 . S
C1941 H1912 0.950 . S
C1941 C1940 1.397 . S
C1941 C1942 1.334 . S
C1942 H1913 0.950 . S
C1942 C1941 1.334 . S
C1942 C1943 1.287 . S
C1943 C1942 1.287 . S
C1943 C1944 1.524 . S
C1943 H1946 0.999 . S
C1944 H1914 0.950 . S
C1944 C1943 1.524 . S
C1944 C1945 1.415 . S
C1945 H1915 0.950 . S
C1945 C1940 1.363 . S
C1945 C1944 1.415 . S
H1946 C1943 0.999 . S
H1947 C1928 0.913 . S
H1948 C1966 0.951 . S
H1949 C1968 0.951 . S
H1950 C1970 0.950 . S
H1951 C1971 0.950 . S
H1952 C1973 0.950 . S
H1953 C1976 0.950 . S
H1954 C1977 0.950 . S
H1955 C1979 0.950 . S
H1956 C1980 0.950 . S
H1957 C1981 0.951 . S
H1958 C1983 0.951 . S
H1959 C1985 0.950 . S
H1960 C1986 0.950 . S
H1961 C1988 0.950 . S
H1962 C1991 0.950 . S
H1963 C1992 0.950 . S
H1964 C1994 0.950 . S
H1965 C1995 0.950 . S
C1966 H1948 0.951 . S
C1966 C1967 1.366 . S
C1966 C1968 1.388 . S
C1967 C1966 1.366 . S
C1967 C1971 1.385 . S
C1968 H1949 0.951 . S
C1968 C1966 1.388 . S
C1968 C1969 1.366 . S
C1969 C1968 1.366 . S
C1969 C1970 1.414 . S
C1969 C1972 1.499 . S
C1970 H1950 0.950 . S
C1970 C1969 1.414 . S
C1970 C1971 1.374 . S
C1971 H1951 0.950 . S
C1971 C1967 1.385 . S
C1971 C1970 1.374 . S
C1972 C1969 1.499 . S
C1972 C1973 1.373 . S
C1972 C1974 1.389 . S
C1973 H1952 0.950 . S
C1973 C1972 1.373 . S
C1973 C1989 1.377 1_554 S
C1974 C1972 1.389 . S
C1974 C1975 1.524 . S
C1974 C1988 1.377 1_554 S
C1975 C1974 1.524 . S
C1975 C1976 1.397 . S
C1975 C1980 1.363 . S
C1976 H1953 0.950 . S
C1976 C1975 1.397 . S
C1976 C1977 1.334 . S
C1977 H1954 0.950 . S
C1977 C1976 1.334 . S
C1977 C1978 1.287 . S
C1978 C1977 1.287 . S
C1978 C1979 1.524 . S
C1978 H1997 0.913 . S
C1979 H1955 0.950 . S
C1979 C1978 1.524 . S
C1979 C1980 1.415 . S
C1980 H1956 0.950 . S
C1980 C1975 1.363 . S
C1980 C1979 1.415 . S
C1981 H1957 0.951 . S
C1981 C1982 1.366 . S
C1981 C1983 1.388 . S
C1982 C1981 1.366 . S
C1982 C1986 1.385 . S
C1983 H1958 0.951 . S
C1983 C1981 1.388 . S
C1983 C1984 1.366 . S
C1984 C1983 1.366 . S
C1984 C1985 1.414 . S
C1984 C1987 1.499 . S
C1985 H1959 0.950 . S
C1985 C1984 1.414 . S
C1985 C1986 1.374 . S
C1986 H1960 0.950 . S
C1986 C1982 1.385 . S
C1986 C1985 1.374 . S
C1987 C1984 1.499 . S
C1987 C1988 1.373 . S
C1987 C1989 1.389 . S
C1988 H1961 0.950 . S
C1988 C1974 1.377 1_556 S
C1988 C1987 1.373 . S
C1989 C1973 1.377 1_556 S
C1989 C1987 1.389 . S
C1989 C1990 1.524 . S
C1990 C1989 1.524 . S
C1990 C1991 1.397 . S
C1990 C1995 1.363 . S
C1991 H1962 0.950 . S
C1991 C1990 1.397 . S
C1991 C1992 1.334 . S
C1992 H1963 0.950 . S
C1992 C1991 1.334 . S
C1992 C1993 1.287 . S
C1993 C1992 1.287 . S
C1993 C1994 1.524 . S
C1993 H1996 0.999 . S
C1994 H1964 0.950 . S
C1994 C1993 1.524 . S
C1994 C1995 1.415 . S
C1995 H1965 0.950 . S
C1995 C1990 1.363 . S
C1995 C1994 1.415 . S
H1996 C1993 0.999 . S
H1997 C1978 0.913 . S
H1998 C2016 0.951 . S
H1999 C2018 0.951 . S
H2000 C2020 0.950 . S
H2001 C2021 0.950 . S
H2002 C2023 0.950 . S
H2003 C2026 0.950 . S
H2004 C2027 0.950 . S
H2005 C2029 0.950 . S
H2006 C2030 0.950 . S
H2007 C2031 0.951 . S
H2008 C2033 0.951 . S
H2009 C2035 0.950 . S
H2010 C2036 0.950 . S
H2011 C2038 0.950 . S
H2012 C2041 0.950 . S
H2013 C2042 0.950 . S
H2014 C2044 0.950 . S
H2015 C2045 0.950 . S
C2016 H1998 0.951 . S
C2016 C2017 1.366 . S
C2016 C2018 1.388 . S
C2017 C2016 1.366 . S
C2017 C2021 1.385 . S
C2018 H1999 0.951 . S
C2018 C2016 1.388 . S
C2018 C2019 1.366 . S
C2019 C2018 1.366 . S
C2019 C2020 1.414 . S
C2019 C2022 1.499 . S
C2020 H2000 0.950 . S
C2020 C2019 1.414 . S
C2020 C2021 1.374 . S
C2021 H2001 0.950 . S
C2021 C2017 1.385 . S
C2021 C2020 1.374 . S
C2022 C2019 1.499 . S
C2022 C2023 1.373 . S
C2022 C2024 1.389 . S
C2023 H2002 0.950 . S
C2023 C2022 1.373 . S
C2023 C2039 1.377 1_556 S
C2024 C2022 1.389 . S
C2024 C2025 1.524 . S
C2024 C2038 1.377 1_556 S
C2025 C2024 1.524 . S
C2025 C2026 1.397 . S
C2025 C2030 1.363 . S
C2026 H2003 0.950 . S
C2026 C2025 1.397 . S
C2026 C2027 1.334 . S
C2027 H2004 0.950 . S
C2027 C2026 1.334 . S
C2027 C2028 1.287 . S
C2028 C2027 1.287 . S
C2028 C2029 1.524 . S
C2028 H2047 0.913 . S
C2029 H2005 0.950 . S
C2029 C2028 1.524 . S
C2029 C2030 1.415 . S
C2030 H2006 0.950 . S
C2030 C2025 1.363 . S
C2030 C2029 1.415 . S
C2031 H2007 0.951 . S
C2031 C2032 1.366 . S
C2031 C2033 1.388 . S
C2032 C2031 1.366 . S
C2032 C2036 1.385 . S
C2033 H2008 0.951 . S
C2033 C2031 1.388 . S
C2033 C2034 1.366 . S
C2034 C2033 1.366 . S
C2034 C2035 1.414 . S
C2034 C2037 1.499 . S
C2035 H2009 0.950 . S
C2035 C2034 1.414 . S
C2035 C2036 1.374 . S
C2036 H2010 0.950 . S
C2036 C2032 1.385 . S
C2036 C2035 1.374 . S
C2037 C2034 1.499 . S
C2037 C2038 1.373 . S
C2037 C2039 1.389 . S
C2038 H2011 0.950 . S
C2038 C2024 1.377 1_554 S
C2038 C2037 1.373 . S
C2039 C2023 1.377 1_554 S
C2039 C2037 1.389 . S
C2039 C2040 1.524 . S
C2040 C2039 1.524 . S
C2040 C2041 1.397 . S
C2040 C2045 1.363 . S
C2041 H2012 0.950 . S
C2041 C2040 1.397 . S
C2041 C2042 1.334 . S
C2042 H2013 0.950 . S
C2042 C2041 1.334 . S
C2042 C2043 1.287 . S
C2043 C2042 1.287 . S
C2043 C2044 1.524 . S
C2043 H2046 0.999 . S
C2044 H2014 0.950 . S
C2044 C2043 1.524 . S
C2044 C2045 1.415 . S
C2045 H2015 0.950 . S
C2045 C2040 1.363 . S
C2045 C2044 1.415 . S
H2046 C2043 0.999 . S
H2047 C2028 0.913 . S
H2048 C2066 0.951 . S
H2049 C2068 0.951 . S
H2050 C2070 0.950 . S
H2051 C2071 0.950 . S
H2052 C2073 0.950 . S
H2053 C2076 0.950 . S
H2054 C2077 0.986 . S
H2055 C2079 0.950 . S
H2056 C2080 0.950 . S
H2057 C2081 0.951 . S
H2058 C2083 0.951 . S
H2059 C2085 0.950 . S
H2060 C2086 0.950 . S
H2061 C2088 0.950 . S
H2062 C2091 0.950 . S
H2063 C2092 0.986 . S
H2064 C2094 0.950 . S
H2065 C2095 0.950 . S
C2066 H2048 0.951 . S
C2066 C2067 1.366 . S
C2066 C2068 1.388 . S
C2067 C2066 1.366 . S
C2067 C2071 1.385 . S
C2068 H2049 0.951 . S
C2068 C2066 1.388 . S
C2068 C2069 1.366 . S
C2069 C2068 1.366 . S
C2069 C2070 1.414 . S
C2069 C2072 1.499 . S
C2070 H2050 0.950 . S
C2070 C2069 1.414 . S
C2070 C2071 1.374 . S
C2071 H2051 0.950 . S
C2071 C2067 1.385 . S
C2071 C2070 1.374 . S
C2072 C2069 1.499 . S
C2072 C2073 1.373 . S
C2072 C2074 1.389 1_545 S
C2073 H2052 0.950 . S
C2073 C2072 1.373 . S
C2073 C2089 1.377 . S
C2074 C2072 1.389 1_565 S
C2074 C2075 1.524 . S
C2074 C2088 1.377 . S
C2075 C2074 1.524 . S
C2075 C2076 1.397 1_565 S
C2075 C2080 1.363 . S
C2076 H2053 0.950 . S
C2076 C2075 1.397 1_545 S
C2076 C2077 1.345 . S
C2077 H2054 0.986 . S
C2077 C2076 1.345 . S
C2077 C2078 1.244 1_545 S
C2078 C2077 1.244 1_565 S
C2078 C2079 1.524 . S
C2078 H2097 0.913 . S
C2079 H2055 0.950 . S
C2079 C2078 1.524 . S
C2079 C2080 1.415 . S
C2080 H2056 0.950 . S
C2080 C2075 1.363 . S
C2080 C2079 1.415 . S
C2081 H2057 0.951 . S
C2081 C2082 1.366 . S
C2081 C2083 1.388 . S
C2082 C2081 1.366 . S
C2082 C2086 1.385 . S
C2083 H2058 0.951 . S
C2083 C2081 1.388 . S
C2083 C2084 1.366 . S
C2084 C2083 1.366 . S
C2084 C2085 1.414 . S
C2084 C2087 1.499 . S
C2085 H2059 0.950 . S
C2085 C2084 1.414 . S
C2085 C2086 1.374 . S
C2086 H2060 0.950 . S
C2086 C2082 1.385 . S
C2086 C2085 1.374 . S
C2087 C2084 1.499 . S
C2087 C2088 1.373 . S
C2087 C2089 1.389 1_565 S
C2088 H2061 0.950 . S
C2088 C2074 1.377 . S
C2088 C2087 1.373 . S
C2089 C2073 1.377 . S
C2089 C2087 1.389 1_545 S
C2089 C2090 1.524 . S
C2090 C2089 1.524 . S
C2090 C2091 1.397 1_545 S
C2090 C2095 1.363 . S
C2091 H2062 0.950 . S
C2091 C2090 1.397 1_565 S
C2091 C2092 1.345 . S
C2092 H2063 0.986 . S
C2092 C2091 1.345 . S
C2092 C2093 1.244 1_565 S
C2093 C2092 1.244 1_545 S
C2093 C2094 1.524 . S
C2093 H2096 0.999 . S
C2094 H2064 0.950 . S
C2094 C2093 1.524 . S
C2094 C2095 1.415 . S
C2095 H2065 0.950 . S
C2095 C2090 1.363 . S
C2095 C2094 1.415 . S
H2096 C2093 0.999 . S
H2097 C2078 0.913 . S
H2098 C2116 0.951 . S
H2099 C2118 0.951 . S
H2100 C2120 0.950 . S
H2101 C2121 0.950 . S
H2102 C2123 0.950 . S
H2103 C2126 0.950 . S
H2104 C2127 0.950 . S
H2105 C2129 0.950 . S
H2106 C2130 0.950 1_455 S
H2107 C2131 0.951 . S
H2108 C2133 0.951 . S
H2109 C2135 0.950 . S
H2110 C2136 0.950 . S
H2111 C2138 0.950 . S
H2112 C2141 0.950 . S
H2113 C2142 0.950 . S
H2114 C2144 0.950 . S
H2115 C2145 0.950 1_655 S
C2116 H2098 0.951 . S
C2116 C2117 1.366 . S
C2116 C2118 1.388 . S
C2117 C2116 1.366 . S
C2117 C2121 1.385 . S
C2118 H2099 0.951 . S
C2118 C2116 1.388 . S
C2118 C2119 1.366 . S
C2119 C2118 1.366 . S
C2119 C2120 1.414 . S
C2119 C2122 1.499 . S
C2120 H2100 0.950 . S
C2120 C2119 1.414 . S
C2120 C2121 1.374 . S
C2121 H2101 0.950 . S
C2121 C2117 1.385 . S
C2121 C2120 1.374 . S
C2122 C2119 1.499 . S
C2122 C2123 1.373 . S
C2122 C2124 1.389 . S
C2123 H2102 0.950 . S
C2123 C2122 1.373 . S
C2123 C2139 1.377 1_655 S
C2124 C2122 1.389 . S
C2124 C2125 1.524 . S
C2124 C2138 1.377 1_655 S
C2125 C2124 1.524 . S
C2125 C2126 1.397 . S
C2125 C2130 1.363 . S
C2126 H2103 0.950 . S
C2126 C2125 1.397 . S
C2126 C2127 1.334 . S
C2127 H2104 0.950 . S
C2127 C2126 1.334 . S
C2127 C2128 1.287 . S
C2128 C2127 1.287 . S
C2128 C2129 1.524 . S
C2128 H2147 0.913 . S
C2129 H2105 0.950 . S
C2129 C2128 1.524 . S
C2129 C2130 1.415 . S
C2130 H2106 0.950 1_655 S
C2130 C2125 1.363 . S
C2130 C2129 1.415 . S
C2131 H2107 0.951 . S
C2131 C2132 1.366 . S
C2131 C2133 1.388 . S
C2132 C2131 1.366 . S
C2132 C2136 1.385 . S
C2133 H2108 0.951 . S
C2133 C2131 1.388 . S
C2133 C2134 1.366 . S
C2134 C2133 1.366 . S
C2134 C2135 1.414 . S
C2134 C2137 1.499 . S
C2135 H2109 0.950 . S
C2135 C2134 1.414 . S
C2135 C2136 1.374 . S
C2136 H2110 0.950 . S
C2136 C2132 1.385 . S
C2136 C2135 1.374 . S
C2137 C2134 1.499 . S
C2137 C2138 1.373 . S
C2137 C2139 1.389 . S
C2138 H2111 0.950 . S
C2138 C2124 1.377 1_455 S
C2138 C2137 1.373 . S
C2139 C2123 1.377 1_455 S
C2139 C2137 1.389 . S
C2139 C2140 1.524 . S
C2140 C2139 1.524 . S
C2140 C2141 1.397 . S
C2140 C2145 1.363 . S
C2141 H2112 0.950 . S
C2141 C2140 1.397 . S
C2141 C2142 1.334 . S
C2142 H2113 0.950 . S
C2142 C2141 1.334 . S
C2142 C2143 1.287 . S
C2143 C2142 1.287 . S
C2143 C2144 1.524 . S
C2143 H2146 0.999 . S
C2144 H2114 0.950 . S
C2144 C2143 1.524 . S
C2144 C2145 1.415 . S
C2145 H2115 0.950 1_455 S
C2145 C2140 1.363 . S
C2145 C2144 1.415 . S
H2146 C2143 0.999 . S
H2147 C2128 0.913 . S
H2148 C2166 0.951 . S
H2149 C2168 0.951 . S
H2150 C2170 0.950 . S
H2151 C2171 0.950 . S
H2152 C2173 0.950 . S
H2153 C2176 0.950 . S
H2154 C2177 0.950 . S
H2155 C2179 0.950 . S
H2156 C2180 0.950 . S
H2157 C2181 0.951 . S
H2158 C2183 0.951 . S
H2159 C2185 0.950 . S
H2160 C2186 0.950 . S
H2161 C2188 0.950 . S
H2162 C2191 0.950 . S
H2163 C2192 0.950 . S
H2164 C2194 0.950 . S
H2165 C2195 0.950 . S
C2166 H2148 0.951 . S
C2166 C2167 1.366 . S
C2166 C2168 1.388 . S
C2167 C2166 1.366 . S
C2167 C2171 1.385 . S
C2168 H2149 0.951 . S
C2168 C2166 1.388 . S
C2168 C2169 1.366 . S
C2169 C2168 1.366 . S
C2169 C2170 1.414 . S
C2169 C2172 1.499 . S
C2170 H2150 0.950 . S
C2170 C2169 1.414 . S
C2170 C2171 1.374 . S
C2171 H2151 0.950 . S
C2171 C2167 1.385 . S
C2171 C2170 1.374 . S
C2172 C2169 1.499 . S
C2172 C2173 1.373 . S
C2172 C2174 1.389 . S
C2173 H2152 0.950 . S
C2173 C2172 1.373 . S
C2173 C2189 1.377 1_545 S
C2174 C2172 1.389 . S
C2174 C2175 1.524 . S
C2174 C2188 1.377 1_545 S
C2175 C2174 1.524 . S
C2175 C2176 1.397 . S
C2175 C2180 1.363 . S
C2176 H2153 0.950 . S
C2176 C2175 1.397 . S
C2176 C2177 1.334 . S
C2177 H2154 0.950 . S
C2177 C2176 1.334 . S
C2177 C2178 1.287 . S
C2178 C2177 1.287 . S
C2178 C2179 1.524 . S
C2178 H2197 0.913 . S
C2179 H2155 0.950 . S
C2179 C2178 1.524 . S
C2179 C2180 1.415 . S
C2180 H2156 0.950 . S
C2180 C2175 1.363 . S
C2180 C2179 1.415 . S
C2181 H2157 0.951 . S
C2181 C2182 1.366 . S
C2181 C2183 1.388 . S
C2182 C2181 1.366 . S
C2182 C2186 1.385 . S
C2183 H2158 0.951 . S
C2183 C2181 1.388 . S
C2183 C2184 1.366 . S
C2184 C2183 1.366 . S
C2184 C2185 1.414 . S
C2184 C2187 1.499 . S
C2185 H2159 0.950 . S
C2185 C2184 1.414 . S
C2185 C2186 1.374 . S
C2186 H2160 0.950 . S
C2186 C2182 1.385 . S
C2186 C2185 1.374 . S
C2187 C2184 1.499 . S
C2187 C2188 1.373 . S
C2187 C2189 1.389 . S
C2188 H2161 0.950 . S
C2188 C2174 1.377 1_565 S
C2188 C2187 1.373 . S
C2189 C2173 1.377 1_565 S
C2189 C2187 1.389 . S
C2189 C2190 1.524 . S
C2190 C2189 1.524 . S
C2190 C2191 1.397 . S
C2190 C2195 1.363 . S
C2191 H2162 0.950 . S
C2191 C2190 1.397 . S
C2191 C2192 1.334 . S
C2192 H2163 0.950 . S
C2192 C2191 1.334 . S
C2192 C2193 1.287 . S
C2193 C2192 1.287 . S
C2193 C2194 1.524 . S
C2193 H2196 0.999 . S
C2194 H2164 0.950 . S
C2194 C2193 1.524 . S
C2194 C2195 1.415 . S
C2195 H2165 0.950 . S
C2195 C2190 1.363 . S
C2195 C2194 1.415 . S
H2196 C2193 0.999 . S
H2197 C2178 0.913 . S
H2198 C2216 0.951 . S
H2199 C2218 0.951 . S
H2200 C2220 0.950 . S
H2201 C2221 0.950 . S
H2202 C2223 0.950 . S
H2203 C2226 0.950 . S
H2204 C2227 0.944 1_455 S
H2205 C2229 0.950 . S
H2206 C2230 0.950 . S
H2207 C2231 0.951 . S
H2208 C2233 0.951 . S
H2209 C2235 0.950 . S
H2210 C2236 0.950 . S
H2211 C2238 0.950 . S
H2212 C2241 0.950 . S
H2213 C2242 0.944 1_655 S
H2214 C2244 0.950 . S
H2215 C2245 0.950 . S
C2216 H2198 0.951 . S
C2216 C2217 1.366 . S
C2216 C2218 1.388 . S
C2217 C2216 1.366 . S
C2217 C2221 1.385 . S
C2218 H2199 0.951 . S
C2218 C2216 1.388 . S
C2218 C2219 1.366 . S
C2219 C2218 1.366 . S
C2219 C2220 1.414 . S
C2219 C2222 1.499 . S
C2220 H2200 0.950 . S
C2220 C2219 1.414 . S
C2220 C2221 1.374 . S
C2221 H2201 0.950 . S
C2221 C2217 1.385 . S
C2221 C2220 1.374 . S
C2222 C2219 1.499 . S
C2222 C2223 1.373 . S
C2222 C2224 1.380 1_455 S
C2223 H2202 0.950 . S
C2223 C2222 1.373 . S
C2223 C2239 1.386 . S
C2224 C2222 1.380 1_655 S
C2224 C2225 1.526 . S
C2224 C2238 1.386 . S
C2225 C2224 1.526 . S
C2225 C2226 1.397 1_655 S
C2225 C2230 1.363 . S
C2226 H2203 0.950 . S
C2226 C2225 1.397 1_455 S
C2226 C2227 1.332 1_455 S
C2227 H2204 0.944 1_655 S
C2227 C2226 1.332 1_655 S
C2227 C2228 1.296 . S
C2228 C2227 1.296 . S
C2228 C2229 1.524 . S
C2228 H2247 0.913 . S
C2229 H2205 0.950 . S
C2229 C2228 1.524 . S
C2229 C2230 1.415 . S
C2230 H2206 0.950 . S
C2230 C2225 1.363 . S
C2230 C2229 1.415 . S
C2231 H2207 0.951 . S
C2231 C2232 1.366 . S
C2231 C2233 1.388 . S
C2232 C2231 1.366 . S
C2232 C2236 1.385 . S
C2233 H2208 0.951 . S
C2233 C2231 1.388 . S
C2233 C2234 1.366 . S
C2234 C2233 1.366 . S
C2234 C2235 1.414 . S
C2234 C2237 1.499 . S
C2235 H2209 0.950 . S
C2235 C2234 1.414 . S
C2235 C2236 1.374 . S
C2236 H2210 0.950 . S
C2236 C2232 1.385 . S
C2236 C2235 1.374 . S
C2237 C2234 1.499 . S
C2237 C2238 1.373 . S
C2237 C2239 1.380 1_655 S
C2238 H2211 0.950 . S
C2238 C2224 1.386 . S
C2238 C2237 1.373 . S
C2239 C2223 1.386 . S
C2239 C2237 1.380 1_455 S
C2239 C2240 1.526 . S
C2240 C2239 1.526 . S
C2240 C2241 1.397 1_455 S
C2240 C2245 1.363 . S
C2241 H2212 0.950 . S
C2241 C2240 1.397 1_655 S
C2241 C2242 1.332 1_655 S
C2242 H2213 0.944 1_455 S
C2242 C2241 1.332 1_455 S
C2242 C2243 1.296 . S
C2243 C2242 1.296 . S
C2243 C2244 1.524 . S
C2243 H2246 0.999 . S
C2244 H2214 0.950 . S
C2244 C2243 1.524 . S
C2244 C2245 1.415 . S
C2245 H2215 0.950 . S
C2245 C2240 1.363 . S
C2245 C2244 1.415 . S
H2246 C2243 0.999 . S
H2247 C2228 0.913 . S
H2248 C2266 0.951 . S
H2249 C2268 0.951 . S
H2250 C2270 0.950 . S
H2251 C2271 0.950 . S
H2252 C2273 0.950 . S
H2253 C2276 0.950 . S
H2254 C2277 0.950 . S
H2255 C2279 0.950 . S
H2256 C2280 0.950 . S
H2257 C2281 0.951 . S
H2258 C2283 0.951 . S
H2259 C2285 0.950 . S
H2260 C2286 0.950 . S
H2261 C2288 0.950 . S
H2262 C2291 0.950 . S
H2263 C2292 0.950 . S
H2264 C2294 0.950 . S
H2265 C2295 0.950 . S
C2266 H2248 0.951 . S
C2266 C2267 1.366 . S
C2266 C2268 1.388 . S
C2267 C2266 1.366 . S
C2267 C2271 1.385 . S
C2268 H2249 0.951 . S
C2268 C2266 1.388 . S
C2268 C2269 1.366 . S
C2269 C2268 1.366 . S
C2269 C2270 1.414 . S
C2269 C2272 1.499 . S
C2270 H2250 0.950 . S
C2270 C2269 1.414 . S
C2270 C2271 1.374 . S
C2271 H2251 0.950 . S
C2271 C2267 1.385 . S
C2271 C2270 1.374 . S
C2272 C2269 1.499 . S
C2272 C2273 1.373 . S
C2272 C2274 1.389 . S
C2273 H2252 0.950 . S
C2273 C2272 1.373 . S
C2273 C2289 1.377 1_565 S
C2274 C2272 1.389 . S
C2274 C2275 1.524 . S
C2274 C2288 1.377 1_565 S
C2275 C2274 1.524 . S
C2275 C2276 1.397 . S
C2275 C2280 1.363 . S
C2276 H2253 0.950 . S
C2276 C2275 1.397 . S
C2276 C2277 1.334 . S
C2277 H2254 0.950 . S
C2277 C2276 1.334 . S
C2277 C2278 1.287 . S
C2278 C2277 1.287 . S
C2278 C2279 1.524 . S
C2278 H2297 0.913 . S
C2279 H2255 0.950 . S
C2279 C2278 1.524 . S
C2279 C2280 1.415 . S
C2280 H2256 0.950 . S
C2280 C2275 1.363 . S
C2280 C2279 1.415 . S
C2281 H2257 0.951 . S
C2281 C2282 1.366 . S
C2281 C2283 1.388 . S
C2282 C2281 1.366 . S
C2282 C2286 1.385 . S
C2283 H2258 0.951 . S
C2283 C2281 1.388 . S
C2283 C2284 1.366 . S
C2284 C2283 1.366 . S
C2284 C2285 1.414 . S
C2284 C2287 1.499 . S
C2285 H2259 0.950 . S
C2285 C2284 1.414 . S
C2285 C2286 1.374 . S
C2286 H2260 0.950 . S
C2286 C2282 1.385 . S
C2286 C2285 1.374 . S
C2287 C2284 1.499 . S
C2287 C2288 1.373 . S
C2287 C2289 1.389 . S
C2288 H2261 0.950 . S
C2288 C2274 1.377 1_545 S
C2288 C2287 1.373 . S
C2289 C2273 1.377 1_545 S
C2289 C2287 1.389 . S
C2289 C2290 1.524 . S
C2290 C2289 1.524 . S
C2290 C2291 1.397 . S
C2290 C2295 1.363 . S
C2291 H2262 0.950 . S
C2291 C2290 1.397 . S
C2291 C2292 1.334 . S
C2292 H2263 0.950 . S
C2292 C2291 1.334 . S
C2292 C2293 1.287 . S
C2293 C2292 1.287 . S
C2293 C2294 1.524 . S
C2293 H2296 0.999 . S
C2294 H2264 0.950 . S
C2294 C2293 1.524 . S
C2294 C2295 1.415 . S
C2295 H2265 0.950 . S
C2295 C2290 1.363 . S
C2295 C2294 1.415 . S
H2296 C2293 0.999 . S
H2297 C2278 0.913 . S
H2298 C2316 0.951 . S
H2299 C2318 0.951 . S
H2300 C2320 0.950 . S
H2301 C2321 0.950 . S
H2302 C2323 0.950 . S
H2303 C2326 0.950 . S
H2304 C2327 0.950 . S
H2305 C2329 0.950 . S
H2306 C2330 0.950 . S
H2307 C2331 0.951 . S
H2308 C2333 0.951 . S
H2309 C2335 0.950 . S
H2310 C2336 0.950 . S
H2311 C2338 0.950 . S
H2312 C2341 0.950 . S
H2313 C2342 0.950 . S
H2314 C2344 0.950 . S
H2315 C2345 0.950 . S
C2316 H2298 0.951 . S
C2316 C2317 1.366 . S
C2316 C2318 1.388 . S
C2317 C2316 1.366 . S
C2317 C2321 1.385 . S
C2318 H2299 0.951 . S
C2318 C2316 1.388 . S
C2318 C2319 1.366 . S
C2319 C2318 1.366 . S
C2319 C2320 1.414 . S
C2319 C2322 1.499 . S
C2320 H2300 0.950 . S
C2320 C2319 1.414 . S
C2320 C2321 1.374 . S
C2321 H2301 0.950 . S
C2321 C2317 1.385 . S
C2321 C2320 1.374 . S
C2322 C2319 1.499 . S
C2322 C2323 1.373 . S
C2322 C2324 1.401 . S
C2323 H2302 0.950 . S
C2323 C2322 1.373 . S
C2323 C2339 1.364 1_655 S
C2324 C2322 1.401 . S
C2324 C2325 1.524 1_655 S
C2324 C2338 1.364 1_655 S
C2325 C2324 1.524 1_455 S
C2325 C2326 1.388 1_455 S
C2325 C2330 1.372 . S
C2326 H2303 0.950 . S
C2326 C2325 1.388 1_655 S
C2326 C2327 1.334 . S
C2327 H2304 0.950 . S
C2327 C2326 1.334 . S
C2327 C2328 1.288 1_655 S
C2328 C2327 1.288 1_455 S
C2328 C2329 1.523 . S
C2328 H2347 0.913 1_455 S
C2329 H2305 0.950 . S
C2329 C2328 1.523 . S
C2329 C2330 1.415 . S
C2330 H2306 0.950 . S
C2330 C2325 1.372 . S
C2330 C2329 1.415 . S
C2331 H2307 0.951 . S
C2331 C2332 1.366 . S
C2331 C2333 1.388 . S
C2332 C2331 1.366 . S
C2332 C2336 1.385 . S
C2333 H2308 0.951 . S
C2333 C2331 1.388 . S
C2333 C2334 1.366 . S
C2334 C2333 1.366 . S
C2334 C2335 1.414 . S
C2334 C2337 1.499 . S
C2335 H2309 0.950 . S
C2335 C2334 1.414 . S
C2335 C2336 1.374 . S
C2336 H2310 0.950 . S
C2336 C2332 1.385 . S
C2336 C2335 1.374 . S
C2337 C2334 1.499 . S
C2337 C2338 1.373 . S
C2337 C2339 1.401 . S
C2338 H2311 0.950 . S
C2338 C2324 1.364 1_455 S
C2338 C2337 1.373 . S
C2339 C2323 1.364 1_455 S
C2339 C2337 1.401 . S
C2339 C2340 1.524 1_455 S
C2340 C2339 1.524 1_655 S
C2340 C2341 1.388 1_655 S
C2340 C2345 1.372 . S
C2341 H2312 0.950 . S
C2341 C2340 1.388 1_455 S
C2341 C2342 1.334 . S
C2342 H2313 0.950 . S
C2342 C2341 1.334 . S
C2342 C2343 1.288 1_455 S
C2343 C2342 1.288 1_655 S
C2343 C2344 1.523 . S
C2343 H2346 0.999 . S
C2344 H2314 0.950 . S
C2344 C2343 1.523 . S
C2344 C2345 1.415 . S
C2345 H2315 0.950 . S
C2345 C2340 1.372 . S
C2345 C2344 1.415 . S
H2346 C2343 0.999 . S
H2347 C2328 0.913 1_655 S
H2348 C2366 0.951 . S
H2349 C2368 0.951 . S
H2350 C2370 0.950 . S
H2351 C2371 0.950 . S
H2352 C2373 0.950 . S
H2353 C2376 0.950 . S
H2354 C2377 0.950 . S
H2355 C2379 0.950 . S
H2356 C2380 0.950 . S
H2357 C2381 0.951 . S
H2358 C2383 0.951 . S
H2359 C2385 0.950 . S
H2360 C2386 0.950 . S
H2361 C2388 0.950 . S
H2362 C2391 0.950 . S
H2363 C2392 0.950 . S
H2364 C2394 0.950 . S
H2365 C2395 0.950 . S
C2366 H2348 0.951 . S
C2366 C2367 1.366 . S
C2366 C2368 1.388 . S
C2367 C2366 1.366 . S
C2367 C2371 1.385 . S
C2368 H2349 0.951 . S
C2368 C2366 1.388 . S
C2368 C2369 1.366 . S
C2369 C2368 1.366 . S
C2369 C2370 1.414 . S
C2369 C2372 1.499 . S
C2370 H2350 0.950 . S
C2370 C2369 1.414 . S
C2370 C2371 1.374 . S
C2371 H2351 0.950 . S
C2371 C2367 1.385 . S
C2371 C2370 1.374 . S
C2372 C2369 1.499 . S
C2372 C2373 1.373 . S
C2372 C2374 1.389 . S
C2373 H2352 0.950 . S
C2373 C2372 1.373 . S
C2373 C2389 1.377 1_565 S
C2374 C2372 1.389 . S
C2374 C2375 1.524 . S
C2374 C2388 1.377 1_565 S
C2375 C2374 1.524 . S
C2375 C2376 1.397 . S
C2375 C2380 1.363 1_565 S
C2376 H2353 0.950 . S
C2376 C2375 1.397 . S
C2376 C2377 1.334 . S
C2377 H2354 0.950 . S
C2377 C2376 1.334 . S
C2377 C2378 1.287 . S
C2378 C2377 1.287 . S
C2378 C2379 1.524 1_565 S
C2378 H2397 0.913 . S
C2379 H2355 0.950 . S
C2379 C2378 1.524 1_545 S
C2379 C2380 1.415 . S
C2380 H2356 0.950 . S
C2380 C2375 1.363 1_545 S
C2380 C2379 1.415 . S
C2381 H2357 0.951 . S
C2381 C2382 1.366 . S
C2381 C2383 1.388 . S
C2382 C2381 1.366 . S
C2382 C2386 1.385 . S
C2383 H2358 0.951 . S
C2383 C2381 1.388 . S
C2383 C2384 1.366 . S
C2384 C2383 1.366 . S
C2384 C2385 1.414 . S
C2384 C2387 1.499 . S
C2385 H2359 0.950 . S
C2385 C2384 1.414 . S
C2385 C2386 1.374 . S
C2386 H2360 0.950 . S
C2386 C2382 1.385 . S
C2386 C2385 1.374 . S
C2387 C2384 1.499 . S
C2387 C2388 1.373 . S
C2387 C2389 1.389 . S
C2388 H2361 0.950 . S
C2388 C2374 1.377 1_545 S
C2388 C2387 1.373 . S
C2389 C2373 1.377 1_545 S
C2389 C2387 1.389 . S
C2389 C2390 1.524 . S
C2390 C2389 1.524 . S
C2390 C2391 1.397 . S
C2390 C2395 1.363 1_545 S
C2391 H2362 0.950 . S
C2391 C2390 1.397 . S
C2391 C2392 1.334 . S
C2392 H2363 0.950 . S
C2392 C2391 1.334 . S
C2392 C2393 1.287 . S
C2393 C2392 1.287 . S
C2393 C2394 1.524 1_545 S
C2393 H2396 0.999 . S
C2394 H2364 0.950 . S
C2394 C2393 1.524 1_565 S
C2394 C2395 1.415 . S
C2395 H2365 0.950 . S
C2395 C2390 1.363 1_565 S
C2395 C2394 1.415 . S
H2396 C2393 0.999 . S
H2397 C2378 0.913 . S
H2398 C2416 0.951 . S
H2399 C2418 0.951 . S
H2400 C2420 0.950 . S
H2401 C2421 0.950 . S
H2402 C2423 0.950 . S
H2403 C2426 0.950 . S
H2404 C2427 0.950 . S
H2405 C2429 0.950 . S
H2406 C2430 0.950 . S
H2407 C2431 0.951 . S
H2408 C2433 0.951 . S
H2409 C2435 0.950 . S
H2410 C2436 0.950 . S
H2411 C2438 0.950 . S
H2412 C2441 0.950 . S
H2413 C2442 0.950 . S
H2414 C2444 0.950 . S
H2415 C2445 0.950 . S
C2416 H2398 0.951 . S
C2416 C2417 1.366 . S
C2416 C2418 1.388 . S
C2417 C2416 1.366 . S
C2417 C2421 1.385 . S
C2418 H2399 0.951 . S
C2418 C2416 1.388 . S
C2418 C2419 1.366 . S
C2419 C2418 1.366 . S
C2419 C2420 1.414 . S
C2419 C2422 1.499 . S
C2420 H2400 0.950 . S
C2420 C2419 1.414 . S
C2420 C2421 1.374 . S
C2421 H2401 0.950 . S
C2421 C2417 1.385 . S
C2421 C2420 1.374 . S
C2422 C2419 1.499 . S
C2422 C2423 1.373 . S
C2422 C2424 1.374 1_655 S
C2423 H2402 0.950 . S
C2423 C2422 1.373 . S
C2423 C2439 1.392 . S
C2424 C2422 1.374 1_455 S
C2424 C2425 1.526 . S
C2424 C2438 1.392 . S
C2425 C2424 1.526 . S
C2425 C2426 1.397 1_455 S
C2425 C2430 1.363 . S
C2426 H2403 0.950 . S
C2426 C2425 1.397 1_655 S
C2426 C2427 1.334 . S
C2427 H2404 0.950 . S
C2427 C2426 1.334 . S
C2427 C2428 1.287 1_655 S
C2428 C2427 1.287 1_455 S
C2428 C2429 1.524 . S
C2428 H2447 0.913 . S
C2429 H2405 0.950 . S
C2429 C2428 1.524 . S
C2429 C2430 1.415 . S
C2430 H2406 0.950 . S
C2430 C2425 1.363 . S
C2430 C2429 1.415 . S
C2431 H2407 0.951 . S
C2431 C2432 1.366 . S
C2431 C2433 1.388 . S
C2432 C2431 1.366 . S
C2432 C2436 1.385 . S
C2433 H2408 0.951 . S
C2433 C2431 1.388 . S
C2433 C2434 1.366 . S
C2434 C2433 1.366 . S
C2434 C2435 1.414 . S
C2434 C2437 1.499 . S
C2435 H2409 0.950 . S
C2435 C2434 1.414 . S
C2435 C2436 1.374 . S
C2436 H2410 0.950 . S
C2436 C2432 1.385 . S
C2436 C2435 1.374 . S
C2437 C2434 1.499 . S
C2437 C2438 1.373 . S
C2437 C2439 1.374 1_455 S
C2438 H2411 0.950 . S
C2438 C2424 1.392 . S
C2438 C2437 1.373 . S
C2439 C2423 1.392 . S
C2439 C2437 1.374 1_655 S
C2439 C2440 1.526 . S
C2440 C2439 1.526 . S
C2440 C2441 1.397 1_655 S
C2440 C2445 1.363 . S
C2441 H2412 0.950 . S
C2441 C2440 1.397 1_455 S
C2441 C2442 1.334 . S
C2442 H2413 0.950 . S
C2442 C2441 1.334 . S
C2442 C2443 1.287 1_455 S
C2443 C2442 1.287 1_655 S
C2443 C2444 1.524 . S
C2443 H2446 0.999 . S
C2444 H2414 0.950 . S
C2444 C2443 1.524 . S
C2444 C2445 1.415 . S
C2445 H2415 0.950 . S
C2445 C2440 1.363 . S
C2445 C2444 1.415 . S
H2446 C2443 0.999 . S
H2447 C2428 0.913 . S
H2448 C2466 0.951 . S
H2449 C2468 0.951 . S
H2450 C2470 0.950 . S
H2451 C2471 0.950 . S
H2452 C2473 0.950 . S
H2453 C2476 0.950 . S
H2454 C2477 0.950 . S
H2455 C2479 0.950 . S
H2456 C2480 0.950 . S
H2457 C2481 0.951 . S
H2458 C2483 0.951 . S
H2459 C2485 0.950 . S
H2460 C2486 0.950 . S
H2461 C2488 0.950 . S
H2462 C2491 0.950 . S
H2463 C2492 0.950 . S
H2464 C2494 0.950 . S
H2465 C2495 0.950 . S
C2466 H2448 0.951 . S
C2466 C2467 1.366 . S
C2466 C2468 1.388 . S
C2467 C2466 1.366 . S
C2467 C2471 1.385 . S
C2468 H2449 0.951 . S
C2468 C2466 1.388 . S
C2468 C2469 1.366 . S
C2469 C2468 1.366 . S
C2469 C2470 1.414 . S
C2469 C2472 1.499 . S
C2470 H2450 0.950 . S
C2470 C2469 1.414 . S
C2470 C2471 1.374 . S
C2471 H2451 0.950 . S
C2471 C2467 1.385 . S
C2471 C2470 1.374 . S
C2472 C2469 1.499 . S
C2472 C2473 1.373 . S
C2472 C2474 1.389 . S
C2473 H2452 0.950 . S
C2473 C2472 1.373 . S
C2473 C2489 1.377 . S
C2474 C2472 1.389 . S
C2474 C2475 1.524 . S
C2474 C2488 1.377 . S
C2475 C2474 1.524 . S
C2475 C2476 1.397 . S
C2475 C2480 1.363 . S
C2476 H2453 0.950 . S
C2476 C2475 1.397 . S
C2476 C2477 1.334 . S
C2477 H2454 0.950 . S
C2477 C2476 1.334 . S
C2477 C2478 1.287 . S
C2478 C2477 1.287 . S
C2478 C2479 1.524 . S
C2478 H2497 0.913 . S
C2479 H2455 0.950 . S
C2479 C2478 1.524 . S
C2479 C2480 1.415 . S
C2480 H2456 0.950 . S
C2480 C2475 1.363 . S
C2480 C2479 1.415 . S
C2481 H2457 0.951 . S
C2481 C2482 1.366 . S
C2481 C2483 1.388 . S
C2482 C2481 1.366 . S
C2482 C2486 1.385 . S
C2483 H2458 0.951 . S
C2483 C2481 1.388 . S
C2483 C2484 1.366 . S
C2484 C2483 1.366 . S
C2484 C2485 1.414 . S
C2484 C2487 1.499 . S
C2485 H2459 0.950 . S
C2485 C2484 1.414 . S
C2485 C2486 1.374 . S
C2486 H2460 0.950 . S
C2486 C2482 1.385 . S
C2486 C2485 1.374 . S
C2487 C2484 1.499 . S
C2487 C2488 1.373 . S
C2487 C2489 1.389 . S
C2488 H2461 0.950 . S
C2488 C2474 1.377 . S
C2488 C2487 1.373 . S
C2489 C2473 1.377 . S
C2489 C2487 1.389 . S
C2489 C2490 1.524 . S
C2490 C2489 1.524 . S
C2490 C2491 1.397 . S
C2490 C2495 1.363 . S
C2491 H2462 0.950 . S
C2491 C2490 1.397 . S
C2491 C2492 1.334 . S
C2492 H2463 0.950 . S
C2492 C2491 1.334 . S
C2492 C2493 1.287 . S
C2493 C2492 1.287 . S
C2493 C2494 1.524 . S
C2493 H2496 0.999 . S
C2494 H2464 0.950 . S
C2494 C2493 1.524 . S
C2494 C2495 1.415 . S
C2495 H2465 0.950 . S
C2495 C2490 1.363 . S
C2495 C2494 1.415 . S
H2496 C2493 0.999 . S
H2497 C2478 0.913 . S
H2498 C2516 0.951 . S
H2499 C2518 0.951 . S
H2500 C2520 0.950 . S
H2501 C2521 0.950 . S
H2502 C2523 0.950 . S
H2503 C2526 0.950 . S
H2504 C2527 0.950 . S
H2505 C2529 0.950 . S
H2506 C2530 0.950 . S
H2507 C2531 0.951 . S
H2508 C2533 0.951 . S
H2509 C2535 0.950 . S
H2510 C2536 0.950 . S
H2511 C2538 0.950 . S
H2512 C2541 0.950 . S
H2513 C2542 0.950 . S
H2514 C2544 0.950 . S
H2515 C2545 0.950 . S
C2516 H2498 0.951 . S
C2516 C2517 1.366 . S
C2516 C2518 1.388 . S
C2517 C2516 1.366 . S
C2517 C2521 1.385 . S
C2518 H2499 0.951 . S
C2518 C2516 1.388 . S
C2518 C2519 1.366 . S
C2519 C2518 1.366 . S
C2519 C2520 1.414 . S
C2519 C2522 1.499 . S
C2520 H2500 0.950 . S
C2520 C2519 1.414 . S
C2520 C2521 1.374 . S
C2521 H2501 0.950 . S
C2521 C2517 1.385 . S
C2521 C2520 1.374 . S
C2522 C2519 1.499 . S
C2522 C2523 1.373 . S
C2522 C2524 1.389 . S
C2523 H2502 0.950 . S
C2523 C2522 1.373 . S
C2523 C2539 1.377 . S
C2524 C2522 1.389 . S
C2524 C2525 1.524 . S
C2524 C2538 1.377 . S
C2525 C2524 1.524 . S
C2525 C2526 1.397 . S
C2525 C2530 1.363 . S
C2526 H2503 0.950 . S
C2526 C2525 1.397 . S
C2526 C2527 1.334 . S
C2527 H2504 0.950 . S
C2527 C2526 1.334 . S
C2527 C2528 1.287 . S
C2528 C2527 1.287 . S
C2528 C2529 1.524 . S
C2528 H2547 0.913 . S
C2529 H2505 0.950 . S
C2529 C2528 1.524 . S
C2529 C2530 1.415 . S
C2530 H2506 0.950 . S
C2530 C2525 1.363 . S
C2530 C2529 1.415 . S
C2531 H2507 0.951 . S
C2531 C2532 1.366 . S
C2531 C2533 1.388 . S
C2532 C2531 1.366 . S
C2532 C2536 1.385 . S
C2533 H2508 0.951 . S
C2533 C2531 1.388 . S
C2533 C2534 1.366 . S
C2534 C2533 1.366 . S
C2534 C2535 1.414 . S
C2534 C2537 1.499 . S
C2535 H2509 0.950 . S
C2535 C2534 1.414 . S
C2535 C2536 1.374 . S
C2536 H2510 0.950 . S
C2536 C2532 1.385 . S
C2536 C2535 1.374 . S
C2537 C2534 1.499 . S
C2537 C2538 1.373 . S
C2537 C2539 1.389 . S
C2538 H2511 0.950 . S
C2538 C2524 1.377 . S
C2538 C2537 1.373 . S
C2539 C2523 1.377 . S
C2539 C2537 1.389 . S
C2539 C2540 1.524 . S
C2540 C2539 1.524 . S
C2540 C2541 1.397 . S
C2540 C2545 1.363 . S
C2541 H2512 0.950 . S
C2541 C2540 1.397 . S
C2541 C2542 1.334 . S
C2542 H2513 0.950 . S
C2542 C2541 1.334 . S
C2542 C2543 1.287 . S
C2543 C2542 1.287 . S
C2543 C2544 1.524 . S
C2543 H2546 0.999 . S
C2544 H2514 0.950 . S
C2544 C2543 1.524 . S
C2544 C2545 1.415 . S
C2545 H2515 0.950 . S
C2545 C2540 1.363 . S
C2545 C2544 1.415 . S
H2546 C2543 0.999 . S
H2547 C2528 0.913 . S
H2548 C2566 0.951 . S
H2549 C2568 0.951 . S
H2550 C2570 0.950 . S
H2551 C2571 0.950 . S
H2552 C2573 0.950 . S
H2553 C2576 0.950 . S
H2554 C2577 0.950 . S
H2555 C2579 0.950 . S
H2556 C2580 0.950 . S
H2557 C2581 0.951 . S
H2558 C2583 0.951 . S
H2559 C2585 0.950 . S
H2560 C2586 0.950 . S
H2561 C2588 0.950 . S
H2562 C2591 0.950 . S
H2563 C2592 0.950 . S
H2564 C2594 0.950 . S
H2565 C2595 0.950 . S
C2566 H2548 0.951 . S
C2566 C2567 1.366 . S
C2566 C2568 1.388 . S
C2567 C2566 1.366 . S
C2567 C2571 1.385 . S
C2568 H2549 0.951 . S
C2568 C2566 1.388 . S
C2568 C2569 1.366 . S
C2569 C2568 1.366 . S
C2569 C2570 1.414 . S
C2569 C2572 1.499 . S
C2570 H2550 0.950 . S
C2570 C2569 1.414 . S
C2570 C2571 1.374 . S
C2571 H2551 0.950 . S
C2571 C2567 1.385 . S
C2571 C2570 1.374 . S
C2572 C2569 1.499 . S
C2572 C2573 1.373 . S
C2572 C2574 1.389 . S
C2573 H2552 0.950 . S
C2573 C2572 1.373 . S
C2573 C2589 1.377 . S
C2574 C2572 1.389 . S
C2574 C2575 1.524 . S
C2574 C2588 1.377 . S
C2575 C2574 1.524 . S
C2575 C2576 1.397 . S
C2575 C2580 1.363 . S
C2576 H2553 0.950 . S
C2576 C2575 1.397 . S
C2576 C2577 1.334 . S
C2577 H2554 0.950 . S
C2577 C2576 1.334 . S
C2577 C2578 1.287 . S
C2578 C2577 1.287 . S
C2578 C2579 1.524 . S
C2578 H2597 0.913 . S
C2579 H2555 0.950 . S
C2579 C2578 1.524 . S
C2579 C2580 1.415 . S
C2580 H2556 0.950 . S
C2580 C2575 1.363 . S
C2580 C2579 1.415 . S
C2581 H2557 0.951 . S
C2581 C2582 1.366 . S
C2581 C2583 1.388 . S
C2582 C2581 1.366 . S
C2582 C2586 1.385 . S
C2583 H2558 0.951 . S
C2583 C2581 1.388 . S
C2583 C2584 1.366 . S
C2584 C2583 1.366 . S
C2584 C2585 1.414 . S
C2584 C2587 1.499 . S
C2585 H2559 0.950 . S
C2585 C2584 1.414 . S
C2585 C2586 1.374 . S
C2586 H2560 0.950 . S
C2586 C2582 1.385 . S
C2586 C2585 1.374 . S
C2587 C2584 1.499 . S
C2587 C2588 1.373 . S
C2587 C2589 1.389 . S
C2588 H2561 0.950 . S
C2588 C2574 1.377 . S
C2588 C2587 1.373 . S
C2589 C2573 1.377 . S
C2589 C2587 1.389 . S
C2589 C2590 1.524 . S
C2590 C2589 1.524 . S
C2590 C2591 1.397 . S
C2590 C2595 1.363 . S
C2591 H2562 0.950 . S
C2591 C2590 1.397 . S
C2591 C2592 1.334 . S
C2592 H2563 0.950 . S
C2592 C2591 1.334 . S
C2592 C2593 1.287 . S
C2593 C2592 1.287 . S
C2593 C2594 1.524 . S
C2593 H2596 0.999 . S
C2594 H2564 0.950 . S
C2594 C2593 1.524 . S
C2594 C2595 1.415 . S
C2595 H2565 0.950 . S
C2595 C2590 1.363 . S
C2595 C2594 1.415 . S
H2596 C2593 0.999 . S
H2597 C2578 0.913 . S
H2598 C2616 0.951 . S
H2599 C2618 0.951 . S
H2600 C2620 0.950 . S
H2601 C2621 0.950 . S
H2602 C2623 0.950 . S
H2603 C2626 0.950 . S
H2604 C2627 0.950 . S
H2605 C2629 0.950 . S
H2606 C2630 0.950 . S
H2607 C2631 0.951 . S
H2608 C2633 0.951 . S
H2609 C2635 0.950 . S
H2610 C2636 0.950 . S
H2611 C2638 0.950 . S
H2612 C2641 0.950 . S
H2613 C2642 0.950 . S
H2614 C2644 0.950 . S
H2615 C2645 0.950 . S
C2616 H2598 0.951 . S
C2616 C2617 1.366 . S
C2616 C2618 1.388 . S
C2617 C2616 1.366 . S
C2617 C2621 1.385 . S
C2618 H2599 0.951 . S
C2618 C2616 1.388 . S
C2618 C2619 1.366 . S
C2619 C2618 1.366 . S
C2619 C2620 1.414 . S
C2619 C2622 1.499 . S
C2620 H2600 0.950 . S
C2620 C2619 1.414 . S
C2620 C2621 1.374 . S
C2621 H2601 0.950 . S
C2621 C2617 1.385 . S
C2621 C2620 1.374 . S
C2622 C2619 1.499 . S
C2622 C2623 1.373 . S
C2622 C2624 1.389 . S
C2623 H2602 0.950 . S
C2623 C2622 1.373 . S
C2623 C2639 1.377 . S
C2624 C2622 1.389 . S
C2624 C2625 1.524 . S
C2624 C2638 1.377 . S
C2625 C2624 1.524 . S
C2625 C2626 1.397 . S
C2625 C2630 1.363 . S
C2626 H2603 0.950 . S
C2626 C2625 1.397 . S
C2626 C2627 1.334 . S
C2627 H2604 0.950 . S
C2627 C2626 1.334 . S
C2627 C2628 1.287 . S
C2628 C2627 1.287 . S
C2628 C2629 1.524 . S
C2628 H2647 0.913 . S
C2629 H2605 0.950 . S
C2629 C2628 1.524 . S
C2629 C2630 1.415 . S
C2630 H2606 0.950 . S
C2630 C2625 1.363 . S
C2630 C2629 1.415 . S
C2631 H2607 0.951 . S
C2631 C2632 1.366 . S
C2631 C2633 1.388 . S
C2632 C2631 1.366 . S
C2632 C2636 1.385 . S
C2633 H2608 0.951 . S
C2633 C2631 1.388 . S
C2633 C2634 1.366 . S
C2634 C2633 1.366 . S
C2634 C2635 1.414 . S
C2634 C2637 1.499 . S
C2635 H2609 0.950 . S
C2635 C2634 1.414 . S
C2635 C2636 1.374 . S
C2636 H2610 0.950 . S
C2636 C2632 1.385 . S
C2636 C2635 1.374 . S
C2637 C2634 1.499 . S
C2637 C2638 1.373 . S
C2637 C2639 1.389 . S
C2638 H2611 0.950 . S
C2638 C2624 1.377 . S
C2638 C2637 1.373 . S
C2639 C2623 1.377 . S
C2639 C2637 1.389 . S
C2639 C2640 1.524 . S
C2640 C2639 1.524 . S
C2640 C2641 1.397 . S
C2640 C2645 1.363 . S
C2641 H2612 0.950 . S
C2641 C2640 1.397 . S
C2641 C2642 1.334 . S
C2642 H2613 0.950 . S
C2642 C2641 1.334 . S
C2642 C2643 1.287 . S
C2643 C2642 1.287 . S
C2643 C2644 1.524 . S
C2643 H2646 0.999 . S
C2644 H2614 0.950 . S
C2644 C2643 1.524 . S
C2644 C2645 1.415 . S
C2645 H2615 0.950 . S
C2645 C2640 1.363 . S
C2645 C2644 1.415 . S
H2646 C2643 0.999 . S
H2647 C2628 0.913 . S
H2648 C2666 0.951 . S
H2649 C2668 0.951 . S
H2650 C2670 0.950 . S
H2651 C2671 0.950 . S
H2652 C2673 0.950 . S
H2653 C2676 0.950 . S
H2654 C2677 0.950 . S
H2655 C2679 0.950 . S
H2656 C2680 0.950 . S
H2657 C2681 0.951 . S
H2658 C2683 0.951 . S
H2659 C2685 0.950 . S
H2660 C2686 0.950 . S
H2661 C2688 0.950 . S
H2662 C2691 0.950 . S
H2663 C2692 0.950 . S
H2664 C2694 0.950 . S
H2665 C2695 0.950 . S
C2666 H2648 0.951 . S
C2666 C2667 1.366 . S
C2666 C2668 1.388 . S
C2667 C2666 1.366 . S
C2667 C2671 1.385 . S
C2668 H2649 0.951 . S
C2668 C2666 1.388 . S
C2668 C2669 1.366 . S
C2669 C2668 1.366 . S
C2669 C2670 1.414 . S
C2669 C2672 1.499 . S
C2670 H2650 0.950 . S
C2670 C2669 1.414 . S
C2670 C2671 1.374 . S
C2671 H2651 0.950 . S
C2671 C2667 1.385 . S
C2671 C2670 1.374 . S
C2672 C2669 1.499 . S
C2672 C2673 1.373 . S
C2672 C2674 1.389 . S
C2673 H2652 0.950 . S
C2673 C2672 1.373 . S
C2673 C2689 1.377 . S
C2674 C2672 1.389 . S
C2674 C2675 1.524 . S
C2674 C2688 1.377 . S
C2675 C2674 1.524 . S
C2675 C2676 1.397 . S
C2675 C2680 1.363 . S
C2676 H2653 0.950 . S
C2676 C2675 1.397 . S
C2676 C2677 1.334 . S
C2677 H2654 0.950 . S
C2677 C2676 1.334 . S
C2677 C2678 1.287 . S
C2678 C2677 1.287 . S
C2678 C2679 1.524 . S
C2678 H2697 0.913 . S
C2679 H2655 0.950 . S
C2679 C2678 1.524 . S
C2679 C2680 1.415 . S
C2680 H2656 0.950 . S
C2680 C2675 1.363 . S
C2680 C2679 1.415 . S
C2681 H2657 0.951 . S
C2681 C2682 1.366 . S
C2681 C2683 1.388 . S
C2682 C2681 1.366 . S
C2682 C2686 1.385 . S
C2683 H2658 0.951 . S
C2683 C2681 1.388 . S
C2683 C2684 1.366 . S
C2684 C2683 1.366 . S
C2684 C2685 1.414 . S
C2684 C2687 1.499 . S
C2685 H2659 0.950 . S
C2685 C2684 1.414 . S
C2685 C2686 1.374 . S
C2686 H2660 0.950 . S
C2686 C2682 1.385 . S
C2686 C2685 1.374 . S
C2687 C2684 1.499 . S
C2687 C2688 1.373 . S
C2687 C2689 1.389 . S
C2688 H2661 0.950 . S
C2688 C2674 1.377 . S
C2688 C2687 1.373 . S
C2689 C2673 1.377 . S
C2689 C2687 1.389 . S
C2689 C2690 1.524 . S
C2690 C2689 1.524 . S
C2690 C2691 1.397 . S
C2690 C2695 1.363 . S
C2691 H2662 0.950 . S
C2691 C2690 1.397 . S
C2691 C2692 1.334 . S
C2692 H2663 0.950 . S
C2692 C2691 1.334 . S
C2692 C2693 1.287 . S
C2693 C2692 1.287 . S
C2693 C2694 1.524 . S
C2693 H2696 0.999 . S
C2694 H2664 0.950 . S
C2694 C2693 1.524 . S
C2694 C2695 1.415 . S
C2695 H2665 0.950 . S
C2695 C2690 1.363 . S
C2695 C2694 1.415 . S
H2696 C2693 0.999 . S
H2697 C2678 0.913 . S
H2698 C2716 0.951 . S
H2699 C2718 0.951 . S
H2700 C2720 0.950 . S
H2701 C2721 0.950 . S
H2702 C2723 0.950 . S
H2703 C2726 0.950 . S
H2704 C2727 0.950 . S
H2705 C2729 0.950 . S
H2706 C2730 0.950 . S
H2707 C2731 0.951 . S
H2708 C2733 0.951 . S
H2709 C2735 0.950 . S
H2710 C2736 0.950 . S
H2711 C2738 0.950 . S
H2712 C2741 0.950 . S
H2713 C2742 0.950 . S
H2714 C2744 0.950 . S
H2715 C2745 0.950 . S
C2716 H2698 0.951 . S
C2716 C2717 1.366 . S
C2716 C2718 1.388 . S
C2717 C2716 1.366 . S
C2717 C2721 1.385 . S
C2718 H2699 0.951 . S
C2718 C2716 1.388 . S
C2718 C2719 1.366 . S
C2719 C2718 1.366 . S
C2719 C2720 1.414 . S
C2719 C2722 1.499 . S
C2720 H2700 0.950 . S
C2720 C2719 1.414 . S
C2720 C2721 1.374 . S
C2721 H2701 0.950 . S
C2721 C2717 1.385 . S
C2721 C2720 1.374 . S
C2722 C2719 1.499 . S
C2722 C2723 1.373 . S
C2722 C2724 1.389 . S
C2723 H2702 0.950 . S
C2723 C2722 1.373 . S
C2723 C2739 1.377 . S
C2724 C2722 1.389 . S
C2724 C2725 1.524 . S
C2724 C2738 1.377 . S
C2725 C2724 1.524 . S
C2725 C2726 1.397 . S
C2725 C2730 1.363 . S
C2726 H2703 0.950 . S
C2726 C2725 1.397 . S
C2726 C2727 1.334 . S
C2727 H2704 0.950 . S
C2727 C2726 1.334 . S
C2727 C2728 1.287 . S
C2728 C2727 1.287 . S
C2728 C2729 1.524 . S
C2728 H2747 0.913 . S
C2729 H2705 0.950 . S
C2729 C2728 1.524 . S
C2729 C2730 1.415 . S
C2730 H2706 0.950 . S
C2730 C2725 1.363 . S
C2730 C2729 1.415 . S
C2731 H2707 0.951 . S
C2731 C2732 1.366 . S
C2731 C2733 1.388 . S
C2732 C2731 1.366 . S
C2732 C2736 1.385 . S
C2733 H2708 0.951 . S
C2733 C2731 1.388 . S
C2733 C2734 1.366 . S
C2734 C2733 1.366 . S
C2734 C2735 1.414 . S
C2734 C2737 1.499 . S
C2735 H2709 0.950 . S
C2735 C2734 1.414 . S
C2735 C2736 1.374 . S
C2736 H2710 0.950 . S
C2736 C2732 1.385 . S
C2736 C2735 1.374 . S
C2737 C2734 1.499 . S
C2737 C2738 1.373 . S
C2737 C2739 1.389 . S
C2738 H2711 0.950 . S
C2738 C2724 1.377 . S
C2738 C2737 1.373 . S
C2739 C2723 1.377 . S
C2739 C2737 1.389 . S
C2739 C2740 1.524 . S
C2740 C2739 1.524 . S
C2740 C2741 1.397 . S
C2740 C2745 1.363 . S
C2741 H2712 0.950 . S
C2741 C2740 1.397 . S
C2741 C2742 1.334 . S
C2742 H2713 0.950 . S
C2742 C2741 1.334 . S
C2742 C2743 1.287 . S
C2743 C2742 1.287 . S
C2743 C2744 1.524 . S
C2743 H2746 0.999 . S
C2744 H2714 0.950 . S
C2744 C2743 1.524 . S
C2744 C2745 1.415 . S
C2745 H2715 0.950 . S
C2745 C2740 1.363 . S
C2745 C2744 1.415 . S
H2746 C2743 0.999 . S
H2747 C2728 0.913 . S
H2748 C2766 0.951 . S
H2749 C2768 0.951 . S
H2750 C2770 0.950 . S
H2751 C2771 0.950 . S
H2752 C2773 0.950 . S
H2753 C2776 0.950 . S
H2754 C2777 0.950 . S
H2755 C2779 0.950 . S
H2756 C2780 0.950 . S
H2757 C2781 0.951 . S
H2758 C2783 0.951 . S
H2759 C2785 0.950 . S
H2760 C2786 0.950 . S
H2761 C2788 0.950 . S
H2762 C2791 0.950 . S
H2763 C2792 0.950 . S
H2764 C2794 0.950 . S
H2765 C2795 0.950 . S
C2766 H2748 0.951 . S
C2766 C2767 1.366 . S
C2766 C2768 1.388 . S
C2767 C2766 1.366 . S
C2767 C2771 1.385 . S
C2768 H2749 0.951 . S
C2768 C2766 1.388 . S
C2768 C2769 1.366 . S
C2769 C2768 1.366 . S
C2769 C2770 1.414 . S
C2769 C2772 1.499 . S
C2770 H2750 0.950 . S
C2770 C2769 1.414 . S
C2770 C2771 1.374 . S
C2771 H2751 0.950 . S
C2771 C2767 1.385 . S
C2771 C2770 1.374 . S
C2772 C2769 1.499 . S
C2772 C2773 1.373 . S
C2772 C2774 1.389 . S
C2773 H2752 0.950 . S
C2773 C2772 1.373 . S
C2773 C2789 1.377 . S
C2774 C2772 1.389 . S
C2774 C2775 1.524 . S
C2774 C2788 1.377 . S
C2775 C2774 1.524 . S
C2775 C2776 1.397 . S
C2775 C2780 1.363 . S
C2776 H2753 0.950 . S
C2776 C2775 1.397 . S
C2776 C2777 1.334 . S
C2777 H2754 0.950 . S
C2777 C2776 1.334 . S
C2777 C2778 1.287 . S
C2778 C2777 1.287 . S
C2778 C2779 1.524 . S
C2778 H2797 0.913 . S
C2779 H2755 0.950 . S
C2779 C2778 1.524 . S
C2779 C2780 1.415 . S
C2780 H2756 0.950 . S
C2780 C2775 1.363 . S
C2780 C2779 1.415 . S
C2781 H2757 0.951 . S
C2781 C2782 1.366 . S
C2781 C2783 1.388 . S
C2782 C2781 1.366 . S
C2782 C2786 1.385 . S
C2783 H2758 0.951 . S
C2783 C2781 1.388 . S
C2783 C2784 1.366 . S
C2784 C2783 1.366 . S
C2784 C2785 1.414 . S
C2784 C2787 1.499 . S
C2785 H2759 0.950 . S
C2785 C2784 1.414 . S
C2785 C2786 1.374 . S
C2786 H2760 0.950 . S
C2786 C2782 1.385 . S
C2786 C2785 1.374 . S
C2787 C2784 1.499 . S
C2787 C2788 1.373 . S
C2787 C2789 1.389 . S
C2788 H2761 0.950 . S
C2788 C2774 1.377 . S
C2788 C2787 1.373 . S
C2789 C2773 1.377 . S
C2789 C2787 1.389 . S
C2789 C2790 1.524 . S
C2790 C2789 1.524 . S
C2790 C2791 1.397 . S
C2790 C2795 1.363 . S
C2791 H2762 0.950 . S
C2791 C2790 1.397 . S
C2791 C2792 1.334 . S
C2792 H2763 0.950 . S
C2792 C2791 1.334 . S
C2792 C2793 1.287 . S
C2793 C2792 1.287 . S
C2793 C2794 1.524 . S
C2793 H2796 0.999 . S
C2794 H2764 0.950 . S
C2794 C2793 1.524 . S
C2794 C2795 1.415 . S
C2795 H2765 0.950 . S
C2795 C2790 1.363 . S
C2795 C2794 1.415 . S
H2796 C2793 0.999 . S
H2797 C2778 0.913 . S
H2798 C2816 0.951 . S
H2799 C2818 0.951 . S
H2800 C2820 0.950 . S
H2801 C2821 0.950 . S
H2802 C2823 0.950 . S
H2803 C2826 0.950 . S
H2804 C2827 0.950 . S
H2805 C2829 0.950 . S
H2806 C2830 0.950 . S
H2807 C2831 0.951 . S
H2808 C2833 0.951 . S
H2809 C2835 0.950 . S
H2810 C2836 0.950 . S
H2811 C2838 0.950 . S
H2812 C2841 0.950 . S
H2813 C2842 0.950 . S
H2814 C2844 0.950 . S
H2815 C2845 0.950 . S
C2816 H2798 0.951 . S
C2816 C2817 1.366 . S
C2816 C2818 1.388 . S
C2817 C2816 1.366 . S
C2817 C2821 1.385 . S
C2818 H2799 0.951 . S
C2818 C2816 1.388 . S
C2818 C2819 1.366 . S
C2819 C2818 1.366 . S
C2819 C2820 1.414 . S
C2819 C2822 1.499 . S
C2820 H2800 0.950 . S
C2820 C2819 1.414 . S
C2820 C2821 1.374 . S
C2821 H2801 0.950 . S
C2821 C2817 1.385 . S
C2821 C2820 1.374 . S
C2822 C2819 1.499 . S
C2822 C2823 1.373 . S
C2822 C2824 1.389 . S
C2823 H2802 0.950 . S
C2823 C2822 1.373 . S
C2823 C2839 1.377 . S
C2824 C2822 1.389 . S
C2824 C2825 1.524 . S
C2824 C2838 1.377 . S
C2825 C2824 1.524 . S
C2825 C2826 1.397 . S
C2825 C2830 1.363 . S
C2826 H2803 0.950 . S
C2826 C2825 1.397 . S
C2826 C2827 1.334 . S
C2827 H2804 0.950 . S
C2827 C2826 1.334 . S
C2827 C2828 1.287 . S
C2828 C2827 1.287 . S
C2828 C2829 1.524 . S
C2828 H2847 0.913 . S
C2829 H2805 0.950 . S
C2829 C2828 1.524 . S
C2829 C2830 1.415 . S
C2830 H2806 0.950 . S
C2830 C2825 1.363 . S
C2830 C2829 1.415 . S
C2831 H2807 0.951 . S
C2831 C2832 1.366 . S
C2831 C2833 1.388 . S
C2832 C2831 1.366 . S
C2832 C2836 1.385 . S
C2833 H2808 0.951 . S
C2833 C2831 1.388 . S
C2833 C2834 1.366 . S
C2834 C2833 1.366 . S
C2834 C2835 1.414 . S
C2834 C2837 1.499 . S
C2835 H2809 0.950 . S
C2835 C2834 1.414 . S
C2835 C2836 1.374 . S
C2836 H2810 0.950 . S
C2836 C2832 1.385 . S
C2836 C2835 1.374 . S
C2837 C2834 1.499 . S
C2837 C2838 1.373 . S
C2837 C2839 1.389 . S
C2838 H2811 0.950 . S
C2838 C2824 1.377 . S
C2838 C2837 1.373 . S
C2839 C2823 1.377 . S
C2839 C2837 1.389 . S
C2839 C2840 1.524 . S
C2840 C2839 1.524 . S
C2840 C2841 1.397 . S
C2840 C2845 1.363 . S
C2841 H2812 0.950 . S
C2841 C2840 1.397 . S
C2841 C2842 1.334 . S
C2842 H2813 0.950 . S
C2842 C2841 1.334 . S
C2842 C2843 1.287 . S
C2843 C2842 1.287 . S
C2843 C2844 1.524 . S
C2843 H2846 0.999 . S
C2844 H2814 0.950 . S
C2844 C2843 1.524 . S
C2844 C2845 1.415 . S
C2845 H2815 0.950 . S
C2845 C2840 1.363 . S
C2845 C2844 1.415 . S
H2846 C2843 0.999 . S
H2847 C2828 0.913 . S
H2848 C2866 0.951 . S
H2849 C2868 0.951 . S
H2850 C2870 0.950 . S
H2851 C2871 0.950 . S
H2852 C2873 0.950 . S
H2853 C2876 0.950 . S
H2854 C2877 0.950 . S
H2855 C2879 0.950 . S
H2856 C2880 0.950 . S
H2857 C2881 0.951 . S
H2858 C2883 0.951 . S
H2859 C2885 0.950 . S
H2860 C2886 0.950 . S
H2861 C2888 0.950 . S
H2862 C2891 0.950 . S
H2863 C2892 0.950 . S
H2864 C2894 0.950 . S
H2865 C2895 0.950 . S
C2866 H2848 0.951 . S
C2866 C2867 1.366 . S
C2866 C2868 1.388 . S
C2867 C2866 1.366 . S
C2867 C2871 1.385 . S
C2868 H2849 0.951 . S
C2868 C2866 1.388 . S
C2868 C2869 1.366 . S
C2869 C2868 1.366 . S
C2869 C2870 1.414 . S
C2869 C2872 1.499 . S
C2870 H2850 0.950 . S
C2870 C2869 1.414 . S
C2870 C2871 1.374 . S
C2871 H2851 0.950 . S
C2871 C2867 1.385 . S
C2871 C2870 1.374 . S
C2872 C2869 1.499 . S
C2872 C2873 1.373 . S
C2872 C2874 1.389 . S
C2873 H2852 0.950 . S
C2873 C2872 1.373 . S
C2873 C2889 1.377 . S
C2874 C2872 1.389 . S
C2874 C2875 1.524 . S
C2874 C2888 1.377 . S
C2875 C2874 1.524 . S
C2875 C2876 1.397 . S
C2875 C2880 1.363 . S
C2876 H2853 0.950 . S
C2876 C2875 1.397 . S
C2876 C2877 1.334 . S
C2877 H2854 0.950 . S
C2877 C2876 1.334 . S
C2877 C2878 1.287 . S
C2878 C2877 1.287 . S
C2878 C2879 1.524 . S
C2878 H2897 0.913 . S
C2879 H2855 0.950 . S
C2879 C2878 1.524 . S
C2879 C2880 1.415 . S
C2880 H2856 0.950 . S
C2880 C2875 1.363 . S
C2880 C2879 1.415 . S
C2881 H2857 0.951 . S
C2881 C2882 1.366 . S
C2881 C2883 1.388 . S
C2882 C2881 1.366 . S
C2882 C2886 1.385 . S
C2883 H2858 0.951 . S
C2883 C2881 1.388 . S
C2883 C2884 1.366 . S
C2884 C2883 1.366 . S
C2884 C2885 1.414 . S
C2884 C2887 1.499 . S
C2885 H2859 0.950 . S
C2885 C2884 1.414 . S
C2885 C2886 1.374 . S
C2886 H2860 0.950 . S
C2886 C2882 1.385 . S
C2886 C2885 1.374 . S
C2887 C2884 1.499 . S
C2887 C2888 1.373 . S
C2887 C2889 1.389 . S
C2888 H2861 0.950 . S
C2888 C2874 1.377 . S
C2888 C2887 1.373 . S
C2889 C2873 1.377 . S
C2889 C2887 1.389 . S
C2889 C2890 1.524 . S
C2890 C2889 1.524 . S
C2890 C2891 1.397 . S
C2890 C2895 1.363 . S
C2891 H2862 0.950 . S
C2891 C2890 1.397 . S
C2891 C2892 1.334 . S
C2892 H2863 0.950 . S
C2892 C2891 1.334 . S
C2892 C2893 1.287 . S
C2893 C2892 1.287 . S
C2893 C2894 1.524 . S
C2893 H2896 0.999 . S
C2894 H2864 0.950 . S
C2894 C2893 1.524 . S
C2894 C2895 1.415 . S
C2895 H2865 0.950 . S
C2895 C2890 1.363 . S
C2895 C2894 1.415 . S
H2896 C2893 0.999 . S
H2897 C2878 0.913 . S
H2898 C2916 0.951 . S
H2899 C2918 0.951 . S
H2900 C2920 0.950 . S
H2901 C2921 0.950 . S
H2902 C2923 0.950 . S
H2903 C2926 0.950 . S
H2904 C2927 0.950 . S
H2905 C2929 0.950 . S
H2906 C2930 0.950 . S
H2907 C2931 0.951 . S
H2908 C2933 0.951 . S
H2909 C2935 0.950 . S
H2910 C2936 0.950 . S
H2911 C2938 0.950 . S
H2912 C2941 0.950 . S
H2913 C2942 0.950 . S
H2914 C2944 0.950 . S
H2915 C2945 0.950 . S
C2916 H2898 0.951 . S
C2916 C2917 1.366 . S
C2916 C2918 1.388 . S
C2917 C2916 1.366 . S
C2917 C2921 1.385 . S
C2918 H2899 0.951 . S
C2918 C2916 1.388 . S
C2918 C2919 1.366 . S
C2919 C2918 1.366 . S
C2919 C2920 1.414 . S
C2919 C2922 1.499 . S
C2920 H2900 0.950 . S
C2920 C2919 1.414 . S
C2920 C2921 1.374 . S
C2921 H2901 0.950 . S
C2921 C2917 1.385 . S
C2921 C2920 1.374 . S
C2922 C2919 1.499 . S
C2922 C2923 1.373 . S
C2922 C2924 1.389 . S
C2923 H2902 0.950 . S
C2923 C2922 1.373 . S
C2923 C2939 1.377 . S
C2924 C2922 1.389 . S
C2924 C2925 1.524 . S
C2924 C2938 1.377 . S
C2925 C2924 1.524 . S
C2925 C2926 1.397 . S
C2925 C2930 1.363 . S
C2926 H2903 0.950 . S
C2926 C2925 1.397 . S
C2926 C2927 1.334 . S
C2927 H2904 0.950 . S
C2927 C2926 1.334 . S
C2927 C2928 1.287 . S
C2928 C2927 1.287 . S
C2928 C2929 1.524 . S
C2928 H2947 0.913 . S
C2929 H2905 0.950 . S
C2929 C2928 1.524 . S
C2929 C2930 1.415 . S
C2930 H2906 0.950 . S
C2930 C2925 1.363 . S
C2930 C2929 1.415 . S
C2931 H2907 0.951 . S
C2931 C2932 1.366 . S
C2931 C2933 1.388 . S
C2932 C2931 1.366 . S
C2932 C2936 1.385 . S
C2933 H2908 0.951 . S
C2933 C2931 1.388 . S
C2933 C2934 1.366 . S
C2934 C2933 1.366 . S
C2934 C2935 1.414 . S
C2934 C2937 1.499 . S
C2935 H2909 0.950 . S
C2935 C2934 1.414 . S
C2935 C2936 1.374 . S
C2936 H2910 0.950 . S
C2936 C2932 1.385 . S
C2936 C2935 1.374 . S
C2937 C2934 1.499 . S
C2937 C2938 1.373 . S
C2937 C2939 1.389 . S
C2938 H2911 0.950 . S
C2938 C2924 1.377 . S
C2938 C2937 1.373 . S
C2939 C2923 1.377 . S
C2939 C2937 1.389 . S
C2939 C2940 1.524 . S
C2940 C2939 1.524 . S
C2940 C2941 1.397 . S
C2940 C2945 1.363 . S
C2941 H2912 0.950 . S
C2941 C2940 1.397 . S
C2941 C2942 1.334 . S
C2942 H2913 0.950 . S
C2942 C2941 1.334 . S
C2942 C2943 1.287 . S
C2943 C2942 1.287 . S
C2943 C2944 1.524 . S
C2943 H2946 0.999 . S
C2944 H2914 0.950 . S
C2944 C2943 1.524 . S
C2944 C2945 1.415 . S
C2945 H2915 0.950 . S
C2945 C2940 1.363 . S
C2945 C2944 1.415 . S
H2946 C2943 0.999 . S
H2947 C2928 0.913 . S
H2948 C2966 0.951 . S
H2949 C2968 0.951 . S
H2950 C2970 0.950 . S
H2951 C2971 0.950 . S
H2952 C2973 0.950 . S
H2953 C2976 0.950 . S
H2954 C2977 0.950 . S
H2955 C2979 0.950 . S
H2956 C2980 0.950 . S
H2957 C2981 0.951 . S
H2958 C2983 0.951 . S
H2959 C2985 0.950 . S
H2960 C2986 0.950 . S
H2961 C2988 0.950 . S
H2962 C2991 0.950 . S
H2963 C2992 0.950 . S
H2964 C2994 0.950 . S
H2965 C2995 0.950 . S
C2966 H2948 0.951 . S
C2966 C2967 1.366 . S
C2966 C2968 1.388 . S
C2967 C2966 1.366 . S
C2967 C2971 1.385 . S
C2968 H2949 0.951 . S
C2968 C2966 1.388 . S
C2968 C2969 1.366 . S
C2969 C2968 1.366 . S
C2969 C2970 1.414 . S
C2969 C2972 1.499 . S
C2970 H2950 0.950 . S
C2970 C2969 1.414 . S
C2970 C2971 1.374 . S
C2971 H2951 0.950 . S
C2971 C2967 1.385 . S
C2971 C2970 1.374 . S
C2972 C2969 1.499 . S
C2972 C2973 1.373 . S
C2972 C2974 1.389 . S
C2973 H2952 0.950 . S
C2973 C2972 1.373 . S
C2973 C2989 1.377 . S
C2974 C2972 1.389 . S
C2974 C2975 1.524 . S
C2974 C2988 1.377 . S
C2975 C2974 1.524 . S
C2975 C2976 1.397 . S
C2975 C2980 1.363 . S
C2976 H2953 0.950 . S
C2976 C2975 1.397 . S
C2976 C2977 1.334 . S
C2977 H2954 0.950 . S
C2977 C2976 1.334 . S
C2977 C2978 1.287 . S
C2978 C2977 1.287 . S
C2978 C2979 1.524 . S
C2978 H2997 0.913 . S
C2979 H2955 0.950 . S
C2979 C2978 1.524 . S
C2979 C2980 1.415 . S
C2980 H2956 0.950 . S
C2980 C2975 1.363 . S
C2980 C2979 1.415 . S
C2981 H2957 0.951 . S
C2981 C2982 1.366 . S
C2981 C2983 1.388 . S
C2982 C2981 1.366 . S
C2982 C2986 1.385 . S
C2983 H2958 0.951 . S
C2983 C2981 1.388 . S
C2983 C2984 1.366 . S
C2984 C2983 1.366 . S
C2984 C2985 1.414 . S
C2984 C2987 1.499 . S
C2985 H2959 0.950 . S
C2985 C2984 1.414 . S
C2985 C2986 1.374 . S
C2986 H2960 0.950 . S
C2986 C2982 1.385 . S
C2986 C2985 1.374 . S
C2987 C2984 1.499 . S
C2987 C2988 1.373 . S
C2987 C2989 1.389 . S
C2988 H2961 0.950 . S
C2988 C2974 1.377 . S
C2988 C2987 1.373 . S
C2989 C2973 1.377 . S
C2989 C2987 1.389 . S
C2989 C2990 1.524 . S
C2990 C2989 1.524 . S
C2990 C2991 1.397 . S
C2990 C2995 1.363 . S
C2991 H2962 0.950 . S
C2991 C2990 1.397 . S
C2991 C2992 1.334 . S
C2992 H2963 0.950 . S
C2992 C2991 1.334 . S
C2992 C2993 1.287 . S
C2993 C2992 1.287 . S
C2993 C2994 1.524 . S
C2993 H2996 0.999 . S
C2994 H2964 0.950 . S
C2994 C2993 1.524 . S
C2994 C2995 1.415 . S
C2995 H2965 0.950 . S
C2995 C2990 1.363 . S
C2995 C2994 1.415 . S
H2996 C2993 0.999 . S
H2997 C2978 0.913 . S
H2998 C3016 0.951 . S
H2999 C3018 0.951 . S
H3000 C3020 0.950 . S
H3001 C3021 0.950 . S
H3002 C3023 0.950 . S
H3003 C3026 0.950 . S
H3004 C3027 0.950 . S
H3005 C3029 0.950 . S
H3006 C3030 0.950 . S
H3007 C3031 0.951 . S
H3008 C3033 0.951 . S
H3009 C3035 0.950 . S
H3010 C3036 0.950 . S
H3011 C3038 0.950 . S
H3012 C3041 0.950 . S
H3013 C3042 0.950 . S
H3014 C3044 0.950 . S
H3015 C3045 0.950 . S
C3016 H2998 0.951 . S
C3016 C3017 1.366 . S
C3016 C3018 1.388 . S
C3017 C3016 1.366 . S
C3017 C3021 1.385 . S
C3018 H2999 0.951 . S
C3018 C3016 1.388 . S
C3018 C3019 1.366 . S
C3019 C3018 1.366 . S
C3019 C3020 1.414 . S
C3019 C3022 1.499 . S
C3020 H3000 0.950 . S
C3020 C3019 1.414 . S
C3020 C3021 1.374 . S
C3021 H3001 0.950 . S
C3021 C3017 1.385 . S
C3021 C3020 1.374 . S
C3022 C3019 1.499 . S
C3022 C3023 1.373 . S
C3022 C3024 1.389 . S
C3023 H3002 0.950 . S
C3023 C3022 1.373 . S
C3023 C3039 1.377 . S
C3024 C3022 1.389 . S
C3024 C3025 1.524 . S
C3024 C3038 1.377 . S
C3025 C3024 1.524 . S
C3025 C3026 1.397 . S
C3025 C3030 1.363 . S
C3026 H3003 0.950 . S
C3026 C3025 1.397 . S
C3026 C3027 1.334 . S
C3027 H3004 0.950 . S
C3027 C3026 1.334 . S
C3027 C3028 1.287 . S
C3028 C3027 1.287 . S
C3028 C3029 1.524 . S
C3028 H3047 0.913 . S
C3029 H3005 0.950 . S
C3029 C3028 1.524 . S
C3029 C3030 1.415 . S
C3030 H3006 0.950 . S
C3030 C3025 1.363 . S
C3030 C3029 1.415 . S
C3031 H3007 0.951 . S
C3031 C3032 1.366 . S
C3031 C3033 1.388 . S
C3032 C3031 1.366 . S
C3032 C3036 1.385 . S
C3033 H3008 0.951 . S
C3033 C3031 1.388 . S
C3033 C3034 1.366 . S
C3034 C3033 1.366 . S
C3034 C3035 1.414 . S
C3034 C3037 1.499 . S
C3035 H3009 0.950 . S
C3035 C3034 1.414 . S
C3035 C3036 1.374 . S
C3036 H3010 0.950 . S
C3036 C3032 1.385 . S
C3036 C3035 1.374 . S
C3037 C3034 1.499 . S
C3037 C3038 1.373 . S
C3037 C3039 1.389 . S
C3038 H3011 0.950 . S
C3038 C3024 1.377 . S
C3038 C3037 1.373 . S
C3039 C3023 1.377 . S
C3039 C3037 1.389 . S
C3039 C3040 1.524 . S
C3040 C3039 1.524 . S
C3040 C3041 1.397 . S
C3040 C3045 1.363 . S
C3041 H3012 0.950 . S
C3041 C3040 1.397 . S
C3041 C3042 1.334 . S
C3042 H3013 0.950 . S
C3042 C3041 1.334 . S
C3042 C3043 1.287 . S
C3043 C3042 1.287 . S
C3043 C3044 1.524 . S
C3043 H3046 0.999 . S
C3044 H3014 0.950 . S
C3044 C3043 1.524 . S
C3044 C3045 1.415 . S
C3045 H3015 0.950 . S
C3045 C3040 1.363 . S
C3045 C3044 1.415 . S
H3046 C3043 0.999 . S
H3047 C3028 0.913 . S
H3048 C3066 0.951 . S
H3049 C3068 0.951 . S
H3050 C3070 0.950 . S
H3051 C3071 0.950 . S
H3052 C3073 0.950 . S
H3053 C3076 0.950 . S
H3054 C3077 0.950 . S
H3055 C3079 0.950 . S
H3056 C3080 0.950 . S
H3057 C3081 0.951 . S
H3058 C3083 0.951 . S
H3059 C3085 0.950 . S
H3060 C3086 0.950 . S
H3061 C3088 0.950 . S
H3062 C3091 0.950 . S
H3063 C3092 0.950 . S
H3064 C3094 0.950 . S
H3065 C3095 0.950 . S
C3066 H3048 0.951 . S
C3066 C3067 1.366 . S
C3066 C3068 1.388 . S
C3067 C3066 1.366 . S
C3067 C3071 1.385 . S
C3068 H3049 0.951 . S
C3068 C3066 1.388 . S
C3068 C3069 1.366 . S
C3069 C3068 1.366 . S
C3069 C3070 1.414 . S
C3069 C3072 1.499 . S
C3070 H3050 0.950 . S
C3070 C3069 1.414 . S
C3070 C3071 1.374 . S
C3071 H3051 0.950 . S
C3071 C3067 1.385 . S
C3071 C3070 1.374 . S
C3072 C3069 1.499 . S
C3072 C3073 1.373 . S
C3072 C3074 1.389 . S
C3073 H3052 0.950 . S
C3073 C3072 1.373 . S
C3073 C3089 1.377 . S
C3074 C3072 1.389 . S
C3074 C3075 1.524 . S
C3074 C3088 1.377 . S
C3075 C3074 1.524 . S
C3075 C3076 1.397 . S
C3075 C3080 1.363 . S
C3076 H3053 0.950 . S
C3076 C3075 1.397 . S
C3076 C3077 1.334 . S
C3077 H3054 0.950 . S
C3077 C3076 1.334 . S
C3077 C3078 1.287 . S
C3078 C3077 1.287 . S
C3078 C3079 1.524 . S
C3078 H3097 0.913 . S
C3079 H3055 0.950 . S
C3079 C3078 1.524 . S
C3079 C3080 1.415 . S
C3080 H3056 0.950 . S
C3080 C3075 1.363 . S
C3080 C3079 1.415 . S
C3081 H3057 0.951 . S
C3081 C3082 1.366 . S
C3081 C3083 1.388 . S
C3082 C3081 1.366 . S
C3082 C3086 1.385 . S
C3083 H3058 0.951 . S
C3083 C3081 1.388 . S
C3083 C3084 1.366 . S
C3084 C3083 1.366 . S
C3084 C3085 1.414 . S
C3084 C3087 1.499 . S
C3085 H3059 0.950 . S
C3085 C3084 1.414 . S
C3085 C3086 1.374 . S
C3086 H3060 0.950 . S
C3086 C3082 1.385 . S
C3086 C3085 1.374 . S
C3087 C3084 1.499 . S
C3087 C3088 1.373 . S
C3087 C3089 1.389 . S
C3088 H3061 0.950 . S
C3088 C3074 1.377 . S
C3088 C3087 1.373 . S
C3089 C3073 1.377 . S
C3089 C3087 1.389 . S
C3089 C3090 1.524 . S
C3090 C3089 1.524 . S
C3090 C3091 1.397 . S
C3090 C3095 1.363 . S
C3091 H3062 0.950 . S
C3091 C3090 1.397 . S
C3091 C3092 1.334 . S
C3092 H3063 0.950 . S
C3092 C3091 1.334 . S
C3092 C3093 1.287 . S
C3093 C3092 1.287 . S
C3093 C3094 1.524 . S
C3093 H3096 0.999 . S
C3094 H3064 0.950 . S
C3094 C3093 1.524 . S
C3094 C3095 1.415 . S
C3095 H3065 0.950 . S
C3095 C3090 1.363 . S
C3095 C3094 1.415 . S
H3096 C3093 0.999 . S
H3097 C3078 0.913 . S
H3098 C3116 0.951 . S
H3099 C3118 0.951 . S
H3100 C3120 0.950 . S
H3101 C3121 0.950 . S
H3102 C3123 0.950 . S
H3103 C3126 0.950 . S
H3104 C3127 0.950 . S
H3105 C3129 0.950 . S
H3106 C3130 0.950 . S
H3107 C3131 0.951 . S
H3108 C3133 0.951 . S
H3109 C3135 0.950 . S
H3110 C3136 0.950 . S
H3111 C3138 0.950 . S
H3112 C3141 0.950 . S
H3113 C3142 0.950 . S
H3114 C3144 0.950 . S
H3115 C3145 0.950 . S
C3116 H3098 0.951 . S
C3116 C3117 1.366 . S
C3116 C3118 1.388 . S
C3117 C3116 1.366 . S
C3117 C3121 1.385 . S
C3118 H3099 0.951 . S
C3118 C3116 1.388 . S
C3118 C3119 1.366 . S
C3119 C3118 1.366 . S
C3119 C3120 1.414 . S
C3119 C3122 1.499 . S
C3120 H3100 0.950 . S
C3120 C3119 1.414 . S
C3120 C3121 1.374 . S
C3121 H3101 0.950 . S
C3121 C3117 1.385 . S
C3121 C3120 1.374 . S
C3122 C3119 1.499 . S
C3122 C3123 1.373 . S
C3122 C3124 1.389 . S
C3123 H3102 0.950 . S
C3123 C3122 1.373 . S
C3123 C3139 1.377 . S
C3124 C3122 1.389 . S
C3124 C3125 1.524 . S
C3124 C3138 1.377 . S
C3125 C3124 1.524 . S
C3125 C3126 1.397 . S
C3125 C3130 1.363 . S
C3126 H3103 0.950 . S
C3126 C3125 1.397 . S
C3126 C3127 1.334 . S
C3127 H3104 0.950 . S
C3127 C3126 1.334 . S
C3127 C3128 1.287 . S
C3128 C3127 1.287 . S
C3128 C3129 1.524 . S
C3128 H3147 0.913 . S
C3129 H3105 0.950 . S
C3129 C3128 1.524 . S
C3129 C3130 1.415 . S
C3130 H3106 0.950 . S
C3130 C3125 1.363 . S
C3130 C3129 1.415 . S
C3131 H3107 0.951 . S
C3131 C3132 1.366 . S
C3131 C3133 1.388 . S
C3132 C3131 1.366 . S
C3132 C3136 1.385 . S
C3133 H3108 0.951 . S
C3133 C3131 1.388 . S
C3133 C3134 1.366 . S
C3134 C3133 1.366 . S
C3134 C3135 1.414 . S
C3134 C3137 1.499 . S
C3135 H3109 0.950 . S
C3135 C3134 1.414 . S
C3135 C3136 1.374 . S
C3136 H3110 0.950 . S
C3136 C3132 1.385 . S
C3136 C3135 1.374 . S
C3137 C3134 1.499 . S
C3137 C3138 1.373 . S
C3137 C3139 1.389 . S
C3138 H3111 0.950 . S
C3138 C3124 1.377 . S
C3138 C3137 1.373 . S
C3139 C3123 1.377 . S
C3139 C3137 1.389 . S
C3139 C3140 1.524 . S
C3140 C3139 1.524 . S
C3140 C3141 1.397 . S
C3140 C3145 1.363 . S
C3141 H3112 0.950 . S
C3141 C3140 1.397 . S
C3141 C3142 1.334 . S
C3142 H3113 0.950 . S
C3142 C3141 1.334 . S
C3142 C3143 1.287 . S
C3143 C3142 1.287 . S
C3143 C3144 1.524 . S
C3143 H3146 0.999 . S
C3144 H3114 0.950 . S
C3144 C3143 1.524 . S
C3144 C3145 1.415 . S
C3145 H3115 0.950 . S
C3145 C3140 1.363 . S
C3145 C3144 1.415 . S
H3146 C3143 0.999 . S
H3147 C3128 0.913 . S
H3148 C3166 0.951 . S
H3149 C3168 0.951 . S
H3150 C3170 0.950 . S
H3151 C3171 0.950 . S
H3152 C3173 0.950 . S
H3153 C3176 0.950 . S
H3154 C3177 0.950 . S
H3155 C3179 0.950 . S
H3156 C3180 0.950 . S
H3157 C3181 0.951 . S
H3158 C3183 0.951 . S
H3159 C3185 0.950 . S
H3160 C3186 0.950 . S
H3161 C3188 0.950 . S
H3162 C3191 0.950 . S
H3163 C3192 0.950 . S
H3164 C3194 0.950 . S
H3165 C3195 0.950 . S
C3166 H3148 0.951 . S
C3166 C3167 1.366 . S
C3166 C3168 1.388 . S
C3167 C3166 1.366 . S
C3167 C3171 1.385 . S
C3168 H3149 0.951 . S
C3168 C3166 1.388 . S
C3168 C3169 1.366 . S
C3169 C3168 1.366 . S
C3169 C3170 1.414 . S
C3169 C3172 1.499 . S
C3170 H3150 0.950 . S
C3170 C3169 1.414 . S
C3170 C3171 1.374 . S
C3171 H3151 0.950 . S
C3171 C3167 1.385 . S
C3171 C3170 1.374 . S
C3172 C3169 1.499 . S
C3172 C3173 1.373 . S
C3172 C3174 1.389 . S
C3173 H3152 0.950 . S
C3173 C3172 1.373 . S
C3173 C3189 1.377 . S
C3174 C3172 1.389 . S
C3174 C3175 1.524 . S
C3174 C3188 1.377 . S
C3175 C3174 1.524 . S
C3175 C3176 1.397 . S
C3175 C3180 1.363 . S
C3176 H3153 0.950 . S
C3176 C3175 1.397 . S
C3176 C3177 1.334 . S
C3177 H3154 0.950 . S
C3177 C3176 1.334 . S
C3177 C3178 1.287 . S
C3178 C3177 1.287 . S
C3178 C3179 1.524 . S
C3178 H3197 0.913 . S
C3179 H3155 0.950 . S
C3179 C3178 1.524 . S
C3179 C3180 1.415 . S
C3180 H3156 0.950 . S
C3180 C3175 1.363 . S
C3180 C3179 1.415 . S
C3181 H3157 0.951 . S
C3181 C3182 1.366 . S
C3181 C3183 1.388 . S
C3182 C3181 1.366 . S
C3182 C3186 1.385 . S
C3183 H3158 0.951 . S
C3183 C3181 1.388 . S
C3183 C3184 1.366 . S
C3184 C3183 1.366 . S
C3184 C3185 1.414 . S
C3184 C3187 1.499 . S
C3185 H3159 0.950 . S
C3185 C3184 1.414 . S
C3185 C3186 1.374 . S
C3186 H3160 0.950 . S
C3186 C3182 1.385 . S
C3186 C3185 1.374 . S
C3187 C3184 1.499 . S
C3187 C3188 1.373 . S
C3187 C3189 1.389 . S
C3188 H3161 0.950 . S
C3188 C3174 1.377 . S
C3188 C3187 1.373 . S
C3189 C3173 1.377 . S
C3189 C3187 1.389 . S
C3189 C3190 1.524 . S
C3190 C3189 1.524 . S
C3190 C3191 1.397 . S
C3190 C3195 1.363 . S
C3191 H3162 0.950 . S
C3191 C3190 1.397 . S
C3191 C3192 1.334 . S
C3192 H3163 0.950 . S
C3192 C3191 1.334 . S
C3192 C3193 1.287 . S
C3193 C3192 1.287 . S
C3193 C3194 1.524 . S
C3193 H3196 0.999 . S
C3194 H3164 0.950 . S
C3194 C3193 1.524 . S
C3194 C3195 1.415 . S
C3195 H3165 0.950 . S
C3195 C3190 1.363 . S
C3195 C3194 1.415 . S
H3196 C3193 0.999 . S
H3197 C3178 0.913 . S
H3198 C3216 0.951 . S
H3199 C3218 0.951 . S
H3200 C3220 0.950 . S
H3201 C3221 0.950 . S
H3202 C3223 0.950 . S
H3203 C3226 0.950 . S
H3204 C3227 0.950 . S
H3205 C3229 0.950 . S
H3206 C3230 0.950 . S
H3207 C3231 0.951 . S
H3208 C3233 0.951 . S
H3209 C3235 0.950 . S
H3210 C3236 0.950 . S
H3211 C3238 0.950 . S
H3212 C3241 0.950 . S
H3213 C3242 0.950 . S
H3214 C3244 0.950 . S
H3215 C3245 0.950 . S
C3216 H3198 0.951 . S
C3216 C3217 1.366 . S
C3216 C3218 1.388 . S
C3217 C3216 1.366 . S
C3217 C3221 1.385 . S
C3218 H3199 0.951 . S
C3218 C3216 1.388 . S
C3218 C3219 1.366 . S
C3219 C3218 1.366 . S
C3219 C3220 1.414 . S
C3219 C3222 1.499 . S
C3220 H3200 0.950 . S
C3220 C3219 1.414 . S
C3220 C3221 1.374 . S
C3221 H3201 0.950 . S
C3221 C3217 1.385 . S
C3221 C3220 1.374 . S
C3222 C3219 1.499 . S
C3222 C3223 1.373 . S
C3222 C3224 1.389 . S
C3223 H3202 0.950 . S
C3223 C3222 1.373 . S
C3223 C3239 1.377 . S
C3224 C3222 1.389 . S
C3224 C3225 1.524 . S
C3224 C3238 1.377 . S
C3225 C3224 1.524 . S
C3225 C3226 1.397 . S
C3225 C3230 1.363 . S
C3226 H3203 0.950 . S
C3226 C3225 1.397 . S
C3226 C3227 1.334 . S
C3227 H3204 0.950 . S
C3227 C3226 1.334 . S
C3227 C3228 1.287 . S
C3228 C3227 1.287 . S
C3228 C3229 1.524 . S
C3228 H3247 0.913 . S
C3229 H3205 0.950 . S
C3229 C3228 1.524 . S
C3229 C3230 1.415 . S
C3230 H3206 0.950 . S
C3230 C3225 1.363 . S
C3230 C3229 1.415 . S
C3231 H3207 0.951 . S
C3231 C3232 1.366 . S
C3231 C3233 1.388 . S
C3232 C3231 1.366 . S
C3232 C3236 1.385 . S
C3233 H3208 0.951 . S
C3233 C3231 1.388 . S
C3233 C3234 1.366 . S
C3234 C3233 1.366 . S
C3234 C3235 1.414 . S
C3234 C3237 1.499 . S
C3235 H3209 0.950 . S
C3235 C3234 1.414 . S
C3235 C3236 1.374 . S
C3236 H3210 0.950 . S
C3236 C3232 1.385 . S
C3236 C3235 1.374 . S
C3237 C3234 1.499 . S
C3237 C3238 1.373 . S
C3237 C3239 1.389 . S
C3238 H3211 0.950 . S
C3238 C3224 1.377 . S
C3238 C3237 1.373 . S
C3239 C3223 1.377 . S
C3239 C3237 1.389 . S
C3239 C3240 1.524 . S
C3240 C3239 1.524 . S
C3240 C3241 1.397 . S
C3240 C3245 1.363 . S
C3241 H3212 0.950 . S
C3241 C3240 1.397 . S
C3241 C3242 1.334 . S
C3242 H3213 0.950 . S
C3242 C3241 1.334 . S
C3242 C3243 1.287 . S
C3243 C3242 1.287 . S
C3243 C3244 1.524 . S
C3243 H3246 0.999 . S
C3244 H3214 0.950 . S
C3244 C3243 1.524 . S
C3244 C3245 1.415 . S
C3245 H3215 0.950 . S
C3245 C3240 1.363 . S
C3245 C3244 1.415 . S
H3246 C3243 0.999 . S
H3247 C3228 0.913 . S
H3248 C3266 0.951 . S
H3249 C3268 0.951 . S
H3250 C3270 0.950 . S
H3251 C3271 0.950 . S
H3252 C3273 0.950 . S
H3253 C3276 0.950 . S
H3254 C3277 0.950 . S
H3255 C3279 0.950 . S
H3256 C3280 0.950 . S
H3257 C3281 0.951 . S
H3258 C3283 0.951 . S
H3259 C3285 0.950 . S
H3260 C3286 0.950 . S
H3261 C3288 0.950 . S
H3262 C3291 0.950 . S
H3263 C3292 0.950 . S
H3264 C3294 0.950 . S
H3265 C3295 0.950 . S
C3266 H3248 0.951 . S
C3266 C3267 1.366 . S
C3266 C3268 1.388 . S
C3267 C3266 1.366 . S
C3267 C3271 1.385 . S
C3268 H3249 0.951 . S
C3268 C3266 1.388 . S
C3268 C3269 1.366 . S
C3269 C3268 1.366 . S
C3269 C3270 1.414 . S
C3269 C3272 1.499 . S
C3270 H3250 0.950 . S
C3270 C3269 1.414 . S
C3270 C3271 1.374 . S
C3271 H3251 0.950 . S
C3271 C3267 1.385 . S
C3271 C3270 1.374 . S
C3272 C3269 1.499 . S
C3272 C3273 1.373 . S
C3272 C3274 1.389 . S
C3273 H3252 0.950 . S
C3273 C3272 1.373 . S
C3273 C3289 1.377 . S
C3274 C3272 1.389 . S
C3274 C3275 1.524 . S
C3274 C3288 1.377 . S
C3275 C3274 1.524 . S
C3275 C3276 1.397 . S
C3275 C3280 1.363 . S
C3276 H3253 0.950 . S
C3276 C3275 1.397 . S
C3276 C3277 1.334 . S
C3277 H3254 0.950 . S
C3277 C3276 1.334 . S
C3277 C3278 1.287 . S
C3278 C3277 1.287 . S
C3278 C3279 1.524 . S
C3278 H3297 0.913 . S
C3279 H3255 0.950 . S
C3279 C3278 1.524 . S
C3279 C3280 1.415 . S
C3280 H3256 0.950 . S
C3280 C3275 1.363 . S
C3280 C3279 1.415 . S
C3281 H3257 0.951 . S
C3281 C3282 1.366 . S
C3281 C3283 1.388 . S
C3282 C3281 1.366 . S
C3282 C3286 1.385 . S
C3283 H3258 0.951 . S
C3283 C3281 1.388 . S
C3283 C3284 1.366 . S
C3284 C3283 1.366 . S
C3284 C3285 1.414 . S
C3284 C3287 1.499 . S
C3285 H3259 0.950 . S
C3285 C3284 1.414 . S
C3285 C3286 1.374 . S
C3286 H3260 0.950 . S
C3286 C3282 1.385 . S
C3286 C3285 1.374 . S
C3287 C3284 1.499 . S
C3287 C3288 1.373 . S
C3287 C3289 1.389 . S
C3288 H3261 0.950 . S
C3288 C3274 1.377 . S
C3288 C3287 1.373 . S
C3289 C3273 1.377 . S
C3289 C3287 1.389 . S
C3289 C3290 1.524 . S
C3290 C3289 1.524 . S
C3290 C3291 1.397 . S
C3290 C3295 1.363 . S
C3291 H3262 0.950 . S
C3291 C3290 1.397 . S
C3291 C3292 1.334 . S
C3292 H3263 0.950 . S
C3292 C3291 1.334 . S
C3292 C3293 1.287 . S
C3293 C3292 1.287 . S
C3293 C3294 1.524 . S
C3293 H3296 0.999 . S
C3294 H3264 0.950 . S
C3294 C3293 1.524 . S
C3294 C3295 1.415 . S
C3295 H3265 0.950 . S
C3295 C3290 1.363 . S
C3295 C3294 1.415 . S
H3296 C3293 0.999 . S
H3297 C3278 0.913 . S
H3298 C3316 0.951 . S
H3299 C3318 0.951 . S
H3300 C3320 0.950 . S
H3301 C3321 0.950 . S
H3302 C3323 0.950 . S
H3303 C3326 0.950 . S
H3304 C3327 0.950 . S
H3305 C3329 0.950 . S
H3306 C3330 0.950 . S
H3307 C3331 0.951 . S
H3308 C3333 0.951 . S
H3309 C3335 0.950 . S
H3310 C3336 0.950 . S
H3311 C3338 0.950 . S
H3312 C3341 0.950 . S
H3313 C3342 0.950 . S
H3314 C3344 0.950 . S
H3315 C3345 0.950 . S
C3316 H3298 0.951 . S
C3316 C3317 1.366 . S
C3316 C3318 1.388 . S
C3317 C3316 1.366 . S
C3317 C3321 1.385 . S
C3318 H3299 0.951 . S
C3318 C3316 1.388 . S
C3318 C3319 1.366 . S
C3319 C3318 1.366 . S
C3319 C3320 1.414 . S
C3319 C3322 1.499 . S
C3320 H3300 0.950 . S
C3320 C3319 1.414 . S
C3320 C3321 1.374 . S
C3321 H3301 0.950 . S
C3321 C3317 1.385 . S
C3321 C3320 1.374 . S
C3322 C3319 1.499 . S
C3322 C3323 1.373 . S
C3322 C3324 1.389 . S
C3323 H3302 0.950 . S
C3323 C3322 1.373 . S
C3323 C3339 1.377 . S
C3324 C3322 1.389 . S
C3324 C3325 1.524 . S
C3324 C3338 1.377 . S
C3325 C3324 1.524 . S
C3325 C3326 1.397 . S
C3325 C3330 1.363 . S
C3326 H3303 0.950 . S
C3326 C3325 1.397 . S
C3326 C3327 1.334 . S
C3327 H3304 0.950 . S
C3327 C3326 1.334 . S
C3327 C3328 1.287 . S
C3328 C3327 1.287 . S
C3328 C3329 1.524 . S
C3328 H3347 0.913 . S
C3329 H3305 0.950 . S
C3329 C3328 1.524 . S
C3329 C3330 1.415 . S
C3330 H3306 0.950 . S
C3330 C3325 1.363 . S
C3330 C3329 1.415 . S
C3331 H3307 0.951 . S
C3331 C3332 1.366 . S
C3331 C3333 1.388 . S
C3332 C3331 1.366 . S
C3332 C3336 1.385 . S
C3333 H3308 0.951 . S
C3333 C3331 1.388 . S
C3333 C3334 1.366 . S
C3334 C3333 1.366 . S
C3334 C3335 1.414 . S
C3334 C3337 1.499 . S
C3335 H3309 0.950 . S
C3335 C3334 1.414 . S
C3335 C3336 1.374 . S
C3336 H3310 0.950 . S
C3336 C3332 1.385 . S
C3336 C3335 1.374 . S
C3337 C3334 1.499 . S
C3337 C3338 1.373 . S
C3337 C3339 1.389 . S
C3338 H3311 0.950 . S
C3338 C3324 1.377 . S
C3338 C3337 1.373 . S
C3339 C3323 1.377 . S
C3339 C3337 1.389 . S
C3339 C3340 1.524 . S
C3340 C3339 1.524 . S
C3340 C3341 1.397 . S
C3340 C3345 1.363 . S
C3341 H3312 0.950 . S
C3341 C3340 1.397 . S
C3341 C3342 1.334 . S
C3342 H3313 0.950 . S
C3342 C3341 1.334 . S
C3342 C3343 1.287 . S
C3343 C3342 1.287 . S
C3343 C3344 1.524 . S
C3343 H3346 0.999 . S
C3344 H3314 0.950 . S
C3344 C3343 1.524 . S
C3344 C3345 1.415 . S
C3345 H3315 0.950 . S
C3345 C3340 1.363 . S
C3345 C3344 1.415 . S
H3346 C3343 0.999 . S
H3347 C3328 0.913 . S
H3348 C3366 0.951 . S
H3349 C3368 0.951 . S
H3350 C3370 0.950 . S
H3351 C3371 0.950 . S
H3352 C3373 0.950 . S
H3353 C3376 0.950 . S
H3354 C3377 0.950 . S
H3355 C3379 0.950 . S
H3356 C3380 0.950 . S
H3357 C3381 0.951 . S
H3358 C3383 0.951 . S
H3359 C3385 0.950 . S
H3360 C3386 0.950 . S
H3361 C3388 0.950 . S
H3362 C3391 0.950 . S
H3363 C3392 0.950 . S
H3364 C3394 0.950 . S
H3365 C3395 0.950 . S
C3366 H3348 0.951 . S
C3366 C3367 1.366 . S
C3366 C3368 1.388 . S
C3367 C3366 1.366 . S
C3367 C3371 1.385 . S
C3368 H3349 0.951 . S
C3368 C3366 1.388 . S
C3368 C3369 1.366 . S
C3369 C3368 1.366 . S
C3369 C3370 1.414 . S
C3369 C3372 1.499 . S
C3370 H3350 0.950 . S
C3370 C3369 1.414 . S
C3370 C3371 1.374 . S
C3371 H3351 0.950 . S
C3371 C3367 1.385 . S
C3371 C3370 1.374 . S
C3372 C3369 1.499 . S
C3372 C3373 1.373 . S
C3372 C3374 1.389 . S
C3373 H3352 0.950 . S
C3373 C3372 1.373 . S
C3373 C3389 1.377 . S
C3374 C3372 1.389 . S
C3374 C3375 1.524 . S
C3374 C3388 1.377 . S
C3375 C3374 1.524 . S
C3375 C3376 1.397 . S
C3375 C3380 1.363 . S
C3376 H3353 0.950 . S
C3376 C3375 1.397 . S
C3376 C3377 1.334 . S
C3377 H3354 0.950 . S
C3377 C3376 1.334 . S
C3377 C3378 1.287 . S
C3378 C3377 1.287 . S
C3378 C3379 1.524 . S
C3378 H3397 0.913 . S
C3379 H3355 0.950 . S
C3379 C3378 1.524 . S
C3379 C3380 1.415 . S
C3380 H3356 0.950 . S
C3380 C3375 1.363 . S
C3380 C3379 1.415 . S
C3381 H3357 0.951 . S
C3381 C3382 1.366 . S
C3381 C3383 1.388 . S
C3382 C3381 1.366 . S
C3382 C3386 1.385 . S
C3383 H3358 0.951 . S
C3383 C3381 1.388 . S
C3383 C3384 1.366 . S
C3384 C3383 1.366 . S
C3384 C3385 1.414 . S
C3384 C3387 1.499 . S
C3385 H3359 0.950 . S
C3385 C3384 1.414 . S
C3385 C3386 1.374 . S
C3386 H3360 0.950 . S
C3386 C3382 1.385 . S
C3386 C3385 1.374 . S
C3387 C3384 1.499 . S
C3387 C3388 1.373 . S
C3387 C3389 1.389 . S
C3388 H3361 0.950 . S
C3388 C3374 1.377 . S
C3388 C3387 1.373 . S
C3389 C3373 1.377 . S
C3389 C3387 1.389 . S
C3389 C3390 1.524 . S
C3390 C3389 1.524 . S
C3390 C3391 1.397 . S
C3390 C3395 1.363 . S
C3391 H3362 0.950 . S
C3391 C3390 1.397 . S
C3391 C3392 1.334 . S
C3392 H3363 0.950 . S
C3392 C3391 1.334 . S
C3392 C3393 1.287 . S
C3393 C3392 1.287 . S
C3393 C3394 1.524 . S
C3393 H3396 0.999 . S
C3394 H3364 0.950 . S
C3394 C3393 1.524 . S
C3394 C3395 1.415 . S
C3395 H3365 0.950 . S
C3395 C3390 1.363 . S
C3395 C3394 1.415 . S
H3396 C3393 0.999 . S
H3397 C3378 0.913 . S
H3398 C3416 0.951 . S
H3399 C3418 0.951 . S
H3400 C3420 0.950 . S
H3401 C3421 0.950 . S
H3402 C3423 0.950 . S
H3403 C3426 0.950 . S
H3404 C3427 0.950 . S
H3405 C3429 0.950 . S
H3406 C3430 0.950 . S
H3407 C3431 0.951 . S
H3408 C3433 0.951 . S
H3409 C3435 0.950 . S
H3410 C3436 0.950 . S
H3411 C3438 0.950 . S
H3412 C3441 0.950 . S
H3413 C3442 0.950 . S
H3414 C3444 0.950 . S
H3415 C3445 0.950 . S
C3416 H3398 0.951 . S
C3416 C3417 1.366 . S
C3416 C3418 1.388 . S
C3417 C3416 1.366 . S
C3417 C3421 1.385 . S
C3418 H3399 0.951 . S
C3418 C3416 1.388 . S
C3418 C3419 1.366 . S
C3419 C3418 1.366 . S
C3419 C3420 1.414 . S
C3419 C3422 1.499 . S
C3420 H3400 0.950 . S
C3420 C3419 1.414 . S
C3420 C3421 1.374 . S
C3421 H3401 0.950 . S
C3421 C3417 1.385 . S
C3421 C3420 1.374 . S
C3422 C3419 1.499 . S
C3422 C3423 1.373 . S
C3422 C3424 1.389 . S
C3423 H3402 0.950 . S
C3423 C3422 1.373 . S
C3423 C3439 1.377 . S
C3424 C3422 1.389 . S
C3424 C3425 1.524 . S
C3424 C3438 1.377 . S
C3425 C3424 1.524 . S
C3425 C3426 1.397 . S
C3425 C3430 1.363 . S
C3426 H3403 0.950 . S
C3426 C3425 1.397 . S
C3426 C3427 1.334 . S
C3427 H3404 0.950 . S
C3427 C3426 1.334 . S
C3427 C3428 1.287 . S
C3428 C3427 1.287 . S
C3428 C3429 1.524 . S
C3428 H3447 0.913 . S
C3429 H3405 0.950 . S
C3429 C3428 1.524 . S
C3429 C3430 1.415 . S
C3430 H3406 0.950 . S
C3430 C3425 1.363 . S
C3430 C3429 1.415 . S
C3431 H3407 0.951 . S
C3431 C3432 1.366 . S
C3431 C3433 1.388 . S
C3432 C3431 1.366 . S
C3432 C3436 1.385 . S
C3433 H3408 0.951 . S
C3433 C3431 1.388 . S
C3433 C3434 1.366 . S
C3434 C3433 1.366 . S
C3434 C3435 1.414 . S
C3434 C3437 1.499 . S
C3435 H3409 0.950 . S
C3435 C3434 1.414 . S
C3435 C3436 1.374 . S
C3436 H3410 0.950 . S
C3436 C3432 1.385 . S
C3436 C3435 1.374 . S
C3437 C3434 1.499 . S
C3437 C3438 1.373 . S
C3437 C3439 1.389 . S
C3438 H3411 0.950 . S
C3438 C3424 1.377 . S
C3438 C3437 1.373 . S
C3439 C3423 1.377 . S
C3439 C3437 1.389 . S
C3439 C3440 1.524 . S
C3440 C3439 1.524 . S
C3440 C3441 1.397 . S
C3440 C3445 1.363 . S
C3441 H3412 0.950 . S
C3441 C3440 1.397 . S
C3441 C3442 1.334 . S
C3442 H3413 0.950 . S
C3442 C3441 1.334 . S
C3442 C3443 1.287 . S
C3443 C3442 1.287 . S
C3443 C3444 1.524 . S
C3443 H3446 0.999 . S
C3444 H3414 0.950 . S
C3444 C3443 1.524 . S
C3444 C3445 1.415 . S
C3445 H3415 0.950 . S
C3445 C3440 1.363 . S
C3445 C3444 1.415 . S
H3446 C3443 0.999 . S
H3447 C3428 0.913 . S
H3448 C3466 0.951 . S
H3449 C3468 0.951 . S
H3450 C3470 0.950 . S
H3451 C3471 0.950 . S
H3452 C3473 0.950 . S
H3453 C3476 0.950 . S
H3454 C3477 0.950 . S
H3455 C3479 0.950 . S
H3456 C3480 0.950 . S
H3457 C3481 0.951 . S
H3458 C3483 0.951 . S
H3459 C3485 0.950 . S
H3460 C3486 0.950 . S
H3461 C3488 0.950 . S
H3462 C3491 0.950 . S
H3463 C3492 0.950 . S
H3464 C3494 0.950 . S
H3465 C3495 0.950 . S
C3466 H3448 0.951 . S
C3466 C3467 1.366 . S
C3466 C3468 1.388 . S
C3467 C3466 1.366 . S
C3467 C3471 1.385 . S
C3468 H3449 0.951 . S
C3468 C3466 1.388 . S
C3468 C3469 1.366 . S
C3469 C3468 1.366 . S
C3469 C3470 1.414 . S
C3469 C3472 1.499 . S
C3470 H3450 0.950 . S
C3470 C3469 1.414 . S
C3470 C3471 1.374 . S
C3471 H3451 0.950 . S
C3471 C3467 1.385 . S
C3471 C3470 1.374 . S
C3472 C3469 1.499 . S
C3472 C3473 1.373 . S
C3472 C3474 1.389 . S
C3473 H3452 0.950 . S
C3473 C3472 1.373 . S
C3473 C3489 1.377 . S
C3474 C3472 1.389 . S
C3474 C3475 1.524 . S
C3474 C3488 1.377 . S
C3475 C3474 1.524 . S
C3475 C3476 1.397 . S
C3475 C3480 1.363 . S
C3476 H3453 0.950 . S
C3476 C3475 1.397 . S
C3476 C3477 1.334 . S
C3477 H3454 0.950 . S
C3477 C3476 1.334 . S
C3477 C3478 1.287 . S
C3478 C3477 1.287 . S
C3478 C3479 1.524 . S
C3478 H3497 0.913 . S
C3479 H3455 0.950 . S
C3479 C3478 1.524 . S
C3479 C3480 1.415 . S
C3480 H3456 0.950 . S
C3480 C3475 1.363 . S
C3480 C3479 1.415 . S
C3481 H3457 0.951 . S
C3481 C3482 1.366 . S
C3481 C3483 1.388 . S
C3482 C3481 1.366 . S
C3482 C3486 1.385 . S
C3483 H3458 0.951 . S
C3483 C3481 1.388 . S
C3483 C3484 1.366 . S
C3484 C3483 1.366 . S
C3484 C3485 1.414 . S
C3484 C3487 1.499 . S
C3485 H3459 0.950 . S
C3485 C3484 1.414 . S
C3485 C3486 1.374 . S
C3486 H3460 0.950 . S
C3486 C3482 1.385 . S
C3486 C3485 1.374 . S
C3487 C3484 1.499 . S
C3487 C3488 1.373 . S
C3487 C3489 1.389 . S
C3488 H3461 0.950 . S
C3488 C3474 1.377 . S
C3488 C3487 1.373 . S
C3489 C3473 1.377 . S
C3489 C3487 1.389 . S
C3489 C3490 1.524 . S
C3490 C3489 1.524 . S
C3490 C3491 1.397 . S
C3490 C3495 1.363 . S
C3491 H3462 0.950 . S
C3491 C3490 1.397 . S
C3491 C3492 1.334 . S
C3492 H3463 0.950 . S
C3492 C3491 1.334 . S
C3492 C3493 1.287 . S
C3493 C3492 1.287 . S
C3493 C3494 1.524 . S
C3493 H3496 0.999 . S
C3494 H3464 0.950 . S
C3494 C3493 1.524 . S
C3494 C3495 1.415 . S
C3495 H3465 0.950 . S
C3495 C3490 1.363 . S
C3495 C3494 1.415 . S
H3496 C3493 0.999 . S
H3497 C3478 0.913 . S
H3498 C3516 0.951 . S
H3499 C3518 0.951 . S
H3500 C3520 0.950 . S
H3501 C3521 0.950 . S
H3502 C3523 0.950 . S
H3503 C3526 0.950 . S
H3504 C3527 0.950 . S
H3505 C3529 0.950 . S
H3506 C3530 0.950 . S
H3507 C3531 0.951 . S
H3508 C3533 0.951 . S
H3509 C3535 0.950 . S
H3510 C3536 0.950 . S
H3511 C3538 0.950 . S
H3512 C3541 0.950 . S
H3513 C3542 0.950 . S
H3514 C3544 0.950 . S
H3515 C3545 0.950 . S
C3516 H3498 0.951 . S
C3516 C3517 1.366 . S
C3516 C3518 1.388 . S
C3517 C3516 1.366 . S
C3517 C3521 1.385 . S
C3518 H3499 0.951 . S
C3518 C3516 1.388 . S
C3518 C3519 1.366 . S
C3519 C3518 1.366 . S
C3519 C3520 1.414 . S
C3519 C3522 1.499 . S
C3520 H3500 0.950 . S
C3520 C3519 1.414 . S
C3520 C3521 1.374 . S
C3521 H3501 0.950 . S
C3521 C3517 1.385 . S
C3521 C3520 1.374 . S
C3522 C3519 1.499 . S
C3522 C3523 1.373 . S
C3522 C3524 1.389 . S
C3523 H3502 0.950 . S
C3523 C3522 1.373 . S
C3523 C3539 1.377 . S
C3524 C3522 1.389 . S
C3524 C3525 1.524 . S
C3524 C3538 1.377 . S
C3525 C3524 1.524 . S
C3525 C3526 1.397 . S
C3525 C3530 1.363 . S
C3526 H3503 0.950 . S
C3526 C3525 1.397 . S
C3526 C3527 1.334 . S
C3527 H3504 0.950 . S
C3527 C3526 1.334 . S
C3527 C3528 1.287 . S
C3528 C3527 1.287 . S
C3528 C3529 1.524 . S
C3528 H3547 0.913 . S
C3529 H3505 0.950 . S
C3529 C3528 1.524 . S
C3529 C3530 1.415 . S
C3530 H3506 0.950 . S
C3530 C3525 1.363 . S
C3530 C3529 1.415 . S
C3531 H3507 0.951 . S
C3531 C3532 1.366 . S
C3531 C3533 1.388 . S
C3532 C3531 1.366 . S
C3532 C3536 1.385 . S
C3533 H3508 0.951 . S
C3533 C3531 1.388 . S
C3533 C3534 1.366 . S
C3534 C3533 1.366 . S
C3534 C3535 1.414 . S
C3534 C3537 1.499 . S
C3535 H3509 0.950 . S
C3535 C3534 1.414 . S
C3535 C3536 1.374 . S
C3536 H3510 0.950 . S
C3536 C3532 1.385 . S
C3536 C3535 1.374 . S
C3537 C3534 1.499 . S
C3537 C3538 1.373 . S
C3537 C3539 1.389 . S
C3538 H3511 0.950 . S
C3538 C3524 1.377 . S
C3538 C3537 1.373 . S
C3539 C3523 1.377 . S
C3539 C3537 1.389 . S
C3539 C3540 1.524 . S
C3540 C3539 1.524 . S
C3540 C3541 1.397 . S
C3540 C3545 1.363 . S
C3541 H3512 0.950 . S
C3541 C3540 1.397 . S
C3541 C3542 1.334 . S
C3542 H3513 0.950 . S
C3542 C3541 1.334 . S
C3542 C3543 1.287 . S
C3543 C3542 1.287 . S
C3543 C3544 1.524 . S
C3543 H3546 0.999 . S
C3544 H3514 0.950 . S
C3544 C3543 1.524 . S
C3544 C3545 1.415 . S
C3545 H3515 0.950 . S
C3545 C3540 1.363 . S
C3545 C3544 1.415 . S
H3546 C3543 0.999 . S
H3547 C3528 0.913 . S
H3548 C3566 0.951 . S
H3549 C3568 0.951 . S
H3550 C3570 0.950 . S
H3551 C3571 0.950 . S
H3552 C3573 0.950 . S
H3553 C3576 0.950 . S
H3554 C3577 0.950 . S
H3555 C3579 0.950 . S
H3556 C3580 0.950 . S
H3557 C3581 0.951 . S
H3558 C3583 0.951 . S
H3559 C3585 0.950 . S
H3560 C3586 0.950 . S
H3561 C3588 0.950 . S
H3562 C3591 0.950 . S
H3563 C3592 0.950 . S
H3564 C3594 0.950 . S
H3565 C3595 0.950 . S
C3566 H3548 0.951 . S
C3566 C3567 1.366 . S
C3566 C3568 1.388 . S
C3567 C3566 1.366 . S
C3567 C3571 1.385 . S
C3568 H3549 0.951 . S
C3568 C3566 1.388 . S
C3568 C3569 1.366 . S
C3569 C3568 1.366 . S
C3569 C3570 1.414 . S
C3569 C3572 1.499 . S
C3570 H3550 0.950 . S
C3570 C3569 1.414 . S
C3570 C3571 1.374 . S
C3571 H3551 0.950 . S
C3571 C3567 1.385 . S
C3571 C3570 1.374 . S
C3572 C3569 1.499 . S
C3572 C3573 1.373 . S
C3572 C3574 1.389 . S
C3573 H3552 0.950 . S
C3573 C3572 1.373 . S
C3573 C3589 1.377 . S
C3574 C3572 1.389 . S
C3574 C3575 1.524 . S
C3574 C3588 1.377 . S
C3575 C3574 1.524 . S
C3575 C3576 1.397 . S
C3575 C3580 1.363 . S
C3576 H3553 0.950 . S
C3576 C3575 1.397 . S
C3576 C3577 1.334 . S
C3577 H3554 0.950 . S
C3577 C3576 1.334 . S
C3577 C3578 1.287 . S
C3578 C3577 1.287 . S
C3578 C3579 1.524 . S
C3578 H3597 0.913 . S
C3579 H3555 0.950 . S
C3579 C3578 1.524 . S
C3579 C3580 1.415 . S
C3580 H3556 0.950 . S
C3580 C3575 1.363 . S
C3580 C3579 1.415 . S
C3581 H3557 0.951 . S
C3581 C3582 1.366 . S
C3581 C3583 1.388 . S
C3582 C3581 1.366 . S
C3582 C3586 1.385 . S
C3583 H3558 0.951 . S
C3583 C3581 1.388 . S
C3583 C3584 1.366 . S
C3584 C3583 1.366 . S
C3584 C3585 1.414 . S
C3584 C3587 1.499 . S
C3585 H3559 0.950 . S
C3585 C3584 1.414 . S
C3585 C3586 1.374 . S
C3586 H3560 0.950 . S
C3586 C3582 1.385 . S
C3586 C3585 1.374 . S
C3587 C3584 1.499 . S
C3587 C3588 1.373 . S
C3587 C3589 1.389 . S
C3588 H3561 0.950 . S
C3588 C3574 1.377 . S
C3588 C3587 1.373 . S
C3589 C3573 1.377 . S
C3589 C3587 1.389 . S
C3589 C3590 1.524 . S
C3590 C3589 1.524 . S
C3590 C3591 1.397 . S
C3590 C3595 1.363 . S
C3591 H3562 0.950 . S
C3591 C3590 1.397 . S
C3591 C3592 1.334 . S
C3592 H3563 0.950 . S
C3592 C3591 1.334 . S
C3592 C3593 1.287 . S
C3593 C3592 1.287 . S
C3593 C3594 1.524 . S
C3593 H3596 0.999 . S
C3594 H3564 0.950 . S
C3594 C3593 1.524 . S
C3594 C3595 1.415 . S
C3595 H3565 0.950 . S
C3595 C3590 1.363 . S
C3595 C3594 1.415 . S
H3596 C3593 0.999 . S
H3597 C3578 0.913 . S
H3598 C3616 0.951 . S
H3599 C3618 0.951 . S
H3600 C3620 0.950 . S
H3601 C3621 0.950 . S
H3602 C3623 0.950 . S
H3603 C3626 0.950 . S
H3604 C3627 0.950 . S
H3605 C3629 0.950 . S
H3606 C3630 0.950 . S
H3607 C3631 0.951 . S
H3608 C3633 0.951 . S
H3609 C3635 0.950 . S
H3610 C3636 0.950 . S
H3611 C3638 0.950 . S
H3612 C3641 0.950 . S
H3613 C3642 0.950 . S
H3614 C3644 0.950 . S
H3615 C3645 0.950 . S
C3616 H3598 0.951 . S
C3616 C3617 1.366 . S
C3616 C3618 1.388 . S
C3617 C3616 1.366 . S
C3617 C3621 1.385 . S
C3618 H3599 0.951 . S
C3618 C3616 1.388 . S
C3618 C3619 1.366 . S
C3619 C3618 1.366 . S
C3619 C3620 1.414 . S
C3619 C3622 1.499 . S
C3620 H3600 0.950 . S
C3620 C3619 1.414 . S
C3620 C3621 1.374 . S
C3621 H3601 0.950 . S
C3621 C3617 1.385 . S
C3621 C3620 1.374 . S
C3622 C3619 1.499 . S
C3622 C3623 1.373 . S
C3622 C3624 1.389 . S
C3623 H3602 0.950 . S
C3623 C3622 1.373 . S
C3623 C3639 1.377 . S
C3624 C3622 1.389 . S
C3624 C3625 1.524 . S
C3624 C3638 1.377 . S
C3625 C3624 1.524 . S
C3625 C3626 1.397 . S
C3625 C3630 1.363 . S
C3626 H3603 0.950 . S
C3626 C3625 1.397 . S
C3626 C3627 1.334 . S
C3627 H3604 0.950 . S
C3627 C3626 1.334 . S
C3627 C3628 1.287 . S
C3628 C3627 1.287 . S
C3628 C3629 1.524 . S
C3628 H3647 0.913 . S
C3629 H3605 0.950 . S
C3629 C3628 1.524 . S
C3629 C3630 1.415 . S
C3630 H3606 0.950 . S
C3630 C3625 1.363 . S
C3630 C3629 1.415 . S
C3631 H3607 0.951 . S
C3631 C3632 1.366 . S
C3631 C3633 1.388 . S
C3632 C3631 1.366 . S
C3632 C3636 1.385 . S
C3633 H3608 0.951 . S
C3633 C3631 1.388 . S
C3633 C3634 1.366 . S
C3634 C3633 1.366 . S
C3634 C3635 1.414 . S
C3634 C3637 1.499 . S
C3635 H3609 0.950 . S
C3635 C3634 1.414 . S
C3635 C3636 1.374 . S
C3636 H3610 0.950 . S
C3636 C3632 1.385 . S
C3636 C3635 1.374 . S
C3637 C3634 1.499 . S
C3637 C3638 1.373 . S
C3637 C3639 1.389 . S
C3638 H3611 0.950 . S
C3638 C3624 1.377 . S
C3638 C3637 1.373 . S
C3639 C3623 1.377 . S
C3639 C3637 1.389 . S
C3639 C3640 1.524 . S
C3640 C3639 1.524 . S
C3640 C3641 1.397 . S
C3640 C3645 1.363 . S
C3641 H3612 0.950 . S
C3641 C3640 1.397 . S
C3641 C3642 1.334 . S
C3642 H3613 0.950 . S
C3642 C3641 1.334 . S
C3642 C3643 1.287 . S
C3643 C3642 1.287 . S
C3643 C3644 1.524 . S
C3643 H3646 0.999 . S
C3644 H3614 0.950 . S
C3644 C3643 1.524 . S
C3644 C3645 1.415 . S
C3645 H3615 0.950 . S
C3645 C3640 1.363 . S
C3645 C3644 1.415 . S
H3646 C3643 0.999 . S
H3647 C3628 0.913 . S
C467 C411 1.582 . S
C482 C5 1.582 . S
C517 C19 1.582 . S
C532 C425 1.582 . S
C567 C439 1.582 . S
C582 C33 1.582 . S
C617 C397 1.582 . S
C632 C47 1.582 . S
C667 C61 1.582 . S
C682 C383 1.582 . S
C717 C341 1.582 . S
C732 C75 1.582 . S
C767 C89 1.582 . S
C782 C355 1.582 . S
C817 C369 1.582 . S
C832 C103 1.582 . S
C867 C117 1.582 . S
C882 C299 1.582 . S
C917 C131 1.582 . S
C932 C313 1.582 . S
C967 C327 1.582 . S
C982 C145 1.582 . S
C1017 C159 1.582 . S
C1032 C285 1.582 . S
C1067 C271 1.582 . S
C1082 C173 1.582 . S
C1117 C229 1.582 . S
C1132 C187 1.582 . S
C1167 C201 1.582 . S
C1182 C243 1.582 . S
C1217 C215 1.582 . S
C1232 C257 1.582 . S
C1267 C0 1.362 . S
C1282 C140 1.363 . S
C1317 C154 1.363 . S
C1332 C14 1.362 . S
C1367 C112 1.363 . S
C1382 C28 1.362 . S
C1417 C126 1.362 . S
C1432 C42 1.363 . S
C1467 C56 1.362 . S
C1482 C196 1.363 . S
C1517 C210 1.362 . S
C1532 C70 1.362 . S
C1567 C168 1.363 . S
C1582 C84 1.362 . S
C1617 C182 1.362 . S
C1632 C98 1.363 . S
C1667 C224 1.362 . S
C1682 C364 1.363 . S
C1717 C378 1.363 . S
C1732 C238 1.362 . S
C1767 C336 1.363 . S
C1782 C252 1.362 . S
C1817 C266 1.363 . S
C1832 C350 1.362 . S
C1867 C280 1.362 . S
C1882 C420 1.363 . S
C1917 C434 1.363 . S
C1932 C294 1.362 . S
C1967 C392 1.362 . S
C1982 C308 1.363 . S
C2017 C322 1.363 . S
C2032 C406 1.362 . S
C2067 C11 1.482 . S
C2082 C67 1.482 . S
C2117 C25 1.482 . S
C2132 C81 1.482 . S
C2167 C95 1.482 . S
C2182 C39 1.482 . S
C2217 C53 1.482 . S
C2232 C109 1.482 . S
C2267 C123 1.482 . S
C2282 C179 1.482 . S
C2317 C193 1.482 . S
C2332 C137 1.482 . S
C2367 C207 1.482 . S
C2382 C151 1.482 . S
C2417 C165 1.482 . S
C2432 C221 1.482 . S
C2467 C235 1.482 . S
C2482 C291 1.482 . S
C2517 C305 1.482 . S
C2532 C249 1.482 . S
C2567 C263 1.482 . S
C2582 C319 1.482 . S
C2617 C333 1.482 . S
C2632 C277 1.482 . S
C2667 C403 1.482 . S
C2682 C347 1.482 . S
C2717 C361 1.482 . S
C2732 C417 1.482 . S
C2767 C375 1.482 . S
C2782 C431 1.482 . S
C2817 C389 1.482 . S
C2832 C445 1.482 . S
C2867 C9 1.361 . S
C2882 C79 1.361 . S
C2917 C23 1.361 . S
C2932 C93 1.361 . S
C2967 C107 1.361 . S
C2982 C37 1.361 . S
C3017 C65 1.361 . S
C3032 C51 1.361 . S
C3067 C191 1.361 . S
C3082 C121 1.361 . S
C3117 C205 1.361 . S
C3132 C135 1.361 . S
C3167 C219 1.361 . S
C3182 C149 1.361 . S
C3217 C163 1.361 . S
C3232 C177 1.361 . S
C3267 C233 1.361 . S
C3282 C303 1.361 . S
C3317 C317 1.361 . S
C3332 C247 1.361 . S
C3367 C331 1.361 . S
C3382 C261 1.361 . S
C3417 C275 1.361 . S
C3432 C289 1.361 . S
C3467 C415 1.361 . S
C3482 C345 1.361 . S
C3517 C359 1.361 . S
C3532 C429 1.361 . S
C3567 C373 1.361 . S
C3582 C443 1.361 . S
C3617 C401 1.361 . S
C3632 C387 1.361 . S
