# Generated by pormake.
# Topology gme, (4)-cn, num edge types: 1
# Building blocks:
#     Node 0, Type 0, BuildingBlock: NAHDIM_clean_sbu_0, # of connection points: 4
#     Node 1, Type 0, BuildingBlock: NAHDIM_clean_sbu_0, # of connection points: 4
#     Node 2, Type 0, BuildingBlock: NAHDIM_clean_sbu_0, # of connection points: 4
#     Node 3, Type 0, BuildingBlock: NAHDIM_clean_sbu_0, # of connection points: 4
#     Node 4, Type 0, BuildingBlock: NAHDIM_clean_sbu_0, # of connection points: 4
#     Node 5, Type 0, BuildingBlock: NAHDIM_clean_sbu_0, # of connection points: 4
#     Node 6, Type 0, BuildingBlock: NAHDIM_clean_sbu_0, # of connection points: 4
#     Node 7, Type 0, BuildingBlock: NAHDIM_clean_sbu_0, # of connection points: 4
#     Node 8, Type 0, BuildingBlock: NAHDIM_clean_sbu_0, # of connection points: 4
#     Node 9, Type 0, BuildingBlock: NAHDIM_clean_sbu_0, # of connection points: 4
#     Node 10, Type 0, BuildingBlock: NAHDIM_clean_sbu_0, # of connection points: 4
#     Node 11, Type 0, BuildingBlock: NAHDIM_clean_sbu_0, # of connection points: 4
#     Node 12, Type 0, BuildingBlock: NAHDIM_clean_sbu_0, # of connection points: 4
#     Node 13, Type 0, BuildingBlock: NAHDIM_clean_sbu_0, # of connection points: 4
#     Node 14, Type 0, BuildingBlock: NAHDIM_clean_sbu_0, # of connection points: 4
#     Node 15, Type 0, BuildingBlock: NAHDIM_clean_sbu_0, # of connection points: 4
#     Node 16, Type 0, BuildingBlock: NAHDIM_clean_sbu_0, # of connection points: 4
#     Node 17, Type 0, BuildingBlock: NAHDIM_clean_sbu_0, # of connection points: 4
#     Node 18, Type 0, BuildingBlock: NAHDIM_clean_sbu_0, # of connection points: 4
#     Node 19, Type 0, BuildingBlock: NAHDIM_clean_sbu_0, # of connection points: 4
#     Node 20, Type 0, BuildingBlock: NAHDIM_clean_sbu_0, # of connection points: 4
#     Node 21, Type 0, BuildingBlock: NAHDIM_clean_sbu_0, # of connection points: 4
#     Node 22, Type 0, BuildingBlock: NAHDIM_clean_sbu_0, # of connection points: 4
#     Node 23, Type 0, BuildingBlock: NAHDIM_clean_sbu_0, # of connection points: 4
#     Edge 24, Type (0, 0), BuildingBlock: EZIPEK_clean_linker_0, # of connection points: 2
#     Edge 25, Type (0, 0), BuildingBlock: EZIPEK_clean_linker_0, # of connection points: 2
#     Edge 26, Type (0, 0), BuildingBlock: EZIPEK_clean_linker_0, # of connection points: 2
#     Edge 27, Type (0, 0), BuildingBlock: EZIPEK_clean_linker_0, # of connection points: 2
#     Edge 28, Type (0, 0), BuildingBlock: EZIPEK_clean_linker_0, # of connection points: 2
#     Edge 29, Type (0, 0), BuildingBlock: EZIPEK_clean_linker_0, # of connection points: 2
#     Edge 30, Type (0, 0), BuildingBlock: EZIPEK_clean_linker_0, # of connection points: 2
#     Edge 31, Type (0, 0), BuildingBlock: EZIPEK_clean_linker_0, # of connection points: 2
#     Edge 32, Type (0, 0), BuildingBlock: EZIPEK_clean_linker_0, # of connection points: 2
#     Edge 33, Type (0, 0), BuildingBlock: EZIPEK_clean_linker_0, # of connection points: 2
#     Edge 34, Type (0, 0), BuildingBlock: EZIPEK_clean_linker_0, # of connection points: 2
#     Edge 35, Type (0, 0), BuildingBlock: EZIPEK_clean_linker_0, # of connection points: 2
#     Edge 36, Type (0, 0), BuildingBlock: EZIPEK_clean_linker_0, # of connection points: 2
#     Edge 37, Type (0, 0), BuildingBlock: EZIPEK_clean_linker_0, # of connection points: 2
#     Edge 38, Type (0, 0), BuildingBlock: EZIPEK_clean_linker_0, # of connection points: 2
#     Edge 39, Type (0, 0), BuildingBlock: EZIPEK_clean_linker_0, # of connection points: 2
#     Edge 40, Type (0, 0), BuildingBlock: EZIPEK_clean_linker_0, # of connection points: 2
#     Edge 41, Type (0, 0), BuildingBlock: EZIPEK_clean_linker_0, # of connection points: 2
#     Edge 42, Type (0, 0), BuildingBlock: EZIPEK_clean_linker_0, # of connection points: 2
#     Edge 43, Type (0, 0), BuildingBlock: EZIPEK_clean_linker_0, # of connection points: 2
#     Edge 44, Type (0, 0), BuildingBlock: EZIPEK_clean_linker_0, # of connection points: 2
#     Edge 45, Type (0, 0), BuildingBlock: EZIPEK_clean_linker_0, # of connection points: 2
#     Edge 46, Type (0, 0), BuildingBlock: EZIPEK_clean_linker_0, # of connection points: 2
#     Edge 47, Type (0, 0), BuildingBlock: EZIPEK_clean_linker_0, # of connection points: 2
#     Edge 48, Type (0, 0), BuildingBlock: EZIPEK_clean_linker_0, # of connection points: 2
#     Edge 49, Type (0, 0), BuildingBlock: EZIPEK_clean_linker_0, # of connection points: 2
#     Edge 50, Type (0, 0), BuildingBlock: EZIPEK_clean_linker_0, # of connection points: 2
#     Edge 51, Type (0, 0), BuildingBlock: EZIPEK_clean_linker_0, # of connection points: 2
#     Edge 52, Type (0, 0), BuildingBlock: EZIPEK_clean_linker_0, # of connection points: 2
#     Edge 53, Type (0, 0), BuildingBlock: EZIPEK_clean_linker_0, # of connection points: 2
#     Edge 54, Type (0, 0), BuildingBlock: EZIPEK_clean_linker_0, # of connection points: 2
#     Edge 55, Type (0, 0), BuildingBlock: EZIPEK_clean_linker_0, # of connection points: 2
#     Edge 56, Type (0, 0), BuildingBlock: EZIPEK_clean_linker_0, # of connection points: 2
#     Edge 57, Type (0, 0), BuildingBlock: EZIPEK_clean_linker_0, # of connection points: 2
#     Edge 58, Type (0, 0), BuildingBlock: EZIPEK_clean_linker_0, # of connection points: 2
#     Edge 59, Type (0, 0), BuildingBlock: EZIPEK_clean_linker_0, # of connection points: 2
#     Edge 60, Type (0, 0), BuildingBlock: EZIPEK_clean_linker_0, # of connection points: 2
#     Edge 61, Type (0, 0), BuildingBlock: EZIPEK_clean_linker_0, # of connection points: 2
#     Edge 62, Type (0, 0), BuildingBlock: EZIPEK_clean_linker_0, # of connection points: 2
#     Edge 63, Type (0, 0), BuildingBlock: EZIPEK_clean_linker_0, # of connection points: 2
#     Edge 64, Type (0, 0), BuildingBlock: EZIPEK_clean_linker_0, # of connection points: 2
#     Edge 65, Type (0, 0), BuildingBlock: EZIPEK_clean_linker_0, # of connection points: 2
#     Edge 66, Type (0, 0), BuildingBlock: EZIPEK_clean_linker_0, # of connection points: 2
#     Edge 67, Type (0, 0), BuildingBlock: EZIPEK_clean_linker_0, # of connection points: 2
#     Edge 68, Type (0, 0), BuildingBlock: EZIPEK_clean_linker_0, # of connection points: 2
#     Edge 69, Type (0, 0), BuildingBlock: EZIPEK_clean_linker_0, # of connection points: 2
#     Edge 70, Type (0, 0), BuildingBlock: EZIPEK_clean_linker_0, # of connection points: 2
#     Edge 71, Type (0, 0), BuildingBlock: EZIPEK_clean_linker_0, # of connection points: 2
# Relax obj value: 0.157
# Max RMSD: 0.149
# Mean RMSD: 0.149
data_MOF--net-gme--node1-NAHDIM_clean_sbu_0--edge1-EZIPEK_clean_linker_0
_symmetry_space_group_name_H-M    P1
_symmetry_Int_Tables_number       1
_symmetry_cell_setting            triclinic
loop_
_symmetry_equiv_pos_as_xyz
'x, y, z'
_cell_length_a     45.533026
_cell_length_b     45.570861
_cell_length_c     37.672557
_cell_angle_alpha  89.936663
_cell_angle_beta   90.068131
_cell_angle_gamma 119.85214
loop_
_atom_site_label
_atom_site_type_symbol
_atom_site_fract_x
_atom_site_fract_y
_atom_site_fract_z
_atom_type_partial_charge
C0 C 0.37499 0.0438 0.05098 0.0
O1 O 0.3626 0.06383 0.05747 0.0
O2 O 0.42484 0.1267 0.08814 0.0
Zn3 Zn 0.42858 0.08582 0.1008 0.0
O4 O 0.47657 0.09532 0.09751 0.0
C5 C 0.43037 0.09353 0.17462 0.0
O6 O 0.45701 0.12203 0.16502 0.0
O7 O 0.4016 0.04839 0.06672 0.0
C8 C 0.48044 0.06987 0.10241 0.0
O9 O 0.45385 0.04019 0.10895 0.0
C10 C 0.44973 0.15655 0.09113 0.0
O11 O 0.47959 0.16123 0.10032 0.0
O12 O 0.41254 0.072 0.15113 0.0
C13 C 0.33367 0.38768 0.55614 0.0
O14 O 0.32832 0.41127 0.54286 0.0
O15 O 0.27725 0.41179 0.60336 0.0
Zn16 Zn 0.32044 0.41304 0.61772 0.0
O17 O 0.36042 0.45921 0.60848 0.0
C18 C 0.3041 0.41343 0.69056 0.0
O19 O 0.28593 0.4257 0.6768 0.0
O20 O 0.3294 0.3813 0.58914 0.0
C21 C 0.36797 0.48513 0.62728 0.0
O22 O 0.34828 0.48325 0.65361 0.0
C23 C 0.27704 0.43365 0.58258 0.0
O24 O 0.30543 0.4573 0.56861 0.0
O25 O 0.31984 0.40378 0.67014 0.0
C26 C 0.94918 0.33678 0.03664 0.0
O27 O 0.91918 0.31863 0.02211 0.0
O28 O 0.87147 0.28626 0.08121 0.0
Zn29 Zn 0.91 0.3304 0.09839 0.0
O30 O 0.89781 0.36719 0.09629 0.0
C31 C 0.89977 0.32734 0.17241 0.0
O32 O 0.87636 0.33421 0.16191 0.0
O33 O 0.95161 0.34433 0.06935 0.0
C34 C 0.91905 0.3962 0.10823 0.0
O35 O 0.94871 0.40176 0.11949 0.0
C36 C 0.84138 0.27964 0.08731 0.0
O37 O 0.83595 0.30275 0.10162 0.0
O38 O 0.91841 0.32403 0.14955 0.0
C39 C 0.60518 0.91913 0.55111 0.0
O40 O 0.61435 0.89662 0.55825 0.0
O41 O 0.54737 0.83817 0.58856 0.0
Zn42 Zn 0.54995 0.88204 0.60113 0.0
O43 O 0.50419 0.87848 0.59847 0.0
C44 C 0.59683 0.91444 0.66144 0.0
O45 O 0.6208 0.93149 0.63811 0.0
O46 O 0.57975 0.91775 0.56653 0.0
C47 C 0.48476 0.86983 0.62528 0.0
O48 O 0.49364 0.86121 0.65495 0.0
C49 C 0.5332 0.82144 0.56069 0.0
O50 O 0.51811 0.8321 0.53869 0.0
O51 O 0.567 0.89358 0.65121 0.0
C52 C 0.68101 0.61925 0.05718 0.0
O53 O 0.71162 0.63437 0.0708 0.0
O54 O 0.70442 0.55678 0.0971 0.0
Zn55 Zn 0.66355 0.56156 0.1057 0.0
O56 O 0.62127 0.5158 0.10567 0.0
C57 C 0.69588 0.60305 0.16729 0.0
O58 O 0.72313 0.6162 0.14734 0.0
O59 O 0.6589 0.59014 0.06802 0.0
C60 C 0.59383 0.51258 0.09328 0.0
O61 O 0.59345 0.53877 0.07926 0.0
C62 C 0.70962 0.54508 0.06872 0.0
O63 O 0.6873 0.53483 0.04287 0.0
O64 O 0.66764 0.58091 0.15448 0.0
C65 C 0.05567 0.65209 0.53242 0.0
O66 O 0.0764 0.64099 0.52403 0.0
O67 O 0.13888 0.71057 0.58702 0.0
Zn68 Zn 0.09356 0.66947 0.59679 0.0
O69 O 0.09417 0.62529 0.59813 0.0
C70 C 0.1031 0.68002 0.66929 0.0
O71 O 0.13097 0.68036 0.65963 0.0
O72 O 0.05822 0.66577 0.56244 0.0
C73 C 0.12053 0.62243 0.59714 0.0
O74 O 0.1503 0.64928 0.59239 0.0
C75 C 0.15886 0.71669 0.56105 0.0
O76 O 0.15078 0.6944 0.53547 0.0
O77 O 0.08131 0.67611 0.64594 0.0
C78 C 0.94243 0.61481 0.43888 0.0
O79 O 0.91787 0.62132 0.44493 0.0
O80 O 0.85703 0.56878 0.40595 0.0
Zn81 Zn 0.89653 0.56577 0.38718 0.0
O82 O 0.88635 0.51775 0.39064 0.0
C83 C 0.91691 0.60862 0.32387 0.0
O84 O 0.93106 0.63437 0.34583 0.0
O85 O 0.93898 0.59353 0.41522 0.0
C86 C 0.90915 0.51175 0.37956 0.0
O87 O 0.93692 0.53633 0.36549 0.0
C88 C 0.8392 0.55098 0.43181 0.0
O89 O 0.84749 0.53089 0.44863 0.0
O90 O 0.90195 0.57856 0.33576 0.0
C91 C 0.32877 0.93651 0.94858 0.0
O92 O 0.32182 0.90717 0.96202 0.0
O93 O 0.27851 0.85873 0.90025 0.0
Zn94 Zn 0.32008 0.90088 0.88407 0.0
O95 O 0.36096 0.89499 0.8844 0.0
C96 C 0.28506 0.90598 0.82221 0.0
O97 O 0.25929 0.89627 0.84388 0.0
O98 O 0.32893 0.94011 0.91515 0.0
C99 C 0.36107 0.87089 0.86761 0.0
O100 O 0.33375 0.84869 0.85069 0.0
C101 C 0.27868 0.83686 0.92104 0.0
O102 O 0.30731 0.84134 0.93426 0.0
O103 O 0.31302 0.90993 0.8337 0.0
C104 C 0.40519 0.34055 0.4682 0.0
O105 O 0.4296 0.33646 0.48143 0.0
O106 O 0.43312 0.29045 0.41806 0.0
Zn107 Zn 0.43244 0.33256 0.40379 0.0
O108 O 0.47906 0.37383 0.40606 0.0
C109 C 0.43859 0.32759 0.33097 0.0
O110 O 0.46724 0.33077 0.34264 0.0
O111 O 0.401 0.33974 0.43485 0.0
C112 C 0.48186 0.40177 0.39623 0.0
O113 O 0.45479 0.4028 0.38604 0.0
C114 C 0.45954 0.29069 0.42925 0.0
O115 O 0.48778 0.31954 0.4335 0.0
O116 O 0.41724 0.32689 0.35308 0.0
C117 C 0.06596 0.3958 0.945 0.0
O118 O 0.09161 0.39028 0.94689 0.0
O119 O 0.14922 0.45186 0.90989 0.0
Zn120 Zn 0.10598 0.44898 0.89335 0.0
O121 O 0.10864 0.49412 0.8964 0.0
C122 C 0.09321 0.40517 0.83284 0.0
O123 O 0.0942 0.38431 0.85626 0.0
O124 O 0.06697 0.41801 0.92394 0.0
C125 C 0.08194 0.49428 0.88692 0.0
O126 O 0.05576 0.46618 0.87552 0.0
C127 C 0.16319 0.46469 0.93941 0.0
O128 O 0.14959 0.47743 0.96072 0.0
O129 O 0.09747 0.43365 0.84269 0.0
C130 C 0.656 0.02671 0.44953 0.0
O131 O 0.6621 0.05527 0.46437 0.0
O132 O 0.70698 0.10665 0.40617 0.0
Zn133 Zn 0.66392 0.06612 0.3899 0.0
O134 O 0.62529 0.07407 0.40229 0.0
C135 C 0.68968 0.07557 0.31677 0.0
O136 O 0.71967 0.09455 0.33091 0.0
O137 O 0.65675 0.02486 0.41596 0.0
C138 C 0.60021 0.06397 0.38136 0.0
O139 O 0.59953 0.04847 0.35178 0.0
C140 C 0.71304 0.13508 0.39399 0.0
O141 O 0.69102 0.13651 0.37254 0.0
O142 O 0.66388 0.06019 0.33667 0.0
C143 C 0.62172 0.66359 0.95037 0.0
O144 O 0.59535 0.66508 0.96213 0.0
O145 O 0.59278 0.71227 0.89548 0.0
Zn146 Zn 0.5947 0.66975 0.88499 0.0
O147 O 0.54876 0.62883 0.89508 0.0
C148 C 0.59584 0.68021 0.80956 0.0
O149 O 0.57436 0.69015 0.81857 0.0
O150 O 0.6281 0.66662 0.91733 0.0
C151 C 0.52969 0.60838 0.87137 0.0
O152 O 0.53926 0.61345 0.83805 0.0
C153 C 0.56528 0.7125 0.89042 0.0
O154 O 0.53791 0.68431 0.88138 0.0
O155 O 0.60868 0.67035 0.83349 0.0
C156 C 0.61278 0.94171 0.92077 0.0
O157 O 0.6264 0.92308 0.91267 0.0
O158 O 0.56334 0.85655 0.89237 0.0
Zn159 Zn 0.55732 0.89514 0.87627 0.0
O160 O 0.5085 0.88324 0.88023 0.0
C161 C 0.60126 0.91504 0.81329 0.0
O162 O 0.62547 0.91851 0.8348 0.0
O163 O 0.58424 0.93473 0.90797 0.0
C164 C 0.48962 0.87588 0.85302 0.0
O165 O 0.50139 0.8744 0.82167 0.0
C166 C 0.54786 0.82857 0.87603 0.0
O167 O 0.52716 0.82488 0.84994 0.0
O168 O 0.57194 0.90606 0.82528 0.0
C169 C 0.6672 0.61005 0.44539 0.0
O170 O 0.66639 0.5842 0.46169 0.0
O171 O 0.7174 0.57435 0.40446 0.0
Zn172 Zn 0.67736 0.57741 0.38701 0.0
O173 O 0.63503 0.53294 0.39541 0.0
C174 C 0.69139 0.61361 0.31913 0.0
O175 O 0.69766 0.64033 0.33799 0.0
O176 O 0.67301 0.61387 0.41227 0.0
C177 C 0.6077 0.5274 0.38055 0.0
O178 O 0.60761 0.55067 0.36002 0.0
C179 C 0.71562 0.55446 0.42909 0.0
O180 O 0.68698 0.53596 0.44601 0.0
O181 O 0.68276 0.58561 0.3344 0.0
C182 C 0.0405 0.66356 0.95228 0.0
O183 O 0.06093 0.65297 0.9635 0.0
O184 O 0.12775 0.7224 0.90539 0.0
Zn185 Zn 0.08376 0.68174 0.8924 0.0
O186 O 0.08927 0.64089 0.89799 0.0
C187 C 0.09937 0.6898 0.8205 0.0
O188 O 0.12804 0.69501 0.83441 0.0
O189 O 0.04559 0.67796 0.92227 0.0
C190 C 0.06493 0.61149 0.89124 0.0
O191 O 0.03526 0.60739 0.88222 0.0
C192 C 0.1459 0.72136 0.93041 0.0
O193 O 0.13476 0.69409 0.95012 0.0
O194 O 0.07495 0.68449 0.84076 0.0
C195 C 0.37602 0.05672 0.44578 0.0
O196 O 0.3607 0.07182 0.43151 0.0
O197 O 0.4372 0.14271 0.40589 0.0
Zn198 Zn 0.43337 0.0975 0.39827 0.0
O199 O 0.47957 0.10238 0.3999 0.0
C200 C 0.43206 0.10049 0.3247 0.0
O201 O 0.45877 0.12967 0.33251 0.0
O202 O 0.40557 0.06427 0.43583 0.0
C203 C 0.4807 0.07517 0.39742 0.0
O204 O 0.45236 0.0461 0.39522 0.0
C205 C 0.44727 0.15886 0.4349 0.0
O206 O 0.45513 0.14572 0.46179 0.0
O207 O 0.41467 0.08057 0.34954 0.0
C208 C 0.31764 0.38687 0.95849 0.0
O209 O 0.2872 0.37205 0.94443 0.0
O210 O 0.29212 0.45023 0.92349 0.0
Zn211 Zn 0.33198 0.44433 0.91287 0.0
O212 O 0.37439 0.48951 0.90913 0.0
C213 C 0.31754 0.43681 0.84048 0.0
O214 O 0.31506 0.46368 0.84767 0.0
O215 O 0.33924 0.41691 0.94966 0.0
C216 C 0.40135 0.48904 0.90163 0.0
O217 O 0.40031 0.45986 0.89814 0.0
C218 C 0.28497 0.45809 0.95326 0.0
O219 O 0.30456 0.46324 0.98089 0.0
O220 O 0.32437 0.42221 0.8652 0.0
C221 C 0.9333 0.33965 0.4622 0.0
O222 O 0.90439 0.33707 0.47183 0.0
O223 O 0.85946 0.27519 0.41101 0.0
Zn224 Zn 0.89849 0.32036 0.3973 0.0
O225 O 0.88619 0.35716 0.39875 0.0
C226 C 0.89309 0.3192 0.32309 0.0
O227 O 0.86663 0.32168 0.3323 0.0
O228 O 0.93724 0.33297 0.43047 0.0
C229 C 0.91025 0.38661 0.39148 0.0
O230 O 0.94037 0.39093 0.3843 0.0
C231 C 0.82934 0.26751 0.40323 0.0
O232 O 0.82335 0.29057 0.38967 0.0
O233 O 0.91187 0.31747 0.347 0.0
C234 C 0.04992 0.40034 0.55391 0.0
O235 O 0.07607 0.42797 0.54169 0.0
O236 O 0.13145 0.41989 0.60243 0.0
Zn237 Zn 0.09059 0.42366 0.6142 0.0
O238 O 0.09921 0.4706 0.60379 0.0
C239 C 0.08087 0.38967 0.6814 0.0
O240 O 0.08222 0.36634 0.66221 0.0
O241 O 0.05003 0.39142 0.58582 0.0
C242 C 0.11394 0.49462 0.62589 0.0
O243 O 0.12516 0.48943 0.65604 0.0
C244 C 0.15217 0.43639 0.5778 0.0
O245 O 0.14677 0.45648 0.55723 0.0
O246 O 0.08275 0.41553 0.66646 0.0
C247 C 0.65885 0.04635 0.02627 0.0
O248 O 0.65805 0.07361 0.01644 0.0
O249 O 0.71675 0.12243 0.08108 0.0
Zn250 Zn 0.67285 0.08024 0.09171 0.0
O251 O 0.63347 0.08858 0.08702 0.0
C252 C 0.67828 0.08793 0.1656 0.0
O253 O 0.67981 0.11637 0.156 0.0
O254 O 0.66596 0.04344 0.05819 0.0
C255 C 0.60524 0.067 0.10028 0.0
O256 O 0.60225 0.03979 0.11568 0.0
C257 C 0.71864 0.15119 0.08146 0.0
O258 O 0.69117 0.15323 0.08634 0.0
O259 O 0.67475 0.06654 0.14201 0.0
C260 C 0.61933 0.67457 0.53988 0.0
O261 O 0.63327 0.70514 0.55342 0.0
O262 O 0.55664 0.69658 0.58057 0.0
Zn263 Zn 0.56277 0.65638 0.58879 0.0
O264 O 0.51751 0.61366 0.58878 0.0
C265 C 0.58059 0.67729 0.66097 0.0
O266 O 0.56436 0.69371 0.65403 0.0
O267 O 0.5905 0.65168 0.55054 0.0
C268 C 0.49409 0.61002 0.6097 0.0
O269 O 0.4989 0.63484 0.63093 0.0
C270 C 0.5445 0.70157 0.55235 0.0
O271 O 0.53548 0.67997 0.52596 0.0
O272 O 0.5846 0.66039 0.63655 0.0
C273 C 0.93201 0.62173 0.05097 0.0
O274 O 0.90288 0.62104 0.04897 0.0
O275 O 0.85541 0.56501 0.09682 0.0
Zn276 Zn 0.90154 0.57164 0.10772 0.0
O277 O 0.90235 0.52831 0.10218 0.0
C278 C 0.90546 0.60736 0.17218 0.0
O279 O 0.89126 0.62088 0.15278 0.0
O280 O 0.93668 0.6044 0.07434 0.0
C281 C 0.88637 0.50304 0.12256 0.0
O282 O 0.8667 0.50392 0.14752 0.0
C283 C 0.83704 0.54748 0.07109 0.0
O284 O 0.84782 0.53217 0.04963 0.0
O285 O 0.91316 0.58674 0.15825 0.0
C286 C 0.33182 0.94828 0.54566 0.0
O287 O 0.33084 0.9215 0.53145 0.0
O288 O 0.28029 0.86643 0.5906 0.0
Zn289 Zn 0.32104 0.90899 0.60725 0.0
O290 O 0.36241 0.90394 0.60337 0.0
C291 C 0.28852 0.91542 0.67058 0.0
O292 O 0.26568 0.91447 0.64857 0.0
O293 O 0.32732 0.94891 0.57884 0.0
C294 C 0.36612 0.88498 0.62555 0.0
O295 O 0.34313 0.86926 0.65017 0.0
C296 C 0.28202 0.8455 0.56969 0.0
O297 O 0.31139 0.85186 0.55682 0.0
O298 O 0.31405 0.91436 0.65871 0.0
C299 C 0.38185 0.33364 0.04824 0.0
O300 O 0.40668 0.33243 0.03187 0.0
O301 O 0.41201 0.27881 0.08968 0.0
Zn302 Zn 0.41334 0.32142 0.106 0.0
O303 O 0.45876 0.36244 0.09609 0.0
C304 C 0.43159 0.32445 0.1784 0.0
O305 O 0.46085 0.33314 0.16349 0.0
O306 O 0.37793 0.32798 0.08139 0.0
C307 C 0.46468 0.39049 0.10933 0.0
O308 O 0.44116 0.39197 0.12808 0.0
C309 C 0.43917 0.27738 0.0898 0.0
O310 O 0.46812 0.30472 0.09669 0.0
O311 O 0.40612 0.31763 0.15897 0.0
C312 C 0.40465 0.10126 0.26742 0.0
C313 C 0.42414 0.09054 0.28715 0.0
C314 C 0.44131 0.07413 0.23256 0.0
C315 C 0.42309 0.08632 0.21277 0.0
N316 N 0.38025 0.10242 0.21038 0.0
N317 N 0.45351 0.05894 0.29034 0.0
C318 C 0.40227 0.09684 0.22997 0.0
C319 C 0.43993 0.07424 0.27025 0.0
N320 N 0.38959 0.11683 0.28441 0.0
N321 N 0.46088 0.06371 0.21523 0.0
H322 H 0.45256 0.05849 0.31801 0.0
H323 H 0.46308 0.04428 0.27984 0.0
H324 H 0.46082 0.06152 0.18766 0.0
H325 H 0.47812 0.05851 0.22787 0.0
H326 H 0.37834 0.12883 0.27129 0.0
H327 H 0.38969 0.11906 0.31199 0.0
H328 H 0.36249 0.10779 0.22136 0.0
H329 H 0.37762 0.09847 0.18301 0.0
C330 C 0.34089 0.43297 0.74523 0.0
C331 C 0.30823 0.41391 0.7296 0.0
C332 C 0.28164 0.40651 0.78795 0.0
C333 C 0.3142 0.42518 0.80344 0.0
N334 N 0.37468 0.44939 0.799 0.0
N335 N 0.2484 0.37559 0.73666 0.0
C336 C 0.34378 0.43595 0.78277 0.0
C337 C 0.27883 0.3985 0.75121 0.0
N338 N 0.36895 0.45033 0.72436 0.0
N339 N 0.25344 0.3972 0.80819 0.0
H340 H 0.24574 0.36862 0.70996 0.0
H341 H 0.22657 0.36114 0.75151 0.0
H342 H 0.25455 0.40119 0.83556 0.0
H343 H 0.22917 0.38723 0.79768 0.0
H344 H 0.3926 0.46807 0.73422 0.0
H345 H 0.36844 0.44922 0.69678 0.0
H346 H 0.39677 0.45435 0.78579 0.0
H347 H 0.37784 0.45287 0.82638 0.0
C348 C 0.93035 0.34529 0.23057 0.0
C349 C 0.90225 0.32127 0.21049 0.0
C350 C 0.87428 0.29045 0.26475 0.0
C351 C 0.8996 0.31734 0.285 0.0
N352 N 0.95192 0.37053 0.28829 0.0
N353 N 0.84766 0.27052 0.20736 0.0
C354 C 0.92814 0.34448 0.26828 0.0
C355 C 0.87442 0.29347 0.22727 0.0
N356 N 0.95879 0.36921 0.21357 0.0
N357 N 0.85042 0.26185 0.28155 0.0
H358 H 0.84775 0.27076 0.17969 0.0
H359 H 0.82473 0.25217 0.21807 0.0
H360 H 0.84989 0.25898 0.30904 0.0
H361 H 0.83309 0.2399 0.26841 0.0
H362 H 0.98141 0.38528 0.2265 0.0
H363 H 0.96072 0.37148 0.18603 0.0
H364 H 0.97091 0.39316 0.27771 0.0
H365 H 0.95172 0.37038 0.31594 0.0
C366 C 0.61413 0.94721 0.71869 0.0
C367 C 0.60456 0.91681 0.69981 0.0
C368 C 0.59668 0.88617 0.7556 0.0
C369 C 0.6062 0.9165 0.7745 0.0
N370 N 0.63107 0.97706 0.77504 0.0
N371 N 0.59576 0.86011 0.69924 0.0
C372 C 0.61741 0.94749 0.7563 0.0
C373 C 0.59868 0.88712 0.71801 0.0
N374 N 0.61812 0.97516 0.70097 0.0
N375 N 0.5846 0.85625 0.77353 0.0
H376 H 0.59778 0.8603 0.67164 0.0
H377 H 0.59467 0.83892 0.71103 0.0
H378 H 0.58387 0.85471 0.80115 0.0
H379 H 0.57334 0.83272 0.76114 0.0
H380 H 0.62123 0.99684 0.71359 0.0
H381 H 0.61616 0.976 0.67346 0.0
H382 H 0.64273 0.00088 0.76322 0.0
H383 H 0.63329 0.97786 0.80265 0.0
C384 C 0.71964 0.60815 0.26486 0.0
C385 C 0.69596 0.61601 0.28016 0.0
C386 C 0.67853 0.62333 0.22075 0.0
C387 C 0.69838 0.61043 0.20577 0.0
N388 N 0.73432 0.58583 0.21397 0.0
N389 N 0.65035 0.6281 0.27315 0.0
C390 C 0.71832 0.60189 0.22785 0.0
C391 C 0.67493 0.62319 0.25826 0.0
N392 N 0.74381 0.60725 0.28568 0.0
N393 N 0.66362 0.63625 0.19909 0.0
H394 H 0.64687 0.62819 0.30049 0.0
H395 H 0.63173 0.62953 0.25841 0.0
H396 H 0.66604 0.63698 0.17151 0.0
H397 H 0.65161 0.64906 0.2085 0.0
H398 H 0.76387 0.60504 0.27546 0.0
H399 H 0.74581 0.6122 0.31288 0.0
H400 H 0.74593 0.5756 0.22956 0.0
H401 H 0.73348 0.57987 0.18716 0.0
C402 C 0.07298 0.65608 0.72667 0.0
C403 C 0.09772 0.68418 0.70714 0.0
C404 C 0.11705 0.71804 0.76153 0.0
C405 C 0.09561 0.68869 0.78151 0.0
N406 N 0.05451 0.62908 0.78411 0.0
N407 N 0.14366 0.74185 0.70493 0.0
C408 C 0.07345 0.65763 0.76437 0.0
C409 C 0.11975 0.71524 0.72427 0.0
N410 N 0.04942 0.62773 0.70924 0.0
N411 N 0.13414 0.7487 0.77823 0.0
H412 H 0.14481 0.74158 0.67728 0.0
H413 H 0.16332 0.76364 0.71621 0.0
H414 H 0.13225 0.75155 0.80547 0.0
H415 H 0.14778 0.77165 0.76496 0.0
H416 H 0.02842 0.608 0.72159 0.0
H417 H 0.04935 0.62477 0.68182 0.0
H418 H 0.04138 0.60484 0.77342 0.0
H419 H 0.05356 0.62911 0.81173 0.0
C420 C 0.8794 0.59948 0.23245 0.0
C421 C 0.90888 0.61267 0.21098 0.0
C422 C 0.94458 0.62668 0.26408 0.0
C423 C 0.91512 0.61401 0.28544 0.0
N424 N 0.85595 0.59666 0.2909 0.0
N425 N 0.96958 0.64531 0.20568 0.0
C426 C 0.88297 0.60309 0.26986 0.0
C427 C 0.94155 0.62836 0.22664 0.0
N428 N 0.84798 0.58172 0.21734 0.0
N429 N 0.97512 0.63554 0.2794 0.0
H430 H 0.9681 0.64705 0.17818 0.0
H431 H 0.99398 0.66009 0.21567 0.0
H432 H 0.97837 0.6352 0.30677 0.0
H433 H 0.99678 0.64118 0.26497 0.0
H434 H 0.82582 0.56814 0.23198 0.0
H435 H 0.84407 0.57815 0.19004 0.0
H436 H 0.83265 0.59193 0.28091 0.0
H437 H 0.85781 0.59935 0.31845 0.0
C438 C 0.28324 0.93606 0.76737 0.0
C439 C 0.28026 0.90661 0.78356 0.0
C440 C 0.27398 0.88036 0.72531 0.0
C441 C 0.28194 0.91155 0.70912 0.0
N442 N 0.29473 0.96945 0.71352 0.0
N443 N 0.27325 0.85067 0.77904 0.0
C444 C 0.28624 0.93941 0.72977 0.0
C445 C 0.27547 0.87859 0.76283 0.0
N446 N 0.28325 0.96071 0.78803 0.0
N447 N 0.26423 0.85227 0.70471 0.0
H448 H 0.27227 0.84761 0.80654 0.0
H449 H 0.27409 0.83124 0.76542 0.0
H450 H 0.2625 0.85269 0.67711 0.0
H451 H 0.25493 0.828 0.71488 0.0
H452 H 0.2822 0.98143 0.7779 0.0
H453 H 0.2817 0.95913 0.81566 0.0
H454 H 0.30199 0.99189 0.72714 0.0
H455 H 0.29631 0.97242 0.686 0.0
C456 C 0.42593 0.34797 0.27392 0.0
C457 C 0.43142 0.32395 0.29243 0.0
C458 C 0.43508 0.29909 0.23619 0.0
C459 C 0.42874 0.32251 0.21757 0.0
N460 N 0.41221 0.36535 0.21846 0.0
N461 N 0.43223 0.2715 0.29214 0.0
C462 C 0.42194 0.34548 0.23639 0.0
C463 C 0.43331 0.29795 0.27381 0.0
N464 N 0.42669 0.37443 0.29182 0.0
N465 N 0.4434 0.27829 0.21803 0.0
H466 H 0.43003 0.26941 0.31972 0.0
H467 H 0.43003 0.24997 0.28001 0.0
H468 H 0.44343 0.27703 0.19045 0.0
H469 H 0.45243 0.26383 0.23024 0.0
H470 H 0.42747 0.3952 0.27935 0.0
H471 H 0.42905 0.3771 0.31929 0.0
H472 H 0.40293 0.37946 0.23094 0.0
H473 H 0.41104 0.36606 0.1909 0.0
C474 C 0.1169 0.41041 0.73552 0.0
C475 C 0.08445 0.38977 0.72032 0.0
C476 C 0.05914 0.37358 0.77957 0.0
C477 C 0.09078 0.39741 0.79453 0.0
N478 N 0.14992 0.43885 0.78784 0.0
N479 N 0.02445 0.35228 0.72644 0.0
C480 C 0.11978 0.4158 0.77279 0.0
C481 C 0.05551 0.37114 0.74196 0.0
N482 N 0.14499 0.42421 0.71424 0.0
N483 N 0.03264 0.35347 0.80138 0.0
H484 H 0.02118 0.34925 0.699 0.0
H485 H 0.0017 0.34104 0.74035 0.0
H486 H 0.03415 0.35544 0.82898 0.0
H487 H 0.00988 0.33332 0.79248 0.0
H488 H 0.16972 0.43672 0.72378 0.0
H489 H 0.14377 0.4209 0.68677 0.0
H490 H 0.17089 0.45621 0.77338 0.0
H491 H 0.15368 0.44175 0.81523 0.0
C492 C 0.70512 0.06857 0.2545 0.0
C493 C 0.68529 0.07607 0.27783 0.0
C494 C 0.65596 0.08309 0.22689 0.0
C495 C 0.67915 0.08073 0.20373 0.0
N496 N 0.72927 0.076 0.19569 0.0
N497 N 0.6473 0.09836 0.28554 0.0
C498 C 0.7046 0.07453 0.21749 0.0
C499 C 0.662 0.0853 0.2639 0.0
N500 N 0.72377 0.05499 0.26754 0.0
N501 N 0.62775 0.08254 0.21361 0.0
H502 H 0.65288 0.10286 0.31247 0.0
H503 H 0.63267 0.10843 0.276 0.0
H504 H 0.62183 0.07963 0.18662 0.0
H505 H 0.60845 0.08112 0.22968 0.0
H506 H 0.73606 0.04595 0.25135 0.0
H507 H 0.72427 0.04972 0.29442 0.0
H508 H 0.7505 0.07541 0.20506 0.0
H509 H 0.73014 0.08077 0.16853 0.0
C510 C 0.57983 0.6468 0.71712 0.0
C511 C 0.59246 0.67747 0.69763 0.0
C512 C 0.6173 0.71017 0.75185 0.0
C513 C 0.60318 0.67956 0.77139 0.0
N514 N 0.58263 0.61962 0.77133 0.0
N515 N 0.63119 0.73745 0.69406 0.0
C516 C 0.58856 0.64814 0.75351 0.0
C517 C 0.61388 0.70895 0.71429 0.0
N518 N 0.55735 0.61663 0.70186 0.0
N519 N 0.63328 0.74033 0.7695 0.0
H520 H 0.62962 0.73702 0.66641 0.0
H521 H 0.64931 0.76077 0.70419 0.0
H522 H 0.6388 0.74176 0.79654 0.0
H523 H 0.64029 0.76358 0.75772 0.0
H524 H 0.54426 0.59413 0.71608 0.0
H525 H 0.54946 0.61443 0.6756 0.0
H526 H 0.57454 0.59642 0.75891 0.0
H527 H 0.58963 0.62007 0.79774 0.0
C528 C 0.42321 0.18957 0.11392 0.0
C529 C 0.44426 0.18588 0.08859 0.0
C530 C 0.45616 0.23911 0.06001 0.0
C531 C 0.43796 0.24441 0.08739 0.0
N532 N 0.4062 0.22646 0.14215 0.0
N533 N 0.48183 0.20697 0.03824 0.0
C534 C 0.42152 0.21987 0.11449 0.0
C535 C 0.46103 0.21062 0.06179 0.0
N536 N 0.40525 0.16436 0.13795 0.0
N537 N 0.46774 0.26082 0.03173 0.0
H538 H 0.48418 0.18536 0.03713 0.0
H539 H 0.49804 0.22588 0.02086 0.0
H540 H 0.4641 0.28162 0.0295 0.0
H541 H 0.4784 0.25688 0.0091 0.0
H542 H 0.38579 0.16313 0.1535 0.0
H543 H 0.40846 0.14347 0.14134 0.0
H544 H 0.39793 0.21195 0.16517 0.0
H545 H 0.40369 0.24792 0.14365 0.0
C546 C 0.20934 0.45612 0.60378 0.0
C547 C 0.18516 0.43772 0.57697 0.0
C548 C 0.22156 0.41698 0.55323 0.0
C549 C 0.24604 0.43603 0.57948 0.0
N550 N 0.26633 0.47762 0.6263 0.0
N551 N 0.16937 0.40475 0.52324 0.0
C552 C 0.24084 0.4568 0.60374 0.0
C553 C 0.19168 0.41946 0.55067 0.0
N554 N 0.20184 0.47243 0.62967 0.0
N555 N 0.22659 0.39587 0.53146 0.0
H556 H 0.14682 0.40534 0.52123 0.0
H557 H 0.17404 0.39388 0.50126 0.0
H558 H 0.24868 0.39431 0.53199 0.0
H559 H 0.2083 0.3785 0.51429 0.0
H560 H 0.21622 0.48243 0.65256 0.0
H561 H 0.18009 0.47458 0.62932 0.0
H562 H 0.26578 0.49622 0.6418 0.0
H563 H 0.28935 0.47797 0.6279 0.0
C564 C 0.78734 0.2397 0.05644 0.0
C565 C 0.81258 0.24518 0.08184 0.0
C566 C 0.77683 0.18842 0.10617 0.0
C567 C 0.75197 0.18245 0.08001 0.0
N568 N 0.73631 0.19906 0.02564 0.0
N569 N 0.83489 0.22255 0.1256 0.0
C570 C 0.75803 0.20715 0.05374 0.0
C571 C 0.80858 0.21871 0.10477 0.0
N572 N 0.79123 0.26575 0.0352 0.0
N573 N 0.76937 0.1664 0.13391 0.0
H574 H 0.85816 0.2448 0.12685 0.0
H575 H 0.83462 0.20268 0.13957 0.0
H576 H 0.74627 0.14415 0.13669 0.0
H577 H 0.78491 0.17161 0.15605 0.0
H578 H 0.772 0.26467 0.01929 0.0
H579 H 0.81336 0.28927 0.03477 0.0
H580 H 0.74097 0.21479 0.0038 0.0
H581 H 0.71494 0.17521 0.02256 0.0
C582 C 0.51449 0.73127 0.57439 0.0
C583 C 0.5383 0.73047 0.55072 0.0
C584 C 0.55283 0.78653 0.52789 0.0
C585 C 0.53219 0.78894 0.55463 0.0
N586 N 0.49359 0.76458 0.6038 0.0
N587 N 0.58175 0.75741 0.50629 0.0
C588 C 0.51294 0.76149 0.57791 0.0
C589 C 0.55757 0.75791 0.52739 0.0
N590 N 0.49267 0.7027 0.59269 0.0
N591 N 0.56816 0.81178 0.50328 0.0
H592 H 0.58576 0.73681 0.50504 0.0
H593 H 0.5994 0.77811 0.4917 0.0
H594 H 0.56647 0.83376 0.50379 0.0
H595 H 0.58059 0.81005 0.4809 0.0
H596 H 0.47236 0.7003 0.60759 0.0
H597 H 0.49311 0.68015 0.59057 0.0
H598 H 0.48256 0.74748 0.6246 0.0
H599 H 0.48971 0.78525 0.60552 0.0
C600 C 0.76571 0.5617 0.04041 0.0
C601 C 0.7404 0.54207 0.06577 0.0
C602 C 0.77756 0.52362 0.09267 0.0
C603 C 0.8027 0.54287 0.06704 0.0
N604 N 0.81884 0.57473 0.01244 0.0
N605 N 0.71874 0.49847 0.11051 0.0
C606 C 0.79604 0.55995 0.03941 0.0
C607 C 0.74532 0.52127 0.0903 0.0
N608 N 0.76166 0.58356 0.01878 0.0
N609 N 0.78471 0.50797 0.11958 0.0
H610 H 0.6946 0.49568 0.10894 0.0
H611 H 0.71962 0.48022 0.12639 0.0
H612 H 0.80712 0.50704 0.1208 0.0
H613 H 0.76924 0.49734 0.14166 0.0
H614 H 0.78076 0.60145 0.00268 0.0
H615 H 0.73989 0.58567 0.01875 0.0
H616 H 0.81391 0.58442 0.98959 0.0
H617 H 0.84184 0.57498 0.0115 0.0
C618 C 0.23322 0.80231 0.53387 0.0
C619 C 0.25222 0.81147 0.56579 0.0
C620 C 0.21349 0.75607 0.59141 0.0
C621 C 0.19208 0.74838 0.56126 0.0
N622 N 0.17919 0.76584 0.50558 0.0
N623 N 0.2597 0.79869 0.6262 0.0
C624 C 0.20146 0.77176 0.5327 0.0
C625 C 0.24213 0.7888 0.59491 0.0
N626 N 0.24546 0.82291 0.50481 0.0
N627 N 0.20728 0.73162 0.61607 0.0
H628 H 0.28228 0.82146 0.62923 0.0
H629 H 0.25084 0.78528 0.64986 0.0
H630 H 0.18687 0.70716 0.61442 0.0
H631 H 0.22403 0.73448 0.63638 0.0
H632 H 0.23467 0.81599 0.47966 0.0
H633 H 0.26803 0.84604 0.50523 0.0
H634 H 0.18301 0.7836 0.48609 0.0
H635 H 0.15539 0.74419 0.50405 0.0
C636 C 0.77648 0.52084 0.42357 0.0
C637 C 0.80608 0.54854 0.43804 0.0
C638 C 0.77486 0.57804 0.45155 0.0
C639 C 0.74539 0.55063 0.43648 0.0
N640 N 0.71573 0.49315 0.41479 0.0
N641 N 0.83248 0.59957 0.47266 0.0
C642 C 0.74536 0.52097 0.42497 0.0
C643 C 0.80492 0.57595 0.45426 0.0
N644 N 0.77858 0.49548 0.40643 0.0
N645 N 0.77416 0.60628 0.46254 0.0
H646 H 0.85457 0.5982 0.47535 0.0
H647 H 0.83263 0.61877 0.48772 0.0
H648 H 0.75201 0.60774 0.46299 0.0
H649 H 0.7956 0.62875 0.46987 0.0
H650 H 0.75907 0.4769 0.39127 0.0
H651 H 0.8007 0.49403 0.40539 0.0
H652 H 0.71335 0.46955 0.41013 0.0
H653 H 0.6927 0.49278 0.4134 0.0
C654 C 0.20772 0.74533 0.91979 0.0
C655 C 0.18104 0.74928 0.93397 0.0
C656 C 0.22086 0.80866 0.94759 0.0
C657 C 0.24642 0.80588 0.929 0.0
N658 N 0.26433 0.77269 0.89505 0.0
N659 N 0.16101 0.78401 0.96083 0.0
C660 C 0.24012 0.77438 0.91498 0.0
C661 C 0.18731 0.78074 0.94796 0.0
N662 N 0.20195 0.7139 0.91043 0.0
N663 N 0.22899 0.83782 0.96551 0.0
H664 H 0.13646 0.76356 0.96332 0.0
H665 H 0.16301 0.8071 0.96745 0.0
H666 H 0.2535 0.85852 0.96605 0.0
H667 H 0.21239 0.84058 0.98231 0.0
H668 H 0.22113 0.70877 0.90378 0.0
H669 H 0.17818 0.6922 0.91179 0.0
H670 H 0.25993 0.75155 0.88035 0.0
H671 H 0.28847 0.79329 0.89105 0.0
C672 C 0.43275 0.20131 0.45929 0.0
C673 C 0.45304 0.1937 0.43683 0.0
C674 C 0.47826 0.25003 0.41001 0.0
C675 C 0.45912 0.25827 0.43353 0.0
N676 N 0.42312 0.24467 0.48489 0.0
N677 N 0.50057 0.21282 0.39706 0.0
C678 C 0.43786 0.23476 0.45955 0.0
C679 C 0.47751 0.21873 0.41411 0.0
N680 N 0.40761 0.17626 0.47909 0.0
N681 N 0.49567 0.27121 0.38251 0.0
H682 H 0.50103 0.19025 0.39974 0.0
H683 H 0.52122 0.23138 0.38309 0.0
H684 H 0.49673 0.29432 0.37822 0.0
H685 H 0.50669 0.2646 0.36212 0.0
H686 H 0.38945 0.17925 0.49283 0.0
H687 H 0.40333 0.15155 0.47982 0.0
H688 H 0.41009 0.22985 0.50669 0.0
H689 H 0.42642 0.26902 0.48582 0.0
C690 C 0.25597 0.48965 0.9344 0.0
C691 C 0.25573 0.46372 0.95544 0.0
C692 C 0.19722 0.44471 0.97345 0.0
C693 C 0.19597 0.46717 0.94819 0.0
N694 N 0.22342 0.51114 0.90431 0.0
N695 N 0.22634 0.41544 0.99404 0.0
C696 C 0.22525 0.48987 0.92874 0.0
C697 C 0.2266 0.44127 0.97526 0.0
N698 N 0.28587 0.51452 0.9206 0.0
N699 N 0.17021 0.42648 0.99539 0.0
H700 H 0.24746 0.41233 0.99628 0.0
H701 H 0.2047 0.3958 0.00559 0.0
H702 H 0.14798 0.42772 0.99405 0.0
H703 H 0.17072 0.41221 0.01672 0.0
H704 H 0.28851 0.53595 0.9078 0.0
H705 H 0.30892 0.51533 0.92482 0.0
H706 H 0.24246 0.52515 0.88601 0.0
H707 H 0.20201 0.51364 0.90113 0.0
C708 C 0.77618 0.17195 0.39199 0.0
C709 C 0.7443 0.16666 0.40363 0.0
C710 C 0.77123 0.22542 0.42426 0.0
C711 C 0.80138 0.23214 0.40645 0.0
N712 N 0.83129 0.21227 0.36925 0.0
N713 N 0.71096 0.18766 0.43201 0.0
C714 C 0.80379 0.20549 0.38967 0.0
C715 C 0.74171 0.19321 0.42026 0.0
N716 N 0.78024 0.14517 0.38291 0.0
N717 N 0.77121 0.24951 0.44585 0.0
H718 H 0.6894 0.16369 0.43237 0.0
H719 H 0.70648 0.20693 0.44008 0.0
H720 H 0.79275 0.273 0.45013 0.0
H721 H 0.75099 0.24517 0.46215 0.0
H722 H 0.8038 0.14753 0.37778 0.0
H723 H 0.76086 0.12013 0.38424 0.0
H724 H 0.83219 0.19436 0.35281 0.0
H725 H 0.85205 0.23636 0.36583 0.0
C726 C 0.53712 0.74508 0.90949 0.0
C727 C 0.56419 0.74452 0.89141 0.0
C728 C 0.58503 0.80292 0.87173 0.0
C729 C 0.55489 0.80103 0.88445 0.0
N730 N 0.50107 0.77007 0.91412 0.0
N731 N 0.61154 0.77181 0.85063 0.0
C732 C 0.53058 0.77203 0.90303 0.0
C733 C 0.58787 0.7733 0.87165 0.0
N734 N 0.51842 0.72045 0.93376 0.0
N735 N 0.61093 0.83292 0.85944 0.0
H736 H 0.61451 0.75069 0.84871 0.0
H737 H 0.62635 0.79056 0.83235 0.0
H738 H 0.60964 0.85509 0.85845 0.0
H739 H 0.63485 0.83656 0.85344 0.0
H740 H 0.50036 0.72113 0.95013 0.0
H741 H 0.52346 0.70111 0.94022 0.0
H742 H 0.48067 0.74799 0.92404 0.0
H743 H 0.49619 0.79004 0.91142 0.0
C744 C 0.37232 0.99388 0.97008 0.0
C745 C 0.33905 0.96575 0.97235 0.0
C746 C 0.32811 0.98975 0.02554 0.0
C747 C 0.36089 0.01845 0.0223 0.0
N748 N 0.41064 0.05201 0.98676 0.0
N749 N 0.28283 0.93999 0.9971 0.0
C750 C 0.38188 0.02182 0.99302 0.0
C751 C 0.31614 0.96463 -0.00145 0.0
N752 N 0.39547 0.99317 0.94749 0.0
N753 N 0.30909 0.98571 0.05512 0.0
H754 H 0.2732 0.92146 0.97739 0.0
H755 H 0.2642 0.93971 0.01334 0.0
H756 H 0.31689 0.00375 0.07526 0.0
H757 H 0.28672 0.96349 0.06094 0.0
H758 H 0.42111 0.01128 0.9478 0.0
H759 H 0.38986 0.97296 0.93057 0.0
H760 H 0.42515 0.057 0.96384 0.0
H761 H 0.41814 0.07328 0.00273 0.0
C762 C 0.40069 0.38718 0.49726 0.0
C763 C 0.38683 0.35205 0.49129 0.0
C764 C 0.33709 0.33985 0.52707 0.0
C765 C 0.35206 0.37485 0.53481 0.0
N766 N 0.40149 0.4307 0.53456 0.0
N767 N 0.34474 0.29433 0.50398 0.0
C768 C 0.38482 0.39825 0.52191 0.0
C769 C 0.35587 0.32813 0.50731 0.0
N770 N 0.42867 0.41005 0.47882 0.0
N771 N 0.30457 0.3181 0.53749 0.0
H772 H 0.35755 0.28499 0.48896 0.0
H773 H 0.32425 0.27565 0.51801 0.0
H774 H 0.29024 0.32587 0.55219 0.0
H775 H 0.29091 0.29292 0.52952 0.0
H776 H 0.43756 0.43599 0.47899 0.0
H777 H 0.44146 0.40293 0.46097 0.0
H778 H 0.42678 0.44779 0.52897 0.0
H779 H 0.39128 0.43965 0.5536 0.0
C780 C 0.0314 0.40103 0.9931 0.0
C781 C 0.03775 0.37988 0.97059 0.0
C782 C 0.98848 0.32988 0.99527 0.0
C783 C 0.97987 0.35141 0.01428 0.0
N784 N 0.98958 0.40771 0.02597 0.0
N785 N 0.0204 0.32452 0.94669 0.0
C786 C 0.0004 0.38708 0.01188 0.0
C787 C 0.01589 0.34432 0.97081 0.0
N788 N 0.05544 0.43431 0.99737 0.0
N789 N 0.97112 0.29578 0.00133 0.0
H790 H 0.04022 0.33419 0.92841 0.0
H791 H 0.00305 0.29897 0.94292 0.0
H792 H 0.95102 0.28436 0.01921 0.0
H793 H 0.97846 0.27921 0.99105 0.0
H794 H 0.05349 0.45003 0.01613 0.0
H795 H 0.07898 0.44532 0.98485 0.0
H796 H 0.00186 0.43372 0.02152 0.0
H797 H 0.96651 0.39862 0.03912 0.0
C798 C 0.61237 0.96803 0.46793 0.0
C799 C 0.64535 0.99642 0.4719 0.0
C800 C 0.65407 0.97191 0.52613 0.0
C801 C 0.62124 0.94356 0.52189 0.0
N802 N 0.57312 0.90999 0.48437 0.0
N803 N 0.70047 0.02197 0.49929 0.0
C804 C 0.60171 0.94014 0.49127 0.0
C805 C 0.66715 0.99727 0.49933 0.0
N806 N 0.59038 0.96848 0.44346 0.0
N807 N 0.67205 0.97534 0.55642 0.0
H808 H 0.71084 0.04062 0.47971 0.0
H809 H 0.71845 0.02223 0.51658 0.0
H810 H 0.66359 0.95678 0.57609 0.0
H811 H 0.69434 0.99732 0.56307 0.0
H812 H 0.56477 0.95034 0.44256 0.0
H813 H 0.59681 0.98832 0.42575 0.0
H814 H 0.55968 0.90478 0.46064 0.0
H815 H 0.56477 0.88898 0.50093 0.0
C816 C 0.66982 0.66424 0.03298 0.0
C817 C 0.67204 0.63461 0.02754 0.0
C818 C 0.64305 0.62496 0.97039 0.0
C819 C 0.64166 0.65516 0.97521 0.0
N820 N 0.66057 0.70759 0.00665 0.0
N821 N 0.6695 0.59227 0.98746 0.0
C822 C 0.65725 0.67611 0.00516 0.0
C823 C 0.66149 0.61679 0.99499 0.0
N824 N 0.678 0.68 0.06527 0.0
N825 N 0.62501 0.6029 0.94375 0.0
H826 H 0.6835 0.58609 0.00478 0.0
H827 H 0.6654 0.58066 0.96273 0.0
H828 H 0.61047 0.60728 0.92543 0.0
H829 H 0.62196 0.57874 0.94171 0.0
H830 H 0.67307 0.69925 0.07217 0.0
H831 H 0.68761 0.67229 0.08617 0.0
H832 H 0.67459 0.72535 0.02609 0.0
H833 H 0.65196 0.71716 0.98649 0.0
C834 C 0.02864 0.66634 0.48241 0.0
C835 C 0.02617 0.64369 0.50963 0.0
C836 C 0.96841 0.60276 0.49113 0.0
C837 C 0.97048 0.6258 0.46451 0.0
N838 N -0.00034 0.68095 0.43748 0.0
N839 N 0.99289 0.59303 0.54396 0.0
C840 C -0.00026 0.65813 0.46102 0.0
C841 C 0.99577 0.61267 0.5152 0.0
N842 N 0.05887 0.69518 0.47651 0.0
N843 N 0.94054 0.57109 0.49283 0.0
H844 H 0.01273 0.59893 0.56162 0.0
H845 H 0.97026 0.57211 0.55193 0.0
H846 H 0.91904 0.56352 0.47717 0.0
H847 H 0.93922 0.55157 0.50835 0.0
H848 H 0.06359 0.71112 0.45486 0.0
H849 H 0.0802 0.70231 0.49234 0.0
H850 H 0.01882 0.70609 0.43586 0.0
H851 H 0.97909 0.67533 0.42098 0.0
C852 C 0.61225 0.95961 0.98292 0.0
C853 C 0.62763 0.96734 0.94898 0.0
C854 C 0.66784 0.02484 0.96853 0.0
C855 C 0.64947 0.01847 0.00074 0.0
N856 N 0.60156 0.98095 0.03718 0.0
N857 N 0.66842 0.00728 0.90785 0.0
C858 C 0.62115 0.98606 0.00779 0.0
C859 C 0.65517 -9e-05 0.94136 0.0
N860 N 0.58945 0.92681 0.99153 0.0
N861 N 0.69791 0.05428 0.96444 0.0
H862 H 0.66034 0.98928 0.88762 0.0
H863 H 0.68584 0.03163 0.89943 0.0
H864 H 0.70821 0.07283 0.98409 0.0
H865 H 0.71414 0.05905 0.94305 0.0
H866 H 0.58011 0.91904 0.0171 0.0
H867 H 0.58223 0.90676 0.97385 0.0
H868 H 0.57832 0.95914 0.04129 0.0
H869 H 0.6069 -0.00052 0.05624 0.0
C870 C 0.62935 0.63438 0.45722 0.0
C871 C 0.65902 0.6329 0.46546 0.0
C872 C 0.66628 0.66438 0.52052 0.0
C873 C 0.63664 0.66584 0.51219 0.0
N874 N 0.59588 0.66131 0.46867 0.0
N875 N 0.71046 0.65376 0.49937 0.0
C876 C 0.6202 0.65387 0.47911 0.0
C877 C 0.67908 0.65036 0.49534 0.0
N878 N 0.60863 0.6154 0.43009 0.0
N879 N 0.68101 0.6744 0.5532 0.0
H880 H 0.72058 0.64399 0.48111 0.0
H881 H 0.72765 0.66891 0.51875 0.0
H882 H 0.67266 0.68514 0.57227 0.0
H883 H 0.70011 0.67006 0.56233 0.0
H884 H 0.58472 0.61244 0.42566 0.0
H885 H 0.61396 0.60032 0.41359 0.0
H886 H 0.58514 0.65603 0.44341 0.0
H887 H 0.58899 0.67592 0.48412 0.0
C888 C 0.9515 0.62111 0.98914 0.0
C889 C 0.95748 0.63743 0.0226 0.0
C890 C 0.01719 0.67454 0.00758 0.0
C891 C 0.01135 0.65779 0.97441 0.0
N892 N 0.97219 0.62066 0.93003 0.0
N893 N 0.99303 0.68372 0.06109 0.0
C894 C 0.97815 0.6331 0.9639 0.0
C895 C 0.98948 0.66554 0.03095 0.0
N896 N 0.92111 0.59266 0.98247 0.0
N897 N 0.04937 0.69853 0.01691 0.0
H898 H 0.97294 0.67765 0.07845 0.0
H899 H 0.01481 0.70625 0.06753 0.0
H900 H 0.06983 0.70731 -0.00053 0.0
H901 H 0.05621 0.70889 0.04221 0.0
H902 H 0.91663 0.57701 0.96063 0.0
H903 H 0.90074 0.58315 2e-05 0.0
H904 H 0.94802 0.60559 0.91961 0.0
H905 H 0.99122 0.62743 0.9112 0.0
C906 C 0.31927 0.9735 0.49287 0.0
C907 C 0.33963 0.97786 0.52313 0.0
C908 C 0.3765 0.03733 0.50732 0.0
C909 C 0.35983 0.03122 0.47413 0.0
N910 N 0.31645 0.99295 0.43376 0.0
N911 N 0.39014 0.01312 0.5574 0.0
C912 C 0.33116 -0.0007 0.4666 0.0
C913 C 0.36869 0.00971 0.53026 0.0
N914 N 0.28832 0.94493 0.48959 0.0
N915 N 0.39966 0.06967 0.51691 0.0
H916 H 0.38609 0.99341 0.57441 0.0
H917 H 0.41362 0.03475 0.56114 0.0
H918 H 0.40542 0.09048 0.50077 0.0
H919 H 0.41036 0.07616 0.54215 0.0
H920 H 0.27093 0.94172 0.46986 0.0
H921 H 0.27866 0.92578 0.50867 0.0
H922 H 0.29815 0.96894 0.42536 0.0
H923 H 0.32415 0.01127 0.41391 0.0
C924 C 0.35996 0.37388 0.03807 0.0
C925 C 0.36044 0.34401 0.02837 0.0
C926 C 0.32915 0.33977 0.97385 0.0
C927 C 0.32777 0.369 0.98422 0.0
N928 N 0.33324 0.408 0.03028 0.0
N929 N 0.3383 0.2939 0.99212 0.0
C930 C 0.34035 0.38409 0.01775 0.0
C931 C 0.34267 0.32544 -0.00215 0.0
N932 N 0.37994 0.39381 0.06514 0.0
N933 N 0.31955 0.32687 0.9404 0.0
H934 H 0.34756 0.28254 0.00947 0.0
H935 H 0.32275 0.27777 0.97223 0.0
H936 H 0.30966 0.3366 0.92185 0.0
H937 H 0.32382 0.30813 0.93007 0.0
H938 H 0.38347 0.41776 0.07054 0.0
H939 H 0.39549 0.38794 0.08023 0.0
H940 H 0.339 0.41762 0.056 0.0
H941 H 0.31837 0.41557 0.0162 0.0
C942 C 0.00241 0.40199 0.52315 0.0
C943 C 0.01868 0.38346 0.53255 0.0
C944 C 0.9762 0.33443 0.49931 0.0
C945 C 0.96238 0.35438 0.48675 0.0
N946 N 0.96594 0.40887 0.48141 0.0
N947 N 0.02381 0.33349 0.52718 0.0
C948 C 0.97638 0.38862 0.49731 0.0
C949 C 0.00624 0.34995 0.52016 0.0
N950 N 0.01114 0.43193 0.53974 0.0
N951 N 0.96009 0.30055 0.49208 0.0
H952 H 0.04569 0.34398 0.54271 0.0
H953 H 0.01817 0.31052 0.51563 0.0
H954 H 0.93813 0.28846 0.47672 0.0
H955 H 0.96684 0.28395 0.50353 0.0
H956 H -0.0023 0.44474 0.53663 0.0
H957 H 0.02974 0.44233 0.55938 0.0
H958 H 0.97785 0.43493 0.48526 0.0
H959 H 0.94746 0.40026 0.46169 0.0
C960 C 0.5403 0.09284 0.12345 0.0
C961 C 0.51416 0.07284 0.09902 0.0
C962 C 0.54914 0.05132 0.07317 0.0
C963 C 0.57538 0.07155 0.09737 0.0
N964 N 0.59944 0.11717 0.13979 0.0
N965 N 0.4962 0.03946 0.04551 0.0
C966 C 0.57212 0.09424 0.12058 0.0
C967 C 0.51931 0.05391 0.07234 0.0
N968 N 0.53415 0.10895 0.15059 0.0
N969 N 0.55266 0.02939 0.05123 0.0
H970 H 0.47441 0.0415 0.04369 0.0
H971 H 0.49994 0.0281 0.02335 0.0
H972 H 0.57516 0.02875 0.04914 0.0
H973 H 0.53293 0.01082 0.03627 0.0
H974 H 0.5507 0.12046 0.17174 0.0
H975 H 0.51129 0.10874 0.15353 0.0
H976 H 0.59968 0.13664 0.15445 0.0
H977 H 0.62299 0.11862 0.13863 0.0
C978 C 0.43137 0.57569 0.60139 0.0
C979 C 0.46212 0.57732 0.6116 0.0
C980 C 0.43132 0.5173 0.62818 0.0
C981 C 0.40033 0.51666 0.62122 0.0
N982 N 0.37001 0.5452 0.60365 0.0
N983 N 0.49193 0.55105 0.63728 0.0
C984 C 0.40011 0.5459 0.60864 0.0
C985 C 0.46231 0.54839 0.62534 0.0
N986 N 0.43225 0.60208 0.58317 0.0
N987 N 0.43115 0.48821 0.63763 0.0
H988 H 0.51537 0.5729 0.63448 0.0
H989 H 0.49326 0.53238 0.65195 0.0
H990 H 0.4091 0.46546 0.6429 0.0
H991 H 0.45278 0.48595 0.63841 0.0
H992 H 0.41105 0.60139 0.57186 0.0
H993 H 0.45483 0.6237 0.57631 0.0
H994 H 0.36811 0.56669 0.59878 0.0
H995 H 0.34655 0.52328 0.60636 0.0
C996 C 0.91114 0.43698 0.14609 0.0
C997 C 0.90942 0.42265 0.11216 0.0
C998 C 0.88661 0.45677 0.0869 0.0
C999 C 0.89243 0.47408 0.11971 0.0
N1000 N 0.91629 0.48492 0.17882 0.0
N1001 N 0.90071 0.42272 0.04893 0.0
C1002 C 0.90621 0.46529 0.14894 0.0
C1003 C 0.89843 0.43347 0.08216 0.0
N1004 N 0.9163 0.4229 0.17583 0.0
N1005 N 0.8689 0.46187 0.06062 0.0
H1006 H 0.90989 0.4062 0.0442 0.0
H1007 H 0.8965 0.43263 0.0258 0.0
H1008 H 0.85923 0.47822 0.06346 0.0
H1009 H 0.86093 0.44747 0.03749 0.0
H1010 H 0.91405 0.43006 0.20149 0.0
H1011 H 0.91952 0.40181 0.17514 0.0
H1012 H 0.92994 0.48177 0.19924 0.0
H1013 H 0.91401 0.50643 0.18188 0.0
C1014 C 0.3929 0.84874 0.61892 0.0
C1015 C 0.39656 0.88123 0.62437 0.0
C1016 C 0.45828 0.90649 0.62695 0.0
C1017 C 0.45439 0.87366 0.62447 0.0
N1018 N 0.41848 0.81309 0.6222 0.0
N1019 N 0.43183 0.94017 0.63948 0.0
C1020 C 0.4218 0.84461 0.62176 0.0
C1021 C 0.42904 0.90996 0.62974 0.0
N1022 N 0.36205 0.82216 0.60953 0.0
N1023 N 0.48996 0.9344 0.62665 0.0
H1024 H 0.41103 0.9437 0.64241 0.0
H1025 H 0.45441 0.96102 0.64772 0.0
H1026 H 0.51213 0.93299 0.62677 0.0
H1027 H 0.49437 0.959 0.62391 0.0
H1028 H 0.35838 0.79871 0.60154 0.0
H1029 H 0.34041 0.8243 0.60673 0.0
H1030 H 0.3953 0.79085 0.62445 0.0
H1031 H 0.43918 0.80916 0.62267 0.0
C1032 C 0.54838 0.46877 0.13183 0.0
C1033 C 0.56171 0.48035 0.09738 0.0
C1034 C 0.51039 0.43417 0.07066 0.0
C1035 C 0.4983 0.42105 0.10508 0.0
N1036 N 0.50823 0.42225 0.16821 0.0
N1037 N 0.55852 0.47148 0.03411 0.0
C1038 C 0.51799 0.43732 0.13564 0.0
C1039 C 0.5436 0.46228 0.06678 0.0
N1040 N 0.56386 0.48855 0.16085 0.0
N1041 N 0.48957 0.42083 0.04186 0.0
H1042 H 0.58286 0.49192 0.03031 0.0
H1043 H 0.54806 0.45717 0.01125 0.0
H1044 H 0.46487 0.40058 0.04366 0.0
H1045 H 0.49562 0.43167 0.01667 0.0
H1046 H 0.55314 0.48327 0.1861 0.0
H1047 H 0.58608 0.5119 0.15932 0.0
H1048 H 0.52354 0.43094 0.1907 0.0
H1049 H 0.48604 0.39934 0.17232 0.0
C1050 C 0.09916 0.5391 0.64163 0.0
C1051 C 0.1159 0.52747 0.61873 0.0
C1052 C 0.13159 0.57582 0.57927 0.0
C1053 C 0.11809 0.58931 0.60414 0.0
N1054 N 0.09512 0.58707 0.6626 0.0
N1055 N 0.15327 0.5376 0.56918 0.0
C1056 C 0.10348 0.57185 0.63633 0.0
C1057 C 0.13355 0.5466 0.58843 0.0
N1058 N 0.07805 0.51841 0.66763 0.0
N1059 N 0.14142 0.59019 0.54641 0.0
H1060 H 0.156 0.51685 0.57569 0.0
H1061 H 0.16944 0.55252 0.54899 0.0
H1062 H 0.13971 0.61123 0.53844 0.0
H1063 H 0.14816 0.57937 0.52593 0.0
H1064 H 0.06235 0.52424 0.68249 0.0
H1065 H 0.0737 0.49398 0.67213 0.0
H1066 H 0.08787 0.57693 0.68799 0.0
H1067 H 0.09856 0.61136 0.66034 0.0
C1068 C 0.90471 0.46018 0.35124 0.0
C1069 C 0.90482 0.47748 0.38253 0.0
C1070 C 0.89926 0.43031 0.41888 0.0
C1071 C 0.90427 0.41554 0.38804 0.0
N1072 N 0.91182 0.41571 0.32465 0.0
N1073 N 0.90561 0.48115 0.4465 0.0
C1074 C 0.90691 0.43025 0.35411 0.0
C1075 C 0.90254 0.46294 0.4165 0.0
N1076 N 0.90132 0.47181 0.31886 0.0
N1077 N 0.8915 0.41324 0.45044 0.0
H1078 H 0.90838 0.50527 0.446 0.0
H1079 H 0.90821 0.47361 0.47186 0.0
H1080 H 0.88941 0.38953 0.45331 0.0
H1081 H 0.88419 0.42113 0.47301 0.0
H1082 H 0.89771 0.45863 0.29521 0.0
H1083 H 0.89906 0.49337 0.31588 0.0
H1084 H 0.91843 0.42739 0.2999 0.0
H1085 H 0.91066 0.3923 0.32528 0.0
C1086 C 0.45162 0.89966 0.84087 0.0
C1087 C 0.45625 0.8737 0.85596 0.0
C1088 C 0.39849 0.84608 0.8798 0.0
C1089 C 0.39328 0.87092 0.86281 0.0
N1090 N 0.41202 0.91722 0.82138 0.0
N1091 N 0.4333 0.81967 0.88522 0.0
C1092 C 0.41903 0.89654 0.84165 0.0
C1093 C 0.42944 0.84615 0.8742 0.0
N1094 N 0.4787 0.92804 0.82718 0.0
N1095 N 0.3743 0.82315 0.90216 0.0
H1096 H 0.45573 0.81907 0.88172 0.0
H1097 H 0.41364 0.79719 0.89534 0.0
H1098 H 0.35114 0.82205 0.90634 0.0
H1099 H 0.37798 0.80678 0.91843 0.0
H1100 H 0.47765 0.94948 0.81956 0.0
H1101 H 0.50312 0.93151 0.82626 0.0
H1102 H 0.42859 0.93383 0.80241 0.0
H1103 H 0.38837 0.91567 0.82109 0.0
C1104 C 0.52967 0.44341 0.35838 0.0
C1105 C 0.51559 0.43232 0.39269 0.0
C1106 C 0.56167 0.48388 0.41911 0.0
C1107 C 0.57649 0.49432 0.38498 0.0
N1108 N 0.5788 0.48126 0.32338 0.0
N1109 N 0.52107 0.43814 0.4563 0.0
C1110 C 0.56163 0.47334 0.3549 0.0
C1111 C 0.53259 0.45131 0.42329 0.0
N1112 N 0.51238 0.42538 0.32908 0.0
N1113 N 0.57434 0.50576 0.44715 0.0
H1114 H 0.49966 0.41453 0.46031 0.0
H1115 H 0.53427 0.44919 0.4796 0.0
H1116 H 0.59532 0.52999 0.44507 0.0
H1117 H 0.56246 0.50112 0.47176 0.0
H1118 H 0.51895 0.4343 0.3032 0.0
H1119 H 0.49027 0.40198 0.33066 0.0
H1120 H 0.57106 0.46522 0.30147 0.0
H1121 H 0.60255 0.50267 0.31994 0.0
C1122 C 0.09852 0.55274 0.86632 0.0
C1123 C 0.07956 0.52536 0.8898 0.0
C1124 C 0.05396 0.55627 0.91693 0.0
C1125 C 0.0706 0.58226 0.89135 0.0
N1126 N 0.10545 0.604 0.83902 0.0
N1127 N 0.03824 0.49956 0.93655 0.0
C1128 C 0.09228 0.58035 0.86551 0.0
C1129 C 0.05694 0.52669 0.91484 0.0
N1130 N 0.1224 0.5523 0.84468 0.0
N1131 N 0.03641 0.56055 0.94398 0.0
H1132 H 0.04163 0.47857 0.93784 0.0
H1133 H 0.01829 0.497 0.9522 0.0
H1134 H 0.03368 0.58188 0.94626 0.0
H1135 H 0.02663 0.54436 0.96566 0.0
H1136 H 0.13991 0.57316 0.83017 0.0
H1137 H 0.12636 0.5317 0.84286 0.0
H1138 H 0.118 0.60192 0.81694 0.0
H1139 H 0.10164 0.62469 0.83751 0.0
C1140 C 0.56771 0.09313 0.36694 0.0
C1141 C 0.57234 0.07071 0.38921 0.0
C1142 C 0.52079 0.05771 0.42188 0.0
C1143 C 0.51351 0.07592 0.39609 0.0
N1144 N 0.52818 0.10809 0.34149 0.0
N1145 N 0.55286 0.02999 0.4369 0.0
C1146 C 0.5366 0.09317 0.36807 0.0
C1147 C 0.54894 0.05275 0.4167 0.0
N1148 N 0.59348 0.11504 0.3454 0.0
N1149 N 0.50132 0.04598 0.45179 0.0
H1150 H 0.57367 0.02642 0.43456 0.0
H1151 H 0.53449 0.01313 0.45439 0.0
H1152 H 0.48085 0.04968 0.45669 0.0
H1153 H 0.50728 0.03543 0.47321 0.0
H1154 H 0.59284 0.13422 0.33095 0.0
H1155 H 0.61702 0.11642 0.34505 0.0
H1156 H 0.54226 0.11738 0.31828 0.0
H1157 H 0.50565 0.10875 0.34108 0.0
C1158 C 0.49471 0.55488 0.90611 0.0
C1159 C 0.49651 0.57903 0.88105 0.0
C1160 C 0.4359 0.54363 0.86864 0.0
C1161 C 0.43359 0.52089 0.89571 0.0
N1162 N 0.45913 0.50864 0.94549 0.0
N1163 N 0.46754 0.60031 0.84465 0.0
C1164 C 0.46252 0.52765 0.91606 0.0
C1165 C 0.4667 0.57458 0.86413 0.0
N1166 N 0.52371 0.5569 0.91908 0.0
N1167 N 0.40933 0.53504 0.84601 0.0
H1168 H 0.48945 0.62371 0.8414 0.0
H1169 H 0.44586 0.5997 0.83478 0.0
H1170 H 0.38648 0.51234 0.84781 0.0
H1171 H 0.41108 0.54899 0.82339 0.0
H1172 H 0.5239 0.53795 0.93441 0.0
H1173 H 0.54786 0.57592 0.91186 0.0
H1174 H 0.47877 0.51459 0.96339 0.0
H1175 H 0.43585 0.48884 0.95399 0.0
loop_
_geom_bond_atom_site_label_1
_geom_bond_atom_site_label_2
_geom_bond_distance
_geom_bond_site_symmetry_2
_ccdc_geom_bond_type
C0 O1 1.160 . S
C0 O7 1.185 . S
O1 C0 1.160 . S
O2 Zn3 1.899 . S
O2 C10 1.284 . S
Zn3 O2 1.899 . S
Zn3 O4 2.032 . S
Zn3 O7 2.086 . S
Zn3 O12 1.977 . S
O4 Zn3 2.032 . S
O4 C8 1.278 . S
C5 O6 1.203 . S
C5 O12 1.267 . S
O6 C5 1.203 . S
O7 C0 1.185 . S
O7 Zn3 2.086 . S
C8 O4 1.278 . S
C8 O9 1.211 . S
O9 C8 1.211 . S
C10 O2 1.284 . S
C10 O11 1.273 . S
O11 C10 1.273 . S
O12 Zn3 1.977 . S
O12 C5 1.267 . S
C13 O14 1.160 . S
C13 O20 1.185 . S
O14 C13 1.160 . S
O15 Zn16 1.899 . S
O15 C23 1.284 . S
Zn16 O15 1.899 . S
Zn16 O17 2.032 . S
Zn16 O20 2.086 . S
Zn16 O25 1.977 . S
O17 Zn16 2.032 . S
O17 C21 1.278 . S
C18 O19 1.203 . S
C18 O25 1.267 . S
O19 C18 1.203 . S
O20 C13 1.185 . S
O20 Zn16 2.086 . S
C21 O17 1.278 . S
C21 O22 1.211 . S
O22 C21 1.211 . S
C23 O15 1.284 . S
C23 O24 1.273 . S
O24 C23 1.273 . S
O25 Zn16 1.977 . S
O25 C18 1.267 . S
C26 O27 1.160 . S
C26 O33 1.185 . S
O27 C26 1.160 . S
O28 Zn29 1.899 . S
O28 C36 1.284 . S
Zn29 O28 1.899 . S
Zn29 O30 2.032 . S
Zn29 O33 2.086 . S
Zn29 O38 1.977 . S
O30 Zn29 2.032 . S
O30 C34 1.278 . S
C31 O32 1.203 . S
C31 O38 1.267 . S
O32 C31 1.203 . S
O33 C26 1.185 . S
O33 Zn29 2.086 . S
C34 O30 1.278 . S
C34 O35 1.211 . S
O35 C34 1.211 . S
C36 O28 1.284 . S
C36 O37 1.273 . S
O37 C36 1.273 . S
O38 Zn29 1.977 . S
O38 C31 1.267 . S
C39 O40 1.160 . S
C39 O46 1.185 . S
O40 C39 1.160 . S
O41 Zn42 1.899 . S
O41 C49 1.284 . S
Zn42 O41 1.899 . S
Zn42 O43 2.032 . S
Zn42 O46 2.086 . S
Zn42 O51 1.977 . S
O43 Zn42 2.032 . S
O43 C47 1.278 . S
C44 O45 1.203 . S
C44 O51 1.267 . S
O45 C44 1.203 . S
O46 C39 1.185 . S
O46 Zn42 2.086 . S
C47 O43 1.278 . S
C47 O48 1.211 . S
O48 C47 1.211 . S
C49 O41 1.284 . S
C49 O50 1.273 . S
O50 C49 1.273 . S
O51 Zn42 1.977 . S
O51 C44 1.267 . S
C52 O53 1.160 . S
C52 O59 1.185 . S
O53 C52 1.160 . S
O54 Zn55 1.899 . S
O54 C62 1.284 . S
Zn55 O54 1.899 . S
Zn55 O56 2.032 . S
Zn55 O59 2.086 . S
Zn55 O64 1.977 . S
O56 Zn55 2.032 . S
O56 C60 1.278 . S
C57 O58 1.203 . S
C57 O64 1.267 . S
O58 C57 1.203 . S
O59 C52 1.185 . S
O59 Zn55 2.086 . S
C60 O56 1.278 . S
C60 O61 1.211 . S
O61 C60 1.211 . S
C62 O54 1.284 . S
C62 O63 1.273 . S
O63 C62 1.273 . S
O64 Zn55 1.977 . S
O64 C57 1.267 . S
C65 O66 1.160 . S
C65 O72 1.185 . S
O66 C65 1.160 . S
O67 Zn68 1.899 . S
O67 C75 1.284 . S
Zn68 O67 1.899 . S
Zn68 O69 2.032 . S
Zn68 O72 2.086 . S
Zn68 O77 1.977 . S
O69 Zn68 2.032 . S
O69 C73 1.278 . S
C70 O71 1.203 . S
C70 O77 1.267 . S
O71 C70 1.203 . S
O72 C65 1.185 . S
O72 Zn68 2.086 . S
C73 O69 1.278 . S
C73 O74 1.211 . S
O74 C73 1.211 . S
C75 O67 1.284 . S
C75 O76 1.273 . S
O76 C75 1.273 . S
O77 Zn68 1.977 . S
O77 C70 1.267 . S
C78 O79 1.160 . S
C78 O85 1.185 . S
O79 C78 1.160 . S
O80 Zn81 1.899 . S
O80 C88 1.284 . S
Zn81 O80 1.899 . S
Zn81 O82 2.032 . S
Zn81 O85 2.086 . S
Zn81 O90 1.977 . S
O82 Zn81 2.032 . S
O82 C86 1.278 . S
C83 O84 1.203 . S
C83 O90 1.267 . S
O84 C83 1.203 . S
O85 C78 1.185 . S
O85 Zn81 2.086 . S
C86 O82 1.278 . S
C86 O87 1.211 . S
O87 C86 1.211 . S
C88 O80 1.284 . S
C88 O89 1.273 . S
O89 C88 1.273 . S
O90 Zn81 1.977 . S
O90 C83 1.267 . S
C91 O92 1.160 . S
C91 O98 1.185 . S
O92 C91 1.160 . S
O93 Zn94 1.899 . S
O93 C101 1.284 . S
Zn94 O93 1.899 . S
Zn94 O95 2.032 . S
Zn94 O98 2.086 . S
Zn94 O103 1.977 . S
O95 Zn94 2.032 . S
O95 C99 1.278 . S
C96 O97 1.203 . S
C96 O103 1.267 . S
O97 C96 1.203 . S
O98 C91 1.185 . S
O98 Zn94 2.086 . S
C99 O95 1.278 . S
C99 O100 1.211 . S
O100 C99 1.211 . S
C101 O93 1.284 . S
C101 O102 1.273 . S
O102 C101 1.273 . S
O103 Zn94 1.977 . S
O103 C96 1.267 . S
C104 O105 1.160 . S
C104 O111 1.185 . S
O105 C104 1.160 . S
O106 Zn107 1.899 . S
O106 C114 1.284 . S
Zn107 O106 1.899 . S
Zn107 O108 2.032 . S
Zn107 O111 2.086 . S
Zn107 O116 1.977 . S
O108 Zn107 2.032 . S
O108 C112 1.278 . S
C109 O110 1.203 . S
C109 O116 1.267 . S
O110 C109 1.203 . S
O111 C104 1.185 . S
O111 Zn107 2.086 . S
C112 O108 1.278 . S
C112 O113 1.211 . S
O113 C112 1.211 . S
C114 O106 1.284 . S
C114 O115 1.273 . S
O115 C114 1.273 . S
O116 Zn107 1.977 . S
O116 C109 1.267 . S
C117 O118 1.160 . S
C117 O124 1.185 . S
O118 C117 1.160 . S
O119 Zn120 1.899 . S
O119 C127 1.284 . S
Zn120 O119 1.899 . S
Zn120 O121 2.032 . S
Zn120 O124 2.086 . S
Zn120 O129 1.977 . S
O121 Zn120 2.032 . S
O121 C125 1.278 . S
C122 O123 1.203 . S
C122 O129 1.267 . S
O123 C122 1.203 . S
O124 C117 1.185 . S
O124 Zn120 2.086 . S
C125 O121 1.278 . S
C125 O126 1.211 . S
O126 C125 1.211 . S
C127 O119 1.284 . S
C127 O128 1.273 . S
O128 C127 1.273 . S
O129 Zn120 1.977 . S
O129 C122 1.267 . S
C130 O131 1.160 . S
C130 O137 1.185 . S
O131 C130 1.160 . S
O132 Zn133 1.899 . S
O132 C140 1.284 . S
Zn133 O132 1.899 . S
Zn133 O134 2.032 . S
Zn133 O137 2.086 . S
Zn133 O142 1.977 . S
O134 Zn133 2.032 . S
O134 C138 1.278 . S
C135 O136 1.203 . S
C135 O142 1.267 . S
O136 C135 1.203 . S
O137 C130 1.185 . S
O137 Zn133 2.086 . S
C138 O134 1.278 . S
C138 O139 1.211 . S
O139 C138 1.211 . S
C140 O132 1.284 . S
C140 O141 1.273 . S
O141 C140 1.273 . S
O142 Zn133 1.977 . S
O142 C135 1.267 . S
C143 O144 1.160 . S
C143 O150 1.185 . S
O144 C143 1.160 . S
O145 Zn146 1.899 . S
O145 C153 1.284 . S
Zn146 O145 1.899 . S
Zn146 O147 2.032 . S
Zn146 O150 2.086 . S
Zn146 O155 1.977 . S
O147 Zn146 2.032 . S
O147 C151 1.278 . S
C148 O149 1.203 . S
C148 O155 1.267 . S
O149 C148 1.203 . S
O150 C143 1.185 . S
O150 Zn146 2.086 . S
C151 O147 1.278 . S
C151 O152 1.211 . S
O152 C151 1.211 . S
C153 O145 1.284 . S
C153 O154 1.273 . S
O154 C153 1.273 . S
O155 Zn146 1.977 . S
O155 C148 1.267 . S
C156 O157 1.160 . S
C156 O163 1.185 . S
O157 C156 1.160 . S
O158 Zn159 1.899 . S
O158 C166 1.284 . S
Zn159 O158 1.899 . S
Zn159 O160 2.032 . S
Zn159 O163 2.086 . S
Zn159 O168 1.977 . S
O160 Zn159 2.032 . S
O160 C164 1.278 . S
C161 O162 1.203 . S
C161 O168 1.267 . S
O162 C161 1.203 . S
O163 C156 1.185 . S
O163 Zn159 2.086 . S
C164 O160 1.278 . S
C164 O165 1.211 . S
O165 C164 1.211 . S
C166 O158 1.284 . S
C166 O167 1.273 . S
O167 C166 1.273 . S
O168 Zn159 1.977 . S
O168 C161 1.267 . S
C169 O170 1.160 . S
C169 O176 1.185 . S
O170 C169 1.160 . S
O171 Zn172 1.899 . S
O171 C179 1.284 . S
Zn172 O171 1.899 . S
Zn172 O173 2.032 . S
Zn172 O176 2.086 . S
Zn172 O181 1.977 . S
O173 Zn172 2.032 . S
O173 C177 1.278 . S
C174 O175 1.203 . S
C174 O181 1.267 . S
O175 C174 1.203 . S
O176 C169 1.185 . S
O176 Zn172 2.086 . S
C177 O173 1.278 . S
C177 O178 1.211 . S
O178 C177 1.211 . S
C179 O171 1.284 . S
C179 O180 1.273 . S
O180 C179 1.273 . S
O181 Zn172 1.977 . S
O181 C174 1.267 . S
C182 O183 1.160 . S
C182 O189 1.185 . S
O183 C182 1.160 . S
O184 Zn185 1.899 . S
O184 C192 1.284 . S
Zn185 O184 1.899 . S
Zn185 O186 2.032 . S
Zn185 O189 2.086 . S
Zn185 O194 1.977 . S
O186 Zn185 2.032 . S
O186 C190 1.278 . S
C187 O188 1.203 . S
C187 O194 1.267 . S
O188 C187 1.203 . S
O189 C182 1.185 . S
O189 Zn185 2.086 . S
C190 O186 1.278 . S
C190 O191 1.211 . S
O191 C190 1.211 . S
C192 O184 1.284 . S
C192 O193 1.273 . S
O193 C192 1.273 . S
O194 Zn185 1.977 . S
O194 C187 1.267 . S
C195 O196 1.160 . S
C195 O202 1.185 . S
O196 C195 1.160 . S
O197 Zn198 1.899 . S
O197 C205 1.284 . S
Zn198 O197 1.899 . S
Zn198 O199 2.032 . S
Zn198 O202 2.086 . S
Zn198 O207 1.977 . S
O199 Zn198 2.032 . S
O199 C203 1.278 . S
C200 O201 1.203 . S
C200 O207 1.267 . S
O201 C200 1.203 . S
O202 C195 1.185 . S
O202 Zn198 2.086 . S
C203 O199 1.278 . S
C203 O204 1.211 . S
O204 C203 1.211 . S
C205 O197 1.284 . S
C205 O206 1.273 . S
O206 C205 1.273 . S
O207 Zn198 1.977 . S
O207 C200 1.267 . S
C208 O209 1.160 . S
C208 O215 1.185 . S
O209 C208 1.160 . S
O210 Zn211 1.899 . S
O210 C218 1.284 . S
Zn211 O210 1.899 . S
Zn211 O212 2.032 . S
Zn211 O215 2.086 . S
Zn211 O220 1.977 . S
O212 Zn211 2.032 . S
O212 C216 1.278 . S
C213 O214 1.203 . S
C213 O220 1.267 . S
O214 C213 1.203 . S
O215 C208 1.185 . S
O215 Zn211 2.086 . S
C216 O212 1.278 . S
C216 O217 1.211 . S
O217 C216 1.211 . S
C218 O210 1.284 . S
C218 O219 1.273 . S
O219 C218 1.273 . S
O220 Zn211 1.977 . S
O220 C213 1.267 . S
C221 O222 1.160 . S
C221 O228 1.185 . S
O222 C221 1.160 . S
O223 Zn224 1.899 . S
O223 C231 1.284 . S
Zn224 O223 1.899 . S
Zn224 O225 2.032 . S
Zn224 O228 2.086 . S
Zn224 O233 1.977 . S
O225 Zn224 2.032 . S
O225 C229 1.278 . S
C226 O227 1.203 . S
C226 O233 1.267 . S
O227 C226 1.203 . S
O228 C221 1.185 . S
O228 Zn224 2.086 . S
C229 O225 1.278 . S
C229 O230 1.211 . S
O230 C229 1.211 . S
C231 O223 1.284 . S
C231 O232 1.273 . S
O232 C231 1.273 . S
O233 Zn224 1.977 . S
O233 C226 1.267 . S
C234 O235 1.160 . S
C234 O241 1.185 . S
O235 C234 1.160 . S
O236 Zn237 1.899 . S
O236 C244 1.284 . S
Zn237 O236 1.899 . S
Zn237 O238 2.032 . S
Zn237 O241 2.086 . S
Zn237 O246 1.977 . S
O238 Zn237 2.032 . S
O238 C242 1.278 . S
C239 O240 1.203 . S
C239 O246 1.267 . S
O240 C239 1.203 . S
O241 C234 1.185 . S
O241 Zn237 2.086 . S
C242 O238 1.278 . S
C242 O243 1.211 . S
O243 C242 1.211 . S
C244 O236 1.284 . S
C244 O245 1.273 . S
O245 C244 1.273 . S
O246 Zn237 1.977 . S
O246 C239 1.267 . S
C247 O248 1.160 . S
C247 O254 1.185 . S
O248 C247 1.160 . S
O249 Zn250 1.899 . S
O249 C257 1.284 . S
Zn250 O249 1.899 . S
Zn250 O251 2.032 . S
Zn250 O254 2.086 . S
Zn250 O259 1.977 . S
O251 Zn250 2.032 . S
O251 C255 1.278 . S
C252 O253 1.203 . S
C252 O259 1.267 . S
O253 C252 1.203 . S
O254 C247 1.185 . S
O254 Zn250 2.086 . S
C255 O251 1.278 . S
C255 O256 1.211 . S
O256 C255 1.211 . S
C257 O249 1.284 . S
C257 O258 1.273 . S
O258 C257 1.273 . S
O259 Zn250 1.977 . S
O259 C252 1.267 . S
C260 O261 1.160 . S
C260 O267 1.185 . S
O261 C260 1.160 . S
O262 Zn263 1.899 . S
O262 C270 1.284 . S
Zn263 O262 1.899 . S
Zn263 O264 2.032 . S
Zn263 O267 2.086 . S
Zn263 O272 1.977 . S
O264 Zn263 2.032 . S
O264 C268 1.278 . S
C265 O266 1.203 . S
C265 O272 1.267 . S
O266 C265 1.203 . S
O267 C260 1.185 . S
O267 Zn263 2.086 . S
C268 O264 1.278 . S
C268 O269 1.211 . S
O269 C268 1.211 . S
C270 O262 1.284 . S
C270 O271 1.273 . S
O271 C270 1.273 . S
O272 Zn263 1.977 . S
O272 C265 1.267 . S
C273 O274 1.160 . S
C273 O280 1.185 . S
O274 C273 1.160 . S
O275 Zn276 1.899 . S
O275 C283 1.284 . S
Zn276 O275 1.899 . S
Zn276 O277 2.032 . S
Zn276 O280 2.086 . S
Zn276 O285 1.977 . S
O277 Zn276 2.032 . S
O277 C281 1.278 . S
C278 O279 1.203 . S
C278 O285 1.267 . S
O279 C278 1.203 . S
O280 C273 1.185 . S
O280 Zn276 2.086 . S
C281 O277 1.278 . S
C281 O282 1.211 . S
O282 C281 1.211 . S
C283 O275 1.284 . S
C283 O284 1.273 . S
O284 C283 1.273 . S
O285 Zn276 1.977 . S
O285 C278 1.267 . S
C286 O287 1.160 . S
C286 O293 1.185 . S
O287 C286 1.160 . S
O288 Zn289 1.899 . S
O288 C296 1.284 . S
Zn289 O288 1.899 . S
Zn289 O290 2.032 . S
Zn289 O293 2.086 . S
Zn289 O298 1.977 . S
O290 Zn289 2.032 . S
O290 C294 1.278 . S
C291 O292 1.203 . S
C291 O298 1.267 . S
O292 C291 1.203 . S
O293 C286 1.185 . S
O293 Zn289 2.086 . S
C294 O290 1.278 . S
C294 O295 1.211 . S
O295 C294 1.211 . S
C296 O288 1.284 . S
C296 O297 1.273 . S
O297 C296 1.273 . S
O298 Zn289 1.977 . S
O298 C291 1.267 . S
C299 O300 1.160 . S
C299 O306 1.185 . S
O300 C299 1.160 . S
O301 Zn302 1.899 . S
O301 C309 1.284 . S
Zn302 O301 1.899 . S
Zn302 O303 2.032 . S
Zn302 O306 2.086 . S
Zn302 O311 1.977 . S
O303 Zn302 2.032 . S
O303 C307 1.278 . S
C304 O305 1.203 . S
C304 O311 1.267 . S
O305 C304 1.203 . S
O306 C299 1.185 . S
O306 Zn302 2.086 . S
C307 O303 1.278 . S
C307 O308 1.211 . S
O308 C307 1.211 . S
C309 O301 1.284 . S
C309 O310 1.273 . S
O310 C309 1.273 . S
O311 Zn302 1.977 . S
O311 C304 1.267 . S
C312 C313 1.363 . S
C312 C318 1.379 . S
C312 N320 1.356 . S
C313 C312 1.363 . S
C313 C319 1.363 . S
C314 C315 1.363 . S
C314 C319 1.379 . S
C314 N321 1.356 . S
C315 C314 1.363 . S
C315 C318 1.363 . S
N316 C318 1.356 . S
N316 H328 0.984 . S
N316 H329 0.985 . S
N317 C319 1.356 . S
N317 H322 0.984 . S
N317 H323 0.985 . S
C318 C312 1.379 . S
C318 C315 1.363 . S
C318 N316 1.356 . S
C319 C313 1.363 . S
C319 C314 1.379 . S
C319 N317 1.356 . S
N320 C312 1.356 . S
N320 H326 0.984 . S
N320 H327 0.984 . S
N321 C314 1.356 . S
N321 H324 0.984 . S
N321 H325 0.985 . S
H322 N317 0.984 . S
H323 N317 0.985 . S
H324 N321 0.984 . S
H325 N321 0.985 . S
H326 N320 0.984 . S
H327 N320 0.984 . S
H328 N316 0.984 . S
H329 N316 0.985 . S
C330 C331 1.363 . S
C330 C336 1.379 . S
C330 N338 1.356 . S
C331 C330 1.363 . S
C331 C337 1.363 . S
C332 C333 1.363 . S
C332 C337 1.379 . S
C332 N339 1.356 . S
C333 C332 1.363 . S
C333 C336 1.363 . S
N334 C336 1.356 . S
N334 H346 0.984 . S
N334 H347 0.985 . S
N335 C337 1.356 . S
N335 H340 0.984 . S
N335 H341 0.985 . S
C336 C330 1.379 . S
C336 C333 1.363 . S
C336 N334 1.356 . S
C337 C331 1.363 . S
C337 C332 1.379 . S
C337 N335 1.356 . S
N338 C330 1.356 . S
N338 H344 0.984 . S
N338 H345 0.984 . S
N339 C332 1.356 . S
N339 H342 0.984 . S
N339 H343 0.985 . S
H340 N335 0.984 . S
H341 N335 0.985 . S
H342 N339 0.984 . S
H343 N339 0.985 . S
H344 N338 0.984 . S
H345 N338 0.984 . S
H346 N334 0.984 . S
H347 N334 0.985 . S
C348 C349 1.363 . S
C348 C354 1.379 . S
C348 N356 1.356 . S
C349 C348 1.363 . S
C349 C355 1.363 . S
C350 C351 1.363 . S
C350 C355 1.379 . S
C350 N357 1.356 . S
C351 C350 1.363 . S
C351 C354 1.363 . S
N352 C354 1.356 . S
N352 H364 0.984 . S
N352 H365 0.985 . S
N353 C355 1.356 . S
N353 H358 0.984 . S
N353 H359 0.985 . S
C354 C348 1.379 . S
C354 C351 1.363 . S
C354 N352 1.356 . S
C355 C349 1.363 . S
C355 C350 1.379 . S
C355 N353 1.356 . S
N356 C348 1.356 . S
N356 H362 0.984 . S
N356 H363 0.984 . S
N357 C350 1.356 . S
N357 H360 0.984 . S
N357 H361 0.985 . S
H358 N353 0.984 . S
H359 N353 0.985 . S
H360 N357 0.984 . S
H361 N357 0.985 . S
H362 N356 0.984 . S
H363 N356 0.984 . S
H364 N352 0.984 . S
H365 N352 0.985 . S
C366 C367 1.363 . S
C366 C372 1.379 . S
C366 N374 1.356 . S
C367 C366 1.363 . S
C367 C373 1.363 . S
C368 C369 1.363 . S
C368 C373 1.379 . S
C368 N375 1.356 . S
C369 C368 1.363 . S
C369 C372 1.363 . S
N370 C372 1.356 . S
N370 H382 0.984 . S
N370 H383 0.985 . S
N371 C373 1.356 . S
N371 H376 0.984 . S
N371 H377 0.985 . S
C372 C366 1.379 . S
C372 C369 1.363 . S
C372 N370 1.356 . S
C373 C367 1.363 . S
C373 C368 1.379 . S
C373 N371 1.356 . S
N374 C366 1.356 . S
N374 H380 0.984 . S
N374 H381 0.984 . S
N375 C368 1.356 . S
N375 H378 0.984 . S
N375 H379 0.985 . S
H376 N371 0.984 . S
H377 N371 0.985 . S
H378 N375 0.984 . S
H379 N375 0.985 . S
H380 N374 0.984 . S
H381 N374 0.984 . S
H382 N370 0.984 . S
H383 N370 0.985 . S
C384 C385 1.363 . S
C384 C390 1.379 . S
C384 N392 1.356 . S
C385 C384 1.363 . S
C385 C391 1.363 . S
C386 C387 1.363 . S
C386 C391 1.379 . S
C386 N393 1.356 . S
C387 C386 1.363 . S
C387 C390 1.363 . S
N388 C390 1.356 . S
N388 H400 0.984 . S
N388 H401 0.985 . S
N389 C391 1.356 . S
N389 H394 0.984 . S
N389 H395 0.985 . S
C390 C384 1.379 . S
C390 C387 1.363 . S
C390 N388 1.356 . S
C391 C385 1.363 . S
C391 C386 1.379 . S
C391 N389 1.356 . S
N392 C384 1.356 . S
N392 H398 0.984 . S
N392 H399 0.984 . S
N393 C386 1.356 . S
N393 H396 0.984 . S
N393 H397 0.985 . S
H394 N389 0.984 . S
H395 N389 0.985 . S
H396 N393 0.984 . S
H397 N393 0.985 . S
H398 N392 0.984 . S
H399 N392 0.984 . S
H400 N388 0.984 . S
H401 N388 0.985 . S
C402 C403 1.363 . S
C402 C408 1.379 . S
C402 N410 1.356 . S
C403 C402 1.363 . S
C403 C409 1.363 . S
C404 C405 1.363 . S
C404 C409 1.379 . S
C404 N411 1.356 . S
C405 C404 1.363 . S
C405 C408 1.363 . S
N406 C408 1.356 . S
N406 H418 0.984 . S
N406 H419 0.985 . S
N407 C409 1.356 . S
N407 H412 0.984 . S
N407 H413 0.985 . S
C408 C402 1.379 . S
C408 C405 1.363 . S
C408 N406 1.356 . S
C409 C403 1.363 . S
C409 C404 1.379 . S
C409 N407 1.356 . S
N410 C402 1.356 . S
N410 H416 0.984 . S
N410 H417 0.984 . S
N411 C404 1.356 . S
N411 H414 0.984 . S
N411 H415 0.985 . S
H412 N407 0.984 . S
H413 N407 0.985 . S
H414 N411 0.984 . S
H415 N411 0.985 . S
H416 N410 0.984 . S
H417 N410 0.984 . S
H418 N406 0.984 . S
H419 N406 0.985 . S
C420 C421 1.363 . S
C420 C426 1.379 . S
C420 N428 1.356 . S
C421 C420 1.363 . S
C421 C427 1.363 . S
C422 C423 1.363 . S
C422 C427 1.379 . S
C422 N429 1.356 . S
C423 C422 1.363 . S
C423 C426 1.363 . S
N424 C426 1.356 . S
N424 H436 0.984 . S
N424 H437 0.985 . S
N425 C427 1.356 . S
N425 H430 0.984 . S
N425 H431 0.985 . S
C426 C420 1.379 . S
C426 C423 1.363 . S
C426 N424 1.356 . S
C427 C421 1.363 . S
C427 C422 1.379 . S
C427 N425 1.356 . S
N428 C420 1.356 . S
N428 H434 0.984 . S
N428 H435 0.984 . S
N429 C422 1.356 . S
N429 H432 0.984 . S
N429 H433 0.985 . S
H430 N425 0.984 . S
H431 N425 0.985 . S
H432 N429 0.984 . S
H433 N429 0.985 . S
H434 N428 0.984 . S
H435 N428 0.984 . S
H436 N424 0.984 . S
H437 N424 0.985 . S
C438 C439 1.363 . S
C438 C444 1.379 . S
C438 N446 1.356 . S
C439 C438 1.363 . S
C439 C445 1.363 . S
C440 C441 1.363 . S
C440 C445 1.379 . S
C440 N447 1.356 . S
C441 C440 1.363 . S
C441 C444 1.363 . S
N442 C444 1.356 . S
N442 H454 0.984 . S
N442 H455 0.985 . S
N443 C445 1.356 . S
N443 H448 0.984 . S
N443 H449 0.985 . S
C444 C438 1.379 . S
C444 C441 1.363 . S
C444 N442 1.356 . S
C445 C439 1.363 . S
C445 C440 1.379 . S
C445 N443 1.356 . S
N446 C438 1.356 . S
N446 H452 0.984 . S
N446 H453 0.984 . S
N447 C440 1.356 . S
N447 H450 0.984 . S
N447 H451 0.985 . S
H448 N443 0.984 . S
H449 N443 0.985 . S
H450 N447 0.984 . S
H451 N447 0.985 . S
H452 N446 0.984 . S
H453 N446 0.984 . S
H454 N442 0.984 . S
H455 N442 0.985 . S
C456 C457 1.363 . S
C456 C462 1.379 . S
C456 N464 1.356 . S
C457 C456 1.363 . S
C457 C463 1.363 . S
C458 C459 1.363 . S
C458 C463 1.379 . S
C458 N465 1.356 . S
C459 C458 1.363 . S
C459 C462 1.363 . S
N460 C462 1.356 . S
N460 H472 0.984 . S
N460 H473 0.985 . S
N461 C463 1.356 . S
N461 H466 0.984 . S
N461 H467 0.985 . S
C462 C456 1.379 . S
C462 C459 1.363 . S
C462 N460 1.356 . S
C463 C457 1.363 . S
C463 C458 1.379 . S
C463 N461 1.356 . S
N464 C456 1.356 . S
N464 H470 0.984 . S
N464 H471 0.984 . S
N465 C458 1.356 . S
N465 H468 0.984 . S
N465 H469 0.985 . S
H466 N461 0.984 . S
H467 N461 0.985 . S
H468 N465 0.984 . S
H469 N465 0.985 . S
H470 N464 0.984 . S
H471 N464 0.984 . S
H472 N460 0.984 . S
H473 N460 0.985 . S
C474 C475 1.363 . S
C474 C480 1.379 . S
C474 N482 1.356 . S
C475 C474 1.363 . S
C475 C481 1.363 . S
C476 C477 1.363 . S
C476 C481 1.379 . S
C476 N483 1.356 . S
C477 C476 1.363 . S
C477 C480 1.363 . S
N478 C480 1.356 . S
N478 H490 0.984 . S
N478 H491 0.985 . S
N479 C481 1.356 . S
N479 H484 0.984 . S
N479 H485 0.985 . S
C480 C474 1.379 . S
C480 C477 1.363 . S
C480 N478 1.356 . S
C481 C475 1.363 . S
C481 C476 1.379 . S
C481 N479 1.356 . S
N482 C474 1.356 . S
N482 H488 0.984 . S
N482 H489 0.984 . S
N483 C476 1.356 . S
N483 H486 0.984 . S
N483 H487 0.985 . S
H484 N479 0.984 . S
H485 N479 0.985 . S
H486 N483 0.984 . S
H487 N483 0.985 . S
H488 N482 0.984 . S
H489 N482 0.984 . S
H490 N478 0.984 . S
H491 N478 0.985 . S
C492 C493 1.363 . S
C492 C498 1.379 . S
C492 N500 1.356 . S
C493 C492 1.363 . S
C493 C499 1.363 . S
C494 C495 1.363 . S
C494 C499 1.379 . S
C494 N501 1.356 . S
C495 C494 1.363 . S
C495 C498 1.363 . S
N496 C498 1.356 . S
N496 H508 0.984 . S
N496 H509 0.985 . S
N497 C499 1.356 . S
N497 H502 0.984 . S
N497 H503 0.985 . S
C498 C492 1.379 . S
C498 C495 1.363 . S
C498 N496 1.356 . S
C499 C493 1.363 . S
C499 C494 1.379 . S
C499 N497 1.356 . S
N500 C492 1.356 . S
N500 H506 0.984 . S
N500 H507 0.984 . S
N501 C494 1.356 . S
N501 H504 0.984 . S
N501 H505 0.985 . S
H502 N497 0.984 . S
H503 N497 0.985 . S
H504 N501 0.984 . S
H505 N501 0.985 . S
H506 N500 0.984 . S
H507 N500 0.984 . S
H508 N496 0.984 . S
H509 N496 0.985 . S
C510 C511 1.363 . S
C510 C516 1.379 . S
C510 N518 1.356 . S
C511 C510 1.363 . S
C511 C517 1.363 . S
C512 C513 1.363 . S
C512 C517 1.379 . S
C512 N519 1.356 . S
C513 C512 1.363 . S
C513 C516 1.363 . S
N514 C516 1.356 . S
N514 H526 0.984 . S
N514 H527 0.985 . S
N515 C517 1.356 . S
N515 H520 0.984 . S
N515 H521 0.985 . S
C516 C510 1.379 . S
C516 C513 1.363 . S
C516 N514 1.356 . S
C517 C511 1.363 . S
C517 C512 1.379 . S
C517 N515 1.356 . S
N518 C510 1.356 . S
N518 H524 0.984 . S
N518 H525 0.984 . S
N519 C512 1.356 . S
N519 H522 0.984 . S
N519 H523 0.985 . S
H520 N515 0.984 . S
H521 N515 0.985 . S
H522 N519 0.984 . S
H523 N519 0.985 . S
H524 N518 0.984 . S
H525 N518 0.984 . S
H526 N514 0.984 . S
H527 N514 0.985 . S
C528 C529 1.363 . S
C528 C534 1.379 . S
C528 N536 1.356 . S
C529 C528 1.363 . S
C529 C535 1.363 . S
C530 C531 1.363 . S
C530 C535 1.379 . S
C530 N537 1.356 . S
C531 C530 1.363 . S
C531 C534 1.363 . S
N532 C534 1.356 . S
N532 H544 0.984 . S
N532 H545 0.985 . S
N533 C535 1.356 . S
N533 H538 0.984 . S
N533 H539 0.985 . S
C534 C528 1.379 . S
C534 C531 1.363 . S
C534 N532 1.356 . S
C535 C529 1.363 . S
C535 C530 1.379 . S
C535 N533 1.356 . S
N536 C528 1.356 . S
N536 H542 0.984 . S
N536 H543 0.984 . S
N537 C530 1.356 . S
N537 H540 0.984 . S
N537 H541 0.985 . S
H538 N533 0.984 . S
H539 N533 0.985 . S
H540 N537 0.984 . S
H541 N537 0.985 . S
H542 N536 0.984 . S
H543 N536 0.984 . S
H544 N532 0.984 . S
H545 N532 0.985 . S
C546 C547 1.363 . S
C546 C552 1.379 . S
C546 N554 1.356 . S
C547 C546 1.363 . S
C547 C553 1.363 . S
C548 C549 1.363 . S
C548 C553 1.379 . S
C548 N555 1.356 . S
C549 C548 1.363 . S
C549 C552 1.363 . S
N550 C552 1.356 . S
N550 H562 0.984 . S
N550 H563 0.985 . S
N551 C553 1.356 . S
N551 H556 0.984 . S
N551 H557 0.985 . S
C552 C546 1.379 . S
C552 C549 1.363 . S
C552 N550 1.356 . S
C553 C547 1.363 . S
C553 C548 1.379 . S
C553 N551 1.356 . S
N554 C546 1.356 . S
N554 H560 0.984 . S
N554 H561 0.984 . S
N555 C548 1.356 . S
N555 H558 0.984 . S
N555 H559 0.985 . S
H556 N551 0.984 . S
H557 N551 0.985 . S
H558 N555 0.984 . S
H559 N555 0.985 . S
H560 N554 0.984 . S
H561 N554 0.984 . S
H562 N550 0.984 . S
H563 N550 0.985 . S
C564 C565 1.363 . S
C564 C570 1.379 . S
C564 N572 1.356 . S
C565 C564 1.363 . S
C565 C571 1.363 . S
C566 C567 1.363 . S
C566 C571 1.379 . S
C566 N573 1.356 . S
C567 C566 1.363 . S
C567 C570 1.363 . S
N568 C570 1.356 . S
N568 H580 0.984 . S
N568 H581 0.985 . S
N569 C571 1.356 . S
N569 H574 0.984 . S
N569 H575 0.985 . S
C570 C564 1.379 . S
C570 C567 1.363 . S
C570 N568 1.356 . S
C571 C565 1.363 . S
C571 C566 1.379 . S
C571 N569 1.356 . S
N572 C564 1.356 . S
N572 H578 0.984 . S
N572 H579 0.984 . S
N573 C566 1.356 . S
N573 H576 0.984 . S
N573 H577 0.985 . S
H574 N569 0.984 . S
H575 N569 0.985 . S
H576 N573 0.984 . S
H577 N573 0.985 . S
H578 N572 0.984 . S
H579 N572 0.984 . S
H580 N568 0.984 . S
H581 N568 0.985 . S
C582 C583 1.363 . S
C582 C588 1.379 . S
C582 N590 1.356 . S
C583 C582 1.363 . S
C583 C589 1.363 . S
C584 C585 1.363 . S
C584 C589 1.379 . S
C584 N591 1.356 . S
C585 C584 1.363 . S
C585 C588 1.363 . S
N586 C588 1.356 . S
N586 H598 0.984 . S
N586 H599 0.985 . S
N587 C589 1.356 . S
N587 H592 0.984 . S
N587 H593 0.985 . S
C588 C582 1.379 . S
C588 C585 1.363 . S
C588 N586 1.356 . S
C589 C583 1.363 . S
C589 C584 1.379 . S
C589 N587 1.356 . S
N590 C582 1.356 . S
N590 H596 0.984 . S
N590 H597 0.984 . S
N591 C584 1.356 . S
N591 H594 0.984 . S
N591 H595 0.985 . S
H592 N587 0.984 . S
H593 N587 0.985 . S
H594 N591 0.984 . S
H595 N591 0.985 . S
H596 N590 0.984 . S
H597 N590 0.984 . S
H598 N586 0.984 . S
H599 N586 0.985 . S
C600 C601 1.363 . S
C600 C606 1.379 . S
C600 N608 1.356 . S
C601 C600 1.363 . S
C601 C607 1.363 . S
C602 C603 1.363 . S
C602 C607 1.379 . S
C602 N609 1.356 . S
C603 C602 1.363 . S
C603 C606 1.363 . S
N604 C606 1.356 . S
N604 H616 0.984 . S
N604 H617 0.985 . S
N605 C607 1.356 . S
N605 H610 0.984 . S
N605 H611 0.985 . S
C606 C600 1.379 . S
C606 C603 1.363 . S
C606 N604 1.356 . S
C607 C601 1.363 . S
C607 C602 1.379 . S
C607 N605 1.356 . S
N608 C600 1.356 . S
N608 H614 0.984 . S
N608 H615 0.984 . S
N609 C602 1.356 . S
N609 H612 0.984 . S
N609 H613 0.985 . S
H610 N605 0.984 . S
H611 N605 0.985 . S
H612 N609 0.984 . S
H613 N609 0.985 . S
H614 N608 0.984 . S
H615 N608 0.984 . S
H616 N604 0.984 . S
H617 N604 0.985 . S
C618 C619 1.363 . S
C618 C624 1.379 . S
C618 N626 1.356 . S
C619 C618 1.363 . S
C619 C625 1.363 . S
C620 C621 1.363 . S
C620 C625 1.379 . S
C620 N627 1.356 . S
C621 C620 1.363 . S
C621 C624 1.363 . S
N622 C624 1.356 . S
N622 H634 0.984 . S
N622 H635 0.985 . S
N623 C625 1.356 . S
N623 H628 0.984 . S
N623 H629 0.985 . S
C624 C618 1.379 . S
C624 C621 1.363 . S
C624 N622 1.356 . S
C625 C619 1.363 . S
C625 C620 1.379 . S
C625 N623 1.356 . S
N626 C618 1.356 . S
N626 H632 0.984 . S
N626 H633 0.984 . S
N627 C620 1.356 . S
N627 H630 0.984 . S
N627 H631 0.985 . S
H628 N623 0.984 . S
H629 N623 0.985 . S
H630 N627 0.984 . S
H631 N627 0.985 . S
H632 N626 0.984 . S
H633 N626 0.984 . S
H634 N622 0.984 . S
H635 N622 0.985 . S
C636 C637 1.363 . S
C636 C642 1.379 . S
C636 N644 1.356 . S
C637 C636 1.363 . S
C637 C643 1.363 . S
C638 C639 1.363 . S
C638 C643 1.379 . S
C638 N645 1.356 . S
C639 C638 1.363 . S
C639 C642 1.363 . S
N640 C642 1.356 . S
N640 H652 0.984 . S
N640 H653 0.985 . S
N641 C643 1.356 . S
N641 H646 0.984 . S
N641 H647 0.985 . S
C642 C636 1.379 . S
C642 C639 1.363 . S
C642 N640 1.356 . S
C643 C637 1.363 . S
C643 C638 1.379 . S
C643 N641 1.356 . S
N644 C636 1.356 . S
N644 H650 0.984 . S
N644 H651 0.984 . S
N645 C638 1.356 . S
N645 H648 0.984 . S
N645 H649 0.985 . S
H646 N641 0.984 . S
H647 N641 0.985 . S
H648 N645 0.984 . S
H649 N645 0.985 . S
H650 N644 0.984 . S
H651 N644 0.984 . S
H652 N640 0.984 . S
H653 N640 0.985 . S
C654 C655 1.363 . S
C654 C660 1.379 . S
C654 N662 1.356 . S
C655 C654 1.363 . S
C655 C661 1.363 . S
C656 C657 1.363 . S
C656 C661 1.379 . S
C656 N663 1.356 . S
C657 C656 1.363 . S
C657 C660 1.363 . S
N658 C660 1.356 . S
N658 H670 0.984 . S
N658 H671 0.985 . S
N659 C661 1.356 . S
N659 H664 0.984 . S
N659 H665 0.985 . S
C660 C654 1.379 . S
C660 C657 1.363 . S
C660 N658 1.356 . S
C661 C655 1.363 . S
C661 C656 1.379 . S
C661 N659 1.356 . S
N662 C654 1.356 . S
N662 H668 0.984 . S
N662 H669 0.984 . S
N663 C656 1.356 . S
N663 H666 0.984 . S
N663 H667 0.985 . S
H664 N659 0.984 . S
H665 N659 0.985 . S
H666 N663 0.984 . S
H667 N663 0.985 . S
H668 N662 0.984 . S
H669 N662 0.984 . S
H670 N658 0.984 . S
H671 N658 0.985 . S
C672 C673 1.363 . S
C672 C678 1.379 . S
C672 N680 1.356 . S
C673 C672 1.363 . S
C673 C679 1.363 . S
C674 C675 1.363 . S
C674 C679 1.379 . S
C674 N681 1.356 . S
C675 C674 1.363 . S
C675 C678 1.363 . S
N676 C678 1.356 . S
N676 H688 0.984 . S
N676 H689 0.985 . S
N677 C679 1.356 . S
N677 H682 0.984 . S
N677 H683 0.985 . S
C678 C672 1.379 . S
C678 C675 1.363 . S
C678 N676 1.356 . S
C679 C673 1.363 . S
C679 C674 1.379 . S
C679 N677 1.356 . S
N680 C672 1.356 . S
N680 H686 0.984 . S
N680 H687 0.984 . S
N681 C674 1.356 . S
N681 H684 0.984 . S
N681 H685 0.985 . S
H682 N677 0.984 . S
H683 N677 0.985 . S
H684 N681 0.984 . S
H685 N681 0.985 . S
H686 N680 0.984 . S
H687 N680 0.984 . S
H688 N676 0.984 . S
H689 N676 0.985 . S
C690 C691 1.363 . S
C690 C696 1.379 . S
C690 N698 1.356 . S
C691 C690 1.363 . S
C691 C697 1.363 . S
C692 C693 1.363 . S
C692 C697 1.379 . S
C692 N699 1.356 . S
C693 C692 1.363 . S
C693 C696 1.363 . S
N694 C696 1.356 . S
N694 H706 0.984 . S
N694 H707 0.985 . S
N695 C697 1.356 . S
N695 H700 0.984 . S
N695 H701 0.985 . S
C696 C690 1.379 . S
C696 C693 1.363 . S
C696 N694 1.356 . S
C697 C691 1.363 . S
C697 C692 1.379 . S
C697 N695 1.356 . S
N698 C690 1.356 . S
N698 H704 0.984 . S
N698 H705 0.984 . S
N699 C692 1.356 . S
N699 H702 0.984 . S
N699 H703 0.985 . S
H700 N695 0.984 . S
H701 N695 0.985 . S
H702 N699 0.984 . S
H703 N699 0.985 . S
H704 N698 0.984 . S
H705 N698 0.984 . S
H706 N694 0.984 . S
H707 N694 0.985 . S
C708 C709 1.363 . S
C708 C714 1.379 . S
C708 N716 1.356 . S
C709 C708 1.363 . S
C709 C715 1.363 . S
C710 C711 1.363 . S
C710 C715 1.379 . S
C710 N717 1.356 . S
C711 C710 1.363 . S
C711 C714 1.363 . S
N712 C714 1.356 . S
N712 H724 0.984 . S
N712 H725 0.985 . S
N713 C715 1.356 . S
N713 H718 0.984 . S
N713 H719 0.985 . S
C714 C708 1.379 . S
C714 C711 1.363 . S
C714 N712 1.356 . S
C715 C709 1.363 . S
C715 C710 1.379 . S
C715 N713 1.356 . S
N716 C708 1.356 . S
N716 H722 0.984 . S
N716 H723 0.984 . S
N717 C710 1.356 . S
N717 H720 0.984 . S
N717 H721 0.985 . S
H718 N713 0.984 . S
H719 N713 0.985 . S
H720 N717 0.984 . S
H721 N717 0.985 . S
H722 N716 0.984 . S
H723 N716 0.984 . S
H724 N712 0.984 . S
H725 N712 0.985 . S
C726 C727 1.363 . S
C726 C732 1.379 . S
C726 N734 1.356 . S
C727 C726 1.363 . S
C727 C733 1.363 . S
C728 C729 1.363 . S
C728 C733 1.379 . S
C728 N735 1.356 . S
C729 C728 1.363 . S
C729 C732 1.363 . S
N730 C732 1.356 . S
N730 H742 0.984 . S
N730 H743 0.985 . S
N731 C733 1.356 . S
N731 H736 0.984 . S
N731 H737 0.985 . S
C732 C726 1.379 . S
C732 C729 1.363 . S
C732 N730 1.356 . S
C733 C727 1.363 . S
C733 C728 1.379 . S
C733 N731 1.356 . S
N734 C726 1.356 . S
N734 H740 0.984 . S
N734 H741 0.984 . S
N735 C728 1.356 . S
N735 H738 0.984 . S
N735 H739 0.985 . S
H736 N731 0.984 . S
H737 N731 0.985 . S
H738 N735 0.984 . S
H739 N735 0.985 . S
H740 N734 0.984 . S
H741 N734 0.984 . S
H742 N730 0.984 . S
H743 N730 0.985 . S
C744 C745 1.363 1_545 S
C744 C750 1.379 . S
C744 N752 1.356 . S
C745 C744 1.363 1_565 S
C745 C751 1.363 1_556 S
C746 C747 1.363 1_565 S
C746 C751 1.379 . S
C746 N753 1.356 . S
C747 C746 1.363 1_545 S
C747 C750 1.363 1_554 S
N748 C750 1.356 . S
N748 H760 0.984 . S
N748 H761 0.985 1_556 S
N749 C751 1.356 . S
N749 H754 0.984 1_554 S
N749 H755 0.985 . S
C750 C744 1.379 . S
C750 C747 1.363 1_556 S
C750 N748 1.356 . S
C751 C745 1.363 1_554 S
C751 C746 1.379 . S
C751 N749 1.356 . S
N752 C744 1.356 . S
N752 H758 0.984 . S
N752 H759 0.984 1_545 S
N753 C746 1.356 . S
N753 H756 0.984 1_565 S
N753 H757 0.985 . S
H754 N749 0.984 1_556 S
H755 N749 0.985 . S
H756 N753 0.984 1_545 S
H757 N753 0.985 . S
H758 N752 0.984 . S
H759 N752 0.984 1_565 S
H760 N748 0.984 . S
H761 N748 0.985 1_554 S
C762 C763 1.363 . S
C762 C768 1.379 . S
C762 N770 1.356 . S
C763 C762 1.363 . S
C763 C769 1.363 . S
C764 C765 1.363 . S
C764 C769 1.379 . S
C764 N771 1.356 . S
C765 C764 1.363 . S
C765 C768 1.363 . S
N766 C768 1.356 . S
N766 H778 0.984 . S
N766 H779 0.985 . S
N767 C769 1.356 . S
N767 H772 0.984 . S
N767 H773 0.985 . S
C768 C762 1.379 . S
C768 C765 1.363 . S
C768 N766 1.356 . S
C769 C763 1.363 . S
C769 C764 1.379 . S
C769 N767 1.356 . S
N770 C762 1.356 . S
N770 H776 0.984 . S
N770 H777 0.984 . S
N771 C764 1.356 . S
N771 H774 0.984 . S
N771 H775 0.985 . S
H772 N767 0.984 . S
H773 N767 0.985 . S
H774 N771 0.984 . S
H775 N771 0.985 . S
H776 N770 0.984 . S
H777 N770 0.984 . S
H778 N766 0.984 . S
H779 N766 0.985 . S
C780 C781 1.363 1_554 S
C780 C786 1.379 . S
C780 N788 1.356 1_554 S
C781 C780 1.363 1_556 S
C781 C787 1.363 1_455 S
C782 C783 1.363 1_556 S
C782 C787 1.379 . S
C782 N789 1.356 1_556 S
C783 C782 1.363 1_554 S
C783 C786 1.363 1_655 S
N784 C786 1.356 1_655 S
N784 H796 0.984 1_655 S
N784 H797 0.985 . S
N785 C787 1.356 1_455 S
N785 H790 0.984 . S
N785 H791 0.985 1_455 S
C786 C780 1.379 . S
C786 C783 1.363 1_455 S
C786 N784 1.356 1_455 S
C787 C781 1.363 1_655 S
C787 C782 1.379 . S
C787 N785 1.356 1_655 S
N788 C780 1.356 1_556 S
N788 H794 0.984 1_556 S
N788 H795 0.984 . S
N789 C782 1.356 1_554 S
N789 H792 0.984 . S
N789 H793 0.985 1_554 S
H790 N785 0.984 . S
H791 N785 0.985 1_655 S
H792 N789 0.984 . S
H793 N789 0.985 1_556 S
H794 N788 0.984 1_554 S
H795 N788 0.984 . S
H796 N784 0.984 1_455 S
H797 N784 0.985 . S
C798 C799 1.363 1_565 S
C798 C804 1.379 . S
C798 N806 1.356 . S
C799 C798 1.363 1_545 S
C799 C805 1.363 . S
C800 C801 1.363 1_545 S
C800 C805 1.379 . S
C800 N807 1.356 . S
C801 C800 1.363 1_565 S
C801 C804 1.363 . S
N802 C804 1.356 . S
N802 H814 0.984 . S
N802 H815 0.985 . S
N803 C805 1.356 . S
N803 H808 0.984 . S
N803 H809 0.985 . S
C804 C798 1.379 . S
C804 C801 1.363 . S
C804 N802 1.356 . S
C805 C799 1.363 . S
C805 C800 1.379 . S
C805 N803 1.356 . S
N806 C798 1.356 . S
N806 H812 0.984 . S
N806 H813 0.984 1_565 S
N807 C800 1.356 . S
N807 H810 0.984 1_545 S
N807 H811 0.985 . S
H808 N803 0.984 . S
H809 N803 0.985 . S
H810 N807 0.984 1_565 S
H811 N807 0.985 . S
H812 N806 0.984 . S
H813 N806 0.984 1_545 S
H814 N802 0.984 . S
H815 N802 0.985 . S
C816 C817 1.363 . S
C816 C822 1.379 . S
C816 N824 1.356 . S
C817 C816 1.363 . S
C817 C823 1.363 1_554 S
C818 C819 1.363 . S
C818 C823 1.379 . S
C818 N825 1.356 . S
C819 C818 1.363 . S
C819 C822 1.363 1_556 S
N820 C822 1.356 . S
N820 H832 0.984 . S
N820 H833 0.985 1_554 S
N821 C823 1.356 . S
N821 H826 0.984 1_556 S
N821 H827 0.985 . S
C822 C816 1.379 . S
C822 C819 1.363 1_554 S
C822 N820 1.356 . S
C823 C817 1.363 1_556 S
C823 C818 1.379 . S
C823 N821 1.356 . S
N824 C816 1.356 . S
N824 H830 0.984 . S
N824 H831 0.984 . S
N825 C818 1.356 . S
N825 H828 0.984 . S
N825 H829 0.985 . S
H826 N821 0.984 1_554 S
H827 N821 0.985 . S
H828 N825 0.984 . S
H829 N825 0.985 . S
H830 N824 0.984 . S
H831 N824 0.984 . S
H832 N820 0.984 . S
H833 N820 0.985 1_556 S
C834 C835 1.363 . S
C834 C840 1.379 1_455 S
C834 N842 1.356 . S
C835 C834 1.363 . S
C835 C841 1.363 . S
C836 C837 1.363 . S
C836 C841 1.379 1_655 S
C836 N843 1.356 . S
C837 C836 1.363 . S
C837 C840 1.363 . S
N838 C840 1.356 . S
N838 H850 0.984 . S
N838 H851 0.985 . S
N839 C841 1.356 . S
N839 H844 0.984 . S
N839 H845 0.984 . S
C840 C834 1.379 1_655 S
C840 C837 1.363 . S
C840 N838 1.356 . S
C841 C835 1.363 . S
C841 C836 1.379 1_455 S
C841 N839 1.356 . S
N842 C834 1.356 . S
N842 H848 0.984 . S
N842 H849 0.984 . S
N843 C836 1.356 . S
N843 H846 0.984 . S
N843 H847 0.985 . S
H844 N839 0.984 . S
H845 N839 0.984 . S
H846 N843 0.984 . S
H847 N843 0.985 . S
H848 N842 0.984 . S
H849 N842 0.984 . S
H850 N838 0.984 . S
H851 N838 0.985 . S
C852 C853 1.363 1_554 S
C852 C858 1.379 . S
C852 N860 1.356 . S
C853 C852 1.363 1_556 S
C853 C859 1.363 1_565 S
C854 C855 1.363 1_556 S
C854 C859 1.379 . S
C854 N861 1.356 . S
C855 C854 1.363 1_554 S
C855 C858 1.363 1_545 S
N856 C858 1.356 . S
N856 H868 0.984 . S
N856 H869 0.985 1_565 S
N857 C859 1.356 . S
N857 H862 0.984 1_545 S
N857 H863 0.985 . S
C858 C852 1.379 . S
C858 C855 1.363 1_565 S
C858 N856 1.356 . S
C859 C853 1.363 1_545 S
C859 C854 1.379 . S
C859 N857 1.356 . S
N860 C852 1.356 . S
N860 H866 0.984 . S
N860 H867 0.984 1_554 S
N861 C854 1.356 . S
N861 H864 0.984 1_556 S
N861 H865 0.985 . S
H862 N857 0.984 1_565 S
H863 N857 0.985 . S
H864 N861 0.984 1_554 S
H865 N861 0.985 . S
H866 N860 0.984 . S
H867 N860 0.984 1_556 S
H868 N856 0.984 . S
H869 N856 0.985 1_545 S
C870 C871 1.363 . S
C870 C876 1.379 . S
C870 N878 1.356 . S
C871 C870 1.363 . S
C871 C877 1.363 . S
C872 C873 1.363 . S
C872 C877 1.379 . S
C872 N879 1.356 . S
C873 C872 1.363 . S
C873 C876 1.363 . S
N874 C876 1.356 . S
N874 H886 0.984 . S
N874 H887 0.985 . S
N875 C877 1.356 . S
N875 H880 0.984 . S
N875 H881 0.985 . S
C876 C870 1.379 . S
C876 C873 1.363 . S
C876 N874 1.356 . S
C877 C871 1.363 . S
C877 C872 1.379 . S
C877 N875 1.356 . S
N878 C870 1.356 . S
N878 H884 0.984 . S
N878 H885 0.984 . S
N879 C872 1.356 . S
N879 H882 0.984 . S
N879 H883 0.985 . S
H880 N875 0.984 . S
H881 N875 0.985 . S
H882 N879 0.984 . S
H883 N879 0.985 . S
H884 N878 0.984 . S
H885 N878 0.984 . S
H886 N874 0.984 . S
H887 N874 0.985 . S
C888 C889 1.363 . S
C888 C894 1.379 1_654 S
C888 N896 1.356 . S
C889 C888 1.363 . S
C889 C895 1.363 . S
C890 C891 1.363 . S
C890 C895 1.379 1_456 S
C890 N897 1.356 . S
C891 C890 1.363 . S
C891 C894 1.363 . S
N892 C894 1.356 . S
N892 H904 0.984 . S
N892 H905 0.985 . S
N893 C895 1.356 . S
N893 H898 0.984 . S
N893 H899 0.985 . S
C894 C888 1.379 1_456 S
C894 C891 1.363 . S
C894 N892 1.356 . S
C895 C889 1.363 . S
C895 C890 1.379 1_654 S
C895 N893 1.356 . S
N896 C888 1.356 . S
N896 H902 0.984 . S
N896 H903 0.984 . S
N897 C890 1.356 . S
N897 H900 0.984 . S
N897 H901 0.985 . S
H898 N893 0.984 . S
H899 N893 0.985 . S
H900 N897 0.984 . S
H901 N897 0.985 . S
H902 N896 0.984 . S
H903 N896 0.984 . S
H904 N892 0.984 . S
H905 N892 0.985 . S
C906 C907 1.363 . S
C906 C912 1.379 . S
C906 N914 1.356 . S
C907 C906 1.363 . S
C907 C913 1.363 1_565 S
C908 C909 1.363 . S
C908 C913 1.379 . S
C908 N915 1.356 . S
C909 C908 1.363 . S
C909 C912 1.363 1_545 S
N910 C912 1.356 . S
N910 H922 0.984 . S
N910 H923 0.985 1_565 S
N911 C913 1.356 . S
N911 H916 0.984 1_545 S
N911 H917 0.985 . S
C912 C906 1.379 . S
C912 C909 1.363 1_565 S
C912 N910 1.356 . S
C913 C907 1.363 1_545 S
C913 C908 1.379 . S
C913 N911 1.356 . S
N914 C906 1.356 . S
N914 H920 0.984 . S
N914 H921 0.984 . S
N915 C908 1.356 . S
N915 H918 0.984 . S
N915 H919 0.985 . S
H916 N911 0.984 1_565 S
H917 N911 0.985 . S
H918 N915 0.984 . S
H919 N915 0.985 . S
H920 N914 0.984 . S
H921 N914 0.984 . S
H922 N910 0.984 . S
H923 N910 0.985 1_545 S
C924 C925 1.363 . S
C924 C930 1.378 1_554 S
C924 N932 1.356 . S
C925 C924 1.363 . S
C925 C931 1.364 . S
C926 C927 1.363 . S
C926 C931 1.378 1_556 S
C926 N933 1.356 . S
C927 C926 1.363 . S
C927 C930 1.364 . S
N928 C930 1.357 . S
N928 H940 0.984 1_556 S
N928 H941 0.985 . S
N929 C931 1.357 . S
N929 H934 0.984 . S
N929 H935 0.985 1_554 S
C930 C924 1.378 1_556 S
C930 C927 1.364 . S
C930 N928 1.357 . S
C931 C925 1.364 . S
C931 C926 1.378 1_554 S
C931 N929 1.357 . S
N932 C924 1.356 . S
N932 H938 0.984 . S
N932 H939 0.984 . S
N933 C926 1.356 . S
N933 H936 0.984 . S
N933 H937 0.985 . S
H934 N929 0.984 . S
H935 N929 0.985 1_556 S
H936 N933 0.984 . S
H937 N933 0.985 . S
H938 N932 0.984 . S
H939 N932 0.984 . S
H940 N928 0.984 1_554 S
H941 N928 0.985 . S
C942 C943 1.363 . S
C942 C948 1.379 1_455 S
C942 N950 1.356 . S
C943 C942 1.363 . S
C943 C949 1.363 . S
C944 C945 1.363 . S
C944 C949 1.379 1_655 S
C944 N951 1.356 . S
C945 C944 1.363 . S
C945 C948 1.363 . S
N946 C948 1.356 . S
N946 H958 0.984 . S
N946 H959 0.985 . S
N947 C949 1.356 . S
N947 H952 0.984 . S
N947 H953 0.985 . S
C948 C942 1.379 1_655 S
C948 C945 1.363 . S
C948 N946 1.356 . S
C949 C943 1.363 . S
C949 C944 1.379 1_455 S
C949 N947 1.356 . S
N950 C942 1.356 . S
N950 H956 0.984 . S
N950 H957 0.984 . S
N951 C944 1.356 . S
N951 H954 0.984 . S
N951 H955 0.985 . S
H952 N947 0.984 . S
H953 N947 0.985 . S
H954 N951 0.984 . S
H955 N951 0.985 . S
H956 N950 0.984 . S
H957 N950 0.984 . S
H958 N946 0.984 . S
H959 N946 0.985 . S
C960 C961 1.363 . S
C960 C966 1.379 . S
C960 N968 1.356 . S
C961 C960 1.363 . S
C961 C967 1.363 . S
C962 C963 1.363 . S
C962 C967 1.379 . S
C962 N969 1.356 . S
C963 C962 1.363 . S
C963 C966 1.363 . S
N964 C966 1.356 . S
N964 H976 0.984 . S
N964 H977 0.985 . S
N965 C967 1.356 . S
N965 H970 0.984 . S
N965 H971 0.985 . S
C966 C960 1.379 . S
C966 C963 1.363 . S
C966 N964 1.356 . S
C967 C961 1.363 . S
C967 C962 1.379 . S
C967 N965 1.356 . S
N968 C960 1.356 . S
N968 H974 0.984 . S
N968 H975 0.984 . S
N969 C962 1.356 . S
N969 H972 0.984 . S
N969 H973 0.985 . S
H970 N965 0.984 . S
H971 N965 0.985 . S
H972 N969 0.984 . S
H973 N969 0.985 . S
H974 N968 0.984 . S
H975 N968 0.984 . S
H976 N964 0.984 . S
H977 N964 0.985 . S
C978 C979 1.363 . S
C978 C984 1.379 . S
C978 N986 1.356 . S
C979 C978 1.363 . S
C979 C985 1.363 . S
C980 C981 1.363 . S
C980 C985 1.379 . S
C980 N987 1.356 . S
C981 C980 1.363 . S
C981 C984 1.363 . S
N982 C984 1.356 . S
N982 H994 0.984 . S
N982 H995 0.985 . S
N983 C985 1.356 . S
N983 H988 0.984 . S
N983 H989 0.985 . S
C984 C978 1.379 . S
C984 C981 1.363 . S
C984 N982 1.356 . S
C985 C979 1.363 . S
C985 C980 1.379 . S
C985 N983 1.356 . S
N986 C978 1.356 . S
N986 H992 0.984 . S
N986 H993 0.984 . S
N987 C980 1.356 . S
N987 H990 0.984 . S
N987 H991 0.985 . S
H988 N983 0.984 . S
H989 N983 0.985 . S
H990 N987 0.984 . S
H991 N987 0.985 . S
H992 N986 0.984 . S
H993 N986 0.984 . S
H994 N982 0.984 . S
H995 N982 0.985 . S
C996 C997 1.363 . S
C996 C1002 1.379 . S
C996 N1004 1.356 . S
C997 C996 1.363 . S
C997 C1003 1.363 . S
C998 C999 1.363 . S
C998 C1003 1.379 . S
C998 N1005 1.356 . S
C999 C998 1.363 . S
C999 C1002 1.363 . S
N1000 C1002 1.356 . S
N1000 H1012 0.984 . S
N1000 H1013 0.985 . S
N1001 C1003 1.356 . S
N1001 H1006 0.984 . S
N1001 H1007 0.985 . S
C1002 C996 1.379 . S
C1002 C999 1.363 . S
C1002 N1000 1.356 . S
C1003 C997 1.363 . S
C1003 C998 1.379 . S
C1003 N1001 1.356 . S
N1004 C996 1.356 . S
N1004 H1010 0.984 . S
N1004 H1011 0.984 . S
N1005 C998 1.356 . S
N1005 H1008 0.984 . S
N1005 H1009 0.985 . S
H1006 N1001 0.984 . S
H1007 N1001 0.985 . S
H1008 N1005 0.984 . S
H1009 N1005 0.985 . S
H1010 N1004 0.984 . S
H1011 N1004 0.984 . S
H1012 N1000 0.984 . S
H1013 N1000 0.985 . S
C1014 C1015 1.363 . S
C1014 C1020 1.379 . S
C1014 N1022 1.356 . S
C1015 C1014 1.363 . S
C1015 C1021 1.363 . S
C1016 C1017 1.363 . S
C1016 C1021 1.379 . S
C1016 N1023 1.356 . S
C1017 C1016 1.363 . S
C1017 C1020 1.363 . S
N1018 C1020 1.356 . S
N1018 H1030 0.984 . S
N1018 H1031 0.985 . S
N1019 C1021 1.356 . S
N1019 H1024 0.984 . S
N1019 H1025 0.985 . S
C1020 C1014 1.379 . S
C1020 C1017 1.363 . S
C1020 N1018 1.356 . S
C1021 C1015 1.363 . S
C1021 C1016 1.379 . S
C1021 N1019 1.356 . S
N1022 C1014 1.356 . S
N1022 H1028 0.984 . S
N1022 H1029 0.984 . S
N1023 C1016 1.356 . S
N1023 H1026 0.984 . S
N1023 H1027 0.985 . S
H1024 N1019 0.984 . S
H1025 N1019 0.985 . S
H1026 N1023 0.984 . S
H1027 N1023 0.985 . S
H1028 N1022 0.984 . S
H1029 N1022 0.984 . S
H1030 N1018 0.984 . S
H1031 N1018 0.985 . S
C1032 C1033 1.363 . S
C1032 C1038 1.379 . S
C1032 N1040 1.356 . S
C1033 C1032 1.363 . S
C1033 C1039 1.363 . S
C1034 C1035 1.363 . S
C1034 C1039 1.379 . S
C1034 N1041 1.356 . S
C1035 C1034 1.363 . S
C1035 C1038 1.363 . S
N1036 C1038 1.356 . S
N1036 H1048 0.984 . S
N1036 H1049 0.985 . S
N1037 C1039 1.356 . S
N1037 H1042 0.984 . S
N1037 H1043 0.985 . S
C1038 C1032 1.379 . S
C1038 C1035 1.363 . S
C1038 N1036 1.356 . S
C1039 C1033 1.363 . S
C1039 C1034 1.379 . S
C1039 N1037 1.356 . S
N1040 C1032 1.356 . S
N1040 H1046 0.984 . S
N1040 H1047 0.984 . S
N1041 C1034 1.356 . S
N1041 H1044 0.984 . S
N1041 H1045 0.985 . S
H1042 N1037 0.984 . S
H1043 N1037 0.985 . S
H1044 N1041 0.984 . S
H1045 N1041 0.985 . S
H1046 N1040 0.984 . S
H1047 N1040 0.984 . S
H1048 N1036 0.984 . S
H1049 N1036 0.985 . S
C1050 C1051 1.363 . S
C1050 C1056 1.379 . S
C1050 N1058 1.356 . S
C1051 C1050 1.363 . S
C1051 C1057 1.363 . S
C1052 C1053 1.363 . S
C1052 C1057 1.379 . S
C1052 N1059 1.356 . S
C1053 C1052 1.363 . S
C1053 C1056 1.363 . S
N1054 C1056 1.356 . S
N1054 H1066 0.984 . S
N1054 H1067 0.985 . S
N1055 C1057 1.356 . S
N1055 H1060 0.984 . S
N1055 H1061 0.985 . S
C1056 C1050 1.379 . S
C1056 C1053 1.363 . S
C1056 N1054 1.356 . S
C1057 C1051 1.363 . S
C1057 C1052 1.379 . S
C1057 N1055 1.356 . S
N1058 C1050 1.356 . S
N1058 H1064 0.984 . S
N1058 H1065 0.984 . S
N1059 C1052 1.356 . S
N1059 H1062 0.984 . S
N1059 H1063 0.985 . S
H1060 N1055 0.984 . S
H1061 N1055 0.985 . S
H1062 N1059 0.984 . S
H1063 N1059 0.985 . S
H1064 N1058 0.984 . S
H1065 N1058 0.984 . S
H1066 N1054 0.984 . S
H1067 N1054 0.985 . S
C1068 C1069 1.363 . S
C1068 C1074 1.379 . S
C1068 N1076 1.356 . S
C1069 C1068 1.363 . S
C1069 C1075 1.363 . S
C1070 C1071 1.363 . S
C1070 C1075 1.379 . S
C1070 N1077 1.356 . S
C1071 C1070 1.363 . S
C1071 C1074 1.363 . S
N1072 C1074 1.356 . S
N1072 H1084 0.984 . S
N1072 H1085 0.985 . S
N1073 C1075 1.356 . S
N1073 H1078 0.984 . S
N1073 H1079 0.985 . S
C1074 C1068 1.379 . S
C1074 C1071 1.363 . S
C1074 N1072 1.356 . S
C1075 C1069 1.363 . S
C1075 C1070 1.379 . S
C1075 N1073 1.356 . S
N1076 C1068 1.356 . S
N1076 H1082 0.984 . S
N1076 H1083 0.984 . S
N1077 C1070 1.356 . S
N1077 H1080 0.984 . S
N1077 H1081 0.985 . S
H1078 N1073 0.984 . S
H1079 N1073 0.985 . S
H1080 N1077 0.984 . S
H1081 N1077 0.985 . S
H1082 N1076 0.984 . S
H1083 N1076 0.984 . S
H1084 N1072 0.984 . S
H1085 N1072 0.985 . S
C1086 C1087 1.363 . S
C1086 C1092 1.379 . S
C1086 N1094 1.356 . S
C1087 C1086 1.363 . S
C1087 C1093 1.363 . S
C1088 C1089 1.363 . S
C1088 C1093 1.379 . S
C1088 N1095 1.356 . S
C1089 C1088 1.363 . S
C1089 C1092 1.363 . S
N1090 C1092 1.356 . S
N1090 H1102 0.984 . S
N1090 H1103 0.985 . S
N1091 C1093 1.356 . S
N1091 H1096 0.984 . S
N1091 H1097 0.985 . S
C1092 C1086 1.379 . S
C1092 C1089 1.363 . S
C1092 N1090 1.356 . S
C1093 C1087 1.363 . S
C1093 C1088 1.379 . S
C1093 N1091 1.356 . S
N1094 C1086 1.356 . S
N1094 H1100 0.984 . S
N1094 H1101 0.984 . S
N1095 C1088 1.356 . S
N1095 H1098 0.984 . S
N1095 H1099 0.985 . S
H1096 N1091 0.984 . S
H1097 N1091 0.985 . S
H1098 N1095 0.984 . S
H1099 N1095 0.985 . S
H1100 N1094 0.984 . S
H1101 N1094 0.984 . S
H1102 N1090 0.984 . S
H1103 N1090 0.985 . S
C1104 C1105 1.363 . S
C1104 C1110 1.379 . S
C1104 N1112 1.356 . S
C1105 C1104 1.363 . S
C1105 C1111 1.363 . S
C1106 C1107 1.363 . S
C1106 C1111 1.379 . S
C1106 N1113 1.356 . S
C1107 C1106 1.363 . S
C1107 C1110 1.363 . S
N1108 C1110 1.356 . S
N1108 H1120 0.984 . S
N1108 H1121 0.985 . S
N1109 C1111 1.356 . S
N1109 H1114 0.984 . S
N1109 H1115 0.985 . S
C1110 C1104 1.379 . S
C1110 C1107 1.363 . S
C1110 N1108 1.356 . S
C1111 C1105 1.363 . S
C1111 C1106 1.379 . S
C1111 N1109 1.356 . S
N1112 C1104 1.356 . S
N1112 H1118 0.984 . S
N1112 H1119 0.984 . S
N1113 C1106 1.356 . S
N1113 H1116 0.984 . S
N1113 H1117 0.985 . S
H1114 N1109 0.984 . S
H1115 N1109 0.985 . S
H1116 N1113 0.984 . S
H1117 N1113 0.985 . S
H1118 N1112 0.984 . S
H1119 N1112 0.984 . S
H1120 N1108 0.984 . S
H1121 N1108 0.985 . S
C1122 C1123 1.363 . S
C1122 C1128 1.379 . S
C1122 N1130 1.356 . S
C1123 C1122 1.363 . S
C1123 C1129 1.363 . S
C1124 C1125 1.363 . S
C1124 C1129 1.379 . S
C1124 N1131 1.356 . S
C1125 C1124 1.363 . S
C1125 C1128 1.363 . S
N1126 C1128 1.356 . S
N1126 H1138 0.984 . S
N1126 H1139 0.985 . S
N1127 C1129 1.356 . S
N1127 H1132 0.984 . S
N1127 H1133 0.985 . S
C1128 C1122 1.379 . S
C1128 C1125 1.363 . S
C1128 N1126 1.356 . S
C1129 C1123 1.363 . S
C1129 C1124 1.379 . S
C1129 N1127 1.356 . S
N1130 C1122 1.356 . S
N1130 H1136 0.984 . S
N1130 H1137 0.984 . S
N1131 C1124 1.356 . S
N1131 H1134 0.984 . S
N1131 H1135 0.985 . S
H1132 N1127 0.984 . S
H1133 N1127 0.985 . S
H1134 N1131 0.984 . S
H1135 N1131 0.985 . S
H1136 N1130 0.984 . S
H1137 N1130 0.984 . S
H1138 N1126 0.984 . S
H1139 N1126 0.985 . S
C1140 C1141 1.363 . S
C1140 C1146 1.379 . S
C1140 N1148 1.356 . S
C1141 C1140 1.363 . S
C1141 C1147 1.363 . S
C1142 C1143 1.363 . S
C1142 C1147 1.379 . S
C1142 N1149 1.356 . S
C1143 C1142 1.363 . S
C1143 C1146 1.363 . S
N1144 C1146 1.356 . S
N1144 H1156 0.984 . S
N1144 H1157 0.985 . S
N1145 C1147 1.356 . S
N1145 H1150 0.984 . S
N1145 H1151 0.985 . S
C1146 C1140 1.379 . S
C1146 C1143 1.363 . S
C1146 N1144 1.356 . S
C1147 C1141 1.363 . S
C1147 C1142 1.379 . S
C1147 N1145 1.356 . S
N1148 C1140 1.356 . S
N1148 H1154 0.984 . S
N1148 H1155 0.984 . S
N1149 C1142 1.356 . S
N1149 H1152 0.984 . S
N1149 H1153 0.985 . S
H1150 N1145 0.984 . S
H1151 N1145 0.985 . S
H1152 N1149 0.984 . S
H1153 N1149 0.985 . S
H1154 N1148 0.984 . S
H1155 N1148 0.984 . S
H1156 N1144 0.984 . S
H1157 N1144 0.985 . S
C1158 C1159 1.363 . S
C1158 C1164 1.379 . S
C1158 N1166 1.356 . S
C1159 C1158 1.363 . S
C1159 C1165 1.363 . S
C1160 C1161 1.363 . S
C1160 C1165 1.379 . S
C1160 N1167 1.356 . S
C1161 C1160 1.363 . S
C1161 C1164 1.363 . S
N1162 C1164 1.356 . S
N1162 H1174 0.984 . S
N1162 H1175 0.985 . S
N1163 C1165 1.356 . S
N1163 H1168 0.984 . S
N1163 H1169 0.985 . S
C1164 C1158 1.379 . S
C1164 C1161 1.363 . S
C1164 N1162 1.356 . S
C1165 C1159 1.363 . S
C1165 C1160 1.379 . S
C1165 N1163 1.356 . S
N1166 C1158 1.356 . S
N1166 H1172 0.984 . S
N1166 H1173 0.984 . S
N1167 C1160 1.356 . S
N1167 H1170 0.984 . S
N1167 H1171 0.985 . S
H1168 N1163 0.984 . S
H1169 N1163 0.985 . S
H1170 N1167 0.984 . S
H1171 N1167 0.985 . S
H1172 N1166 0.984 . S
H1173 N1166 0.984 . S
H1174 N1162 0.984 . S
H1175 N1162 0.985 . S
C313 C200 1.389 . S
C315 C5 1.389 . S
C331 C18 1.389 . S
C333 C213 1.389 . S
C349 C31 1.389 . S
C351 C226 1.389 . S
C367 C44 1.389 . S
C369 C161 1.389 . S
C385 C174 1.389 . S
C387 C57 1.389 . S
C403 C70 1.389 . S
C405 C187 1.389 . S
C421 C278 1.389 . S
C423 C83 1.389 . S
C439 C96 1.389 . S
C441 C291 1.389 . S
C457 C109 1.389 . S
C459 C304 1.389 . S
C475 C239 1.389 . S
C477 C122 1.389 . S
C493 C135 1.389 . S
C495 C252 1.389 . S
C511 C265 1.389 . S
C513 C148 1.389 . S
C529 C10 1.259 . S
C531 C309 1.259 . S
C547 C244 1.259 . S
C549 C23 1.259 . S
C565 C36 1.259 . S
C567 C257 1.259 . S
C583 C270 1.259 . S
C585 C49 1.259 . S
C601 C62 1.259 . S
C603 C283 1.259 . S
C619 C296 1.259 . S
C621 C75 1.259 . S
C637 C88 1.259 . S
C639 C179 1.259 . S
C655 C192 1.259 . S
C657 C101 1.259 . S
C673 C205 1.259 . S
C675 C114 1.259 . S
C691 C218 1.259 . S
C693 C127 1.259 . S
C709 C140 1.259 . S
C711 C231 1.259 . S
C727 C153 1.259 . S
C729 C166 1.259 . S
C745 C91 1.273 . S
C747 C0 1.273 . S
C763 C104 1.273 . S
C765 C13 1.273 . S
C781 C117 1.273 . S
C783 C26 1.273 . S
C799 C130 1.273 . S
C801 C39 1.273 . S
C817 C52 1.273 . S
C819 C143 1.273 . S
C835 C65 1.273 . S
C837 C78 1.273 . S
C853 C156 1.273 . S
C855 C247 1.273 . S
C871 C169 1.273 . S
C873 C260 1.273 . S
C889 C273 1.273 . S
C891 C182 1.273 . S
C907 C286 1.273 . S
C909 C195 1.273 . S
C925 C299 1.273 . S
C927 C208 1.273 . S
C943 C234 1.273 . S
C945 C221 1.273 . S
C961 C8 1.433 . S
C963 C255 1.433 . S
C979 C268 1.433 . S
C981 C21 1.433 . S
C997 C34 1.433 . S
C999 C281 1.433 . S
C1015 C294 1.433 . S
C1017 C47 1.433 . S
C1033 C60 1.433 . S
C1035 C307 1.433 . S
C1051 C242 1.433 . S
C1053 C73 1.433 . S
C1069 C86 1.433 . S
C1071 C229 1.433 . S
C1087 C164 1.433 . S
C1089 C99 1.433 . S
C1105 C112 1.433 . S
C1107 C177 1.433 . S
C1123 C125 1.433 . S
C1125 C190 1.433 . S
C1141 C138 1.433 . S
C1143 C203 1.433 . S
C1159 C151 1.433 . S
C1161 C216 1.433 . S
