# Generated by pormake.
# Topology mon, (4)-cn, num edge types: 1
# Building blocks:
#     Node 0, Type 0, BuildingBlock: KUFVIS_clean_sbu_0, # of connection points: 4
#     Node 1, Type 0, BuildingBlock: KUFVIS_clean_sbu_0, # of connection points: 4
#     Node 2, Type 0, BuildingBlock: KUFVIS_clean_sbu_0, # of connection points: 4
#     Node 3, Type 0, BuildingBlock: KUFVIS_clean_sbu_0, # of connection points: 4
#     Node 4, Type 0, BuildingBlock: KUFVIS_clean_sbu_0, # of connection points: 4
#     Node 5, Type 0, BuildingBlock: KUFVIS_clean_sbu_0, # of connection points: 4
#     Node 6, Type 0, BuildingBlock: KUFVIS_clean_sbu_0, # of connection points: 4
#     Node 7, Type 0, BuildingBlock: KUFVIS_clean_sbu_0, # of connection points: 4
#     Node 8, Type 0, BuildingBlock: KUFVIS_clean_sbu_0, # of connection points: 4
#     Node 9, Type 0, BuildingBlock: KUFVIS_clean_sbu_0, # of connection points: 4
#     Node 10, Type 0, BuildingBlock: KUFVIS_clean_sbu_0, # of connection points: 4
#     Node 11, Type 0, BuildingBlock: KUFVIS_clean_sbu_0, # of connection points: 4
#     Node 12, Type 0, BuildingBlock: KUFVIS_clean_sbu_0, # of connection points: 4
#     Node 13, Type 0, BuildingBlock: KUFVIS_clean_sbu_0, # of connection points: 4
#     Node 14, Type 0, BuildingBlock: KUFVIS_clean_sbu_0, # of connection points: 4
#     Node 15, Type 0, BuildingBlock: KUFVIS_clean_sbu_0, # of connection points: 4
#     Edge 16, Type (0, 0), BuildingBlock: XUDNAN_clean_linker_2, # of connection points: 2
#     Edge 17, Type (0, 0), BuildingBlock: XUDNAN_clean_linker_2, # of connection points: 2
#     Edge 18, Type (0, 0), BuildingBlock: XUDNAN_clean_linker_2, # of connection points: 2
#     Edge 19, Type (0, 0), BuildingBlock: XUDNAN_clean_linker_2, # of connection points: 2
#     Edge 20, Type (0, 0), BuildingBlock: XUDNAN_clean_linker_2, # of connection points: 2
#     Edge 21, Type (0, 0), BuildingBlock: XUDNAN_clean_linker_2, # of connection points: 2
#     Edge 22, Type (0, 0), BuildingBlock: XUDNAN_clean_linker_2, # of connection points: 2
#     Edge 23, Type (0, 0), BuildingBlock: XUDNAN_clean_linker_2, # of connection points: 2
#     Edge 24, Type (0, 0), BuildingBlock: XUDNAN_clean_linker_2, # of connection points: 2
#     Edge 25, Type (0, 0), BuildingBlock: XUDNAN_clean_linker_2, # of connection points: 2
#     Edge 26, Type (0, 0), BuildingBlock: XUDNAN_clean_linker_2, # of connection points: 2
#     Edge 27, Type (0, 0), BuildingBlock: XUDNAN_clean_linker_2, # of connection points: 2
#     Edge 28, Type (0, 0), BuildingBlock: XUDNAN_clean_linker_2, # of connection points: 2
#     Edge 29, Type (0, 0), BuildingBlock: XUDNAN_clean_linker_2, # of connection points: 2
#     Edge 30, Type (0, 0), BuildingBlock: XUDNAN_clean_linker_2, # of connection points: 2
#     Edge 31, Type (0, 0), BuildingBlock: XUDNAN_clean_linker_2, # of connection points: 2
#     Edge 32, Type (0, 0), BuildingBlock: XUDNAN_clean_linker_2, # of connection points: 2
#     Edge 33, Type (0, 0), BuildingBlock: XUDNAN_clean_linker_2, # of connection points: 2
#     Edge 34, Type (0, 0), BuildingBlock: XUDNAN_clean_linker_2, # of connection points: 2
#     Edge 35, Type (0, 0), BuildingBlock: XUDNAN_clean_linker_2, # of connection points: 2
#     Edge 36, Type (0, 0), BuildingBlock: XUDNAN_clean_linker_2, # of connection points: 2
#     Edge 37, Type (0, 0), BuildingBlock: XUDNAN_clean_linker_2, # of connection points: 2
#     Edge 38, Type (0, 0), BuildingBlock: XUDNAN_clean_linker_2, # of connection points: 2
#     Edge 39, Type (0, 0), BuildingBlock: XUDNAN_clean_linker_2, # of connection points: 2
#     Edge 40, Type (0, 0), BuildingBlock: XUDNAN_clean_linker_2, # of connection points: 2
#     Edge 41, Type (0, 0), BuildingBlock: XUDNAN_clean_linker_2, # of connection points: 2
#     Edge 42, Type (0, 0), BuildingBlock: XUDNAN_clean_linker_2, # of connection points: 2
#     Edge 43, Type (0, 0), BuildingBlock: XUDNAN_clean_linker_2, # of connection points: 2
#     Edge 44, Type (0, 0), BuildingBlock: XUDNAN_clean_linker_2, # of connection points: 2
#     Edge 45, Type (0, 0), BuildingBlock: XUDNAN_clean_linker_2, # of connection points: 2
#     Edge 46, Type (0, 0), BuildingBlock: XUDNAN_clean_linker_2, # of connection points: 2
#     Edge 47, Type (0, 0), BuildingBlock: XUDNAN_clean_linker_2, # of connection points: 2
# Relax obj value: 0.170
# Max RMSD: 0.160
# Mean RMSD: 0.160
data_MOF--net-mon--node1-KUFVIS_clean_sbu_0--edge1-XUDNAN_clean_linker_2
_symmetry_space_group_name_H-M    P1
_symmetry_Int_Tables_number       1
_symmetry_cell_setting            triclinic
loop_
_symmetry_equiv_pos_as_xyz
'x, y, z'
_cell_length_a     33.449062
_cell_length_b     33.411972
_cell_length_c     84.308841
_cell_angle_alpha  89.994123
_cell_angle_beta   90.0141
_cell_angle_gamma 89.899184
loop_
_atom_site_label
_atom_site_type_symbol
_atom_site_fract_x
_atom_site_fract_y
_atom_site_fract_z
_atom_type_partial_charge
Mn0 Mn 0.02066 0.02293 0.59159 0.0
Mn1 Mn 0.94223 0.06538 0.57252 0.0
C2 C 0.9567 0.01669 0.60203 0.0
C3 C 0.06292 0.96907 0.59772 0.0
C4 C 0.00546 0.11321 0.59013 0.0
O5 O 0.04133 0.02903 0.56887 0.0
O6 O 0.98499 0.0519 0.55684 0.0
C7 C 0.9121 1.00214 0.55099 0.0
N8 N 0.90597 0.02771 0.56333 0.0
C9 C 0.83674 0.0085 0.56511 0.0
C10 C 0.84259 0.98152 0.55259 0.0
C11 C 0.88041 0.97845 0.54546 0.0
C12 C 0.86932 0.0318 0.56995 0.0
H13 H 0.94084 1.00007 0.54535 0.0
C14 C 0.02132 0.0392 0.55655 0.0
O15 O 0.0739 0.00584 0.59998 0.0
O16 O 0.02851 0.96368 0.59094 0.0
N17 N 0.8995 0.0778 0.58683 0.0
C18 C 0.89977 0.10252 0.59968 0.0
C19 C 0.86473 0.10741 0.60865 0.0
C20 C 0.82983 0.08682 0.60433 0.0
C21 C 0.83032 0.06138 0.5911 0.0
C22 C 0.86608 0.05785 0.58257 0.0
H23 H 0.92658 0.11816 0.60316 0.0
O24 O 0.98794 0.01557 0.61118 0.0
O25 O 0.9637 0.02433 0.58713 0.0
O26 O 0.02503 0.08343 0.59548 0.0
O27 O 0.97525 0.1092 0.58112 0.0
C28 C 0.79701 0.03867 0.58629 0.0
C29 C 0.80017 0.01236 0.57327 0.0
H30 H 0.81832 0.96287 0.5484 0.0
H31 H 0.88512 0.95789 0.53572 0.0
H32 H 0.86468 0.12688 0.6189 0.0
H33 H 0.80294 0.09043 0.61135 0.0
H34 H 0.76897 0.0408 0.59266 0.0
H35 H 0.77451 0.99465 0.56982 0.0
Mn36 Mn 0.25799 0.73955 0.8418 0.0
Mn37 Mn 0.23722 0.64839 0.8266 0.0
C38 C 0.27363 0.68149 0.85587 0.0
C39 C 0.29837 0.79506 0.84749 0.0
C40 C 0.17382 0.70316 0.84004 0.0
O41 O 0.25426 0.75205 0.81813 0.0
O42 O 0.23942 0.6897 0.80967 0.0
C43 C 0.30827 0.63336 0.80645 0.0
N44 N 0.28319 0.62173 0.8183 0.0
C45 C 0.30947 0.55466 0.81783 0.0
C46 C 0.33514 0.56572 0.80543 0.0
C47 C 0.33497 0.60542 0.79989 0.0
C48 C 0.28429 0.58407 0.82414 0.0
H49 H 0.30761 0.66359 0.80196 0.0
C50 C 0.24668 0.72686 0.80711 0.0
O51 O 0.25971 0.79713 0.84759 0.0
O52 O 0.31403 0.76108 0.84326 0.0
N53 N 0.23529 0.60574 0.84168 0.0
C54 C 0.21109 0.60126 0.85454 0.0
C55 C 0.21114 0.56472 0.86279 0.0
C56 C 0.23523 0.53294 0.85745 0.0
C57 C 0.25978 0.53833 0.84413 0.0
C58 C 0.25949 0.57585 0.83677 0.0
H59 H 0.19187 0.62536 0.85841 0.0
O60 O 0.2656 0.71489 0.86311 0.0
O61 O 0.27022 0.68216 0.84052 0.0
O62 O 0.19694 0.73235 0.84301 0.0
O63 O 0.18634 0.6702 0.83442 0.0
C64 C 0.28426 0.50793 0.83778 0.0
C65 C 0.3087 0.51594 0.8245 0.0
H66 H 0.35555 0.54417 0.80025 0.0
H67 H 0.35494 0.61428 0.79043 0.0
H68 H 0.19214 0.56082 0.87306 0.0
H69 H 0.23457 0.50455 0.86364 0.0
H70 H 0.28481 0.47843 0.8431 0.0
H71 H 0.32781 0.49251 0.81986 0.0
Mn72 Mn 0.53446 0.99184 0.08916 0.0
Mn73 Mn 0.60894 0.95339 0.0666 0.0
C74 C 0.60059 1.00007 0.097 0.0
C75 C 0.49135 0.04329 0.09724 0.0
C76 C 0.55282 0.90234 0.0864 0.0
O77 O 0.5082 0.98582 0.06736 0.0
O78 O 0.56184 0.96569 0.05292 0.0
C79 C 0.63024 0.01933 0.04469 0.0
N80 N 0.6409 0.99304 0.05629 0.0
C81 C 0.70947 0.01469 0.05514 0.0
C82 C 0.69907 0.04226 0.04329 0.0
C83 C 0.6593 0.04451 0.03802 0.0
C84 C 0.67934 0.98989 0.06115 0.0
H85 H 0.59989 0.0209 0.04049 0.0
C86 C 0.52522 0.97692 0.05421 0.0
O87 O 0.48279 0.00598 0.09969 0.0
O88 O 0.52377 0.05063 0.08929 0.0
N89 N 0.65579 0.94203 0.07887 0.0
C90 C 0.66001 0.91681 0.09146 0.0
C91 C 0.69752 0.9128 0.09877 0.0
C92 C 0.73028 0.93477 0.09307 0.0
C93 C 0.72516 0.96069 0.08015 0.0
C94 C 0.6871 0.9633 0.07329 0.0
H95 H 0.63488 0.9001 0.09598 0.0
O96 O 0.57184 0.99991 0.10736 0.0
O97 O 0.59001 0.99292 0.0824 0.0
O98 O 0.53387 0.93113 0.09282 0.0
O99 O 0.58011 0.90782 0.07613 0.0
C100 C 0.75608 0.98483 0.07408 0.0
C101 C 0.74828 0.0117 0.06154 0.0
H102 H 0.7213 0.06208 0.03825 0.0
H103 H 0.65106 0.06563 0.02885 0.0
H104 H 0.70116 0.89296 0.10881 0.0
H105 H 0.75909 0.93184 0.09882 0.0
H106 H 0.78582 0.98344 0.07913 0.0
H107 H 0.77215 0.03055 0.05715 0.0
Mn108 Mn 0.30797 0.26752 0.34404 0.0
Mn109 Mn 0.33123 0.35704 0.32783 0.0
C110 C 0.29587 0.32705 0.35778 0.0
C111 C 0.26607 0.21347 0.35043 0.0
C112 C 0.3934 0.3007 0.34122 0.0
O113 O 0.30958 0.25365 0.32042 0.0
O114 O 0.32612 0.31496 0.31136 0.0
C115 C 0.25853 0.37308 0.3087 0.0
N116 N 0.28563 0.38484 0.3198 0.0
C117 C 0.26237 0.45293 0.3186 0.0
C118 C 0.23482 0.44179 0.30686 0.0
C119 C 0.23238 0.40153 0.30211 0.0
C120 C 0.28682 0.42306 0.32502 0.0
H121 H 0.25709 0.34233 0.30485 0.0
C122 C 0.31712 0.27807 0.30912 0.0
O123 O 0.30465 0.21036 0.35028 0.0
O124 O 0.25125 0.24784 0.34618 0.0
N125 N 0.33603 0.40068 0.34234 0.0
C126 C 0.36132 0.40519 0.35487 0.0
C127 C 0.3637 0.44248 0.3625 0.0
C128 C 0.3409 0.47491 0.35688 0.0
C129 C 0.3152 0.46947 0.34391 0.0
C130 C 0.31305 0.43129 0.33718 0.0
H131 H 0.37948 0.3805 0.35895 0.0
O132 O 0.30259 0.29367 0.36525 0.0
O133 O 0.29808 0.32535 0.34243 0.0
O134 O 0.36939 0.27254 0.34465 0.0
O135 O 0.38181 0.33375 0.33536 0.0
C136 C 0.29181 0.50042 0.33732 0.0
C137 C 0.26572 0.49225 0.32455 0.0
H138 H 0.21485 0.46372 0.30166 0.0
H139 H 0.21078 0.39258 0.29325 0.0
H140 H 0.38356 0.44641 0.37251 0.0
H141 H 0.34334 0.50382 0.36262 0.0
H142 H 0.29323 0.53046 0.34211 0.0
H143 H 0.24733 0.51609 0.31978 0.0
Mn144 Mn 0.02479 0.98525 0.41008 0.0
Mn145 Mn 0.93901 0.96549 0.4296 0.0
C146 C 0.96336 0.99561 0.39781 0.0
C147 C 0.07804 0.02532 0.40123 0.0
C148 C 0.98977 0.90074 0.41501 0.0
O149 O 0.04327 0.98695 0.43307 0.0
O150 O 0.98534 0.96822 0.44449 0.0
C151 C 0.93227 0.03877 0.44923 0.0
N152 N 0.91631 0.01304 0.43842 0.0
C153 C 0.85098 0.0423 0.44151 0.0
C154 C 0.86673 0.06919 0.45264 0.0
C155 C 0.90765 0.0677 0.45637 0.0
C156 C 0.87723 0.01502 0.4344 0.0
H157 H 0.96338 0.03685 0.45256 0.0
C158 C 0.02237 0.97805 0.44523 0.0
O159 O 0.0806 0.9867 0.4021 0.0
O160 O 0.04476 0.04127 0.4061 0.0
N161 N 0.89143 0.96276 0.41708 0.0
C162 C 0.88175 0.93659 0.40531 0.0
C163 C 0.84264 0.93638 0.39925 0.0
C164 C 0.81365 0.96216 0.40571 0.0
C165 C 0.82431 0.98861 0.41791 0.0
C166 C 0.86411 0.98855 0.42301 0.0
H167 H 0.90378 0.91617 0.40059 0.0
O168 O 0.99533 0.98749 0.38967 0.0
O169 O 0.9676 0.99642 0.41318 0.0
O170 O 0.01847 0.92369 0.41107 0.0
O171 O 0.95771 0.91371 0.42128 0.0
C172 C 0.79699 0.01475 0.42532 0.0
C173 C 0.81025 0.0414 0.4372 0.0
H174 H 0.8477 0.09109 0.45838 0.0
H175 H 0.92001 0.08827 0.46498 0.0
H176 H 0.83466 0.9159 0.38983 0.0
H177 H 0.78332 0.96138 0.40122 0.0
H178 H 0.76583 0.01504 0.42181 0.0
H179 H 0.7891 0.06179 0.44263 0.0
Mn180 Mn 0.29946 0.74263 0.65916 0.0
Mn181 Mn 0.34278 0.65999 0.67444 0.0
C182 C 0.30011 0.68302 0.64487 0.0
C183 C 0.24457 0.78373 0.65325 0.0
C184 C 0.39009 0.73025 0.66184 0.0
O185 O 0.29944 0.75535 0.68285 0.0
O186 O 0.32761 0.69789 0.69163 0.0
C187 C 0.2759 0.625 0.69282 0.0
N188 N 0.30454 0.62146 0.68143 0.0
C189 C 0.29243 0.55081 0.67888 0.0
C190 C 0.26357 0.55348 0.69091 0.0
C191 C 0.25487 0.59085 0.69774 0.0
C192 C 0.31221 0.58589 0.67442 0.0
H193 H 0.26918 0.65362 0.69809 0.0
C194 C 0.31152 0.73234 0.69401 0.0
O195 O 0.28082 0.79747 0.65314 0.0
O196 O 0.24003 0.74698 0.65787 0.0
N197 N 0.35751 0.62107 0.65888 0.0
C198 C 0.38373 0.6245 0.6466 0.0
C199 C 0.39244 0.59076 0.63728 0.0
C200 C 0.37458 0.5538 0.64084 0.0
C201 C 0.34774 0.55105 0.65358 0.0
C202 C 0.33966 0.58586 0.66224 0.0
H203 H 0.39787 0.65277 0.64396 0.0
O204 O 0.29928 0.71753 0.63778 0.0
O205 O 0.30314 0.68437 0.66022 0.0
O206 O 0.36002 0.75153 0.65801 0.0
O207 O 0.38667 0.69561 0.66791 0.0
C208 C 0.32866 0.51519 0.65801 0.0
C209 C 0.30144 0.51496 0.6708 0.0
H210 H 0.24725 0.52721 0.69472 0.0
H211 H 0.23217 0.59329 0.70684 0.0
H212 H 0.41315 0.59314 0.62746 0.0
H213 H 0.38163 0.52775 0.63372 0.0
H214 H 0.33453 0.48768 0.65162 0.0
H215 H 0.28661 0.48731 0.67399 0.0
Mn216 Mn 0.5332 0.02275 0.91057 0.0
Mn217 Mn 0.61357 0.04216 0.93382 0.0
C218 C 0.59667 1.00172 0.90298 0.0
C219 C 0.47983 0.98409 0.901 0.0
C220 C 0.5718 0.10594 0.91449 0.0
O221 O 0.50781 0.03032 0.93242 0.0
O222 O 0.5636 0.04403 0.94663 0.0
C223 C 0.61226 0.97249 0.95555 0.0
N224 N 0.63188 0.99543 0.94471 0.0
C225 C 0.69219 0.95683 0.9479 0.0
C226 C 0.67264 0.93286 0.95912 0.0
C227 C 0.6325 0.94071 0.96295 0.0
C228 C 0.67068 0.98846 0.94109 0.0
H229 H 0.58144 0.97842 0.95856 0.0
C230 C 0.52573 0.03836 0.94546 0.0
O231 O 0.48058 0.02269 0.89969 0.0
O232 O 0.50957 0.96757 0.90848 0.0
N233 N 0.66347 0.04002 0.92275 0.0
C234 C 0.67611 0.06249 0.91025 0.0
C235 C 0.71461 0.05632 0.90407 0.0
C236 C 0.73974 0.02725 0.91086 0.0
C237 C 0.72599 1.00438 0.92369 0.0
C238 C 0.68734 0.0119 0.92935 0.0
H239 H 0.65673 0.08457 0.9049 0.0
O240 O 0.56961 0.00959 0.89235 0.0
O241 O 0.58674 0.00901 0.9176 0.0
O242 O 0.54476 0.08325 0.90886 0.0
O243 O 0.59933 0.09321 0.92359 0.0
C244 C 0.74856 0.97341 0.93069 0.0
C245 C 0.73173 0.94976 0.94283 0.0
H246 H 0.68799 0.90803 0.96473 0.0
H247 H 0.61718 0.92225 0.97156 0.0
H248 H 0.72484 0.07377 0.89405 0.0
H249 H 0.76926 0.02229 0.90595 0.0
H250 H 0.77854 0.96692 0.92656 0.0
H251 H 0.74908 0.9255 0.94788 0.0
Mn252 Mn 0.25916 0.26754 0.1624 0.0
Mn253 Mn 0.2268 0.35484 0.17771 0.0
C254 C 0.26753 0.32725 0.14861 0.0
C255 C 0.31067 0.22194 0.15668 0.0
C256 C 0.17119 0.29364 0.16305 0.0
O257 O 0.25567 0.25348 0.18586 0.0
O258 O 0.2324 0.31313 0.19446 0.0
C259 C 0.29531 0.37577 0.19845 0.0
N260 N 0.26933 0.38563 0.18664 0.0
C261 C 0.29147 0.45412 0.18681 0.0
C262 C 0.31779 0.44493 0.19925 0.0
C263 C 0.32013 0.40545 0.20493 0.0
C264 C 0.26792 0.42318 0.1807 0.0
H265 H 0.29702 0.34557 0.20291 0.0
C266 C 0.24419 0.27702 0.19692 0.0
O267 O 0.27337 0.21134 0.15575 0.0
O268 O 0.31763 0.25743 0.16214 0.0
N269 N 0.22162 0.39777 0.16282 0.0
C270 C 0.19905 0.39995 0.14941 0.0
C271 C 0.19728 0.43609 0.14092 0.0
C272 C 0.21837 0.46968 0.14642 0.0
C273 C 0.24185 0.46649 0.16015 0.0
C274 C 0.24315 0.42944 0.16788 0.0
H275 H 0.18311 0.37411 0.14512 0.0
O276 O 0.26433 0.2933 0.14126 0.0
O277 O 0.2636 0.32579 0.16391 0.0
O278 O 0.19739 0.26662 0.16042 0.0
O279 O 0.1797 0.32764 0.16893 0.0
C280 C 0.26428 0.49848 0.1664 0.0
C281 C 0.28862 0.49245 0.17988 0.0
H282 H 0.33692 0.46774 0.20429 0.0
H283 H 0.3408 0.39798 0.21436 0.0
H284 H 0.17954 0.43812 0.13021 0.0
H285 H 0.2167 0.49759 0.13992 0.0
H286 H 0.26353 0.52764 0.1608 0.0
H287 H 0.30633 0.51705 0.18439 0.0
Mn288 Mn 0.79517 0.24131 0.15432 0.0
Mn289 Mn 0.8335 0.16098 0.17331 0.0
C290 C 0.7972 0.17926 0.14171 0.0
C291 C 0.74278 0.28318 0.14604 0.0
C292 C 0.88448 0.22848 0.16026 0.0
O293 O 0.79254 0.25842 0.17762 0.0
O294 O 0.81366 0.20087 0.1892 0.0
C295 C 0.76303 0.12672 0.18962 0.0
N296 N 0.79407 0.12259 0.17934 0.0
C297 C 0.78337 0.05155 0.17747 0.0
C298 C 0.7518 0.05496 0.18834 0.0
C299 C 0.74124 0.09281 0.19427 0.0
C300 C 0.80376 0.08645 0.17322 0.0
H301 H 0.75515 0.1556 0.19424 0.0
C302 C 0.79989 0.23682 0.18983 0.0
O303 O 0.77947 0.29557 0.14647 0.0
O304 O 0.73612 0.24742 0.15147 0.0
N305 N 0.85256 0.12062 0.15908 0.0
C306 C 0.88179 0.12313 0.14787 0.0
C307 C 0.89318 0.08859 0.13952 0.0
C308 C 0.87485 0.05178 0.14294 0.0
C309 C 0.84486 0.04999 0.15454 0.0
C310 C 0.83423 0.08555 0.16224 0.0
H311 H 0.89628 0.15125 0.14533 0.0
O312 O 0.7973 0.21247 0.1337 0.0
O313 O 0.79743 0.18324 0.15706 0.0
O314 O 0.85587 0.24829 0.15417 0.0
O315 O 0.87896 0.19625 0.16797 0.0
C316 C 0.82509 0.01435 0.15876 0.0
C317 C 0.79474 0.01504 0.17038 0.0
H318 H 0.73496 0.02884 0.19195 0.0
H319 H 0.71657 0.0958 0.20249 0.0
H320 H 0.9163 0.09025 0.13056 0.0
H321 H 0.88397 0.02513 0.13658 0.0
H322 H 0.83288 0.98629 0.15311 0.0
H323 H 0.77951 0.98752 0.17344 0.0
Mn324 Mn 0.7622 0.77394 0.66423 0.0
Mn325 Mn 0.73272 0.8587 0.6825 0.0
C326 C 0.76772 0.83548 0.65153 0.0
C327 C 0.81111 0.7277 0.65621 0.0
C328 C 0.67473 0.80175 0.66701 0.0
O329 O 0.76232 0.75628 0.68736 0.0
O330 O 0.73757 0.81329 0.69772 0.0
C331 C 0.80281 0.87207 0.70334 0.0
N332 N 0.77722 0.88548 0.69193 0.0
C333 C 0.80247 0.95262 0.69427 0.0
C334 C 0.82913 0.93952 0.70602 0.0
C335 C 0.82956 0.89898 0.71046 0.0
C336 C 0.77725 0.92422 0.68732 0.0
H337 H 0.80247 0.84122 0.70713 0.0
C338 C 0.75003 0.7771 0.6991 0.0
O339 O 0.77344 0.71831 0.6562 0.0
O340 O 0.82024 0.76244 0.66198 0.0
N341 N 0.72766 0.90538 0.6695 0.0
C342 C 0.70239 0.91237 0.65714 0.0
C343 C 0.70052 0.9508 0.65043 0.0
C344 C 0.72391 0.98183 0.65677 0.0
C345 C 0.74963 0.97389 0.66952 0.0
C346 C 0.75115 0.93471 0.67536 0.0
H347 H 0.68421 0.88865 0.65234 0.0
O348 O 0.76397 0.80245 0.64359 0.0
O349 O 0.76722 0.83208 0.66692 0.0
O350 O 0.7002 0.77436 0.66383 0.0
O351 O 0.68428 0.83504 0.67329 0.0
C352 C 0.7737 1.00331 0.67673 0.0
C353 C 0.79987 0.99275 0.6892 0.0
H354 H 0.84943 0.9603 0.7117 0.0
H355 H 0.84998 0.88865 0.71954 0.0
H356 H 0.68076 0.95661 0.64053 0.0
H357 H 0.72197 0.01158 0.65171 0.0
H358 H 0.77276 0.03402 0.67263 0.0
H359 H 0.81866 0.0155 0.69448 0.0
Mn360 Mn 0.76976 0.24757 0.33717 0.0
Mn361 Mn 0.72518 0.16705 0.3206 0.0
C362 C 0.77717 0.18479 0.34866 0.0
C363 C 0.823 0.29048 0.34295 0.0
C364 C 0.67913 0.23174 0.33778 0.0
O365 O 0.76314 0.26541 0.31406 0.0
O366 O 0.73301 0.20983 0.30446 0.0
C367 C 0.78609 0.14023 0.2974 0.0
N368 N 0.76251 0.13252 0.31021 0.0
C369 C 0.78496 0.06407 0.31121 0.0
C370 C 0.8095 0.07131 0.29804 0.0
C371 C 0.81002 0.10954 0.2911 0.0
C372 C 0.76116 0.0956 0.31679 0.0
H373 H 0.78666 0.16954 0.29202 0.0
C374 C 0.74794 0.245 0.30267 0.0
O375 O 0.78613 0.30166 0.34464 0.0
O376 O 0.82899 0.25558 0.33657 0.0
N377 N 0.7177 0.1239 0.3352 0.0
C378 C 0.6958 0.1232 0.34882 0.0
C379 C 0.69418 0.08787 0.35782 0.0
C380 C 0.71509 0.05371 0.35273 0.0
C381 C 0.73759 0.05524 0.33871 0.0
C382 C 0.73788 0.0912 0.33018 0.0
H383 H 0.67997 0.14951 0.35284 0.0
O384 O 0.77768 0.21695 0.35731 0.0
O385 O 0.76834 0.1901 0.33376 0.0
O386 O 0.70947 0.25311 0.34101 0.0
O387 O 0.68193 0.19852 0.33053 0.0
C388 C 0.76062 0.02285 0.3331 0.0
C389 C 0.78419 0.02722 0.31934 0.0
H390 H 0.82842 0.04788 0.29327 0.0
H391 H 0.82894 0.11538 0.28095 0.0
H392 H 0.677 0.08702 0.36869 0.0
H393 H 0.71406 0.02663 0.35978 0.0
H394 H 0.76097 0.99465 0.33945 0.0
H395 H 0.80231 1.00232 0.31531 0.0
Mn396 Mn 0.79746 0.76181 0.84749 0.0
Mn397 Mn 0.83891 0.84246 0.83004 0.0
C398 C 0.80127 0.82222 0.86128 0.0
C399 C 0.74383 0.72166 0.8556 0.0
C400 C 0.88709 0.77117 0.84168 0.0
O401 O 0.79333 0.74763 0.82393 0.0
O402 O 0.8177 0.80516 0.81346 0.0
C403 C 0.77002 0.88156 0.81424 0.0
N404 N 0.80141 0.88328 0.82446 0.0
C405 C 0.79444 0.95468 0.8271 0.0
C406 C 0.76249 0.95374 0.81633 0.0
C407 C 0.74989 0.91692 0.81003 0.0
C408 C 0.81298 0.9184 0.83096 0.0
H409 H 0.76054 0.85344 0.80938 0.0
C410 C 0.80203 0.77017 0.81215 0.0
O411 O 0.77989 0.70762 0.85458 0.0
O412 O 0.73833 0.75807 0.85066 0.0
N413 N 0.85939 0.88047 0.84492 0.0
C414 C 0.88811 0.87546 0.85621 0.0
C415 C 0.90129 0.90871 0.86494 0.0
C416 C 0.88521 0.94679 0.86181 0.0
C417 C 0.85563 0.95113 0.85014 0.0
C418 C 0.84317 0.91678 0.84205 0.0
H419 H 0.90093 0.84634 0.8585 0.0
O420 O 0.80159 0.78794 0.86853 0.0
O421 O 0.80151 0.82021 0.84584 0.0
O422 O 0.85771 0.75164 0.84719 0.0
O423 O 0.88289 0.80485 0.83488 0.0
C424 C 0.83803 0.98817 0.8462 0.0
C425 C 0.80784 0.99002 0.83453 0.0
H426 H 0.74693 0.98097 0.81306 0.0
H427 H 0.72491 0.91584 0.80188 0.0
H428 H 0.92407 0.90508 0.87394 0.0
H429 H 0.89571 0.97244 0.86846 0.0
H430 H 0.84731 0.01535 0.85214 0.0
H431 H 0.79417 0.01858 0.83174 0.0
Mn432 Mn 0.52287 0.52634 0.09004 0.0
Mn433 Mn 0.43055 0.56497 0.08412 0.0
C434 C 0.46925 0.51042 0.1066 0.0
C435 C 0.56864 0.47312 0.08951 0.0
C436 C 0.50098 0.61475 0.09512 0.0
O437 O 0.52403 0.53894 0.06604 0.0
O438 O 0.46051 0.56234 0.06385 0.0
C439 C 0.39386 0.50197 0.06402 0.0
N440 N 0.39354 0.52455 0.07747 0.0
C441 C 0.33215 0.4939 0.08615 0.0
C442 C 0.3314 0.47113 0.07219 0.0
C443 C 0.36253 0.47502 0.06113 0.0
C444 C 0.3638 0.52082 0.08826 0.0
H445 H 0.41823 0.50384 0.05573 0.0
C446 C 0.49426 0.55176 0.05777 0.0
O447 O 0.58045 0.50975 0.09162 0.0
O448 O 0.53128 0.46825 0.08596 0.0
N449 N 0.39993 0.56644 0.10334 0.0
C450 C 0.40769 0.58671 0.11701 0.0
C451 C 0.3813 0.58336 0.12988 0.0
C452 C 0.34733 0.55895 0.12863 0.0
C453 C 0.34029 0.53778 0.11456 0.0
C454 C 0.36753 0.54253 0.10207 0.0
H455 H 0.43413 0.6048 0.11814 0.0
O456 O 0.50534 0.51019 0.11224 0.0
O457 O 0.46609 0.52441 0.09244 0.0
O458 O 0.52677 0.58655 0.09553 0.0
O459 O 0.46464 0.60956 0.09115 0.0
C460 C 0.30792 0.51132 0.1126 0.0
C461 C 0.30372 0.48956 0.09837 0.0
H462 H 0.30767 0.44979 0.07004 0.0
H463 H 0.36263 0.45693 0.05048 0.0
H464 H 0.38728 0.59934 0.14079 0.0
H465 H 0.32719 0.55621 0.13863 0.0
H466 H 0.28651 0.50692 0.12208 0.0
H467 H 0.27915 0.46872 0.09712 0.0
Mn468 Mn 0.03162 0.48791 0.59383 0.0
Mn469 Mn 0.11827 0.45481 0.57777 0.0
C470 C 0.09335 0.50462 0.60489 0.0
C471 C 0.98397 0.53848 0.59807 0.0
C472 C 0.06064 0.40067 0.59539 0.0
O473 O 0.01486 0.47626 0.57083 0.0
O474 O 0.07529 0.45641 0.56155 0.0
C475 C 0.13538 0.52135 0.55549 0.0
N476 N 0.14712 0.49707 0.56761 0.0
C477 C 0.21173 0.52869 0.56869 0.0
C478 C 0.20071 0.55307 0.55587 0.0
C479 C 0.16225 0.54962 0.54934 0.0
C480 C 0.18394 0.50051 0.57413 0.0
H481 H 0.10548 0.51978 0.55079 0.0
C482 C 0.03815 0.46516 0.55954 0.0
O483 O 0.97588 0.50128 0.60117 0.0
O484 O 0.01809 0.54547 0.59138 0.0
N485 N 0.16166 0.45389 0.5926 0.0
C486 C 0.16465 0.43365 0.60657 0.0
C487 C 0.19949 0.43732 0.61575 0.0
C488 C 0.23079 0.46196 0.61052 0.0
C489 C 0.22676 0.48308 0.59623 0.0
C490 C 0.19143 0.47803 0.58753 0.0
H491 H 0.14027 0.41556 0.61083 0.0
O492 O 0.06176 0.50298 0.61379 0.0
O493 O 0.0883 0.49325 0.5904 0.0
O494 O 0.03439 0.4272 0.59869 0.0
O495 O 0.09277 0.4083 0.58789 0.0
C496 C 0.25572 0.51018 0.59064 0.0
C497 C 0.24829 0.53283 0.57683 0.0
H498 H 0.22108 0.57543 0.55129 0.0
H499 H 0.15316 0.56911 0.53974 0.0
H500 H 0.20204 0.42153 0.62691 0.0
H501 H 0.25739 0.46514 0.61774 0.0
H502 H 0.28332 0.51469 0.59712 0.0
H503 H 0.27028 0.55445 0.57291 0.0
Mn504 Mn 0.52988 0.48385 0.91551 0.0
Mn505 Mn 0.43986 0.43986 0.92022 0.0
C506 C 0.47673 0.4981 0.89853 0.0
C507 C 0.57352 0.53839 0.91645 0.0
C508 C 0.51451 0.39406 0.91075 0.0
O509 O 0.52956 0.47084 0.93951 0.0
O510 O 0.46653 0.44575 0.94109 0.0
C511 C 0.39451 0.49985 0.93898 0.0
N512 N 0.39903 0.47795 0.92547 0.0
C513 C 0.33872 0.50592 0.91439 0.0
C514 C 0.33319 0.52822 0.9283 0.0
C515 C 0.36128 0.52524 0.94063 0.0
C516 C 0.37197 0.48042 0.91356 0.0
H517 H 0.4165 0.49865 0.94827 0.0
C518 C 0.49945 0.45764 0.9475 0.0
O519 O 0.58667 0.50211 0.91464 0.0
O520 O 0.5358 0.54229 0.91968 0.0
N521 N 0.41309 0.43548 0.90018 0.0
C522 C 0.42438 0.4144 0.88709 0.0
C523 C 0.4011 0.41659 0.87325 0.0
C524 C 0.36655 0.44052 0.87299 0.0
C525 C 0.35557 0.46204 0.88658 0.0
C526 C 0.37984 0.45854 0.90006 0.0
H527 H 0.45121 0.39639 0.88714 0.0
O528 O 0.5131 0.49978 0.89321 0.0
O529 O 0.47339 0.48293 0.91251 0.0
O530 O 0.5375 0.42437 0.90982 0.0
O531 O 0.47791 0.39692 0.91471 0.0
C532 C 0.32201 0.48752 0.88715 0.0
C533 C 0.31341 0.50922 0.90108 0.0
H534 H 0.308 0.54842 0.9295 0.0
H535 H 0.3576 0.54287 0.9513 0.0
H536 H 0.40992 0.40009 0.86277 0.0
H537 H 0.34888 0.44246 0.86224 0.0
H538 H 0.30288 0.49097 0.87688 0.0
H539 H 0.28778 0.52908 0.90131 0.0
Mn540 Mn 0.03441 0.52172 0.41294 0.0
Mn541 Mn 0.1155 0.56415 0.42988 0.0
C542 C 0.09749 0.51311 0.40173 0.0
C543 C 0.9921 0.46792 0.40719 0.0
C544 C 0.05005 0.61213 0.41369 0.0
O545 O 0.01647 0.52853 0.43614 0.0
O546 O 0.07441 0.55278 0.44629 0.0
C547 C 0.14576 0.49865 0.45043 0.0
N548 N 0.15192 0.52582 0.43864 0.0
C549 C 0.22043 0.50474 0.43575 0.0
C550 C 0.21508 0.4775 0.44821 0.0
C551 C 0.1775 0.47426 0.45551 0.0
C552 C 0.18793 0.52893 0.43143 0.0
H553 H 0.11654 0.49453 0.45549 0.0
C554 C 0.0384 0.53974 0.44784 0.0
O555 O 0.98056 0.50469 0.40529 0.0
O556 O 0.02673 0.46252 0.4138 0.0
N557 N 0.15666 0.57462 0.41468 0.0
C558 C 0.15531 0.59859 0.40162 0.0
C559 C 0.18937 0.60223 0.392 0.0
C560 C 0.22439 0.58116 0.39589 0.0
C561 C 0.22498 0.55648 0.40934 0.0
C562 C 0.19021 0.55425 0.41855 0.0
H563 H 0.12835 0.61458 0.3985 0.0
O564 O 0.06576 0.5129 0.39285 0.0
O565 O 0.09144 0.5227 0.41644 0.0
O566 O 0.02949 0.58227 0.40909 0.0
O567 O 0.08219 0.60824 0.4216 0.0
C568 C 0.25837 0.53322 0.41373 0.0
C569 C 0.25614 0.50747 0.42695 0.0
H570 H 0.23927 0.45808 0.45195 0.0
H571 H 0.17282 0.45251 0.46484 0.0
H572 H 0.18858 0.62111 0.38157 0.0
H573 H 0.25049 0.58377 0.38836 0.0
H574 H 0.28567 0.53435 0.40684 0.0
H575 H 0.28171 0.48906 0.42999 0.0
H576 H 0.96641 0.18418 0.58373 0.0
H577 H 0.07298 0.13637 0.60634 0.0
H578 H 0.09479 0.20511 0.61264 0.0
H579 H 0.01234 0.26722 0.56566 0.0
H580 H 0.97085 0.30087 0.56865 0.0
H581 H 0.96216 0.2479 0.56701 0.0
H582 H 0.92581 0.24851 0.59414 0.0
H583 H 0.93459 0.30154 0.5959 0.0
H584 H 0.95114 0.26806 0.61134 0.0
H585 H 0.10824 0.27875 0.61421 0.0
H586 H 0.11239 0.35192 0.61102 0.0
H587 H 0.99601 0.35306 0.58845 0.0
C588 C 0.9942 0.18802 0.59013 0.0
C589 C 0.01798 0.15458 0.59451 0.0
C590 C 0.05413 0.16126 0.60287 0.0
C591 C 0.06674 0.20027 0.60654 0.0
C592 C 0.04272 0.23243 0.60195 0.0
C593 C 0.00712 0.22675 0.59399 0.0
C594 C 0.98776 0.26655 0.58978 0.0
C595 C 0.98302 0.27088 0.5717 0.0
C596 C 0.94743 0.27144 0.5983 0.0
C597 C 0.01859 0.29557 0.59625 0.0
C598 C 0.04993 0.27515 0.6033 0.0
C599 C 0.08351 0.29506 0.60902 0.0
C600 C 0.08558 0.33672 0.60718 0.0
C601 C 0.05411 0.35831 0.59986 0.0
C602 C 0.01983 0.33747 0.5946 0.0
H603 H 0.95926 0.80984 0.83784 0.0
H604 H 0.90787 0.69399 0.84911 0.0
H605 H 0.97566 0.66523 0.8512 0.0
H606 H 0.03971 0.7741 0.81404 0.0
H607 H 0.07529 0.81044 0.8211 0.0
H608 H 0.02276 0.82231 0.82093 0.0
H609 H 0.02568 0.83859 0.85095 0.0
H610 H 0.07825 0.8267 0.85121 0.0
H611 H 0.04459 0.80155 0.86458 0.0
H612 H 0.0485 0.64794 0.85041 0.0
H613 H 0.12176 0.64363 0.84768 0.0
H614 H 0.12698 0.77118 0.8382 0.0
C615 C 0.96221 0.77842 0.84078 0.0
C616 C 0.92805 0.75417 0.84326 0.0
C617 C 0.93341 0.71326 0.84719 0.0
C618 C 0.97185 0.69662 0.8484 0.0
C619 C 1.00477 0.72131 0.84584 0.0
C620 C 1.00042 0.76139 0.84222 0.0
C621 C 0.04084 0.7812 0.8399 0.0
C622 C 0.04487 0.79799 0.82299 0.0
C623 C 0.04774 0.81395 0.85241 0.0
C624 C 0.06859 0.74582 0.84251 0.0
C625 C 0.04705 0.71157 0.8459 0.0
C626 C 0.0657 0.67464 0.84795 0.0
C627 C 0.10736 0.6725 0.84636 0.0
C628 C 0.1302 0.70712 0.8429 0.0
C629 C 0.11045 0.74436 0.84116 0.0
H630 H 0.55169 0.66311 0.07837 0.0
H631 H 0.47407 0.66077 0.11946 0.0
H632 H 0.48192 0.73373 0.12262 0.0
H633 H 0.61928 0.74491 0.09246 0.0
H634 H 0.62328 0.76634 0.0729 0.0
H635 H 0.61596 0.71322 0.0752 0.0
H636 H 0.55334 0.71732 0.0572 0.0
H637 H 0.5601 0.77047 0.05503 0.0
H638 H 0.51335 0.75114 0.06236 0.0
H639 H 0.49199 0.80777 0.11959 0.0
H640 H 0.50676 0.8772 0.11149 0.0
H641 H 0.57793 0.83227 0.07224 0.0
C642 C 0.5377 0.67786 0.08837 0.0
C643 C 0.51291 0.65624 0.09888 0.0
C644 C 0.49356 0.67668 0.11142 0.0
C645 C 0.49782 0.71817 0.11329 0.0
C646 C 0.52142 0.73895 0.10246 0.0
C647 C 0.54141 0.71949 0.09033 0.0
C648 C 0.56242 0.74933 0.07962 0.0
C649 C 0.60794 0.74308 0.08008 0.0
C650 C 0.54633 0.74691 0.06254 0.0
C651 C 0.55057 0.78848 0.08748 0.0
C652 C 0.52701 0.7818 0.10065 0.0
C653 C 0.51086 0.81335 0.10941 0.0
C654 C 0.51925 0.85276 0.10465 0.0
C655 C 0.54364 0.86046 0.09125 0.0
C656 C 0.55948 0.82763 0.08263 0.0
H657 H 0.60662 0.19252 0.33547 0.0
H658 H 0.65929 0.30643 0.3488 0.0
H659 H 0.59192 0.33445 0.35295 0.0
H660 H 0.52572 0.23144 0.31386 0.0
H661 H 0.48991 0.19461 0.32029 0.0
H662 H 0.54225 0.18214 0.31961 0.0
H663 H 0.5403 0.16185 0.34924 0.0
H664 H 0.48784 0.17412 0.35001 0.0
H665 H 0.52213 0.19708 0.36375 0.0
H666 H 0.51945 0.35252 0.35277 0.0
H667 H 0.44635 0.35833 0.34994 0.0
H668 H 0.43917 0.23217 0.33814 0.0
C669 C 0.60407 0.22319 0.33949 0.0
C670 C 0.63854 0.24721 0.34179 0.0
C671 C 0.63361 0.28726 0.347 0.0
C672 C 0.59537 0.30352 0.34939 0.0
C673 C 0.56216 0.2793 0.34672 0.0
C674 C 0.56605 0.23985 0.34208 0.0
C675 C 0.52532 0.22079 0.33953 0.0
C676 C 0.52053 0.20641 0.3223 0.0
C677 C 0.5185 0.18642 0.35134 0.0
C678 C 0.49797 0.25601 0.34306 0.0
C679 C 0.51997 0.28943 0.34718 0.0
C680 C 0.50187 0.32638 0.34985 0.0
C681 C 0.46027 0.32939 0.34818 0.0
C682 C 0.43693 0.2956 0.34406 0.0
C683 C 0.45611 0.25828 0.34167 0.0
H684 H 0.05683 0.85222 0.41644 0.0
H685 H 0.92914 0.8499 0.4075 0.0
H686 H 0.93202 0.77679 0.40387 0.0
H687 H 0.08532 0.77048 0.3893 0.0
H688 H 0.12202 0.75019 0.40275 0.0
H689 H 0.11107 0.80304 0.40294 0.0
H690 H 0.09485 0.79916 0.43294 0.0
H691 H 0.10578 0.74639 0.43284 0.0
H692 H 0.05793 0.76395 0.43982 0.0
H693 H 0.94787 0.70351 0.40209 0.0
H694 H 0.97459 0.63487 0.40453 0.0
H695 H 0.09134 0.68332 0.4162 0.0
C696 C 0.02968 0.83635 0.41342 0.0
C697 C 0.99283 0.85696 0.41204 0.0
C698 C 0.95775 0.83493 0.40852 0.0
C699 C 0.95909 0.79332 0.40638 0.0
C700 C 0.99568 0.77381 0.40799 0.0
C701 C 0.03033 0.79447 0.41157 0.0
C702 C 0.06504 0.76571 0.41396 0.0
C703 C 0.0978 0.77279 0.40149 0.0
C704 C 0.08187 0.76901 0.4309 0.0
C705 C 0.04435 0.72579 0.41135 0.0
C706 C 1.0045 0.73123 0.40765 0.0
C707 C 0.97909 0.69888 0.40494 0.0
C708 C 0.99459 0.65992 0.4063 0.0
C709 C 0.03507 0.65345 0.41058 0.0
C710 C 0.06025 0.68707 0.41293 0.0
H711 H 0.46239 0.69147 0.66575 0.0
H712 H 0.41073 0.8066 0.65316 0.0
H713 H 0.47837 0.83529 0.65122 0.0
H714 H 0.53952 0.72847 0.69006 0.0
H715 H 0.57653 0.6924 0.68391 0.0
H716 H 0.52427 0.67976 0.68316 0.0
H717 H 0.53088 0.66249 0.65333 0.0
H718 H 0.58325 0.67501 0.65399 0.0
H719 H 0.55084 0.69924 0.63984 0.0
H720 H 0.55012 0.85329 0.65319 0.0
H721 H 0.6223 0.85931 0.65782 0.0
H722 H 0.62964 0.73217 0.66796 0.0
C723 C 0.46524 0.72262 0.6624 0.0
C724 C 0.43099 0.74676 0.65962 0.0
C725 C 0.43628 0.78739 0.6553 0.0
C726 C 0.47465 0.80399 0.65416 0.0
C727 C 0.50758 0.77955 0.6572 0.0
C728 C 0.5034 0.73966 0.66109 0.0
C729 C 0.54385 0.72044 0.6643 0.0
C730 C 0.54616 0.70433 0.68137 0.0
C731 C 0.55272 0.68733 0.65214 0.0
C732 C 0.57134 0.75607 0.66198 0.0
C733 C 0.5496 0.78977 0.65786 0.0
C734 C 0.56755 0.827 0.65614 0.0
C735 C 0.6087 0.83009 0.65882 0.0
C736 C 0.63187 0.79613 0.66303 0.0
C737 C 0.61291 0.75846 0.66441 0.0
H738 H 0.47323 0.32311 0.90789 0.0
H739 H 0.5935 0.37185 0.90804 0.0
H740 H 0.62101 0.30328 0.90671 0.0
H741 H 0.4922 0.24149 0.93262 0.0
H742 H 0.46003 0.20698 0.9223 0.0
H743 H 0.44966 0.25982 0.92165 0.0
H744 H 0.45106 0.25809 0.89095 0.0
H745 H 0.46128 0.20512 0.89149 0.0
H746 H 0.49433 0.23824 0.8809 0.0
H747 H 0.63545 0.22939 0.90862 0.0
H748 H 0.63582 0.15605 0.91207 0.0
H749 H 0.50633 0.15467 0.9095 0.0
C750 C 0.50538 0.31952 0.90738 0.0
C751 C 0.53116 0.35316 0.90807 0.0
C752 C 0.57304 0.34681 0.90743 0.0
C753 C 0.58898 0.30788 0.9067 0.0
C754 C 0.56272 0.27547 0.9064 0.0
C755 C 0.52178 0.2809 0.90652 0.0
C756 C 0.5001 0.24099 0.90679 0.0
C757 C 0.47397 0.23711 0.92173 0.0
C758 C 0.47522 0.23528 0.89163 0.0
C759 C 0.53522 0.21221 0.90726 0.0
C760 C 0.57108 0.23277 0.907 0.0
C761 C 0.60758 0.21299 0.90853 0.0
C762 C 0.60748 0.17127 0.91053 0.0
C763 C 0.57116 0.14948 0.91083 0.0
C764 C 0.53461 0.17033 0.90893 0.0
H765 H 0.12439 0.22636 0.16821 0.0
H766 H 0.12109 0.34712 0.14937 0.0
H767 H 0.0488 0.34148 0.14507 0.0
H768 H 0.0441 0.18412 0.14257 0.0
H769 H 0.02331 0.15443 0.15839 0.0
H770 H 0.07603 0.16553 0.15816 0.0
H771 H 0.07035 0.19569 0.18636 0.0
H772 H 0.01762 0.18499 0.18663 0.0
H773 H 0.0349 0.23535 0.19001 0.0
H774 H 0.97667 0.3256 0.14441 0.0
H775 H 0.90813 0.30022 0.14769 0.0
H776 H 0.95542 0.1904 0.16805 0.0
C777 C 0.10851 0.25106 0.16277 0.0
C778 C 0.12865 0.28695 0.15885 0.0
C779 C 0.10659 0.31919 0.15227 0.0
C780 C 0.06537 0.31631 0.14979 0.0
C781 C 0.04619 0.28108 0.1541 0.0
C782 C 0.06683 0.24894 0.16045 0.0
C783 C 0.03801 0.21589 0.1652 0.0
C784 C 0.04584 0.17773 0.1555 0.0
C785 C 0.04037 0.20751 0.18312 0.0
C786 C 0.99821 0.23489 0.16073 0.0
C787 C 1.00382 0.27231 0.15419 0.0
C788 C 0.97182 0.29619 0.14942 0.0
C789 C 0.93291 0.28149 0.15136 0.0
C790 C 0.9261 0.2433 0.15815 0.0
C791 C 0.95943 0.21974 0.16285 0.0
H792 H 0.99997 0.94099 0.47263 0.0
H793 H 0.08106 0.03075 0.45422 0.0
H794 H 0.09763 0.05129 0.48165 0.0
H795 H 0.959 0.99744 0.5018 0.0
H796 H 0.95464 0.95819 0.51636 0.0
H797 H 0.95474 0.94596 0.49561 0.0
H798 H 0.0147 0.89784 0.49984 0.0
H799 H 0.01447 0.90958 0.52071 0.0
H800 H 0.05951 0.91606 0.50926 0.0
H801 H 0.09483 0.07037 0.51103 0.0
H802 H 0.07661 0.08183 0.53929 0.0
H803 H 1.00186 0.97634 0.53824 0.0
C804 C 0.02227 0.96405 0.47437 0.0
C805 C 0.03939 0.9841 0.46129 0.0
C806 C 0.06803 0.01452 0.46406 0.0
C807 C 0.07747 0.02652 0.47961 0.0
C808 C 0.0587 0.00721 0.49226 0.0
C809 C 0.03236 0.97594 0.48976 0.0
C810 C 0.01372 0.96198 0.50513 0.0
C811 C 0.96783 0.96617 0.50469 0.0
C812 C 0.02637 0.9188 0.50896 0.0
C813 C 0.03223 0.99135 0.51661 0.0
C814 C 0.05827 0.0172 0.50907 0.0
C815 C 0.07537 0.04958 0.51711 0.0
C816 C 0.06499 0.05591 0.53313 0.0
C817 C 0.03797 0.02987 0.54081 0.0
C818 C 0.02248 0.9967 0.53256 0.0
H819 H 0.25791 0.67722 0.78212 0.0
H820 H 0.24787 0.80328 0.79391 0.0
H821 H 0.26229 0.82045 0.76575 0.0
H822 H 0.343 0.68888 0.75824 0.0
H823 H 0.32916 0.64919 0.74486 0.0
H824 H 0.31299 0.6477 0.76519 0.0
H825 H 0.23916 0.64199 0.75611 0.0
H826 H 0.25502 0.64308 0.73572 0.0
H827 H 0.21882 0.67893 0.74275 0.0
H828 H 0.27706 0.82165 0.73506 0.0
H829 H 0.29575 0.80719 0.70706 0.0
H830 H 0.30634 0.6812 0.71885 0.0
C831 C 0.25824 0.70859 0.77893 0.0
C832 C 0.2514 0.73889 0.79027 0.0
C833 C 0.25272 0.77949 0.7854 0.0
C834 C 0.26094 0.78947 0.76945 0.0
C835 C 0.26865 0.7585 0.75871 0.0
C836 C 0.26781 0.71892 0.76345 0.0
C837 C 0.28041 0.69085 0.7504 0.0
C838 C 0.31866 0.66783 0.75495 0.0
C839 C 0.24632 0.66203 0.74599 0.0
C840 C 0.28821 0.72058 0.73737 0.0
C841 C 0.28059 0.75946 0.74208 0.0
C842 C 0.28358 0.7913 0.73138 0.0
C843 C 0.29425 0.78287 0.71553 0.0
C844 C 0.30277 0.74308 0.71072 0.0
C845 C 0.3003 0.71201 0.72199 0.0
H846 H 0.53438 0.04456 0.03762 0.0
H847 H 0.47343 0.93059 0.03683 0.0
H848 H 0.4526 0.94316 0.00897 0.0
H849 H 0.46954 0.10091 0.00832 0.0
H850 H 0.51288 0.12436 0.99968 0.0
H851 H 0.51242 0.11195 0.0205 0.0
H852 H 0.57763 0.07124 0.01689 0.0
H853 H 0.57835 0.08303 0.99615 0.0
H854 H 0.57925 0.03147 0.00245 0.0
H855 H 0.44864 0.96323 0.98003 0.0
H856 H 0.46811 0.98371 0.95293 0.0
H857 H 0.53727 0.08147 0.97243 0.0
C858 C 0.51543 0.02298 0.03171 0.0
C859 C 0.50473 0.98705 0.03931 0.0
C860 C 0.48091 0.95878 0.03123 0.0
C861 C 0.46905 0.96576 0.01544 0.0
C862 C 0.4816 1.00097 0.00797 0.0
C863 C 0.50441 0.02908 0.01591 0.0
C864 C 0.52055 0.06057 0.00472 0.0
C865 C 0.50277 0.1019 0.00853 0.0
C866 C 0.56664 0.06157 0.00507 0.0
C867 C 0.50493 0.04492 0.98907 0.0
C868 C 0.48132 0.01137 0.99119 0.0
C869 C 0.46641 0.9899 0.97828 0.0
C870 C 0.47737 1.00192 0.9629 0.0
C871 C 0.50382 0.03445 0.96061 0.0
C872 C 0.5164 0.05698 0.97385 0.0
H873 H 0.24811 0.32669 0.22223 0.0
H874 H 0.25608 0.201 0.20966 0.0
H875 H 0.27482 0.18507 0.23753 0.0
H876 H 0.33632 0.3262 0.24432 0.0
H877 H 0.31897 0.36314 0.25831 0.0
H878 H 0.29993 0.36313 0.23837 0.0
H879 H 0.22719 0.35801 0.24881 0.0
H880 H 0.24597 0.3591 0.2688 0.0
H881 H 0.21428 0.31857 0.26247 0.0
H882 H 0.29231 0.1851 0.26817 0.0
H883 H 0.31147 0.20159 0.29598 0.0
H884 H 0.30392 0.32796 0.2844 0.0
C885 C 0.25316 0.29558 0.22521 0.0
C886 C 0.25024 0.26508 0.21372 0.0
C887 C 0.25775 0.22491 0.21831 0.0
C888 C 0.26851 0.21564 0.23409 0.0
C889 C 0.27258 0.24701 0.24495 0.0
C890 C 0.26553 0.2862 0.24048 0.0
C891 C 0.27577 0.31541 0.25343 0.0
C892 C 0.30978 0.3436 0.2483 0.0
C893 C 0.23858 0.33914 0.25869 0.0
C894 C 0.28937 0.28674 0.2661 0.0
C895 C 0.28659 0.24729 0.26134 0.0
C896 C 0.2951 0.21599 0.27186 0.0
C897 C 0.30609 0.22557 0.2876 0.0
C898 C 0.30956 0.26607 0.29243 0.0
C899 C 0.30192 0.29662 0.28127 0.0
H900 H 0.74696 0.20581 0.21076 0.0
H901 H 0.8311 0.30283 0.20485 0.0
H902 H 0.82048 0.32249 0.23302 0.0
H903 H 0.67856 0.25649 0.23858 0.0
H904 H 0.67008 0.21098 0.24955 0.0
H905 H 0.68068 0.20881 0.22861 0.0
H906 H 0.74014 0.16074 0.23405 0.0
H907 H 0.72965 0.16268 0.25494 0.0
H908 H 0.77867 0.17572 0.24777 0.0
H909 H 0.80659 0.32467 0.2632 0.0
H910 H 0.79105 0.30975 0.29132 0.0
H911 H 0.7149 0.21188 0.27618 0.0
C912 C 0.76287 0.23141 0.21529 0.0
C913 C 0.79001 0.25265 0.20571 0.0
C914 C 0.80989 0.28641 0.21203 0.0
C915 C 0.80405 0.29767 0.228 0.0
C916 C 0.77775 0.27516 0.2373 0.0
C917 C 0.75717 0.24299 0.23102 0.0
C918 C 0.7328 0.2216 0.24348 0.0
C919 C 0.68787 0.22468 0.23983 0.0
C920 C 0.74613 0.17762 0.24515 0.0
C921 C 0.74372 0.24582 0.25796 0.0
C922 C 0.76938 0.27685 0.25427 0.0
C923 C 0.78592 0.30091 0.26613 0.0
C924 C 0.77681 0.2923 0.2821 0.0
C925 C 0.75156 0.25973 0.28606 0.0
C926 C 0.73401 0.23725 0.27369 0.0
H927 H 0.71965 0.8098 0.72618 0.0
H928 H 0.79062 0.70958 0.70937 0.0
H929 H 0.80565 0.691 0.73721 0.0
H930 H 0.78428 0.83952 0.75519 0.0
H931 H 0.74643 0.85464 0.76919 0.0
H932 H 0.73579 0.85551 0.7483 0.0
H933 H 0.67452 0.80936 0.75266 0.0
H934 H 0.6847 0.80867 0.77365 0.0
H935 H 0.6809 0.76231 0.76283 0.0
H936 H 0.81947 0.68902 0.76738 0.0
H937 H 0.83047 0.70463 0.79593 0.0
H938 H 0.75083 0.80624 0.79175 0.0
C939 C 0.73755 0.78328 0.72825 0.0
C940 C 0.7538 0.7611 0.71551 0.0
C941 C 0.77743 0.72686 0.7189 0.0
C942 C 0.7862 0.71613 0.7347 0.0
C943 C 0.77081 0.7397 0.74696 0.0
C944 C 0.74664 0.77237 0.74382 0.0
C945 C 0.73662 0.79529 0.75875 0.0
C946 C 0.7517 0.83878 0.75779 0.0
C947 C 0.69151 0.79379 0.76217 0.0
C948 C 0.75994 0.7713 0.77079 0.0
C949 C 0.77908 0.73894 0.76394 0.0
C950 C 0.80412 0.71399 0.77285 0.0
C951 C 0.81015 0.72294 0.78903 0.0
C952 C 0.79166 0.75679 0.79597 0.0
C953 C 0.76571 0.78051 0.78676 0.0
H954 H 0.56039 0.47832 0.96952 0.0
H955 H 0.43395 0.4482 0.96611 0.0
H956 H 0.42198 0.47853 0.99176 0.0
H957 H 0.55897 0.44624 0.01312 0.0
H958 H 0.5969 0.48176 0.01875 0.0
H959 H 0.59717 0.46038 0.99912 0.0
H960 H 0.59658 0.53176 0.98722 0.0
H961 H 0.59512 0.55334 0.00681 0.0
H962 H 0.55699 0.56591 0.99254 0.0
H963 H 0.42036 0.52853 0.01279 0.0
H964 H 0.42957 0.55908 0.03856 0.0
H965 H 0.55736 0.53388 0.03629 0.0
C966 C 0.5304 0.47738 0.97433 0.0
C967 C 0.49765 0.46352 0.96503 0.0
C968 C 0.45934 0.46095 0.97224 0.0
C969 C 0.45194 0.47818 0.98692 0.0
C970 C 0.48376 0.4948 0.99504 0.0
C971 C 0.52269 0.49141 0.98988 0.0
C972 C 0.55112 0.50602 0.00286 0.0
C973 C 0.57761 0.47154 0.00882 0.0
C974 C 0.57646 0.54136 0.997 0.0
C975 C 0.52138 0.51943 0.01559 0.0
C976 C 0.48293 0.5146 0.01007 0.0
C977 C 0.45001 0.53004 0.01789 0.0
C978 C 0.45587 0.54754 0.03263 0.0
C979 C 0.49384 0.54634 0.04019 0.0
C980 C 0.52765 0.53375 0.0312 0.0
H981 H 0.08623 0.46824 0.53385 0.0
H982 H 0.96092 0.47369 0.547 0.0
H983 H 0.94396 0.49134 0.51904 0.0
H984 H 0.0819 0.55809 0.51367 0.0
H985 H 0.11954 0.54443 0.49934 0.0
H986 H 0.12061 0.52278 0.51882 0.0
H987 H 0.11883 0.45122 0.50728 0.0
H988 H 0.11935 0.47211 0.48762 0.0
H989 H 0.08031 0.43788 0.4933 0.0
H990 H 0.94401 0.50707 0.48756 0.0
H991 H 0.9612 0.52786 0.45993 0.0
H992 H 0.08623 0.53197 0.47344 0.0
C993 C 0.05495 0.47256 0.53108 0.0
C994 C 0.02494 0.46924 0.54275 0.0
C995 C 0.98453 0.47557 0.53825 0.0
C996 C 0.97469 0.48575 0.5224 0.0
C997 C 0.00576 0.49086 0.51145 0.0
C998 C 0.04512 0.48523 0.51593 0.0
C999 C 0.07409 0.49825 0.50333 0.0
C1000 C 0.10053 0.53297 0.50914 0.0
C1001 C 0.09962 0.46274 0.49754 0.0
C1002 C 0.04518 0.51181 0.4908 0.0
C1003 C 0.00583 0.50601 0.49516 0.0
C1004 C 0.97481 0.51251 0.48428 0.0
C1005 C 0.98476 0.52449 0.46864 0.0
C1006 C 0.02518 0.53155 0.46437 0.0
C1007 C 0.05508 0.52651 0.47597 0.0
H1008 H 0.24341 0.86303 0.64418 0.0
H1009 H 0.16985 0.75624 0.64612 0.0
H1010 H 0.11659 0.79141 0.63139 0.0
H1011 H 0.16098 0.93428 0.64928 0.0
H1012 H 0.18272 0.97057 0.63604 0.0
H1013 H 0.21452 0.9372 0.64713 0.0
H1014 H 0.24746 0.91363 0.62093 0.0
H1015 H 0.21532 0.94645 0.60974 0.0
H1016 H 0.21654 0.89368 0.60531 0.0
H1017 H 0.07309 0.83658 0.61488 0.0
H1018 H 0.03863 0.89142 0.60076 0.0
H1019 H 0.13893 0.97006 0.61036 0.0
C1020 C 0.21587 0.84724 0.64171 0.0
C1021 C 0.21084 0.80683 0.64634 0.0
C1022 C 0.17437 0.78723 0.64281 0.0
C1023 C 0.144 0.80688 0.63434 0.0
C1024 C 0.1503 0.84633 0.62961 0.0
C1025 C 0.185 0.86658 0.63341 0.0
C1026 C 0.18394 0.90907 0.62705 0.0
C1027 C 0.18563 0.93958 0.64069 0.0
C1028 C 0.21783 0.9161 0.61505 0.0
C1029 C 0.14341 0.90941 0.61896 0.0
C1030 C 0.12469 0.87277 0.62045 0.0
C1031 C 0.08733 0.8655 0.61374 0.0
C1032 C 0.0681 0.89679 0.60564 0.0
C1033 C 0.08603 0.93507 0.60443 0.0
C1034 C 0.12443 0.94116 0.61105 0.0
H1035 H 0.37481 0.79378 0.86 0.0
H1036 H 0.27579 0.87308 0.84889 0.0
H1037 H 0.31153 0.9292 0.86145 0.0
H1038 H 0.39476 0.83435 0.89821 0.0
H1039 H 0.44836 0.8297 0.89694 0.0
H1040 H 0.4168 0.79587 0.88602 0.0
H1041 H 0.4522 0.81557 0.85985 0.0
H1042 H 0.48423 0.84908 0.87073 0.0
H1043 H 0.45508 0.86759 0.8543 0.0
H1044 H 0.35604 0.97611 0.87588 0.0
H1045 H 0.4082 0.01224 0.89067 0.0
H1046 H 0.47867 0.90324 0.89358 0.0
C1047 C 0.36111 0.82317 0.85993 0.0
C1048 C 0.32261 0.82916 0.85332 0.0
C1049 C 0.30527 0.86783 0.8538 0.0
C1050 C 0.32531 0.8999 0.86094 0.0
C1051 C 0.36268 0.89288 0.86768 0.0
C1052 C 0.38062 0.85561 0.86721 0.0
C1053 C 0.42046 0.85619 0.87591 0.0
C1054 C 0.42005 0.82731 0.89011 0.0
C1055 C 0.45504 0.84654 0.86451 0.0
C1056 C 0.42192 0.89953 0.88137 0.0
C1057 C 0.38824 0.92004 0.87641 0.0
C1058 C 0.38258 0.96042 0.87981 0.0
C1059 C 0.41239 0.98067 0.88826 0.0
C1060 C 0.44747 0.96061 0.89336 0.0
C1061 C 0.45201 0.9193 0.89 0.0
H1062 H 0.41457 0.04049 0.10926 0.0
H1063 H 0.5163 0.1194 0.10295 0.0
H1064 H 0.48199 0.17158 0.11853 0.0
H1065 H 0.33893 0.11956 0.10561 0.0
H1066 H 0.30614 0.09736 0.1201 0.0
H1067 H 0.33866 0.06607 0.1084 0.0
H1068 H 0.36832 0.03603 0.13417 0.0
H1069 H 0.33633 0.06768 0.14595 0.0
H1070 H 0.38971 0.06889 0.14884 0.0
H1071 H 0.43953 0.21315 0.13626 0.0
H1072 H 0.38674 0.24687 0.15148 0.0
H1073 H 0.3091 0.14404 0.14506 0.0
C1074 C 0.42937 0.06893 0.11102 0.0
C1075 C 0.46819 0.07586 0.1049 0.0
C1076 C 0.48653 0.11348 0.10742 0.0
C1077 C 0.4674 0.14322 0.11637 0.0
C1078 C 0.42961 0.13518 0.12253 0.0
C1079 C 0.4103 0.09939 0.11969 0.0
C1080 C 0.36904 0.09926 0.12728 0.0
C1081 C 0.33625 0.09534 0.11459 0.0
C1082 C 0.36567 0.06598 0.1398 0.0
C1083 C 0.36844 0.14042 0.13494 0.0
C1084 C 0.40403 0.16022 0.13221 0.0
C1085 C 0.41137 0.19814 0.13834 0.0
C1086 C 0.38116 0.21694 0.14709 0.0
C1087 C 0.34361 0.19821 0.14949 0.0
C1088 C 0.33744 0.15913 0.14347 0.0
H1089 H 0.07855 0.10554 0.3924 0.0
H1090 H 0.15221 0.99839 0.39357 0.0
H1091 H 0.20621 0.03448 0.37995 0.0
H1092 H 0.10959 0.13889 0.35365 0.0
H1093 H 0.11014 0.19133 0.35866 0.0
H1094 H 0.07678 0.15779 0.36888 0.0
H1095 H 0.10649 0.17971 0.39587 0.0
H1096 H 0.13963 0.21361 0.38574 0.0
H1097 H 0.1597 0.17637 0.39903 0.0
H1098 H 0.25205 0.08065 0.36608 0.0
H1099 H 0.28913 0.13606 0.35378 0.0
H1100 H 0.1873 0.21481 0.3609 0.0
C1101 C 0.1062 0.08986 0.38992 0.0
C1102 C 0.11106 0.04902 0.3941 0.0
C1103 C 0.14763 0.02955 0.39051 0.0
C1104 C 0.17855 0.04979 0.38273 0.0
C1105 C 0.17265 0.08964 0.37853 0.0
C1106 C 0.1376 0.10971 0.38205 0.0
C1107 C 0.13949 0.15272 0.37613 0.0
C1108 C 0.10707 0.16063 0.36358 0.0
C1109 C 0.13614 0.18235 0.39002 0.0
C1110 C 0.18106 0.15351 0.3688 0.0
C1111 C 0.19942 0.11664 0.37033 0.0
C1112 C 0.23801 0.10968 0.3648 0.0
C1113 C 0.25883 0.14141 0.3578 0.0
C1114 C 0.24117 0.17979 0.35629 0.0
C1115 C 0.20145 0.18571 0.36169 0.0
H1116 H 0.9122 0.0555 0.40799 0.0
H1117 H 0.93841 0.97769 0.36815 0.0
H1118 H 0.89078 0.01568 0.35162 0.0
H1119 H 0.80431 0.0689 0.39985 0.0
H1120 H 0.80328 0.12142 0.40474 0.0
H1121 H 0.8384 0.08915 0.41451 0.0
H1122 H 0.89796 0.13089 0.40633 0.0
H1123 H 0.86434 0.16577 0.39695 0.0
H1124 H 0.90462 0.14374 0.38574 0.0
H1125 H 0.85657 0.07293 0.33816 0.0
H1126 H 0.81993 0.1334 0.33023 0.0
H1127 H 0.79834 0.16338 0.37916 0.0
C1128 C 0.90633 0.04518 0.39605 0.0
C1129 C 0.92839 0.01298 0.38945 0.0
C1130 C 0.92155 1.00191 0.37348 0.0
C1131 C 0.89467 0.02339 0.36399 0.0
C1132 C 0.8743 0.05558 0.37069 0.0
C1133 C 0.87873 0.06582 0.38646 0.0
C1134 C 0.85439 0.10314 0.3903 0.0
C1135 C 0.82311 0.09502 0.40311 0.0
C1136 C 0.88197 0.13793 0.39511 0.0
C1137 C 0.83477 0.11124 0.37443 0.0
C1138 C 0.84836 0.08459 0.36313 0.0
C1139 C 0.84237 0.0915 0.34705 0.0
C1140 C 0.82013 0.12516 0.34257 0.0
C1141 C 0.80051 0.1493 0.35394 0.0
C1142 C 0.80935 0.14303 0.37017 0.0
H1143 H 0.63459 0.01024 0.12636 0.0
H1144 H 0.64531 0.0475 0.07766 0.0
H1145 H 0.70877 0.08135 0.08358 0.0
H1146 H 0.65533 0.111 0.13731 0.0
H1147 H 0.67665 0.09801 0.15626 0.0
H1148 H 0.63975 0.06602 0.14736 0.0
H1149 H 0.68917 1.00385 0.14765 0.0
H1150 H 0.72048 0.03709 0.15859 0.0
H1151 H 0.73994 0.01206 0.14121 0.0
H1152 H 0.77043 0.11213 0.09505 0.0
H1153 H 0.81044 0.15885 0.11113 0.0
H1154 H 0.7472 0.12027 0.15328 0.0
C1155 C 0.65144 0.02398 0.11685 0.0
C1156 C 0.6385 0.02083 0.10095 0.0
C1157 C 0.65829 0.04379 0.08927 0.0
C1158 C 0.69381 0.06419 0.0927 0.0
C1159 C 0.70724 0.06465 0.10832 0.0
C1160 C 0.68511 0.04746 0.12033 0.0
C1161 C 0.69913 0.06203 0.1364 0.0
C1162 C 0.66573 0.08567 0.14482 0.0
C1163 C 0.71319 0.02661 0.14652 0.0
C1164 C 0.73354 0.08922 0.13158 0.0
C1165 C 0.73842 0.08899 0.1153 0.0
C1166 C 0.76693 0.11269 0.10781 0.0
C1167 C 0.78965 0.13903 0.11706 0.0
C1168 C 0.78288 0.14258 0.13357 0.0
C1169 C 0.75493 0.1167 0.14093 0.0
H1170 H 0.75659 0.88612 0.84964 0.0
H1171 H 0.80154 0.83318 0.89309 0.0
H1172 H 0.75395 0.874 0.90841 0.0
H1173 H 0.74669 0.98994 0.86832 0.0
H1174 H 0.70136 1.00328 0.85795 0.0
H1175 H 0.73799 0.97285 0.84834 0.0
H1176 H 0.69122 0.91563 0.8425 0.0
H1177 H 0.65097 0.94519 0.85048 0.0
H1178 H 0.66036 0.89567 0.85814 0.0
H1179 H 0.68755 0.90214 0.91693 0.0
H1180 H 0.62657 0.94216 0.92133 0.0
H1181 H 0.63805 0.9944 0.87469 0.0
C1182 C 0.75912 0.88541 0.86236 0.0
C1183 C 0.78366 0.85668 0.87006 0.0
C1184 C 0.78325 0.85488 0.88686 0.0
C1185 C 0.75614 0.87779 0.89569 0.0
C1186 C 0.73103 0.90409 0.88764 0.0
C1187 C 0.73405 0.91019 0.87149 0.0
C1188 C 0.70337 0.94102 0.86601 0.0
C1189 C 0.72367 0.97906 0.85984 0.0
C1190 C 0.67479 0.92329 0.85355 0.0
C1191 C 0.6818 0.94964 0.88141 0.0
C1192 C 0.69734 0.92677 0.89358 0.0
C1193 C 0.67752 0.92312 0.90799 0.0
C1194 C 0.64327 0.94641 0.91049 0.0
C1195 C 0.63083 0.97512 0.89918 0.0
C1196 C 0.6491 0.97525 0.88409 0.0
H1197 H 0.82286 0.89097 0.66193 0.0
H1198 H 0.74994 0.85759 0.62155 0.0
H1199 H 0.78707 0.90521 0.60479 0.0
H1200 H 0.83243 0.99933 0.65171 0.0
H1201 H 0.88436 1.003 0.65727 0.0
H1202 H 0.85244 0.96857 0.66754 0.0
H1203 H 0.89613 0.90865 0.66168 0.0
H1204 H 0.93125 0.94145 0.6521 0.0
H1205 H 0.91161 0.89887 0.64157 0.0
H1206 H 0.84512 0.93754 0.5916 0.0
H1207 H 0.9068 0.97197 0.5838 0.0
H1208 H 0.93089 1.00246 0.6325 0.0
C1209 C 0.81315 0.89547 0.64982 0.0
C1210 C 0.78287 0.87122 0.64311 0.0
C1211 C 0.77268 0.8762 0.62694 0.0
C1212 C 0.79366 0.90307 0.61733 0.0
C1213 C 0.82428 0.92542 0.62413 0.0
C1214 C 0.83318 0.92314 0.64011 0.0
C1215 C 0.86936 0.94885 0.64402 0.0
C1216 C 0.85888 0.98202 0.65583 0.0
C1217 C 0.90413 0.9229 0.6502 0.0
C1218 C 0.87891 0.96604 0.62784 0.0
C1219 C 0.85358 0.9506 0.61645 0.0
C1220 C 0.86257 0.95338 0.6004 0.0
C1221 C 0.89699 0.97426 0.59594 0.0
C1222 C 0.91992 0.99562 0.60718 0.0
C1223 C 0.91145 0.99016 0.62347 0.0
H1224 H 0.74391 0.36285 0.1374 0.0
H1225 H 0.67065 0.25586 0.13551 0.0
H1226 H 0.62144 0.29162 0.1189 0.0
H1227 H 0.66061 0.4326 0.1403 0.0
H1228 H 0.68477 0.47042 0.12847 0.0
H1229 H 0.71438 0.43608 0.14003 0.0
H1230 H 0.75299 0.41564 0.11465 0.0
H1231 H 0.72293 0.44938 0.10296 0.0
H1232 H 0.72572 0.39714 0.09773 0.0
H1233 H 0.5815 0.33783 0.10162 0.0
H1234 H 0.54772 0.39432 0.08846 0.0
H1235 H 0.64476 0.47301 0.10238 0.0
C1236 C 0.71733 0.34707 0.1336 0.0
C1237 C 0.71118 0.30647 0.13776 0.0
C1238 C 0.67595 0.28697 0.13258 0.0
C1239 C 0.64797 0.30694 0.12301 0.0
C1240 C 0.65535 0.34661 0.11882 0.0
C1241 C 0.68872 0.36678 0.1242 0.0
C1242 C 0.68848 0.40994 0.11853 0.0
C1243 C 0.68696 0.43897 0.13268 0.0
C1244 C 0.72469 0.41851 0.10783 0.0
C1245 C 0.64978 0.41085 0.10911 0.0
C1246 C 0.63155 0.37377 0.10924 0.0
C1247 C 0.59542 0.36704 0.10149 0.0
C1248 C 0.57658 0.39937 0.09393 0.0
C1249 C 0.59353 0.43823 0.0943 0.0
C1250 C 0.63118 0.44367 0.10169 0.0
H1251 H 0.82068 0.36738 0.35447 0.0
H1252 H 0.89881 0.26434 0.34941 0.0
H1253 H 0.94922 0.29745 0.36631 0.0
H1254 H 0.90064 0.44271 0.35374 0.0
H1255 H 0.87566 0.47435 0.36796 0.0
H1256 H 0.84682 0.44299 0.35489 0.0
H1257 H 0.81195 0.41141 0.3793 0.0
H1258 H 0.84132 0.44201 0.39245 0.0
H1259 H 0.84186 0.38834 0.39458 0.0
H1260 H 0.9887 0.33946 0.38561 0.0
H1261 H 0.01929 0.39174 0.40233 0.0
H1262 H 0.91675 0.46875 0.39402 0.0
C1263 C 0.84872 0.35209 0.35666 0.0
C1264 C 0.85583 0.31326 0.35056 0.0
C1265 C 0.89282 0.29422 0.35379 0.0
C1266 C 0.92151 0.31265 0.36351 0.0
C1267 C 0.91297 0.35034 0.36977 0.0
C1268 C 0.87788 0.37026 0.36618 0.0
C1269 C 0.87625 0.41076 0.3743 0.0
C1270 C 0.87477 0.44471 0.36199 0.0
C1271 C 0.84073 0.41325 0.38584 0.0
C1272 C 0.91573 0.41035 0.38314 0.0
C1273 C 0.93622 0.37501 0.38052 0.0
C1274 C 0.97306 0.36738 0.38764 0.0
C1275 C 0.99003 0.39716 0.39725 0.0
C1276 C 0.97043 0.43436 0.39954 0.0
C1277 C 0.93244 0.44061 0.39257 0.0
H1278 H 0.90972 0.53607 0.61297 0.0
H1279 H 1.00311 0.61736 0.59745 0.0
H1280 H 0.96931 0.67291 0.611 0.0
H1281 H 0.82725 0.60986 0.60846 0.0
H1282 H 0.80069 0.59169 0.6256 0.0
H1283 H 0.8313 0.55799 0.61413 0.0
H1284 H 0.87051 0.53904 0.63953 0.0
H1285 H 0.84048 0.57315 0.65103 0.0
H1286 H 0.89416 0.57786 0.65103 0.0
H1287 H 0.93064 0.71803 0.62837 0.0
H1288 H 0.8821 0.75406 0.64495 0.0
H1289 H 0.80906 0.64699 0.64799 0.0
C1290 C 0.92257 0.56572 0.61218 0.0
C1291 C 0.95923 0.57218 0.60413 0.0
C1292 C 0.97511 0.61146 0.60345 0.0
C1293 C 0.95623 0.64331 0.61121 0.0
C1294 C 0.92098 0.63578 0.61942 0.0
C1295 C 0.90359 0.59832 0.61966 0.0
C1296 C 0.86506 0.59908 0.62928 0.0
C1297 C 0.82893 0.58907 0.61874 0.0
C1298 C 0.86774 0.57058 0.64356 0.0
C1299 C 0.86413 0.6426 0.6346 0.0
C1300 C 0.8971 0.66287 0.6289 0.0
C1301 C 0.90436 0.7027 0.63272 0.0
C1302 C 0.87669 0.72282 0.64228 0.0
C1303 C 0.84167 0.70346 0.64778 0.0
C1304 C 0.83545 0.66264 0.64393 0.0
H1305 H 0.74546 0.6435 0.86591 0.0
H1306 H 0.67116 0.75012 0.86541 0.0
H1307 H 0.62249 0.71655 0.88295 0.0
H1308 H 0.66345 0.57239 0.86518 0.0
H1309 H 0.68872 0.53715 0.87791 0.0
H1310 H 0.71729 0.56986 0.86531 0.0
H1311 H 0.75612 0.59527 0.88992 0.0
H1312 H 0.727 0.56326 0.90264 0.0
H1313 H 0.72891 0.61634 0.90639 0.0
H1314 H 0.58289 0.6721 0.9013 0.0
H1315 H 0.55035 0.61693 0.91582 0.0
H1316 H 0.64964 0.53859 0.90402 0.0
C1317 C 0.71873 0.65964 0.86934 0.0
C1318 C 0.71214 0.69949 0.86425 0.0
C1319 C 0.67678 0.71953 0.86904 0.0
C1320 C 0.64911 0.70082 0.87913 0.0
C1321 C 0.65704 0.66194 0.88427 0.0
C1322 C 0.69061 0.6413 0.87931 0.0
C1323 C 0.69141 0.5993 0.88615 0.0
C1324 C 0.69012 0.56782 0.87285 0.0
C1325 C 0.72804 0.59321 0.89692 0.0
C1326 C 0.653 0.59949 0.89572 0.0
C1327 C 0.63391 0.6361 0.89464 0.0
C1328 C 0.59757 0.6433 0.90222 0.0
C1329 C 0.57945 0.6118 0.91056 0.0
C1330 C 0.59745 0.57338 0.91117 0.0
C1331 C 0.63529 0.56766 0.90399 0.0
H1332 H 0.45315 0.52386 0.86845 0.0
H1333 H 0.43891 0.54804 0.91859 0.0
H1334 H 0.38255 0.59298 0.91297 0.0
H1335 H 0.43173 0.63421 0.85985 0.0
H1336 H 0.4108 0.62278 0.84069 0.0
H1337 H 0.45022 0.59199 0.84872 0.0
H1338 H 0.40569 0.52773 0.84639 0.0
H1339 H 0.37014 0.56018 0.83719 0.0
H1340 H 0.3554 0.52983 0.85406 0.0
H1341 H 0.32059 0.62453 0.90248 0.0
H1342 H 0.27154 0.66419 0.88724 0.0
H1343 H 0.33271 0.63233 0.84363 0.0
C1344 C 0.43791 0.53855 0.87817 0.0
C1345 C 0.44754 0.5294 0.89404 0.0
C1346 C 0.42937 0.55173 0.90641 0.0
C1347 C 0.39766 0.57775 0.90336 0.0
C1348 C 0.38594 0.58303 0.88774 0.0
C1349 C 0.4072 0.56654 0.8753 0.0
C1350 C 0.3916 0.58231 0.85965 0.0
C1351 C 0.42296 0.60943 0.85176 0.0
C1352 C 0.37983 0.54781 0.8487 0.0
C1353 C 0.35557 0.60652 0.86522 0.0
C1354 C 0.35313 0.60634 0.88155 0.0
C1355 C 0.32251 0.62579 0.88968 0.0
C1356 C 0.2946 0.6479 0.88092 0.0
C1357 C 0.29765 0.65074 0.86423 0.0
C1358 C 0.32843 0.6294 0.85628 0.0
H1359 H 0.13076 0.51675 0.63391 0.0
H1360 H 0.1265 0.5594 0.58552 0.0
H1361 H 0.18738 0.59906 0.58989 0.0
H1362 H 0.15537 0.61802 0.64761 0.0
H1363 H 0.18382 0.60025 0.66435 0.0
H1364 H 0.14317 0.57074 0.65671 0.0
H1365 H 0.19125 0.50862 0.65149 0.0
H1366 H 0.22696 0.53913 0.66147 0.0
H1367 H 0.23886 0.51856 0.64223 0.0
H1368 H 0.25266 0.62738 0.59849 0.0
H1369 H 0.30079 0.66887 0.61327 0.0
H1370 H 0.25306 0.62299 0.65749 0.0
C1371 C 0.14328 0.53388 0.62421 0.0
C1372 C 0.12684 0.53157 0.60884 0.0
C1373 C 0.14138 0.55744 0.59688 0.0
C1374 C 0.1757 0.58037 0.59928 0.0
C1375 C 0.19379 0.57898 0.61408 0.0
C1376 C 0.17654 0.55883 0.62663 0.0
C1377 C 0.19724 0.56939 0.64203 0.0
C1378 C 0.16817 0.59089 0.65334 0.0
C1379 C 0.21476 0.53164 0.6497 0.0
C1380 C 0.22971 0.59754 0.63603 0.0
C1381 C 0.22785 0.60123 0.61975 0.0
C1382 C 0.25421 0.62534 0.61129 0.0
C1383 C 0.28163 0.64857 0.61978 0.0
C1384 C 0.28153 0.64866 0.63657 0.0
C1385 C 0.25573 0.62206 0.64475 0.0
H1386 H 0.12421 0.49155 0.3718 0.0
H1387 H 0.14109 0.46595 0.42138 0.0
H1388 H 0.20171 0.42737 0.41555 0.0
H1389 H 0.14373 0.38366 0.36525 0.0
H1390 H 0.16123 0.39133 0.34527 0.0
H1391 H 0.12452 0.42472 0.35364 0.0
H1392 H 0.17028 0.48671 0.34845 0.0
H1393 H 0.20319 0.45191 0.33901 0.0
H1394 H 0.22179 0.48424 0.35466 0.0
H1395 H 0.26195 0.39369 0.40422 0.0
H1396 H 0.30471 0.34791 0.38866 0.0
H1397 H 0.23804 0.37826 0.34619 0.0
C1398 C 0.14174 0.47908 0.38141 0.0
C1399 C 0.13215 0.48755 0.39737 0.0
C1400 C 0.15228 0.46601 0.40942 0.0
C1401 C 0.18596 0.4427 0.40611 0.0
C1402 C 0.19677 0.43759 0.39037 0.0
C1403 C 0.17349 0.4526 0.37821 0.0
C1404 C 0.18541 0.4339 0.36256 0.0
C1405 C 0.15172 0.4068 0.35632 0.0
C1406 C 0.19599 0.46624 0.35046 0.0
C1407 C 0.22158 0.40922 0.36762 0.0
C1408 C 0.22743 0.41199 0.38379 0.0
C1409 C 0.25771 0.391 0.39154 0.0
C1410 C 0.28194 0.36524 0.38261 0.0
C1411 C 0.27554 0.36032 0.36615 0.0
C1412 C 0.24505 0.38287 0.35857 0.0
H1413 H 0.44184 0.48983 0.13685 0.0
H1414 H 0.43535 0.45672 0.08723 0.0
H1415 H 0.37841 0.41274 0.09272 0.0
H1416 H 0.42065 0.38209 0.14806 0.0
H1417 H 0.39622 0.39623 0.16627 0.0
H1418 H 0.436 0.42669 0.15844 0.0
H1419 H 0.3889 0.49047 0.15739 0.0
H1420 H 0.35408 0.45823 0.1671 0.0
H1421 H 0.3395 0.48412 0.14916 0.0
H1422 H 0.31495 0.38381 0.10237 0.0
H1423 H 0.26579 0.34391 0.11729 0.0
H1424 H 0.32105 0.38139 0.16143 0.0
C1425 C 0.42818 0.47335 0.12722 0.0
C1426 C 0.44031 0.47945 0.11139 0.0
C1427 C 0.42411 0.45503 0.09925 0.0
C1428 C 0.39195 0.42972 0.10223 0.0
C1429 C 0.37766 0.42754 0.11762 0.0
C1430 C 0.39692 0.44612 0.1301 0.0
C1431 C 0.37915 0.4327 0.14574 0.0
C1432 C 0.40983 0.40795 0.15518 0.0
C1433 C 0.36441 0.46864 0.15537 0.0
C1434 C 0.34476 0.40666 0.13993 0.0
C1435 C 0.34435 0.40493 0.12359 0.0
C1436 C 0.31535 0.38393 0.11521 0.0
C1437 C 0.28733 0.36174 0.12377 0.0
C1438 C 0.28907 0.35998 0.14052 0.0
C1439 C 0.31776 0.38341 0.14871 0.0
loop_
_geom_bond_atom_site_label_1
_geom_bond_atom_site_label_2
_geom_bond_distance
_geom_bond_site_symmetry_2
_ccdc_geom_bond_type
Mn0 O5 2.095 . S
Mn0 O15 2.162 . S
Mn0 O16 2.297 1_545 S
Mn0 O24 2.385 1_455 S
Mn0 O25 2.209 1_455 S
Mn0 O26 2.094 . S
Mn1 O6 2.121 . S
Mn1 N8 2.257 . S
Mn1 N17 2.282 . S
Mn1 O25 2.215 . S
Mn1 O27 2.117 . S
C2 O24 1.234 . S
C2 O25 1.283 . S
C3 O15 1.281 1_565 S
C3 O16 1.236 . S
C4 O26 1.241 1_655 S
C4 O27 1.263 . S
O5 Mn0 2.095 . S
O5 C14 1.250 . S
O6 Mn1 2.121 . S
O6 C14 1.258 1_655 S
C7 N8 1.326 1_565 S
C7 C11 1.460 . S
C7 H13 0.929 . S
N8 Mn1 2.257 . S
N8 C7 1.326 1_545 S
N8 C12 1.362 . S
C9 C10 1.258 . S
C9 C12 1.431 1_565 S
C9 C29 1.448 1_565 S
C10 C9 1.258 . S
C10 C11 1.477 . S
C10 H30 0.931 . S
C11 C7 1.460 . S
C11 C10 1.477 . S
C11 H31 0.930 . S
C12 N8 1.362 . S
C12 C9 1.431 1_545 S
C12 C22 1.476 . S
H13 C7 0.929 . S
C14 O5 1.250 . S
C14 O6 1.258 1_455 S
O15 Mn0 2.162 . S
O15 C3 1.281 1_545 S
O16 Mn0 2.297 1_565 S
O16 C3 1.236 . S
N17 Mn1 2.282 . S
N17 C18 1.328 . S
N17 C22 1.318 . S
C18 N17 1.328 . S
C18 C19 1.457 . S
C18 H23 0.929 . S
C19 C18 1.457 . S
C19 C20 1.291 . S
C19 H32 0.931 . S
C20 C19 1.291 . S
C20 C21 1.373 . S
C20 H33 0.929 . S
C21 C20 1.373 . S
C21 C22 1.396 . S
C21 C28 1.403 . S
C22 C12 1.476 . S
C22 N17 1.318 . S
C22 C21 1.396 . S
H23 C18 0.929 . S
O24 Mn0 2.385 1_655 S
O24 C2 1.234 . S
O25 Mn0 2.209 1_655 S
O25 Mn1 2.215 . S
O25 C2 1.283 . S
O26 Mn0 2.094 . S
O26 C4 1.241 1_455 S
O27 Mn1 2.117 . S
O27 C4 1.263 . S
C28 C21 1.403 . S
C28 C29 1.405 . S
C28 H34 0.929 . S
C29 C9 1.448 1_545 S
C29 C28 1.405 . S
C29 H35 0.925 1_545 S
H30 C10 0.931 . S
H31 C11 0.930 . S
H32 C19 0.931 . S
H33 C20 0.929 . S
H34 C28 0.929 . S
H35 C29 0.925 1_565 S
Mn36 O41 2.095 . S
Mn36 O51 2.162 . S
Mn36 O52 2.297 . S
Mn36 O60 2.385 . S
Mn36 O61 2.209 . S
Mn36 O62 2.094 . S
Mn37 O42 2.121 . S
Mn37 N44 2.257 . S
Mn37 N53 2.282 . S
Mn37 O61 2.215 . S
Mn37 O63 2.117 . S
C38 O60 1.234 . S
C38 O61 1.283 . S
C39 O51 1.281 . S
C39 O52 1.236 . S
C40 O62 1.240 . S
C40 O63 1.264 . S
O41 Mn36 2.095 . S
O41 C50 1.250 . S
O42 Mn37 2.121 . S
O42 C50 1.258 . S
C43 N44 1.326 . S
C43 C47 1.460 . S
C43 H49 0.929 . S
N44 Mn37 2.257 . S
N44 C43 1.326 . S
N44 C48 1.362 . S
C45 C46 1.258 . S
C45 C48 1.431 . S
C45 C65 1.449 . S
C46 C45 1.258 . S
C46 C47 1.477 . S
C46 H66 0.931 . S
C47 C43 1.460 . S
C47 C46 1.477 . S
C47 H67 0.930 . S
C48 N44 1.362 . S
C48 C45 1.431 . S
C48 C58 1.476 . S
H49 C43 0.929 . S
C50 O41 1.250 . S
C50 O42 1.258 . S
O51 Mn36 2.162 . S
O51 C39 1.281 . S
O52 Mn36 2.297 . S
O52 C39 1.236 . S
N53 Mn37 2.282 . S
N53 C54 1.328 . S
N53 C58 1.318 . S
C54 N53 1.328 . S
C54 C55 1.457 . S
C54 H59 0.929 . S
C55 C54 1.457 . S
C55 C56 1.291 . S
C55 H68 0.931 . S
C56 C55 1.291 . S
C56 C57 1.373 . S
C56 H69 0.929 . S
C57 C56 1.373 . S
C57 C58 1.396 . S
C57 C64 1.403 . S
C58 C48 1.476 . S
C58 N53 1.318 . S
C58 C57 1.396 . S
H59 C54 0.929 . S
O60 Mn36 2.385 . S
O60 C38 1.234 . S
O61 Mn36 2.209 . S
O61 Mn37 2.215 . S
O61 C38 1.283 . S
O62 Mn36 2.094 . S
O62 C40 1.240 . S
O63 Mn37 2.117 . S
O63 C40 1.264 . S
C64 C57 1.403 . S
C64 C65 1.399 . S
C64 H70 0.929 . S
C65 C45 1.449 . S
C65 C64 1.399 . S
C65 H71 0.930 . S
H66 C46 0.931 . S
H67 C47 0.930 . S
H68 C55 0.931 . S
H69 C56 0.929 . S
H70 C64 0.929 . S
H71 C65 0.930 . S
Mn72 O77 2.095 . S
Mn72 O87 2.162 . S
Mn72 O88 2.297 1_565 S
Mn72 O96 2.385 . S
Mn72 O97 2.209 . S
Mn72 O98 2.094 . S
Mn73 O78 2.121 . S
Mn73 N80 2.257 . S
Mn73 N89 2.282 . S
Mn73 O97 2.215 . S
Mn73 O99 2.117 . S
C74 O96 1.234 . S
C74 O97 1.283 . S
C75 O87 1.281 1_545 S
C75 O88 1.236 . S
C76 O98 1.240 . S
C76 O99 1.264 . S
O77 Mn72 2.095 . S
O77 C86 1.250 . S
O78 Mn73 2.121 . S
O78 C86 1.258 . S
C79 N80 1.326 1_545 S
C79 C83 1.460 . S
C79 H85 0.929 . S
N80 Mn73 2.257 . S
N80 C79 1.326 1_565 S
N80 C84 1.362 . S
C81 C82 1.258 . S
C81 C84 1.431 1_545 S
C81 C101 1.448 1_545 S
C82 C81 1.258 . S
C82 C83 1.477 . S
C82 H102 0.931 . S
C83 C79 1.460 . S
C83 C82 1.477 . S
C83 H103 0.930 . S
C84 N80 1.362 . S
C84 C81 1.431 1_565 S
C84 C94 1.476 . S
H85 C79 0.929 . S
C86 O77 1.250 . S
C86 O78 1.258 . S
O87 Mn72 2.162 . S
O87 C75 1.281 1_565 S
O88 Mn72 2.297 1_545 S
O88 C75 1.236 . S
N89 Mn73 2.282 . S
N89 C90 1.328 . S
N89 C94 1.318 . S
C90 N89 1.328 . S
C90 C91 1.457 . S
C90 H95 0.929 . S
C91 C90 1.457 . S
C91 C92 1.291 . S
C91 H104 0.931 . S
C92 C91 1.291 . S
C92 C93 1.373 . S
C92 H105 0.929 . S
C93 C92 1.373 . S
C93 C94 1.396 . S
C93 C100 1.403 . S
C94 C84 1.476 . S
C94 N89 1.318 . S
C94 C93 1.396 . S
H95 C90 0.929 . S
O96 Mn72 2.385 . S
O96 C74 1.234 . S
O97 Mn72 2.209 . S
O97 Mn73 2.215 . S
O97 C74 1.283 . S
O98 Mn72 2.094 . S
O98 C76 1.240 . S
O99 Mn73 2.117 . S
O99 C76 1.264 . S
C100 C93 1.403 . S
C100 C101 1.405 . S
C100 H106 0.929 . S
C101 C81 1.448 1_565 S
C101 C100 1.405 . S
C101 H107 0.925 1_565 S
H102 C82 0.931 . S
H103 C83 0.930 . S
H104 C91 0.931 . S
H105 C92 0.929 . S
H106 C100 0.929 . S
H107 C101 0.925 1_545 S
Mn108 O113 2.095 . S
Mn108 O123 2.162 . S
Mn108 O124 2.297 . S
Mn108 O132 2.385 . S
Mn108 O133 2.209 . S
Mn108 O134 2.094 . S
Mn109 O114 2.121 . S
Mn109 N116 2.257 . S
Mn109 N125 2.282 . S
Mn109 O133 2.215 . S
Mn109 O135 2.117 . S
C110 O132 1.234 . S
C110 O133 1.283 . S
C111 O123 1.281 . S
C111 O124 1.236 . S
C112 O134 1.240 . S
C112 O135 1.264 . S
O113 Mn108 2.095 . S
O113 C122 1.250 . S
O114 Mn109 2.121 . S
O114 C122 1.258 . S
C115 N116 1.326 . S
C115 C119 1.460 . S
C115 H121 0.929 . S
N116 Mn109 2.257 . S
N116 C115 1.326 . S
N116 C120 1.362 . S
C117 C118 1.258 . S
C117 C120 1.431 . S
C117 C137 1.449 . S
C118 C117 1.258 . S
C118 C119 1.477 . S
C118 H138 0.931 . S
C119 C115 1.460 . S
C119 C118 1.477 . S
C119 H139 0.930 . S
C120 N116 1.362 . S
C120 C117 1.431 . S
C120 C130 1.476 . S
H121 C115 0.929 . S
C122 O113 1.250 . S
C122 O114 1.258 . S
O123 Mn108 2.162 . S
O123 C111 1.281 . S
O124 Mn108 2.297 . S
O124 C111 1.236 . S
N125 Mn109 2.282 . S
N125 C126 1.328 . S
N125 C130 1.318 . S
C126 N125 1.328 . S
C126 C127 1.457 . S
C126 H131 0.929 . S
C127 C126 1.457 . S
C127 C128 1.291 . S
C127 H140 0.931 . S
C128 C127 1.291 . S
C128 C129 1.373 . S
C128 H141 0.929 . S
C129 C128 1.373 . S
C129 C130 1.396 . S
C129 C136 1.403 . S
C130 C120 1.476 . S
C130 N125 1.318 . S
C130 C129 1.396 . S
H131 C126 0.929 . S
O132 Mn108 2.385 . S
O132 C110 1.234 . S
O133 Mn108 2.209 . S
O133 Mn109 2.215 . S
O133 C110 1.283 . S
O134 Mn108 2.094 . S
O134 C112 1.240 . S
O135 Mn109 2.117 . S
O135 C112 1.264 . S
C136 C129 1.403 . S
C136 C137 1.399 . S
C136 H142 0.929 . S
C137 C117 1.449 . S
C137 C136 1.399 . S
C137 H143 0.930 . S
H138 C118 0.931 . S
H139 C119 0.930 . S
H140 C127 0.931 . S
H141 C128 0.929 . S
H142 C136 0.929 . S
H143 C137 0.930 . S
Mn144 O149 2.095 . S
Mn144 O159 2.162 . S
Mn144 O160 2.297 1_565 S
Mn144 O168 2.385 1_455 S
Mn144 O169 2.209 1_455 S
Mn144 O170 2.094 . S
Mn145 O150 2.121 . S
Mn145 N152 2.257 . S
Mn145 N161 2.282 . S
Mn145 O169 2.215 . S
Mn145 O171 2.117 . S
C146 O168 1.234 . S
C146 O169 1.283 . S
C147 O159 1.281 1_545 S
C147 O160 1.236 . S
C148 O170 1.241 1_655 S
C148 O171 1.263 . S
O149 Mn144 2.095 . S
O149 C158 1.250 . S
O150 Mn145 2.121 . S
O150 C158 1.258 1_655 S
C151 N152 1.326 1_545 S
C151 C155 1.460 . S
C151 H157 0.929 . S
N152 Mn145 2.257 . S
N152 C151 1.326 1_565 S
N152 C156 1.362 . S
C153 C154 1.258 . S
C153 C156 1.431 1_545 S
C153 C173 1.448 1_545 S
C154 C153 1.258 . S
C154 C155 1.477 . S
C154 H174 0.931 . S
C155 C151 1.460 . S
C155 C154 1.477 . S
C155 H175 0.930 . S
C156 N152 1.362 . S
C156 C153 1.431 1_565 S
C156 C166 1.476 . S
H157 C151 0.929 . S
C158 O149 1.250 . S
C158 O150 1.258 1_455 S
O159 Mn144 2.162 . S
O159 C147 1.281 1_565 S
O160 Mn144 2.297 1_545 S
O160 C147 1.236 . S
N161 Mn145 2.282 . S
N161 C162 1.328 . S
N161 C166 1.318 . S
C162 N161 1.328 . S
C162 C163 1.457 . S
C162 H167 0.929 . S
C163 C162 1.457 . S
C163 C164 1.291 . S
C163 H176 0.931 . S
C164 C163 1.291 . S
C164 C165 1.373 . S
C164 H177 0.929 . S
C165 C164 1.373 . S
C165 C166 1.396 . S
C165 C172 1.403 . S
C166 C156 1.476 . S
C166 N161 1.318 . S
C166 C165 1.396 . S
H167 C162 0.929 . S
O168 Mn144 2.385 1_655 S
O168 C146 1.234 . S
O169 Mn144 2.209 1_655 S
O169 Mn145 2.215 . S
O169 C146 1.283 . S
O170 Mn144 2.094 . S
O170 C148 1.241 1_455 S
O171 Mn145 2.117 . S
O171 C148 1.263 . S
C172 C165 1.403 . S
C172 C173 1.405 . S
C172 H178 0.929 . S
C173 C153 1.448 1_565 S
C173 C172 1.405 . S
C173 H179 0.925 1_565 S
H174 C154 0.931 . S
H175 C155 0.930 . S
H176 C163 0.931 . S
H177 C164 0.929 . S
H178 C172 0.929 . S
H179 C173 0.925 1_545 S
Mn180 O185 2.095 . S
Mn180 O195 2.162 . S
Mn180 O196 2.297 . S
Mn180 O204 2.385 . S
Mn180 O205 2.209 . S
Mn180 O206 2.094 . S
Mn181 O186 2.121 . S
Mn181 N188 2.257 . S
Mn181 N197 2.282 . S
Mn181 O205 2.215 . S
Mn181 O207 2.117 . S
C182 O204 1.234 . S
C182 O205 1.283 . S
C183 O195 1.281 . S
C183 O196 1.236 . S
C184 O206 1.240 . S
C184 O207 1.264 . S
O185 Mn180 2.095 . S
O185 C194 1.250 . S
O186 Mn181 2.121 . S
O186 C194 1.258 . S
C187 N188 1.326 . S
C187 C191 1.460 . S
C187 H193 0.929 . S
N188 Mn181 2.257 . S
N188 C187 1.326 . S
N188 C192 1.362 . S
C189 C190 1.258 . S
C189 C192 1.431 . S
C189 C209 1.449 . S
C190 C189 1.258 . S
C190 C191 1.477 . S
C190 H210 0.931 . S
C191 C187 1.460 . S
C191 C190 1.477 . S
C191 H211 0.930 . S
C192 N188 1.362 . S
C192 C189 1.431 . S
C192 C202 1.476 . S
H193 C187 0.929 . S
C194 O185 1.250 . S
C194 O186 1.258 . S
O195 Mn180 2.162 . S
O195 C183 1.281 . S
O196 Mn180 2.297 . S
O196 C183 1.236 . S
N197 Mn181 2.282 . S
N197 C198 1.328 . S
N197 C202 1.318 . S
C198 N197 1.328 . S
C198 C199 1.457 . S
C198 H203 0.929 . S
C199 C198 1.457 . S
C199 C200 1.291 . S
C199 H212 0.931 . S
C200 C199 1.291 . S
C200 C201 1.373 . S
C200 H213 0.929 . S
C201 C200 1.373 . S
C201 C202 1.396 . S
C201 C208 1.403 . S
C202 C192 1.476 . S
C202 N197 1.318 . S
C202 C201 1.396 . S
H203 C198 0.929 . S
O204 Mn180 2.385 . S
O204 C182 1.234 . S
O205 Mn180 2.209 . S
O205 Mn181 2.215 . S
O205 C182 1.283 . S
O206 Mn180 2.094 . S
O206 C184 1.240 . S
O207 Mn181 2.117 . S
O207 C184 1.264 . S
C208 C201 1.403 . S
C208 C209 1.399 . S
C208 H214 0.929 . S
C209 C189 1.449 . S
C209 C208 1.399 . S
C209 H215 0.930 . S
H210 C190 0.931 . S
H211 C191 0.930 . S
H212 C199 0.931 . S
H213 C200 0.929 . S
H214 C208 0.929 . S
H215 C209 0.930 . S
Mn216 O221 2.095 . S
Mn216 O231 2.162 . S
Mn216 O232 2.297 1_545 S
Mn216 O240 2.385 . S
Mn216 O241 2.209 . S
Mn216 O242 2.094 . S
Mn217 O222 2.121 . S
Mn217 N224 2.257 . S
Mn217 N233 2.282 . S
Mn217 O241 2.215 . S
Mn217 O243 2.117 . S
C218 O240 1.234 . S
C218 O241 1.283 . S
C219 O231 1.281 1_565 S
C219 O232 1.236 . S
C220 O242 1.240 . S
C220 O243 1.264 . S
O221 Mn216 2.095 . S
O221 C230 1.250 . S
O222 Mn217 2.121 . S
O222 C230 1.258 . S
C223 N224 1.326 1_565 S
C223 C227 1.460 . S
C223 H229 0.929 . S
N224 Mn217 2.257 . S
N224 C223 1.326 1_545 S
N224 C228 1.362 . S
C225 C226 1.258 . S
C225 C228 1.431 1_565 S
C225 C245 1.448 1_565 S
C226 C225 1.258 . S
C226 C227 1.477 . S
C226 H246 0.931 . S
C227 C223 1.460 . S
C227 C226 1.477 . S
C227 H247 0.930 . S
C228 N224 1.362 . S
C228 C225 1.431 1_545 S
C228 C238 1.476 . S
H229 C223 0.929 . S
C230 O221 1.250 . S
C230 O222 1.258 . S
O231 Mn216 2.162 . S
O231 C219 1.281 1_545 S
O232 Mn216 2.297 1_565 S
O232 C219 1.236 . S
N233 Mn217 2.282 . S
N233 C234 1.328 . S
N233 C238 1.318 . S
C234 N233 1.328 . S
C234 C235 1.457 . S
C234 H239 0.929 . S
C235 C234 1.457 . S
C235 C236 1.291 . S
C235 H248 0.931 . S
C236 C235 1.291 . S
C236 C237 1.373 . S
C236 H249 0.929 . S
C237 C236 1.373 . S
C237 C238 1.396 . S
C237 C244 1.403 . S
C238 C228 1.476 . S
C238 N233 1.318 . S
C238 C237 1.396 . S
H239 C234 0.929 . S
O240 Mn216 2.385 . S
O240 C218 1.234 . S
O241 Mn216 2.209 . S
O241 Mn217 2.215 . S
O241 C218 1.283 . S
O242 Mn216 2.094 . S
O242 C220 1.240 . S
O243 Mn217 2.117 . S
O243 C220 1.264 . S
C244 C237 1.403 . S
C244 C245 1.405 . S
C244 H250 0.929 . S
C245 C225 1.448 1_545 S
C245 C244 1.405 . S
C245 H251 0.925 1_545 S
H246 C226 0.931 . S
H247 C227 0.930 . S
H248 C235 0.931 . S
H249 C236 0.929 . S
H250 C244 0.929 . S
H251 C245 0.925 1_565 S
Mn252 O257 2.095 . S
Mn252 O267 2.162 . S
Mn252 O268 2.297 . S
Mn252 O276 2.385 . S
Mn252 O277 2.209 . S
Mn252 O278 2.094 . S
Mn253 O258 2.121 . S
Mn253 N260 2.257 . S
Mn253 N269 2.282 . S
Mn253 O277 2.215 . S
Mn253 O279 2.117 . S
C254 O276 1.234 . S
C254 O277 1.283 . S
C255 O267 1.281 . S
C255 O268 1.236 . S
C256 O278 1.240 . S
C256 O279 1.264 . S
O257 Mn252 2.095 . S
O257 C266 1.250 . S
O258 Mn253 2.121 . S
O258 C266 1.258 . S
C259 N260 1.326 . S
C259 C263 1.460 . S
C259 H265 0.929 . S
N260 Mn253 2.257 . S
N260 C259 1.326 . S
N260 C264 1.362 . S
C261 C262 1.258 . S
C261 C264 1.431 . S
C261 C281 1.449 . S
C262 C261 1.258 . S
C262 C263 1.477 . S
C262 H282 0.931 . S
C263 C259 1.460 . S
C263 C262 1.477 . S
C263 H283 0.930 . S
C264 N260 1.362 . S
C264 C261 1.431 . S
C264 C274 1.476 . S
H265 C259 0.929 . S
C266 O257 1.250 . S
C266 O258 1.258 . S
O267 Mn252 2.162 . S
O267 C255 1.281 . S
O268 Mn252 2.297 . S
O268 C255 1.236 . S
N269 Mn253 2.282 . S
N269 C270 1.328 . S
N269 C274 1.318 . S
C270 N269 1.328 . S
C270 C271 1.457 . S
C270 H275 0.929 . S
C271 C270 1.457 . S
C271 C272 1.291 . S
C271 H284 0.931 . S
C272 C271 1.291 . S
C272 C273 1.373 . S
C272 H285 0.929 . S
C273 C272 1.373 . S
C273 C274 1.396 . S
C273 C280 1.403 . S
C274 C264 1.476 . S
C274 N269 1.318 . S
C274 C273 1.396 . S
H275 C270 0.929 . S
O276 Mn252 2.385 . S
O276 C254 1.234 . S
O277 Mn252 2.209 . S
O277 Mn253 2.215 . S
O277 C254 1.283 . S
O278 Mn252 2.094 . S
O278 C256 1.240 . S
O279 Mn253 2.117 . S
O279 C256 1.264 . S
C280 C273 1.403 . S
C280 C281 1.399 . S
C280 H286 0.929 . S
C281 C261 1.449 . S
C281 C280 1.399 . S
C281 H287 0.930 . S
H282 C262 0.931 . S
H283 C263 0.930 . S
H284 C271 0.931 . S
H285 C272 0.929 . S
H286 C280 0.929 . S
H287 C281 0.930 . S
Mn288 O293 2.095 . S
Mn288 O303 2.162 . S
Mn288 O304 2.297 . S
Mn288 O312 2.385 . S
Mn288 O313 2.209 . S
Mn288 O314 2.094 . S
Mn289 O294 2.121 . S
Mn289 N296 2.257 . S
Mn289 N305 2.282 . S
Mn289 O313 2.215 . S
Mn289 O315 2.117 . S
C290 O312 1.234 . S
C290 O313 1.283 . S
C291 O303 1.281 . S
C291 O304 1.236 . S
C292 O314 1.240 . S
C292 O315 1.264 . S
O293 Mn288 2.095 . S
O293 C302 1.250 . S
O294 Mn289 2.121 . S
O294 C302 1.258 . S
C295 N296 1.326 . S
C295 C299 1.460 . S
C295 H301 0.929 . S
N296 Mn289 2.257 . S
N296 C295 1.326 . S
N296 C300 1.362 . S
C297 C298 1.258 . S
C297 C300 1.431 . S
C297 C317 1.449 . S
C298 C297 1.258 . S
C298 C299 1.477 . S
C298 H318 0.931 . S
C299 C295 1.460 . S
C299 C298 1.477 . S
C299 H319 0.930 . S
C300 N296 1.362 . S
C300 C297 1.431 . S
C300 C310 1.476 . S
H301 C295 0.929 . S
C302 O293 1.250 . S
C302 O294 1.258 . S
O303 Mn288 2.162 . S
O303 C291 1.281 . S
O304 Mn288 2.297 . S
O304 C291 1.236 . S
N305 Mn289 2.282 . S
N305 C306 1.328 . S
N305 C310 1.318 . S
C306 N305 1.328 . S
C306 C307 1.457 . S
C306 H311 0.929 . S
C307 C306 1.457 . S
C307 C308 1.291 . S
C307 H320 0.931 . S
C308 C307 1.291 . S
C308 C309 1.373 . S
C308 H321 0.929 . S
C309 C308 1.373 . S
C309 C310 1.396 . S
C309 C316 1.403 . S
C310 C300 1.476 . S
C310 N305 1.318 . S
C310 C309 1.396 . S
H311 C306 0.929 . S
O312 Mn288 2.385 . S
O312 C290 1.234 . S
O313 Mn288 2.209 . S
O313 Mn289 2.215 . S
O313 C290 1.283 . S
O314 Mn288 2.094 . S
O314 C292 1.240 . S
O315 Mn289 2.117 . S
O315 C292 1.264 . S
C316 C309 1.403 . S
C316 C317 1.399 . S
C316 H322 0.929 1_545 S
C317 C297 1.449 . S
C317 C316 1.399 . S
C317 H323 0.930 1_545 S
H318 C298 0.931 . S
H319 C299 0.930 . S
H320 C307 0.931 . S
H321 C308 0.929 . S
H322 C316 0.929 1_565 S
H323 C317 0.930 1_565 S
Mn324 O329 2.095 . S
Mn324 O339 2.162 . S
Mn324 O340 2.297 . S
Mn324 O348 2.385 . S
Mn324 O349 2.209 . S
Mn324 O350 2.094 . S
Mn325 O330 2.121 . S
Mn325 N332 2.257 . S
Mn325 N341 2.282 . S
Mn325 O349 2.215 . S
Mn325 O351 2.117 . S
C326 O348 1.234 . S
C326 O349 1.283 . S
C327 O339 1.281 . S
C327 O340 1.236 . S
C328 O350 1.240 . S
C328 O351 1.264 . S
O329 Mn324 2.095 . S
O329 C338 1.250 . S
O330 Mn325 2.121 . S
O330 C338 1.258 . S
C331 N332 1.326 . S
C331 C335 1.460 . S
C331 H337 0.929 . S
N332 Mn325 2.257 . S
N332 C331 1.326 . S
N332 C336 1.362 . S
C333 C334 1.258 . S
C333 C336 1.431 . S
C333 C353 1.449 . S
C334 C333 1.258 . S
C334 C335 1.477 . S
C334 H354 0.931 . S
C335 C331 1.460 . S
C335 C334 1.477 . S
C335 H355 0.930 . S
C336 N332 1.362 . S
C336 C333 1.431 . S
C336 C346 1.476 . S
H337 C331 0.929 . S
C338 O329 1.250 . S
C338 O330 1.258 . S
O339 Mn324 2.162 . S
O339 C327 1.281 . S
O340 Mn324 2.297 . S
O340 C327 1.236 . S
N341 Mn325 2.282 . S
N341 C342 1.328 . S
N341 C346 1.318 . S
C342 N341 1.328 . S
C342 C343 1.457 . S
C342 H347 0.929 . S
C343 C342 1.457 . S
C343 C344 1.291 . S
C343 H356 0.931 . S
C344 C343 1.291 . S
C344 C345 1.373 . S
C344 H357 0.929 . S
C345 C344 1.373 . S
C345 C346 1.396 . S
C345 C352 1.403 . S
C346 C336 1.476 . S
C346 N341 1.318 . S
C346 C345 1.396 . S
H347 C342 0.929 . S
O348 Mn324 2.385 . S
O348 C326 1.234 . S
O349 Mn324 2.209 . S
O349 Mn325 2.215 . S
O349 C326 1.283 . S
O350 Mn324 2.094 . S
O350 C328 1.240 . S
O351 Mn325 2.117 . S
O351 C328 1.264 . S
C352 C345 1.403 . S
C352 C353 1.399 . S
C352 H358 0.929 1_565 S
C353 C333 1.449 . S
C353 C352 1.399 . S
C353 H359 0.930 1_565 S
H354 C334 0.931 . S
H355 C335 0.930 . S
H356 C343 0.931 . S
H357 C344 0.929 . S
H358 C352 0.929 1_545 S
H359 C353 0.930 1_545 S
Mn360 O365 2.095 . S
Mn360 O375 2.162 . S
Mn360 O376 2.297 . S
Mn360 O384 2.385 . S
Mn360 O385 2.209 . S
Mn360 O386 2.094 . S
Mn361 O366 2.121 . S
Mn361 N368 2.257 . S
Mn361 N377 2.282 . S
Mn361 O385 2.215 . S
Mn361 O387 2.117 . S
C362 O384 1.234 . S
C362 O385 1.283 . S
C363 O375 1.281 . S
C363 O376 1.236 . S
C364 O386 1.240 . S
C364 O387 1.264 . S
O365 Mn360 2.095 . S
O365 C374 1.250 . S
O366 Mn361 2.121 . S
O366 C374 1.258 . S
C367 N368 1.326 . S
C367 C371 1.460 . S
C367 H373 0.929 . S
N368 Mn361 2.257 . S
N368 C367 1.326 . S
N368 C372 1.362 . S
C369 C370 1.258 . S
C369 C372 1.431 . S
C369 C389 1.449 . S
C370 C369 1.258 . S
C370 C371 1.477 . S
C370 H390 0.931 . S
C371 C367 1.460 . S
C371 C370 1.477 . S
C371 H391 0.930 . S
C372 N368 1.362 . S
C372 C369 1.431 . S
C372 C382 1.476 . S
H373 C367 0.929 . S
C374 O365 1.250 . S
C374 O366 1.258 . S
O375 Mn360 2.162 . S
O375 C363 1.281 . S
O376 Mn360 2.297 . S
O376 C363 1.236 . S
N377 Mn361 2.282 . S
N377 C378 1.328 . S
N377 C382 1.318 . S
C378 N377 1.328 . S
C378 C379 1.457 . S
C378 H383 0.929 . S
C379 C378 1.457 . S
C379 C380 1.291 . S
C379 H392 0.931 . S
C380 C379 1.291 . S
C380 C381 1.373 . S
C380 H393 0.929 . S
C381 C380 1.373 . S
C381 C382 1.396 . S
C381 C388 1.403 . S
C382 C372 1.476 . S
C382 N377 1.318 . S
C382 C381 1.396 . S
H383 C378 0.929 . S
O384 Mn360 2.385 . S
O384 C362 1.234 . S
O385 Mn360 2.209 . S
O385 Mn361 2.215 . S
O385 C362 1.283 . S
O386 Mn360 2.094 . S
O386 C364 1.240 . S
O387 Mn361 2.117 . S
O387 C364 1.264 . S
C388 C381 1.403 . S
C388 C389 1.399 . S
C388 H394 0.929 1_545 S
C389 C369 1.449 . S
C389 C388 1.399 . S
C389 H395 0.930 1_545 S
H390 C370 0.931 . S
H391 C371 0.930 . S
H392 C379 0.931 . S
H393 C380 0.929 . S
H394 C388 0.929 1_565 S
H395 C389 0.930 1_565 S
Mn396 O401 2.095 . S
Mn396 O411 2.162 . S
Mn396 O412 2.297 . S
Mn396 O420 2.385 . S
Mn396 O421 2.209 . S
Mn396 O422 2.094 . S
Mn397 O402 2.121 . S
Mn397 N404 2.257 . S
Mn397 N413 2.282 . S
Mn397 O421 2.215 . S
Mn397 O423 2.117 . S
C398 O420 1.234 . S
C398 O421 1.283 . S
C399 O411 1.281 . S
C399 O412 1.236 . S
C400 O422 1.240 . S
C400 O423 1.264 . S
O401 Mn396 2.095 . S
O401 C410 1.250 . S
O402 Mn397 2.121 . S
O402 C410 1.258 . S
C403 N404 1.326 . S
C403 C407 1.460 . S
C403 H409 0.929 . S
N404 Mn397 2.257 . S
N404 C403 1.326 . S
N404 C408 1.362 . S
C405 C406 1.258 . S
C405 C408 1.431 . S
C405 C425 1.449 . S
C406 C405 1.258 . S
C406 C407 1.477 . S
C406 H426 0.931 . S
C407 C403 1.460 . S
C407 C406 1.477 . S
C407 H427 0.930 . S
C408 N404 1.362 . S
C408 C405 1.431 . S
C408 C418 1.476 . S
H409 C403 0.929 . S
C410 O401 1.250 . S
C410 O402 1.258 . S
O411 Mn396 2.162 . S
O411 C399 1.281 . S
O412 Mn396 2.297 . S
O412 C399 1.236 . S
N413 Mn397 2.282 . S
N413 C414 1.328 . S
N413 C418 1.318 . S
C414 N413 1.328 . S
C414 C415 1.457 . S
C414 H419 0.929 . S
C415 C414 1.457 . S
C415 C416 1.291 . S
C415 H428 0.931 . S
C416 C415 1.291 . S
C416 C417 1.373 . S
C416 H429 0.929 . S
C417 C416 1.373 . S
C417 C418 1.396 . S
C417 C424 1.403 . S
C418 C408 1.476 . S
C418 N413 1.318 . S
C418 C417 1.396 . S
H419 C414 0.929 . S
O420 Mn396 2.385 . S
O420 C398 1.234 . S
O421 Mn396 2.209 . S
O421 Mn397 2.215 . S
O421 C398 1.283 . S
O422 Mn396 2.094 . S
O422 C400 1.240 . S
O423 Mn397 2.117 . S
O423 C400 1.264 . S
C424 C417 1.403 . S
C424 C425 1.399 . S
C424 H430 0.929 1_565 S
C425 C405 1.449 . S
C425 C424 1.399 . S
C425 H431 0.930 1_565 S
H426 C406 0.931 . S
H427 C407 0.930 . S
H428 C415 0.931 . S
H429 C416 0.929 . S
H430 C424 0.929 1_545 S
H431 C425 0.930 1_545 S
Mn432 O437 2.095 . S
Mn432 O447 2.162 . S
Mn432 O448 2.297 . S
Mn432 O456 2.385 . S
Mn432 O457 2.209 . S
Mn432 O458 2.094 . S
Mn433 O438 2.121 . S
Mn433 N440 2.257 . S
Mn433 N449 2.282 . S
Mn433 O457 2.215 . S
Mn433 O459 2.117 . S
C434 O456 1.234 . S
C434 O457 1.283 . S
C435 O447 1.281 . S
C435 O448 1.236 . S
C436 O458 1.240 . S
C436 O459 1.264 . S
O437 Mn432 2.095 . S
O437 C446 1.250 . S
O438 Mn433 2.121 . S
O438 C446 1.258 . S
C439 N440 1.326 . S
C439 C443 1.460 . S
C439 H445 0.929 . S
N440 Mn433 2.257 . S
N440 C439 1.326 . S
N440 C444 1.362 . S
C441 C442 1.258 . S
C441 C444 1.431 . S
C441 C461 1.449 . S
C442 C441 1.258 . S
C442 C443 1.477 . S
C442 H462 0.931 . S
C443 C439 1.460 . S
C443 C442 1.477 . S
C443 H463 0.930 . S
C444 N440 1.362 . S
C444 C441 1.431 . S
C444 C454 1.476 . S
H445 C439 0.929 . S
C446 O437 1.250 . S
C446 O438 1.258 . S
O447 Mn432 2.162 . S
O447 C435 1.281 . S
O448 Mn432 2.297 . S
O448 C435 1.236 . S
N449 Mn433 2.282 . S
N449 C450 1.328 . S
N449 C454 1.318 . S
C450 N449 1.328 . S
C450 C451 1.457 . S
C450 H455 0.929 . S
C451 C450 1.457 . S
C451 C452 1.291 . S
C451 H464 0.931 . S
C452 C451 1.291 . S
C452 C453 1.373 . S
C452 H465 0.929 . S
C453 C452 1.373 . S
C453 C454 1.396 . S
C453 C460 1.403 . S
C454 C444 1.476 . S
C454 N449 1.318 . S
C454 C453 1.396 . S
H455 C450 0.929 . S
O456 Mn432 2.385 . S
O456 C434 1.234 . S
O457 Mn432 2.209 . S
O457 Mn433 2.215 . S
O457 C434 1.283 . S
O458 Mn432 2.094 . S
O458 C436 1.240 . S
O459 Mn433 2.117 . S
O459 C436 1.264 . S
C460 C453 1.403 . S
C460 C461 1.399 . S
C460 H466 0.929 . S
C461 C441 1.449 . S
C461 C460 1.399 . S
C461 H467 0.930 . S
H462 C442 0.931 . S
H463 C443 0.930 . S
H464 C451 0.931 . S
H465 C452 0.929 . S
H466 C460 0.929 . S
H467 C461 0.930 . S
Mn468 O473 2.095 . S
Mn468 O483 2.162 1_455 S
Mn468 O484 2.297 . S
Mn468 O492 2.385 . S
Mn468 O493 2.209 . S
Mn468 O494 2.094 . S
Mn469 O474 2.121 . S
Mn469 N476 2.257 . S
Mn469 N485 2.282 . S
Mn469 O493 2.215 . S
Mn469 O495 2.117 . S
C470 O492 1.234 . S
C470 O493 1.283 . S
C471 O483 1.281 . S
C471 O484 1.236 1_655 S
C472 O494 1.240 . S
C472 O495 1.264 . S
O473 Mn468 2.095 . S
O473 C482 1.250 . S
O474 Mn469 2.121 . S
O474 C482 1.258 . S
C475 N476 1.326 . S
C475 C479 1.460 . S
C475 H481 0.929 . S
N476 Mn469 2.257 . S
N476 C475 1.326 . S
N476 C480 1.362 . S
C477 C478 1.258 . S
C477 C480 1.431 . S
C477 C497 1.449 . S
C478 C477 1.258 . S
C478 C479 1.477 . S
C478 H498 0.931 . S
C479 C475 1.460 . S
C479 C478 1.477 . S
C479 H499 0.930 . S
C480 N476 1.362 . S
C480 C477 1.431 . S
C480 C490 1.476 . S
H481 C475 0.929 . S
C482 O473 1.250 . S
C482 O474 1.258 . S
O483 Mn468 2.162 1_655 S
O483 C471 1.281 . S
O484 Mn468 2.297 . S
O484 C471 1.236 1_455 S
N485 Mn469 2.282 . S
N485 C486 1.328 . S
N485 C490 1.318 . S
C486 N485 1.328 . S
C486 C487 1.457 . S
C486 H491 0.929 . S
C487 C486 1.457 . S
C487 C488 1.291 . S
C487 H500 0.931 . S
C488 C487 1.291 . S
C488 C489 1.373 . S
C488 H501 0.929 . S
C489 C488 1.373 . S
C489 C490 1.396 . S
C489 C496 1.403 . S
C490 C480 1.476 . S
C490 N485 1.318 . S
C490 C489 1.396 . S
H491 C486 0.929 . S
O492 Mn468 2.385 . S
O492 C470 1.234 . S
O493 Mn468 2.209 . S
O493 Mn469 2.215 . S
O493 C470 1.283 . S
O494 Mn468 2.094 . S
O494 C472 1.240 . S
O495 Mn469 2.117 . S
O495 C472 1.264 . S
C496 C489 1.403 . S
C496 C497 1.399 . S
C496 H502 0.929 . S
C497 C477 1.449 . S
C497 C496 1.399 . S
C497 H503 0.930 . S
H498 C478 0.931 . S
H499 C479 0.930 . S
H500 C487 0.931 . S
H501 C488 0.929 . S
H502 C496 0.929 . S
H503 C497 0.930 . S
Mn504 O509 2.095 . S
Mn504 O519 2.162 . S
Mn504 O520 2.297 . S
Mn504 O528 2.385 . S
Mn504 O529 2.209 . S
Mn504 O530 2.094 . S
Mn505 O510 2.121 . S
Mn505 N512 2.257 . S
Mn505 N521 2.282 . S
Mn505 O529 2.215 . S
Mn505 O531 2.117 . S
C506 O528 1.234 . S
C506 O529 1.283 . S
C507 O519 1.281 . S
C507 O520 1.236 . S
C508 O530 1.240 . S
C508 O531 1.264 . S
O509 Mn504 2.095 . S
O509 C518 1.250 . S
O510 Mn505 2.121 . S
O510 C518 1.258 . S
C511 N512 1.326 . S
C511 C515 1.460 . S
C511 H517 0.929 . S
N512 Mn505 2.257 . S
N512 C511 1.326 . S
N512 C516 1.362 . S
C513 C514 1.258 . S
C513 C516 1.431 . S
C513 C533 1.449 . S
C514 C513 1.258 . S
C514 C515 1.477 . S
C514 H534 0.931 . S
C515 C511 1.460 . S
C515 C514 1.477 . S
C515 H535 0.930 . S
C516 N512 1.362 . S
C516 C513 1.431 . S
C516 C526 1.476 . S
H517 C511 0.929 . S
C518 O509 1.250 . S
C518 O510 1.258 . S
O519 Mn504 2.162 . S
O519 C507 1.281 . S
O520 Mn504 2.297 . S
O520 C507 1.236 . S
N521 Mn505 2.282 . S
N521 C522 1.328 . S
N521 C526 1.318 . S
C522 N521 1.328 . S
C522 C523 1.457 . S
C522 H527 0.929 . S
C523 C522 1.457 . S
C523 C524 1.291 . S
C523 H536 0.931 . S
C524 C523 1.291 . S
C524 C525 1.373 . S
C524 H537 0.929 . S
C525 C524 1.373 . S
C525 C526 1.396 . S
C525 C532 1.403 . S
C526 C516 1.476 . S
C526 N521 1.318 . S
C526 C525 1.396 . S
H527 C522 0.929 . S
O528 Mn504 2.385 . S
O528 C506 1.234 . S
O529 Mn504 2.209 . S
O529 Mn505 2.215 . S
O529 C506 1.283 . S
O530 Mn504 2.094 . S
O530 C508 1.240 . S
O531 Mn505 2.117 . S
O531 C508 1.264 . S
C532 C525 1.403 . S
C532 C533 1.399 . S
C532 H538 0.929 . S
C533 C513 1.449 . S
C533 C532 1.399 . S
C533 H539 0.930 . S
H534 C514 0.931 . S
H535 C515 0.930 . S
H536 C523 0.931 . S
H537 C524 0.929 . S
H538 C532 0.929 . S
H539 C533 0.930 . S
Mn540 O545 2.095 . S
Mn540 O555 2.162 1_455 S
Mn540 O556 2.297 . S
Mn540 O564 2.385 . S
Mn540 O565 2.209 . S
Mn540 O566 2.094 . S
Mn541 O546 2.121 . S
Mn541 N548 2.257 . S
Mn541 N557 2.282 . S
Mn541 O565 2.215 . S
Mn541 O567 2.117 . S
C542 O564 1.234 . S
C542 O565 1.283 . S
C543 O555 1.281 . S
C543 O556 1.236 1_655 S
C544 O566 1.240 . S
C544 O567 1.264 . S
O545 Mn540 2.095 . S
O545 C554 1.250 . S
O546 Mn541 2.121 . S
O546 C554 1.258 . S
C547 N548 1.326 . S
C547 C551 1.460 . S
C547 H553 0.929 . S
N548 Mn541 2.257 . S
N548 C547 1.326 . S
N548 C552 1.362 . S
C549 C550 1.258 . S
C549 C552 1.431 . S
C549 C569 1.449 . S
C550 C549 1.258 . S
C550 C551 1.477 . S
C550 H570 0.931 . S
C551 C547 1.460 . S
C551 C550 1.477 . S
C551 H571 0.930 . S
C552 N548 1.362 . S
C552 C549 1.431 . S
C552 C562 1.476 . S
H553 C547 0.929 . S
C554 O545 1.250 . S
C554 O546 1.258 . S
O555 Mn540 2.162 1_655 S
O555 C543 1.281 . S
O556 Mn540 2.297 . S
O556 C543 1.236 1_455 S
N557 Mn541 2.282 . S
N557 C558 1.328 . S
N557 C562 1.318 . S
C558 N557 1.328 . S
C558 C559 1.457 . S
C558 H563 0.929 . S
C559 C558 1.457 . S
C559 C560 1.291 . S
C559 H572 0.931 . S
C560 C559 1.291 . S
C560 C561 1.373 . S
C560 H573 0.929 . S
C561 C560 1.373 . S
C561 C562 1.396 . S
C561 C568 1.403 . S
C562 C552 1.476 . S
C562 N557 1.318 . S
C562 C561 1.396 . S
H563 C558 0.929 . S
O564 Mn540 2.385 . S
O564 C542 1.234 . S
O565 Mn540 2.209 . S
O565 Mn541 2.215 . S
O565 C542 1.283 . S
O566 Mn540 2.094 . S
O566 C544 1.240 . S
O567 Mn541 2.117 . S
O567 C544 1.264 . S
C568 C561 1.403 . S
C568 C569 1.399 . S
C568 H574 0.929 . S
C569 C549 1.449 . S
C569 C568 1.399 . S
C569 H575 0.930 . S
H570 C550 0.931 . S
H571 C551 0.930 . S
H572 C559 0.931 . S
H573 C560 0.929 . S
H574 C568 0.929 . S
H575 C569 0.930 . S
H576 C588 0.930 . S
H577 C590 0.930 . S
H578 C591 0.930 . S
H579 C595 0.959 . S
H580 C595 0.959 . S
H581 C595 0.961 . S
H582 C596 0.960 . S
H583 C596 0.961 . S
H584 C596 0.959 . S
H585 C599 0.929 . S
H586 C600 0.931 . S
H587 C602 0.930 . S
C588 H576 0.930 . S
C588 C589 1.399 1_655 S
C588 C593 1.399 1_655 S
C589 C588 1.399 1_455 S
C589 C590 1.376 . S
C590 H577 0.930 . S
C590 C589 1.376 . S
C590 C591 1.388 . S
C591 H578 0.930 . S
C591 C590 1.388 . S
C591 C592 1.390 . S
C592 C591 1.390 . S
C592 C593 1.394 . S
C592 C598 1.465 . S
C593 C588 1.399 1_455 S
C593 C592 1.394 . S
C593 C594 1.516 . S
C594 C593 1.516 . S
C594 C595 1.502 1_455 S
C594 C596 1.561 . S
C594 C597 1.526 . S
C595 H579 0.959 . S
C595 H580 0.959 . S
C595 H581 0.961 . S
C595 C594 1.502 1_655 S
C596 H582 0.960 . S
C596 H583 0.961 . S
C596 H584 0.959 . S
C596 C594 1.561 . S
C597 C594 1.526 . S
C597 C598 1.396 . S
C597 C602 1.390 . S
C598 C592 1.465 . S
C598 C597 1.396 . S
C598 C599 1.399 . S
C599 H585 0.929 . S
C599 C598 1.399 . S
C599 C600 1.385 . S
C600 H586 0.931 . S
C600 C599 1.385 . S
C600 C601 1.389 . S
C601 C600 1.389 . S
C601 C602 1.387 . S
C602 H587 0.930 . S
C602 C597 1.390 . S
C602 C601 1.387 . S
H603 C615 0.930 . S
H604 C617 0.930 . S
H605 C618 0.930 . S
H606 C622 0.959 . S
H607 C622 0.959 . S
H608 C622 0.961 . S
H609 C623 0.970 . S
H610 C623 0.961 . S
H611 C623 0.959 . S
H612 C626 0.929 . S
H613 C627 0.931 . S
H614 C629 0.930 . S
C615 H603 0.930 . S
C615 C616 1.399 . S
C615 C620 1.399 . S
C616 C615 1.399 . S
C616 C617 1.376 . S
C617 H604 0.930 . S
C617 C616 1.376 . S
C617 C618 1.388 . S
C618 H605 0.930 . S
C618 C617 1.388 . S
C618 C619 1.371 1_655 S
C619 C618 1.371 1_455 S
C619 C620 1.388 1_455 S
C619 C625 1.492 . S
C620 C615 1.399 . S
C620 C619 1.388 1_655 S
C620 C621 1.516 1_655 S
C621 C620 1.516 1_455 S
C621 C622 1.502 . S
C621 C623 1.561 . S
C621 C624 1.526 . S
C622 H606 0.959 . S
C622 H607 0.959 . S
C622 H608 0.961 . S
C622 C621 1.502 . S
C623 H609 0.970 . S
C623 H610 0.961 . S
C623 H611 0.959 . S
C623 C621 1.561 . S
C624 C621 1.526 . S
C624 C625 1.396 . S
C624 C629 1.390 . S
C625 C619 1.492 . S
C625 C624 1.396 . S
C625 C626 1.399 . S
C626 H612 0.929 . S
C626 C625 1.399 . S
C626 C627 1.385 . S
C627 H613 0.931 . S
C627 C626 1.385 . S
C627 C628 1.389 . S
C628 C627 1.389 . S
C628 C629 1.387 . S
C629 H614 0.930 . S
C629 C624 1.390 . S
C629 C628 1.387 . S
H630 C642 0.930 . S
H631 C644 0.930 . S
H632 C645 0.930 . S
H633 C649 0.959 . S
H634 C649 0.959 . S
H635 C649 0.961 . S
H636 C650 0.960 . S
H637 C650 0.961 . S
H638 C650 0.959 . S
H639 C653 0.929 . S
H640 C654 0.931 . S
H641 C656 0.930 . S
C642 H630 0.930 . S
C642 C643 1.399 . S
C642 C647 1.399 . S
C643 C642 1.399 . S
C643 C644 1.376 . S
C644 H631 0.930 . S
C644 C643 1.376 . S
C644 C645 1.388 . S
C645 H632 0.930 . S
C645 C644 1.388 . S
C645 C646 1.390 . S
C646 C645 1.390 . S
C646 C647 1.394 . S
C646 C652 1.465 . S
C647 C642 1.399 . S
C647 C646 1.394 . S
C647 C648 1.516 . S
C648 C647 1.516 . S
C648 C649 1.502 . S
C648 C650 1.561 . S
C648 C651 1.526 . S
C649 H633 0.959 . S
C649 H634 0.959 . S
C649 H635 0.961 . S
C649 C648 1.502 . S
C650 H636 0.960 . S
C650 H637 0.961 . S
C650 H638 0.959 . S
C650 C648 1.561 . S
C651 C648 1.526 . S
C651 C652 1.396 . S
C651 C656 1.390 . S
C652 C646 1.465 . S
C652 C651 1.396 . S
C652 C653 1.399 . S
C653 H639 0.929 . S
C653 C652 1.399 . S
C653 C654 1.385 . S
C654 H640 0.931 . S
C654 C653 1.385 . S
C654 C655 1.389 . S
C655 C654 1.389 . S
C655 C656 1.387 . S
C656 H641 0.930 . S
C656 C651 1.390 . S
C656 C655 1.387 . S
H657 C669 0.930 . S
H658 C671 0.930 . S
H659 C672 0.930 . S
H660 C676 0.959 . S
H661 C676 0.959 . S
H662 C676 0.961 . S
H663 C677 0.960 . S
H664 C677 0.961 . S
H665 C677 0.959 . S
H666 C680 0.929 . S
H667 C681 0.931 . S
H668 C683 0.930 . S
C669 H657 0.930 . S
C669 C670 1.399 . S
C669 C674 1.399 . S
C670 C669 1.399 . S
C670 C671 1.376 . S
C671 H658 0.930 . S
C671 C670 1.376 . S
C671 C672 1.388 . S
C672 H659 0.930 . S
C672 C671 1.388 . S
C672 C673 1.390 . S
C673 C672 1.390 . S
C673 C674 1.394 . S
C673 C679 1.465 . S
C674 C669 1.399 . S
C674 C673 1.394 . S
C674 C675 1.516 . S
C675 C674 1.516 . S
C675 C676 1.502 . S
C675 C677 1.561 . S
C675 C678 1.526 . S
C676 H660 0.959 . S
C676 H661 0.959 . S
C676 H662 0.961 . S
C676 C675 1.502 . S
C677 H663 0.960 . S
C677 H664 0.961 . S
C677 H665 0.959 . S
C677 C675 1.561 . S
C678 C675 1.526 . S
C678 C679 1.396 . S
C678 C683 1.390 . S
C679 C673 1.465 . S
C679 C678 1.396 . S
C679 C680 1.399 . S
C680 H666 0.929 . S
C680 C679 1.399 . S
C680 C681 1.385 . S
C681 H667 0.931 . S
C681 C680 1.385 . S
C681 C682 1.389 . S
C682 C681 1.389 . S
C682 C683 1.387 . S
C683 H668 0.930 . S
C683 C678 1.390 . S
C683 C682 1.387 . S
H684 C696 0.930 . S
H685 C698 0.930 . S
H686 C699 0.930 . S
H687 C703 0.959 . S
H688 C703 0.959 . S
H689 C703 0.961 . S
H690 C704 0.960 . S
H691 C704 0.961 . S
H692 C704 0.959 . S
H693 C707 0.930 1_655 S
H694 C708 0.931 . S
H695 C710 0.930 . S
C696 H684 0.930 . S
C696 C697 1.399 . S
C696 C701 1.399 . S
C697 C696 1.399 . S
C697 C698 1.376 1_455 S
C698 H685 0.930 . S
C698 C697 1.376 1_655 S
C698 C699 1.388 . S
C699 H686 0.930 . S
C699 C698 1.388 . S
C699 C700 1.390 1_655 S
C700 C699 1.390 1_455 S
C700 C701 1.394 . S
C700 C706 1.465 . S
C701 C696 1.399 . S
C701 C700 1.394 . S
C701 C702 1.516 . S
C702 C701 1.516 . S
C702 C703 1.502 . S
C702 C704 1.561 . S
C702 C705 1.526 . S
C703 H687 0.959 . S
C703 H688 0.959 . S
C703 H689 0.961 . S
C703 C702 1.502 . S
C704 H690 0.960 . S
C704 H691 0.961 . S
C704 H692 0.959 . S
C704 C702 1.561 . S
C705 C702 1.526 . S
C705 C706 1.396 . S
C705 C710 1.390 . S
C706 C700 1.465 . S
C706 C705 1.396 . S
C706 C707 1.398 . S
C707 H693 0.930 1_455 S
C707 C706 1.398 . S
C707 C708 1.385 . S
C708 H694 0.931 . S
C708 C707 1.385 . S
C708 C709 1.389 . S
C709 C708 1.389 . S
C709 C710 1.387 . S
C710 H695 0.930 . S
C710 C705 1.390 . S
C710 C709 1.387 . S
H711 C723 0.930 . S
H712 C725 0.930 . S
H713 C726 0.930 . S
H714 C730 0.959 . S
H715 C730 0.959 . S
H716 C730 0.961 . S
H717 C731 0.960 . S
H718 C731 0.961 . S
H719 C731 0.959 . S
H720 C734 0.929 . S
H721 C735 0.931 . S
H722 C737 0.930 . S
C723 H711 0.930 . S
C723 C724 1.399 . S
C723 C728 1.399 . S
C724 C723 1.399 . S
C724 C725 1.376 . S
C725 H712 0.930 . S
C725 C724 1.376 . S
C725 C726 1.388 . S
C726 H713 0.930 . S
C726 C725 1.388 . S
C726 C727 1.390 . S
C727 C726 1.390 . S
C727 C728 1.394 . S
C727 C733 1.465 . S
C728 C723 1.399 . S
C728 C727 1.394 . S
C728 C729 1.516 . S
C729 C728 1.516 . S
C729 C730 1.502 . S
C729 C731 1.561 . S
C729 C732 1.526 . S
C730 H714 0.959 . S
C730 H715 0.959 . S
C730 H716 0.961 . S
C730 C729 1.502 . S
C731 H717 0.960 . S
C731 H718 0.961 . S
C731 H719 0.959 . S
C731 C729 1.561 . S
C732 C729 1.526 . S
C732 C733 1.396 . S
C732 C737 1.390 . S
C733 C727 1.465 . S
C733 C732 1.396 . S
C733 C734 1.399 . S
C734 H720 0.929 . S
C734 C733 1.399 . S
C734 C735 1.385 . S
C735 H721 0.931 . S
C735 C734 1.385 . S
C735 C736 1.389 . S
C736 C735 1.389 . S
C736 C737 1.387 . S
C737 H722 0.930 . S
C737 C732 1.390 . S
C737 C736 1.387 . S
H738 C750 0.930 . S
H739 C752 0.930 . S
H740 C753 0.930 . S
H741 C757 0.959 . S
H742 C757 0.959 . S
H743 C757 0.961 . S
H744 C758 0.960 . S
H745 C758 0.961 . S
H746 C758 0.959 . S
H747 C761 0.929 . S
H748 C762 0.931 . S
H749 C764 0.930 . S
C750 H738 0.930 . S
C750 C751 1.399 . S
C750 C755 1.399 . S
C751 C750 1.399 . S
C751 C752 1.376 . S
C752 H739 0.930 . S
C752 C751 1.376 . S
C752 C753 1.388 . S
C753 H740 0.930 . S
C753 C752 1.388 . S
C753 C754 1.390 . S
C754 C753 1.390 . S
C754 C755 1.394 . S
C754 C760 1.465 . S
C755 C750 1.399 . S
C755 C754 1.394 . S
C755 C756 1.516 . S
C756 C755 1.516 . S
C756 C757 1.502 . S
C756 C758 1.561 . S
C756 C759 1.526 . S
C757 H741 0.959 . S
C757 H742 0.959 . S
C757 H743 0.961 . S
C757 C756 1.502 . S
C758 H744 0.960 . S
C758 H745 0.961 . S
C758 H746 0.959 . S
C758 C756 1.561 . S
C759 C756 1.526 . S
C759 C760 1.396 . S
C759 C764 1.390 . S
C760 C754 1.465 . S
C760 C759 1.396 . S
C760 C761 1.399 . S
C761 H747 0.929 . S
C761 C760 1.399 . S
C761 C762 1.385 . S
C762 H748 0.931 . S
C762 C761 1.385 . S
C762 C763 1.389 . S
C763 C762 1.389 . S
C763 C764 1.387 . S
C764 H749 0.930 . S
C764 C759 1.390 . S
C764 C763 1.387 . S
H765 C777 0.930 . S
H766 C779 0.930 . S
H767 C780 0.930 . S
H768 C784 0.959 . S
H769 C784 0.959 . S
H770 C784 0.961 . S
H771 C785 0.960 . S
H772 C785 0.961 . S
H773 C785 0.959 . S
H774 C788 0.929 . S
H775 C789 0.931 . S
H776 C791 0.930 . S
C777 H765 0.930 . S
C777 C778 1.399 . S
C777 C782 1.399 . S
C778 C777 1.399 . S
C778 C779 1.376 . S
C779 H766 0.930 . S
C779 C778 1.376 . S
C779 C780 1.388 . S
C780 H767 0.930 . S
C780 C779 1.388 . S
C780 C781 1.390 . S
C781 C780 1.390 . S
C781 C782 1.394 . S
C781 C787 1.465 . S
C782 C777 1.399 . S
C782 C781 1.394 . S
C782 C783 1.516 . S
C783 C782 1.516 . S
C783 C784 1.502 . S
C783 C785 1.561 . S
C783 C786 1.526 1_455 S
C784 H768 0.959 . S
C784 H769 0.959 . S
C784 H770 0.961 . S
C784 C783 1.502 . S
C785 H771 0.960 . S
C785 H772 0.961 . S
C785 H773 0.959 . S
C785 C783 1.561 . S
C786 C783 1.526 1_655 S
C786 C787 1.396 1_655 S
C786 C791 1.390 . S
C787 C781 1.465 . S
C787 C786 1.396 1_455 S
C787 C788 1.399 1_455 S
C788 H774 0.929 . S
C788 C787 1.399 1_655 S
C788 C789 1.385 . S
C789 H775 0.931 . S
C789 C788 1.385 . S
C789 C790 1.389 . S
C790 C789 1.389 . S
C790 C791 1.387 . S
C791 H776 0.930 . S
C791 C786 1.390 . S
C791 C790 1.387 . S
H792 C804 0.930 . S
H793 C806 0.930 . S
H794 C807 0.930 . S
H795 C811 0.959 . S
H796 C811 0.959 . S
H797 C811 0.961 . S
H798 C812 0.960 . S
H799 C812 0.961 . S
H800 C812 0.959 . S
H801 C815 0.929 . S
H802 C816 0.931 . S
H803 C818 0.930 . S
C804 H792 0.930 . S
C804 C805 1.399 . S
C804 C809 1.399 . S
C805 C804 1.399 . S
C805 C806 1.376 1_565 S
C806 H793 0.930 . S
C806 C805 1.376 1_545 S
C806 C807 1.388 . S
C807 H794 0.930 . S
C807 C806 1.388 . S
C807 C808 1.390 . S
C808 C807 1.390 . S
C808 C809 1.394 1_545 S
C808 C814 1.465 . S
C809 C804 1.399 . S
C809 C808 1.394 1_565 S
C809 C810 1.516 . S
C810 C809 1.516 . S
C810 C811 1.502 1_455 S
C810 C812 1.561 . S
C810 C813 1.526 . S
C811 H795 0.959 . S
C811 H796 0.959 . S
C811 H797 0.961 . S
C811 C810 1.502 1_655 S
C812 H798 0.960 . S
C812 H799 0.961 . S
C812 H800 0.959 . S
C812 C810 1.561 . S
C813 C810 1.526 . S
C813 C814 1.396 1_565 S
C813 C818 1.390 . S
C814 C808 1.465 . S
C814 C813 1.396 1_545 S
C814 C815 1.399 . S
C815 H801 0.929 . S
C815 C814 1.399 . S
C815 C816 1.385 . S
C816 H802 0.931 . S
C816 C815 1.385 . S
C816 C817 1.389 . S
C817 C816 1.389 . S
C817 C818 1.387 1_545 S
C818 H803 0.930 . S
C818 C813 1.390 . S
C818 C817 1.387 1_565 S
H819 C831 0.930 . S
H820 C833 0.930 . S
H821 C834 0.930 . S
H822 C838 0.959 . S
H823 C838 0.959 . S
H824 C838 0.961 . S
H825 C839 0.960 . S
H826 C839 0.961 . S
H827 C839 0.959 . S
H828 C842 0.929 . S
H829 C843 0.931 . S
H830 C845 0.930 . S
C831 H819 0.930 . S
C831 C832 1.399 . S
C831 C836 1.399 . S
C832 C831 1.399 . S
C832 C833 1.376 . S
C833 H820 0.930 . S
C833 C832 1.376 . S
C833 C834 1.388 . S
C834 H821 0.930 . S
C834 C833 1.388 . S
C834 C835 1.390 . S
C835 C834 1.390 . S
C835 C836 1.394 . S
C835 C841 1.465 . S
C836 C831 1.399 . S
C836 C835 1.394 . S
C836 C837 1.516 . S
C837 C836 1.516 . S
C837 C838 1.502 . S
C837 C839 1.561 . S
C837 C840 1.526 . S
C838 H822 0.959 . S
C838 H823 0.959 . S
C838 H824 0.961 . S
C838 C837 1.502 . S
C839 H825 0.960 . S
C839 H826 0.961 . S
C839 H827 0.959 . S
C839 C837 1.561 . S
C840 C837 1.526 . S
C840 C841 1.396 . S
C840 C845 1.390 . S
C841 C835 1.465 . S
C841 C840 1.396 . S
C841 C842 1.399 . S
C842 H828 0.929 . S
C842 C841 1.399 . S
C842 C843 1.385 . S
C843 H829 0.931 . S
C843 C842 1.385 . S
C843 C844 1.389 . S
C844 C843 1.389 . S
C844 C845 1.387 . S
C845 H830 0.930 . S
C845 C840 1.390 . S
C845 C844 1.387 . S
H846 C858 0.930 . S
H847 C860 0.930 . S
H848 C861 0.930 . S
H849 C865 0.959 . S
H850 C865 0.959 1_556 S
H851 C865 0.961 . S
H852 C866 0.960 . S
H853 C866 0.961 1_556 S
H854 C866 0.959 . S
H855 C869 0.929 . S
H856 C870 0.931 . S
H857 C872 0.930 . S
C858 H846 0.930 . S
C858 C859 1.399 1_545 S
C858 C863 1.399 . S
C859 C858 1.399 1_565 S
C859 C860 1.376 . S
C860 H847 0.930 . S
C860 C859 1.376 . S
C860 C861 1.388 . S
C861 H848 0.930 . S
C861 C860 1.388 . S
C861 C862 1.390 . S
C862 C861 1.390 . S
C862 C863 1.394 1_565 S
C862 C868 1.465 1_554 S
C863 C858 1.399 . S
C863 C862 1.394 1_545 S
C863 C864 1.516 . S
C864 C863 1.516 . S
C864 C865 1.502 . S
C864 C866 1.561 . S
C864 C867 1.526 1_554 S
C865 H849 0.959 . S
C865 H850 0.959 1_554 S
C865 H851 0.961 . S
C865 C864 1.502 . S
C866 H852 0.960 . S
C866 H853 0.961 1_554 S
C866 H854 0.959 . S
C866 C864 1.561 . S
C867 C864 1.526 1_556 S
C867 C868 1.396 1_545 S
C867 C872 1.390 . S
C868 C862 1.465 1_556 S
C868 C867 1.396 1_565 S
C868 C869 1.399 . S
C869 H855 0.929 . S
C869 C868 1.399 . S
C869 C870 1.385 . S
C870 H856 0.931 . S
C870 C869 1.385 . S
C870 C871 1.389 1_565 S
C871 C870 1.389 1_545 S
C871 C872 1.387 . S
C872 H857 0.930 . S
C872 C867 1.390 . S
C872 C871 1.387 . S
H873 C885 0.930 . S
H874 C887 0.930 . S
H875 C888 0.930 . S
H876 C892 0.959 . S
H877 C892 0.959 . S
H878 C892 0.961 . S
H879 C893 0.960 . S
H880 C893 0.961 . S
H881 C893 0.959 . S
H882 C896 0.929 . S
H883 C897 0.931 . S
H884 C899 0.930 . S
C885 H873 0.930 . S
C885 C886 1.399 . S
C885 C890 1.399 . S
C886 C885 1.399 . S
C886 C887 1.376 . S
C887 H874 0.930 . S
C887 C886 1.376 . S
C887 C888 1.388 . S
C888 H875 0.930 . S
C888 C887 1.388 . S
C888 C889 1.390 . S
C889 C888 1.390 . S
C889 C890 1.394 . S
C889 C895 1.465 . S
C890 C885 1.399 . S
C890 C889 1.394 . S
C890 C891 1.516 . S
C891 C890 1.516 . S
C891 C892 1.502 . S
C891 C893 1.561 . S
C891 C894 1.526 . S
C892 H876 0.959 . S
C892 H877 0.959 . S
C892 H878 0.961 . S
C892 C891 1.502 . S
C893 H879 0.960 . S
C893 H880 0.961 . S
C893 H881 0.959 . S
C893 C891 1.561 . S
C894 C891 1.526 . S
C894 C895 1.396 . S
C894 C899 1.390 . S
C895 C889 1.465 . S
C895 C894 1.396 . S
C895 C896 1.399 . S
C896 H882 0.929 . S
C896 C895 1.399 . S
C896 C897 1.385 . S
C897 H883 0.931 . S
C897 C896 1.385 . S
C897 C898 1.389 . S
C898 C897 1.389 . S
C898 C899 1.387 . S
C899 H884 0.930 . S
C899 C894 1.390 . S
C899 C898 1.387 . S
H900 C912 0.930 . S
H901 C914 0.930 . S
H902 C915 0.930 . S
H903 C919 0.959 . S
H904 C919 0.959 . S
H905 C919 0.961 . S
H906 C920 0.960 . S
H907 C920 0.961 . S
H908 C920 0.959 . S
H909 C923 0.929 . S
H910 C924 0.931 . S
H911 C926 0.930 . S
C912 H900 0.930 . S
C912 C913 1.399 . S
C912 C917 1.399 . S
C913 C912 1.399 . S
C913 C914 1.376 . S
C914 H901 0.930 . S
C914 C913 1.376 . S
C914 C915 1.388 . S
C915 H902 0.930 . S
C915 C914 1.388 . S
C915 C916 1.390 . S
C916 C915 1.390 . S
C916 C917 1.394 . S
C916 C922 1.465 . S
C917 C912 1.399 . S
C917 C916 1.394 . S
C917 C918 1.516 . S
C918 C917 1.516 . S
C918 C919 1.502 . S
C918 C920 1.561 . S
C918 C921 1.526 . S
C919 H903 0.959 . S
C919 H904 0.959 . S
C919 H905 0.961 . S
C919 C918 1.502 . S
C920 H906 0.960 . S
C920 H907 0.961 . S
C920 H908 0.959 . S
C920 C918 1.561 . S
C921 C918 1.526 . S
C921 C922 1.396 . S
C921 C926 1.390 . S
C922 C916 1.465 . S
C922 C921 1.396 . S
C922 C923 1.399 . S
C923 H909 0.929 . S
C923 C922 1.399 . S
C923 C924 1.385 . S
C924 H910 0.931 . S
C924 C923 1.385 . S
C924 C925 1.389 . S
C925 C924 1.389 . S
C925 C926 1.387 . S
C926 H911 0.930 . S
C926 C921 1.390 . S
C926 C925 1.387 . S
H927 C939 0.930 . S
H928 C941 0.930 . S
H929 C942 0.930 . S
H930 C946 0.959 . S
H931 C946 0.959 . S
H932 C946 0.961 . S
H933 C947 0.960 . S
H934 C947 0.961 . S
H935 C947 0.959 . S
H936 C950 0.929 . S
H937 C951 0.931 . S
H938 C953 0.930 . S
C939 H927 0.930 . S
C939 C940 1.399 . S
C939 C944 1.399 . S
C940 C939 1.399 . S
C940 C941 1.376 . S
C941 H928 0.930 . S
C941 C940 1.376 . S
C941 C942 1.388 . S
C942 H929 0.930 . S
C942 C941 1.388 . S
C942 C943 1.390 . S
C943 C942 1.390 . S
C943 C944 1.394 . S
C943 C949 1.465 . S
C944 C939 1.399 . S
C944 C943 1.394 . S
C944 C945 1.516 . S
C945 C944 1.516 . S
C945 C946 1.502 . S
C945 C947 1.561 . S
C945 C948 1.526 . S
C946 H930 0.959 . S
C946 H931 0.959 . S
C946 H932 0.961 . S
C946 C945 1.502 . S
C947 H933 0.960 . S
C947 H934 0.961 . S
C947 H935 0.959 . S
C947 C945 1.561 . S
C948 C945 1.526 . S
C948 C949 1.396 . S
C948 C953 1.390 . S
C949 C943 1.465 . S
C949 C948 1.396 . S
C949 C950 1.399 . S
C950 H936 0.929 . S
C950 C949 1.399 . S
C950 C951 1.385 . S
C951 H937 0.931 . S
C951 C950 1.385 . S
C951 C952 1.389 . S
C952 C951 1.389 . S
C952 C953 1.387 . S
C953 H938 0.930 . S
C953 C948 1.390 . S
C953 C952 1.387 . S
H954 C966 0.930 . S
H955 C968 0.930 . S
H956 C969 0.930 . S
H957 C973 0.980 . S
H958 C973 1.015 . S
H959 C973 0.898 1_556 S
H960 C974 0.960 . S
H961 C974 0.961 1_554 S
H962 C974 0.959 . S
H963 C977 0.929 . S
H964 C978 0.931 . S
H965 C980 0.930 . S
C966 H954 0.930 . S
C966 C967 1.399 . S
C966 C971 1.399 . S
C967 C966 1.399 . S
C967 C968 1.376 . S
C968 H955 0.930 . S
C968 C967 1.376 . S
C968 C969 1.388 . S
C969 H956 0.930 . S
C969 C968 1.388 . S
C969 C970 1.390 . S
C970 C969 1.390 . S
C970 C971 1.394 . S
C970 C976 1.465 1_556 S
C971 C966 1.399 . S
C971 C970 1.394 . S
C971 C972 1.569 . S
C972 C971 1.569 . S
C972 C973 1.493 1_556 S
C972 C974 1.574 . S
C972 C975 1.471 1_556 S
C973 H957 0.980 . S
C973 H958 1.015 . S
C973 H959 0.898 1_554 S
C973 C972 1.493 1_554 S
C974 H960 0.960 . S
C974 H961 0.961 1_556 S
C974 H962 0.959 . S
C974 C972 1.574 . S
C975 C972 1.471 1_554 S
C975 C976 1.396 . S
C975 C980 1.390 . S
C976 C970 1.465 1_554 S
C976 C975 1.396 . S
C976 C977 1.399 . S
C977 H963 0.929 . S
C977 C976 1.399 . S
C977 C978 1.385 . S
C978 H964 0.931 . S
C978 C977 1.385 . S
C978 C979 1.389 . S
C979 C978 1.389 . S
C979 C980 1.387 . S
C980 H965 0.930 . S
C980 C975 1.390 . S
C980 C979 1.387 . S
H981 C993 0.930 . S
H982 C995 0.930 . S
H983 C996 0.930 . S
H984 C1000 0.959 . S
H985 C1000 0.959 . S
H986 C1000 0.961 . S
H987 C1001 0.960 . S
H988 C1001 0.961 . S
H989 C1001 0.959 . S
H990 C1004 0.929 . S
H991 C1005 0.931 . S
H992 C1007 0.930 . S
C993 H981 0.930 . S
C993 C994 1.399 . S
C993 C998 1.399 . S
C994 C993 1.399 . S
C994 C995 1.376 1_455 S
C995 H982 0.930 . S
C995 C994 1.376 1_655 S
C995 C996 1.388 . S
C996 H983 0.930 . S
C996 C995 1.388 . S
C996 C997 1.390 1_655 S
C997 C996 1.390 1_455 S
C997 C998 1.394 . S
C997 C1003 1.465 . S
C998 C993 1.399 . S
C998 C997 1.394 . S
C998 C999 1.516 . S
C999 C998 1.516 . S
C999 C1000 1.502 . S
C999 C1001 1.561 . S
C999 C1002 1.526 . S
C1000 H984 0.959 . S
C1000 H985 0.959 . S
C1000 H986 0.961 . S
C1000 C999 1.502 . S
C1001 H987 0.960 . S
C1001 H988 0.961 . S
C1001 H989 0.959 . S
C1001 C999 1.561 . S
C1002 C999 1.526 . S
C1002 C1003 1.396 . S
C1002 C1007 1.390 . S
C1003 C997 1.465 . S
C1003 C1002 1.396 . S
C1003 C1004 1.399 1_455 S
C1004 H990 0.929 . S
C1004 C1003 1.399 1_655 S
C1004 C1005 1.385 . S
C1005 H991 0.931 . S
C1005 C1004 1.385 . S
C1005 C1006 1.389 1_655 S
C1006 C1005 1.389 1_455 S
C1006 C1007 1.387 . S
C1007 H992 0.930 . S
C1007 C1002 1.390 . S
C1007 C1006 1.387 . S
H1008 C1020 0.930 . S
H1009 C1022 0.930 . S
H1010 C1023 0.930 . S
H1011 C1027 0.959 . S
H1012 C1027 0.959 . S
H1013 C1027 0.961 . S
H1014 C1028 0.960 . S
H1015 C1028 0.961 . S
H1016 C1028 0.959 . S
H1017 C1031 0.929 . S
H1018 C1032 0.931 . S
H1019 C1034 0.930 . S
C1020 H1008 0.930 . S
C1020 C1021 1.399 . S
C1020 C1025 1.399 . S
C1021 C1020 1.399 . S
C1021 C1022 1.376 . S
C1022 H1009 0.930 . S
C1022 C1021 1.376 . S
C1022 C1023 1.388 . S
C1023 H1010 0.930 . S
C1023 C1022 1.388 . S
C1023 C1024 1.390 . S
C1024 C1023 1.390 . S
C1024 C1025 1.394 . S
C1024 C1030 1.465 . S
C1025 C1020 1.399 . S
C1025 C1024 1.394 . S
C1025 C1026 1.516 . S
C1026 C1025 1.516 . S
C1026 C1027 1.502 . S
C1026 C1028 1.561 . S
C1026 C1029 1.526 . S
C1027 H1011 0.959 . S
C1027 H1012 0.959 . S
C1027 H1013 0.961 . S
C1027 C1026 1.502 . S
C1028 H1014 0.960 . S
C1028 H1015 0.961 . S
C1028 H1016 0.959 . S
C1028 C1026 1.561 . S
C1029 C1026 1.526 . S
C1029 C1030 1.396 . S
C1029 C1034 1.390 . S
C1030 C1024 1.465 . S
C1030 C1029 1.396 . S
C1030 C1031 1.399 . S
C1031 H1017 0.929 . S
C1031 C1030 1.399 . S
C1031 C1032 1.385 . S
C1032 H1018 0.931 . S
C1032 C1031 1.385 . S
C1032 C1033 1.389 . S
C1033 C1032 1.389 . S
C1033 C1034 1.387 . S
C1034 H1019 0.930 . S
C1034 C1029 1.390 . S
C1034 C1033 1.387 . S
H1035 C1047 0.930 . S
H1036 C1049 0.930 . S
H1037 C1050 0.930 . S
H1038 C1054 0.959 . S
H1039 C1054 0.959 . S
H1040 C1054 0.961 . S
H1041 C1055 0.960 . S
H1042 C1055 0.961 . S
H1043 C1055 0.959 . S
H1044 C1058 0.929 . S
H1045 C1059 0.931 1_545 S
H1046 C1061 0.930 . S
C1047 H1035 0.930 . S
C1047 C1048 1.399 . S
C1047 C1052 1.399 . S
C1048 C1047 1.399 . S
C1048 C1049 1.376 . S
C1049 H1036 0.930 . S
C1049 C1048 1.376 . S
C1049 C1050 1.388 . S
C1050 H1037 0.930 . S
C1050 C1049 1.388 . S
C1050 C1051 1.390 . S
C1051 C1050 1.390 . S
C1051 C1052 1.394 . S
C1051 C1057 1.465 . S
C1052 C1047 1.399 . S
C1052 C1051 1.394 . S
C1052 C1053 1.516 . S
C1053 C1052 1.516 . S
C1053 C1054 1.502 . S
C1053 C1055 1.561 . S
C1053 C1056 1.526 . S
C1054 H1038 0.959 . S
C1054 H1039 0.959 . S
C1054 H1040 0.961 . S
C1054 C1053 1.502 . S
C1055 H1041 0.960 . S
C1055 H1042 0.961 . S
C1055 H1043 0.959 . S
C1055 C1053 1.561 . S
C1056 C1053 1.526 . S
C1056 C1057 1.396 . S
C1056 C1061 1.390 . S
C1057 C1051 1.465 . S
C1057 C1056 1.396 . S
C1057 C1058 1.399 . S
C1058 H1044 0.929 . S
C1058 C1057 1.399 . S
C1058 C1059 1.385 . S
C1059 H1045 0.931 1_565 S
C1059 C1058 1.385 . S
C1059 C1060 1.389 . S
C1060 C1059 1.389 . S
C1060 C1061 1.387 . S
C1061 H1046 0.930 . S
C1061 C1056 1.390 . S
C1061 C1060 1.387 . S
H1062 C1074 0.930 . S
H1063 C1076 0.930 . S
H1064 C1077 0.930 . S
H1065 C1081 0.959 . S
H1066 C1081 0.959 . S
H1067 C1081 0.961 . S
H1068 C1082 0.960 . S
H1069 C1082 0.961 . S
H1070 C1082 0.959 . S
H1071 C1085 0.929 . S
H1072 C1086 0.931 . S
H1073 C1088 0.930 . S
C1074 H1062 0.930 . S
C1074 C1075 1.399 . S
C1074 C1079 1.399 . S
C1075 C1074 1.399 . S
C1075 C1076 1.376 . S
C1076 H1063 0.930 . S
C1076 C1075 1.376 . S
C1076 C1077 1.388 . S
C1077 H1064 0.930 . S
C1077 C1076 1.388 . S
C1077 C1078 1.390 . S
C1078 C1077 1.390 . S
C1078 C1079 1.394 . S
C1078 C1084 1.465 . S
C1079 C1074 1.399 . S
C1079 C1078 1.394 . S
C1079 C1080 1.516 . S
C1080 C1079 1.516 . S
C1080 C1081 1.502 . S
C1080 C1082 1.561 . S
C1080 C1083 1.526 . S
C1081 H1065 0.959 . S
C1081 H1066 0.959 . S
C1081 H1067 0.961 . S
C1081 C1080 1.502 . S
C1082 H1068 0.960 . S
C1082 H1069 0.961 . S
C1082 H1070 0.959 . S
C1082 C1080 1.561 . S
C1083 C1080 1.526 . S
C1083 C1084 1.396 . S
C1083 C1088 1.390 . S
C1084 C1078 1.465 . S
C1084 C1083 1.396 . S
C1084 C1085 1.399 . S
C1085 H1071 0.929 . S
C1085 C1084 1.399 . S
C1085 C1086 1.385 . S
C1086 H1072 0.931 . S
C1086 C1085 1.385 . S
C1086 C1087 1.389 . S
C1087 C1086 1.389 . S
C1087 C1088 1.387 . S
C1088 H1073 0.930 . S
C1088 C1083 1.390 . S
C1088 C1087 1.387 . S
H1089 C1101 0.930 . S
H1090 C1103 0.930 . S
H1091 C1104 0.930 . S
H1092 C1108 0.959 . S
H1093 C1108 0.959 . S
H1094 C1108 0.961 . S
H1095 C1109 0.960 . S
H1096 C1109 0.961 . S
H1097 C1109 0.959 . S
H1098 C1112 0.929 . S
H1099 C1113 0.931 . S
H1100 C1115 0.930 . S
C1101 H1089 0.930 . S
C1101 C1102 1.399 . S
C1101 C1106 1.399 . S
C1102 C1101 1.399 . S
C1102 C1103 1.376 . S
C1103 H1090 0.930 . S
C1103 C1102 1.376 . S
C1103 C1104 1.388 . S
C1104 H1091 0.930 . S
C1104 C1103 1.388 . S
C1104 C1105 1.390 . S
C1105 C1104 1.390 . S
C1105 C1106 1.394 . S
C1105 C1111 1.465 . S
C1106 C1101 1.399 . S
C1106 C1105 1.394 . S
C1106 C1107 1.516 . S
C1107 C1106 1.516 . S
C1107 C1108 1.502 . S
C1107 C1109 1.561 . S
C1107 C1110 1.526 . S
C1108 H1092 0.959 . S
C1108 H1093 0.959 . S
C1108 H1094 0.961 . S
C1108 C1107 1.502 . S
C1109 H1095 0.960 . S
C1109 H1096 0.961 . S
C1109 H1097 0.959 . S
C1109 C1107 1.561 . S
C1110 C1107 1.526 . S
C1110 C1111 1.396 . S
C1110 C1115 1.390 . S
C1111 C1105 1.465 . S
C1111 C1110 1.396 . S
C1111 C1112 1.399 . S
C1112 H1098 0.929 . S
C1112 C1111 1.399 . S
C1112 C1113 1.385 . S
C1113 H1099 0.931 . S
C1113 C1112 1.385 . S
C1113 C1114 1.389 . S
C1114 C1113 1.389 . S
C1114 C1115 1.387 . S
C1115 H1100 0.930 . S
C1115 C1110 1.390 . S
C1115 C1114 1.387 . S
H1116 C1128 0.930 . S
H1117 C1130 0.930 . S
H1118 C1131 0.930 . S
H1119 C1135 0.959 . S
H1120 C1135 0.959 . S
H1121 C1135 0.961 . S
H1122 C1136 0.960 . S
H1123 C1136 0.961 . S
H1124 C1136 0.959 . S
H1125 C1139 0.929 . S
H1126 C1140 0.931 . S
H1127 C1142 0.930 . S
C1128 H1116 0.930 . S
C1128 C1129 1.399 . S
C1128 C1133 1.399 . S
C1129 C1128 1.399 . S
C1129 C1130 1.376 . S
C1130 H1117 0.930 . S
C1130 C1129 1.376 . S
C1130 C1131 1.388 . S
C1131 H1118 0.930 . S
C1131 C1130 1.388 . S
C1131 C1132 1.390 . S
C1132 C1131 1.390 . S
C1132 C1133 1.394 . S
C1132 C1138 1.465 . S
C1133 C1128 1.399 . S
C1133 C1132 1.394 . S
C1133 C1134 1.516 . S
C1134 C1133 1.516 . S
C1134 C1135 1.502 . S
C1134 C1136 1.561 . S
C1134 C1137 1.526 . S
C1135 H1119 0.959 . S
C1135 H1120 0.959 . S
C1135 H1121 0.961 . S
C1135 C1134 1.502 . S
C1136 H1122 0.960 . S
C1136 H1123 0.961 . S
C1136 H1124 0.959 . S
C1136 C1134 1.561 . S
C1137 C1134 1.526 . S
C1137 C1138 1.396 . S
C1137 C1142 1.390 . S
C1138 C1132 1.465 . S
C1138 C1137 1.396 . S
C1138 C1139 1.399 . S
C1139 H1125 0.929 . S
C1139 C1138 1.399 . S
C1139 C1140 1.385 . S
C1140 H1126 0.931 . S
C1140 C1139 1.385 . S
C1140 C1141 1.389 . S
C1141 C1140 1.389 . S
C1141 C1142 1.387 . S
C1142 H1127 0.930 . S
C1142 C1137 1.390 . S
C1142 C1141 1.387 . S
H1143 C1155 0.930 . S
H1144 C1157 0.930 . S
H1145 C1158 0.930 . S
H1146 C1162 0.959 . S
H1147 C1162 0.959 . S
H1148 C1162 0.961 . S
H1149 C1163 0.960 . S
H1150 C1163 0.961 . S
H1151 C1163 0.959 . S
H1152 C1166 0.929 . S
H1153 C1167 0.931 . S
H1154 C1169 0.930 . S
C1155 H1143 0.930 . S
C1155 C1156 1.399 . S
C1155 C1160 1.399 . S
C1156 C1155 1.399 . S
C1156 C1157 1.376 . S
C1157 H1144 0.930 . S
C1157 C1156 1.376 . S
C1157 C1158 1.388 . S
C1158 H1145 0.930 . S
C1158 C1157 1.388 . S
C1158 C1159 1.390 . S
C1159 C1158 1.390 . S
C1159 C1160 1.394 . S
C1159 C1165 1.465 . S
C1160 C1155 1.399 . S
C1160 C1159 1.394 . S
C1160 C1161 1.516 . S
C1161 C1160 1.516 . S
C1161 C1162 1.502 . S
C1161 C1163 1.561 . S
C1161 C1164 1.526 . S
C1162 H1146 0.959 . S
C1162 H1147 0.959 . S
C1162 H1148 0.961 . S
C1162 C1161 1.502 . S
C1163 H1149 0.960 . S
C1163 H1150 0.961 . S
C1163 H1151 0.959 . S
C1163 C1161 1.561 . S
C1164 C1161 1.526 . S
C1164 C1165 1.396 . S
C1164 C1169 1.390 . S
C1165 C1159 1.465 . S
C1165 C1164 1.396 . S
C1165 C1166 1.399 . S
C1166 H1152 0.929 . S
C1166 C1165 1.399 . S
C1166 C1167 1.385 . S
C1167 H1153 0.931 . S
C1167 C1166 1.385 . S
C1167 C1168 1.389 . S
C1168 C1167 1.389 . S
C1168 C1169 1.387 . S
C1169 H1154 0.930 . S
C1169 C1164 1.390 . S
C1169 C1168 1.387 . S
H1170 C1182 0.930 . S
H1171 C1184 0.930 . S
H1172 C1185 0.930 . S
H1173 C1189 0.959 . S
H1174 C1189 0.959 . S
H1175 C1189 0.961 . S
H1176 C1190 0.960 . S
H1177 C1190 0.961 . S
H1178 C1190 0.959 . S
H1179 C1193 0.929 . S
H1180 C1194 0.931 . S
H1181 C1196 0.930 . S
C1182 H1170 0.930 . S
C1182 C1183 1.399 . S
C1182 C1187 1.399 . S
C1183 C1182 1.399 . S
C1183 C1184 1.376 . S
C1184 H1171 0.930 . S
C1184 C1183 1.376 . S
C1184 C1185 1.388 . S
C1185 H1172 0.930 . S
C1185 C1184 1.388 . S
C1185 C1186 1.390 . S
C1186 C1185 1.390 . S
C1186 C1187 1.394 . S
C1186 C1192 1.465 . S
C1187 C1182 1.399 . S
C1187 C1186 1.394 . S
C1187 C1188 1.516 . S
C1188 C1187 1.516 . S
C1188 C1189 1.502 . S
C1188 C1190 1.561 . S
C1188 C1191 1.526 . S
C1189 H1173 0.959 . S
C1189 H1174 0.959 . S
C1189 H1175 0.961 . S
C1189 C1188 1.502 . S
C1190 H1176 0.960 . S
C1190 H1177 0.961 . S
C1190 H1178 0.959 . S
C1190 C1188 1.561 . S
C1191 C1188 1.526 . S
C1191 C1192 1.396 . S
C1191 C1196 1.390 . S
C1192 C1186 1.465 . S
C1192 C1191 1.396 . S
C1192 C1193 1.399 . S
C1193 H1179 0.929 . S
C1193 C1192 1.399 . S
C1193 C1194 1.385 . S
C1194 H1180 0.931 . S
C1194 C1193 1.385 . S
C1194 C1195 1.389 . S
C1195 C1194 1.389 . S
C1195 C1196 1.387 . S
C1196 H1181 0.930 . S
C1196 C1191 1.390 . S
C1196 C1195 1.387 . S
H1197 C1209 0.930 . S
H1198 C1211 0.930 . S
H1199 C1212 0.930 . S
H1200 C1216 0.959 . S
H1201 C1216 0.959 . S
H1202 C1216 0.961 . S
H1203 C1217 0.960 . S
H1204 C1217 0.961 . S
H1205 C1217 0.959 . S
H1206 C1220 0.929 . S
H1207 C1221 0.931 . S
H1208 C1223 0.930 . S
C1209 H1197 0.930 . S
C1209 C1210 1.399 . S
C1209 C1214 1.399 . S
C1210 C1209 1.399 . S
C1210 C1211 1.376 . S
C1211 H1198 0.930 . S
C1211 C1210 1.376 . S
C1211 C1212 1.388 . S
C1212 H1199 0.930 . S
C1212 C1211 1.388 . S
C1212 C1213 1.390 . S
C1213 C1212 1.390 . S
C1213 C1214 1.394 . S
C1213 C1219 1.465 . S
C1214 C1209 1.399 . S
C1214 C1213 1.394 . S
C1214 C1215 1.516 . S
C1215 C1214 1.516 . S
C1215 C1216 1.502 . S
C1215 C1217 1.561 . S
C1215 C1218 1.526 . S
C1216 H1200 0.959 . S
C1216 H1201 0.959 . S
C1216 H1202 0.961 . S
C1216 C1215 1.502 . S
C1217 H1203 0.960 . S
C1217 H1204 0.961 . S
C1217 H1205 0.959 . S
C1217 C1215 1.561 . S
C1218 C1215 1.526 . S
C1218 C1219 1.396 . S
C1218 C1223 1.390 . S
C1219 C1213 1.465 . S
C1219 C1218 1.396 . S
C1219 C1220 1.399 . S
C1220 H1206 0.929 . S
C1220 C1219 1.399 . S
C1220 C1221 1.385 . S
C1221 H1207 0.931 . S
C1221 C1220 1.385 . S
C1221 C1222 1.389 . S
C1222 C1221 1.389 . S
C1222 C1223 1.387 . S
C1223 H1208 0.930 . S
C1223 C1218 1.390 . S
C1223 C1222 1.387 . S
H1224 C1236 0.930 . S
H1225 C1238 0.930 . S
H1226 C1239 0.930 . S
H1227 C1243 0.959 . S
H1228 C1243 0.959 . S
H1229 C1243 0.961 . S
H1230 C1244 0.960 . S
H1231 C1244 0.961 . S
H1232 C1244 0.959 . S
H1233 C1247 0.929 . S
H1234 C1248 0.931 . S
H1235 C1250 0.930 . S
C1236 H1224 0.930 . S
C1236 C1237 1.399 . S
C1236 C1241 1.399 . S
C1237 C1236 1.399 . S
C1237 C1238 1.376 . S
C1238 H1225 0.930 . S
C1238 C1237 1.376 . S
C1238 C1239 1.388 . S
C1239 H1226 0.930 . S
C1239 C1238 1.388 . S
C1239 C1240 1.390 . S
C1240 C1239 1.390 . S
C1240 C1241 1.394 . S
C1240 C1246 1.465 . S
C1241 C1236 1.399 . S
C1241 C1240 1.394 . S
C1241 C1242 1.516 . S
C1242 C1241 1.516 . S
C1242 C1243 1.502 . S
C1242 C1244 1.561 . S
C1242 C1245 1.526 . S
C1243 H1227 0.959 . S
C1243 H1228 0.959 . S
C1243 H1229 0.961 . S
C1243 C1242 1.502 . S
C1244 H1230 0.960 . S
C1244 H1231 0.961 . S
C1244 H1232 0.959 . S
C1244 C1242 1.561 . S
C1245 C1242 1.526 . S
C1245 C1246 1.396 . S
C1245 C1250 1.390 . S
C1246 C1240 1.465 . S
C1246 C1245 1.396 . S
C1246 C1247 1.399 . S
C1247 H1233 0.929 . S
C1247 C1246 1.399 . S
C1247 C1248 1.385 . S
C1248 H1234 0.931 . S
C1248 C1247 1.385 . S
C1248 C1249 1.389 . S
C1249 C1248 1.389 . S
C1249 C1250 1.387 . S
C1250 H1235 0.930 . S
C1250 C1245 1.390 . S
C1250 C1249 1.387 . S
H1251 C1263 0.930 . S
H1252 C1265 0.930 . S
H1253 C1266 0.930 . S
H1254 C1270 0.959 . S
H1255 C1270 0.959 . S
H1256 C1270 0.961 . S
H1257 C1271 0.960 . S
H1258 C1271 0.961 . S
H1259 C1271 0.959 . S
H1260 C1274 0.929 . S
H1261 C1275 0.931 . S
H1262 C1277 0.930 . S
C1263 H1251 0.930 . S
C1263 C1264 1.399 . S
C1263 C1268 1.399 . S
C1264 C1263 1.399 . S
C1264 C1265 1.376 . S
C1265 H1252 0.930 . S
C1265 C1264 1.376 . S
C1265 C1266 1.388 . S
C1266 H1253 0.930 . S
C1266 C1265 1.388 . S
C1266 C1267 1.390 . S
C1267 C1266 1.390 . S
C1267 C1268 1.394 . S
C1267 C1273 1.465 . S
C1268 C1263 1.399 . S
C1268 C1267 1.394 . S
C1268 C1269 1.516 . S
C1269 C1268 1.516 . S
C1269 C1270 1.502 . S
C1269 C1271 1.561 . S
C1269 C1272 1.526 . S
C1270 H1254 0.959 . S
C1270 H1255 0.959 . S
C1270 H1256 0.961 . S
C1270 C1269 1.502 . S
C1271 H1257 0.960 . S
C1271 H1258 0.961 . S
C1271 H1259 0.959 . S
C1271 C1269 1.561 . S
C1272 C1269 1.526 . S
C1272 C1273 1.396 . S
C1272 C1277 1.390 . S
C1273 C1267 1.465 . S
C1273 C1272 1.396 . S
C1273 C1274 1.399 . S
C1274 H1260 0.929 . S
C1274 C1273 1.399 . S
C1274 C1275 1.385 . S
C1275 H1261 0.931 . S
C1275 C1274 1.385 . S
C1275 C1276 1.389 . S
C1276 C1275 1.389 . S
C1276 C1277 1.387 . S
C1277 H1262 0.930 . S
C1277 C1272 1.390 . S
C1277 C1276 1.387 . S
H1278 C1290 0.930 . S
H1279 C1292 0.930 . S
H1280 C1293 0.930 . S
H1281 C1297 0.959 . S
H1282 C1297 0.959 . S
H1283 C1297 0.961 . S
H1284 C1298 0.960 . S
H1285 C1298 0.961 . S
H1286 C1298 0.959 . S
H1287 C1301 0.929 . S
H1288 C1302 0.931 . S
H1289 C1304 0.930 . S
C1290 H1278 0.930 . S
C1290 C1291 1.399 . S
C1290 C1295 1.399 . S
C1291 C1290 1.399 . S
C1291 C1292 1.376 . S
C1292 H1279 0.930 . S
C1292 C1291 1.376 . S
C1292 C1293 1.388 . S
C1293 H1280 0.930 . S
C1293 C1292 1.388 . S
C1293 C1294 1.390 . S
C1294 C1293 1.390 . S
C1294 C1295 1.394 . S
C1294 C1300 1.465 . S
C1295 C1290 1.399 . S
C1295 C1294 1.394 . S
C1295 C1296 1.516 . S
C1296 C1295 1.516 . S
C1296 C1297 1.502 . S
C1296 C1298 1.561 . S
C1296 C1299 1.526 . S
C1297 H1281 0.959 . S
C1297 H1282 0.959 . S
C1297 H1283 0.961 . S
C1297 C1296 1.502 . S
C1298 H1284 0.960 . S
C1298 H1285 0.961 . S
C1298 H1286 0.959 . S
C1298 C1296 1.561 . S
C1299 C1296 1.526 . S
C1299 C1300 1.396 . S
C1299 C1304 1.390 . S
C1300 C1294 1.465 . S
C1300 C1299 1.396 . S
C1300 C1301 1.399 . S
C1301 H1287 0.929 . S
C1301 C1300 1.399 . S
C1301 C1302 1.385 . S
C1302 H1288 0.931 . S
C1302 C1301 1.385 . S
C1302 C1303 1.389 . S
C1303 C1302 1.389 . S
C1303 C1304 1.387 . S
C1304 H1289 0.930 . S
C1304 C1299 1.390 . S
C1304 C1303 1.387 . S
H1305 C1317 0.930 . S
H1306 C1319 0.930 . S
H1307 C1320 0.930 . S
H1308 C1324 0.959 . S
H1309 C1324 0.959 . S
H1310 C1324 0.961 . S
H1311 C1325 0.960 . S
H1312 C1325 0.961 . S
H1313 C1325 0.959 . S
H1314 C1328 0.929 . S
H1315 C1329 0.931 . S
H1316 C1331 0.930 . S
C1317 H1305 0.930 . S
C1317 C1318 1.399 . S
C1317 C1322 1.399 . S
C1318 C1317 1.399 . S
C1318 C1319 1.376 . S
C1319 H1306 0.930 . S
C1319 C1318 1.376 . S
C1319 C1320 1.388 . S
C1320 H1307 0.930 . S
C1320 C1319 1.388 . S
C1320 C1321 1.390 . S
C1321 C1320 1.390 . S
C1321 C1322 1.394 . S
C1321 C1327 1.465 . S
C1322 C1317 1.399 . S
C1322 C1321 1.394 . S
C1322 C1323 1.516 . S
C1323 C1322 1.516 . S
C1323 C1324 1.502 . S
C1323 C1325 1.561 . S
C1323 C1326 1.526 . S
C1324 H1308 0.959 . S
C1324 H1309 0.959 . S
C1324 H1310 0.961 . S
C1324 C1323 1.502 . S
C1325 H1311 0.960 . S
C1325 H1312 0.961 . S
C1325 H1313 0.959 . S
C1325 C1323 1.561 . S
C1326 C1323 1.526 . S
C1326 C1327 1.396 . S
C1326 C1331 1.390 . S
C1327 C1321 1.465 . S
C1327 C1326 1.396 . S
C1327 C1328 1.399 . S
C1328 H1314 0.929 . S
C1328 C1327 1.399 . S
C1328 C1329 1.385 . S
C1329 H1315 0.931 . S
C1329 C1328 1.385 . S
C1329 C1330 1.389 . S
C1330 C1329 1.389 . S
C1330 C1331 1.387 . S
C1331 H1316 0.930 . S
C1331 C1326 1.390 . S
C1331 C1330 1.387 . S
H1332 C1344 0.930 . S
H1333 C1346 0.930 . S
H1334 C1347 0.930 . S
H1335 C1351 0.959 . S
H1336 C1351 0.959 . S
H1337 C1351 0.961 . S
H1338 C1352 0.960 . S
H1339 C1352 0.961 . S
H1340 C1352 0.959 . S
H1341 C1355 0.929 . S
H1342 C1356 0.931 . S
H1343 C1358 0.930 . S
C1344 H1332 0.930 . S
C1344 C1345 1.399 . S
C1344 C1349 1.399 . S
C1345 C1344 1.399 . S
C1345 C1346 1.376 . S
C1346 H1333 0.930 . S
C1346 C1345 1.376 . S
C1346 C1347 1.388 . S
C1347 H1334 0.930 . S
C1347 C1346 1.388 . S
C1347 C1348 1.390 . S
C1348 C1347 1.390 . S
C1348 C1349 1.394 . S
C1348 C1354 1.465 . S
C1349 C1344 1.399 . S
C1349 C1348 1.394 . S
C1349 C1350 1.516 . S
C1350 C1349 1.516 . S
C1350 C1351 1.502 . S
C1350 C1352 1.561 . S
C1350 C1353 1.526 . S
C1351 H1335 0.959 . S
C1351 H1336 0.959 . S
C1351 H1337 0.961 . S
C1351 C1350 1.502 . S
C1352 H1338 0.960 . S
C1352 H1339 0.961 . S
C1352 H1340 0.959 . S
C1352 C1350 1.561 . S
C1353 C1350 1.526 . S
C1353 C1354 1.396 . S
C1353 C1358 1.390 . S
C1354 C1348 1.465 . S
C1354 C1353 1.396 . S
C1354 C1355 1.399 . S
C1355 H1341 0.929 . S
C1355 C1354 1.399 . S
C1355 C1356 1.385 . S
C1356 H1342 0.931 . S
C1356 C1355 1.385 . S
C1356 C1357 1.389 . S
C1357 C1356 1.389 . S
C1357 C1358 1.387 . S
C1358 H1343 0.930 . S
C1358 C1353 1.390 . S
C1358 C1357 1.387 . S
H1359 C1371 0.930 . S
H1360 C1373 0.930 . S
H1361 C1374 0.930 . S
H1362 C1378 0.959 . S
H1363 C1378 0.959 . S
H1364 C1378 0.961 . S
H1365 C1379 0.960 . S
H1366 C1379 0.961 . S
H1367 C1379 0.959 . S
H1368 C1382 0.929 . S
H1369 C1383 0.931 . S
H1370 C1385 0.930 . S
C1371 H1359 0.930 . S
C1371 C1372 1.399 . S
C1371 C1376 1.399 . S
C1372 C1371 1.399 . S
C1372 C1373 1.376 . S
C1373 H1360 0.930 . S
C1373 C1372 1.376 . S
C1373 C1374 1.388 . S
C1374 H1361 0.930 . S
C1374 C1373 1.388 . S
C1374 C1375 1.390 . S
C1375 C1374 1.390 . S
C1375 C1376 1.394 . S
C1375 C1381 1.465 . S
C1376 C1371 1.399 . S
C1376 C1375 1.394 . S
C1376 C1377 1.516 . S
C1377 C1376 1.516 . S
C1377 C1378 1.502 . S
C1377 C1379 1.561 . S
C1377 C1380 1.526 . S
C1378 H1362 0.959 . S
C1378 H1363 0.959 . S
C1378 H1364 0.961 . S
C1378 C1377 1.502 . S
C1379 H1365 0.960 . S
C1379 H1366 0.961 . S
C1379 H1367 0.959 . S
C1379 C1377 1.561 . S
C1380 C1377 1.526 . S
C1380 C1381 1.396 . S
C1380 C1385 1.390 . S
C1381 C1375 1.465 . S
C1381 C1380 1.396 . S
C1381 C1382 1.399 . S
C1382 H1368 0.929 . S
C1382 C1381 1.399 . S
C1382 C1383 1.385 . S
C1383 H1369 0.931 . S
C1383 C1382 1.385 . S
C1383 C1384 1.389 . S
C1384 C1383 1.389 . S
C1384 C1385 1.387 . S
C1385 H1370 0.930 . S
C1385 C1380 1.390 . S
C1385 C1384 1.387 . S
H1386 C1398 0.930 . S
H1387 C1400 0.930 . S
H1388 C1401 0.930 . S
H1389 C1405 0.959 . S
H1390 C1405 0.959 . S
H1391 C1405 0.961 . S
H1392 C1406 0.960 . S
H1393 C1406 0.961 . S
H1394 C1406 0.959 . S
H1395 C1409 0.929 . S
H1396 C1410 0.931 . S
H1397 C1412 0.930 . S
C1398 H1386 0.930 . S
C1398 C1399 1.399 . S
C1398 C1403 1.399 . S
C1399 C1398 1.399 . S
C1399 C1400 1.376 . S
C1400 H1387 0.930 . S
C1400 C1399 1.376 . S
C1400 C1401 1.388 . S
C1401 H1388 0.930 . S
C1401 C1400 1.388 . S
C1401 C1402 1.390 . S
C1402 C1401 1.390 . S
C1402 C1403 1.394 . S
C1402 C1408 1.465 . S
C1403 C1398 1.399 . S
C1403 C1402 1.394 . S
C1403 C1404 1.516 . S
C1404 C1403 1.516 . S
C1404 C1405 1.502 . S
C1404 C1406 1.561 . S
C1404 C1407 1.526 . S
C1405 H1389 0.959 . S
C1405 H1390 0.959 . S
C1405 H1391 0.961 . S
C1405 C1404 1.502 . S
C1406 H1392 0.960 . S
C1406 H1393 0.961 . S
C1406 H1394 0.959 . S
C1406 C1404 1.561 . S
C1407 C1404 1.526 . S
C1407 C1408 1.396 . S
C1407 C1412 1.390 . S
C1408 C1402 1.465 . S
C1408 C1407 1.396 . S
C1408 C1409 1.399 . S
C1409 H1395 0.929 . S
C1409 C1408 1.399 . S
C1409 C1410 1.385 . S
C1410 H1396 0.931 . S
C1410 C1409 1.385 . S
C1410 C1411 1.389 . S
C1411 C1410 1.389 . S
C1411 C1412 1.387 . S
C1412 H1397 0.930 . S
C1412 C1407 1.390 . S
C1412 C1411 1.387 . S
H1413 C1425 0.930 . S
H1414 C1427 0.930 . S
H1415 C1428 0.930 . S
H1416 C1432 0.959 . S
H1417 C1432 0.959 . S
H1418 C1432 0.961 . S
H1419 C1433 0.960 . S
H1420 C1433 0.961 . S
H1421 C1433 0.959 . S
H1422 C1436 0.929 . S
H1423 C1437 0.931 . S
H1424 C1439 0.930 . S
C1425 H1413 0.930 . S
C1425 C1426 1.399 . S
C1425 C1430 1.399 . S
C1426 C1425 1.399 . S
C1426 C1427 1.376 . S
C1427 H1414 0.930 . S
C1427 C1426 1.376 . S
C1427 C1428 1.388 . S
C1428 H1415 0.930 . S
C1428 C1427 1.388 . S
C1428 C1429 1.390 . S
C1429 C1428 1.390 . S
C1429 C1430 1.394 . S
C1429 C1435 1.465 . S
C1430 C1425 1.399 . S
C1430 C1429 1.394 . S
C1430 C1431 1.516 . S
C1431 C1430 1.516 . S
C1431 C1432 1.502 . S
C1431 C1433 1.561 . S
C1431 C1434 1.526 . S
C1432 H1416 0.959 . S
C1432 H1417 0.959 . S
C1432 H1418 0.961 . S
C1432 C1431 1.502 . S
C1433 H1419 0.960 . S
C1433 H1420 0.961 . S
C1433 H1421 0.959 . S
C1433 C1431 1.561 . S
C1434 C1431 1.526 . S
C1434 C1435 1.396 . S
C1434 C1439 1.390 . S
C1435 C1429 1.465 . S
C1435 C1434 1.396 . S
C1435 C1436 1.399 . S
C1436 H1422 0.929 . S
C1436 C1435 1.399 . S
C1436 C1437 1.385 . S
C1437 H1423 0.931 . S
C1437 C1436 1.385 . S
C1437 C1438 1.389 . S
C1438 C1437 1.389 . S
C1438 C1439 1.387 . S
C1439 H1424 0.930 . S
C1439 C1434 1.390 . S
C1439 C1438 1.387 . S
C589 C4 1.253 1_455 S
C601 C472 1.267 . S
C616 C400 1.252 . S
C628 C40 1.265 . S
C643 C436 1.286 . S
C655 C76 1.277 . S
C670 C364 1.252 . S
C682 C112 1.262 . S
C697 C148 1.261 1_455 S
C709 C544 1.252 . S
C724 C184 1.252 . S
C736 C328 1.264 . S
C751 C508 1.253 . S
C763 C220 1.267 . S
C778 C256 1.259 . S
C790 C292 1.253 . S
C805 C158 1.587 . S
C817 C14 1.554 . S
C832 C50 1.550 . S
C844 C194 1.585 . S
C859 C86 1.522 . S
C871 C230 1.553 . S
C886 C266 1.562 . S
C898 C122 1.590 . S
C913 C302 1.546 . S
C925 C374 1.583 . S
C940 C338 1.588 . S
C952 C410 1.555 . S
C967 C518 1.527 . S
C979 C446 1.525 . S
C994 C482 1.563 . S
C1006 C554 1.590 . S
C1021 C183 1.214 . S
C1033 C3 1.228 . S
C1048 C39 1.228 . S
C1060 C219 1.215 . S
C1075 C75 1.219 . S
C1087 C255 1.212 . S
C1102 C147 1.228 . S
C1114 C111 1.215 . S
C1129 C146 1.371 1_545 S
C1141 C362 1.377 . S
C1156 C74 1.385 1_545 S
C1168 C290 1.379 . S
C1183 C398 1.376 . S
C1195 C218 1.382 1_565 S
C1210 C326 1.366 . S
C1222 C2 1.371 1_565 S
C1237 C291 1.210 . S
C1249 C435 1.227 . S
C1264 C363 1.211 . S
C1276 C543 1.228 . S
C1291 C471 1.219 . S
C1303 C327 1.212 . S
C1318 C399 1.217 . S
C1330 C507 1.213 . S
C1345 C506 1.393 . S
C1357 C38 1.387 . S
C1372 C470 1.371 . S
C1384 C182 1.367 . S
C1399 C542 1.368 . S
C1411 C110 1.365 . S
C1426 C434 1.390 . S
C1438 C254 1.385 . S
