# Generated by pormake.
# Topology uop, (4)-cn, num edge types: 1
# Building blocks:
#     Node 0, Type 0, BuildingBlock: NAWXER_clean_sbu_0, # of connection points: 4
#     Node 1, Type 0, BuildingBlock: NAWXER_clean_sbu_0, # of connection points: 4
#     Node 2, Type 0, BuildingBlock: NAWXER_clean_sbu_0, # of connection points: 4
#     Node 3, Type 0, BuildingBlock: NAWXER_clean_sbu_0, # of connection points: 4
#     Node 4, Type 0, BuildingBlock: NAWXER_clean_sbu_0, # of connection points: 4
#     Node 5, Type 0, BuildingBlock: NAWXER_clean_sbu_0, # of connection points: 4
#     Node 6, Type 0, BuildingBlock: NAWXER_clean_sbu_0, # of connection points: 4
#     Node 7, Type 0, BuildingBlock: NAWXER_clean_sbu_0, # of connection points: 4
#     Node 8, Type 0, BuildingBlock: NAWXER_clean_sbu_0, # of connection points: 4
#     Node 9, Type 0, BuildingBlock: NAWXER_clean_sbu_0, # of connection points: 4
#     Node 10, Type 0, BuildingBlock: NAWXER_clean_sbu_0, # of connection points: 4
#     Node 11, Type 0, BuildingBlock: NAWXER_clean_sbu_0, # of connection points: 4
#     Edge 12, Type (0, 0), BuildingBlock: KIFKEQ_clean_linker_1, # of connection points: 2
#     Edge 13, Type (0, 0), BuildingBlock: KIFKEQ_clean_linker_1, # of connection points: 2
#     Edge 14, Type (0, 0), BuildingBlock: KIFKEQ_clean_linker_1, # of connection points: 2
#     Edge 15, Type (0, 0), BuildingBlock: KIFKEQ_clean_linker_1, # of connection points: 2
#     Edge 16, Type (0, 0), BuildingBlock: KIFKEQ_clean_linker_1, # of connection points: 2
#     Edge 17, Type (0, 0), BuildingBlock: KIFKEQ_clean_linker_1, # of connection points: 2
#     Edge 18, Type (0, 0), BuildingBlock: KIFKEQ_clean_linker_1, # of connection points: 2
#     Edge 19, Type (0, 0), BuildingBlock: KIFKEQ_clean_linker_1, # of connection points: 2
#     Edge 20, Type (0, 0), BuildingBlock: KIFKEQ_clean_linker_1, # of connection points: 2
#     Edge 21, Type (0, 0), BuildingBlock: KIFKEQ_clean_linker_1, # of connection points: 2
#     Edge 22, Type (0, 0), BuildingBlock: KIFKEQ_clean_linker_1, # of connection points: 2
#     Edge 23, Type (0, 0), BuildingBlock: KIFKEQ_clean_linker_1, # of connection points: 2
#     Edge 24, Type (0, 0), BuildingBlock: KIFKEQ_clean_linker_1, # of connection points: 2
#     Edge 25, Type (0, 0), BuildingBlock: KIFKEQ_clean_linker_1, # of connection points: 2
#     Edge 26, Type (0, 0), BuildingBlock: KIFKEQ_clean_linker_1, # of connection points: 2
#     Edge 27, Type (0, 0), BuildingBlock: KIFKEQ_clean_linker_1, # of connection points: 2
#     Edge 28, Type (0, 0), BuildingBlock: KIFKEQ_clean_linker_1, # of connection points: 2
#     Edge 29, Type (0, 0), BuildingBlock: KIFKEQ_clean_linker_1, # of connection points: 2
#     Edge 30, Type (0, 0), BuildingBlock: KIFKEQ_clean_linker_1, # of connection points: 2
#     Edge 31, Type (0, 0), BuildingBlock: KIFKEQ_clean_linker_1, # of connection points: 2
#     Edge 32, Type (0, 0), BuildingBlock: KIFKEQ_clean_linker_1, # of connection points: 2
#     Edge 33, Type (0, 0), BuildingBlock: KIFKEQ_clean_linker_1, # of connection points: 2
#     Edge 34, Type (0, 0), BuildingBlock: KIFKEQ_clean_linker_1, # of connection points: 2
#     Edge 35, Type (0, 0), BuildingBlock: KIFKEQ_clean_linker_1, # of connection points: 2
# Relax obj value: 0.102
# Max RMSD: 0.272
# Mean RMSD: 0.272
data_MOF--net-uop--node1-NAWXER_clean_sbu_0--edge1-KIFKEQ_clean_linker_1
_symmetry_space_group_name_H-M    P1
_symmetry_Int_Tables_number       1
_symmetry_cell_setting            triclinic
loop_
_symmetry_equiv_pos_as_xyz
'x, y, z'
_cell_length_a     34.076865
_cell_length_b     34.084963
_cell_length_c     47.391688
_cell_angle_alpha  90.002433
_cell_angle_beta   89.993152
_cell_angle_gamma 120.01396
loop_
_atom_site_label
_atom_site_type_symbol
_atom_site_fract_x
_atom_site_fract_y
_atom_site_fract_z
_atom_type_partial_charge
C0 C 0.2453 0.36535 0.25998 0.0
C1 C 0.25042 0.48952 0.20747 0.0
O2 O 0.24972 0.36075 0.23344 0.0
Zn3 Zn 0.25273 0.39769 0.19524 0.0
O4 O 0.24093 0.39824 0.26847 0.0
Zn5 Zn 0.24599 0.42575 0.23277 0.0
O6 O 0.18271 0.3799 0.21238 0.0
O7 O 0.20025 0.35595 0.17384 0.0
O8 O 0.24529 0.48136 0.23372 0.0
O9 O 0.25371 0.46154 0.19084 0.0
O10 O 0.31061 0.41223 0.17998 0.0
O11 O 0.31525 0.44658 0.22032 0.0
C12 C 0.17034 0.35577 0.18986 0.0
C13 C 0.33468 0.43864 0.19963 0.0
C14 C 0.82007 0.17063 0.52073 0.0
C15 C 0.90108 0.33511 0.52896 0.0
O16 O 0.80832 0.18357 0.54299 0.0
Zn17 Zn 0.82584 0.24694 0.56292 0.0
O18 O 0.84992 0.20012 0.50457 0.0
Zn19 Zn 0.86068 0.25327 0.52535 0.0
O20 O 0.89527 0.25208 0.56337 0.0
O21 O 0.84894 0.24204 0.59868 0.0
O22 O 0.90434 0.31069 0.50991 0.0
O23 O 0.87331 0.31619 0.54957 0.0
O24 O 0.76931 0.24574 0.56381 0.0
O25 O 0.79764 0.25412 0.52091 0.0
C26 C 0.88645 0.24738 0.5899 0.0
C27 C 0.76627 0.25073 0.53752 0.0
C28 C 0.63788 0.88023 0.92581 0.0
C29 C 0.51572 0.76192 0.87164 0.0
O30 O 0.64389 0.88928 0.89932 0.0
Zn31 Zn 0.60855 0.85613 0.8607 0.0
O32 O 0.60411 0.8433 0.9339 0.0
Zn33 Zn 0.57829 0.82098 0.89771 0.0
O34 O 0.62476 0.8032 0.87846 0.0
O35 O 0.65096 0.84527 0.84028 0.0
O36 O 0.52287 0.76484 0.89802 0.0
O37 O 0.54437 0.79328 0.85528 0.0
O38 O 0.59624 0.90079 0.84516 0.0
O39 O 0.55755 0.86894 0.884 0.0
C40 C 0.65001 0.81513 0.85641 0.0
C41 C 0.56768 0.89729 0.86362 0.0
C42 C 0.76258 0.63668 0.26262 0.0
C43 C 0.75609 0.51437 0.20715 0.0
O44 O 0.75927 0.64294 0.23621 0.0
Zn45 Zn 0.75654 0.60828 0.19727 0.0
O46 O 0.76528 0.60255 0.27047 0.0
Zn47 Zn 0.76031 0.57658 0.23407 0.0
O48 O 0.82492 0.62156 0.21445 0.0
O49 O 0.81019 0.65183 0.17771 0.0
O50 O 0.75778 0.51952 0.2337 0.0
O51 O 0.75583 0.54464 0.19109 0.0
O52 O 0.69928 0.59574 0.18156 0.0
O53 O 0.69242 0.55887 0.22114 0.0
C54 C 0.83877 0.64837 0.19312 0.0
C55 C 0.67417 0.56868 0.20066 0.0
C56 C 0.12681 0.76049 0.59508 0.0
C57 C 0.241 0.75481 0.5374 0.0
O58 O 0.11679 0.75828 0.56882 0.0
Zn59 Zn 0.1475 0.75636 0.52934 0.0
O60 O 0.16358 0.76245 0.60225 0.0
Zn61 Zn 0.18402 0.75883 0.56528 0.0
O62 O 0.20399 0.82408 0.54649 0.0
O63 O 0.15771 0.81064 0.51062 0.0
O64 O 0.23832 0.75633 0.56403 0.0
O65 O 0.21013 0.75494 0.52182 0.0
O66 O 0.10132 0.69988 0.51366 0.0
O67 O 0.13444 0.69133 0.55129 0.0
C68 C 0.1906 0.83863 0.52573 0.0
C69 C 0.10512 0.67402 0.53137 0.0
C70 C 0.3691 0.12353 0.92791 0.0
C71 C 0.48995 0.23905 0.87152 0.0
O72 O 0.36178 0.11403 0.90155 0.0
Zn73 Zn 0.39512 0.14568 0.8624 0.0
O74 O 0.40374 0.1602 0.93543 0.0
Zn75 Zn 0.42841 0.18138 0.89873 0.0
O76 O 0.38318 0.20146 0.88001 0.0
O77 O 0.35122 0.15614 0.84363 0.0
O78 O 0.48517 0.23578 0.8981 0.0
O79 O 0.45931 0.20853 0.85559 0.0
O80 O 0.4058 0.0999 0.84646 0.0
O81 O 0.44662 0.13211 0.88453 0.0
C82 C 0.35558 0.18847 0.85909 0.0
C83 C 0.43503 0.10325 0.86436 0.0
C84 C 0.51613 0.75733 0.45619 0.0
C85 C 0.63934 0.76085 0.40327 0.0
O86 O 0.54511 0.75579 0.47279 0.0
Zn87 Zn 0.60808 0.75522 0.46811 0.0
O88 O 0.52264 0.75962 0.42976 0.0
Zn89 Zn 0.57897 0.76017 0.43047 0.0
O90 O 0.55927 0.69175 0.44352 0.0
O91 O 0.59365 0.69755 0.48399 0.0
O92 O 0.60596 0.7643 0.39464 0.0
O93 O 0.64441 0.75744 0.42986 0.0
O94 O 0.65067 0.80824 0.48854 0.0
O95 O 0.62549 0.82439 0.44995 0.0
C96 C 0.56748 0.67293 0.4644 0.0
C97 C 0.65045 0.83756 0.47214 0.0
C98 C 0.8828 0.63744 0.73843 0.0
C99 C 0.76426 0.51469 0.79217 0.0
O100 O 0.89144 0.64336 0.76496 0.0
Zn101 Zn 0.85806 0.60781 0.80341 0.0
O102 O 0.84613 0.60352 0.73014 0.0
Zn103 Zn 0.8235 0.57732 0.76623 0.0
O104 O 0.80488 0.62339 0.78543 0.0
O105 O 0.84703 0.65016 0.82358 0.0
O106 O 0.76809 0.52104 0.76572 0.0
O107 O 0.79484 0.544 0.80866 0.0
O108 O 0.90275 0.5955 0.81918 0.0
O109 O 0.87179 0.55738 0.78005 0.0
C110 C 0.81671 0.64881 0.80741 0.0
C111 C 0.89986 0.56741 0.80056 0.0
C112 C 0.25198 0.76491 0.12785 0.0
C113 C 0.24663 0.88091 0.07205 0.0
O114 O 0.25399 0.79638 0.14384 0.0
Zn115 Zn 0.2524 0.85913 0.13737 0.0
O116 O 0.24849 0.76743 0.10135 0.0
Zn117 Zn 0.248 0.82275 0.10095 0.0
O118 O 0.3164 0.87148 0.1144 0.0
O119 O 0.30948 0.90464 0.15258 0.0
O120 O 0.24356 0.84384 0.06442 0.0
O121 O 0.24994 0.89073 0.0984 0.0
O122 O 0.19865 0.84896 0.15708 0.0
O123 O 0.1838 0.8035 0.12063 0.0
C124 C 0.33458 0.90061 0.13437 0.0
C125 C 0.17003 0.81658 0.14191 0.0
C126 C 0.49149 0.25068 0.45792 0.0
C127 C 0.3691 0.24423 0.40262 0.0
O128 O 0.46224 0.25283 0.47401 0.0
Zn129 Zn 0.39817 0.25153 0.46793 0.0
O130 O 0.48509 0.24692 0.43146 0.0
Zn131 Zn 0.42897 0.24616 0.43127 0.0
O132 O 0.44807 0.31486 0.44375 0.0
O133 O 0.41111 0.30898 0.48318 0.0
O134 O 0.40278 0.24063 0.39492 0.0
O135 O 0.36316 0.24838 0.42898 0.0
O136 O 0.35484 0.19845 0.48821 0.0
O137 O 0.3841 0.18239 0.45156 0.0
C138 C 0.43852 0.33364 0.46408 0.0
C139 C 0.35783 0.16931 0.47313 0.0
C140 C 0.1224 0.36363 0.73907 0.0
C141 C 0.24058 0.48657 0.79284 0.0
O142 O 0.11286 0.35886 0.76548 0.0
Zn143 Zn 0.14638 0.39336 0.80389 0.0
O144 O 0.16019 0.39596 0.73083 0.0
Zn145 Zn 0.18215 0.42357 0.76694 0.0
O146 O 0.20166 0.37945 0.78725 0.0
O147 O 0.15652 0.34992 0.82391 0.0
O148 O 0.23771 0.47943 0.76645 0.0
O149 O 0.20933 0.45779 0.80925 0.0
O150 O 0.10196 0.40597 0.81938 0.0
O151 O 0.13376 0.44415 0.78033 0.0
C152 C 0.18874 0.3532 0.80879 0.0
C153 C 0.10539 0.43423 0.8007 0.0
C154 C 0.75628 0.24104 0.1252 0.0
C155 C 0.76019 0.12437 0.06922 0.0
O156 O 0.75523 0.21003 0.14117 0.0
Zn157 Zn 0.75581 0.14701 0.1347 0.0
O158 O 0.75856 0.23799 0.09866 0.0
Zn159 Zn 0.75948 0.18266 0.09817 0.0
O160 O 0.69133 0.13406 0.11208 0.0
O161 O 0.69902 0.10189 0.15046 0.0
O162 O 0.76264 0.16117 0.06159 0.0
O163 O 0.75778 0.11492 0.09562 0.0
O164 O 0.80925 0.15738 0.15443 0.0
O165 O 0.82444 0.20088 0.11695 0.0
C166 C 0.67355 0.10541 0.13233 0.0
C167 C 0.83815 0.18832 0.13855 0.0
H168 H 0.27483 0.75458 0.18166 0.0
H169 H 0.23125 0.68598 0.10139 0.0
H170 H 0.27692 0.68934 0.2011 0.0
H171 H 0.23158 0.62038 0.12098 0.0
H172 H 0.22766 0.54609 0.23447 0.0
H173 H 0.22881 0.61304 0.21555 0.0
H174 H 0.28055 0.59442 0.1364 0.0
H175 H 0.27762 0.52643 0.15501 0.0
C176 C 0.26543 0.72548 0.16823 0.0
C177 C 0.25302 0.7255 0.13998 0.0
C178 C 0.26639 0.68798 0.1794 0.0
C179 C 0.25452 0.64954 0.1626 0.0
C180 C 0.24185 0.64965 0.13439 0.0
C181 C 0.24137 0.68723 0.12319 0.0
C182 C 0.23932 0.55634 0.21303 0.0
C183 C 0.25232 0.53085 0.19618 0.0
C184 C 0.24028 0.59494 0.20223 0.0
C185 C 0.25471 0.6092 0.17441 0.0
C186 C 0.26842 0.584 0.15773 0.0
C187 C 0.26697 0.54512 0.16844 0.0
H188 H 0.7563 0.27736 0.48493 0.0
H189 H 0.68685 0.22783 0.56449 0.0
H190 H 0.69101 0.2798 0.46623 0.0
H191 H 0.62086 0.2285 0.54548 0.0
H192 H 0.52502 0.27394 0.51159 0.0
H193 H 0.59255 0.27636 0.53095 0.0
H194 H 0.61599 0.23076 0.45087 0.0
H195 H 0.54979 0.2301 0.43135 0.0
C196 C 0.72696 0.2667 0.49836 0.0
C197 C 0.72671 0.25234 0.52616 0.0
C198 C 0.68939 0.26786 0.4876 0.0
C199 C 0.65048 0.25416 0.50429 0.0
C200 C 0.65042 0.23997 0.53216 0.0
C201 C 0.68818 0.23929 0.54301 0.0
C202 C 0.54472 0.26455 0.49815 0.0
C203 C 0.53214 0.25195 0.46994 0.0
C204 C 0.5833 0.2657 0.50927 0.0
C205 C 0.60985 0.25381 0.49248 0.0
C206 C 0.59697 0.24101 0.46429 0.0
C207 C 0.55876 0.24033 0.45312 0.0
H208 H 0.45837 0.68299 0.8986 0.0
H209 H 0.48049 0.75146 0.81849 0.0
H210 H 0.39178 0.61716 0.87956 0.0
H211 H 0.41266 0.68618 0.79968 0.0
H212 H 0.25086 0.52195 0.84594 0.0
H213 H 0.31611 0.58982 0.86476 0.0
H214 H 0.38534 0.61051 0.78496 0.0
H215 H 0.31956 0.5439 0.76592 0.0
C216 C 0.44874 0.68415 0.87697 0.0
C217 C 0.47478 0.72239 0.86002 0.0
C218 C 0.4103 0.64646 0.86609 0.0
C219 C 0.39666 0.64627 0.83808 0.0
C220 C 0.42253 0.6848 0.8212 0.0
C221 C 0.46131 0.72235 0.83201 0.0
C222 C 0.28001 0.54111 0.83244 0.0
C223 C 0.28004 0.52758 0.80446 0.0
C224 C 0.31754 0.5799 0.84325 0.0
C225 C 0.35613 0.60572 0.82641 0.0
C226 C 0.356 0.59203 0.79841 0.0
C227 C 0.31834 0.55358 0.78753 0.0
H228 H 0.73169 0.4343 0.23341 0.0
H229 H 0.77768 0.50309 0.15341 0.0
H230 H 0.72986 0.36755 0.21366 0.0
H231 H 0.77815 0.4372 0.13392 0.0
H232 H 0.73379 0.29792 0.09867 0.0
H233 H 0.73182 0.36271 0.11844 0.0
H234 H 0.77616 0.33888 0.1989 0.0
H235 H 0.77582 0.2726 0.17933 0.0
C236 C 0.74179 0.43524 0.21163 0.0
C237 C 0.75479 0.47388 0.19493 0.0
C238 C 0.74106 0.39705 0.20033 0.0
C239 C 0.75404 0.39684 0.17218 0.0
C240 C 0.76713 0.43569 0.15552 0.0
C241 C 0.76714 0.47363 0.16671 0.0
C242 C 0.743 0.30649 0.12061 0.0
C243 C 0.75495 0.28019 0.13747 0.0
C244 C 0.74219 0.34389 0.13193 0.0
C245 C 0.75405 0.35638 0.16029 0.0
C246 C 0.76605 0.32994 0.17712 0.0
C247 C 0.76613 0.29206 0.16589 0.0
H248 H 0.43808 0.73687 0.42834 0.0
H249 H 0.50236 0.77595 0.51005 0.0
H250 H 0.37052 0.73432 0.44747 0.0
H251 H 0.43584 0.77568 0.52894 0.0
H252 H 0.29574 0.72846 0.56259 0.0
H253 H 0.3608 0.72743 0.54254 0.0
H254 H 0.34051 0.77901 0.46379 0.0
H255 H 0.27382 0.77778 0.48362 0.0
C256 C 0.43789 0.74534 0.45035 0.0
C257 C 0.47543 0.75645 0.46773 0.0
C258 C 0.39924 0.74417 0.4613 0.0
C259 C 0.3975 0.75474 0.48981 0.0
C260 C 0.43543 0.76636 0.50706 0.0
C261 C 0.47376 0.76682 0.49621 0.0
C262 C 0.3051 0.73943 0.54095 0.0
C263 C 0.27977 0.7533 0.52468 0.0
C264 C 0.34268 0.73918 0.52948 0.0
C265 C 0.35639 0.75356 0.50158 0.0
C266 C 0.3307 0.76711 0.48522 0.0
C267 C 0.29258 0.76664 0.49659 0.0
H268 H 0.50127 0.27273 0.81789 0.0
H269 H 0.57033 0.29354 0.89761 0.0
H270 H 0.56735 0.33955 0.79875 0.0
H271 H 0.63708 0.35876 0.87825 0.0
H272 H 0.73161 0.50066 0.84606 0.0
H273 H 0.66501 0.43405 0.86468 0.0
H274 H 0.64225 0.36895 0.7832 0.0
H275 H 0.70749 0.43647 0.76437 0.0
C276 C 0.53082 0.29128 0.83118 0.0
C277 C 0.53057 0.27808 0.85926 0.0
C278 C 0.56884 0.32948 0.8202 0.0
C279 C 0.60769 0.35485 0.83695 0.0
C280 C 0.60754 0.34085 0.86489 0.0
C281 C 0.56934 0.30318 0.87596 0.0
C282 C 0.71234 0.47206 0.83218 0.0
C283 C 0.7247 0.47381 0.80377 0.0
C284 C 0.67426 0.43369 0.84287 0.0
C285 C 0.6481 0.39587 0.8255 0.0
C286 C 0.66093 0.39762 0.79711 0.0
C287 C 0.69857 0.43626 0.78633 0.0
H288 H 0.61255 0.51961 0.24163 0.0
H289 H 0.623 0.57429 0.15791 0.0
H290 H 0.53083 0.48913 0.24086 0.0
H291 H 0.54108 0.54385 0.15726 0.0
H292 H 0.38752 0.43703 0.15661 0.0
H293 H 0.46957 0.46873 0.15644 0.0
H294 H 0.47702 0.51845 0.24121 0.0
H295 H 0.39503 0.48664 0.2415 0.0
C296 C 0.59744 0.52509 0.22303 0.0
C297 C 0.62436 0.54941 0.19982 0.0
C298 C 0.55062 0.50786 0.22269 0.0
C299 C 0.52953 0.51423 0.19905 0.0
C300 C 0.55632 0.53812 0.1757 0.0
C301 C 0.60327 0.55571 0.17613 0.0
C302 C 0.40665 0.45483 0.17519 0.0
C303 C 0.38466 0.45921 0.19909 0.0
C304 C 0.45369 0.47318 0.17502 0.0
C305 C 0.47974 0.49595 0.19884 0.0
C306 C 0.4578 0.50062 0.22265 0.0
C307 C 0.41084 0.48262 0.22274 0.0
H308 H 0.0205 0.62715 0.50824 0.0
H309 H 0.12241 0.60883 0.55066 0.0
H310 H 0.97006 0.54473 0.50708 0.0
H311 H 0.07241 0.52648 0.54865 0.0
H312 H 0.9833 0.38399 0.50332 0.0
H313 H 0.03295 0.46642 0.50321 0.0
H314 H 0.9339 0.48128 0.55153 0.0
H315 H 0.88462 0.39868 0.55245 0.0
C316 C 0.03225 0.60552 0.51705 0.0
C317 C 0.07535 0.62434 0.52956 0.0
C318 C 1.00336 0.55852 0.51649 0.0
C319 C 0.01754 0.52957 0.52776 0.0
C320 C 0.06089 0.54826 0.53975 0.0
C321 C 0.08934 0.59525 0.54096 0.0
C322 C 0.97204 0.40484 0.51383 0.0
C323 C 0.93012 0.38495 0.52792 0.0
C324 C 1.0005 0.45187 0.51384 0.0
C325 C 0.98706 0.4799 0.52733 0.0
C326 C 0.9448 0.46022 0.5409 0.0
C327 C 0.91679 0.41309 0.5415 0.0
H328 H 0.51689 0.1197 0.8844 0.0
H329 H 0.39758 0.01916 0.84053 0.0
H330 H 0.54877 0.0693 0.88264 0.0
H331 H 0.42906 0.96831 0.83961 0.0
H332 H 0.48677 0.88099 0.88562 0.0
H333 H 0.45413 0.93082 0.8841 0.0
H334 H 0.57064 0.0303 0.83783 0.0
H335 H 0.60279 0.98011 0.83852 0.0
C336 C 0.49751 0.08686 0.87442 0.0
C337 C 0.45481 0.07335 0.86256 0.0
C338 C 0.5158 0.05818 0.87335 0.0
C339 C 0.49123 0.01507 0.86104 0.0
C340 C 0.4485 1.00141 0.84927 0.0
C341 C 0.43067 0.03054 0.8497 0.0
C342 C 0.50526 0.91337 0.87498 0.0
C343 C 0.54728 0.92667 0.86216 0.0
C344 C 0.48652 0.9417 0.87404 0.0
C345 C 0.51001 0.98424 0.86088 0.0
C346 C 0.55202 0.99763 0.84813 0.0
C347 C 0.57024 0.96887 0.84846 0.0
H348 H 0.52048 0.6121 0.4226 0.0
H349 H 0.56993 0.62081 0.50766 0.0
H350 H 0.4898 0.53034 0.42305 0.0
H351 H 0.53931 0.5389 0.50799 0.0
H352 H 0.43349 0.38527 0.50667 0.0
H353 H 0.46439 0.46719 0.50718 0.0
H354 H 0.51947 0.47682 0.42376 0.0
H355 H 0.48848 0.39498 0.42312 0.0
C356 C 0.52471 0.5966 0.44143 0.0
C357 C 0.54769 0.62305 0.4651 0.0
C358 C 0.50739 0.54976 0.4416 0.0
C359 C 0.51229 0.52819 0.46551 0.0
C360 C 0.53471 0.55451 0.48933 0.0
C361 C 0.55241 0.60145 0.48908 0.0
C362 C 0.45228 0.40486 0.48846 0.0
C363 C 0.45844 0.38353 0.46483 0.0
C364 C 0.47016 0.45182 0.48882 0.0
C365 C 0.49423 0.47844 0.46547 0.0
C366 C 0.50061 0.45715 0.44193 0.0
C367 C 0.48309 0.41028 0.44165 0.0
H368 H 0.98299 0.60306 0.82544 0.0
H369 H 0.88396 0.48681 0.77849 0.0
H370 H 0.03359 0.57129 0.82588 0.0
H371 H 0.93412 0.45456 0.7798 0.0
H372 H 0.02209 0.39874 0.82521 0.0
H373 H 0.97182 0.43083 0.82567 0.0
H374 H 0.07195 0.54776 0.78003 0.0
H375 H 0.12186 0.51516 0.77871 0.0
C376 C 0.97188 0.57056 0.81548 0.0
C377 C 0.92956 0.54737 0.80192 0.0
C378 C 1.00088 0.55258 0.81564 0.0
C379 C 0.98756 0.51061 0.80288 0.0
C380 C 0.94495 0.48696 0.78983 0.0
C381 C 0.91642 0.50545 0.78904 0.0
C382 C 0.03344 0.43135 0.81534 0.0
C383 C 0.07587 0.45448 0.80191 0.0
C384 C 0.00463 0.44952 0.81553 0.0
C385 C 0.01822 0.49165 0.80292 0.0
C386 C 0.06093 0.51526 0.78997 0.0
C387 C 0.0893 0.49656 0.78915 0.0
H388 H 0.38251 0.98473 0.15792 0.0
H389 H 0.39897 0.8833 0.11338 0.0
H390 H 0.46493 0.03499 0.15807 0.0
H391 H 0.48144 0.93317 0.11437 0.0
H392 H 0.62623 0.0222 0.15709 0.0
H393 H 0.54384 0.97203 0.1583 0.0
H394 H 0.52615 0.07211 0.11331 0.0
H395 H 0.60859 0.12187 0.11128 0.0
C396 C 0.40374 0.97303 0.14844 0.0
C397 C 0.38437 0.93013 0.13562 0.0
C398 C 0.45076 1.00183 0.14843 0.0
C399 C 0.47925 0.98778 0.13625 0.0
C400 C 0.46004 0.94459 0.12397 0.0
C401 C 0.41297 0.91622 0.12335 0.0
C402 C 0.60476 0.03354 0.14754 0.0
C403 C 0.62379 0.07591 0.13406 0.0
C404 C 0.55775 0.0048 0.14815 0.0
C405 C 0.52893 0.01838 0.13593 0.0
C406 C 0.54781 0.06106 0.12297 0.0
C407 C 0.59486 0.08936 0.12174 0.0
H408 H 0.25565 0.2918 0.24988 0.0
H409 H 0.24604 0.37196 0.31731 0.0
H410 H 0.27444 0.25036 0.2842 0.0
H411 H 0.26637 0.33205 0.35127 0.0
H412 H 0.29143 0.24784 0.41111 0.0
H413 H 0.24975 0.26526 0.37621 0.0
H414 H 0.34037 0.26913 0.31101 0.0
H415 H 0.38065 0.25006 0.34553 0.0
C416 C 0.25699 0.30021 0.27203 0.0
C417 C 0.24991 0.33557 0.28081 0.0
C418 C 0.26803 0.27665 0.2917 0.0
C419 C 0.2725 0.28818 0.32051 0.0
C420 C 0.26276 0.32176 0.32936 0.0
C421 C 0.25143 0.34501 0.30978 0.0
C422 C 0.30184 0.25155 0.38922 0.0
C423 C 0.33971 0.24815 0.38117 0.0
C424 C 0.27811 0.26177 0.36923 0.0
C425 C 0.29201 0.26923 0.34082 0.0
C426 C 0.32827 0.26316 0.33258 0.0
C427 C 0.35169 0.25255 0.35249 0.0
H428 H 0.97775 0.29797 0.58381 0.0
H429 H 0.87369 0.20969 0.64222 0.0
H430 H 0.03482 0.31764 0.62008 0.0
H431 H 0.93105 0.22653 0.67821 0.0
H432 H 0.031 0.32111 0.74501 0.0
H433 H 0.97432 0.28478 0.70846 0.0
H434 H 0.07913 0.30267 0.64951 0.0
H435 H 0.1361 0.34208 0.68591 0.0
C436 C 0.96734 0.28167 0.60423 0.0
C437 C 0.92135 0.25274 0.61035 0.0
C438 C 1.00015 0.29269 0.6251 0.0
C439 C 0.9878 0.27416 0.65242 0.0
C440 C 0.94189 0.24261 0.65778 0.0
C441 C 0.90897 0.23256 0.6371 0.0
C442 C 0.04177 0.31662 0.72434 0.0
C443 C 0.08791 0.3348 0.71818 0.0
C444 C 0.00918 0.29543 0.70329 0.0
C445 C 0.02188 0.29098 0.6757 0.0
C446 C 0.06799 0.30653 0.67019 0.0
C447 C 0.1007 0.32878 0.6911 0.0
H448 H 0.71273 0.96347 0.9164 0.0
H449 H 0.62927 0.87416 0.98309 0.0
H450 H 0.75404 0.02325 0.95101 0.0
H451 H 0.66928 0.93402 0.01735 0.0
H452 H 0.755 0.04238 0.07767 0.0
H453 H 0.73673 0.98312 0.04273 0.0
H454 H 0.73507 0.07096 0.97752 0.0
H455 H 0.75477 0.13039 0.0121 0.0
C456 C 0.70355 0.95639 0.93846 0.0
C457 C 0.66733 0.91425 0.94693 0.0
C458 C 0.72707 0.99073 0.95828 0.0
C459 C 0.71469 0.98368 0.98695 0.0
C460 C 0.68017 0.94062 0.99555 0.0
C461 C 0.6569 0.90629 0.9758 0.0
C462 C 0.75159 0.04929 0.05577 0.0
C463 C 0.75576 0.09089 0.04773 0.0
C464 C 0.74089 0.01524 0.03576 0.0
C465 C 0.73386 0.022 0.00734 0.0
C466 C 0.74068 0.06461 -0.00089 0.0
C467 C 0.75166 0.09868 0.01905 0.0
H468 H 0.63266 0.75873 0.34589 0.0
H469 H 0.71358 0.75199 0.4139 0.0
H470 H 0.67337 0.73852 0.3124 0.0
H471 H 0.75563 0.73318 0.38007 0.0
H472 H 0.75622 0.62563 0.31977 0.0
H473 H 0.73671 0.66624 0.35382 0.0
H474 H 0.74137 0.75624 0.28797 0.0
H475 H 0.75941 0.71438 0.25356 0.0
C476 C 0.6599 0.75398 0.35364 0.0
C477 C 0.66938 0.75627 0.38264 0.0
C478 C 0.68359 0.74273 0.33434 0.0
C479 C 0.71758 0.73379 0.34354 0.0
C480 C 0.72908 0.73902 0.37235 0.0
C481 C 0.70514 0.75003 0.39172 0.0
C482 C 0.75385 0.65454 0.31258 0.0
C483 C 0.75863 0.6663 0.28386 0.0
C484 C 0.74298 0.67813 0.33221 0.0
C485 C 0.73698 0.71427 0.32362 0.0
C486 C 0.74485 0.72798 0.29519 0.0
C487 C 0.75541 0.70414 0.2755 0.0
H488 H 0.13288 0.75308 0.65206 0.0
H489 H 0.04585 0.75772 0.58741 0.0
H490 H 0.07367 0.7334 0.68689 0.0
H491 H 0.98688 0.73938 0.62257 0.0
H492 H 0.87689 0.63046 0.68108 0.0
H493 H 0.93709 0.67087 0.64705 0.0
H494 H 0.02661 0.75298 0.71406 0.0
H495 H 0.96644 0.71136 0.74841 0.0
C496 C 0.10148 0.75096 0.64539 0.0
C497 C 0.09382 0.75625 0.61687 0.0
C498 C 0.06755 0.73998 0.66545 0.0
C499 C 0.02527 0.73433 0.6575 0.0
C500 C 0.01875 0.74262 0.62929 0.0
C501 C 0.05262 0.75334 0.60917 0.0
C502 C 0.90915 0.6576 0.68857 0.0
C503 C 0.91705 0.66721 0.71752 0.0
C504 C 0.94367 0.6811 0.66897 0.0
C505 C 0.98689 0.71498 0.67782 0.0
C506 C 0.99394 0.72654 0.70661 0.0
C507 C 0.95938 0.70284 0.72627 0.0
H508 H 0.25383 0.96368 0.08074 0.0
H509 H 0.24988 0.87412 0.01483 0.0
H510 H 0.27246 0.02303 0.04582 0.0
H511 H 0.26981 0.93362 0.98022 0.0
H512 H 0.29231 0.04159 0.91944 0.0
H513 H 0.25106 0.98245 0.95441 0.0
H514 H 0.34013 0.07053 0.0197 0.0
H515 H 0.38026 0.12984 0.98505 0.0
C516 C 0.25635 0.95644 0.05877 0.0
C517 C 0.25097 0.91439 0.05061 0.0
C518 C 0.26725 0.99053 0.03878 0.0
C519 C 0.27319 0.98332 0.01026 0.0
C520 C 0.26507 0.9403 0.00192 0.0
C521 C 0.25395 0.90619 0.02186 0.0
C522 C 0.3025 0.04858 0.94135 0.0
C523 C 0.33994 0.0902 0.94941 0.0
C524 C 0.27899 0.01462 0.96137 0.0
C525 C 0.29258 0.02151 0.98982 0.0
C526 C 0.32836 0.06412 0.99806 0.0
C527 C 0.35167 0.09811 0.9781 0.0
H528 H 0.90984 0.24857 0.10631 0.0
H529 H 0.87724 0.17872 0.18645 0.0
H530 H 0.99024 0.28734 0.11859 0.0
H531 H 0.95754 0.21742 0.1986 0.0
H532 H 0.09747 0.33891 0.22255 0.0
H533 H 0.01745 0.29691 0.2097 0.0
H534 H 0.05285 0.27012 0.12729 0.0
H535 H 0.13304 0.31224 0.14007 0.0
C536 C 0.9198 0.24132 0.12647 0.0
C537 C 0.88709 0.21061 0.14542 0.0
C538 C 0.96587 0.26336 0.13343 0.0
C539 C 0.98017 0.2555 0.15958 0.0
C540 C 0.94751 0.22452 0.17841 0.0
C541 C 0.90152 0.20217 0.17136 0.0
C542 C 0.08824 0.32395 0.20172 0.0
C543 C 0.12167 0.32896 0.18234 0.0
C544 C 0.04236 0.2997 0.19442 0.0
C545 C 0.02888 0.28024 0.16749 0.0
C546 C 0.06226 0.28508 0.14812 0.0
C547 C 0.10815 0.30898 0.15551 0.0
H548 H 0.82688 0.13172 0.47175 0.0
H549 H 0.76302 0.09892 0.55383 0.0
H550 H 0.78803 0.05119 0.4598 0.0
H551 H 0.72419 0.01863 0.54178 0.0
H552 H 0.69806 0.87652 0.52046 0.0
H553 H 0.74141 0.957 0.53204 0.0
H554 H 0.70828 0.98985 0.45073 0.0
H555 H 0.66506 0.90939 0.43901 0.0
C556 C 0.80474 0.10737 0.48728 0.0
C557 C 0.79801 0.12177 0.51373 0.0
C558 C 0.78231 0.06129 0.48036 0.0
C559 C 0.75303 0.0286 0.49984 0.0
C560 C 0.74689 0.04297 0.52643 0.0
C561 C 0.76897 0.08901 0.53326 0.0
C562 C 0.70017 0.90088 0.50498 0.0
C563 C 0.67798 0.88649 0.47883 0.0
C564 C 0.72482 0.94697 0.51169 0.0
C565 C 0.72818 0.97974 0.49232 0.0
C566 C 0.70667 0.96542 0.46599 0.0
C567 C 0.68168 0.9193 0.45936 0.0
H568 H 0.75849 0.66215 0.77443 0.0
H569 H 0.82418 0.6955 0.85594 0.0
H570 H 0.71989 0.704 0.78637 0.0
H571 H 0.78561 0.73738 0.86777 0.0
H572 H 0.6641 0.75749 0.88941 0.0
H573 H 0.70591 0.71894 0.87735 0.0
H574 H 0.73808 0.7838 0.79569 0.0
H575 H 0.6962 0.82236 0.80765 0.0
C576 C 0.76484 0.67853 0.79484 0.0
C577 C 0.79438 0.67541 0.81424 0.0
C578 C 0.7429 0.7027 0.80161 0.0
C579 C 0.74968 0.72391 0.82802 0.0
C580 C 0.77938 0.72101 0.84736 0.0
C581 C 0.80166 0.69722 0.8405 0.0
C582 C 0.68021 0.76369 0.86892 0.0
C583 C 0.67676 0.79299 0.84949 0.0
C584 C 0.70435 0.74176 0.86208 0.0
C585 C 0.72522 0.7483 0.83556 0.0
C586 C 0.72199 0.77777 0.81618 0.0
C587 C 0.69821 0.80004 0.82312 0.0
H588 H 0.8839 0.7278 0.16378 0.0
H589 H 0.90369 0.62721 0.20673 0.0
H590 H 0.96472 0.76991 0.15177 0.0
H591 H 0.98411 0.66875 0.19398 0.0
H592 H 0.10605 0.73005 0.12866 0.0
H593 H 0.02582 0.68996 0.14181 0.0
H594 H 0.04345 0.80982 0.18407 0.0
H595 H 0.12418 0.84979 0.17164 0.0
C596 C 0.90548 0.71469 0.17059 0.0
C597 C 0.88757 0.67427 0.18621 0.0
C598 C 0.95162 0.73884 0.16382 0.0
C599 C 0.98033 0.72238 0.17194 0.0
C600 C 0.96247 0.68194 0.18743 0.0
C601 C 0.9166 0.65837 0.1948 0.0
C602 C 0.09281 0.74789 0.1407 0.0
C603 C 0.12132 0.79303 0.14915 0.0
C604 C 0.04705 0.72489 0.14831 0.0
C605 C 0.02874 0.74692 0.16392 0.0
C606 C 0.05693 0.79227 0.17195 0.0
C607 C 0.103 0.81498 0.16492 0.0
H608 H 0.15682 0.88523 0.49757 0.0
H609 H 0.2777 0.90223 0.53842 0.0
H610 H 0.19674 0.96594 0.48535 0.0
H611 H 0.31777 0.98258 0.52547 0.0
H612 H 0.37862 0.10404 0.45987 0.0
H613 H 0.33762 0.02408 0.47359 0.0
H614 H 0.23793 0.0447 0.51676 0.0
H615 H 0.27953 0.12512 0.50374 0.0
C616 C 0.19186 0.90619 0.5039 0.0
C617 C 0.21416 0.88751 0.51896 0.0
C618 C 0.21456 0.95227 0.497 0.0
C619 C 0.26022 0.98018 0.50445 0.0
C620 C 0.28257 0.96157 0.51944 0.0
C621 C 0.2596 0.91575 0.52693 0.0
C622 C 0.34792 0.09151 0.47224 0.0
C623 C 0.33224 0.12077 0.48075 0.0
C624 C 0.32468 0.0459 0.48018 0.0
C625 C 0.28478 0.0285 0.49621 0.0
C626 C 0.2686 0.05746 0.50433 0.0
C627 C 0.29244 0.10336 0.49696 0.0
H628 H 0.27505 0.3751 0.79543 0.0
H629 H 0.15547 0.27475 0.83921 0.0
H630 H 0.31479 0.33469 0.80867 0.0
H631 H 0.19508 0.23369 0.85173 0.0
H632 H 0.2753 0.15455 0.83075 0.0
H633 H 0.23358 0.19382 0.8193 0.0
H634 H 0.33672 0.31434 0.86056 0.0
H635 H 0.3779 0.27489 0.87275 0.0
C636 C 0.25718 0.34426 0.8077 0.0
C637 C 0.21217 0.32804 0.8163 0.0
C638 C 0.27999 0.32134 0.81536 0.0
C639 C 0.25788 0.28124 0.83119 0.0
C640 C 0.2127 0.26454 0.83945 0.0
C641 C 0.19019 0.28806 0.83237 0.0
C642 C 0.28892 0.18935 0.83749 0.0
C643 C 0.32982 0.21169 0.85265 0.0
C644 C 0.26499 0.21166 0.83104 0.0
C645 C 0.28211 0.25699 0.83904 0.0
C646 C 0.323 0.27939 0.85412 0.0
C647 C 0.34638 0.25677 0.86116 0.0
loop_
_geom_bond_atom_site_label_1
_geom_bond_atom_site_label_2
_geom_bond_distance
_geom_bond_site_symmetry_2
_ccdc_geom_bond_type
C0 O2 1.247 . S
C0 O4 1.258 . S
C1 O8 1.247 . S
C1 O9 1.258 . S
O2 C0 1.247 . S
O2 Zn3 2.028 . S
Zn3 O2 2.028 . S
Zn3 O7 2.035 . S
Zn3 O9 2.035 . S
Zn3 O10 2.028 . S
O4 C0 1.258 . S
O4 Zn5 2.035 . S
Zn5 O4 2.035 . S
Zn5 O6 2.028 . S
Zn5 O8 2.028 . S
Zn5 O11 2.035 . S
O6 Zn5 2.028 . S
O6 C12 1.247 . S
O7 Zn3 2.035 . S
O7 C12 1.258 . S
O8 C1 1.247 . S
O8 Zn5 2.028 . S
O9 C1 1.258 . S
O9 Zn3 2.035 . S
O10 Zn3 2.028 . S
O10 C13 1.247 . S
O11 Zn5 2.035 . S
O11 C13 1.258 . S
C12 O6 1.247 . S
C12 O7 1.258 . S
C13 O10 1.247 . S
C13 O11 1.258 . S
C14 O16 1.247 . S
C14 O18 1.258 . S
C15 O22 1.247 . S
C15 O23 1.258 . S
O16 C14 1.247 . S
O16 Zn17 2.028 . S
Zn17 O16 2.028 . S
Zn17 O21 2.035 . S
Zn17 O23 2.035 . S
Zn17 O24 2.028 . S
O18 C14 1.258 . S
O18 Zn19 2.035 . S
Zn19 O18 2.035 . S
Zn19 O20 2.028 . S
Zn19 O22 2.028 . S
Zn19 O25 2.035 . S
O20 Zn19 2.028 . S
O20 C26 1.247 . S
O21 Zn17 2.035 . S
O21 C26 1.258 . S
O22 C15 1.247 . S
O22 Zn19 2.028 . S
O23 C15 1.258 . S
O23 Zn17 2.035 . S
O24 Zn17 2.028 . S
O24 C27 1.247 . S
O25 Zn19 2.035 . S
O25 C27 1.258 . S
C26 O20 1.247 . S
C26 O21 1.258 . S
C27 O24 1.247 . S
C27 O25 1.258 . S
C28 O30 1.247 . S
C28 O32 1.258 . S
C29 O36 1.247 . S
C29 O37 1.258 . S
O30 C28 1.247 . S
O30 Zn31 2.028 . S
Zn31 O30 2.028 . S
Zn31 O35 2.035 . S
Zn31 O37 2.035 . S
Zn31 O38 2.028 . S
O32 C28 1.258 . S
O32 Zn33 2.035 . S
Zn33 O32 2.035 . S
Zn33 O34 2.028 . S
Zn33 O36 2.028 . S
Zn33 O39 2.035 . S
O34 Zn33 2.028 . S
O34 C40 1.247 . S
O35 Zn31 2.035 . S
O35 C40 1.258 . S
O36 C29 1.247 . S
O36 Zn33 2.028 . S
O37 C29 1.258 . S
O37 Zn31 2.035 . S
O38 Zn31 2.028 . S
O38 C41 1.247 . S
O39 Zn33 2.035 . S
O39 C41 1.258 . S
C40 O34 1.247 . S
C40 O35 1.258 . S
C41 O38 1.247 . S
C41 O39 1.258 . S
C42 O44 1.247 . S
C42 O46 1.258 . S
C43 O50 1.247 . S
C43 O51 1.258 . S
O44 C42 1.247 . S
O44 Zn45 2.028 . S
Zn45 O44 2.028 . S
Zn45 O49 2.035 . S
Zn45 O51 2.035 . S
Zn45 O52 2.028 . S
O46 C42 1.258 . S
O46 Zn47 2.035 . S
Zn47 O46 2.035 . S
Zn47 O48 2.028 . S
Zn47 O50 2.028 . S
Zn47 O53 2.035 . S
O48 Zn47 2.028 . S
O48 C54 1.247 . S
O49 Zn45 2.035 . S
O49 C54 1.258 . S
O50 C43 1.247 . S
O50 Zn47 2.028 . S
O51 C43 1.258 . S
O51 Zn45 2.035 . S
O52 Zn45 2.028 . S
O52 C55 1.247 . S
O53 Zn47 2.035 . S
O53 C55 1.258 . S
C54 O48 1.247 . S
C54 O49 1.258 . S
C55 O52 1.247 . S
C55 O53 1.258 . S
C56 O58 1.247 . S
C56 O60 1.258 . S
C57 O64 1.247 . S
C57 O65 1.258 . S
O58 C56 1.247 . S
O58 Zn59 2.028 . S
Zn59 O58 2.028 . S
Zn59 O63 2.035 . S
Zn59 O65 2.035 . S
Zn59 O66 2.028 . S
O60 C56 1.258 . S
O60 Zn61 2.035 . S
Zn61 O60 2.035 . S
Zn61 O62 2.028 . S
Zn61 O64 2.028 . S
Zn61 O67 2.035 . S
O62 Zn61 2.028 . S
O62 C68 1.247 . S
O63 Zn59 2.035 . S
O63 C68 1.258 . S
O64 C57 1.247 . S
O64 Zn61 2.028 . S
O65 C57 1.258 . S
O65 Zn59 2.035 . S
O66 Zn59 2.028 . S
O66 C69 1.247 . S
O67 Zn61 2.035 . S
O67 C69 1.258 . S
C68 O62 1.247 . S
C68 O63 1.258 . S
C69 O66 1.247 . S
C69 O67 1.258 . S
C70 O72 1.247 . S
C70 O74 1.258 . S
C71 O78 1.247 . S
C71 O79 1.258 . S
O72 C70 1.247 . S
O72 Zn73 2.028 . S
Zn73 O72 2.028 . S
Zn73 O77 2.035 . S
Zn73 O79 2.035 . S
Zn73 O80 2.028 . S
O74 C70 1.258 . S
O74 Zn75 2.035 . S
Zn75 O74 2.035 . S
Zn75 O76 2.028 . S
Zn75 O78 2.028 . S
Zn75 O81 2.035 . S
O76 Zn75 2.028 . S
O76 C82 1.247 . S
O77 Zn73 2.035 . S
O77 C82 1.258 . S
O78 C71 1.247 . S
O78 Zn75 2.028 . S
O79 C71 1.258 . S
O79 Zn73 2.035 . S
O80 Zn73 2.028 . S
O80 C83 1.247 . S
O81 Zn75 2.035 . S
O81 C83 1.258 . S
C82 O76 1.247 . S
C82 O77 1.258 . S
C83 O80 1.247 . S
C83 O81 1.258 . S
C84 O86 1.247 . S
C84 O88 1.258 . S
C85 O92 1.247 . S
C85 O93 1.258 . S
O86 C84 1.247 . S
O86 Zn87 2.028 . S
Zn87 O86 2.028 . S
Zn87 O91 2.035 . S
Zn87 O93 2.035 . S
Zn87 O94 2.028 . S
O88 C84 1.258 . S
O88 Zn89 2.035 . S
Zn89 O88 2.035 . S
Zn89 O90 2.028 . S
Zn89 O92 2.028 . S
Zn89 O95 2.035 . S
O90 Zn89 2.028 . S
O90 C96 1.247 . S
O91 Zn87 2.035 . S
O91 C96 1.258 . S
O92 C85 1.247 . S
O92 Zn89 2.028 . S
O93 C85 1.258 . S
O93 Zn87 2.035 . S
O94 Zn87 2.028 . S
O94 C97 1.247 . S
O95 Zn89 2.035 . S
O95 C97 1.258 . S
C96 O90 1.247 . S
C96 O91 1.258 . S
C97 O94 1.247 . S
C97 O95 1.258 . S
C98 O100 1.247 . S
C98 O102 1.258 . S
C99 O106 1.247 . S
C99 O107 1.258 . S
O100 C98 1.247 . S
O100 Zn101 2.028 . S
Zn101 O100 2.028 . S
Zn101 O105 2.035 . S
Zn101 O107 2.035 . S
Zn101 O108 2.028 . S
O102 C98 1.258 . S
O102 Zn103 2.035 . S
Zn103 O102 2.035 . S
Zn103 O104 2.028 . S
Zn103 O106 2.028 . S
Zn103 O109 2.035 . S
O104 Zn103 2.028 . S
O104 C110 1.247 . S
O105 Zn101 2.035 . S
O105 C110 1.258 . S
O106 C99 1.247 . S
O106 Zn103 2.028 . S
O107 C99 1.258 . S
O107 Zn101 2.035 . S
O108 Zn101 2.028 . S
O108 C111 1.247 . S
O109 Zn103 2.035 . S
O109 C111 1.258 . S
C110 O104 1.247 . S
C110 O105 1.258 . S
C111 O108 1.247 . S
C111 O109 1.258 . S
C112 O114 1.247 . S
C112 O116 1.258 . S
C113 O120 1.247 . S
C113 O121 1.258 . S
O114 C112 1.247 . S
O114 Zn115 2.028 . S
Zn115 O114 2.028 . S
Zn115 O119 2.035 . S
Zn115 O121 2.035 . S
Zn115 O122 2.028 . S
O116 C112 1.258 . S
O116 Zn117 2.035 . S
Zn117 O116 2.035 . S
Zn117 O118 2.028 . S
Zn117 O120 2.028 . S
Zn117 O123 2.035 . S
O118 Zn117 2.028 . S
O118 C124 1.247 . S
O119 Zn115 2.035 . S
O119 C124 1.258 . S
O120 C113 1.247 . S
O120 Zn117 2.028 . S
O121 C113 1.258 . S
O121 Zn115 2.035 . S
O122 Zn115 2.028 . S
O122 C125 1.247 . S
O123 Zn117 2.035 . S
O123 C125 1.258 . S
C124 O118 1.247 . S
C124 O119 1.258 . S
C125 O122 1.247 . S
C125 O123 1.258 . S
C126 O128 1.247 . S
C126 O130 1.258 . S
C127 O134 1.247 . S
C127 O135 1.258 . S
O128 C126 1.247 . S
O128 Zn129 2.028 . S
Zn129 O128 2.028 . S
Zn129 O133 2.035 . S
Zn129 O135 2.035 . S
Zn129 O136 2.028 . S
O130 C126 1.258 . S
O130 Zn131 2.035 . S
Zn131 O130 2.035 . S
Zn131 O132 2.028 . S
Zn131 O134 2.028 . S
Zn131 O137 2.035 . S
O132 Zn131 2.028 . S
O132 C138 1.247 . S
O133 Zn129 2.035 . S
O133 C138 1.258 . S
O134 C127 1.247 . S
O134 Zn131 2.028 . S
O135 C127 1.258 . S
O135 Zn129 2.035 . S
O136 Zn129 2.028 . S
O136 C139 1.247 . S
O137 Zn131 2.035 . S
O137 C139 1.258 . S
C138 O132 1.247 . S
C138 O133 1.258 . S
C139 O136 1.247 . S
C139 O137 1.258 . S
C140 O142 1.247 . S
C140 O144 1.258 . S
C141 O148 1.247 . S
C141 O149 1.258 . S
O142 C140 1.247 . S
O142 Zn143 2.028 . S
Zn143 O142 2.028 . S
Zn143 O147 2.035 . S
Zn143 O149 2.035 . S
Zn143 O150 2.028 . S
O144 C140 1.258 . S
O144 Zn145 2.035 . S
Zn145 O144 2.035 . S
Zn145 O146 2.028 . S
Zn145 O148 2.028 . S
Zn145 O151 2.035 . S
O146 Zn145 2.028 . S
O146 C152 1.247 . S
O147 Zn143 2.035 . S
O147 C152 1.258 . S
O148 C141 1.247 . S
O148 Zn145 2.028 . S
O149 C141 1.258 . S
O149 Zn143 2.035 . S
O150 Zn143 2.028 . S
O150 C153 1.247 . S
O151 Zn145 2.035 . S
O151 C153 1.258 . S
C152 O146 1.247 . S
C152 O147 1.258 . S
C153 O150 1.247 . S
C153 O151 1.258 . S
C154 O156 1.247 . S
C154 O158 1.258 . S
C155 O162 1.247 . S
C155 O163 1.258 . S
O156 C154 1.247 . S
O156 Zn157 2.028 . S
Zn157 O156 2.028 . S
Zn157 O161 2.035 . S
Zn157 O163 2.035 . S
Zn157 O164 2.028 . S
O158 C154 1.258 . S
O158 Zn159 2.035 . S
Zn159 O158 2.035 . S
Zn159 O160 2.028 . S
Zn159 O162 2.028 . S
Zn159 O165 2.035 . S
O160 Zn159 2.028 . S
O160 C166 1.247 . S
O161 Zn157 2.035 . S
O161 C166 1.258 . S
O162 C155 1.247 . S
O162 Zn159 2.028 . S
O163 C155 1.258 . S
O163 Zn157 2.035 . S
O164 Zn157 2.028 . S
O164 C167 1.247 . S
O165 Zn159 2.035 . S
O165 C167 1.258 . S
C166 O160 1.247 . S
C166 O161 1.258 . S
C167 O164 1.247 . S
C167 O165 1.258 . S
H168 C176 0.950 . S
H169 C181 0.950 . S
H170 C178 0.950 . S
H171 C180 0.950 . S
H172 C182 0.950 . S
H173 C184 0.950 . S
H174 C186 0.950 . S
H175 C187 0.950 . S
C176 H168 0.950 . S
C176 C177 1.386 . S
C176 C178 1.391 . S
C177 C176 1.386 . S
C177 C181 1.393 . S
C178 H170 0.950 . S
C178 C176 1.391 . S
C178 C179 1.400 . S
C179 C178 1.400 . S
C179 C180 1.398 . S
C179 C185 1.491 . S
C180 H171 0.950 . S
C180 C179 1.398 . S
C180 C181 1.391 . S
C181 H169 0.950 . S
C181 C177 1.393 . S
C181 C180 1.391 . S
C182 H172 0.950 . S
C182 C183 1.386 . S
C182 C184 1.391 . S
C183 C182 1.386 . S
C183 C187 1.393 . S
C184 H173 0.950 . S
C184 C182 1.391 . S
C184 C185 1.400 . S
C185 C179 1.491 . S
C185 C184 1.400 . S
C185 C186 1.398 . S
C186 H174 0.950 . S
C186 C185 1.398 . S
C186 C187 1.391 . S
C187 H175 0.950 . S
C187 C183 1.393 . S
C187 C186 1.391 . S
H188 C196 0.950 . S
H189 C201 0.950 . S
H190 C198 0.950 . S
H191 C200 0.950 . S
H192 C202 0.950 . S
H193 C204 0.950 . S
H194 C206 0.950 . S
H195 C207 0.950 . S
C196 H188 0.950 . S
C196 C197 1.386 . S
C196 C198 1.391 . S
C197 C196 1.386 . S
C197 C201 1.393 . S
C198 H190 0.950 . S
C198 C196 1.391 . S
C198 C199 1.400 . S
C199 C198 1.400 . S
C199 C200 1.398 . S
C199 C205 1.491 . S
C200 H191 0.950 . S
C200 C199 1.398 . S
C200 C201 1.391 . S
C201 H189 0.950 . S
C201 C197 1.393 . S
C201 C200 1.391 . S
C202 H192 0.950 . S
C202 C203 1.386 . S
C202 C204 1.391 . S
C203 C202 1.386 . S
C203 C207 1.393 . S
C204 H193 0.950 . S
C204 C202 1.391 . S
C204 C205 1.400 . S
C205 C199 1.491 . S
C205 C204 1.400 . S
C205 C206 1.398 . S
C206 H194 0.950 . S
C206 C205 1.398 . S
C206 C207 1.391 . S
C207 H195 0.950 . S
C207 C203 1.393 . S
C207 C206 1.391 . S
H208 C216 0.950 . S
H209 C221 0.950 . S
H210 C218 0.950 . S
H211 C220 0.950 . S
H212 C222 0.950 . S
H213 C224 0.950 . S
H214 C226 0.950 . S
H215 C227 0.950 . S
C216 H208 0.950 . S
C216 C217 1.386 . S
C216 C218 1.391 . S
C217 C216 1.386 . S
C217 C221 1.393 . S
C218 H210 0.950 . S
C218 C216 1.391 . S
C218 C219 1.400 . S
C219 C218 1.400 . S
C219 C220 1.398 . S
C219 C225 1.491 . S
C220 H211 0.950 . S
C220 C219 1.398 . S
C220 C221 1.391 . S
C221 H209 0.950 . S
C221 C217 1.393 . S
C221 C220 1.391 . S
C222 H212 0.950 . S
C222 C223 1.386 . S
C222 C224 1.391 . S
C223 C222 1.386 . S
C223 C227 1.393 . S
C224 H213 0.950 . S
C224 C222 1.391 . S
C224 C225 1.400 . S
C225 C219 1.491 . S
C225 C224 1.400 . S
C225 C226 1.398 . S
C226 H214 0.950 . S
C226 C225 1.398 . S
C226 C227 1.391 . S
C227 H215 0.950 . S
C227 C223 1.393 . S
C227 C226 1.391 . S
H228 C236 0.950 . S
H229 C241 0.950 . S
H230 C238 0.950 . S
H231 C240 0.950 . S
H232 C242 0.950 . S
H233 C244 0.950 . S
H234 C246 0.950 . S
H235 C247 0.950 . S
C236 H228 0.950 . S
C236 C237 1.386 . S
C236 C238 1.391 . S
C237 C236 1.386 . S
C237 C241 1.393 . S
C238 H230 0.950 . S
C238 C236 1.391 . S
C238 C239 1.400 . S
C239 C238 1.400 . S
C239 C240 1.398 . S
C239 C245 1.491 . S
C240 H231 0.950 . S
C240 C239 1.398 . S
C240 C241 1.391 . S
C241 H229 0.950 . S
C241 C237 1.393 . S
C241 C240 1.391 . S
C242 H232 0.950 . S
C242 C243 1.386 . S
C242 C244 1.391 . S
C243 C242 1.386 . S
C243 C247 1.393 . S
C244 H233 0.950 . S
C244 C242 1.391 . S
C244 C245 1.400 . S
C245 C239 1.491 . S
C245 C244 1.400 . S
C245 C246 1.398 . S
C246 H234 0.950 . S
C246 C245 1.398 . S
C246 C247 1.391 . S
C247 H235 0.950 . S
C247 C243 1.393 . S
C247 C246 1.391 . S
H248 C256 0.950 . S
H249 C261 0.950 . S
H250 C258 0.950 . S
H251 C260 0.950 . S
H252 C262 0.950 . S
H253 C264 0.950 . S
H254 C266 0.950 . S
H255 C267 0.950 . S
C256 H248 0.950 . S
C256 C257 1.386 . S
C256 C258 1.391 . S
C257 C256 1.386 . S
C257 C261 1.393 . S
C258 H250 0.950 . S
C258 C256 1.391 . S
C258 C259 1.400 . S
C259 C258 1.400 . S
C259 C260 1.398 . S
C259 C265 1.491 . S
C260 H251 0.950 . S
C260 C259 1.398 . S
C260 C261 1.391 . S
C261 H249 0.950 . S
C261 C257 1.393 . S
C261 C260 1.391 . S
C262 H252 0.950 . S
C262 C263 1.386 . S
C262 C264 1.391 . S
C263 C262 1.386 . S
C263 C267 1.393 . S
C264 H253 0.950 . S
C264 C262 1.391 . S
C264 C265 1.400 . S
C265 C259 1.491 . S
C265 C264 1.400 . S
C265 C266 1.398 . S
C266 H254 0.950 . S
C266 C265 1.398 . S
C266 C267 1.391 . S
C267 H255 0.950 . S
C267 C263 1.393 . S
C267 C266 1.391 . S
H268 C276 0.950 . S
H269 C281 0.950 . S
H270 C278 0.950 . S
H271 C280 0.950 . S
H272 C282 0.950 . S
H273 C284 0.950 . S
H274 C286 0.950 . S
H275 C287 0.950 . S
C276 H268 0.950 . S
C276 C277 1.386 . S
C276 C278 1.391 . S
C277 C276 1.386 . S
C277 C281 1.393 . S
C278 H270 0.950 . S
C278 C276 1.391 . S
C278 C279 1.400 . S
C279 C278 1.400 . S
C279 C280 1.398 . S
C279 C285 1.491 . S
C280 H271 0.950 . S
C280 C279 1.398 . S
C280 C281 1.391 . S
C281 H269 0.950 . S
C281 C277 1.393 . S
C281 C280 1.391 . S
C282 H272 0.950 . S
C282 C283 1.386 . S
C282 C284 1.391 . S
C283 C282 1.386 . S
C283 C287 1.393 . S
C284 H273 0.950 . S
C284 C282 1.391 . S
C284 C285 1.400 . S
C285 C279 1.491 . S
C285 C284 1.400 . S
C285 C286 1.398 . S
C286 H274 0.950 . S
C286 C285 1.398 . S
C286 C287 1.391 . S
C287 H275 0.950 . S
C287 C283 1.393 . S
C287 C286 1.391 . S
H288 C296 0.950 . S
H289 C301 0.950 . S
H290 C298 0.950 . S
H291 C300 0.950 . S
H292 C302 0.950 . S
H293 C304 0.950 . S
H294 C306 0.950 . S
H295 C307 0.950 . S
C296 H288 0.950 . S
C296 C297 1.386 . S
C296 C298 1.391 . S
C297 C296 1.386 . S
C297 C301 1.393 . S
C298 H290 0.950 . S
C298 C296 1.391 . S
C298 C299 1.400 . S
C299 C298 1.400 . S
C299 C300 1.398 . S
C299 C305 1.491 . S
C300 H291 0.950 . S
C300 C299 1.398 . S
C300 C301 1.391 . S
C301 H289 0.950 . S
C301 C297 1.393 . S
C301 C300 1.391 . S
C302 H292 0.950 . S
C302 C303 1.386 . S
C302 C304 1.391 . S
C303 C302 1.386 . S
C303 C307 1.393 . S
C304 H293 0.950 . S
C304 C302 1.391 . S
C304 C305 1.400 . S
C305 C299 1.491 . S
C305 C304 1.400 . S
C305 C306 1.398 . S
C306 H294 0.950 . S
C306 C305 1.398 . S
C306 C307 1.391 . S
C307 H295 0.950 . S
C307 C303 1.393 . S
C307 C306 1.391 . S
H308 C316 0.950 . S
H309 C321 0.950 . S
H310 C318 0.950 1_655 S
H311 C320 0.950 . S
H312 C322 0.950 . S
H313 C324 0.950 1_455 S
H314 C326 0.950 . S
H315 C327 0.950 . S
C316 H308 0.950 . S
C316 C317 1.386 . S
C316 C318 1.391 . S
C317 C316 1.386 . S
C317 C321 1.393 . S
C318 H310 0.950 1_455 S
C318 C316 1.391 . S
C318 C319 1.400 . S
C319 C318 1.400 . S
C319 C320 1.398 . S
C319 C325 1.491 1_455 S
C320 H311 0.950 . S
C320 C319 1.398 . S
C320 C321 1.391 . S
C321 H309 0.950 . S
C321 C317 1.393 . S
C321 C320 1.391 . S
C322 H312 0.950 . S
C322 C323 1.386 . S
C322 C324 1.391 . S
C323 C322 1.386 . S
C323 C327 1.393 . S
C324 H313 0.950 1_655 S
C324 C322 1.391 . S
C324 C325 1.400 . S
C325 C319 1.491 1_655 S
C325 C324 1.400 . S
C325 C326 1.398 . S
C326 H314 0.950 . S
C326 C325 1.398 . S
C326 C327 1.391 . S
C327 H315 0.950 . S
C327 C323 1.393 . S
C327 C326 1.391 . S
H328 C336 0.950 . S
H329 C341 0.950 . S
H330 C338 0.950 . S
H331 C340 0.947 1_565 S
H332 C342 0.950 . S
H333 C344 0.950 . S
H334 C346 0.947 1_545 S
H335 C347 0.950 . S
C336 H328 0.950 . S
C336 C337 1.386 . S
C336 C338 1.391 . S
C337 C336 1.386 . S
C337 C341 1.393 . S
C338 H330 0.950 . S
C338 C336 1.391 . S
C338 C339 1.400 . S
C339 C338 1.400 . S
C339 C340 1.398 . S
C339 C345 1.491 1_545 S
C340 H331 0.947 1_545 S
C340 C339 1.398 . S
C340 C341 1.394 . S
C341 H329 0.950 . S
C341 C337 1.393 . S
C341 C340 1.394 . S
C342 H332 0.950 . S
C342 C343 1.386 . S
C342 C344 1.391 . S
C343 C342 1.386 . S
C343 C347 1.393 . S
C344 H333 0.950 . S
C344 C342 1.391 . S
C344 C345 1.400 . S
C345 C339 1.491 1_565 S
C345 C344 1.400 . S
C345 C346 1.398 . S
C346 H334 0.947 1_565 S
C346 C345 1.398 . S
C346 C347 1.394 . S
C347 H335 0.950 . S
C347 C343 1.393 . S
C347 C346 1.394 . S
H348 C356 0.950 . S
H349 C361 0.950 . S
H350 C358 0.950 . S
H351 C360 0.950 . S
H352 C362 0.950 . S
H353 C364 0.950 . S
H354 C366 0.950 . S
H355 C367 0.950 . S
C356 H348 0.950 . S
C356 C357 1.386 . S
C356 C358 1.391 . S
C357 C356 1.386 . S
C357 C361 1.393 . S
C358 H350 0.950 . S
C358 C356 1.391 . S
C358 C359 1.400 . S
C359 C358 1.400 . S
C359 C360 1.398 . S
C359 C365 1.491 . S
C360 H351 0.950 . S
C360 C359 1.398 . S
C360 C361 1.391 . S
C361 H349 0.950 . S
C361 C357 1.393 . S
C361 C360 1.391 . S
C362 H352 0.950 . S
C362 C363 1.386 . S
C362 C364 1.391 . S
C363 C362 1.386 . S
C363 C367 1.393 . S
C364 H353 0.950 . S
C364 C362 1.391 . S
C364 C365 1.400 . S
C365 C359 1.491 . S
C365 C364 1.400 . S
C365 C366 1.398 . S
C366 H354 0.950 . S
C366 C365 1.398 . S
C366 C367 1.391 . S
C367 H355 0.950 . S
C367 C363 1.393 . S
C367 C366 1.391 . S
H368 C376 0.950 . S
H369 C381 0.950 . S
H370 C378 0.950 1_455 S
H371 C380 0.950 . S
H372 C382 0.950 . S
H373 C384 0.950 1_655 S
H374 C386 0.950 . S
H375 C387 0.950 . S
C376 H368 0.950 . S
C376 C377 1.386 . S
C376 C378 1.391 . S
C377 C376 1.386 . S
C377 C381 1.393 . S
C378 H370 0.950 1_655 S
C378 C376 1.391 . S
C378 C379 1.400 . S
C379 C378 1.400 . S
C379 C380 1.398 . S
C379 C385 1.491 1_655 S
C380 H371 0.950 . S
C380 C379 1.398 . S
C380 C381 1.391 . S
C381 H369 0.950 . S
C381 C377 1.393 . S
C381 C380 1.391 . S
C382 H372 0.950 . S
C382 C383 1.386 . S
C382 C384 1.391 . S
C383 C382 1.386 . S
C383 C387 1.393 . S
C384 H373 0.950 1_455 S
C384 C382 1.391 . S
C384 C385 1.400 . S
C385 C379 1.491 1_455 S
C385 C384 1.400 . S
C385 C386 1.398 . S
C386 H374 0.950 . S
C386 C385 1.398 . S
C386 C387 1.391 . S
C387 H375 0.950 . S
C387 C383 1.393 . S
C387 C386 1.391 . S
H388 C396 0.950 . S
H389 C401 0.950 . S
H390 C398 0.950 1_545 S
H391 C400 0.950 . S
H392 C402 0.950 . S
H393 C404 0.950 1_565 S
H394 C406 0.950 . S
H395 C407 0.950 . S
C396 H388 0.950 . S
C396 C397 1.386 . S
C396 C398 1.391 . S
C397 C396 1.386 . S
C397 C401 1.393 . S
C398 H390 0.950 1_565 S
C398 C396 1.391 . S
C398 C399 1.400 . S
C399 C398 1.400 . S
C399 C400 1.398 . S
C399 C405 1.491 1_565 S
C400 H391 0.950 . S
C400 C399 1.398 . S
C400 C401 1.391 . S
C401 H389 0.950 . S
C401 C397 1.393 . S
C401 C400 1.391 . S
C402 H392 0.950 . S
C402 C403 1.386 . S
C402 C404 1.391 . S
C403 C402 1.386 . S
C403 C407 1.393 . S
C404 H393 0.950 1_545 S
C404 C402 1.391 . S
C404 C405 1.400 . S
C405 C399 1.491 1_545 S
C405 C404 1.400 . S
C405 C406 1.398 . S
C406 H394 0.950 . S
C406 C405 1.398 . S
C406 C407 1.391 . S
C407 H395 0.950 . S
C407 C403 1.393 . S
C407 C406 1.391 . S
H408 C416 0.950 . S
H409 C421 0.950 . S
H410 C418 0.950 . S
H411 C420 0.950 . S
H412 C422 0.950 . S
H413 C424 0.950 . S
H414 C426 0.950 . S
H415 C427 0.950 . S
C416 H408 0.950 . S
C416 C417 1.386 . S
C416 C418 1.391 . S
C417 C416 1.386 . S
C417 C421 1.393 . S
C418 H410 0.950 . S
C418 C416 1.391 . S
C418 C419 1.400 . S
C419 C418 1.400 . S
C419 C420 1.398 . S
C419 C425 1.491 . S
C420 H411 0.950 . S
C420 C419 1.398 . S
C420 C421 1.391 . S
C421 H409 0.950 . S
C421 C417 1.393 . S
C421 C420 1.391 . S
C422 H412 0.950 . S
C422 C423 1.386 . S
C422 C424 1.391 . S
C423 C422 1.386 . S
C423 C427 1.393 . S
C424 H413 0.950 . S
C424 C422 1.391 . S
C424 C425 1.400 . S
C425 C419 1.491 . S
C425 C424 1.400 . S
C425 C426 1.398 . S
C426 H414 0.950 . S
C426 C425 1.398 . S
C426 C427 1.391 . S
C427 H415 0.950 . S
C427 C423 1.393 . S
C427 C426 1.391 . S
H428 C436 0.950 1_455 S
H429 C441 0.950 . S
H430 C438 0.950 . S
H431 C440 0.950 . S
H432 C442 0.950 1_655 S
H433 C444 0.950 . S
H434 C446 0.950 . S
H435 C447 0.950 . S
C436 H428 0.950 1_655 S
C436 C437 1.386 . S
C436 C438 1.391 1_655 S
C437 C436 1.386 . S
C437 C441 1.393 . S
C438 H430 0.950 . S
C438 C436 1.391 1_455 S
C438 C439 1.400 1_455 S
C439 C438 1.400 1_655 S
C439 C440 1.398 . S
C439 C445 1.491 1_655 S
C440 H431 0.950 . S
C440 C439 1.398 . S
C440 C441 1.391 . S
C441 H429 0.950 . S
C441 C437 1.393 . S
C441 C440 1.391 . S
C442 H432 0.950 1_455 S
C442 C443 1.386 . S
C442 C444 1.391 1_455 S
C443 C442 1.386 . S
C443 C447 1.393 . S
C444 H433 0.950 . S
C444 C442 1.391 1_655 S
C444 C445 1.400 1_655 S
C445 C439 1.491 1_455 S
C445 C444 1.400 1_455 S
C445 C446 1.398 . S
C446 H434 0.950 . S
C446 C445 1.398 . S
C446 C447 1.391 . S
C447 H435 0.950 . S
C447 C443 1.393 . S
C447 C446 1.391 . S
H448 C456 0.950 . S
H449 C461 0.950 . S
H450 C458 0.950 1_545 S
H451 C460 0.950 . S
H452 C462 0.950 . S
H453 C464 0.950 1_565 S
H454 C466 0.950 . S
H455 C467 0.950 . S
C456 H448 0.950 . S
C456 C457 1.386 . S
C456 C458 1.391 . S
C457 C456 1.386 . S
C457 C461 1.393 . S
C458 H450 0.950 1_565 S
C458 C456 1.391 . S
C458 C459 1.400 . S
C459 C458 1.400 . S
C459 C460 1.398 . S
C459 C465 1.491 1_566 S
C460 H451 0.950 . S
C460 C459 1.398 . S
C460 C461 1.391 . S
C461 H449 0.950 . S
C461 C457 1.393 . S
C461 C460 1.391 . S
C462 H452 0.950 . S
C462 C463 1.386 . S
C462 C464 1.391 . S
C463 C462 1.386 . S
C463 C467 1.393 . S
C464 H453 0.950 1_545 S
C464 C462 1.391 . S
C464 C465 1.400 . S
C465 C459 1.491 1_544 S
C465 C464 1.400 . S
C465 C466 1.398 . S
C466 H454 0.950 . S
C466 C465 1.398 . S
C466 C467 1.391 . S
C467 H455 0.950 . S
C467 C463 1.393 . S
C467 C466 1.391 . S
H468 C476 0.950 . S
H469 C481 0.950 . S
H470 C478 0.950 . S
H471 C480 0.950 . S
H472 C482 0.950 . S
H473 C484 0.950 . S
H474 C486 0.950 . S
H475 C487 0.950 . S
C476 H468 0.950 . S
C476 C477 1.386 . S
C476 C478 1.391 . S
C477 C476 1.386 . S
C477 C481 1.393 . S
C478 H470 0.950 . S
C478 C476 1.391 . S
C478 C479 1.400 . S
C479 C478 1.400 . S
C479 C480 1.398 . S
C479 C485 1.491 . S
C480 H471 0.950 . S
C480 C479 1.398 . S
C480 C481 1.391 . S
C481 H469 0.950 . S
C481 C477 1.393 . S
C481 C480 1.391 . S
C482 H472 0.950 . S
C482 C483 1.386 . S
C482 C484 1.391 . S
C483 C482 1.386 . S
C483 C487 1.393 . S
C484 H473 0.950 . S
C484 C482 1.391 . S
C484 C485 1.400 . S
C485 C479 1.491 . S
C485 C484 1.400 . S
C485 C486 1.398 . S
C486 H474 0.950 . S
C486 C485 1.398 . S
C486 C487 1.391 . S
C487 H475 0.950 . S
C487 C483 1.393 . S
C487 C486 1.391 . S
H488 C496 0.950 . S
H489 C501 0.950 . S
H490 C498 0.950 . S
H491 C500 0.950 1_655 S
H492 C502 0.950 . S
H493 C504 0.950 . S
H494 C506 0.950 1_455 S
H495 C507 0.950 . S
C496 H488 0.950 . S
C496 C497 1.386 . S
C496 C498 1.391 . S
C497 C496 1.386 . S
C497 C501 1.393 . S
C498 H490 0.950 . S
C498 C496 1.391 . S
C498 C499 1.400 . S
C499 C498 1.400 . S
C499 C500 1.398 . S
C499 C505 1.491 1_455 S
C500 H491 0.950 1_455 S
C500 C499 1.398 . S
C500 C501 1.391 . S
C501 H489 0.950 . S
C501 C497 1.393 . S
C501 C500 1.391 . S
C502 H492 0.950 . S
C502 C503 1.386 . S
C502 C504 1.391 . S
C503 C502 1.386 . S
C503 C507 1.393 . S
C504 H493 0.950 . S
C504 C502 1.391 . S
C504 C505 1.400 . S
C505 C499 1.491 1_655 S
C505 C504 1.400 . S
C505 C506 1.398 . S
C506 H494 0.950 1_655 S
C506 C505 1.398 . S
C506 C507 1.391 . S
C507 H495 0.950 . S
C507 C503 1.393 . S
C507 C506 1.391 . S
H508 C516 0.950 1_545 S
H509 C521 0.950 . S
H510 C518 0.950 . S
H511 C520 0.950 . S
H512 C522 0.950 1_565 S
H513 C524 0.950 . S
H514 C526 0.950 . S
H515 C527 0.950 . S
C516 H508 0.950 1_565 S
C516 C517 1.386 . S
C516 C518 1.391 1_565 S
C517 C516 1.386 . S
C517 C521 1.393 . S
C518 H510 0.950 . S
C518 C516 1.391 1_545 S
C518 C519 1.400 1_545 S
C519 C518 1.400 1_565 S
C519 C520 1.398 . S
C519 C525 1.491 1_564 S
C520 H511 0.950 . S
C520 C519 1.398 . S
C520 C521 1.391 . S
C521 H509 0.950 . S
C521 C517 1.393 . S
C521 C520 1.391 . S
C522 H512 0.950 1_545 S
C522 C523 1.386 . S
C522 C524 1.391 1_545 S
C523 C522 1.386 . S
C523 C527 1.393 . S
C524 H513 0.950 . S
C524 C522 1.391 1_565 S
C524 C525 1.400 1_565 S
C525 C519 1.491 1_546 S
C525 C524 1.400 1_545 S
C525 C526 1.398 . S
C526 H514 0.950 . S
C526 C525 1.398 . S
C526 C527 1.391 . S
C527 H515 0.950 . S
C527 C523 1.393 . S
C527 C526 1.391 . S
H528 C536 0.950 . S
H529 C541 0.950 . S
H530 C538 0.950 . S
H531 C540 0.950 . S
H532 C542 0.950 . S
H533 C544 0.950 . S
H534 C546 0.950 . S
H535 C547 0.950 . S
C536 H528 0.950 . S
C536 C537 1.386 . S
C536 C538 1.391 . S
C537 C536 1.386 . S
C537 C541 1.393 . S
C538 H530 0.950 . S
C538 C536 1.391 . S
C538 C539 1.400 . S
C539 C538 1.400 . S
C539 C540 1.398 . S
C539 C545 1.491 1_655 S
C540 H531 0.950 . S
C540 C539 1.398 . S
C540 C541 1.391 . S
C541 H529 0.950 . S
C541 C537 1.393 . S
C541 C540 1.391 . S
C542 H532 0.950 . S
C542 C543 1.386 . S
C542 C544 1.391 . S
C543 C542 1.386 . S
C543 C547 1.393 . S
C544 H533 0.950 . S
C544 C542 1.391 . S
C544 C545 1.400 . S
C545 C539 1.491 1_455 S
C545 C544 1.400 . S
C545 C546 1.398 . S
C546 H534 0.950 . S
C546 C545 1.398 . S
C546 C547 1.391 . S
C547 H535 0.950 . S
C547 C543 1.393 . S
C547 C546 1.391 . S
H548 C556 0.950 . S
H549 C561 0.950 . S
H550 C558 0.950 . S
H551 C560 0.950 . S
H552 C562 0.950 . S
H553 C564 0.950 . S
H554 C566 0.950 . S
H555 C567 0.950 . S
C556 H548 0.950 . S
C556 C557 1.386 . S
C556 C558 1.391 . S
C557 C556 1.386 . S
C557 C561 1.393 . S
C558 H550 0.950 . S
C558 C556 1.391 . S
C558 C559 1.400 . S
C559 C558 1.400 . S
C559 C560 1.398 . S
C559 C565 1.491 1_545 S
C560 H551 0.950 . S
C560 C559 1.398 . S
C560 C561 1.391 . S
C561 H549 0.950 . S
C561 C557 1.393 . S
C561 C560 1.391 . S
C562 H552 0.950 . S
C562 C563 1.386 . S
C562 C564 1.391 . S
C563 C562 1.386 . S
C563 C567 1.393 . S
C564 H553 0.950 . S
C564 C562 1.391 . S
C564 C565 1.400 . S
C565 C559 1.491 1_565 S
C565 C564 1.400 . S
C565 C566 1.398 . S
C566 H554 0.950 . S
C566 C565 1.398 . S
C566 C567 1.391 . S
C567 H555 0.950 . S
C567 C563 1.393 . S
C567 C566 1.391 . S
H568 C576 0.950 . S
H569 C581 0.950 . S
H570 C578 0.950 . S
H571 C580 0.950 . S
H572 C582 0.950 . S
H573 C584 0.950 . S
H574 C586 0.950 . S
H575 C587 0.950 . S
C576 H568 0.950 . S
C576 C577 1.386 . S
C576 C578 1.391 . S
C577 C576 1.386 . S
C577 C581 1.393 . S
C578 H570 0.950 . S
C578 C576 1.391 . S
C578 C579 1.400 . S
C579 C578 1.400 . S
C579 C580 1.398 . S
C579 C585 1.491 . S
C580 H571 0.950 . S
C580 C579 1.398 . S
C580 C581 1.391 . S
C581 H569 0.950 . S
C581 C577 1.393 . S
C581 C580 1.391 . S
C582 H572 0.950 . S
C582 C583 1.386 . S
C582 C584 1.391 . S
C583 C582 1.386 . S
C583 C587 1.393 . S
C584 H573 0.950 . S
C584 C582 1.391 . S
C584 C585 1.400 . S
C585 C579 1.491 . S
C585 C584 1.400 . S
C585 C586 1.398 . S
C586 H574 0.950 . S
C586 C585 1.398 . S
C586 C587 1.391 . S
C587 H575 0.950 . S
C587 C583 1.393 . S
C587 C586 1.391 . S
H588 C596 0.950 . S
H589 C601 0.950 . S
H590 C598 0.950 . S
H591 C600 0.950 . S
H592 C602 0.950 . S
H593 C604 0.950 . S
H594 C606 0.950 . S
H595 C607 0.950 . S
C596 H588 0.950 . S
C596 C597 1.386 . S
C596 C598 1.391 . S
C597 C596 1.386 . S
C597 C601 1.393 . S
C598 H590 0.950 . S
C598 C596 1.391 . S
C598 C599 1.400 . S
C599 C598 1.400 . S
C599 C600 1.398 . S
C599 C605 1.491 1_655 S
C600 H591 0.950 . S
C600 C599 1.398 . S
C600 C601 1.391 . S
C601 H589 0.950 . S
C601 C597 1.393 . S
C601 C600 1.391 . S
C602 H592 0.950 . S
C602 C603 1.386 . S
C602 C604 1.391 . S
C603 C602 1.386 . S
C603 C607 1.393 . S
C604 H593 0.950 . S
C604 C602 1.391 . S
C604 C605 1.400 . S
C605 C599 1.491 1_455 S
C605 C604 1.400 . S
C605 C606 1.398 . S
C606 H594 0.950 . S
C606 C605 1.398 . S
C606 C607 1.391 . S
C607 H595 0.950 . S
C607 C603 1.393 . S
C607 C606 1.391 . S
H608 C616 0.950 . S
H609 C621 0.950 . S
H610 C618 0.950 . S
H611 C620 0.950 . S
H612 C622 0.950 . S
H613 C624 0.950 . S
H614 C626 0.950 . S
H615 C627 0.950 . S
C616 H608 0.950 . S
C616 C617 1.386 . S
C616 C618 1.391 . S
C617 C616 1.386 . S
C617 C621 1.393 . S
C618 H610 0.950 . S
C618 C616 1.391 . S
C618 C619 1.400 . S
C619 C618 1.400 . S
C619 C620 1.398 . S
C619 C625 1.491 1_565 S
C620 H611 0.950 . S
C620 C619 1.398 . S
C620 C621 1.391 . S
C621 H609 0.950 . S
C621 C617 1.393 . S
C621 C620 1.391 . S
C622 H612 0.950 . S
C622 C623 1.386 . S
C622 C624 1.391 . S
C623 C622 1.386 . S
C623 C627 1.393 . S
C624 H613 0.950 . S
C624 C622 1.391 . S
C624 C625 1.400 . S
C625 C619 1.491 1_545 S
C625 C624 1.400 . S
C625 C626 1.398 . S
C626 H614 0.950 . S
C626 C625 1.398 . S
C626 C627 1.391 . S
C627 H615 0.950 . S
C627 C623 1.393 . S
C627 C626 1.391 . S
H628 C636 0.950 . S
H629 C641 0.950 . S
H630 C638 0.950 . S
H631 C640 0.950 . S
H632 C642 0.950 . S
H633 C644 0.950 . S
H634 C646 0.950 . S
H635 C647 0.950 . S
C636 H628 0.950 . S
C636 C637 1.386 . S
C636 C638 1.391 . S
C637 C636 1.386 . S
C637 C641 1.393 . S
C638 H630 0.950 . S
C638 C636 1.391 . S
C638 C639 1.400 . S
C639 C638 1.400 . S
C639 C640 1.398 . S
C639 C645 1.491 . S
C640 H631 0.950 . S
C640 C639 1.398 . S
C640 C641 1.391 . S
C641 H629 0.950 . S
C641 C637 1.393 . S
C641 C640 1.391 . S
C642 H632 0.950 . S
C642 C643 1.386 . S
C642 C644 1.391 . S
C643 C642 1.386 . S
C643 C647 1.393 . S
C644 H633 0.950 . S
C644 C642 1.391 . S
C644 C645 1.400 . S
C645 C639 1.491 . S
C645 C644 1.400 . S
C645 C646 1.398 . S
C646 H634 0.950 . S
C646 C645 1.398 . S
C646 C647 1.391 . S
C647 H635 0.950 . S
C647 C643 1.393 . S
C647 C646 1.391 . S
C177 C112 2.193 . S
C183 C1 2.188 . S
C197 C27 2.184 . S
C203 C126 2.182 . S
C217 C29 2.169 . S
C223 C141 2.170 . S
C237 C43 2.189 . S
C243 C154 2.193 . S
C257 C84 2.188 . S
C263 C57 2.189 . S
C277 C71 2.187 . S
C283 C99 2.182 . S
C297 C55 1.460 . S
C303 C13 1.465 . S
C317 C69 1.460 . S
C323 C15 1.466 . S
C337 C83 1.466 . S
C343 C41 1.460 . S
C357 C96 1.463 . S
C363 C138 1.462 . S
C377 C111 1.462 . S
C383 C153 1.467 . S
C397 C124 1.461 . S
C403 C166 1.467 . S
C417 C0 1.858 . S
C423 C127 1.854 . S
C437 C26 1.862 . S
C443 C140 1.872 . S
C457 C28 1.857 . S
C463 C155 1.856 . S
C477 C85 1.874 . S
C483 C42 1.870 . S
C497 C56 1.861 . S
C503 C98 1.857 . S
C517 C113 1.863 . S
C523 C70 1.875 . S
C537 C167 1.428 . S
C543 C12 1.425 . S
C557 C14 1.425 . S
C563 C97 1.428 . S
C577 C110 1.433 . S
C583 C40 1.429 . S
C597 C54 1.433 . S
C603 C125 1.431 . S
C617 C68 1.433 . S
C623 C139 1.432 . S
C637 C152 1.421 . S
C643 C82 1.423 . S
