# Generated by pormake.
# Topology uni, (4)-cn, num edge types: 1
# Building blocks:
#     Node 0, Type 0, BuildingBlock: QUQFOY_clean_sbu_3, # of connection points: 4
#     Node 1, Type 0, BuildingBlock: QUQFOY_clean_sbu_3, # of connection points: 4
#     Node 2, Type 0, BuildingBlock: QUQFOY_clean_sbu_3, # of connection points: 4
#     Node 3, Type 0, BuildingBlock: QUQFOY_clean_sbu_3, # of connection points: 4
#     Node 4, Type 0, BuildingBlock: QUQFOY_clean_sbu_3, # of connection points: 4
#     Node 5, Type 0, BuildingBlock: QUQFOY_clean_sbu_3, # of connection points: 4
#     Edge 6, Type (0, 0), BuildingBlock: XUDNAN_clean_linker_2, # of connection points: 2
#     Edge 7, Type (0, 0), BuildingBlock: XUDNAN_clean_linker_2, # of connection points: 2
#     Edge 8, Type (0, 0), BuildingBlock: XUDNAN_clean_linker_2, # of connection points: 2
#     Edge 9, Type (0, 0), BuildingBlock: XUDNAN_clean_linker_2, # of connection points: 2
#     Edge 10, Type (0, 0), BuildingBlock: XUDNAN_clean_linker_2, # of connection points: 2
#     Edge 11, Type (0, 0), BuildingBlock: XUDNAN_clean_linker_2, # of connection points: 2
#     Edge 12, Type (0, 0), BuildingBlock: XUDNAN_clean_linker_2, # of connection points: 2
#     Edge 13, Type (0, 0), BuildingBlock: XUDNAN_clean_linker_2, # of connection points: 2
#     Edge 14, Type (0, 0), BuildingBlock: XUDNAN_clean_linker_2, # of connection points: 2
#     Edge 15, Type (0, 0), BuildingBlock: XUDNAN_clean_linker_2, # of connection points: 2
#     Edge 16, Type (0, 0), BuildingBlock: XUDNAN_clean_linker_2, # of connection points: 2
#     Edge 17, Type (0, 0), BuildingBlock: XUDNAN_clean_linker_2, # of connection points: 2
# Relax obj value: 0.064
# Max RMSD: 0.096
# Mean RMSD: 0.087
data_MOF--net-uni--node1-QUQFOY_clean_sbu_3--edge1-XUDNAN_clean_linker_2
_symmetry_space_group_name_H-M    P1
_symmetry_Int_Tables_number       1
_symmetry_cell_setting            triclinic
loop_
_symmetry_equiv_pos_as_xyz
'x, y, z'
_cell_length_a     40.410978
_cell_length_b     41.106946
_cell_length_c     23.485759
_cell_angle_alpha  90.067462
_cell_angle_beta   90.004518
_cell_angle_gamma 120.24819
loop_
_atom_site_label
_atom_site_type_symbol
_atom_site_fract_x
_atom_site_fract_y
_atom_site_fract_z
_atom_type_partial_charge
C0 C 0.71034 0.10886 0.07263 0.0
O1 O 0.69548 0.12633 0.09601 0.0
Cd2 Cd 0.63312 0.09683 0.13823 0.0
O3 O 0.6937 0.07302 0.07389 0.0
Cd4 Cd 0.63558 0.01994 0.1188 0.0
C5 C 0.57741 0.03548 0.03245 0.0
O6 O 0.63447 0.05345 0.20422 0.0
O7 O 0.58717 -0.00308 0.19434 0.0
O8 O 0.67641 -0.00681 0.13955 0.0
C9 C 0.6033 0.02686 0.22362 0.0
O10 O 0.5872 0.06548 0.06065 0.0
C11 C 0.65226 0.9603 0.12227 0.0
O12 O 0.59152 0.01466 0.04379 0.0
O13 O 0.62069 0.95538 0.10305 0.0
C14 C 0.70114 0.62502 0.20023 0.0
O15 O 0.68543 0.59283 0.17672 0.0
Cd16 Cd 0.62997 0.5674 0.11774 0.0
O17 O 0.68794 0.64705 0.19296 0.0
Cd18 Cd 0.63286 0.64435 0.14104 0.0
C19 C 0.56956 0.56893 0.21821 0.0
O20 O 0.63691 0.61532 0.05213 0.0
O21 O 0.5845 0.61588 0.06664 0.0
O22 O 0.67448 0.71176 0.1233 0.0
C23 C 0.60485 0.60905 0.03322 0.0
O24 O 0.57884 0.54933 0.1873 0.0
C25 C 0.64992 0.72073 0.13813 0.0
O26 O 0.58606 0.60453 0.21249 0.0
O27 O 0.61753 0.69423 0.15449 0.0
C28 C 0.90456 0.62468 0.41716 0.0
O29 O 0.891 0.59332 0.44263 0.0
Cd30 Cd 0.92573 0.56182 0.46002 0.0
O31 O 0.93997 0.64346 0.40408 0.0
Cd32 Cd -0.00188 0.63784 0.41741 0.0
C33 C 0.96114 0.56627 0.3241 0.0
O34 O -0.01534 0.6032 0.50616 0.0
O35 O 0.02548 0.60011 0.45016 0.0
O36 O 0.0364 0.69709 0.46612 0.0
C37 C 0.00891 0.59268 0.49818 0.0
O38 O 0.93797 0.5476 0.36403 0.0
C39 C 0.06135 0.71278 0.42736 0.0
O40 O -0.01355 0.60088 0.33036 0.0
O41 O 0.05659 0.69402 0.38197 0.0
C42 C 0.29781 0.92526 0.57056 0.0
O43 O 0.31401 0.90932 0.5946 0.0
Cd44 Cd 0.37589 0.94098 0.63793 0.0
O45 O 0.31257 0.96095 0.5719 0.0
Cd46 Cd 0.36909 0.01568 0.61805 0.0
C47 C 0.43058 0.00434 0.53319 0.0
O48 O 0.3737 0.98417 0.70272 0.0
O49 O 0.42107 0.04026 0.68872 0.0
O50 O 0.3331 0.04269 0.65989 0.0
C51 C 0.40545 0.01115 0.71987 0.0
O52 O 0.42131 0.97444 0.56124 0.0
C53 C 0.34903 0.07274 0.63069 0.0
O54 O 0.41543 0.02435 0.544 0.0
O55 O 0.37353 0.07584 0.59394 0.0
C56 C 0.31344 0.41882 0.69722 0.0
O57 O 0.33234 0.45103 0.67396 0.0
Cd58 Cd 0.38637 0.47305 0.61078 0.0
O59 O 0.32309 0.39395 0.69018 0.0
Cd60 Cd 0.37622 0.39021 0.64391 0.0
C61 C 0.44806 0.47036 0.70663 0.0
O62 O 0.3745 0.41966 0.55634 0.0
O63 O 0.4207 0.40803 0.56251 0.0
O64 O 0.34172 0.3234 0.6172 0.0
C65 C 0.40361 0.42119 0.53349 0.0
O66 O 0.44097 0.49026 0.67285 0.0
C67 C 0.35713 0.31361 0.65549 0.0
O68 O 0.42742 0.43458 0.70767 0.0
O69 O 0.38104 0.33916 0.68841 0.0
C70 C 0.10716 0.4192 0.9136 0.0
O71 O 0.11644 0.45263 0.9274 0.0
Cd72 Cd 0.07297 0.47433 0.95244 0.0
O73 O 0.07211 0.39335 0.91195 0.0
Cd74 Cd 0.00983 0.38983 0.92534 0.0
C75 C 0.02748 0.45549 0.82466 0.0
O76 O 0.02217 0.42925 0.01023 0.0
O77 O 0.97073 0.41443 0.96225 0.0
O78 O 0.97846 0.32987 0.97501 0.0
C79 C -0.00904 0.4295 0.00623 0.0
O80 O 0.0469 0.48004 0.86241 0.0
C81 C 0.95368 0.3121 0.9366 0.0
O82 O 0.01359 0.42046 0.83404 0.0
O83 O 0.95611 0.32993 0.89119 0.0
H84 H 0.5483 0.97197 0.29014 0.0
H85 H 0.61419 0.09314 0.26794 0.0
H86 H 0.57726 0.10102 0.34544 0.0
H87 H 0.45879 0.96416 0.31827 0.0
H88 H 0.44469 0.92811 0.3717 0.0
H89 H 0.47703 0.93218 0.31579 0.0
H90 H 0.52696 0.93836 0.39081 0.0
H91 H 0.49462 0.93395 0.44699 0.0
H92 H 0.54241 0.97418 0.44505 0.0
H93 H 0.5292 0.09486 0.42015 0.0
H94 H 0.47887 0.0757 0.49376 0.0
H95 H 0.44776 0.95897 0.47034 0.0
C96 C 0.55516 0.00017 0.30196 0.0
C97 C 0.58393 0.03196 0.27312 0.0
C98 C 0.59233 0.06845 0.28984 0.0
C99 C 0.57141 0.07317 0.33355 0.0
C100 C 0.54272 0.04114 0.36055 0.0
C101 C 0.53509 0.0054 0.34604 0.0
C102 C 0.50313 0.97561 0.38193 0.0
C103 C 0.4689 0.94842 0.34469 0.0
C104 C 0.51766 0.95428 0.41836 0.0
C105 C 0.4935 7e-05 0.41831 0.0
C106 C 0.51637 0.03777 0.40507 0.0
C107 C 0.51146 0.06547 0.43139 0.0
C108 C 0.48272 0.05434 0.47284 0.0
C109 C 0.45972 0.01593 0.48795 0.0
C110 C 0.46528 0.98859 0.46017 0.0
H111 H 0.55345 0.506 0.27851 0.0
H112 H 0.51936 0.58987 0.25756 0.0
H113 H 0.46972 0.55818 0.33175 0.0
H114 H 0.45948 0.42548 0.30762 0.0
H115 H 0.47712 0.40654 0.36103 0.0
H116 H 0.50775 0.43399 0.3032 0.0
H117 H 0.55872 0.47931 0.37546 0.0
H118 H 0.52834 0.45196 0.43345 0.0
H119 H 0.54523 0.50169 0.4294 0.0
H120 H 0.424 0.5173 0.40794 0.0
H121 H 0.39013 0.47453 0.48814 0.0
H122 H 0.4575 0.42022 0.46396 0.0
C123 C 0.53518 0.51738 0.28908 0.0
C124 C 0.53978 0.55005 0.26203 0.0
C125 C 0.5161 0.56477 0.27783 0.0
C126 C 0.48777 0.54687 0.31961 0.0
C127 C 0.48399 0.51469 0.34558 0.0
C128 C 0.50739 0.50038 0.33148 0.0
C129 C 0.49945 0.46718 0.36874 0.0
C130 C 0.48509 0.43117 0.333 0.0
C131 C 0.53505 0.47556 0.40384 0.0
C132 C 0.46798 0.4651 0.40618 0.0
C133 C 0.45904 0.49233 0.39148 0.0
C134 C 0.43079 0.49591 0.41991 0.0
C135 C 0.41164 0.47141 0.46525 0.0
C136 C 0.42133 0.44419 0.48225 0.0
C137 C 0.44961 0.44085 0.45192 0.0
H138 H 0.0163 0.51426 0.80424 0.0
H139 H 0.02682 0.42597 0.72007 0.0
H140 H 0.0235 0.45169 0.62616 0.0
H141 H 0.94741 0.51383 0.70338 0.0
H142 H 0.96696 0.56399 0.70863 0.0
H143 H 0.96994 0.53823 0.7685 0.0
H144 H 0.04359 0.58265 0.77133 0.0
H145 H 0.04091 0.60831 0.71115 0.0
H146 H 0.07147 0.58813 0.70838 0.0
H147 H 0.02497 0.4909 0.54221 0.0
H148 H 0.02181 0.53509 0.47386 0.0
H149 H 0.00435 0.59383 0.61363 0.0
C150 C 0.01764 0.50024 0.76596 0.0
C151 C 0.02206 0.46838 0.76895 0.0
C152 C 0.02329 0.45038 0.7183 0.0
C153 C 0.02163 0.46489 0.66498 0.0
C154 C 0.01789 0.4968 0.66347 0.0
C155 C 0.01506 0.51374 0.71265 0.0
C156 C 0.01015 0.54708 0.69957 0.0
C157 C 0.9713 0.54036 0.7213 0.0
C158 C 0.04352 0.5837 0.72406 0.0
C159 C 0.01137 0.54675 0.63529 0.0
C160 C 0.01636 0.51786 0.61523 0.0
C161 C 0.02047 0.51325 0.55736 0.0
C162 C 0.01889 0.53855 0.51898 0.0
C163 C 0.01254 0.56749 0.53877 0.0
C164 C 0.00873 0.57157 0.59756 0.0
H165 H 0.56223 0.08134 0.96667 0.0
H166 H 0.5277 0.96418 -0.00478 0.0
H167 H 0.47805 0.94498 0.92068 0.0
H168 H 0.4688 0.06824 0.93801 0.0
H169 H 0.48534 0.10315 0.88241 0.0
H170 H 0.51714 0.1076 0.9395 0.0
H171 H 0.56659 0.11063 0.86624 0.0
H172 H 0.53503 0.10638 0.80893 0.0
H173 H 0.55197 0.07346 0.81443 0.0
H174 H 0.43096 0.93856 0.84526 0.0
H175 H 0.39423 0.94565 0.7669 0.0
H176 H 0.46259 0.0672 0.78309 0.0
C177 C 0.54408 0.05164 0.95736 0.0
C178 C 0.54852 0.02418 0.98687 0.0
C179 C 0.52473 0.98564 0.97296 0.0
C180 C 0.49637 0.97447 0.93096 0.0
C181 C 0.49262 0.00225 0.90278 0.0
C182 C 0.51617 0.04007 0.91481 0.0
C183 C 0.50747 0.06437 0.87638 0.0
C184 C 0.49387 0.08718 0.91117 0.0
C185 C 0.54234 0.09023 0.83929 0.0
C186 C 0.47525 0.0343 0.84099 0.0
C187 C 0.46675 -0.00136 0.85744 0.0
C188 C 0.43749 0.96634 0.83175 0.0
C189 C 0.41671 0.97064 0.78751 0.0
C190 C 0.42575 0.00695 0.76893 0.0
C191 C 0.45528 0.03911 0.79626 0.0
H192 H 0.53044 0.55842 0.00943 0.0
H193 H 0.6442 0.61472 0.93554 0.0
H194 H 0.61696 0.58268 0.84343 0.0
H195 H 0.4979 0.46884 0.93635 0.0
H196 H 0.44961 0.45982 0.92865 0.0
H197 H 0.47838 0.4869 0.98831 0.0
H198 H 0.46727 0.54173 0.96085 0.0
H199 H 0.43845 0.51485 0.90124 0.0
H200 H 0.47922 0.56116 0.89005 0.0
H201 H 0.57577 0.54917 0.75731 0.0
H202 H 0.5247 0.51227 0.68643 0.0
H203 H 0.43951 0.47336 0.82018 0.0
C204 C 0.54959 0.56393 0.97382 0.0
C205 C 0.58927 0.58925 0.97897 0.0
C206 C 0.61365 0.59539 0.93203 0.0
C207 C 0.59845 0.57737 0.87976 0.0
C208 C 0.55903 0.55266 0.87594 0.0
C209 C 0.53507 0.54547 0.92207 0.0
C210 C 0.49386 0.51744 0.90733 0.0
C211 C 0.47908 0.4811 0.94223 0.0
C212 C 0.46821 0.53485 0.91532 0.0
C213 C 0.49811 0.51075 0.84516 0.0
C214 C 0.53587 0.53146 0.82764 0.0
C215 C 0.54627 0.53217 0.77081 0.0
C216 C 0.51726 0.51126 0.73096 0.0
C217 C 0.47871 0.48956 0.74862 0.0
C218 C 0.46908 0.489 0.80631 0.0
H219 H 0.03714 0.48555 0.08085 0.0
H220 H 0.91885 0.41567 0.02744 0.0
H221 H 0.89878 0.44596 0.09968 0.0
H222 H 0.02005 0.48567 0.22895 0.0
H223 H 0.05633 0.53421 0.23992 0.0
H224 H 0.06145 0.50761 0.18317 0.0
H225 H 0.06812 0.55793 0.11042 0.0
H226 H 0.06285 0.58464 0.16699 0.0
H227 H 0.03125 0.57029 0.10631 0.0
H228 H 0.89099 0.47957 0.18244 0.0
H229 H 0.89639 0.51746 0.2675 0.0
H230 H 0.02005 0.56954 0.26233 0.0
C231 C 0.00705 0.47672 0.08441 0.0
C232 C 0.97945 0.44817 0.04896 0.0
C233 C 0.94039 0.43755 0.05426 0.0
C234 C 0.92874 0.45458 0.09508 0.0
C235 C 0.95662 0.48264 0.12943 0.0
C236 C -0.00499 0.49399 0.12416 0.0
C237 C 0.01909 0.52483 0.16647 0.0
C238 C 0.04047 0.51231 0.20703 0.0
C239 C 0.04697 0.5616 0.1357 0.0
C240 C -0.01188 0.52835 0.19729 0.0
C241 C 0.95228 0.50363 0.17531 0.0
C242 C 0.9189 0.49955 0.19938 0.0
C243 C 0.92221 0.52107 0.24759 0.0
C244 C 0.95862 0.54671 0.27047 0.0
C245 C -0.00801 0.55081 0.24453 0.0
H246 H 0.59868 0.74554 0.1349 0.0
H247 H 0.72043 0.78463 0.13615 0.0
H248 H 0.73461 0.85061 0.13333 0.0
H249 H 0.60441 0.81479 0.03592 0.0
H250 H 0.56716 0.81957 0.07016 0.0
H251 H 0.5668 0.77565 0.07428 0.0
H252 H 0.56516 0.77817 0.18449 0.0
H253 H 0.56552 0.8221 0.18071 0.0
H254 H 0.60166 0.81903 0.22144 0.0
H255 H 0.73519 0.91238 0.13354 0.0
H256 H 0.72217 0.96509 0.12956 0.0
H257 H 0.60017 0.88499 0.12191 0.0
C258 C 0.62832 0.768 0.13486 0.0
C259 C 0.6585 0.76011 0.13617 0.0
C260 C 0.69692 0.79017 0.1352 0.0
C261 C 0.70523 0.82767 0.13375 0.0
C262 C 0.67478 0.83451 0.13249 0.0
C263 C 0.63711 0.80549 0.13241 0.0
C264 C 0.60964 0.8203 0.12889 0.0
C265 C 0.5856 0.80677 0.07404 0.0
C266 C 0.58399 0.80924 0.18205 0.0
C267 C 0.63773 0.86221 0.12732 0.0
C268 C 0.67515 0.86989 0.13002 0.0
C269 C 0.70601 0.9067 0.13095 0.0
C270 C 0.69836 0.93641 0.12881 0.0
C271 C 0.66022 0.92903 0.12496 0.0
C272 C 0.62964 0.89144 0.12413 0.0
H273 H 0.82754 0.58066 0.40545 0.0
H274 H 0.92139 0.69427 0.37654 0.0
H275 H 0.87689 0.70967 0.3269 0.0
H276 H 0.78996 0.56825 0.27218 0.0
H277 H 0.7405 0.54009 0.29321 0.0
H278 H 0.77741 0.54048 0.33634 0.0
H279 H 0.75369 0.56122 0.4242 0.0
H280 H 0.71627 0.56047 0.38143 0.0
H281 H 0.74913 0.60257 0.41976 0.0
H282 H 0.82251 0.71026 0.27233 0.0
H283 H 0.76533 0.69471 0.2134 0.0
H284 H 0.71057 0.57933 0.2727 0.0
C285 C 0.83862 0.60921 0.39047 0.0
C286 C 0.87782 0.63644 0.39557 0.0
C287 C 0.89133 0.67309 0.37361 0.0
C288 C 0.86625 0.68208 0.34549 0.0
C289 C 0.82792 0.65404 0.33953 0.0
C290 C 0.81429 0.61832 0.36149 0.0
C291 C 0.77344 0.59168 0.34349 0.0
C292 C 0.77018 0.55818 0.30927 0.0
C293 C 0.74655 0.5782 0.39531 0.0
C294 C 0.76645 0.61755 0.30639 0.0
C295 C 0.7977 0.6537 0.30567 0.0
C296 C 0.79784 0.68211 0.27294 0.0
C297 C 0.76538 0.67309 0.23965 0.0
C298 C 0.73396 0.63581 0.23838 0.0
C299 C 0.73445 0.60799 0.27268 0.0
H300 H 0.09547 0.74177 0.52866 0.0
H301 H 0.10519 0.76669 0.34813 0.0
H302 H 0.1641 0.8281 0.36656 0.0
H303 H 0.13334 0.83735 0.58319 0.0
H304 H 0.15899 0.8304 0.64022 0.0
H305 H 0.11531 0.79113 0.61333 0.0
H306 H 0.15091 0.75456 0.59344 0.0
H307 H 0.19458 0.79359 0.6204 0.0
H308 H 0.19335 0.77588 0.54971 0.0
H309 H 0.22298 0.88661 0.4061 0.0
H310 H 0.28071 0.93224 0.4604 0.0
H311 H 0.23437 0.86454 0.61231 0.0
C312 C 0.10957 0.76049 0.49311 0.0
C313 C 0.09558 0.74999 0.43712 0.0
C314 C 0.11542 0.77455 0.3914 0.0
C315 C 0.14869 0.80946 0.40156 0.0
C316 C 0.16188 0.8189 0.4575 0.0
C317 C 0.14313 0.79476 0.50232 0.0
C318 C 0.165 0.8093 0.55751 0.0
C319 C 0.14177 0.81754 0.60113 0.0
C320 C 0.17665 0.7817 0.58164 0.0
C321 C 0.19936 0.84521 0.53683 0.0
C322 C 0.19669 0.8509 0.47936 0.0
C323 C 0.22531 0.88239 0.45107 0.0
C324 C 0.25782 0.90819 0.48213 0.0
C325 C 0.26163 0.90163 0.5402 0.0
C326 C 0.23191 0.87004 0.56786 0.0
H327 H 0.36013 0.26915 0.57209 0.0
H328 H 0.33669 0.27128 0.75161 0.0
H329 H 0.32527 0.20644 0.76219 0.0
H330 H 0.29393 0.16837 0.54489 0.0
H331 H 0.32731 0.16405 0.49908 0.0
H332 H 0.32818 0.20824 0.50383 0.0
H333 H 0.40003 0.24194 0.53148 0.0
H334 H 0.39938 0.19793 0.52679 0.0
H335 H 0.41488 0.22513 0.5916 0.0
H336 H 0.31798 0.14236 0.75348 0.0
H337 H 0.32361 0.0868 0.72982 0.0
H338 H 0.35869 0.12918 0.55817 0.0
C339 C 0.35176 0.25548 0.61323 0.0
C340 C 0.34844 0.27451 0.66091 0.0
C341 C 0.33887 0.25668 0.71465 0.0
C342 C 0.3322 0.21993 0.7209 0.0
C343 C 0.33603 0.20189 0.67316 0.0
C344 C 0.34617 0.21926 0.62054 0.0
C345 C 0.35272 0.19547 0.57772 0.0
C346 C 0.3238 0.18331 0.52847 0.0
C347 C 0.39422 0.21637 0.55563 0.0
C348 C 0.34512 0.16223 0.61464 0.0
C349 C 0.3346 0.16608 0.66913 0.0
C350 C 0.3262 0.13902 0.71097 0.0
C351 C 0.32935 0.10753 0.69709 0.0
C352 C 0.34168 0.10383 0.64226 0.0
C353 C 0.34928 0.13138 0.60044 0.0
H354 H 0.17863 0.47008 0.87533 0.0
H355 H 0.10196 0.35037 0.90125 0.0
H356 H 0.14862 0.33714 0.85389 0.0
H357 H 0.20519 0.46224 0.73789 0.0
H358 H 0.25417 0.49993 0.74412 0.0
H359 H 0.21757 0.50039 0.7871 0.0
H360 H 0.25549 0.50507 0.87875 0.0
H361 H 0.29253 0.50512 0.83599 0.0
H362 H 0.26979 0.47066 0.89159 0.0
H363 H 0.20191 0.33702 0.79744 0.0
H364 H 0.25682 0.34996 0.73572 0.0
H365 H 0.29618 0.46955 0.7434 0.0
C366 C 0.17206 0.44112 0.87253 0.0
C367 C 0.13686 0.41126 0.89256 0.0
C368 C 0.1289 0.37369 0.88655 0.0
C369 C 0.15522 0.36592 0.85976 0.0
C370 C 0.18921 0.39602 0.83902 0.0
C371 C 0.19767 0.43287 0.84525 0.0
C372 C 0.23451 0.45996 0.81516 0.0
C373 C 0.22741 0.4819 0.7683 0.0
C374 C 0.26488 0.48678 0.85793 0.0
C375 C 0.24514 0.43257 0.79009 0.0
C376 C 0.21901 0.39586 0.80492 0.0
C377 C 0.22266 0.36569 0.78584 0.0
C378 C 0.25387 0.3733 0.75073 0.0
C379 C 0.28066 0.41073 0.73448 0.0
C380 C 0.27609 0.4406 0.7547 0.0
H381 H 0.91867 0.28498 0.03775 0.0
H382 H 0.91297 0.25558 0.85938 0.0
H383 H 0.85289 0.19532 0.87761 0.0
H384 H 0.8741 0.18895 0.09911 0.0
H385 H 0.84804 0.19947 0.15118 0.0
H386 H 0.89391 0.23625 0.12606 0.0
H387 H 0.86321 0.27598 0.09687 0.0
H388 H 0.81731 0.23934 0.12148 0.0
H389 H 0.8227 0.25598 0.0492 0.0
H390 H 0.79115 0.13987 0.91531 0.0
H391 H 0.73017 0.0983 0.96592 0.0
H392 H 0.77398 0.16889 0.11589 0.0
C393 C 0.90545 0.26525 0.00293 0.0
C394 C 0.92075 0.27429 0.94748 0.0
C395 C 0.90184 0.2487 0.90235 0.0
C396 C 0.86785 0.21446 0.91239 0.0
C397 C 0.85299 0.20673 0.96755 0.0
C398 C 0.87108 0.23167 0.01191 0.0
C399 C 0.84692 0.21957 0.06532 0.0
C400 C 0.86694 0.21051 0.11324 0.0
C401 C 0.83695 0.24949 0.08428 0.0
C402 C 0.81198 0.18434 0.04392 0.0
C403 C 0.81637 0.17668 0.98796 0.0
C404 C 0.7875 0.14559 0.95914 0.0
C405 C 0.75309 0.12215 0.98808 0.0
C406 C 0.74767 0.13075 0.0444 0.0
C407 C 0.77757 0.16195 0.07268 0.0
loop_
_geom_bond_atom_site_label_1
_geom_bond_atom_site_label_2
_geom_bond_distance
_geom_bond_site_symmetry_2
_ccdc_geom_bond_type
C0 O1 1.306 . S
C0 O3 1.160 . S
O1 C0 1.306 . S
O1 Cd2 2.228 . S
Cd2 O1 2.228 . S
Cd2 O6 2.273 . S
Cd2 O10 2.277 . S
O3 C0 1.160 . S
O3 Cd4 2.203 . S
Cd4 O3 2.203 . S
Cd4 O6 2.411 . S
Cd4 O7 2.333 1_545 S
Cd4 O8 2.352 1_545 S
Cd4 O12 2.281 1_544 S
Cd4 O13 2.356 1_545 S
C5 O10 1.209 1_556 S
C5 O12 1.198 1_545 S
O6 Cd2 2.273 . S
O6 Cd4 2.411 . S
O6 C9 1.320 . S
O7 Cd4 2.333 1_565 S
O7 C9 1.214 1_565 S
O8 Cd4 2.352 1_565 S
O8 C11 1.258 . S
C9 O6 1.320 . S
C9 O7 1.214 1_545 S
O10 Cd2 2.277 . S
O10 C5 1.209 1_554 S
C11 O8 1.258 . S
C11 O13 1.282 . S
O12 Cd4 2.281 1_566 S
O12 C5 1.198 1_565 S
O13 Cd4 2.356 1_565 S
O13 C11 1.282 . S
C14 O15 1.306 . S
C14 O17 1.160 . S
O15 C14 1.306 . S
O15 Cd16 2.228 . S
Cd16 O15 2.228 . S
Cd16 O20 2.273 . S
Cd16 O24 2.277 . S
O17 C14 1.160 . S
O17 Cd18 2.203 . S
Cd18 O17 2.203 . S
Cd18 O20 2.411 . S
Cd18 O21 2.333 . S
Cd18 O22 2.352 . S
Cd18 O26 2.277 . S
Cd18 O27 2.356 . S
C19 O24 1.209 . S
C19 O26 1.226 . S
O20 Cd16 2.273 . S
O20 Cd18 2.411 . S
O20 C23 1.320 . S
O21 Cd18 2.333 . S
O21 C23 1.214 . S
O22 Cd18 2.352 . S
O22 C25 1.258 . S
C23 O20 1.320 . S
C23 O21 1.214 . S
O24 Cd16 2.277 . S
O24 C19 1.209 . S
C25 O22 1.258 . S
C25 O27 1.282 . S
O26 Cd18 2.277 . S
O26 C19 1.226 . S
O27 Cd18 2.356 . S
O27 C25 1.282 . S
C28 O29 1.306 . S
C28 O31 1.160 . S
O29 C28 1.306 . S
O29 Cd30 2.228 . S
Cd30 O29 2.228 . S
Cd30 O34 2.273 . S
Cd30 O38 2.277 . S
O31 C28 1.160 . S
O31 Cd32 2.203 1_655 S
Cd32 O31 2.203 1_455 S
Cd32 O34 2.411 1_455 S
Cd32 O35 2.333 . S
Cd32 O36 2.352 . S
Cd32 O40 2.277 . S
Cd32 O41 2.356 . S
C33 O38 1.209 1_455 S
C33 O40 1.226 . S
O34 Cd30 2.273 . S
O34 Cd32 2.411 1_655 S
O34 C37 1.320 1_655 S
O35 Cd32 2.333 . S
O35 C37 1.214 . S
O36 Cd32 2.352 . S
O36 C39 1.258 . S
C37 O34 1.320 1_455 S
C37 O35 1.214 . S
O38 Cd30 2.277 . S
O38 C33 1.209 1_655 S
C39 O36 1.258 . S
C39 O41 1.282 . S
O40 Cd32 2.277 . S
O40 C33 1.226 . S
O41 Cd32 2.356 . S
O41 C39 1.282 . S
C42 O43 1.306 . S
C42 O45 1.160 . S
O43 C42 1.306 . S
O43 Cd44 2.228 . S
Cd44 O43 2.228 . S
Cd44 O48 2.285 . S
Cd44 O52 2.277 . S
O45 C42 1.160 . S
O45 Cd46 2.203 1_565 S
Cd46 O45 2.203 1_545 S
Cd46 O48 2.402 1_545 S
Cd46 O49 2.333 . S
Cd46 O50 2.352 . S
Cd46 O54 2.277 . S
Cd46 O55 2.356 . S
C47 O52 1.209 1_545 S
C47 O54 1.226 . S
O48 Cd44 2.285 . S
O48 Cd46 2.402 1_565 S
O48 C51 1.314 1_565 S
O49 Cd46 2.333 . S
O49 C51 1.214 . S
O50 Cd46 2.352 . S
O50 C53 1.258 . S
C51 O48 1.314 1_545 S
C51 O49 1.214 . S
O52 Cd44 2.277 . S
O52 C47 1.209 1_565 S
C53 O50 1.258 . S
C53 O55 1.282 . S
O54 Cd46 2.277 . S
O54 C47 1.226 . S
O55 Cd46 2.356 . S
O55 C53 1.282 . S
C56 O57 1.306 . S
C56 O59 1.160 . S
O57 C56 1.306 . S
O57 Cd58 2.228 . S
Cd58 O57 2.228 . S
Cd58 O62 2.273 . S
Cd58 O66 2.277 . S
O59 C56 1.160 . S
O59 Cd60 2.203 . S
Cd60 O59 2.203 . S
Cd60 O62 2.411 . S
Cd60 O63 2.333 . S
Cd60 O64 2.352 . S
Cd60 O68 2.277 . S
Cd60 O69 2.356 . S
C61 O66 1.209 . S
C61 O68 1.226 . S
O62 Cd58 2.273 . S
O62 Cd60 2.411 . S
O62 C65 1.320 . S
O63 Cd60 2.333 . S
O63 C65 1.214 . S
O64 Cd60 2.352 . S
O64 C67 1.258 . S
C65 O62 1.320 . S
C65 O63 1.214 . S
O66 Cd58 2.277 . S
O66 C61 1.209 . S
C67 O64 1.258 . S
C67 O69 1.282 . S
O68 Cd60 2.277 . S
O68 C61 1.226 . S
O69 Cd60 2.356 . S
O69 C67 1.282 . S
C70 O71 1.306 . S
C70 O73 1.160 . S
O71 C70 1.306 . S
O71 Cd72 2.228 . S
Cd72 O71 2.228 . S
Cd72 O76 2.273 . S
Cd72 O80 2.277 . S
O73 C70 1.160 . S
O73 Cd74 2.203 . S
Cd74 O73 2.203 . S
Cd74 O76 2.411 . S
Cd74 O77 2.333 1_455 S
Cd74 O78 2.352 1_455 S
Cd74 O82 2.277 1_455 S
Cd74 O83 2.356 1_455 S
C75 O80 1.209 . S
C75 O82 1.226 1_455 S
O76 Cd72 2.273 . S
O76 Cd74 2.411 . S
O76 C79 1.320 . S
O77 Cd74 2.333 1_655 S
O77 C79 1.214 1_655 S
O78 Cd74 2.352 1_655 S
O78 C81 1.258 . S
C79 O76 1.320 . S
C79 O77 1.214 1_455 S
O80 Cd72 2.277 . S
O80 C75 1.209 . S
C81 O78 1.258 . S
C81 O83 1.282 . S
O82 Cd74 2.277 1_655 S
O82 C75 1.226 1_655 S
O83 Cd74 2.356 1_655 S
O83 C81 1.282 . S
H84 C96 0.930 . S
H85 C98 0.930 . S
H86 C99 0.930 . S
H87 C103 0.959 . S
H88 C103 0.959 . S
H89 C103 0.961 . S
H90 C104 0.960 . S
H91 C104 0.961 . S
H92 C104 0.959 . S
H93 C107 0.929 . S
H94 C108 0.931 . S
H95 C110 0.930 . S
C96 H84 0.930 . S
C96 C97 1.399 1_565 S
C96 C101 1.404 . S
C97 C96 1.399 1_545 S
C97 C98 1.376 . S
C98 H85 0.930 . S
C98 C97 1.376 . S
C98 C99 1.388 . S
C99 H86 0.930 . S
C99 C98 1.388 . S
C99 C100 1.390 . S
C100 C99 1.390 . S
C100 C101 1.385 1_545 S
C100 C106 1.465 . S
C101 C96 1.404 . S
C101 C100 1.385 1_565 S
C101 C102 1.519 . S
C102 C101 1.519 . S
C102 C103 1.502 . S
C102 C104 1.561 . S
C102 C105 1.530 . S
C103 H87 0.959 . S
C103 H88 0.959 . S
C103 H89 0.961 . S
C103 C102 1.502 . S
C104 H90 0.960 . S
C104 H91 0.961 . S
C104 H92 0.959 . S
C104 C102 1.561 . S
C105 C102 1.530 . S
C105 C106 1.393 1_565 S
C105 C110 1.388 . S
C106 C100 1.465 . S
C106 C105 1.393 1_545 S
C106 C107 1.399 . S
C107 H93 0.929 . S
C107 C106 1.399 . S
C107 C108 1.385 . S
C108 H94 0.931 . S
C108 C107 1.385 . S
C108 C109 1.389 . S
C109 C108 1.389 . S
C109 C110 1.387 1_545 S
C110 H95 0.930 . S
C110 C105 1.388 . S
C110 C109 1.387 1_565 S
H111 C123 0.930 . S
H112 C125 0.930 . S
H113 C126 0.930 . S
H114 C130 0.959 . S
H115 C130 0.959 . S
H116 C130 0.961 . S
H117 C131 0.960 . S
H118 C131 0.961 . S
H119 C131 0.959 . S
H120 C134 0.929 . S
H121 C135 0.931 . S
H122 C137 0.930 . S
C123 H111 0.930 . S
C123 C124 1.399 . S
C123 C128 1.399 . S
C124 C123 1.399 . S
C124 C125 1.376 . S
C125 H112 0.930 . S
C125 C124 1.376 . S
C125 C126 1.388 . S
C126 H113 0.930 . S
C126 C125 1.388 . S
C126 C127 1.390 . S
C127 C126 1.390 . S
C127 C128 1.394 . S
C127 C133 1.465 . S
C128 C123 1.399 . S
C128 C127 1.394 . S
C128 C129 1.516 . S
C129 C128 1.516 . S
C129 C130 1.502 . S
C129 C131 1.561 . S
C129 C132 1.526 . S
C130 H114 0.959 . S
C130 H115 0.959 . S
C130 H116 0.961 . S
C130 C129 1.502 . S
C131 H117 0.960 . S
C131 H118 0.961 . S
C131 H119 0.959 . S
C131 C129 1.561 . S
C132 C129 1.526 . S
C132 C133 1.396 . S
C132 C137 1.390 . S
C133 C127 1.465 . S
C133 C132 1.396 . S
C133 C134 1.399 . S
C134 H120 0.929 . S
C134 C133 1.399 . S
C134 C135 1.385 . S
C135 H121 0.931 . S
C135 C134 1.385 . S
C135 C136 1.389 . S
C136 C135 1.389 . S
C136 C137 1.387 . S
C137 H122 0.930 . S
C137 C132 1.390 . S
C137 C136 1.387 . S
H138 C150 0.930 . S
H139 C152 0.930 . S
H140 C153 0.930 . S
H141 C157 0.959 1_655 S
H142 C157 0.959 . S
H143 C157 0.961 . S
H144 C158 0.960 . S
H145 C158 0.961 . S
H146 C158 0.959 . S
H147 C161 0.929 . S
H148 C162 0.931 . S
H149 C164 0.930 . S
C150 H138 0.930 . S
C150 C151 1.399 . S
C150 C155 1.399 . S
C151 C150 1.399 . S
C151 C152 1.376 . S
C152 H139 0.930 . S
C152 C151 1.376 . S
C152 C153 1.388 . S
C153 H140 0.930 . S
C153 C152 1.388 . S
C153 C154 1.390 . S
C154 C153 1.390 . S
C154 C155 1.394 . S
C154 C160 1.465 . S
C155 C150 1.399 . S
C155 C154 1.394 . S
C155 C156 1.516 . S
C156 C155 1.516 . S
C156 C157 1.502 . S
C156 C158 1.561 . S
C156 C159 1.526 . S
C157 H141 0.959 1_455 S
C157 H142 0.959 . S
C157 H143 0.961 . S
C157 C156 1.502 . S
C158 H144 0.960 . S
C158 H145 0.961 . S
C158 H146 0.959 . S
C158 C156 1.561 . S
C159 C156 1.526 . S
C159 C160 1.396 . S
C159 C164 1.390 . S
C160 C154 1.465 . S
C160 C159 1.396 . S
C160 C161 1.399 . S
C161 H147 0.929 . S
C161 C160 1.399 . S
C161 C162 1.385 . S
C162 H148 0.931 . S
C162 C161 1.385 . S
C162 C163 1.389 . S
C163 C162 1.389 . S
C163 C164 1.387 . S
C164 H149 0.930 . S
C164 C159 1.390 . S
C164 C163 1.387 . S
H165 C177 0.930 . S
H166 C179 0.930 . S
H167 C180 0.930 . S
H168 C184 0.959 . S
H169 C184 0.959 . S
H170 C184 0.961 . S
H171 C185 0.960 . S
H172 C185 0.961 . S
H173 C185 0.959 . S
H174 C188 0.929 . S
H175 C189 0.931 . S
H176 C191 0.930 . S
C177 H165 0.930 . S
C177 C178 1.399 . S
C177 C182 1.399 . S
C178 C177 1.399 . S
C178 C179 1.376 1_545 S
C179 H166 0.930 . S
C179 C178 1.376 1_565 S
C179 C180 1.388 . S
C180 H167 0.930 . S
C180 C179 1.388 . S
C180 C181 1.390 1_565 S
C181 C180 1.390 1_545 S
C181 C182 1.394 . S
C181 C187 1.465 . S
C182 C177 1.399 . S
C182 C181 1.394 . S
C182 C183 1.516 . S
C183 C182 1.516 . S
C183 C184 1.502 . S
C183 C185 1.561 . S
C183 C186 1.526 . S
C184 H168 0.959 . S
C184 H169 0.959 . S
C184 H170 0.961 . S
C184 C183 1.502 . S
C185 H171 0.960 . S
C185 H172 0.961 . S
C185 H173 0.959 . S
C185 C183 1.561 . S
C186 C183 1.526 . S
C186 C187 1.396 . S
C186 C191 1.390 . S
C187 C181 1.465 . S
C187 C186 1.396 . S
C187 C188 1.399 1_545 S
C188 H174 0.929 . S
C188 C187 1.399 1_565 S
C188 C189 1.385 . S
C189 H175 0.931 . S
C189 C188 1.385 . S
C189 C190 1.389 1_565 S
C190 C189 1.389 1_545 S
C190 C191 1.387 . S
C191 H176 0.930 . S
C191 C186 1.390 . S
C191 C190 1.387 . S
H192 C204 0.930 . S
H193 C206 0.930 . S
H194 C207 0.930 . S
H195 C211 0.959 . S
H196 C211 0.959 . S
H197 C211 0.961 . S
H198 C212 0.960 . S
H199 C212 0.961 . S
H200 C212 0.959 . S
H201 C215 0.929 . S
H202 C216 0.931 . S
H203 C218 0.930 . S
C204 H192 0.930 . S
C204 C205 1.399 . S
C204 C209 1.399 . S
C205 C204 1.399 . S
C205 C206 1.376 . S
C206 H193 0.930 . S
C206 C205 1.376 . S
C206 C207 1.388 1_554 S
C207 H194 0.930 . S
C207 C206 1.388 1_556 S
C207 C208 1.390 . S
C208 C207 1.390 . S
C208 C209 1.394 1_556 S
C208 C214 1.465 . S
C209 C204 1.399 . S
C209 C208 1.394 1_554 S
C209 C210 1.516 . S
C210 C209 1.516 . S
C210 C211 1.502 . S
C210 C212 1.561 . S
C210 C213 1.526 1_554 S
C211 H195 0.959 . S
C211 H196 0.959 . S
C211 H197 0.961 . S
C211 C210 1.502 . S
C212 H198 0.960 . S
C212 H199 0.961 . S
C212 H200 0.959 . S
C212 C210 1.561 . S
C213 C210 1.526 1_556 S
C213 C214 1.396 . S
C213 C218 1.390 . S
C214 C208 1.465 . S
C214 C213 1.396 . S
C214 C215 1.399 . S
C215 H201 0.929 . S
C215 C214 1.399 . S
C215 C216 1.385 . S
C216 H202 0.931 . S
C216 C215 1.385 . S
C216 C217 1.389 . S
C217 C216 1.389 . S
C217 C218 1.387 . S
C218 H203 0.930 . S
C218 C213 1.390 . S
C218 C217 1.387 . S
H219 C231 0.930 . S
H220 C233 0.930 . S
H221 C234 0.930 . S
H222 C238 0.959 . S
H223 C238 0.959 . S
H224 C238 0.961 . S
H225 C239 0.960 . S
H226 C239 0.961 . S
H227 C239 0.988 . S
H228 C242 0.929 . S
H229 C243 0.931 . S
H230 C245 0.930 . S
C231 H219 0.930 . S
C231 C232 1.399 . S
C231 C236 1.399 . S
C232 C231 1.399 . S
C232 C233 1.376 1_455 S
C233 H220 0.930 . S
C233 C232 1.376 1_655 S
C233 C234 1.388 . S
C234 H221 0.930 . S
C234 C233 1.388 . S
C234 C235 1.390 . S
C235 C234 1.390 . S
C235 C236 1.385 1_655 S
C235 C241 1.469 . S
C236 C231 1.399 . S
C236 C235 1.385 1_455 S
C236 C237 1.516 . S
C237 C236 1.516 . S
C237 C238 1.502 . S
C237 C239 1.561 . S
C237 C240 1.526 . S
C238 H222 0.959 . S
C238 H223 0.959 . S
C238 H224 0.961 . S
C238 C237 1.502 . S
C239 H225 0.960 . S
C239 H226 0.961 . S
C239 H227 0.988 . S
C239 C237 1.561 . S
C240 C237 1.526 . S
C240 C241 1.395 1_455 S
C240 C245 1.390 . S
C241 C235 1.469 . S
C241 C240 1.395 1_655 S
C241 C242 1.402 . S
C242 H228 0.929 . S
C242 C241 1.402 . S
C242 C243 1.385 . S
C243 H229 0.931 . S
C243 C242 1.385 . S
C243 C244 1.389 1_655 S
C244 C243 1.389 1_455 S
C244 C245 1.387 . S
C245 H230 0.930 . S
C245 C240 1.390 . S
C245 C244 1.387 . S
H246 C258 0.930 . S
H247 C260 0.930 . S
H248 C261 0.930 . S
H249 C265 0.959 . S
H250 C265 0.959 . S
H251 C265 0.961 . S
H252 C266 0.960 . S
H253 C266 0.961 . S
H254 C266 0.959 . S
H255 C269 0.929 . S
H256 C270 0.931 . S
H257 C272 0.930 . S
C258 H246 0.930 . S
C258 C259 1.399 . S
C258 C263 1.399 . S
C259 C258 1.399 . S
C259 C260 1.376 . S
C260 H247 0.930 . S
C260 C259 1.376 . S
C260 C261 1.388 . S
C261 H248 0.930 . S
C261 C260 1.388 . S
C261 C262 1.390 . S
C262 C261 1.390 . S
C262 C263 1.394 . S
C262 C268 1.465 . S
C263 C258 1.399 . S
C263 C262 1.394 . S
C263 C264 1.516 . S
C264 C263 1.516 . S
C264 C265 1.502 . S
C264 C266 1.561 . S
C264 C267 1.526 . S
C265 H249 0.959 . S
C265 H250 0.959 . S
C265 H251 0.961 . S
C265 C264 1.502 . S
C266 H252 0.960 . S
C266 H253 0.961 . S
C266 H254 0.959 . S
C266 C264 1.561 . S
C267 C264 1.526 . S
C267 C268 1.396 . S
C267 C272 1.390 . S
C268 C262 1.465 . S
C268 C267 1.396 . S
C268 C269 1.399 . S
C269 H255 0.929 . S
C269 C268 1.399 . S
C269 C270 1.385 . S
C270 H256 0.931 . S
C270 C269 1.385 . S
C270 C271 1.389 . S
C271 C270 1.389 . S
C271 C272 1.387 . S
C272 H257 0.930 . S
C272 C267 1.390 . S
C272 C271 1.387 . S
H273 C285 0.930 . S
H274 C287 0.930 . S
H275 C288 0.930 . S
H276 C292 0.959 . S
H277 C292 0.959 . S
H278 C292 0.961 . S
H279 C293 0.960 . S
H280 C293 0.961 . S
H281 C293 0.959 . S
H282 C296 0.929 . S
H283 C297 0.931 . S
H284 C299 0.930 . S
C285 H273 0.930 . S
C285 C286 1.399 . S
C285 C290 1.399 . S
C286 C285 1.399 . S
C286 C287 1.376 . S
C287 H274 0.930 . S
C287 C286 1.376 . S
C287 C288 1.388 . S
C288 H275 0.930 . S
C288 C287 1.388 . S
C288 C289 1.390 . S
C289 C288 1.390 . S
C289 C290 1.394 . S
C289 C295 1.465 . S
C290 C285 1.399 . S
C290 C289 1.394 . S
C290 C291 1.516 . S
C291 C290 1.516 . S
C291 C292 1.502 . S
C291 C293 1.561 . S
C291 C294 1.526 . S
C292 H276 0.959 . S
C292 H277 0.959 . S
C292 H278 0.961 . S
C292 C291 1.502 . S
C293 H279 0.960 . S
C293 H280 0.961 . S
C293 H281 0.959 . S
C293 C291 1.561 . S
C294 C291 1.526 . S
C294 C295 1.396 . S
C294 C299 1.390 . S
C295 C289 1.465 . S
C295 C294 1.396 . S
C295 C296 1.399 . S
C296 H282 0.929 . S
C296 C295 1.399 . S
C296 C297 1.385 . S
C297 H283 0.931 . S
C297 C296 1.385 . S
C297 C298 1.389 . S
C298 C297 1.389 . S
C298 C299 1.387 . S
C299 H284 0.930 . S
C299 C294 1.390 . S
C299 C298 1.387 . S
H300 C312 0.930 . S
H301 C314 0.930 . S
H302 C315 0.930 . S
H303 C319 0.959 . S
H304 C319 0.959 . S
H305 C319 0.961 . S
H306 C320 0.960 . S
H307 C320 0.961 . S
H308 C320 0.959 . S
H309 C323 0.929 . S
H310 C324 0.931 . S
H311 C326 0.930 . S
C312 H300 0.930 . S
C312 C313 1.399 . S
C312 C317 1.399 . S
C313 C312 1.399 . S
C313 C314 1.376 . S
C314 H301 0.930 . S
C314 C313 1.376 . S
C314 C315 1.388 . S
C315 H302 0.930 . S
C315 C314 1.388 . S
C315 C316 1.390 . S
C316 C315 1.390 . S
C316 C317 1.394 . S
C316 C322 1.465 . S
C317 C312 1.399 . S
C317 C316 1.394 . S
C317 C318 1.516 . S
C318 C317 1.516 . S
C318 C319 1.502 . S
C318 C320 1.561 . S
C318 C321 1.526 . S
C319 H303 0.959 . S
C319 H304 0.959 . S
C319 H305 0.961 . S
C319 C318 1.502 . S
C320 H306 0.960 . S
C320 H307 0.961 . S
C320 H308 0.959 . S
C320 C318 1.561 . S
C321 C318 1.526 . S
C321 C322 1.396 . S
C321 C326 1.390 . S
C322 C316 1.465 . S
C322 C321 1.396 . S
C322 C323 1.399 . S
C323 H309 0.929 . S
C323 C322 1.399 . S
C323 C324 1.385 . S
C324 H310 0.931 . S
C324 C323 1.385 . S
C324 C325 1.389 . S
C325 C324 1.389 . S
C325 C326 1.387 . S
C326 H311 0.930 . S
C326 C321 1.390 . S
C326 C325 1.387 . S
H327 C339 0.930 . S
H328 C341 0.930 . S
H329 C342 0.930 . S
H330 C346 0.959 . S
H331 C346 0.959 . S
H332 C346 0.961 . S
H333 C347 0.960 . S
H334 C347 0.961 . S
H335 C347 0.959 . S
H336 C350 0.929 . S
H337 C351 0.931 . S
H338 C353 0.930 . S
C339 H327 0.930 . S
C339 C340 1.399 . S
C339 C344 1.399 . S
C340 C339 1.399 . S
C340 C341 1.376 . S
C341 H328 0.930 . S
C341 C340 1.376 . S
C341 C342 1.388 . S
C342 H329 0.930 . S
C342 C341 1.388 . S
C342 C343 1.390 . S
C343 C342 1.390 . S
C343 C344 1.394 . S
C343 C349 1.465 . S
C344 C339 1.399 . S
C344 C343 1.394 . S
C344 C345 1.516 . S
C345 C344 1.516 . S
C345 C346 1.502 . S
C345 C347 1.561 . S
C345 C348 1.526 . S
C346 H330 0.959 . S
C346 H331 0.959 . S
C346 H332 0.961 . S
C346 C345 1.502 . S
C347 H333 0.960 . S
C347 H334 0.961 . S
C347 H335 0.959 . S
C347 C345 1.561 . S
C348 C345 1.526 . S
C348 C349 1.396 . S
C348 C353 1.390 . S
C349 C343 1.465 . S
C349 C348 1.396 . S
C349 C350 1.399 . S
C350 H336 0.929 . S
C350 C349 1.399 . S
C350 C351 1.385 . S
C351 H337 0.931 . S
C351 C350 1.385 . S
C351 C352 1.389 . S
C352 C351 1.389 . S
C352 C353 1.387 . S
C353 H338 0.930 . S
C353 C348 1.390 . S
C353 C352 1.387 . S
H354 C366 0.930 . S
H355 C368 0.930 . S
H356 C369 0.930 . S
H357 C373 0.959 . S
H358 C373 0.959 . S
H359 C373 0.961 . S
H360 C374 0.960 . S
H361 C374 0.961 . S
H362 C374 0.959 . S
H363 C377 0.929 . S
H364 C378 0.931 . S
H365 C380 0.930 . S
C366 H354 0.930 . S
C366 C367 1.399 . S
C366 C371 1.399 . S
C367 C366 1.399 . S
C367 C368 1.376 . S
C368 H355 0.930 . S
C368 C367 1.376 . S
C368 C369 1.388 . S
C369 H356 0.930 . S
C369 C368 1.388 . S
C369 C370 1.390 . S
C370 C369 1.390 . S
C370 C371 1.394 . S
C370 C376 1.465 . S
C371 C366 1.399 . S
C371 C370 1.394 . S
C371 C372 1.516 . S
C372 C371 1.516 . S
C372 C373 1.502 . S
C372 C374 1.561 . S
C372 C375 1.526 . S
C373 H357 0.959 . S
C373 H358 0.959 . S
C373 H359 0.961 . S
C373 C372 1.502 . S
C374 H360 0.960 . S
C374 H361 0.961 . S
C374 H362 0.959 . S
C374 C372 1.561 . S
C375 C372 1.526 . S
C375 C376 1.396 . S
C375 C380 1.390 . S
C376 C370 1.465 . S
C376 C375 1.396 . S
C376 C377 1.399 . S
C377 H363 0.929 . S
C377 C376 1.399 . S
C377 C378 1.385 . S
C378 H364 0.931 . S
C378 C377 1.385 . S
C378 C379 1.389 . S
C379 C378 1.389 . S
C379 C380 1.387 . S
C380 H365 0.930 . S
C380 C375 1.390 . S
C380 C379 1.387 . S
H381 C393 0.930 1_554 S
H382 C395 0.930 . S
H383 C396 0.930 . S
H384 C400 0.959 . S
H385 C400 0.959 . S
H386 C400 0.961 . S
H387 C401 0.960 . S
H388 C401 0.961 . S
H389 C401 0.959 . S
H390 C404 0.929 . S
H391 C405 0.931 . S
H392 C407 0.930 . S
C393 H381 0.930 1_556 S
C393 C394 1.399 . S
C393 C398 1.399 . S
C394 C393 1.399 . S
C394 C395 1.376 . S
C395 H382 0.930 . S
C395 C394 1.376 . S
C395 C396 1.388 . S
C396 H383 0.930 . S
C396 C395 1.388 . S
C396 C397 1.390 . S
C397 C396 1.390 . S
C397 C398 1.394 . S
C397 C403 1.465 . S
C398 C393 1.399 . S
C398 C397 1.394 . S
C398 C399 1.516 1_556 S
C399 C398 1.516 1_554 S
C399 C400 1.502 . S
C399 C401 1.561 . S
C399 C402 1.526 . S
C400 H384 0.959 . S
C400 H385 0.959 . S
C400 H386 0.961 . S
C400 C399 1.502 . S
C401 H387 0.960 . S
C401 H388 0.961 . S
C401 H389 0.959 . S
C401 C399 1.561 . S
C402 C399 1.526 . S
C402 C403 1.396 1_554 S
C402 C407 1.390 . S
C403 C397 1.465 . S
C403 C402 1.396 1_556 S
C403 C404 1.399 . S
C404 H390 0.929 . S
C404 C403 1.399 . S
C404 C405 1.385 . S
C405 H391 0.931 . S
C405 C404 1.385 . S
C405 C406 1.389 1_556 S
C406 C405 1.389 1_554 S
C406 C407 1.387 . S
C407 H392 0.930 . S
C407 C402 1.390 . S
C407 C406 1.387 . S
C97 C9 1.631 . S
C109 C47 1.624 . S
C124 C19 1.657 . S
C136 C65 1.659 . S
C151 C75 1.688 . S
C163 C37 1.680 . S
C178 C5 1.629 . S
C190 C51 1.632 . S
C205 C23 1.647 . S
C217 C61 1.652 . S
C232 C79 1.674 1_554 S
C244 C33 1.682 . S
C259 C25 1.366 . S
C271 C11 1.353 . S
C286 C28 1.381 . S
C298 C14 1.368 . S
C313 C39 1.362 . S
C325 C42 1.370 . S
C340 C67 1.332 . S
C352 C53 1.349 . S
C367 C70 1.409 . S
C379 C56 1.416 . S
C394 C81 1.353 . S
C406 C0 1.353 . S
