# Generated by pormake.
# Topology zfr, (5)-cn, num edge types: 1
# Building blocks:
#     Node 0, Type 0, BuildingBlock: BEQFEK_clean_sbu_0, # of connection points: 5
#     Node 1, Type 0, BuildingBlock: BEQFEK_clean_sbu_0, # of connection points: 5
#     Node 2, Type 0, BuildingBlock: BEQFEK_clean_sbu_0, # of connection points: 5
#     Node 3, Type 0, BuildingBlock: BEQFEK_clean_sbu_0, # of connection points: 5
#     Node 4, Type 0, BuildingBlock: BEQFEK_clean_sbu_0, # of connection points: 5
#     Node 5, Type 0, BuildingBlock: BEQFEK_clean_sbu_0, # of connection points: 5
#     Node 6, Type 0, BuildingBlock: BEQFEK_clean_sbu_0, # of connection points: 5
#     Node 7, Type 0, BuildingBlock: BEQFEK_clean_sbu_0, # of connection points: 5
#     Edge 8, Type (0, 0), BuildingBlock: XUDNAN_clean_linker_2, # of connection points: 2
#     Edge 9, Type (0, 0), BuildingBlock: XUDNAN_clean_linker_2, # of connection points: 2
#     Edge 10, Type (0, 0), BuildingBlock: XUDNAN_clean_linker_2, # of connection points: 2
#     Edge 11, Type (0, 0), BuildingBlock: XUDNAN_clean_linker_2, # of connection points: 2
#     Edge 12, Type (0, 0), BuildingBlock: XUDNAN_clean_linker_2, # of connection points: 2
#     Edge 13, Type (0, 0), BuildingBlock: XUDNAN_clean_linker_2, # of connection points: 2
#     Edge 14, Type (0, 0), BuildingBlock: XUDNAN_clean_linker_2, # of connection points: 2
#     Edge 15, Type (0, 0), BuildingBlock: XUDNAN_clean_linker_2, # of connection points: 2
#     Edge 16, Type (0, 0), BuildingBlock: XUDNAN_clean_linker_2, # of connection points: 2
#     Edge 17, Type (0, 0), BuildingBlock: XUDNAN_clean_linker_2, # of connection points: 2
#     Edge 18, Type (0, 0), BuildingBlock: XUDNAN_clean_linker_2, # of connection points: 2
#     Edge 19, Type (0, 0), BuildingBlock: XUDNAN_clean_linker_2, # of connection points: 2
#     Edge 20, Type (0, 0), BuildingBlock: XUDNAN_clean_linker_2, # of connection points: 2
#     Edge 21, Type (0, 0), BuildingBlock: XUDNAN_clean_linker_2, # of connection points: 2
#     Edge 22, Type (0, 0), BuildingBlock: XUDNAN_clean_linker_2, # of connection points: 2
#     Edge 23, Type (0, 0), BuildingBlock: XUDNAN_clean_linker_2, # of connection points: 2
#     Edge 24, Type (0, 0), BuildingBlock: XUDNAN_clean_linker_2, # of connection points: 2
#     Edge 25, Type (0, 0), BuildingBlock: XUDNAN_clean_linker_2, # of connection points: 2
#     Edge 26, Type (0, 0), BuildingBlock: XUDNAN_clean_linker_2, # of connection points: 2
#     Edge 27, Type (0, 0), BuildingBlock: XUDNAN_clean_linker_2, # of connection points: 2
# Relax obj value: 0.284
# Max RMSD: 0.233
# Mean RMSD: 0.233
data_MOF--net-zfr--node1-BEQFEK_clean_sbu_0--edge1-XUDNAN_clean_linker_2
_symmetry_space_group_name_H-M    P1
_symmetry_Int_Tables_number       1
_symmetry_cell_setting            triclinic
loop_
_symmetry_equiv_pos_as_xyz
'x, y, z'
_cell_length_a     50.125413
_cell_length_b     50.25835
_cell_length_c     18.267775
_cell_angle_alpha  90.029782
_cell_angle_beta   89.912582
_cell_angle_gamma 90.000279
loop_
_atom_site_label
_atom_site_type_symbol
_atom_site_fract_x
_atom_site_fract_y
_atom_site_fract_z
_atom_type_partial_charge
Co0 Co 0.14644 0.35861 0.12649 0.0
Co1 Co 0.11417 0.34949 0.27022 0.0
C2 C 0.13568 0.40372 0.22399 0.0
O3 O 0.14632 0.39531 0.16508 0.0
O4 O 0.12307 0.38822 0.26711 0.0
C5 C 0.1576 0.37204 0.98426 0.0
O6 O 0.14261 0.39225 0.0042 0.0
C7 C 0.11113 0.35125 0.42809 0.0
C8 C 0.08155 0.32007 0.45416 0.0
C9 C 0.09948 0.33766 0.48557 0.0
N10 N 0.10072 0.34212 0.36533 0.0
N11 N 0.08255 0.32392 0.38116 0.0
C12 C 0.13462 0.36961 0.43211 0.0
H13 H 0.14622 0.36901 0.38041 0.0
H14 H 0.14788 0.36424 0.4784 0.0
H15 H 0.1273 0.39017 0.44125 0.0
C16 C 0.18328 0.3209 0.19847 0.0
N17 N 0.16014 0.33442 0.19569 0.0
N18 N 0.14588 0.32905 0.25437 0.0
C19 C 0.15935 0.31128 0.29567 0.0
C20 C 0.18358 0.30576 0.26194 0.0
C21 C 0.20461 0.32277 0.14133 0.0
H22 H 0.21091 0.34383 0.13546 0.0
H23 H 0.22211 0.31021 0.15489 0.0
H24 H 0.19634 0.3163 0.08791 0.0
O25 O 0.11016 0.3481 0.09742 0.0
O26 O 0.08607 0.3409 0.19706 0.0
H27 H 0.16087 0.28298 0.38541 0.0
H28 H 0.15419 0.31664 0.41082 0.0
C29 C 0.15022 0.30128 0.36877 0.0
H30 H 0.12858 0.29699 0.36723 0.0
H31 H 0.0721 0.31297 0.34203 0.0
O32 O 0.1657 0.35607 0.03321 0.0
C33 C 0.08832 0.3415 0.12768 0.0
Co34 Co 0.64992 0.14387 0.35874 0.0
Co35 Co 0.64777 0.10939 0.50523 0.0
C36 C 0.59849 0.13304 0.43517 0.0
O37 O 0.61165 0.14319 0.38246 0.0
O38 O 0.61002 0.1199 0.48573 0.0
C39 C 0.65722 0.1772 0.21055 0.0
O40 O 0.6625 0.20236 0.19729 0.0
C41 C 0.63922 0.10672 0.66423 0.0
C42 C 0.66158 0.07084 0.69688 0.0
C43 C 0.64733 0.09217 0.72513 0.0
N44 N 0.6488 0.09494 0.60335 0.0
N45 N 0.66179 0.07322 0.62327 0.0
C46 C 0.62203 0.13112 0.66297 0.0
H47 H 0.6044 0.12731 0.62794 0.0
H48 H 0.63314 0.14789 0.63794 0.0
H49 H 0.61494 0.13673 0.71837 0.0
C50 C 0.68429 0.17709 0.45274 0.0
N51 N 0.66955 0.15506 0.44163 0.0
N52 N 0.67066 0.13988 0.50037 0.0
C53 C 0.68726 0.15142 0.54931 0.0
C54 C 0.69602 0.17545 0.52108 0.0
C55 C 0.68685 0.19939 0.39899 0.0
H56 H 0.66669 0.20646 0.38324 0.0
H57 H 0.69856 0.21621 0.42168 0.0
H58 H 0.69692 0.19194 0.34889 0.0
O59 O 0.66163 0.10804 0.32995 0.0
O60 O 0.65867 0.08241 0.42936 0.0
H61 H 0.71465 0.14734 0.63954 0.0
H62 H 0.6801 0.14651 0.66391 0.0
C63 C 0.69475 0.14004 0.62212 0.0
H64 H 0.69521 0.11804 0.61952 0.0
H65 H 0.67166 0.06058 0.58689 0.0
O66 O 0.65556 0.17016 0.27752 0.0
C67 C 0.66376 0.08549 0.36122 0.0
Co68 Co 0.86633 0.63834 0.66407 0.0
Co69 Co 0.89538 0.64698 0.81158 0.0
C70 C 0.87303 0.59348 0.76673 0.0
O71 O 0.86419 0.60208 0.70589 0.0
O72 O 0.88529 0.60867 0.81129 0.0
C73 C 0.85581 0.62399 0.52305 0.0
O74 O 0.87107 0.60414 0.54403 0.0
C75 C 0.89896 0.64729 0.96912 0.0
C76 C 0.92937 0.67816 0.99076 0.0
C77 C 0.91158 0.66104 0.02448 0.0
N78 N 0.90883 0.65571 0.90508 0.0
N79 N 0.92741 0.67379 0.91815 0.0
C80 C 0.87536 0.62922 0.97645 0.0
H81 H 0.86315 0.62958 0.92587 0.0
H82 H 0.86278 0.63507 0.02386 0.0
H83 H 0.88256 0.60864 0.9859 0.0
C84 C 0.83234 0.68179 0.72346 0.0
N85 N 0.85261 0.66431 0.72918 0.0
N86 N 0.86534 0.66855 0.79098 0.0
C87 C 0.85377 0.68913 0.82617 0.0
C88 C 0.83245 0.69805 0.78478 0.0
C89 C 0.81456 0.68404 0.6581 0.0
H90 H 0.80606 0.66422 0.64504 0.0
H91 H 0.79818 0.69851 0.66753 0.0
H92 H 0.82659 0.69054 0.61028 0.0
O93 O 0.90371 0.64672 0.63538 0.0
O94 O 0.9241 0.65399 0.74084 0.0
H95 H 0.85195 0.71871 0.91264 0.0
H96 H 0.8609 0.68569 0.94101 0.0
C97 C 0.86333 0.70065 0.89702 0.0
H98 H 0.88477 0.70575 0.89237 0.0
H99 H 0.93772 0.68412 0.87743 0.0
O100 O 0.84746 0.6402 0.57105 0.0
C101 C 0.92449 0.65292 0.67136 0.0
Co102 Co 0.35127 0.85759 0.86638 0.0
Co103 Co 0.35772 0.88785 0.01364 0.0
C104 C 0.40473 0.86513 0.92795 0.0
O105 O 0.39 0.855 0.87876 0.0
O106 O 0.39471 0.87822 0.98104 0.0
C107 C 0.35558 0.82539 0.73754 0.0
O108 O 0.37623 0.81409 0.76881 0.0
C109 C 0.37058 0.88168 0.16543 0.0
C110 C 0.34584 0.91222 0.21962 0.0
C111 C 0.36119 0.88978 0.23335 0.0
N112 N 0.36008 0.89759 0.11403 0.0
N113 N 0.34603 0.9164 0.14674 0.0
C114 C 0.38837 0.85854 0.1483 0.0
H115 H 0.4036 0.86458 0.10784 0.0
H116 H 0.37637 0.84223 0.12392 0.0
H117 H 0.39898 0.85132 0.19766 0.0
C118 C 0.31388 0.82513 0.95211 0.0
N119 N 0.33238 0.84442 0.9464 0.0
N120 N 0.33329 0.85823 0.00751 0.0
C121 C 0.31463 0.84842 0.05369 0.0
C122 C 0.30199 0.82705 0.02034 0.0
C123 C 0.30582 0.80736 0.89029 0.0
H124 H 0.29544 0.8194 0.84813 0.0
H125 H 0.32388 0.79865 0.86457 0.0
H126 H 0.29233 0.79123 0.90901 0.0
O127 O 0.34141 0.89489 0.85025 0.0
O128 O 0.34498 0.91833 0.95263 0.0
H129 H 0.30707 0.88195 0.12307 0.0
H130 H 0.28857 0.85253 0.14807 0.0
C131 C 0.3079 0.85998 0.1269 0.0
H132 H 0.32348 0.85417 0.1666 0.0
H133 H 0.33478 0.93068 0.11912 0.0
O134 O 0.34096 0.84111 0.77412 0.0
C135 C 0.3393 0.91675 0.88475 0.0
Co136 Co 0.14483 0.64829 0.37 0.0
Co137 Co 0.11102 0.64565 0.22673 0.0
C138 C 0.13838 0.59726 0.29147 0.0
O139 O 0.14854 0.61074 0.34331 0.0
O140 O 0.1236 0.60815 0.24324 0.0
C141 C 0.16273 0.63854 0.51137 0.0
O142 O 0.1553 0.61441 0.49282 0.0
C143 C 0.11036 0.64025 0.06962 0.0
C144 C 0.07496 0.66373 0.03798 0.0
C145 C 0.09707 0.65067 0.00976 0.0
N146 N 0.09702 0.64723 0.13039 0.0
N147 N 0.07541 0.66056 0.11119 0.0
C148 C 0.13751 0.62778 0.07023 0.0
H149 H 0.14667 0.62931 0.12531 0.0
H150 H 0.15074 0.63738 0.02923 0.0
H151 H 0.13562 0.60644 0.05559 0.0
C152 C 0.17411 0.68912 0.28738 0.0
N153 N 0.15488 0.67058 0.29293 0.0
N154 N 0.13973 0.67112 0.23415 0.0
C155 C 0.14852 0.69088 0.19008 0.0
C156 C 0.17071 0.70264 0.22205 0.0
C157 C 0.19393 0.69493 0.34638 0.0
H158 H 0.20316 0.67606 0.36515 0.0
H159 H 0.20965 0.70888 0.32747 0.0
H160 H 0.18337 0.70385 0.39386 0.0
O161 O 0.10762 0.65564 0.39649 0.0
O162 O 0.08193 0.65415 0.29802 0.0
H163 H 0.14159 0.7193 0.10282 0.0
H164 H 0.14236 0.68521 0.0755 0.0
C165 C 0.13577 0.69891 0.1194 0.0
H166 H 0.11378 0.69799 0.12451 0.0
H167 H 0.06216 0.66928 0.14822 0.0
O168 O 0.16363 0.65638 0.46216 0.0
C169 C 0.08485 0.65765 0.36659 0.0
Co170 Co 0.35969 0.13683 0.61331 0.0
Co171 Co 0.3502 0.11088 0.46112 0.0
C172 C 0.40476 0.12962 0.51226 0.0
O173 O 0.39635 0.13806 0.57358 0.0
O174 O 0.38915 0.11874 0.4663 0.0
C175 C 0.38031 0.15919 0.74411 0.0
O176 O 0.4029 0.15958 0.70766 0.0
C177 C 0.35648 0.11218 0.30571 0.0
C178 C 0.32985 0.08075 0.26361 0.0
C179 C 0.34838 0.09971 0.24247 0.0
N180 N 0.34388 0.101 0.3625 0.0
N181 N 0.3279 0.08216 0.33732 0.0
C182 C 0.37471 0.13564 0.31144 0.0
H183 H 0.37074 0.14701 0.36235 0.0
H184 H 0.37224 0.14899 0.26352 0.0
H185 H 0.39558 0.12837 0.31175 0.0
C186 C 0.32142 0.17627 0.55249 0.0
N187 N 0.33516 0.15329 0.54869 0.0
N188 N 0.33031 0.14175 0.48544 0.0
C189 C 0.31286 0.15674 0.44745 0.0
C190 C 0.30677 0.17923 0.48849 0.0
C191 C 0.32275 0.19503 0.61596 0.0
H192 H 0.31775 0.18415 0.667 0.0
H193 H 0.34346 0.20256 0.62154 0.0
H194 H 0.30881 0.21201 0.60932 0.0
O195 O 0.34944 0.09941 0.63367 0.0
O196 O 0.34074 0.08093 0.52614 0.0
H197 H 0.29896 0.12943 0.36577 0.0
H198 H 0.28684 0.16291 0.35368 0.0
C199 C 0.30417 0.15078 0.37071 0.0
H200 H 0.32082 0.15514 0.33264 0.0
H201 H 0.31577 0.07027 0.37029 0.0
O202 O 0.35893 0.15334 0.71062 0.0
C203 C 0.34206 0.07955 0.5956 0.0
Co204 Co 0.86095 0.34748 0.89608 0.0
Co205 Co 0.88428 0.35073 0.73943 0.0
C206 C 0.86485 0.39942 0.81768 0.0
O207 O 0.85855 0.38562 0.87336 0.0
O208 O 0.87482 0.3886 0.7608 0.0
C209 C 0.83145 0.35838 0.02773 0.0
O210 O 0.82899 0.38266 0.00205 0.0
C211 C 0.8809 0.35779 0.58334 0.0
C212 C 0.9114 0.32951 0.54334 0.0
C213 C 0.89073 0.34585 0.52067 0.0
N214 N 0.89472 0.34845 0.64057 0.0
N215 N 0.91354 0.33227 0.61633 0.0
C216 C 0.85618 0.37437 0.59045 0.0
H217 H 0.84729 0.37206 0.64573 0.0
H218 H 0.84122 0.36891 0.54831 0.0
H219 H 0.86156 0.39559 0.58255 0.0
C220 C 0.82352 0.31044 0.82452 0.0
N221 N 0.84489 0.32664 0.82284 0.0
N222 N 0.85505 0.3269 0.75646 0.0
C223 C 0.84077 0.31004 0.71407 0.0
C224 C 0.82019 0.29934 0.75572 0.0
C225 C 0.8068 0.30567 0.89116 0.0
H226 H 0.81965 0.29806 0.93589 0.0
H227 H 0.79801 0.32479 0.90967 0.0
H228 H 0.79065 0.29109 0.88058 0.0
O229 O 0.89901 0.33798 0.91084 0.0
O230 O 0.91556 0.34043 0.79852 0.0
H231 H 0.86753 0.30289 0.62459 0.0
H232 H 0.83574 0.28673 0.61498 0.0
C233 C 0.84586 0.30498 0.63449 0.0
H234 H 0.83809 0.32186 0.60205 0.0
H235 H 0.92633 0.32145 0.65009 0.0
O236 O 0.84338 0.34083 0.98997 0.0
C237 C 0.91857 0.33614 0.86662 0.0
Co238 Co 0.64602 0.86717 0.06363 0.0
Co239 Co 0.65216 0.8978 0.91176 0.0
C240 C 0.59981 0.87521 0.96115 0.0
O241 O 0.60933 0.86692 0.02158 0.0
O242 O 0.61428 0.88711 0.91422 0.0
C243 C 0.64598 0.83328 0.21121 0.0
O244 O 0.64324 0.80784 0.2261 0.0
C245 C 0.64807 0.90749 0.75261 0.0
C246 C 0.68608 0.92784 0.7287 0.0
C247 C 0.66415 0.91628 0.69516 0.0
N248 N 0.66056 0.91245 0.81644 0.0
N249 N 0.6829 0.92537 0.80171 0.0
C250 C 0.62092 0.89524 0.74767 0.0
H251 H 0.60757 0.90461 0.78861 0.0
H252 H 0.62233 0.87366 0.76002 0.0
H253 H 0.61187 0.89822 0.69295 0.0
C254 C 0.68948 0.83527 0.99555 0.0
N255 N 0.67151 0.85525 0.99296 0.0
N256 N 0.67355 0.86738 0.92927 0.0
C257 C 0.69256 0.85518 0.88912 0.0
C258 C 0.7034 0.83466 0.92992 0.0
C259 C 0.69429 0.81823 0.06133 0.0
H260 H 0.69613 0.83101 0.11061 0.0
H261 H 0.67694 0.80483 0.0694 0.0
H262 H 0.71261 0.80604 0.05524 0.0
O263 O 0.65464 0.90383 0.09629 0.0
O264 O 0.65942 0.92484 0.98945 0.0
H265 H 0.71159 0.88072 0.81164 0.0
H266 H 0.71154 0.84619 0.78541 0.0
C267 C 0.69966 0.86216 0.8119 0.0
H268 H 0.68126 0.86521 0.7796 0.0
H269 H 0.69678 0.93106 0.84125 0.0
O270 O 0.64529 0.84025 0.14421 0.0
C271 C 0.65966 0.92481 0.05943 0.0
H272 H 0.25493 0.1806 0.4439 0.0
H273 H 0.32464 0.23018 0.47583 0.0
H274 H 0.30067 0.26846 0.42116 0.0
H275 H 0.23779 0.20599 0.26963 0.0
H276 H 0.20225 0.20429 0.28416 0.0
H277 H 0.22404 0.18157 0.33131 0.0
H278 H 0.20467 0.19683 0.45616 0.0
H279 H 0.18259 0.21939 0.40936 0.0
H280 H 0.20475 0.23172 0.47919 0.0
H281 H 0.26965 0.30051 0.35722 0.0
H282 H 0.23296 0.32466 0.29515 0.0
H283 H 0.18452 0.25331 0.30022 0.0
C284 C 0.26496 0.19964 0.43995 0.0
C285 C 0.29151 0.20266 0.46382 0.0
C286 C 0.30416 0.22772 0.45823 0.0
C287 C 0.29078 0.24943 0.42693 0.0
C288 C 0.26481 0.24561 0.4017 0.0
C289 C 0.25197 0.22138 0.4084 0.0
C290 C 0.22438 0.22221 0.37498 0.0
C291 C 0.22199 0.20234 0.31124 0.0
C292 C 0.20283 0.21725 0.43342 0.0
C293 C 0.22373 0.25064 0.34797 0.0
C294 C 0.2472 0.26385 0.364 0.0
C295 C 0.25118 0.29038 0.34451 0.0
C296 C 0.23039 0.30386 0.30893 0.0
C297 C 0.20611 0.29073 0.29327 0.0
C298 C 0.20292 0.26374 0.31209 0.0
H299 H 0.8217 0.24947 0.69558 0.0
H300 H 0.76794 0.31328 0.75648 0.0
H301 H 0.72989 0.28788 0.70566 0.0
H302 H 0.79099 0.23429 0.52497 0.0
H303 H 0.79604 0.19887 0.53188 0.0
H304 H 0.81872 0.22138 0.57666 0.0
H305 H 0.80987 0.1979 0.70066 0.0
H306 H 0.78721 0.17525 0.65622 0.0
H307 H 0.77609 0.19464 0.73351 0.0
H308 H 0.69838 0.25685 0.64204 0.0
H309 H 0.67496 0.22104 0.57442 0.0
H310 H 0.74901 0.17716 0.55563 0.0
C311 C 0.80184 0.25792 0.6984 0.0
C312 C 0.79753 0.28323 0.72956 0.0
C313 C 0.77142 0.2938 0.73295 0.0
C314 C 0.7498 0.27958 0.70411 0.0
C315 C 0.75472 0.25482 0.67248 0.0
C316 C 0.78005 0.24397 0.66986 0.0
C317 C 0.77999 0.21725 0.63139 0.0
C318 C 0.79747 0.21801 0.56212 0.0
C319 C 0.78881 0.19494 0.68358 0.0
C320 C 0.7507 0.21486 0.61233 0.0
C321 C 0.73649 0.23678 0.63643 0.0
C322 C 0.70924 0.23951 0.62339 0.0
C323 C 0.69615 0.21922 0.58494 0.0
C324 C 0.71032 0.1966 0.56051 0.0
C325 C 0.73786 0.19433 0.57439 0.0
H326 H 0.78029 0.70022 0.82753 0.0
H327 H 0.84886 0.74918 0.7757 0.0
H328 H 0.82323 0.78964 0.8084 0.0
H329 H 0.72942 0.74607 0.76119 0.0
H330 H 0.70635 0.73847 0.83402 0.0
H331 H 0.72975 0.71364 0.80328 0.0
H332 H 0.74726 0.70858 0.93596 0.0
H333 H 0.72412 0.73361 0.96698 0.0
H334 H 0.75931 0.73749 0.98412 0.0
H335 H 0.7907 0.82431 0.84819 0.0
H336 H 0.7527 0.8516 0.89114 0.0
H337 H 0.70536 0.78027 0.92108 0.0
C338 C 0.78962 0.71956 0.82227 0.0
C339 C 0.81629 0.72195 0.79864 0.0
C340 C 0.82829 0.74729 0.79325 0.0
C341 C 0.81395 0.77024 0.81186 0.0
C342 C 0.78774 0.76733 0.83608 0.0
C343 C 0.77562 0.74268 0.84124 0.0
C344 C 0.74741 0.74512 0.87055 0.0
C345 C 0.72703 0.73524 0.81387 0.0
C346 C 0.74436 0.73032 0.94375 0.0
C347 C 0.7456 0.77498 0.88107 0.0
C348 C 0.76909 0.78737 0.86065 0.0
C349 C 0.77222 0.81486 0.8644 0.0
C350 C 0.75063 0.83016 0.88884 0.0
C351 C 0.72637 0.8179 0.90943 0.0
C352 C 0.72389 0.78997 0.90622 0.0
H353 H 0.22278 0.70204 0.17958 0.0
H354 H 0.15394 0.75353 0.20147 0.0
H355 H 0.17993 0.79108 0.14986 0.0
H356 H 0.27239 0.75117 0.22771 0.0
H357 H 0.29663 0.73913 0.16265 0.0
H358 H 0.27258 0.71657 0.20165 0.0
H359 H 0.25718 0.70317 0.07133 0.0
H360 H 0.28108 0.72581 0.03193 0.0
H361 H 0.24627 0.7286 0.00856 0.0
H362 H 0.21328 0.82267 0.09555 0.0
H363 H 0.25229 0.84666 0.04446 0.0
H364 H 0.29939 0.77457 0.05723 0.0
C365 C 0.21336 0.72131 0.17367 0.0
C366 C 0.18649 0.72514 0.19388 0.0
C367 C 0.17454 0.75042 0.18561 0.0
C368 C 0.18911 0.77175 0.15649 0.0
C369 C 0.21556 0.76732 0.13614 0.0
C370 C 0.22761 0.74277 0.1445 0.0
C371 C 0.25628 0.74331 0.11822 0.0
C372 C 0.27561 0.73719 0.18133 0.0
C373 C 0.26043 0.72408 0.05367 0.0
C374 C 0.25849 0.77201 0.09388 0.0
C375 C 0.23476 0.78551 0.10465 0.0
C376 C 0.23196 0.81233 0.0869 0.0
C377 C 0.2541 0.82576 0.05802 0.0
C378 C 0.27858 0.81233 0.04744 0.0
C379 C 0.28075 0.78512 0.06486 0.0
H380 H 0.10438 0.3801 0.57691 0.0
H381 H 0.11656 0.29489 0.56339 0.0
H382 H 0.1379 0.29535 0.6857 0.0
H383 H 0.1653 0.39654 0.67003 0.0
H384 H 0.15022 0.42159 0.72734 0.0
H385 H 0.13658 0.4147 0.63811 0.0
H386 H 0.09017 0.40519 0.69556 0.0
H387 H 0.10354 0.41269 0.78456 0.0
H388 H 0.08742 0.38116 0.76845 0.0
H389 H 0.15864 0.30548 0.80767 0.0
H390 H 0.17009 0.32277 0.92994 0.0
H391 H 0.14288 0.40131 0.86499 0.0
C392 C 0.11142 0.36158 0.60022 0.0
C393 C 0.10896 0.33746 0.56156 0.0
C394 C 0.11815 0.31348 0.5931 0.0
C395 C 0.13055 0.31364 0.66185 0.0
C396 C 0.13329 0.33791 0.69806 0.0
C397 C 0.1235 0.36134 0.66902 0.0
C398 C 0.12752 0.38445 0.72085 0.0
C399 C 0.14601 0.40556 0.68705 0.0
C400 C 0.10056 0.39657 0.74372 0.0
C401 C 0.14089 0.37033 0.78401 0.0
C402 C 0.14453 0.3436 0.76917 0.0
C403 C 0.15588 0.32636 0.81999 0.0
C404 C 0.16252 0.33644 0.88914 0.0
C405 C 0.15731 0.3634 0.90704 0.0
C406 C 0.14722 0.38067 0.8528 0.0
H407 H 0.66346 0.18912 0.06638 0.0
H408 H 0.64243 0.12379 0.21021 0.0
H409 H 0.63768 0.09424 0.10209 0.0
H410 H 0.61685 0.17362 0.92492 0.0
H411 H 0.63897 0.18386 0.85231 0.0
H412 H 0.64145 0.19911 0.94126 0.0
H413 H 0.69146 0.1862 0.94792 0.0
H414 H 0.68917 0.17104 0.85885 0.0
H415 H 0.70106 0.15192 0.93561 0.0
H416 H 0.63609 0.07186 0.97395 0.0
H417 H 0.63638 0.05972 0.84206 0.0
H418 H 0.6568 0.14097 0.78631 0.0
C419 C 0.65786 0.1686 0.07576 0.0
C420 C 0.65377 0.1587 0.14744 0.0
C421 C 0.64628 0.13171 0.15631 0.0
C422 C 0.64333 0.11486 0.09497 0.0
C423 C 0.64763 0.12541 0.02506 0.0
C424 C 0.65461 0.15176 0.01556 0.0
C425 C 0.65781 0.15871 0.9354 0.0
C426 C 0.63756 0.18009 0.91214 0.0
C427 C 0.68659 0.16748 0.91848 0.0
C428 C 0.65154 0.13216 0.90062 0.0
C429 C 0.64583 0.11306 0.95285 0.0
C430 C 0.64024 0.08682 0.93288 0.0
C431 C 0.64043 0.08009 0.85793 0.0
C432 C 0.64578 0.09958 0.80383 0.0
C433 C 0.65161 0.12584 0.826 0.0
H434 H 0.9126 0.61952 0.11867 0.0
H435 H 0.891 0.7027 0.10014 0.0
H436 H 0.87005 0.701 0.22313 0.0
H437 H 0.85462 0.5971 0.21098 0.0
H438 H 0.87198 0.57439 0.27059 0.0
H439 H 0.88556 0.58216 0.18178 0.0
H440 H 0.93 0.59747 0.24099 0.0
H441 H 0.91685 0.58913 0.32981 0.0
H442 H 0.9293 0.62217 0.3125 0.0
H443 H 0.84966 0.68934 0.34434 0.0
H444 H 0.83857 0.67135 0.46608 0.0
H445 H 0.87505 0.59599 0.40624 0.0
C446 C 0.90382 0.63742 0.14141 0.0
C447 C 0.90338 0.66128 0.10126 0.0
C448 C 0.89171 0.6844 0.1314 0.0
C449 C 0.87954 0.6835 0.20045 0.0
C450 C 0.8796 0.65939 0.23812 0.0
C451 C 0.89201 0.63695 0.21049 0.0
C452 C 0.89026 0.61386 0.26318 0.0
C453 C 0.87467 0.5905 0.2296 0.0
C454 C 0.91826 0.60516 0.28811 0.0
C455 C 0.8748 0.62676 0.32475 0.0
C456 C 0.86848 0.65288 0.30874 0.0
C457 C 0.8546 0.66896 0.35774 0.0
C458 C 0.8482 0.65846 0.42653 0.0
C459 C 0.8561 0.63229 0.44574 0.0
C460 C 0.86869 0.61601 0.39309 0.0
H461 H 0.35864 0.90986 0.37187 0.0
H462 H 0.35999 0.83525 0.25213 0.0
H463 H 0.36003 0.81049 0.36757 0.0
H464 H 0.39792 0.89028 0.52672 0.0
H465 H 0.37725 0.90758 0.59207 0.0
H466 H 0.37972 0.91958 0.49947 0.0
H467 H 0.32822 0.91725 0.48723 0.0
H468 H 0.3257 0.90513 0.57972 0.0
H469 H 0.31128 0.88632 0.50562 0.0
H470 H 0.36211 0.79364 0.49771 0.0
H471 H 0.36066 0.78656 0.63247 0.0
H472 H 0.35127 0.87155 0.66433 0.0
C473 C 0.35929 0.88832 0.37002 0.0
C474 C 0.36121 0.87465 0.30283 0.0
C475 C 0.36076 0.8464 0.30262 0.0
C476 C 0.3602 0.83202 0.36814 0.0
C477 C 0.35901 0.84613 0.43344 0.0
C478 C 0.35797 0.87364 0.43485 0.0
C479 C 0.35494 0.88394 0.51208 0.0
C480 C 0.37889 0.90136 0.53384 0.0
C481 C 0.32846 0.89904 0.52169 0.0
C482 C 0.35476 0.85794 0.55361 0.0
C483 C 0.35748 0.83632 0.50761 0.0
C484 C 0.35948 0.81035 0.53438 0.0
C485 C 0.35865 0.80647 0.61052 0.0
C486 C 0.35516 0.82841 0.65784 0.0
C487 C 0.35312 0.85435 0.62888 0.0
H488 H 0.11733 0.61237 0.91922 0.0
H489 H 0.10198 0.69705 0.93484 0.0
H490 H 0.12365 0.70393 0.81456 0.0
H491 H 0.18169 0.61655 0.82589 0.0
H492 H 0.17508 0.58824 0.76806 0.0
H493 H 0.16028 0.59018 0.8579 0.0
H494 H 0.11309 0.5847 0.80172 0.0
H495 H 0.12782 0.58222 0.71216 0.0
H496 H 0.10259 0.60696 0.72995 0.0
H497 H 0.1459 0.70141 0.69206 0.0
H498 H 0.16038 0.68906 0.5676 0.0
H499 H 0.16022 0.60575 0.63041 0.0
C500 C 0.11871 0.63233 0.89722 0.0
C501 C 0.10818 0.65422 0.93581 0.0
C502 C 0.10985 0.68005 0.90542 0.0
C503 C 0.1224 0.68417 0.83778 0.0
C504 C 0.13299 0.66221 0.80136 0.0
C505 C 0.13089 0.63674 0.82941 0.0
C506 C 0.14184 0.61631 0.77648 0.0
C507 C 0.16617 0.60198 0.80904 0.0
C508 C 0.12003 0.59639 0.75372 0.0
C509 C 0.14986 0.6342 0.71355 0.0
C510 C 0.14519 0.66066 0.72971 0.0
C511 C 0.1498 0.68078 0.67883 0.0
C512 C 0.15819 0.67357 0.60834 0.0
C513 C 0.16137 0.64642 0.58921 0.0
C514 C 0.15814 0.62667 0.6435 0.0
H515 H 0.3185 0.11252 0.12271 0.0
H516 H 0.39979 0.10162 0.19759 0.0
H517 H 0.4168 0.12029 0.08159 0.0
H518 H 0.33143 0.09526 0.932 0.0
H519 H 0.3082 0.11952 0.89733 0.0
H520 H 0.30282 0.10474 0.98589 0.0
H521 H 0.30106 0.15194 0.04324 0.0
H522 H 0.30723 0.16683 0.95512 0.0
H523 H 0.32892 0.1742 0.03109 0.0
H524 H 0.42491 0.14172 0.96112 0.0
H525 H 0.42404 0.15736 0.83336 0.0
H526 H 0.3374 0.15417 0.83588 0.0
C527 C 0.33984 0.1136 0.11368 0.0
C528 C 0.35795 0.10595 0.16857 0.0
C529 C 0.38573 0.10775 0.15591 0.0
C530 C 0.39554 0.11842 0.0906 0.0
C531 C 0.37721 0.12702 0.03869 0.0
C532 C 0.34998 0.12424 0.04864 0.0
C533 C 0.33471 0.13457 0.98322 0.0
C534 C 0.31833 0.11219 0.94748 0.0
C535 C 0.31694 0.15829 0.00448 0.0
C536 C 0.35765 0.14329 0.93485 0.0
C537 C 0.38195 0.13914 0.96842 0.0
C538 C 0.40603 0.14503 0.93398 0.0
C539 C 0.40531 0.15411 0.8616 0.0
C540 C 0.38067 0.15685 0.82451 0.0
C541 C 0.35655 0.15236 0.86279 0.0
H542 H 0.87512 0.38577 0.4293 0.0
H543 H 0.87426 0.30015 0.457 0.0
H544 H 0.84886 0.29531 0.34204 0.0
H545 H 0.80855 0.39205 0.33841 0.0
H546 H 0.82043 0.41732 0.27644 0.0
H547 H 0.83451 0.41459 0.36692 0.0
H548 H 0.88198 0.41004 0.31132 0.0
H549 H 0.86805 0.41336 0.22131 0.0
H550 H 0.88816 0.38474 0.24337 0.0
H551 H 0.82891 0.29904 0.21991 0.0
H552 H 0.82136 0.31045 0.09044 0.0
H553 H 0.83477 0.39376 0.14 0.0
C554 C 0.86917 0.36612 0.41125 0.0
C555 C 0.87647 0.34331 0.45111 0.0
C556 C 0.86891 0.31778 0.42624 0.0
C557 C 0.85415 0.3149 0.36188 0.0
C558 C 0.84716 0.33777 0.32343 0.0
C559 C 0.85465 0.36288 0.34664 0.0
C560 C 0.8478 0.38381 0.29027 0.0
C561 C 0.82655 0.40308 0.31979 0.0
C562 C 0.87299 0.39884 0.26507 0.0
C563 C 0.83658 0.36635 0.23017 0.0
C564 C 0.83563 0.33995 0.25147 0.0
C565 C 0.82901 0.31966 0.20289 0.0
C566 C 0.82474 0.3263 0.12956 0.0
C567 C 0.82735 0.35296 0.10583 0.0
C568 C 0.83195 0.37334 0.15732 0.0
H569 H 0.62939 0.82606 0.35065 0.0
H570 H 0.67135 0.88217 0.21235 0.0
H571 H 0.67911 0.91121 0.32003 0.0
H572 H 0.59763 0.87302 0.47281 0.0
H573 H 0.60246 0.8522 0.552 0.0
H574 H 0.59871 0.83735 0.46284 0.0
H575 H 0.64371 0.81256 0.47905 0.0
H576 H 0.64751 0.82721 0.56828 0.0
H577 H 0.67334 0.83133 0.50049 0.0
H578 H 0.68301 0.93338 0.4481 0.0
H579 H 0.68359 0.94541 0.57971 0.0
H580 H 0.64253 0.87176 0.63043 0.0
C581 C 0.6398 0.84471 0.34253 0.0
C582 C 0.64912 0.85228 0.27262 0.0
C583 C 0.66306 0.87658 0.26475 0.0
C584 C 0.6677 0.89307 0.32589 0.0
C585 C 0.65813 0.88496 0.39428 0.0
C586 C 0.64456 0.8612 0.40254 0.0
C587 C 0.63772 0.85579 0.48172 0.0
C588 C 0.60733 0.85453 0.49297 0.0
C589 C 0.65139 0.83022 0.50896 0.0
C590 C 0.64946 0.88022 0.51734 0.0
C591 C 0.66101 0.89701 0.46645 0.0
C592 C 0.67352 0.92056 0.48787 0.0
C593 C 0.67386 0.92718 0.56282 0.0
C594 C 0.66201 0.91019 0.61561 0.0
C595 C 0.65021 0.88617 0.59195 0.0
H596 H 0.03484 0.34028 0.16363 0.0
H597 H 0.09006 0.3287 0.98292 0.0
H598 H 0.05234 0.32141 0.8994 0.0
H599 H 0.98368 0.29176 0.10126 0.0
H600 H 0.95642 0.31264 0.13032 0.0
H601 H 0.98777 0.31375 0.17843 0.0
H602 H 0.99041 0.36465 0.15702 0.0
H603 H 0.95914 0.36368 0.10888 0.0
H604 H 0.98827 0.37744 0.06501 0.0
H605 H 0.0093 0.31948 0.83309 0.0
H606 H 0.96327 0.32387 0.78756 0.0
H607 H 0.93534 0.33694 0.00993 0.0
C608 C 0.03896 0.33562 0.10685 0.0
C609 C 0.06541 0.33493 0.07998 0.0
C610 C 0.06998 0.32932 0.00491 0.0
C611 C 0.04869 0.32501 0.95696 0.0
C612 C 0.02287 0.32632 0.98477 0.0
C613 C 0.01785 0.33143 0.05789 0.0
C614 C 0.98814 0.33385 0.07213 0.0
C615 C 0.97843 0.31167 0.12358 0.0
C616 C 0.98109 0.36155 0.10253 0.0
C617 C 0.97739 0.33004 0.99528 0.0
C618 C 0.99778 0.32538 0.94599 0.0
C619 C 0.99309 0.32277 0.87121 0.0
C620 C 0.96687 0.32537 0.84587 0.0
C621 C 0.94565 0.33065 0.89513 0.0
C622 C 0.95104 0.33254 0.97097 0.0
H623 H 0.64507 0.93927 0.19924 0.0
H624 H 0.68786 0.96709 0.00709 0.0
H625 H 0.6972 0.00959 0.06944 0.0
H626 H 0.61365 0.00168 0.23516 0.0
H627 H 0.61466 0.99823 0.33334 0.0
H628 H 0.61332 0.96907 0.27622 0.0
H629 H 0.65507 0.95168 0.34011 0.0
H630 H 0.65855 0.98116 0.39502 0.0
H631 H 0.68575 0.97049 0.33733 0.0
H632 H 0.69945 0.04979 0.14772 0.0
H633 H 0.69306 0.08627 0.2361 0.0
H634 H 0.64858 0.03323 0.37855 0.0
C635 C 0.65677 0.95417 0.17081 0.0
C636 C 0.66593 0.94982 0.09845 0.0
C637 C 0.68065 0.97 0.06245 0.0
C638 C 0.68618 0.99415 0.09755 0.0
C639 C 0.67669 0.99791 0.16848 0.0
C640 C 0.66213 0.97862 0.20468 0.0
C641 C 0.65237 0.98874 0.27833 0.0
C642 C 0.62168 0.98948 0.28087 0.0
C643 C 0.66367 0.97203 0.3414 0.0
C644 C 0.66402 0.01657 0.27811 0.0
C645 C 0.67795 0.02138 0.21409 0.0
C646 C 0.68893 0.04617 0.19852 0.0
C647 C 0.68519 0.06675 0.24909 0.0
C648 C 0.67067 0.06246 0.31465 0.0
C649 C 0.66037 0.03688 0.32986 0.0
H650 H 0.03133 0.64602 0.34562 0.0
H651 H 0.08685 0.68278 0.49748 0.0
H652 H 0.05071 0.68882 0.58666 0.0
H653 H 0.97226 0.6877 0.39805 0.0
H654 H 0.94923 0.66031 0.39045 0.0
H655 H 0.97843 0.66147 0.33279 0.0
H656 H 0.99281 0.61501 0.37848 0.0
H657 H 0.96365 0.61343 0.43585 0.0
H658 H 0.99631 0.60919 0.47539 0.0
H659 H 0.01105 0.68647 0.66472 0.0
H660 H 0.96854 0.6773 0.72714 0.0
H661 H 0.93727 0.64237 0.52721 0.0
C662 C 0.03563 0.65596 0.39686 0.0
C663 C 0.06191 0.66396 0.41452 0.0
C664 C 0.06691 0.67641 0.48277 0.0
C665 C 0.04649 0.68006 0.53381 0.0
C666 C 0.02104 0.67127 0.51592 0.0
C667 C 0.01533 0.65969 0.44904 0.0
C668 C 0.98649 0.65041 0.44658 0.0
C669 C 0.97067 0.6659 0.38851 0.0
C670 C 0.98473 0.62022 0.43333 0.0
C671 C 0.97742 0.65771 0.52337 0.0
C672 C 0.99766 0.66998 0.56186 0.0
C673 C 0.99485 0.67724 0.63499 0.0
C674 C 0.97066 0.67179 0.6701 0.0
C675 C 0.94955 0.65917 0.63213 0.0
C676 C 0.95294 0.6523 0.55748 0.0
H677 H 0.35231 0.96942 0.90884 0.0
H678 H 0.30918 0.91701 0.76176 0.0
H679 H 0.30174 0.95425 0.67709 0.0
H680 H 0.31192 0.03109 0.87055 0.0
H681 H 0.34109 0.052 0.87447 0.0
H682 H 0.33937 0.0223 0.92948 0.0
H683 H 0.38389 0.00628 0.87211 0.0
H684 H 0.38539 0.03575 0.81642 0.0
H685 H 0.38659 0.00338 0.77398 0.0
H686 H 0.30409 0.99476 0.60072 0.0
H687 H 0.31408 0.03745 0.53993 0.0
H688 H 0.35514 0.06449 0.73549 0.0
C689 C 0.34051 0.96609 0.8601 0.0
C690 C 0.33118 0.94038 0.84213 0.0
C691 C 0.31648 0.93656 0.77672 0.0
C692 C 0.31206 0.9576 0.72826 0.0
C693 C 0.32233 0.98247 0.74601 0.0
C694 C 0.33599 0.98698 0.81063 0.0
C695 C 0.34688 0.01513 0.81301 0.0
C696 C 0.33402 0.03106 0.87562 0.0
C697 C 0.3775 0.01511 0.81922 0.0
C698 C 0.33785 0.02531 0.73891 0.0
C699 C 0.32358 0.00618 0.70145 0.0
C700 C 0.3148 0.01014 0.62994 0.0
C701 C 0.32071 0.03437 0.59569 0.0
C702 C 0.33522 0.05436 0.63304 0.0
C703 C 0.34365 0.04976 0.70587 0.0
H704 H 0.13033 0.44805 0.13758 0.0
H705 H 0.14853 0.42229 0.35839 0.0
H706 H 0.15396 0.46906 0.39677 0.0
H707 H 0.17486 0.50556 0.13188 0.0
H708 H 0.15157 0.52614 0.08256 0.0
H709 H 0.1511 0.49055 0.07042 0.0
H710 H 0.10108 0.48946 0.10617 0.0
H711 H 0.10139 0.52502 0.11821 0.0
H712 H 0.09062 0.50379 0.19206 0.0
H713 H 0.15744 0.51786 0.41149 0.0
H714 H 0.1543 0.56661 0.40609 0.0
H715 H 0.1307 0.56184 0.17767 0.0
C716 C 0.13572 0.45239 0.19372 0.0
C717 C 0.13913 0.43173 0.24526 0.0
C718 C 0.14568 0.43794 0.31852 0.0
C719 C 0.149 0.46439 0.34058 0.0
C720 C 0.14535 0.48437 0.2888 0.0
C721 C 0.13853 0.47881 0.21712 0.0
C722 C 0.1339 0.50422 0.17413 0.0
C723 C 0.15407 0.50676 0.11101 0.0
C724 C 0.10503 0.5057 0.14601 0.0
C725 C 0.13906 0.52485 0.23307 0.0
C726 C 0.14609 0.51286 0.29831 0.0
C727 C 0.15193 0.52753 0.3608 0.0
C728 C 0.15016 0.55525 0.35702 0.0
C729 C 0.14219 0.56808 0.2915 0.0
C730 C 0.13676 0.55261 0.22856 0.0
H731 H 0.56325 0.11798 0.54368 0.0
H732 H 0.56715 0.15525 0.32926 0.0
H733 H 0.51827 0.15966 0.32872 0.0
H734 H 0.50418 0.08041 0.51221 0.0
H735 H 0.49089 0.08503 0.60308 0.0
H736 H 0.52642 0.08552 0.58842 0.0
H737 H 0.52922 0.13208 0.64884 0.0
H738 H 0.49368 0.13173 0.66382 0.0
H739 H 0.50883 0.15879 0.61418 0.0
H740 H 0.46933 0.15868 0.34822 0.0
H741 H 0.42268 0.15296 0.38836 0.0
H742 H 0.44969 0.11685 0.5904 0.0
C743 C 0.55386 0.12721 0.49679 0.0
C744 C 0.56912 0.13627 0.43651 0.0
C745 C 0.55598 0.1482 0.37621 0.0
C746 C 0.5282 0.15082 0.37532 0.0
C747 C 0.51379 0.14159 0.43531 0.0
C748 C 0.52608 0.13015 0.49513 0.0
C749 C 0.50574 0.12158 0.552 0.0
C750 C 0.50688 0.09134 0.56463 0.0
C751 C 0.5096 0.13697 0.62397 0.0
C752 C 0.4801 0.12965 0.51413 0.0
C753 C 0.4853 0.14117 0.44689 0.0
C754 C 0.46498 0.14964 0.40064 0.0
C755 C 0.43857 0.14602 0.42338 0.0
C756 C 0.43275 0.134 0.49147 0.0
C757 C 0.45375 0.12611 0.53803 0.0
H758 H 0.87203 0.55 0.67579 0.0
H759 H 0.86497 0.57372 0.90336 0.0
H760 H 0.85904 0.52677 0.9392 0.0
H761 H 0.82474 0.49452 0.681 0.0
H762 H 0.84468 0.47374 0.62197 0.0
H763 H 0.84611 0.50942 0.61294 0.0
H764 H 0.89737 0.50809 0.63052 0.0
H765 H 0.89609 0.47244 0.63951 0.0
H766 H 0.91105 0.49228 0.7107 0.0
H767 H 0.85469 0.47782 0.95097 0.0
H768 H 0.85586 0.4291 0.94021 0.0
H769 H 0.86826 0.43611 0.70549 0.0
C770 C 0.86886 0.54525 0.73298 0.0
C771 C 0.86878 0.56541 0.78695 0.0
C772 C 0.86517 0.55852 0.86138 0.0
C773 C 0.86162 0.53195 0.88214 0.0
C774 C 0.86202 0.51251 0.82783 0.0
C775 C 0.8658 0.51871 0.75486 0.0
C776 C 0.86732 0.49373 0.70836 0.0
C777 C 0.84434 0.49281 0.65279 0.0
C778 C 0.89458 0.49151 0.67004 0.0
C779 C 0.86403 0.47257 0.7668 0.0
C780 C 0.86058 0.48394 0.83505 0.0
C781 C 0.85732 0.46865 0.89785 0.0
C782 C 0.85796 0.44094 0.89102 0.0
C783 C 0.86217 0.42871 0.82198 0.0
C784 C 0.86502 0.44484 0.759 0.0
H785 H 0.557 0.8777 0.05456 0.0
H786 H 0.57886 0.86264 0.82852 0.0
H787 H 0.53143 0.8559 0.79727 0.0
H788 H 0.50127 0.83112 0.06573 0.0
H789 H 0.48101 0.85311 0.12047 0.0
H790 H 0.51686 0.85468 0.12661 0.0
H791 H 0.5155 0.90494 0.0952 0.0
H792 H 0.47968 0.90352 0.08909 0.0
H793 H 0.49896 0.91573 0.01281 0.0
H794 H 0.48193 0.85096 0.79035 0.0
H795 H 0.43306 0.85205 0.80532 0.0
H796 H 0.44283 0.87349 0.03408 0.0
C797 C 0.55174 0.87265 -0.00123 0.0
C798 C 0.57149 0.87052 0.94388 0.0
C799 C 0.56395 0.86445 0.87115 0.0
C800 C 0.53711 0.86043 0.85303 0.0
C801 C 0.51805 0.86287 0.90817 0.0
C802 C 0.52493 0.86912 0.9794 0.0
C803 C 0.50034 0.87241 0.02696 0.0
C804 C 0.49985 0.85158 0.08858 0.0
C805 C 0.49852 0.90084 0.0578 0.0
C806 C 0.47861 0.86715 0.9712 0.0
C807 C 0.48931 0.86127 0.90337 0.0
C808 C 0.47329 0.85556 0.84318 0.0
C809 C 0.44554 0.85617 0.85233 0.0
C810 C 0.43407 0.86286 0.92087 0.0
C811 C 0.45093 0.86831 0.98103 0.0
loop_
_geom_bond_atom_site_label_1
_geom_bond_atom_site_label_2
_geom_bond_distance
_geom_bond_site_symmetry_2
_ccdc_geom_bond_type
Co0 O3 1.970 . S
Co0 N17 1.989 . S
Co0 O25 1.967 . S
Co0 O32 1.920 . S
Co1 O4 1.966 . S
Co1 N10 2.022 . S
Co1 N18 1.993 . S
Co1 O26 1.941 . S
C2 O3 1.258 . S
C2 O4 1.263 . S
O3 Co0 1.970 . S
O3 C2 1.258 . S
O4 Co1 1.966 . S
O4 C2 1.263 . S
C5 O6 1.235 . S
C5 O32 1.289 . S
O6 C5 1.235 . S
C7 C9 1.400 . S
C7 N10 1.351 . S
C7 C12 1.501 . S
C8 C9 1.387 . S
C8 N11 1.341 . S
C9 C7 1.400 . S
C9 C8 1.387 . S
N10 Co1 2.022 . S
N10 C7 1.351 . S
N10 N11 1.365 . S
N11 C8 1.341 . S
N11 N10 1.365 . S
N11 H31 0.862 . S
C12 C7 1.501 . S
C12 H13 0.961 . S
C12 H14 0.961 . S
C12 H15 0.960 . S
H13 C12 0.961 . S
H14 C12 0.961 . S
H15 C12 0.960 . S
C16 N17 1.342 . S
C16 C20 1.401 . S
C16 C21 1.499 . S
N17 Co0 1.989 . S
N17 C16 1.342 . S
N17 N18 1.388 . S
N18 Co1 1.993 . S
N18 N17 1.388 . S
N18 C19 1.346 . S
C19 N18 1.346 . S
C19 C20 1.396 . S
C19 C29 1.510 . S
C20 C16 1.401 . S
C20 C19 1.396 . S
C21 C16 1.499 . S
C21 H22 0.959 . S
C21 H23 0.960 . S
C21 H24 0.961 . S
H22 C21 0.959 . S
H23 C21 0.960 . S
H24 C21 0.961 . S
O25 Co0 1.967 . S
O25 C33 1.258 . S
O26 Co1 1.941 . S
O26 C33 1.266 . S
H27 C29 0.959 . S
H28 C29 0.961 . S
C29 C19 1.510 . S
C29 H27 0.959 . S
C29 H28 0.961 . S
C29 H30 0.960 . S
H30 C29 0.960 . S
H31 N11 0.862 . S
O32 Co0 1.920 . S
O32 C5 1.289 . S
C33 O25 1.258 . S
C33 O26 1.266 . S
Co34 O37 1.970 . S
Co34 N51 1.989 . S
Co34 O59 1.967 . S
Co34 O66 1.920 . S
Co35 O38 1.966 . S
Co35 N44 2.022 . S
Co35 N52 1.993 . S
Co35 O60 1.941 . S
C36 O37 1.258 . S
C36 O38 1.263 . S
O37 Co34 1.970 . S
O37 C36 1.258 . S
O38 Co35 1.966 . S
O38 C36 1.263 . S
C39 O40 1.235 . S
C39 O66 1.289 . S
O40 C39 1.235 . S
C41 C43 1.400 . S
C41 N44 1.351 . S
C41 C46 1.501 . S
C42 C43 1.387 . S
C42 N45 1.341 . S
C43 C41 1.400 . S
C43 C42 1.387 . S
N44 Co35 2.022 . S
N44 C41 1.351 . S
N44 N45 1.365 . S
N45 C42 1.341 . S
N45 N44 1.365 . S
N45 H65 0.862 . S
C46 C41 1.501 . S
C46 H47 0.961 . S
C46 H48 0.961 . S
C46 H49 0.960 . S
H47 C46 0.961 . S
H48 C46 0.961 . S
H49 C46 0.960 . S
C50 N51 1.342 . S
C50 C54 1.401 . S
C50 C55 1.499 . S
N51 Co34 1.989 . S
N51 C50 1.342 . S
N51 N52 1.388 . S
N52 Co35 1.993 . S
N52 N51 1.388 . S
N52 C53 1.346 . S
C53 N52 1.346 . S
C53 C54 1.396 . S
C53 C63 1.510 . S
C54 C50 1.401 . S
C54 C53 1.396 . S
C55 C50 1.499 . S
C55 H56 0.959 . S
C55 H57 0.960 . S
C55 H58 0.961 . S
H56 C55 0.959 . S
H57 C55 0.960 . S
H58 C55 0.961 . S
O59 Co34 1.967 . S
O59 C67 1.258 . S
O60 Co35 1.941 . S
O60 C67 1.266 . S
H61 C63 0.959 . S
H62 C63 0.961 . S
C63 C53 1.510 . S
C63 H61 0.959 . S
C63 H62 0.961 . S
C63 H64 0.960 . S
H64 C63 0.960 . S
H65 N45 0.862 . S
O66 Co34 1.920 . S
O66 C39 1.289 . S
C67 O59 1.258 . S
C67 O60 1.266 . S
Co68 O71 1.970 . S
Co68 N85 1.989 . S
Co68 O93 1.967 . S
Co68 O100 1.920 . S
Co69 O72 1.966 . S
Co69 N78 2.022 . S
Co69 N86 1.993 . S
Co69 O94 1.941 . S
C70 O71 1.258 . S
C70 O72 1.263 . S
O71 Co68 1.970 . S
O71 C70 1.258 . S
O72 Co69 1.966 . S
O72 C70 1.263 . S
C73 O74 1.235 . S
C73 O100 1.289 . S
O74 C73 1.235 . S
C75 C77 1.400 1_556 S
C75 N78 1.351 . S
C75 C80 1.501 . S
C76 C77 1.387 . S
C76 N79 1.341 1_554 S
C77 C75 1.400 1_554 S
C77 C76 1.387 . S
N78 Co69 2.022 . S
N78 C75 1.351 . S
N78 N79 1.365 . S
N79 C76 1.341 1_556 S
N79 N78 1.365 . S
N79 H99 0.862 . S
C80 C75 1.501 . S
C80 H81 0.961 . S
C80 H82 0.961 . S
C80 H83 0.960 . S
H81 C80 0.961 . S
H82 C80 0.961 . S
H83 C80 0.960 . S
C84 N85 1.342 . S
C84 C88 1.401 . S
C84 C89 1.499 . S
N85 Co68 1.989 . S
N85 C84 1.342 . S
N85 N86 1.388 . S
N86 Co69 1.993 . S
N86 N85 1.388 . S
N86 C87 1.346 . S
C87 N86 1.346 . S
C87 C88 1.396 . S
C87 C97 1.510 . S
C88 C84 1.401 . S
C88 C87 1.396 . S
C89 C84 1.499 . S
C89 H90 0.959 . S
C89 H91 0.960 . S
C89 H92 0.961 . S
H90 C89 0.959 . S
H91 C89 0.960 . S
H92 C89 0.961 . S
O93 Co68 1.967 . S
O93 C101 1.258 . S
O94 Co69 1.941 . S
O94 C101 1.266 . S
H95 C97 0.959 . S
H96 C97 0.961 . S
C97 C87 1.510 . S
C97 H95 0.959 . S
C97 H96 0.961 . S
C97 H98 0.960 . S
H98 C97 0.960 . S
H99 N79 0.862 . S
O100 Co68 1.920 . S
O100 C73 1.289 . S
C101 O93 1.258 . S
C101 O94 1.266 . S
Co102 O105 1.970 . S
Co102 N119 1.989 . S
Co102 O127 1.967 . S
Co102 O134 1.920 . S
Co103 O106 1.966 . S
Co103 N112 2.022 . S
Co103 N120 1.993 . S
Co103 O128 1.941 . S
C104 O105 1.258 . S
C104 O106 1.263 1_556 S
O105 Co102 1.970 . S
O105 C104 1.258 . S
O106 Co103 1.966 . S
O106 C104 1.263 1_554 S
C107 O108 1.235 . S
C107 O134 1.289 . S
O108 C107 1.235 . S
C109 C111 1.400 . S
C109 N112 1.351 . S
C109 C114 1.501 . S
C110 C111 1.387 . S
C110 N113 1.341 . S
C111 C109 1.400 . S
C111 C110 1.387 . S
N112 Co103 2.022 . S
N112 C109 1.351 . S
N112 N113 1.365 . S
N113 C110 1.341 . S
N113 N112 1.365 . S
N113 H133 0.862 . S
C114 C109 1.501 . S
C114 H115 0.961 . S
C114 H116 0.961 . S
C114 H117 0.960 . S
H115 C114 0.961 . S
H116 C114 0.961 . S
H117 C114 0.960 . S
C118 N119 1.342 . S
C118 C122 1.401 1_556 S
C118 C123 1.499 . S
N119 Co102 1.989 . S
N119 C118 1.342 . S
N119 N120 1.388 1_556 S
N120 Co103 1.993 . S
N120 N119 1.388 1_554 S
N120 C121 1.346 . S
C121 N120 1.346 . S
C121 C122 1.396 . S
C121 C131 1.510 . S
C122 C118 1.401 1_554 S
C122 C121 1.396 . S
C123 C118 1.499 . S
C123 H124 0.959 . S
C123 H125 0.960 . S
C123 H126 0.961 . S
H124 C123 0.959 . S
H125 C123 0.960 . S
H126 C123 0.961 . S
O127 Co102 1.967 . S
O127 C135 1.258 . S
O128 Co103 1.941 . S
O128 C135 1.266 1_554 S
H129 C131 0.959 . S
H130 C131 0.961 . S
C131 C121 1.510 . S
C131 H129 0.959 . S
C131 H130 0.961 . S
C131 H132 0.960 . S
H132 C131 0.960 . S
H133 N113 0.862 . S
O134 Co102 1.920 . S
O134 C107 1.289 . S
C135 O127 1.258 . S
C135 O128 1.266 1_556 S
Co136 O139 1.970 . S
Co136 N153 1.989 . S
Co136 O161 1.967 . S
Co136 O168 1.920 . S
Co137 O140 1.966 . S
Co137 N146 2.022 . S
Co137 N154 1.993 . S
Co137 O162 1.941 . S
C138 O139 1.258 . S
C138 O140 1.263 . S
O139 Co136 1.970 . S
O139 C138 1.258 . S
O140 Co137 1.966 . S
O140 C138 1.263 . S
C141 O142 1.235 . S
C141 O168 1.289 . S
O142 C141 1.235 . S
C143 C145 1.400 1_554 S
C143 N146 1.351 . S
C143 C148 1.501 . S
C144 C145 1.387 . S
C144 N147 1.341 1_556 S
C145 C143 1.400 1_556 S
C145 C144 1.387 . S
N146 Co137 2.022 . S
N146 C143 1.351 . S
N146 N147 1.365 . S
N147 C144 1.341 1_554 S
N147 N146 1.365 . S
N147 H167 0.862 . S
C148 C143 1.501 . S
C148 H149 0.961 . S
C148 H150 0.961 . S
C148 H151 0.960 . S
H149 C148 0.961 . S
H150 C148 0.961 . S
H151 C148 0.960 . S
C152 N153 1.342 . S
C152 C156 1.401 . S
C152 C157 1.499 . S
N153 Co136 1.989 . S
N153 C152 1.342 . S
N153 N154 1.388 . S
N154 Co137 1.993 . S
N154 N153 1.388 . S
N154 C155 1.346 . S
C155 N154 1.346 . S
C155 C156 1.396 . S
C155 C165 1.510 . S
C156 C152 1.401 . S
C156 C155 1.396 . S
C157 C152 1.499 . S
C157 H158 0.959 . S
C157 H159 0.960 . S
C157 H160 0.961 . S
H158 C157 0.959 . S
H159 C157 0.960 . S
H160 C157 0.961 . S
O161 Co136 1.967 . S
O161 C169 1.258 . S
O162 Co137 1.941 . S
O162 C169 1.266 . S
H163 C165 0.959 . S
H164 C165 0.961 . S
C165 C155 1.510 . S
C165 H163 0.959 . S
C165 H164 0.961 . S
C165 H166 0.960 . S
H166 C165 0.960 . S
H167 N147 0.862 . S
O168 Co136 1.920 . S
O168 C141 1.289 . S
C169 O161 1.258 . S
C169 O162 1.266 . S
Co170 O173 1.970 . S
Co170 N187 1.989 . S
Co170 O195 1.967 . S
Co170 O202 1.920 . S
Co171 O174 1.966 . S
Co171 N180 2.022 . S
Co171 N188 1.993 . S
Co171 O196 1.941 . S
C172 O173 1.258 . S
C172 O174 1.263 . S
O173 Co170 1.970 . S
O173 C172 1.258 . S
O174 Co171 1.966 . S
O174 C172 1.263 . S
C175 O176 1.235 . S
C175 O202 1.289 . S
O176 C175 1.235 . S
C177 C179 1.400 . S
C177 N180 1.351 . S
C177 C182 1.501 . S
C178 C179 1.387 . S
C178 N181 1.341 . S
C179 C177 1.400 . S
C179 C178 1.387 . S
N180 Co171 2.022 . S
N180 C177 1.351 . S
N180 N181 1.365 . S
N181 C178 1.341 . S
N181 N180 1.365 . S
N181 H201 0.862 . S
C182 C177 1.501 . S
C182 H183 0.961 . S
C182 H184 0.961 . S
C182 H185 0.960 . S
H183 C182 0.961 . S
H184 C182 0.961 . S
H185 C182 0.960 . S
C186 N187 1.342 . S
C186 C190 1.401 . S
C186 C191 1.499 . S
N187 Co170 1.989 . S
N187 C186 1.342 . S
N187 N188 1.388 . S
N188 Co171 1.993 . S
N188 N187 1.388 . S
N188 C189 1.346 . S
C189 N188 1.346 . S
C189 C190 1.396 . S
C189 C199 1.510 . S
C190 C186 1.401 . S
C190 C189 1.396 . S
C191 C186 1.499 . S
C191 H192 0.959 . S
C191 H193 0.960 . S
C191 H194 0.961 . S
H192 C191 0.959 . S
H193 C191 0.960 . S
H194 C191 0.961 . S
O195 Co170 1.967 . S
O195 C203 1.258 . S
O196 Co171 1.941 . S
O196 C203 1.266 . S
H197 C199 0.959 . S
H198 C199 0.961 . S
C199 C189 1.510 . S
C199 H197 0.959 . S
C199 H198 0.961 . S
C199 H200 0.960 . S
H200 C199 0.960 . S
H201 N181 0.862 . S
O202 Co170 1.920 . S
O202 C175 1.289 . S
C203 O195 1.258 . S
C203 O196 1.266 . S
Co204 O207 1.970 . S
Co204 N221 1.989 . S
Co204 O229 1.967 . S
Co204 O236 1.920 . S
Co205 O208 1.966 . S
Co205 N214 2.022 . S
Co205 N222 1.993 . S
Co205 O230 1.941 . S
C206 O207 1.258 . S
C206 O208 1.263 . S
O207 Co204 1.970 . S
O207 C206 1.258 . S
O208 Co205 1.966 . S
O208 C206 1.263 . S
C209 O210 1.235 . S
C209 O236 1.289 . S
O210 C209 1.235 . S
C211 C213 1.400 . S
C211 N214 1.351 . S
C211 C216 1.501 . S
C212 C213 1.387 . S
C212 N215 1.341 . S
C213 C211 1.400 . S
C213 C212 1.387 . S
N214 Co205 2.022 . S
N214 C211 1.351 . S
N214 N215 1.365 . S
N215 C212 1.341 . S
N215 N214 1.365 . S
N215 H235 0.862 . S
C216 C211 1.501 . S
C216 H217 0.961 . S
C216 H218 0.961 . S
C216 H219 0.960 . S
H217 C216 0.961 . S
H218 C216 0.961 . S
H219 C216 0.960 . S
C220 N221 1.342 . S
C220 C224 1.401 . S
C220 C225 1.499 . S
N221 Co204 1.989 . S
N221 C220 1.342 . S
N221 N222 1.388 . S
N222 Co205 1.993 . S
N222 N221 1.388 . S
N222 C223 1.346 . S
C223 N222 1.346 . S
C223 C224 1.396 . S
C223 C233 1.510 . S
C224 C220 1.401 . S
C224 C223 1.396 . S
C225 C220 1.499 . S
C225 H226 0.959 . S
C225 H227 0.960 . S
C225 H228 0.961 . S
H226 C225 0.959 . S
H227 C225 0.960 . S
H228 C225 0.961 . S
O229 Co204 1.967 . S
O229 C237 1.258 . S
O230 Co205 1.941 . S
O230 C237 1.266 . S
H231 C233 0.959 . S
H232 C233 0.961 . S
C233 C223 1.510 . S
C233 H231 0.959 . S
C233 H232 0.961 . S
C233 H234 0.960 . S
H234 C233 0.960 . S
H235 N215 0.862 . S
O236 Co204 1.920 . S
O236 C209 1.289 . S
C237 O229 1.258 . S
C237 O230 1.266 . S
Co238 O241 1.970 . S
Co238 N255 1.989 . S
Co238 O263 1.967 . S
Co238 O270 1.920 . S
Co239 O242 1.966 . S
Co239 N248 2.022 . S
Co239 N256 1.993 . S
Co239 O264 1.941 . S
C240 O241 1.258 . S
C240 O242 1.263 1_554 S
O241 Co238 1.970 . S
O241 C240 1.258 . S
O242 Co239 1.966 . S
O242 C240 1.263 1_556 S
C243 O244 1.235 . S
C243 O270 1.289 . S
O244 C243 1.235 . S
C245 C247 1.400 . S
C245 N248 1.351 . S
C245 C250 1.501 . S
C246 C247 1.387 . S
C246 N249 1.341 . S
C247 C245 1.400 . S
C247 C246 1.387 . S
N248 Co239 2.022 . S
N248 C245 1.351 . S
N248 N249 1.365 . S
N249 C246 1.341 . S
N249 N248 1.365 . S
N249 H269 0.862 . S
C250 C245 1.501 . S
C250 H251 0.961 . S
C250 H252 0.961 . S
C250 H253 0.960 . S
H251 C250 0.961 . S
H252 C250 0.961 . S
H253 C250 0.960 . S
C254 N255 1.342 . S
C254 C258 1.401 1_554 S
C254 C259 1.499 . S
N255 Co238 1.989 . S
N255 C254 1.342 . S
N255 N256 1.388 1_554 S
N256 Co239 1.993 . S
N256 N255 1.388 1_556 S
N256 C257 1.346 . S
C257 N256 1.346 . S
C257 C258 1.396 . S
C257 C267 1.510 . S
C258 C254 1.401 1_556 S
C258 C257 1.396 . S
C259 C254 1.499 . S
C259 H260 0.959 . S
C259 H261 0.960 . S
C259 H262 0.961 . S
H260 C259 0.959 . S
H261 C259 0.960 . S
H262 C259 0.961 . S
O263 Co238 1.967 . S
O263 C271 1.258 . S
O264 Co239 1.941 . S
O264 C271 1.266 1_556 S
H265 C267 0.959 . S
H266 C267 0.961 . S
C267 C257 1.510 . S
C267 H265 0.959 . S
C267 H266 0.961 . S
C267 H268 0.960 . S
H268 C267 0.960 . S
H269 N249 0.862 . S
O270 Co238 1.920 . S
O270 C243 1.289 . S
C271 O263 1.258 . S
C271 O264 1.266 1_554 S
H272 C284 0.930 . S
H273 C286 0.930 . S
H274 C287 0.930 . S
H275 C291 0.959 . S
H276 C291 0.959 . S
H277 C291 0.961 . S
H278 C292 0.960 . S
H279 C292 0.961 . S
H280 C292 0.959 . S
H281 C295 0.929 . S
H282 C296 0.931 . S
H283 C298 0.930 . S
C284 H272 0.930 . S
C284 C285 1.399 . S
C284 C289 1.399 . S
C285 C284 1.399 . S
C285 C286 1.376 . S
C286 H273 0.930 . S
C286 C285 1.376 . S
C286 C287 1.388 . S
C287 H274 0.930 . S
C287 C286 1.388 . S
C287 C288 1.390 . S
C288 C287 1.390 . S
C288 C289 1.394 . S
C288 C294 1.465 . S
C289 C284 1.399 . S
C289 C288 1.394 . S
C289 C290 1.516 . S
C290 C289 1.516 . S
C290 C291 1.502 . S
C290 C292 1.561 . S
C290 C293 1.526 . S
C291 H275 0.959 . S
C291 H276 0.959 . S
C291 H277 0.961 . S
C291 C290 1.502 . S
C292 H278 0.960 . S
C292 H279 0.961 . S
C292 H280 0.959 . S
C292 C290 1.561 . S
C293 C290 1.526 . S
C293 C294 1.396 . S
C293 C298 1.390 . S
C294 C288 1.465 . S
C294 C293 1.396 . S
C294 C295 1.399 . S
C295 H281 0.929 . S
C295 C294 1.399 . S
C295 C296 1.385 . S
C296 H282 0.931 . S
C296 C295 1.385 . S
C296 C297 1.389 . S
C297 C296 1.389 . S
C297 C298 1.387 . S
C298 H283 0.930 . S
C298 C293 1.390 . S
C298 C297 1.387 . S
H299 C311 0.930 . S
H300 C313 0.930 . S
H301 C314 0.930 . S
H302 C318 0.959 . S
H303 C318 0.959 . S
H304 C318 0.961 . S
H305 C319 0.960 . S
H306 C319 0.961 . S
H307 C319 0.959 . S
H308 C322 0.929 . S
H309 C323 0.931 . S
H310 C325 0.930 . S
C311 H299 0.930 . S
C311 C312 1.399 . S
C311 C316 1.399 . S
C312 C311 1.399 . S
C312 C313 1.376 . S
C313 H300 0.930 . S
C313 C312 1.376 . S
C313 C314 1.388 . S
C314 H301 0.930 . S
C314 C313 1.388 . S
C314 C315 1.390 . S
C315 C314 1.390 . S
C315 C316 1.394 . S
C315 C321 1.465 . S
C316 C311 1.399 . S
C316 C315 1.394 . S
C316 C317 1.516 . S
C317 C316 1.516 . S
C317 C318 1.502 . S
C317 C319 1.561 . S
C317 C320 1.526 . S
C318 H302 0.959 . S
C318 H303 0.959 . S
C318 H304 0.961 . S
C318 C317 1.502 . S
C319 H305 0.960 . S
C319 H306 0.961 . S
C319 H307 0.959 . S
C319 C317 1.561 . S
C320 C317 1.526 . S
C320 C321 1.396 . S
C320 C325 1.390 . S
C321 C315 1.465 . S
C321 C320 1.396 . S
C321 C322 1.399 . S
C322 H308 0.929 . S
C322 C321 1.399 . S
C322 C323 1.385 . S
C323 H309 0.931 . S
C323 C322 1.385 . S
C323 C324 1.389 . S
C324 C323 1.389 . S
C324 C325 1.387 . S
C325 H310 0.930 . S
C325 C320 1.390 . S
C325 C324 1.387 . S
H326 C338 0.930 . S
H327 C340 0.930 . S
H328 C341 0.930 . S
H329 C345 0.959 1_556 S
H330 C345 0.959 . S
H331 C345 0.961 . S
H332 C346 0.960 . S
H333 C346 0.961 1_554 S
H334 C346 0.959 . S
H335 C349 0.929 . S
H336 C350 0.931 . S
H337 C352 0.930 1_554 S
C338 H326 0.930 . S
C338 C339 1.399 . S
C338 C343 1.399 . S
C339 C338 1.399 . S
C339 C340 1.376 . S
C340 H327 0.930 . S
C340 C339 1.376 . S
C340 C341 1.388 . S
C341 H328 0.930 . S
C341 C340 1.388 . S
C341 C342 1.390 . S
C342 C341 1.390 . S
C342 C343 1.394 . S
C342 C348 1.465 . S
C343 C338 1.399 . S
C343 C342 1.394 . S
C343 C344 1.516 . S
C344 C343 1.516 . S
C344 C345 1.502 1_556 S
C344 C346 1.561 . S
C344 C347 1.526 . S
C345 H329 0.959 1_554 S
C345 H330 0.959 . S
C345 H331 0.961 . S
C345 C344 1.502 1_554 S
C346 H332 0.960 . S
C346 H333 0.961 1_556 S
C346 H334 0.959 . S
C346 C344 1.561 . S
C347 C344 1.526 . S
C347 C348 1.396 . S
C347 C352 1.390 . S
C348 C342 1.465 . S
C348 C347 1.396 . S
C348 C349 1.399 . S
C349 H335 0.929 . S
C349 C348 1.399 . S
C349 C350 1.385 . S
C350 H336 0.931 . S
C350 C349 1.385 . S
C350 C351 1.389 . S
C351 C350 1.389 . S
C351 C352 1.387 . S
C352 H337 0.930 1_556 S
C352 C347 1.390 . S
C352 C351 1.387 . S
H353 C365 0.930 . S
H354 C367 0.930 . S
H355 C368 0.930 . S
H356 C372 0.959 . S
H357 C372 0.959 1_556 S
H358 C372 0.961 . S
H359 C373 0.960 . S
H360 C373 0.961 . S
H361 C373 0.959 . S
H362 C376 0.929 . S
H363 C377 0.931 . S
H364 C379 0.930 1_556 S
C365 H353 0.930 . S
C365 C366 1.399 . S
C365 C370 1.399 . S
C366 C365 1.399 . S
C366 C367 1.376 . S
C367 H354 0.930 . S
C367 C366 1.376 . S
C367 C368 1.388 . S
C368 H355 0.930 . S
C368 C367 1.388 . S
C368 C369 1.390 . S
C369 C368 1.390 . S
C369 C370 1.394 . S
C369 C375 1.465 . S
C370 C365 1.399 . S
C370 C369 1.394 . S
C370 C371 1.516 . S
C371 C370 1.516 . S
C371 C372 1.502 . S
C371 C373 1.561 1_554 S
C371 C374 1.526 . S
C372 H356 0.959 . S
C372 H357 0.959 1_554 S
C372 H358 0.961 . S
C372 C371 1.502 . S
C373 H359 0.960 . S
C373 H360 0.961 . S
C373 H361 0.959 . S
C373 C371 1.561 1_556 S
C374 C371 1.526 . S
C374 C375 1.396 . S
C374 C379 1.390 . S
C375 C369 1.465 . S
C375 C374 1.396 . S
C375 C376 1.399 . S
C376 H362 0.929 . S
C376 C375 1.399 . S
C376 C377 1.385 . S
C377 H363 0.931 . S
C377 C376 1.385 . S
C377 C378 1.389 . S
C378 C377 1.389 . S
C378 C379 1.387 . S
C379 H364 0.930 1_554 S
C379 C374 1.390 . S
C379 C378 1.387 . S
H380 C392 0.930 . S
H381 C394 0.930 . S
H382 C395 0.930 . S
H383 C399 0.959 . S
H384 C399 0.959 . S
H385 C399 0.961 . S
H386 C400 0.960 . S
H387 C400 0.961 . S
H388 C400 0.959 . S
H389 C403 0.929 . S
H390 C404 0.931 . S
H391 C406 0.930 . S
C392 H380 0.930 . S
C392 C393 1.399 . S
C392 C397 1.399 . S
C393 C392 1.399 . S
C393 C394 1.376 . S
C394 H381 0.930 . S
C394 C393 1.376 . S
C394 C395 1.388 . S
C395 H382 0.930 . S
C395 C394 1.388 . S
C395 C396 1.390 . S
C396 C395 1.390 . S
C396 C397 1.394 . S
C396 C402 1.465 . S
C397 C392 1.399 . S
C397 C396 1.394 . S
C397 C398 1.516 . S
C398 C397 1.516 . S
C398 C399 1.502 . S
C398 C400 1.561 . S
C398 C401 1.526 . S
C399 H383 0.959 . S
C399 H384 0.959 . S
C399 H385 0.961 . S
C399 C398 1.502 . S
C400 H386 0.960 . S
C400 H387 0.961 . S
C400 H388 0.959 . S
C400 C398 1.561 . S
C401 C398 1.526 . S
C401 C402 1.396 . S
C401 C406 1.390 . S
C402 C396 1.465 . S
C402 C401 1.396 . S
C402 C403 1.399 . S
C403 H389 0.929 . S
C403 C402 1.399 . S
C403 C404 1.385 . S
C404 H390 0.931 . S
C404 C403 1.385 . S
C404 C405 1.389 . S
C405 C404 1.389 . S
C405 C406 1.387 . S
C406 H391 0.930 . S
C406 C401 1.390 . S
C406 C405 1.387 . S
H407 C419 0.930 . S
H408 C421 0.930 . S
H409 C422 0.930 . S
H410 C426 0.959 . S
H411 C426 0.959 . S
H412 C426 0.961 1_554 S
H413 C427 0.960 1_554 S
H414 C427 0.961 . S
H415 C427 0.959 . S
H416 C430 0.929 . S
H417 C431 0.931 . S
H418 C433 0.930 . S
C419 H407 0.930 . S
C419 C420 1.399 . S
C419 C424 1.399 . S
C420 C419 1.399 . S
C420 C421 1.376 . S
C421 H408 0.930 . S
C421 C420 1.376 . S
C421 C422 1.388 . S
C422 H409 0.930 . S
C422 C421 1.388 . S
C422 C423 1.390 . S
C423 C422 1.390 . S
C423 C424 1.394 . S
C423 C429 1.478 . S
C424 C419 1.399 . S
C424 C423 1.394 . S
C424 C425 1.516 . S
C425 C424 1.516 . S
C425 C426 1.502 1_554 S
C425 C427 1.561 1_554 S
C425 C428 1.526 1_554 S
C426 H410 0.959 . S
C426 H411 0.959 . S
C426 H412 0.961 1_556 S
C426 C425 1.502 1_556 S
C427 H413 0.960 1_556 S
C427 H414 0.961 . S
C427 H415 0.959 . S
C427 C425 1.561 1_556 S
C428 C425 1.526 1_556 S
C428 C429 1.388 1_556 S
C428 C433 1.390 . S
C429 C423 1.478 . S
C429 C428 1.388 1_554 S
C429 C430 1.393 1_554 S
C430 H416 0.929 . S
C430 C429 1.393 1_556 S
C430 C431 1.385 . S
C431 H417 0.931 . S
C431 C430 1.385 . S
C431 C432 1.389 . S
C432 C431 1.389 . S
C432 C433 1.387 . S
C433 H418 0.930 . S
C433 C428 1.390 . S
C433 C432 1.387 . S
H434 C446 0.930 . S
H435 C448 0.930 . S
H436 C449 0.930 . S
H437 C453 0.959 . S
H438 C453 0.959 . S
H439 C453 0.961 . S
H440 C454 0.960 . S
H441 C454 0.961 . S
H442 C454 0.959 . S
H443 C457 0.929 . S
H444 C458 0.931 . S
H445 C460 0.930 . S
C446 H434 0.930 . S
C446 C447 1.399 . S
C446 C451 1.399 . S
C447 C446 1.399 . S
C447 C448 1.376 . S
C448 H435 0.930 . S
C448 C447 1.376 . S
C448 C449 1.388 . S
C449 H436 0.930 . S
C449 C448 1.388 . S
C449 C450 1.390 . S
C450 C449 1.390 . S
C450 C451 1.394 . S
C450 C456 1.465 . S
C451 C446 1.399 . S
C451 C450 1.394 . S
C451 C452 1.516 . S
C452 C451 1.516 . S
C452 C453 1.502 . S
C452 C454 1.561 . S
C452 C455 1.526 . S
C453 H437 0.959 . S
C453 H438 0.959 . S
C453 H439 0.961 . S
C453 C452 1.502 . S
C454 H440 0.960 . S
C454 H441 0.961 . S
C454 H442 0.959 . S
C454 C452 1.561 . S
C455 C452 1.526 . S
C455 C456 1.396 . S
C455 C460 1.390 . S
C456 C450 1.465 . S
C456 C455 1.396 . S
C456 C457 1.399 . S
C457 H443 0.929 . S
C457 C456 1.399 . S
C457 C458 1.385 . S
C458 H444 0.931 . S
C458 C457 1.385 . S
C458 C459 1.389 . S
C459 C458 1.389 . S
C459 C460 1.387 . S
C460 H445 0.930 . S
C460 C455 1.390 . S
C460 C459 1.387 . S
H461 C473 0.930 . S
H462 C475 0.930 . S
H463 C476 0.930 . S
H464 C480 0.959 . S
H465 C480 0.959 . S
H466 C480 0.961 . S
H467 C481 0.960 . S
H468 C481 0.961 . S
H469 C481 0.959 . S
H470 C484 0.929 . S
H471 C485 0.931 . S
H472 C487 0.930 . S
C473 H461 0.930 . S
C473 C474 1.399 . S
C473 C478 1.399 . S
C474 C473 1.399 . S
C474 C475 1.376 . S
C475 H462 0.930 . S
C475 C474 1.376 . S
C475 C476 1.388 . S
C476 H463 0.930 . S
C476 C475 1.388 . S
C476 C477 1.390 . S
C477 C476 1.390 . S
C477 C478 1.394 . S
C477 C483 1.465 . S
C478 C473 1.399 . S
C478 C477 1.394 . S
C478 C479 1.516 . S
C479 C478 1.516 . S
C479 C480 1.502 . S
C479 C481 1.561 . S
C479 C482 1.526 . S
C480 H464 0.959 . S
C480 H465 0.959 . S
C480 H466 0.961 . S
C480 C479 1.502 . S
C481 H467 0.960 . S
C481 H468 0.961 . S
C481 H469 0.959 . S
C481 C479 1.561 . S
C482 C479 1.526 . S
C482 C483 1.396 . S
C482 C487 1.390 . S
C483 C477 1.465 . S
C483 C482 1.396 . S
C483 C484 1.399 . S
C484 H470 0.929 . S
C484 C483 1.399 . S
C484 C485 1.385 . S
C485 H471 0.931 . S
C485 C484 1.385 . S
C485 C486 1.389 . S
C486 C485 1.389 . S
C486 C487 1.387 . S
C487 H472 0.930 . S
C487 C482 1.390 . S
C487 C486 1.387 . S
H488 C500 0.930 . S
H489 C502 0.930 . S
H490 C503 0.930 . S
H491 C507 0.959 . S
H492 C507 0.959 . S
H493 C507 0.961 . S
H494 C508 0.960 . S
H495 C508 0.961 . S
H496 C508 0.959 . S
H497 C511 0.929 . S
H498 C512 0.931 . S
H499 C514 0.930 . S
C500 H488 0.930 . S
C500 C501 1.399 . S
C500 C505 1.399 . S
C501 C500 1.399 . S
C501 C502 1.376 . S
C502 H489 0.930 . S
C502 C501 1.376 . S
C502 C503 1.388 . S
C503 H490 0.930 . S
C503 C502 1.388 . S
C503 C504 1.390 . S
C504 C503 1.390 . S
C504 C505 1.394 . S
C504 C510 1.465 . S
C505 C500 1.399 . S
C505 C504 1.394 . S
C505 C506 1.516 . S
C506 C505 1.516 . S
C506 C507 1.502 . S
C506 C508 1.561 . S
C506 C509 1.526 . S
C507 H491 0.959 . S
C507 H492 0.959 . S
C507 H493 0.961 . S
C507 C506 1.502 . S
C508 H494 0.960 . S
C508 H495 0.961 . S
C508 H496 0.959 . S
C508 C506 1.561 . S
C509 C506 1.526 . S
C509 C510 1.396 . S
C509 C514 1.390 . S
C510 C504 1.465 . S
C510 C509 1.396 . S
C510 C511 1.399 . S
C511 H497 0.929 . S
C511 C510 1.399 . S
C511 C512 1.385 . S
C512 H498 0.931 . S
C512 C511 1.385 . S
C512 C513 1.389 . S
C513 C512 1.389 . S
C513 C514 1.387 . S
C514 H499 0.930 . S
C514 C509 1.390 . S
C514 C513 1.387 . S
H515 C527 0.930 . S
H516 C529 0.930 . S
H517 C530 0.930 . S
H518 C534 0.959 1_556 S
H519 C534 0.959 1_556 S
H520 C534 0.961 . S
H521 C535 0.960 . S
H522 C535 0.961 1_556 S
H523 C535 0.959 . S
H524 C538 0.929 . S
H525 C539 0.931 . S
H526 C541 0.930 . S
C527 H515 0.930 . S
C527 C528 1.399 . S
C527 C532 1.399 . S
C528 C527 1.399 . S
C528 C529 1.376 . S
C529 H516 0.930 . S
C529 C528 1.376 . S
C529 C530 1.388 . S
C530 H517 0.930 . S
C530 C529 1.388 . S
C530 C531 1.390 . S
C531 C530 1.390 . S
C531 C532 1.394 . S
C531 C537 1.465 1_554 S
C532 C527 1.399 . S
C532 C531 1.394 . S
C532 C533 1.516 1_554 S
C533 C532 1.516 1_556 S
C533 C534 1.502 1_556 S
C533 C535 1.561 1_556 S
C533 C536 1.526 . S
C534 H518 0.959 1_554 S
C534 H519 0.959 1_554 S
C534 H520 0.961 . S
C534 C533 1.502 1_554 S
C535 H521 0.960 . S
C535 H522 0.961 1_554 S
C535 H523 0.959 . S
C535 C533 1.561 1_554 S
C536 C533 1.526 . S
C536 C537 1.396 . S
C536 C541 1.390 . S
C537 C531 1.465 1_556 S
C537 C536 1.396 . S
C537 C538 1.399 . S
C538 H524 0.929 . S
C538 C537 1.399 . S
C538 C539 1.385 . S
C539 H525 0.931 . S
C539 C538 1.385 . S
C539 C540 1.389 . S
C540 C539 1.389 . S
C540 C541 1.387 . S
C541 H526 0.930 . S
C541 C536 1.390 . S
C541 C540 1.387 . S
H542 C554 0.930 . S
H543 C556 0.930 . S
H544 C557 0.930 . S
H545 C561 0.959 . S
H546 C561 0.959 . S
H547 C561 0.961 . S
H548 C562 0.960 . S
H549 C562 0.961 . S
H550 C562 0.959 . S
H551 C565 0.929 . S
H552 C566 0.931 . S
H553 C568 0.930 . S
C554 H542 0.930 . S
C554 C555 1.399 . S
C554 C559 1.399 . S
C555 C554 1.399 . S
C555 C556 1.376 . S
C556 H543 0.930 . S
C556 C555 1.376 . S
C556 C557 1.388 . S
C557 H544 0.930 . S
C557 C556 1.388 . S
C557 C558 1.390 . S
C558 C557 1.390 . S
C558 C559 1.394 . S
C558 C564 1.465 . S
C559 C554 1.399 . S
C559 C558 1.394 . S
C559 C560 1.516 . S
C560 C559 1.516 . S
C560 C561 1.502 . S
C560 C562 1.561 . S
C560 C563 1.526 . S
C561 H545 0.959 . S
C561 H546 0.959 . S
C561 H547 0.961 . S
C561 C560 1.502 . S
C562 H548 0.960 . S
C562 H549 0.961 . S
C562 H550 0.959 . S
C562 C560 1.561 . S
C563 C560 1.526 . S
C563 C564 1.396 . S
C563 C568 1.390 . S
C564 C558 1.465 . S
C564 C563 1.396 . S
C564 C565 1.399 . S
C565 H551 0.929 . S
C565 C564 1.399 . S
C565 C566 1.385 . S
C566 H552 0.931 . S
C566 C565 1.385 . S
C566 C567 1.389 . S
C567 C566 1.389 . S
C567 C568 1.387 . S
C568 H553 0.930 . S
C568 C563 1.390 . S
C568 C567 1.387 . S
H569 C581 0.930 . S
H570 C583 0.930 . S
H571 C584 0.930 . S
H572 C588 0.959 . S
H573 C588 0.959 . S
H574 C588 0.961 . S
H575 C589 0.960 . S
H576 C589 0.961 . S
H577 C589 0.959 . S
H578 C592 0.929 . S
H579 C593 0.931 . S
H580 C595 0.930 . S
C581 H569 0.930 . S
C581 C582 1.399 . S
C581 C586 1.399 . S
C582 C581 1.399 . S
C582 C583 1.376 . S
C583 H570 0.930 . S
C583 C582 1.376 . S
C583 C584 1.388 . S
C584 H571 0.930 . S
C584 C583 1.388 . S
C584 C585 1.390 . S
C585 C584 1.390 . S
C585 C586 1.394 . S
C585 C591 1.465 . S
C586 C581 1.399 . S
C586 C585 1.394 . S
C586 C587 1.516 . S
C587 C586 1.516 . S
C587 C588 1.502 . S
C587 C589 1.561 . S
C587 C590 1.526 . S
C588 H572 0.959 . S
C588 H573 0.959 . S
C588 H574 0.961 . S
C588 C587 1.502 . S
C589 H575 0.960 . S
C589 H576 0.961 . S
C589 H577 0.959 . S
C589 C587 1.561 . S
C590 C587 1.526 . S
C590 C591 1.396 . S
C590 C595 1.390 . S
C591 C585 1.465 . S
C591 C590 1.396 . S
C591 C592 1.399 . S
C592 H578 0.929 . S
C592 C591 1.399 . S
C592 C593 1.385 . S
C593 H579 0.931 . S
C593 C592 1.385 . S
C593 C594 1.389 . S
C594 C593 1.389 . S
C594 C595 1.387 . S
C595 H580 0.930 . S
C595 C590 1.390 . S
C595 C594 1.387 . S
H596 C608 0.930 . S
H597 C610 0.930 . S
H598 C611 0.922 1_655 S
H599 C615 0.959 . S
H600 C615 0.959 . S
H601 C615 0.961 . S
H602 C616 0.980 . S
H603 C616 0.961 1_556 S
H604 C616 0.959 . S
H605 C619 0.929 . S
H606 C620 0.931 . S
H607 C622 0.930 . S
C608 H596 0.930 . S
C608 C609 1.399 . S
C608 C613 1.399 . S
C609 C608 1.399 . S
C609 C610 1.376 . S
C610 H597 0.930 . S
C610 C609 1.376 . S
C610 C611 1.388 . S
C611 H598 0.922 1_455 S
C611 C610 1.388 . S
C611 C612 1.390 . S
C612 C611 1.390 . S
C612 C613 1.394 . S
C612 C618 1.465 1_454 S
C613 C608 1.399 . S
C613 C612 1.394 . S
C613 C614 1.516 1_554 S
C614 C613 1.516 1_556 S
C614 C615 1.502 . S
C614 C616 1.561 1_456 S
C614 C617 1.526 1_455 S
C615 H599 0.959 . S
C615 H600 0.959 . S
C615 H601 0.961 . S
C615 C614 1.502 . S
C616 H602 0.980 . S
C616 H603 0.961 1_554 S
C616 H604 0.959 . S
C616 C614 1.561 1_654 S
C617 C614 1.526 1_655 S
C617 C618 1.396 . S
C617 C622 1.390 . S
C618 C612 1.465 1_656 S
C618 C617 1.396 . S
C618 C619 1.399 . S
C619 H605 0.929 . S
C619 C618 1.399 . S
C619 C620 1.385 . S
C620 H606 0.931 . S
C620 C619 1.385 . S
C620 C621 1.389 . S
C621 C620 1.389 . S
C621 C622 1.387 . S
C622 H607 0.930 . S
C622 C617 1.390 . S
C622 C621 1.387 . S
H623 C635 0.930 . S
H624 C637 0.930 . S
H625 C638 0.930 . S
H626 C642 0.959 . S
H627 C642 0.959 . S
H628 C642 0.961 . S
H629 C643 0.960 . S
H630 C643 0.961 . S
H631 C643 0.959 . S
H632 C646 0.929 . S
H633 C647 0.931 . S
H634 C649 0.930 . S
C635 H623 0.930 . S
C635 C636 1.399 . S
C635 C640 1.399 . S
C636 C635 1.399 . S
C636 C637 1.376 . S
C637 H624 0.930 . S
C637 C636 1.376 . S
C637 C638 1.388 1_565 S
C638 H625 0.930 . S
C638 C637 1.388 1_545 S
C638 C639 1.386 1_545 S
C639 C638 1.386 1_565 S
C639 C640 1.422 . S
C639 C645 1.445 1_565 S
C640 C635 1.399 . S
C640 C639 1.422 . S
C640 C641 1.516 . S
C641 C640 1.516 . S
C641 C642 1.502 . S
C641 C643 1.561 . S
C641 C644 1.526 1_565 S
C642 H626 0.959 . S
C642 H627 0.959 . S
C642 H628 0.961 . S
C642 C641 1.502 . S
C643 H629 0.960 . S
C643 H630 0.961 . S
C643 H631 0.959 . S
C643 C641 1.561 . S
C644 C641 1.526 1_545 S
C644 C645 1.396 . S
C644 C649 1.390 . S
C645 C639 1.445 1_545 S
C645 C644 1.396 . S
C645 C646 1.399 . S
C646 H632 0.929 . S
C646 C645 1.399 . S
C646 C647 1.385 . S
C647 H633 0.931 . S
C647 C646 1.385 . S
C647 C648 1.389 . S
C648 C647 1.389 . S
C648 C649 1.387 . S
C649 H634 0.930 . S
C649 C644 1.390 . S
C649 C648 1.387 . S
H650 C662 0.930 . S
H651 C664 0.930 . S
H652 C665 0.930 . S
H653 C669 0.959 . S
H654 C669 0.959 . S
H655 C669 0.961 . S
H656 C670 0.960 . S
H657 C670 0.961 . S
H658 C670 0.959 . S
H659 C673 0.929 . S
H660 C674 0.931 . S
H661 C676 0.930 . S
C662 H650 0.930 . S
C662 C663 1.399 . S
C662 C667 1.399 . S
C663 C662 1.399 . S
C663 C664 1.376 . S
C664 H651 0.930 . S
C664 C663 1.376 . S
C664 C665 1.388 . S
C665 H652 0.930 . S
C665 C664 1.388 . S
C665 C666 1.390 . S
C666 C665 1.390 . S
C666 C667 1.394 . S
C666 C672 1.465 1_455 S
C667 C662 1.399 . S
C667 C666 1.394 . S
C667 C668 1.516 1_455 S
C668 C667 1.516 1_655 S
C668 C669 1.502 . S
C668 C670 1.561 1_655 S
C668 C671 1.526 . S
C669 H653 0.959 . S
C669 H654 0.959 . S
C669 H655 0.961 . S
C669 C668 1.502 . S
C670 H656 0.960 . S
C670 H657 0.961 . S
C670 H658 0.959 . S
C670 C668 1.561 1_455 S
C671 C668 1.526 . S
C671 C672 1.396 . S
C671 C676 1.390 . S
C672 C666 1.465 1_655 S
C672 C671 1.396 . S
C672 C673 1.399 . S
C673 H659 0.929 . S
C673 C672 1.399 . S
C673 C674 1.385 . S
C674 H660 0.931 . S
C674 C673 1.385 . S
C674 C675 1.389 . S
C675 C674 1.389 . S
C675 C676 1.387 . S
C676 H661 0.930 . S
C676 C671 1.390 . S
C676 C675 1.387 . S
H677 C689 0.930 . S
H678 C691 0.930 . S
H679 C692 0.930 . S
H680 C696 0.959 . S
H681 C696 0.959 . S
H682 C696 0.961 . S
H683 C697 0.960 . S
H684 C697 0.961 . S
H685 C697 0.959 . S
H686 C700 0.929 1_565 S
H687 C701 0.931 . S
H688 C703 0.930 . S
C689 H677 0.930 . S
C689 C690 1.399 . S
C689 C694 1.399 . S
C690 C689 1.399 . S
C690 C691 1.376 . S
C691 H678 0.930 . S
C691 C690 1.376 . S
C691 C692 1.388 . S
C692 H679 0.930 . S
C692 C691 1.388 . S
C692 C693 1.390 . S
C693 C692 1.390 . S
C693 C694 1.394 . S
C693 C699 1.465 1_565 S
C694 C689 1.399 . S
C694 C693 1.394 . S
C694 C695 1.516 1_565 S
C695 C694 1.516 1_545 S
C695 C696 1.502 . S
C695 C697 1.561 . S
C695 C698 1.526 . S
C696 H680 0.959 . S
C696 H681 0.959 . S
C696 H682 0.961 . S
C696 C695 1.502 . S
C697 H683 0.960 . S
C697 H684 0.961 . S
C697 H685 0.959 . S
C697 C695 1.561 . S
C698 C695 1.526 . S
C698 C699 1.396 . S
C698 C703 1.390 . S
C699 C693 1.465 1_545 S
C699 C698 1.396 . S
C699 C700 1.399 . S
C700 H686 0.929 1_545 S
C700 C699 1.399 . S
C700 C701 1.385 . S
C701 H687 0.931 . S
C701 C700 1.385 . S
C701 C702 1.389 . S
C702 C701 1.389 . S
C702 C703 1.387 . S
C703 H688 0.930 . S
C703 C698 1.390 . S
C703 C702 1.387 . S
H704 C716 0.930 . S
H705 C718 0.930 . S
H706 C719 0.930 . S
H707 C723 0.959 . S
H708 C723 0.959 . S
H709 C723 0.961 . S
H710 C724 0.960 . S
H711 C724 0.961 . S
H712 C724 0.959 . S
H713 C727 0.929 . S
H714 C728 0.931 . S
H715 C730 0.930 . S
C716 H704 0.930 . S
C716 C717 1.399 . S
C716 C721 1.399 . S
C717 C716 1.399 . S
C717 C718 1.376 . S
C718 H705 0.930 . S
C718 C717 1.376 . S
C718 C719 1.388 . S
C719 H706 0.930 . S
C719 C718 1.388 . S
C719 C720 1.390 . S
C720 C719 1.390 . S
C720 C721 1.394 . S
C720 C726 1.465 . S
C721 C716 1.399 . S
C721 C720 1.394 . S
C721 C722 1.516 . S
C722 C721 1.516 . S
C722 C723 1.502 . S
C722 C724 1.561 . S
C722 C725 1.526 . S
C723 H707 0.959 . S
C723 H708 0.959 . S
C723 H709 0.961 . S
C723 C722 1.502 . S
C724 H710 0.960 . S
C724 H711 0.961 . S
C724 H712 0.959 . S
C724 C722 1.561 . S
C725 C722 1.526 . S
C725 C726 1.396 . S
C725 C730 1.390 . S
C726 C720 1.465 . S
C726 C725 1.396 . S
C726 C727 1.399 . S
C727 H713 0.929 . S
C727 C726 1.399 . S
C727 C728 1.385 . S
C728 H714 0.931 . S
C728 C727 1.385 . S
C728 C729 1.389 . S
C729 C728 1.389 . S
C729 C730 1.387 . S
C730 H715 0.930 . S
C730 C725 1.390 . S
C730 C729 1.387 . S
H731 C743 0.930 . S
H732 C745 0.930 . S
H733 C746 0.930 . S
H734 C750 0.959 . S
H735 C750 0.959 . S
H736 C750 0.961 . S
H737 C751 0.960 . S
H738 C751 0.961 . S
H739 C751 0.959 . S
H740 C754 0.929 . S
H741 C755 0.931 . S
H742 C757 0.930 . S
C743 H731 0.930 . S
C743 C744 1.399 . S
C743 C748 1.399 . S
C744 C743 1.399 . S
C744 C745 1.376 . S
C745 H732 0.930 . S
C745 C744 1.376 . S
C745 C746 1.388 . S
C746 H733 0.930 . S
C746 C745 1.388 . S
C746 C747 1.390 . S
C747 C746 1.390 . S
C747 C748 1.394 . S
C747 C753 1.465 . S
C748 C743 1.399 . S
C748 C747 1.394 . S
C748 C749 1.516 . S
C749 C748 1.516 . S
C749 C750 1.502 . S
C749 C751 1.561 . S
C749 C752 1.526 . S
C750 H734 0.959 . S
C750 H735 0.959 . S
C750 H736 0.961 . S
C750 C749 1.502 . S
C751 H737 0.960 . S
C751 H738 0.961 . S
C751 H739 0.959 . S
C751 C749 1.561 . S
C752 C749 1.526 . S
C752 C753 1.396 . S
C752 C757 1.390 . S
C753 C747 1.465 . S
C753 C752 1.396 . S
C753 C754 1.399 . S
C754 H740 0.929 . S
C754 C753 1.399 . S
C754 C755 1.385 . S
C755 H741 0.931 . S
C755 C754 1.385 . S
C755 C756 1.389 . S
C756 C755 1.389 . S
C756 C757 1.387 . S
C757 H742 0.930 . S
C757 C752 1.390 . S
C757 C756 1.387 . S
H758 C770 0.930 . S
H759 C772 0.930 . S
H760 C773 0.930 . S
H761 C777 0.959 . S
H762 C777 0.959 . S
H763 C777 0.961 . S
H764 C778 0.960 . S
H765 C778 0.961 . S
H766 C778 0.959 . S
H767 C781 0.929 . S
H768 C782 0.931 . S
H769 C784 0.930 . S
C770 H758 0.930 . S
C770 C771 1.399 . S
C770 C775 1.399 . S
C771 C770 1.399 . S
C771 C772 1.376 . S
C772 H759 0.930 . S
C772 C771 1.376 . S
C772 C773 1.388 . S
C773 H760 0.930 . S
C773 C772 1.388 . S
C773 C774 1.390 . S
C774 C773 1.390 . S
C774 C775 1.394 . S
C774 C780 1.465 . S
C775 C770 1.399 . S
C775 C774 1.394 . S
C775 C776 1.516 . S
C776 C775 1.516 . S
C776 C777 1.502 . S
C776 C778 1.561 . S
C776 C779 1.526 . S
C777 H761 0.959 . S
C777 H762 0.959 . S
C777 H763 0.961 . S
C777 C776 1.502 . S
C778 H764 0.960 . S
C778 H765 0.961 . S
C778 H766 0.959 . S
C778 C776 1.561 . S
C779 C776 1.526 . S
C779 C780 1.396 . S
C779 C784 1.390 . S
C780 C774 1.465 . S
C780 C779 1.396 . S
C780 C781 1.399 . S
C781 H767 0.929 . S
C781 C780 1.399 . S
C781 C782 1.385 . S
C782 H768 0.931 . S
C782 C781 1.385 . S
C782 C783 1.389 . S
C783 C782 1.389 . S
C783 C784 1.387 . S
C784 H769 0.930 . S
C784 C779 1.390 . S
C784 C783 1.387 . S
H785 C797 0.930 . S
H786 C799 0.930 . S
H787 C800 0.930 . S
H788 C804 0.959 1_556 S
H789 C804 0.959 . S
H790 C804 0.961 . S
H791 C805 0.960 . S
H792 C805 0.961 . S
H793 C805 0.959 . S
H794 C808 0.929 . S
H795 C809 0.931 . S
H796 C811 0.930 . S
C797 H785 0.930 . S
C797 C798 1.399 . S
C797 C802 1.399 . S
C798 C797 1.399 . S
C798 C799 1.376 1_554 S
C799 H786 0.930 . S
C799 C798 1.376 1_556 S
C799 C800 1.388 . S
C800 H787 0.930 . S
C800 C799 1.388 . S
C800 C801 1.390 . S
C801 C800 1.390 . S
C801 C802 1.394 1_556 S
C801 C807 1.465 . S
C802 C797 1.399 . S
C802 C801 1.394 1_554 S
C802 C803 1.516 . S
C803 C802 1.516 . S
C803 C804 1.502 . S
C803 C805 1.561 . S
C803 C806 1.526 . S
C804 H788 0.959 1_554 S
C804 H789 0.959 . S
C804 H790 0.961 . S
C804 C803 1.502 . S
C805 H791 0.960 . S
C805 H792 0.961 . S
C805 H793 0.959 . S
C805 C803 1.561 . S
C806 C803 1.526 . S
C806 C807 1.396 1_554 S
C806 C811 1.390 . S
C807 C801 1.465 . S
C807 C806 1.396 1_556 S
C807 C808 1.399 . S
C808 H794 0.929 . S
C808 C807 1.399 . S
C808 C809 1.385 . S
C809 H795 0.931 . S
C809 C808 1.385 . S
C809 C810 1.389 . S
C810 C809 1.389 . S
C810 C811 1.387 1_556 S
C811 H796 0.930 . S
C811 C806 1.390 . S
C811 C810 1.387 1_554 S
C285 C190 1.645 . S
C297 C20 1.608 . S
C312 C224 1.647 . S
C324 C54 1.611 . S
C339 C88 1.650 . S
C351 C258 1.614 . S
C366 C156 1.650 . S
C378 C122 1.624 . S
C393 C9 0.951 . S
C405 C5 0.978 1_556 S
C420 C39 0.957 . S
C432 C43 0.968 . S
C447 C77 0.954 . S
C459 C73 0.977 . S
C474 C111 0.969 . S
C486 C107 1.026 . S
C501 C145 0.954 . S
C513 C141 0.977 . S
C528 C179 1.007 . S
C540 C175 0.948 . S
C555 C213 0.947 . S
C567 C209 0.986 1_554 S
C582 C243 0.972 . S
C594 C247 0.956 . S
C609 C33 1.432 . S
C621 C237 1.383 . S
C636 C271 1.448 . S
C648 C67 1.390 . S
C663 C169 1.403 . S
C675 C101 1.445 . S
C690 C135 1.390 . S
C702 C203 1.422 . S
C717 C2 1.731 . S
C729 C138 1.730 . S
C744 C36 1.726 . S
C756 C172 1.726 . S
C771 C70 1.731 . S
C783 C206 1.731 . S
C798 C240 1.734 . S
C810 C104 1.734 . S
