# Generated by pormake.
# Topology sxg, (6)-cn, num edge types: 1
# Building blocks:
#     Node 0, Type 0, BuildingBlock: MIFKUJ_clean_sbu_0, # of connection points: 6
#     Node 1, Type 0, BuildingBlock: MIFKUJ_clean_sbu_0, # of connection points: 6
#     Node 2, Type 0, BuildingBlock: MIFKUJ_clean_sbu_0, # of connection points: 6
#     Node 3, Type 0, BuildingBlock: MIFKUJ_clean_sbu_0, # of connection points: 6
#     Node 4, Type 0, BuildingBlock: MIFKUJ_clean_sbu_0, # of connection points: 6
#     Node 5, Type 0, BuildingBlock: MIFKUJ_clean_sbu_0, # of connection points: 6
#     Node 6, Type 0, BuildingBlock: MIFKUJ_clean_sbu_0, # of connection points: 6
#     Node 7, Type 0, BuildingBlock: MIFKUJ_clean_sbu_0, # of connection points: 6
#     Node 8, Type 0, BuildingBlock: MIFKUJ_clean_sbu_0, # of connection points: 6
#     Node 9, Type 0, BuildingBlock: MIFKUJ_clean_sbu_0, # of connection points: 6
#     Node 10, Type 0, BuildingBlock: MIFKUJ_clean_sbu_0, # of connection points: 6
#     Node 11, Type 0, BuildingBlock: MIFKUJ_clean_sbu_0, # of connection points: 6
#     Node 12, Type 0, BuildingBlock: MIFKUJ_clean_sbu_0, # of connection points: 6
#     Node 13, Type 0, BuildingBlock: MIFKUJ_clean_sbu_0, # of connection points: 6
#     Node 14, Type 0, BuildingBlock: MIFKUJ_clean_sbu_0, # of connection points: 6
#     Node 15, Type 0, BuildingBlock: MIFKUJ_clean_sbu_0, # of connection points: 6
#     Node 16, Type 0, BuildingBlock: MIFKUJ_clean_sbu_0, # of connection points: 6
#     Node 17, Type 0, BuildingBlock: MIFKUJ_clean_sbu_0, # of connection points: 6
#     Node 18, Type 0, BuildingBlock: MIFKUJ_clean_sbu_0, # of connection points: 6
#     Node 19, Type 0, BuildingBlock: MIFKUJ_clean_sbu_0, # of connection points: 6
#     Node 20, Type 0, BuildingBlock: MIFKUJ_clean_sbu_0, # of connection points: 6
#     Node 21, Type 0, BuildingBlock: MIFKUJ_clean_sbu_0, # of connection points: 6
#     Node 22, Type 0, BuildingBlock: MIFKUJ_clean_sbu_0, # of connection points: 6
#     Node 23, Type 0, BuildingBlock: MIFKUJ_clean_sbu_0, # of connection points: 6
#     Edge 24, Type (0, 0), None
#     Edge 25, Type (0, 0), None
#     Edge 26, Type (0, 0), None
#     Edge 27, Type (0, 0), None
#     Edge 28, Type (0, 0), None
#     Edge 29, Type (0, 0), None
#     Edge 30, Type (0, 0), None
#     Edge 31, Type (0, 0), None
#     Edge 32, Type (0, 0), None
#     Edge 33, Type (0, 0), None
#     Edge 34, Type (0, 0), None
#     Edge 35, Type (0, 0), None
#     Edge 36, Type (0, 0), None
#     Edge 37, Type (0, 0), None
#     Edge 38, Type (0, 0), None
#     Edge 39, Type (0, 0), None
#     Edge 40, Type (0, 0), None
#     Edge 41, Type (0, 0), None
#     Edge 42, Type (0, 0), None
#     Edge 43, Type (0, 0), None
#     Edge 44, Type (0, 0), None
#     Edge 45, Type (0, 0), None
#     Edge 46, Type (0, 0), None
#     Edge 47, Type (0, 0), None
#     Edge 48, Type (0, 0), None
#     Edge 49, Type (0, 0), None
#     Edge 50, Type (0, 0), None
#     Edge 51, Type (0, 0), None
#     Edge 52, Type (0, 0), None
#     Edge 53, Type (0, 0), None
#     Edge 54, Type (0, 0), None
#     Edge 55, Type (0, 0), None
#     Edge 56, Type (0, 0), None
#     Edge 57, Type (0, 0), None
#     Edge 58, Type (0, 0), None
#     Edge 59, Type (0, 0), None
#     Edge 60, Type (0, 0), None
#     Edge 61, Type (0, 0), None
#     Edge 62, Type (0, 0), None
#     Edge 63, Type (0, 0), None
#     Edge 64, Type (0, 0), None
#     Edge 65, Type (0, 0), None
#     Edge 66, Type (0, 0), None
#     Edge 67, Type (0, 0), None
#     Edge 68, Type (0, 0), None
#     Edge 69, Type (0, 0), None
#     Edge 70, Type (0, 0), None
#     Edge 71, Type (0, 0), None
#     Edge 72, Type (0, 0), None
#     Edge 73, Type (0, 0), None
#     Edge 74, Type (0, 0), None
#     Edge 75, Type (0, 0), None
#     Edge 76, Type (0, 0), None
#     Edge 77, Type (0, 0), None
#     Edge 78, Type (0, 0), None
#     Edge 79, Type (0, 0), None
#     Edge 80, Type (0, 0), None
#     Edge 81, Type (0, 0), None
#     Edge 82, Type (0, 0), None
#     Edge 83, Type (0, 0), None
#     Edge 84, Type (0, 0), None
#     Edge 85, Type (0, 0), None
#     Edge 86, Type (0, 0), None
#     Edge 87, Type (0, 0), None
#     Edge 88, Type (0, 0), None
#     Edge 89, Type (0, 0), None
#     Edge 90, Type (0, 0), None
#     Edge 91, Type (0, 0), None
#     Edge 92, Type (0, 0), None
#     Edge 93, Type (0, 0), None
#     Edge 94, Type (0, 0), None
#     Edge 95, Type (0, 0), None
# Relax obj value: 0.157
# Max RMSD: 0.232
# Mean RMSD: 0.232
data_MOF--net-sxg--node1-MIFKUJ_clean_sbu_0--edge1-none
_symmetry_space_group_name_H-M    P1
_symmetry_Int_Tables_number       1
_symmetry_cell_setting            triclinic
loop_
_symmetry_equiv_pos_as_xyz
'x, y, z'
_cell_length_a     24.152998
_cell_length_b     24.153151
_cell_length_c     24.153558
_cell_angle_alpha  90.0
_cell_angle_beta   90.000001
_cell_angle_gamma 90.000001
loop_
_atom_site_label
_atom_site_type_symbol
_atom_site_fract_x
_atom_site_fract_y
_atom_site_fract_z
_atom_type_partial_charge
Zn0 Zn 0.03844 0.23432 0.23831 0.0
Zn1 Zn 0.91505 0.33818 0.28894 0.0
C2 C 0.10245 0.27404 0.14363 0.0
O3 O 0.05833 0.26211 0.11421 0.0
C4 C 0.84667 0.30237 0.38086 0.0
O5 O 0.8062 0.31323 0.34645 0.0
O6 O 0.06554 0.16098 0.26728 0.0
O7 O 0.00855 0.2857 0.29351 0.0
O8 O -0.00955 0.37318 0.29887 0.0
C9 C 0.11671 0.15649 0.27856 0.0
O10 O 0.14772 0.20107 0.27958 0.0
O11 O 0.10128 0.26848 0.19587 0.0
C12 C 0.81682 0.38455 0.24033 0.0
O13 O 0.80991 0.33301 0.22487 0.0
O14 O 0.85896 0.39749 0.26917 0.0
O15 O 0.91507 0.27987 0.22567 0.0
O16 O 0.97442 0.22005 0.18777 0.0
O17 O 0.89633 0.307 0.3644 0.0
C18 C 0.02611 0.33486 0.29765 0.0
C19 C 0.92666 0.24233 0.19009 0.0
Zn20 Zn 0.4279 0.73201 0.73831 0.0
Zn21 Zn 0.55129 0.62815 0.78894 0.0
C22 C 0.36389 0.69229 0.64363 0.0
O23 O 0.40801 0.70422 0.61421 0.0
C24 C 0.61967 0.66397 0.88086 0.0
O25 O 0.66014 0.65311 0.84645 0.0
O26 O 0.4008 0.80535 0.76728 0.0
O27 O 0.45779 0.68064 0.79351 0.0
O28 O 0.47589 0.59316 0.79887 0.0
C29 C 0.34963 0.80985 0.77856 0.0
O30 O 0.31862 0.76526 0.77958 0.0
O31 O 0.36506 0.69786 0.69587 0.0
C32 C 0.64952 0.58179 0.74033 0.0
O33 O 0.65643 0.63333 0.72487 0.0
O34 O 0.60738 0.56884 0.76917 0.0
O35 O 0.55126 0.68647 0.72567 0.0
O36 O 0.49192 0.74628 0.68777 0.0
O37 O 0.57001 0.65934 0.8644 0.0
C38 C 0.44023 0.63147 0.79765 0.0
C39 C 0.53968 0.724 0.69009 0.0
Zn40 Zn 0.53844 0.23201 0.72801 0.0
Zn41 Zn 0.41505 0.12815 0.67737 0.0
C42 C 0.60245 0.19229 0.82269 0.0
O43 O 0.55833 0.20422 0.85211 0.0
C44 C 0.34667 0.16397 0.58545 0.0
O45 O 0.3062 0.15311 0.61987 0.0
O46 O 0.56554 0.30535 0.69903 0.0
O47 O 0.50855 0.18064 0.67281 0.0
O48 O 0.49045 0.09316 0.66745 0.0
C49 C 0.61671 0.30985 0.68776 0.0
O50 O 0.64772 0.26526 0.68673 0.0
O51 O 0.60128 0.19786 0.77045 0.0
C52 C 0.31682 0.08179 0.72598 0.0
O53 O 0.30991 0.13333 0.74145 0.0
O54 O 0.35896 0.06884 0.69715 0.0
O55 O 0.41507 0.18647 0.74065 0.0
O56 O 0.47442 0.24628 0.77855 0.0
O57 O 0.39633 0.15934 0.60192 0.0
C58 C 0.52611 0.13147 0.66866 0.0
C59 C 0.42666 0.224 0.77623 0.0
Zn60 Zn 0.9279 0.73432 0.22801 0.0
Zn61 Zn 0.05129 0.83818 0.17737 0.0
C62 C 0.86389 0.77404 0.32269 0.0
O63 O 0.90801 0.76211 0.35211 0.0
C64 C 0.11967 0.80237 0.08545 0.0
O65 O 0.16014 0.81323 0.11987 0.0
O66 O 0.9008 0.66098 0.19903 0.0
O67 O 0.95779 0.7857 0.17281 0.0
O68 O 0.97589 0.87318 0.16745 0.0
C69 C 0.84963 0.65649 0.18776 0.0
O70 O 0.81862 0.70107 0.18673 0.0
O71 O 0.86506 0.76848 0.27045 0.0
C72 C 0.14952 0.88455 0.22598 0.0
O73 O 0.15643 0.83301 0.24145 0.0
O74 O 0.10738 0.89749 0.19715 0.0
O75 O 0.05126 0.77987 0.24065 0.0
O76 O -0.00808 0.72005 0.27855 0.0
O77 O 0.07001 0.807 0.10192 0.0
C78 C 0.94023 0.83486 0.16866 0.0
C79 C 0.03968 0.74233 0.27623 0.0
Zn80 Zn 0.23832 0.03844 0.23431 0.0
Zn81 Zn 0.28896 0.91505 0.33818 0.0
C82 C 0.14364 0.10243 0.27405 0.0
O83 O 0.1142 0.05832 0.26212 0.0
C84 C 0.38088 0.84667 0.30236 0.0
O85 O 0.34646 0.8062 0.31321 0.0
O86 O 0.2673 0.06554 0.16098 0.0
O87 O 0.29352 0.00855 0.28569 0.0
O88 O 0.29888 -0.00955 0.37317 0.0
C89 C 0.27857 0.11671 0.15648 0.0
O90 O 0.27959 0.14772 0.20107 0.0
O91 O 0.19588 0.10128 0.26847 0.0
C92 C 0.24034 0.81683 0.38454 0.0
O93 O 0.22488 0.80991 0.333 0.0
O94 O 0.26918 0.85897 0.39748 0.0
O95 O 0.22569 0.91507 0.27986 0.0
O96 O 0.18778 0.97442 0.22004 0.0
O97 O 0.36441 0.89633 0.30699 0.0
C98 C 0.29767 0.02611 0.33485 0.0
C99 C 0.19011 0.92666 0.24232 0.0
Zn100 Zn 0.22802 0.9279 0.73431 0.0
Zn101 Zn 0.17738 0.05129 0.83818 0.0
C102 C 0.3227 0.8639 0.77405 0.0
O103 O 0.35214 0.90802 0.76212 0.0
C104 C 0.08546 0.11966 0.80236 0.0
O105 O 0.11988 0.16014 0.81321 0.0
O106 O 0.19904 0.90079 0.66098 0.0
O107 O 0.17282 0.95779 0.78569 0.0
O108 O 0.16746 0.97589 0.87317 0.0
C109 C 0.18777 0.84962 0.65648 0.0
O110 O 0.18675 0.81861 0.70107 0.0
O111 O 0.27046 0.86505 0.76847 0.0
C112 C 0.22599 0.14951 0.88454 0.0
O113 O 0.24146 0.15642 0.833 0.0
O114 O 0.19716 0.10737 0.89748 0.0
O115 O 0.24065 0.05126 0.77986 0.0
O116 O 0.27856 -0.00809 0.72004 0.0
O117 O 0.10192 0.07 0.80699 0.0
C118 C 0.16867 0.94022 0.83485 0.0
C119 C 0.27623 0.03968 0.74232 0.0
Zn120 Zn 0.73832 0.4279 0.732 0.0
Zn121 Zn 0.78896 0.55129 0.62814 0.0
C122 C 0.64364 0.3639 0.69227 0.0
O123 O 0.6142 0.40802 0.70419 0.0
C124 C 0.88088 0.61966 0.66396 0.0
O125 O 0.84646 0.66014 0.65311 0.0
O126 O 0.7673 0.40079 0.80534 0.0
O127 O 0.79352 0.45779 0.68063 0.0
O128 O 0.79888 0.47589 0.59315 0.0
C129 C 0.77857 0.34962 0.80984 0.0
O130 O 0.77959 0.31861 0.76525 0.0
O131 O 0.69588 0.36505 0.69785 0.0
C132 C 0.74034 0.64951 0.58178 0.0
O133 O 0.72488 0.65642 0.63331 0.0
O134 O 0.76918 0.60737 0.56883 0.0
O135 O 0.72569 0.55126 0.68646 0.0
O136 O 0.68778 0.49191 0.74628 0.0
O137 O 0.86441 0.57 0.65932 0.0
C138 C 0.79767 0.44022 0.63147 0.0
C139 C 0.69011 0.53968 0.724 0.0
Zn140 Zn 0.72802 0.53844 0.232 0.0
Zn141 Zn 0.67738 0.41505 0.12814 0.0
C142 C 0.8227 0.60243 0.19227 0.0
O143 O 0.85214 0.55832 0.20419 0.0
C144 C 0.58546 0.34667 0.16396 0.0
O145 O 0.61988 0.3062 0.15311 0.0
O146 O 0.69904 0.56554 0.30534 0.0
O147 O 0.67282 0.50855 0.18063 0.0
O148 O 0.66746 0.49045 0.09315 0.0
C149 C 0.68777 0.61671 0.30984 0.0
O150 O 0.68675 0.64772 0.26525 0.0
O151 O 0.77046 0.60128 0.19785 0.0
C152 C 0.72599 0.31683 0.08178 0.0
O153 O 0.74146 0.30991 0.13331 0.0
O154 O 0.69716 0.35897 0.06883 0.0
O155 O 0.74065 0.41507 0.18646 0.0
O156 O 0.77856 0.47442 0.24628 0.0
O157 O 0.60192 0.39633 0.15932 0.0
C158 C 0.66867 0.52611 0.13147 0.0
C159 C 0.77623 0.42666 0.224 0.0
Zn160 Zn 0.23432 0.23831 0.03843 0.0
Zn161 Zn 0.33819 0.28895 0.91504 0.0
C162 C 0.27406 0.14364 0.10243 0.0
O163 O 0.26214 0.1142 0.05831 0.0
C164 C 0.30237 0.38087 0.84666 0.0
O165 O 0.31322 0.34645 0.80619 0.0
O166 O 0.16099 0.26729 0.06553 0.0
O167 O 0.2857 0.29352 0.00854 0.0
O168 O 0.37318 0.29887 -0.00956 0.0
C169 C 0.1565 0.27857 0.1167 0.0
O170 O 0.20108 0.27961 0.14772 0.0
O171 O 0.26848 0.19588 0.10127 0.0
C172 C 0.38455 0.24034 0.81682 0.0
O173 O 0.33301 0.22487 0.80991 0.0
O174 O 0.39749 0.26917 0.85896 0.0
O175 O 0.27987 0.22568 0.91507 0.0
O176 O 0.22005 0.18777 0.97441 0.0
O177 O 0.307 0.36441 0.89632 0.0
C178 C 0.33486 0.29766 0.0261 0.0
C179 C 0.24233 0.1901 0.92665 0.0
Zn180 Zn 0.73432 0.22802 0.92789 0.0
Zn181 Zn 0.83819 0.17738 0.05128 0.0
C182 C 0.77406 0.3227 0.86389 0.0
O183 O 0.76214 0.35213 0.908 0.0
C184 C 0.80237 0.08546 0.11965 0.0
O185 O 0.81322 0.11988 0.16013 0.0
O186 O 0.66099 0.19905 0.90078 0.0
O187 O 0.7857 0.17282 0.95778 0.0
O188 O 0.87318 0.16746 0.97588 0.0
C189 C 0.6565 0.18776 0.84962 0.0
O190 O 0.70108 0.18673 0.8186 0.0
O191 O 0.76848 0.27046 0.86505 0.0
C192 C 0.88455 0.226 0.1495 0.0
O193 O 0.83301 0.24146 0.15641 0.0
O194 O 0.89749 0.19716 0.10736 0.0
O195 O 0.77987 0.24066 0.05125 0.0
O196 O 0.72005 0.27856 -0.0081 0.0
O197 O 0.807 0.10193 0.06999 0.0
C198 C 0.83486 0.16867 0.94022 0.0
C199 C 0.74233 0.27623 0.03967 0.0
Zn200 Zn 0.73202 0.73831 0.42789 0.0
Zn201 Zn 0.62815 0.78895 0.55128 0.0
C202 C 0.69228 0.64364 0.36389 0.0
O203 O 0.7042 0.6142 0.408 0.0
C204 C 0.66397 0.88087 0.61965 0.0
O205 O 0.65312 0.84645 0.66013 0.0
O206 O 0.80535 0.76729 0.40078 0.0
O207 O 0.68064 0.79352 0.45778 0.0
O208 O 0.59316 0.79887 0.47588 0.0
C209 C 0.80984 0.77857 0.34962 0.0
O210 O 0.76526 0.77961 0.3186 0.0
O211 O 0.69786 0.69588 0.36505 0.0
C212 C 0.58179 0.74034 0.6495 0.0
O213 O 0.63333 0.72487 0.65641 0.0
O214 O 0.56885 0.76917 0.60736 0.0
O215 O 0.68647 0.72568 0.55125 0.0
O216 O 0.74629 0.68777 0.4919 0.0
O217 O 0.65934 0.86441 0.56999 0.0
C218 C 0.63148 0.79766 0.44022 0.0
C219 C 0.72401 0.6901 0.53967 0.0
Zn220 Zn 0.23202 0.72802 0.53843 0.0
Zn221 Zn 0.12815 0.67738 0.41504 0.0
C222 C 0.19228 0.8227 0.60243 0.0
O223 O 0.2042 0.85213 0.55831 0.0
C224 C 0.16397 0.58546 0.34666 0.0
O225 O 0.15312 0.61988 0.30619 0.0
O226 O 0.30535 0.69905 0.56553 0.0
O227 O 0.18064 0.67282 0.50854 0.0
O228 O 0.09316 0.66746 0.49044 0.0
C229 C 0.30984 0.68776 0.6167 0.0
O230 O 0.26526 0.68673 0.64772 0.0
O231 O 0.19786 0.77046 0.60127 0.0
C232 C 0.08179 0.726 0.31682 0.0
O233 O 0.13333 0.74146 0.30991 0.0
O234 O 0.06885 0.69716 0.35896 0.0
O235 O 0.18647 0.74066 0.41507 0.0
O236 O 0.24629 0.77856 0.47441 0.0
O237 O 0.15934 0.60193 0.39632 0.0
C238 C 0.13148 0.66867 0.5261 0.0
C239 C 0.22401 0.77623 0.42665 0.0
Zn240 Zn 0.05129 0.62815 0.67737 0.0
Zn241 Zn 0.9279 0.73201 0.72801 0.0
C242 C 0.11967 0.66396 0.58546 0.0
O243 O 0.16016 0.65309 0.61986 0.0
C244 C 0.86389 0.69229 0.82269 0.0
O245 O 0.90802 0.7042 0.85211 0.0
O246 O 0.10738 0.56884 0.69715 0.0
O247 O 0.05126 0.68646 0.74065 0.0
O248 O -0.00809 0.74628 0.77855 0.0
C249 C 0.14952 0.58179 0.72599 0.0
O250 O 0.15643 0.63332 0.74145 0.0
O251 O 0.07001 0.65934 0.60192 0.0
C252 C 0.84964 0.80985 0.68775 0.0
O253 O 0.81862 0.76527 0.68675 0.0
O254 O 0.90081 0.80535 0.69903 0.0
O255 O 0.9578 0.68063 0.67281 0.0
O256 O 0.9759 0.59315 0.66744 0.0
O257 O 0.86505 0.69786 0.77045 0.0
C258 C 0.03968 0.724 0.77623 0.0
C259 C 0.94023 0.63147 0.66866 0.0
Zn260 Zn 0.41505 0.33819 0.17737 0.0
Zn261 Zn 0.53844 0.23432 0.22801 0.0
C262 C 0.34667 0.30237 0.08546 0.0
O263 O 0.30618 0.31325 0.11986 0.0
C264 C 0.60245 0.27405 0.32269 0.0
O265 O 0.55832 0.26213 0.35211 0.0
O266 O 0.35896 0.39749 0.19715 0.0
O267 O 0.41508 0.27987 0.24065 0.0
O268 O 0.47443 0.22005 0.27855 0.0
C269 C 0.31682 0.38455 0.22599 0.0
O270 O 0.30991 0.33301 0.24145 0.0
O271 O 0.39633 0.30699 0.10192 0.0
C272 C 0.6167 0.15648 0.18775 0.0
O273 O 0.64772 0.20107 0.18675 0.0
O274 O 0.56553 0.16098 0.19903 0.0
O275 O 0.50854 0.2857 0.17281 0.0
O276 O 0.49044 0.37318 0.16744 0.0
O277 O 0.60129 0.26848 0.27045 0.0
C278 C 0.42666 0.24233 0.27623 0.0
C279 C 0.52611 0.33486 0.16866 0.0
Zn280 Zn 0.55129 0.83819 0.28895 0.0
Zn281 Zn 0.4279 0.73432 0.23831 0.0
C282 C 0.61967 0.80237 0.38086 0.0
O283 O 0.66016 0.81325 0.34646 0.0
C284 C 0.36389 0.77405 0.14363 0.0
O285 O 0.40802 0.76213 0.11421 0.0
O286 O 0.60738 0.89749 0.26917 0.0
O287 O 0.55126 0.77987 0.22567 0.0
O288 O 0.49191 0.72005 0.18777 0.0
C289 C 0.64952 0.88455 0.24033 0.0
O290 O 0.65643 0.83301 0.22486 0.0
O291 O 0.57001 0.80699 0.3644 0.0
C292 C 0.34964 0.65648 0.27856 0.0
O293 O 0.31862 0.70107 0.27957 0.0
O294 O 0.40081 0.66098 0.26729 0.0
O295 O 0.4578 0.7857 0.2935 0.0
O296 O 0.4759 0.87318 0.29888 0.0
O297 O 0.36505 0.76848 0.19587 0.0
C298 C 0.53968 0.74233 0.19009 0.0
C299 C 0.44023 0.83486 0.29766 0.0
Zn300 Zn 0.91505 0.12815 0.78895 0.0
Zn301 Zn 0.03844 0.23201 0.73831 0.0
C302 C 0.84667 0.16396 0.88086 0.0
O303 O 0.80618 0.15309 0.84646 0.0
C304 C 0.10245 0.19229 0.64363 0.0
O305 O 0.05832 0.2042 0.61421 0.0
O306 O 0.85896 0.06884 0.76917 0.0
O307 O 0.91508 0.18646 0.72567 0.0
O308 O 0.97443 0.24628 0.68777 0.0
C309 C 0.81682 0.08179 0.74033 0.0
O310 O 0.80991 0.13332 0.72486 0.0
O311 O 0.89633 0.15934 0.8644 0.0
C312 C 0.1167 0.30985 0.77856 0.0
O313 O 0.14772 0.26527 0.77957 0.0
O314 O 0.06553 0.30535 0.76729 0.0
O315 O 0.00854 0.18063 0.7935 0.0
O316 O -0.00956 0.09315 0.79888 0.0
O317 O 0.10129 0.19786 0.69587 0.0
C318 C 0.92666 0.224 0.69009 0.0
C319 C 0.02611 0.13147 0.79766 0.0
Zn320 Zn 0.67738 0.05129 0.62814 0.0
Zn321 Zn 0.72802 0.92789 0.732 0.0
C322 C 0.58547 0.11967 0.66395 0.0
O323 O 0.61987 0.16015 0.65309 0.0
C324 C 0.8227 0.8639 0.69226 0.0
O325 O 0.85213 0.90802 0.70417 0.0
O326 O 0.69716 0.10737 0.56883 0.0
O327 O 0.74065 0.05126 0.68646 0.0
O328 O 0.77856 -0.00809 0.74627 0.0
C329 C 0.726 0.14951 0.58177 0.0
O330 O 0.74146 0.15642 0.63331 0.0
O331 O 0.60192 0.07001 0.65932 0.0
C332 C 0.68776 0.84963 0.80984 0.0
O333 O 0.68676 0.81861 0.76526 0.0
O334 O 0.69903 0.9008 0.80534 0.0
O335 O 0.67282 0.95779 0.68062 0.0
O336 O 0.66745 0.97589 0.59315 0.0
O337 O 0.77046 0.86505 0.69785 0.0
C338 C 0.77623 0.03968 0.724 0.0
C339 C 0.66867 0.94023 0.63146 0.0
Zn340 Zn 0.78896 0.91505 0.12814 0.0
Zn341 Zn 0.73832 0.03844 0.232 0.0
C342 C 0.88087 0.84667 0.16395 0.0
O343 O 0.84647 0.80618 0.15309 0.0
C344 C 0.64364 0.10243 0.19226 0.0
O345 O 0.61421 0.05831 0.20417 0.0
O346 O 0.76918 0.85896 0.06883 0.0
O347 O 0.72569 0.91507 0.18646 0.0
O348 O 0.68778 0.97442 0.24627 0.0
C349 C 0.74034 0.81683 0.08177 0.0
O350 O 0.72488 0.80991 0.13331 0.0
O351 O 0.86442 0.89633 0.15932 0.0
C352 C 0.77857 0.11671 0.30984 0.0
O353 O 0.77958 0.14772 0.26526 0.0
O354 O 0.76731 0.06553 0.30534 0.0
O355 O 0.79352 0.00854 0.18062 0.0
O356 O 0.79889 -0.00956 0.09315 0.0
O357 O 0.69588 0.10128 0.19785 0.0
C358 C 0.69011 0.92666 0.224 0.0
C359 C 0.79767 0.02611 0.13146 0.0
Zn360 Zn 0.17738 0.41505 0.33818 0.0
Zn361 Zn 0.22802 0.53844 0.23432 0.0
C362 C 0.08547 0.34667 0.30237 0.0
O363 O 0.11987 0.30618 0.31323 0.0
C364 C 0.3227 0.60243 0.27405 0.0
O365 O 0.35213 0.55831 0.26215 0.0
O366 O 0.19716 0.35896 0.39748 0.0
O367 O 0.24065 0.41507 0.27986 0.0
O368 O 0.27856 0.47442 0.22004 0.0
C369 C 0.226 0.31683 0.38454 0.0
O370 O 0.24146 0.30991 0.333 0.0
O371 O 0.10192 0.39633 0.30699 0.0
C372 C 0.18776 0.61671 0.15648 0.0
O373 O 0.18676 0.64772 0.20106 0.0
O374 O 0.19903 0.56553 0.16098 0.0
O375 O 0.17282 0.50854 0.2857 0.0
O376 O 0.16745 0.49044 0.37317 0.0
O377 O 0.27046 0.60128 0.26847 0.0
C378 C 0.27623 0.42666 0.24232 0.0
C379 C 0.16867 0.52611 0.33486 0.0
Zn380 Zn 0.28896 0.55129 0.83818 0.0
Zn381 Zn 0.23832 0.42789 0.73432 0.0
C382 C 0.38087 0.61967 0.80237 0.0
O383 O 0.34647 0.66015 0.81323 0.0
C384 C 0.14364 0.3639 0.77405 0.0
O385 O 0.11421 0.40802 0.76215 0.0
O386 O 0.26918 0.60737 0.89748 0.0
O387 O 0.22569 0.55126 0.77986 0.0
O388 O 0.18778 0.49191 0.72004 0.0
C389 C 0.24034 0.64951 0.88454 0.0
O390 O 0.22488 0.65642 0.833 0.0
O391 O 0.36442 0.57001 0.80699 0.0
C392 C 0.27857 0.34963 0.65648 0.0
O393 O 0.27958 0.31861 0.70106 0.0
O394 O 0.26731 0.4008 0.66098 0.0
O395 O 0.29352 0.45779 0.7857 0.0
O396 O 0.29889 0.47589 0.87317 0.0
O397 O 0.19588 0.36505 0.76847 0.0
C398 C 0.19011 0.53968 0.74232 0.0
C399 C 0.29767 0.44023 0.83486 0.0
Zn400 Zn 0.62815 0.67738 0.05128 0.0
Zn401 Zn 0.73201 0.72802 0.92789 0.0
C402 C 0.66396 0.58547 0.11966 0.0
O403 O 0.6531 0.61987 0.16014 0.0
C404 C 0.69227 0.8227 0.86389 0.0
O405 O 0.70418 0.85213 0.90801 0.0
O406 O 0.56885 0.69716 0.10736 0.0
O407 O 0.68647 0.74065 0.05125 0.0
O408 O 0.74629 0.77856 -0.0081 0.0
C409 C 0.58179 0.726 0.1495 0.0
O410 O 0.63333 0.74146 0.15641 0.0
O411 O 0.65934 0.60193 0.07 0.0
C412 C 0.80984 0.68775 0.84962 0.0
O413 O 0.76527 0.68674 0.8186 0.0
O414 O 0.80535 0.69904 0.90079 0.0
O415 O 0.68064 0.67282 0.95778 0.0
O416 O 0.59316 0.66745 0.97588 0.0
O417 O 0.69786 0.77046 0.86504 0.0
C418 C 0.72401 0.77623 0.03967 0.0
C419 C 0.63147 0.66867 0.94022 0.0
Zn420 Zn 0.12815 0.78895 0.91504 0.0
Zn421 Zn 0.23201 0.73832 0.03843 0.0
C422 C 0.16396 0.88087 0.84666 0.0
O423 O 0.1531 0.84646 0.80618 0.0
C424 C 0.19227 0.64364 0.10243 0.0
O425 O 0.20418 0.6142 0.05831 0.0
O426 O 0.06885 0.76917 0.85895 0.0
O427 O 0.18647 0.72568 0.91507 0.0
O428 O 0.24629 0.68777 0.97442 0.0
C429 C 0.08179 0.74034 0.81682 0.0
O430 O 0.13333 0.72487 0.80991 0.0
O431 O 0.15934 0.86441 0.89632 0.0
C432 C 0.30984 0.77858 0.1167 0.0
O433 O 0.26527 0.7796 0.14772 0.0
O434 O 0.30535 0.7673 0.06553 0.0
O435 O 0.18064 0.79351 0.00853 0.0
O436 O 0.09316 0.79888 -0.00956 0.0
O437 O 0.19786 0.69588 0.10128 0.0
C438 C 0.22401 0.6901 0.92665 0.0
C439 C 0.13147 0.79766 0.0261 0.0
Zn440 Zn 0.33819 0.17738 0.41504 0.0
Zn441 Zn 0.23433 0.22802 0.53843 0.0
C442 C 0.30238 0.08547 0.34666 0.0
O443 O 0.31324 0.11987 0.30618 0.0
C444 C 0.27407 0.3227 0.60243 0.0
O445 O 0.26216 0.35213 0.55831 0.0
O446 O 0.39749 0.19716 0.35895 0.0
O447 O 0.27987 0.24065 0.41507 0.0
O448 O 0.22005 0.27856 0.47442 0.0
C449 C 0.38455 0.226 0.31682 0.0
O450 O 0.33301 0.24146 0.30991 0.0
O451 O 0.307 0.10193 0.39632 0.0
C452 C 0.1565 0.18775 0.6167 0.0
O453 O 0.20107 0.18674 0.64772 0.0
O454 O 0.16099 0.19904 0.56553 0.0
O455 O 0.2857 0.17282 0.50853 0.0
O456 O 0.37318 0.16745 0.49044 0.0
O457 O 0.26848 0.27046 0.60128 0.0
C458 C 0.24233 0.27623 0.42665 0.0
C459 C 0.33487 0.16867 0.5261 0.0
Zn460 Zn 0.83819 0.28895 0.55128 0.0
Zn461 Zn 0.73433 0.23832 0.42789 0.0
C462 C 0.80238 0.38087 0.61966 0.0
O463 O 0.81324 0.34646 0.66014 0.0
C464 C 0.77407 0.14364 0.36389 0.0
O465 O 0.76216 0.1142 0.40801 0.0
O466 O 0.89749 0.26917 0.60736 0.0
O467 O 0.77987 0.22568 0.55125 0.0
O468 O 0.72005 0.18777 0.4919 0.0
C469 C 0.88455 0.24034 0.6495 0.0
O470 O 0.83301 0.22487 0.65641 0.0
O471 O 0.807 0.36441 0.57 0.0
C472 C 0.6565 0.27858 0.34962 0.0
O473 O 0.70107 0.2796 0.3186 0.0
O474 O 0.66099 0.2673 0.40079 0.0
O475 O 0.7857 0.29351 0.45778 0.0
O476 O 0.87318 0.29888 0.47588 0.0
O477 O 0.76848 0.19588 0.36504 0.0
C478 C 0.74233 0.1901 0.53967 0.0
C479 C 0.83487 0.29766 0.44022 0.0
loop_
_geom_bond_atom_site_label_1
_geom_bond_atom_site_label_2
_geom_bond_distance
_geom_bond_site_symmetry_2
_ccdc_geom_bond_type
Zn0 O6 1.969 . S
Zn0 O7 1.965 . S
Zn0 O11 2.024 . S
Zn0 O16 1.969 1_455 S
Zn1 O8 1.969 1_655 S
Zn1 O14 1.969 . S
Zn1 O15 1.965 . S
Zn1 O17 2.024 . S
C2 O3 1.229 . S
C2 O11 1.058 . S
O3 C2 1.229 . S
C4 O5 1.229 . S
C4 O17 1.058 . S
O5 C4 1.229 . S
O6 Zn0 1.969 . S
O6 C9 1.267 . S
O7 Zn0 1.965 . S
O7 C18 1.260 . S
O8 Zn1 1.969 1_455 S
O8 C18 1.258 . S
C9 O6 1.267 . S
C9 O10 1.228 . S
O10 C9 1.228 . S
O11 Zn0 2.024 . S
O11 C2 1.058 . S
C12 O13 1.228 . S
C12 O14 1.267 . S
O13 C12 1.228 . S
O14 Zn1 1.969 . S
O14 C12 1.267 . S
O15 Zn1 1.965 . S
O15 C19 1.260 . S
O16 Zn0 1.969 1_655 S
O16 C19 1.258 . S
O17 Zn1 2.024 . S
O17 C4 1.058 . S
C18 O7 1.260 . S
C18 O8 1.258 . S
C19 O15 1.260 . S
C19 O16 1.258 . S
Zn20 O26 1.969 . S
Zn20 O27 1.965 . S
Zn20 O31 2.024 . S
Zn20 O36 1.969 . S
Zn21 O28 1.969 . S
Zn21 O34 1.969 . S
Zn21 O35 1.965 . S
Zn21 O37 2.024 . S
C22 O23 1.229 . S
C22 O31 1.058 . S
O23 C22 1.229 . S
C24 O25 1.229 . S
C24 O37 1.058 . S
O25 C24 1.229 . S
O26 Zn20 1.969 . S
O26 C29 1.267 . S
O27 Zn20 1.965 . S
O27 C38 1.260 . S
O28 Zn21 1.969 . S
O28 C38 1.258 . S
C29 O26 1.267 . S
C29 O30 1.228 . S
O30 C29 1.228 . S
O31 Zn20 2.024 . S
O31 C22 1.058 . S
C32 O33 1.228 . S
C32 O34 1.267 . S
O33 C32 1.228 . S
O34 Zn21 1.969 . S
O34 C32 1.267 . S
O35 Zn21 1.965 . S
O35 C39 1.260 . S
O36 Zn20 1.969 . S
O36 C39 1.258 . S
O37 Zn21 2.024 . S
O37 C24 1.058 . S
C38 O27 1.260 . S
C38 O28 1.258 . S
C39 O35 1.260 . S
C39 O36 1.258 . S
Zn40 O46 1.969 . S
Zn40 O47 1.965 . S
Zn40 O51 2.024 . S
Zn40 O56 1.969 . S
Zn41 O48 1.969 . S
Zn41 O54 1.969 . S
Zn41 O55 1.965 . S
Zn41 O57 2.024 . S
C42 O43 1.229 . S
C42 O51 1.058 . S
O43 C42 1.229 . S
C44 O45 1.229 . S
C44 O57 1.058 . S
O45 C44 1.229 . S
O46 Zn40 1.969 . S
O46 C49 1.267 . S
O47 Zn40 1.965 . S
O47 C58 1.260 . S
O48 Zn41 1.969 . S
O48 C58 1.258 . S
C49 O46 1.267 . S
C49 O50 1.228 . S
O50 C49 1.228 . S
O51 Zn40 2.024 . S
O51 C42 1.058 . S
C52 O53 1.228 . S
C52 O54 1.267 . S
O53 C52 1.228 . S
O54 Zn41 1.969 . S
O54 C52 1.267 . S
O55 Zn41 1.965 . S
O55 C59 1.260 . S
O56 Zn40 1.969 . S
O56 C59 1.258 . S
O57 Zn41 2.024 . S
O57 C44 1.058 . S
C58 O47 1.260 . S
C58 O48 1.258 . S
C59 O55 1.260 . S
C59 O56 1.258 . S
Zn60 O66 1.969 . S
Zn60 O67 1.965 . S
Zn60 O71 2.024 . S
Zn60 O76 1.969 1_655 S
Zn61 O68 1.969 1_455 S
Zn61 O74 1.969 . S
Zn61 O75 1.965 . S
Zn61 O77 2.024 . S
C62 O63 1.229 . S
C62 O71 1.058 . S
O63 C62 1.229 . S
C64 O65 1.229 . S
C64 O77 1.058 . S
O65 C64 1.229 . S
O66 Zn60 1.969 . S
O66 C69 1.267 . S
O67 Zn60 1.965 . S
O67 C78 1.260 . S
O68 Zn61 1.969 1_655 S
O68 C78 1.258 . S
C69 O66 1.267 . S
C69 O70 1.228 . S
O70 C69 1.228 . S
O71 Zn60 2.024 . S
O71 C62 1.058 . S
C72 O73 1.228 . S
C72 O74 1.267 . S
O73 C72 1.228 . S
O74 Zn61 1.969 . S
O74 C72 1.267 . S
O75 Zn61 1.965 . S
O75 C79 1.260 . S
O76 Zn60 1.969 1_455 S
O76 C79 1.258 . S
O77 Zn61 2.024 . S
O77 C64 1.058 . S
C78 O67 1.260 . S
C78 O68 1.258 . S
C79 O75 1.260 . S
C79 O76 1.258 . S
Zn80 O86 1.969 . S
Zn80 O87 1.965 . S
Zn80 O91 2.024 . S
Zn80 O96 1.969 1_545 S
Zn81 O88 1.969 1_565 S
Zn81 O94 1.969 . S
Zn81 O95 1.965 . S
Zn81 O97 2.024 . S
C82 O83 1.229 . S
C82 O91 1.058 . S
O83 C82 1.229 . S
C84 O85 1.229 . S
C84 O97 1.058 . S
O85 C84 1.229 . S
O86 Zn80 1.969 . S
O86 C89 1.267 . S
O87 Zn80 1.965 . S
O87 C98 1.260 . S
O88 Zn81 1.969 1_545 S
O88 C98 1.258 . S
C89 O86 1.267 . S
C89 O90 1.228 . S
O90 C89 1.228 . S
O91 Zn80 2.024 . S
O91 C82 1.058 . S
C92 O93 1.228 . S
C92 O94 1.267 . S
O93 C92 1.228 . S
O94 Zn81 1.969 . S
O94 C92 1.267 . S
O95 Zn81 1.965 . S
O95 C99 1.260 . S
O96 Zn80 1.969 1_565 S
O96 C99 1.258 . S
O97 Zn81 2.024 . S
O97 C84 1.058 . S
C98 O87 1.260 . S
C98 O88 1.258 . S
C99 O95 1.260 . S
C99 O96 1.258 . S
Zn100 O106 1.969 . S
Zn100 O107 1.965 . S
Zn100 O111 2.024 . S
Zn100 O116 1.969 1_565 S
Zn101 O108 1.969 1_545 S
Zn101 O114 1.969 . S
Zn101 O115 1.965 . S
Zn101 O117 2.024 . S
C102 O103 1.229 . S
C102 O111 1.058 . S
O103 C102 1.229 . S
C104 O105 1.229 . S
C104 O117 1.058 . S
O105 C104 1.229 . S
O106 Zn100 1.969 . S
O106 C109 1.267 . S
O107 Zn100 1.965 . S
O107 C118 1.260 . S
O108 Zn101 1.969 1_565 S
O108 C118 1.258 . S
C109 O106 1.267 . S
C109 O110 1.228 . S
O110 C109 1.228 . S
O111 Zn100 2.024 . S
O111 C102 1.058 . S
C112 O113 1.228 . S
C112 O114 1.267 . S
O113 C112 1.228 . S
O114 Zn101 1.969 . S
O114 C112 1.267 . S
O115 Zn101 1.965 . S
O115 C119 1.260 . S
O116 Zn100 1.969 1_545 S
O116 C119 1.258 . S
O117 Zn101 2.024 . S
O117 C104 1.058 . S
C118 O107 1.260 . S
C118 O108 1.258 . S
C119 O115 1.260 . S
C119 O116 1.258 . S
Zn120 O126 1.969 . S
Zn120 O127 1.965 . S
Zn120 O131 2.024 . S
Zn120 O136 1.969 . S
Zn121 O128 1.969 . S
Zn121 O134 1.969 . S
Zn121 O135 1.965 . S
Zn121 O137 2.024 . S
C122 O123 1.229 . S
C122 O131 1.058 . S
O123 C122 1.229 . S
C124 O125 1.229 . S
C124 O137 1.058 . S
O125 C124 1.229 . S
O126 Zn120 1.969 . S
O126 C129 1.267 . S
O127 Zn120 1.965 . S
O127 C138 1.260 . S
O128 Zn121 1.969 . S
O128 C138 1.258 . S
C129 O126 1.267 . S
C129 O130 1.228 . S
O130 C129 1.228 . S
O131 Zn120 2.024 . S
O131 C122 1.058 . S
C132 O133 1.228 . S
C132 O134 1.267 . S
O133 C132 1.228 . S
O134 Zn121 1.969 . S
O134 C132 1.267 . S
O135 Zn121 1.965 . S
O135 C139 1.260 . S
O136 Zn120 1.969 . S
O136 C139 1.258 . S
O137 Zn121 2.024 . S
O137 C124 1.058 . S
C138 O127 1.260 . S
C138 O128 1.258 . S
C139 O135 1.260 . S
C139 O136 1.258 . S
Zn140 O146 1.969 . S
Zn140 O147 1.965 . S
Zn140 O151 2.024 . S
Zn140 O156 1.969 . S
Zn141 O148 1.969 . S
Zn141 O154 1.969 . S
Zn141 O155 1.965 . S
Zn141 O157 2.024 . S
C142 O143 1.229 . S
C142 O151 1.058 . S
O143 C142 1.229 . S
C144 O145 1.229 . S
C144 O157 1.058 . S
O145 C144 1.229 . S
O146 Zn140 1.969 . S
O146 C149 1.267 . S
O147 Zn140 1.965 . S
O147 C158 1.260 . S
O148 Zn141 1.969 . S
O148 C158 1.258 . S
C149 O146 1.267 . S
C149 O150 1.228 . S
O150 C149 1.228 . S
O151 Zn140 2.024 . S
O151 C142 1.058 . S
C152 O153 1.228 . S
C152 O154 1.267 . S
O153 C152 1.228 . S
O154 Zn141 1.969 . S
O154 C152 1.267 . S
O155 Zn141 1.965 . S
O155 C159 1.260 . S
O156 Zn140 1.969 . S
O156 C159 1.258 . S
O157 Zn141 2.024 . S
O157 C144 1.058 . S
C158 O147 1.260 . S
C158 O148 1.258 . S
C159 O155 1.260 . S
C159 O156 1.258 . S
Zn160 O166 1.969 . S
Zn160 O167 1.965 . S
Zn160 O171 2.024 . S
Zn160 O176 1.969 1_554 S
Zn161 O168 1.969 1_556 S
Zn161 O174 1.969 . S
Zn161 O175 1.965 . S
Zn161 O177 2.024 . S
C162 O163 1.229 . S
C162 O171 1.058 . S
O163 C162 1.229 . S
C164 O165 1.229 . S
C164 O177 1.058 . S
O165 C164 1.229 . S
O166 Zn160 1.969 . S
O166 C169 1.267 . S
O167 Zn160 1.965 . S
O167 C178 1.260 . S
O168 Zn161 1.969 1_554 S
O168 C178 1.258 . S
C169 O166 1.267 . S
C169 O170 1.228 . S
O170 C169 1.228 . S
O171 Zn160 2.024 . S
O171 C162 1.058 . S
C172 O173 1.228 . S
C172 O174 1.267 . S
O173 C172 1.228 . S
O174 Zn161 1.969 . S
O174 C172 1.267 . S
O175 Zn161 1.965 . S
O175 C179 1.260 . S
O176 Zn160 1.969 1_556 S
O176 C179 1.258 . S
O177 Zn161 2.024 . S
O177 C164 1.058 . S
C178 O167 1.260 . S
C178 O168 1.258 . S
C179 O175 1.260 . S
C179 O176 1.258 . S
Zn180 O186 1.969 . S
Zn180 O187 1.965 . S
Zn180 O191 2.024 . S
Zn180 O196 1.969 1_556 S
Zn181 O188 1.969 1_554 S
Zn181 O194 1.969 . S
Zn181 O195 1.965 . S
Zn181 O197 2.024 . S
C182 O183 1.229 . S
C182 O191 1.058 . S
O183 C182 1.229 . S
C184 O185 1.229 . S
C184 O197 1.058 . S
O185 C184 1.229 . S
O186 Zn180 1.969 . S
O186 C189 1.267 . S
O187 Zn180 1.965 . S
O187 C198 1.260 . S
O188 Zn181 1.969 1_556 S
O188 C198 1.258 . S
C189 O186 1.267 . S
C189 O190 1.228 . S
O190 C189 1.228 . S
O191 Zn180 2.024 . S
O191 C182 1.058 . S
C192 O193 1.228 . S
C192 O194 1.267 . S
O193 C192 1.228 . S
O194 Zn181 1.969 . S
O194 C192 1.267 . S
O195 Zn181 1.965 . S
O195 C199 1.260 . S
O196 Zn180 1.969 1_554 S
O196 C199 1.258 . S
O197 Zn181 2.024 . S
O197 C184 1.058 . S
C198 O187 1.260 . S
C198 O188 1.258 . S
C199 O195 1.260 . S
C199 O196 1.258 . S
Zn200 O206 1.969 . S
Zn200 O207 1.965 . S
Zn200 O211 2.024 . S
Zn200 O216 1.969 . S
Zn201 O208 1.969 . S
Zn201 O214 1.969 . S
Zn201 O215 1.965 . S
Zn201 O217 2.024 . S
C202 O203 1.229 . S
C202 O211 1.058 . S
O203 C202 1.229 . S
C204 O205 1.229 . S
C204 O217 1.058 . S
O205 C204 1.229 . S
O206 Zn200 1.969 . S
O206 C209 1.267 . S
O207 Zn200 1.965 . S
O207 C218 1.260 . S
O208 Zn201 1.969 . S
O208 C218 1.258 . S
C209 O206 1.267 . S
C209 O210 1.228 . S
O210 C209 1.228 . S
O211 Zn200 2.024 . S
O211 C202 1.058 . S
C212 O213 1.228 . S
C212 O214 1.267 . S
O213 C212 1.228 . S
O214 Zn201 1.969 . S
O214 C212 1.267 . S
O215 Zn201 1.965 . S
O215 C219 1.260 . S
O216 Zn200 1.969 . S
O216 C219 1.258 . S
O217 Zn201 2.024 . S
O217 C204 1.058 . S
C218 O207 1.260 . S
C218 O208 1.258 . S
C219 O215 1.260 . S
C219 O216 1.258 . S
Zn220 O226 1.969 . S
Zn220 O227 1.965 . S
Zn220 O231 2.024 . S
Zn220 O236 1.969 . S
Zn221 O228 1.969 . S
Zn221 O234 1.969 . S
Zn221 O235 1.965 . S
Zn221 O237 2.024 . S
C222 O223 1.229 . S
C222 O231 1.058 . S
O223 C222 1.229 . S
C224 O225 1.229 . S
C224 O237 1.058 . S
O225 C224 1.229 . S
O226 Zn220 1.969 . S
O226 C229 1.267 . S
O227 Zn220 1.965 . S
O227 C238 1.260 . S
O228 Zn221 1.969 . S
O228 C238 1.258 . S
C229 O226 1.267 . S
C229 O230 1.228 . S
O230 C229 1.228 . S
O231 Zn220 2.024 . S
O231 C222 1.058 . S
C232 O233 1.228 . S
C232 O234 1.267 . S
O233 C232 1.228 . S
O234 Zn221 1.969 . S
O234 C232 1.267 . S
O235 Zn221 1.965 . S
O235 C239 1.260 . S
O236 Zn220 1.969 . S
O236 C239 1.258 . S
O237 Zn221 2.024 . S
O237 C224 1.058 . S
C238 O227 1.260 . S
C238 O228 1.258 . S
C239 O235 1.260 . S
C239 O236 1.258 . S
Zn240 O246 1.969 . S
Zn240 O247 1.965 . S
Zn240 O251 2.024 . S
Zn240 O256 1.969 1_455 S
Zn241 O248 1.969 1_655 S
Zn241 O254 1.969 . S
Zn241 O255 1.965 . S
Zn241 O257 2.024 . S
C242 O243 1.229 . S
C242 O251 1.058 . S
O243 C242 1.229 . S
C244 O245 1.229 . S
C244 O257 1.058 . S
O245 C244 1.229 . S
O246 Zn240 1.969 . S
O246 C249 1.267 . S
O247 Zn240 1.965 . S
O247 C258 1.260 . S
O248 Zn241 1.969 1_455 S
O248 C258 1.258 . S
C249 O246 1.267 . S
C249 O250 1.228 . S
O250 C249 1.228 . S
O251 Zn240 2.024 . S
O251 C242 1.058 . S
C252 O253 1.228 . S
C252 O254 1.267 . S
O253 C252 1.228 . S
O254 Zn241 1.969 . S
O254 C252 1.267 . S
O255 Zn241 1.965 . S
O255 C259 1.260 . S
O256 Zn240 1.969 1_655 S
O256 C259 1.258 . S
O257 Zn241 2.024 . S
O257 C244 1.058 . S
C258 O247 1.260 . S
C258 O248 1.258 . S
C259 O255 1.260 . S
C259 O256 1.258 . S
Zn260 O266 1.969 . S
Zn260 O267 1.965 . S
Zn260 O271 2.024 . S
Zn260 O276 1.969 . S
Zn261 O268 1.969 . S
Zn261 O274 1.969 . S
Zn261 O275 1.965 . S
Zn261 O277 2.024 . S
C262 O263 1.229 . S
C262 O271 1.058 . S
O263 C262 1.229 . S
C264 O265 1.229 . S
C264 O277 1.058 . S
O265 C264 1.229 . S
O266 Zn260 1.969 . S
O266 C269 1.267 . S
O267 Zn260 1.965 . S
O267 C278 1.260 . S
O268 Zn261 1.969 . S
O268 C278 1.258 . S
C269 O266 1.267 . S
C269 O270 1.228 . S
O270 C269 1.228 . S
O271 Zn260 2.024 . S
O271 C262 1.058 . S
C272 O273 1.228 . S
C272 O274 1.267 . S
O273 C272 1.228 . S
O274 Zn261 1.969 . S
O274 C272 1.267 . S
O275 Zn261 1.965 . S
O275 C279 1.260 . S
O276 Zn260 1.969 . S
O276 C279 1.258 . S
O277 Zn261 2.024 . S
O277 C264 1.058 . S
C278 O267 1.260 . S
C278 O268 1.258 . S
C279 O275 1.260 . S
C279 O276 1.258 . S
Zn280 O286 1.969 . S
Zn280 O287 1.965 . S
Zn280 O291 2.024 . S
Zn280 O296 1.969 . S
Zn281 O288 1.969 . S
Zn281 O294 1.969 . S
Zn281 O295 1.965 . S
Zn281 O297 2.024 . S
C282 O283 1.229 . S
C282 O291 1.058 . S
O283 C282 1.229 . S
C284 O285 1.229 . S
C284 O297 1.058 . S
O285 C284 1.229 . S
O286 Zn280 1.969 . S
O286 C289 1.267 . S
O287 Zn280 1.965 . S
O287 C298 1.260 . S
O288 Zn281 1.969 . S
O288 C298 1.258 . S
C289 O286 1.267 . S
C289 O290 1.228 . S
O290 C289 1.228 . S
O291 Zn280 2.024 . S
O291 C282 1.058 . S
C292 O293 1.228 . S
C292 O294 1.267 . S
O293 C292 1.228 . S
O294 Zn281 1.969 . S
O294 C292 1.267 . S
O295 Zn281 1.965 . S
O295 C299 1.260 . S
O296 Zn280 1.969 . S
O296 C299 1.258 . S
O297 Zn281 2.024 . S
O297 C284 1.058 . S
C298 O287 1.260 . S
C298 O288 1.258 . S
C299 O295 1.260 . S
C299 O296 1.258 . S
Zn300 O306 1.969 . S
Zn300 O307 1.965 . S
Zn300 O311 2.024 . S
Zn300 O316 1.969 1_655 S
Zn301 O308 1.969 1_455 S
Zn301 O314 1.969 . S
Zn301 O315 1.965 . S
Zn301 O317 2.024 . S
C302 O303 1.229 . S
C302 O311 1.058 . S
O303 C302 1.229 . S
C304 O305 1.229 . S
C304 O317 1.058 . S
O305 C304 1.229 . S
O306 Zn300 1.969 . S
O306 C309 1.267 . S
O307 Zn300 1.965 . S
O307 C318 1.260 . S
O308 Zn301 1.969 1_655 S
O308 C318 1.258 . S
C309 O306 1.267 . S
C309 O310 1.228 . S
O310 C309 1.228 . S
O311 Zn300 2.024 . S
O311 C302 1.058 . S
C312 O313 1.228 . S
C312 O314 1.267 . S
O313 C312 1.228 . S
O314 Zn301 1.969 . S
O314 C312 1.267 . S
O315 Zn301 1.965 . S
O315 C319 1.260 . S
O316 Zn300 1.969 1_455 S
O316 C319 1.258 . S
O317 Zn301 2.024 . S
O317 C304 1.058 . S
C318 O307 1.260 . S
C318 O308 1.258 . S
C319 O315 1.260 . S
C319 O316 1.258 . S
Zn320 O326 1.969 . S
Zn320 O327 1.965 . S
Zn320 O331 2.024 . S
Zn320 O336 1.969 1_545 S
Zn321 O328 1.969 1_565 S
Zn321 O334 1.969 . S
Zn321 O335 1.965 . S
Zn321 O337 2.024 . S
C322 O323 1.229 . S
C322 O331 1.058 . S
O323 C322 1.229 . S
C324 O325 1.229 . S
C324 O337 1.058 . S
O325 C324 1.229 . S
O326 Zn320 1.969 . S
O326 C329 1.267 . S
O327 Zn320 1.965 . S
O327 C338 1.260 . S
O328 Zn321 1.969 1_545 S
O328 C338 1.258 . S
C329 O326 1.267 . S
C329 O330 1.228 . S
O330 C329 1.228 . S
O331 Zn320 2.024 . S
O331 C322 1.058 . S
C332 O333 1.228 . S
C332 O334 1.267 . S
O333 C332 1.228 . S
O334 Zn321 1.969 . S
O334 C332 1.267 . S
O335 Zn321 1.965 . S
O335 C339 1.260 . S
O336 Zn320 1.969 1_565 S
O336 C339 1.258 . S
O337 Zn321 2.024 . S
O337 C324 1.058 . S
C338 O327 1.260 . S
C338 O328 1.258 . S
C339 O335 1.260 . S
C339 O336 1.258 . S
Zn340 O346 1.969 . S
Zn340 O347 1.965 . S
Zn340 O351 2.024 . S
Zn340 O356 1.969 1_565 S
Zn341 O348 1.969 1_545 S
Zn341 O354 1.969 . S
Zn341 O355 1.965 . S
Zn341 O357 2.024 . S
C342 O343 1.229 . S
C342 O351 1.058 . S
O343 C342 1.229 . S
C344 O345 1.229 . S
C344 O357 1.058 . S
O345 C344 1.229 . S
O346 Zn340 1.969 . S
O346 C349 1.267 . S
O347 Zn340 1.965 . S
O347 C358 1.260 . S
O348 Zn341 1.969 1_565 S
O348 C358 1.258 . S
C349 O346 1.267 . S
C349 O350 1.228 . S
O350 C349 1.228 . S
O351 Zn340 2.024 . S
O351 C342 1.058 . S
C352 O353 1.228 . S
C352 O354 1.267 . S
O353 C352 1.228 . S
O354 Zn341 1.969 . S
O354 C352 1.267 . S
O355 Zn341 1.965 . S
O355 C359 1.260 . S
O356 Zn340 1.969 1_545 S
O356 C359 1.258 . S
O357 Zn341 2.024 . S
O357 C344 1.058 . S
C358 O347 1.260 . S
C358 O348 1.258 . S
C359 O355 1.260 . S
C359 O356 1.258 . S
Zn360 O366 1.969 . S
Zn360 O367 1.965 . S
Zn360 O371 2.024 . S
Zn360 O376 1.969 . S
Zn361 O368 1.969 . S
Zn361 O374 1.969 . S
Zn361 O375 1.965 . S
Zn361 O377 2.024 . S
C362 O363 1.229 . S
C362 O371 1.058 . S
O363 C362 1.229 . S
C364 O365 1.229 . S
C364 O377 1.058 . S
O365 C364 1.229 . S
O366 Zn360 1.969 . S
O366 C369 1.267 . S
O367 Zn360 1.965 . S
O367 C378 1.260 . S
O368 Zn361 1.969 . S
O368 C378 1.258 . S
C369 O366 1.267 . S
C369 O370 1.228 . S
O370 C369 1.228 . S
O371 Zn360 2.024 . S
O371 C362 1.058 . S
C372 O373 1.228 . S
C372 O374 1.267 . S
O373 C372 1.228 . S
O374 Zn361 1.969 . S
O374 C372 1.267 . S
O375 Zn361 1.965 . S
O375 C379 1.260 . S
O376 Zn360 1.969 . S
O376 C379 1.258 . S
O377 Zn361 2.024 . S
O377 C364 1.058 . S
C378 O367 1.260 . S
C378 O368 1.258 . S
C379 O375 1.260 . S
C379 O376 1.258 . S
Zn380 O386 1.969 . S
Zn380 O387 1.965 . S
Zn380 O391 2.024 . S
Zn380 O396 1.969 . S
Zn381 O388 1.969 . S
Zn381 O394 1.969 . S
Zn381 O395 1.965 . S
Zn381 O397 2.024 . S
C382 O383 1.229 . S
C382 O391 1.058 . S
O383 C382 1.229 . S
C384 O385 1.229 . S
C384 O397 1.058 . S
O385 C384 1.229 . S
O386 Zn380 1.969 . S
O386 C389 1.267 . S
O387 Zn380 1.965 . S
O387 C398 1.260 . S
O388 Zn381 1.969 . S
O388 C398 1.258 . S
C389 O386 1.267 . S
C389 O390 1.228 . S
O390 C389 1.228 . S
O391 Zn380 2.024 . S
O391 C382 1.058 . S
C392 O393 1.228 . S
C392 O394 1.267 . S
O393 C392 1.228 . S
O394 Zn381 1.969 . S
O394 C392 1.267 . S
O395 Zn381 1.965 . S
O395 C399 1.260 . S
O396 Zn380 1.969 . S
O396 C399 1.258 . S
O397 Zn381 2.024 . S
O397 C384 1.058 . S
C398 O387 1.260 . S
C398 O388 1.258 . S
C399 O395 1.260 . S
C399 O396 1.258 . S
Zn400 O406 1.969 . S
Zn400 O407 1.965 . S
Zn400 O411 2.024 . S
Zn400 O416 1.969 1_554 S
Zn401 O408 1.969 1_556 S
Zn401 O414 1.969 . S
Zn401 O415 1.965 . S
Zn401 O417 2.024 . S
C402 O403 1.229 . S
C402 O411 1.058 . S
O403 C402 1.229 . S
C404 O405 1.229 . S
C404 O417 1.058 . S
O405 C404 1.229 . S
O406 Zn400 1.969 . S
O406 C409 1.267 . S
O407 Zn400 1.965 . S
O407 C418 1.260 . S
O408 Zn401 1.969 1_554 S
O408 C418 1.258 . S
C409 O406 1.267 . S
C409 O410 1.228 . S
O410 C409 1.228 . S
O411 Zn400 2.024 . S
O411 C402 1.058 . S
C412 O413 1.228 . S
C412 O414 1.267 . S
O413 C412 1.228 . S
O414 Zn401 1.969 . S
O414 C412 1.267 . S
O415 Zn401 1.965 . S
O415 C419 1.260 . S
O416 Zn400 1.969 1_556 S
O416 C419 1.258 . S
O417 Zn401 2.024 . S
O417 C404 1.058 . S
C418 O407 1.260 . S
C418 O408 1.258 . S
C419 O415 1.260 . S
C419 O416 1.258 . S
Zn420 O426 1.969 . S
Zn420 O427 1.965 . S
Zn420 O431 2.024 . S
Zn420 O436 1.969 1_556 S
Zn421 O428 1.969 1_554 S
Zn421 O434 1.969 . S
Zn421 O435 1.965 . S
Zn421 O437 2.024 . S
C422 O423 1.229 . S
C422 O431 1.058 . S
O423 C422 1.229 . S
C424 O425 1.229 . S
C424 O437 1.058 . S
O425 C424 1.229 . S
O426 Zn420 1.969 . S
O426 C429 1.267 . S
O427 Zn420 1.965 . S
O427 C438 1.260 . S
O428 Zn421 1.969 1_556 S
O428 C438 1.258 . S
C429 O426 1.267 . S
C429 O430 1.228 . S
O430 C429 1.228 . S
O431 Zn420 2.024 . S
O431 C422 1.058 . S
C432 O433 1.228 . S
C432 O434 1.267 . S
O433 C432 1.228 . S
O434 Zn421 1.969 . S
O434 C432 1.267 . S
O435 Zn421 1.965 . S
O435 C439 1.260 . S
O436 Zn420 1.969 1_554 S
O436 C439 1.258 . S
O437 Zn421 2.024 . S
O437 C424 1.058 . S
C438 O427 1.260 . S
C438 O428 1.258 . S
C439 O435 1.260 . S
C439 O436 1.258 . S
Zn440 O446 1.969 . S
Zn440 O447 1.965 . S
Zn440 O451 2.024 . S
Zn440 O456 1.969 . S
Zn441 O448 1.969 . S
Zn441 O454 1.969 . S
Zn441 O455 1.965 . S
Zn441 O457 2.024 . S
C442 O443 1.229 . S
C442 O451 1.058 . S
O443 C442 1.229 . S
C444 O445 1.229 . S
C444 O457 1.058 . S
O445 C444 1.229 . S
O446 Zn440 1.969 . S
O446 C449 1.267 . S
O447 Zn440 1.965 . S
O447 C458 1.260 . S
O448 Zn441 1.969 . S
O448 C458 1.258 . S
C449 O446 1.267 . S
C449 O450 1.228 . S
O450 C449 1.228 . S
O451 Zn440 2.024 . S
O451 C442 1.058 . S
C452 O453 1.228 . S
C452 O454 1.267 . S
O453 C452 1.228 . S
O454 Zn441 1.969 . S
O454 C452 1.267 . S
O455 Zn441 1.965 . S
O455 C459 1.260 . S
O456 Zn440 1.969 . S
O456 C459 1.258 . S
O457 Zn441 2.024 . S
O457 C444 1.058 . S
C458 O447 1.260 . S
C458 O448 1.258 . S
C459 O455 1.260 . S
C459 O456 1.258 . S
Zn460 O466 1.969 . S
Zn460 O467 1.965 . S
Zn460 O471 2.024 . S
Zn460 O476 1.969 . S
Zn461 O468 1.969 . S
Zn461 O474 1.969 . S
Zn461 O475 1.965 . S
Zn461 O477 2.024 . S
C462 O463 1.229 . S
C462 O471 1.058 . S
O463 C462 1.229 . S
C464 O465 1.229 . S
C464 O477 1.058 . S
O465 C464 1.229 . S
O466 Zn460 1.969 . S
O466 C469 1.267 . S
O467 Zn460 1.965 . S
O467 C478 1.260 . S
O468 Zn461 1.969 . S
O468 C478 1.258 . S
C469 O466 1.267 . S
C469 O470 1.228 . S
O470 C469 1.228 . S
O471 Zn460 2.024 . S
O471 C462 1.058 . S
C472 O473 1.228 . S
C472 O474 1.267 . S
O473 C472 1.228 . S
O474 Zn461 1.969 . S
O474 C472 1.267 . S
O475 Zn461 1.965 . S
O475 C479 1.260 . S
O476 Zn460 1.969 . S
O476 C479 1.258 . S
O477 Zn461 2.024 . S
O477 C464 1.058 . S
C478 O467 1.260 . S
C478 O468 1.258 . S
C479 O475 1.260 . S
C479 O476 1.258 . S
C18 C362 1.573 . S
C382 C38 1.574 . S
C58 C322 1.574 . S
C78 C342 1.574 . S
C442 C98 1.573 . S
C118 C422 1.574 . S
C462 C138 1.574 . S
C158 C402 1.574 . S
C178 C262 1.573 . S
C198 C302 1.574 . S
C282 C218 1.574 . S
C238 C242 1.574 . S
C259 C124 1.573 . S
C279 C144 1.574 . S
C299 C84 1.574 . S
C104 C319 1.574 . S
C339 C204 1.573 . S
C184 C359 1.574 . S
C224 C379 1.574 . S
C164 C399 1.574 . S
C24 C419 1.573 . S
C64 C439 1.574 . S
C44 C459 1.574 . S
C479 C4 1.574 . S
C82 C9 1.346 . S
C102 C29 1.346 . S
C122 C49 1.346 . S
C142 C69 1.346 . S
C89 C162 1.346 . S
C109 C222 1.346 . S
C129 C182 1.346 . S
C149 C202 1.346 . S
C169 C2 1.346 . S
C189 C42 1.346 . S
C209 C62 1.346 . S
C22 C229 1.346 . S
C324 C252 1.346 . S
C344 C272 1.346 . S
C292 C364 1.346 . S
C312 C384 1.346 . S
C404 C332 1.346 . S
C352 C464 1.346 . S
C424 C372 1.346 . S
C392 C444 1.346 . S
C244 C412 1.346 . S
C432 C284 1.346 . S
C452 C304 1.346 . S
C264 C472 1.346 . S
C19 C192 1.660 . S
C212 C39 1.660 . S
C172 C59 1.660 . S
C232 C79 1.659 . S
C99 C72 1.660 . S
C52 C119 1.659 . S
C139 C32 1.660 . S
C12 C159 1.660 . S
C179 C112 1.660 . S
C199 C152 1.659 . S
C219 C132 1.660 . S
C239 C92 1.660 . S
C258 C429 1.660 . S
C278 C449 1.660 . S
C409 C298 1.660 . S
C469 C318 1.659 . S
C338 C309 1.660 . S
C358 C289 1.659 . S
C269 C378 1.660 . S
C398 C249 1.660 . S
C418 C349 1.660 . S
C389 C438 1.659 . S
C458 C369 1.660 . S
C478 C329 1.660 . S
