# Generated by pormake.
# Topology wge, (5)-cn, num edge types: 1
# Building blocks:
#     Node 0, Type 0, BuildingBlock: XOMCOT_clean_sbu_0, # of connection points: 5
#     Node 1, Type 0, BuildingBlock: XOMCOT_clean_sbu_0, # of connection points: 5
#     Node 2, Type 0, BuildingBlock: XOMCOT_clean_sbu_0, # of connection points: 5
#     Node 3, Type 0, BuildingBlock: XOMCOT_clean_sbu_0, # of connection points: 5
#     Node 4, Type 0, BuildingBlock: XOMCOT_clean_sbu_0, # of connection points: 5
#     Node 5, Type 0, BuildingBlock: XOMCOT_clean_sbu_0, # of connection points: 5
#     Node 6, Type 0, BuildingBlock: XOMCOT_clean_sbu_0, # of connection points: 5
#     Node 7, Type 0, BuildingBlock: XOMCOT_clean_sbu_0, # of connection points: 5
#     Node 8, Type 0, BuildingBlock: XOMCOT_clean_sbu_0, # of connection points: 5
#     Node 9, Type 0, BuildingBlock: XOMCOT_clean_sbu_0, # of connection points: 5
#     Node 10, Type 0, BuildingBlock: XOMCOT_clean_sbu_0, # of connection points: 5
#     Node 11, Type 0, BuildingBlock: XOMCOT_clean_sbu_0, # of connection points: 5
#     Node 12, Type 0, BuildingBlock: XOMCOT_clean_sbu_0, # of connection points: 5
#     Node 13, Type 0, BuildingBlock: XOMCOT_clean_sbu_0, # of connection points: 5
#     Node 14, Type 0, BuildingBlock: XOMCOT_clean_sbu_0, # of connection points: 5
#     Node 15, Type 0, BuildingBlock: XOMCOT_clean_sbu_0, # of connection points: 5
#     Node 16, Type 0, BuildingBlock: XOMCOT_clean_sbu_0, # of connection points: 5
#     Node 17, Type 0, BuildingBlock: XOMCOT_clean_sbu_0, # of connection points: 5
#     Node 18, Type 0, BuildingBlock: XOMCOT_clean_sbu_0, # of connection points: 5
#     Node 19, Type 0, BuildingBlock: XOMCOT_clean_sbu_0, # of connection points: 5
#     Node 20, Type 0, BuildingBlock: XOMCOT_clean_sbu_0, # of connection points: 5
#     Node 21, Type 0, BuildingBlock: XOMCOT_clean_sbu_0, # of connection points: 5
#     Node 22, Type 0, BuildingBlock: XOMCOT_clean_sbu_0, # of connection points: 5
#     Node 23, Type 0, BuildingBlock: XOMCOT_clean_sbu_0, # of connection points: 5
#     Node 24, Type 0, BuildingBlock: XOMCOT_clean_sbu_0, # of connection points: 5
#     Node 25, Type 0, BuildingBlock: XOMCOT_clean_sbu_0, # of connection points: 5
#     Node 26, Type 0, BuildingBlock: XOMCOT_clean_sbu_0, # of connection points: 5
#     Node 27, Type 0, BuildingBlock: XOMCOT_clean_sbu_0, # of connection points: 5
#     Node 28, Type 0, BuildingBlock: XOMCOT_clean_sbu_0, # of connection points: 5
#     Node 29, Type 0, BuildingBlock: XOMCOT_clean_sbu_0, # of connection points: 5
#     Node 30, Type 0, BuildingBlock: XOMCOT_clean_sbu_0, # of connection points: 5
#     Node 31, Type 0, BuildingBlock: XOMCOT_clean_sbu_0, # of connection points: 5
#     Edge 32, Type (0, 0), BuildingBlock: AJUNOK_clean_linker_0, # of connection points: 2
#     Edge 33, Type (0, 0), BuildingBlock: AJUNOK_clean_linker_0, # of connection points: 2
#     Edge 34, Type (0, 0), BuildingBlock: AJUNOK_clean_linker_0, # of connection points: 2
#     Edge 35, Type (0, 0), BuildingBlock: AJUNOK_clean_linker_0, # of connection points: 2
#     Edge 36, Type (0, 0), BuildingBlock: AJUNOK_clean_linker_0, # of connection points: 2
#     Edge 37, Type (0, 0), BuildingBlock: AJUNOK_clean_linker_0, # of connection points: 2
#     Edge 38, Type (0, 0), BuildingBlock: AJUNOK_clean_linker_0, # of connection points: 2
#     Edge 39, Type (0, 0), BuildingBlock: AJUNOK_clean_linker_0, # of connection points: 2
#     Edge 40, Type (0, 0), BuildingBlock: AJUNOK_clean_linker_0, # of connection points: 2
#     Edge 41, Type (0, 0), BuildingBlock: AJUNOK_clean_linker_0, # of connection points: 2
#     Edge 42, Type (0, 0), BuildingBlock: AJUNOK_clean_linker_0, # of connection points: 2
#     Edge 43, Type (0, 0), BuildingBlock: AJUNOK_clean_linker_0, # of connection points: 2
#     Edge 44, Type (0, 0), BuildingBlock: AJUNOK_clean_linker_0, # of connection points: 2
#     Edge 45, Type (0, 0), BuildingBlock: AJUNOK_clean_linker_0, # of connection points: 2
#     Edge 46, Type (0, 0), BuildingBlock: AJUNOK_clean_linker_0, # of connection points: 2
#     Edge 47, Type (0, 0), BuildingBlock: AJUNOK_clean_linker_0, # of connection points: 2
#     Edge 48, Type (0, 0), BuildingBlock: AJUNOK_clean_linker_0, # of connection points: 2
#     Edge 49, Type (0, 0), BuildingBlock: AJUNOK_clean_linker_0, # of connection points: 2
#     Edge 50, Type (0, 0), BuildingBlock: AJUNOK_clean_linker_0, # of connection points: 2
#     Edge 51, Type (0, 0), BuildingBlock: AJUNOK_clean_linker_0, # of connection points: 2
#     Edge 52, Type (0, 0), BuildingBlock: AJUNOK_clean_linker_0, # of connection points: 2
#     Edge 53, Type (0, 0), BuildingBlock: AJUNOK_clean_linker_0, # of connection points: 2
#     Edge 54, Type (0, 0), BuildingBlock: AJUNOK_clean_linker_0, # of connection points: 2
#     Edge 55, Type (0, 0), BuildingBlock: AJUNOK_clean_linker_0, # of connection points: 2
#     Edge 56, Type (0, 0), BuildingBlock: AJUNOK_clean_linker_0, # of connection points: 2
#     Edge 57, Type (0, 0), BuildingBlock: AJUNOK_clean_linker_0, # of connection points: 2
#     Edge 58, Type (0, 0), BuildingBlock: AJUNOK_clean_linker_0, # of connection points: 2
#     Edge 59, Type (0, 0), BuildingBlock: AJUNOK_clean_linker_0, # of connection points: 2
#     Edge 60, Type (0, 0), BuildingBlock: AJUNOK_clean_linker_0, # of connection points: 2
#     Edge 61, Type (0, 0), BuildingBlock: AJUNOK_clean_linker_0, # of connection points: 2
#     Edge 62, Type (0, 0), BuildingBlock: AJUNOK_clean_linker_0, # of connection points: 2
#     Edge 63, Type (0, 0), BuildingBlock: AJUNOK_clean_linker_0, # of connection points: 2
#     Edge 64, Type (0, 0), BuildingBlock: AJUNOK_clean_linker_0, # of connection points: 2
#     Edge 65, Type (0, 0), BuildingBlock: AJUNOK_clean_linker_0, # of connection points: 2
#     Edge 66, Type (0, 0), BuildingBlock: AJUNOK_clean_linker_0, # of connection points: 2
#     Edge 67, Type (0, 0), BuildingBlock: AJUNOK_clean_linker_0, # of connection points: 2
#     Edge 68, Type (0, 0), BuildingBlock: AJUNOK_clean_linker_0, # of connection points: 2
#     Edge 69, Type (0, 0), BuildingBlock: AJUNOK_clean_linker_0, # of connection points: 2
#     Edge 70, Type (0, 0), BuildingBlock: AJUNOK_clean_linker_0, # of connection points: 2
#     Edge 71, Type (0, 0), BuildingBlock: AJUNOK_clean_linker_0, # of connection points: 2
#     Edge 72, Type (0, 0), BuildingBlock: AJUNOK_clean_linker_0, # of connection points: 2
#     Edge 73, Type (0, 0), BuildingBlock: AJUNOK_clean_linker_0, # of connection points: 2
#     Edge 74, Type (0, 0), BuildingBlock: AJUNOK_clean_linker_0, # of connection points: 2
#     Edge 75, Type (0, 0), BuildingBlock: AJUNOK_clean_linker_0, # of connection points: 2
#     Edge 76, Type (0, 0), BuildingBlock: AJUNOK_clean_linker_0, # of connection points: 2
#     Edge 77, Type (0, 0), BuildingBlock: AJUNOK_clean_linker_0, # of connection points: 2
#     Edge 78, Type (0, 0), BuildingBlock: AJUNOK_clean_linker_0, # of connection points: 2
#     Edge 79, Type (0, 0), BuildingBlock: AJUNOK_clean_linker_0, # of connection points: 2
#     Edge 80, Type (0, 0), BuildingBlock: AJUNOK_clean_linker_0, # of connection points: 2
#     Edge 81, Type (0, 0), BuildingBlock: AJUNOK_clean_linker_0, # of connection points: 2
#     Edge 82, Type (0, 0), BuildingBlock: AJUNOK_clean_linker_0, # of connection points: 2
#     Edge 83, Type (0, 0), BuildingBlock: AJUNOK_clean_linker_0, # of connection points: 2
#     Edge 84, Type (0, 0), BuildingBlock: AJUNOK_clean_linker_0, # of connection points: 2
#     Edge 85, Type (0, 0), BuildingBlock: AJUNOK_clean_linker_0, # of connection points: 2
#     Edge 86, Type (0, 0), BuildingBlock: AJUNOK_clean_linker_0, # of connection points: 2
#     Edge 87, Type (0, 0), BuildingBlock: AJUNOK_clean_linker_0, # of connection points: 2
#     Edge 88, Type (0, 0), BuildingBlock: AJUNOK_clean_linker_0, # of connection points: 2
#     Edge 89, Type (0, 0), BuildingBlock: AJUNOK_clean_linker_0, # of connection points: 2
#     Edge 90, Type (0, 0), BuildingBlock: AJUNOK_clean_linker_0, # of connection points: 2
#     Edge 91, Type (0, 0), BuildingBlock: AJUNOK_clean_linker_0, # of connection points: 2
#     Edge 92, Type (0, 0), BuildingBlock: AJUNOK_clean_linker_0, # of connection points: 2
#     Edge 93, Type (0, 0), BuildingBlock: AJUNOK_clean_linker_0, # of connection points: 2
#     Edge 94, Type (0, 0), BuildingBlock: AJUNOK_clean_linker_0, # of connection points: 2
#     Edge 95, Type (0, 0), BuildingBlock: AJUNOK_clean_linker_0, # of connection points: 2
#     Edge 96, Type (0, 0), BuildingBlock: AJUNOK_clean_linker_0, # of connection points: 2
#     Edge 97, Type (0, 0), BuildingBlock: AJUNOK_clean_linker_0, # of connection points: 2
#     Edge 98, Type (0, 0), BuildingBlock: AJUNOK_clean_linker_0, # of connection points: 2
#     Edge 99, Type (0, 0), BuildingBlock: AJUNOK_clean_linker_0, # of connection points: 2
#     Edge 100, Type (0, 0), BuildingBlock: AJUNOK_clean_linker_0, # of connection points: 2
#     Edge 101, Type (0, 0), BuildingBlock: AJUNOK_clean_linker_0, # of connection points: 2
#     Edge 102, Type (0, 0), BuildingBlock: AJUNOK_clean_linker_0, # of connection points: 2
#     Edge 103, Type (0, 0), BuildingBlock: AJUNOK_clean_linker_0, # of connection points: 2
#     Edge 104, Type (0, 0), BuildingBlock: AJUNOK_clean_linker_0, # of connection points: 2
#     Edge 105, Type (0, 0), BuildingBlock: AJUNOK_clean_linker_0, # of connection points: 2
#     Edge 106, Type (0, 0), BuildingBlock: AJUNOK_clean_linker_0, # of connection points: 2
#     Edge 107, Type (0, 0), BuildingBlock: AJUNOK_clean_linker_0, # of connection points: 2
#     Edge 108, Type (0, 0), BuildingBlock: AJUNOK_clean_linker_0, # of connection points: 2
#     Edge 109, Type (0, 0), BuildingBlock: AJUNOK_clean_linker_0, # of connection points: 2
#     Edge 110, Type (0, 0), BuildingBlock: AJUNOK_clean_linker_0, # of connection points: 2
#     Edge 111, Type (0, 0), BuildingBlock: AJUNOK_clean_linker_0, # of connection points: 2
# Relax obj value: 0.124
# Max RMSD: 0.143
# Mean RMSD: 0.143
data_MOF--net-wge--node1-XOMCOT_clean_sbu_0--edge1-AJUNOK_clean_linker_0
_symmetry_space_group_name_H-M    P1
_symmetry_Int_Tables_number       1
_symmetry_cell_setting            triclinic
loop_
_symmetry_equiv_pos_as_xyz
'x, y, z'
_cell_length_a     51.406448
_cell_length_b     51.390758
_cell_length_c     31.582871
_cell_angle_alpha  89.927878
_cell_angle_beta   89.999917
_cell_angle_gamma 89.909431
loop_
_atom_site_label
_atom_site_type_symbol
_atom_site_fract_x
_atom_site_fract_y
_atom_site_fract_z
_atom_type_partial_charge
Co0 Co 0.257 0.12978 0.0673 0.0
C1 C 0.28479 0.13751 0.1457 0.0
C2 C 0.30344 0.10833 0.1084 0.0
C3 C 0.31235 0.10639 0.14948 0.0
N4 N 0.28591 0.12783 0.10621 0.0
N5 N 0.29988 0.12433 0.17302 0.0
H6 H 0.26977 0.15056 0.15628 0.0
H7 H 0.30687 0.09428 0.08358 0.0
C8 C 0.30404 0.12449 1.00879 0.0
O9 O 0.31693 0.14122 0.03219 0.0
N10 N 0.22796 0.13173 0.02947 0.0
C11 C 0.20814 0.14883 0.03178 0.0
C12 C 0.19448 0.14794 0.99435 0.0
C13 C 0.22594 0.12037 0.99137 0.0
N14 N 0.20601 0.13033 0.96885 0.0
C15 C 0.25538 0.18388 0.09048 0.0
C16 C 0.2728 0.20479 0.01513 0.0
C17 C 0.26699 0.22177 0.04872 0.0
C18 C 0.25796 0.21082 0.08655 0.0
C19 C 0.27008 0.1777 0.02053 0.0
N20 N 0.2625 0.16737 0.0586 0.0
H21 H 0.24658 0.17653 0.11894 0.0
H22 H 0.27343 0.16527 0.99359 0.0
H23 H 0.20486 0.16215 0.05772 0.0
H24 H 0.23925 0.10571 0.97992 0.0
O25 O 0.23298 0.13076 0.11531 0.0
O26 O 0.2469 0.09478 0.08512 0.0
O27 O 0.28037 0.11915 0.0179 0.0
C28 C 0.23336 0.10545 0.11529 0.0
H29 H 0.32481 0.09126 0.16184 0.0
H30 H 0.17835 0.16039 0.98556 0.0
H31 H 0.27936 0.21233 0.98494 0.0
H32 H 0.25213 0.22311 0.11276 0.0
Co33 Co 0.17975 1.00228 0.31693 0.0
C34 C 0.17397 0.03158 0.3941 0.0
C35 C 0.20692 0.04462 0.35895 0.0
C36 C 0.2099 0.05209 0.40058 0.0
N37 N 0.18449 0.03124 0.35511 0.0
N38 N 0.18923 0.04347 0.42271 0.0
H39 H 0.15841 1.01891 0.40339 0.0
H40 H 0.22202 0.04517 0.33511 0.0
C41 C 0.18719 0.04913 0.25951 0.0
O42 O 0.17278 0.06266 0.2859 0.0
N43 N 0.17519 0.97297 0.28029 0.0
C44 C 0.15683 0.95441 0.28402 0.0
C45 C 0.15804 0.93854 0.24901 0.0
C46 C 0.18759 0.96805 0.24378 0.0
N47 N 0.17746 0.94715 0.22411 0.0
C48 C 0.12581 1.0031 0.3415 0.0
C49 C 0.10524 1.02184 0.26671 0.0
C50 C 0.08819 1.01593 0.3001 0.0
C51 C 0.09894 1.00638 0.33775 0.0
C52 C 0.13224 1.01846 0.27195 0.0
N53 N 0.14245 1.0101 0.30969 0.0
H54 H 0.13291 0.99357 0.36956 0.0
H55 H 0.1446 1.02166 0.24491 0.0
H56 H 0.14295 0.95305 0.30965 0.0
H57 H 0.20287 0.98014 0.23091 0.0
O58 O 0.17805 0.97891 0.36577 0.0
O59 O 0.2143 0.99001 0.33334 0.0
O60 O 0.19076 1.02477 0.26639 0.0
C61 C 0.2033 0.97774 0.36464 0.0
H62 H 0.22741 0.06 0.41436 0.0
H63 H 0.14536 0.92232 0.2419 0.0
H64 H 0.09781 1.02878 0.23666 0.0
H65 H 0.08653 1.00048 0.36377 0.0
Co66 Co 0.30597 0.92804 0.56872 0.0
C67 C 0.27848 0.92528 0.64846 0.0
C68 C 0.26496 0.9566 0.60989 0.0
C69 C 0.25985 0.96249 0.65154 0.0
N70 N 0.27766 0.93363 0.60803 0.0
N71 N 0.26943 0.94321 0.67583 0.0
H72 H 0.28876 0.90815 0.65832 0.0
H73 H 0.2639 0.97038 0.58403 0.0
C74 C 0.25845 0.93471 0.51225 0.0
O75 O 0.24521 0.92002 0.53862 0.0
N76 N 0.33427 0.92307 0.5302 0.0
C77 C 0.35313 0.90488 0.5325 0.0
C78 C 0.36657 0.90481 0.49474 0.0
C79 C 0.33662 0.93405 0.49187 0.0
N80 N 0.35576 0.92288 0.46923 0.0
C81 C 0.30451 0.87449 0.59472 0.0
C82 C 0.28805 0.85328 0.51903 0.0
C83 C 0.29458 0.83641 0.5524 0.0
C84 C 0.30271 0.8475 0.59064 0.0
C85 C 0.29018 0.88039 0.52443 0.0
N86 N 0.29773 0.89086 0.5624 0.0
H87 H 0.31304 0.88195 0.6233 0.0
H88 H 0.28716 0.89266 0.49716 0.0
H89 H 0.35598 0.89169 0.55882 0.0
H90 H 0.32413 0.94941 0.48031 0.0
O91 O 0.33049 0.92609 0.61605 0.0
O92 O 0.31915 0.96249 0.58409 0.0
O93 O 0.28263 0.93897 0.51929 0.0
C94 C 0.33223 0.95129 0.61436 0.0
H95 H 0.25352 0.98125 0.66318 0.0
H96 H 0.38208 0.89164 0.48587 0.0
H97 H 0.28264 0.8456 0.48836 0.0
H98 H 0.30847 0.83532 0.61705 0.0
Co99 Co 0.38373 0.05141 0.81912 0.0
C100 C 0.39306 1.02382 0.89755 0.0
C101 C 0.3651 1.00362 0.86001 0.0
C102 C 0.3637 0.99447 0.90105 0.0
N103 N 0.38349 1.02229 0.85798 0.0
N104 N 0.38104 1.00765 0.92467 0.0
H105 H 0.40487 0.03973 0.90835 0.0
H106 H 0.35123 0.99951 0.83519 0.0
C107 C 0.38025 1.00449 0.75931 0.0
O108 O 0.39822 0.99218 0.78112 0.0
N109 N 0.38387 0.08075 0.78144 0.0
C110 C 0.39549 0.10391 0.78778 0.0
C111 C 0.39186 0.1191 0.75229 0.0
C112 C 0.37359 0.08199 0.74245 0.0
N113 N 0.37794 0.10526 0.72403 0.0
C114 C 0.43767 0.05512 0.84071 0.0
C115 C 0.45845 0.04028 0.76383 0.0
C116 C 0.47543 0.0471 0.79682 0.0
C117 C 0.46458 0.05465 0.83552 0.0
C118 C 0.43137 0.04113 0.77037 0.0
N119 N 0.42122 0.04756 0.80908 0.0
H120 H 0.43026 0.06277 0.86995 0.0
H121 H 0.41876 0.03753 0.74375 0.0
H122 H 0.40627 0.10923 0.81587 0.0
H123 H 0.36408 0.06583 0.72716 0.0
O124 O 0.38459 0.07544 0.86698 0.0
O125 O 0.34865 0.06026 0.83834 0.0
O126 O 0.37348 1.02759 0.77005 0.0
C127 C 0.35936 0.07446 0.86764 0.0
H128 H 0.34906 0.98149 0.91358 0.0
H129 H 0.39905 0.13867 0.7475 0.0
H130 H 0.46598 0.03528 0.73286 0.0
H131 H 0.47686 0.06061 0.86164 0.0
Co132 Co 0.25242 0.93185 0.95472 0.0
C133 C 0.28171 0.93246 0.87547 0.0
C134 C 0.29266 0.96338 0.91693 0.0
C135 C 0.30057 0.96968 0.87661 0.0
N136 N 0.28041 0.94012 0.91617 0.0
N137 N 0.29382 0.95003 0.85099 0.0
H138 H 0.27028 0.91694 0.86222 0.0
H139 H 0.29217 0.97674 0.94336 0.0
C140 C 0.29989 0.9377 1.00935 0.0
O141 O 0.31195 0.92318 0.9813 0.0
N142 N 0.22435 0.92472 0.99285 0.0
C143 C 0.20578 0.90638 0.98896 0.0
C144 C 0.19229 0.90489 0.02667 0.0
C145 C 0.22188 0.93427 0.03215 0.0
N146 N 0.20285 0.92217 0.05373 0.0
C147 C 0.25861 0.87898 0.92529 0.0
C148 C 0.27206 0.85685 1.00199 0.0
C149 C 0.26911 0.84048 0.96676 0.0
C150 C 0.2622 0.85201 0.92812 0.0
C151 C 0.26854 0.8839 0.99768 0.0
N152 N 0.26257 0.89491 0.9593 0.0
H153 H 0.251 0.88663 0.89614 0.0
H154 H 0.26945 0.89574 0.02585 0.0
H155 H 0.20312 0.89412 0.9615 0.0
H156 H 0.23419 0.94932 0.04515 0.0
O157 O 0.2286 0.9296 0.90681 0.0
O158 O 0.2374 0.96586 0.94087 0.0
O159 O 0.27555 0.9424 1.00458 0.0
C160 C 0.22556 0.95467 0.90928 0.0
H161 H 0.30756 0.98847 0.86613 0.0
H162 H 0.17687 0.89137 0.03433 0.0
H163 H 0.27665 0.84878 0.0328 0.0
H164 H 0.25836 0.84013 0.90051 0.0
Co165 Co 0.38084 1.00272 0.20434 0.0
C166 C 0.38881 0.0309 0.12665 0.0
C167 C 0.35491 0.04438 0.1589 0.0
C168 C 0.35264 0.05055 0.1166 0.0
N169 N 0.3774 0.03135 0.165 0.0
N170 N 0.37385 0.04154 0.09629 0.0
H171 H 0.40486 1.01832 0.11923 0.0
H172 H 0.33927 0.04526 0.18177 0.0
C173 C 0.37314 0.05047 0.25881 0.0
O174 O 0.38795 0.0631 0.23185 0.0
N175 N 0.38413 0.97367 0.2419 0.0
C176 C 0.40139 0.95402 0.2383 0.0
C177 C 0.39953 0.93851 0.27367 0.0
C178 C 0.37174 0.9698 0.27878 0.0
N179 N 0.38082 0.94847 0.29873 0.0
C180 C 0.43499 1.00044 0.18214 0.0
C181 C 0.45564 1.02038 0.25592 0.0
C182 C 0.4727 1.01137 0.22444 0.0
C183 C 0.46191 1.00165 0.18706 0.0
C184 C 0.42851 1.01879 0.24971 0.0
N185 N 0.41832 1.00947 0.21257 0.0
H186 H 0.4278 0.99076 0.15436 0.0
H187 H 0.416 1.02391 0.27577 0.0
H188 H 0.41494 0.9516 0.21242 0.0
H189 H 0.35727 0.98289 0.2917 0.0
O190 O 0.38285 0.97911 0.15637 0.0
O191 O 0.34619 0.99095 0.18654 0.0
O192 O 0.36965 1.02596 0.25387 0.0
C193 C 0.35762 0.97845 0.15587 0.0
H194 H 0.33524 0.05774 0.10129 0.0
H195 H 0.4113 0.9216 0.28093 0.0
H196 H 0.46316 1.02748 0.28577 0.0
H197 H 0.47427 0.99424 0.16201 0.0
Co198 Co 0.30372 0.13139 0.45184 0.0
C199 C 0.277 0.13994 0.37275 0.0
C200 C 0.25886 0.10974 0.40853 0.0
C201 C 0.25197 0.10692 0.36669 0.0
N202 N 0.27508 0.13023 0.41224 0.0
N203 N 0.26435 0.12536 0.34411 0.0
H204 H 0.29145 0.15402 0.36359 0.0
H205 H 0.25569 0.09537 0.433 0.0
C206 C 0.25535 0.12599 0.50706 0.0
O207 O 0.243 0.14183 0.48127 0.0
N208 N 0.33277 0.13213 0.49061 0.0
C209 C 0.35847 0.13095 0.48179 0.0
C210 C 0.37206 0.12894 0.51925 0.0
C211 C 0.33123 0.13152 0.53307 0.0
N212 N 0.35477 0.12892 0.55126 0.0
C213 C 0.3073 0.1855 0.43005 0.0
C214 C 0.28583 0.20655 0.50244 0.0
C215 C 0.29288 0.22338 0.46931 0.0
C216 C 0.30424 0.21243 0.43323 0.0
C217 C 0.28906 0.17944 0.4978 0.0
N218 N 0.2987 0.16903 0.46105 0.0
H219 H 0.31711 0.17814 0.40248 0.0
H220 H 0.2841 0.16714 0.52422 0.0
H221 H 0.36693 0.13062 0.45049 0.0
H222 H 0.31323 0.13264 0.55053 0.0
O223 O 0.32759 0.13273 0.40399 0.0
O224 O 0.31373 0.09632 0.43249 0.0
O225 O 0.27946 0.1208 0.50059 0.0
C226 C 0.327 0.1075 0.40241 0.0
H227 H 0.24142 0.0907 0.35341 0.0
H228 H 0.39287 0.12636 0.5226 0.0
H229 H 0.27772 0.21422 0.53151 0.0
H230 H 0.31116 0.22468 0.40767 0.0
Co231 Co 0.1772 0.0562 0.70201 0.0
C232 C 0.17042 1.02768 0.62391 0.0
C233 C 0.20015 1.01036 0.66175 0.0
C234 C 0.20288 1.00174 0.62063 0.0
N235 N 0.1798 1.02693 0.66369 0.0
N236 N 0.18438 1.01316 0.59676 0.0
H237 H 0.15719 0.04242 0.61305 0.0
H238 H 0.21432 1.00774 0.6867 0.0
C239 C 0.18216 1.00978 0.76148 0.0
O240 O 0.16644 0.99692 0.73629 0.0
N241 N 0.17501 0.08562 0.73889 0.0
C242 C 0.15685 0.10454 0.73815 0.0
C243 C 0.15973 0.11953 0.77392 0.0
C244 C 0.18902 0.08959 0.77411 0.0
N245 N 0.17996 0.11001 0.79633 0.0
C246 C 0.12308 0.05583 0.67977 0.0
C247 C 0.10303 0.04252 0.75793 0.0
C248 C 0.08573 0.04798 0.72467 0.0
C249 C 0.09622 0.05457 0.68525 0.0
C250 C 0.13006 0.04405 0.75105 0.0
N251 N 0.13992 0.04991 0.71185 0.0
H252 H 0.13001 0.06324 0.65008 0.0
H253 H 0.14282 0.04178 0.77792 0.0
H254 H 0.14175 0.10642 0.7145 0.0
H255 H 0.20452 0.07688 0.78447 0.0
O256 O 0.17456 0.07955 0.65365 0.0
O257 O 0.21167 0.06751 0.68228 0.0
O258 O 0.1882 0.03338 0.75239 0.0
C259 C 0.19976 0.08018 0.65214 0.0
H260 H 0.21905 0.99065 0.60831 0.0
H261 H 0.1473 0.13546 0.78363 0.0
H262 H 0.09577 0.03829 0.78937 0.0
H263 H 0.08367 0.0595 0.65885 0.0
Co264 Co 0.80949 0.9316 0.95457 0.0
C265 C 0.78245 0.92061 0.87647 0.0
C266 C 0.76723 0.95462 0.90659 0.0
C267 C 0.76063 0.95543 0.8644 0.0
N268 N 0.78151 0.93302 0.91393 0.0
N269 N 0.77101 0.93439 0.84542 0.0
H270 H 0.79456 0.90393 0.87046 0.0
H271 H 0.76536 0.97065 0.92854 0.0
C272 C 0.76015 0.93799 1.00637 0.0
O273 O 0.74804 0.92309 0.97897 0.0
N274 N 0.83789 0.93042 0.99441 0.0
C275 C 0.86364 0.93215 0.98654 0.0
C276 C 0.87681 0.93155 0.02439 0.0
C277 C 0.83586 0.92823 0.03672 0.0
N278 N 0.85927 0.92898 0.05583 0.0
C279 C 0.81582 0.87757 0.93368 0.0
C280 C 0.78971 0.85592 1.00144 0.0
C281 C 0.79932 0.83934 0.96979 0.0
C282 C 0.81297 0.85057 0.93611 0.0
C283 C 0.79273 0.88308 0.99752 0.0
N284 N 0.8047 0.8938 0.96284 0.0
H285 H 0.82709 0.88526 0.90781 0.0
H286 H 0.78572 0.89513 0.02292 0.0
H287 H 0.87247 0.93444 0.95577 0.0
H288 H 0.81762 0.9265 0.05348 0.0
O289 O 0.83408 0.93105 0.90745 0.0
O290 O 0.81929 0.9669 0.937 0.0
O291 O 0.78466 0.94187 1.00242 0.0
C292 C 0.8334 0.95632 0.90745 0.0
H293 H 0.75227 0.97194 0.84799 0.0
H294 H 0.89753 0.93424 0.02838 0.0
H295 H 0.7797 0.84801 0.02873 0.0
H296 H 0.82166 0.8385 0.91181 0.0
Co297 Co 0.88066 0.05774 0.7018 0.0
C298 C 0.88792 1.02889 0.62432 0.0
C299 C 0.85803 1.01176 0.66195 0.0
C300 C 0.85516 1.00342 0.6207 0.0
N301 N 0.87843 1.0282 0.66402 0.0
N302 N 0.87358 1.01501 0.59695 0.0
H303 H 0.90168 0.04317 0.6136 0.0
H304 H 0.84389 1.00907 0.68693 0.0
C305 C 0.87714 1.01173 0.76135 0.0
O306 O 0.89369 0.99966 0.73647 0.0
N307 N 0.88281 0.08749 0.73808 0.0
C308 C 0.89892 0.10791 0.73273 0.0
C309 C 0.89836 0.12286 0.76881 0.0
C310 C 0.87245 0.09031 0.77684 0.0
N311 N 0.88184 0.11159 0.79634 0.0
C312 C 0.93491 0.05805 0.67961 0.0
C313 C 0.95493 0.0445 0.75773 0.0
C314 C 0.97224 0.0496 0.72441 0.0
C315 C 0.96179 0.05652 0.68506 0.0
C316 C 0.92794 0.04638 0.75091 0.0
N317 N 0.91806 0.05203 0.71161 0.0
H318 H 0.92793 0.06559 0.65 0.0
H319 H 0.91522 0.04437 0.77785 0.0
H320 H 0.91123 0.11095 0.70541 0.0
H321 H 0.85953 0.07638 0.79157 0.0
O322 O 0.88258 0.08071 0.65287 0.0
O323 O 0.8459 0.06838 0.68245 0.0
O324 O 0.87003 0.03499 0.75217 0.0
C325 C 0.85734 0.08094 0.65179 0.0
H326 H 0.8391 0.99219 0.60849 0.0
H327 H 0.90974 0.14017 0.77487 0.0
H328 H 0.96216 0.04019 0.78918 0.0
H329 H 0.97437 0.06135 0.65869 0.0
Co330 Co 0.75223 0.13127 0.45213 0.0
C331 C 0.78033 0.1373 0.37361 0.0
C332 C 0.79506 0.10524 0.40938 0.0
C333 C 0.80274 0.1024 0.36787 0.0
N334 N 0.78065 0.12709 0.41282 0.0
N335 N 0.79311 0.12249 0.34538 0.0
H336 H 0.76685 0.15216 0.36402 0.0
H337 H 0.79642 0.09038 0.43357 0.0
C338 C 0.80018 0.12529 0.50691 0.0
O339 O 0.81258 0.14011 0.47969 0.0
N340 N 0.72354 0.13515 0.49008 0.0
C341 C 0.704 0.15255 0.48664 0.0
C342 C 0.68951 0.15178 0.52325 0.0
C343 C 0.72059 0.12375 0.528 0.0
N344 N 0.70013 0.13374 0.54897 0.0
C345 C 0.75179 0.18514 0.42671 0.0
C346 C 0.77105 0.20643 0.5005 0.0
C347 C 0.76527 0.22311 0.46652 0.0
C348 C 0.75516 0.21205 0.42958 0.0
C349 C 0.76768 0.17936 0.49608 0.0
N350 N 0.7592 0.16879 0.45872 0.0
H351 H 0.74208 0.17775 0.39908 0.0
H352 H 0.77114 0.1672 0.52334 0.0
H353 H 0.70119 0.16563 0.46018 0.0
H354 H 0.73387 0.10946 0.54101 0.0
O355 O 0.72813 0.13233 0.40434 0.0
O356 O 0.74055 0.09638 0.43644 0.0
O357 O 0.77582 0.12103 0.50176 0.0
C358 C 0.72754 0.10706 0.4056 0.0
H359 H 0.81163 0.08525 0.35438 0.0
H360 H 0.67295 0.16394 0.53089 0.0
H361 H 0.77803 0.21423 0.53024 0.0
H362 H 0.74907 0.22424 0.40336 0.0
Co363 Co 0.67816 1.00491 0.2002 0.0
C364 C 0.66811 0.03432 0.12441 0.0
C365 C 0.69983 0.05052 0.15905 0.0
C366 C 0.70187 0.05819 0.11738 0.0
N367 N 0.67892 0.03491 0.16323 0.0
N368 N 0.68228 0.04723 0.09541 0.0
H369 H 0.65363 1.02025 0.11556 0.0
H370 H 0.71501 0.05244 0.18254 0.0
C371 C 0.68347 0.05121 0.25954 0.0
O372 O 0.66745 0.06416 0.23484 0.0
N373 N 0.67761 0.97442 0.23588 0.0
C374 C 0.67564 0.94928 0.2237 0.0
C375 C 0.67643 0.93365 0.25905 0.0
C376 C 0.67898 0.97373 0.27839 0.0
N377 N 0.67849 0.94917 0.2931 0.0
C378 C 0.62384 1.00044 0.1802 0.0
C379 C 0.60343 1.01881 0.25533 0.0
C380 C 0.58626 1.01048 0.22361 0.0
C381 C 0.5969 1.00127 0.18571 0.0
C382 C 0.6305 1.01745 0.24863 0.0
N383 N 0.64055 1.00917 0.21072 0.0
H384 H 0.63105 0.99182 0.15148 0.0
H385 H 0.64307 1.02217 0.27476 0.0
H386 H 0.67384 0.94247 0.19149 0.0
H387 H 0.68068 0.99066 0.29844 0.0
O388 O 0.67676 0.98283 0.15019 0.0
O389 O 0.71316 0.99573 0.17989 0.0
O390 O 0.68889 1.02742 0.25083 0.0
C391 C 0.70198 0.98328 0.14895 0.0
H392 H 0.71849 0.06776 0.10333 0.0
H393 H 0.67555 0.91261 0.25978 0.0
H394 H 0.59603 1.02537 0.2856 0.0
H395 H 0.58442 0.99432 0.16051 0.0
Co396 Co 0.80894 0.13229 0.0662 0.0
C397 C 0.77968 0.1386 0.14362 0.0
C398 C 0.76389 0.10795 0.10606 0.0
C399 C 0.75481 0.10532 0.14689 0.0
N400 N 0.77973 0.12882 0.10417 0.0
N401 N 0.76516 0.12449 0.17054 0.0
H402 H 0.79384 0.15241 0.15452 0.0
H403 H 0.76213 0.09345 0.08142 0.0
C404 C 0.76225 0.12679 1.00781 0.0
O405 O 0.74929 0.14253 0.03291 0.0
N406 N 0.83833 0.13546 0.02936 0.0
C407 C 0.85734 0.15342 0.03169 0.0
C408 C 0.87168 0.15243 0.99488 0.0
C409 C 0.84155 0.1235 0.99204 0.0
N410 N 0.86153 0.13368 0.97004 0.0
C411 C 0.80868 0.18635 0.09033 0.0
C412 C 0.79222 0.2071 0.01423 0.0
C413 C 0.79748 0.22416 0.0479 0.0
C414 C 0.80595 0.21329 0.08619 0.0
C415 C 0.79516 0.18006 0.01979 0.0
N416 N 0.80232 0.16978 0.05813 0.0
H417 H 0.81719 0.17909 0.11911 0.0
H418 H 0.79247 0.16764 0.99266 0.0
H419 H 0.85952 0.16738 0.05702 0.0
H420 H 0.82884 0.10845 0.98034 0.0
O421 O 0.83238 0.13362 0.1149 0.0
O422 O 0.82006 0.09748 0.08344 0.0
O423 O 0.78618 0.12172 0.0159 0.0
C424 C 0.83285 0.10833 0.11428 0.0
H425 H 0.74431 0.0888 0.15931 0.0
H426 H 0.88703 0.16571 0.98589 0.0
H427 H 0.78602 0.21452 0.98376 0.0
H428 H 0.81133 0.22562 0.11255 0.0
Co429 Co 0.68084 0.05627 0.81787 0.0
C430 C 0.67205 1.02752 0.89522 0.0
C431 C 0.70356 1.01101 0.86032 0.0
C432 C 0.70492 1.00223 0.90157 0.0
N433 N 0.68299 1.02719 0.85656 0.0
N434 N 0.6852 1.01306 0.92353 0.0
H435 H 0.65806 0.0419 0.90479 0.0
H436 H 0.71862 1.00877 0.83668 0.0
C437 C 0.68414 1.00909 0.76101 0.0
O438 O 0.66827 0.99733 0.78738 0.0
N439 N 0.67877 0.08563 0.78069 0.0
C440 C 0.66294 0.10632 0.78555 0.0
C441 C 0.66385 0.12105 0.74923 0.0
C442 C 0.68929 0.08805 0.74201 0.0
N443 N 0.6804 0.10946 0.72199 0.0
C444 C 0.6267 0.05906 0.84076 0.0
C445 C 0.60601 0.04227 0.76489 0.0
C446 C 0.58897 0.049 0.79779 0.0
C447 C 0.59974 0.05764 0.83597 0.0
C448 C 0.63303 0.04406 0.77102 0.0
N449 N 0.64324 0.05123 0.80936 0.0
H450 H 0.63403 0.06777 0.86928 0.0
H451 H 0.64548 0.04073 0.74412 0.0
H452 H 0.65048 0.10963 0.8126 0.0
H453 H 0.70244 0.07399 0.72814 0.0
O454 O 0.68012 0.07994 0.86614 0.0
O455 O 0.71594 0.0662 0.8351 0.0
O456 O 0.69053 0.03279 0.76805 0.0
C457 C 0.7054 0.07969 0.86548 0.0
H458 H 0.72091 0.99149 0.91541 0.0
H459 H 0.65197 0.13796 0.74244 0.0
H460 H 0.59855 0.03669 0.73415 0.0
H461 H 0.58739 0.06377 0.8619 0.0
Co462 Co 0.75044 0.93089 0.56371 0.0
C463 C 0.77955 0.92043 0.64047 0.0
C464 C 0.79495 0.95329 0.60738 0.0
C465 C 0.80399 0.95379 0.6484 0.0
N466 N 0.77935 0.9324 0.60255 0.0
N467 N 0.79391 0.93328 0.66905 0.0
H468 H 0.76592 0.90557 0.64962 0.0
H469 H 0.79641 0.96913 0.58492 0.0
C470 C 0.79837 0.93713 0.50916 0.0
O471 O 0.81015 0.92054 0.5344 0.0
N472 N 0.72103 0.92958 0.52591 0.0
C473 C 0.69577 0.92577 0.53608 0.0
C474 C 0.68123 0.92572 0.49952 0.0
C475 C 0.72153 0.93133 0.48345 0.0
N476 N 0.6976 0.92892 0.46675 0.0
C477 C 0.7479 0.87645 0.58402 0.0
C478 C 0.76835 0.85673 0.50988 0.0
C479 C 0.76179 0.83931 0.54248 0.0
C480 C 0.75111 0.84961 0.57961 0.0
C481 C 0.76502 0.8837 0.5158 0.0
N482 N 0.75602 0.89346 0.55345 0.0
H483 H 0.73827 0.88332 0.6121 0.0
H484 H 0.76929 0.89646 0.48962 0.0
H485 H 0.6882 0.92314 0.5677 0.0
H486 H 0.73887 0.93463 0.46487 0.0
O487 O 0.72713 0.92875 0.61215 0.0
O488 O 0.73991 0.96555 0.58339 0.0
O489 O 0.77419 0.94228 0.51495 0.0
C490 C 0.72677 0.954 0.61321 0.0
H491 H 0.8137 0.96997 0.66353 0.0
H492 H 0.66036 0.92341 0.49706 0.0
H493 H 0.77611 0.84962 0.48019 0.0
H494 H 0.74473 0.83691 0.60496 0.0
Co495 Co 0.88253 1.00635 0.32026 0.0
C496 C 0.8898 0.03534 0.3973 0.0
C497 C 0.86005 0.05258 0.35937 0.0
C498 C 0.85695 0.06078 0.40061 0.0
N499 N 0.88049 0.03612 0.35747 0.0
N500 N 0.87514 0.04898 0.4246 0.0
H501 H 0.90363 1.02104 0.40799 0.0
H502 H 0.846 0.05522 0.33427 0.0
C503 C 0.8778 0.05251 0.26012 0.0
O504 O 0.89396 0.06538 0.28457 0.0
N505 N 0.88455 0.97616 0.28482 0.0
C506 C 0.89774 0.95406 0.29316 0.0
C507 C 0.89533 0.93762 0.25903 0.0
C508 C 0.87436 0.973 0.24609 0.0
N509 N 0.88077 0.94974 0.22943 0.0
C510 C 0.93667 1.00495 0.34327 0.0
C511 C 0.95726 1.02109 0.26692 0.0
C512 C 0.97435 1.01587 0.3006 0.0
C513 C 0.96359 1.00743 0.33895 0.0
C514 C 0.93024 1.01838 0.27267 0.0
N515 N 0.92006 1.01155 0.3112 0.0
H516 H 0.92944 0.99669 0.37224 0.0
H517 H 0.91775 1.02117 0.24562 0.0
H518 H 0.90867 0.95029 0.32179 0.0
H519 H 0.86313 0.98765 0.22978 0.0
O520 O 0.8836 0.98372 0.3698 0.0
O521 O 0.84747 0.9964 0.33872 0.0
O522 O 0.87218 1.02883 0.26924 0.0
C523 C 0.85834 0.98379 0.36984 0.0
H524 H 0.84083 0.07198 0.4127 0.0
H525 H 0.90362 0.91833 0.25635 0.0
H526 H 0.96463 1.02719 0.23638 0.0
H527 H 0.97598 1.00204 0.36529 0.0
Co528 Co 0.75459 0.6338 0.5649 0.0
C529 C 0.78298 0.64078 0.64285 0.0
C530 C 0.79879 0.60944 0.60671 0.0
C531 C 0.8063 0.60642 0.64829 0.0
N532 N 0.78364 0.63083 0.60345 0.0
N533 N 0.79555 0.62578 0.67105 0.0
H534 H 0.76939 0.65552 0.65266 0.0
H535 H 0.80079 0.59483 0.58231 0.0
C536 C 0.80169 0.62773 0.50777 0.0
O537 O 0.81465 0.64284 0.5338 0.0
N538 N 0.7253 0.63649 0.52774 0.0
C539 C 0.70628 0.65451 0.52945 0.0
C540 C 0.69118 0.65225 0.49367 0.0
C541 C 0.72136 0.62319 0.49177 0.0
N542 N 0.70075 0.63253 0.47024 0.0
C543 C 0.75408 0.68804 0.58742 0.0
C544 C 0.77113 0.70821 0.5113 0.0
C545 C 0.7652 0.72553 0.54433 0.0
C546 C 0.75645 0.71495 0.58262 0.0
C547 C 0.76854 0.68119 0.5175 0.0
N548 N 0.76104 0.67122 0.55588 0.0
H549 H 0.74532 0.68103 0.61613 0.0
H550 H 0.77174 0.66855 0.49078 0.0
H551 H 0.70427 0.66905 0.55397 0.0
H552 H 0.73409 0.60794 0.4805 0.0
O553 O 0.73118 0.63575 0.61328 0.0
O554 O 0.74333 0.59908 0.58345 0.0
O555 O 0.77759 0.62294 0.51496 0.0
C556 C 0.73072 0.61048 0.61405 0.0
H557 H 0.81601 0.58961 0.66147 0.0
H558 H 0.67501 0.66463 0.48481 0.0
H559 H 0.77755 0.71543 0.48083 0.0
H560 H 0.75054 0.72747 0.60848 0.0
Co561 Co 0.68175 0.50457 0.81381 0.0
C562 C 0.6744 0.5333 0.89133 0.0
C563 C 0.70736 0.5473 0.85711 0.0
C564 C 0.70956 0.55505 0.89867 0.0
N565 N 0.68542 0.53321 0.85274 0.0
N566 N 0.68891 0.54586 0.92021 0.0
H567 H 0.65907 0.52022 0.90023 0.0
H568 H 0.72267 0.54831 0.83368 0.0
C569 C 0.68722 0.55261 0.75894 0.0
O570 O 0.67247 0.56491 0.78639 0.0
N571 N 0.67832 0.47562 0.77613 0.0
C572 C 0.6621 0.45528 0.78103 0.0
C573 C 0.66239 0.4408 0.74444 0.0
C574 C 0.68844 0.47324 0.73714 0.0
N575 N 0.67895 0.45219 0.71698 0.0
C576 C 0.62798 0.50175 0.83872 0.0
C577 C 0.60571 0.52133 0.76581 0.0
C578 C 0.58929 0.51243 0.79828 0.0
C579 C 0.60092 0.50286 0.8352 0.0
C580 C 0.63297 0.51985 0.77062 0.0
N581 N 0.64398 0.51078 0.80737 0.0
H582 H 0.63583 0.49226 0.86628 0.0
H583 H 0.64492 0.52491 0.74383 0.0
H584 H 0.64991 0.45197 0.80841 0.0
H585 H 0.70186 0.48702 0.72324 0.0
O586 O 0.6811 0.48081 0.86206 0.0
O587 O 0.71692 0.49315 0.82994 0.0
O588 O 0.69155 0.5282 0.76389 0.0
C589 C 0.70633 0.48026 0.86101 0.0
H590 H 0.72665 0.56354 0.91293 0.0
H591 H 0.65023 0.42414 0.73774 0.0
H592 H 0.59758 0.52829 0.73625 0.0
H593 H 0.58914 0.49557 0.86105 0.0
Co594 Co 0.80932 0.42999 0.06633 0.0
C595 C 0.77972 0.4232 0.1431 0.0
C596 C 0.76474 0.45455 0.10594 0.0
C597 C 0.75723 0.45818 0.14733 0.0
N598 N 0.77951 0.43286 0.10342 0.0
N599 N 0.76759 0.4389 0.17081 0.0
H600 H 0.79283 0.40808 0.15331 0.0
H601 H 0.76321 0.46906 0.08124 0.0
C602 C 0.763 0.43673 1.0072 0.0
O603 O 0.74959 0.42182 0.033 0.0
N604 N 0.83959 0.42758 0.0303 0.0
C605 C 0.86497 0.42889 0.04127 0.0
C606 C 0.87987 0.42832 1.00505 0.0
C607 C 0.83953 0.42567 0.98786 0.0
N608 N 0.86372 0.42612 0.97172 0.0
C609 C 0.81019 0.3758 0.08875 0.0
C610 C 0.79159 0.35529 0.01397 0.0
C611 C 0.79782 0.33816 0.04716 0.0
C612 C 0.80733 0.34889 0.08477 0.0
C613 C 0.79455 0.38233 0.01941 0.0
N614 N 0.80304 0.39251 0.05707 0.0
H615 H 0.81896 0.3829 0.11739 0.0
H616 H 0.7905 0.39473 0.99272 0.0
H617 H 0.8724 0.43089 0.07308 0.0
H618 H 0.82217 0.42504 0.96881 0.0
O619 O 0.83147 0.42766 0.11622 0.0
O620 O 0.82033 0.46462 0.08631 0.0
O621 O 0.78708 0.4413 0.01521 0.0
C622 C 0.83202 0.45287 0.11762 0.0
H623 H 0.74786 0.47537 0.15983 0.0
H624 H 0.90081 0.43014 1.00319 0.0
H625 H 0.78448 0.3479 0.98404 0.0
H626 H 0.81324 0.33646 0.1108 0.0
Co627 Co 0.88324 0.5562 0.31865 0.0
C628 C 0.89204 0.52878 0.39728 0.0
C629 C 0.8605 0.51205 0.3628 0.0
C630 C 0.85873 0.50425 0.40443 0.0
N631 N 0.88133 0.52774 0.35844 0.0
N632 N 0.87836 0.51529 0.42616 0.0
H633 H 0.90623 0.54311 0.40622 0.0
H634 H 0.84543 0.50979 0.33921 0.0
C635 C 0.87728 0.50789 0.26368 0.0
O636 O 0.89269 0.49523 0.28976 0.0
N637 N 0.88482 0.585 0.28016 0.0
C638 C 0.89623 0.6083 0.28608 0.0
C639 C 0.89237 0.6232 0.25027 0.0
C640 C 0.87448 0.58587 0.24127 0.0
N641 N 0.87847 0.60901 0.2224 0.0
C642 C 0.9375 0.55893 0.34052 0.0
C643 C 0.95776 0.53885 0.26647 0.0
C644 C 0.97499 0.54573 0.29909 0.0
C645 C 0.96441 0.55612 0.33627 0.0
C646 C 0.93075 0.5418 0.27221 0.0
N647 N 0.92075 0.5507 0.30973 0.0
H648 H 0.93034 0.56856 0.36842 0.0
H649 H 0.91815 0.53751 0.24587 0.0
H650 H 0.90672 0.61401 0.31426 0.0
H651 H 0.86494 0.56958 0.22655 0.0
O652 O 0.88428 0.58041 0.36626 0.0
O653 O 0.84824 0.56668 0.3362 0.0
O654 O 0.87273 0.53211 0.2699 0.0
C655 C 0.85899 0.58039 0.36605 0.0
H656 H 0.84239 0.49428 0.41862 0.0
H657 H 0.89921 0.64286 0.24514 0.0
H658 H 0.96505 0.53123 0.23679 0.0
H659 H 0.97694 0.56271 0.36166 0.0
Co660 Co 0.75296 0.42882 0.44959 0.0
C661 C 0.78168 0.42365 0.3713 0.0
C662 C 0.7994 0.45209 0.41106 0.0
C663 C 0.80884 0.45509 0.37049 0.0
N664 N 0.78221 0.43228 0.41149 0.0
N665 N 0.79698 0.4376 0.34531 0.0
H666 H 0.76704 0.41063 0.35945 0.0
H667 H 0.80237 0.46558 0.43684 0.0
C668 C 0.79932 0.43388 0.50939 0.0
O669 O 0.81241 0.41797 0.48472 0.0
N670 N 0.72345 0.42546 0.48617 0.0
C671 C 0.70439 0.40759 0.48293 0.0
C672 C 0.6893 0.40875 0.51887 0.0
C673 C 0.7195 0.43759 0.52321 0.0
N674 N 0.69904 0.4275 0.54405 0.0
C675 C 0.75391 0.37506 0.42422 0.0
C676 C 0.76963 0.35361 0.50022 0.0
C677 C 0.76553 0.33696 0.4656 0.0
C678 C 0.75709 0.34814 0.42754 0.0
C679 C 0.76629 0.38068 0.49546 0.0
N680 N 0.75959 0.39131 0.45715 0.0
H681 H 0.74569 0.38255 0.39539 0.0
H682 H 0.7684 0.39285 0.52304 0.0
H683 H 0.70241 0.39385 0.45723 0.0
H684 H 0.73209 0.45249 0.53574 0.0
O685 O 0.72946 0.42771 0.40088 0.0
O686 O 0.74194 0.46372 0.43259 0.0
O687 O 0.77556 0.43923 0.50041 0.0
C688 C 0.72906 0.45299 0.40173 0.0
H689 H 0.82146 0.47048 0.35982 0.0
H690 H 0.67302 0.39626 0.52656 0.0
H691 H 0.77527 0.34579 0.53073 0.0
H692 H 0.75214 0.33605 0.40065 0.0
Co693 Co 0.88 0.50288 0.70327 0.0
C694 C 0.89091 0.53241 0.62758 0.0
C695 C 0.85931 0.54922 0.66198 0.0
C696 C 0.85854 0.55831 0.62095 0.0
N697 N 0.87951 0.53262 0.66591 0.0
N698 N 0.87814 0.54718 0.59918 0.0
H699 H 0.90487 0.51789 0.61823 0.0
H700 H 0.84392 0.55138 0.68506 0.0
C701 C 0.87483 0.54974 0.762 0.0
O702 O 0.89152 0.56239 0.73813 0.0
N703 N 0.88036 0.47269 0.73964 0.0
C704 C 0.88499 0.44776 0.72827 0.0
C705 C 0.88419 0.43231 0.76385 0.0
C706 C 0.8773 0.47211 0.78196 0.0
N707 N 0.87941 0.44776 0.79729 0.0
C708 C 0.93416 0.49747 0.68247 0.0
C709 C 0.9554 0.51646 0.75648 0.0
C710 C 0.97231 0.50781 0.72447 0.0
C711 C 0.96118 0.49834 0.6871 0.0
C712 C 0.92821 0.5152 0.75056 0.0
N713 N 0.91776 0.50663 0.71315 0.0
H714 H 0.92662 0.48866 0.65415 0.0
H715 H 0.91584 0.52038 0.77676 0.0
H716 H 0.88906 0.44109 0.69653 0.0
H717 H 0.87364 0.48899 0.80147 0.0
O718 O 0.8807 0.48025 0.65349 0.0
O719 O 0.84483 0.49418 0.68373 0.0
O720 O 0.86949 0.52594 0.75342 0.0
C721 C 0.85545 0.481 0.65308 0.0
H722 H 0.84277 0.56922 0.60683 0.0
H723 H 0.88742 0.4115 0.76524 0.0
H724 H 0.96309 0.52334 0.78636 0.0
H725 H 0.9733 0.49136 0.66146 0.0
Co726 Co 0.80316 0.63298 0.95007 0.0
C727 C 0.77666 0.64225 0.87078 0.0
C728 C 0.75617 0.61422 0.90784 0.0
C729 C 0.74777 0.61244 0.86656 0.0
N730 N 0.77452 0.63288 0.91044 0.0
N731 N 0.76153 0.62944 0.84307 0.0
H732 H 0.79232 0.65474 0.86075 0.0
H733 H 0.7518 0.60045 0.9327 0.0
C734 C 0.75479 0.62927 1.00657 0.0
O735 O 0.7426 0.64573 0.98162 0.0
N736 N 0.8322 0.63284 0.98878 0.0
C737 C 0.85791 0.63242 0.97984 0.0
C738 C 0.87161 0.63049 0.0172 0.0
C739 C 0.83073 0.63186 0.03122 0.0
N740 N 0.85435 0.62981 0.04923 0.0
C741 C 0.80888 0.68681 0.92769 0.0
C742 C 0.78853 0.70888 1.00014 0.0
C743 C 0.79636 0.7254 0.96703 0.0
C744 C 0.8072 0.71387 0.93093 0.0
C745 C 0.79056 0.68166 0.99557 0.0
N746 N 0.79966 0.6708 0.95882 0.0
H747 H 0.81818 0.67891 0.90003 0.0
H748 H 0.78515 0.66961 0.02206 0.0
H749 H 0.86635 0.63285 0.94852 0.0
H750 H 0.81279 0.63267 0.04885 0.0
O751 O 0.82737 0.63285 0.9022 0.0
O752 O 0.81155 0.5975 0.93175 0.0
O753 O 0.77862 0.62338 0.99907 0.0
C754 C 0.82582 0.60762 0.90195 0.0
H755 H 0.73466 0.59792 0.85419 0.0
H756 H 0.8925 0.62873 0.02048 0.0
H757 H 0.78077 0.7169 0.02922 0.0
H758 H 0.81481 0.72573 0.90541 0.0
Co759 Co 0.67703 0.5567 0.19974 0.0
C760 C 0.67003 0.52905 0.12085 0.0
C761 C 0.69985 0.51133 0.15809 0.0
C762 C 0.7023 0.50287 0.11689 0.0
N763 N 0.67962 0.52802 0.16045 0.0
N764 N 0.68376 0.51453 0.09342 0.0
H765 H 0.65678 0.54392 0.1104 0.0
H766 H 0.71414 0.50853 0.1828 0.0
C767 C 0.68306 0.50946 0.25748 0.0
O768 O 0.66625 0.49698 0.23368 0.0
N769 N 0.6747 0.58546 0.23807 0.0
C770 C 0.65725 0.60502 0.23663 0.0
C771 C 0.65855 0.61859 0.27413 0.0
C772 C 0.68662 0.58752 0.27573 0.0
N773 N 0.67675 0.60723 0.29877 0.0
C774 C 0.62279 0.55685 0.17793 0.0
C775 C 0.6028 0.54166 0.25522 0.0
C776 C 0.58548 0.54828 0.22257 0.0
C777 C 0.5959 0.55576 0.18356 0.0
C778 C 0.62987 0.54323 0.24832 0.0
N779 N 0.63971 0.55009 0.20952 0.0
H780 H 0.62973 0.56477 0.14857 0.0
H781 H 0.64269 0.54011 0.27489 0.0
H782 H 0.6435 0.6082 0.21121 0.0
H783 H 0.70166 0.57441 0.28655 0.0
O784 O 0.6742 0.58078 0.15221 0.0
O785 O 0.71138 0.56851 0.18015 0.0
O786 O 0.68874 0.53316 0.24865 0.0
C787 C 0.6994 0.58153 0.15053 0.0
H788 H 0.71839 0.49177 0.10422 0.0
H789 H 0.64608 0.63455 0.28356 0.0
H790 H 0.59552 0.53652 0.28629 0.0
H791 H 0.58326 0.56157 0.15776 0.0
Co792 Co 0.30601 0.42893 0.45356 0.0
C793 C 0.27744 0.42307 0.37601 0.0
C794 C 0.26426 0.45626 0.41041 0.0
C795 C 0.25788 0.45947 0.36832 0.0
N796 N 0.27717 0.43358 0.41504 0.0
N797 N 0.2667 0.4387 0.34661 0.0
H798 H 0.29002 0.40722 0.36758 0.0
H799 H 0.26367 0.47138 0.43417 0.0
C800 C 0.25905 0.43692 0.5112 0.0
O801 O 0.24509 0.42328 0.4844 0.0
N802 N 0.3353 0.42425 0.49018 0.0
C803 C 0.35398 0.40596 0.48614 0.0
C804 C 0.36995 0.40708 0.52103 0.0
C805 C 0.34027 0.43655 0.52673 0.0
N806 N 0.36129 0.42638 0.54611 0.0
C807 C 0.30635 0.37503 0.4287 0.0
C808 C 0.28552 0.35397 0.5016 0.0
C809 C 0.29202 0.33717 0.46819 0.0
C810 C 0.30292 0.34814 0.43171 0.0
C811 C 0.28909 0.38102 0.49712 0.0
N812 N 0.29844 0.39149 0.46019 0.0
H813 H 0.31656 0.38233 0.40143 0.0
H814 H 0.28514 0.3932 0.5241 0.0
H815 H 0.35541 0.39225 0.46032 0.0
H816 H 0.3282 0.45181 0.53977 0.0
O817 O 0.32947 0.42781 0.40474 0.0
O818 O 0.31807 0.46369 0.43782 0.0
O819 O 0.28351 0.43973 0.5044 0.0
C820 C 0.33042 0.45308 0.40629 0.0
H821 H 0.2507 0.47719 0.35409 0.0
H822 H 0.38629 0.39446 0.52791 0.0
H823 H 0.27789 0.34628 0.53101 0.0
H824 H 0.30961 0.3359 0.406 0.0
Co825 Co 0.37955 0.55831 0.20431 0.0
C826 C 0.3887 0.52962 0.12742 0.0
C827 C 0.35448 0.5166 0.1594 0.0
C828 C 0.35224 0.5105 0.11722 0.0
N829 N 0.37698 0.52953 0.1655 0.0
N830 N 0.37342 0.51957 0.09699 0.0
H831 H 0.40625 0.54025 0.12087 0.0
H832 H 0.33877 0.51585 0.18216 0.0
C833 C 0.37259 0.51024 0.25981 0.0
O834 O 0.38683 0.49704 0.23275 0.0
N835 N 0.38178 0.58742 0.24259 0.0
C836 C 0.37948 0.61305 0.23394 0.0
C837 C 0.3807 0.6267 0.27127 0.0
C838 C 0.38496 0.58597 0.28477 0.0
N839 N 0.38424 0.6096 0.30317 0.0
C840 C 0.4336 0.56304 0.18285 0.0
C841 C 0.45502 0.53995 0.25372 0.0
C842 C 0.47181 0.55053 0.22319 0.0
C843 C 0.46062 0.56188 0.18722 0.0
C844 C 0.42786 0.54152 0.24812 0.0
N845 N 0.41726 0.55255 0.21248 0.0
H846 H 0.426 0.57304 0.15555 0.0
H847 H 0.41574 0.5347 0.27354 0.0
H848 H 0.37622 0.62147 0.20306 0.0
H849 H 0.38718 0.56792 0.30197 0.0
O850 O 0.38077 0.58203 0.15592 0.0
O851 O 0.34449 0.56926 0.18622 0.0
O852 O 0.36885 0.53467 0.25373 0.0
C853 C 0.35552 0.58249 0.15597 0.0
H854 H 0.33474 0.50364 0.10182 0.0
H855 H 0.37758 0.64741 0.27467 0.0
H856 H 0.46278 0.53138 0.28241 0.0
H857 H 0.47271 0.57018 0.16258 0.0
Co858 Co 0.25419 0.63454 0.95248 0.0
C859 C 0.28153 0.63869 0.87248 0.0
C860 C 0.30171 0.61276 0.91385 0.0
C861 C 0.31125 0.60955 0.87333 0.0
N862 N 0.28295 0.63119 0.91324 0.0
N863 N 0.29791 0.62548 0.84731 0.0
H864 H 0.26585 0.65021 0.8598 0.0
H865 H 0.30604 0.60026 0.94049 0.0
C866 C 0.30057 0.63092 0.01225 0.0
O867 O 0.31256 0.64803 0.9883 0.0
N868 N 0.22537 0.63758 0.99055 0.0
C869 C 0.20576 0.65492 0.98801 0.0
C870 C 0.19129 0.65337 0.0246 0.0
C871 C 0.22253 0.62554 0.028 0.0
N872 N 0.20196 0.63492 0.04961 0.0
C873 C 0.25698 0.6882 0.92663 0.0
C874 C 0.26982 0.70984 1.00375 0.0
C875 C 0.26742 0.72637 0.96843 0.0
C876 C 0.26044 0.71508 0.92977 0.0
C877 C 0.2663 0.68275 0.99913 0.0
N878 N 0.26104 0.67201 0.96036 0.0
H879 H 0.24988 0.68073 0.89712 0.0
H880 H 0.26726 0.6706 0.027 0.0
H881 H 0.20307 0.66868 0.96244 0.0
H882 H 0.23575 0.61085 0.03991 0.0
O883 O 0.22999 0.63658 0.90502 0.0
O884 O 0.24241 0.59987 0.93451 0.0
O885 O 0.2775 0.62373 1.00226 0.0
C886 C 0.22904 0.61133 0.90475 0.0
H887 H 0.32516 0.59507 0.86328 0.0
H888 H 0.17523 0.66594 0.03317 0.0
H889 H 0.27432 0.71775 0.03465 0.0
H890 H 0.25684 0.72707 0.90214 0.0
Co891 Co 0.17857 0.5073 0.70374 0.0
C892 C 0.17146 0.53343 0.62332 0.0
C893 C 0.19811 0.55448 0.66208 0.0
C894 C 0.20069 0.56294 0.62082 0.0
N895 N 0.17976 0.53576 0.66358 0.0
N896 N 0.18443 0.54896 0.59642 0.0
H897 H 0.15966 0.51753 0.6123 0.0
H898 H 0.21112 0.55926 0.68779 0.0
C899 C 0.1813 0.55502 0.76123 0.0
O900 O 0.16403 0.56642 0.73675 0.0
N901 N 0.17739 0.47865 0.74248 0.0
C902 C 0.16131 0.45805 0.73992 0.0
C903 C 0.16266 0.44441 0.77734 0.0
C904 C 0.18856 0.4772 0.78084 0.0
N905 N 0.17952 0.45673 0.80313 0.0
C906 C 0.12457 0.50442 0.68015 0.0
C907 C 0.10296 0.51879 0.75671 0.0
C908 C 0.08627 0.5115 0.72359 0.0
C909 C 0.09754 0.50445 0.68493 0.0
C910 C 0.13016 0.5183 0.75067 0.0
N911 N 0.14078 0.51185 0.71224 0.0
H912 H 0.1323 0.49697 0.65099 0.0
H913 H 0.14251 0.52203 0.77759 0.0
H914 H 0.14842 0.45408 0.71365 0.0
H915 H 0.20253 0.49115 0.7925 0.0
O916 O 0.17816 0.48258 0.65665 0.0
O917 O 0.21386 0.49769 0.68587 0.0
O918 O 0.18836 0.53164 0.7528 0.0
C919 C 0.20343 0.48347 0.6563 0.0
H920 H 0.21514 0.57637 0.60914 0.0
H921 H 0.15112 0.42759 0.78581 0.0
H922 H 0.09513 0.52373 0.7875 0.0
H923 H 0.08549 0.49833 0.65862 0.0
Co924 Co 0.3076 0.6306 0.5683 0.0
C925 C 0.27847 0.63583 0.64561 0.0
C926 C 0.26514 0.6036 0.6091 0.0
C927 C 0.25857 0.59943 0.65079 0.0
N928 N 0.2784 0.62617 0.60604 0.0
N929 N 0.26775 0.61944 0.67378 0.0
H930 H 0.29069 0.65169 0.65534 0.0
H931 H 0.26428 0.58908 0.58441 0.0
C932 C 0.26072 0.62428 0.5116 0.0
O933 O 0.24817 0.63941 0.53818 0.0
N934 N 0.33718 0.63463 0.53212 0.0
C935 C 0.35846 0.64915 0.53982 0.0
C936 C 0.37478 0.64752 0.50538 0.0
C937 C 0.34068 0.62439 0.49351 0.0
N938 N 0.36339 0.63208 0.4763 0.0
C939 C 0.30743 0.68443 0.59261 0.0
C940 C 0.29013 0.70557 0.51731 0.0
C941 C 0.29658 0.72245 0.55064 0.0
C942 C 0.30527 0.71138 0.58859 0.0
C943 C 0.2926 0.67844 0.52269 0.0
N944 N 0.30035 0.66799 0.56062 0.0
H945 H 0.31616 0.67709 0.62115 0.0
H946 H 0.28936 0.66614 0.49558 0.0
H947 H 0.36178 0.66032 0.5683 0.0
H948 H 0.32663 0.61208 0.4778 0.0
O949 O 0.33043 0.63256 0.61731 0.0
O950 O 0.31987 0.59594 0.586 0.0
O951 O 0.28502 0.61981 0.51762 0.0
C952 C 0.33178 0.60736 0.61729 0.0
H953 H 0.25062 0.58164 0.66359 0.0
H954 H 0.39353 0.65685 0.5022 0.0
H955 H 0.28432 0.71326 0.4868 0.0
H956 H 0.311 0.72354 0.61498 0.0
Co957 Co 0.18053 0.55672 0.31693 0.0
C958 C 0.17417 0.52844 0.3951 0.0
C959 C 0.20588 0.51331 0.35906 0.0
C960 C 0.20923 0.50631 0.40083 0.0
N961 N 0.18408 0.52778 0.35562 0.0
N962 N 0.18963 0.51664 0.42354 0.0
H963 H 0.15896 0.54157 0.40463 0.0
H964 H 0.22048 0.51164 0.33458 0.0
C965 C 0.18748 0.50963 0.25948 0.0
O966 O 0.1724 0.49647 0.28536 0.0
N967 N 0.17699 0.58602 0.27981 0.0
C968 C 0.15962 0.60553 0.28391 0.0
C969 C 0.16026 0.6205 0.24777 0.0
C970 C 0.18824 0.58948 0.24187 0.0
N971 N 0.17815 0.61018 0.22148 0.0
C972 C 0.12647 0.55682 0.34021 0.0
C973 C 0.10602 0.53848 0.2652 0.0
C974 C 0.08887 0.54453 0.29844 0.0
C975 C 0.09959 0.55395 0.33613 0.0
C976 C 0.13306 0.54156 0.2707 0.0
N977 N 0.14318 0.54968 0.30859 0.0
H978 H 0.13353 0.56603 0.36848 0.0
H979 H 0.14555 0.53819 0.24385 0.0
H980 H 0.14661 0.60803 0.31051 0.0
H981 H 0.20257 0.57651 0.22851 0.0
O982 O 0.17843 0.58008 0.36535 0.0
O983 O 0.21515 0.56861 0.33507 0.0
O984 O 0.19177 0.53382 0.26683 0.0
C985 C 0.20367 0.58092 0.36591 0.0
H986 H 0.22629 0.49718 0.41406 0.0
H987 H 0.14816 0.63724 0.24092 0.0
H988 H 0.09868 0.53157 0.23513 0.0
H989 H 0.08717 0.55999 0.36206 0.0
Co990 Co 0.25729 0.42793 0.06792 0.0
C991 C 0.28561 0.42112 0.146 0.0
C992 C 0.30271 0.45124 0.10876 0.0
C993 C 0.31101 0.45389 0.15009 0.0
N994 N 0.28645 0.43071 0.10635 0.0
N995 N 0.29976 0.43511 0.17359 0.0
H996 H 0.27098 0.40765 0.15632 0.0
H997 H 0.30525 0.46554 0.08396 0.0
C998 C 0.30397 0.43262 1.00858 0.0
O999 O 0.31713 0.41733 0.03421 0.0
N1000 N 0.22786 0.42534 0.03109 0.0
C1001 C 0.20894 0.40725 0.03273 0.0
C1002 C 0.19359 0.40987 0.99728 0.0
C1003 C 0.22357 0.43904 0.9956 0.0
N1004 N 0.20287 0.42989 0.97425 0.0
C1005 C 0.25653 0.37377 0.09211 0.0
C1006 C 0.27303 0.35288 0.01622 0.0
C1007 C 0.26749 0.33586 0.04987 0.0
C1008 C 0.259 0.34679 0.08806 0.0
C1009 C 0.27039 0.37994 0.02171 0.0
N1010 N 0.26324 0.3903 0.05997 0.0
H1011 H 0.24792 0.38109 0.12073 0.0
H1012 H 0.27328 0.39231 0.99454 0.0
H1013 H 0.20716 0.39247 0.05695 0.0
H1014 H 0.2361 0.45445 0.9845 0.0
O1015 O 0.23367 0.42711 0.1165 0.0
O1016 O 0.24672 0.46298 0.08502 0.0
O1017 O 0.28016 0.438 0.01719 0.0
C1018 C 0.23357 0.45242 0.11577 0.0
H1019 H 0.32178 0.47017 0.16271 0.0
H1020 H 0.17747 0.39751 0.98832 0.0
H1021 H 0.27922 0.3454 0.98581 0.0
H1022 H 0.25339 0.33448 0.11439 0.0
Co1023 Co 0.38327 0.50156 0.81513 0.0
C1024 C 0.38826 0.53022 0.89396 0.0
C1025 C 0.35598 0.54361 0.85717 0.0
C1026 C 0.35272 0.55195 0.89819 0.0
N1027 N 0.37821 0.52967 0.85463 0.0
N1028 N 0.37309 0.54347 0.92097 0.0
H1029 H 0.4036 0.51756 0.90474 0.0
H1030 H 0.3412 0.5441 0.83285 0.0
C1031 C 0.3769 0.5499 0.76125 0.0
O1032 O 0.39168 0.5622 0.78861 0.0
N1033 N 0.38786 0.4733 0.77644 0.0
C1034 C 0.40487 0.45343 0.77995 0.0
C1035 C 0.40508 0.4399 0.74231 0.0
C1036 C 0.37781 0.47158 0.73735 0.0
N1037 N 0.38835 0.45169 0.7156 0.0
C1038 C 0.43693 0.50133 0.84109 0.0
C1039 C 0.4586 0.51975 0.76687 0.0
C1040 C 0.47528 0.51194 0.79972 0.0
C1041 C 0.46398 0.50292 0.83729 0.0
C1042 C 0.43143 0.51769 0.77189 0.0
N1043 N 0.42072 0.50914 0.80916 0.0
H1044 H 0.42927 0.49233 0.86919 0.0
H1045 H 0.41929 0.52178 0.74485 0.0
H1046 H 0.41711 0.4498 0.80719 0.0
H1047 H 0.36347 0.4849 0.72472 0.0
O1048 O 0.3845 0.47714 0.86261 0.0
O1049 O 0.34853 0.48903 0.83019 0.0
O1050 O 0.37287 0.52546 0.76595 0.0
C1051 C 0.35927 0.47598 0.86095 0.0
H1052 H 0.33511 0.56009 0.91152 0.0
H1053 H 0.41738 0.42348 0.73448 0.0
H1054 H 0.46649 0.5262 0.73686 0.0
H1055 H 0.47604 0.49638 0.86336 0.0
C1056 C 0.19235 0.08857 0.21253 0.0
C1057 C 0.1988 0.06242 0.22145 0.0
C1058 C 0.20324 0.10202 0.17793 0.0
C1059 C 0.22102 0.08999 0.15022 0.0
H1060 H 0.17882 0.09899 0.23261 0.0
H1061 H 0.19768 0.12214 0.17303 0.0
S1062 S 0.24562 1.0222 0.15998 0.0
N1063 N 0.22504 1.0253 0.19982 0.0
N1064 N 0.24523 0.05041 0.13489 0.0
C1065 C 0.22773 0.06386 0.15861 0.0
C1066 C 0.21673 0.05016 0.19408 0.0
C1067 C 0.2072 0.94684 0.42626 0.0
C1068 C 0.21852 0.96597 0.40022 0.0
C1069 C 0.22032 0.93678 0.46188 0.0
C1070 C 0.24531 0.94559 0.47354 0.0
H1071 H 0.18791 0.93959 0.41916 0.0
H1072 H 0.21063 0.92201 0.48055 0.0
S1073 S 0.28253 0.99748 0.41819 0.0
N1074 N 0.25573 0.99437 0.38986 0.0
N1075 N 0.28011 0.976 0.45692 0.0
C1076 C 0.2567 0.96506 0.44802 0.0
C1077 C 0.24342 0.97509 0.41143 0.0
C1078 C 0.3689 0.95762 0.6665 0.0
C1079 C 0.34531 0.96634 0.64877 0.0
C1080 C 0.38018 0.97018 0.70174 0.0
C1081 C 0.36813 0.99176 0.72131 0.0
H1082 H 0.37862 0.94079 0.65324 0.0
H1083 H 0.39841 0.96272 0.71394 0.0
S1084 S 0.30421 1.01979 0.69057 0.0
N1085 N 0.30953 0.99687 0.65504 0.0
N1086 N 0.32989 1.01967 0.72193 0.0
C1087 C 0.34423 1.00028 0.70426 0.0
C1088 C 0.33307 0.98781 0.66791 0.0
C1089 C 0.35453 0.10923 0.92308 0.0
C1090 C 0.34412 0.08753 0.90185 0.0
C1091 C 0.34132 0.12115 0.95699 0.0
C1092 C 0.31716 0.11178 0.97164 0.0
H1093 H 0.37314 0.11712 0.91342 0.0
H1094 H 0.35028 0.13783 0.97196 0.0
S1095 S 0.28267 0.05379 0.92939 0.0
N1096 N 0.30879 0.05631 0.89927 0.0
N1097 N 0.28418 0.07822 0.9632 0.0
C1098 C 0.30668 0.08981 0.95092 0.0
C1099 C 0.32007 0.07784 0.91607 0.0
C1100 C 0.20114 0.95617 0.84013 0.0
C1101 C 0.21253 0.96964 0.8743 0.0
C1102 C 0.1913 0.96932 0.80438 0.0
C1103 C 0.19243 0.99666 0.80071 0.0
H1104 H 0.2003 0.93512 0.84043 0.0
H1105 H 0.18318 0.95778 0.77895 0.0
S1106 S 0.21864 0.04152 0.88239 0.0
N1107 N 0.22324 1.01226 0.90277 0.0
N1108 N 0.2047 0.03682 0.83596 0.0
C1109 C 0.2032 1.01046 0.83508 0.0
C1110 C 0.21317 0.99705 0.87169 0.0
C1111 C 0.30177 0.95742 0.0829 0.0
C1112 C 0.3147 0.94827 0.04644 0.0
C1113 C 0.31564 0.96661 0.11848 0.0
C1114 C 0.34307 0.96726 0.11901 0.0
H1115 H 0.28074 0.95741 0.08406 0.0
H1116 H 0.30473 0.97343 0.14564 0.0
S1117 S 0.38625 0.9489 0.02936 0.0
N1118 N 0.35665 0.94268 0.01199 0.0
N1119 N 0.38248 0.95992 0.078 0.0
C1120 C 0.35618 0.95894 0.08217 0.0
C1121 C 0.3421 0.94951 0.04618 0.0
C1122 C 0.34128 0.06556 0.36642 0.0
C1123 C 0.33883 0.09292 0.36595 0.0
C1124 C 0.35211 0.05185 0.33177 0.0
C1125 C 0.36093 0.06491 0.29511 0.0
H1126 H 0.33493 0.05463 0.39386 0.0
H1127 H 0.35384 0.03088 0.33396 0.0
S1128 S 0.35593 0.13608 0.27555 0.0
N1129 N 0.34431 0.1322 0.32381 0.0
N1130 N 0.36427 0.10671 0.25944 0.0
C1131 C 0.35778 0.09215 0.29382 0.0
C1132 C 0.34687 0.10604 0.32893 0.0
C1133 C 0.24056 0.09769 0.6171 0.0
C1134 C 0.21372 0.09229 0.61532 0.0
C1135 C 0.25391 0.1085 0.58211 0.0
C1136 C 0.24107 0.11423 0.54379 0.0
H1137 H 0.2513 0.09378 0.6459 0.0
H1138 H 0.27432 0.11291 0.58533 0.0
S1139 S 0.17128 0.10202 0.52121 0.0
N1140 N 0.17508 0.09252 0.57075 0.0
N1141 N 0.20009 0.11249 0.5057 0.0
C1142 C 0.21432 0.10861 0.54143 0.0
C1143 C 0.20072 0.09771 0.57691 0.0
C1144 C 0.84512 1.00789 0.82214 0.0
C1145 C 0.86731 0.9985 0.80064 0.0
C1146 C 0.83484 0.99481 0.85775 0.0
C1147 C 0.84629 0.97178 0.87334 0.0
H1148 H 0.83518 1.02514 0.81079 0.0
H1149 H 0.81725 1.00229 0.87222 0.0
S1150 S 0.90645 0.94076 0.83244 0.0
N1151 N 0.90166 0.96582 0.80061 0.0
N1152 N 0.88227 0.94144 0.86681 0.0
C1153 C 0.86902 0.96281 0.85333 0.0
C1154 C 0.87953 0.97609 0.81724 0.0
C1155 C 0.80182 0.10619 0.58112 0.0
C1156 C 0.81471 0.11363 0.54355 0.0
C1157 C 0.8156 0.09584 0.61609 0.0
C1158 C 0.84284 0.09247 0.615 0.0
H1159 H 0.78096 0.10867 0.58377 0.0
H1160 H 0.8048 0.09057 0.64426 0.0
S1161 S 0.88537 0.10583 0.52225 0.0
N1162 N 0.8561 0.11476 0.50644 0.0
N1163 N 0.88175 0.09556 0.5714 0.0
C1164 C 0.85577 0.09914 0.57711 0.0
C1165 C 0.84181 0.10963 0.54168 0.0
C1166 C 0.69857 0.10393 0.34159 0.0
C1167 C 0.71534 0.0916 0.37064 0.0
C1168 C 0.68831 0.09063 0.30643 0.0
C1169 C 0.69447 0.06434 0.29815 0.0
H1170 H 0.69342 0.12421 0.3458 0.0
H1171 H 0.6756 0.10131 0.28527 0.0
S1172 S 0.73825 1.02311 0.36382 0.0
N1173 N 0.73796 0.05145 0.38841 0.0
N1174 N 0.719 1.02659 0.32233 0.0
C1175 C 0.71128 0.05172 0.327 0.0
C1176 C 0.72158 0.06526 0.36313 0.0
C1177 C 0.75799 0.9583 0.07949 0.0
C1178 C 0.74526 0.94982 0.04239 0.0
C1179 C 0.74401 0.969 0.11386 0.0
C1180 C 0.71672 0.97172 0.11258 0.0
H1181 H 0.7789 0.95641 0.08226 0.0
H1182 H 0.75469 0.97505 0.1417 0.0
S1183 S 0.67437 0.95524 0.02104 0.0
N1184 N 0.70384 0.94679 1.00558 0.0
N1185 N 0.67781 0.96669 0.06949 0.0
C1186 C 0.70389 0.96395 0.0752 0.0
C1187 C 0.71807 0.95308 0.04037 0.0
C1188 C 0.86341 0.1047 0.17638 0.0
C1189 C 0.84501 0.09298 0.14948 0.0
C1190 C 0.87398 0.09137 0.21139 0.0
C1191 C 0.86647 0.06571 0.22169 0.0
H1192 H 0.86969 0.12449 0.17045 0.0
H1193 H 0.88807 0.1015 0.23078 0.0
S1194 S 0.81761 1.02662 0.16272 0.0
N1195 N 0.81912 0.0543 0.13626 0.0
N1196 N 0.83845 1.02951 0.2022 0.0
C1197 C 0.84785 0.05382 0.19516 0.0
C1198 C 0.8373 0.06734 0.15913 0.0
C1199 C 0.70899 0.11015 0.9275 0.0
C1200 C 0.72097 0.09235 0.89978 0.0
C1201 C 0.72257 0.12129 0.96165 0.0
C1202 C 0.7488 0.11501 0.97013 0.0
H1203 H 0.68879 0.1155 0.92298 0.0
H1204 H 0.71219 0.1348 0.98183 0.0
S1205 S 0.78904 0.06854 0.90791 0.0
N1206 N 0.76065 0.06861 0.8835 0.0
N1207 N 0.78599 0.08906 0.94779 0.0
C1208 C 0.76102 0.09711 0.94264 0.0
C1209 C 0.7472 0.08594 0.90754 0.0
C1210 C 0.7097 1.00789 0.6923 0.0
C1211 C 0.69383 0.99511 0.7223 0.0
C1212 C 0.71952 0.99484 0.65636 0.0
C1213 C 0.71395 0.96841 0.64878 0.0
H1214 H 0.71488 1.02812 0.69677 0.0
H1215 H 0.73212 1.00542 0.63495 0.0
S1216 S 0.67272 0.926 0.71642 0.0
N1217 N 0.67263 0.95433 0.74091 0.0
N1218 N 0.69077 0.93017 0.67378 0.0
C1219 C 0.69764 0.95557 0.67794 0.0
C1220 C 0.68773 0.96877 0.71452 0.0
C1221 C 0.80135 0.95798 0.43641 0.0
C1222 C 0.81348 0.94977 0.4742 0.0
C1223 C 0.81586 0.96887 0.40274 0.0
C1224 C 0.84307 0.97206 0.40552 0.0
H1225 H 0.78057 0.95557 0.43246 0.0
H1226 H 0.80566 0.97463 0.37421 0.0
S1227 S 0.88359 0.95706 0.49997 0.0
N1228 N 0.85401 0.94791 0.51366 0.0
N1229 N 0.88103 0.9682 0.45113 0.0
C1230 C 0.8552 0.96478 0.44379 0.0
C1231 C 0.8405 0.9537 0.47786 0.0
C1232 C 0.70613 0.55457 0.68458 0.0
C1233 C 0.69852 0.56732 0.72217 0.0
C1234 C 0.71622 0.56853 0.64961 0.0
C1235 C 0.71915 0.59583 0.65069 0.0
H1236 H 0.70404 0.53367 0.68194 0.0
H1237 H 0.72171 0.55781 0.62148 0.0
S1238 S 0.70517 0.63811 0.74344 0.0
N1239 N 0.69674 0.6087 0.75925 0.0
N1240 N 0.71542 0.63466 0.69428 0.0
C1241 C 0.71227 0.60864 0.68856 0.0
C1242 C 0.70205 0.59449 0.724 0.0
C1243 C 0.70879 0.46105 0.93418 0.0
C1244 C 0.72169 0.46841 0.89663 0.0
C1245 C 0.72236 0.45104 0.96931 0.0
C1246 C 0.74963 0.448 0.969 0.0
H1247 H 0.6879 0.46332 0.93685 0.0
H1248 H 0.71129 0.4459 0.99727 0.0
S1249 S 0.79281 0.46282 0.87784 0.0
N1250 N 0.76349 0.47095 0.86087 0.0
N1251 N 0.78895 0.45249 0.92695 0.0
C1252 C 0.76285 0.45521 0.93165 0.0
C1253 C 0.74894 0.46527 0.89557 0.0
C1254 C 0.85793 0.50732 0.18961 0.0
C1255 C 0.86533 0.49393 0.2268 0.0
C1256 C 0.8473 0.4941 0.15438 0.0
C1257 C 0.84357 0.46691 0.15483 0.0
H1258 H 0.8607 0.52815 0.18739 0.0
H1259 H 0.84213 0.50527 0.12652 0.0
S1260 S 0.85647 0.42324 0.24652 0.0
N1261 N 0.86592 0.45219 0.26292 0.0
N1262 N 0.84615 0.42753 0.19754 0.0
C1263 C 0.85012 0.45349 0.19239 0.0
C1264 C 0.86093 0.46691 0.22805 0.0
C1265 C 0.84285 0.61444 0.47032 0.0
C1266 C 0.81547 0.61606 0.47044 0.0
C1267 C 0.85657 0.6033 0.43629 0.0
C1268 C 0.84363 0.59329 0.4005 0.0
H1269 H 0.85391 0.6215 0.49712 0.0
H1270 H 0.87757 0.60223 0.43845 0.0
S1271 S 0.7721 0.59405 0.38355 0.0
N1272 N 0.77598 0.60753 0.43053 0.0
N1273 N 0.80162 0.58653 0.36683 0.0
C1274 C 0.81625 0.59503 0.39986 0.0
C1275 C 0.80225 0.60639 0.43467 0.0
C1276 C 0.68547 0.47141 0.30819 0.0
C1277 C 0.69489 0.49596 0.29521 0.0
C1278 C 0.6963 0.45794 0.34288 0.0
C1279 C 0.71686 0.46847 0.36675 0.0
H1280 H 0.66957 0.46233 0.29128 0.0
H1281 H 0.68845 0.43904 0.35108 0.0
S1282 S 0.75035 0.53095 0.34463 0.0
N1283 N 0.72739 0.5294 0.30817 0.0
N1284 N 0.74719 0.50439 0.37361 0.0
C1285 C 0.72662 0.49289 0.3542 0.0
C1286 C 0.71582 0.50651 0.31848 0.0
C1287 C 0.85274 0.45232 0.58861 0.0
C1288 C 0.84013 0.46862 0.61804 0.0
C1289 C 0.83934 0.44113 0.55427 0.0
C1290 C 0.81261 0.4458 0.54724 0.0
H1291 H 0.8733 0.44815 0.59194 0.0
H1292 H 0.85025 0.42886 0.53278 0.0
S1293 S 0.7704 0.48757 0.61465 0.0
N1294 N 0.7992 0.48903 0.63765 0.0
N1295 N 0.77415 0.46839 0.57319 0.0
C1296 C 0.79974 0.46216 0.57647 0.0
C1297 C 0.81341 0.47342 0.61173 0.0
C1298 C 0.87115 0.58833 0.81117 0.0
C1299 C 0.8624 0.5634 0.799 0.0
C1300 C 0.85947 0.60218 0.84465 0.0
C1301 C 0.83858 0.59176 0.86797 0.0
H1302 H 0.88715 0.59744 0.79453 0.0
H1303 H 0.86693 0.62131 0.85229 0.0
S1304 S 0.80685 0.52819 0.8478 0.0
N1305 N 0.83048 0.52946 0.81244 0.0
N1306 N 0.80884 0.5554 0.87531 0.0
C1307 C 0.82951 0.56695 0.85625 0.0
C1308 C 0.8413 0.55284 0.8219 0.0
C1309 C 0.74027 0.59916 0.11559 0.0
C1310 C 0.71331 0.59419 0.11406 0.0
C1311 C 0.75357 0.6104 0.08089 0.0
C1312 C 0.74055 0.61715 0.04312 0.0
H1313 H 0.75117 0.59447 0.14392 0.0
H1314 H 0.77413 0.61423 0.08392 0.0
S1315 S 0.67056 0.60583 0.02089 0.0
N1316 N 0.67449 0.5955 0.06997 0.0
N1317 N 0.69936 0.61643 1.00555 0.0
C1318 C 0.71372 0.61187 0.04094 0.0
C1319 C 0.70019 0.60045 0.07609 0.0
C1320 C 0.36826 0.47029 0.30589 0.0
C1321 C 0.36203 0.49667 0.29839 0.0
C1322 C 0.35846 0.45666 0.34115 0.0
C1323 C 0.34208 0.46873 0.371 0.0
H1324 H 0.38074 0.45983 0.28413 0.0
H1325 H 0.36368 0.43635 0.34483 0.0
S1326 S 0.31853 0.53706 0.3657 0.0
N1327 N 0.33747 0.53405 0.32374 0.0
N1328 N 0.31934 0.50858 0.38991 0.0
C1329 C 0.33562 0.49509 0.36407 0.0
C1330 C 0.34548 0.50897 0.32792 0.0
C1331 C 0.31631 0.58699 0.10784 0.0
C1332 C 0.34059 0.59632 0.12193 0.0
C1333 C 0.30334 0.5984 0.07292 0.0
C1334 C 0.31403 0.61972 0.05059 0.0
H1335 H 0.30761 0.57023 0.12308 0.0
H1336 H 0.285 0.59009 0.06293 0.0
S1337 S 0.37582 0.6533 0.07809 0.0
N1338 N 0.37379 0.62936 0.11281 0.0
N1339 N 0.34971 0.65077 0.04796 0.0
C1340 C 0.33789 0.62973 0.06553 0.0
C1341 C 0.35105 0.61807 0.10089 0.0
C1342 C 0.2207 0.57019 0.86219 0.0
C1343 C 0.21554 0.59676 0.86974 0.0
C1344 C 0.20965 0.55688 0.82736 0.0
C1345 C 0.19267 0.5694 0.79858 0.0
H1346 H 0.23385 0.55966 0.88283 0.0
H1347 H 0.21466 0.5366 0.82287 0.0
S1348 S 0.1726 0.63891 0.80423 0.0
N1349 N 0.1921 0.63502 0.84525 0.0
N1350 N 0.17135 0.61028 0.78074 0.0
C1351 C 0.1872 0.59594 0.80613 0.0
C1352 C 0.19858 0.60948 0.84132 0.0
C1353 C 0.20687 0.45289 0.59416 0.0
C1354 C 0.2189 0.47093 0.6214 0.0
C1355 C 0.22009 0.44195 0.55937 0.0
C1356 C 0.24609 0.4485 0.5497 0.0
H1357 H 0.18685 0.44723 0.59952 0.0
H1358 H 0.20962 0.42827 0.53969 0.0
S1359 S 0.28637 0.49584 0.60979 0.0
N1360 N 0.2584 0.4954 0.63551 0.0
N1361 N 0.28313 0.47506 0.57029 0.0
C1362 C 0.25841 0.46661 0.57667 0.0
C1363 C 0.24491 0.47772 0.61234 0.0
C1364 C 0.35643 0.55168 0.68812 0.0
C1365 C 0.3651 0.56459 0.72489 0.0
C1366 C 0.34605 0.56548 0.65324 0.0
C1367 C 0.34363 0.59282 0.65378 0.0
H1368 H 0.35777 0.53072 0.68619 0.0
H1369 H 0.33979 0.5546 0.62573 0.0
S1370 S 0.3595 0.63558 0.74513 0.0
N1371 N 0.36795 0.60619 0.76109 0.0
N1372 N 0.34844 0.63192 0.69648 0.0
C1373 C 0.35127 0.60582 0.69111 0.0
C1374 C 0.36194 0.59181 0.72634 0.0
C1375 C 0.25929 0.60524 0.43726 0.0
C1376 C 0.24635 0.61274 0.47474 0.0
C1377 C 0.2455 0.59528 0.40203 0.0
C1378 C 0.21819 0.59235 0.40276 0.0
H1379 H 0.28019 0.6074 0.43486 0.0
H1380 H 0.25635 0.58988 0.37398 0.0
S1381 S 0.1755 0.6059 0.49526 0.0
N1382 N 0.20482 0.61428 0.51142 0.0
N1383 N 0.17918 0.59585 0.44604 0.0
C1384 C 0.20522 0.59905 0.4406 0.0
C1385 C 0.21919 0.60913 0.47626 0.0
C1386 C 0.19389 0.46944 0.21456 0.0
C1387 C 0.1991 0.49606 0.22157 0.0
C1388 C 0.20471 0.45578 0.18012 0.0
C1389 C 0.22116 0.46803 0.15054 0.0
H1390 H 0.18144 0.45879 0.23612 0.0
H1391 H 0.20018 0.4353 0.17685 0.0
S1392 S 0.24185 0.53725 0.15422 0.0
N1393 N 0.22259 0.53395 0.19572 0.0
N1394 N 0.24253 0.50848 0.13103 0.0
C1395 C 0.22655 0.49465 0.15688 0.0
C1396 C 0.21567 0.50856 0.19225 0.0
C1397 C 0.34319 0.43689 0.96073 0.0
C1398 C 0.31691 0.443 0.96916 0.0
C1399 C 0.35631 0.44681 0.92502 0.0
C1400 C 0.34383 0.46328 0.89562 0.0
H1401 H 0.35403 0.42456 0.98228 0.0
H1402 H 0.37665 0.44188 0.92091 0.0
S1403 S 0.2751 0.48544 0.90203 0.0
N1404 N 0.2789 0.46676 0.94416 0.0
N1405 N 0.3034 0.48515 0.8773 0.0
C1406 C 0.31743 0.46923 0.90305 0.0
C1407 C 0.30408 0.45924 0.93965 0.0
C1408 C 0.27726 0.14738 0.27863 0.0
C1409 C 0.27232 0.12412 0.30051 0.0
C1410 C 0.28821 0.14722 0.23821 0.0
C1411 C 0.29437 0.12376 0.21765 0.0
H1412 H 0.27272 0.16592 0.29316 0.0
H1413 H 0.2912 0.16561 0.22219 0.0
S1414 S 0.28674 0.0573 0.26218 0.0
N1415 N 0.27628 0.07686 0.29993 0.0
N1416 N 0.29526 0.07648 0.22264 0.0
C1417 C 0.29002 0.10025 0.23941 0.0
C1418 C 0.27921 0.10043 0.28102 0.0
C1419 C 0.2108 0.0307 0.4896 0.0
C1420 C 0.18813 0.03777 0.46732 0.0
C1421 C 0.20947 1.02138 0.53126 0.0
C1422 C 0.18538 1.01841 0.55196 0.0
H1423 H 0.22968 0.03182 0.47453 0.0
H1424 H 0.22747 1.0171 0.5476 0.0
S1425 S 0.12041 0.03378 0.50724 0.0
N1426 N 0.14107 0.04184 0.46947 0.0
N1427 N 0.13838 1.02234 0.54637 0.0
C1428 C 0.16261 1.02491 0.52965 0.0
C1429 C 0.16403 0.03515 0.48786 0.0
C1430 C 0.26012 0.95923 0.74772 0.0
C1431 C 0.27662 0.94576 0.71976 0.0
C1432 C 0.26671 0.96213 0.79044 0.0
C1433 C 0.28993 0.95166 0.80643 0.0
H1434 H 0.24176 0.96705 0.73665 0.0
H1435 H 0.25329 0.97183 0.81154 0.0
S1436 S 0.34138 0.91757 0.74709 0.0
N1437 N 0.31888 0.92426 0.71141 0.0
N1438 N 0.33013 0.92913 0.79223 0.0
C1439 C 0.30705 0.93921 0.77907 0.0
C1440 C 0.30066 0.93635 0.73554 0.0
C1441 C 0.35534 1.01522 0.9895 0.0
C1442 C 0.37964 1.01282 0.96934 0.0
C1443 C 0.35337 1.02551 0.03045 0.0
C1444 C 0.3756 0.03409 0.05245 0.0
H1445 H 0.33763 1.00994 0.97308 0.0
H1446 H 0.33436 1.02637 0.0451 0.0
S1447 S 0.44369 0.03124 0.01393 0.0
N1448 N 0.42636 1.0185 0.97516 0.0
N1449 N 0.42255 0.03935 0.051 0.0
C1450 C 0.39995 0.03158 0.03266 0.0
C1451 C 0.402 1.02051 0.99155 0.0
C1452 C 0.7632 0.93774 0.72794 0.0
C1453 C 0.78855 0.93276 0.71337 0.0
C1454 C 0.7575 0.93784 0.77118 0.0
C1455 C 0.77694 0.93255 0.8011 0.0
H1456 H 0.74784 0.94188 0.70561 0.0
H1457 H 0.73784 0.94213 0.78139 0.0
S1458 S 0.8465 0.9183 0.77784 0.0
N1459 N 0.83307 0.92255 0.73089 0.0
N1460 N 0.82291 0.92255 0.81267 0.0
C1461 C 0.80248 0.92741 0.78661 0.0
C1462 C 0.80815 0.92761 0.74253 0.0
C1463 C 0.89686 0.0369 0.49082 0.0
C1464 C 0.87371 0.04236 0.46887 0.0
C1465 C 0.89648 1.02625 0.53146 0.0
C1466 C 0.87294 1.02103 0.55242 0.0
H1467 H 0.91549 0.04056 0.476 0.0
H1468 H 0.91484 1.02255 0.54717 0.0
S1469 S 0.80662 0.03157 0.50891 0.0
N1470 N 0.82636 0.04075 0.47053 0.0
N1471 N 0.82566 1.02246 0.54831 0.0
C1472 C 0.84951 1.02643 0.531 0.0
C1473 C 0.8499 0.03686 0.48906 0.0
C1474 C 0.78227 0.09986 0.27877 0.0
C1475 C 0.78773 0.12304 0.30071 0.0
C1476 C 0.77356 0.10039 0.23679 0.0
C1477 C 0.76961 0.12414 0.21547 0.0
H1478 H 0.78424 0.08117 0.29427 0.0
H1479 H 0.77061 0.08205 0.22068 0.0
S1480 S 0.7805 0.19019 0.2591 0.0
N1481 N 0.78908 0.17028 0.29771 0.0
N1482 N 0.77081 0.17131 0.21992 0.0
C1483 C 0.77445 0.1474 0.2374 0.0
C1484 C 0.78405 0.14684 0.27959 0.0
C1485 C 0.70745 1.02365 0.99052 0.0
C1486 C 0.68437 1.0184 0.9682 0.0
C1487 C 0.70671 0.03404 0.03148 0.0
C1488 C 0.68288 0.03987 0.05143 0.0
H1489 H 0.72621 1.02054 0.9758 0.0
H1490 H 0.72496 0.03711 0.04778 0.0
S1491 S 0.61708 1.02878 1.00694 0.0
N1492 N 0.63715 1.01838 0.96981 0.0
N1493 N 0.63576 0.03935 0.0458 0.0
C1494 C 0.65974 0.03448 0.0295 0.0
C1495 C 0.66049 1.02333 0.98831 0.0
C1496 C 0.78613 0.64936 0.7366 0.0
C1497 C 0.78872 0.62557 0.71519 0.0
C1498 C 0.7757 0.6505 0.77736 0.0
C1499 C 0.76769 0.62787 0.79868 0.0
H1500 H 0.7919 0.6673 0.72126 0.0
H1501 H 0.77428 0.66926 0.79277 0.0
S1502 S 0.76946 0.56056 0.75585 0.0
N1503 N 0.78105 0.57885 0.71727 0.0
N1504 N 0.76304 0.58073 0.79509 0.0
C1505 C 0.77002 0.60384 0.77756 0.0
C1506 C 0.7803 0.60274 0.73564 0.0
C1507 C 0.70892 0.52354 0.02847 0.0
C1508 C 0.6848 0.52016 0.04882 0.0
C1509 C 0.71032 0.53318 0.98708 0.0
C1510 C 0.68766 0.54011 0.96472 0.0
H1511 H 0.72692 0.51931 0.0449 0.0
H1512 H 0.72923 0.5346 0.97222 0.0
S1513 S 0.61985 0.53521 1.00382 0.0
N1514 N 0.63779 0.52381 0.04303 0.0
N1515 N 0.64055 0.54361 0.96629 0.0
C1516 C 0.66351 0.53712 0.9849 0.0
C1517 C 0.66204 0.52666 0.02652 0.0
C1518 C 0.78592 0.41558 0.27887 0.0
C1519 C 0.79292 0.43857 0.30017 0.0
C1520 C 0.7766 0.41613 0.23739 0.0
C1521 C 0.77432 0.43962 0.21501 0.0
H1522 H 0.78703 0.39699 0.29495 0.0
H1523 H 0.77121 0.39796 0.22246 0.0
S1524 S 0.79313 0.50512 0.254 0.0
N1525 N 0.79821 0.48557 0.29465 0.0
N1526 N 0.78243 0.4863 0.21551 0.0
C1527 C 0.78242 0.46272 0.23502 0.0
C1528 C 0.79148 0.46224 0.27775 0.0
C1529 C 0.855 0.53693 0.5329 0.0
C1530 C 0.87845 0.54165 0.55457 0.0
C1531 C 0.85502 0.52721 0.49156 0.0
C1532 C 0.87849 0.5216 0.47049 0.0
H1533 H 0.83646 0.54004 0.54833 0.0
H1534 H 0.83653 0.5246 0.47576 0.0
S1535 S 0.94502 0.5306 0.51323 0.0
N1536 N 0.92564 0.54061 0.55161 0.0
N1537 N 0.92568 0.52123 0.47442 0.0
C1538 C 0.90201 0.52616 0.49184 0.0
C1539 C 0.90199 0.53649 0.53362 0.0
C1540 C 0.2909 0.45968 0.23941 0.0
C1541 C 0.29426 0.43576 0.21836 0.0
C1542 C 0.281 0.46067 0.28075 0.0
C1543 C 0.27366 0.43783 0.30238 0.0
H1544 H 0.29523 0.47783 0.22352 0.0
H1545 H 0.27953 0.47946 0.29599 0.0
S1546 S 0.27908 0.37035 0.26159 0.0
N1547 N 0.29089 0.38869 0.22323 0.0
N1548 N 0.27016 0.39071 0.29928 0.0
C1549 C 0.27687 0.41387 0.28157 0.0
C1550 C 0.28777 0.41279 0.24017 0.0
C1551 C 0.36374 0.51411 0.97998 0.0
C1552 C 0.37253 0.53831 0.96525 0.0
C1553 C 0.36461 0.50793 0.02304 0.0
C1554 C 0.37441 0.52578 0.05261 0.0
H1555 H 0.35626 0.49997 0.95788 0.0
H1556 H 0.35759 0.48909 0.03336 0.0
S1557 S 0.39878 0.59241 0.02844 0.0
N1558 N 0.39076 0.58025 0.98193 0.0
N1559 N 0.39199 0.56952 0.06345 0.0
C1560 C 0.38295 0.55036 0.03785 0.0
C1561 C 0.38206 0.55642 0.99393 0.0
C1562 C 0.27604 0.64378 0.73888 0.0
C1563 C 0.27459 0.61976 0.71793 0.0
C1564 C 0.28579 0.6456 0.77993 0.0
C1565 C 0.29387 0.62338 0.80237 0.0
H1566 H 0.2697 0.66141 0.72312 0.0
H1567 H 0.28622 0.66454 0.79492 0.0
S1568 S 0.29568 0.55581 0.76096 0.0
N1569 N 0.28419 0.57336 0.72135 0.0
N1570 N 0.30054 0.57649 0.80008 0.0
C1571 C 0.29304 0.59917 0.78163 0.0
C1572 C 0.28365 0.59739 0.73919 0.0
C1573 C 0.16547 0.52591 0.4887 0.0
C1574 C 0.18945 0.52339 0.46777 0.0
C1575 C 0.16397 0.53585 0.52973 0.0
C1576 C 0.18642 0.54342 0.55188 0.0
H1577 H 0.14764 0.52035 0.47287 0.0
H1578 H 0.14508 0.53718 0.54475 0.0
S1579 S 0.25416 0.54133 0.51113 0.0
N1580 N 0.23624 0.53052 0.47156 0.0
N1581 N 0.23358 0.54755 0.54992 0.0
C1582 C 0.21064 0.54112 0.53138 0.0
C1583 C 0.21213 0.53136 0.48915 0.0
C1584 C 0.174 0.12626 0.91142 0.0
C1585 C 0.19999 0.12558 0.92512 0.0
C1586 C 0.16763 0.12185 0.869 0.0
C1587 C 0.18704 0.11658 0.83888 0.0
H1588 H 0.15846 0.12976 0.93384 0.0
H1589 H 0.14732 0.12182 0.85993 0.0
S1590 S 0.25819 0.11508 0.85748 0.0
N1591 N 0.24546 0.12119 0.90442 0.0
N1592 N 0.23327 0.11238 0.82479 0.0
C1593 C 0.21312 0.11636 0.85188 0.0
C1594 C 0.21967 0.12099 0.89501 0.0
C1595 C 0.16434 0.93332 0.1527 0.0
C1596 C 0.18401 0.93818 0.18258 0.0
C1597 C 0.1706 0.92724 0.11068 0.0
C1598 C 0.19666 0.92582 0.09757 0.0
H1599 H 0.14408 0.93528 0.16151 0.0
H1600 H 0.15505 0.92461 0.08797 0.0
S1601 S 0.25501 0.93251 0.16576 0.0
N1602 N 0.23025 0.93844 0.19765 0.0
N1603 N 0.24212 0.92637 0.11893 0.0
C1604 C 0.21641 0.92914 0.12784 0.0
C1605 C 0.21004 0.93552 0.17035 0.0
C1606 C 0.39385 0.93436 0.36997 0.0
C1607 C 0.37417 0.94016 0.34056 0.0
C1608 C 0.38769 0.92823 0.41197 0.0
C1609 C 0.36169 0.92769 0.42559 0.0
H1610 H 0.4141 0.93541 0.36073 0.0
H1611 H 0.40331 0.92463 0.43423 0.0
S1612 S 0.30311 0.93745 0.35869 0.0
N1613 N 0.32786 0.9426 0.32643 0.0
N1614 N 0.31609 0.93046 0.40518 0.0
C1615 C 0.34183 0.93226 0.39585 0.0
C1616 C 0.34814 0.93868 0.35331 0.0
C1617 C 0.38768 0.12841 0.65736 0.0
C1618 C 0.37096 0.11266 0.68163 0.0
C1619 C 0.38223 0.13384 0.61476 0.0
C1620 C 0.35995 0.12367 0.59513 0.0
H1621 H 0.40542 0.136 0.67101 0.0
H1622 H 0.39554 0.14598 0.597 0.0
S1623 S 0.30998 0.0816 0.6449 0.0
N1624 N 0.33051 0.08824 0.68347 0.0
N1625 N 0.32168 0.09635 0.60267 0.0
C1626 C 0.34314 0.10793 0.61909 0.0
C1627 C 0.3483 0.10297 0.66254 0.0
C1628 C 0.84577 0.94418 0.12624 0.0
C1629 C 0.86392 0.93115 0.10054 0.0
C1630 C 0.85099 0.94905 0.16881 0.0
C1631 C 0.87458 0.94122 0.18735 0.0
H1632 H 0.82785 0.9517 0.11304 0.0
H1633 H 0.83669 0.95967 0.18714 0.0
S1634 S 0.92759 0.90439 0.13466 0.0
N1635 N 0.90538 0.90841 0.09747 0.0
N1636 N 0.91577 0.91864 0.17736 0.0
C1637 C 0.89247 0.92719 0.16256 0.0
C1638 C 0.88702 0.92199 0.11914 0.0
C1639 C 0.84679 0.12329 0.89798 0.0
C1640 C 0.8672 0.12884 0.92626 0.0
C1641 C 0.85174 0.1181 0.85537 0.0
C1642 C 0.87718 0.11865 0.83947 0.0
H1643 H 0.82681 0.12312 0.90875 0.0
H1644 H 0.83559 0.11366 0.83459 0.0
S1645 S 0.93748 0.13087 0.90049 0.0
N1646 N 0.91385 0.13369 0.93565 0.0
N1647 N 0.92311 0.12427 0.85498 0.0
C1648 C 0.89777 0.12432 0.86714 0.0
C1649 C 0.89277 0.12938 0.91072 0.0
C1650 C 0.69228 0.10226 0.60564 0.0
C1651 C 0.69345 0.12818 0.59194 0.0
C1652 C 0.6878 0.0963 0.64815 0.0
C1653 C 0.68469 0.11613 0.67843 0.0
H1654 H 0.69489 0.08654 0.58322 0.0
H1655 H 0.68664 0.07603 0.65729 0.0
S1656 S 0.68811 0.18716 0.65861 0.0
N1657 N 0.69218 0.17382 0.61152 0.0
N1658 N 0.68421 0.16269 0.69197 0.0
C1659 C 0.68595 0.14217 0.66505 0.0
C1660 C 0.69026 0.1482 0.62162 0.0
C1661 C 0.66674 0.95396 0.36785 0.0
C1662 C 0.68147 0.94155 0.33632 0.0
C1663 C 0.67123 0.94875 0.41068 0.0
C1664 C 0.69098 0.93144 0.42303 0.0
H1665 H 0.65202 0.9681 0.35919 0.0
H1666 H 0.66007 0.95914 0.43434 0.0
S1667 S 0.73434 0.89356 0.35259 0.0
N1668 N 0.71587 0.91072 0.32003 0.0
N1669 N 0.72459 0.90115 0.40086 0.0
C1670 C 0.70537 0.91846 0.39181 0.0
C1671 C 0.70052 0.92344 0.34826 0.0
C1672 C 0.68252 0.63913 0.35595 0.0
C1673 C 0.68228 0.61313 0.34226 0.0
C1674 C 0.68801 0.64533 0.39813 0.0
C1675 C 0.69347 0.62573 0.4279 0.0
H1676 H 0.6789 0.65476 0.33369 0.0
H1677 H 0.68868 0.66562 0.40729 0.0
S1678 S 0.69232 0.55461 0.40942 0.0
N1679 N 0.68569 0.56754 0.36276 0.0
N1680 N 0.69658 0.5794 0.44187 0.0
C1681 C 0.6927 0.59967 0.41493 0.0
C1682 C 0.68695 0.59331 0.37212 0.0
C1683 C 0.69115 0.45916 0.60055 0.0
C1684 C 0.6921 0.43321 0.58694 0.0
C1685 C 0.68661 0.46521 0.64302 0.0
C1686 C 0.68315 0.44547 0.6734 0.0
H1687 H 0.69406 0.47484 0.5781 0.0
H1688 H 0.68571 0.4855 0.65208 0.0
S1689 S 0.68603 0.37438 0.65413 0.0
N1690 N 0.6904 0.3876 0.60698 0.0
N1691 N 0.68218 0.39894 0.68722 0.0
C1692 C 0.68419 0.4194 0.66017 0.0
C1693 C 0.68861 0.41327 0.6168 0.0
C1694 C 0.88716 0.44873 0.91491 0.0
C1695 C 0.87008 0.42894 0.92783 0.0
C1696 C 0.89053 0.45444 0.87197 0.0
C1697 C 0.8773 0.44024 0.84075 0.0
H1698 H 0.89697 0.46063 0.9382 0.0
H1699 H 0.90323 0.47032 0.86301 0.0
S1700 S 0.83146 0.38579 0.8582 0.0
N1701 N 0.8406 0.39452 0.90627 0.0
N1702 N 0.84716 0.40521 0.82526 0.0
C1703 C 0.86096 0.4198 0.85315 0.0
C1704 C 0.85727 0.41419 0.89684 0.0
C1705 C 0.88712 0.63197 0.15524 0.0
C1706 C 0.87099 0.61592 0.18001 0.0
C1707 C 0.88153 0.63658 0.11248 0.0
C1708 C 0.8597 0.62525 0.09318 0.0
H1709 H 0.90457 0.64037 0.16861 0.0
H1710 H 0.89438 0.64898 0.09431 0.0
S1711 S 0.8113 0.58181 0.14419 0.0
N1712 N 0.83142 0.58997 0.18257 0.0
N1713 N 0.82247 0.59656 0.10151 0.0
C1714 C 0.84342 0.60924 0.11761 0.0
C1715 C 0.84866 0.60514 0.16124 0.0
C1716 C 0.37482 0.41317 0.61756 0.0
C1717 C 0.37043 0.43285 0.58748 0.0
C1718 C 0.38135 0.41941 0.65935 0.0
C1719 C 0.38376 0.44549 0.67202 0.0
H1720 H 0.37221 0.39293 0.60904 0.0
H1721 H 0.38367 0.40387 0.68223 0.0
S1722 S 0.37843 0.5037 0.60295 0.0
N1723 N 0.3714 0.47899 0.57163 0.0
N1724 N 0.38456 0.49085 0.64987 0.0
C1725 C 0.38082 0.46521 0.6415 0.0
C1726 C 0.3739 0.45884 0.59924 0.0
C1727 C 0.36586 0.60155 0.41697 0.0
C1728 C 0.3722 0.62583 0.43441 0.0
C1729 C 0.3708 0.59608 0.37455 0.0
C1730 C 0.38242 0.61464 0.34784 0.0
H1731 H 0.35631 0.58687 0.43603 0.0
H1732 H 0.36437 0.57755 0.36233 0.0
S1733 S 0.40554 0.68015 0.37926 0.0
N1734 N 0.39222 0.6681 0.42261 0.0
N1735 N 0.40267 0.65728 0.34292 0.0
C1736 C 0.39031 0.63846 0.36545 0.0
C1737 C 0.38501 0.64416 0.40877 0.0
C1738 C 0.21529 0.62361 0.12217 0.0
C1739 C 0.19543 0.62911 0.0928 0.0
C1740 C 0.20947 0.61782 0.16434 0.0
C1741 C 0.18366 0.61759 0.17869 0.0
H1742 H 0.23551 0.62401 0.11261 0.0
H1743 H 0.22525 0.61358 0.18602 0.0
S1744 S 0.12452 0.62863 0.11399 0.0
N1745 N 0.14889 0.63259 0.08053 0.0
N1746 N 0.13798 0.62197 0.16024 0.0
C1747 C 0.16359 0.62294 0.14979 0.0
C1748 C 0.16949 0.62866 0.10671 0.0
C1749 C 0.18563 0.42432 0.85959 0.0
C1750 C 0.1848 0.45048 0.84662 0.0
C1751 C 0.19084 0.4177 0.90171 0.0
C1752 C 0.19549 0.43705 0.93212 0.0
H1753 H 0.18274 0.40886 0.83682 0.0
H1754 H 0.19201 0.39733 0.91031 0.0
S1755 S 0.19277 0.50833 0.91574 0.0
N1756 N 0.18679 0.49586 0.86858 0.0
N1757 N 0.19736 0.48322 0.94755 0.0
C1758 C 0.19416 0.46323 0.91993 0.0
C1759 C 0.18861 0.47002 0.87718 0.0
C1760 C 0.28134 0.26491 0.07801 0.0
C1761 C 0.26945 0.25077 0.04509 0.0
C1762 C 0.28142 0.29225 0.07834 0.0
C1763 C 0.26959 0.30684 0.04578 0.0
H1764 H 0.29031 0.25472 0.10428 0.0
H1765 H 0.29047 0.30209 0.10482 0.0
S1766 S 0.23577 0.2794 0.95207 0.0
N1767 N 0.24574 0.25355 0.97868 0.0
N1768 N 0.24583 0.3049 0.97931 0.0
C1769 C 0.25828 0.29299 0.01196 0.0
C1770 C 0.25823 0.26504 0.01162 0.0
C1771 C 1.01766 1.03036 0.32897 0.0
C1772 C 1.0033 1.01829 0.29647 0.0
C1773 C 0.04498 1.03041 0.32885 0.0
C1774 C 0.05928 1.01846 0.29616 0.0
H1775 H 1.00766 0.03944 0.35531 0.0
H1776 H 0.05503 0.03945 0.35512 0.0
S1777 S 0.03127 0.98433 0.20328 0.0
N1778 N 1.00562 0.99433 0.23026 0.0
N1779 N 0.05694 0.99454 0.22995 0.0
C1780 C 0.04524 1.00707 0.26267 0.0
C1781 C 1.01731 1.00697 0.26284 0.0
C1782 C 0.31766 0.76609 0.56013 0.0
C1783 C 0.29618 0.75148 0.54603 0.0
C1784 C 0.31714 0.79338 0.56073 0.0
C1785 C 0.29512 0.80745 0.54721 0.0
H1786 H 0.33501 0.75631 0.57146 0.0
H1787 H 0.3341 0.80357 0.57247 0.0
S1788 S 0.23399 0.77876 0.50597 0.0
N1789 N 0.25244 0.75327 0.51696 0.0
N1790 N 0.2515 0.80466 0.51797 0.0
C1791 C 0.27383 0.7932 0.53151 0.0
C1792 C 0.27435 0.76525 0.53094 0.0
C1793 C 0.51811 0.07003 0.80482 0.0
C1794 C 0.50427 0.04792 0.79134 0.0
C1795 C 0.54537 0.07045 0.80528 0.0
C1796 C 0.5601 0.04876 0.79229 0.0
H1797 H 0.50773 0.08707 0.81597 0.0
H1798 H 0.55502 0.08782 0.81664 0.0
S1799 S 0.53342 0.9863 0.75273 0.0
N1800 N 0.50738 1.00402 0.76331 0.0
N1801 N 0.55874 1.00478 0.76417 0.0
C1802 C 0.54657 1.02686 0.77711 0.0
C1803 C 0.51867 1.02644 0.77663 0.0
C1804 C 0.25791 0.7975 1.00177 0.0
C1805 C 0.27148 0.81142 0.97022 0.0
C1806 C 0.25756 0.77001 1.0023 0.0
C1807 C 0.27078 0.75534 0.97131 0.0
H1808 H 0.24657 0.8079 0.0252 0.0
H1809 H 0.24594 0.76022 0.02605 0.0
S1810 S 0.31252 0.78229 0.88594 0.0
N1811 N 0.30077 0.80825 0.9101 0.0
N1812 N 0.3002 0.75698 0.91114 0.0
C1813 C 0.28557 0.76907 0.94111 0.0
C1814 C 0.28589 0.79694 0.94053 0.0
C1815 C 0.54341 0.03286 0.23933 0.0
C1816 C 0.55744 1.00998 0.22992 0.0
C1817 C 0.51592 0.03308 0.2396 0.0
C1818 C 0.50155 1.01043 0.23051 0.0
H1819 H 0.55373 0.05092 0.24467 0.0
H1820 H 0.50588 0.05131 0.24509 0.0
S1821 S 0.52905 0.94473 0.21075 0.0
N1822 N 0.55481 0.9636 0.21612 0.0
N1823 N 0.50356 0.96396 0.21683 0.0
C1824 C 0.51545 0.98718 0.22368 0.0
C1825 C 0.54324 0.98698 0.22332 0.0
C1826 C 0.29938 0.26667 0.50608 0.0
C1827 C 0.2893 0.25227 0.47186 0.0
C1828 C 0.29918 0.29416 0.50578 0.0
C1829 C 0.28886 0.30824 0.47127 0.0
H1830 H 0.30854 0.25667 0.53236 0.0
H1831 H 0.3082 0.30442 0.53185 0.0
S1832 S 0.25638 0.27975 0.37721 0.0
N1833 N 0.26607 0.25426 0.40495 0.0
N1834 N 0.26565 0.30553 0.40442 0.0
C1835 C 0.27737 0.29399 0.43817 0.0
C1836 C 0.27759 0.26616 0.43846 0.0
C1837 C 0.04291 0.07061 0.71572 0.0
C1838 C 0.05692 0.04889 0.73065 0.0
C1839 C 1.01565 0.07098 0.71556 0.0
C1840 C 1.00108 0.04967 0.73036 0.0
H1841 H 0.05315 0.08731 0.70308 0.0
H1842 H 1.00587 0.08797 0.70284 0.0
S1843 S 1.02818 0.98851 0.77477 0.0
N1844 N 0.05411 1.00589 0.76238 0.0
N1845 N 1.00272 1.0066 0.76213 0.0
C1846 C 1.01475 1.02826 0.74721 0.0
C1847 C 0.04267 1.02787 0.74735 0.0
C1848 C 0.80398 0.79563 1.00626 0.0
C1849 C 0.79561 0.81046 0.97124 0.0
C1850 C 0.80331 0.76815 1.00554 0.0
C1851 C 0.79416 0.75448 0.9698 0.0
H1852 H 0.81209 0.80529 0.03371 0.0
H1853 H 0.81095 0.75755 0.03247 0.0
S1854 S 0.76623 0.78439 0.87278 0.0
N1855 N 0.77537 0.80945 0.90182 0.0
N1856 N 0.77376 0.75822 0.90061 0.0
C1857 C 0.78439 0.76923 0.93567 0.0
C1858 C 0.7852 0.79705 0.93635 0.0
C1859 C 0.75675 0.26638 0.50223 0.0
C1860 C 0.76848 0.25201 0.46936 0.0
C1861 C 0.75678 0.29386 0.50197 0.0
C1862 C 0.7686 0.308 0.46886 0.0
H1863 H 0.74647 0.25634 0.52733 0.0
H1864 H 0.74651 0.30406 0.52688 0.0
S1865 S 0.80552 0.27955 0.37903 0.0
N1866 N 0.79463 0.25405 0.40542 0.0
N1867 N 0.79494 0.30532 0.40509 0.0
C1868 C 0.78169 0.29377 0.43725 0.0
C1869 C 0.78157 0.26593 0.43745 0.0
C1870 C 0.78337 0.26763 0.07645 0.0
C1871 C 0.79515 0.25316 0.04376 0.0
C1872 C 0.78343 0.29497 0.07627 0.0
C1873 C 0.79522 0.30921 0.04334 0.0
H1874 H 0.7744 0.25771 0.10297 0.0
H1875 H 0.77457 0.30507 0.10268 0.0
S1876 S 0.82858 0.28096 0.94984 0.0
N1877 N 0.81869 0.25536 0.97707 0.0
N1878 N 0.81866 0.3067 0.97666 0.0
C1879 C 0.80632 0.29508 1.00966 0.0
C1880 C 0.80631 0.26713 1.00988 0.0
C1881 C 0.77734 0.79667 0.57198 0.0
C1882 C 0.76539 0.81049 0.5387 0.0
C1883 C 0.7782 0.76937 0.57238 0.0
C1884 C 0.76706 0.75451 0.53961 0.0
H1885 H 0.78564 0.80709 0.59854 0.0
H1886 H 0.78718 0.75976 0.59923 0.0
S1887 S 0.73379 0.78116 0.4446 0.0
N1888 N 0.74273 0.80723 0.47144 0.0
N1889 N 0.74413 0.75589 0.4723 0.0
C1890 C 0.75585 0.76807 0.50531 0.0
C1891 C 0.75507 0.79601 0.50484 0.0
C1892 C 0.54583 0.53406 0.78315 0.0
C1893 C 0.56026 0.5116 0.79366 0.0
C1894 C 0.51832 0.53396 0.78358 0.0
C1895 C 0.50426 0.5114 0.7946 0.0
H1896 H 0.55585 0.55208 0.77611 0.0
H1897 H 0.50801 0.55188 0.77679 0.0
S1898 S 0.5327 0.44653 0.81794 0.0
N1899 N 0.55819 0.4655 0.81053 0.0
N1900 N 0.50695 0.46537 0.81153 0.0
C1901 C 0.51851 0.48854 0.80287 0.0
C1902 C 0.54633 0.48863 0.80235 0.0
C1903 C 0.04551 0.53108 0.328 0.0
C1904 C 0.0599 0.54214 0.29454 0.0
C1905 C 1.01819 0.53148 0.32827 0.0
C1906 C 1.00389 0.54287 0.29502 0.0
H1907 H 0.0555 0.52251 0.35483 0.0
H1908 H 1.00815 0.52321 0.35527 0.0
S1909 S 0.03192 0.57421 0.19946 0.0
N1910 N 0.05758 0.5645 0.22676 0.0
N1911 N 1.00624 0.56508 0.22716 0.0
C1912 C 1.01793 0.55319 0.26057 0.0
C1913 C 0.04587 0.55285 0.26034 0.0
C1914 C 0.0424 0.53138 0.74141 0.0
C1915 C 0.05737 0.50964 0.72916 0.0
C1916 C 1.0149 0.53046 0.74161 0.0
C1917 C 1.00136 0.50777 0.72963 0.0
H1918 H 0.05197 0.54951 0.74922 0.0
H1919 H 1.00417 0.54795 0.74953 0.0
S1920 S 0.0316 0.4444 0.70172 0.0
N1921 N 0.05656 0.46401 0.70941 0.0
N1922 N 1.00535 0.4622 0.71014 0.0
C1923 C 1.01624 0.48554 0.71979 0.0
C1924 C 0.04406 0.4865 0.71946 0.0
C1925 C 0.5146 0.52756 0.2378 0.0
C1926 C 0.50078 0.55065 0.22869 0.0
C1927 C 0.54209 0.52701 0.23793 0.0
C1928 C 0.5567 0.54952 0.22898 0.0
H1929 H 0.50412 0.50958 0.24309 0.0
H1930 H 0.55195 0.50864 0.24323 0.0
S1931 S 0.53011 0.61561 0.20978 0.0
N1932 N 0.50409 0.59714 0.2155 0.0
N1933 N 0.55534 0.59597 0.21525 0.0
C1934 C 0.54311 0.57293 0.22224 0.0
C1935 C 0.51531 0.57353 0.22223 0.0
loop_
_geom_bond_atom_site_label_1
_geom_bond_atom_site_label_2
_geom_bond_distance
_geom_bond_site_symmetry_2
_ccdc_geom_bond_type
Co0 N4 2.148 . S
Co0 N10 2.128 . S
Co0 N20 2.194 . S
Co0 O25 2.351 . S
Co0 O26 2.155 . S
Co0 O27 2.096 . S
C1 N4 1.301 . S
C1 N5 1.328 . S
C1 H6 0.930 . S
C2 C3 1.333 . S
C2 N4 1.317 . S
C2 H7 0.930 . S
C3 C2 1.333 . S
C3 N5 1.350 . S
C3 H29 0.931 . S
N4 Co0 2.148 . S
N4 C1 1.301 . S
N4 C2 1.317 . S
N5 C1 1.328 . S
N5 C3 1.350 . S
H6 C1 0.930 . S
H7 C2 0.930 . S
C8 O9 1.224 . S
C8 O27 1.247 . S
O9 C8 1.224 . S
N10 Co0 2.128 . S
N10 C11 1.355 . S
N10 C13 1.311 1_554 S
C11 N10 1.355 . S
C11 C12 1.363 1_554 S
C11 H23 0.929 . S
C12 C11 1.363 1_556 S
C12 N14 1.375 . S
C12 H30 0.931 . S
C13 N10 1.311 1_556 S
C13 N14 1.347 . S
C13 H24 0.929 . S
N14 C12 1.375 . S
N14 C13 1.347 . S
C15 C18 1.365 . S
C15 N20 1.328 . S
C15 H21 0.929 . S
C16 C17 1.362 . S
C16 C19 1.378 . S
C16 H31 0.929 . S
C17 C16 1.362 . S
C17 C18 1.366 . S
C18 C15 1.365 . S
C18 C17 1.366 . S
C18 H32 0.930 . S
C19 C16 1.378 . S
C19 N20 1.315 . S
C19 H22 0.930 . S
N20 Co0 2.194 . S
N20 C15 1.328 . S
N20 C19 1.315 . S
H21 C15 0.929 . S
H22 C19 0.930 . S
H23 C11 0.929 . S
H24 C13 0.929 . S
O25 Co0 2.351 . S
O25 C28 1.244 . S
O26 Co0 2.155 . S
O26 C28 1.240 . S
O27 Co0 2.096 . S
O27 C8 1.247 . S
C28 O25 1.244 . S
C28 O26 1.240 . S
H29 C3 0.931 . S
H30 C12 0.931 . S
H31 C16 0.929 . S
H32 C18 0.930 . S
Co33 N37 2.148 . S
Co33 N43 2.128 . S
Co33 N53 2.194 . S
Co33 O58 2.351 . S
Co33 O59 2.155 . S
Co33 O60 2.096 . S
C34 N37 1.301 . S
C34 N38 1.328 . S
C34 H39 0.930 . S
C35 C36 1.333 . S
C35 N37 1.317 1_545 S
C35 H40 0.930 . S
C36 C35 1.333 . S
C36 N38 1.350 1_545 S
C36 H62 0.931 . S
N37 Co33 2.148 . S
N37 C34 1.301 . S
N37 C35 1.317 1_565 S
N38 C34 1.328 . S
N38 C36 1.350 1_565 S
H39 C34 0.930 . S
H40 C35 0.930 . S
C41 O42 1.224 . S
C41 O60 1.247 . S
O42 C41 1.224 . S
N43 Co33 2.128 . S
N43 C44 1.355 . S
N43 C46 1.311 . S
C44 N43 1.355 . S
C44 C45 1.363 . S
C44 H56 0.929 . S
C45 C44 1.363 . S
C45 N47 1.375 . S
C45 H63 0.931 . S
C46 N43 1.311 . S
C46 N47 1.347 . S
C46 H57 0.929 . S
N47 C45 1.375 . S
N47 C46 1.347 . S
C48 C51 1.365 . S
C48 N53 1.328 . S
C48 H54 0.929 . S
C49 C50 1.362 . S
C49 C52 1.378 . S
C49 H64 0.929 . S
C50 C49 1.362 . S
C50 C51 1.366 . S
C51 C48 1.365 . S
C51 C50 1.366 . S
C51 H65 0.930 . S
C52 C49 1.378 . S
C52 N53 1.315 . S
C52 H55 0.930 . S
N53 Co33 2.194 . S
N53 C48 1.328 . S
N53 C52 1.315 . S
H54 C48 0.929 . S
H55 C52 0.930 . S
H56 C44 0.929 . S
H57 C46 0.929 . S
O58 Co33 2.351 . S
O58 C61 1.244 . S
O59 Co33 2.155 . S
O59 C61 1.240 . S
O60 Co33 2.096 . S
O60 C41 1.247 . S
C61 O58 1.244 . S
C61 O59 1.240 . S
H62 C36 0.931 . S
H63 C45 0.931 . S
H64 C49 0.929 . S
H65 C51 0.930 . S
Co66 N70 2.148 . S
Co66 N76 2.128 . S
Co66 N86 2.194 . S
Co66 O91 2.351 . S
Co66 O92 2.155 . S
Co66 O93 2.096 . S
C67 N70 1.301 . S
C67 N71 1.328 . S
C67 H72 0.930 . S
C68 C69 1.333 . S
C68 N70 1.317 . S
C68 H73 0.930 . S
C69 C68 1.333 . S
C69 N71 1.350 . S
C69 H95 0.931 . S
N70 Co66 2.148 . S
N70 C67 1.301 . S
N70 C68 1.317 . S
N71 C67 1.328 . S
N71 C69 1.350 . S
H72 C67 0.930 . S
H73 C68 0.930 . S
C74 O75 1.224 . S
C74 O93 1.247 . S
O75 C74 1.224 . S
N76 Co66 2.128 . S
N76 C77 1.355 . S
N76 C79 1.311 . S
C77 N76 1.355 . S
C77 C78 1.363 . S
C77 H89 0.929 . S
C78 C77 1.363 . S
C78 N80 1.375 . S
C78 H96 0.931 . S
C79 N76 1.311 . S
C79 N80 1.347 . S
C79 H90 0.929 . S
N80 C78 1.375 . S
N80 C79 1.347 . S
C81 C84 1.365 . S
C81 N86 1.328 . S
C81 H87 0.929 . S
C82 C83 1.362 . S
C82 C85 1.378 . S
C82 H97 0.929 . S
C83 C82 1.362 . S
C83 C84 1.366 . S
C84 C81 1.365 . S
C84 C83 1.366 . S
C84 H98 0.930 . S
C85 C82 1.378 . S
C85 N86 1.315 . S
C85 H88 0.930 . S
N86 Co66 2.194 . S
N86 C81 1.328 . S
N86 C85 1.315 . S
H87 C81 0.929 . S
H88 C85 0.930 . S
H89 C77 0.929 . S
H90 C79 0.929 . S
O91 Co66 2.351 . S
O91 C94 1.244 . S
O92 Co66 2.155 . S
O92 C94 1.240 . S
O93 Co66 2.096 . S
O93 C74 1.247 . S
C94 O91 1.244 . S
C94 O92 1.240 . S
H95 C69 0.931 . S
H96 C78 0.931 . S
H97 C82 0.929 . S
H98 C84 0.930 . S
Co99 N103 2.148 . S
Co99 N109 2.128 . S
Co99 N119 2.194 . S
Co99 O124 2.351 . S
Co99 O125 2.155 . S
Co99 O126 2.096 . S
C100 N103 1.301 . S
C100 N104 1.328 . S
C100 H105 0.930 . S
C101 C102 1.333 . S
C101 N103 1.317 1_565 S
C101 H106 0.930 . S
C102 C101 1.333 . S
C102 N104 1.350 1_565 S
C102 H128 0.931 . S
N103 Co99 2.148 . S
N103 C100 1.301 . S
N103 C101 1.317 1_545 S
N104 C100 1.328 . S
N104 C102 1.350 1_545 S
H105 C100 0.930 . S
H106 C101 0.930 . S
C107 O108 1.224 . S
C107 O126 1.247 . S
O108 C107 1.224 . S
N109 Co99 2.128 . S
N109 C110 1.355 . S
N109 C112 1.311 . S
C110 N109 1.355 . S
C110 C111 1.363 . S
C110 H122 0.929 . S
C111 C110 1.363 . S
C111 N113 1.375 . S
C111 H129 0.931 . S
C112 N109 1.311 . S
C112 N113 1.347 . S
C112 H123 0.929 . S
N113 C111 1.375 . S
N113 C112 1.347 . S
C114 C117 1.365 . S
C114 N119 1.328 . S
C114 H120 0.929 . S
C115 C116 1.362 . S
C115 C118 1.378 . S
C115 H130 0.929 . S
C116 C115 1.362 . S
C116 C117 1.366 . S
C117 C114 1.365 . S
C117 C116 1.366 . S
C117 H131 0.930 . S
C118 C115 1.378 . S
C118 N119 1.315 . S
C118 H121 0.930 . S
N119 Co99 2.194 . S
N119 C114 1.328 . S
N119 C118 1.315 . S
H120 C114 0.929 . S
H121 C118 0.930 . S
H122 C110 0.929 . S
H123 C112 0.929 . S
O124 Co99 2.351 . S
O124 C127 1.244 . S
O125 Co99 2.155 . S
O125 C127 1.240 . S
O126 Co99 2.096 . S
O126 C107 1.247 . S
C127 O124 1.244 . S
C127 O125 1.240 . S
H128 C102 0.931 . S
H129 C111 0.931 . S
H130 C115 0.929 . S
H131 C117 0.930 . S
Co132 N136 2.148 . S
Co132 N142 2.128 . S
Co132 N152 2.194 . S
Co132 O157 2.351 . S
Co132 O158 2.155 . S
Co132 O159 2.096 . S
C133 N136 1.301 . S
C133 N137 1.328 . S
C133 H138 0.930 . S
C134 C135 1.333 . S
C134 N136 1.317 . S
C134 H139 0.930 . S
C135 C134 1.333 . S
C135 N137 1.350 . S
C135 H161 0.931 . S
N136 Co132 2.148 . S
N136 C133 1.301 . S
N136 C134 1.317 . S
N137 C133 1.328 . S
N137 C135 1.350 . S
H138 C133 0.930 . S
H139 C134 0.930 . S
C140 O141 1.224 . S
C140 O159 1.247 . S
O141 C140 1.224 . S
N142 Co132 2.128 . S
N142 C143 1.355 . S
N142 C145 1.311 1_556 S
C143 N142 1.355 . S
C143 C144 1.363 1_556 S
C143 H155 0.929 . S
C144 C143 1.363 1_554 S
C144 N146 1.375 . S
C144 H162 0.931 . S
C145 N142 1.311 1_554 S
C145 N146 1.347 . S
C145 H156 0.929 . S
N146 C144 1.375 . S
N146 C145 1.347 . S
C147 C150 1.365 . S
C147 N152 1.328 . S
C147 H153 0.929 . S
C148 C149 1.362 . S
C148 C151 1.378 . S
C148 H163 0.929 . S
C149 C148 1.362 . S
C149 C150 1.366 . S
C150 C147 1.365 . S
C150 C149 1.366 . S
C150 H164 0.930 . S
C151 C148 1.378 . S
C151 N152 1.315 . S
C151 H154 0.930 . S
N152 Co132 2.194 . S
N152 C147 1.328 . S
N152 C151 1.315 . S
H153 C147 0.929 . S
H154 C151 0.930 . S
H155 C143 0.929 . S
H156 C145 0.929 . S
O157 Co132 2.351 . S
O157 C160 1.244 . S
O158 Co132 2.155 . S
O158 C160 1.240 . S
O159 Co132 2.096 . S
O159 C140 1.247 . S
C160 O157 1.244 . S
C160 O158 1.240 . S
H161 C135 0.931 . S
H162 C144 0.931 . S
H163 C148 0.929 . S
H164 C150 0.930 . S
Co165 N169 2.148 . S
Co165 N175 2.128 . S
Co165 N185 2.194 . S
Co165 O190 2.351 . S
Co165 O191 2.155 . S
Co165 O192 2.096 . S
C166 N169 1.301 . S
C166 N170 1.328 . S
C166 H171 0.930 . S
C167 C168 1.333 . S
C167 N169 1.317 1_545 S
C167 H172 0.930 . S
C168 C167 1.333 . S
C168 N170 1.350 1_545 S
C168 H194 0.931 . S
N169 Co165 2.148 . S
N169 C166 1.301 . S
N169 C167 1.317 1_565 S
N170 C166 1.328 . S
N170 C168 1.350 1_565 S
H171 C166 0.930 . S
H172 C167 0.930 . S
C173 O174 1.224 . S
C173 O192 1.247 . S
O174 C173 1.224 . S
N175 Co165 2.128 . S
N175 C176 1.355 . S
N175 C178 1.311 . S
C176 N175 1.355 . S
C176 C177 1.363 . S
C176 H188 0.929 . S
C177 C176 1.363 . S
C177 N179 1.375 . S
C177 H195 0.931 . S
C178 N175 1.311 . S
C178 N179 1.347 . S
C178 H189 0.929 . S
N179 C177 1.375 . S
N179 C178 1.347 . S
C180 C183 1.365 . S
C180 N185 1.328 . S
C180 H186 0.929 . S
C181 C182 1.362 . S
C181 C184 1.378 . S
C181 H196 0.929 . S
C182 C181 1.362 . S
C182 C183 1.366 . S
C183 C180 1.365 . S
C183 C182 1.366 . S
C183 H197 0.930 . S
C184 C181 1.378 . S
C184 N185 1.315 . S
C184 H187 0.930 . S
N185 Co165 2.194 . S
N185 C180 1.328 . S
N185 C184 1.315 . S
H186 C180 0.929 . S
H187 C184 0.930 . S
H188 C176 0.929 . S
H189 C178 0.929 . S
O190 Co165 2.351 . S
O190 C193 1.244 . S
O191 Co165 2.155 . S
O191 C193 1.240 . S
O192 Co165 2.096 . S
O192 C173 1.247 . S
C193 O190 1.244 . S
C193 O191 1.240 . S
H194 C168 0.931 . S
H195 C177 0.931 . S
H196 C181 0.929 . S
H197 C183 0.930 . S
Co198 N202 2.148 . S
Co198 N208 2.128 . S
Co198 N218 2.194 . S
Co198 O223 2.351 . S
Co198 O224 2.155 . S
Co198 O225 2.096 . S
C199 N202 1.301 . S
C199 N203 1.328 . S
C199 H204 0.930 . S
C200 C201 1.333 . S
C200 N202 1.317 . S
C200 H205 0.930 . S
C201 C200 1.333 . S
C201 N203 1.350 . S
C201 H227 0.931 . S
N202 Co198 2.148 . S
N202 C199 1.301 . S
N202 C200 1.317 . S
N203 C199 1.328 . S
N203 C201 1.350 . S
H204 C199 0.930 . S
H205 C200 0.930 . S
C206 O207 1.224 . S
C206 O225 1.247 . S
O207 C206 1.224 . S
N208 Co198 2.128 . S
N208 C209 1.355 . S
N208 C211 1.311 . S
C209 N208 1.355 . S
C209 C210 1.363 . S
C209 H221 0.929 . S
C210 C209 1.363 . S
C210 N212 1.375 . S
C210 H228 0.931 . S
C211 N208 1.311 . S
C211 N212 1.347 . S
C211 H222 0.929 . S
N212 C210 1.375 . S
N212 C211 1.347 . S
C213 C216 1.365 . S
C213 N218 1.328 . S
C213 H219 0.929 . S
C214 C215 1.362 . S
C214 C217 1.378 . S
C214 H229 0.929 . S
C215 C214 1.362 . S
C215 C216 1.366 . S
C216 C213 1.365 . S
C216 C215 1.366 . S
C216 H230 0.930 . S
C217 C214 1.378 . S
C217 N218 1.315 . S
C217 H220 0.930 . S
N218 Co198 2.194 . S
N218 C213 1.328 . S
N218 C217 1.315 . S
H219 C213 0.929 . S
H220 C217 0.930 . S
H221 C209 0.929 . S
H222 C211 0.929 . S
O223 Co198 2.351 . S
O223 C226 1.244 . S
O224 Co198 2.155 . S
O224 C226 1.240 . S
O225 Co198 2.096 . S
O225 C206 1.247 . S
C226 O223 1.244 . S
C226 O224 1.240 . S
H227 C201 0.931 . S
H228 C210 0.931 . S
H229 C214 0.929 . S
H230 C216 0.930 . S
Co231 N235 2.148 . S
Co231 N241 2.128 . S
Co231 N251 2.194 . S
Co231 O256 2.351 . S
Co231 O257 2.155 . S
Co231 O258 2.096 . S
C232 N235 1.301 . S
C232 N236 1.328 . S
C232 H237 0.930 . S
C233 C234 1.333 . S
C233 N235 1.317 1_565 S
C233 H238 0.930 . S
C234 C233 1.333 . S
C234 N236 1.350 1_565 S
C234 H260 0.931 . S
N235 Co231 2.148 . S
N235 C232 1.301 . S
N235 C233 1.317 1_545 S
N236 C232 1.328 . S
N236 C234 1.350 1_545 S
H237 C232 0.930 . S
H238 C233 0.930 . S
C239 O240 1.224 . S
C239 O258 1.247 . S
O240 C239 1.224 . S
N241 Co231 2.128 . S
N241 C242 1.355 . S
N241 C244 1.311 . S
C242 N241 1.355 . S
C242 C243 1.363 . S
C242 H254 0.929 . S
C243 C242 1.363 . S
C243 N245 1.375 . S
C243 H261 0.931 . S
C244 N241 1.311 . S
C244 N245 1.347 . S
C244 H255 0.929 . S
N245 C243 1.375 . S
N245 C244 1.347 . S
C246 C249 1.365 . S
C246 N251 1.328 . S
C246 H252 0.929 . S
C247 C248 1.362 . S
C247 C250 1.378 . S
C247 H262 0.929 . S
C248 C247 1.362 . S
C248 C249 1.366 . S
C249 C246 1.365 . S
C249 C248 1.366 . S
C249 H263 0.930 . S
C250 C247 1.378 . S
C250 N251 1.315 . S
C250 H253 0.930 . S
N251 Co231 2.194 . S
N251 C246 1.328 . S
N251 C250 1.315 . S
H252 C246 0.929 . S
H253 C250 0.930 . S
H254 C242 0.929 . S
H255 C244 0.929 . S
O256 Co231 2.351 . S
O256 C259 1.244 . S
O257 Co231 2.155 . S
O257 C259 1.240 . S
O258 Co231 2.096 . S
O258 C239 1.247 . S
C259 O256 1.244 . S
C259 O257 1.240 . S
H260 C234 0.931 . S
H261 C243 0.931 . S
H262 C247 0.929 . S
H263 C249 0.930 . S
Co264 N268 2.148 . S
Co264 N274 2.128 . S
Co264 N284 2.194 . S
Co264 O289 2.351 . S
Co264 O290 2.155 . S
Co264 O291 2.096 . S
C265 N268 1.301 . S
C265 N269 1.328 . S
C265 H270 0.930 . S
C266 C267 1.333 . S
C266 N268 1.317 . S
C266 H271 0.930 . S
C267 C266 1.333 . S
C267 N269 1.350 . S
C267 H293 0.931 . S
N268 Co264 2.148 . S
N268 C265 1.301 . S
N268 C266 1.317 . S
N269 C265 1.328 . S
N269 C267 1.350 . S
H270 C265 0.930 . S
H271 C266 0.930 . S
C272 O273 1.224 . S
C272 O291 1.247 . S
O273 C272 1.224 . S
N274 Co264 2.128 . S
N274 C275 1.355 . S
N274 C277 1.311 1_556 S
C275 N274 1.355 . S
C275 C276 1.363 1_556 S
C275 H287 0.929 . S
C276 C275 1.363 1_554 S
C276 N278 1.375 . S
C276 H294 0.931 . S
C277 N274 1.311 1_554 S
C277 N278 1.347 . S
C277 H288 0.929 . S
N278 C276 1.375 . S
N278 C277 1.347 . S
C279 C282 1.365 . S
C279 N284 1.328 . S
C279 H285 0.929 . S
C280 C281 1.362 . S
C280 C283 1.378 . S
C280 H295 0.929 . S
C281 C280 1.362 . S
C281 C282 1.366 . S
C282 C279 1.365 . S
C282 C281 1.366 . S
C282 H296 0.930 . S
C283 C280 1.378 . S
C283 N284 1.315 . S
C283 H286 0.930 . S
N284 Co264 2.194 . S
N284 C279 1.328 . S
N284 C283 1.315 . S
H285 C279 0.929 . S
H286 C283 0.930 . S
H287 C275 0.929 . S
H288 C277 0.929 . S
O289 Co264 2.351 . S
O289 C292 1.244 . S
O290 Co264 2.155 . S
O290 C292 1.240 . S
O291 Co264 2.096 . S
O291 C272 1.247 . S
C292 O289 1.244 . S
C292 O290 1.240 . S
H293 C267 0.931 . S
H294 C276 0.931 . S
H295 C280 0.929 . S
H296 C282 0.930 . S
Co297 N301 2.148 . S
Co297 N307 2.128 . S
Co297 N317 2.194 . S
Co297 O322 2.351 . S
Co297 O323 2.155 . S
Co297 O324 2.096 . S
C298 N301 1.301 . S
C298 N302 1.328 . S
C298 H303 0.930 . S
C299 C300 1.333 . S
C299 N301 1.317 1_565 S
C299 H304 0.930 . S
C300 C299 1.333 . S
C300 N302 1.350 1_565 S
C300 H326 0.931 . S
N301 Co297 2.148 . S
N301 C298 1.301 . S
N301 C299 1.317 1_545 S
N302 C298 1.328 . S
N302 C300 1.350 1_545 S
H303 C298 0.930 . S
H304 C299 0.930 . S
C305 O306 1.224 . S
C305 O324 1.247 . S
O306 C305 1.224 . S
N307 Co297 2.128 . S
N307 C308 1.355 . S
N307 C310 1.311 . S
C308 N307 1.355 . S
C308 C309 1.363 . S
C308 H320 0.929 . S
C309 C308 1.363 . S
C309 N311 1.375 . S
C309 H327 0.931 . S
C310 N307 1.311 . S
C310 N311 1.347 . S
C310 H321 0.929 . S
N311 C309 1.375 . S
N311 C310 1.347 . S
C312 C315 1.365 . S
C312 N317 1.328 . S
C312 H318 0.929 . S
C313 C314 1.362 . S
C313 C316 1.378 . S
C313 H328 0.929 . S
C314 C313 1.362 . S
C314 C315 1.366 . S
C315 C312 1.365 . S
C315 C314 1.366 . S
C315 H329 0.930 . S
C316 C313 1.378 . S
C316 N317 1.315 . S
C316 H319 0.930 . S
N317 Co297 2.194 . S
N317 C312 1.328 . S
N317 C316 1.315 . S
H318 C312 0.929 . S
H319 C316 0.930 . S
H320 C308 0.929 . S
H321 C310 0.929 . S
O322 Co297 2.351 . S
O322 C325 1.244 . S
O323 Co297 2.155 . S
O323 C325 1.240 . S
O324 Co297 2.096 . S
O324 C305 1.247 . S
C325 O322 1.244 . S
C325 O323 1.240 . S
H326 C300 0.931 . S
H327 C309 0.931 . S
H328 C313 0.929 . S
H329 C315 0.930 . S
Co330 N334 2.148 . S
Co330 N340 2.128 . S
Co330 N350 2.194 . S
Co330 O355 2.351 . S
Co330 O356 2.155 . S
Co330 O357 2.096 . S
C331 N334 1.301 . S
C331 N335 1.328 . S
C331 H336 0.930 . S
C332 C333 1.333 . S
C332 N334 1.317 . S
C332 H337 0.930 . S
C333 C332 1.333 . S
C333 N335 1.350 . S
C333 H359 0.931 . S
N334 Co330 2.148 . S
N334 C331 1.301 . S
N334 C332 1.317 . S
N335 C331 1.328 . S
N335 C333 1.350 . S
H336 C331 0.930 . S
H337 C332 0.930 . S
C338 O339 1.224 . S
C338 O357 1.247 . S
O339 C338 1.224 . S
N340 Co330 2.128 . S
N340 C341 1.355 . S
N340 C343 1.311 . S
C341 N340 1.355 . S
C341 C342 1.363 . S
C341 H353 0.929 . S
C342 C341 1.363 . S
C342 N344 1.375 . S
C342 H360 0.931 . S
C343 N340 1.311 . S
C343 N344 1.347 . S
C343 H354 0.929 . S
N344 C342 1.375 . S
N344 C343 1.347 . S
C345 C348 1.365 . S
C345 N350 1.328 . S
C345 H351 0.929 . S
C346 C347 1.362 . S
C346 C349 1.378 . S
C346 H361 0.929 . S
C347 C346 1.362 . S
C347 C348 1.366 . S
C348 C345 1.365 . S
C348 C347 1.366 . S
C348 H362 0.930 . S
C349 C346 1.378 . S
C349 N350 1.315 . S
C349 H352 0.930 . S
N350 Co330 2.194 . S
N350 C345 1.328 . S
N350 C349 1.315 . S
H351 C345 0.929 . S
H352 C349 0.930 . S
H353 C341 0.929 . S
H354 C343 0.929 . S
O355 Co330 2.351 . S
O355 C358 1.244 . S
O356 Co330 2.155 . S
O356 C358 1.240 . S
O357 Co330 2.096 . S
O357 C338 1.247 . S
C358 O355 1.244 . S
C358 O356 1.240 . S
H359 C333 0.931 . S
H360 C342 0.931 . S
H361 C346 0.929 . S
H362 C348 0.930 . S
Co363 N367 2.148 . S
Co363 N373 2.128 . S
Co363 N383 2.194 . S
Co363 O388 2.351 . S
Co363 O389 2.155 . S
Co363 O390 2.096 . S
C364 N367 1.301 . S
C364 N368 1.328 . S
C364 H369 0.930 . S
C365 C366 1.333 . S
C365 N367 1.317 1_545 S
C365 H370 0.930 . S
C366 C365 1.333 . S
C366 N368 1.350 1_545 S
C366 H392 0.931 . S
N367 Co363 2.148 . S
N367 C364 1.301 . S
N367 C365 1.317 1_565 S
N368 C364 1.328 . S
N368 C366 1.350 1_565 S
H369 C364 0.930 . S
H370 C365 0.930 . S
C371 O372 1.224 . S
C371 O390 1.247 . S
O372 C371 1.224 . S
N373 Co363 2.128 . S
N373 C374 1.355 . S
N373 C376 1.311 . S
C374 N373 1.355 . S
C374 C375 1.363 . S
C374 H386 0.929 . S
C375 C374 1.363 . S
C375 N377 1.375 . S
C375 H393 0.931 . S
C376 N373 1.311 . S
C376 N377 1.347 . S
C376 H387 0.929 . S
N377 C375 1.375 . S
N377 C376 1.347 . S
C378 C381 1.365 . S
C378 N383 1.328 . S
C378 H384 0.929 . S
C379 C380 1.362 . S
C379 C382 1.378 . S
C379 H394 0.929 . S
C380 C379 1.362 . S
C380 C381 1.366 . S
C381 C378 1.365 . S
C381 C380 1.366 . S
C381 H395 0.930 . S
C382 C379 1.378 . S
C382 N383 1.315 . S
C382 H385 0.930 . S
N383 Co363 2.194 . S
N383 C378 1.328 . S
N383 C382 1.315 . S
H384 C378 0.929 . S
H385 C382 0.930 . S
H386 C374 0.929 . S
H387 C376 0.929 . S
O388 Co363 2.351 . S
O388 C391 1.244 . S
O389 Co363 2.155 . S
O389 C391 1.240 . S
O390 Co363 2.096 . S
O390 C371 1.247 . S
C391 O388 1.244 . S
C391 O389 1.240 . S
H392 C366 0.931 . S
H393 C375 0.931 . S
H394 C379 0.929 . S
H395 C381 0.930 . S
Co396 N400 2.148 . S
Co396 N406 2.128 . S
Co396 N416 2.194 . S
Co396 O421 2.351 . S
Co396 O422 2.155 . S
Co396 O423 2.096 . S
C397 N400 1.301 . S
C397 N401 1.328 . S
C397 H402 0.930 . S
C398 C399 1.333 . S
C398 N400 1.317 . S
C398 H403 0.930 . S
C399 C398 1.333 . S
C399 N401 1.350 . S
C399 H425 0.931 . S
N400 Co396 2.148 . S
N400 C397 1.301 . S
N400 C398 1.317 . S
N401 C397 1.328 . S
N401 C399 1.350 . S
H402 C397 0.930 . S
H403 C398 0.930 . S
C404 O405 1.224 . S
C404 O423 1.247 . S
O405 C404 1.224 . S
N406 Co396 2.128 . S
N406 C407 1.355 . S
N406 C409 1.311 1_554 S
C407 N406 1.355 . S
C407 C408 1.363 1_554 S
C407 H419 0.929 . S
C408 C407 1.363 1_556 S
C408 N410 1.375 . S
C408 H426 0.931 . S
C409 N406 1.311 1_556 S
C409 N410 1.347 . S
C409 H420 0.929 . S
N410 C408 1.375 . S
N410 C409 1.347 . S
C411 C414 1.365 . S
C411 N416 1.328 . S
C411 H417 0.929 . S
C412 C413 1.362 . S
C412 C415 1.378 . S
C412 H427 0.929 . S
C413 C412 1.362 . S
C413 C414 1.366 . S
C414 C411 1.365 . S
C414 C413 1.366 . S
C414 H428 0.930 . S
C415 C412 1.378 . S
C415 N416 1.315 . S
C415 H418 0.930 . S
N416 Co396 2.194 . S
N416 C411 1.328 . S
N416 C415 1.315 . S
H417 C411 0.929 . S
H418 C415 0.930 . S
H419 C407 0.929 . S
H420 C409 0.929 . S
O421 Co396 2.351 . S
O421 C424 1.244 . S
O422 Co396 2.155 . S
O422 C424 1.240 . S
O423 Co396 2.096 . S
O423 C404 1.247 . S
C424 O421 1.244 . S
C424 O422 1.240 . S
H425 C399 0.931 . S
H426 C408 0.931 . S
H427 C412 0.929 . S
H428 C414 0.930 . S
Co429 N433 2.148 . S
Co429 N439 2.128 . S
Co429 N449 2.194 . S
Co429 O454 2.351 . S
Co429 O455 2.155 . S
Co429 O456 2.096 . S
C430 N433 1.301 . S
C430 N434 1.328 . S
C430 H435 0.930 . S
C431 C432 1.333 . S
C431 N433 1.317 1_565 S
C431 H436 0.930 . S
C432 C431 1.333 . S
C432 N434 1.350 1_565 S
C432 H458 0.931 . S
N433 Co429 2.148 . S
N433 C430 1.301 . S
N433 C431 1.317 1_545 S
N434 C430 1.328 . S
N434 C432 1.350 1_545 S
H435 C430 0.930 . S
H436 C431 0.930 . S
C437 O438 1.224 . S
C437 O456 1.247 . S
O438 C437 1.224 . S
N439 Co429 2.128 . S
N439 C440 1.355 . S
N439 C442 1.311 . S
C440 N439 1.355 . S
C440 C441 1.363 . S
C440 H452 0.929 . S
C441 C440 1.363 . S
C441 N443 1.375 . S
C441 H459 0.931 . S
C442 N439 1.311 . S
C442 N443 1.347 . S
C442 H453 0.929 . S
N443 C441 1.375 . S
N443 C442 1.347 . S
C444 C447 1.365 . S
C444 N449 1.328 . S
C444 H450 0.929 . S
C445 C446 1.362 . S
C445 C448 1.378 . S
C445 H460 0.929 . S
C446 C445 1.362 . S
C446 C447 1.366 . S
C447 C444 1.365 . S
C447 C446 1.366 . S
C447 H461 0.930 . S
C448 C445 1.378 . S
C448 N449 1.315 . S
C448 H451 0.930 . S
N449 Co429 2.194 . S
N449 C444 1.328 . S
N449 C448 1.315 . S
H450 C444 0.929 . S
H451 C448 0.930 . S
H452 C440 0.929 . S
H453 C442 0.929 . S
O454 Co429 2.351 . S
O454 C457 1.244 . S
O455 Co429 2.155 . S
O455 C457 1.240 . S
O456 Co429 2.096 . S
O456 C437 1.247 . S
C457 O454 1.244 . S
C457 O455 1.240 . S
H458 C432 0.931 . S
H459 C441 0.931 . S
H460 C445 0.929 . S
H461 C447 0.930 . S
Co462 N466 2.148 . S
Co462 N472 2.128 . S
Co462 N482 2.194 . S
Co462 O487 2.351 . S
Co462 O488 2.155 . S
Co462 O489 2.096 . S
C463 N466 1.301 . S
C463 N467 1.328 . S
C463 H468 0.930 . S
C464 C465 1.333 . S
C464 N466 1.317 . S
C464 H469 0.930 . S
C465 C464 1.333 . S
C465 N467 1.350 . S
C465 H491 0.931 . S
N466 Co462 2.148 . S
N466 C463 1.301 . S
N466 C464 1.317 . S
N467 C463 1.328 . S
N467 C465 1.350 . S
H468 C463 0.930 . S
H469 C464 0.930 . S
C470 O471 1.224 . S
C470 O489 1.247 . S
O471 C470 1.224 . S
N472 Co462 2.128 . S
N472 C473 1.355 . S
N472 C475 1.311 . S
C473 N472 1.355 . S
C473 C474 1.363 . S
C473 H485 0.929 . S
C474 C473 1.363 . S
C474 N476 1.375 . S
C474 H492 0.931 . S
C475 N472 1.311 . S
C475 N476 1.347 . S
C475 H486 0.929 . S
N476 C474 1.375 . S
N476 C475 1.347 . S
C477 C480 1.365 . S
C477 N482 1.328 . S
C477 H483 0.929 . S
C478 C479 1.362 . S
C478 C481 1.378 . S
C478 H493 0.929 . S
C479 C478 1.362 . S
C479 C480 1.366 . S
C480 C477 1.365 . S
C480 C479 1.366 . S
C480 H494 0.930 . S
C481 C478 1.378 . S
C481 N482 1.315 . S
C481 H484 0.930 . S
N482 Co462 2.194 . S
N482 C477 1.328 . S
N482 C481 1.315 . S
H483 C477 0.929 . S
H484 C481 0.930 . S
H485 C473 0.929 . S
H486 C475 0.929 . S
O487 Co462 2.351 . S
O487 C490 1.244 . S
O488 Co462 2.155 . S
O488 C490 1.240 . S
O489 Co462 2.096 . S
O489 C470 1.247 . S
C490 O487 1.244 . S
C490 O488 1.240 . S
H491 C465 0.931 . S
H492 C474 0.931 . S
H493 C478 0.929 . S
H494 C480 0.930 . S
Co495 N499 2.148 . S
Co495 N505 2.128 . S
Co495 N515 2.194 . S
Co495 O520 2.351 . S
Co495 O521 2.155 . S
Co495 O522 2.096 . S
C496 N499 1.301 . S
C496 N500 1.328 . S
C496 H501 0.930 . S
C497 C498 1.333 . S
C497 N499 1.317 1_545 S
C497 H502 0.930 . S
C498 C497 1.333 . S
C498 N500 1.350 1_545 S
C498 H524 0.931 . S
N499 Co495 2.148 . S
N499 C496 1.301 . S
N499 C497 1.317 1_565 S
N500 C496 1.328 . S
N500 C498 1.350 1_565 S
H501 C496 0.930 . S
H502 C497 0.930 . S
C503 O504 1.224 . S
C503 O522 1.247 . S
O504 C503 1.224 . S
N505 Co495 2.128 . S
N505 C506 1.355 . S
N505 C508 1.311 . S
C506 N505 1.355 . S
C506 C507 1.363 . S
C506 H518 0.929 . S
C507 C506 1.363 . S
C507 N509 1.375 . S
C507 H525 0.931 . S
C508 N505 1.311 . S
C508 N509 1.347 . S
C508 H519 0.929 . S
N509 C507 1.375 . S
N509 C508 1.347 . S
C510 C513 1.365 . S
C510 N515 1.328 . S
C510 H516 0.929 . S
C511 C512 1.362 . S
C511 C514 1.378 . S
C511 H526 0.929 . S
C512 C511 1.362 . S
C512 C513 1.366 . S
C513 C510 1.365 . S
C513 C512 1.366 . S
C513 H527 0.930 . S
C514 C511 1.378 . S
C514 N515 1.315 . S
C514 H517 0.930 . S
N515 Co495 2.194 . S
N515 C510 1.328 . S
N515 C514 1.315 . S
H516 C510 0.929 . S
H517 C514 0.930 . S
H518 C506 0.929 . S
H519 C508 0.929 . S
O520 Co495 2.351 . S
O520 C523 1.244 . S
O521 Co495 2.155 . S
O521 C523 1.240 . S
O522 Co495 2.096 . S
O522 C503 1.247 . S
C523 O520 1.244 . S
C523 O521 1.240 . S
H524 C498 0.931 . S
H525 C507 0.931 . S
H526 C511 0.929 . S
H527 C513 0.930 . S
Co528 N532 2.148 . S
Co528 N538 2.128 . S
Co528 N548 2.194 . S
Co528 O553 2.351 . S
Co528 O554 2.155 . S
Co528 O555 2.096 . S
C529 N532 1.301 . S
C529 N533 1.328 . S
C529 H534 0.930 . S
C530 C531 1.333 . S
C530 N532 1.317 . S
C530 H535 0.930 . S
C531 C530 1.333 . S
C531 N533 1.350 . S
C531 H557 0.931 . S
N532 Co528 2.148 . S
N532 C529 1.301 . S
N532 C530 1.317 . S
N533 C529 1.328 . S
N533 C531 1.350 . S
H534 C529 0.930 . S
H535 C530 0.930 . S
C536 O537 1.224 . S
C536 O555 1.247 . S
O537 C536 1.224 . S
N538 Co528 2.128 . S
N538 C539 1.355 . S
N538 C541 1.311 . S
C539 N538 1.355 . S
C539 C540 1.363 . S
C539 H551 0.929 . S
C540 C539 1.363 . S
C540 N542 1.375 . S
C540 H558 0.931 . S
C541 N538 1.311 . S
C541 N542 1.347 . S
C541 H552 0.929 . S
N542 C540 1.375 . S
N542 C541 1.347 . S
C543 C546 1.365 . S
C543 N548 1.328 . S
C543 H549 0.929 . S
C544 C545 1.362 . S
C544 C547 1.378 . S
C544 H559 0.929 . S
C545 C544 1.362 . S
C545 C546 1.366 . S
C546 C543 1.365 . S
C546 C545 1.366 . S
C546 H560 0.930 . S
C547 C544 1.378 . S
C547 N548 1.315 . S
C547 H550 0.930 . S
N548 Co528 2.194 . S
N548 C543 1.328 . S
N548 C547 1.315 . S
H549 C543 0.929 . S
H550 C547 0.930 . S
H551 C539 0.929 . S
H552 C541 0.929 . S
O553 Co528 2.351 . S
O553 C556 1.244 . S
O554 Co528 2.155 . S
O554 C556 1.240 . S
O555 Co528 2.096 . S
O555 C536 1.247 . S
C556 O553 1.244 . S
C556 O554 1.240 . S
H557 C531 0.931 . S
H558 C540 0.931 . S
H559 C544 0.929 . S
H560 C546 0.930 . S
Co561 N565 2.148 . S
Co561 N571 2.128 . S
Co561 N581 2.194 . S
Co561 O586 2.351 . S
Co561 O587 2.155 . S
Co561 O588 2.096 . S
C562 N565 1.301 . S
C562 N566 1.328 . S
C562 H567 0.930 . S
C563 C564 1.333 . S
C563 N565 1.317 . S
C563 H568 0.930 . S
C564 C563 1.333 . S
C564 N566 1.350 . S
C564 H590 0.931 . S
N565 Co561 2.148 . S
N565 C562 1.301 . S
N565 C563 1.317 . S
N566 C562 1.328 . S
N566 C564 1.350 . S
H567 C562 0.930 . S
H568 C563 0.930 . S
C569 O570 1.224 . S
C569 O588 1.247 . S
O570 C569 1.224 . S
N571 Co561 2.128 . S
N571 C572 1.355 . S
N571 C574 1.311 . S
C572 N571 1.355 . S
C572 C573 1.363 . S
C572 H584 0.929 . S
C573 C572 1.363 . S
C573 N575 1.375 . S
C573 H591 0.931 . S
C574 N571 1.311 . S
C574 N575 1.347 . S
C574 H585 0.929 . S
N575 C573 1.375 . S
N575 C574 1.347 . S
C576 C579 1.365 . S
C576 N581 1.328 . S
C576 H582 0.929 . S
C577 C578 1.362 . S
C577 C580 1.378 . S
C577 H592 0.929 . S
C578 C577 1.362 . S
C578 C579 1.366 . S
C579 C576 1.365 . S
C579 C578 1.366 . S
C579 H593 0.930 . S
C580 C577 1.378 . S
C580 N581 1.315 . S
C580 H583 0.930 . S
N581 Co561 2.194 . S
N581 C576 1.328 . S
N581 C580 1.315 . S
H582 C576 0.929 . S
H583 C580 0.930 . S
H584 C572 0.929 . S
H585 C574 0.929 . S
O586 Co561 2.351 . S
O586 C589 1.244 . S
O587 Co561 2.155 . S
O587 C589 1.240 . S
O588 Co561 2.096 . S
O588 C569 1.247 . S
C589 O586 1.244 . S
C589 O587 1.240 . S
H590 C564 0.931 . S
H591 C573 0.931 . S
H592 C577 0.929 . S
H593 C579 0.930 . S
Co594 N598 2.148 . S
Co594 N604 2.128 . S
Co594 N614 2.194 . S
Co594 O619 2.351 . S
Co594 O620 2.155 . S
Co594 O621 2.096 . S
C595 N598 1.301 . S
C595 N599 1.328 . S
C595 H600 0.930 . S
C596 C597 1.333 . S
C596 N598 1.317 . S
C596 H601 0.930 . S
C597 C596 1.333 . S
C597 N599 1.350 . S
C597 H623 0.931 . S
N598 Co594 2.148 . S
N598 C595 1.301 . S
N598 C596 1.317 . S
N599 C595 1.328 . S
N599 C597 1.350 . S
H600 C595 0.930 . S
H601 C596 0.930 . S
C602 O603 1.224 . S
C602 O621 1.247 . S
O603 C602 1.224 . S
N604 Co594 2.128 . S
N604 C605 1.355 . S
N604 C607 1.311 1_554 S
C605 N604 1.355 . S
C605 C606 1.363 1_554 S
C605 H617 0.929 . S
C606 C605 1.363 1_556 S
C606 N608 1.375 . S
C606 H624 0.931 . S
C607 N604 1.311 1_556 S
C607 N608 1.347 . S
C607 H618 0.929 . S
N608 C606 1.375 . S
N608 C607 1.347 . S
C609 C612 1.365 . S
C609 N614 1.328 . S
C609 H615 0.929 . S
C610 C611 1.362 . S
C610 C613 1.378 . S
C610 H625 0.929 . S
C611 C610 1.362 . S
C611 C612 1.366 . S
C612 C609 1.365 . S
C612 C611 1.366 . S
C612 H626 0.930 . S
C613 C610 1.378 . S
C613 N614 1.315 . S
C613 H616 0.930 . S
N614 Co594 2.194 . S
N614 C609 1.328 . S
N614 C613 1.315 . S
H615 C609 0.929 . S
H616 C613 0.930 . S
H617 C605 0.929 . S
H618 C607 0.929 . S
O619 Co594 2.351 . S
O619 C622 1.244 . S
O620 Co594 2.155 . S
O620 C622 1.240 . S
O621 Co594 2.096 . S
O621 C602 1.247 . S
C622 O619 1.244 . S
C622 O620 1.240 . S
H623 C597 0.931 . S
H624 C606 0.931 . S
H625 C610 0.929 . S
H626 C612 0.930 . S
Co627 N631 2.148 . S
Co627 N637 2.128 . S
Co627 N647 2.194 . S
Co627 O652 2.351 . S
Co627 O653 2.155 . S
Co627 O654 2.096 . S
C628 N631 1.301 . S
C628 N632 1.328 . S
C628 H633 0.930 . S
C629 C630 1.333 . S
C629 N631 1.317 . S
C629 H634 0.930 . S
C630 C629 1.333 . S
C630 N632 1.350 . S
C630 H656 0.931 . S
N631 Co627 2.148 . S
N631 C628 1.301 . S
N631 C629 1.317 . S
N632 C628 1.328 . S
N632 C630 1.350 . S
H633 C628 0.930 . S
H634 C629 0.930 . S
C635 O636 1.224 . S
C635 O654 1.247 . S
O636 C635 1.224 . S
N637 Co627 2.128 . S
N637 C638 1.355 . S
N637 C640 1.311 . S
C638 N637 1.355 . S
C638 C639 1.363 . S
C638 H650 0.929 . S
C639 C638 1.363 . S
C639 N641 1.375 . S
C639 H657 0.931 . S
C640 N637 1.311 . S
C640 N641 1.347 . S
C640 H651 0.929 . S
N641 C639 1.375 . S
N641 C640 1.347 . S
C642 C645 1.365 . S
C642 N647 1.328 . S
C642 H648 0.929 . S
C643 C644 1.362 . S
C643 C646 1.378 . S
C643 H658 0.929 . S
C644 C643 1.362 . S
C644 C645 1.366 . S
C645 C642 1.365 . S
C645 C644 1.366 . S
C645 H659 0.930 . S
C646 C643 1.378 . S
C646 N647 1.315 . S
C646 H649 0.930 . S
N647 Co627 2.194 . S
N647 C642 1.328 . S
N647 C646 1.315 . S
H648 C642 0.929 . S
H649 C646 0.930 . S
H650 C638 0.929 . S
H651 C640 0.929 . S
O652 Co627 2.351 . S
O652 C655 1.244 . S
O653 Co627 2.155 . S
O653 C655 1.240 . S
O654 Co627 2.096 . S
O654 C635 1.247 . S
C655 O652 1.244 . S
C655 O653 1.240 . S
H656 C630 0.931 . S
H657 C639 0.931 . S
H658 C643 0.929 . S
H659 C645 0.930 . S
Co660 N664 2.148 . S
Co660 N670 2.128 . S
Co660 N680 2.194 . S
Co660 O685 2.351 . S
Co660 O686 2.155 . S
Co660 O687 2.096 . S
C661 N664 1.301 . S
C661 N665 1.328 . S
C661 H666 0.930 . S
C662 C663 1.333 . S
C662 N664 1.317 . S
C662 H667 0.930 . S
C663 C662 1.333 . S
C663 N665 1.350 . S
C663 H689 0.931 . S
N664 Co660 2.148 . S
N664 C661 1.301 . S
N664 C662 1.317 . S
N665 C661 1.328 . S
N665 C663 1.350 . S
H666 C661 0.930 . S
H667 C662 0.930 . S
C668 O669 1.224 . S
C668 O687 1.247 . S
O669 C668 1.224 . S
N670 Co660 2.128 . S
N670 C671 1.355 . S
N670 C673 1.311 . S
C671 N670 1.355 . S
C671 C672 1.363 . S
C671 H683 0.929 . S
C672 C671 1.363 . S
C672 N674 1.375 . S
C672 H690 0.931 . S
C673 N670 1.311 . S
C673 N674 1.347 . S
C673 H684 0.929 . S
N674 C672 1.375 . S
N674 C673 1.347 . S
C675 C678 1.365 . S
C675 N680 1.328 . S
C675 H681 0.929 . S
C676 C677 1.362 . S
C676 C679 1.378 . S
C676 H691 0.929 . S
C677 C676 1.362 . S
C677 C678 1.366 . S
C678 C675 1.365 . S
C678 C677 1.366 . S
C678 H692 0.930 . S
C679 C676 1.378 . S
C679 N680 1.315 . S
C679 H682 0.930 . S
N680 Co660 2.194 . S
N680 C675 1.328 . S
N680 C679 1.315 . S
H681 C675 0.929 . S
H682 C679 0.930 . S
H683 C671 0.929 . S
H684 C673 0.929 . S
O685 Co660 2.351 . S
O685 C688 1.244 . S
O686 Co660 2.155 . S
O686 C688 1.240 . S
O687 Co660 2.096 . S
O687 C668 1.247 . S
C688 O685 1.244 . S
C688 O686 1.240 . S
H689 C663 0.931 . S
H690 C672 0.931 . S
H691 C676 0.929 . S
H692 C678 0.930 . S
Co693 N697 2.148 . S
Co693 N703 2.128 . S
Co693 N713 2.194 . S
Co693 O718 2.351 . S
Co693 O719 2.155 . S
Co693 O720 2.096 . S
C694 N697 1.301 . S
C694 N698 1.328 . S
C694 H699 0.930 . S
C695 C696 1.333 . S
C695 N697 1.317 . S
C695 H700 0.930 . S
C696 C695 1.333 . S
C696 N698 1.350 . S
C696 H722 0.931 . S
N697 Co693 2.148 . S
N697 C694 1.301 . S
N697 C695 1.317 . S
N698 C694 1.328 . S
N698 C696 1.350 . S
H699 C694 0.930 . S
H700 C695 0.930 . S
C701 O702 1.224 . S
C701 O720 1.247 . S
O702 C701 1.224 . S
N703 Co693 2.128 . S
N703 C704 1.355 . S
N703 C706 1.311 . S
C704 N703 1.355 . S
C704 C705 1.363 . S
C704 H716 0.929 . S
C705 C704 1.363 . S
C705 N707 1.375 . S
C705 H723 0.931 . S
C706 N703 1.311 . S
C706 N707 1.347 . S
C706 H717 0.929 . S
N707 C705 1.375 . S
N707 C706 1.347 . S
C708 C711 1.365 . S
C708 N713 1.328 . S
C708 H714 0.929 . S
C709 C710 1.362 . S
C709 C712 1.378 . S
C709 H724 0.929 . S
C710 C709 1.362 . S
C710 C711 1.366 . S
C711 C708 1.365 . S
C711 C710 1.366 . S
C711 H725 0.930 . S
C712 C709 1.378 . S
C712 N713 1.315 . S
C712 H715 0.930 . S
N713 Co693 2.194 . S
N713 C708 1.328 . S
N713 C712 1.315 . S
H714 C708 0.929 . S
H715 C712 0.930 . S
H716 C704 0.929 . S
H717 C706 0.929 . S
O718 Co693 2.351 . S
O718 C721 1.244 . S
O719 Co693 2.155 . S
O719 C721 1.240 . S
O720 Co693 2.096 . S
O720 C701 1.247 . S
C721 O718 1.244 . S
C721 O719 1.240 . S
H722 C696 0.931 . S
H723 C705 0.931 . S
H724 C709 0.929 . S
H725 C711 0.930 . S
Co726 N730 2.148 . S
Co726 N736 2.128 . S
Co726 N746 2.194 . S
Co726 O751 2.351 . S
Co726 O752 2.155 . S
Co726 O753 2.096 . S
C727 N730 1.301 . S
C727 N731 1.328 . S
C727 H732 0.930 . S
C728 C729 1.333 . S
C728 N730 1.317 . S
C728 H733 0.930 . S
C729 C728 1.333 . S
C729 N731 1.350 . S
C729 H755 0.931 . S
N730 Co726 2.148 . S
N730 C727 1.301 . S
N730 C728 1.317 . S
N731 C727 1.328 . S
N731 C729 1.350 . S
H732 C727 0.930 . S
H733 C728 0.930 . S
C734 O735 1.224 . S
C734 O753 1.247 . S
O735 C734 1.224 . S
N736 Co726 2.128 . S
N736 C737 1.355 . S
N736 C739 1.311 1_556 S
C737 N736 1.355 . S
C737 C738 1.363 1_556 S
C737 H749 0.929 . S
C738 C737 1.363 1_554 S
C738 N740 1.375 . S
C738 H756 0.931 . S
C739 N736 1.311 1_554 S
C739 N740 1.347 . S
C739 H750 0.929 . S
N740 C738 1.375 . S
N740 C739 1.347 . S
C741 C744 1.365 . S
C741 N746 1.328 . S
C741 H747 0.929 . S
C742 C743 1.362 . S
C742 C745 1.378 . S
C742 H757 0.929 . S
C743 C742 1.362 . S
C743 C744 1.366 . S
C744 C741 1.365 . S
C744 C743 1.366 . S
C744 H758 0.930 . S
C745 C742 1.378 . S
C745 N746 1.315 . S
C745 H748 0.930 . S
N746 Co726 2.194 . S
N746 C741 1.328 . S
N746 C745 1.315 . S
H747 C741 0.929 . S
H748 C745 0.930 . S
H749 C737 0.929 . S
H750 C739 0.929 . S
O751 Co726 2.351 . S
O751 C754 1.244 . S
O752 Co726 2.155 . S
O752 C754 1.240 . S
O753 Co726 2.096 . S
O753 C734 1.247 . S
C754 O751 1.244 . S
C754 O752 1.240 . S
H755 C729 0.931 . S
H756 C738 0.931 . S
H757 C742 0.929 . S
H758 C744 0.930 . S
Co759 N763 2.148 . S
Co759 N769 2.128 . S
Co759 N779 2.194 . S
Co759 O784 2.351 . S
Co759 O785 2.155 . S
Co759 O786 2.096 . S
C760 N763 1.301 . S
C760 N764 1.328 . S
C760 H765 0.930 . S
C761 C762 1.333 . S
C761 N763 1.317 . S
C761 H766 0.930 . S
C762 C761 1.333 . S
C762 N764 1.350 . S
C762 H788 0.931 . S
N763 Co759 2.148 . S
N763 C760 1.301 . S
N763 C761 1.317 . S
N764 C760 1.328 . S
N764 C762 1.350 . S
H765 C760 0.930 . S
H766 C761 0.930 . S
C767 O768 1.224 . S
C767 O786 1.247 . S
O768 C767 1.224 . S
N769 Co759 2.128 . S
N769 C770 1.355 . S
N769 C772 1.311 . S
C770 N769 1.355 . S
C770 C771 1.363 . S
C770 H782 0.929 . S
C771 C770 1.363 . S
C771 N773 1.375 . S
C771 H789 0.931 . S
C772 N769 1.311 . S
C772 N773 1.347 . S
C772 H783 0.929 . S
N773 C771 1.375 . S
N773 C772 1.347 . S
C774 C777 1.365 . S
C774 N779 1.328 . S
C774 H780 0.929 . S
C775 C776 1.362 . S
C775 C778 1.378 . S
C775 H790 0.929 . S
C776 C775 1.362 . S
C776 C777 1.366 . S
C777 C774 1.365 . S
C777 C776 1.366 . S
C777 H791 0.930 . S
C778 C775 1.378 . S
C778 N779 1.315 . S
C778 H781 0.930 . S
N779 Co759 2.194 . S
N779 C774 1.328 . S
N779 C778 1.315 . S
H780 C774 0.929 . S
H781 C778 0.930 . S
H782 C770 0.929 . S
H783 C772 0.929 . S
O784 Co759 2.351 . S
O784 C787 1.244 . S
O785 Co759 2.155 . S
O785 C787 1.240 . S
O786 Co759 2.096 . S
O786 C767 1.247 . S
C787 O784 1.244 . S
C787 O785 1.240 . S
H788 C762 0.931 . S
H789 C771 0.931 . S
H790 C775 0.929 . S
H791 C777 0.930 . S
Co792 N796 2.148 . S
Co792 N802 2.128 . S
Co792 N812 2.194 . S
Co792 O817 2.351 . S
Co792 O818 2.155 . S
Co792 O819 2.096 . S
C793 N796 1.301 . S
C793 N797 1.328 . S
C793 H798 0.930 . S
C794 C795 1.333 . S
C794 N796 1.317 . S
C794 H799 0.930 . S
C795 C794 1.333 . S
C795 N797 1.350 . S
C795 H821 0.931 . S
N796 Co792 2.148 . S
N796 C793 1.301 . S
N796 C794 1.317 . S
N797 C793 1.328 . S
N797 C795 1.350 . S
H798 C793 0.930 . S
H799 C794 0.930 . S
C800 O801 1.224 . S
C800 O819 1.247 . S
O801 C800 1.224 . S
N802 Co792 2.128 . S
N802 C803 1.355 . S
N802 C805 1.311 . S
C803 N802 1.355 . S
C803 C804 1.363 . S
C803 H815 0.929 . S
C804 C803 1.363 . S
C804 N806 1.375 . S
C804 H822 0.931 . S
C805 N802 1.311 . S
C805 N806 1.347 . S
C805 H816 0.929 . S
N806 C804 1.375 . S
N806 C805 1.347 . S
C807 C810 1.365 . S
C807 N812 1.328 . S
C807 H813 0.929 . S
C808 C809 1.362 . S
C808 C811 1.378 . S
C808 H823 0.929 . S
C809 C808 1.362 . S
C809 C810 1.366 . S
C810 C807 1.365 . S
C810 C809 1.366 . S
C810 H824 0.930 . S
C811 C808 1.378 . S
C811 N812 1.315 . S
C811 H814 0.930 . S
N812 Co792 2.194 . S
N812 C807 1.328 . S
N812 C811 1.315 . S
H813 C807 0.929 . S
H814 C811 0.930 . S
H815 C803 0.929 . S
H816 C805 0.929 . S
O817 Co792 2.351 . S
O817 C820 1.244 . S
O818 Co792 2.155 . S
O818 C820 1.240 . S
O819 Co792 2.096 . S
O819 C800 1.247 . S
C820 O817 1.244 . S
C820 O818 1.240 . S
H821 C795 0.931 . S
H822 C804 0.931 . S
H823 C808 0.929 . S
H824 C810 0.930 . S
Co825 N829 2.148 . S
Co825 N835 2.128 . S
Co825 N845 2.194 . S
Co825 O850 2.351 . S
Co825 O851 2.155 . S
Co825 O852 2.096 . S
C826 N829 1.301 . S
C826 N830 1.328 . S
C826 H831 0.930 . S
C827 C828 1.333 . S
C827 N829 1.317 . S
C827 H832 0.930 . S
C828 C827 1.333 . S
C828 N830 1.350 . S
C828 H854 0.931 . S
N829 Co825 2.148 . S
N829 C826 1.301 . S
N829 C827 1.317 . S
N830 C826 1.328 . S
N830 C828 1.350 . S
H831 C826 0.930 . S
H832 C827 0.930 . S
C833 O834 1.224 . S
C833 O852 1.247 . S
O834 C833 1.224 . S
N835 Co825 2.128 . S
N835 C836 1.355 . S
N835 C838 1.311 . S
C836 N835 1.355 . S
C836 C837 1.363 . S
C836 H848 0.929 . S
C837 C836 1.363 . S
C837 N839 1.375 . S
C837 H855 0.931 . S
C838 N835 1.311 . S
C838 N839 1.347 . S
C838 H849 0.929 . S
N839 C837 1.375 . S
N839 C838 1.347 . S
C840 C843 1.365 . S
C840 N845 1.328 . S
C840 H846 0.929 . S
C841 C842 1.362 . S
C841 C844 1.378 . S
C841 H856 0.929 . S
C842 C841 1.362 . S
C842 C843 1.366 . S
C843 C840 1.365 . S
C843 C842 1.366 . S
C843 H857 0.930 . S
C844 C841 1.378 . S
C844 N845 1.315 . S
C844 H847 0.930 . S
N845 Co825 2.194 . S
N845 C840 1.328 . S
N845 C844 1.315 . S
H846 C840 0.929 . S
H847 C844 0.930 . S
H848 C836 0.929 . S
H849 C838 0.929 . S
O850 Co825 2.351 . S
O850 C853 1.244 . S
O851 Co825 2.155 . S
O851 C853 1.240 . S
O852 Co825 2.096 . S
O852 C833 1.247 . S
C853 O850 1.244 . S
C853 O851 1.240 . S
H854 C828 0.931 . S
H855 C837 0.931 . S
H856 C841 0.929 . S
H857 C843 0.930 . S
Co858 N862 2.148 . S
Co858 N868 2.128 . S
Co858 N878 2.194 . S
Co858 O883 2.351 . S
Co858 O884 2.155 . S
Co858 O885 2.096 . S
C859 N862 1.301 . S
C859 N863 1.328 . S
C859 H864 0.930 . S
C860 C861 1.333 . S
C860 N862 1.317 . S
C860 H865 0.930 . S
C861 C860 1.333 . S
C861 N863 1.350 . S
C861 H887 0.931 . S
N862 Co858 2.148 . S
N862 C859 1.301 . S
N862 C860 1.317 . S
N863 C859 1.328 . S
N863 C861 1.350 . S
H864 C859 0.930 . S
H865 C860 0.930 . S
C866 O867 1.224 . S
C866 O885 1.247 . S
O867 C866 1.224 . S
N868 Co858 2.128 . S
N868 C869 1.355 . S
N868 C871 1.311 1_556 S
C869 N868 1.355 . S
C869 C870 1.363 1_556 S
C869 H881 0.929 . S
C870 C869 1.363 1_554 S
C870 N872 1.375 . S
C870 H888 0.931 . S
C871 N868 1.311 1_554 S
C871 N872 1.347 . S
C871 H882 0.929 . S
N872 C870 1.375 . S
N872 C871 1.347 . S
C873 C876 1.365 . S
C873 N878 1.328 . S
C873 H879 0.929 . S
C874 C875 1.362 . S
C874 C877 1.378 . S
C874 H889 0.929 . S
C875 C874 1.362 . S
C875 C876 1.366 . S
C876 C873 1.365 . S
C876 C875 1.366 . S
C876 H890 0.930 . S
C877 C874 1.378 . S
C877 N878 1.315 . S
C877 H880 0.930 . S
N878 Co858 2.194 . S
N878 C873 1.328 . S
N878 C877 1.315 . S
H879 C873 0.929 . S
H880 C877 0.930 . S
H881 C869 0.929 . S
H882 C871 0.929 . S
O883 Co858 2.351 . S
O883 C886 1.244 . S
O884 Co858 2.155 . S
O884 C886 1.240 . S
O885 Co858 2.096 . S
O885 C866 1.247 . S
C886 O883 1.244 . S
C886 O884 1.240 . S
H887 C861 0.931 . S
H888 C870 0.931 . S
H889 C874 0.929 . S
H890 C876 0.930 . S
Co891 N895 2.148 . S
Co891 N901 2.128 . S
Co891 N911 2.194 . S
Co891 O916 2.351 . S
Co891 O917 2.155 . S
Co891 O918 2.096 . S
C892 N895 1.301 . S
C892 N896 1.328 . S
C892 H897 0.930 . S
C893 C894 1.333 . S
C893 N895 1.317 . S
C893 H898 0.930 . S
C894 C893 1.333 . S
C894 N896 1.350 . S
C894 H920 0.931 . S
N895 Co891 2.148 . S
N895 C892 1.301 . S
N895 C893 1.317 . S
N896 C892 1.328 . S
N896 C894 1.350 . S
H897 C892 0.930 . S
H898 C893 0.930 . S
C899 O900 1.224 . S
C899 O918 1.247 . S
O900 C899 1.224 . S
N901 Co891 2.128 . S
N901 C902 1.355 . S
N901 C904 1.311 . S
C902 N901 1.355 . S
C902 C903 1.363 . S
C902 H914 0.929 . S
C903 C902 1.363 . S
C903 N905 1.375 . S
C903 H921 0.931 . S
C904 N901 1.311 . S
C904 N905 1.347 . S
C904 H915 0.929 . S
N905 C903 1.375 . S
N905 C904 1.347 . S
C906 C909 1.365 . S
C906 N911 1.328 . S
C906 H912 0.929 . S
C907 C908 1.362 . S
C907 C910 1.378 . S
C907 H922 0.929 . S
C908 C907 1.362 . S
C908 C909 1.366 . S
C909 C906 1.365 . S
C909 C908 1.366 . S
C909 H923 0.930 . S
C910 C907 1.378 . S
C910 N911 1.315 . S
C910 H913 0.930 . S
N911 Co891 2.194 . S
N911 C906 1.328 . S
N911 C910 1.315 . S
H912 C906 0.929 . S
H913 C910 0.930 . S
H914 C902 0.929 . S
H915 C904 0.929 . S
O916 Co891 2.351 . S
O916 C919 1.244 . S
O917 Co891 2.155 . S
O917 C919 1.240 . S
O918 Co891 2.096 . S
O918 C899 1.247 . S
C919 O916 1.244 . S
C919 O917 1.240 . S
H920 C894 0.931 . S
H921 C903 0.931 . S
H922 C907 0.929 . S
H923 C909 0.930 . S
Co924 N928 2.148 . S
Co924 N934 2.128 . S
Co924 N944 2.194 . S
Co924 O949 2.351 . S
Co924 O950 2.155 . S
Co924 O951 2.096 . S
C925 N928 1.301 . S
C925 N929 1.328 . S
C925 H930 0.930 . S
C926 C927 1.333 . S
C926 N928 1.317 . S
C926 H931 0.930 . S
C927 C926 1.333 . S
C927 N929 1.350 . S
C927 H953 0.931 . S
N928 Co924 2.148 . S
N928 C925 1.301 . S
N928 C926 1.317 . S
N929 C925 1.328 . S
N929 C927 1.350 . S
H930 C925 0.930 . S
H931 C926 0.930 . S
C932 O933 1.224 . S
C932 O951 1.247 . S
O933 C932 1.224 . S
N934 Co924 2.128 . S
N934 C935 1.355 . S
N934 C937 1.311 . S
C935 N934 1.355 . S
C935 C936 1.363 . S
C935 H947 0.929 . S
C936 C935 1.363 . S
C936 N938 1.375 . S
C936 H954 0.931 . S
C937 N934 1.311 . S
C937 N938 1.347 . S
C937 H948 0.929 . S
N938 C936 1.375 . S
N938 C937 1.347 . S
C939 C942 1.365 . S
C939 N944 1.328 . S
C939 H945 0.929 . S
C940 C941 1.362 . S
C940 C943 1.378 . S
C940 H955 0.929 . S
C941 C940 1.362 . S
C941 C942 1.366 . S
C942 C939 1.365 . S
C942 C941 1.366 . S
C942 H956 0.930 . S
C943 C940 1.378 . S
C943 N944 1.315 . S
C943 H946 0.930 . S
N944 Co924 2.194 . S
N944 C939 1.328 . S
N944 C943 1.315 . S
H945 C939 0.929 . S
H946 C943 0.930 . S
H947 C935 0.929 . S
H948 C937 0.929 . S
O949 Co924 2.351 . S
O949 C952 1.244 . S
O950 Co924 2.155 . S
O950 C952 1.240 . S
O951 Co924 2.096 . S
O951 C932 1.247 . S
C952 O949 1.244 . S
C952 O950 1.240 . S
H953 C927 0.931 . S
H954 C936 0.931 . S
H955 C940 0.929 . S
H956 C942 0.930 . S
Co957 N961 2.148 . S
Co957 N967 2.128 . S
Co957 N977 2.194 . S
Co957 O982 2.351 . S
Co957 O983 2.155 . S
Co957 O984 2.096 . S
C958 N961 1.301 . S
C958 N962 1.328 . S
C958 H963 0.930 . S
C959 C960 1.333 . S
C959 N961 1.317 . S
C959 H964 0.930 . S
C960 C959 1.333 . S
C960 N962 1.350 . S
C960 H986 0.931 . S
N961 Co957 2.148 . S
N961 C958 1.301 . S
N961 C959 1.317 . S
N962 C958 1.328 . S
N962 C960 1.350 . S
H963 C958 0.930 . S
H964 C959 0.930 . S
C965 O966 1.224 . S
C965 O984 1.247 . S
O966 C965 1.224 . S
N967 Co957 2.128 . S
N967 C968 1.355 . S
N967 C970 1.311 . S
C968 N967 1.355 . S
C968 C969 1.363 . S
C968 H980 0.929 . S
C969 C968 1.363 . S
C969 N971 1.375 . S
C969 H987 0.931 . S
C970 N967 1.311 . S
C970 N971 1.347 . S
C970 H981 0.929 . S
N971 C969 1.375 . S
N971 C970 1.347 . S
C972 C975 1.365 . S
C972 N977 1.328 . S
C972 H978 0.929 . S
C973 C974 1.362 . S
C973 C976 1.378 . S
C973 H988 0.929 . S
C974 C973 1.362 . S
C974 C975 1.366 . S
C975 C972 1.365 . S
C975 C974 1.366 . S
C975 H989 0.930 . S
C976 C973 1.378 . S
C976 N977 1.315 . S
C976 H979 0.930 . S
N977 Co957 2.194 . S
N977 C972 1.328 . S
N977 C976 1.315 . S
H978 C972 0.929 . S
H979 C976 0.930 . S
H980 C968 0.929 . S
H981 C970 0.929 . S
O982 Co957 2.351 . S
O982 C985 1.244 . S
O983 Co957 2.155 . S
O983 C985 1.240 . S
O984 Co957 2.096 . S
O984 C965 1.247 . S
C985 O982 1.244 . S
C985 O983 1.240 . S
H986 C960 0.931 . S
H987 C969 0.931 . S
H988 C973 0.929 . S
H989 C975 0.930 . S
Co990 N994 2.148 . S
Co990 N1000 2.128 . S
Co990 N1010 2.194 . S
Co990 O1015 2.351 . S
Co990 O1016 2.155 . S
Co990 O1017 2.096 . S
C991 N994 1.301 . S
C991 N995 1.328 . S
C991 H996 0.930 . S
C992 C993 1.333 . S
C992 N994 1.317 . S
C992 H997 0.930 . S
C993 C992 1.333 . S
C993 N995 1.350 . S
C993 H1019 0.931 . S
N994 Co990 2.148 . S
N994 C991 1.301 . S
N994 C992 1.317 . S
N995 C991 1.328 . S
N995 C993 1.350 . S
H996 C991 0.930 . S
H997 C992 0.930 . S
C998 O999 1.224 . S
C998 O1017 1.247 . S
O999 C998 1.224 . S
N1000 Co990 2.128 . S
N1000 C1001 1.355 . S
N1000 C1003 1.311 1_554 S
C1001 N1000 1.355 . S
C1001 C1002 1.363 1_554 S
C1001 H1013 0.929 . S
C1002 C1001 1.363 1_556 S
C1002 N1004 1.375 . S
C1002 H1020 0.931 . S
C1003 N1000 1.311 1_556 S
C1003 N1004 1.347 . S
C1003 H1014 0.929 . S
N1004 C1002 1.375 . S
N1004 C1003 1.347 . S
C1005 C1008 1.365 . S
C1005 N1010 1.328 . S
C1005 H1011 0.929 . S
C1006 C1007 1.362 . S
C1006 C1009 1.378 . S
C1006 H1021 0.929 . S
C1007 C1006 1.362 . S
C1007 C1008 1.366 . S
C1008 C1005 1.365 . S
C1008 C1007 1.366 . S
C1008 H1022 0.930 . S
C1009 C1006 1.378 . S
C1009 N1010 1.315 . S
C1009 H1012 0.930 . S
N1010 Co990 2.194 . S
N1010 C1005 1.328 . S
N1010 C1009 1.315 . S
H1011 C1005 0.929 . S
H1012 C1009 0.930 . S
H1013 C1001 0.929 . S
H1014 C1003 0.929 . S
O1015 Co990 2.351 . S
O1015 C1018 1.244 . S
O1016 Co990 2.155 . S
O1016 C1018 1.240 . S
O1017 Co990 2.096 . S
O1017 C998 1.247 . S
C1018 O1015 1.244 . S
C1018 O1016 1.240 . S
H1019 C993 0.931 . S
H1020 C1002 0.931 . S
H1021 C1006 0.929 . S
H1022 C1008 0.930 . S
Co1023 N1027 2.148 . S
Co1023 N1033 2.128 . S
Co1023 N1043 2.194 . S
Co1023 O1048 2.351 . S
Co1023 O1049 2.155 . S
Co1023 O1050 2.096 . S
C1024 N1027 1.301 . S
C1024 N1028 1.328 . S
C1024 H1029 0.930 . S
C1025 C1026 1.333 . S
C1025 N1027 1.317 . S
C1025 H1030 0.930 . S
C1026 C1025 1.333 . S
C1026 N1028 1.350 . S
C1026 H1052 0.931 . S
N1027 Co1023 2.148 . S
N1027 C1024 1.301 . S
N1027 C1025 1.317 . S
N1028 C1024 1.328 . S
N1028 C1026 1.350 . S
H1029 C1024 0.930 . S
H1030 C1025 0.930 . S
C1031 O1032 1.224 . S
C1031 O1050 1.247 . S
O1032 C1031 1.224 . S
N1033 Co1023 2.128 . S
N1033 C1034 1.355 . S
N1033 C1036 1.311 . S
C1034 N1033 1.355 . S
C1034 C1035 1.363 . S
C1034 H1046 0.929 . S
C1035 C1034 1.363 . S
C1035 N1037 1.375 . S
C1035 H1053 0.931 . S
C1036 N1033 1.311 . S
C1036 N1037 1.347 . S
C1036 H1047 0.929 . S
N1037 C1035 1.375 . S
N1037 C1036 1.347 . S
C1038 C1041 1.365 . S
C1038 N1043 1.328 . S
C1038 H1044 0.929 . S
C1039 C1040 1.362 . S
C1039 C1042 1.378 . S
C1039 H1054 0.929 . S
C1040 C1039 1.362 . S
C1040 C1041 1.366 . S
C1041 C1038 1.365 . S
C1041 C1040 1.366 . S
C1041 H1055 0.930 . S
C1042 C1039 1.378 . S
C1042 N1043 1.315 . S
C1042 H1045 0.930 . S
N1043 Co1023 2.194 . S
N1043 C1038 1.328 . S
N1043 C1042 1.315 . S
H1044 C1038 0.929 . S
H1045 C1042 0.930 . S
H1046 C1034 0.929 . S
H1047 C1036 0.929 . S
O1048 Co1023 2.351 . S
O1048 C1051 1.244 . S
O1049 Co1023 2.155 . S
O1049 C1051 1.240 . S
O1050 Co1023 2.096 . S
O1050 C1031 1.247 . S
C1051 O1048 1.244 . S
C1051 O1049 1.240 . S
H1052 C1026 0.931 . S
H1053 C1035 0.931 . S
H1054 C1039 0.929 . S
H1055 C1041 0.930 . S
C1056 C1057 1.369 . S
C1056 C1058 1.419 . S
C1056 H1060 0.930 . S
C1057 C1056 1.369 . S
C1057 C1066 1.429 . S
C1058 C1056 1.419 . S
C1058 C1059 1.363 . S
C1058 H1061 0.929 . S
C1059 C1058 1.363 . S
C1059 C1065 1.428 . S
H1060 C1056 0.930 . S
H1061 C1058 0.929 . S
S1062 N1063 1.613 . S
S1062 N1064 1.610 . S
N1063 S1062 1.613 . S
N1063 C1066 1.350 . S
N1064 S1062 1.610 . S
N1064 C1065 1.351 . S
C1065 C1059 1.428 . S
C1065 N1064 1.351 . S
C1065 C1066 1.434 . S
C1066 C1057 1.429 . S
C1066 N1063 1.350 . S
C1066 C1065 1.434 . S
C1067 C1068 1.369 . S
C1067 C1069 1.419 . S
C1067 H1071 0.930 . S
C1068 C1067 1.369 . S
C1068 C1077 1.429 . S
C1069 C1067 1.419 . S
C1069 C1070 1.363 . S
C1069 H1072 0.929 . S
C1070 C1069 1.363 . S
C1070 C1076 1.428 . S
H1071 C1067 0.930 . S
H1072 C1069 0.929 . S
S1073 N1074 1.613 . S
S1073 N1075 1.610 . S
N1074 S1073 1.613 . S
N1074 C1077 1.350 . S
N1075 S1073 1.610 . S
N1075 C1076 1.351 . S
C1076 C1070 1.428 . S
C1076 N1075 1.351 . S
C1076 C1077 1.434 . S
C1077 C1068 1.429 . S
C1077 N1074 1.350 . S
C1077 C1076 1.434 . S
C1078 C1079 1.369 . S
C1078 C1080 1.419 . S
C1078 H1082 0.930 . S
C1079 C1078 1.369 . S
C1079 C1088 1.429 . S
C1080 C1078 1.419 . S
C1080 C1081 1.363 . S
C1080 H1083 0.929 . S
C1081 C1080 1.363 . S
C1081 C1087 1.428 . S
H1082 C1078 0.930 . S
H1083 C1080 0.929 . S
S1084 N1085 1.613 . S
S1084 N1086 1.610 . S
N1085 S1084 1.613 . S
N1085 C1088 1.350 . S
N1086 S1084 1.610 . S
N1086 C1087 1.351 . S
C1087 C1081 1.428 . S
C1087 N1086 1.351 . S
C1087 C1088 1.434 . S
C1088 C1079 1.429 . S
C1088 N1085 1.350 . S
C1088 C1087 1.434 . S
C1089 C1090 1.369 . S
C1089 C1091 1.419 . S
C1089 H1093 0.930 . S
C1090 C1089 1.369 . S
C1090 C1099 1.429 . S
C1091 C1089 1.419 . S
C1091 C1092 1.363 . S
C1091 H1094 0.947 . S
C1092 C1091 1.363 . S
C1092 C1098 1.428 . S
H1093 C1089 0.930 . S
H1094 C1091 0.947 . S
S1095 N1096 1.613 . S
S1095 N1097 1.610 . S
N1096 S1095 1.613 . S
N1096 C1099 1.350 . S
N1097 S1095 1.610 . S
N1097 C1098 1.351 . S
C1098 C1092 1.428 . S
C1098 N1097 1.351 . S
C1098 C1099 1.434 . S
C1099 C1090 1.429 . S
C1099 N1096 1.350 . S
C1099 C1098 1.434 . S
C1100 C1101 1.369 . S
C1100 C1102 1.419 . S
C1100 H1104 0.930 . S
C1101 C1100 1.369 . S
C1101 C1110 1.429 . S
C1102 C1100 1.419 . S
C1102 C1103 1.363 . S
C1102 H1105 0.929 . S
C1103 C1102 1.363 . S
C1103 C1109 1.428 . S
H1104 C1100 0.930 . S
H1105 C1102 0.929 . S
S1106 N1107 1.613 1_545 S
S1106 N1108 1.610 . S
N1107 S1106 1.613 1_565 S
N1107 C1110 1.350 . S
N1108 S1106 1.610 . S
N1108 C1109 1.351 1_545 S
C1109 C1103 1.428 . S
C1109 N1108 1.351 1_565 S
C1109 C1110 1.434 . S
C1110 C1101 1.429 . S
C1110 N1107 1.350 . S
C1110 C1109 1.434 . S
C1111 C1112 1.369 . S
C1111 C1113 1.419 . S
C1111 H1115 0.930 . S
C1112 C1111 1.369 . S
C1112 C1121 1.429 . S
C1113 C1111 1.419 . S
C1113 C1114 1.363 . S
C1113 H1116 0.929 . S
C1114 C1113 1.363 . S
C1114 C1120 1.428 . S
H1115 C1111 0.930 . S
H1116 C1113 0.929 . S
S1117 N1118 1.613 . S
S1117 N1119 1.610 . S
N1118 S1117 1.613 . S
N1118 C1121 1.350 . S
N1119 S1117 1.610 . S
N1119 C1120 1.351 . S
C1120 C1114 1.428 . S
C1120 N1119 1.351 . S
C1120 C1121 1.434 . S
C1121 C1112 1.429 . S
C1121 N1118 1.350 . S
C1121 C1120 1.434 . S
C1122 C1123 1.369 . S
C1122 C1124 1.419 . S
C1122 H1126 0.930 . S
C1123 C1122 1.369 . S
C1123 C1132 1.429 . S
C1124 C1122 1.419 . S
C1124 C1125 1.363 . S
C1124 H1127 0.929 . S
C1125 C1124 1.363 . S
C1125 C1131 1.428 . S
H1126 C1122 0.930 . S
H1127 C1124 0.929 . S
S1128 N1129 1.613 . S
S1128 N1130 1.610 . S
N1129 S1128 1.613 . S
N1129 C1132 1.350 . S
N1130 S1128 1.610 . S
N1130 C1131 1.351 . S
C1131 C1125 1.428 . S
C1131 N1130 1.351 . S
C1131 C1132 1.434 . S
C1132 C1123 1.429 . S
C1132 N1129 1.350 . S
C1132 C1131 1.434 . S
C1133 C1134 1.369 . S
C1133 C1135 1.419 . S
C1133 H1137 0.930 . S
C1134 C1133 1.369 . S
C1134 C1143 1.429 . S
C1135 C1133 1.419 . S
C1135 C1136 1.363 . S
C1135 H1138 0.929 . S
C1136 C1135 1.363 . S
C1136 C1142 1.428 . S
H1137 C1133 0.930 . S
H1138 C1135 0.929 . S
S1139 N1140 1.613 . S
S1139 N1141 1.610 . S
N1140 S1139 1.613 . S
N1140 C1143 1.350 . S
N1141 S1139 1.610 . S
N1141 C1142 1.351 . S
C1142 C1136 1.428 . S
C1142 N1141 1.351 . S
C1142 C1143 1.434 . S
C1143 C1134 1.429 . S
C1143 N1140 1.350 . S
C1143 C1142 1.434 . S
C1144 C1145 1.369 . S
C1144 C1146 1.419 . S
C1144 H1148 0.930 . S
C1145 C1144 1.369 . S
C1145 C1154 1.429 . S
C1146 C1144 1.419 . S
C1146 C1147 1.363 . S
C1146 H1149 0.929 . S
C1147 C1146 1.363 . S
C1147 C1153 1.428 . S
H1148 C1144 0.930 . S
H1149 C1146 0.929 . S
S1150 N1151 1.613 . S
S1150 N1152 1.610 . S
N1151 S1150 1.613 . S
N1151 C1154 1.350 . S
N1152 S1150 1.610 . S
N1152 C1153 1.351 . S
C1153 C1147 1.428 . S
C1153 N1152 1.351 . S
C1153 C1154 1.434 . S
C1154 C1145 1.429 . S
C1154 N1151 1.350 . S
C1154 C1153 1.434 . S
C1155 C1156 1.369 . S
C1155 C1157 1.419 . S
C1155 H1159 0.930 . S
C1156 C1155 1.369 . S
C1156 C1165 1.429 . S
C1157 C1155 1.419 . S
C1157 C1158 1.363 . S
C1157 H1160 0.929 . S
C1158 C1157 1.363 . S
C1158 C1164 1.428 . S
H1159 C1155 0.930 . S
H1160 C1157 0.929 . S
S1161 N1162 1.613 . S
S1161 N1163 1.610 . S
N1162 S1161 1.613 . S
N1162 C1165 1.350 . S
N1163 S1161 1.610 . S
N1163 C1164 1.351 . S
C1164 C1158 1.428 . S
C1164 N1163 1.351 . S
C1164 C1165 1.434 . S
C1165 C1156 1.429 . S
C1165 N1162 1.350 . S
C1165 C1164 1.434 . S
C1166 C1167 1.369 . S
C1166 C1168 1.419 . S
C1166 H1170 0.930 . S
C1167 C1166 1.369 . S
C1167 C1176 1.429 . S
C1168 C1166 1.419 . S
C1168 C1169 1.363 . S
C1168 H1171 0.929 . S
C1169 C1168 1.363 . S
C1169 C1175 1.428 . S
H1170 C1166 0.930 . S
H1171 C1168 0.929 . S
S1172 N1173 1.613 . S
S1172 N1174 1.615 . S
N1173 S1172 1.613 . S
N1173 C1176 1.350 . S
N1174 S1172 1.615 . S
N1174 C1175 1.370 . S
C1175 C1169 1.428 . S
C1175 N1174 1.370 . S
C1175 C1176 1.434 . S
C1176 C1167 1.429 . S
C1176 N1173 1.350 . S
C1176 C1175 1.434 . S
C1177 C1178 1.369 . S
C1177 C1179 1.419 . S
C1177 H1181 0.930 . S
C1178 C1177 1.369 . S
C1178 C1187 1.429 . S
C1179 C1177 1.419 . S
C1179 C1180 1.363 . S
C1179 H1182 0.929 . S
C1180 C1179 1.363 . S
C1180 C1186 1.428 . S
H1181 C1177 0.930 . S
H1182 C1179 0.929 . S
S1183 N1184 1.613 . S
S1183 N1185 1.610 1_556 S
N1184 S1183 1.613 . S
N1184 C1187 1.350 1_556 S
N1185 S1183 1.610 1_554 S
N1185 C1186 1.351 . S
C1186 C1180 1.428 . S
C1186 N1185 1.351 . S
C1186 C1187 1.434 . S
C1187 C1178 1.429 . S
C1187 N1184 1.350 1_554 S
C1187 C1186 1.434 . S
C1188 C1189 1.369 . S
C1188 C1190 1.419 . S
C1188 H1192 0.930 . S
C1189 C1188 1.369 . S
C1189 C1198 1.429 . S
C1190 C1188 1.419 . S
C1190 C1191 1.363 . S
C1190 H1193 0.929 . S
C1191 C1190 1.363 . S
C1191 C1197 1.428 . S
H1192 C1188 0.930 . S
H1193 C1190 0.929 . S
S1194 N1195 1.613 . S
S1194 N1196 1.610 . S
N1195 S1194 1.613 . S
N1195 C1198 1.350 . S
N1196 S1194 1.610 . S
N1196 C1197 1.351 . S
C1197 C1191 1.428 . S
C1197 N1196 1.351 . S
C1197 C1198 1.434 . S
C1198 C1189 1.429 . S
C1198 N1195 1.350 . S
C1198 C1197 1.434 . S
C1199 C1200 1.369 . S
C1199 C1201 1.419 . S
C1199 H1203 0.930 . S
C1200 C1199 1.369 . S
C1200 C1209 1.429 . S
C1201 C1199 1.419 . S
C1201 C1202 1.363 . S
C1201 H1204 0.929 . S
C1202 C1201 1.363 . S
C1202 C1208 1.428 . S
H1203 C1199 0.930 . S
H1204 C1201 0.929 . S
S1205 N1206 1.613 . S
S1205 N1207 1.610 . S
N1206 S1205 1.613 . S
N1206 C1209 1.350 . S
N1207 S1205 1.610 . S
N1207 C1208 1.351 . S
C1208 C1202 1.428 . S
C1208 N1207 1.351 . S
C1208 C1209 1.434 . S
C1209 C1200 1.429 . S
C1209 N1206 1.350 . S
C1209 C1208 1.434 . S
C1210 C1211 1.369 . S
C1210 C1212 1.419 . S
C1210 H1214 0.930 . S
C1211 C1210 1.369 . S
C1211 C1220 1.429 . S
C1212 C1210 1.419 . S
C1212 C1213 1.363 . S
C1212 H1215 0.929 . S
C1213 C1212 1.363 . S
C1213 C1219 1.428 . S
H1214 C1210 0.930 . S
H1215 C1212 0.929 . S
S1216 N1217 1.613 . S
S1216 N1218 1.610 . S
N1217 S1216 1.613 . S
N1217 C1220 1.350 . S
N1218 S1216 1.610 . S
N1218 C1219 1.351 . S
C1219 C1213 1.428 . S
C1219 N1218 1.351 . S
C1219 C1220 1.434 . S
C1220 C1211 1.429 . S
C1220 N1217 1.350 . S
C1220 C1219 1.434 . S
C1221 C1222 1.369 . S
C1221 C1223 1.419 . S
C1221 H1225 0.930 . S
C1222 C1221 1.369 . S
C1222 C1231 1.429 . S
C1223 C1221 1.419 . S
C1223 C1224 1.363 . S
C1223 H1226 0.929 . S
C1224 C1223 1.363 . S
C1224 C1230 1.428 . S
H1225 C1221 0.930 . S
H1226 C1223 0.929 . S
S1227 N1228 1.613 . S
S1227 N1229 1.610 . S
N1228 S1227 1.613 . S
N1228 C1231 1.350 . S
N1229 S1227 1.610 . S
N1229 C1230 1.351 . S
C1230 C1224 1.428 . S
C1230 N1229 1.351 . S
C1230 C1231 1.434 . S
C1231 C1222 1.429 . S
C1231 N1228 1.350 . S
C1231 C1230 1.434 . S
C1232 C1233 1.369 . S
C1232 C1234 1.419 . S
C1232 H1236 0.930 . S
C1233 C1232 1.369 . S
C1233 C1242 1.429 . S
C1234 C1232 1.419 . S
C1234 C1235 1.363 . S
C1234 H1237 0.929 . S
C1235 C1234 1.363 . S
C1235 C1241 1.428 . S
H1236 C1232 0.930 . S
H1237 C1234 0.929 . S
S1238 N1239 1.613 . S
S1238 N1240 1.610 . S
N1239 S1238 1.613 . S
N1239 C1242 1.350 . S
N1240 S1238 1.610 . S
N1240 C1241 1.351 . S
C1241 C1235 1.428 . S
C1241 N1240 1.351 . S
C1241 C1242 1.434 . S
C1242 C1233 1.429 . S
C1242 N1239 1.350 . S
C1242 C1241 1.434 . S
C1243 C1244 1.369 . S
C1243 C1245 1.419 . S
C1243 H1247 0.930 . S
C1244 C1243 1.369 . S
C1244 C1253 1.429 . S
C1245 C1243 1.419 . S
C1245 C1246 1.363 . S
C1245 H1248 0.928 1_556 S
C1246 C1245 1.363 . S
C1246 C1252 1.428 . S
H1247 C1243 0.930 . S
H1248 C1245 0.928 1_554 S
S1249 N1250 1.613 . S
S1249 N1251 1.610 . S
N1250 S1249 1.613 . S
N1250 C1253 1.350 . S
N1251 S1249 1.610 . S
N1251 C1252 1.351 . S
C1252 C1246 1.428 . S
C1252 N1251 1.351 . S
C1252 C1253 1.434 . S
C1253 C1244 1.429 . S
C1253 N1250 1.350 . S
C1253 C1252 1.434 . S
C1254 C1255 1.369 . S
C1254 C1256 1.419 . S
C1254 H1258 0.930 . S
C1255 C1254 1.369 . S
C1255 C1264 1.429 . S
C1256 C1254 1.419 . S
C1256 C1257 1.363 . S
C1256 H1259 0.929 . S
C1257 C1256 1.363 . S
C1257 C1263 1.428 . S
H1258 C1254 0.930 . S
H1259 C1256 0.929 . S
S1260 N1261 1.613 . S
S1260 N1262 1.610 . S
N1261 S1260 1.613 . S
N1261 C1264 1.350 . S
N1262 S1260 1.610 . S
N1262 C1263 1.351 . S
C1263 C1257 1.428 . S
C1263 N1262 1.351 . S
C1263 C1264 1.434 . S
C1264 C1255 1.429 . S
C1264 N1261 1.350 . S
C1264 C1263 1.434 . S
C1265 C1266 1.369 . S
C1265 C1267 1.419 . S
C1265 H1269 0.930 . S
C1266 C1265 1.369 . S
C1266 C1275 1.429 . S
C1267 C1265 1.419 . S
C1267 C1268 1.363 . S
C1267 H1270 0.929 . S
C1268 C1267 1.363 . S
C1268 C1274 1.428 . S
H1269 C1265 0.930 . S
H1270 C1267 0.929 . S
S1271 N1272 1.613 . S
S1271 N1273 1.610 . S
N1272 S1271 1.613 . S
N1272 C1275 1.350 . S
N1273 S1271 1.610 . S
N1273 C1274 1.351 . S
C1274 C1268 1.428 . S
C1274 N1273 1.351 . S
C1274 C1275 1.434 . S
C1275 C1266 1.429 . S
C1275 N1272 1.350 . S
C1275 C1274 1.434 . S
C1276 C1277 1.369 . S
C1276 C1278 1.419 . S
C1276 H1280 0.930 . S
C1277 C1276 1.369 . S
C1277 C1286 1.429 . S
C1278 C1276 1.419 . S
C1278 C1279 1.363 . S
C1278 H1281 0.929 . S
C1279 C1278 1.363 . S
C1279 C1285 1.428 . S
H1280 C1276 0.930 . S
H1281 C1278 0.929 . S
S1282 N1283 1.613 . S
S1282 N1284 1.610 . S
N1283 S1282 1.613 . S
N1283 C1286 1.350 . S
N1284 S1282 1.610 . S
N1284 C1285 1.351 . S
C1285 C1279 1.428 . S
C1285 N1284 1.351 . S
C1285 C1286 1.434 . S
C1286 C1277 1.429 . S
C1286 N1283 1.350 . S
C1286 C1285 1.434 . S
C1287 C1288 1.369 . S
C1287 C1289 1.419 . S
C1287 H1291 0.930 . S
C1288 C1287 1.369 . S
C1288 C1297 1.429 . S
C1289 C1287 1.419 . S
C1289 C1290 1.363 . S
C1289 H1292 0.929 . S
C1290 C1289 1.363 . S
C1290 C1296 1.428 . S
H1291 C1287 0.930 . S
H1292 C1289 0.929 . S
S1293 N1294 1.613 . S
S1293 N1295 1.610 . S
N1294 S1293 1.613 . S
N1294 C1297 1.350 . S
N1295 S1293 1.610 . S
N1295 C1296 1.351 . S
C1296 C1290 1.428 . S
C1296 N1295 1.351 . S
C1296 C1297 1.434 . S
C1297 C1288 1.429 . S
C1297 N1294 1.350 . S
C1297 C1296 1.434 . S
C1298 C1299 1.369 . S
C1298 C1300 1.419 . S
C1298 H1302 0.930 . S
C1299 C1298 1.369 . S
C1299 C1308 1.429 . S
C1300 C1298 1.419 . S
C1300 C1301 1.363 . S
C1300 H1303 0.929 . S
C1301 C1300 1.363 . S
C1301 C1307 1.428 . S
H1302 C1298 0.930 . S
H1303 C1300 0.929 . S
S1304 N1305 1.613 . S
S1304 N1306 1.610 . S
N1305 S1304 1.613 . S
N1305 C1308 1.350 . S
N1306 S1304 1.610 . S
N1306 C1307 1.351 . S
C1307 C1301 1.428 . S
C1307 N1306 1.351 . S
C1307 C1308 1.434 . S
C1308 C1299 1.429 . S
C1308 N1305 1.350 . S
C1308 C1307 1.434 . S
C1309 C1310 1.369 . S
C1309 C1311 1.419 . S
C1309 H1313 0.930 . S
C1310 C1309 1.369 . S
C1310 C1319 1.429 . S
C1311 C1309 1.419 . S
C1311 C1312 1.363 . S
C1311 H1314 0.929 . S
C1312 C1311 1.363 . S
C1312 C1318 1.428 . S
H1313 C1309 0.930 . S
H1314 C1311 0.929 . S
S1315 N1316 1.613 . S
S1315 N1317 1.610 . S
N1316 S1315 1.613 . S
N1316 C1319 1.350 . S
N1317 S1315 1.610 . S
N1317 C1318 1.351 . S
C1318 C1312 1.428 . S
C1318 N1317 1.351 . S
C1318 C1319 1.434 . S
C1319 C1310 1.429 . S
C1319 N1316 1.350 . S
C1319 C1318 1.434 . S
C1320 C1321 1.369 . S
C1320 C1322 1.419 . S
C1320 H1324 0.930 . S
C1321 C1320 1.369 . S
C1321 C1330 1.429 . S
C1322 C1320 1.419 . S
C1322 C1323 1.363 . S
C1322 H1325 0.929 . S
C1323 C1322 1.363 . S
C1323 C1329 1.428 . S
H1324 C1320 0.930 . S
H1325 C1322 0.929 . S
S1326 N1327 1.613 . S
S1326 N1328 1.610 . S
N1327 S1326 1.613 . S
N1327 C1330 1.350 . S
N1328 S1326 1.610 . S
N1328 C1329 1.351 . S
C1329 C1323 1.428 . S
C1329 N1328 1.351 . S
C1329 C1330 1.434 . S
C1330 C1321 1.429 . S
C1330 N1327 1.350 . S
C1330 C1329 1.434 . S
C1331 C1332 1.369 . S
C1331 C1333 1.419 . S
C1331 H1335 0.930 . S
C1332 C1331 1.369 . S
C1332 C1341 1.429 . S
C1333 C1331 1.419 . S
C1333 C1334 1.363 . S
C1333 H1336 0.929 . S
C1334 C1333 1.363 . S
C1334 C1340 1.428 . S
H1335 C1331 0.930 . S
H1336 C1333 0.929 . S
S1337 N1338 1.613 1_556 S
S1337 N1339 1.610 . S
N1338 S1337 1.613 1_554 S
N1338 C1341 1.350 . S
N1339 S1337 1.610 . S
N1339 C1340 1.351 1_556 S
C1340 C1334 1.428 . S
C1340 N1339 1.351 1_554 S
C1340 C1341 1.434 . S
C1341 C1332 1.429 . S
C1341 N1338 1.350 . S
C1341 C1340 1.434 . S
C1342 C1343 1.369 . S
C1342 C1344 1.419 . S
C1342 H1346 0.930 . S
C1343 C1342 1.369 . S
C1343 C1352 1.429 . S
C1344 C1342 1.419 . S
C1344 C1345 1.363 . S
C1344 H1347 0.929 . S
C1345 C1344 1.363 . S
C1345 C1351 1.428 . S
H1346 C1342 0.930 . S
H1347 C1344 0.929 . S
S1348 N1349 1.613 . S
S1348 N1350 1.610 . S
N1349 S1348 1.613 . S
N1349 C1352 1.350 . S
N1350 S1348 1.610 . S
N1350 C1351 1.351 . S
C1351 C1345 1.428 . S
C1351 N1350 1.351 . S
C1351 C1352 1.434 . S
C1352 C1343 1.429 . S
C1352 N1349 1.350 . S
C1352 C1351 1.434 . S
C1353 C1354 1.369 . S
C1353 C1355 1.419 . S
C1353 H1357 0.930 . S
C1354 C1353 1.369 . S
C1354 C1363 1.429 . S
C1355 C1353 1.419 . S
C1355 C1356 1.363 . S
C1355 H1358 0.929 . S
C1356 C1355 1.363 . S
C1356 C1362 1.428 . S
H1357 C1353 0.930 . S
H1358 C1355 0.929 . S
S1359 N1360 1.613 . S
S1359 N1361 1.610 . S
N1360 S1359 1.613 . S
N1360 C1363 1.350 . S
N1361 S1359 1.610 . S
N1361 C1362 1.351 . S
C1362 C1356 1.428 . S
C1362 N1361 1.351 . S
C1362 C1363 1.434 . S
C1363 C1354 1.429 . S
C1363 N1360 1.350 . S
C1363 C1362 1.434 . S
C1364 C1365 1.369 . S
C1364 C1366 1.419 . S
C1364 H1368 0.930 . S
C1365 C1364 1.369 . S
C1365 C1374 1.429 . S
C1366 C1364 1.419 . S
C1366 C1367 1.363 . S
C1366 H1369 0.929 . S
C1367 C1366 1.363 . S
C1367 C1373 1.428 . S
H1368 C1364 0.930 . S
H1369 C1366 0.929 . S
S1370 N1371 1.613 . S
S1370 N1372 1.610 . S
N1371 S1370 1.613 . S
N1371 C1374 1.350 . S
N1372 S1370 1.610 . S
N1372 C1373 1.351 . S
C1373 C1367 1.428 . S
C1373 N1372 1.351 . S
C1373 C1374 1.434 . S
C1374 C1365 1.429 . S
C1374 N1371 1.350 . S
C1374 C1373 1.434 . S
C1375 C1376 1.369 . S
C1375 C1377 1.419 . S
C1375 H1379 0.930 . S
C1376 C1375 1.369 . S
C1376 C1385 1.429 . S
C1377 C1375 1.419 . S
C1377 C1378 1.363 . S
C1377 H1380 0.929 . S
C1378 C1377 1.363 . S
C1378 C1384 1.428 . S
H1379 C1375 0.930 . S
H1380 C1377 0.929 . S
S1381 N1382 1.613 . S
S1381 N1383 1.610 . S
N1382 S1381 1.613 . S
N1382 C1385 1.350 . S
N1383 S1381 1.610 . S
N1383 C1384 1.351 . S
C1384 C1378 1.428 . S
C1384 N1383 1.351 . S
C1384 C1385 1.434 . S
C1385 C1376 1.429 . S
C1385 N1382 1.350 . S
C1385 C1384 1.434 . S
C1386 C1387 1.369 . S
C1386 C1388 1.419 . S
C1386 H1390 0.930 . S
C1387 C1386 1.369 . S
C1387 C1396 1.429 . S
C1388 C1386 1.419 . S
C1388 C1389 1.363 . S
C1388 H1391 0.929 . S
C1389 C1388 1.363 . S
C1389 C1395 1.428 . S
H1390 C1386 0.930 . S
H1391 C1388 0.929 . S
S1392 N1393 1.613 . S
S1392 N1394 1.610 . S
N1393 S1392 1.613 . S
N1393 C1396 1.350 . S
N1394 S1392 1.610 . S
N1394 C1395 1.351 . S
C1395 C1389 1.428 . S
C1395 N1394 1.351 . S
C1395 C1396 1.434 . S
C1396 C1387 1.429 . S
C1396 N1393 1.350 . S
C1396 C1395 1.434 . S
C1397 C1398 1.369 . S
C1397 C1399 1.419 . S
C1397 H1401 0.930 1_556 S
C1398 C1397 1.369 . S
C1398 C1407 1.429 . S
C1399 C1397 1.419 . S
C1399 C1400 1.363 . S
C1399 H1402 0.929 . S
C1400 C1399 1.363 . S
C1400 C1406 1.428 . S
H1401 C1397 0.930 1_554 S
H1402 C1399 0.929 . S
S1403 N1404 1.613 . S
S1403 N1405 1.610 . S
N1404 S1403 1.613 . S
N1404 C1407 1.350 . S
N1405 S1403 1.610 . S
N1405 C1406 1.351 . S
C1406 C1400 1.428 . S
C1406 N1405 1.351 . S
C1406 C1407 1.434 . S
C1407 C1398 1.429 . S
C1407 N1404 1.350 . S
C1407 C1406 1.434 . S
C1408 C1409 1.369 . S
C1408 C1410 1.419 . S
C1408 H1412 0.930 . S
C1409 C1408 1.369 . S
C1409 C1418 1.429 . S
C1410 C1408 1.419 . S
C1410 C1411 1.363 . S
C1410 H1413 0.929 . S
C1411 C1410 1.363 . S
C1411 C1417 1.428 . S
H1412 C1408 0.930 . S
H1413 C1410 0.929 . S
S1414 N1415 1.613 . S
S1414 N1416 1.610 . S
N1415 S1414 1.613 . S
N1415 C1418 1.350 . S
N1416 S1414 1.610 . S
N1416 C1417 1.351 . S
C1417 C1411 1.428 . S
C1417 N1416 1.351 . S
C1417 C1418 1.434 . S
C1418 C1409 1.429 . S
C1418 N1415 1.350 . S
C1418 C1417 1.434 . S
C1419 C1420 1.373 . S
C1419 C1421 1.419 . S
C1419 H1423 0.930 . S
C1420 C1419 1.373 . S
C1420 C1429 1.425 1_565 S
C1421 C1419 1.419 . S
C1421 C1422 1.335 1_565 S
C1421 H1424 0.929 . S
C1422 C1421 1.335 1_545 S
C1422 C1428 1.457 . S
H1423 C1419 0.930 . S
H1424 C1421 0.929 . S
S1425 N1426 1.613 . S
S1425 N1427 1.610 . S
N1426 S1425 1.613 . S
N1426 C1429 1.350 . S
N1427 S1425 1.610 . S
N1427 C1428 1.351 . S
C1428 C1422 1.457 . S
C1428 N1427 1.351 . S
C1428 C1429 1.434 . S
C1429 C1420 1.425 1_545 S
C1429 N1426 1.350 . S
C1429 C1428 1.434 . S
C1430 C1431 1.369 . S
C1430 C1432 1.419 . S
C1430 H1434 0.930 . S
C1431 C1430 1.369 . S
C1431 C1440 1.429 . S
C1432 C1430 1.419 . S
C1432 C1433 1.363 . S
C1432 H1435 0.929 . S
C1433 C1432 1.363 . S
C1433 C1439 1.428 . S
H1434 C1430 0.930 . S
H1435 C1432 0.929 . S
S1436 N1437 1.613 . S
S1436 N1438 1.610 . S
N1437 S1436 1.613 . S
N1437 C1440 1.350 . S
N1438 S1436 1.610 . S
N1438 C1439 1.351 . S
C1439 C1433 1.428 . S
C1439 N1438 1.351 . S
C1439 C1440 1.434 . S
C1440 C1431 1.429 . S
C1440 N1437 1.350 . S
C1440 C1439 1.434 . S
C1441 C1442 1.373 . S
C1441 C1443 1.419 1_556 S
C1441 H1445 0.930 . S
C1442 C1441 1.373 . S
C1442 C1451 1.425 1_545 S
C1443 C1441 1.419 1_554 S
C1443 C1444 1.336 1_545 S
C1443 H1446 0.929 . S
C1444 C1443 1.336 1_565 S
C1444 C1450 1.456 . S
H1445 C1441 0.930 . S
H1446 C1443 0.929 . S
S1447 N1448 1.613 . S
S1447 N1449 1.610 1_556 S
N1448 S1447 1.613 . S
N1448 C1451 1.350 . S
N1449 S1447 1.610 1_554 S
N1449 C1450 1.351 . S
C1450 C1444 1.456 . S
C1450 N1449 1.351 . S
C1450 C1451 1.434 1_554 S
C1451 C1442 1.425 1_565 S
C1451 N1448 1.350 . S
C1451 C1450 1.434 1_556 S
C1452 C1453 1.369 . S
C1452 C1454 1.419 . S
C1452 H1456 0.930 . S
C1453 C1452 1.369 . S
C1453 C1462 1.429 . S
C1454 C1452 1.419 . S
C1454 C1455 1.363 . S
C1454 H1457 0.929 . S
C1455 C1454 1.363 . S
C1455 C1461 1.428 . S
H1456 C1452 0.930 . S
H1457 C1454 0.929 . S
S1458 N1459 1.613 . S
S1458 N1460 1.610 . S
N1459 S1458 1.613 . S
N1459 C1462 1.350 . S
N1460 S1458 1.610 . S
N1460 C1461 1.351 . S
C1461 C1455 1.428 . S
C1461 N1460 1.351 . S
C1461 C1462 1.434 . S
C1462 C1453 1.429 . S
C1462 N1459 1.350 . S
C1462 C1461 1.434 . S
C1463 C1464 1.373 . S
C1463 C1465 1.419 . S
C1463 H1467 0.930 . S
C1464 C1463 1.373 . S
C1464 C1473 1.425 1_565 S
C1465 C1463 1.419 . S
C1465 C1466 1.338 1_565 S
C1465 H1468 0.929 . S
C1466 C1465 1.338 1_545 S
C1466 C1472 1.454 . S
H1467 C1463 0.930 . S
H1468 C1465 0.929 . S
S1469 N1470 1.613 . S
S1469 N1471 1.610 . S
N1470 S1469 1.613 . S
N1470 C1473 1.350 . S
N1471 S1469 1.610 . S
N1471 C1472 1.351 . S
C1472 C1466 1.454 . S
C1472 N1471 1.351 . S
C1472 C1473 1.434 . S
C1473 C1464 1.425 1_545 S
C1473 N1470 1.350 . S
C1473 C1472 1.434 . S
C1474 C1475 1.369 . S
C1474 C1476 1.419 . S
C1474 H1478 0.930 . S
C1475 C1474 1.369 . S
C1475 C1484 1.429 . S
C1476 C1474 1.419 . S
C1476 C1477 1.363 . S
C1476 H1479 0.929 . S
C1477 C1476 1.363 . S
C1477 C1483 1.428 . S
H1478 C1474 0.930 . S
H1479 C1476 0.929 . S
S1480 N1481 1.613 . S
S1480 N1482 1.610 . S
N1481 S1480 1.613 . S
N1481 C1484 1.350 . S
N1482 S1480 1.610 . S
N1482 C1483 1.351 . S
C1483 C1477 1.428 . S
C1483 N1482 1.351 . S
C1483 C1484 1.434 . S
C1484 C1475 1.429 . S
C1484 N1481 1.350 . S
C1484 C1483 1.434 . S
C1485 C1486 1.358 1_565 S
C1485 C1487 1.419 1_556 S
C1485 H1489 0.930 . S
C1486 C1485 1.358 1_545 S
C1486 C1495 1.441 . S
C1487 C1485 1.419 1_554 S
C1487 C1488 1.367 . S
C1487 H1490 0.929 . S
C1488 C1487 1.367 . S
C1488 C1494 1.424 1_565 S
H1489 C1485 0.930 . S
H1490 C1487 0.929 . S
S1491 N1492 1.593 1_554 S
S1491 N1493 1.630 . S
N1492 S1491 1.593 1_556 S
N1492 C1495 1.350 . S
N1493 S1491 1.630 . S
N1493 C1494 1.351 . S
C1494 C1488 1.424 1_545 S
C1494 N1493 1.351 . S
C1494 C1495 1.434 1_554 S
C1495 C1486 1.441 . S
C1495 N1492 1.350 . S
C1495 C1494 1.434 1_556 S
C1496 C1497 1.369 . S
C1496 C1498 1.419 . S
C1496 H1500 0.930 . S
C1497 C1496 1.369 . S
C1497 C1506 1.429 . S
C1498 C1496 1.419 . S
C1498 C1499 1.363 . S
C1498 H1501 0.929 . S
C1499 C1498 1.363 . S
C1499 C1505 1.428 . S
H1500 C1496 0.930 . S
H1501 C1498 0.929 . S
S1502 N1503 1.613 . S
S1502 N1504 1.610 . S
N1503 S1502 1.613 . S
N1503 C1506 1.350 . S
N1504 S1502 1.610 . S
N1504 C1505 1.351 . S
C1505 C1499 1.428 . S
C1505 N1504 1.351 . S
C1505 C1506 1.434 . S
C1506 C1497 1.429 . S
C1506 N1503 1.350 . S
C1506 C1505 1.434 . S
C1507 C1508 1.369 . S
C1507 C1509 1.419 1_554 S
C1507 H1511 0.930 . S
C1508 C1507 1.369 . S
C1508 C1517 1.429 . S
C1509 C1507 1.419 1_556 S
C1509 C1510 1.363 . S
C1509 H1512 0.929 . S
C1510 C1509 1.363 . S
C1510 C1516 1.428 . S
H1511 C1507 0.930 . S
H1512 C1509 0.929 . S
S1513 N1514 1.613 1_556 S
S1513 N1515 1.610 . S
N1514 S1513 1.613 1_554 S
N1514 C1517 1.350 . S
N1515 S1513 1.610 . S
N1515 C1516 1.351 . S
C1516 C1510 1.428 . S
C1516 N1515 1.351 . S
C1516 C1517 1.434 1_556 S
C1517 C1508 1.429 . S
C1517 N1514 1.350 . S
C1517 C1516 1.434 1_554 S
C1518 C1519 1.369 . S
C1518 C1520 1.419 . S
C1518 H1522 0.930 . S
C1519 C1518 1.369 . S
C1519 C1528 1.429 . S
C1520 C1518 1.419 . S
C1520 C1521 1.363 . S
C1520 H1523 0.929 . S
C1521 C1520 1.363 . S
C1521 C1527 1.428 . S
H1522 C1518 0.930 . S
H1523 C1520 0.929 . S
S1524 N1525 1.613 . S
S1524 N1526 1.610 . S
N1525 S1524 1.613 . S
N1525 C1528 1.350 . S
N1526 S1524 1.610 . S
N1526 C1527 1.351 . S
C1527 C1521 1.428 . S
C1527 N1526 1.351 . S
C1527 C1528 1.434 . S
C1528 C1519 1.429 . S
C1528 N1525 1.350 . S
C1528 C1527 1.434 . S
C1529 C1530 1.369 . S
C1529 C1531 1.419 . S
C1529 H1533 0.930 . S
C1530 C1529 1.369 . S
C1530 C1539 1.429 . S
C1531 C1529 1.419 . S
C1531 C1532 1.363 . S
C1531 H1534 0.929 . S
C1532 C1531 1.363 . S
C1532 C1538 1.428 . S
H1533 C1529 0.930 . S
H1534 C1531 0.929 . S
S1535 N1536 1.613 . S
S1535 N1537 1.610 . S
N1536 S1535 1.613 . S
N1536 C1539 1.350 . S
N1537 S1535 1.610 . S
N1537 C1538 1.351 . S
C1538 C1532 1.428 . S
C1538 N1537 1.351 . S
C1538 C1539 1.434 . S
C1539 C1530 1.429 . S
C1539 N1536 1.350 . S
C1539 C1538 1.434 . S
C1540 C1541 1.369 . S
C1540 C1542 1.419 . S
C1540 H1544 0.930 . S
C1541 C1540 1.369 . S
C1541 C1550 1.429 . S
C1542 C1540 1.419 . S
C1542 C1543 1.363 . S
C1542 H1545 0.929 . S
C1543 C1542 1.363 . S
C1543 C1549 1.428 . S
H1544 C1540 0.930 . S
H1545 C1542 0.929 . S
S1546 N1547 1.613 . S
S1546 N1548 1.610 . S
N1547 S1546 1.613 . S
N1547 C1550 1.350 . S
N1548 S1546 1.610 . S
N1548 C1549 1.351 . S
C1549 C1543 1.428 . S
C1549 N1548 1.351 . S
C1549 C1550 1.434 . S
C1550 C1541 1.429 . S
C1550 N1547 1.350 . S
C1550 C1549 1.434 . S
C1551 C1552 1.369 . S
C1551 C1553 1.419 1_556 S
C1551 H1555 0.930 . S
C1552 C1551 1.369 . S
C1552 C1561 1.429 . S
C1553 C1551 1.419 1_554 S
C1553 C1554 1.363 . S
C1553 H1556 0.929 . S
C1554 C1553 1.363 . S
C1554 C1560 1.428 . S
H1555 C1551 0.930 . S
H1556 C1553 0.929 . S
S1557 N1558 1.613 . S
S1557 N1559 1.610 1_556 S
N1558 S1557 1.613 . S
N1558 C1561 1.350 . S
N1559 S1557 1.610 1_554 S
N1559 C1560 1.351 . S
C1560 C1554 1.428 . S
C1560 N1559 1.351 . S
C1560 C1561 1.434 1_554 S
C1561 C1552 1.429 . S
C1561 N1558 1.350 . S
C1561 C1560 1.434 1_556 S
C1562 C1563 1.369 . S
C1562 C1564 1.419 . S
C1562 H1566 0.930 . S
C1563 C1562 1.369 . S
C1563 C1572 1.429 . S
C1564 C1562 1.419 . S
C1564 C1565 1.363 . S
C1564 H1567 0.929 . S
C1565 C1564 1.363 . S
C1565 C1571 1.428 . S
H1566 C1562 0.930 . S
H1567 C1564 0.929 . S
S1568 N1569 1.613 . S
S1568 N1570 1.610 . S
N1569 S1568 1.613 . S
N1569 C1572 1.350 . S
N1570 S1568 1.610 . S
N1570 C1571 1.351 . S
C1571 C1565 1.428 . S
C1571 N1570 1.351 . S
C1571 C1572 1.434 . S
C1572 C1563 1.429 . S
C1572 N1569 1.350 . S
C1572 C1571 1.434 . S
C1573 C1574 1.369 . S
C1573 C1575 1.419 . S
C1573 H1577 0.930 . S
C1574 C1573 1.369 . S
C1574 C1583 1.429 . S
C1575 C1573 1.419 . S
C1575 C1576 1.363 . S
C1575 H1578 0.929 . S
C1576 C1575 1.363 . S
C1576 C1582 1.428 . S
H1577 C1573 0.930 . S
H1578 C1575 0.929 . S
S1579 N1580 1.613 . S
S1579 N1581 1.610 . S
N1580 S1579 1.613 . S
N1580 C1583 1.350 . S
N1581 S1579 1.610 . S
N1581 C1582 1.351 . S
C1582 C1576 1.428 . S
C1582 N1581 1.351 . S
C1582 C1583 1.434 . S
C1583 C1574 1.429 . S
C1583 N1580 1.350 . S
C1583 C1582 1.434 . S
C1584 C1585 1.369 . S
C1584 C1586 1.419 . S
C1584 H1588 0.930 . S
C1585 C1584 1.369 . S
C1585 C1594 1.429 . S
C1586 C1584 1.419 . S
C1586 C1587 1.363 . S
C1586 H1589 0.929 . S
C1587 C1586 1.363 . S
C1587 C1593 1.428 . S
H1588 C1584 0.930 . S
H1589 C1586 0.929 . S
S1590 N1591 1.613 . S
S1590 N1592 1.610 . S
N1591 S1590 1.613 . S
N1591 C1594 1.350 . S
N1592 S1590 1.610 . S
N1592 C1593 1.351 . S
C1593 C1587 1.428 . S
C1593 N1592 1.351 . S
C1593 C1594 1.434 . S
C1594 C1585 1.429 . S
C1594 N1591 1.350 . S
C1594 C1593 1.434 . S
C1595 C1596 1.369 . S
C1595 C1597 1.419 . S
C1595 H1599 0.930 . S
C1596 C1595 1.369 . S
C1596 C1605 1.429 . S
C1597 C1595 1.419 . S
C1597 C1598 1.363 . S
C1597 H1600 0.929 . S
C1598 C1597 1.363 . S
C1598 C1604 1.428 . S
H1599 C1595 0.930 . S
H1600 C1597 0.929 . S
S1601 N1602 1.613 . S
S1601 N1603 1.610 . S
N1602 S1601 1.613 . S
N1602 C1605 1.350 . S
N1603 S1601 1.610 . S
N1603 C1604 1.351 . S
C1604 C1598 1.428 . S
C1604 N1603 1.351 . S
C1604 C1605 1.434 . S
C1605 C1596 1.429 . S
C1605 N1602 1.350 . S
C1605 C1604 1.434 . S
C1606 C1607 1.369 . S
C1606 C1608 1.419 . S
C1606 H1610 0.930 . S
C1607 C1606 1.369 . S
C1607 C1616 1.429 . S
C1608 C1606 1.419 . S
C1608 C1609 1.363 . S
C1608 H1611 0.929 . S
C1609 C1608 1.363 . S
C1609 C1615 1.428 . S
H1610 C1606 0.930 . S
H1611 C1608 0.929 . S
S1612 N1613 1.613 . S
S1612 N1614 1.610 . S
N1613 S1612 1.613 . S
N1613 C1616 1.350 . S
N1614 S1612 1.610 . S
N1614 C1615 1.351 . S
C1615 C1609 1.428 . S
C1615 N1614 1.351 . S
C1615 C1616 1.434 . S
C1616 C1607 1.429 . S
C1616 N1613 1.350 . S
C1616 C1615 1.434 . S
C1617 C1618 1.369 . S
C1617 C1619 1.419 . S
C1617 H1621 0.930 . S
C1618 C1617 1.369 . S
C1618 C1627 1.429 . S
C1619 C1617 1.419 . S
C1619 C1620 1.363 . S
C1619 H1622 0.929 . S
C1620 C1619 1.363 . S
C1620 C1626 1.428 . S
H1621 C1617 0.930 . S
H1622 C1619 0.929 . S
S1623 N1624 1.613 . S
S1623 N1625 1.610 . S
N1624 S1623 1.613 . S
N1624 C1627 1.350 . S
N1625 S1623 1.610 . S
N1625 C1626 1.351 . S
C1626 C1620 1.428 . S
C1626 N1625 1.351 . S
C1626 C1627 1.434 . S
C1627 C1618 1.429 . S
C1627 N1624 1.350 . S
C1627 C1626 1.434 . S
C1628 C1629 1.369 . S
C1628 C1630 1.419 . S
C1628 H1632 0.930 . S
C1629 C1628 1.369 . S
C1629 C1638 1.429 . S
C1630 C1628 1.419 . S
C1630 C1631 1.363 . S
C1630 H1633 0.929 . S
C1631 C1630 1.363 . S
C1631 C1637 1.428 . S
H1632 C1628 0.930 . S
H1633 C1630 0.929 . S
S1634 N1635 1.613 . S
S1634 N1636 1.610 . S
N1635 S1634 1.613 . S
N1635 C1638 1.350 . S
N1636 S1634 1.610 . S
N1636 C1637 1.351 . S
C1637 C1631 1.428 . S
C1637 N1636 1.351 . S
C1637 C1638 1.434 . S
C1638 C1629 1.429 . S
C1638 N1635 1.350 . S
C1638 C1637 1.434 . S
C1639 C1640 1.369 . S
C1639 C1641 1.419 . S
C1639 H1643 0.930 . S
C1640 C1639 1.369 . S
C1640 C1649 1.429 . S
C1641 C1639 1.419 . S
C1641 C1642 1.363 . S
C1641 H1644 0.929 . S
C1642 C1641 1.363 . S
C1642 C1648 1.428 . S
H1643 C1639 0.930 . S
H1644 C1641 0.929 . S
S1645 N1646 1.613 . S
S1645 N1647 1.610 . S
N1646 S1645 1.613 . S
N1646 C1649 1.350 . S
N1647 S1645 1.610 . S
N1647 C1648 1.351 . S
C1648 C1642 1.428 . S
C1648 N1647 1.351 . S
C1648 C1649 1.434 . S
C1649 C1640 1.429 . S
C1649 N1646 1.350 . S
C1649 C1648 1.434 . S
C1650 C1651 1.369 . S
C1650 C1652 1.419 . S
C1650 H1654 0.930 . S
C1651 C1650 1.369 . S
C1651 C1660 1.429 . S
C1652 C1650 1.419 . S
C1652 C1653 1.363 . S
C1652 H1655 0.929 . S
C1653 C1652 1.363 . S
C1653 C1659 1.428 . S
H1654 C1650 0.930 . S
H1655 C1652 0.929 . S
S1656 N1657 1.613 . S
S1656 N1658 1.610 . S
N1657 S1656 1.613 . S
N1657 C1660 1.350 . S
N1658 S1656 1.610 . S
N1658 C1659 1.351 . S
C1659 C1653 1.428 . S
C1659 N1658 1.351 . S
C1659 C1660 1.434 . S
C1660 C1651 1.429 . S
C1660 N1657 1.350 . S
C1660 C1659 1.434 . S
C1661 C1662 1.369 . S
C1661 C1663 1.419 . S
C1661 H1665 0.930 . S
C1662 C1661 1.369 . S
C1662 C1671 1.429 . S
C1663 C1661 1.419 . S
C1663 C1664 1.363 . S
C1663 H1666 0.929 . S
C1664 C1663 1.363 . S
C1664 C1670 1.428 . S
H1665 C1661 0.930 . S
H1666 C1663 0.929 . S
S1667 N1668 1.613 . S
S1667 N1669 1.610 . S
N1668 S1667 1.613 . S
N1668 C1671 1.350 . S
N1669 S1667 1.610 . S
N1669 C1670 1.351 . S
C1670 C1664 1.428 . S
C1670 N1669 1.351 . S
C1670 C1671 1.434 . S
C1671 C1662 1.429 . S
C1671 N1668 1.350 . S
C1671 C1670 1.434 . S
C1672 C1673 1.369 . S
C1672 C1674 1.419 . S
C1672 H1676 0.930 . S
C1673 C1672 1.369 . S
C1673 C1682 1.429 . S
C1674 C1672 1.419 . S
C1674 C1675 1.363 . S
C1674 H1677 0.929 . S
C1675 C1674 1.363 . S
C1675 C1681 1.428 . S
H1676 C1672 0.930 . S
H1677 C1674 0.929 . S
S1678 N1679 1.613 . S
S1678 N1680 1.610 . S
N1679 S1678 1.613 . S
N1679 C1682 1.350 . S
N1680 S1678 1.610 . S
N1680 C1681 1.351 . S
C1681 C1675 1.428 . S
C1681 N1680 1.351 . S
C1681 C1682 1.434 . S
C1682 C1673 1.429 . S
C1682 N1679 1.350 . S
C1682 C1681 1.434 . S
C1683 C1684 1.369 . S
C1683 C1685 1.419 . S
C1683 H1687 0.930 . S
C1684 C1683 1.369 . S
C1684 C1693 1.429 . S
C1685 C1683 1.419 . S
C1685 C1686 1.363 . S
C1685 H1688 0.929 . S
C1686 C1685 1.363 . S
C1686 C1692 1.428 . S
H1687 C1683 0.930 . S
H1688 C1685 0.929 . S
S1689 N1690 1.613 . S
S1689 N1691 1.610 . S
N1690 S1689 1.613 . S
N1690 C1693 1.350 . S
N1691 S1689 1.610 . S
N1691 C1692 1.351 . S
C1692 C1686 1.428 . S
C1692 N1691 1.351 . S
C1692 C1693 1.434 . S
C1693 C1684 1.429 . S
C1693 N1690 1.350 . S
C1693 C1692 1.434 . S
C1694 C1695 1.369 . S
C1694 C1696 1.419 . S
C1694 H1698 0.930 . S
C1695 C1694 1.369 . S
C1695 C1704 1.429 . S
C1696 C1694 1.419 . S
C1696 C1697 1.363 . S
C1696 H1699 0.929 . S
C1697 C1696 1.363 . S
C1697 C1703 1.428 . S
H1698 C1694 0.930 . S
H1699 C1696 0.929 . S
S1700 N1701 1.613 . S
S1700 N1702 1.610 . S
N1701 S1700 1.613 . S
N1701 C1704 1.350 . S
N1702 S1700 1.610 . S
N1702 C1703 1.351 . S
C1703 C1697 1.428 . S
C1703 N1702 1.351 . S
C1703 C1704 1.434 . S
C1704 C1695 1.429 . S
C1704 N1701 1.350 . S
C1704 C1703 1.434 . S
C1705 C1706 1.369 . S
C1705 C1707 1.419 . S
C1705 H1709 0.930 . S
C1706 C1705 1.369 . S
C1706 C1715 1.429 . S
C1707 C1705 1.419 . S
C1707 C1708 1.363 . S
C1707 H1710 0.929 . S
C1708 C1707 1.363 . S
C1708 C1714 1.428 . S
H1709 C1705 0.930 . S
H1710 C1707 0.929 . S
S1711 N1712 1.613 . S
S1711 N1713 1.610 . S
N1712 S1711 1.613 . S
N1712 C1715 1.350 . S
N1713 S1711 1.610 . S
N1713 C1714 1.351 . S
C1714 C1708 1.428 . S
C1714 N1713 1.351 . S
C1714 C1715 1.434 . S
C1715 C1706 1.429 . S
C1715 N1712 1.350 . S
C1715 C1714 1.434 . S
C1716 C1717 1.369 . S
C1716 C1718 1.419 . S
C1716 H1720 0.930 . S
C1717 C1716 1.369 . S
C1717 C1726 1.429 . S
C1718 C1716 1.419 . S
C1718 C1719 1.363 . S
C1718 H1721 0.929 . S
C1719 C1718 1.363 . S
C1719 C1725 1.428 . S
H1720 C1716 0.930 . S
H1721 C1718 0.929 . S
S1722 N1723 1.613 . S
S1722 N1724 1.610 . S
N1723 S1722 1.613 . S
N1723 C1726 1.350 . S
N1724 S1722 1.610 . S
N1724 C1725 1.351 . S
C1725 C1719 1.428 . S
C1725 N1724 1.351 . S
C1725 C1726 1.434 . S
C1726 C1717 1.429 . S
C1726 N1723 1.350 . S
C1726 C1725 1.434 . S
C1727 C1728 1.369 . S
C1727 C1729 1.419 . S
C1727 H1731 0.930 . S
C1728 C1727 1.369 . S
C1728 C1737 1.429 . S
C1729 C1727 1.419 . S
C1729 C1730 1.363 . S
C1729 H1732 0.929 . S
C1730 C1729 1.363 . S
C1730 C1736 1.428 . S
H1731 C1727 0.930 . S
H1732 C1729 0.929 . S
S1733 N1734 1.613 . S
S1733 N1735 1.610 . S
N1734 S1733 1.613 . S
N1734 C1737 1.350 . S
N1735 S1733 1.610 . S
N1735 C1736 1.351 . S
C1736 C1730 1.428 . S
C1736 N1735 1.351 . S
C1736 C1737 1.434 . S
C1737 C1728 1.429 . S
C1737 N1734 1.350 . S
C1737 C1736 1.434 . S
C1738 C1739 1.369 . S
C1738 C1740 1.419 . S
C1738 H1742 0.930 . S
C1739 C1738 1.369 . S
C1739 C1748 1.429 . S
C1740 C1738 1.419 . S
C1740 C1741 1.363 . S
C1740 H1743 0.929 . S
C1741 C1740 1.363 . S
C1741 C1747 1.428 . S
H1742 C1738 0.930 . S
H1743 C1740 0.929 . S
S1744 N1745 1.613 . S
S1744 N1746 1.610 . S
N1745 S1744 1.613 . S
N1745 C1748 1.350 . S
N1746 S1744 1.610 . S
N1746 C1747 1.351 . S
C1747 C1741 1.428 . S
C1747 N1746 1.351 . S
C1747 C1748 1.434 . S
C1748 C1739 1.429 . S
C1748 N1745 1.350 . S
C1748 C1747 1.434 . S
C1749 C1750 1.369 . S
C1749 C1751 1.419 . S
C1749 H1753 0.930 . S
C1750 C1749 1.369 . S
C1750 C1759 1.429 . S
C1751 C1749 1.419 . S
C1751 C1752 1.363 . S
C1751 H1754 0.929 . S
C1752 C1751 1.363 . S
C1752 C1758 1.428 . S
H1753 C1749 0.930 . S
H1754 C1751 0.929 . S
S1755 N1756 1.613 . S
S1755 N1757 1.610 . S
N1756 S1755 1.613 . S
N1756 C1759 1.350 . S
N1757 S1755 1.610 . S
N1757 C1758 1.351 . S
C1758 C1752 1.428 . S
C1758 N1757 1.351 . S
C1758 C1759 1.434 . S
C1759 C1750 1.429 . S
C1759 N1756 1.350 . S
C1759 C1758 1.434 . S
C1760 C1761 1.369 . S
C1760 C1762 1.419 . S
C1760 H1764 0.930 . S
C1761 C1760 1.369 . S
C1761 C1770 1.429 . S
C1762 C1760 1.419 . S
C1762 C1763 1.363 . S
C1762 H1765 0.929 . S
C1763 C1762 1.363 . S
C1763 C1769 1.428 . S
H1764 C1760 0.930 . S
H1765 C1762 0.929 . S
S1766 N1767 1.613 . S
S1766 N1768 1.610 . S
N1767 S1766 1.613 . S
N1767 C1770 1.350 1_556 S
N1768 S1766 1.610 . S
N1768 C1769 1.351 1_556 S
C1769 C1763 1.428 . S
C1769 N1768 1.351 1_554 S
C1769 C1770 1.434 . S
C1770 C1761 1.429 . S
C1770 N1767 1.350 1_554 S
C1770 C1769 1.434 . S
C1771 C1772 1.369 . S
C1771 C1773 1.419 1_655 S
C1771 H1775 0.930 . S
C1772 C1771 1.369 . S
C1772 C1781 1.429 . S
C1773 C1771 1.419 1_455 S
C1773 C1774 1.363 . S
C1773 H1776 0.929 . S
C1774 C1773 1.363 . S
C1774 C1780 1.428 . S
H1775 C1771 0.930 . S
H1776 C1773 0.929 . S
S1777 N1778 1.617 1_455 S
S1777 N1779 1.607 . S
N1778 S1777 1.617 1_655 S
N1778 C1781 1.350 . S
N1779 S1777 1.607 . S
N1779 C1780 1.351 . S
C1780 C1774 1.428 . S
C1780 N1779 1.351 . S
C1780 C1781 1.434 1_455 S
C1781 C1772 1.429 . S
C1781 N1778 1.350 . S
C1781 C1780 1.434 1_655 S
C1782 C1783 1.369 . S
C1782 C1784 1.419 . S
C1782 H1786 0.930 . S
C1783 C1782 1.369 . S
C1783 C1792 1.429 . S
C1784 C1782 1.419 . S
C1784 C1785 1.363 . S
C1784 H1787 0.929 . S
C1785 C1784 1.363 . S
C1785 C1791 1.428 . S
H1786 C1782 0.930 . S
H1787 C1784 0.929 . S
S1788 N1789 1.613 . S
S1788 N1790 1.610 . S
N1789 S1788 1.613 . S
N1789 C1792 1.350 . S
N1790 S1788 1.610 . S
N1790 C1791 1.351 . S
C1791 C1785 1.428 . S
C1791 N1790 1.351 . S
C1791 C1792 1.434 . S
C1792 C1783 1.429 . S
C1792 N1789 1.350 . S
C1792 C1791 1.434 . S
C1793 C1794 1.369 . S
C1793 C1795 1.419 . S
C1793 H1797 0.930 . S
C1794 C1793 1.369 . S
C1794 C1803 1.429 . S
C1795 C1793 1.419 . S
C1795 C1796 1.363 . S
C1795 H1798 0.929 . S
C1796 C1795 1.363 . S
C1796 C1802 1.428 . S
H1797 C1793 0.930 . S
H1798 C1795 0.929 . S
S1799 N1800 1.613 . S
S1799 N1801 1.610 . S
N1800 S1799 1.613 . S
N1800 C1803 1.350 . S
N1801 S1799 1.610 . S
N1801 C1802 1.351 . S
C1802 C1796 1.428 . S
C1802 N1801 1.351 . S
C1802 C1803 1.434 . S
C1803 C1794 1.429 . S
C1803 N1800 1.350 . S
C1803 C1802 1.434 . S
C1804 C1805 1.369 . S
C1804 C1806 1.419 . S
C1804 H1808 0.930 1_556 S
C1805 C1804 1.369 . S
C1805 C1814 1.429 . S
C1806 C1804 1.419 . S
C1806 C1807 1.363 . S
C1806 H1809 0.929 1_556 S
C1807 C1806 1.363 . S
C1807 C1813 1.428 . S
H1808 C1804 0.930 1_554 S
H1809 C1806 0.929 1_554 S
S1810 N1811 1.613 . S
S1810 N1812 1.610 . S
N1811 S1810 1.613 . S
N1811 C1814 1.350 . S
N1812 S1810 1.610 . S
N1812 C1813 1.351 . S
C1813 C1807 1.428 . S
C1813 N1812 1.351 . S
C1813 C1814 1.434 . S
C1814 C1805 1.429 . S
C1814 N1811 1.350 . S
C1814 C1813 1.434 . S
C1815 C1816 1.369 . S
C1815 C1817 1.419 . S
C1815 H1819 0.930 . S
C1816 C1815 1.369 . S
C1816 C1825 1.429 . S
C1817 C1815 1.419 . S
C1817 C1818 1.363 . S
C1817 H1820 0.929 . S
C1818 C1817 1.363 . S
C1818 C1824 1.428 . S
H1819 C1815 0.930 . S
H1820 C1817 0.929 . S
S1821 N1822 1.613 . S
S1821 N1823 1.610 . S
N1822 S1821 1.613 . S
N1822 C1825 1.350 . S
N1823 S1821 1.610 . S
N1823 C1824 1.351 . S
C1824 C1818 1.428 . S
C1824 N1823 1.351 . S
C1824 C1825 1.434 . S
C1825 C1816 1.429 . S
C1825 N1822 1.350 . S
C1825 C1824 1.434 . S
C1826 C1827 1.369 . S
C1826 C1828 1.419 . S
C1826 H1830 0.930 . S
C1827 C1826 1.369 . S
C1827 C1836 1.429 . S
C1828 C1826 1.419 . S
C1828 C1829 1.363 . S
C1828 H1831 0.929 . S
C1829 C1828 1.363 . S
C1829 C1835 1.428 . S
H1830 C1826 0.930 . S
H1831 C1828 0.929 . S
S1832 N1833 1.613 . S
S1832 N1834 1.610 . S
N1833 S1832 1.613 . S
N1833 C1836 1.350 . S
N1834 S1832 1.610 . S
N1834 C1835 1.351 . S
C1835 C1829 1.428 . S
C1835 N1834 1.351 . S
C1835 C1836 1.434 . S
C1836 C1827 1.429 . S
C1836 N1833 1.350 . S
C1836 C1835 1.434 . S
C1837 C1838 1.369 . S
C1837 C1839 1.419 1_455 S
C1837 H1841 0.930 . S
C1838 C1837 1.369 . S
C1838 C1847 1.429 . S
C1839 C1837 1.419 1_655 S
C1839 C1840 1.363 . S
C1839 H1842 0.929 . S
C1840 C1839 1.363 . S
C1840 C1846 1.428 . S
H1841 C1837 0.930 . S
H1842 C1839 0.929 . S
S1843 N1844 1.617 1_655 S
S1843 N1845 1.607 . S
N1844 S1843 1.617 1_455 S
N1844 C1847 1.350 . S
N1845 S1843 1.607 . S
N1845 C1846 1.351 . S
C1846 C1840 1.428 . S
C1846 N1845 1.351 . S
C1846 C1847 1.434 1_655 S
C1847 C1838 1.429 . S
C1847 N1844 1.350 . S
C1847 C1846 1.434 1_455 S
C1848 C1849 1.369 . S
C1848 C1850 1.419 . S
C1848 H1852 0.927 1_556 S
C1849 C1848 1.369 . S
C1849 C1858 1.429 . S
C1850 C1848 1.419 . S
C1850 C1851 1.363 . S
C1850 H1853 0.931 . S
C1851 C1850 1.363 . S
C1851 C1857 1.428 . S
H1852 C1848 0.927 1_554 S
H1853 C1850 0.931 . S
S1854 N1855 1.613 . S
S1854 N1856 1.610 . S
N1855 S1854 1.613 . S
N1855 C1858 1.350 . S
N1856 S1854 1.610 . S
N1856 C1857 1.351 . S
C1857 C1851 1.428 . S
C1857 N1856 1.351 . S
C1857 C1858 1.434 . S
C1858 C1849 1.429 . S
C1858 N1855 1.350 . S
C1858 C1857 1.434 . S
C1859 C1860 1.369 . S
C1859 C1861 1.419 . S
C1859 H1863 0.930 . S
C1860 C1859 1.369 . S
C1860 C1869 1.429 . S
C1861 C1859 1.419 . S
C1861 C1862 1.363 . S
C1861 H1864 0.929 . S
C1862 C1861 1.363 . S
C1862 C1868 1.428 . S
H1863 C1859 0.930 . S
H1864 C1861 0.929 . S
S1865 N1866 1.613 . S
S1865 N1867 1.610 . S
N1866 S1865 1.613 . S
N1866 C1869 1.350 . S
N1867 S1865 1.610 . S
N1867 C1868 1.351 . S
C1868 C1862 1.428 . S
C1868 N1867 1.351 . S
C1868 C1869 1.434 . S
C1869 C1860 1.429 . S
C1869 N1866 1.350 . S
C1869 C1868 1.434 . S
C1870 C1871 1.369 . S
C1870 C1872 1.419 . S
C1870 H1874 0.930 . S
C1871 C1870 1.369 . S
C1871 C1880 1.429 . S
C1872 C1870 1.419 . S
C1872 C1873 1.363 . S
C1872 H1875 0.929 . S
C1873 C1872 1.363 . S
C1873 C1879 1.428 . S
H1874 C1870 0.930 . S
H1875 C1872 0.929 . S
S1876 N1877 1.613 . S
S1876 N1878 1.610 . S
N1877 S1876 1.613 . S
N1877 C1880 1.350 1_556 S
N1878 S1876 1.610 . S
N1878 C1879 1.351 1_556 S
C1879 C1873 1.428 . S
C1879 N1878 1.351 1_554 S
C1879 C1880 1.434 . S
C1880 C1871 1.429 . S
C1880 N1877 1.350 1_554 S
C1880 C1879 1.434 . S
C1881 C1882 1.369 . S
C1881 C1883 1.419 . S
C1881 H1885 0.930 . S
C1882 C1881 1.369 . S
C1882 C1891 1.429 . S
C1883 C1881 1.419 . S
C1883 C1884 1.363 . S
C1883 H1886 0.929 . S
C1884 C1883 1.363 . S
C1884 C1890 1.428 . S
H1885 C1881 0.930 . S
H1886 C1883 0.929 . S
S1887 N1888 1.613 . S
S1887 N1889 1.610 . S
N1888 S1887 1.613 . S
N1888 C1891 1.350 . S
N1889 S1887 1.610 . S
N1889 C1890 1.351 . S
C1890 C1884 1.428 . S
C1890 N1889 1.351 . S
C1890 C1891 1.434 . S
C1891 C1882 1.429 . S
C1891 N1888 1.350 . S
C1891 C1890 1.434 . S
C1892 C1893 1.369 . S
C1892 C1894 1.419 . S
C1892 H1896 0.930 . S
C1893 C1892 1.369 . S
C1893 C1902 1.429 . S
C1894 C1892 1.419 . S
C1894 C1895 1.363 . S
C1894 H1897 0.929 . S
C1895 C1894 1.363 . S
C1895 C1901 1.428 . S
H1896 C1892 0.930 . S
H1897 C1894 0.929 . S
S1898 N1899 1.613 . S
S1898 N1900 1.610 . S
N1899 S1898 1.613 . S
N1899 C1902 1.350 . S
N1900 S1898 1.610 . S
N1900 C1901 1.351 . S
C1901 C1895 1.428 . S
C1901 N1900 1.351 . S
C1901 C1902 1.434 . S
C1902 C1893 1.429 . S
C1902 N1899 1.350 . S
C1902 C1901 1.434 . S
C1903 C1904 1.369 . S
C1903 C1905 1.419 1_455 S
C1903 H1907 0.930 . S
C1904 C1903 1.369 . S
C1904 C1913 1.429 . S
C1905 C1903 1.419 1_655 S
C1905 C1906 1.363 . S
C1905 H1908 0.929 . S
C1906 C1905 1.363 . S
C1906 C1912 1.428 . S
H1907 C1903 0.930 . S
H1908 C1905 0.929 . S
S1909 N1910 1.617 1_655 S
S1909 N1911 1.607 . S
N1910 S1909 1.617 1_455 S
N1910 C1913 1.350 . S
N1911 S1909 1.607 . S
N1911 C1912 1.351 . S
C1912 C1906 1.428 . S
C1912 N1911 1.351 . S
C1912 C1913 1.434 1_655 S
C1913 C1904 1.429 . S
C1913 N1910 1.350 . S
C1913 C1912 1.434 1_455 S
C1914 C1915 1.369 . S
C1914 C1916 1.419 1_455 S
C1914 H1918 0.930 . S
C1915 C1914 1.369 . S
C1915 C1924 1.429 . S
C1916 C1914 1.419 1_655 S
C1916 C1917 1.363 . S
C1916 H1919 0.929 . S
C1917 C1916 1.363 . S
C1917 C1923 1.428 . S
H1918 C1914 0.930 . S
H1919 C1916 0.929 . S
S1920 N1921 1.617 1_655 S
S1920 N1922 1.607 . S
N1921 S1920 1.617 1_455 S
N1921 C1924 1.350 . S
N1922 S1920 1.607 . S
N1922 C1923 1.351 . S
C1923 C1917 1.428 . S
C1923 N1922 1.351 . S
C1923 C1924 1.434 1_655 S
C1924 C1915 1.429 . S
C1924 N1921 1.350 . S
C1924 C1923 1.434 1_455 S
C1925 C1926 1.369 . S
C1925 C1927 1.419 . S
C1925 H1929 0.930 . S
C1926 C1925 1.369 . S
C1926 C1935 1.429 . S
C1927 C1925 1.419 . S
C1927 C1928 1.363 . S
C1927 H1930 0.929 . S
C1928 C1927 1.363 . S
C1928 C1934 1.428 . S
H1929 C1925 0.930 . S
H1930 C1927 0.929 . S
S1931 N1932 1.613 . S
S1931 N1933 1.610 . S
N1932 S1931 1.613 . S
N1932 C1935 1.350 . S
N1933 S1931 1.610 . S
N1933 C1934 1.351 . S
C1934 C1928 1.428 . S
C1934 N1933 1.351 . S
C1934 C1935 1.434 . S
C1935 C1926 1.429 . S
C1935 N1932 1.350 . S
C1935 C1934 1.434 . S
C1057 C41 2.025 1_545 S
C1059 C28 2.000 . S
C1068 C61 2.000 . S
C1070 C74 2.023 . S
C1079 C94 2.000 . S
C1081 C107 2.024 1_565 S
C1090 C127 2.002 . S
C1092 C8 2.022 1_556 S
C1101 C160 2.002 . S
C1103 C239 2.022 1_565 S
C1112 C140 2.022 1_554 S
C1114 C193 2.004 . S
C1123 C226 2.000 . S
C1125 C173 2.024 1_545 S
C1134 C259 2.001 . S
C1136 C206 2.024 . S
C1145 C305 2.023 1_565 S
C1147 C292 2.004 . S
C1156 C338 2.025 . S
C1158 C325 2.001 . S
C1167 C358 2.003 . S
C1169 C371 2.022 1_545 S
C1178 C272 2.024 1_554 S
C1180 C391 2.002 . S
C1189 C424 2.003 . S
C1191 C503 2.022 1_545 S
C1200 C457 2.000 . S
C1202 C404 2.023 1_556 S
C1211 C437 2.025 1_565 S
C1213 C490 2.001 . S
C1222 C470 2.021 . S
C1224 C523 2.004 . S
C1233 C569 2.024 . S
C1235 C556 2.001 . S
C1244 C589 2.004 . S
C1246 C602 2.021 1_556 S
C1255 C635 2.024 . S
C1257 C622 2.001 . S
C1266 C536 2.025 . S
C1268 C655 2.001 . S
C1277 C767 2.024 . S
C1279 C688 2.000 . S
C1288 C721 2.003 . S
C1290 C668 2.022 . S
C1299 C701 2.025 . S
C1301 C754 2.001 . S
C1310 C787 2.005 . S
C1312 C734 2.022 1_554 S
C1321 C833 2.022 . S
C1323 C820 2.002 . S
C1332 C853 2.003 . S
C1334 C866 2.023 1_554 S
C1343 C886 2.004 . S
C1345 C899 2.021 . S
C1354 C919 2.000 . S
C1356 C800 2.023 . S
C1365 C1031 2.024 . S
C1367 C952 2.002 . S
C1376 C932 2.025 . S
C1378 C985 2.001 . S
C1387 C965 2.024 . S
C1389 C1018 2.000 . S
C1398 C998 2.021 1_556 S
C1400 C1051 2.003 . S
C1409 N203 1.004 . S
C1411 N5 1.005 . S
C1420 N38 1.007 . S
C1422 N236 1.008 . S
C1431 N71 1.006 . S
C1433 N137 1.007 . S
C1442 N104 1.007 . S
C1444 N170 1.008 . S
C1453 N467 1.008 . S
C1455 N269 1.006 . S
C1464 N500 1.007 . S
C1466 N302 1.007 . S
C1475 N335 1.006 . S
C1477 N401 1.007 . S
C1486 N434 1.010 . S
C1488 N368 1.009 . S
C1497 N533 1.003 . S
C1499 N731 1.003 . S
C1508 N764 1.007 . S
C1510 N566 1.008 . S
C1519 N665 1.003 . S
C1521 N599 1.003 . S
C1530 N698 1.008 . S
C1532 N632 1.007 . S
C1541 N995 1.006 . S
C1543 N797 1.007 . S
C1552 N1028 1.007 . S
C1554 N830 1.005 . S
C1563 N929 1.003 . S
C1565 N863 1.004 . S
C1574 N962 1.006 . S
C1576 N896 1.004 . S
C1585 N14 1.010 . S
C1587 N245 1.006 . S
C1596 N47 1.009 . S
C1598 N146 1.010 . S
C1607 N179 1.009 . S
C1609 N80 1.010 . S
C1618 N113 1.010 . S
C1620 N212 1.009 . S
C1629 N278 1.006 . S
C1631 N509 1.006 . S
C1640 N410 1.005 . S
C1642 N311 1.007 . S
C1651 N344 1.009 . S
C1653 N443 1.006 . S
C1662 N377 1.005 . S
C1664 N476 1.008 . S
C1673 N773 1.010 . S
C1675 N542 1.008 . S
C1684 N674 1.007 . S
C1686 N575 1.006 . S
C1695 N608 1.009 . S
C1697 N707 1.006 . S
C1706 N641 1.010 . S
C1708 N740 1.009 . S
C1717 N806 1.007 . S
C1719 N1037 1.010 . S
C1728 N938 1.007 . S
C1730 N839 1.006 . S
C1739 N872 1.005 . S
C1741 N971 1.007 . S
C1750 N905 1.010 . S
C1752 N1004 1.008 . S
C1761 C17 1.407 . S
C1763 C1007 1.407 . S
C1772 C512 1.406 . S
C1774 C50 1.406 . S
C1783 C941 1.406 . S
C1785 C83 1.406 . S
C1794 C116 1.404 . S
C1796 C446 1.405 . S
C1805 C149 1.406 . S
C1807 C875 1.406 . S
C1816 C380 1.407 . S
C1818 C182 1.407 . S
C1827 C215 1.408 . S
C1829 C809 1.407 . S
C1838 C248 1.404 . S
C1840 C314 1.405 . S
C1849 C281 1.405 . S
C1851 C743 1.406 . S
C1860 C347 1.405 . S
C1862 C677 1.405 . S
C1871 C413 1.408 . S
C1873 C611 1.408 . S
C1882 C479 1.409 . S
C1884 C545 1.408 . S
C1893 C578 1.409 . S
C1895 C1040 1.408 . S
C1904 C974 1.407 . S
C1906 C644 1.407 . S
C1915 C908 1.407 . S
C1917 C710 1.407 . S
C1926 C842 1.407 . S
C1928 C776 1.407 . S
