# Generated by pormake.
# Topology dia-g, (3)-cn, num edge types: 1
# Building blocks:
#     Node 0, Type 0, BuildingBlock: OLANEW_clean_sbu_2, # of connection points: 3
#     Node 1, Type 0, BuildingBlock: OLANEW_clean_sbu_2, # of connection points: 3
#     Node 2, Type 0, BuildingBlock: OLANEW_clean_sbu_2, # of connection points: 3
#     Node 3, Type 0, BuildingBlock: OLANEW_clean_sbu_2, # of connection points: 3
#     Node 4, Type 0, BuildingBlock: OLANEW_clean_sbu_2, # of connection points: 3
#     Node 5, Type 0, BuildingBlock: OLANEW_clean_sbu_2, # of connection points: 3
#     Node 6, Type 0, BuildingBlock: OLANEW_clean_sbu_2, # of connection points: 3
#     Node 7, Type 0, BuildingBlock: OLANEW_clean_sbu_2, # of connection points: 3
#     Node 8, Type 0, BuildingBlock: OLANEW_clean_sbu_2, # of connection points: 3
#     Node 9, Type 0, BuildingBlock: OLANEW_clean_sbu_2, # of connection points: 3
#     Node 10, Type 0, BuildingBlock: OLANEW_clean_sbu_2, # of connection points: 3
#     Node 11, Type 0, BuildingBlock: OLANEW_clean_sbu_2, # of connection points: 3
#     Node 12, Type 0, BuildingBlock: OLANEW_clean_sbu_2, # of connection points: 3
#     Node 13, Type 0, BuildingBlock: OLANEW_clean_sbu_2, # of connection points: 3
#     Node 14, Type 0, BuildingBlock: OLANEW_clean_sbu_2, # of connection points: 3
#     Node 15, Type 0, BuildingBlock: OLANEW_clean_sbu_2, # of connection points: 3
#     Edge 16, Type (0, 0), BuildingBlock: CIFDUS_clean_linker_0, # of connection points: 2
#     Edge 17, Type (0, 0), BuildingBlock: CIFDUS_clean_linker_0, # of connection points: 2
#     Edge 18, Type (0, 0), BuildingBlock: CIFDUS_clean_linker_0, # of connection points: 2
#     Edge 19, Type (0, 0), BuildingBlock: CIFDUS_clean_linker_0, # of connection points: 2
#     Edge 20, Type (0, 0), BuildingBlock: CIFDUS_clean_linker_0, # of connection points: 2
#     Edge 21, Type (0, 0), BuildingBlock: CIFDUS_clean_linker_0, # of connection points: 2
#     Edge 22, Type (0, 0), BuildingBlock: CIFDUS_clean_linker_0, # of connection points: 2
#     Edge 23, Type (0, 0), BuildingBlock: CIFDUS_clean_linker_0, # of connection points: 2
#     Edge 24, Type (0, 0), BuildingBlock: CIFDUS_clean_linker_0, # of connection points: 2
#     Edge 25, Type (0, 0), BuildingBlock: CIFDUS_clean_linker_0, # of connection points: 2
#     Edge 26, Type (0, 0), BuildingBlock: CIFDUS_clean_linker_0, # of connection points: 2
#     Edge 27, Type (0, 0), BuildingBlock: CIFDUS_clean_linker_0, # of connection points: 2
#     Edge 28, Type (0, 0), BuildingBlock: CIFDUS_clean_linker_0, # of connection points: 2
#     Edge 29, Type (0, 0), BuildingBlock: CIFDUS_clean_linker_0, # of connection points: 2
#     Edge 30, Type (0, 0), BuildingBlock: CIFDUS_clean_linker_0, # of connection points: 2
#     Edge 31, Type (0, 0), BuildingBlock: CIFDUS_clean_linker_0, # of connection points: 2
#     Edge 32, Type (0, 0), BuildingBlock: CIFDUS_clean_linker_0, # of connection points: 2
#     Edge 33, Type (0, 0), BuildingBlock: CIFDUS_clean_linker_0, # of connection points: 2
#     Edge 34, Type (0, 0), BuildingBlock: CIFDUS_clean_linker_0, # of connection points: 2
#     Edge 35, Type (0, 0), BuildingBlock: CIFDUS_clean_linker_0, # of connection points: 2
#     Edge 36, Type (0, 0), BuildingBlock: CIFDUS_clean_linker_0, # of connection points: 2
#     Edge 37, Type (0, 0), BuildingBlock: CIFDUS_clean_linker_0, # of connection points: 2
#     Edge 38, Type (0, 0), BuildingBlock: CIFDUS_clean_linker_0, # of connection points: 2
#     Edge 39, Type (0, 0), BuildingBlock: CIFDUS_clean_linker_0, # of connection points: 2
# Relax obj value: 0.010
# Max RMSD: 0.024
# Mean RMSD: 0.024
data_MOF--net-dia-g--node1-OLANEW_clean_sbu_2--edge1-CIFDUS_clean_linker_0
_symmetry_space_group_name_H-M    P1
_symmetry_Int_Tables_number       1
_symmetry_cell_setting            triclinic
loop_
_symmetry_equiv_pos_as_xyz
'x, y, z'
_cell_length_a     52.456942
_cell_length_b     52.551544
_cell_length_c     73.466604
_cell_angle_alpha  90.125549
_cell_angle_beta   90.079926
_cell_angle_gamma 89.986281
loop_
_atom_site_label
_atom_site_type_symbol
_atom_site_fract_x
_atom_site_fract_y
_atom_site_fract_z
_atom_type_partial_charge
O0 O 0.12473 0.18217 0.41576 0.0
Cd1 Cd 0.14108 0.19787 0.38683 0.0
O2 O 0.10749 0.15038 0.40081 0.0
Cd3 Cd 0.08685 0.11428 0.39901 0.0
O4 O 0.06119 0.08208 0.40282 0.0
C5 C 0.03742 0.08546 0.40048 0.0
O6 O 0.02929 0.10798 0.39533 0.0
C7 C 0.11152 0.16192 0.4158 0.0
C8 C 0.1881 0.17602 0.37869 0.0
O9 O 0.18672 0.19733 0.38716 0.0
O10 O 0.16722 0.16512 0.37404 0.0
O11 O 0.87985 0.60992 0.71229 0.0
Cd12 Cd 0.89108 0.60381 0.68034 0.0
O13 O 0.91993 0.61299 0.72085 0.0
Cd14 Cd 0.93575 0.59939 0.69521 0.0
O15 O 0.95964 0.5701 0.68293 0.0
C16 C 0.95302 0.5472 0.68578 0.0
O17 O 0.93165 0.54286 0.69456 0.0
C18 C 0.89632 0.61416 0.72463 0.0
C19 C 0.87364 0.64588 0.66093 0.0
O20 O 0.85986 0.62588 0.66255 0.0
O21 O 0.89593 0.6457 0.66809 0.0
O22 O 0.36394 0.34132 0.93904 0.0
Cd23 Cd 0.36858 0.33766 0.90608 0.0
O24 O 0.39327 0.37103 0.93988 0.0
Cd25 Cd 0.41915 0.39781 0.95351 0.0
O26 O 0.44476 0.42713 0.96417 0.0
C27 C 0.46847 0.42256 0.96556 0.0
O28 O 0.47696 0.39988 0.96107 0.0
C29 C 0.37702 0.35727 0.94811 0.0
C30 C 0.32169 0.34499 0.88893 0.0
O31 O 0.32886 0.32278 0.89399 0.0
O32 O 0.33683 0.36371 0.89183 0.0
O33 O 0.64296 0.85207 0.19436 0.0
Cd34 Cd 0.63965 0.85346 0.16122 0.0
O35 O 0.61101 0.87883 0.19613 0.0
Cd36 Cd 0.58502 0.90472 0.21043 0.0
O37 O 0.55759 0.93296 0.22008 0.0
C38 C 0.56501 0.95423 0.22642 0.0
O39 O 0.58958 0.95863 0.22793 0.0
C40 C 0.62759 0.86502 0.204 0.0
C41 C 0.64149 0.80468 0.14631 0.0
O42 O 0.66187 0.81775 0.14863 0.0
O43 O 0.62022 0.81477 0.15096 0.0
O44 O 0.13136 0.34399 0.79965 0.0
Cd45 Cd 0.13257 0.35228 0.83238 0.0
O46 O 0.10742 0.37769 0.79642 0.0
Cd47 Cd 0.08228 0.40625 0.78424 0.0
O48 O 0.05456 0.43728 0.78586 0.0
C49 C 0.03413 0.43302 0.79463 0.0
O50 O 0.03029 0.41015 0.80128 0.0
C51 C 0.11889 0.35882 0.78929 0.0
C52 C 0.18103 0.34447 0.847 0.0
O53 O 0.16483 0.32626 0.84599 0.0
O54 O 0.17429 0.36639 0.84107 0.0
O55 O 0.66266 0.61791 0.05791 0.0
Cd56 Cd 0.67174 0.61775 0.09049 0.0
O57 O 0.62175 0.61708 0.06422 0.0
Cd58 Cd 0.58277 0.61192 0.05434 0.0
O59 O 0.54767 0.59419 0.04463 0.0
C60 C 0.54918 0.57308 0.03621 0.0
O61 O 0.5718 0.56334 0.03298 0.0
C62 C 0.63962 0.61775 0.05259 0.0
C63 C 0.66983 0.66695 0.10468 0.0
O64 O 0.69081 0.65752 0.09881 0.0
O65 O 0.6498 0.65303 0.10393 0.0
O66 O 0.3816 0.11741 0.31378 0.0
Cd67 Cd 0.37779 0.11349 0.34676 0.0
O68 O 0.39663 0.07856 0.3125 0.0
Cd69 Cd 0.41074 0.04347 0.29967 0.0
O70 O 0.43505 0.01327 0.28871 0.0
C71 C 0.45641 0.01898 0.28164 0.0
O72 O 0.46286 0.04306 0.28036 0.0
C73 C 0.39006 0.09894 0.30438 0.0
C74 C 0.33157 0.13404 0.35824 0.0
O75 O 0.35189 0.14757 0.35805 0.0
O76 O 0.33323 0.11072 0.35323 0.0
O77 O 0.82335 0.83956 0.58195 0.0
Cd78 Cd 0.81135 0.8285 0.61301 0.0
O79 O 0.85178 0.8659 0.59313 0.0
Cd80 Cd 0.88361 0.89273 0.59102 0.0
O81 O 0.91278 0.9214 0.58563 0.0
C82 C 0.90702 0.94485 0.58673 0.0
O83 O 0.88366 0.95119 0.59132 0.0
C84 C 0.84074 0.85599 0.5794 0.0
C85 C 0.83394 0.78326 0.62445 0.0
O86 O 0.812 0.78325 0.61675 0.0
O87 O 0.84523 0.80468 0.62666 0.0
O88 O 0.59853 0.66258 0.94265 0.0
Cd89 Cd 0.59635 0.66495 0.90952 0.0
O90 O 0.59087 0.62154 0.94111 0.0
Cd91 Cd 0.58279 0.58546 0.95475 0.0
O92 O 0.56355 0.55124 0.96454 0.0
C93 C 0.54317 0.55315 0.9738 0.0
O94 O 0.53477 0.57591 0.97819 0.0
C95 C 0.59596 0.64123 0.95049 0.0
C96 C 0.64533 0.65766 0.89578 0.0
O97 O 0.63702 0.68002 0.89945 0.0
O98 O 0.63022 0.6388 0.89819 0.0
O99 O 0.35702 0.13268 0.18911 0.0
Cd100 Cd 0.3578 0.13552 0.15595 0.0
O101 O 0.39474 0.11491 0.18823 0.0
Cd102 Cd 0.43024 0.09749 0.19822 0.0
O103 O 0.45747 0.07074 0.21028 0.0
C104 C 0.44925 0.04946 0.21606 0.0
O105 O 0.42476 0.04448 0.21478 0.0
C106 C 0.37575 0.12279 0.19749 0.0
C107 C 0.34994 0.18523 0.14402 0.0
O108 O 0.33115 0.16997 0.14627 0.0
O109 O 0.37243 0.17694 0.14741 0.0
O110 O 0.88477 0.8982 0.47167 0.0
Cd111 Cd 0.89517 0.90736 0.43992 0.0
O112 O 0.89255 0.9372 0.48108 0.0
Cd113 Cd 0.90773 0.95064 0.4552 0.0
O114 O 0.93267 0.97361 0.43811 0.0
C115 C 0.95636 0.96854 0.4379 0.0
O116 O 0.96464 0.94871 0.44704 0.0
C117 C 0.88514 0.91465 0.48438 0.0
C118 C 0.85181 0.90091 0.41833 0.0
O119 O 0.86701 0.88231 0.42144 0.0
O120 O 0.85735 0.92266 0.4252 0.0
O121 O 0.14052 0.33367 0.67652 0.0
Cd122 Cd 0.14901 0.32538 0.64436 0.0
O123 O 0.11581 0.36522 0.6684 0.0
Cd124 Cd 0.08841 0.39618 0.67196 0.0
O125 O 0.06056 0.42696 0.67333 0.0
C126 C 0.06643 0.44915 0.66793 0.0
O127 O 0.08951 0.45329 0.66167 0.0
C128 C 0.12601 0.35203 0.68096 0.0
C129 C 0.12679 0.28063 0.63137 0.0
O130 O 0.14932 0.28057 0.63815 0.0
O131 O 0.11467 0.30182 0.63096 0.0
O132 O 0.67618 0.84813 0.31812 0.0
Cd133 Cd 0.67713 0.84913 0.35138 0.0
O134 O 0.6471 0.87815 0.31884 0.0
Cd135 Cd 0.62211 0.90585 0.30541 0.0
O136 O 0.59665 0.93398 0.29313 0.0
C137 C 0.57541 0.92738 0.28624 0.0
O138 O 0.56911 0.90318 0.28619 0.0
C139 C 0.66082 0.86272 0.30978 0.0
C140 C 0.72557 0.85729 0.36596 0.0
O141 O 0.71767 0.83476 0.36234 0.0
O142 O 0.71066 0.87599 0.36246 0.0
O143 O 0.08927 0.11982 0.5311 0.0
Cd144 Cd 0.07513 0.10882 0.56175 0.0
O145 O 0.0565 0.10325 0.51655 0.0
Cd146 Cd 0.0392 0.08524 0.54029 0.0
O147 O 0.01499 0.05792 0.55453 0.0
C148 C 0.02097 0.03449 0.55395 0.0
O149 O 0.04216 0.0278 0.5457 0.0
C150 C 0.0773 0.11567 0.51633 0.0
C151 C 0.09074 0.14792 0.58504 0.0
O152 O 0.10485 0.12836 0.58233 0.0
O153 O 0.06894 0.14861 0.57716 0.0
O154 O 0.85834 0.64677 0.83601 0.0
Cd155 Cd 0.84604 0.64942 0.86799 0.0
O156 O 0.88534 0.61661 0.84345 0.0
Cd157 Cd 0.91245 0.58653 0.83612 0.0
O158 O 0.93697 0.55563 0.82649 0.0
C159 C 0.95603 0.5601 0.81631 0.0
O160 O 0.96107 0.58372 0.81173 0.0
C161 C 0.87544 0.63091 0.83141 0.0
C162 C 0.79396 0.65771 0.87264 0.0
O163 O 0.80956 0.67641 0.87149 0.0
O164 O 0.803 0.63511 0.87145 0.0
O165 O 0.34722 0.37681 0.06174 0.0
Cd166 Cd 0.34366 0.37774 0.09487 0.0
O167 O 0.37904 0.40387 0.06292 0.0
Cd168 Cd 0.41061 0.42478 0.05044 0.0
O169 O 0.44266 0.44671 0.0398 0.0
C170 C 0.43942 0.46981 0.03526 0.0
O171 O 0.41653 0.47979 0.03658 0.0
C172 C 0.36401 0.38998 0.05363 0.0
C173 C 0.35088 0.32918 0.10919 0.0
O174 O 0.32858 0.33707 0.10481 0.0
O175 O 0.36972 0.34437 0.10694 0.0
H176 H 0.05483 0.11342 0.48295 0.0
H177 H 0.12247 0.14033 0.51048 0.0
H178 H 0.13891 0.15701 0.48183 0.0
H179 H 0.13411 0.164 0.44889 0.0
H180 H 0.0658 0.1385 0.42172 0.0
H181 H 0.04974 0.12096 0.45022 0.0
C182 C 0.0732 0.12287 0.48271 0.0
C183 C 0.08738 0.12556 0.49888 0.0
C184 C 0.08251 0.13252 0.4662 0.0
C185 C 0.11112 0.13798 0.49827 0.0
C186 C 0.12055 0.14754 0.48188 0.0
C187 C 0.11571 0.15459 0.44925 0.0
C188 C 0.10152 0.15182 0.43313 0.0
C189 C 0.1064 0.14495 0.46577 0.0
C190 C 0.0776 0.13985 0.43377 0.0
C191 C 0.06824 0.13014 0.45013 0.0
H192 H 0.92636 0.61642 0.75465 0.0
H193 H 0.84806 0.62355 0.73721 0.0
H194 H 0.83476 0.63043 0.76872 0.0
H195 H 0.84532 0.633 0.80145 0.0
H196 H 0.92354 0.62497 0.81857 0.0
H197 H 0.93696 0.61984 0.78694 0.0
C198 C 0.90638 0.61962 0.75768 0.0
C199 C 0.88824 0.61945 0.74357 0.0
C200 C 0.89885 0.62321 0.7758 0.0
C201 C 0.86242 0.62352 0.74781 0.0
C202 C 0.8548 0.62745 0.76583 0.0
C203 C 0.86529 0.6302 0.79817 0.0
C204 C 0.88339 0.62879 0.81225 0.0
C205 C 0.87282 0.62712 0.77995 0.0
C206 C 0.90922 0.62532 0.80794 0.0
C207 C 0.91691 0.6226 0.78988 0.0
H208 H 0.37981 0.39993 0.96897 0.0
H209 H 0.36448 0.31943 0.9716 0.0
H210 H 0.35829 0.32255 0.00453 0.0
H211 H 0.35838 0.34807 0.03266 0.0
H212 H 0.37447 0.42842 0.02995 0.0
H213 H 0.38014 0.42538 0.997 0.0
C214 C 0.37589 0.38295 0.97681 0.0
C215 C 0.37341 0.35936 0.96798 0.0
C216 C 0.37261 0.38487 0.99571 0.0
C217 C 0.36673 0.33777 0.97816 0.0
C218 C 0.36324 0.33954 0.99697 0.0
C219 C 0.36309 0.36488 0.02481 0.0
C220 C 0.3666 0.3883 0.0337 0.0
C221 C 0.36626 0.36297 0.00589 0.0
C222 C 0.37252 0.41002 0.02344 0.0
C223 C 0.3755 0.40834 0.0046 0.0
H224 H 0.67039 0.85927 0.22423 0.0
H225 H 0.58885 0.8677 0.22863 0.0
H226 H 0.59205 0.86808 0.26174 0.0
H227 H 0.61798 0.86576 0.28946 0.0
H228 H 0.69938 0.85623 0.28544 0.0
H229 H 0.69629 0.85568 0.25214 0.0
C230 C 0.65336 0.86121 0.23248 0.0
C231 C 0.62951 0.86439 0.22403 0.0
C232 C 0.65533 0.86101 0.25154 0.0
C233 C 0.60754 0.86648 0.23481 0.0
C234 C 0.60932 0.86633 0.25376 0.0
C235 C 0.63508 0.8641 0.28127 0.0
C236 C 0.65894 0.86179 0.28978 0.0
C237 C 0.63312 0.86385 0.26225 0.0
C238 C 0.68084 0.8583 0.2791 0.0
C239 C 0.67908 0.85805 0.26011 0.0
H240 H 0.11278 0.39274 0.76139 0.0
H241 H 0.12397 0.313 0.77276 0.0
H242 H 0.12592 0.30377 0.74026 0.0
H243 H 0.12632 0.31845 0.70868 0.0
H244 H 0.11682 0.39828 0.69709 0.0
H245 H 0.11157 0.40728 0.7295 0.0
C246 C 0.115 0.37329 0.75676 0.0
C247 C 0.11795 0.35357 0.7695 0.0
C248 C 0.11636 0.36811 0.73798 0.0
C249 C 0.12168 0.32854 0.76324 0.0
C250 C 0.12279 0.32322 0.74465 0.0
C251 C 0.1229 0.3378 0.71324 0.0
C252 C 0.12139 0.35756 0.70044 0.0
C253 C 0.12048 0.34289 0.73192 0.0
C254 C 0.11711 0.38256 0.70656 0.0
C255 C 0.11448 0.38778 0.72515 0.0
H256 H 0.62585 0.60744 0.96772 0.0
H257 H 0.57561 0.67098 0.97709 0.0
H258 H 0.58372 0.66835 0.00993 0.0
H259 H 0.60627 0.64869 0.03575 0.0
H260 H 0.65987 0.58808 0.02595 0.0
H261 H 0.64948 0.58874 0.99339 0.0
C262 C 0.61652 0.62048 0.97704 0.0
C263 C 0.5999 0.63911 0.97022 0.0
C264 C 0.62204 0.61943 0.9957 0.0
C265 C 0.58835 0.65641 0.9822 0.0
C266 C 0.59301 0.65491 0.0009 0.0
C267 C 0.61549 0.63556 0.02643 0.0
C268 C 0.63354 0.61817 0.03307 0.0
C269 C 0.60996 0.63662 0.00777 0.0
C270 C 0.64588 0.60157 0.021 0.0
C271 C 0.6399 0.60192 0.00246 0.0
H272 H 0.40164 0.08984 0.21955 0.0
H273 H 0.34674 0.15076 0.22096 0.0
H274 H 0.34582 0.1485 0.25418 0.0
H275 H 0.36141 0.12959 0.28281 0.0
H276 H 0.42277 0.07512 0.28082 0.0
H277 H 0.42143 0.07521 0.24776 0.0
C278 C 0.39058 0.10361 0.22697 0.0
C279 C 0.37523 0.12116 0.21764 0.0
C280 C 0.39112 0.1031 0.24602 0.0
C281 C 0.35903 0.13718 0.22775 0.0
C282 C 0.35857 0.13601 0.24676 0.0
C283 C 0.37457 0.11782 0.27514 0.0
C284 C 0.3911 0.10106 0.28432 0.0
C285 C 0.37469 0.11913 0.25604 0.0
C286 C 0.40846 0.08651 0.27417 0.0
C287 C 0.40808 0.08703 0.25521 0.0
H288 H 0.86888 0.86839 0.49644 0.0
H289 H 0.88361 0.9453 0.51444 0.0
H290 H 0.87104 0.93398 0.5453 0.0
H291 H 0.85514 0.90252 0.56709 0.0
H292 H 0.84135 0.82542 0.54951 0.0
H293 H 0.85354 0.83673 0.51842 0.0
C294 C 0.86934 0.88269 0.50709 0.0
C295 C 0.87721 0.90766 0.50307 0.0
C296 C 0.86211 0.87607 0.52486 0.0
C297 C 0.87764 0.92594 0.51709 0.0
C298 C 0.87044 0.9195 0.53478 0.0
C299 C 0.85551 0.88803 0.55658 0.0
C300 C 0.84811 0.86301 0.56068 0.0
C301 C 0.8627 0.89463 0.53882 0.0
C302 C 0.84721 0.84478 0.54668 0.0
C303 C 0.85423 0.85122 0.52894 0.0
H304 H 0.94586 0.01322 0.42075 0.0
H305 H 0.00815 0.96393 0.43602 0.0
H306 H 0.03872 0.99518 0.42484 0.0
H307 H 0.04785 0.03763 0.4126 0.0
H308 H 0.98553 0.08719 0.39785 0.0
H309 H 0.95496 0.05463 0.40689 0.0
C310 C 0.96611 0.00917 0.42148 0.0
C311 C 0.97467 0.98632 0.42935 0.0
C312 C 0.98362 0.02735 0.41522 0.0
C313 C 0.001 0.9814 0.43012 0.0
C314 C 0.01853 -0.00071 0.42376 0.0
C315 C 0.02759 0.04126 0.41123 0.0
C316 C 0.01903 0.06492 0.40469 0.0
C317 C 0.01007 0.02252 0.41659 0.0
C318 C 0.99269 0.06922 0.40293 0.0
C319 C 0.97515 0.05061 0.40811 0.0
H320 H 0.01666 0.44609 0.67795 0.0
H321 H 0.07401 0.49945 0.66023 0.0
H322 H 0.0435 0.53433 0.66307 0.0
H323 H 0.00111 0.54993 0.6719 0.0
H324 H 0.94401 0.49644 0.68988 0.0
H325 H 0.97382 0.46138 0.68543 0.0
C326 C 0.0225 0.46533 0.67465 0.0
C327 C 0.04765 0.47014 0.66901 0.0
C328 C 0.00489 0.4853 0.67634 0.0
C329 C 0.0548 0.49519 0.66467 0.0
C330 C 0.03736 0.51517 0.66629 0.0
C331 C 0.99509 0.53059 0.67468 0.0
C332 C 0.97038 0.52588 0.68131 0.0
C333 C 0.01243 0.51048 0.67228 0.0
C334 C 0.96293 0.50066 0.68483 0.0
C335 C 0.97999 0.48057 0.68233 0.0
H336 H 0.55647 0.50356 0.96922 0.0
H337 H 0.49385 0.55159 0.98577 0.0
H338 H 0.46551 0.51476 0.98636 0.0
H339 H 0.45749 0.46981 0.97883 0.0
H340 H 0.52023 0.42198 0.96217 0.0
H341 H 0.54951 0.45777 0.9652 0.0
C342 C 0.53669 0.50595 0.97316 0.0
C343 C 0.52719 0.53038 0.97706 0.0
C344 C 0.52043 0.48474 0.97331 0.0
C345 C 0.50162 0.53306 0.98244 0.0
C346 C 0.48534 0.51201 0.98271 0.0
C347 C 0.47761 0.46715 0.97602 0.0
C348 C 0.48654 0.44335 0.96994 0.0
C349 C 0.49436 0.4879 0.97763 0.0
C350 C 0.51276 0.44012 0.96671 0.0
C351 C 0.52954 0.46061 0.96839 0.0
H352 H 0.51348 0.95029 0.22916 0.0
H353 H 0.57476 0.00506 0.22979 0.0
H354 H 0.54396 0.03984 0.22858 0.0
H355 H 0.50001 0.05437 0.22324 0.0
H356 H 0.43876 -0.00048 0.22289 0.0
H357 H 0.46913 0.96524 0.22835 0.0
C358 C 0.52008 0.96985 0.22922 0.0
C359 C 0.54638 0.97506 0.22908 0.0
C360 C 0.50229 0.98977 0.22838 0.0
C361 C 0.55463 0.0005 0.22965 0.0
C362 C 0.53702 0.02042 0.22889 0.0
C363 C 0.49327 0.03495 0.22453 0.0
C364 C 0.46723 0.02947 0.22215 0.0
C365 C 0.51086 0.01524 0.22757 0.0
C366 C 0.45875 0.00427 0.22434 0.0
C367 C 0.47611 0.9846 0.22741 0.0
H368 H 0.94971 0.50939 0.82221 0.0
H369 H -0.00047 0.5634 0.796 0.0
H370 H 0.02748 0.52882 0.78624 0.0
H371 H 0.03857 0.48333 0.78603 0.0
H372 H 0.98873 0.42953 0.81248 0.0
H373 H 0.95998 0.46393 0.82112 0.0
C374 C 0.96665 0.51363 0.81433 0.0
C375 C 0.97256 0.539 0.80995 0.0
C376 C 0.98267 0.49367 0.80878 0.0
C377 C 0.99453 0.54408 0.79963 0.0
C378 C 0.01055 0.5243 0.79403 0.0
C379 C 0.02133 0.4791 0.79357 0.0
C380 C 0.01592 0.45386 0.79865 0.0
C381 C 0.00491 0.49903 0.79865 0.0
C382 C 0.99346 0.44876 0.80842 0.0
C383 C 0.97699 0.46844 0.81341 0.0
H384 H 0.44122 0.52141 0.0346 0.0
H385 H 0.48767 0.45459 0.02634 0.0
H386 H 0.52562 0.48125 0.02357 0.0
H387 H 0.54612 0.523 0.02706 0.0
H388 H 0.4998 0.58946 0.03709 0.0
H389 H 0.46128 0.56351 0.03536 0.0
C390 C 0.45959 0.51268 0.03196 0.0
C391 C 0.46167 0.48603 0.03099 0.0
C392 C 0.48141 0.52805 0.03088 0.0
C393 C 0.4856 0.47505 0.02745 0.0
C394 C 0.50733 0.49027 0.0259 0.0
C395 C 0.52759 0.53188 0.02864 0.0
C396 C 0.52587 0.55807 0.03248 0.0
C397 C 0.50555 0.51672 0.02817 0.0
C398 C 0.50168 0.56928 0.03435 0.0
C399 C 0.47964 0.55445 0.03339 0.0
H400 H 0.50736 0.02469 0.27655 0.0
H401 H 0.448 0.9679 0.27809 0.0
H402 H 0.48001 0.93416 0.27694 0.0
H403 H 0.52473 0.921 0.27983 0.0
H404 H 0.58397 0.97798 0.2804 0.0
H405 H 0.55215 0.01138 0.27623 0.0
C406 C 0.50138 0.00494 0.27638 0.0
C407 C 0.47536 -0.00119 0.27777 0.0
C408 C 0.5199 0.98565 0.27636 0.0
C409 C 0.46795 0.97312 0.27733 0.0
C410 C 0.48624 0.95381 0.2767 0.0
C411 C 0.53074 0.94068 0.27877 0.0
C412 C 0.55665 0.94701 0.28078 0.0
C413 C 0.51228 0.95987 0.27691 0.0
C414 C 0.5641 0.97261 0.27922 0.0
C415 C 0.54591 0.99174 0.27687 0.0
H416 H 0.97363 0.04149 0.56836 0.0
H417 H 0.02859 0.98313 0.5552 0.0
H418 H -0.00147 0.95034 0.5647 0.0
H419 H 0.95605 0.93809 0.57554 0.0
H420 H 0.90084 0.99641 0.58824 0.0
H421 H 0.93162 0.02928 0.58014 0.0
C422 C 0.97913 0.02162 0.56769 0.0
C423 C 0.00333 0.01482 0.56101 0.0
C424 C 0.96165 0.0028 0.573 0.0
C425 C 0.01008 0.98894 0.56024 0.0
C426 C 0.99288 0.97014 0.56564 0.0
C427 C 0.95076 0.95798 0.57661 0.0
C428 C 0.92611 0.96472 0.58242 0.0
C429 C 0.96851 0.97683 0.57184 0.0
C430 C 0.91964 0.99063 0.58375 0.0
C431 C 0.93724 0.00948 0.57912 0.0
H432 H 0.28473 0.11236 0.35535 0.0
H433 H 0.32278 0.18084 0.37323 0.0
H434 H 0.2818 0.19965 0.38148 0.0
H435 H 0.23512 0.19694 0.38312 0.0
H436 H 0.19708 0.12885 0.36447 0.0
H437 H 0.23813 0.10963 0.35703 0.0
C438 C 0.28409 0.13136 0.36113 0.0
C439 C 0.30679 0.14515 0.36369 0.0
C440 C 0.26046 0.14217 0.36566 0.0
C441 C 0.30559 0.16981 0.3711 0.0
C442 C 0.28216 0.18059 0.37582 0.0
C443 C 0.23581 0.17787 0.37747 0.0
C444 C 0.21305 0.16437 0.37436 0.0
C445 C 0.25947 0.16699 0.37308 0.0
C446 C 0.21429 0.13971 0.36696 0.0
C447 C 0.23776 0.12867 0.36272 0.0
H448 H 0.89614 0.69237 0.65874 0.0
H449 H 0.82849 0.65118 0.64275 0.0
H450 H 0.81069 0.68984 0.62944 0.0
H451 H 0.81353 0.73569 0.62348 0.0
H452 H 0.88078 0.77705 0.64009 0.0
H453 H 0.89952 0.73794 0.65198 0.0
C454 C 0.87758 0.69178 0.65222 0.0
C455 C 0.86366 0.66891 0.65179 0.0
C456 C 0.86731 0.71415 0.64478 0.0
C457 C 0.83961 0.66853 0.64332 0.0
C458 C 0.82938 0.69065 0.63572 0.0
C459 C 0.83234 0.73615 0.62962 0.0
C460 C 0.84567 0.75931 0.63095 0.0
C461 C 0.84294 0.71362 0.63656 0.0
C462 C 0.87004 0.75952 0.63894 0.0
C463 C 0.88079 0.73716 0.64575 0.0
H464 H 0.28477 0.30965 0.88281 0.0
H465 H 0.30198 0.38933 0.8756 0.0
H466 H 0.26016 0.39611 0.86182 0.0
H467 H 0.21851 0.37957 0.85213 0.0
H468 H 0.20119 0.29997 0.85965 0.0
H469 H 0.24326 0.29307 0.87298 0.0
C470 C 0.27942 0.3285 0.87818 0.0
C471 C 0.29651 0.34894 0.88025 0.0
C472 C 0.2553 0.33231 0.87034 0.0
C473 C 0.28921 0.37324 0.8742 0.0
C474 C 0.26528 0.37716 0.86631 0.0
C475 C 0.22394 0.36069 0.85665 0.0
C476 C 0.20669 0.34033 0.8549 0.0
C477 C 0.24814 0.35685 0.86437 0.0
C478 C 0.21405 0.31601 0.86085 0.0
C479 C 0.23813 0.31202 0.86848 0.0
H480 H 0.68332 0.77893 0.13449 0.0
H481 H 0.60183 0.77184 0.1409 0.0
H482 H 0.60344 0.72867 0.12863 0.0
H483 H 0.62796 0.69285 0.11624 0.0
H484 H 0.70941 0.70002 0.10965 0.0
H485 H 0.70779 0.74324 0.12185 0.0
C486 C 0.6659 0.76796 0.1332 0.0
C487 C 0.6425 0.77862 0.13864 0.0
C488 C 0.66694 0.74314 0.12612 0.0
C489 C 0.62011 0.76413 0.13683 0.0
C490 C 0.621 0.73942 0.12982 0.0
C491 C 0.64537 0.70384 0.11748 0.0
C492 C 0.66877 0.69316 0.11207 0.0
C493 C 0.64431 0.72871 0.12446 0.0
C494 C 0.69113 0.70774 0.11372 0.0
C495 C 0.69023 0.73247 0.12069 0.0
H496 H 0.75642 0.62216 0.87486 0.0
H497 H 0.76959 0.70319 0.87737 0.0
H498 H 0.72455 0.71037 0.88393 0.0
H499 H 0.68181 0.69358 0.89018 0.0
H500 H 0.66871 0.61253 0.88789 0.0
H501 H 0.71331 0.60549 0.87991 0.0
C502 C 0.74944 0.64141 0.87676 0.0
C503 C 0.76641 0.66208 0.87572 0.0
C504 C 0.72352 0.64542 0.88059 0.0
C505 C 0.75698 0.6869 0.87814 0.0
C506 C 0.73122 0.69105 0.88191 0.0
C507 C 0.68865 0.67438 0.88782 0.0
C508 C 0.67194 0.65362 0.88971 0.0
C509 C 0.71437 0.67044 0.88335 0.0
C510 C 0.68115 0.62887 0.88656 0.0
C511 C 0.70668 0.62481 0.88203 0.0
H512 H 0.31491 0.29289 0.11529 0.0
H513 H 0.39582 0.30698 0.11919 0.0
H514 H 0.4026 0.26383 0.13042 0.0
H515 H 0.38569 0.22195 0.13878 0.0
H516 H 0.30479 0.2078 0.13488 0.0
H517 H 0.29793 0.25113 0.12401 0.0
C518 C 0.33403 0.28656 0.11863 0.0
C519 C 0.35482 0.30316 0.11638 0.0
C520 C 0.33782 0.26169 0.12505 0.0
C521 C 0.37946 0.29461 0.12078 0.0
C522 C 0.38337 0.26992 0.1272 0.0
C523 C 0.36654 0.22833 0.13557 0.0
C524 C 0.3458 0.21161 0.13762 0.0
C525 C 0.36271 0.25327 0.12932 0.0
C526 C 0.32111 0.22024 0.13342 0.0
C527 C 0.31716 0.24503 0.1272 0.0
H528 H 0.83338 0.85663 0.40427 0.0
H529 H 0.81699 0.93695 0.40835 0.0
H530 H 0.777 0.93067 0.39191 0.0
H531 H 0.74598 0.90221 0.37732 0.0
H532 H 0.76199 0.82176 0.37375 0.0
H533 H 0.80285 0.82832 0.38899 0.0
C534 C 0.82114 0.8728 0.40148 0.0
C535 C 0.82817 0.89721 0.40758 0.0
C536 C 0.79805 0.86903 0.39215 0.0
C537 C 0.81204 0.91793 0.40385 0.0
C538 C 0.78914 0.91437 0.39446 0.0
C539 C 0.75845 0.88611 0.37978 0.0
C540 C 0.75086 0.86152 0.37443 0.0
C541 C 0.78185 0.88997 0.38869 0.0
C542 C 0.76729 0.84089 0.37775 0.0
C543 C 0.79068 0.84461 0.38648 0.0
H544 H 0.14842 0.23364 0.62907 0.0
H545 H 0.0796 0.27494 0.61614 0.0
H546 H 0.06181 0.23707 0.60163 0.0
H547 H 0.06662 0.19294 0.59122 0.0
H548 H 0.13573 0.15184 0.60364 0.0
H549 H 0.15245 0.18887 0.61983 0.0
C550 C 0.12946 0.23433 0.62318 0.0
C551 C 0.11545 0.25716 0.62362 0.0
C552 C 0.1194 0.21253 0.61472 0.0
C553 C 0.09087 0.25766 0.61595 0.0
C554 C 0.08067 0.23601 0.60763 0.0
C555 C 0.08526 0.19198 0.5976 0.0
C556 C 0.09993 0.16965 0.59613 0.0
C557 C 0.09489 0.21344 0.60673 0.0
C558 C 0.12404 0.16879 0.6045 0.0
C559 C 0.13365 0.18998 0.61374 0.0
loop_
_geom_bond_atom_site_label_1
_geom_bond_atom_site_label_2
_geom_bond_distance
_geom_bond_site_symmetry_2
_ccdc_geom_bond_type
O0 Cd1 2.300 . S
O0 C7 1.275 . S
Cd1 O0 2.300 . S
Cd1 O9 2.381 . S
Cd1 O10 2.378 . S
O2 Cd3 2.385 . S
O2 C7 1.255 . S
Cd3 O2 2.385 . S
Cd3 O4 2.317 . S
O4 Cd3 2.317 . S
O4 C5 1.232 . S
C5 O4 1.232 . S
C5 O6 1.218 . S
O6 C5 1.218 . S
C7 O0 1.275 . S
C7 O2 1.255 . S
C8 O9 1.258 . S
C8 O10 1.256 . S
O9 Cd1 2.381 . S
O9 C8 1.258 . S
O10 Cd1 2.378 . S
O10 C8 1.256 . S
O11 Cd12 2.300 . S
O11 C18 1.275 . S
Cd12 O11 2.300 . S
Cd12 O20 2.381 . S
Cd12 O21 2.378 . S
O13 Cd14 2.385 . S
O13 C18 1.255 . S
Cd14 O13 2.385 . S
Cd14 O15 2.317 . S
O15 Cd14 2.317 . S
O15 C16 1.232 . S
C16 O15 1.232 . S
C16 O17 1.218 . S
O17 C16 1.218 . S
C18 O11 1.275 . S
C18 O13 1.255 . S
C19 O20 1.258 . S
C19 O21 1.256 . S
O20 Cd12 2.381 . S
O20 C19 1.258 . S
O21 Cd12 2.378 . S
O21 C19 1.256 . S
O22 Cd23 2.300 . S
O22 C29 1.275 . S
Cd23 O22 2.300 . S
Cd23 O31 2.381 . S
Cd23 O32 2.378 . S
O24 Cd25 2.385 . S
O24 C29 1.255 . S
Cd25 O24 2.385 . S
Cd25 O26 2.317 . S
O26 Cd25 2.317 . S
O26 C27 1.232 . S
C27 O26 1.232 . S
C27 O28 1.218 . S
O28 C27 1.218 . S
C29 O22 1.275 . S
C29 O24 1.255 . S
C30 O31 1.258 . S
C30 O32 1.256 . S
O31 Cd23 2.381 . S
O31 C30 1.258 . S
O32 Cd23 2.378 . S
O32 C30 1.256 . S
O33 Cd34 2.300 . S
O33 C40 1.275 . S
Cd34 O33 2.300 . S
Cd34 O42 2.381 . S
Cd34 O43 2.378 . S
O35 Cd36 2.385 . S
O35 C40 1.255 . S
Cd36 O35 2.385 . S
Cd36 O37 2.317 . S
O37 Cd36 2.317 . S
O37 C38 1.232 . S
C38 O37 1.232 . S
C38 O39 1.218 . S
O39 C38 1.218 . S
C40 O33 1.275 . S
C40 O35 1.255 . S
C41 O42 1.258 . S
C41 O43 1.256 . S
O42 Cd34 2.381 . S
O42 C41 1.258 . S
O43 Cd34 2.378 . S
O43 C41 1.256 . S
O44 Cd45 2.300 . S
O44 C51 1.275 . S
Cd45 O44 2.300 . S
Cd45 O53 2.381 . S
Cd45 O54 2.378 . S
O46 Cd47 2.385 . S
O46 C51 1.255 . S
Cd47 O46 2.385 . S
Cd47 O48 2.317 . S
O48 Cd47 2.317 . S
O48 C49 1.232 . S
C49 O48 1.232 . S
C49 O50 1.218 . S
O50 C49 1.218 . S
C51 O44 1.275 . S
C51 O46 1.255 . S
C52 O53 1.258 . S
C52 O54 1.256 . S
O53 Cd45 2.381 . S
O53 C52 1.258 . S
O54 Cd45 2.378 . S
O54 C52 1.256 . S
O55 Cd56 2.300 . S
O55 C62 1.275 . S
Cd56 O55 2.300 . S
Cd56 O64 2.381 . S
Cd56 O65 2.378 . S
O57 Cd58 2.385 . S
O57 C62 1.255 . S
Cd58 O57 2.385 . S
Cd58 O59 2.317 . S
O59 Cd58 2.317 . S
O59 C60 1.232 . S
C60 O59 1.232 . S
C60 O61 1.218 . S
O61 C60 1.218 . S
C62 O55 1.275 . S
C62 O57 1.255 . S
C63 O64 1.258 . S
C63 O65 1.256 . S
O64 Cd56 2.381 . S
O64 C63 1.258 . S
O65 Cd56 2.378 . S
O65 C63 1.256 . S
O66 Cd67 2.300 . S
O66 C73 1.275 . S
Cd67 O66 2.300 . S
Cd67 O75 2.381 . S
Cd67 O76 2.378 . S
O68 Cd69 2.385 . S
O68 C73 1.255 . S
Cd69 O68 2.385 . S
Cd69 O70 2.317 . S
O70 Cd69 2.317 . S
O70 C71 1.232 . S
C71 O70 1.232 . S
C71 O72 1.218 . S
O72 C71 1.218 . S
C73 O66 1.275 . S
C73 O68 1.255 . S
C74 O75 1.258 . S
C74 O76 1.256 . S
O75 Cd67 2.381 . S
O75 C74 1.258 . S
O76 Cd67 2.378 . S
O76 C74 1.256 . S
O77 Cd78 2.300 . S
O77 C84 1.275 . S
Cd78 O77 2.300 . S
Cd78 O86 2.381 . S
Cd78 O87 2.378 . S
O79 Cd80 2.385 . S
O79 C84 1.255 . S
Cd80 O79 2.385 . S
Cd80 O81 2.317 . S
O81 Cd80 2.317 . S
O81 C82 1.232 . S
C82 O81 1.232 . S
C82 O83 1.218 . S
O83 C82 1.218 . S
C84 O77 1.275 . S
C84 O79 1.255 . S
C85 O86 1.258 . S
C85 O87 1.256 . S
O86 Cd78 2.381 . S
O86 C85 1.258 . S
O87 Cd78 2.378 . S
O87 C85 1.256 . S
O88 Cd89 2.300 . S
O88 C95 1.275 . S
Cd89 O88 2.300 . S
Cd89 O97 2.381 . S
Cd89 O98 2.378 . S
O90 Cd91 2.385 . S
O90 C95 1.255 . S
Cd91 O90 2.385 . S
Cd91 O92 2.317 . S
O92 Cd91 2.317 . S
O92 C93 1.232 . S
C93 O92 1.232 . S
C93 O94 1.218 . S
O94 C93 1.218 . S
C95 O88 1.275 . S
C95 O90 1.255 . S
C96 O97 1.258 . S
C96 O98 1.256 . S
O97 Cd89 2.381 . S
O97 C96 1.258 . S
O98 Cd89 2.378 . S
O98 C96 1.256 . S
O99 Cd100 2.300 . S
O99 C106 1.275 . S
Cd100 O99 2.300 . S
Cd100 O108 2.381 . S
Cd100 O109 2.378 . S
O101 Cd102 2.385 . S
O101 C106 1.255 . S
Cd102 O101 2.385 . S
Cd102 O103 2.317 . S
O103 Cd102 2.317 . S
O103 C104 1.232 . S
C104 O103 1.232 . S
C104 O105 1.218 . S
O105 C104 1.218 . S
C106 O99 1.275 . S
C106 O101 1.255 . S
C107 O108 1.258 . S
C107 O109 1.256 . S
O108 Cd100 2.381 . S
O108 C107 1.258 . S
O109 Cd100 2.378 . S
O109 C107 1.256 . S
O110 Cd111 2.300 . S
O110 C117 1.275 . S
Cd111 O110 2.300 . S
Cd111 O119 2.381 . S
Cd111 O120 2.378 . S
O112 Cd113 2.385 . S
O112 C117 1.255 . S
Cd113 O112 2.385 . S
Cd113 O114 2.317 . S
O114 Cd113 2.317 . S
O114 C115 1.232 . S
C115 O114 1.232 . S
C115 O116 1.218 . S
O116 C115 1.218 . S
C117 O110 1.275 . S
C117 O112 1.255 . S
C118 O119 1.258 . S
C118 O120 1.256 . S
O119 Cd111 2.381 . S
O119 C118 1.258 . S
O120 Cd111 2.378 . S
O120 C118 1.256 . S
O121 Cd122 2.300 . S
O121 C128 1.275 . S
Cd122 O121 2.300 . S
Cd122 O130 2.381 . S
Cd122 O131 2.378 . S
O123 Cd124 2.385 . S
O123 C128 1.255 . S
Cd124 O123 2.385 . S
Cd124 O125 2.317 . S
O125 Cd124 2.317 . S
O125 C126 1.232 . S
C126 O125 1.232 . S
C126 O127 1.218 . S
O127 C126 1.218 . S
C128 O121 1.275 . S
C128 O123 1.255 . S
C129 O130 1.258 . S
C129 O131 1.256 . S
O130 Cd122 2.381 . S
O130 C129 1.258 . S
O131 Cd122 2.378 . S
O131 C129 1.256 . S
O132 Cd133 2.300 . S
O132 C139 1.275 . S
Cd133 O132 2.300 . S
Cd133 O141 2.381 . S
Cd133 O142 2.378 . S
O134 Cd135 2.385 . S
O134 C139 1.255 . S
Cd135 O134 2.385 . S
Cd135 O136 2.317 . S
O136 Cd135 2.317 . S
O136 C137 1.232 . S
C137 O136 1.232 . S
C137 O138 1.218 . S
O138 C137 1.218 . S
C139 O132 1.275 . S
C139 O134 1.255 . S
C140 O141 1.258 . S
C140 O142 1.256 . S
O141 Cd133 2.381 . S
O141 C140 1.258 . S
O142 Cd133 2.378 . S
O142 C140 1.256 . S
O143 Cd144 2.300 . S
O143 C150 1.275 . S
Cd144 O143 2.300 . S
Cd144 O152 2.381 . S
Cd144 O153 2.378 . S
O145 Cd146 2.385 . S
O145 C150 1.255 . S
Cd146 O145 2.385 . S
Cd146 O147 2.317 . S
O147 Cd146 2.317 . S
O147 C148 1.232 . S
C148 O147 1.232 . S
C148 O149 1.218 . S
O149 C148 1.218 . S
C150 O143 1.275 . S
C150 O145 1.255 . S
C151 O152 1.258 . S
C151 O153 1.256 . S
O152 Cd144 2.381 . S
O152 C151 1.258 . S
O153 Cd144 2.378 . S
O153 C151 1.256 . S
O154 Cd155 2.300 . S
O154 C161 1.275 . S
Cd155 O154 2.300 . S
Cd155 O163 2.381 . S
Cd155 O164 2.378 . S
O156 Cd157 2.385 . S
O156 C161 1.255 . S
Cd157 O156 2.385 . S
Cd157 O158 2.317 . S
O158 Cd157 2.317 . S
O158 C159 1.232 . S
C159 O158 1.232 . S
C159 O160 1.218 . S
O160 C159 1.218 . S
C161 O154 1.275 . S
C161 O156 1.255 . S
C162 O163 1.258 . S
C162 O164 1.256 . S
O163 Cd155 2.381 . S
O163 C162 1.258 . S
O164 Cd155 2.378 . S
O164 C162 1.256 . S
O165 Cd166 2.300 . S
O165 C172 1.275 . S
Cd166 O165 2.300 . S
Cd166 O174 2.381 . S
Cd166 O175 2.378 . S
O167 Cd168 2.385 . S
O167 C172 1.255 . S
Cd168 O167 2.385 . S
Cd168 O169 2.317 . S
O169 Cd168 2.317 . S
O169 C170 1.232 . S
C170 O169 1.232 . S
C170 O171 1.218 . S
O171 C170 1.218 . S
C172 O165 1.275 . S
C172 O167 1.255 . S
C173 O174 1.258 . S
C173 O175 1.256 . S
O174 Cd166 2.381 . S
O174 C173 1.258 . S
O175 Cd166 2.378 . S
O175 C173 1.256 . S
H176 C182 0.930 . S
H177 C185 0.930 . S
H178 C186 0.930 . S
H179 C187 0.930 . S
H180 C190 0.930 . S
H181 C191 0.930 . S
C182 H176 0.930 . S
C182 C183 1.355 . S
C182 C184 1.415 . S
C183 C182 1.355 . S
C183 C185 1.419 . S
C184 C182 1.415 . S
C184 C189 1.425 . S
C184 C191 1.409 . S
C185 H177 0.930 . S
C185 C183 1.419 . S
C185 C186 1.362 . S
C186 H178 0.930 . S
C186 C185 1.362 . S
C186 C189 1.409 . S
C187 H179 0.930 . S
C187 C188 1.355 . S
C187 C189 1.415 . S
C188 C187 1.355 . S
C188 C190 1.419 . S
C189 C184 1.425 . S
C189 C186 1.409 . S
C189 C187 1.415 . S
C190 H180 0.930 . S
C190 C188 1.419 . S
C190 C191 1.362 . S
C191 H181 0.930 . S
C191 C184 1.409 . S
C191 C190 1.362 . S
H192 C198 0.930 . S
H193 C201 0.930 . S
H194 C202 0.930 . S
H195 C203 0.930 . S
H196 C206 0.930 . S
H197 C207 0.930 . S
C198 H192 0.930 . S
C198 C199 1.355 . S
C198 C200 1.415 . S
C199 C198 1.355 . S
C199 C201 1.419 . S
C200 C198 1.415 . S
C200 C205 1.425 . S
C200 C207 1.409 . S
C201 H193 0.930 . S
C201 C199 1.419 . S
C201 C202 1.362 . S
C202 H194 0.930 . S
C202 C201 1.362 . S
C202 C205 1.409 . S
C203 H195 0.930 . S
C203 C204 1.355 . S
C203 C205 1.415 . S
C204 C203 1.355 . S
C204 C206 1.419 . S
C205 C200 1.425 . S
C205 C202 1.409 . S
C205 C203 1.415 . S
C206 H196 0.930 . S
C206 C204 1.419 . S
C206 C207 1.362 . S
C207 H197 0.930 . S
C207 C200 1.409 . S
C207 C206 1.362 . S
H208 C214 0.930 . S
H209 C217 0.930 . S
H210 C218 0.930 . S
H211 C219 0.930 . S
H212 C222 0.930 . S
H213 C223 0.930 . S
C214 H208 0.930 . S
C214 C215 1.355 . S
C214 C216 1.415 . S
C215 C214 1.355 . S
C215 C217 1.419 . S
C216 C214 1.415 . S
C216 C221 1.425 1_556 S
C216 C223 1.409 1_556 S
C217 H209 0.930 . S
C217 C215 1.419 . S
C217 C218 1.362 . S
C218 H210 0.930 . S
C218 C217 1.362 . S
C218 C221 1.409 1_556 S
C219 H211 0.930 . S
C219 C220 1.355 . S
C219 C221 1.415 . S
C220 C219 1.355 . S
C220 C222 1.419 . S
C221 C216 1.425 1_554 S
C221 C218 1.409 1_554 S
C221 C219 1.415 . S
C222 H212 0.930 . S
C222 C220 1.419 . S
C222 C223 1.362 . S
C223 H213 0.930 . S
C223 C216 1.409 1_554 S
C223 C222 1.362 . S
H224 C230 0.930 . S
H225 C233 0.930 . S
H226 C234 0.930 . S
H227 C235 0.930 . S
H228 C238 0.930 . S
H229 C239 0.930 . S
C230 H224 0.930 . S
C230 C231 1.355 . S
C230 C232 1.415 . S
C231 C230 1.355 . S
C231 C233 1.419 . S
C232 C230 1.415 . S
C232 C237 1.425 . S
C232 C239 1.409 . S
C233 H225 0.930 . S
C233 C231 1.419 . S
C233 C234 1.362 . S
C234 H226 0.930 . S
C234 C233 1.362 . S
C234 C237 1.409 . S
C235 H227 0.930 . S
C235 C236 1.355 . S
C235 C237 1.415 . S
C236 C235 1.355 . S
C236 C238 1.419 . S
C237 C232 1.425 . S
C237 C234 1.409 . S
C237 C235 1.415 . S
C238 H228 0.930 . S
C238 C236 1.419 . S
C238 C239 1.362 . S
C239 H229 0.930 . S
C239 C232 1.409 . S
C239 C238 1.362 . S
H240 C246 0.930 . S
H241 C249 0.930 . S
H242 C250 0.930 . S
H243 C251 0.930 . S
H244 C254 0.930 . S
H245 C255 0.930 . S
C246 H240 0.930 . S
C246 C247 1.355 . S
C246 C248 1.415 . S
C247 C246 1.355 . S
C247 C249 1.419 . S
C248 C246 1.415 . S
C248 C253 1.425 . S
C248 C255 1.409 . S
C249 H241 0.930 . S
C249 C247 1.419 . S
C249 C250 1.362 . S
C250 H242 0.930 . S
C250 C249 1.362 . S
C250 C253 1.409 . S
C251 H243 0.930 . S
C251 C252 1.355 . S
C251 C253 1.415 . S
C252 C251 1.355 . S
C252 C254 1.419 . S
C253 C248 1.425 . S
C253 C250 1.409 . S
C253 C251 1.415 . S
C254 H244 0.930 . S
C254 C252 1.419 . S
C254 C255 1.362 . S
C255 H245 0.930 . S
C255 C248 1.409 . S
C255 C254 1.362 . S
H256 C262 0.930 . S
H257 C265 0.930 . S
H258 C266 0.930 . S
H259 C267 0.930 . S
H260 C270 0.930 . S
H261 C271 0.930 . S
C262 H256 0.930 . S
C262 C263 1.355 . S
C262 C264 1.415 . S
C263 C262 1.355 . S
C263 C265 1.419 . S
C264 C262 1.415 . S
C264 C269 1.425 1_556 S
C264 C271 1.409 1_556 S
C265 H257 0.930 . S
C265 C263 1.419 . S
C265 C266 1.362 . S
C266 H258 0.930 . S
C266 C265 1.362 . S
C266 C269 1.409 1_556 S
C267 H259 0.930 . S
C267 C268 1.355 . S
C267 C269 1.415 . S
C268 C267 1.355 . S
C268 C270 1.419 . S
C269 C264 1.425 1_554 S
C269 C266 1.409 1_554 S
C269 C267 1.415 . S
C270 H260 0.930 . S
C270 C268 1.419 . S
C270 C271 1.362 . S
C271 H261 0.930 . S
C271 C264 1.409 1_554 S
C271 C270 1.362 . S
H272 C278 0.930 . S
H273 C281 0.930 . S
H274 C282 0.930 . S
H275 C283 0.930 . S
H276 C286 0.930 . S
H277 C287 0.930 . S
C278 H272 0.930 . S
C278 C279 1.355 . S
C278 C280 1.415 . S
C279 C278 1.355 . S
C279 C281 1.419 . S
C280 C278 1.415 . S
C280 C285 1.425 . S
C280 C287 1.409 . S
C281 H273 0.930 . S
C281 C279 1.419 . S
C281 C282 1.362 . S
C282 H274 0.930 . S
C282 C281 1.362 . S
C282 C285 1.409 . S
C283 H275 0.930 . S
C283 C284 1.355 . S
C283 C285 1.415 . S
C284 C283 1.355 . S
C284 C286 1.419 . S
C285 C280 1.425 . S
C285 C282 1.409 . S
C285 C283 1.415 . S
C286 H276 0.930 . S
C286 C284 1.419 . S
C286 C287 1.362 . S
C287 H277 0.930 . S
C287 C280 1.409 . S
C287 C286 1.362 . S
H288 C294 0.930 . S
H289 C297 0.930 . S
H290 C298 0.930 . S
H291 C299 0.930 . S
H292 C302 0.930 . S
H293 C303 0.930 . S
C294 H288 0.930 . S
C294 C295 1.355 . S
C294 C296 1.415 . S
C295 C294 1.355 . S
C295 C297 1.419 . S
C296 C294 1.415 . S
C296 C301 1.425 . S
C296 C303 1.409 . S
C297 H289 0.930 . S
C297 C295 1.419 . S
C297 C298 1.362 . S
C298 H290 0.930 . S
C298 C297 1.362 . S
C298 C301 1.409 . S
C299 H291 0.930 . S
C299 C300 1.355 . S
C299 C301 1.415 . S
C300 C299 1.355 . S
C300 C302 1.419 . S
C301 C296 1.425 . S
C301 C298 1.409 . S
C301 C299 1.415 . S
C302 H292 0.930 . S
C302 C300 1.419 . S
C302 C303 1.362 . S
C303 H293 0.930 . S
C303 C296 1.409 . S
C303 C302 1.362 . S
H304 C310 0.930 . S
H305 C313 0.930 . S
H306 C314 0.923 1_545 S
H307 C315 0.930 . S
H308 C318 0.930 . S
H309 C319 0.923 1_565 S
C310 H304 0.930 . S
C310 C311 1.355 . S
C310 C312 1.441 . S
C311 C310 1.355 . S
C311 C313 1.419 . S
C312 C310 1.441 . S
C312 C317 1.422 1_665 S
C312 C319 1.386 1_665 S
C313 H305 0.930 . S
C313 C311 1.419 . S
C313 C314 1.362 . S
C314 H306 0.923 1_565 S
C314 C313 1.362 . S
C314 C317 1.386 1_665 S
C315 H307 0.930 . S
C315 C316 1.355 . S
C315 C317 1.441 . S
C316 C315 1.355 . S
C316 C318 1.419 . S
C317 C312 1.422 1_445 S
C317 C314 1.386 1_445 S
C317 C315 1.441 . S
C318 H308 0.930 . S
C318 C316 1.419 . S
C318 C319 1.362 . S
C319 H309 0.923 1_545 S
C319 C312 1.386 1_445 S
C319 C318 1.362 . S
H320 C326 0.930 . S
H321 C329 0.930 . S
H322 C330 0.930 . S
H323 C331 0.930 . S
H324 C334 0.930 . S
H325 C335 0.930 . S
C326 H320 0.930 . S
C326 C327 1.355 . S
C326 C328 1.390 1_455 S
C327 C326 1.355 . S
C327 C329 1.419 . S
C328 C326 1.390 1_655 S
C328 C333 1.423 1_655 S
C328 C335 1.436 . S
C329 H321 0.930 . S
C329 C327 1.419 . S
C329 C330 1.362 . S
C330 H322 0.930 . S
C330 C329 1.362 . S
C330 C333 1.436 . S
C331 H323 0.930 . S
C331 C332 1.355 . S
C331 C333 1.390 1_655 S
C332 C331 1.355 . S
C332 C334 1.419 . S
C333 C328 1.423 1_455 S
C333 C330 1.436 . S
C333 C331 1.390 1_455 S
C334 H324 0.930 . S
C334 C332 1.419 . S
C334 C335 1.362 . S
C335 H325 0.930 . S
C335 C328 1.436 . S
C335 C334 1.362 . S
H336 C342 0.930 . S
H337 C345 0.930 . S
H338 C346 0.930 . S
H339 C347 0.930 . S
H340 C350 0.930 . S
H341 C351 0.930 . S
C342 H336 0.930 . S
C342 C343 1.355 . S
C342 C344 1.415 . S
C343 C342 1.355 . S
C343 C345 1.419 . S
C344 C342 1.415 . S
C344 C349 1.425 . S
C344 C351 1.409 . S
C345 H337 0.930 . S
C345 C343 1.419 . S
C345 C346 1.362 . S
C346 H338 0.930 . S
C346 C345 1.362 . S
C346 C349 1.409 . S
C347 H339 0.930 . S
C347 C348 1.355 . S
C347 C349 1.415 . S
C348 C347 1.355 . S
C348 C350 1.419 . S
C349 C344 1.425 . S
C349 C346 1.409 . S
C349 C347 1.415 . S
C350 H340 0.930 . S
C350 C348 1.419 . S
C350 C351 1.362 . S
C351 H341 0.930 . S
C351 C344 1.409 . S
C351 C350 1.362 . S
H352 C358 0.930 . S
H353 C361 0.930 . S
H354 C362 0.930 . S
H355 C363 0.930 . S
H356 C366 0.930 . S
H357 C367 0.930 . S
C358 H352 0.930 . S
C358 C359 1.355 . S
C358 C360 1.415 . S
C359 C358 1.355 . S
C359 C361 1.419 . S
C360 C358 1.415 . S
C360 C365 1.425 1_565 S
C360 C367 1.409 . S
C361 H353 0.930 . S
C361 C359 1.419 . S
C361 C362 1.362 1_565 S
C362 H354 0.930 . S
C362 C361 1.362 1_545 S
C362 C365 1.409 . S
C363 H355 0.930 . S
C363 C364 1.355 . S
C363 C365 1.415 . S
C364 C363 1.355 . S
C364 C366 1.419 . S
C365 C360 1.425 1_545 S
C365 C362 1.409 . S
C365 C363 1.415 . S
C366 H356 0.930 . S
C366 C364 1.419 . S
C366 C367 1.362 1_545 S
C367 H357 0.930 . S
C367 C360 1.409 . S
C367 C366 1.362 1_565 S
H368 C374 0.930 . S
H369 C377 0.930 . S
H370 C378 0.930 . S
H371 C379 0.930 . S
H372 C382 0.930 . S
H373 C383 0.930 . S
C374 H368 0.930 . S
C374 C375 1.355 . S
C374 C376 1.415 . S
C375 C374 1.355 . S
C375 C377 1.419 . S
C376 C374 1.415 . S
C376 C381 1.425 1_655 S
C376 C383 1.409 . S
C377 H369 0.930 . S
C377 C375 1.419 . S
C377 C378 1.362 1_655 S
C378 H370 0.930 . S
C378 C377 1.362 1_455 S
C378 C381 1.409 . S
C379 H371 0.930 . S
C379 C380 1.355 . S
C379 C381 1.415 . S
C380 C379 1.355 . S
C380 C382 1.419 . S
C381 C376 1.425 1_455 S
C381 C378 1.409 . S
C381 C379 1.415 . S
C382 H372 0.930 . S
C382 C380 1.419 . S
C382 C383 1.362 1_455 S
C383 H373 0.930 . S
C383 C376 1.409 . S
C383 C382 1.362 1_655 S
H384 C390 0.930 . S
H385 C393 0.930 . S
H386 C394 0.930 . S
H387 C395 0.930 . S
H388 C398 0.930 . S
H389 C399 0.930 . S
C390 H384 0.930 . S
C390 C391 1.355 . S
C390 C392 1.415 . S
C391 C390 1.355 . S
C391 C393 1.419 . S
C392 C390 1.415 . S
C392 C397 1.425 . S
C392 C399 1.409 . S
C393 H385 0.930 . S
C393 C391 1.419 . S
C393 C394 1.362 . S
C394 H386 0.930 . S
C394 C393 1.362 . S
C394 C397 1.409 . S
C395 H387 0.930 . S
C395 C396 1.355 . S
C395 C397 1.415 . S
C396 C395 1.355 . S
C396 C398 1.419 . S
C397 C392 1.425 . S
C397 C394 1.409 . S
C397 C395 1.415 . S
C398 H388 0.930 . S
C398 C396 1.419 . S
C398 C399 1.362 . S
C399 H389 0.930 . S
C399 C392 1.409 . S
C399 C398 1.362 . S
H400 C406 0.930 . S
H401 C409 0.930 . S
H402 C410 0.930 . S
H403 C411 0.930 . S
H404 C414 0.930 . S
H405 C415 0.930 . S
C406 H400 0.930 . S
C406 C407 1.355 . S
C406 C408 1.415 . S
C407 C406 1.355 . S
C407 C409 1.419 . S
C408 C406 1.415 . S
C408 C413 1.425 1_545 S
C408 C415 1.409 . S
C409 H401 0.930 . S
C409 C407 1.419 . S
C409 C410 1.362 1_545 S
C410 H402 0.930 . S
C410 C409 1.362 1_565 S
C410 C413 1.409 . S
C411 H403 0.930 . S
C411 C412 1.355 . S
C411 C413 1.415 . S
C412 C411 1.355 . S
C412 C414 1.419 . S
C413 C408 1.425 1_565 S
C413 C410 1.409 . S
C413 C411 1.415 . S
C414 H404 0.930 . S
C414 C412 1.419 . S
C414 C415 1.362 1_565 S
C415 H405 0.930 . S
C415 C408 1.409 . S
C415 C414 1.362 1_545 S
H416 C422 0.930 . S
H417 C425 0.930 . S
H418 C426 0.930 . S
H419 C427 0.930 . S
H420 C430 0.930 . S
H421 C431 0.930 . S
C422 H416 0.930 . S
C422 C423 1.355 . S
C422 C424 1.397 1_455 S
C423 C422 1.355 . S
C423 C425 1.419 . S
C424 C422 1.397 1_655 S
C424 C429 1.424 1_645 S
C424 C431 1.428 . S
C425 H417 0.930 . S
C425 C423 1.419 . S
C425 C426 1.362 1_545 S
C426 H418 0.930 . S
C426 C425 1.362 1_565 S
C426 C429 1.428 . S
C427 H419 0.930 . S
C427 C428 1.355 . S
C427 C429 1.397 1_655 S
C428 C427 1.355 . S
C428 C430 1.419 . S
C429 C424 1.424 1_465 S
C429 C426 1.428 . S
C429 C427 1.397 1_455 S
C430 H420 0.930 . S
C430 C428 1.419 . S
C430 C431 1.362 1_565 S
C431 H421 0.930 . S
C431 C424 1.428 . S
C431 C430 1.362 1_545 S
H432 C438 0.930 . S
H433 C441 0.930 . S
H434 C442 0.930 . S
H435 C443 0.930 . S
H436 C446 0.930 . S
H437 C447 0.930 . S
C438 H432 0.930 . S
C438 C439 1.355 . S
C438 C440 1.415 . S
C439 C438 1.355 . S
C439 C441 1.419 . S
C440 C438 1.415 . S
C440 C445 1.425 . S
C440 C447 1.409 . S
C441 H433 0.930 . S
C441 C439 1.419 . S
C441 C442 1.362 . S
C442 H434 0.930 . S
C442 C441 1.362 . S
C442 C445 1.409 . S
C443 H435 0.930 . S
C443 C444 1.355 . S
C443 C445 1.415 . S
C444 C443 1.355 . S
C444 C446 1.419 . S
C445 C440 1.425 . S
C445 C442 1.409 . S
C445 C443 1.415 . S
C446 H436 0.930 . S
C446 C444 1.419 . S
C446 C447 1.362 . S
C447 H437 0.930 . S
C447 C440 1.409 . S
C447 C446 1.362 . S
H448 C454 0.930 . S
H449 C457 0.930 . S
H450 C458 0.930 . S
H451 C459 0.930 . S
H452 C462 0.930 . S
H453 C463 0.930 . S
C454 H448 0.930 . S
C454 C455 1.355 . S
C454 C456 1.415 . S
C455 C454 1.355 . S
C455 C457 1.419 . S
C456 C454 1.415 . S
C456 C461 1.425 . S
C456 C463 1.409 . S
C457 H449 0.930 . S
C457 C455 1.419 . S
C457 C458 1.362 . S
C458 H450 0.930 . S
C458 C457 1.362 . S
C458 C461 1.409 . S
C459 H451 0.930 . S
C459 C460 1.355 . S
C459 C461 1.415 . S
C460 C459 1.355 . S
C460 C462 1.419 . S
C461 C456 1.425 . S
C461 C458 1.409 . S
C461 C459 1.415 . S
C462 H452 0.930 . S
C462 C460 1.419 . S
C462 C463 1.362 . S
C463 H453 0.930 . S
C463 C456 1.409 . S
C463 C462 1.362 . S
H464 C470 0.930 . S
H465 C473 0.930 . S
H466 C474 0.930 . S
H467 C475 0.930 . S
H468 C478 0.930 . S
H469 C479 0.930 . S
C470 H464 0.930 . S
C470 C471 1.355 . S
C470 C472 1.415 . S
C471 C470 1.355 . S
C471 C473 1.419 . S
C472 C470 1.415 . S
C472 C477 1.425 . S
C472 C479 1.409 . S
C473 H465 0.930 . S
C473 C471 1.419 . S
C473 C474 1.362 . S
C474 H466 0.930 . S
C474 C473 1.362 . S
C474 C477 1.409 . S
C475 H467 0.930 . S
C475 C476 1.355 . S
C475 C477 1.415 . S
C476 C475 1.355 . S
C476 C478 1.419 . S
C477 C472 1.425 . S
C477 C474 1.409 . S
C477 C475 1.415 . S
C478 H468 0.930 . S
C478 C476 1.419 . S
C478 C479 1.362 . S
C479 H469 0.930 . S
C479 C472 1.409 . S
C479 C478 1.362 . S
H480 C486 0.930 . S
H481 C489 0.930 . S
H482 C490 0.930 . S
H483 C491 0.930 . S
H484 C494 0.930 . S
H485 C495 0.930 . S
C486 H480 0.930 . S
C486 C487 1.355 . S
C486 C488 1.415 . S
C487 C486 1.355 . S
C487 C489 1.419 . S
C488 C486 1.415 . S
C488 C493 1.425 . S
C488 C495 1.409 . S
C489 H481 0.930 . S
C489 C487 1.419 . S
C489 C490 1.362 . S
C490 H482 0.930 . S
C490 C489 1.362 . S
C490 C493 1.409 . S
C491 H483 0.930 . S
C491 C492 1.355 . S
C491 C493 1.415 . S
C492 C491 1.355 . S
C492 C494 1.419 . S
C493 C488 1.425 . S
C493 C490 1.409 . S
C493 C491 1.415 . S
C494 H484 0.930 . S
C494 C492 1.419 . S
C494 C495 1.362 . S
C495 H485 0.930 . S
C495 C488 1.409 . S
C495 C494 1.362 . S
H496 C502 0.930 . S
H497 C505 0.930 . S
H498 C506 0.930 . S
H499 C507 0.930 . S
H500 C510 0.930 . S
H501 C511 0.930 . S
C502 H496 0.930 . S
C502 C503 1.355 . S
C502 C504 1.415 . S
C503 C502 1.355 . S
C503 C505 1.419 . S
C504 C502 1.415 . S
C504 C509 1.425 . S
C504 C511 1.409 . S
C505 H497 0.930 . S
C505 C503 1.419 . S
C505 C506 1.362 . S
C506 H498 0.930 . S
C506 C505 1.362 . S
C506 C509 1.409 . S
C507 H499 0.930 . S
C507 C508 1.355 . S
C507 C509 1.415 . S
C508 C507 1.355 . S
C508 C510 1.419 . S
C509 C504 1.425 . S
C509 C506 1.409 . S
C509 C507 1.415 . S
C510 H500 0.930 . S
C510 C508 1.419 . S
C510 C511 1.362 . S
C511 H501 0.930 . S
C511 C504 1.409 . S
C511 C510 1.362 . S
H512 C518 0.930 . S
H513 C521 0.930 . S
H514 C522 0.930 . S
H515 C523 0.930 . S
H516 C526 0.930 . S
H517 C527 0.930 . S
C518 H512 0.930 . S
C518 C519 1.355 . S
C518 C520 1.415 . S
C519 C518 1.355 . S
C519 C521 1.419 . S
C520 C518 1.415 . S
C520 C525 1.425 . S
C520 C527 1.409 . S
C521 H513 0.930 . S
C521 C519 1.419 . S
C521 C522 1.362 . S
C522 H514 0.930 . S
C522 C521 1.362 . S
C522 C525 1.409 . S
C523 H515 0.930 . S
C523 C524 1.355 . S
C523 C525 1.415 . S
C524 C523 1.355 . S
C524 C526 1.419 . S
C525 C520 1.425 . S
C525 C522 1.409 . S
C525 C523 1.415 . S
C526 H516 0.930 . S
C526 C524 1.419 . S
C526 C527 1.362 . S
C527 H517 0.930 . S
C527 C520 1.409 . S
C527 C526 1.362 . S
H528 C534 0.930 . S
H529 C537 0.930 . S
H530 C538 0.930 . S
H531 C539 0.930 . S
H532 C542 0.930 . S
H533 C543 0.930 . S
C534 H528 0.930 . S
C534 C535 1.355 . S
C534 C536 1.415 . S
C535 C534 1.355 . S
C535 C537 1.419 . S
C536 C534 1.415 . S
C536 C541 1.425 . S
C536 C543 1.409 . S
C537 H529 0.930 . S
C537 C535 1.419 . S
C537 C538 1.362 . S
C538 H530 0.930 . S
C538 C537 1.362 . S
C538 C541 1.409 . S
C539 H531 0.930 . S
C539 C540 1.355 . S
C539 C541 1.415 . S
C540 C539 1.355 . S
C540 C542 1.419 . S
C541 C536 1.425 . S
C541 C538 1.409 . S
C541 C539 1.415 . S
C542 H532 0.930 . S
C542 C540 1.419 . S
C542 C543 1.362 . S
C543 H533 0.930 . S
C543 C536 1.409 . S
C543 C542 1.362 . S
H544 C550 0.930 . S
H545 C553 0.930 . S
H546 C554 0.930 . S
H547 C555 0.930 . S
H548 C558 0.930 . S
H549 C559 0.930 . S
C550 H544 0.930 . S
C550 C551 1.355 . S
C550 C552 1.415 . S
C551 C550 1.355 . S
C551 C553 1.419 . S
C552 C550 1.415 . S
C552 C557 1.425 . S
C552 C559 1.409 . S
C553 H545 0.930 . S
C553 C551 1.419 . S
C553 C554 1.362 . S
C554 H546 0.930 . S
C554 C553 1.362 . S
C554 C557 1.409 . S
C555 H547 0.930 . S
C555 C556 1.355 . S
C555 C557 1.415 . S
C556 C555 1.355 . S
C556 C558 1.419 . S
C557 C552 1.425 . S
C557 C554 1.409 . S
C557 C555 1.415 . S
C558 H548 0.930 . S
C558 C556 1.419 . S
C558 C559 1.362 . S
C559 H549 0.930 . S
C559 C552 1.409 . S
C559 C558 1.362 . S
C183 C150 1.558 . S
C188 C7 1.563 . S
C199 C18 1.548 . S
C204 C161 1.555 . S
C215 C29 1.544 . S
C220 C172 1.552 . S
C231 C40 1.475 . S
C236 C139 1.477 . S
C247 C51 1.525 . S
C252 C128 1.534 . S
C263 C95 1.558 . S
C268 C62 1.552 . S
C279 C106 1.541 . S
C284 C73 1.549 . S
C295 C117 1.546 . S
C300 C84 1.538 . S
C311 C115 1.263 . S
C316 C5 1.364 . S
C327 C126 1.317 . S
C332 C16 1.382 . S
C343 C93 1.356 . S
C348 C27 1.369 . S
C359 C38 1.368 . S
C364 C104 1.358 . S
C375 C159 1.368 . S
C380 C49 1.358 . S
C391 C170 1.245 . S
C396 C60 1.253 . S
C407 C71 1.244 . S
C412 C137 1.255 . S
C423 C148 1.315 . S
C428 C82 1.382 . S
C439 C74 1.639 . S
C444 C8 1.620 . S
C455 C19 1.622 . S
C460 C85 1.586 . S
C471 C30 1.619 . S
C476 C52 1.639 . S
C487 C41 1.587 . S
C492 C63 1.625 . S
C503 C162 1.639 . S
C508 C96 1.611 . S
C519 C173 1.635 . S
C524 C107 1.631 . S
C535 C118 1.636 . S
C540 C140 1.630 . S
C551 C129 1.588 . S
C556 C151 1.625 . S
