# Generated by pormake.
# Topology umf, (4)-cn, num edge types: 1
# Building blocks:
#     Node 0, Type 0, BuildingBlock: KOZSID_clean_sbu_0, # of connection points: 4
#     Node 1, Type 0, BuildingBlock: KOZSID_clean_sbu_0, # of connection points: 4
#     Node 2, Type 0, BuildingBlock: KOZSID_clean_sbu_0, # of connection points: 4
#     Node 3, Type 0, BuildingBlock: KOZSID_clean_sbu_0, # of connection points: 4
#     Node 4, Type 0, BuildingBlock: KOZSID_clean_sbu_0, # of connection points: 4
#     Node 5, Type 0, BuildingBlock: KOZSID_clean_sbu_0, # of connection points: 4
#     Node 6, Type 0, BuildingBlock: KOZSID_clean_sbu_0, # of connection points: 4
#     Node 7, Type 0, BuildingBlock: KOZSID_clean_sbu_0, # of connection points: 4
#     Edge 8, Type (0, 0), BuildingBlock: MIFKUJ_clean_linker_0, # of connection points: 2
#     Edge 9, Type (0, 0), BuildingBlock: MIFKUJ_clean_linker_0, # of connection points: 2
#     Edge 10, Type (0, 0), BuildingBlock: MIFKUJ_clean_linker_0, # of connection points: 2
#     Edge 11, Type (0, 0), BuildingBlock: MIFKUJ_clean_linker_0, # of connection points: 2
#     Edge 12, Type (0, 0), BuildingBlock: MIFKUJ_clean_linker_0, # of connection points: 2
#     Edge 13, Type (0, 0), BuildingBlock: MIFKUJ_clean_linker_0, # of connection points: 2
#     Edge 14, Type (0, 0), BuildingBlock: MIFKUJ_clean_linker_0, # of connection points: 2
#     Edge 15, Type (0, 0), BuildingBlock: MIFKUJ_clean_linker_0, # of connection points: 2
#     Edge 16, Type (0, 0), BuildingBlock: MIFKUJ_clean_linker_0, # of connection points: 2
#     Edge 17, Type (0, 0), BuildingBlock: MIFKUJ_clean_linker_0, # of connection points: 2
#     Edge 18, Type (0, 0), BuildingBlock: MIFKUJ_clean_linker_0, # of connection points: 2
#     Edge 19, Type (0, 0), BuildingBlock: MIFKUJ_clean_linker_0, # of connection points: 2
#     Edge 20, Type (0, 0), BuildingBlock: MIFKUJ_clean_linker_0, # of connection points: 2
#     Edge 21, Type (0, 0), BuildingBlock: MIFKUJ_clean_linker_0, # of connection points: 2
#     Edge 22, Type (0, 0), BuildingBlock: MIFKUJ_clean_linker_0, # of connection points: 2
#     Edge 23, Type (0, 0), BuildingBlock: MIFKUJ_clean_linker_0, # of connection points: 2
# Relax obj value: 0.074
# Max RMSD: 0.186
# Mean RMSD: 0.186
data_MOF--net-umf--node1-KOZSID_clean_sbu_0--edge1-MIFKUJ_clean_linker_0
_symmetry_space_group_name_H-M    P1
_symmetry_Int_Tables_number       1
_symmetry_cell_setting            triclinic
loop_
_symmetry_equiv_pos_as_xyz
'x, y, z'
_cell_length_a     46.924094
_cell_length_b     46.931329
_cell_length_c     75.243091
_cell_angle_alpha  89.989221
_cell_angle_beta   89.990783
_cell_angle_gamma 90.100563
loop_
_atom_site_label
_atom_site_type_symbol
_atom_site_fract_x
_atom_site_fract_y
_atom_site_fract_z
_atom_type_partial_charge
C0 C 0.10059 0.24509 0.17569 0.0
C1 C 0.12934 0.24861 0.17944 0.0
C2 C 0.1412 0.26192 0.16495 0.0
C3 C 0.11907 0.26595 0.15326 0.0
N4 N 0.09413 0.25614 0.15958 0.0
Co5 Co 0.05702 0.25783 0.14723 0.0
N6 N 0.07565 0.26149 0.12369 0.0
C7 C 0.1028 0.26971 0.12091 0.0
C8 C 0.10993 0.27046 0.10322 0.0
C9 C 0.08565 0.26255 0.09434 0.0
C10 C 0.06489 0.25756 0.10715 0.0
N11 N 0.01983 0.2598 0.13486 0.0
C12 C 0.01351 0.25668 0.11735 0.0
C13 C 0.98462 0.26088 0.11444 0.0
C14 C 0.97268 0.26701 0.1307 0.0
C15 C 0.99485 0.26629 0.14264 0.0
N16 N 0.03906 0.25375 0.17097 0.0
C17 C 0.01196 0.26038 0.17498 0.0
C18 C 1.00489 0.2525 0.19203 0.0
C19 C 0.02904 0.24021 0.19905 0.0
C20 C 0.04982 0.24148 0.18594 0.0
N21 N 0.05632 0.29993 0.1496 0.0
C22 C 0.0471 0.3593 0.15332 0.0
C23 C 0.05547 0.34245 0.16788 0.0
C24 C 0.06032 0.31299 0.1657 0.0
C25 C 0.04446 0.34574 0.1368 0.0
C26 C 0.04895 0.31633 0.13525 0.0
N27 N 0.0565 0.21616 0.14486 0.0
C28 C 0.03032 0.17232 0.14839 0.0
C29 C 0.05359 0.1566 0.14242 0.0
C30 C 0.07851 0.17119 0.13751 0.0
C31 C 0.07962 0.2011 0.13898 0.0
C32 C 0.03208 0.20188 0.14934 0.0
H33 H 0.09905 0.21205 0.13541 0.0
H34 H 0.01349 0.21314 0.1538 0.0
H35 H 0.06653 0.30062 0.17717 0.0
H36 H 0.04541 0.30679 0.12243 0.0
C37 C 0.12181 0.27261 0.13518 0.0
C38 C 0.07982 0.232 0.18786 0.0
C39 C 0.03465 0.25223 0.10309 0.0
C40 C 0.99258 0.26703 0.16131 0.0
H41 H 0.14057 0.24193 0.19129 0.0
H42 H 0.16354 0.26655 0.16281 0.0
H43 H 0.13048 0.27542 0.09747 0.0
H44 H 0.0834 0.26117 0.08006 0.0
H45 H 0.97345 0.25994 0.10187 0.0
H46 H 0.95037 0.27069 0.13352 0.0
H47 H 0.9841 0.2536 0.19821 0.0
H48 H 0.03065 0.23083 0.21211 0.0
H49 H 0.05821 0.35193 0.18089 0.0
H50 H 0.03784 0.35759 0.12516 0.0
H51 H 0.01065 0.16179 0.15215 0.0
H52 H 0.09695 0.15961 0.13278 0.0
C53 C 0.77251 0.10522 0.6727 0.0
C54 C 0.77335 0.13481 0.67356 0.0
C55 C 0.7624 0.14476 0.65789 0.0
C56 C 0.75592 0.12092 0.64815 0.0
N57 N 0.76213 0.09654 0.65672 0.0
Co58 Co 0.75879 0.05754 0.64665 0.0
N59 N 0.75758 0.07223 0.6219 0.0
C60 C 0.7517 0.09924 0.61714 0.0
C61 C 0.75243 0.10343 0.59911 0.0
C62 C 0.75887 0.07735 0.59203 0.0
C63 C 0.76158 0.05856 0.60622 0.0
N64 N 0.75558 0.01856 0.63663 0.0
C65 C 0.75909 0.0092 0.61966 0.0
C66 C 0.7535 0.98022 0.61853 0.0
C67 C 0.746 0.97136 0.63532 0.0
C68 C 0.74739 0.99532 0.64579 0.0
N69 N 0.75997 0.04345 0.67152 0.0
C70 C 0.75092 0.01769 0.67698 0.0
C71 C 0.75489 0.0137 0.69492 0.0
C72 C 0.76715 0.03852 0.70103 0.0
C73 C 0.77013 0.05632 0.68644 0.0
N74 N 0.71655 0.05923 0.64785 0.0
C75 C 0.65711 0.04947 0.65109 0.0
C76 C 0.67285 0.06201 0.665 0.0
C77 C 0.70246 0.06674 0.6631 0.0
C78 C 0.67164 0.04393 0.63519 0.0
C79 C 0.70096 0.04903 0.63382 0.0
N80 N 0.80057 0.05436 0.64532 0.0
C81 C 0.8423 0.02569 0.65061 0.0
C82 C 0.85949 0.04434 0.64073 0.0
C83 C 0.84645 0.06909 0.6339 0.0
C84 C 0.81709 0.07383 0.63652 0.0
C85 C 0.8132 0.03073 0.65242 0.0
H86 H 0.80763 0.09282 0.63101 0.0
H87 H 0.80086 0.01488 0.6593 0.0
H88 H 0.71417 0.07529 0.67426 0.0
H89 H 0.71115 0.04328 0.62153 0.0
C90 C 0.75034 0.12076 0.62992 0.0
C91 C 0.78078 0.08594 0.68735 0.0
C92 C 0.76496 0.0276 0.60416 0.0
C93 C 0.74466 0.99636 0.66442 0.0
H94 H 0.78156 0.1481 0.6841 0.0
H95 H 0.76119 0.16676 0.65364 0.0
H96 H 0.7496 0.12325 0.59197 0.0
H97 H 0.76095 0.07267 0.57801 0.0
H98 H 0.75425 0.96703 0.60674 0.0
H99 H 0.74072 0.94989 0.63943 0.0
H100 H 0.75071 0.99457 0.70253 0.0
H101 H 0.77323 0.043 0.71462 0.0
H102 H 0.66268 0.06697 0.67753 0.0
H103 H 0.66053 0.03506 0.62385 0.0
H104 H 0.85101 1.00688 0.65688 0.0
H105 H 0.8585 0.08436 0.62616 0.0
C106 C 0.91545 0.77552 0.17643 0.0
C107 C 0.88654 0.7737 0.18015 0.0
C108 C 0.8739 0.76157 0.16553 0.0
C109 C 0.89574 0.75652 0.15377 0.0
N110 N 0.92125 0.76461 0.16016 0.0
Co111 Co 0.95817 0.76141 0.14765 0.0
N112 N 0.9392 0.75949 0.12413 0.0
C113 C 0.91165 0.75275 0.12135 0.0
C114 C 0.90442 0.75267 0.10368 0.0
C115 C 0.92902 0.75947 0.09479 0.0
C116 C 0.95004 0.76326 0.10759 0.0
N117 N 0.99513 0.75795 0.13512 0.0
C118 C 1.00145 0.76103 0.11759 0.0
C119 C 0.03006 0.75539 0.11455 0.0
C120 C 0.04179 0.74832 0.13072 0.0
C121 C 0.0198 0.74997 0.14275 0.0
N122 N 0.97647 0.76376 0.17138 0.0
C123 C 1.00318 0.75552 0.17523 0.0
C124 C 0.01057 0.76194 0.19247 0.0
C125 C 0.98703 0.77496 0.19979 0.0
C126 C 0.96634 0.77566 0.18664 0.0
N127 N 0.95689 0.71923 0.14949 0.0
C128 C 0.96653 0.65973 0.15263 0.0
C129 C 0.95787 0.67621 0.16734 0.0
C130 C 0.95296 0.70575 0.16546 0.0
C131 C 0.96827 0.67371 0.13617 0.0
C132 C 0.96358 0.7031 0.13491 0.0
N133 N 0.9608 0.80308 0.14578 0.0
C134 C 0.98933 0.8453 0.14979 0.0
C135 C 0.96701 0.86254 0.14395 0.0
C136 C 0.94141 0.8494 0.13876 0.0
C137 C 0.93862 0.81955 0.13996 0.0
C138 C 0.98593 0.81588 0.15043 0.0
H139 H 0.91865 0.80977 0.13623 0.0
H140 H 1.00387 0.8035 0.15477 0.0
H141 H 0.94715 0.71788 0.1771 0.0
H142 H 0.96665 0.71286 0.12211 0.0
C143 C 0.89258 0.75053 0.13564 0.0
C144 C 0.93697 0.78669 0.1888 0.0
C145 C 0.98047 0.76699 0.10345 0.0
C146 C 0.02214 0.74844 0.16141 0.0
H147 H 0.87574 0.78069 0.19208 0.0
H148 H 0.85132 0.75838 0.16336 0.0
H149 H 0.88362 0.7488 0.09794 0.0
H150 H 0.93134 0.76083 0.0805 0.0
H151 H 0.04117 0.75601 0.10195 0.0
H152 H 0.06388 0.74334 0.13342 0.0
H153 H 0.03122 0.75925 0.19865 0.0
H154 H 0.98565 0.78341 0.21312 0.0
H155 H 0.95597 0.66673 0.18039 0.0
H156 H 0.97378 0.66219 0.1242 0.0
H157 H 0.00959 0.85451 0.15367 0.0
H158 H 0.92363 0.86207 0.13413 0.0
C159 C 0.24201 0.90991 0.67235 0.0
C160 C 0.24195 0.88049 0.67447 0.0
C161 C 0.25432 0.86923 0.65955 0.0
C162 C 0.26096 0.89217 0.64903 0.0
N163 N 0.25353 0.91719 0.65642 0.0
Co164 Co 0.25754 0.9552 0.64513 0.0
N165 N 0.26051 0.9383 0.62103 0.0
C166 C 0.26694 0.91099 0.61738 0.0
C167 C 0.26738 0.90525 0.59951 0.0
C168 C 0.26109 0.93061 0.59139 0.0
C169 C 0.25727 0.95054 0.60483 0.0
N170 N 0.26185 0.99314 0.63388 0.0
C171 C 0.25929 1.00097 0.61656 0.0
C172 C 0.26514 0.02977 0.61453 0.0
C173 C 0.27175 0.04009 0.63115 0.0
C174 C 0.26963 0.01711 0.64242 0.0
N175 N 0.25402 0.97157 0.66934 0.0
C176 C 0.26244 0.99783 0.67419 0.0
C177 C 0.25647 1.00347 0.69175 0.0
C178 C 0.24355 0.97921 0.69823 0.0
C179 C 0.24223 0.96005 0.68423 0.0
N180 N 0.29965 0.95369 0.64771 0.0
C181 C 0.35896 0.96256 0.65198 0.0
C182 C 0.34176 0.95431 0.66639 0.0
C183 C 0.31233 0.9494 0.66391 0.0
C184 C 0.346 0.96492 0.6353 0.0
C185 C 0.31655 0.96076 0.63349 0.0
N186 N 0.21601 0.95815 0.64241 0.0
C187 C 0.1743 0.98781 0.64429 0.0
C188 C 0.15743 0.96667 0.63644 0.0
C189 C 0.17043 0.94053 0.63223 0.0
C190 C 0.19981 0.93671 0.6353 0.0
C191 C 0.20322 0.98321 0.64708 0.0
H192 H 0.20953 0.91672 0.63165 0.0
H193 H 0.21533 1.00037 0.65279 0.0
H194 H 0.29967 0.94323 0.67526 0.0
H195 H 0.3074 0.96464 0.62061 0.0
C196 C 0.26782 0.89068 0.63097 0.0
C197 C 0.23176 0.93042 0.68577 0.0
C198 C 0.25356 0.98125 0.6017 0.0
C199 C 0.27035 0.01789 0.66115 0.0
H200 H 0.2334 0.8682 0.68538 0.0
H201 H 0.25644 0.84687 0.65628 0.0
H202 H 0.2709 0.88488 0.59313 0.0
H203 H 0.25987 0.93406 0.57719 0.0
H204 H 0.26492 0.04193 0.60231 0.0
H205 H 0.27665 0.06193 0.63464 0.0
H206 H 0.25984 0.02329 0.6988 0.0
H207 H 0.23599 0.97595 0.71167 0.0
H208 H 0.35094 0.95189 0.67951 0.0
H209 H 0.35835 0.97131 0.6238 0.0
H210 H 0.16526 0.00805 0.64827 0.0
H211 H 0.15822 0.92348 0.62621 0.0
C212 C 0.10549 0.77494 0.84397 0.0
C213 C 0.135 0.77563 0.84241 0.0
C214 C 0.14581 0.76389 0.85765 0.0
C215 C 0.12252 0.75704 0.86782 0.0
N216 N 0.09771 0.76375 0.8599 0.0
Co217 Co 0.0593 0.75959 0.87063 0.0
N218 N 0.07523 0.75779 0.89503 0.0
C219 C 0.10242 0.75163 0.89919 0.0
C220 C 0.10737 0.75154 0.91717 0.0
C221 C 0.08161 0.75778 0.9248 0.0
C222 C 0.06228 0.76135 0.91098 0.0
N223 N 0.02095 0.75526 0.88134 0.0
C224 C 0.01239 0.75832 0.8985 0.0
C225 C 0.98356 0.75228 0.90014 0.0
C226 C 0.974 0.74494 0.88346 0.0
C227 C 0.99742 0.74688 0.87254 0.0
N228 N 0.04394 0.76177 0.84611 0.0
C229 C 0.01804 0.75266 0.84097 0.0
C230 C 0.01308 0.75772 0.82322 0.0
C231 C 0.0374 0.77076 0.81693 0.0
C232 C 0.05591 0.77309 0.83121 0.0
N233 N 0.06149 0.71746 0.86874 0.0
C234 C 0.05301 0.65795 0.8651 0.0
C235 C 0.06247 0.67465 0.85072 0.0
C236 C 0.06704 0.70419 0.85289 0.0
C237 C 0.04934 0.67163 0.88149 0.0
C238 C 0.05347 0.7011 0.88299 0.0
N239 N 0.05564 0.80115 0.8726 0.0
C240 C 0.02597 0.84248 0.86873 0.0
C241 C 0.04606 0.85993 0.87716 0.0
C242 C 0.07176 0.84728 0.88272 0.0
C243 C 0.07618 0.81785 0.88025 0.0
C244 C 0.03097 0.81346 0.86679 0.0
H245 H 0.09588 0.80851 0.88479 0.0
H246 H 0.01441 0.80092 0.86076 0.0
H247 H 0.07397 0.71646 0.84154 0.0
H248 H 0.0487 0.71072 0.89562 0.0
C249 C 0.12332 0.75066 0.88597 0.0
C250 C 0.08538 0.78415 0.83001 0.0
C251 C 0.03144 0.76489 0.91358 0.0
C252 C 0.9975 0.7452 0.85383 0.0
H253 H 0.14766 0.7842 0.83167 0.0
H254 H 0.16805 0.76237 0.86136 0.0
H255 H 0.12746 0.7482 0.92391 0.0
H256 H 0.07747 0.75904 0.93892 0.0
H257 H 0.97086 0.75287 0.91214 0.0
H258 H 0.95238 0.73963 0.87969 0.0
H259 H 0.99363 0.75371 0.81591 0.0
H260 H 0.0411 0.77777 0.80341 0.0
H261 H 0.06605 0.66502 0.83784 0.0
H262 H 0.04193 0.65987 0.89299 0.0
H263 H 1.0062 0.85107 0.86362 0.0
H264 H 0.08806 0.85977 0.8893 0.0
C265 C 0.24006 0.09827 0.33908 0.0
C266 C 0.24151 0.12721 0.33541 0.0
C267 C 0.25332 0.13997 0.35009 0.0
C268 C 0.25855 0.11815 0.36183 0.0
N269 N 0.25088 0.09257 0.35537 0.0
Co270 Co 0.25463 0.05564 0.3678 0.0
N271 N 0.25586 0.0745 0.39136 0.0
C272 C 0.26214 0.10214 0.39423 0.0
C273 C 0.2621 0.10923 0.41192 0.0
C274 C 0.25571 0.08445 0.42072 0.0
C275 C 0.25217 0.06349 0.40786 0.0
N276 N 0.25889 0.0187 0.38026 0.0
C277 C 0.25579 0.01219 0.39776 0.0
C278 C 0.26182 0.98363 0.40071 0.0
C279 C 0.26932 0.97219 0.38453 0.0
C280 C 0.26745 0.99426 0.37258 0.0
N281 N 0.25274 0.03745 0.34403 0.0
C282 C 0.26143 0.01091 0.34013 0.0
C283 C 0.25518 1.00351 0.32287 0.0
C284 C 0.24176 0.02687 0.31559 0.0
C285 C 0.24068 0.04745 0.3288 0.0
N286 N 0.29677 0.05775 0.3661 0.0
C287 C 0.35622 0.04813 0.36307 0.0
C288 C 0.33985 0.05677 0.34833 0.0
C289 C 0.3103 0.06167 0.35015 0.0
C290 C 0.34224 0.0466 0.37953 0.0
C291 C 0.31286 0.05132 0.38074 0.0
N292 N 0.21301 0.05211 0.36948 0.0
C293 C 0.17174 0.02211 0.36599 0.0
C294 C 0.15354 0.04452 0.37052 0.0
C295 C 0.16592 0.07094 0.37491 0.0
C296 C 0.19577 0.07432 0.37427 0.0
C297 C 0.20104 0.02632 0.36551 0.0
H298 H 0.20492 0.0948 0.37751 0.0
H299 H 0.21398 0.00845 0.36178 0.0
H300 H 0.2982 0.06733 0.33846 0.0
H301 H 0.30307 0.04831 0.39354 0.0
C302 C 0.26428 0.12132 0.37999 0.0
C303 C 0.22921 0.07666 0.32668 0.0
C304 C 0.24911 0.03295 0.41192 0.0
C305 C 0.26897 0.99204 0.35391 0.0
H306 H 0.23446 0.13795 0.32347 0.0
H307 H 0.25615 0.16258 0.35231 0.0
H308 H 0.26576 0.13002 0.41772 0.0
H309 H 0.25459 0.08198 0.43501 0.0
H310 H 0.26107 0.9723 0.41322 0.0
H311 H 0.2746 0.95019 0.38177 0.0
H312 H 0.25828 0.98297 0.31663 0.0
H313 H 0.23335 0.02823 0.30225 0.0
H314 H 0.34942 0.05858 0.33529 0.0
H315 H 0.35375 0.0411 0.39152 0.0
H316 H 0.16346 1.00111 0.36295 0.0
H317 H 0.15271 0.08892 0.37852 0.0
C318 C 0.90771 0.24376 0.84482 0.0
C319 C 0.87816 0.24313 0.84353 0.0
C320 C 0.86775 0.25445 0.85901 0.0
C321 C 0.89131 0.26104 0.86901 0.0
N322 N 0.91591 0.25457 0.86076 0.0
Co323 Co 0.95463 0.25844 0.87107 0.0
N324 N 0.93939 0.25949 0.89566 0.0
C325 C 0.91233 0.26554 0.90021 0.0
C326 C 0.90794 0.26524 0.91824 0.0
C327 C 0.93394 0.25885 0.92549 0.0
C328 C 0.95283 0.25553 0.91141 0.0
N329 N 0.9933 0.26249 0.88136 0.0
C330 C 1.00237 0.25895 0.89837 0.0
C331 C 0.03128 0.26484 0.89971 0.0
C332 C 0.04033 0.27267 0.883 0.0
C333 C 0.01656 0.2711 0.87236 0.0
N334 N 0.96927 0.25698 0.84637 0.0
C335 C 0.995 0.26622 0.841 0.0
C336 C 0.99944 0.26151 0.82316 0.0
C337 C 0.97496 0.24854 0.81705 0.0
C338 C 0.95689 0.24593 0.83154 0.0
N339 N 0.95246 0.30063 0.86969 0.0
C340 C 0.96288 0.36003 0.86647 0.0
C341 C 0.95208 0.34397 0.85212 0.0
C342 C 0.94675 0.31449 0.85405 0.0
C343 C 0.96602 0.34577 0.88275 0.0
C344 C 0.96098 0.31645 0.88404 0.0
N345 N 0.95838 0.21682 0.87255 0.0
C346 C 0.98823 0.17575 0.86813 0.0
C347 C 0.96858 0.15808 0.87678 0.0
C348 C 0.94291 0.17043 0.88265 0.0
C349 C 0.93818 0.19985 0.88035 0.0
C350 C 0.98293 0.20474 0.86635 0.0
H351 H 0.91856 0.20899 0.88519 0.0
H352 H 0.99921 0.21747 0.86018 0.0
H353 H 0.93936 0.30266 0.84263 0.0
H354 H 0.96553 0.30645 0.89658 0.0
C355 C 0.89102 0.2669 0.88724 0.0
C356 C 0.92746 0.23476 0.83065 0.0
C357 C 0.98375 0.25194 0.91359 0.0
C358 C 0.01594 0.27332 0.85368 0.0
H359 H 0.86526 0.23487 0.8328 0.0
H360 H 0.84561 0.25586 0.86296 0.0
H361 H 0.88808 0.26848 0.92527 0.0
H362 H 0.93855 0.25741 0.93955 0.0
H363 H 0.04438 0.2638 0.91152 0.0
H364 H 0.06185 0.27801 0.87903 0.0
H365 H 0.01869 0.26564 0.81565 0.0
H366 H 0.97087 0.24173 0.80355 0.0
H367 H 0.9489 0.35371 0.83924 0.0
H368 H 0.97309 0.35698 0.89453 0.0
H369 H 0.00793 0.16737 0.86279 0.0
H370 H 0.92695 0.15771 0.88938 0.0
C371 C 0.77085 0.9129 0.34093 0.0
C372 C 0.76782 0.88428 0.33666 0.0
C373 C 0.75457 0.87156 0.35089 0.0
C374 C 0.75007 0.89307 0.36295 0.0
N375 N 0.75958 0.91844 0.35711 0.0
Co376 Co 0.75678 0.95496 0.37005 0.0
N377 N 0.75334 0.93523 0.39323 0.0
C378 C 0.7455 0.90787 0.39552 0.0
C379 C 0.74435 0.90008 0.41309 0.0
C380 C 0.75166 0.92413 0.42241 0.0
C381 C 0.75689 0.94537 0.40995 0.0
N382 N 0.75331 0.99149 0.38305 0.0
C383 C 0.75609 0.99712 0.40067 0.0
C384 C 0.75122 0.02579 0.40401 0.0
C385 C 0.74487 0.03822 0.38792 0.0
C386 C 0.74622 0.01659 0.37563 0.0
N387 N 0.761 0.97404 0.34668 0.0
C388 C 0.75389 1.00116 0.34308 0.0
C389 C 0.7619 0.00912 0.32621 0.0
C390 C 0.77477 0.98552 0.31886 0.0
C391 C 0.77372 0.96418 0.33161 0.0
N392 N 0.71475 0.95466 0.36735 0.0
C393 C 0.65545 0.96379 0.36329 0.0
C394 C 0.6727 0.95649 0.34869 0.0
C395 C 0.70213 0.95164 0.35103 0.0
C396 C 0.66854 0.96524 0.38001 0.0
C397 C 0.69792 0.96079 0.38173 0.0
N398 N 0.79837 0.95657 0.37275 0.0
C399 C 0.84094 0.98527 0.3721 0.0
C400 C 0.85767 0.96169 0.3763 0.0
C401 C 0.84423 0.93516 0.37849 0.0
C402 C 0.81437 0.93311 0.37687 0.0
C403 C 0.81163 0.98223 0.37021 0.0
H404 H 0.80422 0.9127 0.37891 0.0
H405 H 0.79976 1.0009 0.36661 0.0
H406 H 0.71483 0.94635 0.33953 0.0
H407 H 0.70711 0.96355 0.39473 0.0
C408 C 0.74313 0.88942 0.38092 0.0
C409 C 0.78368 0.93441 0.32919 0.0
C410 C 0.76162 0.9755 0.41451 0.0
C411 C 0.74616 0.01971 0.357 0.0
H412 H 0.77475 0.87369 0.32464 0.0
H413 H 0.75024 0.84906 0.3526 0.0
H414 H 0.73938 0.87928 0.41849 0.0
H415 H 0.75234 0.92599 0.43674 0.0
H416 H 0.7521 0.03656 0.41671 0.0
H417 H 0.74088 0.06058 0.38543 0.0
H418 H 0.76035 0.03011 0.32033 0.0
H419 H 0.78426 0.98457 0.3058 0.0
H420 H 0.66357 0.95468 0.33552 0.0
H421 H 0.65637 0.971 0.3917 0.0
H422 H 0.85055 1.00603 0.37005 0.0
H423 H 0.85658 0.91639 0.38172 0.0
H424 H 0.06228 0.4034 0.13113 0.0
H425 H 0.04884 0.45369 0.13306 0.0
H426 H 1.00256 0.43667 0.18139 0.0
H427 H 0.01601 0.38617 0.17953 0.0
H428 H 0.97137 0.47046 0.15757 0.0
H429 H 0.06461 0.4711 0.1836 0.0
H430 H 0.1161 0.46097 0.18499 0.0
H431 H 0.12977 0.51079 0.13788 0.0
H432 H 0.07827 0.52089 0.13605 0.0
H433 H 0.94493 0.61815 0.17538 0.0
H434 H 0.95882 0.56805 0.17769 0.0
H435 H 0.01991 0.57997 0.13553 0.0
H436 H 0.00752 0.63015 0.13391 0.0
H437 H 0.04329 0.54797 0.15836 0.0
H438 H 0.95133 0.54507 0.13051 0.0
H439 H 0.89986 0.55448 0.1275 0.0
H440 H 0.88362 0.50856 0.17583 0.0
H441 H 0.93507 0.49918 0.17925 0.0
C442 C 0.0493 0.41029 0.14222 0.0
C443 C 0.04033 0.39053 0.15519 0.0
C444 C 0.0417 0.43919 0.14335 0.0
C445 C 0.02469 0.44926 0.15741 0.0
C446 C 0.01568 0.42961 0.1704 0.0
C447 C 0.02362 0.40071 0.1694 0.0
C448 C 0.01617 0.48014 0.15836 0.0
C449 C 0.9871 0.4874 0.15804 0.0
C450 C 0.03655 0.50248 0.1585 0.0
C451 C 0.06753 0.49654 0.1596 0.0
C452 C 0.07856 0.47971 0.17345 0.0
C453 C 0.10775 0.47401 0.17433 0.0
C454 C 0.12618 0.48518 0.16151 0.0
C455 C 0.11546 0.50213 0.14779 0.0
C456 C 0.08627 0.50787 0.14684 0.0
C457 C 0.96153 0.61029 0.16669 0.0
C458 C 0.9747 0.62863 0.15428 0.0
C459 C 0.96925 0.58132 0.16788 0.0
C460 C 0.99017 0.56963 0.15656 0.0
C461 C 1.00362 0.58803 0.1444 0.0
C462 C 0.99613 0.61693 0.14332 0.0
C463 C 0.99836 0.53852 0.15733 0.0
C464 C 0.02744 0.53114 0.15797 0.0
C465 C 0.97797 0.51608 0.15724 0.0
C466 C 0.94707 0.52172 0.15524 0.0
C467 C 0.9368 0.53718 0.14057 0.0
C468 C 0.90763 0.54247 0.13878 0.0
C469 C 0.88849 0.53221 0.1515 0.0
C470 C 0.89848 0.51655 0.16601 0.0
C471 C 0.92763 0.51123 0.16788 0.0
H472 H 0.86592 0.53632 0.15008 0.0
H473 H 0.14878 0.48074 0.16222 0.0
H474 H 0.38285 1.0031 0.67365 0.0
H475 H 0.43303 0.01841 0.67498 0.0
H476 H 0.45524 0.95411 0.63657 0.0
H477 H 0.40496 0.93947 0.63473 0.0
H478 H 0.49358 0.95919 0.66855 0.0
H479 H 0.45233 0.01386 0.62097 0.0
H480 H 0.41718 0.04617 0.60738 0.0
H481 H 0.43923 0.11145 0.64495 0.0
H482 H 0.47421 0.07929 0.65898 0.0
H483 H 0.63107 1.00059 0.63933 0.0
H484 H 0.58105 0.98676 0.64144 0.0
H485 H 0.56247 0.06441 0.66967 0.0
H486 H 0.61283 0.07868 0.66738 0.0
H487 H 0.52157 0.05381 0.64475 0.0
H488 H 0.56437 1.00112 0.69152 0.0
H489 H 0.59912 0.96925 0.70589 0.0
H490 H 0.57392 0.90094 0.67131 0.0
H491 H 0.53928 0.93254 0.65653 0.0
C492 C 0.3985 0.99203 0.66564 0.0
C493 C 0.3899 0.96994 0.65416 0.0
C494 C 0.42718 1.00089 0.66634 0.0
C495 C 0.44808 0.98747 0.65587 0.0
C496 C 0.43965 0.96481 0.64481 0.0
C497 C 0.41088 0.95644 0.64377 0.0
C498 C 0.47852 0.99752 0.65606 0.0
C499 C 0.49973 0.97975 0.66317 0.0
C500 C 0.48664 0.02469 0.64954 0.0
C501 C 0.46558 0.04403 0.64119 0.0
C502 C 0.44944 0.03498 0.62648 0.0
C503 C 0.4296 0.05329 0.61866 0.0
C504 C 0.42589 0.08081 0.62534 0.0
C505 C 0.44207 0.09009 0.63982 0.0
C506 C 0.46191 0.07183 0.64772 0.0
C507 C 0.61642 0.01493 0.64592 0.0
C508 C 0.62625 0.04093 0.65309 0.0
C509 C 0.58769 1.0068 0.64726 0.0
C510 C 0.56768 0.02433 0.65584 0.0
C511 C 0.57731 0.05038 0.663 0.0
C512 C 0.60624 0.05845 0.66179 0.0
C513 C 0.53686 0.01536 0.6571 0.0
C514 C 0.51551 0.03331 0.65025 0.0
C515 C 0.52857 0.9884 0.66399 0.0
C516 C 0.54942 0.9693 0.67279 0.0
C517 C 0.56641 0.97937 0.68686 0.0
C518 C 0.58606 0.96134 0.69511 0.0
C519 C 0.58878 0.93311 0.68949 0.0
C520 C 0.57181 0.92283 0.67563 0.0
C521 C 0.55215 0.94079 0.66732 0.0
H522 H 0.604 0.91918 0.6959 0.0
H523 H 0.41055 0.09497 0.61925 0.0
H524 H 1.00659 0.38809 0.88373 0.0
H525 H 0.02028 0.43801 0.88202 0.0
H526 H 0.9554 0.45271 0.84263 0.0
H527 H 0.94056 0.40262 0.84472 0.0
H528 H 0.00884 0.47924 0.8343 0.0
H529 H 0.94347 0.47503 0.88338 0.0
H530 H 0.92456 0.45636 0.91167 0.0
H531 H 1.00299 0.47784 0.93787 0.0
H532 H 0.02253 0.49627 0.90967 0.0
H533 H 0.02151 0.6317 0.83888 0.0
H534 H 1.00566 0.58198 0.83751 0.0
H535 H 0.05238 0.56381 0.88557 0.0
H536 H 0.06724 0.61369 0.88728 0.0
H537 H 1.0053 0.53897 0.88861 0.0
H538 H 0.07243 0.54079 0.84059 0.0
H539 H 0.09391 0.55779 0.8126 0.0
H540 H 0.01616 0.5394 0.78475 0.0
H541 H 0.99409 0.52261 0.81263 0.0
C542 C 0.99468 0.4018 0.87489 0.0
C543 C 0.9719 0.3909 0.86464 0.0
C544 C 1.00283 0.43053 0.87382 0.0
C545 C 0.98877 0.44946 0.86234 0.0
C546 C 0.96664 0.43866 0.85163 0.0
C547 C 0.95821 0.40984 0.85282 0.0
C548 C 0.99704 0.48045 0.8619 0.0
C549 C 0.00765 0.49245 0.8461 0.0
C550 C 0.99633 0.49767 0.87737 0.0
C551 C 0.98454 0.48681 0.89438 0.0
C552 C 0.95676 0.47558 0.89515 0.0
C553 C 0.94592 0.46507 0.91117 0.0
C554 C 0.96258 0.46585 0.92655 0.0
C555 C 0.99011 0.47722 0.92594 0.0
C556 C 1.00107 0.48773 0.90995 0.0
C557 C 0.02875 0.617 0.84901 0.0
C558 C 0.04576 0.62684 0.86317 0.0
C559 C 0.01968 0.58839 0.84821 0.0
C560 C 0.02792 0.56855 0.86133 0.0
C561 C 0.04542 0.57836 0.87527 0.0
C562 C 0.05406 0.60701 0.87622 0.0
C563 C 0.01764 0.53798 0.86102 0.0
C564 C 1.00654 0.52596 0.87672 0.0
C565 C 0.01832 0.52067 0.84551 0.0
C566 C 0.03151 0.53074 0.82874 0.0
C567 C 0.05984 0.54057 0.82852 0.0
C568 C 0.07214 0.55013 0.81268 0.0
C569 C 0.05638 0.54975 0.79692 0.0
C570 C 0.02832 0.53973 0.79697 0.0
C571 C 0.01592 0.53017 0.81279 0.0
H572 H 0.06593 0.55716 0.78467 0.0
H573 H 0.95415 0.4577 0.93894 0.0
H574 H 0.38483 1.00614 0.38136 0.0
H575 H 0.43498 0.99324 0.37993 0.0
H576 H 0.44878 0.05642 0.33928 0.0
H577 H 0.39836 0.07012 0.3409 0.0
H578 H 0.47686 1.00564 0.33166 0.0
H579 H 0.47042 0.06935 0.38131 0.0
H580 H 0.45103 0.08732 0.40963 0.0
H581 H 0.47357 0.00889 0.4354 0.0
H582 H 0.49274 0.99028 0.40717 0.0
H583 H 0.62952 0.997 0.33777 0.0
H584 H 0.57957 0.01188 0.3362 0.0
H585 H 0.56072 0.96144 0.38268 0.0
H586 H 0.61073 0.94728 0.38456 0.0
H587 H 0.53534 0.00865 0.38652 0.0
H588 H 0.53974 0.94352 0.3374 0.0
H589 H 0.55802 0.9239 0.30922 0.0
H590 H 0.53857 1.00247 0.28264 0.0
H591 H 0.52049 0.02269 0.31072 0.0
C592 C 0.39842 0.01776 0.37226 0.0
C593 C 0.3872 0.03968 0.36148 0.0
C594 C 0.42728 0.01014 0.37139 0.0
C595 C 0.44604 0.02405 0.35968 0.0
C596 C 0.4349 0.04534 0.34848 0.0
C597 C 0.40591 0.05312 0.3494 0.0
C598 C 0.4772 0.01645 0.35944 0.0
C599 C 0.48977 1.00671 0.3436 0.0
C600 C 0.49411 0.01712 0.37506 0.0
C601 C 0.4828 0.02834 0.39208 0.0
C602 C 0.47106 0.05585 0.39299 0.0
C603 C 0.46013 0.06617 0.40903 0.0
C604 C 0.46101 0.04924 0.42429 0.0
C605 C 0.47288 0.02198 0.42356 0.0
C606 C 0.48381 0.01155 0.40755 0.0
C607 C 0.61466 0.98875 0.34751 0.0
C608 C 0.62433 0.97087 0.36129 0.0
C609 C 0.58592 0.99727 0.3466 0.0
C610 C 0.56584 0.98769 0.35921 0.0
C611 C 0.57548 0.96941 0.37278 0.0
C612 C 0.60422 0.96123 0.37384 0.0
C613 C 0.53514 0.9973 0.35877 0.0
C614 C 0.52259 0.00754 0.37452 0.0
C615 C 0.51822 0.99682 0.3431 0.0
C616 C 0.52905 0.98472 0.3262 0.0
C617 C 0.53956 0.95669 0.32557 0.0
C618 C 0.54985 0.94545 0.30961 0.0
C619 C 0.54953 0.96196 0.29416 0.0
C620 C 0.53884 0.98972 0.29462 0.0
C621 C 0.52855 1.00107 0.31056 0.0
H622 H 0.55751 0.95322 0.28182 0.0
H623 H 0.45254 0.05726 0.4367 0.0
H624 H 0.98422 0.20501 0.93496 0.0
H625 H 0.99404 0.20309 0.96699 0.0
H626 H 0.01575 0.29246 0.96641 0.0
H627 H 1.00654 0.29407 0.93429 0.0
H628 H 0.04986 0.26602 0.98874 0.0
H629 H 0.9488 0.2675 0.97967 0.0
H630 H 0.90288 0.25112 0.9674 0.0
H631 H 0.91362 0.17 0.99291 0.0
H632 H 0.95979 0.1858 1.00519 0.0
H633 H 0.02937 0.29676 0.08013 0.0
H634 H 0.02136 0.29495 0.04789 0.0
H635 H 0.0124 0.2036 0.05076 0.0
H636 H 0.02072 0.20549 0.08309 0.0
H637 H 0.97245 0.22942 0.02753 0.0
H638 H 0.07351 0.23003 0.03754 0.0
H639 H 0.11825 0.24842 0.05037 0.0
H640 H 0.10615 0.32804 0.02331 0.0
H641 H 0.06108 0.31027 0.01052 0.0
C642 C 0.99188 0.22399 0.94163 0.0
C643 C 0.99513 0.24955 0.93212 0.0
C644 C 0.99713 0.22303 0.95999 0.0
C645 C 1.00517 0.24777 0.96934 0.0
C646 C 0.00959 0.27305 0.95963 0.0
C647 C 1.00451 0.27395 0.94124 0.0
C648 C 0.00776 0.24768 0.98924 0.0
C649 C 0.03277 0.25826 0.99717 0.0
C650 C 0.98573 0.23722 1.00045 0.0
C651 C 0.95788 0.22773 0.99321 0.0
C652 C 0.94145 0.24611 0.98258 0.0
C653 C 0.91537 0.23694 0.97564 0.0
C654 C 0.90539 0.2095 0.97933 0.0
C655 C 0.92141 0.19122 0.99004 0.0
C656 C 0.94752 0.20028 0.99701 0.0
C657 C 0.02522 0.27639 0.07387 0.0
C658 C 0.02561 0.25126 0.08403 0.0
C659 C 0.02082 0.27532 0.05545 0.0
C660 C 0.0166 0.24909 0.04678 0.0
C661 C 0.01565 0.22408 0.05709 0.0
C662 C 0.02032 0.22514 0.07554 0.0
C663 C 0.01446 0.24781 0.02693 0.0
C664 C 0.98955 0.23702 0.01905 0.0
C665 C 0.03645 0.25833 0.01577 0.0
C666 C 0.06378 0.2689 0.0232 0.0
C667 C 0.08029 0.25153 0.03441 0.0
C668 C 0.10573 0.26183 0.04166 0.0
C669 C 0.115 0.28941 0.03769 0.0
C670 C 0.09892 0.3067 0.02639 0.0
C671 C 0.07344 0.29651 0.01912 0.0
H672 H 0.13468 0.29736 0.04334 0.0
H673 H 0.8852 0.20244 0.97393 0.0
H674 H 0.7196 0.02027 0.58212 0.0
H675 H 0.72024 0.00999 0.55024 0.0
H676 H 0.81147 0.99886 0.55241 0.0
H677 H 0.81075 0.01054 0.58429 0.0
H678 H 0.80053 0.02887 0.52503 0.0
H679 H 0.76069 0.94153 0.54597 0.0
H680 H 0.72771 0.91057 0.56268 0.0
H681 H 0.65698 0.94405 0.53316 0.0
H682 H 0.6895 0.97552 0.51643 0.0
H683 H 0.80785 0.97112 0.43637 0.0
H684 H 0.8097 0.97836 0.46873 0.0
H685 H 0.72118 1.00294 0.46849 0.0
H686 H 0.71943 0.99566 0.43615 0.0
H687 H 0.73234 0.96432 0.49473 0.0
H688 H 0.77388 0.05233 0.47425 0.0
H689 H 0.80811 0.08173 0.4574 0.0
H690 H 0.87757 0.04407 0.48612 0.0
H691 H 0.84376 0.01414 0.50298 0.0
C692 C 0.73966 0.01492 0.57582 0.0
C693 C 0.76507 0.01573 0.58569 0.0
C694 C 0.74008 0.00902 0.55755 0.0
C695 C 0.76588 1.00317 0.5487 0.0
C696 C 0.79123 1.00322 0.55877 0.0
C697 C 0.79084 0.00954 0.57704 0.0
C698 C 0.7665 0.99858 0.5289 0.0
C699 C 0.78591 0.01432 0.51851 0.0
C700 C 0.74714 0.98007 0.52008 0.0
C701 C 0.72753 0.96106 0.53005 0.0
C702 C 0.73808 0.94243 0.54312 0.0
C703 C 0.71947 0.92477 0.55259 0.0
C704 C 0.69026 0.92538 0.54901 0.0
C705 C 0.67961 0.94361 0.53593 0.0
C706 C 0.69813 0.96134 0.52643 0.0
C707 C 0.78901 0.97865 0.44323 0.0
C708 C 0.76369 0.98347 0.43374 0.0
C709 C 0.79002 0.9827 0.46173 0.0
C710 C 0.76563 0.99143 0.47116 0.0
C711 C 0.74032 0.9963 0.4616 0.0
C712 C 0.73938 0.99244 0.44311 0.0
C713 C 0.76621 0.99468 0.491 0.0
C714 C 0.74702 0.9787 0.50135 0.0
C715 C 0.78598 0.01268 0.49979 0.0
C716 C 0.8063 0.03079 0.48975 0.0
C717 C 0.79647 0.05016 0.47688 0.0
C718 C 0.81579 0.06694 0.46734 0.0
C719 C 0.845 0.06471 0.47066 0.0
C720 C 0.85494 0.04574 0.48355 0.0
C721 C 0.8357 0.02888 0.49311 0.0
H722 H 0.85993 0.07772 0.46326 0.0
H723 H 0.67588 0.9117 0.55636 0.0
H724 H 0.9901 0.72189 0.08151 0.0
H725 H 0.99796 0.72249 0.0493 0.0
H726 H 0.99749 0.81445 0.04996 0.0
H727 H 0.98854 0.8136 0.08218 0.0
H728 H 0.96786 0.79793 0.02304 0.0
H729 H 0.06036 0.77256 0.04389 0.0
H730 H 0.09599 0.74527 0.0609 0.0
H731 H 0.07293 0.66914 0.03267 0.0
H732 H 0.03684 0.69589 0.01567 0.0
H733 H 0.02691 0.81188 0.93477 0.0
H734 H 0.01736 0.81325 0.96691 0.0
H735 H 1.00469 0.72222 0.96691 0.0
H736 H 0.01403 0.721 0.93477 0.0
H737 H 0.04164 0.73936 0.99327 0.0
H738 H 0.94877 0.76659 0.97237 0.0
H739 H 0.91457 0.79545 0.95525 0.0
H740 H 0.94089 0.8705 0.9835 0.0
H741 H 0.97557 0.84214 1.00063 0.0
C742 C 0.99224 0.74218 0.07477 0.0
C743 C 0.98927 0.76771 0.08433 0.0
C744 C 0.99675 0.74258 0.05633 0.0
C745 C 0.99881 0.76854 0.047 0.0
C746 C 0.99609 0.7941 0.05669 0.0
C747 C 0.99128 0.79367 0.07514 0.0
C748 C 1.00283 0.76896 0.02716 0.0
C749 C 0.98433 0.78544 0.01662 0.0
C750 C 0.02392 0.75233 0.01849 0.0
C751 C 0.04571 0.73619 0.02862 0.0
C752 C 0.06274 0.74995 0.0414 0.0
C753 C 0.08304 0.73459 0.05103 0.0
C754 C 0.08667 0.70547 0.0479 0.0
C755 C 0.07006 0.69168 0.0351 0.0
C756 C 0.0497 0.70694 0.02545 0.0
C757 C 0.02126 0.79235 0.9416 0.0
C758 C 0.02053 0.76644 0.93225 0.0
C759 C 0.01597 0.79308 0.95998 0.0
C760 C 0.01017 0.76784 0.96945 0.0
C761 C 0.00903 0.74199 0.95999 0.0
C762 C 0.01404 0.74132 0.94159 0.0
C763 C 1.00661 0.76818 0.98926 0.0
C764 C 0.02523 0.75187 0.99976 0.0
C765 C 0.98589 0.78522 0.99788 0.0
C766 C 0.96497 0.80228 0.98765 0.0
C767 C 0.94744 0.78929 0.97483 0.0
C768 C 0.92793 0.80555 0.96514 0.0
C769 C 0.92561 0.83481 0.96825 0.0
C770 C 0.94274 0.84785 0.98109 0.0
C771 C 0.96231 0.83168 0.9908 0.0
H772 H 0.91049 0.84736 0.96073 0.0
H773 H 0.1024 0.69361 0.05536 0.0
H774 H 0.29272 0.01392 0.43279 0.0
H775 H 0.2924 1.00584 0.46498 0.0
H776 H 0.20268 0.02572 0.46657 0.0
H777 H 0.20335 0.03453 0.43435 0.0
H778 H 0.22741 0.0512 0.49305 0.0
H779 H 0.2297 0.95565 0.47151 0.0
H780 H 0.2471 0.91508 0.45377 0.0
H781 H 0.3282 0.91983 0.48005 0.0
H782 H 0.31142 0.96073 0.49776 0.0
H783 H 0.20688 0.9958 0.58191 0.0
H784 H 0.20507 1.00558 0.54978 0.0
H785 H 0.29651 0.99768 0.54688 0.0
H786 H 0.29823 0.98823 0.57899 0.0
H787 H 0.26941 0.96551 0.52126 0.0
H788 H 0.26581 0.06182 0.54277 0.0
H789 H 0.24693 0.10158 0.56062 0.0
H790 H 0.16592 0.09377 0.53454 0.0
H791 H 0.18419 0.05365 0.51669 0.0
C792 C 0.27283 0.01591 0.44 0.0
C793 C 0.24789 0.02413 0.43104 0.0
C794 C 0.27262 0.01135 0.45843 0.0
C795 C 0.2474 0.0147 0.46838 0.0
C796 C 0.22242 0.02284 0.45934 0.0
C797 C 0.2227 0.02758 0.44089 0.0
C798 C 0.24734 0.01059 0.4882 0.0
C799 C 0.2362 0.03221 0.49915 0.0
C800 C 0.25924 0.98612 0.49641 0.0
C801 C 0.26938 0.96144 0.48585 0.0
C802 C 0.25131 0.94818 0.47341 0.0
C803 C 0.26106 0.92511 0.46338 0.0
C804 C 0.28876 0.91493 0.46575 0.0
C805 C 0.30675 0.92777 0.47821 0.0
C806 C 0.29713 0.95088 0.48826 0.0
C807 C 0.22658 0.99687 0.57443 0.0
C808 C 0.25271 0.99164 0.58291 0.0
C809 C 0.22557 1.00231 0.55607 0.0
C810 C 0.25068 1.00238 0.5458 0.0
C811 C 0.27685 0.99772 0.55442 0.0
C812 C 0.27787 0.99259 0.57278 0.0
C813 C 0.24965 1.00614 0.52602 0.0
C814 C 0.26056 0.98443 0.51511 0.0
C815 C 0.23729 0.03036 0.51786 0.0
C816 C 0.22628 0.05453 0.52853 0.0
C817 C 0.24389 0.06841 0.54094 0.0
C818 C 0.23332 0.09105 0.55104 0.0
C819 C 0.20522 0.10014 0.54875 0.0
C820 C 0.18766 0.08667 0.53632 0.0
C821 C 0.19813 0.06399 0.5262 0.0
H822 H 0.19707 0.11768 0.55658 0.0
H823 H 0.29626 0.89706 0.45797 0.0
H824 H 0.11203 0.18429 0.18398 0.0
H825 H 0.13557 0.15583 0.20679 0.0
H826 H 0.09571 0.20678 0.24752 0.0
H827 H 0.07485 0.23721 0.22458 0.0
H828 H 0.14408 0.1979 0.25844 0.0
H829 H 0.07702 0.13093 0.23438 0.0
H830 H 0.05302 0.10371 0.21063 0.0
H831 H 0.13246 0.06439 0.19664 0.0
H832 H 0.15697 0.0916 0.2201 0.0
H833 H 0.17745 0.10229 0.32904 0.0
H834 H 0.14977 0.12539 0.30544 0.0
H835 H 0.21108 0.09725 0.26663 0.0
H836 H 0.23941 0.07502 0.29036 0.0
H837 H 0.15093 0.09258 0.25524 0.0
H838 H 0.21688 0.16146 0.27966 0.0
H839 H 0.23931 0.18815 0.3042 0.0
H840 H 0.15795 0.2227 0.31884 0.0
H841 H 0.13498 0.1959 0.29451 0.0
C842 C 0.10797 0.18918 0.19782 0.0
C843 C 0.09052 0.21246 0.20234 0.0
C844 C 0.12131 0.17264 0.21098 0.0
C845 C 0.11695 0.17817 0.2292 0.0
C846 C 0.09938 0.20146 0.23371 0.0
C847 C 0.08672 0.21858 0.2205 0.0
C848 C 0.13171 0.16071 0.24343 0.0
C849 C 0.14496 0.17484 0.25776 0.0
C850 C 0.13379 0.13044 0.24275 0.0
C851 C 0.11888 0.11349 0.22892 0.0
C852 C 0.08937 0.11653 0.2262 0.0
C853 C 0.07567 0.1011 0.21277 0.0
C854 C 0.0912 0.08235 0.2021 0.0
C855 C 0.12042 0.07889 0.20489 0.0
C856 C 0.13423 0.09429 0.21826 0.0
C857 C 0.18473 0.10051 0.31542 0.0
C858 C 0.21031 0.08611 0.31159 0.0
C859 C 0.16893 0.11385 0.30192 0.0
C860 C 0.17819 0.11315 0.28414 0.0
C861 C 0.20322 0.0979 0.28016 0.0
C862 C 0.21929 0.08486 0.29374 0.0
C863 C 0.16281 0.12991 0.27005 0.0
C864 C 0.14963 0.11564 0.25582 0.0
C865 C 0.16033 0.15996 0.27095 0.0
C866 C 0.17418 0.17648 0.28537 0.0
C867 C 0.20375 0.17461 0.28818 0.0
C868 C 0.21657 0.18978 0.30204 0.0
C869 C 0.20005 0.20704 0.3131 0.0
C870 C 0.17071 0.20928 0.31028 0.0
C871 C 0.15778 0.19414 0.29644 0.0
H872 H 0.21001 0.21873 0.32385 0.0
H873 H 0.08058 0.0705 0.19168 0.0
H874 H 0.88986 0.25388 0.80531 0.0
H875 H 0.86642 0.22621 0.78175 0.0
H876 H 0.91742 0.15315 0.79535 0.0
H877 H 0.94011 0.18058 0.81949 0.0
H878 H 0.9095 0.16669 0.75579 0.0
H879 H 0.85682 0.15043 0.81022 0.0
H880 H 0.83159 0.16702 0.83702 0.0
H881 H 0.77129 0.21177 0.80447 0.0
H882 H 0.79654 0.19592 0.77746 0.0
H883 H 0.83201 0.0697 0.70178 0.0
H884 H 0.85773 0.09111 0.72684 0.0
H885 H 0.78861 0.15039 0.73458 0.0
H886 H 0.76191 0.12696 0.71082 0.0
H887 H 0.8074 0.14284 0.76437 0.0
H888 H 0.85856 0.16428 0.71059 0.0
H889 H 0.88393 0.15296 0.68274 0.0
H890 H 0.94617 0.10535 0.71222 0.0
H891 H 0.92099 0.11602 0.74006 0.0
C892 C 0.89616 0.23194 0.80323 0.0
C893 C 0.91644 0.21925 0.81451 0.0
C894 C 0.88275 0.21613 0.78973 0.0
C895 C 0.88982 0.1874 0.78682 0.0
C896 C 0.91144 0.1752 0.79733 0.0
C897 C 0.92447 0.1909 0.8111 0.0
C898 C 0.87366 0.16994 0.77342 0.0
C899 C 0.88727 0.16112 0.75775 0.0
C900 C 0.84439 0.16335 0.77562 0.0
C901 C 0.82873 0.1722 0.79182 0.0
C902 C 0.83831 0.16398 0.80878 0.0
C903 C 0.82399 0.17324 0.82401 0.0
C904 C 0.79989 0.19049 0.82245 0.0
C905 C 0.78999 0.19843 0.80565 0.0
C906 C 0.80429 0.18931 0.79038 0.0
C907 C 0.82222 0.08707 0.70901 0.0
C908 C 0.79534 0.0973 0.70381 0.0
C909 C 0.83715 0.09971 0.72324 0.0
C910 C 0.82601 0.12355 0.73238 0.0
C911 C 0.7983 0.13251 0.7278 0.0
C912 C 0.78306 0.11928 0.71398 0.0
C913 C 0.84307 0.13945 0.74638 0.0
C914 C 0.82963 0.14818 0.76224 0.0
C915 C 0.87235 0.14663 0.74413 0.0
C916 C 0.88776 0.1407 0.72737 0.0
C917 C 0.87762 0.1513 0.71107 0.0
C918 C 0.89195 0.14498 0.69528 0.0
C919 C 0.91661 0.12834 0.69565 0.0
C920 C 0.92706 0.11814 0.71184 0.0
C921 C 0.91278 0.12433 0.72765 0.0
H922 H 0.92762 0.12341 0.68339 0.0
H923 H 0.78885 0.19766 0.83426 0.0
H924 H 0.83206 0.90309 0.33252 0.0
H925 H 0.86025 0.88012 0.30936 0.0
H926 H 0.80797 0.91988 0.26925 0.0
H927 H 0.77798 0.94041 0.29257 0.0
H928 H 0.81666 0.87132 0.25827 0.0
H929 H 0.88379 0.93888 0.28105 0.0
H930 H 0.9117 0.96372 0.30412 0.0
H931 H 0.95237 0.88507 0.31833 0.0
H932 H 0.92443 0.85967 0.29549 0.0
H933 H 0.91048 0.83807 0.18663 0.0
H934 H 0.88776 0.86565 0.21043 0.0
H935 H 0.9174 0.80473 0.24903 0.0
H936 H 0.93922 0.77648 0.22513 0.0
H937 H 0.92211 0.86497 0.26025 0.0
H938 H 0.85293 0.79859 0.23666 0.0
H939 H 0.82572 0.77599 0.21241 0.0
H940 H 0.79006 0.85706 0.19823 0.0
H941 H 0.81741 0.88023 0.22224 0.0
C942 C 0.82685 0.90731 0.31874 0.0
C943 C 0.80328 0.92456 0.31451 0.0
C944 C 0.84322 0.89427 0.30538 0.0
C945 C 0.83715 0.89866 0.28724 0.0
C946 C 0.81365 0.91616 0.283 0.0
C947 C 0.79677 0.92859 0.29642 0.0
C948 C 0.85425 0.88395 0.27281 0.0
C949 C 0.83974 0.87054 0.25868 0.0
C950 C 0.88455 0.88202 0.27315 0.0
C951 C 0.90183 0.89733 0.28664 0.0
C952 C 0.8986 0.92686 0.28914 0.0
C953 C 0.91442 0.94103 0.30218 0.0
C954 C 0.93374 0.92597 0.31272 0.0
C955 C 0.93737 0.89671 0.31017 0.0
C956 C 0.92158 0.88241 0.29716 0.0
C957 C 0.91264 0.83084 0.20024 0.0
C958 C 0.92738 0.80541 0.20396 0.0
C959 C 0.89953 0.84659 0.21386 0.0
C960 C 0.90081 0.83744 0.23164 0.0
C961 C 0.91632 0.81252 0.2355 0.0
C962 C 0.92911 0.7965 0.22181 0.0
C963 C 0.8844 0.85281 0.24591 0.0
C964 C 0.89903 0.86614 0.25994 0.0
C965 C 0.8543 0.85516 0.24535 0.0
C966 C 0.83742 0.84118 0.23114 0.0
C967 C 0.83943 0.81163 0.2283 0.0
C968 C 0.82396 0.79871 0.21461 0.0
C969 C 0.80623 0.81509 0.20376 0.0
C970 C 0.80384 0.84441 0.20663 0.0
C971 C 0.81929 0.85744 0.22029 0.0
H972 H 0.79431 0.80505 0.19315 0.0
H973 H 0.94594 0.93697 0.32282 0.0
H974 H 0.1767 0.94197 0.69593 0.0
H975 H 0.14925 0.92017 0.72043 0.0
H976 H 0.22346 0.87261 0.73623 0.0
H977 H 0.25115 0.8953 0.71238 0.0
H978 H 0.16293 0.84155 0.72782 0.0
H979 H 0.21289 0.91451 0.76243 0.0
H980 H 0.22564 0.9643 0.76925 0.0
H981 H 0.13714 0.98501 0.77572 0.0
H982 H 0.12385 0.93542 0.76858 0.0
H983 H 0.12343 0.76515 0.8049 0.0
H984 H 0.146 0.79213 0.78102 0.0
H985 H 0.09223 0.86419 0.79295 0.0
H986 H 0.07146 0.83768 0.81802 0.0
H987 H 0.13907 0.88538 0.78588 0.0
H988 H 0.08646 0.81674 0.75333 0.0
H989 H 0.06853 0.76939 0.74452 0.0
H990 H 0.15354 0.74313 0.73129 0.0
H991 H 0.17205 0.79021 0.74025 0.0
C992 C 0.18725 0.92729 0.70487 0.0
C993 C 0.216 0.92005 0.70203 0.0
C994 C 0.17152 0.91471 0.71881 0.0
C995 C 0.18413 0.89444 0.73013 0.0
C996 C 0.21311 0.88798 0.72766 0.0
C997 C 0.22894 0.90099 0.71401 0.0
C998 C 0.16703 0.87898 0.74403 0.0
C999 C 0.15793 0.85099 0.7406 0.0
C1000 C 0.15932 0.89161 0.76042 0.0
C1001 C 0.16736 0.92137 0.7647 0.0
C1002 C 0.19613 0.92976 0.76506 0.0
C1003 C 0.20346 0.95793 0.76904 0.0
C1004 C 0.18221 0.97784 0.77284 0.0
C1005 C 0.15358 0.96959 0.77272 0.0
C1006 C 0.14614 0.94146 0.7687 0.0
C1007 C 0.11646 0.78679 0.80245 0.0
C1008 C 0.09603 0.79941 0.81363 0.0
C1009 C 0.12914 0.80223 0.78853 0.0
C1010 C 0.12083 0.83044 0.78468 0.0
C1011 C 0.09943 0.84265 0.79546 0.0
C1012 C 0.08726 0.82737 0.80974 0.0
C1013 C 0.13518 0.84731 0.76996 0.0
C1014 C 0.14377 0.87569 0.77314 0.0
C1015 C 0.14168 0.83529 0.75306 0.0
C1016 C 0.13067 0.80695 0.74761 0.0
C1017 C 0.10136 0.80081 0.74865 0.0
C1018 C 0.09109 0.77402 0.74362 0.0
C1019 C 0.10989 0.75325 0.73739 0.0
C1020 C 0.139 0.75924 0.73614 0.0
C1021 C 0.14939 0.78599 0.74117 0.0
H1022 H 0.1019 0.73252 0.7335 0.0
H1023 H 0.18793 0.99963 0.77594 0.0
H1024 H 0.05158 0.11891 0.16977 0.0
H1025 H 0.03822 0.06837 0.16841 0.0
H1026 H 0.03352 0.07357 0.11125 0.0
H1027 H 0.04719 0.12419 0.11264 0.0
H1028 H 0.98499 0.04923 0.12646 0.0
H1029 H 0.0859 0.03682 0.12934 0.0
H1030 H 0.13457 0.04303 0.14105 0.0
H1031 H 0.10892 1.00626 0.19081 0.0
H1032 H 0.05994 1.00026 0.1795 0.0
H1033 H 0.96167 0.89851 0.11541 0.0
H1034 H 0.97703 0.94849 0.11365 0.0
H1035 H 0.99796 0.947 0.16951 0.0
H1036 H 0.98359 0.89698 0.17105 0.0
H1037 H 0.03985 0.9695 0.15277 0.0
H1038 H 0.93858 0.98446 0.1511 0.0
H1039 H 0.88957 0.97824 0.13991 0.0
H1040 H 0.91498 0.01058 0.08891 0.0
H1041 H 0.96425 0.01666 0.09974 0.0
C1042 C 0.04843 0.10899 0.15691 0.0
C1043 C 0.05085 0.12519 0.14128 0.0
C1044 C 0.0407 0.08018 0.15613 0.0
C1045 C 0.0349 0.06709 0.13972 0.0
C1046 C 0.03791 0.08317 0.12405 0.0
C1047 C 0.046 0.11194 0.12482 0.0
C1048 C 0.02431 0.03711 0.13909 0.0
C1049 C 0.99716 0.03168 0.13195 0.0
C1050 C 0.03983 0.01432 0.14665 0.0
C1051 C 0.06917 0.01829 0.1536 0.0
C1052 C 0.09055 0.03032 0.14284 0.0
C1053 C 0.11822 0.03373 0.14939 0.0
C1054 C 0.12484 0.025 0.16665 0.0
C1055 C 0.10378 0.01292 0.17742 0.0
C1056 C 0.07605 0.00953 0.17095 0.0
C1057 C 0.96898 0.90913 0.12735 0.0
C1058 C 0.97137 0.89393 0.14337 0.0
C1059 C 0.97781 0.93771 0.12637 0.0
C1060 C 0.98868 0.95177 0.14147 0.0
C1061 C 0.98992 0.93676 0.15762 0.0
C1062 C 0.9815 0.9082 0.15854 0.0
C1063 C 1.00018 0.98152 0.14043 0.0
C1064 C 0.02759 0.98695 0.14723 0.0
C1065 C 0.98476 1.00434 0.13271 0.0
C1066 C 0.95516 1.00072 0.12618 0.0
C1067 C 0.93376 0.99003 0.13746 0.0
C1068 C 0.90593 0.98657 0.13119 0.0
C1069 C 0.89919 0.99393 0.11369 0.0
C1070 C 0.92025 1.00484 0.10245 0.0
C1071 C 0.94812 0.00832 0.10865 0.0
H1072 H 0.87762 0.99123 0.10886 0.0
H1073 H 0.14629 0.0276 0.17168 0.0
H1074 H 0.11081 0.93143 0.64117 0.0
H1075 H 0.06023 0.94424 0.63841 0.0
H1076 H 0.08409 0.02849 0.621 0.0
H1077 H 0.13429 0.01578 0.62337 0.0
H1078 H 0.04644 0.03018 0.64838 0.0
H1079 H 0.05464 0.98242 0.59229 0.0
H1080 H 0.06611 0.94238 0.57234 0.0
H1081 H 1.00485 0.8897 0.59922 0.0
H1082 H 0.99329 0.92933 0.61951 0.0
H1083 H 0.90546 0.08093 0.63542 0.0
H1084 H 0.95537 0.06847 0.63086 0.0
H1085 H 0.93419 0.97929 0.63557 0.0
H1086 H 0.88428 0.99126 0.63796 0.0
H1087 H 0.97179 0.98122 0.61316 0.0
H1088 H 0.9666 0.02666 0.67103 0.0
H1089 H 0.95779 0.06503 0.69269 0.0
H1090 H 0.0146 0.12036 0.66409 0.0
H1091 H 0.02353 0.08234 0.64216 0.0
C1092 C 0.10526 0.95247 0.6364 0.0
C1093 C 0.12669 0.97268 0.63276 0.0
C1094 C 0.07632 0.95981 0.63486 0.0
C1095 C 0.06829 0.98744 0.62959 0.0
C1096 C 0.08967 1.00717 0.62526 0.0
C1097 C 0.11843 0.99985 0.6267 0.0
C1098 C 0.03784 0.99661 0.62969 0.0
C1099 C 0.03013 0.01969 0.64051 0.0
C1100 C 0.01644 0.98259 0.61974 0.0
C1101 C 0.02331 0.95877 0.60754 0.0
C1102 C 0.04379 0.96223 0.59405 0.0
C1103 C 0.05027 0.93962 0.58266 0.0
C1104 C 0.03627 0.91349 0.58454 0.0
C1105 C 0.0157 0.90994 0.5978 0.0
C1106 C 0.00916 0.93248 0.60923 0.0
C1107 C 0.91122 0.05862 0.63517 0.0
C1108 C 0.89038 0.03727 0.63751 0.0
C1109 C 0.94008 0.05148 0.63288 0.0
C1110 C 0.9491 0.02284 0.63342 0.0
C1111 C 0.92823 1.00157 0.63525 0.0
C1112 C 0.89942 0.0086 0.63699 0.0
C1113 C 0.98001 0.01468 0.63218 0.0
C1114 C 0.98794 0.99179 0.62109 0.0
C1115 C 1.00167 0.02868 0.64206 0.0
C1116 C 0.99548 0.05178 0.65489 0.0
C1117 C 0.97698 0.0471 0.66928 0.0
C1118 C 0.97203 0.06878 0.68163 0.0
C1119 C 0.98564 0.09515 0.67976 0.0
C1120 C 1.00408 0.09994 0.66551 0.0
C1121 C 0.00909 0.07834 0.65313 0.0
H1122 H 0.98204 0.11189 0.68937 0.0
H1123 H 0.04132 0.89601 0.57571 0.0
H1124 H 0.93271 0.11118 0.87564 0.0
H1125 H 0.94598 0.06071 0.8781 0.0
H1126 H 0.03369 0.08471 0.8862 0.0
H1127 H 0.02065 0.13482 0.88462 0.0
H1128 H 0.02504 0.04283 0.85893 0.0
H1129 H 0.99949 0.06172 0.92002 0.0
H1130 H 0.9673 0.07762 0.94393 0.0
H1131 H 0.90604 0.01406 0.92875 0.0
H1132 H 0.93771 0.99805 0.90456 0.0
H1133 H 0.08277 0.90617 0.87618 0.0
H1134 H 0.0706 0.95668 0.87877 0.0
H1135 H 0.98215 0.93436 0.88614 0.0
H1136 H 0.99441 0.88418 0.88506 0.0
H1137 H 0.99145 0.97637 0.90573 0.0
H1138 H 0.01304 0.95798 0.84448 0.0
H1139 H 0.04214 0.94192 0.81909 0.0
H1140 H 0.10642 1.0037 0.83212 0.0
H1141 H 0.07786 0.01988 0.85774 0.0
C1142 C 0.95473 0.10577 0.87826 0.0
C1143 C 0.97561 0.12727 0.87963 0.0
C1144 C 0.96232 0.07688 0.87956 0.0
C1145 C 0.99091 0.06894 0.88215 0.0
C1146 C 0.01159 0.0903 0.88396 0.0
C1147 C 1.00402 0.11903 0.88293 0.0
C1148 C 0.99963 0.03844 0.88258 0.0
C1149 C 0.01797 0.02832 0.86926 0.0
C1150 C 0.98982 0.01937 0.89578 0.0
C1151 C 0.97084 0.02889 0.91036 0.0
C1152 C 0.97905 0.0513 0.92168 0.0
C1153 C 0.96092 0.0603 0.9353 0.0
C1154 C 0.93461 0.04691 0.93783 0.0
C1155 C 0.9264 0.02444 0.92676 0.0
C1156 C 0.94445 0.01538 0.9131 0.0
C1157 C 0.06082 0.91196 0.87868 0.0
C1158 C 0.03956 0.89086 0.88002 0.0
C1159 C 0.05377 0.94098 0.87991 0.0
C1160 C 0.02524 0.94962 0.88213 0.0
C1161 C 1.00427 0.92853 0.88423 0.0
C1162 C 0.01133 0.89965 0.88334 0.0
C1163 C 0.01689 0.98042 0.88196 0.0
C1164 C 0.99861 0.99071 0.89534 0.0
C1165 C 0.02628 0.99954 0.86856 0.0
C1166 C 0.04346 0.98993 0.85314 0.0
C1167 C 0.03347 0.96801 0.842 0.0
C1168 C 0.04986 0.9589 0.82756 0.0
C1169 C 0.07615 0.97173 0.82403 0.0
C1170 C 0.08607 0.99375 0.8349 0.0
C1171 C 0.06979 1.00291 0.84937 0.0
H1172 H 0.0888 0.96465 0.81284 0.0
H1173 H 0.9206 0.05391 0.94839 0.0
H1174 H 0.90038 0.93772 0.35658 0.0
H1175 H 0.95086 0.95155 0.35642 0.0
H1176 H 0.93541 0.00939 0.39996 0.0
H1177 H 0.88491 0.99629 0.39963 0.0
H1178 H 0.9648 0.03585 0.37645 0.0
H1179 H 0.97453 0.94446 0.40433 0.0
H1180 H 0.96799 0.89255 0.40743 0.0
H1181 H 0.01269 0.87898 0.35837 0.0
H1182 H 0.01923 0.93087 0.35487 0.0
H1183 H 0.11365 0.06305 0.39487 0.0
H1184 H 0.06318 0.04928 0.39664 0.0
H1185 H 0.07212 1.00001 0.34862 0.0
H1186 H 0.12203 0.01413 0.34652 0.0
H1187 H 0.04659 0.96915 0.3753 0.0
H1188 H 0.03641 0.06102 0.34774 0.0
H1189 H 0.04299 0.11297 0.34505 0.0
H1190 H 0.99914 0.12551 0.39452 0.0
H1191 H 0.99265 0.07355 0.39763 0.0
C1192 C 0.90801 0.95284 0.36637 0.0
C1193 C 0.88889 0.96574 0.37824 0.0
C1194 C 0.93685 0.96082 0.36627 0.0
C1195 C 0.94719 0.98149 0.37826 0.0
C1196 C 0.92811 0.99355 0.39052 0.0
C1197 C 0.8993 0.98588 0.39044 0.0
C1198 C 0.9774 0.9917 0.37749 0.0
C1199 C 0.98266 0.0212 0.37651 0.0
C1200 C 1.00087 0.97276 0.37715 0.0
C1201 C 0.99717 0.94155 0.37927 0.0
C1202 C 0.98282 0.93041 0.39415 0.0
C1203 C 0.97914 0.901 0.39599 0.0
C1204 C 0.98987 0.88248 0.38309 0.0
C1205 C 1.00438 0.89335 0.36834 0.0
C1206 C 0.00812 0.92276 0.36644 0.0
C1207 C 0.10471 0.04976 0.3845 0.0
C1208 C 0.12207 0.03945 0.37068 0.0
C1209 C 0.07589 0.04176 0.38558 0.0
C1210 C 0.06389 0.02335 0.37284 0.0
C1211 C 0.08093 0.01389 0.35873 0.0
C1212 C 0.10954 0.022 0.35758 0.0
C1213 C 0.03385 0.01318 0.37434 0.0
C1214 C 0.02867 0.98372 0.37539 0.0
C1215 C 0.01047 0.03214 0.37487 0.0
C1216 C 0.01434 0.06338 0.37302 0.0
C1217 C 0.0284 0.07483 0.35813 0.0
C1218 C 0.03207 0.10428 0.35651 0.0
C1219 C 0.02157 0.12253 0.36963 0.0
C1220 C 1.00731 0.11135 0.38438 0.0
C1221 C 1.00362 0.0819 0.38608 0.0
H1222 H 0.02441 0.14532 0.36835 0.0
H1223 H 0.98698 0.85971 0.38453 0.0
loop_
_geom_bond_atom_site_label_1
_geom_bond_atom_site_label_2
_geom_bond_distance
_geom_bond_site_symmetry_2
_ccdc_geom_bond_type
C0 C1 1.443 . S
C0 N4 1.376 . S
C0 C38 1.389 . S
C1 C0 1.443 . S
C1 C2 1.340 . S
C1 H41 0.951 . S
C2 C1 1.340 . S
C2 C3 1.439 . S
C2 H42 0.950 . S
C3 C2 1.439 . S
C3 N4 1.374 . S
C3 C37 1.395 . S
N4 C0 1.376 . S
N4 C3 1.374 . S
N4 Co5 2.008 . S
Co5 N4 2.008 . S
Co5 N6 1.995 . S
Co5 N11 2.008 . S
Co5 N16 1.995 . S
Co5 N21 2.282 . S
Co5 N27 2.282 . S
N6 Co5 1.995 . S
N6 C7 1.376 . S
N6 C10 1.383 . S
C7 N6 1.376 . S
C7 C8 1.446 . S
C7 C37 1.391 . S
C8 C7 1.446 . S
C8 C9 1.339 . S
C8 H43 0.949 . S
C9 C8 1.339 . S
C9 C10 1.439 . S
C9 H44 0.950 . S
C10 N6 1.383 . S
C10 C9 1.439 . S
C10 C39 1.392 . S
N11 Co5 2.008 . S
N11 C12 1.376 . S
N11 C15 1.374 1_455 S
C12 N11 1.376 . S
C12 C13 1.443 1_455 S
C12 C39 1.389 . S
C13 C12 1.443 1_655 S
C13 C14 1.340 . S
C13 H45 0.951 . S
C14 C13 1.340 . S
C14 C15 1.439 . S
C14 H46 0.950 . S
C15 N11 1.374 1_655 S
C15 C14 1.439 . S
C15 C40 1.395 . S
N16 Co5 1.995 . S
N16 C17 1.376 . S
N16 C20 1.383 . S
C17 N16 1.376 . S
C17 C18 1.446 . S
C17 C40 1.391 1_455 S
C18 C17 1.446 . S
C18 C19 1.339 . S
C18 H47 0.949 1_455 S
C19 C18 1.339 . S
C19 C20 1.439 . S
C19 H48 0.950 . S
C20 N16 1.383 . S
C20 C19 1.439 . S
C20 C38 1.392 . S
N21 Co5 2.282 . S
N21 C24 1.332 . S
N21 C26 1.332 . S
C22 C23 1.386 . S
C22 C25 1.388 . S
C23 C22 1.386 . S
C23 C24 1.382 . S
C23 H49 0.950 . S
C24 N21 1.332 . S
C24 C23 1.382 . S
C24 H35 0.952 . S
C25 C22 1.388 . S
C25 C26 1.382 . S
C25 H50 0.950 . S
C26 N21 1.332 . S
C26 C25 1.382 . S
C26 H36 0.948 . S
N27 Co5 2.282 . S
N27 C31 1.332 . S
N27 C32 1.332 . S
C28 C29 1.388 . S
C28 C32 1.382 . S
C28 H51 0.950 . S
C29 C28 1.388 . S
C29 C30 1.386 . S
C30 C29 1.386 . S
C30 C31 1.382 . S
C30 H52 0.950 . S
C31 N27 1.332 . S
C31 C30 1.382 . S
C31 H33 0.952 . S
C32 N27 1.332 . S
C32 C28 1.382 . S
C32 H34 0.948 . S
H33 C31 0.952 . S
H34 C32 0.948 . S
H35 C24 0.952 . S
H36 C26 0.948 . S
C37 C3 1.395 . S
C37 C7 1.391 . S
C38 C0 1.389 . S
C38 C20 1.392 . S
C39 C10 1.392 . S
C39 C12 1.389 . S
C40 C15 1.395 . S
C40 C17 1.391 1_655 S
H41 C1 0.951 . S
H42 C2 0.950 . S
H43 C8 0.949 . S
H44 C9 0.950 . S
H45 C13 0.951 . S
H46 C14 0.950 . S
H47 C18 0.949 1_655 S
H48 C19 0.950 . S
H49 C23 0.950 . S
H50 C25 0.950 . S
H51 C28 0.950 . S
H52 C30 0.950 . S
C53 C54 1.443 . S
C53 N57 1.376 . S
C53 C91 1.389 . S
C54 C53 1.443 . S
C54 C55 1.340 . S
C54 H94 0.951 . S
C55 C54 1.340 . S
C55 C56 1.439 . S
C55 H95 0.950 . S
C56 C55 1.439 . S
C56 N57 1.374 . S
C56 C90 1.395 . S
N57 C53 1.376 . S
N57 C56 1.374 . S
N57 Co58 2.008 . S
Co58 N57 2.008 . S
Co58 N59 1.995 . S
Co58 N64 2.008 . S
Co58 N69 1.995 . S
Co58 N74 2.282 . S
Co58 N80 2.282 . S
N59 Co58 1.995 . S
N59 C60 1.376 . S
N59 C63 1.383 . S
C60 N59 1.376 . S
C60 C61 1.446 . S
C60 C90 1.391 . S
C61 C60 1.446 . S
C61 C62 1.339 . S
C61 H96 0.949 . S
C62 C61 1.339 . S
C62 C63 1.439 . S
C62 H97 0.950 . S
C63 N59 1.383 . S
C63 C62 1.439 . S
C63 C92 1.392 . S
N64 Co58 2.008 . S
N64 C65 1.376 . S
N64 C68 1.374 1_545 S
C65 N64 1.376 . S
C65 C66 1.443 1_545 S
C65 C92 1.389 . S
C66 C65 1.443 1_565 S
C66 C67 1.340 . S
C66 H98 0.951 . S
C67 C66 1.340 . S
C67 C68 1.439 . S
C67 H99 0.950 . S
C68 N64 1.374 1_565 S
C68 C67 1.439 . S
C68 C93 1.395 . S
N69 Co58 1.995 . S
N69 C70 1.376 . S
N69 C73 1.383 . S
C70 N69 1.376 . S
C70 C71 1.446 . S
C70 C93 1.391 1_545 S
C71 C70 1.446 . S
C71 C72 1.339 . S
C71 H100 0.949 1_545 S
C72 C71 1.339 . S
C72 C73 1.439 . S
C72 H101 0.950 . S
C73 N69 1.383 . S
C73 C72 1.439 . S
C73 C91 1.392 . S
N74 Co58 2.282 . S
N74 C77 1.332 . S
N74 C79 1.332 . S
C75 C76 1.386 . S
C75 C78 1.388 . S
C76 C75 1.386 . S
C76 C77 1.382 . S
C76 H102 0.950 . S
C77 N74 1.332 . S
C77 C76 1.382 . S
C77 H88 0.952 . S
C78 C75 1.388 . S
C78 C79 1.382 . S
C78 H103 0.950 . S
C79 N74 1.332 . S
C79 C78 1.382 . S
C79 H89 0.948 . S
N80 Co58 2.282 . S
N80 C84 1.332 . S
N80 C85 1.332 . S
C81 C82 1.388 . S
C81 C85 1.382 . S
C81 H104 0.950 . S
C82 C81 1.388 . S
C82 C83 1.386 . S
C83 C82 1.386 . S
C83 C84 1.382 . S
C83 H105 0.950 . S
C84 N80 1.332 . S
C84 C83 1.382 . S
C84 H86 0.952 . S
C85 N80 1.332 . S
C85 C81 1.382 . S
C85 H87 0.948 . S
H86 C84 0.952 . S
H87 C85 0.948 . S
H88 C77 0.952 . S
H89 C79 0.948 . S
C90 C56 1.395 . S
C90 C60 1.391 . S
C91 C53 1.389 . S
C91 C73 1.392 . S
C92 C63 1.392 . S
C92 C65 1.389 . S
C93 C68 1.395 . S
C93 C70 1.391 1_565 S
H94 C54 0.951 . S
H95 C55 0.950 . S
H96 C61 0.949 . S
H97 C62 0.950 . S
H98 C66 0.951 . S
H99 C67 0.950 . S
H100 C71 0.949 1_565 S
H101 C72 0.950 . S
H102 C76 0.950 . S
H103 C78 0.950 . S
H104 C81 0.950 . S
H105 C83 0.950 . S
C106 C107 1.443 . S
C106 N110 1.376 . S
C106 C144 1.389 . S
C107 C106 1.443 . S
C107 C108 1.340 . S
C107 H147 0.951 . S
C108 C107 1.340 . S
C108 C109 1.439 . S
C108 H148 0.950 . S
C109 C108 1.439 . S
C109 N110 1.374 . S
C109 C143 1.395 . S
N110 C106 1.376 . S
N110 C109 1.374 . S
N110 Co111 2.008 . S
Co111 N110 2.008 . S
Co111 N112 1.995 . S
Co111 N117 2.008 . S
Co111 N122 1.995 . S
Co111 N127 2.282 . S
Co111 N133 2.282 . S
N112 Co111 1.995 . S
N112 C113 1.376 . S
N112 C116 1.383 . S
C113 N112 1.376 . S
C113 C114 1.446 . S
C113 C143 1.391 . S
C114 C113 1.446 . S
C114 C115 1.339 . S
C114 H149 0.949 . S
C115 C114 1.339 . S
C115 C116 1.439 . S
C115 H150 0.950 . S
C116 N112 1.383 . S
C116 C115 1.439 . S
C116 C145 1.392 . S
N117 Co111 2.008 . S
N117 C118 1.376 . S
N117 C121 1.374 1_655 S
C118 N117 1.376 . S
C118 C119 1.443 1_655 S
C118 C145 1.389 . S
C119 C118 1.443 1_455 S
C119 C120 1.340 . S
C119 H151 0.951 . S
C120 C119 1.340 . S
C120 C121 1.439 . S
C120 H152 0.950 . S
C121 N117 1.374 1_455 S
C121 C120 1.439 . S
C121 C146 1.395 . S
N122 Co111 1.995 . S
N122 C123 1.376 . S
N122 C126 1.383 . S
C123 N122 1.376 . S
C123 C124 1.446 . S
C123 C146 1.391 1_655 S
C124 C123 1.446 . S
C124 C125 1.339 . S
C124 H153 0.949 1_655 S
C125 C124 1.339 . S
C125 C126 1.439 . S
C125 H154 0.950 . S
C126 N122 1.383 . S
C126 C125 1.439 . S
C126 C144 1.392 . S
N127 Co111 2.282 . S
N127 C130 1.332 . S
N127 C132 1.332 . S
C128 C129 1.386 . S
C128 C131 1.388 . S
C129 C128 1.386 . S
C129 C130 1.382 . S
C129 H155 0.950 . S
C130 N127 1.332 . S
C130 C129 1.382 . S
C130 H141 0.952 . S
C131 C128 1.388 . S
C131 C132 1.382 . S
C131 H156 0.950 . S
C132 N127 1.332 . S
C132 C131 1.382 . S
C132 H142 0.948 . S
N133 Co111 2.282 . S
N133 C137 1.332 . S
N133 C138 1.332 . S
C134 C135 1.388 . S
C134 C138 1.382 . S
C134 H157 0.950 . S
C135 C134 1.388 . S
C135 C136 1.386 . S
C136 C135 1.386 . S
C136 C137 1.382 . S
C136 H158 0.950 . S
C137 N133 1.332 . S
C137 C136 1.382 . S
C137 H139 0.952 . S
C138 N133 1.332 . S
C138 C134 1.382 . S
C138 H140 0.948 . S
H139 C137 0.952 . S
H140 C138 0.948 . S
H141 C130 0.952 . S
H142 C132 0.948 . S
C143 C109 1.395 . S
C143 C113 1.391 . S
C144 C106 1.389 . S
C144 C126 1.392 . S
C145 C116 1.392 . S
C145 C118 1.389 . S
C146 C121 1.395 . S
C146 C123 1.391 1_455 S
H147 C107 0.951 . S
H148 C108 0.950 . S
H149 C114 0.949 . S
H150 C115 0.950 . S
H151 C119 0.951 . S
H152 C120 0.950 . S
H153 C124 0.949 1_455 S
H154 C125 0.950 . S
H155 C129 0.950 . S
H156 C131 0.950 . S
H157 C134 0.950 . S
H158 C136 0.950 . S
C159 C160 1.443 . S
C159 N163 1.376 . S
C159 C197 1.389 . S
C160 C159 1.443 . S
C160 C161 1.340 . S
C160 H200 0.951 . S
C161 C160 1.340 . S
C161 C162 1.439 . S
C161 H201 0.950 . S
C162 C161 1.439 . S
C162 N163 1.374 . S
C162 C196 1.395 . S
N163 C159 1.376 . S
N163 C162 1.374 . S
N163 Co164 2.008 . S
Co164 N163 2.008 . S
Co164 N165 1.995 . S
Co164 N170 2.008 . S
Co164 N175 1.995 . S
Co164 N180 2.282 . S
Co164 N186 2.282 . S
N165 Co164 1.995 . S
N165 C166 1.376 . S
N165 C169 1.383 . S
C166 N165 1.376 . S
C166 C167 1.446 . S
C166 C196 1.391 . S
C167 C166 1.446 . S
C167 C168 1.339 . S
C167 H202 0.949 . S
C168 C167 1.339 . S
C168 C169 1.439 . S
C168 H203 0.950 . S
C169 N165 1.383 . S
C169 C168 1.439 . S
C169 C198 1.392 . S
N170 Co164 2.008 . S
N170 C171 1.376 . S
N170 C174 1.374 1_565 S
C171 N170 1.376 . S
C171 C172 1.443 1_565 S
C171 C198 1.389 . S
C172 C171 1.443 1_545 S
C172 C173 1.340 . S
C172 H204 0.951 . S
C173 C172 1.340 . S
C173 C174 1.439 . S
C173 H205 0.950 . S
C174 N170 1.374 1_545 S
C174 C173 1.439 . S
C174 C199 1.395 . S
N175 Co164 1.995 . S
N175 C176 1.376 . S
N175 C179 1.383 . S
C176 N175 1.376 . S
C176 C177 1.446 . S
C176 C199 1.391 1_565 S
C177 C176 1.446 . S
C177 C178 1.339 . S
C177 H206 0.949 1_565 S
C178 C177 1.339 . S
C178 C179 1.439 . S
C178 H207 0.950 . S
C179 N175 1.383 . S
C179 C178 1.439 . S
C179 C197 1.392 . S
N180 Co164 2.282 . S
N180 C183 1.332 . S
N180 C185 1.332 . S
C181 C182 1.386 . S
C181 C184 1.388 . S
C182 C181 1.386 . S
C182 C183 1.382 . S
C182 H208 0.950 . S
C183 N180 1.332 . S
C183 C182 1.382 . S
C183 H194 0.952 . S
C184 C181 1.388 . S
C184 C185 1.382 . S
C184 H209 0.950 . S
C185 N180 1.332 . S
C185 C184 1.382 . S
C185 H195 0.948 . S
N186 Co164 2.282 . S
N186 C190 1.332 . S
N186 C191 1.332 . S
C187 C188 1.388 . S
C187 C191 1.382 . S
C187 H210 0.950 . S
C188 C187 1.388 . S
C188 C189 1.386 . S
C189 C188 1.386 . S
C189 C190 1.382 . S
C189 H211 0.950 . S
C190 N186 1.332 . S
C190 C189 1.382 . S
C190 H192 0.952 . S
C191 N186 1.332 . S
C191 C187 1.382 . S
C191 H193 0.948 . S
H192 C190 0.952 . S
H193 C191 0.948 . S
H194 C183 0.952 . S
H195 C185 0.948 . S
C196 C162 1.395 . S
C196 C166 1.391 . S
C197 C159 1.389 . S
C197 C179 1.392 . S
C198 C169 1.392 . S
C198 C171 1.389 . S
C199 C174 1.395 . S
C199 C176 1.391 1_545 S
H200 C160 0.951 . S
H201 C161 0.950 . S
H202 C167 0.949 . S
H203 C168 0.950 . S
H204 C172 0.951 . S
H205 C173 0.950 . S
H206 C177 0.949 1_545 S
H207 C178 0.950 . S
H208 C182 0.950 . S
H209 C184 0.950 . S
H210 C187 0.950 . S
H211 C189 0.950 . S
C212 C213 1.443 . S
C212 N216 1.376 . S
C212 C250 1.389 . S
C213 C212 1.443 . S
C213 C214 1.340 . S
C213 H253 0.951 . S
C214 C213 1.340 . S
C214 C215 1.439 . S
C214 H254 0.950 . S
C215 C214 1.439 . S
C215 N216 1.374 . S
C215 C249 1.395 . S
N216 C212 1.376 . S
N216 C215 1.374 . S
N216 Co217 2.008 . S
Co217 N216 2.008 . S
Co217 N218 1.995 . S
Co217 N223 2.008 . S
Co217 N228 1.995 . S
Co217 N233 2.282 . S
Co217 N239 2.282 . S
N218 Co217 1.995 . S
N218 C219 1.376 . S
N218 C222 1.383 . S
C219 N218 1.376 . S
C219 C220 1.446 . S
C219 C249 1.391 . S
C220 C219 1.446 . S
C220 C221 1.339 . S
C220 H255 0.949 . S
C221 C220 1.339 . S
C221 C222 1.439 . S
C221 H256 0.950 . S
C222 N218 1.383 . S
C222 C221 1.439 . S
C222 C251 1.392 . S
N223 Co217 2.008 . S
N223 C224 1.376 . S
N223 C227 1.374 1_455 S
C224 N223 1.376 . S
C224 C225 1.443 1_455 S
C224 C251 1.389 . S
C225 C224 1.443 1_655 S
C225 C226 1.340 . S
C225 H257 0.951 . S
C226 C225 1.340 . S
C226 C227 1.439 . S
C226 H258 0.950 . S
C227 N223 1.374 1_655 S
C227 C226 1.439 . S
C227 C252 1.395 . S
N228 Co217 1.995 . S
N228 C229 1.376 . S
N228 C232 1.383 . S
C229 N228 1.376 . S
C229 C230 1.446 . S
C229 C252 1.391 1_455 S
C230 C229 1.446 . S
C230 C231 1.339 . S
C230 H259 0.949 1_455 S
C231 C230 1.339 . S
C231 C232 1.439 . S
C231 H260 0.950 . S
C232 N228 1.383 . S
C232 C231 1.439 . S
C232 C250 1.392 . S
N233 Co217 2.282 . S
N233 C236 1.332 . S
N233 C238 1.332 . S
C234 C235 1.386 . S
C234 C237 1.388 . S
C235 C234 1.386 . S
C235 C236 1.382 . S
C235 H261 0.950 . S
C236 N233 1.332 . S
C236 C235 1.382 . S
C236 H247 0.952 . S
C237 C234 1.388 . S
C237 C238 1.382 . S
C237 H262 0.950 . S
C238 N233 1.332 . S
C238 C237 1.382 . S
C238 H248 0.948 . S
N239 Co217 2.282 . S
N239 C243 1.332 . S
N239 C244 1.332 . S
C240 C241 1.388 . S
C240 C244 1.382 . S
C240 H263 0.950 . S
C241 C240 1.388 . S
C241 C242 1.386 . S
C242 C241 1.386 . S
C242 C243 1.382 . S
C242 H264 0.950 . S
C243 N239 1.332 . S
C243 C242 1.382 . S
C243 H245 0.952 . S
C244 N239 1.332 . S
C244 C240 1.382 . S
C244 H246 0.948 . S
H245 C243 0.952 . S
H246 C244 0.948 . S
H247 C236 0.952 . S
H248 C238 0.948 . S
C249 C215 1.395 . S
C249 C219 1.391 . S
C250 C212 1.389 . S
C250 C232 1.392 . S
C251 C222 1.392 . S
C251 C224 1.389 . S
C252 C227 1.395 . S
C252 C229 1.391 1_655 S
H253 C213 0.951 . S
H254 C214 0.950 . S
H255 C220 0.949 . S
H256 C221 0.950 . S
H257 C225 0.951 . S
H258 C226 0.950 . S
H259 C230 0.949 1_655 S
H260 C231 0.950 . S
H261 C235 0.950 . S
H262 C237 0.950 . S
H263 C240 0.950 . S
H264 C242 0.950 . S
C265 C266 1.443 . S
C265 N269 1.376 . S
C265 C303 1.389 . S
C266 C265 1.443 . S
C266 C267 1.340 . S
C266 H306 0.951 . S
C267 C266 1.340 . S
C267 C268 1.439 . S
C267 H307 0.950 . S
C268 C267 1.439 . S
C268 N269 1.374 . S
C268 C302 1.395 . S
N269 C265 1.376 . S
N269 C268 1.374 . S
N269 Co270 2.008 . S
Co270 N269 2.008 . S
Co270 N271 1.995 . S
Co270 N276 2.008 . S
Co270 N281 1.995 . S
Co270 N286 2.282 . S
Co270 N292 2.282 . S
N271 Co270 1.995 . S
N271 C272 1.376 . S
N271 C275 1.383 . S
C272 N271 1.376 . S
C272 C273 1.446 . S
C272 C302 1.391 . S
C273 C272 1.446 . S
C273 C274 1.339 . S
C273 H308 0.949 . S
C274 C273 1.339 . S
C274 C275 1.439 . S
C274 H309 0.950 . S
C275 N271 1.383 . S
C275 C274 1.439 . S
C275 C304 1.392 . S
N276 Co270 2.008 . S
N276 C277 1.376 . S
N276 C280 1.374 1_545 S
C277 N276 1.376 . S
C277 C278 1.443 1_545 S
C277 C304 1.389 . S
C278 C277 1.443 1_565 S
C278 C279 1.340 . S
C278 H310 0.951 . S
C279 C278 1.340 . S
C279 C280 1.439 . S
C279 H311 0.950 . S
C280 N276 1.374 1_565 S
C280 C279 1.439 . S
C280 C305 1.395 . S
N281 Co270 1.995 . S
N281 C282 1.376 . S
N281 C285 1.383 . S
C282 N281 1.376 . S
C282 C283 1.446 . S
C282 C305 1.391 1_545 S
C283 C282 1.446 . S
C283 C284 1.339 . S
C283 H312 0.949 1_545 S
C284 C283 1.339 . S
C284 C285 1.439 . S
C284 H313 0.950 . S
C285 N281 1.383 . S
C285 C284 1.439 . S
C285 C303 1.392 . S
N286 Co270 2.282 . S
N286 C289 1.332 . S
N286 C291 1.332 . S
C287 C288 1.386 . S
C287 C290 1.388 . S
C288 C287 1.386 . S
C288 C289 1.382 . S
C288 H314 0.950 . S
C289 N286 1.332 . S
C289 C288 1.382 . S
C289 H300 0.952 . S
C290 C287 1.388 . S
C290 C291 1.382 . S
C290 H315 0.950 . S
C291 N286 1.332 . S
C291 C290 1.382 . S
C291 H301 0.948 . S
N292 Co270 2.282 . S
N292 C296 1.332 . S
N292 C297 1.332 . S
C293 C294 1.388 . S
C293 C297 1.382 . S
C293 H316 0.950 . S
C294 C293 1.388 . S
C294 C295 1.386 . S
C295 C294 1.386 . S
C295 C296 1.382 . S
C295 H317 0.950 . S
C296 N292 1.332 . S
C296 C295 1.382 . S
C296 H298 0.952 . S
C297 N292 1.332 . S
C297 C293 1.382 . S
C297 H299 0.948 . S
H298 C296 0.952 . S
H299 C297 0.948 . S
H300 C289 0.952 . S
H301 C291 0.948 . S
C302 C268 1.395 . S
C302 C272 1.391 . S
C303 C265 1.389 . S
C303 C285 1.392 . S
C304 C275 1.392 . S
C304 C277 1.389 . S
C305 C280 1.395 . S
C305 C282 1.391 1_565 S
H306 C266 0.951 . S
H307 C267 0.950 . S
H308 C273 0.949 . S
H309 C274 0.950 . S
H310 C278 0.951 . S
H311 C279 0.950 . S
H312 C283 0.949 1_565 S
H313 C284 0.950 . S
H314 C288 0.950 . S
H315 C290 0.950 . S
H316 C293 0.950 . S
H317 C295 0.950 . S
C318 C319 1.443 . S
C318 N322 1.376 . S
C318 C356 1.389 . S
C319 C318 1.443 . S
C319 C320 1.340 . S
C319 H359 0.951 . S
C320 C319 1.340 . S
C320 C321 1.439 . S
C320 H360 0.950 . S
C321 C320 1.439 . S
C321 N322 1.374 . S
C321 C355 1.395 . S
N322 C318 1.376 . S
N322 C321 1.374 . S
N322 Co323 2.008 . S
Co323 N322 2.008 . S
Co323 N324 1.995 . S
Co323 N329 2.008 . S
Co323 N334 1.995 . S
Co323 N339 2.282 . S
Co323 N345 2.282 . S
N324 Co323 1.995 . S
N324 C325 1.376 . S
N324 C328 1.383 . S
C325 N324 1.376 . S
C325 C326 1.446 . S
C325 C355 1.391 . S
C326 C325 1.446 . S
C326 C327 1.339 . S
C326 H361 0.949 . S
C327 C326 1.339 . S
C327 C328 1.439 . S
C327 H362 0.950 . S
C328 N324 1.383 . S
C328 C327 1.439 . S
C328 C357 1.392 . S
N329 Co323 2.008 . S
N329 C330 1.376 . S
N329 C333 1.374 1_655 S
C330 N329 1.376 . S
C330 C331 1.443 1_655 S
C330 C357 1.389 . S
C331 C330 1.443 1_455 S
C331 C332 1.340 . S
C331 H363 0.951 . S
C332 C331 1.340 . S
C332 C333 1.439 . S
C332 H364 0.950 . S
C333 N329 1.374 1_455 S
C333 C332 1.439 . S
C333 C358 1.395 . S
N334 Co323 1.995 . S
N334 C335 1.376 . S
N334 C338 1.383 . S
C335 N334 1.376 . S
C335 C336 1.446 . S
C335 C358 1.391 1_655 S
C336 C335 1.446 . S
C336 C337 1.339 . S
C336 H365 0.949 1_655 S
C337 C336 1.339 . S
C337 C338 1.439 . S
C337 H366 0.950 . S
C338 N334 1.383 . S
C338 C337 1.439 . S
C338 C356 1.392 . S
N339 Co323 2.282 . S
N339 C342 1.332 . S
N339 C344 1.332 . S
C340 C341 1.386 . S
C340 C343 1.388 . S
C341 C340 1.386 . S
C341 C342 1.382 . S
C341 H367 0.950 . S
C342 N339 1.332 . S
C342 C341 1.382 . S
C342 H353 0.952 . S
C343 C340 1.388 . S
C343 C344 1.382 . S
C343 H368 0.950 . S
C344 N339 1.332 . S
C344 C343 1.382 . S
C344 H354 0.948 . S
N345 Co323 2.282 . S
N345 C349 1.332 . S
N345 C350 1.332 . S
C346 C347 1.388 . S
C346 C350 1.382 . S
C346 H369 0.950 . S
C347 C346 1.388 . S
C347 C348 1.386 . S
C348 C347 1.386 . S
C348 C349 1.382 . S
C348 H370 0.950 . S
C349 N345 1.332 . S
C349 C348 1.382 . S
C349 H351 0.952 . S
C350 N345 1.332 . S
C350 C346 1.382 . S
C350 H352 0.948 . S
H351 C349 0.952 . S
H352 C350 0.948 . S
H353 C342 0.952 . S
H354 C344 0.948 . S
C355 C321 1.395 . S
C355 C325 1.391 . S
C356 C318 1.389 . S
C356 C338 1.392 . S
C357 C328 1.392 . S
C357 C330 1.389 . S
C358 C333 1.395 . S
C358 C335 1.391 1_455 S
H359 C319 0.951 . S
H360 C320 0.950 . S
H361 C326 0.949 . S
H362 C327 0.950 . S
H363 C331 0.951 . S
H364 C332 0.950 . S
H365 C336 0.949 1_455 S
H366 C337 0.950 . S
H367 C341 0.950 . S
H368 C343 0.950 . S
H369 C346 0.950 . S
H370 C348 0.950 . S
C371 C372 1.443 . S
C371 N375 1.376 . S
C371 C409 1.389 . S
C372 C371 1.443 . S
C372 C373 1.340 . S
C372 H412 0.951 . S
C373 C372 1.340 . S
C373 C374 1.439 . S
C373 H413 0.950 . S
C374 C373 1.439 . S
C374 N375 1.374 . S
C374 C408 1.395 . S
N375 C371 1.376 . S
N375 C374 1.374 . S
N375 Co376 2.008 . S
Co376 N375 2.008 . S
Co376 N377 1.995 . S
Co376 N382 2.008 . S
Co376 N387 1.995 . S
Co376 N392 2.282 . S
Co376 N398 2.282 . S
N377 Co376 1.995 . S
N377 C378 1.376 . S
N377 C381 1.383 . S
C378 N377 1.376 . S
C378 C379 1.446 . S
C378 C408 1.391 . S
C379 C378 1.446 . S
C379 C380 1.339 . S
C379 H414 0.949 . S
C380 C379 1.339 . S
C380 C381 1.439 . S
C380 H415 0.950 . S
C381 N377 1.383 . S
C381 C380 1.439 . S
C381 C410 1.392 . S
N382 Co376 2.008 . S
N382 C383 1.376 . S
N382 C386 1.374 1_565 S
C383 N382 1.376 . S
C383 C384 1.443 1_565 S
C383 C410 1.389 . S
C384 C383 1.443 1_545 S
C384 C385 1.340 . S
C384 H416 0.951 . S
C385 C384 1.340 . S
C385 C386 1.439 . S
C385 H417 0.950 . S
C386 N382 1.374 1_545 S
C386 C385 1.439 . S
C386 C411 1.395 . S
N387 Co376 1.995 . S
N387 C388 1.376 . S
N387 C391 1.383 . S
C388 N387 1.376 . S
C388 C389 1.446 . S
C388 C411 1.391 1_565 S
C389 C388 1.446 . S
C389 C390 1.339 . S
C389 H418 0.949 1_565 S
C390 C389 1.339 . S
C390 C391 1.439 . S
C390 H419 0.950 . S
C391 N387 1.383 . S
C391 C390 1.439 . S
C391 C409 1.392 . S
N392 Co376 2.282 . S
N392 C395 1.332 . S
N392 C397 1.332 . S
C393 C394 1.386 . S
C393 C396 1.388 . S
C394 C393 1.386 . S
C394 C395 1.382 . S
C394 H420 0.950 . S
C395 N392 1.332 . S
C395 C394 1.382 . S
C395 H406 0.952 . S
C396 C393 1.388 . S
C396 C397 1.382 . S
C396 H421 0.950 . S
C397 N392 1.332 . S
C397 C396 1.382 . S
C397 H407 0.948 . S
N398 Co376 2.282 . S
N398 C402 1.332 . S
N398 C403 1.332 . S
C399 C400 1.388 . S
C399 C403 1.382 . S
C399 H422 0.950 . S
C400 C399 1.388 . S
C400 C401 1.386 . S
C401 C400 1.386 . S
C401 C402 1.382 . S
C401 H423 0.950 . S
C402 N398 1.332 . S
C402 C401 1.382 . S
C402 H404 0.952 . S
C403 N398 1.332 . S
C403 C399 1.382 . S
C403 H405 0.948 . S
H404 C402 0.952 . S
H405 C403 0.948 . S
H406 C395 0.952 . S
H407 C397 0.948 . S
C408 C374 1.395 . S
C408 C378 1.391 . S
C409 C371 1.389 . S
C409 C391 1.392 . S
C410 C381 1.392 . S
C410 C383 1.389 . S
C411 C386 1.395 . S
C411 C388 1.391 1_545 S
H412 C372 0.951 . S
H413 C373 0.950 . S
H414 C379 0.949 . S
H415 C380 0.950 . S
H416 C384 0.951 . S
H417 C385 0.950 . S
H418 C389 0.949 1_545 S
H419 C390 0.950 . S
H420 C394 0.950 . S
H421 C396 0.950 . S
H422 C399 0.950 . S
H423 C401 0.950 . S
H424 C442 0.951 . S
H425 C444 0.951 . S
H426 C446 0.950 1_655 S
H427 C447 0.950 . S
H428 C449 0.950 . S
H429 C452 0.950 . S
H430 C453 0.950 . S
H431 C455 0.950 . S
H432 C456 0.950 . S
H433 C457 0.951 . S
H434 C459 0.951 . S
H435 C461 0.950 1_455 S
H436 C462 0.950 . S
H437 C464 0.950 . S
H438 C467 0.950 . S
H439 C468 0.950 . S
H440 C470 0.950 . S
H441 C471 0.950 . S
C442 H424 0.951 . S
C442 C443 1.366 . S
C442 C444 1.388 . S
C443 C442 1.366 . S
C443 C447 1.385 . S
C444 H425 0.951 . S
C444 C442 1.388 . S
C444 C445 1.366 . S
C445 C444 1.366 . S
C445 C446 1.414 . S
C445 C448 1.499 . S
C446 H426 0.950 1_455 S
C446 C445 1.414 . S
C446 C447 1.374 . S
C447 H427 0.950 . S
C447 C443 1.385 . S
C447 C446 1.374 . S
C448 C445 1.499 . S
C448 C449 1.373 1_455 S
C448 C450 1.389 . S
C449 H428 0.950 . S
C449 C448 1.373 1_655 S
C449 C465 1.377 . S
C450 C448 1.389 . S
C450 C451 1.524 . S
C450 C464 1.377 . S
C451 C450 1.524 . S
C451 C452 1.397 . S
C451 C456 1.363 . S
C452 H429 0.950 . S
C452 C451 1.397 . S
C452 C453 1.334 . S
C453 H430 0.950 . S
C453 C452 1.334 . S
C453 C454 1.287 . S
C454 C453 1.287 . S
C454 C455 1.524 . S
C454 H473 0.913 . S
C455 H431 0.950 . S
C455 C454 1.524 . S
C455 C456 1.415 . S
C456 H432 0.950 . S
C456 C451 1.363 . S
C456 C455 1.415 . S
C457 H433 0.951 . S
C457 C458 1.366 . S
C457 C459 1.388 . S
C458 C457 1.366 . S
C458 C462 1.385 . S
C459 H434 0.951 . S
C459 C457 1.388 . S
C459 C460 1.366 . S
C460 C459 1.366 . S
C460 C461 1.414 . S
C460 C463 1.499 . S
C461 H435 0.950 1_655 S
C461 C460 1.414 . S
C461 C462 1.374 . S
C462 H436 0.950 . S
C462 C458 1.385 . S
C462 C461 1.374 . S
C463 C460 1.499 . S
C463 C464 1.373 1_655 S
C463 C465 1.389 . S
C464 H437 0.950 . S
C464 C450 1.377 . S
C464 C463 1.373 1_455 S
C465 C449 1.377 . S
C465 C463 1.389 . S
C465 C466 1.524 . S
C466 C465 1.524 . S
C466 C467 1.397 . S
C466 C471 1.363 . S
C467 H438 0.950 . S
C467 C466 1.397 . S
C467 C468 1.334 . S
C468 H439 0.950 . S
C468 C467 1.334 . S
C468 C469 1.287 . S
C469 C468 1.287 . S
C469 C470 1.524 . S
C469 H472 0.999 . S
C470 H440 0.950 . S
C470 C469 1.524 . S
C470 C471 1.415 . S
C471 H441 0.950 . S
C471 C466 1.363 . S
C471 C470 1.415 . S
H472 C469 0.999 . S
H473 C454 0.913 . S
H474 C492 0.951 . S
H475 C494 0.951 1_545 S
H476 C496 0.950 . S
H477 C497 0.950 . S
H478 C499 0.950 . S
H479 C502 0.950 1_565 S
H480 C503 0.950 . S
H481 C505 0.950 . S
H482 C506 0.950 . S
H483 C507 0.951 . S
H484 C509 0.951 1_565 S
H485 C511 0.950 . S
H486 C512 0.950 . S
H487 C514 0.950 . S
H488 C517 0.950 1_545 S
H489 C518 0.950 . S
H490 C520 0.950 . S
H491 C521 0.950 . S
C492 H474 0.951 . S
C492 C493 1.366 . S
C492 C494 1.388 . S
C493 C492 1.366 . S
C493 C497 1.385 . S
C494 H475 0.951 1_565 S
C494 C492 1.388 . S
C494 C495 1.366 . S
C495 C494 1.366 . S
C495 C496 1.414 . S
C495 C498 1.499 . S
C496 H476 0.950 . S
C496 C495 1.414 . S
C496 C497 1.374 . S
C497 H477 0.950 . S
C497 C493 1.385 . S
C497 C496 1.374 . S
C498 C495 1.499 . S
C498 C499 1.373 . S
C498 C500 1.389 1_565 S
C499 H478 0.950 . S
C499 C498 1.373 . S
C499 C515 1.377 . S
C500 C498 1.389 1_545 S
C500 C501 1.524 . S
C500 C514 1.377 . S
C501 C500 1.524 . S
C501 C502 1.397 . S
C501 C506 1.363 . S
C502 H479 0.950 1_545 S
C502 C501 1.397 . S
C502 C503 1.334 . S
C503 H480 0.950 . S
C503 C502 1.334 . S
C503 C504 1.287 . S
C504 C503 1.287 . S
C504 C505 1.524 . S
C504 H523 0.913 . S
C505 H481 0.950 . S
C505 C504 1.524 . S
C505 C506 1.415 . S
C506 H482 0.950 . S
C506 C501 1.363 . S
C506 C505 1.415 . S
C507 H483 0.951 . S
C507 C508 1.366 . S
C507 C509 1.388 . S
C508 C507 1.366 . S
C508 C512 1.385 . S
C509 H484 0.951 1_545 S
C509 C507 1.388 . S
C509 C510 1.366 . S
C510 C509 1.366 . S
C510 C511 1.414 . S
C510 C513 1.499 . S
C511 H485 0.950 . S
C511 C510 1.414 . S
C511 C512 1.374 . S
C512 H486 0.950 . S
C512 C508 1.385 . S
C512 C511 1.374 . S
C513 C510 1.499 . S
C513 C514 1.373 . S
C513 C515 1.389 1_545 S
C514 H487 0.950 . S
C514 C500 1.377 . S
C514 C513 1.373 . S
C515 C499 1.377 . S
C515 C513 1.389 1_565 S
C515 C516 1.524 . S
C516 C515 1.524 . S
C516 C517 1.397 . S
C516 C521 1.363 . S
C517 H488 0.950 1_565 S
C517 C516 1.397 . S
C517 C518 1.334 . S
C518 H489 0.950 . S
C518 C517 1.334 . S
C518 C519 1.287 . S
C519 C518 1.287 . S
C519 C520 1.524 . S
C519 H522 0.999 . S
C520 H490 0.950 . S
C520 C519 1.524 . S
C520 C521 1.415 . S
C521 H491 0.950 . S
C521 C516 1.363 . S
C521 C520 1.415 . S
H522 C519 0.999 . S
H523 C504 0.913 . S
H524 C542 0.951 . S
H525 C544 0.951 1_455 S
H526 C546 0.950 . S
H527 C547 0.950 . S
H528 C549 0.950 . S
H529 C552 0.950 . S
H530 C553 0.950 . S
H531 C555 0.950 . S
H532 C556 0.950 . S
H533 C557 0.951 . S
H534 C559 0.951 1_655 S
H535 C561 0.950 . S
H536 C562 0.950 . S
H537 C564 0.950 . S
H538 C567 0.950 . S
H539 C568 0.950 . S
H540 C570 0.950 . S
H541 C571 0.950 . S
C542 H524 0.951 . S
C542 C543 1.366 . S
C542 C544 1.388 . S
C543 C542 1.366 . S
C543 C547 1.385 . S
C544 H525 0.951 1_655 S
C544 C542 1.388 . S
C544 C545 1.366 . S
C545 C544 1.366 . S
C545 C546 1.414 . S
C545 C548 1.499 . S
C546 H526 0.950 . S
C546 C545 1.414 . S
C546 C547 1.374 . S
C547 H527 0.950 . S
C547 C543 1.385 . S
C547 C546 1.374 . S
C548 C545 1.499 . S
C548 C549 1.373 . S
C548 C550 1.393 . S
C549 H528 0.950 . S
C549 C548 1.373 . S
C549 C565 1.373 1_655 S
C550 C548 1.393 . S
C550 C551 1.525 . S
C550 C564 1.373 1_655 S
C551 C550 1.525 . S
C551 C552 1.397 . S
C551 C556 1.363 1_655 S
C552 H529 0.950 . S
C552 C551 1.397 . S
C552 C553 1.334 . S
C553 H530 0.950 . S
C553 C552 1.334 . S
C553 C554 1.287 . S
C554 C553 1.287 . S
C554 C555 1.524 1_655 S
C554 H573 0.913 . S
C555 H531 0.950 . S
C555 C554 1.524 1_455 S
C555 C556 1.415 . S
C556 H532 0.950 . S
C556 C551 1.363 1_455 S
C556 C555 1.415 . S
C557 H533 0.951 . S
C557 C558 1.366 . S
C557 C559 1.388 . S
C558 C557 1.366 . S
C558 C562 1.385 . S
C559 H534 0.951 1_455 S
C559 C557 1.388 . S
C559 C560 1.366 . S
C560 C559 1.366 . S
C560 C561 1.414 . S
C560 C563 1.499 . S
C561 H535 0.950 . S
C561 C560 1.414 . S
C561 C562 1.374 . S
C562 H536 0.950 . S
C562 C558 1.385 . S
C562 C561 1.374 . S
C563 C560 1.499 . S
C563 C564 1.373 . S
C563 C565 1.393 . S
C564 H537 0.950 . S
C564 C550 1.373 1_455 S
C564 C563 1.373 . S
C565 C549 1.373 1_455 S
C565 C563 1.393 . S
C565 C566 1.525 . S
C566 C565 1.525 . S
C566 C567 1.397 . S
C566 C571 1.363 1_455 S
C567 H538 0.950 . S
C567 C566 1.397 . S
C567 C568 1.334 . S
C568 H539 0.950 . S
C568 C567 1.334 . S
C568 C569 1.287 . S
C569 C568 1.287 . S
C569 C570 1.524 1_455 S
C569 H572 0.999 . S
C570 H540 0.950 . S
C570 C569 1.524 1_655 S
C570 C571 1.415 . S
C571 H541 0.950 . S
C571 C566 1.363 1_655 S
C571 C570 1.415 . S
H572 C569 0.999 . S
H573 C554 0.913 . S
H574 C592 0.951 . S
H575 C594 0.951 1_565 S
H576 C596 0.950 . S
H577 C597 0.950 . S
H578 C599 0.950 . S
H579 C602 0.950 . S
H580 C603 0.950 . S
H581 C605 0.950 . S
H582 C606 0.950 . S
H583 C607 0.951 . S
H584 C609 0.951 1_545 S
H585 C611 0.950 . S
H586 C612 0.950 . S
H587 C614 0.950 . S
H588 C617 0.950 . S
H589 C618 0.950 . S
H590 C620 0.950 . S
H591 C621 0.950 . S
C592 H574 0.951 . S
C592 C593 1.366 . S
C592 C594 1.388 . S
C593 C592 1.366 . S
C593 C597 1.385 . S
C594 H575 0.951 1_545 S
C594 C592 1.388 . S
C594 C595 1.366 . S
C595 C594 1.366 . S
C595 C596 1.414 . S
C595 C598 1.499 . S
C596 H576 0.950 . S
C596 C595 1.414 . S
C596 C597 1.374 . S
C597 H577 0.950 . S
C597 C593 1.385 . S
C597 C596 1.374 . S
C598 C595 1.499 . S
C598 C599 1.373 . S
C598 C600 1.389 1_545 S
C599 H578 0.950 . S
C599 C598 1.373 . S
C599 C615 1.377 . S
C600 C598 1.389 1_565 S
C600 C601 1.524 . S
C600 C614 1.377 . S
C601 C600 1.524 . S
C601 C602 1.397 1_565 S
C601 C606 1.363 . S
C602 H579 0.950 . S
C602 C601 1.397 1_545 S
C602 C603 1.334 . S
C603 H580 0.950 . S
C603 C602 1.334 . S
C603 C604 1.287 1_545 S
C604 C603 1.287 1_565 S
C604 C605 1.524 . S
C604 H623 0.913 . S
C605 H581 0.950 . S
C605 C604 1.524 . S
C605 C606 1.415 . S
C606 H582 0.950 . S
C606 C601 1.363 . S
C606 C605 1.415 . S
C607 H583 0.951 . S
C607 C608 1.366 . S
C607 C609 1.388 . S
C608 C607 1.366 . S
C608 C612 1.385 . S
C609 H584 0.951 1_565 S
C609 C607 1.388 . S
C609 C610 1.366 . S
C610 C609 1.366 . S
C610 C611 1.414 . S
C610 C613 1.499 . S
C611 H585 0.950 . S
C611 C610 1.414 . S
C611 C612 1.374 . S
C612 H586 0.950 . S
C612 C608 1.385 . S
C612 C611 1.374 . S
C613 C610 1.499 . S
C613 C614 1.373 . S
C613 C615 1.389 1_565 S
C614 H587 0.950 . S
C614 C600 1.377 . S
C614 C613 1.373 . S
C615 C599 1.377 . S
C615 C613 1.389 1_545 S
C615 C616 1.524 . S
C616 C615 1.524 . S
C616 C617 1.397 1_545 S
C616 C621 1.363 . S
C617 H588 0.950 . S
C617 C616 1.397 1_565 S
C617 C618 1.334 . S
C618 H589 0.950 . S
C618 C617 1.334 . S
C618 C619 1.287 1_565 S
C619 C618 1.287 1_545 S
C619 C620 1.524 . S
C619 H622 0.999 . S
C620 H590 0.950 . S
C620 C619 1.524 . S
C620 C621 1.415 . S
C621 H591 0.950 . S
C621 C616 1.363 . S
C621 C620 1.415 . S
H622 C619 0.999 . S
H623 C604 0.913 . S
H624 C642 0.951 . S
H625 C644 0.951 . S
H626 C646 0.950 1_455 S
H627 C647 0.950 . S
H628 C649 0.950 . S
H629 C652 0.950 . S
H630 C653 0.950 . S
H631 C655 0.950 . S
H632 C656 0.950 1_554 S
H633 C657 0.951 . S
H634 C659 0.951 . S
H635 C661 0.950 1_655 S
H636 C662 0.950 . S
H637 C664 0.950 . S
H638 C667 0.950 . S
H639 C668 0.950 . S
H640 C670 0.950 . S
H641 C671 0.950 1_556 S
C642 H624 0.951 . S
C642 C643 1.366 . S
C642 C644 1.388 . S
C643 C642 1.366 . S
C643 C647 1.385 . S
C644 H625 0.951 . S
C644 C642 1.388 . S
C644 C645 1.366 . S
C645 C644 1.366 . S
C645 C646 1.414 . S
C645 C648 1.499 . S
C646 H626 0.950 1_655 S
C646 C645 1.414 . S
C646 C647 1.374 . S
C647 H627 0.950 . S
C647 C643 1.385 . S
C647 C646 1.374 . S
C648 C645 1.499 . S
C648 C649 1.373 1_655 S
C648 C650 1.389 . S
C649 H628 0.950 . S
C649 C648 1.373 1_455 S
C649 C665 1.377 1_556 S
C650 C648 1.389 . S
C650 C651 1.524 . S
C650 C664 1.377 1_556 S
C651 C650 1.524 . S
C651 C652 1.397 . S
C651 C656 1.363 . S
C652 H629 0.950 . S
C652 C651 1.397 . S
C652 C653 1.334 . S
C653 H630 0.950 . S
C653 C652 1.334 . S
C653 C654 1.287 . S
C654 C653 1.287 . S
C654 C655 1.524 . S
C654 H673 0.913 . S
C655 H631 0.950 . S
C655 C654 1.524 . S
C655 C656 1.415 . S
C656 H632 0.950 1_556 S
C656 C651 1.363 . S
C656 C655 1.415 . S
C657 H633 0.951 . S
C657 C658 1.366 . S
C657 C659 1.388 . S
C658 C657 1.366 . S
C658 C662 1.385 . S
C659 H634 0.951 . S
C659 C657 1.388 . S
C659 C660 1.366 . S
C660 C659 1.366 . S
C660 C661 1.414 . S
C660 C663 1.499 . S
C661 H635 0.950 1_455 S
C661 C660 1.414 . S
C661 C662 1.374 . S
C662 H636 0.950 . S
C662 C658 1.385 . S
C662 C661 1.374 . S
C663 C660 1.499 . S
C663 C664 1.373 1_455 S
C663 C665 1.389 . S
C664 H637 0.950 . S
C664 C650 1.377 1_554 S
C664 C663 1.373 1_655 S
C665 C649 1.377 1_554 S
C665 C663 1.389 . S
C665 C666 1.524 . S
C666 C665 1.524 . S
C666 C667 1.397 . S
C666 C671 1.363 . S
C667 H638 0.950 . S
C667 C666 1.397 . S
C667 C668 1.334 . S
C668 H639 0.950 . S
C668 C667 1.334 . S
C668 C669 1.287 . S
C669 C668 1.287 . S
C669 C670 1.524 . S
C669 H672 0.999 . S
C670 H640 0.950 . S
C670 C669 1.524 . S
C670 C671 1.415 . S
C671 H641 0.950 1_554 S
C671 C666 1.363 . S
C671 C670 1.415 . S
H672 C669 0.999 . S
H673 C654 0.913 . S
H674 C692 0.951 . S
H675 C694 0.951 . S
H676 C696 0.950 1_565 S
H677 C697 0.950 . S
H678 C699 0.950 . S
H679 C702 0.950 . S
H680 C703 0.950 . S
H681 C705 0.950 . S
H682 C706 0.950 1_545 S
H683 C707 0.951 . S
H684 C709 0.951 . S
H685 C711 0.950 1_545 S
H686 C712 0.950 . S
H687 C714 0.950 . S
H688 C717 0.950 . S
H689 C718 0.950 . S
H690 C720 0.950 . S
H691 C721 0.950 1_565 S
C692 H674 0.951 . S
C692 C693 1.366 . S
C692 C694 1.388 . S
C693 C692 1.366 . S
C693 C697 1.385 . S
C694 H675 0.951 . S
C694 C692 1.388 . S
C694 C695 1.366 . S
C695 C694 1.366 . S
C695 C696 1.414 . S
C695 C698 1.499 . S
C696 H676 0.950 1_545 S
C696 C695 1.414 . S
C696 C697 1.374 . S
C697 H677 0.950 . S
C697 C693 1.385 . S
C697 C696 1.374 . S
C698 C695 1.499 . S
C698 C699 1.373 . S
C698 C700 1.389 1_545 S
C699 H678 0.950 . S
C699 C698 1.373 . S
C699 C715 1.377 . S
C700 C698 1.389 1_565 S
C700 C701 1.524 . S
C700 C714 1.377 . S
C701 C700 1.524 . S
C701 C702 1.397 . S
C701 C706 1.363 . S
C702 H679 0.950 . S
C702 C701 1.397 . S
C702 C703 1.334 . S
C703 H680 0.950 . S
C703 C702 1.334 . S
C703 C704 1.287 . S
C704 C703 1.287 . S
C704 C705 1.524 . S
C704 H723 0.913 . S
C705 H681 0.950 . S
C705 C704 1.524 . S
C705 C706 1.415 . S
C706 H682 0.950 1_565 S
C706 C701 1.363 . S
C706 C705 1.415 . S
C707 H683 0.951 . S
C707 C708 1.366 . S
C707 C709 1.388 . S
C708 C707 1.366 . S
C708 C712 1.385 . S
C709 H684 0.951 . S
C709 C707 1.388 . S
C709 C710 1.366 . S
C710 C709 1.366 . S
C710 C711 1.414 . S
C710 C713 1.499 . S
C711 H685 0.950 1_565 S
C711 C710 1.414 . S
C711 C712 1.374 . S
C712 H686 0.950 . S
C712 C708 1.385 . S
C712 C711 1.374 . S
C713 C710 1.499 . S
C713 C714 1.373 . S
C713 C715 1.389 1_565 S
C714 H687 0.950 . S
C714 C700 1.377 . S
C714 C713 1.373 . S
C715 C699 1.377 . S
C715 C713 1.389 1_545 S
C715 C716 1.524 . S
C716 C715 1.524 . S
C716 C717 1.397 . S
C716 C721 1.363 . S
C717 H688 0.950 . S
C717 C716 1.397 . S
C717 C718 1.334 . S
C718 H689 0.950 . S
C718 C717 1.334 . S
C718 C719 1.287 . S
C719 C718 1.287 . S
C719 C720 1.524 . S
C719 H722 0.999 . S
C720 H690 0.950 . S
C720 C719 1.524 . S
C720 C721 1.415 . S
C721 H691 0.950 1_545 S
C721 C716 1.363 . S
C721 C720 1.415 . S
H722 C719 0.999 . S
H723 C704 0.913 . S
H724 C742 0.951 . S
H725 C744 0.951 . S
H726 C746 0.950 . S
H727 C747 0.950 . S
H728 C749 0.950 . S
H729 C752 0.950 . S
H730 C753 0.950 . S
H731 C755 0.950 . S
H732 C756 0.950 . S
H733 C757 0.951 . S
H734 C759 0.951 . S
H735 C761 0.950 . S
H736 C762 0.950 . S
H737 C764 0.950 . S
H738 C767 0.950 . S
H739 C768 0.950 . S
H740 C770 0.950 . S
H741 C771 0.950 . S
C742 H724 0.951 . S
C742 C743 1.366 . S
C742 C744 1.388 . S
C743 C742 1.366 . S
C743 C747 1.385 . S
C744 H725 0.951 . S
C744 C742 1.388 . S
C744 C745 1.366 . S
C745 C744 1.366 . S
C745 C746 1.414 . S
C745 C748 1.499 . S
C746 H726 0.950 . S
C746 C745 1.414 . S
C746 C747 1.374 . S
C747 H727 0.950 . S
C747 C743 1.385 . S
C747 C746 1.374 . S
C748 C745 1.499 . S
C748 C749 1.373 . S
C748 C750 1.389 1_655 S
C749 H728 0.950 . S
C749 C748 1.373 . S
C749 C765 1.377 1_554 S
C750 C748 1.389 1_455 S
C750 C751 1.524 . S
C750 C764 1.377 1_554 S
C751 C750 1.524 . S
C751 C752 1.397 . S
C751 C756 1.363 . S
C752 H729 0.950 . S
C752 C751 1.397 . S
C752 C753 1.334 . S
C753 H730 0.950 . S
C753 C752 1.334 . S
C753 C754 1.287 . S
C754 C753 1.287 . S
C754 C755 1.524 . S
C754 H773 0.913 . S
C755 H731 0.950 . S
C755 C754 1.524 . S
C755 C756 1.415 . S
C756 H732 0.950 . S
C756 C751 1.363 . S
C756 C755 1.415 . S
C757 H733 0.951 . S
C757 C758 1.366 . S
C757 C759 1.388 . S
C758 C757 1.366 . S
C758 C762 1.385 . S
C759 H734 0.951 . S
C759 C757 1.388 . S
C759 C760 1.366 . S
C760 C759 1.366 . S
C760 C761 1.414 . S
C760 C763 1.499 . S
C761 H735 0.950 . S
C761 C760 1.414 . S
C761 C762 1.374 . S
C762 H736 0.950 . S
C762 C758 1.385 . S
C762 C761 1.374 . S
C763 C760 1.499 . S
C763 C764 1.373 . S
C763 C765 1.389 1_455 S
C764 H737 0.950 . S
C764 C750 1.377 1_556 S
C764 C763 1.373 . S
C765 C749 1.377 1_556 S
C765 C763 1.389 1_655 S
C765 C766 1.524 . S
C766 C765 1.524 . S
C766 C767 1.397 . S
C766 C771 1.363 . S
C767 H738 0.950 . S
C767 C766 1.397 . S
C767 C768 1.334 . S
C768 H739 0.950 . S
C768 C767 1.334 . S
C768 C769 1.287 . S
C769 C768 1.287 . S
C769 C770 1.524 . S
C769 H772 0.999 . S
C770 H740 0.950 . S
C770 C769 1.524 . S
C770 C771 1.415 . S
C771 H741 0.950 . S
C771 C766 1.363 . S
C771 C770 1.415 . S
H772 C769 0.999 . S
H773 C754 0.913 . S
H774 C792 0.951 1_565 S
H775 C794 0.971 . S
H776 C796 0.950 . S
H777 C797 0.950 . S
H778 C799 0.950 . S
H779 C802 0.950 . S
H780 C803 0.950 . S
H781 C805 0.950 . S
H782 C806 0.950 . S
H783 C807 0.951 1_545 S
H784 C809 0.971 . S
H785 C811 0.950 . S
H786 C812 0.950 . S
H787 C814 0.950 . S
H788 C817 0.950 . S
H789 C818 0.950 . S
H790 C820 0.950 . S
H791 C821 0.950 . S
C792 H774 0.951 1_545 S
C792 C793 1.366 . S
C792 C794 1.381 1_545 S
C793 C792 1.366 . S
C793 C797 1.385 . S
C794 H775 0.971 . S
C794 C792 1.381 1_565 S
C794 C795 1.353 1_565 S
C795 C794 1.353 1_545 S
C795 C796 1.414 . S
C795 C798 1.499 . S
C796 H776 0.950 . S
C796 C795 1.414 . S
C796 C797 1.374 . S
C797 H777 0.950 . S
C797 C793 1.385 . S
C797 C796 1.374 . S
C798 C795 1.499 . S
C798 C799 1.373 . S
C798 C800 1.389 1_545 S
C799 H778 0.950 . S
C799 C798 1.373 . S
C799 C815 1.377 . S
C800 C798 1.389 1_565 S
C800 C801 1.524 . S
C800 C814 1.377 . S
C801 C800 1.524 . S
C801 C802 1.397 . S
C801 C806 1.363 . S
C802 H779 0.950 . S
C802 C801 1.397 . S
C802 C803 1.334 . S
C803 H780 0.950 . S
C803 C802 1.334 . S
C803 C804 1.287 . S
C804 C803 1.287 . S
C804 C805 1.524 . S
C804 H823 0.913 . S
C805 H781 0.950 . S
C805 C804 1.524 . S
C805 C806 1.415 . S
C806 H782 0.950 . S
C806 C801 1.363 . S
C806 C805 1.415 . S
C807 H783 0.951 1_565 S
C807 C808 1.366 . S
C807 C809 1.381 1_565 S
C808 C807 1.366 . S
C808 C812 1.385 . S
C809 H784 0.971 . S
C809 C807 1.381 1_545 S
C809 C810 1.353 1_545 S
C810 C809 1.353 1_565 S
C810 C811 1.414 . S
C810 C813 1.499 . S
C811 H785 0.950 . S
C811 C810 1.414 . S
C811 C812 1.374 . S
C812 H786 0.950 . S
C812 C808 1.385 . S
C812 C811 1.374 . S
C813 C810 1.499 . S
C813 C814 1.373 . S
C813 C815 1.389 1_565 S
C814 H787 0.950 . S
C814 C800 1.377 . S
C814 C813 1.373 . S
C815 C799 1.377 . S
C815 C813 1.389 1_545 S
C815 C816 1.524 . S
C816 C815 1.524 . S
C816 C817 1.397 . S
C816 C821 1.363 . S
C817 H788 0.950 . S
C817 C816 1.397 . S
C817 C818 1.334 . S
C818 H789 0.950 . S
C818 C817 1.334 . S
C818 C819 1.287 . S
C819 C818 1.287 . S
C819 C820 1.524 . S
C819 H822 0.999 . S
C820 H790 0.950 . S
C820 C819 1.524 . S
C820 C821 1.415 . S
C821 H791 0.950 . S
C821 C816 1.363 . S
C821 C820 1.415 . S
H822 C819 0.999 . S
H823 C804 0.913 . S
H824 C842 0.951 . S
H825 C844 0.951 . S
H826 C846 0.950 . S
H827 C847 0.950 . S
H828 C849 0.950 . S
H829 C852 0.950 . S
H830 C853 0.950 . S
H831 C855 0.950 . S
H832 C856 0.950 . S
H833 C857 0.951 . S
H834 C859 0.951 . S
H835 C861 0.950 . S
H836 C862 0.950 . S
H837 C864 0.950 . S
H838 C867 0.950 . S
H839 C868 0.950 . S
H840 C870 0.950 . S
H841 C871 0.950 . S
C842 H824 0.951 . S
C842 C843 1.366 . S
C842 C844 1.388 . S
C843 C842 1.366 . S
C843 C847 1.385 . S
C844 H825 0.951 . S
C844 C842 1.388 . S
C844 C845 1.366 . S
C845 C844 1.366 . S
C845 C846 1.414 . S
C845 C848 1.499 . S
C846 H826 0.950 . S
C846 C845 1.414 . S
C846 C847 1.374 . S
C847 H827 0.950 . S
C847 C843 1.385 . S
C847 C846 1.374 . S
C848 C845 1.499 . S
C848 C849 1.373 . S
C848 C850 1.389 . S
C849 H828 0.950 . S
C849 C848 1.373 . S
C849 C865 1.377 . S
C850 C848 1.389 . S
C850 C851 1.524 . S
C850 C864 1.377 . S
C851 C850 1.524 . S
C851 C852 1.397 . S
C851 C856 1.363 . S
C852 H829 0.950 . S
C852 C851 1.397 . S
C852 C853 1.334 . S
C853 H830 0.950 . S
C853 C852 1.334 . S
C853 C854 1.287 . S
C854 C853 1.287 . S
C854 C855 1.524 . S
C854 H873 0.913 . S
C855 H831 0.950 . S
C855 C854 1.524 . S
C855 C856 1.415 . S
C856 H832 0.950 . S
C856 C851 1.363 . S
C856 C855 1.415 . S
C857 H833 0.951 . S
C857 C858 1.366 . S
C857 C859 1.388 . S
C858 C857 1.366 . S
C858 C862 1.385 . S
C859 H834 0.951 . S
C859 C857 1.388 . S
C859 C860 1.366 . S
C860 C859 1.366 . S
C860 C861 1.414 . S
C860 C863 1.499 . S
C861 H835 0.950 . S
C861 C860 1.414 . S
C861 C862 1.374 . S
C862 H836 0.950 . S
C862 C858 1.385 . S
C862 C861 1.374 . S
C863 C860 1.499 . S
C863 C864 1.373 . S
C863 C865 1.389 . S
C864 H837 0.950 . S
C864 C850 1.377 . S
C864 C863 1.373 . S
C865 C849 1.377 . S
C865 C863 1.389 . S
C865 C866 1.524 . S
C866 C865 1.524 . S
C866 C867 1.397 . S
C866 C871 1.363 . S
C867 H838 0.950 . S
C867 C866 1.397 . S
C867 C868 1.334 . S
C868 H839 0.950 . S
C868 C867 1.334 . S
C868 C869 1.287 . S
C869 C868 1.287 . S
C869 C870 1.524 . S
C869 H872 0.999 . S
C870 H840 0.950 . S
C870 C869 1.524 . S
C870 C871 1.415 . S
C871 H841 0.950 . S
C871 C866 1.363 . S
C871 C870 1.415 . S
H872 C869 0.999 . S
H873 C854 0.913 . S
H874 C892 0.951 . S
H875 C894 0.951 . S
H876 C896 0.950 . S
H877 C897 0.950 . S
H878 C899 0.950 . S
H879 C902 0.950 . S
H880 C903 0.950 . S
H881 C905 0.950 . S
H882 C906 0.950 . S
H883 C907 0.951 . S
H884 C909 0.951 . S
H885 C911 0.950 . S
H886 C912 0.950 . S
H887 C914 0.950 . S
H888 C917 0.950 . S
H889 C918 0.950 . S
H890 C920 0.950 . S
H891 C921 0.950 . S
C892 H874 0.951 . S
C892 C893 1.366 . S
C892 C894 1.388 . S
C893 C892 1.366 . S
C893 C897 1.385 . S
C894 H875 0.951 . S
C894 C892 1.388 . S
C894 C895 1.366 . S
C895 C894 1.366 . S
C895 C896 1.414 . S
C895 C898 1.499 . S
C896 H876 0.950 . S
C896 C895 1.414 . S
C896 C897 1.374 . S
C897 H877 0.950 . S
C897 C893 1.385 . S
C897 C896 1.374 . S
C898 C895 1.499 . S
C898 C899 1.373 . S
C898 C900 1.389 . S
C899 H878 0.950 . S
C899 C898 1.373 . S
C899 C915 1.377 . S
C900 C898 1.389 . S
C900 C901 1.524 . S
C900 C914 1.377 . S
C901 C900 1.524 . S
C901 C902 1.397 . S
C901 C906 1.363 . S
C902 H879 0.950 . S
C902 C901 1.397 . S
C902 C903 1.334 . S
C903 H880 0.950 . S
C903 C902 1.334 . S
C903 C904 1.287 . S
C904 C903 1.287 . S
C904 C905 1.524 . S
C904 H923 0.913 . S
C905 H881 0.950 . S
C905 C904 1.524 . S
C905 C906 1.415 . S
C906 H882 0.950 . S
C906 C901 1.363 . S
C906 C905 1.415 . S
C907 H883 0.951 . S
C907 C908 1.366 . S
C907 C909 1.388 . S
C908 C907 1.366 . S
C908 C912 1.385 . S
C909 H884 0.951 . S
C909 C907 1.388 . S
C909 C910 1.366 . S
C910 C909 1.366 . S
C910 C911 1.414 . S
C910 C913 1.499 . S
C911 H885 0.950 . S
C911 C910 1.414 . S
C911 C912 1.374 . S
C912 H886 0.950 . S
C912 C908 1.385 . S
C912 C911 1.374 . S
C913 C910 1.499 . S
C913 C914 1.373 . S
C913 C915 1.389 . S
C914 H887 0.950 . S
C914 C900 1.377 . S
C914 C913 1.373 . S
C915 C899 1.377 . S
C915 C913 1.389 . S
C915 C916 1.524 . S
C916 C915 1.524 . S
C916 C917 1.397 . S
C916 C921 1.363 . S
C917 H888 0.950 . S
C917 C916 1.397 . S
C917 C918 1.334 . S
C918 H889 0.950 . S
C918 C917 1.334 . S
C918 C919 1.287 . S
C919 C918 1.287 . S
C919 C920 1.524 . S
C919 H922 0.999 . S
C920 H890 0.950 . S
C920 C919 1.524 . S
C920 C921 1.415 . S
C921 H891 0.950 . S
C921 C916 1.363 . S
C921 C920 1.415 . S
H922 C919 0.999 . S
H923 C904 0.913 . S
H924 C942 0.951 . S
H925 C944 0.951 . S
H926 C946 0.950 . S
H927 C947 0.950 . S
H928 C949 0.950 . S
H929 C952 0.950 . S
H930 C953 0.950 . S
H931 C955 0.950 . S
H932 C956 0.950 . S
H933 C957 0.951 . S
H934 C959 0.951 . S
H935 C961 0.950 . S
H936 C962 0.950 . S
H937 C964 0.950 . S
H938 C967 0.950 . S
H939 C968 0.950 . S
H940 C970 0.950 . S
H941 C971 0.950 . S
C942 H924 0.951 . S
C942 C943 1.366 . S
C942 C944 1.388 . S
C943 C942 1.366 . S
C943 C947 1.385 . S
C944 H925 0.951 . S
C944 C942 1.388 . S
C944 C945 1.366 . S
C945 C944 1.366 . S
C945 C946 1.414 . S
C945 C948 1.499 . S
C946 H926 0.950 . S
C946 C945 1.414 . S
C946 C947 1.374 . S
C947 H927 0.950 . S
C947 C943 1.385 . S
C947 C946 1.374 . S
C948 C945 1.499 . S
C948 C949 1.373 . S
C948 C950 1.389 . S
C949 H928 0.950 . S
C949 C948 1.373 . S
C949 C965 1.377 . S
C950 C948 1.389 . S
C950 C951 1.524 . S
C950 C964 1.377 . S
C951 C950 1.524 . S
C951 C952 1.397 . S
C951 C956 1.363 . S
C952 H929 0.950 . S
C952 C951 1.397 . S
C952 C953 1.334 . S
C953 H930 0.950 . S
C953 C952 1.334 . S
C953 C954 1.287 . S
C954 C953 1.287 . S
C954 C955 1.524 . S
C954 H973 0.913 . S
C955 H931 0.950 . S
C955 C954 1.524 . S
C955 C956 1.415 . S
C956 H932 0.950 . S
C956 C951 1.363 . S
C956 C955 1.415 . S
C957 H933 0.951 . S
C957 C958 1.366 . S
C957 C959 1.388 . S
C958 C957 1.366 . S
C958 C962 1.385 . S
C959 H934 0.951 . S
C959 C957 1.388 . S
C959 C960 1.366 . S
C960 C959 1.366 . S
C960 C961 1.414 . S
C960 C963 1.499 . S
C961 H935 0.950 . S
C961 C960 1.414 . S
C961 C962 1.374 . S
C962 H936 0.950 . S
C962 C958 1.385 . S
C962 C961 1.374 . S
C963 C960 1.499 . S
C963 C964 1.373 . S
C963 C965 1.389 . S
C964 H937 0.950 . S
C964 C950 1.377 . S
C964 C963 1.373 . S
C965 C949 1.377 . S
C965 C963 1.389 . S
C965 C966 1.524 . S
C966 C965 1.524 . S
C966 C967 1.397 . S
C966 C971 1.363 . S
C967 H938 0.950 . S
C967 C966 1.397 . S
C967 C968 1.334 . S
C968 H939 0.950 . S
C968 C967 1.334 . S
C968 C969 1.287 . S
C969 C968 1.287 . S
C969 C970 1.524 . S
C969 H972 0.999 . S
C970 H940 0.950 . S
C970 C969 1.524 . S
C970 C971 1.415 . S
C971 H941 0.950 . S
C971 C966 1.363 . S
C971 C970 1.415 . S
H972 C969 0.999 . S
H973 C954 0.913 . S
H974 C992 0.951 . S
H975 C994 0.951 . S
H976 C996 0.950 . S
H977 C997 0.950 . S
H978 C999 0.950 . S
H979 C1002 0.950 . S
H980 C1003 0.950 . S
H981 C1005 0.950 . S
H982 C1006 0.950 . S
H983 C1007 0.951 . S
H984 C1009 0.951 . S
H985 C1011 0.950 . S
H986 C1012 0.950 . S
H987 C1014 0.950 . S
H988 C1017 0.950 . S
H989 C1018 0.950 . S
H990 C1020 0.950 . S
H991 C1021 0.950 . S
C992 H974 0.951 . S
C992 C993 1.366 . S
C992 C994 1.388 . S
C993 C992 1.366 . S
C993 C997 1.385 . S
C994 H975 0.951 . S
C994 C992 1.388 . S
C994 C995 1.366 . S
C995 C994 1.366 . S
C995 C996 1.414 . S
C995 C998 1.499 . S
C996 H976 0.950 . S
C996 C995 1.414 . S
C996 C997 1.374 . S
C997 H977 0.950 . S
C997 C993 1.385 . S
C997 C996 1.374 . S
C998 C995 1.499 . S
C998 C999 1.373 . S
C998 C1000 1.389 . S
C999 H978 0.950 . S
C999 C998 1.373 . S
C999 C1015 1.377 . S
C1000 C998 1.389 . S
C1000 C1001 1.524 . S
C1000 C1014 1.377 . S
C1001 C1000 1.524 . S
C1001 C1002 1.397 . S
C1001 C1006 1.363 . S
C1002 H979 0.950 . S
C1002 C1001 1.397 . S
C1002 C1003 1.334 . S
C1003 H980 0.950 . S
C1003 C1002 1.334 . S
C1003 C1004 1.287 . S
C1004 C1003 1.287 . S
C1004 C1005 1.524 . S
C1004 H1023 0.913 . S
C1005 H981 0.950 . S
C1005 C1004 1.524 . S
C1005 C1006 1.415 . S
C1006 H982 0.950 . S
C1006 C1001 1.363 . S
C1006 C1005 1.415 . S
C1007 H983 0.951 . S
C1007 C1008 1.366 . S
C1007 C1009 1.388 . S
C1008 C1007 1.366 . S
C1008 C1012 1.385 . S
C1009 H984 0.951 . S
C1009 C1007 1.388 . S
C1009 C1010 1.366 . S
C1010 C1009 1.366 . S
C1010 C1011 1.414 . S
C1010 C1013 1.499 . S
C1011 H985 0.950 . S
C1011 C1010 1.414 . S
C1011 C1012 1.374 . S
C1012 H986 0.950 . S
C1012 C1008 1.385 . S
C1012 C1011 1.374 . S
C1013 C1010 1.499 . S
C1013 C1014 1.373 . S
C1013 C1015 1.389 . S
C1014 H987 0.950 . S
C1014 C1000 1.377 . S
C1014 C1013 1.373 . S
C1015 C999 1.377 . S
C1015 C1013 1.389 . S
C1015 C1016 1.524 . S
C1016 C1015 1.524 . S
C1016 C1017 1.397 . S
C1016 C1021 1.363 . S
C1017 H988 0.950 . S
C1017 C1016 1.397 . S
C1017 C1018 1.334 . S
C1018 H989 0.950 . S
C1018 C1017 1.334 . S
C1018 C1019 1.287 . S
C1019 C1018 1.287 . S
C1019 C1020 1.524 . S
C1019 H1022 0.999 . S
C1020 H990 0.950 . S
C1020 C1019 1.524 . S
C1020 C1021 1.415 . S
C1021 H991 0.950 . S
C1021 C1016 1.363 . S
C1021 C1020 1.415 . S
H1022 C1019 0.999 . S
H1023 C1004 0.913 . S
H1024 C1042 0.951 . S
H1025 C1044 0.951 . S
H1026 C1046 0.950 . S
H1027 C1047 0.950 . S
H1028 C1049 0.950 . S
H1029 C1052 0.950 . S
H1030 C1053 0.950 . S
H1031 C1055 0.947 1_565 S
H1032 C1056 0.957 . S
H1033 C1057 0.951 . S
H1034 C1059 0.951 . S
H1035 C1061 0.950 . S
H1036 C1062 0.950 . S
H1037 C1064 0.950 . S
H1038 C1067 0.950 . S
H1039 C1068 0.950 . S
H1040 C1070 0.947 1_545 S
H1041 C1071 0.957 . S
C1042 H1024 0.951 . S
C1042 C1043 1.366 . S
C1042 C1044 1.388 . S
C1043 C1042 1.366 . S
C1043 C1047 1.385 . S
C1044 H1025 0.951 . S
C1044 C1042 1.388 . S
C1044 C1045 1.366 . S
C1045 C1044 1.366 . S
C1045 C1046 1.414 . S
C1045 C1048 1.499 . S
C1046 H1026 0.950 . S
C1046 C1045 1.414 . S
C1046 C1047 1.374 . S
C1047 H1027 0.950 . S
C1047 C1043 1.385 . S
C1047 C1046 1.374 . S
C1048 C1045 1.499 . S
C1048 C1049 1.373 1_455 S
C1048 C1050 1.389 . S
C1049 H1028 0.950 . S
C1049 C1048 1.373 1_655 S
C1049 C1065 1.377 1_545 S
C1050 C1048 1.389 . S
C1050 C1051 1.524 . S
C1050 C1064 1.377 1_545 S
C1051 C1050 1.524 . S
C1051 C1052 1.397 . S
C1051 C1056 1.357 1_545 S
C1052 H1029 0.950 . S
C1052 C1051 1.397 . S
C1052 C1053 1.334 . S
C1053 H1030 0.950 . S
C1053 C1052 1.334 . S
C1053 C1054 1.287 . S
C1054 C1053 1.287 . S
C1054 C1055 1.528 . S
C1054 H1073 0.913 . S
C1055 H1031 0.947 1_545 S
C1055 C1054 1.528 . S
C1055 C1056 1.414 1_545 S
C1056 H1032 0.957 . S
C1056 C1051 1.357 1_565 S
C1056 C1055 1.414 1_565 S
C1057 H1033 0.951 . S
C1057 C1058 1.366 . S
C1057 C1059 1.388 . S
C1058 C1057 1.366 . S
C1058 C1062 1.385 . S
C1059 H1034 0.951 . S
C1059 C1057 1.388 . S
C1059 C1060 1.366 . S
C1060 C1059 1.366 . S
C1060 C1061 1.414 . S
C1060 C1063 1.499 . S
C1061 H1035 0.950 . S
C1061 C1060 1.414 . S
C1061 C1062 1.374 . S
C1062 H1036 0.950 . S
C1062 C1058 1.385 . S
C1062 C1061 1.374 . S
C1063 C1060 1.499 . S
C1063 C1064 1.373 1_655 S
C1063 C1065 1.389 . S
C1064 H1037 0.950 . S
C1064 C1050 1.377 1_565 S
C1064 C1063 1.373 1_455 S
C1065 C1049 1.377 1_565 S
C1065 C1063 1.389 . S
C1065 C1066 1.524 . S
C1066 C1065 1.524 . S
C1066 C1067 1.397 . S
C1066 C1071 1.357 1_565 S
C1067 H1038 0.950 . S
C1067 C1066 1.397 . S
C1067 C1068 1.334 . S
C1068 H1039 0.950 . S
C1068 C1067 1.334 . S
C1068 C1069 1.287 . S
C1069 C1068 1.287 . S
C1069 C1070 1.528 . S
C1069 H1072 0.999 . S
C1070 H1040 0.947 1_565 S
C1070 C1069 1.528 . S
C1070 C1071 1.414 1_565 S
C1071 H1041 0.957 . S
C1071 C1066 1.357 1_545 S
C1071 C1070 1.414 1_545 S
H1072 C1069 0.999 . S
H1073 C1054 0.913 . S
H1074 C1092 0.951 . S
H1075 C1094 0.951 . S
H1076 C1096 0.950 1_545 S
H1077 C1097 0.950 . S
H1078 C1099 0.950 . S
H1079 C1102 0.950 . S
H1080 C1103 0.950 . S
H1081 C1105 0.950 . S
H1082 C1106 0.950 . S
H1083 C1107 0.951 . S
H1084 C1109 0.951 . S
H1085 C1111 0.950 1_565 S
H1086 C1112 0.950 . S
H1087 C1114 0.950 . S
H1088 C1117 0.950 . S
H1089 C1118 0.950 . S
H1090 C1120 0.950 . S
H1091 C1121 0.950 . S
C1092 H1074 0.951 . S
C1092 C1093 1.366 . S
C1092 C1094 1.388 . S
C1093 C1092 1.366 . S
C1093 C1097 1.385 . S
C1094 H1075 0.951 . S
C1094 C1092 1.388 . S
C1094 C1095 1.366 . S
C1095 C1094 1.366 . S
C1095 C1096 1.414 . S
C1095 C1098 1.499 . S
C1096 H1076 0.950 1_565 S
C1096 C1095 1.414 . S
C1096 C1097 1.374 . S
C1097 H1077 0.950 . S
C1097 C1093 1.385 . S
C1097 C1096 1.374 . S
C1098 C1095 1.499 . S
C1098 C1099 1.373 1_565 S
C1098 C1100 1.389 . S
C1099 H1078 0.950 . S
C1099 C1098 1.373 1_545 S
C1099 C1115 1.377 1_455 S
C1100 C1098 1.389 . S
C1100 C1101 1.524 . S
C1100 C1114 1.377 1_455 S
C1101 C1100 1.524 . S
C1101 C1102 1.397 . S
C1101 C1106 1.363 1_455 S
C1102 H1079 0.950 . S
C1102 C1101 1.397 . S
C1102 C1103 1.334 . S
C1103 H1080 0.950 . S
C1103 C1102 1.334 . S
C1103 C1104 1.287 . S
C1104 C1103 1.287 . S
C1104 C1105 1.524 1_455 S
C1104 H1123 0.913 . S
C1105 H1081 0.950 . S
C1105 C1104 1.524 1_655 S
C1105 C1106 1.415 . S
C1106 H1082 0.950 . S
C1106 C1101 1.363 1_655 S
C1106 C1105 1.415 . S
C1107 H1083 0.951 . S
C1107 C1108 1.366 . S
C1107 C1109 1.388 . S
C1108 C1107 1.366 . S
C1108 C1112 1.385 . S
C1109 H1084 0.951 . S
C1109 C1107 1.388 . S
C1109 C1110 1.366 . S
C1110 C1109 1.366 . S
C1110 C1111 1.414 . S
C1110 C1113 1.499 . S
C1111 H1085 0.950 1_545 S
C1111 C1110 1.414 . S
C1111 C1112 1.374 . S
C1112 H1086 0.950 . S
C1112 C1108 1.385 . S
C1112 C1111 1.374 . S
C1113 C1110 1.499 . S
C1113 C1114 1.373 1_545 S
C1113 C1115 1.389 . S
C1114 H1087 0.950 . S
C1114 C1100 1.377 1_655 S
C1114 C1113 1.373 1_565 S
C1115 C1099 1.377 1_655 S
C1115 C1113 1.389 . S
C1115 C1116 1.524 . S
C1116 C1115 1.524 . S
C1116 C1117 1.397 . S
C1116 C1121 1.363 1_655 S
C1117 H1088 0.950 . S
C1117 C1116 1.397 . S
C1117 C1118 1.334 . S
C1118 H1089 0.950 . S
C1118 C1117 1.334 . S
C1118 C1119 1.287 . S
C1119 C1118 1.287 . S
C1119 C1120 1.524 1_655 S
C1119 H1122 0.999 . S
C1120 H1090 0.950 . S
C1120 C1119 1.524 1_455 S
C1120 C1121 1.415 . S
C1121 H1091 0.950 . S
C1121 C1116 1.363 1_455 S
C1121 C1120 1.415 . S
H1122 C1119 0.999 . S
H1123 C1104 0.913 . S
H1124 C1142 0.951 . S
H1125 C1144 0.951 . S
H1126 C1146 0.950 1_455 S
H1127 C1147 0.950 . S
H1128 C1149 0.950 . S
H1129 C1152 0.950 . S
H1130 C1153 0.950 . S
H1131 C1155 0.950 . S
H1132 C1156 0.950 . S
H1133 C1157 0.951 . S
H1134 C1159 0.951 . S
H1135 C1161 0.950 1_655 S
H1136 C1162 0.950 . S
H1137 C1164 0.950 . S
H1138 C1167 0.950 . S
H1139 C1168 0.950 . S
H1140 C1170 0.950 . S
H1141 C1171 0.950 . S
C1142 H1124 0.951 . S
C1142 C1143 1.366 . S
C1142 C1144 1.388 . S
C1143 C1142 1.366 . S
C1143 C1147 1.385 . S
C1144 H1125 0.951 . S
C1144 C1142 1.388 . S
C1144 C1145 1.366 . S
C1145 C1144 1.366 . S
C1145 C1146 1.414 . S
C1145 C1148 1.499 . S
C1146 H1126 0.950 1_655 S
C1146 C1145 1.414 . S
C1146 C1147 1.374 . S
C1147 H1127 0.950 . S
C1147 C1143 1.385 . S
C1147 C1146 1.374 . S
C1148 C1145 1.499 . S
C1148 C1149 1.373 1_655 S
C1148 C1150 1.389 . S
C1149 H1128 0.950 . S
C1149 C1148 1.373 1_455 S
C1149 C1165 1.377 1_545 S
C1150 C1148 1.389 . S
C1150 C1151 1.524 . S
C1150 C1164 1.377 1_545 S
C1151 C1150 1.524 . S
C1151 C1152 1.397 . S
C1151 C1156 1.363 1_545 S
C1152 H1129 0.950 . S
C1152 C1151 1.397 . S
C1152 C1153 1.334 . S
C1153 H1130 0.950 . S
C1153 C1152 1.334 . S
C1153 C1154 1.287 . S
C1154 C1153 1.287 . S
C1154 C1155 1.524 1_545 S
C1154 H1173 0.913 . S
C1155 H1131 0.950 . S
C1155 C1154 1.524 1_565 S
C1155 C1156 1.415 . S
C1156 H1132 0.950 . S
C1156 C1151 1.363 1_565 S
C1156 C1155 1.415 . S
C1157 H1133 0.951 . S
C1157 C1158 1.366 . S
C1157 C1159 1.388 . S
C1158 C1157 1.366 . S
C1158 C1162 1.385 . S
C1159 H1134 0.951 . S
C1159 C1157 1.388 . S
C1159 C1160 1.366 . S
C1160 C1159 1.366 . S
C1160 C1161 1.414 . S
C1160 C1163 1.499 . S
C1161 H1135 0.950 1_455 S
C1161 C1160 1.414 . S
C1161 C1162 1.374 . S
C1162 H1136 0.950 . S
C1162 C1158 1.385 . S
C1162 C1161 1.374 . S
C1163 C1160 1.499 . S
C1163 C1164 1.373 1_455 S
C1163 C1165 1.389 . S
C1164 H1137 0.950 . S
C1164 C1150 1.377 1_565 S
C1164 C1163 1.373 1_655 S
C1165 C1149 1.377 1_565 S
C1165 C1163 1.389 . S
C1165 C1166 1.524 . S
C1166 C1165 1.524 . S
C1166 C1167 1.397 . S
C1166 C1171 1.363 1_565 S
C1167 H1138 0.950 . S
C1167 C1166 1.397 . S
C1167 C1168 1.334 . S
C1168 H1139 0.950 . S
C1168 C1167 1.334 . S
C1168 C1169 1.287 . S
C1169 C1168 1.287 . S
C1169 C1170 1.524 1_565 S
C1169 H1172 0.999 . S
C1170 H1140 0.950 . S
C1170 C1169 1.524 1_545 S
C1170 C1171 1.415 . S
C1171 H1141 0.950 . S
C1171 C1166 1.363 1_545 S
C1171 C1170 1.415 . S
H1172 C1169 0.999 . S
H1173 C1154 0.913 . S
H1174 C1192 0.951 . S
H1175 C1194 0.951 . S
H1176 C1196 0.950 1_545 S
H1177 C1197 0.950 . S
H1178 C1199 0.950 . S
H1179 C1202 0.950 . S
H1180 C1203 0.950 . S
H1181 C1205 0.950 . S
H1182 C1206 0.950 . S
H1183 C1207 0.951 . S
H1184 C1209 0.951 . S
H1185 C1211 0.950 1_565 S
H1186 C1212 0.950 . S
H1187 C1214 0.950 . S
H1188 C1217 0.950 . S
H1189 C1218 0.950 . S
H1190 C1220 0.950 . S
H1191 C1221 0.950 . S
C1192 H1174 0.951 . S
C1192 C1193 1.366 . S
C1192 C1194 1.388 . S
C1193 C1192 1.366 . S
C1193 C1197 1.385 . S
C1194 H1175 0.951 . S
C1194 C1192 1.388 . S
C1194 C1195 1.366 . S
C1195 C1194 1.366 . S
C1195 C1196 1.414 . S
C1195 C1198 1.499 . S
C1196 H1176 0.950 1_565 S
C1196 C1195 1.414 . S
C1196 C1197 1.374 . S
C1197 H1177 0.950 . S
C1197 C1193 1.385 . S
C1197 C1196 1.374 . S
C1198 C1195 1.499 . S
C1198 C1199 1.373 1_565 S
C1198 C1200 1.389 . S
C1199 H1178 0.950 . S
C1199 C1198 1.373 1_545 S
C1199 C1215 1.377 1_655 S
C1200 C1198 1.389 . S
C1200 C1201 1.524 . S
C1200 C1214 1.377 1_655 S
C1201 C1200 1.524 . S
C1201 C1202 1.397 . S
C1201 C1206 1.363 1_655 S
C1202 H1179 0.950 . S
C1202 C1201 1.397 . S
C1202 C1203 1.334 . S
C1203 H1180 0.950 . S
C1203 C1202 1.334 . S
C1203 C1204 1.287 . S
C1204 C1203 1.287 . S
C1204 C1205 1.524 1_655 S
C1204 H1223 0.913 . S
C1205 H1181 0.950 . S
C1205 C1204 1.524 1_455 S
C1205 C1206 1.415 . S
C1206 H1182 0.950 . S
C1206 C1201 1.363 1_455 S
C1206 C1205 1.415 . S
C1207 H1183 0.951 . S
C1207 C1208 1.366 . S
C1207 C1209 1.388 . S
C1208 C1207 1.366 . S
C1208 C1212 1.385 . S
C1209 H1184 0.951 . S
C1209 C1207 1.388 . S
C1209 C1210 1.366 . S
C1210 C1209 1.366 . S
C1210 C1211 1.414 . S
C1210 C1213 1.499 . S
C1211 H1185 0.950 1_545 S
C1211 C1210 1.414 . S
C1211 C1212 1.374 . S
C1212 H1186 0.950 . S
C1212 C1208 1.385 . S
C1212 C1211 1.374 . S
C1213 C1210 1.499 . S
C1213 C1214 1.373 1_545 S
C1213 C1215 1.389 . S
C1214 H1187 0.950 . S
C1214 C1200 1.377 1_455 S
C1214 C1213 1.373 1_565 S
C1215 C1199 1.377 1_455 S
C1215 C1213 1.389 . S
C1215 C1216 1.524 . S
C1216 C1215 1.524 . S
C1216 C1217 1.397 . S
C1216 C1221 1.363 1_455 S
C1217 H1188 0.950 . S
C1217 C1216 1.397 . S
C1217 C1218 1.334 . S
C1218 H1189 0.950 . S
C1218 C1217 1.334 . S
C1218 C1219 1.287 . S
C1219 C1218 1.287 . S
C1219 C1220 1.524 1_455 S
C1219 H1222 0.999 . S
C1220 H1190 0.950 . S
C1220 C1219 1.524 1_655 S
C1220 C1221 1.415 . S
C1221 H1191 0.950 . S
C1221 C1216 1.363 1_655 S
C1221 C1220 1.415 . S
H1222 C1219 0.999 . S
H1223 C1204 0.913 . S
C443 C22 1.831 . S
C458 C128 1.830 . S
C493 C181 1.831 . S
C508 C75 1.831 . S
C543 C340 1.831 . S
C558 C234 1.831 . S
C593 C287 1.831 . S
C608 C393 1.831 . S
C643 C357 1.814 . S
C658 C39 1.814 . S
C693 C92 1.814 . S
C708 C410 1.814 . S
C743 C145 1.814 . S
C758 C251 1.814 . S
C793 C304 1.814 . S
C808 C198 1.814 . S
C843 C38 1.865 . S
C858 C303 1.865 . S
C893 C356 1.865 . S
C908 C91 1.865 . S
C943 C409 1.865 . S
C958 C144 1.865 . S
C993 C197 1.864 . S
C1008 C250 1.864 . S
C1043 C29 1.601 . S
C1058 C135 1.601 . S
C1093 C188 1.602 . S
C1108 C82 1.601 . S
C1143 C347 1.602 . S
C1158 C241 1.602 . S
C1193 C400 1.602 . S
C1208 C294 1.601 . S
