# Generated by pormake.
# Topology ooa, (5)-cn, num edge types: 1
# Building blocks:
#     Node 0, Type 0, BuildingBlock: BEQFEK_clean_sbu_0, # of connection points: 5
#     Node 1, Type 0, BuildingBlock: BEQFEK_clean_sbu_0, # of connection points: 5
#     Node 2, Type 0, BuildingBlock: BEQFEK_clean_sbu_0, # of connection points: 5
#     Node 3, Type 0, BuildingBlock: BEQFEK_clean_sbu_0, # of connection points: 5
#     Node 4, Type 0, BuildingBlock: BEQFEK_clean_sbu_0, # of connection points: 5
#     Node 5, Type 0, BuildingBlock: BEQFEK_clean_sbu_0, # of connection points: 5
#     Node 6, Type 0, BuildingBlock: BEQFEK_clean_sbu_0, # of connection points: 5
#     Node 7, Type 0, BuildingBlock: BEQFEK_clean_sbu_0, # of connection points: 5
#     Edge 8, Type (0, 0), BuildingBlock: XIVTED_clean_linker_0, # of connection points: 2
#     Edge 9, Type (0, 0), BuildingBlock: XIVTED_clean_linker_0, # of connection points: 2
#     Edge 10, Type (0, 0), BuildingBlock: XIVTED_clean_linker_0, # of connection points: 2
#     Edge 11, Type (0, 0), BuildingBlock: XIVTED_clean_linker_0, # of connection points: 2
#     Edge 12, Type (0, 0), BuildingBlock: XIVTED_clean_linker_0, # of connection points: 2
#     Edge 13, Type (0, 0), BuildingBlock: XIVTED_clean_linker_0, # of connection points: 2
#     Edge 14, Type (0, 0), BuildingBlock: XIVTED_clean_linker_0, # of connection points: 2
#     Edge 15, Type (0, 0), BuildingBlock: XIVTED_clean_linker_0, # of connection points: 2
#     Edge 16, Type (0, 0), BuildingBlock: XIVTED_clean_linker_0, # of connection points: 2
#     Edge 17, Type (0, 0), BuildingBlock: XIVTED_clean_linker_0, # of connection points: 2
#     Edge 18, Type (0, 0), BuildingBlock: XIVTED_clean_linker_0, # of connection points: 2
#     Edge 19, Type (0, 0), BuildingBlock: XIVTED_clean_linker_0, # of connection points: 2
#     Edge 20, Type (0, 0), BuildingBlock: XIVTED_clean_linker_0, # of connection points: 2
#     Edge 21, Type (0, 0), BuildingBlock: XIVTED_clean_linker_0, # of connection points: 2
#     Edge 22, Type (0, 0), BuildingBlock: XIVTED_clean_linker_0, # of connection points: 2
#     Edge 23, Type (0, 0), BuildingBlock: XIVTED_clean_linker_0, # of connection points: 2
#     Edge 24, Type (0, 0), BuildingBlock: XIVTED_clean_linker_0, # of connection points: 2
#     Edge 25, Type (0, 0), BuildingBlock: XIVTED_clean_linker_0, # of connection points: 2
#     Edge 26, Type (0, 0), BuildingBlock: XIVTED_clean_linker_0, # of connection points: 2
#     Edge 27, Type (0, 0), BuildingBlock: XIVTED_clean_linker_0, # of connection points: 2
# Relax obj value: 0.506
# Max RMSD: 0.273
# Mean RMSD: 0.273
data_MOF--net-ooa--node1-BEQFEK_clean_sbu_0--edge1-XIVTED_clean_linker_0
_symmetry_space_group_name_H-M    P1
_symmetry_Int_Tables_number       1
_symmetry_cell_setting            triclinic
loop_
_symmetry_equiv_pos_as_xyz
'x, y, z'
_cell_length_a     27.569533
_cell_length_b     47.1803
_cell_length_c     48.688961
_cell_angle_alpha  90.060069
_cell_angle_beta   89.958079
_cell_angle_gamma 89.991463
loop_
_atom_site_label
_atom_site_type_symbol
_atom_site_fract_x
_atom_site_fract_y
_atom_site_fract_z
_atom_type_partial_charge
Co0 Co 0.17187 0.11879 0.04366 0.0
Co1 Co 0.20348 0.16055 0.09047 0.0
C2 C 0.20432 0.09878 0.09994 0.0
O3 O 0.1902 0.09574 0.0754 0.0
O4 O 0.21219 0.12324 0.10995 0.0
C5 C 0.10248 0.07968 0.03595 0.0
O6 O 0.09548 0.08916 0.06103 0.0
C7 C 0.21418 0.19016 0.14367 0.0
C8 C 0.22024 0.23481 0.13049 0.0
C9 C 0.21788 0.21774 0.15359 0.0
N10 N 0.21329 0.19104 0.11603 0.0
N11 N 0.21738 0.21779 0.10832 0.0
C12 C 0.21502 0.1632 0.15987 0.0
H13 H 0.24295 0.14884 0.15123 0.0
H14 H 0.17925 0.15256 0.15817 0.0
H15 H 0.22401 0.16683 0.18176 0.0
C16 C 0.08689 0.15576 0.04292 0.0
N17 N 0.12988 0.14826 0.05359 0.0
N18 N 0.13941 0.16407 0.07518 0.0
C19 C 0.1008 0.18122 0.07978 0.0
C20 C 0.06667 0.17658 0.05921 0.0
C21 C 0.065 0.14304 0.01759 0.0
H22 H 0.09365 0.13444 0.00395 0.0
H23 H 0.03977 0.12579 0.02357 0.0
H24 H 0.04377 0.15906 0.00608 0.0
O25 O 0.22938 0.13498 0.02623 0.0
O26 O 0.25294 0.16438 0.05958 0.0
H27 H 0.11704 0.22104 0.0983 0.0
H28 H 0.05803 0.20731 0.10696 0.0
C29 C 0.0965 0.20149 0.10324 0.0
H30 H 0.1123 0.19201 0.12206 0.0
H31 H 0.21728 0.22447 0.0879 0.0
O32 O 0.13598 0.09072 0.02145 0.0
C33 C 0.25859 0.15358 0.03561 0.0
Co34 Co 0.31444 0.88867 0.04441 0.0
Co35 Co 0.28908 0.84373 0.08931 0.0
C36 C 0.27448 0.90477 0.10026 0.0
O37 O 0.28869 0.90963 0.07601 0.0
O38 O 0.27218 0.87965 0.1096 0.0
C39 C 0.3752 0.93299 0.0384 0.0
O40 O 0.37847 0.92618 0.06448 0.0
C41 C 0.28963 0.81379 0.14177 0.0
C42 C 0.26895 0.77022 0.13001 0.0
C43 C 0.28092 0.787 0.15239 0.0
N44 N 0.28262 0.81298 0.11448 0.0
N45 N 0.27024 0.78687 0.10754 0.0
C46 C 0.30799 0.8393 0.15682 0.0
H47 H 0.3313 0.85224 0.14311 0.0
H48 H 0.32894 0.83304 0.1753 0.0
H49 H 0.27669 0.85248 0.16335 0.0
C50 C 0.4062 0.85735 0.04411 0.0
N51 N 0.36197 0.86221 0.05474 0.0
N52 N 0.35375 0.84432 0.07492 0.0
C53 C 0.39371 0.82801 0.07831 0.0
C54 C 0.42796 0.83578 0.05873 0.0
C55 C 0.42695 0.87253 0.01976 0.0
H56 H 0.39771 0.87854 0.00529 0.0
H57 H 0.44594 0.89191 0.02687 0.0
H58 H 0.45377 0.85922 0.00872 0.0
O59 O 0.26181 0.86871 0.02526 0.0
O60 O 0.24265 0.83735 0.05776 0.0
H61 H 0.37168 0.7878 0.09399 0.0
H62 H 0.43531 0.79559 0.09897 0.0
C63 C 0.3982 0.80473 0.09893 0.0
H64 H 0.3894 0.81303 0.11965 0.0
H65 H 0.26288 0.78041 0.08747 0.0
O66 O 0.3469 0.91875 0.02299 0.0
C67 C 0.23614 0.84803 0.03387 0.0
Co68 Co 0.17722 0.38829 0.45601 0.0
Co69 Co 0.20424 0.34268 0.41166 0.0
C70 C 0.21916 0.40358 0.4004 0.0
O71 O 0.205 0.40874 0.42462 0.0
O72 O 0.22056 0.37842 0.39107 0.0
C73 C 0.11956 0.43492 0.4616 0.0
O74 O 0.12031 0.43051 0.43498 0.0
C75 C 0.20559 0.31197 0.35947 0.0
C76 C 0.22647 0.26867 0.37192 0.0
C77 C 0.21497 0.28507 0.34923 0.0
N78 N 0.21178 0.31158 0.38684 0.0
N79 N 0.22428 0.28563 0.39418 0.0
C80 C 0.18737 0.33718 0.34395 0.0
H81 H 0.16321 0.3501 0.35723 0.0
H82 H 0.16733 0.33057 0.32525 0.0
H83 H 0.21866 0.3505 0.33773 0.0
C84 C 0.08503 0.35745 0.45489 0.0
N85 N 0.12994 0.36185 0.44503 0.0
N86 N 0.13929 0.34321 0.42562 0.0
C87 C 0.09964 0.32662 0.42218 0.0
C88 C 0.06416 0.33526 0.4407 0.0
C89 C 0.06298 0.37343 0.4784 0.0
H90 H 0.09104 0.37838 0.49397 0.0
H91 H 0.0473 0.39349 0.47058 0.0
H92 H 0.03339 0.36125 0.48832 0.0
O93 O 0.22954 0.36849 0.47577 0.0
O94 O 0.25071 0.33735 0.44339 0.0
H95 H 0.12337 0.28593 0.4085 0.0
H96 H 0.0597 0.29286 0.40245 0.0
C97 C 0.09656 0.30233 0.40254 0.0
H98 H 0.10591 0.30974 0.38159 0.0
H99 H 0.23112 0.27947 0.41439 0.0
O100 O 0.14361 0.41846 0.47723 0.0
C101 C 0.25641 0.34823 0.46729 0.0
Co102 Co 0.32259 0.61638 0.4563 0.0
Co103 Co 0.29589 0.65917 0.40947 0.0
C104 C 0.2896 0.5975 0.39977 0.0
O105 O 0.30211 0.59387 0.42452 0.0
O106 O 0.28538 0.6222 0.38967 0.0
C107 C 0.3886 0.57536 0.46412 0.0
O108 O 0.39453 0.58346 0.43853 0.0
C109 C 0.28817 0.68932 0.35651 0.0
C110 C 0.28362 0.73396 0.37006 0.0
C111 C 0.28571 0.71701 0.34683 0.0
N112 N 0.28859 0.69 0.38415 0.0
N113 N 0.28545 0.71674 0.39208 0.0
C114 C 0.28633 0.66249 0.34008 0.0
H115 H 0.25725 0.64867 0.34828 0.0
H116 H 0.32136 0.6511 0.34212 0.0
H117 H 0.27839 0.6664 0.31811 0.0
C118 C 0.41018 0.65119 0.45811 0.0
N119 N 0.36733 0.64461 0.44669 0.0
N120 N 0.35946 0.66109 0.42539 0.0
C121 C 0.39886 0.67786 0.42182 0.0
C122 C 0.43185 0.67219 0.44271 0.0
C123 C 0.43015 0.63777 0.4836 0.0
H124 H 0.40031 0.63039 0.49707 0.0
H125 H 0.45335 0.61951 0.47779 0.0
H126 H 0.453 0.6529 0.49527 0.0
O127 O 0.26652 0.63437 0.47365 0.0
O128 O 0.24623 0.6641 0.43993 0.0
H129 H 0.3847 0.71863 0.40482 0.0
H130 H 0.44346 0.7045 0.3962 0.0
C131 C 0.40467 0.69903 0.39927 0.0
H132 H 0.38919 0.69055 0.37991 0.0
H133 H 0.28531 0.72326 0.41257 0.0
O134 O 0.3566 0.58773 0.47873 0.0
C135 C 0.23916 0.65372 0.46392 0.0
Co136 Co 0.82766 0.88136 0.95885 0.0
Co137 Co 0.79472 0.84029 0.91179 0.0
C138 C 0.79479 0.90205 0.90278 0.0
O139 O 0.80924 0.90474 0.92731 0.0
O140 O 0.7864 0.87773 0.89256 0.0
C141 C 0.89797 0.91995 0.96662 0.0
O142 O 0.90459 0.91064 0.94144 0.0
C143 C 0.78444 0.81067 0.85857 0.0
C144 C 0.77721 0.76611 0.87183 0.0
C145 C 0.78071 0.78307 0.8487 0.0
N146 N 0.78431 0.8099 0.88621 0.0
N147 N 0.77947 0.78321 0.89396 0.0
C148 C 0.78494 0.83758 0.84228 0.0
H149 H 0.75756 0.85239 0.85076 0.0
H150 H 0.82114 0.84769 0.84405 0.0
H151 H 0.77603 0.83396 0.82037 0.0
C152 C 0.91183 0.84383 0.95903 0.0
N153 N 0.86892 0.85174 0.94855 0.0
N154 N 0.85893 0.83629 0.92679 0.0
C155 C 0.89726 0.81904 0.92182 0.0
C156 C 0.9316 0.82314 0.94239 0.0
C157 C 0.93419 0.85621 0.98439 0.0
H158 H 0.90587 0.86505 0.9981 0.0
H159 H 0.95998 0.87319 0.97845 0.0
H160 H 0.95488 0.83993 0.99586 0.0
O161 O 0.77039 0.86524 0.97652 0.0
O162 O 0.74544 0.83663 0.94281 0.0
H163 H 0.88008 0.77973 0.90255 0.0
H164 H 0.93947 0.79311 0.8942 0.0
C165 C 0.90114 0.7992 0.89799 0.0
H166 H 0.88566 0.80919 0.87934 0.0
H167 H 0.77887 0.7766 0.91441 0.0
O168 O 0.86432 0.90904 0.9811 0.0
C169 C 0.74058 0.84706 0.967 0.0
Co170 Co 0.68151 0.11215 0.95705 0.0
Co171 Co 0.70868 0.15725 0.91257 0.0
C172 C 0.72269 0.09605 0.90159 0.0
O173 O 0.70763 0.09112 0.92566 0.0
O174 O 0.72574 0.12122 0.89244 0.0
C175 C 0.61999 0.06809 0.96279 0.0
O176 O 0.61731 0.07478 0.93665 0.0
C177 C 0.71004 0.18695 0.85995 0.0
C178 C 0.72779 0.23092 0.87185 0.0
C179 C 0.71773 0.21385 0.84939 0.0
N180 N 0.71574 0.18796 0.88734 0.0
N181 N 0.72645 0.21431 0.89435 0.0
C182 C 0.69356 0.16116 0.84467 0.0
H183 H 0.66904 0.14833 0.85779 0.0
H184 H 0.67444 0.16701 0.82545 0.0
H185 H 0.72564 0.14804 0.83936 0.0
C186 C 0.59021 0.14378 0.95678 0.0
N187 N 0.63455 0.13876 0.94638 0.0
N188 N 0.64364 0.15692 0.92655 0.0
C189 C 0.60418 0.17368 0.92324 0.0
C190 C 0.56928 0.16577 0.94238 0.0
C191 C 0.56898 0.12881 0.98112 0.0
H192 H 0.59796 0.12279 0.99576 0.0
H193 H 0.54991 0.10945 0.97404 0.0
H194 H 0.54212 0.14227 0.99197 0.0
O195 O 0.73403 0.13189 0.97655 0.0
O196 O 0.75468 0.16334 0.94441 0.0
H197 H 0.62679 0.21444 0.90929 0.0
H198 H 0.56367 0.20661 0.90266 0.0
C199 C 0.60086 0.19759 0.90323 0.0
H200 H 0.61117 0.18999 0.88247 0.0
H201 H 0.73239 0.22099 0.91451 0.0
O202 O 0.64826 0.08224 0.97829 0.0
C203 C 0.76037 0.15244 0.96828 0.0
Co204 Co 0.82183 0.61246 0.54463 0.0
Co205 Co 0.79423 0.65652 0.59023 0.0
C206 C 0.79078 0.59445 0.60124 0.0
O207 O 0.80533 0.59008 0.57694 0.0
O208 O 0.78285 0.61943 0.6101 0.0
C209 C 0.84722 0.55903 0.52177 0.0
O210 O 0.81413 0.54946 0.53881 0.0
C211 C 0.79432 0.68578 0.64339 0.0
C212 C 0.7709 0.72901 0.63216 0.0
C213 C 0.78421 0.71232 0.65432 0.0
N214 N 0.78684 0.68667 0.61613 0.0
N215 N 0.77284 0.71258 0.60954 0.0
C216 C 0.81425 0.66051 0.65812 0.0
H217 H 0.83879 0.64843 0.64433 0.0
H218 H 0.83433 0.66696 0.67686 0.0
H219 H 0.78383 0.64644 0.66417 0.0
C220 C 0.91174 0.64488 0.54424 0.0
N221 N 0.86741 0.6399 0.55452 0.0
N222 N 0.85782 0.65826 0.57415 0.0
C223 C 0.89656 0.67566 0.57697 0.0
C224 C 0.93166 0.66773 0.55792 0.0
C225 C 0.93476 0.62766 0.52188 0.0
H226 H 0.93945 0.60555 0.52913 0.0
H227 H 0.97072 0.63608 0.51575 0.0
H228 H 0.91051 0.6273 0.5037 0.0
O229 O 0.76499 0.63084 0.52815 0.0
O230 O 0.7445 0.66214 0.56036 0.0
H231 H 0.87122 0.71567 0.59159 0.0
H232 H 0.9356 0.70999 0.59638 0.0
C233 C 0.89934 0.69976 0.59684 0.0
H234 H 0.89166 0.69191 0.61787 0.0
H235 H 0.76475 0.71906 0.58957 0.0
O236 O 0.85277 0.58561 0.51897 0.0
C237 C 0.73778 0.65077 0.53682 0.0
Co238 Co 0.67566 0.38604 0.54767 0.0
Co239 Co 0.70335 0.34059 0.59185 0.0
C240 C 0.7154 0.40198 0.60333 0.0
O241 O 0.7 0.40706 0.57938 0.0
O242 O 0.71969 0.37674 0.61208 0.0
C243 C 0.61356 0.42981 0.54161 0.0
O244 O 0.60874 0.42229 0.56744 0.0
C245 C 0.69768 0.30827 0.6436 0.0
C246 C 0.73635 0.26886 0.63267 0.0
C247 C 0.71322 0.28242 0.65434 0.0
N248 N 0.7111 0.30968 0.61702 0.0
N249 N 0.73388 0.28596 0.6106 0.0
C250 C 0.67267 0.33194 0.65847 0.0
H251 H 0.67198 0.35147 0.64602 0.0
H252 H 0.63445 0.32599 0.66252 0.0
H253 H 0.69083 0.3361 0.67841 0.0
C254 C 0.58482 0.35391 0.54734 0.0
N255 N 0.62916 0.35886 0.55775 0.0
N256 N 0.63843 0.34042 0.57731 0.0
C257 C 0.59913 0.32342 0.5803 0.0
C258 C 0.56405 0.33165 0.56141 0.0
C259 C 0.56321 0.36939 0.52342 0.0
H260 H 0.592 0.37599 0.50889 0.0
H261 H 0.5437 0.38841 0.53102 0.0
H262 H 0.53663 0.35602 0.51229 0.0
O263 O 0.72971 0.36721 0.52859 0.0
O264 O 0.75065 0.33542 0.56033 0.0
H265 H 0.62803 0.28498 0.59684 0.0
H266 H 0.56234 0.28653 0.59635 0.0
C267 C 0.59604 0.29894 0.59967 0.0
H268 H 0.59648 0.30698 0.62105 0.0
H269 H 0.74852 0.28165 0.59127 0.0
O270 O 0.64297 0.41609 0.52641 0.0
C271 C 0.75672 0.34692 0.53675 0.0
H272 H 0.02746 0.05395 0.0623 0.0
H273 H 0.97368 0.94521 0.94046 0.0
H274 H 0.10745 0.05272 0.986 0.0
H275 H 0.89339 0.94673 0.01665 0.0
H276 H 0.0235 0.98418 0.95701 0.0
H277 H 0.97812 0.01474 0.04588 0.0
C278 C 0.03462 0.04547 0.04201 0.0
C279 C 0.07171 0.05659 0.02546 0.0
C280 C 0.99506 0.97601 0.97014 0.0
C281 C 0.01528 0.01154 0.0066 0.0
C282 C 0.96657 0.9537 0.96074 0.0
C283 C 0.9292 0.94277 0.97721 0.0
C284 C 0.98617 0.98752 0.99621 0.0
C285 C 0.92179 0.95456 0.0033 0.0
C286 C 0.0064 0.02302 0.03268 0.0
C287 C 0.07923 0.04476 0.9994 0.0
N288 N 0.95001 0.97639 0.01199 0.0
N289 N 0.05124 0.0228 0.99077 0.0
H290 H 0.56193 0.03229 0.93393 0.0
H291 H 0.43231 0.96935 0.06716 0.0
H292 H 0.60015 0.05611 0.0168 0.0
H293 H 0.39466 0.94505 0.98435 0.0
H294 H 0.4929 0.00182 0.04901 0.0
H295 H 0.50082 1.00012 0.95203 0.0
C296 C 0.55763 0.03064 0.95599 0.0
C297 C 0.58608 0.04694 0.97393 0.0
C298 C 0.47133 0.98948 0.03478 0.0
C299 C 0.51586 0.01025 0.99475 0.0
C300 C 0.43662 0.97096 0.0451 0.0
C301 C 0.40854 0.95441 0.02719 0.0
C302 C 0.47817 0.99145 0.00631 0.0
C303 C 0.41548 0.95748 0.99885 0.0
C304 C 0.52261 0.01229 0.96629 0.0
C305 C 0.57908 0.04386 0.00227 0.0
N306 N 0.44984 0.97559 0.98926 0.0
N307 N 0.54446 0.02591 0.01183 0.0
H308 H 0.86551 0.50449 0.53748 0.0
H309 H 0.08848 0.48266 0.43644 0.0
H310 H 0.91555 0.57007 0.4825 0.0
H311 H 0.07117 0.43407 0.51083 0.0
H312 H 0.02139 0.51311 0.45059 0.0
H313 H 0.93521 0.47544 0.52437 0.0
C314 C 0.89073 0.51261 0.52234 0.0
C315 C 0.88476 0.53974 0.51103 0.0
C316 C 0.03259 0.496 0.46398 0.0
C317 C 0.96466 0.50678 0.4963 0.0
C318 C 0.0709 0.47868 0.45598 0.0
C319 C 0.08518 0.45588 0.47253 0.0
C320 C 0.00781 0.49011 0.48846 0.0
C321 C 0.06135 0.45159 0.49761 0.0
C322 C 0.93077 0.49616 0.51516 0.0
C323 C 0.9188 0.54928 0.49172 0.0
N324 N 0.02322 0.46837 0.50469 0.0
N325 N 0.95734 0.53279 0.48494 0.0
H326 H 0.45526 0.54392 0.43644 0.0
H327 H 0.54951 0.46272 0.56979 0.0
H328 H 0.39616 0.55735 0.5176 0.0
H329 H 0.6051 0.44752 0.48814 0.0
H330 H 0.49436 0.4981 0.55122 0.0
H331 H 0.51095 0.50901 0.45519 0.0
C332 C 0.45393 0.5395 0.45826 0.0
C333 C 0.42103 0.55359 0.47554 0.0
C334 C 0.51863 0.48709 0.53735 0.0
C335 C 0.48494 0.51359 0.49712 0.0
C336 C 0.55023 0.46688 0.54792 0.0
C337 C 0.58191 0.45212 0.53044 0.0
C338 C 0.51865 0.4926 0.50907 0.0
C339 C 0.58132 0.45844 0.50234 0.0
C340 C 0.48582 0.51953 0.46893 0.0
C341 C 0.42089 0.54692 0.50357 0.0
N342 N 0.55004 0.47822 0.4925 0.0
N343 N 0.4525 0.52738 0.51353 0.0
H344 H 0.18544 0.92223 0.11811 0.0
H345 H 0.2856 0.08037 0.1271 0.0
H346 H 0.33676 0.94476 0.11828 0.0
H347 H 0.13842 0.05729 0.10764 0.0
H348 H 0.30152 0.03095 0.14052 0.0
H349 H 0.16509 0.97112 0.13117 0.0
C350 C 0.21441 0.93719 0.12211 0.0
C351 C 0.26275 0.92962 0.11727 0.0
C352 C 0.26533 0.03691 0.13411 0.0
C353 C 0.24001 0.98556 0.13126 0.0
C354 C 0.25621 0.06513 0.12672 0.0
C355 C 0.21079 0.0727 0.11615 0.0
C356 C 0.22866 0.01637 0.13089 0.0
C357 C 0.17403 0.05214 0.11558 0.0
C358 C 0.20287 0.96515 0.12924 0.0
C359 C 0.29902 0.94989 0.12199 0.0
N360 N 0.18391 0.02487 0.12245 0.0
N361 N 0.28692 0.97705 0.1283 0.0
H362 H 0.156 0.44077 0.37831 0.0
H363 H 0.3575 0.55895 0.38601 0.0
H364 H 0.30863 0.42366 0.38654 0.0
H365 H 0.20491 0.57667 0.37856 0.0
H366 H 0.34236 0.50973 0.37298 0.0
H367 H 0.17472 0.4896 0.3652 0.0
C368 C 0.19361 0.44707 0.37619 0.0
C369 C 0.23092 0.42824 0.38322 0.0
C370 C 0.31222 0.52445 0.37337 0.0
C371 C 0.25269 0.48435 0.36943 0.0
C372 C 0.32096 0.55261 0.38057 0.0
C373 C 0.28238 0.57178 0.38317 0.0
C374 C 0.2643 0.51519 0.36945 0.0
C375 C 0.23562 0.56253 0.37646 0.0
C376 C 0.20431 0.47502 0.36898 0.0
C377 C 0.27896 0.43751 0.38088 0.0
N378 N 0.2277 0.53469 0.37044 0.0
N379 N 0.28847 0.46508 0.37467 0.0
H380 H 0.71441 0.92024 0.87457 0.0
H381 H 0.81225 0.07895 0.88429 0.0
H382 H 0.8601 0.94414 0.89656 0.0
H383 H 0.66123 0.05577 0.88325 0.0
H384 H 0.83347 0.03007 0.87165 0.0
H385 H 0.69837 0.96961 0.86097 0.0
C386 C 0.74348 0.93566 0.87552 0.0
C387 C 0.78845 0.92834 0.88684 0.0
C388 C 0.79558 0.03589 0.87329 0.0
C389 C 0.77047 0.98457 0.8718 0.0
C390 C 0.78355 0.06385 0.88017 0.0
C391 C 0.73502 0.07123 0.88467 0.0
C392 C 0.75874 0.01532 0.87115 0.0
C393 C 0.6991 0.05078 0.87981 0.0
C394 C 0.73429 0.96384 0.86801 0.0
C395 C 0.82481 0.9491 0.88807 0.0
N396 N 0.71166 0.02364 0.87372 0.0
N397 N 0.81487 0.97632 0.88102 0.0
H398 H 0.65234 0.4408 0.6228 0.0
H399 H 0.85763 0.55492 0.61397 0.0
H400 H 0.80447 0.4205 0.61998 0.0
H401 H 0.70684 0.57565 0.6252 0.0
H402 H 0.841 0.50632 0.62824 0.0
H403 H 0.67248 0.48942 0.63585 0.0
C404 C 0.69002 0.44639 0.62609 0.0
C405 C 0.72686 0.42672 0.62053 0.0
C406 C 0.81163 0.52156 0.62843 0.0
C407 C 0.75042 0.48263 0.63416 0.0
C408 C 0.82125 0.54939 0.62048 0.0
C409 C 0.78352 0.56921 0.6185 0.0
C410 C 0.7636 0.51325 0.63366 0.0
C411 C 0.73692 0.56098 0.62671 0.0
C412 C 0.70157 0.47422 0.63329 0.0
C413 C 0.77509 0.43504 0.62443 0.0
N414 N 0.72802 0.53341 0.63333 0.0
N415 N 0.78555 0.46257 0.63044 0.0
H416 H 0.27592 0.13935 0.98203 0.0
H417 H 0.54241 0.2046 0.98069 0.0
H418 H 0.33572 0.18823 0.04895 0.0
H419 H 0.48564 0.14939 0.9181 0.0
H420 H 0.46106 0.20823 0.00087 0.0
H421 H 0.34651 0.15108 0.95426 0.0
C422 C 0.30379 0.15268 0.99092 0.0
C423 C 0.30009 0.16242 0.01812 0.0
C424 C 0.466 0.19601 0.98224 0.0
C425 C 0.38147 0.17603 0.98616 0.0
C426 C 0.51221 0.19434 0.9705 0.0
C427 C 0.52026 0.17694 0.9476 0.0
C428 C 0.42791 0.17992 0.97106 0.0
C429 C 0.48053 0.16332 0.93556 0.0
C430 C 0.34412 0.15947 0.97494 0.0
C431 C 0.33719 0.17998 0.02822 0.0
N432 N 0.43617 0.16474 0.94767 0.0
N433 N 0.37658 0.18596 0.01234 0.0
H434 H 0.01024 0.84199 0.91465 0.0
H435 H 0.17129 0.80518 0.04484 0.0
H436 H 0.96639 0.78377 0.97792 0.0
H437 H 0.21289 0.8644 0.98149 0.0
H438 H 0.10396 0.78939 0.01598 0.0
H439 H 0.09298 0.84115 0.93279 0.0
C440 C 0.01874 0.82793 0.93156 0.0
C441 C 0.98184 0.81287 0.94484 0.0
C442 C 0.12817 0.8056 0.00827 0.0
C443 C 0.07541 0.81286 0.96662 0.0
C444 C 0.16656 0.81474 0.0248 0.0
C445 C 0.19739 0.83656 0.01585 0.0
C446 C 0.12037 0.81842 0.98259 0.0
C447 C 0.18971 0.84784 0.9895 0.0
C448 C 0.06574 0.82782 0.94225 0.0
C449 C 0.99419 0.79549 0.96707 0.0
N450 N 0.15173 0.83887 0.97398 0.0
N451 N 0.03975 0.79645 0.9777 0.0
H452 H 0.48226 0.34826 0.58755 0.0
H453 H 0.32605 0.30814 0.45571 0.0
H454 H 0.53387 0.29406 0.52269 0.0
H455 H 0.27782 0.3647 0.51995 0.0
H456 H 0.39569 0.29507 0.48409 0.0
H457 H 0.40037 0.34556 0.5683 0.0
C458 C 0.47573 0.33474 0.56993 0.0
C459 C 0.51441 0.32113 0.55677 0.0
C460 C 0.36955 0.31009 0.4921 0.0
C461 C 0.42168 0.31902 0.53378 0.0
C462 C 0.32976 0.31763 0.47587 0.0
C463 C 0.29631 0.33795 0.48521 0.0
C464 C 0.37608 0.32296 0.51789 0.0
C465 C 0.30293 0.34926 0.51166 0.0
C466 C 0.4292 0.33354 0.55866 0.0
C467 C 0.50461 0.30452 0.53356 0.0
N468 N 0.34222 0.34185 0.52689 0.0
N469 N 0.45934 0.30434 0.52246 0.0
H470 H 0.01535 0.65763 0.58542 0.0
H471 H 0.16584 0.69041 0.44942 0.0
H472 H 0.95696 0.70205 0.51574 0.0
H473 H 0.21897 0.64072 0.51749 0.0
H474 H 0.09535 0.70385 0.47713 0.0
H475 H 0.09667 0.66174 0.5655 0.0
C476 C 0.02014 0.66938 0.56651 0.0
C477 C 0.97988 0.67971 0.55221 0.0
C478 C 0.12274 0.69026 0.48608 0.0
C479 C 0.07191 0.68334 0.52861 0.0
C480 C 0.16295 0.6825 0.47023 0.0
C481 C 0.19803 0.66396 0.48092 0.0
C482 C 0.11756 0.67942 0.51281 0.0
C483 C 0.19252 0.65466 0.50815 0.0
C484 C 0.06636 0.67136 0.55489 0.0
C485 C 0.98747 0.69411 0.52743 0.0
N486 N 0.1529 0.66226 0.52302 0.0
N487 N 0.03252 0.69505 0.51611 0.0
H488 H 0.5087 0.85202 0.0859 0.0
H489 H 0.73257 0.85227 0.02264 0.0
H490 H 0.45966 0.79947 0.01926 0.0
H491 H 0.65517 0.82116 0.95178 0.0
H492 H 0.66312 0.84105 0.05125 0.0
H493 H 0.59085 0.84962 0.06795 0.0
C494 C 0.51597 0.83878 0.06817 0.0
C495 C 0.47785 0.82563 0.0542 0.0
C496 C 0.66061 0.83697 0.02946 0.0
C497 C 0.57184 0.82311 0.03274 0.0
C498 C 0.70067 0.84324 0.01305 0.0
C499 C 0.69936 0.83826 0.98461 0.0
C500 C 0.61822 0.82614 0.01733 0.0
C501 C 0.65758 0.82571 0.97353 0.0
C502 C 0.56305 0.83751 0.05765 0.0
C503 C 0.48852 0.80951 0.03078 0.0
N504 N 0.61848 0.82044 0.98986 0.0
N505 N 0.53438 0.80913 0.02048 0.0
H506 H 0.77957 0.13692 0.0214 0.0
H507 H 0.03321 0.21675 0.02414 0.0
H508 H 0.82929 0.19312 0.95735 0.0
H509 H 0.98695 0.15678 0.08529 0.0
H510 H 0.9506 0.21784 0.00566 0.0
H511 H 0.84725 0.15207 0.05005 0.0
C512 C 0.80451 0.15259 0.01337 0.0
C513 C 0.7991 0.16335 0.98665 0.0
C514 C 0.958 0.20512 0.02368 0.0
C515 C 0.87696 0.18088 0.01957 0.0
C516 C 0.00493 0.20491 0.03449 0.0
C517 C 0.01648 0.18679 0.0563 0.0
C518 C 0.92277 0.18679 0.03463 0.0
C519 C 0.97913 0.17123 0.0686 0.0
C520 C 0.84313 0.16133 0.02985 0.0
C521 C 0.83229 0.18394 0.97765 0.0
N522 N 0.93409 0.17113 0.05726 0.0
N523 N 0.87011 0.19177 0.99393 0.0
H524 H 0.71953 0.63561 0.48359 0.0
H525 H 0.46201 0.71133 0.47985 0.0
H526 H 0.66532 0.68916 0.54872 0.0
H527 H 0.5137 0.65371 0.41784 0.0
H528 H 0.54353 0.71278 0.49987 0.0
H529 H 0.65151 0.64993 0.45496 0.0
C530 C 0.69341 0.65047 0.49191 0.0
C531 C 0.69781 0.66079 0.51887 0.0
C532 C 0.53754 0.70051 0.48137 0.0
C533 C 0.6195 0.67741 0.48592 0.0
C534 C 0.49125 0.70009 0.46971 0.0
C535 C 0.48158 0.68254 0.44714 0.0
C536 C 0.57401 0.68298 0.47047 0.0
C537 C 0.52008 0.66772 0.4351 0.0
C538 C 0.65461 0.65876 0.47542 0.0
C539 C 0.66313 0.68038 0.52822 0.0
N540 N 0.56447 0.66785 0.44721 0.0
N541 N 0.62513 0.68779 0.51188 0.0
H542 H 0.98116 0.35145 0.41557 0.0
H543 H 0.82863 0.30804 0.54795 0.0
H544 H 0.03604 0.29713 0.47931 0.0
H545 H 0.77686 0.36388 0.48417 0.0
H546 H 0.89873 0.29633 0.5192 0.0
H547 H 0.89983 0.34755 0.43541 0.0
C548 C 0.97549 0.33768 0.43308 0.0
C549 C 0.01489 0.32432 0.44572 0.0
C550 C 0.87171 0.31089 0.51138 0.0
C551 C 0.92277 0.32085 0.46943 0.0
C552 C 0.83167 0.31764 0.52783 0.0
C553 C 0.79707 0.33737 0.51871 0.0
C554 C 0.87727 0.32396 0.48562 0.0
C555 C 0.80286 0.3489 0.4923 0.0
C556 C 0.92927 0.33578 0.44469 0.0
C557 C 0.0062 0.30738 0.46883 0.0
N558 N 0.84234 0.34225 0.47687 0.0
N559 N 0.96119 0.30653 0.48028 0.0
H560 H 0.18048 0.2349 0.32953 0.0
H561 H 0.26915 0.26171 0.17541 0.0
H562 H 0.24913 0.3125 0.30357 0.0
H563 H 0.16307 0.19829 0.19682 0.0
H564 H 0.26792 0.27869 0.22299 0.0
H565 H 0.18031 0.21855 0.28171 0.0
C566 C 0.19532 0.24852 0.31371 0.0
C567 C 0.21402 0.27528 0.32037 0.0
C568 C 0.24517 0.26092 0.2173 0.0
C569 C 0.2146 0.25664 0.26582 0.0
C570 C 0.24591 0.25122 0.19019 0.0
C571 C 0.21746 0.22792 0.18238 0.0
C572 C 0.21564 0.24726 0.23674 0.0
C573 C 0.18732 0.21543 0.20222 0.0
C574 C 0.19508 0.23924 0.28646 0.0
C575 C 0.2332 0.29203 0.2992 0.0
N576 N 0.18747 0.22511 0.22852 0.0
N577 N 0.23316 0.2824 0.27287 0.0
H578 H 0.24824 0.81508 0.19807 0.0
H579 H 0.34052 0.69741 0.30368 0.0
H580 H 0.31638 0.73718 0.17231 0.0
H581 H 0.23548 0.76144 0.32519 0.0
H582 H 0.33967 0.71447 0.25628 0.0
H583 H 0.25111 0.7987 0.2457 0.0
C584 C 0.26445 0.7947 0.2025 0.0
C585 C 0.2829 0.77764 0.18133 0.0
C586 C 0.31647 0.72462 0.27131 0.0
C587 C 0.28559 0.75858 0.23566 0.0
C588 C 0.31652 0.7147 0.2983 0.0
C589 C 0.28653 0.72732 0.31813 0.0
C590 C 0.28704 0.74777 0.26423 0.0
C591 C 0.2585 0.75081 0.3104 0.0
C592 C 0.26562 0.78524 0.22965 0.0
C593 C 0.30198 0.751 0.1881 0.0
N594 N 0.25929 0.76023 0.28402 0.0
N595 N 0.30312 0.74234 0.21472 0.0
H596 H 0.7531 0.68343 0.69986 0.0
H597 H 0.83746 0.80245 0.80623 0.0
H598 H 0.8169 0.76265 0.67453 0.0
H599 H 0.73132 0.73861 0.82636 0.0
H600 H 0.83889 0.78509 0.75893 0.0
H601 H 0.75388 0.70003 0.74753 0.0
C602 C 0.76796 0.70415 0.7044 0.0
C603 C 0.78571 0.72155 0.68333 0.0
C604 C 0.81492 0.77507 0.77363 0.0
C605 C 0.78605 0.74081 0.73767 0.0
C606 C 0.81361 0.78519 0.80056 0.0
C607 C 0.78264 0.77272 0.81998 0.0
C608 C 0.78597 0.75183 0.7662 0.0
C609 C 0.75503 0.74916 0.81189 0.0
C610 C 0.76793 0.71372 0.73155 0.0
C611 C 0.80309 0.74856 0.69023 0.0
N612 N 0.75722 0.73951 0.78559 0.0
N613 N 0.80311 0.75732 0.71684 0.0
H614 H 0.64446 0.293 0.69505 0.0
H615 H 0.75763 0.18749 0.80477 0.0
H616 H 0.77527 0.24539 0.67905 0.0
H617 H 0.67517 0.26125 0.82839 0.0
H618 H 0.75493 0.20333 0.75685 0.0
H619 H 0.64596 0.27668 0.74237 0.0
C620 C 0.67417 0.27971 0.70142 0.0
C621 C 0.71098 0.27163 0.68303 0.0
C622 C 0.73733 0.21598 0.77253 0.0
C623 C 0.71117 0.2515 0.73717 0.0
C624 C 0.73852 0.20687 0.79978 0.0
C625 C 0.71608 0.22297 0.8204 0.0
C626 C 0.71299 0.24119 0.76586 0.0
C627 C 0.6928 0.24825 0.81301 0.0
C628 C 0.67453 0.27004 0.7285 0.0
C629 C 0.74642 0.25254 0.69247 0.0
N630 N 0.69149 0.2565 0.78626 0.0
N631 N 0.74568 0.24315 0.71886 0.0
loop_
_geom_bond_atom_site_label_1
_geom_bond_atom_site_label_2
_geom_bond_distance
_geom_bond_site_symmetry_2
_ccdc_geom_bond_type
Co0 O3 1.970 . S
Co0 N17 1.989 . S
Co0 O25 1.967 . S
Co0 O32 1.920 . S
Co1 O4 1.966 . S
Co1 N10 2.022 . S
Co1 N18 1.993 . S
Co1 O26 1.941 . S
C2 O3 1.258 . S
C2 O4 1.263 . S
O3 Co0 1.970 . S
O3 C2 1.258 . S
O4 Co1 1.966 . S
O4 C2 1.263 . S
C5 O6 1.235 . S
C5 O32 1.289 . S
O6 C5 1.235 . S
C7 C9 1.400 . S
C7 N10 1.351 . S
C7 C12 1.501 . S
C8 C9 1.387 . S
C8 N11 1.341 . S
C9 C7 1.400 . S
C9 C8 1.387 . S
N10 Co1 2.022 . S
N10 C7 1.351 . S
N10 N11 1.365 . S
N11 C8 1.341 . S
N11 N10 1.365 . S
N11 H31 0.862 . S
C12 C7 1.501 . S
C12 H13 0.961 . S
C12 H14 0.961 . S
C12 H15 0.960 . S
H13 C12 0.961 . S
H14 C12 0.961 . S
H15 C12 0.960 . S
C16 N17 1.342 . S
C16 C20 1.401 1_455 S
C16 C21 1.499 1_455 S
N17 Co0 1.989 . S
N17 C16 1.342 . S
N17 N18 1.388 . S
N18 Co1 1.993 . S
N18 N17 1.388 . S
N18 C19 1.346 . S
C19 N18 1.346 . S
C19 C20 1.396 1_455 S
C19 C29 1.510 . S
C20 C16 1.401 1_655 S
C20 C19 1.396 1_655 S
C21 C16 1.499 1_655 S
C21 H22 0.959 1_655 S
C21 H23 0.960 . S
C21 H24 0.961 . S
H22 C21 0.959 1_455 S
H23 C21 0.960 . S
H24 C21 0.961 . S
O25 Co0 1.967 . S
O25 C33 1.258 . S
O26 Co1 1.941 . S
O26 C33 1.266 . S
H27 C29 0.959 . S
H28 C29 0.961 1_655 S
C29 C19 1.510 . S
C29 H27 0.959 . S
C29 H28 0.961 1_455 S
C29 H30 0.960 . S
H30 C29 0.960 . S
H31 N11 0.862 . S
O32 Co0 1.920 . S
O32 C5 1.289 . S
C33 O25 1.258 . S
C33 O26 1.266 . S
Co34 O37 1.970 . S
Co34 N51 1.989 . S
Co34 O59 1.967 . S
Co34 O66 1.920 . S
Co35 O38 1.966 . S
Co35 N44 2.022 . S
Co35 N52 1.993 . S
Co35 O60 1.941 . S
C36 O37 1.258 . S
C36 O38 1.263 . S
O37 Co34 1.970 . S
O37 C36 1.258 . S
O38 Co35 1.966 . S
O38 C36 1.263 . S
C39 O40 1.235 . S
C39 O66 1.289 . S
O40 C39 1.235 . S
C41 C43 1.400 . S
C41 N44 1.351 . S
C41 C46 1.501 . S
C42 C43 1.387 . S
C42 N45 1.341 . S
C43 C41 1.400 . S
C43 C42 1.387 . S
N44 Co35 2.022 . S
N44 C41 1.351 . S
N44 N45 1.365 . S
N45 C42 1.341 . S
N45 N44 1.365 . S
N45 H65 0.862 . S
C46 C41 1.501 . S
C46 H47 0.961 . S
C46 H48 0.961 . S
C46 H49 0.960 . S
H47 C46 0.961 . S
H48 C46 0.961 . S
H49 C46 0.960 . S
C50 N51 1.342 . S
C50 C54 1.401 . S
C50 C55 1.499 . S
N51 Co34 1.989 . S
N51 C50 1.342 . S
N51 N52 1.388 . S
N52 Co35 1.993 . S
N52 N51 1.388 . S
N52 C53 1.346 . S
C53 N52 1.346 . S
C53 C54 1.396 . S
C53 C63 1.510 . S
C54 C50 1.401 . S
C54 C53 1.396 . S
C55 C50 1.499 . S
C55 H56 0.959 . S
C55 H57 0.960 . S
C55 H58 0.961 . S
H56 C55 0.959 . S
H57 C55 0.960 . S
H58 C55 0.961 . S
O59 Co34 1.967 . S
O59 C67 1.258 . S
O60 Co35 1.941 . S
O60 C67 1.266 . S
H61 C63 0.959 . S
H62 C63 0.961 . S
C63 C53 1.510 . S
C63 H61 0.959 . S
C63 H62 0.961 . S
C63 H64 0.960 . S
H64 C63 0.960 . S
H65 N45 0.862 . S
O66 Co34 1.920 . S
O66 C39 1.289 . S
C67 O59 1.258 . S
C67 O60 1.266 . S
Co68 O71 1.970 . S
Co68 N85 1.989 . S
Co68 O93 1.967 . S
Co68 O100 1.920 . S
Co69 O72 1.966 . S
Co69 N78 2.022 . S
Co69 N86 1.993 . S
Co69 O94 1.941 . S
C70 O71 1.258 . S
C70 O72 1.263 . S
O71 Co68 1.970 . S
O71 C70 1.258 . S
O72 Co69 1.966 . S
O72 C70 1.263 . S
C73 O74 1.235 . S
C73 O100 1.289 . S
O74 C73 1.235 . S
C75 C77 1.400 . S
C75 N78 1.351 . S
C75 C80 1.501 . S
C76 C77 1.387 . S
C76 N79 1.341 . S
C77 C75 1.400 . S
C77 C76 1.387 . S
N78 Co69 2.022 . S
N78 C75 1.351 . S
N78 N79 1.365 . S
N79 C76 1.341 . S
N79 N78 1.365 . S
N79 H99 0.862 . S
C80 C75 1.501 . S
C80 H81 0.961 . S
C80 H82 0.961 . S
C80 H83 0.960 . S
H81 C80 0.961 . S
H82 C80 0.961 . S
H83 C80 0.960 . S
C84 N85 1.342 . S
C84 C88 1.401 1_455 S
C84 C89 1.499 1_455 S
N85 Co68 1.989 . S
N85 C84 1.342 . S
N85 N86 1.388 . S
N86 Co69 1.993 . S
N86 N85 1.388 . S
N86 C87 1.346 . S
C87 N86 1.346 . S
C87 C88 1.396 1_455 S
C87 C97 1.510 . S
C88 C84 1.401 1_655 S
C88 C87 1.396 1_655 S
C89 C84 1.499 1_655 S
C89 H90 0.959 1_655 S
C89 H91 0.960 . S
C89 H92 0.961 . S
H90 C89 0.959 1_455 S
H91 C89 0.960 . S
H92 C89 0.961 . S
O93 Co68 1.967 . S
O93 C101 1.258 . S
O94 Co69 1.941 . S
O94 C101 1.266 . S
H95 C97 0.959 . S
H96 C97 0.961 1_655 S
C97 C87 1.510 . S
C97 H95 0.959 . S
C97 H96 0.961 1_455 S
C97 H98 0.960 . S
H98 C97 0.960 . S
H99 N79 0.862 . S
O100 Co68 1.920 . S
O100 C73 1.289 . S
C101 O93 1.258 . S
C101 O94 1.266 . S
Co102 O105 1.970 . S
Co102 N119 1.989 . S
Co102 O127 1.967 . S
Co102 O134 1.920 . S
Co103 O106 1.966 . S
Co103 N112 2.022 . S
Co103 N120 1.993 . S
Co103 O128 1.941 . S
C104 O105 1.258 . S
C104 O106 1.263 . S
O105 Co102 1.970 . S
O105 C104 1.258 . S
O106 Co103 1.966 . S
O106 C104 1.263 . S
C107 O108 1.235 . S
C107 O134 1.289 . S
O108 C107 1.235 . S
C109 C111 1.400 . S
C109 N112 1.351 . S
C109 C114 1.501 . S
C110 C111 1.387 . S
C110 N113 1.341 . S
C111 C109 1.400 . S
C111 C110 1.387 . S
N112 Co103 2.022 . S
N112 C109 1.351 . S
N112 N113 1.365 . S
N113 C110 1.341 . S
N113 N112 1.365 . S
N113 H133 0.862 . S
C114 C109 1.501 . S
C114 H115 0.961 . S
C114 H116 0.961 . S
C114 H117 0.960 . S
H115 C114 0.961 . S
H116 C114 0.961 . S
H117 C114 0.960 . S
C118 N119 1.342 . S
C118 C122 1.401 . S
C118 C123 1.499 . S
N119 Co102 1.989 . S
N119 C118 1.342 . S
N119 N120 1.388 . S
N120 Co103 1.993 . S
N120 N119 1.388 . S
N120 C121 1.346 . S
C121 N120 1.346 . S
C121 C122 1.396 . S
C121 C131 1.510 . S
C122 C118 1.401 . S
C122 C121 1.396 . S
C123 C118 1.499 . S
C123 H124 0.959 . S
C123 H125 0.960 . S
C123 H126 0.961 . S
H124 C123 0.959 . S
H125 C123 0.960 . S
H126 C123 0.961 . S
O127 Co102 1.967 . S
O127 C135 1.258 . S
O128 Co103 1.941 . S
O128 C135 1.266 . S
H129 C131 0.959 . S
H130 C131 0.961 . S
C131 C121 1.510 . S
C131 H129 0.959 . S
C131 H130 0.961 . S
C131 H132 0.960 . S
H132 C131 0.960 . S
H133 N113 0.862 . S
O134 Co102 1.920 . S
O134 C107 1.289 . S
C135 O127 1.258 . S
C135 O128 1.266 . S
Co136 O139 1.970 . S
Co136 N153 1.989 . S
Co136 O161 1.967 . S
Co136 O168 1.920 . S
Co137 O140 1.966 . S
Co137 N146 2.022 . S
Co137 N154 1.993 . S
Co137 O162 1.941 . S
C138 O139 1.258 . S
C138 O140 1.263 . S
O139 Co136 1.970 . S
O139 C138 1.258 . S
O140 Co137 1.966 . S
O140 C138 1.263 . S
C141 O142 1.235 . S
C141 O168 1.289 . S
O142 C141 1.235 . S
C143 C145 1.400 . S
C143 N146 1.351 . S
C143 C148 1.501 . S
C144 C145 1.387 . S
C144 N147 1.341 . S
C145 C143 1.400 . S
C145 C144 1.387 . S
N146 Co137 2.022 . S
N146 C143 1.351 . S
N146 N147 1.365 . S
N147 C144 1.341 . S
N147 N146 1.365 . S
N147 H167 0.862 . S
C148 C143 1.501 . S
C148 H149 0.961 . S
C148 H150 0.961 . S
C148 H151 0.960 . S
H149 C148 0.961 . S
H150 C148 0.961 . S
H151 C148 0.960 . S
C152 N153 1.342 . S
C152 C156 1.401 1_655 S
C152 C157 1.499 1_655 S
N153 Co136 1.989 . S
N153 C152 1.342 . S
N153 N154 1.388 . S
N154 Co137 1.993 . S
N154 N153 1.388 . S
N154 C155 1.346 . S
C155 N154 1.346 . S
C155 C156 1.396 1_655 S
C155 C165 1.510 . S
C156 C152 1.401 1_455 S
C156 C155 1.396 1_455 S
C157 C152 1.499 1_455 S
C157 H158 0.959 1_455 S
C157 H159 0.960 . S
C157 H160 0.961 . S
H158 C157 0.959 1_655 S
H159 C157 0.960 . S
H160 C157 0.961 . S
O161 Co136 1.967 . S
O161 C169 1.258 . S
O162 Co137 1.941 . S
O162 C169 1.266 . S
H163 C165 0.959 . S
H164 C165 0.961 1_455 S
C165 C155 1.510 . S
C165 H163 0.959 . S
C165 H164 0.961 1_655 S
C165 H166 0.960 . S
H166 C165 0.960 . S
H167 N147 0.862 . S
O168 Co136 1.920 . S
O168 C141 1.289 . S
C169 O161 1.258 . S
C169 O162 1.266 . S
Co170 O173 1.970 . S
Co170 N187 1.989 . S
Co170 O195 1.967 . S
Co170 O202 1.920 . S
Co171 O174 1.966 . S
Co171 N180 2.022 . S
Co171 N188 1.993 . S
Co171 O196 1.941 . S
C172 O173 1.258 . S
C172 O174 1.263 . S
O173 Co170 1.970 . S
O173 C172 1.258 . S
O174 Co171 1.966 . S
O174 C172 1.263 . S
C175 O176 1.235 . S
C175 O202 1.289 . S
O176 C175 1.235 . S
C177 C179 1.400 . S
C177 N180 1.351 . S
C177 C182 1.501 . S
C178 C179 1.387 . S
C178 N181 1.341 . S
C179 C177 1.400 . S
C179 C178 1.387 . S
N180 Co171 2.022 . S
N180 C177 1.351 . S
N180 N181 1.365 . S
N181 C178 1.341 . S
N181 N180 1.365 . S
N181 H201 0.862 . S
C182 C177 1.501 . S
C182 H183 0.961 . S
C182 H184 0.961 . S
C182 H185 0.960 . S
H183 C182 0.961 . S
H184 C182 0.961 . S
H185 C182 0.960 . S
C186 N187 1.342 . S
C186 C190 1.401 . S
C186 C191 1.499 . S
N187 Co170 1.989 . S
N187 C186 1.342 . S
N187 N188 1.388 . S
N188 Co171 1.993 . S
N188 N187 1.388 . S
N188 C189 1.346 . S
C189 N188 1.346 . S
C189 C190 1.396 . S
C189 C199 1.510 . S
C190 C186 1.401 . S
C190 C189 1.396 . S
C191 C186 1.499 . S
C191 H192 0.959 . S
C191 H193 0.960 . S
C191 H194 0.961 . S
H192 C191 0.959 . S
H193 C191 0.960 . S
H194 C191 0.961 . S
O195 Co170 1.967 . S
O195 C203 1.258 . S
O196 Co171 1.941 . S
O196 C203 1.266 . S
H197 C199 0.959 . S
H198 C199 0.961 . S
C199 C189 1.510 . S
C199 H197 0.959 . S
C199 H198 0.961 . S
C199 H200 0.960 . S
H200 C199 0.960 . S
H201 N181 0.862 . S
O202 Co170 1.920 . S
O202 C175 1.289 . S
C203 O195 1.258 . S
C203 O196 1.266 . S
Co204 O207 1.970 . S
Co204 N221 1.989 . S
Co204 O229 1.967 . S
Co204 O236 1.920 . S
Co205 O208 1.966 . S
Co205 N214 2.022 . S
Co205 N222 1.993 . S
Co205 O230 1.941 . S
C206 O207 1.258 . S
C206 O208 1.263 . S
O207 Co204 1.970 . S
O207 C206 1.258 . S
O208 Co205 1.966 . S
O208 C206 1.263 . S
C209 O210 1.235 . S
C209 O236 1.289 . S
O210 C209 1.235 . S
C211 C213 1.400 . S
C211 N214 1.351 . S
C211 C216 1.501 . S
C212 C213 1.387 . S
C212 N215 1.341 . S
C213 C211 1.400 . S
C213 C212 1.387 . S
N214 Co205 2.022 . S
N214 C211 1.351 . S
N214 N215 1.365 . S
N215 C212 1.341 . S
N215 N214 1.365 . S
N215 H235 0.862 . S
C216 C211 1.501 . S
C216 H217 0.961 . S
C216 H218 0.961 . S
C216 H219 0.960 . S
H217 C216 0.961 . S
H218 C216 0.961 . S
H219 C216 0.960 . S
C220 N221 1.342 . S
C220 C224 1.401 1_655 S
C220 C225 1.499 1_655 S
N221 Co204 1.989 . S
N221 C220 1.342 . S
N221 N222 1.388 . S
N222 Co205 1.993 . S
N222 N221 1.388 . S
N222 C223 1.346 . S
C223 N222 1.346 . S
C223 C224 1.396 1_655 S
C223 C233 1.510 . S
C224 C220 1.401 1_455 S
C224 C223 1.396 1_455 S
C225 C220 1.499 1_455 S
C225 H226 0.959 1_455 S
C225 H227 0.960 . S
C225 H228 0.961 . S
H226 C225 0.959 1_655 S
H227 C225 0.960 . S
H228 C225 0.961 . S
O229 Co204 1.967 . S
O229 C237 1.258 . S
O230 Co205 1.941 . S
O230 C237 1.266 . S
H231 C233 0.959 . S
H232 C233 0.961 1_455 S
C233 C223 1.510 . S
C233 H231 0.959 . S
C233 H232 0.961 1_655 S
C233 H234 0.960 . S
H234 C233 0.960 . S
H235 N215 0.862 . S
O236 Co204 1.920 . S
O236 C209 1.289 . S
C237 O229 1.258 . S
C237 O230 1.266 . S
Co238 O241 1.970 . S
Co238 N255 1.989 . S
Co238 O263 1.967 . S
Co238 O270 1.920 . S
Co239 O242 1.966 . S
Co239 N248 2.022 . S
Co239 N256 1.993 . S
Co239 O264 1.941 . S
C240 O241 1.258 . S
C240 O242 1.263 . S
O241 Co238 1.970 . S
O241 C240 1.258 . S
O242 Co239 1.966 . S
O242 C240 1.263 . S
C243 O244 1.235 . S
C243 O270 1.289 . S
O244 C243 1.235 . S
C245 C247 1.400 . S
C245 N248 1.351 . S
C245 C250 1.501 . S
C246 C247 1.387 . S
C246 N249 1.341 . S
C247 C245 1.400 . S
C247 C246 1.387 . S
N248 Co239 2.022 . S
N248 C245 1.351 . S
N248 N249 1.365 . S
N249 C246 1.341 . S
N249 N248 1.365 . S
N249 H269 0.862 . S
C250 C245 1.501 . S
C250 H251 0.961 . S
C250 H252 0.961 . S
C250 H253 0.960 . S
H251 C250 0.961 . S
H252 C250 0.961 . S
H253 C250 0.960 . S
C254 N255 1.342 . S
C254 C258 1.401 . S
C254 C259 1.499 . S
N255 Co238 1.989 . S
N255 C254 1.342 . S
N255 N256 1.388 . S
N256 Co239 1.993 . S
N256 N255 1.388 . S
N256 C257 1.346 . S
C257 N256 1.346 . S
C257 C258 1.396 . S
C257 C267 1.510 . S
C258 C254 1.401 . S
C258 C257 1.396 . S
C259 C254 1.499 . S
C259 H260 0.959 . S
C259 H261 0.960 . S
C259 H262 0.961 . S
H260 C259 0.959 . S
H261 C259 0.960 . S
H262 C259 0.961 . S
O263 Co238 1.967 . S
O263 C271 1.258 . S
O264 Co239 1.941 . S
O264 C271 1.266 . S
H265 C267 0.959 . S
H266 C267 0.961 . S
C267 C257 1.510 . S
C267 H265 0.959 . S
C267 H266 0.961 . S
C267 H268 0.960 . S
H268 C267 0.960 . S
H269 N249 0.862 . S
O270 Co238 1.920 . S
O270 C243 1.289 . S
C271 O263 1.258 . S
C271 O264 1.266 . S
H272 C278 0.930 . S
H273 C282 0.930 . S
H274 C287 0.929 . S
H275 C285 0.929 . S
H276 C280 0.929 . S
H277 C286 0.929 . S
C278 H272 0.930 . S
C278 C279 1.367 . S
C278 C286 1.378 . S
C279 C278 1.367 . S
C279 C287 1.433 1_554 S
C280 H276 0.929 . S
C280 C282 1.378 . S
C280 C284 1.350 . S
C281 C284 1.463 1_444 S
C281 C286 1.350 . S
C281 N289 1.427 1_554 S
C282 H273 0.930 . S
C282 C280 1.378 . S
C282 C283 1.367 . S
C283 C282 1.367 . S
C283 C285 1.433 1_556 S
C284 C280 1.350 . S
C284 C281 1.463 1_666 S
C284 N288 1.427 1_556 S
C285 H275 0.929 . S
C285 C283 1.433 1_554 S
C285 N288 1.384 . S
C286 H277 0.929 . S
C286 C278 1.378 . S
C286 C281 1.350 . S
C287 H274 0.929 . S
C287 C279 1.433 1_556 S
C287 N289 1.384 . S
N288 C284 1.427 1_554 S
N288 C285 1.384 . S
N289 C281 1.427 1_556 S
N289 C287 1.384 . S
H290 C296 0.930 . S
H291 C300 0.930 . S
H292 C305 0.929 . S
H293 C303 0.929 . S
H294 C298 0.929 . S
H295 C304 0.929 . S
C296 H290 0.930 . S
C296 C297 1.367 . S
C296 C304 1.378 . S
C297 C296 1.367 . S
C297 C305 1.433 1_556 S
C298 H294 0.929 . S
C298 C300 1.378 . S
C298 C302 1.350 . S
C299 C302 1.463 1_546 S
C299 C304 1.350 . S
C299 N307 1.427 1_556 S
C300 H291 0.930 . S
C300 C298 1.378 . S
C300 C301 1.367 . S
C301 C300 1.367 . S
C301 C303 1.433 1_554 S
C302 C298 1.350 . S
C302 C299 1.463 1_564 S
C302 N306 1.427 1_554 S
C303 H293 0.929 . S
C303 C301 1.433 1_556 S
C303 N306 1.384 . S
C304 H295 0.929 . S
C304 C296 1.378 . S
C304 C299 1.350 . S
C305 H292 0.929 . S
C305 C297 1.433 1_554 S
C305 N307 1.384 . S
N306 C302 1.427 1_556 S
N306 C303 1.384 . S
N307 C299 1.427 1_554 S
N307 C305 1.384 . S
H308 C314 0.930 . S
H309 C318 0.930 . S
H310 C323 0.929 1_455 S
H311 C321 0.929 1_655 S
H312 C316 0.929 . S
H313 C322 0.929 . S
C314 H308 0.930 . S
C314 C315 1.367 . S
C314 C322 1.378 . S
C315 C314 1.367 . S
C315 C323 1.433 . S
C316 H312 0.929 . S
C316 C318 1.378 . S
C316 C320 1.350 . S
C317 C320 1.463 1_655 S
C317 C322 1.350 . S
C317 N325 1.427 1_655 S
C318 H309 0.930 . S
C318 C316 1.378 . S
C318 C319 1.367 . S
C319 C318 1.367 . S
C319 C321 1.433 . S
C320 C316 1.350 . S
C320 C317 1.463 1_455 S
C320 N324 1.427 1_455 S
C321 H311 0.929 1_455 S
C321 C319 1.433 . S
C321 N324 1.384 1_455 S
C322 H313 0.929 . S
C322 C314 1.378 . S
C322 C317 1.350 . S
C323 H310 0.929 1_655 S
C323 C315 1.433 . S
C323 N325 1.384 1_655 S
N324 C320 1.427 1_655 S
N324 C321 1.384 1_655 S
N325 C317 1.427 1_455 S
N325 C323 1.384 1_455 S
H326 C332 0.930 . S
H327 C336 0.930 . S
H328 C341 0.929 . S
H329 C339 0.929 . S
H330 C334 0.929 . S
H331 C340 0.929 . S
C332 H326 0.930 . S
C332 C333 1.367 . S
C332 C340 1.378 . S
C333 C332 1.367 . S
C333 C341 1.433 . S
C334 H330 0.929 . S
C334 C336 1.378 . S
C334 C338 1.350 . S
C335 C338 1.463 . S
C335 C340 1.350 . S
C335 N343 1.427 . S
C336 H327 0.930 . S
C336 C334 1.378 . S
C336 C337 1.367 . S
C337 C336 1.367 . S
C337 C339 1.433 . S
C338 C334 1.350 . S
C338 C335 1.463 . S
C338 N342 1.427 . S
C339 H329 0.929 . S
C339 C337 1.433 . S
C339 N342 1.384 . S
C340 H331 0.929 . S
C340 C332 1.378 . S
C340 C335 1.350 . S
C341 H328 0.929 . S
C341 C333 1.433 . S
C341 N343 1.384 . S
N342 C338 1.427 . S
N342 C339 1.384 . S
N343 C335 1.427 . S
N343 C341 1.384 . S
H344 C350 0.930 . S
H345 C354 0.930 . S
H346 C359 0.929 . S
H347 C357 0.929 . S
H348 C352 0.929 . S
H349 C358 0.929 . S
C350 H344 0.930 . S
C350 C351 1.367 . S
C350 C358 1.378 . S
C351 C350 1.367 . S
C351 C359 1.433 . S
C352 H348 0.929 . S
C352 C354 1.378 . S
C352 C356 1.350 . S
C353 C356 1.463 1_565 S
C353 C358 1.350 . S
C353 N361 1.427 . S
C354 H345 0.930 . S
C354 C352 1.378 . S
C354 C355 1.367 . S
C355 C354 1.367 . S
C355 C357 1.433 . S
C356 C352 1.350 . S
C356 C353 1.463 1_545 S
C356 N360 1.427 . S
C357 H347 0.929 . S
C357 C355 1.433 . S
C357 N360 1.384 . S
C358 H349 0.929 . S
C358 C350 1.378 . S
C358 C353 1.350 . S
C359 H346 0.929 . S
C359 C351 1.433 . S
C359 N361 1.384 . S
N360 C356 1.427 . S
N360 C357 1.384 . S
N361 C353 1.427 . S
N361 C359 1.384 . S
H362 C368 0.930 . S
H363 C372 0.930 . S
H364 C377 0.929 . S
H365 C375 0.929 . S
H366 C370 0.929 . S
H367 C376 0.929 . S
C368 H362 0.930 . S
C368 C369 1.367 . S
C368 C376 1.378 . S
C369 C368 1.367 . S
C369 C377 1.433 . S
C370 H366 0.929 . S
C370 C372 1.378 . S
C370 C374 1.350 . S
C371 C374 1.463 . S
C371 C376 1.350 . S
C371 N379 1.427 . S
C372 H363 0.930 . S
C372 C370 1.378 . S
C372 C373 1.367 . S
C373 C372 1.367 . S
C373 C375 1.433 . S
C374 C370 1.350 . S
C374 C371 1.463 . S
C374 N378 1.427 . S
C375 H365 0.929 . S
C375 C373 1.433 . S
C375 N378 1.384 . S
C376 H367 0.929 . S
C376 C368 1.378 . S
C376 C371 1.350 . S
C377 H364 0.929 . S
C377 C369 1.433 . S
C377 N379 1.384 . S
N378 C374 1.427 . S
N378 C375 1.384 . S
N379 C371 1.427 . S
N379 C377 1.384 . S
H380 C386 0.930 . S
H381 C390 0.930 . S
H382 C395 0.929 . S
H383 C393 0.929 . S
H384 C388 0.929 . S
H385 C394 0.929 . S
C386 H380 0.930 . S
C386 C387 1.367 . S
C386 C394 1.378 . S
C387 C386 1.367 . S
C387 C395 1.433 . S
C388 H384 0.929 . S
C388 C390 1.378 . S
C388 C392 1.350 . S
C389 C392 1.463 1_565 S
C389 C394 1.350 . S
C389 N397 1.427 . S
C390 H381 0.930 . S
C390 C388 1.378 . S
C390 C391 1.367 . S
C391 C390 1.367 . S
C391 C393 1.433 . S
C392 C388 1.350 . S
C392 C389 1.463 1_545 S
C392 N396 1.427 . S
C393 H383 0.929 . S
C393 C391 1.433 . S
C393 N396 1.384 . S
C394 H385 0.929 . S
C394 C386 1.378 . S
C394 C389 1.350 . S
C395 H382 0.929 . S
C395 C387 1.433 . S
C395 N397 1.384 . S
N396 C392 1.427 . S
N396 C393 1.384 . S
N397 C389 1.427 . S
N397 C395 1.384 . S
H398 C404 0.930 . S
H399 C408 0.930 . S
H400 C413 0.929 . S
H401 C411 0.929 . S
H402 C406 0.929 . S
H403 C412 0.929 . S
C404 H398 0.930 . S
C404 C405 1.367 . S
C404 C412 1.378 . S
C405 C404 1.367 . S
C405 C413 1.433 . S
C406 H402 0.929 . S
C406 C408 1.378 . S
C406 C410 1.350 . S
C407 C410 1.463 . S
C407 C412 1.350 . S
C407 N415 1.427 . S
C408 H399 0.930 . S
C408 C406 1.378 . S
C408 C409 1.367 . S
C409 C408 1.367 . S
C409 C411 1.433 . S
C410 C406 1.350 . S
C410 C407 1.463 . S
C410 N414 1.427 . S
C411 H401 0.929 . S
C411 C409 1.433 . S
C411 N414 1.384 . S
C412 H403 0.929 . S
C412 C404 1.378 . S
C412 C407 1.350 . S
C413 H400 0.929 . S
C413 C405 1.433 . S
C413 N415 1.384 . S
N414 C410 1.427 . S
N414 C411 1.384 . S
N415 C407 1.427 . S
N415 C413 1.384 . S
H416 C422 0.930 . S
H417 C426 0.930 . S
H418 C431 0.929 . S
H419 C429 0.929 . S
H420 C424 0.929 . S
H421 C430 0.929 . S
C422 H416 0.930 . S
C422 C423 1.367 . S
C422 C430 1.378 1_554 S
C423 C422 1.367 . S
C423 C431 1.433 . S
C424 H420 0.929 . S
C424 C426 1.378 . S
C424 C428 1.350 . S
C425 C428 1.463 . S
C425 C430 1.350 . S
C425 N433 1.427 1_556 S
C426 H417 0.930 . S
C426 C424 1.378 . S
C426 C427 1.367 . S
C427 C426 1.367 . S
C427 C429 1.433 . S
C428 C424 1.350 . S
C428 C425 1.463 . S
C428 N432 1.427 . S
C429 H419 0.929 . S
C429 C427 1.433 . S
C429 N432 1.384 . S
C430 H421 0.929 . S
C430 C422 1.378 1_556 S
C430 C425 1.350 . S
C431 H418 0.929 . S
C431 C423 1.433 . S
C431 N433 1.384 . S
N432 C428 1.427 . S
N432 C429 1.384 . S
N433 C425 1.427 1_554 S
N433 C431 1.384 . S
H434 C440 0.930 . S
H435 C444 0.930 . S
H436 C449 0.929 . S
H437 C447 0.929 . S
H438 C442 0.929 . S
H439 C448 0.929 . S
C440 H434 0.930 . S
C440 C441 1.367 . S
C440 C448 1.378 . S
C441 C440 1.367 . S
C441 C449 1.433 . S
C442 H438 0.929 . S
C442 C444 1.378 . S
C442 C446 1.350 1_554 S
C443 C446 1.463 . S
C443 C448 1.350 . S
C443 N451 1.427 . S
C444 H435 0.930 . S
C444 C442 1.378 . S
C444 C445 1.367 . S
C445 C444 1.367 . S
C445 C447 1.433 1_554 S
C446 C442 1.350 1_556 S
C446 C443 1.463 . S
C446 N450 1.427 . S
C447 H437 0.929 . S
C447 C445 1.433 1_556 S
C447 N450 1.384 . S
C448 H439 0.929 . S
C448 C440 1.378 . S
C448 C443 1.350 . S
C449 H436 0.929 . S
C449 C441 1.433 . S
C449 N451 1.384 . S
N450 C446 1.427 . S
N450 C447 1.384 . S
N451 C443 1.427 . S
N451 C449 1.384 . S
H452 C458 0.930 . S
H453 C462 0.930 . S
H454 C467 0.929 . S
H455 C465 0.929 . S
H456 C460 0.929 . S
H457 C466 0.929 . S
C458 H452 0.930 . S
C458 C459 1.367 . S
C458 C466 1.378 . S
C459 C458 1.367 . S
C459 C467 1.433 . S
C460 H456 0.929 . S
C460 C462 1.378 . S
C460 C464 1.350 . S
C461 C464 1.463 . S
C461 C466 1.350 . S
C461 N469 1.427 . S
C462 H453 0.930 . S
C462 C460 1.378 . S
C462 C463 1.367 . S
C463 C462 1.367 . S
C463 C465 1.433 . S
C464 C460 1.350 . S
C464 C461 1.463 . S
C464 N468 1.427 . S
C465 H455 0.929 . S
C465 C463 1.433 . S
C465 N468 1.384 . S
C466 H457 0.929 . S
C466 C458 1.378 . S
C466 C461 1.350 . S
C467 H454 0.929 . S
C467 C459 1.433 . S
C467 N469 1.384 . S
N468 C464 1.427 . S
N468 C465 1.384 . S
N469 C461 1.427 . S
N469 C467 1.384 . S
H470 C476 0.930 . S
H471 C480 0.930 . S
H472 C485 0.929 . S
H473 C483 0.929 . S
H474 C478 0.929 . S
H475 C484 0.929 . S
C476 H470 0.930 . S
C476 C477 1.367 . S
C476 C484 1.378 . S
C477 C476 1.367 . S
C477 C485 1.433 . S
C478 H474 0.929 . S
C478 C480 1.378 . S
C478 C482 1.350 . S
C479 C482 1.463 . S
C479 C484 1.350 . S
C479 N487 1.427 . S
C480 H471 0.930 . S
C480 C478 1.378 . S
C480 C481 1.367 . S
C481 C480 1.367 . S
C481 C483 1.433 . S
C482 C478 1.350 . S
C482 C479 1.463 . S
C482 N486 1.427 . S
C483 H473 0.929 . S
C483 C481 1.433 . S
C483 N486 1.384 . S
C484 H475 0.929 . S
C484 C476 1.378 . S
C484 C479 1.350 . S
C485 H472 0.929 . S
C485 C477 1.433 . S
C485 N487 1.384 . S
N486 C482 1.427 . S
N486 C483 1.384 . S
N487 C479 1.427 . S
N487 C485 1.384 . S
H488 C494 0.930 . S
H489 C498 0.930 . S
H490 C503 0.929 . S
H491 C501 0.929 . S
H492 C496 0.942 . S
H493 C502 0.929 . S
C494 H488 0.930 . S
C494 C495 1.367 . S
C494 C502 1.378 . S
C495 C494 1.367 . S
C495 C503 1.433 . S
C496 H492 0.942 . S
C496 C498 1.358 1_554 S
C496 C500 1.357 . S
C497 C500 1.463 . S
C497 C502 1.350 . S
C497 N505 1.427 . S
C498 H489 0.930 . S
C498 C496 1.358 1_556 S
C498 C499 1.367 . S
C499 C498 1.367 . S
C499 C501 1.433 . S
C500 C496 1.357 . S
C500 C497 1.463 . S
C500 N504 1.427 1_554 S
C501 H491 0.929 . S
C501 C499 1.433 . S
C501 N504 1.384 . S
C502 H493 0.929 . S
C502 C494 1.378 . S
C502 C497 1.350 . S
C503 H490 0.929 . S
C503 C495 1.433 . S
C503 N505 1.384 . S
N504 C500 1.427 1_556 S
N504 C501 1.384 . S
N505 C497 1.427 . S
N505 C503 1.384 . S
H506 C512 0.930 . S
H507 C516 0.930 . S
H508 C521 0.929 . S
H509 C519 0.929 . S
H510 C514 0.929 1_556 S
H511 C520 0.929 . S
C512 H506 0.930 . S
C512 C513 1.367 1_554 S
C512 C520 1.378 . S
C513 C512 1.367 1_556 S
C513 C521 1.433 . S
C514 H510 0.929 1_554 S
C514 C516 1.378 . S
C514 C518 1.350 . S
C515 C518 1.463 . S
C515 C520 1.350 . S
C515 N523 1.427 1_554 S
C516 H507 0.930 . S
C516 C514 1.378 . S
C516 C517 1.367 . S
C517 C516 1.367 . S
C517 C519 1.433 . S
C518 C514 1.350 . S
C518 C515 1.463 . S
C518 N522 1.427 . S
C519 H509 0.929 . S
C519 C517 1.433 . S
C519 N522 1.384 . S
C520 H511 0.929 . S
C520 C512 1.378 . S
C520 C515 1.350 . S
C521 H508 0.929 . S
C521 C513 1.433 . S
C521 N523 1.384 . S
N522 C518 1.427 . S
N522 C519 1.384 . S
N523 C515 1.427 1_556 S
N523 C521 1.384 . S
H524 C530 0.930 . S
H525 C534 0.930 . S
H526 C539 0.929 . S
H527 C537 0.929 . S
H528 C532 0.929 . S
H529 C538 0.929 . S
C530 H524 0.930 . S
C530 C531 1.367 . S
C530 C538 1.378 . S
C531 C530 1.367 . S
C531 C539 1.433 . S
C532 H528 0.929 . S
C532 C534 1.378 . S
C532 C536 1.350 . S
C533 C536 1.463 . S
C533 C538 1.350 . S
C533 N541 1.427 . S
C534 H525 0.930 . S
C534 C532 1.378 . S
C534 C535 1.367 . S
C535 C534 1.367 . S
C535 C537 1.433 . S
C536 C532 1.350 . S
C536 C533 1.463 . S
C536 N540 1.427 . S
C537 H527 0.929 . S
C537 C535 1.433 . S
C537 N540 1.384 . S
C538 H529 0.929 . S
C538 C530 1.378 . S
C538 C533 1.350 . S
C539 H526 0.929 . S
C539 C531 1.433 . S
C539 N541 1.384 . S
N540 C536 1.427 . S
N540 C537 1.384 . S
N541 C533 1.427 . S
N541 C539 1.384 . S
H542 C548 0.930 . S
H543 C552 0.930 . S
H544 C557 0.929 . S
H545 C555 0.929 . S
H546 C550 0.929 . S
H547 C556 0.929 . S
C548 H542 0.930 . S
C548 C549 1.367 . S
C548 C556 1.378 . S
C549 C548 1.367 . S
C549 C557 1.433 . S
C550 H546 0.929 . S
C550 C552 1.378 . S
C550 C554 1.350 . S
C551 C554 1.463 . S
C551 C556 1.350 . S
C551 N559 1.427 . S
C552 H543 0.930 . S
C552 C550 1.378 . S
C552 C553 1.367 . S
C553 C552 1.367 . S
C553 C555 1.433 . S
C554 C550 1.350 . S
C554 C551 1.463 . S
C554 N558 1.427 . S
C555 H545 0.929 . S
C555 C553 1.433 . S
C555 N558 1.384 . S
C556 H547 0.929 . S
C556 C548 1.378 . S
C556 C551 1.350 . S
C557 H544 0.929 . S
C557 C549 1.433 . S
C557 N559 1.384 . S
N558 C554 1.427 . S
N558 C555 1.384 . S
N559 C551 1.427 . S
N559 C557 1.384 . S
H560 C566 0.930 . S
H561 C570 0.930 . S
H562 C575 0.929 . S
H563 C573 0.929 . S
H564 C568 0.929 . S
H565 C574 0.929 . S
C566 H560 0.930 . S
C566 C567 1.367 . S
C566 C574 1.378 . S
C567 C566 1.367 . S
C567 C575 1.433 . S
C568 H564 0.929 . S
C568 C570 1.378 . S
C568 C572 1.350 . S
C569 C572 1.463 . S
C569 C574 1.350 . S
C569 N577 1.427 . S
C570 H561 0.930 . S
C570 C568 1.378 . S
C570 C571 1.367 . S
C571 C570 1.367 . S
C571 C573 1.433 . S
C572 C568 1.350 . S
C572 C569 1.463 . S
C572 N576 1.427 . S
C573 H563 0.929 . S
C573 C571 1.433 . S
C573 N576 1.384 . S
C574 H565 0.929 . S
C574 C566 1.378 . S
C574 C569 1.350 . S
C575 H562 0.929 . S
C575 C567 1.433 . S
C575 N577 1.384 . S
N576 C572 1.427 . S
N576 C573 1.384 . S
N577 C569 1.427 . S
N577 C575 1.384 . S
H578 C584 0.930 . S
H579 C588 0.930 . S
H580 C593 0.929 . S
H581 C591 0.929 . S
H582 C586 0.929 . S
H583 C592 0.929 . S
C584 H578 0.930 . S
C584 C585 1.367 . S
C584 C592 1.378 . S
C585 C584 1.367 . S
C585 C593 1.433 . S
C586 H582 0.929 . S
C586 C588 1.378 . S
C586 C590 1.350 . S
C587 C590 1.463 . S
C587 C592 1.350 . S
C587 N595 1.427 . S
C588 H579 0.930 . S
C588 C586 1.378 . S
C588 C589 1.367 . S
C589 C588 1.367 . S
C589 C591 1.433 . S
C590 C586 1.350 . S
C590 C587 1.463 . S
C590 N594 1.427 . S
C591 H581 0.929 . S
C591 C589 1.433 . S
C591 N594 1.384 . S
C592 H583 0.929 . S
C592 C584 1.378 . S
C592 C587 1.350 . S
C593 H580 0.929 . S
C593 C585 1.433 . S
C593 N595 1.384 . S
N594 C590 1.427 . S
N594 C591 1.384 . S
N595 C587 1.427 . S
N595 C593 1.384 . S
H596 C602 0.930 . S
H597 C606 0.930 . S
H598 C611 0.929 . S
H599 C609 0.929 . S
H600 C604 0.929 . S
H601 C610 0.929 . S
C602 H596 0.930 . S
C602 C603 1.367 . S
C602 C610 1.378 . S
C603 C602 1.367 . S
C603 C611 1.433 . S
C604 H600 0.929 . S
C604 C606 1.378 . S
C604 C608 1.350 . S
C605 C608 1.463 . S
C605 C610 1.350 . S
C605 N613 1.427 . S
C606 H597 0.930 . S
C606 C604 1.378 . S
C606 C607 1.367 . S
C607 C606 1.367 . S
C607 C609 1.433 . S
C608 C604 1.350 . S
C608 C605 1.463 . S
C608 N612 1.427 . S
C609 H599 0.929 . S
C609 C607 1.433 . S
C609 N612 1.384 . S
C610 H601 0.929 . S
C610 C602 1.378 . S
C610 C605 1.350 . S
C611 H598 0.929 . S
C611 C603 1.433 . S
C611 N613 1.384 . S
N612 C608 1.427 . S
N612 C609 1.384 . S
N613 C605 1.427 . S
N613 C611 1.384 . S
H614 C620 0.930 . S
H615 C624 0.930 . S
H616 C629 0.929 . S
H617 C627 0.929 . S
H618 C622 0.929 . S
H619 C628 0.929 . S
C620 H614 0.930 . S
C620 C621 1.367 . S
C620 C628 1.378 . S
C621 C620 1.367 . S
C621 C629 1.433 . S
C622 H618 0.929 . S
C622 C624 1.378 . S
C622 C626 1.350 . S
C623 C626 1.463 . S
C623 C628 1.350 . S
C623 N631 1.427 . S
C624 H615 0.930 . S
C624 C622 1.378 . S
C624 C625 1.367 . S
C625 C624 1.367 . S
C625 C627 1.433 . S
C626 C622 1.350 . S
C626 C623 1.463 . S
C626 N630 1.427 . S
C627 H617 0.929 . S
C627 C625 1.433 . S
C627 N630 1.384 . S
C628 H619 0.929 . S
C628 C620 1.378 . S
C628 C623 1.350 . S
C629 H616 0.929 . S
C629 C621 1.433 . S
C629 N631 1.384 . S
N630 C626 1.427 . S
N630 C627 1.384 . S
N631 C623 1.427 . S
N631 C629 1.384 . S
C279 C5 0.595 . S
C283 C141 0.595 . S
C297 C175 0.598 . S
C301 C39 0.598 . S
C315 C209 0.636 . S
C319 C73 0.636 . S
C333 C107 0.608 . S
C337 C243 0.608 . S
C351 C36 1.895 . S
C355 C2 1.904 . S
C369 C70 1.903 . S
C373 C104 1.893 . S
C387 C138 1.904 . S
C391 C172 1.894 . S
C405 C240 1.893 . S
C409 C206 1.902 . S
C423 C33 1.488 . S
C427 C190 1.423 . S
C441 C156 1.425 . S
C445 C67 1.487 . S
C459 C258 1.417 . S
C463 C101 1.490 . S
C477 C224 1.427 . S
C481 C135 1.486 . S
C495 C54 1.410 . S
C499 C169 1.493 . S
C513 C203 1.489 . S
C517 C20 1.419 . S
C531 C237 1.486 . S
C535 C122 1.428 . S
C549 C88 1.414 . S
C553 C271 1.491 . S
C567 C77 1.347 . S
C571 C9 1.343 . S
C585 C43 1.352 . S
C589 C111 1.355 . S
C603 C213 1.352 . S
C607 C145 1.355 . S
C621 C247 1.355 . S
C625 C179 1.352 . S
