# Generated by pormake.
# Topology bcs, (6)-cn, num edge types: 1
# Building blocks:
#     Node 0, Type 0, BuildingBlock: KUMBUR_clean_sbu_1, # of connection points: 6
#     Node 1, Type 0, BuildingBlock: KUMBUR_clean_sbu_1, # of connection points: 6
#     Node 2, Type 0, BuildingBlock: KUMBUR_clean_sbu_1, # of connection points: 6
#     Node 3, Type 0, BuildingBlock: KUMBUR_clean_sbu_1, # of connection points: 6
#     Node 4, Type 0, BuildingBlock: KUMBUR_clean_sbu_1, # of connection points: 6
#     Node 5, Type 0, BuildingBlock: KUMBUR_clean_sbu_1, # of connection points: 6
#     Node 6, Type 0, BuildingBlock: KUMBUR_clean_sbu_1, # of connection points: 6
#     Node 7, Type 0, BuildingBlock: KUMBUR_clean_sbu_1, # of connection points: 6
#     Node 8, Type 0, BuildingBlock: KUMBUR_clean_sbu_1, # of connection points: 6
#     Node 9, Type 0, BuildingBlock: KUMBUR_clean_sbu_1, # of connection points: 6
#     Node 10, Type 0, BuildingBlock: KUMBUR_clean_sbu_1, # of connection points: 6
#     Node 11, Type 0, BuildingBlock: KUMBUR_clean_sbu_1, # of connection points: 6
#     Node 12, Type 0, BuildingBlock: KUMBUR_clean_sbu_1, # of connection points: 6
#     Node 13, Type 0, BuildingBlock: KUMBUR_clean_sbu_1, # of connection points: 6
#     Node 14, Type 0, BuildingBlock: KUMBUR_clean_sbu_1, # of connection points: 6
#     Node 15, Type 0, BuildingBlock: KUMBUR_clean_sbu_1, # of connection points: 6
#     Edge 16, Type (0, 0), BuildingBlock: EZIPEK_clean_linker_0, # of connection points: 2
#     Edge 17, Type (0, 0), BuildingBlock: EZIPEK_clean_linker_0, # of connection points: 2
#     Edge 18, Type (0, 0), BuildingBlock: EZIPEK_clean_linker_0, # of connection points: 2
#     Edge 19, Type (0, 0), BuildingBlock: EZIPEK_clean_linker_0, # of connection points: 2
#     Edge 20, Type (0, 0), BuildingBlock: EZIPEK_clean_linker_0, # of connection points: 2
#     Edge 21, Type (0, 0), BuildingBlock: EZIPEK_clean_linker_0, # of connection points: 2
#     Edge 22, Type (0, 0), BuildingBlock: EZIPEK_clean_linker_0, # of connection points: 2
#     Edge 23, Type (0, 0), BuildingBlock: EZIPEK_clean_linker_0, # of connection points: 2
#     Edge 24, Type (0, 0), BuildingBlock: EZIPEK_clean_linker_0, # of connection points: 2
#     Edge 25, Type (0, 0), BuildingBlock: EZIPEK_clean_linker_0, # of connection points: 2
#     Edge 26, Type (0, 0), BuildingBlock: EZIPEK_clean_linker_0, # of connection points: 2
#     Edge 27, Type (0, 0), BuildingBlock: EZIPEK_clean_linker_0, # of connection points: 2
#     Edge 28, Type (0, 0), BuildingBlock: EZIPEK_clean_linker_0, # of connection points: 2
#     Edge 29, Type (0, 0), BuildingBlock: EZIPEK_clean_linker_0, # of connection points: 2
#     Edge 30, Type (0, 0), BuildingBlock: EZIPEK_clean_linker_0, # of connection points: 2
#     Edge 31, Type (0, 0), BuildingBlock: EZIPEK_clean_linker_0, # of connection points: 2
#     Edge 32, Type (0, 0), BuildingBlock: EZIPEK_clean_linker_0, # of connection points: 2
#     Edge 33, Type (0, 0), BuildingBlock: EZIPEK_clean_linker_0, # of connection points: 2
#     Edge 34, Type (0, 0), BuildingBlock: EZIPEK_clean_linker_0, # of connection points: 2
#     Edge 35, Type (0, 0), BuildingBlock: EZIPEK_clean_linker_0, # of connection points: 2
#     Edge 36, Type (0, 0), BuildingBlock: EZIPEK_clean_linker_0, # of connection points: 2
#     Edge 37, Type (0, 0), BuildingBlock: EZIPEK_clean_linker_0, # of connection points: 2
#     Edge 38, Type (0, 0), BuildingBlock: EZIPEK_clean_linker_0, # of connection points: 2
#     Edge 39, Type (0, 0), BuildingBlock: EZIPEK_clean_linker_0, # of connection points: 2
#     Edge 40, Type (0, 0), BuildingBlock: EZIPEK_clean_linker_0, # of connection points: 2
#     Edge 41, Type (0, 0), BuildingBlock: EZIPEK_clean_linker_0, # of connection points: 2
#     Edge 42, Type (0, 0), BuildingBlock: EZIPEK_clean_linker_0, # of connection points: 2
#     Edge 43, Type (0, 0), BuildingBlock: EZIPEK_clean_linker_0, # of connection points: 2
#     Edge 44, Type (0, 0), BuildingBlock: EZIPEK_clean_linker_0, # of connection points: 2
#     Edge 45, Type (0, 0), BuildingBlock: EZIPEK_clean_linker_0, # of connection points: 2
#     Edge 46, Type (0, 0), BuildingBlock: EZIPEK_clean_linker_0, # of connection points: 2
#     Edge 47, Type (0, 0), BuildingBlock: EZIPEK_clean_linker_0, # of connection points: 2
#     Edge 48, Type (0, 0), BuildingBlock: EZIPEK_clean_linker_0, # of connection points: 2
#     Edge 49, Type (0, 0), BuildingBlock: EZIPEK_clean_linker_0, # of connection points: 2
#     Edge 50, Type (0, 0), BuildingBlock: EZIPEK_clean_linker_0, # of connection points: 2
#     Edge 51, Type (0, 0), BuildingBlock: EZIPEK_clean_linker_0, # of connection points: 2
#     Edge 52, Type (0, 0), BuildingBlock: EZIPEK_clean_linker_0, # of connection points: 2
#     Edge 53, Type (0, 0), BuildingBlock: EZIPEK_clean_linker_0, # of connection points: 2
#     Edge 54, Type (0, 0), BuildingBlock: EZIPEK_clean_linker_0, # of connection points: 2
#     Edge 55, Type (0, 0), BuildingBlock: EZIPEK_clean_linker_0, # of connection points: 2
#     Edge 56, Type (0, 0), BuildingBlock: EZIPEK_clean_linker_0, # of connection points: 2
#     Edge 57, Type (0, 0), BuildingBlock: EZIPEK_clean_linker_0, # of connection points: 2
#     Edge 58, Type (0, 0), BuildingBlock: EZIPEK_clean_linker_0, # of connection points: 2
#     Edge 59, Type (0, 0), BuildingBlock: EZIPEK_clean_linker_0, # of connection points: 2
#     Edge 60, Type (0, 0), BuildingBlock: EZIPEK_clean_linker_0, # of connection points: 2
#     Edge 61, Type (0, 0), BuildingBlock: EZIPEK_clean_linker_0, # of connection points: 2
#     Edge 62, Type (0, 0), BuildingBlock: EZIPEK_clean_linker_0, # of connection points: 2
#     Edge 63, Type (0, 0), BuildingBlock: EZIPEK_clean_linker_0, # of connection points: 2
# Relax obj value: 0.104
# Max RMSD: 0.200
# Mean RMSD: 0.151
data_MOF--net-bcs--node1-KUMBUR_clean_sbu_1--edge1-EZIPEK_clean_linker_0
_symmetry_space_group_name_H-M    P1
_symmetry_Int_Tables_number       1
_symmetry_cell_setting            triclinic
loop_
_symmetry_equiv_pos_as_xyz
'x, y, z'
_cell_length_a     32.592056
_cell_length_b     32.694832
_cell_length_c     34.697962
_cell_angle_alpha  110.45446
_cell_angle_beta   69.85943
_cell_angle_gamma 125.79636
loop_
_atom_site_label
_atom_site_type_symbol
_atom_site_fract_x
_atom_site_fract_y
_atom_site_fract_z
_atom_type_partial_charge
Tb0 Tb 0.99192 0.9825 0.9855 0.0
C1 C 0.1623 0.15377 0.06169 0.0
N2 N 0.15892 0.11473 0.0292 0.0
C3 C 0.24337 0.17227 0.99476 0.0
C4 C 0.2052 0.20413 0.06114 0.0
C5 C 0.20075 0.12261 0.99759 0.0
C6 C 0.24496 0.2136 0.02619 0.0
C7 C 0.13315 0.17823 0.135 0.0
C8 C 0.1259 0.14161 0.09771 0.0
C9 C 0.17419 0.22916 0.13407 0.0
C10 C 0.20873 0.24237 0.09674 0.0
Tb11 Tb 0.08326 0.03685 0.03582 0.0
N12 N 0.08681 0.0921 0.09739 0.0
C13 C 0.09966 0.16205 0.17201 0.0
C14 C 0.05726 0.07521 0.1338 0.0
C15 C 0.06132 0.11034 0.17151 0.0
H16 H 0.20122 0.09075 0.9741 0.0
H17 H 0.03639 0.09735 0.20027 0.0
H18 H 0.87253 0.90153 0.03282 0.0
H19 H 0.09351 0.96202 0.82668 0.0
H20 H 0.03094 0.03469 0.13322 0.0
H21 H 0.10504 0.18841 0.20134 0.0
H22 H 0.07375 0.00968 0.89479 0.0
H23 H 0.27531 0.17848 0.96878 0.0
H24 H 0.18073 0.2583 0.16196 0.0
H25 H 0.23937 0.28159 0.09638 0.0
H26 H 0.80405 0.81161 0.0157 0.0
H27 H 0.27854 0.2519 0.02453 0.0
H28 H 0.03625 0.86761 0.80967 0.0
N29 N 0.92598 0.89807 0.97666 0.0
C30 C 0.93286 0.86883 0.93891 0.0
C31 C 0.84055 0.82692 0.9943 0.0
C32 C 0.8943 0.81707 0.92801 0.0
C33 C 0.88017 0.87787 1.0042 0.0
C34 C 0.84745 0.79656 0.95595 0.0
N35 N 1.01127 0.94319 0.9194 0.0
C36 C 0.05051 0.96876 0.88914 0.0
C37 C 0.98494 0.86358 0.86982 0.0
C38 C 0.9766 0.89212 0.90934 0.0
C39 C 1.02878 0.88855 0.84048 0.0
C40 C 0.06122 0.94171 0.84994 0.0
H41 H 0.81545 0.75821 0.94748 0.0
H42 H 0.87186 0.75063 0.87792 0.0
H43 H 0.95331 0.79084 0.82907 0.0
O44 O 0.9977 0.03069 0.9536 0.0
O45 O 0.04528 0.93889 0.95571 0.0
O46 O 0.11975 0.99537 0.97663 0.0
O47 O 0.92623 0.96024 0.96661 0.0
O48 O 0.05196 0.06267 0.97574 0.0
O49 O 0.11288 0.05239 0.97093 0.0
O50 O 0.07023 0.98254 0.0648 0.0
O51 O 1.02852 0.07818 0.07195 0.0
O52 O 0.95792 0.02834 0.0434 0.0
O53 O 0.1447 0.05214 0.05688 0.0
O54 O 1.01897 0.95874 0.05005 0.0
O55 O 0.95489 0.96334 0.04937 0.0
C56 C 0.09575 0.94955 0.95047 0.0
C57 C 0.92004 0.02928 0.96622 0.0
C58 C 0.89775 0.07456 0.94205 0.0
C59 C 0.85077 0.05619 0.97037 0.0
C60 C 0.87343 0.01244 0.99524 0.0
C61 C 0.83955 0.02676 0.99777 0.0
C62 C 0.93332 0.06317 0.94177 0.0
C63 C 0.09954 0.07627 0.95932 0.0
C64 C 0.94855 1.00286 0.95385 0.0
C65 C 0.90219 0.78886 0.88821 0.0
C66 C 0.94792 0.8118 0.85983 0.0
C67 C 0.98019 0.07046 0.07364 0.0
C68 C 0.14209 0.97626 0.05163 0.0
C69 C 0.15767 0.92018 0.06742 0.0
C70 C 0.19449 0.92543 0.03032 0.0
C71 C 0.18052 0.98291 0.01562 0.0
C72 C 0.12808 0.94153 0.0753 0.0
C73 C 0.20412 0.95491 1.00367 0.0
C74 C 0.97055 0.94439 0.06446 0.0
C75 C 0.11842 0.00726 0.0671 0.0
H76 H 0.82268 0.06423 0.9709 0.0
H77 H 0.86205 0.98635 0.01456 0.0
H78 H 0.80334 0.01289 0.01964 0.0
H79 H 0.96934 0.07705 0.91964 0.0
H80 H 0.21689 0.90804 0.02262 0.0
H81 H 0.19307 0.01017 0.99709 0.0
H82 H 0.09736 0.93481 0.10237 0.0
H83 H 0.23241 0.95885 0.97511 0.0
Tb84 Tb 0.25091 0.79376 0.28072 0.0
C85 C 0.38509 0.70191 0.15218 0.0
N86 N 0.3335 0.6798 0.16612 0.0
C87 C 0.31849 0.61478 0.10319 0.0
C88 C 0.40524 0.6793 0.11457 0.0
C89 C 0.30005 0.63674 0.14188 0.0
C90 C 0.37129 0.63561 0.08977 0.0
C91 C 0.47178 0.77111 0.16255 0.0
C92 C 0.41805 0.74782 0.1756 0.0
C93 C 0.49158 0.7453 0.128 0.0
C94 C 0.45853 0.70054 0.10336 0.0
Tb95 Tb 0.31263 0.71314 0.23489 0.0
N96 N 0.39741 0.76988 0.21073 0.0
C97 C 0.50388 0.8197 0.18437 0.0
C98 C 0.42857 0.81857 0.23065 0.0
C99 C 0.48204 0.84424 0.21773 0.0
H100 H 0.25914 0.61693 0.15273 0.0
H101 H 0.50638 0.88247 0.23422 0.0
H102 H 0.33121 0.91694 0.31542 0.0
H103 H 0.04979 0.66235 0.33753 0.0
H104 H 0.41305 0.83778 0.25703 0.0
H105 H 0.54537 0.83913 0.17498 0.0
H106 H 0.13244 0.68773 0.28871 0.0
H107 H 0.29182 0.58057 0.08447 0.0
H108 H 0.53253 0.76045 0.11919 0.0
H109 H 0.47483 0.68343 0.07532 0.0
H110 H 0.3307 0.98319 0.37807 0.0
H111 H 0.38532 0.61754 0.06038 0.0
H112 H 0.0425 0.72392 0.40147 0.0
N113 N 0.25581 0.85783 0.33715 0.0
C114 C 0.21279 0.8454 0.36734 0.0
C115 C 0.29775 0.94442 0.37559 0.0
C116 C 0.21073 0.88227 0.40303 0.0
C117 C 0.29787 0.90684 0.34033 0.0
C118 C 0.25432 0.93194 0.40733 0.0
N119 N 0.1731 0.76227 0.32566 0.0
C120 C 0.13048 0.71456 0.31705 0.0
C121 C 0.1229 0.78356 0.38953 0.0
C122 C 0.16973 0.79639 0.36096 0.0
C123 C 0.07941 0.73482 0.3808 0.0
C124 C 0.08332 0.70007 0.3446 0.0
H125 H 0.25426 0.96135 0.43434 0.0
H126 H 0.16256 0.89695 0.45996 0.0
H127 H 0.08496 0.81132 0.44734 0.0
O128 O 0.24472 0.79977 0.22514 0.0
O129 O 0.22411 0.7392 0.32252 0.0
O130 O 0.23991 0.67524 0.28107 0.0
O131 O 0.22961 0.84472 0.2833 0.0
O132 O 0.20728 0.72277 0.23498 0.0
O133 O 0.2415 0.67125 0.20974 0.0
O134 O 0.35999 0.705 0.25642 0.0
O135 O 0.33243 0.76514 0.19421 0.0
O136 O 0.33032 0.83247 0.24274 0.0
O137 O 0.30231 0.64041 0.2218 0.0
O138 O 0.32753 0.76161 0.29844 0.0
O139 O 0.3241 0.83114 0.30263 0.0
C140 C 0.21826 0.69364 0.31681 0.0
C141 C 0.18135 0.81729 0.23227 0.0
C142 C 0.14023 0.82935 0.19376 0.0
C143 C 0.09175 0.79341 0.21286 0.0
C144 C 0.13251 0.78027 0.24998 0.0
C145 C 0.08805 0.76849 0.2404 0.0
C146 C 0.18505 0.84164 0.20383 0.0
C147 C 0.20769 0.68141 0.21015 0.0
C148 C 0.22827 0.83106 0.24365 0.0
C149 C 0.16475 0.86907 0.43236 0.0
C150 C 0.1207 0.82017 0.42526 0.0
C151 C 0.3456 0.81389 0.20369 0.0
C152 C 0.32583 0.62311 0.26907 0.0
C153 C 0.35521 0.6017 0.31114 0.0
C154 C 0.31594 0.55032 0.30167 0.0
C155 C 0.28258 0.57301 0.26575 0.0
C156 C 0.36134 0.63815 0.29335 0.0
C157 C 0.27804 0.53694 0.28167 0.0
C158 C 0.33939 0.8094 0.31572 0.0
C159 C 0.33751 0.65602 0.24201 0.0
H160 H 0.05696 0.78359 0.20538 0.0
H161 H 0.12861 0.76099 0.27166 0.0
H162 H 0.05062 0.74004 0.25446 0.0
H163 H 0.22254 0.86965 0.18929 0.0
H164 H 0.31453 0.52076 0.31022 0.0
H165 H 0.25396 0.56039 0.24825 0.0
H166 H 0.39396 0.6773 0.29758 0.0
H167 H 0.24577 0.49837 0.27683 0.0
Tb168 Tb 0.50449 0.93018 0.52458 0.0
C169 C 0.66295 0.12727 0.43675 0.0
N170 N 0.63525 0.1385 0.47297 0.0
C171 C 0.71249 0.20042 0.50113 0.0
C172 C 0.71392 0.14344 0.43451 0.0
C173 C 0.65948 0.17706 0.50419 0.0
C174 C 0.73942 0.18163 0.46691 0.0
C175 C 0.66011 0.07027 0.36984 0.0
C176 C 0.63616 0.09016 0.40584 0.0
C177 C 0.70744 0.07903 0.37066 0.0
C178 C 0.73447 0.1159 0.40312 0.0
Tb179 Tb 0.55509 0.06837 0.48544 0.0
N180 N 0.58458 0.06762 0.4146 0.0
C181 C 0.63272 0.03753 0.33711 0.0
C182 C 0.55716 0.03748 0.3828 0.0
C183 C 0.58126 0.02268 0.34318 0.0
H184 H 0.63755 0.18755 0.53232 0.0
H185 H 0.55928 0.99709 0.31843 0.0
H186 H 0.46558 0.82791 0.44604 0.0
H187 H 0.41676 0.9667 0.68166 0.0
H188 H 0.51651 0.02281 0.38809 0.0
H189 H 0.65011 0.02225 0.30805 0.0
H190 H 0.49092 0.96806 0.62831 0.0
H191 H 0.73152 0.22996 0.52647 0.0
H192 H 0.7232 0.05758 0.34658 0.0
H193 H 0.7703 0.122 0.40452 0.0
H194 H 0.38167 0.75865 0.42675 0.0
H195 H 0.77916 0.19596 0.46619 0.0
H196 H 0.32977 0.90787 0.66428 0.0
N197 N 0.43427 0.84981 0.50877 0.0
C198 C 0.39126 0.83829 0.53844 0.0
C199 C 0.38362 0.78 0.45857 0.0
C200 C 0.34218 0.79915 0.5288 0.0
C201 C 0.43133 0.81954 0.46963 0.0
C202 C 0.3387 0.76947 0.48833 0.0
N203 N 0.4447 0.90765 0.58444 0.0
C204 C 0.45237 0.93821 0.62329 0.0
C205 C 0.35317 0.86611 0.607 0.0
C206 C 0.39649 0.86886 0.57771 0.0
C207 C 0.36123 0.90433 0.6433 0.0
C208 C 0.4106 0.93842 0.65282 0.0
H209 H 0.30168 0.73931 0.47954 0.0
H210 H 0.26027 0.76533 0.55154 0.0
H211 H 0.27029 0.8266 0.61833 0.0
O212 O 0.56068 0.93456 0.5455 0.0
O213 O 0.45478 0.96034 0.56014 0.0
O214 O 0.51174 0.01248 0.52134 0.0
O215 O 0.52366 0.87388 0.49677 0.0
O216 O 0.56279 0.0071 0.56036 0.0
O217 O 0.58965 0.08266 0.53935 0.0
O218 O 0.48522 0.06195 0.49259 0.0
O219 O 0.61205 0.04706 0.47255 0.0
O220 O 0.55012 0.96523 0.47081 0.0
O221 O 0.54789 0.13319 0.51676 0.0
O222 O 0.49895 0.99453 0.44922 0.0
O223 O 0.47365 0.9201 0.47063 0.0
C224 C 0.47093 1.00131 0.54959 0.0
C225 C 0.56435 0.85971 0.53186 0.0
C226 C 0.6011 0.84935 0.57559 0.0
C227 C 0.57106 0.7957 0.56255 0.0
C228 C 0.53499 0.80592 0.51907 0.0
C229 C 0.53897 0.77424 0.53399 0.0
C230 C 0.60002 0.88103 0.5577 0.0
C231 C 0.59229 0.05893 0.56285 0.0
C232 C 0.55829 0.89414 0.51885 0.0
C233 C 0.29839 0.79388 0.55878 0.0
C234 C 0.30402 0.82846 0.59721 0.0
C235 C 0.59869 0.99996 0.46868 0.0
C236 C 0.48561 0.13608 0.49737 0.0
C237 C 0.44617 0.13971 0.45022 0.0
C238 C 0.46958 0.19315 0.46639 0.0
C239 C 0.5032 0.18787 0.5154 0.0
C240 C 0.45411 0.11121 0.46665 0.0
C241 C 0.49593 0.21638 0.49952 0.0
C242 C 0.47124 0.94359 0.44722 0.0
C243 C 0.50092 0.10925 0.51098 0.0
H244 H 0.57235 0.77027 0.57461 0.0
H245 H 0.50677 0.78809 0.49957 0.0
H246 H 0.51574 0.73288 0.52456 0.0
H247 H 0.62576 0.92221 0.5644 0.0
H248 H 0.46624 0.21714 0.45411 0.0
H249 H 0.52391 0.20654 0.541 0.0
H250 H 0.43596 0.07023 0.45658 0.0
H251 H 0.51139 0.25691 0.51255 0.0
Tb252 Tb 0.24251 0.29342 0.77592 0.0
C253 C 0.32365 0.15738 0.76518 0.0
N254 N 0.35096 0.2094 0.76992 0.0
C255 C 0.40401 0.21681 0.80885 0.0
C256 C 0.33683 0.1332 0.78141 0.0
C257 C 0.38918 0.2393 0.79311 0.0
C258 C 0.37879 0.16357 0.8019 0.0
C259 C 0.24162 0.07799 0.75667 0.0
C260 C 0.2767 0.12993 0.75235 0.0
C261 C 0.25592 0.05367 0.77088 0.0
C262 C 0.30391 0.08069 0.78213 0.0
Tb263 Tb 0.32407 0.24322 0.7437 0.0
N264 N 0.26134 0.1569 0.74483 0.0
C265 C 0.19097 0.0537 0.75179 0.0
C266 C 0.20997 0.13438 0.74554 0.0
C267 C 0.17481 0.08244 0.74723 0.0
H268 H 0.40948 0.28072 0.79867 0.0
H269 H 0.13467 0.06531 0.74703 0.0
H270 H 0.14001 0.23802 0.73317 0.0
H271 H 0.40489 0.49252 0.79654 0.0
H272 H 0.1945 0.15652 0.74784 0.0
H273 H 0.16303 0.014 0.75504 0.0
H274 H 0.35826 0.40178 0.79805 0.0
H275 H 0.43491 0.2404 0.82627 0.0
H276 H 0.22807 0.01566 0.77751 0.0
H277 H 0.31291 0.06194 0.7954 0.0
H278 H 0.1107 0.26077 0.6918 0.0
H279 H 0.38976 0.14643 0.81505 0.0
H280 H 0.38052 0.52098 0.7557 0.0
N281 N 0.20975 0.31125 0.73958 0.0
C282 C 0.23819 0.35979 0.7322 0.0
C283 C 0.14679 0.2889 0.70273 0.0
C284 C 0.22322 0.374 0.70783 0.0
C285 C 0.1637 0.27622 0.72624 0.0
C286 C 0.17704 0.33776 0.69294 0.0
N287 N 0.29635 0.37979 0.77182 0.0
C288 C 0.34135 0.41399 0.78668 0.0
C289 C 0.31316 0.44592 0.74155 0.0
C290 C 0.28245 0.39532 0.74922 0.0
C291 C 0.35654 0.48154 0.76011 0.0
C292 C 0.36995 0.46577 0.78369 0.0
H293 H 0.16416 0.34727 0.67426 0.0
H294 H 0.24438 0.43511 0.67978 0.0
H295 H 0.32371 0.49778 0.70862 0.0
O296 O 0.20333 0.32986 0.81291 0.0
O297 O 0.29106 0.3067 0.71239 0.0
O298 O 0.35681 0.31942 0.73005 0.0
O299 O 0.1643 0.24621 0.79887 0.0
O300 O 0.29051 0.32905 0.82638 0.0
O301 O 0.34803 0.30204 0.801 0.0
O302 O 0.3574 0.21737 0.68556 0.0
O303 O 0.27603 0.21742 0.80375 0.0
O304 O 0.21433 0.23478 0.8147 0.0
O305 O 0.40449 0.28433 0.72716 0.0
O306 O 0.27677 0.20926 0.69368 0.0
O307 O 0.21399 0.22854 0.72264 0.0
C308 C 0.3403 0.32415 0.70332 0.0
C309 C 0.1417 0.28548 0.86631 0.0
C310 C 0.12606 0.34447 0.92259 0.0
C311 C 0.07495 0.30445 0.93183 0.0
C312 C 0.0919 0.24458 0.87742 0.0
C313 C 0.05975 0.25371 0.91282 0.0
C314 C 0.1614 0.33261 0.89444 0.0
C315 C 0.32994 0.32913 0.83046 0.0
C316 C 0.16248 0.28638 0.82207 0.0
C317 C 0.25474 0.42373 0.69903 0.0
C318 C 0.29984 0.45944 0.71554 0.0
C319 C 0.23108 0.21146 0.8244 0.0
C320 C 0.43503 0.23058 0.68688 0.0
C321 C 0.43545 0.153 0.66233 0.0
C322 C 0.45829 0.16619 0.69624 0.0
C323 C 0.46716 0.24863 0.71504 0.0
C324 C 0.42398 0.1853 0.65783 0.0
C325 C 0.47744 0.21549 0.72054 0.0
C326 C 0.23434 0.20478 0.69147 0.0
C327 C 0.40407 0.25146 0.69271 0.0
H328 H 0.04552 0.31293 0.94766 0.0
H329 H 0.0753 0.20829 0.85583 0.0
H330 H 1.02055 0.22313 0.92048 0.0
H331 H 0.20023 0.36427 0.8863 0.0
H332 H 0.46756 0.14108 0.70003 0.0
H333 H 0.47978 0.28593 0.7356 0.0
H334 H 0.40555 0.1748 0.63225 0.0
H335 H 0.49926 0.22759 0.74404 0.0
Tb336 Tb 1.00049 0.04099 0.52678 0.0
C337 C 0.10323 0.91409 0.40215 0.0
N338 N 0.05883 0.898 0.43092 0.0
C339 C 1.01978 0.81539 0.38587 0.0
C340 C 0.10729 0.88162 0.36364 0.0
C341 C 1.01775 0.84882 0.42387 0.0
C342 C 0.06454 0.83204 0.35546 0.0
C343 C 0.19402 0.97802 0.38561 0.0
C344 C 0.14599 0.96185 0.41286 0.0
C345 C 0.1977 0.94686 0.34633 0.0
C346 C 0.15432 0.89894 0.33532 0.0
Tb347 Tb 0.06042 0.95712 0.49093 0.0
N348 N 0.14095 0.9913 0.45102 0.0
C349 C 0.23728 0.02375 0.39953 0.0
C350 C 0.18342 0.03491 0.46534 0.0
C351 C 0.23194 0.05137 0.44 0.0
H352 H 0.98367 0.83518 0.44783 0.0
H353 H 0.26507 0.0849 0.45232 0.0
H354 H 0.05109 0.14917 0.59886 0.0
H355 H 0.80127 0.89084 0.51676 0.0
H356 H 0.18069 0.0572 0.49633 0.0
H357 H 0.27515 0.03679 0.38002 0.0
H358 H 0.89369 0.93531 0.49193 0.0
H359 H 0.98708 0.7766 0.38026 0.0
H360 H 0.23419 0.95876 0.32479 0.0
H361 H 0.15794 0.87501 0.30537 0.0
H362 H 1.02132 0.18514 0.66953 0.0
H363 H 0.06621 0.80573 0.32646 0.0
H364 H 0.76577 0.92435 0.58658 0.0
N365 N 0.97757 0.08054 0.5921 0.0
C366 C 0.92685 0.05536 0.60943 0.0
C367 C 0.9944 0.14839 0.65309 0.0
C368 C 0.90804 0.07543 0.64961 0.0
C369 C 1.01118 0.12737 0.61301 0.0
C370 C 0.9427 0.1219 0.67163 0.0
N371 N 0.91288 0.9915 0.54786 0.0
C372 C 0.88008 0.9491 0.52309 0.0
C373 C 0.83997 0.98498 0.60212 0.0
C374 C 0.89338 0.01 0.58635 0.0
C375 C 0.80682 0.94226 0.57647 0.0
C376 C 0.82685 0.92383 0.53697 0.0
H377 H 0.92957 0.13773 0.70263 0.0
H378 H 0.84016 0.06401 0.69711 0.0
H379 H 0.78021 0.98501 0.65505 0.0
O380 O 0.96464 0.05336 0.4946 0.0
O381 O 0.97395 0.99046 0.57114 0.0
O382 O 0.98075 0.92264 0.52791 0.0
O383 O 1.02864 0.11678 0.52593 0.0
O384 O 0.9863 0.98631 0.46538 0.0
O385 O 0.98773 0.91835 0.46816 0.0
O386 O 0.0699 0.95198 0.54582 0.0
O387 O 0.09135 0.01061 0.44775 0.0
O388 O 0.07992 0.07559 0.48973 0.0
O389 O 0.07957 0.90448 0.48694 0.0
O390 O 0.09903 0.02763 0.53843 0.0
O391 O 0.06108 0.07592 0.56349 0.0
C392 C 0.96478 0.94369 0.56532 0.0
C393 C 0.99688 0.141 0.4897 0.0
C394 C 0.96607 0.16416 0.45045 0.0
C395 C 0.99833 0.21622 0.46739 0.0
C396 C 0.03113 0.19335 0.50359 0.0
C397 C 0.03214 0.23051 0.49207 0.0
C398 C 0.9656 0.1264 0.46183 0.0
C399 C 0.97424 0.93803 0.45089 0.0
C400 C 0.99696 0.10279 0.50276 0.0
C401 C 0.8552 0.04912 0.66629 0.0
C402 C 0.82113 0.00418 0.64239 0.0
C403 C 0.0992 0.05661 0.45321 0.0
C404 C 0.05831 0.87361 0.54749 0.0
C405 C 0.07291 0.83783 0.58928 0.0
C406 C 0.03314 0.78865 0.5739 0.0
C407 C 1.01737 0.82459 0.53429 0.0
C408 C 0.08402 0.88043 0.57663 0.0
C409 C 1.00458 0.78243 0.54789 0.0
C410 C 0.09544 0.06691 0.56403 0.0
C411 C 0.08029 0.91624 0.52657 0.0
H412 H 0.99981 0.24612 0.45913 0.0
H413 H 0.05735 0.2058 0.52346 0.0
H414 H 0.05979 0.27057 0.50197 0.0
H415 H 0.94157 0.08612 0.44871 0.0
H416 H 1.02394 0.75477 0.58213 0.0
H417 H 0.99682 0.81862 0.51215 0.0
H418 H 0.11536 0.91851 0.58707 0.0
H419 H 0.97378 0.74441 0.53685 0.0
Tb420 Tb 0.25739 0.71105 0.78644 0.0
C421 C 0.43082 0.8902 0.71035 0.0
N422 N 0.38962 0.88476 0.74073 0.0
C423 C 0.43807 0.97445 0.77144 0.0
C424 C 0.47789 0.93777 0.70986 0.0
C425 C 0.39192 0.9266 0.77018 0.0
C426 C 0.48162 0.97989 0.74149 0.0
C427 C 0.46152 0.85634 0.64099 0.0
C428 C 0.42324 0.84985 0.67683 0.0
C429 C 0.50963 0.90222 0.64136 0.0
C430 C 0.51801 0.94283 0.67588 0.0
Tb431 Tb 0.31798 0.80362 0.73735 0.0
N432 N 0.37543 0.80736 0.67682 0.0
C433 C 0.44808 0.81963 0.60439 0.0
C434 C 0.36169 0.77231 0.64051 0.0
C435 C 0.39813 0.77748 0.60392 0.0
H436 H 0.35862 0.92311 0.79343 0.0
H437 H 0.38736 0.75007 0.57513 0.0
H438 H 0.18832 0.58572 0.7417 0.0
H439 H 0.22545 0.80818 0.94624 0.0
H440 H 0.32301 0.73973 0.63965 0.0
H441 H 0.47407 0.82602 0.57545 0.0
H442 H 0.27703 0.79943 0.87691 0.0
H443 H 0.43994 0.00707 0.7954 0.0
H444 H 0.53875 0.90877 0.6137 0.0
H445 H 0.55369 0.97953 0.67408 0.0
H446 H 0.09683 0.51663 0.75109 0.0
H447 H 0.51717 0.01714 0.74197 0.0
H448 H 0.13265 0.74368 0.95961 0.0
N449 N 0.17737 0.63954 0.79392 0.0
C450 C 0.14501 0.6461 0.82898 0.0
C451 C 0.10981 0.55311 0.77284 0.0
C452 C 0.09301 0.60721 0.83591 0.0
C453 C 0.16143 0.59255 0.76746 0.0
C454 C 0.07516 0.56112 0.80662 0.0
N455 N 0.21548 0.7277 0.85197 0.0
C456 C 0.23765 0.76904 0.883 0.0
C457 C 0.13359 0.69579 0.89801 0.0
C458 C 0.16507 0.69026 0.8597 0.0
C459 C 0.15557 0.73849 0.92951 0.0
C460 C 0.20804 0.77493 0.92215 0.0
H461 H 0.03531 0.53078 0.81067 0.0
H462 H 1.02133 0.58622 0.87847 0.0
H463 H 0.05592 0.66275 0.93102 0.0
O464 O 0.31835 0.71352 0.79808 0.0
O465 O 0.21535 0.76499 0.81555 0.0
O466 O 0.27561 0.83979 0.79712 0.0
O467 O 0.23907 0.65665 0.81787 0.0
O468 O 0.3351 0.76984 0.80271 0.0
O469 O 0.34101 0.83898 0.80011 0.0
O470 O 0.24866 0.78745 0.72974 0.0
O471 O 0.36021 0.75086 0.70815 0.0
O472 O 0.29706 0.67505 0.72458 0.0
O473 O 0.32262 0.84919 0.7047 0.0
O474 O 0.25928 0.7368 0.69956 0.0
O475 O 0.22657 0.66917 0.72756 0.0
C476 C 0.22836 0.81621 0.82192 0.0
C477 C 0.30098 0.63432 0.80417 0.0
C478 C 0.33382 0.60079 0.8306 0.0
C479 C 0.30149 0.55125 0.80982 0.0
C480 C 0.27224 0.58531 0.78058 0.0
C481 C 0.27205 0.54386 0.78394 0.0
C482 C 0.33486 0.64253 0.82632 0.0
C483 C 0.35406 0.81887 0.81655 0.0
C484 C 0.28699 0.67301 0.81508 0.0
C485 C 0.06111 0.61476 0.87268 0.0
C486 C 0.08127 0.65849 0.90342 0.0
C487 C 0.34519 0.699 0.70097 0.0
C488 C 0.24961 0.85558 0.71851 0.0
C489 C 0.19905 0.87447 0.69752 0.0
C490 C 0.2126 0.91838 0.72916 0.0
C491 C 0.26386 0.90037 0.74949 0.0
C492 C 0.2162 0.84233 0.69332 0.0
C493 C 0.24457 0.93104 0.75529 0.0
C494 C 0.22878 0.68712 0.69832 0.0
C495 C 0.27248 0.82461 0.70901 0.0
H496 H 0.2981 0.51838 0.81461 0.0
H497 H 0.24575 0.57796 0.76342 0.0
H498 H 0.24637 0.50551 0.76863 0.0
H499 H 0.35798 0.68052 0.84398 0.0
H500 H 0.19832 0.94244 0.73302 0.0
H501 H 0.29035 0.91211 0.76869 0.0
H502 H 0.20452 0.80787 0.66954 0.0
H503 H 0.25525 0.965 0.77974 0.0
Tb504 Tb 0.49782 0.03061 0.03612 0.0
C505 C 0.57048 0.90472 0.03993 0.0
N506 N 0.59842 0.95474 0.03591 0.0
C507 C 0.64963 0.97633 0.08415 0.0
C508 C 0.57989 0.88919 0.06742 0.0
C509 C 0.63991 0.98962 0.05558 0.0
C510 C 0.6189 0.92601 0.09066 0.0
C511 C 0.50595 0.81585 0.01651 0.0
C512 C 0.53442 0.86827 0.01445 0.0
C513 C 0.51452 0.8005 0.04448 0.0
C514 C 0.55173 0.83714 0.06958 0.0
Tb515 Tb 0.57676 0.97078 0.98846 0.0
N516 N 0.52724 0.88446 0.98754 0.0
C517 C 0.47068 0.78035 0.98964 0.0
C518 C 0.49623 0.84953 0.9588 0.0
C519 C 0.46651 0.79716 0.9601 0.0
H520 H 0.66745 0.02716 0.04804 0.0
H521 H 0.44078 0.76977 0.93811 0.0
H522 H 0.44314 1.00223 0.95798 0.0
H523 H 0.57603 0.20806 0.15104 0.0
H524 H 0.49409 0.86189 0.93494 0.0
H525 H 0.4476 0.73982 0.99068 0.0
H526 H 0.5306 0.11425 0.12704 0.0
H527 H 0.68186 0.00458 0.10012 0.0
H528 H 0.49366 0.7603 0.0459 0.0
H529 H 0.56012 0.82516 0.08961 0.0
H530 H 0.44316 0.04862 0.91536 0.0
H531 H 0.62709 0.9155 0.11224 0.0
H532 H 0.59603 0.26376 0.10575 0.0
N533 N 0.49146 0.07006 0.99717 0.0
C534 C 0.51543 0.12192 1.0076 0.0
C535 C 0.46403 0.0698 0.94105 0.0
C536 C 0.5171 0.15021 0.98385 0.0
C537 C 0.46405 0.04356 0.96538 0.0
C538 C 0.4913 0.12344 0.94995 0.0
N539 N 0.53013 0.11639 0.06649 0.0
C540 C 0.54122 0.13794 0.10602 0.0
C541 C 0.56093 0.19987 0.05608 0.0
C542 C 0.53658 0.1461 0.04316 0.0
C543 C 0.57724 0.22257 0.09461 0.0
C544 C 0.56607 0.19125 0.1202 0.0
H545 H 0.49113 0.14361 0.93114 0.0
H546 H 0.54568 0.22672 0.97762 0.0
H547 H 0.58644 0.27006 0.03931 0.0
O548 O 0.4437 0.04395 0.0818 0.0
O549 O 0.5513 0.05639 0.97596 0.0
O550 O 0.61735 0.04636 0.96924 0.0
O551 O 0.4211 0.96916 0.04161 0.0
O552 O 0.55215 0.05564 0.07593 0.0
O553 O 0.61699 0.04544 0.03195 0.0
O554 O 0.59612 0.94168 0.9253 0.0
O555 O 0.49846 0.92792 0.02918 0.0
O556 O 0.4977 0.99322 0.07866 0.0
O557 O 0.64508 0.97066 0.96901 0.0
O558 O 0.53281 0.95655 0.94346 0.0
O559 O 0.46427 0.9595 0.98822 0.0
C560 C 0.5982 0.06561 0.95772 0.0
C561 C 0.36188 0.99557 0.06747 0.0
C562 C 0.31076 0.03362 0.09979 0.0
C563 C 0.29742 0.02162 0.0612 0.0
C564 C 0.34771 0.98181 0.02897 0.0
C565 C 0.31588 0.99547 0.02585 0.0
C566 C 0.34149 0.01898 0.10285 0.0
C567 C 0.59905 0.06528 0.06887 0.0
C568 C 0.40574 0.99754 0.07117 0.0
C569 C 0.5436 0.204 0.99529 0.0
C570 C 0.56631 0.22877 0.03088 0.0
C571 C 0.48423 0.94495 0.06895 0.0
C572 C 0.68533 0.98738 0.90078 0.0
C573 C 0.73322 0.96979 0.83451 0.0
C574 C 0.77883 0.01522 0.84678 0.0
C575 C 0.73033 0.03153 0.91401 0.0
C576 C 0.68684 0.96481 0.85854 0.0
C577 C 0.77678 0.04752 0.88557 0.0
C578 C 0.4856 0.94606 0.95026 0.0
C579 C 0.64094 0.9564 0.93003 0.0
H580 H 0.27592 0.03559 0.05807 0.0
H581 H 0.3633 0.96334 1.00114 0.0
H582 H 0.3079 0.98808 0.99559 0.0
H583 H 0.35499 0.03189 0.13196 0.0
H584 H 0.81623 0.02313 0.82895 0.0
H585 H 0.73011 0.05166 0.94631 0.0
H586 H 0.65115 0.93641 0.84759 0.0
H587 H 0.81182 0.08126 0.89539 0.0
Tb588 Tb 0.2172 0.23686 0.25609 0.0
C589 C 0.41334 0.38472 0.33502 0.0
N590 N 0.42565 0.35748 0.29876 0.0
C591 C 0.49911 0.43697 0.27917 0.0
C592 C 0.43453 0.43733 0.33953 0.0
C593 C 0.46975 0.38287 0.27139 0.0
C594 C 0.4793 0.46418 0.3118 0.0
C595 C 0.35231 0.38223 0.39879 0.0
C596 C 0.37159 0.35744 0.36308 0.0
C597 C 0.36561 0.43157 0.39891 0.0
C598 C 0.40675 0.45905 0.36863 0.0
Tb599 Tb 0.3552 0.27769 0.28075 0.0
N600 N 0.34649 0.30576 0.35277 0.0
C601 C 0.31726 0.35456 0.43048 0.0
C602 C 0.31549 0.27832 0.38412 0.0
C603 C 0.3011 0.30278 0.42383 0.0
H604 H 0.48001 0.36218 0.24187 0.0
H605 H 0.27546 0.28111 0.4484 0.0
H606 H 0.11128 0.19419 0.33064 0.0
H607 H 0.25535 0.15394 0.09458 0.0
H608 H 0.30093 0.23784 0.3789 0.0
H609 H 0.30247 0.37242 0.45956 0.0
H610 H 0.22288 0.20392 0.1874 0.0
H611 H 0.53373 0.45738 0.25751 0.0
H612 H 0.34534 0.44896 0.42252 0.0
H613 H 0.41663 0.49644 0.36759 0.0
H614 H 0.03123 0.1112 0.34144 0.0
H615 H 0.49824 0.50531 0.31494 0.0
H616 H 0.19432 0.06655 0.10776 0.0
N617 N 0.13596 0.16559 0.2675 0.0
C618 C 0.12485 0.12386 0.23611 0.0
C619 C 0.05736 0.11417 0.31162 0.0
C620 C 0.0817 0.07485 0.24198 0.0
C621 C 0.10255 0.16146 0.30505 0.0
C622 C 0.0472 0.07044 0.28012 0.0
N623 N 0.20038 0.18041 0.1938 0.0
C624 C 0.23458 0.19107 0.1556 0.0
C625 C 0.15375 0.08832 0.16668 0.0
C626 C 0.15804 0.13028 0.19821 0.0
C627 C 0.19241 0.09776 0.131 0.0
C628 C 0.22913 0.148 0.1243 0.0
H629 H 1.01308 0.03356 0.28569 0.0
H630 H 0.04297 0.99378 0.21367 0.0
H631 H 0.10765 0.00554 0.14898 0.0
O632 O 0.21069 0.28266 0.23148 0.0
O633 O 0.23693 0.17776 0.23465 0.0
O634 O 0.31917 0.23768 0.22811 0.0
O635 O 0.16892 0.26561 0.29202 0.0
O636 O 0.29052 0.29159 0.21513 0.0
O637 O 0.36859 0.30931 0.22432 0.0
O638 O 0.35415 0.21102 0.27536 0.0
O639 O 0.34589 0.34166 0.28955 0.0
O640 O 0.26551 0.28267 0.30091 0.0
O641 O 0.42359 0.27648 0.25456 0.0
O642 O 0.27817 0.21658 0.31428 0.0
O643 O 0.20401 0.21415 0.31516 0.0
C644 C 0.28431 0.18964 0.22388 0.0
C645 C 0.13132 0.27814 0.25227 0.0
C646 C 0.096 0.28952 0.20764 0.0
C647 C 0.04617 0.25471 0.22574 0.0
C648 C 0.08111 0.24185 0.26865 0.0
C649 C 0.03902 0.23023 0.25534 0.0
C650 C 0.13837 0.30291 0.22237 0.0
C651 C 0.34269 0.31631 0.20587 0.0
C652 C 0.17653 0.28676 0.26279 0.0
C653 C 0.07538 0.03209 0.20983 0.0
C654 C 0.11221 0.03878 0.17273 0.0
C655 C 0.29915 0.33042 0.30047 0.0
C656 C 0.43154 0.21963 0.27566 0.0
C657 C 0.43315 0.17518 0.31896 0.0
C658 C 0.4873 0.20692 0.31172 0.0
C659 C 0.48556 0.24791 0.26673 0.0
C660 C 0.40574 0.18033 0.29891 0.0
C661 C 0.51317 0.24163 0.28484 0.0
C662 C 0.22705 0.19869 0.32702 0.0
C663 C 0.40265 0.2302 0.25948 0.0
H664 H 1.01318 0.24389 0.21469 0.0
H665 H 0.07464 0.21973 0.2893 0.0
H666 H 1.00102 0.2 0.26627 0.0
H667 H 0.17694 0.33001 0.20849 0.0
H668 H 0.50986 0.20434 0.32653 0.0
H669 H 0.50643 0.27635 0.24713 0.0
H670 H 0.36483 0.15373 0.30047 0.0
H671 H 0.55479 0.26469 0.27887 0.0
Tb672 Tb 0.49644 0.54688 0.03657 0.0
C673 C 0.60886 0.44492 0.8954 0.0
N674 N 0.56345 0.42259 0.92218 0.0
C675 C 0.5285 0.34985 0.86704 0.0
C676 C 0.61546 0.42114 0.85304 0.0
C677 C 0.52385 0.3747 0.9088 0.0
C678 C 0.57418 0.37333 0.83886 0.0
C679 C 0.69841 0.51377 0.88541 0.0
C680 C 0.64978 0.49058 0.91115 0.0
C681 C 0.70483 0.49136 0.84282 0.0
C682 C 0.66339 0.44509 0.82665 0.0
Tb683 Tb 0.56167 0.46814 0.98976 0.0
N684 N 0.64199 0.51173 0.95232 0.0
C685 C 0.73942 0.55773 0.90368 0.0
C686 C 0.68253 0.55193 0.97095 0.0
C687 C 0.73169 0.57617 0.94688 0.0
H688 H 0.48902 0.35486 0.93049 0.0
H689 H 0.76347 0.60824 0.96196 0.0
H690 H 0.56069 0.65265 0.10578 0.0
H691 H 0.29622 0.39525 0.04585 0.0
H692 H 0.67681 0.56442 1.00444 0.0
H693 H 0.77732 0.57618 0.88486 0.0
H694 H 0.38611 0.44348 0.01043 0.0
H695 H 0.49712 0.31219 0.85685 0.0
H696 H 0.74192 0.50884 0.8224 0.0
H697 H 0.66918 0.42754 0.79399 0.0
H698 H 0.54242 0.68633 0.18083 0.0
H699 H 0.57767 0.35356 0.80664 0.0
H700 H 0.27219 0.42095 0.1222 0.0
N701 N 0.48618 0.58394 0.10538 0.0
C702 C 0.43804 0.55767 0.12764 0.0
C703 C 0.51293 0.64986 0.16633 0.0
C704 C 0.4259 0.57623 0.17037 0.0
C705 C 0.52334 0.6301 0.12383 0.0
C706 C 0.46407 0.62268 0.18979 0.0
N707 N 0.41353 0.49503 0.06606 0.0
C708 C 0.37657 0.4547 0.04368 0.0
C709 C 0.34943 0.48551 0.12897 0.0
C710 C 0.4003 0.5124 0.10727 0.0
C711 C 0.31181 0.44237 0.10669 0.0
C712 C 0.32526 0.42767 0.06364 0.0
H713 H 0.45596 0.63837 0.22263 0.0
H714 H 0.36679 0.56171 0.22488 0.0
H715 H 0.29897 0.48288 0.18937 0.0
O716 O 0.45141 0.54672 1.00504 0.0
O717 O 0.47455 0.48968 0.07422 0.0
O718 O 0.48582 0.4247 0.02915 0.0
O719 O 0.49349 0.61296 0.04969 0.0
O720 O 0.48292 0.49797 0.97402 0.0
O721 O 0.48537 0.42946 0.97232 0.0
O722 O 0.60148 0.46855 0.02673 0.0
O723 O 0.59229 0.53124 0.95573 0.0
O724 O 0.56917 0.59036 0.99513 0.0
O725 O 0.56895 0.40463 0.97719 0.0
O726 O 0.58093 0.52344 0.05073 0.0
O727 O 0.5745 0.59006 0.05191 0.0
C728 C 0.46703 0.44297 0.06636 0.0
C729 C 0.48192 0.62755 0.99235 0.0
C730 C 0.4614 0.64574 0.94083 0.0
C731 C 0.50826 0.69341 0.94168 0.0
C732 C 0.52907 0.67493 0.99172 0.0
C733 C 0.54196 0.70755 0.96659 0.0
C734 C 0.44859 0.61279 0.9662 0.0
C735 C 0.46876 0.44963 0.95885 0.0
C736 C 0.4657 0.59445 0.02153 0.0
C737 C 0.37595 0.54824 0.19225 0.0
C738 C 0.33763 0.50325 0.17184 0.0
C739 C 0.59508 0.57518 0.96124 0.0
C740 C 0.5727 0.38706 0.03627 0.0
C741 C 0.58852 0.36237 0.08609 0.0
C742 C 0.53776 0.31966 0.08854 0.0
C743 C 0.52213 0.34413 0.03923 0.0
C744 C 0.60558 0.39629 0.06013 0.0
C745 C 0.50489 0.31069 0.06525 0.0
C746 C 0.59315 0.57177 0.06515 0.0
C747 C 0.59197 0.42246 1.00844 0.0
H748 H 0.51895 0.71952 0.92265 0.0
H749 H 0.55567 0.68725 0.01116 0.0
H750 H 0.57808 0.74421 0.9667 0.0
H751 H 0.41237 0.57611 0.96604 0.0
H752 H 0.52364 0.29325 0.10856 0.0
H753 H 0.49593 0.33642 0.02149 0.0
H754 H 0.64444 0.4297 0.05843 0.0
H755 H 0.4659 0.27768 0.06741 0.0
Tb756 Tb 0.75492 0.21057 0.2901 0.0
C757 C 0.92376 0.38138 0.21668 0.0
N758 N 0.88338 0.37783 0.24765 0.0
C759 C 0.93788 0.46412 0.28204 0.0
C760 C 0.97321 0.42633 0.21761 0.0
C761 C 0.8891 0.41985 0.27855 0.0
C762 C 0.9804 0.46703 0.25178 0.0
C763 C 0.95103 0.35079 0.14465 0.0
C764 C 0.91336 0.34351 0.18083 0.0
C765 C 1.0012 0.39371 0.14609 0.0
C766 C 1.0125 0.43118 0.18269 0.0
Tb767 Tb 0.80702 0.30116 0.23859 0.0
N768 N 0.86388 0.30426 0.17927 0.0
C769 C 0.9352 0.31936 0.10695 0.0
C770 C 0.84798 0.27488 0.14218 0.0
C771 C 0.884 0.28048 0.10541 0.0
H772 H 0.85618 0.41923 0.30098 0.0
H773 H 0.87191 0.25758 0.07574 0.0
H774 H 0.66813 0.09681 0.23685 0.0
H775 H 0.73679 0.28897 0.45557 0.0
H776 H 0.80756 0.24751 0.14153 0.0
H777 H 0.96004 0.33081 0.07869 0.0
H778 H 0.78379 0.27987 0.3838 0.0
H779 H 0.94242 0.49644 0.30745 0.0
H780 H 0.03029 0.40053 0.11818 0.0
H781 H 0.05046 0.46573 0.18244 0.0
H782 H 0.57435 0.04244 0.2459 0.0
H783 H 1.01788 0.50208 0.25365 0.0
H784 H 0.64167 0.24 0.46918 0.0
N785 N 0.66854 0.15042 0.29435 0.0
C786 C 0.63961 0.15749 0.33208 0.0
C787 C 0.5922 0.07558 0.26991 0.0
C788 C 0.58566 0.12613 0.33901 0.0
C789 C 0.64576 0.10758 0.26458 0.0
C790 C 0.56197 0.08563 0.30694 0.0
N791 N 0.71622 0.22552 0.35709 0.0
C792 C 0.74249 0.25817 0.38924 0.0
C793 C 0.63608 0.2007 0.40495 0.0
C794 C 0.66428 0.19433 0.36492 0.0
C795 C 0.66239 0.23531 0.43781 0.0
C796 C 0.71597 0.26304 0.43018 0.0
H797 H 0.52076 0.05951 0.31161 0.0
H798 H 0.5164 0.11129 0.38475 0.0
H799 H 0.56109 0.1787 0.44092 0.0
O800 O 0.79715 0.21406 0.32618 0.0
O801 O 0.71426 0.26627 0.3224 0.0
O802 O 0.7614 0.33596 0.29378 0.0
O803 O 0.72979 0.14232 0.30627 0.0
O804 O 0.83391 0.27221 0.29835 0.0
O805 O 0.82034 0.33119 0.30392 0.0
O806 O 0.74695 0.28811 0.21565 0.0
O807 O 0.84941 0.24678 0.20343 0.0
O808 O 0.80545 0.17957 0.23487 0.0
O809 O 0.82308 0.35582 0.20937 0.0
O810 O 0.7327 0.23468 0.22296 0.0
O811 O 0.74236 0.17454 0.22409 0.0
C812 C 0.71974 0.31308 0.32328 0.0
C813 C 0.79996 0.14024 0.31004 0.0
C814 C 0.85484 0.12563 0.32915 0.0
C815 C 0.84786 0.08635 0.2938 0.0
C816 C 0.79199 0.09968 0.27538 0.0
C817 C 0.81664 0.07342 0.26698 0.0
C818 C 0.83303 0.15432 0.33581 0.0
C819 C 0.84398 0.3183 0.31614 0.0
C820 C 0.76995 0.16459 0.32315 0.0
C821 C 0.55745 0.13469 0.37843 0.0
C822 C 0.58268 0.17207 0.41101 0.0
C823 C 0.84552 0.20091 0.20336 0.0
C824 C 0.75388 0.36528 0.21636 0.0
C825 C 0.71367 0.39343 0.19197 0.0
C826 C 0.73953 0.44207 0.21694 0.0
C827 C 0.7765 0.41342 0.24321 0.0
C828 C 0.7198 0.35446 0.19268 0.0
C829 C 0.76912 0.45142 0.24352 0.0
C830 C 0.7251 0.18923 0.20622 0.0
C831 C 0.77575 0.33266 0.20471 0.0
H832 H 0.86613 0.06562 0.28762 0.0
H833 H 0.76629 0.08777 0.25525 0.0
H834 H 0.81072 0.0426 0.24001 0.0
H835 H 0.83889 0.18534 0.36287 0.0
H836 H 0.73742 0.47301 0.21523 0.0
H837 H 0.80282 0.42295 0.26172 0.0
H838 H 0.7009 0.31713 0.17274 0.0
H839 H 0.78851 0.4891 0.26288 0.0
Tb840 Tb 0.99884 0.54214 0.53461 0.0
C841 C 0.11805 0.43994 0.51735 0.0
N842 N 0.12782 0.47474 0.49762 0.0
C843 C 0.21782 0.51995 0.4988 0.0
C844 C 0.15723 0.44528 0.53094 0.0
C845 C 0.17727 0.51344 0.48669 0.0
C846 C 0.20764 0.48621 0.52165 0.0
C847 C 0.05594 0.36094 0.54335 0.0
C848 C 0.06872 0.39795 0.52252 0.0
C849 C 0.09396 0.36745 0.55945 0.0
C850 C 0.14474 0.40925 0.55276 0.0
Tb851 Tb 0.05736 0.46353 0.48433 0.0
N852 N 0.03399 0.39206 0.50491 0.0
C853 C 1.00584 0.31779 0.54601 0.0
C854 C 0.98779 0.34635 0.50195 0.0
C855 C 0.97217 0.30954 0.524 0.0
H856 H 0.18477 0.54097 0.47092 0.0
H857 H 0.93427 0.2749 0.52399 0.0
H858 H 0.91132 0.52391 0.4919 0.0
H859 H 0.09685 0.72469 0.64052 0.0
H860 H 0.96107 0.34022 0.48581 0.0
H861 H 0.99377 0.28915 0.56276 0.0
H862 H 0.03868 0.62984 0.62413 0.0
H863 H 0.25669 0.55143 0.49112 0.0
H864 H 0.08502 0.33931 0.57546 0.0
H865 H 0.17412 0.41293 0.56402 0.0
H866 H 0.90799 0.57228 0.45259 0.0
H867 H 0.23891 0.49152 0.53139 0.0
H868 H 0.13614 0.77508 0.58493 0.0
N869 N 0.98364 0.58576 0.50803 0.0
C870 C 1.02096 0.63534 0.50767 0.0
C871 C 0.94046 0.59039 0.46757 0.0
C872 C 1.0223 0.66411 0.48484 0.0
C873 C 0.94212 0.56328 0.49009 0.0
C874 C 0.9816 0.64063 0.46383 0.0
N875 N 0.04162 0.62903 0.56157 0.0
C876 C 0.05297 0.65245 0.60085 0.0
C877 C 0.0879 0.71126 0.54199 0.0
C878 C 0.05285 0.6581 0.53547 0.0
C879 C 0.10773 0.73462 0.57887 0.0
C880 C 0.0863 0.70595 0.61008 0.0
H881 H 0.98032 0.6615 0.44641 0.0
H882 H 0.06525 0.73878 0.46842 0.0
H883 H 0.1247 0.7801 0.51748 0.0
O884 O 0.94314 0.55617 0.57731 0.0
O885 O 0.0419 0.55573 0.47032 0.0
O886 O 0.10434 0.54431 0.4693 0.0
O887 O 0.92455 0.47744 0.54353 0.0
O888 O 0.06465 0.57301 0.56524 0.0
O889 O 0.09883 0.52166 0.53613 0.0
O890 O 0.06488 0.46499 0.42215 0.0
O891 O 0.98453 0.42931 0.53118 0.0
O892 O 0.99115 0.4996 0.57836 0.0
O893 O 0.0776 0.4146 0.43588 0.0
O894 O 0.97767 0.42663 0.4759 0.0
O895 O 0.98205 0.49495 0.47088 0.0
C896 C 0.08905 0.56568 0.45507 0.0
C897 C 0.85644 0.48632 0.59313 0.0
C898 C 0.79917 0.51351 0.6396 0.0
C899 C 0.76116 0.47567 0.61573 0.0
C900 C 0.81762 0.4464 0.57074 0.0
C901 C 0.76953 0.44045 0.58297 0.0
C902 C 0.84565 0.51618 0.63026 0.0
C903 C 0.09745 0.56072 0.56394 0.0
C904 C 0.90892 0.50683 0.57148 0.0
C905 C 0.06252 0.71584 0.48622 0.0
C906 C 0.09636 0.73934 0.51429 0.0
C907 C 0.97476 0.4501 0.57069 0.0
C908 C 0.13589 0.45867 0.38232 0.0
C909 C 0.21043 0.4523 0.36134 0.0
C910 C 0.24086 0.50521 0.37591 0.0
C911 C 0.16846 0.51242 0.38742 0.0
C912 C 0.15759 0.42862 0.36536 0.0
C913 C 0.22073 0.53577 0.3856 0.0
C914 C 0.96661 0.44601 0.45646 0.0
C915 C 0.08395 0.43594 0.40719 0.0
H916 H 0.72711 0.47603 0.62049 0.0
H917 H 0.82523 0.42219 0.54235 0.0
H918 H 0.73967 0.4091 0.56633 0.0
H919 H 0.87638 0.54802 0.64691 0.0
H920 H 0.28041 0.52286 0.37836 0.0
H921 H 0.15325 0.53649 0.39724 0.0
H922 H 0.13323 0.38698 0.35964 0.0
H923 H 0.24467 0.5771 0.394 0.0
Tb924 Tb 0.74794 0.79055 0.28038 0.0
C925 C 0.78685 0.64352 0.29259 0.0
N926 N 0.81723 0.69474 0.29206 0.0
C927 C 0.85759 0.70788 0.34524 0.0
C928 C 0.78762 0.62344 0.32214 0.0
C929 C 0.85535 0.72587 0.31533 0.0
C930 C 0.82254 0.65675 0.34953 0.0
C931 C 0.72399 0.55771 0.26207 0.0
C932 C 0.75647 0.61073 0.2621 0.0
C933 C 0.72335 0.53796 0.29241 0.0
C934 C 0.75509 0.57061 0.3223 0.0
Tb935 Tb 0.80978 0.71918 0.24166 0.0
N936 N 0.75874 0.63116 0.23264 0.0
C937 C 0.69297 0.52611 0.23163 0.0
C938 C 0.7319 0.59952 0.20068 0.0
C939 C 0.69782 0.54687 0.20027 0.0
H940 H 0.88514 0.76433 0.31055 0.0
H941 H 0.67546 0.52225 0.17562 0.0
H942 H 0.67149 0.74556 0.21231 0.0
H943 H 0.88296 0.98637 0.34656 0.0
H944 H 0.73634 0.61398 0.17511 0.0
H945 H 0.6661 0.48548 0.23149 0.0
H946 H 0.8185 0.89566 0.34893 0.0
H947 H 0.88691 0.73331 0.36448 0.0
H948 H 0.69874 0.49733 0.29271 0.0
H949 H 0.75478 0.55446 0.34495 0.0
H950 H 0.66985 0.77713 0.1586 0.0
H951 H 0.82447 0.64283 0.37259 0.0
H952 H 0.89685 0.02228 0.28852 0.0
N953 N 0.73859 0.81562 0.23168 0.0
C954 C 0.7692 0.86674 0.23109 0.0
C955 C 0.69891 0.80251 0.17808 0.0
C956 C 0.76968 0.88665 0.20081 0.0
C957 C 0.70085 0.78436 0.20804 0.0
C958 C 0.73455 0.85355 0.17355 0.0
N959 N 0.79687 0.87867 0.29104 0.0
C960 C 0.82378 0.91006 0.32296 0.0
C961 C 0.83466 0.95178 0.2601 0.0
C962 C 0.79981 0.89927 0.26141 0.0
C963 C 0.86666 0.98269 0.28998 0.0
C964 C 0.85986 0.96218 0.32236 0.0
H965 H 0.73338 0.86742 0.15002 0.0
H966 H 0.80678 0.95476 0.17531 0.0
H967 H 0.86566 0.01068 0.22533 0.0
O968 O 0.70977 0.82857 0.31485 0.0
O969 O 0.82143 0.82544 0.23271 0.0
O970 O 0.82971 0.75927 0.19126 0.0
O971 O 0.66737 0.74518 0.2968 0.0
O972 O 0.79133 0.8091 0.32802 0.0
O973 O 0.85285 0.79499 0.28284 0.0
O974 O 0.84392 0.67734 0.20807 0.0
O975 O 0.73484 0.68466 0.28757 0.0
O976 O 0.73244 0.75283 0.33051 0.0
O977 O 0.89051 0.76036 0.22647 0.0
O978 O 0.76926 0.70246 0.19266 0.0
O979 O 0.70679 0.71551 0.23726 0.0
C980 C 0.84131 0.80667 0.19619 0.0
C981 C 0.63911 0.78232 0.36363 0.0
C982 C 0.62334 0.84324 0.41751 0.0
C983 C 0.57023 0.8062 0.4219 0.0
C984 C 0.58692 0.7437 0.37025 0.0
C985 C 0.55248 0.75535 0.40106 0.0
C986 C 0.6577 0.82798 0.39346 0.0
C987 C 0.83714 0.81553 0.32018 0.0
C988 C 0.66624 0.78555 0.32045 0.0
C989 C 0.80471 0.93887 0.19908 0.0
C990 C 0.83768 0.97102 0.22816 0.0
C991 C 0.71803 0.70455 0.32506 0.0
C992 C 0.91535 0.72123 0.15959 0.0
C993 C 0.93701 0.66487 0.10524 0.0
C994 C 0.98807 0.70625 0.09879 0.0
C995 C 0.96459 0.76394 0.15056 0.0
C996 C 0.89955 0.67442 0.13136 0.0
C997 C 1.00056 0.75643 0.11824 0.0
C998 C 0.72372 0.69629 0.19971 0.0
C999 C 0.88895 0.7188 0.20269 0.0
H1000 H 0.54247 0.81743 0.43725 0.0
H1001 H 0.57209 0.70773 0.34799 0.0
H1002 H 0.51164 0.72734 0.40405 0.0
H1003 H 0.69835 0.85754 0.38901 0.0
H1004 H 1.01856 0.69915 0.08279 0.0
H1005 H 0.97693 0.8012 0.17118 0.0
H1006 H 0.86086 0.64155 0.13739 0.0
H1007 H 0.03945 0.78833 0.11265 0.0
Tb1008 Tb 0.7399 0.28602 0.78118 0.0
C1009 C 0.86627 0.18155 0.65502 0.0
N1010 N 0.81923 0.16113 0.68021 0.0
C1011 C 0.78959 0.08084 0.6311 0.0
C1012 C 0.87712 0.15167 0.61727 0.0
C1013 C 0.7814 0.111 0.66934 0.0
C1014 C 0.83771 0.10125 0.60491 0.0
C1015 C 0.95527 0.25214 0.6453 0.0
C1016 C 0.90473 0.23151 0.66857 0.0
C1017 C 0.96642 0.222 0.60818 0.0
C1018 C 0.9273 0.17223 0.59393 0.0
Tb1019 Tb 0.81172 0.2145 0.74195 0.0
N1020 N 0.89316 0.25889 0.70565 0.0
C1021 C 0.99349 0.30177 0.66079 0.0
C1022 C 0.93091 0.3064 0.72186 0.0
C1023 C 0.98123 0.32901 0.69922 0.0
H1024 H 0.74561 0.09371 0.69089 0.0
H1025 H 1.01081 0.36689 0.71191 0.0
H1026 H 0.79234 0.39618 0.8518 0.0
H1027 H 0.55222 0.11072 0.78891 0.0
H1028 H 0.92229 0.32653 0.75233 0.0
H1029 H 0.0328 0.3189 0.64389 0.0
H1030 H 0.64366 0.16302 0.75932 0.0
H1031 H 0.75939 0.04132 0.62252 0.0
H1032 H 1.00529 0.23681 0.59044 0.0
H1033 H 0.93633 0.14926 0.56549 0.0
H1034 H 0.76093 0.4349 0.92025 0.0
H1035 H 0.84455 0.07722 0.57596 0.0
H1036 H 0.51325 0.14751 0.85431 0.0
N1037 N 0.71994 0.32525 0.84725 0.0
C1038 C 0.66946 0.29857 0.86522 0.0
C1039 C 0.73489 0.39644 0.90521 0.0
C1040 C 0.64948 0.32068 0.90343 0.0
C1041 C 0.75278 0.37373 0.86665 0.0
C1042 C 0.68297 0.37 0.92354 0.0
N1043 N 0.658 0.22826 0.80857 0.0
C1044 C 0.62795 0.17935 0.78831 0.0
C1045 C 0.58473 0.22069 0.86248 0.0
C1046 C 0.63744 0.24887 0.84511 0.0
C1047 C 0.55392 0.17044 0.84196 0.0
C1048 C 0.57578 0.14953 0.805 0.0
H1049 H 0.66908 0.38814 0.95303 0.0
H1050 H 0.58045 0.31012 0.94884 0.0
H1051 H 0.52365 0.22332 0.91244 0.0
O1052 O 0.68532 0.27854 0.75599 0.0
O1053 O 0.72342 0.23877 0.82472 0.0
O1054 O 0.7338 0.17375 0.78115 0.0
O1055 O 0.74191 0.35278 0.7847 0.0
O1056 O 0.72914 0.23448 0.71863 0.0
O1057 O 0.73905 0.17054 0.71737 0.0
O1058 O 0.83094 0.2152 0.79418 0.0
O1059 O 0.84143 0.27258 0.7021 0.0
O1060 O 0.81278 0.32816 0.73771 0.0
O1061 O 0.83035 0.16064 0.73743 0.0
O1062 O 0.83693 0.27678 0.79714 0.0
O1063 O 0.81214 0.33342 0.80654 0.0
C1064 C 0.71656 0.19306 0.81913 0.0
C1065 C 0.71967 0.34647 0.72391 0.0
C1066 C 0.69281 0.34528 0.66577 0.0
C1067 C 0.74454 0.36829 0.64547 0.0
C1068 C 0.77139 0.37509 0.70489 0.0
C1069 C 0.7836 0.38425 0.66512 0.0
C1070 C 0.68034 0.33096 0.70395 0.0
C1071 C 0.72223 0.18842 0.70149 0.0
C1072 C 0.70654 0.32793 0.76192 0.0
C1073 C 0.59669 0.29331 0.92001 0.0
C1074 C 0.56436 0.24371 0.89936 0.0
C1075 C 0.84208 0.31499 0.70547 0.0
C1076 C 0.88858 0.18849 0.78059 0.0
C1077 C 0.93124 0.17552 0.81669 0.0
C1078 C 0.97912 0.20729 0.79396 0.0
C1079 C 0.93687 0.22066 0.75839 0.0
C1080 C 0.88608 0.16617 0.80994 0.0
C1081 C 0.98182 0.22994 0.76502 0.0
C1082 C 0.83688 0.31923 0.81697 0.0
C1083 C 0.84059 0.17894 0.77494 0.0
H1084 H 0.75472 0.37341 0.61404 0.0
H1085 H 0.80242 0.38877 0.7199 0.0
H1086 H 0.82337 0.40363 0.64942 0.0
H1087 H 0.64042 0.3079 0.71811 0.0
H1088 H 1.01416 0.21463 0.7988 0.0
H1089 H 0.94003 0.23748 0.73517 0.0
H1090 H 0.84909 0.14155 0.82757 0.0
H1091 H 1.01878 0.2544 0.74739 0.0
Tb1092 Tb 0.71328 0.73498 0.74642 0.0
C1093 C 0.95062 0.8844 0.79531 0.0
N1094 N 0.93557 0.84178 0.76488 0.0
C1095 C 1.01311 0.88833 0.71768 0.0
C1096 C 0.99492 0.93194 0.78723 0.0
C1097 C 0.9658 0.84323 0.72612 0.0
C1098 C 1.02767 0.93311 0.74841 0.0
C1099 C 0.92186 0.92559 0.86116 0.0
C1100 C 0.91781 0.88113 0.83316 0.0
C1101 C 0.96455 0.97379 0.8527 0.0
C1102 C 1.00234 0.97686 0.81675 0.0
Tb1103 Tb 0.8506 0.77813 0.77802 0.0
N1104 N 0.87494 0.83446 0.8382 0.0
C1105 C 0.87992 0.91931 0.89401 0.0
C1106 C 0.84137 0.82804 0.87531 0.0
C1107 C 0.84201 0.87078 0.90344 0.0
H1108 H 0.95135 0.81065 0.70105 0.0
H1109 H 0.81187 0.86618 0.93076 0.0
H1110 H 0.60059 0.66388 0.80554 0.0
H1111 H 0.77275 0.70228 0.57787 0.0
H1112 H 0.8117 0.79011 0.88106 0.0
H1113 H 0.87541 0.95091 0.91203 0.0
H1114 H 0.76061 0.75743 0.64534 0.0
H1115 H 0.03653 0.88962 0.68668 0.0
H1116 H 0.96873 0.0089 0.87308 0.0
H1117 H 0.03527 0.0142 0.81086 0.0
H1118 H 0.5354 0.57085 0.80029 0.0
H1119 H 0.06251 0.96875 0.74103 0.0
H1120 H 0.73204 0.60961 0.57404 0.0
N1121 N 0.6386 0.6561 0.74206 0.0
C1122 C 0.64 0.62311 0.70585 0.0
C1123 C 0.56411 0.5854 0.77324 0.0
C1124 C 0.6072 0.56977 0.70304 0.0
C1125 C 0.60078 0.63822 0.77578 0.0
C1126 C 0.56774 0.55088 0.7368 0.0
N1127 N 0.70967 0.6949 0.67778 0.0
C1128 C 0.74065 0.71661 0.64348 0.0
C1129 C 0.68789 0.61137 0.63705 0.0
C1130 C 0.67834 0.64336 0.67284 0.0
C1131 C 0.72379 0.63306 0.60271 0.0
C1132 C 0.74759 0.6856 0.60508 0.0
H1133 H 0.54166 0.50992 0.73585 0.0
H1134 H 0.5946 0.49649 0.6664 0.0
H1135 H 0.67602 0.53631 0.614 0.0
O1136 O 0.71049 0.79309 0.73758 0.0
O1137 O 0.72577 0.67286 0.73662 0.0
O1138 O 0.80853 0.72997 0.72839 0.0
O1139 O 0.65276 0.74672 0.78289 0.0
O1140 O 0.78944 0.79129 0.70869 0.0
O1141 O 0.8646 0.80379 0.71917 0.0
O1142 O 0.8352 0.71784 0.80052 0.0
O1143 O 0.83601 0.84178 0.80549 0.0
O1144 O 0.77074 0.781 0.7814 0.0
O1145 O 0.89752 0.74693 0.7496 0.0
O1146 O 0.77473 0.73113 0.82086 0.0
O1147 O 0.69812 0.71227 0.80688 0.0
C1148 C 0.77186 0.68273 0.73107 0.0
C1149 C 0.63023 0.78381 0.75176 0.0
C1150 C 0.61729 0.81801 0.70846 0.0
C1151 C 0.5643 0.78034 0.7152 0.0
C1152 C 0.57716 0.74818 0.76029 0.0
C1153 C 0.54415 0.74679 0.74208 0.0
C1154 C 0.64891 0.82172 0.72969 0.0
C1155 C 0.84125 0.8124 0.70016 0.0
C1156 C 0.66791 0.78271 0.76432 0.0
C1157 C 0.61846 0.53761 0.66843 0.0
C1158 C 0.66227 0.55938 0.63769 0.0
C1159 C 0.793 0.82853 0.79964 0.0
C1160 C 0.90032 0.7003 0.78729 0.0
C1161 C 0.90528 0.66705 0.83724 0.0
C1162 C 0.95813 0.68747 0.82039 0.0
C1163 C 0.95199 0.71685 0.76909 0.0
C1164 C 0.87608 0.67188 0.81933 0.0
C1165 C 0.98089 0.7109 0.78587 0.0
C1166 C 0.723 0.70901 0.82867 0.0
C1167 C 0.87184 0.71284 0.77322 0.0
H1168 H 0.53847 0.77739 0.70006 0.0
H1169 H 0.56178 0.72015 0.77909 0.0
H1170 H 0.50331 0.71848 0.74747 0.0
H1171 H 0.68842 0.85348 0.72872 0.0
H1172 H 0.98175 0.68442 0.83356 0.0
H1173 H 0.97047 0.73645 0.7432 0.0
H1174 H 0.83501 0.65442 0.83038 0.0
H1175 H 1.02123 0.72536 0.77267 0.0
Tb1176 Tb 0.48326 0.47762 0.48467 0.0
C1177 C 0.65545 0.65033 0.55367 0.0
N1178 N 0.65298 0.60945 0.52378 0.0
C1179 C 0.73596 0.66537 0.4866 0.0
C1180 C 0.69731 0.70065 0.55047 0.0
C1181 C 0.69446 0.61597 0.49216 0.0
C1182 C 0.73676 0.70808 0.51536 0.0
C1183 C 0.62489 0.68013 0.6251 0.0
C1184 C 0.61959 0.64058 0.59019 0.0
C1185 C 0.66474 0.73071 0.62163 0.0
C1186 C 0.70098 0.74104 0.58427 0.0
Tb1187 Tb 0.57777 0.53214 0.53353 0.0
N1188 N 0.58294 0.59104 0.59303 0.0
C1189 C 0.59285 0.66695 0.66331 0.0
C1190 C 0.55622 0.5775 0.63102 0.0
C1191 C 0.55879 0.61535 0.66661 0.0
H1192 H 0.69499 0.58314 0.47036 0.0
H1193 H 0.53624 0.60488 0.69665 0.0
H1194 H 0.36391 0.42606 0.54597 0.0
H1195 H 0.52997 0.39611 0.32448 0.0
H1196 H 0.53304 0.53759 0.63327 0.0
H1197 H 0.59717 0.69609 0.6909 0.0
H1198 H 0.52863 0.46608 0.38318 0.0
H1199 H 0.76758 0.67042 0.4605 0.0
H1200 H 0.67011 0.76086 0.64895 0.0
H1201 H 0.7344 0.77927 0.58294 0.0
H1202 H 0.29406 0.33916 0.55903 0.0
H1203 H 0.7695 0.74626 0.5116 0.0
H1204 H 0.47474 0.30665 0.33572 0.0
N1205 N 0.40887 0.40001 0.49586 0.0
C1206 C 0.40832 0.35868 0.46816 0.0
C1207 C 0.32643 0.34411 0.53373 0.0
C1208 C 0.36885 0.30837 0.47375 0.0
C1209 C 0.36633 0.39334 0.52633 0.0
C1210 C 0.32856 0.30139 0.50813 0.0
N1211 N 0.47933 0.41631 0.4267 0.0
C1212 C 0.50593 0.42704 0.38778 0.0
C1213 C 0.44206 0.32603 0.39942 0.0
C1214 C 0.44428 0.36713 0.43171 0.0
C1215 C 0.47502 0.33702 0.36106 0.0
C1216 C 0.50613 0.3876 0.3547 0.0
H1217 H 0.29734 0.26321 0.51349 0.0
H1218 H 0.33843 0.22836 0.44716 0.0
H1219 H 0.40369 0.24378 0.38135 0.0
O1220 O 0.49576 0.52297 0.44618 0.0
O1221 O 0.53874 0.4365 0.45111 0.0
O1222 O 0.6108 0.48559 0.47748 0.0
O1223 O 0.42002 0.46007 0.46481 0.0
O1224 O 0.54546 0.55738 0.47475 0.0
O1225 O 0.60568 0.54417 0.46748 0.0
O1226 O 0.56283 0.47999 0.5663 0.0
O1227 O 0.52395 0.57463 0.56846 0.0
O1228 O 0.45148 0.52425 0.54217 0.0
O1229 O 0.63868 0.54671 0.55488 0.0
O1230 O 0.51228 0.45522 0.54709 0.0
O1231 O 0.45325 0.46884 0.55145 0.0
C1232 C 0.5867 0.44297 0.44879 0.0
C1233 C 0.42694 0.53523 0.46048 0.0
C1234 C 0.41734 0.59219 0.43755 0.0
C1235 C 0.37615 0.58504 0.47212 0.0
C1236 C 0.38732 0.53086 0.49493 0.0
C1237 C 0.36284 0.55654 0.50106 0.0
C1238 C 0.4434 0.56778 0.43349 0.0
C1239 C 0.59218 0.56855 0.45682 0.0
C1240 C 0.44691 0.50098 0.44851 0.0
C1241 C 0.36887 0.26689 0.44319 0.0
C1242 C 0.40548 0.27568 0.40592 0.0
C1243 C 0.47535 0.56692 0.57113 0.0
C1244 C 0.63225 0.46951 0.55343 0.0
C1245 C 0.63998 0.40699 0.56926 0.0
C1246 C 0.67922 0.4138 0.53351 0.0
C1247 C 0.67458 0.47863 0.52052 0.0
C1248 C 0.61392 0.43232 0.57684 0.0
C1249 C 0.69698 0.44989 0.51003 0.0
C1250 C 0.46675 0.44732 0.56553 0.0
C1251 C 0.61103 0.50283 0.56717 0.0
H1252 H 0.35204 0.59949 0.47652 0.0
H1253 H 0.37362 0.50584 0.51603 0.0
H1254 H 0.33151 0.55221 0.52726 0.0
H1255 H 0.47381 0.56933 0.40772 0.0
H1256 H 0.69688 0.39148 0.52339 0.0
H1257 H 0.69031 0.50775 0.50273 0.0
H1258 H 0.58208 0.42618 0.60296 0.0
H1259 H 0.72836 0.45564 0.4836 0.0
Tb1260 Tb 0.99435 0.42611 0.02563 0.0
C1261 C 0.16749 0.66002 0.9787 0.0
N1262 N 0.12702 0.651 0.01062 0.0
C1263 C 0.18376 0.72293 0.05615 0.0
C1264 C 0.21821 0.69714 0.98541 0.0
C1265 C 0.13434 0.68234 0.04897 0.0
C1266 C 0.22608 0.72978 0.02439 0.0
C1267 C 0.19872 0.62661 0.90955 0.0
C1268 C 0.15805 0.62764 0.94048 0.0
C1269 C 0.24932 0.66142 0.91693 0.0
C1270 C 0.25914 0.69729 0.9544 0.0
Tb1271 Tb 0.05306 0.57304 0.99892 0.0
N1272 N 0.10846 0.58992 0.93705 0.0
C1273 C 0.18652 0.58682 0.87454 0.0
C1274 C 0.09679 0.55653 0.90011 0.0
C1275 C 0.13585 0.55381 0.86831 0.0
H1276 H 0.10217 0.67523 0.07427 0.0
H1277 H 0.12657 0.52404 0.84047 0.0
H1278 H 0.95807 0.32866 0.94326 0.0
H1279 H 0.90509 0.45745 0.18025 0.0
H1280 H 0.05752 0.52828 0.89667 0.0
H1281 H 0.21546 0.5801 0.85295 0.0
H1282 H 0.97998 0.45745 0.12925 0.0
H1283 H 0.1897 0.74771 0.08651 0.0
H1284 H 0.28104 0.66 0.89489 0.0
H1285 H 0.29808 0.72255 0.96035 0.0
H1286 H 0.87636 0.2481 0.92645 0.0
H1287 H 0.26452 0.75927 0.03057 0.0
H1288 H 0.82132 0.40368 0.15767 0.0
N1289 N 0.92628 0.34478 1.00734 0.0
C1290 C 0.88315 0.33034 0.03698 0.0
C1291 C 0.87816 0.27049 0.95795 0.0
C1292 C 0.835 0.28772 0.02791 0.0
C1293 C 0.92445 0.31576 0.96777 0.0
C1294 C 0.83316 0.2563 0.98822 0.0
N1295 N 0.93464 0.40017 0.08345 0.0
C1296 C 0.94167 0.4289 0.12274 0.0
C1297 C 0.8434 0.35726 0.10453 0.0
C1298 C 0.88711 0.36096 0.07594 0.0
C1299 C 0.85141 0.39701 0.1396 0.0
C1300 C 0.89967 0.42946 0.15124 0.0
H1301 H 0.79699 0.22282 0.97995 0.0
H1302 H 0.75264 0.24882 0.05128 0.0
H1303 H 0.75998 0.31278 0.11674 0.0
O1304 O 0.04572 0.42564 0.04911 0.0
O1305 O 0.93954 0.45212 0.05937 0.0
O1306 O 1.00272 0.5132 0.03104 0.0
O1307 O 1.02171 0.37678 0.99163 0.0
O1308 O 0.04666 0.49816 0.06863 0.0
O1309 O 0.07096 0.57838 0.05835 0.0
O1310 O 1.00085 0.57526 0.97943 0.0
O1311 O 0.10822 0.54775 0.97484 0.0
O1312 O 0.04154 0.47054 0.97815 0.0
O1313 O 0.03256 0.62807 0.03426 0.0
O1314 O 0.99442 0.50207 0.95995 0.0
O1315 O 0.96784 0.42134 0.97073 0.0
C1316 C 0.95731 0.4963 0.05308 0.0
C1317 C 0.04525 0.34827 0.03034 0.0
C1318 C 0.07022 0.32325 0.07311 0.0
C1319 C 1.02657 0.27315 0.06598 0.0
C1320 C 1.00498 0.29695 0.02113 0.0
C1321 C 0.99587 0.25986 0.03891 0.0
C1322 C 0.08053 0.36019 0.05322 0.0
C1323 C 0.07147 0.55014 0.07846 0.0
C1324 C 0.04847 0.3898 0.01881 0.0
C1325 C 0.79038 0.28048 0.0578 0.0
C1326 C 0.79454 0.31679 0.0953 0.0
C1327 C 0.09078 0.50024 0.97343 0.0
C1328 C 0.99589 0.64883 0.99969 0.0
C1329 C 0.95151 0.65847 0.96282 0.0
C1330 C 0.98745 0.71183 0.96934 0.0
C1331 C 0.03218 0.70186 1.00503 0.0
C1332 C 0.9542 0.62808 0.98069 0.0
C1333 C 1.02703 0.73344 0.99088 0.0
C1334 C 0.96535 0.44998 0.9524 0.0
C1335 C 1.00155 0.61256 1.00978 0.0
H1336 H 1.01625 0.2436 0.08109 0.0
H1337 H 0.97761 0.28647 1.00331 0.0
H1338 H 0.96318 0.22138 0.03343 0.0
H1339 H 0.11476 0.39821 0.05596 0.0
H1340 H 0.98522 0.73668 0.95726 0.0
H1341 H 0.06508 0.71832 0.01878 0.0
H1342 H 0.92519 0.58747 0.97796 0.0
H1343 H 0.05487 0.77439 0.99508 0.0
C1344 C 0.21414 0.15091 0.87219 0.0
C1345 C 0.19716 0.17479 0.85814 0.0
C1346 C 0.1186 0.13857 0.91392 0.0
C1347 C 0.13289 0.11009 0.92421 0.0
N1348 N 0.18661 0.07399 0.89318 0.0
N1349 N 0.11577 0.15808 0.85435 0.0
C1350 C 0.17846 0.11195 0.89768 0.0
C1351 C 0.14447 0.15955 0.87596 0.0
N1352 N 0.26397 0.16379 0.86204 0.0
N1353 N 0.08043 0.14641 0.93957 0.0
H1354 H 0.12927 0.16399 0.82372 0.0
H1355 H 0.07608 0.14165 0.86425 0.0
H1356 H 0.06367 0.13728 0.9692 0.0
H1357 H 0.07055 0.16821 0.93313 0.0
H1358 H 0.27759 0.15095 0.8755 0.0
H1359 H 0.29295 0.19077 0.84428 0.0
H1360 H 0.217 0.07145 0.87168 0.0
H1361 H 0.15881 0.04077 0.9051 0.0
C1362 C 0.15736 0.92488 0.14198 0.0
C1363 C 0.15283 0.8966 0.09995 0.0
C1364 C 0.13687 0.82337 0.12064 0.0
C1365 C 0.1439 0.85221 0.16154 0.0
N1366 N 0.14924 0.9231 0.21463 0.0
N1367 N 0.13999 0.81924 0.04902 0.0
C1368 C 0.15052 0.90115 0.17316 0.0
C1369 C 0.14336 0.84612 0.08923 0.0
N1370 N 0.17124 0.97514 0.1512 0.0
N1371 N 0.11844 0.77222 0.11273 0.0
H1372 H 0.13423 0.82901 0.02663 0.0
H1373 H 0.14489 0.78806 0.03757 0.0
H1374 H 0.11421 0.75356 0.134 0.0
H1375 H 0.10268 0.7477 0.08632 0.0
H1376 H 0.17132 0.99735 0.18111 0.0
H1377 H 0.18678 0.99667 0.12823 0.0
H1378 H 0.15091 0.95782 0.22814 0.0
H1379 H 0.15091 0.95782 0.22814 0.0
C1380 C 0.39368 0.90925 0.41485 0.0
C1381 C 0.43771 0.90893 0.41354 0.0
C1382 C 0.41749 0.8416 0.34879 0.0
C1383 C 0.37209 0.84051 0.35082 0.0
N1384 N 0.30843 0.85873 0.3979 0.0
N1385 N 0.4844 0.86559 0.38259 0.0
C1386 C 0.35809 0.87071 0.3871 0.0
C1387 C 0.44728 0.87236 0.38155 0.0
N1388 N 0.38471 0.94565 0.44318 0.0
N1389 N 0.4337 0.81401 0.31527 0.0
H1390 H 0.50863 0.88806 0.40429 0.0
H1391 H 0.48831 0.83467 0.36446 0.0
H1392 H 0.41081 0.78521 0.29416 0.0
H1393 H 0.47089 0.8211 0.30754 0.0
H1394 H 0.35645 0.95105 0.44251 0.0
H1395 H 0.40792 0.97283 0.46519 0.0
H1396 H 0.2941 0.87558 0.42604 0.0
H1397 H 0.28014 0.82682 0.38142 0.0
C1398 C 0.39854 0.06995 0.60875 0.0
C1399 C 0.44064 0.11639 0.62551 0.0
C1400 C 0.49178 0.08076 0.60069 0.0
C1401 C 0.45629 0.03785 0.57665 0.0
N1402 N 0.37358 0.99048 0.55635 0.0
N1403 N 0.53342 0.17125 0.61784 0.0
C1404 C 0.40856 0.03188 0.57975 0.0
C1405 C 0.48976 0.12412 0.61259 0.0
N1406 N 0.35018 0.06164 0.62157 0.0
N1407 N 0.51656 0.07626 0.62181 0.0
H1408 H 0.53428 0.20568 0.62641 0.0
H1409 H 0.53428 0.20568 0.62641 0.0
H1410 H 0.51008 0.04082 0.62054 0.0
H1411 H 0.53691 0.10637 0.6447 0.0
H1412 H 0.31793 0.02727 0.61175 0.0
H1413 H 0.34229 0.08864 0.64356 0.0
H1414 H 0.34045 0.9871 0.55453 0.0
H1415 H 0.37967 0.96115 0.53707 0.0
C1416 C 0.082 0.82222 0.65245 0.0
C1417 C 0.10532 0.84462 0.61606 0.0
C1418 C 0.19083 0.88484 0.63239 0.0
C1419 C 0.16713 0.86254 0.66847 0.0
N1420 N 0.09207 0.80102 0.70779 0.0
N1421 N 0.18266 0.8825 0.56472 0.0
C1422 C 0.1133 0.82839 0.67683 0.0
C1423 C 0.16009 0.87226 0.60426 0.0
N1424 N 0.02987 0.79656 0.66489 0.0
N1425 N 0.24297 0.91784 0.62476 0.0
H1426 H 0.16179 0.87072 0.54197 0.0
H1427 H 0.22168 0.89724 0.55258 0.0
H1428 H 0.26711 0.92609 0.64337 0.0
H1429 H 0.26198 0.93918 0.60128 0.0
H1430 H 1.01109 0.78323 0.69278 0.0
H1431 H 1.00507 0.79301 0.64988 0.0
H1432 H 0.05497 0.76894 0.71057 0.0
H1433 H 0.11304 0.80674 0.72809 0.0
C1434 C 0.37905 0.83144 0.88617 0.0
C1435 C 0.38954 0.85025 0.85009 0.0
C1436 C 0.4661 0.93067 0.87805 0.0
C1437 C 0.45335 0.91288 0.91514 0.0
N1438 N 0.39336 0.84608 0.95505 0.0
N1439 N 0.45898 0.90808 0.80522 0.0
C1440 C 0.40889 0.86319 0.91895 0.0
C1441 C 0.43727 0.89766 0.84449 0.0
N1442 N 0.34324 0.78129 0.88834 0.0
N1443 N 0.50465 0.98023 0.87525 0.0
H1444 H 0.44302 0.88112 0.77941 0.0
H1445 H 0.49605 0.93884 0.79758 0.0
H1446 H 0.52554 0.0055 0.8991 0.0
H1447 H 0.51225 0.99746 0.85138 0.0
H1448 H 0.34553 0.76249 0.90554 0.0
H1449 H 0.31469 0.75744 0.87068 0.0
H1450 H 0.35699 0.8148 0.9633 0.0
H1451 H 0.41622 0.86459 0.97757 0.0
C1452 C 0.28225 0.06561 0.1748 0.0
C1453 C 0.30689 0.07412 0.13337 0.0
C1454 C 0.32583 0.16135 0.15316 0.0
C1455 C 0.29681 0.15202 0.19392 0.0
N1456 N 0.25993 0.10183 0.247 0.0
N1457 N 0.37537 0.13707 0.09116 0.0
C1458 C 0.27907 0.10608 0.20593 0.0
C1459 C 0.33596 0.12416 0.12496 0.0
N1460 N 0.26354 0.01963 0.18427 0.0
N1461 N 0.34135 0.20386 0.13984 0.0
H1462 H 0.38606 0.11149 0.07037 0.0
H1463 H 0.40172 0.17485 0.08678 0.0
H1464 H 0.33298 0.23171 0.15757 0.0
H1465 H 0.35731 0.20842 0.10883 0.0
H1466 H 0.24846 0.01153 0.21416 0.0
H1467 H 0.26224 0.98811 0.1617 0.0
H1468 H 0.24478 0.06946 0.25867 0.0
H1469 H 0.26125 0.13249 0.27055 0.0
C1470 C 0.13853 0.07134 0.37438 0.0
C1471 C 0.13493 0.09089 0.41898 0.0
C1472 C 0.18433 0.17838 0.40244 0.0
C1473 C 0.19345 0.16069 0.35845 0.0
N1474 N 0.15972 0.08689 0.30399 0.0
N1475 N 0.17532 0.16704 0.47051 0.0
C1476 C 0.16563 0.10602 0.34482 0.0
C1477 C 0.16373 0.14552 0.4314 0.0
N1478 N 0.11761 0.01978 0.35936 0.0
N1479 N 0.18925 0.22505 0.41715 0.0
H1480 H 0.16898 0.14495 0.48988 0.0
H1481 H 0.19845 0.20663 0.48044 0.0
H1482 H 0.19557 0.24583 0.39683 0.0
H1483 H 0.17891 0.23832 0.44877 0.0
H1484 H 0.12598 0.00416 0.3281 0.0
H1485 H 0.09444 0.99216 0.37791 0.0
H1486 H 0.13483 0.04844 0.29214 0.0
H1487 H 0.17555 0.11067 0.28275 0.0
C1488 C 0.89634 0.15663 0.12208 0.0
C1489 C 0.88338 0.17041 0.16919 0.0
C1490 C 0.9351 0.12029 0.1547 0.0
C1491 C 0.94871 0.10724 0.1077 0.0
N1492 N 0.93844 0.12535 0.052 0.0
N1493 N 0.90798 0.16591 0.22426 0.0
C1494 C 0.92709 0.12908 0.09425 0.0
C1495 C 0.90779 0.15121 0.18244 0.0
N1496 N 0.87812 0.1704 0.10217 0.0
N1497 N 0.94716 0.10066 0.1748 0.0
H1498 H 0.89168 0.18726 0.24414 0.0
H1499 H 0.92774 0.16136 0.23873 0.0
H1500 H 0.96682 0.08176 0.15824 0.0
H1501 H 0.93449 0.09916 0.20646 0.0
H1502 H 0.87626 0.15852 0.07057 0.0
H1503 H 0.8622 0.19274 0.1189 0.0
H1504 H 0.92816 0.1384 0.03587 0.0
H1505 H 0.96125 0.11054 0.03261 0.0
C1506 C 0.169 0.64815 0.42535 0.0
C1507 C 0.12299 0.59863 0.41935 0.0
C1508 C 0.13741 0.61286 0.34729 0.0
C1509 C 0.185 0.66094 0.35247 0.0
N1510 N 0.24859 0.72004 0.39635 0.0
N1511 N 0.06752 0.53233 0.37049 0.0
C1512 C 0.20106 0.67726 0.39167 0.0
C1513 C 0.1084 0.58106 0.3792 0.0
N1514 N 0.18137 0.66872 0.46424 0.0
N1515 N 0.11862 0.59789 0.31194 0.0
H1516 H 0.04493 0.50864 0.39239 0.0
H1517 H 0.05805 0.51376 0.34088 0.0
H1518 H 0.13902 0.61824 0.28761 0.0
H1519 H 0.08149 0.56766 0.30784 0.0
H1520 H 0.20972 0.70677 0.47336 0.0
H1521 H 0.16011 0.64842 0.48854 0.0
H1522 H 0.2661 0.73144 0.42134 0.0
H1523 H 0.27248 0.74211 0.37334 0.0
C1524 C 0.61647 0.8933 0.64951 0.0
C1525 C 0.63127 0.8699 0.60898 0.0
C1526 C 0.67197 0.85035 0.64106 0.0
C1527 C 0.63801 0.85292 0.67941 0.0
N1528 N 0.58691 0.88915 0.72291 0.0
N1529 N 0.68363 0.83518 0.56562 0.0
C1530 C 0.61356 0.87895 0.68465 0.0
C1531 C 0.66311 0.8519 0.60455 0.0
N1532 N 0.61034 0.93253 0.65493 0.0
N1533 N 0.71443 0.85078 0.63972 0.0
H1534 H 0.67991 0.83894 0.53851 0.0
H1535 H 0.70346 0.8173 0.56066 0.0
H1536 H 0.72456 0.85288 0.66589 0.0
H1537 H 0.7429 0.85523 0.61308 0.0
H1538 H 0.6056 0.95416 0.68445 0.0
H1539 H 0.61762 0.94776 0.6301 0.0
H1540 H 0.5631 0.90253 0.72714 0.0
H1541 H 0.58765 0.88242 0.74989 0.0
C1542 C 0.39402 0.36348 0.92423 0.0
C1543 C 0.43073 0.41769 0.92724 0.0
C1544 C 0.38386 0.41454 0.88103 0.0
C1545 C 0.35673 0.36007 0.86975 0.0
N1546 N 0.33055 0.28325 0.88816 0.0
N1547 N 0.46361 0.49168 0.89808 0.0
C1548 C 0.36126 0.33505 0.89317 0.0
C1549 C 0.42644 0.44223 0.90266 0.0
N1550 N 0.38657 0.33904 0.95312 0.0
N1551 N 0.36616 0.44026 0.8752 0.0
H1552 H 0.49791 0.51276 0.90908 0.0
H1553 H 0.46313 0.50921 0.87836 0.0
H1554 H 0.33003 0.42057 0.86736 0.0
H1555 H 0.38258 0.4799 0.88521 0.0
H1556 H 0.35655 0.30154 0.95584 0.0
H1557 H 0.40633 0.35718 0.97768 0.0
H1558 H 0.33696 0.26072 0.89753 0.0
H1559 H 0.29782 0.2641 0.87546 0.0
C1560 C 0.86029 0.82781 0.38976 0.0
C1561 C 0.87238 0.84701 0.35366 0.0
C1562 C 0.95094 0.92519 0.38075 0.0
C1563 C 0.94049 0.90474 0.41595 0.0
N1564 N 0.88742 0.82869 0.447 0.0
N1565 N 0.9358 0.91107 0.31185 0.0
C1566 C 0.8959 0.85384 0.41829 0.0
C1567 C 0.91963 0.89483 0.34851 0.0
N1568 N 0.81422 0.78368 0.39701 0.0
N1569 N 0.99126 0.97417 0.3775 0.0
H1570 H 0.9136 0.89126 0.28868 0.0
H1571 H 0.97249 0.94151 0.30296 0.0
H1572 H 1.01915 0.99588 0.39615 0.0
H1573 H 0.99604 0.99438 0.35722 0.0
H1574 H 0.79863 0.77131 0.42539 0.0
H1575 H 0.79036 0.76044 0.37499 0.0
H1576 H 0.86069 0.78959 0.44635 0.0
H1577 H 0.90973 0.84493 0.46944 0.0
C1578 C 0.46572 0.65872 0.62328 0.0
C1579 C 0.44369 0.60225 0.60612 0.0
C1580 C 0.35907 0.60918 0.65351 0.0
C1581 C 0.38016 0.66613 0.66744 0.0
N1582 N 0.46691 0.73991 0.65534 0.0
N1583 N 0.35695 0.52919 0.60879 0.0
C1584 C 0.43664 0.68787 0.6489 0.0
C1585 C 0.38713 0.58063 0.62277 0.0
N1586 N 0.518 0.68781 0.61501 0.0
N1587 N 0.30949 0.57907 0.67182 0.0
H1588 H 0.37228 0.50622 0.59228 0.0
H1589 H 0.31736 0.51016 0.61096 0.0
H1590 H 0.28734 0.59414 0.6917 0.0
H1591 H 0.29217 0.54016 0.67104 0.0
H1592 H 0.5387 0.72703 0.62736 0.0
H1593 H 0.54008 0.6716 0.59732 0.0
H1594 H 0.45275 0.76402 0.67175 0.0
H1595 H 0.45275 0.76402 0.67175 0.0
C1596 C 0.65291 0.15347 0.93268 0.0
C1597 C 0.62999 0.09903 0.92275 0.0
C1598 C 0.65801 0.106 0.84683 0.0
C1599 C 0.68489 0.16118 0.85584 0.0
N1600 N 0.69696 0.23558 0.91203 0.0
N1601 N 0.62382 0.02678 0.86822 0.0
C1602 C 0.67925 0.18424 0.90009 0.0
C1603 C 0.63684 0.0767 0.87927 0.0
N1604 N 0.65334 0.17683 0.97396 0.0
N1605 N 0.64697 0.0801 0.8077 0.0
H1606 H 0.60751 0.0039 0.89016 0.0
H1607 H 0.63358 0.00983 0.83784 0.0
H1608 H 0.6538 0.09819 0.78484 0.0
H1609 H 0.62343 0.04025 0.80006 0.0
H1610 H 0.67484 0.21634 0.98459 0.0
H1611 H 0.63554 0.15624 0.998 0.0
H1612 H 0.68448 0.25217 0.94137 0.0
H1613 H 0.72266 0.26239 0.89303 0.0
C1614 C 0.10946 0.36846 0.14001 0.0
C1615 C 0.10302 0.33302 0.1009 0.0
C1616 C 0.09905 0.27384 0.13056 0.0
C1617 C 0.10355 0.30729 0.17027 0.0
N1618 N 0.12804 0.39293 0.20972 0.0
N1619 N 0.12138 0.26869 0.05578 0.0
C1620 C 0.11442 0.35716 0.17388 0.0
C1621 C 0.11032 0.29273 0.09518 0.0
N1622 N 0.10913 0.41159 0.14564 0.0
N1623 N 0.07857 0.22277 0.12675 0.0
H1624 H 0.12788 0.28164 0.02943 0.0
H1625 H 0.12865 0.23977 0.0502 0.0
H1626 H 0.06382 0.2056 0.15242 0.0
H1627 H 0.07086 0.19673 0.09842 0.0
H1628 H 0.1067 0.43474 0.17479 0.0
H1629 H 0.11136 0.42451 0.12126 0.0
H1630 H 0.1417 0.43151 0.21265 0.0
H1631 H 0.12954 0.38487 0.23558 0.0
C1632 C 0.66162 0.66435 0.93812 0.0
C1633 C 0.62866 0.60951 0.92722 0.0
C1634 C 0.65597 0.62013 0.85234 0.0
C1635 C 0.68968 0.67487 0.86312 0.0
N1636 N 0.71311 0.74846 0.9193 0.0
N1637 N 0.60004 0.53557 0.871 0.0
C1638 C 0.68958 0.69644 0.90683 0.0
C1639 C 0.62772 0.58782 0.88352 0.0
N1640 N 0.66902 0.68644 0.97851 0.0
N1641 N 0.64819 0.59849 0.81206 0.0
H1642 H 0.57273 0.51034 0.89117 0.0
H1643 H 0.60575 0.51655 0.84046 0.0
H1644 H 0.66804 0.61923 0.78823 0.0
H1645 H 0.61972 0.56077 0.80237 0.0
H1646 H 0.69857 0.72387 0.98752 0.0
H1647 H 0.64854 0.66654 1.00293 0.0
H1648 H 0.70863 0.76725 0.95017 0.0
H1649 H 0.73344 0.77289 0.89819 0.0
C1650 C 0.70076 0.38326 0.12037 0.0
C1651 C 0.68196 0.38489 0.16411 0.0
C1652 C 0.60775 0.38135 0.15666 0.0
C1653 C 0.6225 0.37233 0.11249 0.0
N1654 N 0.68121 0.35938 0.05157 0.0
N1655 N 0.6142 0.38003 0.22332 0.0
C1656 C 0.66861 0.37189 0.09407 0.0
C1657 C 0.63446 0.38227 0.18199 0.0
N1658 N 0.75027 0.39521 0.1042 0.0
N1659 N 0.56988 0.39207 0.17484 0.0
H1660 H 0.63382 0.3836 0.24349 0.0
H1661 H 0.57679 0.37159 0.23689 0.0
H1662 H 0.54839 0.39112 0.15791 0.0
H1663 H 0.5641 0.40758 0.2065 0.0
H1664 H 0.76803 0.39994 0.07341 0.0
H1665 H 0.77535 0.40563 0.12274 0.0
H1666 H 0.71087 0.35239 0.03679 0.0
H1667 H 0.6596 0.35194 0.03106 0.0
C1668 C 0.93574 0.36692 0.39247 0.0
C1669 C 0.93947 0.41441 0.41733 0.0
C1670 C 0.87634 0.39516 0.37885 0.0
C1671 C 0.87766 0.35201 0.35049 0.0
N1672 N 0.92742 0.31144 0.32378 0.0
N1673 N 0.93296 0.48176 0.41014 0.0
C1674 C 0.91251 0.34183 0.35553 0.0
C1675 C 0.91549 0.43105 0.40377 0.0
N1676 N 0.95569 0.34558 0.40196 0.0
N1677 N 0.83782 0.40267 0.3834 0.0
H1678 H 0.96836 0.51058 0.41873 0.0
H1679 H 0.91743 0.49457 0.39872 0.0
H1680 H 0.80519 0.37551 0.37008 0.0
H1681 H 0.8354 0.43297 0.40534 0.0
H1682 H 0.94668 0.30793 0.3886 0.0
H1683 H 0.97984 0.36386 0.42329 0.0
H1684 H 0.95594 0.30645 0.32447 0.0
H1685 H 0.9177 0.29783 0.29433 0.0
C1686 C 0.64304 0.6584 0.43576 0.0
C1687 C 0.6259 0.605 0.42434 0.0
C1688 C 0.6556 0.61609 0.34997 0.0
C1689 C 0.6825 0.67123 0.36064 0.0
N1690 N 0.69816 0.74391 0.41933 0.0
N1691 N 0.62496 0.53622 0.36845 0.0
C1692 C 0.67496 0.69203 0.40514 0.0
C1693 C 0.63566 0.58531 0.38085 0.0
N1694 N 0.62802 0.67741 0.47619 0.0
N1695 N 0.64382 0.59194 0.311 0.0
H1696 H 0.61367 0.51431 0.38994 0.0
H1697 H 0.63101 0.51893 0.33733 0.0
H1698 H 0.65103 0.61184 0.28946 0.0
H1699 H 0.6199 0.55223 0.30257 0.0
H1700 H 0.63258 0.71359 0.48606 0.0
H1701 H 0.60726 0.6554 0.49944 0.0
H1702 H 0.70119 0.76106 0.4506 0.0
H1703 H 0.71721 0.77083 0.4005 0.0
C1704 C 0.91135 0.40377 0.84903 0.0
C1705 C 0.86844 0.35348 0.85228 0.0
C1706 C 0.88317 0.36997 0.92371 0.0
C1707 C 0.92887 0.41948 0.91942 0.0
N1708 N 0.96417 0.48915 0.8849 0.0
N1709 N 0.81938 0.28568 0.89168 0.0
C1710 C 0.93724 0.43796 0.88388 0.0
C1711 C 0.85615 0.33589 0.88933 0.0
N1712 N 0.9296 0.41874 0.81153 0.0
N1713 N 0.86092 0.35771 0.96245 0.0
H1714 H 0.7981 0.25964 0.86825 0.0
H1715 H 0.8127 0.26888 0.91548 0.0
H1716 H 0.87682 0.38146 0.98903 0.0
H1717 H 0.82333 0.32725 0.96919 0.0
H1718 H 0.96462 0.45204 0.80502 0.0
H1719 H 0.91275 0.39486 0.78542 0.0
H1720 H 0.96481 0.50336 0.8621 0.0
H1721 H 0.97616 0.51671 0.91139 0.0
C1722 C 0.90383 0.89571 0.1712 0.0
C1723 C 0.87704 0.84047 0.1606 0.0
C1724 C 0.91777 0.85371 0.08541 0.0
C1725 C 0.93544 0.90728 0.09669 0.0
N1726 N 0.93504 0.97568 0.1522 0.0
N1727 N 0.861 0.76802 0.10189 0.0
C1728 C 0.92477 0.9267 0.14011 0.0
C1729 C 0.88501 0.81992 0.11607 0.0
N1730 N 0.91418 0.91979 0.21055 0.0
N1731 N 0.93295 0.83467 0.04507 0.0
H1732 H 0.83974 0.74107 0.12096 0.0
H1733 H 0.85889 0.75101 0.07051 0.0
H1734 H 0.95424 0.8569 0.02193 0.0
H1735 H 0.92796 0.7983 0.03524 0.0
H1736 H 0.93858 0.95942 0.21895 0.0
H1737 H 0.90472 0.89978 0.23284 0.0
H1738 H 0.93006 0.99358 0.18324 0.0
H1739 H 0.94553 0.99719 0.13057 0.0
C1740 C 0.9187 0.10108 0.83554 0.0
C1741 C 0.92787 0.1514 0.84764 0.0
C1742 C 0.9166 0.15132 0.92116 0.0
C1743 C 0.90761 0.10099 0.90953 0.0
N1744 N 0.90074 0.02761 0.85581 0.0
N1745 N 0.95075 0.22957 0.89884 0.0
C1746 C 0.90942 0.07601 0.86663 0.0
C1747 C 0.93094 0.17792 0.88955 0.0
N1748 N 0.91699 0.07674 0.7945 0.0
N1749 N 0.91062 0.17365 0.96244 0.0
H1750 H 0.96118 0.25063 0.87683 0.0
H1751 H 0.96162 0.25216 0.92745 0.0
H1752 H 0.90336 0.15719 0.98669 0.0
H1753 H 0.90916 0.20683 0.97269 0.0
H1754 H 0.90606 0.03841 0.78354 0.0
H1755 H 0.92505 0.09466 0.77092 0.0
H1756 H 0.91091 0.011 0.82559 0.0
H1757 H 0.88463 0.00445 0.87757 0.0
C1758 C 0.68609 0.17836 0.63974 0.0
C1759 C 0.69108 0.15537 0.6648 0.0
C1760 C 0.6448 0.07315 0.61529 0.0
C1761 C 0.62846 0.09349 0.59708 0.0
N1762 N 0.62905 0.17101 0.60556 0.0
N1763 N 0.65871 0.07339 0.67951 0.0
C1764 C 0.64802 0.14764 0.61304 0.0
C1765 C 0.66559 0.10064 0.6535 0.0
N1766 N 0.71891 0.22959 0.63918 0.0
N1767 N 0.64543 0.02976 0.59469 0.0
H1768 H 0.66509 0.08944 0.71011 0.0
H1769 H 0.64041 0.03363 0.67218 0.0
H1770 H 0.63698 0.01191 0.56491 0.0
H1771 H 0.66408 0.01845 0.60386 0.0
H1772 H 0.71926 0.24641 0.61843 0.0
H1773 H 0.75025 0.25355 0.65434 0.0
H1774 H 0.63596 0.20707 0.6227 0.0
H1775 H 0.60097 0.1524 0.58789 0.0
C1776 C 0.66423 0.98206 0.46382 0.0
C1777 C 0.63438 0.98294 0.44335 0.0
C1778 C 0.6298 0.90863 0.3915 0.0
C1779 C 0.64076 0.89716 0.42113 0.0
N1780 N 0.68476 0.92865 0.47792 0.0
N1781 N 0.59916 0.95536 0.38232 0.0
C1782 C 0.6647 0.93638 0.45445 0.0
C1783 C 0.62296 0.95031 0.40421 0.0
N1784 N 0.69028 0.02404 0.49236 0.0
N1785 N 0.62276 0.878 0.35274 0.0
H1786 H 0.58664 0.98087 0.39505 0.0
H1787 H 0.58758 0.93188 0.35408 0.0
H1788 H 0.62504 0.84545 0.34317 0.0
H1789 H 0.61923 0.88715 0.32865 0.0
H1790 H 0.71535 0.02738 0.50707 0.0
H1791 H 0.68901 0.05701 0.49867 0.0
H1792 H 0.69978 0.95466 0.50439 0.0
H1793 H 0.68521 0.89516 0.47101 0.0
C1794 C 0.93341 0.17701 0.36181 0.0
C1795 C 0.88242 0.1347 0.3605 0.0
C1796 C 0.883 0.11371 0.42169 0.0
C1797 C 0.93671 0.15092 0.41837 0.0
N1798 N 1.01499 0.20786 0.37681 0.0
N1799 N 0.80984 0.05807 0.38638 0.0
C1800 C 0.96247 0.17959 0.38587 0.0
C1801 C 0.85769 0.10121 0.38931 0.0
N1802 N 0.95413 0.21502 0.34054 0.0
N1803 N 0.85529 0.09301 0.45687 0.0
H1804 H 0.78885 0.04882 0.36457 0.0
H1805 H 0.79256 0.02975 0.4038 0.0
H1806 H 0.87141 0.10388 0.48265 0.0
H1807 H 0.81529 0.06945 0.4624 0.0
H1808 H 0.98882 0.24975 0.34492 0.0
H1809 H 0.93497 0.21373 0.32108 0.0
H1810 H 0.03563 0.23051 0.3542 0.0
H1811 H 0.03791 0.20502 0.38933 0.0
C1812 C 0.71282 0.14014 0.13022 0.0
C1813 C 0.69156 0.15422 0.17222 0.0
C1814 C 0.60781 0.10412 0.1487 0.0
C1815 C 0.63101 0.09739 0.10495 0.0
N1816 N 0.7134 0.12946 0.05748 0.0
N1817 N 0.61846 0.15818 0.21789 0.0
C1818 C 0.68582 0.1213 0.0967 0.0
C1819 C 0.63928 0.1395 0.18009 0.0
N1820 N 0.7589 0.14431 0.12184 0.0
N1821 N 0.55603 0.07472 0.16199 0.0
H1822 H 0.63833 0.18141 0.24264 0.0
H1823 H 0.58241 0.15327 0.22342 0.0
H1824 H 0.53027 0.04539 0.14279 0.0
H1825 H 0.53914 0.0751 0.19358 0.0
H1826 H 0.77436 0.13101 0.09218 0.0
H1827 H 0.778 0.15554 0.14571 0.0
H1828 H 0.75355 0.14987 0.05099 0.0
H1829 H 0.69703 0.12252 0.03314 0.0
C1830 C 0.80394 0.90572 0.7858 0.0
C1831 C 0.77555 0.86447 0.80749 0.0
C1832 C 0.70442 0.87883 0.83032 0.0
C1833 C 0.73467 0.9222 0.81061 0.0
N1834 N 0.80582 0.96261 0.7563 0.0
N1835 N 0.6994 0.818 0.85671 0.0
C1836 C 0.78066 0.92917 0.78281 0.0
C1837 C 0.72675 0.85358 0.83204 0.0
N1838 N 0.85535 0.92856 0.77246 0.0
N1839 N 0.65269 0.85775 0.8439 0.0
H1840 H 0.7131 0.79802 0.8603 0.0
H1841 H 0.7131 0.79802 0.8603 0.0
H1842 H 0.63145 0.86177 0.83052 0.0
H1843 H 0.6302 0.82824 0.86094 0.0
H1844 H 0.87756 0.92178 0.78192 0.0
H1845 H 0.87756 0.92178 0.78192 0.0
H1846 H 0.79062 0.98161 0.75304 0.0
H1847 H 0.79062 0.98161 0.75304 0.0
C1848 C 0.89373 0.85905 0.59277 0.0
C1849 C 0.93239 0.91214 0.60116 0.0
C1850 C 0.91649 0.90018 0.67391 0.0
C1851 C 0.8759 0.84719 0.66557 0.0
N1852 N 0.85827 0.77687 0.60743 0.0
N1853 N 0.97496 0.98459 0.65473 0.0
C1854 C 0.87262 0.82672 0.62237 0.0
C1855 C 0.94188 0.93301 0.64323 0.0
N1856 N 0.87447 0.83899 0.55699 0.0
N1857 N 0.93621 0.91786 0.70903 0.0
H1858 H 0.99786 0.00955 0.63379 0.0
H1859 H 0.97719 0.00344 0.68581 0.0
H1860 H 0.92292 0.8941 0.72939 0.0
H1861 H 0.96926 0.9535 0.71549 0.0
H1862 H 0.84416 0.80105 0.55053 0.0
H1863 H 0.8838 0.86236 0.53747 0.0
H1864 H 0.86157 0.76106 0.57549 0.0
H1865 H 0.85314 0.75557 0.62663 0.0
C1866 C 0.21363 0.90582 0.87095 0.0
C1867 C 0.19246 0.84891 0.85529 0.0
C1868 C 0.10689 0.85651 0.90193 0.0
C1869 C 0.12805 0.91344 0.91675 0.0
N1870 N 0.21206 0.98699 0.90116 0.0
N1871 N 0.10577 0.77535 0.86761 0.0
C1872 C 0.18421 0.93493 0.89694 0.0
C1873 C 0.13598 0.82741 0.87453 0.0
N1874 N 0.26602 0.93503 0.86321 0.0
N1875 N 0.05513 0.82669 0.91431 0.0
H1876 H 0.11999 0.75143 0.85037 0.0
H1877 H 0.11999 0.75143 0.85037 0.0
H1878 H 0.03311 0.84273 0.93292 0.0
H1879 H 0.03463 0.78676 0.90528 0.0
H1880 H 0.28744 0.97365 0.8767 0.0
H1881 H 0.28831 0.91893 0.84691 0.0
H1882 H 0.24781 0.00731 0.88281 0.0
H1883 H 0.19691 0.00937 0.9205 0.0
C1884 C 0.90025 0.36285 0.59685 0.0
C1885 C 0.9404 0.41598 0.60577 0.0
C1886 C 0.91143 0.40498 0.68101 0.0
C1887 C 0.87728 0.34995 0.6709 0.0
N1888 N 0.84856 0.27737 0.61348 0.0
N1889 N 0.98927 0.48246 0.65885 0.0
C1890 C 0.87526 0.32937 0.62708 0.0
C1891 C 0.94716 0.43536 0.64858 0.0
N1892 N 0.88217 0.34446 0.56054 0.0
N1893 N 0.90982 0.42965 0.72181 0.0
H1894 H 1.01701 0.50533 0.63706 0.0
H1895 H 0.99968 0.49623 0.68809 0.0
H1896 H 0.885 0.41088 0.74649 0.0
H1897 H 0.92923 0.46958 0.73078 0.0
H1898 H 0.84998 0.308 0.55392 0.0
H1899 H 0.89468 0.36773 0.53974 0.0
H1900 H 0.85058 0.2603 0.58183 0.0
H1901 H 0.82757 0.25116 0.63337 0.0
C1902 C 0.38208 0.13589 0.42226 0.0
C1903 C 0.41383 0.11719 0.41709 0.0
C1904 C 0.42753 0.10638 0.34121 0.0
C1905 C 0.40811 0.13774 0.34757 0.0
N1906 N 0.33827 0.15009 0.38903 0.0
N1907 N 0.42942 0.05076 0.37086 0.0
C1908 C 0.37594 0.14236 0.38648 0.0
C1909 C 0.42551 0.09172 0.37627 0.0
N1910 N 0.36061 0.15033 0.4617 0.0
N1911 N 0.44868 0.09169 0.30173 0.0
H1912 H 0.42239 0.03553 0.39574 0.0
H1913 H 0.43237 0.02771 0.34171 0.0
H1914 H 0.44755 0.09974 0.27563 0.0
H1915 H 0.46769 0.07261 0.29516 0.0
H1916 H 0.34258 0.17043 0.46836 0.0
H1917 H 0.36215 0.14263 0.4878 0.0
H1918 H 0.31021 0.1478 0.41556 0.0
H1919 H 0.33109 0.15306 0.36358 0.0
C1920 C 0.67669 0.6492 0.09328 0.0
C1921 C 0.62599 0.60527 0.1002 0.0
C1922 C 0.63986 0.61935 0.17161 0.0
C1923 C 0.68957 0.6648 0.16543 0.0
N1924 N 0.7473 0.7293 0.12296 0.0
N1925 N 0.55573 0.55781 0.15148 0.0
C1926 C 0.70571 0.6812 0.12684 0.0
C1927 C 0.60679 0.593 0.14095 0.0
N1928 N 0.69821 0.66011 0.05409 0.0
N1929 N 0.62437 0.60006 0.2065 0.0
H1930 H 0.53036 0.53936 0.13082 0.0
H1931 H 0.5376 0.55083 0.18171 0.0
H1932 H 0.64669 0.6183 0.22947 0.0
H1933 H 0.59184 0.56408 0.21084 0.0
H1934 H 0.73687 0.6874 0.04539 0.0
H1935 H 0.67834 0.63865 0.02934 0.0
H1936 H 0.758 0.74632 0.09798 0.0
H1937 H 0.76763 0.75443 0.14714 0.0
C1938 C 0.19397 0.19105 0.63141 0.0
C1939 C 0.20607 0.17083 0.65363 0.0
C1940 C 0.14395 0.0836 0.61898 0.0
C1941 C 0.13312 0.10344 0.59545 0.0
N1942 N 0.15332 0.18035 0.57919 0.0
N1943 N 0.20701 0.09671 0.65111 0.0
C1944 C 0.15968 0.15823 0.60178 0.0
C1945 C 0.18553 0.11683 0.6421 0.0
N1946 N 0.21749 0.24257 0.63532 0.0
N1947 N 0.11168 0.03332 0.62264 0.0
H1948 H 0.24084 0.11976 0.6631 0.0
H1949 H 0.19573 0.05812 0.64088 0.0
H1950 H 0.07708 0.00999 0.61179 0.0
H1951 H 0.11517 0.01763 0.64197 0.0
H1952 H 0.24582 0.27005 0.65327 0.0
H1953 H 0.24582 0.27005 0.65327 0.0
H1954 H 0.17162 0.22008 0.58288 0.0
H1955 H 0.13065 0.15947 0.55631 0.0
C1956 C 0.66055 0.36416 0.34183 0.0
C1957 C 0.68173 0.34275 0.35598 0.0
C1958 C 0.6299 0.37586 0.42866 0.0
C1959 C 0.61655 0.4052 0.41541 0.0
N1960 N 0.62802 0.41991 0.34841 0.0
N1961 N 0.68212 0.33978 0.42365 0.0
C1962 C 0.63493 0.3964 0.36889 0.0
C1963 C 0.66415 0.35228 0.40243 0.0
N1964 N 0.66048 0.34937 0.30009 0.0
N1965 N 0.60527 0.36565 0.4677 0.0
H1966 H 0.70717 0.32676 0.4078 0.0
H1967 H 0.67627 0.34664 0.45608 0.0
H1968 H 0.58164 0.37968 0.48679 0.0
H1969 H 0.60343 0.33866 0.47857 0.0
H1970 H 0.63906 0.35263 0.28644 0.0
H1971 H 0.67508 0.32639 0.28068 0.0
H1972 H 0.64324 0.42211 0.317 0.0
H1973 H 0.60919 0.4397 0.36424 0.0
C1974 C 0.46498 0.92182 0.14077 0.0
C1975 C 0.44922 0.90967 0.10254 0.0
C1976 C 0.36788 0.8325 0.12895 0.0
C1977 C 0.38099 0.84834 0.16941 0.0
N1978 N 0.44082 0.9182 0.21459 0.0
N1979 N 0.3782 0.85719 0.06605 0.0
C1980 C 0.42903 0.89604 0.17548 0.0
C1981 C 0.39875 0.8657 0.09824 0.0
N1982 N 0.51558 0.95652 0.14352 0.0
N1983 N 0.32499 0.78575 0.1195 0.0
H1984 H 0.398 0.88185 0.04506 0.0
H1985 H 0.33993 0.82984 0.0632 0.0
H1986 H 0.29896 0.76205 0.14111 0.0
H1987 H 0.31695 0.76908 0.08931 0.0
H1988 H 0.53116 0.96322 0.16833 0.0
H1989 H 0.54291 0.97451 0.11882 0.0
H1990 H 0.47245 0.95501 0.22155 0.0
H1991 H 0.41654 0.90248 0.2409 0.0
C1992 C 0.91243 0.60226 0.89736 0.0
C1993 C 0.91224 0.63605 0.93674 0.0
C1994 C 0.86881 0.6613 0.91361 0.0
C1995 C 0.88271 0.63922 0.87219 0.0
N1996 N 0.88803 0.56715 0.82879 0.0
N1997 N 0.87059 0.67851 0.98767 0.0
C1998 C 0.89348 0.60146 0.8659 0.0
C1999 C 0.883 0.65872 0.94675 0.0
N2000 N 0.93409 0.57426 0.88854 0.0
N2001 N 0.84052 0.68233 0.92105 0.0
H2002 H 0.87956 0.67447 0.01175 0.0
H2003 H 0.85001 0.69664 0.99817 0.0
H2004 H 0.82279 0.67654 0.89822 0.0
H2005 H 0.82947 0.69968 0.95047 0.0
H2006 H 0.94318 0.55678 0.85825 0.0
H2007 H 0.94337 0.56875 0.91121 0.0
H2008 H 0.8915 0.53566 0.82267 0.0
H2009 H 0.87492 0.56804 0.80569 0.0
C2010 C 0.3816 0.37561 0.10631 0.0
C2011 C 0.43582 0.40975 0.10129 0.0
C2012 C 0.42928 0.38816 0.16684 0.0
C2013 C 0.37449 0.3518 0.17115 0.0
N2014 N 0.30223 0.34293 0.15584 0.0
N2015 N 0.5121 0.44061 0.1245 0.0
C2016 C 0.35137 0.3536 0.14355 0.0
C2017 C 0.45966 0.41344 0.13094 0.0
N2018 N 0.35815 0.36235 0.07457 0.0
N2019 N 0.45142 0.40567 0.20049 0.0
H2020 H 0.53487 0.45873 0.09904 0.0
H2021 H 0.53308 0.44202 0.14219 0.0
H2022 H 0.42904 0.39764 0.22961 0.0
H2023 H 0.48941 0.4355 0.20181 0.0
H2024 H 0.31942 0.33467 0.07457 0.0
H2025 H 0.37879 0.37528 0.04655 0.0
H2026 H 0.28685 0.35133 0.13998 0.0
H2027 H 0.28194 0.33807 0.1859 0.0
C2028 C 0.44575 0.62799 0.86867 0.0
C2029 C 0.42677 0.63059 0.91248 0.0
C2030 C 0.34375 0.60566 0.90134 0.0
C2031 C 0.36502 0.609 0.8585 0.0
N2032 N 0.43762 0.62849 0.80174 0.0
N2033 N 0.36035 0.63097 0.97147 0.0
C2034 C 0.41656 0.62186 0.84231 0.0
C2035 C 0.3763 0.62158 0.92913 0.0
N2036 N 0.491 0.6295 0.85194 0.0
N2037 N 0.29227 0.58665 0.9154 0.0
H2038 H 0.38334 0.64406 0.99294 0.0
H2039 H 0.32623 0.63051 0.98531 0.0
H2040 H 0.26735 0.57493 0.89607 0.0
H2041 H 0.27352 0.57835 0.94521 0.0
H2042 H 0.5053 0.62529 0.82007 0.0
H2043 H 0.51202 0.63039 0.8694 0.0
H2044 H 0.47652 0.64348 0.78904 0.0
H2045 H 0.41674 0.62213 0.78105 0.0
C2046 C 0.14419 0.5683 0.61724 0.0
C2047 C 0.13319 0.59158 0.59702 0.0
C2048 C 0.17479 0.67111 0.64889 0.0
C2049 C 0.19453 0.65197 0.66407 0.0
N2050 N 0.20444 0.58074 0.65286 0.0
N2051 N 0.16071 0.6738 0.5865 0.0
C2052 C 0.18108 0.59996 0.64537 0.0
C2053 C 0.15541 0.64553 0.61064 0.0
N2054 N 0.11791 0.51611 0.61177 0.0
N2055 N 0.16848 0.71048 0.67309 0.0
H2056 H 0.14968 0.65745 0.55741 0.0
H2057 H 0.18043 0.71388 0.59439 0.0
H2058 H 0.17128 0.72286 0.70456 0.0
H2059 H 0.15063 0.72269 0.66408 0.0
H2060 H 0.12148 0.49748 0.62831 0.0
H2061 H 0.08821 0.4918 0.59474 0.0
H2062 H 0.19936 0.54483 0.63739 0.0
H2063 H 0.23328 0.60316 0.67066 0.0
C2064 C 0.37641 0.32991 0.62357 0.0
C2065 C 0.37619 0.35438 0.6669 0.0
C2066 C 0.42675 0.43733 0.64289 0.0
C2067 C 0.43254 0.41421 0.59984 0.0
N2068 N 0.42215 0.33641 0.55143 0.0
N2069 N 0.4287 0.43368 0.71037 0.0
C2070 C 0.41014 0.35979 0.59085 0.0
C2071 C 0.4091 0.40886 0.67464 0.0
N2072 N 0.34558 0.27794 0.61316 0.0
N2073 N 0.43757 0.48644 0.65418 0.0
H2074 H 0.42275 0.41367 0.73142 0.0
H2075 H 0.45595 0.47306 0.71571 0.0
H2076 H 0.44717 0.50718 0.63221 0.0
H2077 H 0.43249 0.50418 0.68541 0.0
H2078 H 0.33941 0.25852 0.58273 0.0
H2079 H 0.32419 0.25488 0.63548 0.0
H2080 H 0.41107 0.29791 0.54368 0.0
H2081 H 0.44701 0.35674 0.52739 0.0
C2082 C 0.1519 0.59174 0.16394 0.0
C2083 C 0.16907 0.64505 0.1791 0.0
C2084 C 0.10963 0.62946 0.13873 0.0
C2085 C 0.10193 0.58031 0.11565 0.0
N2086 N 0.13117 0.52264 0.10333 0.0
N2087 N 0.17516 0.715 0.16381 0.0
C2088 C 0.12704 0.56338 0.12768 0.0
C2089 C 0.15038 0.66383 0.16219 0.0
N2090 N 0.1579 0.56713 0.18427 0.0
N2091 N 0.0784 0.6445 0.13925 0.0
H2092 H 0.21307 0.73895 0.16789 0.0
H2093 H 0.16273 0.73081 0.15246 0.0
H2094 H 0.04869 0.6224 0.12259 0.0
H2095 H 0.07997 0.67755 0.15931 0.0
H2096 H 0.14344 0.52778 0.17584 0.0
H2097 H 0.17181 0.5847 0.21224 0.0
H2098 H 0.1528 0.51199 0.109 0.0
H2099 H 0.12004 0.50483 0.07442 0.0
C2100 C 0.65141 0.3185 0.60444 0.0
C2101 C 0.6546 0.34096 0.64734 0.0
C2102 C 0.63181 0.39809 0.6432 0.0
C2103 C 0.63103 0.37727 0.59952 0.0
N2104 N 0.61518 0.30135 0.54654 0.0
N2105 N 0.623 0.38478 0.71046 0.0
C2106 C 0.63169 0.33148 0.58312 0.0
C2107 C 0.63486 0.37358 0.66786 0.0
N2108 N 0.67139 0.2884 0.58276 0.0
N2109 N 0.6377 0.44512 0.66036 0.0
H2110 H 0.62508 0.36863 0.73012 0.0
H2111 H 0.6048 0.40534 0.72603 0.0
H2112 H 0.64851 0.46981 0.64186 0.0
H2113 H 0.64245 0.46355 0.6912 0.0
H2114 H 0.67722 0.27827 0.5502 0.0
H2115 H 0.68659 0.27819 0.597 0.0
H2116 H 0.61166 0.26567 0.53524 0.0
H2117 H 0.59931 0.30956 0.53102 0.0
C2118 C 0.94515 0.60487 0.12583 0.0
C2119 C 0.92627 0.6131 0.09989 0.0
C2120 C 0.90316 0.52928 0.05599 0.0
C2121 C 0.93392 0.52733 0.075 0.0
N2122 N 0.96249 0.5488 0.13849 0.0
N2123 N 0.86791 0.5749 0.0524 0.0
C2124 C 0.9473 0.56016 0.11374 0.0
C2125 C 0.89783 0.57213 0.06963 0.0
N2126 N 0.96328 0.64096 0.16056 0.0
N2127 N 0.88031 0.49207 0.02388 0.0
H2128 H 0.84638 0.54487 0.03013 0.0
H2129 H 0.86432 0.60672 0.0608 0.0
H2130 H 0.88193 0.45897 0.01271 0.0
H2131 H 0.88193 0.45897 0.01271 0.0
H2132 H 0.98245 0.63998 0.17845 0.0
H2133 H 0.95948 0.67281 0.1717 0.0
H2134 H 0.9652 0.56622 0.16973 0.0
H2135 H 0.97239 0.52141 0.12733 0.0
C2136 C 0.81941 0.60106 0.64682 0.0
C2137 C 0.79625 0.55831 0.66539 0.0
C2138 C 0.76534 0.60117 0.73034 0.0
C2139 C 0.78171 0.6404 0.70964 0.0
N2140 N 0.81354 0.66961 0.64479 0.0
N2141 N 0.74356 0.51442 0.72328 0.0
C2142 C 0.80655 0.63855 0.66717 0.0
C2143 C 0.76806 0.5573 0.70676 0.0
N2144 N 0.85246 0.60543 0.60908 0.0
N2145 N 0.74975 0.60685 0.77261 0.0
H2146 H 0.74674 0.4825 0.70732 0.0
H2147 H 0.71742 0.5092 0.75149 0.0
H2148 H 0.74923 0.63932 0.7907 0.0
H2149 H 0.74237 0.58213 0.78994 0.0
H2150 H 0.87593 0.63961 0.59778 0.0
H2151 H 0.85947 0.57668 0.59017 0.0
H2152 H 0.82654 0.66632 0.61254 0.0
H2153 H 0.79922 0.69354 0.65762 0.0
C2154 C 0.40331 0.64696 0.41298 0.0
C2155 C 0.42582 0.6178 0.40382 0.0
C2156 C 0.42152 0.59813 0.32991 0.0
C2157 C 0.3875 0.61601 0.34106 0.0
N2158 N 0.34543 0.65762 0.39482 0.0
N2159 N 0.49062 0.6069 0.34985 0.0
C2160 C 0.37944 0.64196 0.38281 0.0
C2161 C 0.445 0.60447 0.36106 0.0
N2162 N 0.40696 0.68096 0.45008 0.0
N2163 N 0.43084 0.57426 0.28987 0.0
H2164 H 0.51515 0.62503 0.37125 0.0
H2165 H 0.50818 0.6006 0.31885 0.0
H2166 H 0.41676 0.5714 0.26571 0.0
H2167 H 0.45028 0.55511 0.28149 0.0
H2168 H 0.39344 0.70535 0.45833 0.0
H2169 H 0.42783 0.68728 0.47084 0.0
H2170 H 0.3317 0.66822 0.42616 0.0
H2171 H 0.32767 0.656 0.37399 0.0
C2172 C 0.15959 0.43674 0.95884 0.0
C2173 C 0.13592 0.39556 0.92649 0.0
C2174 C 0.10478 0.43953 0.91261 0.0
C2175 C 0.12128 0.47696 0.94923 0.0
N2176 N 0.17761 0.5197 0.99942 0.0
N2177 N 0.10734 0.36882 0.86127 0.0
C2178 C 0.15422 0.47928 0.96891 0.0
C2179 C 0.11644 0.40115 0.89921 0.0
N2180 N 0.18529 0.43453 0.98108 0.0
N2181 N 0.07292 0.43695 0.89339 0.0
H2182 H 0.11231 0.33791 0.85098 0.0
H2183 H 0.09939 0.37553 0.83824 0.0
H2184 H 0.06284 0.4641 0.9023 0.0
H2185 H 0.05312 0.40584 0.87088 0.0
H2186 H 0.20205 0.46392 1.00581 0.0
H2187 H 0.18976 0.40348 0.97435 0.0
H2188 H 0.17508 0.55227 1.00839 0.0
H2189 H 0.17508 0.55227 1.00839 0.0
C2190 C 0.28972 0.397 0.29299 0.0
C2191 C 0.28457 0.36894 0.31903 0.0
C2192 C 0.23584 0.40236 0.37545 0.0
C2193 C 0.23297 0.42095 0.34641 0.0
N2194 N 0.23981 0.41642 0.27385 0.0
N2195 N 0.24399 0.33807 0.38421 0.0
C2196 C 0.25493 0.4129 0.30391 0.0
C2197 C 0.25524 0.36975 0.36033 0.0
N2198 N 0.3276 0.40917 0.25868 0.0
N2199 N 0.21939 0.41613 0.41689 0.0
H2200 H 0.2589 0.31472 0.37426 0.0
H2201 H 0.21783 0.33302 0.41242 0.0
H2202 H 0.22324 0.40699 0.44089 0.0
H2203 H 0.22324 0.40699 0.44089 0.0
H2204 H 0.3328 0.43124 0.2398 0.0
H2205 H 0.35782 0.40419 0.25379 0.0
H2206 H 0.25415 0.4087 0.24203 0.0
H2207 H 0.20762 0.4192 0.28085 0.0
loop_
_geom_bond_atom_site_label_1
_geom_bond_atom_site_label_2
_geom_bond_distance
_geom_bond_site_symmetry_2
_ccdc_geom_bond_type
Tb0 N29 2.617 . S
Tb0 N35 2.572 . S
Tb0 O44 2.465 1_565 S
Tb0 O45 2.387 . S
Tb0 O47 2.428 . S
Tb0 O48 2.308 1_665 S
Tb0 O52 2.349 1_566 S
Tb0 O55 2.393 1_556 S
Tb0 C64 2.802 . S
C1 N2 1.379 . S
C1 C4 1.416 . S
C1 C8 1.424 . S
N2 C1 1.379 . S
N2 C5 1.334 . S
N2 Tb11 2.617 . S
C3 C5 1.390 . S
C3 C6 1.339 . S
C3 H23 0.930 . S
C4 C1 1.416 . S
C4 C6 1.416 . S
C4 C10 1.448 . S
C5 N2 1.334 . S
C5 C3 1.390 . S
C5 H16 0.930 . S
C6 C3 1.339 . S
C6 C4 1.416 . S
C6 H27 0.930 . S
C7 C8 1.413 . S
C7 C9 1.427 . S
C7 C13 1.416 . S
C8 C1 1.424 . S
C8 C7 1.413 . S
C8 N12 1.361 . S
C9 C7 1.427 . S
C9 C10 1.328 . S
C9 H24 0.929 . S
C10 C4 1.448 . S
C10 C9 1.328 . S
C10 H25 0.930 . S
Tb11 N2 2.617 . S
Tb11 N12 2.572 . S
Tb11 O46 2.349 1_544 S
Tb11 O49 2.393 1_554 S
Tb11 O50 2.465 1_545 S
Tb11 O51 2.387 . S
Tb11 O53 2.428 . S
Tb11 O54 2.308 1_445 S
Tb11 C75 2.802 . S
N12 C8 1.361 . S
N12 Tb11 2.572 . S
N12 C14 1.340 . S
C13 C7 1.416 . S
C13 C15 1.332 1_455 S
C13 H21 0.931 . S
C14 N12 1.340 . S
C14 C15 1.402 1_455 S
C14 H20 0.930 1_455 S
C15 C13 1.332 1_655 S
C15 C14 1.402 1_655 S
C15 H17 0.935 . S
H16 C5 0.930 . S
H17 C15 0.935 . S
H18 C33 0.930 . S
H19 C40 0.929 . S
H20 C14 0.930 1_655 S
H21 C13 0.931 . S
H22 C36 0.930 1_455 S
H23 C3 0.930 . S
H24 C9 0.929 . S
H25 C10 0.930 . S
H26 C31 0.930 . S
H27 C6 0.930 . S
H28 C39 0.931 . S
N29 Tb0 2.617 . S
N29 C30 1.379 . S
N29 C33 1.334 . S
C30 N29 1.379 . S
C30 C32 1.416 . S
C30 C38 1.424 . S
C31 H26 0.930 . S
C31 C33 1.390 . S
C31 C34 1.339 . S
C32 C30 1.416 . S
C32 C34 1.416 . S
C32 C65 1.448 . S
C33 H18 0.930 . S
C33 N29 1.334 . S
C33 C31 1.390 . S
C34 C31 1.339 . S
C34 C32 1.416 . S
C34 H41 0.930 . S
N35 Tb0 2.572 . S
N35 C36 1.340 . S
N35 C38 1.361 . S
C36 H22 0.930 1_655 S
C36 N35 1.340 . S
C36 C40 1.407 1_655 S
C37 C38 1.413 . S
C37 C39 1.416 . S
C37 C66 1.427 . S
C38 C30 1.424 . S
C38 N35 1.361 . S
C38 C37 1.413 . S
C39 H28 0.931 . S
C39 C37 1.416 . S
C39 C40 1.332 1_655 S
C40 H19 0.929 . S
C40 C36 1.407 1_455 S
C40 C39 1.332 1_455 S
H41 C34 0.930 . S
H42 C65 0.930 . S
H43 C66 0.929 . S
O44 Tb0 2.465 1_545 S
O44 C64 1.264 1_545 S
O45 Tb0 2.387 . S
O45 C56 1.264 1_655 S
O46 Tb11 2.349 1_566 S
O46 C56 1.243 . S
O47 Tb0 2.428 . S
O47 C64 1.256 . S
O48 Tb0 2.308 1_445 S
O48 C63 1.266 . S
O49 Tb11 2.393 1_556 S
O49 C63 1.248 . S
O50 Tb11 2.465 1_565 S
O50 C75 1.264 1_565 S
O51 Tb11 2.387 . S
O51 C67 1.264 1_455 S
O52 Tb0 2.349 1_544 S
O52 C67 1.243 . S
O53 Tb11 2.428 . S
O53 C75 1.256 . S
O54 Tb11 2.308 1_665 S
O54 C74 1.266 . S
O55 Tb0 2.393 1_554 S
O55 C74 1.248 . S
C56 O45 1.264 1_455 S
C56 O46 1.243 . S
C57 C60 1.399 . S
C57 C62 1.383 1_565 S
C57 C64 1.496 . S
C58 C59 1.399 1_545 S
C58 C62 1.389 . S
C59 C58 1.399 1_565 S
C59 C61 1.380 . S
C59 H76 0.929 . S
C60 C57 1.399 . S
C60 C61 1.392 . S
C60 H77 0.929 . S
C61 C59 1.380 . S
C61 C60 1.392 . S
C61 H78 0.929 . S
C62 C57 1.383 1_545 S
C62 C58 1.389 . S
C62 H79 0.931 . S
C63 O48 1.266 . S
C63 O49 1.248 . S
C64 Tb0 2.802 . S
C64 O44 1.264 1_565 S
C64 O47 1.256 . S
C64 C57 1.496 . S
C65 C32 1.448 . S
C65 H42 0.930 . S
C65 C66 1.328 . S
C66 C37 1.427 . S
C66 H43 0.929 . S
C66 C65 1.328 . S
C67 O51 1.264 1_655 S
C67 O52 1.243 . S
C68 C71 1.399 . S
C68 C72 1.383 1_545 S
C68 C75 1.496 . S
C69 C70 1.399 1_565 S
C69 C72 1.389 . S
C70 C69 1.399 1_545 S
C70 C73 1.380 . S
C70 H80 0.929 . S
C71 C68 1.399 . S
C71 C73 1.392 . S
C71 H81 0.929 . S
C72 C68 1.383 1_565 S
C72 C69 1.389 . S
C72 H82 0.931 . S
C73 C70 1.380 . S
C73 C71 1.392 . S
C73 H83 0.929 . S
C74 O54 1.266 . S
C74 O55 1.248 . S
C75 Tb11 2.802 . S
C75 O50 1.264 1_545 S
C75 O53 1.256 . S
C75 C68 1.496 . S
H76 C59 0.929 . S
H77 C60 0.929 . S
H78 C61 0.929 . S
H79 C62 0.931 . S
H80 C70 0.929 . S
H81 C71 0.929 . S
H82 C72 0.931 . S
H83 C73 0.929 . S
Tb84 N113 2.617 . S
Tb84 N119 2.572 . S
Tb84 O128 2.465 . S
Tb84 O129 2.387 . S
Tb84 O131 2.428 . S
Tb84 O132 2.308 . S
Tb84 O136 2.349 . S
Tb84 O139 2.393 . S
Tb84 C148 2.802 . S
C85 N86 1.379 . S
C85 C88 1.416 . S
C85 C92 1.424 . S
N86 C85 1.379 . S
N86 C89 1.334 . S
N86 Tb95 2.617 . S
C87 C89 1.390 . S
C87 C90 1.339 . S
C87 H107 0.930 . S
C88 C85 1.416 . S
C88 C90 1.416 . S
C88 C94 1.448 . S
C89 N86 1.334 . S
C89 C87 1.390 . S
C89 H100 0.930 . S
C90 C87 1.339 . S
C90 C88 1.416 . S
C90 H111 0.930 . S
C91 C92 1.413 . S
C91 C93 1.427 . S
C91 C97 1.416 . S
C92 C85 1.424 . S
C92 C91 1.413 . S
C92 N96 1.361 . S
C93 C91 1.427 . S
C93 C94 1.328 . S
C93 H108 0.929 . S
C94 C88 1.448 . S
C94 C93 1.328 . S
C94 H109 0.930 . S
Tb95 N86 2.617 . S
Tb95 N96 2.572 . S
Tb95 O130 2.349 . S
Tb95 O133 2.393 . S
Tb95 O134 2.465 . S
Tb95 O135 2.387 . S
Tb95 O137 2.428 . S
Tb95 O138 2.308 . S
Tb95 C159 2.802 . S
N96 C92 1.361 . S
N96 Tb95 2.572 . S
N96 C98 1.340 . S
C97 C91 1.416 . S
C97 C99 1.332 . S
C97 H105 0.931 . S
C98 N96 1.340 . S
C98 C99 1.407 . S
C98 H104 0.930 . S
C99 C97 1.332 . S
C99 C98 1.407 . S
C99 H101 0.929 . S
H100 C89 0.930 . S
H101 C99 0.929 . S
H102 C117 0.930 . S
H103 C124 0.929 . S
H104 C98 0.930 . S
H105 C97 0.931 . S
H106 C120 0.930 . S
H107 C87 0.930 . S
H108 C93 0.929 . S
H109 C94 0.930 . S
H110 C115 0.930 . S
H111 C90 0.930 . S
H112 C123 0.931 1_655 S
N113 Tb84 2.617 . S
N113 C114 1.379 . S
N113 C117 1.334 . S
C114 N113 1.379 . S
C114 C116 1.416 . S
C114 C122 1.424 . S
C115 H110 0.930 . S
C115 C117 1.390 . S
C115 C118 1.339 . S
C116 C114 1.416 . S
C116 C118 1.416 . S
C116 C149 1.448 . S
C117 H102 0.930 . S
C117 N113 1.334 . S
C117 C115 1.390 . S
C118 C115 1.339 . S
C118 C116 1.416 . S
C118 H125 0.930 . S
N119 Tb84 2.572 . S
N119 C120 1.340 . S
N119 C122 1.361 . S
C120 H106 0.930 . S
C120 N119 1.340 . S
C120 C124 1.407 . S
C121 C122 1.413 . S
C121 C123 1.416 . S
C121 C150 1.427 . S
C122 C114 1.424 . S
C122 N119 1.361 . S
C122 C121 1.413 . S
C123 H112 0.931 1_455 S
C123 C121 1.416 . S
C123 C124 1.332 . S
C124 H103 0.929 . S
C124 C120 1.407 . S
C124 C123 1.332 . S
H125 C118 0.930 . S
H126 C149 0.930 . S
H127 C150 0.929 . S
O128 Tb84 2.465 . S
O128 C148 1.264 . S
O129 Tb84 2.387 . S
O129 C140 1.264 . S
O130 Tb95 2.349 . S
O130 C140 1.243 . S
O131 Tb84 2.428 . S
O131 C148 1.256 . S
O132 Tb84 2.308 . S
O132 C147 1.266 . S
O133 Tb95 2.393 . S
O133 C147 1.248 . S
O134 Tb95 2.465 . S
O134 C159 1.264 . S
O135 Tb95 2.387 . S
O135 C151 1.264 . S
O136 Tb84 2.349 . S
O136 C151 1.243 . S
O137 Tb95 2.428 . S
O137 C159 1.256 . S
O138 Tb95 2.308 . S
O138 C158 1.266 . S
O139 Tb84 2.393 . S
O139 C158 1.248 . S
C140 O129 1.264 . S
C140 O130 1.243 . S
C141 C144 1.399 . S
C141 C146 1.383 . S
C141 C148 1.496 . S
C142 C143 1.399 . S
C142 C146 1.389 . S
C143 C142 1.399 . S
C143 C145 1.380 . S
C143 H160 0.929 . S
C144 C141 1.399 . S
C144 C145 1.392 . S
C144 H161 0.929 . S
C145 C143 1.380 . S
C145 C144 1.392 . S
C145 H162 0.929 . S
C146 C141 1.383 . S
C146 C142 1.389 . S
C146 H163 0.931 . S
C147 O132 1.266 . S
C147 O133 1.248 . S
C148 Tb84 2.802 . S
C148 O128 1.264 . S
C148 O131 1.256 . S
C148 C141 1.496 . S
C149 C116 1.448 . S
C149 H126 0.930 . S
C149 C150 1.328 . S
C150 C121 1.427 . S
C150 H127 0.929 . S
C150 C149 1.328 . S
C151 O135 1.264 . S
C151 O136 1.243 . S
C152 C155 1.399 . S
C152 C156 1.383 . S
C152 C159 1.496 . S
C153 C154 1.399 . S
C153 C156 1.389 . S
C154 C153 1.399 . S
C154 C157 1.380 . S
C154 H164 0.929 . S
C155 C152 1.399 . S
C155 C157 1.392 . S
C155 H165 0.929 . S
C156 C152 1.383 . S
C156 C153 1.389 . S
C156 H166 0.931 . S
C157 C154 1.380 . S
C157 C155 1.392 . S
C157 H167 0.929 . S
C158 O138 1.266 . S
C158 O139 1.248 . S
C159 Tb95 2.802 . S
C159 O134 1.264 . S
C159 O137 1.256 . S
C159 C152 1.496 . S
H160 C143 0.929 . S
H161 C144 0.929 . S
H162 C145 0.929 . S
H163 C146 0.931 . S
H164 C154 0.929 . S
H165 C155 0.929 . S
H166 C156 0.931 . S
H167 C157 0.929 . S
Tb168 N197 2.617 . S
Tb168 N203 2.572 . S
Tb168 O212 2.465 . S
Tb168 O213 2.387 . S
Tb168 O215 2.428 . S
Tb168 O216 2.308 1_565 S
Tb168 O220 2.349 . S
Tb168 O223 2.393 . S
Tb168 C232 2.802 . S
C169 N170 1.379 . S
C169 C172 1.416 . S
C169 C176 1.424 . S
N170 C169 1.379 . S
N170 C173 1.334 . S
N170 Tb179 2.617 . S
C171 C173 1.390 . S
C171 C174 1.339 . S
C171 H191 0.930 . S
C172 C169 1.416 . S
C172 C174 1.416 . S
C172 C178 1.448 . S
C173 N170 1.334 . S
C173 C171 1.390 . S
C173 H184 0.930 . S
C174 C171 1.339 . S
C174 C172 1.416 . S
C174 H195 0.930 . S
C175 C176 1.413 . S
C175 C177 1.427 . S
C175 C181 1.416 . S
C176 C169 1.424 . S
C176 C175 1.413 . S
C176 N180 1.361 . S
C177 C175 1.427 . S
C177 C178 1.328 . S
C177 H192 0.929 . S
C178 C172 1.448 . S
C178 C177 1.328 . S
C178 H193 0.930 . S
Tb179 N170 2.617 . S
Tb179 N180 2.572 . S
Tb179 O214 2.349 . S
Tb179 O217 2.393 . S
Tb179 O218 2.465 . S
Tb179 O219 2.387 . S
Tb179 O221 2.428 . S
Tb179 O222 2.308 1_545 S
Tb179 C243 2.802 . S
N180 C176 1.361 . S
N180 Tb179 2.572 . S
N180 C182 1.340 . S
C181 C175 1.416 . S
C181 C183 1.332 1_545 S
C181 H189 0.931 . S
C182 N180 1.340 . S
C182 C183 1.407 1_545 S
C182 H188 0.930 1_545 S
C183 C181 1.332 1_565 S
C183 C182 1.407 1_565 S
C183 H185 0.929 . S
H184 C173 0.930 . S
H185 C183 0.929 . S
H186 C201 0.930 . S
H187 C208 0.929 . S
H188 C182 0.930 1_565 S
H189 C181 0.931 . S
H190 C204 0.930 1_545 S
H191 C171 0.930 . S
H192 C177 0.929 . S
H193 C178 0.930 . S
H194 C199 0.930 . S
H195 C174 0.930 . S
H196 C207 0.931 . S
N197 Tb168 2.617 . S
N197 C198 1.379 . S
N197 C201 1.334 . S
C198 N197 1.379 . S
C198 C200 1.416 . S
C198 C206 1.424 . S
C199 H194 0.930 . S
C199 C201 1.390 . S
C199 C202 1.339 . S
C200 C198 1.416 . S
C200 C202 1.416 . S
C200 C233 1.448 . S
C201 H186 0.930 . S
C201 N197 1.334 . S
C201 C199 1.390 . S
C202 C199 1.339 . S
C202 C200 1.416 . S
C202 H209 0.930 . S
N203 Tb168 2.572 . S
N203 C204 1.340 . S
N203 C206 1.361 . S
C204 H190 0.930 1_565 S
C204 N203 1.340 . S
C204 C208 1.407 1_565 S
C205 C206 1.413 . S
C205 C207 1.416 . S
C205 C234 1.427 . S
C206 C198 1.424 . S
C206 N203 1.361 . S
C206 C205 1.413 . S
C207 H196 0.931 . S
C207 C205 1.416 . S
C207 C208 1.332 1_565 S
C208 H187 0.929 . S
C208 C204 1.407 1_545 S
C208 C207 1.332 1_545 S
H209 C202 0.930 . S
H210 C233 0.930 . S
H211 C234 0.929 . S
O212 Tb168 2.465 . S
O212 C232 1.264 . S
O213 Tb168 2.387 . S
O213 C224 1.264 1_565 S
O214 Tb179 2.349 . S
O214 C224 1.243 . S
O215 Tb168 2.428 . S
O215 C232 1.256 . S
O216 Tb168 2.308 1_545 S
O216 C231 1.266 . S
O217 Tb179 2.393 . S
O217 C231 1.248 . S
O218 Tb179 2.465 . S
O218 C243 1.264 . S
O219 Tb179 2.387 . S
O219 C235 1.264 1_545 S
O220 Tb168 2.349 . S
O220 C235 1.243 . S
O221 Tb179 2.428 . S
O221 C243 1.256 . S
O222 Tb179 2.308 1_565 S
O222 C242 1.266 . S
O223 Tb168 2.393 . S
O223 C242 1.248 . S
C224 O213 1.264 1_545 S
C224 O214 1.243 . S
C225 C228 1.399 . S
C225 C230 1.383 . S
C225 C232 1.496 . S
C226 C227 1.399 . S
C226 C230 1.389 . S
C227 C226 1.399 . S
C227 C229 1.380 . S
C227 H244 0.929 . S
C228 C225 1.399 . S
C228 C229 1.392 . S
C228 H245 0.929 . S
C229 C227 1.380 . S
C229 C228 1.392 . S
C229 H246 0.929 . S
C230 C225 1.383 . S
C230 C226 1.389 . S
C230 H247 0.931 . S
C231 O216 1.266 . S
C231 O217 1.248 . S
C232 Tb168 2.802 . S
C232 O212 1.264 . S
C232 O215 1.256 . S
C232 C225 1.496 . S
C233 C200 1.448 . S
C233 H210 0.930 . S
C233 C234 1.328 . S
C234 C205 1.427 . S
C234 H211 0.929 . S
C234 C233 1.328 . S
C235 O219 1.264 1_565 S
C235 O220 1.243 . S
C236 C239 1.399 . S
C236 C240 1.383 . S
C236 C243 1.496 . S
C237 C238 1.399 . S
C237 C240 1.389 . S
C238 C237 1.399 . S
C238 C241 1.380 . S
C238 H248 0.929 . S
C239 C236 1.399 . S
C239 C241 1.392 . S
C239 H249 0.929 . S
C240 C236 1.383 . S
C240 C237 1.389 . S
C240 H250 0.931 . S
C241 C238 1.380 . S
C241 C239 1.392 . S
C241 H251 0.929 . S
C242 O222 1.266 . S
C242 O223 1.248 . S
C243 Tb179 2.802 . S
C243 O218 1.264 . S
C243 O221 1.256 . S
C243 C236 1.496 . S
H244 C227 0.929 . S
H245 C228 0.929 . S
H246 C229 0.929 . S
H247 C230 0.931 . S
H248 C238 0.929 . S
H249 C239 0.929 . S
H250 C240 0.931 . S
H251 C241 0.929 . S
Tb252 N281 2.617 . S
Tb252 N287 2.572 . S
Tb252 O296 2.465 . S
Tb252 O297 2.387 . S
Tb252 O299 2.428 . S
Tb252 O300 2.308 . S
Tb252 O304 2.349 . S
Tb252 O307 2.393 . S
Tb252 C316 2.802 . S
C253 N254 1.379 . S
C253 C256 1.416 . S
C253 C260 1.424 . S
N254 C253 1.379 . S
N254 C257 1.334 . S
N254 Tb263 2.617 . S
C255 C257 1.390 . S
C255 C258 1.339 . S
C255 H275 0.930 . S
C256 C253 1.416 . S
C256 C258 1.416 . S
C256 C262 1.448 . S
C257 N254 1.334 . S
C257 C255 1.390 . S
C257 H268 0.930 . S
C258 C255 1.339 . S
C258 C256 1.416 . S
C258 H279 0.930 . S
C259 C260 1.413 . S
C259 C261 1.427 . S
C259 C265 1.416 . S
C260 C253 1.424 . S
C260 C259 1.413 . S
C260 N264 1.361 . S
C261 C259 1.427 . S
C261 C262 1.328 . S
C261 H276 0.929 . S
C262 C256 1.448 . S
C262 C261 1.328 . S
C262 H277 0.930 . S
Tb263 N254 2.617 . S
Tb263 N264 2.572 . S
Tb263 O298 2.349 . S
Tb263 O301 2.393 . S
Tb263 O302 2.465 . S
Tb263 O303 2.387 . S
Tb263 O305 2.428 . S
Tb263 O306 2.308 . S
Tb263 C327 2.802 . S
N264 C260 1.361 . S
N264 Tb263 2.572 . S
N264 C266 1.340 . S
C265 C259 1.416 . S
C265 C267 1.332 . S
C265 H273 0.931 1_545 S
C266 N264 1.340 . S
C266 C267 1.407 . S
C266 H272 0.930 . S
C267 C265 1.332 . S
C267 C266 1.407 . S
C267 H269 0.929 . S
H268 C257 0.930 . S
H269 C267 0.929 . S
H270 C285 0.930 . S
H271 C292 0.929 . S
H272 C266 0.930 . S
H273 C265 0.931 1_565 S
H274 C288 0.930 . S
H275 C255 0.930 . S
H276 C261 0.929 . S
H277 C262 0.930 . S
H278 C283 0.930 . S
H279 C258 0.930 . S
H280 C291 0.931 . S
N281 Tb252 2.617 . S
N281 C282 1.379 . S
N281 C285 1.334 . S
C282 N281 1.379 . S
C282 C284 1.416 . S
C282 C290 1.424 . S
C283 H278 0.930 . S
C283 C285 1.390 . S
C283 C286 1.339 . S
C284 C282 1.416 . S
C284 C286 1.416 . S
C284 C317 1.448 . S
C285 H270 0.930 . S
C285 N281 1.334 . S
C285 C283 1.390 . S
C286 C283 1.339 . S
C286 C284 1.416 . S
C286 H293 0.930 . S
N287 Tb252 2.572 . S
N287 C288 1.340 . S
N287 C290 1.361 . S
C288 H274 0.930 . S
C288 N287 1.340 . S
C288 C292 1.407 . S
C289 C290 1.413 . S
C289 C291 1.416 . S
C289 C318 1.427 . S
C290 C282 1.424 . S
C290 N287 1.361 . S
C290 C289 1.413 . S
C291 H280 0.931 . S
C291 C289 1.416 . S
C291 C292 1.332 . S
C292 H271 0.929 . S
C292 C288 1.407 . S
C292 C291 1.332 . S
H293 C286 0.930 . S
H294 C317 0.930 . S
H295 C318 0.929 . S
O296 Tb252 2.465 . S
O296 C316 1.264 . S
O297 Tb252 2.387 . S
O297 C308 1.264 . S
O298 Tb263 2.349 . S
O298 C308 1.243 . S
O299 Tb252 2.428 . S
O299 C316 1.256 . S
O300 Tb252 2.308 . S
O300 C315 1.266 . S
O301 Tb263 2.393 . S
O301 C315 1.248 . S
O302 Tb263 2.465 . S
O302 C327 1.264 . S
O303 Tb263 2.387 . S
O303 C319 1.264 . S
O304 Tb252 2.349 . S
O304 C319 1.243 . S
O305 Tb263 2.428 . S
O305 C327 1.256 . S
O306 Tb263 2.308 . S
O306 C326 1.266 . S
O307 Tb252 2.393 . S
O307 C326 1.248 . S
C308 O297 1.264 . S
C308 O298 1.243 . S
C309 C312 1.399 . S
C309 C314 1.383 . S
C309 C316 1.496 . S
C310 C311 1.399 . S
C310 C314 1.389 . S
C311 C310 1.399 . S
C311 C313 1.380 . S
C311 H328 0.929 . S
C312 C309 1.399 . S
C312 C313 1.392 . S
C312 H329 0.929 . S
C313 C311 1.380 . S
C313 C312 1.392 . S
C313 H330 0.929 . S
C314 C309 1.383 . S
C314 C310 1.389 . S
C314 H331 0.931 . S
C315 O300 1.266 . S
C315 O301 1.248 . S
C316 Tb252 2.802 . S
C316 O296 1.264 . S
C316 O299 1.256 . S
C316 C309 1.496 . S
C317 C284 1.448 . S
C317 H294 0.930 . S
C317 C318 1.328 . S
C318 C289 1.427 . S
C318 H295 0.929 . S
C318 C317 1.328 . S
C319 O303 1.264 . S
C319 O304 1.243 . S
C320 C323 1.399 . S
C320 C324 1.383 . S
C320 C327 1.496 . S
C321 C322 1.399 . S
C321 C324 1.389 . S
C322 C321 1.399 . S
C322 C325 1.380 . S
C322 H332 0.929 . S
C323 C320 1.399 . S
C323 C325 1.392 . S
C323 H333 0.929 . S
C324 C320 1.383 . S
C324 C321 1.389 . S
C324 H334 0.931 . S
C325 C322 1.380 . S
C325 C323 1.392 . S
C325 H335 0.929 . S
C326 O306 1.266 . S
C326 O307 1.248 . S
C327 Tb263 2.802 . S
C327 O302 1.264 . S
C327 O305 1.256 . S
C327 C320 1.496 . S
H328 C311 0.929 . S
H329 C312 0.929 . S
H330 C313 0.929 . S
H331 C314 0.931 . S
H332 C322 0.929 . S
H333 C323 0.929 . S
H334 C324 0.931 . S
H335 C325 0.929 . S
Tb336 N365 2.617 . S
Tb336 N371 2.572 1_545 S
Tb336 O380 2.465 . S
Tb336 O381 2.387 1_545 S
Tb336 O383 2.428 . S
Tb336 O384 2.308 1_545 S
Tb336 O388 2.349 1_655 S
Tb336 O391 2.393 1_655 S
Tb336 C400 2.802 . S
C337 N338 1.379 . S
C337 C340 1.416 . S
C337 C344 1.424 . S
N338 C337 1.379 . S
N338 C341 1.334 . S
N338 Tb347 2.617 . S
C339 C341 1.390 . S
C339 C342 1.339 . S
C339 H359 0.930 . S
C340 C337 1.416 . S
C340 C342 1.416 . S
C340 C346 1.448 . S
C341 N338 1.334 . S
C341 C339 1.390 . S
C341 H352 0.930 1_455 S
C342 C339 1.339 . S
C342 C340 1.416 . S
C342 H363 0.930 . S
C343 C344 1.413 1_545 S
C343 C345 1.427 . S
C343 C349 1.416 . S
C344 C337 1.424 . S
C344 C343 1.413 1_565 S
C344 N348 1.361 1_565 S
C345 C343 1.427 . S
C345 C346 1.328 1_545 S
C345 H360 0.929 . S
C346 C340 1.448 . S
C346 C345 1.328 1_565 S
C346 H361 0.930 . S
Tb347 N338 2.617 . S
Tb347 N348 2.572 1_565 S
Tb347 O382 2.349 1_455 S
Tb347 O385 2.393 1_455 S
Tb347 O386 2.465 . S
Tb347 O387 2.387 1_565 S
Tb347 O389 2.428 . S
Tb347 O390 2.308 1_565 S
Tb347 C411 2.802 . S
N348 C344 1.361 1_545 S
N348 Tb347 2.572 1_545 S
N348 C350 1.340 . S
C349 C343 1.416 . S
C349 C351 1.332 . S
C349 H357 0.931 . S
C350 N348 1.340 . S
C350 C351 1.407 . S
C350 H356 0.930 . S
C351 C349 1.332 . S
C351 C350 1.407 . S
C351 H353 0.929 . S
H352 C341 0.930 1_655 S
H353 C351 0.929 . S
H354 C369 0.930 1_455 S
H355 C376 0.929 . S
H356 C350 0.930 . S
H357 C349 0.931 . S
H358 C372 0.930 . S
H359 C339 0.930 . S
H360 C345 0.929 . S
H361 C346 0.930 . S
H362 C367 0.930 . S
H363 C342 0.930 . S
H364 C375 0.931 . S
N365 Tb336 2.617 . S
N365 C366 1.379 . S
N365 C369 1.334 . S
C366 N365 1.379 . S
C366 C368 1.416 . S
C366 C374 1.424 . S
C367 H362 0.930 . S
C367 C369 1.390 . S
C367 C370 1.339 . S
C368 C366 1.416 . S
C368 C370 1.416 . S
C368 C401 1.448 . S
C369 H354 0.930 1_655 S
C369 N365 1.334 . S
C369 C367 1.390 . S
C370 C367 1.339 . S
C370 C368 1.416 . S
C370 H377 0.930 . S
N371 Tb336 2.572 1_565 S
N371 C372 1.340 . S
N371 C374 1.361 1_565 S
C372 H358 0.930 . S
C372 N371 1.340 . S
C372 C376 1.407 . S
C373 C374 1.413 1_565 S
C373 C375 1.416 . S
C373 C402 1.427 . S
C374 C366 1.424 . S
C374 N371 1.361 1_545 S
C374 C373 1.413 1_545 S
C375 H364 0.931 . S
C375 C373 1.416 . S
C375 C376 1.332 . S
C376 H355 0.929 . S
C376 C372 1.407 . S
C376 C375 1.332 . S
H377 C370 0.930 . S
H378 C401 0.930 . S
H379 C402 0.929 . S
O380 Tb336 2.465 . S
O380 C400 1.264 . S
O381 Tb336 2.387 1_565 S
O381 C392 1.264 . S
O382 Tb347 2.349 1_655 S
O382 C392 1.243 . S
O383 Tb336 2.428 . S
O383 C400 1.256 . S
O384 Tb336 2.308 1_565 S
O384 C399 1.266 . S
O385 Tb347 2.393 1_655 S
O385 C399 1.248 . S
O386 Tb347 2.465 . S
O386 C411 1.264 . S
O387 Tb347 2.387 1_545 S
O387 C403 1.264 . S
O388 Tb336 2.349 1_455 S
O388 C403 1.243 . S
O389 Tb347 2.428 . S
O389 C411 1.256 . S
O390 Tb347 2.308 1_545 S
O390 C410 1.266 . S
O391 Tb336 2.393 1_455 S
O391 C410 1.248 . S
C392 O381 1.264 . S
C392 O382 1.243 . S
C393 C396 1.399 . S
C393 C398 1.383 . S
C393 C400 1.496 . S
C394 C395 1.399 . S
C394 C398 1.389 . S
C395 C394 1.399 . S
C395 C397 1.380 . S
C395 H412 0.929 . S
C396 C393 1.399 . S
C396 C397 1.392 . S
C396 H413 0.929 . S
C397 C395 1.380 . S
C397 C396 1.392 . S
C397 H414 0.929 . S
C398 C393 1.383 . S
C398 C394 1.389 . S
C398 H415 0.931 . S
C399 O384 1.266 . S
C399 O385 1.248 . S
C400 Tb336 2.802 . S
C400 O380 1.264 . S
C400 O383 1.256 . S
C400 C393 1.496 . S
C401 C368 1.448 . S
C401 H378 0.930 . S
C401 C402 1.328 1_545 S
C402 C373 1.427 . S
C402 H379 0.929 . S
C402 C401 1.328 1_565 S
C403 O387 1.264 . S
C403 O388 1.243 . S
C404 C407 1.399 . S
C404 C408 1.383 . S
C404 C411 1.496 . S
C405 C406 1.399 . S
C405 C408 1.389 . S
C406 C405 1.399 . S
C406 C409 1.380 . S
C406 H416 0.929 . S
C407 C404 1.399 . S
C407 C409 1.392 . S
C407 H417 0.929 . S
C408 C404 1.383 . S
C408 C405 1.389 . S
C408 H418 0.931 . S
C409 C406 1.380 . S
C409 C407 1.392 . S
C409 H419 0.929 . S
C410 O390 1.266 . S
C410 O391 1.248 . S
C411 Tb347 2.802 . S
C411 O386 1.264 . S
C411 O389 1.256 . S
C411 C404 1.496 . S
H412 C395 0.929 . S
H413 C396 0.929 . S
H414 C397 0.929 . S
H415 C398 0.931 . S
H416 C406 0.929 . S
H417 C407 0.929 . S
H418 C408 0.931 . S
H419 C409 0.929 . S
Tb420 N449 2.617 . S
Tb420 N455 2.572 . S
Tb420 O464 2.465 . S
Tb420 O465 2.387 . S
Tb420 O467 2.428 . S
Tb420 O468 2.308 . S
Tb420 O472 2.349 . S
Tb420 O475 2.393 . S
Tb420 C484 2.802 . S
C421 N422 1.379 . S
C421 C424 1.416 . S
C421 C428 1.424 . S
N422 C421 1.379 . S
N422 C425 1.334 . S
N422 Tb431 2.617 . S
C423 C425 1.390 . S
C423 C426 1.339 . S
C423 H443 0.930 . S
C424 C421 1.416 . S
C424 C426 1.416 . S
C424 C430 1.448 . S
C425 N422 1.334 . S
C425 C423 1.390 . S
C425 H436 0.930 . S
C426 C423 1.339 . S
C426 C424 1.416 . S
C426 H447 0.930 . S
C427 C428 1.413 . S
C427 C429 1.427 . S
C427 C433 1.416 . S
C428 C421 1.424 . S
C428 C427 1.413 . S
C428 N432 1.361 . S
C429 C427 1.427 . S
C429 C430 1.328 . S
C429 H444 0.929 . S
C430 C424 1.448 . S
C430 C429 1.328 . S
C430 H445 0.930 . S
Tb431 N422 2.617 . S
Tb431 N432 2.572 . S
Tb431 O466 2.349 . S
Tb431 O469 2.393 . S
Tb431 O470 2.465 . S
Tb431 O471 2.387 . S
Tb431 O473 2.428 . S
Tb431 O474 2.308 . S
Tb431 C495 2.802 . S
N432 C428 1.361 . S
N432 Tb431 2.572 . S
N432 C434 1.340 . S
C433 C427 1.416 . S
C433 C435 1.332 . S
C433 H441 0.931 . S
C434 N432 1.340 . S
C434 C435 1.407 . S
C434 H440 0.930 . S
C435 C433 1.332 . S
C435 C434 1.407 . S
C435 H437 0.929 . S
H436 C425 0.930 . S
H437 C435 0.929 . S
H438 C453 0.930 . S
H439 C460 0.929 . S
H440 C434 0.930 . S
H441 C433 0.931 . S
H442 C456 0.930 . S
H443 C423 0.930 . S
H444 C429 0.929 . S
H445 C430 0.930 . S
H446 C451 0.930 . S
H447 C426 0.930 . S
H448 C459 0.931 . S
N449 Tb420 2.617 . S
N449 C450 1.379 . S
N449 C453 1.334 . S
C450 N449 1.379 . S
C450 C452 1.416 . S
C450 C458 1.424 . S
C451 H446 0.930 . S
C451 C453 1.390 . S
C451 C454 1.339 . S
C452 C450 1.416 . S
C452 C454 1.416 . S
C452 C485 1.448 . S
C453 H438 0.930 . S
C453 N449 1.334 . S
C453 C451 1.390 . S
C454 C451 1.339 . S
C454 C452 1.416 . S
C454 H461 0.930 1_455 S
N455 Tb420 2.572 . S
N455 C456 1.340 . S
N455 C458 1.361 . S
C456 H442 0.930 . S
C456 N455 1.340 . S
C456 C460 1.407 . S
C457 C458 1.413 . S
C457 C459 1.416 . S
C457 C486 1.427 . S
C458 C450 1.424 . S
C458 N455 1.361 . S
C458 C457 1.413 . S
C459 H448 0.931 . S
C459 C457 1.416 . S
C459 C460 1.332 . S
C460 H439 0.929 . S
C460 C456 1.407 . S
C460 C459 1.332 . S
H461 C454 0.930 1_655 S
H462 C485 0.930 1_655 S
H463 C486 0.929 . S
O464 Tb420 2.465 . S
O464 C484 1.264 . S
O465 Tb420 2.387 . S
O465 C476 1.264 . S
O466 Tb431 2.349 . S
O466 C476 1.243 . S
O467 Tb420 2.428 . S
O467 C484 1.256 . S
O468 Tb420 2.308 . S
O468 C483 1.266 . S
O469 Tb431 2.393 . S
O469 C483 1.248 . S
O470 Tb431 2.465 . S
O470 C495 1.264 . S
O471 Tb431 2.387 . S
O471 C487 1.264 . S
O472 Tb420 2.349 . S
O472 C487 1.243 . S
O473 Tb431 2.428 . S
O473 C495 1.256 . S
O474 Tb431 2.308 . S
O474 C494 1.266 . S
O475 Tb420 2.393 . S
O475 C494 1.248 . S
C476 O465 1.264 . S
C476 O466 1.243 . S
C477 C480 1.399 . S
C477 C482 1.383 . S
C477 C484 1.496 . S
C478 C479 1.399 . S
C478 C482 1.389 . S
C479 C478 1.399 . S
C479 C481 1.380 . S
C479 H496 0.929 . S
C480 C477 1.399 . S
C480 C481 1.392 . S
C480 H497 0.929 . S
C481 C479 1.380 . S
C481 C480 1.392 . S
C481 H498 0.929 . S
C482 C477 1.383 . S
C482 C478 1.389 . S
C482 H499 0.931 . S
C483 O468 1.266 . S
C483 O469 1.248 . S
C484 Tb420 2.802 . S
C484 O464 1.264 . S
C484 O467 1.256 . S
C484 C477 1.496 . S
C485 C452 1.448 . S
C485 H462 0.930 1_455 S
C485 C486 1.328 . S
C486 C457 1.427 . S
C486 H463 0.929 . S
C486 C485 1.328 . S
C487 O471 1.264 . S
C487 O472 1.243 . S
C488 C491 1.399 . S
C488 C492 1.383 . S
C488 C495 1.496 . S
C489 C490 1.399 . S
C489 C492 1.389 . S
C490 C489 1.399 . S
C490 C493 1.380 . S
C490 H500 0.929 . S
C491 C488 1.399 . S
C491 C493 1.392 . S
C491 H501 0.929 . S
C492 C488 1.383 . S
C492 C489 1.389 . S
C492 H502 0.931 . S
C493 C490 1.380 . S
C493 C491 1.392 . S
C493 H503 0.929 1_565 S
C494 O474 1.266 . S
C494 O475 1.248 . S
C495 Tb431 2.802 . S
C495 O470 1.264 . S
C495 O473 1.256 . S
C495 C488 1.496 . S
H496 C479 0.929 . S
H497 C480 0.929 . S
H498 C481 0.929 . S
H499 C482 0.931 . S
H500 C490 0.929 . S
H501 C491 0.929 . S
H502 C492 0.931 . S
H503 C493 0.929 1_545 S
Tb504 N533 2.617 1_554 S
Tb504 N539 2.572 . S
Tb504 O548 2.465 . S
Tb504 O549 2.387 1_554 S
Tb504 O551 2.428 . S
Tb504 O552 2.308 . S
Tb504 O556 2.349 1_545 S
Tb504 O559 2.393 1_544 S
Tb504 C568 2.802 . S
C505 N506 1.379 . S
C505 C508 1.416 . S
C505 C512 1.424 . S
N506 C505 1.379 . S
N506 C509 1.334 . S
N506 Tb515 2.617 1_554 S
C507 C509 1.390 . S
C507 C510 1.339 . S
C507 H527 0.930 1_565 S
C508 C505 1.416 . S
C508 C510 1.416 . S
C508 C514 1.448 . S
C509 N506 1.334 . S
C509 C507 1.390 . S
C509 H520 0.930 1_565 S
C510 C507 1.339 . S
C510 C508 1.416 . S
C510 H531 0.930 . S
C511 C512 1.413 . S
C511 C513 1.427 . S
C511 C517 1.416 . S
C512 C505 1.424 . S
C512 C511 1.413 . S
C512 N516 1.361 1_554 S
C513 C511 1.427 . S
C513 C514 1.328 . S
C513 H528 0.929 . S
C514 C508 1.448 . S
C514 C513 1.328 . S
C514 H529 0.930 . S
Tb515 N506 2.617 1_556 S
Tb515 N516 2.572 . S
Tb515 O550 2.349 1_565 S
Tb515 O553 2.393 1_566 S
Tb515 O554 2.465 . S
Tb515 O555 2.387 1_556 S
Tb515 O557 2.428 . S
Tb515 O558 2.308 . S
Tb515 C579 2.802 . S
N516 C512 1.361 1_556 S
N516 Tb515 2.572 . S
N516 C518 1.340 . S
C517 C511 1.416 . S
C517 C519 1.332 1_554 S
C517 H525 0.931 . S
C518 N516 1.340 . S
C518 C519 1.407 . S
C518 H524 0.930 . S
C519 C517 1.332 1_556 S
C519 C518 1.407 . S
C519 H521 0.929 . S
H520 C509 0.930 1_545 S
H521 C519 0.929 . S
H522 C537 0.930 1_565 S
H523 C544 0.929 . S
H524 C518 0.930 . S
H525 C517 0.931 . S
H526 C540 0.930 . S
H527 C507 0.930 1_545 S
H528 C513 0.929 . S
H529 C514 0.930 . S
H530 C535 0.930 1_565 S
H531 C510 0.930 . S
H532 C543 0.931 . S
N533 Tb504 2.617 1_556 S
N533 C534 1.379 . S
N533 C537 1.334 . S
C534 N533 1.379 . S
C534 C536 1.416 . S
C534 C542 1.424 . S
C535 H530 0.930 1_545 S
C535 C537 1.390 . S
C535 C538 1.339 . S
C536 C534 1.416 . S
C536 C538 1.416 . S
C536 C569 1.448 . S
C537 H522 0.930 1_545 S
C537 N533 1.334 . S
C537 C535 1.390 . S
C538 C535 1.339 . S
C538 C536 1.416 . S
C538 H545 0.930 . S
N539 Tb504 2.572 . S
N539 C540 1.340 . S
N539 C542 1.361 1_554 S
C540 H526 0.930 . S
C540 N539 1.340 . S
C540 C544 1.407 . S
C541 C542 1.413 . S
C541 C543 1.416 . S
C541 C570 1.427 . S
C542 C534 1.424 . S
C542 N539 1.361 1_556 S
C542 C541 1.413 . S
C543 H532 0.931 . S
C543 C541 1.416 . S
C543 C544 1.332 1_556 S
C544 H523 0.929 . S
C544 C540 1.407 . S
C544 C543 1.332 1_554 S
H545 C538 0.930 . S
H546 C569 0.930 . S
H547 C570 0.929 . S
O548 Tb504 2.465 . S
O548 C568 1.264 . S
O549 Tb504 2.387 1_556 S
O549 C560 1.264 . S
O550 Tb515 2.349 1_545 S
O550 C560 1.243 . S
O551 Tb504 2.428 . S
O551 C568 1.256 . S
O552 Tb504 2.308 . S
O552 C567 1.266 . S
O553 Tb515 2.393 1_544 S
O553 C567 1.248 . S
O554 Tb515 2.465 . S
O554 C579 1.264 . S
O555 Tb515 2.387 1_554 S
O555 C571 1.264 . S
O556 Tb504 2.349 1_565 S
O556 C571 1.243 . S
O557 Tb515 2.428 . S
O557 C579 1.256 . S
O558 Tb515 2.308 . S
O558 C578 1.266 . S
O559 Tb504 2.393 1_566 S
O559 C578 1.248 . S
C560 O549 1.264 . S
C560 O550 1.243 . S
C561 C564 1.399 . S
C561 C566 1.383 . S
C561 C568 1.496 . S
C562 C563 1.399 . S
C562 C566 1.389 . S
C563 C562 1.399 . S
C563 C565 1.380 . S
C563 H580 0.929 . S
C564 C561 1.399 . S
C564 C565 1.392 . S
C564 H581 0.929 . S
C565 C563 1.380 . S
C565 C564 1.392 . S
C565 H582 0.929 . S
C566 C561 1.383 . S
C566 C562 1.389 . S
C566 H583 0.931 . S
C567 O552 1.266 . S
C567 O553 1.248 . S
C568 Tb504 2.802 . S
C568 O548 1.264 . S
C568 O551 1.256 . S
C568 C561 1.496 . S
C569 C536 1.448 . S
C569 H546 0.930 . S
C569 C570 1.328 . S
C570 C541 1.427 . S
C570 H547 0.929 . S
C570 C569 1.328 . S
C571 O555 1.264 . S
C571 O556 1.243 . S
C572 C575 1.399 . S
C572 C576 1.383 . S
C572 C579 1.496 . S
C573 C574 1.399 . S
C573 C576 1.389 . S
C574 C573 1.399 . S
C574 C577 1.380 . S
C574 H584 0.929 . S
C575 C572 1.399 . S
C575 C577 1.392 . S
C575 H585 0.929 . S
C576 C572 1.383 . S
C576 C573 1.389 . S
C576 H586 0.931 . S
C577 C574 1.380 . S
C577 C575 1.392 . S
C577 H587 0.929 . S
C578 O558 1.266 . S
C578 O559 1.248 . S
C579 Tb515 2.802 . S
C579 O554 1.264 . S
C579 O557 1.256 . S
C579 C572 1.496 . S
H580 C563 0.929 . S
H581 C564 0.929 . S
H582 C565 0.929 . S
H583 C566 0.931 . S
H584 C574 0.929 . S
H585 C575 0.929 . S
H586 C576 0.931 . S
H587 C577 0.929 . S
Tb588 N617 2.617 . S
Tb588 N623 2.572 . S
Tb588 O632 2.465 . S
Tb588 O633 2.387 . S
Tb588 O635 2.428 . S
Tb588 O636 2.308 . S
Tb588 O640 2.349 . S
Tb588 O643 2.393 . S
Tb588 C652 2.802 . S
C589 N590 1.379 . S
C589 C592 1.416 . S
C589 C596 1.424 . S
N590 C589 1.379 . S
N590 C593 1.334 . S
N590 Tb599 2.617 . S
C591 C593 1.390 . S
C591 C594 1.339 . S
C591 H611 0.930 . S
C592 C589 1.416 . S
C592 C594 1.416 . S
C592 C598 1.448 . S
C593 N590 1.334 . S
C593 C591 1.390 . S
C593 H604 0.930 . S
C594 C591 1.339 . S
C594 C592 1.416 . S
C594 H615 0.930 . S
C595 C596 1.413 . S
C595 C597 1.427 . S
C595 C601 1.416 . S
C596 C589 1.424 . S
C596 C595 1.413 . S
C596 N600 1.361 . S
C597 C595 1.427 . S
C597 C598 1.328 . S
C597 H612 0.929 . S
C598 C592 1.448 . S
C598 C597 1.328 . S
C598 H613 0.930 . S
Tb599 N590 2.617 . S
Tb599 N600 2.572 . S
Tb599 O634 2.349 . S
Tb599 O637 2.393 . S
Tb599 O638 2.465 . S
Tb599 O639 2.387 . S
Tb599 O641 2.428 . S
Tb599 O642 2.308 . S
Tb599 C663 2.802 . S
N600 C596 1.361 . S
N600 Tb599 2.572 . S
N600 C602 1.340 . S
C601 C595 1.416 . S
C601 C603 1.332 . S
C601 H609 0.931 . S
C602 N600 1.340 . S
C602 C603 1.407 . S
C602 H608 0.930 . S
C603 C601 1.332 . S
C603 C602 1.407 . S
C603 H605 0.929 . S
H604 C593 0.930 . S
H605 C603 0.929 . S
H606 C621 0.930 . S
H607 C628 0.929 . S
H608 C602 0.930 . S
H609 C601 0.931 . S
H610 C624 0.930 . S
H611 C591 0.930 . S
H612 C597 0.929 . S
H613 C598 0.930 . S
H614 C619 0.930 . S
H615 C594 0.930 . S
H616 C627 0.931 . S
N617 Tb588 2.617 . S
N617 C618 1.379 . S
N617 C621 1.334 . S
C618 N617 1.379 . S
C618 C620 1.416 . S
C618 C626 1.424 . S
C619 H614 0.930 . S
C619 C621 1.390 . S
C619 C622 1.339 . S
C620 C618 1.416 . S
C620 C622 1.416 . S
C620 C653 1.448 . S
C621 H606 0.930 . S
C621 N617 1.334 . S
C621 C619 1.390 . S
C622 C619 1.339 . S
C622 C620 1.416 . S
C622 H629 0.930 1_545 S
N623 Tb588 2.572 . S
N623 C624 1.340 . S
N623 C626 1.361 . S
C624 H610 0.930 . S
C624 N623 1.340 . S
C624 C628 1.407 . S
C625 C626 1.413 . S
C625 C627 1.416 . S
C625 C654 1.427 . S
C626 C618 1.424 . S
C626 N623 1.361 . S
C626 C625 1.413 . S
C627 H616 0.931 . S
C627 C625 1.416 . S
C627 C628 1.332 . S
C628 H607 0.929 . S
C628 C624 1.407 . S
C628 C627 1.332 . S
H629 C622 0.930 1_565 S
H630 C653 0.930 1_565 S
H631 C654 0.929 . S
O632 Tb588 2.465 . S
O632 C652 1.264 . S
O633 Tb588 2.387 . S
O633 C644 1.264 . S
O634 Tb599 2.349 . S
O634 C644 1.243 . S
O635 Tb588 2.428 . S
O635 C652 1.256 . S
O636 Tb588 2.308 . S
O636 C651 1.266 . S
O637 Tb599 2.393 . S
O637 C651 1.248 . S
O638 Tb599 2.465 . S
O638 C663 1.264 . S
O639 Tb599 2.387 . S
O639 C655 1.264 . S
O640 Tb588 2.349 . S
O640 C655 1.243 . S
O641 Tb599 2.428 . S
O641 C663 1.256 . S
O642 Tb599 2.308 . S
O642 C662 1.266 . S
O643 Tb588 2.393 . S
O643 C662 1.248 . S
C644 O633 1.264 . S
C644 O634 1.243 . S
C645 C648 1.399 . S
C645 C650 1.383 . S
C645 C652 1.496 . S
C646 C647 1.399 . S
C646 C650 1.389 . S
C647 C646 1.399 . S
C647 C649 1.380 . S
C647 H664 0.929 . S
C648 C645 1.399 . S
C648 C649 1.392 . S
C648 H665 0.929 . S
C649 C647 1.380 . S
C649 C648 1.392 . S
C649 H666 0.929 1_455 S
C650 C645 1.383 . S
C650 C646 1.389 . S
C650 H667 0.931 . S
C651 O636 1.266 . S
C651 O637 1.248 . S
C652 Tb588 2.802 . S
C652 O632 1.264 . S
C652 O635 1.256 . S
C652 C645 1.496 . S
C653 C620 1.448 . S
C653 H630 0.930 1_545 S
C653 C654 1.328 . S
C654 C625 1.427 . S
C654 H631 0.929 . S
C654 C653 1.328 . S
C655 O639 1.264 . S
C655 O640 1.243 . S
C656 C659 1.399 . S
C656 C660 1.383 . S
C656 C663 1.496 . S
C657 C658 1.399 . S
C657 C660 1.389 . S
C658 C657 1.399 . S
C658 C661 1.380 . S
C658 H668 0.929 . S
C659 C656 1.399 . S
C659 C661 1.392 . S
C659 H669 0.929 . S
C660 C656 1.383 . S
C660 C657 1.389 . S
C660 H670 0.931 . S
C661 C658 1.380 . S
C661 C659 1.392 . S
C661 H671 0.929 . S
C662 O642 1.266 . S
C662 O643 1.248 . S
C663 Tb599 2.802 . S
C663 O638 1.264 . S
C663 O641 1.256 . S
C663 C656 1.496 . S
H664 C647 0.929 . S
H665 C648 0.929 . S
H666 C649 0.929 1_655 S
H667 C650 0.931 . S
H668 C658 0.929 . S
H669 C659 0.929 . S
H670 C660 0.931 . S
H671 C661 0.929 . S
Tb672 N701 2.617 . S
Tb672 N707 2.572 . S
Tb672 O716 2.465 1_554 S
Tb672 O717 2.387 . S
Tb672 O719 2.428 . S
Tb672 O720 2.308 1_554 S
Tb672 O724 2.349 1_554 S
Tb672 O727 2.393 . S
Tb672 C736 2.802 1_554 S
C673 N674 1.379 . S
C673 C676 1.416 . S
C673 C680 1.424 . S
N674 C673 1.379 . S
N674 C677 1.334 . S
N674 Tb683 2.617 . S
C675 C677 1.390 . S
C675 C678 1.339 . S
C675 H695 0.930 . S
C676 C673 1.416 . S
C676 C678 1.416 . S
C676 C682 1.448 . S
C677 N674 1.334 . S
C677 C675 1.390 . S
C677 H688 0.930 . S
C678 C675 1.339 . S
C678 C676 1.416 . S
C678 H699 0.930 . S
C679 C680 1.413 . S
C679 C681 1.427 . S
C679 C685 1.416 . S
C680 C673 1.424 . S
C680 C679 1.413 . S
C680 N684 1.361 . S
C681 C679 1.427 . S
C681 C682 1.328 . S
C681 H696 0.929 . S
C682 C676 1.448 . S
C682 C681 1.328 . S
C682 H697 0.930 . S
Tb683 N674 2.617 . S
Tb683 N684 2.572 . S
Tb683 O718 2.349 1_556 S
Tb683 O721 2.393 . S
Tb683 O722 2.465 1_556 S
Tb683 O723 2.387 . S
Tb683 O725 2.428 . S
Tb683 O726 2.308 1_556 S
Tb683 C747 2.802 1_556 S
N684 C680 1.361 . S
N684 Tb683 2.572 . S
N684 C686 1.340 . S
C685 C679 1.416 . S
C685 C687 1.332 . S
C685 H693 0.931 . S
C686 N684 1.340 . S
C686 C687 1.407 . S
C686 H692 0.930 1_556 S
C687 C685 1.332 . S
C687 C686 1.407 . S
C687 H689 0.929 . S
H688 C677 0.930 . S
H689 C687 0.929 . S
H690 C705 0.930 . S
H691 C712 0.929 . S
H692 C686 0.930 1_554 S
H693 C685 0.931 . S
H694 C708 0.907 1_556 S
H695 C675 0.930 . S
H696 C681 0.929 . S
H697 C682 0.930 . S
H698 C703 0.930 . S
H699 C678 0.930 . S
H700 C711 0.931 . S
N701 Tb672 2.617 . S
N701 C702 1.379 . S
N701 C705 1.334 . S
C702 N701 1.379 . S
C702 C704 1.416 . S
C702 C710 1.424 . S
C703 H698 0.930 . S
C703 C705 1.390 . S
C703 C706 1.339 . S
C704 C702 1.416 . S
C704 C706 1.416 . S
C704 C737 1.448 . S
C705 H690 0.930 . S
C705 N701 1.334 . S
C705 C703 1.390 . S
C706 C703 1.339 . S
C706 C704 1.416 . S
C706 H713 0.930 . S
N707 Tb672 2.572 . S
N707 C708 1.340 . S
N707 C710 1.361 . S
C708 H694 0.907 1_554 S
C708 N707 1.340 . S
C708 C712 1.407 . S
C709 C710 1.413 . S
C709 C711 1.416 . S
C709 C738 1.427 . S
C710 C702 1.424 . S
C710 N707 1.361 . S
C710 C709 1.413 . S
C711 H700 0.931 . S
C711 C709 1.416 . S
C711 C712 1.332 . S
C712 H691 0.929 . S
C712 C708 1.407 . S
C712 C711 1.332 . S
H713 C706 0.930 . S
H714 C737 0.930 . S
H715 C738 0.929 . S
O716 Tb672 2.465 1_556 S
O716 C736 1.264 . S
O717 Tb672 2.387 . S
O717 C728 1.264 . S
O718 Tb683 2.349 1_554 S
O718 C728 1.243 . S
O719 Tb672 2.428 . S
O719 C736 1.256 1_554 S
O720 Tb672 2.308 1_556 S
O720 C735 1.266 . S
O721 Tb683 2.393 . S
O721 C735 1.248 . S
O722 Tb683 2.465 1_554 S
O722 C747 1.264 . S
O723 Tb683 2.387 . S
O723 C739 1.264 . S
O724 Tb672 2.349 1_556 S
O724 C739 1.243 . S
O725 Tb683 2.428 . S
O725 C747 1.256 1_556 S
O726 Tb683 2.308 1_554 S
O726 C746 1.266 . S
O727 Tb672 2.393 . S
O727 C746 1.248 . S
C728 O717 1.264 . S
C728 O718 1.243 . S
C729 C732 1.399 . S
C729 C734 1.383 . S
C729 C736 1.496 . S
C730 C731 1.399 . S
C730 C734 1.389 . S
C731 C730 1.399 . S
C731 C733 1.380 . S
C731 H748 0.929 . S
C732 C729 1.399 . S
C732 C733 1.392 . S
C732 H749 0.929 1_556 S
C733 C731 1.380 . S
C733 C732 1.392 . S
C733 H750 0.936 . S
C734 C729 1.383 . S
C734 C730 1.389 . S
C734 H751 0.931 . S
C735 O720 1.266 . S
C735 O721 1.248 . S
C736 Tb672 2.802 1_556 S
C736 O716 1.264 . S
C736 O719 1.256 1_556 S
C736 C729 1.496 . S
C737 C704 1.448 . S
C737 H714 0.930 . S
C737 C738 1.328 . S
C738 C709 1.427 . S
C738 H715 0.929 . S
C738 C737 1.328 . S
C739 O723 1.264 . S
C739 O724 1.243 . S
C740 C743 1.399 . S
C740 C744 1.383 . S
C740 C747 1.496 . S
C741 C742 1.399 . S
C741 C744 1.389 . S
C742 C741 1.399 . S
C742 C745 1.380 . S
C742 H752 0.929 . S
C743 C740 1.399 . S
C743 C745 1.392 . S
C743 H753 0.929 1_554 S
C744 C740 1.383 . S
C744 C741 1.389 . S
C744 H754 0.931 . S
C745 C742 1.380 . S
C745 C743 1.392 . S
C745 H755 0.929 . S
C746 O726 1.266 . S
C746 O727 1.248 . S
C747 Tb683 2.802 1_554 S
C747 O722 1.264 . S
C747 O725 1.256 1_554 S
C747 C740 1.496 . S
H748 C731 0.929 . S
H749 C732 0.929 1_554 S
H750 C733 0.936 . S
H751 C734 0.931 . S
H752 C742 0.929 . S
H753 C743 0.929 1_556 S
H754 C744 0.931 . S
H755 C745 0.929 . S
Tb756 N785 2.617 . S
Tb756 N791 2.572 . S
Tb756 O800 2.465 . S
Tb756 O801 2.387 . S
Tb756 O803 2.428 . S
Tb756 O804 2.308 . S
Tb756 O808 2.349 . S
Tb756 O811 2.393 . S
Tb756 C820 2.802 . S
C757 N758 1.379 . S
C757 C760 1.416 . S
C757 C764 1.424 . S
N758 C757 1.379 . S
N758 C761 1.334 . S
N758 Tb767 2.617 . S
C759 C761 1.390 . S
C759 C762 1.339 . S
C759 H779 0.930 . S
C760 C757 1.416 . S
C760 C762 1.416 . S
C760 C766 1.448 . S
C761 N758 1.334 . S
C761 C759 1.390 . S
C761 H772 0.930 . S
C762 C759 1.339 . S
C762 C760 1.416 . S
C762 H783 0.930 1_655 S
C763 C764 1.413 . S
C763 C765 1.427 . S
C763 C769 1.416 . S
C764 C757 1.424 . S
C764 C763 1.413 . S
C764 N768 1.361 . S
C765 C763 1.427 . S
C765 C766 1.328 . S
C765 H780 0.929 . S
C766 C760 1.448 . S
C766 C765 1.328 . S
C766 H781 0.930 1_655 S
Tb767 N758 2.617 . S
Tb767 N768 2.572 . S
Tb767 O802 2.349 . S
Tb767 O805 2.393 . S
Tb767 O806 2.465 . S
Tb767 O807 2.387 . S
Tb767 O809 2.428 . S
Tb767 O810 2.308 . S
Tb767 C831 2.802 . S
N768 C764 1.361 . S
N768 Tb767 2.572 . S
N768 C770 1.340 . S
C769 C763 1.416 . S
C769 C771 1.332 . S
C769 H777 0.931 . S
C770 N768 1.340 . S
C770 C771 1.407 . S
C770 H776 0.930 . S
C771 C769 1.332 . S
C771 C770 1.407 . S
C771 H773 0.929 . S
H772 C761 0.930 . S
H773 C771 0.929 . S
H774 C789 0.930 . S
H775 C796 0.929 . S
H776 C770 0.930 . S
H777 C769 0.931 . S
H778 C792 0.930 . S
H779 C759 0.930 . S
H780 C765 0.929 . S
H781 C766 0.930 1_455 S
H782 C787 0.930 . S
H783 C762 0.930 1_455 S
H784 C795 0.931 . S
N785 Tb756 2.617 . S
N785 C786 1.379 . S
N785 C789 1.334 . S
C786 N785 1.379 . S
C786 C788 1.416 . S
C786 C794 1.424 . S
C787 H782 0.930 . S
C787 C789 1.390 . S
C787 C790 1.339 . S
C788 C786 1.416 . S
C788 C790 1.416 . S
C788 C821 1.448 . S
C789 H774 0.930 . S
C789 N785 1.334 . S
C789 C787 1.390 . S
C790 C787 1.339 . S
C790 C788 1.416 . S
C790 H797 0.930 . S
N791 Tb756 2.572 . S
N791 C792 1.340 . S
N791 C794 1.361 . S
C792 H778 0.930 . S
C792 N791 1.340 . S
C792 C796 1.407 . S
C793 C794 1.413 . S
C793 C795 1.416 . S
C793 C822 1.427 . S
C794 C786 1.424 . S
C794 N791 1.361 . S
C794 C793 1.413 . S
C795 H784 0.931 . S
C795 C793 1.416 . S
C795 C796 1.332 . S
C796 H775 0.929 . S
C796 C792 1.407 . S
C796 C795 1.332 . S
H797 C790 0.930 . S
H798 C821 0.930 . S
H799 C822 0.929 . S
O800 Tb756 2.465 . S
O800 C820 1.264 . S
O801 Tb756 2.387 . S
O801 C812 1.264 . S
O802 Tb767 2.349 . S
O802 C812 1.243 . S
O803 Tb756 2.428 . S
O803 C820 1.256 . S
O804 Tb756 2.308 . S
O804 C819 1.266 . S
O805 Tb767 2.393 . S
O805 C819 1.248 . S
O806 Tb767 2.465 . S
O806 C831 1.264 . S
O807 Tb767 2.387 . S
O807 C823 1.264 . S
O808 Tb756 2.349 . S
O808 C823 1.243 . S
O809 Tb767 2.428 . S
O809 C831 1.256 . S
O810 Tb767 2.308 . S
O810 C830 1.266 . S
O811 Tb756 2.393 . S
O811 C830 1.248 . S
C812 O801 1.264 . S
C812 O802 1.243 . S
C813 C816 1.399 . S
C813 C818 1.383 . S
C813 C820 1.496 . S
C814 C815 1.399 . S
C814 C818 1.389 . S
C815 C814 1.399 . S
C815 C817 1.380 . S
C815 H832 0.929 . S
C816 C813 1.399 . S
C816 C817 1.392 . S
C816 H833 0.929 . S
C817 C815 1.380 . S
C817 C816 1.392 . S
C817 H834 0.929 1_545 S
C818 C813 1.383 . S
C818 C814 1.389 . S
C818 H835 0.931 . S
C819 O804 1.266 . S
C819 O805 1.248 . S
C820 Tb756 2.802 . S
C820 O800 1.264 . S
C820 O803 1.256 . S
C820 C813 1.496 . S
C821 C788 1.448 . S
C821 H798 0.930 . S
C821 C822 1.328 . S
C822 C793 1.427 . S
C822 H799 0.929 . S
C822 C821 1.328 . S
C823 O807 1.264 . S
C823 O808 1.243 . S
C824 C827 1.399 . S
C824 C828 1.383 . S
C824 C831 1.496 . S
C825 C826 1.399 . S
C825 C828 1.389 . S
C826 C825 1.399 . S
C826 C829 1.380 . S
C826 H836 0.929 . S
C827 C824 1.399 . S
C827 C829 1.392 . S
C827 H837 0.929 . S
C828 C824 1.383 . S
C828 C825 1.389 . S
C828 H838 0.931 . S
C829 C826 1.380 . S
C829 C827 1.392 . S
C829 H839 0.929 . S
C830 O810 1.266 . S
C830 O811 1.248 . S
C831 Tb767 2.802 . S
C831 O806 1.264 . S
C831 O809 1.256 . S
C831 C824 1.496 . S
H832 C815 0.929 . S
H833 C816 0.929 . S
H834 C817 0.929 1_565 S
H835 C818 0.931 . S
H836 C826 0.929 . S
H837 C827 0.929 . S
H838 C828 0.931 . S
H839 C829 0.929 . S
Tb840 N869 2.617 . S
Tb840 N875 2.572 1_655 S
Tb840 O884 2.465 . S
Tb840 O885 2.387 1_655 S
Tb840 O887 2.428 . S
Tb840 O888 2.308 1_655 S
Tb840 O892 2.349 . S
Tb840 O895 2.393 . S
Tb840 C904 2.802 . S
C841 N842 1.379 . S
C841 C844 1.416 . S
C841 C848 1.424 1_455 S
N842 C841 1.379 . S
N842 C845 1.334 . S
N842 Tb851 2.617 . S
C843 C845 1.390 . S
C843 C846 1.339 . S
C843 H863 0.930 . S
C844 C841 1.416 . S
C844 C846 1.416 . S
C844 C850 1.448 . S
C845 N842 1.334 . S
C845 C843 1.390 . S
C845 H856 0.930 . S
C846 C843 1.339 . S
C846 C844 1.416 . S
C846 H867 0.930 . S
C847 C848 1.413 . S
C847 C849 1.427 . S
C847 C853 1.416 . S
C848 C841 1.424 1_655 S
C848 C847 1.413 . S
C848 N852 1.361 . S
C849 C847 1.427 . S
C849 C850 1.328 1_655 S
C849 H864 0.929 . S
C850 C844 1.448 . S
C850 C849 1.328 1_455 S
C850 H865 0.930 . S
Tb851 N842 2.617 . S
Tb851 N852 2.572 1_455 S
Tb851 O886 2.349 . S
Tb851 O889 2.393 . S
Tb851 O890 2.465 . S
Tb851 O891 2.387 1_455 S
Tb851 O893 2.428 . S
Tb851 O894 2.308 1_455 S
Tb851 C915 2.802 . S
N852 C848 1.361 . S
N852 Tb851 2.572 1_655 S
N852 C854 1.340 . S
C853 C847 1.416 . S
C853 C855 1.332 . S
C853 H861 0.931 . S
C854 N852 1.340 . S
C854 C855 1.407 . S
C854 H860 0.930 . S
C855 C853 1.332 . S
C855 C854 1.407 . S
C855 H857 0.929 . S
H856 C845 0.930 . S
H857 C855 0.929 . S
H858 C873 0.930 . S
H859 C880 0.929 . S
H860 C854 0.930 . S
H861 C853 0.931 . S
H862 C876 0.930 . S
H863 C843 0.930 . S
H864 C849 0.929 . S
H865 C850 0.930 . S
H866 C871 0.930 . S
H867 C846 0.930 . S
H868 C879 0.931 . S
N869 Tb840 2.617 . S
N869 C870 1.379 . S
N869 C873 1.334 . S
C870 N869 1.379 . S
C870 C872 1.416 . S
C870 C878 1.424 1_655 S
C871 H866 0.930 . S
C871 C873 1.390 . S
C871 C874 1.339 . S
C872 C870 1.416 . S
C872 C874 1.416 . S
C872 C905 1.448 . S
C873 H858 0.930 . S
C873 N869 1.334 . S
C873 C871 1.390 . S
C874 C871 1.339 . S
C874 C872 1.416 . S
C874 H881 0.930 . S
N875 Tb840 2.572 1_455 S
N875 C876 1.340 . S
N875 C878 1.361 . S
C876 H862 0.930 . S
C876 N875 1.340 . S
C876 C880 1.407 . S
C877 C878 1.413 . S
C877 C879 1.416 . S
C877 C906 1.427 . S
C878 C870 1.424 1_455 S
C878 N875 1.361 . S
C878 C877 1.413 . S
C879 H868 0.931 . S
C879 C877 1.416 . S
C879 C880 1.332 . S
C880 H859 0.929 . S
C880 C876 1.407 . S
C880 C879 1.332 . S
H881 C874 0.930 . S
H882 C905 0.930 . S
H883 C906 0.929 . S
O884 Tb840 2.465 . S
O884 C904 1.264 . S
O885 Tb840 2.387 1_455 S
O885 C896 1.264 . S
O886 Tb851 2.349 . S
O886 C896 1.243 . S
O887 Tb840 2.428 . S
O887 C904 1.256 . S
O888 Tb840 2.308 1_455 S
O888 C903 1.266 . S
O889 Tb851 2.393 . S
O889 C903 1.248 . S
O890 Tb851 2.465 . S
O890 C915 1.264 . S
O891 Tb851 2.387 1_655 S
O891 C907 1.264 . S
O892 Tb840 2.349 . S
O892 C907 1.243 . S
O893 Tb851 2.428 . S
O893 C915 1.256 . S
O894 Tb851 2.308 1_655 S
O894 C914 1.266 . S
O895 Tb840 2.393 . S
O895 C914 1.248 . S
C896 O885 1.264 . S
C896 O886 1.243 . S
C897 C900 1.399 . S
C897 C902 1.383 . S
C897 C904 1.496 . S
C898 C899 1.399 . S
C898 C902 1.389 . S
C899 C898 1.399 . S
C899 C901 1.380 . S
C899 H916 0.929 . S
C900 C897 1.399 . S
C900 C901 1.392 . S
C900 H917 0.929 . S
C901 C899 1.380 . S
C901 C900 1.392 . S
C901 H918 0.929 . S
C902 C897 1.383 . S
C902 C898 1.389 . S
C902 H919 0.931 . S
C903 O888 1.266 . S
C903 O889 1.248 . S
C904 Tb840 2.802 . S
C904 O884 1.264 . S
C904 O887 1.256 . S
C904 C897 1.496 . S
C905 C872 1.448 . S
C905 H882 0.930 . S
C905 C906 1.328 1_655 S
C906 C877 1.427 . S
C906 H883 0.929 . S
C906 C905 1.328 1_455 S
C907 O891 1.264 . S
C907 O892 1.243 . S
C908 C911 1.399 . S
C908 C912 1.383 . S
C908 C915 1.496 . S
C909 C910 1.399 . S
C909 C912 1.389 . S
C910 C909 1.399 . S
C910 C913 1.380 . S
C910 H920 0.929 . S
C911 C908 1.399 . S
C911 C913 1.392 . S
C911 H921 0.929 . S
C912 C908 1.383 . S
C912 C909 1.389 . S
C912 H922 0.931 . S
C913 C910 1.380 . S
C913 C911 1.392 . S
C913 H923 0.929 . S
C914 O894 1.266 . S
C914 O895 1.248 . S
C915 Tb851 2.802 . S
C915 O890 1.264 . S
C915 O893 1.256 . S
C915 C908 1.496 . S
H916 C899 0.929 . S
H917 C900 0.929 . S
H918 C901 0.929 . S
H919 C902 0.931 . S
H920 C910 0.929 . S
H921 C911 0.929 . S
H922 C912 0.931 . S
H923 C913 0.929 . S
Tb924 N953 2.617 . S
Tb924 N959 2.572 . S
Tb924 O968 2.465 . S
Tb924 O969 2.387 . S
Tb924 O971 2.428 . S
Tb924 O972 2.308 . S
Tb924 O976 2.349 . S
Tb924 O979 2.393 . S
Tb924 C988 2.802 . S
C925 N926 1.379 . S
C925 C928 1.416 . S
C925 C932 1.424 . S
N926 C925 1.379 . S
N926 C929 1.334 . S
N926 Tb935 2.617 . S
C927 C929 1.390 . S
C927 C930 1.339 . S
C927 H947 0.930 . S
C928 C925 1.416 . S
C928 C930 1.416 . S
C928 C934 1.448 . S
C929 N926 1.334 . S
C929 C927 1.390 . S
C929 H940 0.930 . S
C930 C927 1.339 . S
C930 C928 1.416 . S
C930 H951 0.930 . S
C931 C932 1.413 . S
C931 C933 1.427 . S
C931 C937 1.416 . S
C932 C925 1.424 . S
C932 C931 1.413 . S
C932 N936 1.361 . S
C933 C931 1.427 . S
C933 C934 1.328 . S
C933 H948 0.929 . S
C934 C928 1.448 . S
C934 C933 1.328 . S
C934 H949 0.930 . S
Tb935 N926 2.617 . S
Tb935 N936 2.572 . S
Tb935 O970 2.349 . S
Tb935 O973 2.393 . S
Tb935 O974 2.465 . S
Tb935 O975 2.387 . S
Tb935 O977 2.428 . S
Tb935 O978 2.308 . S
Tb935 C999 2.802 . S
N936 C932 1.361 . S
N936 Tb935 2.572 . S
N936 C938 1.340 . S
C937 C931 1.416 . S
C937 C939 1.332 . S
C937 H945 0.931 . S
C938 N936 1.340 . S
C938 C939 1.407 . S
C938 H944 0.930 . S
C939 C937 1.332 . S
C939 C938 1.407 . S
C939 H941 0.929 . S
H940 C929 0.930 . S
H941 C939 0.929 . S
H942 C957 0.930 . S
H943 C964 0.929 . S
H944 C938 0.930 . S
H945 C937 0.931 . S
H946 C960 0.930 . S
H947 C927 0.930 . S
H948 C933 0.929 . S
H949 C934 0.930 . S
H950 C955 0.930 . S
H951 C930 0.930 . S
H952 C963 0.931 1_545 S
N953 Tb924 2.617 . S
N953 C954 1.379 . S
N953 C957 1.334 . S
C954 N953 1.379 . S
C954 C956 1.416 . S
C954 C962 1.424 . S
C955 H950 0.930 . S
C955 C957 1.390 . S
C955 C958 1.339 . S
C956 C954 1.416 . S
C956 C958 1.416 . S
C956 C989 1.448 . S
C957 H942 0.930 . S
C957 N953 1.334 . S
C957 C955 1.390 . S
C958 C955 1.339 . S
C958 C956 1.416 . S
C958 H965 0.930 . S
N959 Tb924 2.572 . S
N959 C960 1.340 . S
N959 C962 1.361 . S
C960 H946 0.930 . S
C960 N959 1.340 . S
C960 C964 1.407 . S
C961 C962 1.413 . S
C961 C963 1.416 . S
C961 C990 1.427 . S
C962 C954 1.424 . S
C962 N959 1.361 . S
C962 C961 1.413 . S
C963 H952 0.931 1_565 S
C963 C961 1.416 . S
C963 C964 1.332 . S
C964 H943 0.929 . S
C964 C960 1.407 . S
C964 C963 1.332 . S
H965 C958 0.930 . S
H966 C989 0.930 . S
H967 C990 0.929 . S
O968 Tb924 2.465 . S
O968 C988 1.264 . S
O969 Tb924 2.387 . S
O969 C980 1.264 . S
O970 Tb935 2.349 . S
O970 C980 1.243 . S
O971 Tb924 2.428 . S
O971 C988 1.256 . S
O972 Tb924 2.308 . S
O972 C987 1.266 . S
O973 Tb935 2.393 . S
O973 C987 1.248 . S
O974 Tb935 2.465 . S
O974 C999 1.264 . S
O975 Tb935 2.387 . S
O975 C991 1.264 . S
O976 Tb924 2.349 . S
O976 C991 1.243 . S
O977 Tb935 2.428 . S
O977 C999 1.256 . S
O978 Tb935 2.308 . S
O978 C998 1.266 . S
O979 Tb924 2.393 . S
O979 C998 1.248 . S
C980 O969 1.264 . S
C980 O970 1.243 . S
C981 C984 1.399 . S
C981 C986 1.383 . S
C981 C988 1.496 . S
C982 C983 1.399 . S
C982 C986 1.389 . S
C983 C982 1.399 . S
C983 C985 1.380 . S
C983 H1000 0.929 . S
C984 C981 1.399 . S
C984 C985 1.392 . S
C984 H1001 0.929 . S
C985 C983 1.380 . S
C985 C984 1.392 . S
C985 H1002 0.929 . S
C986 C981 1.383 . S
C986 C982 1.389 . S
C986 H1003 0.931 . S
C987 O972 1.266 . S
C987 O973 1.248 . S
C988 Tb924 2.802 . S
C988 O968 1.264 . S
C988 O971 1.256 . S
C988 C981 1.496 . S
C989 C956 1.448 . S
C989 H966 0.930 . S
C989 C990 1.328 . S
C990 C961 1.427 . S
C990 H967 0.929 . S
C990 C989 1.328 . S
C991 O975 1.264 . S
C991 O976 1.243 . S
C992 C995 1.399 . S
C992 C996 1.383 . S
C992 C999 1.496 . S
C993 C994 1.399 . S
C993 C996 1.389 . S
C994 C993 1.399 . S
C994 C997 1.380 . S
C994 H1004 0.929 . S
C995 C992 1.399 . S
C995 C997 1.392 . S
C995 H1005 0.929 . S
C996 C992 1.383 . S
C996 C993 1.389 . S
C996 H1006 0.931 . S
C997 C994 1.380 . S
C997 C995 1.392 . S
C997 H1007 0.929 . S
C998 O978 1.266 . S
C998 O979 1.248 . S
C999 Tb935 2.802 . S
C999 O974 1.264 . S
C999 O977 1.256 . S
C999 C992 1.496 . S
H1000 C983 0.929 . S
H1001 C984 0.929 . S
H1002 C985 0.929 . S
H1003 C986 0.931 . S
H1004 C994 0.929 . S
H1005 C995 0.929 . S
H1006 C996 0.931 . S
H1007 C997 0.929 . S
Tb1008 N1037 2.617 . S
Tb1008 N1043 2.572 . S
Tb1008 O1052 2.465 . S
Tb1008 O1053 2.387 . S
Tb1008 O1055 2.428 . S
Tb1008 O1056 2.308 . S
Tb1008 O1060 2.349 . S
Tb1008 O1063 2.393 . S
Tb1008 C1072 2.802 . S
C1009 N1010 1.379 . S
C1009 C1012 1.416 . S
C1009 C1016 1.424 . S
N1010 C1009 1.379 . S
N1010 C1013 1.334 . S
N1010 Tb1019 2.617 . S
C1011 C1013 1.390 . S
C1011 C1014 1.339 . S
C1011 H1031 0.930 . S
C1012 C1009 1.416 . S
C1012 C1014 1.416 . S
C1012 C1018 1.448 . S
C1013 N1010 1.334 . S
C1013 C1011 1.390 . S
C1013 H1024 0.930 . S
C1014 C1011 1.339 . S
C1014 C1012 1.416 . S
C1014 H1035 0.930 . S
C1015 C1016 1.413 . S
C1015 C1017 1.427 . S
C1015 C1021 1.416 . S
C1016 C1009 1.424 . S
C1016 C1015 1.413 . S
C1016 N1020 1.361 . S
C1017 C1015 1.427 . S
C1017 C1018 1.328 . S
C1017 H1032 0.927 1_655 S
C1018 C1012 1.448 . S
C1018 C1017 1.328 . S
C1018 H1033 0.930 . S
Tb1019 N1010 2.617 . S
Tb1019 N1020 2.572 . S
Tb1019 O1054 2.349 . S
Tb1019 O1057 2.393 . S
Tb1019 O1058 2.465 . S
Tb1019 O1059 2.387 . S
Tb1019 O1061 2.428 . S
Tb1019 O1062 2.308 . S
Tb1019 C1083 2.802 . S
N1020 C1016 1.361 . S
N1020 Tb1019 2.572 . S
N1020 C1022 1.340 . S
C1021 C1015 1.416 . S
C1021 C1023 1.332 . S
C1021 H1029 0.931 1_655 S
C1022 N1020 1.340 . S
C1022 C1023 1.407 . S
C1022 H1028 0.930 . S
C1023 C1021 1.332 . S
C1023 C1022 1.407 . S
C1023 H1025 0.929 . S
H1024 C1013 0.930 . S
H1025 C1023 0.929 . S
H1026 C1041 0.930 . S
H1027 C1048 0.929 . S
H1028 C1022 0.930 . S
H1029 C1021 0.931 1_455 S
H1030 C1044 0.930 . S
H1031 C1011 0.930 . S
H1032 C1017 0.927 1_455 S
H1033 C1018 0.930 . S
H1034 C1039 0.930 . S
H1035 C1014 0.930 . S
H1036 C1047 0.931 . S
N1037 Tb1008 2.617 . S
N1037 C1038 1.379 . S
N1037 C1041 1.334 . S
C1038 N1037 1.379 . S
C1038 C1040 1.416 . S
C1038 C1046 1.424 . S
C1039 H1034 0.930 . S
C1039 C1041 1.390 . S
C1039 C1042 1.339 . S
C1040 C1038 1.416 . S
C1040 C1042 1.416 . S
C1040 C1073 1.448 . S
C1041 H1026 0.930 . S
C1041 N1037 1.334 . S
C1041 C1039 1.390 . S
C1042 C1039 1.339 . S
C1042 C1040 1.416 . S
C1042 H1049 0.930 . S
N1043 Tb1008 2.572 . S
N1043 C1044 1.340 . S
N1043 C1046 1.361 . S
C1044 H1030 0.930 . S
C1044 N1043 1.340 . S
C1044 C1048 1.407 . S
C1045 C1046 1.413 . S
C1045 C1047 1.416 . S
C1045 C1074 1.427 . S
C1046 C1038 1.424 . S
C1046 N1043 1.361 . S
C1046 C1045 1.413 . S
C1047 H1036 0.931 . S
C1047 C1045 1.416 . S
C1047 C1048 1.332 . S
C1048 H1027 0.929 . S
C1048 C1044 1.407 . S
C1048 C1047 1.332 . S
H1049 C1042 0.930 . S
H1050 C1073 0.930 . S
H1051 C1074 0.929 . S
O1052 Tb1008 2.465 . S
O1052 C1072 1.264 . S
O1053 Tb1008 2.387 . S
O1053 C1064 1.264 . S
O1054 Tb1019 2.349 . S
O1054 C1064 1.243 . S
O1055 Tb1008 2.428 . S
O1055 C1072 1.256 . S
O1056 Tb1008 2.308 . S
O1056 C1071 1.266 . S
O1057 Tb1019 2.393 . S
O1057 C1071 1.248 . S
O1058 Tb1019 2.465 . S
O1058 C1083 1.264 . S
O1059 Tb1019 2.387 . S
O1059 C1075 1.264 . S
O1060 Tb1008 2.349 . S
O1060 C1075 1.243 . S
O1061 Tb1019 2.428 . S
O1061 C1083 1.256 . S
O1062 Tb1019 2.308 . S
O1062 C1082 1.266 . S
O1063 Tb1008 2.393 . S
O1063 C1082 1.248 . S
C1064 O1053 1.264 . S
C1064 O1054 1.243 . S
C1065 C1068 1.399 . S
C1065 C1070 1.383 . S
C1065 C1072 1.496 . S
C1066 C1067 1.399 . S
C1066 C1070 1.389 . S
C1067 C1066 1.399 . S
C1067 C1069 1.380 . S
C1067 H1084 0.929 . S
C1068 C1065 1.399 . S
C1068 C1069 1.392 . S
C1068 H1085 0.929 . S
C1069 C1067 1.380 . S
C1069 C1068 1.392 . S
C1069 H1086 0.929 . S
C1070 C1065 1.383 . S
C1070 C1066 1.389 . S
C1070 H1087 0.931 . S
C1071 O1056 1.266 . S
C1071 O1057 1.248 . S
C1072 Tb1008 2.802 . S
C1072 O1052 1.264 . S
C1072 O1055 1.256 . S
C1072 C1065 1.496 . S
C1073 C1040 1.448 . S
C1073 H1050 0.930 . S
C1073 C1074 1.328 . S
C1074 C1045 1.427 . S
C1074 H1051 0.929 . S
C1074 C1073 1.328 . S
C1075 O1059 1.264 . S
C1075 O1060 1.243 . S
C1076 C1079 1.399 . S
C1076 C1080 1.383 . S
C1076 C1083 1.496 . S
C1077 C1078 1.399 . S
C1077 C1080 1.389 . S
C1078 C1077 1.399 . S
C1078 C1081 1.380 . S
C1078 H1088 0.929 . S
C1079 C1076 1.399 . S
C1079 C1081 1.392 . S
C1079 H1089 0.929 . S
C1080 C1076 1.383 . S
C1080 C1077 1.389 . S
C1080 H1090 0.931 . S
C1081 C1078 1.380 . S
C1081 C1079 1.392 . S
C1081 H1091 0.929 . S
C1082 O1062 1.266 . S
C1082 O1063 1.248 . S
C1083 Tb1019 2.802 . S
C1083 O1058 1.264 . S
C1083 O1061 1.256 . S
C1083 C1076 1.496 . S
H1084 C1067 0.929 . S
H1085 C1068 0.929 . S
H1086 C1069 0.929 . S
H1087 C1070 0.931 . S
H1088 C1078 0.929 . S
H1089 C1079 0.929 . S
H1090 C1080 0.931 . S
H1091 C1081 0.929 . S
Tb1092 N1121 2.617 . S
Tb1092 N1127 2.572 . S
Tb1092 O1136 2.465 . S
Tb1092 O1137 2.387 . S
Tb1092 O1139 2.428 . S
Tb1092 O1140 2.308 . S
Tb1092 O1144 2.349 . S
Tb1092 O1147 2.393 . S
Tb1092 C1156 2.802 . S
C1093 N1094 1.379 . S
C1093 C1096 1.416 . S
C1093 C1100 1.424 . S
N1094 C1093 1.379 . S
N1094 C1097 1.334 . S
N1094 Tb1103 2.617 . S
C1095 C1097 1.390 . S
C1095 C1098 1.339 . S
C1095 H1115 0.930 . S
C1096 C1093 1.416 . S
C1096 C1098 1.416 . S
C1096 C1102 1.448 . S
C1097 N1094 1.334 . S
C1097 C1095 1.390 . S
C1097 H1108 0.930 . S
C1098 C1095 1.339 . S
C1098 C1096 1.416 . S
C1098 H1119 0.930 1_565 S
C1099 C1100 1.413 . S
C1099 C1101 1.427 . S
C1099 C1105 1.416 . S
C1100 C1093 1.424 . S
C1100 C1099 1.413 . S
C1100 N1104 1.361 . S
C1101 C1099 1.427 . S
C1101 C1102 1.328 . S
C1101 H1116 0.929 . S
C1102 C1096 1.448 . S
C1102 C1101 1.328 . S
C1102 H1117 0.930 1_565 S
Tb1103 N1094 2.617 . S
Tb1103 N1104 2.572 . S
Tb1103 O1138 2.349 . S
Tb1103 O1141 2.393 . S
Tb1103 O1142 2.465 . S
Tb1103 O1143 2.387 . S
Tb1103 O1145 2.428 . S
Tb1103 O1146 2.308 . S
Tb1103 C1167 2.802 . S
N1104 C1100 1.361 . S
N1104 Tb1103 2.572 . S
N1104 C1106 1.340 . S
C1105 C1099 1.416 . S
C1105 C1107 1.332 . S
C1105 H1113 0.931 . S
C1106 N1104 1.340 . S
C1106 C1107 1.407 . S
C1106 H1112 0.930 . S
C1107 C1105 1.332 . S
C1107 C1106 1.407 . S
C1107 H1109 0.929 . S
H1108 C1097 0.930 . S
H1109 C1107 0.929 . S
H1110 C1125 0.930 . S
H1111 C1132 0.929 . S
H1112 C1106 0.930 . S
H1113 C1105 0.931 . S
H1114 C1128 0.930 . S
H1115 C1095 0.930 . S
H1116 C1101 0.929 . S
H1117 C1102 0.930 1_545 S
H1118 C1123 0.930 . S
H1119 C1098 0.930 1_545 S
H1120 C1131 0.931 . S
N1121 Tb1092 2.617 . S
N1121 C1122 1.379 . S
N1121 C1125 1.334 . S
C1122 N1121 1.379 . S
C1122 C1124 1.416 . S
C1122 C1130 1.424 . S
C1123 H1118 0.930 . S
C1123 C1125 1.390 . S
C1123 C1126 1.339 . S
C1124 C1122 1.416 . S
C1124 C1126 1.416 . S
C1124 C1157 1.448 . S
C1125 H1110 0.930 . S
C1125 N1121 1.334 . S
C1125 C1123 1.390 . S
C1126 C1123 1.339 . S
C1126 C1124 1.416 . S
C1126 H1133 0.930 . S
N1127 Tb1092 2.572 . S
N1127 C1128 1.340 . S
N1127 C1130 1.361 . S
C1128 H1114 0.930 . S
C1128 N1127 1.340 . S
C1128 C1132 1.407 . S
C1129 C1130 1.413 . S
C1129 C1131 1.416 . S
C1129 C1158 1.427 . S
C1130 C1122 1.424 . S
C1130 N1127 1.361 . S
C1130 C1129 1.413 . S
C1131 H1120 0.931 . S
C1131 C1129 1.416 . S
C1131 C1132 1.332 . S
C1132 H1111 0.929 . S
C1132 C1128 1.407 . S
C1132 C1131 1.332 . S
H1133 C1126 0.930 . S
H1134 C1157 0.930 . S
H1135 C1158 0.929 . S
O1136 Tb1092 2.465 . S
O1136 C1156 1.264 . S
O1137 Tb1092 2.387 . S
O1137 C1148 1.264 . S
O1138 Tb1103 2.349 . S
O1138 C1148 1.243 . S
O1139 Tb1092 2.428 . S
O1139 C1156 1.256 . S
O1140 Tb1092 2.308 . S
O1140 C1155 1.266 . S
O1141 Tb1103 2.393 . S
O1141 C1155 1.248 . S
O1142 Tb1103 2.465 . S
O1142 C1167 1.264 . S
O1143 Tb1103 2.387 . S
O1143 C1159 1.264 . S
O1144 Tb1092 2.349 . S
O1144 C1159 1.243 . S
O1145 Tb1103 2.428 . S
O1145 C1167 1.256 . S
O1146 Tb1103 2.308 . S
O1146 C1166 1.266 . S
O1147 Tb1092 2.393 . S
O1147 C1166 1.248 . S
C1148 O1137 1.264 . S
C1148 O1138 1.243 . S
C1149 C1152 1.399 . S
C1149 C1154 1.383 . S
C1149 C1156 1.496 . S
C1150 C1151 1.399 . S
C1150 C1154 1.389 . S
C1151 C1150 1.399 . S
C1151 C1153 1.380 . S
C1151 H1168 0.929 . S
C1152 C1149 1.399 . S
C1152 C1153 1.392 . S
C1152 H1169 0.929 . S
C1153 C1151 1.380 . S
C1153 C1152 1.392 . S
C1153 H1170 0.929 . S
C1154 C1149 1.383 . S
C1154 C1150 1.389 . S
C1154 H1171 0.931 . S
C1155 O1140 1.266 . S
C1155 O1141 1.248 . S
C1156 Tb1092 2.802 . S
C1156 O1136 1.264 . S
C1156 O1139 1.256 . S
C1156 C1149 1.496 . S
C1157 C1124 1.448 . S
C1157 H1134 0.930 . S
C1157 C1158 1.328 . S
C1158 C1129 1.427 . S
C1158 H1135 0.929 . S
C1158 C1157 1.328 . S
C1159 O1143 1.264 . S
C1159 O1144 1.243 . S
C1160 C1163 1.399 . S
C1160 C1164 1.383 . S
C1160 C1167 1.496 . S
C1161 C1162 1.399 . S
C1161 C1164 1.389 . S
C1162 C1161 1.399 . S
C1162 C1165 1.380 . S
C1162 H1172 0.929 . S
C1163 C1160 1.399 . S
C1163 C1165 1.392 . S
C1163 H1173 0.929 . S
C1164 C1160 1.383 . S
C1164 C1161 1.389 . S
C1164 H1174 0.931 . S
C1165 C1162 1.380 . S
C1165 C1163 1.392 . S
C1165 H1175 0.929 1_655 S
C1166 O1146 1.266 . S
C1166 O1147 1.248 . S
C1167 Tb1103 2.802 . S
C1167 O1142 1.264 . S
C1167 O1145 1.256 . S
C1167 C1160 1.496 . S
H1168 C1151 0.929 . S
H1169 C1152 0.929 . S
H1170 C1153 0.929 . S
H1171 C1154 0.931 . S
H1172 C1162 0.929 . S
H1173 C1163 0.929 . S
H1174 C1164 0.931 . S
H1175 C1165 0.929 1_455 S
Tb1176 N1205 2.617 . S
Tb1176 N1211 2.572 . S
Tb1176 O1220 2.465 . S
Tb1176 O1221 2.387 . S
Tb1176 O1223 2.428 . S
Tb1176 O1224 2.308 . S
Tb1176 O1228 2.349 . S
Tb1176 O1231 2.393 . S
Tb1176 C1240 2.802 . S
C1177 N1178 1.379 . S
C1177 C1180 1.416 . S
C1177 C1184 1.424 . S
N1178 C1177 1.379 . S
N1178 C1181 1.334 . S
N1178 Tb1187 2.617 . S
C1179 C1181 1.390 . S
C1179 C1182 1.339 . S
C1179 H1199 0.930 . S
C1180 C1177 1.416 . S
C1180 C1182 1.416 . S
C1180 C1186 1.448 . S
C1181 N1178 1.334 . S
C1181 C1179 1.390 . S
C1181 H1192 0.930 . S
C1182 C1179 1.339 . S
C1182 C1180 1.416 . S
C1182 H1203 0.930 . S
C1183 C1184 1.413 . S
C1183 C1185 1.427 . S
C1183 C1189 1.416 . S
C1184 C1177 1.424 . S
C1184 C1183 1.413 . S
C1184 N1188 1.361 . S
C1185 C1183 1.427 . S
C1185 C1186 1.328 . S
C1185 H1200 0.929 . S
C1186 C1180 1.448 . S
C1186 C1185 1.328 . S
C1186 H1201 0.930 . S
Tb1187 N1178 2.617 . S
Tb1187 N1188 2.572 . S
Tb1187 O1222 2.349 . S
Tb1187 O1225 2.393 . S
Tb1187 O1226 2.465 . S
Tb1187 O1227 2.387 . S
Tb1187 O1229 2.428 . S
Tb1187 O1230 2.308 . S
Tb1187 C1251 2.802 . S
N1188 C1184 1.361 . S
N1188 Tb1187 2.572 . S
N1188 C1190 1.340 . S
C1189 C1183 1.416 . S
C1189 C1191 1.332 . S
C1189 H1197 0.931 . S
C1190 N1188 1.340 . S
C1190 C1191 1.407 . S
C1190 H1196 0.930 . S
C1191 C1189 1.332 . S
C1191 C1190 1.407 . S
C1191 H1193 0.929 . S
H1192 C1181 0.930 . S
H1193 C1191 0.929 . S
H1194 C1209 0.930 . S
H1195 C1216 0.929 . S
H1196 C1190 0.930 . S
H1197 C1189 0.931 . S
H1198 C1212 0.930 . S
H1199 C1179 0.930 . S
H1200 C1185 0.929 . S
H1201 C1186 0.930 . S
H1202 C1207 0.930 . S
H1203 C1182 0.930 . S
H1204 C1215 0.931 . S
N1205 Tb1176 2.617 . S
N1205 C1206 1.379 . S
N1205 C1209 1.334 . S
C1206 N1205 1.379 . S
C1206 C1208 1.416 . S
C1206 C1214 1.424 . S
C1207 H1202 0.930 . S
C1207 C1209 1.390 . S
C1207 C1210 1.339 . S
C1208 C1206 1.416 . S
C1208 C1210 1.416 . S
C1208 C1241 1.448 . S
C1209 H1194 0.930 . S
C1209 N1205 1.334 . S
C1209 C1207 1.390 . S
C1210 C1207 1.339 . S
C1210 C1208 1.416 . S
C1210 H1217 0.930 . S
N1211 Tb1176 2.572 . S
N1211 C1212 1.340 . S
N1211 C1214 1.361 . S
C1212 H1198 0.930 . S
C1212 N1211 1.340 . S
C1212 C1216 1.407 . S
C1213 C1214 1.413 . S
C1213 C1215 1.416 . S
C1213 C1242 1.427 . S
C1214 C1206 1.424 . S
C1214 N1211 1.361 . S
C1214 C1213 1.413 . S
C1215 H1204 0.931 . S
C1215 C1213 1.416 . S
C1215 C1216 1.332 . S
C1216 H1195 0.929 . S
C1216 C1212 1.407 . S
C1216 C1215 1.332 . S
H1217 C1210 0.930 . S
H1218 C1241 0.930 . S
H1219 C1242 0.929 . S
O1220 Tb1176 2.465 . S
O1220 C1240 1.264 . S
O1221 Tb1176 2.387 . S
O1221 C1232 1.264 . S
O1222 Tb1187 2.349 . S
O1222 C1232 1.243 . S
O1223 Tb1176 2.428 . S
O1223 C1240 1.256 . S
O1224 Tb1176 2.308 . S
O1224 C1239 1.266 . S
O1225 Tb1187 2.393 . S
O1225 C1239 1.248 . S
O1226 Tb1187 2.465 . S
O1226 C1251 1.264 . S
O1227 Tb1187 2.387 . S
O1227 C1243 1.264 . S
O1228 Tb1176 2.349 . S
O1228 C1243 1.243 . S
O1229 Tb1187 2.428 . S
O1229 C1251 1.256 . S
O1230 Tb1187 2.308 . S
O1230 C1250 1.266 . S
O1231 Tb1176 2.393 . S
O1231 C1250 1.248 . S
C1232 O1221 1.264 . S
C1232 O1222 1.243 . S
C1233 C1236 1.399 . S
C1233 C1238 1.383 . S
C1233 C1240 1.496 . S
C1234 C1235 1.399 . S
C1234 C1238 1.389 . S
C1235 C1234 1.399 . S
C1235 C1237 1.380 . S
C1235 H1252 0.929 . S
C1236 C1233 1.399 . S
C1236 C1237 1.392 . S
C1236 H1253 0.929 . S
C1237 C1235 1.380 . S
C1237 C1236 1.392 . S
C1237 H1254 0.929 . S
C1238 C1233 1.383 . S
C1238 C1234 1.389 . S
C1238 H1255 0.931 . S
C1239 O1224 1.266 . S
C1239 O1225 1.248 . S
C1240 Tb1176 2.802 . S
C1240 O1220 1.264 . S
C1240 O1223 1.256 . S
C1240 C1233 1.496 . S
C1241 C1208 1.448 . S
C1241 H1218 0.930 . S
C1241 C1242 1.328 . S
C1242 C1213 1.427 . S
C1242 H1219 0.929 . S
C1242 C1241 1.328 . S
C1243 O1227 1.264 . S
C1243 O1228 1.243 . S
C1244 C1247 1.399 . S
C1244 C1248 1.383 . S
C1244 C1251 1.496 . S
C1245 C1246 1.399 . S
C1245 C1248 1.389 . S
C1246 C1245 1.399 . S
C1246 C1249 1.380 . S
C1246 H1256 0.929 . S
C1247 C1244 1.399 . S
C1247 C1249 1.392 . S
C1247 H1257 0.929 . S
C1248 C1244 1.383 . S
C1248 C1245 1.389 . S
C1248 H1258 0.931 . S
C1249 C1246 1.380 . S
C1249 C1247 1.392 . S
C1249 H1259 0.929 . S
C1250 O1230 1.266 . S
C1250 O1231 1.248 . S
C1251 Tb1187 2.802 . S
C1251 O1226 1.264 . S
C1251 O1229 1.256 . S
C1251 C1244 1.496 . S
H1252 C1235 0.929 . S
H1253 C1236 0.929 . S
H1254 C1237 0.929 . S
H1255 C1238 0.931 . S
H1256 C1246 0.929 . S
H1257 C1247 0.929 . S
H1258 C1248 0.931 . S
H1259 C1249 0.929 . S
Tb1260 N1289 2.617 . S
Tb1260 N1295 2.572 . S
Tb1260 O1304 2.465 1_655 S
Tb1260 O1305 2.387 . S
Tb1260 O1307 2.428 . S
Tb1260 O1308 2.308 1_655 S
Tb1260 O1312 2.349 1_654 S
Tb1260 O1315 2.393 1_554 S
Tb1260 C1324 2.802 . S
C1261 N1262 1.379 . S
C1261 C1264 1.416 . S
C1261 C1268 1.424 . S
N1262 C1261 1.379 . S
N1262 C1265 1.334 . S
N1262 Tb1271 2.617 . S
C1263 C1265 1.390 . S
C1263 C1266 1.339 . S
C1263 H1283 0.930 . S
C1264 C1261 1.416 . S
C1264 C1266 1.416 . S
C1264 C1270 1.448 . S
C1265 N1262 1.334 . S
C1265 C1263 1.390 . S
C1265 H1276 0.930 . S
C1266 C1263 1.339 . S
C1266 C1264 1.416 . S
C1266 H1287 0.930 . S
C1267 C1268 1.413 . S
C1267 C1269 1.427 . S
C1267 C1273 1.416 . S
C1268 C1261 1.424 . S
C1268 C1267 1.413 . S
C1268 N1272 1.361 . S
C1269 C1267 1.427 . S
C1269 C1270 1.328 . S
C1269 H1284 0.929 . S
C1270 C1264 1.448 . S
C1270 C1269 1.328 . S
C1270 H1285 0.930 . S
Tb1271 N1262 2.617 . S
Tb1271 N1272 2.572 . S
Tb1271 O1306 2.349 1_456 S
Tb1271 O1309 2.393 1_556 S
Tb1271 O1310 2.465 1_455 S
Tb1271 O1311 2.387 . S
Tb1271 O1313 2.428 . S
Tb1271 O1314 2.308 1_455 S
Tb1271 C1335 2.802 . S
N1272 C1268 1.361 . S
N1272 Tb1271 2.572 . S
N1272 C1274 1.340 . S
C1273 C1267 1.416 . S
C1273 C1275 1.332 . S
C1273 H1281 0.931 . S
C1274 N1272 1.340 . S
C1274 C1275 1.407 . S
C1274 H1280 0.930 . S
C1275 C1273 1.332 . S
C1275 C1274 1.407 . S
C1275 H1277 0.929 . S
H1276 C1265 0.930 . S
H1277 C1275 0.929 . S
H1278 C1293 0.930 . S
H1279 C1300 0.929 . S
H1280 C1274 0.930 . S
H1281 C1273 0.931 . S
H1282 C1296 0.930 . S
H1283 C1263 0.930 . S
H1284 C1269 0.929 . S
H1285 C1270 0.930 . S
H1286 C1291 0.930 . S
H1287 C1266 0.930 . S
H1288 C1299 0.931 . S
N1289 Tb1260 2.617 . S
N1289 C1290 1.379 . S
N1289 C1293 1.334 . S
C1290 N1289 1.379 . S
C1290 C1292 1.416 . S
C1290 C1298 1.424 . S
C1291 H1286 0.930 . S
C1291 C1293 1.390 . S
C1291 C1294 1.339 . S
C1292 C1290 1.416 . S
C1292 C1294 1.416 . S
C1292 C1325 1.448 . S
C1293 H1278 0.930 . S
C1293 N1289 1.334 . S
C1293 C1291 1.390 . S
C1294 C1291 1.339 . S
C1294 C1292 1.416 . S
C1294 H1301 0.930 . S
N1295 Tb1260 2.572 . S
N1295 C1296 1.340 . S
N1295 C1298 1.361 . S
C1296 H1282 0.930 . S
C1296 N1295 1.340 . S
C1296 C1300 1.407 . S
C1297 C1298 1.413 . S
C1297 C1299 1.416 . S
C1297 C1326 1.427 . S
C1298 C1290 1.424 . S
C1298 N1295 1.361 . S
C1298 C1297 1.413 . S
C1299 H1288 0.931 . S
C1299 C1297 1.416 . S
C1299 C1300 1.332 . S
C1300 H1279 0.929 . S
C1300 C1296 1.407 . S
C1300 C1299 1.332 . S
H1301 C1294 0.930 . S
H1302 C1325 0.930 . S
H1303 C1326 0.929 . S
O1304 Tb1260 2.465 1_455 S
O1304 C1324 1.264 1_455 S
O1305 Tb1260 2.387 . S
O1305 C1316 1.264 . S
O1306 Tb1271 2.349 1_654 S
O1306 C1316 1.243 . S
O1307 Tb1260 2.428 . S
O1307 C1324 1.256 . S
O1308 Tb1260 2.308 1_455 S
O1308 C1323 1.266 . S
O1309 Tb1271 2.393 1_554 S
O1309 C1323 1.248 . S
O1310 Tb1271 2.465 1_655 S
O1310 C1335 1.264 1_655 S
O1311 Tb1271 2.387 . S
O1311 C1327 1.264 . S
O1312 Tb1260 2.349 1_456 S
O1312 C1327 1.243 . S
O1313 Tb1271 2.428 . S
O1313 C1335 1.256 . S
O1314 Tb1271 2.308 1_655 S
O1314 C1334 1.266 . S
O1315 Tb1260 2.393 1_556 S
O1315 C1334 1.248 . S
C1316 O1305 1.264 . S
C1316 O1306 1.243 . S
C1317 C1320 1.399 . S
C1317 C1322 1.383 1_655 S
C1317 C1324 1.496 . S
C1318 C1319 1.399 1_455 S
C1318 C1322 1.389 . S
C1319 C1318 1.399 1_655 S
C1319 C1321 1.380 . S
C1319 H1336 0.929 1_655 S
C1320 C1317 1.399 . S
C1320 C1321 1.392 . S
C1320 H1337 0.929 . S
C1321 C1319 1.380 . S
C1321 C1320 1.392 . S
C1321 H1338 0.929 . S
C1322 C1317 1.383 1_455 S
C1322 C1318 1.389 . S
C1322 H1339 0.931 . S
C1323 O1308 1.266 . S
C1323 O1309 1.248 . S
C1324 Tb1260 2.802 . S
C1324 O1304 1.264 1_655 S
C1324 O1307 1.256 . S
C1324 C1317 1.496 . S
C1325 C1292 1.448 . S
C1325 H1302 0.930 . S
C1325 C1326 1.328 . S
C1326 C1297 1.427 . S
C1326 H1303 0.929 . S
C1326 C1325 1.328 . S
C1327 O1311 1.264 . S
C1327 O1312 1.243 . S
C1328 C1331 1.399 . S
C1328 C1332 1.383 1_455 S
C1328 C1335 1.496 . S
C1329 C1330 1.399 1_655 S
C1329 C1332 1.389 . S
C1330 C1329 1.399 1_455 S
C1330 C1333 1.380 . S
C1330 H1340 0.950 . S
C1331 C1328 1.399 . S
C1331 C1333 1.392 . S
C1331 H1341 0.929 . S
C1332 C1328 1.383 1_655 S
C1332 C1329 1.389 . S
C1332 H1342 0.931 . S
C1333 C1330 1.380 . S
C1333 C1331 1.392 . S
C1333 H1343 0.929 . S
C1334 O1314 1.266 . S
C1334 O1315 1.248 . S
C1335 Tb1271 2.802 . S
C1335 O1310 1.264 1_455 S
C1335 O1313 1.256 . S
C1335 C1328 1.496 . S
H1336 C1319 0.929 1_455 S
H1337 C1320 0.929 . S
H1338 C1321 0.929 . S
H1339 C1322 0.931 . S
H1340 C1330 0.950 . S
H1341 C1331 0.929 . S
H1342 C1332 0.931 . S
H1343 C1333 0.929 . S
C1344 C1345 1.363 . S
C1344 C1350 1.379 . S
C1344 N1352 1.356 . S
C1345 C1344 1.363 . S
C1345 C1351 1.363 . S
C1346 C1347 1.363 . S
C1346 C1351 1.379 . S
C1346 N1353 1.356 . S
C1347 C1346 1.363 . S
C1347 C1350 1.363 . S
N1348 C1350 1.356 . S
N1348 H1360 0.984 . S
N1348 H1361 0.985 . S
N1349 C1351 1.356 . S
N1349 H1354 0.984 . S
N1349 H1355 0.985 . S
C1350 C1344 1.379 . S
C1350 C1347 1.363 . S
C1350 N1348 1.356 . S
C1351 C1345 1.363 . S
C1351 C1346 1.379 . S
C1351 N1349 1.356 . S
N1352 C1344 1.356 . S
N1352 H1358 0.984 . S
N1352 H1359 0.984 . S
N1353 C1346 1.356 . S
N1353 H1356 0.984 . S
N1353 H1357 0.985 . S
H1354 N1349 0.984 . S
H1355 N1349 0.985 . S
H1356 N1353 0.984 . S
H1357 N1353 0.985 . S
H1358 N1352 0.984 . S
H1359 N1352 0.984 . S
H1360 N1348 0.984 . S
H1361 N1348 0.985 . S
C1362 C1363 1.363 . S
C1362 C1368 1.379 . S
C1362 N1370 1.356 1_565 S
C1363 C1362 1.363 . S
C1363 C1369 1.363 . S
C1364 C1365 1.363 . S
C1364 C1369 1.379 . S
C1364 N1371 1.356 . S
C1365 C1364 1.363 . S
C1365 C1368 1.363 . S
N1366 C1368 1.356 . S
N1366 H1378 0.984 . S
N1366 H1379 0.985 . S
N1367 C1369 1.356 . S
N1367 H1372 0.984 . S
N1367 H1373 0.985 . S
C1368 C1362 1.379 . S
C1368 C1365 1.363 . S
C1368 N1366 1.356 . S
C1369 C1363 1.363 . S
C1369 C1364 1.379 . S
C1369 N1367 1.356 . S
N1370 C1362 1.356 1_545 S
N1370 H1376 0.984 . S
N1370 H1377 0.984 . S
N1371 C1364 1.356 . S
N1371 H1374 0.984 . S
N1371 H1375 0.985 . S
H1372 N1367 0.984 . S
H1373 N1367 0.985 . S
H1374 N1371 0.984 . S
H1375 N1371 0.985 . S
H1376 N1370 0.984 . S
H1377 N1370 0.984 . S
H1378 N1366 0.984 . S
H1379 N1366 0.985 . S
C1380 C1381 1.363 . S
C1380 C1386 1.379 . S
C1380 N1388 1.356 . S
C1381 C1380 1.363 . S
C1381 C1387 1.363 . S
C1382 C1383 1.363 . S
C1382 C1387 1.379 . S
C1382 N1389 1.356 . S
C1383 C1382 1.363 . S
C1383 C1386 1.363 . S
N1384 C1386 1.356 . S
N1384 H1396 0.984 . S
N1384 H1397 0.985 . S
N1385 C1387 1.356 . S
N1385 H1390 0.984 . S
N1385 H1391 0.985 . S
C1386 C1380 1.379 . S
C1386 C1383 1.363 . S
C1386 N1384 1.356 . S
C1387 C1381 1.363 . S
C1387 C1382 1.379 . S
C1387 N1385 1.356 . S
N1388 C1380 1.356 . S
N1388 H1394 0.984 . S
N1388 H1395 0.984 . S
N1389 C1382 1.356 . S
N1389 H1392 0.984 . S
N1389 H1393 0.985 . S
H1390 N1385 0.984 . S
H1391 N1385 0.985 . S
H1392 N1389 0.984 . S
H1393 N1389 0.985 . S
H1394 N1388 0.984 . S
H1395 N1388 0.984 . S
H1396 N1384 0.984 . S
H1397 N1384 0.985 . S
C1398 C1399 1.363 . S
C1398 C1404 1.379 . S
C1398 N1406 1.356 . S
C1399 C1398 1.363 . S
C1399 C1405 1.363 . S
C1400 C1401 1.363 . S
C1400 C1405 1.379 . S
C1400 N1407 1.356 . S
C1401 C1400 1.363 . S
C1401 C1404 1.363 . S
N1402 C1404 1.356 1_565 S
N1402 H1414 0.984 . S
N1402 H1415 0.985 . S
N1403 C1405 1.356 . S
N1403 H1408 0.984 . S
N1403 H1409 0.985 . S
C1404 C1398 1.379 . S
C1404 C1401 1.363 . S
C1404 N1402 1.356 1_545 S
C1405 C1399 1.363 . S
C1405 C1400 1.379 . S
C1405 N1403 1.356 . S
N1406 C1398 1.356 . S
N1406 H1412 0.984 . S
N1406 H1413 0.984 . S
N1407 C1400 1.356 . S
N1407 H1410 0.984 . S
N1407 H1411 0.985 . S
H1408 N1403 0.984 . S
H1409 N1403 0.985 . S
H1410 N1407 0.984 . S
H1411 N1407 0.985 . S
H1412 N1406 0.984 . S
H1413 N1406 0.984 . S
H1414 N1402 0.984 . S
H1415 N1402 0.985 . S
C1416 C1417 1.363 . S
C1416 C1422 1.379 . S
C1416 N1424 1.356 . S
C1417 C1416 1.363 . S
C1417 C1423 1.363 . S
C1418 C1419 1.363 . S
C1418 C1423 1.379 . S
C1418 N1425 1.356 . S
C1419 C1418 1.363 . S
C1419 C1422 1.363 . S
N1420 C1422 1.356 . S
N1420 H1432 0.984 . S
N1420 H1433 0.985 . S
N1421 C1423 1.356 . S
N1421 H1426 0.984 . S
N1421 H1427 0.985 1_565 S
C1422 C1416 1.379 . S
C1422 C1419 1.363 . S
C1422 N1420 1.356 . S
C1423 C1417 1.363 . S
C1423 C1418 1.379 . S
C1423 N1421 1.356 . S
N1424 C1416 1.356 . S
N1424 H1430 0.984 . S
N1424 H1431 0.984 . S
N1425 C1418 1.356 . S
N1425 H1428 0.984 . S
N1425 H1429 0.985 1_565 S
H1426 N1421 0.984 . S
H1427 N1421 0.985 1_545 S
H1428 N1425 0.984 . S
H1429 N1425 0.985 1_545 S
H1430 N1424 0.984 . S
H1431 N1424 0.984 . S
H1432 N1420 0.984 . S
H1433 N1420 0.985 . S
C1434 C1435 1.363 . S
C1434 C1440 1.379 . S
C1434 N1442 1.356 . S
C1435 C1434 1.363 . S
C1435 C1441 1.363 . S
C1436 C1437 1.363 . S
C1436 C1441 1.379 . S
C1436 N1443 1.356 . S
C1437 C1436 1.363 . S
C1437 C1440 1.363 . S
N1438 C1440 1.356 . S
N1438 H1450 0.984 . S
N1438 H1451 0.985 . S
N1439 C1441 1.356 . S
N1439 H1444 0.984 . S
N1439 H1445 0.985 . S
C1440 C1434 1.379 . S
C1440 C1437 1.363 . S
C1440 N1438 1.356 . S
C1441 C1435 1.363 . S
C1441 C1436 1.379 . S
C1441 N1439 1.356 . S
N1442 C1434 1.356 . S
N1442 H1448 0.984 . S
N1442 H1449 0.984 . S
N1443 C1436 1.356 . S
N1443 H1446 0.984 . S
N1443 H1447 0.985 . S
H1444 N1439 0.984 . S
H1445 N1439 0.985 . S
H1446 N1443 0.984 . S
H1447 N1443 0.985 . S
H1448 N1442 0.984 . S
H1449 N1442 0.984 . S
H1450 N1438 0.984 . S
H1451 N1438 0.985 . S
C1452 C1453 1.363 . S
C1452 C1458 1.379 . S
C1452 N1460 1.356 . S
C1453 C1452 1.363 . S
C1453 C1459 1.363 . S
C1454 C1455 1.363 . S
C1454 C1459 1.379 . S
C1454 N1461 1.356 . S
C1455 C1454 1.363 . S
C1455 C1458 1.363 . S
N1456 C1458 1.356 . S
N1456 H1468 0.984 . S
N1456 H1469 0.985 . S
N1457 C1459 1.356 . S
N1457 H1462 0.984 . S
N1457 H1463 0.985 . S
C1458 C1452 1.379 . S
C1458 C1455 1.363 . S
C1458 N1456 1.356 . S
C1459 C1453 1.363 . S
C1459 C1454 1.379 . S
C1459 N1457 1.356 . S
N1460 C1452 1.356 . S
N1460 H1466 0.984 . S
N1460 H1467 0.984 . S
N1461 C1454 1.356 . S
N1461 H1464 0.984 . S
N1461 H1465 0.985 . S
H1462 N1457 0.984 . S
H1463 N1457 0.985 . S
H1464 N1461 0.984 . S
H1465 N1461 0.985 . S
H1466 N1460 0.984 . S
H1467 N1460 0.984 . S
H1468 N1456 0.984 . S
H1469 N1456 0.985 . S
C1470 C1471 1.363 . S
C1470 C1476 1.379 . S
C1470 N1478 1.356 . S
C1471 C1470 1.363 . S
C1471 C1477 1.363 . S
C1472 C1473 1.363 . S
C1472 C1477 1.379 . S
C1472 N1479 1.356 . S
C1473 C1472 1.363 . S
C1473 C1476 1.363 . S
N1474 C1476 1.356 . S
N1474 H1486 0.984 . S
N1474 H1487 0.985 . S
N1475 C1477 1.356 . S
N1475 H1480 0.984 . S
N1475 H1481 0.985 . S
C1476 C1470 1.379 . S
C1476 C1473 1.363 . S
C1476 N1474 1.356 . S
C1477 C1471 1.363 . S
C1477 C1472 1.379 . S
C1477 N1475 1.356 . S
N1478 C1470 1.356 . S
N1478 H1484 0.984 . S
N1478 H1485 0.984 . S
N1479 C1472 1.356 . S
N1479 H1482 0.984 . S
N1479 H1483 0.985 . S
H1480 N1475 0.984 . S
H1481 N1475 0.985 . S
H1482 N1479 0.984 . S
H1483 N1479 0.985 . S
H1484 N1478 0.984 . S
H1485 N1478 0.984 . S
H1486 N1474 0.984 . S
H1487 N1474 0.985 . S
C1488 C1489 1.363 . S
C1488 C1494 1.379 . S
C1488 N1496 1.356 . S
C1489 C1488 1.363 . S
C1489 C1495 1.363 . S
C1490 C1491 1.363 . S
C1490 C1495 1.379 . S
C1490 N1497 1.356 . S
C1491 C1490 1.363 . S
C1491 C1494 1.363 . S
N1492 C1494 1.356 . S
N1492 H1504 0.984 . S
N1492 H1505 0.985 . S
N1493 C1495 1.356 . S
N1493 H1498 0.984 . S
N1493 H1499 0.985 . S
C1494 C1488 1.379 . S
C1494 C1491 1.363 . S
C1494 N1492 1.356 . S
C1495 C1489 1.363 . S
C1495 C1490 1.379 . S
C1495 N1493 1.356 . S
N1496 C1488 1.356 . S
N1496 H1502 0.984 . S
N1496 H1503 0.984 . S
N1497 C1490 1.356 . S
N1497 H1500 0.984 . S
N1497 H1501 0.985 . S
H1498 N1493 0.984 . S
H1499 N1493 0.985 . S
H1500 N1497 0.984 . S
H1501 N1497 0.985 . S
H1502 N1496 0.984 . S
H1503 N1496 0.984 . S
H1504 N1492 0.984 . S
H1505 N1492 0.985 . S
C1506 C1507 1.363 . S
C1506 C1512 1.379 . S
C1506 N1514 1.356 . S
C1507 C1506 1.363 . S
C1507 C1513 1.363 . S
C1508 C1509 1.363 . S
C1508 C1513 1.379 . S
C1508 N1515 1.356 . S
C1509 C1508 1.363 . S
C1509 C1512 1.363 . S
N1510 C1512 1.356 . S
N1510 H1522 0.984 . S
N1510 H1523 0.985 . S
N1511 C1513 1.356 . S
N1511 H1516 0.984 . S
N1511 H1517 0.985 . S
C1512 C1506 1.379 . S
C1512 C1509 1.363 . S
C1512 N1510 1.356 . S
C1513 C1507 1.363 . S
C1513 C1508 1.379 . S
C1513 N1511 1.356 . S
N1514 C1506 1.356 . S
N1514 H1520 0.984 . S
N1514 H1521 0.984 . S
N1515 C1508 1.356 . S
N1515 H1518 0.984 . S
N1515 H1519 0.985 . S
H1516 N1511 0.984 . S
H1517 N1511 0.985 . S
H1518 N1515 0.984 . S
H1519 N1515 0.985 . S
H1520 N1514 0.984 . S
H1521 N1514 0.984 . S
H1522 N1510 0.984 . S
H1523 N1510 0.985 . S
C1524 C1525 1.363 . S
C1524 C1530 1.379 . S
C1524 N1532 1.356 . S
C1525 C1524 1.363 . S
C1525 C1531 1.363 . S
C1526 C1527 1.363 . S
C1526 C1531 1.379 . S
C1526 N1533 1.356 . S
C1527 C1526 1.363 . S
C1527 C1530 1.363 . S
N1528 C1530 1.356 . S
N1528 H1540 0.984 . S
N1528 H1541 0.985 . S
N1529 C1531 1.356 . S
N1529 H1534 0.984 . S
N1529 H1535 0.985 . S
C1530 C1524 1.379 . S
C1530 C1527 1.363 . S
C1530 N1528 1.356 . S
C1531 C1525 1.363 . S
C1531 C1526 1.379 . S
C1531 N1529 1.356 . S
N1532 C1524 1.356 . S
N1532 H1538 0.984 . S
N1532 H1539 0.984 . S
N1533 C1526 1.356 . S
N1533 H1536 0.984 . S
N1533 H1537 0.985 . S
H1534 N1529 0.984 . S
H1535 N1529 0.985 . S
H1536 N1533 0.984 . S
H1537 N1533 0.985 . S
H1538 N1532 0.984 . S
H1539 N1532 0.984 . S
H1540 N1528 0.984 . S
H1541 N1528 0.985 . S
C1542 C1543 1.363 . S
C1542 C1548 1.379 . S
C1542 N1550 1.356 . S
C1543 C1542 1.363 . S
C1543 C1549 1.363 . S
C1544 C1545 1.363 . S
C1544 C1549 1.379 . S
C1544 N1551 1.356 . S
C1545 C1544 1.363 . S
C1545 C1548 1.363 . S
N1546 C1548 1.356 . S
N1546 H1558 0.984 . S
N1546 H1559 0.985 . S
N1547 C1549 1.356 . S
N1547 H1552 0.984 . S
N1547 H1553 0.985 . S
C1548 C1542 1.379 . S
C1548 C1545 1.363 . S
C1548 N1546 1.356 . S
C1549 C1543 1.363 . S
C1549 C1544 1.379 . S
C1549 N1547 1.356 . S
N1550 C1542 1.356 . S
N1550 H1556 0.984 . S
N1550 H1557 0.984 . S
N1551 C1544 1.356 . S
N1551 H1554 0.984 . S
N1551 H1555 0.985 . S
H1552 N1547 0.984 . S
H1553 N1547 0.985 . S
H1554 N1551 0.984 . S
H1555 N1551 0.985 . S
H1556 N1550 0.984 . S
H1557 N1550 0.984 . S
H1558 N1546 0.984 . S
H1559 N1546 0.985 . S
C1560 C1561 1.363 . S
C1560 C1566 1.379 . S
C1560 N1568 1.356 . S
C1561 C1560 1.363 . S
C1561 C1567 1.363 . S
C1562 C1563 1.363 . S
C1562 C1567 1.379 . S
C1562 N1569 1.356 . S
C1563 C1562 1.363 . S
C1563 C1566 1.363 . S
N1564 C1566 1.356 . S
N1564 H1576 0.984 . S
N1564 H1577 0.985 . S
N1565 C1567 1.356 . S
N1565 H1570 0.984 . S
N1565 H1571 0.985 . S
C1566 C1560 1.379 . S
C1566 C1563 1.363 . S
C1566 N1564 1.356 . S
C1567 C1561 1.363 . S
C1567 C1562 1.379 . S
C1567 N1565 1.356 . S
N1568 C1560 1.356 . S
N1568 H1574 0.984 . S
N1568 H1575 0.984 . S
N1569 C1562 1.356 . S
N1569 H1572 0.984 . S
N1569 H1573 0.985 1_565 S
H1570 N1565 0.984 . S
H1571 N1565 0.985 . S
H1572 N1569 0.984 . S
H1573 N1569 0.985 1_545 S
H1574 N1568 0.984 . S
H1575 N1568 0.984 . S
H1576 N1564 0.984 . S
H1577 N1564 0.985 . S
C1578 C1579 1.363 . S
C1578 C1584 1.379 . S
C1578 N1586 1.356 . S
C1579 C1578 1.363 . S
C1579 C1585 1.363 . S
C1580 C1581 1.363 . S
C1580 C1585 1.379 . S
C1580 N1587 1.356 . S
C1581 C1580 1.363 . S
C1581 C1584 1.363 . S
N1582 C1584 1.356 . S
N1582 H1594 0.984 . S
N1582 H1595 0.985 . S
N1583 C1585 1.356 . S
N1583 H1588 0.984 . S
N1583 H1589 0.985 . S
C1584 C1578 1.379 . S
C1584 C1581 1.363 . S
C1584 N1582 1.356 . S
C1585 C1579 1.363 . S
C1585 C1580 1.379 . S
C1585 N1583 1.356 . S
N1586 C1578 1.356 . S
N1586 H1592 0.984 . S
N1586 H1593 0.984 . S
N1587 C1580 1.356 . S
N1587 H1590 0.984 . S
N1587 H1591 0.985 . S
H1588 N1583 0.984 . S
H1589 N1583 0.985 . S
H1590 N1587 0.984 . S
H1591 N1587 0.985 . S
H1592 N1586 0.984 . S
H1593 N1586 0.984 . S
H1594 N1582 0.984 . S
H1595 N1582 0.985 . S
C1596 C1597 1.363 . S
C1596 C1602 1.379 . S
C1596 N1604 1.356 . S
C1597 C1596 1.363 . S
C1597 C1603 1.363 . S
C1598 C1599 1.363 . S
C1598 C1603 1.379 . S
C1598 N1605 1.356 . S
C1599 C1598 1.363 . S
C1599 C1602 1.363 . S
N1600 C1602 1.356 . S
N1600 H1612 0.984 . S
N1600 H1613 0.985 . S
N1601 C1603 1.356 . S
N1601 H1606 0.984 . S
N1601 H1607 0.985 . S
C1602 C1596 1.379 . S
C1602 C1599 1.363 . S
C1602 N1600 1.356 . S
C1603 C1597 1.363 . S
C1603 C1598 1.379 . S
C1603 N1601 1.356 . S
N1604 C1596 1.356 . S
N1604 H1610 0.984 . S
N1604 H1611 0.984 . S
N1605 C1598 1.356 . S
N1605 H1608 0.984 . S
N1605 H1609 0.985 . S
H1606 N1601 0.984 . S
H1607 N1601 0.985 . S
H1608 N1605 0.984 . S
H1609 N1605 0.985 . S
H1610 N1604 0.984 . S
H1611 N1604 0.984 . S
H1612 N1600 0.984 . S
H1613 N1600 0.985 . S
C1614 C1615 1.363 . S
C1614 C1620 1.379 . S
C1614 N1622 1.356 . S
C1615 C1614 1.363 . S
C1615 C1621 1.363 . S
C1616 C1617 1.363 . S
C1616 C1621 1.379 . S
C1616 N1623 1.356 . S
C1617 C1616 1.363 . S
C1617 C1620 1.363 . S
N1618 C1620 1.356 . S
N1618 H1630 0.984 . S
N1618 H1631 0.985 . S
N1619 C1621 1.356 . S
N1619 H1624 0.965 1_455 S
N1619 H1625 0.985 1_455 S
C1620 C1614 1.379 . S
C1620 C1617 1.363 . S
C1620 N1618 1.356 . S
C1621 C1615 1.363 . S
C1621 C1616 1.379 . S
C1621 N1619 1.356 . S
N1622 C1614 1.356 . S
N1622 H1628 0.984 . S
N1622 H1629 0.984 . S
N1623 C1616 1.356 . S
N1623 H1626 0.984 . S
N1623 H1627 0.985 . S
H1624 N1619 0.965 1_655 S
H1625 N1619 0.985 1_655 S
H1626 N1623 0.984 . S
H1627 N1623 0.985 . S
H1628 N1622 0.984 . S
H1629 N1622 0.984 . S
H1630 N1618 0.984 . S
H1631 N1618 0.985 . S
C1632 C1633 1.363 . S
C1632 C1638 1.379 . S
C1632 N1640 1.356 . S
C1633 C1632 1.363 . S
C1633 C1639 1.363 . S
C1634 C1635 1.363 . S
C1634 C1639 1.379 . S
C1634 N1641 1.356 . S
C1635 C1634 1.363 . S
C1635 C1638 1.363 . S
N1636 C1638 1.356 . S
N1636 H1648 0.984 . S
N1636 H1649 0.985 . S
N1637 C1639 1.356 . S
N1637 H1642 0.984 . S
N1637 H1643 0.985 . S
C1638 C1632 1.379 . S
C1638 C1635 1.363 . S
C1638 N1636 1.356 . S
C1639 C1633 1.363 . S
C1639 C1634 1.379 . S
C1639 N1637 1.356 . S
N1640 C1632 1.356 . S
N1640 H1646 0.984 . S
N1640 H1647 0.984 . S
N1641 C1634 1.356 . S
N1641 H1644 0.984 . S
N1641 H1645 0.985 . S
H1642 N1637 0.984 . S
H1643 N1637 0.985 . S
H1644 N1641 0.984 . S
H1645 N1641 0.985 . S
H1646 N1640 0.984 . S
H1647 N1640 0.984 . S
H1648 N1636 0.984 . S
H1649 N1636 0.985 . S
C1650 C1651 1.363 . S
C1650 C1656 1.379 . S
C1650 N1658 1.356 . S
C1651 C1650 1.363 . S
C1651 C1657 1.363 . S
C1652 C1653 1.363 . S
C1652 C1657 1.379 . S
C1652 N1659 1.356 . S
C1653 C1652 1.363 . S
C1653 C1656 1.363 . S
N1654 C1656 1.356 . S
N1654 H1666 0.984 . S
N1654 H1667 0.985 . S
N1655 C1657 1.356 . S
N1655 H1660 0.984 . S
N1655 H1661 0.985 . S
C1656 C1650 1.379 . S
C1656 C1653 1.363 . S
C1656 N1654 1.356 . S
C1657 C1651 1.363 . S
C1657 C1652 1.379 . S
C1657 N1655 1.356 . S
N1658 C1650 1.356 . S
N1658 H1664 0.984 . S
N1658 H1665 0.984 . S
N1659 C1652 1.356 . S
N1659 H1662 0.984 . S
N1659 H1663 0.985 . S
H1660 N1655 0.984 . S
H1661 N1655 0.985 . S
H1662 N1659 0.984 . S
H1663 N1659 0.985 . S
H1664 N1658 0.984 . S
H1665 N1658 0.984 . S
H1666 N1654 0.984 . S
H1667 N1654 0.985 . S
C1668 C1669 1.363 . S
C1668 C1674 1.379 . S
C1668 N1676 1.356 . S
C1669 C1668 1.363 . S
C1669 C1675 1.363 . S
C1670 C1671 1.363 . S
C1670 C1675 1.379 . S
C1670 N1677 1.356 . S
C1671 C1670 1.363 . S
C1671 C1674 1.363 . S
N1672 C1674 1.356 . S
N1672 H1684 0.984 . S
N1672 H1685 0.985 . S
N1673 C1675 1.356 . S
N1673 H1678 0.984 . S
N1673 H1679 0.985 . S
C1674 C1668 1.379 . S
C1674 C1671 1.363 . S
C1674 N1672 1.356 . S
C1675 C1669 1.363 . S
C1675 C1670 1.379 . S
C1675 N1673 1.356 . S
N1676 C1668 1.356 . S
N1676 H1682 0.984 . S
N1676 H1683 0.984 . S
N1677 C1670 1.356 . S
N1677 H1680 0.984 . S
N1677 H1681 0.985 . S
H1678 N1673 0.984 . S
H1679 N1673 0.985 . S
H1680 N1677 0.984 . S
H1681 N1677 0.985 . S
H1682 N1676 0.984 . S
H1683 N1676 0.984 . S
H1684 N1672 0.984 . S
H1685 N1672 0.985 . S
C1686 C1687 1.363 . S
C1686 C1692 1.379 . S
C1686 N1694 1.356 . S
C1687 C1686 1.363 . S
C1687 C1693 1.363 . S
C1688 C1689 1.363 . S
C1688 C1693 1.379 . S
C1688 N1695 1.356 . S
C1689 C1688 1.363 . S
C1689 C1692 1.363 . S
N1690 C1692 1.356 . S
N1690 H1702 0.984 . S
N1690 H1703 0.985 . S
N1691 C1693 1.356 . S
N1691 H1696 0.984 . S
N1691 H1697 0.985 . S
C1692 C1686 1.379 . S
C1692 C1689 1.363 . S
C1692 N1690 1.356 . S
C1693 C1687 1.363 . S
C1693 C1688 1.379 . S
C1693 N1691 1.356 . S
N1694 C1686 1.356 . S
N1694 H1700 0.984 . S
N1694 H1701 0.984 . S
N1695 C1688 1.356 . S
N1695 H1698 0.984 . S
N1695 H1699 0.985 . S
H1696 N1691 0.984 . S
H1697 N1691 0.985 . S
H1698 N1695 0.984 . S
H1699 N1695 0.985 . S
H1700 N1694 0.984 . S
H1701 N1694 0.984 . S
H1702 N1690 0.984 . S
H1703 N1690 0.985 . S
C1704 C1705 1.363 . S
C1704 C1710 1.379 . S
C1704 N1712 1.356 . S
C1705 C1704 1.363 . S
C1705 C1711 1.363 . S
C1706 C1707 1.363 . S
C1706 C1711 1.379 . S
C1706 N1713 1.356 . S
C1707 C1706 1.363 . S
C1707 C1710 1.363 . S
N1708 C1710 1.356 . S
N1708 H1720 0.984 . S
N1708 H1721 0.985 . S
N1709 C1711 1.356 . S
N1709 H1714 0.984 . S
N1709 H1715 0.985 . S
C1710 C1704 1.379 . S
C1710 C1707 1.363 . S
C1710 N1708 1.356 . S
C1711 C1705 1.363 . S
C1711 C1706 1.379 . S
C1711 N1709 1.356 . S
N1712 C1704 1.356 . S
N1712 H1718 0.984 . S
N1712 H1719 0.984 . S
N1713 C1706 1.356 . S
N1713 H1716 0.984 . S
N1713 H1717 0.985 . S
H1714 N1709 0.984 . S
H1715 N1709 0.985 . S
H1716 N1713 0.984 . S
H1717 N1713 0.985 . S
H1718 N1712 0.984 . S
H1719 N1712 0.984 . S
H1720 N1708 0.984 . S
H1721 N1708 0.985 . S
C1722 C1723 1.363 . S
C1722 C1728 1.379 . S
C1722 N1730 1.356 . S
C1723 C1722 1.363 . S
C1723 C1729 1.363 . S
C1724 C1725 1.363 . S
C1724 C1729 1.379 . S
C1724 N1731 1.356 . S
C1725 C1724 1.363 . S
C1725 C1728 1.363 . S
N1726 C1728 1.356 . S
N1726 H1738 0.984 . S
N1726 H1739 0.985 . S
N1727 C1729 1.356 . S
N1727 H1732 0.984 . S
N1727 H1733 0.985 . S
C1728 C1722 1.379 . S
C1728 C1725 1.363 . S
C1728 N1726 1.356 . S
C1729 C1723 1.363 . S
C1729 C1724 1.379 . S
C1729 N1727 1.356 . S
N1730 C1722 1.356 . S
N1730 H1736 0.984 . S
N1730 H1737 0.984 . S
N1731 C1724 1.356 . S
N1731 H1734 0.984 . S
N1731 H1735 0.985 . S
H1732 N1727 0.984 . S
H1733 N1727 0.985 . S
H1734 N1731 0.984 . S
H1735 N1731 0.985 . S
H1736 N1730 0.984 . S
H1737 N1730 0.984 . S
H1738 N1726 0.984 . S
H1739 N1726 0.985 . S
C1740 C1741 1.363 . S
C1740 C1746 1.379 . S
C1740 N1748 1.356 . S
C1741 C1740 1.363 . S
C1741 C1747 1.363 . S
C1742 C1743 1.363 . S
C1742 C1747 1.379 . S
C1742 N1749 1.356 . S
C1743 C1742 1.363 . S
C1743 C1746 1.363 . S
N1744 C1746 1.356 1_565 S
N1744 H1756 0.984 . S
N1744 H1757 0.985 . S
N1745 C1747 1.356 . S
N1745 H1750 0.984 . S
N1745 H1751 0.985 . S
C1746 C1740 1.379 . S
C1746 C1743 1.363 . S
C1746 N1744 1.356 1_545 S
C1747 C1741 1.363 . S
C1747 C1742 1.379 . S
C1747 N1745 1.356 . S
N1748 C1740 1.356 . S
N1748 H1754 0.984 . S
N1748 H1755 0.984 . S
N1749 C1742 1.356 . S
N1749 H1752 0.984 . S
N1749 H1753 0.985 . S
H1750 N1745 0.984 . S
H1751 N1745 0.985 . S
H1752 N1749 0.984 . S
H1753 N1749 0.985 . S
H1754 N1748 0.984 . S
H1755 N1748 0.984 . S
H1756 N1744 0.984 . S
H1757 N1744 0.985 . S
C1758 C1759 1.363 . S
C1758 C1764 1.379 . S
C1758 N1766 1.356 . S
C1759 C1758 1.363 . S
C1759 C1765 1.363 . S
C1760 C1761 1.363 . S
C1760 C1765 1.379 . S
C1760 N1767 1.356 . S
C1761 C1760 1.363 . S
C1761 C1764 1.363 . S
N1762 C1764 1.356 . S
N1762 H1774 0.984 . S
N1762 H1775 0.985 . S
N1763 C1765 1.356 . S
N1763 H1768 0.984 . S
N1763 H1769 0.985 . S
C1764 C1758 1.379 . S
C1764 C1761 1.363 . S
C1764 N1762 1.356 . S
C1765 C1759 1.363 . S
C1765 C1760 1.379 . S
C1765 N1763 1.356 . S
N1766 C1758 1.356 . S
N1766 H1772 0.984 . S
N1766 H1773 0.984 . S
N1767 C1760 1.356 . S
N1767 H1770 0.984 . S
N1767 H1771 0.985 . S
H1768 N1763 0.984 . S
H1769 N1763 0.985 . S
H1770 N1767 0.984 . S
H1771 N1767 0.985 . S
H1772 N1766 0.984 . S
H1773 N1766 0.984 . S
H1774 N1762 0.984 . S
H1775 N1762 0.985 . S
C1776 C1777 1.363 . S
C1776 C1782 1.379 . S
C1776 N1784 1.356 1_565 S
C1777 C1776 1.363 . S
C1777 C1783 1.363 . S
C1778 C1779 1.363 . S
C1778 C1783 1.379 . S
C1778 N1785 1.356 . S
C1779 C1778 1.363 . S
C1779 C1782 1.363 . S
N1780 C1782 1.356 . S
N1780 H1792 0.984 . S
N1780 H1793 0.985 . S
N1781 C1783 1.356 . S
N1781 H1786 0.984 . S
N1781 H1787 0.985 . S
C1782 C1776 1.379 . S
C1782 C1779 1.363 . S
C1782 N1780 1.356 . S
C1783 C1777 1.363 . S
C1783 C1778 1.379 . S
C1783 N1781 1.356 . S
N1784 C1776 1.356 1_545 S
N1784 H1790 0.984 . S
N1784 H1791 0.984 . S
N1785 C1778 1.356 . S
N1785 H1788 0.984 . S
N1785 H1789 0.985 . S
H1786 N1781 0.984 . S
H1787 N1781 0.985 . S
H1788 N1785 0.984 . S
H1789 N1785 0.985 . S
H1790 N1784 0.984 . S
H1791 N1784 0.984 . S
H1792 N1780 0.984 . S
H1793 N1780 0.985 . S
C1794 C1795 1.363 . S
C1794 C1800 1.379 . S
C1794 N1802 1.356 . S
C1795 C1794 1.363 . S
C1795 C1801 1.363 . S
C1796 C1797 1.363 . S
C1796 C1801 1.379 . S
C1796 N1803 1.356 . S
C1797 C1796 1.363 . S
C1797 C1800 1.363 . S
N1798 C1800 1.356 . S
N1798 H1810 0.984 . S
N1798 H1811 0.985 . S
N1799 C1801 1.356 . S
N1799 H1804 0.984 . S
N1799 H1805 0.985 . S
C1800 C1794 1.379 . S
C1800 C1797 1.363 . S
C1800 N1798 1.356 . S
C1801 C1795 1.363 . S
C1801 C1796 1.379 . S
C1801 N1799 1.356 . S
N1802 C1794 1.356 . S
N1802 H1808 0.984 . S
N1802 H1809 0.984 . S
N1803 C1796 1.356 . S
N1803 H1806 0.984 . S
N1803 H1807 0.985 . S
H1804 N1799 0.984 . S
H1805 N1799 0.985 . S
H1806 N1803 0.984 . S
H1807 N1803 0.985 . S
H1808 N1802 0.984 . S
H1809 N1802 0.984 . S
H1810 N1798 0.984 . S
H1811 N1798 0.985 . S
C1812 C1813 1.363 . S
C1812 C1818 1.379 . S
C1812 N1820 1.356 . S
C1813 C1812 1.363 . S
C1813 C1819 1.363 . S
C1814 C1815 1.363 . S
C1814 C1819 1.379 . S
C1814 N1821 1.356 . S
C1815 C1814 1.363 . S
C1815 C1818 1.363 . S
N1816 C1818 1.356 . S
N1816 H1828 0.984 . S
N1816 H1829 0.985 . S
N1817 C1819 1.356 . S
N1817 H1822 0.984 . S
N1817 H1823 0.985 . S
C1818 C1812 1.379 . S
C1818 C1815 1.363 . S
C1818 N1816 1.356 . S
C1819 C1813 1.363 . S
C1819 C1814 1.379 . S
C1819 N1817 1.356 . S
N1820 C1812 1.356 . S
N1820 H1826 0.984 . S
N1820 H1827 0.984 . S
N1821 C1814 1.356 . S
N1821 H1824 0.984 . S
N1821 H1825 0.985 . S
H1822 N1817 0.984 . S
H1823 N1817 0.985 . S
H1824 N1821 0.984 . S
H1825 N1821 0.985 . S
H1826 N1820 0.984 . S
H1827 N1820 0.984 . S
H1828 N1816 0.984 . S
H1829 N1816 0.985 . S
C1830 C1831 1.363 . S
C1830 C1836 1.379 . S
C1830 N1838 1.356 . S
C1831 C1830 1.363 . S
C1831 C1837 1.363 . S
C1832 C1833 1.363 . S
C1832 C1837 1.379 . S
C1832 N1839 1.356 . S
C1833 C1832 1.363 . S
C1833 C1836 1.363 . S
N1834 C1836 1.356 . S
N1834 H1846 0.984 . S
N1834 H1847 0.985 . S
N1835 C1837 1.356 . S
N1835 H1840 0.984 . S
N1835 H1841 0.985 . S
C1836 C1830 1.379 . S
C1836 C1833 1.363 . S
C1836 N1834 1.356 . S
C1837 C1831 1.363 . S
C1837 C1832 1.379 . S
C1837 N1835 1.356 . S
N1838 C1830 1.356 . S
N1838 H1844 0.984 . S
N1838 H1845 0.984 . S
N1839 C1832 1.356 . S
N1839 H1842 0.984 . S
N1839 H1843 0.985 . S
H1840 N1835 0.984 . S
H1841 N1835 0.985 . S
H1842 N1839 0.984 . S
H1843 N1839 0.985 . S
H1844 N1838 0.984 . S
H1845 N1838 0.984 . S
H1846 N1834 0.984 . S
H1847 N1834 0.985 . S
C1848 C1849 1.363 . S
C1848 C1854 1.379 . S
C1848 N1856 1.356 . S
C1849 C1848 1.363 . S
C1849 C1855 1.363 . S
C1850 C1851 1.363 . S
C1850 C1855 1.379 . S
C1850 N1857 1.356 . S
C1851 C1850 1.363 . S
C1851 C1854 1.363 . S
N1852 C1854 1.356 . S
N1852 H1864 0.984 . S
N1852 H1865 0.985 . S
N1853 C1855 1.356 . S
N1853 H1858 0.984 . S
N1853 H1859 0.985 1_565 S
C1854 C1848 1.379 . S
C1854 C1851 1.363 . S
C1854 N1852 1.356 . S
C1855 C1849 1.363 . S
C1855 C1850 1.379 . S
C1855 N1853 1.356 . S
N1856 C1848 1.356 . S
N1856 H1862 0.984 . S
N1856 H1863 0.984 . S
N1857 C1850 1.356 . S
N1857 H1860 0.984 . S
N1857 H1861 0.985 . S
H1858 N1853 0.984 . S
H1859 N1853 0.985 1_545 S
H1860 N1857 0.984 . S
H1861 N1857 0.985 . S
H1862 N1856 0.984 . S
H1863 N1856 0.984 . S
H1864 N1852 0.984 . S
H1865 N1852 0.985 . S
C1866 C1867 1.363 . S
C1866 C1872 1.379 . S
C1866 N1874 1.356 . S
C1867 C1866 1.363 . S
C1867 C1873 1.363 . S
C1868 C1869 1.363 . S
C1868 C1873 1.379 . S
C1868 N1875 1.356 . S
C1869 C1868 1.363 . S
C1869 C1872 1.363 . S
N1870 C1872 1.356 . S
N1870 H1882 0.984 . S
N1870 H1883 0.985 . S
N1871 C1873 1.356 . S
N1871 H1876 0.984 . S
N1871 H1877 0.985 . S
C1872 C1866 1.379 . S
C1872 C1869 1.363 . S
C1872 N1870 1.356 . S
C1873 C1867 1.363 . S
C1873 C1868 1.379 . S
C1873 N1871 1.356 . S
N1874 C1866 1.356 . S
N1874 H1880 0.984 . S
N1874 H1881 0.984 . S
N1875 C1868 1.356 . S
N1875 H1878 0.984 . S
N1875 H1879 0.985 . S
H1876 N1871 0.984 . S
H1877 N1871 0.985 . S
H1878 N1875 0.984 . S
H1879 N1875 0.985 . S
H1880 N1874 0.984 . S
H1881 N1874 0.984 . S
H1882 N1870 0.984 . S
H1883 N1870 0.985 . S
C1884 C1885 1.363 . S
C1884 C1890 1.379 . S
C1884 N1892 1.356 . S
C1885 C1884 1.363 . S
C1885 C1891 1.363 . S
C1886 C1887 1.363 . S
C1886 C1891 1.379 . S
C1886 N1893 1.356 . S
C1887 C1886 1.363 . S
C1887 C1890 1.363 . S
N1888 C1890 1.356 . S
N1888 H1900 0.984 . S
N1888 H1901 0.985 . S
N1889 C1891 1.356 . S
N1889 H1894 0.984 . S
N1889 H1895 0.985 . S
C1890 C1884 1.379 . S
C1890 C1887 1.363 . S
C1890 N1888 1.356 . S
C1891 C1885 1.363 . S
C1891 C1886 1.379 . S
C1891 N1889 1.356 . S
N1892 C1884 1.356 . S
N1892 H1898 0.984 . S
N1892 H1899 0.984 . S
N1893 C1886 1.356 . S
N1893 H1896 0.984 . S
N1893 H1897 0.985 . S
H1894 N1889 0.984 . S
H1895 N1889 0.985 . S
H1896 N1893 0.984 . S
H1897 N1893 0.985 . S
H1898 N1892 0.984 . S
H1899 N1892 0.984 . S
H1900 N1888 0.984 . S
H1901 N1888 0.985 . S
C1902 C1903 1.363 . S
C1902 C1908 1.379 . S
C1902 N1910 1.356 . S
C1903 C1902 1.363 . S
C1903 C1909 1.363 . S
C1904 C1905 1.363 . S
C1904 C1909 1.379 . S
C1904 N1911 1.356 . S
C1905 C1904 1.363 . S
C1905 C1908 1.363 . S
N1906 C1908 1.356 . S
N1906 H1918 0.984 . S
N1906 H1919 0.985 . S
N1907 C1909 1.356 . S
N1907 H1912 0.984 . S
N1907 H1913 0.985 . S
C1908 C1902 1.379 . S
C1908 C1905 1.363 . S
C1908 N1906 1.356 . S
C1909 C1903 1.363 . S
C1909 C1904 1.379 . S
C1909 N1907 1.356 . S
N1910 C1902 1.356 . S
N1910 H1916 0.984 . S
N1910 H1917 0.984 . S
N1911 C1904 1.356 . S
N1911 H1914 0.984 . S
N1911 H1915 0.985 . S
H1912 N1907 0.984 . S
H1913 N1907 0.985 . S
H1914 N1911 0.984 . S
H1915 N1911 0.985 . S
H1916 N1910 0.984 . S
H1917 N1910 0.984 . S
H1918 N1906 0.984 . S
H1919 N1906 0.985 . S
C1920 C1921 1.363 . S
C1920 C1926 1.379 . S
C1920 N1928 1.356 . S
C1921 C1920 1.363 . S
C1921 C1927 1.363 . S
C1922 C1923 1.363 . S
C1922 C1927 1.379 . S
C1922 N1929 1.356 . S
C1923 C1922 1.363 . S
C1923 C1926 1.363 . S
N1924 C1926 1.356 . S
N1924 H1936 0.984 . S
N1924 H1937 0.985 . S
N1925 C1927 1.356 . S
N1925 H1930 0.984 . S
N1925 H1931 0.985 . S
C1926 C1920 1.379 . S
C1926 C1923 1.363 . S
C1926 N1924 1.356 . S
C1927 C1921 1.363 . S
C1927 C1922 1.379 . S
C1927 N1925 1.356 . S
N1928 C1920 1.356 . S
N1928 H1934 0.984 . S
N1928 H1935 0.984 . S
N1929 C1922 1.356 . S
N1929 H1932 0.984 . S
N1929 H1933 0.985 . S
H1930 N1925 0.984 . S
H1931 N1925 0.985 . S
H1932 N1929 0.984 . S
H1933 N1929 0.985 . S
H1934 N1928 0.984 . S
H1935 N1928 0.984 . S
H1936 N1924 0.984 . S
H1937 N1924 0.985 . S
C1938 C1939 1.363 . S
C1938 C1944 1.379 . S
C1938 N1946 1.356 . S
C1939 C1938 1.363 . S
C1939 C1945 1.363 . S
C1940 C1941 1.363 . S
C1940 C1945 1.379 . S
C1940 N1947 1.356 . S
C1941 C1940 1.363 . S
C1941 C1944 1.363 . S
N1942 C1944 1.356 . S
N1942 H1954 0.984 . S
N1942 H1955 0.985 . S
N1943 C1945 1.356 . S
N1943 H1948 0.984 . S
N1943 H1949 0.985 . S
C1944 C1938 1.379 . S
C1944 C1941 1.363 . S
C1944 N1942 1.356 . S
C1945 C1939 1.363 . S
C1945 C1940 1.379 . S
C1945 N1943 1.356 . S
N1946 C1938 1.356 . S
N1946 H1952 0.984 . S
N1946 H1953 0.984 . S
N1947 C1940 1.356 . S
N1947 H1950 0.984 . S
N1947 H1951 0.985 . S
H1948 N1943 0.984 . S
H1949 N1943 0.985 . S
H1950 N1947 0.984 . S
H1951 N1947 0.985 . S
H1952 N1946 0.984 . S
H1953 N1946 0.984 . S
H1954 N1942 0.984 . S
H1955 N1942 0.985 . S
C1956 C1957 1.363 . S
C1956 C1962 1.379 . S
C1956 N1964 1.356 . S
C1957 C1956 1.363 . S
C1957 C1963 1.363 . S
C1958 C1959 1.363 . S
C1958 C1963 1.379 . S
C1958 N1965 1.356 . S
C1959 C1958 1.363 . S
C1959 C1962 1.363 . S
N1960 C1962 1.356 . S
N1960 H1972 0.984 . S
N1960 H1973 0.985 . S
N1961 C1963 1.356 . S
N1961 H1966 0.984 . S
N1961 H1967 0.985 . S
C1962 C1956 1.379 . S
C1962 C1959 1.363 . S
C1962 N1960 1.356 . S
C1963 C1957 1.363 . S
C1963 C1958 1.379 . S
C1963 N1961 1.356 . S
N1964 C1956 1.356 . S
N1964 H1970 0.984 . S
N1964 H1971 0.984 . S
N1965 C1958 1.356 . S
N1965 H1968 0.984 . S
N1965 H1969 0.985 . S
H1966 N1961 0.984 . S
H1967 N1961 0.985 . S
H1968 N1965 0.984 . S
H1969 N1965 0.985 . S
H1970 N1964 0.984 . S
H1971 N1964 0.984 . S
H1972 N1960 0.984 . S
H1973 N1960 0.985 . S
C1974 C1975 1.363 . S
C1974 C1980 1.379 . S
C1974 N1982 1.356 . S
C1975 C1974 1.363 . S
C1975 C1981 1.363 . S
C1976 C1977 1.363 . S
C1976 C1981 1.379 . S
C1976 N1983 1.356 . S
C1977 C1976 1.363 . S
C1977 C1980 1.363 . S
N1978 C1980 1.356 . S
N1978 H1990 0.984 . S
N1978 H1991 0.985 . S
N1979 C1981 1.356 . S
N1979 H1984 0.984 . S
N1979 H1985 0.985 . S
C1980 C1974 1.379 . S
C1980 C1977 1.363 . S
C1980 N1978 1.356 . S
C1981 C1975 1.363 . S
C1981 C1976 1.379 . S
C1981 N1979 1.356 . S
N1982 C1974 1.356 . S
N1982 H1988 0.984 . S
N1982 H1989 0.984 . S
N1983 C1976 1.356 . S
N1983 H1986 0.984 . S
N1983 H1987 0.985 . S
H1984 N1979 0.984 . S
H1985 N1979 0.985 . S
H1986 N1983 0.984 . S
H1987 N1983 0.985 . S
H1988 N1982 0.984 . S
H1989 N1982 0.984 . S
H1990 N1978 0.984 . S
H1991 N1978 0.985 . S
C1992 C1993 1.363 . S
C1992 C1998 1.379 . S
C1992 N2000 1.356 . S
C1993 C1992 1.363 . S
C1993 C1999 1.363 . S
C1994 C1995 1.363 . S
C1994 C1999 1.379 . S
C1994 N2001 1.356 . S
C1995 C1994 1.363 . S
C1995 C1998 1.363 . S
N1996 C1998 1.356 . S
N1996 H2008 0.984 . S
N1996 H2009 0.985 . S
N1997 C1999 1.356 . S
N1997 H2002 0.984 . S
N1997 H2003 0.985 . S
C1998 C1992 1.379 . S
C1998 C1995 1.363 . S
C1998 N1996 1.356 . S
C1999 C1993 1.363 . S
C1999 C1994 1.379 . S
C1999 N1997 1.356 . S
N2000 C1992 1.356 . S
N2000 H2006 0.984 . S
N2000 H2007 0.984 . S
N2001 C1994 1.356 . S
N2001 H2004 0.984 . S
N2001 H2005 0.985 . S
H2002 N1997 0.984 . S
H2003 N1997 0.985 . S
H2004 N2001 0.984 . S
H2005 N2001 0.985 . S
H2006 N2000 0.984 . S
H2007 N2000 0.984 . S
H2008 N1996 0.984 . S
H2009 N1996 0.985 . S
C2010 C2011 1.363 . S
C2010 C2016 1.379 . S
C2010 N2018 1.356 . S
C2011 C2010 1.363 . S
C2011 C2017 1.363 . S
C2012 C2013 1.363 . S
C2012 C2017 1.379 . S
C2012 N2019 1.356 . S
C2013 C2012 1.363 . S
C2013 C2016 1.363 . S
N2014 C2016 1.356 . S
N2014 H2026 0.984 . S
N2014 H2027 0.985 . S
N2015 C2017 1.356 . S
N2015 H2020 0.984 . S
N2015 H2021 0.985 . S
C2016 C2010 1.379 . S
C2016 C2013 1.363 . S
C2016 N2014 1.356 . S
C2017 C2011 1.363 . S
C2017 C2012 1.379 . S
C2017 N2015 1.356 . S
N2018 C2010 1.356 . S
N2018 H2024 0.984 . S
N2018 H2025 0.984 . S
N2019 C2012 1.356 . S
N2019 H2022 0.984 . S
N2019 H2023 0.985 . S
H2020 N2015 0.984 . S
H2021 N2015 0.985 . S
H2022 N2019 0.984 . S
H2023 N2019 0.985 . S
H2024 N2018 0.984 . S
H2025 N2018 0.984 . S
H2026 N2014 0.984 . S
H2027 N2014 0.985 . S
C2028 C2029 1.363 . S
C2028 C2034 1.379 . S
C2028 N2036 1.356 . S
C2029 C2028 1.363 . S
C2029 C2035 1.363 . S
C2030 C2031 1.363 . S
C2030 C2035 1.379 . S
C2030 N2037 1.356 . S
C2031 C2030 1.363 . S
C2031 C2034 1.363 . S
N2032 C2034 1.356 . S
N2032 H2044 0.984 . S
N2032 H2045 0.985 . S
N2033 C2035 1.356 . S
N2033 H2038 0.984 . S
N2033 H2039 0.985 . S
C2034 C2028 1.379 . S
C2034 C2031 1.363 . S
C2034 N2032 1.356 . S
C2035 C2029 1.363 . S
C2035 C2030 1.379 . S
C2035 N2033 1.356 . S
N2036 C2028 1.356 . S
N2036 H2042 0.984 . S
N2036 H2043 0.984 . S
N2037 C2030 1.356 . S
N2037 H2040 0.984 . S
N2037 H2041 0.985 . S
H2038 N2033 0.984 . S
H2039 N2033 0.985 . S
H2040 N2037 0.984 . S
H2041 N2037 0.985 . S
H2042 N2036 0.984 . S
H2043 N2036 0.984 . S
H2044 N2032 0.984 . S
H2045 N2032 0.985 . S
C2046 C2047 1.363 . S
C2046 C2052 1.379 . S
C2046 N2054 1.356 . S
C2047 C2046 1.363 . S
C2047 C2053 1.363 . S
C2048 C2049 1.363 . S
C2048 C2053 1.379 . S
C2048 N2055 1.356 . S
C2049 C2048 1.363 . S
C2049 C2052 1.363 . S
N2050 C2052 1.356 . S
N2050 H2062 0.984 . S
N2050 H2063 0.985 . S
N2051 C2053 1.356 . S
N2051 H2056 0.984 . S
N2051 H2057 0.985 . S
C2052 C2046 1.379 . S
C2052 C2049 1.363 . S
C2052 N2050 1.356 . S
C2053 C2047 1.363 . S
C2053 C2048 1.379 . S
C2053 N2051 1.356 . S
N2054 C2046 1.356 . S
N2054 H2060 0.984 . S
N2054 H2061 0.984 . S
N2055 C2048 1.356 . S
N2055 H2058 0.984 . S
N2055 H2059 0.985 . S
H2056 N2051 0.984 . S
H2057 N2051 0.985 . S
H2058 N2055 0.984 . S
H2059 N2055 0.985 . S
H2060 N2054 0.984 . S
H2061 N2054 0.984 . S
H2062 N2050 0.984 . S
H2063 N2050 0.985 . S
C2064 C2065 1.363 . S
C2064 C2070 1.379 . S
C2064 N2072 1.356 . S
C2065 C2064 1.363 . S
C2065 C2071 1.363 . S
C2066 C2067 1.363 . S
C2066 C2071 1.379 . S
C2066 N2073 1.356 . S
C2067 C2066 1.363 . S
C2067 C2070 1.363 . S
N2068 C2070 1.356 . S
N2068 H2080 0.984 . S
N2068 H2081 0.985 . S
N2069 C2071 1.356 . S
N2069 H2074 0.984 . S
N2069 H2075 0.985 . S
C2070 C2064 1.379 . S
C2070 C2067 1.363 . S
C2070 N2068 1.356 . S
C2071 C2065 1.363 . S
C2071 C2066 1.379 . S
C2071 N2069 1.356 . S
N2072 C2064 1.356 . S
N2072 H2078 0.984 . S
N2072 H2079 0.984 . S
N2073 C2066 1.356 . S
N2073 H2076 0.984 . S
N2073 H2077 0.985 . S
H2074 N2069 0.984 . S
H2075 N2069 0.985 . S
H2076 N2073 0.984 . S
H2077 N2073 0.985 . S
H2078 N2072 0.984 . S
H2079 N2072 0.984 . S
H2080 N2068 0.984 . S
H2081 N2068 0.985 . S
C2082 C2083 1.363 . S
C2082 C2088 1.379 . S
C2082 N2090 1.356 . S
C2083 C2082 1.363 . S
C2083 C2089 1.363 . S
C2084 C2085 1.363 . S
C2084 C2089 1.379 . S
C2084 N2091 1.356 . S
C2085 C2084 1.363 . S
C2085 C2088 1.363 . S
N2086 C2088 1.356 . S
N2086 H2098 0.984 . S
N2086 H2099 0.985 . S
N2087 C2089 1.356 . S
N2087 H2092 0.984 . S
N2087 H2093 0.985 . S
C2088 C2082 1.379 . S
C2088 C2085 1.363 . S
C2088 N2086 1.356 . S
C2089 C2083 1.363 . S
C2089 C2084 1.379 . S
C2089 N2087 1.356 . S
N2090 C2082 1.356 . S
N2090 H2096 0.984 . S
N2090 H2097 0.984 . S
N2091 C2084 1.356 . S
N2091 H2094 0.984 . S
N2091 H2095 0.985 . S
H2092 N2087 0.984 . S
H2093 N2087 0.985 . S
H2094 N2091 0.984 . S
H2095 N2091 0.985 . S
H2096 N2090 0.984 . S
H2097 N2090 0.984 . S
H2098 N2086 0.984 . S
H2099 N2086 0.985 . S
C2100 C2101 1.363 . S
C2100 C2106 1.379 . S
C2100 N2108 1.356 . S
C2101 C2100 1.363 . S
C2101 C2107 1.363 . S
C2102 C2103 1.363 . S
C2102 C2107 1.379 . S
C2102 N2109 1.356 . S
C2103 C2102 1.363 . S
C2103 C2106 1.363 . S
N2104 C2106 1.356 . S
N2104 H2116 0.984 . S
N2104 H2117 0.985 . S
N2105 C2107 1.356 . S
N2105 H2110 0.984 . S
N2105 H2111 0.985 . S
C2106 C2100 1.379 . S
C2106 C2103 1.363 . S
C2106 N2104 1.356 . S
C2107 C2101 1.363 . S
C2107 C2102 1.379 . S
C2107 N2105 1.356 . S
N2108 C2100 1.356 . S
N2108 H2114 0.984 . S
N2108 H2115 0.984 . S
N2109 C2102 1.356 . S
N2109 H2112 0.984 . S
N2109 H2113 0.985 . S
H2110 N2105 0.984 . S
H2111 N2105 0.985 . S
H2112 N2109 0.984 . S
H2113 N2109 0.985 . S
H2114 N2108 0.984 . S
H2115 N2108 0.984 . S
H2116 N2104 0.984 . S
H2117 N2104 0.985 . S
C2118 C2119 1.363 . S
C2118 C2124 1.379 . S
C2118 N2126 1.356 . S
C2119 C2118 1.363 . S
C2119 C2125 1.363 . S
C2120 C2121 1.363 . S
C2120 C2125 1.379 . S
C2120 N2127 1.356 . S
C2121 C2120 1.363 . S
C2121 C2124 1.363 . S
N2122 C2124 1.356 . S
N2122 H2134 0.984 . S
N2122 H2135 0.985 . S
N2123 C2125 1.356 . S
N2123 H2128 0.984 . S
N2123 H2129 0.985 1_554 S
C2124 C2118 1.379 . S
C2124 C2121 1.363 . S
C2124 N2122 1.356 . S
C2125 C2119 1.363 . S
C2125 C2120 1.379 . S
C2125 N2123 1.356 . S
N2126 C2118 1.356 . S
N2126 H2132 0.984 . S
N2126 H2133 0.984 . S
N2127 C2120 1.356 . S
N2127 H2130 0.984 . S
N2127 H2131 0.985 1_554 S
H2128 N2123 0.984 . S
H2129 N2123 0.985 1_556 S
H2130 N2127 0.984 . S
H2131 N2127 0.985 1_556 S
H2132 N2126 0.984 . S
H2133 N2126 0.984 . S
H2134 N2122 0.984 . S
H2135 N2122 0.985 . S
C2136 C2137 1.363 . S
C2136 C2142 1.379 . S
C2136 N2144 1.356 . S
C2137 C2136 1.363 . S
C2137 C2143 1.363 . S
C2138 C2139 1.363 . S
C2138 C2143 1.379 . S
C2138 N2145 1.356 . S
C2139 C2138 1.363 . S
C2139 C2142 1.363 . S
N2140 C2142 1.356 . S
N2140 H2152 0.984 . S
N2140 H2153 0.985 . S
N2141 C2143 1.356 . S
N2141 H2146 0.984 . S
N2141 H2147 0.985 . S
C2142 C2136 1.379 . S
C2142 C2139 1.363 . S
C2142 N2140 1.356 . S
C2143 C2137 1.363 . S
C2143 C2138 1.379 . S
C2143 N2141 1.356 . S
N2144 C2136 1.356 . S
N2144 H2150 0.984 . S
N2144 H2151 0.984 . S
N2145 C2138 1.356 . S
N2145 H2148 0.984 . S
N2145 H2149 0.985 . S
H2146 N2141 0.984 . S
H2147 N2141 0.985 . S
H2148 N2145 0.984 . S
H2149 N2145 0.985 . S
H2150 N2144 0.984 . S
H2151 N2144 0.984 . S
H2152 N2140 0.984 . S
H2153 N2140 0.985 . S
C2154 C2155 1.363 . S
C2154 C2160 1.379 . S
C2154 N2162 1.356 . S
C2155 C2154 1.363 . S
C2155 C2161 1.363 . S
C2156 C2157 1.363 . S
C2156 C2161 1.379 . S
C2156 N2163 1.356 . S
C2157 C2156 1.363 . S
C2157 C2160 1.363 . S
N2158 C2160 1.356 . S
N2158 H2170 0.984 . S
N2158 H2171 0.985 . S
N2159 C2161 1.356 . S
N2159 H2164 0.984 . S
N2159 H2165 0.985 . S
C2160 C2154 1.379 . S
C2160 C2157 1.363 . S
C2160 N2158 1.356 . S
C2161 C2155 1.363 . S
C2161 C2156 1.379 . S
C2161 N2159 1.356 . S
N2162 C2154 1.356 . S
N2162 H2168 0.984 . S
N2162 H2169 0.984 . S
N2163 C2156 1.356 . S
N2163 H2166 0.984 . S
N2163 H2167 0.985 . S
H2164 N2159 0.984 . S
H2165 N2159 0.985 . S
H2166 N2163 0.984 . S
H2167 N2163 0.985 . S
H2168 N2162 0.984 . S
H2169 N2162 0.984 . S
H2170 N2158 0.984 . S
H2171 N2158 0.985 . S
C2172 C2173 1.363 . S
C2172 C2178 1.379 . S
C2172 N2180 1.345 1_556 S
C2173 C2172 1.363 . S
C2173 C2179 1.363 . S
C2174 C2175 1.363 . S
C2174 C2179 1.379 . S
C2174 N2181 1.356 . S
C2175 C2174 1.363 . S
C2175 C2178 1.363 . S
N2176 C2178 1.360 . S
N2176 H2188 0.971 1_556 S
N2176 H2189 0.994 . S
N2177 C2179 1.356 . S
N2177 H2182 0.984 . S
N2177 H2183 0.985 . S
C2178 C2172 1.379 . S
C2178 C2175 1.363 . S
C2178 N2176 1.360 . S
C2179 C2173 1.363 . S
C2179 C2174 1.379 . S
C2179 N2177 1.356 . S
N2180 C2172 1.345 1_554 S
N2180 H2186 0.994 . S
N2180 H2187 0.986 1_554 S
N2181 C2174 1.356 . S
N2181 H2184 0.984 . S
N2181 H2185 0.985 . S
H2182 N2177 0.984 . S
H2183 N2177 0.985 . S
H2184 N2181 0.984 . S
H2185 N2181 0.985 . S
H2186 N2180 0.994 . S
H2187 N2180 0.986 1_556 S
H2188 N2176 0.971 1_554 S
H2189 N2176 0.994 . S
C2190 C2191 1.363 . S
C2190 C2196 1.379 . S
C2190 N2198 1.356 . S
C2191 C2190 1.363 . S
C2191 C2197 1.363 . S
C2192 C2193 1.363 . S
C2192 C2197 1.379 . S
C2192 N2199 1.356 . S
C2193 C2192 1.363 . S
C2193 C2196 1.363 . S
N2194 C2196 1.356 . S
N2194 H2206 0.984 . S
N2194 H2207 0.985 . S
N2195 C2197 1.356 . S
N2195 H2200 0.984 . S
N2195 H2201 0.985 . S
C2196 C2190 1.379 . S
C2196 C2193 1.363 . S
C2196 N2194 1.356 . S
C2197 C2191 1.363 . S
C2197 C2192 1.379 . S
C2197 N2195 1.356 . S
N2198 C2190 1.356 . S
N2198 H2204 0.984 . S
N2198 H2205 0.984 . S
N2199 C2192 1.356 . S
N2199 H2202 0.984 . S
N2199 H2203 0.985 . S
H2200 N2195 0.984 . S
H2201 N2195 0.985 . S
H2202 N2199 0.984 . S
H2203 N2199 0.985 . S
H2204 N2198 0.984 . S
H2205 N2198 0.984 . S
H2206 N2194 0.984 . S
H2207 N2194 0.985 . S
C1345 C319 1.781 . S
C1347 C63 1.804 . S
C1363 C69 1.244 . S
C1365 C142 1.107 . S
C1381 C242 1.724 . S
C1383 C158 1.744 . S
C1399 C321 0.929 . S
C1401 C224 1.154 . S
C1417 C405 1.240 . S
C1419 C489 1.268 . S
C1435 C483 1.756 . S
C1437 C578 1.726 . S
C1453 C562 0.870 . S
C1455 C644 1.150 . S
C1471 C403 1.761 . S
C1473 C662 1.763 . S
C1489 C823 3.381 . S
C1491 C67 3.378 . S
C1507 C896 1.726 . S
C1509 C140 1.736 . S
C1525 C226 1.163 . S
C1527 C1150 1.172 . S
C1543 C735 1.770 . S
C1545 C315 1.706 . S
C1561 C987 1.706 . S
C1563 C399 1.769 . S
C1579 C1243 3.380 . S
C1581 C487 3.381 . S
C1597 C560 1.727 . S
C1599 C1064 1.735 . S
C1615 C1318 1.163 . S
C1617 C646 1.169 . S
C1633 C739 1.761 . S
C1635 C1166 1.765 . S
C1651 C825 1.266 . S
C1653 C741 1.240 . S
C1669 C914 1.726 . S
C1671 C819 1.756 . S
C1687 C1239 1.806 . S
C1689 C991 1.780 . S
C1705 C1082 1.745 . S
C1707 C1334 1.724 . S
C1723 C980 1.781 . S
C1725 C74 1.809 . S
C1741 C1077 1.105 . S
C1743 C58 1.242 . S
C1759 C1071 1.745 . S
C1761 C231 1.725 . S
C1777 C235 1.157 . S
C1779 C982 0.931 . S
C1795 C814 1.266 . S
C1797 C394 1.239 . S
C1813 C830 1.755 . S
C1815 C567 1.726 . S
C1831 C1159 1.152 . S
C1833 C573 0.872 . S
C1849 C392 1.761 . S
C1851 C1155 1.767 . S
C1867 C476 3.380 . S
C1869 C56 3.383 . S
C1885 C907 1.726 . S
C1887 C1075 1.736 . S
C1903 C237 1.164 . S
C1905 C657 1.165 . S
C1921 C746 1.770 . S
C1923 C998 1.706 . S
C1939 C326 1.706 . S
C1941 C410 1.771 . S
C1957 C812 3.380 . S
C1959 C1232 3.380 . S
C1975 C571 1.726 . S
C1977 C151 1.737 . S
C1993 C1329 1.164 . S
C1995 C1161 1.168 . S
C2011 C728 1.761 . S
C2013 C651 1.765 . S
C2029 C730 1.240 . S
C2031 C478 1.266 . S
C2047 C903 1.726 . S
C2049 C494 1.756 . S
C2065 C308 1.781 . S
C2067 C1250 1.807 . S
C2083 C147 1.745 . S
C2085 C1323 1.724 . S
C2101 C1066 1.105 . S
C2103 C1245 1.245 . S
C2119 C993 0.929 . S
C2121 C1316 1.157 . S
C2137 C898 0.870 . S
C2139 C1148 1.152 . S
C2155 C1234 1.245 . S
C2157 C153 1.105 . S
C2173 C310 0.929 . S
C2175 C1327 1.157 . S
C2191 C655 1.152 . S
C2193 C909 0.870 . S
