# Generated by pormake.
# Topology uke, (4)-cn, num edge types: 1
# Building blocks:
#     Node 0, Type 0, BuildingBlock: UXUYUI_clean_sbu_0, # of connection points: 4
#     Node 1, Type 0, BuildingBlock: UXUYUI_clean_sbu_0, # of connection points: 4
#     Node 2, Type 0, BuildingBlock: UXUYUI_clean_sbu_0, # of connection points: 4
#     Node 3, Type 0, BuildingBlock: UXUYUI_clean_sbu_0, # of connection points: 4
#     Node 4, Type 0, BuildingBlock: UXUYUI_clean_sbu_0, # of connection points: 4
#     Node 5, Type 0, BuildingBlock: UXUYUI_clean_sbu_0, # of connection points: 4
#     Node 6, Type 0, BuildingBlock: UXUYUI_clean_sbu_0, # of connection points: 4
#     Node 7, Type 0, BuildingBlock: UXUYUI_clean_sbu_0, # of connection points: 4
#     Node 8, Type 0, BuildingBlock: UXUYUI_clean_sbu_0, # of connection points: 4
#     Node 9, Type 0, BuildingBlock: UXUYUI_clean_sbu_0, # of connection points: 4
#     Node 10, Type 0, BuildingBlock: UXUYUI_clean_sbu_0, # of connection points: 4
#     Node 11, Type 0, BuildingBlock: UXUYUI_clean_sbu_0, # of connection points: 4
#     Node 12, Type 0, BuildingBlock: UXUYUI_clean_sbu_0, # of connection points: 4
#     Node 13, Type 0, BuildingBlock: UXUYUI_clean_sbu_0, # of connection points: 4
#     Node 14, Type 0, BuildingBlock: UXUYUI_clean_sbu_0, # of connection points: 4
#     Node 15, Type 0, BuildingBlock: UXUYUI_clean_sbu_0, # of connection points: 4
#     Node 16, Type 0, BuildingBlock: UXUYUI_clean_sbu_0, # of connection points: 4
#     Node 17, Type 0, BuildingBlock: UXUYUI_clean_sbu_0, # of connection points: 4
#     Node 18, Type 0, BuildingBlock: UXUYUI_clean_sbu_0, # of connection points: 4
#     Node 19, Type 0, BuildingBlock: UXUYUI_clean_sbu_0, # of connection points: 4
#     Node 20, Type 0, BuildingBlock: UXUYUI_clean_sbu_0, # of connection points: 4
#     Node 21, Type 0, BuildingBlock: UXUYUI_clean_sbu_0, # of connection points: 4
#     Node 22, Type 0, BuildingBlock: UXUYUI_clean_sbu_0, # of connection points: 4
#     Node 23, Type 0, BuildingBlock: UXUYUI_clean_sbu_0, # of connection points: 4
#     Node 24, Type 0, BuildingBlock: UXUYUI_clean_sbu_0, # of connection points: 4
#     Node 25, Type 0, BuildingBlock: UXUYUI_clean_sbu_0, # of connection points: 4
#     Node 26, Type 0, BuildingBlock: UXUYUI_clean_sbu_0, # of connection points: 4
#     Node 27, Type 0, BuildingBlock: UXUYUI_clean_sbu_0, # of connection points: 4
#     Node 28, Type 0, BuildingBlock: UXUYUI_clean_sbu_0, # of connection points: 4
#     Node 29, Type 0, BuildingBlock: UXUYUI_clean_sbu_0, # of connection points: 4
#     Node 30, Type 0, BuildingBlock: UXUYUI_clean_sbu_0, # of connection points: 4
#     Node 31, Type 0, BuildingBlock: UXUYUI_clean_sbu_0, # of connection points: 4
#     Edge 32, Type (0, 0), BuildingBlock: EZIPEK_clean_linker_0, # of connection points: 2
#     Edge 33, Type (0, 0), BuildingBlock: EZIPEK_clean_linker_0, # of connection points: 2
#     Edge 34, Type (0, 0), BuildingBlock: EZIPEK_clean_linker_0, # of connection points: 2
#     Edge 35, Type (0, 0), BuildingBlock: EZIPEK_clean_linker_0, # of connection points: 2
#     Edge 36, Type (0, 0), BuildingBlock: EZIPEK_clean_linker_0, # of connection points: 2
#     Edge 37, Type (0, 0), BuildingBlock: EZIPEK_clean_linker_0, # of connection points: 2
#     Edge 38, Type (0, 0), BuildingBlock: EZIPEK_clean_linker_0, # of connection points: 2
#     Edge 39, Type (0, 0), BuildingBlock: EZIPEK_clean_linker_0, # of connection points: 2
#     Edge 40, Type (0, 0), BuildingBlock: EZIPEK_clean_linker_0, # of connection points: 2
#     Edge 41, Type (0, 0), BuildingBlock: EZIPEK_clean_linker_0, # of connection points: 2
#     Edge 42, Type (0, 0), BuildingBlock: EZIPEK_clean_linker_0, # of connection points: 2
#     Edge 43, Type (0, 0), BuildingBlock: EZIPEK_clean_linker_0, # of connection points: 2
#     Edge 44, Type (0, 0), BuildingBlock: EZIPEK_clean_linker_0, # of connection points: 2
#     Edge 45, Type (0, 0), BuildingBlock: EZIPEK_clean_linker_0, # of connection points: 2
#     Edge 46, Type (0, 0), BuildingBlock: EZIPEK_clean_linker_0, # of connection points: 2
#     Edge 47, Type (0, 0), BuildingBlock: EZIPEK_clean_linker_0, # of connection points: 2
#     Edge 48, Type (0, 0), BuildingBlock: EZIPEK_clean_linker_0, # of connection points: 2
#     Edge 49, Type (0, 0), BuildingBlock: EZIPEK_clean_linker_0, # of connection points: 2
#     Edge 50, Type (0, 0), BuildingBlock: EZIPEK_clean_linker_0, # of connection points: 2
#     Edge 51, Type (0, 0), BuildingBlock: EZIPEK_clean_linker_0, # of connection points: 2
#     Edge 52, Type (0, 0), BuildingBlock: EZIPEK_clean_linker_0, # of connection points: 2
#     Edge 53, Type (0, 0), BuildingBlock: EZIPEK_clean_linker_0, # of connection points: 2
#     Edge 54, Type (0, 0), BuildingBlock: EZIPEK_clean_linker_0, # of connection points: 2
#     Edge 55, Type (0, 0), BuildingBlock: EZIPEK_clean_linker_0, # of connection points: 2
#     Edge 56, Type (0, 0), BuildingBlock: EZIPEK_clean_linker_0, # of connection points: 2
#     Edge 57, Type (0, 0), BuildingBlock: EZIPEK_clean_linker_0, # of connection points: 2
#     Edge 58, Type (0, 0), BuildingBlock: EZIPEK_clean_linker_0, # of connection points: 2
#     Edge 59, Type (0, 0), BuildingBlock: EZIPEK_clean_linker_0, # of connection points: 2
#     Edge 60, Type (0, 0), BuildingBlock: EZIPEK_clean_linker_0, # of connection points: 2
#     Edge 61, Type (0, 0), BuildingBlock: EZIPEK_clean_linker_0, # of connection points: 2
#     Edge 62, Type (0, 0), BuildingBlock: EZIPEK_clean_linker_0, # of connection points: 2
#     Edge 63, Type (0, 0), BuildingBlock: EZIPEK_clean_linker_0, # of connection points: 2
#     Edge 64, Type (0, 0), BuildingBlock: EZIPEK_clean_linker_0, # of connection points: 2
#     Edge 65, Type (0, 0), BuildingBlock: EZIPEK_clean_linker_0, # of connection points: 2
#     Edge 66, Type (0, 0), BuildingBlock: EZIPEK_clean_linker_0, # of connection points: 2
#     Edge 67, Type (0, 0), BuildingBlock: EZIPEK_clean_linker_0, # of connection points: 2
#     Edge 68, Type (0, 0), BuildingBlock: EZIPEK_clean_linker_0, # of connection points: 2
#     Edge 69, Type (0, 0), BuildingBlock: EZIPEK_clean_linker_0, # of connection points: 2
#     Edge 70, Type (0, 0), BuildingBlock: EZIPEK_clean_linker_0, # of connection points: 2
#     Edge 71, Type (0, 0), BuildingBlock: EZIPEK_clean_linker_0, # of connection points: 2
#     Edge 72, Type (0, 0), BuildingBlock: EZIPEK_clean_linker_0, # of connection points: 2
#     Edge 73, Type (0, 0), BuildingBlock: EZIPEK_clean_linker_0, # of connection points: 2
#     Edge 74, Type (0, 0), BuildingBlock: EZIPEK_clean_linker_0, # of connection points: 2
#     Edge 75, Type (0, 0), BuildingBlock: EZIPEK_clean_linker_0, # of connection points: 2
#     Edge 76, Type (0, 0), BuildingBlock: EZIPEK_clean_linker_0, # of connection points: 2
#     Edge 77, Type (0, 0), BuildingBlock: EZIPEK_clean_linker_0, # of connection points: 2
#     Edge 78, Type (0, 0), BuildingBlock: EZIPEK_clean_linker_0, # of connection points: 2
#     Edge 79, Type (0, 0), BuildingBlock: EZIPEK_clean_linker_0, # of connection points: 2
#     Edge 80, Type (0, 0), BuildingBlock: EZIPEK_clean_linker_0, # of connection points: 2
#     Edge 81, Type (0, 0), BuildingBlock: EZIPEK_clean_linker_0, # of connection points: 2
#     Edge 82, Type (0, 0), BuildingBlock: EZIPEK_clean_linker_0, # of connection points: 2
#     Edge 83, Type (0, 0), BuildingBlock: EZIPEK_clean_linker_0, # of connection points: 2
#     Edge 84, Type (0, 0), BuildingBlock: EZIPEK_clean_linker_0, # of connection points: 2
#     Edge 85, Type (0, 0), BuildingBlock: EZIPEK_clean_linker_0, # of connection points: 2
#     Edge 86, Type (0, 0), BuildingBlock: EZIPEK_clean_linker_0, # of connection points: 2
#     Edge 87, Type (0, 0), BuildingBlock: EZIPEK_clean_linker_0, # of connection points: 2
#     Edge 88, Type (0, 0), BuildingBlock: EZIPEK_clean_linker_0, # of connection points: 2
#     Edge 89, Type (0, 0), BuildingBlock: EZIPEK_clean_linker_0, # of connection points: 2
#     Edge 90, Type (0, 0), BuildingBlock: EZIPEK_clean_linker_0, # of connection points: 2
#     Edge 91, Type (0, 0), BuildingBlock: EZIPEK_clean_linker_0, # of connection points: 2
#     Edge 92, Type (0, 0), BuildingBlock: EZIPEK_clean_linker_0, # of connection points: 2
#     Edge 93, Type (0, 0), BuildingBlock: EZIPEK_clean_linker_0, # of connection points: 2
#     Edge 94, Type (0, 0), BuildingBlock: EZIPEK_clean_linker_0, # of connection points: 2
#     Edge 95, Type (0, 0), BuildingBlock: EZIPEK_clean_linker_0, # of connection points: 2
# Relax obj value: 0.349
# Max RMSD: 0.294
# Mean RMSD: 0.293
data_MOF--net-uke--node1-UXUYUI_clean_sbu_0--edge1-EZIPEK_clean_linker_0
_symmetry_space_group_name_H-M    P1
_symmetry_Int_Tables_number       1
_symmetry_cell_setting            triclinic
loop_
_symmetry_equiv_pos_as_xyz
'x, y, z'
_cell_length_a     31.87035
_cell_length_b     124.3367
_cell_length_c     55.962818
_cell_angle_alpha  89.996649
_cell_angle_beta   90.005122
_cell_angle_gamma 90.000492
loop_
_atom_site_label
_atom_site_type_symbol
_atom_site_fract_x
_atom_site_fract_y
_atom_site_fract_z
_atom_type_partial_charge
Li0 Li 0.04026 0.05323 0.2856 0.0
Li1 Li 0.09514 0.06673 0.28711 0.0
Li2 Li 0.06928 0.05996 0.24882 0.0
Li3 Li 0.11175 0.04867 0.27443 0.0
C4 C 0.017 0.07524 0.25952 0.0
N5 N 0.97641 0.08968 0.22997 0.0
C6 C 0.03124 0.08584 0.25778 0.0
C7 C 0.98209 0.07198 0.24626 0.0
C8 C 0.01028 0.09303 0.24276 0.0
C9 C 0.96202 0.0794 0.23139 0.0
C10 C 0.10172 0.05667 0.32833 0.0
C11 C 0.15365 0.06236 0.357 0.0
N12 N 0.12261 0.0644 0.37305 0.0
C13 C 0.07033 0.05877 0.34514 0.0
C14 C 0.14373 0.05842 0.33431 0.0
C15 C 0.08154 0.06269 0.36765 0.0
C16 C 0.99639 0.03975 0.31709 0.0
N17 N 0.99248 0.04843 0.30246 0.0
C18 C 0.92487 0.05242 0.31839 0.0
C19 C 0.95739 0.05463 0.30248 0.0
C20 C 0.92898 0.04382 0.33439 0.0
C21 C 0.96457 0.03723 0.33327 0.0
H22 H 0.02523 0.03517 0.31713 0.0
H23 H 0.95563 0.06163 0.29109 0.0
C24 C 0.14194 0.08579 0.2929 0.0
N25 N 0.11036 0.07979 0.3023 0.0
C26 C 0.14563 0.09665 0.29891 0.0
C27 C 0.08604 0.09472 0.32535 0.0
C28 C 0.08315 0.08394 0.31861 0.0
C29 C 0.11644 0.10127 0.31461 0.0
H30 H 0.16215 0.08239 0.27935 0.0
H31 H 0.05718 0.07913 0.32492 0.0
C32 C 0.0321 0.0365 0.25802 0.0
N33 N 0.97595 0.01963 0.26082 0.0
C34 C 0.04347 0.02698 0.2696 0.0
C35 C 0.99231 0.03743 0.24775 0.0
C36 C 0.01461 0.01854 0.27084 0.0
C37 C 0.96432 0.02882 0.2494 0.0
C38 C 0.16691 0.0601 0.2509 0.0
C39 C 0.17248 0.0566 0.22737 0.0
C40 C 0.20147 0.06075 0.2662 0.0
C41 C 0.21258 0.05372 0.21959 0.0
C42 C 0.24106 0.05777 0.25775 0.0
N43 N 0.24574 0.05434 0.23483 0.0
C44 C 0.0787 0.07316 0.20874 0.0
C45 C 0.05488 0.05545 0.20046 0.0
C46 C 0.08653 0.07498 0.18456 0.0
N47 N 0.06386 0.06346 0.21616 0.0
C48 C 0.06284 0.05687 0.17615 0.0
C49 C 0.08014 0.06661 0.1682 0.0
H50 H 0.08744 0.07918 0.22175 0.0
H51 H 0.04458 0.04771 0.20699 0.0
C52 C 0.1767 0.03364 0.28879 0.0
N53 N 0.1507 0.03729 0.2713 0.0
C54 C 0.20289 0.02482 0.28436 0.0
C55 C 0.17488 0.02383 0.24421 0.0
C56 C 0.14938 0.03259 0.24938 0.0
C57 C 0.20176 0.01985 0.26184 0.0
H58 H 0.17679 0.0375 0.30611 0.0
H59 H 0.12815 0.03565 0.23592 0.0
O60 O 0.03734 0.06806 0.27398 0.0
O61 O 0.09141 0.05291 0.30613 0.0
O62 O 0.05959 0.04493 0.25699 0.0
O63 O 0.12773 0.06268 0.25906 0.0
H64 H 0.05851 0.08845 0.26766 0.0
H65 H 0.97077 0.0638 0.24732 0.0
H66 H 0.02106 0.10125 0.24119 0.0
H67 H 0.93504 0.07698 0.22097 0.0
H68 H 0.18603 0.0638 0.36184 0.0
H69 H 0.03764 0.05752 0.3408 0.0
H70 H 0.16838 0.05679 0.32154 0.0
H71 H 0.05756 0.0644 0.3808 0.0
H72 H 0.89778 0.05767 0.31907 0.0
H73 H 0.96857 0.0306 0.34561 0.0
H74 H 0.16922 0.10156 0.29023 0.0
H75 H 0.06285 0.09811 0.33733 0.0
H76 H 0.07403 0.02615 0.27781 0.0
H77 H 0.98309 0.04475 0.23869 0.0
H78 H 0.02289 0.01114 0.27985 0.0
H79 H 0.93334 0.02944 0.24162 0.0
H80 H 0.14608 0.05597 0.21533 0.0
H81 H 0.19771 0.06346 0.28443 0.0
H82 H 0.21729 0.05094 0.20147 0.0
H83 H 0.26806 0.05818 0.26944 0.0
H84 H 0.10013 0.08254 0.17889 0.0
H85 H 0.05782 0.05026 0.16387 0.0
H86 H 0.2235 0.02187 0.29828 0.0
H87 H 0.17344 0.02014 0.2267 0.0
Li88 Li 0.19905 0.19726 0.29394 0.0
Li89 Li 0.14859 0.18291 0.2906 0.0
Li90 Li 0.17251 0.19239 0.25426 0.0
Li91 Li 0.12616 0.20137 0.28258 0.0
C92 C 0.24238 0.17842 0.27268 0.0
N93 N 0.31801 0.16811 0.26504 0.0
C94 C 0.2545 0.16986 0.28736 0.0
C95 C 0.26845 0.18162 0.25389 0.0
C96 C 0.29293 0.16479 0.28327 0.0
C97 C 0.30664 0.17633 0.25038 0.0
C98 C 0.15622 0.1918 0.33613 0.0
C99 C 0.1441 0.19185 0.37866 0.0
N100 N 0.17669 0.18491 0.38159 0.0
C101 C 0.1896 0.18468 0.33957 0.0
C102 C 0.13327 0.19543 0.3558 0.0
C103 C 0.19944 0.18128 0.36268 0.0
C104 C 0.23527 0.20956 0.33008 0.0
N105 N 0.24487 0.20233 0.31265 0.0
C106 C 0.31461 0.20053 0.32764 0.0
C107 C 0.28396 0.19804 0.31076 0.0
C108 C 0.3047 0.20746 0.34653 0.0
C109 C 0.26496 0.21225 0.34743 0.0
H110 H 0.20384 0.2128 0.33119 0.0
H111 H 0.29105 0.19237 0.29679 0.0
C112 C 0.14636 0.16124 0.28456 0.0
N113 N 0.13479 0.16884 0.30069 0.0
C114 C 0.14089 0.15038 0.28968 0.0
C115 C 0.11087 0.15533 0.32786 0.0
C116 C 0.11685 0.16617 0.32195 0.0
C117 C 0.12332 0.14737 0.31158 0.0
H118 H 0.16037 0.16365 0.26779 0.0
H119 H 0.10755 0.17239 0.33435 0.0
C120 C 0.203 0.21413 0.25697 0.0
N121 N 0.2524 0.22896 0.23335 0.0
C122 C 0.18516 0.22354 0.24786 0.0
C123 C 0.24598 0.2123 0.25429 0.0
C124 C 0.21065 0.23093 0.2359 0.0
C125 C 0.27042 0.21988 0.24223 0.0
C126 C 0.07442 0.1847 0.26571 0.0
C127 C 0.05481 0.17957 0.24652 0.0
C128 C 0.05292 0.18597 0.28729 0.0
C129 C 0.01381 0.17578 0.24924 0.0
C130 C 0.01197 0.18207 0.2893 0.0
N131 N 0.99343 0.1771 0.27039 0.0
C132 C 0.18524 0.18104 0.21134 0.0
C133 C 0.1659 0.1994 0.2074 0.0
C134 C 0.17848 0.17934 0.18696 0.0
N135 N 0.17835 0.19092 0.22099 0.0
C136 C 0.15889 0.19807 0.18303 0.0
C137 C 0.16408 0.18788 0.17281 0.0
H138 H 0.19343 0.17436 0.2228 0.0
H139 H 0.15864 0.207 0.21575 0.0
C140 C 0.07953 0.21984 0.29748 0.0
N141 N 0.08471 0.21208 0.28061 0.0
C142 C 0.05559 0.22898 0.29226 0.0
C143 C 0.0423 0.22175 0.2528 0.0
C144 C 0.06628 0.21279 0.25876 0.0
C145 C 0.03766 0.23005 0.26946 0.0
H146 H 0.09577 0.2192 0.31439 0.0
H147 H 0.0723 0.20667 0.24546 0.0
O148 O 0.20471 0.18343 0.2763 0.0
O149 O 0.14605 0.1953 0.31368 0.0
O150 O 0.17839 0.20685 0.26874 0.0
O151 O 0.1147 0.18833 0.26335 0.0
H152 H 0.23443 0.16714 0.30173 0.0
H153 H 0.25929 0.18809 0.24208 0.0
H154 H 0.30278 0.15819 0.29455 0.0
H155 H 0.32719 0.17875 0.23597 0.0
H156 H 0.12662 0.1946 0.39406 0.0
H157 H 0.2078 0.18184 0.32459 0.0
H158 H 0.10738 0.20096 0.35342 0.0
H159 H 0.22524 0.17578 0.36559 0.0
H160 H 0.34515 0.19673 0.3266 0.0
H161 H 0.25654 0.2176 0.36191 0.0
H162 H 0.15046 0.14438 0.27675 0.0
H163 H 0.09683 0.15318 0.34482 0.0
H164 H 0.15193 0.22509 0.24992 0.0
H165 H 0.26035 0.20514 0.26155 0.0
H166 H 0.19725 0.23823 0.22867 0.0
H167 H 0.30374 0.21856 0.23999 0.0
H168 H 0.07116 0.17851 0.22972 0.0
H169 H 0.06765 0.18991 0.30235 0.0
H170 H 0.99822 0.17179 0.23454 0.0
H171 H 0.99494 0.18298 0.30589 0.0
H172 H 0.18233 0.17137 0.17946 0.0
H173 H 0.14734 0.20476 0.1725 0.0
H174 H 0.05264 0.23533 0.30537 0.0
H175 H 0.02906 0.22242 0.23503 0.0
Li176 Li 0.09239 0.1907 0.99431 0.0
Li177 Li 0.13146 0.2015 0.96569 0.0
Li178 Li 0.05942 0.19567 0.95646 0.0
Li179 Li 0.11635 0.18253 0.95636 0.0
C180 C 0.07194 0.21288 -0.00064 0.0
N181 N 0.0587 0.22819 0.03436 0.0
C182 C 0.10516 0.2163 0.0138 0.0
C183 C 0.03204 0.21732 0.00261 0.0
C184 C 0.09781 0.22403 0.03143 0.0
C185 C 0.02597 0.22504 0.02043 0.0
C186 C 0.18789 0.1876 0.99351 0.0
C187 C 0.2582 0.18045 0.99488 0.0
N188 N 0.26517 0.1859 0.01557 0.0
C189 C 0.19564 0.19306 0.01489 0.0
C190 C 0.21929 0.18117 0.9835 0.0
C191 C 0.23495 0.19213 0.02573 0.0
C192 C 0.11351 0.1793 0.0346 0.0
N193 N 0.08879 0.18761 0.02745 0.0
C194 C 0.0777 0.19299 0.06789 0.0
C195 C 0.06922 0.1941 0.04353 0.0
C196 C 0.10611 0.18508 0.07543 0.0
C197 C 0.12284 0.1779 0.05872 0.0
H198 H 0.12844 0.17424 0.02139 0.0
H199 H 0.04898 0.2005 0.0375 0.0
C200 C 0.14818 0.22319 0.96278 0.0
N201 N 0.16808 0.21357 0.9649 0.0
C202 C 0.16861 0.23267 0.96925 0.0
C203 C 0.23111 0.22227 0.97752 0.0
C204 C 0.20929 0.21296 0.97111 0.0
C205 C 0.20998 0.23216 0.97754 0.0
H206 H 0.11532 0.22341 0.95795 0.0
H207 H 0.22455 0.20524 0.97257 0.0
C208 C 0.02253 0.17854 0.98165 0.0
N209 N 0.9457 0.17291 0.00075 0.0
C210 C 0.00785 0.168 0.97953 0.0
C211 C 0.9982 0.18622 0.99349 0.0
C212 C 0.96889 0.16531 0.9893 0.0
C213 C 0.95944 0.18322 0.00302 0.0
C214 C 0.13956 0.19535 0.91736 0.0
C215 C 0.12803 0.19693 0.89352 0.0
C216 C 0.18172 0.19374 0.92316 0.0
C217 C 0.15899 0.19684 0.87584 0.0
C218 C 0.21175 0.19371 0.90499 0.0
N219 N 0.19986 0.19525 0.88189 0.0
C220 C 0.99794 0.20968 0.93726 0.0
C221 C 0.98944 0.19107 0.92899 0.0
C222 C 0.96389 0.2122 0.92256 0.0
N223 N 0.00996 0.19925 0.94001 0.0
C224 C 0.95537 0.19322 0.91418 0.0
C225 C 0.94281 0.20389 0.91062 0.0
H226 H 0.01556 0.21602 0.94589 0.0
H227 H 0.00038 0.18289 0.93117 0.0
C228 C 0.13313 0.16139 0.96181 0.0
N229 N 0.13233 0.16897 0.94437 0.0
C230 C 0.1363 0.15055 0.95593 0.0
C231 C 0.13973 0.15552 0.91416 0.0
C232 C 0.13597 0.16633 0.92086 0.0
C233 C 0.13868 0.14752 0.93187 0.0
H234 H 0.12928 0.16377 0.98027 0.0
H235 H 0.13413 0.17251 0.90732 0.0
O236 O 0.07822 0.20527 0.98206 0.0
O237 O 0.1496 0.18836 0.98255 0.0
O238 O 0.06051 0.18128 0.97206 0.0
O239 O 0.10947 0.19533 0.93477 0.0
H240 H 0.13629 0.21306 0.01139 0.0
H241 H 0.00596 0.21479 0.99158 0.0
H242 H 0.12319 0.22671 0.0428 0.0
H243 H 0.99523 0.22851 0.02319 0.0
H244 H 0.28284 0.17554 0.98728 0.0
H245 H 0.17154 0.1979 0.02315 0.0
H246 H 0.21367 0.1768 0.96708 0.0
H247 H 0.24141 0.19633 0.04225 0.0
H248 H 0.06416 0.1986 0.08053 0.0
H249 H 0.14479 0.17171 0.06413 0.0
H250 H 0.15165 0.24022 0.96907 0.0
H251 H 0.26318 0.22169 0.9838 0.0
H252 H 0.02637 0.16196 0.97039 0.0
H253 H 0.00906 0.19441 0.99527 0.0
H254 H 0.9571 0.15718 0.98779 0.0
H255 H 0.94027 0.18908 0.01222 0.0
H256 H 0.09547 0.19818 0.88875 0.0
H257 H 0.19118 0.19252 0.94147 0.0
H258 H 0.15052 0.19804 0.85731 0.0
H259 H 0.2445 0.19247 0.90924 0.0
H260 H 0.95477 0.22052 0.92001 0.0
H261 H 0.93961 0.18667 0.90509 0.0
H262 H 0.13551 0.14456 0.96998 0.0
H263 H 0.14164 0.15338 0.89543 0.0
Li264 Li 0.15612 0.05882 0.98982 0.0
Li265 Li 0.11671 0.04811 0.9617 0.0
Li266 Li 0.19313 0.05283 0.95409 0.0
Li267 Li 0.13763 0.06648 0.95258 0.0
C268 C 0.19091 0.03737 0.99433 0.0
N269 N 0.23675 0.02413 0.0242 0.0
C270 C 0.17083 0.02929 0.00746 0.0
C271 C 0.23436 0.03862 0.99622 0.0
C272 C 0.19454 0.02271 0.02251 0.0
C273 C 0.25696 0.03187 0.01146 0.0
C274 C 0.06875 0.05905 0.99451 0.0
C275 C 0.00213 0.06228 0.01369 0.0
N276 N 0.00873 0.05364 0.0281 0.0
C277 C 0.07496 0.05024 0.00965 0.0
C278 C 0.0321 0.06515 0.99661 0.0
C279 C 0.04423 0.04762 0.02645 0.0
C280 C 0.13821 0.07154 0.02918 0.0
N281 N 0.1583 0.06227 0.0232 0.0
C282 C 0.16217 0.05708 0.06422 0.0
C283 C 0.17169 0.05526 0.04023 0.0
C284 C 0.13923 0.06625 0.07063 0.0
C285 C 0.12875 0.07379 0.053 0.0
H286 H 0.12711 0.07687 0.01528 0.0
H287 H 0.18758 0.04796 0.03531 0.0
C288 C 0.09872 0.0266 0.96009 0.0
N289 N 0.07914 0.03631 0.96021 0.0
C290 C 0.07716 0.01739 0.96713 0.0
C291 C 0.01448 0.02817 0.97189 0.0
C292 C 0.03732 0.0372 0.9647 0.0
C293 C 0.03515 0.01826 0.97413 0.0
H294 H 0.13205 0.02617 0.95657 0.0
H295 H 0.02254 0.04503 0.96468 0.0
C296 C 0.21198 0.07423 0.98369 0.0
N297 N 0.24997 0.08814 0.01556 0.0
C298 C 0.19615 0.08461 0.98692 0.0
C299 C 0.24736 0.07095 0.99653 0.0
C300 C 0.21576 0.09152 0.00313 0.0
C301 C 0.26603 0.07809 0.01262 0.0
C302 C 0.13095 0.05688 0.91024 0.0
C303 C 0.16013 0.05835 0.8919 0.0
C304 C 0.08864 0.05921 0.90626 0.0
C305 C 0.14647 0.06226 0.86983 0.0
C306 C 0.07625 0.06312 0.88394 0.0
N307 N 0.10517 0.06455 0.86635 0.0
C308 C 0.24385 0.03864 0.92771 0.0
C309 C 0.27339 0.05581 0.93566 0.0
C310 C 0.27717 0.03609 0.91252 0.0
N311 N 0.24239 0.04843 0.93851 0.0
C312 C 0.3072 0.0536 0.92067 0.0
C313 C 0.30863 0.04376 0.90853 0.0
H314 H 0.21819 0.03304 0.93006 0.0
H315 H 0.27082 0.06359 0.94415 0.0
C316 C 0.09646 0.08637 0.94734 0.0
N317 N 0.12598 0.07981 0.93763 0.0
C318 C 0.09636 0.09732 0.94186 0.0
C319 C 0.15465 0.09433 0.91496 0.0
C320 C 0.15417 0.08348 0.92131 0.0
C321 C 0.12683 0.10144 0.92624 0.0
H322 H 0.07542 0.08329 0.96085 0.0
H323 H 0.1784 0.07818 0.91469 0.0
O324 O 0.16825 0.04386 0.97937 0.0
O325 O 0.09807 0.06171 0.97761 0.0
O326 O 0.19302 0.06732 0.96801 0.0
O327 O 0.14376 0.05318 0.93203 0.0
H328 H 0.13727 0.02815 0.0062 0.0
H329 H 0.25051 0.04472 0.98601 0.0
H330 H 0.17938 0.01647 0.03285 0.0
H331 H 0.29059 0.03277 0.01313 0.0
H332 H 0.97358 0.06692 0.01546 0.0
H333 H 0.10302 0.04544 0.00835 0.0
H334 H 0.02672 0.07199 0.98506 0.0
H335 H 0.04864 0.04081 0.03822 0.0
H336 H 0.17093 0.05116 0.07752 0.0
H337 H 0.11113 0.08096 0.05746 0.0
H338 H 0.09378 0.00982 0.96868 0.0
H339 H 0.98197 0.02902 0.9772 0.0
H340 H 0.16884 0.0873 0.9772 0.0
H341 H 0.26027 0.06299 0.99414 0.0
H342 H 0.20373 0.09956 0.00585 0.0
H343 H 0.29332 0.07564 0.02274 0.0
H344 H 0.193 0.05656 0.89475 0.0
H345 H 0.06575 0.0581 0.92035 0.0
H346 H 0.16869 0.06349 0.85548 0.0
H347 H 0.04364 0.06502 0.88062 0.0
H348 H 0.27754 0.02845 0.90322 0.0
H349 H 0.33105 0.05967 0.91776 0.0
H350 H 0.07463 0.10264 0.95091 0.0
H351 H 0.17864 0.09731 0.90295 0.0
Li352 Li 0.91531 0.94068 0.73868 0.0
Li353 Li 0.88692 0.9328 0.70229 0.0
Li354 Li 0.94294 0.94699 0.7008 0.0
Li355 Li 0.8717 0.95193 0.71262 0.0
C356 C 0.97081 0.92553 0.72697 0.0
N357 N 0.02186 0.9119 0.75293 0.0
C358 C 0.95593 0.91548 0.73427 0.0
C359 C 0.01181 0.9286 0.7326 0.0
C360 C 0.98217 0.90872 0.74745 0.0
C361 C 0.03709 0.92161 0.74583 0.0
C362 C 0.81363 0.93616 0.72805 0.0
C363 C 0.74954 0.93608 0.70516 0.0
N364 N 0.72914 0.93156 0.72401 0.0
C365 C 0.79204 0.93156 0.74723 0.0
C366 C 0.79225 0.93847 0.70687 0.0
C367 C 0.74933 0.92928 0.74482 0.0
C368 C 0.93751 0.94533 0.78647 0.0
N369 N 0.92264 0.93763 0.77144 0.0
C370 C 0.89801 0.92712 0.80429 0.0
C371 C 0.90388 0.92856 0.7798 0.0
C372 C 0.91121 0.93518 0.82005 0.0
C373 C 0.93224 0.94423 0.8111 0.0
H374 H 0.95079 0.95264 0.77934 0.0
H375 H 0.89086 0.9228 0.76735 0.0
C376 C 0.89158 0.91639 0.66832 0.0
N377 N 0.87178 0.91941 0.68878 0.0
C378 C 0.89165 0.9056 0.66132 0.0
C379 C 0.84909 0.90141 0.69589 0.0
C380 C 0.84981 0.91226 0.70221 0.0
C381 C 0.87151 0.89797 0.67577 0.0
H382 H 0.90986 0.92222 0.65844 0.0
H383 H 0.83581 0.91477 0.71887 0.0
C384 C 0.95371 0.96367 0.73163 0.0
N385 N 0.01243 0.97983 0.73711 0.0
C386 C 0.94282 0.97436 0.72696 0.0
C387 C 0.99431 0.96121 0.7393 0.0
C388 C 0.97298 0.98241 0.7298 0.0
C389 C 0.0236 0.96949 0.74188 0.0
C390 C 0.87841 0.95023 0.66051 0.0
C391 C 0.89525 0.96006 0.65318 0.0
C392 C 0.84998 0.94484 0.64573 0.0
C393 C 0.88296 0.96442 0.63127 0.0
C394 C 0.83845 0.94946 0.62395 0.0
N395 N 0.85504 0.95908 0.61723 0.0
C396 C 0.01091 0.94236 0.67227 0.0
C397 C 0.00186 0.96118 0.67721 0.0
C398 C 0.04386 0.94405 0.65635 0.0
N399 N 0.99057 0.95086 0.68224 0.0
C400 C 0.03482 0.96324 0.66138 0.0
C401 C 0.05574 0.95458 0.65067 0.0
H402 H 0.00078 0.93426 0.67624 0.0
H403 H 0.98461 0.96781 0.68483 0.0
C404 C 0.81157 0.96348 0.73673 0.0
N405 N 0.83268 0.96343 0.7156 0.0
C406 C 0.78947 0.97258 0.74395 0.0
C407 C 0.81063 0.98143 0.7074 0.0
C408 C 0.83197 0.97207 0.70071 0.0
C409 C 0.78996 0.98178 0.72952 0.0
H410 H 0.81401 0.95669 0.7487 0.0
H411 H 0.85018 0.97201 0.68448 0.0
O412 O 0.94563 0.93226 0.71401 0.0
O413 O 0.85547 0.93841 0.73019 0.0
O414 O 0.92463 0.95568 0.72887 0.0
O415 O 0.89059 0.94569 0.68165 0.0
H416 H 0.92438 0.91296 0.72995 0.0
H417 H 0.02409 0.93626 0.72668 0.0
H418 H 0.97099 0.90094 0.75332 0.0
H419 H 0.06886 0.92388 0.75037 0.0
H420 H 0.73259 0.93782 0.68887 0.0
H421 H 0.80817 0.92975 0.76377 0.0
H422 H 0.80837 0.94212 0.69196 0.0
H423 H 0.73222 0.92569 0.75949 0.0
H424 H 0.88119 0.92013 0.81076 0.0
H425 H 0.94224 0.95063 0.82294 0.0
H426 H 0.90947 0.90313 0.64578 0.0
H427 H 0.83362 0.89566 0.70747 0.0
H428 H 0.91148 0.97641 0.72117 0.0
H429 H 0.00308 0.953 0.74322 0.0
H430 H 0.96504 0.99071 0.72619 0.0
H431 H 0.0552 0.9677 0.74771 0.0
H432 H 0.91711 0.96435 0.66444 0.0
H433 H 0.83705 0.93714 0.65101 0.0
H434 H 0.89557 0.97206 0.62544 0.0
H435 H 0.8164 0.94539 0.61236 0.0
H436 H 0.05947 0.93723 0.64823 0.0
H437 H 0.0433 0.97145 0.65712 0.0
H438 H 0.77403 0.97266 0.7612 0.0
H439 H 0.81179 0.98846 0.696 0.0
Li440 Li 0.86141 0.81689 0.70518 0.0
Li441 Li 0.83776 0.80731 0.7395 0.0
Li442 Li 0.87927 0.79806 0.7105 0.0
Li443 Li 0.80515 0.80297 0.70096 0.0
C444 C 0.92881 0.81732 0.73187 0.0
N445 N 0.99397 0.83195 0.73425 0.0
C446 C 0.93062 0.82477 0.75056 0.0
C447 C 0.96034 0.81725 0.71453 0.0
C448 C 0.96377 0.83212 0.75141 0.0
C449 C 0.99296 0.82472 0.716 0.0
C450 C 0.77123 0.8204 0.73294 0.0
C451 C 0.70003 0.81884 0.74725 0.0
N452 N 0.70587 0.8277 0.76111 0.0
C453 C 0.77645 0.8295 0.74731 0.0
C454 C 0.73268 0.81502 0.73292 0.0
C455 C 0.74307 0.83305 0.76144 0.0
C456 C 0.88166 0.83318 0.67055 0.0
N457 N 0.87572 0.83088 0.6941 0.0
C458 C 0.87784 0.84952 0.70422 0.0
C459 C 0.87419 0.83878 0.71084 0.0
C460 C 0.88271 0.85216 0.68009 0.0
C461 C 0.88555 0.8439 0.66308 0.0
H462 H 0.8818 0.82676 0.65753 0.0
H463 H 0.86874 0.83675 0.72931 0.0
C464 C 0.87096 0.80595 0.78439 0.0
N465 N 0.8333 0.80771 0.77362 0.0
C466 C 0.87445 0.80608 0.80912 0.0
C467 C 0.79983 0.80939 0.8117 0.0
C468 C 0.79773 0.80915 0.78673 0.0
C469 C 0.83875 0.80795 0.82295 0.0
H470 H 0.89851 0.80436 0.77373 0.0
H471 H 0.76781 0.81004 0.77796 0.0
C472 C 0.87705 0.79946 0.66364 0.0
N473 N 0.91831 0.78747 0.62937 0.0
C474 C 0.85894 0.79004 0.65478 0.0
C475 C 0.91593 0.80285 0.65491 0.0
C476 C 0.88035 0.78407 0.6375 0.0
C477 C 0.93636 0.79666 0.63763 0.0
C478 C 0.81282 0.78736 0.74444 0.0
C479 C 0.84216 0.78282 0.76 0.0
C480 C 0.77002 0.78647 0.74943 0.0
C481 C 0.82817 0.77754 0.78054 0.0
C482 C 0.75727 0.78111 0.77015 0.0
N483 N 0.78636 0.77681 0.78516 0.0
C484 C 0.95413 0.78739 0.72254 0.0
C485 C 0.90228 0.77657 0.70388 0.0
C486 C 0.97573 0.77824 0.73018 0.0
N487 N 0.91765 0.78638 0.71013 0.0
C488 C 0.92293 0.76721 0.71113 0.0
C489 C 0.95922 0.76805 0.72514 0.0
H490 H 0.96458 0.79522 0.72834 0.0
H491 H 0.87211 0.77598 0.69515 0.0
C492 C 0.73962 0.80796 0.67078 0.0
N493 N 0.75767 0.79953 0.68228 0.0
C494 C 0.70645 0.80626 0.65504 0.0
C495 C 0.71121 0.78716 0.66308 0.0
C496 C 0.74413 0.78926 0.67896 0.0
C497 C 0.69222 0.79576 0.65093 0.0
H498 H 0.75152 0.81601 0.67363 0.0
H499 H 0.75957 0.78271 0.68816 0.0
O500 O 0.8962 0.81018 0.73048 0.0
O501 O 0.80341 0.81688 0.71873 0.0
O502 O 0.85683 0.80532 0.6808 0.0
O503 O 0.82605 0.79284 0.72467 0.0
H504 H 0.90632 0.82502 0.76405 0.0
H505 H 0.95961 0.81148 0.7001 0.0
H506 H 0.96539 0.83798 0.76566 0.0
H507 H 0.01749 0.82478 0.70264 0.0
H508 H 0.6701 0.81474 0.74742 0.0
H509 H 0.80598 0.83374 0.74777 0.0
H510 H 0.72794 0.80794 0.72212 0.0
H511 H 0.74678 0.84006 0.77271 0.0
H512 H 0.87558 0.85574 0.71773 0.0
H513 H 0.8893 0.84574 0.64429 0.0
H514 H 0.90476 0.80479 0.81741 0.0
H515 H 0.77163 0.81067 0.82211 0.0
H516 H 0.82889 0.7873 0.66135 0.0
H517 H 0.93013 0.8102 0.66134 0.0
H518 H 0.86682 0.77672 0.63059 0.0
H519 H 0.96653 0.79917 0.63075 0.0
H520 H 0.87539 0.78357 0.75645 0.0
H521 H 0.74694 0.78991 0.73751 0.0
H522 H 0.85055 0.77408 0.79288 0.0
H523 H 0.72425 0.78039 0.77432 0.0
H524 H 0.00343 0.7791 0.74123 0.0
H525 H 0.90923 0.75943 0.70729 0.0
H526 H 0.69247 0.81303 0.64581 0.0
H527 H 0.70097 0.77897 0.6601 0.0
Li528 Li 0.93683 0.8047 0.04137 0.0
Li529 Li 0.86147 0.79926 0.03868 0.0
Li530 Li 0.8926 0.80927 0.00688 0.0
Li531 Li 0.87842 0.81806 0.04355 0.0
C532 C 0.91901 0.78955 0.9984 0.0
N533 N 0.93598 0.77926 0.95577 0.0
C534 C 0.88669 0.78463 0.98561 0.0
C535 C 0.96 0.78925 0.98958 0.0
C536 C 0.89588 0.77945 0.96409 0.0
C537 C 0.96793 0.78401 0.96796 0.0
C538 C 0.87857 0.79975 0.08449 0.0
C539 C 0.82941 0.79544 0.11582 0.0
N540 N 0.85191 0.78644 0.12099 0.0
C541 C 0.90134 0.79049 0.0902 0.0
C542 C 0.84244 0.80229 0.09745 0.0
C543 C 0.8873 0.78386 0.10869 0.0
C544 C 0.00491 0.80908 0.06971 0.0
N545 N 0.98887 0.80127 0.05542 0.0
C546 C 0.04273 0.78901 0.06726 0.0
C547 C 0.007 0.79139 0.05373 0.0
C548 C 0.05921 0.79689 0.08255 0.0
C549 C 0.04039 0.80705 0.08351 0.0
H550 H 0.98927 0.81679 0.07087 0.0
H551 H 0.99289 0.78528 0.04257 0.0
C552 C 0.78529 0.78775 0.03501 0.0
N553 N 0.82609 0.78713 0.04201 0.0
C554 C 0.76357 0.77842 0.02859 0.0
C555 C 0.82572 0.76802 0.0377 0.0
C556 C 0.8461 0.77752 0.04416 0.0
C557 C 0.78457 0.76852 0.029 0.0
H558 H 0.77077 0.79551 0.03236 0.0
H559 H 0.87909 0.77732 0.04866 0.0
C560 C 0.9578 0.82281 0.00758 0.0
N561 N 0.01091 0.83103 0.97305 0.0
C562 C 0.94455 0.83125 0.99288 0.0
C563 C 0.99814 0.81858 0.00474 0.0
C564 C 0.97183 0.83528 0.97551 0.0
C565 C 0.02451 0.82284 0.98718 0.0
C566 C 0.80459 0.81851 0.02414 0.0
C567 C 0.79688 0.82636 0.00679 0.0
C568 C 0.77913 0.818 0.04444 0.0
C569 C 0.76401 0.83363 0.01017 0.0
C570 C 0.74659 0.82542 0.04717 0.0
N571 N 0.73978 0.83303 0.03013 0.0
C572 C 0.84781 0.8085 0.96488 0.0
C573 C 0.92043 0.81075 0.95712 0.0
C574 C 0.83895 0.80827 0.94056 0.0
N575 N 0.88785 0.8099 0.97275 0.0
C576 C 0.91292 0.8106 0.9325 0.0
C577 C 0.87171 0.80938 0.92418 0.0
H578 H 0.82263 0.80734 0.97752 0.0
H579 H 0.95221 0.81131 0.96364 0.0
C580 C 0.86832 0.83338 0.08143 0.0
N581 N 0.8668 0.8317 0.05741 0.0
C582 C 0.86772 0.84388 0.09052 0.0
C583 C 0.86285 0.85057 0.05002 0.0
C584 C 0.8636 0.84002 0.04179 0.0
C585 C 0.86598 0.85257 0.07455 0.0
H586 H 0.87199 0.82663 0.09343 0.0
H587 H 0.86345 0.83849 0.02283 0.0
O588 O 0.91037 0.79479 0.01928 0.0
O589 O 0.8915 0.80626 0.06625 0.0
O590 O 0.93173 0.81883 0.02488 0.0
O591 O 0.83708 0.81142 0.02137 0.0
H592 H 0.85477 0.78497 0.99209 0.0
H593 H 0.98532 0.79311 -0.00079 0.0
H594 H 0.87111 0.77564 0.95394 0.0
H595 H -0.00053 0.78375 0.96084 0.0
H596 H 0.80145 0.7973 0.12597 0.0
H597 H 0.9293 0.78839 0.08032 0.0
H598 H 0.82472 0.80948 0.09345 0.0
H599 H 0.90449 0.77664 0.11322 0.0
H600 H 0.05664 0.78108 0.06635 0.0
H601 H 0.05247 0.81325 0.09525 0.0
H602 H 0.73192 0.77902 0.02167 0.0
H603 H 0.84272 0.76048 0.03796 0.0
H604 H 0.91336 0.83455 0.99457 0.0
H605 H 0.00903 0.81205 0.01587 0.0
H606 H 0.96188 0.84176 0.96392 0.0
H607 H 0.05576 0.81962 0.98477 0.0
H608 H 0.81649 0.82695 0.99107 0.0
H609 H 0.78453 0.81194 0.05795 0.0
H610 H 0.75789 0.83979 0.99697 0.0
H611 H 0.72675 0.82514 0.06284 0.0
H612 H 0.80693 0.80715 0.93455 0.0
H613 H 0.93888 0.8113 0.92011 0.0
H614 H 0.87029 0.84524 0.10958 0.0
H615 H 0.86157 0.85713 0.0373 0.0
Li616 Li 0.8904 0.95018 0.03405 0.0
Li617 Li 0.81808 0.94456 0.03974 0.0
Li618 Li 0.87555 0.9316 0.04072 0.0
Li619 Li 0.85738 0.93937 0.00252 0.0
C620 C 0.87898 0.95035 0.08036 0.0
N621 N 0.90832 0.96421 0.1151 0.0
C622 C 0.85469 0.95914 0.08749 0.0
C623 C 0.91797 0.94854 0.09103 0.0
C624 C 0.87014 0.96607 0.10505 0.0
C625 C 0.93231 0.95566 0.10853 0.0
C626 C 0.81123 0.95839 -0.00029 0.0
C627 C 0.74698 0.95689 0.9772 0.0
N628 N 0.752 0.96718 0.96944 0.0
C629 C 0.81587 0.96892 0.99145 0.0
C630 C 0.77662 0.95229 0.99249 0.0
C631 C 0.78552 0.97323 0.97619 0.0
C632 C 0.96423 0.96188 0.02572 0.0
N633 N 0.92534 0.96241 0.03563 0.0
C634 C 0.92546 0.98158 0.03323 0.0
C635 C 0.90618 0.97198 0.04001 0.0
C636 C 0.96426 0.9812 0.02151 0.0
C637 C 0.98452 0.97129 0.01852 0.0
H638 H 0.97789 0.95416 0.02151 0.0
H639 H 0.87439 0.97212 0.04674 0.0
C640 C 0.75763 0.9409 0.07298 0.0
N641 N 0.76686 0.94784 0.05499 0.0
C642 C 0.72291 0.94268 0.08752 0.0
C643 C 0.70757 0.95875 0.06472 0.0
C644 C 0.74293 0.95669 0.05064 0.0
C645 C 0.69772 0.95171 0.08347 0.0
H646 H 0.77799 0.9341 0.07634 0.0
H647 H 0.75171 0.96228 0.03673 0.0
C648 C 0.9481 0.93137 0.01537 0.0
N649 N 0.01765 0.91815 0.01332 0.0
C650 C 0.95515 0.92495 0.99525 0.0
C651 C 0.97662 0.93115 0.03432 0.0
C652 C 0.99046 0.9183 0.99459 0.0
C653 C 0.01153 0.92439 0.03299 0.0
C654 C 0.8111 0.91993 0.0197 0.0
C655 C 0.8325 0.9138 0.00269 0.0
C656 C 0.7793 0.9152 0.03329 0.0
C657 C 0.822 0.90298 -0.00028 0.0
C658 C 0.7695 0.90437 0.02965 0.0
N659 N 0.79096 0.89852 0.01314 0.0
C660 C 0.87541 0.91677 0.07871 0.0
C661 C 0.90329 0.90987 0.04254 0.0
C662 C 0.87429 0.90644 0.08863 0.0
N663 N 0.88875 0.91824 0.05583 0.0
C664 C 0.9023 0.89945 0.05161 0.0
C665 C 0.88624 0.89763 0.07454 0.0
H666 H 0.86318 0.92352 0.08871 0.0
H667 H 0.9126 0.91112 0.02424 0.0
C668 C 0.89054 0.94314 0.95862 0.0
N669 N 0.85759 0.93801 0.96899 0.0
C670 C 0.89711 0.94236 0.93411 0.0
C671 C 0.83485 0.93127 0.9312 0.0
C672 C 0.82941 0.93228 0.9559 0.0
C673 C 0.86932 0.93628 0.92026 0.0
H674 H 0.9122 0.94767 0.96958 0.0
H675 H 0.80326 0.92839 0.96465 0.0
O676 O 0.86462 0.94351 0.06306 0.0
O677 O 0.84109 0.95402 0.01432 0.0
O678 O 0.91377 0.93794 0.01632 0.0
O679 O 0.82074 0.93056 0.0228 0.0
H680 H 0.82444 0.96065 0.07941 0.0
H681 H 0.93688 0.94169 0.08591 0.0
H682 H 0.8518 0.97294 0.11066 0.0
H683 H 0.9625 0.95439 0.1169 0.0
H684 H 0.72001 0.95228 0.97149 0.0
H685 H 0.84268 0.97371 0.99675 0.0
H686 H 0.77262 0.9441 0.99862 0.0
H687 H 0.78866 0.98138 0.96967 0.0
H688 H 0.90896 0.98913 0.03544 0.0
H689 H 0.01432 0.9708 0.00928 0.0
H690 H 0.716 0.93715 0.10195 0.0
H691 H 0.68862 0.96582 0.06137 0.0
H692 H 0.9334 0.92502 0.98041 0.0
H693 H 0.97179 0.93615 0.04988 0.0
H694 H 0.9962 0.91324 0.9792 0.0
H695 H 0.03378 0.9241 0.04757 0.0
H696 H 0.85744 0.91732 0.99217 0.0
H697 H 0.7622 0.91984 0.04641 0.0
H698 H 0.83858 0.89811 0.98677 0.0
H699 H 0.74489 0.9006 0.04001 0.0
H700 H 0.8618 0.90526 0.10643 0.0
H701 H 0.91171 0.89279 0.04033 0.0
H702 H 0.92383 0.94634 0.92606 0.0
H703 H 0.81282 0.92658 0.92079 0.0
Li704 Li 0.06266 0.55269 0.79333 0.0
Li705 Li 0.12032 0.56617 0.79121 0.0
Li706 Li 0.09494 0.55759 0.75548 0.0
Li707 Li 0.13533 0.54714 0.7833 0.0
C708 C 0.03608 0.5726 0.76361 0.0
N709 N 0.98203 0.58403 0.73449 0.0
C710 C 0.04789 0.58264 0.75462 0.0
C711 C 0.99645 0.56847 0.75813 0.0
C712 C 0.02024 0.58827 0.73983 0.0
C713 C 0.96966 0.57435 0.7433 0.0
C714 C 0.1464 0.5538 0.8303 0.0
C715 C 0.21866 0.55711 0.84079 0.0
N716 N 0.21029 0.5541 0.86366 0.0
C717 C 0.1385 0.55074 0.8539 0.0
C718 C 0.18679 0.55702 0.82365 0.0
C719 C 0.17122 0.55095 0.87051 0.0
C720 C 0.00494 0.53875 0.81642 0.0
N721 N 0.01457 0.54914 0.81111 0.0
C722 C 0.95944 0.55559 0.83606 0.0
C723 C 0.99251 0.5575 0.82037 0.0
C724 C 0.94935 0.54498 0.84226 0.0
C725 C 0.97188 0.53646 0.83202 0.0
H726 H 0.02361 0.53229 0.80903 0.0
H727 H 0.00147 0.56566 0.81607 0.0
C728 C 0.15043 0.58694 0.78692 0.0
N729 N 0.13645 0.57972 0.80331 0.0
C730 C 0.15168 0.59786 0.79251 0.0
C731 C 0.12789 0.59359 0.83247 0.0
C732 C 0.12622 0.58274 0.82593 0.0
C733 C 0.13892 0.6013 0.81524 0.0
H734 H 0.15752 0.58429 0.76896 0.0
H735 H 0.1143 0.57684 0.8384 0.0
C736 C 0.05947 0.53615 0.7538 0.0
N737 N 0.01381 0.52217 0.72548 0.0
C738 C 0.0799 0.52814 0.74061 0.0
C739 C 0.01576 0.53692 0.7528 0.0
C740 C 0.05628 0.52119 0.72634 0.0
C741 C 0.99325 0.52982 0.73833 0.0
C742 C 0.18262 0.55742 0.74785 0.0
C743 C 0.17589 0.54849 0.73318 0.0
C744 C 0.21906 0.56353 0.74506 0.0
C745 C 0.2061 0.5457 0.71621 0.0
C746 C 0.24843 0.56053 0.72776 0.0
N747 N 0.24147 0.55174 0.71387 0.0
C748 C 0.10897 0.56981 0.71517 0.0
C749 C 0.07539 0.55333 0.70578 0.0
C750 C 0.11685 0.57179 0.69107 0.0
N751 N 0.08955 0.56058 0.7221 0.0
C752 C 0.08343 0.55487 0.68151 0.0
C753 C 0.10567 0.56402 0.67412 0.0
H754 H 0.12094 0.5753 0.72852 0.0
H755 H 0.0602 0.54604 0.71149 0.0
C756 C 0.15187 0.52549 0.78655 0.0
N757 N 0.17199 0.53509 0.78469 0.0
C758 C 0.17209 0.51603 0.77981 0.0
C759 C 0.23484 0.52638 0.77185 0.0
C760 C 0.21333 0.53568 0.77876 0.0
C761 C 0.21338 0.51654 0.77137 0.0
H762 H 0.11896 0.5253 0.79125 0.0
H763 H 0.22864 0.54341 0.77749 0.0
O764 O 0.06285 0.56693 0.77801 0.0
O765 O 0.11457 0.55365 0.81392 0.0
O766 O 0.08204 0.54299 0.76805 0.0
O767 O 0.15419 0.5601 0.76518 0.0
H768 H 0.07817 0.58604 0.75887 0.0
H769 H 0.98631 0.56087 0.76541 0.0
H770 H 0.02915 0.59601 0.73261 0.0
H771 H 0.93896 0.57122 0.73885 0.0
H772 H 0.25005 0.55958 0.8359 0.0
H773 H 0.10737 0.54825 0.85931 0.0
H774 H 0.19355 0.55944 0.80551 0.0
H775 H 0.16556 0.5486 0.88884 0.0
H776 H 0.9425 0.56231 0.84375 0.0
H777 H 0.96463 0.5282 0.83655 0.0
H778 H 0.16046 0.60362 0.77886 0.0
H779 H 0.11806 0.59602 0.85019 0.0
H780 H 0.11362 0.5273 0.74125 0.0
H781 H -0.00069 0.54288 0.7632 0.0
H782 H 0.07173 0.51501 0.71597 0.0
H783 H 0.95942 0.53036 0.73736 0.0
H784 H 0.14786 0.54371 0.73506 0.0
H785 H 0.2247 0.57048 0.75628 0.0
H786 H 0.20138 0.53877 0.70485 0.0
H787 H 0.27686 0.56517 0.72545 0.0
H788 H 0.13405 0.57893 0.68586 0.0
H789 H 0.07424 0.54876 0.66875 0.0
H790 H 0.15488 0.50852 0.77964 0.0
H791 H 0.26683 0.52697 0.76545 0.0
Li792 Li 0.18953 0.69641 0.79758 0.0
Li793 Li 0.13332 0.68269 0.79632 0.0
Li794 Li 0.15662 0.69084 0.76047 0.0
Li795 Li 0.11469 0.70147 0.7872 0.0
C796 C 0.21132 0.67566 0.76686 0.0
N797 N 0.25167 0.66308 0.73324 0.0
C798 C 0.19712 0.66524 0.7621 0.0
C799 C 0.2463 0.67964 0.75466 0.0
C800 C 0.2179 0.65901 0.74503 0.0
C801 C 0.26617 0.67317 0.73767 0.0
C802 C 0.11527 0.69306 0.83763 0.0
C803 C 0.0497 0.68892 0.85699 0.0
N804 N 0.07057 0.68733 0.8779 0.0
C805 C 0.13611 0.69141 0.85929 0.0
C806 C 0.07176 0.69183 0.83641 0.0
C807 C 0.11293 0.68851 0.87946 0.0
C808 C 0.23224 0.70922 0.8306 0.0
N809 N 0.23654 0.70073 0.81548 0.0
C810 C 0.30449 0.6968 0.831 0.0
C811 C 0.27183 0.6946 0.81516 0.0
C812 C 0.30025 0.70527 0.84733 0.0
C813 C 0.26407 0.71166 0.84686 0.0
H814 H 0.20337 0.7138 0.83065 0.0
H815 H 0.27389 0.68778 0.80327 0.0
C816 C 0.09491 0.66253 0.79606 0.0
N817 N 0.11874 0.66922 0.80964 0.0
C818 C 0.09456 0.65151 0.80073 0.0
C819 C 0.14013 0.65463 0.83462 0.0
C820 C 0.1403 0.66558 0.829 0.0
C821 C 0.11875 0.64743 0.81962 0.0
H822 H 0.07939 0.6656 0.7803 0.0
H823 H 0.16026 0.67101 0.8389 0.0
C824 C 0.19168 0.71201 0.75681 0.0
N825 N 0.23903 0.72497 0.72707 0.0
C826 C 0.17202 0.71939 0.7416 0.0
C827 C 0.23547 0.71137 0.75716 0.0
C828 C 0.1965 0.72582 0.72662 0.0
C829 C 0.25884 0.71795 0.74192 0.0
C830 C 0.06799 0.69061 0.75344 0.0
C831 C 0.07449 0.69921 0.73782 0.0
C832 C 0.03073 0.68471 0.75206 0.0
C833 C 0.04335 0.70189 0.7213 0.0
C834 C 0.0005 0.68757 0.73512 0.0
N835 N 0.00734 0.69604 0.72026 0.0
C836 C 0.13825 0.67916 0.7199 0.0
C837 C 0.18403 0.69368 0.71118 0.0
C838 C 0.13143 0.67733 0.69565 0.0
N839 N 0.16259 0.68754 0.72718 0.0
C840 C 0.17834 0.69208 0.68669 0.0
C841 C 0.15047 0.6841 0.67891 0.0
H842 H 0.12193 0.67432 0.733 0.0
H843 H 0.20389 0.70013 0.7172 0.0
C844 C 0.09669 0.72307 0.78706 0.0
N845 N 0.07715 0.71335 0.78744 0.0
C846 C 0.07517 0.7322 0.77943 0.0
C847 C 0.01265 0.72135 0.77492 0.0
C848 C 0.03544 0.71239 0.78269 0.0
C849 C 0.03322 0.73125 0.77235 0.0
H850 H 0.12991 0.72357 0.79083 0.0
H851 H 0.02067 0.70457 0.78308 0.0
O852 O 0.19083 0.68196 0.78317 0.0
O853 O 0.13746 0.69574 0.81763 0.0
O854 O 0.1683 0.7057 0.77179 0.0
O855 O 0.0973 0.68808 0.77043 0.0
H856 H 0.17028 0.66199 0.77138 0.0
H857 H 0.25778 0.68766 0.75809 0.0
H858 H 0.20713 0.65095 0.74113 0.0
H859 H 0.2931 0.67618 0.72799 0.0
H860 H 0.01601 0.68791 0.85633 0.0
H861 H 0.16985 0.69232 0.86044 0.0
H862 H 0.05528 0.69304 0.81971 0.0
H863 H 0.1286 0.68717 0.89635 0.0
H864 H 0.33203 0.69169 0.83121 0.0
H865 H 0.25996 0.71819 0.85947 0.0
H866 H 0.07786 0.64614 0.78881 0.0
H867 H 0.15913 0.6517 0.84929 0.0
H868 H 0.13824 0.72018 0.74133 0.0
H869 H 0.25131 0.70588 0.76907 0.0
H870 H 0.18167 0.73151 0.71469 0.0
H871 H 0.29273 0.7175 0.74193 0.0
H872 H 0.10309 0.70383 0.73862 0.0
H873 H 0.02505 0.67805 0.76409 0.0
H874 H 0.04783 0.70861 0.70929 0.0
H875 H 0.9715 0.68308 0.73389 0.0
H876 H 0.10976 0.67111 0.69007 0.0
H877 H 0.19349 0.6974 0.67403 0.0
H878 H 0.09171 0.73977 0.77767 0.0
H879 H 0.98017 0.72043 0.76959 0.0
Li880 Li 0.12599 0.69971 0.46689 0.0
Li881 Li 0.08713 0.68919 0.49796 0.0
Li882 Li 0.10668 0.68096 0.46107 0.0
Li883 Li 0.05215 0.69382 0.46002 0.0
C884 C 0.17468 0.67948 0.48619 0.0
N885 N 0.23355 0.66319 0.48557 0.0
C886 C 0.17353 0.67139 0.50351 0.0
C887 C 0.20591 0.67935 0.46867 0.0
C888 C 0.20356 0.66321 0.50287 0.0
C889 C 0.23536 0.67102 0.46863 0.0
C890 C 0.0585 0.71186 0.49756 0.0
C891 C 0.00029 0.72255 0.51159 0.0
N892 N 0.02741 0.72882 0.52413 0.0
C893 C 0.08581 0.71851 0.51033 0.0
C894 C 0.0154 0.71397 0.49797 0.0
C895 C 0.06948 0.727 0.52378 0.0
C896 C 0.14666 0.72126 0.45874 0.0
N897 N 0.16266 0.71165 0.46594 0.0
C898 C 0.22169 0.72034 0.48382 0.0
C899 C 0.19981 0.71099 0.47781 0.0
C900 C 0.20467 0.73037 0.47778 0.0
C901 C 0.16739 0.73081 0.46453 0.0
H902 H 0.11628 0.72154 0.45014 0.0
H903 H 0.21093 0.70327 0.48407 0.0
C904 C 0.06998 0.67903 0.54307 0.0
N905 N 0.08691 0.68763 0.53152 0.0
C906 C 0.07699 0.67763 0.56755 0.0
C907 C 0.11874 0.6939 0.5675 0.0
C908 C 0.11113 0.69494 0.54314 0.0
C909 C 0.10191 0.68511 0.5798 0.0
H910 H 0.05249 0.67306 0.5332 0.0
H911 H 0.12608 0.70132 0.53324 0.0
C912 C 0.08739 0.68942 0.41591 0.0
N913 N 0.05685 0.68266 0.3722 0.0
C914 C 0.05963 0.68072 0.41463 0.0
C915 C 0.09953 0.69468 0.39496 0.0
C916 C 0.04458 0.67743 0.39236 0.0
C917 C 0.08378 0.69113 0.37303 0.0
C918 C 0.01386 0.67745 0.48728 0.0
C919 C 0.9942 0.6677 0.48182 0.0
C920 C 0.99423 0.68471 0.50269 0.0
C921 C 0.95492 0.66544 0.4917 0.0
C922 C 0.95499 0.68215 0.51224 0.0
N923 N 0.93628 0.67266 0.50657 0.0
C924 C 0.10893 0.65909 0.46423 0.0
C925 C 0.14175 0.66496 0.42845 0.0
C926 C 0.11485 0.64839 0.45793 0.0
N927 N 0.12208 0.6671 0.44952 0.0
C928 C 0.14822 0.65428 0.42135 0.0
C929 C 0.13428 0.64591 0.43622 0.0
H930 H 0.0935 0.66105 0.48087 0.0
H931 H 0.1518 0.6715 0.41707 0.0
C932 C 0.00283 0.70814 0.43376 0.0
N933 N 0.00285 0.69814 0.44365 0.0
C934 C 0.97123 0.71111 0.41778 0.0
C935 C 0.93972 0.69357 0.42311 0.0
C936 C 0.97191 0.69092 0.43888 0.0
C937 C 0.93983 0.70366 0.41205 0.0
H938 H 0.02845 0.7136 0.43747 0.0
H939 H 0.97337 0.68291 0.44617 0.0
O940 O 0.14472 0.68734 0.486 0.0
O941 O 0.07396 0.70357 0.48407 0.0
O942 O 0.1017 0.69302 0.43754 0.0
O943 O 0.05216 0.67976 0.47752 0.0
H944 H 0.14943 0.67137 0.51713 0.0
H945 H 0.207 0.68554 0.45506 0.0
H946 H 0.20292 0.65686 0.51606 0.0
H947 H 0.25954 0.67077 0.45508 0.0
H948 H 0.967 0.72423 0.51214 0.0
H949 H 0.11927 0.71711 0.50988 0.0
H950 H 0.99377 0.70904 0.48785 0.0
H951 H 0.09023 0.73216 0.53391 0.0
H952 H 0.25025 0.71979 0.49425 0.0
H953 H 0.15343 0.73847 0.45984 0.0
H954 H 0.06402 0.67072 0.57669 0.0
H955 H 0.13852 0.6997 0.57653 0.0
H956 H 0.04956 0.6766 0.43063 0.0
H957 H 0.12075 0.70147 0.39567 0.0
H958 H 0.02304 0.67072 0.39113 0.0
H959 H 0.09286 0.69515 0.35668 0.0
H960 H 0.00903 0.66199 0.46991 0.0
H961 H 0.0094 0.69214 0.50754 0.0
H962 H 0.93926 0.65795 0.48754 0.0
H963 H 0.93949 0.6877 0.52423 0.0
H964 H 0.10406 0.64208 0.46979 0.0
H965 H 0.16357 0.65255 0.40453 0.0
H966 H 0.97213 0.71893 0.40928 0.0
H967 H 0.91603 0.68764 0.41874 0.0
Li968 Li 0.17445 0.55795 0.49519 0.0
Li969 Li 0.13237 0.54692 0.46889 0.0
Li970 Li 0.20482 0.55135 0.45848 0.0
Li971 Li 0.15048 0.56503 0.45672 0.0
C972 C 0.21074 0.53436 0.48602 0.0
N973 N 0.26519 0.51709 0.48431 0.0
C974 C 0.19859 0.5248 0.47482 0.0
C975 C 0.25046 0.53512 0.49646 0.0
C976 C 0.2266 0.51617 0.47414 0.0
C977 C 0.27758 0.52631 0.49536 0.0
C978 C 0.07686 0.55864 0.49187 0.0
C979 C 0.00278 0.55692 0.48401 0.0
N980 N 0.99675 0.55346 0.50681 0.0
C981 C 0.06992 0.55513 0.51527 0.0
C982 C 0.04303 0.55961 0.47614 0.0
C983 C 0.0292 0.55253 0.52247 0.0
C984 C 0.16358 0.57083 0.53561 0.0
N985 N 0.17894 0.56122 0.52799 0.0
C986 C 0.17996 0.55443 0.56783 0.0
C987 C 0.18807 0.55315 0.5435 0.0
C988 C 0.16229 0.56408 0.57599 0.0
C989 C 0.15549 0.5725 0.55982 0.0
H990 H 0.15477 0.57691 0.52273 0.0
H991 H 0.1988 0.54547 0.5368 0.0
C992 C 0.06707 0.53192 0.45417 0.0
N993 N 0.09264 0.53564 0.47178 0.0
C994 C 0.0405 0.52316 0.45865 0.0
C995 C 0.06714 0.52243 0.49912 0.0
C996 C 0.09306 0.53111 0.49389 0.0
C997 C 0.04077 0.51835 0.48135 0.0
H998 H 0.06763 0.53564 0.43671 0.0
H999 H 0.11397 0.53422 0.50745 0.0
C1000 C 0.22822 0.57302 0.48559 0.0
N1001 N 0.2692 0.58699 0.51608 0.0
C1002 C 0.21401 0.58359 0.48821 0.0
C1003 C 0.26331 0.56956 0.49843 0.0
C1004 C 0.23517 0.59053 0.5037 0.0
C1005 C 0.28357 0.57673 0.51379 0.0
C1006 C 0.14486 0.55508 0.4152 0.0
C1007 C 0.17691 0.55702 0.3987 0.0
C1008 C 0.10318 0.55705 0.40882 0.0
C1009 C 0.1667 0.56103 0.37611 0.0
C1010 C 0.09426 0.56107 0.38606 0.0
N1011 N 0.12594 0.56296 0.37033 0.0
C1012 C 0.25225 0.53765 0.42848 0.0
C1013 C 0.2862 0.55373 0.4407 0.0
C1014 C 0.28471 0.53539 0.41248 0.0
N1015 N 0.2534 0.54677 0.44191 0.0
C1016 C 0.31903 0.55184 0.42481 0.0
C1017 C 0.3178 0.54274 0.41007 0.0
H1018 H 0.22505 0.53247 0.4292 0.0
H1019 H 0.28573 0.56106 0.45106 0.0
C1020 C 0.10652 0.58458 0.45076 0.0
N1021 N 0.13749 0.57829 0.44163 0.0
C1022 C 0.10508 0.59553 0.44514 0.0
C1023 C 0.16562 0.59311 0.41962 0.0
C1024 C 0.16621 0.58225 0.42594 0.0
C1025 C 0.13588 0.59993 0.43014 0.0
H1026 H 0.08509 0.58132 0.46386 0.0
H1027 H 0.19166 0.5772 0.41988 0.0
O1028 O 0.18401 0.54295 0.48665 0.0
O1029 O 0.11664 0.56096 0.48428 0.0
O1030 O 0.20764 0.56607 0.4707 0.0
O1031 O 0.15419 0.55123 0.43746 0.0
H1032 H 0.16808 0.5241 0.4665 0.0
H1033 H 0.26026 0.54245 0.50525 0.0
H1034 H 0.2177 0.50874 0.46544 0.0
H1035 H 0.30848 0.52679 0.50329 0.0
H1036 H 0.97632 0.55758 0.47199 0.0
H1037 H 0.09574 0.55426 0.52765 0.0
H1038 H 0.04786 0.56236 0.45801 0.0
H1039 H 0.02342 0.54973 0.54048 0.0
H1040 H 0.18531 0.54778 0.57997 0.0
H1041 H 0.14161 0.58001 0.56566 0.0
H1042 H 0.02033 0.52012 0.44462 0.0
H1043 H 0.06795 0.51886 0.51677 0.0
H1044 H 0.18662 0.58636 0.47865 0.0
H1045 H 0.27465 0.5614 0.49663 0.0
H1046 H 0.22442 0.59872 0.50596 0.0
H1047 H 0.31069 0.57415 0.52389 0.0
H1048 H 0.20935 0.55556 0.40333 0.0
H1049 H 0.07802 0.55551 0.42132 0.0
H1050 H 0.1912 0.56262 0.36321 0.0
H1051 H 0.06216 0.56267 0.38091 0.0
H1052 H 0.28293 0.52833 0.40119 0.0
H1053 H 0.34416 0.55767 0.42322 0.0
H1054 H 0.08194 0.60064 0.45364 0.0
H1055 H 0.19 0.59632 0.40818 0.0
Li1056 Li 0.89975 0.43921 0.24752 0.0
Li1057 Li 0.87407 0.4315 0.21031 0.0
Li1058 Li 0.92976 0.44531 0.20909 0.0
Li1059 Li 0.85751 0.45026 0.21879 0.0
C1060 C 0.96791 0.427 0.23389 0.0
N1061 N 0.04142 0.41951 0.25409 0.0
C1062 C 0.97367 0.41599 0.2376 0.0
C1063 C -0.00039 0.4342 0.24033 0.0
C1064 C 0.01102 0.41236 0.24789 0.0
C1065 C 0.03654 0.43026 0.25053 0.0
C1066 C 0.80488 0.4315 0.23782 0.0
C1067 C 0.7364 0.42732 0.22208 0.0
N1068 N 0.73205 0.41948 0.23886 0.0
C1069 C 0.79964 0.42347 0.25504 0.0
C1070 C 0.77296 0.43351 0.22131 0.0
C1071 C 0.76262 0.41746 0.25522 0.0
C1072 C 0.89563 0.44494 0.29506 0.0
N1073 N 0.90465 0.43654 0.28042 0.0
C1074 C 0.90145 0.4242 0.31305 0.0
C1075 C 0.90825 0.42633 0.28884 0.0
C1076 C 0.89053 0.4327 0.3283 0.0
C1077 C 0.88871 0.4432 0.31932 0.0
H1078 H 0.89137 0.4529 0.28764 0.0
H1079 H 0.91376 0.41976 0.27657 0.0
C1080 C 0.85301 0.41584 0.17443 0.0
N1081 N 0.85896 0.41792 0.19807 0.0
C1082 C 0.85032 0.40519 0.16644 0.0
C1083 C 0.85883 0.39921 0.20732 0.0
C1084 C 0.86139 0.40989 0.21447 0.0
C1085 C 0.85424 0.39679 0.18304 0.0
H1086 H 0.85233 0.4224 0.16175 0.0
H1087 H 0.86748 0.41181 0.23299 0.0
C1088 C 0.93259 0.46286 0.24251 0.0
N1089 N 0.97808 0.4808 0.25584 0.0
C1090 C 0.92426 0.47283 0.23199 0.0
C1091 C 0.9638 0.46203 0.25997 0.0
C1092 C 0.94764 0.4818 0.23895 0.0
C1093 C 0.98657 0.47119 0.26639 0.0
C1094 C 0.86309 0.44994 0.17006 0.0
C1095 C 0.8865 0.45836 0.16025 0.0
C1096 C 0.82343 0.44756 0.16083 0.0
C1097 C 0.86951 0.46437 0.1415 0.0
C1098 C 0.8075 0.45378 0.14212 0.0
N1099 N 0.83067 0.46198 0.13293 0.0
C1100 C 0.99249 0.44075 0.17755 0.0
C1101 C 0.99855 0.45862 0.19204 0.0
C1102 C 0.02697 0.44221 0.16264 0.0
N1103 N 0.97897 0.44889 0.19179 0.0
C1104 C 0.03325 0.46044 0.1773 0.0
C1105 C 0.04741 0.45216 0.16235 0.0
H1106 H 0.97603 0.43314 0.17765 0.0
H1107 H 0.98707 0.46501 0.20328 0.0
C1108 C 0.79707 0.46171 0.24203 0.0
N1109 N 0.81817 0.4617 0.22091 0.0
C1110 C 0.7757 0.47087 0.24957 0.0
C1111 C 0.79628 0.47972 0.21292 0.0
C1112 C 0.81728 0.47035 0.20603 0.0
C1113 C 0.77644 0.48009 0.23526 0.0
H1114 H 0.79932 0.45484 0.25383 0.0
H1115 H 0.83542 0.47033 0.18977 0.0
O1116 O 0.93143 0.43067 0.22391 0.0
O1117 O 0.84102 0.43741 0.23721 0.0
O1118 O 0.90941 0.45403 0.23632 0.0
O1119 O 0.87937 0.44387 0.18819 0.0
H1120 H 0.9495 0.4103 0.23264 0.0
H1121 H 0.99586 0.44273 0.2374 0.0
H1122 H 0.01585 0.40386 0.25093 0.0
H1123 H 0.06134 0.43575 0.25559 0.0
H1124 H 0.71147 0.42876 0.20936 0.0
H1125 H 0.82399 0.42187 0.26804 0.0
H1126 H 0.7764 0.4398 0.20809 0.0
H1127 H 0.7582 0.41118 0.26836 0.0
H1128 H 0.90269 0.41601 0.31959 0.0
H1129 H 0.88001 0.44987 0.33074 0.0
H1130 H 0.84688 0.4035 0.14755 0.0
H1131 H 0.86212 0.39287 0.22048 0.0
H1132 H 0.90038 0.47361 0.21842 0.0
H1133 H 0.97022 0.45442 0.2686 0.0
H1134 H 0.94164 0.48956 0.23089 0.0
H1135 H 0.01087 0.47066 0.27984 0.0
H1136 H 0.91729 0.46029 0.16712 0.0
H1137 H 0.80523 0.44096 0.16798 0.0
H1138 H 0.88717 0.47094 0.1338 0.0
H1139 H 0.77677 0.45205 0.13485 0.0
H1140 H 0.0374 0.43568 0.15127 0.0
H1141 H 0.04863 0.46821 0.17739 0.0
H1142 H 0.76083 0.47098 0.26698 0.0
H1143 H 0.79762 0.4868 0.20165 0.0
Li1144 Li 0.85977 0.3169 0.20647 0.0
Li1145 Li 0.83042 0.31027 0.2446 0.0
Li1146 Li 0.87077 0.29869 0.22095 0.0
Li1147 Li 0.80179 0.30305 0.20769 0.0
C1148 C 0.92689 0.31011 0.24605 0.0
N1149 N 0.00275 0.30491 0.26707 0.0
C1150 C 0.92826 0.30658 0.26976 0.0
C1151 C 0.96424 0.31116 0.23317 0.0
C1152 C 0.96687 0.30395 0.28003 0.0
C1153 C 0.00224 0.30844 0.24406 0.0
C1154 C 0.77307 0.32435 0.23051 0.0
C1155 C 0.70894 0.32624 0.25292 0.0
N1156 N 0.71664 0.33695 0.25534 0.0
C1157 C 0.78038 0.33537 0.23317 0.0
C1158 C 0.73709 0.31973 0.24039 0.0
C1159 C 0.75145 0.3416 0.24579 0.0
C1160 C 0.85542 0.33263 0.17074 0.0
N1161 N 0.87461 0.32991 0.19159 0.0
C1162 C 0.8949 0.34809 0.19849 0.0
C1163 C 0.89529 0.33728 0.20508 0.0
C1164 C 0.87279 0.35124 0.178 0.0
C1165 C 0.85445 0.34337 0.1634 0.0
H1166 H 0.83808 0.32661 0.16087 0.0
H1167 H 0.909 0.33489 0.22196 0.0
C1168 C 0.81169 0.30717 0.29301 0.0
N1169 N 0.82194 0.3147 0.27642 0.0
C1170 C 0.81798 0.30929 0.31722 0.0
C1171 C 0.84228 0.32713 0.3068 0.0
C1172 C 0.83596 0.32463 0.28276 0.0
C1173 C 0.83493 0.31922 0.32414 0.0
H1174 H 0.80191 0.29925 0.28735 0.0
H1175 H 0.84528 0.33029 0.26908 0.0
C1176 C 0.88273 0.30049 0.17097 0.0
N1177 N 0.94036 0.2949 0.13625 0.0
C1178 C 0.87441 0.29194 0.15544 0.0
C1179 C 0.91994 0.30632 0.16853 0.0
C1180 C 0.90406 0.2892 0.13809 0.0
C1181 C 0.9488 0.30333 0.15095 0.0
C1182 C 0.80595 0.28459 0.23365 0.0
C1183 C 0.81559 0.27951 0.21206 0.0
C1184 C 0.78599 0.27876 0.25174 0.0
C1185 C 0.80517 0.26869 0.20892 0.0
C1186 C 0.77602 0.26796 0.24792 0.0
N1187 N 0.78576 0.26318 0.22677 0.0
C1188 C 0.9054 0.28303 0.24841 0.0
C1189 C 0.93498 0.28244 0.20954 0.0
C1190 C 0.92812 0.27401 0.25532 0.0
N1191 N 0.90885 0.28702 0.22586 0.0
C1192 C 0.95824 0.27329 0.21568 0.0
C1193 C 0.95441 0.26898 0.23877 0.0
H1194 H 0.88421 0.28677 0.26099 0.0
H1195 H 0.93731 0.28569 0.19173 0.0
C1196 C 0.75416 0.30286 0.16717 0.0
N1197 N 0.75403 0.29907 0.18993 0.0
C1198 C 0.72017 0.30094 0.15216 0.0
C1199 C 0.68678 0.291 0.18414 0.0
C1200 C 0.72145 0.2932 0.19867 0.0
C1201 C 0.68591 0.29504 0.16073 0.0
H1202 H 0.78053 0.30754 0.16084 0.0
H1203 H 0.72211 0.29036 0.21693 0.0
O1204 O 0.88927 0.3126 0.23559 0.0
O1205 O 0.80118 0.3181 0.21841 0.0
O1206 O 0.85394 0.30333 0.18796 0.0
O1207 O 0.81652 0.29514 0.23738 0.0
H1208 H 0.8998 0.30571 0.28006 0.0
H1209 H 0.964 0.31406 0.21498 0.0
H1210 H 0.96828 0.30113 0.2983 0.0
H1211 H 0.03133 0.30916 0.23424 0.0
H1212 H 0.681 0.32278 0.26075 0.0
H1213 H 0.8082 0.33904 0.22567 0.0
H1214 H 0.73115 0.3112 0.23852 0.0
H1215 H 0.7567 0.35014 0.24803 0.0
H1216 H 0.90911 0.35403 0.21013 0.0
H1217 H 0.83699 0.34562 0.14756 0.0
H1218 H 0.81221 0.30303 0.33028 0.0
H1219 H 0.85557 0.33484 0.31169 0.0
H1220 H 0.84533 0.28748 0.1567 0.0
H1221 H 0.92635 0.31311 0.17997 0.0
H1222 H 0.89816 0.28257 0.12604 0.0
H1223 H 0.97783 0.30775 0.14895 0.0
H1224 H 0.83119 0.28383 0.19795 0.0
H1225 H 0.7783 0.28254 0.26859 0.0
H1226 H 0.81259 0.26467 0.19231 0.0
H1227 H 0.76059 0.26336 0.26178 0.0
H1228 H 0.92455 0.27085 0.27324 0.0
H1229 H 0.97839 0.26952 0.20255 0.0
H1230 H 0.72024 0.30417 0.13418 0.0
H1231 H 0.66059 0.28644 0.19117 0.0
Li1232 Li 0.93718 0.30766 0.54121 0.0
Li1233 Li 0.86702 0.30267 0.53098 0.0
Li1234 Li 0.90333 0.31357 0.50363 0.0
Li1235 Li 0.87847 0.32132 0.54147 0.0
C1236 C 0.95367 0.29481 0.5022 0.0
N1237 N 0.02342 0.28697 0.47858 0.0
C1238 C 0.9546 0.28415 0.49428 0.0
C1239 C 0.98818 0.30147 0.49804 0.0
C1240 C 0.99015 0.28033 0.48238 0.0
C1241 C 0.02316 0.29737 0.4861 0.0
C1242 C 0.86414 0.30194 0.57652 0.0
C1243 C 0.79893 0.29747 0.59593 0.0
N1244 N 0.81629 0.28814 0.6039 0.0
C1245 C 0.88143 0.29234 0.58496 0.0
C1246 C 0.82265 0.30457 0.58207 0.0
C1247 C 0.85668 0.28545 0.59876 0.0
C1248 C 0.00191 0.3126 0.57153 0.0
N1249 N 0.98628 0.30436 0.55834 0.0
C1250 C 0.03666 0.2922 0.57474 0.0
C1251 C 0.00277 0.29428 0.55955 0.0
C1252 C 0.05297 0.30059 0.58869 0.0
C1253 C 0.03567 0.3109 0.58684 0.0
H1254 H 0.98742 0.32046 0.57052 0.0
H1255 H 0.98897 0.28783 0.54922 0.0
C1256 C 0.78868 0.29094 0.5283 0.0
N1257 N 0.83093 0.2904 0.53163 0.0
C1258 C 0.76627 0.28167 0.52213 0.0
C1259 C 0.83064 0.27144 0.52501 0.0
C1260 C 0.85173 0.28086 0.53106 0.0
C1261 C 0.78781 0.2719 0.51964 0.0
H1262 H 0.77294 0.29864 0.52879 0.0
H1263 H 0.88526 0.28069 0.53392 0.0
C1264 C 0.95717 0.33103 0.51945 0.0
N1265 N 0.00146 0.34904 0.50507 0.0
C1266 C 0.93592 0.34021 0.51167 0.0
C1267 C 0.00105 0.33107 0.52019 0.0
C1268 C 0.95882 0.34921 0.50435 0.0
C1269 C 0.02285 0.34023 0.51279 0.0
C1270 C 0.81722 0.31289 0.49682 0.0
C1271 C 0.82503 0.30381 0.48276 0.0
C1272 C 0.78141 0.31908 0.49254 0.0
C1273 C 0.79665 0.30102 0.46478 0.0
C1274 C 0.7538 0.31603 0.47436 0.0
N1275 N 0.76187 0.30713 0.46101 0.0
C1276 C 0.91639 0.30903 0.45403 0.0
C1277 C 0.89099 0.32648 0.4631 0.0
C1278 C 0.90813 0.31061 0.42982 0.0
N1279 N 0.90712 0.31686 0.47021 0.0
C1280 C 0.88271 0.32845 0.439 0.0
C1281 C 0.89 0.32029 0.42227 0.0
H1282 H 0.92709 0.30126 0.4599 0.0
H1283 H 0.88149 0.33233 0.47625 0.0
C1284 C 0.88909 0.33632 0.5769 0.0
N1285 N 0.86578 0.33444 0.55699 0.0
C1286 C 0.89268 0.34672 0.58599 0.0
C1287 C 0.84641 0.35296 0.55463 0.0
C1288 C 0.8433 0.34238 0.54627 0.0
C1289 C 0.87257 0.35521 0.57417 0.0
H1290 H 0.90744 0.32987 0.58461 0.0
H1291 H 0.82601 0.34069 0.53006 0.0
O1292 O 0.91911 0.29859 0.51405 0.0
O1293 O 0.88739 0.30862 0.56239 0.0
O1294 O 0.93531 0.32217 0.52701 0.0
O1295 O 0.84417 0.31574 0.51481 0.0
H1296 H 0.92808 0.27887 0.4972 0.0
H1297 H 0.98792 0.30973 0.50383 0.0
H1298 H 0.99127 0.2721 0.47615 0.0
H1299 H 0.05008 0.30245 0.48278 0.0
H1300 H 0.7667 0.29936 0.60028 0.0
H1301 H 0.91347 0.29019 0.58067 0.0
H1302 H 0.80884 0.31196 0.57552 0.0
H1303 H 0.86954 0.27797 0.60533 0.0
H1304 H 0.0495 0.28415 0.57595 0.0
H1305 H 0.04768 0.31749 0.59748 0.0
H1306 H 0.7331 0.28222 0.5181 0.0
H1307 H 0.84794 0.26398 0.52333 0.0
H1308 H 0.9021 0.34041 0.51125 0.0
H1309 H 0.01819 0.32412 0.52649 0.0
H1310 H 0.94267 0.35635 0.49823 0.0
H1311 H 0.05678 0.34035 0.51323 0.0
H1312 H 0.85248 0.29889 0.4858 0.0
H1313 H 0.77496 0.32615 0.50322 0.0
H1314 H 0.80224 0.29399 0.45384 0.0
H1315 H 0.7259 0.32074 0.47089 0.0
H1316 H 0.91372 0.30413 0.41728 0.0
H1317 H 0.86828 0.33596 0.43367 0.0
H1318 H 0.91327 0.34825 0.60101 0.0
H1319 H 0.83078 0.3594 0.54509 0.0
Li1320 Li 0.85984 0.45144 0.52904 0.0
Li1321 Li 0.79395 0.44523 0.54235 0.0
Li1322 Li 0.85583 0.43286 0.54411 0.0
Li1323 Li 0.82248 0.43851 0.50566 0.0
C1324 C 0.87421 0.45188 0.57593 0.0
N1325 N 0.93118 0.46279 0.60416 0.0
C1326 C 0.868 0.46276 0.58118 0.0
C1327 C 0.90929 0.44654 0.5851 0.0
C1328 C 0.89721 0.46814 0.59546 0.0
C1329 C 0.93775 0.45221 0.59933 0.0
C1330 C 0.77235 0.46025 0.51345 0.0
C1331 C 0.69987 0.46434 0.50502 0.0
N1332 N 0.70448 0.47404 0.51597 0.0
C1333 C 0.77643 0.47028 0.52452 0.0
C1334 C 0.73384 0.45727 0.5035 0.0
C1335 C 0.74174 0.47713 0.52563 0.0
C1336 C 0.88204 0.4701 0.50514 0.0
N1337 N 0.89529 0.46375 0.52346 0.0
C1338 C 0.95666 0.47463 0.52837 0.0
C1339 C 0.93225 0.46574 0.53485 0.0
C1340 C 0.94294 0.48137 0.50985 0.0
C1341 C 0.90532 0.47904 0.49813 0.0
H1342 H 0.85364 0.46814 0.49559 0.0
H1343 H 0.94327 0.46035 0.5486 0.0
C1344 C 0.71485 0.44084 0.56247 0.0
N1345 N 0.74517 0.44848 0.56054 0.0
C1346 C 0.68182 0.44221 0.57854 0.0
C1347 C 0.71101 0.45945 0.58974 0.0
C1348 C 0.74375 0.45769 0.57365 0.0
C1349 C 0.68025 0.45151 0.59262 0.0
H1350 H 0.71725 0.43348 0.55231 0.0
H1351 H 0.76878 0.4635 0.57226 0.0
C1352 C 0.91972 0.44117 0.50562 0.0
N1353 N 0.99513 0.44847 0.48754 0.0
C1354 C 0.92125 0.44597 0.48305 0.0
C1355 C 0.95649 0.44006 0.51899 0.0
C1356 C 0.9597 0.44961 0.47422 0.0
C1357 C 0.99433 0.44381 0.50953 0.0
C1358 C 0.77952 0.42187 0.5192 0.0
C1359 C 0.7986 0.41176 0.51807 0.0
C1360 C 0.74233 0.42372 0.50662 0.0
C1361 C 0.78031 0.40369 0.50418 0.0
C1362 C 0.72504 0.41544 0.49291 0.0
N1363 N 0.74424 0.40568 0.49197 0.0
C1364 C 0.85384 0.4171 0.57888 0.0
C1365 C 0.9077 0.41453 0.55048 0.0
C1366 C 0.86077 0.40689 0.58845 0.0
N1367 N 0.87698 0.42065 0.56019 0.0
C1368 C 0.91589 0.40428 0.55958 0.0
C1369 C 0.89301 0.40019 0.57937 0.0
H1370 H 0.82791 0.42192 0.58528 0.0
H1371 H 0.92382 0.41728 0.53461 0.0
C1372 C 0.80175 0.44096 0.45711 0.0
N1373 N 0.81742 0.43403 0.47361 0.0
C1374 C 0.80973 0.43929 0.43287 0.0
C1375 C 0.84784 0.42309 0.44313 0.0
C1376 C 0.83925 0.42509 0.46716 0.0
C1377 C 0.83431 0.43049 0.4259 0.0
H1378 H 0.78603 0.44822 0.46283 0.0
H1379 H 0.85287 0.42 0.48076 0.0
O1380 O 0.84581 0.44644 0.56219 0.0
O1381 O 0.8058 0.45336 0.51248 0.0
O1382 O 0.88227 0.43775 0.51474 0.0
O1383 O 0.79731 0.42995 0.53236 0.0
H1384 H 0.84127 0.46704 0.57406 0.0
H1385 H 0.91459 0.43813 0.58123 0.0
H1386 H 0.89294 0.47657 0.59955 0.0
H1387 H 0.96509 0.44818 0.60651 0.0
H1388 H 0.66984 0.46212 0.49748 0.0
H1389 H 0.80589 0.47268 0.53251 0.0
H1390 H 0.73019 0.44959 0.49473 0.0
H1391 H 0.74439 0.48488 0.53428 0.0
H1392 H 0.98601 0.47618 0.53749 0.0
H1393 H 0.89432 0.48403 0.48355 0.0
H1394 H 0.65848 0.43594 0.58054 0.0
H1395 H 0.7106 0.46668 0.60054 0.0
H1396 H 0.89295 0.44698 0.4726 0.0
H1397 H 0.9557 0.43645 0.53659 0.0
H1398 H 0.96134 0.45338 0.45683 0.0
H1399 H 0.02303 0.44306 0.51971 0.0
H1400 H 0.82738 0.41016 0.52762 0.0
H1401 H 0.72704 0.43147 0.50738 0.0
H1402 H 0.79485 0.39584 0.50306 0.0
H1403 H 0.69635 0.41678 0.48301 0.0
H1404 H 0.83857 0.40429 0.60169 0.0
H1405 H 0.93811 0.39945 0.54976 0.0
H1406 H 0.79933 0.44518 0.41988 0.0
H1407 H 0.86729 0.41631 0.43819 0.0
Li1408 Li 0.60939 0.0684 0.79104 0.0
Li1409 Li 0.55543 0.05447 0.79264 0.0
Li1410 Li 0.62799 0.04963 0.78144 0.0
Li1411 Li 0.58405 0.05975 0.75383 0.0
C1412 C 0.63897 0.05603 0.82933 0.0
N1413 N 0.70262 0.05708 0.86277 0.0
C1414 C 0.63031 0.05424 0.85348 0.0
C1415 C 0.67998 0.05835 0.82218 0.0
C1416 C 0.66292 0.05481 0.87012 0.0
C1417 C 0.71174 0.05885 0.83935 0.0
C1418 C 0.51297 0.0711 0.76838 0.0
C1419 C 0.44934 0.06572 0.74838 0.0
N1420 N 0.43345 0.07577 0.75173 0.0
C1421 C 0.4961 0.08136 0.7716 0.0
C1422 C 0.48949 0.06321 0.75666 0.0
C1423 C 0.4558 0.08357 0.76306 0.0
C1424 C 0.62566 0.08969 0.7851 0.0
N1425 N 0.62386 0.08215 0.80261 0.0
C1426 C 0.6291 0.09569 0.83279 0.0
C1427 C 0.62584 0.08486 0.82614 0.0
C1428 C 0.62943 0.10363 0.81496 0.0
C1429 C 0.62855 0.10054 0.7909 0.0
H1430 H 0.62308 0.08726 0.7666 0.0
H1431 H 0.6232 0.07871 0.83971 0.0
C1432 C 0.49804 0.03978 0.81367 0.0
N1433 N 0.50779 0.05032 0.81027 0.0
C1434 C 0.46458 0.03694 0.82855 0.0
C1435 C 0.45211 0.05587 0.83591 0.0
C1436 C 0.48571 0.05832 0.82099 0.0
C1437 C 0.44165 0.04508 0.83995 0.0
H1438 H 0.5168 0.0336 0.80525 0.0
H1439 H 0.49484 0.06661 0.81834 0.0
C1440 C 0.67847 0.06419 0.75176 0.0
N1441 N 0.75324 0.06664 0.72737 0.0
C1442 C 0.68553 0.05852 0.73056 0.0
C1443 C 0.70923 0.07119 0.7604 0.0
C1444 C 0.72363 0.05983 0.71856 0.0
C1445 C 0.74685 0.07231 0.74783 0.0
C1446 C 0.56654 0.03734 0.74988 0.0
C1447 C 0.59821 0.03404 0.73423 0.0
C1448 C 0.52662 0.03274 0.74816 0.0
C1449 C 0.58916 0.02633 0.7168 0.0
C1450 C 0.5189 0.02501 0.73059 0.0
N1451 N 0.55004 0.02201 0.71537 0.0
C1452 C 0.65061 0.02823 0.78474 0.0
C1453 C 0.70778 0.03936 0.77355 0.0
C1454 C 0.67312 0.01903 0.77853 0.0
N1455 N 0.66756 0.03815 0.78125 0.0
C1456 C 0.73137 0.03036 0.76698 0.0
C1457 C 0.71332 0.02011 0.76869 0.0
H1458 H 0.61844 0.02752 0.7907 0.0
H1459 H 0.72083 0.0473 0.77117 0.0
C1460 C 0.59887 0.07142 0.71305 0.0
N1461 N 0.57711 0.06268 0.72075 0.0
C1462 C 0.6061 0.07297 0.68874 0.0
C1463 C 0.56498 0.05703 0.68058 0.0
C1464 C 0.55838 0.05582 0.7051 0.0
C1465 C 0.59054 0.06543 0.6724 0.0
H1466 H 0.6132 0.07677 0.72592 0.0
H1467 H 0.54037 0.04908 0.71156 0.0
O1468 O 0.60721 0.05558 0.81293 0.0
O1469 O 0.55225 0.06882 0.7768 0.0
O1470 O 0.64158 0.06298 0.76399 0.0
O1471 O 0.57431 0.04504 0.76677 0.0
H1472 H 0.59866 0.05245 0.85929 0.0
H1473 H 0.68726 0.05975 0.80362 0.0
H1474 H 0.65666 0.05345 0.88888 0.0
H1475 H 0.74363 0.06064 0.83405 0.0
H1476 H 0.4308 0.05969 0.73929 0.0
H1477 H 0.51394 0.08755 0.78067 0.0
H1478 H 0.50209 0.05524 0.75401 0.0
H1479 H 0.4423 0.09148 0.76546 0.0
H1480 H 0.62982 0.09787 0.85152 0.0
H1481 H 0.62883 0.10651 0.77678 0.0
H1482 H 0.45712 0.02855 0.83149 0.0
H1483 H 0.43494 0.06229 0.8446 0.0
H1484 H 0.66191 0.05319 0.72344 0.0
H1485 H 0.70417 0.0757 0.7767 0.0
H1486 H 0.72968 0.05544 0.70225 0.0
H1487 H 0.77099 0.07767 0.75436 0.0
H1488 H 0.62935 0.03742 0.73543 0.0
H1489 H 0.50174 0.03517 0.76015 0.0
H1490 H 0.61318 0.0238 0.70437 0.0
H1491 H 0.48811 0.02142 0.729 0.0
H1492 H 0.65845 0.0112 0.78005 0.0
H1493 H 0.76246 0.03142 0.75952 0.0
H1494 H 0.62583 0.07955 0.68286 0.0
H1495 H 0.55234 0.05114 0.66826 0.0
Li1496 Li 0.69797 0.19738 0.79254 0.0
Li1497 Li 0.64101 0.18444 0.79458 0.0
Li1498 Li 0.66675 0.191 0.75612 0.0
Li1499 Li 0.62688 0.20274 0.78191 0.0
C1500 C 0.71674 0.17534 0.76565 0.0
N1501 N 0.75353 0.16093 0.73444 0.0
C1502 C 0.70034 0.16498 0.76312 0.0
C1503 C 0.75191 0.17836 0.75234 0.0
C1504 C 0.71939 0.1578 0.74727 0.0
C1505 C 0.77002 0.17097 0.73662 0.0
C1506 C 0.63587 0.19497 0.83579 0.0
C1507 C 0.58232 0.19015 0.86426 0.0
N1508 N 0.61252 0.18829 0.88094 0.0
C1509 C 0.66638 0.19307 0.85323 0.0
C1510 C 0.5935 0.19357 0.84135 0.0
C1511 C 0.65393 0.18968 0.87595 0.0
C1512 C 0.74494 0.21049 0.82333 0.0
N1513 N 0.74682 0.20165 0.80908 0.0
C1514 C 0.81381 0.1969 0.82482 0.0
C1515 C 0.78057 0.19497 0.80921 0.0
C1516 C 0.81182 0.2057 0.84039 0.0
C1517 C 0.77759 0.21275 0.83916 0.0
H1518 H 0.71708 0.21545 0.82333 0.0
H1519 H 0.78069 0.18786 0.79812 0.0
C1520 C 0.59574 0.16516 0.79879 0.0
N1521 N 0.62481 0.17145 0.80975 0.0
C1522 C 0.59353 0.1542 0.80412 0.0
C1523 C 0.64849 0.15666 0.83344 0.0
C1524 C 0.65028 0.16751 0.82719 0.0
C1525 C 0.62141 0.1498 0.82089 0.0
H1526 H 0.57707 0.1684 0.78436 0.0
H1527 H 0.67455 0.17254 0.83471 0.0
C1528 C 0.70787 0.21411 0.7651 0.0
N1529 N 0.76613 0.23052 0.76773 0.0
C1530 C 0.69769 0.22376 0.77652 0.0
C1531 C 0.74759 0.21282 0.75492 0.0
C1532 C 0.7276 0.23196 0.77767 0.0
C1533 C 0.77665 0.2212 0.75648 0.0
C1534 C 0.56902 0.19165 0.75935 0.0
C1535 C 0.56311 0.19579 0.73638 0.0
C1536 C 0.53468 0.19054 0.77466 0.0
C1537 C 0.5229 0.19888 0.72919 0.0
C1538 C 0.49495 0.19371 0.76681 0.0
N1539 N 0.48994 0.19779 0.74444 0.0
C1540 C 0.64958 0.17852 0.71602 0.0
C1541 C 0.684 0.19505 0.70773 0.0
C1542 C 0.64016 0.17712 0.69188 0.0
N1543 N 0.67028 0.18749 0.72342 0.0
C1544 C 0.67519 0.19397 0.68343 0.0
C1545 C 0.6519 0.18509 0.67554 0.0
H1546 H 0.63757 0.17289 0.72907 0.0
H1547 H 0.69896 0.20227 0.71425 0.0
C1548 C 0.56369 0.21839 0.79602 0.0
N1549 N 0.58964 0.21451 0.77876 0.0
C1550 C 0.53883 0.22745 0.79135 0.0
C1551 C 0.56802 0.22817 0.75145 0.0
C1552 C 0.59217 0.21919 0.75686 0.0
C1553 C 0.54121 0.23239 0.76883 0.0
H1554 H 0.56257 0.21454 0.81333 0.0
H1555 H 0.61327 0.21594 0.74356 0.0
O1556 O 0.69819 0.18252 0.78085 0.0
O1557 O 0.6474 0.19827 0.81343 0.0
O1558 O 0.67931 0.20591 0.76412 0.0
O1559 O 0.60834 0.18887 0.76693 0.0
H1560 H 0.67299 0.16251 0.77312 0.0
H1561 H 0.76493 0.18636 0.75403 0.0
H1562 H 0.70697 0.14977 0.74512 0.0
H1563 H 0.79716 0.17322 0.72615 0.0
H1564 H 0.54964 0.18898 0.86879 0.0
H1565 H 0.69934 0.19409 0.84923 0.0
H1566 H 0.56952 0.19507 0.82809 0.0
H1567 H 0.67722 0.18812 0.88959 0.0
H1568 H 0.83986 0.19131 0.82556 0.0
H1569 H 0.77524 0.21956 0.85116 0.0
H1570 H 0.57243 0.14908 0.79408 0.0
H1571 H 0.67055 0.15346 0.84634 0.0
H1572 H 0.66726 0.22487 0.78471 0.0
H1573 H 0.75597 0.20541 0.74602 0.0
H1574 H 0.72022 0.23945 0.78655 0.0
H1575 H 0.80757 0.2203 0.74877 0.0
H1576 H 0.58942 0.1968 0.7244 0.0
H1577 H 0.53871 0.18729 0.79245 0.0
H1578 H 0.51793 0.20218 0.71153 0.0
H1579 H 0.4681 0.19294 0.77851 0.0
H1580 H 0.62167 0.17026 0.68624 0.0
H1581 H 0.68419 0.2003 0.67114 0.0
H1582 H 0.51824 0.23059 0.80507 0.0
H1583 H 0.57039 0.23183 0.73394 0.0
Li1584 Li 0.63204 0.20335 0.46632 0.0
Li1585 Li 0.59036 0.1933 0.49557 0.0
Li1586 Li 0.61078 0.18456 0.45857 0.0
Li1587 Li 0.55791 0.19807 0.4583 0.0
C1588 C 0.6743 0.182 0.48903 0.0
N1589 N 0.72616 0.16461 0.4978 0.0
C1590 C 0.6621 0.17401 0.50518 0.0
C1591 C 0.71306 0.18117 0.47748 0.0
C1592 C 0.68872 0.16528 0.50935 0.0
C1593 C 0.73877 0.17231 0.48211 0.0
C1594 C 0.56855 0.21315 0.50338 0.0
C1595 C 0.51851 0.21688 0.53464 0.0
N1596 N 0.54779 0.22293 0.54612 0.0
C1597 C 0.59805 0.21944 0.51543 0.0
C1598 C 0.52837 0.21189 0.51299 0.0
C1599 C 0.587 0.22431 0.53703 0.0
C1600 C 0.65703 0.22461 0.45812 0.0
N1601 N 0.67058 0.21495 0.46649 0.0
C1602 C 0.72749 0.22334 0.4871 0.0
C1603 C 0.70558 0.2141 0.48027 0.0
C1604 C 0.71272 0.23345 0.47987 0.0
C1605 C 0.67791 0.23405 0.4646 0.0
H1606 H 0.62821 0.22505 0.44795 0.0
H1607 H 0.71463 0.20636 0.4874 0.0
C1608 C 0.56016 0.18566 0.54128 0.0
N1609 N 0.58885 0.1916 0.52904 0.0
C1610 C 0.56553 0.18388 0.56578 0.0
C1611 C 0.62938 0.19442 0.56429 0.0
C1612 C 0.62288 0.19596 0.53999 0.0
C1613 C 0.60077 0.18824 0.5773 0.0
H1614 H 0.534 0.18207 0.53193 0.0
H1615 H 0.64563 0.20041 0.5296 0.0
C1616 C 0.63408 0.19566 0.41742 0.0
N1617 N 0.688 0.19271 0.3793 0.0
C1618 C 0.6182 0.1931 0.39483 0.0
C1619 C 0.67735 0.19679 0.42056 0.0
C1620 C 0.64599 0.19162 0.3758 0.0
C1621 C 0.7041 0.19525 0.40109 0.0
C1622 C 0.51651 0.18059 0.46995 0.0
C1623 C 0.5096 0.17396 0.45016 0.0
C1624 C 0.48254 0.18384 0.48398 0.0
C1625 C 0.46867 0.17083 0.44453 0.0
C1626 C 0.44207 0.18056 0.47774 0.0
N1627 N 0.43603 0.17418 0.4583 0.0
C1628 C 0.60793 0.16277 0.46187 0.0
C1629 C 0.64487 0.16772 0.42677 0.0
C1630 C 0.61109 0.15194 0.45606 0.0
N1631 N 0.62417 0.17043 0.4472 0.0
C1632 C 0.64878 0.15688 0.42021 0.0
C1633 C 0.63126 0.14892 0.43494 0.0
H1634 H 0.59169 0.16509 0.47801 0.0
H1635 H 0.65781 0.17389 0.4154 0.0
C1636 C 0.48244 0.21015 0.44887 0.0
N1637 N 0.50868 0.20216 0.44161 0.0
C1638 C 0.44663 0.2126 0.43546 0.0
C1639 C 0.46622 0.19867 0.40739 0.0
C1640 C 0.50156 0.19656 0.42118 0.0
C1641 C 0.43837 0.20673 0.41458 0.0
H1642 H 0.48928 0.21462 0.46496 0.0
H1643 H 0.52323 0.19034 0.41577 0.0
O1644 O 0.6482 0.19048 0.48424 0.0
O1645 O 0.57923 0.20807 0.48256 0.0
O1646 O 0.6073 0.19711 0.43625 0.0
O1647 O 0.55626 0.18396 0.47544 0.0
H1648 H 0.63207 0.17441 0.51411 0.0
H1649 H 0.72325 0.18729 0.46504 0.0
H1650 H 0.6795 0.15901 0.52168 0.0
H1651 H 0.76876 0.17156 0.47321 0.0
H1652 H 0.48759 0.21593 0.54233 0.0
H1653 H 0.62935 0.2204 0.50838 0.0
H1654 H 0.50515 0.20705 0.50394 0.0
H1655 H 0.60965 0.22914 0.54663 0.0
H1656 H 0.75414 0.22266 0.49902 0.0
H1657 H 0.66571 0.24177 0.4589 0.0
H1658 H 0.54312 0.17902 0.57552 0.0
H1659 H 0.6569 0.19782 0.57277 0.0
H1660 H 0.58482 0.19224 0.392 0.0
H1661 H 0.69018 0.19879 0.43783 0.0
H1662 H 0.63414 0.1896 0.35825 0.0
H1663 H 0.73767 0.19606 0.40331 0.0
H1664 H 0.53541 0.17143 0.43894 0.0
H1665 H 0.4873 0.18888 0.49948 0.0
H1666 H 0.46284 0.16578 0.42914 0.0
H1667 H 0.41547 0.18308 0.48835 0.0
H1668 H 0.59745 0.14595 0.4678 0.0
H1669 H 0.66473 0.15473 0.40381 0.0
H1670 H 0.42555 0.21891 0.4413 0.0
H1671 H 0.46055 0.19404 0.39131 0.0
Li1672 Li 0.61422 0.0487 0.46352 0.0
Li1673 Li 0.65552 0.05814 0.49296 0.0
Li1674 Li 0.63197 0.06759 0.45619 0.0
Li1675 Li 0.68557 0.05371 0.45389 0.0
C1676 C 0.56914 0.05972 0.50036 0.0
N1677 N 0.51268 0.05618 0.53699 0.0
C1678 C 0.57043 0.05013 0.51336 0.0
C1679 C 0.53924 0.06753 0.50604 0.0
C1680 C 0.54164 0.04849 0.53183 0.0
C1681 C 0.51091 0.06558 0.5246 0.0
C1682 C 0.6982 0.03855 0.49124 0.0
C1683 C 0.76905 0.03825 0.50635 0.0
N1684 N 0.76202 0.02832 0.51576 0.0
C1685 C 0.69169 0.02833 0.501 0.0
C1686 C 0.73717 0.04354 0.49391 0.0
C1687 C 0.72434 0.0233 0.51336 0.0
C1688 C 0.59291 0.02737 0.46179 0.0
N1689 N 0.57491 0.03728 0.46201 0.0
C1690 C 0.50912 0.02982 0.47394 0.0
C1691 C 0.53338 0.03863 0.4668 0.0
C1692 C 0.52812 0.01968 0.47589 0.0
C1693 C 0.56989 0.01838 0.46876 0.0
H1694 H 0.62606 0.02659 0.45807 0.0
H1695 H 0.52005 0.04662 0.46715 0.0
C1696 C 0.65695 0.07051 0.53448 0.0
N1697 N 0.66108 0.06027 0.5263 0.0
C1698 C 0.6497 0.07241 0.55872 0.0
C1699 C 0.65261 0.05321 0.56563 0.0
C1700 C 0.66009 0.05169 0.54135 0.0
C1701 C 0.64608 0.06364 0.57432 0.0
H1702 H 0.6567 0.07713 0.52194 0.0
H1703 H 0.66183 0.04362 0.53436 0.0
C1704 C 0.60241 0.05601 0.41721 0.0
N1705 N 0.5369 0.05742 0.38502 0.0
C1706 C 0.60793 0.05265 0.39359 0.0
C1707 C 0.56357 0.06009 0.42447 0.0
C1708 C 0.57443 0.05343 0.37758 0.0
C1709 C 0.53084 0.06074 0.40792 0.0
C1710 C 0.72106 0.07414 0.47325 0.0
C1711 C 0.72895 0.0817 0.45533 0.0
C1712 C 0.74708 0.07377 0.49335 0.0
C1713 C 0.76337 0.08859 0.45752 0.0
C1714 C 0.78114 0.0808 0.49491 0.0
N1715 N 0.78855 0.088 0.4771 0.0
C1716 C 0.61175 0.08894 0.46247 0.0
C1717 C 0.62543 0.0845 0.42195 0.0
C1718 C 0.6119 0.09988 0.45702 0.0
N1719 N 0.61923 0.08156 0.4451 0.0
C1720 C 0.62583 0.09539 0.41568 0.0
C1721 C 0.62002 0.10317 0.43353 0.0
H1722 H 0.60817 0.08634 0.48081 0.0
H1723 H 0.63269 0.07846 0.40868 0.0
C1724 C 0.74935 0.03977 0.43527 0.0
N1725 N 0.73359 0.04995 0.43574 0.0
C1726 C 0.78284 0.03725 0.42014 0.0
C1727 C 0.78246 0.05565 0.40604 0.0
C1728 C 0.74909 0.0578 0.42135 0.0
C1729 C 0.79943 0.04528 0.40532 0.0
H1730 H 0.73545 0.03357 0.44623 0.0
H1731 H 0.73474 0.06566 0.42131 0.0
O1732 O 0.59723 0.06158 0.48233 0.0
O1733 O 0.66629 0.0436 0.47932 0.0
O1734 O 0.63511 0.05528 0.43297 0.0
O1735 O 0.68707 0.06744 0.47166 0.0
H1736 H 0.59337 0.04399 0.50921 0.0
H1737 H 0.53796 0.07502 0.49619 0.0
H1738 H 0.54234 0.04112 0.54207 0.0
H1739 H 0.48757 0.07155 0.52918 0.0
H1740 H 0.79941 0.04202 0.50848 0.0
H1741 H 0.66161 0.02437 0.49924 0.0
H1742 H 0.74295 0.05135 0.48617 0.0
H1743 H 0.71969 0.01541 0.52107 0.0
H1744 H 0.47688 0.03102 0.47943 0.0
H1745 H 0.58525 0.01063 0.47012 0.0
H1746 H 0.6447 0.08054 0.56503 0.0
H1747 H 0.64978 0.0463 0.57731 0.0
H1748 H 0.63784 0.04949 0.3877 0.0
H1749 H 0.55861 0.06278 0.4426 0.0
H1750 H 0.57826 0.05087 0.35924 0.0
H1751 H 0.50063 0.06388 0.41329 0.0
H1752 H 0.70886 0.08223 0.43981 0.0
H1753 H 0.74099 0.06814 0.50768 0.0
H1754 H 0.77001 0.09442 0.44369 0.0
H1755 H 0.80161 0.08057 0.51032 0.0
H1756 H 0.60767 0.10573 0.47116 0.0
H1757 H 0.63261 0.09775 0.39746 0.0
H1758 H 0.79526 0.02915 0.41972 0.0
H1759 H 0.79447 0.06196 0.39456 0.0
Li1760 Li 0.42784 0.94156 0.24255 0.0
Li1761 Li 0.39249 0.93441 0.20586 0.0
Li1762 Li 0.45261 0.94741 0.20424 0.0
Li1763 Li 0.38689 0.95334 0.2181 0.0
C1764 C 0.47426 0.92522 0.23013 0.0
N1765 N 0.51815 0.91069 0.25793 0.0
C1766 C 0.46159 0.91447 0.23122 0.0
C1767 C 0.50954 0.92854 0.24298 0.0
C1768 C 0.48413 0.90725 0.24541 0.0
C1769 C 0.53121 0.92109 0.25701 0.0
C1770 C 0.3299 0.94308 0.24406 0.0
C1771 C 0.25462 0.94421 0.2409 0.0
N1772 N 0.25342 0.9497 0.26192 0.0
C1773 C 0.32797 0.9487 0.26564 0.0
C1774 C 0.29302 0.94077 0.23158 0.0
C1775 C 0.28897 0.95199 0.27437 0.0
C1776 C 0.44774 0.94589 0.29047 0.0
N1777 N 0.43518 0.93809 0.27504 0.0
C1778 C 0.40954 0.92727 0.30711 0.0
C1779 C 0.41729 0.9288 0.28282 0.0
C1780 C 0.41992 0.93547 0.32323 0.0
C1781 C 0.44049 0.9447 0.31492 0.0
H1782 H 0.46022 0.95337 0.28366 0.0
H1783 H 0.40603 0.92297 0.26999 0.0
C1784 C 0.38574 0.91809 0.17152 0.0
N1785 N 0.37161 0.92143 0.19321 0.0
C1786 C 0.38265 0.90726 0.16511 0.0
C1787 C 0.34875 0.90371 0.20301 0.0
C1788 C 0.35185 0.91463 0.20852 0.0
C1789 C 0.36597 0.89989 0.18156 0.0
H1790 H 0.40231 0.92366 0.16006 0.0
H1791 H 0.34213 0.91748 0.22592 0.0
C1792 C 0.47277 0.96376 0.2302 0.0
N1793 N 0.53595 0.97871 0.2239 0.0
C1794 C 0.46554 0.97301 0.21661 0.0
C1795 C 0.51198 0.96217 0.24081 0.0
C1796 C 0.49792 0.98046 0.21359 0.0
C1797 C 0.54357 0.96981 0.23734 0.0
C1798 C 0.36869 0.95213 0.17169 0.0
C1799 C 0.3726 0.96285 0.16448 0.0
C1800 C 0.33373 0.94616 0.16452 0.0
C1801 C 0.34129 0.96743 0.15028 0.0
C1802 C 0.30313 0.95103 0.15029 0.0
N1803 N 0.3075 0.96148 0.14353 0.0
C1804 C 0.53262 0.94359 0.18462 0.0
C1805 C 0.49844 0.95915 0.16963 0.0
C1806 C 0.56522 0.94489 0.16825 0.0
N1807 N 0.49992 0.95061 0.18483 0.0
C1808 C 0.53063 0.96083 0.15315 0.0
C1809 C 0.56391 0.95349 0.15211 0.0
H1810 H 0.53263 0.93676 0.19651 0.0
H1811 H 0.47169 0.96446 0.16979 0.0
C1812 C 0.36342 0.97236 0.23979 0.0
N1813 N 0.34989 0.96536 0.22276 0.0
C1814 C 0.33924 0.98123 0.24612 0.0
C1815 C 0.28646 0.97542 0.2179 0.0
C1816 C 0.3118 0.96661 0.21209 0.0
C1817 C 0.30046 0.98282 0.23505 0.0
H1818 H 0.39279 0.97098 0.24888 0.0
H1819 H 0.30064 0.96071 0.19947 0.0
O1820 O 0.45234 0.93245 0.21653 0.0
O1821 O 0.36782 0.93998 0.235 0.0
O1822 O 0.4416 0.9563 0.23309 0.0
O1823 O 0.39918 0.94745 0.18538 0.0
H1824 H 0.43476 0.9117 0.22121 0.0
H1825 H 0.51998 0.9368 0.24219 0.0
H1826 H 0.47459 0.89891 0.24643 0.0
H1827 H 0.55843 0.92358 0.26715 0.0
H1828 H 0.2258 0.94253 0.2314 0.0
H1829 H 0.35634 0.95062 0.27537 0.0
H1830 H 0.29411 0.93646 0.21479 0.0
H1831 H 0.28699 0.95641 0.29099 0.0
H1832 H 0.39311 0.92013 0.31307 0.0
H1833 H 0.4483 0.9512 0.32702 0.0
H1834 H 0.39612 0.90452 0.14842 0.0
H1835 H 0.33573 0.8982 0.21605 0.0
H1836 H 0.43543 0.97435 0.2082 0.0
H1837 H 0.51797 0.95514 0.25164 0.0
H1838 H 0.49284 0.98761 0.20298 0.0
H1839 H 0.57412 0.96866 0.24536 0.0
H1840 H 0.3992 0.96763 0.17001 0.0
H1841 H 0.33013 0.93786 0.16994 0.0
H1842 H 0.34379 0.97574 0.14468 0.0
H1843 H 0.27587 0.94651 0.14465 0.0
H1844 H 0.59057 0.9391 0.1677 0.0
H1845 H 0.52884 0.96751 0.14076 0.0
H1846 H 0.35048 0.98674 0.25967 0.0
H1847 H 0.25623 0.97641 0.20934 0.0
Li1848 Li 0.34093 0.80878 0.2364 0.0
Li1849 Li 0.36664 0.81809 0.20126 0.0
Li1850 Li 0.3092 0.80379 0.19811 0.0
Li1851 Li 0.38127 0.7991 0.20827 0.0
C1852 C 0.28243 0.82383 0.22883 0.0
N1853 N 0.23029 0.83548 0.25864 0.0
C1854 C 0.29574 0.83367 0.23825 0.0
C1855 C 0.24231 0.82002 0.23424 0.0
C1856 C 0.26903 0.83941 0.25338 0.0
C1857 C 0.21648 0.82599 0.24943 0.0
C1858 C 0.42854 0.80898 0.24418 0.0
C1859 C 0.49422 0.81203 0.26447 0.0
N1860 N 0.48776 0.80301 0.27771 0.0
C1861 C 0.42231 0.79981 0.2582 0.0
C1862 C 0.46466 0.81517 0.2474 0.0
C1863 C 0.45277 0.79688 0.27491 0.0
C1864 C 0.31817 0.80447 0.28588 0.0
N1865 N 0.3349 0.81155 0.26996 0.0
C1866 C 0.36279 0.82226 0.30173 0.0
C1867 C 0.3558 0.82048 0.27745 0.0
C1868 C 0.34859 0.81466 0.3183 0.0
C1869 C 0.32491 0.80586 0.31035 0.0
H1870 H 0.30166 0.79745 0.27975 0.0
H1871 H 0.36949 0.82587 0.26445 0.0
C1872 C 0.3672 0.83542 0.16876 0.0
N1873 N 0.3814 0.8319 0.1903 0.0
C1874 C 0.36813 0.84639 0.16331 0.0
C1875 C 0.39956 0.84975 0.20198 0.0
C1876 C 0.39862 0.83873 0.20652 0.0
C1877 C 0.38287 0.85369 0.18051 0.0
H1878 H 0.35281 0.8298 0.15649 0.0
H1879 H 0.40867 0.83569 0.22371 0.0
C1880 C 0.30564 0.7875 0.23737 0.0
N1881 N 0.25805 0.77388 0.26547 0.0
C1882 C 0.32505 0.77945 0.2509 0.0
C1883 C 0.26198 0.78852 0.23792 0.0
C1884 C 0.30046 0.77268 0.26505 0.0
C1885 C 0.23849 0.78158 0.25229 0.0
C1886 C 0.38704 0.80056 0.16304 0.0
C1887 C 0.37396 0.79095 0.15245 0.0
C1888 C 0.42776 0.80433 0.15914 0.0
C1889 C 0.40206 0.78522 0.13814 0.0
C1890 C 0.45492 0.79836 0.14471 0.0
N1891 N 0.44163 0.78901 0.1346 0.0
C1892 C 0.23876 0.80856 0.17118 0.0
C1893 C 0.25207 0.78982 0.17431 0.0
C1894 C 0.20548 0.80668 0.1556 0.0
N1895 N 0.26131 0.80019 0.18003 0.0
C1896 C 0.21885 0.78757 0.15877 0.0
C1897 C 0.19562 0.7961 0.14912 0.0
H1898 H 0.24737 0.81672 0.17581 0.0
H1899 H 0.27108 0.78335 0.18139 0.0
C1900 C 0.46162 0.78875 0.21119 0.0
N1901 N 0.42007 0.78746 0.2064 0.0
C1902 C 0.48575 0.77991 0.21818 0.0
C1903 C 0.42526 0.76848 0.21202 0.0
C1904 C 0.40221 0.77754 0.20546 0.0
C1905 C 0.46682 0.76975 0.21961 0.0
H1906 H 0.47511 0.79672 0.21162 0.0
H1907 H 0.3691 0.77677 0.20159 0.0
O1908 O 0.30828 0.81805 0.21411 0.0
O1909 O 0.40001 0.81179 0.22698 0.0
O1910 O 0.3292 0.79416 0.22323 0.0
O1911 O 0.36053 0.80609 0.17773 0.0
H1912 H 0.32649 0.83681 0.23411 0.0
H1913 H 0.23105 0.81257 0.22667 0.0
H1914 H 0.2791 0.84699 0.26094 0.0
H1915 H 0.18541 0.82311 0.25383 0.0
H1916 H 0.52238 0.81674 0.26711 0.0
H1917 H 0.39453 0.79496 0.25599 0.0
H1918 H 0.46996 0.82229 0.23667 0.0
H1919 H 0.44844 0.78977 0.28579 0.0
H1920 H 0.38137 0.82909 0.30741 0.0
H1921 H 0.31355 0.79988 0.32285 0.0
H1922 H 0.35515 0.84922 0.14656 0.0
H1923 H 0.41116 0.85519 0.21557 0.0
H1924 H 0.35873 0.77843 0.25055 0.0
H1925 H 0.24634 0.79455 0.2273 0.0
H1926 H 0.3151 0.76645 0.27569 0.0
H1927 H 0.20468 0.7823 0.25292 0.0
H1928 H 0.34258 0.7879 0.15546 0.0
H1929 H 0.43835 0.81172 0.16739 0.0
H1930 H 0.39247 0.77774 0.1299 0.0
H1931 H 0.48661 0.80115 0.1416 0.0
H1932 H 0.18805 0.81341 0.14832 0.0
H1933 H 0.21187 0.77932 0.15394 0.0
H1934 H 0.5179 0.78108 0.22389 0.0
H1935 H 0.40995 0.76071 0.21294 0.0
Li1936 Li 0.43617 0.80325 0.5388 0.0
Li1937 Li 0.36457 0.7988 0.52932 0.0
Li1938 Li 0.40493 0.80877 0.49951 0.0
Li1939 Li 0.38201 0.81714 0.53639 0.0
C1940 C 0.41959 0.78328 0.51099 0.0
N1941 N 0.42607 0.76115 0.50837 0.0
C1942 C 0.42649 0.77724 0.53166 0.0
C1943 C 0.41626 0.77808 0.48894 0.0
C1944 C 0.42946 0.76606 0.53 0.0
C1945 C 0.41974 0.76688 0.48798 0.0
C1946 C 0.36626 0.79931 0.57666 0.0
C1947 C 0.30318 0.79463 0.59805 0.0
N1948 N 0.32527 0.78731 0.61101 0.0
C1949 C 0.38845 0.79182 0.59035 0.0
C1950 C 0.3234 0.80082 0.58068 0.0
C1951 C 0.36711 0.7858 0.60758 0.0
C1952 C 0.49201 0.80596 0.5753 0.0
N1953 N 0.48569 0.79974 0.55569 0.0
C1954 C 0.54802 0.7897 0.56382 0.0
C1955 C 0.51297 0.7918 0.5495 0.0
C1956 C 0.55503 0.79601 0.58424 0.0
C1957 C 0.52673 0.80424 0.5899 0.0
H1958 H 0.46979 0.81224 0.57963 0.0
H1959 H 0.5075 0.78709 0.53357 0.0
C1960 C 0.29779 0.78806 0.5092 0.0
N1961 N 0.32399 0.7875 0.52836 0.0
C1962 C 0.27452 0.7791 0.50222 0.0
C1963 C 0.304 0.76924 0.53547 0.0
C1964 C 0.32656 0.77844 0.54193 0.0
C1965 C 0.27873 0.76947 0.51496 0.0
H1966 H 0.29708 0.79524 0.49833 0.0
H1967 H 0.34831 0.77805 0.55668 0.0
C1968 C 0.47868 0.81917 0.51323 0.0
N1969 N 0.55913 0.82244 0.49632 0.0
C1970 C 0.49885 0.829 0.51709 0.0
C1971 C 0.49944 0.81099 0.5008 0.0
C1972 C 0.53952 0.8305 0.50838 0.0
C1973 C 0.5401 0.81281 0.49239 0.0
C1974 C 0.31885 0.81937 0.50716 0.0
C1975 C 0.32626 0.82737 0.49013 0.0
C1976 C 0.28264 0.8198 0.52119 0.0
C1977 C 0.29751 0.83578 0.48767 0.0
C1978 C 0.25467 0.82835 0.51821 0.0
N1979 N 0.26264 0.8361 0.50166 0.0
C1980 C 0.38082 0.80388 0.45456 0.0
C1981 C 0.42968 0.81831 0.45447 0.0
C1982 C 0.37394 0.80508 0.43017 0.0
N1983 N 0.40812 0.81046 0.46614 0.0
C1984 C 0.42376 0.81978 0.42991 0.0
C1985 C 0.39517 0.81317 0.41773 0.0
H1986 H 0.36318 0.79797 0.46456 0.0
H1987 H 0.45008 0.82366 0.46431 0.0
C1988 C 0.35036 0.83293 0.56982 0.0
N1989 N 0.36842 0.83097 0.54822 0.0
C1990 C 0.34575 0.84354 0.57786 0.0
C1991 C 0.37782 0.84973 0.54114 0.0
C1992 C 0.38196 0.83908 0.53392 0.0
C1993 C 0.36002 0.85202 0.56341 0.0
H1994 H 0.34049 0.82629 0.58096 0.0
H1995 H 0.39678 0.83724 0.51702 0.0
O1996 O 0.41696 0.79425 0.5122 0.0
O1997 O 0.38659 0.8053 0.55979 0.0
O1998 O 0.43904 0.8176 0.52193 0.0
O1999 O 0.34709 0.81121 0.51025 0.0
H2000 H 0.42923 0.78115 0.54885 0.0
H2001 H 0.41135 0.78263 0.47271 0.0
H2002 H 0.43451 0.76129 0.5459 0.0
H2003 H 0.41725 0.76275 0.47104 0.0
H2004 H 0.26995 0.79566 0.60125 0.0
H2005 H 0.42176 0.79065 0.58769 0.0
H2006 H 0.30595 0.80668 0.57044 0.0
H2007 H 0.38382 0.77994 0.61822 0.0
H2008 H 0.56949 0.7833 0.55903 0.0
H2009 H 0.53141 0.80924 0.60553 0.0
H2010 H 0.25533 0.77948 0.48626 0.0
H2011 H 0.30794 0.76188 0.54556 0.0
H2012 H 0.48324 0.83539 0.52675 0.0
H2013 H 0.48445 0.80333 0.49761 0.0
H2014 H 0.55551 0.83806 0.51124 0.0
H2015 H 0.55653 0.80655 0.48275 0.0
H2016 H 0.35415 0.82718 0.47914 0.0
H2017 H 0.27627 0.81361 0.53428 0.0
H2018 H 0.30298 0.84207 0.47468 0.0
H2019 H 0.22662 0.82882 0.52904 0.0
H2020 H 0.35157 0.79992 0.42117 0.0
H2021 H 0.44032 0.82614 0.42064 0.0
H2022 H 0.33191 0.84513 0.59518 0.0
H2023 H 0.38912 0.85612 0.52966 0.0
Li2024 Li 0.38223 0.95125 0.53444 0.0
Li2025 Li 0.30986 0.9458 0.53948 0.0
Li2026 Li 0.36638 0.93237 0.54164 0.0
Li2027 Li 0.34882 0.94055 0.50343 0.0
C2028 C 0.36889 0.95059 0.5823 0.0
N2029 N 0.39535 0.96263 0.62094 0.0
C2030 C 0.34803 0.96009 0.58833 0.0
C2031 C 0.40275 0.94711 0.59615 0.0
C2032 C 0.36201 0.9661 0.60786 0.0
C2033 C 0.41579 0.95334 0.61556 0.0
C2034 C 0.30272 0.95941 0.50011 0.0
C2035 C 0.23712 0.95767 0.479 0.0
N2036 N 0.24147 0.96789 0.47072 0.0
C2037 C 0.30659 0.96989 0.49138 0.0
C2038 C 0.26776 0.95323 0.49387 0.0
C2039 C 0.27526 0.97404 0.47655 0.0
C2040 C 0.45569 0.96323 0.52493 0.0
N2041 N 0.41752 0.96353 0.5358 0.0
C2042 C 0.41702 0.98275 0.53449 0.0
C2043 C 0.3984 0.97302 0.54105 0.0
C2044 C 0.45515 0.98259 0.52206 0.0
C2045 C 0.47533 0.97276 0.51798 0.0
H2046 H 0.46929 0.95564 0.51974 0.0
H2047 H 0.36701 0.97304 0.54834 0.0
C2048 C 0.24076 0.94127 0.56685 0.0
N2049 N 0.25829 0.94935 0.55393 0.0
C2050 C 0.2059 0.94327 0.58117 0.0
C2051 C 0.20703 0.96183 0.56811 0.0
C2052 C 0.2421 0.95947 0.55403 0.0
C2053 C 0.18922 0.95367 0.58212 0.0
H2054 H 0.25492 0.93336 0.56667 0.0
H2055 H 0.25735 0.96579 0.54397 0.0
C2056 C 0.44392 0.93422 0.5189 0.0
N2057 N 0.5228 0.92513 0.52188 0.0
C2058 C 0.46056 0.92863 0.49941 0.0
C2059 C 0.46739 0.93522 0.53986 0.0
C2060 C 0.5005 0.92408 0.50128 0.0
C2061 C 0.50722 0.93056 0.54103 0.0
C2062 C 0.30585 0.92144 0.51425 0.0
C2063 C 0.33793 0.91633 0.50156 0.0
C2064 C 0.26736 0.91625 0.51734 0.0
C2065 C 0.33099 0.90607 0.49222 0.0
C2066 C 0.26156 0.90601 0.50761 0.0
N2067 N 0.29325 0.90117 0.49539 0.0
C2068 C 0.3528 0.91616 0.57495 0.0
C2069 C 0.40273 0.91142 0.54533 0.0
C2070 C 0.3498 0.90545 0.58238 0.0
N2071 N 0.37801 0.91886 0.55627 0.0
C2072 C 0.40057 0.90065 0.55209 0.0
C2073 C 0.37262 0.89755 0.57013 0.0
H2074 H 0.33266 0.92219 0.58288 0.0
H2075 H 0.4214 0.91362 0.53003 0.0
C2076 C 0.38505 0.9439 0.46041 0.0
N2077 N 0.35086 0.93898 0.46993 0.0
C2078 C 0.39387 0.94291 0.43618 0.0
C2079 C 0.33137 0.93202 0.43175 0.0
C2080 C 0.32363 0.93325 0.45621 0.0
C2081 C 0.36711 0.93682 0.4217 0.0
H2082 H 0.40595 0.94842 0.47185 0.0
H2083 H 0.2965 0.92949 0.46428 0.0
O2084 O 0.35562 0.94458 0.56329 0.0
O2085 O 0.33338 0.95526 0.51449 0.0
O2086 O 0.40467 0.9386 0.51744 0.0
O2087 O 0.31179 0.93149 0.52358 0.0
H2088 H 0.3215 0.96284 0.57794 0.0
H2089 H 0.4186 0.93963 0.59208 0.0
H2090 H 0.34633 0.97351 0.61263 0.0
H2091 H 0.44205 0.95077 0.62639 0.0
H2092 H 0.20989 0.95298 0.47403 0.0
H2093 H 0.33357 0.97476 0.496 0.0
H2094 H 0.26425 0.94509 0.5004 0.0
H2095 H 0.27783 0.98214 0.46965 0.0
H2096 H 0.40051 0.99024 0.53751 0.0
H2097 H 0.50455 0.97244 0.50812 0.0
H2098 H 0.19276 0.93685 0.59191 0.0
H2099 H 0.19479 0.96995 0.56869 0.0
H2100 H 0.44268 0.92775 0.48308 0.0
H2101 H 0.45505 0.9396 0.55497 0.0
H2102 H 0.51374 0.9197 0.48638 0.0
H2103 H 0.52576 0.93127 0.55714 0.0
H2104 H 0.36783 0.92026 0.4989 0.0
H2105 H 0.24221 0.92011 0.52711 0.0
H2106 H 0.35558 0.90201 0.48241 0.0
H2107 H 0.23192 0.90189 0.50986 0.0
H2108 H 0.32777 0.90325 0.59628 0.0
H2109 H 0.41832 0.89469 0.54223 0.0
H2110 H 0.42155 0.94673 0.42882 0.0
H2111 H 0.31012 0.92731 0.42085 0.0
Li2112 Li 0.61622 0.56943 0.29779 0.0
Li2113 Li 0.56168 0.55583 0.29419 0.0
Li2114 Li 0.63817 0.55085 0.28729 0.0
Li2115 Li 0.60118 0.56189 0.25987 0.0
C2116 C 0.61101 0.55512 0.341 0.0
N2117 N 0.61228 0.5528 0.39012 0.0
C2118 C 0.57724 0.55873 0.35477 0.0
C2119 C 0.6452 0.5502 0.35221 0.0
C2120 C 0.57851 0.55751 0.37957 0.0
C2121 C 0.64535 0.54916 0.37707 0.0
C2122 C 0.55709 0.58058 0.27087 0.0
C2123 C 0.51479 0.59644 0.26483 0.0
N2124 N 0.54728 0.60118 0.25312 0.0
C2125 C 0.58999 0.5856 0.25865 0.0
C2126 C 0.51915 0.58604 0.27395 0.0
C2127 C 0.58445 0.59602 0.24987 0.0
C2128 C 0.65316 0.58994 0.30318 0.0
N2129 N 0.62691 0.58275 0.31375 0.0
C2130 C 0.59902 0.59648 0.33914 0.0
C2131 C 0.60086 0.58574 0.33183 0.0
C2132 C 0.62327 0.60417 0.3271 0.0
C2133 C 0.65179 0.60077 0.30961 0.0
H2134 H 0.67248 0.58752 0.28829 0.0
H2135 H 0.5791 0.58001 0.33927 0.0
C2136 C 0.50727 0.54063 0.31516 0.0
N2137 N 0.51161 0.5511 0.3086 0.0
C2138 C 0.4739 0.53753 0.32983 0.0
C2139 C 0.44987 0.556 0.33003 0.0
C2140 C 0.48337 0.55872 0.31523 0.0
C2141 C 0.44561 0.54536 0.33793 0.0
H2142 H 0.53077 0.53482 0.3099 0.0
H2143 H 0.4883 0.56701 0.31016 0.0
C2144 C 0.6978 0.56681 0.28013 0.0
N2145 N 0.77919 0.57121 0.29407 0.0
C2146 C 0.72751 0.57008 0.26326 0.0
C2147 C 0.70944 0.56583 0.3041 0.0
C2148 C 0.76851 0.57225 0.27065 0.0
C2149 C 0.75073 0.56808 0.31079 0.0
C2150 C 0.5741 0.54282 0.24784 0.0
C2151 C 0.60209 0.53718 0.23326 0.0
C2152 C 0.53294 0.54455 0.24016 0.0
C2153 C 0.58847 0.53345 0.21103 0.0
C2154 C 0.52054 0.54069 0.2178 0.0
N2155 N 0.54833 0.53527 0.20382 0.0
C2156 C 0.6633 0.52986 0.29821 0.0
C2157 C 0.70755 0.53921 0.27112 0.0
C2158 C 0.68228 0.5201 0.29222 0.0
N2159 N 0.67561 0.5391 0.28723 0.0
C2160 C 0.72748 0.52966 0.26471 0.0
C2161 C 0.71379 0.51996 0.27473 0.0
H2162 H 0.63666 0.52997 0.31019 0.0
H2163 H 0.71526 0.54654 0.26176 0.0
C2164 C 0.57047 0.56833 0.21302 0.0
N2165 N 0.60213 0.56414 0.22641 0.0
C2166 C 0.57573 0.56957 0.18834 0.0
C2167 C 0.64556 0.56208 0.19204 0.0
C2168 C 0.63908 0.56104 0.21647 0.0
C2169 C 0.61372 0.56639 0.17778 0.0
H2170 H 0.54134 0.57067 0.22145 0.0
H2171 H 0.6634 0.55762 0.22759 0.0
O2172 O 0.61007 0.55597 0.31662 0.0
O2173 O 0.56172 0.57039 0.27983 0.0
O2174 O 0.65758 0.56467 0.273 0.0
O2175 O 0.58712 0.54679 0.26936 0.0
H2176 H 0.55032 0.56245 0.34644 0.0
H2177 H 0.67131 0.54719 0.3418 0.0
H2178 H 0.5526 0.56029 0.39043 0.0
H2179 H 0.67169 0.54541 0.38597 0.0
H2180 H 0.48562 0.60077 0.26715 0.0
H2181 H 0.61958 0.58153 0.25599 0.0
H2182 H 0.49328 0.5823 0.2833 0.0
H2183 H 0.60973 0.6 0.24048 0.0
H2184 H 0.5766 0.5989 0.35266 0.0
H2185 H 0.6708 0.60654 0.29995 0.0
H2186 H 0.47125 0.52925 0.33569 0.0
H2187 H 0.42848 0.56221 0.33605 0.0
H2188 H 0.71896 0.57093 0.24463 0.0
H2189 H 0.68684 0.56348 0.31744 0.0
H2190 H 0.79184 0.57477 0.25777 0.0
H2191 H 0.76013 0.56737 0.3293 0.0
H2192 H 0.6341 0.53582 0.23893 0.0
H2193 H 0.511 0.54894 0.25127 0.0
H2194 H 0.60985 0.52913 0.19948 0.0
H2195 H 0.48885 0.54203 0.21154 0.0
H2196 H 0.6709 0.51268 0.30003 0.0
H2197 H 0.75138 0.52973 0.25095 0.0
H2198 H 0.55062 0.57291 0.17761 0.0
H2199 H 0.67507 0.55952 0.18429 0.0
Li2200 Li 0.69374 0.69701 0.29455 0.0
Li2201 Li 0.63457 0.68445 0.29509 0.0
Li2202 Li 0.66115 0.69175 0.25678 0.0
Li2203 Li 0.62285 0.70341 0.28395 0.0
C2204 C 0.72809 0.67886 0.2713 0.0
N2205 N 0.80402 0.67165 0.25374 0.0
C2206 C 0.74025 0.66818 0.27481 0.0
C2207 C 0.75445 0.68587 0.25884 0.0
C2208 C 0.7788 0.66469 0.2658 0.0
C2209 C 0.79273 0.68207 0.2501 0.0
C2210 C 0.61164 0.69829 0.33241 0.0
C2211 C 0.53887 0.69688 0.34379 0.0
N2212 N 0.5492 0.69973 0.36651 0.0
C2213 C 0.62156 0.70121 0.35585 0.0
C2214 C 0.57 0.69611 0.32631 0.0
C2215 C 0.58954 0.70189 0.37284 0.0
C2216 C 0.75693 0.71054 0.31397 0.0
N2217 N 0.74347 0.70023 0.31129 0.0
C2218 C 0.79692 0.69377 0.33743 0.0
C2219 C 0.76272 0.69189 0.32252 0.0
C2220 C 0.81091 0.70432 0.34093 0.0
C2221 C 0.7911 0.7128 0.32884 0.0
H2222 H 0.74037 0.71702 0.30516 0.0
H2223 H 0.75066 0.68382 0.32045 0.0
C2224 C 0.61208 0.66351 0.29121 0.0
N2225 N 0.61627 0.67128 0.30808 0.0
C2226 C 0.60819 0.65278 0.2979 0.0
C2227 C 0.61068 0.65826 0.33937 0.0
C2228 C 0.61505 0.66895 0.33184 0.0
C2229 C 0.60868 0.65005 0.32218 0.0
H2230 H 0.61419 0.66562 0.2725 0.0
H2231 H 0.61966 0.67527 0.34485 0.0
C2232 C 0.68698 0.71355 0.25031 0.0
N2233 N 0.70714 0.72807 0.21469 0.0
C2234 C 0.65577 0.71755 0.23517 0.0
C2235 C 0.72841 0.71702 0.24746 0.0
C2236 C 0.66659 0.72486 0.21725 0.0
C2237 C 0.73798 0.72434 0.22931 0.0
C2238 C 0.56621 0.68985 0.25555 0.0
C2239 C 0.56196 0.69547 0.23405 0.0
C2240 C 0.53266 0.68372 0.26411 0.0
C2241 C 0.524 0.69498 0.22163 0.0
C2242 C 0.49518 0.68344 0.25118 0.0
N2243 N 0.49165 0.68904 0.23039 0.0
C2244 C 0.63927 0.67987 0.21739 0.0
C2245 C 0.68627 0.69399 0.20751 0.0
C2246 C 0.62981 0.67823 0.19337 0.0
N2247 N 0.66531 0.68801 0.224 0.0
C2248 C 0.67802 0.69256 0.18322 0.0
C2249 C 0.64813 0.68491 0.17618 0.0
H2250 H 0.6233 0.67521 0.23092 0.0
H2251 H 0.70746 0.70026 0.21313 0.0
C2252 C 0.6075 0.72533 0.28362 0.0
N2253 N 0.58728 0.7157 0.28315 0.0
C2254 C 0.58718 0.73462 0.27578 0.0
C2255 C 0.52427 0.7241 0.26954 0.0
C2256 C 0.54591 0.71498 0.27736 0.0
C2257 C 0.54563 0.73392 0.26781 0.0
H2258 H 0.64044 0.72564 0.28821 0.0
H2259 H 0.53037 0.70727 0.27734 0.0
O2260 O 0.69054 0.68239 0.28012 0.0
O2261 O 0.64278 0.69754 0.31569 0.0
O2262 O 0.67719 0.70638 0.26803 0.0
O2263 O 0.60312 0.69016 0.26805 0.0
H2264 H 0.72012 0.66266 0.28444 0.0
H2265 H 0.74548 0.69414 0.25596 0.0
H2266 H 0.78867 0.65645 0.26841 0.0
H2267 H 0.81347 0.68741 0.24043 0.0
H2268 H 0.50651 0.69521 0.3393 0.0
H2269 H 0.6537 0.70291 0.36086 0.0
H2270 H 0.56176 0.69382 0.30832 0.0
H2271 H 0.59676 0.70413 0.39106 0.0
H2272 H 0.81159 0.6871 0.34669 0.0
H2273 H 0.80126 0.72103 0.33138 0.0
H2274 H 0.60665 0.64661 0.28425 0.0
H2275 H 0.61108 0.65637 0.35826 0.0
H2276 H 0.6235 0.71512 0.23731 0.0
H2277 H 0.75296 0.71407 0.2591 0.0
H2278 H 0.64273 0.728 0.2054 0.0
H2279 H 0.76994 0.72705 0.22685 0.0
H2280 H 0.58776 0.70006 0.22687 0.0
H2281 H 0.53554 0.67923 0.28061 0.0
H2282 H 0.5203 0.6993 0.20498 0.0
H2283 H 0.46892 0.67876 0.25765 0.0
H2284 H 0.60668 0.67226 0.18836 0.0
H2285 H 0.69271 0.69779 0.17019 0.0
H2286 H 0.60431 0.74212 0.27468 0.0
H2287 H 0.49204 0.72338 0.2636 0.0
Li2288 Li 0.6302 0.70152 0.96716 0.0
Li2289 Li 0.58674 0.69163 0.99605 0.0
Li2290 Li 0.60859 0.68286 0.95923 0.0
Li2291 Li 0.55594 0.69631 0.95805 0.0
C2292 C 0.67068 0.68008 0.98972 0.0
N2293 N 0.72145 0.66235 0.99698 0.0
C2294 C 0.6595 0.67227 0.00654 0.0
C2295 C 0.70785 0.6789 0.97672 0.0
C2296 C 0.68556 0.66337 0.00993 0.0
C2297 C 0.73303 0.66987 0.98061 0.0
C2298 C 0.56349 0.71182 0.0023 0.0
C2299 C 0.51019 0.71597 0.03149 0.0
N2300 N 0.53755 0.72261 0.04289 0.0
C2301 C 0.59097 0.71874 0.01422 0.0
C2302 C 0.52268 0.71047 0.01091 0.0
C2303 C 0.57733 0.72411 0.03473 0.0
C2304 C 0.65718 0.72278 0.961 0.0
N2305 N 0.66956 0.71286 0.96842 0.0
C2306 C 0.72644 0.72038 0.9906 0.0
C2307 C 0.70402 0.71147 0.98241 0.0
C2308 C 0.71262 0.73073 0.98455 0.0
C2309 C 0.67854 0.73192 0.96892 0.0
H2310 H 0.62873 0.72362 0.95063 0.0
H2311 H 0.71215 0.70352 0.9887 0.0
C2312 C 0.55786 0.68349 0.0416 0.0
N2313 N 0.58409 0.6902 0.02953 0.0
C2314 C 0.56329 0.68195 0.06619 0.0
C2315 C 0.62173 0.69439 0.06513 0.0
C2316 C 0.61557 0.69558 0.04071 0.0
C2317 C 0.59581 0.68741 0.07798 0.0
H2318 H 0.53397 0.67906 0.03205 0.0
H2319 H 0.63683 0.70052 0.03041 0.0
C2320 C 0.63256 0.69367 0.91783 0.0
N2321 N 0.68511 0.69028 0.87927 0.0
C2322 C 0.61604 0.69041 0.89585 0.0
C2323 C 0.67577 0.69529 0.92012 0.0
C2324 C 0.64313 0.68871 0.87659 0.0
C2325 C 0.70182 0.69351 0.90044 0.0
C2326 C 0.51377 0.67878 0.97059 0.0
C2327 C 0.50634 0.67205 0.95104 0.0
C2328 C 0.48031 0.68191 0.98514 0.0
C2329 C 0.46536 0.66874 0.94607 0.0
C2330 C 0.43977 0.67845 0.97957 0.0
N2331 N 0.43318 0.672 0.9603 0.0
C2332 C 0.60588 0.66101 0.96217 0.0
C2333 C 0.64594 0.66619 0.92836 0.0
C2334 C 0.61121 0.6502 0.95669 0.0
N2335 N 0.62278 0.66877 0.948 0.0
C2336 C 0.65196 0.65538 0.92213 0.0
C2337 C 0.63417 0.64732 0.93642 0.0
H2338 H 0.58804 0.66324 0.97782 0.0
H2339 H 0.6598 0.67242 0.91755 0.0
C2340 C 0.48221 0.70877 0.9471 0.0
N2341 N 0.50728 0.70037 0.94082 0.0
C2342 C 0.44662 0.71118 0.93348 0.0
C2343 C 0.46404 0.69639 0.90717 0.0
C2344 C 0.49928 0.69434 0.92109 0.0
C2345 C 0.43728 0.70484 0.91345 0.0
H2346 H 0.48982 0.71358 0.96256 0.0
H2347 H 0.52015 0.68785 0.91635 0.0
O2348 O 0.64488 0.68868 0.98556 0.0
O2349 O 0.57664 0.70633 0.98247 0.0
O2350 O 0.60645 0.69543 0.93684 0.0
O2351 O 0.55359 0.68227 0.97548 0.0
H2352 H 0.63068 0.67296 0.01659 0.0
H2353 H 0.71708 0.68485 0.96366 0.0
H2354 H 0.67713 0.65723 0.02278 0.0
H2355 H 0.76175 0.66883 0.97057 0.0
H2356 H 0.47873 0.71495 0.03839 0.0
H2357 H 0.62267 0.71983 0.0079 0.0
H2358 H 0.50091 0.70521 0.00185 0.0
H2359 H 0.5984 0.72943 0.04422 0.0
H2360 H 0.75261 0.71926 0.0027 0.0
H2361 H 0.66716 0.73983 0.96406 0.0
H2362 H 0.54312 0.67643 0.07578 0.0
H2363 H 0.64731 0.6986 0.0738 0.0
H2364 H 0.58269 0.68917 0.89366 0.0
H2365 H 0.68912 0.69786 0.93689 0.0
H2366 H 0.63079 0.68615 0.8595 0.0
H2367 H 0.73534 0.6947 0.90201 0.0
H2368 H 0.53183 0.66955 0.93953 0.0
H2369 H 0.48556 0.68694 0.00059 0.0
H2370 H 0.45911 0.66362 0.93085 0.0
H2371 H 0.41354 0.68087 0.9906 0.0
H2372 H 0.59751 0.64412 0.96817 0.0
H2373 H 0.67034 0.65333 0.9065 0.0
H2374 H 0.42646 0.71781 0.93857 0.0
H2375 H 0.4576 0.69142 0.8917 0.0
Li2376 Li 0.67561 0.55982 0.99803 0.0
Li2377 Li 0.63561 0.5484 0.9716 0.0
Li2378 Li 0.70772 0.55319 0.96201 0.0
Li2379 Li 0.65252 0.56654 0.95927 0.0
C2380 C 0.71504 0.53653 0.98983 0.0
N2381 N 0.77263 0.51994 0.98844 0.0
C2382 C 0.70454 0.52676 0.97902 0.0
C2383 C 0.75473 0.53785 2e-05 0.0
C2384 C 0.73412 0.51847 0.9785 0.0
C2385 C 0.78345 0.52937 -0.0009 0.0
C2386 C 0.57821 0.5597 0.99358 0.0
C2387 C 0.50454 0.5575 0.98506 0.0
N2388 N 0.49846 0.55368 0.00758 0.0
C2389 C 0.57121 0.55581 0.01668 0.0
C2390 C 0.54462 0.56061 0.97766 0.0
C2391 C 0.53067 0.55279 0.0234 0.0
C2392 C 0.6568 0.57237 0.03754 0.0
N2393 N 0.67844 0.56346 0.0307 0.0
C2394 C 0.68506 0.55769 0.07115 0.0
C2395 C 0.69333 0.55626 0.04687 0.0
C2396 C 0.66101 0.56654 0.07852 0.0
C2397 C 0.64777 0.5741 0.0616 0.0
H2398 H 0.64398 0.57772 0.02416 0.0
H2399 H 0.70912 0.54907 0.04081 0.0
C2400 C 0.57081 0.53337 0.95649 0.0
N2401 N 0.59683 0.53692 0.97407 0.0
C2402 C 0.54438 0.52457 0.96074 0.0
C2403 C 0.57228 0.52339 0.00089 0.0
C2404 C 0.59794 0.53214 0.99591 0.0
C2405 C 0.54532 0.51952 0.98318 0.0
H2406 H 0.57074 0.53731 0.93927 0.0
H2407 H 0.61903 0.53514 0.0095 0.0
C2408 C 0.72745 0.57512 0.98924 0.0
N2409 N 0.76335 0.58937 0.02115 0.0
C2410 C 0.70991 0.58531 0.99262 0.0
C2411 C 0.76325 0.57217 0.00209 0.0
C2412 C 0.72854 0.5924 0.00881 0.0
C2413 C 0.78092 0.57949 0.01815 0.0
C2414 C 0.64893 0.55651 0.91803 0.0
C2415 C 0.68125 0.55865 0.90182 0.0
C2416 C 0.60728 0.55827 0.91131 0.0
C2417 C 0.6713 0.56262 0.87917 0.0
C2418 C 0.59862 0.56226 0.8885 0.0
N2419 N 0.63054 0.56433 0.87304 0.0
C2420 C 0.75462 0.53958 0.93221 0.0
C2421 C 0.79037 0.55528 0.94519 0.0
C2422 C 0.78703 0.53715 0.91635 0.0
N2423 N 0.75666 0.5486 0.94592 0.0
C2424 C 0.82333 0.55319 0.92949 0.0
C2425 C 0.82115 0.5442 0.91445 0.0
H2426 H 0.72672 0.53463 0.93257 0.0
H2427 H 0.79055 0.56255 0.95577 0.0
C2428 C 0.60674 0.58575 0.95182 0.0
N2429 N 0.63908 0.57963 0.9437 0.0
C2430 C 0.60483 0.59668 0.94602 0.0
C2431 C 0.66784 0.59457 0.92236 0.0
C2432 C 0.6688 0.58373 0.9288 0.0
C2433 C 0.63659 0.60122 0.9319 0.0
H2434 H 0.58453 0.5824 0.96437 0.0
H2435 H 0.69521 0.57881 0.92356 0.0
O2436 O 0.6868 0.54481 0.99021 0.0
O2437 O 0.61788 0.5624 0.98642 0.0
O2438 O 0.7092 0.56799 0.9738 0.0
O2439 O 0.65801 0.55271 0.94037 0.0
H2440 H 0.67412 0.52562 0.97083 0.0
H2441 H 0.76335 0.54536 0.00843 0.0
H2442 H 0.7265 0.51088 0.97009 0.0
H2443 H 0.81435 0.53029 0.00683 0.0
H2444 H 0.47828 0.5581 0.97289 0.0
H2445 H 0.59687 0.55494 0.02917 0.0
H2446 H 0.5495 0.56362 0.95974 0.0
H2447 H 0.52486 0.54969 0.04116 0.0
H2448 H 0.69525 0.55168 0.0839 0.0
H2449 H 0.62873 0.58093 0.06683 0.0
H2450 H 0.52367 0.52171 0.94678 0.0
H2451 H 0.57352 0.51965 0.01836 0.0
H2452 H 0.68186 0.58766 0.98311 0.0
H2453 H 0.7771 0.5643 -0.0002 0.0
H2454 H 0.71519 0.6003 0.01165 0.0
H2455 H 0.80856 0.5773 0.02827 0.0
H2456 H 0.71368 0.55738 0.90673 0.0
H2457 H 0.58193 0.5566 0.92361 0.0
H2458 H 0.69599 0.56436 0.86648 0.0
H2459 H 0.56653 0.5637 0.88309 0.0
H2460 H 0.78449 0.5302 0.90477 0.0
H2461 H 0.84926 0.5588 0.92823 0.0
H2462 H 0.58057 0.60167 0.9538 0.0
H2463 H 0.69299 0.5979 0.91166 0.0
Li2464 Li 0.39073 0.43733 0.74383 0.0
Li2465 Li 0.37275 0.42915 0.70597 0.0
Li2466 Li 0.42875 0.4427 0.70676 0.0
Li2467 Li 0.35594 0.44778 0.71262 0.0
C2468 C 0.43897 0.41846 0.72992 0.0
N2469 N 0.46234 0.39794 0.74337 0.0
C2470 C 0.41327 0.41243 0.74507 0.0
C2471 C 0.47662 0.41407 0.72165 0.0
C2472 C 0.42553 0.40206 0.75159 0.0
C2473 C 0.48797 0.40369 0.72873 0.0
C2474 C 0.29981 0.42881 0.73127 0.0
C2475 C 0.23644 0.42189 0.71346 0.0
N2476 N 0.22994 0.41569 0.73315 0.0
C2477 C 0.29237 0.42243 0.75142 0.0
C2478 C 0.27152 0.42861 0.71222 0.0
C2479 C 0.2569 0.41584 0.75199 0.0
C2480 C 0.35719 0.44124 0.78717 0.0
N2481 N 0.39042 0.43603 0.77732 0.0
C2482 C 0.41134 0.42933 0.81548 0.0
C2483 C 0.4179 0.43029 0.79085 0.0
C2484 C 0.37652 0.43442 0.82587 0.0
C2485 C 0.34954 0.44053 0.81157 0.0
H2486 H 0.33608 0.44577 0.77585 0.0
H2487 H 0.44431 0.42632 0.78252 0.0
C2488 C 0.38102 0.41431 0.66933 0.0
N2489 N 0.36239 0.41561 0.69101 0.0
C2490 C 0.38596 0.40403 0.65964 0.0
C2491 C 0.35061 0.39668 0.6942 0.0
C2492 C 0.34615 0.40709 0.70318 0.0
C2493 C 0.3719 0.39509 0.67259 0.0
H2494 H 0.39468 0.42118 0.66037 0.0
H2495 H 0.33275 0.40823 0.72068 0.0
C2496 C 0.43568 0.45653 0.74611 0.0
N2497 N 0.49644 0.46556 0.77501 0.0
C2498 C 0.43108 0.46706 0.7544 0.0
C2499 C 0.47108 0.45056 0.75258 0.0
C2500 C 0.46218 0.47149 0.76897 0.0
C2501 C 0.50148 0.45528 0.76719 0.0
C2502 C 0.36692 0.44773 0.66594 0.0
C2503 C 0.38976 0.45675 0.65865 0.0
C2504 C 0.32866 0.44535 0.65496 0.0
C2505 C 0.37355 0.46335 0.64068 0.0
C2506 C 0.31352 0.45216 0.63706 0.0
N2507 N 0.33607 0.46094 0.63036 0.0
C2508 C 0.49185 0.43848 0.67551 0.0
C2509 C 0.50026 0.45566 0.69344 0.0
C2510 C 0.52619 0.44027 0.66068 0.0
N2511 N 0.47956 0.44613 0.69135 0.0
C2512 C 0.53513 0.45777 0.679 0.0
C2513 C 0.54785 0.45003 0.66224 0.0
H2514 H 0.47412 0.43109 0.674 0.0
H2515 H 0.48909 0.46171 0.70575 0.0
C2516 C 0.28154 0.45924 0.72192 0.0
N2517 N 0.31978 0.45983 0.71122 0.0
C2518 C 0.26108 0.46863 0.72914 0.0
C2519 C 0.31862 0.47902 0.71294 0.0
C2520 C 0.33808 0.46944 0.70617 0.0
C2521 C 0.28052 0.4786 0.72536 0.0
H2522 H 0.26863 0.4515 0.72672 0.0
H2523 H 0.36948 0.46966 0.69888 0.0
O2524 O 0.42775 0.42866 0.7234 0.0
O2525 O 0.33431 0.43533 0.7304 0.0
O2526 O 0.4052 0.45209 0.73204 0.0
O2527 O 0.38208 0.44121 0.68361 0.0
H2528 H 0.38409 0.41573 0.75166 0.0
H2529 H 0.49697 0.41865 0.70999 0.0
H2530 H 0.40582 0.39729 0.76322 0.0
H2531 H 0.51703 0.40019 0.72248 0.0
H2532 H 0.21436 0.42162 0.6988 0.0
H2533 H 0.31382 0.42254 0.7664 0.0
H2534 H 0.27662 0.43359 0.69666 0.0
H2535 H 0.25083 0.41082 0.76741 0.0
H2536 H 0.43274 0.42461 0.82625 0.0
H2537 H 0.32257 0.44457 0.81919 0.0
H2538 H 0.40289 0.40301 0.64301 0.0
H2539 H 0.33985 0.38989 0.70467 0.0
H2540 H 0.40371 0.47176 0.74962 0.0
H2541 H 0.47514 0.44239 0.74641 0.0
H2542 H 0.45906 0.47964 0.77551 0.0
H2543 H 0.52906 0.45077 0.77233 0.0
H2544 H 0.41947 0.45869 0.66693 0.0
H2545 H 0.31095 0.43831 0.66015 0.0
H2546 H 0.39076 0.47039 0.63496 0.0
H2547 H 0.28387 0.45044 0.62845 0.0
H2548 H 0.53541 0.43419 0.64786 0.0
H2549 H 0.55137 0.46539 0.68044 0.0
H2550 H 0.23187 0.46809 0.73896 0.0
H2551 H 0.33453 0.48661 0.71013 0.0
Li2552 Li 0.35926 0.31852 0.70683 0.0
Li2553 Li 0.32677 0.31262 0.74547 0.0
Li2554 Li 0.36464 0.29998 0.7218 0.0
Li2555 Li 0.29847 0.30595 0.7088 0.0
C2556 C 0.42442 0.31049 0.74481 0.0
N2557 N 0.50099 0.30351 0.76192 0.0
C2558 C 0.4271 0.30562 0.76727 0.0
C2559 C 0.46065 0.31186 0.73109 0.0
C2560 C 0.46612 0.30214 0.7756 0.0
C2561 C 0.49908 0.30826 0.74005 0.0
C2562 C 0.2835 0.32928 0.73241 0.0
C2563 C 0.23157 0.33553 0.76053 0.0
N2564 N 0.24933 0.34548 0.76008 0.0
C2565 C 0.30111 0.33958 0.73215 0.0
C2566 C 0.24832 0.32725 0.74662 0.0
C2567 C 0.28341 0.34765 0.74628 0.0
C2568 C 0.35679 0.33356 0.6707 0.0
N2569 N 0.37947 0.33065 0.69012 0.0
C2570 C 0.41729 0.34719 0.68884 0.0
C2571 C 0.40948 0.33717 0.69927 0.0
C2572 C 0.39471 0.3506 0.66833 0.0
C2573 C 0.36339 0.3435 0.65978 0.0
H2574 H 0.33166 0.3284 0.66457 0.0
H2575 H 0.42548 0.3349 0.71555 0.0
C2576 C 0.30998 0.30891 0.7937 0.0
N2577 N 0.32193 0.31662 0.77789 0.0
C2578 C 0.31878 0.31013 0.81795 0.0
C2579 C 0.34963 0.32749 0.80935 0.0
C2580 C 0.34061 0.32589 0.78519 0.0
C2581 C 0.34016 0.31933 0.82577 0.0
H2582 H 0.29679 0.30145 0.78727 0.0
H2583 H 0.35144 0.33165 0.7721 0.0
C2584 C 0.37957 0.2997 0.67513 0.0
N2585 N 0.43849 0.28931 0.64718 0.0
C2586 C 0.37519 0.28875 0.67 0.0
C2587 C 0.4139 0.30536 0.66599 0.0
C2588 C 0.40533 0.28364 0.65585 0.0
C2589 C 0.44334 0.29997 0.6519 0.0
C2590 C 0.27769 0.29083 0.73669 0.0
C2591 C 0.28178 0.28121 0.72395 0.0
C2592 C 0.23934 0.29339 0.74737 0.0
C2593 C 0.24722 0.27436 0.72191 0.0
C2594 C 0.20551 0.28633 0.7449 0.0
N2595 N 0.21011 0.27705 0.73231 0.0
C2596 C 0.38674 0.28122 0.74505 0.0
C2597 C 0.43791 0.28597 0.71617 0.0
C2598 C 0.40988 0.27224 0.75182 0.0
N2599 N 0.40051 0.28779 0.72724 0.0
C2600 C 0.46222 0.27703 0.72243 0.0
C2601 C 0.44789 0.27007 0.74038 0.0
H2602 H 0.35795 0.28302 0.75437 0.0
H2603 H 0.44924 0.29151 0.7028 0.0
C2604 C 0.21535 0.30893 0.69218 0.0
N2605 N 0.24969 0.30247 0.69085 0.0
C2606 C 0.18193 0.30745 0.6764 0.0
C2607 C 0.21924 0.29247 0.6588 0.0
C2608 C 0.25197 0.29427 0.67484 0.0
C2609 C 0.18431 0.29929 0.65918 0.0
H2610 H 0.21467 0.31551 0.70479 0.0
H2611 H 0.27981 0.28936 0.67395 0.0
O2612 O 0.38641 0.31375 0.73614 0.0
O2613 O 0.30071 0.32122 0.71897 0.0
O2614 O 0.35018 0.30488 0.68873 0.0
O2615 O 0.31089 0.29776 0.73838 0.0
H2616 H 0.39929 0.30444 0.77804 0.0
H2617 H 0.45899 0.31555 0.71359 0.0
H2618 H 0.46865 0.29831 0.7929 0.0
H2619 H 0.52737 0.30921 0.72958 0.0
H2620 H 0.20449 0.33405 0.7717 0.0
H2621 H 0.32825 0.34133 0.72127 0.0
H2622 H 0.23428 0.31934 0.74705 0.0
H2623 H 0.29682 0.35565 0.7463 0.0
H2624 H 0.43909 0.35238 0.69805 0.0
H2625 H 0.34179 0.34555 0.64578 0.0
H2626 H 0.31136 0.30368 0.83026 0.0
H2627 H 0.36639 0.33464 0.81493 0.0
H2628 H 0.34926 0.28418 0.67717 0.0
H2629 H 0.41792 0.31382 0.66976 0.0
H2630 H 0.40245 0.27516 0.65188 0.0
H2631 H 0.47009 0.30425 0.64476 0.0
H2632 H 0.31116 0.27913 0.71545 0.0
H2633 H 0.23569 0.30077 0.75739 0.0
H2634 H 0.24987 0.26693 0.71197 0.0
H2635 H 0.17558 0.28824 0.75297 0.0
H2636 H 0.39841 0.26707 0.76596 0.0
H2637 H 0.49185 0.27559 0.71352 0.0
H2638 H 0.15531 0.31286 0.67695 0.0
H2639 H 0.22186 0.28613 0.64559 0.0
Li2640 Li 0.37014 0.29935 0.03119 0.0
Li2641 Li 0.44195 0.3038 0.04157 0.0
Li2642 Li 0.38529 0.31824 0.03951 0.0
Li2643 Li 0.41108 0.30935 0.00381 0.0
C2644 C 0.36058 0.30135 0.0763 0.0
N2645 N 0.2988 0.29184 0.10368 0.0
C2646 C 0.36866 0.2917 0.08822 0.0
C2647 C 0.32118 0.30619 0.07833 0.0
C2648 C 0.33697 0.28701 0.10197 0.0
C2649 C 0.29033 0.30125 0.09226 0.0
C2650 C 0.44618 0.28776 0.0025 0.0
C2651 C 0.51389 0.28162 0.98889 0.0
N2652 N 0.49484 0.27372 0.97604 0.0
C2653 C 0.42731 0.27949 0.98938 0.0
C2654 C 0.48985 0.28876 0.00247 0.0
C2655 C 0.45243 0.27252 0.97603 0.0
C2656 C 0.29024 0.28876 0.02722 0.0
N2657 N 0.33162 0.28768 0.03268 0.0
C2658 C 0.32757 0.26861 0.02873 0.0
C2659 C 0.34996 0.27786 0.03465 0.0
C2660 C 0.28615 0.26959 0.02074 0.0
C2661 C 0.26672 0.27971 0.0209 0.0
H2662 H 0.27638 0.29667 0.02593 0.0
H2663 H 0.38293 0.27728 0.03903 0.0
C2664 C 0.51884 0.30737 0.06379 0.0
N2665 N 0.4894 0.29972 0.05942 0.0
C2666 C 0.55123 0.30533 0.07988 0.0
C2667 C 0.52304 0.28747 0.08612 0.0
C2668 C 0.49121 0.28984 0.06977 0.0
C2669 C 0.55293 0.29537 0.09155 0.0
H2670 H 0.51616 0.31519 0.05549 0.0
H2671 H 0.46705 0.28397 0.06601 0.0
C2672 C 0.32437 0.30972 0.99529 0.0
N2673 N 0.26764 0.30434 0.95989 0.0
C2674 C 0.33066 0.30053 0.98134 0.0
C2675 C 0.28939 0.31622 0.99109 0.0
C2676 C 0.3016 0.29793 0.96358 0.0
C2677 C 0.26105 0.31337 0.97312 0.0
C2678 C 0.46705 0.32489 0.01223 0.0
C2679 C 0.46027 0.336 0.01228 0.0
C2680 C 0.49801 0.32055 0.99741 0.0
C2681 C 0.48405 0.34255 0.99719 0.0
C2682 C 0.52107 0.32736 0.98253 0.0
N2683 N 0.51366 0.33813 0.98271 0.0
C2684 C 0.38461 0.33502 0.07325 0.0
C2685 C 0.3526 0.33889 0.0359 0.0
C2686 C 0.3836 0.34589 0.07956 0.0
N2687 N 0.37018 0.33183 0.0515 0.0
C2688 C 0.35143 0.34982 0.04136 0.0
C2689 C 0.36841 0.35343 0.06304 0.0
H2690 H 0.3993 0.32922 0.08499 0.0
H2691 H 0.34251 0.33613 0.0185 0.0
C2692 C 0.42547 0.3049 0.9538 0.0
N2693 N 0.41684 0.31251 0.97054 0.0
C2694 C 0.41732 0.30694 0.92971 0.0
C2695 C 0.39506 0.32491 0.94033 0.0
C2696 C 0.40293 0.32246 0.96424 0.0
C2697 C 0.40057 0.31692 0.92298 0.0
H2698 H 0.43588 0.29702 0.9591 0.0
H2699 H 0.39522 0.32826 0.97796 0.0
O2700 O 0.39061 0.3059 0.06211 0.0
O2701 O 0.42202 0.29456 0.01592 0.0
O2702 O 0.35189 0.31231 0.01318 0.0
O2703 O 0.4438 0.31835 0.0268 0.0
H2704 H 0.39893 0.28782 0.08669 0.0
H2705 H 0.3144 0.31363 0.06904 0.0
H2706 H 0.3427 0.27951 0.11122 0.0
H2707 H 0.25962 0.30488 0.09393 0.0
H2708 H 0.54772 0.28233 0.98866 0.0
H2709 H 0.39359 0.27848 0.98935 0.0
H2710 H 0.50514 0.2949 0.01297 0.0
H2711 H 0.43821 0.26614 0.96568 0.0
H2712 H 0.34322 0.26088 0.02879 0.0
H2713 H 0.23465 0.28065 0.01485 0.0
H2714 H 0.57382 0.31159 0.08389 0.0
H2715 H 0.52357 0.27973 0.09503 0.0
H2716 H 0.35745 0.2954 0.98436 0.0
H2717 H 0.28404 0.32336 0.00172 0.0
H2718 H 0.30602 0.29082 0.95275 0.0
H2719 H 0.23376 0.31831 0.96972 0.0
H2720 H 0.43711 0.33956 0.02392 0.0
H2721 H 0.5038 0.312 0.99712 0.0
H2722 H 0.47901 0.35116 0.99702 0.0
H2723 H 0.54484 0.32408 0.97081 0.0
H2724 H 0.39682 0.34847 0.09645 0.0
H2725 H 0.33953 0.35548 0.02827 0.0
H2726 H 0.42193 0.30062 0.91664 0.0
H2727 H 0.38214 0.33268 0.93562 0.0
Li2728 Li 0.36078 0.45316 0.0292 0.0
Li2729 Li 0.296 0.44707 0.04345 0.0
Li2730 Li 0.35618 0.4342 0.0417 0.0
Li2731 Li 0.31974 0.44117 0.0052 0.0
C2732 C 0.38134 0.45196 0.07506 0.0
N2733 N 0.44479 0.46128 0.10162 0.0
C2734 C 0.37846 0.46274 0.08199 0.0
C2735 C 0.41645 0.44592 0.08169 0.0
C2736 C 0.4109 0.4673 0.09539 0.0
C2737 C 0.44819 0.45077 0.09511 0.0
C2738 C 0.27357 0.46301 0.01822 0.0
C2739 C 0.20183 0.46854 0.01211 0.0
N2740 N 0.20806 0.47701 0.02706 0.0
C2741 C 0.27936 0.47183 0.03336 0.0
C2742 C 0.23461 0.46139 0.00734 0.0
C2743 C 0.24583 0.4788 0.03766 0.0
C2744 C 0.38214 0.47255 0.00818 0.0
N2745 N 0.39727 0.46526 0.02415 0.0
C2746 C 0.46163 0.47508 0.02729 0.0
C2747 C 0.43652 0.46628 0.03351 0.0
C2748 C 0.44619 0.48272 0.01109 0.0
C2749 C 0.40608 0.4814 0.00146 0.0
H2750 H 0.35169 0.4714 0.00015 0.0
H2751 H 0.44873 0.46019 0.04536 0.0
C2752 C 0.21215 0.44491 0.05945 0.0
N2753 N 0.24878 0.45029 0.06292 0.0
C2754 C 0.1788 0.44632 0.07529 0.0
C2755 C 0.22105 0.45902 0.09751 0.0
C2756 C 0.25366 0.45732 0.08133 0.0
C2757 C 0.18353 0.45329 0.09476 0.0
H2758 H 0.20928 0.43929 0.04485 0.0
H2759 H 0.28322 0.4614 0.08378 0.0
C2760 C 0.41737 0.44286 0.00264 0.0
N2761 N 0.49297 0.44934 0.98335 0.0
C2762 C 0.4182 0.44853 0.98109 0.0
C2763 C 0.4549 0.44043 0.01434 0.0
C2764 C 0.45676 0.45175 0.97163 0.0
C2765 C 0.49283 0.4438 0.00431 0.0
C2766 C 0.27475 0.42463 0.01822 0.0
C2767 C 0.28664 0.41381 0.01876 0.0
C2768 C 0.24078 0.42778 0.00405 0.0
C2769 C 0.2647 0.40635 0.00491 0.0
C2770 C 0.21968 0.42009 0.99039 0.0
N2771 N 0.23198 0.40962 0.99109 0.0
C2772 C 0.36523 0.41775 0.07583 0.0
C2773 C 0.39683 0.41452 0.03809 0.0
C2774 C 0.36878 0.40688 0.08186 0.0
N2775 N 0.37798 0.42122 0.05396 0.0
C2776 C 0.40028 0.40357 0.0432 0.0
C2777 C 0.38438 0.39961 0.06485 0.0
H2778 H 0.34931 0.42324 0.08777 0.0
H2779 H 0.40544 0.41747 0.02058 0.0
C2780 C 0.29955 0.44509 0.95708 0.0
N2781 N 0.31231 0.43746 0.97287 0.0
C2782 C 0.30639 0.44362 0.93267 0.0
C2783 C 0.3374 0.42627 0.94131 0.0
C2784 C 0.33007 0.42808 0.96554 0.0
C2785 C 0.32674 0.43427 0.9248 0.0
H2786 H 0.28714 0.45264 0.96355 0.0
H2787 H 0.34143 0.42238 0.97864 0.0
O2788 O 0.34978 0.4473 0.06211 0.0
O2789 O 0.30575 0.45594 0.01435 0.0
O2790 O 0.37992 0.43981 0.01239 0.0
O2791 O 0.29613 0.43208 0.03153 0.0
H2792 H 0.3518 0.46758 0.07685 0.0
H2793 H 0.41932 0.43758 0.07645 0.0
H2794 H 0.40918 0.47565 0.10076 0.0
H2795 H 0.47557 0.4462 0.10031 0.0
H2796 H 0.17144 0.46734 0.00392 0.0
H2797 H 0.30931 0.4732 0.04194 0.0
H2798 H 0.22966 0.45468 0.99539 0.0
H2799 H 0.24979 0.48561 0.04948 0.0
H2800 H 0.49282 0.47586 0.03477 0.0
H2801 H 0.39362 0.48712 0.98868 0.0
H2802 H 0.15012 0.44177 0.07283 0.0
H2803 H 0.22548 0.46444 0.11245 0.0
H2804 H 0.38934 0.45053 0.97193 0.0
H2805 H 0.45467 0.43607 0.03109 0.0
H2806 H 0.45791 0.45619 0.95503 0.0
H2807 H 0.52216 0.44203 0.01322 0.0
H2808 H 0.31237 0.41118 0.02981 0.0
H2809 H 0.23112 0.4361 0.0034 0.0
H2810 H 0.27366 0.39796 0.00517 0.0
H2811 H 0.19355 0.42244 0.97922 0.0
H2812 H 0.35638 0.40403 0.09874 0.0
H2813 H 0.41251 0.39815 0.02974 0.0
H2814 H 0.29837 0.44997 0.92024 0.0
H2815 H 0.35366 0.41905 0.93567 0.0
C2816 C 0.15274 0.0689 0.11436 0.0
C2817 C 0.12366 0.06748 0.09548 0.0
C2818 C 0.06565 0.06771 0.12425 0.0
C2819 C 0.0951 0.06759 0.1432 0.0
N2820 N 0.16721 0.06629 0.15637 0.0
N2821 N 0.05263 0.06382 0.08259 0.0
C2822 C 0.13886 0.06777 0.13832 0.0
C2823 C 0.08006 0.06649 0.10041 0.0
N2824 N 0.19348 0.07151 0.10939 0.0
N2825 N 0.02396 0.06915 0.12903 0.0
H2826 H 0.06181 0.06266 0.06492 0.0
H2827 H 0.02137 0.06181 0.08568 0.0
H2828 H 0.01238 0.07012 0.14634 0.0
H2829 H 0.00153 0.07039 0.11578 0.0
H2830 H 0.21509 0.07369 0.12248 0.0
H2831 H 0.20458 0.07251 0.09199 0.0
H2832 H 0.19918 0.06516 0.15342 0.0
H2833 H 0.15854 0.06522 0.17416 0.0
C2834 C 0.16128 0.18999 0.10533 0.0
C2835 C 0.12196 0.18511 0.10029 0.0
C2836 C 0.11061 0.18175 0.14288 0.0
C2837 C 0.15094 0.18611 0.14776 0.0
N2838 N 0.21787 0.1925 0.13377 0.0
N2839 N 0.0624 0.1747 0.11319 0.0
C2840 C 0.17731 0.18964 0.12898 0.0
C2841 C 0.09758 0.18047 0.11877 0.0
N2842 N 0.18247 0.19534 0.0877 0.0
N2843 N 0.08414 0.17926 0.16131 0.0
H2844 H 0.05171 0.17375 0.09569 0.0
H2845 H 0.04571 0.17015 0.12559 0.0
H2846 H 0.09268 0.17993 0.17924 0.0
H2847 H 0.05271 0.17725 0.15894 0.0
H2848 H 0.20887 0.20006 0.09082 0.0
H2849 H 0.17182 0.19579 0.07011 0.0
H2850 H 0.24005 0.19408 0.12056 0.0
H2851 H 0.23046 0.19239 0.15098 0.0
C2852 C 0.90947 0.9282 0.88628 0.0
C2853 C 0.87712 0.93517 0.8943 0.0
C2854 C 0.86318 0.94077 0.85313 0.0
C2855 C 0.89871 0.93479 0.84552 0.0
N2856 N 0.95814 0.92353 0.85457 0.0
N2857 N 0.82592 0.94898 0.88618 0.0
C2858 C 0.92246 0.92864 0.862 0.0
C2859 C 0.85449 0.94165 0.87793 0.0
N2860 N 0.92716 0.92104 0.90185 0.0
N2861 N 0.83729 0.94541 0.83658 0.0
H2862 H 0.81814 0.94974 0.9042 0.0
H2863 H 0.81211 0.95483 0.87544 0.0
H2864 H 0.84282 0.94503 0.81823 0.0
H2865 H 0.80849 0.94887 0.84084 0.0
H2866 H 0.94791 0.91501 0.89667 0.0
H2867 H 0.91839 0.92052 0.91978 0.0
H2868 H 0.97944 0.91993 0.86617 0.0
H2869 H 0.96808 0.92353 0.83681 0.0
C2870 C 0.85844 0.79897 0.88664 0.0
C2871 C 0.86246 0.80905 0.89828 0.0
C2872 C 0.84905 0.81848 0.86062 0.0
C2873 C 0.84304 0.8084 0.84924 0.0
N2874 N 0.83507 0.78917 0.85156 0.0
N2875 N 0.85528 0.82836 0.89783 0.0
C2876 C 0.84561 0.79866 0.86234 0.0
C2877 C 0.85587 0.81881 0.88569 0.0
N2878 N 0.86807 0.78972 0.89868 0.0
N2879 N 0.84972 0.8277 0.84728 0.0
H2880 H 0.8613 0.82893 0.91611 0.0
H2881 H 0.84594 0.83561 0.89023 0.0
H2882 H 0.84357 0.82782 0.82898 0.0
H2883 H 0.85895 0.83515 0.85397 0.0
H2884 H 0.8702 0.7822 0.89059 0.0
H2885 H 0.87705 0.78964 0.9166 0.0
H2886 H 0.83218 0.7819 0.86065 0.0
H2887 H 0.82577 0.78868 0.83371 0.0
C2888 C 0.16389 0.56407 0.64377 0.0
C2889 C 0.12036 0.56494 0.64902 0.0
C2890 C 0.10416 0.56496 0.60628 0.0
C2891 C 0.14781 0.56497 0.60109 0.0
N2892 N 0.21917 0.56684 0.61471 0.0
N2893 N 0.0499 0.56852 0.63555 0.0
C2894 C 0.17768 0.56525 0.61981 0.0
C2895 C 0.09072 0.5661 0.63033 0.0
N2896 N 0.19188 0.56157 0.66143 0.0
N2897 N 0.07556 0.56333 0.58843 0.0
H2898 H 0.03908 0.56953 0.65301 0.0
H2899 H 0.0278 0.57054 0.62258 0.0
H2900 H 0.08397 0.56228 0.57058 0.0
H2901 H 0.04373 0.56207 0.59158 0.0
H2902 H 0.22317 0.55966 0.65813 0.0
H2903 H 0.18316 0.56044 0.67918 0.0
H2904 H 0.24181 0.56823 0.62778 0.0
H2905 H 0.23035 0.56779 0.59731 0.0
C2906 C 0.10194 0.69007 0.64645 0.0
C2907 C 0.13688 0.68376 0.65363 0.0
C2908 C 0.14752 0.67774 0.61242 0.0
C2909 C 0.1117 0.68376 0.60545 0.0
N2910 N 0.05027 0.69401 0.61585 0.0
N2911 N 0.18905 0.67032 0.64489 0.0
C2912 C 0.08744 0.68941 0.62252 0.0
C2913 C 0.15848 0.67717 0.63703 0.0
N2914 N 0.08352 0.69697 0.66234 0.0
N2915 N 0.17177 0.67287 0.5954 0.0
H2916 H 0.19853 0.66994 0.66272 0.0
H2917 H 0.20302 0.66448 0.63419 0.0
H2918 H 0.16391 0.67281 0.5773 0.0
H2919 H 0.20087 0.66942 0.59891 0.0
H2920 H 0.06113 0.70267 0.6576 0.0
H2921 H 0.0928 0.69756 0.68015 0.0
H2922 H 0.02886 0.69728 0.62787 0.0
H2923 H 0.03902 0.69379 0.59834 0.0
C2924 C 0.82349 0.4261 0.38263 0.0
C2925 C 0.85021 0.42983 0.40107 0.0
C2926 C 0.90633 0.43307 0.372 0.0
C2927 C 0.87787 0.43066 0.35334 0.0
N2928 N 0.8083 0.42576 0.34019 0.0
N2929 N 0.91555 0.43794 0.41355 0.0
C2930 C 0.8362 0.42732 0.35844 0.0
C2931 C 0.89141 0.43353 0.39587 0.0
N2932 N 0.78626 0.42127 0.38833 0.0
N2933 N 0.94773 0.4348 0.36685 0.0
H2934 H 0.90601 0.43836 0.43134 0.0
H2935 H 0.94374 0.44192 0.41038 0.0
H2936 H 0.95953 0.43458 0.34946 0.0
H2937 H 0.97096 0.4355 0.37984 0.0
H2938 H 0.76727 0.41739 0.37589 0.0
H2939 H 0.77597 0.42036 0.40591 0.0
H2940 H 0.7763 0.42456 0.3428 0.0
H2941 H 0.81655 0.42637 0.32221 0.0
C2942 C 0.89258 0.32056 0.3546 0.0
C2943 C 0.84903 0.3208 0.34914 0.0
C2944 C 0.83207 0.321 0.39178 0.0
C2945 C 0.87563 0.3214 0.39718 0.0
N2946 N 0.94683 0.324 0.38396 0.0
N2947 N 0.77771 0.32354 0.36199 0.0
C2948 C 0.90574 0.32197 0.37862 0.0
C2949 C 0.81887 0.32176 0.3676 0.0
N2950 N 0.9213 0.31841 0.33707 0.0
N2951 N 0.80342 0.31932 0.40958 0.0
H2952 H 0.76707 0.32414 0.3444 0.0
H2953 H 0.75491 0.32539 0.37467 0.0
H2954 H 0.81165 0.31867 0.42753 0.0
H2955 H 0.77185 0.31771 0.40639 0.0
H2956 H 0.95287 0.31691 0.34052 0.0
H2957 H 0.91315 0.3172 0.31924 0.0
H2958 H 0.96953 0.32558 0.37104 0.0
H2959 H 0.95744 0.32512 0.40143 0.0
C2960 C 0.57739 0.06886 0.62883 0.0
C2961 C 0.60508 0.06561 0.64726 0.0
C2962 C 0.66155 0.06314 0.61809 0.0
C2963 C 0.6326 0.06516 0.59943 0.0
N2964 N 0.5614 0.06846 0.58653 0.0
N2965 N 0.67132 0.05788 0.65931 0.0
C2966 C 0.59007 0.06768 0.60463 0.0
C2967 C 0.64667 0.0623 0.64189 0.0
N2968 N 0.53933 0.07324 0.63448 0.0
N2969 N 0.70337 0.06221 0.61307 0.0
H2970 H 0.66133 0.05691 0.67692 0.0
H2971 H 0.70018 0.05426 0.65589 0.0
H2972 H 0.71534 0.06282 0.59576 0.0
H2973 H 0.7265 0.06183 0.62619 0.0
H2974 H 0.5196 0.07681 0.62194 0.0
H2975 H 0.52897 0.07413 0.65206 0.0
H2976 H 0.52919 0.06904 0.58938 0.0
H2977 H 0.56934 0.06767 0.56855 0.0
C2978 C 0.65609 0.17856 0.63315 0.0
C2979 C 0.63564 0.18485 0.65076 0.0
C2980 C 0.58917 0.19263 0.62046 0.0
C2981 C 0.6091 0.1862 0.60291 0.0
N2982 N 0.65505 0.17152 0.59269 0.0
N2983 N 0.57709 0.19595 0.66255 0.0
C2984 C 0.64053 0.17865 0.60935 0.0
C2985 C 0.60032 0.19128 0.64482 0.0
N2986 N 0.69127 0.17285 0.63901 0.0
N2987 N 0.56099 0.20035 0.61372 0.0
H2988 H 0.5845 0.1952 0.68062 0.0
H2989 H 0.54851 0.19978 0.65959 0.0
H2990 H 0.55127 0.20142 0.59607 0.0
H2991 H 0.54928 0.20618 0.6253 0.0
H2992 H 0.71043 0.16907 0.6265 0.0
H2993 H 0.703 0.17244 0.6564 0.0
H2994 H 0.67502 0.16515 0.5967 0.0
H2995 H 0.64426 0.17141 0.57508 0.0
C2996 C 0.35623 0.94183 0.37876 0.0
C2997 C 0.37738 0.93551 0.39606 0.0
C2998 C 0.42656 0.92902 0.3656 0.0
C2999 C 0.40444 0.93503 0.34817 0.0
N3000 N 0.34322 0.94525 0.33679 0.0
N3001 N 0.427 0.92153 0.40566 0.0
C3002 C 0.36766 0.94085 0.35434 0.0
C3003 C 0.41084 0.9286 0.38936 0.0
N3004 N 0.32648 0.9491 0.38577 0.0
N3005 N 0.46328 0.92401 0.35961 0.0
H3006 H 0.4161 0.92103 0.42321 0.0
H3007 H 0.44858 0.91556 0.40136 0.0
H3008 H 0.47524 0.924 0.34225 0.0
H3009 H 0.48338 0.92051 0.37204 0.0
H3010 H 0.3136 0.95484 0.37438 0.0
H3011 H 0.31674 0.94995 0.40346 0.0
H3012 H 0.31376 0.94858 0.33993 0.0
H3013 H 0.35068 0.94475 0.31869 0.0
C3014 C 0.4119 0.80967 0.37474 0.0
C3015 C 0.38619 0.81476 0.39202 0.0
C3016 C 0.33619 0.82015 0.36091 0.0
C3017 C 0.36236 0.81525 0.34357 0.0
N3018 N 0.42841 0.80708 0.33288 0.0
N3019 N 0.32833 0.82643 0.40178 0.0
C3020 C 0.40134 0.81057 0.35017 0.0
C3021 C 0.34966 0.82051 0.38513 0.0
N3022 N 0.44541 0.8036 0.38193 0.0
N3023 N 0.29804 0.8242 0.35425 0.0
H3024 H 0.33728 0.82678 0.4197 0.0
H3025 H 0.30384 0.83164 0.39764 0.0
H3026 H 0.28796 0.82441 0.33652 0.0
H3027 H 0.27531 0.82678 0.36631 0.0
H3028 H 0.46233 0.79859 0.37057 0.0
H3029 H 0.4549 0.80302 0.39973 0.0
H3030 H 0.45915 0.8047 0.33626 0.0
H3031 H 0.42123 0.80731 0.31474 0.0
C3032 C 0.61347 0.56026 0.11123 0.0
C3033 C 0.64598 0.56725 0.10351 0.0
C3034 C 0.64899 0.5754 0.14328 0.0
C3035 C 0.62093 0.5674 0.15175 0.0
N3036 N 0.57945 0.55148 0.14465 0.0
N3037 N 0.69739 0.58093 0.11217 0.0
C3038 C 0.60366 0.55967 0.13593 0.0
C3039 C 0.66431 0.57474 0.11948 0.0
N3040 N 0.59141 0.55436 0.09488 0.0
N3041 N 0.66046 0.58368 0.15797 0.0
H3042 H 0.70918 0.58072 0.09479 0.0
H3043 H 0.71512 0.58567 0.12369 0.0
H3044 H 0.64958 0.58438 0.17549 0.0
H3045 H 0.67759 0.59032 0.15223 0.0
H3046 H 0.56454 0.54999 0.09912 0.0
H3047 H 0.59765 0.55458 0.07658 0.0
H3048 H 0.57021 0.54489 0.13445 0.0
H3049 H 0.57101 0.55084 0.1626 0.0
C3050 C 0.64936 0.6775 0.13452 0.0
C3051 C 0.63222 0.68479 0.15134 0.0
C3052 C 0.58449 0.69204 0.12093 0.0
C3053 C 0.60478 0.68557 0.1036 0.0
N3054 N 0.65688 0.67237 0.09287 0.0
N3055 N 0.58479 0.69927 0.16121 0.0
C3056 C 0.6371 0.67828 0.11015 0.0
C3057 C 0.59987 0.69209 0.14477 0.0
N3058 N 0.67703 0.66978 0.14197 0.0
N3059 N 0.55038 0.69806 0.11453 0.0
H3060 H 0.59398 0.69928 0.17909 0.0
H3061 H 0.56486 0.70562 0.15705 0.0
H3062 H 0.53897 0.69839 0.09707 0.0
H3063 H 0.53137 0.70214 0.12663 0.0
H3064 H 0.68748 0.6635 0.13125 0.0
H3065 H 0.68766 0.66923 0.15956 0.0
H3066 H 0.68396 0.66789 0.09581 0.0
H3067 H 0.64725 0.67231 0.07505 0.0
C3068 C 0.38913 0.43983 0.8684 0.0
C3069 C 0.36729 0.43336 0.85168 0.0
C3070 C 0.31888 0.42729 0.88294 0.0
C3071 C 0.34157 0.4335 0.89979 0.0
N3072 N 0.40324 0.44379 0.91002 0.0
N3073 N 0.31711 0.41935 0.84334 0.0
C3074 C 0.3783 0.43919 0.89295 0.0
C3075 C 0.3339 0.42658 0.85908 0.0
N3076 N 0.41896 0.44694 0.86068 0.0
N3077 N 0.28226 0.4224 0.88958 0.0
H3078 H 0.32747 0.41863 0.82572 0.0
H3079 H 0.29553 0.41346 0.84818 0.0
H3080 H 0.27079 0.42261 0.90703 0.0
H3081 H 0.26176 0.41877 0.87756 0.0
H3082 H 0.43235 0.45279 0.87158 0.0
H3083 H 0.42835 0.44751 0.84287 0.0
H3084 H 0.43267 0.44704 0.90644 0.0
H3085 H 0.39619 0.44354 0.92821 0.0
C3086 C 0.32743 0.32094 0.8698 0.0
C3087 C 0.35613 0.31983 0.85065 0.0
C3088 C 0.41456 0.31891 0.87908 0.0
C3089 C 0.38538 0.31858 0.89817 0.0
N3090 N 0.31337 0.31757 0.9116 0.0
N3091 N 0.4265 0.31602 0.83688 0.0
C3092 C 0.34157 0.3192 0.89355 0.0
C3093 C 0.39966 0.3184 0.8552 0.0
N3094 N 0.28679 0.32381 0.8653 0.0
N3095 N 0.45646 0.31991 0.88379 0.0
H3096 H 0.41694 0.31542 0.81912 0.0
H3097 H 0.45756 0.31371 0.83952 0.0
H3098 H 0.46841 0.32038 0.90112 0.0
H3099 H 0.47887 0.32129 0.87059 0.0
H3100 H 0.26548 0.32582 0.87869 0.0
H3101 H 0.27545 0.32517 0.84807 0.0
H3102 H 0.28124 0.31672 0.90877 0.0
H3103 H 0.32224 0.31611 0.92922 0.0
C3104 C 0.24069 0.99096 0.25793 0.0
C3105 C 0.27468 0.99225 0.24181 0.0
C3106 C 0.2646 0.01179 0.24202 0.0
C3107 C 0.22833 0.0104 0.25635 0.0
N3108 N 0.17804 0.99872 0.27544 0.0
N3109 N 0.31583 0.00353 0.21575 0.0
C3110 C 0.21533 -0.0 0.26369 0.0
C3111 C 0.28582 0.00258 0.23309 0.0
N3112 N 0.23344 0.98117 0.26826 0.0
N3113 N 0.27921 0.02192 0.23739 0.0
H3114 H 0.33209 0.99695 0.20881 0.0
H3115 H 0.32227 0.01069 0.20682 0.0
H3116 H 0.2643 0.02885 0.2436 0.0
H3117 H 0.30787 0.02347 0.22916 0.0
H3118 H 0.21223 0.97998 0.28216 0.0
H3119 H 0.25095 0.97432 0.26419 0.0
H3120 H 0.16446 0.99126 0.27879 0.0
H3121 H 0.15897 0.00517 0.28039 0.0
C3122 C 0.01995 0.25915 0.25075 0.0
C3123 C 0.97637 0.25895 0.24568 0.0
C3124 C 0.97225 0.24021 0.25904 0.0
C3125 C 0.01639 0.24014 0.26217 0.0
N3126 N 0.08351 0.24883 0.25688 0.0
N3127 N 0.91214 0.24891 0.24086 0.0
C3128 C 0.04066 0.24942 0.25688 0.0
C3129 C 0.9528 0.24935 0.24863 0.0
N3130 N 0.04126 0.26869 0.25047 0.0
N3131 N 0.94885 0.23165 0.26662 0.0
H3132 H 0.89691 0.25543 0.23296 0.0
H3133 H 0.89469 0.24184 0.24025 0.0
H3134 H 0.96211 0.22481 0.27437 0.0
H3135 H 0.91619 0.23168 0.26715 0.0
H3136 H 0.07192 0.26953 0.25663 0.0
H3137 H 0.02725 0.27599 0.24586 0.0
H3138 H 0.10274 0.25498 0.25057 0.0
H3139 H 0.09997 0.24186 0.26128 0.0
C3140 C 0.25035 0.2494 0.97388 0.0
C3141 C 0.2295 0.24178 0.98851 0.0
C3142 C 0.24168 0.25303 0.02391 0.0
C3143 C 0.26518 0.26023 0.00957 0.0
N3144 N 0.29603 0.26498 0.97162 0.0
N3145 N 0.20831 0.23556 0.02754 0.0
C3146 C 0.27059 0.25835 0.98471 0.0
C3147 C 0.22597 0.24338 0.01358 0.0
N3148 N 0.25011 0.24815 0.94959 0.0
N3149 N 0.23371 0.25556 0.04726 0.0
H3150 H 0.19523 0.22854 0.02059 0.0
H3151 H 0.20888 0.23564 0.04613 0.0
H3152 H 0.24554 0.26246 0.05546 0.0
H3153 H 0.21307 0.25129 0.0581 0.0
H3154 H 0.26043 0.254 0.93767 0.0
H3155 H 0.237 0.24147 0.94114 0.0
H3156 H 0.30532 0.26338 0.95416 0.0
H3157 H 0.31024 0.27184 0.97867 0.0
C3158 C 0.98922 0.00187 0.97346 0.0
C3159 C 0.01478 0.00911 0.98649 0.0
C3160 C 0.00821 0.99793 0.02244 0.0
C3161 C 0.98108 0.99095 0.00972 0.0
N3162 N 0.94034 0.98692 0.97447 0.0
N3163 N 0.04379 0.01517 0.02398 0.0
C3164 C 0.96994 0.99312 0.9856 0.0
C3165 C 0.02284 0.00747 0.0112 0.0
N3166 N 0.98455 0.00317 0.94934 0.0
N3167 N 0.02081 0.99526 0.04504 0.0
H3168 H 0.05563 0.02218 0.01629 0.0
H3169 H 0.04681 0.01504 0.0425 0.0
H3170 H 0.00973 0.98847 0.05403 0.0
H3171 H 0.04425 0.99931 0.05433 0.0
H3172 H 0.97043 0.99751 0.93825 0.0
H3173 H 0.99734 0.00966 0.94001 0.0
H3174 H 0.92734 0.98878 0.95792 0.0
H3175 H 0.92634 0.98025 0.9825 0.0
C3176 C 0.71844 0.00611 0.73658 0.0
C3177 C 0.73454 0.01063 0.75802 0.0
C3178 C 0.79113 0.99732 0.75811 0.0
C3179 C 0.77166 0.99197 0.73861 0.0
N3180 N 0.71357 0.99039 0.7112 0.0
N3181 N 0.78307 0.00983 0.79102 0.0
C3182 C 0.73445 0.99614 0.7283 0.0
C3183 C 0.77014 0.00606 0.76929 0.0
N3184 N 0.68877 0.01155 0.72373 0.0
N3185 N 0.83027 0.99426 0.76547 0.0
H3186 H 0.76853 0.01625 0.79969 0.0
H3187 H 0.80594 0.00604 0.80132 0.0
H3188 H 0.847 0.98802 0.75744 0.0
H3189 H 0.84779 0.99854 0.77797 0.0
H3190 H 0.67891 0.0092 0.70677 0.0
H3191 H 0.67701 0.01901 0.72896 0.0
H3192 H 0.68386 0.99246 0.70496 0.0
H3193 H 0.72432 0.98303 0.70465 0.0
C3194 C 0.98606 0.74741 0.77305 0.0
C3195 C 0.01248 0.74037 0.76004 0.0
C3196 C 0.0053 0.75165 0.72425 0.0
C3197 C 0.97708 0.75837 0.7369 0.0
N3198 N 0.93487 0.76182 0.77188 0.0
N3199 N 0.04249 0.73464 0.72256 0.0
C3200 C 0.96578 0.756 0.76091 0.0
C3201 C 0.02069 0.74216 0.73539 0.0
N3202 N 0.98141 0.74607 0.79716 0.0
N3203 N 0.01829 0.75454 0.70186 0.0
H3204 H 0.05484 0.72767 0.73018 0.0
H3205 H 0.04568 0.73486 0.70406 0.0
H3206 H 0.00697 0.76133 0.69301 0.0
H3207 H 0.04237 0.75068 0.69269 0.0
H3208 H 0.9666 0.75163 0.8082 0.0
H3209 H 0.995 0.7397 0.80652 0.0
H3210 H 0.92187 0.75976 0.78832 0.0
H3211 H 0.91974 0.76827 0.76371 0.0
C3212 C 0.72225 0.74267 0.02041 0.0
C3213 C 0.73157 0.74033 0.9961 0.0
C3214 C 0.77199 0.75701 0.99292 0.0
C3215 C 0.7655 0.7589 0.01769 0.0
N3216 N 0.73934 0.75302 0.05588 0.0
N3217 N 0.77035 0.74423 0.96019 0.0
C3218 C 0.74205 0.75157 0.03171 0.0
C3219 C 0.75783 0.74722 0.9826 0.0
N3220 N 0.6933 0.73662 0.03244 0.0
N3221 N 0.79091 0.76469 0.97914 0.0
H3222 H 0.7605 0.73712 0.95205 0.0
H3223 H 0.79316 0.7483 0.95042 0.0
H3224 H 0.80223 0.7719 0.98609 0.0
H3225 H 0.79242 0.76434 0.96058 0.0
H3226 H 0.68151 0.73865 0.04918 0.0
H3227 H 0.67849 0.72996 0.02495 0.0
H3228 H 0.72692 0.74731 0.0675 0.0
H3229 H 0.75225 0.75965 0.06462 0.0
C3230 C 0.25751 0.49982 0.77265 0.0
C3231 C 0.23204 0.50702 0.75945 0.0
C3232 C 0.23637 0.49531 0.72421 0.0
C3233 C 0.26377 0.48842 0.73699 0.0
N3234 N 0.30552 0.48468 0.77201 0.0
N3235 N 0.20163 0.51265 0.72198 0.0
C3236 C 0.27583 0.49084 0.76085 0.0
C3237 C 0.22274 0.50506 0.73499 0.0
N3238 N 0.26317 0.50142 0.79661 0.0
N3239 N 0.2226 0.49237 0.702 0.0
H3240 H 0.19044 0.5198 0.72933 0.0
H3241 H 0.19779 0.51228 0.70353 0.0
H3242 H 0.2328 0.4854 0.69337 0.0
H3243 H 0.19898 0.49638 0.69276 0.0
H3244 H 0.27728 0.49583 0.80789 0.0
H3245 H 0.25116 0.50808 0.80566 0.0
H3246 H 0.3192 0.4867 0.78829 0.0
H3247 H 0.31887 0.47786 0.76425 0.0
C3248 C 0.2235 0.75509 0.51655 0.0
C3249 C 0.25973 0.75943 0.50552 0.0
C3250 C 0.25806 0.74517 0.47517 0.0
C3251 C 0.22379 0.74038 0.48727 0.0
N3252 N 0.17797 0.73965 0.52155 0.0
N3253 N 0.31568 0.75788 0.47666 0.0
C3254 C 0.20762 0.74503 0.50856 0.0
C3255 C 0.27819 0.75427 0.48544 0.0
N3256 N 0.20355 0.76074 0.53416 0.0
N3257 N 0.2707 0.74116 0.45359 0.0
H3258 H 0.33113 0.76459 0.48351 0.0
H3259 H 0.33316 0.75377 0.46388 0.0
H3260 H 0.25718 0.73437 0.44579 0.0
H3261 H 0.29236 0.74499 0.44256 0.0
H3262 H 0.17438 0.7586 0.54107 0.0
H3263 H 0.21455 0.76809 0.54061 0.0
H3264 H 0.16823 0.74201 0.53851 0.0
H3265 H 0.16552 0.73228 0.51623 0.0
C3266 C 0.00291 0.4894 0.4869 0.0
C3267 C 0.96799 0.49083 0.5023 0.0
C3268 C 0.97686 0.5104 0.5004 0.0
C3269 C 0.01407 0.50891 0.48691 0.0
N3270 N 0.0659 0.4971 0.46964 0.0
N3271 N 0.9243 0.50242 0.52626 0.0
C3272 C 0.02799 0.49843 0.48071 0.0
C3273 C 0.95558 0.50127 0.50972 0.0
N3274 N 0.01141 0.47944 0.47771 0.0
N3275 N 0.96154 0.52056 0.50389 0.0
H3276 H 0.90786 0.49591 0.53338 0.0
H3277 H 0.91677 0.5097 0.53435 0.0
H3278 H 0.97654 0.52742 0.4974 0.0
H3279 H 0.93235 0.52216 0.51143 0.0
H3280 H 0.03344 0.47807 0.46432 0.0
H3281 H 0.99414 0.4726 0.48216 0.0
H3282 H 0.08013 0.48965 0.4672 0.0
H3283 H 0.08472 0.50353 0.46431 0.0
C3284 C 0.70579 0.50421 0.2471 0.0
C3285 C 0.72942 0.50962 0.26497 0.0
C3286 C 0.78559 0.49629 0.26132 0.0
C3287 C 0.76044 0.4904 0.24495 0.0
N3288 N 0.69485 0.48783 0.22435 0.0
N3289 N 0.78878 0.51025 0.29156 0.0
C3290 C 0.72002 0.49411 0.23839 0.0
C3291 C 0.76852 0.5055 0.27279 0.0
N3292 N 0.67042 0.50889 0.23796 0.0
N3293 N 0.82624 0.49324 0.26535 0.0
H3294 H 0.77737 0.51711 0.30014 0.0
H3295 H 0.81505 0.50697 0.29986 0.0
H3296 H 0.83986 0.48651 0.25739 0.0
H3297 H 0.8476 0.49784 0.27503 0.0
H3298 H 0.65454 0.50599 0.22304 0.0
H3299 H 0.65846 0.51617 0.24419 0.0
H3300 H 0.66334 0.48948 0.22111 0.0
H3301 H 0.70465 0.48049 0.21724 0.0
C3302 C 0.74297 0.25542 0.5242 0.0
C3303 C 0.76679 0.26232 0.50932 0.0
C3304 C 0.75747 0.24999 0.47549 0.0
C3305 C 0.73137 0.24343 0.48994 0.0
N3306 N 0.69311 0.24076 0.5267 0.0
N3307 N 0.7913 0.26729 0.47006 0.0
C3308 C 0.72237 0.24639 0.51395 0.0
C3309 C 0.77242 0.25993 0.48471 0.0
N3310 N 0.74102 0.25734 0.54823 0.0
N3311 N 0.7691 0.24652 0.45327 0.0
H3312 H 0.80308 0.27461 0.47621 0.0
H3313 H 0.7923 0.26656 0.45154 0.0
H3314 H 0.75855 0.2393 0.4459 0.0
H3315 H 0.79173 0.25034 0.44288 0.0
H3316 H 0.72832 0.25194 0.56046 0.0
H3317 H 0.75487 0.26403 0.55625 0.0
H3318 H 0.68169 0.24322 0.54326 0.0
H3319 H 0.67756 0.23406 0.51991 0.0
C3320 C 0.5065 0.26159 0.76362 0.0
C3321 C 0.47238 0.26048 0.74752 0.0
C3322 C 0.47958 0.24086 0.74862 0.0
C3323 C 0.51594 0.24203 0.763 0.0
N3324 N 0.56771 0.25338 0.78177 0.0
N3325 N 0.42955 0.24937 0.72199 0.0
C3326 C 0.53041 0.25237 0.76991 0.0
C3327 C 0.45973 0.25019 0.73928 0.0
N3328 N 0.51528 0.27142 0.77339 0.0
N3329 N 0.46363 0.23083 0.74435 0.0
H3330 H 0.41421 0.25603 0.71479 0.0
H3331 H 0.42204 0.24221 0.71337 0.0
H3332 H 0.47755 0.22382 0.75086 0.0
H3333 H 0.43484 0.22947 0.73611 0.0
H3334 H 0.5366 0.27255 0.78725 0.0
H3335 H 0.49896 0.2784 0.76885 0.0
H3336 H 0.58241 0.26073 0.78483 0.0
H3337 H 0.58565 0.24679 0.78716 0.0
C3338 C 0.47989 0.00372 0.47496 0.0
C3339 C 0.50638 0.01069 0.48811 0.0
C3340 C 0.49917 0.99931 0.52372 0.0
C3341 C 0.47152 0.99254 0.51081 0.0
N3342 N 0.42975 0.98904 0.47569 0.0
N3343 N 0.53613 0.01634 0.52572 0.0
C3344 C 0.46007 0.99498 0.48687 0.0
C3345 C 0.51444 0.00885 0.51276 0.0
N3346 N 0.47489 0.00525 0.45093 0.0
N3347 N 0.51178 0.99642 0.54618 0.0
H3348 H 0.54853 0.02333 0.51821 0.0
H3349 H 0.53923 0.01609 0.54422 0.0
H3350 H 0.50022 0.98964 0.555 0.0
H3351 H 0.5356 0.0003 0.55554 0.0
H3352 H 0.46005 0.99977 0.43971 0.0
H3353 H 0.48801 0.01175 0.4418 0.0
H3354 H 0.41667 0.99109 0.45927 0.0
H3355 H 0.41522 0.98241 0.4836 0.0
C3356 C 0.50294 0.75085 0.26902 0.0
C3357 C 0.52593 0.7432 0.25557 0.0
C3358 C 0.51396 0.75358 0.21886 0.0
C3359 C 0.4883 0.76076 0.232 0.0
N3360 N 0.45438 0.76587 0.26887 0.0
N3361 N 0.55051 0.73646 0.21764 0.0
C3362 C 0.48174 0.75931 0.25692 0.0
C3363 C 0.53074 0.74435 0.23045 0.0
N3364 N 0.50217 0.75012 0.29341 0.0
N3365 N 0.52279 0.75572 0.19542 0.0
H3366 H 0.56422 0.72973 0.22554 0.0
H3367 H 0.55112 0.73617 0.19906 0.0
H3368 H 0.51006 0.76227 0.18627 0.0
H3369 H 0.54485 0.7515 0.18542 0.0
H3370 H 0.4901 0.75608 0.30452 0.0
H3371 H 0.51631 0.74384 0.30278 0.0
H3372 H 0.44436 0.76449 0.2863 0.0
H3373 H 0.43937 0.7724 0.2609 0.0
C3374 C 0.50477 0.49076 0.987 0.0
C3375 C 0.47182 0.49211 0.0038 0.0
C3376 C 0.48269 0.51161 0.00351 0.0
C3377 C 0.51824 0.51015 0.98863 0.0
N3378 N 0.56696 0.49835 0.96862 0.0
N3379 N 0.43281 0.50347 0.03075 0.0
C3380 C 0.53031 0.49973 0.98096 0.0
C3381 C 0.46164 0.50245 0.01278 0.0
N3382 N 0.51083 0.48099 0.97633 0.0
N3383 N 0.46863 0.52178 0.00836 0.0
H3384 H 0.41683 0.49692 0.03805 0.0
H3385 H 0.42725 0.51064 0.03982 0.0
H3386 H 0.48337 0.52867 0.00183 0.0
H3387 H 0.44043 0.52338 0.01704 0.0
H3388 H 0.5312 0.4798 0.96203 0.0
H3389 H 0.49303 0.47421 0.98049 0.0
H3390 H 0.57994 0.49084 0.96498 0.0
H3391 H 0.58613 0.50474 0.96346 0.0
C3392 C 0.08264 0.13042 0.30653 0.0
C3393 C 0.11744 0.13578 0.31674 0.0
C3394 C 0.14596 0.11856 0.33058 0.0
C3395 C 0.11459 0.11314 0.31724 0.0
N3396 N 0.05506 0.11381 0.29047 0.0
N3397 N 0.18339 0.13526 0.33777 0.0
C3398 C 0.08308 0.11904 0.3049 0.0
C3399 C 0.14926 0.12995 0.32883 0.0
N3400 N 0.04918 0.13625 0.29839 0.0
N3401 N 0.17217 0.1128 0.34507 0.0
H3402 H 0.18608 0.14362 0.3375 0.0
H3403 H 0.21003 0.13139 0.34424 0.0
H3404 H 0.17042 0.10445 0.34665 0.0
H3405 H 0.19316 0.11632 0.357 0.0
H3406 H 0.02099 0.13279 0.29297 0.0
H3407 H 0.04816 0.14463 0.29914 0.0
H3408 H 0.03482 0.11776 0.27878 0.0
H3409 H 0.05406 0.10548 0.2887 0.0
C3410 C 0.17318 0.12952 0.93304 0.0
C3411 C 0.13863 0.13589 0.92583 0.0
C3412 C 0.10117 0.11962 0.91322 0.0
C3413 C 0.13267 0.11325 0.92417 0.0
N3414 N 0.19614 0.11225 0.94785 0.0
N3415 N 0.0674 0.13703 0.91123 0.0
C3416 C 0.16831 0.11821 0.93478 0.0
C3417 C 0.10209 0.13097 0.91621 0.0
N3418 N 0.21068 0.13431 0.93825 0.0
N3419 N 0.07062 0.1148 0.89985 0.0
H3420 H 0.06656 0.14537 0.91323 0.0
H3421 H 0.03839 0.13372 0.90684 0.0
H3422 H 0.06926 0.10649 0.8973 0.0
H3423 H 0.04915 0.11908 0.88952 0.0
H3424 H 0.23814 0.13 0.94144 0.0
H3425 H 0.21522 0.1426 0.93697 0.0
H3426 H 0.2199 0.11566 0.95815 0.0
H3427 H 0.19336 0.10397 0.9503 0.0
C3428 C 0.84467 0.88004 0.66228 0.0
C3429 C 0.87782 0.88629 0.67185 0.0
C3430 C 0.91893 0.86993 0.67888 0.0
C3431 C 0.88317 0.86368 0.67319 0.0
N3432 N 0.81101 0.86258 0.66034 0.0
N3433 N 0.94584 0.88734 0.69079 0.0
C3434 C 0.84591 0.86866 0.66472 0.0
C3435 C 0.91512 0.88129 0.68024 0.0
N3436 N 0.81212 0.88503 0.65089 0.0
N3437 N 0.95645 0.86495 0.68304 0.0
H3438 H 0.94456 0.8957 0.69202 0.0
H3439 H 0.97129 0.88403 0.69985 0.0
H3440 H 0.95997 0.85661 0.68216 0.0
H3441 H 0.98467 0.86906 0.68511 0.0
H3442 H 0.78887 0.88092 0.64154 0.0
H3443 H 0.81044 0.89337 0.649 0.0
H3444 H 0.78152 0.86583 0.65695 0.0
H3445 H 0.81087 0.85421 0.66149 0.0
C3446 C 0.91426 0.87982 0.08752 0.0
C3447 C 0.87907 0.88638 0.0824 0.0
C3448 C 0.83368 0.87046 0.08251 0.0
C3449 C 0.86988 0.86388 0.08266 0.0
N3450 N 0.945 0.862 0.08577 0.0
N3451 N 0.80466 0.88815 0.07522 0.0
C3452 C 0.9103 0.86846 0.08584 0.0
C3453 C 0.83836 0.88179 0.08051 0.0
N3454 N 0.95142 0.88454 0.09373 0.0
N3455 N 0.79494 0.86579 0.08397 0.0
H3456 H 0.80649 0.8965 0.0742 0.0
H3457 H 0.77527 0.88515 0.07059 0.0
H3458 H 0.791 0.85748 0.08536 0.0
H3459 H 0.76722 0.87012 0.08604 0.0
H3460 H 0.9775 0.88026 0.09965 0.0
H3461 H 0.9548 0.89287 0.09506 0.0
H3462 H 0.97559 0.86491 0.08503 0.0
H3463 H 0.9432 0.85363 0.08523 0.0
C3464 C 0.09394 0.61762 0.82329 0.0
C3465 C 0.13439 0.61302 0.82003 0.0
C3466 C 0.16492 0.63102 0.81677 0.0
C3467 C 0.12504 0.63562 0.82184 0.0
N3468 N 0.05399 0.63326 0.83557 0.0
N3469 N 0.20947 0.6153 0.81977 0.0
C3470 C 0.09032 0.62889 0.82699 0.0
C3471 C 0.17027 0.61973 0.81882 0.0
N3472 N 0.05874 0.6114 0.82136 0.0
N3473 N 0.19702 0.63731 0.80853 0.0
H3474 H 0.21443 0.60705 0.82158 0.0
H3475 H 0.23673 0.61989 0.82122 0.0
H3476 H 0.19428 0.64557 0.8058 0.0
H3477 H 0.22517 0.63415 0.80216 0.0
H3478 H 0.02851 0.61459 0.82101 0.0
H3479 H 0.05959 0.60317 0.81784 0.0
H3480 H 0.02902 0.62864 0.8418 0.0
H3481 H 0.05049 0.64149 0.83865 0.0
C3482 C 0.17324 0.62867 0.44051 0.0
C3483 C 0.13996 0.63445 0.42979 0.0
C3484 C 0.1105 0.61764 0.41412 0.0
C3485 C 0.13991 0.6118 0.428 0.0
N3486 N 0.19769 0.61162 0.45601 0.0
N3487 N 0.07606 0.63475 0.4068 0.0
C3488 C 0.17131 0.61727 0.44137 0.0
C3489 C 0.1086 0.62903 0.4164 0.0
N3490 N 0.2066 0.63413 0.44994 0.0
N3491 N 0.08477 0.61228 0.39863 0.0
H3492 H 0.07456 0.64313 0.40741 0.0
H3493 H 0.04954 0.6312 0.39933 0.0
H3494 H 0.08552 0.60393 0.39667 0.0
H3495 H 0.06529 0.6161 0.38635 0.0
H3496 H 0.23388 0.63039 0.45593 0.0
H3497 H 0.20861 0.64251 0.44973 0.0
H3498 H 0.21763 0.61523 0.46838 0.0
H3499 H 0.19768 0.60327 0.45714 0.0
C3500 C 0.89785 0.36946 0.16543 0.0
C3501 C 0.86483 0.36285 0.17382 0.0
C3502 C 0.82062 0.37875 0.17987 0.0
C3503 C 0.85593 0.38536 0.17554 0.0
N3504 N 0.92885 0.38727 0.16478 0.0
N3505 N 0.79514 0.36104 0.1904 0.0
C3506 C 0.89463 0.38081 0.16806 0.0
C3507 C 0.82597 0.36742 0.18104 0.0
N3508 N 0.93218 0.36486 0.15497 0.0
N3509 N 0.78207 0.38336 0.18298 0.0
H3510 H 0.79743 0.35269 0.19138 0.0
H3511 H 0.76836 0.36404 0.1987 0.0
H3512 H 0.77747 0.39166 0.18227 0.0
H3513 H 0.75429 0.37897 0.18401 0.0
H3514 H 0.9557 0.36924 0.14648 0.0
H3515 H 0.93523 0.35655 0.15292 0.0
H3516 H 0.95912 0.38435 0.16221 0.0
H3517 H 0.92745 0.39563 0.16597 0.0
C3518 C 0.92101 0.37111 0.5718 0.0
C3519 C 0.88315 0.36647 0.58045 0.0
C3520 C 0.86788 0.38323 0.60155 0.0
C3521 C 0.89823 0.38853 0.58728 0.0
N3522 N 0.97005 0.38588 0.57591 0.0
N3523 N 0.82192 0.36786 0.60568 0.0
C3524 C 0.93015 0.38199 0.57741 0.0
C3525 C 0.85705 0.37243 0.59613 0.0
N3526 N 0.94735 0.36532 0.55747 0.0
N3527 N 0.85524 0.38777 0.6225 0.0
H3528 H 0.81376 0.35984 0.60274 0.0
H3529 H 0.79988 0.37228 0.61534 0.0
H3530 H 0.86954 0.39474 0.629 0.0
H3531 H 0.83584 0.38386 0.63472 0.0
H3532 H 0.97283 0.36875 0.54863 0.0
H3533 H 0.94219 0.35727 0.55318 0.0
H3534 H 0.99569 0.38119 0.57091 0.0
H3535 H 0.97767 0.39351 0.58246 0.0
C3536 C 0.59259 0.12038 0.82924 0.0
C3537 C 0.62967 0.11527 0.82092 0.0
C3538 C 0.66213 0.13278 0.81358 0.0
C3539 C 0.62577 0.13793 0.82287 0.0
N3540 N 0.56067 0.13671 0.84455 0.0
N3541 N 0.7031 0.1164 0.81117 0.0
C3542 C 0.59236 0.13174 0.83237 0.0
C3543 C 0.6656 0.12143 0.81513 0.0
N3544 N 0.55694 0.1145 0.83292 0.0
N3545 N 0.69219 0.13861 0.80191 0.0
H3546 H 0.70662 0.10807 0.8123 0.0
H3547 H 0.73133 0.12052 0.80916 0.0
H3548 H 0.69079 0.14692 0.79981 0.0
H3549 H 0.71673 0.1351 0.79241 0.0
H3550 H 0.52776 0.11795 0.83627 0.0
H3551 H 0.55572 0.10617 0.83089 0.0
H3552 H 0.53754 0.13255 0.85389 0.0
H3553 H 0.55977 0.14501 0.84718 0.0
C3554 C 0.59674 0.13244 0.4187 0.0
C3555 C 0.63289 0.13735 0.42869 0.0
C3556 C 0.66489 0.11965 0.43467 0.0
C3557 C 0.6261 0.11478 0.42849 0.0
N3558 N 0.55484 0.11623 0.41455 0.0
N3559 N 0.70149 0.13592 0.44648 0.0
C3560 C 0.5921 0.12108 0.42009 0.0
C3561 C 0.66736 0.13103 0.4364 0.0
N3562 N 0.56693 0.13872 0.40801 0.0
N3563 N 0.69924 0.11333 0.43886 0.0
H3564 H 0.70493 0.14425 0.44724 0.0
H3565 H 0.72538 0.13177 0.45518 0.0
H3566 H 0.69825 0.10496 0.43784 0.0
H3567 H 0.7294 0.11635 0.44132 0.0
H3568 H 0.5415 0.13565 0.39853 0.0
H3569 H 0.56959 0.14707 0.40689 0.0
H3570 H 0.52728 0.12042 0.411 0.0
H3571 H 0.55088 0.1079 0.41471 0.0
C3572 C 0.33418 0.88164 0.1754 0.0
C3573 C 0.37051 0.88811 0.17781 0.0
C3574 C 0.41463 0.87199 0.17573 0.0
C3575 C 0.37823 0.86548 0.17715 0.0
N3576 N 0.30299 0.86416 0.18203 0.0
N3577 N 0.44548 0.88931 0.18429 0.0
C3578 C 0.33778 0.8703 0.17776 0.0
C3579 C 0.41091 0.88327 0.17886 0.0
N3580 N 0.29631 0.88633 0.17067 0.0
N3581 N 0.45273 0.86737 0.17122 0.0
H3582 H 0.44434 0.89757 0.18739 0.0
H3583 H 0.47476 0.88597 0.18792 0.0
H3584 H 0.45643 0.85911 0.16865 0.0
H3585 H 0.47974 0.87182 0.16769 0.0
H3586 H 0.26945 0.88195 0.16643 0.0
H3587 H 0.29273 0.89463 0.1687 0.0
H3588 H 0.27344 0.86743 0.18528 0.0
H3589 H 0.30409 0.85586 0.18448 0.0
C3590 C 0.3934 0.87949 0.58607 0.0
C3591 C 0.36384 0.88594 0.57372 0.0
C3592 C 0.32416 0.86982 0.56248 0.0
C3593 C 0.35749 0.86339 0.57116 0.0
N3594 N 0.4238 0.86176 0.59149 0.0
N3595 N 0.30137 0.88746 0.54952 0.0
C3596 C 0.39182 0.86812 0.58343 0.0
C3597 C 0.32878 0.88118 0.56212 0.0
N3598 N 0.42285 0.8843 0.60024 0.0
N3599 N 0.28832 0.86499 0.5544 0.0
H3600 H 0.30313 0.89582 0.54912 0.0
H3601 H 0.27833 0.88439 0.53824 0.0
H3602 H 0.28442 0.85666 0.55428 0.0
H3603 H 0.2612 0.86919 0.54988 0.0
H3604 H 0.44315 0.88009 0.6114 0.0
H3605 H 0.42455 0.89263 0.60237 0.0
H3606 H 0.4521 0.86473 0.59799 0.0
H3607 H 0.42277 0.85338 0.59065 0.0
C3608 C 0.64729 0.63365 0.33697 0.0
C3609 C 0.60945 0.63849 0.32892 0.0
C3610 C 0.57868 0.62074 0.322 0.0
C3611 C 0.61609 0.61587 0.33065 0.0
N3612 N 0.68126 0.61756 0.35207 0.0
N3613 N 0.53582 0.63683 0.32016 0.0
C3614 C 0.6488 0.62231 0.34011 0.0
C3615 C 0.57397 0.63206 0.32367 0.0
N3616 N 0.68254 0.63975 0.34015 0.0
N3617 N 0.54886 0.61468 0.3107 0.0
H3618 H 0.53153 0.64513 0.32138 0.0
H3619 H 0.50798 0.63251 0.31844 0.0
H3620 H 0.55114 0.60638 0.30859 0.0
H3621 H 0.52346 0.61801 0.3016 0.0
H3622 H 0.71211 0.63646 0.34323 0.0
H3623 H 0.68307 0.64806 0.33792 0.0
H3624 H 0.70405 0.62189 0.36131 0.0
H3625 H 0.68302 0.60926 0.35468 0.0
C3626 C 0.61054 0.63026 0.91656 0.0
C3627 C 0.64008 0.63575 0.93109 0.0
C3628 C 0.66952 0.61864 0.94464 0.0
C3629 C 0.64017 0.6131 0.92998 0.0
N3630 N 0.58894 0.61339 0.89838 0.0
N3631 N 0.70344 0.63554 0.95446 0.0
C3632 C 0.61264 0.61885 0.91473 0.0
C3633 C 0.67159 0.63003 0.94358 0.0
N3634 N 0.57953 0.63592 0.90532 0.0
N3635 N 0.69377 0.61307 0.96056 0.0
H3636 H 0.70549 0.64392 0.95424 0.0
H3637 H 0.72974 0.63184 0.96183 0.0
H3638 H 0.69361 0.60472 0.96185 0.0
H3639 H 0.71187 0.61673 0.97374 0.0
H3640 H 0.55406 0.63235 0.89681 0.0
H3641 H 0.57809 0.64431 0.90557 0.0
H3642 H 0.57115 0.61713 0.88519 0.0
H3643 H 0.58978 0.60503 0.89676 0.0
C3644 C 0.3567 0.37789 0.65057 0.0
C3645 C 0.38388 0.38408 0.66514 0.0
C3646 C 0.43197 0.36876 0.66758 0.0
C3647 C 0.39947 0.36205 0.65899 0.0
N3648 N 0.35375 0.36236 0.62484 0.0
N3649 N 0.45066 0.38587 0.68525 0.0
C3650 C 0.36773 0.3671 0.64527 0.0
C3651 C 0.42302 0.37972 0.67257 0.0
N3652 N 0.32029 0.3822 0.64205 0.0
N3653 N 0.47182 0.36482 0.66891 0.0
H3654 H 0.44571 0.39402 0.68862 0.0
H3655 H 0.47734 0.38273 0.69345 0.0
H3656 H 0.47882 0.35701 0.66323 0.0
H3657 H 0.49787 0.36952 0.67304 0.0
H3658 H 0.2977 0.37759 0.63328 0.0
H3659 H 0.31186 0.3902 0.64494 0.0
H3660 H 0.33301 0.36609 0.61306 0.0
H3661 H 0.36825 0.35546 0.6181 0.0
C3662 C 0.41677 0.38135 0.06949 0.0
C3663 C 0.38019 0.3878 0.06827 0.0
C3664 C 0.33656 0.37157 0.07001 0.0
C3665 C 0.37298 0.36516 0.06732 0.0
N3666 N 0.44793 0.36402 0.06105 0.0
N3667 N 0.30476 0.38898 0.06372 0.0
C3668 C 0.41327 0.37005 0.06636 0.0
C3669 C 0.33983 0.38291 0.06779 0.0
N3670 N 0.45481 0.38603 0.07381 0.0
N3671 N 0.29886 0.3668 0.07484 0.0
H3672 H 0.30542 0.39729 0.06153 0.0
H3673 H 0.27534 0.38565 0.06041 0.0
H3674 H 0.29551 0.3585 0.0767 0.0
H3675 H 0.27198 0.37113 0.07931 0.0
H3676 H 0.48202 0.38164 0.07717 0.0
H3677 H 0.45829 0.3943 0.07635 0.0
H3678 H 0.47722 0.36737 0.05748 0.0
H3679 H 0.44687 0.35575 0.05813 0.0
C3680 C 0.90658 0.04676 0.37678 0.0
C3681 C 0.89783 0.04249 0.35378 0.0
C3682 C 0.8253 0.03877 0.36553 0.0
C3683 C 0.83418 0.04297 0.38856 0.0
N3684 N 0.88456 0.04859 0.41808 0.0
N3685 N 0.85273 0.03237 0.32762 0.0
C3686 C 0.87538 0.04617 0.39483 0.0
C3687 C 0.85834 0.0378 0.34862 0.0
N3688 N 0.94387 0.05188 0.38101 0.0
N3689 N 0.78496 0.03617 0.35953 0.0
H3690 H 0.87642 0.03159 0.31486 0.0
H3691 H 0.82603 0.02788 0.3237 0.0
H3692 H 0.76016 0.0365 0.37167 0.0
H3693 H 0.77552 0.03429 0.34223 0.0
H3694 H 0.95007 0.05627 0.39644 0.0
H3695 H 0.96784 0.0524 0.36839 0.0
H3696 H 0.9149 0.04994 0.4243 0.0
H3697 H 0.86218 0.0483 0.43168 0.0
C3698 C 0.36822 0.21631 0.36401 0.0
C3699 C 0.33492 0.20884 0.36638 0.0
C3700 C 0.36413 0.20242 0.4043 0.0
C3701 C 0.40037 0.20873 0.40006 0.0
N3702 N 0.43821 0.22167 0.37635 0.0
N3703 N 0.30066 0.19454 0.38804 0.0
C3704 C 0.40256 0.2158 0.38019 0.0
C3705 C 0.33236 0.20193 0.38653 0.0
N3706 N 0.36671 0.22389 0.34633 0.0
N3707 N 0.36035 0.19687 0.4253 0.0
H3708 H 0.27614 0.19413 0.37573 0.0
H3709 H 0.29969 0.18839 0.40064 0.0
H3710 H 0.38352 0.19693 0.43847 0.0
H3711 H 0.33308 0.19294 0.43061 0.0
H3712 H 0.38794 0.23021 0.34483 0.0
H3713 H 0.34201 0.22436 0.33412 0.0
H3714 H 0.44406 0.226 0.36078 0.0
H3715 H 0.46316 0.22182 0.38842 0.0
C3716 C 0.88445 0.21067 0.85326 0.0
C3717 C 0.84391 0.20689 0.85933 0.0
C3718 C 0.86649 0.20397 0.90065 0.0
C3719 C 0.9083 0.2062 0.89368 0.0
N3720 N 0.95848 0.21096 0.86315 0.0
N3721 N 0.79643 0.19901 0.88808 0.0
C3722 C 0.91768 0.20949 0.86997 0.0
C3723 C 0.83474 0.2034 0.88292 0.0
N3724 N 0.89095 0.21547 0.83159 0.0
N3725 N 0.85724 0.20248 0.92427 0.0
H3726 H 0.77212 0.19847 0.87566 0.0
H3727 H 0.78963 0.19517 0.90415 0.0
H3728 H 0.87997 0.20282 0.93768 0.0
H3729 H 0.82675 0.20188 0.93082 0.0
H3730 H 0.91874 0.21935 0.82696 0.0
H3731 H 0.86715 0.2164 0.81895 0.0
H3732 H 0.96769 0.21211 0.84549 0.0
H3733 H 0.98368 0.21034 0.87496 0.0
C3734 C 0.38264 0.03927 0.89755 0.0
C3735 C 0.34144 0.042 0.89022 0.0
C3736 C 0.36513 0.04357 0.84873 0.0
C3737 C 0.40711 0.04251 0.85668 0.0
N3738 N 0.45703 0.03975 0.88849 0.0
N3739 N 0.29288 0.04733 0.85929 0.0
C3740 C 0.41623 0.04032 0.88102 0.0
C3741 C 0.33234 0.04416 0.86585 0.0
N3742 N 0.3894 0.03565 0.92029 0.0
N3743 N 0.35678 0.04397 0.82478 0.0
H3744 H 0.26776 0.04769 0.87121 0.0
H3745 H 0.2855 0.05027 0.8424 0.0
H3746 H 0.38031 0.04361 0.81184 0.0
H3747 H 0.32662 0.04368 0.81767 0.0
H3748 H 0.41795 0.03256 0.92617 0.0
H3749 H 0.36528 0.03487 0.93279 0.0
H3750 H 0.46589 0.03947 0.90638 0.0
H3751 H 0.48244 0.0402 0.87679 0.0
C3752 C 0.11233 0.95491 0.59118 0.0
C3753 C 0.15447 0.95597 0.59893 0.0
C3754 C 0.13147 0.95757 0.64055 0.0
C3755 C 0.08935 0.95638 0.63284 0.0
N3756 N 0.03833 0.95629 0.60108 0.0
N3757 N 0.20423 0.96063 0.62964 0.0
C3758 C 0.07936 0.95584 0.60816 0.0
C3759 C 0.16402 0.95809 0.62324 0.0
N3760 N 0.10404 0.95258 0.56777 0.0
N3761 N 0.14039 0.95773 0.66446 0.0
H3762 H 0.22888 0.96094 0.61739 0.0
H3763 H 0.21268 0.96329 0.64661 0.0
H3764 H 0.1172 0.95772 0.67762 0.0
H3765 H 0.17065 0.95728 0.67137 0.0
H3766 H 0.07452 0.95043 0.56143 0.0
H3767 H 0.12737 0.95224 0.55471 0.0
H3768 H 0.02893 0.95697 0.58334 0.0
H3769 H 0.01347 0.95687 0.61315 0.0
C3770 C 0.61729 0.7912 0.64086 0.0
C3771 C 0.65835 0.79393 0.63318 0.0
C3772 C 0.63253 0.79711 0.59255 0.0
C3773 C 0.59165 0.79411 0.60008 0.0
N3774 N 0.54713 0.78569 0.62942 0.0
N3775 N 0.70716 0.79664 0.60084 0.0
C3776 C 0.58474 0.79029 0.62364 0.0
C3777 C 0.66663 0.79594 0.60868 0.0
N3778 N 0.60885 0.79006 0.66467 0.0
N3779 N 0.63849 0.80161 0.57053 0.0
H3780 H 0.73286 0.79572 0.61221 0.0
H3781 H 0.71528 0.79707 0.58284 0.0
H3782 H 0.61436 0.80266 0.55817 0.0
H3783 H 0.66672 0.80509 0.5652 0.0
H3784 H 0.57859 0.78932 0.67149 0.0
H3785 H 0.6318 0.79066 0.67788 0.0
H3786 H 0.54154 0.78182 0.64562 0.0
H3787 H 0.52278 0.78481 0.6171 0.0
C3788 C 0.17045 0.79528 0.10685 0.0
C3789 C 0.16164 0.79417 0.13157 0.0
C3790 C 0.08693 0.79181 0.12275 0.0
C3791 C 0.09504 0.79453 0.09858 0.0
N3792 N 0.14354 0.79912 0.06717 0.0
N3793 N 0.11224 0.79162 0.16366 0.0
C3794 C 0.13664 0.7962 0.0904 0.0
C3795 C 0.1201 0.79235 0.13969 0.0
N3796 N 0.21119 0.7954 0.09919 0.0
N3797 N 0.04749 0.78868 0.12939 0.0
H3798 H 0.13597 0.79163 0.1765 0.0
H3799 H 0.08223 0.79161 0.17099 0.0
H3800 H 0.02246 0.7883 0.1174 0.0
H3801 H 0.0402 0.7856 0.14618 0.0
H3802 H 0.2199 0.79516 0.08128 0.0
H3803 H 0.23663 0.79485 0.11087 0.0
H3804 H 0.17242 0.80171 0.0607 0.0
H3805 H 0.11961 0.7995 0.05447 0.0
C3806 C 0.66704 0.95961 0.12066 0.0
C3807 C 0.66128 0.95368 0.09926 0.0
C3808 C 0.58885 0.94953 0.11065 0.0
C3809 C 0.59626 0.95438 0.13323 0.0
N3810 N 0.64161 0.96383 0.1605 0.0
N3811 N 0.61826 0.9427 0.07363 0.0
C3812 C 0.63506 0.95946 0.13838 0.0
C3813 C 0.6224 0.94865 0.09405 0.0
N3814 N 0.70305 0.96542 0.12387 0.0
N3815 N 0.54964 0.9458 0.10513 0.0
H3816 H 0.64155 0.94228 0.06056 0.0
H3817 H 0.59279 0.93772 0.07005 0.0
H3818 H 0.52466 0.94593 0.11716 0.0
H3819 H 0.54082 0.94324 0.08816 0.0
H3820 H 0.70781 0.97075 0.13794 0.0
H3821 H 0.72739 0.96553 0.11141 0.0
H3822 H 0.6706 0.96656 0.16653 0.0
H3823 H 0.61822 0.96427 0.17351 0.0
C3824 C 0.92641 0.54049 0.88404 0.0
C3825 C 0.91579 0.54301 0.86004 0.0
C3826 C 0.84244 0.54569 0.87143 0.0
C3827 C 0.85276 0.54283 0.8953 0.0
N3828 N 0.90176 0.53525 0.92339 0.0
N3829 N 0.86304 0.54549 0.82973 0.0
C3830 C 0.89393 0.53948 0.90129 0.0
C3831 C 0.87348 0.54477 0.85337 0.0
N3832 N 0.96759 0.53958 0.8906 0.0
N3833 N 0.8037 0.54981 0.86624 0.0
H3834 H 0.88518 0.54484 0.81607 0.0
H3835 H 0.8322 0.5457 0.8236 0.0
H3836 H 0.77995 0.55066 0.87891 0.0
H3837 H 0.79608 0.55319 0.84978 0.0
H3838 H 0.97746 0.53901 0.90829 0.0
H3839 H 0.99234 0.54017 0.87848 0.0
H3840 H 0.93014 0.53168 0.92808 0.0
H3841 H 0.87854 0.53445 0.93641 0.0
C3842 C 0.3287 0.70085 0.88781 0.0
C3843 C 0.33229 0.70675 0.86619 0.0
C3844 C 0.40254 0.71289 0.8775 0.0
C3845 C 0.39931 0.70679 0.89886 0.0
N3846 N 0.35752 0.69676 0.92695 0.0
N3847 N 0.36771 0.72003 0.84226 0.0
C3848 C 0.36161 0.70139 0.90489 0.0
C3849 C 0.36769 0.71334 0.86166 0.0
N3850 N 0.29456 0.69438 0.89148 0.0
N3851 N 0.43953 0.71789 0.87203 0.0
H3852 H 0.34283 0.72039 0.83017 0.0
H3853 H 0.3907 0.72579 0.83901 0.0
H3854 H 0.46494 0.71814 0.88378 0.0
H3855 H 0.44594 0.7214 0.85555 0.0
H3856 H 0.29219 0.68886 0.90538 0.0
H3857 H 0.26904 0.6941 0.87982 0.0
H3858 H 0.32955 0.69361 0.93349 0.0
H3859 H 0.38148 0.69679 0.93965 0.0
C3860 C 0.86794 0.70939 0.39953 0.0
C3861 C 0.90874 0.70594 0.39307 0.0
C3862 C 0.8872 0.70451 0.35116 0.0
C3863 C 0.84514 0.70635 0.35824 0.0
N3864 N 0.79421 0.71021 0.38895 0.0
N3865 N 0.95796 0.69983 0.36325 0.0
C3866 C 0.83518 0.70886 0.38234 0.0
C3867 C 0.91878 0.70353 0.36894 0.0
N3868 N 0.86074 0.71318 0.42209 0.0
N3869 N 0.89675 0.70375 0.3274 0.0
H3870 H 0.9823 0.6993 0.37566 0.0
H3871 H 0.96583 0.6967 0.34661 0.0
H3872 H 0.87408 0.70437 0.31401 0.0
H3873 H 0.92728 0.70343 0.32083 0.0
H3874 H 0.83275 0.71678 0.42736 0.0
H3875 H 0.88417 0.71356 0.43509 0.0
H3876 H 0.78433 0.71075 0.40664 0.0
H3877 H 0.76946 0.71017 0.37676 0.0
C3878 C 0.37004 0.54318 0.34888 0.0
C3879 C 0.41277 0.54275 0.35578 0.0
C3880 C 0.3918 0.53932 0.39721 0.0
C3881 C 0.3496 0.54152 0.39092 0.0
N3882 N 0.29864 0.5468 0.36113 0.0
N3883 N 0.46505 0.54158 0.38697 0.0
C3884 C 0.33856 0.54367 0.36679 0.0
C3885 C 0.42396 0.541 0.38005 0.0
N3886 N 0.35964 0.54307 0.32519 0.0
N3887 N 0.40099 0.53557 0.41956 0.0
H3888 H 0.48968 0.54288 0.37506 0.0
H3889 H 0.4745 0.54162 0.40478 0.0
H3890 H 0.37797 0.53424 0.43249 0.0
H3891 H 0.43064 0.53284 0.4245 0.0
H3892 H 0.32893 0.54232 0.31905 0.0
H3893 H 0.38212 0.54267 0.31165 0.0
H3894 H 0.29015 0.54967 0.34432 0.0
H3895 H 0.27457 0.5474 0.37367 0.0
C3896 C 0.07796 0.45882 0.12375 0.0
C3897 C 0.08371 0.45376 0.14625 0.0
C3898 C 0.15521 0.44862 0.13523 0.0
C3899 C 0.1501 0.45402 0.11307 0.0
N3900 N 0.11046 0.46604 0.08796 0.0
N3901 N 0.12973 0.44592 0.17561 0.0
C3902 C 0.1126 0.45969 0.10787 0.0
C3903 C 0.12306 0.44933 0.15269 0.0
N3904 N 0.03904 0.46239 0.11721 0.0
N3905 N 0.18987 0.44237 0.13914 0.0
H3906 H 0.10666 0.44629 0.18882 0.0
H3907 H 0.15904 0.44365 0.18211 0.0
H3908 H 0.21421 0.44159 0.12681 0.0
H3909 H 0.19306 0.43726 0.15377 0.0
H3910 H 0.03171 0.46499 0.10002 0.0
H3911 H 0.01311 0.46209 0.12856 0.0
H3912 H 0.08559 0.47123 0.08439 0.0
H3913 H 0.1353 0.46682 0.07593 0.0
C3914 C 0.6517 0.28681 0.12485 0.0
C3915 C 0.64871 0.2936 0.14515 0.0
C3916 C 0.57814 0.29908 0.13295 0.0
C3917 C 0.58405 0.2937 0.11086 0.0
N3918 N 0.62696 0.28287 0.0848 0.0
N3919 N 0.61093 0.30705 0.16768 0.0
C3920 C 0.62079 0.28757 0.10661 0.0
C3921 C 0.6122 0.29988 0.14917 0.0
N3922 N 0.68393 0.2796 0.12321 0.0
N3923 N 0.53979 0.30334 0.13845 0.0
H3924 H 0.63515 0.30791 0.18005 0.0
H3925 H 0.58725 0.31275 0.16975 0.0
H3926 H 0.51409 0.30288 0.12694 0.0
H3927 H 0.53232 0.3064 0.15524 0.0
H3928 H 0.68583 0.27373 0.10998 0.0
H3929 H 0.70691 0.27885 0.13639 0.0
H3930 H 0.65517 0.27935 0.07964 0.0
H3931 H 0.60466 0.28312 0.07116 0.0
C3932 C 0.12878 0.30206 0.59934 0.0
C3933 C 0.08779 0.29872 0.6057 0.0
C3934 C 0.11237 0.29383 0.64575 0.0
C3935 C 0.15182 0.29849 0.64035 0.0
N3936 N 0.19696 0.30807 0.61298 0.0
N3937 N 0.03886 0.29215 0.63516 0.0
C3938 C 0.16004 0.30281 0.61732 0.0
C3939 C 0.07913 0.29471 0.62892 0.0
N3940 N 0.13779 0.30441 0.57603 0.0
N3941 N 0.10699 0.28843 0.66682 0.0
H3942 H 0.01387 0.29244 0.62314 0.0
H3943 H 0.02965 0.2904 0.65257 0.0
H3944 H 0.1307 0.28773 0.67959 0.0
H3945 H 0.08039 0.28392 0.67084 0.0
H3946 H 0.16806 0.30583 0.56977 0.0
H3947 H 0.11542 0.304 0.56244 0.0
H3948 H 0.20277 0.31246 0.5975 0.0
H3949 H 0.22085 0.30877 0.62563 0.0
C3950 C 0.57561 0.45681 0.62322 0.0
C3951 C 0.58344 0.45205 0.64584 0.0
C3952 C 0.65691 0.44894 0.63493 0.0
C3953 C 0.64779 0.45255 0.61142 0.0
N3954 N 0.59933 0.45969 0.58245 0.0
N3955 N 0.6301 0.4433 0.67356 0.0
C3956 C 0.60744 0.45652 0.60541 0.0
C3957 C 0.62387 0.44814 0.65189 0.0
N3958 N 0.53777 0.46162 0.61893 0.0
N3959 N 0.69723 0.44632 0.64098 0.0
H3960 H 0.60714 0.44304 0.68684 0.0
H3961 H 0.65713 0.43908 0.6781 0.0
H3962 H 0.72199 0.44641 0.6288 0.0
H3963 H 0.70697 0.44475 0.65838 0.0
H3964 H 0.53118 0.46615 0.60375 0.0
H3965 H 0.5135 0.46176 0.63143 0.0
H3966 H 0.56952 0.46149 0.57603 0.0
H3967 H 0.62242 0.46002 0.56926 0.0
loop_
_geom_bond_atom_site_label_1
_geom_bond_atom_site_label_2
_geom_bond_distance
_geom_bond_site_symmetry_2
_ccdc_geom_bond_type
Li0 N17 1.990 1_455 S
Li0 O60 1.956 . S
Li0 O61 1.970 . S
Li0 O62 1.961 . S
Li1 N25 1.990 . S
Li1 O60 1.970 . S
Li1 O61 1.956 . S
Li1 O63 1.961 . S
Li2 N47 1.990 . S
Li2 O60 1.961 . S
Li2 O62 1.956 . S
Li2 O63 1.970 . S
Li3 N53 1.990 . S
Li3 O61 1.961 . S
Li3 O62 1.970 . S
Li3 O63 1.956 . S
C4 C6 1.348 . S
C4 C7 1.356 1_455 S
C4 O60 1.325 . S
N5 C8 1.314 . S
N5 C9 1.279 . S
C6 C4 1.348 . S
C6 C8 1.353 1_455 S
C6 H64 0.929 . S
C7 C4 1.356 1_655 S
C7 C9 1.358 . S
C7 H65 0.930 . S
C8 N5 1.314 . S
C8 C6 1.353 1_655 S
C8 H66 0.930 . S
C9 N5 1.279 . S
C9 C7 1.358 . S
C9 H67 0.930 . S
C10 C13 1.348 . S
C10 C14 1.356 . S
C10 O61 1.325 . S
C11 N12 1.279 . S
C11 C14 1.358 . S
C11 H68 0.930 . S
N12 C11 1.279 . S
N12 C15 1.314 . S
C13 C10 1.348 . S
C13 C15 1.353 . S
C13 H69 0.929 . S
C14 C10 1.356 . S
C14 C11 1.358 . S
C14 H70 0.930 . S
C15 N12 1.314 . S
C15 C13 1.353 . S
C15 H71 0.930 . S
C16 N17 1.314 . S
C16 C21 1.353 . S
C16 H22 0.930 1_655 S
N17 Li0 1.990 1_655 S
N17 C16 1.314 . S
N17 C19 1.279 . S
C18 C19 1.358 . S
C18 C20 1.356 . S
C18 H72 0.930 . S
C19 N17 1.279 . S
C19 C18 1.358 . S
C19 H23 0.930 . S
C20 C18 1.356 . S
C20 C21 1.348 . S
C21 C16 1.353 . S
C21 C20 1.348 . S
C21 H73 0.929 . S
H22 C16 0.930 1_455 S
H23 C19 0.930 . S
C24 N25 1.314 . S
C24 C26 1.353 . S
C24 H30 0.930 . S
N25 Li1 1.990 . S
N25 C24 1.314 . S
N25 C28 1.279 . S
C26 C24 1.353 . S
C26 C29 1.348 . S
C26 H74 0.929 . S
C27 C28 1.358 . S
C27 C29 1.356 . S
C27 H75 0.930 . S
C28 N25 1.279 . S
C28 C27 1.358 . S
C28 H31 0.930 . S
C29 C26 1.348 . S
C29 C27 1.356 . S
H30 C24 0.930 . S
H31 C28 0.930 . S
C32 C34 1.348 . S
C32 C35 1.356 . S
C32 O62 1.325 . S
N33 C36 1.314 . S
N33 C37 1.279 . S
C34 C32 1.348 . S
C34 C36 1.353 . S
C34 H76 0.929 . S
C35 C32 1.356 . S
C35 C37 1.358 . S
C35 H77 0.944 . S
C36 N33 1.314 . S
C36 C34 1.353 . S
C36 H78 0.930 . S
C37 N33 1.279 . S
C37 C35 1.358 . S
C37 H79 0.930 1_455 S
C38 C39 1.348 . S
C38 C40 1.356 . S
C38 O63 1.325 . S
C39 C38 1.348 . S
C39 C41 1.353 . S
C39 H80 0.929 . S
C40 C38 1.356 . S
C40 C42 1.358 . S
C40 H81 0.930 . S
C41 C39 1.353 . S
C41 N43 1.314 . S
C41 H82 0.930 . S
C42 C40 1.358 . S
C42 N43 1.279 . S
C42 H83 0.930 . S
N43 C41 1.314 . S
N43 C42 1.279 . S
C44 C46 1.353 . S
C44 N47 1.314 . S
C44 H50 0.930 . S
C45 N47 1.279 . S
C45 C48 1.358 . S
C45 H51 0.930 . S
C46 C44 1.353 . S
C46 C49 1.348 . S
C46 H84 0.929 . S
N47 Li2 1.990 . S
N47 C44 1.314 . S
N47 C45 1.279 . S
C48 C45 1.358 . S
C48 C49 1.356 . S
C48 H85 0.930 . S
C49 C46 1.348 . S
C49 C48 1.356 . S
H50 C44 0.930 . S
H51 C45 0.930 . S
C52 N53 1.314 . S
C52 C54 1.353 . S
C52 H58 0.930 . S
N53 Li3 1.990 . S
N53 C52 1.314 . S
N53 C56 1.279 . S
C54 C52 1.353 . S
C54 C57 1.348 . S
C54 H86 0.929 . S
C55 C56 1.358 . S
C55 C57 1.356 . S
C55 H87 0.930 . S
C56 N53 1.279 . S
C56 C55 1.358 . S
C56 H59 0.930 . S
C57 C54 1.348 . S
C57 C55 1.356 . S
H58 C52 0.930 . S
H59 C56 0.930 . S
O60 Li0 1.956 . S
O60 Li1 1.970 . S
O60 Li2 1.961 . S
O60 C4 1.325 . S
O61 Li0 1.970 . S
O61 Li1 1.956 . S
O61 Li3 1.961 . S
O61 C10 1.325 . S
O62 Li0 1.961 . S
O62 Li2 1.956 . S
O62 Li3 1.970 . S
O62 C32 1.325 . S
O63 Li1 1.961 . S
O63 Li2 1.970 . S
O63 Li3 1.956 . S
O63 C38 1.325 . S
H64 C6 0.929 . S
H65 C7 0.930 . S
H66 C8 0.930 . S
H67 C9 0.930 . S
H68 C11 0.930 . S
H69 C13 0.929 . S
H70 C14 0.930 . S
H71 C15 0.930 . S
H72 C18 0.930 . S
H73 C21 0.929 . S
H74 C26 0.929 . S
H75 C27 0.930 . S
H76 C34 0.929 . S
H77 C35 0.944 . S
H78 C36 0.930 . S
H79 C37 0.930 1_655 S
H80 C39 0.929 . S
H81 C40 0.930 . S
H82 C41 0.930 . S
H83 C42 0.930 . S
H84 C46 0.929 . S
H85 C48 0.930 . S
H86 C54 0.929 . S
H87 C55 0.930 . S
Li88 N105 1.990 . S
Li88 O148 1.956 . S
Li88 O149 1.970 . S
Li88 O150 1.961 . S
Li89 N113 1.990 . S
Li89 O148 1.970 . S
Li89 O149 1.956 . S
Li89 O151 1.961 . S
Li90 N135 1.990 . S
Li90 O148 1.961 . S
Li90 O150 1.956 . S
Li90 O151 1.970 . S
Li91 N141 1.990 . S
Li91 O149 1.961 . S
Li91 O150 1.970 . S
Li91 O151 1.956 . S
C92 C94 1.348 . S
C92 C95 1.356 . S
C92 O148 1.325 . S
N93 C96 1.314 . S
N93 C97 1.279 . S
C94 C92 1.348 . S
C94 C96 1.353 . S
C94 H152 0.929 . S
C95 C92 1.356 . S
C95 C97 1.358 . S
C95 H153 0.930 . S
C96 N93 1.314 . S
C96 C94 1.353 . S
C96 H154 0.930 . S
C97 N93 1.279 . S
C97 C95 1.358 . S
C97 H155 0.930 . S
C98 C101 1.348 . S
C98 C102 1.356 . S
C98 O149 1.325 . S
C99 N100 1.279 . S
C99 C102 1.358 . S
C99 H156 0.930 . S
N100 C99 1.279 . S
N100 C103 1.314 . S
C101 C98 1.348 . S
C101 C103 1.353 . S
C101 H157 0.929 . S
C102 C98 1.356 . S
C102 C99 1.358 . S
C102 H158 0.930 . S
C103 N100 1.314 . S
C103 C101 1.353 . S
C103 H159 0.930 . S
C104 N105 1.314 . S
C104 C109 1.353 . S
C104 H110 0.930 . S
N105 Li88 1.990 . S
N105 C104 1.314 . S
N105 C107 1.279 . S
C106 C107 1.358 . S
C106 C108 1.356 . S
C106 H160 0.930 . S
C107 N105 1.279 . S
C107 C106 1.358 . S
C107 H111 0.930 . S
C108 C106 1.356 . S
C108 C109 1.348 . S
C109 C104 1.353 . S
C109 C108 1.348 . S
C109 H161 0.929 . S
H110 C104 0.930 . S
H111 C107 0.930 . S
C112 N113 1.314 . S
C112 C114 1.353 . S
C112 H118 0.930 . S
N113 Li89 1.990 . S
N113 C112 1.314 . S
N113 C116 1.279 . S
C114 C112 1.353 . S
C114 C117 1.348 . S
C114 H162 0.929 . S
C115 C116 1.358 . S
C115 C117 1.356 . S
C115 H163 0.930 . S
C116 N113 1.279 . S
C116 C115 1.358 . S
C116 H119 0.930 . S
C117 C114 1.348 . S
C117 C115 1.356 . S
H118 C112 0.930 . S
H119 C116 0.930 . S
C120 C122 1.348 . S
C120 C123 1.356 . S
C120 O150 1.325 . S
N121 C124 1.314 . S
N121 C125 1.279 . S
C122 C120 1.348 . S
C122 C124 1.353 . S
C122 H164 0.929 . S
C123 C120 1.356 . S
C123 C125 1.358 . S
C123 H165 0.930 . S
C124 N121 1.314 . S
C124 C122 1.353 . S
C124 H166 0.930 . S
C125 N121 1.279 . S
C125 C123 1.358 . S
C125 H167 0.930 . S
C126 C127 1.348 . S
C126 C128 1.356 . S
C126 O151 1.325 . S
C127 C126 1.348 . S
C127 C129 1.353 . S
C127 H168 0.929 . S
C128 C126 1.356 . S
C128 C130 1.358 . S
C128 H169 0.930 . S
C129 C127 1.353 . S
C129 N131 1.314 1_455 S
C129 H170 0.930 . S
C130 C128 1.358 . S
C130 N131 1.279 1_455 S
C130 H171 0.930 1_455 S
N131 C129 1.314 1_655 S
N131 C130 1.279 1_655 S
C132 C134 1.353 . S
C132 N135 1.314 . S
C132 H138 0.930 . S
C133 N135 1.279 . S
C133 C136 1.358 . S
C133 H139 0.930 . S
C134 C132 1.353 . S
C134 C137 1.348 . S
C134 H172 0.929 . S
N135 Li90 1.990 . S
N135 C132 1.314 . S
N135 C133 1.279 . S
C136 C133 1.358 . S
C136 C137 1.356 . S
C136 H173 0.930 . S
C137 C134 1.348 . S
C137 C136 1.356 . S
H138 C132 0.930 . S
H139 C133 0.930 . S
C140 N141 1.314 . S
C140 C142 1.353 . S
C140 H146 0.930 . S
N141 Li91 1.990 . S
N141 C140 1.314 . S
N141 C144 1.279 . S
C142 C140 1.353 . S
C142 C145 1.348 . S
C142 H174 0.929 . S
C143 C144 1.358 . S
C143 C145 1.356 . S
C143 H175 0.930 1_455 S
C144 N141 1.279 . S
C144 C143 1.358 . S
C144 H147 0.930 . S
C145 C142 1.348 . S
C145 C143 1.356 . S
H146 C140 0.930 . S
H147 C144 0.930 . S
O148 Li88 1.956 . S
O148 Li89 1.970 . S
O148 Li90 1.961 . S
O148 C92 1.325 . S
O149 Li88 1.970 . S
O149 Li89 1.956 . S
O149 Li91 1.961 . S
O149 C98 1.325 . S
O150 Li88 1.961 . S
O150 Li90 1.956 . S
O150 Li91 1.970 . S
O150 C120 1.325 . S
O151 Li89 1.961 . S
O151 Li90 1.970 . S
O151 Li91 1.956 . S
O151 C126 1.325 . S
H152 C94 0.929 . S
H153 C95 0.930 . S
H154 C96 0.930 . S
H155 C97 0.930 . S
H156 C99 0.930 . S
H157 C101 0.929 . S
H158 C102 0.930 . S
H159 C103 0.930 . S
H160 C106 0.930 . S
H161 C109 0.929 . S
H162 C114 0.929 . S
H163 C115 0.930 . S
H164 C122 0.929 . S
H165 C123 0.930 . S
H166 C124 0.930 . S
H167 C125 0.930 . S
H168 C127 0.929 . S
H169 C128 0.930 . S
H170 C129 0.930 . S
H171 C130 0.930 1_655 S
H172 C134 0.929 . S
H173 C136 0.930 . S
H174 C142 0.929 . S
H175 C143 0.930 1_655 S
Li176 N193 1.990 . S
Li176 O236 1.956 1_554 S
Li176 O237 1.976 . S
Li176 O238 1.961 1_554 S
Li177 N201 1.990 . S
Li177 O236 1.970 . S
Li177 O237 1.944 1_556 S
Li177 O239 1.961 . S
Li178 N223 1.990 1_455 S
Li178 O236 1.961 . S
Li178 O238 1.956 . S
Li178 O239 1.970 . S
Li179 N229 1.990 . S
Li179 O237 1.949 1_556 S
Li179 O238 1.970 . S
Li179 O239 1.956 . S
C180 C182 1.348 . S
C180 C183 1.360 . S
C180 O236 1.325 . S
N181 C184 1.314 . S
N181 C185 1.279 . S
C182 C180 1.348 . S
C182 C184 1.353 1_556 S
C182 H240 0.929 . S
C183 C180 1.360 . S
C183 C185 1.354 1_556 S
C183 H241 0.945 . S
C184 N181 1.314 . S
C184 C182 1.353 1_554 S
C184 H242 0.930 . S
C185 N181 1.279 . S
C185 C183 1.354 1_554 S
C185 H243 0.930 1_455 S
C186 C189 1.348 . S
C186 C190 1.356 . S
C186 O237 1.334 . S
C187 N188 1.279 . S
C187 C190 1.358 . S
C187 H244 0.930 . S
N188 C187 1.279 . S
N188 C191 1.314 . S
C189 C186 1.348 . S
C189 C191 1.353 . S
C189 H245 0.929 . S
C190 C186 1.356 . S
C190 C187 1.358 . S
C190 H246 0.930 1_554 S
C191 N188 1.314 . S
C191 C189 1.353 . S
C191 H247 0.930 . S
C192 N193 1.314 . S
C192 C197 1.353 . S
C192 H198 0.930 . S
N193 Li176 1.990 . S
N193 C192 1.314 . S
N193 C195 1.279 . S
C194 C195 1.358 . S
C194 C196 1.356 . S
C194 H248 0.930 . S
C195 N193 1.279 . S
C195 C194 1.358 . S
C195 H199 0.930 . S
C196 C194 1.356 . S
C196 C197 1.348 . S
C197 C192 1.353 . S
C197 C196 1.348 . S
C197 H249 0.929 . S
H198 C192 0.930 . S
H199 C195 0.930 . S
C200 N201 1.314 . S
C200 C202 1.353 . S
C200 H206 0.930 . S
N201 Li177 1.990 . S
N201 C200 1.314 . S
N201 C204 1.279 . S
C202 C200 1.353 . S
C202 C205 1.348 . S
C202 H250 0.929 . S
C203 C204 1.358 . S
C203 C205 1.356 . S
C203 H251 0.930 . S
C204 N201 1.279 . S
C204 C203 1.358 . S
C204 H207 0.930 . S
C205 C202 1.348 . S
C205 C203 1.356 . S
H206 C200 0.930 . S
H207 C204 0.930 . S
C208 C210 1.348 . S
C208 C211 1.356 1_456 S
C208 O238 1.325 . S
N209 C212 1.314 1_554 S
N209 C213 1.279 . S
C210 C208 1.348 . S
C210 C212 1.353 1_455 S
C210 H252 0.929 . S
C211 C208 1.356 1_654 S
C211 C213 1.358 . S
C211 H253 0.930 . S
C212 N209 1.314 1_556 S
C212 C210 1.353 1_655 S
C212 H254 0.930 . S
C213 N209 1.279 . S
C213 C211 1.358 . S
C213 H255 0.930 . S
C214 C215 1.348 . S
C214 C216 1.356 . S
C214 O239 1.325 . S
C215 C214 1.348 . S
C215 C217 1.353 . S
C215 H256 0.929 . S
C216 C214 1.356 . S
C216 C218 1.358 . S
C216 H257 0.930 . S
C217 C215 1.353 . S
C217 N219 1.314 . S
C217 H258 0.930 . S
C218 C216 1.358 . S
C218 N219 1.279 . S
C218 H259 0.930 . S
N219 C217 1.314 . S
N219 C218 1.279 . S
C220 C222 1.353 . S
C220 N223 1.314 . S
C220 H226 0.930 1_655 S
C221 N223 1.279 . S
C221 C224 1.358 . S
C221 H227 0.930 . S
C222 C220 1.353 . S
C222 C225 1.348 . S
C222 H260 0.929 . S
N223 Li178 1.990 1_655 S
N223 C220 1.314 . S
N223 C221 1.279 . S
C224 C221 1.358 . S
C224 C225 1.356 . S
C224 H261 0.930 . S
C225 C222 1.348 . S
C225 C224 1.356 . S
H226 C220 0.930 1_455 S
H227 C221 0.930 . S
C228 N229 1.314 . S
C228 C230 1.353 . S
C228 H234 0.926 1_556 S
N229 Li179 1.990 . S
N229 C228 1.314 . S
N229 C232 1.279 . S
C230 C228 1.353 . S
C230 C233 1.348 . S
C230 H262 0.929 . S
C231 C232 1.358 . S
C231 C233 1.356 . S
C231 H263 0.930 . S
C232 N229 1.279 . S
C232 C231 1.358 . S
C232 H235 0.930 . S
C233 C230 1.348 . S
C233 C231 1.356 . S
H234 C228 0.926 1_554 S
H235 C232 0.930 . S
O236 Li176 1.956 1_556 S
O236 Li177 1.970 . S
O236 Li178 1.961 . S
O236 C180 1.325 . S
O237 Li176 1.976 . S
O237 Li177 1.944 1_554 S
O237 Li179 1.949 1_554 S
O237 C186 1.334 . S
O238 Li176 1.961 1_556 S
O238 Li178 1.956 . S
O238 Li179 1.970 . S
O238 C208 1.325 . S
O239 Li177 1.961 . S
O239 Li178 1.970 . S
O239 Li179 1.956 . S
O239 C214 1.325 . S
H240 C182 0.929 . S
H241 C183 0.945 . S
H242 C184 0.930 . S
H243 C185 0.930 1_655 S
H244 C187 0.930 . S
H245 C189 0.929 . S
H246 C190 0.930 1_556 S
H247 C191 0.930 . S
H248 C194 0.930 . S
H249 C197 0.929 . S
H250 C202 0.929 . S
H251 C203 0.930 . S
H252 C210 0.929 . S
H253 C211 0.930 . S
H254 C212 0.930 . S
H255 C213 0.930 . S
H256 C215 0.929 . S
H257 C216 0.930 . S
H258 C217 0.930 . S
H259 C218 0.930 . S
H260 C222 0.929 . S
H261 C224 0.930 . S
H262 C230 0.929 . S
H263 C231 0.930 . S
Li264 N281 1.990 . S
Li264 O324 1.956 1_554 S
Li264 O325 1.976 . S
Li264 O326 1.961 1_554 S
Li265 N289 1.990 . S
Li265 O324 1.970 . S
Li265 O325 1.944 1_556 S
Li265 O327 1.961 . S
Li266 N311 1.990 . S
Li266 O324 1.961 . S
Li266 O326 1.956 . S
Li266 O327 1.970 . S
Li267 N317 1.990 . S
Li267 O325 1.949 1_556 S
Li267 O326 1.970 . S
Li267 O327 1.956 . S
C268 C270 1.348 . S
C268 C271 1.360 . S
C268 O324 1.325 . S
N269 C272 1.314 . S
N269 C273 1.279 . S
C270 C268 1.348 . S
C270 C272 1.353 1_556 S
C270 H328 0.929 . S
C271 C268 1.360 . S
C271 C273 1.354 1_556 S
C271 H329 0.929 . S
C272 N269 1.314 . S
C272 C270 1.353 1_554 S
C272 H330 0.930 . S
C273 N269 1.279 . S
C273 C271 1.354 1_554 S
C273 H331 0.930 . S
C274 C277 1.348 . S
C274 C278 1.356 . S
C274 O325 1.334 . S
C275 N276 1.279 1_455 S
C275 C278 1.358 . S
C275 H332 0.930 1_455 S
N276 C275 1.279 1_655 S
N276 C279 1.314 1_655 S
C277 C274 1.348 . S
C277 C279 1.353 . S
C277 H333 0.929 . S
C278 C274 1.356 . S
C278 C275 1.358 . S
C278 H334 0.930 1_554 S
C279 N276 1.314 1_455 S
C279 C277 1.353 . S
C279 H335 0.930 . S
C280 N281 1.314 . S
C280 C285 1.353 . S
C280 H286 0.930 . S
N281 Li264 1.990 . S
N281 C280 1.314 . S
N281 C283 1.279 . S
C282 C283 1.358 . S
C282 C284 1.356 . S
C282 H336 0.930 . S
C283 N281 1.279 . S
C283 C282 1.358 . S
C283 H287 0.930 . S
C284 C282 1.356 . S
C284 C285 1.348 . S
C285 C280 1.353 . S
C285 C284 1.348 . S
C285 H337 0.929 . S
H286 C280 0.930 . S
H287 C283 0.930 . S
C288 N289 1.314 . S
C288 C290 1.353 . S
C288 H294 0.930 . S
N289 Li265 1.990 . S
N289 C288 1.314 . S
N289 C292 1.279 . S
C290 C288 1.353 . S
C290 C293 1.348 . S
C290 H338 0.929 . S
C291 C292 1.358 . S
C291 C293 1.356 . S
C291 H339 0.930 1_455 S
C292 N289 1.279 . S
C292 C291 1.358 . S
C292 H295 0.930 . S
C293 C290 1.348 . S
C293 C291 1.356 . S
H294 C288 0.930 . S
H295 C292 0.930 . S
C296 C298 1.348 . S
C296 C299 1.356 1_556 S
C296 O326 1.325 . S
N297 C300 1.314 1_554 S
N297 C301 1.279 . S
C298 C296 1.348 . S
C298 C300 1.353 . S
C298 H340 0.929 . S
C299 C296 1.356 1_554 S
C299 C301 1.358 . S
C299 H341 0.930 . S
C300 N297 1.314 1_556 S
C300 C298 1.353 . S
C300 H342 0.930 . S
C301 N297 1.279 . S
C301 C299 1.358 . S
C301 H343 0.930 . S
C302 C303 1.348 . S
C302 C304 1.356 . S
C302 O327 1.325 . S
C303 C302 1.348 . S
C303 C305 1.353 . S
C303 H344 0.929 . S
C304 C302 1.356 . S
C304 C306 1.358 . S
C304 H345 0.930 . S
C305 C303 1.353 . S
C305 N307 1.314 . S
C305 H346 0.930 . S
C306 C304 1.358 . S
C306 N307 1.279 . S
C306 H347 0.930 . S
N307 C305 1.314 . S
N307 C306 1.279 . S
C308 C310 1.353 . S
C308 N311 1.314 . S
C308 H314 0.930 . S
C309 N311 1.279 . S
C309 C312 1.358 . S
C309 H315 0.930 . S
C310 C308 1.353 . S
C310 C313 1.348 . S
C310 H348 0.929 . S
N311 Li266 1.990 . S
N311 C308 1.314 . S
N311 C309 1.279 . S
C312 C309 1.358 . S
C312 C313 1.356 . S
C312 H349 0.930 . S
C313 C310 1.348 . S
C313 C312 1.356 . S
H314 C308 0.930 . S
H315 C309 0.930 . S
C316 N317 1.314 . S
C316 C318 1.353 . S
C316 H322 0.926 1_556 S
N317 Li267 1.990 . S
N317 C316 1.314 . S
N317 C320 1.279 . S
C318 C316 1.353 . S
C318 C321 1.348 . S
C318 H350 0.929 . S
C319 C320 1.358 . S
C319 C321 1.356 . S
C319 H351 0.930 . S
C320 N317 1.279 . S
C320 C319 1.358 . S
C320 H323 0.930 . S
C321 C318 1.348 . S
C321 C319 1.356 . S
H322 C316 0.926 1_554 S
H323 C320 0.930 . S
O324 Li264 1.956 1_556 S
O324 Li265 1.970 . S
O324 Li266 1.961 . S
O324 C268 1.325 . S
O325 Li264 1.976 . S
O325 Li265 1.944 1_554 S
O325 Li267 1.949 1_554 S
O325 C274 1.334 . S
O326 Li264 1.961 1_556 S
O326 Li266 1.956 . S
O326 Li267 1.970 . S
O326 C296 1.325 . S
O327 Li265 1.961 . S
O327 Li266 1.970 . S
O327 Li267 1.956 . S
O327 C302 1.325 . S
H328 C270 0.929 . S
H329 C271 0.929 . S
H330 C272 0.930 . S
H331 C273 0.930 . S
H332 C275 0.930 1_655 S
H333 C277 0.929 . S
H334 C278 0.930 1_556 S
H335 C279 0.930 . S
H336 C282 0.930 . S
H337 C285 0.929 . S
H338 C290 0.929 . S
H339 C291 0.930 1_655 S
H340 C298 0.929 . S
H341 C299 0.930 . S
H342 C300 0.930 . S
H343 C301 0.930 . S
H344 C303 0.929 . S
H345 C304 0.930 . S
H346 C305 0.930 . S
H347 C306 0.930 . S
H348 C310 0.929 . S
H349 C312 0.930 . S
H350 C318 0.929 . S
H351 C319 0.930 . S
Li352 N369 1.990 . S
Li352 O412 1.956 . S
Li352 O413 1.970 . S
Li352 O414 1.961 . S
Li353 N377 1.990 . S
Li353 O412 1.970 . S
Li353 O413 1.956 . S
Li353 O415 1.961 . S
Li354 N399 1.990 1_655 S
Li354 O412 1.961 . S
Li354 O414 1.956 . S
Li354 O415 1.970 . S
Li355 N405 1.990 . S
Li355 O413 1.961 . S
Li355 O414 1.970 . S
Li355 O415 1.956 . S
C356 C358 1.348 . S
C356 C359 1.356 1_655 S
C356 O412 1.325 . S
N357 C360 1.314 1_455 S
N357 C361 1.279 . S
C358 C356 1.348 . S
C358 C360 1.353 . S
C358 H416 0.929 . S
C359 C356 1.356 1_455 S
C359 C361 1.358 . S
C359 H417 0.930 . S
C360 N357 1.314 1_655 S
C360 C358 1.353 . S
C360 H418 0.930 . S
C361 N357 1.279 . S
C361 C359 1.358 . S
C361 H419 0.930 . S
C362 C365 1.348 . S
C362 C366 1.356 . S
C362 O413 1.325 . S
C363 N364 1.279 . S
C363 C366 1.358 . S
C363 H420 0.930 . S
N364 C363 1.279 . S
N364 C367 1.314 . S
C365 C362 1.348 . S
C365 C367 1.353 . S
C365 H421 0.929 . S
C366 C362 1.356 . S
C366 C363 1.358 . S
C366 H422 0.930 . S
C367 N364 1.314 . S
C367 C365 1.353 . S
C367 H423 0.930 . S
C368 N369 1.314 . S
C368 C373 1.353 . S
C368 H374 0.930 . S
N369 Li352 1.990 . S
N369 C368 1.314 . S
N369 C371 1.279 . S
C370 C371 1.358 . S
C370 C372 1.356 . S
C370 H424 0.930 . S
C371 N369 1.279 . S
C371 C370 1.358 . S
C371 H375 0.930 . S
C372 C370 1.356 . S
C372 C373 1.348 . S
C373 C368 1.353 . S
C373 C372 1.348 . S
C373 H425 0.929 . S
H374 C368 0.930 . S
H375 C371 0.930 . S
C376 N377 1.314 . S
C376 C378 1.353 . S
C376 H382 0.930 . S
N377 Li353 1.990 . S
N377 C376 1.314 . S
N377 C380 1.279 . S
C378 C376 1.353 . S
C378 C381 1.348 . S
C378 H426 0.929 . S
C379 C380 1.358 . S
C379 C381 1.356 . S
C379 H427 0.930 . S
C380 N377 1.279 . S
C380 C379 1.358 . S
C380 H383 0.930 . S
C381 C378 1.348 . S
C381 C379 1.356 . S
H382 C376 0.930 . S
H383 C380 0.930 . S
C384 C386 1.348 . S
C384 C387 1.356 . S
C384 O414 1.325 . S
N385 C388 1.314 . S
N385 C389 1.279 . S
C386 C384 1.348 . S
C386 C388 1.353 . S
C386 H428 0.929 . S
C387 C384 1.356 . S
C387 C389 1.358 . S
C387 H429 0.930 . S
C388 N385 1.314 . S
C388 C386 1.353 . S
C388 H430 0.930 . S
C389 N385 1.279 . S
C389 C387 1.358 . S
C389 H431 0.930 1_655 S
C390 C391 1.348 . S
C390 C392 1.356 . S
C390 O415 1.325 . S
C391 C390 1.348 . S
C391 C393 1.353 . S
C391 H432 0.929 . S
C392 C390 1.356 . S
C392 C394 1.358 . S
C392 H433 0.930 . S
C393 C391 1.353 . S
C393 N395 1.314 . S
C393 H434 0.930 . S
C394 C392 1.358 . S
C394 N395 1.279 . S
C394 H435 0.930 . S
N395 C393 1.314 . S
N395 C394 1.279 . S
C396 C398 1.353 . S
C396 N399 1.314 . S
C396 H402 0.930 . S
C397 N399 1.279 . S
C397 C400 1.358 . S
C397 H403 0.930 . S
C398 C396 1.353 . S
C398 C401 1.348 . S
C398 H436 0.929 . S
N399 Li354 1.990 1_455 S
N399 C396 1.314 . S
N399 C397 1.279 . S
C400 C397 1.358 . S
C400 C401 1.356 . S
C400 H437 0.930 . S
C401 C398 1.348 . S
C401 C400 1.356 . S
H402 C396 0.930 . S
H403 C397 0.930 . S
C404 N405 1.314 . S
C404 C406 1.353 . S
C404 H410 0.930 . S
N405 Li355 1.990 . S
N405 C404 1.314 . S
N405 C408 1.279 . S
C406 C404 1.353 . S
C406 C409 1.348 . S
C406 H438 0.929 . S
C407 C408 1.358 . S
C407 C409 1.356 . S
C407 H439 0.930 . S
C408 N405 1.279 . S
C408 C407 1.358 . S
C408 H411 0.930 . S
C409 C406 1.348 . S
C409 C407 1.356 . S
H410 C404 0.930 . S
H411 C408 0.930 . S
O412 Li352 1.956 . S
O412 Li353 1.970 . S
O412 Li354 1.961 . S
O412 C356 1.325 . S
O413 Li352 1.970 . S
O413 Li353 1.956 . S
O413 Li355 1.961 . S
O413 C362 1.325 . S
O414 Li352 1.961 . S
O414 Li354 1.956 . S
O414 Li355 1.970 . S
O414 C384 1.325 . S
O415 Li353 1.961 . S
O415 Li354 1.970 . S
O415 Li355 1.956 . S
O415 C390 1.325 . S
H416 C358 0.929 . S
H417 C359 0.930 . S
H418 C360 0.930 . S
H419 C361 0.930 . S
H420 C363 0.930 . S
H421 C365 0.929 . S
H422 C366 0.930 . S
H423 C367 0.930 . S
H424 C370 0.930 . S
H425 C373 0.929 . S
H426 C378 0.929 . S
H427 C379 0.930 . S
H428 C386 0.929 . S
H429 C387 0.930 . S
H430 C388 0.930 . S
H431 C389 0.930 1_455 S
H432 C391 0.929 . S
H433 C392 0.930 . S
H434 C393 0.930 . S
H435 C394 0.930 . S
H436 C398 0.929 . S
H437 C400 0.930 . S
H438 C406 0.929 . S
H439 C407 0.930 . S
Li440 N457 1.990 . S
Li440 O500 1.956 . S
Li440 O501 1.970 . S
Li440 O502 1.961 . S
Li441 N465 1.990 . S
Li441 O500 1.970 . S
Li441 O501 1.956 . S
Li441 O503 1.961 . S
Li442 N487 1.990 . S
Li442 O500 1.961 . S
Li442 O502 1.956 . S
Li442 O503 1.970 . S
Li443 N493 1.990 . S
Li443 O501 1.961 . S
Li443 O502 1.970 . S
Li443 O503 1.956 . S
C444 C446 1.348 . S
C444 C447 1.356 . S
C444 O500 1.325 . S
N445 C448 1.310 1_455 S
N445 C449 1.279 1_455 S
C446 C444 1.348 . S
C446 C448 1.353 . S
C446 H504 0.929 . S
C447 C444 1.356 . S
C447 C449 1.358 . S
C447 H505 0.930 . S
C448 N445 1.310 1_655 S
C448 C446 1.353 . S
C448 H506 0.930 . S
C449 N445 1.279 1_655 S
C449 C447 1.358 . S
C449 H507 0.930 1_655 S
C450 C453 1.348 . S
C450 C454 1.356 . S
C450 O501 1.325 . S
C451 N452 1.279 . S
C451 C454 1.358 . S
C451 H508 0.930 . S
N452 C451 1.279 . S
N452 C455 1.314 . S
C453 C450 1.348 . S
C453 C455 1.353 . S
C453 H509 0.929 . S
C454 C450 1.356 . S
C454 C451 1.358 . S
C454 H510 0.930 . S
C455 N452 1.314 . S
C455 C453 1.353 . S
C455 H511 0.930 . S
C456 N457 1.314 . S
C456 C461 1.353 . S
C456 H462 0.930 . S
N457 Li440 1.990 . S
N457 C456 1.314 . S
N457 C459 1.279 . S
C458 C459 1.358 . S
C458 C460 1.356 . S
C458 H512 0.930 . S
C459 N457 1.279 . S
C459 C458 1.358 . S
C459 H463 0.930 . S
C460 C458 1.356 . S
C460 C461 1.348 . S
C461 C456 1.353 . S
C461 C460 1.348 . S
C461 H513 0.929 . S
H462 C456 0.930 . S
H463 C459 0.930 . S
C464 N465 1.314 . S
C464 C466 1.353 . S
C464 H470 0.930 . S
N465 Li441 1.990 . S
N465 C464 1.314 . S
N465 C468 1.279 . S
C466 C464 1.353 . S
C466 C469 1.348 . S
C466 H514 0.929 . S
C467 C468 1.358 . S
C467 C469 1.356 . S
C467 H515 0.930 . S
C468 N465 1.279 . S
C468 C467 1.358 . S
C468 H471 0.930 . S
C469 C466 1.348 . S
C469 C467 1.356 . S
H470 C464 0.930 . S
H471 C468 0.930 . S
C472 C474 1.348 . S
C472 C475 1.356 . S
C472 O502 1.325 . S
N473 C476 1.314 . S
N473 C477 1.279 . S
C474 C472 1.348 . S
C474 C476 1.353 . S
C474 H516 0.929 . S
C475 C472 1.356 . S
C475 C477 1.358 . S
C475 H517 0.930 . S
C476 N473 1.314 . S
C476 C474 1.353 . S
C476 H518 0.930 . S
C477 N473 1.279 . S
C477 C475 1.358 . S
C477 H519 0.930 . S
C478 C479 1.348 . S
C478 C480 1.356 . S
C478 O503 1.325 . S
C479 C478 1.348 . S
C479 C481 1.353 . S
C479 H520 0.929 . S
C480 C478 1.356 . S
C480 C482 1.358 . S
C480 H521 0.930 . S
C481 C479 1.353 . S
C481 N483 1.314 . S
C481 H522 0.930 . S
C482 C480 1.358 . S
C482 N483 1.279 . S
C482 H523 0.930 . S
N483 C481 1.314 . S
N483 C482 1.279 . S
C484 C486 1.353 . S
C484 N487 1.314 . S
C484 H490 0.930 . S
C485 N487 1.279 . S
C485 C488 1.358 . S
C485 H491 0.930 . S
C486 C484 1.353 . S
C486 C489 1.348 . S
C486 H524 0.929 . S
N487 Li442 1.990 . S
N487 C484 1.314 . S
N487 C485 1.279 . S
C488 C485 1.358 . S
C488 C489 1.356 . S
C488 H525 0.930 . S
C489 C486 1.348 . S
C489 C488 1.356 . S
H490 C484 0.930 . S
H491 C485 0.930 . S
C492 N493 1.314 . S
C492 C494 1.353 . S
C492 H498 0.930 . S
N493 Li443 1.990 . S
N493 C492 1.314 . S
N493 C496 1.279 . S
C494 C492 1.353 . S
C494 C497 1.348 . S
C494 H526 0.929 . S
C495 C496 1.358 . S
C495 C497 1.356 . S
C495 H527 0.930 . S
C496 N493 1.279 . S
C496 C495 1.358 . S
C496 H499 0.930 . S
C497 C494 1.348 . S
C497 C495 1.356 . S
H498 C492 0.930 . S
H499 C496 0.930 . S
O500 Li440 1.956 . S
O500 Li441 1.970 . S
O500 Li442 1.961 . S
O500 C444 1.325 . S
O501 Li440 1.970 . S
O501 Li441 1.956 . S
O501 Li443 1.961 . S
O501 C450 1.325 . S
O502 Li440 1.961 . S
O502 Li442 1.956 . S
O502 Li443 1.970 . S
O502 C472 1.325 . S
O503 Li441 1.961 . S
O503 Li442 1.970 . S
O503 Li443 1.956 . S
O503 C478 1.325 . S
H504 C446 0.929 . S
H505 C447 0.930 . S
H506 C448 0.930 . S
H507 C449 0.930 1_455 S
H508 C451 0.930 . S
H509 C453 0.929 . S
H510 C454 0.930 . S
H511 C455 0.930 . S
H512 C458 0.930 . S
H513 C461 0.929 . S
H514 C466 0.929 . S
H515 C467 0.930 . S
H516 C474 0.929 . S
H517 C475 0.930 . S
H518 C476 0.930 . S
H519 C477 0.930 . S
H520 C479 0.929 . S
H521 C480 0.930 . S
H522 C481 0.930 . S
H523 C482 0.930 . S
H524 C486 0.929 . S
H525 C488 0.930 . S
H526 C494 0.929 . S
H527 C495 0.930 . S
Li528 N545 1.990 1_655 S
Li528 O588 1.956 . S
Li528 O589 1.970 . S
Li528 O590 1.961 . S
Li529 N553 1.990 . S
Li529 O588 1.970 . S
Li529 O589 1.956 . S
Li529 O591 1.963 1_554 S
Li530 N575 1.990 . S
Li530 O588 1.961 1_556 S
Li530 O590 1.956 1_556 S
Li530 O591 1.969 . S
Li531 N581 1.990 . S
Li531 O589 1.961 . S
Li531 O590 1.970 . S
Li531 O591 1.958 1_554 S
C532 C534 1.348 . S
C532 C535 1.356 1_554 S
C532 O588 1.325 . S
N533 C536 1.314 1_556 S
N533 C537 1.279 . S
C534 C532 1.348 . S
C534 C536 1.353 . S
C534 H592 0.929 . S
C535 C532 1.356 1_556 S
C535 C537 1.358 . S
C535 H593 0.930 . S
C536 N533 1.314 1_554 S
C536 C534 1.353 . S
C536 H594 0.930 . S
C537 N533 1.279 . S
C537 C535 1.358 . S
C537 H595 0.930 1_655 S
C538 C541 1.348 . S
C538 C542 1.356 . S
C538 O589 1.325 . S
C539 N540 1.279 . S
C539 C542 1.358 . S
C539 H596 0.930 . S
N540 C539 1.279 . S
N540 C543 1.314 . S
C541 C538 1.348 . S
C541 C543 1.353 . S
C541 H597 0.929 . S
C542 C538 1.356 . S
C542 C539 1.358 . S
C542 H598 0.930 . S
C543 N540 1.314 . S
C543 C541 1.353 . S
C543 H599 0.930 . S
C544 N545 1.314 . S
C544 C549 1.353 . S
C544 H550 0.930 . S
N545 Li528 1.990 1_455 S
N545 C544 1.314 . S
N545 C547 1.279 . S
C546 C547 1.358 . S
C546 C548 1.356 . S
C546 H600 0.930 . S
C547 N545 1.279 . S
C547 C546 1.358 . S
C547 H551 0.930 . S
C548 C546 1.356 . S
C548 C549 1.348 . S
C549 C544 1.353 . S
C549 C548 1.348 . S
C549 H601 0.929 . S
H550 C544 0.930 . S
H551 C547 0.930 . S
C552 N553 1.314 . S
C552 C554 1.353 . S
C552 H558 0.930 . S
N553 Li529 1.990 . S
N553 C552 1.314 . S
N553 C556 1.279 . S
C554 C552 1.353 . S
C554 C557 1.348 . S
C554 H602 0.929 . S
C555 C556 1.358 . S
C555 C557 1.356 . S
C555 H603 0.930 . S
C556 N553 1.279 . S
C556 C555 1.358 . S
C556 H559 0.930 . S
C557 C554 1.348 . S
C557 C555 1.356 . S
H558 C552 0.930 . S
H559 C556 0.930 . S
C560 C562 1.349 . S
C560 C563 1.347 1_654 S
C560 O590 1.325 . S
N561 C564 1.314 1_455 S
N561 C565 1.279 . S
C562 C560 1.349 . S
C562 C564 1.350 1_554 S
C562 H604 0.931 . S
C563 C560 1.347 1_456 S
C563 C565 1.372 . S
C563 H605 0.929 . S
C564 N561 1.314 1_655 S
C564 C562 1.350 1_556 S
C564 H606 0.930 . S
C565 N561 1.279 . S
C565 C563 1.372 . S
C565 H607 0.930 . S
C566 C567 1.348 . S
C566 C568 1.356 . S
C566 O591 1.323 . S
C567 C566 1.348 . S
C567 C569 1.353 . S
C567 H608 0.929 . S
C568 C566 1.356 . S
C568 C570 1.358 . S
C568 H609 0.930 1_556 S
C569 C567 1.353 . S
C569 N571 1.314 . S
C569 H610 0.930 . S
C570 C568 1.358 . S
C570 N571 1.279 . S
C570 H611 0.930 . S
N571 C569 1.314 . S
N571 C570 1.279 . S
C572 C574 1.353 . S
C572 N575 1.314 . S
C572 H578 0.930 . S
C573 N575 1.279 . S
C573 C576 1.358 . S
C573 H579 0.930 . S
C574 C572 1.353 . S
C574 C577 1.348 . S
C574 H612 0.929 . S
N575 Li530 1.990 . S
N575 C572 1.314 . S
N575 C573 1.279 . S
C576 C573 1.358 . S
C576 C577 1.356 . S
C576 H613 0.930 . S
C577 C574 1.348 . S
C577 C576 1.356 . S
H578 C572 0.930 . S
H579 C573 0.930 . S
C580 N581 1.314 . S
C580 C582 1.353 . S
C580 H586 0.930 . S
N581 Li531 1.990 . S
N581 C580 1.314 . S
N581 C584 1.279 . S
C582 C580 1.353 . S
C582 C585 1.348 . S
C582 H614 0.929 . S
C583 C584 1.358 . S
C583 C585 1.356 . S
C583 H615 0.930 . S
C584 N581 1.279 . S
C584 C583 1.358 . S
C584 H587 0.930 . S
C585 C582 1.348 . S
C585 C583 1.356 . S
H586 C580 0.930 . S
H587 C584 0.930 . S
O588 Li528 1.956 . S
O588 Li529 1.970 . S
O588 Li530 1.961 1_554 S
O588 C532 1.325 . S
O589 Li528 1.970 . S
O589 Li529 1.956 . S
O589 Li531 1.961 . S
O589 C538 1.325 . S
O590 Li528 1.961 . S
O590 Li530 1.956 1_554 S
O590 Li531 1.970 . S
O590 C560 1.325 . S
O591 Li529 1.963 1_556 S
O591 Li530 1.969 . S
O591 Li531 1.958 1_556 S
O591 C566 1.323 . S
H592 C534 0.929 . S
H593 C535 0.930 . S
H594 C536 0.930 . S
H595 C537 0.930 1_455 S
H596 C539 0.930 . S
H597 C541 0.929 . S
H598 C542 0.930 . S
H599 C543 0.930 . S
H600 C546 0.930 . S
H601 C549 0.929 . S
H602 C554 0.929 . S
H603 C555 0.930 . S
H604 C562 0.931 . S
H605 C563 0.929 . S
H606 C564 0.930 . S
H607 C565 0.930 . S
H608 C567 0.929 . S
H609 C568 0.930 1_554 S
H610 C569 0.930 . S
H611 C570 0.930 . S
H612 C574 0.929 . S
H613 C576 0.930 . S
H614 C582 0.929 . S
H615 C583 0.930 . S
Li616 N633 1.990 . S
Li616 O676 1.956 . S
Li616 O677 1.970 . S
Li616 O678 1.963 1_554 S
Li617 N641 1.990 . S
Li617 O676 1.970 . S
Li617 O677 1.956 . S
Li617 O679 1.961 . S
Li618 N663 1.990 . S
Li618 O676 1.961 . S
Li618 O678 1.958 1_554 S
Li618 O679 1.970 . S
Li619 N669 1.990 . S
Li619 O677 1.961 1_556 S
Li619 O678 1.969 . S
Li619 O679 1.956 1_556 S
C620 C622 1.348 . S
C620 C623 1.356 . S
C620 O676 1.325 . S
N621 C624 1.314 . S
N621 C625 1.279 . S
C622 C620 1.348 . S
C622 C624 1.353 . S
C622 H680 0.929 . S
C623 C620 1.356 . S
C623 C625 1.358 . S
C623 H681 0.930 . S
C624 N621 1.314 . S
C624 C622 1.353 . S
C624 H682 0.930 . S
C625 N621 1.279 . S
C625 C623 1.358 . S
C625 H683 0.930 . S
C626 C629 1.348 . S
C626 C630 1.356 1_554 S
C626 O677 1.325 . S
C627 N628 1.279 . S
C627 C630 1.358 . S
C627 H684 0.930 . S
N628 C627 1.279 . S
N628 C631 1.314 1_556 S
C629 C626 1.348 . S
C629 C631 1.353 . S
C629 H685 0.929 . S
C630 C626 1.356 1_556 S
C630 C627 1.358 . S
C630 H686 0.930 . S
C631 N628 1.314 1_554 S
C631 C629 1.353 . S
C631 H687 0.930 . S
C632 N633 1.314 . S
C632 C637 1.353 . S
C632 H638 0.930 . S
N633 Li616 1.990 . S
N633 C632 1.314 . S
N633 C635 1.279 . S
C634 C635 1.358 . S
C634 C636 1.356 . S
C634 H688 0.930 . S
C635 N633 1.279 . S
C635 C634 1.358 . S
C635 H639 0.930 . S
C636 C634 1.356 . S
C636 C637 1.348 . S
C637 C632 1.353 . S
C637 C636 1.348 . S
C637 H689 0.929 . S
H638 C632 0.930 . S
H639 C635 0.930 . S
C640 N641 1.314 . S
C640 C642 1.353 . S
C640 H646 0.930 . S
N641 Li617 1.990 . S
N641 C640 1.314 . S
N641 C644 1.279 . S
C642 C640 1.353 . S
C642 C645 1.348 . S
C642 H690 0.929 . S
C643 C644 1.358 . S
C643 C645 1.356 . S
C643 H691 0.930 . S
C644 N641 1.279 . S
C644 C643 1.358 . S
C644 H647 0.930 . S
C645 C642 1.348 . S
C645 C643 1.356 . S
H646 C640 0.930 . S
H647 C644 0.930 . S
C648 C650 1.348 . S
C648 C651 1.356 . S
C648 O678 1.323 . S
N649 C652 1.309 1_455 S
N649 C653 1.279 1_455 S
C650 C648 1.348 . S
C650 C652 1.353 . S
C650 H692 0.929 . S
C651 C648 1.356 . S
C651 C653 1.358 . S
C651 H693 0.930 1_556 S
C652 N649 1.309 1_655 S
C652 C650 1.353 . S
C652 H694 0.930 . S
C653 N649 1.279 1_655 S
C653 C651 1.358 . S
C653 H695 0.930 1_655 S
C654 C655 1.349 . S
C654 C656 1.347 1_554 S
C654 O679 1.325 . S
C655 C654 1.349 . S
C655 C657 1.350 1_554 S
C655 H696 0.931 . S
C656 C654 1.347 1_556 S
C656 C658 1.372 . S
C656 H697 0.929 . S
C657 C655 1.350 1_556 S
C657 N659 1.314 . S
C657 H698 0.930 . S
C658 C656 1.372 . S
C658 N659 1.279 . S
C658 H699 0.930 . S
N659 C657 1.314 . S
N659 C658 1.279 . S
C660 C662 1.353 . S
C660 N663 1.314 . S
C660 H666 0.930 . S
C661 N663 1.279 . S
C661 C664 1.358 . S
C661 H667 0.930 . S
C662 C660 1.353 . S
C662 C665 1.348 . S
C662 H700 0.929 . S
N663 Li618 1.990 . S
N663 C660 1.314 . S
N663 C661 1.279 . S
C664 C661 1.358 . S
C664 C665 1.356 . S
C664 H701 0.930 . S
C665 C662 1.348 . S
C665 C664 1.356 . S
H666 C660 0.930 . S
H667 C661 0.930 . S
C668 N669 1.314 . S
C668 C670 1.353 . S
C668 H674 0.930 . S
N669 Li619 1.990 . S
N669 C668 1.314 . S
N669 C672 1.279 . S
C670 C668 1.353 . S
C670 C673 1.348 . S
C670 H702 0.929 . S
C671 C672 1.358 . S
C671 C673 1.356 . S
C671 H703 0.930 . S
C672 N669 1.279 . S
C672 C671 1.358 . S
C672 H675 0.930 . S
C673 C670 1.348 . S
C673 C671 1.356 . S
H674 C668 0.930 . S
H675 C672 0.930 . S
O676 Li616 1.956 . S
O676 Li617 1.970 . S
O676 Li618 1.961 . S
O676 C620 1.325 . S
O677 Li616 1.970 . S
O677 Li617 1.956 . S
O677 Li619 1.961 1_554 S
O677 C626 1.325 . S
O678 Li616 1.963 1_556 S
O678 Li618 1.958 1_556 S
O678 Li619 1.969 . S
O678 C648 1.323 . S
O679 Li617 1.961 . S
O679 Li618 1.970 . S
O679 Li619 1.956 1_554 S
O679 C654 1.325 . S
H680 C622 0.929 . S
H681 C623 0.930 . S
H682 C624 0.930 . S
H683 C625 0.930 . S
H684 C627 0.930 . S
H685 C629 0.929 . S
H686 C630 0.930 . S
H687 C631 0.930 . S
H688 C634 0.930 . S
H689 C637 0.929 . S
H690 C642 0.929 . S
H691 C643 0.930 . S
H692 C650 0.929 . S
H693 C651 0.930 1_554 S
H694 C652 0.930 . S
H695 C653 0.930 1_455 S
H696 C655 0.931 . S
H697 C656 0.929 . S
H698 C657 0.930 . S
H699 C658 0.930 . S
H700 C662 0.929 . S
H701 C664 0.930 . S
H702 C670 0.929 . S
H703 C671 0.930 . S
Li704 N721 1.990 1_455 S
Li704 O764 1.956 . S
Li704 O765 1.970 . S
Li704 O766 1.961 . S
Li705 N729 1.990 . S
Li705 O764 1.970 . S
Li705 O765 1.956 . S
Li705 O767 1.961 . S
Li706 N751 1.990 . S
Li706 O764 1.961 . S
Li706 O766 1.956 . S
Li706 O767 1.970 . S
Li707 N757 1.990 . S
Li707 O765 1.961 . S
Li707 O766 1.970 . S
Li707 O767 1.956 . S
C708 C710 1.348 . S
C708 C711 1.356 1_455 S
C708 O764 1.325 . S
N709 C712 1.314 . S
N709 C713 1.279 . S
C710 C708 1.348 . S
C710 C712 1.353 1_455 S
C710 H768 0.929 . S
C711 C708 1.356 1_655 S
C711 C713 1.358 . S
C711 H769 0.930 . S
C712 N709 1.314 . S
C712 C710 1.353 1_655 S
C712 H770 0.930 . S
C713 N709 1.279 . S
C713 C711 1.358 . S
C713 H771 0.930 . S
C714 C717 1.348 . S
C714 C718 1.356 . S
C714 O765 1.325 . S
C715 N716 1.279 . S
C715 C718 1.358 . S
C715 H772 0.930 . S
N716 C715 1.279 . S
N716 C719 1.314 . S
C717 C714 1.348 . S
C717 C719 1.353 . S
C717 H773 0.929 . S
C718 C714 1.356 . S
C718 C715 1.358 . S
C718 H774 0.930 . S
C719 N716 1.314 . S
C719 C717 1.353 . S
C719 H775 0.930 . S
C720 N721 1.314 . S
C720 C725 1.353 . S
C720 H726 0.930 1_655 S
N721 Li704 1.990 1_655 S
N721 C720 1.314 . S
N721 C723 1.279 . S
C722 C723 1.358 . S
C722 C724 1.356 . S
C722 H776 0.930 . S
C723 N721 1.279 . S
C723 C722 1.358 . S
C723 H727 0.930 . S
C724 C722 1.356 . S
C724 C725 1.348 . S
C725 C720 1.353 . S
C725 C724 1.348 . S
C725 H777 0.929 . S
H726 C720 0.930 1_455 S
H727 C723 0.930 . S
C728 N729 1.314 . S
C728 C730 1.353 . S
C728 H734 0.930 . S
N729 Li705 1.990 . S
N729 C728 1.314 . S
N729 C732 1.279 . S
C730 C728 1.353 . S
C730 C733 1.348 . S
C730 H778 0.929 . S
C731 C732 1.358 . S
C731 C733 1.356 . S
C731 H779 0.930 . S
C732 N729 1.279 . S
C732 C731 1.358 . S
C732 H735 0.930 . S
C733 C730 1.348 . S
C733 C731 1.356 . S
H734 C728 0.930 . S
H735 C732 0.930 . S
C736 C738 1.348 . S
C736 C739 1.356 . S
C736 O766 1.325 . S
N737 C740 1.314 . S
N737 C741 1.279 . S
C738 C736 1.348 . S
C738 C740 1.353 . S
C738 H780 0.929 . S
C739 C736 1.356 . S
C739 C741 1.358 . S
C739 H781 0.945 . S
C740 N737 1.314 . S
C740 C738 1.353 . S
C740 H782 0.930 . S
C741 N737 1.279 . S
C741 C739 1.358 . S
C741 H783 0.930 1_455 S
C742 C743 1.348 . S
C742 C744 1.356 . S
C742 O767 1.325 . S
C743 C742 1.348 . S
C743 C745 1.353 . S
C743 H784 0.929 . S
C744 C742 1.356 . S
C744 C746 1.358 . S
C744 H785 0.930 . S
C745 C743 1.353 . S
C745 N747 1.314 . S
C745 H786 0.930 . S
C746 C744 1.358 . S
C746 N747 1.279 . S
C746 H787 0.930 . S
N747 C745 1.314 . S
N747 C746 1.279 . S
C748 C750 1.353 . S
C748 N751 1.314 . S
C748 H754 0.930 . S
C749 N751 1.279 . S
C749 C752 1.358 . S
C749 H755 0.930 . S
C750 C748 1.353 . S
C750 C753 1.348 . S
C750 H788 0.929 . S
N751 Li706 1.990 . S
N751 C748 1.314 . S
N751 C749 1.279 . S
C752 C749 1.358 . S
C752 C753 1.356 . S
C752 H789 0.930 . S
C753 C750 1.348 . S
C753 C752 1.356 . S
H754 C748 0.930 . S
H755 C749 0.930 . S
C756 N757 1.314 . S
C756 C758 1.353 . S
C756 H762 0.930 . S
N757 Li707 1.990 . S
N757 C756 1.314 . S
N757 C760 1.279 . S
C758 C756 1.353 . S
C758 C761 1.348 . S
C758 H790 0.929 . S
C759 C760 1.358 . S
C759 C761 1.356 . S
C759 H791 0.930 . S
C760 N757 1.279 . S
C760 C759 1.358 . S
C760 H763 0.930 . S
C761 C758 1.348 . S
C761 C759 1.356 . S
H762 C756 0.930 . S
H763 C760 0.930 . S
O764 Li704 1.956 . S
O764 Li705 1.970 . S
O764 Li706 1.961 . S
O764 C708 1.325 . S
O765 Li704 1.970 . S
O765 Li705 1.956 . S
O765 Li707 1.961 . S
O765 C714 1.325 . S
O766 Li704 1.961 . S
O766 Li706 1.956 . S
O766 Li707 1.970 . S
O766 C736 1.325 . S
O767 Li705 1.961 . S
O767 Li706 1.970 . S
O767 Li707 1.956 . S
O767 C742 1.325 . S
H768 C710 0.929 . S
H769 C711 0.930 . S
H770 C712 0.930 . S
H771 C713 0.930 . S
H772 C715 0.930 . S
H773 C717 0.929 . S
H774 C718 0.930 . S
H775 C719 0.930 . S
H776 C722 0.930 . S
H777 C725 0.929 . S
H778 C730 0.929 . S
H779 C731 0.930 . S
H780 C738 0.929 . S
H781 C739 0.945 . S
H782 C740 0.930 . S
H783 C741 0.930 1_655 S
H784 C743 0.929 . S
H785 C744 0.930 . S
H786 C745 0.930 . S
H787 C746 0.930 . S
H788 C750 0.929 . S
H789 C752 0.930 . S
H790 C758 0.929 . S
H791 C759 0.930 . S
Li792 N809 1.990 . S
Li792 O852 1.956 . S
Li792 O853 1.970 . S
Li792 O854 1.961 . S
Li793 N817 1.990 . S
Li793 O852 1.970 . S
Li793 O853 1.956 . S
Li793 O855 1.961 . S
Li794 N839 1.990 . S
Li794 O852 1.961 . S
Li794 O854 1.956 . S
Li794 O855 1.970 . S
Li795 N845 1.990 . S
Li795 O853 1.961 . S
Li795 O854 1.970 . S
Li795 O855 1.956 . S
C796 C798 1.348 . S
C796 C799 1.356 . S
C796 O852 1.325 . S
N797 C800 1.314 . S
N797 C801 1.279 . S
C798 C796 1.348 . S
C798 C800 1.353 . S
C798 H856 0.929 . S
C799 C796 1.356 . S
C799 C801 1.358 . S
C799 H857 0.930 . S
C800 N797 1.314 . S
C800 C798 1.353 . S
C800 H858 0.930 . S
C801 N797 1.279 . S
C801 C799 1.358 . S
C801 H859 0.930 . S
C802 C805 1.348 . S
C802 C806 1.356 . S
C802 O853 1.325 . S
C803 N804 1.279 . S
C803 C806 1.358 . S
C803 H860 0.930 . S
N804 C803 1.279 . S
N804 C807 1.314 . S
C805 C802 1.348 . S
C805 C807 1.353 . S
C805 H861 0.929 . S
C806 C802 1.356 . S
C806 C803 1.358 . S
C806 H862 0.930 . S
C807 N804 1.314 . S
C807 C805 1.353 . S
C807 H863 0.930 . S
C808 N809 1.314 . S
C808 C813 1.353 . S
C808 H814 0.930 . S
N809 Li792 1.990 . S
N809 C808 1.314 . S
N809 C811 1.279 . S
C810 C811 1.358 . S
C810 C812 1.356 . S
C810 H864 0.930 . S
C811 N809 1.279 . S
C811 C810 1.358 . S
C811 H815 0.930 . S
C812 C810 1.356 . S
C812 C813 1.348 . S
C813 C808 1.353 . S
C813 C812 1.348 . S
C813 H865 0.929 . S
H814 C808 0.930 . S
H815 C811 0.930 . S
C816 N817 1.314 . S
C816 C818 1.353 . S
C816 H822 0.930 . S
N817 Li793 1.990 . S
N817 C816 1.314 . S
N817 C820 1.279 . S
C818 C816 1.353 . S
C818 C821 1.348 . S
C818 H866 0.929 . S
C819 C820 1.358 . S
C819 C821 1.356 . S
C819 H867 0.930 . S
C820 N817 1.279 . S
C820 C819 1.358 . S
C820 H823 0.930 . S
C821 C818 1.348 . S
C821 C819 1.356 . S
H822 C816 0.930 . S
H823 C820 0.930 . S
C824 C826 1.348 . S
C824 C827 1.356 . S
C824 O854 1.325 . S
N825 C828 1.314 . S
N825 C829 1.279 . S
C826 C824 1.348 . S
C826 C828 1.353 . S
C826 H868 0.929 . S
C827 C824 1.356 . S
C827 C829 1.358 . S
C827 H869 0.930 . S
C828 N825 1.314 . S
C828 C826 1.353 . S
C828 H870 0.930 . S
C829 N825 1.279 . S
C829 C827 1.358 . S
C829 H871 0.930 . S
C830 C831 1.348 . S
C830 C832 1.356 . S
C830 O855 1.325 . S
C831 C830 1.348 . S
C831 C833 1.353 . S
C831 H872 0.929 . S
C832 C830 1.356 . S
C832 C834 1.358 . S
C832 H873 0.930 . S
C833 C831 1.353 . S
C833 N835 1.314 1_455 S
C833 H874 0.930 . S
C834 C832 1.358 . S
C834 N835 1.279 1_455 S
C834 H875 0.930 1_455 S
N835 C833 1.314 1_655 S
N835 C834 1.279 1_655 S
C836 C838 1.353 . S
C836 N839 1.314 . S
C836 H842 0.930 . S
C837 N839 1.279 . S
C837 C840 1.358 . S
C837 H843 0.930 . S
C838 C836 1.353 . S
C838 C841 1.348 . S
C838 H876 0.929 . S
N839 Li794 1.990 . S
N839 C836 1.314 . S
N839 C837 1.279 . S
C840 C837 1.358 . S
C840 C841 1.356 . S
C840 H877 0.930 . S
C841 C838 1.348 . S
C841 C840 1.356 . S
H842 C836 0.930 . S
H843 C837 0.930 . S
C844 N845 1.314 . S
C844 C846 1.353 . S
C844 H850 0.930 . S
N845 Li795 1.990 . S
N845 C844 1.314 . S
N845 C848 1.279 . S
C846 C844 1.353 . S
C846 C849 1.348 . S
C846 H878 0.929 . S
C847 C848 1.358 . S
C847 C849 1.356 . S
C847 H879 0.930 1_455 S
C848 N845 1.279 . S
C848 C847 1.358 . S
C848 H851 0.930 . S
C849 C846 1.348 . S
C849 C847 1.356 . S
H850 C844 0.930 . S
H851 C848 0.930 . S
O852 Li792 1.956 . S
O852 Li793 1.970 . S
O852 Li794 1.961 . S
O852 C796 1.325 . S
O853 Li792 1.970 . S
O853 Li793 1.956 . S
O853 Li795 1.961 . S
O853 C802 1.325 . S
O854 Li792 1.961 . S
O854 Li794 1.956 . S
O854 Li795 1.970 . S
O854 C824 1.325 . S
O855 Li793 1.961 . S
O855 Li794 1.970 . S
O855 Li795 1.956 . S
O855 C830 1.325 . S
H856 C798 0.929 . S
H857 C799 0.930 . S
H858 C800 0.930 . S
H859 C801 0.930 . S
H860 C803 0.930 . S
H861 C805 0.929 . S
H862 C806 0.930 . S
H863 C807 0.930 . S
H864 C810 0.930 . S
H865 C813 0.929 . S
H866 C818 0.929 . S
H867 C819 0.930 . S
H868 C826 0.929 . S
H869 C827 0.930 . S
H870 C828 0.930 . S
H871 C829 0.930 . S
H872 C831 0.929 . S
H873 C832 0.930 . S
H874 C833 0.930 . S
H875 C834 0.930 1_655 S
H876 C838 0.929 . S
H877 C840 0.930 . S
H878 C846 0.929 . S
H879 C847 0.930 1_655 S
Li880 N897 1.990 . S
Li880 O940 1.956 . S
Li880 O941 1.970 . S
Li880 O942 1.961 . S
Li881 N905 1.990 . S
Li881 O940 1.970 . S
Li881 O941 1.956 . S
Li881 O943 1.961 . S
Li882 N927 1.990 . S
Li882 O940 1.961 . S
Li882 O942 1.956 . S
Li882 O943 1.970 . S
Li883 N933 1.990 1_455 S
Li883 O941 1.961 . S
Li883 O942 1.970 . S
Li883 O943 1.956 . S
C884 C886 1.348 . S
C884 C887 1.356 . S
C884 O940 1.325 . S
N885 C888 1.314 . S
N885 C889 1.279 . S
C886 C884 1.348 . S
C886 C888 1.353 . S
C886 H944 0.929 . S
C887 C884 1.356 . S
C887 C889 1.358 . S
C887 H945 0.930 . S
C888 N885 1.314 . S
C888 C886 1.353 . S
C888 H946 0.930 . S
C889 N885 1.279 . S
C889 C887 1.358 . S
C889 H947 0.930 . S
C890 C893 1.348 . S
C890 C894 1.356 . S
C890 O941 1.325 . S
C891 N892 1.279 . S
C891 C894 1.358 . S
C891 H948 0.930 1_455 S
N892 C891 1.279 . S
N892 C895 1.314 . S
C893 C890 1.348 . S
C893 C895 1.353 . S
C893 H949 0.929 . S
C894 C890 1.356 . S
C894 C891 1.358 . S
C894 H950 0.946 . S
C895 N892 1.314 . S
C895 C893 1.353 . S
C895 H951 0.930 . S
C896 N897 1.314 . S
C896 C901 1.353 . S
C896 H902 0.930 . S
N897 Li880 1.990 . S
N897 C896 1.314 . S
N897 C899 1.279 . S
C898 C899 1.358 . S
C898 C900 1.356 . S
C898 H952 0.930 . S
C899 N897 1.279 . S
C899 C898 1.358 . S
C899 H903 0.930 . S
C900 C898 1.356 . S
C900 C901 1.348 . S
C901 C896 1.353 . S
C901 C900 1.348 . S
C901 H953 0.929 . S
H902 C896 0.930 . S
H903 C899 0.930 . S
C904 N905 1.314 . S
C904 C906 1.353 . S
C904 H910 0.930 . S
N905 Li881 1.990 . S
N905 C904 1.314 . S
N905 C908 1.279 . S
C906 C904 1.353 . S
C906 C909 1.348 . S
C906 H954 0.929 . S
C907 C908 1.358 . S
C907 C909 1.356 . S
C907 H955 0.930 . S
C908 N905 1.279 . S
C908 C907 1.358 . S
C908 H911 0.930 . S
C909 C906 1.348 . S
C909 C907 1.356 . S
H910 C904 0.930 . S
H911 C908 0.930 . S
C912 C914 1.348 . S
C912 C915 1.356 . S
C912 O942 1.325 . S
N913 C916 1.314 . S
N913 C917 1.279 . S
C914 C912 1.348 . S
C914 C916 1.353 . S
C914 H956 0.929 . S
C915 C912 1.356 . S
C915 C917 1.358 . S
C915 H957 0.930 . S
C916 N913 1.314 . S
C916 C914 1.353 . S
C916 H958 0.930 . S
C917 N913 1.279 . S
C917 C915 1.358 . S
C917 H959 0.930 . S
C918 C919 1.348 . S
C918 C920 1.356 1_455 S
C918 O943 1.325 . S
C919 C918 1.348 . S
C919 C921 1.353 1_455 S
C919 H960 0.929 . S
C920 C918 1.356 1_655 S
C920 C922 1.358 . S
C920 H961 0.930 . S
C921 C919 1.353 1_655 S
C921 N923 1.314 . S
C921 H962 0.930 . S
C922 C920 1.358 . S
C922 N923 1.279 . S
C922 H963 0.930 . S
N923 C921 1.314 . S
N923 C922 1.279 . S
C924 C926 1.353 . S
C924 N927 1.314 . S
C924 H930 0.930 . S
C925 N927 1.279 . S
C925 C928 1.358 . S
C925 H931 0.930 . S
C926 C924 1.353 . S
C926 C929 1.348 . S
C926 H964 0.929 . S
N927 Li882 1.990 . S
N927 C924 1.314 . S
N927 C925 1.279 . S
C928 C925 1.358 . S
C928 C929 1.356 . S
C928 H965 0.930 . S
C929 C926 1.348 . S
C929 C928 1.356 . S
H930 C924 0.930 . S
H931 C925 0.930 . S
C932 N933 1.314 . S
C932 C934 1.353 . S
C932 H938 0.930 1_655 S
N933 Li883 1.990 1_655 S
N933 C932 1.314 . S
N933 C936 1.279 . S
C934 C932 1.353 . S
C934 C937 1.348 . S
C934 H966 0.929 . S
C935 C936 1.358 . S
C935 C937 1.356 . S
C935 H967 0.930 . S
C936 N933 1.279 . S
C936 C935 1.358 . S
C936 H939 0.930 . S
C937 C934 1.348 . S
C937 C935 1.356 . S
H938 C932 0.930 1_455 S
H939 C936 0.930 . S
O940 Li880 1.956 . S
O940 Li881 1.970 . S
O940 Li882 1.961 . S
O940 C884 1.325 . S
O941 Li880 1.970 . S
O941 Li881 1.956 . S
O941 Li883 1.961 . S
O941 C890 1.325 . S
O942 Li880 1.961 . S
O942 Li882 1.956 . S
O942 Li883 1.970 . S
O942 C912 1.325 . S
O943 Li881 1.961 . S
O943 Li882 1.970 . S
O943 Li883 1.956 . S
O943 C918 1.325 . S
H944 C886 0.929 . S
H945 C887 0.930 . S
H946 C888 0.930 . S
H947 C889 0.930 . S
H948 C891 0.930 1_655 S
H949 C893 0.929 . S
H950 C894 0.946 . S
H951 C895 0.930 . S
H952 C898 0.930 . S
H953 C901 0.929 . S
H954 C906 0.929 . S
H955 C907 0.930 . S
H956 C914 0.929 . S
H957 C915 0.930 . S
H958 C916 0.930 . S
H959 C917 0.930 . S
H960 C919 0.929 . S
H961 C920 0.930 . S
H962 C921 0.930 . S
H963 C922 0.930 . S
H964 C926 0.929 . S
H965 C928 0.930 . S
H966 C934 0.929 . S
H967 C935 0.930 . S
Li968 N985 1.990 . S
Li968 O1028 1.956 . S
Li968 O1029 1.970 . S
Li968 O1030 1.961 . S
Li969 N993 1.990 . S
Li969 O1028 1.970 . S
Li969 O1029 1.956 . S
Li969 O1031 1.961 . S
Li970 N1015 1.990 . S
Li970 O1028 1.961 . S
Li970 O1030 1.956 . S
Li970 O1031 1.970 . S
Li971 N1021 1.990 . S
Li971 O1029 1.961 . S
Li971 O1030 1.970 . S
Li971 O1031 1.956 . S
C972 C974 1.348 . S
C972 C975 1.356 . S
C972 O1028 1.325 . S
N973 C976 1.314 . S
N973 C977 1.279 . S
C974 C972 1.348 . S
C974 C976 1.353 . S
C974 H1032 0.929 . S
C975 C972 1.356 . S
C975 C977 1.358 . S
C975 H1033 0.930 . S
C976 N973 1.314 . S
C976 C974 1.353 . S
C976 H1034 0.930 . S
C977 N973 1.279 . S
C977 C975 1.358 . S
C977 H1035 0.930 . S
C978 C981 1.348 . S
C978 C982 1.356 . S
C978 O1029 1.325 . S
C979 N980 1.279 1_455 S
C979 C982 1.358 . S
C979 H1036 0.930 1_455 S
N980 C979 1.279 1_655 S
N980 C983 1.314 1_655 S
C981 C978 1.348 . S
C981 C983 1.353 . S
C981 H1037 0.929 . S
C982 C978 1.356 . S
C982 C979 1.358 . S
C982 H1038 0.930 . S
C983 N980 1.314 1_455 S
C983 C981 1.353 . S
C983 H1039 0.930 . S
C984 N985 1.314 . S
C984 C989 1.353 . S
C984 H990 0.930 . S
N985 Li968 1.990 . S
N985 C984 1.314 . S
N985 C987 1.279 . S
C986 C987 1.358 . S
C986 C988 1.356 . S
C986 H1040 0.930 . S
C987 N985 1.279 . S
C987 C986 1.358 . S
C987 H991 0.930 . S
C988 C986 1.356 . S
C988 C989 1.348 . S
C989 C984 1.353 . S
C989 C988 1.348 . S
C989 H1041 0.929 . S
H990 C984 0.930 . S
H991 C987 0.930 . S
C992 N993 1.314 . S
C992 C994 1.353 . S
C992 H998 0.930 . S
N993 Li969 1.990 . S
N993 C992 1.314 . S
N993 C996 1.279 . S
C994 C992 1.353 . S
C994 C997 1.348 . S
C994 H1042 0.929 . S
C995 C996 1.358 . S
C995 C997 1.356 . S
C995 H1043 0.930 1_455 S
C996 N993 1.279 . S
C996 C995 1.358 . S
C996 H999 0.930 . S
C997 C994 1.348 . S
C997 C995 1.356 . S
H998 C992 0.930 . S
H999 C996 0.930 . S
C1000 C1002 1.348 . S
C1000 C1003 1.356 . S
C1000 O1030 1.325 . S
N1001 C1004 1.314 . S
N1001 C1005 1.279 . S
C1002 C1000 1.348 . S
C1002 C1004 1.353 . S
C1002 H1044 0.929 . S
C1003 C1000 1.356 . S
C1003 C1005 1.358 . S
C1003 H1045 0.930 . S
C1004 N1001 1.314 . S
C1004 C1002 1.353 . S
C1004 H1046 0.930 . S
C1005 N1001 1.279 . S
C1005 C1003 1.358 . S
C1005 H1047 0.930 . S
C1006 C1007 1.348 . S
C1006 C1008 1.356 . S
C1006 O1031 1.325 . S
C1007 C1006 1.348 . S
C1007 C1009 1.353 . S
C1007 H1048 0.929 . S
C1008 C1006 1.356 . S
C1008 C1010 1.358 . S
C1008 H1049 0.930 . S
C1009 C1007 1.353 . S
C1009 N1011 1.314 . S
C1009 H1050 0.930 . S
C1010 C1008 1.358 . S
C1010 N1011 1.279 . S
C1010 H1051 0.930 . S
N1011 C1009 1.314 . S
N1011 C1010 1.279 . S
C1012 C1014 1.353 . S
C1012 N1015 1.314 . S
C1012 H1018 0.930 . S
C1013 N1015 1.279 . S
C1013 C1016 1.358 . S
C1013 H1019 0.930 . S
C1014 C1012 1.353 . S
C1014 C1017 1.348 . S
C1014 H1052 0.929 . S
N1015 Li970 1.990 . S
N1015 C1012 1.314 . S
N1015 C1013 1.279 . S
C1016 C1013 1.358 . S
C1016 C1017 1.356 . S
C1016 H1053 0.930 . S
C1017 C1014 1.348 . S
C1017 C1016 1.356 . S
H1018 C1012 0.930 . S
H1019 C1013 0.930 . S
C1020 N1021 1.314 . S
C1020 C1022 1.353 . S
C1020 H1026 0.930 . S
N1021 Li971 1.990 . S
N1021 C1020 1.314 . S
N1021 C1024 1.279 . S
C1022 C1020 1.353 . S
C1022 C1025 1.348 . S
C1022 H1054 0.929 . S
C1023 C1024 1.358 . S
C1023 C1025 1.356 . S
C1023 H1055 0.930 . S
C1024 N1021 1.279 . S
C1024 C1023 1.358 . S
C1024 H1027 0.930 . S
C1025 C1022 1.348 . S
C1025 C1023 1.356 . S
H1026 C1020 0.930 . S
H1027 C1024 0.930 . S
O1028 Li968 1.956 . S
O1028 Li969 1.970 . S
O1028 Li970 1.961 . S
O1028 C972 1.325 . S
O1029 Li968 1.970 . S
O1029 Li969 1.956 . S
O1029 Li971 1.961 . S
O1029 C978 1.325 . S
O1030 Li968 1.961 . S
O1030 Li970 1.956 . S
O1030 Li971 1.970 . S
O1030 C1000 1.325 . S
O1031 Li969 1.961 . S
O1031 Li970 1.970 . S
O1031 Li971 1.956 . S
O1031 C1006 1.325 . S
H1032 C974 0.929 . S
H1033 C975 0.930 . S
H1034 C976 0.930 . S
H1035 C977 0.930 . S
H1036 C979 0.930 1_655 S
H1037 C981 0.929 . S
H1038 C982 0.930 . S
H1039 C983 0.930 . S
H1040 C986 0.930 . S
H1041 C989 0.929 . S
H1042 C994 0.929 . S
H1043 C995 0.930 1_655 S
H1044 C1002 0.929 . S
H1045 C1003 0.930 . S
H1046 C1004 0.930 . S
H1047 C1005 0.930 . S
H1048 C1007 0.929 . S
H1049 C1008 0.930 . S
H1050 C1009 0.930 . S
H1051 C1010 0.930 . S
H1052 C1014 0.929 . S
H1053 C1016 0.930 . S
H1054 C1022 0.929 . S
H1055 C1023 0.930 . S
Li1056 N1073 1.990 . S
Li1056 O1116 1.956 . S
Li1056 O1117 1.970 . S
Li1056 O1118 1.961 . S
Li1057 N1081 1.990 . S
Li1057 O1116 1.970 . S
Li1057 O1117 1.956 . S
Li1057 O1119 1.961 . S
Li1058 N1103 1.990 1_655 S
Li1058 O1116 1.961 . S
Li1058 O1118 1.956 . S
Li1058 O1119 1.970 . S
Li1059 N1109 1.990 . S
Li1059 O1117 1.961 . S
Li1059 O1118 1.970 . S
Li1059 O1119 1.956 . S
C1060 C1062 1.348 . S
C1060 C1063 1.356 1_655 S
C1060 O1116 1.325 . S
N1061 C1064 1.314 1_455 S
N1061 C1065 1.279 . S
C1062 C1060 1.348 . S
C1062 C1064 1.353 . S
C1062 H1120 0.929 . S
C1063 C1060 1.356 1_455 S
C1063 C1065 1.358 . S
C1063 H1121 0.930 . S
C1064 N1061 1.314 1_655 S
C1064 C1062 1.353 . S
C1064 H1122 0.930 . S
C1065 N1061 1.279 . S
C1065 C1063 1.358 . S
C1065 H1123 0.930 . S
C1066 C1069 1.348 . S
C1066 C1070 1.356 . S
C1066 O1117 1.325 . S
C1067 N1068 1.279 . S
C1067 C1070 1.358 . S
C1067 H1124 0.930 . S
N1068 C1067 1.279 . S
N1068 C1071 1.314 . S
C1069 C1066 1.348 . S
C1069 C1071 1.353 . S
C1069 H1125 0.929 . S
C1070 C1066 1.356 . S
C1070 C1067 1.358 . S
C1070 H1126 0.930 . S
C1071 N1068 1.314 . S
C1071 C1069 1.353 . S
C1071 H1127 0.930 . S
C1072 N1073 1.314 . S
C1072 C1077 1.353 . S
C1072 H1078 0.930 . S
N1073 Li1056 1.990 . S
N1073 C1072 1.314 . S
N1073 C1075 1.279 . S
C1074 C1075 1.358 . S
C1074 C1076 1.356 . S
C1074 H1128 0.930 . S
C1075 N1073 1.279 . S
C1075 C1074 1.358 . S
C1075 H1079 0.930 . S
C1076 C1074 1.356 . S
C1076 C1077 1.348 . S
C1077 C1072 1.353 . S
C1077 C1076 1.348 . S
C1077 H1129 0.929 . S
H1078 C1072 0.930 . S
H1079 C1075 0.930 . S
C1080 N1081 1.314 . S
C1080 C1082 1.353 . S
C1080 H1086 0.930 . S
N1081 Li1057 1.990 . S
N1081 C1080 1.314 . S
N1081 C1084 1.279 . S
C1082 C1080 1.353 . S
C1082 C1085 1.348 . S
C1082 H1130 0.929 . S
C1083 C1084 1.358 . S
C1083 C1085 1.356 . S
C1083 H1131 0.930 . S
C1084 N1081 1.279 . S
C1084 C1083 1.358 . S
C1084 H1087 0.930 . S
C1085 C1082 1.348 . S
C1085 C1083 1.356 . S
H1086 C1080 0.930 . S
H1087 C1084 0.930 . S
C1088 C1090 1.348 . S
C1088 C1091 1.356 . S
C1088 O1118 1.325 . S
N1089 C1092 1.314 . S
N1089 C1093 1.279 . S
C1090 C1088 1.348 . S
C1090 C1092 1.353 . S
C1090 H1132 0.929 . S
C1091 C1088 1.356 . S
C1091 C1093 1.358 . S
C1091 H1133 0.930 . S
C1092 N1089 1.314 . S
C1092 C1090 1.353 . S
C1092 H1134 0.930 . S
C1093 N1089 1.279 . S
C1093 C1091 1.358 . S
C1093 H1135 0.930 1_655 S
C1094 C1095 1.348 . S
C1094 C1096 1.356 . S
C1094 O1119 1.325 . S
C1095 C1094 1.348 . S
C1095 C1097 1.353 . S
C1095 H1136 0.929 . S
C1096 C1094 1.356 . S
C1096 C1098 1.358 . S
C1096 H1137 0.930 . S
C1097 C1095 1.353 . S
C1097 N1099 1.314 . S
C1097 H1138 0.930 . S
C1098 C1096 1.358 . S
C1098 N1099 1.279 . S
C1098 H1139 0.930 . S
N1099 C1097 1.314 . S
N1099 C1098 1.279 . S
C1100 C1102 1.353 . S
C1100 N1103 1.314 . S
C1100 H1106 0.930 . S
C1101 N1103 1.279 . S
C1101 C1104 1.358 . S
C1101 H1107 0.930 . S
C1102 C1100 1.353 . S
C1102 C1105 1.348 . S
C1102 H1140 0.929 . S
N1103 Li1058 1.990 1_455 S
N1103 C1100 1.314 . S
N1103 C1101 1.279 . S
C1104 C1101 1.358 . S
C1104 C1105 1.356 . S
C1104 H1141 0.930 . S
C1105 C1102 1.348 . S
C1105 C1104 1.356 . S
H1106 C1100 0.930 . S
H1107 C1101 0.930 . S
C1108 N1109 1.314 . S
C1108 C1110 1.353 . S
C1108 H1114 0.930 . S
N1109 Li1059 1.990 . S
N1109 C1108 1.314 . S
N1109 C1112 1.279 . S
C1110 C1108 1.353 . S
C1110 C1113 1.348 . S
C1110 H1142 0.929 . S
C1111 C1112 1.358 . S
C1111 C1113 1.356 . S
C1111 H1143 0.930 . S
C1112 N1109 1.279 . S
C1112 C1111 1.358 . S
C1112 H1115 0.930 . S
C1113 C1110 1.348 . S
C1113 C1111 1.356 . S
H1114 C1108 0.930 . S
H1115 C1112 0.930 . S
O1116 Li1056 1.956 . S
O1116 Li1057 1.970 . S
O1116 Li1058 1.961 . S
O1116 C1060 1.325 . S
O1117 Li1056 1.970 . S
O1117 Li1057 1.956 . S
O1117 Li1059 1.961 . S
O1117 C1066 1.325 . S
O1118 Li1056 1.961 . S
O1118 Li1058 1.956 . S
O1118 Li1059 1.970 . S
O1118 C1088 1.325 . S
O1119 Li1057 1.961 . S
O1119 Li1058 1.970 . S
O1119 Li1059 1.956 . S
O1119 C1094 1.325 . S
H1120 C1062 0.929 . S
H1121 C1063 0.930 . S
H1122 C1064 0.930 . S
H1123 C1065 0.930 . S
H1124 C1067 0.930 . S
H1125 C1069 0.929 . S
H1126 C1070 0.930 . S
H1127 C1071 0.930 . S
H1128 C1074 0.930 . S
H1129 C1077 0.929 . S
H1130 C1082 0.929 . S
H1131 C1083 0.930 . S
H1132 C1090 0.929 . S
H1133 C1091 0.930 . S
H1134 C1092 0.930 . S
H1135 C1093 0.930 1_455 S
H1136 C1095 0.929 . S
H1137 C1096 0.930 . S
H1138 C1097 0.930 . S
H1139 C1098 0.930 . S
H1140 C1102 0.929 . S
H1141 C1104 0.930 . S
H1142 C1110 0.929 . S
H1143 C1111 0.930 . S
Li1144 N1161 1.990 . S
Li1144 O1204 1.956 . S
Li1144 O1205 1.970 . S
Li1144 O1206 1.961 . S
Li1145 N1169 1.990 . S
Li1145 O1204 1.970 . S
Li1145 O1205 1.956 . S
Li1145 O1207 1.961 . S
Li1146 N1191 1.990 . S
Li1146 O1204 1.961 . S
Li1146 O1206 1.956 . S
Li1146 O1207 1.970 . S
Li1147 N1197 1.990 . S
Li1147 O1205 1.961 . S
Li1147 O1206 1.970 . S
Li1147 O1207 1.956 . S
C1148 C1150 1.348 . S
C1148 C1151 1.356 . S
C1148 O1204 1.325 . S
N1149 C1152 1.309 1_455 S
N1149 C1153 1.279 1_455 S
C1150 C1148 1.348 . S
C1150 C1152 1.353 . S
C1150 H1208 0.929 . S
C1151 C1148 1.356 . S
C1151 C1153 1.358 . S
C1151 H1209 0.930 . S
C1152 N1149 1.309 1_655 S
C1152 C1150 1.353 . S
C1152 H1210 0.930 . S
C1153 N1149 1.279 1_655 S
C1153 C1151 1.358 . S
C1153 H1211 0.930 1_655 S
C1154 C1157 1.348 . S
C1154 C1158 1.356 . S
C1154 O1205 1.325 . S
C1155 N1156 1.279 . S
C1155 C1158 1.358 . S
C1155 H1212 0.930 . S
N1156 C1155 1.279 . S
N1156 C1159 1.314 . S
C1157 C1154 1.348 . S
C1157 C1159 1.353 . S
C1157 H1213 0.929 . S
C1158 C1154 1.356 . S
C1158 C1155 1.358 . S
C1158 H1214 0.930 . S
C1159 N1156 1.314 . S
C1159 C1157 1.353 . S
C1159 H1215 0.930 . S
C1160 N1161 1.314 . S
C1160 C1165 1.353 . S
C1160 H1166 0.930 . S
N1161 Li1144 1.990 . S
N1161 C1160 1.314 . S
N1161 C1163 1.279 . S
C1162 C1163 1.358 . S
C1162 C1164 1.356 . S
C1162 H1216 0.930 . S
C1163 N1161 1.279 . S
C1163 C1162 1.358 . S
C1163 H1167 0.930 . S
C1164 C1162 1.356 . S
C1164 C1165 1.348 . S
C1165 C1160 1.353 . S
C1165 C1164 1.348 . S
C1165 H1217 0.929 . S
H1166 C1160 0.930 . S
H1167 C1163 0.930 . S
C1168 N1169 1.314 . S
C1168 C1170 1.353 . S
C1168 H1174 0.930 . S
N1169 Li1145 1.990 . S
N1169 C1168 1.314 . S
N1169 C1172 1.279 . S
C1170 C1168 1.353 . S
C1170 C1173 1.348 . S
C1170 H1218 0.929 . S
C1171 C1172 1.358 . S
C1171 C1173 1.356 . S
C1171 H1219 0.930 . S
C1172 N1169 1.279 . S
C1172 C1171 1.358 . S
C1172 H1175 0.930 . S
C1173 C1170 1.348 . S
C1173 C1171 1.356 . S
H1174 C1168 0.930 . S
H1175 C1172 0.930 . S
C1176 C1178 1.348 . S
C1176 C1179 1.356 . S
C1176 O1206 1.325 . S
N1177 C1180 1.314 . S
N1177 C1181 1.279 . S
C1178 C1176 1.348 . S
C1178 C1180 1.353 . S
C1178 H1220 0.929 . S
C1179 C1176 1.356 . S
C1179 C1181 1.358 . S
C1179 H1221 0.930 . S
C1180 N1177 1.314 . S
C1180 C1178 1.353 . S
C1180 H1222 0.930 . S
C1181 N1177 1.279 . S
C1181 C1179 1.358 . S
C1181 H1223 0.930 . S
C1182 C1183 1.348 . S
C1182 C1184 1.356 . S
C1182 O1207 1.325 . S
C1183 C1182 1.348 . S
C1183 C1185 1.353 . S
C1183 H1224 0.929 . S
C1184 C1182 1.356 . S
C1184 C1186 1.358 . S
C1184 H1225 0.930 . S
C1185 C1183 1.353 . S
C1185 N1187 1.314 . S
C1185 H1226 0.930 . S
C1186 C1184 1.358 . S
C1186 N1187 1.279 . S
C1186 H1227 0.930 . S
N1187 C1185 1.314 . S
N1187 C1186 1.279 . S
C1188 C1190 1.353 . S
C1188 N1191 1.314 . S
C1188 H1194 0.930 . S
C1189 N1191 1.279 . S
C1189 C1192 1.358 . S
C1189 H1195 0.930 . S
C1190 C1188 1.353 . S
C1190 C1193 1.348 . S
C1190 H1228 0.929 . S
N1191 Li1146 1.990 . S
N1191 C1188 1.314 . S
N1191 C1189 1.279 . S
C1192 C1189 1.358 . S
C1192 C1193 1.356 . S
C1192 H1229 0.930 . S
C1193 C1190 1.348 . S
C1193 C1192 1.356 . S
H1194 C1188 0.930 . S
H1195 C1189 0.930 . S
C1196 N1197 1.314 . S
C1196 C1198 1.353 . S
C1196 H1202 0.930 . S
N1197 Li1147 1.990 . S
N1197 C1196 1.314 . S
N1197 C1200 1.279 . S
C1198 C1196 1.353 . S
C1198 C1201 1.348 . S
C1198 H1230 0.929 . S
C1199 C1200 1.358 . S
C1199 C1201 1.356 . S
C1199 H1231 0.930 . S
C1200 N1197 1.279 . S
C1200 C1199 1.358 . S
C1200 H1203 0.930 . S
C1201 C1198 1.348 . S
C1201 C1199 1.356 . S
H1202 C1196 0.930 . S
H1203 C1200 0.930 . S
O1204 Li1144 1.956 . S
O1204 Li1145 1.970 . S
O1204 Li1146 1.961 . S
O1204 C1148 1.325 . S
O1205 Li1144 1.970 . S
O1205 Li1145 1.956 . S
O1205 Li1147 1.961 . S
O1205 C1154 1.325 . S
O1206 Li1144 1.961 . S
O1206 Li1146 1.956 . S
O1206 Li1147 1.970 . S
O1206 C1176 1.325 . S
O1207 Li1145 1.961 . S
O1207 Li1146 1.970 . S
O1207 Li1147 1.956 . S
O1207 C1182 1.325 . S
H1208 C1150 0.929 . S
H1209 C1151 0.930 . S
H1210 C1152 0.930 . S
H1211 C1153 0.930 1_455 S
H1212 C1155 0.930 . S
H1213 C1157 0.929 . S
H1214 C1158 0.930 . S
H1215 C1159 0.930 . S
H1216 C1162 0.930 . S
H1217 C1165 0.929 . S
H1218 C1170 0.929 . S
H1219 C1171 0.930 . S
H1220 C1178 0.929 . S
H1221 C1179 0.930 . S
H1222 C1180 0.930 . S
H1223 C1181 0.930 . S
H1224 C1183 0.929 . S
H1225 C1184 0.930 . S
H1226 C1185 0.930 . S
H1227 C1186 0.930 . S
H1228 C1190 0.929 . S
H1229 C1192 0.930 . S
H1230 C1198 0.929 . S
H1231 C1199 0.930 . S
Li1232 N1249 1.990 1_655 S
Li1232 O1292 1.956 . S
Li1232 O1293 1.970 . S
Li1232 O1294 1.961 . S
Li1233 N1257 1.990 . S
Li1233 O1292 1.970 . S
Li1233 O1293 1.956 . S
Li1233 O1295 1.961 . S
Li1234 N1279 1.990 . S
Li1234 O1292 1.961 . S
Li1234 O1294 1.956 . S
Li1234 O1295 1.970 . S
Li1235 N1285 1.990 . S
Li1235 O1293 1.961 . S
Li1235 O1294 1.970 . S
Li1235 O1295 1.956 . S
C1236 C1238 1.348 . S
C1236 C1239 1.356 . S
C1236 O1292 1.325 . S
N1237 C1240 1.314 . S
N1237 C1241 1.279 . S
C1238 C1236 1.348 . S
C1238 C1240 1.353 . S
C1238 H1296 0.929 . S
C1239 C1236 1.356 . S
C1239 C1241 1.358 . S
C1239 H1297 0.930 . S
C1240 N1237 1.314 . S
C1240 C1238 1.353 . S
C1240 H1298 0.930 . S
C1241 N1237 1.279 . S
C1241 C1239 1.358 . S
C1241 H1299 0.930 1_655 S
C1242 C1245 1.348 . S
C1242 C1246 1.356 . S
C1242 O1293 1.325 . S
C1243 N1244 1.279 . S
C1243 C1246 1.358 . S
C1243 H1300 0.930 . S
N1244 C1243 1.279 . S
N1244 C1247 1.314 . S
C1245 C1242 1.348 . S
C1245 C1247 1.353 . S
C1245 H1301 0.929 . S
C1246 C1242 1.356 . S
C1246 C1243 1.358 . S
C1246 H1302 0.930 . S
C1247 N1244 1.314 . S
C1247 C1245 1.353 . S
C1247 H1303 0.930 . S
C1248 N1249 1.314 . S
C1248 C1253 1.353 . S
C1248 H1254 0.930 . S
N1249 Li1232 1.990 1_455 S
N1249 C1248 1.314 . S
N1249 C1251 1.279 . S
C1250 C1251 1.358 . S
C1250 C1252 1.356 . S
C1250 H1304 0.930 . S
C1251 N1249 1.279 . S
C1251 C1250 1.358 . S
C1251 H1255 0.930 . S
C1252 C1250 1.356 . S
C1252 C1253 1.348 . S
C1253 C1248 1.353 . S
C1253 C1252 1.348 . S
C1253 H1305 0.929 . S
H1254 C1248 0.930 . S
H1255 C1251 0.930 . S
C1256 N1257 1.314 . S
C1256 C1258 1.353 . S
C1256 H1262 0.930 . S
N1257 Li1233 1.990 . S
N1257 C1256 1.314 . S
N1257 C1260 1.279 . S
C1258 C1256 1.353 . S
C1258 C1261 1.348 . S
C1258 H1306 0.929 . S
C1259 C1260 1.358 . S
C1259 C1261 1.356 . S
C1259 H1307 0.930 . S
C1260 N1257 1.279 . S
C1260 C1259 1.358 . S
C1260 H1263 0.930 . S
C1261 C1258 1.348 . S
C1261 C1259 1.356 . S
H1262 C1256 0.930 . S
H1263 C1260 0.930 . S
C1264 C1266 1.348 . S
C1264 C1267 1.356 1_655 S
C1264 O1294 1.325 . S
N1265 C1268 1.314 1_455 S
N1265 C1269 1.279 . S
C1266 C1264 1.348 . S
C1266 C1268 1.353 . S
C1266 H1308 0.929 . S
C1267 C1264 1.356 1_455 S
C1267 C1269 1.358 . S
C1267 H1309 0.930 . S
C1268 N1265 1.314 1_655 S
C1268 C1266 1.353 . S
C1268 H1310 0.930 . S
C1269 N1265 1.279 . S
C1269 C1267 1.358 . S
C1269 H1311 0.930 . S
C1270 C1271 1.348 . S
C1270 C1272 1.356 . S
C1270 O1295 1.325 . S
C1271 C1270 1.348 . S
C1271 C1273 1.353 . S
C1271 H1312 0.929 . S
C1272 C1270 1.356 . S
C1272 C1274 1.358 . S
C1272 H1313 0.930 . S
C1273 C1271 1.353 . S
C1273 N1275 1.314 . S
C1273 H1314 0.930 . S
C1274 C1272 1.358 . S
C1274 N1275 1.279 . S
C1274 H1315 0.930 . S
N1275 C1273 1.314 . S
N1275 C1274 1.279 . S
C1276 C1278 1.353 . S
C1276 N1279 1.314 . S
C1276 H1282 0.930 . S
C1277 N1279 1.279 . S
C1277 C1280 1.358 . S
C1277 H1283 0.930 . S
C1278 C1276 1.353 . S
C1278 C1281 1.348 . S
C1278 H1316 0.929 . S
N1279 Li1234 1.990 . S
N1279 C1276 1.314 . S
N1279 C1277 1.279 . S
C1280 C1277 1.358 . S
C1280 C1281 1.356 . S
C1280 H1317 0.930 . S
C1281 C1278 1.348 . S
C1281 C1280 1.356 . S
H1282 C1276 0.930 . S
H1283 C1277 0.930 . S
C1284 N1285 1.314 . S
C1284 C1286 1.353 . S
C1284 H1290 0.930 . S
N1285 Li1235 1.990 . S
N1285 C1284 1.314 . S
N1285 C1288 1.279 . S
C1286 C1284 1.353 . S
C1286 C1289 1.348 . S
C1286 H1318 0.929 . S
C1287 C1288 1.358 . S
C1287 C1289 1.356 . S
C1287 H1319 0.930 . S
C1288 N1285 1.279 . S
C1288 C1287 1.358 . S
C1288 H1291 0.930 . S
C1289 C1286 1.348 . S
C1289 C1287 1.356 . S
H1290 C1284 0.930 . S
H1291 C1288 0.930 . S
O1292 Li1232 1.956 . S
O1292 Li1233 1.970 . S
O1292 Li1234 1.961 . S
O1292 C1236 1.325 . S
O1293 Li1232 1.970 . S
O1293 Li1233 1.956 . S
O1293 Li1235 1.961 . S
O1293 C1242 1.325 . S
O1294 Li1232 1.961 . S
O1294 Li1234 1.956 . S
O1294 Li1235 1.970 . S
O1294 C1264 1.325 . S
O1295 Li1233 1.961 . S
O1295 Li1234 1.970 . S
O1295 Li1235 1.956 . S
O1295 C1270 1.325 . S
H1296 C1238 0.929 . S
H1297 C1239 0.930 . S
H1298 C1240 0.930 . S
H1299 C1241 0.930 1_455 S
H1300 C1243 0.930 . S
H1301 C1245 0.929 . S
H1302 C1246 0.930 . S
H1303 C1247 0.930 . S
H1304 C1250 0.930 . S
H1305 C1253 0.929 . S
H1306 C1258 0.929 . S
H1307 C1259 0.930 . S
H1308 C1266 0.929 . S
H1309 C1267 0.930 . S
H1310 C1268 0.930 . S
H1311 C1269 0.930 . S
H1312 C1271 0.929 . S
H1313 C1272 0.930 . S
H1314 C1273 0.930 . S
H1315 C1274 0.930 . S
H1316 C1278 0.929 . S
H1317 C1280 0.930 . S
H1318 C1286 0.929 . S
H1319 C1287 0.930 . S
Li1320 N1337 1.990 . S
Li1320 O1380 1.956 . S
Li1320 O1381 1.970 . S
Li1320 O1382 1.961 . S
Li1321 N1345 1.990 . S
Li1321 O1380 1.970 . S
Li1321 O1381 1.956 . S
Li1321 O1383 1.961 . S
Li1322 N1367 1.990 . S
Li1322 O1380 1.961 . S
Li1322 O1382 1.956 . S
Li1322 O1383 1.970 . S
Li1323 N1373 1.990 . S
Li1323 O1381 1.961 . S
Li1323 O1382 1.970 . S
Li1323 O1383 1.956 . S
C1324 C1326 1.348 . S
C1324 C1327 1.356 . S
C1324 O1380 1.325 . S
N1325 C1328 1.314 . S
N1325 C1329 1.279 . S
C1326 C1324 1.348 . S
C1326 C1328 1.353 . S
C1326 H1384 0.929 . S
C1327 C1324 1.356 . S
C1327 C1329 1.358 . S
C1327 H1385 0.930 . S
C1328 N1325 1.314 . S
C1328 C1326 1.353 . S
C1328 H1386 0.930 . S
C1329 N1325 1.279 . S
C1329 C1327 1.358 . S
C1329 H1387 0.930 . S
C1330 C1333 1.348 . S
C1330 C1334 1.356 . S
C1330 O1381 1.325 . S
C1331 N1332 1.279 . S
C1331 C1334 1.358 . S
C1331 H1388 0.930 . S
N1332 C1331 1.279 . S
N1332 C1335 1.314 . S
C1333 C1330 1.348 . S
C1333 C1335 1.353 . S
C1333 H1389 0.929 . S
C1334 C1330 1.356 . S
C1334 C1331 1.358 . S
C1334 H1390 0.930 . S
C1335 N1332 1.314 . S
C1335 C1333 1.353 . S
C1335 H1391 0.930 . S
C1336 N1337 1.314 . S
C1336 C1341 1.353 . S
C1336 H1342 0.930 . S
N1337 Li1320 1.990 . S
N1337 C1336 1.314 . S
N1337 C1339 1.279 . S
C1338 C1339 1.358 . S
C1338 C1340 1.356 . S
C1338 H1392 0.930 . S
C1339 N1337 1.279 . S
C1339 C1338 1.358 . S
C1339 H1343 0.930 . S
C1340 C1338 1.356 . S
C1340 C1341 1.348 . S
C1341 C1336 1.353 . S
C1341 C1340 1.348 . S
C1341 H1393 0.929 . S
H1342 C1336 0.930 . S
H1343 C1339 0.930 . S
C1344 N1345 1.314 . S
C1344 C1346 1.353 . S
C1344 H1350 0.930 . S
N1345 Li1321 1.990 . S
N1345 C1344 1.314 . S
N1345 C1348 1.279 . S
C1346 C1344 1.353 . S
C1346 C1349 1.348 . S
C1346 H1394 0.929 . S
C1347 C1348 1.358 . S
C1347 C1349 1.356 . S
C1347 H1395 0.930 . S
C1348 N1345 1.279 . S
C1348 C1347 1.358 . S
C1348 H1351 0.930 . S
C1349 C1346 1.348 . S
C1349 C1347 1.356 . S
H1350 C1344 0.930 . S
H1351 C1348 0.930 . S
C1352 C1354 1.348 . S
C1352 C1355 1.356 . S
C1352 O1382 1.325 . S
N1353 C1356 1.308 1_455 S
N1353 C1357 1.279 1_455 S
C1354 C1352 1.348 . S
C1354 C1356 1.353 . S
C1354 H1396 0.929 . S
C1355 C1352 1.356 . S
C1355 C1357 1.358 . S
C1355 H1397 0.930 . S
C1356 N1353 1.308 1_655 S
C1356 C1354 1.353 . S
C1356 H1398 0.930 . S
C1357 N1353 1.279 1_655 S
C1357 C1355 1.358 . S
C1357 H1399 0.930 1_655 S
C1358 C1359 1.348 . S
C1358 C1360 1.356 . S
C1358 O1383 1.325 . S
C1359 C1358 1.348 . S
C1359 C1361 1.353 . S
C1359 H1400 0.929 . S
C1360 C1358 1.356 . S
C1360 C1362 1.358 . S
C1360 H1401 0.930 . S
C1361 C1359 1.353 . S
C1361 N1363 1.314 . S
C1361 H1402 0.930 . S
C1362 C1360 1.358 . S
C1362 N1363 1.279 . S
C1362 H1403 0.930 . S
N1363 C1361 1.314 . S
N1363 C1362 1.279 . S
C1364 C1366 1.353 . S
C1364 N1367 1.314 . S
C1364 H1370 0.930 . S
C1365 N1367 1.279 . S
C1365 C1368 1.358 . S
C1365 H1371 0.930 . S
C1366 C1364 1.353 . S
C1366 C1369 1.348 . S
C1366 H1404 0.929 . S
N1367 Li1322 1.990 . S
N1367 C1364 1.314 . S
N1367 C1365 1.279 . S
C1368 C1365 1.358 . S
C1368 C1369 1.356 . S
C1368 H1405 0.930 . S
C1369 C1366 1.348 . S
C1369 C1368 1.356 . S
H1370 C1364 0.930 . S
H1371 C1365 0.930 . S
C1372 N1373 1.314 . S
C1372 C1374 1.353 . S
C1372 H1378 0.930 . S
N1373 Li1323 1.990 . S
N1373 C1372 1.314 . S
N1373 C1376 1.279 . S
C1374 C1372 1.353 . S
C1374 C1377 1.348 . S
C1374 H1406 0.929 . S
C1375 C1376 1.358 . S
C1375 C1377 1.356 . S
C1375 H1407 0.930 . S
C1376 N1373 1.279 . S
C1376 C1375 1.358 . S
C1376 H1379 0.930 . S
C1377 C1374 1.348 . S
C1377 C1375 1.356 . S
H1378 C1372 0.930 . S
H1379 C1376 0.930 . S
O1380 Li1320 1.956 . S
O1380 Li1321 1.970 . S
O1380 Li1322 1.961 . S
O1380 C1324 1.325 . S
O1381 Li1320 1.970 . S
O1381 Li1321 1.956 . S
O1381 Li1323 1.961 . S
O1381 C1330 1.325 . S
O1382 Li1320 1.961 . S
O1382 Li1322 1.956 . S
O1382 Li1323 1.970 . S
O1382 C1352 1.325 . S
O1383 Li1321 1.961 . S
O1383 Li1322 1.970 . S
O1383 Li1323 1.956 . S
O1383 C1358 1.325 . S
H1384 C1326 0.929 . S
H1385 C1327 0.930 . S
H1386 C1328 0.930 . S
H1387 C1329 0.930 . S
H1388 C1331 0.930 . S
H1389 C1333 0.929 . S
H1390 C1334 0.930 . S
H1391 C1335 0.930 . S
H1392 C1338 0.930 . S
H1393 C1341 0.929 . S
H1394 C1346 0.929 . S
H1395 C1347 0.930 . S
H1396 C1354 0.929 . S
H1397 C1355 0.930 . S
H1398 C1356 0.930 . S
H1399 C1357 0.930 1_455 S
H1400 C1359 0.929 . S
H1401 C1360 0.930 . S
H1402 C1361 0.930 . S
H1403 C1362 0.930 . S
H1404 C1366 0.929 . S
H1405 C1368 0.930 . S
H1406 C1374 0.929 . S
H1407 C1375 0.930 . S
Li1408 N1425 1.990 . S
Li1408 O1468 1.956 . S
Li1408 O1469 1.970 . S
Li1408 O1470 1.961 . S
Li1409 N1433 1.990 . S
Li1409 O1468 1.970 . S
Li1409 O1469 1.956 . S
Li1409 O1471 1.961 . S
Li1410 N1455 1.990 . S
Li1410 O1468 1.961 . S
Li1410 O1470 1.956 . S
Li1410 O1471 1.970 . S
Li1411 N1461 1.990 . S
Li1411 O1469 1.961 . S
Li1411 O1470 1.970 . S
Li1411 O1471 1.956 . S
C1412 C1414 1.348 . S
C1412 C1415 1.356 . S
C1412 O1468 1.325 . S
N1413 C1416 1.314 . S
N1413 C1417 1.279 . S
C1414 C1412 1.348 . S
C1414 C1416 1.353 . S
C1414 H1472 0.929 . S
C1415 C1412 1.356 . S
C1415 C1417 1.358 . S
C1415 H1473 0.930 . S
C1416 N1413 1.314 . S
C1416 C1414 1.353 . S
C1416 H1474 0.930 . S
C1417 N1413 1.279 . S
C1417 C1415 1.358 . S
C1417 H1475 0.930 . S
C1418 C1421 1.348 . S
C1418 C1422 1.356 . S
C1418 O1469 1.325 . S
C1419 N1420 1.279 . S
C1419 C1422 1.358 . S
C1419 H1476 0.930 . S
N1420 C1419 1.279 . S
N1420 C1423 1.314 . S
C1421 C1418 1.348 . S
C1421 C1423 1.353 . S
C1421 H1477 0.929 . S
C1422 C1418 1.356 . S
C1422 C1419 1.358 . S
C1422 H1478 0.930 . S
C1423 N1420 1.314 . S
C1423 C1421 1.353 . S
C1423 H1479 0.930 . S
C1424 N1425 1.314 . S
C1424 C1429 1.353 . S
C1424 H1430 0.930 . S
N1425 Li1408 1.990 . S
N1425 C1424 1.314 . S
N1425 C1427 1.279 . S
C1426 C1427 1.358 . S
C1426 C1428 1.356 . S
C1426 H1480 0.930 . S
C1427 N1425 1.279 . S
C1427 C1426 1.358 . S
C1427 H1431 0.930 . S
C1428 C1426 1.356 . S
C1428 C1429 1.348 . S
C1429 C1424 1.353 . S
C1429 C1428 1.348 . S
C1429 H1481 0.929 . S
H1430 C1424 0.930 . S
H1431 C1427 0.930 . S
C1432 N1433 1.314 . S
C1432 C1434 1.353 . S
C1432 H1438 0.930 . S
N1433 Li1409 1.990 . S
N1433 C1432 1.314 . S
N1433 C1436 1.279 . S
C1434 C1432 1.353 . S
C1434 C1437 1.348 . S
C1434 H1482 0.929 . S
C1435 C1436 1.358 . S
C1435 C1437 1.356 . S
C1435 H1483 0.930 . S
C1436 N1433 1.279 . S
C1436 C1435 1.358 . S
C1436 H1439 0.930 . S
C1437 C1434 1.348 . S
C1437 C1435 1.356 . S
H1438 C1432 0.930 . S
H1439 C1436 0.930 . S
C1440 C1442 1.348 . S
C1440 C1443 1.356 . S
C1440 O1470 1.325 . S
N1441 C1444 1.314 . S
N1441 C1445 1.279 . S
C1442 C1440 1.348 . S
C1442 C1444 1.353 . S
C1442 H1484 0.929 . S
C1443 C1440 1.356 . S
C1443 C1445 1.358 . S
C1443 H1485 0.930 . S
C1444 N1441 1.314 . S
C1444 C1442 1.353 . S
C1444 H1486 0.930 . S
C1445 N1441 1.279 . S
C1445 C1443 1.358 . S
C1445 H1487 0.930 . S
C1446 C1447 1.348 . S
C1446 C1448 1.356 . S
C1446 O1471 1.325 . S
C1447 C1446 1.348 . S
C1447 C1449 1.353 . S
C1447 H1488 0.929 . S
C1448 C1446 1.356 . S
C1448 C1450 1.358 . S
C1448 H1489 0.930 . S
C1449 C1447 1.353 . S
C1449 N1451 1.314 . S
C1449 H1490 0.930 . S
C1450 C1448 1.358 . S
C1450 N1451 1.279 . S
C1450 H1491 0.930 . S
N1451 C1449 1.314 . S
N1451 C1450 1.279 . S
C1452 C1454 1.353 . S
C1452 N1455 1.314 . S
C1452 H1458 0.930 . S
C1453 N1455 1.279 . S
C1453 C1456 1.358 . S
C1453 H1459 0.930 . S
C1454 C1452 1.353 . S
C1454 C1457 1.348 . S
C1454 H1492 0.929 . S
N1455 Li1410 1.990 . S
N1455 C1452 1.314 . S
N1455 C1453 1.279 . S
C1456 C1453 1.358 . S
C1456 C1457 1.356 . S
C1456 H1493 0.930 . S
C1457 C1454 1.348 . S
C1457 C1456 1.356 . S
H1458 C1452 0.930 . S
H1459 C1453 0.930 . S
C1460 N1461 1.314 . S
C1460 C1462 1.353 . S
C1460 H1466 0.930 . S
N1461 Li1411 1.990 . S
N1461 C1460 1.314 . S
N1461 C1464 1.279 . S
C1462 C1460 1.353 . S
C1462 C1465 1.348 . S
C1462 H1494 0.929 . S
C1463 C1464 1.358 . S
C1463 C1465 1.356 . S
C1463 H1495 0.930 . S
C1464 N1461 1.279 . S
C1464 C1463 1.358 . S
C1464 H1467 0.930 . S
C1465 C1462 1.348 . S
C1465 C1463 1.356 . S
H1466 C1460 0.930 . S
H1467 C1464 0.930 . S
O1468 Li1408 1.956 . S
O1468 Li1409 1.970 . S
O1468 Li1410 1.961 . S
O1468 C1412 1.325 . S
O1469 Li1408 1.970 . S
O1469 Li1409 1.956 . S
O1469 Li1411 1.961 . S
O1469 C1418 1.325 . S
O1470 Li1408 1.961 . S
O1470 Li1410 1.956 . S
O1470 Li1411 1.970 . S
O1470 C1440 1.325 . S
O1471 Li1409 1.961 . S
O1471 Li1410 1.970 . S
O1471 Li1411 1.956 . S
O1471 C1446 1.325 . S
H1472 C1414 0.929 . S
H1473 C1415 0.930 . S
H1474 C1416 0.930 . S
H1475 C1417 0.930 . S
H1476 C1419 0.930 . S
H1477 C1421 0.929 . S
H1478 C1422 0.930 . S
H1479 C1423 0.930 . S
H1480 C1426 0.930 . S
H1481 C1429 0.929 . S
H1482 C1434 0.929 . S
H1483 C1435 0.930 . S
H1484 C1442 0.929 . S
H1485 C1443 0.930 . S
H1486 C1444 0.930 . S
H1487 C1445 0.930 . S
H1488 C1447 0.929 . S
H1489 C1448 0.930 . S
H1490 C1449 0.930 . S
H1491 C1450 0.930 . S
H1492 C1454 0.929 . S
H1493 C1456 0.930 . S
H1494 C1462 0.929 . S
H1495 C1463 0.930 . S
Li1496 N1513 1.990 . S
Li1496 O1556 1.956 . S
Li1496 O1557 1.970 . S
Li1496 O1558 1.961 . S
Li1497 N1521 1.990 . S
Li1497 O1556 1.970 . S
Li1497 O1557 1.956 . S
Li1497 O1559 1.961 . S
Li1498 N1543 1.990 . S
Li1498 O1556 1.961 . S
Li1498 O1558 1.956 . S
Li1498 O1559 1.970 . S
Li1499 N1549 1.990 . S
Li1499 O1557 1.961 . S
Li1499 O1558 1.970 . S
Li1499 O1559 1.956 . S
C1500 C1502 1.348 . S
C1500 C1503 1.356 . S
C1500 O1556 1.325 . S
N1501 C1504 1.314 . S
N1501 C1505 1.279 . S
C1502 C1500 1.348 . S
C1502 C1504 1.353 . S
C1502 H1560 0.929 . S
C1503 C1500 1.356 . S
C1503 C1505 1.358 . S
C1503 H1561 0.930 . S
C1504 N1501 1.314 . S
C1504 C1502 1.353 . S
C1504 H1562 0.930 . S
C1505 N1501 1.279 . S
C1505 C1503 1.358 . S
C1505 H1563 0.930 . S
C1506 C1509 1.348 . S
C1506 C1510 1.356 . S
C1506 O1557 1.325 . S
C1507 N1508 1.279 . S
C1507 C1510 1.358 . S
C1507 H1564 0.930 . S
N1508 C1507 1.279 . S
N1508 C1511 1.314 . S
C1509 C1506 1.348 . S
C1509 C1511 1.353 . S
C1509 H1565 0.929 . S
C1510 C1506 1.356 . S
C1510 C1507 1.358 . S
C1510 H1566 0.930 . S
C1511 N1508 1.314 . S
C1511 C1509 1.353 . S
C1511 H1567 0.930 . S
C1512 N1513 1.314 . S
C1512 C1517 1.353 . S
C1512 H1518 0.930 . S
N1513 Li1496 1.990 . S
N1513 C1512 1.314 . S
N1513 C1515 1.279 . S
C1514 C1515 1.358 . S
C1514 C1516 1.356 . S
C1514 H1568 0.930 . S
C1515 N1513 1.279 . S
C1515 C1514 1.358 . S
C1515 H1519 0.930 . S
C1516 C1514 1.356 . S
C1516 C1517 1.348 . S
C1517 C1512 1.353 . S
C1517 C1516 1.348 . S
C1517 H1569 0.929 . S
H1518 C1512 0.930 . S
H1519 C1515 0.930 . S
C1520 N1521 1.314 . S
C1520 C1522 1.353 . S
C1520 H1526 0.930 . S
N1521 Li1497 1.990 . S
N1521 C1520 1.314 . S
N1521 C1524 1.279 . S
C1522 C1520 1.353 . S
C1522 C1525 1.348 . S
C1522 H1570 0.929 . S
C1523 C1524 1.358 . S
C1523 C1525 1.356 . S
C1523 H1571 0.930 . S
C1524 N1521 1.279 . S
C1524 C1523 1.358 . S
C1524 H1527 0.930 . S
C1525 C1522 1.348 . S
C1525 C1523 1.356 . S
H1526 C1520 0.930 . S
H1527 C1524 0.930 . S
C1528 C1530 1.348 . S
C1528 C1531 1.356 . S
C1528 O1558 1.325 . S
N1529 C1532 1.314 . S
N1529 C1533 1.279 . S
C1530 C1528 1.348 . S
C1530 C1532 1.353 . S
C1530 H1572 0.929 . S
C1531 C1528 1.356 . S
C1531 C1533 1.358 . S
C1531 H1573 0.930 . S
C1532 N1529 1.314 . S
C1532 C1530 1.353 . S
C1532 H1574 0.930 . S
C1533 N1529 1.279 . S
C1533 C1531 1.358 . S
C1533 H1575 0.930 . S
C1534 C1535 1.348 . S
C1534 C1536 1.356 . S
C1534 O1559 1.325 . S
C1535 C1534 1.348 . S
C1535 C1537 1.353 . S
C1535 H1576 0.929 . S
C1536 C1534 1.356 . S
C1536 C1538 1.358 . S
C1536 H1577 0.930 . S
C1537 C1535 1.353 . S
C1537 N1539 1.314 . S
C1537 H1578 0.930 . S
C1538 C1536 1.358 . S
C1538 N1539 1.279 . S
C1538 H1579 0.930 . S
N1539 C1537 1.314 . S
N1539 C1538 1.279 . S
C1540 C1542 1.353 . S
C1540 N1543 1.314 . S
C1540 H1546 0.930 . S
C1541 N1543 1.279 . S
C1541 C1544 1.358 . S
C1541 H1547 0.930 . S
C1542 C1540 1.353 . S
C1542 C1545 1.348 . S
C1542 H1580 0.929 . S
N1543 Li1498 1.990 . S
N1543 C1540 1.314 . S
N1543 C1541 1.279 . S
C1544 C1541 1.358 . S
C1544 C1545 1.356 . S
C1544 H1581 0.930 . S
C1545 C1542 1.348 . S
C1545 C1544 1.356 . S
H1546 C1540 0.930 . S
H1547 C1541 0.930 . S
C1548 N1549 1.314 . S
C1548 C1550 1.353 . S
C1548 H1554 0.930 . S
N1549 Li1499 1.990 . S
N1549 C1548 1.314 . S
N1549 C1552 1.279 . S
C1550 C1548 1.353 . S
C1550 C1553 1.348 . S
C1550 H1582 0.929 . S
C1551 C1552 1.358 . S
C1551 C1553 1.356 . S
C1551 H1583 0.930 . S
C1552 N1549 1.279 . S
C1552 C1551 1.358 . S
C1552 H1555 0.930 . S
C1553 C1550 1.348 . S
C1553 C1551 1.356 . S
H1554 C1548 0.930 . S
H1555 C1552 0.930 . S
O1556 Li1496 1.956 . S
O1556 Li1497 1.970 . S
O1556 Li1498 1.961 . S
O1556 C1500 1.325 . S
O1557 Li1496 1.970 . S
O1557 Li1497 1.956 . S
O1557 Li1499 1.961 . S
O1557 C1506 1.325 . S
O1558 Li1496 1.961 . S
O1558 Li1498 1.956 . S
O1558 Li1499 1.970 . S
O1558 C1528 1.325 . S
O1559 Li1497 1.961 . S
O1559 Li1498 1.970 . S
O1559 Li1499 1.956 . S
O1559 C1534 1.325 . S
H1560 C1502 0.929 . S
H1561 C1503 0.930 . S
H1562 C1504 0.930 . S
H1563 C1505 0.930 . S
H1564 C1507 0.930 . S
H1565 C1509 0.929 . S
H1566 C1510 0.930 . S
H1567 C1511 0.930 . S
H1568 C1514 0.930 . S
H1569 C1517 0.929 . S
H1570 C1522 0.929 . S
H1571 C1523 0.930 . S
H1572 C1530 0.929 . S
H1573 C1531 0.930 . S
H1574 C1532 0.930 . S
H1575 C1533 0.930 . S
H1576 C1535 0.929 . S
H1577 C1536 0.930 . S
H1578 C1537 0.930 . S
H1579 C1538 0.930 . S
H1580 C1542 0.929 . S
H1581 C1544 0.930 . S
H1582 C1550 0.929 . S
H1583 C1551 0.930 . S
Li1584 N1601 1.990 . S
Li1584 O1644 1.956 . S
Li1584 O1645 1.970 . S
Li1584 O1646 1.961 . S
Li1585 N1609 1.990 . S
Li1585 O1644 1.970 . S
Li1585 O1645 1.956 . S
Li1585 O1647 1.961 . S
Li1586 N1631 1.990 . S
Li1586 O1644 1.961 . S
Li1586 O1646 1.956 . S
Li1586 O1647 1.970 . S
Li1587 N1637 1.990 . S
Li1587 O1645 1.961 . S
Li1587 O1646 1.970 . S
Li1587 O1647 1.956 . S
C1588 C1590 1.348 . S
C1588 C1591 1.356 . S
C1588 O1644 1.325 . S
N1589 C1592 1.314 . S
N1589 C1593 1.279 . S
C1590 C1588 1.348 . S
C1590 C1592 1.353 . S
C1590 H1648 0.929 . S
C1591 C1588 1.356 . S
C1591 C1593 1.358 . S
C1591 H1649 0.930 . S
C1592 N1589 1.314 . S
C1592 C1590 1.353 . S
C1592 H1650 0.930 . S
C1593 N1589 1.279 . S
C1593 C1591 1.358 . S
C1593 H1651 0.930 . S
C1594 C1597 1.348 . S
C1594 C1598 1.356 . S
C1594 O1645 1.325 . S
C1595 N1596 1.279 . S
C1595 C1598 1.358 . S
C1595 H1652 0.930 . S
N1596 C1595 1.279 . S
N1596 C1599 1.314 . S
C1597 C1594 1.348 . S
C1597 C1599 1.353 . S
C1597 H1653 0.929 . S
C1598 C1594 1.356 . S
C1598 C1595 1.358 . S
C1598 H1654 0.930 . S
C1599 N1596 1.314 . S
C1599 C1597 1.353 . S
C1599 H1655 0.930 . S
C1600 N1601 1.314 . S
C1600 C1605 1.353 . S
C1600 H1606 0.930 . S
N1601 Li1584 1.990 . S
N1601 C1600 1.314 . S
N1601 C1603 1.279 . S
C1602 C1603 1.358 . S
C1602 C1604 1.356 . S
C1602 H1656 0.930 . S
C1603 N1601 1.279 . S
C1603 C1602 1.358 . S
C1603 H1607 0.930 . S
C1604 C1602 1.356 . S
C1604 C1605 1.348 . S
C1605 C1600 1.353 . S
C1605 C1604 1.348 . S
C1605 H1657 0.929 . S
H1606 C1600 0.930 . S
H1607 C1603 0.930 . S
C1608 N1609 1.314 . S
C1608 C1610 1.353 . S
C1608 H1614 0.930 . S
N1609 Li1585 1.990 . S
N1609 C1608 1.314 . S
N1609 C1612 1.279 . S
C1610 C1608 1.353 . S
C1610 C1613 1.348 . S
C1610 H1658 0.929 . S
C1611 C1612 1.358 . S
C1611 C1613 1.356 . S
C1611 H1659 0.930 . S
C1612 N1609 1.279 . S
C1612 C1611 1.358 . S
C1612 H1615 0.930 . S
C1613 C1610 1.348 . S
C1613 C1611 1.356 . S
H1614 C1608 0.930 . S
H1615 C1612 0.930 . S
C1616 C1618 1.348 . S
C1616 C1619 1.356 . S
C1616 O1646 1.325 . S
N1617 C1620 1.314 . S
N1617 C1621 1.279 . S
C1618 C1616 1.348 . S
C1618 C1620 1.353 . S
C1618 H1660 0.929 . S
C1619 C1616 1.356 . S
C1619 C1621 1.358 . S
C1619 H1661 0.930 . S
C1620 N1617 1.314 . S
C1620 C1618 1.353 . S
C1620 H1662 0.930 . S
C1621 N1617 1.279 . S
C1621 C1619 1.358 . S
C1621 H1663 0.930 . S
C1622 C1623 1.348 . S
C1622 C1624 1.356 . S
C1622 O1647 1.325 . S
C1623 C1622 1.348 . S
C1623 C1625 1.353 . S
C1623 H1664 0.929 . S
C1624 C1622 1.356 . S
C1624 C1626 1.358 . S
C1624 H1665 0.930 . S
C1625 C1623 1.353 . S
C1625 N1627 1.314 . S
C1625 H1666 0.930 . S
C1626 C1624 1.358 . S
C1626 N1627 1.279 . S
C1626 H1667 0.930 . S
N1627 C1625 1.314 . S
N1627 C1626 1.279 . S
C1628 C1630 1.353 . S
C1628 N1631 1.314 . S
C1628 H1634 0.930 . S
C1629 N1631 1.279 . S
C1629 C1632 1.358 . S
C1629 H1635 0.930 . S
C1630 C1628 1.353 . S
C1630 C1633 1.348 . S
C1630 H1668 0.929 . S
N1631 Li1586 1.990 . S
N1631 C1628 1.314 . S
N1631 C1629 1.279 . S
C1632 C1629 1.358 . S
C1632 C1633 1.356 . S
C1632 H1669 0.930 . S
C1633 C1630 1.348 . S
C1633 C1632 1.356 . S
H1634 C1628 0.930 . S
H1635 C1629 0.930 . S
C1636 N1637 1.314 . S
C1636 C1638 1.353 . S
C1636 H1642 0.930 . S
N1637 Li1587 1.990 . S
N1637 C1636 1.314 . S
N1637 C1640 1.279 . S
C1638 C1636 1.353 . S
C1638 C1641 1.348 . S
C1638 H1670 0.929 . S
C1639 C1640 1.358 . S
C1639 C1641 1.356 . S
C1639 H1671 0.930 . S
C1640 N1637 1.279 . S
C1640 C1639 1.358 . S
C1640 H1643 0.930 . S
C1641 C1638 1.348 . S
C1641 C1639 1.356 . S
H1642 C1636 0.930 . S
H1643 C1640 0.930 . S
O1644 Li1584 1.956 . S
O1644 Li1585 1.970 . S
O1644 Li1586 1.961 . S
O1644 C1588 1.325 . S
O1645 Li1584 1.970 . S
O1645 Li1585 1.956 . S
O1645 Li1587 1.961 . S
O1645 C1594 1.325 . S
O1646 Li1584 1.961 . S
O1646 Li1586 1.956 . S
O1646 Li1587 1.970 . S
O1646 C1616 1.325 . S
O1647 Li1585 1.961 . S
O1647 Li1586 1.970 . S
O1647 Li1587 1.956 . S
O1647 C1622 1.325 . S
H1648 C1590 0.929 . S
H1649 C1591 0.930 . S
H1650 C1592 0.930 . S
H1651 C1593 0.930 . S
H1652 C1595 0.930 . S
H1653 C1597 0.929 . S
H1654 C1598 0.930 . S
H1655 C1599 0.930 . S
H1656 C1602 0.930 . S
H1657 C1605 0.929 . S
H1658 C1610 0.929 . S
H1659 C1611 0.930 . S
H1660 C1618 0.929 . S
H1661 C1619 0.930 . S
H1662 C1620 0.930 . S
H1663 C1621 0.930 . S
H1664 C1623 0.929 . S
H1665 C1624 0.930 . S
H1666 C1625 0.930 . S
H1667 C1626 0.930 . S
H1668 C1630 0.929 . S
H1669 C1632 0.930 . S
H1670 C1638 0.929 . S
H1671 C1639 0.930 . S
Li1672 N1689 1.990 . S
Li1672 O1732 1.956 . S
Li1672 O1733 1.970 . S
Li1672 O1734 1.961 . S
Li1673 N1697 1.990 . S
Li1673 O1732 1.970 . S
Li1673 O1733 1.956 . S
Li1673 O1735 1.961 . S
Li1674 N1719 1.990 . S
Li1674 O1732 1.961 . S
Li1674 O1734 1.956 . S
Li1674 O1735 1.970 . S
Li1675 N1725 1.990 . S
Li1675 O1733 1.961 . S
Li1675 O1734 1.970 . S
Li1675 O1735 1.956 . S
C1676 C1678 1.348 . S
C1676 C1679 1.356 . S
C1676 O1732 1.325 . S
N1677 C1680 1.314 . S
N1677 C1681 1.279 . S
C1678 C1676 1.348 . S
C1678 C1680 1.353 . S
C1678 H1736 0.929 . S
C1679 C1676 1.356 . S
C1679 C1681 1.358 . S
C1679 H1737 0.930 . S
C1680 N1677 1.314 . S
C1680 C1678 1.353 . S
C1680 H1738 0.930 . S
C1681 N1677 1.279 . S
C1681 C1679 1.358 . S
C1681 H1739 0.930 . S
C1682 C1685 1.348 . S
C1682 C1686 1.356 . S
C1682 O1733 1.325 . S
C1683 N1684 1.279 . S
C1683 C1686 1.358 . S
C1683 H1740 0.930 . S
N1684 C1683 1.279 . S
N1684 C1687 1.314 . S
C1685 C1682 1.348 . S
C1685 C1687 1.353 . S
C1685 H1741 0.929 . S
C1686 C1682 1.356 . S
C1686 C1683 1.358 . S
C1686 H1742 0.930 . S
C1687 N1684 1.314 . S
C1687 C1685 1.353 . S
C1687 H1743 0.930 . S
C1688 N1689 1.314 . S
C1688 C1693 1.353 . S
C1688 H1694 0.930 . S
N1689 Li1672 1.990 . S
N1689 C1688 1.314 . S
N1689 C1691 1.279 . S
C1690 C1691 1.358 . S
C1690 C1692 1.356 . S
C1690 H1744 0.930 . S
C1691 N1689 1.279 . S
C1691 C1690 1.358 . S
C1691 H1695 0.930 . S
C1692 C1690 1.356 . S
C1692 C1693 1.348 . S
C1693 C1688 1.353 . S
C1693 C1692 1.348 . S
C1693 H1745 0.929 . S
H1694 C1688 0.930 . S
H1695 C1691 0.930 . S
C1696 N1697 1.314 . S
C1696 C1698 1.353 . S
C1696 H1702 0.930 . S
N1697 Li1673 1.990 . S
N1697 C1696 1.314 . S
N1697 C1700 1.279 . S
C1698 C1696 1.353 . S
C1698 C1701 1.348 . S
C1698 H1746 0.929 . S
C1699 C1700 1.358 . S
C1699 C1701 1.356 . S
C1699 H1747 0.930 . S
C1700 N1697 1.279 . S
C1700 C1699 1.358 . S
C1700 H1703 0.930 . S
C1701 C1698 1.348 . S
C1701 C1699 1.356 . S
H1702 C1696 0.930 . S
H1703 C1700 0.930 . S
C1704 C1706 1.348 . S
C1704 C1707 1.356 . S
C1704 O1734 1.325 . S
N1705 C1708 1.314 . S
N1705 C1709 1.279 . S
C1706 C1704 1.348 . S
C1706 C1708 1.353 . S
C1706 H1748 0.929 . S
C1707 C1704 1.356 . S
C1707 C1709 1.358 . S
C1707 H1749 0.930 . S
C1708 N1705 1.314 . S
C1708 C1706 1.353 . S
C1708 H1750 0.930 . S
C1709 N1705 1.279 . S
C1709 C1707 1.358 . S
C1709 H1751 0.930 . S
C1710 C1711 1.348 . S
C1710 C1712 1.356 . S
C1710 O1735 1.325 . S
C1711 C1710 1.348 . S
C1711 C1713 1.353 . S
C1711 H1752 0.929 . S
C1712 C1710 1.356 . S
C1712 C1714 1.358 . S
C1712 H1753 0.930 . S
C1713 C1711 1.353 . S
C1713 N1715 1.314 . S
C1713 H1754 0.930 . S
C1714 C1712 1.358 . S
C1714 N1715 1.279 . S
C1714 H1755 0.930 . S
N1715 C1713 1.314 . S
N1715 C1714 1.279 . S
C1716 C1718 1.353 . S
C1716 N1719 1.314 . S
C1716 H1722 0.930 . S
C1717 N1719 1.279 . S
C1717 C1720 1.358 . S
C1717 H1723 0.930 . S
C1718 C1716 1.353 . S
C1718 C1721 1.348 . S
C1718 H1756 0.929 . S
N1719 Li1674 1.990 . S
N1719 C1716 1.314 . S
N1719 C1717 1.279 . S
C1720 C1717 1.358 . S
C1720 C1721 1.356 . S
C1720 H1757 0.930 . S
C1721 C1718 1.348 . S
C1721 C1720 1.356 . S
H1722 C1716 0.930 . S
H1723 C1717 0.930 . S
C1724 N1725 1.314 . S
C1724 C1726 1.353 . S
C1724 H1730 0.930 . S
N1725 Li1675 1.990 . S
N1725 C1724 1.314 . S
N1725 C1728 1.279 . S
C1726 C1724 1.353 . S
C1726 C1729 1.348 . S
C1726 H1758 0.929 . S
C1727 C1728 1.358 . S
C1727 C1729 1.356 . S
C1727 H1759 0.930 . S
C1728 N1725 1.279 . S
C1728 C1727 1.358 . S
C1728 H1731 0.930 . S
C1729 C1726 1.348 . S
C1729 C1727 1.356 . S
H1730 C1724 0.930 . S
H1731 C1728 0.930 . S
O1732 Li1672 1.956 . S
O1732 Li1673 1.970 . S
O1732 Li1674 1.961 . S
O1732 C1676 1.325 . S
O1733 Li1672 1.970 . S
O1733 Li1673 1.956 . S
O1733 Li1675 1.961 . S
O1733 C1682 1.325 . S
O1734 Li1672 1.961 . S
O1734 Li1674 1.956 . S
O1734 Li1675 1.970 . S
O1734 C1704 1.325 . S
O1735 Li1673 1.961 . S
O1735 Li1674 1.970 . S
O1735 Li1675 1.956 . S
O1735 C1710 1.325 . S
H1736 C1678 0.929 . S
H1737 C1679 0.930 . S
H1738 C1680 0.930 . S
H1739 C1681 0.930 . S
H1740 C1683 0.930 . S
H1741 C1685 0.929 . S
H1742 C1686 0.930 . S
H1743 C1687 0.930 . S
H1744 C1690 0.930 . S
H1745 C1693 0.929 . S
H1746 C1698 0.929 . S
H1747 C1699 0.930 . S
H1748 C1706 0.929 . S
H1749 C1707 0.930 . S
H1750 C1708 0.930 . S
H1751 C1709 0.930 . S
H1752 C1711 0.929 . S
H1753 C1712 0.930 . S
H1754 C1713 0.930 . S
H1755 C1714 0.930 . S
H1756 C1718 0.929 . S
H1757 C1720 0.930 . S
H1758 C1726 0.929 . S
H1759 C1727 0.930 . S
Li1760 N1777 1.990 . S
Li1760 O1820 1.956 . S
Li1760 O1821 1.970 . S
Li1760 O1822 1.961 . S
Li1761 N1785 1.990 . S
Li1761 O1820 1.970 . S
Li1761 O1821 1.956 . S
Li1761 O1823 1.961 . S
Li1762 N1807 1.990 . S
Li1762 O1820 1.961 . S
Li1762 O1822 1.956 . S
Li1762 O1823 1.970 . S
Li1763 N1813 1.990 . S
Li1763 O1821 1.961 . S
Li1763 O1822 1.970 . S
Li1763 O1823 1.956 . S
C1764 C1766 1.348 . S
C1764 C1767 1.356 . S
C1764 O1820 1.325 . S
N1765 C1768 1.314 . S
N1765 C1769 1.279 . S
C1766 C1764 1.348 . S
C1766 C1768 1.353 . S
C1766 H1824 0.929 . S
C1767 C1764 1.356 . S
C1767 C1769 1.358 . S
C1767 H1825 0.930 . S
C1768 N1765 1.314 . S
C1768 C1766 1.353 . S
C1768 H1826 0.930 . S
C1769 N1765 1.279 . S
C1769 C1767 1.358 . S
C1769 H1827 0.930 . S
C1770 C1773 1.348 . S
C1770 C1774 1.356 . S
C1770 O1821 1.325 . S
C1771 N1772 1.279 . S
C1771 C1774 1.358 . S
C1771 H1828 0.930 . S
N1772 C1771 1.279 . S
N1772 C1775 1.314 . S
C1773 C1770 1.348 . S
C1773 C1775 1.353 . S
C1773 H1829 0.929 . S
C1774 C1770 1.356 . S
C1774 C1771 1.358 . S
C1774 H1830 0.930 . S
C1775 N1772 1.314 . S
C1775 C1773 1.353 . S
C1775 H1831 0.930 . S
C1776 N1777 1.314 . S
C1776 C1781 1.353 . S
C1776 H1782 0.930 . S
N1777 Li1760 1.990 . S
N1777 C1776 1.314 . S
N1777 C1779 1.279 . S
C1778 C1779 1.358 . S
C1778 C1780 1.356 . S
C1778 H1832 0.930 . S
C1779 N1777 1.279 . S
C1779 C1778 1.358 . S
C1779 H1783 0.930 . S
C1780 C1778 1.356 . S
C1780 C1781 1.348 . S
C1781 C1776 1.353 . S
C1781 C1780 1.348 . S
C1781 H1833 0.929 . S
H1782 C1776 0.930 . S
H1783 C1779 0.930 . S
C1784 N1785 1.314 . S
C1784 C1786 1.353 . S
C1784 H1790 0.930 . S
N1785 Li1761 1.990 . S
N1785 C1784 1.314 . S
N1785 C1788 1.279 . S
C1786 C1784 1.353 . S
C1786 C1789 1.348 . S
C1786 H1834 0.929 . S
C1787 C1788 1.358 . S
C1787 C1789 1.356 . S
C1787 H1835 0.930 . S
C1788 N1785 1.279 . S
C1788 C1787 1.358 . S
C1788 H1791 0.930 . S
C1789 C1786 1.348 . S
C1789 C1787 1.356 . S
H1790 C1784 0.930 . S
H1791 C1788 0.930 . S
C1792 C1794 1.348 . S
C1792 C1795 1.356 . S
C1792 O1822 1.325 . S
N1793 C1796 1.314 . S
N1793 C1797 1.279 . S
C1794 C1792 1.348 . S
C1794 C1796 1.353 . S
C1794 H1836 0.929 . S
C1795 C1792 1.356 . S
C1795 C1797 1.358 . S
C1795 H1837 0.930 . S
C1796 N1793 1.314 . S
C1796 C1794 1.353 . S
C1796 H1838 0.930 . S
C1797 N1793 1.279 . S
C1797 C1795 1.358 . S
C1797 H1839 0.930 . S
C1798 C1799 1.348 . S
C1798 C1800 1.356 . S
C1798 O1823 1.325 . S
C1799 C1798 1.348 . S
C1799 C1801 1.353 . S
C1799 H1840 0.929 . S
C1800 C1798 1.356 . S
C1800 C1802 1.358 . S
C1800 H1841 0.930 . S
C1801 C1799 1.353 . S
C1801 N1803 1.314 . S
C1801 H1842 0.930 . S
C1802 C1800 1.358 . S
C1802 N1803 1.279 . S
C1802 H1843 0.930 . S
N1803 C1801 1.314 . S
N1803 C1802 1.279 . S
C1804 C1806 1.353 . S
C1804 N1807 1.314 . S
C1804 H1810 0.930 . S
C1805 N1807 1.279 . S
C1805 C1808 1.358 . S
C1805 H1811 0.930 . S
C1806 C1804 1.353 . S
C1806 C1809 1.348 . S
C1806 H1844 0.929 . S
N1807 Li1762 1.990 . S
N1807 C1804 1.314 . S
N1807 C1805 1.279 . S
C1808 C1805 1.358 . S
C1808 C1809 1.356 . S
C1808 H1845 0.930 . S
C1809 C1806 1.348 . S
C1809 C1808 1.356 . S
H1810 C1804 0.930 . S
H1811 C1805 0.930 . S
C1812 N1813 1.314 . S
C1812 C1814 1.353 . S
C1812 H1818 0.930 . S
N1813 Li1763 1.990 . S
N1813 C1812 1.314 . S
N1813 C1816 1.279 . S
C1814 C1812 1.353 . S
C1814 C1817 1.348 . S
C1814 H1846 0.929 . S
C1815 C1816 1.358 . S
C1815 C1817 1.356 . S
C1815 H1847 0.930 . S
C1816 N1813 1.279 . S
C1816 C1815 1.358 . S
C1816 H1819 0.930 . S
C1817 C1814 1.348 . S
C1817 C1815 1.356 . S
H1818 C1812 0.930 . S
H1819 C1816 0.930 . S
O1820 Li1760 1.956 . S
O1820 Li1761 1.970 . S
O1820 Li1762 1.961 . S
O1820 C1764 1.325 . S
O1821 Li1760 1.970 . S
O1821 Li1761 1.956 . S
O1821 Li1763 1.961 . S
O1821 C1770 1.325 . S
O1822 Li1760 1.961 . S
O1822 Li1762 1.956 . S
O1822 Li1763 1.970 . S
O1822 C1792 1.325 . S
O1823 Li1761 1.961 . S
O1823 Li1762 1.970 . S
O1823 Li1763 1.956 . S
O1823 C1798 1.325 . S
H1824 C1766 0.929 . S
H1825 C1767 0.930 . S
H1826 C1768 0.930 . S
H1827 C1769 0.930 . S
H1828 C1771 0.930 . S
H1829 C1773 0.929 . S
H1830 C1774 0.930 . S
H1831 C1775 0.930 . S
H1832 C1778 0.930 . S
H1833 C1781 0.929 . S
H1834 C1786 0.929 . S
H1835 C1787 0.930 . S
H1836 C1794 0.929 . S
H1837 C1795 0.930 . S
H1838 C1796 0.930 . S
H1839 C1797 0.930 . S
H1840 C1799 0.929 . S
H1841 C1800 0.930 . S
H1842 C1801 0.930 . S
H1843 C1802 0.930 . S
H1844 C1806 0.929 . S
H1845 C1808 0.930 . S
H1846 C1814 0.929 . S
H1847 C1815 0.930 . S
Li1848 N1865 1.990 . S
Li1848 O1908 1.956 . S
Li1848 O1909 1.970 . S
Li1848 O1910 1.961 . S
Li1849 N1873 1.990 . S
Li1849 O1908 1.970 . S
Li1849 O1909 1.956 . S
Li1849 O1911 1.961 . S
Li1850 N1895 1.990 . S
Li1850 O1908 1.961 . S
Li1850 O1910 1.956 . S
Li1850 O1911 1.970 . S
Li1851 N1901 1.990 . S
Li1851 O1909 1.961 . S
Li1851 O1910 1.970 . S
Li1851 O1911 1.956 . S
C1852 C1854 1.348 . S
C1852 C1855 1.356 . S
C1852 O1908 1.325 . S
N1853 C1856 1.314 . S
N1853 C1857 1.279 . S
C1854 C1852 1.348 . S
C1854 C1856 1.353 . S
C1854 H1912 0.929 . S
C1855 C1852 1.356 . S
C1855 C1857 1.358 . S
C1855 H1913 0.930 . S
C1856 N1853 1.314 . S
C1856 C1854 1.353 . S
C1856 H1914 0.930 . S
C1857 N1853 1.279 . S
C1857 C1855 1.358 . S
C1857 H1915 0.930 . S
C1858 C1861 1.348 . S
C1858 C1862 1.356 . S
C1858 O1909 1.325 . S
C1859 N1860 1.279 . S
C1859 C1862 1.358 . S
C1859 H1916 0.930 . S
N1860 C1859 1.279 . S
N1860 C1863 1.314 . S
C1861 C1858 1.348 . S
C1861 C1863 1.353 . S
C1861 H1917 0.929 . S
C1862 C1858 1.356 . S
C1862 C1859 1.358 . S
C1862 H1918 0.930 . S
C1863 N1860 1.314 . S
C1863 C1861 1.353 . S
C1863 H1919 0.930 . S
C1864 N1865 1.314 . S
C1864 C1869 1.353 . S
C1864 H1870 0.930 . S
N1865 Li1848 1.990 . S
N1865 C1864 1.314 . S
N1865 C1867 1.279 . S
C1866 C1867 1.358 . S
C1866 C1868 1.356 . S
C1866 H1920 0.930 . S
C1867 N1865 1.279 . S
C1867 C1866 1.358 . S
C1867 H1871 0.930 . S
C1868 C1866 1.356 . S
C1868 C1869 1.348 . S
C1869 C1864 1.353 . S
C1869 C1868 1.348 . S
C1869 H1921 0.929 . S
H1870 C1864 0.930 . S
H1871 C1867 0.930 . S
C1872 N1873 1.314 . S
C1872 C1874 1.353 . S
C1872 H1878 0.930 . S
N1873 Li1849 1.990 . S
N1873 C1872 1.314 . S
N1873 C1876 1.279 . S
C1874 C1872 1.353 . S
C1874 C1877 1.348 . S
C1874 H1922 0.929 . S
C1875 C1876 1.358 . S
C1875 C1877 1.356 . S
C1875 H1923 0.930 . S
C1876 N1873 1.279 . S
C1876 C1875 1.358 . S
C1876 H1879 0.930 . S
C1877 C1874 1.348 . S
C1877 C1875 1.356 . S
H1878 C1872 0.930 . S
H1879 C1876 0.930 . S
C1880 C1882 1.348 . S
C1880 C1883 1.356 . S
C1880 O1910 1.325 . S
N1881 C1884 1.314 . S
N1881 C1885 1.279 . S
C1882 C1880 1.348 . S
C1882 C1884 1.353 . S
C1882 H1924 0.929 . S
C1883 C1880 1.356 . S
C1883 C1885 1.358 . S
C1883 H1925 0.930 . S
C1884 N1881 1.314 . S
C1884 C1882 1.353 . S
C1884 H1926 0.930 . S
C1885 N1881 1.279 . S
C1885 C1883 1.358 . S
C1885 H1927 0.930 . S
C1886 C1887 1.348 . S
C1886 C1888 1.356 . S
C1886 O1911 1.325 . S
C1887 C1886 1.348 . S
C1887 C1889 1.353 . S
C1887 H1928 0.929 . S
C1888 C1886 1.356 . S
C1888 C1890 1.358 . S
C1888 H1929 0.930 . S
C1889 C1887 1.353 . S
C1889 N1891 1.314 . S
C1889 H1930 0.930 . S
C1890 C1888 1.358 . S
C1890 N1891 1.279 . S
C1890 H1931 0.930 . S
N1891 C1889 1.314 . S
N1891 C1890 1.279 . S
C1892 C1894 1.353 . S
C1892 N1895 1.314 . S
C1892 H1898 0.930 . S
C1893 N1895 1.279 . S
C1893 C1896 1.358 . S
C1893 H1899 0.930 . S
C1894 C1892 1.353 . S
C1894 C1897 1.348 . S
C1894 H1932 0.929 . S
N1895 Li1850 1.990 . S
N1895 C1892 1.314 . S
N1895 C1893 1.279 . S
C1896 C1893 1.358 . S
C1896 C1897 1.356 . S
C1896 H1933 0.930 . S
C1897 C1894 1.348 . S
C1897 C1896 1.356 . S
H1898 C1892 0.930 . S
H1899 C1893 0.930 . S
C1900 N1901 1.314 . S
C1900 C1902 1.353 . S
C1900 H1906 0.930 . S
N1901 Li1851 1.990 . S
N1901 C1900 1.314 . S
N1901 C1904 1.279 . S
C1902 C1900 1.353 . S
C1902 C1905 1.348 . S
C1902 H1934 0.929 . S
C1903 C1904 1.358 . S
C1903 C1905 1.356 . S
C1903 H1935 0.930 . S
C1904 N1901 1.279 . S
C1904 C1903 1.358 . S
C1904 H1907 0.930 . S
C1905 C1902 1.348 . S
C1905 C1903 1.356 . S
H1906 C1900 0.930 . S
H1907 C1904 0.930 . S
O1908 Li1848 1.956 . S
O1908 Li1849 1.970 . S
O1908 Li1850 1.961 . S
O1908 C1852 1.325 . S
O1909 Li1848 1.970 . S
O1909 Li1849 1.956 . S
O1909 Li1851 1.961 . S
O1909 C1858 1.325 . S
O1910 Li1848 1.961 . S
O1910 Li1850 1.956 . S
O1910 Li1851 1.970 . S
O1910 C1880 1.325 . S
O1911 Li1849 1.961 . S
O1911 Li1850 1.970 . S
O1911 Li1851 1.956 . S
O1911 C1886 1.325 . S
H1912 C1854 0.929 . S
H1913 C1855 0.930 . S
H1914 C1856 0.930 . S
H1915 C1857 0.930 . S
H1916 C1859 0.930 . S
H1917 C1861 0.929 . S
H1918 C1862 0.930 . S
H1919 C1863 0.930 . S
H1920 C1866 0.930 . S
H1921 C1869 0.929 . S
H1922 C1874 0.929 . S
H1923 C1875 0.930 . S
H1924 C1882 0.929 . S
H1925 C1883 0.930 . S
H1926 C1884 0.930 . S
H1927 C1885 0.930 . S
H1928 C1887 0.929 . S
H1929 C1888 0.930 . S
H1930 C1889 0.930 . S
H1931 C1890 0.930 . S
H1932 C1894 0.929 . S
H1933 C1896 0.930 . S
H1934 C1902 0.929 . S
H1935 C1903 0.930 . S
Li1936 N1953 1.990 . S
Li1936 O1996 1.956 . S
Li1936 O1997 1.970 . S
Li1936 O1998 1.961 . S
Li1937 N1961 1.990 . S
Li1937 O1996 1.970 . S
Li1937 O1997 1.956 . S
Li1937 O1999 1.961 . S
Li1938 N1983 1.990 . S
Li1938 O1996 1.961 . S
Li1938 O1998 1.956 . S
Li1938 O1999 1.970 . S
Li1939 N1989 1.990 . S
Li1939 O1997 1.961 . S
Li1939 O1998 1.970 . S
Li1939 O1999 1.956 . S
C1940 C1942 1.348 . S
C1940 C1943 1.356 . S
C1940 O1996 1.325 . S
N1941 C1944 1.314 . S
N1941 C1945 1.279 . S
C1942 C1940 1.348 . S
C1942 C1944 1.353 . S
C1942 H2000 0.929 . S
C1943 C1940 1.356 . S
C1943 C1945 1.358 . S
C1943 H2001 0.930 . S
C1944 N1941 1.314 . S
C1944 C1942 1.353 . S
C1944 H2002 0.930 . S
C1945 N1941 1.279 . S
C1945 C1943 1.358 . S
C1945 H2003 0.930 . S
C1946 C1949 1.348 . S
C1946 C1950 1.356 . S
C1946 O1997 1.325 . S
C1947 N1948 1.279 . S
C1947 C1950 1.358 . S
C1947 H2004 0.930 . S
N1948 C1947 1.279 . S
N1948 C1951 1.314 . S
C1949 C1946 1.348 . S
C1949 C1951 1.353 . S
C1949 H2005 0.929 . S
C1950 C1946 1.356 . S
C1950 C1947 1.358 . S
C1950 H2006 0.930 . S
C1951 N1948 1.314 . S
C1951 C1949 1.353 . S
C1951 H2007 0.930 . S
C1952 N1953 1.314 . S
C1952 C1957 1.353 . S
C1952 H1958 0.930 . S
N1953 Li1936 1.990 . S
N1953 C1952 1.314 . S
N1953 C1955 1.279 . S
C1954 C1955 1.358 . S
C1954 C1956 1.356 . S
C1954 H2008 0.930 . S
C1955 N1953 1.279 . S
C1955 C1954 1.358 . S
C1955 H1959 0.930 . S
C1956 C1954 1.356 . S
C1956 C1957 1.348 . S
C1957 C1952 1.353 . S
C1957 C1956 1.348 . S
C1957 H2009 0.929 . S
H1958 C1952 0.930 . S
H1959 C1955 0.930 . S
C1960 N1961 1.314 . S
C1960 C1962 1.353 . S
C1960 H1966 0.930 . S
N1961 Li1937 1.990 . S
N1961 C1960 1.314 . S
N1961 C1964 1.279 . S
C1962 C1960 1.353 . S
C1962 C1965 1.348 . S
C1962 H2010 0.929 . S
C1963 C1964 1.358 . S
C1963 C1965 1.356 . S
C1963 H2011 0.930 . S
C1964 N1961 1.279 . S
C1964 C1963 1.358 . S
C1964 H1967 0.930 . S
C1965 C1962 1.348 . S
C1965 C1963 1.356 . S
H1966 C1960 0.930 . S
H1967 C1964 0.930 . S
C1968 C1970 1.348 . S
C1968 C1971 1.356 . S
C1968 O1998 1.325 . S
N1969 C1972 1.314 . S
N1969 C1973 1.279 . S
C1970 C1968 1.348 . S
C1970 C1972 1.353 . S
C1970 H2012 0.929 . S
C1971 C1968 1.356 . S
C1971 C1973 1.358 . S
C1971 H2013 0.930 . S
C1972 N1969 1.314 . S
C1972 C1970 1.353 . S
C1972 H2014 0.930 . S
C1973 N1969 1.279 . S
C1973 C1971 1.358 . S
C1973 H2015 0.930 . S
C1974 C1975 1.348 . S
C1974 C1976 1.356 . S
C1974 O1999 1.325 . S
C1975 C1974 1.348 . S
C1975 C1977 1.353 . S
C1975 H2016 0.929 . S
C1976 C1974 1.356 . S
C1976 C1978 1.358 . S
C1976 H2017 0.930 . S
C1977 C1975 1.353 . S
C1977 N1979 1.314 . S
C1977 H2018 0.930 . S
C1978 C1976 1.358 . S
C1978 N1979 1.279 . S
C1978 H2019 0.930 . S
N1979 C1977 1.314 . S
N1979 C1978 1.279 . S
C1980 C1982 1.353 . S
C1980 N1983 1.314 . S
C1980 H1986 0.930 . S
C1981 N1983 1.279 . S
C1981 C1984 1.358 . S
C1981 H1987 0.930 . S
C1982 C1980 1.353 . S
C1982 C1985 1.348 . S
C1982 H2020 0.929 . S
N1983 Li1938 1.990 . S
N1983 C1980 1.314 . S
N1983 C1981 1.279 . S
C1984 C1981 1.358 . S
C1984 C1985 1.356 . S
C1984 H2021 0.930 . S
C1985 C1982 1.348 . S
C1985 C1984 1.356 . S
H1986 C1980 0.930 . S
H1987 C1981 0.930 . S
C1988 N1989 1.314 . S
C1988 C1990 1.353 . S
C1988 H1994 0.930 . S
N1989 Li1939 1.990 . S
N1989 C1988 1.314 . S
N1989 C1992 1.279 . S
C1990 C1988 1.353 . S
C1990 C1993 1.348 . S
C1990 H2022 0.929 . S
C1991 C1992 1.358 . S
C1991 C1993 1.356 . S
C1991 H2023 0.930 . S
C1992 N1989 1.279 . S
C1992 C1991 1.358 . S
C1992 H1995 0.930 . S
C1993 C1990 1.348 . S
C1993 C1991 1.356 . S
H1994 C1988 0.930 . S
H1995 C1992 0.930 . S
O1996 Li1936 1.956 . S
O1996 Li1937 1.970 . S
O1996 Li1938 1.961 . S
O1996 C1940 1.325 . S
O1997 Li1936 1.970 . S
O1997 Li1937 1.956 . S
O1997 Li1939 1.961 . S
O1997 C1946 1.325 . S
O1998 Li1936 1.961 . S
O1998 Li1938 1.956 . S
O1998 Li1939 1.970 . S
O1998 C1968 1.325 . S
O1999 Li1937 1.961 . S
O1999 Li1938 1.970 . S
O1999 Li1939 1.956 . S
O1999 C1974 1.325 . S
H2000 C1942 0.929 . S
H2001 C1943 0.930 . S
H2002 C1944 0.930 . S
H2003 C1945 0.930 . S
H2004 C1947 0.930 . S
H2005 C1949 0.929 . S
H2006 C1950 0.930 . S
H2007 C1951 0.930 . S
H2008 C1954 0.930 . S
H2009 C1957 0.929 . S
H2010 C1962 0.929 . S
H2011 C1963 0.930 . S
H2012 C1970 0.929 . S
H2013 C1971 0.930 . S
H2014 C1972 0.930 . S
H2015 C1973 0.930 . S
H2016 C1975 0.929 . S
H2017 C1976 0.930 . S
H2018 C1977 0.930 . S
H2019 C1978 0.930 . S
H2020 C1982 0.929 . S
H2021 C1984 0.930 . S
H2022 C1990 0.929 . S
H2023 C1991 0.930 . S
Li2024 N2041 1.990 . S
Li2024 O2084 1.956 . S
Li2024 O2085 1.970 . S
Li2024 O2086 1.961 . S
Li2025 N2049 1.990 . S
Li2025 O2084 1.970 . S
Li2025 O2085 1.956 . S
Li2025 O2087 1.961 . S
Li2026 N2071 1.990 . S
Li2026 O2084 1.961 . S
Li2026 O2086 1.956 . S
Li2026 O2087 1.970 . S
Li2027 N2077 1.990 . S
Li2027 O2085 1.961 . S
Li2027 O2086 1.970 . S
Li2027 O2087 1.956 . S
C2028 C2030 1.348 . S
C2028 C2031 1.356 . S
C2028 O2084 1.325 . S
N2029 C2032 1.314 . S
N2029 C2033 1.279 . S
C2030 C2028 1.348 . S
C2030 C2032 1.353 . S
C2030 H2088 0.929 . S
C2031 C2028 1.356 . S
C2031 C2033 1.358 . S
C2031 H2089 0.930 . S
C2032 N2029 1.314 . S
C2032 C2030 1.353 . S
C2032 H2090 0.930 . S
C2033 N2029 1.279 . S
C2033 C2031 1.358 . S
C2033 H2091 0.930 . S
C2034 C2037 1.348 . S
C2034 C2038 1.356 . S
C2034 O2085 1.325 . S
C2035 N2036 1.279 . S
C2035 C2038 1.358 . S
C2035 H2092 0.930 . S
N2036 C2035 1.279 . S
N2036 C2039 1.314 . S
C2037 C2034 1.348 . S
C2037 C2039 1.353 . S
C2037 H2093 0.929 . S
C2038 C2034 1.356 . S
C2038 C2035 1.358 . S
C2038 H2094 0.930 . S
C2039 N2036 1.314 . S
C2039 C2037 1.353 . S
C2039 H2095 0.930 . S
C2040 N2041 1.314 . S
C2040 C2045 1.353 . S
C2040 H2046 0.930 . S
N2041 Li2024 1.990 . S
N2041 C2040 1.314 . S
N2041 C2043 1.279 . S
C2042 C2043 1.358 . S
C2042 C2044 1.356 . S
C2042 H2096 0.930 . S
C2043 N2041 1.279 . S
C2043 C2042 1.358 . S
C2043 H2047 0.930 . S
C2044 C2042 1.356 . S
C2044 C2045 1.348 . S
C2045 C2040 1.353 . S
C2045 C2044 1.348 . S
C2045 H2097 0.929 . S
H2046 C2040 0.930 . S
H2047 C2043 0.930 . S
C2048 N2049 1.314 . S
C2048 C2050 1.353 . S
C2048 H2054 0.930 . S
N2049 Li2025 1.990 . S
N2049 C2048 1.314 . S
N2049 C2052 1.279 . S
C2050 C2048 1.353 . S
C2050 C2053 1.348 . S
C2050 H2098 0.929 . S
C2051 C2052 1.358 . S
C2051 C2053 1.356 . S
C2051 H2099 0.930 . S
C2052 N2049 1.279 . S
C2052 C2051 1.358 . S
C2052 H2055 0.930 . S
C2053 C2050 1.348 . S
C2053 C2051 1.356 . S
H2054 C2048 0.930 . S
H2055 C2052 0.930 . S
C2056 C2058 1.348 . S
C2056 C2059 1.356 . S
C2056 O2086 1.325 . S
N2057 C2060 1.314 . S
N2057 C2061 1.279 . S
C2058 C2056 1.348 . S
C2058 C2060 1.353 . S
C2058 H2100 0.929 . S
C2059 C2056 1.356 . S
C2059 C2061 1.358 . S
C2059 H2101 0.930 . S
C2060 N2057 1.314 . S
C2060 C2058 1.353 . S
C2060 H2102 0.930 . S
C2061 N2057 1.279 . S
C2061 C2059 1.358 . S
C2061 H2103 0.930 . S
C2062 C2063 1.348 . S
C2062 C2064 1.356 . S
C2062 O2087 1.325 . S
C2063 C2062 1.348 . S
C2063 C2065 1.353 . S
C2063 H2104 0.929 . S
C2064 C2062 1.356 . S
C2064 C2066 1.358 . S
C2064 H2105 0.930 . S
C2065 C2063 1.353 . S
C2065 N2067 1.314 . S
C2065 H2106 0.930 . S
C2066 C2064 1.358 . S
C2066 N2067 1.279 . S
C2066 H2107 0.930 . S
N2067 C2065 1.314 . S
N2067 C2066 1.279 . S
C2068 C2070 1.353 . S
C2068 N2071 1.314 . S
C2068 H2074 0.930 . S
C2069 N2071 1.279 . S
C2069 C2072 1.358 . S
C2069 H2075 0.930 . S
C2070 C2068 1.353 . S
C2070 C2073 1.348 . S
C2070 H2108 0.929 . S
N2071 Li2026 1.990 . S
N2071 C2068 1.314 . S
N2071 C2069 1.279 . S
C2072 C2069 1.358 . S
C2072 C2073 1.356 . S
C2072 H2109 0.930 . S
C2073 C2070 1.348 . S
C2073 C2072 1.356 . S
H2074 C2068 0.930 . S
H2075 C2069 0.930 . S
C2076 N2077 1.314 . S
C2076 C2078 1.353 . S
C2076 H2082 0.930 . S
N2077 Li2027 1.990 . S
N2077 C2076 1.314 . S
N2077 C2080 1.279 . S
C2078 C2076 1.353 . S
C2078 C2081 1.348 . S
C2078 H2110 0.929 . S
C2079 C2080 1.358 . S
C2079 C2081 1.356 . S
C2079 H2111 0.930 . S
C2080 N2077 1.279 . S
C2080 C2079 1.358 . S
C2080 H2083 0.930 . S
C2081 C2078 1.348 . S
C2081 C2079 1.356 . S
H2082 C2076 0.930 . S
H2083 C2080 0.930 . S
O2084 Li2024 1.956 . S
O2084 Li2025 1.970 . S
O2084 Li2026 1.961 . S
O2084 C2028 1.325 . S
O2085 Li2024 1.970 . S
O2085 Li2025 1.956 . S
O2085 Li2027 1.961 . S
O2085 C2034 1.325 . S
O2086 Li2024 1.961 . S
O2086 Li2026 1.956 . S
O2086 Li2027 1.970 . S
O2086 C2056 1.325 . S
O2087 Li2025 1.961 . S
O2087 Li2026 1.970 . S
O2087 Li2027 1.956 . S
O2087 C2062 1.325 . S
H2088 C2030 0.929 . S
H2089 C2031 0.930 . S
H2090 C2032 0.930 . S
H2091 C2033 0.930 . S
H2092 C2035 0.930 . S
H2093 C2037 0.929 . S
H2094 C2038 0.930 . S
H2095 C2039 0.930 . S
H2096 C2042 0.930 . S
H2097 C2045 0.929 . S
H2098 C2050 0.929 . S
H2099 C2051 0.930 . S
H2100 C2058 0.929 . S
H2101 C2059 0.930 . S
H2102 C2060 0.930 . S
H2103 C2061 0.930 . S
H2104 C2063 0.929 . S
H2105 C2064 0.930 . S
H2106 C2065 0.930 . S
H2107 C2066 0.930 . S
H2108 C2070 0.929 . S
H2109 C2072 0.930 . S
H2110 C2078 0.929 . S
H2111 C2079 0.930 . S
Li2112 N2129 1.990 . S
Li2112 O2172 1.956 . S
Li2112 O2173 1.970 . S
Li2112 O2174 1.961 . S
Li2113 N2137 1.990 . S
Li2113 O2172 1.970 . S
Li2113 O2173 1.956 . S
Li2113 O2175 1.961 . S
Li2114 N2159 1.990 . S
Li2114 O2172 1.961 . S
Li2114 O2174 1.956 . S
Li2114 O2175 1.970 . S
Li2115 N2165 1.990 . S
Li2115 O2173 1.961 . S
Li2115 O2174 1.970 . S
Li2115 O2175 1.956 . S
C2116 C2118 1.348 . S
C2116 C2119 1.356 . S
C2116 O2172 1.325 . S
N2117 C2120 1.314 . S
N2117 C2121 1.279 . S
C2118 C2116 1.348 . S
C2118 C2120 1.353 . S
C2118 H2176 0.929 . S
C2119 C2116 1.356 . S
C2119 C2121 1.358 . S
C2119 H2177 0.930 . S
C2120 N2117 1.314 . S
C2120 C2118 1.353 . S
C2120 H2178 0.930 . S
C2121 N2117 1.279 . S
C2121 C2119 1.358 . S
C2121 H2179 0.930 . S
C2122 C2125 1.348 . S
C2122 C2126 1.356 . S
C2122 O2173 1.325 . S
C2123 N2124 1.279 . S
C2123 C2126 1.358 . S
C2123 H2180 0.930 . S
N2124 C2123 1.279 . S
N2124 C2127 1.314 . S
C2125 C2122 1.348 . S
C2125 C2127 1.353 . S
C2125 H2181 0.929 . S
C2126 C2122 1.356 . S
C2126 C2123 1.358 . S
C2126 H2182 0.930 . S
C2127 N2124 1.314 . S
C2127 C2125 1.353 . S
C2127 H2183 0.930 . S
C2128 N2129 1.314 . S
C2128 C2133 1.353 . S
C2128 H2134 0.930 . S
N2129 Li2112 1.990 . S
N2129 C2128 1.314 . S
N2129 C2131 1.279 . S
C2130 C2131 1.358 . S
C2130 C2132 1.356 . S
C2130 H2184 0.930 . S
C2131 N2129 1.279 . S
C2131 C2130 1.358 . S
C2131 H2135 0.930 . S
C2132 C2130 1.356 . S
C2132 C2133 1.348 . S
C2133 C2128 1.353 . S
C2133 C2132 1.348 . S
C2133 H2185 0.929 . S
H2134 C2128 0.930 . S
H2135 C2131 0.930 . S
C2136 N2137 1.314 . S
C2136 C2138 1.353 . S
C2136 H2142 0.930 . S
N2137 Li2113 1.990 . S
N2137 C2136 1.314 . S
N2137 C2140 1.279 . S
C2138 C2136 1.353 . S
C2138 C2141 1.348 . S
C2138 H2186 0.929 . S
C2139 C2140 1.358 . S
C2139 C2141 1.356 . S
C2139 H2187 0.930 . S
C2140 N2137 1.279 . S
C2140 C2139 1.358 . S
C2140 H2143 0.930 . S
C2141 C2138 1.348 . S
C2141 C2139 1.356 . S
H2142 C2136 0.930 . S
H2143 C2140 0.930 . S
C2144 C2146 1.348 . S
C2144 C2147 1.356 . S
C2144 O2174 1.325 . S
N2145 C2148 1.314 . S
N2145 C2149 1.279 . S
C2146 C2144 1.348 . S
C2146 C2148 1.353 . S
C2146 H2188 0.929 . S
C2147 C2144 1.356 . S
C2147 C2149 1.358 . S
C2147 H2189 0.930 . S
C2148 N2145 1.314 . S
C2148 C2146 1.353 . S
C2148 H2190 0.930 . S
C2149 N2145 1.279 . S
C2149 C2147 1.358 . S
C2149 H2191 0.930 . S
C2150 C2151 1.348 . S
C2150 C2152 1.356 . S
C2150 O2175 1.325 . S
C2151 C2150 1.348 . S
C2151 C2153 1.353 . S
C2151 H2192 0.929 . S
C2152 C2150 1.356 . S
C2152 C2154 1.358 . S
C2152 H2193 0.930 . S
C2153 C2151 1.353 . S
C2153 N2155 1.314 . S
C2153 H2194 0.930 . S
C2154 C2152 1.358 . S
C2154 N2155 1.279 . S
C2154 H2195 0.930 . S
N2155 C2153 1.314 . S
N2155 C2154 1.279 . S
C2156 C2158 1.353 . S
C2156 N2159 1.314 . S
C2156 H2162 0.930 . S
C2157 N2159 1.279 . S
C2157 C2160 1.358 . S
C2157 H2163 0.930 . S
C2158 C2156 1.353 . S
C2158 C2161 1.348 . S
C2158 H2196 0.929 . S
N2159 Li2114 1.990 . S
N2159 C2156 1.314 . S
N2159 C2157 1.279 . S
C2160 C2157 1.358 . S
C2160 C2161 1.356 . S
C2160 H2197 0.930 . S
C2161 C2158 1.348 . S
C2161 C2160 1.356 . S
H2162 C2156 0.930 . S
H2163 C2157 0.930 . S
C2164 N2165 1.314 . S
C2164 C2166 1.353 . S
C2164 H2170 0.930 . S
N2165 Li2115 1.990 . S
N2165 C2164 1.314 . S
N2165 C2168 1.279 . S
C2166 C2164 1.353 . S
C2166 C2169 1.348 . S
C2166 H2198 0.929 . S
C2167 C2168 1.358 . S
C2167 C2169 1.356 . S
C2167 H2199 0.930 . S
C2168 N2165 1.279 . S
C2168 C2167 1.358 . S
C2168 H2171 0.930 . S
C2169 C2166 1.348 . S
C2169 C2167 1.356 . S
H2170 C2164 0.930 . S
H2171 C2168 0.930 . S
O2172 Li2112 1.956 . S
O2172 Li2113 1.970 . S
O2172 Li2114 1.961 . S
O2172 C2116 1.325 . S
O2173 Li2112 1.970 . S
O2173 Li2113 1.956 . S
O2173 Li2115 1.961 . S
O2173 C2122 1.325 . S
O2174 Li2112 1.961 . S
O2174 Li2114 1.956 . S
O2174 Li2115 1.970 . S
O2174 C2144 1.325 . S
O2175 Li2113 1.961 . S
O2175 Li2114 1.970 . S
O2175 Li2115 1.956 . S
O2175 C2150 1.325 . S
H2176 C2118 0.929 . S
H2177 C2119 0.930 . S
H2178 C2120 0.930 . S
H2179 C2121 0.930 . S
H2180 C2123 0.930 . S
H2181 C2125 0.929 . S
H2182 C2126 0.930 . S
H2183 C2127 0.930 . S
H2184 C2130 0.930 . S
H2185 C2133 0.929 . S
H2186 C2138 0.929 . S
H2187 C2139 0.930 . S
H2188 C2146 0.929 . S
H2189 C2147 0.930 . S
H2190 C2148 0.930 . S
H2191 C2149 0.930 . S
H2192 C2151 0.929 . S
H2193 C2152 0.930 . S
H2194 C2153 0.930 . S
H2195 C2154 0.930 . S
H2196 C2158 0.929 . S
H2197 C2160 0.930 . S
H2198 C2166 0.929 . S
H2199 C2167 0.930 . S
Li2200 N2217 1.990 . S
Li2200 O2260 1.956 . S
Li2200 O2261 1.970 . S
Li2200 O2262 1.961 . S
Li2201 N2225 1.990 . S
Li2201 O2260 1.970 . S
Li2201 O2261 1.956 . S
Li2201 O2263 1.961 . S
Li2202 N2247 1.990 . S
Li2202 O2260 1.961 . S
Li2202 O2262 1.956 . S
Li2202 O2263 1.970 . S
Li2203 N2253 1.990 . S
Li2203 O2261 1.961 . S
Li2203 O2262 1.970 . S
Li2203 O2263 1.956 . S
C2204 C2206 1.348 . S
C2204 C2207 1.356 . S
C2204 O2260 1.325 . S
N2205 C2208 1.314 . S
N2205 C2209 1.279 . S
C2206 C2204 1.348 . S
C2206 C2208 1.353 . S
C2206 H2264 0.929 . S
C2207 C2204 1.356 . S
C2207 C2209 1.358 . S
C2207 H2265 0.930 . S
C2208 N2205 1.314 . S
C2208 C2206 1.353 . S
C2208 H2266 0.930 . S
C2209 N2205 1.279 . S
C2209 C2207 1.358 . S
C2209 H2267 0.930 . S
C2210 C2213 1.348 . S
C2210 C2214 1.356 . S
C2210 O2261 1.325 . S
C2211 N2212 1.279 . S
C2211 C2214 1.358 . S
C2211 H2268 0.930 . S
N2212 C2211 1.279 . S
N2212 C2215 1.314 . S
C2213 C2210 1.348 . S
C2213 C2215 1.353 . S
C2213 H2269 0.929 . S
C2214 C2210 1.356 . S
C2214 C2211 1.358 . S
C2214 H2270 0.930 . S
C2215 N2212 1.314 . S
C2215 C2213 1.353 . S
C2215 H2271 0.930 . S
C2216 N2217 1.314 . S
C2216 C2221 1.353 . S
C2216 H2222 0.930 . S
N2217 Li2200 1.990 . S
N2217 C2216 1.314 . S
N2217 C2219 1.279 . S
C2218 C2219 1.358 . S
C2218 C2220 1.356 . S
C2218 H2272 0.930 . S
C2219 N2217 1.279 . S
C2219 C2218 1.358 . S
C2219 H2223 0.930 . S
C2220 C2218 1.356 . S
C2220 C2221 1.348 . S
C2221 C2216 1.353 . S
C2221 C2220 1.348 . S
C2221 H2273 0.929 . S
H2222 C2216 0.930 . S
H2223 C2219 0.930 . S
C2224 N2225 1.314 . S
C2224 C2226 1.353 . S
C2224 H2230 0.930 . S
N2225 Li2201 1.990 . S
N2225 C2224 1.314 . S
N2225 C2228 1.279 . S
C2226 C2224 1.353 . S
C2226 C2229 1.348 . S
C2226 H2274 0.929 . S
C2227 C2228 1.358 . S
C2227 C2229 1.356 . S
C2227 H2275 0.930 . S
C2228 N2225 1.279 . S
C2228 C2227 1.358 . S
C2228 H2231 0.930 . S
C2229 C2226 1.348 . S
C2229 C2227 1.356 . S
H2230 C2224 0.930 . S
H2231 C2228 0.930 . S
C2232 C2234 1.348 . S
C2232 C2235 1.356 . S
C2232 O2262 1.325 . S
N2233 C2236 1.314 . S
N2233 C2237 1.279 . S
C2234 C2232 1.348 . S
C2234 C2236 1.353 . S
C2234 H2276 0.929 . S
C2235 C2232 1.356 . S
C2235 C2237 1.358 . S
C2235 H2277 0.930 . S
C2236 N2233 1.314 . S
C2236 C2234 1.353 . S
C2236 H2278 0.930 . S
C2237 N2233 1.279 . S
C2237 C2235 1.358 . S
C2237 H2279 0.930 . S
C2238 C2239 1.348 . S
C2238 C2240 1.356 . S
C2238 O2263 1.325 . S
C2239 C2238 1.348 . S
C2239 C2241 1.353 . S
C2239 H2280 0.929 . S
C2240 C2238 1.356 . S
C2240 C2242 1.358 . S
C2240 H2281 0.930 . S
C2241 C2239 1.353 . S
C2241 N2243 1.314 . S
C2241 H2282 0.930 . S
C2242 C2240 1.358 . S
C2242 N2243 1.279 . S
C2242 H2283 0.930 . S
N2243 C2241 1.314 . S
N2243 C2242 1.279 . S
C2244 C2246 1.353 . S
C2244 N2247 1.314 . S
C2244 H2250 0.930 . S
C2245 N2247 1.279 . S
C2245 C2248 1.358 . S
C2245 H2251 0.930 . S
C2246 C2244 1.353 . S
C2246 C2249 1.348 . S
C2246 H2284 0.929 . S
N2247 Li2202 1.990 . S
N2247 C2244 1.314 . S
N2247 C2245 1.279 . S
C2248 C2245 1.358 . S
C2248 C2249 1.356 . S
C2248 H2285 0.930 . S
C2249 C2246 1.348 . S
C2249 C2248 1.356 . S
H2250 C2244 0.930 . S
H2251 C2245 0.930 . S
C2252 N2253 1.314 . S
C2252 C2254 1.353 . S
C2252 H2258 0.930 . S
N2253 Li2203 1.990 . S
N2253 C2252 1.314 . S
N2253 C2256 1.279 . S
C2254 C2252 1.353 . S
C2254 C2257 1.348 . S
C2254 H2286 0.929 . S
C2255 C2256 1.358 . S
C2255 C2257 1.356 . S
C2255 H2287 0.930 . S
C2256 N2253 1.279 . S
C2256 C2255 1.358 . S
C2256 H2259 0.930 . S
C2257 C2254 1.348 . S
C2257 C2255 1.356 . S
H2258 C2252 0.930 . S
H2259 C2256 0.930 . S
O2260 Li2200 1.956 . S
O2260 Li2201 1.970 . S
O2260 Li2202 1.961 . S
O2260 C2204 1.325 . S
O2261 Li2200 1.970 . S
O2261 Li2201 1.956 . S
O2261 Li2203 1.961 . S
O2261 C2210 1.325 . S
O2262 Li2200 1.961 . S
O2262 Li2202 1.956 . S
O2262 Li2203 1.970 . S
O2262 C2232 1.325 . S
O2263 Li2201 1.961 . S
O2263 Li2202 1.970 . S
O2263 Li2203 1.956 . S
O2263 C2238 1.325 . S
H2264 C2206 0.929 . S
H2265 C2207 0.930 . S
H2266 C2208 0.930 . S
H2267 C2209 0.930 . S
H2268 C2211 0.930 . S
H2269 C2213 0.929 . S
H2270 C2214 0.930 . S
H2271 C2215 0.930 . S
H2272 C2218 0.930 . S
H2273 C2221 0.929 . S
H2274 C2226 0.929 . S
H2275 C2227 0.930 . S
H2276 C2234 0.929 . S
H2277 C2235 0.930 . S
H2278 C2236 0.930 . S
H2279 C2237 0.930 . S
H2280 C2239 0.929 . S
H2281 C2240 0.930 . S
H2282 C2241 0.930 . S
H2283 C2242 0.930 . S
H2284 C2246 0.929 . S
H2285 C2248 0.930 . S
H2286 C2254 0.929 . S
H2287 C2255 0.930 . S
Li2288 N2305 1.990 . S
Li2288 O2348 1.944 1_556 S
Li2288 O2349 1.970 . S
Li2288 O2350 1.961 . S
Li2289 N2313 1.990 . S
Li2289 O2348 1.976 . S
Li2289 O2349 1.956 1_554 S
Li2289 O2351 1.961 1_554 S
Li2290 N2335 1.990 . S
Li2290 O2348 1.949 1_556 S
Li2290 O2350 1.956 . S
Li2290 O2351 1.970 . S
Li2291 N2341 1.990 . S
Li2291 O2349 1.961 . S
Li2291 O2350 1.970 . S
Li2291 O2351 1.956 . S
C2292 C2294 1.348 . S
C2292 C2295 1.356 . S
C2292 O2348 1.334 . S
N2293 C2296 1.314 . S
N2293 C2297 1.279 . S
C2294 C2292 1.348 . S
C2294 C2296 1.353 . S
C2294 H2352 0.929 . S
C2295 C2292 1.356 . S
C2295 C2297 1.358 . S
C2295 H2353 0.930 1_554 S
C2296 N2293 1.314 . S
C2296 C2294 1.353 . S
C2296 H2354 0.930 . S
C2297 N2293 1.279 . S
C2297 C2295 1.358 . S
C2297 H2355 0.930 . S
C2298 C2301 1.348 . S
C2298 C2302 1.360 . S
C2298 O2349 1.325 . S
C2299 N2300 1.279 . S
C2299 C2302 1.354 1_554 S
C2299 H2356 0.930 . S
N2300 C2299 1.279 . S
N2300 C2303 1.314 . S
C2301 C2298 1.348 . S
C2301 C2303 1.353 1_556 S
C2301 H2357 0.929 . S
C2302 C2298 1.360 . S
C2302 C2299 1.354 1_556 S
C2302 H2358 0.929 . S
C2303 N2300 1.314 . S
C2303 C2301 1.353 1_554 S
C2303 H2359 0.930 . S
C2304 N2305 1.314 . S
C2304 C2309 1.353 . S
C2304 H2310 0.930 . S
N2305 Li2288 1.990 . S
N2305 C2304 1.314 . S
N2305 C2307 1.279 . S
C2306 C2307 1.358 . S
C2306 C2308 1.356 . S
C2306 H2360 0.930 . S
C2307 N2305 1.279 . S
C2307 C2306 1.358 . S
C2307 H2311 0.930 . S
C2308 C2306 1.356 . S
C2308 C2309 1.348 . S
C2309 C2304 1.353 . S
C2309 C2308 1.348 . S
C2309 H2361 0.929 . S
H2310 C2304 0.930 . S
H2311 C2307 0.930 . S
C2312 N2313 1.314 . S
C2312 C2314 1.353 . S
C2312 H2318 0.930 . S
N2313 Li2289 1.990 . S
N2313 C2312 1.314 . S
N2313 C2316 1.279 . S
C2314 C2312 1.353 . S
C2314 C2317 1.348 . S
C2314 H2362 0.929 . S
C2315 C2316 1.358 . S
C2315 C2317 1.356 . S
C2315 H2363 0.930 . S
C2316 N2313 1.279 . S
C2316 C2315 1.358 . S
C2316 H2319 0.930 . S
C2317 C2314 1.348 . S
C2317 C2315 1.356 . S
H2318 C2312 0.930 . S
H2319 C2316 0.930 . S
C2320 C2322 1.348 . S
C2320 C2323 1.356 . S
C2320 O2350 1.325 . S
N2321 C2324 1.314 . S
N2321 C2325 1.279 . S
C2322 C2320 1.348 . S
C2322 C2324 1.353 . S
C2322 H2364 0.929 . S
C2323 C2320 1.356 . S
C2323 C2325 1.358 . S
C2323 H2365 0.930 . S
C2324 N2321 1.314 . S
C2324 C2322 1.353 . S
C2324 H2366 0.930 . S
C2325 N2321 1.279 . S
C2325 C2323 1.358 . S
C2325 H2367 0.930 . S
C2326 C2327 1.348 . S
C2326 C2328 1.356 1_556 S
C2326 O2351 1.325 . S
C2327 C2326 1.348 . S
C2327 C2329 1.353 . S
C2327 H2368 0.929 . S
C2328 C2326 1.356 1_554 S
C2328 C2330 1.358 . S
C2328 H2369 0.930 . S
C2329 C2327 1.353 . S
C2329 N2331 1.314 1_556 S
C2329 H2370 0.930 . S
C2330 C2328 1.358 . S
C2330 N2331 1.279 . S
C2330 H2371 0.930 . S
N2331 C2329 1.314 1_554 S
N2331 C2330 1.279 . S
C2332 C2334 1.353 . S
C2332 N2335 1.314 . S
C2332 H2338 0.926 1_556 S
C2333 N2335 1.279 . S
C2333 C2336 1.358 . S
C2333 H2339 0.930 . S
C2334 C2332 1.353 . S
C2334 C2337 1.348 . S
C2334 H2372 0.929 . S
N2335 Li2290 1.990 . S
N2335 C2332 1.314 . S
N2335 C2333 1.279 . S
C2336 C2333 1.358 . S
C2336 C2337 1.356 . S
C2336 H2373 0.930 . S
C2337 C2334 1.348 . S
C2337 C2336 1.356 . S
H2338 C2332 0.926 1_554 S
H2339 C2333 0.930 . S
C2340 N2341 1.314 . S
C2340 C2342 1.353 . S
C2340 H2346 0.930 . S
N2341 Li2291 1.990 . S
N2341 C2340 1.314 . S
N2341 C2344 1.279 . S
C2342 C2340 1.353 . S
C2342 C2345 1.348 . S
C2342 H2374 0.929 . S
C2343 C2344 1.358 . S
C2343 C2345 1.356 . S
C2343 H2375 0.930 . S
C2344 N2341 1.279 . S
C2344 C2343 1.358 . S
C2344 H2347 0.930 . S
C2345 C2342 1.348 . S
C2345 C2343 1.356 . S
H2346 C2340 0.930 . S
H2347 C2344 0.930 . S
O2348 Li2288 1.944 1_554 S
O2348 Li2289 1.976 . S
O2348 Li2290 1.949 1_554 S
O2348 C2292 1.334 . S
O2349 Li2288 1.970 . S
O2349 Li2289 1.956 1_556 S
O2349 Li2291 1.961 . S
O2349 C2298 1.325 . S
O2350 Li2288 1.961 . S
O2350 Li2290 1.956 . S
O2350 Li2291 1.970 . S
O2350 C2320 1.325 . S
O2351 Li2289 1.961 1_556 S
O2351 Li2290 1.970 . S
O2351 Li2291 1.956 . S
O2351 C2326 1.325 . S
H2352 C2294 0.929 . S
H2353 C2295 0.930 1_556 S
H2354 C2296 0.930 . S
H2355 C2297 0.930 . S
H2356 C2299 0.930 . S
H2357 C2301 0.929 . S
H2358 C2302 0.929 . S
H2359 C2303 0.930 . S
H2360 C2306 0.930 . S
H2361 C2309 0.929 . S
H2362 C2314 0.929 . S
H2363 C2315 0.930 . S
H2364 C2322 0.929 . S
H2365 C2323 0.930 . S
H2366 C2324 0.930 . S
H2367 C2325 0.930 . S
H2368 C2327 0.929 . S
H2369 C2328 0.930 . S
H2370 C2329 0.930 . S
H2371 C2330 0.930 . S
H2372 C2334 0.929 . S
H2373 C2336 0.930 . S
H2374 C2342 0.929 . S
H2375 C2343 0.930 . S
Li2376 N2393 1.990 . S
Li2376 O2436 1.956 1_554 S
Li2376 O2437 1.976 . S
Li2376 O2438 1.961 1_554 S
Li2377 N2401 1.990 . S
Li2377 O2436 1.970 . S
Li2377 O2437 1.944 1_556 S
Li2377 O2439 1.961 . S
Li2378 N2423 1.990 . S
Li2378 O2436 1.961 . S
Li2378 O2438 1.956 . S
Li2378 O2439 1.970 . S
Li2379 N2429 1.990 . S
Li2379 O2437 1.949 1_556 S
Li2379 O2438 1.970 . S
Li2379 O2439 1.956 . S
C2380 C2382 1.348 . S
C2380 C2383 1.360 . S
C2380 O2436 1.325 . S
N2381 C2384 1.314 . S
N2381 C2385 1.279 . S
C2382 C2380 1.348 . S
C2382 C2384 1.353 1_556 S
C2382 H2440 0.929 . S
C2383 C2380 1.360 . S
C2383 C2385 1.354 1_556 S
C2383 H2441 0.929 . S
C2384 N2381 1.314 . S
C2384 C2382 1.353 1_554 S
C2384 H2442 0.930 . S
C2385 N2381 1.279 . S
C2385 C2383 1.354 1_554 S
C2385 H2443 0.930 . S
C2386 C2389 1.348 . S
C2386 C2390 1.356 . S
C2386 O2437 1.334 . S
C2387 N2388 1.279 . S
C2387 C2390 1.358 . S
C2387 H2444 0.930 . S
N2388 C2387 1.279 . S
N2388 C2391 1.314 . S
C2389 C2386 1.348 . S
C2389 C2391 1.353 . S
C2389 H2445 0.929 . S
C2390 C2386 1.356 . S
C2390 C2387 1.358 . S
C2390 H2446 0.930 1_554 S
C2391 N2388 1.314 . S
C2391 C2389 1.353 . S
C2391 H2447 0.930 . S
C2392 N2393 1.314 . S
C2392 C2397 1.353 . S
C2392 H2398 0.930 . S
N2393 Li2376 1.990 . S
N2393 C2392 1.314 . S
N2393 C2395 1.279 . S
C2394 C2395 1.358 . S
C2394 C2396 1.356 . S
C2394 H2448 0.930 . S
C2395 N2393 1.279 . S
C2395 C2394 1.358 . S
C2395 H2399 0.930 . S
C2396 C2394 1.356 . S
C2396 C2397 1.348 . S
C2397 C2392 1.353 . S
C2397 C2396 1.348 . S
C2397 H2449 0.929 . S
H2398 C2392 0.930 . S
H2399 C2395 0.930 . S
C2400 N2401 1.314 . S
C2400 C2402 1.353 . S
C2400 H2406 0.930 . S
N2401 Li2377 1.990 . S
N2401 C2400 1.314 . S
N2401 C2404 1.279 . S
C2402 C2400 1.353 . S
C2402 C2405 1.348 . S
C2402 H2450 0.929 . S
C2403 C2404 1.358 . S
C2403 C2405 1.356 . S
C2403 H2451 0.930 . S
C2404 N2401 1.279 . S
C2404 C2403 1.358 . S
C2404 H2407 0.930 . S
C2405 C2402 1.348 . S
C2405 C2403 1.356 . S
H2406 C2400 0.930 . S
H2407 C2404 0.930 . S
C2408 C2410 1.348 . S
C2408 C2411 1.356 1_556 S
C2408 O2438 1.325 . S
N2409 C2412 1.314 1_554 S
N2409 C2413 1.279 . S
C2410 C2408 1.348 . S
C2410 C2412 1.353 . S
C2410 H2452 0.929 . S
C2411 C2408 1.356 1_554 S
C2411 C2413 1.358 . S
C2411 H2453 0.930 . S
C2412 N2409 1.314 1_556 S
C2412 C2410 1.353 . S
C2412 H2454 0.930 . S
C2413 N2409 1.279 . S
C2413 C2411 1.358 . S
C2413 H2455 0.930 . S
C2414 C2415 1.348 . S
C2414 C2416 1.356 . S
C2414 O2439 1.325 . S
C2415 C2414 1.348 . S
C2415 C2417 1.353 . S
C2415 H2456 0.929 . S
C2416 C2414 1.356 . S
C2416 C2418 1.358 . S
C2416 H2457 0.930 . S
C2417 C2415 1.353 . S
C2417 N2419 1.314 . S
C2417 H2458 0.930 . S
C2418 C2416 1.358 . S
C2418 N2419 1.279 . S
C2418 H2459 0.930 . S
N2419 C2417 1.314 . S
N2419 C2418 1.279 . S
C2420 C2422 1.353 . S
C2420 N2423 1.314 . S
C2420 H2426 0.930 . S
C2421 N2423 1.279 . S
C2421 C2424 1.358 . S
C2421 H2427 0.930 . S
C2422 C2420 1.353 . S
C2422 C2425 1.348 . S
C2422 H2460 0.929 . S
N2423 Li2378 1.990 . S
N2423 C2420 1.314 . S
N2423 C2421 1.279 . S
C2424 C2421 1.358 . S
C2424 C2425 1.356 . S
C2424 H2461 0.930 . S
C2425 C2422 1.348 . S
C2425 C2424 1.356 . S
H2426 C2420 0.930 . S
H2427 C2421 0.930 . S
C2428 N2429 1.314 . S
C2428 C2430 1.353 . S
C2428 H2434 0.926 1_556 S
N2429 Li2379 1.990 . S
N2429 C2428 1.314 . S
N2429 C2432 1.279 . S
C2430 C2428 1.353 . S
C2430 C2433 1.348 . S
C2430 H2462 0.929 . S
C2431 C2432 1.358 . S
C2431 C2433 1.356 . S
C2431 H2463 0.930 . S
C2432 N2429 1.279 . S
C2432 C2431 1.358 . S
C2432 H2435 0.930 . S
C2433 C2430 1.348 . S
C2433 C2431 1.356 . S
H2434 C2428 0.926 1_554 S
H2435 C2432 0.930 . S
O2436 Li2376 1.956 1_556 S
O2436 Li2377 1.970 . S
O2436 Li2378 1.961 . S
O2436 C2380 1.325 . S
O2437 Li2376 1.976 . S
O2437 Li2377 1.944 1_554 S
O2437 Li2379 1.949 1_554 S
O2437 C2386 1.334 . S
O2438 Li2376 1.961 1_556 S
O2438 Li2378 1.956 . S
O2438 Li2379 1.970 . S
O2438 C2408 1.325 . S
O2439 Li2377 1.961 . S
O2439 Li2378 1.970 . S
O2439 Li2379 1.956 . S
O2439 C2414 1.325 . S
H2440 C2382 0.929 . S
H2441 C2383 0.929 . S
H2442 C2384 0.930 . S
H2443 C2385 0.930 . S
H2444 C2387 0.930 . S
H2445 C2389 0.929 . S
H2446 C2390 0.930 1_556 S
H2447 C2391 0.930 . S
H2448 C2394 0.930 . S
H2449 C2397 0.929 . S
H2450 C2402 0.929 . S
H2451 C2403 0.930 . S
H2452 C2410 0.929 . S
H2453 C2411 0.930 . S
H2454 C2412 0.930 . S
H2455 C2413 0.930 . S
H2456 C2415 0.929 . S
H2457 C2416 0.930 . S
H2458 C2417 0.930 . S
H2459 C2418 0.930 . S
H2460 C2422 0.929 . S
H2461 C2424 0.930 . S
H2462 C2430 0.929 . S
H2463 C2431 0.930 . S
Li2464 N2481 1.990 . S
Li2464 O2524 1.956 . S
Li2464 O2525 1.970 . S
Li2464 O2526 1.961 . S
Li2465 N2489 1.990 . S
Li2465 O2524 1.970 . S
Li2465 O2525 1.956 . S
Li2465 O2527 1.961 . S
Li2466 N2511 1.990 . S
Li2466 O2524 1.961 . S
Li2466 O2526 1.956 . S
Li2466 O2527 1.970 . S
Li2467 N2517 1.990 . S
Li2467 O2525 1.961 . S
Li2467 O2526 1.970 . S
Li2467 O2527 1.956 . S
C2468 C2470 1.348 . S
C2468 C2471 1.356 . S
C2468 O2524 1.325 . S
N2469 C2472 1.314 . S
N2469 C2473 1.279 . S
C2470 C2468 1.348 . S
C2470 C2472 1.353 . S
C2470 H2528 0.929 . S
C2471 C2468 1.356 . S
C2471 C2473 1.358 . S
C2471 H2529 0.930 . S
C2472 N2469 1.314 . S
C2472 C2470 1.353 . S
C2472 H2530 0.930 . S
C2473 N2469 1.279 . S
C2473 C2471 1.358 . S
C2473 H2531 0.930 . S
C2474 C2477 1.348 . S
C2474 C2478 1.356 . S
C2474 O2525 1.325 . S
C2475 N2476 1.279 . S
C2475 C2478 1.358 . S
C2475 H2532 0.930 . S
N2476 C2475 1.279 . S
N2476 C2479 1.314 . S
C2477 C2474 1.348 . S
C2477 C2479 1.353 . S
C2477 H2533 0.929 . S
C2478 C2474 1.356 . S
C2478 C2475 1.358 . S
C2478 H2534 0.930 . S
C2479 N2476 1.314 . S
C2479 C2477 1.353 . S
C2479 H2535 0.930 . S
C2480 N2481 1.314 . S
C2480 C2485 1.353 . S
C2480 H2486 0.930 . S
N2481 Li2464 1.990 . S
N2481 C2480 1.314 . S
N2481 C2483 1.279 . S
C2482 C2483 1.358 . S
C2482 C2484 1.356 . S
C2482 H2536 0.930 . S
C2483 N2481 1.279 . S
C2483 C2482 1.358 . S
C2483 H2487 0.930 . S
C2484 C2482 1.356 . S
C2484 C2485 1.348 . S
C2485 C2480 1.353 . S
C2485 C2484 1.348 . S
C2485 H2537 0.929 . S
H2486 C2480 0.930 . S
H2487 C2483 0.930 . S
C2488 N2489 1.314 . S
C2488 C2490 1.353 . S
C2488 H2494 0.930 . S
N2489 Li2465 1.990 . S
N2489 C2488 1.314 . S
N2489 C2492 1.279 . S
C2490 C2488 1.353 . S
C2490 C2493 1.348 . S
C2490 H2538 0.929 . S
C2491 C2492 1.358 . S
C2491 C2493 1.356 . S
C2491 H2539 0.930 . S
C2492 N2489 1.279 . S
C2492 C2491 1.358 . S
C2492 H2495 0.930 . S
C2493 C2490 1.348 . S
C2493 C2491 1.356 . S
H2494 C2488 0.930 . S
H2495 C2492 0.930 . S
C2496 C2498 1.348 . S
C2496 C2499 1.356 . S
C2496 O2526 1.325 . S
N2497 C2500 1.314 . S
N2497 C2501 1.279 . S
C2498 C2496 1.348 . S
C2498 C2500 1.353 . S
C2498 H2540 0.929 . S
C2499 C2496 1.356 . S
C2499 C2501 1.358 . S
C2499 H2541 0.930 . S
C2500 N2497 1.314 . S
C2500 C2498 1.353 . S
C2500 H2542 0.930 . S
C2501 N2497 1.279 . S
C2501 C2499 1.358 . S
C2501 H2543 0.930 . S
C2502 C2503 1.348 . S
C2502 C2504 1.356 . S
C2502 O2527 1.325 . S
C2503 C2502 1.348 . S
C2503 C2505 1.353 . S
C2503 H2544 0.929 . S
C2504 C2502 1.356 . S
C2504 C2506 1.358 . S
C2504 H2545 0.930 . S
C2505 C2503 1.353 . S
C2505 N2507 1.314 . S
C2505 H2546 0.930 . S
C2506 C2504 1.358 . S
C2506 N2507 1.279 . S
C2506 H2547 0.930 . S
N2507 C2505 1.314 . S
N2507 C2506 1.279 . S
C2508 C2510 1.353 . S
C2508 N2511 1.314 . S
C2508 H2514 0.930 . S
C2509 N2511 1.279 . S
C2509 C2512 1.358 . S
C2509 H2515 0.930 . S
C2510 C2508 1.353 . S
C2510 C2513 1.348 . S
C2510 H2548 0.929 . S
N2511 Li2466 1.990 . S
N2511 C2508 1.314 . S
N2511 C2509 1.279 . S
C2512 C2509 1.358 . S
C2512 C2513 1.356 . S
C2512 H2549 0.930 . S
C2513 C2510 1.348 . S
C2513 C2512 1.356 . S
H2514 C2508 0.930 . S
H2515 C2509 0.930 . S
C2516 N2517 1.314 . S
C2516 C2518 1.353 . S
C2516 H2522 0.930 . S
N2517 Li2467 1.990 . S
N2517 C2516 1.314 . S
N2517 C2520 1.279 . S
C2518 C2516 1.353 . S
C2518 C2521 1.348 . S
C2518 H2550 0.929 . S
C2519 C2520 1.358 . S
C2519 C2521 1.356 . S
C2519 H2551 0.930 . S
C2520 N2517 1.279 . S
C2520 C2519 1.358 . S
C2520 H2523 0.930 . S
C2521 C2518 1.348 . S
C2521 C2519 1.356 . S
H2522 C2516 0.930 . S
H2523 C2520 0.930 . S
O2524 Li2464 1.956 . S
O2524 Li2465 1.970 . S
O2524 Li2466 1.961 . S
O2524 C2468 1.325 . S
O2525 Li2464 1.970 . S
O2525 Li2465 1.956 . S
O2525 Li2467 1.961 . S
O2525 C2474 1.325 . S
O2526 Li2464 1.961 . S
O2526 Li2466 1.956 . S
O2526 Li2467 1.970 . S
O2526 C2496 1.325 . S
O2527 Li2465 1.961 . S
O2527 Li2466 1.970 . S
O2527 Li2467 1.956 . S
O2527 C2502 1.325 . S
H2528 C2470 0.929 . S
H2529 C2471 0.930 . S
H2530 C2472 0.930 . S
H2531 C2473 0.930 . S
H2532 C2475 0.930 . S
H2533 C2477 0.929 . S
H2534 C2478 0.930 . S
H2535 C2479 0.930 . S
H2536 C2482 0.930 . S
H2537 C2485 0.929 . S
H2538 C2490 0.929 . S
H2539 C2491 0.930 . S
H2540 C2498 0.929 . S
H2541 C2499 0.930 . S
H2542 C2500 0.930 . S
H2543 C2501 0.930 . S
H2544 C2503 0.929 . S
H2545 C2504 0.930 . S
H2546 C2505 0.930 . S
H2547 C2506 0.930 . S
H2548 C2510 0.929 . S
H2549 C2512 0.930 . S
H2550 C2518 0.929 . S
H2551 C2519 0.930 . S
Li2552 N2569 1.990 . S
Li2552 O2612 1.956 . S
Li2552 O2613 1.970 . S
Li2552 O2614 1.961 . S
Li2553 N2577 1.990 . S
Li2553 O2612 1.970 . S
Li2553 O2613 1.956 . S
Li2553 O2615 1.961 . S
Li2554 N2599 1.990 . S
Li2554 O2612 1.961 . S
Li2554 O2614 1.956 . S
Li2554 O2615 1.970 . S
Li2555 N2605 1.990 . S
Li2555 O2613 1.961 . S
Li2555 O2614 1.970 . S
Li2555 O2615 1.956 . S
C2556 C2558 1.348 . S
C2556 C2559 1.356 . S
C2556 O2612 1.325 . S
N2557 C2560 1.314 . S
N2557 C2561 1.279 . S
C2558 C2556 1.348 . S
C2558 C2560 1.353 . S
C2558 H2616 0.929 . S
C2559 C2556 1.356 . S
C2559 C2561 1.358 . S
C2559 H2617 0.930 . S
C2560 N2557 1.314 . S
C2560 C2558 1.353 . S
C2560 H2618 0.930 . S
C2561 N2557 1.279 . S
C2561 C2559 1.358 . S
C2561 H2619 0.930 . S
C2562 C2565 1.348 . S
C2562 C2566 1.356 . S
C2562 O2613 1.325 . S
C2563 N2564 1.279 . S
C2563 C2566 1.358 . S
C2563 H2620 0.930 . S
N2564 C2563 1.279 . S
N2564 C2567 1.314 . S
C2565 C2562 1.348 . S
C2565 C2567 1.353 . S
C2565 H2621 0.929 . S
C2566 C2562 1.356 . S
C2566 C2563 1.358 . S
C2566 H2622 0.930 . S
C2567 N2564 1.314 . S
C2567 C2565 1.353 . S
C2567 H2623 0.930 . S
C2568 N2569 1.314 . S
C2568 C2573 1.353 . S
C2568 H2574 0.930 . S
N2569 Li2552 1.990 . S
N2569 C2568 1.314 . S
N2569 C2571 1.279 . S
C2570 C2571 1.358 . S
C2570 C2572 1.356 . S
C2570 H2624 0.930 . S
C2571 N2569 1.279 . S
C2571 C2570 1.358 . S
C2571 H2575 0.930 . S
C2572 C2570 1.356 . S
C2572 C2573 1.348 . S
C2573 C2568 1.353 . S
C2573 C2572 1.348 . S
C2573 H2625 0.929 . S
H2574 C2568 0.930 . S
H2575 C2571 0.930 . S
C2576 N2577 1.314 . S
C2576 C2578 1.353 . S
C2576 H2582 0.930 . S
N2577 Li2553 1.990 . S
N2577 C2576 1.314 . S
N2577 C2580 1.279 . S
C2578 C2576 1.353 . S
C2578 C2581 1.348 . S
C2578 H2626 0.929 . S
C2579 C2580 1.358 . S
C2579 C2581 1.356 . S
C2579 H2627 0.930 . S
C2580 N2577 1.279 . S
C2580 C2579 1.358 . S
C2580 H2583 0.930 . S
C2581 C2578 1.348 . S
C2581 C2579 1.356 . S
H2582 C2576 0.930 . S
H2583 C2580 0.930 . S
C2584 C2586 1.348 . S
C2584 C2587 1.356 . S
C2584 O2614 1.325 . S
N2585 C2588 1.314 . S
N2585 C2589 1.279 . S
C2586 C2584 1.348 . S
C2586 C2588 1.353 . S
C2586 H2628 0.929 . S
C2587 C2584 1.356 . S
C2587 C2589 1.358 . S
C2587 H2629 0.930 . S
C2588 N2585 1.314 . S
C2588 C2586 1.353 . S
C2588 H2630 0.930 . S
C2589 N2585 1.279 . S
C2589 C2587 1.358 . S
C2589 H2631 0.930 . S
C2590 C2591 1.348 . S
C2590 C2592 1.356 . S
C2590 O2615 1.325 . S
C2591 C2590 1.348 . S
C2591 C2593 1.353 . S
C2591 H2632 0.929 . S
C2592 C2590 1.356 . S
C2592 C2594 1.358 . S
C2592 H2633 0.930 . S
C2593 C2591 1.353 . S
C2593 N2595 1.314 . S
C2593 H2634 0.930 . S
C2594 C2592 1.358 . S
C2594 N2595 1.279 . S
C2594 H2635 0.930 . S
N2595 C2593 1.314 . S
N2595 C2594 1.279 . S
C2596 C2598 1.353 . S
C2596 N2599 1.314 . S
C2596 H2602 0.930 . S
C2597 N2599 1.279 . S
C2597 C2600 1.358 . S
C2597 H2603 0.930 . S
C2598 C2596 1.353 . S
C2598 C2601 1.348 . S
C2598 H2636 0.929 . S
N2599 Li2554 1.990 . S
N2599 C2596 1.314 . S
N2599 C2597 1.279 . S
C2600 C2597 1.358 . S
C2600 C2601 1.356 . S
C2600 H2637 0.930 . S
C2601 C2598 1.348 . S
C2601 C2600 1.356 . S
H2602 C2596 0.930 . S
H2603 C2597 0.930 . S
C2604 N2605 1.314 . S
C2604 C2606 1.353 . S
C2604 H2610 0.930 . S
N2605 Li2555 1.990 . S
N2605 C2604 1.314 . S
N2605 C2608 1.279 . S
C2606 C2604 1.353 . S
C2606 C2609 1.348 . S
C2606 H2638 0.929 . S
C2607 C2608 1.358 . S
C2607 C2609 1.356 . S
C2607 H2639 0.930 . S
C2608 N2605 1.279 . S
C2608 C2607 1.358 . S
C2608 H2611 0.930 . S
C2609 C2606 1.348 . S
C2609 C2607 1.356 . S
H2610 C2604 0.930 . S
H2611 C2608 0.930 . S
O2612 Li2552 1.956 . S
O2612 Li2553 1.970 . S
O2612 Li2554 1.961 . S
O2612 C2556 1.325 . S
O2613 Li2552 1.970 . S
O2613 Li2553 1.956 . S
O2613 Li2555 1.961 . S
O2613 C2562 1.325 . S
O2614 Li2552 1.961 . S
O2614 Li2554 1.956 . S
O2614 Li2555 1.970 . S
O2614 C2584 1.325 . S
O2615 Li2553 1.961 . S
O2615 Li2554 1.970 . S
O2615 Li2555 1.956 . S
O2615 C2590 1.325 . S
H2616 C2558 0.929 . S
H2617 C2559 0.930 . S
H2618 C2560 0.930 . S
H2619 C2561 0.930 . S
H2620 C2563 0.930 . S
H2621 C2565 0.929 . S
H2622 C2566 0.930 . S
H2623 C2567 0.930 . S
H2624 C2570 0.930 . S
H2625 C2573 0.929 . S
H2626 C2578 0.929 . S
H2627 C2579 0.930 . S
H2628 C2586 0.929 . S
H2629 C2587 0.930 . S
H2630 C2588 0.930 . S
H2631 C2589 0.930 . S
H2632 C2591 0.929 . S
H2633 C2592 0.930 . S
H2634 C2593 0.930 . S
H2635 C2594 0.930 . S
H2636 C2598 0.929 . S
H2637 C2600 0.930 . S
H2638 C2606 0.929 . S
H2639 C2607 0.930 . S
Li2640 N2657 1.990 . S
Li2640 O2700 1.956 . S
Li2640 O2701 1.970 . S
Li2640 O2702 1.963 1_554 S
Li2641 N2665 1.990 . S
Li2641 O2700 1.970 . S
Li2641 O2701 1.956 . S
Li2641 O2703 1.961 . S
Li2642 N2687 1.990 . S
Li2642 O2700 1.961 . S
Li2642 O2702 1.958 1_554 S
Li2642 O2703 1.970 . S
Li2643 N2693 1.990 . S
Li2643 O2701 1.961 1_556 S
Li2643 O2702 1.969 . S
Li2643 O2703 1.956 1_556 S
C2644 C2646 1.348 . S
C2644 C2647 1.356 . S
C2644 O2700 1.325 . S
N2645 C2648 1.314 . S
N2645 C2649 1.279 . S
C2646 C2644 1.348 . S
C2646 C2648 1.353 . S
C2646 H2704 0.929 . S
C2647 C2644 1.356 . S
C2647 C2649 1.358 . S
C2647 H2705 0.930 . S
C2648 N2645 1.314 . S
C2648 C2646 1.353 . S
C2648 H2706 0.930 . S
C2649 N2645 1.279 . S
C2649 C2647 1.358 . S
C2649 H2707 0.930 . S
C2650 C2653 1.348 . S
C2650 C2654 1.356 1_554 S
C2650 O2701 1.325 . S
C2651 N2652 1.279 . S
C2651 C2654 1.358 . S
C2651 H2708 0.930 . S
N2652 C2651 1.279 . S
N2652 C2655 1.314 1_556 S
C2653 C2650 1.348 . S
C2653 C2655 1.353 . S
C2653 H2709 0.929 . S
C2654 C2650 1.356 1_556 S
C2654 C2651 1.358 . S
C2654 H2710 0.930 . S
C2655 N2652 1.314 1_554 S
C2655 C2653 1.353 . S
C2655 H2711 0.930 . S
C2656 N2657 1.314 . S
C2656 C2661 1.353 . S
C2656 H2662 0.930 . S
N2657 Li2640 1.990 . S
N2657 C2656 1.314 . S
N2657 C2659 1.279 . S
C2658 C2659 1.358 . S
C2658 C2660 1.356 . S
C2658 H2712 0.930 . S
C2659 N2657 1.279 . S
C2659 C2658 1.358 . S
C2659 H2663 0.930 . S
C2660 C2658 1.356 . S
C2660 C2661 1.348 . S
C2661 C2656 1.353 . S
C2661 C2660 1.348 . S
C2661 H2713 0.929 . S
H2662 C2656 0.930 . S
H2663 C2659 0.930 . S
C2664 N2665 1.314 . S
C2664 C2666 1.353 . S
C2664 H2670 0.930 . S
N2665 Li2641 1.990 . S
N2665 C2664 1.314 . S
N2665 C2668 1.279 . S
C2666 C2664 1.353 . S
C2666 C2669 1.348 . S
C2666 H2714 0.929 . S
C2667 C2668 1.358 . S
C2667 C2669 1.356 . S
C2667 H2715 0.930 . S
C2668 N2665 1.279 . S
C2668 C2667 1.358 . S
C2668 H2671 0.930 . S
C2669 C2666 1.348 . S
C2669 C2667 1.356 . S
H2670 C2664 0.930 . S
H2671 C2668 0.930 . S
C2672 C2674 1.348 . S
C2672 C2675 1.356 . S
C2672 O2702 1.323 . S
N2673 C2676 1.314 . S
N2673 C2677 1.279 . S
C2674 C2672 1.348 . S
C2674 C2676 1.353 . S
C2674 H2716 0.929 . S
C2675 C2672 1.356 . S
C2675 C2677 1.358 . S
C2675 H2717 0.930 1_556 S
C2676 N2673 1.314 . S
C2676 C2674 1.353 . S
C2676 H2718 0.930 . S
C2677 N2673 1.279 . S
C2677 C2675 1.358 . S
C2677 H2719 0.930 . S
C2678 C2679 1.349 . S
C2678 C2680 1.347 1_554 S
C2678 O2703 1.325 . S
C2679 C2678 1.349 . S
C2679 C2681 1.350 1_554 S
C2679 H2720 0.931 . S
C2680 C2678 1.347 1_556 S
C2680 C2682 1.372 . S
C2680 H2721 0.929 . S
C2681 C2679 1.350 1_556 S
C2681 N2683 1.314 . S
C2681 H2722 0.930 . S
C2682 C2680 1.372 . S
C2682 N2683 1.279 . S
C2682 H2723 0.930 . S
N2683 C2681 1.314 . S
N2683 C2682 1.279 . S
C2684 C2686 1.353 . S
C2684 N2687 1.314 . S
C2684 H2690 0.930 . S
C2685 N2687 1.279 . S
C2685 C2688 1.358 . S
C2685 H2691 0.930 . S
C2686 C2684 1.353 . S
C2686 C2689 1.348 . S
C2686 H2724 0.929 . S
N2687 Li2642 1.990 . S
N2687 C2684 1.314 . S
N2687 C2685 1.279 . S
C2688 C2685 1.358 . S
C2688 C2689 1.356 . S
C2688 H2725 0.930 . S
C2689 C2686 1.348 . S
C2689 C2688 1.356 . S
H2690 C2684 0.930 . S
H2691 C2685 0.930 . S
C2692 N2693 1.314 . S
C2692 C2694 1.353 . S
C2692 H2698 0.930 . S
N2693 Li2643 1.990 . S
N2693 C2692 1.314 . S
N2693 C2696 1.279 . S
C2694 C2692 1.353 . S
C2694 C2697 1.348 . S
C2694 H2726 0.929 . S
C2695 C2696 1.358 . S
C2695 C2697 1.356 . S
C2695 H2727 0.930 . S
C2696 N2693 1.279 . S
C2696 C2695 1.358 . S
C2696 H2699 0.930 . S
C2697 C2694 1.348 . S
C2697 C2695 1.356 . S
H2698 C2692 0.930 . S
H2699 C2696 0.930 . S
O2700 Li2640 1.956 . S
O2700 Li2641 1.970 . S
O2700 Li2642 1.961 . S
O2700 C2644 1.325 . S
O2701 Li2640 1.970 . S
O2701 Li2641 1.956 . S
O2701 Li2643 1.961 1_554 S
O2701 C2650 1.325 . S
O2702 Li2640 1.963 1_556 S
O2702 Li2642 1.958 1_556 S
O2702 Li2643 1.969 . S
O2702 C2672 1.323 . S
O2703 Li2641 1.961 . S
O2703 Li2642 1.970 . S
O2703 Li2643 1.956 1_554 S
O2703 C2678 1.325 . S
H2704 C2646 0.929 . S
H2705 C2647 0.930 . S
H2706 C2648 0.930 . S
H2707 C2649 0.930 . S
H2708 C2651 0.930 . S
H2709 C2653 0.929 . S
H2710 C2654 0.930 . S
H2711 C2655 0.930 . S
H2712 C2658 0.930 . S
H2713 C2661 0.929 . S
H2714 C2666 0.929 . S
H2715 C2667 0.930 . S
H2716 C2674 0.929 . S
H2717 C2675 0.930 1_554 S
H2718 C2676 0.930 . S
H2719 C2677 0.930 . S
H2720 C2679 0.931 . S
H2721 C2680 0.929 . S
H2722 C2681 0.930 . S
H2723 C2682 0.930 . S
H2724 C2686 0.929 . S
H2725 C2688 0.930 . S
H2726 C2694 0.929 . S
H2727 C2695 0.930 . S
Li2728 N2745 1.990 . S
Li2728 O2788 1.956 . S
Li2728 O2789 1.970 . S
Li2728 O2790 1.963 1_554 S
Li2729 N2753 1.990 . S
Li2729 O2788 1.970 . S
Li2729 O2789 1.956 . S
Li2729 O2791 1.961 . S
Li2730 N2775 1.990 . S
Li2730 O2788 1.961 . S
Li2730 O2790 1.958 1_554 S
Li2730 O2791 1.970 . S
Li2731 N2781 1.990 . S
Li2731 O2789 1.961 1_556 S
Li2731 O2790 1.969 . S
Li2731 O2791 1.956 1_556 S
C2732 C2734 1.348 . S
C2732 C2735 1.356 . S
C2732 O2788 1.325 . S
N2733 C2736 1.314 . S
N2733 C2737 1.279 . S
C2734 C2732 1.348 . S
C2734 C2736 1.353 . S
C2734 H2792 0.929 . S
C2735 C2732 1.356 . S
C2735 C2737 1.358 . S
C2735 H2793 0.930 . S
C2736 N2733 1.314 . S
C2736 C2734 1.353 . S
C2736 H2794 0.930 . S
C2737 N2733 1.279 . S
C2737 C2735 1.358 . S
C2737 H2795 0.930 . S
C2738 C2741 1.348 . S
C2738 C2742 1.356 1_554 S
C2738 O2789 1.325 . S
C2739 N2740 1.279 . S
C2739 C2742 1.358 . S
C2739 H2796 0.930 . S
N2740 C2739 1.279 . S
N2740 C2743 1.314 1_556 S
C2741 C2738 1.348 . S
C2741 C2743 1.353 . S
C2741 H2797 0.929 . S
C2742 C2738 1.356 1_556 S
C2742 C2739 1.358 . S
C2742 H2798 0.930 . S
C2743 N2740 1.314 1_554 S
C2743 C2741 1.353 . S
C2743 H2799 0.930 . S
C2744 N2745 1.314 . S
C2744 C2749 1.353 . S
C2744 H2750 0.930 . S
N2745 Li2728 1.990 . S
N2745 C2744 1.314 . S
N2745 C2747 1.279 . S
C2746 C2747 1.358 . S
C2746 C2748 1.356 . S
C2746 H2800 0.930 . S
C2747 N2745 1.279 . S
C2747 C2746 1.358 . S
C2747 H2751 0.930 . S
C2748 C2746 1.356 . S
C2748 C2749 1.348 . S
C2749 C2744 1.353 . S
C2749 C2748 1.348 . S
C2749 H2801 0.929 . S
H2750 C2744 0.930 . S
H2751 C2747 0.930 . S
C2752 N2753 1.314 . S
C2752 C2754 1.353 . S
C2752 H2758 0.930 . S
N2753 Li2729 1.990 . S
N2753 C2752 1.314 . S
N2753 C2756 1.279 . S
C2754 C2752 1.353 . S
C2754 C2757 1.348 . S
C2754 H2802 0.929 . S
C2755 C2756 1.358 . S
C2755 C2757 1.356 . S
C2755 H2803 0.930 . S
C2756 N2753 1.279 . S
C2756 C2755 1.358 . S
C2756 H2759 0.930 . S
C2757 C2754 1.348 . S
C2757 C2755 1.356 . S
H2758 C2752 0.930 . S
H2759 C2756 0.930 . S
C2760 C2762 1.348 . S
C2760 C2763 1.356 . S
C2760 O2790 1.323 . S
N2761 C2764 1.314 . S
N2761 C2765 1.279 . S
C2762 C2760 1.348 . S
C2762 C2764 1.353 . S
C2762 H2804 0.929 . S
C2763 C2760 1.356 . S
C2763 C2765 1.358 . S
C2763 H2805 0.930 1_556 S
C2764 N2761 1.314 . S
C2764 C2762 1.353 . S
C2764 H2806 0.930 . S
C2765 N2761 1.279 . S
C2765 C2763 1.358 . S
C2765 H2807 0.930 . S
C2766 C2767 1.349 . S
C2766 C2768 1.347 1_554 S
C2766 O2791 1.325 . S
C2767 C2766 1.349 . S
C2767 C2769 1.350 1_554 S
C2767 H2808 0.931 . S
C2768 C2766 1.347 1_556 S
C2768 C2770 1.372 . S
C2768 H2809 0.929 . S
C2769 C2767 1.350 1_556 S
C2769 N2771 1.314 . S
C2769 H2810 0.930 . S
C2770 C2768 1.372 . S
C2770 N2771 1.279 . S
C2770 H2811 0.930 . S
N2771 C2769 1.314 . S
N2771 C2770 1.279 . S
C2772 C2774 1.353 . S
C2772 N2775 1.314 . S
C2772 H2778 0.930 . S
C2773 N2775 1.279 . S
C2773 C2776 1.358 . S
C2773 H2779 0.930 . S
C2774 C2772 1.353 . S
C2774 C2777 1.348 . S
C2774 H2812 0.929 . S
N2775 Li2730 1.990 . S
N2775 C2772 1.314 . S
N2775 C2773 1.279 . S
C2776 C2773 1.358 . S
C2776 C2777 1.356 . S
C2776 H2813 0.930 . S
C2777 C2774 1.348 . S
C2777 C2776 1.356 . S
H2778 C2772 0.930 . S
H2779 C2773 0.930 . S
C2780 N2781 1.314 . S
C2780 C2782 1.353 . S
C2780 H2786 0.930 . S
N2781 Li2731 1.990 . S
N2781 C2780 1.314 . S
N2781 C2784 1.279 . S
C2782 C2780 1.353 . S
C2782 C2785 1.348 . S
C2782 H2814 0.929 . S
C2783 C2784 1.358 . S
C2783 C2785 1.356 . S
C2783 H2815 0.930 . S
C2784 N2781 1.279 . S
C2784 C2783 1.358 . S
C2784 H2787 0.930 . S
C2785 C2782 1.348 . S
C2785 C2783 1.356 . S
H2786 C2780 0.930 . S
H2787 C2784 0.930 . S
O2788 Li2728 1.956 . S
O2788 Li2729 1.970 . S
O2788 Li2730 1.961 . S
O2788 C2732 1.325 . S
O2789 Li2728 1.970 . S
O2789 Li2729 1.956 . S
O2789 Li2731 1.961 1_554 S
O2789 C2738 1.325 . S
O2790 Li2728 1.963 1_556 S
O2790 Li2730 1.958 1_556 S
O2790 Li2731 1.969 . S
O2790 C2760 1.323 . S
O2791 Li2729 1.961 . S
O2791 Li2730 1.970 . S
O2791 Li2731 1.956 1_554 S
O2791 C2766 1.325 . S
H2792 C2734 0.929 . S
H2793 C2735 0.930 . S
H2794 C2736 0.930 . S
H2795 C2737 0.930 . S
H2796 C2739 0.930 . S
H2797 C2741 0.929 . S
H2798 C2742 0.930 . S
H2799 C2743 0.930 . S
H2800 C2746 0.930 . S
H2801 C2749 0.929 . S
H2802 C2754 0.929 . S
H2803 C2755 0.930 . S
H2804 C2762 0.929 . S
H2805 C2763 0.930 1_554 S
H2806 C2764 0.930 . S
H2807 C2765 0.930 . S
H2808 C2767 0.931 . S
H2809 C2768 0.929 . S
H2810 C2769 0.930 . S
H2811 C2770 0.930 . S
H2812 C2774 0.929 . S
H2813 C2776 0.930 . S
H2814 C2782 0.929 . S
H2815 C2783 0.930 . S
C2816 C2817 1.363 . S
C2816 C2822 1.379 . S
C2816 N2824 1.356 . S
C2817 C2816 1.363 . S
C2817 C2823 1.363 . S
C2818 C2819 1.363 . S
C2818 C2823 1.379 . S
C2818 N2825 1.356 . S
C2819 C2818 1.363 . S
C2819 C2822 1.363 . S
N2820 C2822 1.356 . S
N2820 H2832 0.984 . S
N2820 H2833 0.985 . S
N2821 C2823 1.356 . S
N2821 H2826 0.984 . S
N2821 H2827 0.985 . S
C2822 C2816 1.379 . S
C2822 C2819 1.363 . S
C2822 N2820 1.356 . S
C2823 C2817 1.363 . S
C2823 C2818 1.379 . S
C2823 N2821 1.356 . S
N2824 C2816 1.356 . S
N2824 H2830 0.984 . S
N2824 H2831 0.984 . S
N2825 C2818 1.356 . S
N2825 H2828 0.984 . S
N2825 H2829 0.985 . S
H2826 N2821 0.984 . S
H2827 N2821 0.985 . S
H2828 N2825 0.984 . S
H2829 N2825 0.985 . S
H2830 N2824 0.984 . S
H2831 N2824 0.984 . S
H2832 N2820 0.984 . S
H2833 N2820 0.985 . S
C2834 C2835 1.363 . S
C2834 C2840 1.379 . S
C2834 N2842 1.356 . S
C2835 C2834 1.363 . S
C2835 C2841 1.363 . S
C2836 C2837 1.363 . S
C2836 C2841 1.379 . S
C2836 N2843 1.356 . S
C2837 C2836 1.363 . S
C2837 C2840 1.363 . S
N2838 C2840 1.356 . S
N2838 H2850 0.984 . S
N2838 H2851 0.985 . S
N2839 C2841 1.356 . S
N2839 H2844 0.984 . S
N2839 H2845 0.985 . S
C2840 C2834 1.379 . S
C2840 C2837 1.363 . S
C2840 N2838 1.356 . S
C2841 C2835 1.363 . S
C2841 C2836 1.379 . S
C2841 N2839 1.356 . S
N2842 C2834 1.356 . S
N2842 H2848 0.984 . S
N2842 H2849 0.984 . S
N2843 C2836 1.356 . S
N2843 H2846 0.984 . S
N2843 H2847 0.985 . S
H2844 N2839 0.984 . S
H2845 N2839 0.985 . S
H2846 N2843 0.984 . S
H2847 N2843 0.985 . S
H2848 N2842 0.984 . S
H2849 N2842 0.984 . S
H2850 N2838 0.984 . S
H2851 N2838 0.985 . S
C2852 C2853 1.363 . S
C2852 C2858 1.379 . S
C2852 N2860 1.356 . S
C2853 C2852 1.363 . S
C2853 C2859 1.363 . S
C2854 C2855 1.363 . S
C2854 C2859 1.379 . S
C2854 N2861 1.356 . S
C2855 C2854 1.363 . S
C2855 C2858 1.363 . S
N2856 C2858 1.356 . S
N2856 H2868 0.984 . S
N2856 H2869 0.985 . S
N2857 C2859 1.356 . S
N2857 H2862 0.984 . S
N2857 H2863 0.985 . S
C2858 C2852 1.379 . S
C2858 C2855 1.363 . S
C2858 N2856 1.356 . S
C2859 C2853 1.363 . S
C2859 C2854 1.379 . S
C2859 N2857 1.356 . S
N2860 C2852 1.356 . S
N2860 H2866 0.984 . S
N2860 H2867 0.984 . S
N2861 C2854 1.356 . S
N2861 H2864 0.984 . S
N2861 H2865 0.985 . S
H2862 N2857 0.984 . S
H2863 N2857 0.985 . S
H2864 N2861 0.984 . S
H2865 N2861 0.985 . S
H2866 N2860 0.984 . S
H2867 N2860 0.984 . S
H2868 N2856 0.984 . S
H2869 N2856 0.985 . S
C2870 C2871 1.363 . S
C2870 C2876 1.379 . S
C2870 N2878 1.356 . S
C2871 C2870 1.363 . S
C2871 C2877 1.363 . S
C2872 C2873 1.363 . S
C2872 C2877 1.379 . S
C2872 N2879 1.356 . S
C2873 C2872 1.363 . S
C2873 C2876 1.363 . S
N2874 C2876 1.356 . S
N2874 H2886 0.984 . S
N2874 H2887 0.985 . S
N2875 C2877 1.356 . S
N2875 H2880 0.984 . S
N2875 H2881 0.985 . S
C2876 C2870 1.379 . S
C2876 C2873 1.363 . S
C2876 N2874 1.356 . S
C2877 C2871 1.363 . S
C2877 C2872 1.379 . S
C2877 N2875 1.356 . S
N2878 C2870 1.356 . S
N2878 H2884 0.984 . S
N2878 H2885 0.984 . S
N2879 C2872 1.356 . S
N2879 H2882 0.984 . S
N2879 H2883 0.985 . S
H2880 N2875 0.984 . S
H2881 N2875 0.985 . S
H2882 N2879 0.984 . S
H2883 N2879 0.985 . S
H2884 N2878 0.984 . S
H2885 N2878 0.984 . S
H2886 N2874 0.984 . S
H2887 N2874 0.985 . S
C2888 C2889 1.363 . S
C2888 C2894 1.379 . S
C2888 N2896 1.356 . S
C2889 C2888 1.363 . S
C2889 C2895 1.363 . S
C2890 C2891 1.363 . S
C2890 C2895 1.379 . S
C2890 N2897 1.356 . S
C2891 C2890 1.363 . S
C2891 C2894 1.363 . S
N2892 C2894 1.356 . S
N2892 H2904 0.984 . S
N2892 H2905 0.985 . S
N2893 C2895 1.356 . S
N2893 H2898 0.984 . S
N2893 H2899 0.985 . S
C2894 C2888 1.379 . S
C2894 C2891 1.363 . S
C2894 N2892 1.356 . S
C2895 C2889 1.363 . S
C2895 C2890 1.379 . S
C2895 N2893 1.356 . S
N2896 C2888 1.356 . S
N2896 H2902 0.984 . S
N2896 H2903 0.984 . S
N2897 C2890 1.356 . S
N2897 H2900 0.984 . S
N2897 H2901 0.985 . S
H2898 N2893 0.984 . S
H2899 N2893 0.985 . S
H2900 N2897 0.984 . S
H2901 N2897 0.985 . S
H2902 N2896 0.984 . S
H2903 N2896 0.984 . S
H2904 N2892 0.984 . S
H2905 N2892 0.985 . S
C2906 C2907 1.363 . S
C2906 C2912 1.379 . S
C2906 N2914 1.356 . S
C2907 C2906 1.363 . S
C2907 C2913 1.363 . S
C2908 C2909 1.363 . S
C2908 C2913 1.379 . S
C2908 N2915 1.356 . S
C2909 C2908 1.363 . S
C2909 C2912 1.363 . S
N2910 C2912 1.356 . S
N2910 H2922 0.984 . S
N2910 H2923 0.985 . S
N2911 C2913 1.356 . S
N2911 H2916 0.984 . S
N2911 H2917 0.985 . S
C2912 C2906 1.379 . S
C2912 C2909 1.363 . S
C2912 N2910 1.356 . S
C2913 C2907 1.363 . S
C2913 C2908 1.379 . S
C2913 N2911 1.356 . S
N2914 C2906 1.356 . S
N2914 H2920 0.984 . S
N2914 H2921 0.984 . S
N2915 C2908 1.356 . S
N2915 H2918 0.984 . S
N2915 H2919 0.985 . S
H2916 N2911 0.984 . S
H2917 N2911 0.985 . S
H2918 N2915 0.984 . S
H2919 N2915 0.985 . S
H2920 N2914 0.984 . S
H2921 N2914 0.984 . S
H2922 N2910 0.984 . S
H2923 N2910 0.985 . S
C2924 C2925 1.363 . S
C2924 C2930 1.379 . S
C2924 N2932 1.356 . S
C2925 C2924 1.363 . S
C2925 C2931 1.363 . S
C2926 C2927 1.363 . S
C2926 C2931 1.379 . S
C2926 N2933 1.356 . S
C2927 C2926 1.363 . S
C2927 C2930 1.363 . S
N2928 C2930 1.356 . S
N2928 H2940 0.984 . S
N2928 H2941 0.985 . S
N2929 C2931 1.356 . S
N2929 H2934 0.984 . S
N2929 H2935 0.985 . S
C2930 C2924 1.379 . S
C2930 C2927 1.363 . S
C2930 N2928 1.356 . S
C2931 C2925 1.363 . S
C2931 C2926 1.379 . S
C2931 N2929 1.356 . S
N2932 C2924 1.356 . S
N2932 H2938 0.984 . S
N2932 H2939 0.984 . S
N2933 C2926 1.356 . S
N2933 H2936 0.984 . S
N2933 H2937 0.985 . S
H2934 N2929 0.984 . S
H2935 N2929 0.985 . S
H2936 N2933 0.984 . S
H2937 N2933 0.985 . S
H2938 N2932 0.984 . S
H2939 N2932 0.984 . S
H2940 N2928 0.984 . S
H2941 N2928 0.985 . S
C2942 C2943 1.363 . S
C2942 C2948 1.379 . S
C2942 N2950 1.356 . S
C2943 C2942 1.363 . S
C2943 C2949 1.363 . S
C2944 C2945 1.363 . S
C2944 C2949 1.379 . S
C2944 N2951 1.356 . S
C2945 C2944 1.363 . S
C2945 C2948 1.363 . S
N2946 C2948 1.356 . S
N2946 H2958 0.984 . S
N2946 H2959 0.985 . S
N2947 C2949 1.356 . S
N2947 H2952 0.984 . S
N2947 H2953 0.985 . S
C2948 C2942 1.379 . S
C2948 C2945 1.363 . S
C2948 N2946 1.356 . S
C2949 C2943 1.363 . S
C2949 C2944 1.379 . S
C2949 N2947 1.356 . S
N2950 C2942 1.356 . S
N2950 H2956 0.984 . S
N2950 H2957 0.984 . S
N2951 C2944 1.356 . S
N2951 H2954 0.984 . S
N2951 H2955 0.985 . S
H2952 N2947 0.984 . S
H2953 N2947 0.985 . S
H2954 N2951 0.984 . S
H2955 N2951 0.985 . S
H2956 N2950 0.984 . S
H2957 N2950 0.984 . S
H2958 N2946 0.984 . S
H2959 N2946 0.985 . S
C2960 C2961 1.363 . S
C2960 C2966 1.379 . S
C2960 N2968 1.356 . S
C2961 C2960 1.363 . S
C2961 C2967 1.363 . S
C2962 C2963 1.363 . S
C2962 C2967 1.379 . S
C2962 N2969 1.356 . S
C2963 C2962 1.363 . S
C2963 C2966 1.363 . S
N2964 C2966 1.356 . S
N2964 H2976 0.984 . S
N2964 H2977 0.985 . S
N2965 C2967 1.356 . S
N2965 H2970 0.984 . S
N2965 H2971 0.985 . S
C2966 C2960 1.379 . S
C2966 C2963 1.363 . S
C2966 N2964 1.356 . S
C2967 C2961 1.363 . S
C2967 C2962 1.379 . S
C2967 N2965 1.356 . S
N2968 C2960 1.356 . S
N2968 H2974 0.984 . S
N2968 H2975 0.984 . S
N2969 C2962 1.356 . S
N2969 H2972 0.984 . S
N2969 H2973 0.985 . S
H2970 N2965 0.984 . S
H2971 N2965 0.985 . S
H2972 N2969 0.984 . S
H2973 N2969 0.985 . S
H2974 N2968 0.984 . S
H2975 N2968 0.984 . S
H2976 N2964 0.984 . S
H2977 N2964 0.985 . S
C2978 C2979 1.363 . S
C2978 C2984 1.379 . S
C2978 N2986 1.356 . S
C2979 C2978 1.363 . S
C2979 C2985 1.363 . S
C2980 C2981 1.363 . S
C2980 C2985 1.379 . S
C2980 N2987 1.356 . S
C2981 C2980 1.363 . S
C2981 C2984 1.363 . S
N2982 C2984 1.356 . S
N2982 H2994 0.984 . S
N2982 H2995 0.985 . S
N2983 C2985 1.356 . S
N2983 H2988 0.984 . S
N2983 H2989 0.985 . S
C2984 C2978 1.379 . S
C2984 C2981 1.363 . S
C2984 N2982 1.356 . S
C2985 C2979 1.363 . S
C2985 C2980 1.379 . S
C2985 N2983 1.356 . S
N2986 C2978 1.356 . S
N2986 H2992 0.984 . S
N2986 H2993 0.984 . S
N2987 C2980 1.356 . S
N2987 H2990 0.984 . S
N2987 H2991 0.985 . S
H2988 N2983 0.984 . S
H2989 N2983 0.985 . S
H2990 N2987 0.984 . S
H2991 N2987 0.985 . S
H2992 N2986 0.984 . S
H2993 N2986 0.984 . S
H2994 N2982 0.984 . S
H2995 N2982 0.985 . S
C2996 C2997 1.363 . S
C2996 C3002 1.379 . S
C2996 N3004 1.356 . S
C2997 C2996 1.363 . S
C2997 C3003 1.363 . S
C2998 C2999 1.363 . S
C2998 C3003 1.379 . S
C2998 N3005 1.356 . S
C2999 C2998 1.363 . S
C2999 C3002 1.363 . S
N3000 C3002 1.356 . S
N3000 H3012 0.984 . S
N3000 H3013 0.985 . S
N3001 C3003 1.356 . S
N3001 H3006 0.984 . S
N3001 H3007 0.985 . S
C3002 C2996 1.379 . S
C3002 C2999 1.363 . S
C3002 N3000 1.356 . S
C3003 C2997 1.363 . S
C3003 C2998 1.379 . S
C3003 N3001 1.356 . S
N3004 C2996 1.356 . S
N3004 H3010 0.984 . S
N3004 H3011 0.984 . S
N3005 C2998 1.356 . S
N3005 H3008 0.984 . S
N3005 H3009 0.985 . S
H3006 N3001 0.984 . S
H3007 N3001 0.985 . S
H3008 N3005 0.984 . S
H3009 N3005 0.985 . S
H3010 N3004 0.984 . S
H3011 N3004 0.984 . S
H3012 N3000 0.984 . S
H3013 N3000 0.985 . S
C3014 C3015 1.363 . S
C3014 C3020 1.379 . S
C3014 N3022 1.356 . S
C3015 C3014 1.363 . S
C3015 C3021 1.363 . S
C3016 C3017 1.363 . S
C3016 C3021 1.379 . S
C3016 N3023 1.356 . S
C3017 C3016 1.363 . S
C3017 C3020 1.363 . S
N3018 C3020 1.356 . S
N3018 H3030 0.984 . S
N3018 H3031 0.985 . S
N3019 C3021 1.356 . S
N3019 H3024 0.984 . S
N3019 H3025 0.985 . S
C3020 C3014 1.379 . S
C3020 C3017 1.363 . S
C3020 N3018 1.356 . S
C3021 C3015 1.363 . S
C3021 C3016 1.379 . S
C3021 N3019 1.356 . S
N3022 C3014 1.356 . S
N3022 H3028 0.984 . S
N3022 H3029 0.984 . S
N3023 C3016 1.356 . S
N3023 H3026 0.984 . S
N3023 H3027 0.985 . S
H3024 N3019 0.984 . S
H3025 N3019 0.985 . S
H3026 N3023 0.984 . S
H3027 N3023 0.985 . S
H3028 N3022 0.984 . S
H3029 N3022 0.984 . S
H3030 N3018 0.984 . S
H3031 N3018 0.985 . S
C3032 C3033 1.363 . S
C3032 C3038 1.379 . S
C3032 N3040 1.356 . S
C3033 C3032 1.363 . S
C3033 C3039 1.363 . S
C3034 C3035 1.363 . S
C3034 C3039 1.379 . S
C3034 N3041 1.356 . S
C3035 C3034 1.363 . S
C3035 C3038 1.363 . S
N3036 C3038 1.356 . S
N3036 H3048 0.984 . S
N3036 H3049 0.985 . S
N3037 C3039 1.356 . S
N3037 H3042 0.984 . S
N3037 H3043 0.985 . S
C3038 C3032 1.379 . S
C3038 C3035 1.363 . S
C3038 N3036 1.356 . S
C3039 C3033 1.363 . S
C3039 C3034 1.379 . S
C3039 N3037 1.356 . S
N3040 C3032 1.356 . S
N3040 H3046 0.984 . S
N3040 H3047 0.984 . S
N3041 C3034 1.356 . S
N3041 H3044 0.984 . S
N3041 H3045 0.985 . S
H3042 N3037 0.984 . S
H3043 N3037 0.985 . S
H3044 N3041 0.984 . S
H3045 N3041 0.985 . S
H3046 N3040 0.984 . S
H3047 N3040 0.984 . S
H3048 N3036 0.984 . S
H3049 N3036 0.985 . S
C3050 C3051 1.363 . S
C3050 C3056 1.379 . S
C3050 N3058 1.356 . S
C3051 C3050 1.363 . S
C3051 C3057 1.363 . S
C3052 C3053 1.363 . S
C3052 C3057 1.379 . S
C3052 N3059 1.356 . S
C3053 C3052 1.363 . S
C3053 C3056 1.363 . S
N3054 C3056 1.356 . S
N3054 H3066 0.984 . S
N3054 H3067 0.985 . S
N3055 C3057 1.356 . S
N3055 H3060 0.984 . S
N3055 H3061 0.985 . S
C3056 C3050 1.379 . S
C3056 C3053 1.363 . S
C3056 N3054 1.356 . S
C3057 C3051 1.363 . S
C3057 C3052 1.379 . S
C3057 N3055 1.356 . S
N3058 C3050 1.356 . S
N3058 H3064 0.984 . S
N3058 H3065 0.984 . S
N3059 C3052 1.356 . S
N3059 H3062 0.984 . S
N3059 H3063 0.985 . S
H3060 N3055 0.984 . S
H3061 N3055 0.985 . S
H3062 N3059 0.984 . S
H3063 N3059 0.985 . S
H3064 N3058 0.984 . S
H3065 N3058 0.984 . S
H3066 N3054 0.984 . S
H3067 N3054 0.985 . S
C3068 C3069 1.363 . S
C3068 C3074 1.379 . S
C3068 N3076 1.356 . S
C3069 C3068 1.363 . S
C3069 C3075 1.363 . S
C3070 C3071 1.363 . S
C3070 C3075 1.379 . S
C3070 N3077 1.356 . S
C3071 C3070 1.363 . S
C3071 C3074 1.363 . S
N3072 C3074 1.356 . S
N3072 H3084 0.984 . S
N3072 H3085 0.985 . S
N3073 C3075 1.356 . S
N3073 H3078 0.984 . S
N3073 H3079 0.985 . S
C3074 C3068 1.379 . S
C3074 C3071 1.363 . S
C3074 N3072 1.356 . S
C3075 C3069 1.363 . S
C3075 C3070 1.379 . S
C3075 N3073 1.356 . S
N3076 C3068 1.356 . S
N3076 H3082 0.984 . S
N3076 H3083 0.984 . S
N3077 C3070 1.356 . S
N3077 H3080 0.984 . S
N3077 H3081 0.985 . S
H3078 N3073 0.984 . S
H3079 N3073 0.985 . S
H3080 N3077 0.984 . S
H3081 N3077 0.985 . S
H3082 N3076 0.984 . S
H3083 N3076 0.984 . S
H3084 N3072 0.984 . S
H3085 N3072 0.985 . S
C3086 C3087 1.363 . S
C3086 C3092 1.379 . S
C3086 N3094 1.356 . S
C3087 C3086 1.363 . S
C3087 C3093 1.363 . S
C3088 C3089 1.363 . S
C3088 C3093 1.379 . S
C3088 N3095 1.356 . S
C3089 C3088 1.363 . S
C3089 C3092 1.363 . S
N3090 C3092 1.356 . S
N3090 H3102 0.984 . S
N3090 H3103 0.985 . S
N3091 C3093 1.356 . S
N3091 H3096 0.984 . S
N3091 H3097 0.985 . S
C3092 C3086 1.379 . S
C3092 C3089 1.363 . S
C3092 N3090 1.356 . S
C3093 C3087 1.363 . S
C3093 C3088 1.379 . S
C3093 N3091 1.356 . S
N3094 C3086 1.356 . S
N3094 H3100 0.984 . S
N3094 H3101 0.984 . S
N3095 C3088 1.356 . S
N3095 H3098 0.984 . S
N3095 H3099 0.985 . S
H3096 N3091 0.984 . S
H3097 N3091 0.985 . S
H3098 N3095 0.984 . S
H3099 N3095 0.985 . S
H3100 N3094 0.984 . S
H3101 N3094 0.984 . S
H3102 N3090 0.984 . S
H3103 N3090 0.985 . S
C3104 C3105 1.363 . S
C3104 C3110 1.379 . S
C3104 N3112 1.356 . S
C3105 C3104 1.363 . S
C3105 C3111 1.363 1_565 S
C3106 C3107 1.363 . S
C3106 C3111 1.379 . S
C3106 N3113 1.356 . S
C3107 C3106 1.363 . S
C3107 C3110 1.363 1_545 S
N3108 C3110 1.356 . S
N3108 H3120 0.982 . S
N3108 H3121 0.988 1_565 S
N3109 C3111 1.355 . S
N3109 H3114 0.991 1_545 S
N3109 H3115 0.979 . S
C3110 C3104 1.379 . S
C3110 C3107 1.363 1_565 S
C3110 N3108 1.356 . S
C3111 C3105 1.363 1_545 S
C3111 C3106 1.379 . S
C3111 N3109 1.355 . S
N3112 C3104 1.356 . S
N3112 H3118 0.984 . S
N3112 H3119 0.984 . S
N3113 C3106 1.356 . S
N3113 H3116 0.984 . S
N3113 H3117 0.985 . S
H3114 N3109 0.991 1_565 S
H3115 N3109 0.979 . S
H3116 N3113 0.984 . S
H3117 N3113 0.985 . S
H3118 N3112 0.984 . S
H3119 N3112 0.984 . S
H3120 N3108 0.982 . S
H3121 N3108 0.988 1_545 S
C3122 C3123 1.367 . S
C3122 C3128 1.379 . S
C3122 N3130 1.356 . S
C3123 C3122 1.367 . S
C3123 C3129 1.359 1_455 S
C3124 C3125 1.361 1_655 S
C3124 C3129 1.379 . S
C3124 N3131 1.356 . S
C3125 C3124 1.361 1_455 S
C3125 C3128 1.365 . S
N3126 C3128 1.356 . S
N3126 H3138 0.984 . S
N3126 H3139 0.985 . S
N3127 C3129 1.356 . S
N3127 H3132 0.984 . S
N3127 H3133 0.985 . S
C3128 C3122 1.379 . S
C3128 C3125 1.365 . S
C3128 N3126 1.356 . S
C3129 C3123 1.359 1_655 S
C3129 C3124 1.379 . S
C3129 N3127 1.356 . S
N3130 C3122 1.356 . S
N3130 H3136 0.984 . S
N3130 H3137 0.984 . S
N3131 C3124 1.356 . S
N3131 H3134 0.984 . S
N3131 H3135 0.985 . S
H3132 N3127 0.984 . S
H3133 N3127 0.985 . S
H3134 N3131 0.984 . S
H3135 N3131 0.985 . S
H3136 N3130 0.984 . S
H3137 N3130 0.984 . S
H3138 N3126 0.984 . S
H3139 N3126 0.985 . S
C3140 C3141 1.363 . S
C3140 C3146 1.399 . S
C3140 N3148 1.356 . S
C3141 C3140 1.363 . S
C3141 C3147 1.335 1_556 S
C3142 C3143 1.363 . S
C3142 C3147 1.405 . S
C3142 N3149 1.356 . S
C3143 C3142 1.363 . S
C3143 C3146 1.341 1_554 S
N3144 C3146 1.350 1_554 S
N3144 H3156 0.984 1_554 S
N3144 H3157 0.985 . S
N3145 C3147 1.348 1_556 S
N3145 H3150 0.984 . S
N3145 H3151 0.985 1_556 S
C3146 C3140 1.399 . S
C3146 C3143 1.341 1_556 S
C3146 N3144 1.350 1_556 S
C3147 C3141 1.335 1_554 S
C3147 C3142 1.405 . S
C3147 N3145 1.348 1_554 S
N3148 C3140 1.356 . S
N3148 H3154 0.984 . S
N3148 H3155 0.984 . S
N3149 C3142 1.356 . S
N3149 H3152 0.984 . S
N3149 H3153 0.985 . S
H3150 N3145 0.984 . S
H3151 N3145 0.985 1_554 S
H3152 N3149 0.984 . S
H3153 N3149 0.985 . S
H3154 N3148 0.984 . S
H3155 N3148 0.984 . S
H3156 N3144 0.984 1_556 S
H3157 N3144 0.985 . S
C3158 C3159 1.361 1_665 S
C3158 C3164 1.376 . S
C3158 N3166 1.356 . S
C3159 C3158 1.361 1_445 S
C3159 C3165 1.362 1_556 S
C3160 C3161 1.367 1_545 S
C3160 C3165 1.382 . S
C3160 N3167 1.356 . S
C3161 C3160 1.367 1_565 S
C3161 C3164 1.363 1_454 S
N3162 C3164 1.357 1_554 S
N3162 H3174 0.984 1_554 S
N3162 H3175 0.985 . S
N3163 C3165 1.355 1_556 S
N3163 H3168 0.984 . S
N3163 H3169 0.985 1_556 S
C3164 C3158 1.376 . S
C3164 C3161 1.363 1_656 S
C3164 N3162 1.357 1_556 S
C3165 C3159 1.362 1_554 S
C3165 C3160 1.382 . S
C3165 N3163 1.355 1_554 S
N3166 C3158 1.356 . S
N3166 H3172 0.984 . S
N3166 H3173 0.984 1_565 S
N3167 C3160 1.356 . S
N3167 H3170 0.984 1_545 S
N3167 H3171 0.985 . S
H3168 N3163 0.984 . S
H3169 N3163 0.985 1_554 S
H3170 N3167 0.984 1_565 S
H3171 N3167 0.985 . S
H3172 N3166 0.984 . S
H3173 N3166 0.984 1_545 S
H3174 N3162 0.984 1_556 S
H3175 N3162 0.985 . S
C3176 C3177 1.363 . S
C3176 C3182 1.379 . S
C3176 N3184 1.356 . S
C3177 C3176 1.363 . S
C3177 C3183 1.363 1_545 S
C3178 C3179 1.363 . S
C3178 C3183 1.379 . S
C3178 N3185 1.356 . S
C3179 C3178 1.363 . S
C3179 C3182 1.363 1_565 S
N3180 C3182 1.356 . S
N3180 H3192 0.984 . S
N3180 H3193 0.985 1_545 S
N3181 C3183 1.356 . S
N3181 H3186 0.984 1_565 S
N3181 H3187 0.985 . S
C3182 C3176 1.379 . S
C3182 C3179 1.363 1_545 S
C3182 N3180 1.356 . S
C3183 C3177 1.363 1_565 S
C3183 C3178 1.379 . S
C3183 N3181 1.356 . S
N3184 C3176 1.356 . S
N3184 H3190 0.984 . S
N3184 H3191 0.984 . S
N3185 C3178 1.356 . S
N3185 H3188 0.984 . S
N3185 H3189 0.985 . S
H3186 N3181 0.984 1_545 S
H3187 N3181 0.985 . S
H3188 N3185 0.984 . S
H3189 N3185 0.985 . S
H3190 N3184 0.984 . S
H3191 N3184 0.984 . S
H3192 N3180 0.984 . S
H3193 N3180 0.985 1_565 S
C3194 C3195 1.360 1_655 S
C3194 C3200 1.379 . S
C3194 N3202 1.356 . S
C3195 C3194 1.360 1_455 S
C3195 C3201 1.366 . S
C3196 C3197 1.368 . S
C3196 C3201 1.379 . S
C3196 N3203 1.356 . S
C3197 C3196 1.368 . S
C3197 C3200 1.358 1_455 S
N3198 C3200 1.356 . S
N3198 H3210 0.984 . S
N3198 H3211 0.985 . S
N3199 C3201 1.356 . S
N3199 H3204 0.984 . S
N3199 H3205 0.985 . S
C3200 C3194 1.379 . S
C3200 C3197 1.358 1_655 S
C3200 N3198 1.356 . S
C3201 C3195 1.366 . S
C3201 C3196 1.379 . S
C3201 N3199 1.356 . S
N3202 C3194 1.356 . S
N3202 H3208 0.984 . S
N3202 H3209 0.984 . S
N3203 C3196 1.356 . S
N3203 H3206 0.984 . S
N3203 H3207 0.985 . S
H3204 N3199 0.984 . S
H3205 N3199 0.985 . S
H3206 N3203 0.984 . S
H3207 N3203 0.985 . S
H3208 N3202 0.984 . S
H3209 N3202 0.984 . S
H3210 N3198 0.984 . S
H3211 N3198 0.985 . S
C3212 C3213 1.363 1_554 S
C3212 C3218 1.379 . S
C3212 N3220 1.356 1_554 S
C3213 C3212 1.363 1_556 S
C3213 C3219 1.363 . S
C3214 C3215 1.323 1_556 S
C3214 C3219 1.416 . S
C3214 N3221 1.346 1_556 S
C3215 C3214 1.323 1_554 S
C3215 C3218 1.363 . S
N3216 C3218 1.356 . S
N3216 H3228 0.984 . S
N3216 H3229 0.985 . S
N3217 C3219 1.356 . S
N3217 H3222 0.984 . S
N3217 H3223 0.985 . S
C3218 C3212 1.379 . S
C3218 C3215 1.363 . S
C3218 N3216 1.356 . S
C3219 C3213 1.363 . S
C3219 C3214 1.416 . S
C3219 N3217 1.356 . S
N3220 C3212 1.356 1_556 S
N3220 H3226 0.984 1_556 S
N3220 H3227 0.984 . S
N3221 C3214 1.346 1_554 S
N3221 H3224 0.984 . S
N3221 H3225 0.985 1_554 S
H3222 N3217 0.984 . S
H3223 N3217 0.985 . S
H3224 N3221 0.984 . S
H3225 N3221 0.985 1_556 S
H3226 N3220 0.984 1_554 S
H3227 N3220 0.984 . S
H3228 N3216 0.984 . S
H3229 N3216 0.985 . S
C3230 C3231 1.363 . S
C3230 C3236 1.379 . S
C3230 N3238 1.356 . S
C3231 C3230 1.363 . S
C3231 C3237 1.363 . S
C3232 C3233 1.363 . S
C3232 C3237 1.379 . S
C3232 N3239 1.356 . S
C3233 C3232 1.363 . S
C3233 C3236 1.363 . S
N3234 C3236 1.356 . S
N3234 H3246 0.984 . S
N3234 H3247 0.985 . S
N3235 C3237 1.356 . S
N3235 H3240 0.984 . S
N3235 H3241 0.985 . S
C3236 C3230 1.379 . S
C3236 C3233 1.363 . S
C3236 N3234 1.356 . S
C3237 C3231 1.363 . S
C3237 C3232 1.379 . S
C3237 N3235 1.356 . S
N3238 C3230 1.356 . S
N3238 H3244 0.984 . S
N3238 H3245 0.984 . S
N3239 C3232 1.356 . S
N3239 H3242 0.984 . S
N3239 H3243 0.985 . S
H3240 N3235 0.984 . S
H3241 N3235 0.985 . S
H3242 N3239 0.984 . S
H3243 N3239 0.985 . S
H3244 N3238 0.984 . S
H3245 N3238 0.984 . S
H3246 N3234 0.984 . S
H3247 N3234 0.985 . S
C3248 C3249 1.363 . S
C3248 C3254 1.379 . S
C3248 N3256 1.356 . S
C3249 C3248 1.363 . S
C3249 C3255 1.363 . S
C3250 C3251 1.363 . S
C3250 C3255 1.379 . S
C3250 N3257 1.356 . S
C3251 C3250 1.363 . S
C3251 C3254 1.363 . S
N3252 C3254 1.356 . S
N3252 H3264 0.984 . S
N3252 H3265 0.985 . S
N3253 C3255 1.356 . S
N3253 H3258 0.984 . S
N3253 H3259 0.985 . S
C3254 C3248 1.379 . S
C3254 C3251 1.363 . S
C3254 N3252 1.356 . S
C3255 C3249 1.363 . S
C3255 C3250 1.379 . S
C3255 N3253 1.356 . S
N3256 C3248 1.356 . S
N3256 H3262 0.984 . S
N3256 H3263 0.984 . S
N3257 C3250 1.356 . S
N3257 H3260 0.984 . S
N3257 H3261 0.985 . S
H3258 N3253 0.984 . S
H3259 N3253 0.985 . S
H3260 N3257 0.984 . S
H3261 N3257 0.985 . S
H3262 N3256 0.984 . S
H3263 N3256 0.984 . S
H3264 N3252 0.984 . S
H3265 N3252 0.985 . S
C3266 C3267 1.369 . S
C3266 C3272 1.379 . S
C3266 N3274 1.356 . S
C3267 C3266 1.369 . S
C3267 C3273 1.357 1_455 S
C3268 C3269 1.360 1_655 S
C3268 C3273 1.379 . S
C3268 N3275 1.356 . S
C3269 C3268 1.360 1_455 S
C3269 C3272 1.366 . S
N3270 C3272 1.356 . S
N3270 H3282 0.984 . S
N3270 H3283 0.985 . S
N3271 C3273 1.356 . S
N3271 H3276 0.984 . S
N3271 H3277 0.985 . S
C3272 C3266 1.379 . S
C3272 C3269 1.366 . S
C3272 N3270 1.356 . S
C3273 C3267 1.357 1_655 S
C3273 C3268 1.379 . S
C3273 N3271 1.356 . S
N3274 C3266 1.356 . S
N3274 H3280 0.984 . S
N3274 H3281 0.984 . S
N3275 C3268 1.356 . S
N3275 H3278 0.984 . S
N3275 H3279 0.985 . S
H3276 N3271 0.984 . S
H3277 N3271 0.985 . S
H3278 N3275 0.984 . S
H3279 N3275 0.985 . S
H3280 N3274 0.984 . S
H3281 N3274 0.984 . S
H3282 N3270 0.984 . S
H3283 N3270 0.985 . S
C3284 C3285 1.363 . S
C3284 C3290 1.379 . S
C3284 N3292 1.356 . S
C3285 C3284 1.363 . S
C3285 C3291 1.363 . S
C3286 C3287 1.363 . S
C3286 C3291 1.379 . S
C3286 N3293 1.356 . S
C3287 C3286 1.363 . S
C3287 C3290 1.363 . S
N3288 C3290 1.356 . S
N3288 H3300 0.984 . S
N3288 H3301 0.985 . S
N3289 C3291 1.356 . S
N3289 H3294 0.984 . S
N3289 H3295 0.985 . S
C3290 C3284 1.379 . S
C3290 C3287 1.363 . S
C3290 N3288 1.356 . S
C3291 C3285 1.363 . S
C3291 C3286 1.379 . S
C3291 N3289 1.356 . S
N3292 C3284 1.356 . S
N3292 H3298 0.984 . S
N3292 H3299 0.984 . S
N3293 C3286 1.356 . S
N3293 H3296 0.984 . S
N3293 H3297 0.985 . S
H3294 N3289 0.984 . S
H3295 N3289 0.985 . S
H3296 N3293 0.984 . S
H3297 N3293 0.985 . S
H3298 N3292 0.984 . S
H3299 N3292 0.984 . S
H3300 N3288 0.984 . S
H3301 N3288 0.985 . S
C3302 C3303 1.363 . S
C3302 C3308 1.379 . S
C3302 N3310 1.356 . S
C3303 C3302 1.363 . S
C3303 C3309 1.363 . S
C3304 C3305 1.363 . S
C3304 C3309 1.379 . S
C3304 N3311 1.356 . S
C3305 C3304 1.363 . S
C3305 C3308 1.363 . S
N3306 C3308 1.356 . S
N3306 H3318 0.984 . S
N3306 H3319 0.985 . S
N3307 C3309 1.356 . S
N3307 H3312 0.984 . S
N3307 H3313 0.985 . S
C3308 C3302 1.379 . S
C3308 C3305 1.363 . S
C3308 N3306 1.356 . S
C3309 C3303 1.363 . S
C3309 C3304 1.379 . S
C3309 N3307 1.356 . S
N3310 C3302 1.356 . S
N3310 H3316 0.984 . S
N3310 H3317 0.984 . S
N3311 C3304 1.356 . S
N3311 H3314 0.984 . S
N3311 H3315 0.985 . S
H3312 N3307 0.984 . S
H3313 N3307 0.985 . S
H3314 N3311 0.984 . S
H3315 N3311 0.985 . S
H3316 N3310 0.984 . S
H3317 N3310 0.984 . S
H3318 N3306 0.984 . S
H3319 N3306 0.985 . S
C3320 C3321 1.363 . S
C3320 C3326 1.379 . S
C3320 N3328 1.356 . S
C3321 C3320 1.363 . S
C3321 C3327 1.363 . S
C3322 C3323 1.363 . S
C3322 C3327 1.379 . S
C3322 N3329 1.356 . S
C3323 C3322 1.363 . S
C3323 C3326 1.363 . S
N3324 C3326 1.356 . S
N3324 H3336 0.984 . S
N3324 H3337 0.985 . S
N3325 C3327 1.356 . S
N3325 H3330 0.984 . S
N3325 H3331 0.985 . S
C3326 C3320 1.379 . S
C3326 C3323 1.363 . S
C3326 N3324 1.356 . S
C3327 C3321 1.363 . S
C3327 C3322 1.379 . S
C3327 N3325 1.356 . S
N3328 C3320 1.356 . S
N3328 H3334 0.984 . S
N3328 H3335 0.984 . S
N3329 C3322 1.356 . S
N3329 H3332 0.984 . S
N3329 H3333 0.985 . S
H3330 N3325 0.984 . S
H3331 N3325 0.985 . S
H3332 N3329 0.984 . S
H3333 N3329 0.985 . S
H3334 N3328 0.984 . S
H3335 N3328 0.984 . S
H3336 N3324 0.984 . S
H3337 N3324 0.985 . S
C3338 C3339 1.363 1_565 S
C3338 C3344 1.379 . S
C3338 N3346 1.356 . S
C3339 C3338 1.363 1_545 S
C3339 C3345 1.363 . S
C3340 C3341 1.363 1_545 S
C3340 C3345 1.379 . S
C3340 N3347 1.356 . S
C3341 C3340 1.363 1_565 S
C3341 C3344 1.363 . S
N3342 C3344 1.356 . S
N3342 H3354 0.984 . S
N3342 H3355 0.985 . S
N3343 C3345 1.356 . S
N3343 H3348 0.984 . S
N3343 H3349 0.985 . S
C3344 C3338 1.379 . S
C3344 C3341 1.363 . S
C3344 N3342 1.356 . S
C3345 C3339 1.363 . S
C3345 C3340 1.379 . S
C3345 N3343 1.356 . S
N3346 C3338 1.356 . S
N3346 H3352 0.984 . S
N3346 H3353 0.984 1_565 S
N3347 C3340 1.356 . S
N3347 H3350 0.984 1_545 S
N3347 H3351 0.985 . S
H3348 N3343 0.984 . S
H3349 N3343 0.985 . S
H3350 N3347 0.984 1_565 S
H3351 N3347 0.985 . S
H3352 N3346 0.984 . S
H3353 N3346 0.984 1_545 S
H3354 N3342 0.984 . S
H3355 N3342 0.985 . S
C3356 C3357 1.363 . S
C3356 C3362 1.379 . S
C3356 N3364 1.356 . S
C3357 C3356 1.363 . S
C3357 C3363 1.363 . S
C3358 C3359 1.363 . S
C3358 C3363 1.379 . S
C3358 N3365 1.356 . S
C3359 C3358 1.363 . S
C3359 C3362 1.363 . S
N3360 C3362 1.356 . S
N3360 H3372 0.984 . S
N3360 H3373 0.985 . S
N3361 C3363 1.356 . S
N3361 H3366 0.984 . S
N3361 H3367 0.985 . S
C3362 C3356 1.379 . S
C3362 C3359 1.363 . S
C3362 N3360 1.356 . S
C3363 C3357 1.363 . S
C3363 C3358 1.379 . S
C3363 N3361 1.356 . S
N3364 C3356 1.356 . S
N3364 H3370 0.984 . S
N3364 H3371 0.984 . S
N3365 C3358 1.356 . S
N3365 H3368 0.984 . S
N3365 H3369 0.985 . S
H3366 N3361 0.984 . S
H3367 N3361 0.985 . S
H3368 N3365 0.984 . S
H3369 N3365 0.985 . S
H3370 N3364 0.984 . S
H3371 N3364 0.984 . S
H3372 N3360 0.984 . S
H3373 N3360 0.985 . S
C3374 C3375 1.363 . S
C3374 C3380 1.379 1_554 S
C3374 N3382 1.356 . S
C3375 C3374 1.363 . S
C3375 C3381 1.363 . S
C3376 C3377 1.363 . S
C3376 C3381 1.379 1_556 S
C3376 N3383 1.356 . S
C3377 C3376 1.363 . S
C3377 C3380 1.363 . S
N3378 C3380 1.356 . S
N3378 H3390 0.984 . S
N3378 H3391 0.985 . S
N3379 C3381 1.356 . S
N3379 H3384 0.984 . S
N3379 H3385 0.985 . S
C3380 C3374 1.379 1_556 S
C3380 C3377 1.363 . S
C3380 N3378 1.356 . S
C3381 C3375 1.363 . S
C3381 C3376 1.379 1_554 S
C3381 N3379 1.356 . S
N3382 C3374 1.356 . S
N3382 H3388 0.984 . S
N3382 H3389 0.984 . S
N3383 C3376 1.356 . S
N3383 H3386 0.984 . S
N3383 H3387 0.985 . S
H3384 N3379 0.984 . S
H3385 N3379 0.985 . S
H3386 N3383 0.984 . S
H3387 N3383 0.985 . S
H3388 N3382 0.984 . S
H3389 N3382 0.984 . S
H3390 N3378 0.984 . S
H3391 N3378 0.985 . S
C3392 C3393 1.363 . S
C3392 C3398 1.379 . S
C3392 N3400 1.356 . S
C3393 C3392 1.363 . S
C3393 C3399 1.363 . S
C3394 C3395 1.363 . S
C3394 C3399 1.379 . S
C3394 N3401 1.356 . S
C3395 C3394 1.363 . S
C3395 C3398 1.363 . S
N3396 C3398 1.356 . S
N3396 H3408 0.984 . S
N3396 H3409 0.985 . S
N3397 C3399 1.356 . S
N3397 H3402 0.984 . S
N3397 H3403 0.985 . S
C3398 C3392 1.379 . S
C3398 C3395 1.363 . S
C3398 N3396 1.356 . S
C3399 C3393 1.363 . S
C3399 C3394 1.379 . S
C3399 N3397 1.356 . S
N3400 C3392 1.356 . S
N3400 H3406 0.984 . S
N3400 H3407 0.984 . S
N3401 C3394 1.356 . S
N3401 H3404 0.984 . S
N3401 H3405 0.985 . S
H3402 N3397 0.984 . S
H3403 N3397 0.985 . S
H3404 N3401 0.984 . S
H3405 N3401 0.985 . S
H3406 N3400 0.984 . S
H3407 N3400 0.984 . S
H3408 N3396 0.984 . S
H3409 N3396 0.985 . S
C3410 C3411 1.363 . S
C3410 C3416 1.379 . S
C3410 N3418 1.356 . S
C3411 C3410 1.363 . S
C3411 C3417 1.363 . S
C3412 C3413 1.363 . S
C3412 C3417 1.379 . S
C3412 N3419 1.356 . S
C3413 C3412 1.363 . S
C3413 C3416 1.363 . S
N3414 C3416 1.356 . S
N3414 H3426 0.984 1_556 S
N3414 H3427 0.985 . S
N3415 C3417 1.356 . S
N3415 H3420 0.984 . S
N3415 H3421 0.985 . S
C3416 C3410 1.379 . S
C3416 C3413 1.363 . S
C3416 N3414 1.356 . S
C3417 C3411 1.363 . S
C3417 C3412 1.379 . S
C3417 N3415 1.356 . S
N3418 C3410 1.356 . S
N3418 H3424 0.984 1_556 S
N3418 H3425 0.984 . S
N3419 C3412 1.356 . S
N3419 H3422 0.984 . S
N3419 H3423 0.985 . S
H3420 N3415 0.984 . S
H3421 N3415 0.985 . S
H3422 N3419 0.984 . S
H3423 N3419 0.985 . S
H3424 N3418 0.984 1_554 S
H3425 N3418 0.984 . S
H3426 N3414 0.984 1_554 S
H3427 N3414 0.985 . S
C3428 C3429 1.363 . S
C3428 C3434 1.379 . S
C3428 N3436 1.356 . S
C3429 C3428 1.363 . S
C3429 C3435 1.363 . S
C3430 C3431 1.363 . S
C3430 C3435 1.379 . S
C3430 N3437 1.356 . S
C3431 C3430 1.363 . S
C3431 C3434 1.363 . S
N3432 C3434 1.356 . S
N3432 H3444 0.984 . S
N3432 H3445 0.985 . S
N3433 C3435 1.356 . S
N3433 H3438 0.984 . S
N3433 H3439 0.985 . S
C3434 C3428 1.379 . S
C3434 C3431 1.363 . S
C3434 N3432 1.356 . S
C3435 C3429 1.363 . S
C3435 C3430 1.379 . S
C3435 N3433 1.356 . S
N3436 C3428 1.356 . S
N3436 H3442 0.984 . S
N3436 H3443 0.984 . S
N3437 C3430 1.356 . S
N3437 H3440 0.984 . S
N3437 H3441 0.985 . S
H3438 N3433 0.984 . S
H3439 N3433 0.985 . S
H3440 N3437 0.984 . S
H3441 N3437 0.985 . S
H3442 N3436 0.984 . S
H3443 N3436 0.984 . S
H3444 N3432 0.984 . S
H3445 N3432 0.985 . S
C3446 C3447 1.363 . S
C3446 C3452 1.379 . S
C3446 N3454 1.356 . S
C3447 C3446 1.363 . S
C3447 C3453 1.363 . S
C3448 C3449 1.363 . S
C3448 C3453 1.379 . S
C3448 N3455 1.356 . S
C3449 C3448 1.363 . S
C3449 C3452 1.363 . S
N3450 C3452 1.356 . S
N3450 H3462 0.984 . S
N3450 H3463 0.985 . S
N3451 C3453 1.356 . S
N3451 H3456 0.984 . S
N3451 H3457 0.958 1_554 S
C3452 C3446 1.379 . S
C3452 C3449 1.363 . S
C3452 N3450 1.356 . S
C3453 C3447 1.363 . S
C3453 C3448 1.379 . S
C3453 N3451 1.356 . S
N3454 C3446 1.356 . S
N3454 H3460 0.984 . S
N3454 H3461 0.984 . S
N3455 C3448 1.356 . S
N3455 H3458 0.984 . S
N3455 H3459 0.958 1_554 S
H3456 N3451 0.984 . S
H3457 N3451 0.958 1_556 S
H3458 N3455 0.984 . S
H3459 N3455 0.958 1_556 S
H3460 N3454 0.984 . S
H3461 N3454 0.984 . S
H3462 N3450 0.984 . S
H3463 N3450 0.985 . S
C3464 C3465 1.363 . S
C3464 C3470 1.379 . S
C3464 N3472 1.356 . S
C3465 C3464 1.363 . S
C3465 C3471 1.363 . S
C3466 C3467 1.363 . S
C3466 C3471 1.379 . S
C3466 N3473 1.356 . S
C3467 C3466 1.363 . S
C3467 C3470 1.363 . S
N3468 C3470 1.356 . S
N3468 H3480 0.984 . S
N3468 H3481 0.985 . S
N3469 C3471 1.356 . S
N3469 H3474 0.984 . S
N3469 H3475 0.985 . S
C3470 C3464 1.379 . S
C3470 C3467 1.363 . S
C3470 N3468 1.356 . S
C3471 C3465 1.363 . S
C3471 C3466 1.379 . S
C3471 N3469 1.356 . S
N3472 C3464 1.356 . S
N3472 H3478 0.984 . S
N3472 H3479 0.984 . S
N3473 C3466 1.356 . S
N3473 H3476 0.984 . S
N3473 H3477 0.985 . S
H3474 N3469 0.984 . S
H3475 N3469 0.985 . S
H3476 N3473 0.984 . S
H3477 N3473 0.985 . S
H3478 N3472 0.984 . S
H3479 N3472 0.984 . S
H3480 N3468 0.984 . S
H3481 N3468 0.985 . S
C3482 C3483 1.363 . S
C3482 C3488 1.379 . S
C3482 N3490 1.356 . S
C3483 C3482 1.363 . S
C3483 C3489 1.363 . S
C3484 C3485 1.363 . S
C3484 C3489 1.379 . S
C3484 N3491 1.356 . S
C3485 C3484 1.363 . S
C3485 C3488 1.363 . S
N3486 C3488 1.356 . S
N3486 H3498 0.984 . S
N3486 H3499 0.985 . S
N3487 C3489 1.356 . S
N3487 H3492 0.984 . S
N3487 H3493 0.985 . S
C3488 C3482 1.379 . S
C3488 C3485 1.363 . S
C3488 N3486 1.356 . S
C3489 C3483 1.363 . S
C3489 C3484 1.379 . S
C3489 N3487 1.356 . S
N3490 C3482 1.356 . S
N3490 H3496 0.984 . S
N3490 H3497 0.984 . S
N3491 C3484 1.356 . S
N3491 H3494 0.984 . S
N3491 H3495 0.985 . S
H3492 N3487 0.984 . S
H3493 N3487 0.985 . S
H3494 N3491 0.984 . S
H3495 N3491 0.985 . S
H3496 N3490 0.984 . S
H3497 N3490 0.984 . S
H3498 N3486 0.984 . S
H3499 N3486 0.985 . S
C3500 C3501 1.363 . S
C3500 C3506 1.379 . S
C3500 N3508 1.356 . S
C3501 C3500 1.363 . S
C3501 C3507 1.363 . S
C3502 C3503 1.363 . S
C3502 C3507 1.379 . S
C3502 N3509 1.356 . S
C3503 C3502 1.363 . S
C3503 C3506 1.363 . S
N3504 C3506 1.356 . S
N3504 H3516 0.984 . S
N3504 H3517 0.985 . S
N3505 C3507 1.356 . S
N3505 H3510 0.984 . S
N3505 H3511 0.985 . S
C3506 C3500 1.379 . S
C3506 C3503 1.363 . S
C3506 N3504 1.356 . S
C3507 C3501 1.363 . S
C3507 C3502 1.379 . S
C3507 N3505 1.356 . S
N3508 C3500 1.356 . S
N3508 H3514 0.984 . S
N3508 H3515 0.984 . S
N3509 C3502 1.356 . S
N3509 H3512 0.984 . S
N3509 H3513 0.985 . S
H3510 N3505 0.984 . S
H3511 N3505 0.985 . S
H3512 N3509 0.984 . S
H3513 N3509 0.985 . S
H3514 N3508 0.984 . S
H3515 N3508 0.984 . S
H3516 N3504 0.984 . S
H3517 N3504 0.985 . S
C3518 C3519 1.363 . S
C3518 C3524 1.379 . S
C3518 N3526 1.356 . S
C3519 C3518 1.363 . S
C3519 C3525 1.363 . S
C3520 C3521 1.363 . S
C3520 C3525 1.379 . S
C3520 N3527 1.356 . S
C3521 C3520 1.363 . S
C3521 C3524 1.363 . S
N3522 C3524 1.356 . S
N3522 H3534 0.984 . S
N3522 H3535 0.985 . S
N3523 C3525 1.356 . S
N3523 H3528 0.984 . S
N3523 H3529 0.985 . S
C3524 C3518 1.379 . S
C3524 C3521 1.363 . S
C3524 N3522 1.356 . S
C3525 C3519 1.363 . S
C3525 C3520 1.379 . S
C3525 N3523 1.356 . S
N3526 C3518 1.356 . S
N3526 H3532 0.984 . S
N3526 H3533 0.984 . S
N3527 C3520 1.356 . S
N3527 H3530 0.984 . S
N3527 H3531 0.985 . S
H3528 N3523 0.984 . S
H3529 N3523 0.985 . S
H3530 N3527 0.984 . S
H3531 N3527 0.985 . S
H3532 N3526 0.984 . S
H3533 N3526 0.984 . S
H3534 N3522 0.984 . S
H3535 N3522 0.985 . S
C3536 C3537 1.363 . S
C3536 C3542 1.379 . S
C3536 N3544 1.356 . S
C3537 C3536 1.363 . S
C3537 C3543 1.363 . S
C3538 C3539 1.363 . S
C3538 C3543 1.379 . S
C3538 N3545 1.356 . S
C3539 C3538 1.363 . S
C3539 C3542 1.363 . S
N3540 C3542 1.356 . S
N3540 H3552 0.984 . S
N3540 H3553 0.985 . S
N3541 C3543 1.356 . S
N3541 H3546 0.984 . S
N3541 H3547 0.985 . S
C3542 C3536 1.379 . S
C3542 C3539 1.363 . S
C3542 N3540 1.356 . S
C3543 C3537 1.363 . S
C3543 C3538 1.379 . S
C3543 N3541 1.356 . S
N3544 C3536 1.356 . S
N3544 H3550 0.984 . S
N3544 H3551 0.984 . S
N3545 C3538 1.356 . S
N3545 H3548 0.984 . S
N3545 H3549 0.985 . S
H3546 N3541 0.984 . S
H3547 N3541 0.985 . S
H3548 N3545 0.984 . S
H3549 N3545 0.985 . S
H3550 N3544 0.984 . S
H3551 N3544 0.984 . S
H3552 N3540 0.984 . S
H3553 N3540 0.985 . S
C3554 C3555 1.363 . S
C3554 C3560 1.379 . S
C3554 N3562 1.356 . S
C3555 C3554 1.363 . S
C3555 C3561 1.363 . S
C3556 C3557 1.363 . S
C3556 C3561 1.379 . S
C3556 N3563 1.356 . S
C3557 C3556 1.363 . S
C3557 C3560 1.363 . S
N3558 C3560 1.356 . S
N3558 H3570 0.984 . S
N3558 H3571 0.985 . S
N3559 C3561 1.356 . S
N3559 H3564 0.984 . S
N3559 H3565 0.985 . S
C3560 C3554 1.379 . S
C3560 C3557 1.363 . S
C3560 N3558 1.356 . S
C3561 C3555 1.363 . S
C3561 C3556 1.379 . S
C3561 N3559 1.356 . S
N3562 C3554 1.356 . S
N3562 H3568 0.984 . S
N3562 H3569 0.984 . S
N3563 C3556 1.356 . S
N3563 H3566 0.984 . S
N3563 H3567 0.985 . S
H3564 N3559 0.984 . S
H3565 N3559 0.985 . S
H3566 N3563 0.984 . S
H3567 N3563 0.985 . S
H3568 N3562 0.984 . S
H3569 N3562 0.984 . S
H3570 N3558 0.984 . S
H3571 N3558 0.985 . S
C3572 C3573 1.363 . S
C3572 C3578 1.379 . S
C3572 N3580 1.356 . S
C3573 C3572 1.363 . S
C3573 C3579 1.363 . S
C3574 C3575 1.363 . S
C3574 C3579 1.379 . S
C3574 N3581 1.356 . S
C3575 C3574 1.363 . S
C3575 C3578 1.363 . S
N3576 C3578 1.356 . S
N3576 H3588 0.984 . S
N3576 H3589 0.985 . S
N3577 C3579 1.356 . S
N3577 H3582 0.984 . S
N3577 H3583 0.985 . S
C3578 C3572 1.379 . S
C3578 C3575 1.363 . S
C3578 N3576 1.356 . S
C3579 C3573 1.363 . S
C3579 C3574 1.379 . S
C3579 N3577 1.356 . S
N3580 C3572 1.356 . S
N3580 H3586 0.984 . S
N3580 H3587 0.984 . S
N3581 C3574 1.356 . S
N3581 H3584 0.984 . S
N3581 H3585 0.985 . S
H3582 N3577 0.984 . S
H3583 N3577 0.985 . S
H3584 N3581 0.984 . S
H3585 N3581 0.985 . S
H3586 N3580 0.984 . S
H3587 N3580 0.984 . S
H3588 N3576 0.984 . S
H3589 N3576 0.985 . S
C3590 C3591 1.363 . S
C3590 C3596 1.379 . S
C3590 N3598 1.356 . S
C3591 C3590 1.363 . S
C3591 C3597 1.363 . S
C3592 C3593 1.363 . S
C3592 C3597 1.379 . S
C3592 N3599 1.356 . S
C3593 C3592 1.363 . S
C3593 C3596 1.363 . S
N3594 C3596 1.356 . S
N3594 H3606 0.984 . S
N3594 H3607 0.985 . S
N3595 C3597 1.356 . S
N3595 H3600 0.984 . S
N3595 H3601 0.985 . S
C3596 C3590 1.379 . S
C3596 C3593 1.363 . S
C3596 N3594 1.356 . S
C3597 C3591 1.363 . S
C3597 C3592 1.379 . S
C3597 N3595 1.356 . S
N3598 C3590 1.356 . S
N3598 H3604 0.984 . S
N3598 H3605 0.984 . S
N3599 C3592 1.356 . S
N3599 H3602 0.984 . S
N3599 H3603 0.985 . S
H3600 N3595 0.984 . S
H3601 N3595 0.985 . S
H3602 N3599 0.984 . S
H3603 N3599 0.985 . S
H3604 N3598 0.984 . S
H3605 N3598 0.984 . S
H3606 N3594 0.984 . S
H3607 N3594 0.985 . S
C3608 C3609 1.363 . S
C3608 C3614 1.379 . S
C3608 N3616 1.356 . S
C3609 C3608 1.363 . S
C3609 C3615 1.363 . S
C3610 C3611 1.363 . S
C3610 C3615 1.379 . S
C3610 N3617 1.356 . S
C3611 C3610 1.363 . S
C3611 C3614 1.363 . S
N3612 C3614 1.356 . S
N3612 H3624 0.984 . S
N3612 H3625 0.985 . S
N3613 C3615 1.356 . S
N3613 H3618 0.984 . S
N3613 H3619 0.985 . S
C3614 C3608 1.379 . S
C3614 C3611 1.363 . S
C3614 N3612 1.356 . S
C3615 C3609 1.363 . S
C3615 C3610 1.379 . S
C3615 N3613 1.356 . S
N3616 C3608 1.356 . S
N3616 H3622 0.984 . S
N3616 H3623 0.984 . S
N3617 C3610 1.356 . S
N3617 H3620 0.984 . S
N3617 H3621 0.985 . S
H3618 N3613 0.984 . S
H3619 N3613 0.985 . S
H3620 N3617 0.984 . S
H3621 N3617 0.985 . S
H3622 N3616 0.984 . S
H3623 N3616 0.984 . S
H3624 N3612 0.984 . S
H3625 N3612 0.985 . S
C3626 C3627 1.363 . S
C3626 C3632 1.379 . S
C3626 N3634 1.356 . S
C3627 C3626 1.363 . S
C3627 C3633 1.363 . S
C3628 C3629 1.363 . S
C3628 C3633 1.379 . S
C3628 N3635 1.356 . S
C3629 C3628 1.363 . S
C3629 C3632 1.363 . S
N3630 C3632 1.356 . S
N3630 H3642 0.984 . S
N3630 H3643 0.985 . S
N3631 C3633 1.356 . S
N3631 H3636 0.984 . S
N3631 H3637 0.985 1_556 S
C3632 C3626 1.379 . S
C3632 C3629 1.363 . S
C3632 N3630 1.356 . S
C3633 C3627 1.363 . S
C3633 C3628 1.379 . S
C3633 N3631 1.356 . S
N3634 C3626 1.356 . S
N3634 H3640 0.984 . S
N3634 H3641 0.984 . S
N3635 C3628 1.356 . S
N3635 H3638 0.984 . S
N3635 H3639 0.985 1_556 S
H3636 N3631 0.984 . S
H3637 N3631 0.985 1_554 S
H3638 N3635 0.984 . S
H3639 N3635 0.985 1_554 S
H3640 N3634 0.984 . S
H3641 N3634 0.984 . S
H3642 N3630 0.984 . S
H3643 N3630 0.985 . S
C3644 C3645 1.363 . S
C3644 C3650 1.379 . S
C3644 N3652 1.356 . S
C3645 C3644 1.363 . S
C3645 C3651 1.363 . S
C3646 C3647 1.363 . S
C3646 C3651 1.379 . S
C3646 N3653 1.356 . S
C3647 C3646 1.363 . S
C3647 C3650 1.363 . S
N3648 C3650 1.356 . S
N3648 H3660 0.984 . S
N3648 H3661 0.985 . S
N3649 C3651 1.356 . S
N3649 H3654 0.984 . S
N3649 H3655 0.985 . S
C3650 C3644 1.379 . S
C3650 C3647 1.363 . S
C3650 N3648 1.356 . S
C3651 C3645 1.363 . S
C3651 C3646 1.379 . S
C3651 N3649 1.356 . S
N3652 C3644 1.356 . S
N3652 H3658 0.984 . S
N3652 H3659 0.984 . S
N3653 C3646 1.356 . S
N3653 H3656 0.984 . S
N3653 H3657 0.985 . S
H3654 N3649 0.984 . S
H3655 N3649 0.985 . S
H3656 N3653 0.984 . S
H3657 N3653 0.985 . S
H3658 N3652 0.984 . S
H3659 N3652 0.984 . S
H3660 N3648 0.984 . S
H3661 N3648 0.985 . S
C3662 C3663 1.363 . S
C3662 C3668 1.379 . S
C3662 N3670 1.356 . S
C3663 C3662 1.363 . S
C3663 C3669 1.363 . S
C3664 C3665 1.363 . S
C3664 C3669 1.379 . S
C3664 N3671 1.356 . S
C3665 C3664 1.363 . S
C3665 C3668 1.363 . S
N3666 C3668 1.356 . S
N3666 H3678 0.984 . S
N3666 H3679 0.985 . S
N3667 C3669 1.356 . S
N3667 H3672 0.984 . S
N3667 H3673 0.958 1_554 S
C3668 C3662 1.379 . S
C3668 C3665 1.363 . S
C3668 N3666 1.356 . S
C3669 C3663 1.363 . S
C3669 C3664 1.379 . S
C3669 N3667 1.356 . S
N3670 C3662 1.356 . S
N3670 H3676 0.984 . S
N3670 H3677 0.984 . S
N3671 C3664 1.356 . S
N3671 H3674 0.984 . S
N3671 H3675 0.958 1_554 S
H3672 N3667 0.984 . S
H3673 N3667 0.958 1_556 S
H3674 N3671 0.984 . S
H3675 N3671 0.958 1_556 S
H3676 N3670 0.984 . S
H3677 N3670 0.984 . S
H3678 N3666 0.984 . S
H3679 N3666 0.985 . S
C3680 C3681 1.363 . S
C3680 C3686 1.379 . S
C3680 N3688 1.356 . S
C3681 C3680 1.363 . S
C3681 C3687 1.363 . S
C3682 C3683 1.363 . S
C3682 C3687 1.379 . S
C3682 N3689 1.356 . S
C3683 C3682 1.363 . S
C3683 C3686 1.363 . S
N3684 C3686 1.356 . S
N3684 H3696 0.984 . S
N3684 H3697 0.985 . S
N3685 C3687 1.356 . S
N3685 H3690 0.984 . S
N3685 H3691 0.985 . S
C3686 C3680 1.379 . S
C3686 C3683 1.363 . S
C3686 N3684 1.356 . S
C3687 C3681 1.363 . S
C3687 C3682 1.379 . S
C3687 N3685 1.356 . S
N3688 C3680 1.356 . S
N3688 H3694 0.984 . S
N3688 H3695 0.984 . S
N3689 C3682 1.356 . S
N3689 H3692 0.984 . S
N3689 H3693 0.985 . S
H3690 N3685 0.984 . S
H3691 N3685 0.985 . S
H3692 N3689 0.984 . S
H3693 N3689 0.985 . S
H3694 N3688 0.984 . S
H3695 N3688 0.984 . S
H3696 N3684 0.984 . S
H3697 N3684 0.985 . S
C3698 C3699 1.363 . S
C3698 C3704 1.379 . S
C3698 N3706 1.356 . S
C3699 C3698 1.363 . S
C3699 C3705 1.363 . S
C3700 C3701 1.363 . S
C3700 C3705 1.379 . S
C3700 N3707 1.356 . S
C3701 C3700 1.363 . S
C3701 C3704 1.363 . S
N3702 C3704 1.356 . S
N3702 H3714 0.984 . S
N3702 H3715 0.985 . S
N3703 C3705 1.356 . S
N3703 H3708 0.984 . S
N3703 H3709 0.985 . S
C3704 C3698 1.379 . S
C3704 C3701 1.363 . S
C3704 N3702 1.356 . S
C3705 C3699 1.363 . S
C3705 C3700 1.379 . S
C3705 N3703 1.356 . S
N3706 C3698 1.356 . S
N3706 H3712 0.984 . S
N3706 H3713 0.984 . S
N3707 C3700 1.356 . S
N3707 H3710 0.984 . S
N3707 H3711 0.985 . S
H3708 N3703 0.984 . S
H3709 N3703 0.985 . S
H3710 N3707 0.984 . S
H3711 N3707 0.985 . S
H3712 N3706 0.984 . S
H3713 N3706 0.984 . S
H3714 N3702 0.984 . S
H3715 N3702 0.985 . S
C3716 C3717 1.363 . S
C3716 C3722 1.379 . S
C3716 N3724 1.356 . S
C3717 C3716 1.363 . S
C3717 C3723 1.363 . S
C3718 C3719 1.363 . S
C3718 C3723 1.379 . S
C3718 N3725 1.356 . S
C3719 C3718 1.363 . S
C3719 C3722 1.363 . S
N3720 C3722 1.356 . S
N3720 H3732 0.984 . S
N3720 H3733 0.985 . S
N3721 C3723 1.356 . S
N3721 H3726 0.984 . S
N3721 H3727 0.985 . S
C3722 C3716 1.379 . S
C3722 C3719 1.363 . S
C3722 N3720 1.356 . S
C3723 C3717 1.363 . S
C3723 C3718 1.379 . S
C3723 N3721 1.356 . S
N3724 C3716 1.356 . S
N3724 H3730 0.984 . S
N3724 H3731 0.984 . S
N3725 C3718 1.356 . S
N3725 H3728 0.984 . S
N3725 H3729 0.985 . S
H3726 N3721 0.984 . S
H3727 N3721 0.985 . S
H3728 N3725 0.984 . S
H3729 N3725 0.985 . S
H3730 N3724 0.984 . S
H3731 N3724 0.984 . S
H3732 N3720 0.984 . S
H3733 N3720 0.985 . S
C3734 C3735 1.363 . S
C3734 C3740 1.379 . S
C3734 N3742 1.356 . S
C3735 C3734 1.363 . S
C3735 C3741 1.363 . S
C3736 C3737 1.363 . S
C3736 C3741 1.379 . S
C3736 N3743 1.356 . S
C3737 C3736 1.363 . S
C3737 C3740 1.363 . S
N3738 C3740 1.356 . S
N3738 H3750 0.984 . S
N3738 H3751 0.985 . S
N3739 C3741 1.356 . S
N3739 H3744 0.984 . S
N3739 H3745 0.985 . S
C3740 C3734 1.379 . S
C3740 C3737 1.363 . S
C3740 N3738 1.356 . S
C3741 C3735 1.363 . S
C3741 C3736 1.379 . S
C3741 N3739 1.356 . S
N3742 C3734 1.356 . S
N3742 H3748 0.984 . S
N3742 H3749 0.984 . S
N3743 C3736 1.356 . S
N3743 H3746 0.984 . S
N3743 H3747 0.985 . S
H3744 N3739 0.984 . S
H3745 N3739 0.985 . S
H3746 N3743 0.984 . S
H3747 N3743 0.985 . S
H3748 N3742 0.984 . S
H3749 N3742 0.984 . S
H3750 N3738 0.984 . S
H3751 N3738 0.985 . S
C3752 C3753 1.363 . S
C3752 C3758 1.379 . S
C3752 N3760 1.356 . S
C3753 C3752 1.363 . S
C3753 C3759 1.363 . S
C3754 C3755 1.363 . S
C3754 C3759 1.379 . S
C3754 N3761 1.356 . S
C3755 C3754 1.363 . S
C3755 C3758 1.363 . S
N3756 C3758 1.356 . S
N3756 H3768 0.984 . S
N3756 H3769 0.985 . S
N3757 C3759 1.356 . S
N3757 H3762 0.984 . S
N3757 H3763 0.985 . S
C3758 C3752 1.379 . S
C3758 C3755 1.363 . S
C3758 N3756 1.356 . S
C3759 C3753 1.363 . S
C3759 C3754 1.379 . S
C3759 N3757 1.356 . S
N3760 C3752 1.356 . S
N3760 H3766 0.984 . S
N3760 H3767 0.984 . S
N3761 C3754 1.356 . S
N3761 H3764 0.984 . S
N3761 H3765 0.985 . S
H3762 N3757 0.984 . S
H3763 N3757 0.985 . S
H3764 N3761 0.984 . S
H3765 N3761 0.985 . S
H3766 N3760 0.984 . S
H3767 N3760 0.984 . S
H3768 N3756 0.984 . S
H3769 N3756 0.985 . S
C3770 C3771 1.363 . S
C3770 C3776 1.379 . S
C3770 N3778 1.356 . S
C3771 C3770 1.363 . S
C3771 C3777 1.363 . S
C3772 C3773 1.363 . S
C3772 C3777 1.379 . S
C3772 N3779 1.356 . S
C3773 C3772 1.363 . S
C3773 C3776 1.363 . S
N3774 C3776 1.356 . S
N3774 H3786 0.984 . S
N3774 H3787 0.985 . S
N3775 C3777 1.356 . S
N3775 H3780 0.984 . S
N3775 H3781 0.985 . S
C3776 C3770 1.379 . S
C3776 C3773 1.363 . S
C3776 N3774 1.356 . S
C3777 C3771 1.363 . S
C3777 C3772 1.379 . S
C3777 N3775 1.356 . S
N3778 C3770 1.356 . S
N3778 H3784 0.984 . S
N3778 H3785 0.984 . S
N3779 C3772 1.356 . S
N3779 H3782 0.984 . S
N3779 H3783 0.985 . S
H3780 N3775 0.984 . S
H3781 N3775 0.985 . S
H3782 N3779 0.984 . S
H3783 N3779 0.985 . S
H3784 N3778 0.984 . S
H3785 N3778 0.984 . S
H3786 N3774 0.984 . S
H3787 N3774 0.985 . S
C3788 C3789 1.363 . S
C3788 C3794 1.379 . S
C3788 N3796 1.356 . S
C3789 C3788 1.363 . S
C3789 C3795 1.363 . S
C3790 C3791 1.363 . S
C3790 C3795 1.379 . S
C3790 N3797 1.356 . S
C3791 C3790 1.363 . S
C3791 C3794 1.363 . S
N3792 C3794 1.356 . S
N3792 H3804 0.984 . S
N3792 H3805 0.985 . S
N3793 C3795 1.356 . S
N3793 H3798 0.984 . S
N3793 H3799 0.985 . S
C3794 C3788 1.379 . S
C3794 C3791 1.363 . S
C3794 N3792 1.356 . S
C3795 C3789 1.363 . S
C3795 C3790 1.379 . S
C3795 N3793 1.356 . S
N3796 C3788 1.356 . S
N3796 H3802 0.984 . S
N3796 H3803 0.984 . S
N3797 C3790 1.356 . S
N3797 H3800 0.984 . S
N3797 H3801 0.985 . S
H3798 N3793 0.984 . S
H3799 N3793 0.985 . S
H3800 N3797 0.984 . S
H3801 N3797 0.985 . S
H3802 N3796 0.984 . S
H3803 N3796 0.984 . S
H3804 N3792 0.984 . S
H3805 N3792 0.985 . S
C3806 C3807 1.363 . S
C3806 C3812 1.379 . S
C3806 N3814 1.356 . S
C3807 C3806 1.363 . S
C3807 C3813 1.363 . S
C3808 C3809 1.363 . S
C3808 C3813 1.379 . S
C3808 N3815 1.356 . S
C3809 C3808 1.363 . S
C3809 C3812 1.363 . S
N3810 C3812 1.356 . S
N3810 H3822 0.984 . S
N3810 H3823 0.985 . S
N3811 C3813 1.356 . S
N3811 H3816 0.984 . S
N3811 H3817 0.985 . S
C3812 C3806 1.379 . S
C3812 C3809 1.363 . S
C3812 N3810 1.356 . S
C3813 C3807 1.363 . S
C3813 C3808 1.379 . S
C3813 N3811 1.356 . S
N3814 C3806 1.356 . S
N3814 H3820 0.984 . S
N3814 H3821 0.984 . S
N3815 C3808 1.356 . S
N3815 H3818 0.984 . S
N3815 H3819 0.985 . S
H3816 N3811 0.984 . S
H3817 N3811 0.985 . S
H3818 N3815 0.984 . S
H3819 N3815 0.985 . S
H3820 N3814 0.984 . S
H3821 N3814 0.984 . S
H3822 N3810 0.984 . S
H3823 N3810 0.985 . S
C3824 C3825 1.363 . S
C3824 C3830 1.379 . S
C3824 N3832 1.356 . S
C3825 C3824 1.363 . S
C3825 C3831 1.363 . S
C3826 C3827 1.363 . S
C3826 C3831 1.379 . S
C3826 N3833 1.356 . S
C3827 C3826 1.363 . S
C3827 C3830 1.363 . S
N3828 C3830 1.356 . S
N3828 H3840 0.984 . S
N3828 H3841 0.985 . S
N3829 C3831 1.356 . S
N3829 H3834 0.984 . S
N3829 H3835 0.985 . S
C3830 C3824 1.379 . S
C3830 C3827 1.363 . S
C3830 N3828 1.356 . S
C3831 C3825 1.363 . S
C3831 C3826 1.379 . S
C3831 N3829 1.356 . S
N3832 C3824 1.356 . S
N3832 H3838 0.984 . S
N3832 H3839 0.984 . S
N3833 C3826 1.356 . S
N3833 H3836 0.984 . S
N3833 H3837 0.985 . S
H3834 N3829 0.984 . S
H3835 N3829 0.985 . S
H3836 N3833 0.984 . S
H3837 N3833 0.985 . S
H3838 N3832 0.984 . S
H3839 N3832 0.984 . S
H3840 N3828 0.984 . S
H3841 N3828 0.985 . S
C3842 C3843 1.363 . S
C3842 C3848 1.379 . S
C3842 N3850 1.356 . S
C3843 C3842 1.363 . S
C3843 C3849 1.363 . S
C3844 C3845 1.363 . S
C3844 C3849 1.379 . S
C3844 N3851 1.356 . S
C3845 C3844 1.363 . S
C3845 C3848 1.363 . S
N3846 C3848 1.356 . S
N3846 H3858 0.984 . S
N3846 H3859 0.985 . S
N3847 C3849 1.356 . S
N3847 H3852 0.984 . S
N3847 H3853 0.985 . S
C3848 C3842 1.379 . S
C3848 C3845 1.363 . S
C3848 N3846 1.356 . S
C3849 C3843 1.363 . S
C3849 C3844 1.379 . S
C3849 N3847 1.356 . S
N3850 C3842 1.356 . S
N3850 H3856 0.984 . S
N3850 H3857 0.984 . S
N3851 C3844 1.356 . S
N3851 H3854 0.984 . S
N3851 H3855 0.985 . S
H3852 N3847 0.984 . S
H3853 N3847 0.985 . S
H3854 N3851 0.984 . S
H3855 N3851 0.985 . S
H3856 N3850 0.984 . S
H3857 N3850 0.984 . S
H3858 N3846 0.984 . S
H3859 N3846 0.985 . S
C3860 C3861 1.363 . S
C3860 C3866 1.379 . S
C3860 N3868 1.356 . S
C3861 C3860 1.363 . S
C3861 C3867 1.363 . S
C3862 C3863 1.363 . S
C3862 C3867 1.379 . S
C3862 N3869 1.356 . S
C3863 C3862 1.363 . S
C3863 C3866 1.363 . S
N3864 C3866 1.356 . S
N3864 H3876 0.984 . S
N3864 H3877 0.985 . S
N3865 C3867 1.356 . S
N3865 H3870 0.984 . S
N3865 H3871 0.985 . S
C3866 C3860 1.379 . S
C3866 C3863 1.363 . S
C3866 N3864 1.356 . S
C3867 C3861 1.363 . S
C3867 C3862 1.379 . S
C3867 N3865 1.356 . S
N3868 C3860 1.356 . S
N3868 H3874 0.984 . S
N3868 H3875 0.984 . S
N3869 C3862 1.356 . S
N3869 H3872 0.984 . S
N3869 H3873 0.985 . S
H3870 N3865 0.984 . S
H3871 N3865 0.985 . S
H3872 N3869 0.984 . S
H3873 N3869 0.985 . S
H3874 N3868 0.984 . S
H3875 N3868 0.984 . S
H3876 N3864 0.984 . S
H3877 N3864 0.985 . S
C3878 C3879 1.363 . S
C3878 C3884 1.379 . S
C3878 N3886 1.356 . S
C3879 C3878 1.363 . S
C3879 C3885 1.363 . S
C3880 C3881 1.363 . S
C3880 C3885 1.379 . S
C3880 N3887 1.356 . S
C3881 C3880 1.363 . S
C3881 C3884 1.363 . S
N3882 C3884 1.356 . S
N3882 H3894 0.984 . S
N3882 H3895 0.985 . S
N3883 C3885 1.356 . S
N3883 H3888 0.984 . S
N3883 H3889 0.985 . S
C3884 C3878 1.379 . S
C3884 C3881 1.363 . S
C3884 N3882 1.356 . S
C3885 C3879 1.363 . S
C3885 C3880 1.379 . S
C3885 N3883 1.356 . S
N3886 C3878 1.356 . S
N3886 H3892 0.984 . S
N3886 H3893 0.984 . S
N3887 C3880 1.356 . S
N3887 H3890 0.984 . S
N3887 H3891 0.985 . S
H3888 N3883 0.984 . S
H3889 N3883 0.985 . S
H3890 N3887 0.984 . S
H3891 N3887 0.985 . S
H3892 N3886 0.984 . S
H3893 N3886 0.984 . S
H3894 N3882 0.984 . S
H3895 N3882 0.985 . S
C3896 C3897 1.363 . S
C3896 C3902 1.379 . S
C3896 N3904 1.356 . S
C3897 C3896 1.363 . S
C3897 C3903 1.363 . S
C3898 C3899 1.363 . S
C3898 C3903 1.379 . S
C3898 N3905 1.356 . S
C3899 C3898 1.363 . S
C3899 C3902 1.363 . S
N3900 C3902 1.356 . S
N3900 H3912 0.984 . S
N3900 H3913 0.985 . S
N3901 C3903 1.356 . S
N3901 H3906 0.984 . S
N3901 H3907 0.985 . S
C3902 C3896 1.379 . S
C3902 C3899 1.363 . S
C3902 N3900 1.356 . S
C3903 C3897 1.363 . S
C3903 C3898 1.379 . S
C3903 N3901 1.356 . S
N3904 C3896 1.356 . S
N3904 H3910 0.984 . S
N3904 H3911 0.984 . S
N3905 C3898 1.356 . S
N3905 H3908 0.984 . S
N3905 H3909 0.985 . S
H3906 N3901 0.984 . S
H3907 N3901 0.985 . S
H3908 N3905 0.984 . S
H3909 N3905 0.985 . S
H3910 N3904 0.984 . S
H3911 N3904 0.984 . S
H3912 N3900 0.984 . S
H3913 N3900 0.985 . S
C3914 C3915 1.363 . S
C3914 C3920 1.379 . S
C3914 N3922 1.356 . S
C3915 C3914 1.363 . S
C3915 C3921 1.363 . S
C3916 C3917 1.363 . S
C3916 C3921 1.379 . S
C3916 N3923 1.356 . S
C3917 C3916 1.363 . S
C3917 C3920 1.363 . S
N3918 C3920 1.356 . S
N3918 H3930 0.984 . S
N3918 H3931 0.985 . S
N3919 C3921 1.356 . S
N3919 H3924 0.984 . S
N3919 H3925 0.985 . S
C3920 C3914 1.379 . S
C3920 C3917 1.363 . S
C3920 N3918 1.356 . S
C3921 C3915 1.363 . S
C3921 C3916 1.379 . S
C3921 N3919 1.356 . S
N3922 C3914 1.356 . S
N3922 H3928 0.984 . S
N3922 H3929 0.984 . S
N3923 C3916 1.356 . S
N3923 H3926 0.984 . S
N3923 H3927 0.985 . S
H3924 N3919 0.984 . S
H3925 N3919 0.985 . S
H3926 N3923 0.984 . S
H3927 N3923 0.985 . S
H3928 N3922 0.984 . S
H3929 N3922 0.984 . S
H3930 N3918 0.984 . S
H3931 N3918 0.985 . S
C3932 C3933 1.363 . S
C3932 C3938 1.379 . S
C3932 N3940 1.356 . S
C3933 C3932 1.363 . S
C3933 C3939 1.363 . S
C3934 C3935 1.363 . S
C3934 C3939 1.379 . S
C3934 N3941 1.356 . S
C3935 C3934 1.363 . S
C3935 C3938 1.363 . S
N3936 C3938 1.356 . S
N3936 H3948 0.984 . S
N3936 H3949 0.985 . S
N3937 C3939 1.356 . S
N3937 H3942 0.984 . S
N3937 H3943 0.985 . S
C3938 C3932 1.379 . S
C3938 C3935 1.363 . S
C3938 N3936 1.356 . S
C3939 C3933 1.363 . S
C3939 C3934 1.379 . S
C3939 N3937 1.356 . S
N3940 C3932 1.356 . S
N3940 H3946 0.984 . S
N3940 H3947 0.984 . S
N3941 C3934 1.356 . S
N3941 H3944 0.984 . S
N3941 H3945 0.985 . S
H3942 N3937 0.984 . S
H3943 N3937 0.985 . S
H3944 N3941 0.984 . S
H3945 N3941 0.985 . S
H3946 N3940 0.984 . S
H3947 N3940 0.984 . S
H3948 N3936 0.984 . S
H3949 N3936 0.985 . S
C3950 C3951 1.363 . S
C3950 C3956 1.379 . S
C3950 N3958 1.356 . S
C3951 C3950 1.363 . S
C3951 C3957 1.363 . S
C3952 C3953 1.363 . S
C3952 C3957 1.379 . S
C3952 N3959 1.356 . S
C3953 C3952 1.363 . S
C3953 C3956 1.363 . S
N3954 C3956 1.356 . S
N3954 H3966 0.984 . S
N3954 H3967 0.985 . S
N3955 C3957 1.356 . S
N3955 H3960 0.984 . S
N3955 H3961 0.985 . S
C3956 C3950 1.379 . S
C3956 C3953 1.363 . S
C3956 N3954 1.356 . S
C3957 C3951 1.363 . S
C3957 C3952 1.379 . S
C3957 N3955 1.356 . S
N3958 C3950 1.356 . S
N3958 H3964 0.984 . S
N3958 H3965 0.984 . S
N3959 C3952 1.356 . S
N3959 H3962 0.984 . S
N3959 H3963 0.985 . S
H3960 N3955 0.984 . S
H3961 N3955 0.985 . S
H3962 N3959 0.984 . S
H3963 N3959 0.985 . S
H3964 N3958 0.984 . S
H3965 N3958 0.984 . S
H3966 N3954 0.984 . S
H3967 N3954 0.985 . S
C2817 C284 1.536 . S
C2819 C49 1.536 . S
C2835 C196 1.536 . S
C2837 C137 1.536 . S
C2853 C673 1.532 . S
C2855 C372 1.532 . S
C2871 C577 1.532 . S
C2873 C469 1.532 . S
C2889 C753 1.536 . S
C2891 C988 1.536 . S
C2907 C841 1.536 . S
C2909 C909 1.536 . S
C2925 C1377 1.531 . S
C2927 C1076 1.531 . S
C2943 C1173 1.531 . S
C2945 C1281 1.531 . S
C2961 C1465 1.536 . S
C2963 C1701 1.536 . S
C2979 C1545 1.536 . S
C2981 C1613 1.536 . S
C2997 C2081 1.531 . S
C2999 C1780 1.531 . S
C3015 C1985 1.531 . S
C3017 C1868 1.531 . S
C3033 C2396 1.536 . S
C3035 C2169 1.536 . S
C3051 C2249 1.536 . S
C3053 C2317 1.536 . S
C3069 C2484 1.532 . S
C3071 C2785 1.532 . S
C3087 C2581 1.532 . S
C3089 C2697 1.532 . S
C3105 C1817 2.129 . S
C3107 C57 2.116 . S
C3123 C1193 2.127 1_455 S
C3125 C145 2.117 . S
C3141 C205 2.116 . S
C3143 C2660 2.129 . S
C3159 C293 2.117 . S
C3161 C636 2.127 1_455 S
C3177 C1457 2.116 . S
C3179 C409 2.129 . S
C3195 C849 2.117 . S
C3197 C489 2.127 1_455 S
C3213 C2308 2.116 . S
C3215 C557 2.129 . S
C3231 C761 2.116 . S
C3233 C2521 2.129 . S
C3249 C1965 2.129 . S
C3251 C900 2.116 . S
C3267 C1340 2.127 1_455 S
C3269 C997 2.117 . S
C3285 C2161 2.116 . S
C3287 C1113 2.129 . S
C3303 C1261 2.129 . S
C3305 C1604 2.116 . S
C3321 C2601 2.129 . S
C3323 C1553 2.116 . S
C3339 C1692 2.116 . S
C3341 C2044 2.129 . S
C3357 C2257 2.116 . S
C3359 C1905 2.129 . S
C3375 C2748 2.129 . S
C3377 C2405 2.116 . S
C3393 C117 1.799 . S
C3395 C29 1.799 . S
C3411 C233 1.799 . S
C3413 C321 1.799 . S
C3429 C381 1.802 . S
C3431 C460 1.802 . S
C3447 C665 1.802 . S
C3449 C585 1.802 . S
C3465 C733 1.799 . S
C3467 C821 1.799 . S
C3483 C929 1.799 . S
C3485 C1025 1.799 . S
C3501 C1164 1.802 . S
C3503 C1085 1.802 . S
C3519 C1289 1.802 . S
C3521 C1369 1.802 . S
C3537 C1428 1.799 . S
C3539 C1525 1.799 . S
C3555 C1633 1.799 . S
C3557 C1721 1.799 . S
C3573 C1789 1.802 . S
C3575 C1877 1.802 . S
C3591 C2073 1.802 . S
C3593 C1993 1.802 . S
C3609 C2229 1.799 . S
C3611 C2132 1.799 . S
C3627 C2337 1.799 . S
C3629 C2433 1.799 . S
C3645 C2493 1.802 . S
C3647 C2572 1.802 . S
C3663 C2777 1.802 . S
C3665 C2689 1.802 . S
C3681 C20 1.694 . S
C3683 C1729 1.694 . S
C3699 C108 1.694 . S
C3701 C1641 1.694 . S
C3717 C1516 1.694 . S
C3719 C225 1.693 . S
C3735 C313 1.694 . S
C3737 C1437 1.694 . S
C3753 C2053 1.693 . S
C3755 C401 1.693 . S
C3771 C497 1.693 . S
C3773 C1956 1.693 . S
C3789 C1897 1.693 . S
C3791 C548 1.693 . S
C3807 C645 1.693 . S
C3809 C1809 1.693 . S
C3825 C724 1.694 . S
C3827 C2425 1.694 . S
C3843 C812 1.694 . S
C3845 C2345 1.694 . S
C3861 C937 1.694 . S
C3863 C2220 1.694 . S
C3879 C2141 1.694 . S
C3881 C1017 1.694 . S
C3897 C1105 1.693 . S
C3899 C2757 1.693 . S
C3915 C1201 1.693 . S
C3917 C2669 1.693 . S
C3933 C1252 1.693 . S
C3935 C2609 1.693 . S
C3951 C2513 1.693 . S
C3953 C1349 1.693 . S
