# Generated by pormake.
# Topology uog, (4)-cn, num edge types: 1
# Building blocks:
#     Node 0, Type 0, BuildingBlock: QUQFOY_clean_sbu_3, # of connection points: 4
#     Node 1, Type 0, BuildingBlock: QUQFOY_clean_sbu_3, # of connection points: 4
#     Node 2, Type 0, BuildingBlock: QUQFOY_clean_sbu_3, # of connection points: 4
#     Node 3, Type 0, BuildingBlock: QUQFOY_clean_sbu_3, # of connection points: 4
#     Node 4, Type 0, BuildingBlock: QUQFOY_clean_sbu_3, # of connection points: 4
#     Node 5, Type 0, BuildingBlock: QUQFOY_clean_sbu_3, # of connection points: 4
#     Edge 6, Type (0, 0), BuildingBlock: XUDNAN_clean_linker_2, # of connection points: 2
#     Edge 7, Type (0, 0), BuildingBlock: XUDNAN_clean_linker_2, # of connection points: 2
#     Edge 8, Type (0, 0), BuildingBlock: XUDNAN_clean_linker_2, # of connection points: 2
#     Edge 9, Type (0, 0), BuildingBlock: XUDNAN_clean_linker_2, # of connection points: 2
#     Edge 10, Type (0, 0), BuildingBlock: XUDNAN_clean_linker_2, # of connection points: 2
#     Edge 11, Type (0, 0), BuildingBlock: XUDNAN_clean_linker_2, # of connection points: 2
#     Edge 12, Type (0, 0), BuildingBlock: XUDNAN_clean_linker_2, # of connection points: 2
#     Edge 13, Type (0, 0), BuildingBlock: XUDNAN_clean_linker_2, # of connection points: 2
#     Edge 14, Type (0, 0), BuildingBlock: XUDNAN_clean_linker_2, # of connection points: 2
#     Edge 15, Type (0, 0), BuildingBlock: XUDNAN_clean_linker_2, # of connection points: 2
#     Edge 16, Type (0, 0), BuildingBlock: XUDNAN_clean_linker_2, # of connection points: 2
#     Edge 17, Type (0, 0), BuildingBlock: XUDNAN_clean_linker_2, # of connection points: 2
# Relax obj value: 0.081
# Max RMSD: 0.177
# Mean RMSD: 0.177
data_MOF--net-uog--node1-QUQFOY_clean_sbu_3--edge1-XUDNAN_clean_linker_2
_symmetry_space_group_name_H-M    P1
_symmetry_Int_Tables_number       1
_symmetry_cell_setting            triclinic
loop_
_symmetry_equiv_pos_as_xyz
'x, y, z'
_cell_length_a     29.021212
_cell_length_b     28.976226
_cell_length_c     42.972315
_cell_angle_alpha  90.025171
_cell_angle_beta   89.964516
_cell_angle_gamma 120.02264
loop_
_atom_site_label
_atom_site_type_symbol
_atom_site_fract_x
_atom_site_fract_y
_atom_site_fract_z
_atom_type_partial_charge
C0 C 0.7454 0.37075 0.20537 0.0
O1 O 0.77502 0.40791 0.18676 0.0
Cd2 Cd 0.73562 0.41951 0.14044 0.0
O3 O 0.69911 0.33489 0.197 0.0
Cd4 Cd 0.63738 0.29879 0.15299 0.0
C5 C 0.61613 0.39787 0.17374 0.0
O6 O 0.69609 0.3415 0.10896 0.0
O7 O 0.61161 0.30979 0.10157 0.0
O8 O 0.65287 0.22515 0.15698 0.0
C9 C 0.65854 0.3341 0.09066 0.0
O10 O 0.66276 0.42751 0.16282 0.0
C11 C 0.60459 0.18856 0.1591 0.0
O12 O 0.5945 0.34713 0.17393 0.0
O13 O 0.5696 0.20288 0.15837 0.0
C14 C 0.34415 0.72806 0.5292 0.0
O15 O 0.33331 0.75569 0.51095 0.0
Cd16 Cd 0.27271 0.71041 0.46839 0.0
O17 O 0.32863 0.67973 0.52273 0.0
Cd18 Cd 0.28422 0.61268 0.48256 0.0
C19 C 0.17199 0.60563 0.50865 0.0
O20 O 0.29823 0.6618 0.43353 0.0
O21 O 0.23108 0.58125 0.4364 0.0
O22 O 0.36399 0.60549 0.4801 0.0
C23 C 0.25992 0.62203 0.41993 0.0
O24 O 0.18818 0.64881 0.49346 0.0
C25 C 0.34091 0.5558 0.48545 0.0
O26 O 0.20078 0.58391 0.51073 0.0
O27 O 0.29076 0.53196 0.4896 0.0
C28 C 0.64442 0.36211 0.87078 0.0
O29 O 0.60192 0.35403 0.85758 0.0
Cd30 Cd 0.57115 0.29797 0.81182 0.0
O31 O 0.67203 0.34356 0.85917 0.0
Cd32 Cd 0.68131 0.29549 0.81556 0.0
C33 C 0.56989 0.18673 0.84229 0.0
O34 O 0.64017 0.31973 0.77395 0.0
O35 O 0.65516 0.25452 0.76541 0.0
O36 O 0.76979 0.37229 0.81183 0.0
C37 C 0.63794 0.28428 0.75546 0.0
O38 O 0.54576 0.21065 0.83281 0.0
C39 C 0.7949 0.34704 0.81389 0.0
O40 O 0.62051 0.20865 0.84027 0.0
O41 O 0.76703 0.29654 0.81659 0.0
C42 C 0.28902 0.62195 0.19627 0.0
O43 O 0.26364 0.58187 0.17858 0.0
Cd44 Cd 0.30244 0.56868 0.13225 0.0
O45 O 0.33517 0.65927 0.18873 0.0
Cd46 Cd 0.40101 0.68773 0.14665 0.0
C47 C 0.41725 0.58256 0.16494 0.0
O48 O 0.34166 0.64896 0.10241 0.0
O49 O 0.42524 0.67798 0.09392 0.0
O50 O 0.41004 0.77611 0.14898 0.0
C51 C 0.37823 0.65656 0.08332 0.0
O52 O 0.37248 0.55294 0.15186 0.0
C53 C 0.45977 0.80084 0.15423 0.0
O54 O 0.43579 0.63265 0.16768 0.0
O55 O 0.48226 0.77286 0.15595 0.0
C56 C 0.62755 0.29028 0.53472 0.0
O57 O 0.64248 0.26248 0.51958 0.0
Cd58 Cd 0.70569 0.30729 0.47803 0.0
O59 O 0.64036 0.33678 0.52556 0.0
Cd60 Cd 0.6812 0.40321 0.48496 0.0
C61 C 0.7939 0.42265 0.51819 0.0
O62 O 0.68093 0.35182 0.43983 0.0
O63 O 0.73589 0.43735 0.43981 0.0
O64 O 0.59202 0.38459 0.47723 0.0
C65 C 0.71727 0.39286 0.42596 0.0
O66 O 0.78036 0.3772 0.50649 0.0
C67 C 0.60005 0.43112 0.48243 0.0
O68 O 0.76472 0.44387 0.51515 0.0
O69 O 0.64789 0.46733 0.48805 0.0
C70 C 0.35889 0.64209 0.8608 0.0
O71 O 0.40147 0.66055 0.84506 0.0
Cd72 Cd 0.41191 0.71595 0.80035 0.0
O73 O 0.321 0.64858 0.85158 0.0
Cd74 Cd 0.28982 0.68257 0.80993 0.0
C75 C 0.38036 0.80324 0.83716 0.0
O76 O 0.33948 0.6824 0.76378 0.0
O77 O 0.30589 0.73471 0.76404 0.0
O78 O 0.21888 0.59201 0.80373 0.0
C79 C 0.33171 0.71664 0.74966 0.0
O80 O 0.41349 0.79249 0.82433 0.0
C81 C 0.18053 0.60021 0.80892 0.0
O82 O 0.33062 0.76892 0.83767 0.0
O83 O 0.1925 0.64825 0.81425 0.0
H84 H 0.50593 0.09753 0.15368 0.0
H85 H 0.67303 0.15225 0.1705 0.0
H86 H 0.65337 0.05932 0.17289 0.0
H87 H 0.45279 0.97987 0.20394 0.0
H88 H 0.3988 0.93913 0.17792 0.0
H89 H 0.42521 0.01015 0.17915 0.0
H90 H 0.44273 0.01576 0.11976 0.0
H91 H 0.41654 0.94483 0.11837 0.0
H92 H 0.48258 0.98956 0.10397 0.0
H93 H 0.61721 0.96136 0.17148 0.0
H94 H 0.56598 0.86344 0.1664 0.0
H95 H 0.42217 0.87092 0.15012 0.0
C96 C 0.5382 0.08986 0.15821 0.0
C97 C 0.591 0.13221 0.16195 0.0
C98 C 0.63226 0.12054 0.16751 0.0
C99 C 0.62153 0.06784 0.16898 0.0
C100 C 0.56931 0.02704 0.16483 0.0
C101 C 0.52822 0.03723 0.15961 0.0
C102 C 0.47599 0.98578 0.15487 0.0
C103 C 0.43583 0.9783 0.1805 0.0
C104 C 0.45313 0.98389 0.12231 0.0
C105 C 0.49442 0.94536 0.15795 0.0
C106 C 0.54836 0.9701 0.16384 0.0
C107 C 0.57486 0.94141 0.16703 0.0
C108 C 0.54543 0.88581 0.16406 0.0
C109 C 0.4901 0.85949 0.1579 0.0
C110 C 0.46439 0.88984 0.15493 0.0
H111 H 0.44936 0.59929 0.48539 0.0
H112 H 0.30117 0.448 0.48732 0.0
H113 H 0.35194 0.40042 0.48692 0.0
H114 H 0.52059 0.55946 0.43448 0.0
H115 H 0.58321 0.59691 0.45452 0.0
H116 H 0.53546 0.61932 0.45537 0.0
H117 H 0.5367 0.61902 0.51565 0.0
H118 H 0.58461 0.59678 0.51501 0.0
H119 H 0.52298 0.55905 0.53599 0.0
H120 H 0.41794 0.36947 0.48432 0.0
H121 H 0.49512 0.35611 0.48245 0.0
H122 H 0.60169 0.52753 0.4839 0.0
C123 C 0.42756 0.55613 0.48581 0.0
C124 C 0.37124 0.52726 0.48629 0.0
C125 C 0.34424 0.47088 0.48698 0.0
C126 C 0.37273 0.44355 0.4867 0.0
C127 C 0.42816 0.47321 0.486 0.0
C128 C 0.45538 0.52823 0.48582 0.0
C129 C 0.51512 0.55044 0.48525 0.0
C130 C 0.54005 0.58348 0.45564 0.0
C131 C 0.54139 0.58326 0.51474 0.0
C132 C 0.51723 0.49923 0.48486 0.0
C133 C 0.46652 0.45526 0.48518 0.0
C134 C 0.45782 0.40355 0.48423 0.0
C135 C 0.50206 0.39646 0.48307 0.0
C136 C 0.55455 0.4408 0.48305 0.0
C137 C 0.56212 0.4929 0.48402 0.0
H138 H 0.86254 0.45498 0.81538 0.0
H139 H 0.86053 0.3043 0.81093 0.0
H140 H 0.95895 0.35307 0.80908 0.0
H141 H 0.97242 0.52785 0.7635 0.0
H142 H -0.00052 0.58911 0.78529 0.0
H143 H 0.92904 0.54241 0.78627 0.0
H144 H 0.93217 0.53915 0.84645 0.0
H145 H 0.00262 0.5859 0.84567 0.0
H146 H 0.97778 0.52248 0.86483 0.0
H147 H 0.05706 0.41815 0.80669 0.0
H148 H 0.14847 0.49449 0.80569 0.0
H149 H 0.08703 0.60337 0.81295 0.0
C150 C 0.88274 0.43215 0.81399 0.0
C151 C 0.85383 0.37574 0.81319 0.0
C152 C 0.88183 0.34745 0.81157 0.0
C153 C 0.93769 0.37482 0.81047 0.0
C154 C 0.96487 0.43042 0.81121 0.0
C155 C 0.93838 0.45878 0.81309 0.0
C156 C 0.97703 0.51836 0.81384 0.0
C157 C 0.969 0.54605 0.78554 0.0
C158 C 0.9721 0.5429 0.84453 0.0
C159 C 0.02956 0.51918 0.81195 0.0
C160 C 0.02153 0.46799 0.81035 0.0
C161 C 0.0638 0.45837 0.80803 0.0
C162 C 0.11564 0.50212 0.80742 0.0
C163 C 0.12502 0.55503 0.80927 0.0
C164 C 0.08122 0.56349 0.8116 0.0
H165 H 0.09453 0.63186 0.49991 0.0
H166 H 0.12627 0.51837 0.54724 0.0
H167 H 0.03276 0.46866 0.56472 0.0
H168 H 0.99109 0.6251 0.55614 0.0
H169 H 0.95236 0.62971 0.52478 0.0
H170 H 0.02386 0.66263 0.52164 0.0
H171 H 0.01502 0.61285 0.46989 0.0
H172 H 0.94386 0.58016 0.47281 0.0
H173 H 0.97617 0.54107 0.46909 0.0
H174 H 0.93448 0.42303 0.56882 0.0
H175 H 0.83877 0.38303 0.55726 0.0
H176 H 0.86969 0.52617 0.50813 0.0
C177 C 0.08231 0.5975 0.51478 0.0
C178 C 0.11788 0.57919 0.52234 0.0
C179 C 0.09988 0.5333 0.54123 0.0
C180 C 0.04689 0.50502 0.55146 0.0
C181 C 0.0125 0.52337 0.54286 0.0
C182 C 0.02956 0.56873 0.52503 0.0
C183 C 0.9834 0.5761 0.51541 0.0
C184 C 0.98796 0.62637 0.5304 0.0
C185 C 0.97939 0.57758 0.4797 0.0
C186 C 0.93726 0.52613 0.52907 0.0
C187 C 0.95508 0.49694 0.54547 0.0
C188 C 0.92006 0.44616 0.55684 0.0
C189 C 0.86578 0.42377 0.55021 0.0
C190 C 0.84705 0.45212 0.53243 0.0
C191 C 0.88292 0.50467 0.52281 0.0
H192 H 0.48397 0.88277 0.84037 0.0
H193 H 0.32308 0.84841 0.86 0.0
H194 H 0.35786 0.94357 0.87237 0.0
H195 H 0.55401 0.99245 0.89892 0.0
H196 H 0.60891 0.0294 0.87266 0.0
H197 H 0.57276 0.95755 0.87156 0.0
H198 H 0.55449 0.96035 0.81276 0.0
H199 H 0.5902 0.03191 0.81369 0.0
H200 H 0.52243 0.99662 0.79997 0.0
H201 H 0.40795 0.04338 0.87404 0.0
H202 H 0.46828 0.13915 0.86454 0.0
H203 H 0.59662 0.1083 0.84348 0.0
C204 C 0.456 0.89476 0.84812 0.0
C205 C 0.40069 0.85797 0.84928 0.0
C206 C 0.3656 0.8757 0.85914 0.0
C207 C 0.38506 0.92968 0.86628 0.0
C208 C 0.43969 0.96516 0.86378 0.0
C209 C 0.4747 0.94825 0.85519 0.0
C210 C 0.53055 0.99477 0.85068 0.0
C211 C 0.56882 0.99346 0.87491 0.0
C212 C 0.55054 0.99596 0.8173 0.0
C213 C 0.52115 0.04086 0.85656 0.0
C214 C 0.4687 0.02292 0.86469 0.0
C215 C 0.44928 0.05786 0.86834 0.0
C216 C 0.48387 0.11221 0.86275 0.0
C217 C 0.53728 0.1312 0.85343 0.0
C218 C 0.55641 0.09514 0.85124 0.0
H219 H 0.3974 0.48069 0.15506 0.0
H220 H 0.50923 0.63035 0.19924 0.0
H221 H 0.56545 0.5923 0.21399 0.0
H222 H 0.41497 0.39102 0.2104 0.0
H223 H 0.41013 0.34662 0.17955 0.0
H224 H 0.37432 0.38245 0.17677 0.0
H225 H 0.41937 0.42173 0.12369 0.0
H226 H 0.45506 0.38602 0.12626 0.0
H227 H 0.49099 0.45732 0.12108 0.0
H228 H 0.61526 0.54365 0.21728 0.0
H229 H 0.65653 0.48839 0.20775 0.0
H230 H 0.51231 0.36904 0.16251 0.0
C231 C 0.43305 0.5051 0.1685 0.0
C232 C 0.44877 0.5585 0.1761 0.0
C233 C 0.49626 0.58936 0.19319 0.0
C234 C 0.5283 0.56796 0.20185 0.0
C235 C 0.51212 0.51554 0.19348 0.0
C236 C 0.46552 0.4844 0.17727 0.0
C237 C 0.45997 0.43123 0.16831 0.0
C238 C 0.41199 0.3851 0.18475 0.0
C239 C 0.45616 0.42368 0.13274 0.0
C240 C 0.51188 0.43825 0.18082 0.0
C241 C 0.54091 0.48688 0.19572 0.0
C242 C 0.59246 0.505 0.20635 0.0
C243 C 0.61558 0.47342 0.20081 0.0
C244 C 0.58713 0.42423 0.18491 0.0
C245 C 0.53411 0.40568 0.17563 0.0
H246 H 0.57656 0.34917 0.91788 0.0
H247 H 0.74381 0.42215 0.89459 0.0
H248 H 0.76697 0.43692 0.9503 0.0
H249 H 0.5933 0.42894 -0.00698 0.0
H250 H 0.54063 0.37025 0.01137 0.0
H251 H 0.53833 0.38031 0.97012 0.0
H252 H 0.52889 0.28787 0.95995 0.0
H253 H 0.53253 0.27797 0.00089 0.0
H254 H 0.57897 0.2741 0.97466 0.0
H255 H 0.77074 0.42495 0.00719 0.0
H256 H 0.75493 0.3923 0.06144 0.0
H257 H 0.58496 0.32441 0.04781 0.0
C258 C 0.61811 0.37105 0.92453 0.0
C259 C 0.65849 0.38536 0.90213 0.0
C260 C 0.71244 0.41161 0.91155 0.0
C261 C 0.72593 0.42015 0.94312 0.0
C262 C 0.68498 0.40224 0.96489 0.0
C263 C 0.63211 0.37901 0.95603 0.0
C264 C 0.59537 0.35554 0.98375 0.0
C265 C 0.56513 0.38557 0.98993 0.0
C266 C 0.55673 0.29533 0.97954 0.0
C267 C 0.63562 0.36622 0.00912 0.0
C268 C 0.68712 0.39423 -0.00204 0.0
C269 C 0.73068 0.40422 0.01642 0.0
C270 C 0.72131 0.38513 0.0471 0.0
C271 C 0.66877 0.35591 0.05879 0.0
C272 C 0.62563 0.34707 0.0396 0.0
H273 H 0.34095 0.69225 0.24349 0.0
H274 H 0.19038 0.55203 0.22003 0.0
H275 H 0.16147 0.54522 0.27467 0.0
H276 H 0.36052 0.64446 0.31102 0.0
H277 H 0.3902 0.70624 0.33244 0.0
H278 H 0.39498 0.70728 0.29074 0.0
H279 H 0.35182 0.7667 0.28737 0.0
H280 H 0.34741 0.7664 0.32923 0.0
H281 H 0.28857 0.74529 0.30593 0.0
H282 H 0.15497 0.5447 0.33231 0.0
H283 H 0.17032 0.55125 0.3889 0.0
H284 H 0.3255 0.69159 0.37525 0.0
C285 C 0.30116 0.66112 0.24955 0.0
C286 C 0.26781 0.62278 0.22743 0.0
C287 C 0.21652 0.58199 0.23652 0.0
C288 C 0.19968 0.57791 0.26749 0.0
C289 C 0.23445 0.61515 0.28896 0.0
C290 C 0.28394 0.65632 0.28034 0.0
C291 C 0.31613 0.68737 0.3084 0.0
C292 C 0.36851 0.68621 0.31078 0.0
C293 C 0.32658 0.74485 0.30768 0.0
C294 C 0.27803 0.65563 0.33428 0.0
C295 C 0.23078 0.61474 0.32252 0.0
C296 C 0.19129 0.57719 0.3418 0.0
C297 C 0.20055 0.5811 0.37391 0.0
C298 C 0.24904 0.62209 0.38642 0.0
C299 C 0.28774 0.66041 0.36635 0.0
H300 H 0.65077 0.22925 0.7082 0.0
H301 H 0.58036 0.32666 0.73038 0.0
H302 H 0.55129 0.32024 0.67569 0.0
H303 H 0.70705 0.29084 0.64003 0.0
H304 H 0.69714 0.23214 0.61968 0.0
H305 H 0.70181 0.2348 0.66134 0.0
H306 H 0.61029 0.14787 0.6649 0.0
H307 H 0.60517 0.14538 0.62304 0.0
H308 H 0.55305 0.14456 0.64629 0.0
H309 H 0.54221 0.31497 0.61836 0.0
H310 H 0.56211 0.31983 0.56235 0.0
H311 H 0.63943 0.22662 0.5769 0.0
C312 C 0.62793 0.24801 0.70174 0.0
C313 C 0.6174 0.27813 0.72347 0.0
C314 C 0.58868 0.30329 0.71404 0.0
C315 C 0.57155 0.29935 0.68314 0.0
C316 C 0.58336 0.26999 0.66211 0.0
C317 C 0.6111 0.24491 0.67101 0.0
C318 C 0.62574 0.22266 0.64324 0.0
C319 C 0.68651 0.24658 0.64094 0.0
C320 C 0.59682 0.16148 0.64445 0.0
C321 C 0.60457 0.24178 0.6171 0.0
C322 C 0.57878 0.26754 0.62857 0.0
C323 C 0.56124 0.29394 0.60908 0.0
C324 C 0.57273 0.2965 0.5773 0.0
C325 C 0.60192 0.2732 0.5654 0.0
C326 C 0.61574 0.24338 0.5853 0.0
H327 H 0.43875 0.6703 0.90306 0.0
H328 H 0.26899 0.56776 0.88971 0.0
H329 H 0.25742 0.54986 0.94605 0.0
H330 H 0.45221 0.59573 0.97317 0.0
H331 H 0.49989 0.65785 -0.009 0.0
H332 H 0.49684 0.65141 0.9492 0.0
H333 H 0.48458 0.73381 0.94527 0.0
H334 H 0.48626 0.73984 0.9869 0.0
H335 H 0.42999 0.73354 0.96551 0.0
H336 H 0.26102 0.55896 0.00335 0.0
H337 H 0.28107 0.58775 0.05817 0.0
H338 H 0.44856 0.68439 0.03506 0.0
C339 C 0.39969 0.64185 0.91187 0.0
C340 C 0.35485 0.61984 0.89213 0.0
C341 C 0.30387 0.58455 0.90452 0.0
C342 C 0.29692 0.57415 0.93648 0.0
C343 C 0.34142 0.59913 0.95568 0.0
C344 C 0.39205 0.63148 0.94385 0.0
C345 C 0.43197 0.65905 0.96978 0.0
C346 C 0.47262 0.63984 0.97085 0.0
C347 C 0.45978 0.72015 0.96666 0.0
C348 C 0.3954 0.6395 -0.00222 0.0
C349 C 0.34347 0.60439 0.98918 0.0
C350 C 0.30173 0.58525 0.01053 0.0
C351 C 0.3134 0.60221 0.04153 0.0
C352 C 0.36636 0.63799 0.05081 0.0
C353 C 0.40782 0.6563 0.02868 0.0
H354 H 0.66885 0.31484 0.38179 0.0
H355 H 0.812 0.46545 0.40053 0.0
H356 H 0.8436 0.46648 0.3472 0.0
H357 H 0.7307 0.26067 0.32537 0.0
H358 H 0.6722 0.23197 0.30112 0.0
H359 H 0.66601 0.23684 0.34259 0.0
H360 H 0.61593 0.2888 0.33343 0.0
H361 H 0.62182 0.2839 0.29213 0.0
H362 H 0.64667 0.34838 0.30996 0.0
H363 H 0.85306 0.45921 0.29041 0.0
H364 H 0.837 0.44644 0.23388 0.0
H365 H 0.68781 0.3007 0.25149 0.0
C366 C 0.70758 0.34707 0.37489 0.0
C367 C 0.7381 0.38988 0.39521 0.0
C368 C 0.78797 0.43221 0.38524 0.0
C369 C 0.80652 0.43293 0.35509 0.0
C370 C 0.77484 0.39092 0.33522 0.0
C371 C 0.72645 0.34864 0.3447 0.0
C372 C 0.69678 0.31246 0.31764 0.0
C373 C 0.69111 0.25721 0.32194 0.0
C374 C 0.64212 0.3082 0.31303 0.0
C375 C 0.73464 0.34265 0.29129 0.0
C376 C 0.78009 0.387 0.302 0.0
C377 C 0.81822 0.42398 0.28172 0.0
C378 C 0.80874 0.41644 0.24963 0.0
C379 C 0.76119 0.37258 0.23824 0.0
C380 C 0.72487 0.3343 0.25941 0.0
H381 H 0.35782 0.66704 0.70438 0.0
H382 H 0.35069 0.81014 0.72391 0.0
H383 H 0.37452 0.83913 0.66955 0.0
H384 H 0.46615 0.72736 0.64206 0.0
H385 H 0.43344 0.66705 0.61934 0.0
H386 H 0.42912 0.66373 0.66123 0.0
H387 H 0.3261 0.61136 0.65771 0.0
H388 H 0.33021 0.61433 0.61604 0.0
H389 H 0.29274 0.63948 0.63613 0.0
H390 H 0.38186 0.8446 0.61222 0.0
H391 H 0.36673 0.82305 0.5563 0.0
H392 H 0.36962 0.67685 0.5732 0.0
C393 C 0.36323 0.70534 0.69738 0.0
C394 C 0.35273 0.73647 0.71826 0.0
C395 C 0.35859 0.78566 0.7082 0.0
C396 C 0.37263 0.80276 0.67744 0.0
C397 C 0.38096 0.77035 0.65701 0.0
C398 C 0.3767 0.72271 0.66657 0.0
C399 C 0.37944 0.69147 0.6391 0.0
C400 C 0.43007 0.68717 0.64052 0.0
C401 C 0.32913 0.63594 0.63714 0.0
C402 C 0.38223 0.72722 0.61259 0.0
C403 C 0.38475 0.77332 0.62342 0.0
C404 C 0.38122 0.80932 0.60337 0.0
C405 C 0.37262 0.79677 0.5716 0.0
C406 C 0.36696 0.74829 0.56036 0.0
C407 C 0.37436 0.71453 0.581 0.0
loop_
_geom_bond_atom_site_label_1
_geom_bond_atom_site_label_2
_geom_bond_distance
_geom_bond_site_symmetry_2
_ccdc_geom_bond_type
C0 O1 1.306 . S
C0 O3 1.160 . S
O1 C0 1.306 . S
O1 Cd2 2.228 . S
Cd2 O1 2.228 . S
Cd2 O6 2.273 . S
Cd2 O10 2.277 . S
O3 C0 1.160 . S
O3 Cd4 2.203 . S
Cd4 O3 2.203 . S
Cd4 O6 2.411 . S
Cd4 O7 2.333 . S
Cd4 O8 2.352 . S
Cd4 O12 2.277 . S
Cd4 O13 2.356 . S
C5 O10 1.209 . S
C5 O12 1.226 . S
O6 Cd2 2.273 . S
O6 Cd4 2.411 . S
O6 C9 1.320 . S
O7 Cd4 2.333 . S
O7 C9 1.214 . S
O8 Cd4 2.352 . S
O8 C11 1.258 . S
C9 O6 1.320 . S
C9 O7 1.214 . S
O10 Cd2 2.277 . S
O10 C5 1.209 . S
C11 O8 1.258 . S
C11 O13 1.282 . S
O12 Cd4 2.277 . S
O12 C5 1.226 . S
O13 Cd4 2.356 . S
O13 C11 1.282 . S
C14 O15 1.306 . S
C14 O17 1.160 . S
O15 C14 1.306 . S
O15 Cd16 2.228 . S
Cd16 O15 2.228 . S
Cd16 O20 2.273 . S
Cd16 O24 2.277 . S
O17 C14 1.160 . S
O17 Cd18 2.203 . S
Cd18 O17 2.203 . S
Cd18 O20 2.411 . S
Cd18 O21 2.333 . S
Cd18 O22 2.352 . S
Cd18 O26 2.277 . S
Cd18 O27 2.356 . S
C19 O24 1.209 . S
C19 O26 1.226 . S
O20 Cd16 2.273 . S
O20 Cd18 2.411 . S
O20 C23 1.320 . S
O21 Cd18 2.333 . S
O21 C23 1.214 . S
O22 Cd18 2.352 . S
O22 C25 1.258 . S
C23 O20 1.320 . S
C23 O21 1.214 . S
O24 Cd16 2.277 . S
O24 C19 1.209 . S
C25 O22 1.258 . S
C25 O27 1.282 . S
O26 Cd18 2.277 . S
O26 C19 1.226 . S
O27 Cd18 2.356 . S
O27 C25 1.282 . S
C28 O29 1.306 . S
C28 O31 1.160 . S
O29 C28 1.306 . S
O29 Cd30 2.228 . S
Cd30 O29 2.228 . S
Cd30 O34 2.273 . S
Cd30 O38 2.277 . S
O31 C28 1.160 . S
O31 Cd32 2.203 . S
Cd32 O31 2.203 . S
Cd32 O34 2.411 . S
Cd32 O35 2.333 . S
Cd32 O36 2.352 . S
Cd32 O40 2.277 . S
Cd32 O41 2.356 . S
C33 O38 1.209 . S
C33 O40 1.226 . S
O34 Cd30 2.273 . S
O34 Cd32 2.411 . S
O34 C37 1.320 . S
O35 Cd32 2.333 . S
O35 C37 1.214 . S
O36 Cd32 2.352 . S
O36 C39 1.258 . S
C37 O34 1.320 . S
C37 O35 1.214 . S
O38 Cd30 2.277 . S
O38 C33 1.209 . S
C39 O36 1.258 . S
C39 O41 1.282 . S
O40 Cd32 2.277 . S
O40 C33 1.226 . S
O41 Cd32 2.356 . S
O41 C39 1.282 . S
C42 O43 1.306 . S
C42 O45 1.160 . S
O43 C42 1.306 . S
O43 Cd44 2.228 . S
Cd44 O43 2.228 . S
Cd44 O48 2.273 . S
Cd44 O52 2.277 . S
O45 C42 1.160 . S
O45 Cd46 2.203 . S
Cd46 O45 2.203 . S
Cd46 O48 2.411 . S
Cd46 O49 2.333 . S
Cd46 O50 2.352 . S
Cd46 O54 2.277 . S
Cd46 O55 2.356 . S
C47 O52 1.209 . S
C47 O54 1.226 . S
O48 Cd44 2.273 . S
O48 Cd46 2.411 . S
O48 C51 1.320 . S
O49 Cd46 2.333 . S
O49 C51 1.214 . S
O50 Cd46 2.352 . S
O50 C53 1.258 . S
C51 O48 1.320 . S
C51 O49 1.214 . S
O52 Cd44 2.277 . S
O52 C47 1.209 . S
C53 O50 1.258 . S
C53 O55 1.282 . S
O54 Cd46 2.277 . S
O54 C47 1.226 . S
O55 Cd46 2.356 . S
O55 C53 1.282 . S
C56 O57 1.306 . S
C56 O59 1.160 . S
O57 C56 1.306 . S
O57 Cd58 2.228 . S
Cd58 O57 2.228 . S
Cd58 O62 2.273 . S
Cd58 O66 2.277 . S
O59 C56 1.160 . S
O59 Cd60 2.203 . S
Cd60 O59 2.203 . S
Cd60 O62 2.411 . S
Cd60 O63 2.333 . S
Cd60 O64 2.352 . S
Cd60 O68 2.277 . S
Cd60 O69 2.356 . S
C61 O66 1.209 . S
C61 O68 1.226 . S
O62 Cd58 2.273 . S
O62 Cd60 2.411 . S
O62 C65 1.320 . S
O63 Cd60 2.333 . S
O63 C65 1.214 . S
O64 Cd60 2.352 . S
O64 C67 1.258 . S
C65 O62 1.320 . S
C65 O63 1.214 . S
O66 Cd58 2.277 . S
O66 C61 1.209 . S
C67 O64 1.258 . S
C67 O69 1.282 . S
O68 Cd60 2.277 . S
O68 C61 1.226 . S
O69 Cd60 2.356 . S
O69 C67 1.282 . S
C70 O71 1.306 . S
C70 O73 1.160 . S
O71 C70 1.306 . S
O71 Cd72 2.228 . S
Cd72 O71 2.228 . S
Cd72 O76 2.273 . S
Cd72 O80 2.277 . S
O73 C70 1.160 . S
O73 Cd74 2.203 . S
Cd74 O73 2.203 . S
Cd74 O76 2.411 . S
Cd74 O77 2.333 . S
Cd74 O78 2.352 . S
Cd74 O82 2.277 . S
Cd74 O83 2.356 . S
C75 O80 1.209 . S
C75 O82 1.226 . S
O76 Cd72 2.273 . S
O76 Cd74 2.411 . S
O76 C79 1.320 . S
O77 Cd74 2.333 . S
O77 C79 1.214 . S
O78 Cd74 2.352 . S
O78 C81 1.258 . S
C79 O76 1.320 . S
C79 O77 1.214 . S
O80 Cd72 2.277 . S
O80 C75 1.209 . S
C81 O78 1.258 . S
C81 O83 1.282 . S
O82 Cd74 2.277 . S
O82 C75 1.226 . S
O83 Cd74 2.356 . S
O83 C81 1.282 . S
H84 C96 0.930 . S
H85 C98 0.930 . S
H86 C99 0.930 . S
H87 C103 0.959 . S
H88 C103 0.959 . S
H89 C103 0.961 1_545 S
H90 C104 0.960 . S
H91 C104 0.961 1_565 S
H92 C104 0.959 . S
H93 C107 0.929 . S
H94 C108 0.931 . S
H95 C110 0.930 . S
C96 H84 0.930 . S
C96 C97 1.399 . S
C96 C101 1.399 . S
C97 C96 1.399 . S
C97 C98 1.376 . S
C98 H85 0.930 . S
C98 C97 1.376 . S
C98 C99 1.388 . S
C99 H86 0.930 . S
C99 C98 1.388 . S
C99 C100 1.390 . S
C100 C99 1.390 . S
C100 C101 1.394 . S
C100 C106 1.465 1_545 S
C101 C96 1.399 . S
C101 C100 1.394 . S
C101 C102 1.516 1_545 S
C102 C101 1.516 1_565 S
C102 C103 1.502 . S
C102 C104 1.561 1_565 S
C102 C105 1.526 . S
C103 H87 0.959 . S
C103 H88 0.959 . S
C103 H89 0.961 1_565 S
C103 C102 1.502 . S
C104 H90 0.960 . S
C104 H91 0.961 1_545 S
C104 H92 0.959 . S
C104 C102 1.561 1_545 S
C105 C102 1.526 . S
C105 C106 1.396 . S
C105 C110 1.390 . S
C106 C100 1.465 1_565 S
C106 C105 1.396 . S
C106 C107 1.399 . S
C107 H93 0.929 . S
C107 C106 1.399 . S
C107 C108 1.385 . S
C108 H94 0.931 . S
C108 C107 1.385 . S
C108 C109 1.389 . S
C109 C108 1.389 . S
C109 C110 1.387 . S
C110 H95 0.930 . S
C110 C105 1.390 . S
C110 C109 1.387 . S
H111 C123 0.930 . S
H112 C125 0.930 . S
H113 C126 0.930 . S
H114 C130 0.959 . S
H115 C130 0.959 . S
H116 C130 0.961 . S
H117 C131 0.960 . S
H118 C131 0.961 . S
H119 C131 0.959 . S
H120 C134 0.929 . S
H121 C135 0.931 . S
H122 C137 0.930 . S
C123 H111 0.930 . S
C123 C124 1.399 . S
C123 C128 1.399 . S
C124 C123 1.399 . S
C124 C125 1.376 . S
C125 H112 0.930 . S
C125 C124 1.376 . S
C125 C126 1.388 . S
C126 H113 0.930 . S
C126 C125 1.388 . S
C126 C127 1.390 . S
C127 C126 1.390 . S
C127 C128 1.394 . S
C127 C133 1.465 . S
C128 C123 1.399 . S
C128 C127 1.394 . S
C128 C129 1.516 . S
C129 C128 1.516 . S
C129 C130 1.502 . S
C129 C131 1.561 . S
C129 C132 1.526 . S
C130 H114 0.959 . S
C130 H115 0.959 . S
C130 H116 0.961 . S
C130 C129 1.502 . S
C131 H117 0.960 . S
C131 H118 0.961 . S
C131 H119 0.959 . S
C131 C129 1.561 . S
C132 C129 1.526 . S
C132 C133 1.396 . S
C132 C137 1.390 . S
C133 C127 1.465 . S
C133 C132 1.396 . S
C133 C134 1.399 . S
C134 H120 0.929 . S
C134 C133 1.399 . S
C134 C135 1.385 . S
C135 H121 0.931 . S
C135 C134 1.385 . S
C135 C136 1.389 . S
C136 C135 1.389 . S
C136 C137 1.387 . S
C137 H122 0.930 . S
C137 C132 1.390 . S
C137 C136 1.387 . S
H138 C150 0.930 . S
H139 C152 0.930 . S
H140 C153 0.930 . S
H141 C157 0.959 . S
H142 C157 0.959 1_455 S
H143 C157 0.961 . S
H144 C158 0.960 1_655 S
H145 C158 0.961 . S
H146 C158 0.959 . S
H147 C161 0.929 . S
H148 C162 0.931 . S
H149 C164 0.930 . S
C150 H138 0.930 . S
C150 C151 1.399 . S
C150 C155 1.399 . S
C151 C150 1.399 . S
C151 C152 1.376 . S
C152 H139 0.930 . S
C152 C151 1.376 . S
C152 C153 1.388 . S
C153 H140 0.930 . S
C153 C152 1.388 . S
C153 C154 1.390 . S
C154 C153 1.390 . S
C154 C155 1.394 . S
C154 C160 1.465 1_655 S
C155 C150 1.399 . S
C155 C154 1.394 . S
C155 C156 1.516 . S
C156 C155 1.516 . S
C156 C157 1.502 . S
C156 C158 1.561 1_655 S
C156 C159 1.526 1_655 S
C157 H141 0.959 . S
C157 H142 0.959 1_655 S
C157 H143 0.961 . S
C157 C156 1.502 . S
C158 H144 0.960 1_455 S
C158 H145 0.961 . S
C158 H146 0.959 . S
C158 C156 1.561 1_455 S
C159 C156 1.526 1_455 S
C159 C160 1.396 . S
C159 C164 1.390 . S
C160 C154 1.465 1_455 S
C160 C159 1.396 . S
C160 C161 1.399 . S
C161 H147 0.929 . S
C161 C160 1.399 . S
C161 C162 1.385 . S
C162 H148 0.931 . S
C162 C161 1.385 . S
C162 C163 1.389 . S
C163 C162 1.389 . S
C163 C164 1.387 . S
C164 H149 0.930 . S
C164 C159 1.390 . S
C164 C163 1.387 . S
H165 C177 0.930 . S
H166 C179 0.930 . S
H167 C180 0.930 . S
H168 C184 0.959 . S
H169 C184 0.959 1_655 S
H170 C184 0.961 . S
H171 C185 0.960 1_455 S
H172 C185 0.961 . S
H173 C185 0.959 . S
H174 C188 0.929 . S
H175 C189 0.931 . S
H176 C191 0.930 . S
C177 H165 0.930 . S
C177 C178 1.399 . S
C177 C182 1.399 . S
C178 C177 1.399 . S
C178 C179 1.376 . S
C179 H166 0.930 . S
C179 C178 1.376 . S
C179 C180 1.388 . S
C180 H167 0.930 . S
C180 C179 1.388 . S
C180 C181 1.390 . S
C181 C180 1.390 . S
C181 C182 1.394 . S
C181 C187 1.465 1_455 S
C182 C177 1.399 . S
C182 C181 1.394 . S
C182 C183 1.516 . S
C183 C182 1.516 . S
C183 C184 1.502 . S
C183 C185 1.561 1_455 S
C183 C186 1.526 1_455 S
C184 H168 0.959 . S
C184 H169 0.959 1_455 S
C184 H170 0.961 . S
C184 C183 1.502 . S
C185 H171 0.960 1_655 S
C185 H172 0.961 . S
C185 H173 0.959 . S
C185 C183 1.561 1_655 S
C186 C183 1.526 1_655 S
C186 C187 1.396 . S
C186 C191 1.390 . S
C187 C181 1.465 1_655 S
C187 C186 1.396 . S
C187 C188 1.399 . S
C188 H174 0.929 . S
C188 C187 1.399 . S
C188 C189 1.385 . S
C189 H175 0.931 . S
C189 C188 1.385 . S
C189 C190 1.389 . S
C190 C189 1.389 . S
C190 C191 1.387 . S
C191 H176 0.930 . S
C191 C186 1.390 . S
C191 C190 1.387 . S
H192 C204 0.930 . S
H193 C206 0.930 . S
H194 C207 0.930 . S
H195 C211 0.959 . S
H196 C211 0.959 1_545 S
H197 C211 0.961 . S
H198 C212 0.960 1_565 S
H199 C212 0.961 . S
H200 C212 0.959 . S
H201 C215 0.929 . S
H202 C216 0.931 . S
H203 C218 0.930 . S
C204 H192 0.930 . S
C204 C205 1.399 . S
C204 C209 1.399 . S
C205 C204 1.399 . S
C205 C206 1.376 . S
C206 H193 0.930 . S
C206 C205 1.376 . S
C206 C207 1.388 . S
C207 H194 0.930 . S
C207 C206 1.388 . S
C207 C208 1.390 . S
C208 C207 1.390 . S
C208 C209 1.394 . S
C208 C214 1.465 1_565 S
C209 C204 1.399 . S
C209 C208 1.394 . S
C209 C210 1.516 . S
C210 C209 1.516 . S
C210 C211 1.502 . S
C210 C212 1.561 1_565 S
C210 C213 1.526 1_565 S
C211 H195 0.959 . S
C211 H196 0.959 1_565 S
C211 H197 0.961 . S
C211 C210 1.502 . S
C212 H198 0.960 1_545 S
C212 H199 0.961 . S
C212 H200 0.959 . S
C212 C210 1.561 1_545 S
C213 C210 1.526 1_545 S
C213 C214 1.396 . S
C213 C218 1.390 . S
C214 C208 1.465 1_545 S
C214 C213 1.396 . S
C214 C215 1.399 . S
C215 H201 0.929 . S
C215 C214 1.399 . S
C215 C216 1.385 . S
C216 H202 0.931 . S
C216 C215 1.385 . S
C216 C217 1.389 . S
C217 C216 1.389 . S
C217 C218 1.387 . S
C218 H203 0.930 . S
C218 C213 1.390 . S
C218 C217 1.387 . S
H219 C231 0.930 . S
H220 C233 0.930 . S
H221 C234 0.930 . S
H222 C238 0.959 . S
H223 C238 0.959 . S
H224 C238 0.961 . S
H225 C239 0.960 . S
H226 C239 0.961 . S
H227 C239 0.959 . S
H228 C242 0.929 . S
H229 C243 0.931 . S
H230 C245 0.930 . S
C231 H219 0.930 . S
C231 C232 1.399 . S
C231 C236 1.399 . S
C232 C231 1.399 . S
C232 C233 1.376 . S
C233 H220 0.930 . S
C233 C232 1.376 . S
C233 C234 1.388 . S
C234 H221 0.930 . S
C234 C233 1.388 . S
C234 C235 1.390 . S
C235 C234 1.390 . S
C235 C236 1.394 . S
C235 C241 1.465 . S
C236 C231 1.399 . S
C236 C235 1.394 . S
C236 C237 1.516 . S
C237 C236 1.516 . S
C237 C238 1.502 . S
C237 C239 1.561 . S
C237 C240 1.526 . S
C238 H222 0.959 . S
C238 H223 0.959 . S
C238 H224 0.961 . S
C238 C237 1.502 . S
C239 H225 0.960 . S
C239 H226 0.961 . S
C239 H227 0.959 . S
C239 C237 1.561 . S
C240 C237 1.526 . S
C240 C241 1.396 . S
C240 C245 1.390 . S
C241 C235 1.465 . S
C241 C240 1.396 . S
C241 C242 1.399 . S
C242 H228 0.929 . S
C242 C241 1.399 . S
C242 C243 1.385 . S
C243 H229 0.931 . S
C243 C242 1.385 . S
C243 C244 1.389 . S
C244 C243 1.389 . S
C244 C245 1.387 . S
C245 H230 0.930 . S
C245 C240 1.390 . S
C245 C244 1.387 . S
H246 C258 0.930 . S
H247 C260 0.930 . S
H248 C261 0.930 . S
H249 C265 0.959 . S
H250 C265 0.959 . S
H251 C265 0.961 1_556 S
H252 C266 0.960 1_556 S
H253 C266 0.961 . S
H254 C266 0.959 . S
H255 C269 0.929 . S
H256 C270 0.931 . S
H257 C272 0.930 . S
C258 H246 0.930 . S
C258 C259 1.399 . S
C258 C263 1.399 . S
C259 C258 1.399 . S
C259 C260 1.376 . S
C260 H247 0.930 . S
C260 C259 1.376 . S
C260 C261 1.388 . S
C261 H248 0.930 . S
C261 C260 1.388 . S
C261 C262 1.390 . S
C262 C261 1.390 . S
C262 C263 1.394 . S
C262 C268 1.465 1_556 S
C263 C258 1.399 . S
C263 C262 1.394 . S
C263 C264 1.516 1_556 S
C264 C263 1.516 1_554 S
C264 C265 1.502 . S
C264 C266 1.561 . S
C264 C267 1.526 . S
C265 H249 0.959 . S
C265 H250 0.959 . S
C265 H251 0.961 1_554 S
C265 C264 1.502 . S
C266 H252 0.960 1_554 S
C266 H253 0.961 . S
C266 H254 0.959 . S
C266 C264 1.561 . S
C267 C264 1.526 . S
C267 C268 1.396 . S
C267 C272 1.390 . S
C268 C262 1.465 1_554 S
C268 C267 1.396 . S
C268 C269 1.399 . S
C269 H255 0.929 . S
C269 C268 1.399 . S
C269 C270 1.385 . S
C270 H256 0.931 . S
C270 C269 1.385 . S
C270 C271 1.389 . S
C271 C270 1.389 . S
C271 C272 1.387 . S
C272 H257 0.930 . S
C272 C267 1.390 . S
C272 C271 1.387 . S
H273 C285 0.930 . S
H274 C287 0.930 . S
H275 C288 0.930 . S
H276 C292 0.959 . S
H277 C292 0.959 . S
H278 C292 0.961 . S
H279 C293 0.960 . S
H280 C293 0.961 . S
H281 C293 0.959 . S
H282 C296 0.929 . S
H283 C297 0.931 . S
H284 C299 0.930 . S
C285 H273 0.930 . S
C285 C286 1.399 . S
C285 C290 1.399 . S
C286 C285 1.399 . S
C286 C287 1.376 . S
C287 H274 0.930 . S
C287 C286 1.376 . S
C287 C288 1.388 . S
C288 H275 0.930 . S
C288 C287 1.388 . S
C288 C289 1.390 . S
C289 C288 1.390 . S
C289 C290 1.394 . S
C289 C295 1.465 . S
C290 C285 1.399 . S
C290 C289 1.394 . S
C290 C291 1.516 . S
C291 C290 1.516 . S
C291 C292 1.502 . S
C291 C293 1.561 . S
C291 C294 1.526 . S
C292 H276 0.959 . S
C292 H277 0.959 . S
C292 H278 0.961 . S
C292 C291 1.502 . S
C293 H279 0.960 . S
C293 H280 0.961 . S
C293 H281 0.959 . S
C293 C291 1.561 . S
C294 C291 1.526 . S
C294 C295 1.396 . S
C294 C299 1.390 . S
C295 C289 1.465 . S
C295 C294 1.396 . S
C295 C296 1.399 . S
C296 H282 0.929 . S
C296 C295 1.399 . S
C296 C297 1.385 . S
C297 H283 0.931 . S
C297 C296 1.385 . S
C297 C298 1.389 . S
C298 C297 1.389 . S
C298 C299 1.387 . S
C299 H284 0.930 . S
C299 C294 1.390 . S
C299 C298 1.387 . S
H300 C312 0.930 . S
H301 C314 0.930 . S
H302 C315 0.930 . S
H303 C319 0.959 . S
H304 C319 0.959 . S
H305 C319 0.961 . S
H306 C320 0.960 . S
H307 C320 0.961 . S
H308 C320 0.959 . S
H309 C323 0.929 . S
H310 C324 0.931 . S
H311 C326 0.930 . S
C312 H300 0.930 . S
C312 C313 1.399 . S
C312 C317 1.399 . S
C313 C312 1.399 . S
C313 C314 1.376 . S
C314 H301 0.930 . S
C314 C313 1.376 . S
C314 C315 1.388 . S
C315 H302 0.930 . S
C315 C314 1.388 . S
C315 C316 1.390 . S
C316 C315 1.390 . S
C316 C317 1.394 . S
C316 C322 1.465 . S
C317 C312 1.399 . S
C317 C316 1.394 . S
C317 C318 1.516 . S
C318 C317 1.516 . S
C318 C319 1.502 . S
C318 C320 1.561 . S
C318 C321 1.526 . S
C319 H303 0.959 . S
C319 H304 0.959 . S
C319 H305 0.961 . S
C319 C318 1.502 . S
C320 H306 0.960 . S
C320 H307 0.961 . S
C320 H308 0.959 . S
C320 C318 1.561 . S
C321 C318 1.526 . S
C321 C322 1.396 . S
C321 C326 1.390 . S
C322 C316 1.465 . S
C322 C321 1.396 . S
C322 C323 1.399 . S
C323 H309 0.929 . S
C323 C322 1.399 . S
C323 C324 1.385 . S
C324 H310 0.931 . S
C324 C323 1.385 . S
C324 C325 1.389 . S
C325 C324 1.389 . S
C325 C326 1.387 . S
C326 H311 0.930 . S
C326 C321 1.390 . S
C326 C325 1.387 . S
H327 C339 0.930 . S
H328 C341 0.930 . S
H329 C342 0.930 . S
H330 C346 0.959 . S
H331 C346 0.959 . S
H332 C346 0.961 1_556 S
H333 C347 0.960 1_556 S
H334 C347 0.961 . S
H335 C347 0.959 . S
H336 C350 0.929 . S
H337 C351 0.931 . S
H338 C353 0.930 . S
C339 H327 0.930 . S
C339 C340 1.399 . S
C339 C344 1.399 . S
C340 C339 1.399 . S
C340 C341 1.376 . S
C341 H328 0.930 . S
C341 C340 1.376 . S
C341 C342 1.388 . S
C342 H329 0.930 . S
C342 C341 1.388 . S
C342 C343 1.390 . S
C343 C342 1.390 . S
C343 C344 1.394 . S
C343 C349 1.465 1_556 S
C344 C339 1.399 . S
C344 C343 1.394 . S
C344 C345 1.516 1_556 S
C345 C344 1.516 1_554 S
C345 C346 1.502 . S
C345 C347 1.561 . S
C345 C348 1.526 . S
C346 H330 0.959 . S
C346 H331 0.959 . S
C346 H332 0.961 1_554 S
C346 C345 1.502 . S
C347 H333 0.960 1_554 S
C347 H334 0.961 . S
C347 H335 0.959 . S
C347 C345 1.561 . S
C348 C345 1.526 . S
C348 C349 1.396 . S
C348 C353 1.390 . S
C349 C343 1.465 1_554 S
C349 C348 1.396 . S
C349 C350 1.399 . S
C350 H336 0.929 . S
C350 C349 1.399 . S
C350 C351 1.385 . S
C351 H337 0.931 . S
C351 C350 1.385 . S
C351 C352 1.389 . S
C352 C351 1.389 . S
C352 C353 1.387 . S
C353 H338 0.930 . S
C353 C348 1.390 . S
C353 C352 1.387 . S
H354 C366 0.930 . S
H355 C368 0.930 . S
H356 C369 0.930 . S
H357 C373 0.959 . S
H358 C373 0.959 . S
H359 C373 0.961 . S
H360 C374 0.960 . S
H361 C374 0.961 . S
H362 C374 0.959 . S
H363 C377 0.929 . S
H364 C378 0.931 . S
H365 C380 0.930 . S
C366 H354 0.930 . S
C366 C367 1.399 . S
C366 C371 1.399 . S
C367 C366 1.399 . S
C367 C368 1.376 . S
C368 H355 0.930 . S
C368 C367 1.376 . S
C368 C369 1.388 . S
C369 H356 0.930 . S
C369 C368 1.388 . S
C369 C370 1.390 . S
C370 C369 1.390 . S
C370 C371 1.394 . S
C370 C376 1.465 . S
C371 C366 1.399 . S
C371 C370 1.394 . S
C371 C372 1.516 . S
C372 C371 1.516 . S
C372 C373 1.502 . S
C372 C374 1.561 . S
C372 C375 1.526 . S
C373 H357 0.959 . S
C373 H358 0.959 . S
C373 H359 0.961 . S
C373 C372 1.502 . S
C374 H360 0.960 . S
C374 H361 0.961 . S
C374 H362 0.959 . S
C374 C372 1.561 . S
C375 C372 1.526 . S
C375 C376 1.396 . S
C375 C380 1.390 . S
C376 C370 1.465 . S
C376 C375 1.396 . S
C376 C377 1.399 . S
C377 H363 0.929 . S
C377 C376 1.399 . S
C377 C378 1.385 . S
C378 H364 0.931 . S
C378 C377 1.385 . S
C378 C379 1.389 . S
C379 C378 1.389 . S
C379 C380 1.387 . S
C380 H365 0.930 . S
C380 C375 1.390 . S
C380 C379 1.387 . S
H381 C393 0.930 . S
H382 C395 0.930 . S
H383 C396 0.930 . S
H384 C400 0.959 . S
H385 C400 0.959 . S
H386 C400 0.961 . S
H387 C401 0.960 . S
H388 C401 0.961 . S
H389 C401 0.959 . S
H390 C404 0.929 . S
H391 C405 0.931 . S
H392 C407 0.930 . S
C393 H381 0.930 . S
C393 C394 1.399 . S
C393 C398 1.399 . S
C394 C393 1.399 . S
C394 C395 1.376 . S
C395 H382 0.930 . S
C395 C394 1.376 . S
C395 C396 1.388 . S
C396 H383 0.930 . S
C396 C395 1.388 . S
C396 C397 1.390 . S
C397 C396 1.390 . S
C397 C398 1.394 . S
C397 C403 1.465 . S
C398 C393 1.399 . S
C398 C397 1.394 . S
C398 C399 1.516 . S
C399 C398 1.516 . S
C399 C400 1.502 . S
C399 C401 1.561 . S
C399 C402 1.526 . S
C400 H384 0.959 . S
C400 H385 0.959 . S
C400 H386 0.961 . S
C400 C399 1.502 . S
C401 H387 0.960 . S
C401 H388 0.961 . S
C401 H389 0.959 . S
C401 C399 1.561 . S
C402 C399 1.526 . S
C402 C403 1.396 . S
C402 C407 1.390 . S
C403 C397 1.465 . S
C403 C402 1.396 . S
C403 C404 1.399 . S
C404 H390 0.929 . S
C404 C403 1.399 . S
C404 C405 1.385 . S
C405 H391 0.931 . S
C405 C404 1.385 . S
C405 C406 1.389 . S
C406 C405 1.389 . S
C406 C407 1.387 . S
C407 H392 0.930 . S
C407 C402 1.390 . S
C407 C406 1.387 . S
C97 C11 1.355 . S
C109 C53 1.358 . S
C124 C25 1.354 . S
C136 C67 1.348 . S
C151 C39 1.348 . S
C163 C81 1.345 . S
C178 C19 1.544 . S
C190 C61 1.533 . S
C205 C75 1.543 . S
C217 C33 1.533 . S
C232 C47 1.541 . S
C244 C5 1.534 . S
C259 C28 1.262 . S
C271 C9 1.282 . S
C286 C42 1.302 . S
C298 C23 1.197 . S
C313 C37 1.285 . S
C325 C56 1.250 . S
C340 C70 1.265 . S
C352 C51 1.280 . S
C367 C65 1.194 . S
C379 C0 1.268 . S
C394 C79 1.184 . S
C406 C14 1.297 . S
