# Generated by pormake.
# Topology swa, (7)-cn, num edge types: 1
# Building blocks:
#     Node 0, Type 0, BuildingBlock: HICVOG_clean_sbu_0, # of connection points: 7
#     Node 1, Type 0, BuildingBlock: HICVOG_clean_sbu_0, # of connection points: 7
#     Node 2, Type 0, BuildingBlock: HICVOG_clean_sbu_0, # of connection points: 7
#     Node 3, Type 0, BuildingBlock: HICVOG_clean_sbu_0, # of connection points: 7
#     Node 4, Type 0, BuildingBlock: HICVOG_clean_sbu_0, # of connection points: 7
#     Node 5, Type 0, BuildingBlock: HICVOG_clean_sbu_0, # of connection points: 7
#     Node 6, Type 0, BuildingBlock: HICVOG_clean_sbu_0, # of connection points: 7
#     Node 7, Type 0, BuildingBlock: HICVOG_clean_sbu_0, # of connection points: 7
#     Node 8, Type 0, BuildingBlock: HICVOG_clean_sbu_0, # of connection points: 7
#     Node 9, Type 0, BuildingBlock: HICVOG_clean_sbu_0, # of connection points: 7
#     Node 10, Type 0, BuildingBlock: HICVOG_clean_sbu_0, # of connection points: 7
#     Node 11, Type 0, BuildingBlock: HICVOG_clean_sbu_0, # of connection points: 7
#     Node 12, Type 0, BuildingBlock: HICVOG_clean_sbu_0, # of connection points: 7
#     Node 13, Type 0, BuildingBlock: HICVOG_clean_sbu_0, # of connection points: 7
#     Node 14, Type 0, BuildingBlock: HICVOG_clean_sbu_0, # of connection points: 7
#     Node 15, Type 0, BuildingBlock: HICVOG_clean_sbu_0, # of connection points: 7
#     Node 16, Type 0, BuildingBlock: HICVOG_clean_sbu_0, # of connection points: 7
#     Node 17, Type 0, BuildingBlock: HICVOG_clean_sbu_0, # of connection points: 7
#     Node 18, Type 0, BuildingBlock: HICVOG_clean_sbu_0, # of connection points: 7
#     Node 19, Type 0, BuildingBlock: HICVOG_clean_sbu_0, # of connection points: 7
#     Node 20, Type 0, BuildingBlock: HICVOG_clean_sbu_0, # of connection points: 7
#     Node 21, Type 0, BuildingBlock: HICVOG_clean_sbu_0, # of connection points: 7
#     Node 22, Type 0, BuildingBlock: HICVOG_clean_sbu_0, # of connection points: 7
#     Node 23, Type 0, BuildingBlock: HICVOG_clean_sbu_0, # of connection points: 7
#     Node 24, Type 0, BuildingBlock: HICVOG_clean_sbu_0, # of connection points: 7
#     Node 25, Type 0, BuildingBlock: HICVOG_clean_sbu_0, # of connection points: 7
#     Node 26, Type 0, BuildingBlock: HICVOG_clean_sbu_0, # of connection points: 7
#     Node 27, Type 0, BuildingBlock: HICVOG_clean_sbu_0, # of connection points: 7
#     Node 28, Type 0, BuildingBlock: HICVOG_clean_sbu_0, # of connection points: 7
#     Node 29, Type 0, BuildingBlock: HICVOG_clean_sbu_0, # of connection points: 7
#     Node 30, Type 0, BuildingBlock: HICVOG_clean_sbu_0, # of connection points: 7
#     Node 31, Type 0, BuildingBlock: HICVOG_clean_sbu_0, # of connection points: 7
#     Node 32, Type 0, BuildingBlock: HICVOG_clean_sbu_0, # of connection points: 7
#     Node 33, Type 0, BuildingBlock: HICVOG_clean_sbu_0, # of connection points: 7
#     Node 34, Type 0, BuildingBlock: HICVOG_clean_sbu_0, # of connection points: 7
#     Node 35, Type 0, BuildingBlock: HICVOG_clean_sbu_0, # of connection points: 7
#     Node 36, Type 0, BuildingBlock: HICVOG_clean_sbu_0, # of connection points: 7
#     Node 37, Type 0, BuildingBlock: HICVOG_clean_sbu_0, # of connection points: 7
#     Node 38, Type 0, BuildingBlock: HICVOG_clean_sbu_0, # of connection points: 7
#     Node 39, Type 0, BuildingBlock: HICVOG_clean_sbu_0, # of connection points: 7
#     Node 40, Type 0, BuildingBlock: HICVOG_clean_sbu_0, # of connection points: 7
#     Node 41, Type 0, BuildingBlock: HICVOG_clean_sbu_0, # of connection points: 7
#     Node 42, Type 0, BuildingBlock: HICVOG_clean_sbu_0, # of connection points: 7
#     Node 43, Type 0, BuildingBlock: HICVOG_clean_sbu_0, # of connection points: 7
#     Node 44, Type 0, BuildingBlock: HICVOG_clean_sbu_0, # of connection points: 7
#     Node 45, Type 0, BuildingBlock: HICVOG_clean_sbu_0, # of connection points: 7
#     Node 46, Type 0, BuildingBlock: HICVOG_clean_sbu_0, # of connection points: 7
#     Node 47, Type 0, BuildingBlock: HICVOG_clean_sbu_0, # of connection points: 7
#     Edge 48, Type (0, 0), BuildingBlock: AJUNOK_clean_linker_0, # of connection points: 2
#     Edge 49, Type (0, 0), BuildingBlock: AJUNOK_clean_linker_0, # of connection points: 2
#     Edge 50, Type (0, 0), BuildingBlock: AJUNOK_clean_linker_0, # of connection points: 2
#     Edge 51, Type (0, 0), BuildingBlock: AJUNOK_clean_linker_0, # of connection points: 2
#     Edge 52, Type (0, 0), BuildingBlock: AJUNOK_clean_linker_0, # of connection points: 2
#     Edge 53, Type (0, 0), BuildingBlock: AJUNOK_clean_linker_0, # of connection points: 2
#     Edge 54, Type (0, 0), BuildingBlock: AJUNOK_clean_linker_0, # of connection points: 2
#     Edge 55, Type (0, 0), BuildingBlock: AJUNOK_clean_linker_0, # of connection points: 2
#     Edge 56, Type (0, 0), BuildingBlock: AJUNOK_clean_linker_0, # of connection points: 2
#     Edge 57, Type (0, 0), BuildingBlock: AJUNOK_clean_linker_0, # of connection points: 2
#     Edge 58, Type (0, 0), BuildingBlock: AJUNOK_clean_linker_0, # of connection points: 2
#     Edge 59, Type (0, 0), BuildingBlock: AJUNOK_clean_linker_0, # of connection points: 2
#     Edge 60, Type (0, 0), BuildingBlock: AJUNOK_clean_linker_0, # of connection points: 2
#     Edge 61, Type (0, 0), BuildingBlock: AJUNOK_clean_linker_0, # of connection points: 2
#     Edge 62, Type (0, 0), BuildingBlock: AJUNOK_clean_linker_0, # of connection points: 2
#     Edge 63, Type (0, 0), BuildingBlock: AJUNOK_clean_linker_0, # of connection points: 2
#     Edge 64, Type (0, 0), BuildingBlock: AJUNOK_clean_linker_0, # of connection points: 2
#     Edge 65, Type (0, 0), BuildingBlock: AJUNOK_clean_linker_0, # of connection points: 2
#     Edge 66, Type (0, 0), BuildingBlock: AJUNOK_clean_linker_0, # of connection points: 2
#     Edge 67, Type (0, 0), BuildingBlock: AJUNOK_clean_linker_0, # of connection points: 2
#     Edge 68, Type (0, 0), BuildingBlock: AJUNOK_clean_linker_0, # of connection points: 2
#     Edge 69, Type (0, 0), BuildingBlock: AJUNOK_clean_linker_0, # of connection points: 2
#     Edge 70, Type (0, 0), BuildingBlock: AJUNOK_clean_linker_0, # of connection points: 2
#     Edge 71, Type (0, 0), BuildingBlock: AJUNOK_clean_linker_0, # of connection points: 2
#     Edge 72, Type (0, 0), BuildingBlock: AJUNOK_clean_linker_0, # of connection points: 2
#     Edge 73, Type (0, 0), BuildingBlock: AJUNOK_clean_linker_0, # of connection points: 2
#     Edge 74, Type (0, 0), BuildingBlock: AJUNOK_clean_linker_0, # of connection points: 2
#     Edge 75, Type (0, 0), BuildingBlock: AJUNOK_clean_linker_0, # of connection points: 2
#     Edge 76, Type (0, 0), BuildingBlock: AJUNOK_clean_linker_0, # of connection points: 2
#     Edge 77, Type (0, 0), BuildingBlock: AJUNOK_clean_linker_0, # of connection points: 2
#     Edge 78, Type (0, 0), BuildingBlock: AJUNOK_clean_linker_0, # of connection points: 2
#     Edge 79, Type (0, 0), BuildingBlock: AJUNOK_clean_linker_0, # of connection points: 2
#     Edge 80, Type (0, 0), BuildingBlock: AJUNOK_clean_linker_0, # of connection points: 2
#     Edge 81, Type (0, 0), BuildingBlock: AJUNOK_clean_linker_0, # of connection points: 2
#     Edge 82, Type (0, 0), BuildingBlock: AJUNOK_clean_linker_0, # of connection points: 2
#     Edge 83, Type (0, 0), BuildingBlock: AJUNOK_clean_linker_0, # of connection points: 2
#     Edge 84, Type (0, 0), BuildingBlock: AJUNOK_clean_linker_0, # of connection points: 2
#     Edge 85, Type (0, 0), BuildingBlock: AJUNOK_clean_linker_0, # of connection points: 2
#     Edge 86, Type (0, 0), BuildingBlock: AJUNOK_clean_linker_0, # of connection points: 2
#     Edge 87, Type (0, 0), BuildingBlock: AJUNOK_clean_linker_0, # of connection points: 2
#     Edge 88, Type (0, 0), BuildingBlock: AJUNOK_clean_linker_0, # of connection points: 2
#     Edge 89, Type (0, 0), BuildingBlock: AJUNOK_clean_linker_0, # of connection points: 2
#     Edge 90, Type (0, 0), BuildingBlock: AJUNOK_clean_linker_0, # of connection points: 2
#     Edge 91, Type (0, 0), BuildingBlock: AJUNOK_clean_linker_0, # of connection points: 2
#     Edge 92, Type (0, 0), BuildingBlock: AJUNOK_clean_linker_0, # of connection points: 2
#     Edge 93, Type (0, 0), BuildingBlock: AJUNOK_clean_linker_0, # of connection points: 2
#     Edge 94, Type (0, 0), BuildingBlock: AJUNOK_clean_linker_0, # of connection points: 2
#     Edge 95, Type (0, 0), BuildingBlock: AJUNOK_clean_linker_0, # of connection points: 2
#     Edge 96, Type (0, 0), BuildingBlock: AJUNOK_clean_linker_0, # of connection points: 2
#     Edge 97, Type (0, 0), BuildingBlock: AJUNOK_clean_linker_0, # of connection points: 2
#     Edge 98, Type (0, 0), BuildingBlock: AJUNOK_clean_linker_0, # of connection points: 2
#     Edge 99, Type (0, 0), BuildingBlock: AJUNOK_clean_linker_0, # of connection points: 2
#     Edge 100, Type (0, 0), BuildingBlock: AJUNOK_clean_linker_0, # of connection points: 2
#     Edge 101, Type (0, 0), BuildingBlock: AJUNOK_clean_linker_0, # of connection points: 2
#     Edge 102, Type (0, 0), BuildingBlock: AJUNOK_clean_linker_0, # of connection points: 2
#     Edge 103, Type (0, 0), BuildingBlock: AJUNOK_clean_linker_0, # of connection points: 2
#     Edge 104, Type (0, 0), BuildingBlock: AJUNOK_clean_linker_0, # of connection points: 2
#     Edge 105, Type (0, 0), BuildingBlock: AJUNOK_clean_linker_0, # of connection points: 2
#     Edge 106, Type (0, 0), BuildingBlock: AJUNOK_clean_linker_0, # of connection points: 2
#     Edge 107, Type (0, 0), BuildingBlock: AJUNOK_clean_linker_0, # of connection points: 2
#     Edge 108, Type (0, 0), BuildingBlock: AJUNOK_clean_linker_0, # of connection points: 2
#     Edge 109, Type (0, 0), BuildingBlock: AJUNOK_clean_linker_0, # of connection points: 2
#     Edge 110, Type (0, 0), BuildingBlock: AJUNOK_clean_linker_0, # of connection points: 2
#     Edge 111, Type (0, 0), BuildingBlock: AJUNOK_clean_linker_0, # of connection points: 2
#     Edge 112, Type (0, 0), BuildingBlock: AJUNOK_clean_linker_0, # of connection points: 2
#     Edge 113, Type (0, 0), BuildingBlock: AJUNOK_clean_linker_0, # of connection points: 2
#     Edge 114, Type (0, 0), BuildingBlock: AJUNOK_clean_linker_0, # of connection points: 2
#     Edge 115, Type (0, 0), BuildingBlock: AJUNOK_clean_linker_0, # of connection points: 2
#     Edge 116, Type (0, 0), BuildingBlock: AJUNOK_clean_linker_0, # of connection points: 2
#     Edge 117, Type (0, 0), BuildingBlock: AJUNOK_clean_linker_0, # of connection points: 2
#     Edge 118, Type (0, 0), BuildingBlock: AJUNOK_clean_linker_0, # of connection points: 2
#     Edge 119, Type (0, 0), BuildingBlock: AJUNOK_clean_linker_0, # of connection points: 2
#     Edge 120, Type (0, 0), BuildingBlock: AJUNOK_clean_linker_0, # of connection points: 2
#     Edge 121, Type (0, 0), BuildingBlock: AJUNOK_clean_linker_0, # of connection points: 2
#     Edge 122, Type (0, 0), BuildingBlock: AJUNOK_clean_linker_0, # of connection points: 2
#     Edge 123, Type (0, 0), BuildingBlock: AJUNOK_clean_linker_0, # of connection points: 2
#     Edge 124, Type (0, 0), BuildingBlock: AJUNOK_clean_linker_0, # of connection points: 2
#     Edge 125, Type (0, 0), BuildingBlock: AJUNOK_clean_linker_0, # of connection points: 2
#     Edge 126, Type (0, 0), BuildingBlock: AJUNOK_clean_linker_0, # of connection points: 2
#     Edge 127, Type (0, 0), BuildingBlock: AJUNOK_clean_linker_0, # of connection points: 2
#     Edge 128, Type (0, 0), BuildingBlock: AJUNOK_clean_linker_0, # of connection points: 2
#     Edge 129, Type (0, 0), BuildingBlock: AJUNOK_clean_linker_0, # of connection points: 2
#     Edge 130, Type (0, 0), BuildingBlock: AJUNOK_clean_linker_0, # of connection points: 2
#     Edge 131, Type (0, 0), BuildingBlock: AJUNOK_clean_linker_0, # of connection points: 2
#     Edge 132, Type (0, 0), BuildingBlock: AJUNOK_clean_linker_0, # of connection points: 2
#     Edge 133, Type (0, 0), BuildingBlock: AJUNOK_clean_linker_0, # of connection points: 2
#     Edge 134, Type (0, 0), BuildingBlock: AJUNOK_clean_linker_0, # of connection points: 2
#     Edge 135, Type (0, 0), BuildingBlock: AJUNOK_clean_linker_0, # of connection points: 2
#     Edge 136, Type (0, 0), BuildingBlock: AJUNOK_clean_linker_0, # of connection points: 2
#     Edge 137, Type (0, 0), BuildingBlock: AJUNOK_clean_linker_0, # of connection points: 2
#     Edge 138, Type (0, 0), BuildingBlock: AJUNOK_clean_linker_0, # of connection points: 2
#     Edge 139, Type (0, 0), BuildingBlock: AJUNOK_clean_linker_0, # of connection points: 2
#     Edge 140, Type (0, 0), BuildingBlock: AJUNOK_clean_linker_0, # of connection points: 2
#     Edge 141, Type (0, 0), BuildingBlock: AJUNOK_clean_linker_0, # of connection points: 2
#     Edge 142, Type (0, 0), BuildingBlock: AJUNOK_clean_linker_0, # of connection points: 2
#     Edge 143, Type (0, 0), BuildingBlock: AJUNOK_clean_linker_0, # of connection points: 2
#     Edge 144, Type (0, 0), BuildingBlock: AJUNOK_clean_linker_0, # of connection points: 2
#     Edge 145, Type (0, 0), BuildingBlock: AJUNOK_clean_linker_0, # of connection points: 2
#     Edge 146, Type (0, 0), BuildingBlock: AJUNOK_clean_linker_0, # of connection points: 2
#     Edge 147, Type (0, 0), BuildingBlock: AJUNOK_clean_linker_0, # of connection points: 2
#     Edge 148, Type (0, 0), BuildingBlock: AJUNOK_clean_linker_0, # of connection points: 2
#     Edge 149, Type (0, 0), BuildingBlock: AJUNOK_clean_linker_0, # of connection points: 2
#     Edge 150, Type (0, 0), BuildingBlock: AJUNOK_clean_linker_0, # of connection points: 2
#     Edge 151, Type (0, 0), BuildingBlock: AJUNOK_clean_linker_0, # of connection points: 2
#     Edge 152, Type (0, 0), BuildingBlock: AJUNOK_clean_linker_0, # of connection points: 2
#     Edge 153, Type (0, 0), BuildingBlock: AJUNOK_clean_linker_0, # of connection points: 2
#     Edge 154, Type (0, 0), BuildingBlock: AJUNOK_clean_linker_0, # of connection points: 2
#     Edge 155, Type (0, 0), BuildingBlock: AJUNOK_clean_linker_0, # of connection points: 2
#     Edge 156, Type (0, 0), BuildingBlock: AJUNOK_clean_linker_0, # of connection points: 2
#     Edge 157, Type (0, 0), BuildingBlock: AJUNOK_clean_linker_0, # of connection points: 2
#     Edge 158, Type (0, 0), BuildingBlock: AJUNOK_clean_linker_0, # of connection points: 2
#     Edge 159, Type (0, 0), BuildingBlock: AJUNOK_clean_linker_0, # of connection points: 2
#     Edge 160, Type (0, 0), BuildingBlock: AJUNOK_clean_linker_0, # of connection points: 2
#     Edge 161, Type (0, 0), BuildingBlock: AJUNOK_clean_linker_0, # of connection points: 2
#     Edge 162, Type (0, 0), BuildingBlock: AJUNOK_clean_linker_0, # of connection points: 2
#     Edge 163, Type (0, 0), BuildingBlock: AJUNOK_clean_linker_0, # of connection points: 2
#     Edge 164, Type (0, 0), BuildingBlock: AJUNOK_clean_linker_0, # of connection points: 2
#     Edge 165, Type (0, 0), BuildingBlock: AJUNOK_clean_linker_0, # of connection points: 2
#     Edge 166, Type (0, 0), BuildingBlock: AJUNOK_clean_linker_0, # of connection points: 2
#     Edge 167, Type (0, 0), BuildingBlock: AJUNOK_clean_linker_0, # of connection points: 2
#     Edge 168, Type (0, 0), BuildingBlock: AJUNOK_clean_linker_0, # of connection points: 2
#     Edge 169, Type (0, 0), BuildingBlock: AJUNOK_clean_linker_0, # of connection points: 2
#     Edge 170, Type (0, 0), BuildingBlock: AJUNOK_clean_linker_0, # of connection points: 2
#     Edge 171, Type (0, 0), BuildingBlock: AJUNOK_clean_linker_0, # of connection points: 2
#     Edge 172, Type (0, 0), BuildingBlock: AJUNOK_clean_linker_0, # of connection points: 2
#     Edge 173, Type (0, 0), BuildingBlock: AJUNOK_clean_linker_0, # of connection points: 2
#     Edge 174, Type (0, 0), BuildingBlock: AJUNOK_clean_linker_0, # of connection points: 2
#     Edge 175, Type (0, 0), BuildingBlock: AJUNOK_clean_linker_0, # of connection points: 2
#     Edge 176, Type (0, 0), BuildingBlock: AJUNOK_clean_linker_0, # of connection points: 2
#     Edge 177, Type (0, 0), BuildingBlock: AJUNOK_clean_linker_0, # of connection points: 2
#     Edge 178, Type (0, 0), BuildingBlock: AJUNOK_clean_linker_0, # of connection points: 2
#     Edge 179, Type (0, 0), BuildingBlock: AJUNOK_clean_linker_0, # of connection points: 2
#     Edge 180, Type (0, 0), BuildingBlock: AJUNOK_clean_linker_0, # of connection points: 2
#     Edge 181, Type (0, 0), BuildingBlock: AJUNOK_clean_linker_0, # of connection points: 2
#     Edge 182, Type (0, 0), BuildingBlock: AJUNOK_clean_linker_0, # of connection points: 2
#     Edge 183, Type (0, 0), BuildingBlock: AJUNOK_clean_linker_0, # of connection points: 2
#     Edge 184, Type (0, 0), BuildingBlock: AJUNOK_clean_linker_0, # of connection points: 2
#     Edge 185, Type (0, 0), BuildingBlock: AJUNOK_clean_linker_0, # of connection points: 2
#     Edge 186, Type (0, 0), BuildingBlock: AJUNOK_clean_linker_0, # of connection points: 2
#     Edge 187, Type (0, 0), BuildingBlock: AJUNOK_clean_linker_0, # of connection points: 2
#     Edge 188, Type (0, 0), BuildingBlock: AJUNOK_clean_linker_0, # of connection points: 2
#     Edge 189, Type (0, 0), BuildingBlock: AJUNOK_clean_linker_0, # of connection points: 2
#     Edge 190, Type (0, 0), BuildingBlock: AJUNOK_clean_linker_0, # of connection points: 2
#     Edge 191, Type (0, 0), BuildingBlock: AJUNOK_clean_linker_0, # of connection points: 2
#     Edge 192, Type (0, 0), BuildingBlock: AJUNOK_clean_linker_0, # of connection points: 2
#     Edge 193, Type (0, 0), BuildingBlock: AJUNOK_clean_linker_0, # of connection points: 2
#     Edge 194, Type (0, 0), BuildingBlock: AJUNOK_clean_linker_0, # of connection points: 2
#     Edge 195, Type (0, 0), BuildingBlock: AJUNOK_clean_linker_0, # of connection points: 2
#     Edge 196, Type (0, 0), BuildingBlock: AJUNOK_clean_linker_0, # of connection points: 2
#     Edge 197, Type (0, 0), BuildingBlock: AJUNOK_clean_linker_0, # of connection points: 2
#     Edge 198, Type (0, 0), BuildingBlock: AJUNOK_clean_linker_0, # of connection points: 2
#     Edge 199, Type (0, 0), BuildingBlock: AJUNOK_clean_linker_0, # of connection points: 2
#     Edge 200, Type (0, 0), BuildingBlock: AJUNOK_clean_linker_0, # of connection points: 2
#     Edge 201, Type (0, 0), BuildingBlock: AJUNOK_clean_linker_0, # of connection points: 2
#     Edge 202, Type (0, 0), BuildingBlock: AJUNOK_clean_linker_0, # of connection points: 2
#     Edge 203, Type (0, 0), BuildingBlock: AJUNOK_clean_linker_0, # of connection points: 2
#     Edge 204, Type (0, 0), BuildingBlock: AJUNOK_clean_linker_0, # of connection points: 2
#     Edge 205, Type (0, 0), BuildingBlock: AJUNOK_clean_linker_0, # of connection points: 2
#     Edge 206, Type (0, 0), BuildingBlock: AJUNOK_clean_linker_0, # of connection points: 2
#     Edge 207, Type (0, 0), BuildingBlock: AJUNOK_clean_linker_0, # of connection points: 2
#     Edge 208, Type (0, 0), BuildingBlock: AJUNOK_clean_linker_0, # of connection points: 2
#     Edge 209, Type (0, 0), BuildingBlock: AJUNOK_clean_linker_0, # of connection points: 2
#     Edge 210, Type (0, 0), BuildingBlock: AJUNOK_clean_linker_0, # of connection points: 2
#     Edge 211, Type (0, 0), BuildingBlock: AJUNOK_clean_linker_0, # of connection points: 2
#     Edge 212, Type (0, 0), BuildingBlock: AJUNOK_clean_linker_0, # of connection points: 2
#     Edge 213, Type (0, 0), BuildingBlock: AJUNOK_clean_linker_0, # of connection points: 2
#     Edge 214, Type (0, 0), BuildingBlock: AJUNOK_clean_linker_0, # of connection points: 2
#     Edge 215, Type (0, 0), BuildingBlock: AJUNOK_clean_linker_0, # of connection points: 2
# Relax obj value: 0.406
# Max RMSD: 0.251
# Mean RMSD: 0.251
data_MOF--net-swa--node1-HICVOG_clean_sbu_0--edge1-AJUNOK_clean_linker_0
_symmetry_space_group_name_H-M    P1
_symmetry_Int_Tables_number       1
_symmetry_cell_setting            triclinic
loop_
_symmetry_equiv_pos_as_xyz
'x, y, z'
_cell_length_a     49.036129
_cell_length_b     49.028894
_cell_length_c     49.094974
_cell_angle_alpha  90.030649
_cell_angle_beta   89.977686
_cell_angle_gamma 90.053483
loop_
_atom_site_label
_atom_site_type_symbol
_atom_site_fract_x
_atom_site_fract_y
_atom_site_fract_z
_atom_type_partial_charge
Zn0 Zn 0.12846 0.63911 0.18959 0.0
C1 C 0.0707 0.64022 0.24677 0.0
N2 N 0.09039 0.63238 0.26396 0.0
C3 C 0.11121 0.62569 0.24748 0.0
N4 N 0.10456 0.62964 0.2207 0.0
N5 N 0.07855 0.63789 0.22055 0.0
C6 C 0.02506 0.70243 0.19349 0.0
O7 O 0.03607 0.71262 0.21565 0.0
O8 O 0.16862 0.62654 0.18848 0.0
Zn9 Zn 0.05393 0.64378 0.18874 0.0
N10 N 0.12877 0.67802 0.19195 0.0
C11 C 0.10558 0.71981 0.19951 0.0
C12 C 0.10496 0.69202 0.19398 0.0
C13 C 0.15312 0.69079 0.194 0.0
N14 N 0.13001 0.73234 0.20265 0.0
C15 C 0.15403 0.71853 0.20037 0.0
O16 O 0.07307 0.64536 0.15311 0.0
C17 C 0.09431 0.64057 0.13926 0.0
O18 O 0.116 0.63226 0.15065 0.0
H19 H 0.08573 0.68169 0.19183 0.0
H20 H 0.17142 0.67896 0.19182 0.0
C21 C 1.00205 0.61803 0.1764 0.0
C22 C 0.98494 0.59555 0.17087 0.0
C23 C 0.02101 0.56581 0.18384 0.0
C24 C 0.03788 0.58812 0.18892 0.0
N25 N 0.02818 0.61374 0.1851 0.0
N26 N 0.99516 0.57003 0.1749 0.0
H27 H 0.99503 0.63862 0.17302 0.0
C28 C 0.18903 0.61152 0.19439 0.0
O29 O 0.18573 0.59064 0.21082 0.0
O30 O 0.03177 0.67868 0.18562 0.0
H31 H 0.05877 0.5851 0.19534 0.0
H32 H 0.08689 0.73136 0.20132 0.0
H33 H 0.0285 0.54526 0.18663 0.0
Zn34 Zn 0.85922 0.12757 0.19982 0.0
C35 C 0.86996 0.0616 0.24629 0.0
N36 N 0.88055 0.07917 0.26435 0.0
C37 C 0.88318 0.10237 0.24992 0.0
N38 N 0.87441 0.09928 0.22385 0.0
N39 N 0.86675 0.07325 0.22162 0.0
C40 C 0.80463 0.03523 0.17295 0.0
O41 O 0.80517 0.05879 0.16028 0.0
O42 O 0.87356 0.16724 0.2001 0.0
Zn43 Zn 0.8593 0.05208 0.18846 0.0
N44 N 0.82284 0.13001 0.21311 0.0
C45 C 0.78309 0.10844 0.23044 0.0
C46 C 0.80945 0.10687 0.22002 0.0
C47 C 0.81046 0.15452 0.21465 0.0
N48 N 0.76983 0.13259 0.22922 0.0
C49 C 0.78254 0.15543 0.21994 0.0
O50 O 0.85813 0.07358 0.15393 0.0
C51 C 0.85683 0.09739 0.14399 0.0
O52 O 0.85683 0.11838 0.15925 0.0
H53 H 0.81887 0.08764 0.21621 0.0
H54 H 0.82102 0.17238 0.20739 0.0
C55 C 0.88804 1.00141 0.17634 0.0
C56 C 0.91191 0.98602 0.17209 0.0
C57 C 0.93857 0.02547 0.18138 0.0
C58 C 0.91495 0.04051 0.1858 0.0
N59 N 0.89023 0.02826 0.18329 0.0
N60 N 0.9365 0.99871 0.17474 0.0
H61 H 0.86806 0.99217 0.17457 0.0
C62 C 0.88951 0.17601 0.1815 0.0
O63 O 0.90286 0.1582 0.16664 0.0
O64 O 0.8246 0.02877 0.18832 0.0
H65 H 0.9162 0.06192 0.19099 0.0
H66 H 0.77219 0.09038 0.23665 0.0
H67 H 0.95841 0.03494 0.18327 0.0
Zn68 Zn 0.45479 0.86183 0.19025 0.0
C69 C 0.3988 0.88042 0.2496 0.0
N70 N 0.41957 0.8721 0.26539 0.0
C71 C 0.4384 0.86418 0.24735 0.0
N72 N 0.43009 0.86777 0.22153 0.0
N73 N 0.40461 0.87738 0.2226 0.0
C74 C 0.33252 0.90309 0.17542 0.0
O75 O 0.35158 0.91442 0.16038 0.0
O76 O 0.48099 0.82906 0.1921 0.0
Zn77 Zn 0.3785 0.86937 0.19323 0.0
N78 N 0.47849 0.89334 0.18635 0.0
C79 C 0.48228 0.94161 0.18489 0.0
C80 C 0.46681 0.91823 0.18937 0.0
C81 C 0.5052 0.89078 0.17876 0.0
N82 N 0.50886 0.93913 0.17762 0.0
C83 C 0.52107 0.91438 0.17443 0.0
O84 O 0.39233 0.87199 0.15421 0.0
C85 C 0.41416 0.86581 0.14159 0.0
O86 O 0.43616 0.86035 0.15409 0.0
H87 H 0.4455 0.91982 0.19486 0.0
H88 H 0.51396 0.87068 0.17638 0.0
C89 C 0.34681 0.82123 0.1993 0.0
C90 C 0.34283 0.79303 0.2006 0.0
C91 C 0.39085 0.78659 0.20038 0.0
C92 C 0.39458 0.81459 0.19771 0.0
N93 N 0.37253 0.83125 0.19753 0.0
N94 N 0.36516 0.77651 0.20137 0.0
H95 H 0.32976 0.83509 0.19885 0.0
C96 C 0.47847 0.80374 0.19731 0.0
O97 O 0.45505 0.79406 0.2057 0.0
O98 O 0.33986 0.88621 0.19372 0.0
H99 H 0.4147 0.82311 0.19541 0.0
H100 H 0.47325 0.96161 0.18713 0.0
H101 H 0.40801 0.77278 0.20057 0.0
Zn102 Zn 0.65119 0.45561 0.19104 0.0
C103 C 0.63072 0.4008 0.25018 0.0
N104 N 0.63853 0.42181 0.26606 0.0
C105 C 0.64734 0.44027 0.24807 0.0
N106 N 0.64462 0.43159 0.22227 0.0
N107 N 0.63458 0.40629 0.22325 0.0
C108 C 0.60432 0.33531 0.17665 0.0
O109 O 0.59171 0.35487 0.16339 0.0
O110 O 0.68385 0.48168 0.19343 0.0
Zn111 Zn 0.64049 0.38046 0.19312 0.0
N112 N 0.61976 0.47921 0.18616 0.0
C113 C 0.57167 0.48362 0.1825 0.0
C114 C 0.59463 0.46765 0.18729 0.0
C115 C 0.62294 0.50625 0.18027 0.0
N116 N 0.5748 0.51044 0.17637 0.0
C117 C 0.59983 0.52247 0.1748 0.0
O118 O 0.63656 0.39486 0.15415 0.0
C119 C 0.64742 0.41528 0.14228 0.0
O120 O 0.65494 0.43638 0.1553 0.0
H121 H 0.59255 0.44614 0.19178 0.0
H122 H 0.64321 0.51488 0.18022 0.0
C123 C 0.68775 0.34731 0.19834 0.0
C124 C 0.71577 0.34241 0.19935 0.0
C125 C 0.72397 0.39007 0.1985 0.0
C126 C 0.69605 0.39472 0.19618 0.0
N127 N 0.67859 0.37329 0.19634 0.0
N128 N 0.73316 0.36407 0.19961 0.0
H129 H 0.67345 0.33065 0.19787 0.0
C130 C 0.70942 0.47759 0.19538 0.0
O131 O 0.71862 0.45318 0.20074 0.0
O132 O 0.62275 0.3421 0.19363 0.0
H133 H 0.6881 0.41504 0.194 0.0
H134 H 0.55148 0.47475 0.18345 0.0
H135 H 0.73844 0.40668 0.19833 0.0
Zn136 Zn 0.05707 0.86206 0.32073 0.0
C137 C 0.1139 0.88441 0.26398 0.0
N138 N 0.09301 0.88101 0.24683 0.0
C139 C 0.07321 0.87107 0.26276 0.0
N140 N 0.0814 0.86857 0.28896 0.0
N141 N 0.10736 0.87668 0.28965 0.0
C142 C 0.17743 0.89896 0.3316 0.0
O143 O 0.15722 0.91299 0.34219 0.0
O144 O 0.03545 0.82619 0.32173 0.0
Zn145 Zn 0.13241 0.86484 0.31749 0.0
N146 N 0.03083 0.8917 0.3222 0.0
C147 C 0.02347 0.93963 0.32042 0.0
C148 C 0.04045 0.91713 0.31684 0.0
C149 C 1.00466 0.88778 0.3308 0.0
N150 N 0.99751 0.93583 0.32929 0.0
C151 C 0.98742 0.91049 0.3345 0.0
O152 O 0.12051 0.86897 0.35689 0.0
C153 C 0.09805 0.86689 0.36964 0.0
O154 O 0.07572 0.86403 0.35692 0.0
H155 H 0.06139 0.91991 0.31046 0.0
H156 H 0.99767 0.86739 0.33555 0.0
C157 C 0.15765 0.81502 0.30311 0.0
C158 C 0.15907 0.78657 0.30106 0.0
C159 C 0.11181 0.78387 0.31196 0.0
C160 C 0.11109 0.81195 0.31551 0.0
N161 N 0.13406 0.82676 0.31136 0.0
N162 N 0.13582 0.77185 0.3054 0.0
H163 H 0.17506 0.82785 0.299 0.0
C164 C 0.03802 0.80823 0.34036 0.0
O165 O 0.05697 0.81153 0.35896 0.0
O166 O 0.17149 0.87908 0.31604 0.0
H167 H 0.09251 0.82203 0.32145 0.0
H168 H 0.03095 0.96001 0.31648 0.0
H169 H 0.09376 0.77163 0.31533 0.0
Zn170 Zn 0.64626 0.05428 0.31888 0.0
C171 C 0.63051 0.11278 0.26103 0.0
N172 N 0.63499 0.0922 0.24386 0.0
C173 C 0.64204 0.07162 0.26034 0.0
N174 N 0.64187 0.07908 0.28694 0.0
N175 N 0.63464 0.10534 0.28725 0.0
C176 C 0.60887 0.19083 0.31202 0.0
O177 O 0.59073 0.19795 0.29369 0.0
O178 O 0.68041 0.02979 0.31922 0.0
Zn179 Zn 0.64184 0.13188 0.31555 0.0
N180 N 0.61525 0.02956 0.32053 0.0
C181 C 0.56766 0.02266 0.31454 0.0
C182 C 0.59076 0.03897 0.31177 0.0
C183 C 0.61763 1.00434 0.3321 0.0
N184 N 0.56997 0.99758 0.32601 0.0
C185 C 0.5943 0.98768 0.33504 0.0
O186 O 0.639 0.11847 0.35435 0.0
C187 C 0.64199 0.09613 0.36725 0.0
O188 O 0.64559 0.07349 0.35516 0.0
H189 H 0.58916 0.05919 0.30311 0.0
H190 H 0.63731 0.99775 0.33953 0.0
C191 C 0.68971 0.16441 0.30602 0.0
C192 C 0.71789 0.16756 0.30236 0.0
C193 C 0.72325 0.11936 0.30444 0.0
C194 C 0.69555 0.11653 0.30934 0.0
N195 N 0.67943 0.13903 0.30997 0.0
N196 N 0.73377 0.14473 0.30154 0.0
H197 H 0.67621 0.18181 0.30638 0.0
C198 C 0.70183 0.03478 0.3331 0.0
O199 O 0.70317 0.05782 0.34669 0.0
O200 O 0.61938 0.16703 0.30988 0.0
H201 H 0.68681 0.09656 0.31246 0.0
H202 H 0.54798 0.02992 0.30777 0.0
H203 H 0.73643 0.10169 0.30377 0.0
Zn204 Zn 0.38256 0.64313 0.31893 0.0
C205 C 0.44514 0.63897 0.26827 0.0
N206 N 0.42594 0.63209 0.25009 0.0
C207 C 0.40402 0.62707 0.26572 0.0
N208 N 0.40934 0.63122 0.29244 0.0
N209 N 0.43546 0.63852 0.29397 0.0
C210 C 0.48305 0.70249 0.3196 0.0
O211 O 0.47098 0.70839 0.29652 0.0
O212 O 0.34267 0.63075 0.31597 0.0
Zn213 Zn 0.45769 0.64398 0.32675 0.0
N214 N 0.38241 0.68076 0.31225 0.0
C215 C 0.40689 0.7223 0.3108 0.0
C216 C 0.4059 0.6947 0.31664 0.0
C217 C 0.35973 0.69299 0.30243 0.0
N218 N 0.38401 0.73481 0.3018 0.0
C219 C 0.36018 0.72105 0.29748 0.0
O220 O 0.43716 0.6436 0.36191 0.0
C221 C 0.41374 0.64212 0.37272 0.0
O222 O 0.39217 0.64064 0.35857 0.0
H223 H 0.42362 0.68434 0.32453 0.0
H224 H 0.34159 0.68094 0.29908 0.0
C225 C 0.50833 0.61577 0.33791 0.0
C226 C 0.52437 0.59217 0.34114 0.0
C227 C 0.48688 0.56518 0.32629 0.0
C228 C 0.47103 0.58852 0.32358 0.0
N229 N 0.48202 0.61327 0.32936 0.0
N230 N 0.51304 0.56754 0.33495 0.0
H231 H 0.51652 0.63589 0.34173 0.0
C232 C 0.33332 0.61293 0.3324 0.0
O233 O 0.35075 0.59782 0.34597 0.0
O234 O 0.47958 0.67923 0.33059 0.0
H235 H 0.45 0.58699 0.3171 0.0
H236 H 0.42528 0.73391 0.31431 0.0
H237 H 0.47847 0.5453 0.32167 0.0
Zn238 Zn 0.86558 0.38199 0.31567 0.0
C239 C 0.87069 0.44412 0.26395 0.0
N240 N 0.87877 0.42495 0.24622 0.0
C241 C 0.8829 0.40303 0.26213 0.0
N242 N 0.87744 0.4084 0.28861 0.0
N243 N 0.86993 0.43444 0.28967 0.0
C244 C 0.8111 0.47811 0.3391 0.0
O245 O 0.81227 0.45838 0.35712 0.0
O246 O 0.87698 0.34212 0.31187 0.0
Zn247 Zn 0.86421 0.45671 0.32223 0.0
N248 N 0.82768 0.38193 0.30934 0.0
C249 C 0.78661 0.40714 0.30775 0.0
C250 C 0.81416 0.4056 0.31372 0.0
C251 C 0.81512 0.35961 0.29893 0.0
N252 N 0.77381 0.38468 0.29807 0.0
C253 C 0.78715 0.3607 0.29335 0.0
O254 O 0.86369 0.43621 0.35733 0.0
C255 C 0.86631 0.41344 0.36929 0.0
O256 O 0.86966 0.39154 0.3558 0.0
H257 H 0.82496 0.42312 0.32129 0.0
H258 H 0.82692 0.34143 0.29516 0.0
C259 C 0.89341 0.50685 0.33357 0.0
C260 C 0.9172 0.52275 0.3358 0.0
C261 C 0.94364 0.48449 0.32222 0.0
C262 C 0.92004 0.4689 0.31983 0.0
N263 N 0.89545 0.48037 0.32537 0.0
N264 N 0.94167 0.51096 0.33 0.0
H265 H 0.87354 0.51546 0.33782 0.0
C266 C 0.89455 0.33153 0.32773 0.0
O267 O 0.91131 0.3477 0.34096 0.0
O268 O 0.83025 0.48047 0.32167 0.0
H269 H 0.92123 0.44774 0.31371 0.0
H270 H 0.77533 0.42577 0.3112 0.0
H271 H 0.96338 0.47568 0.31784 0.0
Zn272 Zn 0.19059 0.05078 0.64271 0.0
C273 C 0.25091 0.1048 0.61967 0.0
N274 N 0.26595 0.08191 0.6212 0.0
C275 C 0.2487 0.06321 0.63139 0.0
N276 N 0.22357 0.07377 0.63523 0.0
N277 N 0.2249 0.10018 0.62857 0.0
C278 C 0.18496 0.17493 0.61777 0.0
O279 O 0.17235 0.15722 0.6021 0.0
O280 O 0.18719 0.02724 0.67758 0.0
Zn281 Zn 0.20108 0.12551 0.6477 0.0
N282 N 0.18761 0.02465 0.61317 0.0
C283 C 0.1886 0.01619 0.56552 0.0
C284 C 0.19165 0.03396 0.58745 0.0
C285 C 0.18058 0.99812 0.61794 0.0
N286 N 0.18172 0.98978 0.57022 0.0
C287 C 0.17774 0.97994 0.59588 0.0
O288 O 0.16017 0.11567 0.64927 0.0
C289 C 0.14514 0.09475 0.6457 0.0
O290 O 0.15551 0.07134 0.6421 0.0
H291 H 0.19689 0.05513 0.58406 0.0
H292 H 0.17654 0.99156 0.63857 0.0
C293 C 0.20711 0.14412 0.70093 0.0
C294 C 0.22028 0.14768 0.7258 0.0
C295 C 0.25141 0.11277 0.715 0.0
C296 C 0.23864 0.10956 0.68998 0.0
N297 N 0.21636 0.12494 0.68361 0.0
N298 N 0.24167 0.1316 0.73257 0.0
H299 H 0.18961 0.15636 0.69531 0.0
C300 C 0.17094 0.03333 0.69698 0.0
O301 O 0.1589 0.05721 0.69688 0.0
O302 O 0.20081 0.16595 0.63625 0.0
H303 H 0.24788 0.09637 0.67534 0.0
H304 H 0.19156 0.02333 0.54488 0.0
H305 H 0.26905 0.10065 0.72029 0.0
Zn306 Zn 0.46223 0.19194 0.64353 0.0
C307 C 0.4071 0.24934 0.61952 0.0
N308 N 0.42879 0.26595 0.62213 0.0
C309 C 0.44838 0.24944 0.63178 0.0
N310 N 0.43919 0.22358 0.63457 0.0
N311 N 0.41295 0.2235 0.62743 0.0
C312 C 0.34067 0.17836 0.61147 0.0
O313 O 0.3604 0.1655 0.59873 0.0
O314 O 0.48562 0.19278 0.67781 0.0
Zn315 Zn 0.38657 0.19865 0.6442 0.0
N316 N 0.48657 0.18581 0.61318 0.0
C317 C 0.49156 0.18226 0.5652 0.0
C318 C 0.47552 0.18777 0.58791 0.0
C319 C 0.51313 0.17841 0.6168 0.0
N320 N 0.51798 0.17484 0.5687 0.0
C321 C 0.52945 0.17251 0.59388 0.0
O322 O 0.39726 0.15816 0.64816 0.0
C323 C 0.41958 0.145 0.64945 0.0
O324 O 0.4422 0.15723 0.64748 0.0
H325 H 0.45433 0.1934 0.58553 0.0
H326 H 0.52136 0.17758 0.6372 0.0
C327 C 0.36091 0.20803 0.69407 0.0
C328 C 0.35902 0.2156 0.72137 0.0
C329 C 0.40182 0.23743 0.71861 0.0
C330 C 0.4043 0.22848 0.6918 0.0
N331 N 0.38391 0.21365 0.68018 0.0
N332 N 0.37955 0.23 0.73316 0.0
H333 H 0.34559 0.19508 0.68481 0.0
C334 C 0.47891 0.18073 0.69986 0.0
O335 O 0.45391 0.17146 0.70249 0.0
O336 O 0.34715 0.19658 0.62892 0.0
H337 H 0.42241 0.23313 0.68071 0.0
H338 H 0.48311 0.1838 0.54491 0.0
H339 H 0.41807 0.24889 0.72819 0.0
Zn340 Zn 0.3232 0.45968 0.6421 0.0
C341 C 0.26395 0.40408 0.62499 0.0
N342 N 0.24732 0.42514 0.63051 0.0
C343 C 0.26459 0.44487 0.63834 0.0
N344 N 0.29077 0.43623 0.63786 0.0
N345 N 0.29041 0.41031 0.62963 0.0
C346 C 0.3319 0.335 0.60813 0.0
O347 O 0.34414 0.35274 0.59222 0.0
O348 O 0.32805 0.48168 0.67678 0.0
Zn349 Zn 0.31872 0.38404 0.6394 0.0
N350 N 0.32436 0.48543 0.61204 0.0
C351 C 0.32156 0.4925 0.56425 0.0
C352 C 0.3195 0.47535 0.58675 0.0
C353 C 0.33132 0.51214 0.61583 0.0
N354 N 0.32866 0.51901 0.56793 0.0
C355 C 0.33387 0.52957 0.59308 0.0
O356 O 0.35809 0.3949 0.63403 0.0
C357 C 0.37107 0.41711 0.63707 0.0
O358 O 0.35857 0.43952 0.64036 0.0
H359 H 0.31428 0.45406 0.58415 0.0
H360 H 0.33452 0.51958 0.6363 0.0
C361 C 0.30499 0.35938 0.6893 0.0
C362 C 0.30234 0.3583 0.71759 0.0
C363 C 0.31746 0.40433 0.72054 0.0
C364 C 0.32077 0.40499 0.69245 0.0
N365 N 0.31454 0.38252 0.67757 0.0
N366 N 0.30869 0.38098 0.7324 0.0
H367 H 0.30027 0.34188 0.67676 0.0
C368 C 0.31978 0.48213 0.70129 0.0
O369 O 0.30101 0.46507 0.70962 0.0
O370 O 0.3163 0.34398 0.62687 0.0
H371 H 0.32824 0.42316 0.68253 0.0
H372 H 0.31772 0.48478 0.54396 0.0
H373 H 0.3226 0.42181 0.73296 0.0
Zn374 Zn 0.05304 0.31773 0.64505 0.0
C375 C 0.11293 0.26164 0.63035 0.0
N376 N 0.09219 0.24408 0.63324 0.0
C377 C 0.0712 0.2602 0.63993 0.0
N378 N 0.07854 0.28678 0.64084 0.0
N379 N 0.10512 0.2878 0.63509 0.0
C380 C 0.17826 0.3302 0.61263 0.0
O381 O 0.16126 0.34086 0.59493 0.0
O382 O 0.02914 0.31733 0.67892 0.0
Zn383 Zn 0.12838 0.31937 0.64349 0.0
N384 N 0.0276 0.31892 0.61485 0.0
C385 C 0.02105 0.32182 0.56706 0.0
C386 C 0.038 0.31721 0.5893 0.0
C387 C 1.00078 0.32506 0.61918 0.0
N388 N 0.99448 0.32834 0.57132 0.0
C389 C 0.98353 0.33035 0.59679 0.0
O390 O 0.11471 0.35765 0.63315 0.0
C391 C 0.09168 0.36877 0.63785 0.0
O392 O 0.07085 0.35434 0.64319 0.0
H393 H 0.05944 0.31294 0.58635 0.0
H394 H 0.99328 0.32583 0.63981 0.0
C395 C 0.14718 0.30259 0.69542 0.0
C396 C 0.14729 0.30219 0.72391 0.0
C397 C 0.11261 0.336 0.72444 0.0
C398 C 0.11323 0.33685 0.69625 0.0
N399 N 0.12973 0.31959 0.6823 0.0
N400 N 0.12972 0.3189 0.73752 0.0
H401 H 0.16142 0.29043 0.68382 0.0
C402 C 0.03251 0.33179 0.70015 0.0
O403 O 0.05434 0.34699 0.70212 0.0
O404 O 0.1685 0.31694 0.63267 0.0
H405 H 0.10084 0.35134 0.68575 0.0
H406 H 0.029 0.32065 0.54653 0.0
H407 H 0.09937 0.34939 0.73591 0.0
Zn408 Zn 0.19232 0.37941 0.86843 0.0
C409 C 0.24668 0.44129 0.87427 0.0
N410 N 0.26306 0.42188 0.88429 0.0
C411 C 0.24665 0.40005 0.88597 0.0
N412 N 0.22103 0.40574 0.87728 0.0
N413 N 0.22108 0.43198 0.86998 0.0
C414 C 0.18857 0.47886 0.80648 0.0
O415 O 0.19376 0.45455 0.79691 0.0
O416 O 0.19423 0.34155 0.88594 0.0
Zn417 Zn 0.18918 0.45586 0.86397 0.0
N418 N 0.19734 0.37292 0.8307 0.0
C419 C 0.19604 0.39151 0.78616 0.0
C420 C 0.19405 0.39478 0.81424 0.0
C421 C 0.2022 0.34765 0.82055 0.0
N422 N 0.19989 0.36617 0.77589 0.0
C423 C 0.20273 0.34394 0.79229 0.0
O424 O 0.15334 0.4362 0.86069 0.0
C425 C 0.14031 0.4141 0.86449 0.0
O426 O 0.15256 0.3921 0.87089 0.0
H427 H 0.18941 0.41422 0.82326 0.0
H428 H 0.2042 0.33056 0.83428 0.0
C429 C 0.1751 0.50416 0.89449 0.0
C430 C 0.17042 0.51936 0.91843 0.0
C431 C 0.18627 0.4817 0.94456 0.0
C432 C 0.19043 0.46669 0.92084 0.0
N433 N 0.18483 0.47817 0.89632 0.0
N434 N 0.17644 0.50751 0.9428 0.0
H435 H 0.1715 0.51285 0.87459 0.0
C436 C 0.17835 0.33549 0.90552 0.0
O437 O 0.16615 0.35554 0.91844 0.0
O438 O 0.18924 0.48296 0.8321 0.0
H439 H 0.19789 0.44597 0.92191 0.0
H440 H 0.19333 0.40857 0.7725 0.0
H441 H 0.19072 0.4729 0.96426 0.0
Zn442 Zn 0.12542 0.19544 0.87099 0.0
C443 C 0.06537 0.24725 0.87662 0.0
N444 N 0.08425 0.26472 0.88577 0.0
C445 C 0.10543 0.24856 0.89208 0.0
N446 N 0.10002 0.22189 0.88656 0.0
N447 N 0.07431 0.22123 0.87772 0.0
C448 C 0.02282 0.19556 0.8112 0.0
O449 O 0.02894 0.22076 0.8045 0.0
O450 O 0.16605 0.19492 0.88241 0.0
Zn451 Zn 0.0522 0.18845 0.8693 0.0
N452 N 0.12322 0.20519 0.83329 0.0
C453 C 0.10034 0.21629 0.79191 0.0
C454 C 0.09965 0.21123 0.81984 0.0
C455 C 0.14715 0.20411 0.81998 0.0
N456 N 0.1241 0.21271 0.77826 0.0
C457 C 0.1474 0.20637 0.7918 0.0
O458 O 0.07225 0.15341 0.86722 0.0
C459 C 0.09499 0.14136 0.86862 0.0
O460 O 0.11675 0.15485 0.87209 0.0
H461 H 0.08035 0.21125 0.8301 0.0
H462 H 0.16534 0.19807 0.83087 0.0
C463 C 1.00151 0.17373 0.89537 0.0
C464 C 0.98433 0.17078 0.91804 0.0
C465 C 0.02033 0.18528 0.94696 0.0
C466 C 0.03723 0.18853 0.92442 0.0
N467 N 0.02743 0.18303 0.89913 0.0
N468 N 0.99427 0.17676 0.94324 0.0
H469 H 0.99418 0.1696 0.87499 0.0
C470 C 0.17395 0.17838 0.90079 0.0
O471 O 0.15533 0.16652 0.91597 0.0
O472 O 0.03107 0.18593 0.83376 0.0
H473 H 0.058 0.19551 0.92697 0.0
H474 H 0.08186 0.22115 0.78092 0.0
H475 H 0.02774 0.18975 0.96723 0.0
Zn476 Zn 0.32085 0.05123 0.86645 0.0
C477 C 0.26094 0.10396 0.89099 0.0
N478 N 0.24481 0.08204 0.88823 0.0
C479 C 0.26145 0.06271 0.87825 0.0
N480 N 0.28737 0.0723 0.87582 0.0
N481 N 0.28679 0.09866 0.88278 0.0
C482 C 0.32699 0.17544 0.89183 0.0
O483 O 0.34034 0.15784 0.90694 0.0
O484 O 0.32309 0.0298 0.83102 0.0
Zn485 Zn 0.30962 0.12547 0.86398 0.0
N486 N 0.32927 0.02702 0.89653 0.0
C487 C 0.33069 0.02124 0.94452 0.0
C488 C 0.32576 0.03752 0.92187 0.0
C489 C 0.33809 1.00089 0.89279 0.0
N490 N 0.33865 0.99501 0.94087 0.0
C491 C 0.34256 0.98406 0.91564 0.0
O492 O 0.35049 0.11802 0.86151 0.0
C493 C 0.36522 0.09676 0.86081 0.0
O494 O 0.35462 0.07329 0.86263 0.0
H495 H 0.31897 0.05836 0.92437 0.0
H496 H 0.33991 0.99306 0.87229 0.0
C497 C 0.30045 0.14603 0.81235 0.0
C498 C 0.29238 0.14612 0.7852 0.0
C499 C 0.27151 0.1031 0.79085 0.0
C500 C 0.28054 0.10252 0.81767 0.0
N501 N 0.29507 0.12399 0.82783 0.0
N502 N 0.27849 0.12451 0.77495 0.0
H503 H 0.31308 0.16223 0.82049 0.0
C504 C 0.31054 0.02174 0.80986 0.0
O505 O 0.2845 0.02706 0.80671 0.0
O506 O 0.30926 0.16632 0.87507 0.0
H507 H 0.27631 0.08479 0.82961 0.0
H508 H 0.32781 0.02923 0.96486 0.0
H509 H 0.26027 0.0861 0.78235 0.0
Zn510 Zn 0.38103 0.31611 0.86303 0.0
C511 C 0.4427 0.26363 0.86157 0.0
N512 N 0.42292 0.24558 0.86737 0.0
C513 C 0.40175 0.26145 0.87427 0.0
N514 N 0.40806 0.28834 0.87242 0.0
N515 N 0.43424 0.28968 0.86489 0.0
C516 C 0.48343 0.32538 0.80402 0.0
O517 O 0.46139 0.31665 0.79177 0.0
O518 O 0.34183 0.31348 0.87826 0.0
Zn519 Zn 0.45805 0.32265 0.86252 0.0
N520 N 0.37755 0.31071 0.82492 0.0
C521 C 0.39854 0.31316 0.78151 0.0
C522 C 0.39983 0.31642 0.80959 0.0
C523 C 0.35391 0.30183 0.81359 0.0
N524 N 0.37462 0.30559 0.77004 0.0
C525 C 0.35192 0.30012 0.78513 0.0
O526 O 0.43717 0.35829 0.8621 0.0
C527 C 0.414 0.36985 0.86403 0.0
O528 O 0.39222 0.35593 0.86635 0.0
H529 H 0.41823 0.32362 0.8193 0.0
H530 H 0.33682 0.29713 0.82664 0.0
C531 C 0.50905 0.33055 0.89272 0.0
C532 C 0.52557 0.33085 0.91631 0.0
C533 C 0.4866 0.31886 0.94264 0.0
C534 C 0.47055 0.31827 0.91921 0.0
N535 N 0.48197 0.32395 0.89467 0.0
N536 N 0.51356 0.32497 0.94063 0.0
H537 H 0.51766 0.33507 0.87305 0.0
C538 C 0.33434 0.32949 0.89732 0.0
O539 O 0.35334 0.34279 0.91073 0.0
O540 O 0.48415 0.3265 0.82997 0.0
H541 H 0.44908 0.3133 0.92051 0.0
H542 H 0.41583 0.31776 0.76868 0.0
H543 H 0.47774 0.31437 0.96232 0.0
Zn544 Zn 0.64217 0.18983 0.04852 0.0
C545 C 0.61901 0.24886 0.10338 0.0
N546 N 0.62357 0.26566 0.08236 0.0
C547 C 0.63396 0.24948 0.06297 0.0
N548 N 0.63441 0.22305 0.07128 0.0
N549 N 0.6265 0.22279 0.09739 0.0
C550 C 0.61599 0.18228 0.17308 0.0
O551 O 0.59927 0.17031 0.15592 0.0
O552 O 0.67829 0.18659 0.02766 0.0
Zn553 Zn 0.64508 0.19752 0.12242 0.0
N554 N 0.61163 0.18347 0.02366 0.0
C555 C 0.56341 0.18208 0.01811 0.0
C556 C 0.58628 0.18664 0.03438 0.0
C557 C 0.61501 0.17524 0.99729 0.0
N558 N 0.56676 0.17497 0.99158 0.0
C559 C 0.59198 0.17153 0.9806 0.0
O560 O 0.64468 0.1569 0.11371 0.0
C561 C 0.64448 0.14303 0.09189 0.0
O562 O 0.64357 0.15478 0.06897 0.0
H563 H 0.58392 0.19258 0.05547 0.0
H564 H 0.63534 0.17234 0.98922 0.0
C565 C 0.69748 0.20991 0.14187 0.0
C566 C 0.72523 0.21585 0.14015 0.0
C567 C 0.72083 0.22404 0.09301 0.0
C568 C 0.69359 0.21614 0.09443 0.0
N569 N 0.68238 0.20933 0.11891 0.0
N570 N 0.73634 0.22266 0.11574 0.0
H571 H 0.68864 0.2027 0.16076 0.0
C572 C 0.70032 0.19845 0.02071 0.0
O573 O 0.70437 0.22416 0.02698 0.0
O574 O 0.63504 0.19709 0.16344 0.0
H575 H 0.68208 0.21461 0.07597 0.0
H576 H 0.54312 0.18452 0.02642 0.0
H577 H 0.73006 0.22949 0.07377 0.0
Zn578 Zn 0.64466 0.31542 0.38091 0.0
C579 C 0.64437 0.26569 0.44575 0.0
N580 N 0.63895 0.24658 0.42699 0.0
C581 C 0.63356 0.26121 0.40454 0.0
N582 N 0.63578 0.28846 0.4092 0.0
N583 N 0.64256 0.29116 0.43542 0.0
C584 C 0.70426 0.33051 0.47829 0.0
O585 O 0.71244 0.33163 0.45301 0.0
O586 O 0.62653 0.31378 0.34318 0.0
Zn587 Zn 0.6462 0.32456 0.45808 0.0
N588 N 0.68181 0.30813 0.37392 0.0
C589 C 0.72628 0.30835 0.39267 0.0
C590 C 0.69824 0.31079 0.39581 0.0
C591 C 0.6918 0.30265 0.34878 0.0
N592 N 0.73654 0.30447 0.36735 0.0
C593 C 0.72012 0.30182 0.34506 0.0
O594 O 0.64738 0.36009 0.4373 0.0
C595 C 0.64678 0.37037 0.41355 0.0
O596 O 0.64514 0.35556 0.39229 0.0
H597 H 0.6891 0.31497 0.41523 0.0
H598 H 0.67788 0.30042 0.33187 0.0
C599 C 0.61792 0.33446 0.5089 0.0
C600 C 0.59489 0.33695 0.52596 0.0
C601 C 0.5667 0.32423 0.48859 0.0
C602 C 0.58955 0.32208 0.47182 0.0
N603 N 0.61469 0.32712 0.48225 0.0
N604 N 0.56989 0.33149 0.5151 0.0
H605 H 0.63823 0.33779 0.51675 0.0
C606 C 0.60811 0.33106 0.33722 0.0
O607 O 0.59631 0.3442 0.35736 0.0
O608 O 0.67922 0.32623 0.48373 0.0
H609 H 0.58734 0.31643 0.45062 0.0
H610 H 0.73985 0.31058 0.40989 0.0
H611 H 0.54654 0.32015 0.48061 0.0
Zn612 Zn 0.18739 0.64462 0.46101 0.0
C613 C 0.24742 0.63195 0.40476 0.0
N614 N 0.26384 0.64111 0.42462 0.0
C615 C 0.24652 0.64698 0.44492 0.0
N616 N 0.22028 0.64147 0.43781 0.0
N617 N 0.22079 0.63226 0.41215 0.0
C618 C 0.19867 0.62081 0.32497 0.0
O619 O 0.22299 0.63169 0.32237 0.0
O620 O 0.18259 0.67824 0.48359 0.0
Zn621 Zn 0.19128 0.63963 0.38586 0.0
N622 N 0.18415 0.61353 0.48476 0.0
C623 C 0.18545 0.56549 0.49074 0.0
C624 C 0.18926 0.58838 0.47438 0.0
C625 C 0.17514 0.61684 0.51081 0.0
N626 N 0.17663 0.56874 0.51677 0.0
C627 C 0.17132 0.59384 0.52745 0.0
O628 O 0.15219 0.63675 0.39819 0.0
C629 C 0.13927 0.64177 0.41992 0.0
O630 O 0.1515 0.6459 0.44217 0.0
H631 H 0.19596 0.58621 0.4535 0.0
H632 H 0.17065 0.63711 0.51825 0.0
C633 C 0.20535 0.68951 0.35826 0.0
C634 C 0.20935 0.71778 0.35751 0.0
C635 C 0.19526 0.72082 0.40376 0.0
C636 C 0.19088 0.69289 0.40418 0.0
N637 N 0.19592 0.67786 0.38147 0.0
N638 N 0.20409 0.73256 0.38045 0.0
H639 H 0.2091 0.67705 0.3406 0.0
C640 C 0.18952 0.70315 0.48377 0.0
O641 O 0.209 0.71199 0.46769 0.0
O642 O 0.18717 0.6207 0.34829 0.0
H643 H 0.1838 0.68315 0.42256 0.0
H644 H 0.18935 0.54528 0.48282 0.0
H645 H 0.19111 0.73323 0.42148 0.0
Zn646 Zn 0.8638 0.19158 0.38507 0.0
C647 C 0.87288 0.2461 0.44458 0.0
N648 N 0.87901 0.26315 0.42416 0.0
C649 C 0.8821 0.24646 0.40268 0.0
N650 N 0.87754 0.22003 0.40944 0.0
N651 N 0.87234 0.21994 0.43607 0.0
C652 C 0.81181 0.19777 0.48578 0.0
O653 O 0.80225 0.2108 0.46451 0.0
O654 O 0.87599 0.1918 0.34499 0.0
Zn655 Zn 0.86797 0.18864 0.46025 0.0
N656 N 0.82552 0.19816 0.38519 0.0
C657 C 0.78276 0.19263 0.40699 0.0
C658 C 0.81077 0.18861 0.40654 0.0
C659 C 0.81363 0.21185 0.36434 0.0
N660 N 0.77066 0.20509 0.38558 0.0
C661 C 0.78512 0.21466 0.36385 0.0
O662 O 0.86449 0.15216 0.44193 0.0
C663 C 0.86506 0.13926 0.41951 0.0
O664 O 0.86736 0.15173 0.39691 0.0
H665 H 0.82071 0.178 0.42302 0.0
H666 H 0.82643 0.2197 0.34827 0.0
C667 C 0.89628 0.17985 0.51049 0.0
C668 C 0.91926 0.17831 0.52749 0.0
C669 C 0.94756 0.18823 0.48941 0.0
C670 C 0.92465 0.19005 0.47271 0.0
N671 N 0.89952 0.18599 0.48358 0.0
N672 N 0.94433 0.18259 0.5163 0.0
H673 H 0.87603 0.17679 0.51867 0.0
C674 C 0.89538 0.17586 0.33827 0.0
O675 O 0.91016 0.16522 0.35788 0.0
O676 O 0.83644 0.19 0.48616 0.0
H677 H 0.92679 0.19469 0.45128 0.0
H678 H 0.77054 0.185 0.42362 0.0
H679 H 0.96774 0.19145 0.48111 0.0
Zn680 Zn 0.32302 0.8643 0.45915 0.0
C681 C 0.26228 0.88495 0.40685 0.0
N682 N 0.24662 0.88094 0.42895 0.0
C683 C 0.26422 0.87089 0.44724 0.0
N684 N 0.28982 0.86933 0.43707 0.0
N685 N 0.28851 0.87764 0.41125 0.0
C686 C 0.32873 0.90148 0.3377 0.0
O687 O 0.34084 0.91522 0.35726 0.0
O688 O 0.32391 0.82996 0.48189 0.0
Zn689 Zn 0.31495 0.8668 0.38369 0.0
N690 N 0.32548 0.89463 0.48448 0.0
C691 C 0.32042 0.94229 0.49144 0.0
C692 C 0.3181 0.91946 0.47478 0.0
C693 C 0.33525 0.89161 0.51036 0.0
N694 N 0.33024 0.9394 0.5171 0.0
C695 C 0.338 0.91475 0.52731 0.0
O696 O 0.35475 0.86922 0.39396 0.0
C697 C 0.36929 0.86697 0.41525 0.0
O698 O 0.35863 0.86482 0.43872 0.0
H699 H 0.31061 0.92146 0.45415 0.0
H700 H 0.34034 0.87143 0.51757 0.0
C701 C 0.30511 0.81737 0.35588 0.0
C702 C 0.30421 0.78895 0.35349 0.0
C703 C 0.3076 0.78518 0.4017 0.0
C704 C 0.31017 0.81332 0.40367 0.0
N705 N 0.30896 0.82871 0.38074 0.0
N706 N 0.3052 0.77367 0.3767 0.0
H707 H 0.30341 0.83051 0.33835 0.0
C708 C 0.34069 0.81059 0.47758 0.0
O709 O 0.35548 0.81089 0.45528 0.0
O710 O 0.31253 0.88233 0.34458 0.0
H711 H 0.31341 0.82285 0.4232 0.0
H712 H 0.31455 0.96221 0.48403 0.0
H713 H 0.30852 0.77251 0.41971 0.0
Zn714 Zn 0.8675 0.32418 0.05175 0.0
C715 C 0.88092 0.26371 0.10784 0.0
N716 N 0.87981 0.24771 0.08576 0.0
C717 C 0.87335 0.26504 0.06566 0.0
N718 N 0.87058 0.29094 0.07488 0.0
N719 N 0.87513 0.29005 0.10163 0.0
C720 C 0.8937 0.32723 0.17713 0.0
O721 O 0.91271 0.33764 0.16138 0.0
O722 O 0.83445 0.32753 0.02611 0.0
Zn723 Zn 0.86529 0.31958 0.12617 0.0
N724 N 0.89937 0.32564 0.02862 0.0
C725 C 0.94764 0.32793 0.02648 0.0
C726 C 0.92387 0.32337 0.04122 0.0
C727 C 0.89756 0.33215 1.00167 0.0
N728 N 0.94589 0.33484 0.99979 0.0
C729 C 0.92158 0.33717 0.98653 0.0
O730 O 0.87731 0.35785 0.11637 0.0
C731 C 0.87517 0.37179 0.09463 0.0
O732 O 0.87 0.36053 0.07181 0.0
H733 H 0.92478 0.31876 0.06275 0.0
H734 H 0.87759 0.33364 0.99257 0.0
C735 C 0.81221 0.30377 0.14121 0.0
C736 C 0.78376 0.30507 0.14098 0.0
C737 C 0.78584 0.34252 0.11035 0.0
C738 C 0.81403 0.34092 0.1104 0.0
N739 N 0.82661 0.32136 0.12543 0.0
N740 N 0.77148 0.32462 0.12552 0.0
H741 H 0.82285 0.28975 0.15444 0.0
C742 C 0.80909 0.32861 0.03168 0.0
O743 O 0.80082 0.32327 0.05644 0.0
O744 O 0.87419 0.31419 0.1661 0.0
H745 H 0.82548 0.35503 0.09825 0.0
H746 H 0.96735 0.32643 0.03624 0.0
H747 H 0.77543 0.35795 0.09858 0.0
Zn748 Zn 0.18731 0.8638 0.04997 0.0
C749 C 0.24552 0.88406 0.10586 0.0
N750 N 0.26233 0.87955 0.08473 0.0
C751 C 0.24557 0.86977 0.06552 0.0
N752 N 0.2194 0.8687 0.07406 0.0
N753 N 0.21933 0.87741 0.09982 0.0
C754 C 0.17914 0.89956 0.17434 0.0
O755 O 0.16545 0.91429 0.15669 0.0
O756 O 0.18345 0.82896 0.02769 0.0
Zn757 Zn 0.19051 0.86763 0.12531 0.0
N758 N 0.18587 0.89422 0.02446 0.0
C759 C 0.18911 0.94218 0.01853 0.0
C760 C 0.19156 0.9192 0.03493 0.0
C761 C 0.17782 0.8912 0.99796 0.0
N762 N 0.18078 0.93931 0.99233 0.0
C763 C 0.17479 0.91452 0.98124 0.0
O764 O 0.1508 0.87365 0.11375 0.0
C765 C 0.13841 0.869 0.09143 0.0
O766 O 0.15136 0.8647 0.06946 0.0
H767 H 0.19766 0.92119 0.05601 0.0
H768 H 0.17416 0.87091 0.99022 0.0
C769 C 0.20548 0.81707 0.14867 0.0
C770 C 0.20758 0.78862 0.14952 0.0
C771 C 0.18955 0.78624 0.10459 0.0
C772 C 0.18662 0.81438 0.10432 0.0
N773 N 0.1944 0.82911 0.12641 0.0
N774 N 0.19959 0.7741 0.1272 0.0
H775 H 0.21187 0.82959 0.1656 0.0
C776 C 0.19143 0.80429 0.02758 0.0
O777 O 0.2093 0.79576 0.04547 0.0
O778 O 0.19405 0.88034 0.16523 0.0
H779 H 0.17836 0.8244 0.08664 0.0
H780 H 0.19358 0.96223 0.02659 0.0
H781 H 0.18316 0.774 0.08741 0.0
Zn782 Zn 0.32117 0.64331 0.12748 0.0
C783 C 0.26676 0.63402 0.06993 0.0
N784 N 0.25098 0.62529 0.09049 0.0
C785 C 0.26844 0.62176 0.11116 0.0
N786 N 0.29423 0.62791 0.10355 0.0
N787 N 0.29335 0.63499 0.07736 0.0
C788 C 0.31847 0.69972 0.02491 0.0
O789 O 0.29378 0.70693 0.03238 0.0
O790 O 0.31729 0.63592 0.16803 0.0
Zn791 Zn 0.32573 0.64159 0.05398 0.0
N792 N 0.31471 0.68119 0.12293 0.0
C793 C 0.31696 0.72074 0.09532 0.0
C794 C 0.32261 0.69336 0.09941 0.0
C795 C 0.30114 0.69506 0.14259 0.0
N796 N 0.30464 0.73495 0.11548 0.0
C797 C 0.29664 0.72309 0.13933 0.0
O798 O 0.36209 0.64193 0.07376 0.0
C799 C 0.37429 0.63975 0.09651 0.0
O800 O 0.36111 0.63727 0.11865 0.0
H801 H 0.33307 0.68189 0.08401 0.0
H802 H 0.29483 0.68438 0.16077 0.0
C803 C 0.33606 0.61704 1.00153 0.0
C804 C 0.33864 0.59505 0.98324 0.0
C805 C 0.32651 0.56457 0.0189 0.0
C806 C 0.32366 0.58643 0.0368 0.0
N807 N 0.3285 0.61217 0.02781 0.0
N808 N 0.33394 0.56935 0.99269 0.0
H809 H 0.3405 0.6377 0.99521 0.0
C810 C 0.32964 0.61628 0.17955 0.0
O811 O 0.33932 0.59649 0.16431 0.0
O812 O 0.32813 0.67701 0.03273 0.0
H813 H 0.31794 0.58299 0.0578 0.0
H814 H 0.32316 0.73093 0.07679 0.0
H815 H 0.32292 0.54392 0.02578 0.0
Zn816 Zn 0.88216 0.36775 0.81971 0.0
C817 C 0.94063 0.36825 0.76245 0.0
N818 N 0.92065 0.37686 0.74601 0.0
C819 C 0.90016 0.38219 0.76325 0.0
N820 N 0.9071 0.37661 0.78951 0.0
N821 N 0.9331 0.36854 0.78885 0.0
C822 C 0.98065 0.30517 0.81904 0.0
O823 O 0.95564 0.29662 0.81588 0.0
O824 O 0.84465 0.38643 0.81999 0.0
Zn825 Zn 0.95882 0.36284 0.81934 0.0
N826 N 0.87599 0.32967 0.81516 0.0
C827 C 0.89515 0.28537 0.81774 0.0
C828 C 0.89728 0.31335 0.82158 0.0
C829 C 0.85211 0.31929 0.8058 0.0
N830 N 0.87147 0.27495 0.80825 0.0
C831 C 0.84961 0.29098 0.80214 0.0
O832 O 0.94093 0.36035 0.85578 0.0
C833 C 0.91957 0.36422 0.86986 0.0
O834 O 0.89696 0.37035 0.85861 0.0
H835 H 0.91565 0.32226 0.82962 0.0
H836 H 0.83554 0.33305 0.80125 0.0
C837 C 0.00813 0.39216 0.8318 0.0
C838 C 0.02431 0.41559 0.83589 0.0
C839 C 0.98695 0.44301 0.82151 0.0
C840 C 0.97102 0.41976 0.81782 0.0
N841 N 0.98189 0.39485 0.82294 0.0
N842 N 0.01306 0.44038 0.83035 0.0
H843 H 0.01627 0.37197 0.83509 0.0
C844 C 0.82283 0.40023 0.81661 0.0
O845 O 0.82167 0.41803 0.79667 0.0
O846 O 0.98573 0.33059 0.81759 0.0
H847 H 0.9501 0.4215 0.81106 0.0
H848 H 0.91168 0.2718 0.823 0.0
H849 H 0.97865 0.46303 0.81743 0.0
Zn850 Zn 0.14138 0.95812 0.81719 0.0
C851 C 0.1179 0.90055 0.76019 0.0
N852 N 0.1168 0.92236 0.74372 0.0
C853 C 0.1255 0.94305 0.75939 0.0
N854 N 0.13104 0.93446 0.78511 0.0
N855 N 0.12693 0.90748 0.78548 0.0
C856 C 0.1208 0.83099 0.82675 0.0
O857 O 0.10124 0.84637 0.83665 0.0
O858 O 0.17591 0.98207 0.81591 0.0
Zn859 Zn 0.14619 0.88429 0.81183 0.0
N860 N 0.1114 0.98288 0.82368 0.0
C861 C 0.06365 0.9881 0.8296 0.0
C862 C 0.08596 0.97202 0.82271 0.0
C863 C 0.1156 0.00932 0.83133 0.0
N864 N 0.06776 0.0143 0.83747 0.0
C865 C 0.09313 0.02565 0.8388 0.0
O866 O 0.14372 0.89391 0.85196 0.0
C867 C 0.14526 0.91597 0.8654 0.0
O868 O 0.14515 0.9389 0.85341 0.0
H869 H 0.08315 0.95089 0.817 0.0
H870 H 0.13612 0.01731 0.83132 0.0
C871 C 0.20015 0.86838 0.80242 0.0
C872 C 0.2262 0.87006 0.79097 0.0
C873 C 0.21752 0.91557 0.77771 0.0
C874 C 0.19186 0.9139 0.78961 0.0
N875 N 0.18337 0.89008 0.80103 0.0
N876 N 0.23426 0.89369 0.77887 0.0
H877 H 0.19327 0.85035 0.81302 0.0
C878 C 0.19748 0.97592 0.82909 0.0
O879 O 0.19914 0.95168 0.8403 0.0
O880 O 0.13947 0.84225 0.81242 0.0
H881 H 0.17914 0.93152 0.78973 0.0
H882 H 0.04322 0.97979 0.82894 0.0
H883 H 0.22436 0.93432 0.7683 0.0
Zn884 Zn 0.62542 0.1496 0.81021 0.0
C885 C 0.56624 0.12961 0.76052 0.0
N886 N 0.58614 0.12082 0.74391 0.0
C887 C 0.60829 0.12 0.75999 0.0
N888 N 0.60233 0.12842 0.78575 0.0
N889 N 0.57554 0.13311 0.78615 0.0
C890 C 0.53483 0.20136 0.82526 0.0
O891 O 0.55719 0.20215 0.83993 0.0
O892 O 0.66659 0.14166 0.81487 0.0
Zn893 Zn 0.55156 0.14465 0.81681 0.0
N894 N 0.6212 0.186 0.79659 0.0
C895 C 0.59657 0.22108 0.77378 0.0
C896 C 0.59786 0.19482 0.78442 0.0
C897 C 0.64297 0.20264 0.79914 0.0
N898 N 0.61801 0.23808 0.77742 0.0
C899 C 0.64121 0.22942 0.7898 0.0
O900 O 0.56919 0.14799 0.85375 0.0
C901 C 0.59266 0.14995 0.86436 0.0
O902 O 0.61408 0.15059 0.84988 0.0
H903 H 0.58015 0.18207 0.78321 0.0
H904 H 0.6607 0.1956 0.81025 0.0
C905 C 0.49862 0.1197 0.82864 0.0
C906 C 0.4819 0.0972 0.8354 0.0
C907 C 0.5201 0.06782 0.82936 0.0
C908 C 0.53647 0.09008 0.82304 0.0
N909 N 0.52552 0.11549 0.82276 0.0
N910 N 0.49343 0.0719 0.83537 0.0
H911 H 0.49057 0.14018 0.82775 0.0
C912 C 0.68468 0.12301 0.81334 0.0
O913 O 0.67803 0.0992 0.80302 0.0
O914 O 0.5298 0.17994 0.81129 0.0
H915 H 0.55793 0.08727 0.81876 0.0
H916 H 0.5782 0.22836 0.76402 0.0
H917 H 0.52853 0.04744 0.82969 0.0
Zn918 Zn 0.36324 0.63051 0.81355 0.0
C919 C 0.37193 0.56676 0.76334 0.0
N920 N 0.38192 0.58523 0.74581 0.0
C921 C 0.38405 0.60789 0.76107 0.0
N922 N 0.37554 0.60354 0.78703 0.0
N923 N 0.36838 0.57735 0.78845 0.0
C924 C 0.30766 0.53608 0.83975 0.0
O925 O 0.30969 0.55785 0.85516 0.0
O926 O 0.3775 0.66975 0.81077 0.0
Zn927 Zn 0.36087 0.55493 0.82124 0.0
N928 N 0.32506 0.63288 0.80706 0.0
C929 C 0.28195 0.61192 0.80089 0.0
C930 C 0.30969 0.6099 0.80634 0.0
C931 C 0.31398 0.65785 0.80309 0.0
N932 N 0.27069 0.637 0.79775 0.0
C933 C 0.28588 0.66032 0.79894 0.0
O934 O 0.36116 0.57597 0.85638 0.0
C935 C 0.36338 0.59922 0.86751 0.0
O936 O 0.36586 0.62085 0.85348 0.0
H937 H 0.31898 0.5903 0.80996 0.0
H938 H 0.32728 0.67531 0.8028 0.0
C939 C 0.38801 0.50299 0.83228 0.0
C940 C 0.41108 0.48719 0.83948 0.0
C941 C 0.43905 0.5264 0.83253 0.0
C942 C 0.41622 0.54185 0.82606 0.0
N943 N 0.39122 0.52998 0.82612 0.0
N944 N 0.43591 0.49974 0.83915 0.0
H945 H 0.3678 0.49434 0.83141 0.0
C946 C 0.39793 0.67929 0.82368 0.0
O947 O 0.41637 0.66225 0.8329 0.0
O948 O 0.32588 0.53163 0.82172 0.0
H949 H 0.41823 0.56336 0.82155 0.0
H950 H 0.26929 0.59386 0.8 0.0
H951 H 0.45912 0.53558 0.83266 0.0
Zn952 Zn 0.96115 0.14392 0.68913 0.0
C953 C 0.9066 0.11853 0.74689 0.0
N954 N 0.92858 0.12089 0.76306 0.0
C955 C 0.94781 0.13108 0.74645 0.0
N956 N 0.9382 0.13434 0.72086 0.0
N957 N 0.91196 0.12707 0.72115 0.0
C958 C 0.83865 0.1124 0.67627 0.0
O959 O 0.85819 0.1008 0.66209 0.0
O960 O 0.98674 0.17613 0.69238 0.0
Zn961 Zn 0.88508 0.14416 0.69724 0.0
N962 N 0.98497 0.11318 0.68183 0.0
C963 C 0.99021 0.06511 0.6792 0.0
C964 C 0.97408 0.08786 0.6844 0.0
C965 C 0.01151 0.11677 0.67411 0.0
N966 N 0.01659 0.06862 0.67158 0.0
C967 C 0.02799 0.09382 0.66871 0.0
O968 O 0.89582 0.14969 0.65726 0.0
C969 C 0.91755 0.15303 0.64348 0.0
O970 O 0.94094 0.15136 0.65439 0.0
H971 H 0.95298 0.08544 0.69039 0.0
H972 H 0.01944 0.13722 0.67179 0.0
C973 C 0.85839 0.1926 0.71018 0.0
C974 C 0.85628 0.21969 0.71846 0.0
C975 C 0.9006 0.21777 0.73706 0.0
C976 C 0.90341 0.19148 0.72673 0.0
N977 N 0.88231 0.17954 0.71326 0.0
N978 N 0.87738 0.23174 0.73179 0.0
H979 H 0.8424 0.18313 0.69825 0.0
C980 C 0.98049 0.20023 0.68518 0.0
O981 O 0.95489 0.2062 0.6802 0.0
O982 O 0.84537 0.12913 0.69505 0.0
H983 H 0.92226 0.181 0.72911 0.0
H984 H 0.98185 0.04478 0.68116 0.0
H985 H 0.91732 0.22756 0.74762 0.0
Zn986 Zn 0.37408 0.88664 0.69432 0.0
C987 C 0.37716 0.94698 0.74811 0.0
N988 N 0.3857 0.92766 0.76548 0.0
C989 C 0.39127 0.90627 0.74929 0.0
N990 N 0.38595 0.91202 0.72274 0.0
N991 N 0.37779 0.93795 0.72208 0.0
C992 C 0.31387 0.98748 0.69328 0.0
O993 O 0.30679 0.97677 0.71664 0.0
O994 O 0.38445 0.8459 0.69759 0.0
Zn995 Zn 0.37149 0.96011 0.68861 0.0
N996 N 0.33536 0.88874 0.69782 0.0
C997 C 0.2933 0.91244 0.7032 0.0
C998 C 0.32167 0.91264 0.70115 0.0
C999 C 0.32186 0.86491 0.69569 0.0
N1000 N 0.27979 0.88852 0.70017 0.0
C1001 C 0.29359 0.86481 0.69651 0.0
O1002 O 0.36952 0.93875 0.65393 0.0
C1003 C 0.37357 0.91656 0.64133 0.0
O1004 O 0.38058 0.89521 0.65416 0.0
H1005 H 0.33244 0.93166 0.70174 0.0
H1006 H 0.33299 0.84648 0.6914 0.0
C1007 C 0.39926 0.01161 0.67899 0.0
C1008 C 0.42244 0.02759 0.67292 0.0
C1009 C 0.44996 0.98771 0.67645 0.0
C1010 C 0.42703 0.97215 0.68242 0.0
N1011 N 0.40221 0.9843 0.68354 0.0
N1012 N 0.4471 0.01482 0.67178 0.0
H1013 H 0.37916 0.02057 0.68013 0.0
C1014 C 0.40402 0.83657 0.68323 0.0
O1015 O 0.4212 0.85409 0.67244 0.0
O1016 O 0.33723 0.98258 0.68334 0.0
H1017 H 0.4288 0.9504 0.68569 0.0
H1018 H 0.28199 0.93116 0.70585 0.0
H1019 H 0.46989 0.97834 0.67532 0.0
Zn1020 Zn 0.55397 0.37018 0.68891 0.0
C1021 C 0.60934 0.39806 0.74516 0.0
N1022 N 0.58707 0.39895 0.76095 0.0
C1023 C 0.56739 0.38725 0.7459 0.0
N1024 N 0.57667 0.38152 0.72058 0.0
N1025 N 0.60328 0.38708 0.72041 0.0
C1026 C 0.68977 0.39154 0.69941 0.0
O1027 O 0.69257 0.40711 0.72099 0.0
O1028 O 0.53359 0.33415 0.68896 0.0
Zn1029 Zn 0.62744 0.36641 0.6968 0.0
N1030 N 0.52915 0.39967 0.68105 0.0
C1031 C 0.52537 0.44716 0.67259 0.0
C1032 C 0.5407 0.42483 0.68078 0.0
C1033 C 0.50268 0.39576 0.6735 0.0
N1034 N 0.49916 0.44334 0.66468 0.0
C1035 C 0.48707 0.41828 0.66465 0.0
O1036 O 0.61829 0.36429 0.65624 0.0
C1037 C 0.59657 0.36362 0.64221 0.0
O1038 O 0.57343 0.36564 0.65345 0.0
H1039 H 0.56187 0.42734 0.68644 0.0
H1040 H 0.49423 0.37547 0.67471 0.0
C1041 C 0.64734 0.31395 0.70884 0.0
C1042 C 0.64615 0.28708 0.71818 0.0
C1043 C 0.60179 0.29467 0.73527 0.0
C1044 C 0.60214 0.32069 0.72397 0.0
N1045 N 0.62515 0.33002 0.71138 0.0
N1046 N 0.62347 0.2781 0.7313 0.0
H1047 H 0.6647 0.32125 0.69729 0.0
C1048 C 0.52542 0.31106 0.69741 0.0
O1049 O 0.53305 0.30239 0.72153 0.0
O1050 O 0.66688 0.38001 0.69489 0.0
H1051 H 0.58421 0.33309 0.72561 0.0
H1052 H 0.53426 0.46735 0.67221 0.0
H1053 H 0.58389 0.28716 0.74577 0.0
Zn1054 Zn 0.14097 0.54988 0.68733 0.0
C1055 C 0.11848 0.60425 0.74644 0.0
N1056 N 0.12066 0.58259 0.76292 0.0
C1057 C 0.1299 0.56258 0.74665 0.0
N1058 N 0.13238 0.57145 0.72059 0.0
N1059 N 0.12593 0.59787 0.72073 0.0
C1060 C 0.11432 0.67431 0.68545 0.0
O1061 O 0.09537 0.65766 0.67646 0.0
O1062 O 0.17664 0.52844 0.68425 0.0
Zn1063 Zn 0.14536 0.62388 0.69859 0.0
N1064 N 0.11012 0.52657 0.67922 0.0
C1065 C 0.06187 0.5239 0.67614 0.0
C1066 C 0.08535 0.53854 0.6823 0.0
C1067 C 0.11248 0.50052 0.6697 0.0
N1068 N 0.0641 0.49772 0.66754 0.0
C1069 C 0.08872 0.48525 0.66432 0.0
O1070 O 0.14713 0.61641 0.65785 0.0
C1071 C 0.14552 0.59524 0.64306 0.0
O1072 O 0.14313 0.57183 0.65357 0.0
H1073 H 0.08397 0.55941 0.68931 0.0
H1074 H 0.13254 0.49165 0.6674 0.0
C1075 C 0.19657 0.64414 0.70619 0.0
C1076 C 0.22428 0.64451 0.71206 0.0
C1077 C 0.21997 0.60281 0.73564 0.0
C1078 C 0.19252 0.6016 0.72807 0.0
N1079 N 0.18155 0.6223 0.71314 0.0
N1080 N 0.23556 0.62391 0.72672 0.0
H1081 H 0.18749 0.65992 0.6938 0.0
C1082 C 0.19862 0.52251 0.69667 0.0
O1083 O 0.20243 0.53054 0.7219 0.0
O1084 O 0.13393 0.66443 0.69939 0.0
H1085 H 0.18055 0.58416 0.73375 0.0
H1086 H 0.04198 0.53314 0.67844 0.0
H1087 H 0.22908 0.58648 0.74731 0.0
Zn1088 Zn 0.81725 0.88094 0.36461 0.0
C1089 C 0.76704 0.94382 0.37022 0.0
N1090 N 0.74942 0.92453 0.37841 0.0
C1091 C 0.76537 0.90303 0.38371 0.0
N1092 N 0.79194 0.90842 0.37858 0.0
N1093 N 0.79324 0.93455 0.37104 0.0
C1094 C 0.82101 0.97875 0.31189 0.0
O1095 O 0.79826 0.9652 0.30789 0.0
O1096 O 0.81326 0.84124 0.3769 0.0
Zn1097 Zn 0.828 0.95539 0.36833 0.0
N1098 N 0.8089 0.88064 0.32682 0.0
C1099 C 0.80864 0.90364 0.28443 0.0
C1100 C 0.81468 0.90326 0.31207 0.0
C1101 C 0.79778 0.85813 0.31525 0.0
N1102 N 0.79872 0.88072 0.27256 0.0
C1103 C 0.79346 0.85749 0.28699 0.0
O1104 O 0.86271 0.93349 0.36677 0.0
C1105 C 0.87286 0.90973 0.36562 0.0
O1106 O 0.85779 0.88867 0.36561 0.0
H1107 H 0.82399 0.92065 0.32186 0.0
H1108 H 0.79328 0.84096 0.32812 0.0
C1109 C 0.84018 0.0056 0.39771 0.0
C1110 C 0.84161 0.02203 0.42126 0.0
C1111 C 0.82974 0.98334 0.44805 0.0
C1112 C 0.8274 0.96752 0.42463 0.0
N1113 N 0.83241 0.97893 0.39995 0.0
N1114 N 0.83651 0.01009 0.4458 0.0
H1115 H 0.84362 0.01417 0.3777 0.0
C1116 C 0.82891 0.83053 0.39461 0.0
O1117 O 0.84168 0.84661 0.41179 0.0
O1118 O 0.83293 0.9778 0.33474 0.0
H1119 H 0.82154 0.94628 0.42599 0.0
H1120 H 0.81287 0.92154 0.27225 0.0
H1121 H 0.82585 0.97456 0.46788 0.0
Zn1122 Zn 0.6277 0.82117 0.36808 0.0
C1123 C 0.56484 0.76771 0.37228 0.0
N1124 N 0.58298 0.75042 0.38304 0.0
C1125 C 0.60551 0.76579 0.38576 0.0
N1126 N 0.60146 0.79175 0.3767 0.0
N1127 N 0.57551 0.79279 0.36865 0.0
C1128 C 0.53053 0.82219 0.30452 0.0
O1129 O 0.55537 0.81985 0.29532 0.0
O1130 O 0.6669 0.81801 0.38231 0.0
Zn1131 Zn 0.55193 0.82474 0.36302 0.0
N1132 N 0.63205 0.82002 0.32965 0.0
C1133 C 0.61348 0.82929 0.28605 0.0
C1134 C 0.6112 0.82952 0.31425 0.0
C1135 C 0.65566 0.81127 0.31817 0.0
N1136 N 0.63631 0.81903 0.27461 0.0
C1137 C 0.65745 0.8095 0.28987 0.0
O1138 O 0.57101 0.86152 0.36301 0.0
C1139 C 0.59339 0.87359 0.36843 0.0
O1140 O 0.6151 0.86037 0.37383 0.0
H1141 H 0.59317 0.83741 0.32389 0.0
H1142 H 0.67277 0.80582 0.33089 0.0
C1143 C 0.50158 0.83575 0.39106 0.0
C1144 C 0.48431 0.83762 0.41392 0.0
C1145 C 0.52058 0.82169 0.4418 0.0
C1146 C 0.53743 0.81956 0.41904 0.0
N1147 N 0.52764 0.82661 0.39415 0.0
N1148 N 0.49456 0.83064 0.43874 0.0
H1149 H 0.49468 0.84204 0.37111 0.0
C1150 C 0.67609 0.83458 0.40006 0.0
O1151 O 0.65858 0.84926 0.41402 0.0
O1152 O 0.52611 0.82298 0.33006 0.0
H1153 H 0.55825 0.81263 0.42117 0.0
H1154 H 0.59755 0.83746 0.27322 0.0
H1155 H 0.52812 0.81631 0.46179 0.0
Zn1156 Zn 0.69016 0.55353 0.36324 0.0
C1157 C 0.74678 0.61343 0.37436 0.0
N1158 N 0.76377 0.5923 0.37078 0.0
C1159 C 0.74678 0.57131 0.36683 0.0
N1160 N 0.72046 0.57899 0.36804 0.0
N1161 N 0.72023 0.60582 0.3723 0.0
C1162 C 0.67746 0.67683 0.39588 0.0
O1163 O 0.66818 0.65842 0.41299 0.0
O1164 O 0.69378 0.52995 0.32914 0.0
Zn1165 Zn 0.68898 0.62863 0.36281 0.0
N1166 N 0.68757 0.529 0.39417 0.0
C1167 C 0.68319 0.52416 0.44217 0.0
C1168 C 0.68905 0.54017 0.41944 0.0
C1169 C 0.68053 0.5023 0.39065 0.0
N1170 N 0.67601 0.49762 0.43872 0.0
C1171 C 0.67465 0.48598 0.41356 0.0
O1172 O 0.65176 0.6144 0.37519 0.0
C1173 C 0.63978 0.59196 0.36984 0.0
O1174 O 0.65314 0.5708 0.36314 0.0
H1175 H 0.69389 0.56158 0.42178 0.0
H1176 H 0.67839 0.49425 0.37024 0.0
C1177 C 0.70787 0.64065 0.3081 0.0
C1178 C 0.70612 0.63985 0.27947 0.0
C1179 C 0.66481 0.61479 0.28289 0.0
C1180 C 0.66584 0.617 0.31098 0.0
N1181 N 0.68767 0.62894 0.32323 0.0
N1182 N 0.68472 0.62642 0.2679 0.0
H1183 H 0.72458 0.65087 0.31826 0.0
C1184 C 0.67841 0.53499 0.30889 0.0
O1185 O 0.66361 0.55719 0.30941 0.0
O1186 O 0.69033 0.66864 0.37483 0.0
H1187 H 0.64923 0.609 0.32261 0.0
H1188 H 0.68393 0.53288 0.4624 0.0
H1189 H 0.64788 0.60469 0.27298 0.0
Zn1190 Zn 0.96064 0.68598 0.36478 0.0
C1191 C 0.90502 0.74536 0.38034 0.0
N1192 N 0.92731 0.76098 0.37714 0.0
C1193 C 0.94684 0.74292 0.37119 0.0
N1194 N 0.93713 0.71727 0.37057 0.0
N1195 N 0.91061 0.71853 0.37629 0.0
C1196 C 0.82418 0.69638 0.39959 0.0
O1197 O 0.82245 0.71311 0.4204 0.0
O1198 O 0.98712 0.68892 0.3323 0.0
Zn1199 Zn 0.88432 0.68934 0.36859 0.0
N1200 N 0.98287 0.68189 0.39692 0.0
C1201 C 0.98618 0.6814 0.44527 0.0
C1202 C 0.97089 0.68533 0.42164 0.0
C1203 C 0.00952 0.67443 0.39479 0.0
N1204 N 0.01282 0.67414 0.4432 0.0
C1205 C 0.02489 0.67043 0.41853 0.0
O1206 O 0.89708 0.64973 0.37375 0.0
C1207 C 0.91889 0.63755 0.36644 0.0
O1208 O 0.9409 0.65048 0.36188 0.0
H1209 H 0.94958 0.69088 0.42292 0.0
H1210 H 0.01862 0.67165 0.3749 0.0
C1211 C 0.85576 0.7023 0.31895 0.0
C1212 C 0.85299 0.70153 0.29056 0.0
C1213 C 0.89651 0.68093 0.28671 0.0
C1214 C 0.8988 0.68099 0.31486 0.0
N1215 N 0.87861 0.69173 0.33035 0.0
N1216 N 0.8736 0.69094 0.27529 0.0
H1217 H 0.83959 0.71 0.33182 0.0
C1218 C 0.98169 0.68635 0.30703 0.0
O1219 O 0.95632 0.68476 0.29919 0.0
O1220 O 0.84721 0.69366 0.38769 0.0
H1221 H 0.91635 0.67231 0.32445 0.0
H1222 H 0.97694 0.68406 0.4651 0.0
H1223 H 0.9122 0.67208 0.27401 0.0
Zn1224 Zn 0.82399 0.55357 0.14365 0.0
C1225 C 0.75989 0.60553 0.12748 0.0
N1226 N 0.7456 0.58274 0.13225 0.0
C1227 C 0.76445 0.56435 0.13923 0.0
N1228 N 0.78986 0.57505 0.138 0.0
N1229 N 0.78719 0.60136 0.13122 0.0
C1230 C 0.82753 0.67808 0.11388 0.0
O1231 O 0.83977 0.66096 0.09733 0.0
O1232 O 0.82756 0.53137 0.1785 0.0
Zn1233 Zn 0.81364 0.62856 0.145 0.0
N1234 N 0.8302 0.52882 0.11314 0.0
C1235 C 0.83283 0.5232 0.0651 0.0
C1236 C 0.82627 0.53903 0.08775 0.0
C1237 C 0.84067 0.50327 0.11685 0.0
N1238 N 0.84306 0.49774 0.06874 0.0
C1239 C 0.84724 0.48705 0.094 0.0
O1240 O 0.85451 0.61994 0.14349 0.0
C1241 C 0.86918 0.59858 0.14388 0.0
O1242 O 0.85842 0.57511 0.14419 0.0
H1243 H 0.81856 0.55953 0.08519 0.0
H1244 H 0.84422 0.4959 0.13731 0.0
C1245 C 0.79611 0.65205 0.19485 0.0
C1246 C 0.79247 0.65254 0.22321 0.0
C1247 C 0.8018 0.60485 0.22447 0.0
C1248 C 0.80781 0.60524 0.19684 0.0
N1249 N 0.80493 0.62882 0.18273 0.0
N1250 N 0.79499 0.6285 0.23701 0.0
H1251 H 0.79295 0.66981 0.18236 0.0
C1252 C 0.81622 0.5272 0.20143 0.0
O1253 O 0.79313 0.53929 0.20744 0.0
O1254 O 0.81227 0.6686 0.1327 0.0
H1255 H 0.8148 0.58703 0.18664 0.0
H1256 H 0.82995 0.53112 0.04475 0.0
H1257 H 0.80384 0.58628 0.23616 0.0
Zn1258 Zn 0.88128 0.81638 0.14633 0.0
C1259 C 0.94339 0.76407 0.13321 0.0
N1260 N 0.92332 0.74831 0.12331 0.0
C1261 C 0.90158 0.76483 0.12284 0.0
N1262 N 0.90781 0.78996 0.1324 0.0
N1263 N 0.93435 0.78974 0.1385 0.0
C1264 C 0.98351 0.82337 0.20297 0.0
O1265 O 0.96325 0.81126 0.21551 0.0
O1266 O 0.84197 0.81397 0.13253 0.0
Zn1267 Zn 0.95755 0.82276 0.14443 0.0
N1268 N 0.87855 0.80857 0.18443 0.0
C1269 C 0.89888 0.80778 0.2283 0.0
C1270 C 0.90097 0.81172 0.20024 0.0
C1271 C 0.85404 0.8018 0.19534 0.0
N1272 N 0.87411 0.80231 0.23938 0.0
C1273 C 0.85135 0.79948 0.22371 0.0
O1274 O 0.93618 0.85745 0.14725 0.0
C1275 C 0.91339 0.86968 0.14672 0.0
O1276 O 0.89115 0.85661 0.14415 0.0
H1277 H 0.91997 0.81775 0.19093 0.0
H1278 H 0.83656 0.79972 0.18212 0.0
C1279 C 0.00685 0.83734 0.11462 0.0
C1280 C 0.02298 0.84008 0.091 0.0
C1281 C 0.98601 0.82341 0.06449 0.0
C1282 C 0.97018 0.82064 0.08792 0.0
N1283 N 0.98088 0.82738 0.11253 0.0
N1284 N 0.01199 0.83277 0.0666 0.0
H1285 H 0.01506 0.84238 0.13444 0.0
C1286 C 0.83223 0.83015 0.11474 0.0
O1287 O 0.84918 0.84357 0.09896 0.0
O1288 O 0.9831 0.8266 0.17722 0.0
H1289 H 0.94949 0.81307 0.08655 0.0
H1290 H 0.91643 0.81034 0.24137 0.0
H1291 H 0.9778 0.81795 0.04478 0.0
Zn1292 Zn 0.69065 0.88219 0.14217 0.0
C1293 C 0.7413 0.94573 0.13166 0.0
N1294 N 0.7594 0.92645 0.12496 0.0
C1295 C 0.74424 0.90362 0.12349 0.0
N1296 N 0.71765 0.90866 0.1293 0.0
N1297 N 0.71606 0.93528 0.13442 0.0
C1298 C 0.6903 0.98376 0.19852 0.0
O1299 O 0.70532 0.9647 0.20964 0.0
O1300 O 0.69217 0.84312 0.12699 0.0
Zn1301 Zn 0.68416 0.9582 0.14035 0.0
N1302 N 0.69879 0.87991 0.17985 0.0
C1303 C 0.69786 0.90192 0.22281 0.0
C1304 C 0.6936 0.90254 0.19487 0.0
C1305 C 0.70825 0.8566 0.19135 0.0
N1306 N 0.70589 0.87829 0.23455 0.0
C1307 C 0.71091 0.85528 0.21976 0.0
O1308 O 0.6488 0.93803 0.14393 0.0
C1309 C 0.63678 0.91508 0.14418 0.0
O1310 O 0.65008 0.89292 0.14163 0.0
H1311 H 0.68587 0.9207 0.18511 0.0
H1312 H 0.71236 0.83915 0.17855 0.0
C1313 C 0.67255 0.00926 0.1128 0.0
C1314 C 0.67098 0.0266 0.08992 0.0
C1315 C 0.68713 0.99019 0.06216 0.0
C1316 C 0.68844 0.97318 0.0848 0.0
N1317 N 0.68119 0.98297 0.10963 0.0
N1318 N 0.67851 0.0163 0.06526 0.0
H1319 H 0.66667 0.01635 0.13279 0.0
C1320 C 0.67613 0.83654 0.10766 0.0
O1321 O 0.66419 0.85629 0.09408 0.0
O1322 O 0.68368 0.98223 0.17357 0.0
H1323 H 0.69526 0.95231 0.08268 0.0
H1324 H 0.69361 0.91956 0.23533 0.0
H1325 H 0.6929 0.98272 0.04224 0.0
Zn1326 Zn 0.55563 0.68634 0.15185 0.0
C1327 C 0.60657 0.74802 0.12936 0.0
N1328 N 0.58545 0.76341 0.13748 0.0
C1329 C 0.56763 0.74531 0.14744 0.0
N1330 N 0.57713 0.71946 0.14512 0.0
N1331 N 0.60221 0.72104 0.13455 0.0
C1332 C 0.68602 0.69505 0.10106 0.0
O1333 O 0.69151 0.71059 0.07998 0.0
O1334 O 0.5315 0.68905 0.18545 0.0
Zn1335 Zn 0.63108 0.69305 0.13991 0.0
N1336 N 0.53211 0.67981 0.12038 0.0
C1337 C 0.52727 0.68307 0.07228 0.0
C1338 C 0.54306 0.68584 0.09568 0.0
C1339 C 0.50597 0.67031 0.12257 0.0
N1340 N 0.50098 0.67471 0.07451 0.0
C1341 C 0.4897 0.66821 0.099 0.0
O1342 O 0.62008 0.6526 0.14112 0.0
C1343 C 0.59936 0.63964 0.15008 0.0
O1344 O 0.57707 0.6518 0.15518 0.0
H1345 H 0.56386 0.69306 0.09428 0.0
H1346 H 0.49756 0.6659 0.14248 0.0
C1347 C 0.67044 0.69739 0.1831 0.0
C1348 C 0.67874 0.7026 0.20987 0.0
C1349 C 0.63319 0.71466 0.22127 0.0
C1350 C 0.62498 0.70859 0.19488 0.0
N1351 N 0.64378 0.70038 0.17625 0.0
N1352 N 0.6597 0.71118 0.22821 0.0
H1353 H 0.68496 0.69094 0.16796 0.0
C1354 C 0.53744 0.6769 0.20761 0.0
O1355 O 0.56121 0.66476 0.20971 0.0
O1356 O 0.66278 0.6984 0.11253 0.0
H1357 H 0.60376 0.71034 0.18941 0.0
H1358 H 0.53567 0.688 0.05251 0.0
H1359 H 0.61854 0.72137 0.23633 0.0
Zn1360 Zn 0.36742 0.82064 0.95889 0.0
C1361 C 0.39135 0.76182 0.90469 0.0
N1362 N 0.38952 0.74595 0.92691 0.0
C1363 C 0.38006 0.7628 0.94626 0.0
N1364 N 0.37641 0.7883 0.93645 0.0
N1365 N 0.38343 0.78771 0.91021 0.0
C1366 C 0.39928 0.83129 0.83617 0.0
O1367 O 0.41254 0.84455 0.8553 0.0
O1368 O 0.33243 0.82011 0.98225 0.0
Zn1369 Zn 0.36823 0.81275 0.88361 0.0
N1370 N 0.39784 0.8258 0.98339 0.0
C1371 C 0.44577 0.82369 0.98982 0.0
C1372 C 0.42297 0.81982 0.97346 0.0
C1373 C 0.39451 0.83595 0.00903 0.0
N1374 N 0.4425 0.83339 0.01548 0.0
C1375 C 0.41754 0.83983 0.02585 0.0
O1376 O 0.36776 0.85315 0.89338 0.0
C1377 C 0.36579 0.86712 0.91507 0.0
O1378 O 0.36532 0.85578 0.93828 0.0
H1379 H 0.42524 0.81226 0.95288 0.0
H1380 H 0.37423 0.84125 0.01582 0.0
C1381 C 0.31964 0.80521 0.85764 0.0
C1382 C 0.29163 0.80232 0.85471 0.0
C1383 C 0.28854 0.78701 0.90033 0.0
C1384 C 0.3164 0.79196 0.90363 0.0
N1385 N 0.33117 0.80135 0.88214 0.0
N1386 N 0.27656 0.79318 0.87615 0.0
H1387 H 0.33183 0.81326 0.84126 0.0
C1388 C 0.31177 0.83428 0.97529 0.0
O1389 O 0.31153 0.84595 0.95124 0.0
O1390 O 0.38232 0.81293 0.84349 0.0
H1391 H 0.32581 0.78912 0.92318 0.0
H1392 H 0.46595 0.819 0.98224 0.0
H1393 H 0.27635 0.77973 0.9172 0.0
Zn1394 Zn 0.36713 0.69358 0.55336 0.0
C1395 C 0.3961 0.74921 0.60872 0.0
N1396 N 0.39567 0.76538 0.58664 0.0
C1397 C 0.38569 0.74916 0.56697 0.0
N1398 N 0.38067 0.72385 0.57634 0.0
N1399 N 0.38651 0.72387 0.60279 0.0
C1400 C 0.39672 0.68348 0.67477 0.0
O1401 O 0.41262 0.67229 0.65634 0.0
O1402 O 0.33268 0.69959 0.52954 0.0
Zn1403 Zn 0.36714 0.69938 0.62651 0.0
N1404 N 0.39719 0.685 0.5296 0.0
C1405 C 0.44476 0.67652 0.5256 0.0
C1406 C 0.42234 0.68433 0.54116 0.0
C1407 C 0.39342 0.67813 0.50303 0.0
N1408 N 0.4411 0.66965 0.49907 0.0
C1409 C 0.41603 0.67039 0.48717 0.0
O1410 O 0.36616 0.65888 0.61686 0.0
C1411 C 0.36149 0.64578 0.595 0.0
O1412 O 0.36067 0.65784 0.57219 0.0
H1413 H 0.42484 0.68941 0.56246 0.0
H1414 H 0.37301 0.67802 0.49467 0.0
C1415 C 0.31454 0.70612 0.64547 0.0
C1416 C 0.28762 0.71495 0.6458 0.0
C1417 C 0.29421 0.73761 0.60388 0.0
C1418 C 0.32081 0.72785 0.60303 0.0
N1419 N 0.33047 0.71238 0.624 0.0
N1420 N 0.27793 0.73024 0.62489 0.0
H1421 H 0.32236 0.6928 0.66121 0.0
C1422 C 0.31055 0.68724 0.53582 0.0
O1423 O 0.30875 0.67609 0.56005 0.0
O1424 O 0.37799 0.69955 0.66672 0.0
H1425 H 0.3332 0.73267 0.58573 0.0
H1426 H 0.46489 0.6757 0.53456 0.0
H1427 H 0.28621 0.74994 0.58745 0.0
Zn1428 Zn 0.81115 0.36428 0.62841 0.0
C1429 C 0.7656 0.3809 0.56445 0.0
N1430 N 0.74799 0.38979 0.58339 0.0
C1431 C 0.76299 0.3907 0.6063 0.0
N1432 N 0.7891 0.3828 0.60143 0.0
N1433 N 0.79061 0.37664 0.57504 0.0
C1434 C 0.8342 0.31024 0.53498 0.0
O1435 O 0.84577 0.30796 0.55897 0.0
O1436 O 0.81109 0.37907 0.66755 0.0
Zn1437 Zn 0.82295 0.36621 0.55342 0.0
N1438 N 0.79298 0.32979 0.63102 0.0
C1439 C 0.75846 0.2976 0.61905 0.0
C1440 C 0.77147 0.32254 0.61502 0.0
C1441 C 0.80171 0.31322 0.65101 0.0
N1442 N 0.76791 0.28055 0.63856 0.0
C1443 C 0.78903 0.28807 0.65473 0.0
O1444 O 0.85677 0.36084 0.57501 0.0
C1445 C 0.86701 0.35783 0.5985 0.0
O1446 O 0.85211 0.35854 0.61977 0.0
H1447 H 0.76399 0.33597 0.5996 0.0
H1448 H 0.81936 0.31905 0.66293 0.0
C1449 C 0.83661 0.39262 0.50263 0.0
C1450 C 0.84516 0.41494 0.48665 0.0
C1451 C 0.84113 0.44362 0.52562 0.0
C1452 C 0.83331 0.42137 0.54136 0.0
N1453 N 0.8313 0.39639 0.52963 0.0
N1454 N 0.84692 0.43987 0.49886 0.0
H1455 H 0.83384 0.37257 0.49398 0.0
C1456 C 0.82825 0.39655 0.67627 0.0
O1457 O 0.84242 0.41062 0.65842 0.0
O1458 O 0.82123 0.3321 0.52927 0.0
H1459 H 0.82913 0.42383 0.56286 0.0
H1460 H 0.74143 0.2916 0.60638 0.0
H1461 H 0.84281 0.4637 0.53461 0.0
Zn1462 Zn 0.14878 0.80713 0.6271 0.0
C1463 C 0.12768 0.76365 0.56227 0.0
N1464 N 0.11938 0.7453 0.58081 0.0
C1465 C 0.12005 0.75908 0.60452 0.0
N1466 N 0.12842 0.78529 0.6006 0.0
N1467 N 0.13276 0.78803 0.57391 0.0
C1468 C 0.20118 0.82691 0.53607 0.0
O1469 O 0.20437 0.83373 0.56172 0.0
O1470 O 0.13543 0.8079 0.66694 0.0
Zn1471 Zn 0.1435 0.82041 0.55238 0.0
N1472 N 0.18411 0.79037 0.62652 0.0
C1473 C 0.21692 0.76159 0.60516 0.0
C1474 C 0.19108 0.77313 0.60596 0.0
C1475 C 0.20215 0.79669 0.6463 0.0
N1476 N 0.23538 0.76904 0.62417 0.0
C1477 C 0.22856 0.78611 0.64481 0.0
O1478 O 0.14862 0.85408 0.57414 0.0
C1479 C 0.15252 0.86358 0.5978 0.0
O1480 O 0.15339 0.84799 0.61852 0.0
H1481 H 0.17675 0.76784 0.59052 0.0
H1482 H 0.19662 0.81162 0.66162 0.0
C1483 C 0.11668 0.83553 0.50218 0.0
C1484 C 0.0946 0.84573 0.48685 0.0
C1485 C 0.06642 0.84213 0.52619 0.0
C1486 C 0.0885 0.83274 0.54131 0.0
N1487 N 0.11313 0.82967 0.52907 0.0
N1488 N 0.07001 0.84846 0.49952 0.0
H1489 H 0.13644 0.83211 0.4931 0.0
C1490 C 0.11639 0.82417 0.67397 0.0
O1491 O 0.10162 0.83547 0.65473 0.0
O1492 O 0.17779 0.81887 0.528 0.0
H1493 H 0.08623 0.82834 0.56278 0.0
H1494 H 0.2226 0.74772 0.58898 0.0
H1495 H 0.04665 0.8447 0.53562 0.0
Zn1496 Zn 0.69137 0.14376 0.55016 0.0
C1497 C 0.75 0.11752 0.60384 0.0
N1498 N 0.76651 0.12085 0.58239 0.0
C1499 C 0.7507 0.13254 0.56336 0.0
N1500 N 0.72457 0.13484 0.57233 0.0
N1501 N 0.72446 0.12653 0.59827 0.0
C1502 C 0.68357 0.11269 0.67284 0.0
O1503 O 0.67108 0.09801 0.65424 0.0
O1504 O 0.68787 0.18072 0.53046 0.0
Zn1505 Zn 0.7005 0.14361 0.62482 0.0
N1506 N 0.68453 0.11342 0.52476 0.0
C1507 C 0.68234 0.06516 0.51948 0.0
C1508 C 0.68793 0.08807 0.53538 0.0
C1509 C 0.67557 0.11673 0.49861 0.0
N1510 N 0.67384 0.06842 0.49337 0.0
C1511 C 0.67051 0.09359 0.48219 0.0
O1512 O 0.65972 0.14474 0.61633 0.0
C1513 C 0.64567 0.146 0.59466 0.0
O1514 O 0.65702 0.14564 0.57151 0.0
H1515 H 0.69462 0.08572 0.55624 0.0
H1516 H 0.67221 0.13708 0.49077 0.0
C1517 C 0.70598 0.19454 0.64735 0.0
C1518 C 0.71233 0.22211 0.64931 0.0
C1519 C 0.7359 0.21992 0.60746 0.0
C1520 C 0.72861 0.19252 0.60506 0.0
N1521 N 0.71354 0.18048 0.62507 0.0
N1522 N 0.72696 0.23437 0.62926 0.0
H1523 H 0.69299 0.18483 0.66226 0.0
C1524 C 0.69916 0.204 0.52793 0.0
O1525 O 0.72252 0.2091 0.53994 0.0
O1526 O 0.70078 0.13058 0.66495 0.0
H1527 H 0.73475 0.18147 0.58724 0.0
H1528 H 0.6848 0.0449 0.52782 0.0
H1529 H 0.74756 0.2299 0.59161 0.0
Zn1530 Zn 0.14091 0.68521 0.88372 0.0
C1531 C 0.13997 0.74215 0.9425 0.0
N1532 N 0.13281 0.7595 0.92271 0.0
C1533 C 0.12908 0.74318 0.90102 0.0
N1534 N 0.13369 0.71651 0.9074 0.0
N1535 N 0.14067 0.71614 0.93363 0.0
C1536 C 0.2014 0.6714 0.97984 0.0
O1537 O 0.2031 0.65526 0.95866 0.0
O1538 O 0.12642 0.68578 0.84475 0.0
Zn1539 Zn 0.1463 0.68477 0.95821 0.0
N1540 N 0.1792 0.68627 0.88032 0.0
C1541 C 0.22288 0.67435 0.89722 0.0
C1542 C 0.19474 0.67234 0.8984 0.0
C1543 C 0.19046 0.70165 0.86038 0.0
N1544 N 0.23422 0.68932 0.87708 0.0
C1545 C 0.21879 0.70296 0.85841 0.0
O1546 O 0.14569 0.64777 0.94103 0.0
C1547 C 0.13913 0.63446 0.91983 0.0
O1548 O 0.13273 0.64665 0.89782 0.0
H1549 H 0.1854 0.65975 0.91344 0.0
H1550 H 0.17748 0.71193 0.84582 0.0
C1551 C 0.11757 0.67499 0.00855 0.0
C1552 C 0.09404 0.67303 0.02482 0.0
C1553 C 0.06724 0.68759 0.98719 0.0
C1554 C 0.09061 0.68967 0.97124 0.0
N1555 N 0.11525 0.6835 0.98222 0.0
N1556 N 0.0695 0.67943 0.01348 0.0
H1557 H 0.13747 0.67008 0.01667 0.0
C1558 C 0.11337 0.69189 0.82317 0.0
O1559 O 0.09535 0.71166 0.82379 0.0
O1560 O 0.18031 0.68641 0.98265 0.0
H1561 H 0.08915 0.69586 0.95015 0.0
H1562 H 0.23566 0.66347 0.91151 0.0
H1563 H 0.04744 0.69239 0.97876 0.0
Zn1564 Zn 0.82182 0.14372 0.95693 0.0
C1565 C 0.76266 0.13025 0.89957 0.0
N1566 N 0.74619 0.13459 0.92104 0.0
C1567 C 0.76359 0.13975 0.94149 0.0
N1568 N 0.78976 0.13907 0.93294 0.0
N1569 N 0.78931 0.13289 0.90648 0.0
C1570 C 0.8313 0.11037 0.83327 0.0
O1571 O 0.8421 0.09427 0.85173 0.0
O1572 O 0.82658 0.17861 0.97891 0.0
Zn1573 Zn 0.8187 0.14251 0.8814 0.0
N1574 N 0.82301 0.11401 0.98307 0.0
C1575 C 0.81972 0.06642 0.99159 0.0
C1576 C 0.81762 0.08847 0.97385 0.0
C1577 C 0.83048 0.11848 0.00949 0.0
N1578 N 0.82703 0.07082 0.0179 0.0
C1579 C 0.83236 0.0963 0.02767 0.0
O1580 O 0.85794 0.13573 0.8927 0.0
C1581 C 0.87028 0.13962 0.91509 0.0
O1582 O 0.85737 0.14306 0.9372 0.0
H1583 H 0.8121 0.0853 0.95275 0.0
H1584 H 0.83565 0.13893 0.01592 0.0
C1585 C 0.8064 0.19375 0.85826 0.0
C1586 C 0.80479 0.2222 0.85811 0.0
C1587 C 0.82129 0.2233 0.90359 0.0
C1588 C 0.82313 0.19505 0.90352 0.0
N1589 N 0.81589 0.18098 0.88081 0.0
N1590 N 0.81242 0.23616 0.88088 0.0
H1591 H 0.80081 0.18186 0.84055 0.0
C1592 C 0.82069 0.20381 0.98037 0.0
O1593 O 0.80317 0.21452 0.96333 0.0
O1594 O 0.81666 0.13026 0.84137 0.0
H1595 H 0.83024 0.1844 0.92134 0.0
H1596 H 0.81571 0.04591 0.98451 0.0
H1597 H 0.82751 0.23504 0.92117 0.0
Zn1598 Zn 0.6888 0.36863 0.96057 0.0
C1599 C 0.74664 0.39356 0.90589 0.0
N1600 N 0.76292 0.39116 0.92771 0.0
C1601 C 0.74631 0.38224 0.94749 0.0
N1602 N 0.72036 0.37998 0.93837 0.0
N1603 N 0.72057 0.38658 0.91203 0.0
C1604 C 0.68128 0.40088 0.83585 0.0
O1605 O 0.67088 0.41904 0.85255 0.0
O1606 O 0.69589 0.33725 0.98653 0.0
Zn1607 Zn 0.69587 0.36905 0.88656 0.0
N1608 N 0.67835 0.39949 0.98274 0.0
C1609 C 0.6736 0.44755 0.98717 0.0
C1610 C 0.67964 0.42471 0.97137 0.0
C1611 C 0.67049 0.39604 0.00915 0.0
N1612 N 0.66695 0.44423 0.01382 0.0
C1613 C 0.66512 0.41903 0.02529 0.0
O1614 O 0.65515 0.36558 0.89649 0.0
C1615 C 0.64219 0.35901 0.918 0.0
O1616 O 0.65398 0.35864 0.94101 0.0
H1617 H 0.68565 0.42701 0.95029 0.0
H1618 H 0.66993 0.37576 0.01784 0.0
C1619 C 0.701 0.31889 0.86423 0.0
C1620 C 0.70662 0.29128 0.86163 0.0
C1621 C 0.73135 0.29245 0.9029 0.0
C1622 C 0.72509 0.32014 0.90568 0.0
N1623 N 0.70963 0.33258 0.88627 0.0
N1624 N 0.72145 0.27839 0.88115 0.0
H1625 H 0.68806 0.32913 0.8498 0.0
C1626 C 0.68863 0.3133 0.97965 0.0
O1627 O 0.68247 0.30882 0.95401 0.0
O1628 O 0.69523 0.38128 0.84583 0.0
H1629 H 0.73198 0.33113 0.92337 0.0
H1630 H 0.67478 0.4678 0.97851 0.0
H1631 H 0.7433 0.28209 0.91825 0.0
C1632 C 0.20187 0.72596 0.18402 0.0
C1633 C 0.17997 0.73393 0.20085 0.0
C1634 C 0.21847 0.74568 0.17197 0.0
C1635 C 0.21209 0.77344 0.17515 0.0
H1636 H 0.20386 0.70537 0.17654 0.0
H1637 H 0.23163 0.73919 0.15547 0.0
S1638 S 0.16979 0.80226 0.23067 0.0
N1639 N 0.16282 0.76939 0.23076 0.0
N1640 N 0.19306 0.80673 0.20678 0.0
C1641 C 0.19654 0.78068 0.19813 0.0
C1642 C 0.18014 0.76061 0.21102 0.0
C1643 C 0.74847 0.21486 0.1852 0.0
C1644 C 0.74242 0.20278 0.15999 0.0
C1645 C 0.76153 0.19957 0.20547 0.0
C1646 C 0.76732 0.17192 0.20089 0.0
H1647 H 0.74287 0.23584 0.18924 0.0
H1648 H 0.76682 0.20917 0.2246 0.0
S1649 S 0.75492 0.13163 0.13812 0.0
N1650 N 0.74334 0.16244 0.13126 0.0
N1651 N 0.76669 0.1334 0.16953 0.0
C1652 C 0.76125 0.15995 0.17566 0.0
C1653 C 0.74901 0.17552 0.15508 0.0
C1654 C 0.31229 0.75355 0.2052 0.0
C1655 C 0.31605 0.78024 0.19549 0.0
C1656 C 0.29945 0.73403 0.18888 0.0
C1657 C 0.2901 0.74117 0.16268 0.0
H1658 H 0.32326 0.74666 0.22308 0.0
H1659 H 0.30123 0.71297 0.19511 0.0
S1660 S 0.28125 0.81076 0.13562 0.0
N1661 N 0.29978 0.81463 0.16341 0.0
N1662 N 0.27376 0.77804 0.1342 0.0
C1663 C 0.2862 0.76895 0.15721 0.0
C1664 C 0.30007 0.78873 0.1732 0.0
C1665 C 0.75285 0.30905 0.20444 0.0
C1666 C 0.72719 0.31537 0.19331 0.0
C1667 C 0.77253 0.29605 0.18837 0.0
C1668 C 0.76668 0.29048 0.16089 0.0
H1669 H 0.75925 0.3183 0.22346 0.0
H1670 H 0.79344 0.29638 0.19547 0.0
S1671 S 0.69976 0.29081 0.12724 0.0
N1672 N 0.69489 0.30631 0.15665 0.0
N1673 N 0.73161 0.28015 0.12803 0.0
C1674 C 0.73924 0.28819 0.15341 0.0
C1675 C 0.71938 0.3023 0.16898 0.0
C1676 C 0.18427 0.74396 0.29309 0.0
C1677 C 0.18536 0.77169 0.30042 0.0
C1678 C 0.19785 0.72449 0.30882 0.0
C1679 C 0.21308 0.73277 0.33169 0.0
H1680 H 0.16895 0.73683 0.27885 0.0
H1681 H 0.19217 0.70337 0.30592 0.0
S1682 S 0.23513 0.80283 0.34815 0.0
N1683 N 0.21245 0.80647 0.32366 0.0
N1684 N 0.23835 0.76969 0.35264 0.0
C1685 C 0.22093 0.76019 0.3333 0.0
C1686 C 0.2068 0.78002 0.31766 0.0
C1687 C 0.74151 0.22622 0.34198 0.0
C1688 C 0.76963 0.22125 0.33868 0.0
C1689 C 0.72254 0.21229 0.32582 0.0
C1690 C 0.73163 0.19424 0.30544 0.0
H1691 H 0.73412 0.2363 0.3602 0.0
H1692 H 0.70151 0.21229 0.33249 0.0
S1693 S 0.80148 0.19006 0.27761 0.0
N1694 N 0.80451 0.20858 0.30549 0.0
N1695 N 0.7687 0.18305 0.27484 0.0
C1696 C 0.75876 0.19656 0.29685 0.0
C1697 C 0.77808 0.21025 0.31355 0.0
C1698 C 0.29789 0.7475 0.32567 0.0
C1699 C 0.30667 0.77479 0.32698 0.0
C1700 C 0.31166 0.72872 0.30933 0.0
C1701 C 0.33476 0.73704 0.29442 0.0
H1702 H 0.28332 0.73968 0.34031 0.0
H1703 H 0.30716 0.70739 0.31262 0.0
S1704 S 0.3569 0.80728 0.28027 0.0
N1705 N 0.33378 0.81022 0.30455 0.0
N1706 N 0.35723 0.77474 0.27203 0.0
C1707 C 0.33776 0.76492 0.28916 0.0
C1708 C 0.32479 0.78409 0.3066 0.0
C1709 C 0.75996 0.29557 0.31525 0.0
C1710 C 0.73289 0.30459 0.31797 0.0
C1711 C 0.77882 0.31105 0.30051 0.0
C1712 C 0.77064 0.33577 0.28839 0.0
H1713 H 0.76763 0.27949 0.32825 0.0
H1714 H 0.80011 0.30592 0.30288 0.0
S1715 S 0.70043 0.35967 0.2774 0.0
N1716 N 0.69757 0.33412 0.2991 0.0
N1717 N 0.73286 0.36066 0.26882 0.0
C1718 C 0.74273 0.33945 0.28369 0.0
C1719 C 0.7236 0.32475 0.29973 0.0
C1720 C 0.20341 0.19213 0.74194 0.0
C1721 C 0.20728 0.16409 0.74629 0.0
C1722 C 0.18447 0.20652 0.75754 0.0
C1723 C 0.16923 0.19285 0.77741 0.0
H1724 H 0.21398 0.20249 0.72554 0.0
H1725 H 0.18105 0.22795 0.75349 0.0
S1726 S 0.1713 0.11925 0.79499 0.0
N1727 N 0.19472 0.12323 0.77119 0.0
N1728 N 0.15841 0.1499 0.80004 0.0
C1729 C 0.17345 0.16491 0.78215 0.0
C1730 C 0.19288 0.15057 0.76672 0.0
C1731 C 0.31611 0.20824 0.74735 0.0
C1732 C 0.34162 0.19905 0.73834 0.0
C1733 C 0.29903 0.19059 0.76194 0.0
C1734 C 0.30725 0.16363 0.76687 0.0
H1735 H 0.30948 0.22888 0.74313 0.0
H1736 H 0.27969 0.19799 0.76962 0.0
S1737 S 0.37226 0.13067 0.74741 0.0
N1738 N 0.37451 0.16209 0.73556 0.0
N1739 N 0.34206 0.12872 0.76215 0.0
C1740 C 0.33255 0.15439 0.75761 0.0
C1741 C 0.34995 0.17227 0.74352 0.0
C1742 C 0.3139 0.30938 0.72351 0.0
C1743 C 0.29885 0.33224 0.73221 0.0
C1744 C 0.32661 0.29258 0.7427 0.0
C1745 C 0.32545 0.29929 0.77058 0.0
H1746 H 0.31986 0.30704 0.70242 0.0
H1747 H 0.34168 0.27816 0.73542 0.0
S1748 S 0.27585 0.34687 0.80211 0.0
N1749 N 0.27326 0.35247 0.76915 0.0
N1750 N 0.29828 0.32203 0.80549 0.0
C1751 C 0.30429 0.31678 0.77903 0.0
C1752 C 0.29073 0.33327 0.75947 0.0
C1753 C 0.21069 0.3132 0.75345 0.0
C1754 C 0.1997 0.31685 0.77968 0.0
C1755 C 0.19582 0.29911 0.73358 0.0
C1756 C 0.16947 0.28964 0.73981 0.0
H1757 H 0.22811 0.32515 0.74695 0.0
H1758 H 0.20215 0.3014 0.71255 0.0
S1759 S 0.13828 0.28239 0.80743 0.0
N1760 N 0.16555 0.30151 0.81236 0.0
N1761 N 0.1395 0.2732 0.77514 0.0
C1762 C 0.16326 0.28513 0.76727 0.0
C1763 C 0.1775 0.30033 0.78742 0.0
C1764 C 0.82449 0.24947 0.79119 0.0
C1765 C 0.82297 0.27724 0.79843 0.0
C1766 C 0.81402 0.22967 0.80889 0.0
C1767 C 0.80048 0.23777 0.83285 0.0
H1768 H 0.83915 0.24291 0.77603 0.0
H1769 H 0.82059 0.20879 0.80601 0.0
S1770 S 0.77513 0.30696 0.84829 0.0
N1771 N 0.79466 0.31093 0.82125 0.0
N1772 N 0.77572 0.27409 0.85537 0.0
C1773 C 0.79173 0.26486 0.83479 0.0
C1774 C 0.80214 0.2847 0.81653 0.0
C1775 C 0.27082 0.85966 0.80967 0.0
C1776 C 0.24656 0.84978 0.79838 0.0
C1777 C 0.28629 0.84327 0.82658 0.0
C1778 C 0.27845 0.81622 0.83201 0.0
H1779 H 0.27638 0.881 0.80805 0.0
H1780 H 0.30329 0.85268 0.83713 0.0
S1781 S 0.2213 0.7785 0.80037 0.0
N1782 N 0.21809 0.8101 0.78913 0.0
N1783 N 0.24841 0.77864 0.82035 0.0
C1784 C 0.2562 0.80508 0.81811 0.0
C1785 C 0.24004 0.822 0.80116 0.0
C1786 C 0.64687 0.26512 0.823 0.0
C1787 C 0.65888 0.24923 0.80261 0.0
C1788 C 0.66285 0.27809 0.84224 0.0
C1789 C 0.69136 0.2761 0.8413 0.0
H1790 H 0.62488 0.26595 0.82529 0.0
H1791 H 0.65279 0.28943 0.85833 0.0
S1792 S 0.73259 0.23945 0.78981 0.0
N1793 N 0.70059 0.23317 0.7812 0.0
N1794 N 0.73117 0.25921 0.81708 0.0
C1795 C 0.70378 0.26142 0.8202 0.0
C1796 C 0.68735 0.24766 0.80074 0.0
C1797 C 0.24393 0.6874 0.7929 0.0
C1798 C 0.27144 0.68687 0.80116 0.0
C1799 C 0.22441 0.70046 0.80908 0.0
C1800 C 0.23245 0.71266 0.8337 0.0
H1801 H 0.23679 0.67376 0.77705 0.0
H1802 H 0.20314 0.69588 0.80524 0.0
S1803 S 0.30201 0.73142 0.85422 0.0
N1804 N 0.30607 0.71108 0.82779 0.0
N1805 N 0.26886 0.73482 0.85811 0.0
C1806 C 0.2598 0.71973 0.83673 0.0
C1807 C 0.27977 0.70651 0.82053 0.0
C1808 C 0.79694 0.26348 0.69794 0.0
C1809 C 0.80333 0.26792 0.67045 0.0
C1810 C 0.81418 0.24758 0.71411 0.0
C1811 C 0.83803 0.23661 0.70287 0.0
H1812 H 0.77911 0.27287 0.70699 0.0
H1813 H 0.809 0.24401 0.73523 0.0
S1814 S 0.86338 0.24323 0.63207 0.0
N1815 N 0.83437 0.26028 0.63264 0.0
N1816 N 0.86735 0.23124 0.66321 0.0
C1817 C 0.84439 0.241 0.6754 0.0
C1818 C 0.82676 0.25647 0.65904 0.0
C1819 C 0.26511 0.81912 0.64353 0.0
C1820 C 0.24993 0.80053 0.65897 0.0
C1821 C 0.2797 0.83965 0.6563 0.0
C1822 C 0.27969 0.84174 0.68474 0.0
H1823 H 0.26399 0.81908 0.62147 0.0
H1824 H 0.29021 0.85463 0.64388 0.0
S1825 S 0.24792 0.79451 0.73383 0.0
N1826 N 0.23835 0.78297 0.70369 0.0
N1827 N 0.26705 0.82169 0.72813 0.0
C1828 C 0.26651 0.82204 0.7005 0.0
C1829 C 0.25127 0.80122 0.68741 0.0
C1830 C 0.7075 0.2502 0.69125 0.0
C1831 C 0.69618 0.23841 0.66779 0.0
C1832 C 0.69087 0.26498 0.70916 0.0
C1833 C 0.66283 0.26742 0.70393 0.0
H1834 H 0.72908 0.24818 0.69552 0.0
H1835 H 0.69991 0.275 0.72664 0.0
S1836 S 0.62437 0.24082 0.64469 0.0
N1837 N 0.65607 0.23067 0.63979 0.0
N1838 N 0.62472 0.25762 0.67382 0.0
C1839 C 0.65148 0.25524 0.68079 0.0
C1840 C 0.66828 0.24093 0.66249 0.0
C1841 C 0.25544 0.68429 0.70783 0.0
C1842 C 0.24116 0.66258 0.69591 0.0
C1843 C 0.26951 0.70286 0.69134 0.0
C1844 C 0.26879 0.70013 0.66287 0.0
H1845 H 0.2557 0.68687 0.72974 0.0
H1846 H 0.2814 0.71894 0.70075 0.0
S1847 S 0.23607 0.6454 0.62253 0.0
N1848 N 0.22851 0.63832 0.65453 0.0
N1849 N 0.25415 0.67378 0.62362 0.0
C1850 C 0.25452 0.67856 0.65093 0.0
C1851 C 0.24093 0.6595 0.66752 0.0
C1852 C 0.80445 0.81871 0.22598 0.0
C1853 C 0.82431 0.80123 0.23706 0.0
C1854 C 0.78747 0.83382 0.24315 0.0
C1855 C 0.7901 0.83149 0.27158 0.0
H1856 H 0.80454 0.82386 0.20466 0.0
H1857 H 0.77607 0.85057 0.23438 0.0
S1858 S 0.81986 0.77124 0.30612 0.0
N1859 N 0.83416 0.77183 0.27568 0.0
N1860 N 0.79878 0.79743 0.30683 0.0
C1861 C 0.80221 0.80737 0.28125 0.0
C1862 C 0.82076 0.79308 0.26422 0.0
C1863 C 0.70628 0.81739 0.28262 0.0
C1864 C 0.6829 0.80241 0.27568 0.0
C1865 C 0.72091 0.83076 0.26217 0.0
C1866 C 0.71227 0.82917 0.23483 0.0
H1867 H 0.70985 0.8236 0.30349 0.0
H1868 H 0.73495 0.84662 0.26841 0.0
S1869 S 0.66125 0.78034 0.20752 0.0
N1870 N 0.65976 0.77659 0.24082 0.0
N1871 N 0.68578 0.80274 0.20197 0.0
C1872 C 0.69431 0.80781 0.22779 0.0
C1873 C 0.68013 0.79366 0.24873 0.0
C1874 C 0.71398 0.66673 0.21334 0.0
C1875 C 0.70539 0.69323 0.22032 0.0
C1876 C 0.72332 0.64907 0.2337 0.0
C1877 C 0.72246 0.65738 0.26117 0.0
H1878 H 0.70887 0.65794 0.19377 0.0
H1879 H 0.725 0.62758 0.22875 0.0
S1880 S 0.72253 0.72939 0.28395 0.0
N1881 N 0.71254 0.7306 0.25187 0.0
N1882 N 0.72806 0.69687 0.29086 0.0
C1883 C 0.72278 0.68561 0.26615 0.0
C1884 C 0.71445 0.70379 0.24522 0.0
C1885 C 0.80473 0.6892 0.28635 0.0
C1886 C 0.82662 0.70506 0.27705 0.0
C1887 C 0.78822 0.67555 0.26765 0.0
C1888 C 0.79277 0.67825 0.23941 0.0
H1889 H 0.80355 0.68301 0.30742 0.0
H1890 H 0.77566 0.65917 0.27546 0.0
S1891 S 0.83621 0.73128 0.2074 0.0
N1892 N 0.84524 0.73106 0.23963 0.0
N1893 N 0.81121 0.70894 0.20467 0.0
C1894 C 0.80875 0.70064 0.23091 0.0
C1895 C 0.82665 0.71326 0.24983 0.0
C1896 C 0.11191 0.63594 0.09104 0.0
C1897 C 0.0944 0.64853 0.11001 0.0
C1898 C 0.11217 0.64405 0.06349 0.0
C1899 C 0.09509 0.66516 0.05405 0.0
H1900 H 0.12523 0.61955 0.09744 0.0
H1901 H 0.12546 0.63339 0.04944 0.0
S1902 S 0.04909 0.70773 0.09627 0.0
N1903 N 0.06183 0.68522 0.11774 0.0
N1904 N 0.06244 0.7002 0.06638 0.0
C1905 C 0.0783 0.67845 0.07302 0.0
C1906 C 0.07794 0.67024 0.10086 0.0
C1907 C 0.86242 0.07891 0.09685 0.0
C1908 C 0.85312 0.09996 0.114 0.0
C1909 C 0.85634 0.07863 0.06895 0.0
C1910 C 0.8406 0.09933 0.05682 0.0
H1911 H 0.87409 0.0621 0.10515 0.0
H1912 H 0.86371 0.06169 0.05683 0.0
S1913 S 0.81084 0.159 0.09284 0.0
N1914 N 0.82747 0.14227 0.11682 0.0
N1915 N 0.81553 0.14151 0.06447 0.0
C1916 C 0.83159 0.12089 0.07361 0.0
C1917 C 0.83799 0.12127 0.10213 0.0
C1918 C 0.39171 0.84604 0.07023 0.0
C1919 C 0.41559 0.84993 0.05459 0.0
C1920 C 0.39085 0.85272 0.09806 0.0
C1921 C 0.41394 0.8631 0.11152 0.0
H1922 H 0.37381 0.83661 0.06145 0.0
H1923 H 0.3724 0.84837 0.10942 0.0
S1924 S 0.4804 0.88042 0.07977 0.0
N1925 N 0.46205 0.86775 0.05459 0.0
N1926 N 0.46052 0.8793 0.10687 0.0
C1927 C 0.4375 0.86825 0.09604 0.0
C1928 C 0.4383 0.86188 0.06767 0.0
C1929 C 0.63378 0.40244 0.09438 0.0
C1930 C 0.65242 0.4147 0.11249 0.0
C1931 C 0.63802 0.40341 0.06599 0.0
C1932 C 0.66097 0.41669 0.05499 0.0
H1933 H 0.61554 0.39266 0.10214 0.0
H1934 H 0.62303 0.39429 0.05258 0.0
S1935 S 0.71733 0.44879 0.09354 0.0
N1936 N 0.69588 0.43822 0.11721 0.0
N1937 N 0.70335 0.44039 0.06414 0.0
C1938 C 0.68002 0.42822 0.07286 0.0
C1939 C 0.67588 0.42712 0.10154 0.0
C1940 C 0.07333 0.84944 0.44086 0.0
C1941 C 0.09663 0.85269 0.45728 0.0
C1942 C 0.07384 0.85513 0.41295 0.0
C1943 C 0.09778 0.86421 0.3999 0.0
H1944 H 0.05446 0.84185 0.4495 0.0
H1945 H 0.05533 0.8516 0.40144 0.0
S1946 S 0.16359 0.87986 0.43397 0.0
N1947 N 0.1437 0.86877 0.45876 0.0
N1948 N 0.14492 0.87844 0.40602 0.0
C1949 C 0.12106 0.8686 0.41614 0.0
C1950 C 0.12046 0.86306 0.44482 0.0
C1951 C 0.63389 0.07956 0.41504 0.0
C1952 C 0.64719 0.09724 0.3968 0.0
C1953 C 0.64107 0.079 0.44282 0.0
C1954 C 0.66208 0.09574 0.45311 0.0
H1955 H 0.61803 0.06599 0.40775 0.0
H1956 H 0.63031 0.06518 0.45627 0.0
S1957 S 0.70656 0.14119 0.41203 0.0
N1958 N 0.68388 0.12963 0.39011 0.0
N1959 N 0.69841 0.12721 0.44152 0.0
C1960 C 0.6761 0.11253 0.4346 0.0
C1961 C 0.66839 0.11362 0.40664 0.0
C1962 C 0.42759 0.63278 0.42066 0.0
C1963 C 0.41157 0.6475 0.40212 0.0
C1964 C 0.42831 0.63999 0.44829 0.0
C1965 C 0.41331 0.66238 0.45822 0.0
H1966 H 0.43992 0.61583 0.41367 0.0
H1967 H 0.44095 0.62812 0.46195 0.0
S1968 S 0.37125 0.70971 0.4169 0.0
N1969 N 0.38201 0.68657 0.39494 0.0
N1970 N 0.38387 0.7006 0.44672 0.0
C1971 C 0.39756 0.67754 0.4397 0.0
C1972 C 0.39659 0.66998 0.41166 0.0
C1973 C 0.85255 0.4361 0.41271 0.0
C1974 C 0.86264 0.41273 0.39941 0.0
C1975 C 0.84694 0.43614 0.4406 0.0
C1976 C 0.85129 0.41293 0.45687 0.0
H1977 H 0.84841 0.45463 0.40146 0.0
H1978 H 0.83874 0.45468 0.4494 0.0
S1979 S 0.87985 0.3469 0.43257 0.0
N1980 N 0.87791 0.36586 0.40486 0.0
N1981 N 0.86845 0.36621 0.45768 0.0
C1982 C 0.86212 0.38947 0.44406 0.0
C1983 C 0.86754 0.38934 0.41532 0.0
C1984 C 0.07433 0.11719 0.6696 0.0
C1985 C 0.05727 0.09597 0.66014 0.0
C1986 C 0.10251 0.1175 0.66379 0.0
C1987 C 0.11483 0.09657 0.64841 0.0
H1988 H 0.06619 0.13309 0.68255 0.0
H1989 H 0.1149 0.13364 0.67242 0.0
S1990 S 0.07884 0.03813 0.61618 0.0
N1991 N 0.05466 0.05487 0.63249 0.0
N1992 N 0.10719 0.0553 0.62194 0.0
C1993 C 0.09777 0.07596 0.63786 0.0
C1994 C 0.0692 0.07569 0.64365 0.0
C1995 C 0.3977 0.07028 0.6567 0.0
C1996 C 0.42112 0.05771 0.66781 0.0
C1997 C 0.3971 0.09847 0.65094 0.0
C1998 C 0.42 0.11517 0.65566 0.0
H1999 H 0.37981 0.0583 0.65183 0.0
H2000 H 0.37872 0.10712 0.6423 0.0
S2001 S 0.4859 0.09283 0.68596 0.0
N2002 N 0.4673 0.06484 0.68454 0.0
N2003 N 0.46649 0.11704 0.67311 0.0
C2004 C 0.44343 0.10286 0.66695 0.0
C2005 C 0.44392 0.07441 0.67311 0.0
C2006 C 0.41392 0.44 0.65218 0.0
C2007 C 0.40114 0.41673 0.64126 0.0
C2008 C 0.44141 0.43982 0.65957 0.0
C2009 C 0.45779 0.41647 0.65627 0.0
H2010 H 0.40244 0.45851 0.6559 0.0
H2011 H 0.44971 0.45827 0.66847 0.0
S2012 S 0.4349 0.35072 0.62588 0.0
N2013 N 0.40726 0.3699 0.62609 0.0
N2014 N 0.45939 0.36982 0.63894 0.0
C2015 C 0.44558 0.39318 0.64443 0.0
C2016 C 0.41723 0.39329 0.63715 0.0
C2017 C 0.11052 0.44451 0.64089 0.0
C2018 C 0.0894 0.45573 0.65689 0.0
C2019 C 0.11086 0.41657 0.63407 0.0
C2020 C 0.08993 0.39882 0.64265 0.0
H2021 H 0.12686 0.45736 0.63344 0.0
H2022 H 0.12773 0.40882 0.62212 0.0
S2023 S 0.03059 0.41784 0.68611 0.0
N2024 N 0.04775 0.44649 0.68214 0.0
N2025 N 0.04761 0.39484 0.66849 0.0
C2026 C 0.06856 0.40998 0.65842 0.0
C2027 C 0.06851 0.43815 0.66573 0.0
C2028 C 0.09955 0.43364 0.84101 0.0
C2029 C 0.11041 0.414 0.8589 0.0
C2030 C 0.07187 0.43375 0.83396 0.0
C2031 C 0.05356 0.4143 0.84448 0.0
H2032 H 0.11266 0.44886 0.8318 0.0
H2033 H 0.06488 0.44907 0.81969 0.0
S2034 S 0.07084 0.36046 0.89493 0.0
N2035 N 0.10025 0.37564 0.88858 0.0
N2036 N 0.04797 0.37629 0.87598 0.0
C2037 C 0.06389 0.395 0.86316 0.0
C2038 C 0.09232 0.39475 0.87018 0.0
C2039 C 0.07349 0.07238 0.84099 0.0
C2040 C 0.09548 0.05498 0.84695 0.0
C2041 C 0.07362 0.09981 0.84867 0.0
C2042 C 0.09581 0.11157 0.86251 0.0
H2043 H 0.05586 0.06484 0.83 0.0
H2044 H 0.05617 0.11205 0.84324 0.0
S2045 S 0.15809 0.07498 0.88492 0.0
N2046 N 0.13974 0.05137 0.86938 0.0
N2047 N 0.14028 0.10349 0.88276 0.0
C2048 C 0.11805 0.09458 0.86884 0.0
C2049 C 0.11782 0.06623 0.86132 0.0
C2050 C 0.40753 0.07657 0.84129 0.0
C2051 C 0.39492 0.09855 0.85473 0.0
C2052 C 0.43529 0.07699 0.83482 0.0
C2053 C 0.45208 0.0993 0.8416 0.0
H2054 H 0.39578 0.05879 0.83537 0.0
H2055 H 0.44363 0.05945 0.82429 0.0
S2056 S 0.4294 0.16159 0.87853 0.0
N2057 N 0.40134 0.14321 0.87522 0.0
N2058 N 0.45396 0.14371 0.86396 0.0
C2059 C 0.43983 0.12151 0.8553 0.0
C2060 C 0.4112 0.12119 0.86162 0.0
C2061 C 0.43409 0.44183 0.8432 0.0
C2062 C 0.41014 0.45738 0.84673 0.0
C2063 C 0.43521 0.41407 0.84974 0.0
C2064 C 0.41237 0.40006 0.86 0.0
H2065 H 0.45235 0.45104 0.83487 0.0
H2066 H 0.45419 0.40339 0.846 0.0
S2067 S 0.34503 0.43106 0.87581 0.0
N2068 N 0.36332 0.45661 0.86369 0.0
N2069 N 0.36519 0.40413 0.87483 0.0
C2070 C 0.38829 0.41524 0.86427 0.0
C2071 C 0.38721 0.44385 0.85791 0.0
C2072 C 0.66644 0.07182 0.1149 0.0
C2073 C 0.6615 0.05562 0.09162 0.0
C2074 C 0.65977 0.09979 0.11539 0.0
C2075 C 0.64802 0.11277 0.09261 0.0
H2076 H 0.67651 0.06322 0.13252 0.0
H2077 H 0.6649 0.11153 0.13338 0.0
S2078 S 0.62827 0.07905 0.02774 0.0
N2079 N 0.642 0.05445 0.04607 0.0
N2080 N 0.62986 0.10663 0.04692 0.0
C2081 C 0.64201 0.09655 0.06968 0.0
C2082 C 0.64868 0.06818 0.06921 0.0
C2083 C 0.63807 0.41882 0.42756 0.0
C2084 C 0.65186 0.40011 0.41078 0.0
C2085 C 0.64506 0.44666 0.42765 0.0
C2086 C 0.6663 0.45683 0.41115 0.0
H2087 H 0.62202 0.41181 0.44104 0.0
H2088 H 0.63398 0.46028 0.44105 0.0
S2089 S 0.71057 0.41564 0.3657 0.0
N2090 N 0.68859 0.39341 0.37828 0.0
N2091 N 0.70213 0.44546 0.37888 0.0
C2092 C 0.68029 0.43827 0.39434 0.0
C2093 C 0.67297 0.40999 0.39406 0.0
C2094 C 0.09003 0.6288 0.41493 0.0
C2095 C 0.11019 0.64891 0.41827 0.0
C2096 C 0.06223 0.6359 0.41454 0.0
C2097 C 0.05401 0.66326 0.41725 0.0
H2098 H 0.09576 0.60754 0.41315 0.0
H2099 H 0.04708 0.61994 0.4125 0.0
S2100 S 0.09907 0.72343 0.4245 0.0
N2101 N 0.12018 0.69722 0.42304 0.0
N2102 N 0.06804 0.71045 0.42218 0.0
C2103 C 0.07401 0.68347 0.41999 0.0
C2104 C 0.10214 0.6763 0.42051 0.0
C2105 C 0.87071 0.09169 0.40031 0.0
C2106 C 0.85934 0.10942 0.41983 0.0
C2107 C 0.86489 0.06351 0.4006 0.0
C2108 C 0.84719 0.05204 0.4202 0.0
H2109 H 0.8845 0.09958 0.38498 0.0
H2110 H 0.87474 0.05062 0.38564 0.0
S2111 S 0.80935 0.09048 0.47345 0.0
N2112 N 0.82791 0.11381 0.45788 0.0
N2113 N 0.81663 0.06141 0.45814 0.0
C2114 C 0.83509 0.06984 0.43924 0.0
C2115 C 0.84121 0.09832 0.43911 0.0
C2116 C 0.41691 0.87071 0.4334 0.0
C2117 C 0.39908 0.86243 0.41255 0.0
C2118 C 0.44457 0.86331 0.43307 0.0
C2119 C 0.45551 0.84712 0.41201 0.0
H2120 H 0.40931 0.88257 0.45042 0.0
H2121 H 0.45742 0.86996 0.44976 0.0
S2122 S 0.41662 0.81811 0.35392 0.0
N2123 N 0.39398 0.83632 0.37082 0.0
N2124 N 0.44568 0.8218 0.3705 0.0
C2125 C 0.43785 0.83875 0.39097 0.0
C2126 C 0.40974 0.84656 0.39117 0.0
C2127 C 0.84765 0.44073 0.11654 0.0
C2128 C 0.85782 0.45857 0.09644 0.0
C2129 C 0.85474 0.41294 0.11675 0.0
C2130 C 0.87217 0.40183 0.09681 0.0
H2131 H 0.83311 0.44792 0.13149 0.0
H2132 H 0.84531 0.39977 0.13177 0.0
S2133 S 0.90741 0.44021 0.04221 0.0
N2134 N 0.88871 0.46341 0.05792 0.0
N2135 N 0.90136 0.41111 0.05806 0.0
C2136 C 0.88346 0.41955 0.07743 0.0
C2137 C 0.87648 0.44789 0.07733 0.0
C2138 C 0.09915 0.83996 0.07762 0.0
C2139 C 0.10872 0.86317 0.09156 0.0
C2140 C 0.07149 0.83279 0.07783 0.0
C2141 C 0.05213 0.8485 0.09197 0.0
H2142 H 0.11329 0.82688 0.06678 0.0
H2143 H 0.06523 0.81455 0.06702 0.0
S2144 S 0.06605 0.9136 0.12797 0.0
N2145 N 0.09643 0.90321 0.1178 0.0
N2146 N 0.04411 0.89004 0.11786 0.0
C2147 C 0.06125 0.87226 0.10535 0.0
C2148 C 0.08961 0.87949 0.10525 0.0
C2149 C 0.45052 0.63749 0.11278 0.0
C2150 C 0.46017 0.66139 0.10004 0.0
C2151 C 0.42264 0.63028 0.11171 0.0
C2152 C 0.40371 0.64664 0.09766 0.0
H2153 H 0.46466 0.62404 0.12309 0.0
H2154 H 0.41594 0.61166 0.12151 0.0
S2155 S 0.41795 0.71357 0.06541 0.0
N2156 N 0.44806 0.70277 0.07582 0.0
N2157 N 0.39609 0.68937 0.07384 0.0
C2158 C 0.41305 0.67106 0.08588 0.0
C2159 C 0.44117 0.67837 0.08703 0.0
C2160 C 0.89769 0.35514 0.94402 0.0
C2161 C 0.92141 0.345 0.95688 0.0
C2162 C 0.8974 0.36191 0.91619 0.0
C2163 C 0.92087 0.35927 0.89987 0.0
H2164 H 0.87901 0.35816 0.95529 0.0
H2165 H 0.87846 0.36904 0.90737 0.0
S2166 S 0.98898 0.33554 0.9234 0.0
N2167 N 0.96946 0.33373 0.95069 0.0
N2168 N 0.96904 0.34715 0.89903 0.0
C2169 C 0.945 0.35012 0.91256 0.0
C2170 C 0.94524 0.3429 0.94079 0.0
C2171 C 0.1756 0.93427 0.93423 0.0
C2172 C 0.1663 0.91351 0.95185 0.0
C2173 C 0.16804 0.93515 0.90672 0.0
C2174 C 0.15104 0.91512 0.8952 0.0
H2175 H 0.18918 0.95004 0.94166 0.0
H2176 H 0.1762 0.95142 0.8942 0.0
S2177 S 0.11851 0.85781 0.93233 0.0
N2178 N 0.13678 0.87362 0.95578 0.0
N2179 N 0.12379 0.87465 0.90367 0.0
C2180 C 0.14119 0.89438 0.9124 0.0
C2181 C 0.14849 0.89372 0.94075 0.0
C2182 C 0.59236 0.13908 0.94109 0.0
C2183 C 0.59445 0.16589 0.9511 0.0
C2184 C 0.59231 0.13381 0.91286 0.0
C2185 C 0.5947 0.1552 0.89391 0.0
H2186 H 0.59019 0.12218 0.95514 0.0
H2187 H 0.59008 0.11299 0.90582 0.0
S2188 S 0.59907 0.22897 0.90975 0.0
N2189 N 0.59716 0.21401 0.93984 0.0
N2190 N 0.59865 0.20406 0.88707 0.0
C2191 C 0.59695 0.18199 0.90373 0.0
C2192 C 0.59641 0.18737 0.9323 0.0
C2193 C 0.37042 0.58041 0.91423 0.0
C2194 C 0.35976 0.60099 0.89742 0.0
C2195 C 0.36418 0.57938 0.94209 0.0
C2196 C 0.34679 0.59872 0.95426 0.0
H2197 H 0.38329 0.56463 0.90565 0.0
H2198 H 0.37268 0.56294 0.95412 0.0
S2199 S 0.31172 0.65549 0.91849 0.0
N2200 N 0.33024 0.64067 0.8946 0.0
N2201 N 0.31792 0.6384 0.94681 0.0
C2202 C 0.33605 0.61955 0.93766 0.0
C2203 C 0.34268 0.62075 0.90929 0.0
C2204 C 0.89914 0.14666 0.59589 0.0
C2205 C 0.91603 0.16081 0.61429 0.0
C2206 C 0.89963 0.15269 0.56779 0.0
C2207 C 0.91694 0.17316 0.55727 0.0
H2208 H 0.88617 0.13029 0.6031 0.0
H2209 H 0.88703 0.14072 0.55417 0.0
S2210 S 0.96081 0.21955 0.5977 0.0
N2211 N 0.94765 0.19846 0.6204 0.0
N2212 N 0.94858 0.20968 0.56799 0.0
C2213 C 0.93274 0.18828 0.57573 0.0
C2214 C 0.93227 0.18216 0.60413 0.0
C2215 C 0.33716 0.93245 0.57497 0.0
C2216 C 0.34781 0.91354 0.55618 0.0
C2217 C 0.34608 0.93335 0.60203 0.0
C2218 C 0.36606 0.91526 0.6119 0.0
H2219 H 0.3215 0.94674 0.5688 0.0
H2220 H 0.33674 0.94818 0.61548 0.0
S2221 S 0.40216 0.86282 0.57108 0.0
N2222 N 0.38093 0.87713 0.54924 0.0
N2223 N 0.39695 0.87827 0.60054 0.0
C2224 C 0.37707 0.89619 0.5935 0.0
C2225 C 0.36816 0.89546 0.5656 0.0
C2226 C 0.57919 0.33798 0.60189 0.0
C2227 C 0.59755 0.35724 0.6126 0.0
C2228 C 0.57882 0.33157 0.57404 0.0
C2229 C 0.59685 0.34411 0.55554 0.0
H2230 H 0.56517 0.32745 0.61527 0.0
H2231 H 0.56432 0.31643 0.567 0.0
S2232 S 0.64758 0.39772 0.57303 0.0
N2233 N 0.6336 0.38962 0.60257 0.0
N2234 N 0.63259 0.37822 0.55001 0.0
C2235 C 0.61522 0.36371 0.56597 0.0
C2236 C 0.61569 0.37005 0.59452 0.0
C2237 C 0.17142 0.61715 0.57333 0.0
C2238 C 0.16189 0.5961 0.55619 0.0
C2239 C 0.16487 0.61762 0.60123 0.0
C2240 C 0.14872 0.59703 0.61302 0.0
H2241 H 0.18498 0.63272 0.56548 0.0
H2242 H 0.17359 0.63347 0.61387 0.0
S2243 S 0.1156 0.53966 0.57629 0.0
N2244 N 0.13317 0.55584 0.55258 0.0
N2245 N 0.12111 0.55661 0.60481 0.0
C2246 C 0.13797 0.57672 0.59581 0.0
C2247 C 0.14454 0.57627 0.5675 0.0
C2248 C 0.92127 0.92488 0.37236 0.0
C2249 C 0.90251 0.90709 0.3599 0.0
C2250 C 0.94888 0.92517 0.36462 0.0
C2251 C 0.95879 0.90774 0.34407 0.0
H2252 H 0.91444 0.93907 0.38785 0.0
H2253 H 0.96252 0.93949 0.3745 0.0
S2254 S 0.91748 0.86022 0.3024 0.0
N2255 N 0.8955 0.87324 0.32437 0.0
N2256 N 0.94731 0.87385 0.30996 0.0
C2257 C 0.94028 0.88998 0.33135 0.0
C2258 C 0.91217 0.88964 0.33923 0.0
C2259 C 0.6183 0.94273 0.34352 0.0
C2260 C 0.59533 0.95966 0.34716 0.0
C2261 C 0.61813 0.91531 0.35203 0.0
C2262 C 0.59492 0.90361 0.36427 0.0
H2263 H 0.63613 0.95019 0.33286 0.0
H2264 H 0.6358 0.90282 0.34761 0.0
S2265 S 0.53091 0.93976 0.38188 0.0
N2266 N 0.5498 0.96314 0.36667 0.0
N2267 N 0.54938 0.91162 0.3819 0.0
C2268 C 0.57236 0.92055 0.3692 0.0
C2269 C 0.57259 0.94849 0.36083 0.0
C2270 C 0.59907 0.57328 0.34582 0.0
C2271 C 0.60989 0.59184 0.36489 0.0
C2272 C 0.57158 0.57391 0.3384 0.0
C2273 C 0.55346 0.593 0.34976 0.0
H2274 H 0.61208 0.55849 0.33583 0.0
H2275 H 0.56458 0.55947 0.32321 0.0
S2276 S 0.5708 0.64431 0.40277 0.0
N2277 N 0.60005 0.62901 0.39611 0.0
N2278 N 0.54792 0.62961 0.38289 0.0
C2279 C 0.56374 0.61125 0.36948 0.0
C2280 C 0.59201 0.6108 0.37686 0.0
C2281 C 0.90113 0.58957 0.37251 0.0
C2282 C 0.91801 0.60829 0.35876 0.0
C2283 C 0.90045 0.56186 0.36486 0.0
C2284 C 0.91648 0.55211 0.34309 0.0
H2285 H 0.88875 0.59627 0.38952 0.0
H2286 H 0.88775 0.54793 0.37637 0.0
S2287 S 0.96127 0.59349 0.29834 0.0
N2288 N 0.94928 0.6154 0.32085 0.0
N2289 N 0.94788 0.56374 0.30665 0.0
C2290 C 0.93274 0.57082 0.32877 0.0
C2291 C 0.93351 0.59879 0.33653 0.0
C2292 C 0.93927 0.61987 0.17006 0.0
C2293 C 0.9563 0.59861 0.16073 0.0
C2294 C 0.91137 0.6208 0.16315 0.0
C2295 C 0.89937 0.60044 0.1468 0.0
H2296 H 0.94717 0.63519 0.18386 0.0
H2297 H 0.89883 0.63674 0.1719 0.0
S2298 S 0.93565 0.54287 0.11371 0.0
N2299 N 0.95947 0.55858 0.13158 0.0
N2300 N 0.90728 0.56015 0.11911 0.0
C2301 C 0.91645 0.58002 0.13613 0.0
C2302 C 0.94478 0.57914 0.14299 0.0
C2303 C 0.89301 0.9167 0.14143 0.0
C2304 C 0.91284 0.89936 0.15285 0.0
C2305 C 0.89237 0.94475 0.14781 0.0
C2306 C 0.91138 0.95628 0.16604 0.0
H2307 H 0.87812 0.90861 0.12726 0.0
H2308 H 0.87721 0.9575 0.13808 0.0
S2309 S 0.96419 0.91887 0.20488 0.0
N2310 N 0.95001 0.8954 0.18537 0.0
N2311 N 0.94862 0.94765 0.19736 0.0
C2312 C 0.93063 0.93894 0.17817 0.0
C2313 C 0.9314 0.91062 0.17161 0.0
C2314 C 0.56164 0.89374 0.14938 0.0
C2315 C 0.55074 0.91342 0.16735 0.0
C2316 C 0.58947 0.89415 0.14184 0.0
C2317 C 0.6073 0.91443 0.15174 0.0
H2318 H 0.54853 0.87825 0.14066 0.0
H2319 H 0.59696 0.87878 0.12787 0.0
S2320 S 0.5898 0.96774 0.20263 0.0
N2321 N 0.56076 0.9518 0.19693 0.0
N2322 N 0.61244 0.9528 0.18276 0.0
C2323 C 0.59673 0.93361 0.17035 0.0
C2324 C 0.56866 0.93306 0.1781 0.0
C2325 C 0.57957 0.5972 0.17061 0.0
C2326 C 0.60074 0.60967 0.15565 0.0
C2327 C 0.57991 0.56931 0.17674 0.0
C2328 C 0.60139 0.55228 0.16827 0.0
H2329 H 0.56247 0.6091 0.17796 0.0
H2330 H 0.56309 0.56107 0.18847 0.0
S2331 S 0.66107 0.57416 0.12683 0.0
N2332 N 0.64352 0.60248 0.13166 0.0
N2333 N 0.64385 0.54985 0.14255 0.0
C2334 C 0.62262 0.56429 0.15293 0.0
C2335 C 0.62235 0.59295 0.14679 0.0
C2336 C 0.34443 0.90901 0.93395 0.0
C2337 C 0.3607 0.89698 0.91371 0.0
C2338 C 0.33847 0.93686 0.93379 0.0
C2339 C 0.34893 0.95434 0.91359 0.0
H2340 H 0.33601 0.89667 0.95007 0.0
H2341 H 0.32543 0.94472 0.94979 0.0
S2342 S 0.39461 0.9334 0.85684 0.0
N2343 N 0.38793 0.90467 0.87311 0.0
N2344 N 0.3779 0.95756 0.87334 0.0
C2345 C 0.36563 0.94271 0.89322 0.0
C2346 C 0.37126 0.91396 0.89316 0.0
C2347 C 0.32961 0.57758 0.57656 0.0
C2348 C 0.34111 0.55914 0.59531 0.0
C2349 C 0.33642 0.60535 0.57674 0.0
C2350 C 0.35493 0.61614 0.59582 0.0
H2351 H 0.31506 0.57053 0.56151 0.0
H2352 H 0.32682 0.61854 0.56187 0.0
S2353 S 0.39276 0.57669 0.64796 0.0
N2354 N 0.37365 0.55368 0.63243 0.0
N2355 N 0.3856 0.60614 0.63331 0.0
C2356 C 0.36673 0.5981 0.6147 0.0
C2357 C 0.36006 0.56959 0.61431 0.0
C2358 C 0.90866 0.33719 0.57783 0.0
C2359 C 0.89659 0.35083 0.60001 0.0
C2360 C 0.93637 0.33046 0.57761 0.0
C2361 C 0.95379 0.33729 0.59939 0.0
H2362 H 0.89655 0.33143 0.56029 0.0
H2363 H 0.94417 0.31973 0.55996 0.0
S2364 S 0.93281 0.37554 0.66156 0.0
N2365 N 0.90426 0.37194 0.64407 0.0
N2366 N 0.95681 0.36055 0.6433 0.0
C2367 C 0.94211 0.35144 0.62169 0.0
C2368 C 0.91348 0.35787 0.62208 0.0
C2369 C 0.15263 0.93879 0.57954 0.0
C2370 C 0.16971 0.95075 0.59924 0.0
C2371 C 0.14645 0.91091 0.58005 0.0
C2372 C 0.15702 0.89354 0.6003 0.0
H2373 H 0.14422 0.95105 0.56323 0.0
H2374 H 0.13359 0.9028 0.56402 0.0
S2375 S 0.20322 0.91423 0.65648 0.0
N2376 N 0.19744 0.94279 0.6396 0.0
N2377 N 0.18542 0.89035 0.64072 0.0
C2378 C 0.17358 0.90523 0.62061 0.0
C2379 C 0.18004 0.93379 0.62004 0.0
C2380 C 0.60429 0.1678 0.57501 0.0
C2381 C 0.61591 0.15177 0.59574 0.0
C2382 C 0.57656 0.17443 0.57507 0.0
C2383 C 0.55895 0.16528 0.59578 0.0
H2384 H 0.61682 0.17572 0.55863 0.0
H2385 H 0.56892 0.18712 0.55871 0.0
S2386 S 0.57868 0.12057 0.65366 0.0
N2387 N 0.60753 0.12585 0.63707 0.0
N2388 N 0.555 0.13757 0.63682 0.0
C2389 C 0.57015 0.14878 0.61653 0.0
C2390 C 0.59869 0.14224 0.6166 0.0
C2391 C 0.17037 0.56614 0.93838 0.0
C2392 C 0.16067 0.54823 0.91819 0.0
C2393 C 0.16239 0.59352 0.93918 0.0
C2394 C 0.14436 0.60451 0.91972 0.0
H2395 H 0.18483 0.55913 0.95352 0.0
H2396 H 0.17122 0.60633 0.95485 0.0
S2397 S 0.11013 0.56574 0.86454 0.0
N2398 N 0.12964 0.54293 0.87978 0.0
N2399 N 0.11535 0.59478 0.8808 0.0
C2400 C 0.13375 0.58674 0.89985 0.0
C2401 C 0.14171 0.55858 0.89918 0.0
C2402 C 0.94695 0.13927 0.90205 0.0
C2403 C 0.95526 0.16341 0.91527 0.0
C2404 C 0.91928 0.13142 0.90168 0.0
C2405 C 0.89936 0.14745 0.91467 0.0
H2406 H 0.96196 0.12612 0.89259 0.0
H2407 H 0.91354 0.11254 0.89174 0.0
S2408 S 0.9103 0.215 0.94712 0.0
N2409 N 0.94114 0.20472 0.93847 0.0
N2410 N 0.88946 0.1903 0.93763 0.0
C2411 C 0.90742 0.17226 0.92665 0.0
C2412 C 0.93532 0.18014 0.92702 0.0
C2413 C 0.56652 0.35712 0.89816 0.0
C2414 C 0.5556 0.33697 0.91558 0.0
C2415 C 0.59457 0.36378 0.89848 0.0
C2416 C 0.61278 0.35094 0.91659 0.0
H2417 H 0.55321 0.36835 0.88462 0.0
H2418 H 0.6019 0.37963 0.88497 0.0
S2419 S 0.59522 0.29519 0.96478 0.0
N2420 N 0.56594 0.30302 0.95017 0.0
N2421 N 0.61803 0.31592 0.95123 0.0
C2422 C 0.6022 0.33047 0.93376 0.0
C2423 C 0.57384 0.32347 0.9332 0.0
C2424 C 0.21954 0.64069 0.1656 0.0
C2425 C 0.21511 0.61571 0.17906 0.0
C2426 C 0.24037 0.64382 0.14632 0.0
C2427 C 0.25748 0.62196 0.13922 0.0
H2428 H 0.20567 0.6575 0.16852 0.0
H2429 H 0.24128 0.6627 0.13486 0.0
S2430 S 0.258 0.55376 0.17143 0.0
N2431 N 0.23264 0.56987 0.18668 0.0
N2432 N 0.27117 0.57566 0.14948 0.0
C2433 C 0.25519 0.59775 0.15425 0.0
C2434 C 0.23413 0.59462 0.17437 0.0
C2435 C 0.90706 0.24237 0.14546 0.0
C2436 C 0.88165 0.25072 0.13505 0.0
C2437 C 0.90937 0.21944 0.16268 0.0
C2438 C 0.88628 0.20419 0.17047 0.0
H2439 H 0.92558 0.25187 0.13801 0.0
H2440 H 0.92953 0.21246 0.16836 0.0
S2441 S 0.81512 0.2174 0.14848 0.0
N2442 N 0.83308 0.24175 0.13376 0.0
N2443 N 0.83714 0.19959 0.1666 0.0
C2444 C 0.8606 0.21346 0.16162 0.0
C2445 C 0.85835 0.2365 0.14385 0.0
C2446 C 0.26298 0.87695 0.15315 0.0
C2447 C 0.25679 0.89488 0.1317 0.0
C2448 C 0.28598 0.88137 0.16996 0.0
C2449 C 0.30362 0.90375 0.16555 0.0
H2450 H 0.25181 0.85804 0.15512 0.0
H2451 H 0.29135 0.86581 0.18462 0.0
S2452 S 0.29128 0.96048 0.11714 0.0
N2453 N 0.26634 0.93868 0.11106 0.0
N2454 N 0.30929 0.94708 0.1422 0.0
C2455 C 0.29506 0.92374 0.14688 0.0
C2456 C 0.27165 0.91931 0.13012 0.0
C2457 C 0.58685 0.27829 0.12783 0.0
C2458 C 0.60973 0.26103 0.12957 0.0
C2459 C 0.58359 0.30078 0.14523 0.0
C2460 C 0.60278 0.30675 0.16569 0.0
H2461 H 0.57293 0.2763 0.11078 0.0
H2462 H 0.5671 0.31484 0.14101 0.0
S2463 S 0.66065 0.26207 0.18542 0.0
N2464 N 0.64908 0.24865 0.1568 0.0
N2465 N 0.64086 0.28856 0.19182 0.0
C2466 C 0.62315 0.28701 0.17063 0.0
C2467 C 0.62722 0.26478 0.15196 0.0
C2468 C 0.22402 0.87922 0.34118 0.0
C2469 C 0.20508 0.90073 0.34429 0.0
C2470 C 0.24598 0.87596 0.35946 0.0
C2471 C 0.24975 0.89423 0.38116 0.0
H2472 H 0.22053 0.86348 0.32611 0.0
H2473 H 0.2583 0.85771 0.35826 0.0
S2474 S 0.21028 0.95713 0.39454 0.0
N2475 N 0.19508 0.94322 0.36794 0.0
N2476 N 0.23599 0.93679 0.402 0.0
C2477 C 0.23324 0.91753 0.38225 0.0
C2478 C 0.21098 0.92089 0.36387 0.0
C2479 C 0.63926 0.20619 0.35072 0.0
C2480 C 0.61622 0.21051 0.33426 0.0
C2481 C 0.64596 0.22427 0.37196 0.0
C2482 C 0.62976 0.24727 0.37796 0.0
H2483 H 0.65194 0.1884 0.34768 0.0
H2484 H 0.66347 0.21954 0.38457 0.0
S2485 S 0.56634 0.26724 0.34242 0.0
N2486 N 0.57686 0.23981 0.32595 0.0
N2487 N 0.58913 0.27278 0.36655 0.0
C2488 C 0.60687 0.25208 0.36165 0.0
C2489 C 0.60014 0.23391 0.33974 0.0
C2490 C 0.29218 0.64106 0.34422 0.0
C2491 C 0.30483 0.61526 0.34288 0.0
C2492 C 0.26999 0.6458 0.36182 0.0
C2493 C 0.25905 0.62475 0.37797 0.0
H2494 H 0.30119 0.6584 0.33393 0.0
H2495 H 0.26312 0.66659 0.36477 0.0
S2496 S 0.28142 0.55269 0.37838 0.0
N2497 N 0.30234 0.56774 0.35668 0.0
N2498 N 0.26024 0.57664 0.38894 0.0
C2499 C 0.26942 0.59835 0.37437 0.0
C2500 C 0.29238 0.59359 0.35701 0.0
C2501 C 0.90811 0.26426 0.3633 0.0
C2502 C 0.88263 0.25845 0.37512 0.0
C2503 C 0.91155 0.28672 0.34571 0.0
C2504 C 0.88952 0.30386 0.33905 0.0
H2505 H 0.92606 0.25327 0.37 0.0
H2506 H 0.93193 0.29189 0.33893 0.0
S2507 S 0.81851 0.29681 0.36423 0.0
N2508 N 0.83497 0.27104 0.37821 0.0
N2509 N 0.84111 0.31265 0.34495 0.0
C2510 C 0.86352 0.29687 0.34902 0.0
C2511 C 0.86014 0.27424 0.36704 0.0
C2512 C 0.15528 0.24005 0.64713 0.0
C2513 C 0.14052 0.25076 0.62499 0.0
C2514 C 0.17247 0.21721 0.64403 0.0
C2515 C 0.17478 0.20364 0.61879 0.0
H2516 H 0.15095 0.24708 0.66757 0.0
H2517 H 0.1815 0.20843 0.66215 0.0
S2518 S 0.14311 0.22573 0.55386 0.0
N2519 N 0.13206 0.24808 0.57648 0.0
N2520 N 0.16344 0.20482 0.57066 0.0
C2521 C 0.16215 0.21572 0.59608 0.0
C2522 C 0.14529 0.23935 0.59918 0.0
C2523 C 0.2825 0.13138 0.59069 0.0
C2524 C 0.26522 0.13127 0.61365 0.0
C2525 C 0.30544 0.14858 0.58898 0.0
C2526 C 0.31235 0.16669 0.61018 0.0
H2527 H 0.27975 0.11614 0.57493 0.0
H2528 H 0.31897 0.14617 0.5717 0.0
S2529 S 0.27116 0.17883 0.67245 0.0
N2530 N 0.25466 0.1545 0.65606 0.0
N2531 N 0.2976 0.18644 0.65311 0.0
C2532 C 0.29367 0.1691 0.63185 0.0
C2533 C 0.2702 0.1515 0.63353 0.0
C2534 C 0.34743 0.29422 0.63514 0.0
C2535 C 0.34307 0.30669 0.6096 0.0
C2536 C 0.36566 0.27216 0.63801 0.0
C2537 C 0.37973 0.26142 0.6154 0.0
H2538 H 0.33897 0.30326 0.65341 0.0
H2539 H 0.37087 0.26548 0.65835 0.0
S2540 S 0.37145 0.28308 0.54367 0.0
N2541 N 0.35134 0.30387 0.56092 0.0
N2542 N 0.38516 0.26241 0.56641 0.0
C2543 C 0.37315 0.27169 0.58956 0.0
C2544 C 0.35493 0.29429 0.58663 0.0
C2545 C 0.24146 0.36264 0.64277 0.0
C2546 C 0.25232 0.37676 0.62032 0.0
C2547 C 0.2192 0.34478 0.63969 0.0
C2548 C 0.2067 0.34091 0.61408 0.0
H2549 H 0.24824 0.36765 0.66318 0.0
H2550 H 0.21007 0.33629 0.65791 0.0
S2551 S 0.23121 0.36913 0.54839 0.0
N2552 N 0.2519 0.38248 0.57136 0.0
N2553 N 0.20999 0.34921 0.56538 0.0
C2554 C 0.21944 0.35256 0.59118 0.0
C2555 C 0.24227 0.37044 0.59436 0.0
C2556 C 0.14555 0.30248 0.92642 0.0
C2557 C 0.16696 0.30725 0.90793 0.0
C2558 C 0.12813 0.27999 0.9235 0.0
C2559 C 0.13104 0.26143 0.90182 0.0
H2560 H 0.14061 0.31744 0.94189 0.0
H2561 H 0.11034 0.27887 0.93658 0.0
S2562 S 0.1893 0.25937 0.8537 0.0
N2563 N 0.19469 0.28716 0.87197 0.0
N2564 N 0.16028 0.24642 0.8649 0.0
C2565 C 0.15434 0.26397 0.88534 0.0
C2566 C 0.17276 0.28649 0.88887 0.0
C2567 C 0.21683 0.1645 0.8758 0.0
C2568 C 0.20219 0.16688 0.90048 0.0
C2569 C 0.23929 0.14661 0.87344 0.0
C2570 C 0.2482 0.13093 0.89577 0.0
H2571 H 0.20935 0.1744 0.85755 0.0
H2572 H 0.24783 0.14301 0.85342 0.0
S2573 S 0.21991 0.13304 0.96566 0.0
N2574 N 0.20069 0.15457 0.94836 0.0
N2575 N 0.24272 0.12141 0.94382 0.0
C2576 C 0.23554 0.13536 0.92101 0.0
C2577 C 0.21261 0.15321 0.92341 0.0
C2578 C 0.34176 0.21532 0.86285 0.0
C2579 C 0.33846 0.20364 0.88892 0.0
C2580 C 0.35986 0.23733 0.85851 0.0
C2581 C 0.37478 0.24897 0.88012 0.0
H2582 H 0.33244 0.20577 0.84526 0.0
H2583 H 0.36411 0.24356 0.83776 0.0
S2584 S 0.37024 0.22894 0.95269 0.0
N2585 N 0.34935 0.20766 0.937 0.0
N2586 N 0.38266 0.24916 0.9288 0.0
C2587 C 0.36951 0.23931 0.90651 0.0
C2588 C 0.35154 0.21664 0.91092 0.0
C2589 C 0.28774 0.3371 0.87651 0.0
C2590 C 0.30544 0.33926 0.89911 0.0
C2591 C 0.26455 0.35404 0.87403 0.0
C2592 C 0.25827 0.37344 0.89413 0.0
H2593 H 0.29322 0.32417 0.85953 0.0
H2594 H 0.25327 0.35408 0.85514 0.0
S2595 S 0.29299 0.38153 0.96058 0.0
N2596 N 0.31113 0.35812 0.94457 0.0
N2597 N 0.2679 0.38962 0.9397 0.0
C2598 C 0.27328 0.37268 0.91845 0.0
C2599 C 0.29685 0.35573 0.92097 0.0
C2600 C 0.64173 0.17265 0.21659 0.0
C2601 C 0.61686 0.17282 0.20207 0.0
C2602 C 0.64516 0.15627 0.23998 0.0
C2603 C 0.62374 0.13994 0.24995 0.0
H2604 H 0.65947 0.18292 0.20834 0.0
H2605 H 0.6655 0.15393 0.24828 0.0
S2606 S 0.55326 0.13756 0.22315 0.0
N2607 N 0.56936 0.15858 0.20234 0.0
N2608 N 0.57594 0.12832 0.24619 0.0
C2609 C 0.59802 0.14284 0.23781 0.0
C2610 C 0.59455 0.15907 0.21385 0.0
C2611 C 0.59677 0.38375 0.28252 0.0
C2612 C 0.61679 0.37716 0.26305 0.0
C2613 C 0.59177 0.36699 0.30506 0.0
C2614 C 0.60647 0.34268 0.30907 0.0
H2615 H 0.58707 0.40361 0.28205 0.0
H2616 H 0.5781 0.37456 0.32066 0.0
S2617 S 0.6523 0.31061 0.25805 0.0
N2618 N 0.64572 0.34115 0.24536 0.0
N2619 N 0.63551 0.30886 0.28719 0.0
C2620 C 0.62302 0.33357 0.28737 0.0
C2621 C 0.62839 0.35101 0.26445 0.0
C2622 C 0.13758 0.5998 0.28195 0.0
C2623 C 0.13802 0.61864 0.2602 0.0
C2624 C 0.15834 0.59901 0.30175 0.0
C2625 C 0.18095 0.61667 0.30046 0.0
H2626 H 0.11978 0.58703 0.28501 0.0
H2627 H 0.15583 0.58557 0.31908 0.0
S2628 S 0.19289 0.66913 0.24749 0.0
N2629 N 0.16334 0.65529 0.23911 0.0
N2630 N 0.20345 0.65231 0.27455 0.0
C2631 C 0.18281 0.63408 0.27772 0.0
C2632 C 0.16111 0.63548 0.25809 0.0
C2633 C 0.87413 0.16565 0.2924 0.0
C2634 C 0.89652 0.16348 0.31037 0.0
C2635 C 0.87124 0.148 0.26981 0.0
C2636 C 0.89088 0.12787 0.26421 0.0
H2637 H 0.85759 0.17943 0.29713 0.0
H2638 H 0.85236 0.14839 0.25842 0.0
S2639 S 0.9555 0.11679 0.30169 0.0
N2640 N 0.94049 0.14193 0.31829 0.0
N2641 N 0.93493 0.10909 0.27622 0.0
C2642 C 0.91459 0.12751 0.28024 0.0
C2643 C 0.9175 0.14523 0.30318 0.0
C2644 C 0.38092 0.9137 0.28226 0.0
C2645 C 0.37479 0.89346 0.26284 0.0
C2646 C 0.36427 0.91816 0.30504 0.0
C2647 C 0.3405 0.90263 0.30949 0.0
H2648 H 0.4004 0.92416 0.28147 0.0
H2649 H 0.37152 0.93226 0.32041 0.0
S2650 S 0.30975 0.85497 0.2593 0.0
N2651 N 0.33977 0.8628 0.24606 0.0
N2652 N 0.30774 0.87186 0.28838 0.0
C2653 C 0.33189 0.88542 0.28809 0.0
C2654 C 0.34921 0.88066 0.26489 0.0
C2655 C 0.91044 0.36627 0.24142 0.0
C2656 C 0.88471 0.37586 0.24951 0.0
C2657 C 0.91315 0.34807 0.21944 0.0
C2658 C 0.89018 0.33871 0.20496 0.0
H2659 H 0.92871 0.37499 0.25028 0.0
H2660 H 0.93347 0.343 0.21241 0.0
S2661 S 0.81803 0.35646 0.21973 0.0
N2662 N 0.83586 0.37381 0.24239 0.0
N2663 N 0.84056 0.33872 0.20211 0.0
C2664 C 0.86415 0.34621 0.21463 0.0
C2665 C 0.86153 0.36508 0.23665 0.0
C2666 C 0.17484 0.87743 0.22068 0.0
C2667 C 0.17119 0.90047 0.20381 0.0
C2668 C 0.15949 0.87404 0.2448 0.0
C2669 C 0.14034 0.89371 0.25298 0.0
H2670 H 0.18753 0.86076 0.21386 0.0
H2671 H 0.16017 0.85467 0.25527 0.0
S2672 S 0.12865 0.96078 0.2205 0.0
N2673 N 0.15113 0.94569 0.20049 0.0
N2674 N 0.12288 0.93924 0.24568 0.0
C2675 C 0.13995 0.91853 0.23876 0.0
C2676 C 0.15509 0.92188 0.2141 0.0
C2677 C 0.36733 0.59961 0.24471 0.0
C2678 C 0.37693 0.62533 0.25291 0.0
C2679 C 0.34959 0.59689 0.22236 0.0
C2680 C 0.3407 0.61985 0.20757 0.0
H2681 H 0.37578 0.58132 0.25378 0.0
H2682 H 0.34454 0.57656 0.21531 0.0
S2683 S 0.35849 0.69198 0.22261 0.0
N2684 N 0.37525 0.67415 0.24566 0.0
N2685 N 0.34103 0.66946 0.20467 0.0
C2686 C 0.34812 0.64587 0.21737 0.0
C2687 C 0.36652 0.6485 0.23978 0.0
C2688 C 0.79889 0.37429 0.85358 0.0
C2689 C 0.7996 0.39704 0.83615 0.0
C2690 C 0.77925 0.37196 0.87423 0.0
C2691 C 0.75947 0.39228 0.87859 0.0
H2692 H 0.81432 0.35857 0.85202 0.0
H2693 H 0.78072 0.35489 0.88817 0.0
S2694 S 0.75128 0.45542 0.83825 0.0
N2695 N 0.77747 0.43981 0.82391 0.0
N2696 N 0.74106 0.43542 0.86334 0.0
C2697 C 0.75895 0.41447 0.86064 0.0
C2698 C 0.77888 0.41685 0.8393 0.0
C2699 C 0.10148 0.78689 0.84506 0.0
C2700 C 0.12447 0.80289 0.8383 0.0
C2701 C 0.10359 0.76397 0.86238 0.0
C2702 C 0.12876 0.75601 0.87361 0.0
H2703 H 0.08139 0.7933 0.83853 0.0
H2704 H 0.08501 0.75409 0.86914 0.0
S2705 S 0.19476 0.79139 0.86374 0.0
N2706 N 0.17321 0.80882 0.84466 0.0
N2707 N 0.17699 0.76596 0.87672 0.0
C2708 C 0.15206 0.77074 0.8656 0.0
C2709 C 0.14998 0.79411 0.84813 0.0
C2710 C 0.73451 0.15314 0.86458 0.0
C2711 C 0.75109 0.13086 0.87167 0.0
C2712 C 0.7148 0.1511 0.84394 0.0
C2713 C 0.71043 0.12648 0.82965 0.0
H2714 H 0.73531 0.1717 0.87656 0.0
H2715 H 0.70159 0.16848 0.84061 0.0
S2716 S 0.75218 0.06366 0.83738 0.0
N2717 N 0.76462 0.08472 0.86054 0.0
N2718 N 0.72767 0.08054 0.82161 0.0
C2719 C 0.72883 0.10488 0.83478 0.0
C2720 C 0.74908 0.10713 0.85585 0.0
C2721 C 0.36872 0.73027 0.87311 0.0
C2722 C 0.39035 0.7485 0.8777 0.0
C2723 C 0.37061 0.7094 0.85371 0.0
C2724 C 0.39444 0.70562 0.83826 0.0
H2725 H 0.35118 0.73056 0.88653 0.0
H2726 H 0.35425 0.69457 0.85264 0.0
S2727 S 0.45603 0.74946 0.84055 0.0
N2728 N 0.43552 0.76291 0.86368 0.0
N2729 N 0.43942 0.72325 0.82728 0.0
C2730 C 0.41568 0.72468 0.84143 0.0
C2731 C 0.41353 0.74628 0.86108 0.0
C2732 C 0.79338 0.13424 0.66444 0.0
C2733 C 0.80999 0.11075 0.66572 0.0
C2734 C 0.77031 0.13532 0.64714 0.0
C2735 C 0.76274 0.11281 0.6309 0.0
H2736 H 0.79972 0.15277 0.67468 0.0
H2737 H 0.76025 0.15475 0.64429 0.0
S2738 S 0.79635 0.0452 0.63047 0.0
N2739 N 0.8148 0.06344 0.65194 0.0
N2740 N 0.7716 0.06549 0.62007 0.0
C2741 C 0.77737 0.08847 0.63446 0.0
C2742 C 0.80095 0.08743 0.65163 0.0
C2743 C 0.42474 0.7755 0.64062 0.0
C2744 C 0.39985 0.762 0.63594 0.0
C2745 C 0.42656 0.79797 0.65835 0.0
C2746 C 0.40352 0.808 0.6723 0.0
H2747 H 0.44241 0.7704 0.62837 0.0
H2748 H 0.44574 0.8089 0.65937 0.0
S2749 S 0.33426 0.77731 0.67046 0.0
N2750 N 0.35228 0.75873 0.64897 0.0
N2751 N 0.35581 0.79983 0.6832 0.0
C2752 C 0.37921 0.79274 0.67021 0.0
C2753 C 0.37732 0.77008 0.65176 0.0
C2754 C 0.70981 0.36962 0.65795 0.0
C2755 C 0.71174 0.38971 0.67833 0.0
C2756 C 0.72765 0.36932 0.63568 0.0
C2757 C 0.74881 0.38859 0.63297 0.0
H2758 H 0.69363 0.35456 0.65852 0.0
H2759 H 0.72392 0.35451 0.61975 0.0
S2760 S 0.76351 0.44512 0.68071 0.0
N2761 N 0.73716 0.42925 0.69452 0.0
N2762 N 0.77097 0.42812 0.65262 0.0
C2763 C 0.75186 0.40809 0.65364 0.0
C2764 C 0.73337 0.4087 0.67636 0.0
C2765 C 0.10032 0.74168 0.6487 0.0
C2766 C 0.12232 0.74317 0.6303 0.0
C2767 C 0.09843 0.72029 0.66801 0.0
C2768 C 0.11886 0.70014 0.67006 0.0
H2769 H 0.08348 0.75583 0.64678 0.0
H2770 H 0.08029 0.71878 0.68052 0.0
S2771 S 0.1801 0.69437 0.62621 0.0
N2772 N 0.1641 0.72161 0.61485 0.0
N2773 N 0.16174 0.68336 0.65212 0.0
C2774 C 0.14152 0.7023 0.65271 0.0
C2775 C 0.14293 0.7233 0.6326 0.0
C2776 C 0.84559 0.78399 0.40875 0.0
C2777 C 0.84165 0.80378 0.38832 0.0
C2778 C 0.86352 0.7618 0.40474 0.0
C2779 C 0.87801 0.75873 0.38019 0.0
H2780 H 0.83624 0.78669 0.42856 0.0
H2781 H 0.86807 0.7486 0.42182 0.0
S2782 S 0.87643 0.80583 0.32129 0.0
N2783 N 0.85454 0.81913 0.34312 0.0
N2784 N 0.88715 0.77727 0.33538 0.0
C2785 C 0.8729 0.7775 0.35915 0.0
C2786 C 0.8551 0.80014 0.3633 0.0
C2787 C 0.74241 0.86014 0.36974 0.0
C2788 C 0.75278 0.87661 0.39081 0.0
C2789 C 0.71922 0.84363 0.37379 0.0
C2790 C 0.70513 0.84367 0.39888 0.0
H2791 H 0.75027 0.86236 0.34926 0.0
H2792 H 0.71066 0.83321 0.35632 0.0
S2793 S 0.72679 0.87998 0.46154 0.0
N2794 N 0.74958 0.88898 0.43845 0.0
N2795 N 0.70577 0.85868 0.44603 0.0
C2796 C 0.71704 0.85788 0.42075 0.0
C2797 C 0.74091 0.87416 0.41671 0.0
C2798 C 0.64856 0.7126 0.41851 0.0
C2799 C 0.66642 0.70528 0.39721 0.0
C2800 C 0.63145 0.73551 0.41643 0.0
C2801 C 0.63147 0.75216 0.39307 0.0
H2802 H 0.646 0.69931 0.43594 0.0
H2803 H 0.61611 0.73857 0.43203 0.0
S2804 S 0.67682 0.74441 0.33351 0.0
N2805 N 0.68582 0.71918 0.35379 0.0
N2806 N 0.65236 0.76096 0.34952 0.0
C2807 C 0.65099 0.74664 0.37301 0.0
C2808 C 0.66881 0.72356 0.37519 0.0
C2809 C 0.7787 0.6487 0.35852 0.0
C2810 C 0.75822 0.64116 0.37716 0.0
C2811 C 0.79941 0.66713 0.36566 0.0
C2812 C 0.80012 0.67948 0.39148 0.0
H2813 H 0.78026 0.63823 0.33912 0.0
H2814 H 0.81582 0.67054 0.35137 0.0
S2815 S 0.74974 0.6683 0.44699 0.0
N2816 N 0.73902 0.64839 0.42204 0.0
N2817 N 0.777 0.6842 0.43519 0.0
C2818 C 0.7784 0.6738 0.40957 0.0
C2819 C 0.75759 0.6545 0.40241 0.0
C2820 C 0.84898 0.71431 0.14195 0.0
C2821 C 0.83883 0.70608 0.11652 0.0
C2822 C 0.86622 0.73706 0.14453 0.0
C2823 C 0.87424 0.75232 0.1217 0.0
H2824 H 0.846 0.70128 0.15946 0.0
H2825 H 0.87606 0.7407 0.16396 0.0
S2826 S 0.85115 0.74109 0.05078 0.0
N2827 N 0.83608 0.71652 0.06827 0.0
N2828 N 0.86888 0.75908 0.0731 0.0
C2829 C 0.86262 0.7456 0.09643 0.0
C2830 C 0.84496 0.72241 0.09379 0.0
C2831 C 0.76266 0.86176 0.10133 0.0
C2832 C 0.75836 0.87706 0.12522 0.0
C2833 C 0.78565 0.84464 0.09859 0.0
C2834 C 0.80496 0.84228 0.11969 0.0
H2835 H 0.74972 0.86506 0.08377 0.0
H2836 H 0.7893 0.83466 0.07925 0.0
S2837 S 0.80363 0.87942 0.18549 0.0
N2838 N 0.77505 0.8884 0.17026 0.0
N2839 N 0.8185 0.85746 0.16475 0.0
C2840 C 0.80007 0.85645 0.1441 0.0
C2841 C 0.77659 0.87339 0.147 0.0
C2842 C 0.62364 0.78124 0.09611 0.0
C2843 C 0.63023 0.76173 0.1161 0.0
C2844 C 0.6402 0.80408 0.09136 0.0
C2845 C 0.66434 0.80838 0.10627 0.0
H2846 H 0.60395 0.78046 0.0861 0.0
H2847 H 0.63262 0.81959 0.07761 0.0
S2848 S 0.69645 0.75786 0.15241 0.0
N2849 N 0.66605 0.74492 0.14571 0.0
N2850 N 0.69804 0.787 0.13562 0.0
C2851 C 0.67341 0.78686 0.12298 0.0
C2852 C 0.65614 0.76375 0.12822 0.0
C2853 C 0.7188 0.63401 0.13684 0.0
C2854 C 0.74473 0.63174 0.12434 0.0
C2855 C 0.70013 0.6545 0.1296 0.0
C2856 C 0.70679 0.67446 0.11021 0.0
H2857 H 0.71217 0.61886 0.15149 0.0
H2858 H 0.68 0.65405 0.13864 0.0
S2859 S 0.77186 0.67773 0.07112 0.0
N2860 N 0.77539 0.65056 0.09066 0.0
N2861 N 0.74187 0.69084 0.07892 0.0
C2862 C 0.73315 0.6731 0.09832 0.0
C2863 C 0.75177 0.6515 0.10504 0.0
C2864 C 0.42053 0.87671 0.77738 0.0
C2865 C 0.39654 0.87929 0.76194 0.0
C2866 C 0.42211 0.85886 0.79974 0.0
C2867 C 0.39972 0.84269 0.80776 0.0
H2868 H 0.43737 0.89061 0.77387 0.0
H2869 H 0.44037 0.85938 0.81214 0.0
S2870 S 0.33328 0.83901 0.77144 0.0
N2871 N 0.35075 0.86227 0.75447 0.0
N2872 N 0.35382 0.82796 0.79573 0.0
C2873 C 0.37653 0.84297 0.79067 0.0
C2874 C 0.37489 0.86149 0.768 0.0
C2875 C 0.41475 0.63676 0.73348 0.0
C2876 C 0.38993 0.63432 0.74763 0.0
C2877 C 0.41771 0.65487 0.7115 0.0
C2878 C 0.39591 0.67137 0.7027 0.0
H2879 H 0.43127 0.62275 0.73782 0.0
H2880 H 0.43658 0.65437 0.70003 0.0
S2881 S 0.32732 0.6745 0.73451 0.0
N2882 N 0.34367 0.65089 0.75203 0.0
N2883 N 0.3495 0.6862 0.71209 0.0
C2884 C 0.37182 0.67105 0.7184 0.0
C2885 C 0.36872 0.65214 0.74045 0.0
C2886 C 0.86977 0.41398 0.7391 0.0
C2887 C 0.87298 0.38839 0.75171 0.0
C2888 C 0.85297 0.4173 0.71607 0.0
C2889 C 0.83819 0.39525 0.70504 0.0
H2890 H 0.88283 0.43081 0.74503 0.0
H2891 H 0.8533 0.43672 0.70556 0.0
S2892 S 0.8374 0.3246 0.73201 0.0
N2893 N 0.85914 0.34102 0.75177 0.0
N2894 N 0.82538 0.34769 0.71075 0.0
C2895 C 0.83878 0.37037 0.71938 0.0
C2896 C 0.85673 0.36681 0.74213 0.0
C2897 C 0.09146 0.86742 0.73305 0.0
C2898 C 0.1155 0.87294 0.74776 0.0
C2899 C 0.09127 0.84943 0.7107 0.0
C2900 C 0.11512 0.83592 0.70213 0.0
H2901 H 0.07324 0.87925 0.73707 0.0
H2902 H 0.07275 0.84774 0.6988 0.0
S2903 S 0.1828 0.8407 0.73557 0.0
N2904 N 0.16324 0.86159 0.7533 0.0
N2905 N 0.16281 0.827 0.71223 0.0
C2906 C 0.13862 0.83904 0.71837 0.0
C2907 C 0.13884 0.85774 0.74093 0.0
C2908 C 0.64002 0.09164 0.7332 0.0
C2909 C 0.63549 0.11639 0.74702 0.0
C2910 C 0.6578 0.08998 0.71075 0.0
C2911 C 0.6721 0.11299 0.70116 0.0
H2912 H 0.62764 0.07398 0.73805 0.0
H2913 H 0.65873 0.07095 0.69956 0.0
S2914 S 0.66975 0.18217 0.73187 0.0
N2915 N 0.64831 0.164 0.75042 0.0
N2916 N 0.6827 0.16074 0.70938 0.0
C2917 C 0.66986 0.13723 0.71648 0.0
C2918 C 0.65129 0.13899 0.73907 0.0
C2919 C 0.14024 0.65821 0.79582 0.0
C2920 C 0.11652 0.67414 0.79867 0.0
C2921 C 0.14194 0.6375 0.77619 0.0
C2922 C 0.12001 0.63178 0.75863 0.0
H2923 H 0.15713 0.66076 0.80983 0.0
H2924 H 0.15978 0.62446 0.77618 0.0
S2925 S 0.05486 0.66957 0.75497 0.0
N2926 N 0.07178 0.68464 0.77991 0.0
N2927 N 0.07505 0.64522 0.74336 0.0
C2928 C 0.09714 0.64887 0.75963 0.0
C2929 C 0.09539 0.6702 0.77955 0.0
C2930 C 0.84604 0.13481 0.79057 0.0
C2931 C 0.8429 0.11016 0.80509 0.0
C2932 C 0.86425 0.13681 0.76842 0.0
C2933 C 0.8795 0.11415 0.75955 0.0
H2934 H 0.83655 0.15333 0.79798 0.0
H2935 H 0.86848 0.15682 0.76025 0.0
S2936 S 0.87509 0.04406 0.78723 0.0
N2937 N 0.85384 0.06184 0.80636 0.0
N2938 N 0.88764 0.06575 0.76476 0.0
C2939 C 0.87427 0.08892 0.77198 0.0
C2940 C 0.85605 0.08687 0.79468 0.0
C2941 C 0.64626 0.42263 0.76991 0.0
C2942 C 0.6362 0.39784 0.75938 0.0
C2943 C 0.66297 0.42343 0.79335 0.0
C2944 C 0.67052 0.39942 0.80725 0.0
H2945 H 0.63905 0.44174 0.76152 0.0
H2946 H 0.66846 0.44312 0.80172 0.0
S2947 S 0.64997 0.32916 0.78798 0.0
N2948 N 0.63539 0.34881 0.765 0.0
N2949 N 0.66758 0.35001 0.80762 0.0
C2950 C 0.66233 0.37443 0.7957 0.0
C2951 C 0.64499 0.37372 0.77218 0.0
C2952 C 0.99875 0.65908 0.26733 0.0
C2953 C 1.00357 0.679 0.2876 0.0
C2954 C 0.02035 0.64775 0.25221 0.0
C2955 C 0.04727 0.6563 0.25672 0.0
H2956 H 0.97845 0.65085 0.26442 0.0
H2957 H 0.01617 0.63105 0.2384 0.0
S2958 S 0.06977 0.71186 0.30297 0.0
N2959 N 0.03661 0.70943 0.30832 0.0
N2960 N 0.07704 0.68873 0.2796 0.0
C2961 C 0.0519 0.67794 0.27503 0.0
C2962 C 0.03008 0.68916 0.29057 0.0
C2963 C 0.86176 0.99855 0.28871 0.0
C2964 C 0.83322 0.99564 0.29025 0.0
C2965 C 0.87375 0.01815 0.27168 0.0
C2966 C 0.8577 0.03553 0.25557 0.0
H2967 H 0.87487 0.98649 0.30175 0.0
H2968 H 0.89565 0.02098 0.27253 0.0
S2969 S 0.78185 0.03539 0.25251 0.0
N2970 N 0.7893 0.0106 0.27384 0.0
N2971 N 0.81148 0.04771 0.24231 0.0
C2972 C 0.82916 0.03159 0.25594 0.0
C2973 C 0.81701 0.0115 0.27315 0.0
C2974 C 0.51143 0.85085 0.26718 0.0
C2975 C 0.50832 0.82898 0.28555 0.0
C2976 C 0.48896 0.86117 0.25271 0.0
C2977 C 0.46303 0.84949 0.25593 0.0
H2978 H 0.53087 0.86121 0.26542 0.0
H2979 H 0.49152 0.87938 0.24051 0.0
S2980 S 0.44586 0.7881 0.29636 0.0
N2981 N 0.47842 0.79366 0.30296 0.0
N2982 N 0.43641 0.81241 0.27511 0.0
C2983 C 0.46034 0.82612 0.27222 0.0
C2984 C 0.48297 0.81598 0.28724 0.0
C2985 C 0.68347 0.46865 0.26925 0.0
C2986 C 0.65777 0.467 0.25668 0.0
C2987 C 0.69089 0.49159 0.28474 0.0
C2988 C 0.67275 0.51357 0.28822 0.0
H2989 H 0.69727 0.45141 0.26843 0.0
H2990 H 0.71039 0.49149 0.29512 0.0
S2991 S 0.60325 0.51902 0.2584 0.0
N2992 N 0.61456 0.48909 0.24798 0.0
N2993 N 0.62833 0.53252 0.27635 0.0
C2994 C 0.64757 0.51268 0.27428 0.0
C2995 C 0.64008 0.48925 0.25874 0.0
C2996 C 0.03622 0.83595 0.25825 0.0
C2997 C 0.04755 0.86112 0.25057 0.0
C2998 C 0.01494 0.82404 0.24319 0.0
C2999 C 0.00557 0.83612 0.21898 0.0
H3000 H 0.04524 0.82441 0.27458 0.0
H3001 H 0.00682 0.80454 0.24965 0.0
S3002 S 0.03087 0.90045 0.18831 0.0
N3003 N 0.04823 0.89736 0.21686 0.0
N3004 N 0.0106 0.87362 0.187 0.0
C3005 C 0.01746 0.86076 0.21053 0.0
C3006 C 0.0379 0.87355 0.22665 0.0
C3007 C 0.67631 0.03387 0.25621 0.0
C3008 C 0.65142 0.04567 0.24839 0.0
C3009 C 0.68841 0.01303 0.24062 0.0
C3010 C 0.67691 1.00474 0.21567 0.0
H3011 H 0.68767 0.04235 0.27299 0.0
H3012 H 0.70768 1.00457 0.2473 0.0
S3013 S 0.61365 0.03237 0.18428 0.0
N3014 N 0.61616 0.04823 0.21377 0.0
N3015 N 0.64001 0.01155 0.1831 0.0
C3016 C 0.65235 0.01705 0.2073 0.0
C3017 C 0.63941 0.03696 0.2239 0.0
C3018 C 0.49555 0.63918 0.26077 0.0
C3019 C 0.47037 0.65261 0.25935 0.0
C3020 C 0.51797 0.64849 0.24548 0.0
C3021 C 0.51578 0.67136 0.2281 0.0
H3022 H 0.4974 0.62035 0.27214 0.0
H3023 H 0.53652 0.63653 0.24589 0.0
S3024 S 0.45516 0.71613 0.22133 0.0
N3025 N 0.44522 0.69156 0.2421 0.0
N3026 N 0.48726 0.70931 0.21372 0.0
C3027 C 0.49124 0.68617 0.22842 0.0
C3028 C 0.46852 0.67664 0.24387 0.0
C3029 C 0.85849 0.50552 0.21985 0.0
C3030 C 0.83 0.50896 0.22126 0.0
C3031 C 0.87194 0.48609 0.23592 0.0
C3032 C 0.85751 0.46937 0.25412 0.0
H3033 H 0.87047 0.5173 0.2055 0.0
H3034 H 0.89365 0.48312 0.23302 0.0
S3035 S 0.78259 0.46959 0.26496 0.0
N3036 N 0.78783 0.49424 0.24266 0.0
N3037 N 0.813 0.4569 0.27195 0.0
C3038 C 0.82913 0.47307 0.25631 0.0
C3039 C 0.81541 0.49313 0.24016 0.0
C3040 C 0.29826 0.00744 0.64896 0.0
C3041 C 0.29425 1.00388 0.67717 0.0
C3042 C 0.28139 0.02469 0.63364 0.0
C3043 C 0.25978 0.03904 0.6458 0.0
H3044 H 0.3151 0.99747 0.63871 0.0
H3045 H 0.28626 0.028 0.61236 0.0
S3046 S 0.24108 0.03704 0.7192 0.0
N3047 N 0.26686 0.01566 0.71657 0.0
N3048 N 0.23567 0.04851 0.68807 0.0
C3049 C 0.25495 0.03479 0.67381 0.0
C3050 C 0.27207 0.01712 0.68941 0.0
C3051 C 0.47795 0.25431 0.67326 0.0
C3052 C 0.47246 0.26118 0.64598 0.0
C3053 C 0.49577 0.2699 0.68941 0.0
C3054 C 0.50839 0.29355 0.67917 0.0
H3055 H 0.467 0.23801 0.68302 0.0
H3056 H 0.49862 0.26402 0.71049 0.0
S3057 S 0.50212 0.31947 0.60818 0.0
N3058 N 0.48232 0.29224 0.6089 0.0
N3059 N 0.51521 0.32211 0.63906 0.0
C3060 C 0.50377 0.30016 0.65152 0.0
C3061 C 0.48594 0.28394 0.63506 0.0
C3062 C 0.2322 0.484 0.69595 0.0
C3063 C 0.21942 0.50574 0.68239 0.0
C3064 C 0.24863 0.46535 0.68165 0.0
C3065 C 0.25421 0.4686 0.65371 0.0
H3066 H 0.22793 0.48023 0.71727 0.0
H3067 H 0.25565 0.44726 0.69217 0.0
S3068 S 0.22702 0.523 0.60913 0.0
N3069 N 0.21401 0.52986 0.63943 0.0
N3070 N 0.24604 0.49548 0.61314 0.0
C3071 C 0.24256 0.4909 0.64021 0.0
C3072 C 0.22507 0.50941 0.65447 0.0
C3073 C 0.03352 0.25567 0.67423 0.0
C3074 C 0.04507 0.24821 0.64906 0.0
C3075 C 0.01165 0.24087 0.68556 0.0
C3076 C 1.00201 0.21711 0.67284 0.0
H3077 H 0.04284 0.27151 0.68629 0.0
H3078 H 1.00333 0.24714 0.70502 0.0
S3079 S 0.0279 0.18647 0.60886 0.0
N3080 N 0.04586 0.21472 0.61256 0.0
N3081 N 0.00699 0.18541 0.6352 0.0
C3082 C 0.01406 0.20881 0.6483 0.0
C3083 C 0.03517 0.22461 0.63614 0.0
C3084 C 0.25479 0.47892 0.84064 0.0
C3085 C 0.25764 0.46847 0.86717 0.0
C3086 C 0.27066 0.50118 0.83166 0.0
C3087 C 0.28983 0.51358 0.84903 0.0
H3088 H 0.24167 0.46869 0.82618 0.0
H3089 H 0.26834 0.50827 0.81094 0.0
S3090 S 0.30615 0.49283 0.91977 0.0
N3091 N 0.28165 0.47176 0.91028 0.0
N3092 N 0.31131 0.51329 0.89357 0.0
C3093 C 0.29259 0.50347 0.87563 0.0
C3094 C 0.27659 0.48095 0.88465 0.0
C3095 C 0.04916 0.27451 0.83734 0.0
C3096 C 0.04278 0.25722 0.85938 0.0
C3097 C 0.02884 0.28911 0.8235 0.0
C3098 C 1.00132 0.28666 0.83096 0.0
H3099 H 0.07024 0.27761 0.83144 0.0
H3100 H 0.03478 0.30296 0.80735 0.0
S3101 S 0.97407 0.24488 0.88791 0.0
N3102 N 0.00726 0.23918 0.88849 0.0
N3103 N 0.96874 0.2657 0.86201 0.0
C3104 C 0.99457 0.26871 0.85241 0.0
C3105 C 0.01539 0.25419 0.86675 0.0
C3106 C 0.21062 0.02521 0.83365 0.0
C3107 C 0.21742 0.99756 0.83699 0.0
C3108 C 0.22617 0.04588 0.84588 0.0
C3109 C 0.24924 0.03999 0.86206 0.0
H3110 H 0.19232 0.03098 0.82273 0.0
H3111 H 0.21935 0.06677 0.84346 0.0
S3112 S 0.27778 0.97117 0.87417 0.0
N3113 N 0.25077 0.96557 0.85493 0.0
N3114 N 0.27909 1.00451 0.87882 0.0
C3115 C 0.25724 0.01264 0.86412 0.0
C3116 C 0.24157 0.99145 0.85136 0.0
C3117 C 0.51571 0.24111 0.85167 0.0
C3118 C 0.51318 0.22227 0.82994 0.0
C3119 C 0.49341 0.25691 0.86052 0.0
C3120 C 0.46793 0.2546 0.84776 0.0
H3121 H 0.5345 0.24238 0.86319 0.0
H3122 H 0.49559 0.26931 0.87865 0.0
S3123 S 0.45146 0.21225 0.78731 0.0
N3124 N 0.48372 0.20522 0.79387 0.0
N3125 N 0.44214 0.23488 0.81043 0.0
C3126 C 0.46577 0.23778 0.82464 0.0
C3127 C 0.4883 0.22165 0.8157 0.0
C3128 C 0.66616 0.28589 0.04827 0.0
C3129 C 0.65143 0.26206 0.04145 0.0
C3130 C 0.67991 0.30133 0.02855 0.0
C3131 C 0.67976 0.29356 1.00099 0.0
H3132 H 0.66634 0.29335 0.06904 0.0
H3133 H 0.68959 0.32018 0.03486 0.0
S3134 S 0.64916 0.23037 0.97312 0.0
N3135 N 0.64028 0.23016 0.00557 0.0
N3136 N 0.66743 0.25819 0.96862 0.0
C3137 C 0.66723 0.26859 0.99425 0.0
C3138 C 0.65269 0.25314 0.01437 0.0
C3139 C 0.65736 0.22722 0.51029 0.0
C3140 C 0.68598 0.22469 0.51023 0.0
C3141 C 0.64385 0.24358 0.49107 0.0
C3142 C 0.65844 0.25795 0.47108 0.0
H3143 H 0.64522 0.21555 0.52459 0.0
H3144 H 0.62175 0.24347 0.49067 0.0
S3145 S 0.73333 0.25687 0.46093 0.0
N3146 N 0.72837 0.23788 0.48829 0.0
N3147 N 0.70287 0.2678 0.45168 0.0
C3148 C 0.68706 0.25626 0.47129 0.0
C3149 C 0.70087 0.23986 0.49102 0.0
C3150 C 0.2748 0.6831 0.46682 0.0
C3151 C 0.25662 0.66098 0.46992 0.0
C3152 C 0.29093 0.69266 0.48855 0.0
C3153 C 0.28963 0.6805 0.51449 0.0
H3154 H 0.27769 0.69221 0.44691 0.0
H3155 H 0.30544 0.70886 0.4846 0.0
S3156 S 0.24464 0.62237 0.5336 0.0
N3157 N 0.23815 0.62751 0.50102 0.0
N3158 N 0.26717 0.64586 0.54223 0.0
C3159 C 0.27029 0.65936 0.51826 0.0
C3160 C 0.25414 0.64948 0.49592 0.0
C3161 C 0.86223 0.2713 0.51669 0.0
C3162 C 0.84028 0.28973 0.51339 0.0
C3163 C 0.87167 0.25515 0.4949 0.0
C3164 C 0.8592 0.25662 0.46925 0.0
H3165 H 0.87334 0.27051 0.53573 0.0
H3166 H 0.8898 0.24286 0.49768 0.0
S3167 S 0.79877 0.29813 0.45075 0.0
N3168 N 0.8048 0.30607 0.48287 0.0
N3169 N 0.82214 0.27539 0.44241 0.0
C3170 C 0.83604 0.27326 0.46627 0.0
C3171 C 0.82665 0.28988 0.48821 0.0
C3172 C 0.22044 0.86556 0.50986 0.0
C3173 C 0.2208 0.83755 0.51578 0.0
C3174 C 0.23669 0.87653 0.48906 0.0
C3175 C 0.25427 0.86002 0.47357 0.0
H3176 H 0.20657 0.87896 0.52065 0.0
H3177 H 0.23446 0.89795 0.48413 0.0
S3178 S 0.26315 0.78524 0.48148 0.0
N3179 N 0.24075 0.79348 0.50529 0.0
N3180 N 0.27087 0.81396 0.46558 0.0
C3181 C 0.25548 0.832 0.47985 0.0
C3182 C 0.23881 0.82079 0.50112 0.0
C3183 C 0.83764 0.26136 0.02962 0.0
C3184 C 0.86357 0.25413 0.03935 0.0
C3185 C 0.82431 0.24572 0.00963 0.0
C3186 C 0.83595 0.22145 0.99967 0.0
H3187 H 0.82655 0.27764 0.03927 0.0
H3188 H 0.80404 0.25172 1.00325 0.0
S3189 S 0.90373 0.19349 0.0188 0.0
N3190 N 0.90091 0.22181 0.03676 0.0
N3191 N 0.87535 0.19124 1.00085 0.0
C3192 C 0.86214 0.21421 0.009 0.0
C3193 C 0.87603 0.23078 0.02844 0.0
C3194 C 0.27904 0.82398 0.01352 0.0
C3195 C 0.29154 0.84296 0.99603 0.0
C3196 C 0.26185 0.83272 0.03481 0.0
C3197 C 0.25632 0.86057 0.03905 0.0
H3198 H 0.28332 0.80242 0.01132 0.0
H3199 H 0.25462 0.81778 0.04931 0.0
S3200 S 0.28658 0.91834 1.00116 0.0
N3201 N 0.29856 0.89092 0.98575 0.0
N3202 N 0.26641 0.90696 0.02557 0.0
C3203 C 0.26872 0.87959 0.02178 0.0
C3204 C 0.28616 0.87085 1.00022 0.0
C3205 C 0.26217 0.64437 0.01972 0.0
C3206 C 0.25409 0.64878 0.04676 0.0
C3207 C 0.24596 0.65366 0.99793 0.0
C3208 C 0.2212 0.66772 1.00248 0.0
H3209 H 0.27995 0.63218 0.01532 0.0
H3210 H 0.25217 0.64851 0.97738 0.0
S3211 S 0.19339 0.68807 0.06979 0.0
N3212 N 0.22158 0.67118 0.07692 0.0
N3213 N 0.19129 0.68822 0.03626 0.0
C3214 C 0.21426 0.67427 0.02944 0.0
C3215 C 0.23064 0.66482 0.05149 0.0
C3216 C 0.01341 0.35363 0.74214 0.0
C3217 C 0.00983 0.33594 0.7197 0.0
C3218 C 0.99111 0.36267 0.75763 0.0
C3219 C 0.96461 0.35419 0.75122 0.0
H3220 H 0.03337 0.36184 0.74687 0.0
H3221 H 0.99447 0.37777 0.7733 0.0
S3222 S 0.94436 0.30489 0.69751 0.0
N3223 N 0.97772 0.30787 0.69416 0.0
N3224 N 0.93605 0.32487 0.72327 0.0
C3225 C 0.96095 0.33489 0.73034 0.0
C3226 C 0.98352 0.32567 0.71461 0.0
C3227 C 0.16036 0.98052 0.75304 0.0
C3228 C 0.13493 0.96893 0.74636 0.0
C3229 C 0.17202 1.00164 0.7374 0.0
C3230 C 0.15899 0.01136 0.71388 0.0
H3231 H 0.17236 0.97199 0.76915 0.0
H3232 H 0.19162 0.00984 0.74338 0.0
S3233 S 0.09374 0.98631 0.68528 0.0
N3234 N 0.09794 0.96823 0.71334 0.0
N3235 N 0.12023 0.00705 0.6836 0.0
C3236 C 0.13389 0.99976 0.70656 0.0
C3237 C 0.12183 0.9787 0.72273 0.0
C3238 C 0.51603 0.13824 0.75331 0.0
C3239 C 0.54334 0.14557 0.74901 0.0
C3240 C 0.49492 0.15108 0.73866 0.0
C3241 C 0.50048 0.17168 0.71925 0.0
H3242 H 0.51106 0.12157 0.7669 0.0
H3243 H 0.47428 0.14374 0.74154 0.0
S3244 S 0.56871 0.20067 0.70366 0.0
N3245 N 0.57474 0.17631 0.72603 0.0
N3246 N 0.53535 0.20079 0.69923 0.0
C3247 C 0.52765 0.18043 0.7164 0.0
C3248 C 0.549 0.16723 0.73104 0.0
C3249 C 0.36144 0.50502 0.71923 0.0
C3250 C 0.33306 0.50096 0.72063 0.0
C3251 C 0.37434 0.52486 0.73526 0.0
C3252 C 0.35933 0.54141 0.75317 0.0
H3253 H 0.37366 0.49329 0.70504 0.0
H3254 H 0.39602 0.52824 0.73261 0.0
S3255 S 0.28419 0.54062 0.76213 0.0
N3256 N 0.29025 0.51541 0.74066 0.0
N3257 N 0.31429 0.55374 0.7697 0.0
C3258 C 0.33097 0.53734 0.75493 0.0
C3259 C 0.31788 0.51679 0.73893 0.0
C3260 C 0.97652 0.17309 0.75293 0.0
C3261 C 0.9719 0.14524 0.75821 0.0
C3262 C 0.99378 0.18896 0.76942 0.0
C3263 C 0.00673 0.17776 0.79239 0.0
H3264 H 0.96538 0.18342 0.7372 0.0
H3265 H 0.99584 0.21047 0.76484 0.0
S3266 S 1.00259 0.10518 0.81419 0.0
N3267 N 0.98292 0.10676 0.787 0.0
N3268 N 0.01484 0.13626 0.81849 0.0
C3269 C 1.00313 0.14958 0.79727 0.0
C3270 C 0.98585 0.13347 0.78015 0.0
C3271 C 0.35212 0.01189 0.78167 0.0
C3272 C 0.32554 1.00458 0.79002 0.0
C3273 C 0.36824 0.99412 0.76585 0.0
C3274 C 0.35844 0.96831 0.75826 0.0
H3275 H 0.36079 0.03118 0.78811 0.0
H3276 H 0.38893 1.00001 0.76079 0.0
S3277 S 0.29112 0.93878 0.77634 0.0
N3278 N 0.29041 0.96976 0.78955 0.0
N3279 N 0.32119 0.93579 0.76148 0.0
C3280 C 0.33201 0.9608 0.76661 0.0
C3281 C 0.31535 0.97914 0.78191 0.0
C3282 C 0.50093 0.34885 0.76149 0.0
C3283 C 0.50562 0.33876 0.78806 0.0
C3284 C 0.52073 0.36457 0.74767 0.0
C3285 C 0.54583 0.37093 0.75997 0.0
H3286 H 0.48155 0.34522 0.75155 0.0
H3287 H 0.51611 0.37219 0.72756 0.0
S3288 S 0.56974 0.34586 0.82753 0.0
N3289 N 0.53849 0.33384 0.82463 0.0
N3290 N 0.57522 0.36323 0.79936 0.0
C3291 C 0.55108 0.35991 0.78608 0.0
C3292 C 0.53115 0.34388 0.7999 0.0
C3293 C 0.17639 0.52731 0.7971 0.0
C3294 C 0.17675 0.50006 0.78843 0.0
C3295 C 0.16188 0.54712 0.78268 0.0
C3296 C 0.14668 0.54061 0.75912 0.0
H3297 H 0.18691 0.53332 0.81557 0.0
H3298 H 0.16226 0.5678 0.79049 0.0
S3299 S 0.14141 0.47225 0.72754 0.0
N3300 N 0.16155 0.46762 0.75405 0.0
N3301 N 0.1334 0.50497 0.72769 0.0
C3302 C 0.14747 0.51364 0.74977 0.0
C3303 C 0.16271 0.49336 0.76423 0.0
C3304 C 0.7342 0.96442 0.33764 0.0
C3305 C 0.7562 0.96835 0.3558 0.0
C3306 C 0.71783 0.98619 0.3288 0.0
C3307 C 0.72272 0.01303 0.33772 0.0
H3308 H 0.72855 0.94397 0.33139 0.0
H3309 H 0.7003 0.98161 0.31618 0.0
S3310 S 0.7799 0.03508 0.38206 0.0
N3311 N 0.78303 1.00158 0.38042 0.0
N3312 N 0.75352 0.04277 0.36273 0.0
C3313 C 0.74609 0.01759 0.35385 0.0
C3314 C 0.7625 0.99523 0.36318 0.0
C3315 C 0.51655 0.74134 0.31866 0.0
C3316 C 0.50042 0.72294 0.33366 0.0
C3317 C 0.53594 0.75804 0.33169 0.0
C3318 C 0.53928 0.75745 0.36014 0.0
H3319 H 0.51546 0.74157 0.29662 0.0
H3320 H 0.54986 0.76979 0.31924 0.0
S3321 S 0.49968 0.71566 0.40894 0.0
N3322 N 0.48737 0.70713 0.37881 0.0
N3323 N 0.52352 0.73873 0.403 0.0
C3324 C 0.52207 0.74051 0.37542 0.0
C3325 C 0.50265 0.72328 0.36226 0.0
C3326 C 0.77158 0.49876 0.36414 0.0
C3327 C 0.79013 0.49975 0.34212 0.0
C3328 C 0.75534 0.52134 0.37094 0.0
C3329 C 0.75689 0.54542 0.35569 0.0
H3330 H 0.77077 0.48108 0.37733 0.0
H3331 H 0.74315 0.52062 0.38931 0.0
S3332 S 0.79846 0.55739 0.29376 0.0
N3333 N 0.80641 0.52612 0.30332 0.0
N3334 N 0.77563 0.56819 0.31599 0.0
C3335 C 0.77346 0.54592 0.33236 0.0
C3336 C 0.79011 0.52314 0.32553 0.0
C3337 C 0.01874 0.76887 0.36687 0.0
C3338 C 0.01723 0.78637 0.34403 0.0
C3339 C 0.99669 0.75213 0.37434 0.0
C3340 C 0.97264 0.75205 0.35897 0.0
H3341 H 0.03635 0.76937 0.38017 0.0
H3342 H 0.99772 0.74086 0.39329 0.0
S3343 S 0.95949 0.79025 0.29521 0.0
N3344 N 0.99043 0.7998 0.30448 0.0
N3345 N 0.94947 0.76797 0.31836 0.0
C3346 C 0.97176 0.76733 0.33482 0.0
C3347 C 0.99397 0.78457 0.32732 0.0
C3348 C 0.72359 0.52612 0.19161 0.0
C3349 C 0.72818 0.49873 0.18496 0.0
C3350 C 0.73745 0.54699 0.17797 0.0
C3351 C 0.75601 0.54134 0.15673 0.0
H3352 H 0.7084 0.5315 0.20673 0.0
H3353 H 0.73256 0.56791 0.1832 0.0
S3354 S 0.77533 0.47286 0.13179 0.0
N3355 N 0.7535 0.46678 0.1567 0.0
N3356 N 0.7783 0.50637 0.12999 0.0
C3357 C 0.76153 0.51404 0.15054 0.0
C3358 C 0.74789 0.49263 0.16495 0.0
C3359 C 0.99775 0.74514 0.18486 0.0
C3360 C 0.00609 0.71903 0.17632 0.0
C3361 C 0.97878 0.76036 0.16971 0.0
C3362 C 0.96814 0.75099 0.14498 0.0
H3363 H 1.00486 0.7534 0.20406 0.0
H3364 H 0.97044 0.77843 0.17846 0.0
S3365 S 0.98239 0.68364 0.11347 0.0
N3366 N 1.00111 0.68396 0.14139 0.0
N3367 N 0.96708 0.71357 0.11254 0.0
C3368 C 0.97686 0.72526 0.1357 0.0
C3369 C 0.99544 0.70917 0.15142 0.0
C3370 C 0.77201 0.01579 0.13875 0.0
C3371 C 0.78397 0.01452 0.1649 0.0
C3372 C 0.75595 0.99431 0.1286 0.0
C3373 C 0.75071 0.97117 0.14452 0.0
H3374 H 0.77651 0.0327 0.12528 0.0
H3375 H 0.74892 0.99511 0.1077 0.0
S3376 S 0.7749 0.95855 0.21493 0.0
N3377 N 0.78786 0.9886 0.20691 0.0
N3378 N 0.75731 0.94863 0.188 0.0
C3379 C 0.76113 0.97029 0.17116 0.0
C3380 C 0.77782 0.99188 0.18134 0.0
C3381 C 0.54899 0.77563 0.18332 0.0
C3382 C 0.5441 0.7549 0.16397 0.0
C3383 C 0.52759 0.79052 0.19512 0.0
C3384 C 0.50035 0.78489 0.18849 0.0
H3385 H 0.56974 0.78139 0.18835 0.0
H3386 H 0.53244 0.80716 0.20884 0.0
S3387 S 0.47617 0.7333 0.13887 0.0
N3388 N 0.50973 0.73034 0.13832 0.0
N3389 N 0.46938 0.75705 0.16172 0.0
C3390 C 0.49498 0.76346 0.17019 0.0
C3391 C 0.51688 0.74874 0.15762 0.0
C3392 C 0.32464 0.74165 0.99581 0.0
C3393 C 0.33575 0.71802 0.00773 0.0
C3394 C 0.33987 0.7576 0.97747 0.0
C3395 C 0.36709 0.75125 0.97103 0.0
H3396 H 0.30354 0.74706 0.99944 0.0
H3397 H 0.32939 0.7735 0.96661 0.0
S3398 S 0.40627 0.6921 0.99686 0.0
N3399 N 0.37618 0.68931 0.01167 0.0
N3400 N 0.40471 0.72009 0.97831 0.0
C3401 C 0.37882 0.72845 0.98369 0.0
C3402 C 0.36325 0.71174 1.0018 0.0
C3403 C 0.37809 0.75521 0.51678 0.0
C3404 C 0.37098 0.76119 0.54377 0.0
C3405 C 0.36674 0.77016 0.49513 0.0
C3406 C 0.34785 0.7914 0.49986 0.0
H3407 H 0.3935 0.74002 0.51246 0.0
H3408 H 0.37379 0.76584 0.47467 0.0
S3409 S 0.32015 0.81208 0.56726 0.0
N3410 N 0.34223 0.78769 0.57418 0.0
N3411 N 0.32059 0.81537 0.53381 0.0
C3412 C 0.33918 0.79602 0.52681 0.0
C3413 C 0.35092 0.78106 0.5487 0.0
C3414 C 0.73738 0.38367 0.52283 0.0
C3415 C 0.75509 0.36832 0.53925 0.0
C3416 C 0.72116 0.37113 0.50295 0.0
C3417 C 0.72181 0.34276 0.49912 0.0
H3418 H 0.73525 0.40542 0.52614 0.0
H3419 H 0.7075 0.38362 0.49091 0.0
S3420 S 0.76282 0.29287 0.53782 0.0
N3421 N 0.77111 0.32278 0.55096 0.0
N3422 N 0.74081 0.29949 0.51327 0.0
C3423 C 0.73946 0.32711 0.51504 0.0
C3424 C 0.75608 0.33984 0.53524 0.0
C3425 C 0.16909 0.75893 0.53303 0.0
C3426 C 0.14103 0.75403 0.537 0.0
C3427 C 0.18453 0.74362 0.51442 0.0
C3428 C 0.17255 0.72225 0.49975 0.0
H3429 H 0.17988 0.77299 0.54596 0.0
H3430 H 0.20629 0.74718 0.51307 0.0
S3431 S 0.09932 0.7027 0.50059 0.0
N3432 N 0.10156 0.72779 0.52295 0.0
N3433 N 0.13041 0.69851 0.48835 0.0
C3434 C 0.14421 0.71806 0.50237 0.0
C3435 C 0.12851 0.73399 0.52096 0.0
C3436 C 0.78952 0.16257 0.55022 0.0
C3437 C 0.76402 0.15106 0.5432 0.0
C3438 C 0.804 0.17924 0.53221 0.0
C3439 C 0.79347 0.18576 0.50648 0.0
H3440 H 0.79882 0.15841 0.56979 0.0
H3441 H 0.82403 0.18643 0.5382 0.0
S3442 S 0.72714 0.16378 0.47894 0.0
N3443 N 0.72891 0.14838 0.50875 0.0
N3444 N 0.75533 0.18161 0.47563 0.0
C3445 C 0.76748 0.17595 0.49974 0.0
C3446 C 0.75301 0.15812 0.51784 0.0
C3447 C 0.15 0.78669 1.00397 0.0
C3448 C 0.17828 0.78492 0.00859 0.0
C3449 C 0.13723 0.77068 0.98402 0.0
C3450 C 0.15225 0.75241 0.96791 0.0
H3451 H 0.13776 0.80113 0.01536 0.0
H3452 H 0.11566 0.77361 0.98024 0.0
S3453 S 0.22709 0.74173 0.97055 0.0
N3454 N 0.22094 0.76368 0.99534 0.0
N3455 N 0.19718 0.73485 0.95662 0.0
C3456 C 0.18049 0.75024 0.97248 0.0
C3457 C 0.19343 0.76614 0.99322 0.0
C3458 C 0.75101 0.18273 0.96449 0.0
C3459 C 0.75384 0.15425 0.96592 0.0
C3460 C 0.73518 0.19717 0.98347 0.0
C3461 C 0.72043 0.1834 1.00381 0.0
H3462 H 0.75947 0.19371 0.94732 0.0
H3463 H 0.73291 0.219 0.98094 0.0
S3464 S 0.72118 0.1087 0.01644 0.0
N3465 N 0.74133 0.11282 0.98975 0.0
N3466 N 0.71064 0.13955 0.02497 0.0
C3467 C 0.72359 0.15488 0.00586 0.0
C3468 C 0.74035 0.14036 0.98691 0.0
C3469 C 0.7793 0.34731 0.96312 0.0
C3470 C 0.75819 0.36569 0.96981 0.0
C3471 C 0.79487 0.33444 0.98325 0.0
C3472 C 0.78964 0.33894 0.01098 0.0
H3473 H 0.78457 0.34361 0.942 0.0
H3474 H 0.8116 0.32142 0.97702 0.0
S3475 S 0.73581 0.38384 0.03946 0.0
N3476 N 0.73261 0.38719 0.00613 0.0
N3477 N 0.7608 0.36182 0.0442 0.0
C3478 C 0.76755 0.35595 0.01803 0.0
C3479 C 0.75207 0.36962 0.99739 0.0
loop_
_geom_bond_atom_site_label_1
_geom_bond_atom_site_label_2
_geom_bond_distance
_geom_bond_site_symmetry_2
_ccdc_geom_bond_type
Zn0 N4 2.020 . S
Zn0 O8 2.019 . S
Zn0 N10 2.119 . S
Zn0 O18 1.975 . S
C1 N2 1.334 . S
C1 N5 1.336 . S
N2 C1 1.334 . S
N2 C3 1.334 . S
C3 N2 1.334 . S
C3 N4 1.336 . S
N4 Zn0 2.020 . S
N4 C3 1.336 . S
N4 N5 1.354 . S
N5 C1 1.336 . S
N5 N4 1.354 . S
N5 Zn9 2.020 . S
C6 O7 1.244 . S
C6 O30 1.257 . S
O7 C6 1.244 . S
O8 Zn0 2.019 . S
O8 C28 1.257 . S
Zn9 N5 2.020 . S
Zn9 O16 1.975 . S
Zn9 N25 2.119 . S
Zn9 O30 2.019 . S
N10 Zn0 2.119 . S
N10 C12 1.334 . S
N10 C13 1.328 . S
C11 C12 1.391 . S
C11 N14 1.329 . S
C11 H32 0.930 . S
C12 N10 1.334 . S
C12 C11 1.391 . S
C12 H19 0.930 . S
C13 N10 1.328 . S
C13 C15 1.392 . S
C13 H20 0.930 . S
N14 C11 1.329 . S
N14 C15 1.331 . S
C15 C13 1.392 . S
C15 N14 1.331 . S
O16 Zn9 1.975 . S
O16 C17 1.252 . S
C17 O16 1.252 . S
C17 O18 1.252 . S
O18 Zn0 1.975 . S
O18 C17 1.252 . S
H19 C12 0.930 . S
H20 C13 0.930 . S
C21 C22 1.392 1_455 S
C21 N25 1.328 . S
C21 H27 0.930 1_455 S
C22 C21 1.392 1_655 S
C22 N26 1.333 1_655 S
C23 C24 1.391 . S
C23 N26 1.329 . S
C23 H33 0.930 . S
C24 C23 1.391 . S
C24 N25 1.334 . S
C24 H31 0.930 . S
N25 Zn9 2.119 . S
N25 C21 1.328 . S
N25 C24 1.334 . S
N26 C22 1.333 1_455 S
N26 C23 1.329 . S
H27 C21 0.930 1_655 S
C28 O8 1.257 . S
C28 O29 1.244 . S
O29 C28 1.244 . S
O30 C6 1.257 . S
O30 Zn9 2.019 . S
H31 C24 0.930 . S
H32 C11 0.930 . S
H33 C23 0.930 . S
Zn34 N38 2.020 . S
Zn34 O42 2.019 . S
Zn34 N44 2.119 . S
Zn34 O52 1.975 . S
C35 N36 1.334 . S
C35 N39 1.336 . S
N36 C35 1.334 . S
N36 C37 1.334 . S
C37 N36 1.334 . S
C37 N38 1.336 . S
N38 Zn34 2.020 . S
N38 C37 1.336 . S
N38 N39 1.354 . S
N39 C35 1.336 . S
N39 N38 1.354 . S
N39 Zn43 2.020 . S
C40 O41 1.244 . S
C40 O64 1.257 . S
O41 C40 1.244 . S
O42 Zn34 2.019 . S
O42 C62 1.257 . S
Zn43 N39 2.020 . S
Zn43 O50 1.975 . S
Zn43 N59 2.119 . S
Zn43 O64 2.019 . S
N44 Zn34 2.119 . S
N44 C46 1.334 . S
N44 C47 1.328 . S
C45 C46 1.391 . S
C45 N48 1.329 . S
C45 H66 0.930 . S
C46 N44 1.334 . S
C46 C45 1.391 . S
C46 H53 0.930 . S
C47 N44 1.328 . S
C47 C49 1.392 . S
C47 H54 0.930 . S
N48 C45 1.329 . S
N48 C49 1.331 . S
C49 C47 1.392 . S
C49 N48 1.331 . S
O50 Zn43 1.975 . S
O50 C51 1.252 . S
C51 O50 1.252 . S
C51 O52 1.252 . S
O52 Zn34 1.975 . S
O52 C51 1.252 . S
H53 C46 0.930 . S
H54 C47 0.930 . S
C55 C56 1.392 1_545 S
C55 N59 1.328 . S
C55 H61 0.930 1_545 S
C56 C55 1.392 1_565 S
C56 N60 1.333 1_565 S
C57 C58 1.391 . S
C57 N60 1.329 . S
C57 H67 0.930 . S
C58 C57 1.391 . S
C58 N59 1.334 . S
C58 H65 0.930 . S
N59 Zn43 2.119 . S
N59 C55 1.328 . S
N59 C58 1.334 . S
N60 C56 1.333 1_545 S
N60 C57 1.329 . S
H61 C55 0.930 1_565 S
C62 O42 1.257 . S
C62 O63 1.244 . S
O63 C62 1.244 . S
O64 C40 1.257 . S
O64 Zn43 2.019 . S
H65 C58 0.930 . S
H66 C45 0.930 . S
H67 C57 0.930 . S
Zn68 N72 2.020 . S
Zn68 O76 2.019 . S
Zn68 N78 2.119 . S
Zn68 O86 1.975 . S
C69 N70 1.334 . S
C69 N73 1.336 . S
N70 C69 1.334 . S
N70 C71 1.334 . S
C71 N70 1.334 . S
C71 N72 1.336 . S
N72 Zn68 2.020 . S
N72 C71 1.336 . S
N72 N73 1.354 . S
N73 C69 1.336 . S
N73 N72 1.354 . S
N73 Zn77 2.020 . S
C74 O75 1.244 . S
C74 O98 1.257 . S
O75 C74 1.244 . S
O76 Zn68 2.019 . S
O76 C96 1.257 . S
Zn77 N73 2.020 . S
Zn77 O84 1.975 . S
Zn77 N93 2.119 . S
Zn77 O98 2.019 . S
N78 Zn68 2.119 . S
N78 C80 1.334 . S
N78 C81 1.328 . S
C79 C80 1.391 . S
C79 N82 1.329 . S
C79 H100 0.930 . S
C80 N78 1.334 . S
C80 C79 1.391 . S
C80 H87 0.930 . S
C81 N78 1.328 . S
C81 C83 1.392 . S
C81 H88 0.930 . S
N82 C79 1.329 . S
N82 C83 1.331 . S
C83 C81 1.392 . S
C83 N82 1.331 . S
O84 Zn77 1.975 . S
O84 C85 1.252 . S
C85 O84 1.252 . S
C85 O86 1.252 . S
O86 Zn68 1.975 . S
O86 C85 1.252 . S
H87 C80 0.930 . S
H88 C81 0.930 . S
C89 C90 1.392 . S
C89 N93 1.328 . S
C89 H95 0.930 . S
C90 C89 1.392 . S
C90 N94 1.331 . S
C91 C92 1.391 . S
C91 N94 1.329 . S
C91 H101 0.930 . S
C92 C91 1.391 . S
C92 N93 1.334 . S
C92 H99 0.930 . S
N93 Zn77 2.119 . S
N93 C89 1.328 . S
N93 C92 1.334 . S
N94 C90 1.331 . S
N94 C91 1.329 . S
H95 C89 0.930 . S
C96 O76 1.257 . S
C96 O97 1.244 . S
O97 C96 1.244 . S
O98 C74 1.257 . S
O98 Zn77 2.019 . S
H99 C92 0.930 . S
H100 C79 0.930 . S
H101 C91 0.930 . S
Zn102 N106 2.020 . S
Zn102 O110 2.019 . S
Zn102 N112 2.119 . S
Zn102 O120 1.975 . S
C103 N104 1.334 . S
C103 N107 1.336 . S
N104 C103 1.334 . S
N104 C105 1.334 . S
C105 N104 1.334 . S
C105 N106 1.336 . S
N106 Zn102 2.020 . S
N106 C105 1.336 . S
N106 N107 1.354 . S
N107 C103 1.336 . S
N107 N106 1.354 . S
N107 Zn111 2.020 . S
C108 O109 1.244 . S
C108 O132 1.257 . S
O109 C108 1.244 . S
O110 Zn102 2.019 . S
O110 C130 1.257 . S
Zn111 N107 2.020 . S
Zn111 O118 1.975 . S
Zn111 N127 2.119 . S
Zn111 O132 2.019 . S
N112 Zn102 2.119 . S
N112 C114 1.334 . S
N112 C115 1.328 . S
C113 C114 1.391 . S
C113 N116 1.329 . S
C113 H134 0.930 . S
C114 N112 1.334 . S
C114 C113 1.391 . S
C114 H121 0.930 . S
C115 N112 1.328 . S
C115 C117 1.392 . S
C115 H122 0.930 . S
N116 C113 1.329 . S
N116 C117 1.331 . S
C117 C115 1.392 . S
C117 N116 1.331 . S
O118 Zn111 1.975 . S
O118 C119 1.252 . S
C119 O118 1.252 . S
C119 O120 1.252 . S
O120 Zn102 1.975 . S
O120 C119 1.252 . S
H121 C114 0.930 . S
H122 C115 0.930 . S
C123 C124 1.392 . S
C123 N127 1.328 . S
C123 H129 0.930 . S
C124 C123 1.392 . S
C124 N128 1.331 . S
C125 C126 1.391 . S
C125 N128 1.329 . S
C125 H135 0.930 . S
C126 C125 1.391 . S
C126 N127 1.334 . S
C126 H133 0.930 . S
N127 Zn111 2.119 . S
N127 C123 1.328 . S
N127 C126 1.334 . S
N128 C124 1.331 . S
N128 C125 1.329 . S
H129 C123 0.930 . S
C130 O110 1.257 . S
C130 O131 1.244 . S
O131 C130 1.244 . S
O132 C108 1.257 . S
O132 Zn111 2.019 . S
H133 C126 0.930 . S
H134 C113 0.930 . S
H135 C125 0.930 . S
Zn136 N140 2.020 . S
Zn136 O144 2.019 . S
Zn136 N146 2.119 . S
Zn136 O154 1.975 . S
C137 N138 1.334 . S
C137 N141 1.336 . S
N138 C137 1.334 . S
N138 C139 1.334 . S
C139 N138 1.334 . S
C139 N140 1.336 . S
N140 Zn136 2.020 . S
N140 C139 1.336 . S
N140 N141 1.354 . S
N141 C137 1.336 . S
N141 N140 1.354 . S
N141 Zn145 2.020 . S
C142 O143 1.244 . S
C142 O166 1.257 . S
O143 C142 1.244 . S
O144 Zn136 2.019 . S
O144 C164 1.257 . S
Zn145 N141 2.020 . S
Zn145 O152 1.975 . S
Zn145 N161 2.119 . S
Zn145 O166 2.019 . S
N146 Zn136 2.119 . S
N146 C148 1.334 . S
N146 C149 1.328 . S
C147 C148 1.391 . S
C147 N150 1.329 . S
C147 H168 0.930 . S
C148 N146 1.334 . S
C148 C147 1.391 . S
C148 H155 0.930 . S
C149 N146 1.328 . S
C149 C151 1.392 1_455 S
C149 H156 0.930 1_455 S
N150 C147 1.329 . S
N150 C151 1.333 1_455 S
C151 C149 1.392 1_655 S
C151 N150 1.333 1_655 S
O152 Zn145 1.975 . S
O152 C153 1.252 . S
C153 O152 1.252 . S
C153 O154 1.252 . S
O154 Zn136 1.975 . S
O154 C153 1.252 . S
H155 C148 0.930 . S
H156 C149 0.930 1_655 S
C157 C158 1.392 . S
C157 N161 1.328 . S
C157 H163 0.930 . S
C158 C157 1.392 . S
C158 N162 1.331 . S
C159 C160 1.391 . S
C159 N162 1.329 . S
C159 H169 0.930 . S
C160 C159 1.391 . S
C160 N161 1.334 . S
C160 H167 0.930 . S
N161 Zn145 2.119 . S
N161 C157 1.328 . S
N161 C160 1.334 . S
N162 C158 1.331 . S
N162 C159 1.329 . S
H163 C157 0.930 . S
C164 O144 1.257 . S
C164 O165 1.244 . S
O165 C164 1.244 . S
O166 C142 1.257 . S
O166 Zn145 2.019 . S
H167 C160 0.930 . S
H168 C147 0.930 . S
H169 C159 0.930 . S
Zn170 N174 2.020 . S
Zn170 O178 2.019 . S
Zn170 N180 2.119 . S
Zn170 O188 1.975 . S
C171 N172 1.334 . S
C171 N175 1.336 . S
N172 C171 1.334 . S
N172 C173 1.334 . S
C173 N172 1.334 . S
C173 N174 1.336 . S
N174 Zn170 2.020 . S
N174 C173 1.336 . S
N174 N175 1.354 . S
N175 C171 1.336 . S
N175 N174 1.354 . S
N175 Zn179 2.020 . S
C176 O177 1.244 . S
C176 O200 1.257 . S
O177 C176 1.244 . S
O178 Zn170 2.019 . S
O178 C198 1.257 . S
Zn179 N175 2.020 . S
Zn179 O186 1.975 . S
Zn179 N195 2.119 . S
Zn179 O200 2.019 . S
N180 Zn170 2.119 . S
N180 C182 1.334 . S
N180 C183 1.328 . S
C181 C182 1.391 . S
C181 N184 1.329 . S
C181 H202 0.930 . S
C182 N180 1.334 . S
C182 C181 1.391 . S
C182 H189 0.930 . S
C183 N180 1.328 . S
C183 C185 1.392 1_545 S
C183 H190 0.930 1_545 S
N184 C181 1.329 . S
N184 C185 1.333 1_545 S
C185 C183 1.392 1_565 S
C185 N184 1.333 1_565 S
O186 Zn179 1.975 . S
O186 C187 1.252 . S
C187 O186 1.252 . S
C187 O188 1.252 . S
O188 Zn170 1.975 . S
O188 C187 1.252 . S
H189 C182 0.930 . S
H190 C183 0.930 1_565 S
C191 C192 1.392 . S
C191 N195 1.328 . S
C191 H197 0.930 . S
C192 C191 1.392 . S
C192 N196 1.331 . S
C193 C194 1.391 . S
C193 N196 1.329 . S
C193 H203 0.930 . S
C194 C193 1.391 . S
C194 N195 1.334 . S
C194 H201 0.930 . S
N195 Zn179 2.119 . S
N195 C191 1.328 . S
N195 C194 1.334 . S
N196 C192 1.331 . S
N196 C193 1.329 . S
H197 C191 0.930 . S
C198 O178 1.257 . S
C198 O199 1.244 . S
O199 C198 1.244 . S
O200 C176 1.257 . S
O200 Zn179 2.019 . S
H201 C194 0.930 . S
H202 C181 0.930 . S
H203 C193 0.930 . S
Zn204 N208 2.020 . S
Zn204 O212 2.019 . S
Zn204 N214 2.119 . S
Zn204 O222 1.975 . S
C205 N206 1.334 . S
C205 N209 1.336 . S
N206 C205 1.334 . S
N206 C207 1.334 . S
C207 N206 1.334 . S
C207 N208 1.336 . S
N208 Zn204 2.020 . S
N208 C207 1.336 . S
N208 N209 1.354 . S
N209 C205 1.336 . S
N209 N208 1.354 . S
N209 Zn213 2.020 . S
C210 O211 1.244 . S
C210 O234 1.257 . S
O211 C210 1.244 . S
O212 Zn204 2.019 . S
O212 C232 1.257 . S
Zn213 N209 2.020 . S
Zn213 O220 1.975 . S
Zn213 N229 2.119 . S
Zn213 O234 2.019 . S
N214 Zn204 2.119 . S
N214 C216 1.334 . S
N214 C217 1.328 . S
C215 C216 1.391 . S
C215 N218 1.329 . S
C215 H236 0.930 . S
C216 N214 1.334 . S
C216 C215 1.391 . S
C216 H223 0.930 . S
C217 N214 1.328 . S
C217 C219 1.392 . S
C217 H224 0.930 . S
N218 C215 1.329 . S
N218 C219 1.331 . S
C219 C217 1.392 . S
C219 N218 1.331 . S
O220 Zn213 1.975 . S
O220 C221 1.252 . S
C221 O220 1.252 . S
C221 O222 1.252 . S
O222 Zn204 1.975 . S
O222 C221 1.252 . S
H223 C216 0.930 . S
H224 C217 0.930 . S
C225 C226 1.392 . S
C225 N229 1.328 . S
C225 H231 0.930 . S
C226 C225 1.392 . S
C226 N230 1.331 . S
C227 C228 1.391 . S
C227 N230 1.329 . S
C227 H237 0.930 . S
C228 C227 1.391 . S
C228 N229 1.334 . S
C228 H235 0.930 . S
N229 Zn213 2.119 . S
N229 C225 1.328 . S
N229 C228 1.334 . S
N230 C226 1.331 . S
N230 C227 1.329 . S
H231 C225 0.930 . S
C232 O212 1.257 . S
C232 O233 1.244 . S
O233 C232 1.244 . S
O234 C210 1.257 . S
O234 Zn213 2.019 . S
H235 C228 0.930 . S
H236 C215 0.930 . S
H237 C227 0.930 . S
Zn238 N242 2.020 . S
Zn238 O246 2.019 . S
Zn238 N248 2.119 . S
Zn238 O256 1.975 . S
C239 N240 1.334 . S
C239 N243 1.336 . S
N240 C239 1.334 . S
N240 C241 1.334 . S
C241 N240 1.334 . S
C241 N242 1.336 . S
N242 Zn238 2.020 . S
N242 C241 1.336 . S
N242 N243 1.354 . S
N243 C239 1.336 . S
N243 N242 1.354 . S
N243 Zn247 2.020 . S
C244 O245 1.244 . S
C244 O268 1.257 . S
O245 C244 1.244 . S
O246 Zn238 2.019 . S
O246 C266 1.257 . S
Zn247 N243 2.020 . S
Zn247 O254 1.975 . S
Zn247 N263 2.119 . S
Zn247 O268 2.019 . S
N248 Zn238 2.119 . S
N248 C250 1.334 . S
N248 C251 1.328 . S
C249 C250 1.391 . S
C249 N252 1.329 . S
C249 H270 0.930 . S
C250 N248 1.334 . S
C250 C249 1.391 . S
C250 H257 0.930 . S
C251 N248 1.328 . S
C251 C253 1.392 . S
C251 H258 0.930 . S
N252 C249 1.329 . S
N252 C253 1.331 . S
C253 C251 1.392 . S
C253 N252 1.331 . S
O254 Zn247 1.975 . S
O254 C255 1.252 . S
C255 O254 1.252 . S
C255 O256 1.252 . S
O256 Zn238 1.975 . S
O256 C255 1.252 . S
H257 C250 0.930 . S
H258 C251 0.930 . S
C259 C260 1.392 . S
C259 N263 1.328 . S
C259 H265 0.930 . S
C260 C259 1.392 . S
C260 N264 1.331 . S
C261 C262 1.391 . S
C261 N264 1.329 . S
C261 H271 0.930 . S
C262 C261 1.391 . S
C262 N263 1.334 . S
C262 H269 0.930 . S
N263 Zn247 2.119 . S
N263 C259 1.328 . S
N263 C262 1.334 . S
N264 C260 1.331 . S
N264 C261 1.329 . S
H265 C259 0.930 . S
C266 O246 1.257 . S
C266 O267 1.244 . S
O267 C266 1.244 . S
O268 C244 1.257 . S
O268 Zn247 2.019 . S
H269 C262 0.930 . S
H270 C249 0.930 . S
H271 C261 0.930 . S
Zn272 N276 2.020 . S
Zn272 O280 2.019 . S
Zn272 N282 2.119 . S
Zn272 O290 1.975 . S
C273 N274 1.334 . S
C273 N277 1.336 . S
N274 C273 1.334 . S
N274 C275 1.334 . S
C275 N274 1.334 . S
C275 N276 1.336 . S
N276 Zn272 2.020 . S
N276 C275 1.336 . S
N276 N277 1.354 . S
N277 C273 1.336 . S
N277 N276 1.354 . S
N277 Zn281 2.020 . S
C278 O279 1.244 . S
C278 O302 1.257 . S
O279 C278 1.244 . S
O280 Zn272 2.019 . S
O280 C300 1.257 . S
Zn281 N277 2.020 . S
Zn281 O288 1.975 . S
Zn281 N297 2.119 . S
Zn281 O302 2.019 . S
N282 Zn272 2.119 . S
N282 C284 1.334 . S
N282 C285 1.328 . S
C283 C284 1.391 . S
C283 N286 1.329 . S
C283 H304 0.930 . S
C284 N282 1.334 . S
C284 C283 1.391 . S
C284 H291 0.930 . S
C285 N282 1.328 . S
C285 C287 1.392 1_545 S
C285 H292 0.930 1_545 S
N286 C283 1.329 . S
N286 C287 1.333 1_545 S
C287 C285 1.392 1_565 S
C287 N286 1.333 1_565 S
O288 Zn281 1.975 . S
O288 C289 1.252 . S
C289 O288 1.252 . S
C289 O290 1.252 . S
O290 Zn272 1.975 . S
O290 C289 1.252 . S
H291 C284 0.930 . S
H292 C285 0.930 1_565 S
C293 C294 1.392 . S
C293 N297 1.328 . S
C293 H299 0.930 . S
C294 C293 1.392 . S
C294 N298 1.331 . S
C295 C296 1.391 . S
C295 N298 1.329 . S
C295 H305 0.930 . S
C296 C295 1.391 . S
C296 N297 1.334 . S
C296 H303 0.930 . S
N297 Zn281 2.119 . S
N297 C293 1.328 . S
N297 C296 1.334 . S
N298 C294 1.331 . S
N298 C295 1.329 . S
H299 C293 0.930 . S
C300 O280 1.257 . S
C300 O301 1.244 . S
O301 C300 1.244 . S
O302 C278 1.257 . S
O302 Zn281 2.019 . S
H303 C296 0.930 . S
H304 C283 0.930 . S
H305 C295 0.930 . S
Zn306 N310 2.020 . S
Zn306 O314 2.019 . S
Zn306 N316 2.119 . S
Zn306 O324 1.975 . S
C307 N308 1.334 . S
C307 N311 1.336 . S
N308 C307 1.334 . S
N308 C309 1.334 . S
C309 N308 1.334 . S
C309 N310 1.336 . S
N310 Zn306 2.020 . S
N310 C309 1.336 . S
N310 N311 1.354 . S
N311 C307 1.336 . S
N311 N310 1.354 . S
N311 Zn315 2.020 . S
C312 O313 1.244 . S
C312 O336 1.257 . S
O313 C312 1.244 . S
O314 Zn306 2.019 . S
O314 C334 1.257 . S
Zn315 N311 2.020 . S
Zn315 O322 1.975 . S
Zn315 N331 2.119 . S
Zn315 O336 2.019 . S
N316 Zn306 2.119 . S
N316 C318 1.334 . S
N316 C319 1.328 . S
C317 C318 1.391 . S
C317 N320 1.329 . S
C317 H338 0.930 . S
C318 N316 1.334 . S
C318 C317 1.391 . S
C318 H325 0.930 . S
C319 N316 1.328 . S
C319 C321 1.392 . S
C319 H326 0.930 . S
N320 C317 1.329 . S
N320 C321 1.331 . S
C321 C319 1.392 . S
C321 N320 1.331 . S
O322 Zn315 1.975 . S
O322 C323 1.252 . S
C323 O322 1.252 . S
C323 O324 1.252 . S
O324 Zn306 1.975 . S
O324 C323 1.252 . S
H325 C318 0.930 . S
H326 C319 0.930 . S
C327 C328 1.392 . S
C327 N331 1.328 . S
C327 H333 0.930 . S
C328 C327 1.392 . S
C328 N332 1.331 . S
C329 C330 1.391 . S
C329 N332 1.329 . S
C329 H339 0.930 . S
C330 C329 1.391 . S
C330 N331 1.334 . S
C330 H337 0.930 . S
N331 Zn315 2.119 . S
N331 C327 1.328 . S
N331 C330 1.334 . S
N332 C328 1.331 . S
N332 C329 1.329 . S
H333 C327 0.930 . S
C334 O314 1.257 . S
C334 O335 1.244 . S
O335 C334 1.244 . S
O336 C312 1.257 . S
O336 Zn315 2.019 . S
H337 C330 0.930 . S
H338 C317 0.930 . S
H339 C329 0.930 . S
Zn340 N344 2.020 . S
Zn340 O348 2.019 . S
Zn340 N350 2.119 . S
Zn340 O358 1.975 . S
C341 N342 1.334 . S
C341 N345 1.336 . S
N342 C341 1.334 . S
N342 C343 1.334 . S
C343 N342 1.334 . S
C343 N344 1.336 . S
N344 Zn340 2.020 . S
N344 C343 1.336 . S
N344 N345 1.354 . S
N345 C341 1.336 . S
N345 N344 1.354 . S
N345 Zn349 2.020 . S
C346 O347 1.244 . S
C346 O370 1.257 . S
O347 C346 1.244 . S
O348 Zn340 2.019 . S
O348 C368 1.257 . S
Zn349 N345 2.020 . S
Zn349 O356 1.975 . S
Zn349 N365 2.119 . S
Zn349 O370 2.019 . S
N350 Zn340 2.119 . S
N350 C352 1.334 . S
N350 C353 1.328 . S
C351 C352 1.391 . S
C351 N354 1.329 . S
C351 H372 0.930 . S
C352 N350 1.334 . S
C352 C351 1.391 . S
C352 H359 0.930 . S
C353 N350 1.328 . S
C353 C355 1.392 . S
C353 H360 0.930 . S
N354 C351 1.329 . S
N354 C355 1.331 . S
C355 C353 1.392 . S
C355 N354 1.331 . S
O356 Zn349 1.975 . S
O356 C357 1.252 . S
C357 O356 1.252 . S
C357 O358 1.252 . S
O358 Zn340 1.975 . S
O358 C357 1.252 . S
H359 C352 0.930 . S
H360 C353 0.930 . S
C361 C362 1.392 . S
C361 N365 1.328 . S
C361 H367 0.930 . S
C362 C361 1.392 . S
C362 N366 1.331 . S
C363 C364 1.391 . S
C363 N366 1.329 . S
C363 H373 0.930 . S
C364 C363 1.391 . S
C364 N365 1.334 . S
C364 H371 0.930 . S
N365 Zn349 2.119 . S
N365 C361 1.328 . S
N365 C364 1.334 . S
N366 C362 1.331 . S
N366 C363 1.329 . S
H367 C361 0.930 . S
C368 O348 1.257 . S
C368 O369 1.244 . S
O369 C368 1.244 . S
O370 C346 1.257 . S
O370 Zn349 2.019 . S
H371 C364 0.930 . S
H372 C351 0.930 . S
H373 C363 0.930 . S
Zn374 N378 2.020 . S
Zn374 O382 2.019 . S
Zn374 N384 2.119 . S
Zn374 O392 1.975 . S
C375 N376 1.334 . S
C375 N379 1.336 . S
N376 C375 1.334 . S
N376 C377 1.334 . S
C377 N376 1.334 . S
C377 N378 1.336 . S
N378 Zn374 2.020 . S
N378 C377 1.336 . S
N378 N379 1.354 . S
N379 C375 1.336 . S
N379 N378 1.354 . S
N379 Zn383 2.020 . S
C380 O381 1.244 . S
C380 O404 1.257 . S
O381 C380 1.244 . S
O382 Zn374 2.019 . S
O382 C402 1.257 . S
Zn383 N379 2.020 . S
Zn383 O390 1.975 . S
Zn383 N399 2.119 . S
Zn383 O404 2.019 . S
N384 Zn374 2.119 . S
N384 C386 1.334 . S
N384 C387 1.328 . S
C385 C386 1.391 . S
C385 N388 1.329 . S
C385 H406 0.930 . S
C386 N384 1.334 . S
C386 C385 1.391 . S
C386 H393 0.930 . S
C387 N384 1.328 . S
C387 C389 1.392 1_455 S
C387 H394 0.930 1_455 S
N388 C385 1.329 . S
N388 C389 1.333 1_455 S
C389 C387 1.392 1_655 S
C389 N388 1.333 1_655 S
O390 Zn383 1.975 . S
O390 C391 1.252 . S
C391 O390 1.252 . S
C391 O392 1.252 . S
O392 Zn374 1.975 . S
O392 C391 1.252 . S
H393 C386 0.930 . S
H394 C387 0.930 1_655 S
C395 C396 1.392 . S
C395 N399 1.328 . S
C395 H401 0.930 . S
C396 C395 1.392 . S
C396 N400 1.331 . S
C397 C398 1.391 . S
C397 N400 1.329 . S
C397 H407 0.930 . S
C398 C397 1.391 . S
C398 N399 1.334 . S
C398 H405 0.930 . S
N399 Zn383 2.119 . S
N399 C395 1.328 . S
N399 C398 1.334 . S
N400 C396 1.331 . S
N400 C397 1.329 . S
H401 C395 0.930 . S
C402 O382 1.257 . S
C402 O403 1.244 . S
O403 C402 1.244 . S
O404 C380 1.257 . S
O404 Zn383 2.019 . S
H405 C398 0.930 . S
H406 C385 0.930 . S
H407 C397 0.930 . S
Zn408 N412 2.020 . S
Zn408 O416 2.019 . S
Zn408 N418 2.119 . S
Zn408 O426 1.975 . S
C409 N410 1.334 . S
C409 N413 1.336 . S
N410 C409 1.334 . S
N410 C411 1.334 . S
C411 N410 1.334 . S
C411 N412 1.336 . S
N412 Zn408 2.020 . S
N412 C411 1.336 . S
N412 N413 1.354 . S
N413 C409 1.336 . S
N413 N412 1.354 . S
N413 Zn417 2.020 . S
C414 O415 1.244 . S
C414 O438 1.257 . S
O415 C414 1.244 . S
O416 Zn408 2.019 . S
O416 C436 1.257 . S
Zn417 N413 2.020 . S
Zn417 O424 1.975 . S
Zn417 N433 2.119 . S
Zn417 O438 2.019 . S
N418 Zn408 2.119 . S
N418 C420 1.334 . S
N418 C421 1.328 . S
C419 C420 1.391 . S
C419 N422 1.329 . S
C419 H440 0.930 . S
C420 N418 1.334 . S
C420 C419 1.391 . S
C420 H427 0.930 . S
C421 N418 1.328 . S
C421 C423 1.392 . S
C421 H428 0.930 . S
N422 C419 1.329 . S
N422 C423 1.331 . S
C423 C421 1.392 . S
C423 N422 1.331 . S
O424 Zn417 1.975 . S
O424 C425 1.252 . S
C425 O424 1.252 . S
C425 O426 1.252 . S
O426 Zn408 1.975 . S
O426 C425 1.252 . S
H427 C420 0.930 . S
H428 C421 0.930 . S
C429 C430 1.392 . S
C429 N433 1.328 . S
C429 H435 0.930 . S
C430 C429 1.392 . S
C430 N434 1.331 . S
C431 C432 1.391 . S
C431 N434 1.329 . S
C431 H441 0.930 . S
C432 C431 1.391 . S
C432 N433 1.334 . S
C432 H439 0.930 . S
N433 Zn417 2.119 . S
N433 C429 1.328 . S
N433 C432 1.334 . S
N434 C430 1.331 . S
N434 C431 1.329 . S
H435 C429 0.930 . S
C436 O416 1.257 . S
C436 O437 1.244 . S
O437 C436 1.244 . S
O438 C414 1.257 . S
O438 Zn417 2.019 . S
H439 C432 0.930 . S
H440 C419 0.930 . S
H441 C431 0.930 . S
Zn442 N446 2.020 . S
Zn442 O450 2.019 . S
Zn442 N452 2.119 . S
Zn442 O460 1.975 . S
C443 N444 1.334 . S
C443 N447 1.336 . S
N444 C443 1.334 . S
N444 C445 1.334 . S
C445 N444 1.334 . S
C445 N446 1.336 . S
N446 Zn442 2.020 . S
N446 C445 1.336 . S
N446 N447 1.354 . S
N447 C443 1.336 . S
N447 N446 1.354 . S
N447 Zn451 2.020 . S
C448 O449 1.244 . S
C448 O472 1.257 . S
O449 C448 1.244 . S
O450 Zn442 2.019 . S
O450 C470 1.257 . S
Zn451 N447 2.020 . S
Zn451 O458 1.975 . S
Zn451 N467 2.119 . S
Zn451 O472 2.019 . S
N452 Zn442 2.119 . S
N452 C454 1.334 . S
N452 C455 1.328 . S
C453 C454 1.391 . S
C453 N456 1.329 . S
C453 H474 0.930 . S
C454 N452 1.334 . S
C454 C453 1.391 . S
C454 H461 0.930 . S
C455 N452 1.328 . S
C455 C457 1.392 . S
C455 H462 0.930 . S
N456 C453 1.329 . S
N456 C457 1.331 . S
C457 C455 1.392 . S
C457 N456 1.331 . S
O458 Zn451 1.975 . S
O458 C459 1.252 . S
C459 O458 1.252 . S
C459 O460 1.252 . S
O460 Zn442 1.975 . S
O460 C459 1.252 . S
H461 C454 0.930 . S
H462 C455 0.930 . S
C463 C464 1.392 1_455 S
C463 N467 1.328 . S
C463 H469 0.930 1_455 S
C464 C463 1.392 1_655 S
C464 N468 1.333 1_655 S
C465 C466 1.391 . S
C465 N468 1.329 . S
C465 H475 0.930 . S
C466 C465 1.391 . S
C466 N467 1.334 . S
C466 H473 0.930 . S
N467 Zn451 2.119 . S
N467 C463 1.328 . S
N467 C466 1.334 . S
N468 C464 1.333 1_455 S
N468 C465 1.329 . S
H469 C463 0.930 1_655 S
C470 O450 1.257 . S
C470 O471 1.244 . S
O471 C470 1.244 . S
O472 C448 1.257 . S
O472 Zn451 2.019 . S
H473 C466 0.930 . S
H474 C453 0.930 . S
H475 C465 0.930 . S
Zn476 N480 2.020 . S
Zn476 O484 2.019 . S
Zn476 N486 2.119 . S
Zn476 O494 1.975 . S
C477 N478 1.334 . S
C477 N481 1.336 . S
N478 C477 1.334 . S
N478 C479 1.334 . S
C479 N478 1.334 . S
C479 N480 1.336 . S
N480 Zn476 2.020 . S
N480 C479 1.336 . S
N480 N481 1.354 . S
N481 C477 1.336 . S
N481 N480 1.354 . S
N481 Zn485 2.020 . S
C482 O483 1.244 . S
C482 O506 1.257 . S
O483 C482 1.244 . S
O484 Zn476 2.019 . S
O484 C504 1.257 . S
Zn485 N481 2.020 . S
Zn485 O492 1.975 . S
Zn485 N501 2.119 . S
Zn485 O506 2.019 . S
N486 Zn476 2.119 . S
N486 C488 1.334 . S
N486 C489 1.328 . S
C487 C488 1.391 . S
C487 N490 1.329 . S
C487 H508 0.930 . S
C488 N486 1.334 . S
C488 C487 1.391 . S
C488 H495 0.930 . S
C489 N486 1.328 . S
C489 C491 1.392 1_545 S
C489 H496 0.930 1_545 S
N490 C487 1.329 . S
N490 C491 1.333 1_545 S
C491 C489 1.392 1_565 S
C491 N490 1.333 1_565 S
O492 Zn485 1.975 . S
O492 C493 1.252 . S
C493 O492 1.252 . S
C493 O494 1.252 . S
O494 Zn476 1.975 . S
O494 C493 1.252 . S
H495 C488 0.930 . S
H496 C489 0.930 1_565 S
C497 C498 1.392 . S
C497 N501 1.328 . S
C497 H503 0.930 . S
C498 C497 1.392 . S
C498 N502 1.331 . S
C499 C500 1.391 . S
C499 N502 1.329 . S
C499 H509 0.930 . S
C500 C499 1.391 . S
C500 N501 1.334 . S
C500 H507 0.930 . S
N501 Zn485 2.119 . S
N501 C497 1.328 . S
N501 C500 1.334 . S
N502 C498 1.331 . S
N502 C499 1.329 . S
H503 C497 0.930 . S
C504 O484 1.257 . S
C504 O505 1.244 . S
O505 C504 1.244 . S
O506 C482 1.257 . S
O506 Zn485 2.019 . S
H507 C500 0.930 . S
H508 C487 0.930 . S
H509 C499 0.930 . S
Zn510 N514 2.020 . S
Zn510 O518 2.019 . S
Zn510 N520 2.119 . S
Zn510 O528 1.975 . S
C511 N512 1.334 . S
C511 N515 1.336 . S
N512 C511 1.334 . S
N512 C513 1.334 . S
C513 N512 1.334 . S
C513 N514 1.336 . S
N514 Zn510 2.020 . S
N514 C513 1.336 . S
N514 N515 1.354 . S
N515 C511 1.336 . S
N515 N514 1.354 . S
N515 Zn519 2.020 . S
C516 O517 1.244 . S
C516 O540 1.257 . S
O517 C516 1.244 . S
O518 Zn510 2.019 . S
O518 C538 1.257 . S
Zn519 N515 2.020 . S
Zn519 O526 1.975 . S
Zn519 N535 2.119 . S
Zn519 O540 2.019 . S
N520 Zn510 2.119 . S
N520 C522 1.334 . S
N520 C523 1.328 . S
C521 C522 1.391 . S
C521 N524 1.329 . S
C521 H542 0.930 . S
C522 N520 1.334 . S
C522 C521 1.391 . S
C522 H529 0.930 . S
C523 N520 1.328 . S
C523 C525 1.392 . S
C523 H530 0.930 . S
N524 C521 1.329 . S
N524 C525 1.331 . S
C525 C523 1.392 . S
C525 N524 1.331 . S
O526 Zn519 1.975 . S
O526 C527 1.252 . S
C527 O526 1.252 . S
C527 O528 1.252 . S
O528 Zn510 1.975 . S
O528 C527 1.252 . S
H529 C522 0.930 . S
H530 C523 0.930 . S
C531 C532 1.392 . S
C531 N535 1.328 . S
C531 H537 0.930 . S
C532 C531 1.392 . S
C532 N536 1.331 . S
C533 C534 1.391 . S
C533 N536 1.329 . S
C533 H543 0.930 . S
C534 C533 1.391 . S
C534 N535 1.334 . S
C534 H541 0.930 . S
N535 Zn519 2.119 . S
N535 C531 1.328 . S
N535 C534 1.334 . S
N536 C532 1.331 . S
N536 C533 1.329 . S
H537 C531 0.930 . S
C538 O518 1.257 . S
C538 O539 1.244 . S
O539 C538 1.244 . S
O540 C516 1.257 . S
O540 Zn519 2.019 . S
H541 C534 0.930 . S
H542 C521 0.930 . S
H543 C533 0.930 . S
Zn544 N548 2.020 . S
Zn544 O552 2.019 . S
Zn544 N554 2.119 . S
Zn544 O562 1.975 . S
C545 N546 1.334 . S
C545 N549 1.336 . S
N546 C545 1.334 . S
N546 C547 1.334 . S
C547 N546 1.334 . S
C547 N548 1.336 . S
N548 Zn544 2.020 . S
N548 C547 1.336 . S
N548 N549 1.354 . S
N549 C545 1.336 . S
N549 N548 1.354 . S
N549 Zn553 2.020 . S
C550 O551 1.244 . S
C550 O574 1.257 . S
O551 C550 1.244 . S
O552 Zn544 2.019 . S
O552 C572 1.257 . S
Zn553 N549 2.020 . S
Zn553 O560 1.975 . S
Zn553 N569 2.119 . S
Zn553 O574 2.019 . S
N554 Zn544 2.119 . S
N554 C556 1.334 . S
N554 C557 1.328 . S
C555 C556 1.391 . S
C555 N558 1.329 . S
C555 H576 0.930 . S
C556 N554 1.334 . S
C556 C555 1.391 . S
C556 H563 0.930 . S
C557 N554 1.328 . S
C557 C559 1.392 1_554 S
C557 H564 0.930 1_554 S
N558 C555 1.329 . S
N558 C559 1.333 1_554 S
C559 C557 1.392 1_556 S
C559 N558 1.333 1_556 S
O560 Zn553 1.975 . S
O560 C561 1.252 . S
C561 O560 1.252 . S
C561 O562 1.252 . S
O562 Zn544 1.975 . S
O562 C561 1.252 . S
H563 C556 0.930 . S
H564 C557 0.930 1_556 S
C565 C566 1.392 . S
C565 N569 1.328 . S
C565 H571 0.930 . S
C566 C565 1.392 . S
C566 N570 1.331 . S
C567 C568 1.391 . S
C567 N570 1.329 . S
C567 H577 0.930 . S
C568 C567 1.391 . S
C568 N569 1.334 . S
C568 H575 0.930 . S
N569 Zn553 2.119 . S
N569 C565 1.328 . S
N569 C568 1.334 . S
N570 C566 1.331 . S
N570 C567 1.329 . S
H571 C565 0.930 . S
C572 O552 1.257 . S
C572 O573 1.244 . S
O573 C572 1.244 . S
O574 C550 1.257 . S
O574 Zn553 2.019 . S
H575 C568 0.930 . S
H576 C555 0.930 . S
H577 C567 0.930 . S
Zn578 N582 2.020 . S
Zn578 O586 2.019 . S
Zn578 N588 2.119 . S
Zn578 O596 1.975 . S
C579 N580 1.334 . S
C579 N583 1.336 . S
N580 C579 1.334 . S
N580 C581 1.334 . S
C581 N580 1.334 . S
C581 N582 1.336 . S
N582 Zn578 2.020 . S
N582 C581 1.336 . S
N582 N583 1.354 . S
N583 C579 1.336 . S
N583 N582 1.354 . S
N583 Zn587 2.020 . S
C584 O585 1.244 . S
C584 O608 1.257 . S
O585 C584 1.244 . S
O586 Zn578 2.019 . S
O586 C606 1.257 . S
Zn587 N583 2.020 . S
Zn587 O594 1.975 . S
Zn587 N603 2.119 . S
Zn587 O608 2.019 . S
N588 Zn578 2.119 . S
N588 C590 1.334 . S
N588 C591 1.328 . S
C589 C590 1.391 . S
C589 N592 1.329 . S
C589 H610 0.930 . S
C590 N588 1.334 . S
C590 C589 1.391 . S
C590 H597 0.930 . S
C591 N588 1.328 . S
C591 C593 1.392 . S
C591 H598 0.930 . S
N592 C589 1.329 . S
N592 C593 1.331 . S
C593 C591 1.392 . S
C593 N592 1.331 . S
O594 Zn587 1.975 . S
O594 C595 1.252 . S
C595 O594 1.252 . S
C595 O596 1.252 . S
O596 Zn578 1.975 . S
O596 C595 1.252 . S
H597 C590 0.930 . S
H598 C591 0.930 . S
C599 C600 1.392 . S
C599 N603 1.328 . S
C599 H605 0.930 . S
C600 C599 1.392 . S
C600 N604 1.331 . S
C601 C602 1.391 . S
C601 N604 1.329 . S
C601 H611 0.930 . S
C602 C601 1.391 . S
C602 N603 1.334 . S
C602 H609 0.930 . S
N603 Zn587 2.119 . S
N603 C599 1.328 . S
N603 C602 1.334 . S
N604 C600 1.331 . S
N604 C601 1.329 . S
H605 C599 0.930 . S
C606 O586 1.257 . S
C606 O607 1.244 . S
O607 C606 1.244 . S
O608 C584 1.257 . S
O608 Zn587 2.019 . S
H609 C602 0.930 . S
H610 C589 0.930 . S
H611 C601 0.930 . S
Zn612 N616 2.020 . S
Zn612 O620 2.019 . S
Zn612 N622 2.119 . S
Zn612 O630 1.975 . S
C613 N614 1.334 . S
C613 N617 1.336 . S
N614 C613 1.334 . S
N614 C615 1.334 . S
C615 N614 1.334 . S
C615 N616 1.336 . S
N616 Zn612 2.020 . S
N616 C615 1.336 . S
N616 N617 1.354 . S
N617 C613 1.336 . S
N617 N616 1.354 . S
N617 Zn621 2.020 . S
C618 O619 1.244 . S
C618 O642 1.257 . S
O619 C618 1.244 . S
O620 Zn612 2.019 . S
O620 C640 1.257 . S
Zn621 N617 2.020 . S
Zn621 O628 1.975 . S
Zn621 N637 2.119 . S
Zn621 O642 2.019 . S
N622 Zn612 2.119 . S
N622 C624 1.334 . S
N622 C625 1.328 . S
C623 C624 1.391 . S
C623 N626 1.329 . S
C623 H644 0.930 . S
C624 N622 1.334 . S
C624 C623 1.391 . S
C624 H631 0.930 . S
C625 N622 1.328 . S
C625 C627 1.392 . S
C625 H632 0.930 . S
N626 C623 1.329 . S
N626 C627 1.331 . S
C627 C625 1.392 . S
C627 N626 1.331 . S
O628 Zn621 1.975 . S
O628 C629 1.252 . S
C629 O628 1.252 . S
C629 O630 1.252 . S
O630 Zn612 1.975 . S
O630 C629 1.252 . S
H631 C624 0.930 . S
H632 C625 0.930 . S
C633 C634 1.392 . S
C633 N637 1.328 . S
C633 H639 0.930 . S
C634 C633 1.392 . S
C634 N638 1.331 . S
C635 C636 1.391 . S
C635 N638 1.329 . S
C635 H645 0.930 . S
C636 C635 1.391 . S
C636 N637 1.334 . S
C636 H643 0.930 . S
N637 Zn621 2.119 . S
N637 C633 1.328 . S
N637 C636 1.334 . S
N638 C634 1.331 . S
N638 C635 1.329 . S
H639 C633 0.930 . S
C640 O620 1.257 . S
C640 O641 1.244 . S
O641 C640 1.244 . S
O642 C618 1.257 . S
O642 Zn621 2.019 . S
H643 C636 0.930 . S
H644 C623 0.930 . S
H645 C635 0.930 . S
Zn646 N650 2.020 . S
Zn646 O654 2.019 . S
Zn646 N656 2.119 . S
Zn646 O664 1.975 . S
C647 N648 1.334 . S
C647 N651 1.336 . S
N648 C647 1.334 . S
N648 C649 1.334 . S
C649 N648 1.334 . S
C649 N650 1.336 . S
N650 Zn646 2.020 . S
N650 C649 1.336 . S
N650 N651 1.354 . S
N651 C647 1.336 . S
N651 N650 1.354 . S
N651 Zn655 2.020 . S
C652 O653 1.244 . S
C652 O676 1.257 . S
O653 C652 1.244 . S
O654 Zn646 2.019 . S
O654 C674 1.257 . S
Zn655 N651 2.020 . S
Zn655 O662 1.975 . S
Zn655 N671 2.119 . S
Zn655 O676 2.019 . S
N656 Zn646 2.119 . S
N656 C658 1.334 . S
N656 C659 1.328 . S
C657 C658 1.391 . S
C657 N660 1.329 . S
C657 H678 0.930 . S
C658 N656 1.334 . S
C658 C657 1.391 . S
C658 H665 0.930 . S
C659 N656 1.328 . S
C659 C661 1.392 . S
C659 H666 0.930 . S
N660 C657 1.329 . S
N660 C661 1.331 . S
C661 C659 1.392 . S
C661 N660 1.331 . S
O662 Zn655 1.975 . S
O662 C663 1.252 . S
C663 O662 1.252 . S
C663 O664 1.252 . S
O664 Zn646 1.975 . S
O664 C663 1.252 . S
H665 C658 0.930 . S
H666 C659 0.930 . S
C667 C668 1.392 . S
C667 N671 1.328 . S
C667 H673 0.930 . S
C668 C667 1.392 . S
C668 N672 1.331 . S
C669 C670 1.391 . S
C669 N672 1.329 . S
C669 H679 0.930 . S
C670 C669 1.391 . S
C670 N671 1.334 . S
C670 H677 0.930 . S
N671 Zn655 2.119 . S
N671 C667 1.328 . S
N671 C670 1.334 . S
N672 C668 1.331 . S
N672 C669 1.329 . S
H673 C667 0.930 . S
C674 O654 1.257 . S
C674 O675 1.244 . S
O675 C674 1.244 . S
O676 C652 1.257 . S
O676 Zn655 2.019 . S
H677 C670 0.930 . S
H678 C657 0.930 . S
H679 C669 0.930 . S
Zn680 N684 2.020 . S
Zn680 O688 2.019 . S
Zn680 N690 2.119 . S
Zn680 O698 1.975 . S
C681 N682 1.334 . S
C681 N685 1.336 . S
N682 C681 1.334 . S
N682 C683 1.334 . S
C683 N682 1.334 . S
C683 N684 1.336 . S
N684 Zn680 2.020 . S
N684 C683 1.336 . S
N684 N685 1.354 . S
N685 C681 1.336 . S
N685 N684 1.354 . S
N685 Zn689 2.020 . S
C686 O687 1.244 . S
C686 O710 1.257 . S
O687 C686 1.244 . S
O688 Zn680 2.019 . S
O688 C708 1.257 . S
Zn689 N685 2.020 . S
Zn689 O696 1.975 . S
Zn689 N705 2.119 . S
Zn689 O710 2.019 . S
N690 Zn680 2.119 . S
N690 C692 1.334 . S
N690 C693 1.328 . S
C691 C692 1.391 . S
C691 N694 1.329 . S
C691 H712 0.930 . S
C692 N690 1.334 . S
C692 C691 1.391 . S
C692 H699 0.930 . S
C693 N690 1.328 . S
C693 C695 1.392 . S
C693 H700 0.930 . S
N694 C691 1.329 . S
N694 C695 1.331 . S
C695 C693 1.392 . S
C695 N694 1.331 . S
O696 Zn689 1.975 . S
O696 C697 1.252 . S
C697 O696 1.252 . S
C697 O698 1.252 . S
O698 Zn680 1.975 . S
O698 C697 1.252 . S
H699 C692 0.930 . S
H700 C693 0.930 . S
C701 C702 1.392 . S
C701 N705 1.328 . S
C701 H707 0.930 . S
C702 C701 1.392 . S
C702 N706 1.331 . S
C703 C704 1.391 . S
C703 N706 1.329 . S
C703 H713 0.930 . S
C704 C703 1.391 . S
C704 N705 1.334 . S
C704 H711 0.930 . S
N705 Zn689 2.119 . S
N705 C701 1.328 . S
N705 C704 1.334 . S
N706 C702 1.331 . S
N706 C703 1.329 . S
H707 C701 0.930 . S
C708 O688 1.257 . S
C708 O709 1.244 . S
O709 C708 1.244 . S
O710 C686 1.257 . S
O710 Zn689 2.019 . S
H711 C704 0.930 . S
H712 C691 0.930 . S
H713 C703 0.930 . S
Zn714 N718 2.020 . S
Zn714 O722 2.019 . S
Zn714 N724 2.119 . S
Zn714 O732 1.975 . S
C715 N716 1.334 . S
C715 N719 1.336 . S
N716 C715 1.334 . S
N716 C717 1.334 . S
C717 N716 1.334 . S
C717 N718 1.336 . S
N718 Zn714 2.020 . S
N718 C717 1.336 . S
N718 N719 1.354 . S
N719 C715 1.336 . S
N719 N718 1.354 . S
N719 Zn723 2.020 . S
C720 O721 1.244 . S
C720 O744 1.257 . S
O721 C720 1.244 . S
O722 Zn714 2.019 . S
O722 C742 1.257 . S
Zn723 N719 2.020 . S
Zn723 O730 1.975 . S
Zn723 N739 2.119 . S
Zn723 O744 2.019 . S
N724 Zn714 2.119 . S
N724 C726 1.334 . S
N724 C727 1.328 . S
C725 C726 1.391 . S
C725 N728 1.329 . S
C725 H746 0.930 . S
C726 N724 1.334 . S
C726 C725 1.391 . S
C726 H733 0.930 . S
C727 N724 1.328 . S
C727 C729 1.392 1_554 S
C727 H734 0.930 1_554 S
N728 C725 1.329 . S
N728 C729 1.333 1_554 S
C729 C727 1.392 1_556 S
C729 N728 1.333 1_556 S
O730 Zn723 1.975 . S
O730 C731 1.252 . S
C731 O730 1.252 . S
C731 O732 1.252 . S
O732 Zn714 1.975 . S
O732 C731 1.252 . S
H733 C726 0.930 . S
H734 C727 0.930 1_556 S
C735 C736 1.392 . S
C735 N739 1.328 . S
C735 H741 0.930 . S
C736 C735 1.392 . S
C736 N740 1.331 . S
C737 C738 1.391 . S
C737 N740 1.329 . S
C737 H747 0.930 . S
C738 C737 1.391 . S
C738 N739 1.334 . S
C738 H745 0.930 . S
N739 Zn723 2.119 . S
N739 C735 1.328 . S
N739 C738 1.334 . S
N740 C736 1.331 . S
N740 C737 1.329 . S
H741 C735 0.930 . S
C742 O722 1.257 . S
C742 O743 1.244 . S
O743 C742 1.244 . S
O744 C720 1.257 . S
O744 Zn723 2.019 . S
H745 C738 0.930 . S
H746 C725 0.930 . S
H747 C737 0.930 . S
Zn748 N752 2.020 . S
Zn748 O756 2.019 . S
Zn748 N758 2.119 . S
Zn748 O766 1.975 . S
C749 N750 1.334 . S
C749 N753 1.336 . S
N750 C749 1.334 . S
N750 C751 1.334 . S
C751 N750 1.334 . S
C751 N752 1.336 . S
N752 Zn748 2.020 . S
N752 C751 1.336 . S
N752 N753 1.354 . S
N753 C749 1.336 . S
N753 N752 1.354 . S
N753 Zn757 2.020 . S
C754 O755 1.244 . S
C754 O778 1.257 . S
O755 C754 1.244 . S
O756 Zn748 2.019 . S
O756 C776 1.257 . S
Zn757 N753 2.020 . S
Zn757 O764 1.975 . S
Zn757 N773 2.119 . S
Zn757 O778 2.019 . S
N758 Zn748 2.119 . S
N758 C760 1.334 . S
N758 C761 1.328 . S
C759 C760 1.391 . S
C759 N762 1.329 . S
C759 H780 0.930 . S
C760 N758 1.334 . S
C760 C759 1.391 . S
C760 H767 0.930 . S
C761 N758 1.328 . S
C761 C763 1.392 1_554 S
C761 H768 0.930 1_554 S
N762 C759 1.329 . S
N762 C763 1.333 1_554 S
C763 C761 1.392 1_556 S
C763 N762 1.333 1_556 S
O764 Zn757 1.975 . S
O764 C765 1.252 . S
C765 O764 1.252 . S
C765 O766 1.252 . S
O766 Zn748 1.975 . S
O766 C765 1.252 . S
H767 C760 0.930 . S
H768 C761 0.930 1_556 S
C769 C770 1.392 . S
C769 N773 1.328 . S
C769 H775 0.930 . S
C770 C769 1.392 . S
C770 N774 1.331 . S
C771 C772 1.391 . S
C771 N774 1.329 . S
C771 H781 0.930 . S
C772 C771 1.391 . S
C772 N773 1.334 . S
C772 H779 0.930 . S
N773 Zn757 2.119 . S
N773 C769 1.328 . S
N773 C772 1.334 . S
N774 C770 1.331 . S
N774 C771 1.329 . S
H775 C769 0.930 . S
C776 O756 1.257 . S
C776 O777 1.244 . S
O777 C776 1.244 . S
O778 C754 1.257 . S
O778 Zn757 2.019 . S
H779 C772 0.930 . S
H780 C759 0.930 . S
H781 C771 0.930 . S
Zn782 N786 2.020 . S
Zn782 O790 2.019 . S
Zn782 N792 2.119 . S
Zn782 O800 1.975 . S
C783 N784 1.334 . S
C783 N787 1.336 . S
N784 C783 1.334 . S
N784 C785 1.334 . S
C785 N784 1.334 . S
C785 N786 1.336 . S
N786 Zn782 2.020 . S
N786 C785 1.336 . S
N786 N787 1.354 . S
N787 C783 1.336 . S
N787 N786 1.354 . S
N787 Zn791 2.020 . S
C788 O789 1.244 . S
C788 O812 1.257 . S
O789 C788 1.244 . S
O790 Zn782 2.019 . S
O790 C810 1.257 . S
Zn791 N787 2.020 . S
Zn791 O798 1.975 . S
Zn791 N807 2.119 . S
Zn791 O812 2.019 . S
N792 Zn782 2.119 . S
N792 C794 1.334 . S
N792 C795 1.328 . S
C793 C794 1.391 . S
C793 N796 1.329 . S
C793 H814 0.930 . S
C794 N792 1.334 . S
C794 C793 1.391 . S
C794 H801 0.930 . S
C795 N792 1.328 . S
C795 C797 1.392 . S
C795 H802 0.930 . S
N796 C793 1.329 . S
N796 C797 1.331 . S
C797 C795 1.392 . S
C797 N796 1.331 . S
O798 Zn791 1.975 . S
O798 C799 1.252 . S
C799 O798 1.252 . S
C799 O800 1.252 . S
O800 Zn782 1.975 . S
O800 C799 1.252 . S
H801 C794 0.930 . S
H802 C795 0.930 . S
C803 C804 1.392 1_554 S
C803 N807 1.328 . S
C803 H809 0.930 1_554 S
C804 C803 1.392 1_556 S
C804 N808 1.333 1_556 S
C805 C806 1.391 . S
C805 N808 1.329 . S
C805 H815 0.930 . S
C806 C805 1.391 . S
C806 N807 1.334 . S
C806 H813 0.930 . S
N807 Zn791 2.119 . S
N807 C803 1.328 . S
N807 C806 1.334 . S
N808 C804 1.333 1_554 S
N808 C805 1.329 . S
H809 C803 0.930 1_556 S
C810 O790 1.257 . S
C810 O811 1.244 . S
O811 C810 1.244 . S
O812 C788 1.257 . S
O812 Zn791 2.019 . S
H813 C806 0.930 . S
H814 C793 0.930 . S
H815 C805 0.930 . S
Zn816 N820 2.020 . S
Zn816 O824 2.019 . S
Zn816 N826 2.119 . S
Zn816 O834 1.975 . S
C817 N818 1.334 . S
C817 N821 1.336 . S
N818 C817 1.334 . S
N818 C819 1.334 . S
C819 N818 1.334 . S
C819 N820 1.336 . S
N820 Zn816 2.020 . S
N820 C819 1.336 . S
N820 N821 1.354 . S
N821 C817 1.336 . S
N821 N820 1.354 . S
N821 Zn825 2.020 . S
C822 O823 1.244 . S
C822 O846 1.257 . S
O823 C822 1.244 . S
O824 Zn816 2.019 . S
O824 C844 1.257 . S
Zn825 N821 2.020 . S
Zn825 O832 1.975 . S
Zn825 N841 2.119 . S
Zn825 O846 2.019 . S
N826 Zn816 2.119 . S
N826 C828 1.334 . S
N826 C829 1.328 . S
C827 C828 1.391 . S
C827 N830 1.329 . S
C827 H848 0.930 . S
C828 N826 1.334 . S
C828 C827 1.391 . S
C828 H835 0.930 . S
C829 N826 1.328 . S
C829 C831 1.392 . S
C829 H836 0.930 . S
N830 C827 1.329 . S
N830 C831 1.331 . S
C831 C829 1.392 . S
C831 N830 1.331 . S
O832 Zn825 1.975 . S
O832 C833 1.252 . S
C833 O832 1.252 . S
C833 O834 1.252 . S
O834 Zn816 1.975 . S
O834 C833 1.252 . S
H835 C828 0.930 . S
H836 C829 0.930 . S
C837 C838 1.392 1_655 S
C837 N841 1.328 . S
C837 H843 0.930 1_655 S
C838 C837 1.392 1_455 S
C838 N842 1.333 1_455 S
C839 C840 1.391 . S
C839 N842 1.329 . S
C839 H849 0.930 . S
C840 C839 1.391 . S
C840 N841 1.334 . S
C840 H847 0.930 . S
N841 Zn825 2.119 . S
N841 C837 1.328 . S
N841 C840 1.334 . S
N842 C838 1.333 1_655 S
N842 C839 1.329 . S
H843 C837 0.930 1_455 S
C844 O824 1.257 . S
C844 O845 1.244 . S
O845 C844 1.244 . S
O846 C822 1.257 . S
O846 Zn825 2.019 . S
H847 C840 0.930 . S
H848 C827 0.930 . S
H849 C839 0.930 . S
Zn850 N854 2.020 . S
Zn850 O858 2.019 . S
Zn850 N860 2.119 . S
Zn850 O868 1.975 . S
C851 N852 1.334 . S
C851 N855 1.336 . S
N852 C851 1.334 . S
N852 C853 1.334 . S
C853 N852 1.334 . S
C853 N854 1.336 . S
N854 Zn850 2.020 . S
N854 C853 1.336 . S
N854 N855 1.354 . S
N855 C851 1.336 . S
N855 N854 1.354 . S
N855 Zn859 2.020 . S
C856 O857 1.244 . S
C856 O880 1.257 . S
O857 C856 1.244 . S
O858 Zn850 2.019 . S
O858 C878 1.257 . S
Zn859 N855 2.020 . S
Zn859 O866 1.975 . S
Zn859 N875 2.119 . S
Zn859 O880 2.019 . S
N860 Zn850 2.119 . S
N860 C862 1.334 . S
N860 C863 1.328 . S
C861 C862 1.391 . S
C861 N864 1.329 . S
C861 H882 0.930 . S
C862 N860 1.334 . S
C862 C861 1.391 . S
C862 H869 0.930 . S
C863 N860 1.328 . S
C863 C865 1.392 1_565 S
C863 H870 0.930 1_565 S
N864 C861 1.329 . S
N864 C865 1.333 1_565 S
C865 C863 1.392 1_545 S
C865 N864 1.333 1_545 S
O866 Zn859 1.975 . S
O866 C867 1.252 . S
C867 O866 1.252 . S
C867 O868 1.252 . S
O868 Zn850 1.975 . S
O868 C867 1.252 . S
H869 C862 0.930 . S
H870 C863 0.930 1_545 S
C871 C872 1.392 . S
C871 N875 1.328 . S
C871 H877 0.930 . S
C872 C871 1.392 . S
C872 N876 1.331 . S
C873 C874 1.391 . S
C873 N876 1.329 . S
C873 H883 0.930 . S
C874 C873 1.391 . S
C874 N875 1.334 . S
C874 H881 0.930 . S
N875 Zn859 2.119 . S
N875 C871 1.328 . S
N875 C874 1.334 . S
N876 C872 1.331 . S
N876 C873 1.329 . S
H877 C871 0.930 . S
C878 O858 1.257 . S
C878 O879 1.244 . S
O879 C878 1.244 . S
O880 C856 1.257 . S
O880 Zn859 2.019 . S
H881 C874 0.930 . S
H882 C861 0.930 . S
H883 C873 0.930 . S
Zn884 N888 2.020 . S
Zn884 O892 2.019 . S
Zn884 N894 2.119 . S
Zn884 O902 1.975 . S
C885 N886 1.334 . S
C885 N889 1.336 . S
N886 C885 1.334 . S
N886 C887 1.334 . S
C887 N886 1.334 . S
C887 N888 1.336 . S
N888 Zn884 2.020 . S
N888 C887 1.336 . S
N888 N889 1.354 . S
N889 C885 1.336 . S
N889 N888 1.354 . S
N889 Zn893 2.020 . S
C890 O891 1.244 . S
C890 O914 1.257 . S
O891 C890 1.244 . S
O892 Zn884 2.019 . S
O892 C912 1.257 . S
Zn893 N889 2.020 . S
Zn893 O900 1.975 . S
Zn893 N909 2.119 . S
Zn893 O914 2.019 . S
N894 Zn884 2.119 . S
N894 C896 1.334 . S
N894 C897 1.328 . S
C895 C896 1.391 . S
C895 N898 1.329 . S
C895 H916 0.930 . S
C896 N894 1.334 . S
C896 C895 1.391 . S
C896 H903 0.930 . S
C897 N894 1.328 . S
C897 C899 1.392 . S
C897 H904 0.930 . S
N898 C895 1.329 . S
N898 C899 1.331 . S
C899 C897 1.392 . S
C899 N898 1.331 . S
O900 Zn893 1.975 . S
O900 C901 1.252 . S
C901 O900 1.252 . S
C901 O902 1.252 . S
O902 Zn884 1.975 . S
O902 C901 1.252 . S
H903 C896 0.930 . S
H904 C897 0.930 . S
C905 C906 1.392 . S
C905 N909 1.328 . S
C905 H911 0.930 . S
C906 C905 1.392 . S
C906 N910 1.331 . S
C907 C908 1.391 . S
C907 N910 1.329 . S
C907 H917 0.930 . S
C908 C907 1.391 . S
C908 N909 1.334 . S
C908 H915 0.930 . S
N909 Zn893 2.119 . S
N909 C905 1.328 . S
N909 C908 1.334 . S
N910 C906 1.331 . S
N910 C907 1.329 . S
H911 C905 0.930 . S
C912 O892 1.257 . S
C912 O913 1.244 . S
O913 C912 1.244 . S
O914 C890 1.257 . S
O914 Zn893 2.019 . S
H915 C908 0.930 . S
H916 C895 0.930 . S
H917 C907 0.930 . S
Zn918 N922 2.020 . S
Zn918 O926 2.019 . S
Zn918 N928 2.119 . S
Zn918 O936 1.975 . S
C919 N920 1.334 . S
C919 N923 1.336 . S
N920 C919 1.334 . S
N920 C921 1.334 . S
C921 N920 1.334 . S
C921 N922 1.336 . S
N922 Zn918 2.020 . S
N922 C921 1.336 . S
N922 N923 1.354 . S
N923 C919 1.336 . S
N923 N922 1.354 . S
N923 Zn927 2.020 . S
C924 O925 1.244 . S
C924 O948 1.257 . S
O925 C924 1.244 . S
O926 Zn918 2.019 . S
O926 C946 1.257 . S
Zn927 N923 2.020 . S
Zn927 O934 1.975 . S
Zn927 N943 2.119 . S
Zn927 O948 2.019 . S
N928 Zn918 2.119 . S
N928 C930 1.334 . S
N928 C931 1.328 . S
C929 C930 1.391 . S
C929 N932 1.329 . S
C929 H950 0.930 . S
C930 N928 1.334 . S
C930 C929 1.391 . S
C930 H937 0.930 . S
C931 N928 1.328 . S
C931 C933 1.392 . S
C931 H938 0.930 . S
N932 C929 1.329 . S
N932 C933 1.331 . S
C933 C931 1.392 . S
C933 N932 1.331 . S
O934 Zn927 1.975 . S
O934 C935 1.252 . S
C935 O934 1.252 . S
C935 O936 1.252 . S
O936 Zn918 1.975 . S
O936 C935 1.252 . S
H937 C930 0.930 . S
H938 C931 0.930 . S
C939 C940 1.392 . S
C939 N943 1.328 . S
C939 H945 0.930 . S
C940 C939 1.392 . S
C940 N944 1.331 . S
C941 C942 1.391 . S
C941 N944 1.329 . S
C941 H951 0.930 . S
C942 C941 1.391 . S
C942 N943 1.334 . S
C942 H949 0.930 . S
N943 Zn927 2.119 . S
N943 C939 1.328 . S
N943 C942 1.334 . S
N944 C940 1.331 . S
N944 C941 1.329 . S
H945 C939 0.930 . S
C946 O926 1.257 . S
C946 O947 1.244 . S
O947 C946 1.244 . S
O948 C924 1.257 . S
O948 Zn927 2.019 . S
H949 C942 0.930 . S
H950 C929 0.930 . S
H951 C941 0.930 . S
Zn952 N956 2.020 . S
Zn952 O960 2.019 . S
Zn952 N962 2.119 . S
Zn952 O970 1.975 . S
C953 N954 1.334 . S
C953 N957 1.336 . S
N954 C953 1.334 . S
N954 C955 1.334 . S
C955 N954 1.334 . S
C955 N956 1.336 . S
N956 Zn952 2.020 . S
N956 C955 1.336 . S
N956 N957 1.354 . S
N957 C953 1.336 . S
N957 N956 1.354 . S
N957 Zn961 2.020 . S
C958 O959 1.244 . S
C958 O982 1.257 . S
O959 C958 1.244 . S
O960 Zn952 2.019 . S
O960 C980 1.257 . S
Zn961 N957 2.020 . S
Zn961 O968 1.975 . S
Zn961 N977 2.119 . S
Zn961 O982 2.019 . S
N962 Zn952 2.119 . S
N962 C964 1.334 . S
N962 C965 1.328 . S
C963 C964 1.391 . S
C963 N966 1.329 . S
C963 H984 0.930 . S
C964 N962 1.334 . S
C964 C963 1.391 . S
C964 H971 0.930 . S
C965 N962 1.328 . S
C965 C967 1.392 1_655 S
C965 H972 0.930 1_655 S
N966 C963 1.329 . S
N966 C967 1.333 1_655 S
C967 C965 1.392 1_455 S
C967 N966 1.333 1_455 S
O968 Zn961 1.975 . S
O968 C969 1.252 . S
C969 O968 1.252 . S
C969 O970 1.252 . S
O970 Zn952 1.975 . S
O970 C969 1.252 . S
H971 C964 0.930 . S
H972 C965 0.930 1_455 S
C973 C974 1.392 . S
C973 N977 1.328 . S
C973 H979 0.930 . S
C974 C973 1.392 . S
C974 N978 1.331 . S
C975 C976 1.391 . S
C975 N978 1.329 . S
C975 H985 0.930 . S
C976 C975 1.391 . S
C976 N977 1.334 . S
C976 H983 0.930 . S
N977 Zn961 2.119 . S
N977 C973 1.328 . S
N977 C976 1.334 . S
N978 C974 1.331 . S
N978 C975 1.329 . S
H979 C973 0.930 . S
C980 O960 1.257 . S
C980 O981 1.244 . S
O981 C980 1.244 . S
O982 C958 1.257 . S
O982 Zn961 2.019 . S
H983 C976 0.930 . S
H984 C963 0.930 . S
H985 C975 0.930 . S
Zn986 N990 2.020 . S
Zn986 O994 2.019 . S
Zn986 N996 2.119 . S
Zn986 O1004 1.975 . S
C987 N988 1.334 . S
C987 N991 1.336 . S
N988 C987 1.334 . S
N988 C989 1.334 . S
C989 N988 1.334 . S
C989 N990 1.336 . S
N990 Zn986 2.020 . S
N990 C989 1.336 . S
N990 N991 1.354 . S
N991 C987 1.336 . S
N991 N990 1.354 . S
N991 Zn995 2.020 . S
C992 O993 1.244 . S
C992 O1016 1.257 . S
O993 C992 1.244 . S
O994 Zn986 2.019 . S
O994 C1014 1.257 . S
Zn995 N991 2.020 . S
Zn995 O1002 1.975 . S
Zn995 N1011 2.119 . S
Zn995 O1016 2.019 . S
N996 Zn986 2.119 . S
N996 C998 1.334 . S
N996 C999 1.328 . S
C997 C998 1.391 . S
C997 N1000 1.329 . S
C997 H1018 0.930 . S
C998 N996 1.334 . S
C998 C997 1.391 . S
C998 H1005 0.930 . S
C999 N996 1.328 . S
C999 C1001 1.392 . S
C999 H1006 0.930 . S
N1000 C997 1.329 . S
N1000 C1001 1.331 . S
C1001 C999 1.392 . S
C1001 N1000 1.331 . S
O1002 Zn995 1.975 . S
O1002 C1003 1.252 . S
C1003 O1002 1.252 . S
C1003 O1004 1.252 . S
O1004 Zn986 1.975 . S
O1004 C1003 1.252 . S
H1005 C998 0.930 . S
H1006 C999 0.930 . S
C1007 C1008 1.392 1_565 S
C1007 N1011 1.328 . S
C1007 H1013 0.930 1_565 S
C1008 C1007 1.392 1_545 S
C1008 N1012 1.333 1_545 S
C1009 C1010 1.391 . S
C1009 N1012 1.329 . S
C1009 H1019 0.930 . S
C1010 C1009 1.391 . S
C1010 N1011 1.334 . S
C1010 H1017 0.930 . S
N1011 Zn995 2.119 . S
N1011 C1007 1.328 . S
N1011 C1010 1.334 . S
N1012 C1008 1.333 1_565 S
N1012 C1009 1.329 . S
H1013 C1007 0.930 1_545 S
C1014 O994 1.257 . S
C1014 O1015 1.244 . S
O1015 C1014 1.244 . S
O1016 C992 1.257 . S
O1016 Zn995 2.019 . S
H1017 C1010 0.930 . S
H1018 C997 0.930 . S
H1019 C1009 0.930 . S
Zn1020 N1024 2.020 . S
Zn1020 O1028 2.019 . S
Zn1020 N1030 2.119 . S
Zn1020 O1038 1.975 . S
C1021 N1022 1.334 . S
C1021 N1025 1.336 . S
N1022 C1021 1.334 . S
N1022 C1023 1.334 . S
C1023 N1022 1.334 . S
C1023 N1024 1.336 . S
N1024 Zn1020 2.020 . S
N1024 C1023 1.336 . S
N1024 N1025 1.354 . S
N1025 C1021 1.336 . S
N1025 N1024 1.354 . S
N1025 Zn1029 2.020 . S
C1026 O1027 1.244 . S
C1026 O1050 1.257 . S
O1027 C1026 1.244 . S
O1028 Zn1020 2.019 . S
O1028 C1048 1.257 . S
Zn1029 N1025 2.020 . S
Zn1029 O1036 1.975 . S
Zn1029 N1045 2.119 . S
Zn1029 O1050 2.019 . S
N1030 Zn1020 2.119 . S
N1030 C1032 1.334 . S
N1030 C1033 1.328 . S
C1031 C1032 1.391 . S
C1031 N1034 1.329 . S
C1031 H1052 0.930 . S
C1032 N1030 1.334 . S
C1032 C1031 1.391 . S
C1032 H1039 0.930 . S
C1033 N1030 1.328 . S
C1033 C1035 1.392 . S
C1033 H1040 0.930 . S
N1034 C1031 1.329 . S
N1034 C1035 1.331 . S
C1035 C1033 1.392 . S
C1035 N1034 1.331 . S
O1036 Zn1029 1.975 . S
O1036 C1037 1.252 . S
C1037 O1036 1.252 . S
C1037 O1038 1.252 . S
O1038 Zn1020 1.975 . S
O1038 C1037 1.252 . S
H1039 C1032 0.930 . S
H1040 C1033 0.930 . S
C1041 C1042 1.392 . S
C1041 N1045 1.328 . S
C1041 H1047 0.930 . S
C1042 C1041 1.392 . S
C1042 N1046 1.331 . S
C1043 C1044 1.391 . S
C1043 N1046 1.329 . S
C1043 H1053 0.930 . S
C1044 C1043 1.391 . S
C1044 N1045 1.334 . S
C1044 H1051 0.930 . S
N1045 Zn1029 2.119 . S
N1045 C1041 1.328 . S
N1045 C1044 1.334 . S
N1046 C1042 1.331 . S
N1046 C1043 1.329 . S
H1047 C1041 0.930 . S
C1048 O1028 1.257 . S
C1048 O1049 1.244 . S
O1049 C1048 1.244 . S
O1050 C1026 1.257 . S
O1050 Zn1029 2.019 . S
H1051 C1044 0.930 . S
H1052 C1031 0.930 . S
H1053 C1043 0.930 . S
Zn1054 N1058 2.020 . S
Zn1054 O1062 2.019 . S
Zn1054 N1064 2.119 . S
Zn1054 O1072 1.975 . S
C1055 N1056 1.334 . S
C1055 N1059 1.336 . S
N1056 C1055 1.334 . S
N1056 C1057 1.334 . S
C1057 N1056 1.334 . S
C1057 N1058 1.336 . S
N1058 Zn1054 2.020 . S
N1058 C1057 1.336 . S
N1058 N1059 1.354 . S
N1059 C1055 1.336 . S
N1059 N1058 1.354 . S
N1059 Zn1063 2.020 . S
C1060 O1061 1.244 . S
C1060 O1084 1.257 . S
O1061 C1060 1.244 . S
O1062 Zn1054 2.019 . S
O1062 C1082 1.257 . S
Zn1063 N1059 2.020 . S
Zn1063 O1070 1.975 . S
Zn1063 N1079 2.119 . S
Zn1063 O1084 2.019 . S
N1064 Zn1054 2.119 . S
N1064 C1066 1.334 . S
N1064 C1067 1.328 . S
C1065 C1066 1.391 . S
C1065 N1068 1.329 . S
C1065 H1086 0.930 . S
C1066 N1064 1.334 . S
C1066 C1065 1.391 . S
C1066 H1073 0.930 . S
C1067 N1064 1.328 . S
C1067 C1069 1.392 . S
C1067 H1074 0.930 . S
N1068 C1065 1.329 . S
N1068 C1069 1.331 . S
C1069 C1067 1.392 . S
C1069 N1068 1.331 . S
O1070 Zn1063 1.975 . S
O1070 C1071 1.252 . S
C1071 O1070 1.252 . S
C1071 O1072 1.252 . S
O1072 Zn1054 1.975 . S
O1072 C1071 1.252 . S
H1073 C1066 0.930 . S
H1074 C1067 0.930 . S
C1075 C1076 1.392 . S
C1075 N1079 1.328 . S
C1075 H1081 0.930 . S
C1076 C1075 1.392 . S
C1076 N1080 1.331 . S
C1077 C1078 1.391 . S
C1077 N1080 1.329 . S
C1077 H1087 0.930 . S
C1078 C1077 1.391 . S
C1078 N1079 1.334 . S
C1078 H1085 0.930 . S
N1079 Zn1063 2.119 . S
N1079 C1075 1.328 . S
N1079 C1078 1.334 . S
N1080 C1076 1.331 . S
N1080 C1077 1.329 . S
H1081 C1075 0.930 . S
C1082 O1062 1.257 . S
C1082 O1083 1.244 . S
O1083 C1082 1.244 . S
O1084 C1060 1.257 . S
O1084 Zn1063 2.019 . S
H1085 C1078 0.930 . S
H1086 C1065 0.930 . S
H1087 C1077 0.930 . S
Zn1088 N1092 2.020 . S
Zn1088 O1096 2.019 . S
Zn1088 N1098 2.119 . S
Zn1088 O1106 1.975 . S
C1089 N1090 1.334 . S
C1089 N1093 1.336 . S
N1090 C1089 1.334 . S
N1090 C1091 1.334 . S
C1091 N1090 1.334 . S
C1091 N1092 1.336 . S
N1092 Zn1088 2.020 . S
N1092 C1091 1.336 . S
N1092 N1093 1.354 . S
N1093 C1089 1.336 . S
N1093 N1092 1.354 . S
N1093 Zn1097 2.020 . S
C1094 O1095 1.244 . S
C1094 O1118 1.257 . S
O1095 C1094 1.244 . S
O1096 Zn1088 2.019 . S
O1096 C1116 1.257 . S
Zn1097 N1093 2.020 . S
Zn1097 O1104 1.975 . S
Zn1097 N1113 2.119 . S
Zn1097 O1118 2.019 . S
N1098 Zn1088 2.119 . S
N1098 C1100 1.334 . S
N1098 C1101 1.328 . S
C1099 C1100 1.391 . S
C1099 N1102 1.329 . S
C1099 H1120 0.930 . S
C1100 N1098 1.334 . S
C1100 C1099 1.391 . S
C1100 H1107 0.930 . S
C1101 N1098 1.328 . S
C1101 C1103 1.392 . S
C1101 H1108 0.930 . S
N1102 C1099 1.329 . S
N1102 C1103 1.331 . S
C1103 C1101 1.392 . S
C1103 N1102 1.331 . S
O1104 Zn1097 1.975 . S
O1104 C1105 1.252 . S
C1105 O1104 1.252 . S
C1105 O1106 1.252 . S
O1106 Zn1088 1.975 . S
O1106 C1105 1.252 . S
H1107 C1100 0.930 . S
H1108 C1101 0.930 . S
C1109 C1110 1.392 1_565 S
C1109 N1113 1.328 . S
C1109 H1115 0.930 1_565 S
C1110 C1109 1.392 1_545 S
C1110 N1114 1.333 1_545 S
C1111 C1112 1.391 . S
C1111 N1114 1.329 . S
C1111 H1121 0.930 . S
C1112 C1111 1.391 . S
C1112 N1113 1.334 . S
C1112 H1119 0.930 . S
N1113 Zn1097 2.119 . S
N1113 C1109 1.328 . S
N1113 C1112 1.334 . S
N1114 C1110 1.333 1_565 S
N1114 C1111 1.329 . S
H1115 C1109 0.930 1_545 S
C1116 O1096 1.257 . S
C1116 O1117 1.244 . S
O1117 C1116 1.244 . S
O1118 C1094 1.257 . S
O1118 Zn1097 2.019 . S
H1119 C1112 0.930 . S
H1120 C1099 0.930 . S
H1121 C1111 0.930 . S
Zn1122 N1126 2.020 . S
Zn1122 O1130 2.019 . S
Zn1122 N1132 2.119 . S
Zn1122 O1140 1.975 . S
C1123 N1124 1.334 . S
C1123 N1127 1.336 . S
N1124 C1123 1.334 . S
N1124 C1125 1.334 . S
C1125 N1124 1.334 . S
C1125 N1126 1.336 . S
N1126 Zn1122 2.020 . S
N1126 C1125 1.336 . S
N1126 N1127 1.354 . S
N1127 C1123 1.336 . S
N1127 N1126 1.354 . S
N1127 Zn1131 2.020 . S
C1128 O1129 1.244 . S
C1128 O1152 1.257 . S
O1129 C1128 1.244 . S
O1130 Zn1122 2.019 . S
O1130 C1150 1.257 . S
Zn1131 N1127 2.020 . S
Zn1131 O1138 1.975 . S
Zn1131 N1147 2.119 . S
Zn1131 O1152 2.019 . S
N1132 Zn1122 2.119 . S
N1132 C1134 1.334 . S
N1132 C1135 1.328 . S
C1133 C1134 1.391 . S
C1133 N1136 1.329 . S
C1133 H1154 0.930 . S
C1134 N1132 1.334 . S
C1134 C1133 1.391 . S
C1134 H1141 0.930 . S
C1135 N1132 1.328 . S
C1135 C1137 1.392 . S
C1135 H1142 0.930 . S
N1136 C1133 1.329 . S
N1136 C1137 1.331 . S
C1137 C1135 1.392 . S
C1137 N1136 1.331 . S
O1138 Zn1131 1.975 . S
O1138 C1139 1.252 . S
C1139 O1138 1.252 . S
C1139 O1140 1.252 . S
O1140 Zn1122 1.975 . S
O1140 C1139 1.252 . S
H1141 C1134 0.930 . S
H1142 C1135 0.930 . S
C1143 C1144 1.392 . S
C1143 N1147 1.328 . S
C1143 H1149 0.930 . S
C1144 C1143 1.392 . S
C1144 N1148 1.331 . S
C1145 C1146 1.391 . S
C1145 N1148 1.329 . S
C1145 H1155 0.930 . S
C1146 C1145 1.391 . S
C1146 N1147 1.334 . S
C1146 H1153 0.930 . S
N1147 Zn1131 2.119 . S
N1147 C1143 1.328 . S
N1147 C1146 1.334 . S
N1148 C1144 1.331 . S
N1148 C1145 1.329 . S
H1149 C1143 0.930 . S
C1150 O1130 1.257 . S
C1150 O1151 1.244 . S
O1151 C1150 1.244 . S
O1152 C1128 1.257 . S
O1152 Zn1131 2.019 . S
H1153 C1146 0.930 . S
H1154 C1133 0.930 . S
H1155 C1145 0.930 . S
Zn1156 N1160 2.020 . S
Zn1156 O1164 2.019 . S
Zn1156 N1166 2.119 . S
Zn1156 O1174 1.975 . S
C1157 N1158 1.334 . S
C1157 N1161 1.336 . S
N1158 C1157 1.334 . S
N1158 C1159 1.334 . S
C1159 N1158 1.334 . S
C1159 N1160 1.336 . S
N1160 Zn1156 2.020 . S
N1160 C1159 1.336 . S
N1160 N1161 1.354 . S
N1161 C1157 1.336 . S
N1161 N1160 1.354 . S
N1161 Zn1165 2.020 . S
C1162 O1163 1.244 . S
C1162 O1186 1.257 . S
O1163 C1162 1.244 . S
O1164 Zn1156 2.019 . S
O1164 C1184 1.257 . S
Zn1165 N1161 2.020 . S
Zn1165 O1172 1.975 . S
Zn1165 N1181 2.119 . S
Zn1165 O1186 2.019 . S
N1166 Zn1156 2.119 . S
N1166 C1168 1.334 . S
N1166 C1169 1.328 . S
C1167 C1168 1.391 . S
C1167 N1170 1.329 . S
C1167 H1188 0.930 . S
C1168 N1166 1.334 . S
C1168 C1167 1.391 . S
C1168 H1175 0.930 . S
C1169 N1166 1.328 . S
C1169 C1171 1.392 . S
C1169 H1176 0.930 . S
N1170 C1167 1.329 . S
N1170 C1171 1.331 . S
C1171 C1169 1.392 . S
C1171 N1170 1.331 . S
O1172 Zn1165 1.975 . S
O1172 C1173 1.252 . S
C1173 O1172 1.252 . S
C1173 O1174 1.252 . S
O1174 Zn1156 1.975 . S
O1174 C1173 1.252 . S
H1175 C1168 0.930 . S
H1176 C1169 0.930 . S
C1177 C1178 1.392 . S
C1177 N1181 1.328 . S
C1177 H1183 0.930 . S
C1178 C1177 1.392 . S
C1178 N1182 1.331 . S
C1179 C1180 1.391 . S
C1179 N1182 1.329 . S
C1179 H1189 0.930 . S
C1180 C1179 1.391 . S
C1180 N1181 1.334 . S
C1180 H1187 0.930 . S
N1181 Zn1165 2.119 . S
N1181 C1177 1.328 . S
N1181 C1180 1.334 . S
N1182 C1178 1.331 . S
N1182 C1179 1.329 . S
H1183 C1177 0.930 . S
C1184 O1164 1.257 . S
C1184 O1185 1.244 . S
O1185 C1184 1.244 . S
O1186 C1162 1.257 . S
O1186 Zn1165 2.019 . S
H1187 C1180 0.930 . S
H1188 C1167 0.930 . S
H1189 C1179 0.930 . S
Zn1190 N1194 2.020 . S
Zn1190 O1198 2.019 . S
Zn1190 N1200 2.119 . S
Zn1190 O1208 1.975 . S
C1191 N1192 1.334 . S
C1191 N1195 1.336 . S
N1192 C1191 1.334 . S
N1192 C1193 1.334 . S
C1193 N1192 1.334 . S
C1193 N1194 1.336 . S
N1194 Zn1190 2.020 . S
N1194 C1193 1.336 . S
N1194 N1195 1.354 . S
N1195 C1191 1.336 . S
N1195 N1194 1.354 . S
N1195 Zn1199 2.020 . S
C1196 O1197 1.244 . S
C1196 O1220 1.257 . S
O1197 C1196 1.244 . S
O1198 Zn1190 2.019 . S
O1198 C1218 1.257 . S
Zn1199 N1195 2.020 . S
Zn1199 O1206 1.975 . S
Zn1199 N1215 2.119 . S
Zn1199 O1220 2.019 . S
N1200 Zn1190 2.119 . S
N1200 C1202 1.334 . S
N1200 C1203 1.328 . S
C1201 C1202 1.391 . S
C1201 N1204 1.329 . S
C1201 H1222 0.930 . S
C1202 N1200 1.334 . S
C1202 C1201 1.391 . S
C1202 H1209 0.930 . S
C1203 N1200 1.328 . S
C1203 C1205 1.392 1_655 S
C1203 H1210 0.930 1_655 S
N1204 C1201 1.329 . S
N1204 C1205 1.333 1_655 S
C1205 C1203 1.392 1_455 S
C1205 N1204 1.333 1_455 S
O1206 Zn1199 1.975 . S
O1206 C1207 1.252 . S
C1207 O1206 1.252 . S
C1207 O1208 1.252 . S
O1208 Zn1190 1.975 . S
O1208 C1207 1.252 . S
H1209 C1202 0.930 . S
H1210 C1203 0.930 1_455 S
C1211 C1212 1.392 . S
C1211 N1215 1.328 . S
C1211 H1217 0.930 . S
C1212 C1211 1.392 . S
C1212 N1216 1.331 . S
C1213 C1214 1.391 . S
C1213 N1216 1.329 . S
C1213 H1223 0.930 . S
C1214 C1213 1.391 . S
C1214 N1215 1.334 . S
C1214 H1221 0.930 . S
N1215 Zn1199 2.119 . S
N1215 C1211 1.328 . S
N1215 C1214 1.334 . S
N1216 C1212 1.331 . S
N1216 C1213 1.329 . S
H1217 C1211 0.930 . S
C1218 O1198 1.257 . S
C1218 O1219 1.244 . S
O1219 C1218 1.244 . S
O1220 C1196 1.257 . S
O1220 Zn1199 2.019 . S
H1221 C1214 0.930 . S
H1222 C1201 0.930 . S
H1223 C1213 0.930 . S
Zn1224 N1228 2.020 . S
Zn1224 O1232 2.019 . S
Zn1224 N1234 2.119 . S
Zn1224 O1242 1.975 . S
C1225 N1226 1.334 . S
C1225 N1229 1.336 . S
N1226 C1225 1.334 . S
N1226 C1227 1.334 . S
C1227 N1226 1.334 . S
C1227 N1228 1.336 . S
N1228 Zn1224 2.020 . S
N1228 C1227 1.336 . S
N1228 N1229 1.354 . S
N1229 C1225 1.336 . S
N1229 N1228 1.354 . S
N1229 Zn1233 2.020 . S
C1230 O1231 1.244 . S
C1230 O1254 1.257 . S
O1231 C1230 1.244 . S
O1232 Zn1224 2.019 . S
O1232 C1252 1.257 . S
Zn1233 N1229 2.020 . S
Zn1233 O1240 1.975 . S
Zn1233 N1249 2.119 . S
Zn1233 O1254 2.019 . S
N1234 Zn1224 2.119 . S
N1234 C1236 1.334 . S
N1234 C1237 1.328 . S
C1235 C1236 1.391 . S
C1235 N1238 1.329 . S
C1235 H1256 0.930 . S
C1236 N1234 1.334 . S
C1236 C1235 1.391 . S
C1236 H1243 0.930 . S
C1237 N1234 1.328 . S
C1237 C1239 1.392 . S
C1237 H1244 0.930 . S
N1238 C1235 1.329 . S
N1238 C1239 1.331 . S
C1239 C1237 1.392 . S
C1239 N1238 1.331 . S
O1240 Zn1233 1.975 . S
O1240 C1241 1.252 . S
C1241 O1240 1.252 . S
C1241 O1242 1.252 . S
O1242 Zn1224 1.975 . S
O1242 C1241 1.252 . S
H1243 C1236 0.930 . S
H1244 C1237 0.930 . S
C1245 C1246 1.392 . S
C1245 N1249 1.328 . S
C1245 H1251 0.930 . S
C1246 C1245 1.392 . S
C1246 N1250 1.331 . S
C1247 C1248 1.391 . S
C1247 N1250 1.329 . S
C1247 H1257 0.930 . S
C1248 C1247 1.391 . S
C1248 N1249 1.334 . S
C1248 H1255 0.930 . S
N1249 Zn1233 2.119 . S
N1249 C1245 1.328 . S
N1249 C1248 1.334 . S
N1250 C1246 1.331 . S
N1250 C1247 1.329 . S
H1251 C1245 0.930 . S
C1252 O1232 1.257 . S
C1252 O1253 1.244 . S
O1253 C1252 1.244 . S
O1254 C1230 1.257 . S
O1254 Zn1233 2.019 . S
H1255 C1248 0.930 . S
H1256 C1235 0.930 . S
H1257 C1247 0.930 . S
Zn1258 N1262 2.020 . S
Zn1258 O1266 2.019 . S
Zn1258 N1268 2.119 . S
Zn1258 O1276 1.975 . S
C1259 N1260 1.334 . S
C1259 N1263 1.336 . S
N1260 C1259 1.334 . S
N1260 C1261 1.334 . S
C1261 N1260 1.334 . S
C1261 N1262 1.336 . S
N1262 Zn1258 2.020 . S
N1262 C1261 1.336 . S
N1262 N1263 1.354 . S
N1263 C1259 1.336 . S
N1263 N1262 1.354 . S
N1263 Zn1267 2.020 . S
C1264 O1265 1.244 . S
C1264 O1288 1.257 . S
O1265 C1264 1.244 . S
O1266 Zn1258 2.019 . S
O1266 C1286 1.257 . S
Zn1267 N1263 2.020 . S
Zn1267 O1274 1.975 . S
Zn1267 N1283 2.119 . S
Zn1267 O1288 2.019 . S
N1268 Zn1258 2.119 . S
N1268 C1270 1.334 . S
N1268 C1271 1.328 . S
C1269 C1270 1.391 . S
C1269 N1272 1.329 . S
C1269 H1290 0.930 . S
C1270 N1268 1.334 . S
C1270 C1269 1.391 . S
C1270 H1277 0.930 . S
C1271 N1268 1.328 . S
C1271 C1273 1.392 . S
C1271 H1278 0.930 . S
N1272 C1269 1.329 . S
N1272 C1273 1.331 . S
C1273 C1271 1.392 . S
C1273 N1272 1.331 . S
O1274 Zn1267 1.975 . S
O1274 C1275 1.252 . S
C1275 O1274 1.252 . S
C1275 O1276 1.252 . S
O1276 Zn1258 1.975 . S
O1276 C1275 1.252 . S
H1277 C1270 0.930 . S
H1278 C1271 0.930 . S
C1279 C1280 1.392 1_655 S
C1279 N1283 1.328 . S
C1279 H1285 0.930 1_655 S
C1280 C1279 1.392 1_455 S
C1280 N1284 1.333 1_455 S
C1281 C1282 1.391 . S
C1281 N1284 1.329 . S
C1281 H1291 0.930 . S
C1282 C1281 1.391 . S
C1282 N1283 1.334 . S
C1282 H1289 0.930 . S
N1283 Zn1267 2.119 . S
N1283 C1279 1.328 . S
N1283 C1282 1.334 . S
N1284 C1280 1.333 1_655 S
N1284 C1281 1.329 . S
H1285 C1279 0.930 1_455 S
C1286 O1266 1.257 . S
C1286 O1287 1.244 . S
O1287 C1286 1.244 . S
O1288 C1264 1.257 . S
O1288 Zn1267 2.019 . S
H1289 C1282 0.930 . S
H1290 C1269 0.930 . S
H1291 C1281 0.930 . S
Zn1292 N1296 2.020 . S
Zn1292 O1300 2.019 . S
Zn1292 N1302 2.119 . S
Zn1292 O1310 1.975 . S
C1293 N1294 1.334 . S
C1293 N1297 1.336 . S
N1294 C1293 1.334 . S
N1294 C1295 1.334 . S
C1295 N1294 1.334 . S
C1295 N1296 1.336 . S
N1296 Zn1292 2.020 . S
N1296 C1295 1.336 . S
N1296 N1297 1.354 . S
N1297 C1293 1.336 . S
N1297 N1296 1.354 . S
N1297 Zn1301 2.020 . S
C1298 O1299 1.244 . S
C1298 O1322 1.257 . S
O1299 C1298 1.244 . S
O1300 Zn1292 2.019 . S
O1300 C1320 1.257 . S
Zn1301 N1297 2.020 . S
Zn1301 O1308 1.975 . S
Zn1301 N1317 2.119 . S
Zn1301 O1322 2.019 . S
N1302 Zn1292 2.119 . S
N1302 C1304 1.334 . S
N1302 C1305 1.328 . S
C1303 C1304 1.391 . S
C1303 N1306 1.329 . S
C1303 H1324 0.930 . S
C1304 N1302 1.334 . S
C1304 C1303 1.391 . S
C1304 H1311 0.930 . S
C1305 N1302 1.328 . S
C1305 C1307 1.392 . S
C1305 H1312 0.930 . S
N1306 C1303 1.329 . S
N1306 C1307 1.331 . S
C1307 C1305 1.392 . S
C1307 N1306 1.331 . S
O1308 Zn1301 1.975 . S
O1308 C1309 1.252 . S
C1309 O1308 1.252 . S
C1309 O1310 1.252 . S
O1310 Zn1292 1.975 . S
O1310 C1309 1.252 . S
H1311 C1304 0.930 . S
H1312 C1305 0.930 . S
C1313 C1314 1.392 1_565 S
C1313 N1317 1.328 . S
C1313 H1319 0.930 1_565 S
C1314 C1313 1.392 1_545 S
C1314 N1318 1.333 1_545 S
C1315 C1316 1.391 . S
C1315 N1318 1.329 . S
C1315 H1325 0.930 . S
C1316 C1315 1.391 . S
C1316 N1317 1.334 . S
C1316 H1323 0.930 . S
N1317 Zn1301 2.119 . S
N1317 C1313 1.328 . S
N1317 C1316 1.334 . S
N1318 C1314 1.333 1_565 S
N1318 C1315 1.329 . S
H1319 C1313 0.930 1_545 S
C1320 O1300 1.257 . S
C1320 O1321 1.244 . S
O1321 C1320 1.244 . S
O1322 C1298 1.257 . S
O1322 Zn1301 2.019 . S
H1323 C1316 0.930 . S
H1324 C1303 0.930 . S
H1325 C1315 0.930 . S
Zn1326 N1330 2.020 . S
Zn1326 O1334 2.019 . S
Zn1326 N1336 2.119 . S
Zn1326 O1344 1.975 . S
C1327 N1328 1.334 . S
C1327 N1331 1.336 . S
N1328 C1327 1.334 . S
N1328 C1329 1.334 . S
C1329 N1328 1.334 . S
C1329 N1330 1.336 . S
N1330 Zn1326 2.020 . S
N1330 C1329 1.336 . S
N1330 N1331 1.354 . S
N1331 C1327 1.336 . S
N1331 N1330 1.354 . S
N1331 Zn1335 2.020 . S
C1332 O1333 1.244 . S
C1332 O1356 1.257 . S
O1333 C1332 1.244 . S
O1334 Zn1326 2.019 . S
O1334 C1354 1.257 . S
Zn1335 N1331 2.020 . S
Zn1335 O1342 1.975 . S
Zn1335 N1351 2.119 . S
Zn1335 O1356 2.019 . S
N1336 Zn1326 2.119 . S
N1336 C1338 1.334 . S
N1336 C1339 1.328 . S
C1337 C1338 1.391 . S
C1337 N1340 1.329 . S
C1337 H1358 0.930 . S
C1338 N1336 1.334 . S
C1338 C1337 1.391 . S
C1338 H1345 0.930 . S
C1339 N1336 1.328 . S
C1339 C1341 1.392 . S
C1339 H1346 0.930 . S
N1340 C1337 1.329 . S
N1340 C1341 1.331 . S
C1341 C1339 1.392 . S
C1341 N1340 1.331 . S
O1342 Zn1335 1.975 . S
O1342 C1343 1.252 . S
C1343 O1342 1.252 . S
C1343 O1344 1.252 . S
O1344 Zn1326 1.975 . S
O1344 C1343 1.252 . S
H1345 C1338 0.930 . S
H1346 C1339 0.930 . S
C1347 C1348 1.392 . S
C1347 N1351 1.328 . S
C1347 H1353 0.930 . S
C1348 C1347 1.392 . S
C1348 N1352 1.331 . S
C1349 C1350 1.391 . S
C1349 N1352 1.329 . S
C1349 H1359 0.930 . S
C1350 C1349 1.391 . S
C1350 N1351 1.334 . S
C1350 H1357 0.930 . S
N1351 Zn1335 2.119 . S
N1351 C1347 1.328 . S
N1351 C1350 1.334 . S
N1352 C1348 1.331 . S
N1352 C1349 1.329 . S
H1353 C1347 0.930 . S
C1354 O1334 1.257 . S
C1354 O1355 1.244 . S
O1355 C1354 1.244 . S
O1356 C1332 1.257 . S
O1356 Zn1335 2.019 . S
H1357 C1350 0.930 . S
H1358 C1337 0.930 . S
H1359 C1349 0.930 . S
Zn1360 N1364 2.020 . S
Zn1360 O1368 2.019 . S
Zn1360 N1370 2.119 . S
Zn1360 O1378 1.975 . S
C1361 N1362 1.334 . S
C1361 N1365 1.336 . S
N1362 C1361 1.334 . S
N1362 C1363 1.334 . S
C1363 N1362 1.334 . S
C1363 N1364 1.336 . S
N1364 Zn1360 2.020 . S
N1364 C1363 1.336 . S
N1364 N1365 1.354 . S
N1365 C1361 1.336 . S
N1365 N1364 1.354 . S
N1365 Zn1369 2.020 . S
C1366 O1367 1.244 . S
C1366 O1390 1.257 . S
O1367 C1366 1.244 . S
O1368 Zn1360 2.019 . S
O1368 C1388 1.257 . S
Zn1369 N1365 2.020 . S
Zn1369 O1376 1.975 . S
Zn1369 N1385 2.119 . S
Zn1369 O1390 2.019 . S
N1370 Zn1360 2.119 . S
N1370 C1372 1.334 . S
N1370 C1373 1.328 . S
C1371 C1372 1.391 . S
C1371 N1374 1.329 . S
C1371 H1392 0.930 . S
C1372 N1370 1.334 . S
C1372 C1371 1.391 . S
C1372 H1379 0.930 . S
C1373 N1370 1.328 . S
C1373 C1375 1.392 1_556 S
C1373 H1380 0.930 1_556 S
N1374 C1371 1.329 . S
N1374 C1375 1.333 1_556 S
C1375 C1373 1.392 1_554 S
C1375 N1374 1.333 1_554 S
O1376 Zn1369 1.975 . S
O1376 C1377 1.252 . S
C1377 O1376 1.252 . S
C1377 O1378 1.252 . S
O1378 Zn1360 1.975 . S
O1378 C1377 1.252 . S
H1379 C1372 0.930 . S
H1380 C1373 0.930 1_554 S
C1381 C1382 1.392 . S
C1381 N1385 1.328 . S
C1381 H1387 0.930 . S
C1382 C1381 1.392 . S
C1382 N1386 1.331 . S
C1383 C1384 1.391 . S
C1383 N1386 1.329 . S
C1383 H1393 0.930 . S
C1384 C1383 1.391 . S
C1384 N1385 1.334 . S
C1384 H1391 0.930 . S
N1385 Zn1369 2.119 . S
N1385 C1381 1.328 . S
N1385 C1384 1.334 . S
N1386 C1382 1.331 . S
N1386 C1383 1.329 . S
H1387 C1381 0.930 . S
C1388 O1368 1.257 . S
C1388 O1389 1.244 . S
O1389 C1388 1.244 . S
O1390 C1366 1.257 . S
O1390 Zn1369 2.019 . S
H1391 C1384 0.930 . S
H1392 C1371 0.930 . S
H1393 C1383 0.930 . S
Zn1394 N1398 2.020 . S
Zn1394 O1402 2.019 . S
Zn1394 N1404 2.119 . S
Zn1394 O1412 1.975 . S
C1395 N1396 1.334 . S
C1395 N1399 1.336 . S
N1396 C1395 1.334 . S
N1396 C1397 1.334 . S
C1397 N1396 1.334 . S
C1397 N1398 1.336 . S
N1398 Zn1394 2.020 . S
N1398 C1397 1.336 . S
N1398 N1399 1.354 . S
N1399 C1395 1.336 . S
N1399 N1398 1.354 . S
N1399 Zn1403 2.020 . S
C1400 O1401 1.244 . S
C1400 O1424 1.257 . S
O1401 C1400 1.244 . S
O1402 Zn1394 2.019 . S
O1402 C1422 1.257 . S
Zn1403 N1399 2.020 . S
Zn1403 O1410 1.975 . S
Zn1403 N1419 2.119 . S
Zn1403 O1424 2.019 . S
N1404 Zn1394 2.119 . S
N1404 C1406 1.334 . S
N1404 C1407 1.328 . S
C1405 C1406 1.391 . S
C1405 N1408 1.329 . S
C1405 H1426 0.930 . S
C1406 N1404 1.334 . S
C1406 C1405 1.391 . S
C1406 H1413 0.930 . S
C1407 N1404 1.328 . S
C1407 C1409 1.392 . S
C1407 H1414 0.930 . S
N1408 C1405 1.329 . S
N1408 C1409 1.331 . S
C1409 C1407 1.392 . S
C1409 N1408 1.331 . S
O1410 Zn1403 1.975 . S
O1410 C1411 1.252 . S
C1411 O1410 1.252 . S
C1411 O1412 1.252 . S
O1412 Zn1394 1.975 . S
O1412 C1411 1.252 . S
H1413 C1406 0.930 . S
H1414 C1407 0.930 . S
C1415 C1416 1.392 . S
C1415 N1419 1.328 . S
C1415 H1421 0.930 . S
C1416 C1415 1.392 . S
C1416 N1420 1.331 . S
C1417 C1418 1.391 . S
C1417 N1420 1.329 . S
C1417 H1427 0.930 . S
C1418 C1417 1.391 . S
C1418 N1419 1.334 . S
C1418 H1425 0.930 . S
N1419 Zn1403 2.119 . S
N1419 C1415 1.328 . S
N1419 C1418 1.334 . S
N1420 C1416 1.331 . S
N1420 C1417 1.329 . S
H1421 C1415 0.930 . S
C1422 O1402 1.257 . S
C1422 O1423 1.244 . S
O1423 C1422 1.244 . S
O1424 C1400 1.257 . S
O1424 Zn1403 2.019 . S
H1425 C1418 0.930 . S
H1426 C1405 0.930 . S
H1427 C1417 0.930 . S
Zn1428 N1432 2.020 . S
Zn1428 O1436 2.019 . S
Zn1428 N1438 2.119 . S
Zn1428 O1446 1.975 . S
C1429 N1430 1.334 . S
C1429 N1433 1.336 . S
N1430 C1429 1.334 . S
N1430 C1431 1.334 . S
C1431 N1430 1.334 . S
C1431 N1432 1.336 . S
N1432 Zn1428 2.020 . S
N1432 C1431 1.336 . S
N1432 N1433 1.354 . S
N1433 C1429 1.336 . S
N1433 N1432 1.354 . S
N1433 Zn1437 2.020 . S
C1434 O1435 1.244 . S
C1434 O1458 1.257 . S
O1435 C1434 1.244 . S
O1436 Zn1428 2.019 . S
O1436 C1456 1.257 . S
Zn1437 N1433 2.020 . S
Zn1437 O1444 1.975 . S
Zn1437 N1453 2.119 . S
Zn1437 O1458 2.019 . S
N1438 Zn1428 2.119 . S
N1438 C1440 1.334 . S
N1438 C1441 1.328 . S
C1439 C1440 1.391 . S
C1439 N1442 1.329 . S
C1439 H1460 0.930 . S
C1440 N1438 1.334 . S
C1440 C1439 1.391 . S
C1440 H1447 0.930 . S
C1441 N1438 1.328 . S
C1441 C1443 1.392 . S
C1441 H1448 0.930 . S
N1442 C1439 1.329 . S
N1442 C1443 1.331 . S
C1443 C1441 1.392 . S
C1443 N1442 1.331 . S
O1444 Zn1437 1.975 . S
O1444 C1445 1.252 . S
C1445 O1444 1.252 . S
C1445 O1446 1.252 . S
O1446 Zn1428 1.975 . S
O1446 C1445 1.252 . S
H1447 C1440 0.930 . S
H1448 C1441 0.930 . S
C1449 C1450 1.392 . S
C1449 N1453 1.328 . S
C1449 H1455 0.930 . S
C1450 C1449 1.392 . S
C1450 N1454 1.331 . S
C1451 C1452 1.391 . S
C1451 N1454 1.329 . S
C1451 H1461 0.930 . S
C1452 C1451 1.391 . S
C1452 N1453 1.334 . S
C1452 H1459 0.930 . S
N1453 Zn1437 2.119 . S
N1453 C1449 1.328 . S
N1453 C1452 1.334 . S
N1454 C1450 1.331 . S
N1454 C1451 1.329 . S
H1455 C1449 0.930 . S
C1456 O1436 1.257 . S
C1456 O1457 1.244 . S
O1457 C1456 1.244 . S
O1458 C1434 1.257 . S
O1458 Zn1437 2.019 . S
H1459 C1452 0.930 . S
H1460 C1439 0.930 . S
H1461 C1451 0.930 . S
Zn1462 N1466 2.020 . S
Zn1462 O1470 2.019 . S
Zn1462 N1472 2.119 . S
Zn1462 O1480 1.975 . S
C1463 N1464 1.334 . S
C1463 N1467 1.336 . S
N1464 C1463 1.334 . S
N1464 C1465 1.334 . S
C1465 N1464 1.334 . S
C1465 N1466 1.336 . S
N1466 Zn1462 2.020 . S
N1466 C1465 1.336 . S
N1466 N1467 1.354 . S
N1467 C1463 1.336 . S
N1467 N1466 1.354 . S
N1467 Zn1471 2.020 . S
C1468 O1469 1.244 . S
C1468 O1492 1.257 . S
O1469 C1468 1.244 . S
O1470 Zn1462 2.019 . S
O1470 C1490 1.257 . S
Zn1471 N1467 2.020 . S
Zn1471 O1478 1.975 . S
Zn1471 N1487 2.119 . S
Zn1471 O1492 2.019 . S
N1472 Zn1462 2.119 . S
N1472 C1474 1.334 . S
N1472 C1475 1.328 . S
C1473 C1474 1.391 . S
C1473 N1476 1.329 . S
C1473 H1494 0.930 . S
C1474 N1472 1.334 . S
C1474 C1473 1.391 . S
C1474 H1481 0.930 . S
C1475 N1472 1.328 . S
C1475 C1477 1.392 . S
C1475 H1482 0.930 . S
N1476 C1473 1.329 . S
N1476 C1477 1.331 . S
C1477 C1475 1.392 . S
C1477 N1476 1.331 . S
O1478 Zn1471 1.975 . S
O1478 C1479 1.252 . S
C1479 O1478 1.252 . S
C1479 O1480 1.252 . S
O1480 Zn1462 1.975 . S
O1480 C1479 1.252 . S
H1481 C1474 0.930 . S
H1482 C1475 0.930 . S
C1483 C1484 1.392 . S
C1483 N1487 1.328 . S
C1483 H1489 0.930 . S
C1484 C1483 1.392 . S
C1484 N1488 1.331 . S
C1485 C1486 1.391 . S
C1485 N1488 1.329 . S
C1485 H1495 0.930 . S
C1486 C1485 1.391 . S
C1486 N1487 1.334 . S
C1486 H1493 0.930 . S
N1487 Zn1471 2.119 . S
N1487 C1483 1.328 . S
N1487 C1486 1.334 . S
N1488 C1484 1.331 . S
N1488 C1485 1.329 . S
H1489 C1483 0.930 . S
C1490 O1470 1.257 . S
C1490 O1491 1.244 . S
O1491 C1490 1.244 . S
O1492 C1468 1.257 . S
O1492 Zn1471 2.019 . S
H1493 C1486 0.930 . S
H1494 C1473 0.930 . S
H1495 C1485 0.930 . S
Zn1496 N1500 2.020 . S
Zn1496 O1504 2.019 . S
Zn1496 N1506 2.119 . S
Zn1496 O1514 1.975 . S
C1497 N1498 1.334 . S
C1497 N1501 1.336 . S
N1498 C1497 1.334 . S
N1498 C1499 1.334 . S
C1499 N1498 1.334 . S
C1499 N1500 1.336 . S
N1500 Zn1496 2.020 . S
N1500 C1499 1.336 . S
N1500 N1501 1.354 . S
N1501 C1497 1.336 . S
N1501 N1500 1.354 . S
N1501 Zn1505 2.020 . S
C1502 O1503 1.244 . S
C1502 O1526 1.257 . S
O1503 C1502 1.244 . S
O1504 Zn1496 2.019 . S
O1504 C1524 1.257 . S
Zn1505 N1501 2.020 . S
Zn1505 O1512 1.975 . S
Zn1505 N1521 2.119 . S
Zn1505 O1526 2.019 . S
N1506 Zn1496 2.119 . S
N1506 C1508 1.334 . S
N1506 C1509 1.328 . S
C1507 C1508 1.391 . S
C1507 N1510 1.329 . S
C1507 H1528 0.930 . S
C1508 N1506 1.334 . S
C1508 C1507 1.391 . S
C1508 H1515 0.930 . S
C1509 N1506 1.328 . S
C1509 C1511 1.392 . S
C1509 H1516 0.930 . S
N1510 C1507 1.329 . S
N1510 C1511 1.331 . S
C1511 C1509 1.392 . S
C1511 N1510 1.331 . S
O1512 Zn1505 1.975 . S
O1512 C1513 1.252 . S
C1513 O1512 1.252 . S
C1513 O1514 1.252 . S
O1514 Zn1496 1.975 . S
O1514 C1513 1.252 . S
H1515 C1508 0.930 . S
H1516 C1509 0.930 . S
C1517 C1518 1.392 . S
C1517 N1521 1.328 . S
C1517 H1523 0.930 . S
C1518 C1517 1.392 . S
C1518 N1522 1.331 . S
C1519 C1520 1.391 . S
C1519 N1522 1.329 . S
C1519 H1529 0.930 . S
C1520 C1519 1.391 . S
C1520 N1521 1.334 . S
C1520 H1527 0.930 . S
N1521 Zn1505 2.119 . S
N1521 C1517 1.328 . S
N1521 C1520 1.334 . S
N1522 C1518 1.331 . S
N1522 C1519 1.329 . S
H1523 C1517 0.930 . S
C1524 O1504 1.257 . S
C1524 O1525 1.244 . S
O1525 C1524 1.244 . S
O1526 C1502 1.257 . S
O1526 Zn1505 2.019 . S
H1527 C1520 0.930 . S
H1528 C1507 0.930 . S
H1529 C1519 0.930 . S
Zn1530 N1534 2.020 . S
Zn1530 O1538 2.019 . S
Zn1530 N1540 2.119 . S
Zn1530 O1548 1.975 . S
C1531 N1532 1.334 . S
C1531 N1535 1.336 . S
N1532 C1531 1.334 . S
N1532 C1533 1.334 . S
C1533 N1532 1.334 . S
C1533 N1534 1.336 . S
N1534 Zn1530 2.020 . S
N1534 C1533 1.336 . S
N1534 N1535 1.354 . S
N1535 C1531 1.336 . S
N1535 N1534 1.354 . S
N1535 Zn1539 2.020 . S
C1536 O1537 1.244 . S
C1536 O1560 1.257 . S
O1537 C1536 1.244 . S
O1538 Zn1530 2.019 . S
O1538 C1558 1.257 . S
Zn1539 N1535 2.020 . S
Zn1539 O1546 1.975 . S
Zn1539 N1555 2.119 . S
Zn1539 O1560 2.019 . S
N1540 Zn1530 2.119 . S
N1540 C1542 1.334 . S
N1540 C1543 1.328 . S
C1541 C1542 1.391 . S
C1541 N1544 1.329 . S
C1541 H1562 0.930 . S
C1542 N1540 1.334 . S
C1542 C1541 1.391 . S
C1542 H1549 0.930 . S
C1543 N1540 1.328 . S
C1543 C1545 1.392 . S
C1543 H1550 0.930 . S
N1544 C1541 1.329 . S
N1544 C1545 1.331 . S
C1545 C1543 1.392 . S
C1545 N1544 1.331 . S
O1546 Zn1539 1.975 . S
O1546 C1547 1.252 . S
C1547 O1546 1.252 . S
C1547 O1548 1.252 . S
O1548 Zn1530 1.975 . S
O1548 C1547 1.252 . S
H1549 C1542 0.930 . S
H1550 C1543 0.930 . S
C1551 C1552 1.392 1_556 S
C1551 N1555 1.328 . S
C1551 H1557 0.930 1_556 S
C1552 C1551 1.392 1_554 S
C1552 N1556 1.333 1_554 S
C1553 C1554 1.391 . S
C1553 N1556 1.329 . S
C1553 H1563 0.930 . S
C1554 C1553 1.391 . S
C1554 N1555 1.334 . S
C1554 H1561 0.930 . S
N1555 Zn1539 2.119 . S
N1555 C1551 1.328 . S
N1555 C1554 1.334 . S
N1556 C1552 1.333 1_556 S
N1556 C1553 1.329 . S
H1557 C1551 0.930 1_554 S
C1558 O1538 1.257 . S
C1558 O1559 1.244 . S
O1559 C1558 1.244 . S
O1560 C1536 1.257 . S
O1560 Zn1539 2.019 . S
H1561 C1554 0.930 . S
H1562 C1541 0.930 . S
H1563 C1553 0.930 . S
Zn1564 N1568 2.020 . S
Zn1564 O1572 2.019 . S
Zn1564 N1574 2.119 . S
Zn1564 O1582 1.975 . S
C1565 N1566 1.334 . S
C1565 N1569 1.336 . S
N1566 C1565 1.334 . S
N1566 C1567 1.334 . S
C1567 N1566 1.334 . S
C1567 N1568 1.336 . S
N1568 Zn1564 2.020 . S
N1568 C1567 1.336 . S
N1568 N1569 1.354 . S
N1569 C1565 1.336 . S
N1569 N1568 1.354 . S
N1569 Zn1573 2.020 . S
C1570 O1571 1.244 . S
C1570 O1594 1.257 . S
O1571 C1570 1.244 . S
O1572 Zn1564 2.019 . S
O1572 C1592 1.257 . S
Zn1573 N1569 2.020 . S
Zn1573 O1580 1.975 . S
Zn1573 N1589 2.119 . S
Zn1573 O1594 2.019 . S
N1574 Zn1564 2.119 . S
N1574 C1576 1.334 . S
N1574 C1577 1.328 . S
C1575 C1576 1.391 . S
C1575 N1578 1.329 . S
C1575 H1596 0.930 . S
C1576 N1574 1.334 . S
C1576 C1575 1.391 . S
C1576 H1583 0.930 . S
C1577 N1574 1.328 . S
C1577 C1579 1.392 1_556 S
C1577 H1584 0.930 1_556 S
N1578 C1575 1.329 . S
N1578 C1579 1.333 1_556 S
C1579 C1577 1.392 1_554 S
C1579 N1578 1.333 1_554 S
O1580 Zn1573 1.975 . S
O1580 C1581 1.252 . S
C1581 O1580 1.252 . S
C1581 O1582 1.252 . S
O1582 Zn1564 1.975 . S
O1582 C1581 1.252 . S
H1583 C1576 0.930 . S
H1584 C1577 0.930 1_554 S
C1585 C1586 1.392 . S
C1585 N1589 1.328 . S
C1585 H1591 0.930 . S
C1586 C1585 1.392 . S
C1586 N1590 1.331 . S
C1587 C1588 1.391 . S
C1587 N1590 1.329 . S
C1587 H1597 0.930 . S
C1588 C1587 1.391 . S
C1588 N1589 1.334 . S
C1588 H1595 0.930 . S
N1589 Zn1573 2.119 . S
N1589 C1585 1.328 . S
N1589 C1588 1.334 . S
N1590 C1586 1.331 . S
N1590 C1587 1.329 . S
H1591 C1585 0.930 . S
C1592 O1572 1.257 . S
C1592 O1593 1.244 . S
O1593 C1592 1.244 . S
O1594 C1570 1.257 . S
O1594 Zn1573 2.019 . S
H1595 C1588 0.930 . S
H1596 C1575 0.930 . S
H1597 C1587 0.930 . S
Zn1598 N1602 2.020 . S
Zn1598 O1606 2.019 . S
Zn1598 N1608 2.119 . S
Zn1598 O1616 1.975 . S
C1599 N1600 1.334 . S
C1599 N1603 1.336 . S
N1600 C1599 1.334 . S
N1600 C1601 1.334 . S
C1601 N1600 1.334 . S
C1601 N1602 1.336 . S
N1602 Zn1598 2.020 . S
N1602 C1601 1.336 . S
N1602 N1603 1.354 . S
N1603 C1599 1.336 . S
N1603 N1602 1.354 . S
N1603 Zn1607 2.020 . S
C1604 O1605 1.244 . S
C1604 O1628 1.257 . S
O1605 C1604 1.244 . S
O1606 Zn1598 2.019 . S
O1606 C1626 1.257 . S
Zn1607 N1603 2.020 . S
Zn1607 O1614 1.975 . S
Zn1607 N1623 2.119 . S
Zn1607 O1628 2.019 . S
N1608 Zn1598 2.119 . S
N1608 C1610 1.334 . S
N1608 C1611 1.328 . S
C1609 C1610 1.391 . S
C1609 N1612 1.329 . S
C1609 H1630 0.930 . S
C1610 N1608 1.334 . S
C1610 C1609 1.391 . S
C1610 H1617 0.930 . S
C1611 N1608 1.328 . S
C1611 C1613 1.392 1_556 S
C1611 H1618 0.930 1_556 S
N1612 C1609 1.329 . S
N1612 C1613 1.333 1_556 S
C1613 C1611 1.392 1_554 S
C1613 N1612 1.333 1_554 S
O1614 Zn1607 1.975 . S
O1614 C1615 1.252 . S
C1615 O1614 1.252 . S
C1615 O1616 1.252 . S
O1616 Zn1598 1.975 . S
O1616 C1615 1.252 . S
H1617 C1610 0.930 . S
H1618 C1611 0.930 1_554 S
C1619 C1620 1.392 . S
C1619 N1623 1.328 . S
C1619 H1625 0.930 . S
C1620 C1619 1.392 . S
C1620 N1624 1.331 . S
C1621 C1622 1.391 . S
C1621 N1624 1.329 . S
C1621 H1631 0.930 . S
C1622 C1621 1.391 . S
C1622 N1623 1.334 . S
C1622 H1629 0.930 . S
N1623 Zn1607 2.119 . S
N1623 C1619 1.328 . S
N1623 C1622 1.334 . S
N1624 C1620 1.331 . S
N1624 C1621 1.329 . S
H1625 C1619 0.930 . S
C1626 O1606 1.257 . S
C1626 O1627 1.244 . S
O1627 C1626 1.244 . S
O1628 C1604 1.257 . S
O1628 Zn1607 2.019 . S
H1629 C1622 0.930 . S
H1630 C1609 0.930 . S
H1631 C1621 0.930 . S
C1632 C1633 1.369 . S
C1632 C1634 1.419 . S
C1632 H1636 0.930 . S
C1633 C1632 1.369 . S
C1633 C1642 1.429 . S
C1634 C1632 1.419 . S
C1634 C1635 1.363 . S
C1634 H1637 0.929 . S
C1635 C1634 1.363 . S
C1635 C1641 1.428 . S
H1636 C1632 0.930 . S
H1637 C1634 0.929 . S
S1638 N1639 1.613 . S
S1638 N1640 1.610 . S
N1639 S1638 1.613 . S
N1639 C1642 1.350 . S
N1640 S1638 1.610 . S
N1640 C1641 1.351 . S
C1641 C1635 1.428 . S
C1641 N1640 1.351 . S
C1641 C1642 1.434 . S
C1642 C1633 1.429 . S
C1642 N1639 1.350 . S
C1642 C1641 1.434 . S
C1643 C1644 1.369 . S
C1643 C1645 1.419 . S
C1643 H1647 0.930 . S
C1644 C1643 1.369 . S
C1644 C1653 1.429 . S
C1645 C1643 1.419 . S
C1645 C1646 1.363 . S
C1645 H1648 0.929 . S
C1646 C1645 1.363 . S
C1646 C1652 1.428 . S
H1647 C1643 0.930 . S
H1648 C1645 0.929 . S
S1649 N1650 1.613 . S
S1649 N1651 1.610 . S
N1650 S1649 1.613 . S
N1650 C1653 1.350 . S
N1651 S1649 1.610 . S
N1651 C1652 1.351 . S
C1652 C1646 1.428 . S
C1652 N1651 1.351 . S
C1652 C1653 1.434 . S
C1653 C1644 1.429 . S
C1653 N1650 1.350 . S
C1653 C1652 1.434 . S
C1654 C1655 1.369 . S
C1654 C1656 1.419 . S
C1654 H1658 0.930 . S
C1655 C1654 1.369 . S
C1655 C1664 1.429 . S
C1656 C1654 1.419 . S
C1656 C1657 1.363 . S
C1656 H1659 0.929 . S
C1657 C1656 1.363 . S
C1657 C1663 1.428 . S
H1658 C1654 0.930 . S
H1659 C1656 0.929 . S
S1660 N1661 1.613 . S
S1660 N1662 1.610 . S
N1661 S1660 1.613 . S
N1661 C1664 1.350 . S
N1662 S1660 1.610 . S
N1662 C1663 1.351 . S
C1663 C1657 1.428 . S
C1663 N1662 1.351 . S
C1663 C1664 1.434 . S
C1664 C1655 1.429 . S
C1664 N1661 1.350 . S
C1664 C1663 1.434 . S
C1665 C1666 1.369 . S
C1665 C1667 1.419 . S
C1665 H1669 0.930 . S
C1666 C1665 1.369 . S
C1666 C1675 1.429 . S
C1667 C1665 1.419 . S
C1667 C1668 1.363 . S
C1667 H1670 0.929 . S
C1668 C1667 1.363 . S
C1668 C1674 1.428 . S
H1669 C1665 0.930 . S
H1670 C1667 0.929 . S
S1671 N1672 1.613 . S
S1671 N1673 1.610 . S
N1672 S1671 1.613 . S
N1672 C1675 1.350 . S
N1673 S1671 1.610 . S
N1673 C1674 1.351 . S
C1674 C1668 1.428 . S
C1674 N1673 1.351 . S
C1674 C1675 1.434 . S
C1675 C1666 1.429 . S
C1675 N1672 1.350 . S
C1675 C1674 1.434 . S
C1676 C1677 1.369 . S
C1676 C1678 1.419 . S
C1676 H1680 0.930 . S
C1677 C1676 1.369 . S
C1677 C1686 1.429 . S
C1678 C1676 1.419 . S
C1678 C1679 1.363 . S
C1678 H1681 0.929 . S
C1679 C1678 1.363 . S
C1679 C1685 1.428 . S
H1680 C1676 0.930 . S
H1681 C1678 0.929 . S
S1682 N1683 1.613 . S
S1682 N1684 1.610 . S
N1683 S1682 1.613 . S
N1683 C1686 1.350 . S
N1684 S1682 1.610 . S
N1684 C1685 1.351 . S
C1685 C1679 1.428 . S
C1685 N1684 1.351 . S
C1685 C1686 1.434 . S
C1686 C1677 1.429 . S
C1686 N1683 1.350 . S
C1686 C1685 1.434 . S
C1687 C1688 1.369 . S
C1687 C1689 1.419 . S
C1687 H1691 0.930 . S
C1688 C1687 1.369 . S
C1688 C1697 1.429 . S
C1689 C1687 1.419 . S
C1689 C1690 1.363 . S
C1689 H1692 0.929 . S
C1690 C1689 1.363 . S
C1690 C1696 1.428 . S
H1691 C1687 0.930 . S
H1692 C1689 0.929 . S
S1693 N1694 1.613 . S
S1693 N1695 1.610 . S
N1694 S1693 1.613 . S
N1694 C1697 1.350 . S
N1695 S1693 1.610 . S
N1695 C1696 1.351 . S
C1696 C1690 1.428 . S
C1696 N1695 1.351 . S
C1696 C1697 1.434 . S
C1697 C1688 1.429 . S
C1697 N1694 1.350 . S
C1697 C1696 1.434 . S
C1698 C1699 1.369 . S
C1698 C1700 1.419 . S
C1698 H1702 0.930 . S
C1699 C1698 1.369 . S
C1699 C1708 1.429 . S
C1700 C1698 1.419 . S
C1700 C1701 1.363 . S
C1700 H1703 0.929 . S
C1701 C1700 1.363 . S
C1701 C1707 1.428 . S
H1702 C1698 0.930 . S
H1703 C1700 0.929 . S
S1704 N1705 1.613 . S
S1704 N1706 1.610 . S
N1705 S1704 1.613 . S
N1705 C1708 1.350 . S
N1706 S1704 1.610 . S
N1706 C1707 1.351 . S
C1707 C1701 1.428 . S
C1707 N1706 1.351 . S
C1707 C1708 1.434 . S
C1708 C1699 1.429 . S
C1708 N1705 1.350 . S
C1708 C1707 1.434 . S
C1709 C1710 1.369 . S
C1709 C1711 1.419 . S
C1709 H1713 0.930 . S
C1710 C1709 1.369 . S
C1710 C1719 1.429 . S
C1711 C1709 1.419 . S
C1711 C1712 1.363 . S
C1711 H1714 0.929 . S
C1712 C1711 1.363 . S
C1712 C1718 1.428 . S
H1713 C1709 0.930 . S
H1714 C1711 0.929 . S
S1715 N1716 1.613 . S
S1715 N1717 1.610 . S
N1716 S1715 1.613 . S
N1716 C1719 1.350 . S
N1717 S1715 1.610 . S
N1717 C1718 1.351 . S
C1718 C1712 1.428 . S
C1718 N1717 1.351 . S
C1718 C1719 1.434 . S
C1719 C1710 1.429 . S
C1719 N1716 1.350 . S
C1719 C1718 1.434 . S
C1720 C1721 1.369 . S
C1720 C1722 1.419 . S
C1720 H1724 0.930 . S
C1721 C1720 1.369 . S
C1721 C1730 1.429 . S
C1722 C1720 1.419 . S
C1722 C1723 1.363 . S
C1722 H1725 0.929 . S
C1723 C1722 1.363 . S
C1723 C1729 1.428 . S
H1724 C1720 0.930 . S
H1725 C1722 0.929 . S
S1726 N1727 1.613 . S
S1726 N1728 1.610 . S
N1727 S1726 1.613 . S
N1727 C1730 1.350 . S
N1728 S1726 1.610 . S
N1728 C1729 1.351 . S
C1729 C1723 1.428 . S
C1729 N1728 1.351 . S
C1729 C1730 1.434 . S
C1730 C1721 1.429 . S
C1730 N1727 1.350 . S
C1730 C1729 1.434 . S
C1731 C1732 1.369 . S
C1731 C1733 1.419 . S
C1731 H1735 0.930 . S
C1732 C1731 1.369 . S
C1732 C1741 1.429 . S
C1733 C1731 1.419 . S
C1733 C1734 1.363 . S
C1733 H1736 0.929 . S
C1734 C1733 1.363 . S
C1734 C1740 1.428 . S
H1735 C1731 0.930 . S
H1736 C1733 0.929 . S
S1737 N1738 1.613 . S
S1737 N1739 1.610 . S
N1738 S1737 1.613 . S
N1738 C1741 1.350 . S
N1739 S1737 1.610 . S
N1739 C1740 1.351 . S
C1740 C1734 1.428 . S
C1740 N1739 1.351 . S
C1740 C1741 1.434 . S
C1741 C1732 1.429 . S
C1741 N1738 1.350 . S
C1741 C1740 1.434 . S
C1742 C1743 1.369 . S
C1742 C1744 1.419 . S
C1742 H1746 0.930 . S
C1743 C1742 1.369 . S
C1743 C1752 1.429 . S
C1744 C1742 1.419 . S
C1744 C1745 1.363 . S
C1744 H1747 0.929 . S
C1745 C1744 1.363 . S
C1745 C1751 1.428 . S
H1746 C1742 0.930 . S
H1747 C1744 0.929 . S
S1748 N1749 1.613 . S
S1748 N1750 1.610 . S
N1749 S1748 1.613 . S
N1749 C1752 1.350 . S
N1750 S1748 1.610 . S
N1750 C1751 1.351 . S
C1751 C1745 1.428 . S
C1751 N1750 1.351 . S
C1751 C1752 1.434 . S
C1752 C1743 1.429 . S
C1752 N1749 1.350 . S
C1752 C1751 1.434 . S
C1753 C1754 1.369 . S
C1753 C1755 1.419 . S
C1753 H1757 0.930 . S
C1754 C1753 1.369 . S
C1754 C1763 1.429 . S
C1755 C1753 1.419 . S
C1755 C1756 1.363 . S
C1755 H1758 0.929 . S
C1756 C1755 1.363 . S
C1756 C1762 1.428 . S
H1757 C1753 0.930 . S
H1758 C1755 0.929 . S
S1759 N1760 1.613 . S
S1759 N1761 1.610 . S
N1760 S1759 1.613 . S
N1760 C1763 1.350 . S
N1761 S1759 1.610 . S
N1761 C1762 1.351 . S
C1762 C1756 1.428 . S
C1762 N1761 1.351 . S
C1762 C1763 1.434 . S
C1763 C1754 1.429 . S
C1763 N1760 1.350 . S
C1763 C1762 1.434 . S
C1764 C1765 1.369 . S
C1764 C1766 1.419 . S
C1764 H1768 0.930 . S
C1765 C1764 1.369 . S
C1765 C1774 1.429 . S
C1766 C1764 1.419 . S
C1766 C1767 1.363 . S
C1766 H1769 0.929 . S
C1767 C1766 1.363 . S
C1767 C1773 1.428 . S
H1768 C1764 0.930 . S
H1769 C1766 0.929 . S
S1770 N1771 1.613 . S
S1770 N1772 1.610 . S
N1771 S1770 1.613 . S
N1771 C1774 1.350 . S
N1772 S1770 1.610 . S
N1772 C1773 1.351 . S
C1773 C1767 1.428 . S
C1773 N1772 1.351 . S
C1773 C1774 1.434 . S
C1774 C1765 1.429 . S
C1774 N1771 1.350 . S
C1774 C1773 1.434 . S
C1775 C1776 1.369 . S
C1775 C1777 1.419 . S
C1775 H1779 0.930 . S
C1776 C1775 1.369 . S
C1776 C1785 1.429 . S
C1777 C1775 1.419 . S
C1777 C1778 1.363 . S
C1777 H1780 0.929 . S
C1778 C1777 1.363 . S
C1778 C1784 1.428 . S
H1779 C1775 0.930 . S
H1780 C1777 0.929 . S
S1781 N1782 1.613 . S
S1781 N1783 1.610 . S
N1782 S1781 1.613 . S
N1782 C1785 1.350 . S
N1783 S1781 1.610 . S
N1783 C1784 1.351 . S
C1784 C1778 1.428 . S
C1784 N1783 1.351 . S
C1784 C1785 1.434 . S
C1785 C1776 1.429 . S
C1785 N1782 1.350 . S
C1785 C1784 1.434 . S
C1786 C1787 1.369 . S
C1786 C1788 1.419 . S
C1786 H1790 0.930 . S
C1787 C1786 1.369 . S
C1787 C1796 1.429 . S
C1788 C1786 1.419 . S
C1788 C1789 1.363 . S
C1788 H1791 0.929 . S
C1789 C1788 1.363 . S
C1789 C1795 1.428 . S
H1790 C1786 0.930 . S
H1791 C1788 0.929 . S
S1792 N1793 1.613 . S
S1792 N1794 1.610 . S
N1793 S1792 1.613 . S
N1793 C1796 1.350 . S
N1794 S1792 1.610 . S
N1794 C1795 1.351 . S
C1795 C1789 1.428 . S
C1795 N1794 1.351 . S
C1795 C1796 1.434 . S
C1796 C1787 1.429 . S
C1796 N1793 1.350 . S
C1796 C1795 1.434 . S
C1797 C1798 1.369 . S
C1797 C1799 1.419 . S
C1797 H1801 0.930 . S
C1798 C1797 1.369 . S
C1798 C1807 1.429 . S
C1799 C1797 1.419 . S
C1799 C1800 1.363 . S
C1799 H1802 0.929 . S
C1800 C1799 1.363 . S
C1800 C1806 1.428 . S
H1801 C1797 0.930 . S
H1802 C1799 0.929 . S
S1803 N1804 1.613 . S
S1803 N1805 1.610 . S
N1804 S1803 1.613 . S
N1804 C1807 1.350 . S
N1805 S1803 1.610 . S
N1805 C1806 1.351 . S
C1806 C1800 1.428 . S
C1806 N1805 1.351 . S
C1806 C1807 1.434 . S
C1807 C1798 1.429 . S
C1807 N1804 1.350 . S
C1807 C1806 1.434 . S
C1808 C1809 1.369 . S
C1808 C1810 1.419 . S
C1808 H1812 0.930 . S
C1809 C1808 1.369 . S
C1809 C1818 1.429 . S
C1810 C1808 1.419 . S
C1810 C1811 1.363 . S
C1810 H1813 0.929 . S
C1811 C1810 1.363 . S
C1811 C1817 1.428 . S
H1812 C1808 0.930 . S
H1813 C1810 0.929 . S
S1814 N1815 1.613 . S
S1814 N1816 1.610 . S
N1815 S1814 1.613 . S
N1815 C1818 1.350 . S
N1816 S1814 1.610 . S
N1816 C1817 1.351 . S
C1817 C1811 1.428 . S
C1817 N1816 1.351 . S
C1817 C1818 1.434 . S
C1818 C1809 1.429 . S
C1818 N1815 1.350 . S
C1818 C1817 1.434 . S
C1819 C1820 1.369 . S
C1819 C1821 1.419 . S
C1819 H1823 0.930 . S
C1820 C1819 1.369 . S
C1820 C1829 1.429 . S
C1821 C1819 1.419 . S
C1821 C1822 1.363 . S
C1821 H1824 0.929 . S
C1822 C1821 1.363 . S
C1822 C1828 1.428 . S
H1823 C1819 0.930 . S
H1824 C1821 0.929 . S
S1825 N1826 1.613 . S
S1825 N1827 1.610 . S
N1826 S1825 1.613 . S
N1826 C1829 1.350 . S
N1827 S1825 1.610 . S
N1827 C1828 1.351 . S
C1828 C1822 1.428 . S
C1828 N1827 1.351 . S
C1828 C1829 1.434 . S
C1829 C1820 1.429 . S
C1829 N1826 1.350 . S
C1829 C1828 1.434 . S
C1830 C1831 1.369 . S
C1830 C1832 1.419 . S
C1830 H1834 0.930 . S
C1831 C1830 1.369 . S
C1831 C1840 1.429 . S
C1832 C1830 1.419 . S
C1832 C1833 1.363 . S
C1832 H1835 0.929 . S
C1833 C1832 1.363 . S
C1833 C1839 1.428 . S
H1834 C1830 0.930 . S
H1835 C1832 0.929 . S
S1836 N1837 1.613 . S
S1836 N1838 1.610 . S
N1837 S1836 1.613 . S
N1837 C1840 1.350 . S
N1838 S1836 1.610 . S
N1838 C1839 1.351 . S
C1839 C1833 1.428 . S
C1839 N1838 1.351 . S
C1839 C1840 1.434 . S
C1840 C1831 1.429 . S
C1840 N1837 1.350 . S
C1840 C1839 1.434 . S
C1841 C1842 1.369 . S
C1841 C1843 1.419 . S
C1841 H1845 0.930 . S
C1842 C1841 1.369 . S
C1842 C1851 1.429 . S
C1843 C1841 1.419 . S
C1843 C1844 1.363 . S
C1843 H1846 0.929 . S
C1844 C1843 1.363 . S
C1844 C1850 1.428 . S
H1845 C1841 0.930 . S
H1846 C1843 0.929 . S
S1847 N1848 1.613 . S
S1847 N1849 1.610 . S
N1848 S1847 1.613 . S
N1848 C1851 1.350 . S
N1849 S1847 1.610 . S
N1849 C1850 1.351 . S
C1850 C1844 1.428 . S
C1850 N1849 1.351 . S
C1850 C1851 1.434 . S
C1851 C1842 1.429 . S
C1851 N1848 1.350 . S
C1851 C1850 1.434 . S
C1852 C1853 1.369 . S
C1852 C1854 1.419 . S
C1852 H1856 0.930 . S
C1853 C1852 1.369 . S
C1853 C1862 1.429 . S
C1854 C1852 1.419 . S
C1854 C1855 1.363 . S
C1854 H1857 0.929 . S
C1855 C1854 1.363 . S
C1855 C1861 1.428 . S
H1856 C1852 0.930 . S
H1857 C1854 0.929 . S
S1858 N1859 1.613 . S
S1858 N1860 1.610 . S
N1859 S1858 1.613 . S
N1859 C1862 1.350 . S
N1860 S1858 1.610 . S
N1860 C1861 1.351 . S
C1861 C1855 1.428 . S
C1861 N1860 1.351 . S
C1861 C1862 1.434 . S
C1862 C1853 1.429 . S
C1862 N1859 1.350 . S
C1862 C1861 1.434 . S
C1863 C1864 1.369 . S
C1863 C1865 1.419 . S
C1863 H1867 0.930 . S
C1864 C1863 1.369 . S
C1864 C1873 1.429 . S
C1865 C1863 1.419 . S
C1865 C1866 1.363 . S
C1865 H1868 0.929 . S
C1866 C1865 1.363 . S
C1866 C1872 1.428 . S
H1867 C1863 0.930 . S
H1868 C1865 0.929 . S
S1869 N1870 1.613 . S
S1869 N1871 1.610 . S
N1870 S1869 1.613 . S
N1870 C1873 1.350 . S
N1871 S1869 1.610 . S
N1871 C1872 1.351 . S
C1872 C1866 1.428 . S
C1872 N1871 1.351 . S
C1872 C1873 1.434 . S
C1873 C1864 1.429 . S
C1873 N1870 1.350 . S
C1873 C1872 1.434 . S
C1874 C1875 1.369 . S
C1874 C1876 1.419 . S
C1874 H1878 0.930 . S
C1875 C1874 1.369 . S
C1875 C1884 1.429 . S
C1876 C1874 1.419 . S
C1876 C1877 1.363 . S
C1876 H1879 0.929 . S
C1877 C1876 1.363 . S
C1877 C1883 1.428 . S
H1878 C1874 0.930 . S
H1879 C1876 0.929 . S
S1880 N1881 1.613 . S
S1880 N1882 1.610 . S
N1881 S1880 1.613 . S
N1881 C1884 1.350 . S
N1882 S1880 1.610 . S
N1882 C1883 1.351 . S
C1883 C1877 1.428 . S
C1883 N1882 1.351 . S
C1883 C1884 1.434 . S
C1884 C1875 1.429 . S
C1884 N1881 1.350 . S
C1884 C1883 1.434 . S
C1885 C1886 1.369 . S
C1885 C1887 1.419 . S
C1885 H1889 0.930 . S
C1886 C1885 1.369 . S
C1886 C1895 1.429 . S
C1887 C1885 1.419 . S
C1887 C1888 1.363 . S
C1887 H1890 0.929 . S
C1888 C1887 1.363 . S
C1888 C1894 1.428 . S
H1889 C1885 0.930 . S
H1890 C1887 0.929 . S
S1891 N1892 1.613 . S
S1891 N1893 1.610 . S
N1892 S1891 1.613 . S
N1892 C1895 1.350 . S
N1893 S1891 1.610 . S
N1893 C1894 1.351 . S
C1894 C1888 1.428 . S
C1894 N1893 1.351 . S
C1894 C1895 1.434 . S
C1895 C1886 1.429 . S
C1895 N1892 1.350 . S
C1895 C1894 1.434 . S
C1896 C1897 1.369 . S
C1896 C1898 1.419 . S
C1896 H1900 0.930 . S
C1897 C1896 1.369 . S
C1897 C1906 1.429 . S
C1898 C1896 1.419 . S
C1898 C1899 1.363 . S
C1898 H1901 0.929 . S
C1899 C1898 1.363 . S
C1899 C1905 1.428 . S
H1900 C1896 0.930 . S
H1901 C1898 0.929 . S
S1902 N1903 1.613 . S
S1902 N1904 1.610 . S
N1903 S1902 1.613 . S
N1903 C1906 1.350 . S
N1904 S1902 1.610 . S
N1904 C1905 1.351 . S
C1905 C1899 1.428 . S
C1905 N1904 1.351 . S
C1905 C1906 1.434 . S
C1906 C1897 1.429 . S
C1906 N1903 1.350 . S
C1906 C1905 1.434 . S
C1907 C1908 1.369 . S
C1907 C1909 1.419 . S
C1907 H1911 0.930 . S
C1908 C1907 1.369 . S
C1908 C1917 1.429 . S
C1909 C1907 1.419 . S
C1909 C1910 1.363 . S
C1909 H1912 0.929 . S
C1910 C1909 1.363 . S
C1910 C1916 1.428 . S
H1911 C1907 0.930 . S
H1912 C1909 0.929 . S
S1913 N1914 1.613 . S
S1913 N1915 1.610 . S
N1914 S1913 1.613 . S
N1914 C1917 1.350 . S
N1915 S1913 1.610 . S
N1915 C1916 1.351 . S
C1916 C1910 1.428 . S
C1916 N1915 1.351 . S
C1916 C1917 1.434 . S
C1917 C1908 1.429 . S
C1917 N1914 1.350 . S
C1917 C1916 1.434 . S
C1918 C1919 1.369 . S
C1918 C1920 1.419 . S
C1918 H1922 0.930 . S
C1919 C1918 1.369 . S
C1919 C1928 1.429 . S
C1920 C1918 1.419 . S
C1920 C1921 1.363 . S
C1920 H1923 0.929 . S
C1921 C1920 1.363 . S
C1921 C1927 1.428 . S
H1922 C1918 0.930 . S
H1923 C1920 0.929 . S
S1924 N1925 1.613 . S
S1924 N1926 1.610 . S
N1925 S1924 1.613 . S
N1925 C1928 1.350 . S
N1926 S1924 1.610 . S
N1926 C1927 1.351 . S
C1927 C1921 1.428 . S
C1927 N1926 1.351 . S
C1927 C1928 1.434 . S
C1928 C1919 1.429 . S
C1928 N1925 1.350 . S
C1928 C1927 1.434 . S
C1929 C1930 1.369 . S
C1929 C1931 1.419 . S
C1929 H1933 0.930 . S
C1930 C1929 1.369 . S
C1930 C1939 1.429 . S
C1931 C1929 1.419 . S
C1931 C1932 1.363 . S
C1931 H1934 0.929 . S
C1932 C1931 1.363 . S
C1932 C1938 1.428 . S
H1933 C1929 0.930 . S
H1934 C1931 0.929 . S
S1935 N1936 1.613 . S
S1935 N1937 1.610 . S
N1936 S1935 1.613 . S
N1936 C1939 1.350 . S
N1937 S1935 1.610 . S
N1937 C1938 1.351 . S
C1938 C1932 1.428 . S
C1938 N1937 1.351 . S
C1938 C1939 1.434 . S
C1939 C1930 1.429 . S
C1939 N1936 1.350 . S
C1939 C1938 1.434 . S
C1940 C1941 1.369 . S
C1940 C1942 1.419 . S
C1940 H1944 0.930 . S
C1941 C1940 1.369 . S
C1941 C1950 1.429 . S
C1942 C1940 1.419 . S
C1942 C1943 1.363 . S
C1942 H1945 0.929 . S
C1943 C1942 1.363 . S
C1943 C1949 1.428 . S
H1944 C1940 0.930 . S
H1945 C1942 0.929 . S
S1946 N1947 1.613 . S
S1946 N1948 1.610 . S
N1947 S1946 1.613 . S
N1947 C1950 1.350 . S
N1948 S1946 1.610 . S
N1948 C1949 1.351 . S
C1949 C1943 1.428 . S
C1949 N1948 1.351 . S
C1949 C1950 1.434 . S
C1950 C1941 1.429 . S
C1950 N1947 1.350 . S
C1950 C1949 1.434 . S
C1951 C1952 1.369 . S
C1951 C1953 1.419 . S
C1951 H1955 0.930 . S
C1952 C1951 1.369 . S
C1952 C1961 1.429 . S
C1953 C1951 1.419 . S
C1953 C1954 1.363 . S
C1953 H1956 0.929 . S
C1954 C1953 1.363 . S
C1954 C1960 1.428 . S
H1955 C1951 0.930 . S
H1956 C1953 0.929 . S
S1957 N1958 1.613 . S
S1957 N1959 1.610 . S
N1958 S1957 1.613 . S
N1958 C1961 1.350 . S
N1959 S1957 1.610 . S
N1959 C1960 1.351 . S
C1960 C1954 1.428 . S
C1960 N1959 1.351 . S
C1960 C1961 1.434 . S
C1961 C1952 1.429 . S
C1961 N1958 1.350 . S
C1961 C1960 1.434 . S
C1962 C1963 1.369 . S
C1962 C1964 1.419 . S
C1962 H1966 0.930 . S
C1963 C1962 1.369 . S
C1963 C1972 1.429 . S
C1964 C1962 1.419 . S
C1964 C1965 1.363 . S
C1964 H1967 0.929 . S
C1965 C1964 1.363 . S
C1965 C1971 1.428 . S
H1966 C1962 0.930 . S
H1967 C1964 0.929 . S
S1968 N1969 1.613 . S
S1968 N1970 1.610 . S
N1969 S1968 1.613 . S
N1969 C1972 1.350 . S
N1970 S1968 1.610 . S
N1970 C1971 1.351 . S
C1971 C1965 1.428 . S
C1971 N1970 1.351 . S
C1971 C1972 1.434 . S
C1972 C1963 1.429 . S
C1972 N1969 1.350 . S
C1972 C1971 1.434 . S
C1973 C1974 1.369 . S
C1973 C1975 1.419 . S
C1973 H1977 0.930 . S
C1974 C1973 1.369 . S
C1974 C1983 1.429 . S
C1975 C1973 1.419 . S
C1975 C1976 1.363 . S
C1975 H1978 0.929 . S
C1976 C1975 1.363 . S
C1976 C1982 1.428 . S
H1977 C1973 0.930 . S
H1978 C1975 0.929 . S
S1979 N1980 1.613 . S
S1979 N1981 1.610 . S
N1980 S1979 1.613 . S
N1980 C1983 1.350 . S
N1981 S1979 1.610 . S
N1981 C1982 1.351 . S
C1982 C1976 1.428 . S
C1982 N1981 1.351 . S
C1982 C1983 1.434 . S
C1983 C1974 1.429 . S
C1983 N1980 1.350 . S
C1983 C1982 1.434 . S
C1984 C1985 1.369 . S
C1984 C1986 1.419 . S
C1984 H1988 0.930 . S
C1985 C1984 1.369 . S
C1985 C1994 1.429 . S
C1986 C1984 1.419 . S
C1986 C1987 1.363 . S
C1986 H1989 0.929 . S
C1987 C1986 1.363 . S
C1987 C1993 1.428 . S
H1988 C1984 0.930 . S
H1989 C1986 0.929 . S
S1990 N1991 1.613 . S
S1990 N1992 1.610 . S
N1991 S1990 1.613 . S
N1991 C1994 1.350 . S
N1992 S1990 1.610 . S
N1992 C1993 1.351 . S
C1993 C1987 1.428 . S
C1993 N1992 1.351 . S
C1993 C1994 1.434 . S
C1994 C1985 1.429 . S
C1994 N1991 1.350 . S
C1994 C1993 1.434 . S
C1995 C1996 1.369 . S
C1995 C1997 1.419 . S
C1995 H1999 0.930 . S
C1996 C1995 1.369 . S
C1996 C2005 1.429 . S
C1997 C1995 1.419 . S
C1997 C1998 1.363 . S
C1997 H2000 0.929 . S
C1998 C1997 1.363 . S
C1998 C2004 1.428 . S
H1999 C1995 0.930 . S
H2000 C1997 0.929 . S
S2001 N2002 1.613 . S
S2001 N2003 1.610 . S
N2002 S2001 1.613 . S
N2002 C2005 1.350 . S
N2003 S2001 1.610 . S
N2003 C2004 1.351 . S
C2004 C1998 1.428 . S
C2004 N2003 1.351 . S
C2004 C2005 1.434 . S
C2005 C1996 1.429 . S
C2005 N2002 1.350 . S
C2005 C2004 1.434 . S
C2006 C2007 1.369 . S
C2006 C2008 1.419 . S
C2006 H2010 0.930 . S
C2007 C2006 1.369 . S
C2007 C2016 1.429 . S
C2008 C2006 1.419 . S
C2008 C2009 1.363 . S
C2008 H2011 0.929 . S
C2009 C2008 1.363 . S
C2009 C2015 1.428 . S
H2010 C2006 0.930 . S
H2011 C2008 0.929 . S
S2012 N2013 1.613 . S
S2012 N2014 1.610 . S
N2013 S2012 1.613 . S
N2013 C2016 1.350 . S
N2014 S2012 1.610 . S
N2014 C2015 1.351 . S
C2015 C2009 1.428 . S
C2015 N2014 1.351 . S
C2015 C2016 1.434 . S
C2016 C2007 1.429 . S
C2016 N2013 1.350 . S
C2016 C2015 1.434 . S
C2017 C2018 1.369 . S
C2017 C2019 1.419 . S
C2017 H2021 0.930 . S
C2018 C2017 1.369 . S
C2018 C2027 1.429 . S
C2019 C2017 1.419 . S
C2019 C2020 1.363 . S
C2019 H2022 0.929 . S
C2020 C2019 1.363 . S
C2020 C2026 1.428 . S
H2021 C2017 0.930 . S
H2022 C2019 0.929 . S
S2023 N2024 1.613 . S
S2023 N2025 1.610 . S
N2024 S2023 1.613 . S
N2024 C2027 1.350 . S
N2025 S2023 1.610 . S
N2025 C2026 1.351 . S
C2026 C2020 1.428 . S
C2026 N2025 1.351 . S
C2026 C2027 1.434 . S
C2027 C2018 1.429 . S
C2027 N2024 1.350 . S
C2027 C2026 1.434 . S
C2028 C2029 1.369 . S
C2028 C2030 1.419 . S
C2028 H2032 0.930 . S
C2029 C2028 1.369 . S
C2029 C2038 1.429 . S
C2030 C2028 1.419 . S
C2030 C2031 1.363 . S
C2030 H2033 0.929 . S
C2031 C2030 1.363 . S
C2031 C2037 1.428 . S
H2032 C2028 0.930 . S
H2033 C2030 0.929 . S
S2034 N2035 1.613 . S
S2034 N2036 1.610 . S
N2035 S2034 1.613 . S
N2035 C2038 1.350 . S
N2036 S2034 1.610 . S
N2036 C2037 1.351 . S
C2037 C2031 1.428 . S
C2037 N2036 1.351 . S
C2037 C2038 1.434 . S
C2038 C2029 1.429 . S
C2038 N2035 1.350 . S
C2038 C2037 1.434 . S
C2039 C2040 1.369 . S
C2039 C2041 1.419 . S
C2039 H2043 0.930 . S
C2040 C2039 1.369 . S
C2040 C2049 1.429 . S
C2041 C2039 1.419 . S
C2041 C2042 1.363 . S
C2041 H2044 0.929 . S
C2042 C2041 1.363 . S
C2042 C2048 1.428 . S
H2043 C2039 0.930 . S
H2044 C2041 0.929 . S
S2045 N2046 1.613 . S
S2045 N2047 1.610 . S
N2046 S2045 1.613 . S
N2046 C2049 1.350 . S
N2047 S2045 1.610 . S
N2047 C2048 1.351 . S
C2048 C2042 1.428 . S
C2048 N2047 1.351 . S
C2048 C2049 1.434 . S
C2049 C2040 1.429 . S
C2049 N2046 1.350 . S
C2049 C2048 1.434 . S
C2050 C2051 1.369 . S
C2050 C2052 1.419 . S
C2050 H2054 0.930 . S
C2051 C2050 1.369 . S
C2051 C2060 1.429 . S
C2052 C2050 1.419 . S
C2052 C2053 1.363 . S
C2052 H2055 0.929 . S
C2053 C2052 1.363 . S
C2053 C2059 1.428 . S
H2054 C2050 0.930 . S
H2055 C2052 0.929 . S
S2056 N2057 1.613 . S
S2056 N2058 1.610 . S
N2057 S2056 1.613 . S
N2057 C2060 1.350 . S
N2058 S2056 1.610 . S
N2058 C2059 1.351 . S
C2059 C2053 1.428 . S
C2059 N2058 1.351 . S
C2059 C2060 1.434 . S
C2060 C2051 1.429 . S
C2060 N2057 1.350 . S
C2060 C2059 1.434 . S
C2061 C2062 1.369 . S
C2061 C2063 1.419 . S
C2061 H2065 0.930 . S
C2062 C2061 1.369 . S
C2062 C2071 1.429 . S
C2063 C2061 1.419 . S
C2063 C2064 1.363 . S
C2063 H2066 0.929 . S
C2064 C2063 1.363 . S
C2064 C2070 1.428 . S
H2065 C2061 0.930 . S
H2066 C2063 0.929 . S
S2067 N2068 1.613 . S
S2067 N2069 1.610 . S
N2068 S2067 1.613 . S
N2068 C2071 1.350 . S
N2069 S2067 1.610 . S
N2069 C2070 1.351 . S
C2070 C2064 1.428 . S
C2070 N2069 1.351 . S
C2070 C2071 1.434 . S
C2071 C2062 1.429 . S
C2071 N2068 1.350 . S
C2071 C2070 1.434 . S
C2072 C2073 1.369 . S
C2072 C2074 1.419 . S
C2072 H2076 0.930 . S
C2073 C2072 1.369 . S
C2073 C2082 1.429 . S
C2074 C2072 1.419 . S
C2074 C2075 1.363 . S
C2074 H2077 0.929 . S
C2075 C2074 1.363 . S
C2075 C2081 1.428 . S
H2076 C2072 0.930 . S
H2077 C2074 0.929 . S
S2078 N2079 1.613 . S
S2078 N2080 1.610 . S
N2079 S2078 1.613 . S
N2079 C2082 1.350 . S
N2080 S2078 1.610 . S
N2080 C2081 1.351 . S
C2081 C2075 1.428 . S
C2081 N2080 1.351 . S
C2081 C2082 1.434 . S
C2082 C2073 1.429 . S
C2082 N2079 1.350 . S
C2082 C2081 1.434 . S
C2083 C2084 1.369 . S
C2083 C2085 1.419 . S
C2083 H2087 0.930 . S
C2084 C2083 1.369 . S
C2084 C2093 1.429 . S
C2085 C2083 1.419 . S
C2085 C2086 1.363 . S
C2085 H2088 0.929 . S
C2086 C2085 1.363 . S
C2086 C2092 1.428 . S
H2087 C2083 0.930 . S
H2088 C2085 0.929 . S
S2089 N2090 1.613 . S
S2089 N2091 1.610 . S
N2090 S2089 1.613 . S
N2090 C2093 1.350 . S
N2091 S2089 1.610 . S
N2091 C2092 1.351 . S
C2092 C2086 1.428 . S
C2092 N2091 1.351 . S
C2092 C2093 1.434 . S
C2093 C2084 1.429 . S
C2093 N2090 1.350 . S
C2093 C2092 1.434 . S
C2094 C2095 1.369 . S
C2094 C2096 1.419 . S
C2094 H2098 0.930 . S
C2095 C2094 1.369 . S
C2095 C2104 1.429 . S
C2096 C2094 1.419 . S
C2096 C2097 1.363 . S
C2096 H2099 0.929 . S
C2097 C2096 1.363 . S
C2097 C2103 1.428 . S
H2098 C2094 0.930 . S
H2099 C2096 0.929 . S
S2100 N2101 1.613 . S
S2100 N2102 1.610 . S
N2101 S2100 1.613 . S
N2101 C2104 1.350 . S
N2102 S2100 1.610 . S
N2102 C2103 1.351 . S
C2103 C2097 1.428 . S
C2103 N2102 1.351 . S
C2103 C2104 1.434 . S
C2104 C2095 1.429 . S
C2104 N2101 1.350 . S
C2104 C2103 1.434 . S
C2105 C2106 1.369 . S
C2105 C2107 1.419 . S
C2105 H2109 0.930 . S
C2106 C2105 1.369 . S
C2106 C2115 1.429 . S
C2107 C2105 1.419 . S
C2107 C2108 1.363 . S
C2107 H2110 0.929 . S
C2108 C2107 1.363 . S
C2108 C2114 1.428 . S
H2109 C2105 0.930 . S
H2110 C2107 0.929 . S
S2111 N2112 1.613 . S
S2111 N2113 1.610 . S
N2112 S2111 1.613 . S
N2112 C2115 1.350 . S
N2113 S2111 1.610 . S
N2113 C2114 1.351 . S
C2114 C2108 1.428 . S
C2114 N2113 1.351 . S
C2114 C2115 1.434 . S
C2115 C2106 1.429 . S
C2115 N2112 1.350 . S
C2115 C2114 1.434 . S
C2116 C2117 1.369 . S
C2116 C2118 1.419 . S
C2116 H2120 0.930 . S
C2117 C2116 1.369 . S
C2117 C2126 1.429 . S
C2118 C2116 1.419 . S
C2118 C2119 1.363 . S
C2118 H2121 0.929 . S
C2119 C2118 1.363 . S
C2119 C2125 1.428 . S
H2120 C2116 0.930 . S
H2121 C2118 0.929 . S
S2122 N2123 1.613 . S
S2122 N2124 1.610 . S
N2123 S2122 1.613 . S
N2123 C2126 1.350 . S
N2124 S2122 1.610 . S
N2124 C2125 1.351 . S
C2125 C2119 1.428 . S
C2125 N2124 1.351 . S
C2125 C2126 1.434 . S
C2126 C2117 1.429 . S
C2126 N2123 1.350 . S
C2126 C2125 1.434 . S
C2127 C2128 1.369 . S
C2127 C2129 1.419 . S
C2127 H2131 0.930 . S
C2128 C2127 1.369 . S
C2128 C2137 1.429 . S
C2129 C2127 1.419 . S
C2129 C2130 1.363 . S
C2129 H2132 0.929 . S
C2130 C2129 1.363 . S
C2130 C2136 1.428 . S
H2131 C2127 0.930 . S
H2132 C2129 0.929 . S
S2133 N2134 1.613 . S
S2133 N2135 1.610 . S
N2134 S2133 1.613 . S
N2134 C2137 1.350 . S
N2135 S2133 1.610 . S
N2135 C2136 1.351 . S
C2136 C2130 1.428 . S
C2136 N2135 1.351 . S
C2136 C2137 1.434 . S
C2137 C2128 1.429 . S
C2137 N2134 1.350 . S
C2137 C2136 1.434 . S
C2138 C2139 1.369 . S
C2138 C2140 1.419 . S
C2138 H2142 0.930 . S
C2139 C2138 1.369 . S
C2139 C2148 1.429 . S
C2140 C2138 1.419 . S
C2140 C2141 1.363 . S
C2140 H2143 0.929 . S
C2141 C2140 1.363 . S
C2141 C2147 1.428 . S
H2142 C2138 0.930 . S
H2143 C2140 0.929 . S
S2144 N2145 1.613 . S
S2144 N2146 1.610 . S
N2145 S2144 1.613 . S
N2145 C2148 1.350 . S
N2146 S2144 1.610 . S
N2146 C2147 1.351 . S
C2147 C2141 1.428 . S
C2147 N2146 1.351 . S
C2147 C2148 1.434 . S
C2148 C2139 1.429 . S
C2148 N2145 1.350 . S
C2148 C2147 1.434 . S
C2149 C2150 1.369 . S
C2149 C2151 1.419 . S
C2149 H2153 0.930 . S
C2150 C2149 1.369 . S
C2150 C2159 1.429 . S
C2151 C2149 1.419 . S
C2151 C2152 1.363 . S
C2151 H2154 0.929 . S
C2152 C2151 1.363 . S
C2152 C2158 1.428 . S
H2153 C2149 0.930 . S
H2154 C2151 0.929 . S
S2155 N2156 1.613 . S
S2155 N2157 1.610 . S
N2156 S2155 1.613 . S
N2156 C2159 1.350 . S
N2157 S2155 1.610 . S
N2157 C2158 1.351 . S
C2158 C2152 1.428 . S
C2158 N2157 1.351 . S
C2158 C2159 1.434 . S
C2159 C2150 1.429 . S
C2159 N2156 1.350 . S
C2159 C2158 1.434 . S
C2160 C2161 1.369 . S
C2160 C2162 1.419 . S
C2160 H2164 0.930 . S
C2161 C2160 1.369 . S
C2161 C2170 1.429 . S
C2162 C2160 1.419 . S
C2162 C2163 1.363 . S
C2162 H2165 0.929 . S
C2163 C2162 1.363 . S
C2163 C2169 1.428 . S
H2164 C2160 0.930 . S
H2165 C2162 0.929 . S
S2166 N2167 1.613 . S
S2166 N2168 1.610 . S
N2167 S2166 1.613 . S
N2167 C2170 1.350 . S
N2168 S2166 1.610 . S
N2168 C2169 1.351 . S
C2169 C2163 1.428 . S
C2169 N2168 1.351 . S
C2169 C2170 1.434 . S
C2170 C2161 1.429 . S
C2170 N2167 1.350 . S
C2170 C2169 1.434 . S
C2171 C2172 1.369 . S
C2171 C2173 1.419 . S
C2171 H2175 0.930 . S
C2172 C2171 1.369 . S
C2172 C2181 1.429 . S
C2173 C2171 1.419 . S
C2173 C2174 1.363 . S
C2173 H2176 0.929 . S
C2174 C2173 1.363 . S
C2174 C2180 1.428 . S
H2175 C2171 0.930 . S
H2176 C2173 0.929 . S
S2177 N2178 1.613 . S
S2177 N2179 1.610 . S
N2178 S2177 1.613 . S
N2178 C2181 1.350 . S
N2179 S2177 1.610 . S
N2179 C2180 1.351 . S
C2180 C2174 1.428 . S
C2180 N2179 1.351 . S
C2180 C2181 1.434 . S
C2181 C2172 1.429 . S
C2181 N2178 1.350 . S
C2181 C2180 1.434 . S
C2182 C2183 1.369 . S
C2182 C2184 1.419 . S
C2182 H2186 0.930 . S
C2183 C2182 1.369 . S
C2183 C2192 1.429 . S
C2184 C2182 1.419 . S
C2184 C2185 1.363 . S
C2184 H2187 0.929 . S
C2185 C2184 1.363 . S
C2185 C2191 1.428 . S
H2186 C2182 0.930 . S
H2187 C2184 0.929 . S
S2188 N2189 1.613 . S
S2188 N2190 1.610 . S
N2189 S2188 1.613 . S
N2189 C2192 1.350 . S
N2190 S2188 1.610 . S
N2190 C2191 1.351 . S
C2191 C2185 1.428 . S
C2191 N2190 1.351 . S
C2191 C2192 1.434 . S
C2192 C2183 1.429 . S
C2192 N2189 1.350 . S
C2192 C2191 1.434 . S
C2193 C2194 1.369 . S
C2193 C2195 1.419 . S
C2193 H2197 0.930 . S
C2194 C2193 1.369 . S
C2194 C2203 1.429 . S
C2195 C2193 1.419 . S
C2195 C2196 1.363 . S
C2195 H2198 0.929 . S
C2196 C2195 1.363 . S
C2196 C2202 1.428 . S
H2197 C2193 0.930 . S
H2198 C2195 0.929 . S
S2199 N2200 1.613 . S
S2199 N2201 1.610 . S
N2200 S2199 1.613 . S
N2200 C2203 1.350 . S
N2201 S2199 1.610 . S
N2201 C2202 1.351 . S
C2202 C2196 1.428 . S
C2202 N2201 1.351 . S
C2202 C2203 1.434 . S
C2203 C2194 1.429 . S
C2203 N2200 1.350 . S
C2203 C2202 1.434 . S
C2204 C2205 1.369 . S
C2204 C2206 1.419 . S
C2204 H2208 0.930 . S
C2205 C2204 1.369 . S
C2205 C2214 1.429 . S
C2206 C2204 1.419 . S
C2206 C2207 1.363 . S
C2206 H2209 0.929 . S
C2207 C2206 1.363 . S
C2207 C2213 1.428 . S
H2208 C2204 0.930 . S
H2209 C2206 0.929 . S
S2210 N2211 1.613 . S
S2210 N2212 1.610 . S
N2211 S2210 1.613 . S
N2211 C2214 1.350 . S
N2212 S2210 1.610 . S
N2212 C2213 1.351 . S
C2213 C2207 1.428 . S
C2213 N2212 1.351 . S
C2213 C2214 1.434 . S
C2214 C2205 1.429 . S
C2214 N2211 1.350 . S
C2214 C2213 1.434 . S
C2215 C2216 1.369 . S
C2215 C2217 1.419 . S
C2215 H2219 0.930 . S
C2216 C2215 1.369 . S
C2216 C2225 1.429 . S
C2217 C2215 1.419 . S
C2217 C2218 1.363 . S
C2217 H2220 0.929 . S
C2218 C2217 1.363 . S
C2218 C2224 1.428 . S
H2219 C2215 0.930 . S
H2220 C2217 0.929 . S
S2221 N2222 1.613 . S
S2221 N2223 1.610 . S
N2222 S2221 1.613 . S
N2222 C2225 1.350 . S
N2223 S2221 1.610 . S
N2223 C2224 1.351 . S
C2224 C2218 1.428 . S
C2224 N2223 1.351 . S
C2224 C2225 1.434 . S
C2225 C2216 1.429 . S
C2225 N2222 1.350 . S
C2225 C2224 1.434 . S
C2226 C2227 1.369 . S
C2226 C2228 1.419 . S
C2226 H2230 0.930 . S
C2227 C2226 1.369 . S
C2227 C2236 1.429 . S
C2228 C2226 1.419 . S
C2228 C2229 1.363 . S
C2228 H2231 0.929 . S
C2229 C2228 1.363 . S
C2229 C2235 1.428 . S
H2230 C2226 0.930 . S
H2231 C2228 0.929 . S
S2232 N2233 1.613 . S
S2232 N2234 1.610 . S
N2233 S2232 1.613 . S
N2233 C2236 1.350 . S
N2234 S2232 1.610 . S
N2234 C2235 1.351 . S
C2235 C2229 1.428 . S
C2235 N2234 1.351 . S
C2235 C2236 1.434 . S
C2236 C2227 1.429 . S
C2236 N2233 1.350 . S
C2236 C2235 1.434 . S
C2237 C2238 1.369 . S
C2237 C2239 1.419 . S
C2237 H2241 0.930 . S
C2238 C2237 1.369 . S
C2238 C2247 1.429 . S
C2239 C2237 1.419 . S
C2239 C2240 1.363 . S
C2239 H2242 0.929 . S
C2240 C2239 1.363 . S
C2240 C2246 1.428 . S
H2241 C2237 0.930 . S
H2242 C2239 0.929 . S
S2243 N2244 1.613 . S
S2243 N2245 1.610 . S
N2244 S2243 1.613 . S
N2244 C2247 1.350 . S
N2245 S2243 1.610 . S
N2245 C2246 1.351 . S
C2246 C2240 1.428 . S
C2246 N2245 1.351 . S
C2246 C2247 1.434 . S
C2247 C2238 1.429 . S
C2247 N2244 1.350 . S
C2247 C2246 1.434 . S
C2248 C2249 1.369 . S
C2248 C2250 1.419 . S
C2248 H2252 0.930 . S
C2249 C2248 1.369 . S
C2249 C2258 1.429 . S
C2250 C2248 1.419 . S
C2250 C2251 1.363 . S
C2250 H2253 0.929 . S
C2251 C2250 1.363 . S
C2251 C2257 1.428 . S
H2252 C2248 0.930 . S
H2253 C2250 0.929 . S
S2254 N2255 1.613 . S
S2254 N2256 1.610 . S
N2255 S2254 1.613 . S
N2255 C2258 1.350 . S
N2256 S2254 1.610 . S
N2256 C2257 1.351 . S
C2257 C2251 1.428 . S
C2257 N2256 1.351 . S
C2257 C2258 1.434 . S
C2258 C2249 1.429 . S
C2258 N2255 1.350 . S
C2258 C2257 1.434 . S
C2259 C2260 1.369 . S
C2259 C2261 1.419 . S
C2259 H2263 0.930 . S
C2260 C2259 1.369 . S
C2260 C2269 1.429 . S
C2261 C2259 1.419 . S
C2261 C2262 1.363 . S
C2261 H2264 0.929 . S
C2262 C2261 1.363 . S
C2262 C2268 1.428 . S
H2263 C2259 0.930 . S
H2264 C2261 0.929 . S
S2265 N2266 1.613 . S
S2265 N2267 1.610 . S
N2266 S2265 1.613 . S
N2266 C2269 1.350 . S
N2267 S2265 1.610 . S
N2267 C2268 1.351 . S
C2268 C2262 1.428 . S
C2268 N2267 1.351 . S
C2268 C2269 1.434 . S
C2269 C2260 1.429 . S
C2269 N2266 1.350 . S
C2269 C2268 1.434 . S
C2270 C2271 1.369 . S
C2270 C2272 1.419 . S
C2270 H2274 0.930 . S
C2271 C2270 1.369 . S
C2271 C2280 1.429 . S
C2272 C2270 1.419 . S
C2272 C2273 1.363 . S
C2272 H2275 0.929 . S
C2273 C2272 1.363 . S
C2273 C2279 1.428 . S
H2274 C2270 0.930 . S
H2275 C2272 0.929 . S
S2276 N2277 1.613 . S
S2276 N2278 1.610 . S
N2277 S2276 1.613 . S
N2277 C2280 1.350 . S
N2278 S2276 1.610 . S
N2278 C2279 1.351 . S
C2279 C2273 1.428 . S
C2279 N2278 1.351 . S
C2279 C2280 1.434 . S
C2280 C2271 1.429 . S
C2280 N2277 1.350 . S
C2280 C2279 1.434 . S
C2281 C2282 1.369 . S
C2281 C2283 1.419 . S
C2281 H2285 0.930 . S
C2282 C2281 1.369 . S
C2282 C2291 1.429 . S
C2283 C2281 1.419 . S
C2283 C2284 1.363 . S
C2283 H2286 0.929 . S
C2284 C2283 1.363 . S
C2284 C2290 1.428 . S
H2285 C2281 0.930 . S
H2286 C2283 0.929 . S
S2287 N2288 1.613 . S
S2287 N2289 1.610 . S
N2288 S2287 1.613 . S
N2288 C2291 1.350 . S
N2289 S2287 1.610 . S
N2289 C2290 1.351 . S
C2290 C2284 1.428 . S
C2290 N2289 1.351 . S
C2290 C2291 1.434 . S
C2291 C2282 1.429 . S
C2291 N2288 1.350 . S
C2291 C2290 1.434 . S
C2292 C2293 1.369 . S
C2292 C2294 1.419 . S
C2292 H2296 0.930 . S
C2293 C2292 1.369 . S
C2293 C2302 1.429 . S
C2294 C2292 1.419 . S
C2294 C2295 1.363 . S
C2294 H2297 0.929 . S
C2295 C2294 1.363 . S
C2295 C2301 1.428 . S
H2296 C2292 0.930 . S
H2297 C2294 0.929 . S
S2298 N2299 1.613 . S
S2298 N2300 1.610 . S
N2299 S2298 1.613 . S
N2299 C2302 1.350 . S
N2300 S2298 1.610 . S
N2300 C2301 1.351 . S
C2301 C2295 1.428 . S
C2301 N2300 1.351 . S
C2301 C2302 1.434 . S
C2302 C2293 1.429 . S
C2302 N2299 1.350 . S
C2302 C2301 1.434 . S
C2303 C2304 1.369 . S
C2303 C2305 1.419 . S
C2303 H2307 0.930 . S
C2304 C2303 1.369 . S
C2304 C2313 1.429 . S
C2305 C2303 1.419 . S
C2305 C2306 1.363 . S
C2305 H2308 0.929 . S
C2306 C2305 1.363 . S
C2306 C2312 1.428 . S
H2307 C2303 0.930 . S
H2308 C2305 0.929 . S
S2309 N2310 1.613 . S
S2309 N2311 1.610 . S
N2310 S2309 1.613 . S
N2310 C2313 1.350 . S
N2311 S2309 1.610 . S
N2311 C2312 1.351 . S
C2312 C2306 1.428 . S
C2312 N2311 1.351 . S
C2312 C2313 1.434 . S
C2313 C2304 1.429 . S
C2313 N2310 1.350 . S
C2313 C2312 1.434 . S
C2314 C2315 1.369 . S
C2314 C2316 1.419 . S
C2314 H2318 0.930 . S
C2315 C2314 1.369 . S
C2315 C2324 1.429 . S
C2316 C2314 1.419 . S
C2316 C2317 1.363 . S
C2316 H2319 0.929 . S
C2317 C2316 1.363 . S
C2317 C2323 1.428 . S
H2318 C2314 0.930 . S
H2319 C2316 0.929 . S
S2320 N2321 1.613 . S
S2320 N2322 1.610 . S
N2321 S2320 1.613 . S
N2321 C2324 1.350 . S
N2322 S2320 1.610 . S
N2322 C2323 1.351 . S
C2323 C2317 1.428 . S
C2323 N2322 1.351 . S
C2323 C2324 1.434 . S
C2324 C2315 1.429 . S
C2324 N2321 1.350 . S
C2324 C2323 1.434 . S
C2325 C2326 1.369 . S
C2325 C2327 1.419 . S
C2325 H2329 0.930 . S
C2326 C2325 1.369 . S
C2326 C2335 1.429 . S
C2327 C2325 1.419 . S
C2327 C2328 1.363 . S
C2327 H2330 0.929 . S
C2328 C2327 1.363 . S
C2328 C2334 1.428 . S
H2329 C2325 0.930 . S
H2330 C2327 0.929 . S
S2331 N2332 1.613 . S
S2331 N2333 1.610 . S
N2332 S2331 1.613 . S
N2332 C2335 1.350 . S
N2333 S2331 1.610 . S
N2333 C2334 1.351 . S
C2334 C2328 1.428 . S
C2334 N2333 1.351 . S
C2334 C2335 1.434 . S
C2335 C2326 1.429 . S
C2335 N2332 1.350 . S
C2335 C2334 1.434 . S
C2336 C2337 1.369 . S
C2336 C2338 1.419 . S
C2336 H2340 0.930 . S
C2337 C2336 1.369 . S
C2337 C2346 1.429 . S
C2338 C2336 1.419 . S
C2338 C2339 1.363 . S
C2338 H2341 0.929 . S
C2339 C2338 1.363 . S
C2339 C2345 1.428 . S
H2340 C2336 0.930 . S
H2341 C2338 0.929 . S
S2342 N2343 1.613 . S
S2342 N2344 1.610 . S
N2343 S2342 1.613 . S
N2343 C2346 1.350 . S
N2344 S2342 1.610 . S
N2344 C2345 1.351 . S
C2345 C2339 1.428 . S
C2345 N2344 1.351 . S
C2345 C2346 1.434 . S
C2346 C2337 1.429 . S
C2346 N2343 1.350 . S
C2346 C2345 1.434 . S
C2347 C2348 1.369 . S
C2347 C2349 1.419 . S
C2347 H2351 0.930 . S
C2348 C2347 1.369 . S
C2348 C2357 1.429 . S
C2349 C2347 1.419 . S
C2349 C2350 1.363 . S
C2349 H2352 0.929 . S
C2350 C2349 1.363 . S
C2350 C2356 1.428 . S
H2351 C2347 0.930 . S
H2352 C2349 0.929 . S
S2353 N2354 1.613 . S
S2353 N2355 1.610 . S
N2354 S2353 1.613 . S
N2354 C2357 1.350 . S
N2355 S2353 1.610 . S
N2355 C2356 1.351 . S
C2356 C2350 1.428 . S
C2356 N2355 1.351 . S
C2356 C2357 1.434 . S
C2357 C2348 1.429 . S
C2357 N2354 1.350 . S
C2357 C2356 1.434 . S
C2358 C2359 1.369 . S
C2358 C2360 1.419 . S
C2358 H2362 0.930 . S
C2359 C2358 1.369 . S
C2359 C2368 1.429 . S
C2360 C2358 1.419 . S
C2360 C2361 1.363 . S
C2360 H2363 0.929 . S
C2361 C2360 1.363 . S
C2361 C2367 1.428 . S
H2362 C2358 0.930 . S
H2363 C2360 0.929 . S
S2364 N2365 1.613 . S
S2364 N2366 1.610 . S
N2365 S2364 1.613 . S
N2365 C2368 1.350 . S
N2366 S2364 1.610 . S
N2366 C2367 1.351 . S
C2367 C2361 1.428 . S
C2367 N2366 1.351 . S
C2367 C2368 1.434 . S
C2368 C2359 1.429 . S
C2368 N2365 1.350 . S
C2368 C2367 1.434 . S
C2369 C2370 1.369 . S
C2369 C2371 1.419 . S
C2369 H2373 0.930 . S
C2370 C2369 1.369 . S
C2370 C2379 1.429 . S
C2371 C2369 1.419 . S
C2371 C2372 1.363 . S
C2371 H2374 0.929 . S
C2372 C2371 1.363 . S
C2372 C2378 1.428 . S
H2373 C2369 0.930 . S
H2374 C2371 0.929 . S
S2375 N2376 1.613 . S
S2375 N2377 1.610 . S
N2376 S2375 1.613 . S
N2376 C2379 1.350 . S
N2377 S2375 1.610 . S
N2377 C2378 1.351 . S
C2378 C2372 1.428 . S
C2378 N2377 1.351 . S
C2378 C2379 1.434 . S
C2379 C2370 1.429 . S
C2379 N2376 1.350 . S
C2379 C2378 1.434 . S
C2380 C2381 1.369 . S
C2380 C2382 1.419 . S
C2380 H2384 0.930 . S
C2381 C2380 1.369 . S
C2381 C2390 1.429 . S
C2382 C2380 1.419 . S
C2382 C2383 1.363 . S
C2382 H2385 0.929 . S
C2383 C2382 1.363 . S
C2383 C2389 1.428 . S
H2384 C2380 0.930 . S
H2385 C2382 0.929 . S
S2386 N2387 1.613 . S
S2386 N2388 1.610 . S
N2387 S2386 1.613 . S
N2387 C2390 1.350 . S
N2388 S2386 1.610 . S
N2388 C2389 1.351 . S
C2389 C2383 1.428 . S
C2389 N2388 1.351 . S
C2389 C2390 1.434 . S
C2390 C2381 1.429 . S
C2390 N2387 1.350 . S
C2390 C2389 1.434 . S
C2391 C2392 1.369 . S
C2391 C2393 1.419 . S
C2391 H2395 0.930 . S
C2392 C2391 1.369 . S
C2392 C2401 1.429 . S
C2393 C2391 1.419 . S
C2393 C2394 1.363 . S
C2393 H2396 0.929 . S
C2394 C2393 1.363 . S
C2394 C2400 1.428 . S
H2395 C2391 0.930 . S
H2396 C2393 0.929 . S
S2397 N2398 1.613 . S
S2397 N2399 1.610 . S
N2398 S2397 1.613 . S
N2398 C2401 1.350 . S
N2399 S2397 1.610 . S
N2399 C2400 1.351 . S
C2400 C2394 1.428 . S
C2400 N2399 1.351 . S
C2400 C2401 1.434 . S
C2401 C2392 1.429 . S
C2401 N2398 1.350 . S
C2401 C2400 1.434 . S
C2402 C2403 1.369 . S
C2402 C2404 1.419 . S
C2402 H2406 0.930 . S
C2403 C2402 1.369 . S
C2403 C2412 1.429 . S
C2404 C2402 1.419 . S
C2404 C2405 1.363 . S
C2404 H2407 0.929 . S
C2405 C2404 1.363 . S
C2405 C2411 1.428 . S
H2406 C2402 0.930 . S
H2407 C2404 0.929 . S
S2408 N2409 1.613 . S
S2408 N2410 1.610 . S
N2409 S2408 1.613 . S
N2409 C2412 1.350 . S
N2410 S2408 1.610 . S
N2410 C2411 1.351 . S
C2411 C2405 1.428 . S
C2411 N2410 1.351 . S
C2411 C2412 1.434 . S
C2412 C2403 1.429 . S
C2412 N2409 1.350 . S
C2412 C2411 1.434 . S
C2413 C2414 1.369 . S
C2413 C2415 1.419 . S
C2413 H2417 0.930 . S
C2414 C2413 1.369 . S
C2414 C2423 1.429 . S
C2415 C2413 1.419 . S
C2415 C2416 1.363 . S
C2415 H2418 0.929 . S
C2416 C2415 1.363 . S
C2416 C2422 1.428 . S
H2417 C2413 0.930 . S
H2418 C2415 0.929 . S
S2419 N2420 1.613 . S
S2419 N2421 1.610 . S
N2420 S2419 1.613 . S
N2420 C2423 1.350 . S
N2421 S2419 1.610 . S
N2421 C2422 1.351 . S
C2422 C2416 1.428 . S
C2422 N2421 1.351 . S
C2422 C2423 1.434 . S
C2423 C2414 1.429 . S
C2423 N2420 1.350 . S
C2423 C2422 1.434 . S
C2424 C2425 1.369 . S
C2424 C2426 1.419 . S
C2424 H2428 0.930 . S
C2425 C2424 1.369 . S
C2425 C2434 1.429 . S
C2426 C2424 1.419 . S
C2426 C2427 1.363 . S
C2426 H2429 0.929 . S
C2427 C2426 1.363 . S
C2427 C2433 1.428 . S
H2428 C2424 0.930 . S
H2429 C2426 0.929 . S
S2430 N2431 1.613 . S
S2430 N2432 1.610 . S
N2431 S2430 1.613 . S
N2431 C2434 1.350 . S
N2432 S2430 1.610 . S
N2432 C2433 1.351 . S
C2433 C2427 1.428 . S
C2433 N2432 1.351 . S
C2433 C2434 1.434 . S
C2434 C2425 1.429 . S
C2434 N2431 1.350 . S
C2434 C2433 1.434 . S
C2435 C2436 1.369 . S
C2435 C2437 1.419 . S
C2435 H2439 0.930 . S
C2436 C2435 1.369 . S
C2436 C2445 1.429 . S
C2437 C2435 1.419 . S
C2437 C2438 1.363 . S
C2437 H2440 0.929 . S
C2438 C2437 1.363 . S
C2438 C2444 1.428 . S
H2439 C2435 0.930 . S
H2440 C2437 0.929 . S
S2441 N2442 1.613 . S
S2441 N2443 1.610 . S
N2442 S2441 1.613 . S
N2442 C2445 1.350 . S
N2443 S2441 1.610 . S
N2443 C2444 1.351 . S
C2444 C2438 1.428 . S
C2444 N2443 1.351 . S
C2444 C2445 1.434 . S
C2445 C2436 1.429 . S
C2445 N2442 1.350 . S
C2445 C2444 1.434 . S
C2446 C2447 1.369 . S
C2446 C2448 1.419 . S
C2446 H2450 0.930 . S
C2447 C2446 1.369 . S
C2447 C2456 1.429 . S
C2448 C2446 1.419 . S
C2448 C2449 1.363 . S
C2448 H2451 0.929 . S
C2449 C2448 1.363 . S
C2449 C2455 1.428 . S
H2450 C2446 0.930 . S
H2451 C2448 0.929 . S
S2452 N2453 1.613 . S
S2452 N2454 1.610 . S
N2453 S2452 1.613 . S
N2453 C2456 1.350 . S
N2454 S2452 1.610 . S
N2454 C2455 1.351 . S
C2455 C2449 1.428 . S
C2455 N2454 1.351 . S
C2455 C2456 1.434 . S
C2456 C2447 1.429 . S
C2456 N2453 1.350 . S
C2456 C2455 1.434 . S
C2457 C2458 1.369 . S
C2457 C2459 1.419 . S
C2457 H2461 0.930 . S
C2458 C2457 1.369 . S
C2458 C2467 1.429 . S
C2459 C2457 1.419 . S
C2459 C2460 1.363 . S
C2459 H2462 0.929 . S
C2460 C2459 1.363 . S
C2460 C2466 1.428 . S
H2461 C2457 0.930 . S
H2462 C2459 0.929 . S
S2463 N2464 1.613 . S
S2463 N2465 1.610 . S
N2464 S2463 1.613 . S
N2464 C2467 1.350 . S
N2465 S2463 1.610 . S
N2465 C2466 1.351 . S
C2466 C2460 1.428 . S
C2466 N2465 1.351 . S
C2466 C2467 1.434 . S
C2467 C2458 1.429 . S
C2467 N2464 1.350 . S
C2467 C2466 1.434 . S
C2468 C2469 1.369 . S
C2468 C2470 1.419 . S
C2468 H2472 0.930 . S
C2469 C2468 1.369 . S
C2469 C2478 1.429 . S
C2470 C2468 1.419 . S
C2470 C2471 1.363 . S
C2470 H2473 0.929 . S
C2471 C2470 1.363 . S
C2471 C2477 1.428 . S
H2472 C2468 0.930 . S
H2473 C2470 0.929 . S
S2474 N2475 1.613 . S
S2474 N2476 1.610 . S
N2475 S2474 1.613 . S
N2475 C2478 1.350 . S
N2476 S2474 1.610 . S
N2476 C2477 1.351 . S
C2477 C2471 1.428 . S
C2477 N2476 1.351 . S
C2477 C2478 1.434 . S
C2478 C2469 1.429 . S
C2478 N2475 1.350 . S
C2478 C2477 1.434 . S
C2479 C2480 1.369 . S
C2479 C2481 1.419 . S
C2479 H2483 0.930 . S
C2480 C2479 1.369 . S
C2480 C2489 1.429 . S
C2481 C2479 1.419 . S
C2481 C2482 1.363 . S
C2481 H2484 0.929 . S
C2482 C2481 1.363 . S
C2482 C2488 1.428 . S
H2483 C2479 0.930 . S
H2484 C2481 0.929 . S
S2485 N2486 1.613 . S
S2485 N2487 1.610 . S
N2486 S2485 1.613 . S
N2486 C2489 1.350 . S
N2487 S2485 1.610 . S
N2487 C2488 1.351 . S
C2488 C2482 1.428 . S
C2488 N2487 1.351 . S
C2488 C2489 1.434 . S
C2489 C2480 1.429 . S
C2489 N2486 1.350 . S
C2489 C2488 1.434 . S
C2490 C2491 1.369 . S
C2490 C2492 1.419 . S
C2490 H2494 0.930 . S
C2491 C2490 1.369 . S
C2491 C2500 1.429 . S
C2492 C2490 1.419 . S
C2492 C2493 1.363 . S
C2492 H2495 0.929 . S
C2493 C2492 1.363 . S
C2493 C2499 1.428 . S
H2494 C2490 0.930 . S
H2495 C2492 0.929 . S
S2496 N2497 1.613 . S
S2496 N2498 1.610 . S
N2497 S2496 1.613 . S
N2497 C2500 1.350 . S
N2498 S2496 1.610 . S
N2498 C2499 1.351 . S
C2499 C2493 1.428 . S
C2499 N2498 1.351 . S
C2499 C2500 1.434 . S
C2500 C2491 1.429 . S
C2500 N2497 1.350 . S
C2500 C2499 1.434 . S
C2501 C2502 1.369 . S
C2501 C2503 1.419 . S
C2501 H2505 0.930 . S
C2502 C2501 1.369 . S
C2502 C2511 1.429 . S
C2503 C2501 1.419 . S
C2503 C2504 1.363 . S
C2503 H2506 0.929 . S
C2504 C2503 1.363 . S
C2504 C2510 1.428 . S
H2505 C2501 0.930 . S
H2506 C2503 0.929 . S
S2507 N2508 1.613 . S
S2507 N2509 1.610 . S
N2508 S2507 1.613 . S
N2508 C2511 1.350 . S
N2509 S2507 1.610 . S
N2509 C2510 1.351 . S
C2510 C2504 1.428 . S
C2510 N2509 1.351 . S
C2510 C2511 1.434 . S
C2511 C2502 1.429 . S
C2511 N2508 1.350 . S
C2511 C2510 1.434 . S
C2512 C2513 1.369 . S
C2512 C2514 1.419 . S
C2512 H2516 0.930 . S
C2513 C2512 1.369 . S
C2513 C2522 1.429 . S
C2514 C2512 1.419 . S
C2514 C2515 1.363 . S
C2514 H2517 0.929 . S
C2515 C2514 1.363 . S
C2515 C2521 1.428 . S
H2516 C2512 0.930 . S
H2517 C2514 0.929 . S
S2518 N2519 1.613 . S
S2518 N2520 1.610 . S
N2519 S2518 1.613 . S
N2519 C2522 1.350 . S
N2520 S2518 1.610 . S
N2520 C2521 1.351 . S
C2521 C2515 1.428 . S
C2521 N2520 1.351 . S
C2521 C2522 1.434 . S
C2522 C2513 1.429 . S
C2522 N2519 1.350 . S
C2522 C2521 1.434 . S
C2523 C2524 1.369 . S
C2523 C2525 1.419 . S
C2523 H2527 0.930 . S
C2524 C2523 1.369 . S
C2524 C2533 1.429 . S
C2525 C2523 1.419 . S
C2525 C2526 1.363 . S
C2525 H2528 0.929 . S
C2526 C2525 1.363 . S
C2526 C2532 1.428 . S
H2527 C2523 0.930 . S
H2528 C2525 0.929 . S
S2529 N2530 1.613 . S
S2529 N2531 1.610 . S
N2530 S2529 1.613 . S
N2530 C2533 1.350 . S
N2531 S2529 1.610 . S
N2531 C2532 1.351 . S
C2532 C2526 1.428 . S
C2532 N2531 1.351 . S
C2532 C2533 1.434 . S
C2533 C2524 1.429 . S
C2533 N2530 1.350 . S
C2533 C2532 1.434 . S
C2534 C2535 1.369 . S
C2534 C2536 1.419 . S
C2534 H2538 0.930 . S
C2535 C2534 1.369 . S
C2535 C2544 1.429 . S
C2536 C2534 1.419 . S
C2536 C2537 1.363 . S
C2536 H2539 0.929 . S
C2537 C2536 1.363 . S
C2537 C2543 1.428 . S
H2538 C2534 0.930 . S
H2539 C2536 0.929 . S
S2540 N2541 1.613 . S
S2540 N2542 1.610 . S
N2541 S2540 1.613 . S
N2541 C2544 1.350 . S
N2542 S2540 1.610 . S
N2542 C2543 1.351 . S
C2543 C2537 1.428 . S
C2543 N2542 1.351 . S
C2543 C2544 1.434 . S
C2544 C2535 1.429 . S
C2544 N2541 1.350 . S
C2544 C2543 1.434 . S
C2545 C2546 1.369 . S
C2545 C2547 1.419 . S
C2545 H2549 0.930 . S
C2546 C2545 1.369 . S
C2546 C2555 1.429 . S
C2547 C2545 1.419 . S
C2547 C2548 1.363 . S
C2547 H2550 0.929 . S
C2548 C2547 1.363 . S
C2548 C2554 1.428 . S
H2549 C2545 0.930 . S
H2550 C2547 0.929 . S
S2551 N2552 1.613 . S
S2551 N2553 1.610 . S
N2552 S2551 1.613 . S
N2552 C2555 1.350 . S
N2553 S2551 1.610 . S
N2553 C2554 1.351 . S
C2554 C2548 1.428 . S
C2554 N2553 1.351 . S
C2554 C2555 1.434 . S
C2555 C2546 1.429 . S
C2555 N2552 1.350 . S
C2555 C2554 1.434 . S
C2556 C2557 1.369 . S
C2556 C2558 1.419 . S
C2556 H2560 0.930 . S
C2557 C2556 1.369 . S
C2557 C2566 1.429 . S
C2558 C2556 1.419 . S
C2558 C2559 1.363 . S
C2558 H2561 0.929 . S
C2559 C2558 1.363 . S
C2559 C2565 1.428 . S
H2560 C2556 0.930 . S
H2561 C2558 0.929 . S
S2562 N2563 1.613 . S
S2562 N2564 1.610 . S
N2563 S2562 1.613 . S
N2563 C2566 1.350 . S
N2564 S2562 1.610 . S
N2564 C2565 1.351 . S
C2565 C2559 1.428 . S
C2565 N2564 1.351 . S
C2565 C2566 1.434 . S
C2566 C2557 1.429 . S
C2566 N2563 1.350 . S
C2566 C2565 1.434 . S
C2567 C2568 1.369 . S
C2567 C2569 1.419 . S
C2567 H2571 0.930 . S
C2568 C2567 1.369 . S
C2568 C2577 1.429 . S
C2569 C2567 1.419 . S
C2569 C2570 1.363 . S
C2569 H2572 0.929 . S
C2570 C2569 1.363 . S
C2570 C2576 1.428 . S
H2571 C2567 0.930 . S
H2572 C2569 0.929 . S
S2573 N2574 1.613 . S
S2573 N2575 1.610 . S
N2574 S2573 1.613 . S
N2574 C2577 1.350 . S
N2575 S2573 1.610 . S
N2575 C2576 1.351 . S
C2576 C2570 1.428 . S
C2576 N2575 1.351 . S
C2576 C2577 1.434 . S
C2577 C2568 1.429 . S
C2577 N2574 1.350 . S
C2577 C2576 1.434 . S
C2578 C2579 1.369 . S
C2578 C2580 1.419 . S
C2578 H2582 0.930 . S
C2579 C2578 1.369 . S
C2579 C2588 1.429 . S
C2580 C2578 1.419 . S
C2580 C2581 1.363 . S
C2580 H2583 0.929 . S
C2581 C2580 1.363 . S
C2581 C2587 1.428 . S
H2582 C2578 0.930 . S
H2583 C2580 0.929 . S
S2584 N2585 1.613 . S
S2584 N2586 1.610 . S
N2585 S2584 1.613 . S
N2585 C2588 1.350 . S
N2586 S2584 1.610 . S
N2586 C2587 1.351 . S
C2587 C2581 1.428 . S
C2587 N2586 1.351 . S
C2587 C2588 1.434 . S
C2588 C2579 1.429 . S
C2588 N2585 1.350 . S
C2588 C2587 1.434 . S
C2589 C2590 1.369 . S
C2589 C2591 1.419 . S
C2589 H2593 0.930 . S
C2590 C2589 1.369 . S
C2590 C2599 1.429 . S
C2591 C2589 1.419 . S
C2591 C2592 1.363 . S
C2591 H2594 0.929 . S
C2592 C2591 1.363 . S
C2592 C2598 1.428 . S
H2593 C2589 0.930 . S
H2594 C2591 0.929 . S
S2595 N2596 1.613 . S
S2595 N2597 1.610 . S
N2596 S2595 1.613 . S
N2596 C2599 1.350 . S
N2597 S2595 1.610 . S
N2597 C2598 1.351 . S
C2598 C2592 1.428 . S
C2598 N2597 1.351 . S
C2598 C2599 1.434 . S
C2599 C2590 1.429 . S
C2599 N2596 1.350 . S
C2599 C2598 1.434 . S
C2600 C2601 1.369 . S
C2600 C2602 1.419 . S
C2600 H2604 0.930 . S
C2601 C2600 1.369 . S
C2601 C2610 1.429 . S
C2602 C2600 1.419 . S
C2602 C2603 1.363 . S
C2602 H2605 0.929 . S
C2603 C2602 1.363 . S
C2603 C2609 1.428 . S
H2604 C2600 0.930 . S
H2605 C2602 0.929 . S
S2606 N2607 1.613 . S
S2606 N2608 1.610 . S
N2607 S2606 1.613 . S
N2607 C2610 1.350 . S
N2608 S2606 1.610 . S
N2608 C2609 1.351 . S
C2609 C2603 1.428 . S
C2609 N2608 1.351 . S
C2609 C2610 1.434 . S
C2610 C2601 1.429 . S
C2610 N2607 1.350 . S
C2610 C2609 1.434 . S
C2611 C2612 1.369 . S
C2611 C2613 1.419 . S
C2611 H2615 0.930 . S
C2612 C2611 1.369 . S
C2612 C2621 1.429 . S
C2613 C2611 1.419 . S
C2613 C2614 1.363 . S
C2613 H2616 0.929 . S
C2614 C2613 1.363 . S
C2614 C2620 1.428 . S
H2615 C2611 0.930 . S
H2616 C2613 0.929 . S
S2617 N2618 1.613 . S
S2617 N2619 1.610 . S
N2618 S2617 1.613 . S
N2618 C2621 1.350 . S
N2619 S2617 1.610 . S
N2619 C2620 1.351 . S
C2620 C2614 1.428 . S
C2620 N2619 1.351 . S
C2620 C2621 1.434 . S
C2621 C2612 1.429 . S
C2621 N2618 1.350 . S
C2621 C2620 1.434 . S
C2622 C2623 1.369 . S
C2622 C2624 1.419 . S
C2622 H2626 0.930 . S
C2623 C2622 1.369 . S
C2623 C2632 1.429 . S
C2624 C2622 1.419 . S
C2624 C2625 1.363 . S
C2624 H2627 0.929 . S
C2625 C2624 1.363 . S
C2625 C2631 1.428 . S
H2626 C2622 0.930 . S
H2627 C2624 0.929 . S
S2628 N2629 1.613 . S
S2628 N2630 1.610 . S
N2629 S2628 1.613 . S
N2629 C2632 1.350 . S
N2630 S2628 1.610 . S
N2630 C2631 1.351 . S
C2631 C2625 1.428 . S
C2631 N2630 1.351 . S
C2631 C2632 1.434 . S
C2632 C2623 1.429 . S
C2632 N2629 1.350 . S
C2632 C2631 1.434 . S
C2633 C2634 1.369 . S
C2633 C2635 1.419 . S
C2633 H2637 0.930 . S
C2634 C2633 1.369 . S
C2634 C2643 1.429 . S
C2635 C2633 1.419 . S
C2635 C2636 1.363 . S
C2635 H2638 0.929 . S
C2636 C2635 1.363 . S
C2636 C2642 1.428 . S
H2637 C2633 0.930 . S
H2638 C2635 0.929 . S
S2639 N2640 1.613 . S
S2639 N2641 1.610 . S
N2640 S2639 1.613 . S
N2640 C2643 1.350 . S
N2641 S2639 1.610 . S
N2641 C2642 1.351 . S
C2642 C2636 1.428 . S
C2642 N2641 1.351 . S
C2642 C2643 1.434 . S
C2643 C2634 1.429 . S
C2643 N2640 1.350 . S
C2643 C2642 1.434 . S
C2644 C2645 1.369 . S
C2644 C2646 1.419 . S
C2644 H2648 0.930 . S
C2645 C2644 1.369 . S
C2645 C2654 1.429 . S
C2646 C2644 1.419 . S
C2646 C2647 1.363 . S
C2646 H2649 0.929 . S
C2647 C2646 1.363 . S
C2647 C2653 1.428 . S
H2648 C2644 0.930 . S
H2649 C2646 0.929 . S
S2650 N2651 1.613 . S
S2650 N2652 1.610 . S
N2651 S2650 1.613 . S
N2651 C2654 1.350 . S
N2652 S2650 1.610 . S
N2652 C2653 1.351 . S
C2653 C2647 1.428 . S
C2653 N2652 1.351 . S
C2653 C2654 1.434 . S
C2654 C2645 1.429 . S
C2654 N2651 1.350 . S
C2654 C2653 1.434 . S
C2655 C2656 1.369 . S
C2655 C2657 1.419 . S
C2655 H2659 0.930 . S
C2656 C2655 1.369 . S
C2656 C2665 1.429 . S
C2657 C2655 1.419 . S
C2657 C2658 1.363 . S
C2657 H2660 0.929 . S
C2658 C2657 1.363 . S
C2658 C2664 1.428 . S
H2659 C2655 0.930 . S
H2660 C2657 0.929 . S
S2661 N2662 1.613 . S
S2661 N2663 1.610 . S
N2662 S2661 1.613 . S
N2662 C2665 1.350 . S
N2663 S2661 1.610 . S
N2663 C2664 1.351 . S
C2664 C2658 1.428 . S
C2664 N2663 1.351 . S
C2664 C2665 1.434 . S
C2665 C2656 1.429 . S
C2665 N2662 1.350 . S
C2665 C2664 1.434 . S
C2666 C2667 1.369 . S
C2666 C2668 1.419 . S
C2666 H2670 0.930 . S
C2667 C2666 1.369 . S
C2667 C2676 1.429 . S
C2668 C2666 1.419 . S
C2668 C2669 1.363 . S
C2668 H2671 0.929 . S
C2669 C2668 1.363 . S
C2669 C2675 1.428 . S
H2670 C2666 0.930 . S
H2671 C2668 0.929 . S
S2672 N2673 1.613 . S
S2672 N2674 1.610 . S
N2673 S2672 1.613 . S
N2673 C2676 1.350 . S
N2674 S2672 1.610 . S
N2674 C2675 1.351 . S
C2675 C2669 1.428 . S
C2675 N2674 1.351 . S
C2675 C2676 1.434 . S
C2676 C2667 1.429 . S
C2676 N2673 1.350 . S
C2676 C2675 1.434 . S
C2677 C2678 1.369 . S
C2677 C2679 1.419 . S
C2677 H2681 0.930 . S
C2678 C2677 1.369 . S
C2678 C2687 1.429 . S
C2679 C2677 1.419 . S
C2679 C2680 1.363 . S
C2679 H2682 0.929 . S
C2680 C2679 1.363 . S
C2680 C2686 1.428 . S
H2681 C2677 0.930 . S
H2682 C2679 0.929 . S
S2683 N2684 1.613 . S
S2683 N2685 1.610 . S
N2684 S2683 1.613 . S
N2684 C2687 1.350 . S
N2685 S2683 1.610 . S
N2685 C2686 1.351 . S
C2686 C2680 1.428 . S
C2686 N2685 1.351 . S
C2686 C2687 1.434 . S
C2687 C2678 1.429 . S
C2687 N2684 1.350 . S
C2687 C2686 1.434 . S
C2688 C2689 1.369 . S
C2688 C2690 1.419 . S
C2688 H2692 0.930 . S
C2689 C2688 1.369 . S
C2689 C2698 1.429 . S
C2690 C2688 1.419 . S
C2690 C2691 1.363 . S
C2690 H2693 0.929 . S
C2691 C2690 1.363 . S
C2691 C2697 1.428 . S
H2692 C2688 0.930 . S
H2693 C2690 0.929 . S
S2694 N2695 1.613 . S
S2694 N2696 1.610 . S
N2695 S2694 1.613 . S
N2695 C2698 1.350 . S
N2696 S2694 1.610 . S
N2696 C2697 1.351 . S
C2697 C2691 1.428 . S
C2697 N2696 1.351 . S
C2697 C2698 1.434 . S
C2698 C2689 1.429 . S
C2698 N2695 1.350 . S
C2698 C2697 1.434 . S
C2699 C2700 1.369 . S
C2699 C2701 1.419 . S
C2699 H2703 0.930 . S
C2700 C2699 1.369 . S
C2700 C2709 1.429 . S
C2701 C2699 1.419 . S
C2701 C2702 1.363 . S
C2701 H2704 0.929 . S
C2702 C2701 1.363 . S
C2702 C2708 1.428 . S
H2703 C2699 0.930 . S
H2704 C2701 0.929 . S
S2705 N2706 1.613 . S
S2705 N2707 1.610 . S
N2706 S2705 1.613 . S
N2706 C2709 1.350 . S
N2707 S2705 1.610 . S
N2707 C2708 1.351 . S
C2708 C2702 1.428 . S
C2708 N2707 1.351 . S
C2708 C2709 1.434 . S
C2709 C2700 1.429 . S
C2709 N2706 1.350 . S
C2709 C2708 1.434 . S
C2710 C2711 1.369 . S
C2710 C2712 1.419 . S
C2710 H2714 0.930 . S
C2711 C2710 1.369 . S
C2711 C2720 1.429 . S
C2712 C2710 1.419 . S
C2712 C2713 1.363 . S
C2712 H2715 0.929 . S
C2713 C2712 1.363 . S
C2713 C2719 1.428 . S
H2714 C2710 0.930 . S
H2715 C2712 0.929 . S
S2716 N2717 1.613 . S
S2716 N2718 1.610 . S
N2717 S2716 1.613 . S
N2717 C2720 1.350 . S
N2718 S2716 1.610 . S
N2718 C2719 1.351 . S
C2719 C2713 1.428 . S
C2719 N2718 1.351 . S
C2719 C2720 1.434 . S
C2720 C2711 1.429 . S
C2720 N2717 1.350 . S
C2720 C2719 1.434 . S
C2721 C2722 1.369 . S
C2721 C2723 1.419 . S
C2721 H2725 0.930 . S
C2722 C2721 1.369 . S
C2722 C2731 1.429 . S
C2723 C2721 1.419 . S
C2723 C2724 1.363 . S
C2723 H2726 0.929 . S
C2724 C2723 1.363 . S
C2724 C2730 1.428 . S
H2725 C2721 0.930 . S
H2726 C2723 0.929 . S
S2727 N2728 1.613 . S
S2727 N2729 1.610 . S
N2728 S2727 1.613 . S
N2728 C2731 1.350 . S
N2729 S2727 1.610 . S
N2729 C2730 1.351 . S
C2730 C2724 1.428 . S
C2730 N2729 1.351 . S
C2730 C2731 1.434 . S
C2731 C2722 1.429 . S
C2731 N2728 1.350 . S
C2731 C2730 1.434 . S
C2732 C2733 1.369 . S
C2732 C2734 1.419 . S
C2732 H2736 0.930 . S
C2733 C2732 1.369 . S
C2733 C2742 1.429 . S
C2734 C2732 1.419 . S
C2734 C2735 1.363 . S
C2734 H2737 0.929 . S
C2735 C2734 1.363 . S
C2735 C2741 1.428 . S
H2736 C2732 0.930 . S
H2737 C2734 0.929 . S
S2738 N2739 1.613 . S
S2738 N2740 1.610 . S
N2739 S2738 1.613 . S
N2739 C2742 1.350 . S
N2740 S2738 1.610 . S
N2740 C2741 1.351 . S
C2741 C2735 1.428 . S
C2741 N2740 1.351 . S
C2741 C2742 1.434 . S
C2742 C2733 1.429 . S
C2742 N2739 1.350 . S
C2742 C2741 1.434 . S
C2743 C2744 1.369 . S
C2743 C2745 1.419 . S
C2743 H2747 0.930 . S
C2744 C2743 1.369 . S
C2744 C2753 1.429 . S
C2745 C2743 1.419 . S
C2745 C2746 1.363 . S
C2745 H2748 0.929 . S
C2746 C2745 1.363 . S
C2746 C2752 1.428 . S
H2747 C2743 0.930 . S
H2748 C2745 0.929 . S
S2749 N2750 1.613 . S
S2749 N2751 1.610 . S
N2750 S2749 1.613 . S
N2750 C2753 1.350 . S
N2751 S2749 1.610 . S
N2751 C2752 1.351 . S
C2752 C2746 1.428 . S
C2752 N2751 1.351 . S
C2752 C2753 1.434 . S
C2753 C2744 1.429 . S
C2753 N2750 1.350 . S
C2753 C2752 1.434 . S
C2754 C2755 1.369 . S
C2754 C2756 1.419 . S
C2754 H2758 0.930 . S
C2755 C2754 1.369 . S
C2755 C2764 1.429 . S
C2756 C2754 1.419 . S
C2756 C2757 1.363 . S
C2756 H2759 0.929 . S
C2757 C2756 1.363 . S
C2757 C2763 1.428 . S
H2758 C2754 0.930 . S
H2759 C2756 0.929 . S
S2760 N2761 1.613 . S
S2760 N2762 1.610 . S
N2761 S2760 1.613 . S
N2761 C2764 1.350 . S
N2762 S2760 1.610 . S
N2762 C2763 1.351 . S
C2763 C2757 1.428 . S
C2763 N2762 1.351 . S
C2763 C2764 1.434 . S
C2764 C2755 1.429 . S
C2764 N2761 1.350 . S
C2764 C2763 1.434 . S
C2765 C2766 1.369 . S
C2765 C2767 1.419 . S
C2765 H2769 0.930 . S
C2766 C2765 1.369 . S
C2766 C2775 1.429 . S
C2767 C2765 1.419 . S
C2767 C2768 1.363 . S
C2767 H2770 0.929 . S
C2768 C2767 1.363 . S
C2768 C2774 1.428 . S
H2769 C2765 0.930 . S
H2770 C2767 0.929 . S
S2771 N2772 1.613 . S
S2771 N2773 1.610 . S
N2772 S2771 1.613 . S
N2772 C2775 1.350 . S
N2773 S2771 1.610 . S
N2773 C2774 1.351 . S
C2774 C2768 1.428 . S
C2774 N2773 1.351 . S
C2774 C2775 1.434 . S
C2775 C2766 1.429 . S
C2775 N2772 1.350 . S
C2775 C2774 1.434 . S
C2776 C2777 1.369 . S
C2776 C2778 1.419 . S
C2776 H2780 0.930 . S
C2777 C2776 1.369 . S
C2777 C2786 1.429 . S
C2778 C2776 1.419 . S
C2778 C2779 1.363 . S
C2778 H2781 0.929 . S
C2779 C2778 1.363 . S
C2779 C2785 1.428 . S
H2780 C2776 0.930 . S
H2781 C2778 0.929 . S
S2782 N2783 1.613 . S
S2782 N2784 1.610 . S
N2783 S2782 1.613 . S
N2783 C2786 1.350 . S
N2784 S2782 1.610 . S
N2784 C2785 1.351 . S
C2785 C2779 1.428 . S
C2785 N2784 1.351 . S
C2785 C2786 1.434 . S
C2786 C2777 1.429 . S
C2786 N2783 1.350 . S
C2786 C2785 1.434 . S
C2787 C2788 1.369 . S
C2787 C2789 1.419 . S
C2787 H2791 0.930 . S
C2788 C2787 1.369 . S
C2788 C2797 1.429 . S
C2789 C2787 1.419 . S
C2789 C2790 1.363 . S
C2789 H2792 0.929 . S
C2790 C2789 1.363 . S
C2790 C2796 1.428 . S
H2791 C2787 0.930 . S
H2792 C2789 0.929 . S
S2793 N2794 1.613 . S
S2793 N2795 1.610 . S
N2794 S2793 1.613 . S
N2794 C2797 1.350 . S
N2795 S2793 1.610 . S
N2795 C2796 1.351 . S
C2796 C2790 1.428 . S
C2796 N2795 1.351 . S
C2796 C2797 1.434 . S
C2797 C2788 1.429 . S
C2797 N2794 1.350 . S
C2797 C2796 1.434 . S
C2798 C2799 1.369 . S
C2798 C2800 1.419 . S
C2798 H2802 0.930 . S
C2799 C2798 1.369 . S
C2799 C2808 1.429 . S
C2800 C2798 1.419 . S
C2800 C2801 1.363 . S
C2800 H2803 0.929 . S
C2801 C2800 1.363 . S
C2801 C2807 1.428 . S
H2802 C2798 0.930 . S
H2803 C2800 0.929 . S
S2804 N2805 1.613 . S
S2804 N2806 1.610 . S
N2805 S2804 1.613 . S
N2805 C2808 1.350 . S
N2806 S2804 1.610 . S
N2806 C2807 1.351 . S
C2807 C2801 1.428 . S
C2807 N2806 1.351 . S
C2807 C2808 1.434 . S
C2808 C2799 1.429 . S
C2808 N2805 1.350 . S
C2808 C2807 1.434 . S
C2809 C2810 1.369 . S
C2809 C2811 1.419 . S
C2809 H2813 0.930 . S
C2810 C2809 1.369 . S
C2810 C2819 1.429 . S
C2811 C2809 1.419 . S
C2811 C2812 1.363 . S
C2811 H2814 0.929 . S
C2812 C2811 1.363 . S
C2812 C2818 1.428 . S
H2813 C2809 0.930 . S
H2814 C2811 0.929 . S
S2815 N2816 1.613 . S
S2815 N2817 1.610 . S
N2816 S2815 1.613 . S
N2816 C2819 1.350 . S
N2817 S2815 1.610 . S
N2817 C2818 1.351 . S
C2818 C2812 1.428 . S
C2818 N2817 1.351 . S
C2818 C2819 1.434 . S
C2819 C2810 1.429 . S
C2819 N2816 1.350 . S
C2819 C2818 1.434 . S
C2820 C2821 1.369 . S
C2820 C2822 1.419 . S
C2820 H2824 0.930 . S
C2821 C2820 1.369 . S
C2821 C2830 1.429 . S
C2822 C2820 1.419 . S
C2822 C2823 1.363 . S
C2822 H2825 0.929 . S
C2823 C2822 1.363 . S
C2823 C2829 1.428 . S
H2824 C2820 0.930 . S
H2825 C2822 0.929 . S
S2826 N2827 1.613 . S
S2826 N2828 1.610 . S
N2827 S2826 1.613 . S
N2827 C2830 1.350 . S
N2828 S2826 1.610 . S
N2828 C2829 1.351 . S
C2829 C2823 1.428 . S
C2829 N2828 1.351 . S
C2829 C2830 1.434 . S
C2830 C2821 1.429 . S
C2830 N2827 1.350 . S
C2830 C2829 1.434 . S
C2831 C2832 1.369 . S
C2831 C2833 1.419 . S
C2831 H2835 0.930 . S
C2832 C2831 1.369 . S
C2832 C2841 1.429 . S
C2833 C2831 1.419 . S
C2833 C2834 1.363 . S
C2833 H2836 0.929 . S
C2834 C2833 1.363 . S
C2834 C2840 1.428 . S
H2835 C2831 0.930 . S
H2836 C2833 0.929 . S
S2837 N2838 1.613 . S
S2837 N2839 1.610 . S
N2838 S2837 1.613 . S
N2838 C2841 1.350 . S
N2839 S2837 1.610 . S
N2839 C2840 1.351 . S
C2840 C2834 1.428 . S
C2840 N2839 1.351 . S
C2840 C2841 1.434 . S
C2841 C2832 1.429 . S
C2841 N2838 1.350 . S
C2841 C2840 1.434 . S
C2842 C2843 1.369 . S
C2842 C2844 1.419 . S
C2842 H2846 0.930 . S
C2843 C2842 1.369 . S
C2843 C2852 1.429 . S
C2844 C2842 1.419 . S
C2844 C2845 1.363 . S
C2844 H2847 0.929 . S
C2845 C2844 1.363 . S
C2845 C2851 1.428 . S
H2846 C2842 0.930 . S
H2847 C2844 0.929 . S
S2848 N2849 1.613 . S
S2848 N2850 1.610 . S
N2849 S2848 1.613 . S
N2849 C2852 1.350 . S
N2850 S2848 1.610 . S
N2850 C2851 1.351 . S
C2851 C2845 1.428 . S
C2851 N2850 1.351 . S
C2851 C2852 1.434 . S
C2852 C2843 1.429 . S
C2852 N2849 1.350 . S
C2852 C2851 1.434 . S
C2853 C2854 1.369 . S
C2853 C2855 1.419 . S
C2853 H2857 0.930 . S
C2854 C2853 1.369 . S
C2854 C2863 1.429 . S
C2855 C2853 1.419 . S
C2855 C2856 1.363 . S
C2855 H2858 0.929 . S
C2856 C2855 1.363 . S
C2856 C2862 1.428 . S
H2857 C2853 0.930 . S
H2858 C2855 0.929 . S
S2859 N2860 1.613 . S
S2859 N2861 1.610 . S
N2860 S2859 1.613 . S
N2860 C2863 1.350 . S
N2861 S2859 1.610 . S
N2861 C2862 1.351 . S
C2862 C2856 1.428 . S
C2862 N2861 1.351 . S
C2862 C2863 1.434 . S
C2863 C2854 1.429 . S
C2863 N2860 1.350 . S
C2863 C2862 1.434 . S
C2864 C2865 1.369 . S
C2864 C2866 1.419 . S
C2864 H2868 0.930 . S
C2865 C2864 1.369 . S
C2865 C2874 1.429 . S
C2866 C2864 1.419 . S
C2866 C2867 1.363 . S
C2866 H2869 0.929 . S
C2867 C2866 1.363 . S
C2867 C2873 1.428 . S
H2868 C2864 0.930 . S
H2869 C2866 0.929 . S
S2870 N2871 1.613 . S
S2870 N2872 1.610 . S
N2871 S2870 1.613 . S
N2871 C2874 1.350 . S
N2872 S2870 1.610 . S
N2872 C2873 1.351 . S
C2873 C2867 1.428 . S
C2873 N2872 1.351 . S
C2873 C2874 1.434 . S
C2874 C2865 1.429 . S
C2874 N2871 1.350 . S
C2874 C2873 1.434 . S
C2875 C2876 1.369 . S
C2875 C2877 1.419 . S
C2875 H2879 0.930 . S
C2876 C2875 1.369 . S
C2876 C2885 1.429 . S
C2877 C2875 1.419 . S
C2877 C2878 1.363 . S
C2877 H2880 0.929 . S
C2878 C2877 1.363 . S
C2878 C2884 1.428 . S
H2879 C2875 0.930 . S
H2880 C2877 0.929 . S
S2881 N2882 1.613 . S
S2881 N2883 1.610 . S
N2882 S2881 1.613 . S
N2882 C2885 1.350 . S
N2883 S2881 1.610 . S
N2883 C2884 1.351 . S
C2884 C2878 1.428 . S
C2884 N2883 1.351 . S
C2884 C2885 1.434 . S
C2885 C2876 1.429 . S
C2885 N2882 1.350 . S
C2885 C2884 1.434 . S
C2886 C2887 1.369 . S
C2886 C2888 1.419 . S
C2886 H2890 0.930 . S
C2887 C2886 1.369 . S
C2887 C2896 1.429 . S
C2888 C2886 1.419 . S
C2888 C2889 1.363 . S
C2888 H2891 0.929 . S
C2889 C2888 1.363 . S
C2889 C2895 1.428 . S
H2890 C2886 0.930 . S
H2891 C2888 0.929 . S
S2892 N2893 1.613 . S
S2892 N2894 1.610 . S
N2893 S2892 1.613 . S
N2893 C2896 1.350 . S
N2894 S2892 1.610 . S
N2894 C2895 1.351 . S
C2895 C2889 1.428 . S
C2895 N2894 1.351 . S
C2895 C2896 1.434 . S
C2896 C2887 1.429 . S
C2896 N2893 1.350 . S
C2896 C2895 1.434 . S
C2897 C2898 1.369 . S
C2897 C2899 1.419 . S
C2897 H2901 0.930 . S
C2898 C2897 1.369 . S
C2898 C2907 1.429 . S
C2899 C2897 1.419 . S
C2899 C2900 1.363 . S
C2899 H2902 0.929 . S
C2900 C2899 1.363 . S
C2900 C2906 1.428 . S
H2901 C2897 0.930 . S
H2902 C2899 0.929 . S
S2903 N2904 1.613 . S
S2903 N2905 1.610 . S
N2904 S2903 1.613 . S
N2904 C2907 1.350 . S
N2905 S2903 1.610 . S
N2905 C2906 1.351 . S
C2906 C2900 1.428 . S
C2906 N2905 1.351 . S
C2906 C2907 1.434 . S
C2907 C2898 1.429 . S
C2907 N2904 1.350 . S
C2907 C2906 1.434 . S
C2908 C2909 1.369 . S
C2908 C2910 1.419 . S
C2908 H2912 0.930 . S
C2909 C2908 1.369 . S
C2909 C2918 1.429 . S
C2910 C2908 1.419 . S
C2910 C2911 1.363 . S
C2910 H2913 0.929 . S
C2911 C2910 1.363 . S
C2911 C2917 1.428 . S
H2912 C2908 0.930 . S
H2913 C2910 0.929 . S
S2914 N2915 1.613 . S
S2914 N2916 1.610 . S
N2915 S2914 1.613 . S
N2915 C2918 1.350 . S
N2916 S2914 1.610 . S
N2916 C2917 1.351 . S
C2917 C2911 1.428 . S
C2917 N2916 1.351 . S
C2917 C2918 1.434 . S
C2918 C2909 1.429 . S
C2918 N2915 1.350 . S
C2918 C2917 1.434 . S
C2919 C2920 1.369 . S
C2919 C2921 1.419 . S
C2919 H2923 0.930 . S
C2920 C2919 1.369 . S
C2920 C2929 1.429 . S
C2921 C2919 1.419 . S
C2921 C2922 1.363 . S
C2921 H2924 0.929 . S
C2922 C2921 1.363 . S
C2922 C2928 1.428 . S
H2923 C2919 0.930 . S
H2924 C2921 0.929 . S
S2925 N2926 1.613 . S
S2925 N2927 1.610 . S
N2926 S2925 1.613 . S
N2926 C2929 1.350 . S
N2927 S2925 1.610 . S
N2927 C2928 1.351 . S
C2928 C2922 1.428 . S
C2928 N2927 1.351 . S
C2928 C2929 1.434 . S
C2929 C2920 1.429 . S
C2929 N2926 1.350 . S
C2929 C2928 1.434 . S
C2930 C2931 1.369 . S
C2930 C2932 1.419 . S
C2930 H2934 0.930 . S
C2931 C2930 1.369 . S
C2931 C2940 1.429 . S
C2932 C2930 1.419 . S
C2932 C2933 1.363 . S
C2932 H2935 0.929 . S
C2933 C2932 1.363 . S
C2933 C2939 1.428 . S
H2934 C2930 0.930 . S
H2935 C2932 0.929 . S
S2936 N2937 1.613 . S
S2936 N2938 1.610 . S
N2937 S2936 1.613 . S
N2937 C2940 1.350 . S
N2938 S2936 1.610 . S
N2938 C2939 1.351 . S
C2939 C2933 1.428 . S
C2939 N2938 1.351 . S
C2939 C2940 1.434 . S
C2940 C2931 1.429 . S
C2940 N2937 1.350 . S
C2940 C2939 1.434 . S
C2941 C2942 1.369 . S
C2941 C2943 1.419 . S
C2941 H2945 0.930 . S
C2942 C2941 1.369 . S
C2942 C2951 1.429 . S
C2943 C2941 1.419 . S
C2943 C2944 1.363 . S
C2943 H2946 0.929 . S
C2944 C2943 1.363 . S
C2944 C2950 1.428 . S
H2945 C2941 0.930 . S
H2946 C2943 0.929 . S
S2947 N2948 1.613 . S
S2947 N2949 1.610 . S
N2948 S2947 1.613 . S
N2948 C2951 1.350 . S
N2949 S2947 1.610 . S
N2949 C2950 1.351 . S
C2950 C2944 1.428 . S
C2950 N2949 1.351 . S
C2950 C2951 1.434 . S
C2951 C2942 1.429 . S
C2951 N2948 1.350 . S
C2951 C2950 1.434 . S
C2952 C2953 1.380 . S
C2952 C2954 1.428 . S
C2952 H2956 0.909 1_455 S
C2953 C2952 1.380 . S
C2953 C2962 1.429 . S
C2954 C2952 1.428 . S
C2954 C2955 1.363 . S
C2954 H2957 0.929 . S
C2955 C2954 1.363 . S
C2955 C2961 1.428 . S
H2956 C2952 0.909 1_655 S
H2957 C2954 0.929 . S
S2958 N2959 1.613 . S
S2958 N2960 1.610 . S
N2959 S2958 1.613 . S
N2959 C2962 1.350 . S
N2960 S2958 1.610 . S
N2960 C2961 1.351 . S
C2961 C2955 1.428 . S
C2961 N2960 1.351 . S
C2961 C2962 1.434 . S
C2962 C2953 1.429 . S
C2962 N2959 1.350 . S
C2962 C2961 1.434 . S
C2963 C2964 1.369 . S
C2963 C2965 1.419 . S
C2963 H2967 0.930 . S
C2964 C2963 1.369 . S
C2964 C2973 1.429 . S
C2965 C2963 1.419 . S
C2965 C2966 1.363 . S
C2965 H2968 0.929 . S
C2966 C2965 1.363 . S
C2966 C2972 1.428 . S
H2967 C2963 0.930 . S
H2968 C2965 0.929 . S
S2969 N2970 1.613 . S
S2969 N2971 1.610 . S
N2970 S2969 1.613 . S
N2970 C2973 1.350 . S
N2971 S2969 1.610 . S
N2971 C2972 1.351 . S
C2972 C2966 1.428 . S
C2972 N2971 1.351 . S
C2972 C2973 1.434 . S
C2973 C2964 1.429 . S
C2973 N2970 1.350 . S
C2973 C2972 1.434 . S
C2974 C2975 1.369 . S
C2974 C2976 1.419 . S
C2974 H2978 0.930 . S
C2975 C2974 1.369 . S
C2975 C2984 1.429 . S
C2976 C2974 1.419 . S
C2976 C2977 1.363 . S
C2976 H2979 0.929 . S
C2977 C2976 1.363 . S
C2977 C2983 1.428 . S
H2978 C2974 0.930 . S
H2979 C2976 0.929 . S
S2980 N2981 1.613 . S
S2980 N2982 1.610 . S
N2981 S2980 1.613 . S
N2981 C2984 1.350 . S
N2982 S2980 1.610 . S
N2982 C2983 1.351 . S
C2983 C2977 1.428 . S
C2983 N2982 1.351 . S
C2983 C2984 1.434 . S
C2984 C2975 1.429 . S
C2984 N2981 1.350 . S
C2984 C2983 1.434 . S
C2985 C2986 1.369 . S
C2985 C2987 1.419 . S
C2985 H2989 0.930 . S
C2986 C2985 1.369 . S
C2986 C2995 1.429 . S
C2987 C2985 1.419 . S
C2987 C2988 1.363 . S
C2987 H2990 0.929 . S
C2988 C2987 1.363 . S
C2988 C2994 1.428 . S
H2989 C2985 0.930 . S
H2990 C2987 0.929 . S
S2991 N2992 1.613 . S
S2991 N2993 1.610 . S
N2992 S2991 1.613 . S
N2992 C2995 1.350 . S
N2993 S2991 1.610 . S
N2993 C2994 1.351 . S
C2994 C2988 1.428 . S
C2994 N2993 1.351 . S
C2994 C2995 1.434 . S
C2995 C2986 1.429 . S
C2995 N2992 1.350 . S
C2995 C2994 1.434 . S
C2996 C2997 1.369 . S
C2996 C2998 1.419 . S
C2996 H3000 0.930 . S
C2997 C2996 1.369 . S
C2997 C3006 1.429 . S
C2998 C2996 1.419 . S
C2998 C2999 1.363 . S
C2998 H3001 0.929 . S
C2999 C2998 1.363 . S
C2999 C3005 1.428 . S
H3000 C2996 0.930 . S
H3001 C2998 0.929 . S
S3002 N3003 1.613 . S
S3002 N3004 1.610 . S
N3003 S3002 1.613 . S
N3003 C3006 1.350 . S
N3004 S3002 1.610 . S
N3004 C3005 1.351 . S
C3005 C2999 1.428 . S
C3005 N3004 1.351 . S
C3005 C3006 1.434 . S
C3006 C2997 1.429 . S
C3006 N3003 1.350 . S
C3006 C3005 1.434 . S
C3007 C3008 1.369 . S
C3007 C3009 1.419 . S
C3007 H3011 0.930 . S
C3008 C3007 1.369 . S
C3008 C3017 1.429 . S
C3009 C3007 1.419 . S
C3009 C3010 1.363 . S
C3009 H3012 0.929 1_545 S
C3010 C3009 1.363 . S
C3010 C3016 1.428 . S
H3011 C3007 0.930 . S
H3012 C3009 0.929 1_565 S
S3013 N3014 1.613 . S
S3013 N3015 1.610 . S
N3014 S3013 1.613 . S
N3014 C3017 1.350 . S
N3015 S3013 1.610 . S
N3015 C3016 1.351 . S
C3016 C3010 1.428 . S
C3016 N3015 1.351 . S
C3016 C3017 1.434 . S
C3017 C3008 1.429 . S
C3017 N3014 1.350 . S
C3017 C3016 1.434 . S
C3018 C3019 1.369 . S
C3018 C3020 1.419 . S
C3018 H3022 0.930 . S
C3019 C3018 1.369 . S
C3019 C3028 1.429 . S
C3020 C3018 1.419 . S
C3020 C3021 1.363 . S
C3020 H3023 0.929 . S
C3021 C3020 1.363 . S
C3021 C3027 1.428 . S
H3022 C3018 0.930 . S
H3023 C3020 0.929 . S
S3024 N3025 1.613 . S
S3024 N3026 1.610 . S
N3025 S3024 1.613 . S
N3025 C3028 1.350 . S
N3026 S3024 1.610 . S
N3026 C3027 1.351 . S
C3027 C3021 1.428 . S
C3027 N3026 1.351 . S
C3027 C3028 1.434 . S
C3028 C3019 1.429 . S
C3028 N3025 1.350 . S
C3028 C3027 1.434 . S
C3029 C3030 1.369 . S
C3029 C3031 1.419 . S
C3029 H3033 0.930 . S
C3030 C3029 1.369 . S
C3030 C3039 1.429 . S
C3031 C3029 1.419 . S
C3031 C3032 1.363 . S
C3031 H3034 0.929 . S
C3032 C3031 1.363 . S
C3032 C3038 1.428 . S
H3033 C3029 0.930 . S
H3034 C3031 0.929 . S
S3035 N3036 1.613 . S
S3035 N3037 1.610 . S
N3036 S3035 1.613 . S
N3036 C3039 1.350 . S
N3037 S3035 1.610 . S
N3037 C3038 1.351 . S
C3038 C3032 1.428 . S
C3038 N3037 1.351 . S
C3038 C3039 1.434 . S
C3039 C3030 1.429 . S
C3039 N3036 1.350 . S
C3039 C3038 1.434 . S
C3040 C3041 1.369 . S
C3040 C3042 1.419 . S
C3040 H3044 0.930 . S
C3041 C3040 1.369 . S
C3041 C3050 1.429 . S
C3042 C3040 1.419 . S
C3042 C3043 1.363 . S
C3042 H3045 0.929 . S
C3043 C3042 1.363 . S
C3043 C3049 1.428 . S
H3044 C3040 0.930 . S
H3045 C3042 0.929 . S
S3046 N3047 1.613 . S
S3046 N3048 1.610 1_565 S
N3047 S3046 1.613 . S
N3047 C3050 1.350 1_565 S
N3048 S3046 1.610 1_545 S
N3048 C3049 1.351 . S
C3049 C3043 1.428 . S
C3049 N3048 1.351 . S
C3049 C3050 1.434 . S
C3050 C3041 1.429 . S
C3050 N3047 1.350 1_545 S
C3050 C3049 1.434 . S
C3051 C3052 1.369 . S
C3051 C3053 1.419 . S
C3051 H3055 0.930 . S
C3052 C3051 1.369 . S
C3052 C3061 1.429 . S
C3053 C3051 1.419 . S
C3053 C3054 1.363 . S
C3053 H3056 0.929 . S
C3054 C3053 1.363 . S
C3054 C3060 1.428 . S
H3055 C3051 0.930 . S
H3056 C3053 0.929 . S
S3057 N3058 1.613 . S
S3057 N3059 1.610 . S
N3058 S3057 1.613 . S
N3058 C3061 1.350 . S
N3059 S3057 1.610 . S
N3059 C3060 1.351 . S
C3060 C3054 1.428 . S
C3060 N3059 1.351 . S
C3060 C3061 1.434 . S
C3061 C3052 1.429 . S
C3061 N3058 1.350 . S
C3061 C3060 1.434 . S
C3062 C3063 1.369 . S
C3062 C3064 1.419 . S
C3062 H3066 0.930 . S
C3063 C3062 1.369 . S
C3063 C3072 1.429 . S
C3064 C3062 1.419 . S
C3064 C3065 1.363 . S
C3064 H3067 0.929 . S
C3065 C3064 1.363 . S
C3065 C3071 1.428 . S
H3066 C3062 0.930 . S
H3067 C3064 0.929 . S
S3068 N3069 1.613 . S
S3068 N3070 1.610 . S
N3069 S3068 1.613 . S
N3069 C3072 1.350 . S
N3070 S3068 1.610 . S
N3070 C3071 1.351 . S
C3071 C3065 1.428 . S
C3071 N3070 1.351 . S
C3071 C3072 1.434 . S
C3072 C3063 1.429 . S
C3072 N3069 1.350 . S
C3072 C3071 1.434 . S
C3073 C3074 1.369 . S
C3073 C3075 1.419 . S
C3073 H3077 0.930 . S
C3074 C3073 1.369 . S
C3074 C3083 1.429 . S
C3075 C3073 1.419 . S
C3075 C3076 1.363 . S
C3075 H3078 0.929 . S
C3076 C3075 1.363 . S
C3076 C3082 1.428 . S
H3077 C3073 0.930 . S
H3078 C3075 0.929 . S
S3079 N3080 1.613 . S
S3079 N3081 1.609 1_455 S
N3080 S3079 1.613 . S
N3080 C3083 1.350 . S
N3081 S3079 1.609 1_655 S
N3081 C3082 1.347 1_655 S
C3082 C3076 1.428 . S
C3082 N3081 1.347 1_455 S
C3082 C3083 1.434 . S
C3083 C3074 1.429 . S
C3083 N3080 1.350 . S
C3083 C3082 1.434 . S
C3084 C3085 1.369 . S
C3084 C3086 1.419 . S
C3084 H3088 0.930 . S
C3085 C3084 1.369 . S
C3085 C3094 1.429 . S
C3086 C3084 1.419 . S
C3086 C3087 1.363 . S
C3086 H3089 0.929 . S
C3087 C3086 1.363 . S
C3087 C3093 1.428 . S
H3088 C3084 0.930 . S
H3089 C3086 0.929 . S
S3090 N3091 1.613 . S
S3090 N3092 1.610 . S
N3091 S3090 1.613 . S
N3091 C3094 1.350 . S
N3092 S3090 1.610 . S
N3092 C3093 1.351 . S
C3093 C3087 1.428 . S
C3093 N3092 1.351 . S
C3093 C3094 1.434 . S
C3094 C3085 1.429 . S
C3094 N3091 1.350 . S
C3094 C3093 1.434 . S
C3095 C3096 1.369 . S
C3095 C3097 1.419 . S
C3095 H3099 0.930 . S
C3096 C3095 1.369 . S
C3096 C3105 1.429 . S
C3097 C3095 1.419 . S
C3097 C3098 1.363 . S
C3097 H3100 0.929 . S
C3098 C3097 1.363 . S
C3098 C3104 1.428 . S
H3099 C3095 0.930 . S
H3100 C3097 0.929 . S
S3101 N3102 1.595 1_655 S
S3101 N3103 1.610 . S
N3102 S3101 1.595 1_455 S
N3102 C3105 1.362 . S
N3103 S3101 1.610 . S
N3103 C3104 1.351 1_655 S
C3104 C3098 1.428 . S
C3104 N3103 1.351 1_455 S
C3104 C3105 1.434 . S
C3105 C3096 1.429 . S
C3105 N3102 1.362 . S
C3105 C3104 1.434 . S
C3106 C3107 1.369 . S
C3106 C3108 1.419 . S
C3106 H3110 0.930 . S
C3107 C3106 1.369 . S
C3107 C3116 1.429 . S
C3108 C3106 1.419 . S
C3108 C3109 1.363 . S
C3108 H3111 0.929 . S
C3109 C3108 1.363 . S
C3109 C3115 1.428 . S
H3110 C3106 0.930 . S
H3111 C3108 0.929 . S
S3112 N3113 1.613 . S
S3112 N3114 1.610 1_565 S
N3113 S3112 1.613 . S
N3113 C3116 1.350 1_565 S
N3114 S3112 1.610 1_545 S
N3114 C3115 1.351 . S
C3115 C3109 1.428 . S
C3115 N3114 1.351 . S
C3115 C3116 1.434 . S
C3116 C3107 1.429 . S
C3116 N3113 1.350 1_545 S
C3116 C3115 1.434 . S
C3117 C3118 1.369 . S
C3117 C3119 1.419 . S
C3117 H3121 0.930 . S
C3118 C3117 1.369 . S
C3118 C3127 1.429 . S
C3119 C3117 1.419 . S
C3119 C3120 1.363 . S
C3119 H3122 0.929 . S
C3120 C3119 1.363 . S
C3120 C3126 1.428 . S
H3121 C3117 0.930 . S
H3122 C3119 0.929 . S
S3123 N3124 1.613 . S
S3123 N3125 1.610 . S
N3124 S3123 1.613 . S
N3124 C3127 1.350 . S
N3125 S3123 1.610 . S
N3125 C3126 1.351 . S
C3126 C3120 1.428 . S
C3126 N3125 1.351 . S
C3126 C3127 1.434 . S
C3127 C3118 1.429 . S
C3127 N3124 1.350 . S
C3127 C3126 1.434 . S
C3128 C3129 1.369 . S
C3128 C3130 1.419 . S
C3128 H3132 0.930 . S
C3129 C3128 1.369 . S
C3129 C3138 1.429 . S
C3130 C3128 1.419 . S
C3130 C3131 1.363 . S
C3130 H3133 0.929 . S
C3131 C3130 1.363 . S
C3131 C3137 1.428 . S
H3132 C3128 0.930 . S
H3133 C3130 0.929 . S
S3134 N3135 1.608 1_556 S
S3134 N3136 1.610 . S
N3135 S3134 1.608 1_554 S
N3135 C3138 1.353 . S
N3136 S3134 1.610 . S
N3136 C3137 1.351 1_556 S
C3137 C3131 1.428 . S
C3137 N3136 1.351 1_554 S
C3137 C3138 1.434 . S
C3138 C3129 1.429 . S
C3138 N3135 1.353 . S
C3138 C3137 1.434 . S
C3139 C3140 1.369 . S
C3139 C3141 1.419 . S
C3139 H3143 0.930 . S
C3140 C3139 1.369 . S
C3140 C3149 1.429 . S
C3141 C3139 1.419 . S
C3141 C3142 1.363 . S
C3141 H3144 0.929 . S
C3142 C3141 1.363 . S
C3142 C3148 1.428 . S
H3143 C3139 0.930 . S
H3144 C3141 0.929 . S
S3145 N3146 1.613 . S
S3145 N3147 1.610 . S
N3146 S3145 1.613 . S
N3146 C3149 1.350 . S
N3147 S3145 1.610 . S
N3147 C3148 1.351 . S
C3148 C3142 1.428 . S
C3148 N3147 1.351 . S
C3148 C3149 1.434 . S
C3149 C3140 1.429 . S
C3149 N3146 1.350 . S
C3149 C3148 1.434 . S
C3150 C3151 1.369 . S
C3150 C3152 1.419 . S
C3150 H3154 0.930 . S
C3151 C3150 1.369 . S
C3151 C3160 1.429 . S
C3152 C3150 1.419 . S
C3152 C3153 1.363 . S
C3152 H3155 0.929 . S
C3153 C3152 1.363 . S
C3153 C3159 1.428 . S
H3154 C3150 0.930 . S
H3155 C3152 0.929 . S
S3156 N3157 1.613 . S
S3156 N3158 1.610 . S
N3157 S3156 1.613 . S
N3157 C3160 1.350 . S
N3158 S3156 1.610 . S
N3158 C3159 1.351 . S
C3159 C3153 1.428 . S
C3159 N3158 1.351 . S
C3159 C3160 1.434 . S
C3160 C3151 1.429 . S
C3160 N3157 1.350 . S
C3160 C3159 1.434 . S
C3161 C3162 1.369 . S
C3161 C3163 1.419 . S
C3161 H3165 0.930 . S
C3162 C3161 1.369 . S
C3162 C3171 1.429 . S
C3163 C3161 1.419 . S
C3163 C3164 1.363 . S
C3163 H3166 0.929 . S
C3164 C3163 1.363 . S
C3164 C3170 1.428 . S
H3165 C3161 0.930 . S
H3166 C3163 0.929 . S
S3167 N3168 1.613 . S
S3167 N3169 1.610 . S
N3168 S3167 1.613 . S
N3168 C3171 1.350 . S
N3169 S3167 1.610 . S
N3169 C3170 1.351 . S
C3170 C3164 1.428 . S
C3170 N3169 1.351 . S
C3170 C3171 1.434 . S
C3171 C3162 1.429 . S
C3171 N3168 1.350 . S
C3171 C3170 1.434 . S
C3172 C3173 1.369 . S
C3172 C3174 1.419 . S
C3172 H3176 0.930 . S
C3173 C3172 1.369 . S
C3173 C3182 1.429 . S
C3174 C3172 1.419 . S
C3174 C3175 1.363 . S
C3174 H3177 0.929 . S
C3175 C3174 1.363 . S
C3175 C3181 1.428 . S
H3176 C3172 0.930 . S
H3177 C3174 0.929 . S
S3178 N3179 1.613 . S
S3178 N3180 1.610 . S
N3179 S3178 1.613 . S
N3179 C3182 1.350 . S
N3180 S3178 1.610 . S
N3180 C3181 1.351 . S
C3181 C3175 1.428 . S
C3181 N3180 1.351 . S
C3181 C3182 1.434 . S
C3182 C3173 1.429 . S
C3182 N3179 1.350 . S
C3182 C3181 1.434 . S
C3183 C3184 1.369 . S
C3183 C3185 1.419 . S
C3183 H3187 0.930 . S
C3184 C3183 1.369 . S
C3184 C3193 1.429 . S
C3185 C3183 1.419 . S
C3185 C3186 1.363 . S
C3185 H3188 0.929 . S
C3186 C3185 1.363 . S
C3186 C3192 1.428 . S
H3187 C3183 0.930 . S
H3188 C3185 0.929 . S
S3189 N3190 1.613 . S
S3189 N3191 1.610 . S
N3190 S3189 1.613 . S
N3190 C3193 1.350 . S
N3191 S3189 1.610 . S
N3191 C3192 1.351 . S
C3192 C3186 1.428 . S
C3192 N3191 1.351 . S
C3192 C3193 1.434 . S
C3193 C3184 1.429 . S
C3193 N3190 1.350 . S
C3193 C3192 1.434 . S
C3194 C3195 1.369 . S
C3194 C3196 1.419 . S
C3194 H3198 0.930 . S
C3195 C3194 1.369 . S
C3195 C3204 1.429 . S
C3196 C3194 1.419 . S
C3196 C3197 1.363 . S
C3196 H3199 0.929 . S
C3197 C3196 1.363 . S
C3197 C3203 1.428 . S
H3198 C3194 0.930 . S
H3199 C3196 0.929 . S
S3200 N3201 1.613 . S
S3200 N3202 1.610 . S
N3201 S3200 1.613 . S
N3201 C3204 1.350 . S
N3202 S3200 1.610 . S
N3202 C3203 1.351 . S
C3203 C3197 1.428 . S
C3203 N3202 1.351 . S
C3203 C3204 1.434 . S
C3204 C3195 1.429 . S
C3204 N3201 1.350 . S
C3204 C3203 1.434 . S
C3205 C3206 1.369 . S
C3205 C3207 1.419 . S
C3205 H3209 0.930 . S
C3206 C3205 1.369 . S
C3206 C3215 1.429 . S
C3207 C3205 1.419 . S
C3207 C3208 1.363 . S
C3207 H3210 0.929 1_554 S
C3208 C3207 1.363 . S
C3208 C3214 1.428 . S
H3209 C3205 0.930 . S
H3210 C3207 0.929 1_556 S
S3211 N3212 1.613 . S
S3211 N3213 1.610 . S
N3212 S3211 1.613 . S
N3212 C3215 1.350 . S
N3213 S3211 1.610 . S
N3213 C3214 1.351 . S
C3214 C3208 1.428 . S
C3214 N3213 1.351 . S
C3214 C3215 1.434 . S
C3215 C3206 1.429 . S
C3215 N3212 1.350 . S
C3215 C3214 1.434 . S
C3216 C3217 1.370 . S
C3216 C3218 1.419 . S
C3216 H3220 0.929 1_655 S
C3217 C3216 1.370 . S
C3217 C3226 1.429 . S
C3218 C3216 1.419 . S
C3218 C3219 1.363 . S
C3218 H3221 0.929 . S
C3219 C3218 1.363 . S
C3219 C3225 1.428 . S
H3220 C3216 0.929 1_455 S
H3221 C3218 0.929 . S
S3222 N3223 1.613 . S
S3222 N3224 1.610 . S
N3223 S3222 1.613 . S
N3223 C3226 1.350 . S
N3224 S3222 1.610 . S
N3224 C3225 1.351 . S
C3225 C3219 1.428 . S
C3225 N3224 1.351 . S
C3225 C3226 1.434 . S
C3226 C3217 1.429 . S
C3226 N3223 1.350 . S
C3226 C3225 1.434 . S
C3227 C3228 1.369 . S
C3227 C3229 1.419 . S
C3227 H3231 0.930 . S
C3228 C3227 1.369 . S
C3228 C3237 1.429 . S
C3229 C3227 1.419 . S
C3229 C3230 1.363 . S
C3229 H3232 0.907 1_565 S
C3230 C3229 1.363 . S
C3230 C3236 1.428 . S
H3231 C3227 0.930 . S
H3232 C3229 0.907 1_545 S
S3233 N3234 1.613 . S
S3233 N3235 1.610 . S
N3234 S3233 1.613 . S
N3234 C3237 1.350 . S
N3235 S3233 1.610 . S
N3235 C3236 1.351 . S
C3236 C3230 1.428 . S
C3236 N3235 1.351 . S
C3236 C3237 1.434 . S
C3237 C3228 1.429 . S
C3237 N3234 1.350 . S
C3237 C3236 1.434 . S
C3238 C3239 1.369 . S
C3238 C3240 1.419 . S
C3238 H3242 0.930 . S
C3239 C3238 1.369 . S
C3239 C3248 1.429 . S
C3240 C3238 1.419 . S
C3240 C3241 1.363 . S
C3240 H3243 0.929 . S
C3241 C3240 1.363 . S
C3241 C3247 1.428 . S
H3242 C3238 0.930 . S
H3243 C3240 0.929 . S
S3244 N3245 1.613 . S
S3244 N3246 1.610 . S
N3245 S3244 1.613 . S
N3245 C3248 1.350 . S
N3246 S3244 1.610 . S
N3246 C3247 1.351 . S
C3247 C3241 1.428 . S
C3247 N3246 1.351 . S
C3247 C3248 1.434 . S
C3248 C3239 1.429 . S
C3248 N3245 1.350 . S
C3248 C3247 1.434 . S
C3249 C3250 1.369 . S
C3249 C3251 1.419 . S
C3249 H3253 0.930 . S
C3250 C3249 1.369 . S
C3250 C3259 1.429 . S
C3251 C3249 1.419 . S
C3251 C3252 1.363 . S
C3251 H3254 0.929 . S
C3252 C3251 1.363 . S
C3252 C3258 1.428 . S
H3253 C3249 0.930 . S
H3254 C3251 0.929 . S
S3255 N3256 1.613 . S
S3255 N3257 1.610 . S
N3256 S3255 1.613 . S
N3256 C3259 1.350 . S
N3257 S3255 1.610 . S
N3257 C3258 1.351 . S
C3258 C3252 1.428 . S
C3258 N3257 1.351 . S
C3258 C3259 1.434 . S
C3259 C3250 1.429 . S
C3259 N3256 1.350 . S
C3259 C3258 1.434 . S
C3260 C3261 1.369 . S
C3260 C3262 1.419 . S
C3260 H3264 0.930 . S
C3261 C3260 1.369 . S
C3261 C3270 1.429 . S
C3262 C3260 1.419 . S
C3262 C3263 1.363 . S
C3262 H3265 0.929 . S
C3263 C3262 1.363 . S
C3263 C3269 1.428 . S
H3264 C3260 0.930 . S
H3265 C3262 0.929 . S
S3266 N3267 1.613 . S
S3266 N3268 1.610 . S
N3267 S3266 1.613 . S
N3267 C3270 1.350 . S
N3268 S3266 1.610 . S
N3268 C3269 1.351 . S
C3269 C3263 1.428 . S
C3269 N3268 1.351 . S
C3269 C3270 1.434 . S
C3270 C3261 1.429 . S
C3270 N3267 1.350 . S
C3270 C3269 1.434 . S
C3271 C3272 1.369 . S
C3271 C3273 1.419 . S
C3271 H3275 0.930 1_565 S
C3272 C3271 1.369 . S
C3272 C3281 1.429 . S
C3273 C3271 1.419 . S
C3273 C3274 1.363 . S
C3273 H3276 0.929 . S
C3274 C3273 1.363 . S
C3274 C3280 1.428 . S
H3275 C3271 0.930 1_545 S
H3276 C3273 0.929 . S
S3277 N3278 1.613 . S
S3277 N3279 1.610 . S
N3278 S3277 1.613 . S
N3278 C3281 1.350 . S
N3279 S3277 1.610 . S
N3279 C3280 1.351 . S
C3280 C3274 1.428 . S
C3280 N3279 1.351 . S
C3280 C3281 1.434 . S
C3281 C3272 1.429 . S
C3281 N3278 1.350 . S
C3281 C3280 1.434 . S
C3282 C3283 1.369 . S
C3282 C3284 1.419 . S
C3282 H3286 0.930 . S
C3283 C3282 1.369 . S
C3283 C3292 1.429 . S
C3284 C3282 1.419 . S
C3284 C3285 1.363 . S
C3284 H3287 0.929 . S
C3285 C3284 1.363 . S
C3285 C3291 1.428 . S
H3286 C3282 0.930 . S
H3287 C3284 0.929 . S
S3288 N3289 1.613 . S
S3288 N3290 1.610 . S
N3289 S3288 1.613 . S
N3289 C3292 1.350 . S
N3290 S3288 1.610 . S
N3290 C3291 1.351 . S
C3291 C3285 1.428 . S
C3291 N3290 1.351 . S
C3291 C3292 1.434 . S
C3292 C3283 1.429 . S
C3292 N3289 1.350 . S
C3292 C3291 1.434 . S
C3293 C3294 1.369 . S
C3293 C3295 1.419 . S
C3293 H3297 0.930 . S
C3294 C3293 1.369 . S
C3294 C3303 1.429 . S
C3295 C3293 1.419 . S
C3295 C3296 1.363 . S
C3295 H3298 0.929 . S
C3296 C3295 1.363 . S
C3296 C3302 1.428 . S
H3297 C3293 0.930 . S
H3298 C3295 0.929 . S
S3299 N3300 1.613 . S
S3299 N3301 1.610 . S
N3300 S3299 1.613 . S
N3300 C3303 1.350 . S
N3301 S3299 1.610 . S
N3301 C3302 1.351 . S
C3302 C3296 1.428 . S
C3302 N3301 1.351 . S
C3302 C3303 1.434 . S
C3303 C3294 1.429 . S
C3303 N3300 1.350 . S
C3303 C3302 1.434 . S
C3304 C3305 1.369 . S
C3304 C3306 1.419 . S
C3304 H3308 0.930 . S
C3305 C3304 1.369 . S
C3305 C3314 1.429 . S
C3306 C3304 1.419 . S
C3306 C3307 1.363 . S
C3306 H3309 0.929 . S
C3307 C3306 1.363 . S
C3307 C3313 1.428 1_565 S
H3308 C3304 0.930 . S
H3309 C3306 0.929 . S
S3310 N3311 1.613 . S
S3310 N3312 1.610 . S
N3311 S3310 1.613 . S
N3311 C3314 1.350 1_545 S
N3312 S3310 1.610 . S
N3312 C3313 1.351 . S
C3313 C3307 1.428 1_545 S
C3313 N3312 1.351 . S
C3313 C3314 1.434 1_545 S
C3314 C3305 1.429 . S
C3314 N3311 1.350 1_565 S
C3314 C3313 1.434 1_565 S
C3315 C3316 1.369 . S
C3315 C3317 1.419 . S
C3315 H3319 0.930 . S
C3316 C3315 1.369 . S
C3316 C3325 1.429 . S
C3317 C3315 1.419 . S
C3317 C3318 1.363 . S
C3317 H3320 0.929 . S
C3318 C3317 1.363 . S
C3318 C3324 1.428 . S
H3319 C3315 0.930 . S
H3320 C3317 0.929 . S
S3321 N3322 1.613 . S
S3321 N3323 1.610 . S
N3322 S3321 1.613 . S
N3322 C3325 1.350 . S
N3323 S3321 1.610 . S
N3323 C3324 1.351 . S
C3324 C3318 1.428 . S
C3324 N3323 1.351 . S
C3324 C3325 1.434 . S
C3325 C3316 1.429 . S
C3325 N3322 1.350 . S
C3325 C3324 1.434 . S
C3326 C3327 1.369 . S
C3326 C3328 1.419 . S
C3326 H3330 0.930 . S
C3327 C3326 1.369 . S
C3327 C3336 1.429 . S
C3328 C3326 1.419 . S
C3328 C3329 1.363 . S
C3328 H3331 0.929 . S
C3329 C3328 1.363 . S
C3329 C3335 1.428 . S
H3330 C3326 0.930 . S
H3331 C3328 0.929 . S
S3332 N3333 1.613 . S
S3332 N3334 1.610 . S
N3333 S3332 1.613 . S
N3333 C3336 1.350 . S
N3334 S3332 1.610 . S
N3334 C3335 1.351 . S
C3335 C3329 1.428 . S
C3335 N3334 1.351 . S
C3335 C3336 1.434 . S
C3336 C3327 1.429 . S
C3336 N3333 1.350 . S
C3336 C3335 1.434 . S
C3337 C3338 1.369 . S
C3337 C3339 1.419 . S
C3337 H3341 0.930 1_655 S
C3338 C3337 1.369 . S
C3338 C3347 1.429 . S
C3339 C3337 1.419 . S
C3339 C3340 1.363 . S
C3339 H3342 0.929 . S
C3340 C3339 1.363 . S
C3340 C3346 1.428 . S
H3341 C3337 0.930 1_455 S
H3342 C3339 0.929 . S
S3343 N3344 1.613 . S
S3343 N3345 1.610 . S
N3344 S3343 1.613 . S
N3344 C3347 1.350 . S
N3345 S3343 1.610 . S
N3345 C3346 1.351 . S
C3346 C3340 1.428 . S
C3346 N3345 1.351 . S
C3346 C3347 1.434 . S
C3347 C3338 1.429 . S
C3347 N3344 1.350 . S
C3347 C3346 1.434 . S
C3348 C3349 1.369 . S
C3348 C3350 1.419 . S
C3348 H3352 0.930 . S
C3349 C3348 1.369 . S
C3349 C3358 1.429 . S
C3350 C3348 1.419 . S
C3350 C3351 1.363 . S
C3350 H3353 0.929 . S
C3351 C3350 1.363 . S
C3351 C3357 1.428 . S
H3352 C3348 0.930 . S
H3353 C3350 0.929 . S
S3354 N3355 1.613 . S
S3354 N3356 1.610 . S
N3355 S3354 1.613 . S
N3355 C3358 1.350 . S
N3356 S3354 1.610 . S
N3356 C3357 1.351 . S
C3357 C3351 1.428 . S
C3357 N3356 1.351 . S
C3357 C3358 1.434 . S
C3358 C3349 1.429 . S
C3358 N3355 1.350 . S
C3358 C3357 1.434 . S
C3359 C3360 1.369 . S
C3359 C3361 1.419 . S
C3359 H3363 0.930 1_655 S
C3360 C3359 1.369 . S
C3360 C3369 1.429 . S
C3361 C3359 1.419 . S
C3361 C3362 1.363 . S
C3361 H3364 0.929 . S
C3362 C3361 1.363 . S
C3362 C3368 1.428 . S
H3363 C3359 0.930 1_455 S
H3364 C3361 0.929 . S
S3365 N3366 1.613 . S
S3365 N3367 1.610 . S
N3366 S3365 1.613 . S
N3366 C3369 1.350 . S
N3367 S3365 1.610 . S
N3367 C3368 1.351 . S
C3368 C3362 1.428 . S
C3368 N3367 1.351 . S
C3368 C3369 1.434 . S
C3369 C3360 1.429 . S
C3369 N3366 1.350 . S
C3369 C3368 1.434 . S
C3370 C3371 1.369 . S
C3370 C3372 1.419 . S
C3370 H3374 0.930 . S
C3371 C3370 1.369 . S
C3371 C3380 1.429 . S
C3372 C3370 1.419 . S
C3372 C3373 1.363 . S
C3372 H3375 0.929 . S
C3373 C3372 1.363 . S
C3373 C3379 1.428 . S
H3374 C3370 0.930 . S
H3375 C3372 0.929 . S
S3376 N3377 1.613 . S
S3376 N3378 1.610 . S
N3377 S3376 1.613 . S
N3377 C3380 1.350 . S
N3378 S3376 1.610 . S
N3378 C3379 1.351 . S
C3379 C3373 1.428 . S
C3379 N3378 1.351 . S
C3379 C3380 1.434 . S
C3380 C3371 1.429 . S
C3380 N3377 1.350 . S
C3380 C3379 1.434 . S
C3381 C3382 1.369 . S
C3381 C3383 1.419 . S
C3381 H3385 0.930 . S
C3382 C3381 1.369 . S
C3382 C3391 1.429 . S
C3383 C3381 1.419 . S
C3383 C3384 1.363 . S
C3383 H3386 0.929 . S
C3384 C3383 1.363 . S
C3384 C3390 1.428 . S
H3385 C3381 0.930 . S
H3386 C3383 0.929 . S
S3387 N3388 1.613 . S
S3387 N3389 1.610 . S
N3388 S3387 1.613 . S
N3388 C3391 1.350 . S
N3389 S3387 1.610 . S
N3389 C3390 1.351 . S
C3390 C3384 1.428 . S
C3390 N3389 1.351 . S
C3390 C3391 1.434 . S
C3391 C3382 1.429 . S
C3391 N3388 1.350 . S
C3391 C3390 1.434 . S
C3392 C3393 1.369 . S
C3392 C3394 1.419 . S
C3392 H3396 0.930 . S
C3393 C3392 1.369 . S
C3393 C3402 1.429 . S
C3394 C3392 1.419 . S
C3394 C3395 1.363 . S
C3394 H3397 0.929 . S
C3395 C3394 1.363 . S
C3395 C3401 1.428 . S
H3396 C3392 0.930 . S
H3397 C3394 0.929 . S
S3398 N3399 1.613 . S
S3398 N3400 1.610 . S
N3399 S3398 1.613 . S
N3399 C3402 1.350 . S
N3400 S3398 1.610 . S
N3400 C3401 1.351 . S
C3401 C3395 1.428 . S
C3401 N3400 1.351 . S
C3401 C3402 1.434 . S
C3402 C3393 1.429 . S
C3402 N3399 1.350 . S
C3402 C3401 1.434 . S
C3403 C3404 1.369 . S
C3403 C3405 1.419 . S
C3403 H3407 0.930 . S
C3404 C3403 1.369 . S
C3404 C3413 1.429 . S
C3405 C3403 1.419 . S
C3405 C3406 1.363 . S
C3405 H3408 0.929 . S
C3406 C3405 1.363 . S
C3406 C3412 1.428 . S
H3407 C3403 0.930 . S
H3408 C3405 0.929 . S
S3409 N3410 1.613 . S
S3409 N3411 1.610 . S
N3410 S3409 1.613 . S
N3410 C3413 1.350 . S
N3411 S3409 1.610 . S
N3411 C3412 1.351 . S
C3412 C3406 1.428 . S
C3412 N3411 1.351 . S
C3412 C3413 1.434 . S
C3413 C3404 1.429 . S
C3413 N3410 1.350 . S
C3413 C3412 1.434 . S
C3414 C3415 1.369 . S
C3414 C3416 1.419 . S
C3414 H3418 0.930 . S
C3415 C3414 1.369 . S
C3415 C3424 1.429 . S
C3416 C3414 1.419 . S
C3416 C3417 1.363 . S
C3416 H3419 0.929 . S
C3417 C3416 1.363 . S
C3417 C3423 1.428 . S
H3418 C3414 0.930 . S
H3419 C3416 0.929 . S
S3420 N3421 1.613 . S
S3420 N3422 1.610 . S
N3421 S3420 1.613 . S
N3421 C3424 1.350 . S
N3422 S3420 1.610 . S
N3422 C3423 1.351 . S
C3423 C3417 1.428 . S
C3423 N3422 1.351 . S
C3423 C3424 1.434 . S
C3424 C3415 1.429 . S
C3424 N3421 1.350 . S
C3424 C3423 1.434 . S
C3425 C3426 1.369 . S
C3425 C3427 1.419 . S
C3425 H3429 0.930 . S
C3426 C3425 1.369 . S
C3426 C3435 1.429 . S
C3427 C3425 1.419 . S
C3427 C3428 1.363 . S
C3427 H3430 0.929 . S
C3428 C3427 1.363 . S
C3428 C3434 1.428 . S
H3429 C3425 0.930 . S
H3430 C3427 0.929 . S
S3431 N3432 1.613 . S
S3431 N3433 1.610 . S
N3432 S3431 1.613 . S
N3432 C3435 1.350 . S
N3433 S3431 1.610 . S
N3433 C3434 1.351 . S
C3434 C3428 1.428 . S
C3434 N3433 1.351 . S
C3434 C3435 1.434 . S
C3435 C3426 1.429 . S
C3435 N3432 1.350 . S
C3435 C3434 1.434 . S
C3436 C3437 1.369 . S
C3436 C3438 1.419 . S
C3436 H3440 0.930 . S
C3437 C3436 1.369 . S
C3437 C3446 1.429 . S
C3438 C3436 1.419 . S
C3438 C3439 1.363 . S
C3438 H3441 0.929 . S
C3439 C3438 1.363 . S
C3439 C3445 1.428 . S
H3440 C3436 0.930 . S
H3441 C3438 0.929 . S
S3442 N3443 1.613 . S
S3442 N3444 1.610 . S
N3443 S3442 1.613 . S
N3443 C3446 1.350 . S
N3444 S3442 1.610 . S
N3444 C3445 1.351 . S
C3445 C3439 1.428 . S
C3445 N3444 1.351 . S
C3445 C3446 1.434 . S
C3446 C3437 1.429 . S
C3446 N3443 1.350 . S
C3446 C3445 1.434 . S
C3447 C3448 1.369 . S
C3447 C3449 1.419 . S
C3447 H3451 0.930 . S
C3448 C3447 1.369 . S
C3448 C3457 1.429 . S
C3449 C3447 1.419 . S
C3449 C3450 1.363 . S
C3449 H3452 0.929 . S
C3450 C3449 1.363 . S
C3450 C3456 1.428 . S
H3451 C3447 0.930 . S
H3452 C3449 0.929 . S
S3453 N3454 1.613 . S
S3453 N3455 1.610 . S
N3454 S3453 1.613 . S
N3454 C3457 1.350 . S
N3455 S3453 1.610 . S
N3455 C3456 1.351 . S
C3456 C3450 1.428 . S
C3456 N3455 1.351 . S
C3456 C3457 1.434 . S
C3457 C3448 1.429 . S
C3457 N3454 1.350 . S
C3457 C3456 1.434 . S
C3458 C3459 1.369 . S
C3458 C3460 1.419 . S
C3458 H3462 0.930 . S
C3459 C3458 1.369 . S
C3459 C3468 1.429 . S
C3460 C3458 1.419 . S
C3460 C3461 1.363 . S
C3460 H3463 0.929 . S
C3461 C3460 1.363 . S
C3461 C3467 1.428 . S
H3462 C3458 0.930 . S
H3463 C3460 0.929 . S
S3464 N3465 1.613 1_554 S
S3464 N3466 1.610 . S
N3465 S3464 1.613 1_556 S
N3465 C3468 1.350 . S
N3466 S3464 1.610 . S
N3466 C3467 1.351 1_554 S
C3467 C3461 1.428 . S
C3467 N3466 1.351 1_556 S
C3467 C3468 1.434 . S
C3468 C3459 1.429 . S
C3468 N3465 1.350 . S
C3468 C3467 1.434 . S
C3469 C3470 1.369 . S
C3469 C3471 1.419 . S
C3469 H3473 0.930 . S
C3470 C3469 1.369 . S
C3470 C3479 1.429 . S
C3471 C3469 1.419 . S
C3471 C3472 1.363 . S
C3471 H3474 0.929 . S
C3472 C3471 1.363 . S
C3472 C3478 1.428 1_556 S
H3473 C3469 0.930 . S
H3474 C3471 0.929 . S
S3475 N3476 1.613 . S
S3475 N3477 1.610 . S
N3476 S3475 1.613 . S
N3476 C3479 1.350 1_554 S
N3477 S3475 1.610 . S
N3477 C3478 1.351 . S
C3478 C3472 1.428 1_554 S
C3478 N3477 1.351 . S
C3478 C3479 1.434 1_554 S
C3479 C3470 1.429 . S
C3479 N3476 1.350 1_556 S
C3479 C3478 1.434 1_556 S
C1633 C15 0.783 . S
C1635 C770 0.804 . S
C1644 C566 0.797 . S
C1646 C49 0.781 . S
C1655 C90 0.807 . S
C1657 C797 0.785 . S
C1666 C124 0.800 . S
C1668 C736 0.781 . S
C1677 C158 0.809 . S
C1679 C634 0.788 . S
C1688 C661 0.808 . S
C1690 C192 0.797 . S
C1699 C702 0.809 . S
C1701 C219 0.795 . S
C1710 C593 0.808 . S
C1712 C253 0.796 . S
C1721 C294 0.779 . S
C1723 C457 0.788 . S
C1732 C328 0.791 . S
C1734 C498 0.781 . S
C1743 C362 0.783 . S
C1745 C525 0.803 . S
C1754 C423 0.805 . S
C1756 C396 0.784 . S
C1765 C831 0.801 . S
C1767 C1586 0.782 . S
C1776 C872 0.806 . S
C1778 C1382 0.801 . S
C1787 C899 0.809 . S
C1789 C1620 0.794 . S
C1798 C933 0.788 . S
C1800 C1545 0.781 . S
C1809 C1443 0.777 . S
C1811 C974 0.791 . S
C1820 C1477 0.809 . S
C1822 C1001 0.792 . S
C1831 C1518 0.780 . S
C1833 C1042 0.786 . S
C1842 C1076 0.783 . S
C1844 C1416 0.783 . S
C1853 C1273 0.791 . S
C1855 C1103 0.805 . S
C1864 C1137 0.797 . S
C1866 C1307 0.805 . S
C1875 C1348 0.799 . S
C1877 C1178 0.805 . S
C1886 C1212 0.787 . S
C1888 C1246 0.804 . S
C1897 C17 2.103 . S
C1899 C1552 2.071 . S
C1908 C51 2.104 . S
C1910 C1579 2.068 . S
C1919 C1375 2.071 . S
C1921 C85 2.104 . S
C1930 C119 2.103 . S
C1932 C1613 2.070 . S
C1941 C1484 2.069 . S
C1943 C153 2.106 . S
C1952 C187 2.104 . S
C1954 C1511 2.071 . S
C1963 C221 2.104 . S
C1965 C1409 2.072 . S
C1974 C255 2.106 . S
C1976 C1450 2.070 . S
C1985 C967 2.070 . S
C1987 C289 2.105 . S
C1996 C1008 2.071 . S
C1998 C323 2.104 . S
C2007 C357 2.106 . S
C2009 C1035 2.070 . S
C2018 C1069 2.074 . S
C2020 C391 2.104 . S
C2029 C425 2.106 . S
C2031 C838 2.066 . S
C2040 C865 2.066 . S
C2042 C459 2.106 . S
C2051 C493 2.106 . S
C2053 C906 2.070 . S
C2062 C940 2.069 . S
C2064 C527 2.106 . S
C2073 C1314 2.071 . S
C2075 C561 2.104 . S
C2084 C595 2.104 . S
C2086 C1171 2.073 . S
C2095 C629 2.103 . S
C2097 C1205 2.070 . S
C2106 C663 2.103 . S
C2108 C1110 2.071 . S
C2117 C697 2.105 . S
C2119 C1144 2.071 . S
C2128 C1239 2.073 . S
C2130 C731 2.105 . S
C2139 C765 2.106 . S
C2141 C1280 2.067 . S
C2150 C1341 2.072 . S
C2152 C799 2.104 . S
C2161 C729 2.070 . S
C2163 C833 2.104 . S
C2172 C763 2.066 . S
C2174 C867 2.106 . S
C2183 C559 2.070 . S
C2185 C901 2.104 . S
C2194 C935 2.105 . S
C2196 C804 2.067 . S
C2205 C969 2.103 . S
C2207 C668 2.074 . S
C2216 C695 2.069 . S
C2218 C1003 2.106 . S
C2227 C1037 2.106 . S
C2229 C600 2.071 . S
C2238 C627 2.071 . S
C2240 C1071 2.105 . S
C2249 C1105 2.106 . S
C2251 C151 2.067 . S
C2260 C185 2.069 . S
C2262 C1139 2.105 . S
C2271 C1173 2.106 . S
C2273 C226 2.071 . S
C2282 C1207 2.104 . S
C2284 C260 2.072 . S
C2293 C22 2.068 . S
C2295 C1241 2.106 . S
C2304 C1275 2.103 . S
C2306 C56 2.070 . S
C2315 C83 2.075 . S
C2317 C1309 2.104 . S
C2326 C1343 2.106 . S
C2328 C117 2.070 . S
C2337 C1377 2.106 . S
C2339 C491 2.067 . S
C2348 C355 2.069 . S
C2350 C1411 2.106 . S
C2359 C1445 2.106 . S
C2361 C389 2.067 . S
C2370 C287 2.068 . S
C2372 C1479 2.105 . S
C2381 C1513 2.106 . S
C2383 C321 2.071 . S
C2392 C430 2.069 . S
C2394 C1547 2.106 . S
C2403 C464 2.071 . S
C2405 C1581 2.104 . S
C2414 C532 2.074 . S
C2416 C1615 2.104 . S
C2425 C28 1.763 . S
C2427 C785 1.896 . S
C2436 C715 1.896 . S
C2438 C62 1.755 . S
C2447 C749 1.889 . S
C2449 C74 1.760 . S
C2458 C545 1.898 . S
C2460 C108 1.759 . S
C2469 C142 1.760 . S
C2471 C681 1.890 . S
C2480 C176 1.765 . S
C2482 C581 1.895 . S
C2491 C232 1.765 . S
C2493 C613 1.892 . S
C2502 C649 1.896 . S
C2504 C266 1.755 . S
C2513 C375 1.890 . S
C2515 C278 1.761 . S
C2524 C273 1.898 . S
C2526 C312 1.758 . S
C2535 C346 1.765 . S
C2537 C307 1.893 . S
C2546 C341 1.891 . S
C2548 C380 1.763 . S
C2557 C436 1.756 . S
C2559 C445 1.897 . S
C2568 C470 1.763 . S
C2570 C477 1.891 . S
C2579 C482 1.765 . S
C2581 C513 1.893 . S
C2590 C538 1.763 . S
C2592 C411 1.891 . S
C2601 C550 1.763 . S
C2603 C171 1.891 . S
C2612 C103 1.897 . S
C2614 C606 1.761 . S
C2623 C3 1.897 . S
C2625 C618 1.762 . S
C2634 C674 1.760 . S
C2636 C37 1.890 . S
C2645 C69 1.897 . S
C2647 C686 1.762 . S
C2656 C241 1.894 . S
C2658 C720 1.754 . S
C2667 C754 1.763 . S
C2669 C137 1.891 . S
C2678 C207 1.896 . S
C2680 C810 1.755 . S
C2689 C844 1.765 . S
C2691 C1599 1.893 . S
C2700 C856 1.753 . S
C2702 C1533 1.895 . S
C2711 C1565 1.897 . S
C2713 C912 1.763 . S
C2722 C1361 1.898 . S
C2724 C946 1.762 . S
C2733 C958 1.758 . S
C2735 C1497 1.890 . S
C2744 C1395 1.896 . S
C2746 C1014 1.755 . S
C2755 C1026 1.765 . S
C2757 C1431 1.895 . S
C2766 C1465 1.889 . S
C2768 C1060 1.756 . S
C2777 C1116 1.752 . S
C2779 C1191 1.893 . S
C2788 C1091 1.891 . S
C2790 C1150 1.763 . S
C2799 C1162 1.759 . S
C2801 C1125 1.897 . S
C2810 C1157 1.896 . S
C2812 C1196 1.763 . S
C2821 C1230 1.765 . S
C2823 C1261 1.894 . S
C2832 C1295 1.891 . S
C2834 C1286 1.754 . S
C2843 C1327 1.898 . S
C2845 C1320 1.759 . S
C2854 C1225 1.898 . S
C2856 C1332 1.760 . S
C2865 C989 1.897 . S
C2867 C1366 1.757 . S
C2876 C921 1.897 . S
C2878 C1400 1.757 . S
C2887 C819 1.897 . S
C2889 C1456 1.756 . S
C2898 C851 1.895 . S
C2900 C1490 1.754 . S
C2909 C887 1.895 . S
C2911 C1502 1.755 . S
C2920 C1558 1.765 . S
C2922 C1055 1.894 . S
C2931 C1570 1.761 . S
C2933 C953 1.891 . S
C2942 C1021 1.891 . S
C2944 C1604 1.755 . S
C2953 C1218 1.390 1_455 S
C2955 C1 1.315 . S
C2964 C1094 1.386 1_545 S
C2966 C35 1.320 . S
C2975 C1128 1.390 . S
C2977 C71 1.315 . S
C2986 C105 1.327 . S
C2988 C1184 1.381 . S
C2997 C139 1.323 . S
C2999 C1264 1.383 1_455 S
C3008 C173 1.321 . S
C3010 C1298 1.385 1_545 S
C3019 C205 1.313 . S
C3021 C1354 1.389 . S
C3030 C1252 1.382 . S
C3032 C239 1.325 . S
C3041 C992 1.382 1_545 S
C3043 C275 1.325 . S
C3052 C309 1.324 . S
C3054 C1048 1.383 . S
C3063 C1082 1.381 . S
C3065 C343 1.324 . S
C3074 C377 1.326 . S
C3076 C980 1.382 1_455 S
C3085 C409 1.322 . S
C3087 C924 1.384 . S
C3096 C443 1.328 . S
C3098 C822 1.381 1_455 S
C3107 C878 1.381 1_545 S
C3109 C479 1.325 . S
C3118 C890 1.389 . S
C3120 C511 1.316 . S
C3129 C547 1.324 . S
C3131 C1626 1.384 1_554 S
C3140 C1524 1.384 . S
C3142 C579 1.322 . S
C3151 C615 1.328 . S
C3153 C1422 1.381 . S
C3162 C1434 1.390 . S
C3164 C647 1.315 . S
C3173 C1468 1.382 . S
C3175 C683 1.325 . S
C3184 C717 1.323 . S
C3186 C1592 1.383 1_554 S
C3195 C1388 1.385 1_554 S
C3197 C751 1.320 . S
C3206 C783 1.316 . S
C3208 C1536 1.387 1_554 S
C3217 C402 1.388 1_655 S
C3219 C817 1.316 . S
C3228 C853 1.315 . S
C3230 C300 1.387 1_565 S
C3239 C885 1.315 . S
C3241 C334 1.389 . S
C3250 C368 1.386 . S
C3252 C919 1.321 . S
C3261 C955 1.321 . S
C3263 C448 1.384 1_655 S
C3272 C504 1.390 1_565 S
C3274 C987 1.315 . S
C3283 C516 1.387 . S
C3285 C1023 1.317 . S
C3294 C414 1.383 . S
C3296 C1057 1.324 . S
C3305 C1089 1.328 . S
C3307 C198 1.381 1_565 S
C3316 C210 1.380 . S
C3318 C1123 1.325 . S
C3327 C244 1.390 . S
C3329 C1159 1.315 . S
C3338 C164 1.390 1_655 S
C3340 C1193 1.315 . S
C3349 C130 1.381 . S
C3351 C1227 1.326 . S
C3360 C6 1.385 1_655 S
C3362 C1259 1.319 . S
C3371 C40 1.388 1_565 S
C3373 C1293 1.319 . S
C3382 C1329 1.328 . S
C3384 C96 1.381 . S
C3393 C788 1.382 1_556 S
C3395 C1363 1.323 . S
C3404 C1397 1.313 . S
C3406 C708 1.389 . S
C3415 C1429 1.323 . S
C3417 C584 1.385 . S
C3426 C1463 1.321 . S
C3428 C640 1.384 . S
C3437 C1499 1.327 . S
C3439 C652 1.382 . S
C3448 C776 1.388 1_556 S
C3450 C1531 1.318 . S
C3459 C1567 1.324 . S
C3461 C572 1.382 1_556 S
C3470 C1601 1.327 . S
C3472 C742 1.381 1_556 S
