# Generated by pormake.
# Topology vme, (6)-cn, num edge types: 1
# Building blocks:
#     Node 0, Type 0, BuildingBlock: VOLQOD_clean_sbu_1, # of connection points: 6
#     Node 1, Type 0, BuildingBlock: VOLQOD_clean_sbu_1, # of connection points: 6
#     Node 2, Type 0, BuildingBlock: VOLQOD_clean_sbu_1, # of connection points: 6
#     Node 3, Type 0, BuildingBlock: VOLQOD_clean_sbu_1, # of connection points: 6
#     Edge 4, Type (0, 0), BuildingBlock: XIVTED_clean_linker_0, # of connection points: 2
#     Edge 5, Type (0, 0), BuildingBlock: XIVTED_clean_linker_0, # of connection points: 2
#     Edge 6, Type (0, 0), BuildingBlock: XIVTED_clean_linker_0, # of connection points: 2
#     Edge 7, Type (0, 0), BuildingBlock: XIVTED_clean_linker_0, # of connection points: 2
#     Edge 8, Type (0, 0), BuildingBlock: XIVTED_clean_linker_0, # of connection points: 2
#     Edge 9, Type (0, 0), BuildingBlock: XIVTED_clean_linker_0, # of connection points: 2
#     Edge 10, Type (0, 0), BuildingBlock: XIVTED_clean_linker_0, # of connection points: 2
#     Edge 11, Type (0, 0), BuildingBlock: XIVTED_clean_linker_0, # of connection points: 2
#     Edge 12, Type (0, 0), BuildingBlock: XIVTED_clean_linker_0, # of connection points: 2
#     Edge 13, Type (0, 0), BuildingBlock: XIVTED_clean_linker_0, # of connection points: 2
#     Edge 14, Type (0, 0), BuildingBlock: XIVTED_clean_linker_0, # of connection points: 2
#     Edge 15, Type (0, 0), BuildingBlock: XIVTED_clean_linker_0, # of connection points: 2
# Relax obj value: 0.301
# Max RMSD: 0.246
# Mean RMSD: 0.246
data_MOF--net-vme--node1-VOLQOD_clean_sbu_1--edge1-XIVTED_clean_linker_0
_symmetry_space_group_name_H-M    P1
_symmetry_Int_Tables_number       1
_symmetry_cell_setting            triclinic
loop_
_symmetry_equiv_pos_as_xyz
'x, y, z'
_cell_length_a     27.351509
_cell_length_b     27.431943
_cell_length_c     29.334626
_cell_angle_alpha  90.006813
_cell_angle_beta   114.66921
_cell_angle_gamma 90.00665
loop_
_atom_site_label
_atom_site_type_symbol
_atom_site_fract_x
_atom_site_fract_y
_atom_site_fract_z
_atom_type_partial_charge
O0 O 0.08306 0.38846 0.38666 0.0
Zn1 Zn 0.10859 0.36321 0.3363 0.0
O2 O 0.18636 0.36319 0.36462 0.0
Zn3 Zn 0.21492 0.29774 0.36755 0.0
Zn4 Zn 0.21335 0.39222 0.43014 0.0
Zn5 Zn 0.20943 0.40455 0.32477 0.0
O6 O 0.25254 0.29292 0.3199 0.0
O7 O 0.22928 0.36373 0.27921 0.0
O8 O 0.0785 0.29539 0.31663 0.0
O9 O 0.15284 0.25047 0.34191 0.0
O10 O 0.25956 0.27697 0.44079 0.0
O11 O 0.24474 0.34051 0.4805 0.0
O12 O 0.2748 0.43703 0.44254 0.0
O13 O 0.07783 0.41253 0.28042 0.0
O14 O 0.27708 0.43989 0.36805 0.0
O15 O 0.151 0.45237 0.28631 0.0
C16 C 0.10509 0.41547 0.42517 0.0
C17 C 0.25003 0.32139 0.28435 0.0
C18 C 0.26376 0.29814 0.48113 0.0
C19 C 0.10171 0.25403 0.32296 0.0
C20 C 0.29737 0.45035 0.41452 0.0
C21 C 0.09997 0.44892 0.2695 0.0
O22 O 0.15535 0.42431 0.44399 0.0
O23 O 0.89895 0.88712 0.11332 0.0
Zn24 Zn 0.87341 0.86216 0.16382 0.0
O25 O 0.7956 0.86282 0.13574 0.0
Zn26 Zn 0.76623 0.79776 0.13319 0.0
Zn27 Zn 0.76867 0.89157 0.07012 0.0
Zn28 Zn 0.77317 0.90492 0.17547 0.0
O29 O 0.72921 0.79378 0.18152 0.0
O30 O 0.75327 0.86491 0.22149 0.0
O31 O 0.90274 0.79401 0.18317 0.0
O32 O 0.82777 0.75002 0.15856 0.0
O33 O 0.72119 0.77681 0.05996 0.0
O34 O 0.73697 0.8397 0.02006 0.0
O35 O 0.70745 0.9367 0.05759 0.0
O36 O 0.90492 0.91134 0.21983 0.0
O37 O 0.70572 0.94057 0.13224 0.0
O38 O 0.83224 0.95233 0.21347 0.0
C39 C 0.87697 0.91412 0.07479 0.0
C40 C 0.73226 0.82272 0.21692 0.0
C41 C 0.71742 0.79759 0.01956 0.0
C42 C 0.87893 0.75295 0.17706 0.0
C43 C 0.68522 0.95062 0.08568 0.0
C44 C 0.88323 0.94825 0.23045 0.0
O45 O 0.82677 0.92317 0.05607 0.0
O46 O 0.89884 0.60245 0.61282 0.0
Zn47 Zn 0.87337 0.62665 0.66364 0.0
O48 O 0.79555 0.6258 0.63566 0.0
Zn49 Zn 0.76597 0.69083 0.63254 0.0
Zn50 Zn 0.76867 0.59642 0.57031 0.0
Zn51 Zn 0.77321 0.58422 0.67587 0.0
O52 O 0.72848 0.69516 0.68041 0.0
O53 O 0.75335 0.62474 0.72162 0.0
O54 O 0.90254 0.69486 0.68351 0.0
O55 O 0.82739 0.73868 0.65811 0.0
O56 O 0.72116 0.71131 0.55915 0.0
O57 O 0.73618 0.64768 0.51967 0.0
O58 O 0.70809 0.5507 0.55844 0.0
O59 O 0.90494 0.57689 0.71913 0.0
O60 O 0.70584 0.54829 0.63294 0.0
O61 O 0.83218 0.53687 0.7141 0.0
C62 C 0.87701 0.57512 0.57453 0.0
C63 C 0.73187 0.66678 0.71632 0.0
C64 C 0.71688 0.68995 0.51887 0.0
C65 C 0.87857 0.73587 0.67711 0.0
C66 C 0.68571 0.53735 0.58659 0.0
C67 C 0.88316 0.54042 0.73037 0.0
O68 O 0.82698 0.56534 0.55625 0.0
O69 O 0.08336 0.10195 0.88778 0.0
Zn70 Zn 0.10883 0.12652 0.83707 0.0
O71 O 0.18664 0.12572 0.86506 0.0
Zn72 Zn 0.21615 0.19076 0.86817 0.0
Zn73 Zn 0.21354 0.09645 0.93042 0.0
Zn74 Zn 0.20908 0.08417 0.82492 0.0
O75 O 0.25366 0.19514 0.82041 0.0
O76 O 0.22894 0.12471 0.77919 0.0
O77 O 0.0796 0.19475 0.8174 0.0
O78 O 0.15474 0.23859 0.84264 0.0
O79 O 0.26103 0.21127 0.94146 0.0
O80 O 0.24558 0.1479 0.98095 0.0
O81 O 0.27448 0.05111 0.94247 0.0
O82 O 0.07734 0.07693 0.7814 0.0
O83 O 0.27652 0.04835 0.86788 0.0
O84 O 0.15012 0.0368 0.78665 0.0
C85 C 0.10522 0.07455 0.926 0.0
C86 C 0.25038 0.16677 0.78453 0.0
C87 C 0.26503 0.1901 0.98173 0.0
C88 C 0.10357 0.23577 0.82374 0.0
C89 C 0.29682 0.03769 0.9143 0.0
C90 C 0.09914 0.04042 0.77024 0.0
O91 O 0.1553 0.06496 0.94434 0.0
H92 H -0.00664 0.95472 0.27053 0.0
H93 H -0.00755 0.2452 0.29175 0.0
H94 H 0.85125 0.03908 0.24616 0.0
H95 H 0.1365 0.15962 0.32845 0.0
H96 H 0.94035 0.1699 0.2769 0.0
H97 H 0.04721 0.02888 0.2966 0.0
C98 C 0.97353 0.98864 0.27144 0.0
C99 C 0.91751 0.9906 0.25565 0.0
C100 C 0.98338 0.16762 0.28828 0.0
C101 C 0.97898 0.07595 0.28465 0.0
C102 C 0.01314 0.21064 0.29645 0.0
C103 C 0.06899 0.20886 0.31118 0.0
C104 C 0.00954 0.1224 0.29467 0.0
C105 C 0.09355 0.1629 0.31701 0.0
C106 C 0.00433 0.03109 0.28609 0.0
C107 C 0.89422 0.03572 0.25778 0.0
N108 N 0.06368 0.12157 0.30864 0.0
N109 N 0.92496 0.07666 0.27138 0.0
H110 H 0.13291 0.53855 0.25152 0.0
H111 H 0.84257 0.65921 0.17219 0.0
H112 H 0.99012 0.45716 0.23138 0.0
H113 H 0.98784 0.74237 0.20666 0.0
H114 H 0.89474 0.58424 0.18657 0.0
H115 H 0.07853 0.61245 0.22533 0.0
C116 C 0.08999 0.53595 0.24075 0.0
C117 C 0.06622 0.4915 0.24419 0.0
C118 C 0.91524 0.61887 0.191 0.0
C119 C 0.00387 0.5763 0.21488 0.0
C120 C 0.8855 0.6618 0.18298 0.0
C121 C 0.91084 0.70733 0.18845 0.0
C122 C 0.97083 0.62128 0.20449 0.0
C123 C 0.96659 0.70819 0.2023 0.0
C124 C 0.05903 0.57832 0.22616 0.0
C125 C 0.01036 0.49057 0.22968 0.0
N126 N -0.00531 0.66581 0.20983 0.0
N127 N 0.98122 0.53239 0.21613 0.0
H128 H 0.13151 0.95122 0.75062 0.0
H129 H 0.84198 0.8294 0.67319 0.0
H130 H 0.9894 0.03181 0.73406 0.0
H131 H 0.9874 0.7469 0.70646 0.0
H132 H 0.89389 0.90459 0.68798 0.0
H133 H 0.07721 0.87727 0.72448 0.0
C134 C 0.08874 0.95364 0.74066 0.0
C135 C 0.06517 -0.00212 0.74506 0.0
C136 C 0.91448 0.87006 0.69207 0.0
C137 C 0.00291 0.91299 0.71578 0.0
C138 C 0.88488 0.827 0.68381 0.0
C139 C 0.91035 0.78159 0.68881 0.0
C140 C 0.97002 0.8679 0.70529 0.0
C141 C 0.96606 0.78098 0.70247 0.0
C142 C 0.05783 0.91124 0.72611 0.0
C143 C 0.00948 -0.00142 0.73156 0.0
N144 N -0.006 0.82347 0.71019 0.0
N145 N 0.98039 0.95671 0.71799 0.0
H146 H 0.85074 0.45126 0.75007 0.0
H147 H 0.14018 0.32929 0.82755 0.0
H148 H -0.00712 0.53171 0.76637 0.0
H149 H -0.00526 0.24684 0.79449 0.0
H150 H 0.0883 0.40449 0.81264 0.0
H151 H 0.90498 0.3773 0.77626 0.0
C152 C 0.8935 0.45365 0.75997 0.0
C153 C 0.9171 0.49786 0.7555 0.0
C154 C 0.0677 0.36997 0.80862 0.0
C155 C 0.9793 0.41294 0.78484 0.0
C156 C 0.09728 0.3269 0.81696 0.0
C157 C 0.0718 0.2815 0.81205 0.0
C158 C 0.01216 0.36783 0.79542 0.0
C159 C 0.01609 0.28091 0.79842 0.0
C160 C 0.92438 0.41124 0.77456 0.0
C161 C 0.97278 0.49851 0.76893 0.0
N162 N 0.98817 0.32342 0.79061 0.0
N163 N 0.00184 0.45663 0.78254 0.0
H164 H 0.98553 0.58573 0.60448 0.0
H165 H -0.00362 0.40611 0.39444 0.0
H166 H 0.8459 0.51416 0.49334 0.0
H167 H 0.13635 0.47664 0.50625 0.0
H168 H 0.9406 0.44563 0.43014 0.0
H169 H 0.04131 0.54682 0.56838 0.0
C170 C 0.96652 0.56195 0.57239 0.0
C171 C 0.91091 0.55314 0.55195 0.0
C172 C 0.98352 0.45242 0.4469 0.0
C173 C 0.97466 0.50836 0.51059 0.0
C174 C 0.01546 0.42981 0.42659 0.0
C175 C 0.07118 0.43808 0.44739 0.0
C176 C 0.00742 0.48357 0.4883 0.0
C177 C 0.09358 0.46919 0.489 0.0
C178 C -0.00154 0.53968 0.55186 0.0
C179 C 0.88858 0.52198 0.51037 0.0
N180 N 0.06158 0.49086 0.50806 0.0
N181 N 0.92058 0.50065 0.49111 0.0
H182 H 0.98565 0.90445 0.10533 0.0
H183 H -0.00336 0.08476 0.89586 0.0
H184 H 0.84579 0.97522 0.99369 0.0
H185 H 0.13632 0.01323 0.00691 0.0
H186 H 0.94082 0.04541 0.93165 0.0
H187 H 0.04147 0.94394 0.06963 0.0
C188 C 0.9666 0.92818 0.07321 0.0
C189 C 0.91091 0.93656 0.05249 0.0
C190 C 0.98369 0.03837 0.94823 0.0
C191 C 0.97471 0.98202 0.01158 0.0
C192 C 0.01565 0.0609 0.92787 0.0
C193 C 0.07129 0.05225 0.94839 0.0
C194 C 0.00749 0.00695 0.9894 0.0
C195 C 0.09362 0.02095 0.98984 0.0
C196 C -0.00144 0.95078 0.0529 0.0
C197 C 0.88853 0.9677 0.01091 0.0
N198 N 0.0616 -0.00062 0.00894 0.0
N199 N 0.92056 0.98936 0.99186 0.0
H200 H 0.26399 0.2883 0.00026 0.0
H201 H 0.29119 0.23187 0.27576 0.0
H202 H 0.31325 0.14937 0.07418 0.0
H203 H 0.25315 0.37402 0.20647 0.0
H204 H 0.31357 0.20443 0.20743 0.0
H205 H 0.27594 0.32455 0.08066 0.0
C206 C 0.27894 0.26582 0.03366 0.0
C207 C 0.28674 0.21567 0.03048 0.0
C208 C 0.30093 0.24182 0.20752 0.0
C209 C 0.29921 0.25632 0.12205 0.0
C210 C 0.28804 0.25744 0.24654 0.0
C211 C 0.26932 0.30504 0.24652 0.0
C212 C 0.2947 0.27391 0.16802 0.0
C213 C 0.26656 0.33671 0.20777 0.0
C214 C 0.28526 0.28634 0.07949 0.0
C215 C 0.30583 0.18809 0.07488 0.0
N216 N 0.27841 0.32042 0.16986 0.0
N217 N 0.31049 0.20855 0.11859 0.0
H218 H 0.72682 0.87773 0.29239 0.0
H219 H 0.66516 0.64911 0.42685 0.0
H220 H 0.6942 0.73279 0.22922 0.0
H221 H 0.72133 0.78755 0.4996 0.0
H222 H 0.65361 0.68518 0.34704 0.0
H223 H 0.7051 0.85046 0.36073 0.0
C224 C 0.71465 0.84017 0.29255 0.0
C225 C 0.71329 0.80724 0.25525 0.0
C226 C 0.66747 0.70801 0.38018 0.0
C227 C 0.68812 0.77592 0.33381 0.0
C228 C 0.67376 0.68755 0.42573 0.0
C229 C 0.69498 0.71528 0.47001 0.0
C230 C 0.68298 0.75651 0.37885 0.0
C231 C 0.70497 0.76491 0.46637 0.0
C232 C 0.70213 0.82473 0.33168 0.0
C233 C 0.69641 0.75933 0.25732 0.0
N234 N 0.69987 0.78377 0.42166 0.0
N235 N 0.68505 0.74498 0.29627 0.0
H236 H 0.71985 0.69943 0.00148 0.0
H237 H 0.68961 0.75578 0.72488 0.0
H238 H 0.66802 0.83776 0.92698 0.0
H239 H 0.73042 0.6141 0.79488 0.0
H240 H 0.66763 0.78288 0.79357 0.0
H241 H 0.70807 0.66313 0.92112 0.0
C242 C 0.70435 0.72174 0.96796 0.0
C243 C 0.69573 0.77176 0.97095 0.0
C244 C 0.6808 0.74566 0.79357 0.0
C245 C 0.68348 0.7311 0.87941 0.0
C246 C 0.69345 0.73023 0.75433 0.0
C247 C 0.71281 0.68288 0.75441 0.0
C248 C 0.68789 0.71363 0.83334 0.0
C249 C 0.71647 0.65123 0.79349 0.0
C250 C 0.69814 0.70121 0.92215 0.0
C251 C 0.67601 0.79914 0.92641 0.0
N252 N 0.70483 0.66734 0.83159 0.0
N253 N 0.67146 0.7787 0.88272 0.0
H254 H 0.29231 0.25594 0.77607 0.0
H255 H 0.26213 0.19994 0.49945 0.0
H256 H 0.25218 0.1142 0.70606 0.0
H257 H 0.3124 0.33865 0.57366 0.0
H258 H 0.27441 0.16358 0.5799 0.0
H259 H 0.3141 0.28332 0.70737 0.0
C260 C 0.28859 0.23043 0.74661 0.0
C261 C 0.26945 0.18298 0.7465 0.0
C262 C 0.28386 0.20177 0.57877 0.0
C263 C 0.29413 0.21405 0.66758 0.0
C264 C 0.27734 0.22235 0.53291 0.0
C265 C 0.28537 0.27248 0.52982 0.0
C266 C 0.29825 0.23169 0.62146 0.0
C267 C 0.3048 0.29996 0.5743 0.0
C268 C 0.30112 0.24603 0.70738 0.0
C269 C 0.26594 0.15139 0.70744 0.0
N270 N 0.30968 0.27944 0.61804 0.0
N271 N 0.27746 0.16766 0.66933 0.0
H272 H 0.36497 0.472 0.36989 0.0
H273 H 0.61834 0.51542 0.63142 0.0
H274 H 0.35592 0.47263 0.51347 0.0
H275 H 0.62745 0.51412 0.48786 0.0
H276 H 0.52249 0.49724 0.58903 0.0
H277 H 0.46093 0.48967 0.41237 0.0
C278 C 0.3829 0.47665 0.41024 0.0
C279 C 0.35235 0.47047 0.43817 0.0
C280 C 0.54558 0.50058 0.56686 0.0
C281 C 0.46238 0.48967 0.48708 0.0
C282 C 0.60046 0.51049 0.5911 0.0
C283 C 0.63096 0.5167 0.56313 0.0
C284 C 0.52106 0.49691 0.51433 0.0
C285 C 0.60551 0.50993 0.51096 0.0
C286 C 0.43784 0.48626 0.43453 0.0
C287 C 0.37788 0.47684 0.4904 0.0
N288 N 0.55192 0.50082 0.4882 0.0
N289 N 0.43151 0.48571 0.5132 0.0
H290 H 0.36395 0.01544 0.8693 0.0
H291 H 0.61809 0.97326 0.13056 0.0
H292 H 0.35554 0.01522 0.01316 0.0
H293 H 0.62639 0.97237 0.98665 0.0
H294 H 0.52217 0.99114 0.08829 0.0
H295 H 0.45986 -0.00257 0.91151 0.0
C296 C 0.38201 0.0108 0.90966 0.0
C297 C 0.35167 0.01723 0.93775 0.0
C298 C 0.54509 0.98736 0.06601 0.0
C299 C 0.46163 -0.00236 0.98634 0.0
C300 C 0.60001 0.97763 0.09017 0.0
C301 C 0.63033 0.97094 0.0621 0.0
C302 C 0.52033 0.99039 0.01344 0.0
C303 C 0.60461 0.97697 0.00984 0.0
C304 C 0.43691 0.00098 0.93378 0.0
C305 C 0.37734 0.01084 0.98996 0.0
N306 N 0.551 0.98596 0.98717 0.0
N307 N 0.43094 0.0018 0.0126 0.0
loop_
_geom_bond_atom_site_label_1
_geom_bond_atom_site_label_2
_geom_bond_distance
_geom_bond_site_symmetry_2
_ccdc_geom_bond_type
O0 Zn1 1.953 . S
O0 C16 1.225 . S
Zn1 O0 1.953 . S
Zn1 O2 1.949 . S
Zn1 O8 1.919 . S
Zn1 O13 1.924 . S
O2 Zn1 1.949 . S
O2 Zn3 1.923 . S
O2 Zn4 1.950 . S
O2 Zn5 1.945 . S
Zn3 O2 1.923 . S
Zn3 O6 1.933 . S
Zn3 O9 1.941 . S
Zn3 O10 1.965 . S
Zn4 O2 1.950 . S
Zn4 O11 1.938 . S
Zn4 O12 1.906 . S
Zn4 O22 1.953 . S
Zn5 O2 1.945 . S
Zn5 O7 1.932 . S
Zn5 O14 1.977 . S
Zn5 O15 1.910 . S
O6 Zn3 1.933 . S
O6 C17 1.226 . S
O7 Zn5 1.932 . S
O7 C17 1.307 . S
O8 Zn1 1.919 . S
O8 C19 1.253 . S
O9 Zn3 1.941 . S
O9 C19 1.283 . S
O10 Zn3 1.965 . S
O10 C18 1.303 . S
O11 Zn4 1.938 . S
O11 C18 1.247 . S
O12 Zn4 1.906 . S
O12 C20 1.304 . S
O13 Zn1 1.924 . S
O13 C21 1.311 . S
O14 Zn5 1.977 . S
O14 C20 1.272 . S
O15 Zn5 1.910 . S
O15 C21 1.231 . S
C16 O0 1.225 . S
C16 O22 1.298 . S
C17 O6 1.226 . S
C17 O7 1.307 . S
C18 O10 1.303 . S
C18 O11 1.247 . S
C19 O8 1.253 . S
C19 O9 1.283 . S
C20 O12 1.304 . S
C20 O14 1.272 . S
C21 O13 1.311 . S
C21 O15 1.231 . S
O22 Zn4 1.953 . S
O22 C16 1.298 . S
O23 Zn24 1.953 . S
O23 C39 1.225 . S
Zn24 O23 1.953 . S
Zn24 O25 1.949 . S
Zn24 O31 1.919 . S
Zn24 O36 1.924 . S
O25 Zn24 1.949 . S
O25 Zn26 1.923 . S
O25 Zn27 1.950 . S
O25 Zn28 1.945 . S
Zn26 O25 1.923 . S
Zn26 O29 1.933 . S
Zn26 O32 1.941 . S
Zn26 O33 1.965 . S
Zn27 O25 1.950 . S
Zn27 O34 1.938 1_554 S
Zn27 O35 1.906 . S
Zn27 O45 1.953 . S
Zn28 O25 1.945 . S
Zn28 O30 1.932 . S
Zn28 O37 1.977 . S
Zn28 O38 1.910 . S
O29 Zn26 1.933 . S
O29 C40 1.226 . S
O30 Zn28 1.932 . S
O30 C40 1.307 . S
O31 Zn24 1.919 . S
O31 C42 1.253 . S
O32 Zn26 1.941 . S
O32 C42 1.283 . S
O33 Zn26 1.965 . S
O33 C41 1.303 . S
O34 Zn27 1.938 1_556 S
O34 C41 1.247 1_556 S
O35 Zn27 1.906 . S
O35 C43 1.304 . S
O36 Zn24 1.924 . S
O36 C44 1.311 . S
O37 Zn28 1.977 . S
O37 C43 1.272 . S
O38 Zn28 1.910 . S
O38 C44 1.231 . S
C39 O23 1.225 . S
C39 O45 1.298 . S
C40 O29 1.226 . S
C40 O30 1.307 . S
C41 O33 1.303 . S
C41 O34 1.247 1_554 S
C42 O31 1.253 . S
C42 O32 1.283 . S
C43 O35 1.304 . S
C43 O37 1.272 . S
C44 O36 1.311 . S
C44 O38 1.231 . S
O45 Zn27 1.953 . S
O45 C39 1.298 . S
O46 Zn47 1.953 . S
O46 C62 1.225 . S
Zn47 O46 1.953 . S
Zn47 O48 1.949 . S
Zn47 O54 1.919 . S
Zn47 O59 1.924 . S
O48 Zn47 1.949 . S
O48 Zn49 1.923 . S
O48 Zn50 1.950 . S
O48 Zn51 1.945 . S
Zn49 O48 1.923 . S
Zn49 O52 1.933 . S
Zn49 O55 1.941 . S
Zn49 O56 1.965 . S
Zn50 O48 1.950 . S
Zn50 O57 1.938 . S
Zn50 O58 1.906 . S
Zn50 O68 1.953 . S
Zn51 O48 1.945 . S
Zn51 O53 1.932 . S
Zn51 O60 1.977 . S
Zn51 O61 1.910 . S
O52 Zn49 1.933 . S
O52 C63 1.226 . S
O53 Zn51 1.932 . S
O53 C63 1.307 . S
O54 Zn47 1.919 . S
O54 C65 1.253 . S
O55 Zn49 1.941 . S
O55 C65 1.283 . S
O56 Zn49 1.965 . S
O56 C64 1.303 . S
O57 Zn50 1.938 . S
O57 C64 1.247 . S
O58 Zn50 1.906 . S
O58 C66 1.304 . S
O59 Zn47 1.924 . S
O59 C67 1.311 . S
O60 Zn51 1.977 . S
O60 C66 1.272 . S
O61 Zn51 1.910 . S
O61 C67 1.231 . S
C62 O46 1.225 . S
C62 O68 1.298 . S
C63 O52 1.226 . S
C63 O53 1.307 . S
C64 O56 1.303 . S
C64 O57 1.247 . S
C65 O54 1.253 . S
C65 O55 1.283 . S
C66 O58 1.304 . S
C66 O60 1.272 . S
C67 O59 1.311 . S
C67 O61 1.231 . S
O68 Zn50 1.953 . S
O68 C62 1.298 . S
O69 Zn70 1.953 . S
O69 C85 1.225 . S
Zn70 O69 1.953 . S
Zn70 O71 1.949 . S
Zn70 O77 1.919 . S
Zn70 O82 1.924 . S
O71 Zn70 1.949 . S
O71 Zn72 1.923 . S
O71 Zn73 1.950 . S
O71 Zn74 1.945 . S
Zn72 O71 1.923 . S
Zn72 O75 1.933 . S
Zn72 O78 1.941 . S
Zn72 O79 1.965 . S
Zn73 O71 1.950 . S
Zn73 O80 1.938 1_556 S
Zn73 O81 1.906 . S
Zn73 O91 1.953 . S
Zn74 O71 1.945 . S
Zn74 O76 1.932 . S
Zn74 O83 1.977 . S
Zn74 O84 1.910 . S
O75 Zn72 1.933 . S
O75 C86 1.226 . S
O76 Zn74 1.932 . S
O76 C86 1.307 . S
O77 Zn70 1.919 . S
O77 C88 1.253 . S
O78 Zn72 1.941 . S
O78 C88 1.283 . S
O79 Zn72 1.965 . S
O79 C87 1.303 . S
O80 Zn73 1.938 1_554 S
O80 C87 1.247 1_554 S
O81 Zn73 1.906 . S
O81 C89 1.304 . S
O82 Zn70 1.924 . S
O82 C90 1.311 . S
O83 Zn74 1.977 . S
O83 C89 1.272 . S
O84 Zn74 1.910 . S
O84 C90 1.231 . S
C85 O69 1.225 . S
C85 O91 1.298 . S
C86 O75 1.226 . S
C86 O76 1.307 . S
C87 O79 1.303 . S
C87 O80 1.247 1_556 S
C88 O77 1.253 . S
C88 O78 1.283 . S
C89 O81 1.304 . S
C89 O83 1.272 . S
C90 O82 1.311 . S
C90 O84 1.231 . S
O91 Zn73 1.953 . S
O91 C85 1.298 . S
H92 C98 0.930 . S
H93 C102 0.930 . S
H94 C107 0.929 . S
H95 C105 0.929 . S
H96 C100 0.929 . S
H97 C106 0.929 1_455 S
C98 H92 0.930 . S
C98 C99 1.367 . S
C98 C106 1.378 . S
C99 C98 1.367 . S
C99 C107 1.433 . S
C100 H96 0.929 . S
C100 C102 1.378 . S
C100 C104 1.350 . S
C101 C104 1.463 . S
C101 C106 1.350 . S
C101 N109 1.427 . S
C102 H93 0.930 . S
C102 C100 1.378 . S
C102 C103 1.367 1_655 S
C103 C102 1.367 1_455 S
C103 C105 1.433 . S
C104 C100 1.350 . S
C104 C101 1.463 . S
C104 N108 1.427 1_655 S
C105 H95 0.929 . S
C105 C103 1.433 . S
C105 N108 1.384 . S
C106 H97 0.929 1_655 S
C106 C98 1.378 . S
C106 C101 1.350 . S
C107 H94 0.929 . S
C107 C99 1.433 . S
C107 N109 1.384 . S
N108 C104 1.427 1_455 S
N108 C105 1.384 . S
N109 C101 1.427 . S
N109 C107 1.384 . S
H110 C116 0.930 . S
H111 C120 0.930 . S
H112 C125 0.929 . S
H113 C123 0.929 . S
H114 C118 0.929 . S
H115 C124 0.929 . S
C116 H110 0.930 . S
C116 C117 1.367 . S
C116 C124 1.378 . S
C117 C116 1.367 . S
C117 C125 1.433 . S
C118 H114 0.929 . S
C118 C120 1.378 . S
C118 C122 1.350 1_655 S
C119 C122 1.463 . S
C119 C124 1.350 . S
C119 N127 1.427 . S
C120 H111 0.930 . S
C120 C118 1.378 . S
C120 C121 1.367 . S
C121 C120 1.367 . S
C121 C123 1.433 1_655 S
C122 C118 1.350 1_455 S
C122 C119 1.463 . S
C122 N126 1.427 . S
C123 H113 0.929 . S
C123 C121 1.433 1_455 S
C123 N126 1.384 . S
C124 H115 0.929 . S
C124 C116 1.378 . S
C124 C119 1.350 . S
C125 H112 0.929 . S
C125 C117 1.433 . S
C125 N127 1.384 . S
N126 C122 1.427 . S
N126 C123 1.384 . S
N127 C119 1.427 . S
N127 C125 1.384 . S
H128 C134 0.930 . S
H129 C138 0.930 . S
H130 C143 0.929 . S
H131 C141 0.929 . S
H132 C136 0.929 . S
H133 C142 0.929 . S
C134 H128 0.930 . S
C134 C135 1.367 . S
C134 C142 1.378 . S
C135 C134 1.367 . S
C135 C143 1.433 . S
C136 H132 0.929 . S
C136 C138 1.378 . S
C136 C140 1.350 1_655 S
C137 C140 1.463 . S
C137 C142 1.350 . S
C137 N145 1.427 . S
C138 H129 0.930 . S
C138 C136 1.378 . S
C138 C139 1.367 . S
C139 C138 1.367 . S
C139 C141 1.433 . S
C140 C136 1.350 1_455 S
C140 C137 1.463 . S
C140 N144 1.427 . S
C141 H131 0.929 . S
C141 C139 1.433 . S
C141 N144 1.384 1_655 S
C142 H133 0.929 . S
C142 C134 1.378 . S
C142 C137 1.350 . S
C143 H130 0.929 . S
C143 C135 1.433 . S
C143 N145 1.384 . S
N144 C140 1.427 . S
N144 C141 1.384 1_455 S
N145 C137 1.427 . S
N145 C143 1.384 . S
H146 C152 0.930 . S
H147 C156 0.930 . S
H148 C161 0.929 . S
H149 C159 0.929 . S
H150 C154 0.929 . S
H151 C160 0.929 . S
C152 H146 0.930 . S
C152 C153 1.367 . S
C152 C160 1.378 . S
C153 C152 1.367 . S
C153 C161 1.433 . S
C154 H150 0.929 . S
C154 C156 1.378 . S
C154 C158 1.350 1_455 S
C155 C158 1.463 . S
C155 C160 1.350 . S
C155 N163 1.427 . S
C156 H147 0.930 . S
C156 C154 1.378 . S
C156 C157 1.367 . S
C157 C156 1.367 . S
C157 C159 1.433 . S
C158 C154 1.350 1_655 S
C158 C155 1.463 . S
C158 N162 1.427 . S
C159 H149 0.929 . S
C159 C157 1.433 . S
C159 N162 1.384 1_455 S
C160 H151 0.929 . S
C160 C152 1.378 . S
C160 C155 1.350 . S
C161 H148 0.929 . S
C161 C153 1.433 . S
C161 N163 1.384 . S
N162 C158 1.427 . S
N162 C159 1.384 1_655 S
N163 C155 1.427 . S
N163 C161 1.384 . S
H164 C170 0.930 . S
H165 C174 0.930 . S
H166 C179 0.929 . S
H167 C177 0.929 . S
H168 C172 0.929 . S
H169 C178 0.929 . S
C170 H164 0.930 . S
C170 C171 1.367 . S
C170 C178 1.378 . S
C171 C170 1.367 . S
C171 C179 1.433 . S
C172 H168 0.929 . S
C172 C174 1.378 . S
C172 C176 1.350 . S
C173 C176 1.463 1_655 S
C173 C178 1.350 . S
C173 N181 1.427 . S
C174 H165 0.930 . S
C174 C172 1.378 . S
C174 C175 1.367 . S
C175 C174 1.367 . S
C175 C177 1.433 . S
C176 C172 1.350 . S
C176 C173 1.463 1_455 S
C176 N180 1.427 . S
C177 H167 0.929 . S
C177 C175 1.433 . S
C177 N180 1.384 . S
C178 H169 0.929 . S
C178 C170 1.378 . S
C178 C173 1.350 . S
C179 H166 0.929 . S
C179 C171 1.433 . S
C179 N181 1.384 . S
N180 C176 1.427 . S
N180 C177 1.384 . S
N181 C173 1.427 . S
N181 C179 1.384 . S
H182 C188 0.930 . S
H183 C192 0.930 . S
H184 C197 0.932 . S
H185 C195 0.932 . S
H186 C190 0.929 . S
H187 C196 0.929 . S
C188 H182 0.930 . S
C188 C189 1.367 1_556 S
C188 C196 1.378 . S
C189 C188 1.367 1_554 S
C189 C197 1.433 . S
C190 H186 0.929 . S
C190 C192 1.378 . S
C190 C194 1.350 1_554 S
C191 C194 1.463 1_664 S
C191 C196 1.350 1_554 S
C191 N199 1.427 1_565 S
C192 H183 0.930 . S
C192 C190 1.378 . S
C192 C193 1.367 1_554 S
C193 C192 1.367 1_556 S
C193 C195 1.433 . S
C194 C190 1.350 1_556 S
C194 C191 1.463 1_446 S
C194 N198 1.427 1_545 S
C195 H185 0.932 . S
C195 C193 1.433 . S
C195 N198 1.384 1_545 S
C196 H187 0.929 . S
C196 C188 1.378 . S
C196 C191 1.350 1_556 S
C197 H184 0.932 . S
C197 C189 1.433 . S
C197 N199 1.384 1_565 S
N198 C194 1.427 1_565 S
N198 C195 1.384 1_565 S
N199 C191 1.427 1_545 S
N199 C197 1.384 1_545 S
H200 C206 0.930 . S
H201 C210 0.930 . S
H202 C215 0.929 . S
H203 C213 0.929 . S
H204 C208 0.929 . S
H205 C214 0.929 . S
C206 H200 0.930 . S
C206 C207 1.367 . S
C206 C214 1.378 . S
C207 C206 1.367 . S
C207 C215 1.433 . S
C208 H204 0.929 . S
C208 C210 1.378 . S
C208 C212 1.350 . S
C209 C212 1.463 . S
C209 C214 1.350 . S
C209 N217 1.427 . S
C210 H201 0.930 . S
C210 C208 1.378 . S
C210 C211 1.367 . S
C211 C210 1.367 . S
C211 C213 1.433 . S
C212 C208 1.350 . S
C212 C209 1.463 . S
C212 N216 1.427 . S
C213 H203 0.929 . S
C213 C211 1.433 . S
C213 N216 1.384 . S
C214 H205 0.929 . S
C214 C206 1.378 . S
C214 C209 1.350 . S
C215 H202 0.929 . S
C215 C207 1.433 . S
C215 N217 1.384 . S
N216 C212 1.427 . S
N216 C213 1.384 . S
N217 C209 1.427 . S
N217 C215 1.384 . S
H218 C224 0.930 . S
H219 C228 0.930 . S
H220 C233 0.929 . S
H221 C231 0.929 . S
H222 C226 0.929 . S
H223 C232 0.929 . S
C224 H218 0.930 . S
C224 C225 1.367 . S
C224 C232 1.378 . S
C225 C224 1.367 . S
C225 C233 1.433 . S
C226 H222 0.929 . S
C226 C228 1.378 . S
C226 C230 1.350 . S
C227 C230 1.463 . S
C227 C232 1.350 . S
C227 N235 1.427 . S
C228 H219 0.930 . S
C228 C226 1.378 . S
C228 C229 1.367 . S
C229 C228 1.367 . S
C229 C231 1.433 . S
C230 C226 1.350 . S
C230 C227 1.463 . S
C230 N234 1.427 . S
C231 H221 0.929 . S
C231 C229 1.433 . S
C231 N234 1.384 . S
C232 H223 0.929 . S
C232 C224 1.378 . S
C232 C227 1.350 . S
C233 H220 0.929 . S
C233 C225 1.433 . S
C233 N235 1.384 . S
N234 C230 1.427 . S
N234 C231 1.384 . S
N235 C227 1.427 . S
N235 C233 1.384 . S
H236 C242 0.930 . S
H237 C246 0.930 . S
H238 C251 0.929 . S
H239 C249 0.929 . S
H240 C244 0.929 . S
H241 C250 0.929 . S
C242 H236 0.930 . S
C242 C243 1.367 . S
C242 C250 1.378 . S
C243 C242 1.367 . S
C243 C251 1.433 . S
C244 H240 0.929 . S
C244 C246 1.378 . S
C244 C248 1.350 . S
C245 C248 1.463 . S
C245 C250 1.350 . S
C245 N253 1.427 . S
C246 H237 0.930 . S
C246 C244 1.378 . S
C246 C247 1.367 . S
C247 C246 1.367 . S
C247 C249 1.433 . S
C248 C244 1.350 . S
C248 C245 1.463 . S
C248 N252 1.427 . S
C249 H239 0.929 . S
C249 C247 1.433 . S
C249 N252 1.384 . S
C250 H241 0.929 . S
C250 C242 1.378 . S
C250 C245 1.350 . S
C251 H238 0.929 . S
C251 C243 1.433 . S
C251 N253 1.384 . S
N252 C248 1.427 . S
N252 C249 1.384 . S
N253 C245 1.427 . S
N253 C251 1.384 . S
H254 C260 0.930 . S
H255 C264 0.930 . S
H256 C269 0.929 . S
H257 C267 0.929 . S
H258 C262 0.929 . S
H259 C268 0.929 . S
C260 H254 0.930 . S
C260 C261 1.367 . S
C260 C268 1.378 . S
C261 C260 1.367 . S
C261 C269 1.433 . S
C262 H258 0.929 . S
C262 C264 1.378 . S
C262 C266 1.350 . S
C263 C266 1.463 . S
C263 C268 1.350 . S
C263 N271 1.427 . S
C264 H255 0.930 . S
C264 C262 1.378 . S
C264 C265 1.367 . S
C265 C264 1.367 . S
C265 C267 1.433 . S
C266 C262 1.350 . S
C266 C263 1.463 . S
C266 N270 1.427 . S
C267 H257 0.929 . S
C267 C265 1.433 . S
C267 N270 1.384 . S
C268 H259 0.929 . S
C268 C260 1.378 . S
C268 C263 1.350 . S
C269 H256 0.929 . S
C269 C261 1.433 . S
C269 N271 1.384 . S
N270 C266 1.427 . S
N270 C267 1.384 . S
N271 C263 1.427 . S
N271 C269 1.384 . S
H272 C278 0.930 . S
H273 C282 0.930 . S
H274 C287 0.929 . S
H275 C285 0.929 . S
H276 C280 0.929 . S
H277 C286 0.929 . S
C278 H272 0.930 . S
C278 C279 1.367 . S
C278 C286 1.378 . S
C279 C278 1.367 . S
C279 C287 1.433 . S
C280 H276 0.929 . S
C280 C282 1.378 . S
C280 C284 1.350 . S
C281 C284 1.463 . S
C281 C286 1.350 . S
C281 N289 1.427 . S
C282 H273 0.930 . S
C282 C280 1.378 . S
C282 C283 1.367 . S
C283 C282 1.367 . S
C283 C285 1.433 . S
C284 C280 1.350 . S
C284 C281 1.463 . S
C284 N288 1.427 . S
C285 H275 0.929 . S
C285 C283 1.433 . S
C285 N288 1.384 . S
C286 H277 0.929 . S
C286 C278 1.378 . S
C286 C281 1.350 . S
C287 H274 0.929 . S
C287 C279 1.433 . S
C287 N289 1.384 . S
N288 C284 1.427 . S
N288 C285 1.384 . S
N289 C281 1.427 . S
N289 C287 1.384 . S
H290 C296 0.930 . S
H291 C300 0.930 . S
H292 C305 0.929 1_564 S
H293 C303 0.929 1_546 S
H294 C298 0.929 . S
H295 C304 0.929 . S
C296 H290 0.930 . S
C296 C297 1.367 . S
C296 C304 1.378 . S
C297 C296 1.367 . S
C297 C305 1.433 . S
C298 H294 0.929 . S
C298 C300 1.378 . S
C298 C302 1.350 . S
C299 C302 1.463 1_546 S
C299 C304 1.350 . S
C299 N307 1.427 1_546 S
C300 H291 0.930 . S
C300 C298 1.378 . S
C300 C301 1.367 . S
C301 C300 1.367 . S
C301 C303 1.433 . S
C302 C298 1.350 . S
C302 C299 1.463 1_564 S
C302 N306 1.427 1_564 S
C303 H293 0.929 1_564 S
C303 C301 1.433 . S
C303 N306 1.384 1_564 S
C304 H295 0.929 . S
C304 C296 1.378 . S
C304 C299 1.350 . S
C305 H292 0.929 1_546 S
C305 C297 1.433 . S
C305 N307 1.384 1_546 S
N306 C302 1.427 1_546 S
N306 C303 1.384 1_546 S
N307 C299 1.427 1_564 S
N307 C305 1.384 1_564 S
C99 C44 1.666 1_545 S
C103 C19 1.621 . S
C117 C21 1.667 . S
C121 C42 1.615 . S
C135 C90 1.668 1_565 S
C139 C65 1.625 . S
C153 C67 1.668 . S
C157 C88 1.624 . S
C171 C62 0.864 . S
C175 C16 0.864 . S
C189 C39 0.875 . S
C193 C85 0.875 . S
C207 C87 1.592 1_554 S
C211 C17 1.574 . S
C225 C40 1.569 . S
C229 C64 1.584 . S
C243 C41 1.589 1_556 S
C247 C63 1.579 . S
C261 C86 1.573 . S
C265 C18 1.591 . S
C279 C20 1.324 . S
C283 C66 1.324 . S
C297 C89 1.324 . S
C301 C43 1.324 . S
