# Generated by pormake.
# Topology yff, (5)-cn, num edge types: 1
# Building blocks:
#     Node 0, Type 0, BuildingBlock: XOMCOT_clean_sbu_0, # of connection points: 5
#     Node 1, Type 0, BuildingBlock: XOMCOT_clean_sbu_0, # of connection points: 5
#     Node 2, Type 0, BuildingBlock: XOMCOT_clean_sbu_0, # of connection points: 5
#     Node 3, Type 0, BuildingBlock: XOMCOT_clean_sbu_0, # of connection points: 5
#     Node 4, Type 0, BuildingBlock: XOMCOT_clean_sbu_0, # of connection points: 5
#     Node 5, Type 0, BuildingBlock: XOMCOT_clean_sbu_0, # of connection points: 5
#     Node 6, Type 0, BuildingBlock: XOMCOT_clean_sbu_0, # of connection points: 5
#     Node 7, Type 0, BuildingBlock: XOMCOT_clean_sbu_0, # of connection points: 5
#     Node 8, Type 0, BuildingBlock: XOMCOT_clean_sbu_0, # of connection points: 5
#     Node 9, Type 0, BuildingBlock: XOMCOT_clean_sbu_0, # of connection points: 5
#     Node 10, Type 0, BuildingBlock: XOMCOT_clean_sbu_0, # of connection points: 5
#     Node 11, Type 0, BuildingBlock: XOMCOT_clean_sbu_0, # of connection points: 5
#     Node 12, Type 0, BuildingBlock: XOMCOT_clean_sbu_0, # of connection points: 5
#     Node 13, Type 0, BuildingBlock: XOMCOT_clean_sbu_0, # of connection points: 5
#     Node 14, Type 0, BuildingBlock: XOMCOT_clean_sbu_0, # of connection points: 5
#     Node 15, Type 0, BuildingBlock: XOMCOT_clean_sbu_0, # of connection points: 5
#     Edge 16, Type (0, 0), BuildingBlock: ZUJKAS_clean_linker_0, # of connection points: 2
#     Edge 17, Type (0, 0), BuildingBlock: ZUJKAS_clean_linker_0, # of connection points: 2
#     Edge 18, Type (0, 0), BuildingBlock: ZUJKAS_clean_linker_0, # of connection points: 2
#     Edge 19, Type (0, 0), BuildingBlock: ZUJKAS_clean_linker_0, # of connection points: 2
#     Edge 20, Type (0, 0), BuildingBlock: ZUJKAS_clean_linker_0, # of connection points: 2
#     Edge 21, Type (0, 0), BuildingBlock: ZUJKAS_clean_linker_0, # of connection points: 2
#     Edge 22, Type (0, 0), BuildingBlock: ZUJKAS_clean_linker_0, # of connection points: 2
#     Edge 23, Type (0, 0), BuildingBlock: ZUJKAS_clean_linker_0, # of connection points: 2
#     Edge 24, Type (0, 0), BuildingBlock: ZUJKAS_clean_linker_0, # of connection points: 2
#     Edge 25, Type (0, 0), BuildingBlock: ZUJKAS_clean_linker_0, # of connection points: 2
#     Edge 26, Type (0, 0), BuildingBlock: ZUJKAS_clean_linker_0, # of connection points: 2
#     Edge 27, Type (0, 0), BuildingBlock: ZUJKAS_clean_linker_0, # of connection points: 2
#     Edge 28, Type (0, 0), BuildingBlock: ZUJKAS_clean_linker_0, # of connection points: 2
#     Edge 29, Type (0, 0), BuildingBlock: ZUJKAS_clean_linker_0, # of connection points: 2
#     Edge 30, Type (0, 0), BuildingBlock: ZUJKAS_clean_linker_0, # of connection points: 2
#     Edge 31, Type (0, 0), BuildingBlock: ZUJKAS_clean_linker_0, # of connection points: 2
#     Edge 32, Type (0, 0), BuildingBlock: ZUJKAS_clean_linker_0, # of connection points: 2
#     Edge 33, Type (0, 0), BuildingBlock: ZUJKAS_clean_linker_0, # of connection points: 2
#     Edge 34, Type (0, 0), BuildingBlock: ZUJKAS_clean_linker_0, # of connection points: 2
#     Edge 35, Type (0, 0), BuildingBlock: ZUJKAS_clean_linker_0, # of connection points: 2
#     Edge 36, Type (0, 0), BuildingBlock: ZUJKAS_clean_linker_0, # of connection points: 2
#     Edge 37, Type (0, 0), BuildingBlock: ZUJKAS_clean_linker_0, # of connection points: 2
#     Edge 38, Type (0, 0), BuildingBlock: ZUJKAS_clean_linker_0, # of connection points: 2
#     Edge 39, Type (0, 0), BuildingBlock: ZUJKAS_clean_linker_0, # of connection points: 2
#     Edge 40, Type (0, 0), BuildingBlock: ZUJKAS_clean_linker_0, # of connection points: 2
#     Edge 41, Type (0, 0), BuildingBlock: ZUJKAS_clean_linker_0, # of connection points: 2
#     Edge 42, Type (0, 0), BuildingBlock: ZUJKAS_clean_linker_0, # of connection points: 2
#     Edge 43, Type (0, 0), BuildingBlock: ZUJKAS_clean_linker_0, # of connection points: 2
#     Edge 44, Type (0, 0), BuildingBlock: ZUJKAS_clean_linker_0, # of connection points: 2
#     Edge 45, Type (0, 0), BuildingBlock: ZUJKAS_clean_linker_0, # of connection points: 2
#     Edge 46, Type (0, 0), BuildingBlock: ZUJKAS_clean_linker_0, # of connection points: 2
#     Edge 47, Type (0, 0), BuildingBlock: ZUJKAS_clean_linker_0, # of connection points: 2
#     Edge 48, Type (0, 0), BuildingBlock: ZUJKAS_clean_linker_0, # of connection points: 2
#     Edge 49, Type (0, 0), BuildingBlock: ZUJKAS_clean_linker_0, # of connection points: 2
#     Edge 50, Type (0, 0), BuildingBlock: ZUJKAS_clean_linker_0, # of connection points: 2
#     Edge 51, Type (0, 0), BuildingBlock: ZUJKAS_clean_linker_0, # of connection points: 2
#     Edge 52, Type (0, 0), BuildingBlock: ZUJKAS_clean_linker_0, # of connection points: 2
#     Edge 53, Type (0, 0), BuildingBlock: ZUJKAS_clean_linker_0, # of connection points: 2
#     Edge 54, Type (0, 0), BuildingBlock: ZUJKAS_clean_linker_0, # of connection points: 2
#     Edge 55, Type (0, 0), BuildingBlock: ZUJKAS_clean_linker_0, # of connection points: 2
# Relax obj value: 0.398
# Max RMSD: 0.294
# Mean RMSD: 0.294
data_MOF--net-yff--node1-XOMCOT_clean_sbu_0--edge1-ZUJKAS_clean_linker_0
_symmetry_space_group_name_H-M    P1
_symmetry_Int_Tables_number       1
_symmetry_cell_setting            triclinic
loop_
_symmetry_equiv_pos_as_xyz
'x, y, z'
_cell_length_a     75.544735
_cell_length_b     75.535043
_cell_length_c     38.056336
_cell_angle_alpha  89.981194
_cell_angle_beta   90.005774
_cell_angle_gamma 90.020923
loop_
_atom_site_label
_atom_site_type_symbol
_atom_site_fract_x
_atom_site_fract_y
_atom_site_fract_z
_atom_type_partial_charge
Co0 Co 0.09298 0.06355 0.42635 0.0
C1 C 0.10101 0.08729 0.48608 0.0
C2 C 0.08629 0.10062 0.44602 0.0
C3 C 0.0874 0.11158 0.47498 0.0
N4 N 0.095 0.08541 0.45289 0.0
N5 N 0.09675 0.10311 0.5 0.0
H6 H 0.10665 0.07677 0.50147 0.0
H7 H 0.07859 0.10309 0.42256 0.0
C8 C 0.10508 0.08953 0.37132 0.0
O9 O 0.11594 0.09683 0.39407 0.0
N10 N 0.09047 0.04177 0.40058 0.0
C11 C 0.0974 0.02598 0.4096 0.0
C12 C 0.08997 0.01314 0.38871 0.0
C13 C 0.07891 0.03839 0.37447 0.0
N14 N 0.0783 0.02096 0.36683 0.0
C15 C 0.12559 0.05394 0.4602 0.0
C16 C 0.14603 0.05322 0.40007 0.0
C17 C 0.15388 0.04901 0.43232 0.0
C18 C 0.14339 0.04926 0.46262 0.0
C19 C 0.12819 0.05784 0.39887 0.0
N20 N 0.11834 0.05907 0.42893 0.0
H21 H 0.11748 0.05242 0.48323 0.0
H22 H 0.12222 0.05959 0.37339 0.0
H23 H 0.10653 0.02382 0.43105 0.0
H24 H 0.07033 0.0483 0.36299 0.0
O25 O 0.08537 0.05119 0.46814 0.0
O26 O 0.06765 0.0649 0.43047 0.0
O27 O 0.09522 0.0766 0.38052 0.0
C28 C 0.06932 0.05506 0.45833 0.0
H29 H 0.08103 0.12431 0.4781 0.0
H30 H 0.09258 -0.00093 0.39018 0.0
H31 H 0.15353 0.05278 0.37584 0.0
H32 H 0.14873 0.04523 0.48781 0.0
Co33 Co 0.43184 0.09201 0.92433 0.0
C34 C 0.4144 0.09663 0.99395 0.0
C35 C 0.39712 0.08467 0.95628 0.0
C36 C 0.38858 0.08508 0.98826 0.0
N37 N 0.41319 0.09232 0.95957 0.0
N38 N 0.39948 0.09271 0.01179 0.0
H39 H 0.42633 0.10106 0.00672 0.0
H40 H 0.3922 0.07841 0.93267 0.0
C41 C 0.40076 0.1034 0.88085 0.0
O42 O 0.39652 0.11496 0.90525 0.0
N43 N 0.45031 0.09095 0.88944 0.0
C44 C 0.46563 0.10009 0.88918 0.0
C45 C 0.47648 0.09304 0.86372 0.0
C46 C 0.45207 0.0784 0.86459 0.0
N47 N 0.46798 0.07931 0.84857 0.0
C48 C 0.44005 0.12571 0.95512 0.0
C49 C 0.43629 0.14545 0.89447 0.0
C50 C 0.44112 0.15397 0.92568 0.0
C51 C 0.44312 0.14387 0.95622 0.0
C52 C 0.43321 0.12725 0.89464 0.0
N53 N 0.43431 0.11768 0.9251 0.0
H54 H 0.44328 0.11806 0.97799 0.0
H55 H 0.43057 0.12079 0.86989 0.0
H56 H 0.46911 0.11042 0.9076 0.0
H57 H 0.44228 0.06823 0.85972 0.0
O58 O 0.44924 0.08612 0.95934 0.0
O59 O 0.43319 0.06662 0.92936 0.0
O60 O 0.41391 0.09301 0.88529 0.0
C61 C 0.44581 0.06968 0.95183 0.0
H62 H 0.3756 0.07974 0.99399 0.0
H63 H 0.49004 0.09689 0.85856 0.0
H64 H 0.43505 0.15274 0.87008 0.0
H65 H 0.44768 0.14984 0.98046 0.0
Co66 Co 0.40173 0.43134 0.42723 0.0
C67 C 0.39997 0.41015 0.49225 0.0
C68 C 0.40333 0.39321 0.44779 0.0
C69 C 0.40356 0.38294 0.47784 0.0
N70 N 0.4005 0.41029 0.45678 0.0
N71 N 0.40155 0.39374 0.50567 0.0
H72 H 0.39929 0.4219 0.50832 0.0
H73 H 0.40608 0.3885 0.42157 0.0
C74 C 0.38632 0.40593 0.37454 0.0
O75 O 0.37411 0.40123 0.39731 0.0
N76 N 0.40358 0.45228 0.39858 0.0
C77 C 0.39656 0.46827 0.40571 0.0
C78 C 0.40291 0.48025 0.3816 0.0
C79 C 0.41426 0.45472 0.37068 0.0
N80 N 0.41411 0.47173 0.35973 0.0
C81 C 0.36904 0.43763 0.46408 0.0
C82 C 0.34861 0.44311 0.40481 0.0
C83 C 0.34069 0.44438 0.43796 0.0
C84 C 0.35114 0.4417 0.46786 0.0
C85 C 0.36652 0.43893 0.40224 0.0
N86 N 0.37641 0.43561 0.43161 0.0
H87 H 0.377 0.43678 0.48737 0.0
H88 H 0.37252 0.4387 0.37648 0.0
H89 H 0.38803 0.47115 0.4278 0.0
H90 H 0.42241 0.44437 0.3595 0.0
O91 O 0.40995 0.44515 0.46654 0.0
O92 O 0.42716 0.4303 0.42953 0.0
O93 O 0.39837 0.41697 0.3832 0.0
C94 C 0.42585 0.44095 0.45631 0.0
H95 H 0.40604 0.36885 0.47923 0.0
H96 H 0.40026 0.49433 0.38146 0.0
H97 H 0.34104 0.44525 0.38102 0.0
H98 H 0.34564 0.4432 0.49399 0.0
Co99 Co 0.06148 0.39865 0.9277 0.0
C100 C 0.08531 0.39027 0.9874 0.0
C101 C 0.0988 0.40428 0.94653 0.0
C102 C 0.11004 0.40281 0.97498 0.0
N103 N 0.08331 0.39625 0.95421 0.0
N104 N 0.10149 0.39388 1.00046 0.0
H105 H 0.07479 0.38504 0.00335 0.0
H106 H 0.10136 0.4117 0.92274 0.0
C107 C 0.08685 0.38489 0.87329 0.0
O108 O 0.09327 0.37363 0.89632 0.0
N109 N 0.03985 0.40157 0.90162 0.0
C110 C 0.02388 0.39481 0.90974 0.0
C111 C 0.01153 0.40186 0.88719 0.0
C112 C 0.03707 0.41274 0.87461 0.0
N113 N 0.01983 0.4132 0.86525 0.0
C114 C 0.05125 0.36656 0.96286 0.0
C115 C 0.04945 0.34571 0.9034 0.0
C116 C 0.04559 0.33815 0.93608 0.0
C117 C 0.04634 0.34884 0.96605 0.0
C118 C 0.05441 0.36345 0.90147 0.0
N119 N 0.05624 0.37346 0.9312 0.0
H120 H 0.05011 0.37488 0.98567 0.0
H121 H 0.05602 0.36923 0.87576 0.0
H122 H 0.02126 0.38596 0.93147 0.0
H123 H 0.04739 0.42072 0.86287 0.0
O124 O 0.04934 0.40694 0.96917 0.0
O125 O 0.06356 0.42399 0.931 0.0
O126 O 0.07455 0.39559 0.88209 0.0
C127 C 0.0537 0.4228 0.95892 0.0
H128 H 0.1231 0.40858 0.97741 0.0
H129 H -0.0026 0.39952 0.88812 0.0
H130 H 0.04857 0.33802 0.87943 0.0
H131 H 0.04258 0.34372 0.99158 0.0
Co132 Co 0.59283 0.92475 0.58705 0.0
C133 C 0.59557 0.90462 0.52098 0.0
C134 C 0.58858 0.8874 0.5633 0.0
C135 C 0.58811 0.87786 0.53231 0.0
N136 N 0.59373 0.90415 0.55628 0.0
N137 N 0.59241 0.88882 0.50568 0.0
H138 H 0.59803 0.91655 0.5063 0.0
H139 H 0.58432 0.88263 0.5887 0.0
C140 C 0.60559 0.89742 0.63933 0.0
O141 O 0.61743 0.89159 0.61683 0.0
N142 N 0.59137 0.94549 0.61664 0.0
C143 C 0.6004 0.9607 0.612 0.0
C144 C 0.59271 0.9737 0.63204 0.0
C145 C 0.5782 0.94948 0.6392 0.0
N146 N 0.57859 0.96671 0.64875 0.0
C147 C 0.62589 0.93193 0.55246 0.0
C148 C 0.64619 0.93366 0.61276 0.0
C149 C 0.65418 0.93695 0.58023 0.0
C150 C 0.64382 0.93604 0.54982 0.0
C151 C 0.62823 0.92949 0.61419 0.0
N152 N 0.61836 0.92812 0.58416 0.0
H153 H 0.61797 0.93284 0.52914 0.0
H154 H 0.62212 0.92822 0.63969 0.0
H155 H 0.61106 0.9626 0.59342 0.0
H156 H 0.56765 0.94038 0.64589 0.0
O157 O 0.58541 0.93944 0.5482 0.0
O158 O 0.56748 0.92444 0.58356 0.0
O159 O 0.59492 0.90976 0.63058 0.0
C160 C 0.5693 0.93557 0.55774 0.0
H161 H 0.58385 0.86426 0.52942 0.0
H162 H 0.59672 0.98745 0.63276 0.0
H163 H 0.65368 0.93454 0.63697 0.0
H164 H 0.64934 0.9392 0.52431 0.0
Co165 Co 0.55877 0.59582 0.07135 0.0
C166 C 0.58226 0.60358 0.01124 0.0
C167 C 0.59723 0.59517 0.05588 0.0
C168 C 0.60865 0.5973 0.02785 0.0
N169 N 0.58069 0.59954 0.04562 0.0
N170 N 0.59913 0.6027 0.99988 0.0
H171 H 0.57121 0.60544 0.99376 0.0
H172 H 0.60069 0.58993 0.08141 0.0
C173 C 0.58194 0.61203 0.12701 0.0
O174 O 0.58689 0.62437 0.10473 0.0
N175 N 0.53697 0.59161 0.09625 0.0
C176 C 0.52084 0.59746 0.08654 0.0
C177 C 0.50826 0.58873 0.106 0.0
C178 C 0.53403 0.57935 0.12131 0.0
N179 N 0.51656 0.57726 0.1276 0.0
C180 C 0.5479 0.6272 0.03448 0.0
C181 C 0.54241 0.64785 0.09333 0.0
C182 C 0.53925 0.65513 0.06007 0.0
C183 C 0.54186 0.6445 0.03042 0.0
C184 C 0.54843 0.63046 0.09616 0.0
N185 N 0.55201 0.62061 0.06687 0.0
H186 H 0.54829 0.61889 0.01161 0.0
H187 H 0.54961 0.62479 0.12207 0.0
H188 H 0.51833 0.60669 0.0654 0.0
H189 H 0.54436 0.57127 0.13276 0.0
O190 O 0.54763 0.58655 0.02964 0.0
O191 O 0.56255 0.57068 0.06876 0.0
O192 O 0.57107 0.59998 0.11754 0.0
C193 C 0.55281 0.57106 0.04057 0.0
H194 H 0.62269 0.59451 0.02778 0.0
H195 H 0.49407 0.5903 0.1036 0.0
H196 H 0.54023 0.65546 0.11704 0.0
H197 H 0.53874 0.64932 0.00433 0.0
Co198 Co 0.90093 0.56066 0.57322 0.0
C199 C 0.89397 0.58348 0.51184 0.0
C200 C 0.90334 0.59886 0.55513 0.0
C201 C 0.9016 0.60982 0.52628 0.0
N202 N 0.89807 0.58237 0.54628 0.0
N203 N 0.89561 0.60006 0.49912 0.0
H204 H 0.89156 0.57218 0.49529 0.0
H205 H 0.90896 0.60254 0.58021 0.0
C206 C 0.88779 0.58549 0.62934 0.0
O207 O 0.87557 0.59146 0.6078 0.0
N208 N 0.90426 0.539 0.59909 0.0
C209 C 0.89724 0.52315 0.59083 0.0
C210 C 0.90516 0.5104 0.61121 0.0
C211 C 0.91642 0.53575 0.62417 0.0
N212 N 0.91729 0.51833 0.63195 0.0
C213 C 0.86751 0.55229 0.54067 0.0
C214 C 0.84871 0.54866 0.60249 0.0
C215 C 0.8399 0.54639 0.57046 0.0
C216 C 0.84958 0.54796 0.53925 0.0
C217 C 0.86664 0.55296 0.60266 0.0
N218 N 0.87565 0.55568 0.57197 0.0
H219 H 0.87491 0.55218 0.5166 0.0
H220 H 0.87336 0.55355 0.62765 0.0
H221 H 0.88763 0.5209 0.57024 0.0
H222 H 0.92519 0.54574 0.63478 0.0
O223 O 0.90831 0.54824 0.53137 0.0
O224 O 0.92613 0.56266 0.56788 0.0
O225 O 0.89883 0.57378 0.61905 0.0
C226 C 0.92437 0.55263 0.54031 0.0
H227 H 0.9051 0.6237 0.52511 0.0
H228 H 0.90252 0.49633 0.61014 0.0
H229 H 0.84192 0.54675 0.62727 0.0
H230 H 0.8434 0.54587 0.51392 0.0
Co231 Co 0.93245 0.90159 0.07356 0.0
C232 C 0.91094 0.89828 0.0094 0.0
C233 C 0.89433 0.90389 0.05343 0.0
C234 C 0.88399 0.90361 0.02347 0.0
N235 N 0.91122 0.89998 0.04469 0.0
N236 N 0.89458 0.90019 0.99584 0.0
H237 H 0.92261 0.89663 0.99344 0.0
H238 H 0.88988 0.90768 0.07933 0.0
C239 C 0.9069 0.88733 0.12722 0.0
O240 O 0.90185 0.87502 0.10499 0.0
N241 N 0.95371 0.90378 0.10125 0.0
C242 C 0.9695 0.89659 0.09301 0.0
C243 C 0.98238 0.9046 0.11291 0.0
C244 C 0.95715 0.91608 0.12598 0.0
N245 N 0.9746 0.91691 0.13336 0.0
C246 C 0.93923 0.86843 0.03857 0.0
C247 C 0.94358 0.84869 0.0991 0.0
C248 C 0.94527 0.84032 0.06645 0.0
C249 C 0.94322 0.85045 0.03591 0.0
C250 C 0.93958 0.86667 0.10053 0.0
N251 N 0.93668 0.8762 0.07052 0.0
H252 H 0.93896 0.87612 0.01489 0.0
H253 H 0.9392 0.87301 0.12594 0.0
H254 H 0.97167 0.8871 0.07219 0.0
H255 H 0.94736 0.92523 0.13603 0.0
O256 O 0.94598 0.9094 0.03343 0.0
O257 O 0.93134 0.92694 0.07011 0.0
O258 O 0.91836 0.8989 0.11812 0.0
C259 C 0.94195 0.92541 0.04335 0.0
H260 H 0.87002 0.90668 0.0219 0.0
H261 H -0.00353 0.90215 0.11127 0.0
H262 H 0.94529 0.84142 0.1234 0.0
H263 H 0.94515 0.84466 0.01016 0.0
Co264 Co 0.9008 0.93458 0.57309 0.0
C265 C 0.89416 0.91226 0.51068 0.0
C266 C 0.90176 0.89642 0.5547 0.0
C267 C 0.89998 0.88554 0.52577 0.0
N268 N 0.8976 0.91317 0.54543 0.0
N269 N 0.8951 0.8956 0.49816 0.0
H270 H 0.89264 0.92367 0.49394 0.0
H271 H 0.90659 0.89243 0.58023 0.0
C272 C 0.88495 0.91015 0.62685 0.0
O273 O 0.87273 0.90553 0.60405 0.0
N274 N 0.90452 0.95587 0.59991 0.0
C275 C 0.89871 0.97215 0.59126 0.0
C276 C 0.90639 0.98424 0.61348 0.0
C277 C 0.91572 0.9582 0.62706 0.0
N278 N 0.91716 0.97547 0.6358 0.0
C279 C 0.86842 0.94431 0.53792 0.0
C280 C 0.84859 0.94874 0.59825 0.0
C281 C 0.84044 0.95111 0.56554 0.0
C282 C 0.85067 0.94917 0.53511 0.0
C283 C 0.86636 0.94391 0.5998 0.0
N284 N 0.87581 0.94071 0.56984 0.0
H285 H 0.87628 0.94414 0.51444 0.0
H286 H 0.87256 0.94301 0.62529 0.0
H287 H 0.89004 0.97509 0.56939 0.0
H288 H 0.92339 0.94763 0.63874 0.0
O289 O 0.90952 0.94693 0.53226 0.0
O290 O 0.92601 0.93159 0.56975 0.0
O291 O 0.89705 0.92115 0.61819 0.0
C292 C 0.9252 0.94186 0.54233 0.0
H293 H 0.90263 0.87147 0.52493 0.0
H294 H 0.90449 -0.00156 0.61276 0.0
H295 H 0.8413 0.9504 0.62253 0.0
H296 H 0.8451 0.9517 0.50936 0.0
Co297 Co 0.55934 0.89876 0.07456 0.0
C298 C 0.58516 0.88728 0.02055 0.0
C299 C 0.5973 0.90341 0.05998 0.0
C300 C 0.60933 0.90079 0.03314 0.0
N301 N 0.5821 0.8949 0.05206 0.0
N302 N 0.60161 0.89055 0.00856 0.0
H303 H 0.57525 0.88098 0.00466 0.0
H304 H 0.59908 0.91196 0.08251 0.0
C305 C 0.58176 0.8835 0.13273 0.0
O306 O 0.58968 0.87298 0.11018 0.0
N307 N 0.53676 0.90305 0.0963 0.0
C308 C 0.52084 0.89816 0.08364 0.0
C309 C 0.50789 0.90606 0.10356 0.0
C310 C 0.53337 0.91388 0.12358 0.0
N311 N 0.5158 0.916 0.12849 0.0
C312 C 0.54717 0.86842 0.03587 0.0
C313 C 0.54282 0.84647 0.09322 0.0
C314 C 0.53877 0.84003 0.05972 0.0
C315 C 0.54086 0.85125 0.03079 0.0
C316 C 0.54925 0.86363 0.09703 0.0
N317 N 0.55229 0.87414 0.06838 0.0
H318 H 0.54726 0.87731 0.0137 0.0
H319 H 0.55094 0.86858 0.12334 0.0
H320 H 0.51876 0.89005 0.06061 0.0
H321 H 0.54353 0.92085 0.13811 0.0
O322 O 0.55022 0.90876 0.03135 0.0
O323 O 0.56353 0.92384 0.07386 0.0
O324 O 0.56971 0.89415 0.1224 0.0
C325 C 0.55522 0.92398 0.04396 0.0
H326 H 0.62233 0.90672 0.03094 0.0
H327 H 0.49376 0.90491 0.09949 0.0
H328 H 0.54098 0.83834 0.11638 0.0
H329 H 0.53716 0.84698 0.00463 0.0
Co330 Co 0.59233 0.5647 0.57818 0.0
C331 C 0.59601 0.58489 0.51212 0.0
C332 C 0.59061 0.60232 0.55501 0.0
C333 C 0.59092 0.61211 0.52439 0.0
N334 N 0.59435 0.58525 0.54745 0.0
N335 N 0.59422 0.60104 0.49745 0.0
H336 H 0.59752 0.57292 0.49699 0.0
H337 H 0.58684 0.60726 0.58056 0.0
C338 C 0.60679 0.59104 0.62993 0.0
O339 O 0.61933 0.5953 0.60752 0.0
N340 N 0.58969 0.54425 0.60799 0.0
C341 C 0.59656 0.52806 0.60226 0.0
C342 C 0.58979 0.51659 0.62686 0.0
C343 C 0.57867 0.54243 0.63557 0.0
N344 N 0.57848 0.52562 0.64768 0.0
C345 C 0.62575 0.55712 0.54488 0.0
C346 C 0.64465 0.55269 0.60643 0.0
C347 C 0.6533 0.55033 0.57424 0.0
C348 C 0.6436 0.5525 0.54317 0.0
C349 C 0.62682 0.55735 0.60692 0.0
N350 N 0.61768 0.56013 0.57638 0.0
H351 H 0.61837 0.55756 0.52083 0.0
H352 H 0.62022 0.5582 0.63203 0.0
H353 H 0.60535 0.52471 0.58083 0.0
H354 H 0.57059 0.55309 0.64575 0.0
O355 O 0.58485 0.55033 0.53909 0.0
O356 O 0.56699 0.56587 0.57368 0.0
O357 O 0.59489 0.57981 0.62145 0.0
C358 C 0.56878 0.55477 0.54775 0.0
H359 H 0.5879 0.62607 0.52192 0.0
H360 H 0.59229 0.5025 0.6281 0.0
H361 H 0.65145 0.55051 0.6311 0.0
H362 H 0.64968 0.55057 0.5177 0.0
Co363 Co 0.93239 0.59144 0.07506 0.0
C364 C 0.90911 0.59913 0.01408 0.0
C365 C 0.89554 0.58456 0.0541 0.0
C366 C 0.88458 0.5859 0.0252 0.0
N367 N 0.91089 0.59305 0.04725 0.0
N368 N 0.89318 0.59518 1.00026 0.0
H369 H 0.91963 0.60482 0.99877 0.0
H370 H 0.89289 0.57705 0.07771 0.0
C371 C 0.90573 0.60432 0.12775 0.0
O372 O 0.89958 0.61562 0.1045 0.0
N373 N 0.9537 0.58933 0.10241 0.0
C374 C 0.96949 0.59679 0.09527 0.0
C375 C 0.98181 0.59014 0.11834 0.0
C376 C 0.95659 0.57816 0.12936 0.0
N377 N 0.9737 0.57836 0.13964 0.0
C378 C 0.94193 0.62389 0.04045 0.0
C379 C 0.94186 0.64486 0.09985 0.0
C380 C 0.94586 0.65257 0.06735 0.0
C381 C 0.94609 0.64181 0.03744 0.0
C382 C 0.93771 0.62691 0.10159 0.0
N383 N 0.93674 0.61682 0.07182 0.0
H384 H 0.9438 0.6156 0.01778 0.0
H385 H 0.93596 0.62108 0.12722 0.0
H386 H 0.97204 0.60582 0.0738 0.0
H387 H 0.94646 0.56967 0.14036 0.0
O388 O 0.94545 0.5836 0.03434 0.0
O389 O 0.93127 0.56605 0.07167 0.0
O390 O 0.91847 0.59397 0.11981 0.0
C391 C 0.94148 0.56759 0.04432 0.0
H392 H 0.87165 0.57991 0.02218 0.0
H393 H 0.99584 0.59305 0.11814 0.0
H394 H 0.94199 0.6526 0.12381 0.0
H395 H 0.95002 0.64706 0.01212 0.0
Co396 Co 0.40231 0.05673 0.44152 0.0
C397 C 0.39449 0.0791 0.50275 0.0
C398 C 0.40499 0.09482 0.46099 0.0
C399 C 0.40298 0.10545 0.49031 0.0
N400 N 0.3992 0.07834 0.46861 0.0
N401 N 0.3965 0.09539 0.51657 0.0
H402 H 0.39081 0.06775 0.51815 0.0
H403 H 0.41123 0.09867 0.43659 0.0
C404 C 0.39121 0.0822 0.38447 0.0
O405 O 0.37872 0.08868 0.40477 0.0
N406 N 0.40576 0.03514 0.41565 0.0
C407 C 0.39877 0.01927 0.42386 0.0
C408 C 0.40625 0.00666 0.40252 0.0
C409 C 0.41744 0.03206 0.38963 0.0
N410 N 0.41802 0.01471 0.38117 0.0
C411 C 0.36839 0.04816 0.4713 0.0
C412 C 0.35028 0.04617 0.40837 0.0
C413 C 0.34105 0.0434 0.43979 0.0
C414 C 0.35039 0.04414 0.47152 0.0
C415 C 0.36829 0.05017 0.4094 0.0
N416 N 0.37695 0.05213 0.44072 0.0
H417 H 0.3755 0.04721 0.49563 0.0
H418 H 0.37532 0.05117 0.38481 0.0
H419 H 0.38936 0.01694 0.44476 0.0
H420 H 0.42594 0.04214 0.37845 0.0
O421 O 0.40865 0.04407 0.48378 0.0
O422 O 0.42742 0.05833 0.44895 0.0
O423 O 0.40146 0.07003 0.39576 0.0
C424 C 0.42493 0.04836 0.47638 0.0
H425 H 0.40703 0.11914 0.49277 0.0
H426 H 0.40344 0.99261 0.40305 0.0
H427 H 0.34368 0.0453 0.38317 0.0
H428 H 0.34395 0.04118 0.49626 0.0
Co429 Co 0.43236 0.40224 0.93253 0.0
C430 C 0.40905 0.39487 0.99318 0.0
C431 C 0.3941 0.40416 0.94922 0.0
C432 C 0.3828 0.40219 0.97745 0.0
N433 N 0.41053 0.39909 0.95885 0.0
N434 N 0.39229 0.39626 0.00503 0.0
H435 H 0.42017 0.39248 0.01026 0.0
H436 H 0.39065 0.40975 0.92398 0.0
C437 C 0.4082 0.38782 0.8767 0.0
O438 O 0.40263 0.37567 0.89883 0.0
N439 N 0.45409 0.40592 0.90704 0.0
C440 C 0.47003 0.39913 0.91539 0.0
C441 C 0.48268 0.4073 0.89516 0.0
C442 C 0.45722 0.41824 0.88221 0.0
N443 N 0.47465 0.41939 0.87447 0.0
C444 C 0.44137 0.36928 0.96632 0.0
C445 C 0.44557 0.35005 0.90516 0.0
C446 C 0.44785 0.34151 0.9375 0.0
C447 C 0.446 0.35143 0.96837 0.0
C448 C 0.44102 0.3679 0.90437 0.0
N449 N 0.43794 0.37709 0.93471 0.0
H450 H 0.44133 0.3769 0.99013 0.0
H451 H 0.44039 0.37441 0.87915 0.0
H452 H 0.4724 0.38963 0.93612 0.0
H453 H 0.44703 0.42664 0.87123 0.0
O454 O 0.44433 0.41019 0.97443 0.0
O455 O 0.42978 0.42743 0.93705 0.0
O456 O 0.41952 0.39939 0.88653 0.0
C457 C 0.43974 0.4261 0.96482 0.0
H458 H 0.36885 0.40545 0.97792 0.0
H459 H 0.49682 0.40523 0.89715 0.0
H460 H 0.44716 0.34303 0.88056 0.0
H461 H 0.4485 0.34557 0.99387 0.0
Co462 Co 0.09253 0.43009 0.42815 0.0
C463 C 0.09474 0.40754 0.49107 0.0
C464 C 0.09084 0.3915 0.44548 0.0
C465 C 0.09078 0.38066 0.47477 0.0
N466 N 0.0939 0.40837 0.45567 0.0
N467 N 0.09311 0.3909 0.50332 0.0
H468 H 0.09559 0.41896 0.50802 0.0
H469 H 0.08782 0.38734 0.419 0.0
C470 C 0.10731 0.40574 0.37234 0.0
O471 O 0.11939 0.39976 0.39418 0.0
N472 N 0.09062 0.45179 0.40179 0.0
C473 C 0.0978 0.46748 0.41084 0.0
C474 C 0.09047 0.48047 0.3902 0.0
C475 C 0.07897 0.45541 0.37599 0.0
N476 N 0.07854 0.47288 0.36855 0.0
C477 C 0.12506 0.43633 0.46551 0.0
C478 C 0.14564 0.44214 0.40659 0.0
C479 C 0.15343 0.44352 0.43987 0.0
C480 C 0.1429 0.44064 0.46959 0.0
C481 C 0.12778 0.4378 0.40373 0.0
N482 N 0.11782 0.43433 0.43292 0.0
H483 H 0.11701 0.43538 0.48867 0.0
H484 H 0.12185 0.43777 0.37791 0.0
H485 H 0.10697 0.46946 0.43231 0.0
H486 H 0.07006 0.44568 0.36487 0.0
O487 O 0.08408 0.44288 0.46873 0.0
O488 O 0.06715 0.42878 0.43011 0.0
O489 O 0.0958 0.41698 0.38261 0.0
C490 C 0.06824 0.43888 0.45771 0.0
H491 H 0.08815 0.36657 0.47522 0.0
H492 H 0.09324 0.4945 0.39193 0.0
H493 H 0.15325 0.44443 0.3829 0.0
H494 H 0.14825 0.44221 0.49581 0.0
Co495 Co 0.0635 0.09177 0.93194 0.0
C496 C 0.08877 0.10265 0.98721 0.0
C497 C 0.10128 0.08686 0.94774 0.0
C498 C 0.11299 0.08912 0.97525 0.0
N499 N 0.08607 0.09544 0.95522 0.0
N500 N 0.10503 0.09914 0.99989 0.0
H501 H 0.0786 0.10863 0.00299 0.0
H502 H 0.10323 0.07842 0.92512 0.0
C503 C 0.08698 0.10493 0.87354 0.0
O504 O 0.09473 0.11595 0.89538 0.0
N505 N 0.04103 0.08762 0.90951 0.0
C506 C 0.0252 0.09345 0.921 0.0
C507 C 0.0121 0.0847 0.90296 0.0
C508 C 0.03741 0.07541 0.88472 0.0
N509 N 0.0198 0.07331 0.88037 0.0
C510 C 0.05233 0.12357 0.96686 0.0
C511 C 0.04949 0.14423 0.90729 0.0
C512 C 0.04553 0.15173 0.94 0.0
C513 C 0.04679 0.1411 0.97001 0.0
C514 C 0.05498 0.12666 0.90537 0.0
N515 N 0.05733 0.11677 0.93512 0.0
H516 H 0.05178 0.11529 0.98987 0.0
H517 H 0.05659 0.12094 0.87966 0.0
H518 H 0.02328 0.10263 0.94243 0.0
H519 H 0.0474 0.06738 0.872 0.0
O520 O 0.05334 0.08342 0.97547 0.0
O521 O 0.06681 0.06661 0.93592 0.0
O522 O 0.07464 0.09472 0.88431 0.0
C523 C 0.05792 0.06765 0.9651 0.0
H524 H 0.12586 0.08297 0.97792 0.0
H525 H -0.00201 0.08619 0.90693 0.0
H526 H 0.04829 0.15184 0.88328 0.0
H527 H 0.04303 0.14613 0.9956 0.0
H528 H 0.95931 0.9366 0.56328 0.0
H529 H 0.98485 0.95511 0.54875 0.0
H530 H 0.95299 0.98473 0.47541 0.0
H531 H 0.92738 0.96624 0.48956 0.0
H532 H 0.989 0.97712 0.45291 0.0
H533 H 0.98481 0.00701 0.58632 0.0
H534 H 0.98636 0.98327 0.58495 0.0
H535 H 0.96707 0.99405 0.56759 0.0
C536 C 0.95784 0.94677 0.54343 0.0
C537 C 0.9413 0.95011 0.52782 0.0
C538 C 0.9724 0.9574 0.53538 0.0
C539 C 0.97062 0.97149 0.51167 0.0
C540 C 0.95452 0.97399 0.49403 0.0
H541 H 0.03476 0.05862 0.43921 0.0
H542 H 0.01043 0.03875 0.45453 0.0
C543 C 0.93994 0.96338 0.50207 0.0
C544 C 0.98512 0.98437 0.50703 0.0
H545 H 0.00822 0.01669 0.54987 0.0
C546 C 0.99323 0.98578 0.47404 0.0
C547 C 0.99049 0.99564 0.53476 0.0
C548 C 0.98167 0.9951 0.57036 0.0
C549 C 0.00679 -0.0019 0.4681 0.0
C550 C 0.01205 0.00946 0.49574 0.0
C551 C 0.00405 0.00796 0.52881 0.0
C552 C 0.02593 0.02295 0.49057 0.0
C553 C 0.01554 -0.00127 0.43244 0.0
C554 C 0.04235 0.02119 0.50738 0.0
C555 C 0.05627 0.03258 0.49887 0.0
C556 C 0.05389 0.04591 0.4735 0.0
C557 C 0.03702 0.04844 0.45875 0.0
C558 C 0.02314 0.03703 0.46724 0.0
H559 H 0.01271 0.98666 0.41674 0.0
H560 H 0.01048 0.01035 0.41767 0.0
H561 H 0.03011 0.00021 0.43509 0.0
H562 H 0.04464 0.01045 0.52571 0.0
H563 H 0.06912 0.03032 0.51068 0.0
H564 H 0.48116 0.07113 0.94606 0.0
H565 H 0.50227 0.04705 0.95412 0.0
H566 H 0.4598 0.01292 0.98885 0.0
H567 H 0.43844 0.03672 0.9775 0.0
H568 H 0.51382 0.03043 0.00448 0.0
H569 H 0.48122 0.98046 0.92127 0.0
H570 H 0.47373 0.00308 0.92271 0.0
H571 H 0.46627 0.98727 0.95512 0.0
C572 C 0.4764 0.05847 0.95559 0.0
C573 C 0.4583 0.05568 0.96147 0.0
C574 C 0.48844 0.04468 0.96006 0.0
C575 C 0.48266 0.02795 0.97137 0.0
C576 C 0.46456 0.02543 0.97875 0.0
H577 H 0.54713 0.9536 0.07982 0.0
H578 H 0.53139 0.97941 0.05833 0.0
C579 C 0.45239 0.03908 0.97293 0.0
C580 C 0.49571 0.01342 0.97644 0.0
H581 H 0.50231 0.96925 0.96338 0.0
C582 C 0.51138 0.01712 0.99493 0.0
C583 C 0.49301 0.99614 0.96303 0.0
C584 C 0.47775 0.99159 0.93906 0.0
C585 C 0.52398 0.00394 1.00164 0.0
C586 C 0.52032 0.98626 0.99164 0.0
C587 C 0.50506 0.9827 0.97174 0.0
C588 C 0.53132 0.97113 0.00376 0.0
C589 C 0.54114 0.00929 0.01899 0.0
C590 C 0.53611 0.95742 0.9806 0.0
C591 C 0.54456 0.9422 0.99324 0.0
C592 C 0.54871 0.94069 0.02904 0.0
C593 C 0.54451 0.95464 0.05189 0.0
C594 C 0.53559 0.96951 0.03953 0.0
H595 H 0.54506 0.02288 0.01092 0.0
H596 H 0.53933 0.00947 0.04792 0.0
H597 H 0.55211 0.00011 0.01232 0.0
H598 H 0.53288 0.95826 0.95292 0.0
H599 H 0.54752 0.9315 0.97524 0.0
H600 H 0.56874 0.52986 0.49591 0.0
H601 H 0.54415 0.51057 0.47929 0.0
H602 H 0.5096 0.53895 0.54971 0.0
H603 H 0.53416 0.55822 0.56679 0.0
H604 H 0.51071 0.50204 0.56081 0.0
H605 H 0.49925 0.51831 0.42028 0.0
H606 H 0.5219 0.51376 0.4314 0.0
H607 H 0.51113 0.53287 0.44964 0.0
C608 C 0.55581 0.53228 0.50723 0.0
C609 C 0.55337 0.54552 0.53271 0.0
C610 C 0.54177 0.52127 0.49763 0.0
C611 C 0.52508 0.52341 0.51319 0.0
C612 C 0.52241 0.53714 0.5374 0.0
H613 H 0.42675 0.46536 0.50901 0.0
H614 H 0.4517 0.48422 0.5253 0.0
C615 C 0.53642 0.54817 0.54698 0.0
C616 C 0.5109 0.51036 0.50665 0.0
H617 H 0.48488 0.49269 0.44244 0.0
C618 C 0.50496 0.50004 0.53499 0.0
C619 C 0.50362 0.50773 0.47288 0.0
C620 C 0.50916 0.51884 0.44182 0.0
C621 C 0.49201 0.48696 0.53035 0.0
C622 C 0.48466 0.48437 0.4966 0.0
C623 C 0.49064 0.49466 0.46825 0.0
C624 C 0.47028 0.47151 0.49015 0.0
C625 C 0.48652 0.47583 0.56144 0.0
C626 C 0.47253 0.45802 0.46524 0.0
C627 C 0.45828 0.44726 0.45577 0.0
C628 C 0.44153 0.44994 0.4709 0.0
C629 C 0.43952 0.46293 0.49703 0.0
C630 C 0.45378 0.47368 0.50646 0.0
H631 H 0.49669 0.47603 0.58255 0.0
H632 H 0.47404 0.48118 0.57253 0.0
H633 H 0.48414 0.46188 0.55352 0.0
H634 H 0.48518 0.45618 0.45233 0.0
H635 H 0.46021 0.4374 0.43547 0.0
H636 H 0.96667 0.56714 0.99289 0.0
H637 H 0.9857 0.54221 0.97685 0.0
H638 H 0.9566 0.50833 0.04748 0.0
H639 H 0.93741 0.53306 0.06334 0.0
H640 H 0.00681 0.52467 0.02648 0.0
H641 H 0.9615 0.4778 0.95917 0.0
H642 H 0.95621 0.50092 0.96513 0.0
H643 H 0.95348 0.48556 1.00082 0.0
C644 C 0.96402 0.55426 0.00427 0.0
C645 C 0.95056 0.55204 0.02939 0.0
C646 C 0.97495 0.54007 0.99522 0.0
C647 C 0.9725 0.52344 0.01089 0.0
C648 C 0.95853 0.52099 0.03467 0.0
H649 H 0.02918 0.42401 0.01152 0.0
H650 H 0.01062 0.4493 0.02744 0.0
C651 C 0.9476 0.53516 0.04375 0.0
C652 C 0.98548 0.50912 0.00498 0.0
H653 H 0.98959 0.46653 0.97648 0.0
C654 C 0.0031 0.51199 0.0153 0.0
C655 C 0.98053 0.49259 0.99067 0.0
C656 C 0.96194 0.48903 0.978 0.0
C657 C 0.01588 0.49861 0.01221 0.0
C658 C 0.0109 0.48206 0.99804 0.0
C659 C 0.9933 0.47921 0.98763 0.0
C660 C 0.02382 0.46765 0.9925 0.0
C661 C 0.03449 0.50216 0.02474 0.0
C662 C 0.03767 0.46977 0.96834 0.0
C663 C 0.04832 0.45538 0.95928 0.0
C664 C 0.0452 0.43862 0.97409 0.0
C665 C 0.03195 0.43677 0.99975 0.0
C666 C 0.02128 0.45117 0.00875 0.0
H667 H 0.03504 0.51361 0.04302 0.0
H668 H 0.04009 0.49037 0.03817 0.0
H669 H 0.043 0.50524 1.00177 0.0
H670 H 0.03966 0.48232 0.95513 0.0
H671 H 0.05836 0.4572 0.93928 0.0
H672 H 0.56966 0.96504 0.51627 0.0
H673 H 0.54479 0.98505 0.5051 0.0
H674 H 0.50974 0.94949 0.56003 0.0
H675 H 0.53447 0.92939 0.57132 0.0
H676 H 0.49675 0.96471 0.49331 0.0
H677 H 0.52247 0.01447 0.58846 0.0
H678 H 0.53793 0.00602 0.55668 0.0
H679 H 0.52906 0.99149 0.58957 0.0
C680 C 0.55659 0.96129 0.5253 0.0
C681 C 0.554 0.9457 0.54479 0.0
C682 C 0.54247 0.97281 0.51922 0.0
C683 C 0.5256 0.96884 0.53243 0.0
C684 C 0.52274 0.95279 0.54997 0.0
H685 H 0.42385 0.02196 0.52528 0.0
H686 H 0.44868 0.00332 0.54372 0.0
C687 C 0.53686 0.94132 0.55623 0.0
C688 C 0.511 0.98165 0.52885 0.0
H689 H 0.49689 0.02232 0.55616 0.0
C690 C 0.4967 0.97727 0.5071 0.0
C691 C 0.51106 -0.00207 0.54718 0.0
C692 C 0.52586 0.0028 0.57203 0.0
C693 C 0.48255 0.98902 0.50246 0.0
C694 C 0.48266 0.00538 0.52054 0.0
C695 C 0.4969 0.00972 0.54252 0.0
C696 C 0.46838 0.01839 0.51533 0.0
C697 C 0.46775 0.98407 0.47766 0.0
C698 C 0.47151 0.03346 0.49482 0.0
C699 C 0.4574 0.04412 0.48424 0.0
C700 C 0.44 0.03984 0.49419 0.0
C701 C 0.43712 0.02556 0.51716 0.0
C702 C 0.45124 0.01486 0.5276 0.0
H703 H 0.4711 0.9723 0.46145 0.0
H704 H 0.45567 0.98099 0.49306 0.0
H705 H 0.46461 0.99529 0.45986 0.0
H706 H 0.4847 0.03637 0.48527 0.0
H707 H 0.46002 0.0551 0.46667 0.0
H708 H 0.52913 0.56804 0.98676 0.0
H709 H 0.51036 0.54242 0.97429 0.0
H710 H 0.539 0.51174 0.0511 0.0
H711 H 0.55778 0.5373 0.06396 0.0
H712 H 0.5172 0.50601 0.95514 0.0
H713 H 0.48704 0.51346 0.08773 0.0
H714 H 0.50043 0.53051 0.06779 0.0
H715 H 0.51073 0.5114 0.08699 0.0
C716 C 0.53175 0.55571 1.00034 0.0
C717 C 0.54479 0.55473 0.02662 0.0
C718 C 0.52097 0.54112 0.99329 0.0
C719 C 0.52307 0.52541 0.01244 0.0
C720 C 0.537 0.52392 0.03659 0.0
H721 H 0.46422 0.42722 0.01759 0.0
H722 H 0.48379 0.45209 0.03151 0.0
C723 C 0.5478 0.53849 0.04365 0.0
C724 C 0.50994 0.51106 0.00887 0.0
H725 H 0.47728 0.48923 0.05335 0.0
C726 C 0.50846 0.50232 0.97654 0.0
C727 C 0.49853 0.50643 0.03693 0.0
C728 C 0.49908 0.516 0.07176 0.0
C729 C 0.49598 0.48881 0.9716 0.0
C730 C 0.48456 0.48421 0.99962 0.0
C731 C 0.48608 0.49288 0.03201 0.0
C732 C 0.47106 0.47025 0.99556 0.0
C733 C 0.49525 0.47939 0.93663 0.0
C734 C 0.45693 0.47263 0.97219 0.0
C735 C 0.44568 0.45853 0.96435 0.0
C736 C 0.44845 0.44184 0.97977 0.0
C737 C 0.46178 0.43991 0.00528 0.0
C738 C 0.473 0.45407 0.01316 0.0
H739 H 0.50728 0.4819 0.92061 0.0
H740 H 0.49377 0.46488 0.94039 0.0
H741 H 0.4836 0.48416 0.92159 0.0
H742 H 0.4551 0.48516 0.95883 0.0
H743 H 0.43551 0.46044 0.94466 0.0
H744 H 0.92469 0.5274 0.4889 0.0
H745 H 0.94962 0.50821 0.47339 0.0
H746 H 0.98381 0.53843 0.54143 0.0
H747 H 0.95904 0.55766 0.55716 0.0
H748 H 0.98622 0.51553 0.44772 0.0
H749 H 0.98246 0.48645 0.58194 0.0
H750 H 0.96464 0.49921 0.56302 0.0
H751 H 0.98395 0.51018 0.57978 0.0
C752 C 0.93762 0.53025 0.49985 0.0
C753 C 0.93989 0.5439 0.52453 0.0
C754 C 0.9518 0.51925 0.49106 0.0
C755 C 0.96836 0.52175 0.5069 0.0
C756 C 0.971 0.53618 0.52942 0.0
H757 H 0.06684 0.46393 0.50935 0.0
H758 H 0.04181 0.48339 0.52265 0.0
C759 C 0.95686 0.5472 0.53818 0.0
C760 C 0.98251 0.50854 0.50202 0.0
H761 H 0.00584 0.47662 0.54547 0.0
C762 C 0.99051 0.50697 0.46897 0.0
C763 C 0.98794 0.49742 0.52994 0.0
C764 C 0.97925 0.49822 0.56564 0.0
C765 C 0.00416 0.49472 0.46323 0.0
C766 C 0.0096 0.4836 0.49116 0.0
C767 C 0.00156 0.48517 0.52419 0.0
C768 C 0.02385 0.47047 0.48656 0.0
C769 C 0.01292 0.49403 0.42759 0.0
C770 C 0.02168 0.4563 0.46319 0.0
C771 C 0.03588 0.44513 0.45568 0.0
C772 C 0.05246 0.44798 0.47148 0.0
C773 C 0.05423 0.46143 0.49675 0.0
C774 C 0.03999 0.47259 0.50427 0.0
H775 H 0.00993 0.50598 0.41161 0.0
H776 H 0.02751 0.4928 0.43026 0.0
H777 H 0.00804 0.48227 0.41306 0.0
H778 H 0.00918 0.45428 0.44983 0.0
H779 H 0.03409 0.43484 0.43619 0.0
H780 H 0.96711 0.926 0.99184 0.0
H781 H 0.98766 0.95026 0.97918 0.0
H782 H 0.95984 0.98372 0.05245 0.0
H783 H 0.93926 0.95961 0.06533 0.0
H784 H 0.98178 0.98743 0.95775 0.0
H785 H 0.01205 0.97957 0.09019 0.0
H786 H -0.00169 0.96274 0.07039 0.0
H787 H 0.98839 0.9821 0.08933 0.0
C788 C 0.96511 0.93865 0.00463 0.0
C789 C 0.95167 0.94088 0.02978 0.0
C790 C 0.9769 0.95244 0.99749 0.0
C791 C 0.97542 0.96856 0.0155 0.0
C792 C 0.96131 0.97122 0.03878 0.0
H793 H 0.0344 0.06594 0.01948 0.0
H794 H 0.01557 0.04064 0.03424 0.0
C795 C 0.9495 0.95748 0.04586 0.0
C796 C 0.98916 0.98226 0.01137 0.0
H797 H 0.02229 0.00355 0.05544 0.0
C798 C 0.9907 0.99093 0.97897 0.0
C799 C 0.00074 0.98668 0.03926 0.0
C800 C -4e-05 0.97723 0.07421 0.0
C801 C 0.00335 0.00427 0.9739 0.0
C802 C 0.01492 0.00871 1.00179 0.0
C803 C 0.01342 -0.0 0.03417 0.0
C804 C 0.02832 0.02276 0.99779 0.0
C805 C 0.00398 0.01382 0.93902 0.0
C806 C 0.04228 0.02068 0.97393 0.0
C807 C 0.0531 0.03504 0.96556 0.0
C808 C 0.05005 0.05168 0.98094 0.0
C809 C 0.03705 0.05329 0.00716 0.0
C810 C 0.02624 0.03889 0.01553 0.0
H811 H 0.99192 0.01135 0.92303 0.0
H812 H 0.00543 0.02831 0.94297 0.0
H813 H 0.01561 0.00914 0.92384 0.0
H814 H 0.04422 0.0082 0.96045 0.0
H815 H 0.06307 0.03337 0.94538 0.0
H816 H 0.08761 0.07371 0.31711 0.0
H817 H 0.09085 0.07935 0.25456 0.0
H818 H 0.12781 0.12146 0.27649 0.0
H819 H 0.125 0.11557 0.33967 0.0
H820 H 0.08379 0.10839 0.21629 0.0
H821 H 0.15526 0.09166 0.20623 0.0
H822 H 0.14228 0.08671 0.24481 0.0
H823 H 0.14997 0.10888 0.23702 0.0
C824 C 0.09641 0.08424 0.30883 0.0
C825 C 0.10612 0.09415 0.33351 0.0
C826 C 0.09825 0.08743 0.27294 0.0
C827 C 0.10978 0.10063 0.26075 0.0
C828 C 0.11914 0.11093 0.28526 0.0
H829 H 0.10007 0.12866 0.03813 0.0
H830 H 0.10372 0.1316 0.10187 0.0
C831 C 0.1174 0.10765 0.32136 0.0
C832 C 0.11167 0.10345 0.22231 0.0
H833 H 0.14095 0.10065 0.15405 0.0
C834 C 0.09631 0.10684 0.2027 0.0
C835 C 0.128 0.10122 0.20461 0.0
C836 C 0.14482 0.09677 0.22411 0.0
C837 C 0.0967 0.1076 0.16589 0.0
C838 C 0.11304 0.10549 0.14813 0.0
C839 C 0.12849 0.10245 0.16774 0.0
C840 C 0.114 0.10511 0.10916 0.0
C841 C 0.07941 0.1098 0.1464 0.0
C842 C 0.11976 0.08973 0.09181 0.0
C843 C 0.11803 0.0882 0.05532 0.0
C844 C 0.1104 0.10198 0.03571 0.0
C845 C 0.10582 0.11781 0.05282 0.0
C846 C 0.10779 0.11944 0.08917 0.0
H847 H 0.06783 0.10677 0.16336 0.0
H848 H 0.07814 0.12372 0.13743 0.0
H849 H 0.07889 0.10105 0.12298 0.0
H850 H 0.12467 0.07853 0.10669 0.0
H851 H 0.12153 0.07582 0.0428 0.0
H852 H 0.40199 0.0788 0.82881 0.0
H853 H 0.39457 0.08304 0.76697 0.0
H854 H 0.3755 0.1356 0.78961 0.0
H855 H 0.38291 0.13147 0.85191 0.0
H856 H 0.36128 0.09401 0.73155 0.0
H857 H 0.41748 0.14143 0.71706 0.0
H858 H 0.41601 0.12655 0.75409 0.0
H859 H 0.40136 0.14516 0.75114 0.0
C860 C 0.39589 0.09114 0.82083 0.0
C861 C 0.39313 0.10484 0.8452 0.0
C862 C 0.39166 0.09354 0.78549 0.0
C863 C 0.38471 0.1097 0.77375 0.0
C864 C 0.381 0.12309 0.79821 0.0
H865 H 0.38673 0.12737 0.54307 0.0
H866 H 0.38086 0.13437 0.60528 0.0
C867 C 0.38512 0.12065 0.83378 0.0
C868 C 0.38274 0.11265 0.73553 0.0
H869 H 0.4046 0.1305 0.66539 0.0
C870 C 0.37045 0.10232 0.71707 0.0
C871 C 0.39468 0.12358 0.71678 0.0
C872 C 0.40821 0.13481 0.73556 0.0
C873 C 0.37048 0.10182 0.68024 0.0
C874 C 0.38337 0.11162 0.66154 0.0
C875 C 0.39478 0.12298 0.67987 0.0
C876 C 0.38698 0.10802 0.624 0.0
C877 C 0.35725 0.09016 0.66165 0.0
C878 C 0.39292 0.09115 0.61431 0.0
C879 C 0.3964 0.08722 0.57928 0.0
C880 C 0.394 0.10007 0.55296 0.0
C881 C 0.38864 0.11721 0.56278 0.0
C882 C 0.38519 0.12118 0.59816 0.0
H883 H 0.34513 0.08825 0.67775 0.0
H884 H 0.35343 0.09583 0.63581 0.0
H885 H 0.36324 0.07694 0.65709 0.0
H886 H 0.39492 0.08098 0.634 0.0
H887 H 0.40108 0.07408 0.57292 0.0
H888 H 0.41088 0.41037 0.32291 0.0
H889 H 0.40691 0.40603 0.25992 0.0
H890 H 0.35415 0.3862 0.27787 0.0
H891 H 0.35807 0.39029 0.34137 0.0
H892 H 0.37324 0.36726 0.22581 0.0
H893 H 0.37537 0.43959 0.2025 0.0
H894 H 0.39427 0.43175 0.22646 0.0
H895 H 0.37258 0.43016 0.24575 0.0
C896 C 0.39848 0.40488 0.3136 0.0
C897 C 0.38472 0.40083 0.33714 0.0
C898 C 0.39621 0.40251 0.27755 0.0
C899 C 0.38008 0.39622 0.26424 0.0
C900 C 0.36663 0.39124 0.28768 0.0
H901 H 0.365 0.41267 0.03841 0.0
H902 H 0.35787 0.41088 0.10108 0.0
C903 C 0.36893 0.39353 0.32392 0.0
C904 C 0.37726 0.39549 0.22576 0.0
H905 H 0.37955 0.42109 0.15208 0.0
C906 C 0.37436 0.37904 0.20964 0.0
C907 C 0.37827 0.41093 0.2048 0.0
C908 C 0.3801 0.42913 0.22077 0.0
C909 C 0.37355 0.3775 0.17287 0.0
C910 C 0.37602 0.39278 0.15184 0.0
C911 C 0.37783 0.40934 0.16813 0.0
C912 C 0.37838 0.39183 0.11317 0.0
C913 C 0.37024 0.35951 0.15699 0.0
C914 C 0.39209 0.38154 0.09904 0.0
C915 C 0.39608 0.38243 0.0633 0.0
C916 C 0.38663 0.39385 0.04091 0.0
C917 C 0.37246 0.40367 0.05482 0.0
C918 C 0.36842 0.40271 0.09068 0.0
H919 H 0.36239 0.35102 0.17505 0.0
H920 H 0.36313 0.36054 0.13153 0.0
H921 H 0.38311 0.35283 0.15239 0.0
H922 H 0.40024 0.37335 0.11589 0.0
H923 H 0.4069 0.3745 0.05334 0.0
H924 H 0.10671 0.36126 0.53303 0.0
H925 H 0.10728 0.35408 0.59628 0.0
H926 H 0.07859 0.40214 0.61848 0.0
H927 H 0.0779 0.40921 0.55597 0.0
H928 H 0.12204 0.3775 0.65173 0.0
H929 H 0.05095 0.36235 0.671 0.0
H930 H 0.06157 0.36134 0.62848 0.0
H931 H 0.05476 0.38229 0.6464 0.0
C932 C 0.10034 0.37009 0.55151 0.0
C933 C 0.09236 0.38582 0.53973 0.0
C934 C 0.10075 0.36605 0.58749 0.0
C935 C 0.09287 0.37754 0.61192 0.0
C936 C 0.08459 0.39302 0.60001 0.0
H937 H 0.07726 0.40715 0.82038 0.0
H938 H 0.08073 0.40259 0.75741 0.0
C939 C 0.08433 0.39712 0.56433 0.0
C940 C 0.09376 0.3741 0.65016 0.0
H941 H 0.06724 0.37108 0.72242 0.0
C942 C 0.11016 0.37565 0.66728 0.0
C943 C 0.07822 0.37167 0.67023 0.0
C944 C 0.06039 0.36914 0.6531 0.0
C945 C 0.11121 0.37611 0.70417 0.0
C946 C 0.09549 0.37484 0.72415 0.0
C947 C 0.07927 0.37219 0.70698 0.0
C948 C 0.09519 0.37802 0.76252 0.0
C949 C 0.12891 0.37906 0.72154 0.0
C950 C 0.10251 0.36586 0.78632 0.0
C951 C 0.10059 0.36845 0.82261 0.0
C952 C 0.09122 0.38319 0.8355 0.0
C953 C 0.0845 0.39562 0.81144 0.0
C954 C 0.08643 0.39304 0.77539 0.0
H955 H 0.13958 0.38168 0.70213 0.0
H956 H 0.12813 0.39041 0.74003 0.0
H957 H 0.13255 0.36715 0.73699 0.0
H958 H 0.10917 0.3541 0.77685 0.0
H959 H 0.10583 0.35857 0.84043 0.0
H960 H 0.62811 0.87356 0.67096 0.0
H961 H 0.63025 0.8667 0.7339 0.0
H962 H 0.58719 0.90263 0.75501 0.0
H963 H 0.58465 0.90917 0.69274 0.0
H964 H 0.63785 0.88876 0.7882 0.0
H965 H 0.57166 0.85978 0.80938 0.0
H966 H 0.58075 0.86307 0.76602 0.0
H967 H 0.56992 0.88101 0.78866 0.0
C968 C 0.6189 0.87974 0.68897 0.0
C969 C 0.60613 0.89182 0.67669 0.0
C970 C 0.62019 0.87587 0.72494 0.0
C971 C 0.60869 0.88393 0.74915 0.0
C972 C 0.5959 0.89587 0.73683 0.0
H973 H 0.61829 0.91315 0.96456 0.0
H974 H 0.62279 0.90896 0.90144 0.0
C975 C 0.59454 0.89967 0.70107 0.0
C976 C 0.61047 0.88078 0.78754 0.0
H977 H 0.58599 0.87192 0.86073 0.0
C978 C 0.62661 0.88476 0.80407 0.0
C979 C 0.59594 0.87522 0.80825 0.0
C980 C 0.57867 0.86934 0.79208 0.0
C981 C 0.6283 0.88432 0.84087 0.0
C982 C 0.61331 0.88024 0.8617 0.0
C983 C 0.59747 0.87529 0.84498 0.0
C984 C 0.61325 0.88189 0.90071 0.0
C985 C 0.64612 0.88829 0.85692 0.0
C986 C 0.60639 0.86814 0.92155 0.0
C987 C 0.60349 0.8707 0.95745 0.0
C988 C 0.60757 0.88697 0.97337 0.0
C989 C 0.61535 0.90038 0.95303 0.0
C990 C 0.61798 0.89794 0.91694 0.0
H991 H 0.65702 0.88458 0.83876 0.0
H992 H 0.64717 0.90273 0.86189 0.0
H993 H 0.648 0.88115 0.88215 0.0
H994 H 0.60261 0.85565 0.90976 0.0
H995 H 0.59746 0.86019 0.97266 0.0
H996 H 0.59712 0.63993 0.16215 0.0
H997 H 0.60344 0.64188 0.22537 0.0
H998 H 0.58473 0.58841 0.2393 0.0
H999 H 0.57836 0.58633 0.17663 0.0
H1000 H 0.57728 0.63646 0.28093 0.0
H1001 H 0.63348 0.58957 0.28999 0.0
H1002 H 0.62697 0.59998 0.24923 0.0
H1003 H 0.615 0.5811 0.2655 0.0
C1004 C 0.5946 0.62851 0.17863 0.0
C1005 C 0.58727 0.61296 0.16438 0.0
C1006 C 0.59816 0.62968 0.2147 0.0
C1007 C 0.59473 0.61522 0.23684 0.0
C1008 C 0.58773 0.59962 0.22254 0.0
H1009 H 0.58482 0.57928 0.44402 0.0
H1010 H 0.58664 0.58542 0.38134 0.0
C1011 C 0.58403 0.59849 0.18671 0.0
C1012 C 0.5974 0.6165 0.27529 0.0
H1013 H 0.61785 0.59558 0.34356 0.0
C1014 C 0.58641 0.62783 0.29473 0.0
C1015 C 0.60935 0.60523 0.29305 0.0
C1016 C 0.622 0.59339 0.27339 0.0
C1017 C 0.58622 0.62731 0.33165 0.0
C1018 C 0.5975 0.61532 0.34936 0.0
C1019 C 0.60916 0.6047 0.32988 0.0
C1020 C 0.59619 0.61222 0.3877 0.0
C1021 C 0.57326 0.63879 0.35139 0.0
C1022 C 0.60089 0.62532 0.41214 0.0
C1023 C 0.59996 0.6218 0.44826 0.0
C1024 C 0.59443 0.60509 0.46041 0.0
C1025 C 0.58951 0.59215 0.4357 0.0
C1026 C 0.59044 0.59567 0.39979 0.0
H1027 H 0.56372 0.64546 0.33356 0.0
H1028 H 0.56575 0.63075 0.37077 0.0
H1029 H 0.58062 0.64913 0.3661 0.0
H1030 H 0.60555 0.63813 0.40329 0.0
H1031 H 0.60396 0.63198 0.46664 0.0
H1032 H 0.89929 0.62426 0.96133 0.0
H1033 H 0.89457 0.62756 0.89801 0.0
H1034 H 0.87213 0.57503 0.89412 0.0
H1035 H 0.87627 0.57205 0.95764 0.0
H1036 H 0.91032 0.60931 0.85003 0.0
H1037 H 0.83849 0.6001 0.83075 0.0
H1038 H 0.84802 0.60395 0.87357 0.0
H1039 H 0.84769 0.58199 0.85504 0.0
C1040 C 0.89297 0.61362 0.94696 0.0
C1041 C 0.8881 0.59793 0.96425 0.0
C1042 C 0.89028 0.61549 0.91084 0.0
C1043 C 0.88282 0.60162 0.8912 0.0
C1044 C 0.87743 0.58613 0.90871 0.0
H1045 H 0.90802 0.5717 0.68195 0.0
H1046 H 0.90628 0.57792 0.74451 0.0
C1047 C 0.87987 0.58438 0.945 0.0
C1048 C 0.88259 0.60257 0.85217 0.0
H1049 H 0.85696 0.5947 0.77989 0.0
C1050 C 0.89854 0.6064 0.83477 0.0
C1051 C 0.86722 0.59907 0.83205 0.0
C1052 C 0.84936 0.59625 0.84886 0.0
C1053 C 0.89975 0.60602 0.79802 0.0
C1054 C 0.88473 0.60114 0.77804 0.0
C1055 C 0.86855 0.59818 0.79524 0.0
C1056 C 0.88589 0.5979 0.73965 0.0
C1057 C 0.91717 0.61077 0.78103 0.0
C1058 C 0.87467 0.60675 0.71601 0.0
C1059 C 0.87549 0.60306 0.67996 0.0
C1060 C 0.88751 0.59043 0.66701 0.0
C1061 C 0.89875 0.58167 0.69084 0.0
C1062 C 0.89784 0.58527 0.72672 0.0
H1063 H 0.92498 0.61988 0.79791 0.0
H1064 H 0.92511 0.59855 0.77729 0.0
H1065 H 0.91518 0.61712 0.75502 0.0
H1066 H 0.86526 0.61645 0.72547 0.0
H1067 H 0.86659 0.60996 0.66234 0.0
H1068 H 0.8911 0.85972 0.16211 0.0
H1069 H 0.88633 0.85711 0.22562 0.0
H1070 H 0.90606 0.9102 0.24009 0.0
H1071 H 0.91115 0.91281 0.17706 0.0
H1072 H 0.92267 0.88573 0.28215 0.0
H1073 H 0.84952 0.879 0.29168 0.0
H1074 H 0.86037 0.86376 0.2625 0.0
H1075 H 0.86041 0.88699 0.25253 0.0
C1076 C 0.89408 0.87096 0.17877 0.0
C1077 C 0.90154 0.88646 0.16457 0.0
C1078 C 0.89132 0.86945 0.21505 0.0
C1079 C 0.89577 0.88349 0.23755 0.0
C1080 C 0.90257 0.89919 0.2232 0.0
H1081 H 0.87498 0.9117 0.44893 0.0
H1082 H 0.87468 0.9057 0.386 0.0
C1083 C 0.90543 0.90067 0.18713 0.0
C1084 C 0.89464 0.88162 0.27626 0.0
H1085 H 0.86572 0.87702 0.34461 0.0
C1086 C 0.91024 0.88369 0.29584 0.0
C1087 C 0.87839 0.87898 0.29395 0.0
C1088 C 0.86117 0.87718 0.27421 0.0
C1089 C 0.91001 0.8838 0.33267 0.0
C1090 C 0.89375 0.88131 0.35046 0.0
C1091 C 0.87819 0.87874 0.33088 0.0
C1092 C 0.89242 0.88328 0.38913 0.0
C1093 C 0.92705 0.88746 0.35212 0.0
C1094 C 0.90206 0.87231 0.412 0.0
C1095 C 0.90248 0.87589 0.44809 0.0
C1096 C 0.89317 0.89045 0.46186 0.0
C1097 C 0.88266 0.90068 0.43907 0.0
C1098 C 0.88232 0.89715 0.40311 0.0
H1099 H 0.93752 0.89272 0.33446 0.0
H1100 H 0.92487 0.89715 0.37364 0.0
H1101 H 0.932 0.87498 0.36394 0.0
H1102 H 0.90968 0.86131 0.4018 0.0
H1103 H 0.91065 0.86772 0.46488 0.0
H1104 H 0.86345 0.88972 0.9667 0.0
H1105 H 0.85694 0.88697 0.9035 0.0
H1106 H 0.90893 0.90704 0.8791 0.0
H1107 H 0.91535 0.91011 0.94144 0.0
H1108 H 0.85928 0.91418 0.84752 0.0
H1109 H 0.90564 0.85827 0.82768 0.0
H1110 H 0.89711 0.86429 0.87041 0.0
H1111 H 0.91523 0.87643 0.85144 0.0
C1112 C 0.87338 0.8937 0.94777 0.0
C1113 C 0.89003 0.8998 0.95907 0.0
C1114 C 0.86969 0.89204 0.91179 0.0
C1115 C 0.88264 0.8964 0.88679 0.0
C1116 C 0.89895 0.90317 0.89804 0.0
H1117 H 0.90943 0.91479 0.67856 0.0
H1118 H 0.90612 0.90864 0.74112 0.0
C1119 C 0.90261 0.90485 0.93373 0.0
C1120 C 0.87947 0.89411 0.84871 0.0
H1121 H 0.89778 0.87495 0.77613 0.0
C1122 C 0.86733 0.9053 0.83185 0.0
C1123 C 0.88998 0.88245 0.82849 0.0
C1124 C 0.90261 0.86954 0.84543 0.0
C1125 C 0.86641 0.90607 0.79499 0.0
C1126 C 0.87779 0.89523 0.77479 0.0
C1127 C 0.88912 0.88327 0.79174 0.0
C1128 C 0.87977 0.8977 0.73643 0.0
C1129 C 0.85414 0.91925 0.77785 0.0
C1130 C 0.86615 0.8932 0.713 0.0
C1131 C 0.86803 0.89663 0.67701 0.0
C1132 C 0.88352 0.90467 0.66407 0.0
C1133 C 0.8973 0.90864 0.68763 0.0
C1134 C 0.89545 0.90513 0.7234 0.0
H1135 H 0.8475 0.92794 0.79735 0.0
H1136 H 0.86159 0.92766 0.75902 0.0
H1137 H 0.8438 0.91207 0.76282 0.0
H1138 H 0.85402 0.88728 0.7226 0.0
H1139 H 0.85717 0.89344 0.65955 0.0
H1140 H 0.58656 0.91233 0.45281 0.0
H1141 H 0.58744 0.90664 0.39003 0.0
H1142 H 0.59772 0.85141 0.40968 0.0
H1143 H 0.59739 0.85707 0.47332 0.0
H1144 H 0.61794 0.88921 0.35103 0.0
H1145 H 0.55253 0.85532 0.34131 0.0
H1146 H 0.55765 0.87011 0.37719 0.0
H1147 H 0.56783 0.84872 0.37524 0.0
C1148 C 0.58929 0.89898 0.44412 0.0
C1149 C 0.59215 0.88519 0.46838 0.0
C1150 C 0.58966 0.89575 0.40806 0.0
C1151 C 0.59269 0.87865 0.39527 0.0
C1152 C 0.59531 0.86472 0.41913 0.0
H1153 H 0.60647 0.8627 0.16627 0.0
H1154 H 0.61065 0.85914 0.22992 0.0
C1155 C 0.59503 0.86796 0.45544 0.0
C1156 C 0.59301 0.87573 0.35679 0.0
H1157 H 0.56709 0.86214 0.28843 0.0
C1158 C 0.60701 0.88298 0.33727 0.0
C1159 C 0.57865 0.86774 0.33909 0.0
C1160 C 0.56321 0.86003 0.35905 0.0
C1161 C 0.60673 0.88299 0.30035 0.0
C1162 C 0.59207 0.87554 0.28264 0.0
C1163 C 0.57835 0.86775 0.30217 0.0
C1164 C 0.58981 0.87742 0.24414 0.0
C1165 C 0.62162 0.89176 0.28048 0.0
C1166 C 0.57673 0.88883 0.2312 0.0
C1167 C 0.57438 0.89097 0.19508 0.0
C1168 C 0.58499 0.88161 0.17101 0.0
C1169 C 0.59812 0.87014 0.18406 0.0
C1170 C 0.60053 0.86809 0.22038 0.0
H1171 H 0.63114 0.89851 0.29825 0.0
H1172 H 0.62892 0.88163 0.26511 0.0
H1173 H 0.61624 0.90161 0.26164 0.0
H1174 H 0.56835 0.89617 0.24913 0.0
H1175 H 0.56408 0.89986 0.1861 0.0
H1176 H 0.58449 0.62412 0.95114 0.0
H1177 H 0.59085 0.62457 0.88833 0.0
H1178 H 0.6335 0.58747 0.90411 0.0
H1179 H 0.62672 0.58643 0.96709 0.0
H1180 H 0.62 0.63216 0.84693 0.0
H1181 H 0.60065 0.56124 0.83682 0.0
H1182 H 0.59685 0.5741 0.87599 0.0
H1183 H 0.61864 0.56591 0.86624 0.0
C1184 C 0.59525 0.61607 0.94129 0.0
C1185 C 0.60483 0.60492 0.96399 0.0
C1186 C 0.59898 0.61648 0.90542 0.0
C1187 C 0.61241 0.60579 0.89145 0.0
C1188 C 0.62285 0.59557 0.9143 0.0
H1189 H 0.63515 0.60582 0.66412 0.0
H1190 H 0.63821 0.61067 0.72751 0.0
C1191 C 0.61906 0.5951 0.95032 0.0
C1192 C 0.61428 0.60439 0.85277 0.0
H1193 H 0.60802 0.57581 0.78446 0.0
C1194 C 0.61758 0.61982 0.83319 0.0
C1195 C 0.61087 0.5883 0.83498 0.0
C1196 C 0.6064 0.57145 0.85445 0.0
C1197 C 0.61714 0.61967 0.79626 0.0
C1198 C 0.61355 0.60361 0.77857 0.0
C1199 C 0.61077 0.5881 0.79815 0.0
C1200 C 0.61143 0.6026 0.7399 0.0
C1201 C 0.61974 0.6368 0.77654 0.0
C1202 C 0.59535 0.5966 0.72583 0.0
C1203 C 0.59361 0.59369 0.68981 0.0
C1204 C 0.60794 0.59675 0.66704 0.0
C1205 C 0.62382 0.6035 0.68094 0.0
C1206 C 0.62559 0.6063 0.71715 0.0
H1207 H 0.61862 0.64851 0.79408 0.0
H1208 H 0.63314 0.6369 0.76458 0.0
H1209 H 0.60989 0.63809 0.75504 0.0
H1210 H 0.58424 0.5937 0.74291 0.0
H1211 H 0.58118 0.58852 0.67997 0.0
H1212 H 0.91054 0.5796 0.17873 0.0
H1213 H 0.90575 0.58295 0.24173 0.0
H1214 H 0.88522 0.63556 0.22484 0.0
H1215 H 0.88959 0.63211 0.16137 0.0
H1216 H 0.92215 0.60728 0.28229 0.0
H1217 H 0.84922 0.61515 0.29306 0.0
H1218 H 0.8598 0.60704 0.2537 0.0
H1219 H 0.85993 0.6303 0.26352 0.0
C1220 C 0.90469 0.59177 0.18831 0.0
C1221 C 0.90043 0.60559 0.16507 0.0
C1222 C 0.902 0.59369 0.22436 0.0
C1223 C 0.89508 0.60948 0.23804 0.0
C1224 C 0.89028 0.62314 0.21485 0.0
H1225 H 0.91213 0.627 0.46447 0.0
H1226 H 0.91094 0.63295 0.40122 0.0
C1227 C 0.89281 0.62115 0.17858 0.0
C1228 C 0.89418 0.61187 0.27672 0.0
H1229 H 0.86578 0.61806 0.34544 0.0
C1230 C 0.90984 0.60974 0.29611 0.0
C1231 C 0.87809 0.61507 0.29464 0.0
C1232 C 0.86076 0.61689 0.27528 0.0
C1233 C 0.90981 0.6101 0.33295 0.0
C1234 C 0.89372 0.61321 0.35097 0.0
C1235 C 0.87812 0.61587 0.33156 0.0
C1236 C 0.89254 0.61174 0.3898 0.0
C1237 C 0.92688 0.60622 0.35216 0.0
C1238 C 0.88181 0.59856 0.40463 0.0
C1239 C 0.88223 0.59535 0.44071 0.0
C1240 C 0.89348 0.60517 0.46281 0.0
C1241 C 0.9034 0.61913 0.44824 0.0
C1242 C 0.90286 0.62243 0.41202 0.0
H1243 H 0.93702 0.60033 0.33457 0.0
H1244 H 0.93234 0.61873 0.3629 0.0
H1245 H 0.92457 0.59699 0.37441 0.0
H1246 H 0.87361 0.59025 0.38808 0.0
H1247 H 0.87406 0.58483 0.45117 0.0
H1248 H 0.38172 0.0706 0.05527 0.0
H1249 H 0.37883 0.07329 0.11906 0.0
H1250 H 0.40777 0.12255 0.11609 0.0
H1251 H 0.41117 0.11953 0.05238 0.0
H1252 H 0.42041 0.10262 0.16531 0.0
H1253 H 0.34773 0.10267 0.18007 0.0
H1254 H 0.3549 0.0835 0.15632 0.0
H1255 H 0.35834 0.10522 0.13789 0.0
C1256 C 0.3872 0.08213 0.06821 0.0
C1257 C 0.39666 0.09486 0.04895 0.0
C1258 C 0.38546 0.08373 0.10466 0.0
C1259 C 0.39277 0.09831 0.12242 0.0
C1260 C 0.40195 0.11121 0.10303 0.0
H1261 H 0.3732 0.10864 0.34988 0.0
H1262 H 0.37394 0.11528 0.28674 0.0
C1263 C 0.40392 0.10947 0.06669 0.0
C1264 C 0.39212 0.09936 0.16142 0.0
H1265 H 0.36451 0.09509 0.232 0.0
C1266 C 0.40813 0.10124 0.17982 0.0
C1267 C 0.3761 0.09795 0.18056 0.0
C1268 C 0.3583 0.09743 0.16264 0.0
C1269 C 0.40866 0.1009 0.21665 0.0
C1270 C 0.39283 0.09801 0.23568 0.0
C1271 C 0.3767 0.09703 0.21742 0.0
C1272 C 0.3929 0.09475 0.27416 0.0
C1273 C 0.42625 0.10359 0.23472 0.0
C1274 C 0.40318 0.08095 0.28801 0.0
C1275 C 0.40294 0.07728 0.32389 0.0
C1276 C 0.39213 0.08711 0.34682 0.0
C1277 C 0.38173 0.10089 0.33297 0.0
C1278 C 0.38211 0.10467 0.29691 0.0
H1279 H 0.43529 0.11178 0.21841 0.0
H1280 H 0.42462 0.11008 0.26069 0.0
H1281 H 0.43269 0.09054 0.23873 0.0
H1282 H 0.41117 0.07274 0.27092 0.0
H1283 H 0.41094 0.0664 0.33347 0.0
H1284 H 0.41702 0.4111 0.8249 0.0
H1285 H 0.4137 0.40717 0.7617 0.0
H1286 H 0.3871 0.3574 0.77883 0.0
H1287 H 0.39029 0.36123 0.84255 0.0
H1288 H 0.42833 0.37669 0.72529 0.0
H1289 H 0.35561 0.3845 0.70555 0.0
H1290 H 0.36676 0.39316 0.74388 0.0
H1291 H 0.36313 0.3698 0.73969 0.0
C1292 C 0.41021 0.39942 0.81539 0.0
C1293 C 0.40397 0.38644 0.83882 0.0
C1294 C 0.40836 0.3972 0.77922 0.0
C1295 C 0.40016 0.38202 0.76567 0.0
C1296 C 0.39332 0.3693 0.78886 0.0
H1297 H 0.38865 0.36419 0.53694 0.0
H1298 H 0.38842 0.35772 0.60043 0.0
C1299 C 0.39516 0.37151 0.82523 0.0
C1300 C 0.39995 0.37923 0.7272 0.0
H1301 H 0.37317 0.38078 0.655 0.0
C1302 C 0.41625 0.37734 0.70992 0.0
C1303 C 0.38415 0.37988 0.70735 0.0
C1304 C 0.36637 0.38202 0.72484 0.0
C1305 C 0.41725 0.37688 0.67318 0.0
C1306 C 0.40157 0.3786 0.65324 0.0
C1307 C 0.38516 0.37948 0.67046 0.0
C1308 C 0.4022 0.38175 0.6149 0.0
C1309 C 0.43513 0.37506 0.65593 0.0
C1310 C 0.40998 0.39735 0.60227 0.0
C1311 C 0.41007 0.40105 0.56641 0.0
C1312 C 0.40234 0.38923 0.54238 0.0
C1313 C 0.3948 0.37343 0.55495 0.0
C1314 C 0.39458 0.36978 0.59107 0.0
H1315 H 0.44488 0.36871 0.67382 0.0
H1316 H 0.43423 0.36715 0.6314 0.0
H1317 H 0.4402 0.38841 0.64906 0.0
H1318 H 0.41576 0.40684 0.62028 0.0
H1319 H 0.41618 0.4132 0.55748 0.0
H1320 H 0.09564 0.36521 0.04073 0.0
H1321 H 0.10014 0.36287 0.10435 0.0
H1322 H 0.12256 0.41541 0.10554 0.0
H1323 H 0.11867 0.41744 0.04169 0.0
H1324 H 0.13918 0.39392 0.15211 0.0
H1325 H 0.06636 0.3883 0.16834 0.0
H1326 H 0.07581 0.37089 0.14241 0.0
H1327 H 0.07649 0.39336 0.12668 0.0
C1328 C 0.10182 0.37609 0.05462 0.0
C1329 C 0.10668 0.39155 0.03651 0.0
C1330 C 0.10428 0.37481 0.0909 0.0
C1331 C 0.11121 0.38916 0.10986 0.0
C1332 C 0.11709 0.4042 0.09149 0.0
H1333 H 0.08879 0.42118 0.31923 0.0
H1334 H 0.091 0.41546 0.25658 0.0
C1335 C 0.11491 0.40535 0.05504 0.0
C1336 C 0.11114 0.3891 0.14889 0.0
H1337 H 0.08355 0.38658 0.21977 0.0
C1338 C 0.12705 0.39223 0.16698 0.0
C1339 C 0.09523 0.38712 0.16822 0.0
C1340 C 0.07748 0.3849 0.15047 0.0
C1341 C 0.12743 0.39373 0.20381 0.0
C1342 C 0.11154 0.39159 0.22308 0.0
C1343 C 0.09574 0.38806 0.20499 0.0
C1344 C 0.11053 0.39464 0.26158 0.0
C1345 C 0.14469 0.39836 0.22155 0.0
C1346 C 0.12065 0.38471 0.28549 0.0
C1347 C 0.11954 0.38809 0.32166 0.0
C1348 C 0.10808 0.40126 0.33447 0.0
C1349 C 0.0977 0.41087 0.31042 0.0
C1350 C 0.09896 0.40763 0.27447 0.0
H1351 H 0.1546 0.40355 0.20259 0.0
H1352 H 0.14262 0.40842 0.24243 0.0
H1353 H 0.15029 0.3863 0.23393 0.0
H1354 H 0.12937 0.37434 0.27624 0.0
H1355 H 0.12765 0.38042 0.33952 0.0
H1356 H 0.12507 0.09669 0.54098 0.0
H1357 H 0.12679 0.10011 0.6049 0.0
H1358 H 0.0744 0.1228 0.6056 0.0
H1359 H 0.07286 0.1198 0.5415 0.0
H1360 H 0.09648 0.1388 0.65377 0.0
H1361 H 0.0997 0.06563 0.66614 0.0
H1362 H 0.11735 0.07495 0.64059 0.0
H1363 H 0.09491 0.07652 0.62507 0.0
C1364 C 0.11406 0.10267 0.55481 0.0
C1365 C 0.09878 0.10783 0.53642 0.0
C1366 C 0.11501 0.10453 0.59127 0.0
C1367 C 0.10054 0.11127 0.61012 0.0
C1368 C 0.08569 0.11747 0.59159 0.0
H1369 H 0.06936 0.08786 0.82101 0.0
H1370 H 0.07389 0.09049 0.75795 0.0
C1371 C 0.08483 0.11581 0.55499 0.0
C1372 C 0.10033 0.11067 0.64912 0.0
H1373 H 0.10204 0.08208 0.71856 0.0
C1374 C 0.09776 0.12643 0.66801 0.0
C1375 C 0.10175 0.09445 0.6676 0.0
C1376 C 0.10341 0.0769 0.64887 0.0
C1377 C 0.09647 0.12639 0.70489 0.0
C1378 C 0.09817 0.1102 0.72334 0.0
C1379 C 0.10092 0.0945 0.70441 0.0
C1380 C 0.09576 0.1089 0.76199 0.0
C1381 C 0.09264 0.14358 0.7236 0.0
C1382 C 0.1067 0.11822 0.78544 0.0
C1383 C 0.10407 0.11683 0.82181 0.0
C1384 C 0.09057 0.10593 0.83529 0.0
C1385 C 0.07991 0.09635 0.81166 0.0
C1386 C 0.08247 0.09785 0.7755 0.0
H1387 H 0.08759 0.15387 0.70532 0.0
H1388 H 0.08278 0.14159 0.74487 0.0
H1389 H 0.10503 0.14862 0.73565 0.0
H1390 H 0.11731 0.12651 0.77566 0.0
H1391 H 0.11255 0.12431 0.83929 0.0
H1392 H 0.96354 0.93029 0.19536 0.0
H1393 H 0.97984 0.95092 0.23332 0.0
H1394 H 0.02167 0.9538 0.15628 0.0
H1395 H 0.00561 0.93299 0.11887 0.0
H1396 H 0.03413 0.94629 0.22062 0.0
H1397 H 0.98879 0.00386 0.22816 0.0
H1398 H 0.97842 0.98328 0.23977 0.0
H1399 H 0.98634 0.9866 0.19568 0.0
C1400 C 0.97611 0.93554 0.18651 0.0
C1401 C 0.98347 0.9299 0.15456 0.0
C1402 C 0.98535 0.94739 0.20801 0.0
C1403 C 0.0019 0.95401 0.19747 0.0
C1404 C 0.00894 0.94882 0.16496 0.0
H1405 H 0.06598 0.03361 0.30497 0.0
H1406 H 0.04684 0.01796 0.26303 0.0
C1407 C -0.00016 0.93685 0.14374 0.0
C1408 C 0.01267 0.96506 0.22147 0.0
H1409 H 0.01267 0.00327 0.26944 0.0
C1410 C 0.02947 0.95881 0.23108 0.0
C1411 C 0.00665 0.98148 0.23477 0.0
C1412 C 0.98914 0.98931 0.22382 0.0
C1413 C 0.04031 0.96834 0.25415 0.0
C1414 C 0.03399 0.98435 0.26871 0.0
C1415 C 0.01737 0.99086 0.25852 0.0
C1416 C 0.04449 0.99433 0.29486 0.0
C1417 C 0.05852 0.96123 0.26244 0.0
C1418 C 0.04908 0.98637 0.32688 0.0
C1419 C 0.06005 0.99519 0.35057 0.0
C1420 C 0.06645 0.01222 0.34288 0.0
C1421 C 0.06123 0.02049 0.31146 0.0
C1422 C 0.05034 0.01158 0.28756 0.0
H1423 H 0.06316 0.95181 0.24201 0.0
H1424 H 0.06833 0.97212 0.26474 0.0
H1425 H 0.05808 0.95404 0.28786 0.0
H1426 H 0.04432 0.97324 0.33337 0.0
H1427 H 0.06346 0.9887 0.37501 0.0
H1428 H 0.55628 0.95377 0.69838 0.0
H1429 H 0.53309 0.97012 0.72963 0.0
H1430 H 0.54756 0.01768 0.67383 0.0
H1431 H 0.57007 0.00141 0.64168 0.0
H1432 H 0.53695 -0.00193 0.77324 0.0
H1433 H 0.49467 0.01773 0.66133 0.0
H1434 H 0.51169 0.00108 0.65737 0.0
H1435 H 0.51722 0.02424 0.65447 0.0
C1436 C 0.55434 0.96765 0.69247 0.0
C1437 C 0.56511 0.97628 0.66765 0.0
C1438 C 0.54113 0.97697 0.71038 0.0
C1439 C 0.53839 0.99503 0.70356 0.0
C1440 C 0.54915 0.00366 0.67891 0.0
H1441 H 0.49209 0.0856 0.79776 0.0
H1442 H 0.50729 0.06347 0.76157 0.0
C1443 C 0.56228 0.99438 0.66098 0.0
C1444 C 0.52513 0.00527 0.72376 0.0
H1445 H 0.49144 0.03505 0.71445 0.0
C1446 C 0.52677 0.00589 0.76047 0.0
C1447 C 0.51182 0.01542 0.70701 0.0
C1448 C 0.50862 0.01444 0.66791 0.0
C1449 C 0.51609 0.01713 0.78073 0.0
C1450 C 0.50342 0.02791 0.76376 0.0
C1451 C 0.50128 0.02682 0.72724 0.0
C1452 C 0.49308 0.04118 0.78344 0.0
C1453 C 0.51892 0.018 0.81996 0.0
C1454 C 0.47985 0.03592 0.80705 0.0
C1455 C 0.47115 0.04851 0.82764 0.0
C1456 C 0.47562 0.06655 0.82499 0.0
C1457 C 0.48852 0.07179 0.8005 0.0
C1458 C 0.49712 0.05921 0.77977 0.0
H1459 H 0.5308 0.01047 0.82842 0.0
H1460 H 0.52037 0.03198 0.82855 0.0
H1461 H 0.50719 0.0124 0.83356 0.0
H1462 H 0.47655 0.02204 0.81008 0.0
H1463 H 0.46144 0.04405 0.84659 0.0
H1464 H 0.40665 0.50094 0.32153 0.0
H1465 H 0.42636 0.51623 0.28065 0.0
H1466 H 0.46626 0.47628 0.2971 0.0
H1467 H 0.44667 0.46096 0.33835 0.0
H1468 H 0.46046 0.52933 0.29916 0.0
H1469 H 0.46301 0.48127 0.18844 0.0
H1470 H 0.44574 0.48084 0.22127 0.0
H1471 H 0.46739 0.47256 0.23158 0.0
C1472 C 0.41959 0.49536 0.31637 0.0
C1473 C 0.42511 0.47977 0.33327 0.0
C1474 C 0.43079 0.50407 0.29292 0.0
C1475 C 0.44769 0.49731 0.28576 0.0
C1476 C 0.45314 0.48153 0.30189 0.0
H1477 H 0.52946 0.56379 0.18837 0.0
H1478 H 0.51461 0.54264 0.22751 0.0
C1479 C 0.44192 0.47279 0.32539 0.0
C1480 C 0.45987 0.50745 0.26299 0.0
H1481 H 0.4808 0.50687 0.18352 0.0
C1482 C 0.46502 0.52441 0.27396 0.0
C1483 C 0.46569 0.50093 0.23017 0.0
C1484 C 0.46012 0.48296 0.21687 0.0
C1485 C 0.4756 0.53522 0.25265 0.0
C1486 C 0.48138 0.52876 0.21974 0.0
C1487 C 0.47646 0.51168 0.20896 0.0
C1488 C 0.49125 0.54015 0.19496 0.0
C1489 C 0.47994 0.55373 0.26493 0.0
C1490 C 0.48326 0.54523 0.1633 0.0
C1491 C 0.49169 0.5572 0.141 0.0
C1492 C 0.50832 0.56426 0.14989 0.0
C1493 C 0.51664 0.5586 0.18096 0.0
C1494 C 0.50814 0.54662 0.20337 0.0
H1495 H 0.47167 0.5578 0.28768 0.0
H1496 H 0.49402 0.55429 0.27311 0.0
H1497 H 0.478 0.56343 0.24335 0.0
H1498 H 0.47028 0.54026 0.15626 0.0
H1499 H 0.48516 0.56096 0.11682 0.0
H1500 H 0.93108 0.48555 0.62418 0.0
H1501 H 0.95094 0.47022 0.66458 0.0
H1502 H 0.95215 0.51626 0.73154 0.0
H1503 H 0.93184 0.53161 0.69141 0.0
H1504 H 0.98535 0.47975 0.68929 0.0
H1505 H 0.93524 0.47539 0.79627 0.0
H1506 H 0.92939 0.48087 0.75159 0.0
H1507 H 0.93969 0.49715 0.77922 0.0
C1508 C 0.93543 0.49238 0.64763 0.0
C1509 C 0.92967 0.50968 0.65497 0.0
C1510 C 0.94692 0.48367 0.67048 0.0
C1511 C 0.95281 0.49205 0.70118 0.0
C1512 C 0.94754 0.50952 0.70814 0.0
H1513 H 0.03139 0.44542 0.84329 0.0
H1514 H 0.01628 0.46553 0.80278 0.0
C1515 C 0.93606 0.51829 0.68516 0.0
C1516 C 0.96393 0.4821 0.72629 0.0
H1517 H 0.9631 0.46261 0.80714 0.0
C1518 C 0.98061 0.47612 0.71521 0.0
C1519 C 0.95753 0.47727 0.75985 0.0
C1520 C 0.93944 0.48286 0.77252 0.0
C1521 C 0.99099 0.46518 0.73673 0.0
C1522 C 0.98453 0.46026 0.77018 0.0
C1523 C 0.96799 0.46649 0.78147 0.0
C1524 C 0.99424 0.44789 0.79324 0.0
C1525 C 0.00849 0.45844 0.72311 0.0
C1526 C 0.98681 0.43137 0.80127 0.0
C1527 C 0.99541 0.41984 0.82425 0.0
C1528 C 0.01158 0.42467 0.83983 0.0
C1529 C 0.01912 0.44117 0.83133 0.0
C1530 C 0.01049 0.4527 0.80827 0.0
H1531 H 0.01006 0.46082 0.69447 0.0
H1532 H 0.01942 0.46532 0.73701 0.0
H1533 H 0.00985 0.44403 0.72827 0.0
H1534 H 0.97427 0.42743 0.78983 0.0
H1535 H 0.98938 0.40717 0.82989 0.0
H1536 H 0.9896 0.05581 0.89559 0.0
H1537 H 0.97346 0.03547 0.85725 0.0
H1538 H 0.01378 0.04147 0.77781 0.0
H1539 H 0.0301 0.0617 0.81643 0.0
H1540 H 0.95983 0.04449 0.79406 0.0
H1541 H 0.00611 0.98813 0.77842 0.0
H1542 H 0.00856 0.0045 0.81267 0.0
H1543 H 0.01603 0.00918 0.76876 0.0
C1544 C 0.99504 0.05273 0.87 0.0
C1545 C 0.01098 0.06047 0.85873 0.0
C1546 C 0.98589 0.04102 0.84825 0.0
C1547 C 0.99249 0.03684 0.81482 0.0
C1548 C 0.00864 0.0442 0.80381 0.0
H1549 H 0.93267 0.00768 0.63273 0.0
H1550 H 0.9512 0.02148 0.67753 0.0
C1551 C 0.01789 0.05582 0.82575 0.0
C1552 C 0.98161 0.02619 0.79034 0.0
H1553 H 0.98202 0.98965 0.7375 0.0
C1554 C 0.96463 0.03241 0.78197 0.0
C1555 C 0.98782 0.01033 0.77489 0.0
C1556 C 0.00556 0.00252 0.78438 0.0
C1557 C 0.95387 0.0235 0.7578 0.0
C1558 C 0.96041 0.00815 0.74102 0.0
C1559 C 0.97716 0.00155 0.75016 0.0
C1560 C 0.95016 -0.00082 0.71315 0.0
C1561 C 0.93557 0.03062 0.75039 0.0
C1562 C 0.94395 0.98183 0.71789 0.0
C1563 C 0.93331 0.97389 0.69225 0.0
C1564 C 0.92876 0.98321 0.66156 0.0
C1565 C 0.93554 0.00035 0.65648 0.0
C1566 C 0.94619 0.00822 0.68198 0.0
H1567 H 0.93084 0.03938 0.77187 0.0
H1568 H 0.93589 0.03851 0.7258 0.0
H1569 H 0.92591 0.01968 0.74686 0.0
H1570 H 0.94697 0.97463 0.74177 0.0
H1571 H 0.92826 0.96068 0.69684 0.0
H1572 H 0.48497 0.93348 0.11903 0.0
H1573 H 0.46988 0.9525 0.16132 0.0
H1574 H 0.51199 0.94392 0.23601 0.0
H1575 H 0.52725 0.92492 0.1935 0.0
H1576 H 0.45764 0.94268 0.22533 0.0
H1577 H 0.50604 -0.00248 0.23907 0.0
H1578 H 0.50708 0.98159 0.20375 0.0
H1579 H 0.51531 0.97596 0.24665 0.0
C1580 C 0.49101 0.93562 0.14445 0.0
C1581 C 0.50724 0.92763 0.15308 0.0
C1582 C 0.48244 0.94659 0.16849 0.0
C1583 C 0.48991 0.94979 0.20162 0.0
C1584 C 0.50619 0.94196 0.21027 0.0
H1585 H 0.4319 0.98187 0.38589 0.0
H1586 H 0.44999 0.96675 0.34201 0.0
C1587 C 0.51486 0.93105 0.18608 0.0
C1588 C 0.48 0.96034 0.22777 0.0
H1589 H 0.48232 -0.00314 0.28043 0.0
C1590 C 0.46301 0.95458 0.23725 0.0
C1591 C 0.48696 0.97596 0.24294 0.0
C1592 C 0.50478 0.98325 0.23238 0.0
C1593 C 0.45286 0.96384 0.26192 0.0
C1594 C 0.46008 0.97907 0.2781 0.0
C1595 C 0.47693 0.98507 0.26819 0.0
C1596 C 0.45027 0.98877 0.30561 0.0
C1597 C 0.43441 0.95735 0.27012 0.0
C1598 C 0.44503 0.00638 0.3002 0.0
C1599 C 0.43471 0.01508 0.32534 0.0
C1600 C 0.42949 0.00625 0.35617 0.0
C1601 C 0.43534 0.98883 0.36199 0.0
C1602 C 0.4457 0.98021 0.33702 0.0
H1603 H 0.42919 0.94864 0.24901 0.0
H1604 H 0.4347 0.94958 0.29486 0.0
H1605 H 0.42513 0.96861 0.27374 0.0
H1606 H 0.44852 0.01321 0.27615 0.0
H1607 H 0.43036 0.02849 0.32023 0.0
H1608 H 0.58521 0.49684 0.68771 0.0
H1609 H 0.56508 0.48253 0.72907 0.0
H1610 H 0.5263 0.52339 0.71085 0.0
H1611 H 0.54616 0.5375 0.66842 0.0
H1612 H 0.54915 0.49514 0.79061 0.0
H1613 H 0.49919 0.4776 0.68874 0.0
H1614 H 0.5212 0.485 0.67762 0.0
H1615 H 0.50486 0.50065 0.69204 0.0
C1616 C 0.57238 0.50276 0.69236 0.0
C1617 C 0.56723 0.51819 0.67445 0.0
C1618 C 0.56094 0.49464 0.71619 0.0
C1619 C 0.54411 0.50176 0.72256 0.0
C1620 C 0.53913 0.51754 0.70581 0.0
H1621 H 0.46279 0.45214 0.85609 0.0
H1622 H 0.47843 0.47408 0.8202 0.0
C1623 C 0.55058 0.52568 0.68188 0.0
C1624 C 0.53177 0.49225 0.74612 0.0
H1625 H 0.49358 0.46802 0.74652 0.0
C1626 C 0.53691 0.48937 0.78109 0.0
C1627 C 0.51579 0.48476 0.73355 0.0
C1628 C 0.50992 0.487 0.69589 0.0
C1629 C 0.52673 0.47878 0.8036 0.0
C1630 C 0.51114 0.47078 0.79065 0.0
C1631 C 0.50557 0.47423 0.7562 0.0
C1632 C 0.50137 0.45755 0.81157 0.0
C1633 C 0.53287 0.47587 0.84088 0.0
C1634 C 0.50901 0.44095 0.81783 0.0
C1635 C 0.50006 0.42834 0.83784 0.0
C1636 C 0.48331 0.43211 0.85207 0.0
C1637 C 0.47555 0.4487 0.84518 0.0
C1638 C 0.48451 0.46131 0.82493 0.0
H1639 H 0.5427 0.48599 0.84915 0.0
H1640 H 0.52148 0.47617 0.85932 0.0
H1641 H 0.53918 0.46264 0.84291 0.0
H1642 H 0.52193 0.43777 0.80722 0.0
H1643 H 0.50628 0.41562 0.84211 0.0
H1644 H 0.96317 0.54555 0.16024 0.0
H1645 H 0.97882 0.52563 0.2003 0.0
H1646 H 0.01921 0.56519 0.2159 0.0
H1647 H 0.00355 0.58529 0.17637 0.0
H1648 H 0.03162 0.53042 0.1962 0.0
H1649 H 0.98487 0.52938 0.30931 0.0
H1650 H 0.97562 0.52538 0.26646 0.0
H1651 H 0.98466 0.54673 0.27663 0.0
C1652 C 0.97518 0.55017 0.17272 0.0
C1653 C 0.98213 0.56703 0.16506 0.0
C1654 C 0.98413 0.53874 0.19552 0.0
C1655 C 0.0001 0.54401 0.21109 0.0
C1656 C 0.0069 0.56091 0.20402 0.0
H1657 H 0.06483 0.50563 0.37756 0.0
H1658 H 0.04478 0.52128 0.33803 0.0
C1659 C -0.00202 0.57233 0.18133 0.0
C1660 C 0.01025 0.53171 0.23351 0.0
H1661 H 0.01022 0.51125 0.31346 0.0
C1662 C 0.02693 0.5261 0.22175 0.0
C1663 C 0.00403 0.52623 0.26679 0.0
C1664 C 0.98637 0.53228 0.28084 0.0
C1665 C 0.03774 0.51534 0.24271 0.0
C1666 C 0.03158 0.50993 0.2761 0.0
C1667 C 0.01479 0.51533 0.28768 0.0
C1668 C 0.04299 0.49987 0.30047 0.0
C1669 C 0.05592 0.51036 0.22955 0.0
C1670 C 0.04841 0.48255 0.29259 0.0
C1671 C 0.05999 0.4736 0.31507 0.0
C1672 C 0.06634 0.48187 0.34566 0.0
C1673 C 0.06051 0.49906 0.35379 0.0
C1674 C 0.04891 0.50795 0.33145 0.0
H1675 H 0.05983 0.51819 0.20607 0.0
H1676 H 0.06599 0.51237 0.25043 0.0
H1677 H 0.05601 0.49614 0.22225 0.0
H1678 H 0.04379 0.47605 0.26894 0.0
H1679 H 0.06425 0.46036 0.30823 0.0
H1680 H 0.17225 0.02738 0.38763 0.0
H1681 H 0.20391 0.02058 0.38904 0.0
H1682 H 0.20975 0.05238 0.48245 0.0
H1683 H 0.17818 0.05932 0.48114 0.0
H1684 H 0.23048 0.04555 0.38441 0.0
H1685 H 0.23675 0.00733 0.50794 0.0
H1686 H 0.21575 0.01088 0.48634 0.0
H1687 H 0.22514 0.02785 0.5138 0.0
C1688 C 0.18028 0.03288 0.40851 0.0
C1689 C 0.17278 0.04395 0.4342 0.0
C1690 C 0.19831 0.02886 0.40943 0.0
C1691 C 0.20906 0.03575 0.43615 0.0
C1692 C 0.20156 0.04656 0.46213 0.0
H1693 H 0.31602 0.05691 0.48372 0.0
H1694 H 0.28405 0.05212 0.48162 0.0
C1695 C 0.18355 0.05057 0.46127 0.0
C1696 C 0.22841 0.03309 0.43514 0.0
H1697 H 0.26357 0.02014 0.48512 0.0
C1698 C 0.23774 0.03969 0.40609 0.0
C1699 C 0.23774 0.02543 0.46349 0.0
C1700 C 0.22832 0.0173 0.4945 0.0
C1701 C 0.25627 0.03977 0.40551 0.0
C1702 C 0.26562 0.03279 0.43456 0.0
C1703 C 0.25629 0.02552 0.46297 0.0
C1704 C 0.28503 0.03432 0.43714 0.0
C1705 C 0.26569 0.04814 0.37472 0.0
C1706 C 0.29611 0.02559 0.4132 0.0
C1707 C 0.31438 0.02831 0.41431 0.0
C1708 C 0.32182 0.0397 0.43954 0.0
C1709 C 0.31069 0.04795 0.46417 0.0
C1710 C 0.29245 0.04526 0.46298 0.0
H1711 H 0.25651 0.05572 0.35758 0.0
H1712 H 0.27631 0.05719 0.38395 0.0
H1713 H 0.27195 0.03763 0.3586 0.0
H1714 H 0.29059 0.01687 0.39344 0.0
H1715 H 0.32268 0.02152 0.39543 0.0
H1716 H 0.42971 0.17793 0.97397 0.0
H1717 H 0.43549 0.20978 0.97511 0.0
H1718 H 0.46677 0.2051 0.88071 0.0
H1719 H 0.46082 0.17322 0.87917 0.0
H1720 H 0.46722 0.22816 0.97859 0.0
H1721 H 0.43092 0.24315 0.85486 0.0
H1722 H 0.42906 0.2221 0.87698 0.0
H1723 H 0.44825 0.22701 0.85079 0.0
C1724 C 0.43784 0.1837 0.95352 0.0
C1725 C 0.44469 0.17319 0.92631 0.0
C1726 C 0.44114 0.20186 0.9542 0.0
C1727 C 0.45135 0.20978 0.92775 0.0
C1728 C 0.45853 0.19926 0.90093 0.0
H1729 H 0.47016 0.32264 0.89479 0.0
H1730 H 0.47408 0.2905 0.89322 0.0
C1731 C 0.45512 0.18111 0.90006 0.0
C1732 C 0.4542 0.22911 0.92823 0.0
H1733 H 0.44471 0.26706 0.88351 0.0
C1734 C 0.4624 0.23668 0.95772 0.0
C1735 C 0.44793 0.24012 0.90087 0.0
C1736 C 0.43841 0.23275 0.8692 0.0
C1737 C 0.46421 0.25507 0.96089 0.0
C1738 C 0.45751 0.26607 0.934 0.0
C1739 C 0.44987 0.25849 0.90398 0.0
C1740 C 0.45692 0.28548 0.93758 0.0
C1741 C 0.47308 0.26263 0.99306 0.0
C1742 C 0.44604 0.29318 0.9632 0.0
C1743 C 0.44358 0.31147 0.9639 0.0
C1744 C 0.45191 0.32234 0.93889 0.0
C1745 C 0.46331 0.31459 0.91403 0.0
C1746 C 0.46569 0.29628 0.91325 0.0
H1747 H 0.48158 0.25266 0.00633 0.0
H1748 H 0.4813 0.27433 0.98617 0.0
H1749 H 0.4628 0.26696 0.01201 0.0
H1750 H 0.43888 0.28498 0.98173 0.0
H1751 H 0.43454 0.31699 0.98307 0.0
H1752 H 0.31668 0.42865 0.48133 0.0
H1753 H 0.28477 0.43395 0.48387 0.0
H1754 H 0.2898 0.47466 0.40497 0.0
H1755 H 0.32176 0.4694 0.40219 0.0
H1756 H 0.26451 0.46497 0.49748 0.0
H1757 H 0.25475 0.43909 0.36184 0.0
H1758 H 0.27512 0.43596 0.38582 0.0
H1759 H 0.27023 0.45702 0.36615 0.0
C1760 C 0.31102 0.43889 0.46486 0.0
C1761 C 0.32163 0.44848 0.44127 0.0
C1762 C 0.29282 0.44188 0.46632 0.0
C1763 C 0.28497 0.4545 0.44425 0.0
C1764 C 0.29562 0.46463 0.42172 0.0
H1765 H 0.17222 0.46831 0.40304 0.0
H1766 H 0.20407 0.47402 0.40597 0.0
C1767 C 0.31381 0.46158 0.42011 0.0
C1768 C 0.26554 0.4563 0.44361 0.0
H1769 H 0.2294 0.44837 0.39233 0.0
C1770 C 0.25679 0.46149 0.47445 0.0
C1771 C 0.2556 0.45176 0.41344 0.0
C1772 C 0.26433 0.44551 0.37997 0.0
C1773 C 0.23826 0.462 0.47608 0.0
C1774 C 0.22834 0.45692 0.44625 0.0
C1775 C 0.2371 0.4523 0.4151 0.0
C1776 C 0.20892 0.45497 0.44732 0.0
C1777 C 0.22945 0.46784 0.50969 0.0
C1778 C 0.20118 0.44239 0.46966 0.0
C1779 C 0.18305 0.439 0.46787 0.0
C1780 C 0.1724 0.44804 0.44348 0.0
C1781 C 0.18015 0.46095 0.42172 0.0
C1782 C 0.19828 0.46433 0.42354 0.0
H1783 H 0.23842 0.4762 0.52583 0.0
H1784 H 0.21714 0.47538 0.50422 0.0
H1785 H 0.22591 0.45599 0.52544 0.0
H1786 H 0.20926 0.43472 0.48757 0.0
H1787 H 0.1775 0.42883 0.48464 0.0
H1788 H 0.05729 0.31406 0.98397 0.0
H1789 H 0.05092 0.28231 0.98564 0.0
H1790 H 0.01614 0.28797 0.89643 0.0
H1791 H 0.02254 0.31975 0.89446 0.0
H1792 H 0.01899 0.26262 0.99096 0.0
H1793 H 0.05348 0.2522 0.86328 0.0
H1794 H 0.0553 0.27258 0.88771 0.0
H1795 H 0.03565 0.26793 0.86279 0.0
C1796 C 0.04811 0.30857 0.96502 0.0
C1797 C 0.04059 0.31928 0.93879 0.0
C1798 C 0.04449 0.29047 0.966 0.0
C1799 C 0.03329 0.28283 0.94084 0.0
C1800 C 0.02509 0.29361 0.91564 0.0
H1801 H 0.02276 0.16988 0.89716 0.0
H1802 H 0.01613 0.20159 0.89854 0.0
C1803 C 0.02879 0.31171 0.9145 0.0
C1804 C 0.03117 0.26342 0.9398 0.0
H1805 H 0.04207 0.22706 0.89143 0.0
C1806 C 0.02387 0.25481 0.96909 0.0
C1807 C 0.03753 0.25335 0.91115 0.0
C1808 C 0.04606 0.26191 0.87953 0.0
C1809 C 0.0231 0.23628 0.97079 0.0
C1810 C 0.03004 0.22623 0.94268 0.0
C1811 C 0.03672 0.23486 0.91286 0.0
C1812 C 0.03203 0.20682 0.94467 0.0
C1813 C 0.01504 0.22763 0.00273 0.0
C1814 C 0.04308 0.19933 0.97028 0.0
C1815 C 0.04701 0.18129 0.9694 0.0
C1816 C 0.04005 0.17049 0.9427 0.0
C1817 C 0.02854 0.17794 0.91772 0.0
C1818 C 0.02461 0.19599 0.91863 0.0
H1819 H 0.00559 0.23663 0.01617 0.0
H1820 H 0.00802 0.21521 0.99561 0.0
H1821 H 0.0257 0.2243 0.02165 0.0
H1822 H 0.0493 0.20756 0.99005 0.0
H1823 H 0.05609 0.17597 0.98873 0.0
H1824 H 0.67883 0.92484 0.53385 0.0
H1825 H 0.71019 0.93283 0.53085 0.0
H1826 H 0.70333 0.96867 0.61803 0.0
H1827 H 0.67195 0.96067 0.62132 0.0
H1828 H 0.72667 0.9661 0.52148 0.0
H1829 H 0.74315 0.9357 0.65072 0.0
H1830 H 0.7225 0.93147 0.62845 0.0
H1831 H 0.72584 0.952 0.65134 0.0
C1832 C 0.684 0.93449 0.55224 0.0
C1833 C 0.67305 0.942 0.57806 0.0
C1834 C 0.70187 0.93904 0.55049 0.0
C1835 C 0.70905 0.95116 0.5745 0.0
C1836 C 0.69806 0.95903 0.59973 0.0
H1837 H 0.82121 0.97383 0.60667 0.0
H1838 H 0.78902 0.97749 0.60738 0.0
C1839 C 0.6802 0.95442 0.60162 0.0
C1840 C 0.72818 0.95505 0.57359 0.0
H1841 H 0.76643 0.94903 0.61956 0.0
C1842 C 0.73538 0.96251 0.543 0.0
C1843 C 0.73942 0.95041 0.60183 0.0
C1844 C 0.73242 0.94182 0.63487 0.0
C1845 C 0.75367 0.96512 0.53959 0.0
C1846 C 0.76495 0.9599 0.56733 0.0
C1847 C 0.75768 0.95307 0.59841 0.0
C1848 C 0.78438 0.95979 0.56367 0.0
C1849 C 0.7608 0.97324 0.50625 0.0
C1850 C 0.79235 0.94874 0.53865 0.0
C1851 C 0.81067 0.9465 0.53838 0.0
C1852 C 0.8213 0.95517 0.56331 0.0
C1853 C 0.81332 0.96677 0.58749 0.0
C1854 C 0.79498 0.96898 0.58776 0.0
H1855 H 0.75058 0.98133 0.49272 0.0
H1856 H 0.77251 0.9817 0.51169 0.0
H1857 H 0.76491 0.96253 0.48806 0.0
H1858 H 0.78434 0.9412 0.52039 0.0
H1859 H 0.81639 0.9373 0.51975 0.0
H1860 H 0.51468 0.67272 0.09987 0.0
H1861 H 0.50683 0.70412 0.09656 0.0
H1862 H 0.54226 0.7107 0.00864 0.0
H1863 H 0.55029 0.67947 0.01194 0.0
H1864 H 0.53158 0.73055 0.10555 0.0
H1865 H 0.49841 0.73804 0.97674 0.0
H1866 H 0.50093 0.71686 0.99826 0.0
H1867 H 0.51899 0.72627 0.97372 0.0
C1868 C 0.5207 0.68085 0.07969 0.0
C1869 C 0.5332 0.67368 0.0563 0.0
C1870 C 0.51607 0.69871 0.07763 0.0
C1871 C 0.52375 0.70962 0.052 0.0
C1872 C 0.53582 0.70238 0.02799 0.0
H1873 H 0.5501 0.81582 0.01181 0.0
H1874 H 0.54257 0.78433 0.00947 0.0
C1875 C 0.54046 0.68455 0.03003 0.0
C1876 C 0.52104 0.72895 0.0531 0.0
H1877 H 0.51085 0.7646 1.00192 0.0
C1878 C 0.52668 0.73802 0.08322 0.0
C1879 C 0.51472 0.73857 0.02382 0.0
C1880 C 0.50775 0.72942 0.99143 0.0
C1881 C 0.52721 0.75653 0.08412 0.0
C1882 C 0.52155 0.76618 0.05429 0.0
C1883 C 0.51516 0.75713 0.0247 0.0
C1884 C 0.52379 0.78556 0.05236 0.0
C1885 C 0.53481 0.76554 0.11618 0.0
C1886 C 0.51523 0.7967 0.0764 0.0
C1887 C 0.51962 0.81462 0.07799 0.0
C1888 C 0.53247 0.82166 0.05522 0.0
C1889 C 0.54014 0.81071 0.0296 0.0
C1890 C 0.53585 0.79276 0.02824 0.0
H1891 H 0.54178 0.75609 0.13375 0.0
H1892 H 0.54425 0.77613 0.10846 0.0
H1893 H 0.52393 0.77174 0.1314 0.0
H1894 H 0.50562 0.7914 0.09475 0.0
H1895 H 0.51327 0.82289 0.09752 0.0
H1896 H 0.82243 0.52247 0.52876 0.0
H1897 H 0.79049 0.5168 0.52676 0.0
H1898 H 0.78233 0.55541 0.60864 0.0
H1899 H 0.81409 0.56125 0.61065 0.0
H1900 H 0.7636 0.52252 0.61772 0.0
H1901 H 0.75434 0.55243 0.48496 0.0
H1902 H 0.77067 0.53524 0.48933 0.0
H1903 H 0.77409 0.55615 0.51064 0.0
C1904 C 0.8138 0.52981 0.54618 0.0
C1905 C 0.82073 0.54238 0.56975 0.0
C1906 C 0.79561 0.52651 0.54506 0.0
C1907 C 0.78413 0.53581 0.56735 0.0
C1908 C 0.79104 0.54808 0.59132 0.0
H1909 H 0.67986 0.56321 0.61543 0.0
H1910 H 0.71125 0.55576 0.61312 0.0
C1911 C 0.80917 0.55137 0.59249 0.0
C1912 C 0.76481 0.53332 0.56539 0.0
H1913 H 0.7288 0.54389 0.51558 0.0
C1914 C 0.75597 0.52693 0.59521 0.0
C1915 C 0.75498 0.53898 0.53583 0.0
C1916 C 0.76391 0.54619 0.50336 0.0
C1917 C 0.73745 0.52678 0.59687 0.0
C1918 C 0.72764 0.53346 0.56817 0.0
C1919 C 0.73645 0.53884 0.53754 0.0
C1920 C 0.70846 0.53681 0.57083 0.0
C1921 C 0.72855 0.51991 0.62962 0.0
C1922 C 0.6966 0.52883 0.54736 0.0
C1923 C 0.67861 0.53304 0.54865 0.0
C1924 C 0.67228 0.54545 0.5732 0.0
C1925 C 0.68426 0.55338 0.59666 0.0
C1926 C 0.70219 0.54912 0.59542 0.0
H1927 H 0.73717 0.51039 0.64388 0.0
H1928 H 0.72577 0.53116 0.64753 0.0
H1929 H 0.71581 0.5133 0.62329 0.0
H1930 H 0.70128 0.5194 0.52803 0.0
H1931 H 0.66967 0.52655 0.53052 0.0
H1932 H 0.93405 0.67599 0.01825 0.0
H1933 H 0.93921 0.70791 0.01629 0.0
H1934 H 0.97212 0.70417 0.10866 0.0
H1935 H 0.96696 0.67219 0.11084 0.0
H1936 H 0.94618 0.72911 0.1145 0.0
H1937 H 0.98181 0.73766 0.98847 0.0
H1938 H 0.96172 0.72519 0.98376 0.0
H1939 H 0.97957 0.71641 0.0098 0.0
C1940 C 0.94266 0.68193 0.03772 0.0
C1941 C 0.95004 0.67165 0.06478 0.0
C1942 C 0.94567 0.70014 0.03648 0.0
C1943 C 0.95627 0.70832 0.06201 0.0
C1944 C 0.96397 0.69804 0.08861 0.0
H1945 H 0.96889 0.82139 0.10595 0.0
H1946 H 0.97383 0.78936 0.10494 0.0
C1947 C 0.96092 0.67984 0.08996 0.0
C1948 C 0.95781 0.72781 0.06289 0.0
H1949 H 0.96845 0.76379 0.01293 0.0
C1950 C 0.95133 0.73671 0.09256 0.0
C1951 C 0.9645 0.73762 0.03417 0.0
C1952 C 0.97246 0.72872 1.0024 0.0
C1953 C 0.9506 0.75522 0.09366 0.0
C1954 C 0.95675 0.76501 0.06447 0.0
C1955 C 0.96372 0.75616 0.03519 0.0
C1956 C 0.95504 0.78443 0.06317 0.0
C1957 C 0.94256 0.76414 0.12537 0.0
C1958 C 0.94322 0.7922 0.03933 0.0
C1959 C 0.94032 0.81043 0.03991 0.0
C1960 C 0.94924 0.82117 0.06432 0.0
C1961 C 0.96156 0.81339 0.08734 0.0
C1962 C 0.96445 0.79515 0.08672 0.0
H1963 H 0.93551 0.7546 0.14264 0.0
H1964 H 0.95321 0.77049 0.141 0.0
H1965 H 0.93312 0.77462 0.11717 0.0
H1966 H 0.93584 0.78407 0.02101 0.0
H1967 H 0.93067 0.81603 0.02203 0.0
loop_
_geom_bond_atom_site_label_1
_geom_bond_atom_site_label_2
_geom_bond_distance
_geom_bond_site_symmetry_2
_ccdc_geom_bond_type
Co0 N4 2.148 . S
Co0 N10 2.128 1_545 S
Co0 N20 2.194 . S
Co0 O25 2.351 1_545 S
Co0 O26 2.155 . S
Co0 O27 2.096 . S
C1 N4 1.301 . S
C1 N5 1.328 . S
C1 H6 0.930 . S
C2 C3 1.333 . S
C2 N4 1.317 . S
C2 H7 0.930 . S
C3 C2 1.333 . S
C3 N5 1.350 . S
C3 H29 0.931 . S
N4 Co0 2.148 . S
N4 C1 1.301 . S
N4 C2 1.317 . S
N5 C1 1.328 . S
N5 C3 1.350 . S
H6 C1 0.930 . S
H7 C2 0.930 . S
C8 O9 1.224 . S
C8 O27 1.247 . S
O9 C8 1.224 . S
N10 Co0 2.128 1_565 S
N10 C11 1.355 . S
N10 C13 1.311 . S
C11 N10 1.355 . S
C11 C12 1.363 . S
C11 H23 0.929 . S
C12 C11 1.363 . S
C12 N14 1.375 . S
C12 H30 0.931 . S
C13 N10 1.311 . S
C13 N14 1.347 . S
C13 H24 0.929 1_565 S
N14 C12 1.375 . S
N14 C13 1.347 . S
C15 C18 1.365 1_545 S
C15 N20 1.328 . S
C15 H21 0.929 1_545 S
C16 C17 1.362 . S
C16 C19 1.378 . S
C16 H31 0.929 . S
C17 C16 1.362 . S
C17 C18 1.366 1_545 S
C18 C15 1.365 1_565 S
C18 C17 1.366 1_565 S
C18 H32 0.930 . S
C19 C16 1.378 . S
C19 N20 1.315 . S
C19 H22 0.930 . S
N20 Co0 2.194 . S
N20 C15 1.328 . S
N20 C19 1.315 . S
H21 C15 0.929 1_565 S
H22 C19 0.930 . S
H23 C11 0.929 . S
H24 C13 0.929 1_545 S
O25 Co0 2.351 1_565 S
O25 C28 1.242 1_565 S
O26 Co0 2.155 . S
O26 C28 1.247 . S
O27 Co0 2.096 . S
O27 C8 1.247 . S
C28 O25 1.242 1_545 S
C28 O26 1.247 . S
H29 C3 0.931 . S
H30 C12 0.931 . S
H31 C16 0.929 . S
H32 C18 0.930 . S
Co33 N37 2.148 . S
Co33 N43 2.128 . S
Co33 N53 2.194 . S
Co33 O58 2.351 . S
Co33 O59 2.155 . S
Co33 O60 2.096 . S
C34 N37 1.301 1_554 S
C34 N38 1.328 . S
C34 H39 0.930 . S
C35 C36 1.333 . S
C35 N37 1.317 . S
C35 H40 0.930 . S
C36 C35 1.333 . S
C36 N38 1.350 1_556 S
C36 H62 0.931 . S
N37 Co33 2.148 . S
N37 C34 1.301 1_556 S
N37 C35 1.317 . S
N38 C34 1.328 . S
N38 C36 1.350 1_554 S
H39 C34 0.930 . S
H40 C35 0.930 . S
C41 O42 1.224 . S
C41 O60 1.247 . S
O42 C41 1.224 . S
N43 Co33 2.128 . S
N43 C44 1.355 . S
N43 C46 1.311 . S
C44 N43 1.355 . S
C44 C45 1.363 . S
C44 H56 0.929 . S
C45 C44 1.363 . S
C45 N47 1.375 . S
C45 H63 0.931 . S
C46 N43 1.311 . S
C46 N47 1.347 . S
C46 H57 0.929 . S
N47 C45 1.375 . S
N47 C46 1.347 . S
C48 C51 1.365 . S
C48 N53 1.328 . S
C48 H54 0.929 . S
C49 C50 1.362 . S
C49 C52 1.378 . S
C49 H64 0.929 . S
C50 C49 1.362 . S
C50 C51 1.366 . S
C51 C48 1.365 . S
C51 C50 1.366 . S
C51 H65 0.930 1_556 S
C52 C49 1.378 . S
C52 N53 1.315 . S
C52 H55 0.930 . S
N53 Co33 2.194 . S
N53 C48 1.328 . S
N53 C52 1.315 . S
H54 C48 0.929 . S
H55 C52 0.930 . S
H56 C44 0.929 . S
H57 C46 0.929 . S
O58 Co33 2.351 . S
O58 C61 1.244 . S
O59 Co33 2.155 . S
O59 C61 1.240 . S
O60 Co33 2.096 . S
O60 C41 1.247 . S
C61 O58 1.244 . S
C61 O59 1.240 . S
H62 C36 0.931 . S
H63 C45 0.931 . S
H64 C49 0.929 . S
H65 C51 0.930 1_554 S
Co66 N70 2.148 . S
Co66 N76 2.128 . S
Co66 N86 2.194 . S
Co66 O91 2.351 . S
Co66 O92 2.155 . S
Co66 O93 2.096 . S
C67 N70 1.301 . S
C67 N71 1.328 . S
C67 H72 0.930 . S
C68 C69 1.333 . S
C68 N70 1.317 . S
C68 H73 0.930 . S
C69 C68 1.333 . S
C69 N71 1.350 . S
C69 H95 0.931 . S
N70 Co66 2.148 . S
N70 C67 1.301 . S
N70 C68 1.317 . S
N71 C67 1.328 . S
N71 C69 1.350 . S
H72 C67 0.930 . S
H73 C68 0.930 . S
C74 O75 1.224 . S
C74 O93 1.247 . S
O75 C74 1.224 . S
N76 Co66 2.128 . S
N76 C77 1.355 . S
N76 C79 1.311 . S
C77 N76 1.355 . S
C77 C78 1.363 . S
C77 H89 0.929 . S
C78 C77 1.363 . S
C78 N80 1.375 . S
C78 H96 0.931 . S
C79 N76 1.311 . S
C79 N80 1.347 . S
C79 H90 0.929 . S
N80 C78 1.375 . S
N80 C79 1.347 . S
C81 C84 1.365 . S
C81 N86 1.328 . S
C81 H87 0.929 . S
C82 C83 1.362 . S
C82 C85 1.378 . S
C82 H97 0.929 . S
C83 C82 1.362 . S
C83 C84 1.366 . S
C84 C81 1.365 . S
C84 C83 1.366 . S
C84 H98 0.930 . S
C85 C82 1.378 . S
C85 N86 1.315 . S
C85 H88 0.930 . S
N86 Co66 2.194 . S
N86 C81 1.328 . S
N86 C85 1.315 . S
H87 C81 0.929 . S
H88 C85 0.930 . S
H89 C77 0.929 . S
H90 C79 0.929 . S
O91 Co66 2.351 . S
O91 C94 1.244 . S
O92 Co66 2.155 . S
O92 C94 1.240 . S
O93 Co66 2.096 . S
O93 C74 1.247 . S
C94 O91 1.244 . S
C94 O92 1.240 . S
H95 C69 0.931 . S
H96 C78 0.931 . S
H97 C82 0.929 . S
H98 C84 0.930 . S
Co99 N103 2.148 . S
Co99 N109 2.128 1_455 S
Co99 N119 2.194 . S
Co99 O124 2.351 1_455 S
Co99 O125 2.155 . S
Co99 O126 2.096 . S
C100 N103 1.301 1_554 S
C100 N104 1.328 . S
C100 H105 0.930 . S
C101 C102 1.333 . S
C101 N103 1.317 . S
C101 H106 0.930 . S
C102 C101 1.333 . S
C102 N104 1.350 1_556 S
C102 H128 0.931 . S
N103 Co99 2.148 . S
N103 C100 1.301 1_556 S
N103 C101 1.317 . S
N104 C100 1.328 . S
N104 C102 1.350 1_554 S
H105 C100 0.930 . S
H106 C101 0.930 . S
C107 O108 1.224 . S
C107 O126 1.247 . S
O108 C107 1.224 . S
N109 Co99 2.128 1_655 S
N109 C110 1.355 . S
N109 C112 1.311 . S
C110 N109 1.355 . S
C110 C111 1.363 . S
C110 H122 0.929 . S
C111 C110 1.363 . S
C111 N113 1.375 . S
C111 H129 0.931 . S
C112 N109 1.311 . S
C112 N113 1.347 . S
C112 H123 0.929 1_655 S
N113 C111 1.375 . S
N113 C112 1.347 . S
C114 C117 1.365 1_455 S
C114 N119 1.328 . S
C114 H120 0.929 1_455 S
C115 C116 1.362 . S
C115 C118 1.378 . S
C115 H130 0.929 . S
C116 C115 1.362 . S
C116 C117 1.366 1_455 S
C117 C114 1.365 1_655 S
C117 C116 1.366 1_655 S
C117 H131 0.930 1_556 S
C118 C115 1.378 . S
C118 N119 1.315 . S
C118 H121 0.930 . S
N119 Co99 2.194 . S
N119 C114 1.328 . S
N119 C118 1.315 . S
H120 C114 0.929 1_655 S
H121 C118 0.930 . S
H122 C110 0.929 . S
H123 C112 0.929 1_455 S
O124 Co99 2.351 1_655 S
O124 C127 1.243 1_655 S
O125 Co99 2.155 . S
O125 C127 1.242 . S
O126 Co99 2.096 . S
O126 C107 1.247 . S
C127 O124 1.243 1_455 S
C127 O125 1.242 . S
H128 C102 0.931 . S
H129 C111 0.931 . S
H130 C115 0.929 . S
H131 C117 0.930 1_554 S
Co132 N136 2.148 . S
Co132 N142 2.128 1_565 S
Co132 N152 2.194 . S
Co132 O157 2.351 1_565 S
Co132 O158 2.155 . S
Co132 O159 2.096 . S
C133 N136 1.301 . S
C133 N137 1.328 . S
C133 H138 0.930 . S
C134 C135 1.333 . S
C134 N136 1.317 . S
C134 H139 0.930 . S
C135 C134 1.333 . S
C135 N137 1.350 . S
C135 H161 0.931 . S
N136 Co132 2.148 . S
N136 C133 1.301 . S
N136 C134 1.317 . S
N137 C133 1.328 . S
N137 C135 1.350 . S
H138 C133 0.930 . S
H139 C134 0.930 . S
C140 O141 1.224 . S
C140 O159 1.247 . S
O141 C140 1.224 . S
N142 Co132 2.128 1_545 S
N142 C143 1.355 . S
N142 C145 1.311 . S
C143 N142 1.355 . S
C143 C144 1.363 . S
C143 H155 0.929 . S
C144 C143 1.363 . S
C144 N146 1.375 . S
C144 H162 0.931 . S
C145 N142 1.311 . S
C145 N146 1.347 . S
C145 H156 0.929 1_545 S
N146 C144 1.375 . S
N146 C145 1.347 . S
C147 C150 1.365 1_565 S
C147 N152 1.328 . S
C147 H153 0.929 1_565 S
C148 C149 1.362 . S
C148 C151 1.378 . S
C148 H163 0.929 . S
C149 C148 1.362 . S
C149 C150 1.366 1_565 S
C150 C147 1.365 1_545 S
C150 C149 1.366 1_545 S
C150 H164 0.930 . S
C151 C148 1.378 . S
C151 N152 1.315 . S
C151 H154 0.930 . S
N152 Co132 2.194 . S
N152 C147 1.328 . S
N152 C151 1.315 . S
H153 C147 0.929 1_545 S
H154 C151 0.930 . S
H155 C143 0.929 . S
H156 C145 0.929 1_565 S
O157 Co132 2.351 1_545 S
O157 C160 1.243 1_545 S
O158 Co132 2.155 . S
O158 C160 1.243 . S
O159 Co132 2.096 . S
O159 C140 1.247 . S
C160 O157 1.243 1_565 S
C160 O158 1.243 . S
H161 C135 0.931 . S
H162 C144 0.931 . S
H163 C148 0.929 . S
H164 C150 0.930 . S
Co165 N169 2.148 . S
Co165 N175 2.128 . S
Co165 N185 2.194 . S
Co165 O190 2.351 . S
Co165 O191 2.155 . S
Co165 O192 2.096 . S
C166 N169 1.301 1_556 S
C166 N170 1.328 . S
C166 H171 0.930 . S
C167 C168 1.333 . S
C167 N169 1.317 . S
C167 H172 0.930 . S
C168 C167 1.333 . S
C168 N170 1.350 1_554 S
C168 H194 0.931 . S
N169 Co165 2.148 . S
N169 C166 1.301 1_554 S
N169 C167 1.317 . S
N170 C166 1.328 . S
N170 C168 1.350 1_556 S
H171 C166 0.930 . S
H172 C167 0.930 . S
C173 O174 1.224 . S
C173 O192 1.247 . S
O174 C173 1.224 . S
N175 Co165 2.128 . S
N175 C176 1.355 . S
N175 C178 1.311 . S
C176 N175 1.355 . S
C176 C177 1.363 . S
C176 H188 0.929 . S
C177 C176 1.363 . S
C177 N179 1.375 . S
C177 H195 0.931 . S
C178 N175 1.311 . S
C178 N179 1.347 . S
C178 H189 0.929 . S
N179 C177 1.375 . S
N179 C178 1.347 . S
C180 C183 1.365 . S
C180 N185 1.328 . S
C180 H186 0.929 . S
C181 C182 1.362 . S
C181 C184 1.378 . S
C181 H196 0.929 . S
C182 C181 1.362 . S
C182 C183 1.366 . S
C183 C180 1.365 . S
C183 C182 1.366 . S
C183 H197 0.930 1_554 S
C184 C181 1.378 . S
C184 N185 1.315 . S
C184 H187 0.930 . S
N185 Co165 2.194 . S
N185 C180 1.328 . S
N185 C184 1.315 . S
H186 C180 0.929 . S
H187 C184 0.930 . S
H188 C176 0.929 . S
H189 C178 0.929 . S
O190 Co165 2.351 . S
O190 C193 1.244 . S
O191 Co165 2.155 . S
O191 C193 1.240 . S
O192 Co165 2.096 . S
O192 C173 1.247 . S
C193 O190 1.244 . S
C193 O191 1.240 . S
H194 C168 0.931 . S
H195 C177 0.931 . S
H196 C181 0.929 . S
H197 C183 0.930 1_556 S
Co198 N202 2.148 . S
Co198 N208 2.128 . S
Co198 N218 2.194 . S
Co198 O223 2.351 . S
Co198 O224 2.155 . S
Co198 O225 2.096 . S
C199 N202 1.301 . S
C199 N203 1.328 . S
C199 H204 0.930 . S
C200 C201 1.333 . S
C200 N202 1.317 . S
C200 H205 0.930 . S
C201 C200 1.333 . S
C201 N203 1.350 . S
C201 H227 0.931 . S
N202 Co198 2.148 . S
N202 C199 1.301 . S
N202 C200 1.317 . S
N203 C199 1.328 . S
N203 C201 1.350 . S
H204 C199 0.930 . S
H205 C200 0.930 . S
C206 O207 1.224 . S
C206 O225 1.247 . S
O207 C206 1.224 . S
N208 Co198 2.128 . S
N208 C209 1.355 . S
N208 C211 1.311 . S
C209 N208 1.355 . S
C209 C210 1.363 . S
C209 H221 0.929 . S
C210 C209 1.363 . S
C210 N212 1.375 . S
C210 H228 0.931 . S
C211 N208 1.311 . S
C211 N212 1.347 . S
C211 H222 0.929 . S
N212 C210 1.375 . S
N212 C211 1.347 . S
C213 C216 1.365 . S
C213 N218 1.328 . S
C213 H219 0.929 . S
C214 C215 1.362 . S
C214 C217 1.378 . S
C214 H229 0.929 . S
C215 C214 1.362 . S
C215 C216 1.366 . S
C216 C213 1.365 . S
C216 C215 1.366 . S
C216 H230 0.930 . S
C217 C214 1.378 . S
C217 N218 1.315 . S
C217 H220 0.930 . S
N218 Co198 2.194 . S
N218 C213 1.328 . S
N218 C217 1.315 . S
H219 C213 0.929 . S
H220 C217 0.930 . S
H221 C209 0.929 . S
H222 C211 0.929 . S
O223 Co198 2.351 . S
O223 C226 1.244 . S
O224 Co198 2.155 . S
O224 C226 1.240 . S
O225 Co198 2.096 . S
O225 C206 1.247 . S
C226 O223 1.244 . S
C226 O224 1.240 . S
H227 C201 0.931 . S
H228 C210 0.931 . S
H229 C214 0.929 . S
H230 C216 0.930 . S
Co231 N235 2.148 . S
Co231 N241 2.128 1_655 S
Co231 N251 2.194 . S
Co231 O256 2.351 1_655 S
Co231 O257 2.155 . S
Co231 O258 2.096 . S
C232 N235 1.301 1_556 S
C232 N236 1.328 . S
C232 H237 0.930 . S
C233 C234 1.333 . S
C233 N235 1.317 . S
C233 H238 0.930 . S
C234 C233 1.333 . S
C234 N236 1.350 1_554 S
C234 H260 0.931 . S
N235 Co231 2.148 . S
N235 C232 1.301 1_554 S
N235 C233 1.317 . S
N236 C232 1.328 . S
N236 C234 1.350 1_556 S
H237 C232 0.930 . S
H238 C233 0.930 . S
C239 O240 1.224 . S
C239 O258 1.247 . S
O240 C239 1.224 . S
N241 Co231 2.128 1_455 S
N241 C242 1.355 . S
N241 C244 1.311 . S
C242 N241 1.355 . S
C242 C243 1.363 . S
C242 H254 0.929 . S
C243 C242 1.363 . S
C243 N245 1.375 . S
C243 H261 0.931 . S
C244 N241 1.311 . S
C244 N245 1.347 . S
C244 H255 0.929 1_455 S
N245 C243 1.375 . S
N245 C244 1.347 . S
C246 C249 1.365 1_655 S
C246 N251 1.328 . S
C246 H252 0.929 1_655 S
C247 C248 1.362 . S
C247 C250 1.378 . S
C247 H262 0.929 . S
C248 C247 1.362 . S
C248 C249 1.366 1_655 S
C249 C246 1.365 1_455 S
C249 C248 1.366 1_455 S
C249 H263 0.930 1_554 S
C250 C247 1.378 . S
C250 N251 1.315 . S
C250 H253 0.930 . S
N251 Co231 2.194 . S
N251 C246 1.328 . S
N251 C250 1.315 . S
H252 C246 0.929 1_455 S
H253 C250 0.930 . S
H254 C242 0.929 . S
H255 C244 0.929 1_655 S
O256 Co231 2.351 1_455 S
O256 C259 1.242 1_455 S
O257 Co231 2.155 . S
O257 C259 1.246 . S
O258 Co231 2.096 . S
O258 C239 1.247 . S
C259 O256 1.242 1_655 S
C259 O257 1.246 . S
H260 C234 0.931 . S
H261 C243 0.931 . S
H262 C247 0.929 . S
H263 C249 0.930 1_556 S
Co264 N268 2.148 . S
Co264 N274 2.128 1_565 S
Co264 N284 2.194 . S
Co264 O289 2.351 1_565 S
Co264 O290 2.155 . S
Co264 O291 2.096 . S
C265 N268 1.301 . S
C265 N269 1.328 . S
C265 H270 0.930 . S
C266 C267 1.333 . S
C266 N268 1.317 . S
C266 H271 0.930 . S
C267 C266 1.333 . S
C267 N269 1.350 . S
C267 H293 0.931 . S
N268 Co264 2.148 . S
N268 C265 1.301 . S
N268 C266 1.317 . S
N269 C265 1.328 . S
N269 C267 1.350 . S
H270 C265 0.930 . S
H271 C266 0.930 . S
C272 O273 1.224 . S
C272 O291 1.247 . S
O273 C272 1.224 . S
N274 Co264 2.128 1_545 S
N274 C275 1.355 . S
N274 C277 1.311 . S
C275 N274 1.355 . S
C275 C276 1.363 . S
C275 H287 0.929 . S
C276 C275 1.363 . S
C276 N278 1.375 . S
C276 H294 0.931 . S
C277 N274 1.311 . S
C277 N278 1.347 . S
C277 H288 0.929 1_545 S
N278 C276 1.375 . S
N278 C277 1.347 . S
C279 C282 1.365 1_565 S
C279 N284 1.328 . S
C279 H285 0.929 1_565 S
C280 C281 1.362 . S
C280 C283 1.378 . S
C280 H295 0.929 . S
C281 C280 1.362 . S
C281 C282 1.366 1_565 S
C282 C279 1.365 1_545 S
C282 C281 1.366 1_545 S
C282 H296 0.930 . S
C283 C280 1.378 . S
C283 N284 1.315 . S
C283 H286 0.930 . S
N284 Co264 2.194 . S
N284 C279 1.328 . S
N284 C283 1.315 . S
H285 C279 0.929 1_545 S
H286 C283 0.930 . S
H287 C275 0.929 . S
H288 C277 0.929 1_565 S
O289 Co264 2.351 1_545 S
O289 C292 1.242 1_545 S
O290 Co264 2.155 . S
O290 C292 1.247 . S
O291 Co264 2.096 . S
O291 C272 1.247 . S
C292 O289 1.242 1_565 S
C292 O290 1.247 . S
H293 C267 0.931 . S
H294 C276 0.931 . S
H295 C280 0.929 . S
H296 C282 0.930 . S
Co297 N301 2.148 . S
Co297 N307 2.128 . S
Co297 N317 2.194 . S
Co297 O322 2.351 . S
Co297 O323 2.155 . S
Co297 O324 2.096 . S
C298 N301 1.301 1_556 S
C298 N302 1.328 . S
C298 H303 0.930 . S
C299 C300 1.333 . S
C299 N301 1.317 . S
C299 H304 0.930 . S
C300 C299 1.333 . S
C300 N302 1.350 1_554 S
C300 H326 0.931 . S
N301 Co297 2.148 . S
N301 C298 1.301 1_554 S
N301 C299 1.317 . S
N302 C298 1.328 . S
N302 C300 1.350 1_556 S
H303 C298 0.930 . S
H304 C299 0.930 . S
C305 O306 1.224 . S
C305 O324 1.247 . S
O306 C305 1.224 . S
N307 Co297 2.128 . S
N307 C308 1.355 . S
N307 C310 1.311 . S
C308 N307 1.355 . S
C308 C309 1.363 . S
C308 H320 0.929 . S
C309 C308 1.363 . S
C309 N311 1.375 . S
C309 H327 0.931 . S
C310 N307 1.311 . S
C310 N311 1.347 . S
C310 H321 0.929 . S
N311 C309 1.375 . S
N311 C310 1.347 . S
C312 C315 1.365 . S
C312 N317 1.328 . S
C312 H318 0.929 . S
C313 C314 1.362 . S
C313 C316 1.378 . S
C313 H328 0.929 . S
C314 C313 1.362 . S
C314 C315 1.366 . S
C315 C312 1.365 . S
C315 C314 1.366 . S
C315 H329 0.930 1_554 S
C316 C313 1.378 . S
C316 N317 1.315 . S
C316 H319 0.930 . S
N317 Co297 2.194 . S
N317 C312 1.328 . S
N317 C316 1.315 . S
H318 C312 0.929 . S
H319 C316 0.930 . S
H320 C308 0.929 . S
H321 C310 0.929 . S
O322 Co297 2.351 . S
O322 C325 1.244 . S
O323 Co297 2.155 . S
O323 C325 1.240 . S
O324 Co297 2.096 . S
O324 C305 1.247 . S
C325 O322 1.244 . S
C325 O323 1.240 . S
H326 C300 0.931 . S
H327 C309 0.931 . S
H328 C313 0.929 . S
H329 C315 0.930 1_556 S
Co330 N334 2.148 . S
Co330 N340 2.128 . S
Co330 N350 2.194 . S
Co330 O355 2.351 . S
Co330 O356 2.155 . S
Co330 O357 2.096 . S
C331 N334 1.301 . S
C331 N335 1.328 . S
C331 H336 0.930 . S
C332 C333 1.333 . S
C332 N334 1.317 . S
C332 H337 0.930 . S
C333 C332 1.333 . S
C333 N335 1.350 . S
C333 H359 0.931 . S
N334 Co330 2.148 . S
N334 C331 1.301 . S
N334 C332 1.317 . S
N335 C331 1.328 . S
N335 C333 1.350 . S
H336 C331 0.930 . S
H337 C332 0.930 . S
C338 O339 1.224 . S
C338 O357 1.247 . S
O339 C338 1.224 . S
N340 Co330 2.128 . S
N340 C341 1.355 . S
N340 C343 1.311 . S
C341 N340 1.355 . S
C341 C342 1.363 . S
C341 H353 0.929 . S
C342 C341 1.363 . S
C342 N344 1.375 . S
C342 H360 0.931 . S
C343 N340 1.311 . S
C343 N344 1.347 . S
C343 H354 0.929 . S
N344 C342 1.375 . S
N344 C343 1.347 . S
C345 C348 1.365 . S
C345 N350 1.328 . S
C345 H351 0.929 . S
C346 C347 1.362 . S
C346 C349 1.378 . S
C346 H361 0.929 . S
C347 C346 1.362 . S
C347 C348 1.366 . S
C348 C345 1.365 . S
C348 C347 1.366 . S
C348 H362 0.930 . S
C349 C346 1.378 . S
C349 N350 1.315 . S
C349 H352 0.930 . S
N350 Co330 2.194 . S
N350 C345 1.328 . S
N350 C349 1.315 . S
H351 C345 0.929 . S
H352 C349 0.930 . S
H353 C341 0.929 . S
H354 C343 0.929 . S
O355 Co330 2.351 . S
O355 C358 1.244 . S
O356 Co330 2.155 . S
O356 C358 1.240 . S
O357 Co330 2.096 . S
O357 C338 1.247 . S
C358 O355 1.244 . S
C358 O356 1.240 . S
H359 C333 0.931 . S
H360 C342 0.931 . S
H361 C346 0.929 . S
H362 C348 0.930 . S
Co363 N367 2.148 . S
Co363 N373 2.128 1_655 S
Co363 N383 2.194 . S
Co363 O388 2.351 1_655 S
Co363 O389 2.155 . S
Co363 O390 2.096 . S
C364 N367 1.301 1_556 S
C364 N368 1.328 . S
C364 H369 0.930 . S
C365 C366 1.333 . S
C365 N367 1.317 . S
C365 H370 0.930 . S
C366 C365 1.333 . S
C366 N368 1.350 1_554 S
C366 H392 0.931 . S
N367 Co363 2.148 . S
N367 C364 1.301 1_554 S
N367 C365 1.317 . S
N368 C364 1.328 . S
N368 C366 1.350 1_556 S
H369 C364 0.930 . S
H370 C365 0.930 . S
C371 O372 1.224 . S
C371 O390 1.247 . S
O372 C371 1.224 . S
N373 Co363 2.128 1_455 S
N373 C374 1.355 . S
N373 C376 1.311 . S
C374 N373 1.355 . S
C374 C375 1.363 . S
C374 H386 0.929 . S
C375 C374 1.363 . S
C375 N377 1.375 . S
C375 H393 0.931 . S
C376 N373 1.311 . S
C376 N377 1.347 . S
C376 H387 0.929 1_455 S
N377 C375 1.375 . S
N377 C376 1.347 . S
C378 C381 1.365 1_655 S
C378 N383 1.328 . S
C378 H384 0.929 1_655 S
C379 C380 1.362 . S
C379 C382 1.378 . S
C379 H394 0.929 . S
C380 C379 1.362 . S
C380 C381 1.366 1_655 S
C381 C378 1.365 1_455 S
C381 C380 1.366 1_455 S
C381 H395 0.930 1_554 S
C382 C379 1.378 . S
C382 N383 1.315 . S
C382 H385 0.930 . S
N383 Co363 2.194 . S
N383 C378 1.328 . S
N383 C382 1.315 . S
H384 C378 0.929 1_455 S
H385 C382 0.930 . S
H386 C374 0.929 . S
H387 C376 0.929 1_655 S
O388 Co363 2.351 1_455 S
O388 C391 1.243 1_455 S
O389 Co363 2.155 . S
O389 C391 1.242 . S
O390 Co363 2.096 . S
O390 C371 1.247 . S
C391 O388 1.243 1_655 S
C391 O389 1.242 . S
H392 C366 0.931 . S
H393 C375 0.931 . S
H394 C379 0.929 . S
H395 C381 0.930 1_556 S
Co396 N400 2.148 . S
Co396 N406 2.128 1_545 S
Co396 N416 2.194 . S
Co396 O421 2.351 1_545 S
Co396 O422 2.155 . S
Co396 O423 2.096 . S
C397 N400 1.301 . S
C397 N401 1.328 . S
C397 H402 0.930 . S
C398 C399 1.333 . S
C398 N400 1.317 . S
C398 H403 0.930 . S
C399 C398 1.333 . S
C399 N401 1.350 . S
C399 H425 0.931 . S
N400 Co396 2.148 . S
N400 C397 1.301 . S
N400 C398 1.317 . S
N401 C397 1.328 . S
N401 C399 1.350 . S
H402 C397 0.930 . S
H403 C398 0.930 . S
C404 O405 1.224 . S
C404 O423 1.247 . S
O405 C404 1.224 . S
N406 Co396 2.128 1_565 S
N406 C407 1.355 . S
N406 C409 1.311 . S
C407 N406 1.355 . S
C407 C408 1.363 . S
C407 H419 0.929 . S
C408 C407 1.363 . S
C408 N410 1.375 . S
C408 H426 0.931 . S
C409 N406 1.311 . S
C409 N410 1.347 . S
C409 H420 0.929 1_565 S
N410 C408 1.375 . S
N410 C409 1.347 . S
C411 C414 1.365 1_545 S
C411 N416 1.328 . S
C411 H417 0.929 1_545 S
C412 C413 1.362 . S
C412 C415 1.378 . S
C412 H427 0.929 . S
C413 C412 1.362 . S
C413 C414 1.366 1_545 S
C414 C411 1.365 1_565 S
C414 C413 1.366 1_565 S
C414 H428 0.930 . S
C415 C412 1.378 . S
C415 N416 1.315 . S
C415 H418 0.930 . S
N416 Co396 2.194 . S
N416 C411 1.328 . S
N416 C415 1.315 . S
H417 C411 0.929 1_565 S
H418 C415 0.930 . S
H419 C407 0.929 . S
H420 C409 0.929 1_545 S
O421 Co396 2.351 1_565 S
O421 C424 1.243 1_565 S
O422 Co396 2.155 . S
O422 C424 1.243 . S
O423 Co396 2.096 . S
O423 C404 1.247 . S
C424 O421 1.243 1_545 S
C424 O422 1.243 . S
H425 C399 0.931 . S
H426 C408 0.931 . S
H427 C412 0.929 . S
H428 C414 0.930 . S
Co429 N433 2.148 . S
Co429 N439 2.128 . S
Co429 N449 2.194 . S
Co429 O454 2.351 . S
Co429 O455 2.155 . S
Co429 O456 2.096 . S
C430 N433 1.301 1_554 S
C430 N434 1.328 . S
C430 H435 0.930 . S
C431 C432 1.333 . S
C431 N433 1.317 . S
C431 H436 0.930 . S
C432 C431 1.333 . S
C432 N434 1.350 1_556 S
C432 H458 0.931 . S
N433 Co429 2.148 . S
N433 C430 1.301 1_556 S
N433 C431 1.317 . S
N434 C430 1.328 . S
N434 C432 1.350 1_554 S
H435 C430 0.930 . S
H436 C431 0.930 . S
C437 O438 1.224 . S
C437 O456 1.247 . S
O438 C437 1.224 . S
N439 Co429 2.128 . S
N439 C440 1.355 . S
N439 C442 1.311 . S
C440 N439 1.355 . S
C440 C441 1.363 . S
C440 H452 0.929 . S
C441 C440 1.363 . S
C441 N443 1.375 . S
C441 H459 0.931 . S
C442 N439 1.311 . S
C442 N443 1.347 . S
C442 H453 0.929 . S
N443 C441 1.375 . S
N443 C442 1.347 . S
C444 C447 1.365 . S
C444 N449 1.328 . S
C444 H450 0.929 . S
C445 C446 1.362 . S
C445 C448 1.378 . S
C445 H460 0.929 . S
C446 C445 1.362 . S
C446 C447 1.366 . S
C447 C444 1.365 . S
C447 C446 1.366 . S
C447 H461 0.930 1_556 S
C448 C445 1.378 . S
C448 N449 1.315 . S
C448 H451 0.930 . S
N449 Co429 2.194 . S
N449 C444 1.328 . S
N449 C448 1.315 . S
H450 C444 0.929 . S
H451 C448 0.930 . S
H452 C440 0.929 . S
H453 C442 0.929 . S
O454 Co429 2.351 . S
O454 C457 1.244 . S
O455 Co429 2.155 . S
O455 C457 1.240 . S
O456 Co429 2.096 . S
O456 C437 1.247 . S
C457 O454 1.244 . S
C457 O455 1.240 . S
H458 C432 0.931 . S
H459 C441 0.931 . S
H460 C445 0.929 . S
H461 C447 0.930 1_554 S
Co462 N466 2.148 . S
Co462 N472 2.128 . S
Co462 N482 2.194 . S
Co462 O487 2.351 . S
Co462 O488 2.155 . S
Co462 O489 2.096 . S
C463 N466 1.301 . S
C463 N467 1.328 . S
C463 H468 0.930 . S
C464 C465 1.333 . S
C464 N466 1.317 . S
C464 H469 0.930 . S
C465 C464 1.333 . S
C465 N467 1.350 . S
C465 H491 0.931 . S
N466 Co462 2.148 . S
N466 C463 1.301 . S
N466 C464 1.317 . S
N467 C463 1.328 . S
N467 C465 1.350 . S
H468 C463 0.930 . S
H469 C464 0.930 . S
C470 O471 1.224 . S
C470 O489 1.247 . S
O471 C470 1.224 . S
N472 Co462 2.128 . S
N472 C473 1.355 . S
N472 C475 1.311 . S
C473 N472 1.355 . S
C473 C474 1.363 . S
C473 H485 0.929 . S
C474 C473 1.363 . S
C474 N476 1.375 . S
C474 H492 0.931 . S
C475 N472 1.311 . S
C475 N476 1.347 . S
C475 H486 0.929 . S
N476 C474 1.375 . S
N476 C475 1.347 . S
C477 C480 1.365 . S
C477 N482 1.328 . S
C477 H483 0.929 . S
C478 C479 1.362 . S
C478 C481 1.378 . S
C478 H493 0.929 . S
C479 C478 1.362 . S
C479 C480 1.366 . S
C480 C477 1.365 . S
C480 C479 1.366 . S
C480 H494 0.930 . S
C481 C478 1.378 . S
C481 N482 1.315 . S
C481 H484 0.930 . S
N482 Co462 2.194 . S
N482 C477 1.328 . S
N482 C481 1.315 . S
H483 C477 0.929 . S
H484 C481 0.930 . S
H485 C473 0.929 . S
H486 C475 0.929 . S
O487 Co462 2.351 . S
O487 C490 1.244 . S
O488 Co462 2.155 . S
O488 C490 1.240 . S
O489 Co462 2.096 . S
O489 C470 1.247 . S
C490 O487 1.244 . S
C490 O488 1.240 . S
H491 C465 0.931 . S
H492 C474 0.931 . S
H493 C478 0.929 . S
H494 C480 0.930 . S
Co495 N499 2.148 . S
Co495 N505 2.128 1_455 S
Co495 N515 2.194 . S
Co495 O520 2.351 1_455 S
Co495 O521 2.155 . S
Co495 O522 2.096 . S
C496 N499 1.301 1_554 S
C496 N500 1.328 . S
C496 H501 0.930 . S
C497 C498 1.333 . S
C497 N499 1.317 . S
C497 H502 0.930 . S
C498 C497 1.333 . S
C498 N500 1.350 1_556 S
C498 H524 0.931 . S
N499 Co495 2.148 . S
N499 C496 1.301 1_556 S
N499 C497 1.317 . S
N500 C496 1.328 . S
N500 C498 1.350 1_554 S
H501 C496 0.930 . S
H502 C497 0.930 . S
C503 O504 1.224 . S
C503 O522 1.247 . S
O504 C503 1.224 . S
N505 Co495 2.128 1_655 S
N505 C506 1.355 . S
N505 C508 1.311 . S
C506 N505 1.355 . S
C506 C507 1.363 . S
C506 H518 0.929 . S
C507 C506 1.363 . S
C507 N509 1.375 . S
C507 H525 0.931 . S
C508 N505 1.311 . S
C508 N509 1.347 . S
C508 H519 0.929 1_655 S
N509 C507 1.375 . S
N509 C508 1.347 . S
C510 C513 1.365 1_455 S
C510 N515 1.328 . S
C510 H516 0.929 1_455 S
C511 C512 1.362 . S
C511 C514 1.378 . S
C511 H526 0.929 . S
C512 C511 1.362 . S
C512 C513 1.366 1_455 S
C513 C510 1.365 1_655 S
C513 C512 1.366 1_655 S
C513 H527 0.930 1_556 S
C514 C511 1.378 . S
C514 N515 1.315 . S
C514 H517 0.930 . S
N515 Co495 2.194 . S
N515 C510 1.328 . S
N515 C514 1.315 . S
H516 C510 0.929 1_655 S
H517 C514 0.930 . S
H518 C506 0.929 . S
H519 C508 0.929 1_455 S
O520 Co495 2.351 1_655 S
O520 C523 1.242 1_655 S
O521 Co495 2.155 . S
O521 C523 1.246 . S
O522 Co495 2.096 . S
O522 C503 1.247 . S
C523 O520 1.242 1_455 S
C523 O521 1.246 . S
H524 C498 0.931 . S
H525 C507 0.931 . S
H526 C511 0.929 . S
H527 C513 0.930 1_554 S
H528 C536 0.929 . S
H529 C538 0.930 . S
H530 C540 0.930 1_565 S
H531 C543 0.929 . S
H532 C546 0.930 . S
H533 C548 0.960 . S
H534 C548 0.960 . S
H535 C548 0.960 . S
C536 H528 0.929 . S
C536 C537 1.377 . S
C536 C538 1.384 . S
C537 C536 1.377 . S
C537 C543 1.390 . S
C538 H529 0.930 . S
C538 C536 1.384 . S
C538 C539 1.372 . S
C539 C538 1.372 . S
C539 C540 1.399 . S
C539 C544 1.490 . S
C540 H530 0.930 1_545 S
C540 C539 1.399 . S
C540 C543 1.385 . S
H541 C557 0.930 . S
H542 C558 0.930 . S
C543 H531 0.929 . S
C543 C537 1.390 . S
C543 C540 1.385 . S
C544 C539 1.490 . S
C544 C546 1.395 . S
C544 C547 1.403 1_545 S
H545 C551 0.930 . S
C546 H532 0.930 . S
C546 C544 1.395 . S
C546 C549 1.403 1_655 S
C547 C544 1.403 1_565 S
C547 C548 1.524 . S
C547 C551 1.400 1_655 S
C548 H533 0.960 . S
C548 H534 0.960 . S
C548 H535 0.960 . S
C548 C547 1.524 . S
C549 C546 1.403 1_455 S
C549 C550 1.392 . S
C549 C553 1.495 . S
C550 C549 1.392 . S
C550 C551 1.385 1_545 S
C550 C552 1.478 . S
C551 H545 0.930 . S
C551 C547 1.400 1_455 S
C551 C550 1.385 1_565 S
C552 C550 1.478 . S
C552 C554 1.384 . S
C552 C558 1.382 . S
C553 C549 1.495 . S
C553 H559 0.959 . S
C553 H560 0.961 . S
C553 H561 0.960 . S
C554 C552 1.384 . S
C554 C555 1.389 1_545 S
C554 H562 0.936 . S
C555 C554 1.389 1_565 S
C555 C556 1.383 . S
C555 H563 0.929 . S
C556 C555 1.383 . S
C556 C557 1.377 . S
C557 H541 0.930 . S
C557 C556 1.377 . S
C557 C558 1.380 1_565 S
C558 H542 0.930 . S
C558 C552 1.382 . S
C558 C557 1.380 1_545 S
H559 C553 0.959 . S
H560 C553 0.961 . S
H561 C553 0.960 . S
H562 C554 0.936 . S
H563 C555 0.929 . S
H564 C572 0.929 . S
H565 C574 0.930 . S
H566 C576 0.930 . S
H567 C579 0.929 . S
H568 C582 0.930 . S
H569 C584 0.960 . S
H570 C584 0.960 . S
H571 C584 0.960 . S
C572 H564 0.929 . S
C572 C573 1.377 . S
C572 C574 1.384 . S
C573 C572 1.377 . S
C573 C579 1.390 1_556 S
C574 H565 0.930 . S
C574 C572 1.384 . S
C574 C575 1.372 . S
C575 C574 1.372 . S
C575 C576 1.400 1_556 S
C575 C580 1.490 . S
C576 H566 0.930 . S
C576 C575 1.400 1_554 S
C576 C579 1.386 . S
H577 C593 0.930 . S
H578 C594 0.931 . S
C579 H567 0.929 . S
C579 C573 1.390 1_554 S
C579 C576 1.386 . S
C580 C575 1.490 . S
C580 C582 1.395 . S
C580 C583 1.403 1_556 S
H581 C587 0.930 . S
C582 H568 0.930 . S
C582 C580 1.395 . S
C582 C585 1.403 1_545 S
C583 C580 1.403 1_554 S
C583 C584 1.524 . S
C583 C587 1.400 1_545 S
C584 H569 0.960 . S
C584 H570 0.960 . S
C584 H571 0.960 . S
C584 C583 1.524 . S
C585 C582 1.403 1_565 S
C585 C586 1.392 . S
C585 C589 1.495 . S
C586 C585 1.392 . S
C586 C587 1.385 1_556 S
C586 C588 1.478 . S
C587 H581 0.930 . S
C587 C583 1.400 1_565 S
C587 C586 1.385 1_554 S
C588 C586 1.478 . S
C588 C590 1.381 . S
C588 C594 1.383 1_556 S
C589 C585 1.495 . S
C589 H595 0.959 . S
C589 H596 0.961 . S
C589 H597 0.960 . S
C590 C588 1.381 . S
C590 C591 1.394 . S
C590 H598 0.930 . S
C591 C590 1.394 . S
C591 C592 1.383 1_556 S
C591 H599 0.929 . S
C592 C591 1.383 1_554 S
C592 C593 1.377 . S
C593 H577 0.930 . S
C593 C592 1.377 . S
C593 C594 1.379 . S
C594 H578 0.931 . S
C594 C588 1.383 1_554 S
C594 C593 1.379 . S
H595 C589 0.959 . S
H596 C589 0.961 . S
H597 C589 0.960 . S
H598 C590 0.930 . S
H599 C591 0.929 . S
H600 C608 0.929 . S
H601 C610 0.930 . S
H602 C612 0.930 . S
H603 C615 0.929 . S
H604 C618 0.930 . S
H605 C620 0.960 . S
H606 C620 0.960 . S
H607 C620 0.960 . S
C608 H600 0.929 . S
C608 C609 1.377 . S
C608 C610 1.384 . S
C609 C608 1.377 . S
C609 C615 1.390 . S
C610 H601 0.930 . S
C610 C608 1.384 . S
C610 C611 1.372 . S
C611 C610 1.372 . S
C611 C612 1.400 . S
C611 C616 1.490 . S
C612 H602 0.930 . S
C612 C611 1.400 . S
C612 C615 1.386 . S
H613 C629 0.930 . S
H614 C630 0.931 . S
C615 H603 0.929 . S
C615 C609 1.390 . S
C615 C612 1.386 . S
C616 C611 1.490 . S
C616 C618 1.395 . S
C616 C619 1.403 . S
H617 C623 0.930 . S
C618 H604 0.930 . S
C618 C616 1.395 . S
C618 C621 1.403 . S
C619 C616 1.403 . S
C619 C620 1.524 . S
C619 C623 1.400 . S
C620 H605 0.960 . S
C620 H606 0.960 . S
C620 H607 0.960 . S
C620 C619 1.524 . S
C621 C618 1.403 . S
C621 C622 1.392 . S
C621 C625 1.495 . S
C622 C621 1.392 . S
C622 C623 1.385 . S
C622 C624 1.478 . S
C623 H617 0.930 . S
C623 C619 1.400 . S
C623 C622 1.385 . S
C624 C622 1.478 . S
C624 C626 1.381 . S
C624 C630 1.383 . S
C625 C621 1.495 . S
C625 H631 0.959 . S
C625 H632 0.961 . S
C625 H633 0.960 . S
C626 C624 1.381 . S
C626 C627 1.394 . S
C626 H634 0.930 . S
C627 C626 1.394 . S
C627 C628 1.383 . S
C627 H635 0.929 . S
C628 C627 1.383 . S
C628 C629 1.377 . S
C629 H613 0.930 . S
C629 C628 1.377 . S
C629 C630 1.379 . S
C630 H614 0.931 . S
C630 C624 1.383 . S
C630 C629 1.379 . S
H631 C625 0.959 . S
H632 C625 0.961 . S
H633 C625 0.960 . S
H634 C626 0.930 . S
H635 C627 0.929 . S
H636 C644 0.929 . S
H637 C646 0.930 . S
H638 C648 0.930 . S
H639 C651 0.929 . S
H640 C654 0.930 . S
H641 C656 0.962 . S
H642 C656 0.950 1_455 S
H643 C656 0.969 . S
C644 H636 0.929 . S
C644 C645 1.377 . S
C644 C646 1.384 . S
C645 C644 1.377 . S
C645 C651 1.390 1_454 S
C646 H637 0.930 . S
C646 C644 1.384 . S
C646 C647 1.372 . S
C647 C646 1.372 . S
C647 C648 1.400 1_454 S
C647 C652 1.490 . S
C648 H638 0.930 . S
C648 C647 1.400 1_656 S
C648 C651 1.386 . S
H649 C665 0.930 . S
H650 C666 0.931 . S
C651 H639 0.929 . S
C651 C645 1.390 1_656 S
C651 C648 1.386 . S
C652 C647 1.490 . S
C652 C654 1.395 . S
C652 C655 1.403 1_554 S
H653 C659 0.930 . S
C654 H640 0.930 . S
C654 C652 1.395 . S
C654 C657 1.403 . S
C655 C652 1.403 1_556 S
C655 C656 1.524 1_455 S
C655 C659 1.400 1_455 S
C656 H641 0.962 . S
C656 H642 0.950 1_655 S
C656 H643 0.969 . S
C656 C655 1.524 1_655 S
C657 C654 1.403 . S
C657 C658 1.392 1_455 S
C657 C661 1.495 . S
C658 C657 1.392 1_655 S
C658 C659 1.385 1_554 S
C658 C660 1.478 . S
C659 H653 0.930 . S
C659 C655 1.400 1_655 S
C659 C658 1.385 1_556 S
C660 C658 1.478 . S
C660 C662 1.381 1_655 S
C660 C666 1.383 1_554 S
C661 C657 1.495 . S
C661 H667 0.959 . S
C661 H668 0.961 1_455 S
C661 H669 0.960 . S
C662 C660 1.381 1_455 S
C662 C663 1.394 . S
C662 H670 0.930 . S
C663 C662 1.394 . S
C663 C664 1.383 1_454 S
C663 H671 0.929 . S
C664 C663 1.383 1_656 S
C664 C665 1.377 . S
C665 H649 0.930 . S
C665 C664 1.377 . S
C665 C666 1.379 . S
C666 H650 0.931 . S
C666 C660 1.383 1_556 S
C666 C665 1.379 . S
H667 C661 0.959 . S
H668 C661 0.961 1_655 S
H669 C661 0.960 . S
H670 C662 0.930 . S
H671 C663 0.929 . S
H672 C680 0.929 . S
H673 C682 0.930 . S
H674 C684 0.930 . S
H675 C687 0.929 . S
H676 C690 0.930 . S
H677 C692 0.960 . S
H678 C692 0.960 . S
H679 C692 0.960 1_565 S
C680 H672 0.929 . S
C680 C681 1.377 . S
C680 C682 1.384 . S
C681 C680 1.377 . S
C681 C687 1.390 1_545 S
C682 H673 0.930 . S
C682 C680 1.384 . S
C682 C683 1.372 . S
C683 C682 1.372 . S
C683 C684 1.400 1_545 S
C683 C688 1.490 . S
C684 H674 0.930 . S
C684 C683 1.400 1_565 S
C684 C687 1.386 . S
H685 C701 0.930 . S
H686 C702 0.931 . S
C687 H675 0.929 . S
C687 C681 1.390 1_565 S
C687 C684 1.386 . S
C688 C683 1.490 . S
C688 C690 1.398 . S
C688 C691 1.403 . S
H689 C695 0.930 . S
C690 H676 0.930 . S
C690 C688 1.398 . S
C690 C693 1.400 1_545 S
C691 C688 1.403 . S
C691 C692 1.524 . S
C691 C695 1.405 . S
C692 H677 0.960 . S
C692 H678 0.960 . S
C692 H679 0.960 1_545 S
C692 C691 1.524 . S
C693 C690 1.400 1_565 S
C693 C694 1.392 . S
C693 C697 1.500 . S
C694 C693 1.392 . S
C694 C695 1.381 1_565 S
C694 C696 1.482 . S
C695 H689 0.930 . S
C695 C691 1.405 . S
C695 C694 1.381 1_545 S
C696 C694 1.482 . S
C696 C698 1.381 1_565 S
C696 C702 1.383 . S
C697 C693 1.500 . S
C697 H703 0.959 . S
C697 H704 0.961 . S
C697 H705 0.960 1_565 S
C698 C696 1.381 1_545 S
C698 C699 1.394 . S
C698 H706 0.930 . S
C699 C698 1.394 . S
C699 C700 1.383 1_545 S
C699 H707 0.929 . S
C700 C699 1.383 1_565 S
C700 C701 1.377 . S
C701 H685 0.930 . S
C701 C700 1.377 . S
C701 C702 1.379 . S
C702 H686 0.931 . S
C702 C696 1.383 . S
C702 C701 1.379 . S
H703 C697 0.959 . S
H704 C697 0.961 . S
H705 C697 0.960 1_545 S
H706 C698 0.930 . S
H707 C699 0.929 . S
H708 C716 0.929 . S
H709 C718 0.930 . S
H710 C720 0.930 . S
H711 C723 0.929 . S
H712 C726 0.930 . S
H713 C728 0.960 . S
H714 C728 0.960 . S
H715 C728 0.960 . S
C716 H708 0.929 . S
C716 C717 1.377 . S
C716 C718 1.384 . S
C717 C716 1.377 . S
C717 C723 1.390 1_554 S
C718 H709 0.930 . S
C718 C716 1.384 . S
C718 C719 1.372 . S
C719 C718 1.372 . S
C719 C720 1.400 1_554 S
C719 C724 1.490 . S
C720 H710 0.930 . S
C720 C719 1.400 1_556 S
C720 C723 1.386 . S
H721 C737 0.930 . S
H722 C738 0.931 . S
C723 H711 0.929 . S
C723 C717 1.390 1_556 S
C723 C720 1.386 . S
C724 C719 1.490 . S
C724 C726 1.395 . S
C724 C727 1.403 1_554 S
H725 C731 0.930 . S
C726 H712 0.930 . S
C726 C724 1.395 . S
C726 C729 1.403 . S
C727 C724 1.403 1_556 S
C727 C728 1.524 . S
C727 C731 1.400 . S
C728 H713 0.960 . S
C728 H714 0.960 . S
C728 H715 0.960 . S
C728 C727 1.524 . S
C729 C726 1.403 . S
C729 C730 1.392 . S
C729 C733 1.495 . S
C730 C729 1.392 . S
C730 C731 1.385 1_554 S
C730 C732 1.478 . S
C731 H725 0.930 . S
C731 C727 1.400 . S
C731 C730 1.385 1_556 S
C732 C730 1.478 . S
C732 C734 1.381 . S
C732 C738 1.383 1_554 S
C733 C729 1.495 . S
C733 H739 0.959 . S
C733 H740 0.961 . S
C733 H741 0.960 . S
C734 C732 1.381 . S
C734 C735 1.394 . S
C734 H742 0.930 . S
C735 C734 1.394 . S
C735 C736 1.383 1_554 S
C735 H743 0.929 . S
C736 C735 1.383 1_556 S
C736 C737 1.377 . S
C737 H721 0.930 . S
C737 C736 1.377 . S
C737 C738 1.379 . S
C738 H722 0.931 . S
C738 C732 1.383 1_556 S
C738 C737 1.379 . S
H739 C733 0.959 . S
H740 C733 0.961 . S
H741 C733 0.960 . S
H742 C734 0.930 . S
H743 C735 0.929 . S
H744 C752 0.929 . S
H745 C754 0.930 . S
H746 C756 0.930 . S
H747 C759 0.929 . S
H748 C762 0.930 . S
H749 C764 0.960 . S
H750 C764 0.960 . S
H751 C764 0.960 . S
C752 H744 0.929 . S
C752 C753 1.377 . S
C752 C754 1.384 . S
C753 C752 1.377 . S
C753 C759 1.390 . S
C754 H745 0.930 . S
C754 C752 1.384 . S
C754 C755 1.372 . S
C755 C754 1.372 . S
C755 C756 1.400 . S
C755 C760 1.490 . S
C756 H746 0.930 . S
C756 C755 1.400 . S
C756 C759 1.386 . S
H757 C773 0.930 . S
H758 C774 0.931 . S
C759 H747 0.929 . S
C759 C753 1.390 . S
C759 C756 1.386 . S
C760 C755 1.490 . S
C760 C762 1.395 . S
C760 C763 1.403 . S
H761 C767 0.930 . S
C762 H748 0.930 . S
C762 C760 1.395 . S
C762 C765 1.403 1_655 S
C763 C760 1.403 . S
C763 C764 1.524 . S
C763 C767 1.400 1_655 S
C764 H749 0.960 . S
C764 H750 0.960 . S
C764 H751 0.960 . S
C764 C763 1.524 . S
C765 C762 1.403 1_455 S
C765 C766 1.392 . S
C765 C769 1.495 . S
C766 C765 1.392 . S
C766 C767 1.385 . S
C766 C768 1.478 . S
C767 H761 0.930 . S
C767 C763 1.400 1_455 S
C767 C766 1.385 . S
C768 C766 1.478 . S
C768 C770 1.381 . S
C768 C774 1.383 . S
C769 C765 1.495 . S
C769 H775 0.959 . S
C769 H776 0.961 . S
C769 H777 0.960 . S
C770 C768 1.381 . S
C770 C771 1.394 . S
C770 H778 0.930 . S
C771 C770 1.394 . S
C771 C772 1.383 . S
C771 H779 0.929 . S
C772 C771 1.383 . S
C772 C773 1.377 . S
C773 H757 0.930 . S
C773 C772 1.377 . S
C773 C774 1.379 . S
C774 H758 0.931 . S
C774 C768 1.383 . S
C774 C773 1.379 . S
H775 C769 0.959 . S
H776 C769 0.961 . S
H777 C769 0.960 . S
H778 C770 0.930 . S
H779 C771 0.929 . S
H780 C788 0.929 . S
H781 C790 0.930 . S
H782 C792 0.930 . S
H783 C795 0.929 . S
H784 C798 0.930 . S
H785 C800 0.960 . S
H786 C800 0.960 . S
H787 C800 0.960 . S
C788 H780 0.929 . S
C788 C789 1.377 . S
C788 C790 1.384 . S
C789 C788 1.377 . S
C789 C795 1.390 1_454 S
C790 H781 0.930 . S
C790 C788 1.384 . S
C790 C791 1.372 . S
C791 C790 1.372 . S
C791 C792 1.400 1_454 S
C791 C796 1.490 . S
C792 H782 0.930 . S
C792 C791 1.400 1_656 S
C792 C795 1.386 . S
H793 C809 0.930 . S
H794 C810 0.931 . S
C795 H783 0.929 . S
C795 C789 1.390 1_656 S
C795 C792 1.386 . S
C796 C791 1.490 . S
C796 C798 1.395 1_554 S
C796 C799 1.403 1_455 S
H797 C803 0.930 . S
C798 H784 0.930 . S
C798 C796 1.395 1_556 S
C798 C801 1.403 1_565 S
C799 C796 1.403 1_655 S
C799 C800 1.524 . S
C799 C803 1.400 1_565 S
C800 H785 0.960 . S
C800 H786 0.960 . S
C800 H787 0.960 . S
C800 C799 1.524 . S
C801 C798 1.403 1_545 S
C801 C802 1.392 . S
C801 C805 1.495 . S
C802 C801 1.392 . S
C802 C803 1.385 1_456 S
C802 C804 1.482 . S
C803 H797 0.930 . S
C803 C799 1.400 1_545 S
C803 C802 1.385 1_654 S
C804 C802 1.482 . S
C804 C806 1.420 1_556 S
C804 C810 1.339 1_455 S
C805 C801 1.495 . S
C805 H811 0.959 . S
C805 H812 0.961 . S
C805 H813 0.960 . S
C806 C804 1.420 1_554 S
C806 C807 1.394 . S
C806 H814 0.930 . S
C807 C806 1.394 . S
C807 C808 1.383 1_454 S
C807 H815 0.929 . S
C808 C807 1.383 1_656 S
C808 C809 1.377 . S
C809 H793 0.930 . S
C809 C808 1.377 . S
C809 C810 1.379 . S
C810 H794 0.931 . S
C810 C804 1.339 1_655 S
C810 C809 1.379 . S
H811 C805 0.959 . S
H812 C805 0.961 . S
H813 C805 0.960 . S
H814 C806 0.930 . S
H815 C807 0.929 . S
H816 C824 0.929 . S
H817 C826 0.930 . S
H818 C828 0.930 . S
H819 C831 0.929 . S
H820 C834 0.930 . S
H821 C836 0.960 . S
H822 C836 0.960 . S
H823 C836 0.960 . S
C824 H816 0.929 . S
C824 C825 1.377 . S
C824 C826 1.384 . S
C825 C824 1.377 . S
C825 C831 1.390 . S
C826 H817 0.930 . S
C826 C824 1.384 . S
C826 C827 1.372 . S
C827 C826 1.372 . S
C827 C828 1.400 . S
C827 C832 1.490 . S
C828 H818 0.930 . S
C828 C827 1.400 . S
C828 C831 1.386 . S
H829 C845 0.930 . S
H830 C846 0.931 . S
C831 H819 0.929 . S
C831 C825 1.390 . S
C831 C828 1.386 . S
C832 C827 1.490 . S
C832 C834 1.395 . S
C832 C835 1.403 . S
H833 C839 0.930 . S
C834 H820 0.930 . S
C834 C832 1.395 . S
C834 C837 1.403 . S
C835 C832 1.403 . S
C835 C836 1.524 . S
C835 C839 1.400 . S
C836 H821 0.960 . S
C836 H822 0.960 . S
C836 H823 0.960 . S
C836 C835 1.524 . S
C837 C834 1.403 . S
C837 C838 1.392 . S
C837 C841 1.495 . S
C838 C837 1.392 . S
C838 C839 1.385 . S
C838 C840 1.478 . S
C839 H833 0.930 . S
C839 C835 1.400 . S
C839 C838 1.385 . S
C840 C838 1.478 . S
C840 C842 1.381 . S
C840 C846 1.383 . S
C841 C837 1.495 . S
C841 H847 0.959 . S
C841 H848 0.961 . S
C841 H849 0.960 . S
C842 C840 1.381 . S
C842 C843 1.394 . S
C842 H850 0.930 . S
C843 C842 1.394 . S
C843 C844 1.383 . S
C843 H851 0.929 . S
C844 C843 1.383 . S
C844 C845 1.377 . S
C845 H829 0.930 . S
C845 C844 1.377 . S
C845 C846 1.379 . S
C846 H830 0.931 . S
C846 C840 1.383 . S
C846 C845 1.379 . S
H847 C841 0.959 . S
H848 C841 0.961 . S
H849 C841 0.960 . S
H850 C842 0.930 . S
H851 C843 0.929 . S
H852 C860 0.929 . S
H853 C862 0.930 . S
H854 C864 0.930 . S
H855 C867 0.929 . S
H856 C870 0.930 . S
H857 C872 0.960 . S
H858 C872 0.960 . S
H859 C872 0.960 . S
C860 H852 0.929 . S
C860 C861 1.377 . S
C860 C862 1.384 . S
C861 C860 1.377 . S
C861 C867 1.390 . S
C862 H853 0.930 . S
C862 C860 1.384 . S
C862 C863 1.372 . S
C863 C862 1.372 . S
C863 C864 1.400 . S
C863 C868 1.490 . S
C864 H854 0.930 . S
C864 C863 1.400 . S
C864 C867 1.386 . S
H865 C881 0.930 . S
H866 C882 0.931 . S
C867 H855 0.929 . S
C867 C861 1.390 . S
C867 C864 1.386 . S
C868 C863 1.490 . S
C868 C870 1.395 . S
C868 C871 1.403 . S
H869 C875 0.930 . S
C870 H856 0.930 . S
C870 C868 1.395 . S
C870 C873 1.403 . S
C871 C868 1.403 . S
C871 C872 1.524 . S
C871 C875 1.400 . S
C872 H857 0.960 . S
C872 H858 0.960 . S
C872 H859 0.960 . S
C872 C871 1.524 . S
C873 C870 1.403 . S
C873 C874 1.392 . S
C873 C877 1.495 . S
C874 C873 1.392 . S
C874 C875 1.385 . S
C874 C876 1.478 . S
C875 H869 0.930 . S
C875 C871 1.400 . S
C875 C874 1.385 . S
C876 C874 1.478 . S
C876 C878 1.381 . S
C876 C882 1.383 . S
C877 C873 1.495 . S
C877 H883 0.959 . S
C877 H884 0.961 . S
C877 H885 0.960 . S
C878 C876 1.381 . S
C878 C879 1.394 . S
C878 H886 0.930 . S
C879 C878 1.394 . S
C879 C880 1.383 . S
C879 H887 0.929 . S
C880 C879 1.383 . S
C880 C881 1.377 . S
C881 H865 0.930 . S
C881 C880 1.377 . S
C881 C882 1.379 . S
C882 H866 0.931 . S
C882 C876 1.383 . S
C882 C881 1.379 . S
H883 C877 0.959 . S
H884 C877 0.961 . S
H885 C877 0.960 . S
H886 C878 0.930 . S
H887 C879 0.929 . S
H888 C896 0.929 . S
H889 C898 0.930 . S
H890 C900 0.930 . S
H891 C903 0.929 . S
H892 C906 0.930 . S
H893 C908 0.960 . S
H894 C908 0.960 . S
H895 C908 0.960 . S
C896 H888 0.929 . S
C896 C897 1.377 . S
C896 C898 1.384 . S
C897 C896 1.377 . S
C897 C903 1.390 . S
C898 H889 0.930 . S
C898 C896 1.384 . S
C898 C899 1.372 . S
C899 C898 1.372 . S
C899 C900 1.400 . S
C899 C904 1.490 . S
C900 H890 0.930 . S
C900 C899 1.400 . S
C900 C903 1.386 . S
H901 C917 0.930 . S
H902 C918 0.931 . S
C903 H891 0.929 . S
C903 C897 1.390 . S
C903 C900 1.386 . S
C904 C899 1.490 . S
C904 C906 1.395 . S
C904 C907 1.403 . S
H905 C911 0.930 . S
C906 H892 0.930 . S
C906 C904 1.395 . S
C906 C909 1.403 . S
C907 C904 1.403 . S
C907 C908 1.524 . S
C907 C911 1.400 . S
C908 H893 0.960 . S
C908 H894 0.960 . S
C908 H895 0.960 . S
C908 C907 1.524 . S
C909 C906 1.403 . S
C909 C910 1.392 . S
C909 C913 1.495 . S
C910 C909 1.392 . S
C910 C911 1.385 . S
C910 C912 1.478 . S
C911 H905 0.930 . S
C911 C907 1.400 . S
C911 C910 1.385 . S
C912 C910 1.478 . S
C912 C914 1.381 . S
C912 C918 1.383 . S
C913 C909 1.495 . S
C913 H919 0.959 . S
C913 H920 0.961 . S
C913 H921 0.960 . S
C914 C912 1.381 . S
C914 C915 1.394 . S
C914 H922 0.930 . S
C915 C914 1.394 . S
C915 C916 1.383 . S
C915 H923 0.929 . S
C916 C915 1.383 . S
C916 C917 1.377 . S
C917 H901 0.930 . S
C917 C916 1.377 . S
C917 C918 1.379 . S
C918 H902 0.931 . S
C918 C912 1.383 . S
C918 C917 1.379 . S
H919 C913 0.959 . S
H920 C913 0.961 . S
H921 C913 0.960 . S
H922 C914 0.930 . S
H923 C915 0.929 . S
H924 C932 0.929 . S
H925 C934 0.930 . S
H926 C936 0.930 . S
H927 C939 0.929 . S
H928 C942 0.930 . S
H929 C944 0.960 . S
H930 C944 0.960 . S
H931 C944 0.960 . S
C932 H924 0.929 . S
C932 C933 1.377 . S
C932 C934 1.384 . S
C933 C932 1.377 . S
C933 C939 1.390 . S
C934 H925 0.930 . S
C934 C932 1.384 . S
C934 C935 1.372 . S
C935 C934 1.372 . S
C935 C936 1.400 . S
C935 C940 1.490 . S
C936 H926 0.930 . S
C936 C935 1.400 . S
C936 C939 1.386 . S
H937 C953 0.930 . S
H938 C954 0.931 . S
C939 H927 0.929 . S
C939 C933 1.390 . S
C939 C936 1.386 . S
C940 C935 1.490 . S
C940 C942 1.395 . S
C940 C943 1.403 . S
H941 C947 0.930 . S
C942 H928 0.930 . S
C942 C940 1.395 . S
C942 C945 1.403 . S
C943 C940 1.403 . S
C943 C944 1.524 . S
C943 C947 1.400 . S
C944 H929 0.960 . S
C944 H930 0.960 . S
C944 H931 0.960 . S
C944 C943 1.524 . S
C945 C942 1.403 . S
C945 C946 1.392 . S
C945 C949 1.495 . S
C946 C945 1.392 . S
C946 C947 1.385 . S
C946 C948 1.478 . S
C947 H941 0.930 . S
C947 C943 1.400 . S
C947 C946 1.385 . S
C948 C946 1.478 . S
C948 C950 1.381 . S
C948 C954 1.383 . S
C949 C945 1.495 . S
C949 H955 0.959 . S
C949 H956 0.961 . S
C949 H957 0.960 . S
C950 C948 1.381 . S
C950 C951 1.394 . S
C950 H958 0.930 . S
C951 C950 1.394 . S
C951 C952 1.383 . S
C951 H959 0.929 . S
C952 C951 1.383 . S
C952 C953 1.377 . S
C953 H937 0.930 . S
C953 C952 1.377 . S
C953 C954 1.379 . S
C954 H938 0.931 . S
C954 C948 1.383 . S
C954 C953 1.379 . S
H955 C949 0.959 . S
H956 C949 0.961 . S
H957 C949 0.960 . S
H958 C950 0.930 . S
H959 C951 0.929 . S
H960 C968 0.929 . S
H961 C970 0.930 . S
H962 C972 0.930 . S
H963 C975 0.929 . S
H964 C978 0.930 . S
H965 C980 0.960 . S
H966 C980 0.960 . S
H967 C980 0.960 . S
C968 H960 0.929 . S
C968 C969 1.377 . S
C968 C970 1.384 . S
C969 C968 1.377 . S
C969 C975 1.390 . S
C970 H961 0.930 . S
C970 C968 1.384 . S
C970 C971 1.372 . S
C971 C970 1.372 . S
C971 C972 1.400 . S
C971 C976 1.490 . S
C972 H962 0.930 . S
C972 C971 1.400 . S
C972 C975 1.386 . S
H973 C989 0.930 . S
H974 C990 0.931 . S
C975 H963 0.929 . S
C975 C969 1.390 . S
C975 C972 1.386 . S
C976 C971 1.490 . S
C976 C978 1.395 . S
C976 C979 1.403 . S
H977 C983 0.930 . S
C978 H964 0.930 . S
C978 C976 1.395 . S
C978 C981 1.403 . S
C979 C976 1.403 . S
C979 C980 1.524 . S
C979 C983 1.400 . S
C980 H965 0.960 . S
C980 H966 0.960 . S
C980 H967 0.960 . S
C980 C979 1.524 . S
C981 C978 1.403 . S
C981 C982 1.392 . S
C981 C985 1.495 . S
C982 C981 1.392 . S
C982 C983 1.385 . S
C982 C984 1.478 . S
C983 H977 0.930 . S
C983 C979 1.400 . S
C983 C982 1.385 . S
C984 C982 1.478 . S
C984 C986 1.381 . S
C984 C990 1.383 . S
C985 C981 1.495 . S
C985 H991 0.959 . S
C985 H992 0.961 . S
C985 H993 0.960 . S
C986 C984 1.381 . S
C986 C987 1.394 . S
C986 H994 0.930 . S
C987 C986 1.394 . S
C987 C988 1.383 . S
C987 H995 0.929 . S
C988 C987 1.383 . S
C988 C989 1.377 . S
C989 H973 0.930 . S
C989 C988 1.377 . S
C989 C990 1.379 . S
C990 H974 0.931 . S
C990 C984 1.383 . S
C990 C989 1.379 . S
H991 C985 0.959 . S
H992 C985 0.961 . S
H993 C985 0.960 . S
H994 C986 0.930 . S
H995 C987 0.929 . S
H996 C1004 0.929 . S
H997 C1006 0.930 . S
H998 C1008 0.930 . S
H999 C1011 0.929 . S
H1000 C1014 0.930 . S
H1001 C1016 0.960 . S
H1002 C1016 0.960 . S
H1003 C1016 0.960 . S
C1004 H996 0.929 . S
C1004 C1005 1.377 . S
C1004 C1006 1.384 . S
C1005 C1004 1.377 . S
C1005 C1011 1.390 . S
C1006 H997 0.930 . S
C1006 C1004 1.384 . S
C1006 C1007 1.372 . S
C1007 C1006 1.372 . S
C1007 C1008 1.400 . S
C1007 C1012 1.490 . S
C1008 H998 0.930 . S
C1008 C1007 1.400 . S
C1008 C1011 1.386 . S
H1009 C1025 0.930 . S
H1010 C1026 0.931 . S
C1011 H999 0.929 . S
C1011 C1005 1.390 . S
C1011 C1008 1.386 . S
C1012 C1007 1.490 . S
C1012 C1014 1.395 . S
C1012 C1015 1.403 . S
H1013 C1019 0.930 . S
C1014 H1000 0.930 . S
C1014 C1012 1.395 . S
C1014 C1017 1.403 . S
C1015 C1012 1.403 . S
C1015 C1016 1.524 . S
C1015 C1019 1.400 . S
C1016 H1001 0.960 . S
C1016 H1002 0.960 . S
C1016 H1003 0.960 . S
C1016 C1015 1.524 . S
C1017 C1014 1.403 . S
C1017 C1018 1.392 . S
C1017 C1021 1.495 . S
C1018 C1017 1.392 . S
C1018 C1019 1.385 . S
C1018 C1020 1.478 . S
C1019 H1013 0.930 . S
C1019 C1015 1.400 . S
C1019 C1018 1.385 . S
C1020 C1018 1.478 . S
C1020 C1022 1.381 . S
C1020 C1026 1.383 . S
C1021 C1017 1.495 . S
C1021 H1027 0.959 . S
C1021 H1028 0.961 . S
C1021 H1029 0.960 . S
C1022 C1020 1.381 . S
C1022 C1023 1.394 . S
C1022 H1030 0.930 . S
C1023 C1022 1.394 . S
C1023 C1024 1.383 . S
C1023 H1031 0.929 . S
C1024 C1023 1.383 . S
C1024 C1025 1.377 . S
C1025 H1009 0.930 . S
C1025 C1024 1.377 . S
C1025 C1026 1.379 . S
C1026 H1010 0.931 . S
C1026 C1020 1.383 . S
C1026 C1025 1.379 . S
H1027 C1021 0.959 . S
H1028 C1021 0.961 . S
H1029 C1021 0.960 . S
H1030 C1022 0.930 . S
H1031 C1023 0.929 . S
H1032 C1040 0.929 . S
H1033 C1042 0.930 . S
H1034 C1044 0.930 . S
H1035 C1047 0.929 . S
H1036 C1050 0.930 . S
H1037 C1052 0.960 . S
H1038 C1052 0.960 . S
H1039 C1052 0.960 . S
C1040 H1032 0.929 . S
C1040 C1041 1.377 . S
C1040 C1042 1.384 . S
C1041 C1040 1.377 . S
C1041 C1047 1.390 . S
C1042 H1033 0.930 . S
C1042 C1040 1.384 . S
C1042 C1043 1.372 . S
C1043 C1042 1.372 . S
C1043 C1044 1.400 . S
C1043 C1048 1.490 . S
C1044 H1034 0.930 . S
C1044 C1043 1.400 . S
C1044 C1047 1.386 . S
H1045 C1061 0.930 . S
H1046 C1062 0.931 . S
C1047 H1035 0.929 . S
C1047 C1041 1.390 . S
C1047 C1044 1.386 . S
C1048 C1043 1.490 . S
C1048 C1050 1.395 . S
C1048 C1051 1.403 . S
H1049 C1055 0.930 . S
C1050 H1036 0.930 . S
C1050 C1048 1.395 . S
C1050 C1053 1.403 . S
C1051 C1048 1.403 . S
C1051 C1052 1.524 . S
C1051 C1055 1.400 . S
C1052 H1037 0.960 . S
C1052 H1038 0.960 . S
C1052 H1039 0.960 . S
C1052 C1051 1.524 . S
C1053 C1050 1.403 . S
C1053 C1054 1.392 . S
C1053 C1057 1.495 . S
C1054 C1053 1.392 . S
C1054 C1055 1.385 . S
C1054 C1056 1.478 . S
C1055 H1049 0.930 . S
C1055 C1051 1.400 . S
C1055 C1054 1.385 . S
C1056 C1054 1.478 . S
C1056 C1058 1.381 . S
C1056 C1062 1.383 . S
C1057 C1053 1.495 . S
C1057 H1063 0.959 . S
C1057 H1064 0.961 . S
C1057 H1065 0.960 . S
C1058 C1056 1.381 . S
C1058 C1059 1.394 . S
C1058 H1066 0.930 . S
C1059 C1058 1.394 . S
C1059 C1060 1.383 . S
C1059 H1067 0.929 . S
C1060 C1059 1.383 . S
C1060 C1061 1.377 . S
C1061 H1045 0.930 . S
C1061 C1060 1.377 . S
C1061 C1062 1.379 . S
C1062 H1046 0.931 . S
C1062 C1056 1.383 . S
C1062 C1061 1.379 . S
H1063 C1057 0.959 . S
H1064 C1057 0.961 . S
H1065 C1057 0.960 . S
H1066 C1058 0.930 . S
H1067 C1059 0.929 . S
H1068 C1076 0.929 . S
H1069 C1078 0.930 . S
H1070 C1080 0.930 . S
H1071 C1083 0.929 . S
H1072 C1086 0.930 . S
H1073 C1088 0.960 . S
H1074 C1088 0.960 . S
H1075 C1088 0.960 . S
C1076 H1068 0.929 . S
C1076 C1077 1.377 . S
C1076 C1078 1.384 . S
C1077 C1076 1.377 . S
C1077 C1083 1.390 . S
C1078 H1069 0.930 . S
C1078 C1076 1.384 . S
C1078 C1079 1.372 . S
C1079 C1078 1.372 . S
C1079 C1080 1.400 . S
C1079 C1084 1.490 . S
C1080 H1070 0.930 . S
C1080 C1079 1.400 . S
C1080 C1083 1.386 . S
H1081 C1097 0.930 . S
H1082 C1098 0.931 . S
C1083 H1071 0.929 . S
C1083 C1077 1.390 . S
C1083 C1080 1.386 . S
C1084 C1079 1.490 . S
C1084 C1086 1.395 . S
C1084 C1087 1.403 . S
H1085 C1091 0.930 . S
C1086 H1072 0.930 . S
C1086 C1084 1.395 . S
C1086 C1089 1.403 . S
C1087 C1084 1.403 . S
C1087 C1088 1.524 . S
C1087 C1091 1.400 . S
C1088 H1073 0.960 . S
C1088 H1074 0.960 . S
C1088 H1075 0.960 . S
C1088 C1087 1.524 . S
C1089 C1086 1.403 . S
C1089 C1090 1.392 . S
C1089 C1093 1.495 . S
C1090 C1089 1.392 . S
C1090 C1091 1.385 . S
C1090 C1092 1.478 . S
C1091 H1085 0.930 . S
C1091 C1087 1.400 . S
C1091 C1090 1.385 . S
C1092 C1090 1.478 . S
C1092 C1094 1.381 . S
C1092 C1098 1.383 . S
C1093 C1089 1.495 . S
C1093 H1099 0.959 . S
C1093 H1100 0.961 . S
C1093 H1101 0.960 . S
C1094 C1092 1.381 . S
C1094 C1095 1.394 . S
C1094 H1102 0.930 . S
C1095 C1094 1.394 . S
C1095 C1096 1.383 . S
C1095 H1103 0.929 . S
C1096 C1095 1.383 . S
C1096 C1097 1.377 . S
C1097 H1081 0.930 . S
C1097 C1096 1.377 . S
C1097 C1098 1.379 . S
C1098 H1082 0.931 . S
C1098 C1092 1.383 . S
C1098 C1097 1.379 . S
H1099 C1093 0.959 . S
H1100 C1093 0.961 . S
H1101 C1093 0.960 . S
H1102 C1094 0.930 . S
H1103 C1095 0.929 . S
H1104 C1112 0.929 . S
H1105 C1114 0.930 . S
H1106 C1116 0.930 . S
H1107 C1119 0.929 . S
H1108 C1122 0.930 . S
H1109 C1124 0.960 . S
H1110 C1124 0.960 . S
H1111 C1124 0.960 . S
C1112 H1104 0.929 . S
C1112 C1113 1.377 . S
C1112 C1114 1.384 . S
C1113 C1112 1.377 . S
C1113 C1119 1.390 . S
C1114 H1105 0.930 . S
C1114 C1112 1.384 . S
C1114 C1115 1.372 . S
C1115 C1114 1.372 . S
C1115 C1116 1.400 . S
C1115 C1120 1.490 . S
C1116 H1106 0.930 . S
C1116 C1115 1.400 . S
C1116 C1119 1.386 . S
H1117 C1133 0.930 . S
H1118 C1134 0.931 . S
C1119 H1107 0.929 . S
C1119 C1113 1.390 . S
C1119 C1116 1.386 . S
C1120 C1115 1.490 . S
C1120 C1122 1.395 . S
C1120 C1123 1.403 . S
H1121 C1127 0.930 . S
C1122 H1108 0.930 . S
C1122 C1120 1.395 . S
C1122 C1125 1.403 . S
C1123 C1120 1.403 . S
C1123 C1124 1.524 . S
C1123 C1127 1.400 . S
C1124 H1109 0.960 . S
C1124 H1110 0.960 . S
C1124 H1111 0.960 . S
C1124 C1123 1.524 . S
C1125 C1122 1.403 . S
C1125 C1126 1.392 . S
C1125 C1129 1.495 . S
C1126 C1125 1.392 . S
C1126 C1127 1.385 . S
C1126 C1128 1.478 . S
C1127 H1121 0.930 . S
C1127 C1123 1.400 . S
C1127 C1126 1.385 . S
C1128 C1126 1.478 . S
C1128 C1130 1.381 . S
C1128 C1134 1.383 . S
C1129 C1125 1.495 . S
C1129 H1135 0.959 . S
C1129 H1136 0.961 . S
C1129 H1137 0.960 . S
C1130 C1128 1.381 . S
C1130 C1131 1.394 . S
C1130 H1138 0.930 . S
C1131 C1130 1.394 . S
C1131 C1132 1.383 . S
C1131 H1139 0.929 . S
C1132 C1131 1.383 . S
C1132 C1133 1.377 . S
C1133 H1117 0.930 . S
C1133 C1132 1.377 . S
C1133 C1134 1.379 . S
C1134 H1118 0.931 . S
C1134 C1128 1.383 . S
C1134 C1133 1.379 . S
H1135 C1129 0.959 . S
H1136 C1129 0.961 . S
H1137 C1129 0.960 . S
H1138 C1130 0.930 . S
H1139 C1131 0.929 . S
H1140 C1148 0.929 . S
H1141 C1150 0.930 . S
H1142 C1152 0.930 . S
H1143 C1155 0.929 . S
H1144 C1158 0.930 . S
H1145 C1160 0.960 . S
H1146 C1160 0.960 . S
H1147 C1160 0.960 . S
C1148 H1140 0.929 . S
C1148 C1149 1.377 . S
C1148 C1150 1.384 . S
C1149 C1148 1.377 . S
C1149 C1155 1.390 . S
C1150 H1141 0.930 . S
C1150 C1148 1.384 . S
C1150 C1151 1.372 . S
C1151 C1150 1.372 . S
C1151 C1152 1.400 . S
C1151 C1156 1.490 . S
C1152 H1142 0.930 . S
C1152 C1151 1.400 . S
C1152 C1155 1.386 . S
H1153 C1169 0.930 . S
H1154 C1170 0.931 . S
C1155 H1143 0.929 . S
C1155 C1149 1.390 . S
C1155 C1152 1.386 . S
C1156 C1151 1.490 . S
C1156 C1158 1.395 . S
C1156 C1159 1.403 . S
H1157 C1163 0.930 . S
C1158 H1144 0.930 . S
C1158 C1156 1.395 . S
C1158 C1161 1.403 . S
C1159 C1156 1.403 . S
C1159 C1160 1.524 . S
C1159 C1163 1.400 . S
C1160 H1145 0.960 . S
C1160 H1146 0.960 . S
C1160 H1147 0.960 . S
C1160 C1159 1.524 . S
C1161 C1158 1.403 . S
C1161 C1162 1.392 . S
C1161 C1165 1.495 . S
C1162 C1161 1.392 . S
C1162 C1163 1.385 . S
C1162 C1164 1.478 . S
C1163 H1157 0.930 . S
C1163 C1159 1.400 . S
C1163 C1162 1.385 . S
C1164 C1162 1.478 . S
C1164 C1166 1.381 . S
C1164 C1170 1.383 . S
C1165 C1161 1.495 . S
C1165 H1171 0.959 . S
C1165 H1172 0.961 . S
C1165 H1173 0.960 . S
C1166 C1164 1.381 . S
C1166 C1167 1.394 . S
C1166 H1174 0.930 . S
C1167 C1166 1.394 . S
C1167 C1168 1.383 . S
C1167 H1175 0.929 . S
C1168 C1167 1.383 . S
C1168 C1169 1.377 . S
C1169 H1153 0.930 . S
C1169 C1168 1.377 . S
C1169 C1170 1.379 . S
C1170 H1154 0.931 . S
C1170 C1164 1.383 . S
C1170 C1169 1.379 . S
H1171 C1165 0.959 . S
H1172 C1165 0.961 . S
H1173 C1165 0.960 . S
H1174 C1166 0.930 . S
H1175 C1167 0.929 . S
H1176 C1184 0.929 . S
H1177 C1186 0.930 . S
H1178 C1188 0.930 . S
H1179 C1191 0.929 . S
H1180 C1194 0.930 . S
H1181 C1196 0.960 . S
H1182 C1196 0.960 . S
H1183 C1196 0.960 . S
C1184 H1176 0.929 . S
C1184 C1185 1.377 . S
C1184 C1186 1.384 . S
C1185 C1184 1.377 . S
C1185 C1191 1.390 . S
C1186 H1177 0.930 . S
C1186 C1184 1.384 . S
C1186 C1187 1.372 . S
C1187 C1186 1.372 . S
C1187 C1188 1.400 . S
C1187 C1192 1.490 . S
C1188 H1178 0.930 . S
C1188 C1187 1.400 . S
C1188 C1191 1.386 . S
H1189 C1205 0.930 . S
H1190 C1206 0.931 . S
C1191 H1179 0.929 . S
C1191 C1185 1.390 . S
C1191 C1188 1.386 . S
C1192 C1187 1.490 . S
C1192 C1194 1.395 . S
C1192 C1195 1.403 . S
H1193 C1199 0.930 . S
C1194 H1180 0.930 . S
C1194 C1192 1.395 . S
C1194 C1197 1.403 . S
C1195 C1192 1.403 . S
C1195 C1196 1.524 . S
C1195 C1199 1.400 . S
C1196 H1181 0.960 . S
C1196 H1182 0.960 . S
C1196 H1183 0.960 . S
C1196 C1195 1.524 . S
C1197 C1194 1.403 . S
C1197 C1198 1.392 . S
C1197 C1201 1.495 . S
C1198 C1197 1.392 . S
C1198 C1199 1.385 . S
C1198 C1200 1.478 . S
C1199 H1193 0.930 . S
C1199 C1195 1.400 . S
C1199 C1198 1.385 . S
C1200 C1198 1.478 . S
C1200 C1202 1.381 . S
C1200 C1206 1.383 . S
C1201 C1197 1.495 . S
C1201 H1207 0.959 . S
C1201 H1208 0.961 . S
C1201 H1209 0.960 . S
C1202 C1200 1.381 . S
C1202 C1203 1.394 . S
C1202 H1210 0.930 . S
C1203 C1202 1.394 . S
C1203 C1204 1.383 . S
C1203 H1211 0.929 . S
C1204 C1203 1.383 . S
C1204 C1205 1.377 . S
C1205 H1189 0.930 . S
C1205 C1204 1.377 . S
C1205 C1206 1.379 . S
C1206 H1190 0.931 . S
C1206 C1200 1.383 . S
C1206 C1205 1.379 . S
H1207 C1201 0.959 . S
H1208 C1201 0.961 . S
H1209 C1201 0.960 . S
H1210 C1202 0.930 . S
H1211 C1203 0.929 . S
H1212 C1220 0.929 . S
H1213 C1222 0.930 . S
H1214 C1224 0.930 . S
H1215 C1227 0.929 . S
H1216 C1230 0.930 . S
H1217 C1232 0.960 . S
H1218 C1232 0.960 . S
H1219 C1232 0.960 . S
C1220 H1212 0.929 . S
C1220 C1221 1.377 . S
C1220 C1222 1.384 . S
C1221 C1220 1.377 . S
C1221 C1227 1.390 . S
C1222 H1213 0.930 . S
C1222 C1220 1.384 . S
C1222 C1223 1.372 . S
C1223 C1222 1.372 . S
C1223 C1224 1.400 . S
C1223 C1228 1.490 . S
C1224 H1214 0.930 . S
C1224 C1223 1.400 . S
C1224 C1227 1.386 . S
H1225 C1241 0.930 . S
H1226 C1242 0.931 . S
C1227 H1215 0.929 . S
C1227 C1221 1.390 . S
C1227 C1224 1.386 . S
C1228 C1223 1.490 . S
C1228 C1230 1.395 . S
C1228 C1231 1.403 . S
H1229 C1235 0.930 . S
C1230 H1216 0.930 . S
C1230 C1228 1.395 . S
C1230 C1233 1.403 . S
C1231 C1228 1.403 . S
C1231 C1232 1.524 . S
C1231 C1235 1.400 . S
C1232 H1217 0.960 . S
C1232 H1218 0.960 . S
C1232 H1219 0.960 . S
C1232 C1231 1.524 . S
C1233 C1230 1.403 . S
C1233 C1234 1.392 . S
C1233 C1237 1.495 . S
C1234 C1233 1.392 . S
C1234 C1235 1.385 . S
C1234 C1236 1.478 . S
C1235 H1229 0.930 . S
C1235 C1231 1.400 . S
C1235 C1234 1.385 . S
C1236 C1234 1.478 . S
C1236 C1238 1.381 . S
C1236 C1242 1.383 . S
C1237 C1233 1.495 . S
C1237 H1243 0.959 . S
C1237 H1244 0.961 . S
C1237 H1245 0.960 . S
C1238 C1236 1.381 . S
C1238 C1239 1.394 . S
C1238 H1246 0.930 . S
C1239 C1238 1.394 . S
C1239 C1240 1.383 . S
C1239 H1247 0.929 . S
C1240 C1239 1.383 . S
C1240 C1241 1.377 . S
C1241 H1225 0.930 . S
C1241 C1240 1.377 . S
C1241 C1242 1.379 . S
C1242 H1226 0.931 . S
C1242 C1236 1.383 . S
C1242 C1241 1.379 . S
H1243 C1237 0.959 . S
H1244 C1237 0.961 . S
H1245 C1237 0.960 . S
H1246 C1238 0.930 . S
H1247 C1239 0.929 . S
H1248 C1256 0.929 . S
H1249 C1258 0.930 . S
H1250 C1260 0.930 . S
H1251 C1263 0.929 . S
H1252 C1266 0.930 . S
H1253 C1268 0.960 . S
H1254 C1268 0.960 . S
H1255 C1268 0.960 . S
C1256 H1248 0.929 . S
C1256 C1257 1.377 . S
C1256 C1258 1.384 . S
C1257 C1256 1.377 . S
C1257 C1263 1.390 . S
C1258 H1249 0.930 . S
C1258 C1256 1.384 . S
C1258 C1259 1.372 . S
C1259 C1258 1.372 . S
C1259 C1260 1.400 . S
C1259 C1264 1.490 . S
C1260 H1250 0.930 . S
C1260 C1259 1.400 . S
C1260 C1263 1.386 . S
H1261 C1277 0.930 . S
H1262 C1278 0.931 . S
C1263 H1251 0.929 . S
C1263 C1257 1.390 . S
C1263 C1260 1.386 . S
C1264 C1259 1.490 . S
C1264 C1266 1.395 . S
C1264 C1267 1.403 . S
H1265 C1271 0.930 . S
C1266 H1252 0.930 . S
C1266 C1264 1.395 . S
C1266 C1269 1.403 . S
C1267 C1264 1.403 . S
C1267 C1268 1.524 . S
C1267 C1271 1.400 . S
C1268 H1253 0.960 . S
C1268 H1254 0.960 . S
C1268 H1255 0.960 . S
C1268 C1267 1.524 . S
C1269 C1266 1.403 . S
C1269 C1270 1.392 . S
C1269 C1273 1.495 . S
C1270 C1269 1.392 . S
C1270 C1271 1.385 . S
C1270 C1272 1.478 . S
C1271 H1265 0.930 . S
C1271 C1267 1.400 . S
C1271 C1270 1.385 . S
C1272 C1270 1.478 . S
C1272 C1274 1.381 . S
C1272 C1278 1.383 . S
C1273 C1269 1.495 . S
C1273 H1279 0.959 . S
C1273 H1280 0.961 . S
C1273 H1281 0.960 . S
C1274 C1272 1.381 . S
C1274 C1275 1.394 . S
C1274 H1282 0.930 . S
C1275 C1274 1.394 . S
C1275 C1276 1.383 . S
C1275 H1283 0.929 . S
C1276 C1275 1.383 . S
C1276 C1277 1.377 . S
C1277 H1261 0.930 . S
C1277 C1276 1.377 . S
C1277 C1278 1.379 . S
C1278 H1262 0.931 . S
C1278 C1272 1.383 . S
C1278 C1277 1.379 . S
H1279 C1273 0.959 . S
H1280 C1273 0.961 . S
H1281 C1273 0.960 . S
H1282 C1274 0.930 . S
H1283 C1275 0.929 . S
H1284 C1292 0.929 . S
H1285 C1294 0.930 . S
H1286 C1296 0.930 . S
H1287 C1299 0.929 . S
H1288 C1302 0.930 . S
H1289 C1304 0.960 . S
H1290 C1304 0.960 . S
H1291 C1304 0.960 . S
C1292 H1284 0.929 . S
C1292 C1293 1.377 . S
C1292 C1294 1.384 . S
C1293 C1292 1.377 . S
C1293 C1299 1.390 . S
C1294 H1285 0.930 . S
C1294 C1292 1.384 . S
C1294 C1295 1.372 . S
C1295 C1294 1.372 . S
C1295 C1296 1.400 . S
C1295 C1300 1.490 . S
C1296 H1286 0.930 . S
C1296 C1295 1.400 . S
C1296 C1299 1.386 . S
H1297 C1313 0.930 . S
H1298 C1314 0.931 . S
C1299 H1287 0.929 . S
C1299 C1293 1.390 . S
C1299 C1296 1.386 . S
C1300 C1295 1.490 . S
C1300 C1302 1.395 . S
C1300 C1303 1.403 . S
H1301 C1307 0.930 . S
C1302 H1288 0.930 . S
C1302 C1300 1.395 . S
C1302 C1305 1.403 . S
C1303 C1300 1.403 . S
C1303 C1304 1.524 . S
C1303 C1307 1.400 . S
C1304 H1289 0.960 . S
C1304 H1290 0.960 . S
C1304 H1291 0.960 . S
C1304 C1303 1.524 . S
C1305 C1302 1.403 . S
C1305 C1306 1.392 . S
C1305 C1309 1.495 . S
C1306 C1305 1.392 . S
C1306 C1307 1.385 . S
C1306 C1308 1.478 . S
C1307 H1301 0.930 . S
C1307 C1303 1.400 . S
C1307 C1306 1.385 . S
C1308 C1306 1.478 . S
C1308 C1310 1.381 . S
C1308 C1314 1.383 . S
C1309 C1305 1.495 . S
C1309 H1315 0.959 . S
C1309 H1316 0.961 . S
C1309 H1317 0.960 . S
C1310 C1308 1.381 . S
C1310 C1311 1.394 . S
C1310 H1318 0.930 . S
C1311 C1310 1.394 . S
C1311 C1312 1.383 . S
C1311 H1319 0.929 . S
C1312 C1311 1.383 . S
C1312 C1313 1.377 . S
C1313 H1297 0.930 . S
C1313 C1312 1.377 . S
C1313 C1314 1.379 . S
C1314 H1298 0.931 . S
C1314 C1308 1.383 . S
C1314 C1313 1.379 . S
H1315 C1309 0.959 . S
H1316 C1309 0.961 . S
H1317 C1309 0.960 . S
H1318 C1310 0.930 . S
H1319 C1311 0.929 . S
H1320 C1328 0.929 . S
H1321 C1330 0.930 . S
H1322 C1332 0.930 . S
H1323 C1335 0.929 . S
H1324 C1338 0.930 . S
H1325 C1340 0.960 . S
H1326 C1340 0.960 . S
H1327 C1340 0.960 . S
C1328 H1320 0.929 . S
C1328 C1329 1.377 . S
C1328 C1330 1.384 . S
C1329 C1328 1.377 . S
C1329 C1335 1.390 . S
C1330 H1321 0.930 . S
C1330 C1328 1.384 . S
C1330 C1331 1.372 . S
C1331 C1330 1.372 . S
C1331 C1332 1.400 . S
C1331 C1336 1.490 . S
C1332 H1322 0.930 . S
C1332 C1331 1.400 . S
C1332 C1335 1.386 . S
H1333 C1349 0.930 . S
H1334 C1350 0.931 . S
C1335 H1323 0.929 . S
C1335 C1329 1.390 . S
C1335 C1332 1.386 . S
C1336 C1331 1.490 . S
C1336 C1338 1.395 . S
C1336 C1339 1.403 . S
H1337 C1343 0.930 . S
C1338 H1324 0.930 . S
C1338 C1336 1.395 . S
C1338 C1341 1.403 . S
C1339 C1336 1.403 . S
C1339 C1340 1.524 . S
C1339 C1343 1.400 . S
C1340 H1325 0.960 . S
C1340 H1326 0.960 . S
C1340 H1327 0.960 . S
C1340 C1339 1.524 . S
C1341 C1338 1.403 . S
C1341 C1342 1.392 . S
C1341 C1345 1.495 . S
C1342 C1341 1.392 . S
C1342 C1343 1.385 . S
C1342 C1344 1.478 . S
C1343 H1337 0.930 . S
C1343 C1339 1.400 . S
C1343 C1342 1.385 . S
C1344 C1342 1.478 . S
C1344 C1346 1.381 . S
C1344 C1350 1.383 . S
C1345 C1341 1.495 . S
C1345 H1351 0.959 . S
C1345 H1352 0.961 . S
C1345 H1353 0.960 . S
C1346 C1344 1.381 . S
C1346 C1347 1.394 . S
C1346 H1354 0.930 . S
C1347 C1346 1.394 . S
C1347 C1348 1.383 . S
C1347 H1355 0.929 . S
C1348 C1347 1.383 . S
C1348 C1349 1.377 . S
C1349 H1333 0.930 . S
C1349 C1348 1.377 . S
C1349 C1350 1.379 . S
C1350 H1334 0.931 . S
C1350 C1344 1.383 . S
C1350 C1349 1.379 . S
H1351 C1345 0.959 . S
H1352 C1345 0.961 . S
H1353 C1345 0.960 . S
H1354 C1346 0.930 . S
H1355 C1347 0.929 . S
H1356 C1364 0.929 . S
H1357 C1366 0.930 . S
H1358 C1368 0.930 . S
H1359 C1371 0.929 . S
H1360 C1374 0.930 . S
H1361 C1376 0.960 . S
H1362 C1376 0.960 . S
H1363 C1376 0.960 . S
C1364 H1356 0.929 . S
C1364 C1365 1.377 . S
C1364 C1366 1.384 . S
C1365 C1364 1.377 . S
C1365 C1371 1.390 . S
C1366 H1357 0.930 . S
C1366 C1364 1.384 . S
C1366 C1367 1.372 . S
C1367 C1366 1.372 . S
C1367 C1368 1.400 . S
C1367 C1372 1.490 . S
C1368 H1358 0.930 . S
C1368 C1367 1.400 . S
C1368 C1371 1.386 . S
H1369 C1385 0.930 . S
H1370 C1386 0.931 . S
C1371 H1359 0.929 . S
C1371 C1365 1.390 . S
C1371 C1368 1.386 . S
C1372 C1367 1.490 . S
C1372 C1374 1.395 . S
C1372 C1375 1.403 . S
H1373 C1379 0.930 . S
C1374 H1360 0.930 . S
C1374 C1372 1.395 . S
C1374 C1377 1.403 . S
C1375 C1372 1.403 . S
C1375 C1376 1.524 . S
C1375 C1379 1.400 . S
C1376 H1361 0.960 . S
C1376 H1362 0.960 . S
C1376 H1363 0.960 . S
C1376 C1375 1.524 . S
C1377 C1374 1.403 . S
C1377 C1378 1.392 . S
C1377 C1381 1.495 . S
C1378 C1377 1.392 . S
C1378 C1379 1.385 . S
C1378 C1380 1.478 . S
C1379 H1373 0.930 . S
C1379 C1375 1.400 . S
C1379 C1378 1.385 . S
C1380 C1378 1.478 . S
C1380 C1382 1.381 . S
C1380 C1386 1.383 . S
C1381 C1377 1.495 . S
C1381 H1387 0.959 . S
C1381 H1388 0.961 . S
C1381 H1389 0.960 . S
C1382 C1380 1.381 . S
C1382 C1383 1.394 . S
C1382 H1390 0.930 . S
C1383 C1382 1.394 . S
C1383 C1384 1.383 . S
C1383 H1391 0.929 . S
C1384 C1383 1.383 . S
C1384 C1385 1.377 . S
C1385 H1369 0.930 . S
C1385 C1384 1.377 . S
C1385 C1386 1.379 . S
C1386 H1370 0.931 . S
C1386 C1380 1.383 . S
C1386 C1385 1.379 . S
H1387 C1381 0.959 . S
H1388 C1381 0.961 . S
H1389 C1381 0.960 . S
H1390 C1382 0.930 . S
H1391 C1383 0.929 . S
H1392 C1400 0.929 . S
H1393 C1402 0.930 . S
H1394 C1404 0.930 . S
H1395 C1407 0.929 . S
H1396 C1410 0.930 . S
H1397 C1412 0.960 . S
H1398 C1412 0.960 . S
H1399 C1412 0.960 . S
C1400 H1392 0.929 . S
C1400 C1401 1.377 . S
C1400 C1402 1.384 . S
C1401 C1400 1.377 . S
C1401 C1407 1.390 . S
C1402 H1393 0.930 . S
C1402 C1400 1.384 . S
C1402 C1403 1.372 . S
C1403 C1402 1.372 . S
C1403 C1404 1.400 . S
C1403 C1408 1.490 . S
C1404 H1394 0.930 . S
C1404 C1403 1.400 . S
C1404 C1407 1.386 . S
H1405 C1421 0.930 . S
H1406 C1422 0.931 . S
C1407 H1395 0.929 . S
C1407 C1401 1.390 . S
C1407 C1404 1.386 . S
C1408 C1403 1.490 . S
C1408 C1410 1.395 . S
C1408 C1411 1.403 . S
H1409 C1415 0.930 . S
C1410 H1396 0.930 . S
C1410 C1408 1.395 . S
C1410 C1413 1.403 . S
C1411 C1408 1.403 . S
C1411 C1412 1.524 . S
C1411 C1415 1.400 . S
C1412 H1397 0.960 . S
C1412 H1398 0.960 . S
C1412 H1399 0.960 . S
C1412 C1411 1.524 . S
C1413 C1410 1.403 . S
C1413 C1414 1.392 . S
C1413 C1417 1.495 . S
C1414 C1413 1.392 . S
C1414 C1415 1.385 . S
C1414 C1416 1.478 . S
C1415 H1409 0.930 . S
C1415 C1411 1.400 . S
C1415 C1414 1.385 . S
C1416 C1414 1.478 . S
C1416 C1418 1.381 . S
C1416 C1422 1.383 . S
C1417 C1413 1.495 . S
C1417 H1423 0.959 . S
C1417 H1424 0.961 . S
C1417 H1425 0.960 . S
C1418 C1416 1.381 . S
C1418 C1419 1.394 . S
C1418 H1426 0.930 . S
C1419 C1418 1.394 . S
C1419 C1420 1.383 . S
C1419 H1427 0.929 . S
C1420 C1419 1.383 . S
C1420 C1421 1.377 . S
C1421 H1405 0.930 . S
C1421 C1420 1.377 . S
C1421 C1422 1.379 . S
C1422 H1406 0.931 . S
C1422 C1416 1.383 . S
C1422 C1421 1.379 . S
H1423 C1417 0.959 . S
H1424 C1417 0.961 . S
H1425 C1417 0.960 . S
H1426 C1418 0.930 . S
H1427 C1419 0.929 . S
H1428 C1436 0.897 1_565 S
H1429 C1438 0.930 . S
H1430 C1440 0.930 . S
H1431 C1443 0.929 . S
H1432 C1446 0.930 . S
H1433 C1448 0.960 . S
H1434 C1448 0.960 . S
H1435 C1448 0.960 . S
C1436 H1428 0.897 1_545 S
C1436 C1437 1.377 . S
C1436 C1438 1.384 . S
C1437 C1436 1.377 . S
C1437 C1443 1.390 . S
C1438 H1429 0.930 . S
C1438 C1436 1.384 . S
C1438 C1439 1.372 . S
C1439 C1438 1.372 . S
C1439 C1440 1.400 . S
C1439 C1444 1.490 . S
C1440 H1430 0.930 . S
C1440 C1439 1.400 . S
C1440 C1443 1.386 . S
H1441 C1457 0.930 . S
H1442 C1458 0.931 . S
C1443 H1431 0.929 . S
C1443 C1437 1.390 . S
C1443 C1440 1.386 . S
C1444 C1439 1.490 . S
C1444 C1446 1.395 . S
C1444 C1447 1.403 . S
H1445 C1451 0.930 . S
C1446 H1432 0.930 . S
C1446 C1444 1.395 . S
C1446 C1449 1.403 . S
C1447 C1444 1.403 . S
C1447 C1448 1.524 . S
C1447 C1451 1.400 . S
C1448 H1433 0.960 . S
C1448 H1434 0.960 . S
C1448 H1435 0.960 . S
C1448 C1447 1.524 . S
C1449 C1446 1.403 . S
C1449 C1450 1.392 . S
C1449 C1453 1.495 . S
C1450 C1449 1.392 . S
C1450 C1451 1.385 . S
C1450 C1452 1.478 . S
C1451 H1445 0.930 . S
C1451 C1447 1.400 . S
C1451 C1450 1.385 . S
C1452 C1450 1.478 . S
C1452 C1454 1.381 . S
C1452 C1458 1.383 . S
C1453 C1449 1.495 . S
C1453 H1459 0.959 . S
C1453 H1460 0.961 . S
C1453 H1461 0.960 . S
C1454 C1452 1.381 . S
C1454 C1455 1.394 . S
C1454 H1462 0.930 . S
C1455 C1454 1.394 . S
C1455 C1456 1.383 . S
C1455 H1463 0.929 . S
C1456 C1455 1.383 . S
C1456 C1457 1.377 . S
C1457 H1441 0.930 . S
C1457 C1456 1.377 . S
C1457 C1458 1.379 . S
C1458 H1442 0.931 . S
C1458 C1452 1.383 . S
C1458 C1457 1.379 . S
H1459 C1453 0.959 . S
H1460 C1453 0.961 . S
H1461 C1453 0.960 . S
H1462 C1454 0.930 . S
H1463 C1455 0.929 . S
H1464 C1472 0.929 . S
H1465 C1474 0.930 . S
H1466 C1476 0.930 . S
H1467 C1479 0.929 . S
H1468 C1482 0.930 . S
H1469 C1484 0.960 . S
H1470 C1484 0.960 . S
H1471 C1484 0.960 . S
C1472 H1464 0.929 . S
C1472 C1473 1.377 . S
C1472 C1474 1.384 . S
C1473 C1472 1.377 . S
C1473 C1479 1.390 . S
C1474 H1465 0.930 . S
C1474 C1472 1.384 . S
C1474 C1475 1.372 . S
C1475 C1474 1.372 . S
C1475 C1476 1.400 . S
C1475 C1480 1.490 . S
C1476 H1466 0.930 . S
C1476 C1475 1.400 . S
C1476 C1479 1.386 . S
H1477 C1493 0.930 . S
H1478 C1494 0.931 . S
C1479 H1467 0.929 . S
C1479 C1473 1.390 . S
C1479 C1476 1.386 . S
C1480 C1475 1.490 . S
C1480 C1482 1.395 . S
C1480 C1483 1.403 . S
H1481 C1487 0.930 . S
C1482 H1468 0.930 . S
C1482 C1480 1.395 . S
C1482 C1485 1.403 . S
C1483 C1480 1.403 . S
C1483 C1484 1.524 . S
C1483 C1487 1.400 . S
C1484 H1469 0.960 . S
C1484 H1470 0.960 . S
C1484 H1471 0.960 . S
C1484 C1483 1.524 . S
C1485 C1482 1.403 . S
C1485 C1486 1.392 . S
C1485 C1489 1.495 . S
C1486 C1485 1.392 . S
C1486 C1487 1.385 . S
C1486 C1488 1.478 . S
C1487 H1481 0.930 . S
C1487 C1483 1.400 . S
C1487 C1486 1.385 . S
C1488 C1486 1.478 . S
C1488 C1490 1.381 . S
C1488 C1494 1.383 . S
C1489 C1485 1.495 . S
C1489 H1495 0.959 . S
C1489 H1496 0.961 . S
C1489 H1497 0.960 . S
C1490 C1488 1.381 . S
C1490 C1491 1.394 . S
C1490 H1498 0.930 . S
C1491 C1490 1.394 . S
C1491 C1492 1.383 . S
C1491 H1499 0.929 . S
C1492 C1491 1.383 . S
C1492 C1493 1.377 . S
C1493 H1477 0.930 . S
C1493 C1492 1.377 . S
C1493 C1494 1.379 . S
C1494 H1478 0.931 . S
C1494 C1488 1.383 . S
C1494 C1493 1.379 . S
H1495 C1489 0.959 . S
H1496 C1489 0.961 . S
H1497 C1489 0.960 . S
H1498 C1490 0.930 . S
H1499 C1491 0.929 . S
H1500 C1508 0.929 . S
H1501 C1510 0.930 . S
H1502 C1512 0.930 . S
H1503 C1515 0.929 . S
H1504 C1518 0.930 . S
H1505 C1520 0.960 . S
H1506 C1520 0.960 . S
H1507 C1520 0.960 . S
C1508 H1500 0.929 . S
C1508 C1509 1.377 . S
C1508 C1510 1.384 . S
C1509 C1508 1.377 . S
C1509 C1515 1.390 . S
C1510 H1501 0.930 . S
C1510 C1508 1.384 . S
C1510 C1511 1.372 . S
C1511 C1510 1.372 . S
C1511 C1512 1.400 . S
C1511 C1516 1.490 . S
C1512 H1502 0.930 . S
C1512 C1511 1.400 . S
C1512 C1515 1.386 . S
H1513 C1529 0.930 . S
H1514 C1530 0.931 . S
C1515 H1503 0.929 . S
C1515 C1509 1.390 . S
C1515 C1512 1.386 . S
C1516 C1511 1.490 . S
C1516 C1518 1.395 . S
C1516 C1519 1.403 . S
H1517 C1523 0.930 . S
C1518 H1504 0.930 . S
C1518 C1516 1.395 . S
C1518 C1521 1.403 . S
C1519 C1516 1.403 . S
C1519 C1520 1.524 . S
C1519 C1523 1.400 . S
C1520 H1505 0.960 . S
C1520 H1506 0.960 . S
C1520 H1507 0.960 . S
C1520 C1519 1.524 . S
C1521 C1518 1.403 . S
C1521 C1522 1.392 . S
C1521 C1525 1.495 . S
C1522 C1521 1.392 . S
C1522 C1523 1.385 . S
C1522 C1524 1.478 . S
C1523 H1517 0.930 . S
C1523 C1519 1.400 . S
C1523 C1522 1.385 . S
C1524 C1522 1.478 . S
C1524 C1526 1.381 . S
C1524 C1530 1.383 . S
C1525 C1521 1.495 . S
C1525 H1531 0.959 . S
C1525 H1532 0.961 . S
C1525 H1533 0.960 . S
C1526 C1524 1.381 . S
C1526 C1527 1.394 . S
C1526 H1534 0.930 . S
C1527 C1526 1.394 . S
C1527 C1528 1.383 . S
C1527 H1535 0.929 . S
C1528 C1527 1.383 . S
C1528 C1529 1.377 . S
C1529 H1513 0.930 . S
C1529 C1528 1.377 . S
C1529 C1530 1.379 . S
C1530 H1514 0.931 . S
C1530 C1524 1.383 . S
C1530 C1529 1.379 . S
H1531 C1525 0.959 . S
H1532 C1525 0.961 . S
H1533 C1525 0.960 . S
H1534 C1526 0.930 . S
H1535 C1527 0.929 . S
H1536 C1544 0.929 . S
H1537 C1546 0.930 . S
H1538 C1548 0.930 . S
H1539 C1551 0.929 . S
H1540 C1554 0.930 . S
H1541 C1556 0.960 . S
H1542 C1556 0.960 . S
H1543 C1556 0.960 . S
C1544 H1536 0.929 . S
C1544 C1545 1.377 . S
C1544 C1546 1.384 . S
C1545 C1544 1.377 . S
C1545 C1551 1.390 . S
C1546 H1537 0.930 . S
C1546 C1544 1.384 . S
C1546 C1547 1.372 . S
C1547 C1546 1.372 . S
C1547 C1548 1.400 . S
C1547 C1552 1.490 . S
C1548 H1538 0.930 . S
C1548 C1547 1.400 . S
C1548 C1551 1.386 . S
H1549 C1565 0.930 . S
H1550 C1566 0.931 . S
C1551 H1539 0.929 . S
C1551 C1545 1.390 . S
C1551 C1548 1.386 . S
C1552 C1547 1.490 . S
C1552 C1554 1.395 . S
C1552 C1555 1.403 . S
H1553 C1559 0.930 . S
C1554 H1540 0.930 . S
C1554 C1552 1.395 . S
C1554 C1557 1.403 . S
C1555 C1552 1.403 . S
C1555 C1556 1.524 . S
C1555 C1559 1.400 . S
C1556 H1541 0.960 . S
C1556 H1542 0.960 . S
C1556 H1543 0.960 . S
C1556 C1555 1.524 . S
C1557 C1554 1.403 . S
C1557 C1558 1.392 . S
C1557 C1561 1.495 . S
C1558 C1557 1.392 . S
C1558 C1559 1.385 . S
C1558 C1560 1.478 . S
C1559 H1553 0.930 . S
C1559 C1555 1.400 . S
C1559 C1558 1.385 . S
C1560 C1558 1.478 . S
C1560 C1562 1.381 . S
C1560 C1566 1.383 . S
C1561 C1557 1.495 . S
C1561 H1567 0.959 . S
C1561 H1568 0.961 . S
C1561 H1569 0.960 . S
C1562 C1560 1.381 . S
C1562 C1563 1.394 . S
C1562 H1570 0.930 . S
C1563 C1562 1.394 . S
C1563 C1564 1.383 . S
C1563 H1571 0.929 . S
C1564 C1563 1.383 . S
C1564 C1565 1.377 . S
C1565 H1549 0.930 . S
C1565 C1564 1.377 . S
C1565 C1566 1.379 . S
C1566 H1550 0.931 . S
C1566 C1560 1.383 . S
C1566 C1565 1.379 . S
H1567 C1561 0.959 . S
H1568 C1561 0.961 . S
H1569 C1561 0.960 . S
H1570 C1562 0.930 . S
H1571 C1563 0.929 . S
H1572 C1580 0.929 . S
H1573 C1582 0.930 . S
H1574 C1584 0.930 . S
H1575 C1587 0.929 . S
H1576 C1590 0.930 . S
H1577 C1592 0.960 . S
H1578 C1592 0.960 . S
H1579 C1592 0.960 . S
C1580 H1572 0.929 . S
C1580 C1581 1.377 . S
C1580 C1582 1.384 . S
C1581 C1580 1.377 . S
C1581 C1587 1.390 . S
C1582 H1573 0.930 . S
C1582 C1580 1.384 . S
C1582 C1583 1.372 . S
C1583 C1582 1.372 . S
C1583 C1584 1.400 . S
C1583 C1588 1.490 . S
C1584 H1574 0.930 . S
C1584 C1583 1.400 . S
C1584 C1587 1.386 . S
H1585 C1601 0.930 . S
H1586 C1602 0.931 . S
C1587 H1575 0.929 . S
C1587 C1581 1.390 . S
C1587 C1584 1.386 . S
C1588 C1583 1.490 . S
C1588 C1590 1.395 . S
C1588 C1591 1.403 . S
H1589 C1595 0.930 . S
C1590 H1576 0.930 . S
C1590 C1588 1.395 . S
C1590 C1593 1.403 . S
C1591 C1588 1.403 . S
C1591 C1592 1.524 . S
C1591 C1595 1.400 . S
C1592 H1577 0.960 . S
C1592 H1578 0.960 . S
C1592 H1579 0.960 . S
C1592 C1591 1.524 . S
C1593 C1590 1.403 . S
C1593 C1594 1.392 . S
C1593 C1597 1.495 . S
C1594 C1593 1.392 . S
C1594 C1595 1.385 . S
C1594 C1596 1.478 . S
C1595 H1589 0.930 . S
C1595 C1591 1.400 . S
C1595 C1594 1.385 . S
C1596 C1594 1.478 . S
C1596 C1598 1.381 . S
C1596 C1602 1.383 . S
C1597 C1593 1.495 . S
C1597 H1603 0.959 . S
C1597 H1604 0.961 . S
C1597 H1605 0.960 . S
C1598 C1596 1.381 . S
C1598 C1599 1.394 . S
C1598 H1606 0.930 . S
C1599 C1598 1.394 . S
C1599 C1600 1.383 . S
C1599 H1607 0.929 . S
C1600 C1599 1.383 . S
C1600 C1601 1.377 . S
C1601 H1585 0.930 . S
C1601 C1600 1.377 . S
C1601 C1602 1.379 . S
C1602 H1586 0.931 . S
C1602 C1596 1.383 . S
C1602 C1601 1.379 . S
H1603 C1597 0.959 . S
H1604 C1597 0.961 . S
H1605 C1597 0.960 . S
H1606 C1598 0.930 . S
H1607 C1599 0.929 . S
H1608 C1616 0.929 . S
H1609 C1618 0.930 . S
H1610 C1620 0.930 . S
H1611 C1623 0.929 . S
H1612 C1626 0.930 . S
H1613 C1628 0.960 . S
H1614 C1628 0.960 . S
H1615 C1628 0.960 . S
C1616 H1608 0.929 . S
C1616 C1617 1.377 . S
C1616 C1618 1.384 . S
C1617 C1616 1.377 . S
C1617 C1623 1.390 . S
C1618 H1609 0.930 . S
C1618 C1616 1.384 . S
C1618 C1619 1.372 . S
C1619 C1618 1.372 . S
C1619 C1620 1.400 . S
C1619 C1624 1.490 . S
C1620 H1610 0.930 . S
C1620 C1619 1.400 . S
C1620 C1623 1.386 . S
H1621 C1637 0.930 . S
H1622 C1638 0.931 . S
C1623 H1611 0.929 . S
C1623 C1617 1.390 . S
C1623 C1620 1.386 . S
C1624 C1619 1.490 . S
C1624 C1626 1.395 . S
C1624 C1627 1.403 . S
H1625 C1631 0.930 . S
C1626 H1612 0.930 . S
C1626 C1624 1.395 . S
C1626 C1629 1.403 . S
C1627 C1624 1.403 . S
C1627 C1628 1.524 . S
C1627 C1631 1.400 . S
C1628 H1613 0.960 . S
C1628 H1614 0.960 . S
C1628 H1615 0.960 . S
C1628 C1627 1.524 . S
C1629 C1626 1.403 . S
C1629 C1630 1.392 . S
C1629 C1633 1.495 . S
C1630 C1629 1.392 . S
C1630 C1631 1.385 . S
C1630 C1632 1.478 . S
C1631 H1625 0.930 . S
C1631 C1627 1.400 . S
C1631 C1630 1.385 . S
C1632 C1630 1.478 . S
C1632 C1634 1.381 . S
C1632 C1638 1.383 . S
C1633 C1629 1.495 . S
C1633 H1639 0.959 . S
C1633 H1640 0.961 . S
C1633 H1641 0.960 . S
C1634 C1632 1.381 . S
C1634 C1635 1.394 . S
C1634 H1642 0.930 . S
C1635 C1634 1.394 . S
C1635 C1636 1.383 . S
C1635 H1643 0.929 . S
C1636 C1635 1.383 . S
C1636 C1637 1.377 . S
C1637 H1621 0.930 . S
C1637 C1636 1.377 . S
C1637 C1638 1.379 . S
C1638 H1622 0.931 . S
C1638 C1632 1.383 . S
C1638 C1637 1.379 . S
H1639 C1633 0.959 . S
H1640 C1633 0.961 . S
H1641 C1633 0.960 . S
H1642 C1634 0.930 . S
H1643 C1635 0.929 . S
H1644 C1652 0.929 . S
H1645 C1654 0.930 . S
H1646 C1656 0.930 . S
H1647 C1659 0.929 . S
H1648 C1662 0.930 . S
H1649 C1664 0.960 . S
H1650 C1664 0.960 . S
H1651 C1664 0.960 . S
C1652 H1644 0.929 . S
C1652 C1653 1.377 . S
C1652 C1654 1.384 . S
C1653 C1652 1.377 . S
C1653 C1659 1.390 . S
C1654 H1645 0.930 . S
C1654 C1652 1.384 . S
C1654 C1655 1.372 . S
C1655 C1654 1.372 . S
C1655 C1656 1.400 . S
C1655 C1660 1.490 . S
C1656 H1646 0.930 . S
C1656 C1655 1.400 . S
C1656 C1659 1.386 . S
H1657 C1673 0.930 . S
H1658 C1674 0.931 . S
C1659 H1647 0.929 . S
C1659 C1653 1.390 . S
C1659 C1656 1.386 . S
C1660 C1655 1.490 . S
C1660 C1662 1.395 . S
C1660 C1663 1.403 . S
H1661 C1667 0.930 . S
C1662 H1648 0.930 . S
C1662 C1660 1.395 . S
C1662 C1665 1.403 . S
C1663 C1660 1.403 . S
C1663 C1664 1.524 . S
C1663 C1667 1.400 . S
C1664 H1649 0.960 . S
C1664 H1650 0.960 . S
C1664 H1651 0.960 . S
C1664 C1663 1.524 . S
C1665 C1662 1.403 . S
C1665 C1666 1.392 . S
C1665 C1669 1.495 . S
C1666 C1665 1.392 . S
C1666 C1667 1.385 . S
C1666 C1668 1.478 . S
C1667 H1661 0.930 . S
C1667 C1663 1.400 . S
C1667 C1666 1.385 . S
C1668 C1666 1.478 . S
C1668 C1670 1.381 . S
C1668 C1674 1.383 . S
C1669 C1665 1.495 . S
C1669 H1675 0.959 . S
C1669 H1676 0.961 . S
C1669 H1677 0.960 . S
C1670 C1668 1.381 . S
C1670 C1671 1.394 . S
C1670 H1678 0.930 . S
C1671 C1670 1.394 . S
C1671 C1672 1.383 . S
C1671 H1679 0.929 . S
C1672 C1671 1.383 . S
C1672 C1673 1.377 . S
C1673 H1657 0.930 . S
C1673 C1672 1.377 . S
C1673 C1674 1.379 . S
C1674 H1658 0.931 . S
C1674 C1668 1.383 . S
C1674 C1673 1.379 . S
H1675 C1669 0.959 . S
H1676 C1669 0.961 . S
H1677 C1669 0.960 . S
H1678 C1670 0.930 . S
H1679 C1671 0.929 . S
H1680 C1688 0.929 . S
H1681 C1690 0.930 . S
H1682 C1692 0.930 . S
H1683 C1695 0.929 . S
H1684 C1698 0.930 . S
H1685 C1700 0.960 . S
H1686 C1700 0.960 . S
H1687 C1700 0.960 . S
C1688 H1680 0.929 . S
C1688 C1689 1.377 . S
C1688 C1690 1.384 . S
C1689 C1688 1.377 . S
C1689 C1695 1.390 1_545 S
C1690 H1681 0.930 . S
C1690 C1688 1.384 . S
C1690 C1691 1.379 . S
C1691 C1690 1.379 . S
C1691 C1692 1.392 1_545 S
C1691 C1696 1.491 . S
C1692 H1682 0.930 . S
C1692 C1691 1.392 1_565 S
C1692 C1695 1.386 . S
H1693 C1709 0.930 . S
H1694 C1710 0.931 . S
C1695 H1683 0.929 . S
C1695 C1689 1.390 1_565 S
C1695 C1692 1.386 . S
C1696 C1691 1.491 . S
C1696 C1698 1.395 . S
C1696 C1699 1.403 1_545 S
H1697 C1703 0.930 . S
C1698 H1684 0.930 . S
C1698 C1696 1.395 . S
C1698 C1701 1.403 . S
C1699 C1696 1.403 1_565 S
C1699 C1700 1.524 . S
C1699 C1703 1.400 . S
C1700 H1685 0.960 . S
C1700 H1686 0.960 . S
C1700 H1687 0.960 . S
C1700 C1699 1.524 . S
C1701 C1698 1.403 . S
C1701 C1702 1.392 . S
C1701 C1705 1.495 . S
C1702 C1701 1.392 . S
C1702 C1703 1.385 1_545 S
C1702 C1704 1.478 . S
C1703 H1697 0.930 . S
C1703 C1699 1.400 . S
C1703 C1702 1.385 1_565 S
C1704 C1702 1.478 . S
C1704 C1706 1.381 . S
C1704 C1710 1.383 1_545 S
C1705 C1701 1.495 . S
C1705 H1711 0.959 . S
C1705 H1712 0.961 . S
C1705 H1713 0.960 . S
C1706 C1704 1.381 . S
C1706 C1707 1.394 . S
C1706 H1714 0.930 . S
C1707 C1706 1.394 . S
C1707 C1708 1.383 . S
C1707 H1715 0.929 . S
C1708 C1707 1.383 . S
C1708 C1709 1.377 1_545 S
C1709 H1693 0.930 . S
C1709 C1708 1.377 1_565 S
C1709 C1710 1.379 . S
C1710 H1694 0.931 . S
C1710 C1704 1.383 1_565 S
C1710 C1709 1.379 . S
H1711 C1705 0.959 . S
H1712 C1705 0.961 . S
H1713 C1705 0.960 . S
H1714 C1706 0.930 . S
H1715 C1707 0.929 . S
H1716 C1724 0.929 1_554 S
H1717 C1726 0.930 1_554 S
H1718 C1728 0.930 . S
H1719 C1731 0.929 . S
H1720 C1734 0.930 . S
H1721 C1736 0.960 . S
H1722 C1736 0.960 . S
H1723 C1736 0.960 . S
C1724 H1716 0.929 1_556 S
C1724 C1725 1.377 . S
C1724 C1726 1.384 . S
C1725 C1724 1.377 . S
C1725 C1731 1.390 . S
C1726 H1717 0.930 1_556 S
C1726 C1724 1.384 . S
C1726 C1727 1.372 . S
C1727 C1726 1.372 . S
C1727 C1728 1.400 . S
C1727 C1732 1.490 . S
C1728 H1718 0.930 . S
C1728 C1727 1.400 . S
C1728 C1731 1.386 . S
H1729 C1745 0.930 . S
H1730 C1746 0.931 . S
C1731 H1719 0.929 . S
C1731 C1725 1.390 . S
C1731 C1728 1.386 . S
C1732 C1727 1.490 . S
C1732 C1734 1.395 . S
C1732 C1735 1.403 . S
H1733 C1739 0.930 . S
C1734 H1720 0.930 . S
C1734 C1732 1.395 . S
C1734 C1737 1.403 . S
C1735 C1732 1.403 . S
C1735 C1736 1.524 . S
C1735 C1739 1.400 . S
C1736 H1721 0.960 . S
C1736 H1722 0.960 . S
C1736 H1723 0.960 . S
C1736 C1735 1.524 . S
C1737 C1734 1.403 . S
C1737 C1738 1.392 . S
C1737 C1741 1.495 . S
C1738 C1737 1.392 . S
C1738 C1739 1.385 . S
C1738 C1740 1.478 . S
C1739 H1733 0.930 . S
C1739 C1735 1.400 . S
C1739 C1738 1.385 . S
C1740 C1738 1.478 . S
C1740 C1742 1.381 . S
C1740 C1746 1.383 . S
C1741 C1737 1.495 . S
C1741 H1747 0.959 1_556 S
C1741 H1748 0.961 . S
C1741 H1749 0.960 1_556 S
C1742 C1740 1.381 . S
C1742 C1743 1.394 . S
C1742 H1750 0.930 1_556 S
C1743 C1742 1.394 . S
C1743 C1744 1.383 . S
C1743 H1751 0.929 1_556 S
C1744 C1743 1.383 . S
C1744 C1745 1.377 . S
C1745 H1729 0.930 . S
C1745 C1744 1.377 . S
C1745 C1746 1.379 . S
C1746 H1730 0.931 . S
C1746 C1740 1.383 . S
C1746 C1745 1.379 . S
H1747 C1741 0.959 1_554 S
H1748 C1741 0.961 . S
H1749 C1741 0.960 1_554 S
H1750 C1742 0.930 1_554 S
H1751 C1743 0.929 1_554 S
H1752 C1760 0.929 . S
H1753 C1762 0.930 . S
H1754 C1764 0.930 . S
H1755 C1767 0.929 . S
H1756 C1770 0.930 . S
H1757 C1772 0.960 . S
H1758 C1772 0.960 . S
H1759 C1772 0.960 . S
C1760 H1752 0.929 . S
C1760 C1761 1.377 . S
C1760 C1762 1.384 . S
C1761 C1760 1.377 . S
C1761 C1767 1.390 . S
C1762 H1753 0.930 . S
C1762 C1760 1.384 . S
C1762 C1763 1.372 . S
C1763 C1762 1.372 . S
C1763 C1764 1.400 . S
C1763 C1768 1.490 . S
C1764 H1754 0.930 . S
C1764 C1763 1.400 . S
C1764 C1767 1.386 . S
H1765 C1781 0.930 . S
H1766 C1782 0.931 . S
C1767 H1755 0.929 . S
C1767 C1761 1.390 . S
C1767 C1764 1.386 . S
C1768 C1763 1.490 . S
C1768 C1770 1.395 . S
C1768 C1771 1.403 . S
H1769 C1775 0.930 . S
C1770 H1756 0.930 . S
C1770 C1768 1.395 . S
C1770 C1773 1.403 . S
C1771 C1768 1.403 . S
C1771 C1772 1.524 . S
C1771 C1775 1.400 . S
C1772 H1757 0.960 . S
C1772 H1758 0.960 . S
C1772 H1759 0.960 . S
C1772 C1771 1.524 . S
C1773 C1770 1.403 . S
C1773 C1774 1.392 . S
C1773 C1777 1.495 . S
C1774 C1773 1.392 . S
C1774 C1775 1.385 . S
C1774 C1776 1.478 . S
C1775 H1769 0.930 . S
C1775 C1771 1.400 . S
C1775 C1774 1.385 . S
C1776 C1774 1.478 . S
C1776 C1778 1.381 . S
C1776 C1782 1.383 . S
C1777 C1773 1.495 . S
C1777 H1783 0.959 . S
C1777 H1784 0.961 . S
C1777 H1785 0.960 . S
C1778 C1776 1.381 . S
C1778 C1779 1.394 . S
C1778 H1786 0.930 . S
C1779 C1778 1.394 . S
C1779 C1780 1.383 . S
C1779 H1787 0.929 . S
C1780 C1779 1.383 . S
C1780 C1781 1.377 . S
C1781 H1765 0.930 . S
C1781 C1780 1.377 . S
C1781 C1782 1.379 . S
C1782 H1766 0.931 . S
C1782 C1776 1.383 . S
C1782 C1781 1.379 . S
H1783 C1777 0.959 . S
H1784 C1777 0.961 . S
H1785 C1777 0.960 . S
H1786 C1778 0.930 . S
H1787 C1779 0.929 . S
H1788 C1796 0.932 1_554 S
H1789 C1798 0.930 1_554 S
H1790 C1800 0.930 . S
H1791 C1803 0.929 1_655 S
H1792 C1806 0.930 . S
H1793 C1808 0.960 . S
H1794 C1808 0.960 . S
H1795 C1808 0.960 . S
C1796 H1788 0.932 1_556 S
C1796 C1797 1.377 . S
C1796 C1798 1.384 . S
C1797 C1796 1.377 . S
C1797 C1803 1.390 . S
C1798 H1789 0.930 1_556 S
C1798 C1796 1.384 . S
C1798 C1799 1.372 . S
C1799 C1798 1.372 . S
C1799 C1800 1.400 . S
C1799 C1804 1.489 1_455 S
C1800 H1790 0.930 . S
C1800 C1799 1.400 . S
C1800 C1803 1.386 . S
H1801 C1817 0.930 . S
H1802 C1818 0.931 . S
C1803 H1791 0.929 1_455 S
C1803 C1797 1.390 . S
C1803 C1800 1.386 . S
C1804 C1799 1.489 1_655 S
C1804 C1806 1.401 . S
C1804 C1807 1.396 1_655 S
H1805 C1811 0.930 . S
C1806 H1792 0.930 . S
C1806 C1804 1.401 . S
C1806 C1809 1.403 . S
C1807 C1804 1.396 1_455 S
C1807 C1808 1.524 . S
C1807 C1811 1.400 . S
C1808 H1793 0.960 . S
C1808 H1794 0.960 . S
C1808 H1795 0.960 . S
C1808 C1807 1.524 . S
C1809 C1806 1.403 . S
C1809 C1810 1.392 . S
C1809 C1813 1.495 1_556 S
C1810 C1809 1.392 . S
C1810 C1811 1.385 1_655 S
C1810 C1812 1.478 . S
C1811 H1805 0.930 . S
C1811 C1807 1.400 . S
C1811 C1810 1.385 1_455 S
C1812 C1810 1.478 . S
C1812 C1814 1.385 . S
C1812 C1818 1.383 . S
C1813 C1809 1.495 1_554 S
C1813 H1819 0.959 . S
C1813 H1820 0.961 1_554 S
C1813 H1821 0.960 . S
C1814 C1812 1.385 . S
C1814 C1815 1.392 1_655 S
C1814 H1822 0.928 1_656 S
C1815 C1814 1.392 1_455 S
C1815 C1816 1.380 1_455 S
C1815 H1823 0.936 1_556 S
C1816 C1815 1.380 1_655 S
C1816 C1817 1.377 . S
C1817 H1801 0.930 . S
C1817 C1816 1.377 . S
C1817 C1818 1.379 . S
C1818 H1802 0.931 . S
C1818 C1812 1.383 . S
C1818 C1817 1.379 . S
H1819 C1813 0.959 . S
H1820 C1813 0.961 1_556 S
H1821 C1813 0.960 . S
H1822 C1814 0.928 1_454 S
H1823 C1815 0.936 1_554 S
H1824 C1832 0.929 . S
H1825 C1834 0.930 . S
H1826 C1836 0.930 . S
H1827 C1839 0.929 . S
H1828 C1842 0.930 . S
H1829 C1844 0.960 . S
H1830 C1844 0.945 1_565 S
H1831 C1844 0.960 . S
C1832 H1824 0.929 . S
C1832 C1833 1.393 . S
C1832 C1834 1.384 . S
C1833 C1832 1.393 . S
C1833 C1839 1.374 1_565 S
C1834 H1825 0.930 . S
C1834 C1832 1.384 . S
C1834 C1835 1.372 . S
C1835 C1834 1.372 . S
C1835 C1836 1.400 1_565 S
C1835 C1840 1.490 . S
C1836 H1826 0.930 . S
C1836 C1835 1.400 1_545 S
C1836 C1839 1.386 . S
H1837 C1853 0.930 . S
H1838 C1854 0.931 . S
C1839 H1827 0.929 . S
C1839 C1833 1.374 1_545 S
C1839 C1836 1.386 . S
C1840 C1835 1.490 . S
C1840 C1842 1.395 . S
C1840 C1843 1.403 1_565 S
H1841 C1847 0.930 . S
C1842 H1828 0.930 . S
C1842 C1840 1.395 . S
C1842 C1845 1.403 . S
C1843 C1840 1.403 1_545 S
C1843 C1844 1.524 . S
C1843 C1847 1.400 . S
C1844 H1829 0.960 . S
C1844 H1830 0.945 1_545 S
C1844 H1831 0.960 . S
C1844 C1843 1.524 . S
C1845 C1842 1.403 . S
C1845 C1846 1.392 . S
C1845 C1849 1.495 . S
C1846 C1845 1.392 . S
C1846 C1847 1.385 1_565 S
C1846 C1848 1.478 . S
C1847 H1841 0.930 . S
C1847 C1843 1.400 . S
C1847 C1846 1.385 1_545 S
C1848 C1846 1.478 . S
C1848 C1850 1.381 . S
C1848 C1854 1.383 1_565 S
C1849 C1845 1.495 . S
C1849 H1855 0.959 . S
C1849 H1856 0.961 . S
C1849 H1857 0.960 . S
C1850 C1848 1.381 . S
C1850 C1851 1.394 . S
C1850 H1858 0.930 . S
C1851 C1850 1.394 . S
C1851 C1852 1.413 . S
C1851 H1859 0.929 . S
C1852 C1851 1.413 . S
C1852 C1853 1.348 1_565 S
C1853 H1837 0.930 . S
C1853 C1852 1.348 1_545 S
C1853 C1854 1.379 . S
C1854 H1838 0.931 . S
C1854 C1848 1.383 1_545 S
C1854 C1853 1.379 . S
H1855 C1849 0.959 . S
H1856 C1849 0.961 . S
H1857 C1849 0.960 . S
H1858 C1850 0.930 . S
H1859 C1851 0.929 . S
H1860 C1868 0.929 . S
H1861 C1870 0.930 . S
H1862 C1872 0.930 . S
H1863 C1875 0.929 . S
H1864 C1878 0.930 . S
H1865 C1880 0.960 . S
H1866 C1880 0.960 . S
H1867 C1880 0.960 . S
C1868 H1860 0.929 . S
C1868 C1869 1.377 . S
C1868 C1870 1.384 . S
C1869 C1868 1.377 . S
C1869 C1875 1.390 . S
C1870 H1861 0.930 . S
C1870 C1868 1.384 . S
C1870 C1871 1.372 . S
C1871 C1870 1.372 . S
C1871 C1872 1.400 . S
C1871 C1876 1.490 . S
C1872 H1862 0.930 . S
C1872 C1871 1.400 . S
C1872 C1875 1.386 . S
H1873 C1889 0.930 . S
H1874 C1890 0.931 . S
C1875 H1863 0.929 . S
C1875 C1869 1.390 . S
C1875 C1872 1.386 . S
C1876 C1871 1.490 . S
C1876 C1878 1.395 . S
C1876 C1879 1.403 . S
H1877 C1883 0.930 1_556 S
C1878 H1864 0.930 . S
C1878 C1876 1.395 . S
C1878 C1881 1.403 . S
C1879 C1876 1.403 . S
C1879 C1880 1.524 1_554 S
C1879 C1883 1.400 . S
C1880 H1865 0.960 . S
C1880 H1866 0.960 . S
C1880 H1867 0.960 . S
C1880 C1879 1.524 1_556 S
C1881 C1878 1.403 . S
C1881 C1882 1.392 . S
C1881 C1885 1.495 . S
C1882 C1881 1.392 . S
C1882 C1883 1.385 . S
C1882 C1884 1.478 . S
C1883 H1877 0.930 1_554 S
C1883 C1879 1.400 . S
C1883 C1882 1.385 . S
C1884 C1882 1.478 . S
C1884 C1886 1.381 . S
C1884 C1890 1.383 . S
C1885 C1881 1.495 . S
C1885 H1891 0.959 . S
C1885 H1892 0.961 . S
C1885 H1893 0.960 . S
C1886 C1884 1.381 . S
C1886 C1887 1.394 . S
C1886 H1894 0.930 . S
C1887 C1886 1.394 . S
C1887 C1888 1.383 . S
C1887 H1895 0.929 . S
C1888 C1887 1.383 . S
C1888 C1889 1.377 . S
C1889 H1873 0.930 . S
C1889 C1888 1.377 . S
C1889 C1890 1.379 . S
C1890 H1874 0.931 . S
C1890 C1884 1.383 . S
C1890 C1889 1.379 . S
H1891 C1885 0.959 . S
H1892 C1885 0.961 . S
H1893 C1885 0.960 . S
H1894 C1886 0.930 . S
H1895 C1887 0.929 . S
H1896 C1904 0.929 . S
H1897 C1906 0.930 . S
H1898 C1908 0.930 . S
H1899 C1911 0.929 . S
H1900 C1914 0.930 . S
H1901 C1916 0.960 . S
H1902 C1916 0.960 . S
H1903 C1916 0.960 . S
C1904 H1896 0.929 . S
C1904 C1905 1.377 . S
C1904 C1906 1.384 . S
C1905 C1904 1.377 . S
C1905 C1911 1.390 . S
C1906 H1897 0.930 . S
C1906 C1904 1.384 . S
C1906 C1907 1.372 . S
C1907 C1906 1.372 . S
C1907 C1908 1.400 . S
C1907 C1912 1.490 . S
C1908 H1898 0.930 . S
C1908 C1907 1.400 . S
C1908 C1911 1.386 . S
H1909 C1925 0.930 . S
H1910 C1926 0.931 . S
C1911 H1899 0.929 . S
C1911 C1905 1.390 . S
C1911 C1908 1.386 . S
C1912 C1907 1.490 . S
C1912 C1914 1.395 . S
C1912 C1915 1.403 . S
H1913 C1919 0.930 . S
C1914 H1900 0.930 . S
C1914 C1912 1.395 . S
C1914 C1917 1.403 . S
C1915 C1912 1.403 . S
C1915 C1916 1.524 . S
C1915 C1919 1.400 . S
C1916 H1901 0.960 . S
C1916 H1902 0.960 . S
C1916 H1903 0.960 . S
C1916 C1915 1.524 . S
C1917 C1914 1.403 . S
C1917 C1918 1.392 . S
C1917 C1921 1.495 . S
C1918 C1917 1.392 . S
C1918 C1919 1.385 . S
C1918 C1920 1.478 . S
C1919 H1913 0.930 . S
C1919 C1915 1.400 . S
C1919 C1918 1.385 . S
C1920 C1918 1.478 . S
C1920 C1922 1.381 . S
C1920 C1926 1.383 . S
C1921 C1917 1.495 . S
C1921 H1927 0.959 . S
C1921 H1928 0.961 . S
C1921 H1929 0.960 . S
C1922 C1920 1.381 . S
C1922 C1923 1.394 . S
C1922 H1930 0.930 . S
C1923 C1922 1.394 . S
C1923 C1924 1.383 . S
C1923 H1931 0.929 . S
C1924 C1923 1.383 . S
C1924 C1925 1.377 . S
C1925 H1909 0.930 . S
C1925 C1924 1.377 . S
C1925 C1926 1.379 . S
C1926 H1910 0.931 . S
C1926 C1920 1.383 . S
C1926 C1925 1.379 . S
H1927 C1921 0.959 . S
H1928 C1921 0.961 . S
H1929 C1921 0.960 . S
H1930 C1922 0.930 . S
H1931 C1923 0.929 . S
H1932 C1940 0.929 . S
H1933 C1942 0.930 . S
H1934 C1944 0.930 . S
H1935 C1947 0.929 . S
H1936 C1950 0.930 . S
H1937 C1952 0.960 . S
H1938 C1952 0.960 . S
H1939 C1952 0.960 . S
C1940 H1932 0.929 . S
C1940 C1941 1.386 . S
C1940 C1942 1.384 . S
C1941 C1940 1.386 . S
C1941 C1947 1.381 1_655 S
C1942 H1933 0.930 . S
C1942 C1940 1.384 . S
C1942 C1943 1.372 . S
C1943 C1942 1.372 . S
C1943 C1944 1.400 1_655 S
C1943 C1948 1.490 . S
C1944 H1934 0.930 . S
C1944 C1943 1.400 1_455 S
C1944 C1947 1.386 . S
H1945 C1961 0.930 . S
H1946 C1962 0.931 . S
C1947 H1935 0.929 . S
C1947 C1941 1.381 1_455 S
C1947 C1944 1.386 . S
C1948 C1943 1.490 . S
C1948 C1950 1.395 . S
C1948 C1951 1.403 1_655 S
H1949 C1955 0.935 . S
C1950 H1936 0.930 . S
C1950 C1948 1.395 . S
C1950 C1953 1.403 . S
C1951 C1948 1.403 1_455 S
C1951 C1952 1.524 1_554 S
C1951 C1955 1.400 . S
C1952 H1937 0.960 . S
C1952 H1938 0.960 . S
C1952 H1939 0.960 . S
C1952 C1951 1.524 1_556 S
C1953 C1950 1.403 . S
C1953 C1954 1.392 . S
C1953 C1957 1.495 . S
C1954 C1953 1.392 . S
C1954 C1955 1.385 1_655 S
C1954 C1956 1.478 . S
C1955 H1949 0.935 . S
C1955 C1951 1.400 . S
C1955 C1954 1.385 1_455 S
C1956 C1954 1.478 . S
C1956 C1958 1.381 . S
C1956 C1962 1.383 1_655 S
C1957 C1953 1.495 . S
C1957 H1963 0.959 . S
C1957 H1964 0.961 . S
C1957 H1965 0.960 . S
C1958 C1956 1.381 . S
C1958 C1959 1.394 . S
C1958 H1966 0.930 . S
C1959 C1958 1.394 . S
C1959 C1960 1.439 . S
C1959 H1967 0.929 . S
C1960 C1959 1.439 . S
C1960 C1961 1.325 1_655 S
C1961 H1945 0.930 . S
C1961 C1960 1.325 1_455 S
C1961 C1962 1.379 . S
C1962 H1946 0.931 . S
C1962 C1956 1.383 1_455 S
C1962 C1961 1.379 . S
H1963 C1957 0.959 . S
H1964 C1957 0.961 . S
H1965 C1957 0.960 . S
H1966 C1958 0.930 . S
H1967 C1959 0.929 . S
C537 C292 0.549 1_545 S
C556 C28 0.472 1_565 S
C573 C61 0.537 . S
C592 C325 0.588 . S
C609 C358 0.546 . S
C628 C94 0.627 . S
C645 C391 0.568 1_455 S
C664 C127 0.635 1_655 S
C681 C160 0.555 1_545 S
C700 C424 0.481 1_565 S
C717 C193 0.533 . S
C736 C457 0.556 . S
C753 C226 0.548 . S
C772 C490 0.456 . S
C789 C259 0.532 1_455 S
C808 C523 0.448 1_655 S
C825 C8 1.770 . S
C844 N500 1.753 . S
C861 C41 1.769 . S
C880 N401 1.770 . S
C897 C74 1.772 . S
C916 N434 1.783 . S
C933 N467 1.768 . S
C952 C107 1.779 . S
C969 C140 1.774 . S
C988 N302 1.782 . S
C1005 C173 1.773 . S
C1024 N335 1.751 . S
C1041 N368 1.774 . S
C1060 C206 1.766 . S
C1077 C239 1.772 . S
C1096 N269 1.750 . S
C1113 N236 1.774 . S
C1132 C272 1.756 . S
C1149 N137 1.768 . S
C1168 C305 1.785 . S
C1185 N170 1.768 . S
C1204 C338 1.784 . S
C1221 C371 1.776 . S
C1240 N203 1.756 . S
C1257 N38 1.770 . S
C1276 C404 1.764 . S
C1293 C437 1.771 . S
C1312 N71 1.761 . S
C1329 N104 1.771 . S
C1348 C470 1.775 . S
C1365 N5 1.770 . S
C1384 C503 1.778 . S
C1401 N245 0.438 . S
C1420 N14 0.428 . S
C1437 N146 0.411 . S
C1456 N47 0.325 . S
C1473 N80 0.444 . S
C1492 N179 0.477 . S
C1509 N212 0.424 . S
C1528 N113 0.494 . S
C1545 N509 0.406 . S
C1564 N278 0.457 . S
C1581 N311 0.408 . S
C1600 N410 0.474 . S
C1617 N344 0.414 . S
C1636 N443 0.336 . S
C1653 N377 0.416 . S
C1672 N476 0.507 . S
C1689 C17 1.039 . S
C1708 C413 1.015 . S
C1725 C50 1.037 . S
C1744 C446 1.059 . S
C1761 C83 1.037 . S
C1780 C479 1.058 . S
C1797 C116 1.040 . S
C1816 C512 1.059 1_655 S
C1833 C149 1.038 . S
C1852 C281 1.044 . S
C1869 C182 1.043 . S
C1888 C314 1.030 . S
C1905 C215 1.038 . S
C1924 C347 1.055 . S
C1941 C380 1.040 . S
C1960 C248 1.032 . S
