# Generated by pormake.
# Topology snk, (6)-cn, num edge types: 1
# Building blocks:
#     Node 0, Type 0, BuildingBlock: PAMTOO_clean_sbu_0, # of connection points: 6
#     Node 1, Type 0, BuildingBlock: PAMTOO_clean_sbu_0, # of connection points: 6
#     Node 2, Type 0, BuildingBlock: PAMTOO_clean_sbu_0, # of connection points: 6
#     Node 3, Type 0, BuildingBlock: PAMTOO_clean_sbu_0, # of connection points: 6
#     Node 4, Type 0, BuildingBlock: PAMTOO_clean_sbu_0, # of connection points: 6
#     Node 5, Type 0, BuildingBlock: PAMTOO_clean_sbu_0, # of connection points: 6
#     Node 6, Type 0, BuildingBlock: PAMTOO_clean_sbu_0, # of connection points: 6
#     Node 7, Type 0, BuildingBlock: PAMTOO_clean_sbu_0, # of connection points: 6
#     Edge 8, Type (0, 0), BuildingBlock: ZUJKAS_clean_linker_0, # of connection points: 2
#     Edge 9, Type (0, 0), BuildingBlock: ZUJKAS_clean_linker_0, # of connection points: 2
#     Edge 10, Type (0, 0), BuildingBlock: ZUJKAS_clean_linker_0, # of connection points: 2
#     Edge 11, Type (0, 0), BuildingBlock: ZUJKAS_clean_linker_0, # of connection points: 2
#     Edge 12, Type (0, 0), BuildingBlock: ZUJKAS_clean_linker_0, # of connection points: 2
#     Edge 13, Type (0, 0), BuildingBlock: ZUJKAS_clean_linker_0, # of connection points: 2
#     Edge 14, Type (0, 0), BuildingBlock: ZUJKAS_clean_linker_0, # of connection points: 2
#     Edge 15, Type (0, 0), BuildingBlock: ZUJKAS_clean_linker_0, # of connection points: 2
#     Edge 16, Type (0, 0), BuildingBlock: ZUJKAS_clean_linker_0, # of connection points: 2
#     Edge 17, Type (0, 0), BuildingBlock: ZUJKAS_clean_linker_0, # of connection points: 2
#     Edge 18, Type (0, 0), BuildingBlock: ZUJKAS_clean_linker_0, # of connection points: 2
#     Edge 19, Type (0, 0), BuildingBlock: ZUJKAS_clean_linker_0, # of connection points: 2
#     Edge 20, Type (0, 0), BuildingBlock: ZUJKAS_clean_linker_0, # of connection points: 2
#     Edge 21, Type (0, 0), BuildingBlock: ZUJKAS_clean_linker_0, # of connection points: 2
#     Edge 22, Type (0, 0), BuildingBlock: ZUJKAS_clean_linker_0, # of connection points: 2
#     Edge 23, Type (0, 0), BuildingBlock: ZUJKAS_clean_linker_0, # of connection points: 2
#     Edge 24, Type (0, 0), BuildingBlock: ZUJKAS_clean_linker_0, # of connection points: 2
#     Edge 25, Type (0, 0), BuildingBlock: ZUJKAS_clean_linker_0, # of connection points: 2
#     Edge 26, Type (0, 0), BuildingBlock: ZUJKAS_clean_linker_0, # of connection points: 2
#     Edge 27, Type (0, 0), BuildingBlock: ZUJKAS_clean_linker_0, # of connection points: 2
#     Edge 28, Type (0, 0), BuildingBlock: ZUJKAS_clean_linker_0, # of connection points: 2
#     Edge 29, Type (0, 0), BuildingBlock: ZUJKAS_clean_linker_0, # of connection points: 2
#     Edge 30, Type (0, 0), BuildingBlock: ZUJKAS_clean_linker_0, # of connection points: 2
#     Edge 31, Type (0, 0), BuildingBlock: ZUJKAS_clean_linker_0, # of connection points: 2
# Relax obj value: 0.052
# Max RMSD: 0.129
# Mean RMSD: 0.097
data_MOF--net-snk--node1-PAMTOO_clean_sbu_0--edge1-ZUJKAS_clean_linker_0
_symmetry_space_group_name_H-M    P1
_symmetry_Int_Tables_number       1
_symmetry_cell_setting            triclinic
loop_
_symmetry_equiv_pos_as_xyz
'x, y, z'
_cell_length_a     50.691829
_cell_length_b     50.860444
_cell_length_c     30.181862
_cell_angle_alpha  89.715084
_cell_angle_beta   94.471571
_cell_angle_gamma 89.749283
loop_
_atom_site_label
_atom_site_type_symbol
_atom_site_fract_x
_atom_site_fract_y
_atom_site_fract_z
_atom_type_partial_charge
Dy0 Dy 0.00279 0.00944 0.59013 0.0
Dy1 Dy 0.98951 0.98074 0.49171 0.0
C2 C 0.03816 0.9633 0.5576 0.0
O3 O 0.03154 0.02694 0.54578 0.0
O4 O 0.01099 0.01763 0.47675 0.0
O5 O 0.02987 0.02022 0.64598 0.0
O6 O 0.98864 0.03203 0.6439 0.0
O7 O 0.95452 0.00313 0.51144 0.0
O8 O 0.97768 0.03622 0.54594 0.0
O9 O 0.97434 0.95267 0.5408 0.0
O10 O 0.97026 0.98083 0.59957 0.0
O11 O 0.96591 0.98122 0.42927 0.0
O12 O 0.99496 0.95031 0.44294 0.0
C13 C 0.0289 0.03025 0.50233 0.0
O14 O 0.02526 0.97176 0.59082 0.0
O15 O 0.03066 0.96964 0.5163 0.0
C16 C 0.01073 0.02463 0.71465 0.0
C17 C 0.0083 0.01334 0.80606 0.0
C18 C 0.00153 0.99409 0.77375 0.0
C19 C 0.00269 -0.00028 0.7284 0.0
C20 C 0.01776 0.04373 0.74665 0.0
C21 C 0.01657 0.03817 0.79186 0.0
C22 C 0.01141 0.03138 0.66726 0.0
C23 C 0.95648 0.02784 0.52287 0.0
C24 C 0.96513 0.95838 0.57922 0.0
C25 C 0.98591 0.96389 0.36773 0.0
C26 C 0.9957 0.97059 0.27738 0.0
C27 C 0.00187 0.99066 0.30842 0.0
C28 C 0.99706 0.98733 0.35319 0.0
C29 C 0.98045 0.94357 0.33723 0.0
C30 C 0.98534 0.94684 0.29253 0.0
C31 C 0.97796 0.96104 0.41348 0.0
H32 H 0.99485 0.97486 0.78345 0.0
H33 H 0.9971 0.98474 0.70407 0.0
H34 H 0.02406 0.06305 0.73664 0.0
H35 H 0.02234 0.05331 0.81575 0.0
H36 H 0.0102 0.00905 0.29804 0.0
H37 H 0.00147 0.00326 0.37622 0.0
H38 H 0.97171 0.9254 0.34775 0.0
H39 H 0.98009 0.93108 0.26955 0.0
Dy40 Dy 0.2923 0.73924 0.62636 0.0
Dy41 Dy 0.26027 0.73483 0.71881 0.0
C42 C 0.25129 0.78262 0.65165 0.0
O43 O 0.31299 0.76591 0.67672 0.0
O44 O 0.30143 0.74586 0.74087 0.0
O45 O 0.30991 0.76199 0.57579 0.0
O46 O 0.31197 0.71938 0.57493 0.0
O47 O 0.27571 0.69599 0.69927 0.0
O48 O 0.31352 0.71076 0.67314 0.0
O49 O 0.22991 0.72649 0.66386 0.0
O50 O 0.25732 0.71316 0.61066 0.0
O51 O 0.24929 0.71077 0.77345 0.0
O52 O 0.23629 0.75129 0.7684 0.0
C53 C 0.31631 0.76209 0.72002 0.0
O54 O 0.25884 0.76786 0.61933 0.0
O55 O 0.25665 0.77603 0.69352 0.0
C56 C 0.31054 0.74135 0.50571 0.0
C57 C 0.29963 0.74092 0.41242 0.0
C58 C 0.27932 0.74583 0.44066 0.0
C59 C 0.28471 0.74597 0.48694 0.0
C60 C 0.33081 0.73653 0.47777 0.0
C61 C 0.32545 0.7363 0.43163 0.0
C62 C 0.31681 0.7412 0.55418 0.0
C63 C 0.30096 0.69294 0.69471 0.0
C64 C 0.23386 0.71444 0.62654 0.0
C65 C 0.2442 0.73322 0.84075 0.0
C66 C 0.25526 0.73727 0.93378 0.0
C67 C 0.27558 0.73143 0.90601 0.0
C68 C 0.27012 0.7295 0.8599 0.0
C69 C 0.22401 0.73936 0.86819 0.0
C70 C 0.22945 0.74139 0.91419 0.0
C71 C 0.23757 0.72998 0.79263 0.0
H72 H 0.25918 0.74919 0.42702 0.0
H73 H 0.26876 0.74958 0.50806 0.0
H74 H 0.35087 0.73295 0.49168 0.0
H75 H 0.34163 0.73283 0.41096 0.0
H76 H 0.29573 0.72844 0.9199 0.0
H77 H 0.28606 0.72487 0.83928 0.0
H78 H 0.20388 0.74222 0.85407 0.0
H79 H 0.21327 0.74558 0.93451 0.0
Dy80 Dy 0.48159 0.00926 0.97138 0.0
Dy81 Dy 0.49002 0.97806 0.06952 0.0
C82 C 0.45371 0.95484 0.98863 0.0
O83 O 0.4618 0.03435 0.01963 0.0
O84 O 0.4532 0.00229 0.07038 0.0
O85 O 0.4561 0.02451 0.91619 0.0
O86 O 0.49849 0.02968 0.91749 0.0
O87 O 0.50736 0.01788 0.07986 0.0
O88 O 0.51749 0.02563 1.0083 0.0
O89 O 0.52369 0.96575 0.03017 0.0
O90 O 0.50527 0.97339 0.95908 0.0
O91 O 0.51481 0.96652 0.12786 0.0
O92 O 0.47381 0.95419 0.12031 0.0
C93 C 0.44912 0.02592 0.0533 0.0
O94 O 0.45021 0.97884 0.9731 0.0
O95 O 0.47172 0.94935 0.02098 0.0
C96 C 0.47538 0.0262 0.84699 0.0
C97 C 0.47698 0.0148 0.75562 0.0
C98 C 0.47305 0.9946 0.78652 0.0
C99 C 0.47237 0.00024 0.83189 0.0
C100 C 0.47898 0.04637 0.81631 0.0
C101 C 0.47978 0.04077 0.77113 0.0
C102 C 0.47583 0.0327 0.89457 0.0
C103 C 0.52073 0.0305 0.051 0.0
C104 C 0.5233 0.9623 0.98688 0.0
C105 C 0.49263 0.96093 0.19358 0.0
C106 C 0.48782 0.97109 0.28469 0.0
C107 C 0.49259 0.99172 0.25506 0.0
C108 C 0.49489 0.9867 0.20987 0.0
C109 C 0.48775 0.94037 0.22288 0.0
C110 C 0.48534 0.94537 0.26793 0.0
C111 C 0.49555 0.9549 0.14644 0.0
H112 H 0.47107 0.97437 0.77578 0.0
H113 H 0.46977 0.98435 0.85518 0.0
H114 H 0.48137 0.06652 0.82736 0.0
H115 H 0.48244 0.05685 0.74828 0.0
H116 H 0.4943 0.01179 0.26672 0.0
H117 H 0.4985 0.0029 0.18772 0.0
H118 H 0.48598 0.92035 0.21096 0.0
H119 H 0.48202 0.92897 0.28979 0.0
Dy120 Dy 0.22787 0.24638 0.23529 0.0
Dy121 Dy 0.26104 0.24411 0.33563 0.0
C122 C 0.27857 0.21014 0.25376 0.0
O123 O 0.21206 0.21218 0.27228 0.0
O124 O 0.22182 0.22609 0.34381 0.0
O125 O 0.21175 0.22541 0.17746 0.0
O126 O 0.20737 0.26772 0.18045 0.0
O127 O 0.23402 0.279 0.33587 0.0
O128 O 0.20241 0.26793 0.28018 0.0
O129 O 0.28731 0.26564 0.29181 0.0
O130 O 0.25586 0.2803 0.23816 0.0
O131 O 0.28309 0.26295 0.39087 0.0
O132 O 0.2762 0.22099 0.3924 0.0
C133 C 0.2086 0.21094 0.315 0.0
O134 O 0.26653 0.22716 0.22636 0.0
O135 O 0.27468 0.20993 0.29633 0.0
C136 C 0.21083 0.24882 0.10941 0.0
C137 C 0.22221 0.25066 0.01904 0.0
C138 C 0.24206 0.24399 0.05259 0.0
C139 C 0.23644 0.24313 0.09736 0.0
C140 C 0.19111 0.25577 0.07625 0.0
C141 C 0.1967 0.25671 0.03158 0.0
C142 C 0.20401 0.24675 0.15599 0.0
C143 C 0.21042 0.28206 0.31501 0.0
C144 C 0.27973 0.28143 0.25853 0.0
C145 C 0.27938 0.24307 0.4613 0.0
C146 C 0.26857 0.24509 0.55188 0.0
C147 C 0.24872 0.25119 0.51799 0.0
C148 C 0.25407 0.25013 0.47309 0.0
C149 C 0.29922 0.23714 0.49486 0.0
C150 C 0.2939 0.23814 0.53962 0.0
C151 C 0.28551 0.24137 0.41441 0.0
H152 H 0.26199 0.23954 0.04428 0.0
H153 H 0.252 0.2378 0.12249 0.0
H154 H 0.1712 0.26013 0.08485 0.0
H155 H 0.18084 0.26158 1.00674 0.0
H156 H 0.22892 0.25636 0.52611 0.0
H157 H 0.23844 0.25467 0.44759 0.0
H158 H 0.31889 0.23169 0.48642 0.0
H159 H 0.30979 0.23372 0.56469 0.0
Dy160 Dy 0.76928 0.24711 0.20033 0.0
Dy161 Dy 0.73674 0.25368 0.29278 0.0
C162 C 0.72218 0.28842 0.20707 0.0
O163 O 0.79825 0.2634 0.25229 0.0
O164 O 0.7683 0.28398 0.29368 0.0
O165 O 0.79274 0.26416 0.15081 0.0
O166 O 0.78169 0.22308 0.14674 0.0
O167 O 0.77169 0.2289 0.31247 0.0
O168 O 0.78084 0.21258 0.2441 0.0
O169 O 0.71925 0.21954 0.25543 0.0
O170 O 0.72894 0.23076 0.18471 0.0
O171 O 0.71706 0.23666 0.3468 0.0
O172 O 0.72002 0.27898 0.34112 0.0
C173 C 0.79261 0.28035 0.28285 0.0
O174 O 0.7462 0.2847 0.19467 0.0
O175 O 0.71268 0.27412 0.23838 0.0
C176 C 0.787 0.24525 0.07902 0.0
C177 C 0.77659 0.24922 0.98571 0.0
C178 C 0.75913 0.26046 1.01454 0.0
C179 C 0.76425 0.25843 0.0608 0.0
C180 C 0.80444 0.23412 0.05049 0.0
C181 C 0.79933 0.23607 1.00438 0.0
C182 C 0.79291 0.24262 0.12747 0.0
C183 C 0.78278 0.2115 0.28784 0.0
C184 C 0.71525 0.21729 0.21212 0.0
C185 C 0.72052 0.26082 0.41368 0.0
C186 C 0.7324 0.26175 0.50685 0.0
C187 C 0.75009 0.25017 0.47881 0.0
C188 C 0.74424 0.24977 0.43266 0.0
C189 C 0.70307 0.27275 0.44136 0.0
C190 C 0.70894 0.27326 0.48743 0.0
C191 C 0.71318 0.25927 0.36548 0.0
H192 H 0.7413 0.27048 1.00136 0.0
H193 H 0.75046 0.26705 0.08232 0.0
H194 H 0.82212 0.22391 0.06393 0.0
H195 H 0.81341 0.22752 0.98333 0.0
H196 H 0.76848 0.24144 0.49254 0.0
H197 H 0.75807 0.24056 0.41184 0.0
H198 H 0.68465 0.28133 0.42736 0.0
H199 H 0.69473 0.28207 0.50795 0.0
Dy200 Dy 0.72804 0.74657 0.73738 0.0
Dy201 Dy 0.76075 0.74503 0.83808 0.0
C202 C 0.7777 0.7082 0.75949 0.0
O203 O 0.7008 0.72665 0.78149 0.0
O204 O 0.73126 0.71242 0.83711 0.0
O205 O 0.70643 0.72734 0.68206 0.0
O206 O 0.71337 0.76929 0.67989 0.0
O207 O 0.72293 0.76601 0.84663 0.0
O208 O 0.71388 0.78104 0.77521 0.0
O209 O 0.77654 0.77901 0.80078 0.0
O210 O 0.7676 0.76418 0.72965 0.0
O211 O 0.77737 0.76581 0.89579 0.0
O212 O 0.7813 0.72345 0.89254 0.0
C213 C 0.70749 0.71169 0.81627 0.0
O214 O 0.75385 0.71081 0.73945 0.0
O215 O 0.78599 0.72309 0.79319 0.0
C216 C 0.71046 0.74683 0.61141 0.0
C217 C 0.72171 0.74491 0.5211 0.0
C218 C 0.74151 0.7391 0.55522 0.0
C219 C 0.73594 0.74012 0.60001 0.0
C220 C 0.69066 0.75238 0.57762 0.0
C221 C 0.69619 0.75142 0.53297 0.0
C222 C 0.70415 0.74878 0.65815 0.0
C223 C 0.71044 0.78205 0.81793 0.0
C224 C 0.7806 0.77963 0.75828 0.0
C225 C 0.77844 0.74225 0.96369 0.0
C226 C 0.76737 0.73985 0.05412 0.0
C227 C 0.74735 0.74647 0.02083 0.0
C228 C 0.75282 0.7476 0.97602 0.0
C229 C 0.79834 0.73541 0.99661 0.0
C230 C 0.7929 0.7342 0.04132 0.0
C231 C 0.78502 0.74437 0.91704 0.0
H232 H 0.76143 0.73425 0.54735 0.0
H233 H 0.75153 0.73588 0.62571 0.0
H234 H 0.67086 0.75756 0.58578 0.0
H235 H 0.68035 0.7556 0.5077 0.0
H236 H 0.72741 0.75063 0.02937 0.0
H237 H 0.73713 0.75282 0.95105 0.0
H238 H 0.81826 0.7313 0.98778 0.0
H239 H 0.80888 0.72939 0.06598 0.0
Dy240 Dy 0.49149 0.5233 0.09563 0.0
Dy241 Dy 0.47945 0.49435 0.99751 0.0
C242 C 0.52879 0.47845 0.0629 0.0
O243 O 0.52036 0.54094 0.05172 0.0
O244 O 0.49944 0.53219 0.98285 0.0
O245 O 0.51778 0.53554 0.15144 0.0
O246 O 0.47605 0.54552 0.14874 0.0
O247 O 0.44391 0.51433 0.02006 0.0
O248 O 0.46565 0.54908 0.05049 0.0
O249 O 0.46627 0.46505 0.04637 0.0
O250 O 0.46093 0.49258 0.10557 0.0
O251 O 0.45495 0.49442 0.93602 0.0
O252 O 0.48566 0.46483 0.94755 0.0
C253 C 0.51752 0.5446 1.00838 0.0
O254 O 0.51594 0.48674 0.09638 0.0
O255 O 0.52091 0.48445 0.02161 0.0
C256 C 0.49816 0.53946 0.21976 0.0
C257 C 0.49631 0.52827 0.31124 0.0
C258 C 0.49611 0.50776 0.27999 0.0
C259 C 0.49694 0.51332 0.23457 0.0
C260 C 0.49849 0.55989 0.25072 0.0
C261 C 0.49758 0.55439 0.29598 0.0
C262 C 0.49874 0.54598 0.1723 0.0
C263 C 0.44488 0.53954 0.02777 0.0
C264 C 0.457 0.46996 0.08504 0.0
C265 C 0.47524 0.47917 0.87306 0.0
C266 C 0.48424 0.48648 0.78257 0.0
C267 C 0.48467 0.50801 0.81173 0.0
C268 C 0.48031 0.50439 0.85658 0.0
C269 C 0.47549 0.45759 0.84438 0.0
C270 C 0.48002 0.46117 0.79961 0.0
C271 C 0.4679 0.47522 0.91899 0.0
H272 H 0.49488 0.48745 0.29056 0.0
H273 H 0.49652 0.49728 0.21103 0.0
H274 H 0.49945 0.58018 0.23986 0.0
H275 H 0.49816 0.57063 0.3191 0.0
H276 H 0.48823 0.5277 0.79982 0.0
H277 H 0.48037 0.52137 0.87813 0.0
H278 H 0.47153 0.43799 0.85639 0.0
H279 H 0.47933 0.4442 0.778 0.0
Dy280 Dy 0.97989 0.50598 0.47932 0.0
Dy281 Dy 0.0045 0.48708 0.58004 0.0
C282 C 0.96013 0.45624 0.52494 0.0
O283 O 0.96312 0.5341 0.52653 0.0
O284 O 0.96737 0.50919 0.59059 0.0
O285 O 0.9566 0.49566 0.41908 0.0
O286 O 0.97221 0.53511 0.4274 0.0
O287 O 0.0188 0.52767 0.56683 0.0
O288 O 0.01941 0.52433 0.49133 0.0
O289 O 0.03343 0.47182 0.5341 0.0
O290 O 0.00778 0.473 0.46742 0.0
O291 O 0.03501 0.48763 0.63462 0.0
O292 O -7e-05 0.46372 0.63859 0.0
C293 C 0.95727 0.52933 0.56751 0.0
O294 O 0.95211 0.47953 0.5111 0.0
O295 O 0.9836 0.4535 0.54577 0.0
C296 C 0.96666 0.5183 0.35428 0.0
C297 C 0.97862 0.51653 0.26445 0.0
C298 C 0.9536 0.52506 0.27592 0.0
C299 C 0.94772 0.52593 0.32037 0.0
C300 C 0.9917 0.50981 0.34331 0.0
C301 C 0.99764 0.50894 0.29874 0.0
C302 C 0.95954 0.51858 0.40058 0.0
C303 C 0.0277 0.53526 0.52907 0.0
C304 C 0.02898 0.46516 0.49206 0.0
C305 C 0.01979 0.48036 0.70614 0.0
C306 C 0.01544 0.4908 0.79725 0.0
C307 C 0.03866 0.47958 0.78268 0.0
C308 C 0.04076 0.47437 0.73763 0.0
C309 C 0.99688 0.49236 0.72016 0.0
C310 C 0.99471 0.4975 0.76529 0.0
C311 C 0.02161 0.47242 0.65954 0.0
H312 H 0.93831 0.5306 0.25048 0.0
H313 H 0.92822 0.53233 0.32824 0.0
H314 H 0.00655 0.50376 0.36916 0.0
H315 H 0.01717 0.50251 0.29118 0.0
H316 H 0.05521 0.47464 0.80615 0.0
H317 H 0.05863 0.46518 0.72746 0.0
H318 H 0.98043 0.49718 0.69639 0.0
H319 H 0.97646 0.50595 0.77524 0.0
H320 H 0.03227 0.03997 0.41346 0.0
H321 H 0.06267 0.06959 0.37908 0.0
H322 H 0.09622 0.09244 0.50878 0.0
H323 H 0.06627 0.06257 0.54351 0.0
H324 H 0.06892 0.12322 0.38673 0.0
H325 H 0.16157 0.07178 0.447 0.0
H326 H 0.12937 0.05713 0.44972 0.0
H327 H 0.14132 0.08061 0.49084 0.0
C328 C 0.04614 0.05123 0.43477 0.0
C329 C 0.0469 0.0487 0.48134 0.0
C330 C 0.06351 0.06817 0.41499 0.0
C331 C 0.08206 0.08288 0.44131 0.0
C332 C 0.08253 0.08081 0.48777 0.0
H333 H 0.19886 0.20104 0.40129 0.0
H334 H 0.16761 0.16981 0.42908 0.0
C335 C 0.06524 0.06381 0.50759 0.0
C336 C 0.10063 0.10071 0.42024 0.0
H337 H 0.16627 0.11428 0.41507 0.0
C338 C 0.09021 0.12114 0.39258 0.0
C339 C 0.12842 0.09791 0.42777 0.0
C340 C 0.14087 0.07552 0.45509 0.0
C341 C 0.10681 0.13935 0.37345 0.0
C342 C 0.13455 0.13685 0.3818 0.0
C343 C 0.14498 0.1162 0.40886 0.0
C344 C 0.15314 0.15598 0.36409 0.0
C345 C 0.09456 0.16159 0.34557 0.0
C346 C 0.15553 0.15844 0.31821 0.0
C347 C 0.17348 0.17631 0.30205 0.0
C348 C 0.18938 0.19201 0.33156 0.0
C349 C 0.18691 0.18937 0.37751 0.0
C350 C 0.16907 0.17148 0.39355 0.0
H351 H 0.07308 0.1638 0.34968 0.0
H352 H 0.10456 0.18046 0.35435 0.0
H353 H 0.09703 0.15765 0.31 0.0
H354 H 0.14369 0.14636 0.29493 0.0
H355 H 0.17491 0.17776 0.26651 0.0
H356 H 0.06759 0.93875 0.4977 0.0
H357 H 0.10633 0.91046 0.51368 0.0
H358 H 0.1013 0.92221 0.6542 0.0
H359 H 0.06235 0.95012 0.63874 0.0
H360 H 0.15521 0.92135 0.56022 0.0
H361 H 0.10122 0.84217 0.64199 0.0
H362 H 0.08444 0.8679 0.60927 0.0
H363 H 0.09719 0.87416 0.66547 0.0
C364 C 0.07468 0.93528 0.53203 0.0
C365 C 0.06174 0.94648 0.56698 0.0
C366 C 0.09684 0.91918 0.54104 0.0
C367 C 0.10637 0.914 0.58508 0.0
C368 C 0.09388 0.92558 0.62 0.0
H369 H 0.23059 0.81645 0.70992 0.0
H370 H 0.19764 0.85087 0.69282 0.0
C371 C 0.07167 0.94158 0.61107 0.0
C372 C 0.12927 0.89629 0.59457 0.0
H373 H 0.14796 0.83867 0.64628 0.0
C374 C 0.15367 0.90322 0.57891 0.0
C375 C 0.12706 0.87266 0.61882 0.0
C376 C 0.10103 0.86359 0.63453 0.0
C377 C 0.17615 0.88726 0.58761 0.0
C378 C 0.17393 0.86379 0.61219 0.0
C379 C 0.14954 0.85685 0.62772 0.0
C380 C 0.19646 0.84564 0.62164 0.0
C381 C 0.20214 0.89575 0.57113 0.0
C382 C 0.20694 0.83167 0.58709 0.0
C383 C 0.22576 0.81191 0.59668 0.0
C384 C 0.23422 0.80575 0.64102 0.0
C385 C 0.22445 0.82061 0.67541 0.0
C386 C 0.20564 0.84031 0.66577 0.0
H387 H 0.20189 0.91686 0.56149 0.0
H388 H 0.21863 0.89227 0.59696 0.0
H389 H 0.20614 0.88398 0.54151 0.0
H390 H 0.19975 0.83529 0.55285 0.0
H391 H 0.23287 0.80082 0.56944 0.0
H392 H 0.33186 0.75567 0.80794 0.0
H393 H 0.35812 0.7859 0.85561 0.0
H394 H 0.37036 0.83502 0.74227 0.0
H395 H 0.34411 0.8048 0.69391 0.0
H396 H 0.41643 0.82701 0.80726 0.0
H397 H 0.3245 0.85913 0.88135 0.0
H398 H 0.33074 0.8243 0.8819 0.0
H399 H 0.32396 0.84118 0.82984 0.0
C400 C 0.34041 0.7727 0.7929 0.0
C401 C 0.33558 0.77807 0.74719 0.0
C402 C 0.35537 0.78993 0.82026 0.0
C403 C 0.36568 0.81281 0.80244 0.0
C404 C 0.36237 0.81745 0.7565 0.0
H405 H 0.41306 0.95886 0.92408 0.0
H406 H 0.39202 0.92324 0.88062 0.0
C407 C 0.3474 0.80017 0.72898 0.0
C408 C 0.37821 0.83279 0.83219 0.0
H409 H 0.36469 0.87727 0.91167 0.0
C410 C 0.40523 0.83798 0.83023 0.0
C411 C 0.3633 0.84714 0.86163 0.0
C412 C 0.33397 0.8429 0.86376 0.0
C413 C 0.41784 0.85719 0.85736 0.0
C414 C 0.40299 0.87129 0.88718 0.0
C415 C 0.37596 0.86617 0.88897 0.0
C416 C 0.41487 0.89239 0.91528 0.0
C417 C 0.44678 0.86274 0.85332 0.0
C418 C 0.43413 0.88661 0.94985 0.0
C419 C 0.44611 0.90689 0.97497 0.0
C420 C 0.439 0.93323 0.96573 0.0
C421 C 0.41904 0.9388 0.93196 0.0
C422 C 0.40701 0.91851 0.90706 0.0
H423 H 0.45415 0.85349 0.82335 0.0
H424 H 0.45028 0.88426 0.85184 0.0
H425 H 0.45851 0.85483 0.88304 0.0
H426 H 0.4401 0.86646 0.95698 0.0
H427 H 0.46143 0.90194 1.00073 0.0
H428 H 0.42625 0.01903 0.13171 0.0
H429 H 0.39682 0.04933 0.16705 0.0
H430 H 0.40067 0.10374 0.05784 0.0
H431 H 0.43018 0.07363 0.02211 0.0
H432 H 0.40871 0.10473 0.19003 0.0
H433 H 0.31964 0.09229 0.07249 0.0
H434 H 0.34619 0.0684 0.07781 0.0
H435 H 0.3502 0.09849 0.0478 0.0
C436 C 0.4207 0.03734 0.11494 0.0
C437 C 0.4305 0.04384 0.07391 0.0
C438 C 0.40395 0.05465 0.13532 0.0
C439 C 0.39643 0.07862 0.11486 0.0
C440 C 0.40604 0.08517 0.07388 0.0
H441 H 0.29665 0.20973 0.17095 0.0
H442 H 0.3258 0.17761 0.13997 0.0
C443 C 0.42296 0.06796 0.0536 0.0
C444 C 0.37901 0.09708 0.13685 0.0
H445 H 0.31789 0.12582 0.12619 0.0
C446 C 0.38878 0.10929 0.17632 0.0
C447 C 0.35311 0.10293 0.11872 0.0
C448 C 0.34146 0.08974 0.07704 0.0
C449 C 0.37355 0.12785 0.19756 0.0
C450 C 0.34761 0.1338 0.17935 0.0
C451 C 0.33777 0.12127 0.14013 0.0
C452 C 0.33056 0.15358 0.19945 0.0
C453 C 0.38572 0.14153 0.23839 0.0
C454 C 0.32344 0.15078 0.2433 0.0
C455 C 0.30687 0.16933 0.26138 0.0
C456 C 0.29683 0.1908 0.23568 0.0
C457 C 0.30396 0.19344 0.19174 0.0
C458 C 0.32063 0.17505 0.17389 0.0
H459 H 0.40767 0.14006 0.24093 0.0
H460 H 0.38003 0.16264 0.23834 0.0
H461 H 0.37856 0.13213 0.26844 0.0
H462 H 0.33035 0.13404 0.26333 0.0
H463 H 0.3016 0.1666 0.29518 0.0
H464 H 0.94719 0.95995 0.6625 0.0
H465 H 0.91772 0.92887 0.69573 0.0
H466 H 0.91352 0.88281 0.57584 0.0
H467 H 0.9434 0.91343 0.54264 0.0
H468 H 0.86719 0.91605 0.66858 0.0
H469 H 0.93033 0.82683 0.66927 0.0
H470 H 0.94294 0.85929 0.6594 0.0
H471 H 0.92497 0.84166 0.61525 0.0
C472 C 0.94017 0.94311 0.64323 0.0
C473 C 0.94778 0.93917 0.59988 0.0
C474 C 0.9233 0.92536 0.66233 0.0
C475 C 0.91372 0.90326 0.63859 0.0
C476 C 0.92118 0.89933 0.59526 0.0
H477 H 0.79797 0.78264 0.67483 0.0
H478 H 0.83044 0.81296 0.64783 0.0
C479 C 0.93817 0.91698 0.57621 0.0
C480 C 0.89505 0.88497 0.65843 0.0
H481 H 0.88513 0.82032 0.68344 0.0
C482 C 0.87123 0.89516 0.67221 0.0
C483 C 0.90033 0.8577 0.66323 0.0
C484 C 0.92614 0.84573 0.65143 0.0
C485 C 0.85228 0.87874 0.68952 0.0
C486 C 0.85738 0.85145 0.6935 0.0
C487 C 0.88127 0.84126 0.68018 0.0
C488 C 0.83787 0.83305 0.7105 0.0
C489 C 0.82662 0.89056 0.70232 0.0
C490 C 0.8315 0.83412 0.75489 0.0
C491 C 0.81298 0.81673 0.77058 0.0
C492 C 0.80046 0.79797 0.74208 0.0
C493 C 0.8071 0.79688 0.69769 0.0
C494 C 0.82571 0.81416 0.68216 0.0
H495 H 0.8236 0.91092 0.68932 0.0
H496 H 0.80957 0.87834 0.68972 0.0
H497 H 0.82679 0.89118 0.73908 0.0
H498 H 0.84095 0.84835 0.77744 0.0
H499 H 0.80841 0.81808 0.80495 0.0
H500 H 0.96203 0.0805 0.51052 0.0
H501 H 0.93004 0.11061 0.47261 0.0
H502 H 0.87311 0.0478 0.45721 0.0
H503 H 0.90552 0.01729 0.49342 0.0
H504 H 0.87589 0.07284 0.38182 0.0
H505 H 0.86652 0.14653 0.51381 0.0
H506 H 0.9003 0.14243 0.50151 0.0
H507 H 0.88292 0.11534 0.52445 0.0
C508 C 0.94254 0.07323 0.49974 0.0
C509 C 0.93618 0.04662 0.50498 0.0
C510 C 0.92422 0.09048 0.47825 0.0
C511 C 0.89903 0.08156 0.46273 0.0
C512 C 0.89243 0.0551 0.46902 0.0
H513 H 0.77522 0.19046 0.36841 0.0
H514 H 0.80193 0.15691 0.409 0.0
C515 C 0.9109 0.03773 0.48978 0.0
C516 C 0.88021 0.09937 0.43738 0.0
H517 H 0.85085 0.15966 0.44005 0.0
C518 C 0.87015 0.09171 0.39474 0.0
C519 C 0.87249 0.12382 0.45448 0.0
C520 C 0.88091 0.13238 0.50126 0.0
C521 C 0.85293 0.10805 0.36836 0.0
C522 C 0.8464 0.13311 0.38451 0.0
C523 C 0.85611 0.14056 0.42746 0.0
C524 C 0.82925 0.15191 0.35795 0.0
C525 C 0.84161 0.09802 0.32392 0.0
C526 C 0.83559 0.1601 0.31553 0.0
C527 C 0.81997 0.17891 0.29181 0.0
C528 C 0.79828 0.19031 0.31079 0.0
C529 C 0.79196 0.18207 0.35314 0.0
C530 C 0.80719 0.16292 0.37635 0.0
H531 H 0.84155 0.07618 0.32303 0.0
H532 H 0.82106 0.10521 0.31601 0.0
H533 H 0.85402 0.10502 0.29759 0.0
H534 H 0.85295 0.15243 0.30119 0.0
H535 H 0.82539 0.18519 0.25941 0.0
H536 H 0.70156 0.20596 0.12475 0.0
H537 H 0.66712 0.17575 0.09535 0.0
H538 H 0.64786 0.1575 0.22869 0.0
H539 H 0.68192 0.18769 0.25847 0.0
H540 H 0.66381 0.12115 0.11536 0.0
H541 H 0.57585 0.17662 0.16302 0.0
H542 H 0.608 0.19154 0.16089 0.0
H543 H 0.60097 0.1714 0.20758 0.0
C544 C 0.6899 0.19564 0.14783 0.0
C545 C 0.69443 0.19928 0.19395 0.0
C546 C 0.67027 0.17842 0.13096 0.0
C547 C 0.65479 0.16479 0.1599 0.0
C548 C 0.6593 0.16828 0.20586 0.0
H549 H 0.53428 0.04543 0.13676 0.0
H550 H 0.56712 0.07826 0.16222 0.0
C551 C 0.6789 0.18543 0.22277 0.0
C552 C 0.6346 0.14601 0.1423 0.0
H553 H 0.5686 0.13265 0.13857 0.0
C554 C 0.64295 0.12371 0.12004 0.0
C555 C 0.60749 0.14951 0.14875 0.0
C556 C 0.59743 0.17367 0.17101 0.0
C557 C 0.6249 0.10436 0.10494 0.0
C558 C 0.59782 0.10774 0.11174 0.0
C559 C 0.58943 0.13016 0.13364 0.0
C560 C 0.57786 0.0882 0.09622 0.0
C561 C 0.63501 0.08014 0.08289 0.0
C562 C 0.57288 0.08333 0.05072 0.0
C563 C 0.55424 0.06462 0.03606 0.0
C564 C 0.54013 0.05057 0.06672 0.0
C565 C 0.54487 0.05584 0.11232 0.0
C566 C 0.56357 0.07458 0.12693 0.0
H567 H 0.65673 0.07763 0.08981 0.0
H568 H 0.62502 0.06221 0.0942 0.0
H569 H 0.63074 0.08193 0.04637 0.0
H570 H 0.5834 0.09405 0.02654 0.0
H571 H 0.55094 0.06119 1.00068 0.0
H572 H 0.70121 0.79232 0.9042 0.0
H573 H 0.66965 0.82348 0.9315 0.0
H574 H 0.64508 0.84663 0.7969 0.0
H575 H 0.67702 0.81574 0.76908 0.0
H576 H 0.65294 0.88902 0.8537 0.0
H577 H 0.58987 0.81413 0.92705 0.0
H578 H 0.62412 0.81173 0.94682 0.0
H579 H 0.6144 0.80574 0.88917 0.0
C580 C 0.6891 0.80397 0.88026 0.0
C581 C 0.69156 0.80138 0.83436 0.0
C582 C 0.67093 0.82168 0.89599 0.0
C583 C 0.65464 0.83699 0.86622 0.0
C584 C 0.65734 0.83485 0.82043 0.0
H585 H 0.53044 0.95229 0.89955 0.0
H586 H 0.56263 0.92257 0.86989 0.0
C587 C 0.67561 0.81718 0.80461 0.0
C588 C 0.63507 0.85549 0.88302 0.0
H589 H 0.58178 0.85873 0.94548 0.0
C590 C 0.63726 0.8824 0.87351 0.0
C591 C 0.61462 0.84678 0.90884 0.0
C592 C 0.61039 0.818 0.91826 0.0
C593 C 0.61993 0.90093 0.89002 0.0
C594 C 0.59972 0.89223 0.91628 0.0
C595 C 0.59741 0.86532 0.92555 0.0
C596 C 0.58062 0.91071 0.93427 0.0
C597 C 0.6237 0.92971 0.88009 0.0
C598 C 0.57981 0.91358 0.98035 0.0
C599 C 0.5614 0.93054 0.99751 0.0
C600 C 0.54328 0.94477 0.96885 0.0
C601 C 0.54413 0.94173 0.92264 0.0
C602 C 0.56261 0.92485 0.90555 0.0
H603 H 0.64353 0.93365 0.86828 0.0
H604 H 0.60854 0.9361 0.85368 0.0
H605 H 0.62121 0.94181 0.91003 0.0
H606 H 0.59347 0.9027 1.00305 0.0
H607 H 0.56125 0.93231 0.03324 0.0
H608 H 0.5146 0.56233 0.9221 0.0
H609 H 0.54598 0.59085 0.88727 0.0
H610 H 0.59324 0.59624 1.01188 0.0
H611 H 0.56203 0.56793 0.04717 0.0
H612 H 0.56482 0.64503 0.91917 0.0
H613 H 0.6436 0.56877 0.91498 0.0
H614 H 0.60919 0.5606 0.91875 0.0
H615 H 0.62854 0.57261 0.96665 0.0
C616 C 0.53161 0.56964 0.9422 0.0
C617 C 0.53581 0.56276 0.98747 0.0
C618 C 0.54949 0.58595 0.92221 0.0
C619 C 0.572 0.5954 0.94695 0.0
C620 C 0.57607 0.58892 0.99218 0.0
H621 H 0.71089 0.68445 0.89493 0.0
H622 H 0.67726 0.65678 0.92497 0.0
C623 C 0.55814 0.57281 1.0123 0.0
C624 C 0.59141 0.61194 0.92556 0.0
H625 H 0.6546 0.61189 0.8939 0.0
C626 C 0.58441 0.63782 0.91334 0.0
C627 C 0.61692 0.60241 0.91827 0.0
C628 C 0.62512 0.57452 0.93 0.0
C629 C 0.60258 0.65474 0.895 0.0
C630 C 0.62819 0.64523 0.88764 0.0
C631 C 0.635 0.61918 0.8995 0.0
C632 C 0.64847 0.66209 0.86879 0.0
C633 C 0.59446 0.68288 0.88514 0.0
C634 C 0.64368 0.67403 0.82685 0.0
C635 C 0.66285 0.69006 0.80964 0.0
C636 C 0.68736 0.69416 0.83377 0.0
C637 C 0.69229 0.68171 0.87535 0.0
C638 C 0.67305 0.66587 0.89264 0.0
H639 H 0.57738 0.68887 0.90379 0.0
H640 H 0.6111 0.69655 0.89361 0.0
H641 H 0.58846 0.685 0.84916 0.0
H642 H 0.62515 0.67086 0.80729 0.0
H643 H 0.65847 0.69915 0.77737 0.0
H644 H 0.73485 0.32386 0.14329 0.0
H645 H 0.70628 0.3584 0.10834 0.0
H646 H 0.64289 0.33413 0.18644 0.0
H647 H 0.67098 0.2997 0.22133 0.0
H648 H 0.6295 0.34167 0.09103 0.0
H649 H 0.68202 0.42614 0.17485 0.0
H650 H 0.70126 0.40237 0.14704 0.0
H651 H 0.68571 0.39293 0.196 0.0
C652 C 0.71483 0.32589 0.15301 0.0
C653 C 0.70523 0.30912 0.18527 0.0
C654 C 0.69861 0.34564 0.1331 0.0
C655 C 0.67265 0.3488 0.14517 0.0
C656 C 0.66294 0.33192 0.17682 0.0
H657 H 0.55114 0.46173 0.14348 0.0
H658 H 0.58862 0.43171 0.15759 0.0
C659 C 0.67907 0.31231 0.19678 0.0
C660 C 0.65523 0.3697 0.12539 0.0
H661 H 0.6425 0.43542 0.13152 0.0
C662 C 0.63249 0.36225 0.09914 0.0
C663 C 0.6593 0.39639 0.13651 0.0
C664 C 0.68329 0.40512 0.16531 0.0
C665 C 0.61304 0.38077 0.08506 0.0
C666 C 0.61671 0.40736 0.0973 0.0
C667 C 0.63993 0.41497 0.12216 0.0
C668 C 0.5955 0.42701 0.08822 0.0
C669 C 0.58811 0.37156 0.05923 0.0
C670 C 0.58737 0.43455 0.04457 0.0
C671 C 0.56589 0.45162 0.03632 0.0
C672 C 0.55229 0.46144 0.07169 0.0
C673 C 0.56107 0.45441 0.11549 0.0
C674 C 0.58253 0.43736 0.12365 0.0
H675 H 0.58663 0.34977 0.0586 0.0
H676 H 0.57036 0.37967 0.07378 0.0
H677 H 0.58792 0.37875 0.02444 0.0
H678 H 0.5974 0.42693 0.0169 0.0
H679 H 0.55976 0.4568 1.00221 0.0
H680 H 0.97553 0.40452 0.53045 0.0
H681 H 0.95345 0.3673 0.49193 0.0
H682 H 0.88944 0.41841 0.44331 0.0
H683 H 0.91109 0.45555 0.48147 0.0
H684 H 0.89709 0.34752 0.49454 0.0
H685 H 0.92322 0.38554 0.33105 0.0
H686 H 0.94067 0.39502 0.383 0.0
H687 H 0.90928 0.40983 0.3656 0.0
C688 C 0.95651 0.40771 0.51223 0.0
C689 C 0.94515 0.43301 0.50858 0.0
C690 C 0.94404 0.38649 0.49018 0.0
C691 C 0.9202 0.39041 0.46425 0.0
C692 C 0.90811 0.41524 0.46268 0.0
H693 H 0.78808 0.31433 0.3513 0.0
H694 H 0.82344 0.33616 0.39581 0.0
C695 C 0.92046 0.43638 0.48465 0.0
C696 C 0.90801 0.36905 0.43722 0.0
H697 H 0.88765 0.35453 0.32991 0.0
C698 C 0.89544 0.34864 0.45853 0.0
C699 C 0.90644 0.37037 0.39031 0.0
C700 C 0.92083 0.39123 0.36602 0.0
C701 C 0.87949 0.33061 0.43395 0.0
C702 C 0.8759 0.33349 0.38722 0.0
C703 C 0.89024 0.35259 0.36579 0.0
C704 C 0.85497 0.31923 0.36068 0.0
C705 C 0.86585 0.30925 0.45826 0.0
C706 C 0.86101 0.30319 0.32515 0.0
C707 C 0.84073 0.29075 0.2992 0.0
C708 C 0.81416 0.29447 0.30822 0.0
C709 C 0.8083 0.31097 0.34341 0.0
C710 C 0.82851 0.32325 0.36928 0.0
H711 H 0.87703 0.30424 0.49035 0.0
H712 H 0.84591 0.31625 0.46568 0.0
H713 H 0.86347 0.29117 0.43787 0.0
H714 H 0.88137 0.30022 0.3177 0.0
H715 H 0.84589 0.27815 0.27234 0.0
H716 H 0.76874 0.67581 0.68774 0.0
H717 H 0.79947 0.64457 0.65811 0.0
H718 H 0.85887 0.66472 0.76232 0.0
H719 H 0.82838 0.69631 0.79203 0.0
H720 H 0.8779 0.66437 0.67863 0.0
H721 H 0.82298 0.57269 0.70841 0.0
H722 H 0.80351 0.59728 0.67787 0.0
H723 H 0.81565 0.60349 0.7344 0.0
C724 C 0.78825 0.6735 0.70466 0.0
C725 C 0.79602 0.68854 0.74244 0.0
C726 C 0.80576 0.65551 0.68775 0.0
C727 C 0.83132 0.65203 0.7084 0.0
C728 C 0.83918 0.667 0.74603 0.0
H729 H 0.94141 0.5269 0.65218 0.0
H730 H 0.91155 0.55692 0.68705 0.0
C731 C 0.82169 0.68503 0.76299 0.0
C732 C 0.85017 0.63352 0.68969 0.0
H733 H 0.85883 0.56917 0.66219 0.0
C734 C 0.87381 0.64353 0.67523 0.0
C735 C 0.84493 0.6063 0.68579 0.0
C736 C 0.82051 0.5942 0.70281 0.0
C737 C 0.8921 0.62713 0.65607 0.0
C738 C 0.88638 0.60009 0.6506 0.0
C739 C 0.86303 0.58997 0.66598 0.0
C740 C 0.90444 0.58194 0.62916 0.0
C741 C 0.91754 0.63885 0.64233 0.0
C742 C 0.91007 0.58586 0.58482 0.0
C743 C 0.92716 0.56876 0.56473 0.0
C744 C 0.93883 0.54728 0.58854 0.0
C745 C 0.93284 0.54324 0.63282 0.0
C746 C 0.91575 0.56036 0.65286 0.0
H747 H 0.92204 0.65785 0.65923 0.0
H748 H 0.93445 0.62518 0.64989 0.0
H749 H 0.91566 0.64259 0.60596 0.0
H750 H 0.90112 0.60209 0.56564 0.0
H751 H 0.93119 0.57241 0.53053 0.0
H752 H 0.27317 0.31363 0.18554 0.0
H753 H 0.30478 0.34477 0.15845 0.0
H754 H 0.36087 0.32461 0.26827 0.0
H755 H 0.32955 0.29298 0.29528 0.0
H756 H 0.32705 0.38817 0.1984 0.0
H757 H 0.40502 0.31617 0.16237 0.0
H758 H 0.372 0.30636 0.17346 0.0
H759 H 0.39569 0.31488 0.2185 0.0
C760 C 0.29224 0.31572 0.20399 0.0
C761 C 0.29883 0.30067 0.24255 0.0
C762 C 0.3103 0.33357 0.1884 0.0
C763 C 0.33535 0.33675 0.21092 0.0
C764 C 0.34189 0.32206 0.24977 0.0
H765 H 0.43834 0.47032 0.16788 0.0
H766 H 0.40973 0.43793 0.1999 0.0
C767 C 0.32387 0.30409 0.26532 0.0
C768 C 0.3543 0.35587 0.19405 0.0
H769 H 0.41581 0.36131 0.15604 0.0
C770 C 0.34646 0.3823 0.18914 0.0
C771 C 0.3795 0.34813 0.18146 0.0
C772 C 0.38853 0.31981 0.18377 0.0
C773 C 0.36313 0.40122 0.17217 0.0
C774 C 0.3886 0.39362 0.16065 0.0
C775 C 0.3964 0.36716 0.16533 0.0
C776 C 0.40706 0.41267 0.14225 0.0
C777 C 0.35301 0.42904 0.16564 0.0
C778 C 0.4159 0.40876 0.09984 0.0
C779 C 0.43249 0.42711 0.08155 0.0
C780 C 0.44059 0.44977 0.10536 0.0
C781 C 0.43225 0.45327 0.14836 0.0
C782 C 0.41577 0.43483 0.16668 0.0
H783 H 0.33108 0.43005 0.16496 0.0
H784 H 0.36124 0.44134 0.19362 0.0
H785 H 0.35925 0.43762 0.13423 0.0
H786 H 0.40954 0.39172 0.08048 0.0
H787 H 0.43855 0.42372 0.04843 0.0
H788 H 0.40005 0.52547 0.97826 0.0
H789 H 0.37467 0.55236 0.92277 0.0
H790 H 0.42256 0.61961 0.96075 0.0
H791 H 0.44824 0.59284 0.01658 0.0
H792 H 0.364 0.62828 0.94193 0.0
H793 H 0.41377 0.57586 0.80995 0.0
H794 H 0.39909 0.55526 0.84983 0.0
H795 H 0.42663 0.57575 0.86747 0.0
C796 C 0.40492 0.5461 0.97546 0.0
C797 C 0.42638 0.55698 1.00135 0.0
C798 C 0.39044 0.56137 0.94367 0.0
C799 C 0.39718 0.58771 0.93732 0.0
C800 C 0.41729 0.5992 0.96518 0.0
H801 H 0.3547 0.68732 0.70829 0.0
H802 H 0.37882 0.66108 0.76653 0.0
C803 C 0.43185 0.58391 0.99707 0.0
C804 C 0.38441 0.60259 0.8995 0.0
H805 H 0.37878 0.60496 0.78615 0.0
C806 C 0.36723 0.62331 0.90786 0.0
C807 C 0.38911 0.59615 0.85527 0.0
C808 C 0.40831 0.57469 0.84485 0.0
C809 C 0.35395 0.6374 0.87278 0.0
C810 C 0.3579 0.6303 0.8285 0.0
C811 C 0.37565 0.61007 0.82021 0.0
C812 C 0.34367 0.64376 0.79041 0.0
C813 C 0.33593 0.65987 0.88325 0.0
C814 C 0.31612 0.64164 0.78353 0.0
C815 C 0.30232 0.65641 0.75025 0.0
C816 C 0.31589 0.67356 0.72335 0.0
C817 C 0.34368 0.67433 0.72851 0.0
C818 C 0.35748 0.65947 0.76183 0.0
H819 H 0.33966 0.66655 0.91816 0.0
H820 H 0.33844 0.67683 0.86066 0.0
H821 H 0.31504 0.65334 0.8784 0.0
H822 H 0.30525 0.62916 0.80482 0.0
H823 H 0.28093 0.65522 0.74694 0.0
H824 H 0.18519 0.7064 0.65631 0.0
H825 H 0.14972 0.67932 0.62287 0.0
H826 H 0.19532 0.66405 0.51083 0.0
H827 H 0.23157 0.69069 0.54484 0.0
H828 H 0.11926 0.68093 0.54426 0.0
H829 H 0.18206 0.59057 0.5568 0.0
H830 H 0.19241 0.62097 0.58308 0.0
H831 H 0.19391 0.61703 0.5242 0.0
C832 C 0.18772 0.69749 0.62439 0.0
C833 C 0.2114 0.70037 0.60356 0.0
C834 C 0.16733 0.68207 0.60524 0.0
C835 C 0.1701 0.66933 0.5648 0.0
C836 C 0.19309 0.67326 0.54259 0.0
H837 H 0.05779 0.5491 0.46156 0.0
H838 H 0.09158 0.5834 0.46232 0.0
C839 C 0.2137 0.68855 0.56199 0.0
C840 C 0.14937 0.65078 0.54799 0.0
H841 H 0.13723 0.58529 0.53363 0.0
C842 C 0.12323 0.66007 0.54124 0.0
C843 C 0.15465 0.62355 0.54423 0.0
C844 C 0.18221 0.61229 0.55274 0.0
C845 C 0.10209 0.6427 0.53275 0.0
C846 C 0.10733 0.61549 0.53093 0.0
C847 C 0.13348 0.60628 0.5351 0.0
C848 C 0.08587 0.59605 0.52917 0.0
C849 C 0.07422 0.65337 0.5272 0.0
C850 C 0.07179 0.59186 0.56673 0.0
C851 C 0.05275 0.57216 0.56669 0.0
C852 C 0.04743 0.55645 0.52893 0.0
C853 C 0.06138 0.56097 0.4911 0.0
C854 C 0.08064 0.58051 0.49139 0.0
H855 H 0.07384 0.67482 0.51996 0.0
H856 H 0.06254 0.64302 0.49998 0.0
H857 H 0.06444 0.65002 0.55837 0.0
H858 H 0.07592 0.60354 0.59638 0.0
H859 H 0.04229 0.5692 0.59625 0.0
H860 H 0.16223 0.29817 0.27667 0.0
H861 H 0.13208 0.33062 0.30486 0.0
H862 H 0.18643 0.34249 0.4201 0.0
H863 H 0.21693 0.31048 0.39189 0.0
H864 H 0.10741 0.32995 0.38228 0.0
H865 H 0.1722 0.41734 0.37768 0.0
H866 H 0.17924 0.38705 0.34993 0.0
H867 H 0.18725 0.39031 0.40877 0.0
C868 C 0.16788 0.30777 0.30791 0.0
C869 C 0.19212 0.30182 0.33185 0.0
C870 C 0.15059 0.32632 0.32396 0.0
C871 C 0.1572 0.33932 0.36419 0.0
C872 C 0.18122 0.33321 0.38842 0.0
H873 H 0.07646 0.44681 0.52994 0.0
H874 H 0.10719 0.41646 0.49779 0.0
C875 C 0.19858 0.31476 0.37232 0.0
C876 C 0.13854 0.3586 0.38153 0.0
H877 H 0.13312 0.42216 0.41597 0.0
C878 C 0.11296 0.35017 0.38933 0.0
C879 C 0.14583 0.38497 0.39072 0.0
C880 C 0.17253 0.39557 0.38096 0.0
C881 C 0.09467 0.36723 0.40697 0.0
C882 C 0.10207 0.39348 0.41659 0.0
C883 C 0.12757 0.40198 0.40863 0.0
C884 C 0.08364 0.41235 0.43534 0.0
C885 C 0.06776 0.3569 0.41616 0.0
C886 C 0.06044 0.42042 0.41054 0.0
C887 C 0.04284 0.43783 0.42872 0.0
C888 C 0.04813 0.4475 0.47211 0.0
C889 C 0.07167 0.43969 0.49654 0.0
C890 C 0.0893 0.42236 0.47823 0.0
H891 H 0.06717 0.33507 0.41592 0.0
H892 H 0.06198 0.36392 0.44884 0.0
H893 H 0.05284 0.36429 0.39015 0.0
H894 H 0.05594 0.41322 0.3771 0.0
H895 H 0.02498 0.44348 0.40885 0.0
H896 H 0.02289 0.96833 0.8527 0.0
H897 H 0.02053 0.9598 0.93232 0.0
H898 H 0.9884 0.03748 0.94851 0.0
H899 H 0.98995 0.04588 0.86901 0.0
H900 H 0.04524 0.9871 1.00435 0.0
H901 H 0.93613 0.99092 1.00846 0.0
H902 H 0.95213 0.98784 0.95735 0.0
H903 H 0.94972 0.01939 0.98341 0.0
C904 C 0.01497 0.98347 0.87309 0.0
C905 C 0.00657 0.00779 0.85435 0.0
C906 C 0.0138 0.97862 0.91865 0.0
C907 C 0.00397 -0.00213 0.94632 0.0
C908 C 0.99563 0.02215 0.92774 0.0
H909 H 0.98373 0.01471 0.22723 0.0
H910 H 0.98711 0.0209 0.14743 0.0
C911 C 0.99683 0.02703 0.8823 0.0
C912 C 0.00309 0.99292 0.9948 0.0
H913 H 0.96132 0.99126 0.07836 0.0
C914 C 0.02688 0.9878 0.02051 0.0
C915 C 0.97912 0.99387 0.01588 0.0
C916 C 0.95278 -0.00194 0.98985 0.0
C917 C 0.02742 0.98429 0.06683 0.0
C918 C 0.00348 0.98554 0.08794 0.0
C919 C 0.97968 0.99043 0.06218 0.0
C920 C 0.00264 0.98196 0.13675 0.0
C921 C 0.05369 0.97999 0.09298 0.0
C922 C 0.01023 0.95799 0.15733 0.0
C923 C 0.00843 0.95442 0.20304 0.0
C924 C 0.99894 0.97474 0.22913 0.0
C925 C 0.99152 -0.00121 0.20837 0.0
C926 C 0.99325 0.0023 0.16266 0.0
H927 H 0.07054 0.98586 0.07371 0.0
H928 H 0.05472 0.99124 0.12449 0.0
H929 H 0.05603 0.95881 0.10144 0.0
H930 H 0.01715 0.94187 0.13791 0.0
H931 H 0.01444 0.93571 0.21794 0.0
H932 H 0.31881 0.70653 0.35301 0.0
H933 H 0.3112 0.70696 0.27199 0.0
H934 H 0.25979 0.77431 0.27906 0.0
H935 H 0.26785 0.77445 0.36015 0.0
H936 H 0.26353 0.70255 0.21883 0.0
H937 H 0.31241 0.798 0.19021 0.0
H938 H 0.31675 0.7805 0.24248 0.0
H939 H 0.28708 0.79924 0.22861 0.0
C940 C 0.30608 0.72161 0.33736 0.0
C941 C 0.29412 0.7406 0.36315 0.0
C942 C 0.30163 0.72173 0.29103 0.0
C943 C 0.28527 0.74091 0.26938 0.0
C944 C 0.27288 0.75961 0.29498 0.0
H945 H 0.23588 0.77268 0.99151 0.0
H946 H 0.24293 0.77318 0.07266 0.0
C947 C 0.27727 0.75948 0.34139 0.0
C948 C 0.28098 0.74107 0.22007 0.0
H949 H 0.29002 0.77791 0.12747 0.0
C950 C 0.26939 0.71899 0.19883 0.0
C951 C 0.28861 0.76255 0.19402 0.0
C952 C 0.30212 0.78635 0.21483 0.0
C953 C 0.26487 0.71795 0.15232 0.0
C954 C 0.27262 0.73937 0.12624 0.0
C955 C 0.28412 0.7615 0.14748 0.0
C956 C 0.26885 0.73922 0.07688 0.0
C957 C 0.25133 0.69415 0.13155 0.0
C958 C 0.28148 0.72026 0.05216 0.0
C959 C 0.27742 0.71986 1.00574 0.0
C960 C 0.26068 0.73847 0.98303 0.0
C961 C 0.24855 0.7578 1.00792 0.0
C962 C 0.25268 0.75822 0.05431 0.0
H963 H 0.24069 0.68278 0.15607 0.0
H964 H 0.237 0.69995 0.10344 0.0
H965 H 0.2664 0.68102 0.11847 0.0
H966 H 0.29444 0.7057 0.06879 0.0
H967 H 0.28694 0.7046 0.98773 0.0
H968 H 0.44586 0.9814 0.70305 0.0
H969 H 0.44784 0.97293 0.62343 0.0
H970 H 0.51276 0.02715 0.61943 0.0
H971 H 0.51133 0.03524 0.69895 0.0
H972 H 0.44183 0.00966 0.55278 0.0
H973 H 0.54045 0.96141 0.5597 0.0
H974 H 0.52226 0.96565 0.6083 0.0
H975 H 0.54028 0.99269 0.58702 0.0
C976 C 0.4608 0.99124 0.68535 0.0
C977 C 0.47844 0.009 0.70746 0.0
C978 C 0.4618 0.9865 0.63979 0.0
C979 C 0.48065 -0.00083 0.61555 0.0
C980 C 0.49832 0.01683 0.63754 0.0
H981 H 0.51836 0.00371 0.33949 0.0
H982 H 0.51563 0.01098 0.41918 0.0
C983 C 0.49727 0.02165 0.68296 0.0
C984 C 0.48136 0.99462 0.56699 0.0
H985 H 0.52121 0.97336 0.48805 0.0
C986 C 0.45911 0.00155 0.53862 0.0
C987 C 0.50395 0.98413 0.54854 0.0
C988 C 0.52802 0.9753 0.57743 0.0
C989 C 0.45906 -0.00118 0.49226 0.0
C990 C 0.48171 0.98845 0.4738 0.0
C991 C 0.5039 0.9814 0.50219 0.0
C992 C 0.48273 0.98458 0.42512 0.0
C993 C 0.43501 0.00769 0.46335 0.0
C994 C 0.46523 0.96723 0.40196 0.0
C995 C 0.46668 0.96311 0.35638 0.0
C996 C 0.48574 0.97618 0.33295 0.0
C997 C 0.50321 0.9936 0.35629 0.0
C998 C 0.5018 -0.00235 0.40193 0.0
H999 H 0.42235 0.02124 0.4813 0.0
H1000 H 0.44083 0.01775 0.43288 0.0
H1001 H 0.42299 0.99027 0.45306 0.0
H1002 H 0.45064 0.95661 0.41924 0.0
H1003 H 0.45278 0.94972 0.33946 0.0
H1004 H 0.20483 0.28599 0.95392 0.0
H1005 H 0.21225 0.28492 0.87479 0.0
H1006 H 0.26021 0.21515 0.89642 0.0
H1007 H 0.25228 0.21562 0.97535 0.0
H1008 H 0.25944 0.2868 0.83265 0.0
H1009 H 0.20649 0.19329 0.79521 0.0
H1010 H 0.20334 0.21122 0.84601 0.0
H1011 H 0.23198 0.19097 0.83986 0.0
C1012 C 0.21677 0.27026 0.94184 0.0
C1013 C 0.22778 0.25077 0.97112 0.0
C1014 C 0.22113 0.26978 0.89658 0.0
C1015 C 0.23643 0.24971 0.87944 0.0
C1016 C 0.24792 0.23055 0.90866 0.0
H1017 H 0.28553 0.21055 0.61833 0.0
H1018 H 0.27781 0.21258 0.6972 0.0
C1019 C 0.24362 0.23104 0.95396 0.0
C1020 C 0.24051 0.24899 0.83109 0.0
H1021 H 0.23052 0.21121 0.73792 0.0
C1022 C 0.253 0.27034 0.81188 0.0
C1023 C 0.2321 0.22751 0.80394 0.0
C1024 C 0.21751 0.20453 0.8221 0.0
C1025 C 0.25784 0.27053 0.76658 0.0
C1026 C 0.2495 0.249 0.73947 0.0
C1027 C 0.23693 0.2277 0.75866 0.0
C1028 C 0.254 0.24799 0.69128 0.0
C1029 C 0.27245 0.29348 0.74842 0.0
C1030 C 0.24286 0.26701 0.6614 0.0
C1031 C 0.24736 0.26599 0.61618 0.0
C1032 C 0.26304 0.24587 0.5998 0.0
C1033 C 0.27375 0.2266 0.62978 0.0
C1034 C 0.26921 0.22761 0.67491 0.0
H1035 H 0.28328 0.30487 0.77533 0.0
H1036 H 0.28679 0.28674 0.72485 0.0
H1037 H 0.25803 0.30692 0.73027 0.0
H1038 H 0.23062 0.28264 0.67302 0.0
H1039 H 0.23889 0.28123 0.5942 0.0
H1040 H 0.78341 0.21102 0.92376 0.0
H1041 H 0.77626 0.21447 0.84288 0.0
H1042 H 0.7497 0.29457 0.85479 0.0
H1043 H 0.75754 0.29156 0.93577 0.0
H1044 H 0.73 0.22551 0.79027 0.0
H1045 H 0.80631 0.30109 0.76584 0.0
H1046 H 0.80497 0.28306 0.81728 0.0
H1047 H 0.78267 0.3101 0.80451 0.0
C1048 C 0.77633 0.2295 0.90923 0.0
C1049 C 0.77128 0.25109 0.9364 0.0
C1050 C 0.77208 0.23137 0.86294 0.0
C1051 C 0.76285 0.2549 0.84264 0.0
C1052 C 0.75732 0.27637 0.8696 0.0
H1053 H 0.72447 0.30115 0.56636 0.0
H1054 H 0.73151 0.29939 0.64754 0.0
C1055 C 0.76152 0.2745 0.91598 0.0
C1056 C 0.75862 0.25671 0.79333 0.0
H1057 H 0.77835 0.28946 0.70242 0.0
C1058 C 0.74063 0.23944 0.77106 0.0
C1059 C 0.77248 0.27492 0.76824 0.0
C1060 C 0.79287 0.29321 0.79004 0.0
C1061 C 0.73586 0.2401 0.72454 0.0
C1062 C 0.7498 0.2582 0.69944 0.0
C1063 C 0.76769 0.27558 0.72169 0.0
C1064 C 0.74611 0.25934 0.65006 0.0
C1065 C 0.71554 0.22172 0.70271 0.0
C1066 C 0.75243 0.23759 0.62437 0.0
C1067 C 0.74837 0.2385 0.57796 0.0
C1068 C 0.73793 0.26124 0.55617 0.0
C1069 C 0.73215 0.28319 0.58202 0.0
C1070 C 0.73631 0.28228 0.62844 0.0
H1071 H 0.70197 0.21399 0.7268 0.0
H1072 H 0.70359 0.23175 0.67515 0.0
H1073 H 0.72581 0.20474 0.68863 0.0
H1074 H 0.76044 0.21983 0.64025 0.0
H1075 H 0.75287 0.22117 0.55921 0.0
H1076 H 0.7518 0.70916 0.4788 0.0
H1077 H 0.76049 0.70824 0.40003 0.0
H1078 H 0.71275 0.77798 0.37627 0.0
H1079 H 0.7046 0.7795 0.45492 0.0
H1080 H 0.72398 0.70436 0.32573 0.0
H1081 H 0.78084 0.79706 0.31993 0.0
H1082 H 0.77456 0.78097 0.37148 0.0
H1083 H 0.74929 0.80081 0.34241 0.0
C1084 C 0.74346 0.72453 0.45695 0.0
C1085 C 0.72753 0.74443 0.47334 0.0
C1086 C 0.74831 0.72386 0.41185 0.0
C1087 C 0.73756 0.74322 0.38228 0.0
C1088 C 0.72164 0.76308 0.39851 0.0
H1089 H 0.73738 0.77444 0.09876 0.0
H1090 H 0.72958 0.77419 0.17781 0.0
C1091 C 0.71675 0.76374 0.44349 0.0
C1092 C 0.74231 0.74229 0.33423 0.0
H1093 H 0.76724 0.7776 0.25045 0.0
C1094 C 0.73361 0.72029 0.30932 0.0
C1095 C 0.75481 0.7631 0.31277 0.0
C1096 C 0.76565 0.78673 0.33804 0.0
C1097 C 0.7365 0.71881 0.2634 0.0
C1098 C 0.74885 0.73971 0.2419 0.0
C1099 C 0.75768 0.76164 0.26687 0.0
C1100 C 0.75292 0.7392 0.19357 0.0
C1101 C 0.7257 0.69519 0.23809 0.0
C1102 C 0.76873 0.71967 0.17607 0.0
C1103 C 0.77312 0.71968 0.13083 0.0
C1104 C 0.7619 0.7393 0.10204 0.0
C1105 C 0.74601 0.75881 0.11972 0.0
C1106 C 0.74169 0.75881 0.16501 0.0
H1107 H 0.71093 0.68447 0.25659 0.0
H1108 H 0.71627 0.70106 0.20505 0.0
H1109 H 0.74218 0.68142 0.23278 0.0
H1110 H 0.77798 0.70459 0.19752 0.0
H1111 H 0.78528 0.70424 0.11838 0.0
H1112 H 0.4616 0.52486 0.72809 0.0
H1113 H 0.46492 0.53054 0.64821 0.0
H1114 H 0.51664 0.46302 0.64772 0.0
H1115 H 0.51327 0.4571 0.72765 0.0
H1116 H 0.50807 0.53944 0.60101 0.0
H1117 H 0.46076 0.4451 0.549 0.0
H1118 H 0.45957 0.45801 0.6044 0.0
H1119 H 0.48885 0.44155 0.58865 0.0
C1120 C 0.47385 0.51132 0.71107 0.0
C1121 C 0.4871 0.49047 0.73426 0.0
C1122 C 0.47562 0.51452 0.66534 0.0
C1123 C 0.49064 0.49693 0.64175 0.0
C1124 C 0.50437 0.47642 0.66494 0.0
H1125 H 0.52239 0.48955 0.36135 0.0
H1126 H 0.52162 0.48167 0.44146 0.0
C1127 C 0.50249 0.47312 0.71067 0.0
C1128 C 0.49217 0.50042 0.59305 0.0
H1129 H 0.47899 0.47032 0.49275 0.0
C1130 C 0.50166 0.52434 0.57735 0.0
C1131 C 0.48387 0.48067 0.56216 0.0
C1132 C 0.47246 0.45497 0.57675 0.0
C1133 C 0.50325 0.52901 0.53172 0.0
C1134 C 0.49472 0.50938 0.50082 0.0
C1135 C 0.48553 0.48533 0.51649 0.0
C1136 C 0.49465 0.5137 0.45208 0.0
C1137 C 0.51441 0.55481 0.51704 0.0
C1138 C 0.47928 0.53392 0.43129 0.0
C1139 C 0.47961 0.53842 0.3856 0.0
C1140 C 0.4952 0.52266 0.35958 0.0
C1141 C 0.51004 0.50194 0.38032 0.0
C1142 C 0.50973 0.49749 0.42612 0.0
H1143 H 0.52655 0.56448 0.5445 0.0
H1144 H 0.52679 0.55197 0.48865 0.0
H1145 H 0.49786 0.56829 0.50618 0.0
H1146 H 0.46695 0.54624 0.45043 0.0
H1147 H 0.46749 0.55417 0.37059 0.0
H1148 H 0.03206 0.45803 0.86638 0.0
H1149 H 0.02678 0.4639 0.94549 0.0
H1150 H 0.98667 0.5377 0.91727 0.0
H1151 H 0.9922 0.53223 0.83798 0.0
H1152 H 0.04443 0.50534 1.00265 0.0
H1153 H 0.9349 0.49653 0.98998 0.0
H1154 H 0.9548 0.48656 0.94586 0.0
H1155 H 0.94766 0.52076 0.95387 0.0
C1156 C 0.02237 0.47569 0.87692 0.0
C1157 C 0.01255 0.49466 0.84562 0.0
C1158 C 0.01924 0.47892 0.9222 0.0
C1159 C 0.00604 0.50105 0.93723 0.0
C1160 C 0.99648 0.52021 0.9063 0.0
H1161 H 0.96427 0.55168 0.19754 0.0
H1162 H 0.97192 0.54833 0.11878 0.0
C1163 C -0.00036 0.51703 0.86096 0.0
C1164 C 0.00245 0.50409 0.98533 0.0
H1165 H 0.95544 0.50809 0.06023 0.0
C1166 C 0.02499 0.50589 1.01529 0.0
C1167 C 0.97706 0.50479 1.00173 0.0
C1168 C 0.95218 0.50183 0.97133 0.0
C1169 C 0.02281 0.50877 0.06117 0.0
C1170 C 0.99741 0.50939 0.07758 0.0
C1171 C 0.97489 0.50766 0.04758 0.0
C1172 C 0.99371 0.5117 0.12577 0.0
C1173 C 0.04768 0.51164 0.09159 0.0
C1174 C 0.00333 0.49215 0.15592 0.0
C1175 C 0.99885 0.49391 0.20101 0.0
C1176 C 0.98451 0.5152 0.21685 0.0
C1177 C 0.97508 0.53484 0.18649 0.0
C1178 C 0.97954 0.53303 0.14146 0.0
H1179 H 0.06481 0.51757 0.07304 0.0
H1180 H 0.04491 0.5264 0.11782 0.0
H1181 H 0.05256 0.49248 0.10806 0.0
H1182 H 0.01383 0.47522 0.14442 0.0
H1183 H 0.00601 0.47822 0.22322 0.0
loop_
_geom_bond_atom_site_label_1
_geom_bond_atom_site_label_2
_geom_bond_distance
_geom_bond_site_symmetry_2
_ccdc_geom_bond_type
Dy0 O3 2.307 . S
Dy0 O5 2.375 1_545 S
Dy0 O6 2.379 1_455 S
Dy0 O8 2.339 1_455 S
Dy0 O10 2.298 1_445 S
Dy0 O14 2.275 1_545 S
Dy0 C22 2.738 1_455 S
Dy1 O4 2.298 1_665 S
Dy1 O7 2.275 1_565 S
Dy1 O9 2.307 . S
Dy1 O11 2.395 1_565 S
Dy1 O12 2.379 1_655 S
Dy1 O15 2.339 1_655 S
Dy1 C31 2.738 1_655 S
C2 O14 1.254 . S
C2 O15 1.257 . S
O3 Dy0 2.307 . S
O3 C13 1.266 . S
O4 Dy1 2.298 1_445 S
O4 C13 1.236 . S
O5 Dy0 2.375 1_565 S
O5 C22 1.228 1_465 S
O6 Dy0 2.379 1_655 S
O6 C22 1.249 . S
O7 Dy1 2.275 1_545 S
O7 C23 1.254 . S
O8 Dy0 2.339 1_655 S
O8 C23 1.257 . S
O9 Dy1 2.307 . S
O9 C24 1.266 . S
O10 Dy0 2.298 1_665 S
O10 C24 1.236 . S
O11 Dy1 2.395 1_545 S
O11 C31 1.255 1_645 S
O12 Dy1 2.379 1_455 S
O12 C31 1.249 . S
C13 O3 1.266 . S
C13 O4 1.236 . S
O14 Dy0 2.275 1_565 S
O14 C2 1.254 . S
O15 Dy1 2.339 1_455 S
O15 C2 1.257 . S
C16 C19 1.350 1_545 S
C16 C20 1.328 . S
C16 C22 1.516 . S
C17 C18 1.304 1_545 S
C17 C21 1.323 . S
C18 C17 1.304 1_565 S
C18 C19 1.376 . S
C18 H32 0.930 1_655 S
C19 C16 1.350 1_565 S
C19 C18 1.376 . S
C19 H33 0.921 1_655 S
C20 C16 1.328 . S
C20 C21 1.433 . S
C20 H34 0.931 . S
C21 C17 1.323 . S
C21 C20 1.433 . S
C21 H35 0.933 . S
C22 Dy0 2.738 1_655 S
C22 O5 1.228 1_645 S
C22 O6 1.249 . S
C22 C16 1.516 . S
C23 O7 1.254 . S
C23 O8 1.257 . S
C24 O9 1.266 . S
C24 O10 1.236 . S
C25 C28 1.353 1_565 S
C25 C29 1.328 . S
C25 C31 1.516 . S
C26 C27 1.304 1_565 S
C26 C30 1.323 . S
C27 C26 1.304 1_545 S
C27 C28 1.378 . S
C27 H36 0.930 1_455 S
C28 C25 1.353 1_545 S
C28 C27 1.378 . S
C28 H37 0.917 1_455 S
C29 C25 1.328 . S
C29 C30 1.433 . S
C29 H38 0.931 . S
C30 C26 1.323 . S
C30 C29 1.433 . S
C30 H39 0.933 . S
C31 Dy1 2.738 1_455 S
C31 O11 1.255 1_465 S
C31 O12 1.249 . S
C31 C25 1.516 . S
H32 C18 0.930 1_455 S
H33 C19 0.921 1_455 S
H34 C20 0.931 . S
H35 C21 0.933 . S
H36 C27 0.930 1_655 S
H37 C28 0.917 1_655 S
H38 C29 0.931 . S
H39 C30 0.933 . S
Dy40 O43 2.307 . S
Dy40 O45 2.395 . S
Dy40 O46 2.379 . S
Dy40 O48 2.339 . S
Dy40 O50 2.298 . S
Dy40 O54 2.275 . S
Dy40 C62 2.738 . S
Dy41 O44 2.298 . S
Dy41 O47 2.275 . S
Dy41 O49 2.307 . S
Dy41 O51 2.395 . S
Dy41 O52 2.379 . S
Dy41 O55 2.339 . S
Dy41 C71 2.738 . S
C42 O54 1.254 . S
C42 O55 1.257 . S
O43 Dy40 2.307 . S
O43 C53 1.266 . S
O44 Dy41 2.298 . S
O44 C53 1.236 . S
O45 Dy40 2.395 . S
O45 C62 1.255 . S
O46 Dy40 2.379 . S
O46 C62 1.249 . S
O47 Dy41 2.275 . S
O47 C63 1.254 . S
O48 Dy40 2.339 . S
O48 C63 1.257 . S
O49 Dy41 2.307 . S
O49 C64 1.266 . S
O50 Dy40 2.298 . S
O50 C64 1.236 . S
O51 Dy41 2.395 . S
O51 C71 1.255 . S
O52 Dy41 2.379 . S
O52 C71 1.249 . S
C53 O43 1.266 . S
C53 O44 1.236 . S
O54 Dy40 2.275 . S
O54 C42 1.254 . S
O55 Dy41 2.339 . S
O55 C42 1.257 . S
C56 C59 1.344 . S
C56 C60 1.328 . S
C56 C62 1.516 . S
C57 C58 1.304 . S
C57 C61 1.323 . S
C58 C57 1.304 . S
C58 C59 1.371 . S
C58 H72 0.930 . S
C59 C56 1.344 . S
C59 C58 1.371 . S
C59 H73 0.931 . S
C60 C56 1.328 . S
C60 C61 1.433 . S
C60 H74 0.931 . S
C61 C57 1.323 . S
C61 C60 1.433 . S
C61 H75 0.933 . S
C62 Dy40 2.738 . S
C62 O45 1.255 . S
C62 O46 1.249 . S
C62 C56 1.516 . S
C63 O47 1.254 . S
C63 O48 1.257 . S
C64 O49 1.266 . S
C64 O50 1.236 . S
C65 C68 1.344 . S
C65 C69 1.328 . S
C65 C71 1.516 . S
C66 C67 1.304 . S
C66 C70 1.323 . S
C67 C66 1.304 . S
C67 C68 1.371 1_554 S
C67 H76 0.930 . S
C68 C65 1.344 . S
C68 C67 1.371 1_556 S
C68 H77 0.931 . S
C69 C65 1.328 . S
C69 C70 1.433 1_556 S
C69 H78 0.931 . S
C70 C66 1.323 . S
C70 C69 1.433 1_554 S
C70 H79 0.933 . S
C71 Dy41 2.738 . S
C71 O51 1.255 . S
C71 O52 1.249 . S
C71 C65 1.516 . S
H72 C58 0.930 . S
H73 C59 0.931 . S
H74 C60 0.931 . S
H75 C61 0.933 . S
H76 C67 0.930 . S
H77 C68 0.931 . S
H78 C69 0.931 . S
H79 C70 0.933 . S
Dy80 O83 2.307 . S
Dy80 O85 2.377 1_545 S
Dy80 O86 2.379 . S
Dy80 O88 2.339 . S
Dy80 O90 2.298 1_545 S
Dy80 O94 2.275 1_545 S
Dy80 C102 2.738 . S
Dy81 O84 2.298 1_565 S
Dy81 O87 2.275 1_565 S
Dy81 O89 2.307 . S
Dy81 O91 2.395 1_565 S
Dy81 O92 2.379 . S
Dy81 O95 2.339 . S
Dy81 C111 2.738 . S
C82 O94 1.254 . S
C82 O95 1.257 1_556 S
O83 Dy80 2.307 . S
O83 C93 1.266 1_556 S
O84 Dy81 2.298 1_545 S
O84 C93 1.236 . S
O85 Dy80 2.377 1_565 S
O85 C102 1.230 1_565 S
O86 Dy80 2.379 . S
O86 C102 1.249 . S
O87 Dy81 2.275 1_545 S
O87 C103 1.254 . S
O88 Dy80 2.339 . S
O88 C103 1.257 1_556 S
O89 Dy81 2.307 . S
O89 C104 1.266 1_554 S
O90 Dy80 2.298 1_565 S
O90 C104 1.236 . S
O91 Dy81 2.395 1_545 S
O91 C111 1.255 1_545 S
O92 Dy81 2.379 . S
O92 C111 1.249 . S
C93 O83 1.266 1_554 S
C93 O84 1.236 . S
O94 Dy80 2.275 1_565 S
O94 C82 1.254 . S
O95 Dy81 2.339 . S
O95 C82 1.257 1_554 S
C96 C99 1.344 1_545 S
C96 C100 1.328 . S
C96 C102 1.516 . S
C97 C98 1.304 1_545 S
C97 C101 1.323 . S
C98 C97 1.304 1_565 S
C98 C99 1.371 . S
C98 H112 0.930 . S
C99 C96 1.344 1_565 S
C99 C98 1.371 . S
C99 H113 0.931 . S
C100 C96 1.328 . S
C100 C101 1.433 . S
C100 H114 0.931 . S
C101 C97 1.323 . S
C101 C100 1.433 . S
C101 H115 0.933 . S
C102 Dy80 2.738 . S
C102 O85 1.230 1_545 S
C102 O86 1.249 . S
C102 C96 1.516 . S
C103 O87 1.254 . S
C103 O88 1.257 1_554 S
C104 O89 1.266 1_556 S
C104 O90 1.236 . S
C105 C108 1.344 1_565 S
C105 C109 1.328 . S
C105 C111 1.516 . S
C106 C107 1.304 1_565 S
C106 C110 1.323 . S
C107 C106 1.304 1_545 S
C107 C108 1.371 . S
C107 H116 0.930 . S
C108 C105 1.344 1_545 S
C108 C107 1.371 . S
C108 H117 0.931 . S
C109 C105 1.328 . S
C109 C110 1.433 . S
C109 H118 0.931 . S
C110 C106 1.323 . S
C110 C109 1.433 . S
C110 H119 0.933 . S
C111 Dy81 2.738 . S
C111 O91 1.255 1_565 S
C111 O92 1.249 . S
C111 C105 1.516 . S
H112 C98 0.930 . S
H113 C99 0.931 . S
H114 C100 0.931 . S
H115 C101 0.933 . S
H116 C107 0.930 . S
H117 C108 0.931 . S
H118 C109 0.931 . S
H119 C110 0.933 . S
Dy120 O123 2.307 . S
Dy120 O125 2.395 . S
Dy120 O126 2.379 . S
Dy120 O128 2.339 . S
Dy120 O130 2.298 . S
Dy120 O134 2.275 . S
Dy120 C142 2.738 . S
Dy121 O124 2.298 . S
Dy121 O127 2.275 . S
Dy121 O129 2.307 . S
Dy121 O131 2.395 . S
Dy121 O132 2.379 . S
Dy121 O135 2.339 . S
Dy121 C151 2.738 . S
C122 O134 1.254 . S
C122 O135 1.257 . S
O123 Dy120 2.307 . S
O123 C133 1.266 . S
O124 Dy121 2.298 . S
O124 C133 1.236 . S
O125 Dy120 2.395 . S
O125 C142 1.255 . S
O126 Dy120 2.379 . S
O126 C142 1.249 . S
O127 Dy121 2.275 . S
O127 C143 1.254 . S
O128 Dy120 2.339 . S
O128 C143 1.257 . S
O129 Dy121 2.307 . S
O129 C144 1.266 . S
O130 Dy120 2.298 . S
O130 C144 1.236 . S
O131 Dy121 2.395 . S
O131 C151 1.255 . S
O132 Dy121 2.379 . S
O132 C151 1.249 . S
C133 O123 1.266 . S
C133 O124 1.236 . S
O134 Dy120 2.275 . S
O134 C122 1.254 . S
O135 Dy121 2.339 . S
O135 C122 1.257 . S
C136 C139 1.344 . S
C136 C140 1.328 . S
C136 C142 1.516 . S
C137 C138 1.304 . S
C137 C141 1.323 . S
C138 C137 1.304 . S
C138 C139 1.371 1_556 S
C138 H152 0.930 . S
C139 C136 1.344 . S
C139 C138 1.371 1_554 S
C139 H153 0.931 . S
C140 C136 1.328 . S
C140 C141 1.433 1_554 S
C140 H154 0.931 . S
C141 C137 1.323 . S
C141 C140 1.433 1_556 S
C141 H155 0.933 . S
C142 Dy120 2.738 . S
C142 O125 1.255 . S
C142 O126 1.249 . S
C142 C136 1.516 . S
C143 O127 1.254 . S
C143 O128 1.257 . S
C144 O129 1.266 . S
C144 O130 1.236 . S
C145 C148 1.344 . S
C145 C149 1.328 . S
C145 C151 1.516 . S
C146 C147 1.304 . S
C146 C150 1.323 . S
C147 C146 1.304 . S
C147 C148 1.371 . S
C147 H156 0.930 . S
C148 C145 1.344 . S
C148 C147 1.371 . S
C148 H157 0.931 . S
C149 C145 1.328 . S
C149 C150 1.433 . S
C149 H158 0.931 . S
C150 C146 1.323 . S
C150 C149 1.433 . S
C150 H159 0.933 . S
C151 Dy121 2.738 . S
C151 O131 1.255 . S
C151 O132 1.249 . S
C151 C145 1.516 . S
H152 C138 0.930 . S
H153 C139 0.931 . S
H154 C140 0.931 . S
H155 C141 0.933 . S
H156 C147 0.930 . S
H157 C148 0.931 . S
H158 C149 0.931 . S
H159 C150 0.933 . S
Dy160 O163 2.307 . S
Dy160 O165 2.395 . S
Dy160 O166 2.379 . S
Dy160 O168 2.339 . S
Dy160 O170 2.298 . S
Dy160 O174 2.275 . S
Dy160 C182 2.738 . S
Dy161 O164 2.298 . S
Dy161 O167 2.275 . S
Dy161 O169 2.307 . S
Dy161 O171 2.395 . S
Dy161 O172 2.379 . S
Dy161 O175 2.339 . S
Dy161 C191 2.738 . S
C162 O174 1.254 . S
C162 O175 1.257 . S
O163 Dy160 2.307 . S
O163 C173 1.266 . S
O164 Dy161 2.298 . S
O164 C173 1.236 . S
O165 Dy160 2.395 . S
O165 C182 1.255 . S
O166 Dy160 2.379 . S
O166 C182 1.249 . S
O167 Dy161 2.275 . S
O167 C183 1.254 . S
O168 Dy160 2.339 . S
O168 C183 1.257 . S
O169 Dy161 2.307 . S
O169 C184 1.266 . S
O170 Dy160 2.298 . S
O170 C184 1.236 . S
O171 Dy161 2.395 . S
O171 C191 1.255 . S
O172 Dy161 2.379 . S
O172 C191 1.249 . S
C173 O163 1.266 . S
C173 O164 1.236 . S
O174 Dy160 2.275 . S
O174 C162 1.254 . S
O175 Dy161 2.339 . S
O175 C162 1.257 . S
C176 C179 1.344 . S
C176 C180 1.328 . S
C176 C182 1.516 . S
C177 C178 1.304 . S
C177 C181 1.323 . S
C178 C177 1.304 . S
C178 C179 1.371 1_556 S
C178 H192 0.930 . S
C179 C176 1.344 . S
C179 C178 1.371 1_554 S
C179 H193 0.931 . S
C180 C176 1.328 . S
C180 C181 1.433 1_554 S
C180 H194 0.931 . S
C181 C177 1.323 . S
C181 C180 1.433 1_556 S
C181 H195 0.933 . S
C182 Dy160 2.738 . S
C182 O165 1.255 . S
C182 O166 1.249 . S
C182 C176 1.516 . S
C183 O167 1.254 . S
C183 O168 1.257 . S
C184 O169 1.266 . S
C184 O170 1.236 . S
C185 C188 1.344 . S
C185 C189 1.328 . S
C185 C191 1.516 . S
C186 C187 1.304 . S
C186 C190 1.323 . S
C187 C186 1.304 . S
C187 C188 1.371 . S
C187 H196 0.930 . S
C188 C185 1.344 . S
C188 C187 1.371 . S
C188 H197 0.931 . S
C189 C185 1.328 . S
C189 C190 1.433 . S
C189 H198 0.931 . S
C190 C186 1.323 . S
C190 C189 1.433 . S
C190 H199 0.933 . S
C191 Dy161 2.738 . S
C191 O171 1.255 . S
C191 O172 1.249 . S
C191 C185 1.516 . S
H192 C178 0.930 . S
H193 C179 0.931 . S
H194 C180 0.931 . S
H195 C181 0.933 . S
H196 C187 0.930 . S
H197 C188 0.931 . S
H198 C189 0.931 . S
H199 C190 0.933 . S
Dy200 O203 2.307 . S
Dy200 O205 2.395 . S
Dy200 O206 2.379 . S
Dy200 O208 2.339 . S
Dy200 O210 2.298 . S
Dy200 O214 2.275 . S
Dy200 C222 2.738 . S
Dy201 O204 2.298 . S
Dy201 O207 2.275 . S
Dy201 O209 2.307 . S
Dy201 O211 2.395 . S
Dy201 O212 2.379 . S
Dy201 O215 2.339 . S
Dy201 C231 2.738 . S
C202 O214 1.254 . S
C202 O215 1.257 . S
O203 Dy200 2.307 . S
O203 C213 1.266 . S
O204 Dy201 2.298 . S
O204 C213 1.236 . S
O205 Dy200 2.395 . S
O205 C222 1.255 . S
O206 Dy200 2.379 . S
O206 C222 1.249 . S
O207 Dy201 2.275 . S
O207 C223 1.254 . S
O208 Dy200 2.339 . S
O208 C223 1.257 . S
O209 Dy201 2.307 . S
O209 C224 1.266 . S
O210 Dy200 2.298 . S
O210 C224 1.236 . S
O211 Dy201 2.395 . S
O211 C231 1.255 . S
O212 Dy201 2.379 . S
O212 C231 1.249 . S
C213 O203 1.266 . S
C213 O204 1.236 . S
O214 Dy200 2.275 . S
O214 C202 1.254 . S
O215 Dy201 2.339 . S
O215 C202 1.257 . S
C216 C219 1.344 . S
C216 C220 1.328 . S
C216 C222 1.516 . S
C217 C218 1.304 . S
C217 C221 1.323 . S
C218 C217 1.304 . S
C218 C219 1.371 . S
C218 H232 0.930 . S
C219 C216 1.344 . S
C219 C218 1.371 . S
C219 H233 0.931 . S
C220 C216 1.328 . S
C220 C221 1.433 . S
C220 H234 0.931 . S
C221 C217 1.323 . S
C221 C220 1.433 . S
C221 H235 0.933 . S
C222 Dy200 2.738 . S
C222 O205 1.255 . S
C222 O206 1.249 . S
C222 C216 1.516 . S
C223 O207 1.254 . S
C223 O208 1.257 . S
C224 O209 1.266 . S
C224 O210 1.236 . S
C225 C228 1.344 . S
C225 C229 1.328 . S
C225 C231 1.516 . S
C226 C227 1.304 . S
C226 C230 1.323 . S
C227 C226 1.304 . S
C227 C228 1.371 1_554 S
C227 H236 0.930 . S
C228 C225 1.344 . S
C228 C227 1.371 1_556 S
C228 H237 0.931 . S
C229 C225 1.328 . S
C229 C230 1.433 1_556 S
C229 H238 0.931 . S
C230 C226 1.323 . S
C230 C229 1.433 1_554 S
C230 H239 0.933 . S
C231 Dy201 2.738 . S
C231 O211 1.255 . S
C231 O212 1.249 . S
C231 C225 1.516 . S
H232 C218 0.930 . S
H233 C219 0.931 . S
H234 C220 0.931 . S
H235 C221 0.933 . S
H236 C227 0.930 . S
H237 C228 0.931 . S
H238 C229 0.931 . S
H239 C230 0.933 . S
Dy240 O243 2.307 . S
Dy240 O245 2.395 . S
Dy240 O246 2.379 . S
Dy240 O248 2.339 . S
Dy240 O250 2.298 . S
Dy240 O254 2.275 . S
Dy240 C262 2.738 . S
Dy241 O244 2.298 . S
Dy241 O247 2.275 . S
Dy241 O249 2.307 . S
Dy241 O251 2.395 . S
Dy241 O252 2.379 . S
Dy241 O255 2.339 . S
Dy241 C271 2.738 . S
C242 O254 1.254 . S
C242 O255 1.257 1_554 S
O243 Dy240 2.307 . S
O243 C253 1.266 1_554 S
O244 Dy241 2.298 . S
O244 C253 1.236 . S
O245 Dy240 2.395 . S
O245 C262 1.255 . S
O246 Dy240 2.379 . S
O246 C262 1.249 . S
O247 Dy241 2.275 . S
O247 C263 1.254 . S
O248 Dy240 2.339 . S
O248 C263 1.257 1_554 S
O249 Dy241 2.307 . S
O249 C264 1.266 1_556 S
O250 Dy240 2.298 . S
O250 C264 1.236 . S
O251 Dy241 2.395 . S
O251 C271 1.255 . S
O252 Dy241 2.379 . S
O252 C271 1.249 . S
C253 O243 1.266 1_556 S
C253 O244 1.236 . S
O254 Dy240 2.275 . S
O254 C242 1.254 . S
O255 Dy241 2.339 . S
O255 C242 1.257 1_556 S
C256 C259 1.344 . S
C256 C260 1.328 . S
C256 C262 1.516 . S
C257 C258 1.304 . S
C257 C261 1.323 . S
C258 C257 1.304 . S
C258 C259 1.371 . S
C258 H272 0.930 . S
C259 C256 1.344 . S
C259 C258 1.371 . S
C259 H273 0.931 . S
C260 C256 1.328 . S
C260 C261 1.433 . S
C260 H274 0.931 . S
C261 C257 1.323 . S
C261 C260 1.433 . S
C261 H275 0.933 . S
C262 Dy240 2.738 . S
C262 O245 1.255 . S
C262 O246 1.249 . S
C262 C256 1.516 . S
C263 O247 1.254 . S
C263 O248 1.257 1_556 S
C264 O249 1.266 1_554 S
C264 O250 1.236 . S
C265 C268 1.344 . S
C265 C269 1.328 . S
C265 C271 1.516 . S
C266 C267 1.304 . S
C266 C270 1.323 . S
C267 C266 1.304 . S
C267 C268 1.371 . S
C267 H276 0.930 . S
C268 C265 1.344 . S
C268 C267 1.371 . S
C268 H277 0.931 . S
C269 C265 1.328 . S
C269 C270 1.433 . S
C269 H278 0.931 . S
C270 C266 1.323 . S
C270 C269 1.433 . S
C270 H279 0.933 . S
C271 Dy241 2.738 . S
C271 O251 1.255 . S
C271 O252 1.249 . S
C271 C265 1.516 . S
H272 C258 0.930 . S
H273 C259 0.931 . S
H274 C260 0.931 . S
H275 C261 0.933 . S
H276 C267 0.930 . S
H277 C268 0.931 . S
H278 C269 0.931 . S
H279 C270 0.933 . S
Dy280 O283 2.307 . S
Dy280 O285 2.395 . S
Dy280 O286 2.379 1_655 S
Dy280 O288 2.339 1_655 S
Dy280 O290 2.298 1_655 S
Dy280 O294 2.275 . S
Dy280 C302 2.738 1_655 S
Dy281 O284 2.298 1_455 S
Dy281 O287 2.275 . S
Dy281 O289 2.307 . S
Dy281 O291 2.395 . S
Dy281 O292 2.379 1_455 S
Dy281 O295 2.339 1_455 S
Dy281 C311 2.738 1_455 S
C282 O294 1.254 . S
C282 O295 1.257 . S
O283 Dy280 2.307 . S
O283 C293 1.266 . S
O284 Dy281 2.298 1_655 S
O284 C293 1.236 . S
O285 Dy280 2.395 . S
O285 C302 1.255 1_655 S
O286 Dy280 2.379 1_455 S
O286 C302 1.249 . S
O287 Dy281 2.275 . S
O287 C303 1.254 . S
O288 Dy280 2.339 1_455 S
O288 C303 1.257 . S
O289 Dy281 2.307 . S
O289 C304 1.266 . S
O290 Dy280 2.298 1_455 S
O290 C304 1.236 . S
O291 Dy281 2.395 . S
O291 C311 1.255 1_455 S
O292 Dy281 2.379 1_655 S
O292 C311 1.249 . S
C293 O283 1.266 . S
C293 O284 1.236 . S
O294 Dy280 2.275 . S
O294 C282 1.254 . S
O295 Dy281 2.339 1_655 S
O295 C282 1.257 . S
C296 C299 1.350 . S
C296 C300 1.328 . S
C296 C302 1.516 . S
C297 C298 1.304 . S
C297 C301 1.323 . S
C298 C297 1.304 . S
C298 C299 1.375 . S
C298 H312 0.930 1_455 S
C299 C296 1.350 . S
C299 C298 1.375 . S
C299 H313 0.922 1_455 S
C300 C296 1.328 . S
C300 C301 1.433 . S
C300 H314 0.931 . S
C301 C297 1.323 . S
C301 C300 1.433 . S
C301 H315 0.933 . S
C302 Dy280 2.738 1_455 S
C302 O285 1.255 1_455 S
C302 O286 1.249 . S
C302 C296 1.516 . S
C303 O287 1.254 . S
C303 O288 1.257 . S
C304 O289 1.266 . S
C304 O290 1.236 . S
C305 C308 1.347 . S
C305 C309 1.328 . S
C305 C311 1.516 . S
C306 C307 1.304 . S
C306 C310 1.323 . S
C307 C306 1.304 . S
C307 C308 1.373 . S
C307 H316 0.930 1_655 S
C308 C305 1.347 . S
C308 C307 1.373 . S
C308 H317 0.926 1_655 S
C309 C305 1.328 . S
C309 C310 1.433 . S
C309 H318 0.931 . S
C310 C306 1.323 . S
C310 C309 1.433 . S
C310 H319 0.933 . S
C311 Dy281 2.738 1_655 S
C311 O291 1.255 1_655 S
C311 O292 1.249 . S
C311 C305 1.516 . S
H312 C298 0.930 1_655 S
H313 C299 0.922 1_655 S
H314 C300 0.931 . S
H315 C301 0.933 . S
H316 C307 0.930 1_455 S
H317 C308 0.926 1_455 S
H318 C309 0.931 . S
H319 C310 0.933 . S
H320 C328 0.929 . S
H321 C330 0.930 . S
H322 C332 0.930 . S
H323 C335 0.929 . S
H324 C338 0.930 . S
H325 C340 0.960 . S
H326 C340 0.960 . S
H327 C340 0.960 . S
C328 H320 0.929 . S
C328 C329 1.377 . S
C328 C330 1.384 . S
C329 C328 1.377 . S
C329 C335 1.390 . S
C330 H321 0.930 . S
C330 C328 1.384 . S
C330 C331 1.372 . S
C331 C330 1.372 . S
C331 C332 1.400 . S
C331 C336 1.490 . S
C332 H322 0.930 . S
C332 C331 1.400 . S
C332 C335 1.386 . S
H333 C349 0.930 . S
H334 C350 0.931 . S
C335 H323 0.929 . S
C335 C329 1.390 . S
C335 C332 1.386 . S
C336 C331 1.490 . S
C336 C338 1.395 . S
C336 C339 1.403 . S
H337 C343 0.930 . S
C338 H324 0.930 . S
C338 C336 1.395 . S
C338 C341 1.403 . S
C339 C336 1.403 . S
C339 C340 1.524 . S
C339 C343 1.400 . S
C340 H325 0.960 . S
C340 H326 0.960 . S
C340 H327 0.960 . S
C340 C339 1.524 . S
C341 C338 1.403 . S
C341 C342 1.392 . S
C341 C345 1.495 . S
C342 C341 1.392 . S
C342 C343 1.385 . S
C342 C344 1.478 . S
C343 H337 0.930 . S
C343 C339 1.400 . S
C343 C342 1.385 . S
C344 C342 1.478 . S
C344 C346 1.381 . S
C344 C350 1.383 . S
C345 C341 1.495 . S
C345 H351 0.959 . S
C345 H352 0.961 . S
C345 H353 0.960 . S
C346 C344 1.381 . S
C346 C347 1.394 . S
C346 H354 0.930 . S
C347 C346 1.394 . S
C347 C348 1.383 . S
C347 H355 0.929 . S
C348 C347 1.383 . S
C348 C349 1.377 . S
C349 H333 0.930 . S
C349 C348 1.377 . S
C349 C350 1.379 . S
C350 H334 0.931 . S
C350 C344 1.383 . S
C350 C349 1.379 . S
H351 C345 0.959 . S
H352 C345 0.961 . S
H353 C345 0.960 . S
H354 C346 0.930 . S
H355 C347 0.929 . S
H356 C364 0.929 . S
H357 C366 0.930 . S
H358 C368 0.930 . S
H359 C371 0.929 . S
H360 C374 0.930 . S
H361 C376 0.960 . S
H362 C376 0.960 . S
H363 C376 0.960 . S
C364 H356 0.929 . S
C364 C365 1.377 . S
C364 C366 1.384 . S
C365 C364 1.377 . S
C365 C371 1.390 . S
C366 H357 0.930 . S
C366 C364 1.384 . S
C366 C367 1.372 . S
C367 C366 1.372 . S
C367 C368 1.400 . S
C367 C372 1.490 . S
C368 H358 0.930 . S
C368 C367 1.400 . S
C368 C371 1.386 . S
H369 C385 0.930 . S
H370 C386 0.931 . S
C371 H359 0.929 . S
C371 C365 1.390 . S
C371 C368 1.386 . S
C372 C367 1.490 . S
C372 C374 1.395 . S
C372 C375 1.403 . S
H373 C379 0.930 . S
C374 H360 0.930 . S
C374 C372 1.395 . S
C374 C377 1.403 . S
C375 C372 1.403 . S
C375 C376 1.524 . S
C375 C379 1.400 . S
C376 H361 0.960 . S
C376 H362 0.960 . S
C376 H363 0.960 . S
C376 C375 1.524 . S
C377 C374 1.403 . S
C377 C378 1.392 . S
C377 C381 1.495 . S
C378 C377 1.392 . S
C378 C379 1.385 . S
C378 C380 1.478 . S
C379 H373 0.930 . S
C379 C375 1.400 . S
C379 C378 1.385 . S
C380 C378 1.478 . S
C380 C382 1.381 . S
C380 C386 1.383 . S
C381 C377 1.495 . S
C381 H387 0.959 . S
C381 H388 0.961 . S
C381 H389 0.960 . S
C382 C380 1.381 . S
C382 C383 1.394 . S
C382 H390 0.930 . S
C383 C382 1.394 . S
C383 C384 1.383 . S
C383 H391 0.929 . S
C384 C383 1.383 . S
C384 C385 1.377 . S
C385 H369 0.930 . S
C385 C384 1.377 . S
C385 C386 1.379 . S
C386 H370 0.931 . S
C386 C380 1.383 . S
C386 C385 1.379 . S
H387 C381 0.959 . S
H388 C381 0.961 . S
H389 C381 0.960 . S
H390 C382 0.930 . S
H391 C383 0.929 . S
H392 C400 0.929 . S
H393 C402 0.930 . S
H394 C404 0.930 . S
H395 C407 0.929 . S
H396 C410 0.930 . S
H397 C412 0.960 . S
H398 C412 0.960 . S
H399 C412 0.960 . S
C400 H392 0.929 . S
C400 C401 1.377 . S
C400 C402 1.384 . S
C401 C400 1.377 . S
C401 C407 1.390 . S
C402 H393 0.930 . S
C402 C400 1.384 . S
C402 C403 1.372 . S
C403 C402 1.372 . S
C403 C404 1.400 . S
C403 C408 1.490 . S
C404 H394 0.930 . S
C404 C403 1.400 . S
C404 C407 1.386 . S
H405 C421 0.930 . S
H406 C422 0.931 . S
C407 H395 0.929 . S
C407 C401 1.390 . S
C407 C404 1.386 . S
C408 C403 1.490 . S
C408 C410 1.395 . S
C408 C411 1.403 . S
H409 C415 0.930 . S
C410 H396 0.930 . S
C410 C408 1.395 . S
C410 C413 1.403 . S
C411 C408 1.403 . S
C411 C412 1.524 . S
C411 C415 1.400 . S
C412 H397 0.960 . S
C412 H398 0.960 . S
C412 H399 0.960 . S
C412 C411 1.524 . S
C413 C410 1.403 . S
C413 C414 1.392 . S
C413 C417 1.495 . S
C414 C413 1.392 . S
C414 C415 1.385 . S
C414 C416 1.478 . S
C415 H409 0.930 . S
C415 C411 1.400 . S
C415 C414 1.385 . S
C416 C414 1.478 . S
C416 C418 1.381 . S
C416 C422 1.383 . S
C417 C413 1.495 . S
C417 H423 0.959 . S
C417 H424 0.961 . S
C417 H425 0.960 . S
C418 C416 1.381 . S
C418 C419 1.394 . S
C418 H426 0.930 . S
C419 C418 1.394 . S
C419 C420 1.383 . S
C419 H427 0.929 1_556 S
C420 C419 1.383 . S
C420 C421 1.377 . S
C421 H405 0.930 . S
C421 C420 1.377 . S
C421 C422 1.379 . S
C422 H406 0.931 . S
C422 C416 1.383 . S
C422 C421 1.379 . S
H423 C417 0.959 . S
H424 C417 0.961 . S
H425 C417 0.960 . S
H426 C418 0.930 . S
H427 C419 0.929 1_554 S
H428 C436 0.929 . S
H429 C438 0.930 . S
H430 C440 0.930 . S
H431 C443 0.929 . S
H432 C446 0.930 . S
H433 C448 0.960 . S
H434 C448 0.960 . S
H435 C448 0.960 . S
C436 H428 0.929 . S
C436 C437 1.377 . S
C436 C438 1.384 . S
C437 C436 1.377 . S
C437 C443 1.390 . S
C438 H429 0.930 . S
C438 C436 1.384 . S
C438 C439 1.372 . S
C439 C438 1.372 . S
C439 C440 1.400 . S
C439 C444 1.490 . S
C440 H430 0.930 . S
C440 C439 1.400 . S
C440 C443 1.386 . S
H441 C457 0.930 . S
H442 C458 0.931 . S
C443 H431 0.929 . S
C443 C437 1.390 . S
C443 C440 1.386 . S
C444 C439 1.490 . S
C444 C446 1.395 . S
C444 C447 1.403 . S
H445 C451 0.930 . S
C446 H432 0.930 . S
C446 C444 1.395 . S
C446 C449 1.403 . S
C447 C444 1.403 . S
C447 C448 1.524 . S
C447 C451 1.400 . S
C448 H433 0.960 . S
C448 H434 0.960 . S
C448 H435 0.960 . S
C448 C447 1.524 . S
C449 C446 1.403 . S
C449 C450 1.392 . S
C449 C453 1.495 . S
C450 C449 1.392 . S
C450 C451 1.385 . S
C450 C452 1.478 . S
C451 H445 0.930 . S
C451 C447 1.400 . S
C451 C450 1.385 . S
C452 C450 1.478 . S
C452 C454 1.381 . S
C452 C458 1.383 . S
C453 C449 1.495 . S
C453 H459 0.959 . S
C453 H460 0.961 . S
C453 H461 0.960 . S
C454 C452 1.381 . S
C454 C455 1.394 . S
C454 H462 0.930 . S
C455 C454 1.394 . S
C455 C456 1.383 . S
C455 H463 0.929 . S
C456 C455 1.383 . S
C456 C457 1.377 . S
C457 H441 0.930 . S
C457 C456 1.377 . S
C457 C458 1.379 . S
C458 H442 0.931 . S
C458 C452 1.383 . S
C458 C457 1.379 . S
H459 C453 0.959 . S
H460 C453 0.961 . S
H461 C453 0.960 . S
H462 C454 0.930 . S
H463 C455 0.929 . S
H464 C472 0.929 . S
H465 C474 0.930 . S
H466 C476 0.930 . S
H467 C479 0.929 . S
H468 C482 0.930 . S
H469 C484 0.960 . S
H470 C484 0.960 . S
H471 C484 0.960 . S
C472 H464 0.929 . S
C472 C473 1.377 . S
C472 C474 1.384 . S
C473 C472 1.377 . S
C473 C479 1.390 . S
C474 H465 0.930 . S
C474 C472 1.384 . S
C474 C475 1.372 . S
C475 C474 1.372 . S
C475 C476 1.400 . S
C475 C480 1.490 . S
C476 H466 0.930 . S
C476 C475 1.400 . S
C476 C479 1.386 . S
H477 C493 0.930 . S
H478 C494 0.931 . S
C479 H467 0.929 . S
C479 C473 1.390 . S
C479 C476 1.386 . S
C480 C475 1.490 . S
C480 C482 1.395 . S
C480 C483 1.403 . S
H481 C487 0.930 . S
C482 H468 0.930 . S
C482 C480 1.395 . S
C482 C485 1.403 . S
C483 C480 1.403 . S
C483 C484 1.524 . S
C483 C487 1.400 . S
C484 H469 0.960 . S
C484 H470 0.960 . S
C484 H471 0.960 . S
C484 C483 1.524 . S
C485 C482 1.403 . S
C485 C486 1.392 . S
C485 C489 1.495 . S
C486 C485 1.392 . S
C486 C487 1.385 . S
C486 C488 1.478 . S
C487 H481 0.930 . S
C487 C483 1.400 . S
C487 C486 1.385 . S
C488 C486 1.478 . S
C488 C490 1.381 . S
C488 C494 1.383 . S
C489 C485 1.495 . S
C489 H495 0.959 . S
C489 H496 0.961 . S
C489 H497 0.960 . S
C490 C488 1.381 . S
C490 C491 1.394 . S
C490 H498 0.930 . S
C491 C490 1.394 . S
C491 C492 1.383 . S
C491 H499 0.929 . S
C492 C491 1.383 . S
C492 C493 1.377 . S
C493 H477 0.930 . S
C493 C492 1.377 . S
C493 C494 1.379 . S
C494 H478 0.931 . S
C494 C488 1.383 . S
C494 C493 1.379 . S
H495 C489 0.959 . S
H496 C489 0.961 . S
H497 C489 0.960 . S
H498 C490 0.930 . S
H499 C491 0.929 . S
H500 C508 0.929 . S
H501 C510 0.930 . S
H502 C512 0.930 . S
H503 C515 0.929 . S
H504 C518 0.930 . S
H505 C520 0.960 . S
H506 C520 0.960 . S
H507 C520 0.960 . S
C508 H500 0.929 . S
C508 C509 1.377 . S
C508 C510 1.384 . S
C509 C508 1.377 . S
C509 C515 1.390 . S
C510 H501 0.930 . S
C510 C508 1.384 . S
C510 C511 1.372 . S
C511 C510 1.372 . S
C511 C512 1.400 . S
C511 C516 1.490 . S
C512 H502 0.930 . S
C512 C511 1.400 . S
C512 C515 1.386 . S
H513 C529 0.930 . S
H514 C530 0.931 . S
C515 H503 0.929 . S
C515 C509 1.390 . S
C515 C512 1.386 . S
C516 C511 1.490 . S
C516 C518 1.395 . S
C516 C519 1.403 . S
H517 C523 0.930 . S
C518 H504 0.930 . S
C518 C516 1.395 . S
C518 C521 1.403 . S
C519 C516 1.403 . S
C519 C520 1.524 . S
C519 C523 1.400 . S
C520 H505 0.960 . S
C520 H506 0.960 . S
C520 H507 0.960 . S
C520 C519 1.524 . S
C521 C518 1.403 . S
C521 C522 1.392 . S
C521 C525 1.495 . S
C522 C521 1.392 . S
C522 C523 1.385 . S
C522 C524 1.478 . S
C523 H517 0.930 . S
C523 C519 1.400 . S
C523 C522 1.385 . S
C524 C522 1.478 . S
C524 C526 1.381 . S
C524 C530 1.383 . S
C525 C521 1.495 . S
C525 H531 0.959 . S
C525 H532 0.961 . S
C525 H533 0.960 . S
C526 C524 1.381 . S
C526 C527 1.394 . S
C526 H534 0.930 . S
C527 C526 1.394 . S
C527 C528 1.383 . S
C527 H535 0.929 . S
C528 C527 1.383 . S
C528 C529 1.377 . S
C529 H513 0.930 . S
C529 C528 1.377 . S
C529 C530 1.379 . S
C530 H514 0.931 . S
C530 C524 1.383 . S
C530 C529 1.379 . S
H531 C525 0.959 . S
H532 C525 0.961 . S
H533 C525 0.960 . S
H534 C526 0.930 . S
H535 C527 0.929 . S
H536 C544 0.929 . S
H537 C546 0.930 . S
H538 C548 0.930 . S
H539 C551 0.929 . S
H540 C554 0.930 . S
H541 C556 0.960 . S
H542 C556 0.960 . S
H543 C556 0.960 . S
C544 H536 0.929 . S
C544 C545 1.377 . S
C544 C546 1.384 . S
C545 C544 1.377 . S
C545 C551 1.390 . S
C546 H537 0.930 . S
C546 C544 1.384 . S
C546 C547 1.372 . S
C547 C546 1.372 . S
C547 C548 1.400 . S
C547 C552 1.490 . S
C548 H538 0.930 . S
C548 C547 1.400 . S
C548 C551 1.386 . S
H549 C565 0.930 . S
H550 C566 0.931 . S
C551 H539 0.929 . S
C551 C545 1.390 . S
C551 C548 1.386 . S
C552 C547 1.490 . S
C552 C554 1.395 . S
C552 C555 1.403 . S
H553 C559 0.930 . S
C554 H540 0.930 . S
C554 C552 1.395 . S
C554 C557 1.403 . S
C555 C552 1.403 . S
C555 C556 1.524 . S
C555 C559 1.400 . S
C556 H541 0.960 . S
C556 H542 0.960 . S
C556 H543 0.960 . S
C556 C555 1.524 . S
C557 C554 1.403 . S
C557 C558 1.392 . S
C557 C561 1.495 . S
C558 C557 1.392 . S
C558 C559 1.385 . S
C558 C560 1.478 . S
C559 H553 0.930 . S
C559 C555 1.400 . S
C559 C558 1.385 . S
C560 C558 1.478 . S
C560 C562 1.381 . S
C560 C566 1.383 . S
C561 C557 1.495 . S
C561 H567 0.959 . S
C561 H568 0.961 . S
C561 H569 0.960 . S
C562 C560 1.381 . S
C562 C563 1.394 . S
C562 H570 0.930 . S
C563 C562 1.394 . S
C563 C564 1.383 . S
C563 H571 0.929 1_554 S
C564 C563 1.383 . S
C564 C565 1.377 . S
C565 H549 0.930 . S
C565 C564 1.377 . S
C565 C566 1.379 . S
C566 H550 0.931 . S
C566 C560 1.383 . S
C566 C565 1.379 . S
H567 C561 0.959 . S
H568 C561 0.961 . S
H569 C561 0.960 . S
H570 C562 0.930 . S
H571 C563 0.929 1_556 S
H572 C580 0.929 . S
H573 C582 0.930 . S
H574 C584 0.930 . S
H575 C587 0.929 . S
H576 C590 0.930 . S
H577 C592 0.960 . S
H578 C592 0.960 . S
H579 C592 0.960 . S
C580 H572 0.929 . S
C580 C581 1.377 . S
C580 C582 1.384 . S
C581 C580 1.377 . S
C581 C587 1.390 . S
C582 H573 0.930 . S
C582 C580 1.384 . S
C582 C583 1.372 . S
C583 C582 1.372 . S
C583 C584 1.400 . S
C583 C588 1.490 . S
C584 H574 0.930 . S
C584 C583 1.400 . S
C584 C587 1.386 . S
H585 C601 0.930 . S
H586 C602 0.931 . S
C587 H575 0.929 . S
C587 C581 1.390 . S
C587 C584 1.386 . S
C588 C583 1.490 . S
C588 C590 1.395 . S
C588 C591 1.403 . S
H589 C595 0.930 . S
C590 H576 0.930 . S
C590 C588 1.395 . S
C590 C593 1.403 . S
C591 C588 1.403 . S
C591 C592 1.524 . S
C591 C595 1.400 . S
C592 H577 0.960 . S
C592 H578 0.960 . S
C592 H579 0.960 . S
C592 C591 1.524 . S
C593 C590 1.403 . S
C593 C594 1.392 . S
C593 C597 1.495 . S
C594 C593 1.392 . S
C594 C595 1.385 . S
C594 C596 1.478 . S
C595 H589 0.930 . S
C595 C591 1.400 . S
C595 C594 1.385 . S
C596 C594 1.478 . S
C596 C598 1.381 . S
C596 C602 1.383 . S
C597 C593 1.495 . S
C597 H603 0.959 . S
C597 H604 0.961 . S
C597 H605 0.960 . S
C598 C596 1.381 . S
C598 C599 1.394 . S
C598 H606 0.930 . S
C599 C598 1.394 . S
C599 C600 1.383 . S
C599 H607 0.929 . S
C600 C599 1.383 . S
C600 C601 1.377 . S
C601 H585 0.930 . S
C601 C600 1.377 . S
C601 C602 1.379 . S
C602 H586 0.931 . S
C602 C596 1.383 . S
C602 C601 1.379 . S
H603 C597 0.959 . S
H604 C597 0.961 . S
H605 C597 0.960 . S
H606 C598 0.930 . S
H607 C599 0.929 . S
H608 C616 0.929 . S
H609 C618 0.930 . S
H610 C620 0.930 . S
H611 C623 0.929 . S
H612 C626 0.930 . S
H613 C628 0.960 . S
H614 C628 0.960 . S
H615 C628 0.960 . S
C616 H608 0.929 . S
C616 C617 1.377 . S
C616 C618 1.384 . S
C617 C616 1.377 . S
C617 C623 1.390 . S
C618 H609 0.930 . S
C618 C616 1.384 . S
C618 C619 1.372 . S
C619 C618 1.372 . S
C619 C620 1.400 . S
C619 C624 1.490 . S
C620 H610 0.930 . S
C620 C619 1.400 . S
C620 C623 1.386 . S
H621 C637 0.930 . S
H622 C638 0.931 . S
C623 H611 0.929 . S
C623 C617 1.390 . S
C623 C620 1.386 . S
C624 C619 1.490 . S
C624 C626 1.395 . S
C624 C627 1.403 . S
H625 C631 0.930 . S
C626 H612 0.930 . S
C626 C624 1.395 . S
C626 C629 1.403 . S
C627 C624 1.403 . S
C627 C628 1.524 . S
C627 C631 1.400 . S
C628 H613 0.960 . S
C628 H614 0.960 . S
C628 H615 0.960 . S
C628 C627 1.524 . S
C629 C626 1.403 . S
C629 C630 1.392 . S
C629 C633 1.495 . S
C630 C629 1.392 . S
C630 C631 1.385 . S
C630 C632 1.478 . S
C631 H625 0.930 . S
C631 C627 1.400 . S
C631 C630 1.385 . S
C632 C630 1.478 . S
C632 C634 1.381 . S
C632 C638 1.383 . S
C633 C629 1.495 . S
C633 H639 0.959 . S
C633 H640 0.961 . S
C633 H641 0.960 . S
C634 C632 1.381 . S
C634 C635 1.394 . S
C634 H642 0.930 . S
C635 C634 1.394 . S
C635 C636 1.383 . S
C635 H643 0.929 . S
C636 C635 1.383 . S
C636 C637 1.377 . S
C637 H621 0.930 . S
C637 C636 1.377 . S
C637 C638 1.379 . S
C638 H622 0.931 . S
C638 C632 1.383 . S
C638 C637 1.379 . S
H639 C633 0.959 . S
H640 C633 0.961 . S
H641 C633 0.960 . S
H642 C634 0.930 . S
H643 C635 0.929 . S
H644 C652 0.929 . S
H645 C654 0.930 . S
H646 C656 0.930 . S
H647 C659 0.929 . S
H648 C662 0.930 . S
H649 C664 0.960 . S
H650 C664 0.960 . S
H651 C664 0.960 . S
C652 H644 0.929 . S
C652 C653 1.377 . S
C652 C654 1.384 . S
C653 C652 1.377 . S
C653 C659 1.390 . S
C654 H645 0.930 . S
C654 C652 1.384 . S
C654 C655 1.372 . S
C655 C654 1.372 . S
C655 C656 1.400 . S
C655 C660 1.490 . S
C656 H646 0.930 . S
C656 C655 1.400 . S
C656 C659 1.386 . S
H657 C673 0.930 . S
H658 C674 0.931 . S
C659 H647 0.929 . S
C659 C653 1.390 . S
C659 C656 1.386 . S
C660 C655 1.490 . S
C660 C662 1.395 . S
C660 C663 1.403 . S
H661 C667 0.930 . S
C662 H648 0.930 . S
C662 C660 1.395 . S
C662 C665 1.403 . S
C663 C660 1.403 . S
C663 C664 1.524 . S
C663 C667 1.400 . S
C664 H649 0.960 . S
C664 H650 0.960 . S
C664 H651 0.960 . S
C664 C663 1.524 . S
C665 C662 1.403 . S
C665 C666 1.392 . S
C665 C669 1.495 . S
C666 C665 1.392 . S
C666 C667 1.385 . S
C666 C668 1.478 . S
C667 H661 0.930 . S
C667 C663 1.400 . S
C667 C666 1.385 . S
C668 C666 1.478 . S
C668 C670 1.381 . S
C668 C674 1.383 . S
C669 C665 1.495 . S
C669 H675 0.959 . S
C669 H676 0.961 . S
C669 H677 0.960 . S
C670 C668 1.381 . S
C670 C671 1.394 . S
C670 H678 0.930 . S
C671 C670 1.394 . S
C671 C672 1.383 . S
C671 H679 0.929 1_554 S
C672 C671 1.383 . S
C672 C673 1.377 . S
C673 H657 0.930 . S
C673 C672 1.377 . S
C673 C674 1.379 . S
C674 H658 0.931 . S
C674 C668 1.383 . S
C674 C673 1.379 . S
H675 C669 0.959 . S
H676 C669 0.961 . S
H677 C669 0.960 . S
H678 C670 0.930 . S
H679 C671 0.929 1_556 S
H680 C688 0.929 . S
H681 C690 0.930 . S
H682 C692 0.930 . S
H683 C695 0.929 . S
H684 C698 0.930 . S
H685 C700 0.960 . S
H686 C700 0.960 . S
H687 C700 0.960 . S
C688 H680 0.929 . S
C688 C689 1.377 . S
C688 C690 1.384 . S
C689 C688 1.377 . S
C689 C695 1.390 . S
C690 H681 0.930 . S
C690 C688 1.384 . S
C690 C691 1.372 . S
C691 C690 1.372 . S
C691 C692 1.400 . S
C691 C696 1.490 . S
C692 H682 0.930 . S
C692 C691 1.400 . S
C692 C695 1.386 . S
H693 C709 0.930 . S
H694 C710 0.931 . S
C695 H683 0.929 . S
C695 C689 1.390 . S
C695 C692 1.386 . S
C696 C691 1.490 . S
C696 C698 1.395 . S
C696 C699 1.403 . S
H697 C703 0.930 . S
C698 H684 0.930 . S
C698 C696 1.395 . S
C698 C701 1.403 . S
C699 C696 1.403 . S
C699 C700 1.524 . S
C699 C703 1.400 . S
C700 H685 0.960 . S
C700 H686 0.960 . S
C700 H687 0.960 . S
C700 C699 1.524 . S
C701 C698 1.403 . S
C701 C702 1.392 . S
C701 C705 1.495 . S
C702 C701 1.392 . S
C702 C703 1.385 . S
C702 C704 1.478 . S
C703 H697 0.930 . S
C703 C699 1.400 . S
C703 C702 1.385 . S
C704 C702 1.478 . S
C704 C706 1.381 . S
C704 C710 1.383 . S
C705 C701 1.495 . S
C705 H711 0.959 . S
C705 H712 0.961 . S
C705 H713 0.960 . S
C706 C704 1.381 . S
C706 C707 1.394 . S
C706 H714 0.930 . S
C707 C706 1.394 . S
C707 C708 1.383 . S
C707 H715 0.929 . S
C708 C707 1.383 . S
C708 C709 1.377 . S
C709 H693 0.930 . S
C709 C708 1.377 . S
C709 C710 1.379 . S
C710 H694 0.931 . S
C710 C704 1.383 . S
C710 C709 1.379 . S
H711 C705 0.959 . S
H712 C705 0.961 . S
H713 C705 0.960 . S
H714 C706 0.930 . S
H715 C707 0.929 . S
H716 C724 0.929 . S
H717 C726 0.930 . S
H718 C728 0.930 . S
H719 C731 0.929 . S
H720 C734 0.930 . S
H721 C736 0.960 . S
H722 C736 0.960 . S
H723 C736 0.960 . S
C724 H716 0.929 . S
C724 C725 1.377 . S
C724 C726 1.384 . S
C725 C724 1.377 . S
C725 C731 1.390 . S
C726 H717 0.930 . S
C726 C724 1.384 . S
C726 C727 1.372 . S
C727 C726 1.372 . S
C727 C728 1.400 . S
C727 C732 1.490 . S
C728 H718 0.930 . S
C728 C727 1.400 . S
C728 C731 1.386 . S
H729 C745 0.930 . S
H730 C746 0.931 . S
C731 H719 0.929 . S
C731 C725 1.390 . S
C731 C728 1.386 . S
C732 C727 1.490 . S
C732 C734 1.395 . S
C732 C735 1.403 . S
H733 C739 0.930 . S
C734 H720 0.930 . S
C734 C732 1.395 . S
C734 C737 1.403 . S
C735 C732 1.403 . S
C735 C736 1.524 . S
C735 C739 1.400 . S
C736 H721 0.960 . S
C736 H722 0.960 . S
C736 H723 0.960 . S
C736 C735 1.524 . S
C737 C734 1.403 . S
C737 C738 1.392 . S
C737 C741 1.495 . S
C738 C737 1.392 . S
C738 C739 1.385 . S
C738 C740 1.478 . S
C739 H733 0.930 . S
C739 C735 1.400 . S
C739 C738 1.385 . S
C740 C738 1.478 . S
C740 C742 1.381 . S
C740 C746 1.383 . S
C741 C737 1.495 . S
C741 H747 0.959 . S
C741 H748 0.961 . S
C741 H749 0.960 . S
C742 C740 1.381 . S
C742 C743 1.394 . S
C742 H750 0.930 . S
C743 C742 1.394 . S
C743 C744 1.383 . S
C743 H751 0.929 . S
C744 C743 1.383 . S
C744 C745 1.377 . S
C745 H729 0.930 . S
C745 C744 1.377 . S
C745 C746 1.379 . S
C746 H730 0.931 . S
C746 C740 1.383 . S
C746 C745 1.379 . S
H747 C741 0.959 . S
H748 C741 0.961 . S
H749 C741 0.960 . S
H750 C742 0.930 . S
H751 C743 0.929 . S
H752 C760 0.929 . S
H753 C762 0.930 . S
H754 C764 0.930 . S
H755 C767 0.929 . S
H756 C770 0.930 . S
H757 C772 0.960 . S
H758 C772 0.960 . S
H759 C772 0.960 . S
C760 H752 0.929 . S
C760 C761 1.377 . S
C760 C762 1.384 . S
C761 C760 1.377 . S
C761 C767 1.390 . S
C762 H753 0.930 . S
C762 C760 1.384 . S
C762 C763 1.372 . S
C763 C762 1.372 . S
C763 C764 1.400 . S
C763 C768 1.490 . S
C764 H754 0.930 . S
C764 C763 1.400 . S
C764 C767 1.386 . S
H765 C781 0.930 . S
H766 C782 0.931 . S
C767 H755 0.929 . S
C767 C761 1.390 . S
C767 C764 1.386 . S
C768 C763 1.490 . S
C768 C770 1.395 . S
C768 C771 1.403 . S
H769 C775 0.930 . S
C770 H756 0.930 . S
C770 C768 1.395 . S
C770 C773 1.403 . S
C771 C768 1.403 . S
C771 C772 1.524 . S
C771 C775 1.400 . S
C772 H757 0.960 . S
C772 H758 0.960 . S
C772 H759 0.960 . S
C772 C771 1.524 . S
C773 C770 1.403 . S
C773 C774 1.392 . S
C773 C777 1.495 . S
C774 C773 1.392 . S
C774 C775 1.385 . S
C774 C776 1.478 . S
C775 H769 0.930 . S
C775 C771 1.400 . S
C775 C774 1.385 . S
C776 C774 1.478 . S
C776 C778 1.381 . S
C776 C782 1.383 . S
C777 C773 1.495 . S
C777 H783 0.959 . S
C777 H784 0.961 . S
C777 H785 0.960 . S
C778 C776 1.381 . S
C778 C779 1.394 . S
C778 H786 0.930 . S
C779 C778 1.394 . S
C779 C780 1.383 . S
C779 H787 0.929 1_554 S
C780 C779 1.383 . S
C780 C781 1.377 . S
C781 H765 0.930 . S
C781 C780 1.377 . S
C781 C782 1.379 . S
C782 H766 0.931 . S
C782 C776 1.383 . S
C782 C781 1.379 . S
H783 C777 0.959 . S
H784 C777 0.961 . S
H785 C777 0.960 . S
H786 C778 0.930 . S
H787 C779 0.929 1_556 S
H788 C796 0.929 . S
H789 C798 0.930 . S
H790 C800 0.930 . S
H791 C803 0.929 . S
H792 C806 0.930 . S
H793 C808 0.960 . S
H794 C808 0.960 . S
H795 C808 0.960 . S
C796 H788 0.929 . S
C796 C797 1.377 . S
C796 C798 1.384 . S
C797 C796 1.377 . S
C797 C803 1.390 . S
C798 H789 0.930 . S
C798 C796 1.384 . S
C798 C799 1.372 . S
C799 C798 1.372 . S
C799 C800 1.400 . S
C799 C804 1.490 . S
C800 H790 0.930 . S
C800 C799 1.400 . S
C800 C803 1.386 . S
H801 C817 0.930 . S
H802 C818 0.931 . S
C803 H791 0.929 . S
C803 C797 1.390 . S
C803 C800 1.386 . S
C804 C799 1.490 . S
C804 C806 1.395 . S
C804 C807 1.403 . S
H805 C811 0.930 . S
C806 H792 0.930 . S
C806 C804 1.395 . S
C806 C809 1.403 . S
C807 C804 1.403 . S
C807 C808 1.524 . S
C807 C811 1.400 . S
C808 H793 0.960 . S
C808 H794 0.960 . S
C808 H795 0.960 . S
C808 C807 1.524 . S
C809 C806 1.403 . S
C809 C810 1.392 . S
C809 C813 1.495 . S
C810 C809 1.392 . S
C810 C811 1.385 . S
C810 C812 1.478 . S
C811 H805 0.930 . S
C811 C807 1.400 . S
C811 C810 1.385 . S
C812 C810 1.478 . S
C812 C814 1.381 . S
C812 C818 1.383 . S
C813 C809 1.495 . S
C813 H819 0.959 . S
C813 H820 0.961 . S
C813 H821 0.960 . S
C814 C812 1.381 . S
C814 C815 1.394 . S
C814 H822 0.930 . S
C815 C814 1.394 . S
C815 C816 1.383 . S
C815 H823 0.929 . S
C816 C815 1.383 . S
C816 C817 1.377 . S
C817 H801 0.930 . S
C817 C816 1.377 . S
C817 C818 1.379 . S
C818 H802 0.931 . S
C818 C812 1.383 . S
C818 C817 1.379 . S
H819 C813 0.959 . S
H820 C813 0.961 . S
H821 C813 0.960 . S
H822 C814 0.930 . S
H823 C815 0.929 . S
H824 C832 0.929 . S
H825 C834 0.930 . S
H826 C836 0.930 . S
H827 C839 0.929 . S
H828 C842 0.930 . S
H829 C844 0.960 . S
H830 C844 0.960 . S
H831 C844 0.960 . S
C832 H824 0.929 . S
C832 C833 1.377 . S
C832 C834 1.384 . S
C833 C832 1.377 . S
C833 C839 1.390 . S
C834 H825 0.930 . S
C834 C832 1.384 . S
C834 C835 1.372 . S
C835 C834 1.372 . S
C835 C836 1.400 . S
C835 C840 1.490 . S
C836 H826 0.930 . S
C836 C835 1.400 . S
C836 C839 1.386 . S
H837 C853 0.930 . S
H838 C854 0.931 . S
C839 H827 0.929 . S
C839 C833 1.390 . S
C839 C836 1.386 . S
C840 C835 1.490 . S
C840 C842 1.395 . S
C840 C843 1.403 . S
H841 C847 0.930 . S
C842 H828 0.930 . S
C842 C840 1.395 . S
C842 C845 1.403 . S
C843 C840 1.403 . S
C843 C844 1.524 . S
C843 C847 1.400 . S
C844 H829 0.960 . S
C844 H830 0.960 . S
C844 H831 0.960 . S
C844 C843 1.524 . S
C845 C842 1.403 . S
C845 C846 1.392 . S
C845 C849 1.495 . S
C846 C845 1.392 . S
C846 C847 1.385 . S
C846 C848 1.478 . S
C847 H841 0.930 . S
C847 C843 1.400 . S
C847 C846 1.385 . S
C848 C846 1.478 . S
C848 C850 1.381 . S
C848 C854 1.383 . S
C849 C845 1.495 . S
C849 H855 0.959 . S
C849 H856 0.961 . S
C849 H857 0.960 . S
C850 C848 1.381 . S
C850 C851 1.394 . S
C850 H858 0.930 . S
C851 C850 1.394 . S
C851 C852 1.383 . S
C851 H859 0.929 . S
C852 C851 1.383 . S
C852 C853 1.377 . S
C853 H837 0.930 . S
C853 C852 1.377 . S
C853 C854 1.379 . S
C854 H838 0.931 . S
C854 C848 1.383 . S
C854 C853 1.379 . S
H855 C849 0.959 . S
H856 C849 0.961 . S
H857 C849 0.960 . S
H858 C850 0.930 . S
H859 C851 0.929 . S
H860 C868 0.929 . S
H861 C870 0.930 . S
H862 C872 0.930 . S
H863 C875 0.929 . S
H864 C878 0.930 . S
H865 C880 0.960 . S
H866 C880 0.960 . S
H867 C880 0.960 . S
C868 H860 0.929 . S
C868 C869 1.377 . S
C868 C870 1.384 . S
C869 C868 1.377 . S
C869 C875 1.390 . S
C870 H861 0.930 . S
C870 C868 1.384 . S
C870 C871 1.372 . S
C871 C870 1.372 . S
C871 C872 1.400 . S
C871 C876 1.490 . S
C872 H862 0.930 . S
C872 C871 1.400 . S
C872 C875 1.386 . S
H873 C889 0.930 . S
H874 C890 0.931 . S
C875 H863 0.929 . S
C875 C869 1.390 . S
C875 C872 1.386 . S
C876 C871 1.490 . S
C876 C878 1.395 . S
C876 C879 1.403 . S
H877 C883 0.930 . S
C878 H864 0.930 . S
C878 C876 1.395 . S
C878 C881 1.403 . S
C879 C876 1.403 . S
C879 C880 1.524 . S
C879 C883 1.400 . S
C880 H865 0.960 . S
C880 H866 0.960 . S
C880 H867 0.960 . S
C880 C879 1.524 . S
C881 C878 1.403 . S
C881 C882 1.392 . S
C881 C885 1.495 . S
C882 C881 1.392 . S
C882 C883 1.385 . S
C882 C884 1.478 . S
C883 H877 0.930 . S
C883 C879 1.400 . S
C883 C882 1.385 . S
C884 C882 1.478 . S
C884 C886 1.381 . S
C884 C890 1.383 . S
C885 C881 1.495 . S
C885 H891 0.959 . S
C885 H892 0.961 . S
C885 H893 0.960 . S
C886 C884 1.381 . S
C886 C887 1.394 . S
C886 H894 0.930 . S
C887 C886 1.394 . S
C887 C888 1.383 . S
C887 H895 0.929 . S
C888 C887 1.383 . S
C888 C889 1.377 . S
C889 H873 0.930 . S
C889 C888 1.377 . S
C889 C890 1.379 . S
C890 H874 0.931 . S
C890 C884 1.383 . S
C890 C889 1.379 . S
H891 C885 0.959 . S
H892 C885 0.961 . S
H893 C885 0.960 . S
H894 C886 0.930 . S
H895 C887 0.929 . S
H896 C904 0.929 . S
H897 C906 0.930 . S
H898 C908 0.930 . S
H899 C911 0.929 . S
H900 C914 0.930 . S
H901 C916 0.960 . S
H902 C916 0.960 . S
H903 C916 0.960 . S
C904 H896 0.929 . S
C904 C905 1.377 1_465 S
C904 C906 1.384 . S
C905 C904 1.377 1_645 S
C905 C911 1.390 . S
C906 H897 0.930 . S
C906 C904 1.384 . S
C906 C907 1.372 1_465 S
C907 C906 1.372 1_645 S
C907 C908 1.400 . S
C907 C912 1.490 . S
C908 H898 0.930 . S
C908 C907 1.400 . S
C908 C911 1.386 . S
H909 C925 0.930 . S
H910 C926 0.931 . S
C911 H899 0.929 . S
C911 C905 1.390 . S
C911 C908 1.386 . S
C912 C907 1.490 . S
C912 C914 1.395 1_655 S
C912 C915 1.403 1_545 S
H913 C919 0.930 . S
C914 H900 0.930 . S
C914 C912 1.395 1_455 S
C914 C917 1.403 1_556 S
C915 C912 1.403 1_565 S
C915 C916 1.524 . S
C915 C919 1.400 1_556 S
C916 H901 0.960 . S
C916 H902 0.960 . S
C916 H903 0.960 . S
C916 C915 1.524 . S
C917 C914 1.403 1_554 S
C917 C918 1.379 1_545 S
C917 C921 1.495 . S
C918 C917 1.379 1_565 S
C918 C919 1.397 1_455 S
C918 C920 1.480 . S
C919 H913 0.930 . S
C919 C915 1.400 1_554 S
C919 C918 1.397 1_655 S
C920 C918 1.480 . S
C920 C922 1.381 . S
C920 C926 1.383 1_465 S
C921 C917 1.495 . S
C921 H927 0.959 . S
C921 H928 0.961 . S
C921 H929 0.960 . S
C922 C920 1.381 . S
C922 C923 1.394 . S
C922 H930 0.930 . S
C923 C922 1.394 . S
C923 C924 1.383 . S
C923 H931 0.929 . S
C924 C923 1.383 . S
C924 C925 1.377 1_465 S
C925 H909 0.930 . S
C925 C924 1.377 1_645 S
C925 C926 1.379 . S
C926 H910 0.931 . S
C926 C920 1.383 1_645 S
C926 C925 1.379 . S
H927 C921 0.959 . S
H928 C921 0.961 . S
H929 C921 0.960 . S
H930 C922 0.930 . S
H931 C923 0.929 . S
H932 C940 0.929 . S
H933 C942 0.930 . S
H934 C944 0.930 . S
H935 C947 0.929 . S
H936 C950 0.930 . S
H937 C952 0.960 . S
H938 C952 0.960 . S
H939 C952 0.960 . S
C940 H932 0.929 . S
C940 C941 1.377 . S
C940 C942 1.384 . S
C941 C940 1.377 . S
C941 C947 1.390 . S
C942 H933 0.930 . S
C942 C940 1.384 . S
C942 C943 1.372 . S
C943 C942 1.372 . S
C943 C944 1.400 . S
C943 C948 1.490 . S
C944 H934 0.930 . S
C944 C943 1.400 . S
C944 C947 1.386 . S
H945 C961 0.930 . S
H946 C962 0.931 . S
C947 H935 0.929 . S
C947 C941 1.390 . S
C947 C944 1.386 . S
C948 C943 1.490 . S
C948 C950 1.395 . S
C948 C951 1.403 . S
H949 C955 0.930 . S
C950 H936 0.930 . S
C950 C948 1.395 . S
C950 C953 1.403 . S
C951 C948 1.403 . S
C951 C952 1.524 . S
C951 C955 1.400 . S
C952 H937 0.960 . S
C952 H938 0.960 . S
C952 H939 0.960 . S
C952 C951 1.524 . S
C953 C950 1.403 . S
C953 C954 1.392 . S
C953 C957 1.495 . S
C954 C953 1.392 . S
C954 C955 1.385 . S
C954 C956 1.478 . S
C955 H949 0.930 . S
C955 C951 1.400 . S
C955 C954 1.385 . S
C956 C954 1.478 . S
C956 C958 1.381 . S
C956 C962 1.383 . S
C957 C953 1.495 . S
C957 H963 0.959 . S
C957 H964 0.961 . S
C957 H965 0.960 . S
C958 C956 1.381 . S
C958 C959 1.394 . S
C958 H966 0.930 . S
C959 C958 1.394 . S
C959 C960 1.383 . S
C959 H967 0.929 . S
C960 C959 1.383 . S
C960 C961 1.377 . S
C961 H945 0.930 . S
C961 C960 1.377 . S
C961 C962 1.379 . S
C962 H946 0.931 . S
C962 C956 1.383 . S
C962 C961 1.379 . S
H963 C957 0.959 . S
H964 C957 0.961 . S
H965 C957 0.960 . S
H966 C958 0.930 . S
H967 C959 0.929 . S
H968 C976 0.929 . S
H969 C978 0.930 . S
H970 C980 0.924 1_565 S
H971 C983 0.933 . S
H972 C986 0.930 . S
H973 C988 0.960 . S
H974 C988 0.960 . S
H975 C988 0.960 . S
C976 H968 0.929 . S
C976 C977 1.377 . S
C976 C978 1.384 . S
C977 C976 1.377 . S
C977 C983 1.390 . S
C978 H969 0.930 . S
C978 C976 1.384 . S
C978 C979 1.372 . S
C979 C978 1.372 . S
C979 C980 1.404 . S
C979 C984 1.490 . S
C980 H970 0.924 1_545 S
C980 C979 1.404 . S
C980 C983 1.388 . S
H981 C997 0.930 . S
H982 C998 0.931 . S
C983 H971 0.933 . S
C983 C977 1.390 . S
C983 C980 1.388 . S
C984 C979 1.490 . S
C984 C986 1.395 . S
C984 C987 1.403 1_545 S
H985 C991 0.930 . S
C986 H972 0.930 . S
C986 C984 1.395 . S
C986 C989 1.403 . S
C987 C984 1.403 1_565 S
C987 C988 1.524 . S
C987 C991 1.400 . S
C988 H973 0.960 . S
C988 H974 0.960 . S
C988 H975 0.960 . S
C988 C987 1.524 . S
C989 C986 1.403 . S
C989 C990 1.392 . S
C989 C993 1.495 . S
C990 C989 1.392 . S
C990 C991 1.385 1_545 S
C990 C992 1.480 . S
C991 H985 0.930 . S
C991 C987 1.400 . S
C991 C990 1.385 1_565 S
C992 C990 1.480 . S
C992 C994 1.381 . S
C992 C998 1.379 1_545 S
C993 C989 1.495 . S
C993 H999 0.959 . S
C993 H1000 0.961 . S
C993 H1001 0.960 . S
C994 C992 1.381 . S
C994 C995 1.389 1_545 S
C994 H1002 0.936 . S
C995 C994 1.389 1_565 S
C995 C996 1.383 . S
C995 H1003 0.929 . S
C996 C995 1.383 . S
C996 C997 1.377 . S
C997 H981 0.930 . S
C997 C996 1.377 . S
C997 C998 1.379 . S
C998 H982 0.931 . S
C998 C992 1.379 1_565 S
C998 C997 1.379 . S
H999 C993 0.959 . S
H1000 C993 0.961 . S
H1001 C993 0.960 . S
H1002 C994 0.936 . S
H1003 C995 0.929 . S
H1004 C1012 0.929 . S
H1005 C1014 0.930 . S
H1006 C1016 0.930 . S
H1007 C1019 0.929 . S
H1008 C1022 0.930 . S
H1009 C1024 0.960 . S
H1010 C1024 0.960 . S
H1011 C1024 0.960 . S
C1012 H1004 0.929 . S
C1012 C1013 1.377 . S
C1012 C1014 1.384 . S
C1013 C1012 1.377 . S
C1013 C1019 1.390 . S
C1014 H1005 0.930 . S
C1014 C1012 1.384 . S
C1014 C1015 1.372 . S
C1015 C1014 1.372 . S
C1015 C1016 1.400 . S
C1015 C1020 1.490 . S
C1016 H1006 0.930 . S
C1016 C1015 1.400 . S
C1016 C1019 1.386 . S
H1017 C1033 0.930 . S
H1018 C1034 0.931 . S
C1019 H1007 0.929 . S
C1019 C1013 1.390 . S
C1019 C1016 1.386 . S
C1020 C1015 1.490 . S
C1020 C1022 1.395 . S
C1020 C1023 1.403 . S
H1021 C1027 0.930 . S
C1022 H1008 0.930 . S
C1022 C1020 1.395 . S
C1022 C1025 1.403 . S
C1023 C1020 1.403 . S
C1023 C1024 1.524 . S
C1023 C1027 1.400 . S
C1024 H1009 0.960 . S
C1024 H1010 0.960 . S
C1024 H1011 0.960 . S
C1024 C1023 1.524 . S
C1025 C1022 1.403 . S
C1025 C1026 1.392 . S
C1025 C1029 1.495 . S
C1026 C1025 1.392 . S
C1026 C1027 1.385 . S
C1026 C1028 1.478 . S
C1027 H1021 0.930 . S
C1027 C1023 1.400 . S
C1027 C1026 1.385 . S
C1028 C1026 1.478 . S
C1028 C1030 1.381 . S
C1028 C1034 1.383 . S
C1029 C1025 1.495 . S
C1029 H1035 0.959 . S
C1029 H1036 0.961 . S
C1029 H1037 0.960 . S
C1030 C1028 1.381 . S
C1030 C1031 1.394 . S
C1030 H1038 0.930 . S
C1031 C1030 1.394 . S
C1031 C1032 1.383 . S
C1031 H1039 0.929 . S
C1032 C1031 1.383 . S
C1032 C1033 1.377 . S
C1033 H1017 0.930 . S
C1033 C1032 1.377 . S
C1033 C1034 1.379 . S
C1034 H1018 0.931 . S
C1034 C1028 1.383 . S
C1034 C1033 1.379 . S
H1035 C1029 0.959 . S
H1036 C1029 0.961 . S
H1037 C1029 0.960 . S
H1038 C1030 0.930 . S
H1039 C1031 0.929 . S
H1040 C1048 0.929 . S
H1041 C1050 0.930 . S
H1042 C1052 0.930 . S
H1043 C1055 0.929 . S
H1044 C1058 0.930 . S
H1045 C1060 0.960 . S
H1046 C1060 0.960 . S
H1047 C1060 0.960 . S
C1048 H1040 0.929 . S
C1048 C1049 1.377 . S
C1048 C1050 1.384 . S
C1049 C1048 1.377 . S
C1049 C1055 1.390 . S
C1050 H1041 0.930 . S
C1050 C1048 1.384 . S
C1050 C1051 1.372 . S
C1051 C1050 1.372 . S
C1051 C1052 1.400 . S
C1051 C1056 1.490 . S
C1052 H1042 0.930 . S
C1052 C1051 1.400 . S
C1052 C1055 1.386 . S
H1053 C1069 0.930 . S
H1054 C1070 0.931 . S
C1055 H1043 0.929 . S
C1055 C1049 1.390 . S
C1055 C1052 1.386 . S
C1056 C1051 1.490 . S
C1056 C1058 1.395 . S
C1056 C1059 1.403 . S
H1057 C1063 0.930 . S
C1058 H1044 0.930 . S
C1058 C1056 1.395 . S
C1058 C1061 1.403 . S
C1059 C1056 1.403 . S
C1059 C1060 1.524 . S
C1059 C1063 1.400 . S
C1060 H1045 0.960 . S
C1060 H1046 0.960 . S
C1060 H1047 0.960 . S
C1060 C1059 1.524 . S
C1061 C1058 1.403 . S
C1061 C1062 1.392 . S
C1061 C1065 1.495 . S
C1062 C1061 1.392 . S
C1062 C1063 1.385 . S
C1062 C1064 1.478 . S
C1063 H1057 0.930 . S
C1063 C1059 1.400 . S
C1063 C1062 1.385 . S
C1064 C1062 1.478 . S
C1064 C1066 1.381 . S
C1064 C1070 1.383 . S
C1065 C1061 1.495 . S
C1065 H1071 0.959 . S
C1065 H1072 0.961 . S
C1065 H1073 0.960 . S
C1066 C1064 1.381 . S
C1066 C1067 1.394 . S
C1066 H1074 0.930 . S
C1067 C1066 1.394 . S
C1067 C1068 1.383 . S
C1067 H1075 0.929 . S
C1068 C1067 1.383 . S
C1068 C1069 1.377 . S
C1069 H1053 0.930 . S
C1069 C1068 1.377 . S
C1069 C1070 1.379 . S
C1070 H1054 0.931 . S
C1070 C1064 1.383 . S
C1070 C1069 1.379 . S
H1071 C1065 0.959 . S
H1072 C1065 0.961 . S
H1073 C1065 0.960 . S
H1074 C1066 0.930 . S
H1075 C1067 0.929 . S
H1076 C1084 0.929 . S
H1077 C1086 0.930 . S
H1078 C1088 0.930 . S
H1079 C1091 0.929 . S
H1080 C1094 0.930 . S
H1081 C1096 0.960 . S
H1082 C1096 0.960 . S
H1083 C1096 0.960 . S
C1084 H1076 0.929 . S
C1084 C1085 1.377 . S
C1084 C1086 1.384 . S
C1085 C1084 1.377 . S
C1085 C1091 1.390 . S
C1086 H1077 0.930 . S
C1086 C1084 1.384 . S
C1086 C1087 1.372 . S
C1087 C1086 1.372 . S
C1087 C1088 1.400 . S
C1087 C1092 1.490 . S
C1088 H1078 0.930 . S
C1088 C1087 1.400 . S
C1088 C1091 1.386 . S
H1089 C1105 0.930 . S
H1090 C1106 0.931 . S
C1091 H1079 0.929 . S
C1091 C1085 1.390 . S
C1091 C1088 1.386 . S
C1092 C1087 1.490 . S
C1092 C1094 1.395 . S
C1092 C1095 1.403 . S
H1093 C1099 0.930 . S
C1094 H1080 0.930 . S
C1094 C1092 1.395 . S
C1094 C1097 1.403 . S
C1095 C1092 1.403 . S
C1095 C1096 1.524 . S
C1095 C1099 1.400 . S
C1096 H1081 0.960 . S
C1096 H1082 0.960 . S
C1096 H1083 0.960 . S
C1096 C1095 1.524 . S
C1097 C1094 1.403 . S
C1097 C1098 1.392 . S
C1097 C1101 1.495 . S
C1098 C1097 1.392 . S
C1098 C1099 1.385 . S
C1098 C1100 1.478 . S
C1099 H1093 0.930 . S
C1099 C1095 1.400 . S
C1099 C1098 1.385 . S
C1100 C1098 1.478 . S
C1100 C1102 1.381 . S
C1100 C1106 1.383 . S
C1101 C1097 1.495 . S
C1101 H1107 0.959 . S
C1101 H1108 0.961 . S
C1101 H1109 0.960 . S
C1102 C1100 1.381 . S
C1102 C1103 1.394 . S
C1102 H1110 0.930 . S
C1103 C1102 1.394 . S
C1103 C1104 1.383 . S
C1103 H1111 0.929 . S
C1104 C1103 1.383 . S
C1104 C1105 1.377 . S
C1105 H1089 0.930 . S
C1105 C1104 1.377 . S
C1105 C1106 1.379 . S
C1106 H1090 0.931 . S
C1106 C1100 1.383 . S
C1106 C1105 1.379 . S
H1107 C1101 0.959 . S
H1108 C1101 0.961 . S
H1109 C1101 0.960 . S
H1110 C1102 0.930 . S
H1111 C1103 0.929 . S
H1112 C1120 0.929 . S
H1113 C1122 0.930 . S
H1114 C1124 0.930 . S
H1115 C1127 0.929 . S
H1116 C1130 0.930 . S
H1117 C1132 0.960 . S
H1118 C1132 0.960 . S
H1119 C1132 0.960 . S
C1120 H1112 0.929 . S
C1120 C1121 1.377 . S
C1120 C1122 1.384 . S
C1121 C1120 1.377 . S
C1121 C1127 1.390 . S
C1122 H1113 0.930 . S
C1122 C1120 1.384 . S
C1122 C1123 1.372 . S
C1123 C1122 1.372 . S
C1123 C1124 1.400 . S
C1123 C1128 1.490 . S
C1124 H1114 0.930 . S
C1124 C1123 1.400 . S
C1124 C1127 1.386 . S
H1125 C1141 0.930 . S
H1126 C1142 0.931 . S
C1127 H1115 0.929 . S
C1127 C1121 1.390 . S
C1127 C1124 1.386 . S
C1128 C1123 1.490 . S
C1128 C1130 1.395 . S
C1128 C1131 1.403 . S
H1129 C1135 0.930 . S
C1130 H1116 0.930 . S
C1130 C1128 1.395 . S
C1130 C1133 1.403 . S
C1131 C1128 1.403 . S
C1131 C1132 1.524 . S
C1131 C1135 1.400 . S
C1132 H1117 0.960 . S
C1132 H1118 0.960 . S
C1132 H1119 0.960 . S
C1132 C1131 1.524 . S
C1133 C1130 1.403 . S
C1133 C1134 1.392 . S
C1133 C1137 1.495 . S
C1134 C1133 1.392 . S
C1134 C1135 1.385 . S
C1134 C1136 1.478 . S
C1135 H1129 0.930 . S
C1135 C1131 1.400 . S
C1135 C1134 1.385 . S
C1136 C1134 1.478 . S
C1136 C1138 1.381 . S
C1136 C1142 1.383 . S
C1137 C1133 1.495 . S
C1137 H1143 0.959 . S
C1137 H1144 0.961 . S
C1137 H1145 0.960 . S
C1138 C1136 1.381 . S
C1138 C1139 1.394 . S
C1138 H1146 0.930 . S
C1139 C1138 1.394 . S
C1139 C1140 1.383 . S
C1139 H1147 0.929 . S
C1140 C1139 1.383 . S
C1140 C1141 1.377 . S
C1141 H1125 0.930 . S
C1141 C1140 1.377 . S
C1141 C1142 1.379 . S
C1142 H1126 0.931 . S
C1142 C1136 1.383 . S
C1142 C1141 1.379 . S
H1143 C1137 0.959 . S
H1144 C1137 0.961 . S
H1145 C1137 0.960 . S
H1146 C1138 0.930 . S
H1147 C1139 0.929 . S
H1148 C1156 0.929 . S
H1149 C1158 0.930 . S
H1150 C1160 0.930 . S
H1151 C1163 0.929 . S
H1152 C1166 0.930 . S
H1153 C1168 0.960 . S
H1154 C1168 0.960 . S
H1155 C1168 0.960 . S
C1156 H1148 0.929 . S
C1156 C1157 1.377 1_455 S
C1156 C1158 1.384 . S
C1157 C1156 1.377 1_655 S
C1157 C1163 1.390 . S
C1158 H1149 0.930 . S
C1158 C1156 1.384 . S
C1158 C1159 1.372 1_455 S
C1159 C1158 1.372 1_655 S
C1159 C1160 1.400 . S
C1159 C1164 1.490 . S
C1160 H1150 0.930 . S
C1160 C1159 1.400 . S
C1160 C1163 1.386 . S
H1161 C1177 0.930 . S
H1162 C1178 0.931 . S
C1163 H1151 0.929 . S
C1163 C1157 1.390 . S
C1163 C1160 1.386 . S
C1164 C1159 1.490 . S
C1164 C1166 1.395 1_655 S
C1164 C1167 1.403 . S
H1165 C1171 0.930 . S
C1166 H1152 0.930 . S
C1166 C1164 1.395 1_455 S
C1166 C1169 1.403 1_556 S
C1167 C1164 1.403 . S
C1167 C1168 1.524 . S
C1167 C1171 1.400 1_556 S
C1168 H1153 0.960 . S
C1168 H1154 0.960 . S
C1168 H1155 0.960 . S
C1168 C1167 1.524 . S
C1169 C1166 1.403 1_554 S
C1169 C1170 1.392 . S
C1169 C1173 1.495 . S
C1170 C1169 1.392 . S
C1170 C1171 1.385 1_455 S
C1170 C1172 1.478 . S
C1171 H1165 0.930 . S
C1171 C1167 1.400 1_554 S
C1171 C1170 1.385 1_655 S
C1172 C1170 1.478 . S
C1172 C1174 1.381 . S
C1172 C1178 1.383 1_455 S
C1173 C1169 1.495 . S
C1173 H1179 0.959 . S
C1173 H1180 0.961 . S
C1173 H1181 0.960 . S
C1174 C1172 1.381 . S
C1174 C1175 1.394 . S
C1174 H1182 0.930 . S
C1175 C1174 1.394 . S
C1175 C1176 1.383 . S
C1175 H1183 0.929 . S
C1176 C1175 1.383 . S
C1176 C1177 1.377 1_455 S
C1177 H1161 0.930 . S
C1177 C1176 1.377 1_655 S
C1177 C1178 1.379 . S
C1178 H1162 0.931 . S
C1178 C1172 1.383 1_655 S
C1178 C1177 1.379 . S
H1179 C1173 0.959 . S
H1180 C1173 0.961 . S
H1181 C1173 0.960 . S
H1182 C1174 0.930 . S
H1183 C1175 0.929 . S
C329 C13 1.723 . S
C348 C133 1.718 . S
C365 C2 1.275 . S
C384 C42 1.280 . S
C401 C53 1.276 . S
C420 C82 1.258 . S
C437 C93 1.743 . S
C456 C122 1.718 . S
C473 C24 1.724 . S
C492 C224 1.721 . S
C509 C23 1.276 . S
C528 C183 1.260 . S
C545 C184 1.278 . S
C564 C103 1.247 . S
C581 C223 1.737 . S
C600 C104 1.743 . S
C617 C253 1.723 . S
C636 C213 1.726 . S
C653 C162 1.281 . S
C672 C242 1.269 . S
C689 C282 1.267 . S
C708 C173 1.287 . S
C725 C202 1.735 . S
C744 C293 1.744 . S
C761 C144 1.725 . S
C780 C264 1.712 . S
C797 C263 1.281 . S
C816 C63 1.289 . S
C833 C64 1.275 . S
C852 C303 1.276 . S
C869 C143 1.734 . S
C888 C304 1.743 . S
C905 C17 1.355 . S
C924 C26 1.360 . S
C941 C57 1.432 . S
C960 C66 1.427 . S
C977 C97 1.350 . S
C996 C106 1.341 . S
C1013 C137 1.512 . S
C1032 C146 1.495 . S
C1049 C177 1.432 . S
C1068 C186 1.423 . S
C1085 C217 1.507 . S
C1104 C226 1.519 . S
C1121 C266 1.358 . S
C1140 C257 1.371 . S
C1157 C306 1.355 . S
C1176 C297 1.368 . S
