# Generated by pormake.
# Topology unp, (4)-cn, num edge types: 1
# Building blocks:
#     Node 0, Type 0, BuildingBlock: GALJAG_clean_sbu_0, # of connection points: 4
#     Node 1, Type 0, BuildingBlock: GALJAG_clean_sbu_0, # of connection points: 4
#     Node 2, Type 0, BuildingBlock: GALJAG_clean_sbu_0, # of connection points: 4
#     Node 3, Type 0, BuildingBlock: GALJAG_clean_sbu_0, # of connection points: 4
#     Node 4, Type 0, BuildingBlock: GALJAG_clean_sbu_0, # of connection points: 4
#     Node 5, Type 0, BuildingBlock: GALJAG_clean_sbu_0, # of connection points: 4
#     Node 6, Type 0, BuildingBlock: GALJAG_clean_sbu_0, # of connection points: 4
#     Node 7, Type 0, BuildingBlock: GALJAG_clean_sbu_0, # of connection points: 4
#     Node 8, Type 0, BuildingBlock: GALJAG_clean_sbu_0, # of connection points: 4
#     Node 9, Type 0, BuildingBlock: GALJAG_clean_sbu_0, # of connection points: 4
#     Node 10, Type 0, BuildingBlock: GALJAG_clean_sbu_0, # of connection points: 4
#     Node 11, Type 0, BuildingBlock: GALJAG_clean_sbu_0, # of connection points: 4
#     Node 12, Type 0, BuildingBlock: GALJAG_clean_sbu_0, # of connection points: 4
#     Node 13, Type 0, BuildingBlock: GALJAG_clean_sbu_0, # of connection points: 4
#     Node 14, Type 0, BuildingBlock: GALJAG_clean_sbu_0, # of connection points: 4
#     Node 15, Type 0, BuildingBlock: GALJAG_clean_sbu_0, # of connection points: 4
#     Node 16, Type 0, BuildingBlock: GALJAG_clean_sbu_0, # of connection points: 4
#     Node 17, Type 0, BuildingBlock: GALJAG_clean_sbu_0, # of connection points: 4
#     Edge 18, Type (0, 0), BuildingBlock: AJUNOK_clean_linker_0, # of connection points: 2
#     Edge 19, Type (0, 0), BuildingBlock: AJUNOK_clean_linker_0, # of connection points: 2
#     Edge 20, Type (0, 0), BuildingBlock: AJUNOK_clean_linker_0, # of connection points: 2
#     Edge 21, Type (0, 0), BuildingBlock: AJUNOK_clean_linker_0, # of connection points: 2
#     Edge 22, Type (0, 0), BuildingBlock: AJUNOK_clean_linker_0, # of connection points: 2
#     Edge 23, Type (0, 0), BuildingBlock: AJUNOK_clean_linker_0, # of connection points: 2
#     Edge 24, Type (0, 0), BuildingBlock: AJUNOK_clean_linker_0, # of connection points: 2
#     Edge 25, Type (0, 0), BuildingBlock: AJUNOK_clean_linker_0, # of connection points: 2
#     Edge 26, Type (0, 0), BuildingBlock: AJUNOK_clean_linker_0, # of connection points: 2
#     Edge 27, Type (0, 0), BuildingBlock: AJUNOK_clean_linker_0, # of connection points: 2
#     Edge 28, Type (0, 0), BuildingBlock: AJUNOK_clean_linker_0, # of connection points: 2
#     Edge 29, Type (0, 0), BuildingBlock: AJUNOK_clean_linker_0, # of connection points: 2
#     Edge 30, Type (0, 0), BuildingBlock: AJUNOK_clean_linker_0, # of connection points: 2
#     Edge 31, Type (0, 0), BuildingBlock: AJUNOK_clean_linker_0, # of connection points: 2
#     Edge 32, Type (0, 0), BuildingBlock: AJUNOK_clean_linker_0, # of connection points: 2
#     Edge 33, Type (0, 0), BuildingBlock: AJUNOK_clean_linker_0, # of connection points: 2
#     Edge 34, Type (0, 0), BuildingBlock: AJUNOK_clean_linker_0, # of connection points: 2
#     Edge 35, Type (0, 0), BuildingBlock: AJUNOK_clean_linker_0, # of connection points: 2
#     Edge 36, Type (0, 0), BuildingBlock: AJUNOK_clean_linker_0, # of connection points: 2
#     Edge 37, Type (0, 0), BuildingBlock: AJUNOK_clean_linker_0, # of connection points: 2
#     Edge 38, Type (0, 0), BuildingBlock: AJUNOK_clean_linker_0, # of connection points: 2
#     Edge 39, Type (0, 0), BuildingBlock: AJUNOK_clean_linker_0, # of connection points: 2
#     Edge 40, Type (0, 0), BuildingBlock: AJUNOK_clean_linker_0, # of connection points: 2
#     Edge 41, Type (0, 0), BuildingBlock: AJUNOK_clean_linker_0, # of connection points: 2
#     Edge 42, Type (0, 0), BuildingBlock: AJUNOK_clean_linker_0, # of connection points: 2
#     Edge 43, Type (0, 0), BuildingBlock: AJUNOK_clean_linker_0, # of connection points: 2
#     Edge 44, Type (0, 0), BuildingBlock: AJUNOK_clean_linker_0, # of connection points: 2
#     Edge 45, Type (0, 0), BuildingBlock: AJUNOK_clean_linker_0, # of connection points: 2
#     Edge 46, Type (0, 0), BuildingBlock: AJUNOK_clean_linker_0, # of connection points: 2
#     Edge 47, Type (0, 0), BuildingBlock: AJUNOK_clean_linker_0, # of connection points: 2
#     Edge 48, Type (0, 0), BuildingBlock: AJUNOK_clean_linker_0, # of connection points: 2
#     Edge 49, Type (0, 0), BuildingBlock: AJUNOK_clean_linker_0, # of connection points: 2
#     Edge 50, Type (0, 0), BuildingBlock: AJUNOK_clean_linker_0, # of connection points: 2
#     Edge 51, Type (0, 0), BuildingBlock: AJUNOK_clean_linker_0, # of connection points: 2
#     Edge 52, Type (0, 0), BuildingBlock: AJUNOK_clean_linker_0, # of connection points: 2
#     Edge 53, Type (0, 0), BuildingBlock: AJUNOK_clean_linker_0, # of connection points: 2
# Relax obj value: 0.397
# Max RMSD: 0.140
# Mean RMSD: 0.140
data_MOF--net-unp--node1-GALJAG_clean_sbu_0--edge1-AJUNOK_clean_linker_0
_symmetry_space_group_name_H-M    P1
_symmetry_Int_Tables_number       1
_symmetry_cell_setting            triclinic
loop_
_symmetry_equiv_pos_as_xyz
'x, y, z'
_cell_length_a     36.924611
_cell_length_b     36.897608
_cell_length_c     31.620159
_cell_angle_alpha  90.163209
_cell_angle_beta   89.903201
_cell_angle_gamma 119.98426
loop_
_atom_site_label
_atom_site_type_symbol
_atom_site_fract_x
_atom_site_fract_y
_atom_site_fract_z
_atom_type_partial_charge
In0 In 0.17045 0.15311 0.16306 0.0
O1 O 0.22793 0.21496 0.18544 0.0
O2 O 0.23536 0.17857 0.13796 0.0
C3 C 0.10769 0.15004 0.20947 0.0
C4 C 0.14092 0.15118 0.08507 0.0
C5 C 0.1624 0.07848 0.18282 0.0
O6 O 0.13209 0.13834 0.22352 0.0
O7 O 0.11827 0.16809 0.17417 0.0
O8 O 0.16177 0.08999 0.1454 0.0
O9 O 0.16933 0.10579 0.2107 0.0
C10 C 0.25207 0.21163 0.15938 0.0
O11 O 0.13691 0.11888 0.10313 0.0
O12 O 0.15883 0.18422 0.10702 0.0
In13 In 0.84993 0.0125 0.18843 0.0
O14 O 0.78406 0.00466 0.18643 0.0
O15 O 0.83538 0.06317 0.20499 0.0
C16 C 0.83163 0.94229 0.23132 0.0
C17 C 0.85514 0.01046 0.10344 0.0
C18 C 0.9306 0.05992 0.20937 0.0
O19 O 0.85323 0.9783 0.24716 0.0
O20 O 0.814 0.94201 0.1971 0.0
O21 O 0.91783 0.03149 0.18169 0.0
O22 O 0.90274 0.06527 0.22658 0.0
C23 C 0.79737 0.04269 0.19491 0.0
O24 O 0.86077 0.04243 0.12338 0.0
O25 O 0.84807 0.9798 0.12643 0.0
In26 In 0.97421 0.84241 0.16992 0.0
O27 O 0.96673 0.86155 0.10353 0.0
O28 O 0.00929 0.83916 0.1129 0.0
C29 C 0.91426 0.85196 0.20884 0.0
C30 C 0.94765 0.76031 0.16776 0.0
C31 C 0.04637 0.90966 0.19201 0.0
O32 O 0.91512 0.84648 0.16959 0.0
O33 O 0.94359 0.85192 0.22933 0.0
O34 O 0.03398 0.87519 0.21094 0.0
O35 O 0.02197 0.90981 0.16433 0.0
C36 C 0.99247 0.85241 0.0872 0.0
O37 O 0.97891 0.78479 0.19012 0.0
O38 O 0.92887 0.77693 0.15056 0.0
In39 In 0.13928 0.15877 0.82033 0.0
O40 O 0.20698 0.21 0.82998 0.0
O41 O 0.1724 0.21858 0.78179 0.0
C42 C 0.15295 0.09612 0.79777 0.0
C43 C 0.12457 0.15379 0.90405 0.0
C44 C 0.06333 0.14372 0.79311 0.0
O45 O 0.14112 0.11385 0.7716 0.0
O46 O 0.16049 0.11206 0.83425 0.0
O47 O 0.08221 0.16704 0.82409 0.0
O48 O 0.08346 0.12897 0.77475 0.0
C49 C 0.20578 0.23428 0.80296 0.0
O50 O 0.14119 0.18782 0.88399 0.0
O51 O 0.11441 0.12177 0.88156 0.0
In52 In 0.82654 0.97628 0.83822 0.0
O53 O 0.85191 0.96915 0.90134 0.0
O54 O 0.8211 0.00486 0.89972 0.0
C55 C 0.84562 0.91838 0.81254 0.0
C56 C 0.74327 0.94404 0.83001 0.0
C57 C 0.88829 0.0472 0.80327 0.0
O58 O 0.83665 0.92165 0.85041 0.0
O59 O 0.84525 0.94471 0.7873 0.0
O60 O 0.86395 0.01601 0.78095 0.0
O61 O 0.87972 0.0431 0.84205 0.0
C62 C 0.83985 0.99077 0.92158 0.0
O63 O 0.76825 0.98282 0.82689 0.0
O64 O 0.76062 0.92242 0.83384 0.0
In65 In 0.01349 0.84494 0.82125 0.0
O66 O -0.00364 0.86767 0.88105 0.0
O67 O 0.03294 0.83818 0.88724 0.0
C68 C 0.07842 0.9205 0.80005 0.0
C69 C 0.0258 0.78046 0.80323 0.0
C70 C 0.9408 0.83751 0.79392 0.0
O71 O 0.07412 0.90464 0.83623 0.0
O72 O 0.05042 0.89759 0.77389 0.0
O73 O 0.97458 0.85749 0.77374 0.0
O74 O 0.94314 0.81806 0.82549 0.0
C75 C 0.01443 0.85475 0.90555 0.0
O76 O -0.00324 0.77662 0.82697 0.0
O77 O 0.0454 0.81543 0.78513 0.0
In78 In 0.83473 0.48564 0.48999 0.0
O79 O 0.89582 0.54607 0.50847 0.0
O80 O 0.89824 0.50398 0.46445 0.0
C81 C 0.77558 0.48886 0.53764 0.0
C82 C 0.80455 0.48623 0.41311 0.0
C83 C 0.82293 0.41006 0.51134 0.0
O84 O 0.79839 0.47515 0.55155 0.0
O85 O 0.78671 0.5061 0.50201 0.0
O86 O 0.82045 0.42002 0.47372 0.0
O87 O 0.83224 0.43865 0.53841 0.0
C88 C 0.91789 0.53833 0.48349 0.0
O89 O 0.797 0.45267 0.43121 0.0
O90 O 0.82669 0.51913 0.43428 0.0
In91 In 0.52804 0.33956 0.49027 0.0
O92 O 0.46989 0.34482 0.50696 0.0
O93 O 0.51053 0.38281 0.45823 0.0
C94 C 0.50403 0.26905 0.53501 0.0
C95 C 0.54003 0.32312 0.40998 0.0
C96 C 0.60161 0.39223 0.52704 0.0
O97 O 0.52105 0.30472 0.55225 0.0
O98 O 0.49471 0.2691 0.4967 0.0
O99 O 0.5937 0.35804 0.51016 0.0
O100 O 0.57253 0.40076 0.5249 0.0
C101 C 0.47736 0.37171 0.47849 0.0
O102 O 0.56803 0.35359 0.43055 0.0
O103 O 0.50696 0.30061 0.43051 0.0
In104 In 0.65028 0.16947 0.51531 0.0
O105 O 0.66606 0.1178 0.50464 0.0
O106 O 0.62441 0.10977 0.55419 0.0
C107 C 0.72526 0.23514 0.53682 0.0
C108 C 0.64598 0.18009 0.43169 0.0
C109 C 0.58509 0.17704 0.54293 0.0
O110 O 0.72084 0.20916 0.50852 0.0
O111 O 0.69232 0.22545 0.55727 0.0
O112 O 0.58603 0.16249 0.50707 0.0
O113 O 0.61691 0.18707 0.56554 0.0
C114 C 0.64122 0.09369 0.53217 0.0
O115 O 0.62625 0.14481 0.44931 0.0
O116 O 0.66618 0.21032 0.45666 0.0
In117 In 0.80524 0.50858 0.1509 0.0
O118 O 0.8061 0.53377 0.21646 0.0
O119 O 0.7762 0.46776 0.20906 0.0
C120 C 0.73353 0.50228 0.12219 0.0
C121 C 0.87305 0.58423 0.13662 0.0
C122 C 0.81192 0.44164 0.12725 0.0
O123 O 0.74721 0.51419 0.15908 0.0
O124 O 0.75695 0.49485 0.09902 0.0
O125 O 0.79317 0.45563 0.10535 0.0
O126 O 0.8305 0.4638 0.15906 0.0
C127 C 0.78727 0.49834 0.23392 0.0
O128 O 0.87291 0.55905 0.16337 0.0
O129 O 0.84065 0.56927 0.11403 0.0
In130 In 0.50737 0.32088 0.14805 0.0
O131 O 0.55354 0.34153 0.2034 0.0
O132 O 0.49218 0.29084 0.21291 0.0
C133 C 0.52033 0.26002 0.11639 0.0
C134 C 0.42994 0.31011 0.14017 0.0
C135 C 0.56139 0.39757 0.11868 0.0
O136 O 0.4907 0.2527 0.14115 0.0
O137 O 0.54233 0.29792 0.10612 0.0
O138 O 0.54612 0.36546 0.09529 0.0
O139 O 0.5468 0.39098 0.15576 0.0
C140 C 0.52769 0.3146 0.22863 0.0
O141 O 0.45353 0.32905 0.17084 0.0
O142 O 0.44659 0.29908 0.11183 0.0
In143 In 0.68107 0.18616 0.16654 0.0
O144 O 0.68872 0.22043 0.2288 0.0
O145 O 0.65292 0.15402 0.22904 0.0
C146 C 0.73732 0.26447 0.14257 0.0
C147 C 0.71277 0.1345 0.15643 0.0
C148 C 0.61081 0.17598 0.12913 0.0
O149 O 0.73589 0.251 0.1796 0.0
O150 O 0.71083 0.23792 0.11725 0.0
O151 O 0.64259 0.1827 0.108 0.0
O152 O 0.61387 0.17179 0.16818 0.0
C153 C 0.66737 0.18755 0.25001 0.0
O154 O 0.67399 0.12064 0.15861 0.0
O155 O 0.73453 0.17369 0.15693 0.0
In156 In 0.48125 0.81839 0.85259 0.0
O157 O 0.54342 0.87518 0.87363 0.0
O158 O 0.54346 0.82247 0.84624 0.0
C159 C 0.42628 0.8361 0.88983 0.0
C160 C 0.47784 0.82427 0.76827 0.0
C161 C 0.44621 0.73802 0.8747 0.0
O162 O 0.44431 0.82018 0.91013 0.0
O163 O 0.44143 0.84895 0.85362 0.0
O164 O 0.43047 0.75159 0.84809 0.0
O165 O 0.4807 0.76512 0.89058 0.0
C166 C 0.56469 0.85936 0.85984 0.0
O167 O 0.46117 0.78954 0.78703 0.0
O168 O 0.49523 0.85584 0.79212 0.0
In169 In 0.18118 0.67765 0.83406 0.0
O170 O 0.11672 0.66987 0.85127 0.0
O171 O 0.16339 0.72658 0.82377 0.0
C172 C 0.16989 0.60412 0.86429 0.0
C173 C 0.18002 0.66497 0.7503 0.0
C174 C 0.25369 0.73915 0.86638 0.0
O175 O 0.17516 0.63341 0.88884 0.0
O176 O 0.16907 0.61175 0.82574 0.0
O177 O 0.24607 0.73419 0.82726 0.0
O178 O 0.2251 0.71234 0.88967 0.0
C179 C 0.12609 0.70499 0.83565 0.0
O180 O 0.21384 0.68113 0.77119 0.0
O181 O 0.1476 0.65438 0.77209 0.0
In182 In 0.2956 0.48984 0.82744 0.0
O183 O 0.30903 0.43734 0.84698 0.0
O184 O 0.25316 0.4225 0.81362 0.0
C185 C 0.35248 0.56343 0.85894 0.0
C186 C 0.31707 0.50152 0.74563 0.0
C187 C 0.23111 0.49435 0.86122 0.0
O188 O 0.34963 0.53001 0.87334 0.0
O189 O 0.3285 0.559 0.82862 0.0
O190 O 0.23518 0.49045 0.82214 0.0
O191 O 0.25833 0.49289 0.88425 0.0
C192 C 0.27646 0.40982 0.82827 0.0
O193 O 0.28298 0.49706 0.75931 0.0
O194 O 0.34163 0.50195 0.77365 0.0
In195 In 0.48656 0.83809 0.5011 0.0
O196 O 0.55355 0.89185 0.48823 0.0
O197 O 0.50458 0.9056 0.49636 0.0
C198 C 0.49597 0.77343 0.47525 0.0
C199 C 0.48343 0.83234 0.5856 0.0
C200 C 0.41226 0.82351 0.47122 0.0
O201 O 0.48936 0.79551 0.44942 0.0
O202 O 0.5004 0.78582 0.51295 0.0
O203 O 0.42237 0.8303 0.50971 0.0
O204 O 0.44016 0.8247 0.44709 0.0
C205 C 0.54322 0.91946 0.49303 0.0
O206 O 0.4522 0.80903 0.56277 0.0
O207 O 0.51605 0.8572 0.56562 0.0
In208 In 0.17475 0.65162 0.48184 0.0
O209 O 0.20796 0.65981 0.54535 0.0
O210 O 0.14328 0.64042 0.54561 0.0
C211 C 0.19493 0.59358 0.45783 0.0
C212 C 0.09648 0.63191 0.46038 0.0
C213 C 0.23742 0.72691 0.45657 0.0
O214 O 0.17905 0.59303 0.49335 0.0
O215 O 0.19951 0.6228 0.43384 0.0
O216 O 0.21896 0.69643 0.43152 0.0
O217 O 0.22154 0.72025 0.49298 0.0
C218 C 0.17562 0.65015 0.56705 0.0
O219 O 0.12204 0.66685 0.47626 0.0
O220 O 0.11177 0.60896 0.45173 0.0
In221 In 0.36371 0.51617 0.48258 0.0
O222 O 0.38637 0.53638 0.55055 0.0
O223 O 0.32615 0.48325 0.54031 0.0
C224 C 0.42172 0.59649 0.46753 0.0
C225 C 0.38501 0.45852 0.45915 0.0
C226 C 0.29395 0.51591 0.45652 0.0
O227 O 0.4221 0.57699 0.50015 0.0
O228 O 0.39231 0.57508 0.44203 0.0
O229 O 0.31962 0.51566 0.43017 0.0
O230 O 0.30296 0.51463 0.49451 0.0
C231 C 0.35282 0.50783 0.5666 0.0
O232 O 0.35152 0.44891 0.47813 0.0
O233 O 0.40602 0.49647 0.44921 0.0
C234 C 0.35913 0.26627 0.10991 0.0
C235 C 0.38438 0.29366 0.14189 0.0
C236 C 0.31603 0.24141 0.1154 0.0
C237 C 0.2964 0.24318 0.15292 0.0
H238 H 0.37294 0.26199 0.08144 0.0
H239 H 0.29818 0.21938 0.09057 0.0
S240 S 0.34738 0.31491 0.24332 0.0
N241 N 0.38603 0.32511 0.2103 0.0
N242 N 0.30447 0.2782 0.22029 0.0
C243 C 0.32058 0.27306 0.18359 0.0
C244 C 0.36476 0.29841 0.17812 0.0
C245 C 0.7315 0.04674 0.19064 0.0
C246 C 0.77452 0.06432 0.18293 0.0
C247 C 0.71063 0.06852 0.17969 0.0
C248 C 0.73217 0.10807 0.16014 0.0
H249 H 0.7143 0.0168 0.2064 0.0
H250 H 0.678 0.05515 0.18819 0.0
S251 S 0.84297 0.16309 0.12552 0.0
N252 N 0.83647 0.12057 0.14948 0.0
N253 N 0.79732 0.16095 0.1285 0.0
C254 C 0.77443 0.12431 0.14964 0.0
C255 C 0.79562 0.10256 0.16117 0.0
C256 C 0.89557 0.65602 0.11206 0.0
C257 C 0.90157 0.62989 0.13984 0.0
C258 C 0.91192 0.69838 0.12108 0.0
C259 C 0.93536 0.71653 0.15801 0.0
H260 H 0.8758 0.6432 0.08443 0.0
H261 H 0.90492 0.71676 0.09943 0.0
S262 S 0.96626 0.66349 0.23744 0.0
N263 N 0.93704 0.62627 0.2033 0.0
N264 N 0.96843 0.70662 0.21976 0.0
C265 C 0.94496 0.69184 0.18413 0.0
C266 C 0.92797 0.64831 0.17511 0.0
C267 C 0.24455 0.34746 0.78225 0.0
C268 C 0.26709 0.36683 0.81929 0.0
C269 C 0.22873 0.30492 0.77482 0.0
C270 C 0.23445 0.27996 0.80439 0.0
H271 H 0.23745 0.36496 0.75951 0.0
H272 H 0.20931 0.291 0.74715 0.0
S273 S 0.29736 0.31725 0.903 0.0
N274 N 0.29942 0.35956 0.883 0.0
N275 N 0.26915 0.27884 0.86956 0.0
C276 C 0.26042 0.29974 0.83966 0.0
C277 C 0.27684 0.34344 0.84704 0.0
C278 C 0.67301 0.88104 0.83227 0.0
C279 C 0.69758 0.92481 0.83486 0.0
C280 C 0.63048 0.86049 0.84178 0.0
C281 C 0.61054 0.88274 0.8544 0.0
H282 H 0.68682 0.86225 0.82325 0.0
H283 H 0.61308 0.82669 0.83901 0.0
S284 S 0.66067 -0.00202 0.8658 0.0
N285 N 0.69907 0.99009 0.85079 0.0
N286 N 0.61842 0.95119 0.86843 0.0
C287 C 0.63455 0.92662 0.85695 0.0
C288 C 0.67819 0.94773 0.84705 0.0
C289 C 0.10419 0.74516 0.79062 0.0
C290 C 0.09555 0.71818 0.82523 0.0
C291 C 0.0786 0.76177 0.781 0.0
C292 C 0.04356 0.75248 0.80595 0.0
H293 H 0.13174 0.75455 0.77127 0.0
H294 H 0.08791 0.78409 0.75537 0.0
S295 S 0.00419 0.67889 0.89672 0.0
N296 N 0.04707 0.67895 0.8816 0.0
N297 N -0.00114 0.7109 0.86421 0.0
C298 C 0.03264 0.72294 0.83875 0.0
C299 C 0.05874 0.70565 0.84831 0.0
C300 C 0.98248 0.55554 0.44367 0.0
C301 C 0.96296 0.56658 0.47546 0.0
C302 C 0.02552 0.579 0.43678 0.0
C303 C 0.05083 0.61465 0.46114 0.0
H304 H 0.96463 0.5277 0.42463 0.0
H305 H 0.03931 0.56803 0.41335 0.0
S306 S 0.01493 0.65913 0.546 0.0
N307 N 0.97183 0.61723 0.52966 0.0
N308 N 0.05318 0.66165 0.51667 0.0
C309 C 0.03157 0.62762 0.49141 0.0
C310 C 0.9875 0.60344 0.49863 0.0
C311 C 0.39189 0.39981 0.48901 0.0
C312 C 0.40298 0.43074 0.45779 0.0
C313 C 0.41529 0.37976 0.49485 0.0
C314 C 0.45034 0.3898 0.46945 0.0
H315 H 0.36655 0.39283 0.51079 0.0
H316 H 0.40679 0.35746 0.5204 0.0
S317 S 0.48786 0.46375 0.3788 0.0
N318 N 0.44812 0.46707 0.39828 0.0
N319 N 0.49174 0.42911 0.40845 0.0
C320 C 0.45976 0.4185 0.43611 0.0
C321 C 0.43614 0.43903 0.43046 0.0
C322 C 0.63425 0.03063 0.49499 0.0
C323 C 0.62361 0.04792 0.52949 0.0
C324 C 0.60931 0.98824 0.48395 0.0
C325 C 0.57284 0.96234 0.50679 0.0
H326 H 0.66037 0.05047 0.47467 0.0
H327 H 0.61719 0.9764 0.45614 0.0
S328 S 0.53613 0.98979 0.60461 0.0
N329 N 0.57802 0.03376 0.59027 0.0
N330 N 0.53077 0.9547 0.56896 0.0
C331 C 0.56403 0.97825 0.54339 0.0
C332 C 0.58963 0.02094 0.55501 0.0
C333 C 0.04072 0.15049 0.21741 0.0
C334 C 0.06369 0.12982 0.22298 0.0
C335 C -0.0032 0.12803 0.21692 0.0
C336 C 0.97498 0.08425 0.22053 0.0
H337 H 0.05678 0.18372 0.21071 0.0
H338 H 0.98007 0.14452 0.21021 0.0
S339 S 0.01994 0.01565 0.23799 0.0
N340 N 0.06084 0.06332 0.23543 0.0
N341 N 0.97862 0.02133 0.23256 0.0
C342 C -0.00266 0.0636 0.22853 0.0
C343 C 0.04174 0.08639 0.23035 0.0
C344 C 0.82569 0.87425 0.21223 0.0
C345 C 0.84107 0.9084 0.24039 0.0
C346 C 0.84755 0.85284 0.20528 0.0
C347 C 0.88488 0.86406 0.22701 0.0
H348 H 0.79944 0.86711 0.19177 0.0
H349 H 0.83703 0.82976 0.18014 0.0
S350 S 0.93106 0.94224 0.31333 0.0
N351 N 0.89056 0.94594 0.297 0.0
N352 N 0.93122 0.90503 0.2843 0.0
C353 C 0.89681 0.89342 0.25999 0.0
C354 C 0.87478 0.91564 0.26678 0.0
C355 C 0.14105 0.00673 0.15887 0.0
C356 C 0.14624 0.03384 0.19255 0.0
C357 C 0.1119 0.96409 0.16137 0.0
C358 C 0.0874 0.94711 0.19777 0.0
H359 H 0.15634 0.01909 0.12878 0.0
H360 H 0.10542 0.94514 0.1331 0.0
S361 S 0.09706 0.00231 0.29856 0.0
N362 N 0.13086 0.03909 0.26657 0.0
N363 N 0.07555 0.9584 0.27085 0.0
C364 C 0.09646 0.97246 0.2337 0.0
C365 C 0.12628 0.01614 0.23125 0.0
C366 C 0.10147 0.98554 0.75813 0.0
C367 C 0.1084 0.96518 0.79205 0.0
C368 C 0.12045 0.02926 0.75724 0.0
C369 C 0.14685 0.05387 0.7903 0.0
H370 H 0.07839 0.96765 0.73415 0.0
H371 H 0.1111 0.04336 0.73273 0.0
S372 S 0.18416 0.01615 0.87957 0.0
N373 N 0.1503 0.97317 0.8544 0.0
N374 N 0.1859 0.05533 0.85276 0.0
C375 C 0.15842 0.03417 0.82111 0.0
C376 C 0.13912 0.98971 0.82202 0.0
C377 C -0.00406 0.0934 0.75813 0.0
C378 C 0.01844 0.12813 0.78496 0.0
C379 C 0.95214 0.06982 0.75987 0.0
C380 C 0.92968 0.0802 0.78866 0.0
H381 H 0.01226 0.08208 0.73845 0.0
H382 H 0.93636 0.04092 0.74193 0.0
S383 S 0.97291 0.17426 0.85723 0.0
N384 N 0.0143 0.17657 0.83448 0.0
N385 N 0.93213 0.13176 0.83818 0.0
C386 C 0.95137 0.11781 0.81141 0.0
C387 C -0.00418 0.14196 0.80946 0.0
C388 C 0.91185 0.87914 0.76148 0.0
C389 C 0.90668 0.84725 0.78947 0.0
C390 C 0.88907 0.89989 0.76678 0.0
C391 C 0.86057 0.88949 0.80033 0.0
H392 H 0.93619 0.8907 0.73764 0.0
H393 H 0.89642 0.92645 0.74671 0.0
S394 S 0.82768 0.8013 0.87512 0.0
N395 N 0.86481 0.8008 0.84639 0.0
N396 N 0.82248 0.84025 0.85663 0.0
C397 C 0.8515 0.85448 0.8252 0.0
C398 C 0.87434 0.83308 0.81957 0.0
C399 C 0.70785 0.48801 0.53457 0.0
C400 C 0.73173 0.47141 0.55158 0.0
C401 C 0.66424 0.46338 0.53094 0.0
C402 C 0.64351 0.42133 0.54363 0.0
H403 H 0.72327 0.51875 0.52017 0.0
H404 H 0.6474 0.47598 0.51421 0.0
S405 S 0.68997 0.36584 0.59872 0.0
N406 N 0.73002 0.41275 0.58867 0.0
N407 N 0.64838 0.36626 0.58028 0.0
C408 C 0.6662 0.406 0.5652 0.0
C409 C 0.71035 0.43126 0.56984 0.0
C410 C 0.54304 0.24544 0.5805 0.0
C411 C 0.51057 0.23517 0.55125 0.0
C412 C 0.56443 0.22297 0.58144 0.0
C413 C 0.55378 0.18952 0.55331 0.0
H414 H 0.55548 0.27393 0.59905 0.0
H415 H 0.59214 0.23475 0.60098 0.0
S416 S 0.46219 0.14179 0.48152 0.0
N417 N 0.46205 0.18305 0.50173 0.0
N418 N 0.50228 0.14085 0.50343 0.0
C419 C 0.51717 0.17489 0.52917 0.0
C420 C 0.49534 0.19765 0.52833 0.0
C421 C 0.78682 0.35028 0.56113 0.0
C422 C 0.80882 0.36638 0.52313 0.0
C423 C 0.76294 0.30698 0.56769 0.0
C424 C 0.76095 0.27852 0.53674 0.0
H425 H 0.78496 0.37101 0.58429 0.0
H426 H 0.74341 0.29581 0.59562 0.0
S427 S 0.82063 0.30576 0.43598 0.0
N428 N 0.8325 0.35129 0.45723 0.0
N429 N 0.78883 0.26999 0.46989 0.0
C430 C 0.78697 0.29456 0.50097 0.0
C431 C 0.81055 0.33855 0.49398 0.0
C432 C 0.79389 0.33637 0.16137 0.0
C433 C 0.76407 0.30926 0.13191 0.0
C434 C 0.81304 0.37985 0.15705 0.0
C435 C 0.80275 0.39784 0.12332 0.0
H436 H 0.80068 0.324 0.1894 0.0
H437 H 0.83349 0.39929 0.18219 0.0
S438 S 0.7326 0.34064 0.0334 0.0
N439 N 0.72987 0.30349 0.0645 0.0
N440 N 0.76563 0.3853 0.05656 0.0
C441 C 0.77624 0.37117 0.09139 0.0
C442 C 0.75688 0.32681 0.09568 0.0
C443 C 0.67051 0.45926 0.07804 0.0
C444 C 0.68963 0.48826 0.11112 0.0
C445 C 0.62701 0.43324 0.07678 0.0
C446 C 0.60153 0.43546 0.10866 0.0
H447 H 0.68927 0.45339 0.05569 0.0
H448 H 0.61401 0.40822 0.05361 0.0
S449 S 0.63553 0.51566 0.19327 0.0
N450 N 0.6793 0.52495 0.16977 0.0
N451 N 0.5975 0.47593 0.16746 0.0
C452 C 0.61977 0.46893 0.13751 0.0
C453 C 0.664 0.4954 0.13878 0.0
C454 C 0.56945 0.24075 0.08254 0.0
C455 C 0.53399 0.22919 0.10797 0.0
C456 C 0.59152 0.21903 0.08486 0.0
C457 C 0.57905 0.18548 0.11307 0.0
H458 H 0.5824 0.26889 0.06358 0.0
H459 H 0.62101 0.23163 0.0681 0.0
S460 S 0.48271 0.13638 0.17809 0.0
N461 N 0.48271 0.17665 0.15542 0.0
N462 N 0.52498 0.13667 0.16049 0.0
C463 C 0.54077 0.17031 0.1343 0.0
C464 C 0.51798 0.19202 0.13155 0.0
C465 C 0.3144 0.76185 0.91512 0.0
C466 C 0.29471 0.77149 0.88262 0.0
C467 C 0.35746 0.78734 0.92256 0.0
C468 C 0.38188 0.82315 0.89769 0.0
H469 H 0.29749 0.73249 0.93199 0.0
H470 H 0.37227 0.77621 0.94444 0.0
S471 S 0.34186 0.86797 0.81796 0.0
N472 N 0.3004 0.82348 0.83208 0.0
N473 N 0.38101 0.87188 0.84664 0.0
C474 C 0.36099 0.83623 0.86986 0.0
C475 C 0.31745 0.81002 0.86188 0.0
C476 C 0.17034 0.50414 0.85005 0.0
C477 C 0.20404 0.51074 0.87588 0.0
C478 C 0.15515 0.53207 0.85063 0.0
C479 C 0.17304 0.5674 0.87717 0.0
H480 H 0.15864 0.47989 0.82604 0.0
H481 H 0.13219 0.5283 0.82711 0.0
S482 S 0.25525 0.59326 0.95769 0.0
N483 N 0.24961 0.55069 0.93419 0.0
N484 N 0.22089 0.60334 0.9352 0.0
C485 C 0.20251 0.57098 0.90738 0.0
C486 C 0.21808 0.54244 0.90679 0.0
C487 C 0.3815 0.67198 0.88843 0.0
C488 C 0.42517 0.69329 0.88466 0.0
C489 C 0.35838 0.62856 0.88499 0.0
C490 C 0.37813 0.60505 0.8775 0.0
H491 H 0.36488 0.6892 0.89086 0.0
H492 H 0.32455 0.61358 0.88458 0.0
S493 S 0.49205 0.64566 0.87066 0.0
N494 N 0.48784 0.68781 0.87787 0.0
N495 N 0.44381 0.60539 0.87092 0.0
C496 C 0.42193 0.62545 0.87776 0.0
C497 C 0.4457 0.66999 0.88149 0.0
C498 C 0.45963 0.70775 0.43299 0.0
C499 C 0.48812 0.73101 0.46521 0.0
C500 C 0.44055 0.66399 0.43183 0.0
C501 C 0.44949 0.64219 0.46275 0.0
H502 H 0.44914 0.72293 0.41084 0.0
H503 H 0.41642 0.6471 0.40843 0.0
S504 S 0.52924 0.68972 0.54752 0.0
N505 N 0.52971 0.7299 0.52412 0.0
N506 N 0.49419 0.64777 0.5218 0.0
C507 C 0.48142 0.66553 0.4921 0.0
C508 C 0.5007 0.70998 0.49332 0.0
C509 C 0.29921 0.79292 0.48022 0.0
C510 C 0.28048 0.76154 0.44919 0.0
C511 C 0.34268 0.81614 0.48449 0.0
C512 C 0.36891 0.80907 0.45765 0.0
H513 H 0.28021 0.79686 0.50393 0.0
H514 H 0.35562 0.83741 0.51109 0.0
S515 S 0.33576 0.73743 0.36531 0.0
N516 N 0.29162 0.72989 0.38648 0.0
N517 N 0.37354 0.77388 0.39447 0.0
C518 C 0.35088 0.78187 0.42306 0.0
C519 C 0.30647 0.75803 0.41876 0.0
C520 C 0.22756 0.51309 0.47484 0.0
C521 C 0.26082 0.52558 0.44614 0.0
C522 C 0.20374 0.53293 0.47585 0.0
C523 C 0.21242 0.5661 0.44828 0.0
H524 H 0.22204 0.49006 0.49897 0.0
H525 H 0.18036 0.52414 0.50042 0.0
S526 S 0.29207 0.60623 0.36285 0.0
N527 N 0.29796 0.56947 0.38608 0.0
N528 N 0.25305 0.60691 0.38773 0.0
C529 C 0.24274 0.57597 0.41652 0.0
C530 C 0.26701 0.55559 0.41547 0.0
C531 C 0.11621 0.11447 0.01584 0.0
C532 C 0.12991 0.15103 0.04015 0.0
C533 C 0.1122 0.11505 0.97188 0.0
C534 C 0.1218 0.15223 0.95066 0.0
H535 H 0.11034 0.08554 0.03056 0.0
H536 H 0.10346 0.08661 0.95429 0.0
S537 S 0.15284 0.25495 0.0004 0.0
N538 N 0.14852 0.22429 0.04031 0.0
N539 N 0.14101 0.22541 0.95765 0.0
C540 C 0.13269 0.18829 0.97487 0.0
C541 C 0.13674 0.1877 0.01966 0.0
C542 C 0.854 0.97129 0.99249 0.0
C543 C 0.8463 -0.00184 0.96748 0.0
C544 C 0.85754 0.97595 0.03649 0.0
C545 C 0.85429 0.0081 0.05689 0.0
H546 H 0.85618 0.94575 0.97812 0.0
H547 H 0.8625 0.95395 0.05467 0.0
S548 S 0.8367 0.08827 0.00539 0.0
N549 N 0.83708 0.05898 0.96601 0.0
N550 N 0.84446 0.0682 0.04869 0.0
C551 C 0.84795 0.03603 0.03211 0.0
C552 C 0.84372 0.03091 0.98738 0.0
C553 C 0.98907 0.87359 0.97058 0.0
C554 C 0.01213 0.85678 0.95204 0.0
C555 C 0.98358 0.87285 0.01445 0.0
C556 C 0.00104 0.85536 0.04135 0.0
H557 H 0.97439 0.88671 0.95106 0.0
H558 H 0.96498 0.88551 0.02727 0.0
S559 S 0.06536 0.80843 0.00867 0.0
N560 N 0.05355 0.82314 0.96401 0.0
N561 N 0.04332 0.82179 0.04639 0.0
C562 C 0.02506 0.83936 0.0233 0.0
C563 C 0.03059 0.84005 0.97864 0.0
C564 C 0.8037 0.52982 0.30575 0.0
C565 C 0.78368 0.49379 0.2803 0.0
C566 C 0.80805 0.52686 0.34925 0.0
C567 C 0.79254 0.48775 0.36895 0.0
H568 H 0.81811 0.56072 0.29176 0.0
H569 H 0.82556 0.55558 0.36711 0.0
S570 S 0.73064 0.38387 0.31765 0.0
N571 N 0.74311 0.41773 0.27865 0.0
N572 N 0.75127 0.4121 0.36077 0.0
C573 C 0.7694 0.45139 0.3445 0.0
C574 C 0.76495 0.45442 0.30004 0.0
C575 C 0.50494 0.28225 0.29954 0.0
C576 C 0.53612 0.31349 0.27413 0.0
C577 C 0.50809 0.28415 0.34359 0.0
C578 C 0.5425 0.31741 0.364 0.0
H579 H 0.47683 0.25709 0.28548 0.0
H580 H 0.4822 0.26041 0.36173 0.0
S581 S 0.63598 0.4034 0.31171 0.0
N582 N 0.60509 0.37586 0.27227 0.0
N583 N 0.61098 0.37948 0.3554 0.0
C584 C 0.5756 0.34701 0.33897 0.0
C585 C 0.5724 0.34504 0.2939 0.0
C586 C 0.62424 0.14954 0.35963 0.0
C587 C 0.64878 0.18461 0.38524 0.0
C588 C 0.6299 0.15115 0.3158 0.0
C589 C 0.66025 0.18793 0.29591 0.0
H590 H 0.60114 0.12017 0.37361 0.0
H591 H 0.61079 0.12308 0.29749 0.0
S592 S 0.73206 0.28881 0.34859 0.0
N593 N 0.704 0.25759 0.38749 0.0
N594 N 0.71451 0.26068 0.30493 0.0
C595 C 0.68414 0.22369 0.32093 0.0
C596 C 0.67843 0.22203 0.36566 0.0
C597 C 0.45022 0.79619 0.65314 0.0
C598 C 0.482 0.8312 0.63212 0.0
C599 C 0.44892 0.79424 0.69737 0.0
C600 C 0.47881 0.82761 0.72191 0.0
H601 H 0.42659 0.76984 0.63535 0.0
H602 H 0.42429 0.76646 0.71243 0.0
S603 S 0.56786 0.92671 0.6821 0.0
N604 N 0.54394 0.90008 0.6391 0.0
N605 N 0.54081 0.8968 0.72218 0.0
C606 C 0.51029 0.86309 0.70129 0.0
C607 C 0.51209 0.86477 0.65635 0.0
C608 C 0.21268 0.66333 0.63659 0.0
C609 C 0.17577 0.65196 0.61382 0.0
C610 C 0.21384 0.66714 0.68081 0.0
C611 C 0.1781 0.65959 0.70381 0.0
H612 H 0.24103 0.66977 0.62014 0.0
H613 H 0.24299 0.67626 0.69702 0.0
S614 S 0.0737 0.62942 0.65911 0.0
N615 N 0.10262 0.63337 0.61767 0.0
N616 N 0.10476 0.64046 0.70041 0.0
C617 C 0.14091 0.64792 0.6814 0.0
C618 C 0.13976 0.64411 0.63651 0.0
C619 C 0.37612 0.52425 0.64194 0.0
C620 C 0.34357 0.5053 0.6122 0.0
C621 C 0.36745 0.52274 0.68532 0.0
C622 C 0.326 0.50317 0.70008 0.0
H623 H 0.40843 0.54008 0.63166 0.0
H624 H 0.39331 0.53743 0.70737 0.0
S625 S 0.22968 0.44902 0.63506 0.0
N626 N 0.26833 0.46612 0.6006 0.0
N627 N 0.25218 0.46405 0.68181 0.0
C628 C 0.29325 0.48429 0.67064 0.0
C629 C 0.30202 0.48514 0.62673 0.0
loop_
_geom_bond_atom_site_label_1
_geom_bond_atom_site_label_2
_geom_bond_distance
_geom_bond_site_symmetry_2
_ccdc_geom_bond_type
In0 O1 2.294 . S
In0 O2 2.326 . S
In0 O6 2.266 . S
In0 O7 2.326 . S
In0 O8 2.266 . S
In0 O9 2.326 . S
In0 O11 2.294 . S
In0 O12 2.326 . S
O1 In0 2.294 . S
O1 C10 1.240 . S
O2 In0 2.326 . S
O2 C10 1.252 . S
C3 O6 1.252 . S
C3 O7 1.260 . S
C4 O11 1.240 . S
C4 O12 1.252 . S
C5 O8 1.252 . S
C5 O9 1.260 . S
O6 In0 2.266 . S
O6 C3 1.252 . S
O7 In0 2.326 . S
O7 C3 1.260 . S
O8 In0 2.266 . S
O8 C5 1.252 . S
O9 In0 2.326 . S
O9 C5 1.260 . S
C10 O1 1.240 . S
C10 O2 1.252 . S
O11 In0 2.294 . S
O11 C4 1.240 . S
O12 In0 2.326 . S
O12 C4 1.252 . S
In13 O14 2.294 . S
In13 O15 2.326 . S
In13 O19 2.266 1_545 S
In13 O20 2.326 1_545 S
In13 O21 2.266 . S
In13 O22 2.326 . S
In13 O24 2.294 . S
In13 O25 2.326 1_545 S
O14 In13 2.294 . S
O14 C23 1.240 . S
O15 In13 2.326 . S
O15 C23 1.252 . S
C16 O19 1.252 . S
C16 O20 1.260 . S
C17 O24 1.240 1_565 S
C17 O25 1.252 . S
C18 O21 1.252 . S
C18 O22 1.260 . S
O19 In13 2.266 1_565 S
O19 C16 1.252 . S
O20 In13 2.326 1_565 S
O20 C16 1.260 . S
O21 In13 2.266 . S
O21 C18 1.252 . S
O22 In13 2.326 . S
O22 C18 1.260 . S
C23 O14 1.240 . S
C23 O15 1.252 . S
O24 In13 2.294 . S
O24 C17 1.240 1_545 S
O25 In13 2.326 1_565 S
O25 C17 1.252 . S
In26 O27 2.294 . S
In26 O28 2.326 1_655 S
In26 O32 2.266 . S
In26 O33 2.326 . S
In26 O34 2.266 1_655 S
In26 O35 2.326 1_655 S
In26 O37 2.294 . S
In26 O38 2.326 . S
O27 In26 2.294 . S
O27 C36 1.240 1_655 S
O28 In26 2.326 1_455 S
O28 C36 1.252 . S
C29 O32 1.252 . S
C29 O33 1.260 . S
C30 O37 1.240 . S
C30 O38 1.252 . S
C31 O34 1.252 . S
C31 O35 1.260 . S
O32 In26 2.266 . S
O32 C29 1.252 . S
O33 In26 2.326 . S
O33 C29 1.260 . S
O34 In26 2.266 1_455 S
O34 C31 1.252 . S
O35 In26 2.326 1_455 S
O35 C31 1.260 . S
C36 O27 1.240 1_455 S
C36 O28 1.252 . S
O37 In26 2.294 . S
O37 C30 1.240 . S
O38 In26 2.326 . S
O38 C30 1.252 . S
In39 O40 2.294 . S
In39 O41 2.326 . S
In39 O45 2.266 . S
In39 O46 2.326 . S
In39 O47 2.266 . S
In39 O48 2.326 . S
In39 O50 2.294 . S
In39 O51 2.326 . S
O40 In39 2.294 . S
O40 C49 1.240 . S
O41 In39 2.326 . S
O41 C49 1.252 . S
C42 O45 1.252 . S
C42 O46 1.260 . S
C43 O50 1.240 . S
C43 O51 1.252 . S
C44 O47 1.252 . S
C44 O48 1.260 . S
O45 In39 2.266 . S
O45 C42 1.252 . S
O46 In39 2.326 . S
O46 C42 1.260 . S
O47 In39 2.266 . S
O47 C44 1.252 . S
O48 In39 2.326 . S
O48 C44 1.260 . S
C49 O40 1.240 . S
C49 O41 1.252 . S
O50 In39 2.294 . S
O50 C43 1.240 . S
O51 In39 2.326 . S
O51 C43 1.252 . S
In52 O53 2.294 . S
In52 O54 2.326 1_565 S
In52 O58 2.266 . S
In52 O59 2.326 . S
In52 O60 2.266 1_565 S
In52 O61 2.326 1_565 S
In52 O63 2.294 . S
In52 O64 2.326 . S
O53 In52 2.294 . S
O53 C62 1.240 1_565 S
O54 In52 2.326 1_545 S
O54 C62 1.252 . S
C55 O58 1.252 . S
C55 O59 1.260 . S
C56 O63 1.240 . S
C56 O64 1.252 . S
C57 O60 1.252 . S
C57 O61 1.260 . S
O58 In52 2.266 . S
O58 C55 1.252 . S
O59 In52 2.326 . S
O59 C55 1.260 . S
O60 In52 2.266 1_545 S
O60 C57 1.252 . S
O61 In52 2.326 1_545 S
O61 C57 1.260 . S
C62 O53 1.240 1_545 S
C62 O54 1.252 . S
O63 In52 2.294 . S
O63 C56 1.240 . S
O64 In52 2.326 . S
O64 C56 1.252 . S
In65 O66 2.294 . S
In65 O67 2.326 1_455 S
In65 O71 2.266 . S
In65 O72 2.326 . S
In65 O73 2.266 1_455 S
In65 O74 2.326 1_455 S
In65 O76 2.294 . S
In65 O77 2.326 . S
O66 In65 2.294 . S
O66 C75 1.240 1_455 S
O67 In65 2.326 1_655 S
O67 C75 1.252 . S
C68 O71 1.252 . S
C68 O72 1.260 . S
C69 O76 1.240 . S
C69 O77 1.252 . S
C70 O73 1.252 . S
C70 O74 1.260 . S
O71 In65 2.266 . S
O71 C68 1.252 . S
O72 In65 2.326 . S
O72 C68 1.260 . S
O73 In65 2.266 1_655 S
O73 C70 1.252 . S
O74 In65 2.326 1_655 S
O74 C70 1.260 . S
C75 O66 1.240 1_655 S
C75 O67 1.252 . S
O76 In65 2.294 . S
O76 C69 1.240 . S
O77 In65 2.326 . S
O77 C69 1.252 . S
In78 O79 2.294 . S
In78 O80 2.326 . S
In78 O84 2.266 . S
In78 O85 2.326 . S
In78 O86 2.266 . S
In78 O87 2.326 . S
In78 O89 2.294 . S
In78 O90 2.326 . S
O79 In78 2.294 . S
O79 C88 1.240 . S
O80 In78 2.326 . S
O80 C88 1.252 . S
C81 O84 1.252 . S
C81 O85 1.260 . S
C82 O89 1.240 . S
C82 O90 1.252 . S
C83 O86 1.252 . S
C83 O87 1.260 . S
O84 In78 2.266 . S
O84 C81 1.252 . S
O85 In78 2.326 . S
O85 C81 1.260 . S
O86 In78 2.266 . S
O86 C83 1.252 . S
O87 In78 2.326 . S
O87 C83 1.260 . S
C88 O79 1.240 . S
C88 O80 1.252 . S
O89 In78 2.294 . S
O89 C82 1.240 . S
O90 In78 2.326 . S
O90 C82 1.252 . S
In91 O92 2.294 . S
In91 O93 2.326 . S
In91 O97 2.266 . S
In91 O98 2.326 . S
In91 O99 2.266 . S
In91 O100 2.326 . S
In91 O102 2.294 . S
In91 O103 2.326 . S
O92 In91 2.294 . S
O92 C101 1.240 . S
O93 In91 2.326 . S
O93 C101 1.252 . S
C94 O97 1.252 . S
C94 O98 1.260 . S
C95 O102 1.240 . S
C95 O103 1.252 . S
C96 O99 1.252 . S
C96 O100 1.260 . S
O97 In91 2.266 . S
O97 C94 1.252 . S
O98 In91 2.326 . S
O98 C94 1.260 . S
O99 In91 2.266 . S
O99 C96 1.252 . S
O100 In91 2.326 . S
O100 C96 1.260 . S
C101 O92 1.240 . S
C101 O93 1.252 . S
O102 In91 2.294 . S
O102 C95 1.240 . S
O103 In91 2.326 . S
O103 C95 1.252 . S
In104 O105 2.294 . S
In104 O106 2.326 . S
In104 O110 2.266 . S
In104 O111 2.326 . S
In104 O112 2.266 . S
In104 O113 2.326 . S
In104 O115 2.294 . S
In104 O116 2.326 . S
O105 In104 2.294 . S
O105 C114 1.240 . S
O106 In104 2.326 . S
O106 C114 1.252 . S
C107 O110 1.252 . S
C107 O111 1.260 . S
C108 O115 1.240 . S
C108 O116 1.252 . S
C109 O112 1.252 . S
C109 O113 1.260 . S
O110 In104 2.266 . S
O110 C107 1.252 . S
O111 In104 2.326 . S
O111 C107 1.260 . S
O112 In104 2.266 . S
O112 C109 1.252 . S
O113 In104 2.326 . S
O113 C109 1.260 . S
C114 O105 1.240 . S
C114 O106 1.252 . S
O115 In104 2.294 . S
O115 C108 1.240 . S
O116 In104 2.326 . S
O116 C108 1.252 . S
In117 O118 2.294 . S
In117 O119 2.326 . S
In117 O123 2.266 . S
In117 O124 2.326 . S
In117 O125 2.266 . S
In117 O126 2.326 . S
In117 O128 2.294 . S
In117 O129 2.326 . S
O118 In117 2.294 . S
O118 C127 1.240 . S
O119 In117 2.326 . S
O119 C127 1.252 . S
C120 O123 1.252 . S
C120 O124 1.260 . S
C121 O128 1.240 . S
C121 O129 1.252 . S
C122 O125 1.252 . S
C122 O126 1.260 . S
O123 In117 2.266 . S
O123 C120 1.252 . S
O124 In117 2.326 . S
O124 C120 1.260 . S
O125 In117 2.266 . S
O125 C122 1.252 . S
O126 In117 2.326 . S
O126 C122 1.260 . S
C127 O118 1.240 . S
C127 O119 1.252 . S
O128 In117 2.294 . S
O128 C121 1.240 . S
O129 In117 2.326 . S
O129 C121 1.252 . S
In130 O131 2.294 . S
In130 O132 2.326 . S
In130 O136 2.266 . S
In130 O137 2.326 . S
In130 O138 2.266 . S
In130 O139 2.326 . S
In130 O141 2.294 . S
In130 O142 2.326 . S
O131 In130 2.294 . S
O131 C140 1.240 . S
O132 In130 2.326 . S
O132 C140 1.252 . S
C133 O136 1.252 . S
C133 O137 1.260 . S
C134 O141 1.240 . S
C134 O142 1.252 . S
C135 O138 1.252 . S
C135 O139 1.260 . S
O136 In130 2.266 . S
O136 C133 1.252 . S
O137 In130 2.326 . S
O137 C133 1.260 . S
O138 In130 2.266 . S
O138 C135 1.252 . S
O139 In130 2.326 . S
O139 C135 1.260 . S
C140 O131 1.240 . S
C140 O132 1.252 . S
O141 In130 2.294 . S
O141 C134 1.240 . S
O142 In130 2.326 . S
O142 C134 1.252 . S
In143 O144 2.294 . S
In143 O145 2.326 . S
In143 O149 2.266 . S
In143 O150 2.326 . S
In143 O151 2.266 . S
In143 O152 2.326 . S
In143 O154 2.294 . S
In143 O155 2.326 . S
O144 In143 2.294 . S
O144 C153 1.240 . S
O145 In143 2.326 . S
O145 C153 1.252 . S
C146 O149 1.252 . S
C146 O150 1.260 . S
C147 O154 1.240 . S
C147 O155 1.252 . S
C148 O151 1.252 . S
C148 O152 1.260 . S
O149 In143 2.266 . S
O149 C146 1.252 . S
O150 In143 2.326 . S
O150 C146 1.260 . S
O151 In143 2.266 . S
O151 C148 1.252 . S
O152 In143 2.326 . S
O152 C148 1.260 . S
C153 O144 1.240 . S
C153 O145 1.252 . S
O154 In143 2.294 . S
O154 C147 1.240 . S
O155 In143 2.326 . S
O155 C147 1.252 . S
In156 O157 2.294 . S
In156 O158 2.326 . S
In156 O162 2.266 . S
In156 O163 2.326 . S
In156 O164 2.266 . S
In156 O165 2.326 . S
In156 O167 2.294 . S
In156 O168 2.326 . S
O157 In156 2.294 . S
O157 C166 1.240 . S
O158 In156 2.326 . S
O158 C166 1.252 . S
C159 O162 1.252 . S
C159 O163 1.260 . S
C160 O167 1.240 . S
C160 O168 1.252 . S
C161 O164 1.252 . S
C161 O165 1.260 . S
O162 In156 2.266 . S
O162 C159 1.252 . S
O163 In156 2.326 . S
O163 C159 1.260 . S
O164 In156 2.266 . S
O164 C161 1.252 . S
O165 In156 2.326 . S
O165 C161 1.260 . S
C166 O157 1.240 . S
C166 O158 1.252 . S
O167 In156 2.294 . S
O167 C160 1.240 . S
O168 In156 2.326 . S
O168 C160 1.252 . S
In169 O170 2.294 . S
In169 O171 2.326 . S
In169 O175 2.266 . S
In169 O176 2.326 . S
In169 O177 2.266 . S
In169 O178 2.326 . S
In169 O180 2.294 . S
In169 O181 2.326 . S
O170 In169 2.294 . S
O170 C179 1.240 . S
O171 In169 2.326 . S
O171 C179 1.252 . S
C172 O175 1.252 . S
C172 O176 1.260 . S
C173 O180 1.240 . S
C173 O181 1.252 . S
C174 O177 1.252 . S
C174 O178 1.260 . S
O175 In169 2.266 . S
O175 C172 1.252 . S
O176 In169 2.326 . S
O176 C172 1.260 . S
O177 In169 2.266 . S
O177 C174 1.252 . S
O178 In169 2.326 . S
O178 C174 1.260 . S
C179 O170 1.240 . S
C179 O171 1.252 . S
O180 In169 2.294 . S
O180 C173 1.240 . S
O181 In169 2.326 . S
O181 C173 1.252 . S
In182 O183 2.294 . S
In182 O184 2.326 . S
In182 O188 2.266 . S
In182 O189 2.326 . S
In182 O190 2.266 . S
In182 O191 2.326 . S
In182 O193 2.294 . S
In182 O194 2.326 . S
O183 In182 2.294 . S
O183 C192 1.240 . S
O184 In182 2.326 . S
O184 C192 1.252 . S
C185 O188 1.252 . S
C185 O189 1.260 . S
C186 O193 1.240 . S
C186 O194 1.252 . S
C187 O190 1.252 . S
C187 O191 1.260 . S
O188 In182 2.266 . S
O188 C185 1.252 . S
O189 In182 2.326 . S
O189 C185 1.260 . S
O190 In182 2.266 . S
O190 C187 1.252 . S
O191 In182 2.326 . S
O191 C187 1.260 . S
C192 O183 1.240 . S
C192 O184 1.252 . S
O193 In182 2.294 . S
O193 C186 1.240 . S
O194 In182 2.326 . S
O194 C186 1.252 . S
In195 O196 2.294 . S
In195 O197 2.326 . S
In195 O201 2.266 . S
In195 O202 2.326 . S
In195 O203 2.266 . S
In195 O204 2.326 . S
In195 O206 2.294 . S
In195 O207 2.326 . S
O196 In195 2.294 . S
O196 C205 1.240 . S
O197 In195 2.326 . S
O197 C205 1.252 . S
C198 O201 1.252 . S
C198 O202 1.260 . S
C199 O206 1.240 . S
C199 O207 1.252 . S
C200 O203 1.252 . S
C200 O204 1.260 . S
O201 In195 2.266 . S
O201 C198 1.252 . S
O202 In195 2.326 . S
O202 C198 1.260 . S
O203 In195 2.266 . S
O203 C200 1.252 . S
O204 In195 2.326 . S
O204 C200 1.260 . S
C205 O196 1.240 . S
C205 O197 1.252 . S
O206 In195 2.294 . S
O206 C199 1.240 . S
O207 In195 2.326 . S
O207 C199 1.252 . S
In208 O209 2.294 . S
In208 O210 2.326 . S
In208 O214 2.266 . S
In208 O215 2.326 . S
In208 O216 2.266 . S
In208 O217 2.326 . S
In208 O219 2.294 . S
In208 O220 2.326 . S
O209 In208 2.294 . S
O209 C218 1.240 . S
O210 In208 2.326 . S
O210 C218 1.252 . S
C211 O214 1.252 . S
C211 O215 1.260 . S
C212 O219 1.240 . S
C212 O220 1.252 . S
C213 O216 1.252 . S
C213 O217 1.260 . S
O214 In208 2.266 . S
O214 C211 1.252 . S
O215 In208 2.326 . S
O215 C211 1.260 . S
O216 In208 2.266 . S
O216 C213 1.252 . S
O217 In208 2.326 . S
O217 C213 1.260 . S
C218 O209 1.240 . S
C218 O210 1.252 . S
O219 In208 2.294 . S
O219 C212 1.240 . S
O220 In208 2.326 . S
O220 C212 1.252 . S
In221 O222 2.294 . S
In221 O223 2.326 . S
In221 O227 2.266 . S
In221 O228 2.326 . S
In221 O229 2.266 . S
In221 O230 2.326 . S
In221 O232 2.294 . S
In221 O233 2.326 . S
O222 In221 2.294 . S
O222 C231 1.240 . S
O223 In221 2.326 . S
O223 C231 1.252 . S
C224 O227 1.252 . S
C224 O228 1.260 . S
C225 O232 1.240 . S
C225 O233 1.252 . S
C226 O229 1.252 . S
C226 O230 1.260 . S
O227 In221 2.266 . S
O227 C224 1.252 . S
O228 In221 2.326 . S
O228 C224 1.260 . S
O229 In221 2.266 . S
O229 C226 1.252 . S
O230 In221 2.326 . S
O230 C226 1.260 . S
C231 O222 1.240 . S
C231 O223 1.252 . S
O232 In221 2.294 . S
O232 C225 1.240 . S
O233 In221 2.326 . S
O233 C225 1.252 . S
C234 C235 1.369 . S
C234 C236 1.419 . S
C234 H238 0.930 . S
C235 C234 1.369 . S
C235 C244 1.429 . S
C236 C234 1.419 . S
C236 C237 1.363 . S
C236 H239 0.929 . S
C237 C236 1.363 . S
C237 C243 1.428 . S
H238 C234 0.930 . S
H239 C236 0.929 . S
S240 N241 1.613 . S
S240 N242 1.610 . S
N241 S240 1.613 . S
N241 C244 1.350 . S
N242 S240 1.610 . S
N242 C243 1.351 . S
C243 C237 1.428 . S
C243 N242 1.351 . S
C243 C244 1.434 . S
C244 C235 1.429 . S
C244 N241 1.350 . S
C244 C243 1.434 . S
C245 C246 1.369 . S
C245 C247 1.419 . S
C245 H249 0.930 . S
C246 C245 1.369 . S
C246 C255 1.429 . S
C247 C245 1.419 . S
C247 C248 1.363 . S
C247 H250 0.929 . S
C248 C247 1.363 . S
C248 C254 1.428 . S
H249 C245 0.930 . S
H250 C247 0.929 . S
S251 N252 1.613 . S
S251 N253 1.610 . S
N252 S251 1.613 . S
N252 C255 1.350 . S
N253 S251 1.610 . S
N253 C254 1.351 . S
C254 C248 1.428 . S
C254 N253 1.351 . S
C254 C255 1.434 . S
C255 C246 1.429 . S
C255 N252 1.350 . S
C255 C254 1.434 . S
C256 C257 1.369 . S
C256 C258 1.419 . S
C256 H260 0.930 . S
C257 C256 1.369 . S
C257 C266 1.429 . S
C258 C256 1.419 . S
C258 C259 1.363 . S
C258 H261 0.929 . S
C259 C258 1.363 . S
C259 C265 1.428 . S
H260 C256 0.930 . S
H261 C258 0.929 . S
S262 N263 1.613 1_455 S
S262 N264 1.610 . S
N263 S262 1.613 1_655 S
N263 C266 1.350 . S
N264 S262 1.610 . S
N264 C265 1.351 1_455 S
C265 C259 1.428 . S
C265 N264 1.351 1_655 S
C265 C266 1.434 . S
C266 C257 1.429 . S
C266 N263 1.350 . S
C266 C265 1.434 . S
C267 C268 1.369 . S
C267 C269 1.419 . S
C267 H271 0.930 . S
C268 C267 1.369 . S
C268 C277 1.429 . S
C269 C267 1.419 . S
C269 C270 1.363 . S
C269 H272 0.929 . S
C270 C269 1.363 . S
C270 C276 1.428 . S
H271 C267 0.930 . S
H272 C269 0.929 . S
S273 N274 1.613 . S
S273 N275 1.610 . S
N274 S273 1.613 . S
N274 C277 1.350 . S
N275 S273 1.610 . S
N275 C276 1.351 . S
C276 C270 1.428 . S
C276 N275 1.351 . S
C276 C277 1.434 . S
C277 C268 1.429 . S
C277 N274 1.350 . S
C277 C276 1.434 . S
C278 C279 1.369 . S
C278 C280 1.419 . S
C278 H282 0.930 . S
C279 C278 1.369 . S
C279 C288 1.429 . S
C280 C278 1.419 . S
C280 C281 1.363 . S
C280 H283 0.929 . S
C281 C280 1.363 . S
C281 C287 1.428 . S
H282 C278 0.930 . S
H283 C280 0.929 . S
S284 N285 1.613 1_545 S
S284 N286 1.610 1_545 S
N285 S284 1.613 1_565 S
N285 C288 1.350 . S
N286 S284 1.610 1_565 S
N286 C287 1.351 . S
C287 C281 1.428 . S
C287 N286 1.351 . S
C287 C288 1.434 . S
C288 C279 1.429 . S
C288 N285 1.350 . S
C288 C287 1.434 . S
C289 C290 1.369 . S
C289 C291 1.419 . S
C289 H293 0.930 . S
C290 C289 1.369 . S
C290 C299 1.429 . S
C291 C289 1.419 . S
C291 C292 1.363 . S
C291 H294 0.929 . S
C292 C291 1.363 . S
C292 C298 1.428 . S
H293 C289 0.930 . S
H294 C291 0.929 . S
S295 N296 1.613 1_655 S
S295 N297 1.609 . S
N296 S295 1.613 1_455 S
N296 C299 1.350 . S
N297 S295 1.609 . S
N297 C298 1.344 1_655 S
C298 C292 1.428 . S
C298 N297 1.344 1_455 S
C298 C299 1.434 . S
C299 C290 1.429 . S
C299 N296 1.350 . S
C299 C298 1.434 . S
C300 C301 1.369 . S
C300 C302 1.419 1_655 S
C300 H304 0.930 . S
C301 C300 1.369 . S
C301 C310 1.429 . S
C302 C300 1.419 1_455 S
C302 C303 1.363 . S
C302 H305 0.929 . S
C303 C302 1.363 . S
C303 C309 1.428 . S
H304 C300 0.930 . S
H305 C302 0.929 . S
S306 N307 1.613 1_455 S
S306 N308 1.610 . S
N307 S306 1.613 1_655 S
N307 C310 1.350 . S
N308 S306 1.610 . S
N308 C309 1.351 . S
C309 C303 1.428 . S
C309 N308 1.351 . S
C309 C310 1.434 1_455 S
C310 C301 1.429 . S
C310 N307 1.350 . S
C310 C309 1.434 1_655 S
C311 C312 1.369 . S
C311 C313 1.419 . S
C311 H315 0.930 . S
C312 C311 1.369 . S
C312 C321 1.429 . S
C313 C311 1.419 . S
C313 C314 1.363 . S
C313 H316 0.929 . S
C314 C313 1.363 . S
C314 C320 1.428 . S
H315 C311 0.930 . S
H316 C313 0.929 . S
S317 N318 1.613 . S
S317 N319 1.610 . S
N318 S317 1.613 . S
N318 C321 1.350 . S
N319 S317 1.610 . S
N319 C320 1.351 . S
C320 C314 1.428 . S
C320 N319 1.351 . S
C320 C321 1.434 . S
C321 C312 1.429 . S
C321 N318 1.350 . S
C321 C320 1.434 . S
C322 C323 1.369 . S
C322 C324 1.419 1_545 S
C322 H326 0.930 . S
C323 C322 1.369 . S
C323 C332 1.429 . S
C324 C322 1.419 1_565 S
C324 C325 1.363 . S
C324 H327 0.929 . S
C325 C324 1.363 . S
C325 C331 1.428 . S
H326 C322 0.930 . S
H327 C324 0.929 . S
S328 N329 1.613 1_565 S
S328 N330 1.610 . S
N329 S328 1.613 1_545 S
N329 C332 1.350 . S
N330 S328 1.610 . S
N330 C331 1.351 . S
C331 C325 1.428 . S
C331 N330 1.351 . S
C331 C332 1.434 1_565 S
C332 C323 1.429 . S
C332 N329 1.350 . S
C332 C331 1.434 1_545 S
C333 C334 1.369 . S
C333 C335 1.419 1_455 S
C333 H337 0.930 . S
C334 C333 1.369 . S
C334 C343 1.429 . S
C335 C333 1.419 1_655 S
C335 C336 1.363 . S
C335 H338 0.929 . S
C336 C335 1.363 . S
C336 C342 1.428 . S
H337 C333 0.930 . S
H338 C335 0.929 . S
S339 N340 1.613 . S
S339 N341 1.610 1_455 S
N340 S339 1.613 . S
N340 C343 1.350 . S
N341 S339 1.610 1_655 S
N341 C342 1.351 . S
C342 C336 1.428 . S
C342 N341 1.351 . S
C342 C343 1.434 1_655 S
C343 C334 1.429 . S
C343 N340 1.350 . S
C343 C342 1.434 1_455 S
C344 C345 1.369 . S
C344 C346 1.419 . S
C344 H348 0.930 . S
C345 C344 1.369 . S
C345 C354 1.429 . S
C346 C344 1.419 . S
C346 C347 1.363 . S
C346 H349 0.929 . S
C347 C346 1.363 . S
C347 C353 1.428 . S
H348 C344 0.930 . S
H349 C346 0.929 . S
S350 N351 1.613 . S
S350 N352 1.610 . S
N351 S350 1.613 . S
N351 C354 1.350 . S
N352 S350 1.610 . S
N352 C353 1.351 . S
C353 C347 1.428 . S
C353 N352 1.351 . S
C353 C354 1.434 . S
C354 C345 1.429 . S
C354 N351 1.350 . S
C354 C353 1.434 . S
C355 C356 1.369 . S
C355 C357 1.419 1_545 S
C355 H359 0.930 . S
C356 C355 1.369 . S
C356 C365 1.429 . S
C357 C355 1.419 1_565 S
C357 C358 1.363 . S
C357 H360 0.929 . S
C358 C357 1.363 . S
C358 C364 1.428 . S
H359 C355 0.930 . S
H360 C357 0.929 . S
S361 N362 1.613 1_565 S
S361 N363 1.610 . S
N362 S361 1.613 1_545 S
N362 C365 1.350 . S
N363 S361 1.610 . S
N363 C364 1.351 . S
C364 C358 1.428 . S
C364 N363 1.351 . S
C364 C365 1.434 1_565 S
C365 C356 1.429 . S
C365 N362 1.350 . S
C365 C364 1.434 1_545 S
C366 C367 1.369 . S
C366 C368 1.419 1_565 S
C366 H370 0.930 . S
C367 C366 1.369 . S
C367 C376 1.429 . S
C368 C366 1.419 1_545 S
C368 C369 1.363 . S
C368 H371 0.929 . S
C369 C368 1.363 . S
C369 C375 1.428 . S
H370 C366 0.930 . S
H371 C368 0.929 . S
S372 N373 1.613 . S
S372 N374 1.610 1_565 S
N373 S372 1.613 . S
N373 C376 1.350 . S
N374 S372 1.610 1_545 S
N374 C375 1.351 . S
C375 C369 1.428 . S
C375 N374 1.351 . S
C375 C376 1.434 1_545 S
C376 C367 1.429 . S
C376 N373 1.350 . S
C376 C375 1.434 1_565 S
C377 C378 1.369 . S
C377 C379 1.419 1_455 S
C377 H381 0.930 . S
C378 C377 1.369 . S
C378 C387 1.429 . S
C379 C377 1.419 1_655 S
C379 C380 1.363 . S
C379 H382 0.929 . S
C380 C379 1.363 . S
C380 C386 1.428 . S
H381 C377 0.930 . S
H382 C379 0.929 . S
S383 N384 1.613 . S
S383 N385 1.610 1_455 S
N384 S383 1.613 . S
N384 C387 1.350 . S
N385 S383 1.610 1_655 S
N385 C386 1.351 . S
C386 C380 1.428 . S
C386 N385 1.351 . S
C386 C387 1.434 1_655 S
C387 C378 1.429 . S
C387 N384 1.350 . S
C387 C386 1.434 1_455 S
C388 C389 1.369 . S
C388 C390 1.419 . S
C388 H392 0.930 . S
C389 C388 1.369 . S
C389 C398 1.429 . S
C390 C388 1.419 . S
C390 C391 1.363 . S
C390 H393 0.929 . S
C391 C390 1.363 . S
C391 C397 1.428 . S
H392 C388 0.930 . S
H393 C390 0.929 . S
S394 N395 1.613 . S
S394 N396 1.610 . S
N395 S394 1.613 . S
N395 C398 1.350 . S
N396 S394 1.610 . S
N396 C397 1.351 . S
C397 C391 1.428 . S
C397 N396 1.351 . S
C397 C398 1.434 . S
C398 C389 1.429 . S
C398 N395 1.350 . S
C398 C397 1.434 . S
C399 C400 1.369 . S
C399 C401 1.419 . S
C399 H403 0.930 . S
C400 C399 1.369 . S
C400 C409 1.429 . S
C401 C399 1.419 . S
C401 C402 1.363 . S
C401 H404 0.929 . S
C402 C401 1.363 . S
C402 C408 1.428 . S
H403 C399 0.930 . S
H404 C401 0.929 . S
S405 N406 1.613 . S
S405 N407 1.610 . S
N406 S405 1.613 . S
N406 C409 1.350 . S
N407 S405 1.610 . S
N407 C408 1.351 . S
C408 C402 1.428 . S
C408 N407 1.351 . S
C408 C409 1.434 . S
C409 C400 1.429 . S
C409 N406 1.350 . S
C409 C408 1.434 . S
C410 C411 1.369 . S
C410 C412 1.419 . S
C410 H414 0.930 . S
C411 C410 1.369 . S
C411 C420 1.429 . S
C412 C410 1.419 . S
C412 C413 1.363 . S
C412 H415 0.929 . S
C413 C412 1.363 . S
C413 C419 1.428 . S
H414 C410 0.930 . S
H415 C412 0.929 . S
S416 N417 1.613 . S
S416 N418 1.610 . S
N417 S416 1.613 . S
N417 C420 1.350 . S
N418 S416 1.610 . S
N418 C419 1.351 . S
C419 C413 1.428 . S
C419 N418 1.351 . S
C419 C420 1.434 . S
C420 C411 1.429 . S
C420 N417 1.350 . S
C420 C419 1.434 . S
C421 C422 1.369 . S
C421 C423 1.419 . S
C421 H425 0.930 . S
C422 C421 1.369 . S
C422 C431 1.429 . S
C423 C421 1.419 . S
C423 C424 1.363 . S
C423 H426 0.929 . S
C424 C423 1.363 . S
C424 C430 1.428 . S
H425 C421 0.930 . S
H426 C423 0.929 . S
S427 N428 1.613 . S
S427 N429 1.610 . S
N428 S427 1.613 . S
N428 C431 1.350 . S
N429 S427 1.610 . S
N429 C430 1.351 . S
C430 C424 1.428 . S
C430 N429 1.351 . S
C430 C431 1.434 . S
C431 C422 1.429 . S
C431 N428 1.350 . S
C431 C430 1.434 . S
C432 C433 1.369 . S
C432 C434 1.419 . S
C432 H436 0.930 . S
C433 C432 1.369 . S
C433 C442 1.429 . S
C434 C432 1.419 . S
C434 C435 1.363 . S
C434 H437 0.929 . S
C435 C434 1.363 . S
C435 C441 1.428 . S
H436 C432 0.930 . S
H437 C434 0.929 . S
S438 N439 1.613 . S
S438 N440 1.610 . S
N439 S438 1.613 . S
N439 C442 1.350 . S
N440 S438 1.610 . S
N440 C441 1.351 . S
C441 C435 1.428 . S
C441 N440 1.351 . S
C441 C442 1.434 . S
C442 C433 1.429 . S
C442 N439 1.350 . S
C442 C441 1.434 . S
C443 C444 1.369 . S
C443 C445 1.419 . S
C443 H447 0.930 . S
C444 C443 1.369 . S
C444 C453 1.429 . S
C445 C443 1.419 . S
C445 C446 1.363 . S
C445 H448 0.929 . S
C446 C445 1.363 . S
C446 C452 1.428 . S
H447 C443 0.930 . S
H448 C445 0.929 . S
S449 N450 1.613 . S
S449 N451 1.610 . S
N450 S449 1.613 . S
N450 C453 1.350 . S
N451 S449 1.610 . S
N451 C452 1.351 . S
C452 C446 1.428 . S
C452 N451 1.351 . S
C452 C453 1.434 . S
C453 C444 1.429 . S
C453 N450 1.350 . S
C453 C452 1.434 . S
C454 C455 1.369 . S
C454 C456 1.419 . S
C454 H458 0.930 . S
C455 C454 1.369 . S
C455 C464 1.429 . S
C456 C454 1.419 . S
C456 C457 1.363 . S
C456 H459 0.929 . S
C457 C456 1.363 . S
C457 C463 1.428 . S
H458 C454 0.930 . S
H459 C456 0.929 . S
S460 N461 1.613 . S
S460 N462 1.610 . S
N461 S460 1.613 . S
N461 C464 1.350 . S
N462 S460 1.610 . S
N462 C463 1.351 . S
C463 C457 1.428 . S
C463 N462 1.351 . S
C463 C464 1.434 . S
C464 C455 1.429 . S
C464 N461 1.350 . S
C464 C463 1.434 . S
C465 C466 1.369 . S
C465 C467 1.419 . S
C465 H469 0.930 . S
C466 C465 1.369 . S
C466 C475 1.429 . S
C467 C465 1.419 . S
C467 C468 1.363 . S
C467 H470 0.929 . S
C468 C467 1.363 . S
C468 C474 1.428 . S
H469 C465 0.930 . S
H470 C467 0.929 . S
S471 N472 1.613 . S
S471 N473 1.610 . S
N472 S471 1.613 . S
N472 C475 1.350 . S
N473 S471 1.610 . S
N473 C474 1.351 . S
C474 C468 1.428 . S
C474 N473 1.351 . S
C474 C475 1.434 . S
C475 C466 1.429 . S
C475 N472 1.350 . S
C475 C474 1.434 . S
C476 C477 1.369 . S
C476 C478 1.419 . S
C476 H480 0.930 . S
C477 C476 1.369 . S
C477 C486 1.429 . S
C478 C476 1.419 . S
C478 C479 1.363 . S
C478 H481 0.929 . S
C479 C478 1.363 . S
C479 C485 1.428 . S
H480 C476 0.930 . S
H481 C478 0.929 . S
S482 N483 1.613 . S
S482 N484 1.610 . S
N483 S482 1.613 . S
N483 C486 1.350 . S
N484 S482 1.610 . S
N484 C485 1.351 . S
C485 C479 1.428 . S
C485 N484 1.351 . S
C485 C486 1.434 . S
C486 C477 1.429 . S
C486 N483 1.350 . S
C486 C485 1.434 . S
C487 C488 1.369 . S
C487 C489 1.419 . S
C487 H491 0.930 . S
C488 C487 1.369 . S
C488 C497 1.429 . S
C489 C487 1.419 . S
C489 C490 1.363 . S
C489 H492 0.929 . S
C490 C489 1.363 . S
C490 C496 1.428 . S
H491 C487 0.930 . S
H492 C489 0.929 . S
S493 N494 1.613 . S
S493 N495 1.610 . S
N494 S493 1.613 . S
N494 C497 1.350 . S
N495 S493 1.610 . S
N495 C496 1.351 . S
C496 C490 1.428 . S
C496 N495 1.351 . S
C496 C497 1.434 . S
C497 C488 1.429 . S
C497 N494 1.350 . S
C497 C496 1.434 . S
C498 C499 1.369 . S
C498 C500 1.419 . S
C498 H502 0.930 . S
C499 C498 1.369 . S
C499 C508 1.429 . S
C500 C498 1.419 . S
C500 C501 1.363 . S
C500 H503 0.929 . S
C501 C500 1.363 . S
C501 C507 1.428 . S
H502 C498 0.930 . S
H503 C500 0.929 . S
S504 N505 1.613 . S
S504 N506 1.610 . S
N505 S504 1.613 . S
N505 C508 1.350 . S
N506 S504 1.610 . S
N506 C507 1.351 . S
C507 C501 1.428 . S
C507 N506 1.351 . S
C507 C508 1.434 . S
C508 C499 1.429 . S
C508 N505 1.350 . S
C508 C507 1.434 . S
C509 C510 1.369 . S
C509 C511 1.419 . S
C509 H513 0.930 . S
C510 C509 1.369 . S
C510 C519 1.429 . S
C511 C509 1.419 . S
C511 C512 1.363 . S
C511 H514 0.929 . S
C512 C511 1.363 . S
C512 C518 1.428 . S
H513 C509 0.930 . S
H514 C511 0.929 . S
S515 N516 1.613 . S
S515 N517 1.610 . S
N516 S515 1.613 . S
N516 C519 1.350 . S
N517 S515 1.610 . S
N517 C518 1.351 . S
C518 C512 1.428 . S
C518 N517 1.351 . S
C518 C519 1.434 . S
C519 C510 1.429 . S
C519 N516 1.350 . S
C519 C518 1.434 . S
C520 C521 1.369 . S
C520 C522 1.419 . S
C520 H524 0.930 . S
C521 C520 1.369 . S
C521 C530 1.429 . S
C522 C520 1.419 . S
C522 C523 1.363 . S
C522 H525 0.929 . S
C523 C522 1.363 . S
C523 C529 1.428 . S
H524 C520 0.930 . S
H525 C522 0.929 . S
S526 N527 1.613 . S
S526 N528 1.610 . S
N527 S526 1.613 . S
N527 C530 1.350 . S
N528 S526 1.610 . S
N528 C529 1.351 . S
C529 C523 1.428 . S
C529 N528 1.351 . S
C529 C530 1.434 . S
C530 C521 1.429 . S
C530 N527 1.350 . S
C530 C529 1.434 . S
C531 C532 1.369 . S
C531 C533 1.419 1_554 S
C531 H535 0.930 . S
C532 C531 1.369 . S
C532 C541 1.429 . S
C533 C531 1.419 1_556 S
C533 C534 1.363 . S
C533 H536 0.929 . S
C534 C533 1.363 . S
C534 C540 1.428 . S
H535 C531 0.930 . S
H536 C533 0.929 . S
S537 N538 1.613 1_556 S
S537 N539 1.610 . S
N538 S537 1.613 1_554 S
N538 C541 1.350 . S
N539 S537 1.610 . S
N539 C540 1.351 . S
C540 C534 1.428 . S
C540 N539 1.351 . S
C540 C541 1.434 1_556 S
C541 C532 1.429 . S
C541 N538 1.350 . S
C541 C540 1.434 1_554 S
C542 C543 1.369 1_565 S
C542 C544 1.419 1_556 S
C542 H546 0.930 . S
C543 C542 1.369 1_545 S
C543 C552 1.429 . S
C544 C542 1.419 1_554 S
C544 C545 1.363 . S
C544 H547 0.929 . S
C545 C544 1.363 . S
C545 C551 1.428 1_565 S
H546 C542 0.930 . S
H547 C544 0.929 . S
S548 N549 1.613 1_554 S
S548 N550 1.610 . S
N549 S548 1.613 1_556 S
N549 C552 1.350 . S
N550 S548 1.610 . S
N550 C551 1.351 . S
C551 C545 1.428 1_545 S
C551 N550 1.351 . S
C551 C552 1.434 1_554 S
C552 C543 1.429 . S
C552 N549 1.350 . S
C552 C551 1.434 1_556 S
C553 C554 1.369 . S
C553 C555 1.419 1_556 S
C553 H557 0.930 . S
C554 C553 1.369 . S
C554 C563 1.429 1_655 S
C555 C553 1.419 1_554 S
C555 C556 1.363 1_655 S
C555 H558 0.929 . S
C556 C555 1.363 1_455 S
C556 C562 1.428 . S
H557 C553 0.930 . S
H558 C555 0.929 . S
S559 N560 1.613 . S
S559 N561 1.610 1_556 S
N560 S559 1.613 . S
N560 C563 1.350 . S
N561 S559 1.610 1_554 S
N561 C562 1.351 . S
C562 C556 1.428 . S
C562 N561 1.351 . S
C562 C563 1.434 1_554 S
C563 C554 1.429 1_455 S
C563 N560 1.350 . S
C563 C562 1.434 1_556 S
C564 C565 1.369 . S
C564 C566 1.419 . S
C564 H568 0.930 . S
C565 C564 1.369 . S
C565 C574 1.429 . S
C566 C564 1.419 . S
C566 C567 1.363 . S
C566 H569 0.929 . S
C567 C566 1.363 . S
C567 C573 1.428 . S
H568 C564 0.930 . S
H569 C566 0.929 . S
S570 N571 1.613 . S
S570 N572 1.610 . S
N571 S570 1.613 . S
N571 C574 1.350 . S
N572 S570 1.610 . S
N572 C573 1.351 . S
C573 C567 1.428 . S
C573 N572 1.351 . S
C573 C574 1.434 . S
C574 C565 1.429 . S
C574 N571 1.350 . S
C574 C573 1.434 . S
C575 C576 1.369 . S
C575 C577 1.419 . S
C575 H579 0.930 . S
C576 C575 1.369 . S
C576 C585 1.429 . S
C577 C575 1.419 . S
C577 C578 1.363 . S
C577 H580 0.929 . S
C578 C577 1.363 . S
C578 C584 1.428 . S
H579 C575 0.930 . S
H580 C577 0.929 . S
S581 N582 1.613 . S
S581 N583 1.610 . S
N582 S581 1.613 . S
N582 C585 1.350 . S
N583 S581 1.610 . S
N583 C584 1.351 . S
C584 C578 1.428 . S
C584 N583 1.351 . S
C584 C585 1.434 . S
C585 C576 1.429 . S
C585 N582 1.350 . S
C585 C584 1.434 . S
C586 C587 1.369 . S
C586 C588 1.419 . S
C586 H590 0.930 . S
C587 C586 1.369 . S
C587 C596 1.429 . S
C588 C586 1.419 . S
C588 C589 1.363 . S
C588 H591 0.929 . S
C589 C588 1.363 . S
C589 C595 1.428 . S
H590 C586 0.930 . S
H591 C588 0.929 . S
S592 N593 1.613 . S
S592 N594 1.610 . S
N593 S592 1.613 . S
N593 C596 1.350 . S
N594 S592 1.610 . S
N594 C595 1.351 . S
C595 C589 1.428 . S
C595 N594 1.351 . S
C595 C596 1.434 . S
C596 C587 1.429 . S
C596 N593 1.350 . S
C596 C595 1.434 . S
C597 C598 1.369 . S
C597 C599 1.419 . S
C597 H601 0.930 . S
C598 C597 1.369 . S
C598 C607 1.429 . S
C599 C597 1.419 . S
C599 C600 1.363 . S
C599 H602 0.929 . S
C600 C599 1.363 . S
C600 C606 1.428 . S
H601 C597 0.930 . S
H602 C599 0.929 . S
S603 N604 1.613 . S
S603 N605 1.610 . S
N604 S603 1.613 . S
N604 C607 1.350 . S
N605 S603 1.610 . S
N605 C606 1.351 . S
C606 C600 1.428 . S
C606 N605 1.351 . S
C606 C607 1.434 . S
C607 C598 1.429 . S
C607 N604 1.350 . S
C607 C606 1.434 . S
C608 C609 1.369 . S
C608 C610 1.419 . S
C608 H612 0.930 . S
C609 C608 1.369 . S
C609 C618 1.429 . S
C610 C608 1.419 . S
C610 C611 1.363 . S
C610 H613 0.929 . S
C611 C610 1.363 . S
C611 C617 1.428 . S
H612 C608 0.930 . S
H613 C610 0.929 . S
S614 N615 1.613 . S
S614 N616 1.610 . S
N615 S614 1.613 . S
N615 C618 1.350 . S
N616 S614 1.610 . S
N616 C617 1.351 . S
C617 C611 1.428 . S
C617 N616 1.351 . S
C617 C618 1.434 . S
C618 C609 1.429 . S
C618 N615 1.350 . S
C618 C617 1.434 . S
C619 C620 1.369 . S
C619 C621 1.419 . S
C619 H623 0.930 . S
C620 C619 1.369 . S
C620 C629 1.429 . S
C621 C619 1.419 . S
C621 C622 1.363 . S
C621 H624 0.929 . S
C622 C621 1.363 . S
C622 C628 1.428 . S
H623 C619 0.930 . S
H624 C621 0.929 . S
S625 N626 1.613 . S
S625 N627 1.610 . S
N626 S625 1.613 . S
N626 C629 1.350 . S
N627 S625 1.610 . S
N627 C628 1.351 . S
C628 C622 1.428 . S
C628 N627 1.351 . S
C628 C629 1.434 . S
C629 C620 1.429 . S
C629 N626 1.350 . S
C629 C628 1.434 . S
C235 C134 1.451 . S
C237 C10 1.459 . S
C246 C23 1.454 . S
C248 C147 1.455 . S
C257 C121 1.455 . S
C259 C30 1.457 . S
C268 C192 1.457 . S
C270 C49 1.455 . S
C279 C56 1.456 . S
C281 C166 1.456 . S
C290 C179 1.458 . S
C292 C69 1.454 . S
C301 C88 1.456 . S
C303 C212 1.456 . S
C312 C225 1.461 . S
C314 C101 1.451 . S
C323 C114 1.460 . S
C325 C205 1.451 . S
C334 C3 1.406 . S
C336 C18 1.424 . S
C345 C16 1.405 . S
C347 C29 1.427 . S
C356 C5 1.430 . S
C358 C31 1.409 . S
C367 C68 1.424 . S
C369 C42 1.410 . S
C378 C44 1.424 . S
C380 C57 1.410 . S
C389 C70 1.413 . S
C391 C55 1.427 . S
C400 C81 1.404 . S
C402 C96 1.424 . S
C411 C94 1.414 . S
C413 C109 1.429 . S
C422 C83 1.424 . S
C424 C107 1.410 . S
C433 C146 1.429 . S
C435 C122 1.407 . S
C444 C120 1.422 . S
C446 C135 1.407 . S
C455 C133 1.423 . S
C457 C148 1.407 . S
C466 C174 1.427 . S
C468 C159 1.412 . S
C477 C187 1.431 . S
C479 C172 1.410 . S
C488 C161 1.428 . S
C490 C185 1.413 . S
C499 C198 1.406 . S
C501 C224 1.424 . S
C510 C213 1.404 . S
C512 C200 1.425 . S
C521 C226 1.404 . S
C523 C211 1.425 . S
C532 C4 1.739 . S
C534 C43 1.735 . S
C543 C62 1.738 . S
C545 C17 1.734 . S
C554 C75 1.737 . S
C556 C36 1.737 . S
C565 C127 1.735 . S
C567 C82 1.733 . S
C576 C140 1.732 . S
C578 C95 1.734 . S
C587 C108 1.736 . S
C589 C153 1.733 . S
C598 C199 1.738 . S
C600 C160 1.737 . S
C609 C218 1.739 . S
C611 C173 1.735 . S
C620 C231 1.738 . S
C622 C186 1.734 . S
