# Generated by pormake.
# Topology uon, (4)-cn, num edge types: 1
# Building blocks:
#     Node 0, Type 0, BuildingBlock: KOZSID_clean_sbu_0, # of connection points: 4
#     Node 1, Type 0, BuildingBlock: KOZSID_clean_sbu_0, # of connection points: 4
#     Node 2, Type 0, BuildingBlock: KOZSID_clean_sbu_0, # of connection points: 4
#     Node 3, Type 0, BuildingBlock: KOZSID_clean_sbu_0, # of connection points: 4
#     Node 4, Type 0, BuildingBlock: KOZSID_clean_sbu_0, # of connection points: 4
#     Node 5, Type 0, BuildingBlock: KOZSID_clean_sbu_0, # of connection points: 4
#     Edge 6, Type (0, 0), None
#     Edge 7, Type (0, 0), None
#     Edge 8, Type (0, 0), None
#     Edge 9, Type (0, 0), None
#     Edge 10, Type (0, 0), None
#     Edge 11, Type (0, 0), None
#     Edge 12, Type (0, 0), None
#     Edge 13, Type (0, 0), None
#     Edge 14, Type (0, 0), None
#     Edge 15, Type (0, 0), None
#     Edge 16, Type (0, 0), None
#     Edge 17, Type (0, 0), None
# Relax obj value: 0.068
# Max RMSD: 0.128
# Mean RMSD: 0.128
data_MOF--net-uon--node1-KOZSID_clean_sbu_0--edge1-none
_symmetry_space_group_name_H-M    P1
_symmetry_Int_Tables_number       1
_symmetry_cell_setting            triclinic
loop_
_symmetry_equiv_pos_as_xyz
'x, y, z'
_cell_length_a     20.495318
_cell_length_b     20.487797
_cell_length_c     17.969103
_cell_angle_alpha  90.001311
_cell_angle_beta   89.996998
_cell_angle_gamma 119.99056
loop_
_atom_site_label
_atom_site_type_symbol
_atom_site_fract_x
_atom_site_fract_y
_atom_site_fract_z
_atom_type_partial_charge
C0 C 0.03551 0.3107 0.04862 0.0
C1 C 0.96442 0.29418 0.02419 0.0
C2 C 0.97496 0.3391 0.96439 0.0
C3 C 0.05134 0.38081 0.95572 0.0
N4 N 0.09073 0.36448 1.00528 0.0
Co5 Co 0.2033 0.42064 0.0173 0.0
N6 N 0.21762 0.4873 0.92949 0.0
C7 C 0.16278 0.48746 0.88806 0.0
C8 C 0.18868 0.53492 0.82803 0.0
C9 C 0.26488 0.56529 0.82954 0.0
C10 C 0.28097 0.53407 0.89056 0.0
N11 N 0.31513 0.47917 0.03009 0.0
C12 C 0.36995 0.52978 0.98396 0.0
C13 C 0.44066 0.55733 0.01564 0.0
C14 C 0.42969 0.52235 0.08313 0.0
C15 C 0.35368 0.47392 0.08841 0.0
N16 N 0.18925 0.35086 0.10171 0.0
C17 C 0.24485 0.3515 0.14285 0.0
C18 C 0.21847 0.29753 0.19755 0.0
C19 C 0.14161 0.26117 0.19148 0.0
C20 C 0.12515 0.29561 0.13379 0.0
N21 N 0.21486 0.35041 0.94878 0.0
C22 C 0.2526 0.27218 0.84301 0.0
C23 C 0.29111 0.2963 0.91022 0.0
C24 C 0.27074 0.33352 0.96214 0.0
C25 C 0.19026 0.28235 0.83224 0.0
C26 C 0.17316 0.32262 0.88504 0.0
N27 N 0.19459 0.49222 0.0887 0.0
C28 C 0.21873 0.54891 0.21224 0.0
C29 C 0.19544 0.59919 0.19093 0.0
C30 C 0.16938 0.59384 0.11758 0.0
C31 C 0.16916 0.54019 0.06778 0.0
C32 C 0.21692 0.49629 0.16164 0.0
H33 H 0.14941 0.53942 1.01249 0.0
H34 H 0.23573 0.46082 0.1839 0.0
H35 H 0.30369 0.35104 1.01152 0.0
H36 H 0.12781 0.33294 0.87271 0.0
C37 C 0.08747 0.43776 0.90344 0.0
C38 C 0.04805 0.27889 0.11668 0.0
C39 C 0.35714 0.54991 0.90867 0.0
C40 C 0.31919 0.41208 0.13718 0.0
H41 H 0.91008 0.25599 0.04789 0.0
H42 H 0.93205 0.34285 0.93265 0.0
H43 H 0.15585 0.544 0.78641 0.0
H44 H 0.30386 0.60468 0.7892 0.0
H45 H 0.49478 0.5967 0.99184 0.0
H46 H 0.47231 0.52897 0.12237 0.0
H47 H 0.25096 0.28873 0.23978 0.0
H48 H 0.10192 0.21693 0.22779 0.0
H49 H 0.33907 0.28913 0.92172 0.0
H50 H 0.15708 0.26239 0.78182 0.0
H51 H 0.24089 0.55163 0.26762 0.0
H52 H 0.1514 0.63241 0.09812 0.0
C53 C 0.73295 0.03154 0.38197 0.0
C54 C 0.67838 0.96042 0.35755 0.0
C55 C 0.64403 0.97097 0.29774 0.0
C56 C 0.67871 0.04737 0.28906 0.0
N57 N 0.73442 0.08678 0.33862 0.0
Co58 Co 0.79086 0.19939 0.35062 0.0
N59 N 0.73856 0.21372 0.2628 0.0
C60 C 0.68356 0.15886 0.22137 0.0
C61 C 0.66205 0.18478 0.16132 0.0
C62 C 0.70789 0.261 0.16282 0.0
C63 C 0.75517 0.2771 0.22385 0.0
N64 N 0.84418 0.31127 0.36339 0.0
C65 C 0.84841 0.3661 0.31725 0.0
C66 C 0.89156 0.43684 0.34893 0.0
C67 C 0.91555 0.42587 0.41643 0.0
C68 C 0.88796 0.34983 0.42171 0.0
N69 N 0.84654 0.18533 0.43504 0.0
C70 C 0.90149 0.24094 0.47617 0.0
C71 C 0.92905 0.21455 0.5309 0.0
C72 C 0.88852 0.13766 0.52484 0.0
C73 C 0.83765 0.1212 0.46714 0.0
N74 N 0.8726 0.2109 0.2821 0.0
C75 C 0.98852 0.24855 0.17635 0.0
C76 C 1.00292 0.28711 0.24354 0.0
C77 C 0.94536 0.26679 0.29545 0.0
C78 C 0.91603 0.1862 0.1656 0.0
C79 C 0.85868 0.16915 0.21839 0.0
N80 N 0.7106 0.19073 0.42201 0.0
C81 C 0.67807 0.21492 0.54553 0.0
C82 C 0.60453 0.19162 0.52423 0.0
C83 C 0.58382 0.16553 0.45088 0.0
C84 C 0.63722 0.16529 0.40108 0.0
C85 C 0.72886 0.21309 0.49494 0.0
H86 H 0.61825 0.14553 0.3458 0.0
H87 H 0.78313 0.23192 0.5172 0.0
H88 H 0.9608 0.29978 0.34482 0.0
H89 H 0.80302 0.12379 0.20608 0.0
C90 C 0.65792 0.08352 0.23676 0.0
C91 C 0.77727 0.04408 0.45004 0.0
C92 C 0.8155 0.35329 0.24195 0.0
C93 C 0.91529 0.31532 0.47049 0.0
H94 H 0.66222 0.90606 0.38125 0.0
H95 H 0.59738 0.92805 0.266 0.0
H96 H 0.62015 0.15194 0.1197 0.0
H97 H 0.70752 0.3 0.12246 0.0
H98 H 0.9063 0.49098 0.32513 0.0
H99 H 0.95152 0.46851 0.45567 0.0
H100 H 0.97032 0.24704 0.57313 0.0
H101 H 0.89303 0.09795 0.56117 0.0
H102 H 0.05806 0.33509 0.25502 0.0
H103 H 0.9028 0.15297 0.1152 0.0
H104 H 0.69751 0.2371 0.60091 0.0
H105 H 0.52729 0.14754 0.43142 0.0
C106 C 0.70943 0.72893 0.71534 0.0
C107 C 0.72594 0.67431 0.69095 0.0
C108 C 0.68103 0.63991 0.63117 0.0
C109 C 0.63934 0.67461 0.62247 0.0
N110 N 0.65566 0.73037 0.672 0.0
Co111 Co 0.59951 0.78683 0.68397 0.0
N112 N 0.53291 0.7345 0.59615 0.0
C113 C 0.53276 0.67947 0.55473 0.0
C114 C 0.48537 0.65794 0.49467 0.0
C115 C 0.455 0.70381 0.49615 0.0
C116 C 0.48617 0.75112 0.55718 0.0
N117 N 0.54097 0.84016 0.69672 0.0
C118 C 0.49039 0.84439 0.65057 0.0
C119 C 0.4628 0.88754 0.68224 0.0
C120 C 0.49773 0.91154 0.74975 0.0
C121 C 0.54617 0.88395 0.75505 0.0
N122 N 0.66923 0.84256 0.76839 0.0
C123 C 0.66855 0.89752 0.80951 0.0
C124 C 0.72252 0.92515 0.8642 0.0
C125 C 0.75891 0.88465 0.85813 0.0
C126 C 0.72449 0.83372 0.80046 0.0
N127 N 0.66972 0.86859 0.61545 0.0
C128 C 0.74805 0.98453 0.50971 0.0
C129 C 0.72385 0.99895 0.57687 0.0
C130 C 0.68658 0.94138 0.62878 0.0
C131 C 0.7379 0.91202 0.49898 0.0
C132 C 0.69758 0.85465 0.55177 0.0
N133 N 0.52793 0.70655 0.75537 0.0
C134 C 0.47127 0.67401 0.87891 0.0
C135 C 0.421 0.60045 0.85759 0.0
C136 C 0.42634 0.57974 0.78423 0.0
C137 C 0.47998 0.63315 0.73444 0.0
C138 C 0.52387 0.72481 0.82832 0.0
H139 H 0.48074 0.61418 0.67915 0.0
H140 H 0.55933 0.77909 0.85058 0.0
H141 H 0.669 0.95682 0.67813 0.0
H142 H 0.68728 0.79897 0.53948 0.0
C143 C 0.58243 0.65381 0.57016 0.0
C144 C 0.74126 0.77334 0.78336 0.0
C145 C 0.47031 0.81146 0.57527 0.0
C146 C 0.60798 0.9113 0.80382 0.0
H147 H 0.76413 0.65816 0.71466 0.0
H148 H 0.67729 0.59322 0.59945 0.0
H149 H 0.47631 0.61602 0.45306 0.0
H150 H 0.41566 0.70343 0.45577 0.0
H151 H 0.42342 0.90229 0.65843 0.0
H152 H 0.49106 0.94753 0.78898 0.0
H153 H 0.7313 0.96646 0.90641 0.0
H154 H 0.80315 0.88922 0.89443 0.0
H155 H 0.73102 0.05411 0.58833 0.0
H156 H 0.75792 0.89877 0.4486 0.0
H157 H 0.46854 0.69345 0.9343 0.0
H158 H 0.38779 0.52319 0.76476 0.0
C159 C 0.98875 0.70565 0.04864 0.0
C160 C 0.05984 0.72217 0.02421 0.0
C161 C 0.0493 0.67727 0.96439 0.0
C162 C 0.97293 0.63558 0.95571 0.0
N163 N 0.93353 0.6519 1.00529 0.0
Co164 Co 0.82096 0.59574 0.01731 0.0
N165 N 0.80664 0.5291 0.92949 0.0
C166 C 0.86148 0.52894 0.88805 0.0
C167 C 0.83559 0.48148 0.82802 0.0
C168 C 0.75939 0.4511 0.82954 0.0
C169 C 0.74329 0.48232 0.89056 0.0
N170 N 0.70912 0.53722 0.0301 0.0
C171 C 0.65431 0.48661 0.98396 0.0
C172 C 0.5836 0.45907 0.01564 0.0
C173 C 0.59456 0.49406 0.08313 0.0
C174 C 0.67057 0.54247 0.08842 0.0
N175 N 0.83501 0.6655 0.10173 0.0
C176 C 0.77941 0.66486 0.14288 0.0
C177 C 0.80578 0.71882 0.19759 0.0
C178 C 0.88265 0.75517 0.19153 0.0
C179 C 0.89911 0.72073 0.13383 0.0
N180 N 0.80941 0.66598 0.9488 0.0
C181 C 0.77167 0.7442 0.84303 0.0
C182 C 0.73317 0.7201 0.91025 0.0
C183 C 0.75354 0.68289 0.96217 0.0
C184 C 0.834 0.73404 0.83225 0.0
C185 C 0.85111 0.69376 0.88506 0.0
N186 N 0.82965 0.52414 0.08869 0.0
C187 C 0.80548 0.46741 0.21221 0.0
C188 C 0.82881 0.41717 0.1909 0.0
C189 C 0.85492 0.42256 0.11755 0.0
C190 C 0.85514 0.47622 0.06777 0.0
C191 C 0.80728 0.52003 0.16162 0.0
H192 H 0.87492 0.47702 1.01249 0.0
H193 H 0.78842 0.55547 0.18388 0.0
H194 H 0.7206 0.66538 1.01156 0.0
H195 H 0.89645 0.68345 0.87272 0.0
C196 C 0.9368 0.57864 0.90342 0.0
C197 C 0.97621 0.73745 0.11671 0.0
C198 C 0.66712 0.46648 0.90867 0.0
C199 C 0.70506 0.60431 0.13719 0.0
H200 H 0.11418 0.76034 0.04792 0.0
H201 H 0.09221 0.67353 0.93264 0.0
H202 H 0.86842 0.47241 0.78639 0.0
H203 H 0.7204 0.41172 0.78919 0.0
H204 H 0.52948 0.4197 0.99184 0.0
H205 H 0.55194 0.48744 0.12237 0.0
H206 H 0.7733 0.72763 0.23982 0.0
H207 H 0.92234 0.79939 0.22785 0.0
H208 H 0.68521 0.72728 0.92175 0.0
H209 H 0.86718 0.75399 0.78182 0.0
H210 H 0.78329 0.46465 0.26759 0.0
H211 H 0.87294 0.38402 0.09809 0.0
C212 C 0.29133 0.98484 0.38198 0.0
C213 C 0.3459 0.05595 0.35754 0.0
C214 C 0.38023 0.0454 0.29772 0.0
C215 C 0.34555 0.96899 0.28904 0.0
N216 N 0.28985 0.92959 0.33862 0.0
Co217 Co 0.23341 0.81698 0.35063 0.0
N218 N 0.2857 0.80264 0.2628 0.0
C219 C 0.3407 0.8575 0.22136 0.0
C220 C 0.36221 0.83158 0.16132 0.0
C221 C 0.31638 0.75535 0.16283 0.0
C222 C 0.2691 0.73926 0.22387 0.0
N223 N 0.18008 0.7051 0.36342 0.0
C224 C 0.17585 0.65026 0.31728 0.0
C225 C 0.13269 0.57953 0.34897 0.0
C226 C 0.10869 0.5905 0.41646 0.0
C227 C 0.13629 0.66655 0.42174 0.0
N228 N 0.17774 0.83106 0.43507 0.0
C229 C 0.12279 0.77545 0.47621 0.0
C230 C 0.09524 0.80185 0.53094 0.0
C231 C 0.13578 0.87874 0.52487 0.0
C232 C 0.18664 0.89519 0.46717 0.0
N233 N 0.15166 0.80546 0.28213 0.0
C234 C 0.03575 0.7678 0.17638 0.0
C235 C 0.02134 0.72925 0.24358 0.0
C236 C 0.0789 0.74958 0.29548 0.0
C237 C 0.10823 0.83014 0.16562 0.0
C238 C 0.16559 0.84721 0.21841 0.0
N239 N 0.31367 0.82564 0.42201 0.0
C240 C 0.34621 0.80144 0.54552 0.0
C241 C 0.41976 0.82477 0.5242 0.0
C242 C 0.44047 0.85088 0.45086 0.0
C243 C 0.38706 0.85112 0.40108 0.0
C244 C 0.29542 0.80326 0.49494 0.0
H245 H 0.40603 0.87091 0.3458 0.0
H246 H 0.24114 0.7844 0.5172 0.0
H247 H 0.06346 0.7166 0.34486 0.0
H248 H 0.22124 0.89257 0.20609 0.0
C249 C 0.36633 0.93284 0.23674 0.0
C250 C 0.24703 0.9723 0.45005 0.0
C251 C 0.2088 0.66307 0.242 0.0
C252 C 0.10897 0.70106 0.47052 0.0
H253 H 0.36207 0.11032 0.38124 0.0
H254 H 0.42688 0.08832 0.26596 0.0
H255 H 0.40411 0.86441 0.11968 0.0
H256 H 0.31677 0.71635 0.12248 0.0
H257 H 0.11794 0.52539 0.32517 0.0
H258 H 0.07271 0.54787 0.45571 0.0
H259 H 0.05397 0.76936 0.57317 0.0
H260 H 0.13127 0.91846 0.5612 0.0
H261 H 0.9662 0.68128 0.25506 0.0
H262 H 0.12146 0.86337 0.11521 0.0
H263 H 0.32678 0.77924 0.60089 0.0
H264 H 0.49701 0.86891 0.43139 0.0
C265 C 0.31484 0.28746 0.71533 0.0
C266 C 0.29833 0.34208 0.69094 0.0
C267 C 0.34325 0.37648 0.63117 0.0
C268 C 0.38495 0.34179 0.62247 0.0
N269 N 0.36862 0.28602 0.672 0.0
Co270 Co 0.42477 0.22956 0.68398 0.0
N271 N 0.49138 0.28189 0.59616 0.0
C272 C 0.49153 0.33692 0.55474 0.0
C273 C 0.53894 0.35845 0.49468 0.0
C274 C 0.56931 0.31259 0.49617 0.0
C275 C 0.53813 0.26529 0.55719 0.0
N276 N 0.48331 0.17623 0.69674 0.0
C277 C 0.5339 0.172 0.65059 0.0
C278 C 0.56147 0.12884 0.68227 0.0
C279 C 0.52653 0.10484 0.74977 0.0
C280 C 0.4781 0.13243 0.75507 0.0
N281 N 0.35504 0.17383 0.76839 0.0
C282 C 0.35571 0.11886 0.80952 0.0
C283 C 0.30173 0.09123 0.8642 0.0
C284 C 0.26533 0.13173 0.85812 0.0
C285 C 0.29976 0.18266 0.80045 0.0
N286 N 0.35456 0.1478 0.61546 0.0
C287 C 0.27625 0.03186 0.50972 0.0
C288 C 0.30044 0.01744 0.57688 0.0
C289 C 0.33771 0.07501 0.62878 0.0
C290 C 0.2864 0.10437 0.49899 0.0
C291 C 0.32672 0.16174 0.55178 0.0
N292 N 0.49634 0.30984 0.75538 0.0
C293 C 0.55299 0.34238 0.87892 0.0
C294 C 0.60327 0.41594 0.8576 0.0
C295 C 0.59792 0.43665 0.78424 0.0
C296 C 0.5443 0.38324 0.73445 0.0
C297 C 0.50039 0.29158 0.82833 0.0
H298 H 0.54354 0.40221 0.67916 0.0
H299 H 0.46492 0.2373 0.8506 0.0
H300 H 0.35528 0.05957 0.67813 0.0
H301 H 0.33701 0.21742 0.53948 0.0
C302 C 0.44186 0.36259 0.57016 0.0
C303 C 0.28301 0.24304 0.78334 0.0
C304 C 0.55401 0.20496 0.57531 0.0
C305 C 0.41628 0.10508 0.80384 0.0
H306 H 0.26013 0.35823 0.71465 0.0
H307 H 0.34699 0.42317 0.59945 0.0
H308 H 0.548 0.40038 0.45307 0.0
H309 H 0.60867 0.31298 0.4558 0.0
H310 H 0.60086 0.11409 0.65846 0.0
H311 H 0.53319 0.06885 0.78901 0.0
H312 H 0.29294 0.04993 0.90641 0.0
H313 H 0.22108 0.12716 0.89442 0.0
H314 H 0.29328 0.96228 0.58834 0.0
H315 H 0.26638 0.11761 0.44861 0.0
H316 H 0.5557 0.32294 0.93431 0.0
H317 H 0.63649 0.4932 0.76477 0.0
loop_
_geom_bond_atom_site_label_1
_geom_bond_atom_site_label_2
_geom_bond_distance
_geom_bond_site_symmetry_2
_ccdc_geom_bond_type
C0 C1 1.443 1_455 S
C0 N4 1.376 . S
C0 C38 1.389 . S
C1 C0 1.443 1_655 S
C1 C2 1.340 1_554 S
C1 H41 0.951 . S
C2 C1 1.340 1_556 S
C2 C3 1.439 1_655 S
C2 H42 0.950 . S
C3 C2 1.439 1_455 S
C3 N4 1.374 1_556 S
C3 C37 1.395 . S
N4 C0 1.376 . S
N4 C3 1.374 1_554 S
N4 Co5 2.008 . S
Co5 N4 2.008 . S
Co5 N6 1.995 1_554 S
Co5 N11 2.008 . S
Co5 N16 1.995 . S
Co5 N21 2.282 1_554 S
Co5 N27 2.282 . S
N6 Co5 1.995 1_556 S
N6 C7 1.376 . S
N6 C10 1.383 . S
C7 N6 1.376 . S
C7 C8 1.446 . S
C7 C37 1.391 . S
C8 C7 1.446 . S
C8 C9 1.339 . S
C8 H43 0.949 . S
C9 C8 1.339 . S
C9 C10 1.439 . S
C9 H44 0.950 . S
C10 N6 1.383 . S
C10 C9 1.439 . S
C10 C39 1.392 . S
N11 Co5 2.008 . S
N11 C12 1.376 1_554 S
N11 C15 1.374 . S
C12 N11 1.376 1_556 S
C12 C13 1.443 . S
C12 C39 1.389 . S
C13 C12 1.443 . S
C13 C14 1.340 1_556 S
C13 H45 0.951 . S
C14 C13 1.340 1_554 S
C14 C15 1.439 . S
C14 H46 0.950 . S
C15 N11 1.374 . S
C15 C14 1.439 . S
C15 C40 1.395 . S
N16 Co5 1.995 . S
N16 C17 1.376 . S
N16 C20 1.383 . S
C17 N16 1.376 . S
C17 C18 1.446 . S
C17 C40 1.391 . S
C18 C17 1.446 . S
C18 C19 1.339 . S
C18 H47 0.949 . S
C19 C18 1.339 . S
C19 C20 1.439 . S
C19 H48 0.950 . S
C20 N16 1.383 . S
C20 C19 1.439 . S
C20 C38 1.392 . S
N21 Co5 2.282 1_556 S
N21 C24 1.332 . S
N21 C26 1.332 . S
C22 C23 1.386 . S
C22 C25 1.388 . S
C23 C22 1.386 . S
C23 C24 1.382 . S
C23 H49 0.950 . S
C24 N21 1.332 . S
C24 C23 1.382 . S
C24 H35 0.952 1_556 S
C25 C22 1.388 . S
C25 C26 1.382 . S
C25 H50 0.950 . S
C26 N21 1.332 . S
C26 C25 1.382 . S
C26 H36 0.948 . S
N27 Co5 2.282 . S
N27 C31 1.332 . S
N27 C32 1.332 . S
C28 C29 1.388 . S
C28 C32 1.382 . S
C28 H51 0.950 . S
C29 C28 1.388 . S
C29 C30 1.386 . S
C30 C29 1.386 . S
C30 C31 1.382 . S
C30 H52 0.950 . S
C31 N27 1.332 . S
C31 C30 1.382 . S
C31 H33 0.952 . S
C32 N27 1.332 . S
C32 C28 1.382 . S
C32 H34 0.948 . S
H33 C31 0.952 . S
H34 C32 0.948 . S
H35 C24 0.952 1_554 S
H36 C26 0.948 . S
C37 C3 1.395 . S
C37 C7 1.391 . S
C38 C0 1.389 . S
C38 C20 1.392 . S
C39 C10 1.392 . S
C39 C12 1.389 . S
C40 C15 1.395 . S
C40 C17 1.391 . S
H41 C1 0.951 . S
H42 C2 0.950 . S
H43 C8 0.949 . S
H44 C9 0.950 . S
H45 C13 0.951 . S
H46 C14 0.950 . S
H47 C18 0.949 . S
H48 C19 0.950 . S
H49 C23 0.950 . S
H50 C25 0.950 . S
H51 C28 0.950 . S
H52 C30 0.950 . S
C53 C54 1.443 1_545 S
C53 N57 1.376 . S
C53 C91 1.389 . S
C54 C53 1.443 1_565 S
C54 C55 1.340 . S
C54 H94 0.951 . S
C55 C54 1.340 . S
C55 C56 1.439 1_565 S
C55 H95 0.950 . S
C56 C55 1.439 1_545 S
C56 N57 1.374 . S
C56 C90 1.395 . S
N57 C53 1.376 . S
N57 C56 1.374 . S
N57 Co58 2.008 . S
Co58 N57 2.008 . S
Co58 N59 1.995 . S
Co58 N64 2.008 . S
Co58 N69 1.995 . S
Co58 N74 2.282 . S
Co58 N80 2.282 . S
N59 Co58 1.995 . S
N59 C60 1.376 . S
N59 C63 1.383 . S
C60 N59 1.376 . S
C60 C61 1.446 . S
C60 C90 1.391 . S
C61 C60 1.446 . S
C61 C62 1.339 . S
C61 H96 0.949 . S
C62 C61 1.339 . S
C62 C63 1.439 . S
C62 H97 0.950 . S
C63 N59 1.383 . S
C63 C62 1.439 . S
C63 C92 1.392 . S
N64 Co58 2.008 . S
N64 C65 1.376 . S
N64 C68 1.374 . S
C65 N64 1.376 . S
C65 C66 1.443 . S
C65 C92 1.389 . S
C66 C65 1.443 . S
C66 C67 1.340 . S
C66 H98 0.951 . S
C67 C66 1.340 . S
C67 C68 1.439 . S
C67 H99 0.950 . S
C68 N64 1.374 . S
C68 C67 1.439 . S
C68 C93 1.395 . S
N69 Co58 1.995 . S
N69 C70 1.376 . S
N69 C73 1.383 . S
C70 N69 1.376 . S
C70 C71 1.446 . S
C70 C93 1.391 . S
C71 C70 1.446 . S
C71 C72 1.339 . S
C71 H100 0.949 . S
C72 C71 1.339 . S
C72 C73 1.439 . S
C72 H101 0.950 . S
C73 N69 1.383 . S
C73 C72 1.439 . S
C73 C91 1.392 . S
N74 Co58 2.282 . S
N74 C77 1.332 . S
N74 C79 1.332 . S
C75 C76 1.386 1_655 S
C75 C78 1.388 . S
C76 C75 1.386 1_455 S
C76 C77 1.382 1_455 S
C76 H102 0.950 . S
C77 N74 1.332 . S
C77 C76 1.382 1_655 S
C77 H88 0.952 . S
C78 C75 1.388 . S
C78 C79 1.382 . S
C78 H103 0.950 . S
C79 N74 1.332 . S
C79 C78 1.382 . S
C79 H89 0.948 . S
N80 Co58 2.282 . S
N80 C84 1.332 . S
N80 C85 1.332 . S
C81 C82 1.388 . S
C81 C85 1.382 . S
C81 H104 0.950 . S
C82 C81 1.388 . S
C82 C83 1.386 . S
C83 C82 1.386 . S
C83 C84 1.382 . S
C83 H105 0.950 . S
C84 N80 1.332 . S
C84 C83 1.382 . S
C84 H86 0.952 . S
C85 N80 1.332 . S
C85 C81 1.382 . S
C85 H87 0.948 . S
H86 C84 0.952 . S
H87 C85 0.948 . S
H88 C77 0.952 . S
H89 C79 0.948 . S
C90 C56 1.395 . S
C90 C60 1.391 . S
C91 C53 1.389 . S
C91 C73 1.392 . S
C92 C63 1.392 . S
C92 C65 1.389 . S
C93 C68 1.395 . S
C93 C70 1.391 . S
H94 C54 0.951 . S
H95 C55 0.950 . S
H96 C61 0.949 . S
H97 C62 0.950 . S
H98 C66 0.951 . S
H99 C67 0.950 . S
H100 C71 0.949 . S
H101 C72 0.950 . S
H102 C76 0.950 . S
H103 C78 0.950 . S
H104 C81 0.950 . S
H105 C83 0.950 . S
C106 C107 1.443 . S
C106 N110 1.376 . S
C106 C144 1.389 . S
C107 C106 1.443 . S
C107 C108 1.340 . S
C107 H147 0.951 . S
C108 C107 1.340 . S
C108 C109 1.439 . S
C108 H148 0.950 . S
C109 C108 1.439 . S
C109 N110 1.374 . S
C109 C143 1.395 . S
N110 C106 1.376 . S
N110 C109 1.374 . S
N110 Co111 2.008 . S
Co111 N110 2.008 . S
Co111 N112 1.995 . S
Co111 N117 2.008 . S
Co111 N122 1.995 . S
Co111 N127 2.282 . S
Co111 N133 2.282 . S
N112 Co111 1.995 . S
N112 C113 1.376 . S
N112 C116 1.383 . S
C113 N112 1.376 . S
C113 C114 1.446 . S
C113 C143 1.391 . S
C114 C113 1.446 . S
C114 C115 1.339 . S
C114 H149 0.949 . S
C115 C114 1.339 . S
C115 C116 1.439 . S
C115 H150 0.950 . S
C116 N112 1.383 . S
C116 C115 1.439 . S
C116 C145 1.392 . S
N117 Co111 2.008 . S
N117 C118 1.376 . S
N117 C121 1.374 . S
C118 N117 1.376 . S
C118 C119 1.443 . S
C118 C145 1.389 . S
C119 C118 1.443 . S
C119 C120 1.340 . S
C119 H151 0.951 . S
C120 C119 1.340 . S
C120 C121 1.439 . S
C120 H152 0.950 . S
C121 N117 1.374 . S
C121 C120 1.439 . S
C121 C146 1.395 . S
N122 Co111 1.995 . S
N122 C123 1.376 . S
N122 C126 1.383 . S
C123 N122 1.376 . S
C123 C124 1.446 . S
C123 C146 1.391 . S
C124 C123 1.446 . S
C124 C125 1.339 . S
C124 H153 0.949 . S
C125 C124 1.339 . S
C125 C126 1.439 . S
C125 H154 0.950 . S
C126 N122 1.383 . S
C126 C125 1.439 . S
C126 C144 1.392 . S
N127 Co111 2.282 . S
N127 C130 1.332 . S
N127 C132 1.332 . S
C128 C129 1.386 1_565 S
C128 C131 1.388 . S
C129 C128 1.386 1_545 S
C129 C130 1.382 1_545 S
C129 H155 0.950 . S
C130 N127 1.332 . S
C130 C129 1.382 1_565 S
C130 H141 0.952 . S
C131 C128 1.388 . S
C131 C132 1.382 . S
C131 H156 0.950 . S
C132 N127 1.332 . S
C132 C131 1.382 . S
C132 H142 0.948 . S
N133 Co111 2.282 . S
N133 C137 1.332 . S
N133 C138 1.332 . S
C134 C135 1.388 . S
C134 C138 1.382 . S
C134 H157 0.950 . S
C135 C134 1.388 . S
C135 C136 1.386 . S
C136 C135 1.386 . S
C136 C137 1.382 . S
C136 H158 0.950 . S
C137 N133 1.332 . S
C137 C136 1.382 . S
C137 H139 0.952 . S
C138 N133 1.332 . S
C138 C134 1.382 . S
C138 H140 0.948 . S
H139 C137 0.952 . S
H140 C138 0.948 . S
H141 C130 0.952 . S
H142 C132 0.948 . S
C143 C109 1.395 . S
C143 C113 1.391 . S
C144 C106 1.389 . S
C144 C126 1.392 . S
C145 C116 1.392 . S
C145 C118 1.389 . S
C146 C121 1.395 . S
C146 C123 1.391 . S
H147 C107 0.951 . S
H148 C108 0.950 . S
H149 C114 0.949 . S
H150 C115 0.950 . S
H151 C119 0.951 . S
H152 C120 0.950 . S
H153 C124 0.949 . S
H154 C125 0.950 . S
H155 C129 0.950 . S
H156 C131 0.950 . S
H157 C134 0.950 . S
H158 C136 0.950 . S
C159 C160 1.443 1_655 S
C159 N163 1.376 . S
C159 C197 1.389 . S
C160 C159 1.443 1_455 S
C160 C161 1.340 1_554 S
C160 H200 0.951 . S
C161 C160 1.340 1_556 S
C161 C162 1.439 1_455 S
C161 H201 0.950 . S
C162 C161 1.439 1_655 S
C162 N163 1.374 1_556 S
C162 C196 1.395 . S
N163 C159 1.376 . S
N163 C162 1.374 1_554 S
N163 Co164 2.008 . S
Co164 N163 2.008 . S
Co164 N165 1.995 1_554 S
Co164 N170 2.008 . S
Co164 N175 1.995 . S
Co164 N180 2.282 1_554 S
Co164 N186 2.282 . S
N165 Co164 1.995 1_556 S
N165 C166 1.376 . S
N165 C169 1.383 . S
C166 N165 1.376 . S
C166 C167 1.446 . S
C166 C196 1.391 . S
C167 C166 1.446 . S
C167 C168 1.339 . S
C167 H202 0.949 . S
C168 C167 1.339 . S
C168 C169 1.439 . S
C168 H203 0.950 . S
C169 N165 1.383 . S
C169 C168 1.439 . S
C169 C198 1.392 . S
N170 Co164 2.008 . S
N170 C171 1.376 1_554 S
N170 C174 1.374 . S
C171 N170 1.376 1_556 S
C171 C172 1.443 . S
C171 C198 1.389 . S
C172 C171 1.443 . S
C172 C173 1.340 1_556 S
C172 H204 0.951 . S
C173 C172 1.340 1_554 S
C173 C174 1.439 . S
C173 H205 0.950 . S
C174 N170 1.374 . S
C174 C173 1.439 . S
C174 C199 1.395 . S
N175 Co164 1.995 . S
N175 C176 1.376 . S
N175 C179 1.383 . S
C176 N175 1.376 . S
C176 C177 1.446 . S
C176 C199 1.391 . S
C177 C176 1.446 . S
C177 C178 1.339 . S
C177 H206 0.949 . S
C178 C177 1.339 . S
C178 C179 1.439 . S
C178 H207 0.950 . S
C179 N175 1.383 . S
C179 C178 1.439 . S
C179 C197 1.392 . S
N180 Co164 2.282 1_556 S
N180 C183 1.332 . S
N180 C185 1.332 . S
C181 C182 1.386 . S
C181 C184 1.388 . S
C182 C181 1.386 . S
C182 C183 1.382 . S
C182 H208 0.950 . S
C183 N180 1.332 . S
C183 C182 1.382 . S
C183 H194 0.952 1_556 S
C184 C181 1.388 . S
C184 C185 1.382 . S
C184 H209 0.950 . S
C185 N180 1.332 . S
C185 C184 1.382 . S
C185 H195 0.948 . S
N186 Co164 2.282 . S
N186 C190 1.332 . S
N186 C191 1.332 . S
C187 C188 1.388 . S
C187 C191 1.382 . S
C187 H210 0.950 . S
C188 C187 1.388 . S
C188 C189 1.386 . S
C189 C188 1.386 . S
C189 C190 1.382 . S
C189 H211 0.950 . S
C190 N186 1.332 . S
C190 C189 1.382 . S
C190 H192 0.952 . S
C191 N186 1.332 . S
C191 C187 1.382 . S
C191 H193 0.948 . S
H192 C190 0.952 . S
H193 C191 0.948 . S
H194 C183 0.952 1_554 S
H195 C185 0.948 . S
C196 C162 1.395 . S
C196 C166 1.391 . S
C197 C159 1.389 . S
C197 C179 1.392 . S
C198 C169 1.392 . S
C198 C171 1.389 . S
C199 C174 1.395 . S
C199 C176 1.391 . S
H200 C160 0.951 . S
H201 C161 0.950 . S
H202 C167 0.949 . S
H203 C168 0.950 . S
H204 C172 0.951 . S
H205 C173 0.950 . S
H206 C177 0.949 . S
H207 C178 0.950 . S
H208 C182 0.950 . S
H209 C184 0.950 . S
H210 C187 0.950 . S
H211 C189 0.950 . S
C212 C213 1.443 1_565 S
C212 N216 1.376 . S
C212 C250 1.389 . S
C213 C212 1.443 1_545 S
C213 C214 1.340 . S
C213 H253 0.951 . S
C214 C213 1.340 . S
C214 C215 1.439 1_545 S
C214 H254 0.950 . S
C215 C214 1.439 1_565 S
C215 N216 1.374 . S
C215 C249 1.395 . S
N216 C212 1.376 . S
N216 C215 1.374 . S
N216 Co217 2.008 . S
Co217 N216 2.008 . S
Co217 N218 1.995 . S
Co217 N223 2.008 . S
Co217 N228 1.995 . S
Co217 N233 2.282 . S
Co217 N239 2.282 . S
N218 Co217 1.995 . S
N218 C219 1.376 . S
N218 C222 1.383 . S
C219 N218 1.376 . S
C219 C220 1.446 . S
C219 C249 1.391 . S
C220 C219 1.446 . S
C220 C221 1.339 . S
C220 H255 0.949 . S
C221 C220 1.339 . S
C221 C222 1.439 . S
C221 H256 0.950 . S
C222 N218 1.383 . S
C222 C221 1.439 . S
C222 C251 1.392 . S
N223 Co217 2.008 . S
N223 C224 1.376 . S
N223 C227 1.374 . S
C224 N223 1.376 . S
C224 C225 1.443 . S
C224 C251 1.389 . S
C225 C224 1.443 . S
C225 C226 1.340 . S
C225 H257 0.951 . S
C226 C225 1.340 . S
C226 C227 1.439 . S
C226 H258 0.950 . S
C227 N223 1.374 . S
C227 C226 1.439 . S
C227 C252 1.395 . S
N228 Co217 1.995 . S
N228 C229 1.376 . S
N228 C232 1.383 . S
C229 N228 1.376 . S
C229 C230 1.446 . S
C229 C252 1.391 . S
C230 C229 1.446 . S
C230 C231 1.339 . S
C230 H259 0.949 . S
C231 C230 1.339 . S
C231 C232 1.439 . S
C231 H260 0.950 . S
C232 N228 1.383 . S
C232 C231 1.439 . S
C232 C250 1.392 . S
N233 Co217 2.282 . S
N233 C236 1.332 . S
N233 C238 1.332 . S
C234 C235 1.386 1_455 S
C234 C237 1.388 . S
C235 C234 1.386 1_655 S
C235 C236 1.382 1_655 S
C235 H261 0.950 . S
C236 N233 1.332 . S
C236 C235 1.382 1_455 S
C236 H247 0.952 . S
C237 C234 1.388 . S
C237 C238 1.382 . S
C237 H262 0.950 . S
C238 N233 1.332 . S
C238 C237 1.382 . S
C238 H248 0.948 . S
N239 Co217 2.282 . S
N239 C243 1.332 . S
N239 C244 1.332 . S
C240 C241 1.388 . S
C240 C244 1.382 . S
C240 H263 0.950 . S
C241 C240 1.388 . S
C241 C242 1.386 . S
C242 C241 1.386 . S
C242 C243 1.382 . S
C242 H264 0.950 . S
C243 N239 1.332 . S
C243 C242 1.382 . S
C243 H245 0.952 . S
C244 N239 1.332 . S
C244 C240 1.382 . S
C244 H246 0.948 . S
H245 C243 0.952 . S
H246 C244 0.948 . S
H247 C236 0.952 . S
H248 C238 0.948 . S
C249 C215 1.395 . S
C249 C219 1.391 . S
C250 C212 1.389 . S
C250 C232 1.392 . S
C251 C222 1.392 . S
C251 C224 1.389 . S
C252 C227 1.395 . S
C252 C229 1.391 . S
H253 C213 0.951 . S
H254 C214 0.950 . S
H255 C220 0.949 . S
H256 C221 0.950 . S
H257 C225 0.951 . S
H258 C226 0.950 . S
H259 C230 0.949 . S
H260 C231 0.950 . S
H261 C235 0.950 . S
H262 C237 0.950 . S
H263 C240 0.950 . S
H264 C242 0.950 . S
C265 C266 1.443 . S
C265 N269 1.376 . S
C265 C303 1.389 . S
C266 C265 1.443 . S
C266 C267 1.340 . S
C266 H306 0.951 . S
C267 C266 1.340 . S
C267 C268 1.439 . S
C267 H307 0.950 . S
C268 C267 1.439 . S
C268 N269 1.374 . S
C268 C302 1.395 . S
N269 C265 1.376 . S
N269 C268 1.374 . S
N269 Co270 2.008 . S
Co270 N269 2.008 . S
Co270 N271 1.995 . S
Co270 N276 2.008 . S
Co270 N281 1.995 . S
Co270 N286 2.282 . S
Co270 N292 2.282 . S
N271 Co270 1.995 . S
N271 C272 1.376 . S
N271 C275 1.383 . S
C272 N271 1.376 . S
C272 C273 1.446 . S
C272 C302 1.391 . S
C273 C272 1.446 . S
C273 C274 1.339 . S
C273 H308 0.949 . S
C274 C273 1.339 . S
C274 C275 1.439 . S
C274 H309 0.950 . S
C275 N271 1.383 . S
C275 C274 1.439 . S
C275 C304 1.392 . S
N276 Co270 2.008 . S
N276 C277 1.376 . S
N276 C280 1.374 . S
C277 N276 1.376 . S
C277 C278 1.443 . S
C277 C304 1.389 . S
C278 C277 1.443 . S
C278 C279 1.340 . S
C278 H310 0.951 . S
C279 C278 1.340 . S
C279 C280 1.439 . S
C279 H311 0.950 . S
C280 N276 1.374 . S
C280 C279 1.439 . S
C280 C305 1.395 . S
N281 Co270 1.995 . S
N281 C282 1.376 . S
N281 C285 1.383 . S
C282 N281 1.376 . S
C282 C283 1.446 . S
C282 C305 1.391 . S
C283 C282 1.446 . S
C283 C284 1.339 . S
C283 H312 0.949 . S
C284 C283 1.339 . S
C284 C285 1.439 . S
C284 H313 0.950 . S
C285 N281 1.383 . S
C285 C284 1.439 . S
C285 C303 1.392 . S
N286 Co270 2.282 . S
N286 C289 1.332 . S
N286 C291 1.332 . S
C287 C288 1.386 1_545 S
C287 C290 1.388 . S
C288 C287 1.386 1_565 S
C288 C289 1.382 1_565 S
C288 H314 0.950 . S
C289 N286 1.332 . S
C289 C288 1.382 1_545 S
C289 H300 0.952 . S
C290 C287 1.388 . S
C290 C291 1.382 . S
C290 H315 0.950 . S
C291 N286 1.332 . S
C291 C290 1.382 . S
C291 H301 0.948 . S
N292 Co270 2.282 . S
N292 C296 1.332 . S
N292 C297 1.332 . S
C293 C294 1.388 . S
C293 C297 1.382 . S
C293 H316 0.950 . S
C294 C293 1.388 . S
C294 C295 1.386 . S
C295 C294 1.386 . S
C295 C296 1.382 . S
C295 H317 0.950 . S
C296 N292 1.332 . S
C296 C295 1.382 . S
C296 H298 0.952 . S
C297 N292 1.332 . S
C297 C293 1.382 . S
C297 H299 0.948 . S
H298 C296 0.952 . S
H299 C297 0.948 . S
H300 C289 0.952 . S
H301 C291 0.948 . S
C302 C268 1.395 . S
C302 C272 1.391 . S
C303 C265 1.389 . S
C303 C285 1.392 . S
C304 C275 1.392 . S
C304 C277 1.389 . S
C305 C280 1.395 . S
C305 C282 1.391 . S
H306 C266 0.951 . S
H307 C267 0.950 . S
H308 C273 0.949 . S
H309 C274 0.950 . S
H310 C278 0.951 . S
H311 C279 0.950 . S
H312 C283 0.949 . S
H313 C284 0.950 . S
H314 C288 0.950 . S
H315 C290 0.950 . S
H316 C293 0.950 . S
H317 C295 0.950 . S
C22 C303 1.629 . S
C75 C38 1.628 1_655 S
C91 C128 1.629 1_545 S
C181 C144 1.629 . S
C197 C234 1.628 1_655 S
C287 C250 1.629 1_545 S
C251 C29 1.554 . S
C304 C82 1.553 . S
C135 C39 1.553 . S
C188 C92 1.554 . S
C241 C145 1.553 . S
C294 C198 1.553 . S
