# Generated by pormake.
# Topology uoa, (4)-cn, num edge types: 1
# Building blocks:
#     Node 0, Type 0, BuildingBlock: MUDLON_clean_sbu_0, # of connection points: 4
#     Node 1, Type 0, BuildingBlock: MUDLON_clean_sbu_0, # of connection points: 4
#     Node 2, Type 0, BuildingBlock: MUDLON_clean_sbu_0, # of connection points: 4
#     Node 3, Type 0, BuildingBlock: MUDLON_clean_sbu_0, # of connection points: 4
#     Node 4, Type 0, BuildingBlock: MUDLON_clean_sbu_0, # of connection points: 4
#     Node 5, Type 0, BuildingBlock: MUDLON_clean_sbu_0, # of connection points: 4
#     Node 6, Type 0, BuildingBlock: MUDLON_clean_sbu_0, # of connection points: 4
#     Node 7, Type 0, BuildingBlock: MUDLON_clean_sbu_0, # of connection points: 4
#     Node 8, Type 0, BuildingBlock: MUDLON_clean_sbu_0, # of connection points: 4
#     Node 9, Type 0, BuildingBlock: MUDLON_clean_sbu_0, # of connection points: 4
#     Node 10, Type 0, BuildingBlock: MUDLON_clean_sbu_0, # of connection points: 4
#     Node 11, Type 0, BuildingBlock: MUDLON_clean_sbu_0, # of connection points: 4
#     Node 12, Type 0, BuildingBlock: MUDLON_clean_sbu_0, # of connection points: 4
#     Node 13, Type 0, BuildingBlock: MUDLON_clean_sbu_0, # of connection points: 4
#     Node 14, Type 0, BuildingBlock: MUDLON_clean_sbu_0, # of connection points: 4
#     Node 15, Type 0, BuildingBlock: MUDLON_clean_sbu_0, # of connection points: 4
#     Node 16, Type 0, BuildingBlock: MUDLON_clean_sbu_0, # of connection points: 4
#     Node 17, Type 0, BuildingBlock: MUDLON_clean_sbu_0, # of connection points: 4
#     Node 18, Type 0, BuildingBlock: MUDLON_clean_sbu_0, # of connection points: 4
#     Node 19, Type 0, BuildingBlock: MUDLON_clean_sbu_0, # of connection points: 4
#     Node 20, Type 0, BuildingBlock: MUDLON_clean_sbu_0, # of connection points: 4
#     Node 21, Type 0, BuildingBlock: MUDLON_clean_sbu_0, # of connection points: 4
#     Node 22, Type 0, BuildingBlock: MUDLON_clean_sbu_0, # of connection points: 4
#     Node 23, Type 0, BuildingBlock: MUDLON_clean_sbu_0, # of connection points: 4
#     Node 24, Type 0, BuildingBlock: MUDLON_clean_sbu_0, # of connection points: 4
#     Node 25, Type 0, BuildingBlock: MUDLON_clean_sbu_0, # of connection points: 4
#     Node 26, Type 0, BuildingBlock: MUDLON_clean_sbu_0, # of connection points: 4
#     Node 27, Type 0, BuildingBlock: MUDLON_clean_sbu_0, # of connection points: 4
#     Node 28, Type 0, BuildingBlock: MUDLON_clean_sbu_0, # of connection points: 4
#     Node 29, Type 0, BuildingBlock: MUDLON_clean_sbu_0, # of connection points: 4
#     Node 30, Type 0, BuildingBlock: MUDLON_clean_sbu_0, # of connection points: 4
#     Node 31, Type 0, BuildingBlock: MUDLON_clean_sbu_0, # of connection points: 4
#     Edge 32, Type (0, 0), BuildingBlock: EZIPEK_clean_linker_0, # of connection points: 2
#     Edge 33, Type (0, 0), BuildingBlock: EZIPEK_clean_linker_0, # of connection points: 2
#     Edge 34, Type (0, 0), BuildingBlock: EZIPEK_clean_linker_0, # of connection points: 2
#     Edge 35, Type (0, 0), BuildingBlock: EZIPEK_clean_linker_0, # of connection points: 2
#     Edge 36, Type (0, 0), BuildingBlock: EZIPEK_clean_linker_0, # of connection points: 2
#     Edge 37, Type (0, 0), BuildingBlock: EZIPEK_clean_linker_0, # of connection points: 2
#     Edge 38, Type (0, 0), BuildingBlock: EZIPEK_clean_linker_0, # of connection points: 2
#     Edge 39, Type (0, 0), BuildingBlock: EZIPEK_clean_linker_0, # of connection points: 2
#     Edge 40, Type (0, 0), BuildingBlock: EZIPEK_clean_linker_0, # of connection points: 2
#     Edge 41, Type (0, 0), BuildingBlock: EZIPEK_clean_linker_0, # of connection points: 2
#     Edge 42, Type (0, 0), BuildingBlock: EZIPEK_clean_linker_0, # of connection points: 2
#     Edge 43, Type (0, 0), BuildingBlock: EZIPEK_clean_linker_0, # of connection points: 2
#     Edge 44, Type (0, 0), BuildingBlock: EZIPEK_clean_linker_0, # of connection points: 2
#     Edge 45, Type (0, 0), BuildingBlock: EZIPEK_clean_linker_0, # of connection points: 2
#     Edge 46, Type (0, 0), BuildingBlock: EZIPEK_clean_linker_0, # of connection points: 2
#     Edge 47, Type (0, 0), BuildingBlock: EZIPEK_clean_linker_0, # of connection points: 2
#     Edge 48, Type (0, 0), BuildingBlock: EZIPEK_clean_linker_0, # of connection points: 2
#     Edge 49, Type (0, 0), BuildingBlock: EZIPEK_clean_linker_0, # of connection points: 2
#     Edge 50, Type (0, 0), BuildingBlock: EZIPEK_clean_linker_0, # of connection points: 2
#     Edge 51, Type (0, 0), BuildingBlock: EZIPEK_clean_linker_0, # of connection points: 2
#     Edge 52, Type (0, 0), BuildingBlock: EZIPEK_clean_linker_0, # of connection points: 2
#     Edge 53, Type (0, 0), BuildingBlock: EZIPEK_clean_linker_0, # of connection points: 2
#     Edge 54, Type (0, 0), BuildingBlock: EZIPEK_clean_linker_0, # of connection points: 2
#     Edge 55, Type (0, 0), BuildingBlock: EZIPEK_clean_linker_0, # of connection points: 2
#     Edge 56, Type (0, 0), BuildingBlock: EZIPEK_clean_linker_0, # of connection points: 2
#     Edge 57, Type (0, 0), BuildingBlock: EZIPEK_clean_linker_0, # of connection points: 2
#     Edge 58, Type (0, 0), BuildingBlock: EZIPEK_clean_linker_0, # of connection points: 2
#     Edge 59, Type (0, 0), BuildingBlock: EZIPEK_clean_linker_0, # of connection points: 2
#     Edge 60, Type (0, 0), BuildingBlock: EZIPEK_clean_linker_0, # of connection points: 2
#     Edge 61, Type (0, 0), BuildingBlock: EZIPEK_clean_linker_0, # of connection points: 2
#     Edge 62, Type (0, 0), BuildingBlock: EZIPEK_clean_linker_0, # of connection points: 2
#     Edge 63, Type (0, 0), BuildingBlock: EZIPEK_clean_linker_0, # of connection points: 2
#     Edge 64, Type (0, 0), BuildingBlock: EZIPEK_clean_linker_0, # of connection points: 2
#     Edge 65, Type (0, 0), BuildingBlock: EZIPEK_clean_linker_0, # of connection points: 2
#     Edge 66, Type (0, 0), BuildingBlock: EZIPEK_clean_linker_0, # of connection points: 2
#     Edge 67, Type (0, 0), BuildingBlock: EZIPEK_clean_linker_0, # of connection points: 2
#     Edge 68, Type (0, 0), BuildingBlock: EZIPEK_clean_linker_0, # of connection points: 2
#     Edge 69, Type (0, 0), BuildingBlock: EZIPEK_clean_linker_0, # of connection points: 2
#     Edge 70, Type (0, 0), BuildingBlock: EZIPEK_clean_linker_0, # of connection points: 2
#     Edge 71, Type (0, 0), BuildingBlock: EZIPEK_clean_linker_0, # of connection points: 2
#     Edge 72, Type (0, 0), BuildingBlock: EZIPEK_clean_linker_0, # of connection points: 2
#     Edge 73, Type (0, 0), BuildingBlock: EZIPEK_clean_linker_0, # of connection points: 2
#     Edge 74, Type (0, 0), BuildingBlock: EZIPEK_clean_linker_0, # of connection points: 2
#     Edge 75, Type (0, 0), BuildingBlock: EZIPEK_clean_linker_0, # of connection points: 2
#     Edge 76, Type (0, 0), BuildingBlock: EZIPEK_clean_linker_0, # of connection points: 2
#     Edge 77, Type (0, 0), BuildingBlock: EZIPEK_clean_linker_0, # of connection points: 2
#     Edge 78, Type (0, 0), BuildingBlock: EZIPEK_clean_linker_0, # of connection points: 2
#     Edge 79, Type (0, 0), BuildingBlock: EZIPEK_clean_linker_0, # of connection points: 2
#     Edge 80, Type (0, 0), BuildingBlock: EZIPEK_clean_linker_0, # of connection points: 2
#     Edge 81, Type (0, 0), BuildingBlock: EZIPEK_clean_linker_0, # of connection points: 2
#     Edge 82, Type (0, 0), BuildingBlock: EZIPEK_clean_linker_0, # of connection points: 2
#     Edge 83, Type (0, 0), BuildingBlock: EZIPEK_clean_linker_0, # of connection points: 2
#     Edge 84, Type (0, 0), BuildingBlock: EZIPEK_clean_linker_0, # of connection points: 2
#     Edge 85, Type (0, 0), BuildingBlock: EZIPEK_clean_linker_0, # of connection points: 2
#     Edge 86, Type (0, 0), BuildingBlock: EZIPEK_clean_linker_0, # of connection points: 2
#     Edge 87, Type (0, 0), BuildingBlock: EZIPEK_clean_linker_0, # of connection points: 2
#     Edge 88, Type (0, 0), BuildingBlock: EZIPEK_clean_linker_0, # of connection points: 2
#     Edge 89, Type (0, 0), BuildingBlock: EZIPEK_clean_linker_0, # of connection points: 2
#     Edge 90, Type (0, 0), BuildingBlock: EZIPEK_clean_linker_0, # of connection points: 2
#     Edge 91, Type (0, 0), BuildingBlock: EZIPEK_clean_linker_0, # of connection points: 2
#     Edge 92, Type (0, 0), BuildingBlock: EZIPEK_clean_linker_0, # of connection points: 2
#     Edge 93, Type (0, 0), BuildingBlock: EZIPEK_clean_linker_0, # of connection points: 2
#     Edge 94, Type (0, 0), BuildingBlock: EZIPEK_clean_linker_0, # of connection points: 2
#     Edge 95, Type (0, 0), BuildingBlock: EZIPEK_clean_linker_0, # of connection points: 2
# Relax obj value: 0.110
# Max RMSD: 0.249
# Mean RMSD: 0.248
data_MOF--net-uoa--node1-MUDLON_clean_sbu_0--edge1-EZIPEK_clean_linker_0
_symmetry_space_group_name_H-M    P1
_symmetry_Int_Tables_number       1
_symmetry_cell_setting            triclinic
loop_
_symmetry_equiv_pos_as_xyz
'x, y, z'
_cell_length_a     58.708499
_cell_length_b     58.872818
_cell_length_c     21.920228
_cell_angle_alpha  90.042023
_cell_angle_beta   89.934535
_cell_angle_gamma 89.952929
loop_
_atom_site_label
_atom_site_type_symbol
_atom_site_fract_x
_atom_site_fract_y
_atom_site_fract_z
_atom_type_partial_charge
Mg0 Mg 0.02777 0.09316 0.07322 0.0
C1 C 0.00578 0.0497 0.04829 0.0
O2 O 0.98883 0.06424 0.046 0.0
C3 C 0.0634 0.12639 0.10459 0.0
O4 O 0.04464 0.13845 0.10929 0.0
C5 C 0.02814 0.10698 0.94208 0.0
O6 O 0.05017 0.10607 0.95228 0.0
O7 O 0.01439 0.10485 0.98656 0.0
O8 O 0.02563 0.05671 0.06191 0.0
O9 O 0.0075 0.10231 0.15235 0.0
C10 C 0.01597 0.09623 0.20313 0.0
O11 O 0.03542 0.08523 0.20389 0.0
O12 O 0.0621 0.10572 0.08826 0.0
Mg13 Mg 0.16502 0.78667 0.31229 0.0
C14 C 0.16681 0.76956 0.43785 0.0
O15 O 0.1864 0.78005 0.43142 0.0
C16 C 0.15582 0.78893 0.18035 0.0
O17 O 0.16196 0.80991 0.1924 0.0
C18 C 0.13145 0.82151 0.34352 0.0
O19 O 0.11955 0.80264 0.34121 0.0
O20 O 0.15261 0.82087 0.33075 0.0
O21 O 0.15369 0.76788 0.39194 0.0
O22 O 0.20165 0.78198 0.30212 0.0
C23 C 0.20753 0.76176 0.28842 0.0
O24 O 0.19191 0.74581 0.2863 0.0
O25 O 0.15296 0.77508 0.22422 0.0
Mg26 Mg 0.47838 0.90901 0.5769 0.0
C27 C 0.49374 0.95498 0.5565 0.0
O28 O 0.5124 0.94312 0.56535 0.0
C29 C 0.42779 0.88925 0.57809 0.0
O30 O 0.42149 0.90386 0.53612 0.0
C31 C 0.48279 0.89236 0.44743 0.0
O32 O 0.46107 0.88823 0.45625 0.0
O33 O 0.49504 0.89861 0.49231 0.0
O34 O 0.47448 0.94518 0.56086 0.0
O35 O 0.49714 0.90596 0.66218 0.0
C36 C 0.49423 0.88824 0.69453 0.0
O37 O 0.48393 0.87055 0.67069 0.0
O38 O 0.44818 0.88899 0.59725 0.0
Mg39 Mg 0.34693 0.22137 0.79958 0.0
C40 C 0.34765 0.23634 0.92335 0.0
O41 O 0.33297 0.21953 0.92045 0.0
C42 C 0.35468 0.21687 0.66781 0.0
O43 O 0.34738 0.1965 0.68251 0.0
C44 C 0.38065 0.1852 0.8163 0.0
O45 O 0.39095 0.1991 0.77837 0.0
O46 O 0.35981 0.18863 0.82881 0.0
O47 O 0.35734 0.24286 0.87452 0.0
O48 O 0.31036 0.22451 0.791 0.0
C49 C 0.3036 0.24486 0.78357 0.0
O50 O 0.31848 0.26149 0.78603 0.0
O51 O 0.35868 0.23117 0.70989 0.0
Mg52 Mg 0.02544 0.90847 0.45596 0.0
C53 C 0.01083 0.95468 0.47882 0.0
O54 O 0.99191 0.94327 0.4697 0.0
C55 C 0.07594 0.8958 0.42858 0.0
O56 O 0.0802 0.91768 0.43121 0.0
C57 C 0.02117 0.89748 0.58664 0.0
O58 O 0.04333 0.89876 0.5789 0.0
O59 O 0.00828 0.89837 0.53997 0.0
O60 O 0.02985 0.94446 0.4734 0.0
O61 O 0.00739 0.90592 0.36937 0.0
C62 C 0.01056 0.8886 0.33559 0.0
O63 O 0.02124 0.87085 0.35791 0.0
O64 O 0.0561 0.88847 0.44087 0.0
Mg65 Mg 0.33991 0.78128 0.70291 0.0
C66 C 0.34193 0.76873 0.574 0.0
O67 O 0.33073 0.78805 0.57394 0.0
C68 C 0.34842 0.78331 0.83513 0.0
O69 O 0.34123 0.80398 0.82325 0.0
C70 C 0.37431 0.81809 0.69028 0.0
O71 O 0.3858 0.80303 0.72205 0.0
O72 O 0.35337 0.81453 0.67916 0.0
O73 O 0.34847 0.76032 0.62452 0.0
O74 O 0.30333 0.77913 0.71546 0.0
C75 C 0.2959 0.75904 0.72362 0.0
O76 O 0.31005 0.74183 0.71883 0.0
O77 O 0.35204 0.76969 0.79107 0.0
Mg78 Mg 0.47768 0.09082 0.96164 0.0
C79 C 0.49545 0.04591 0.9843 0.0
O80 O 0.51332 0.0593 0.98491 0.0
C81 C 0.44094 0.12739 0.95697 0.0
O82 O 0.45243 0.13547 1.00351 0.0
C83 C 0.47734 0.10167 0.09666 0.0
O84 O 0.45532 0.1013 0.08633 0.0
O85 O 0.49098 0.10044 0.05139 0.0
O86 O 0.47592 0.0543 0.9728 0.0
O87 O 0.49838 0.0953 0.87968 0.0
C88 C 0.49631 0.11332 0.84808 0.0
O89 O 0.48612 0.13105 0.8721 0.0
O90 O 0.44624 0.10801 0.93545 0.0
Mg91 Mg 0.16316 0.22194 0.20862 0.0
C92 C 0.16783 0.23711 0.07985 0.0
O93 O 0.18541 0.22349 0.08595 0.0
C94 C 0.15757 0.22584 0.34035 0.0
O95 O 0.16087 0.20398 0.33196 0.0
C96 C 0.14477 0.17736 0.15958 0.0
O97 O 0.1615 0.17993 0.12048 0.0
O98 O 0.14278 0.1912 0.20371 0.0
O99 O 0.1551 0.24081 0.12583 0.0
O100 O 0.19992 0.21888 0.21668 0.0
C101 C 0.20981 0.23813 0.21805 0.0
O102 O 0.19768 0.25661 0.20935 0.0
O103 O 0.15547 0.2387 0.29407 0.0
Mg104 Mg 0.97005 0.91082 0.9587 0.0
C105 C 0.98185 0.90828 0.82758 0.0
O106 O 0.96229 0.91908 0.8272 0.0
C107 C 0.99608 0.90239 0.07684 0.0
O108 O 0.00986 0.91752 0.05311 0.0
C109 C 0.9349 0.87825 0.92378 0.0
O110 O 0.95372 0.86615 0.92374 0.0
O111 O 0.93587 0.89914 0.93812 0.0
O112 O 0.99052 0.90235 0.8784 0.0
O113 O 0.97133 0.94721 0.97514 0.0
C114 C 0.99041 0.95724 0.97016 0.0
O115 O 0.00827 0.94589 0.95086 0.0
O116 O 0.97949 0.89493 0.04535 0.0
Mg117 Mg 0.8441 0.22674 0.69549 0.0
C118 C 0.79548 0.22644 0.74344 0.0
O119 O 0.80556 0.21984 0.79373 0.0
C120 C 0.86092 0.18135 0.64787 0.0
O121 O 0.84593 0.18569 0.60505 0.0
C122 C 0.85338 0.23367 0.8283 0.0
O123 O 0.85123 0.21147 0.82635 0.0
O124 O 0.8533 0.24484 0.77864 0.0
O125 O 0.80684 0.22741 0.69403 0.0
O126 O 0.85528 0.24454 0.61358 0.0
C127 C 0.84337 0.24263 0.56536 0.0
O128 O 0.8244 0.23084 0.56695 0.0
O129 O 0.86212 0.19439 0.69393 0.0
Mg130 Mg 0.53237 0.09272 0.46598 0.0
C131 C 0.51778 0.09335 0.33718 0.0
O132 O 0.53545 0.07965 0.33683 0.0
C133 C 0.50847 0.10096 0.58798 0.0
O134 O 0.49397 0.08626 0.56545 0.0
C135 C 0.57086 0.12463 0.45122 0.0
O136 O 0.55555 0.13732 0.47864 0.0
O137 O 0.5664 0.10387 0.44051 0.0
O138 O 0.51134 0.10209 0.38759 0.0
O139 O 0.52956 0.05616 0.48009 0.0
C140 C 0.50986 0.0472 0.47705 0.0
O141 O 0.49239 0.05973 0.4608 0.0
O142 O 0.52469 0.10821 0.55475 0.0
Mg143 Mg 0.65848 0.77035 0.19775 0.0
C144 C 0.7094 0.77436 0.2377 0.0
O145 O 0.70375 0.79309 0.26659 0.0
C146 C 0.64366 0.81525 0.14528 0.0
O147 O 0.65369 0.80667 0.09695 0.0
C148 C 0.65197 0.7663 0.32867 0.0
O149 O 0.66077 0.78664 0.32186 0.0
O150 O 0.64625 0.75513 0.28141 0.0
O151 O 0.69485 0.76408 0.205 0.0
O152 O 0.64793 0.75311 0.11435 0.0
C153 C 0.66216 0.75408 0.07058 0.0
O154 O 0.68162 0.76464 0.07875 0.0
O155 O 0.64517 0.80479 0.19571 0.0
Mg156 Mg 0.97563 0.09196 0.57441 0.0
C157 C 0.98729 0.09721 0.70415 0.0
O158 O 0.96739 0.0871 0.70658 0.0
C159 C 0.9753 0.1029 0.44224 0.0
O160 O 0.95352 0.09931 0.45214 0.0
C161 C 0.94052 0.12597 0.60356 0.0
O162 O 0.9596 0.13746 0.60854 0.0
O163 O 0.94135 0.10516 0.58821 0.0
O164 O 0.99591 0.102 0.65252 0.0
O165 O 0.97811 0.05536 0.56511 0.0
C166 C 0.99803 0.04827 0.55215 0.0
O167 O 0.01496 0.06283 0.55022 0.0
O168 O 0.98895 0.1032 0.48723 0.0
Mg169 Mg 0.65609 0.2306 0.33507 0.0
C170 C 0.70087 0.24642 0.29661 0.0
O171 O 0.68779 0.2644 0.29104 0.0
C172 C 0.64499 0.17955 0.36439 0.0
O173 O 0.66677 0.17492 0.35849 0.0
C174 C 0.64283 0.23084 0.20661 0.0
O175 O 0.65255 0.21101 0.21583 0.0
O176 O 0.64175 0.24436 0.25178 0.0
O177 O 0.69231 0.22794 0.31617 0.0
O178 O 0.65242 0.25088 0.41719 0.0
C179 C 0.63477 0.24885 0.45044 0.0
O180 O 0.61765 0.23642 0.43129 0.0
O181 O 0.63772 0.19957 0.35525 0.0
Mg182 Mg 0.53216 0.90744 0.07334 0.0
C183 C 0.52269 0.90152 0.20656 0.0
O184 O 0.54411 0.9079 0.20712 0.0
C185 C 0.5057 0.9002 0.95491 0.0
O186 O 0.4925 0.91603 0.97786 0.0
C187 C 0.56607 0.874 0.10815 0.0
O188 O 0.54634 0.86429 0.11917 0.0
O189 O 0.56624 0.89418 0.08764 0.0
O190 O 0.51239 0.89953 0.15563 0.0
O191 O 0.53104 0.94383 0.05691 0.0
C192 C 0.51189 0.95368 0.06334 0.0
O193 O 0.49451 0.94215 0.0848 0.0
O194 O 0.52164 0.8919 0.98723 0.0
Mg195 Mg 0.84648 0.77641 0.80879 0.0
C196 C 0.80178 0.75481 0.7881 0.0
O197 O 0.81552 0.73738 0.79489 0.0
C198 C 0.85774 0.82282 0.86137 0.0
O199 O 0.84056 0.81824 0.89767 0.0
C200 C 0.85121 0.7688 0.6797 0.0
O201 O 0.83541 0.78449 0.68511 0.0
O202 O 0.86093 0.76148 0.72756 0.0
O203 O 0.80974 0.77483 0.79372 0.0
O204 O 0.85501 0.75853 0.89227 0.0
C205 C 0.84045 0.75959 0.93513 0.0
O206 O 0.82105 0.77008 0.92542 0.0
O207 O 0.86227 0.8095 0.81749 0.0
Mg208 Mg 0.52998 0.58768 0.5681 0.0
C209 C 0.50668 0.54505 0.54005 0.0
O210 O 0.49083 0.5604 0.53075 0.0
C211 C 0.56831 0.619 0.59457 0.0
O212 O 0.55047 0.63223 0.6018 0.0
C213 C 0.53023 0.603 0.43769 0.0
O214 O 0.55227 0.60289 0.44792 0.0
O215 O 0.51654 0.59977 0.48184 0.0
O216 O 0.52629 0.55126 0.55822 0.0
O217 O 0.51017 0.59696 0.6485 0.0
C218 C 0.52104 0.59666 0.69863 0.0
O219 O 0.54295 0.59225 0.69782 0.0
O220 O 0.5653 0.59844 0.57885 0.0
Mg221 Mg 0.65968 0.27321 0.83405 0.0
C222 C 0.65732 0.2594 0.96236 0.0
O223 O 0.67575 0.27203 0.96036 0.0
C224 C 0.64534 0.27564 0.70271 0.0
O225 O 0.6524 0.29659 0.71079 0.0
C226 C 0.628 0.31029 0.85498 0.0
O227 O 0.61549 0.29375 0.83271 0.0
O228 O 0.64952 0.30776 0.85668 0.0
O229 O 0.64664 0.2553 0.9131 0.0
O230 O 0.69595 0.26528 0.82803 0.0
C231 C 0.70717 0.26851 0.77912 0.0
O232 O 0.69781 0.27973 0.73392 0.0
O233 O 0.64473 0.26217 0.74807 0.0
Mg234 Mg 0.97316 0.41017 0.06869 0.0
C235 C 0.99517 0.45627 0.06563 0.0
O236 O 0.01157 0.44456 0.09153 0.0
C237 C 0.92593 0.38899 0.0628 0.0
O238 O 0.92881 0.39104 1.0036 0.0
C239 C 0.99707 0.40112 0.94782 0.0
O240 O 0.01396 0.41089 0.97695 0.0
O241 O 0.97916 0.39601 0.97739 0.0
O242 O 0.97618 0.44668 0.05451 0.0
O243 O 0.9932 0.40157 0.14946 0.0
C244 C 0.98853 0.38355 0.17909 0.0
O245 O 0.9767 0.36747 0.15221 0.0
O246 O 0.94015 0.3981 0.0988 0.0
Mg247 Mg 0.84425 0.72347 0.31126 0.0
C248 C 0.8482 0.73643 0.43563 0.0
O249 O 0.83143 0.72171 0.43251 0.0
C250 C 0.84986 0.72318 0.17793 0.0
O251 O 0.83745 0.70492 0.18656 0.0
C252 C 0.87112 0.68109 0.31359 0.0
O253 O 0.88007 0.69149 0.26631 0.0
O254 O 0.85287 0.68891 0.33663 0.0
O255 O 0.85851 0.74195 0.38688 0.0
O256 O 0.80874 0.73392 0.30832 0.0
C257 C 0.79273 0.72409 0.27978 0.0
O258 O 0.79631 0.70435 0.25355 0.0
O259 O 0.85786 0.73364 0.22386 0.0
Mg260 Mg 0.5276 0.40462 0.96089 0.0
C261 C 0.51048 0.45178 0.97719 0.0
O262 O 0.49235 0.44124 0.95648 0.0
C263 C 0.57354 0.37983 0.97119 0.0
O264 O 0.56986 0.38129 0.0302 0.0
C265 C 0.50361 0.39784 0.08471 0.0
O266 O 0.49339 0.41675 0.06903 0.0
O267 O 0.51682 0.38798 0.04673 0.0
O268 O 0.52916 0.4409 0.9813 0.0
O269 O 0.50849 0.40071 0.87508 0.0
C270 C 0.51333 0.38425 0.83941 0.0
O271 O 0.52595 0.36748 0.85996 0.0
O272 O 0.5601 0.38973 0.93448 0.0
Mg273 Mg 0.83873 0.28233 0.19987 0.0
C274 C 0.84351 0.27291 0.06896 0.0
O275 O 0.83746 0.29439 0.0706 0.0
C276 C 0.85335 0.2813 0.3294 0.0
O277 O 0.84192 0.30046 0.32562 0.0
C278 C 0.87323 0.31718 0.17438 0.0
O279 O 0.88539 0.2993 0.18952 0.0
O280 O 0.85166 0.31604 0.1782 0.0
O281 O 0.84549 0.26206 0.11884 0.0
O282 O 0.80251 0.28038 0.21891 0.0
C283 C 0.79448 0.26039 0.22393 0.0
O284 O 0.80796 0.24286 0.21519 0.0
O285 O 0.85505 0.26937 0.28129 0.0
Mg286 Mg 0.97074 0.58982 0.4545 0.0
C287 C 0.99214 0.5459 0.47365 0.0
O288 O 0.00912 0.56035 0.47756 0.0
C289 C 0.93243 0.62342 0.45078 0.0
O290 O 0.94484 0.63244 0.49435 0.0
C291 C 0.96952 0.59804 0.58909 0.0
O292 O 0.94813 0.59252 0.57958 0.0
O293 O 0.9828 0.60045 0.54366 0.0
O294 O 0.9723 0.55322 0.46105 0.0
O295 O 0.99272 0.59924 0.37905 0.0
C296 C 0.98336 0.59713 0.32703 0.0
O297 O 0.96221 0.59005 0.32365 0.0
O298 O 0.93784 0.60403 0.42987 0.0
Mg299 Mg 0.66428 0.71447 0.69855 0.0
C300 C 0.66724 0.73148 0.57134 0.0
O301 O 0.68698 0.72129 0.57808 0.0
C302 C 0.65307 0.71575 0.82926 0.0
O303 O 0.65482 0.69382 0.81903 0.0
C304 C 0.65031 0.66873 0.64588 0.0
O305 O 0.66714 0.67272 0.60798 0.0
O306 O 0.64708 0.68197 0.69077 0.0
O307 O 0.65382 0.73264 0.61682 0.0
O308 O 0.70125 0.71541 0.70683 0.0
C309 C 0.70864 0.73533 0.71807 0.0
O310 O 0.69415 0.75234 0.71937 0.0
O311 O 0.65402 0.72944 0.78449 0.0
Mg312 Mg 0.47088 0.40479 0.46275 0.0
C313 C 0.49095 0.38241 0.34368 0.0
O314 O 0.48843 0.36284 0.37155 0.0
C315 C 0.49849 0.39681 0.57898 0.0
O316 O 0.51067 0.41342 0.5561 0.0
C317 C 0.43302 0.37236 0.4458 0.0
O318 O 0.45011 0.35878 0.45866 0.0
O319 O 0.43611 0.39371 0.44709 0.0
O320 O 0.48718 0.40082 0.37263 0.0
O321 O 0.47157 0.44079 0.48476 0.0
C322 C 0.48972 0.45172 0.47299 0.0
O323 O 0.50656 0.44142 0.44478 0.0
O324 O 0.48285 0.38788 0.54657 0.0
Mg325 Mg 0.3469 0.72722 0.20186 0.0
C326 C 0.30087 0.74379 0.2178 0.0
O327 O 0.31351 0.76211 0.2131 0.0
C328 C 0.36212 0.68152 0.14744 0.0
O329 O 0.34312 0.68302 0.11617 0.0
C330 C 0.35484 0.72885 0.33505 0.0
O331 O 0.35348 0.70685 0.32563 0.0
O332 O 0.3551 0.7422 0.28943 0.0
O333 O 0.31019 0.72439 0.21144 0.0
O334 O 0.35373 0.74891 0.1236 0.0
C335 C 0.34266 0.74385 0.07567 0.0
O336 O 0.3276 0.72739 0.07782 0.0
O337 O 0.36668 0.69631 0.1879 0.0
Mg338 Mg 0.02443 0.59435 0.95733 0.0
C339 C 0.01249 0.59646 0.82615 0.0
O340 O 0.03381 0.58975 0.82405 0.0
C341 C 0.02367 0.60472 0.08805 0.0
O342 O 0.04532 0.60048 0.07793 0.0
C343 C 0.05568 0.63053 0.91844 0.0
O344 O 0.0355 0.63867 0.90447 0.0
O345 O 0.05702 0.61101 0.94294 0.0
O346 O 0.00318 0.6002 0.87762 0.0
O347 O 0.02608 0.55812 0.97368 0.0
C348 C 0.00669 0.54894 0.98186 0.0
O349 O 0.98823 0.56122 0.97394 0.0
O350 O 0.01005 0.6057 0.04306 0.0
Mg351 Mg 0.16397 0.28272 0.70652 0.0
C352 C 0.20951 0.26358 0.72419 0.0
O353 O 0.19619 0.2457 0.7223 0.0
C354 C 0.14494 0.32562 0.64985 0.0
O355 O 0.15758 0.31897 0.60382 0.0
C356 C 0.16124 0.27499 0.83799 0.0
O357 O 0.17455 0.29281 0.83268 0.0
O358 O 0.1523 0.26667 0.79008 0.0
O359 O 0.20091 0.28325 0.71666 0.0
O360 O 0.15598 0.26352 0.62421 0.0
C361 C 0.16902 0.26653 0.57854 0.0
O362 O 0.18662 0.28011 0.58367 0.0
O363 O 0.14605 0.31493 0.70007 0.0
Mg364 Mg 0.47541 0.59041 0.07126 0.0
C365 C 0.48818 0.5947 0.20128 0.0
O366 O 0.46852 0.58419 0.20504 0.0
C367 C 0.47886 0.598 0.93713 0.0
O368 O 0.45872 0.58844 0.9412 0.0
C369 C 0.43991 0.62559 0.09066 0.0
O370 O 0.45834 0.63801 0.08439 0.0
O371 O 0.44137 0.60413 0.08565 0.0
O372 O 0.49602 0.60003 0.14918 0.0
O373 O 0.47614 0.55356 0.06252 0.0
C374 C 0.49578 0.5446 0.05688 0.0
O375 O 0.51392 0.55747 0.06254 0.0
O376 O 0.48983 0.60246 0.98569 0.0
Mg377 Mg 0.15452 0.73099 0.81405 0.0
C378 C 0.2015 0.74655 0.79188 0.0
O379 O 0.18966 0.76546 0.79254 0.0
C380 C 0.13188 0.69064 0.8749 0.0
O381 O 0.14198 0.69936 0.92283 0.0
C382 C 0.15192 0.73733 0.68228 0.0
O383 O 0.16339 0.71832 0.68908 0.0
O384 O 0.14376 0.74695 0.72946 0.0
O385 O 0.19139 0.72779 0.80218 0.0
O386 O 0.14806 0.7519 0.8946 0.0
C387 C 0.1611 0.74881 0.94018 0.0
O388 O 0.17786 0.73411 0.93579 0.0
O389 O 0.13517 0.69951 0.82279 0.0
Mg390 Mg 0.02469 0.40454 0.55976 0.0
C391 C 0.99784 0.40888 0.68289 0.0
O392 O 0.98902 0.42723 0.65857 0.0
C393 C 0.99806 0.39249 0.44158 0.0
O394 O 0.98208 0.40547 0.46462 0.0
C395 C 0.06262 0.3764 0.60465 0.0
O396 O 0.04465 0.36693 0.62962 0.0
O397 O 0.05997 0.39383 0.5711 0.0
O398 O 0.01026 0.39596 0.65021 0.0
O399 O 0.02309 0.44106 0.54147 0.0
C400 C 0.00413 0.45128 0.53476 0.0
O401 O 0.98499 0.44008 0.54104 0.0
O402 O 0.01517 0.38717 0.47427 0.0
Mg403 Mg 0.34949 0.27214 0.30262 0.0
C404 C 0.30475 0.2515 0.28016 0.0
O405 O 0.31879 0.23413 0.27771 0.0
C406 C 0.35778 0.31839 0.36482 0.0
O407 O 0.33765 0.31535 0.38964 0.0
C408 C 0.35121 0.26834 0.16967 0.0
O409 O 0.33439 0.28263 0.17952 0.0
O410 O 0.36256 0.26104 0.21498 0.0
O411 O 0.31261 0.27113 0.29258 0.0
O412 O 0.35798 0.24991 0.37808 0.0
C413 C 0.34632 0.25392 0.42578 0.0
O414 O 0.33015 0.26932 0.42366 0.0
O415 O 0.36521 0.3044 0.32539 0.0
C416 C 0.01787 0.0872 0.77864 0.0
C417 C 0.99976 0.10176 0.76146 0.0
C418 C 0.00313 0.12226 0.8586 0.0
C419 C 0.01932 0.106 0.87867 0.0
N420 N 0.03907 0.07042 0.86165 0.0
N421 N 0.97367 0.13211 0.78558 0.0
C422 C 0.02613 0.08792 0.8395 0.0
C423 C 0.99197 0.11903 0.8016 0.0
N424 N 0.02695 0.07238 0.73711 0.0
N425 N 0.99896 0.14115 0.89323 0.0
H426 H 0.96588 0.13107 0.74292 0.0
H427 H 0.9654 0.14307 0.81562 0.0
H428 H 0.00708 0.14416 0.93476 0.0
H429 H 0.98905 0.15475 0.87855 0.0
H430 H 0.04189 0.06326 0.7448 0.0
H431 H 0.02067 0.0705 0.69294 0.0
H432 H 0.04229 0.05556 0.83731 0.0
H433 H 0.04458 0.06941 0.9067 0.0
C434 C 0.17627 0.77524 0.0193 0.0
C435 C 0.15805 0.76166 0.9979 0.0
C436 C 0.13665 0.76968 0.09188 0.0
C437 C 0.15613 0.78053 0.1165 0.0
N438 N 0.19598 0.79056 0.10682 0.0
N439 N 0.12168 0.74383 0.01599 0.0
C440 C 0.17631 0.7827 0.08091 0.0
C441 C 0.13832 0.75846 0.03451 0.0
N442 N 0.19341 0.78132 0.98028 0.0
N443 N 0.1164 0.77058 0.12265 0.0
H444 H 0.1222 0.73551 0.97419 0.0
H445 H 0.10826 0.73864 0.04379 0.0
H446 H 0.11454 0.77879 0.16453 0.0
H447 H 0.10103 0.76503 0.1042 0.0
H448 H 0.20595 0.79312 0.9914 0.0
H449 H 0.19379 0.77634 0.9346 0.0
H450 H 0.21171 0.79009 0.08485 0.0
H451 H 0.19729 0.79526 0.1525 0.0
C452 C 0.49362 0.91308 0.28491 0.0
C453 C 0.51078 0.89771 0.26555 0.0
C454 C 0.50992 0.87893 0.36584 0.0
C455 C 0.49198 0.89362 0.38421 0.0
N456 N 0.46475 0.92308 0.35914 0.0
N457 N 0.53297 0.86391 0.283 0.0
C458 C 0.4831 0.91005 0.34287 0.0
C459 C 0.51831 0.88005 0.30485 0.0
N460 N 0.48845 0.93155 0.24964 0.0
N461 N 0.51905 0.86401 0.40692 0.0
H462 H 0.53939 0.86419 0.23867 0.0
H463 H 0.53738 0.84925 0.30672 0.0
H464 H 0.5124 0.86163 0.45058 0.0
H465 H 0.53394 0.85485 0.39918 0.0
H466 H 0.47839 0.94504 0.26443 0.0
H467 H 0.49568 0.9344 0.20694 0.0
H468 H 0.45553 0.93287 0.32827 0.0
H469 H 0.45791 0.92346 0.40296 0.0
C470 C 0.33156 0.22961 0.50957 0.0
C471 C 0.35014 0.24144 0.4834 0.0
C472 C 0.3731 0.23358 0.57447 0.0
C473 C 0.35351 0.22454 0.60356 0.0
N474 N 0.31279 0.21802 0.60246 0.0
N475 N 0.38799 0.25706 0.49284 0.0
C476 C 0.33239 0.22347 0.57201 0.0
C477 C 0.37088 0.24391 0.51606 0.0
N478 N 0.31321 0.22397 0.47435 0.0
N479 N 0.39389 0.23187 0.60215 0.0
H480 H 0.38715 0.26475 0.4501 0.0
H481 H 0.40233 0.26174 0.51778 0.0
H482 H 0.39608 0.2244 0.64487 0.0
H483 H 0.40914 0.23606 0.58064 0.0
H484 H 0.30012 0.21343 0.48944 0.0
H485 H 0.31225 0.22786 0.42797 0.0
H486 H 0.29666 0.2195 0.58308 0.0
H487 H 0.31223 0.21442 0.64896 0.0
C488 C 0.01078 0.91886 0.74865 0.0
C489 C 0.99355 0.90379 0.76875 0.0
C490 C 0.99594 0.88299 0.67157 0.0
C491 C 0.01149 0.89947 0.64925 0.0
N492 N 0.03012 0.93579 0.66251 0.0
N493 N 0.96777 0.87289 0.74813 0.0
C494 C 0.0181 0.91806 0.68686 0.0
C495 C 0.98555 0.88623 0.7298 0.0
N496 N 0.02008 0.93409 0.78858 0.0
N497 N 0.99174 0.86384 0.63813 0.0
H498 H 0.96054 0.87399 0.79153 0.0
H499 H 0.95931 0.86166 0.71928 0.0
H500 H 0.99914 0.86085 0.59561 0.0
H501 H 0.98244 0.85008 0.65451 0.0
H502 H 0.03444 0.94378 0.77863 0.0
H503 H 0.01465 0.93566 0.83364 0.0
H504 H 0.03318 0.9509 0.68579 0.0
H505 H 0.03488 0.93663 0.61677 0.0
C506 C 0.36777 0.76589 0.92627 0.0
C507 C 0.34778 0.77472 0.89873 0.0
C508 C 0.32646 0.76813 0.99343 0.0
C509 C 0.34558 0.7567 0.01809 0.0
N510 N 0.38409 0.74296 1.00717 0.0
N511 N 0.30706 0.78106 0.90269 0.0
C512 C 0.36625 0.75527 0.98455 0.0
C513 C 0.32686 0.77517 0.93154 0.0
N514 N 0.38829 0.7682 0.89738 0.0
N515 N 0.30803 0.77263 0.02974 0.0
H516 H 0.30624 0.78553 0.85676 0.0
H517 H 0.29102 0.77924 0.92244 0.0
H518 H 0.30728 0.76792 0.07558 0.0
H519 H 0.29452 0.78296 0.01635 0.0
H520 H 0.40383 0.76427 0.91765 0.0
H521 H 0.38997 0.77586 0.85472 0.0
H522 H 0.39852 0.73885 0.98176 0.0
H523 H 0.38392 0.73555 0.05033 0.0
C524 C 0.50569 0.11466 0.17585 0.0
C525 C 0.4862 0.10156 0.16068 0.0
C526 C 0.48436 0.08821 0.26711 0.0
C527 C 0.50585 0.09819 0.27879 0.0
N528 N 0.53873 0.1184 0.24092 0.0
N529 N 0.45954 0.07205 0.19117 0.0
C530 C 0.51705 0.11067 0.23214 0.0
C531 C 0.476 0.08749 0.20624 0.0
N532 N 0.51288 0.13157 0.13775 0.0
N533 N 0.47208 0.07891 0.31378 0.0
H534 H 0.45344 0.06957 0.14721 0.0
H535 H 0.45364 0.05971 0.22133 0.0
H536 H 0.47793 0.07835 0.35856 0.0
H537 H 0.45522 0.07368 0.30901 0.0
H538 H 0.52575 0.14297 0.14928 0.0
H539 H 0.50427 0.13592 0.09786 0.0
H540 H 0.54857 0.12543 0.20614 0.0
H541 H 0.54756 0.11608 0.2816 0.0
C542 C 0.14573 0.26063 0.48348 0.0
C543 C 0.16488 0.25482 0.51979 0.0
C544 C 0.17998 0.23145 0.43664 0.0
C545 C 0.15984 0.23564 0.40236 0.0
N546 N 0.12171 0.2508 0.39755 0.0
N547 N 0.19797 0.23136 0.53605 0.0
C548 C 0.14215 0.24925 0.42707 0.0
C549 C 0.18131 0.23918 0.49788 0.0
N550 N 0.13158 0.27782 0.50136 0.0
N551 N 0.19836 0.22121 0.40981 0.0
H552 H 0.19941 0.23656 0.58139 0.0
H553 H 0.20899 0.21814 0.5246 0.0
H554 H 0.19861 0.21603 0.36436 0.0
H555 H 0.21428 0.22007 0.43058 0.0
H556 H 0.11879 0.28451 0.47378 0.0
H557 H 0.13397 0.28682 0.54168 0.0
H558 H 0.1074 0.25853 0.41655 0.0
H559 H 0.11841 0.24256 0.35637 0.0
C560 C 0.02441 0.88739 0.22685 0.0
C561 C 0.00614 0.89018 0.26892 0.0
C562 C 0.98087 0.90096 0.18464 0.0
C563 C 0.99862 0.8962 0.14223 0.0
N564 N 0.03561 0.88005 0.12228 0.0
N565 N 0.96593 0.89517 0.28665 0.0
C566 C 0.01986 0.88787 0.16321 0.0
C567 C 0.98402 0.89558 0.24739 0.0
N568 N 0.04635 0.88576 0.2473 0.0
N569 N 0.96155 0.9119 0.16596 0.0
H570 H 0.9676 0.89118 0.33278 0.0
H571 H 0.94907 0.89665 0.27233 0.0
H572 H 0.95863 0.91676 0.12096 0.0
H573 H 0.94929 0.91806 0.19614 0.0
H574 H 0.06045 0.88615 0.21838 0.0
H575 H 0.05077 0.88645 0.29327 0.0
H576 H 0.05048 0.87167 0.13525 0.0
H577 H 0.03272 0.87986 0.07533 0.0
C578 C 0.86697 0.2508 0.99234 0.0
C579 C 0.8462 0.26158 1.00892 0.0
C580 C 0.83247 0.25813 0.9039 0.0
C581 C 0.8522 0.24534 0.88835 0.0
N582 N 0.8874 0.22753 0.91896 0.0
N583 N 0.80705 0.27002 0.9847 0.0
C584 C 0.86916 0.241 0.93311 0.0
C585 C 0.82837 0.26373 0.96582 0.0
N586 N 0.88492 0.25078 0.03199 0.0
N587 N 0.81758 0.26513 0.85987 0.0
H588 H 0.80305 0.27323 0.03028 0.0
H589 H 0.79278 0.26949 0.95651 0.0
H590 H 0.81961 0.26154 0.81383 0.0
H591 H 0.80433 0.2765 0.8683 0.0
H592 H 0.9013 0.24565 0.01992 0.0
H593 H 0.88396 0.25741 0.07598 0.0
H594 H 0.89878 0.22135 0.95139 0.0
H595 H 0.89054 0.22154 0.87496 0.0
C596 C 0.52212 0.1063 0.75807 0.0
C597 C 0.50036 0.11237 0.78108 0.0
C598 C 0.48615 0.11621 0.67622 0.0
C599 C 0.50686 0.10715 0.65363 0.0
N600 N 0.54358 0.09016 0.67415 0.0
N601 N 0.46021 0.11857 0.76158 0.0
C602 C 0.52472 0.10145 0.69474 0.0
C603 C 0.48199 0.1163 0.74007 0.0
N604 N 0.5404 0.10553 0.79656 0.0
N605 N 0.47051 0.12501 0.63657 0.0
H606 H 0.45594 0.11753 0.80761 0.0
H607 H 0.44599 0.11904 0.73323 0.0
H608 H 0.47314 0.12545 0.58951 0.0
H609 H 0.45611 0.13394 0.65078 0.0
H610 H 0.55711 0.10351 0.78145 0.0
H611 H 0.53909 0.10904 0.84309 0.0
H612 H 0.55583 0.08327 0.70312 0.0
H613 H 0.54614 0.08588 0.62854 0.0
C614 C 0.6508 0.7614 0.50084 0.0
C615 C 0.66018 0.7394 0.50973 0.0
C616 C 0.66339 0.73445 0.39909 0.0
C617 C 0.6524 0.75567 0.39 0.0
N618 N 0.63038 0.78648 0.43237 0.0
N619 N 0.66813 0.70244 0.46624 0.0
C620 C 0.64437 0.76821 0.44102 0.0
C621 C 0.66414 0.72512 0.45853 0.0
N622 N 0.64928 0.77635 0.54838 0.0
N623 N 0.67461 0.72381 0.3524 0.0
H624 H 0.66793 0.69464 0.50877 0.0
H625 H 0.66893 0.69103 0.42989 0.0
H626 H 0.67596 0.73041 0.30853 0.0
H627 H 0.68491 0.70959 0.35915 0.0
H628 H 0.64478 0.79335 0.54272 0.0
H629 H 0.65462 0.77252 0.59247 0.0
H630 H 0.62235 0.79499 0.46812 0.0
H631 H 0.62491 0.79156 0.38921 0.0
C632 C 0.99795 0.12044 0.35692 0.0
C633 C 0.98439 0.10227 0.37906 0.0
C634 C 0.98782 0.08287 0.2803 0.0
C635 C 0.00347 0.09967 0.26093 0.0
N636 N 0.02539 0.13338 0.28161 0.0
N637 N 0.97003 0.06404 0.36589 0.0
C638 C 0.00907 0.11821 0.29944 0.0
C639 C 0.98008 0.08297 0.34168 0.0
N640 N 0.99961 0.14006 0.38999 0.0
N641 N 0.98044 0.06672 0.24004 0.0
H642 H 0.9651 0.06276 0.41142 0.0
H643 H 0.96882 0.04865 0.34269 0.0
H644 H 0.98615 0.06583 0.19502 0.0
H645 H 0.9672 0.0555 0.2496 0.0
H646 H 0.00737 0.15476 0.37367 0.0
H647 H 0.9915 0.14233 0.43191 0.0
H648 H 0.03219 0.1457 0.3104 0.0
H649 H 0.03319 0.13276 0.23886 0.0
C650 C 0.63624 0.26161 0.12695 0.0
C651 C 0.63791 0.2383 0.14245 0.0
C652 C 0.64548 0.22863 0.03549 0.0
C653 C 0.64813 0.25208 0.02231 0.0
N654 N 0.64466 0.29132 0.05381 0.0
N655 N 0.63109 0.20039 0.10617 0.0
C656 C 0.64288 0.26872 0.06744 0.0
C657 C 0.63849 0.22198 0.09493 0.0
N658 N 0.62652 0.27653 0.16702 0.0
N659 N 0.6512 0.21264 0.99288 0.0
H660 H 0.62386 0.19583 0.14794 0.0
H661 H 0.62926 0.18807 0.07243 0.0
H662 H 0.65661 0.21669 0.94893 0.0
H663 H 0.65228 0.19535 1.00256 0.0
H664 H 0.62339 0.29353 0.15712 0.0
H665 H 0.61838 0.27117 0.20673 0.0
H666 H 0.64419 0.30414 0.08652 0.0
H667 H 0.64759 0.29735 1.0098 0.0
C668 C 0.47898 0.88676 0.80176 0.0
C669 C 0.49784 0.88944 0.76155 0.0
C670 C 0.52219 0.89919 0.84853 0.0
C671 C 0.50381 0.89455 0.88905 0.0
N672 N 0.46623 0.87925 0.90496 0.0
N673 N 0.53827 0.89396 0.74749 0.0
C674 C 0.48268 0.88684 0.8658 0.0
C675 C 0.51974 0.89434 0.78525 0.0
N676 N 0.4573 0.8856 0.77915 0.0
N677 N 0.5415 0.90953 0.8696 0.0
H678 H 0.53707 0.89047 0.70094 0.0
H679 H 0.55497 0.89504 0.76325 0.0
H680 H 0.54397 0.91393 0.91514 0.0
H681 H 0.55426 0.91565 0.84095 0.0
H682 H 0.44284 0.88611 0.80671 0.0
H683 H 0.4535 0.88653 0.7328 0.0
H684 H 0.45137 0.87126 0.89036 0.0
H685 H 0.46847 0.87888 0.95216 0.0
C686 C 0.85942 0.77583 0.56993 0.0
C687 C 0.85678 0.75998 0.61815 0.0
C688 C 0.8583 0.72905 0.54381 0.0
C689 C 0.85528 0.74501 0.49614 0.0
N690 N 0.85167 0.78415 0.46403 0.0
N691 N 0.85191 0.72085 0.65023 0.0
C692 C 0.85591 0.76861 0.50889 0.0
C693 C 0.85618 0.73633 0.60523 0.0
N694 N 0.86539 0.79775 0.58263 0.0
N695 N 0.86327 0.70693 0.53022 0.0
H696 H 0.84966 0.72514 0.69587 0.0
H697 H 0.84863 0.70377 0.64131 0.0
H698 H 0.86556 0.70127 0.48547 0.0
H699 H 0.86761 0.69496 0.56324 0.0
H700 H 0.86944 0.80957 0.54896 0.0
H701 H 0.86875 0.80333 0.62692 0.0
H702 H 0.8493 0.80139 0.4728 0.0
H703 H 0.84871 0.77973 0.41874 0.0
C704 C 0.49332 0.616 0.29939 0.0
C705 C 0.50123 0.59932 0.25766 0.0
C706 C 0.52882 0.58563 0.33284 0.0
C707 C 0.52143 0.60279 0.37422 0.0
N708 N 0.50008 0.63705 0.39297 0.0
N709 N 0.52944 0.57149 0.22898 0.0
C710 C 0.50464 0.61879 0.35632 0.0
C711 C 0.52007 0.58533 0.27244 0.0
N712 N 0.47481 0.629 0.28473 0.0
N713 N 0.54286 0.56855 0.35235 0.0
H714 H 0.52295 0.57006 0.18494 0.0
H715 H 0.54479 0.56289 0.23487 0.0
H716 H 0.54899 0.56727 0.39676 0.0
H717 H 0.5466 0.55419 0.32641 0.0
H718 H 0.46635 0.63941 0.3158 0.0
H719 H 0.46722 0.62861 0.24176 0.0
H720 H 0.48964 0.65052 0.38017 0.0
H721 H 0.50836 0.63977 0.43443 0.0
C722 C 0.64978 0.24152 0.55502 0.0
C723 C 0.63615 0.25499 0.51578 0.0
C724 C 0.62496 0.27894 0.60238 0.0
C725 C 0.6409 0.2673 0.63982 0.0
N726 N 0.67118 0.23952 0.64881 0.0
N727 N 0.61198 0.28746 0.49968 0.0
C728 C 0.65392 0.24899 0.61556 0.0
C729 C 0.62397 0.27393 0.53883 0.0
N730 N 0.65837 0.22124 0.53484 0.0
N731 N 0.61026 0.29423 0.62808 0.0
H732 H 0.61055 0.28394 0.45319 0.0
H733 H 0.60481 0.30295 0.5123 0.0
H734 H 0.6102 0.29791 0.67463 0.0
H735 H 0.59679 0.30168 0.60457 0.0
H736 H 0.66619 0.20946 0.56348 0.0
H737 H 0.65585 0.21513 0.49068 0.0
H738 H 0.68301 0.2282 0.63047 0.0
H739 H 0.67506 0.24429 0.69323 0.0
C740 C 0.99142 0.3851 0.77842 0.0
C741 C 0.99753 0.40609 0.75065 0.0
C742 C 0.99921 0.42386 0.85155 0.0
C743 C 0.99625 0.40243 0.87989 0.0
N744 N 0.9918 0.36191 0.87028 0.0
N745 N 0.01392 0.44351 0.76373 0.0
C746 C 0.99293 0.38278 0.8433 0.0
C747 C 0.00332 0.42493 0.78803 0.0
N748 N 0.98342 0.3677 0.74322 0.0
N749 N 0.99703 0.4434 0.88467 0.0
H750 H 0.01906 0.44441 0.71829 0.0
H751 H 0.02019 0.45676 0.7905 0.0
H752 H 0.99232 0.44346 0.93052 0.0
H753 H 0.99711 0.45949 0.86479 0.0
H754 H 0.97659 0.35283 0.76129 0.0
H755 H 0.98176 0.36893 0.69599 0.0
H756 H 0.99179 0.34674 0.84582 0.0
H757 H 0.99263 0.35972 0.91745 0.0
C758 C 0.8577 0.72034 0.06592 0.0
C759 C 0.85056 0.73357 0.11653 0.0
C760 C 0.84215 0.76527 0.04818 0.0
C761 C 0.84572 0.75088 0.99703 0.0
N762 N 0.85399 0.71342 0.95752 0.0
N763 N 0.83162 0.7674 0.15427 0.0
C764 C 0.85295 0.72808 1.00581 0.0
C765 C 0.84178 0.75579 0.10747 0.0
N766 N 0.86931 0.70052 0.07533 0.0
N767 N 0.83957 0.78816 0.0405 0.0
H768 H 0.82985 0.76099 0.19826 0.0
H769 H 0.82262 0.78248 0.14779 0.0
H770 H 0.84002 0.79597 0.998 0.0
H771 H 0.83945 0.79962 0.07677 0.0
H772 H 0.87688 0.69125 0.04023 0.0
H773 H 0.87332 0.69455 0.11884 0.0
H774 H 0.85677 0.69603 0.96246 0.0
H775 H 0.85001 0.71812 0.91298 0.0
C776 C 0.48184 0.37978 0.17087 0.0
C777 C 0.50208 0.39023 0.14946 0.0
C778 C 0.51596 0.39387 0.25511 0.0
C779 C 0.49574 0.3833 0.27667 0.0
N780 N 0.46085 0.36305 0.25504 0.0
N781 N 0.53992 0.40427 0.16891 0.0
C782 C 0.47921 0.37513 0.23443 0.0
C783 C 0.51966 0.39625 0.19098 0.0
N784 N 0.46476 0.37506 0.13042 0.0
N785 N 0.53142 0.40208 0.29623 0.0
H786 H 0.54295 0.40702 0.12264 0.0
H787 H 0.55434 0.40682 0.19558 0.0
H788 H 0.53008 0.39928 0.34307 0.0
H789 H 0.54507 0.4125 0.28468 0.0
H790 H 0.44838 0.37024 0.14317 0.0
H791 H 0.46661 0.37708 0.08339 0.0
H792 H 0.44964 0.35437 0.22663 0.0
H793 H 0.45737 0.36042 0.30105 0.0
C794 C 0.85806 0.28625 0.44293 0.0
C795 C 0.85934 0.27193 0.39103 0.0
C796 C 0.85636 0.23845 0.45657 0.0
C797 C 0.85109 0.25279 0.50693 0.0
N798 N 0.84665 0.29053 0.54863 0.0
N799 N 0.87314 0.23567 0.35584 0.0
C800 C 0.85239 0.27678 0.50071 0.0
C801 C 0.86252 0.2483 0.39975 0.0
N802 N 0.86363 0.30867 0.43722 0.0
N803 N 0.85488 0.21539 0.46235 0.0
H804 H 0.88092 0.24306 0.31801 0.0
H805 H 0.87744 0.21862 0.36131 0.0
H806 H 0.8515 0.20735 0.50361 0.0
H807 H 0.85559 0.20427 0.42541 0.0
H808 H 0.86489 0.31982 0.47393 0.0
H809 H 0.86988 0.31534 0.39641 0.0
H810 H 0.84457 0.30803 0.54473 0.0
H811 H 0.84231 0.28433 0.59162 0.0
C812 C 0.0038 0.61653 0.7279 0.0
C813 C 0.99938 0.59836 0.76873 0.0
C814 C 0.97559 0.57979 0.69176 0.0
C815 C 0.97879 0.59868 0.65214 0.0
N816 N 0.99186 0.63712 0.63762 0.0
N817 N 0.97789 0.56481 0.79453 0.0
C818 C 0.99175 0.61768 0.67169 0.0
C819 C 0.98407 0.58079 0.7524 0.0
N820 N 0.01979 0.63251 0.74237 0.0
N821 N 0.96599 0.56017 0.67034 0.0
H822 H 0.98456 0.56427 0.83855 0.0
H823 H 0.96477 0.5532 0.78746 0.0
H824 H 0.96059 0.558 0.62549 0.0
H825 H 0.96561 0.54508 0.69509 0.0
H826 H 0.02576 0.64457 0.71151 0.0
H827 H 0.02822 0.63283 0.78418 0.0
H828 H 0.99913 0.65229 0.65236 0.0
H829 H 0.98275 0.63879 0.59706 0.0
C830 C 0.64044 0.75046 0.97184 0.0
C831 C 0.65784 0.74261 0.01155 0.0
C832 C 0.67271 0.71806 0.93067 0.0
C833 C 0.6542 0.72448 0.89258 0.0
N834 N 0.61803 0.7434 0.88095 0.0
N835 N 0.6873 0.7153 0.03363 0.0
C836 C 0.63729 0.73966 0.91442 0.0
C837 C 0.67293 0.72523 0.99243 0.0
N838 N 0.62774 0.76901 0.98743 0.0
N839 N 0.69083 0.70635 0.90712 0.0
H840 H 0.68777 0.71996 0.07954 0.0
H841 H 0.69704 0.70096 0.02366 0.0
H842 H 0.6921 0.70166 0.86141 0.0
H843 H 0.70582 0.70349 0.93134 0.0
H844 H 0.61651 0.77704 0.95766 0.0
H845 H 0.62998 0.77761 0.02839 0.0
H846 H 0.60408 0.75249 0.89738 0.0
H847 H 0.61511 0.73566 0.83886 0.0
C848 C 0.5275 0.38521 0.73067 0.0
C849 C 0.50892 0.38617 0.77242 0.0
C850 C 0.48302 0.39407 0.68686 0.0
C851 C 0.50129 0.39089 0.64483 0.0
N852 N 0.53983 0.37864 0.62658 0.0
N853 N 0.46836 0.38738 0.7889 0.0
C854 C 0.52318 0.38493 0.66681 0.0
C855 C 0.48647 0.38935 0.75006 0.0
N856 N 0.54942 0.38606 0.75164 0.0
N857 N 0.46276 0.4029 0.66734 0.0
H858 H 0.47024 0.38392 0.83528 0.0
H859 H 0.4515 0.38712 0.77414 0.0
H860 H 0.45952 0.40716 0.62206 0.0
H861 H 0.44984 0.40797 0.697 0.0
H862 H 0.56349 0.38779 0.72298 0.0
H863 H 0.55357 0.3876 0.79767 0.0
H864 H 0.55543 0.37189 0.64022 0.0
H865 H 0.53717 0.37796 0.57956 0.0
C866 C 0.36801 0.75476 0.41924 0.0
C867 C 0.35249 0.73813 0.39781 0.0
C868 C 0.33275 0.73882 0.49671 0.0
C869 C 0.34663 0.75723 0.51526 0.0
N870 N 0.37477 0.78557 0.49011 0.0
N871 N 0.31667 0.71837 0.41142 0.0
C872 C 0.36349 0.76605 0.47531 0.0
C873 C 0.33401 0.73106 0.4354 0.0
N874 N 0.38744 0.75928 0.38706 0.0
N875 N 0.31805 0.72901 0.53726 0.0
H876 H 0.31593 0.71355 0.36574 0.0
H877 H 0.30167 0.71486 0.435 0.0
H878 H 0.31595 0.73483 0.58186 0.0
H879 H 0.30933 0.71398 0.52813 0.0
H880 H 0.40047 0.76959 0.40359 0.0
H881 H 0.39159 0.75098 0.3465 0.0
H882 H 0.38549 0.79411 0.45996 0.0
H883 H 0.37189 0.79433 0.5307 0.0
C884 C 0.00241 0.62244 0.17569 0.0
C885 C 0.01465 0.60375 0.15118 0.0
C886 C 0.01063 0.58325 0.24808 0.0
C887 C 0.99625 0.60078 0.26995 0.0
N888 N 0.97672 0.63632 0.25424 0.0
N889 N 0.02687 0.56462 0.15983 0.0
C890 C 0.99167 0.62022 0.23365 0.0
C891 C 0.01804 0.58374 0.18642 0.0
N892 N 1.00165 0.64249 0.14433 0.0
N893 N 0.017 0.56596 0.28607 0.0
H894 H 0.03159 0.56374 0.11406 0.0
H895 H 0.02729 0.54884 0.18122 0.0
H896 H 0.01131 0.56459 0.33098 0.0
H897 H 0.02945 0.55405 0.27482 0.0
H898 H 0.99497 0.65746 0.16229 0.0
H899 H 0.00942 0.64469 0.10192 0.0
H900 H 0.97051 0.64948 0.22724 0.0
H901 H 0.96949 0.63581 0.29771 0.0
C902 C 0.15412 0.27834 0.95023 0.0
C903 C 0.15848 0.26423 0.89895 0.0
C904 C 0.16214 0.2316 0.96749 0.0
C905 C 0.16232 0.24645 0.01858 0.0
N906 N 0.1611 0.28486 0.05755 0.0
N907 N 0.16981 0.22731 0.86012 0.0
C908 C 0.15874 0.27008 1.00989 0.0
C909 C 0.16307 0.24075 0.90771 0.0
N910 N 0.14519 0.29956 0.94192 0.0
N911 N 0.16057 0.20866 0.97583 0.0
H912 H 0.17116 0.23296 0.8154 0.0
H913 H 0.17613 0.21091 0.86605 0.0
H914 H 0.15935 0.20124 0.01876 0.0
H915 H 0.15794 0.19726 0.94012 0.0
H916 H 0.13974 0.30981 0.97786 0.0
H917 H 0.1409 0.30583 0.89893 0.0
H918 H 0.16112 0.30245 0.05206 0.0
H919 H 0.16514 0.27973 0.10169 0.0
C920 C 0.5123 0.57878 0.79883 0.0
C921 C 0.50895 0.59714 0.75803 0.0
C922 C 0.48459 0.61597 0.83399 0.0
C923 C 0.49035 0.59888 0.87694 0.0
N924 N 0.51339 0.56635 0.90349 0.0
N925 N 0.49419 0.63469 0.73863 0.0
C926 C 0.5054 0.58105 0.86038 0.0
C927 C 0.49559 0.61615 0.7759 0.0
N928 N 0.52102 0.55865 0.77805 0.0
N929 N 0.46858 0.63193 0.84864 0.0
H930 H 0.50206 0.63541 0.69602 0.0
H931 H 0.48671 0.64998 0.75179 0.0
H932 H 0.46102 0.63288 0.89167 0.0
H933 H 0.46179 0.64331 0.81715 0.0
H934 H 0.5216 0.54395 0.80449 0.0
H935 H 0.52518 0.55582 0.7324 0.0
H936 H 0.52624 0.55453 0.89498 0.0
H937 H 0.50875 0.56736 0.94914 0.0
C938 C 0.16084 0.77806 0.54881 0.0
C939 C 0.15931 0.76237 0.49966 0.0
C940 C 0.14492 0.73355 0.57047 0.0
C941 C 0.15064 0.74774 0.62051 0.0
N942 N 0.16582 0.78356 0.65699 0.0
N943 N 0.15193 0.72417 0.46459 0.0
C944 C 0.15872 0.77016 0.60975 0.0
C945 C 0.15158 0.7399 0.51048 0.0
N946 N 0.1639 0.8007 0.5374 0.0
N947 N 0.13282 0.71408 0.58041 0.0
H948 H 0.15725 0.72786 0.42034 0.0
H949 H 0.1489 0.70694 0.47173 0.0
H950 H 0.12717 0.70933 0.62372 0.0
H951 H 0.12632 0.70406 0.54531 0.0
H952 H 0.1624 0.81318 0.5709 0.0
H953 H 0.1656 0.80738 0.49365 0.0
H954 H 0.17498 0.79853 0.65073 0.0
H955 H 0.16421 0.77915 0.70262 0.0
C956 C 0.97324 0.3788 0.2864 0.0
C957 C 0.99198 0.38309 0.24662 0.0
C958 C 0.01539 0.39321 0.3354 0.0
C959 C 0.99729 0.38682 0.37523 0.0
N960 N 0.96118 0.36801 0.388 0.0
N961 N 0.03231 0.38935 0.23494 0.0
C962 C 0.97697 0.37776 0.35041 0.0
C963 C 0.01353 0.38865 0.27173 0.0
N964 N 0.95154 0.37748 0.26406 0.0
N965 N 0.03368 0.40505 0.35718 0.0
H966 H 0.03162 0.38582 0.18834 0.0
H967 H 0.04881 0.39113 0.25177 0.0
H968 H 0.03551 0.40977 0.40269 0.0
H969 H 0.04599 0.41222 0.32885 0.0
H970 H 0.93721 0.37666 0.29209 0.0
H971 H 0.94743 0.37987 0.21834 0.0
H972 H 0.94703 0.35922 0.37172 0.0
H973 H 0.96355 0.3666 0.43502 0.0
C974 C 0.3556 0.27646 0.0583 0.0
C975 C 0.35558 0.26032 0.10647 0.0
C976 C 0.35921 0.22988 0.03106 0.0
C977 C 0.35396 0.24551 0.98398 0.0
N978 N 0.34548 0.28401 0.95328 0.0
N979 N 0.35436 0.22076 0.13741 0.0
C980 C 0.35203 0.26899 0.9974 0.0
C981 C 0.35695 0.23675 0.09277 0.0
N982 N 0.35935 0.29889 0.07075 0.0
N983 N 0.36651 0.20848 0.01673 0.0
H984 H 0.35158 0.22464 0.18311 0.0
H985 H 0.35273 0.20348 0.12799 0.0
H986 H 0.36903 0.20316 0.97178 0.0
H987 H 0.37249 0.19705 0.0493 0.0
H988 H 0.36149 0.31112 0.03687 0.0
H989 H 0.36284 0.30479 0.11466 0.0
H990 H 0.3413 0.30086 0.96261 0.0
H991 H 0.34245 0.27929 0.90821 0.0
C992 C 0.99959 0.00861 0.07259 0.0
C993 C 0.00202 0.026 0.02841 0.0
C994 C 0.99698 0.99827 0.94586 0.0
C995 C 0.99315 0.9811 0.99008 0.0
N996 N 0.98769 0.97006 0.09517 0.0
N997 N 0.99992 0.03852 0.92377 0.0
C998 C 0.99348 0.98633 0.05341 0.0
C999 C 0.9998 0.02115 0.9652 0.0
N1000 N 0.00347 0.01337 0.13279 0.0
N1001 N 0.99819 0.99261 0.88539 0.0
H1002 H 0.00267 0.05543 0.9359 0.0
H1003 H 0.99583 0.03652 0.87789 0.0
H1004 H 0.99488 0.97629 0.86912 0.0
H1005 H 0.00372 0.00371 0.85154 0.0
H1006 H 0.00449 0.00105 0.16669 0.0
H1007 H 0.0073 0.02965 0.14857 0.0
H1008 H 0.98519 0.97334 0.14135 0.0
H1009 H 0.98368 0.95342 0.08321 0.0
C1010 C 0.24906 0.75864 0.31486 0.0
C1011 C 0.23139 0.75623 0.27128 0.0
C1012 C 0.25894 0.74146 0.19628 0.0
C1013 C 0.27684 0.74616 0.23773 0.0
N1014 N 0.28961 0.76016 0.33544 0.0
N1015 N 0.21934 0.74725 0.16875 0.0
C1016 C 0.27207 0.75504 0.29675 0.0
C1017 C 0.23624 0.74792 0.21165 0.0
N1018 N 0.24373 0.76332 0.37432 0.0
N1019 N 0.26366 0.73092 0.14209 0.0
H1020 H 0.20252 0.75176 0.17793 0.0
H1021 H 0.22215 0.74394 0.12271 0.0
H1022 H 0.28017 0.72691 0.1281 0.0
H1023 H 0.25124 0.72466 0.11274 0.0
H1024 H 0.25547 0.76283 0.40985 0.0
H1025 H 0.22707 0.76581 0.38938 0.0
H1026 H 0.28759 0.76937 0.37565 0.0
H1027 H 0.30655 0.75613 0.32611 0.0
C1028 C 0.50835 0.0177 0.55982 0.0
C1029 C 0.50592 0.02346 0.49712 0.0
C1030 C 0.49459 0.98426 0.47362 0.0
C1031 C 0.4958 0.97891 0.53665 0.0
N1032 N 0.50044 0.99069 0.64094 0.0
N1033 N 0.49423 0.01331 0.39514 0.0
C1034 C 0.50175 0.99569 0.58009 0.0
C1035 C 0.49816 0.00707 0.45432 0.0
N1036 N 0.51707 0.03321 0.59999 0.0
N1037 N 0.49109 0.9673 0.43198 0.0
H1038 H 0.49818 0.02937 0.37809 0.0
H1039 H 0.48593 0.00302 0.36359 0.0
H1040 H 0.48813 0.95048 0.44454 0.0
H1041 H 0.49265 0.96946 0.38503 0.0
H1042 H 0.52179 0.02929 0.6445 0.0
H1043 H 0.52102 0.04986 0.58807 0.0
H1044 H 0.50218 0.00268 0.67551 0.0
H1045 H 0.49569 0.97471 0.65713 0.0
C1046 C 0.27403 0.25861 0.70979 0.0
C1047 C 0.27955 0.24991 0.76847 0.0
C1048 C 0.23965 0.2535 0.80014 0.0
C1049 C 0.23384 0.26051 0.74013 0.0
N1050 N 0.24458 0.26711 0.63558 0.0
N1051 N 0.26783 0.23719 0.86822 0.0
C1052 C 0.25081 0.26253 0.69441 0.0
C1053 C 0.26239 0.24673 0.81322 0.0
N1054 N 0.29098 0.26312 0.66868 0.0
N1055 N 0.22351 0.25415 0.84515 0.0
H1056 H 0.28449 0.23333 0.88104 0.0
H1057 H 0.25579 0.23184 0.89997 0.0
H1058 H 0.20679 0.25921 0.8372 0.0
H1059 H 0.22695 0.25154 0.89118 0.0
H1060 H 0.28844 0.27204 0.62828 0.0
H1061 H 0.30802 0.25898 0.67613 0.0
H1062 H 0.25563 0.26601 0.59853 0.0
H1063 H 0.22783 0.27053 0.62294 0.0
C1064 C 0.99961 0.9836 0.55746 0.0
C1065 C 0.00944 0.9786 0.49962 0.0
C1066 C 0.01061 0.01922 0.47521 0.0
C1067 C 0.00203 0.02428 0.53439 0.0
N1068 N 0.99256 0.01183 0.63599 0.0
N1069 N 0.02744 0.99142 0.40692 0.0
C1070 C 0.99764 0.00661 0.57669 0.0
C1071 C 0.01607 0.99637 0.45978 0.0
N1072 N 0.99194 0.96636 0.59384 0.0
N1073 N 0.01233 0.03609 0.43253 0.0
H1074 H 0.03075 0.97486 0.39249 0.0
H1075 H 0.03506 0.00369 0.37949 0.0
H1076 H 0.00821 0.05299 0.44146 0.0
H1077 H 0.01589 0.03313 0.38667 0.0
H1078 H 0.98212 0.96895 0.63283 0.0
H1079 H 0.99426 0.94923 0.5834 0.0
H1080 H 0.99169 0.9998 0.67071 0.0
H1081 H 0.99117 0.02848 0.65188 0.0
C1082 C 0.24321 0.74373 0.81697 0.0
C1083 C 0.22581 0.74735 0.77331 0.0
C1084 C 0.25429 0.7594 0.69769 0.0
C1085 C 0.2718 0.75489 0.74053 0.0
N1086 N 0.28352 0.7393 0.83758 0.0
N1087 N 0.21479 0.75402 0.66907 0.0
C1088 C 0.26644 0.74586 0.79905 0.0
C1089 C 0.23137 0.75394 0.71278 0.0
N1090 N 0.23752 0.73937 0.87633 0.0
N1091 N 0.25956 0.76886 0.64246 0.0
H1092 H 0.19805 0.7494 0.67839 0.0
H1093 H 0.21789 0.75649 0.62278 0.0
H1094 H 0.27624 0.77161 0.62783 0.0
H1095 H 0.24742 0.7752 0.61236 0.0
H1096 H 0.24921 0.73941 0.91202 0.0
H1097 H 0.22075 0.73725 0.89083 0.0
H1098 H 0.28075 0.73011 0.87747 0.0
H1099 H 0.30074 0.74185 0.82826 0.0
C1100 C 0.49986 0.99369 0.08496 0.0
C1101 C 0.50844 0.97745 0.04292 0.0
C1102 C 0.50858 0.00629 0.96198 0.0
C1103 C 0.49827 0.02191 1.00278 0.0
N1104 N 0.48173 0.03023 0.10094 0.0
N1105 N 0.51762 0.96707 0.93898 0.0
C1106 C 0.49307 0.01546 0.06357 0.0
C1107 C 0.51202 0.98342 0.98076 0.0
N1108 N 0.49932 0.98867 0.14588 0.0
N1109 N 0.51535 0.0134 0.90541 0.0
H1110 H 0.52046 0.95015 0.95042 0.0
H1111 H 0.51774 0.96983 0.89207 0.0
H1112 H 0.51196 0.02965 0.88872 0.0
H1113 H 0.52555 0.00372 0.87645 0.0
H1114 H 0.49546 0.00048 0.17973 0.0
H1115 H 0.50485 0.97316 0.16344 0.0
H1116 H 0.47511 0.02574 0.14332 0.0
H1117 H 0.47747 0.04668 0.08767 0.0
C1118 C 0.23993 0.25086 0.29168 0.0
C1119 C 0.23412 0.2403 0.23541 0.0
C1120 C 0.27447 0.23915 0.20652 0.0
C1121 C 0.28039 0.24816 0.26459 0.0
N1122 N 0.26924 0.25865 0.36669 0.0
N1123 N 0.24577 0.22139 0.14289 0.0
C1124 C 0.26325 0.25303 0.30832 0.0
C1125 C 0.2514 0.23338 0.19412 0.0
N1126 N 0.22317 0.25899 0.3292 0.0
N1127 N 0.29072 0.23724 0.16202 0.0
H1128 H 0.22901 0.21769 0.13085 0.0
H1129 H 0.25775 0.21362 0.11467 0.0
H1130 H 0.30769 0.24178 0.16866 0.0
H1131 H 0.2871 0.23318 0.11683 0.0
H1132 H 0.22634 0.26935 0.36678 0.0
H1133 H 0.20586 0.25647 0.32112 0.0
H1134 H 0.25764 0.25976 0.40253 0.0
H1135 H 0.28611 0.26028 0.38076 0.0
C1136 C 0.77 0.26082 0.7411 0.0
C1137 C 0.77249 0.23687 0.74768 0.0
C1138 C 0.73171 0.23355 0.77116 0.0
C1139 C 0.72975 0.25763 0.77018 0.0
N1140 N 0.7475 0.29439 0.76373 0.0
N1141 N 0.7565 0.20059 0.77512 0.0
C1142 C 0.749 0.27132 0.75729 0.0
C1143 C 0.75356 0.22331 0.76473 0.0
N1144 N 0.7877 0.27366 0.71967 0.0
N1145 N 0.71257 0.2204 0.7752 0.0
H1146 H 0.77182 0.19215 0.76677 0.0
H1147 H 0.74416 0.19034 0.79527 0.0
H1148 H 0.69622 0.2271 0.77971 0.0
H1149 H 0.7126 0.20287 0.76896 0.0
H1150 H 0.78597 0.29056 0.70657 0.0
H1151 H 0.80389 0.26722 0.71085 0.0
H1152 H 0.76151 0.30521 0.76216 0.0
H1153 H 0.7325 0.30267 0.7763 0.0
C1154 C 0.74649 0.75857 0.19989 0.0
C1155 C 0.73156 0.76305 0.24952 0.0
C1156 C 0.75664 0.74173 0.31879 0.0
C1157 C 0.77121 0.73668 0.2689 0.0
N1158 N 0.78213 0.74231 0.16383 0.0
N1159 N 0.72018 0.75605 0.3538 0.0
C1160 C 0.7666 0.74547 0.20972 0.0
C1161 C 0.73616 0.7541 0.30855 0.0
N1162 N 0.74112 0.7666 0.14308 0.0
N1163 N 0.76258 0.73491 0.37629 0.0
H1164 H 0.70495 0.76492 0.34872 0.0
H1165 H 0.72103 0.74746 0.39521 0.0
H1166 H 0.77654 0.72446 0.38517 0.0
H1167 H 0.75452 0.74057 0.41578 0.0
H1168 H 0.7494 0.76186 0.10311 0.0
H1169 H 0.72762 0.77774 0.13521 0.0
H1170 H 0.78132 0.7501 0.12135 0.0
H1171 H 0.7969 0.73269 0.16889 0.0
C1172 C 0.73302 0.23971 0.2235 0.0
C1173 C 0.72529 0.24821 0.28046 0.0
C1174 C 0.76345 0.26315 0.30235 0.0
C1175 C 0.77057 0.25659 0.24298 0.0
N1176 N 0.76178 0.24114 0.1439 0.0
N1177 N 0.73207 0.26979 0.37221 0.0
C1178 C 0.7553 0.24538 0.20279 0.0
C1179 C 0.74021 0.26047 0.31932 0.0
N1180 N 0.71901 0.22624 0.18921 0.0
N1181 N 0.77912 0.27096 0.34348 0.0
H1182 H 0.71555 0.26701 0.38814 0.0
H1183 H 0.74122 0.28131 0.3986 0.0
H1184 H 0.79633 0.273 0.33305 0.0
H1185 H 0.77554 0.27363 0.38946 0.0
H1186 H 0.72436 0.21748 0.1505 0.0
H1187 H 0.70232 0.22242 0.20188 0.0
H1188 H 0.75075 0.23525 0.1103 0.0
H1189 H 0.77786 0.24529 0.12695 0.0
C1190 C 0.75051 0.73648 0.6931 0.0
C1191 C 0.73266 0.73942 0.73607 0.0
C1192 C 0.75974 0.75535 0.81012 0.0
C1193 C 0.77785 0.75082 0.76896 0.0
N1194 N 0.79113 0.73581 0.67274 0.0
N1195 N 0.72047 0.7482 0.83855 0.0
C1196 C 0.77341 0.74091 0.71095 0.0
C1197 C 0.73732 0.748 0.79538 0.0
N1198 N 0.74543 0.73056 0.63433 0.0
N1199 N 0.76392 0.7668 0.86322 0.0
H1200 H 0.70386 0.74286 0.82975 0.0
H1201 H 0.72326 0.75171 0.88448 0.0
H1202 H 0.78017 0.77173 0.87674 0.0
H1203 H 0.75115 0.77296 0.89178 0.0
H1204 H 0.7572 0.73071 0.59879 0.0
H1205 H 0.72893 0.72697 0.6198 0.0
H1206 H 0.78949 0.7259 0.63365 0.0
H1207 H 0.80787 0.74068 0.68142 0.0
C1208 C 0.50166 0.51488 0.46103 0.0
C1209 C 0.50215 0.52115 0.52353 0.0
C1210 C 0.49332 0.48201 0.55354 0.0
C1211 C 0.49219 0.47587 0.49083 0.0
N1212 N 0.49095 0.48687 0.38505 0.0
N1213 N 0.49521 0.51219 0.62908 0.0
C1214 C 0.49519 0.49244 0.44458 0.0
C1215 C 0.49708 0.50512 0.5698 0.0
N1216 N 0.50791 0.53031 0.4175 0.0
N1217 N 0.4916 0.46564 0.59751 0.0
H1218 H 0.4984 0.52887 0.64273 0.0
H1219 H 0.48901 0.50204 0.66422 0.0
H1220 H 0.48768 0.44877 0.58791 0.0
H1221 H 0.49522 0.4684 0.64338 0.0
H1222 H 0.51053 0.52622 0.37183 0.0
H1223 H 0.51204 0.5471 0.42774 0.0
H1224 H 0.49052 0.49863 0.34964 0.0
H1225 H 0.48585 0.47067 0.37148 0.0
C1226 C 0.98696 0.49803 0.07524 0.0
C1227 C 0.99919 0.48015 0.04669 0.0
C1228 C 0.01561 0.50724 0.97376 0.0
C1229 C 0.00469 0.52532 1.00495 0.0
N1230 N 0.98428 0.53848 0.09407 0.0
N1231 N 0.02922 0.46854 0.97757 0.0
C1232 C 0.99149 0.52089 0.05808 0.0
C1233 C 0.01488 0.48502 0.99895 0.0
N1234 N 0.97109 0.49323 0.11907 0.0
N1235 N 0.02556 0.51095 0.91822 0.0
H1236 H 0.02893 0.45185 0.99301 0.0
H1237 H 0.04265 0.47188 0.94779 0.0
H1238 H 0.02593 0.52683 0.89719 0.0
H1239 H 0.03143 0.49789 0.89019 0.0
H1240 H 0.95965 0.50522 0.13595 0.0
H1241 H 0.96839 0.47691 0.1361 0.0
H1242 H 0.97677 0.53622 0.1367 0.0
H1243 H 0.9879 0.55544 0.0846 0.0
C1244 C 0.49889 0.49193 0.95652 0.0
C1245 C 0.50843 0.47584 0.99731 0.0
C1246 C 0.51024 0.50514 0.07724 0.0
C1247 C 0.49861 0.52049 0.03818 0.0
N1248 N 0.47879 0.52746 0.94329 0.0
N1249 N 0.52042 0.46612 0.09953 0.0
C1250 C 0.49191 0.51354 0.97874 0.0
C1251 C 0.51355 0.48219 0.05842 0.0
N1252 N 0.49757 0.48695 0.89565 0.0
N1253 N 0.51807 0.51246 0.1326 0.0
H1254 H 0.52342 0.44923 0.08803 0.0
H1255 H 0.52159 0.46908 0.14625 0.0
H1256 H 0.51434 0.52847 0.15038 0.0
H1257 H 0.52927 0.50313 0.15957 0.0
H1258 H 0.49317 0.49883 0.8625 0.0
H1259 H 0.50324 0.47159 0.87731 0.0
H1260 H 0.47123 0.52221 0.90271 0.0
H1261 H 0.47391 0.54375 0.95628 0.0
C1262 C 0.00845 0.49246 0.56107 0.0
C1263 C 0.00327 0.47553 0.51721 0.0
C1264 C 0.99306 0.50492 0.44255 0.0
C1265 C 0.99603 0.52167 0.48834 0.0
N1266 N 0.00428 0.5317 0.59283 0.0
N1267 N 0.99 0.46493 0.41705 0.0
C1268 C 0.00332 0.51556 0.54795 0.0
C1269 C 0.99537 0.48157 0.45814 0.0
N1270 N 0.01824 0.48642 0.61528 0.0
N1271 N 0.98902 0.51142 0.38362 0.0
H1272 H 0.99333 0.44777 0.42475 0.0
H1273 H 0.98139 0.46792 0.37637 0.0
H1274 H 0.98729 0.52836 0.37053 0.0
H1275 H 0.98912 0.50029 0.34672 0.0
H1276 H 0.02478 0.49804 0.64646 0.0
H1277 H 0.02143 0.46961 0.62744 0.0
H1278 H 0.00686 0.52804 0.63874 0.0
H1279 H 1.00071 0.54881 0.58524 0.0
C1280 C 0.09958 0.13102 0.16516 0.0
C1281 C 0.08569 0.13749 0.11501 0.0
C1282 C 0.11029 0.17025 0.09554 0.0
C1283 C 0.125 0.16303 0.14311 0.0
N1284 N 0.13586 0.13497 0.21738 0.0
N1285 N 0.08058 0.15996 0.02417 0.0
C1286 C 0.12033 0.14288 0.17613 0.0
C1287 C 0.09193 0.1561 0.07763 0.0
N1288 N 0.0924 0.11433 0.20398 0.0
N1289 N 0.11309 0.19118 0.06959 0.0
H1290 H 0.06719 0.14974 1.00916 0.0
H1291 H 0.08586 0.17183 0.99191 0.0
H1292 H 0.1259 0.20243 0.0826 0.0
H1293 H 0.10144 0.19833 0.03937 0.0
H1294 H 0.10039 0.11062 0.24517 0.0
H1295 H 0.07743 0.10518 0.19722 0.0
H1296 H 0.13463 0.11917 0.23845 0.0
H1297 H 0.15101 0.14351 0.22704 0.0
C1298 C 0.11572 0.86082 0.3279 0.0
C1299 C 0.12051 0.84242 0.36761 0.0
C1300 C 0.09922 0.86108 0.45036 0.0
C1301 C 0.09379 0.87919 0.41012 0.0
N1302 N 0.09935 0.89833 0.31376 0.0
N1303 N 0.11967 0.82578 0.46794 0.0
C1304 C 0.10304 0.87981 0.35006 0.0
C1305 C 0.11311 0.84283 0.42935 0.0
N1306 N 0.12202 0.85938 0.26788 0.0
N1307 N 0.09071 0.86129 0.50853 0.0
H1308 H 0.12912 0.81178 0.45354 0.0
H1309 H 0.11692 0.82578 0.5148 0.0
H1310 H 0.08239 0.87534 0.52717 0.0
H1311 H 0.09137 0.84759 0.53838 0.0
H1312 H 0.11676 0.87068 0.23426 0.0
H1313 H 0.13161 0.84595 0.2504 0.0
H1314 H 0.10768 0.90114 0.27256 0.0
H1315 H 0.08877 0.91178 0.32597 0.0
C1316 C 0.40417 0.83072 0.61593 0.0
C1317 C 0.3867 0.83654 0.65809 0.0
C1318 C 0.3931 0.8771 0.63748 0.0
C1319 C 0.41205 0.87129 0.60022 0.0
N1320 N 0.43629 0.84283 0.55457 0.0
N1321 N 0.36552 0.86488 0.71352 0.0
C1322 C 0.41772 0.84815 0.5896 0.0
C1323 C 0.3812 0.85964 0.6695 0.0
N1324 N 0.40722 0.80852 0.5991 0.0
N1325 N 0.38665 0.89934 0.64281 0.0
H1326 H 0.35659 0.85257 0.73795 0.0
H1327 H 0.36243 0.88128 0.72922 0.0
H1328 H 0.39561 0.91266 0.62273 0.0
H1329 H 0.3716 0.90459 0.66364 0.0
H1330 H 0.41782 0.80333 0.56366 0.0
H1331 H 0.39759 0.79517 0.61662 0.0
H1332 H 0.4435 0.82669 0.55246 0.0
H1333 H 0.44525 0.85483 0.52917 0.0
C1334 C 0.43013 0.16529 0.91215 0.0
C1335 C 0.42452 0.14218 0.92369 0.0
C1336 C 0.38982 0.14677 0.86205 0.0
C1337 C 0.39461 0.17027 0.85594 0.0
N1338 N 0.4152 0.20283 0.89408 0.0
N1339 N 0.39613 0.11249 0.92086 0.0
C1340 C 0.41347 0.17982 0.88688 0.0
C1341 C 0.40349 0.13332 0.90184 0.0
N1342 N 0.45171 0.17329 0.92141 0.0
N1343 N 0.37273 0.13716 0.82864 0.0
H1344 H 0.40513 0.10258 0.95203 0.0
H1345 H 0.38001 0.10613 0.91079 0.0
H1346 H 0.36239 0.14652 0.79924 0.0
H1347 H 0.37006 0.11969 0.82639 0.0
H1348 H 0.45679 0.18949 0.90791 0.0
H1349 H 0.46528 0.16315 0.93523 0.0
H1350 H 0.42766 0.21035 0.92129 0.0
H1351 H 0.40268 0.21413 0.87932 0.0
C1352 C 0.8893 0.8334 0.93244 0.0
C1353 C 0.87557 0.83894 0.88125 0.0
C1354 C 0.89991 0.87181 0.8595 0.0
C1355 C 0.91288 0.86679 0.91247 0.0
N1356 N 0.91639 0.84663 1.0076 0.0
N1357 N 0.86515 0.86523 0.802 0.0
C1358 C 0.90638 0.8488 0.95161 0.0
C1359 C 0.88003 0.85879 0.84667 0.0
N1360 N 0.88708 0.81275 0.96038 0.0
N1361 N 0.9072 0.8882 0.81994 0.0
H1362 H 0.8506 0.85587 0.79131 0.0
H1363 H 0.86617 0.88068 0.77907 0.0
H1364 H 0.92143 0.89829 0.82832 0.0
H1365 H 0.90008 0.89083 0.77704 0.0
H1366 H 0.89829 0.80688 0.99365 0.0
H1367 H 0.8755 0.80044 0.94622 0.0
H1368 H 0.91076 0.8352 0.04058 0.0
H1369 H 0.9288 0.85785 0.02345 0.0
C1370 C 0.90368 0.13271 0.66031 0.0
C1371 C 0.91851 0.13803 0.61108 0.0
C1372 C 0.89605 0.17199 0.58817 0.0
C1373 C 0.88027 0.16592 0.63453 0.0
N1374 N 0.86697 0.13898 0.70901 0.0
N1375 N 0.92577 0.1594 0.51938 0.0
C1376 C 0.88344 0.14577 0.66889 0.0
C1377 C 0.9137 0.15664 0.57225 0.0
N1378 N 0.90946 0.11593 0.70048 0.0
N1379 N 0.89504 0.19301 0.56177 0.0
H1380 H 0.93862 0.14824 0.50571 0.0
H1381 H 0.92148 0.17133 0.48621 0.0
H1382 H 0.88307 0.20526 0.57411 0.0
H1383 H 0.9075 0.19919 0.53227 0.0
H1384 H 0.90077 0.11297 0.74114 0.0
H1385 H 0.92396 0.10588 0.6953 0.0
H1386 H 0.86711 0.1233 0.73092 0.0
H1387 H 0.85217 0.14837 0.71684 0.0
C1388 C 0.60836 0.1594 0.34527 0.0
C1389 C 0.62821 0.16178 0.38149 0.0
C1390 C 0.61233 0.1348 0.45563 0.0
C1391 C 0.59123 0.13558 0.42442 0.0
N1392 N 0.56808 0.15092 0.34334 0.0
N1393 N 0.6482 0.15373 0.47543 0.0
C1394 C 0.58895 0.14843 0.37008 0.0
C1395 C 0.63018 0.14973 0.43747 0.0
N1396 N 0.60823 0.16729 0.28663 0.0
N1397 N 0.61518 0.12006 0.50314 0.0
H1398 H 0.66141 0.16483 0.46477 0.0
H1399 H 0.64914 0.14746 0.51977 0.0
H1400 H 0.60221 0.10936 0.51844 0.0
H1401 H 0.63086 0.11708 0.52385 0.0
H1402 H 0.59498 0.16419 0.25616 0.0
H1403 H 0.62245 0.17483 0.26645 0.0
H1404 H 0.56498 0.16219 0.30767 0.0
H1405 H 0.55342 0.14301 0.35972 0.0
C1406 C 0.60615 0.86827 0.14863 0.0
C1407 C 0.58723 0.86039 0.11401 0.0
C1408 C 0.60433 0.82266 0.10833 0.0
C1409 C 0.62435 0.83103 0.13641 0.0
N1410 N 0.64575 0.8624 0.17713 0.0
N1411 N 0.57186 0.83193 0.04603 0.0
C1412 C 0.62575 0.85408 0.15459 0.0
C1413 C 0.58741 0.83814 0.08932 0.0
N1414 N 0.60501 0.88863 0.1784 0.0
N1415 N 0.6009 0.79981 0.10247 0.0
H1416 H 0.55993 0.84322 0.02801 0.0
H1417 H 0.57264 0.81646 0.02295 0.0
H1418 H 0.61229 0.78778 0.1194 0.0
H1419 H 0.58559 0.79289 0.08718 0.0
H1420 H 0.6173 0.89409 0.20934 0.0
H1421 H 0.59088 0.89931 0.17622 0.0
H1422 H 0.64857 0.87959 0.18529 0.0
H1423 H 0.66011 0.85221 0.18347 0.0
C1424 C 0.60666 0.62107 0.64677 0.0
C1425 C 0.59147 0.62882 0.60073 0.0
C1426 C 0.61593 0.6617 0.58132 0.0
C1427 C 0.63128 0.65389 0.62675 0.0
N1428 N 0.64392 0.62436 0.69445 0.0
N1429 N 0.58483 0.65258 0.51311 0.0
C1430 C 0.62749 0.63294 0.6568 0.0
C1431 C 0.59716 0.64791 0.5645 0.0
N1432 N 0.60072 0.60311 0.68284 0.0
N1433 N 0.61853 0.68286 0.55654 0.0
H1434 H 0.57117 0.64256 0.49889 0.0
H1435 H 0.58952 0.66487 0.48136 0.0
H1436 H 0.63193 0.69367 0.56771 0.0
H1437 H 0.60639 0.69052 0.52869 0.0
H1438 H 0.60957 0.59846 0.72202 0.0
H1439 H 0.58616 0.59343 0.67551 0.0
H1440 H 0.64333 0.60813 0.71319 0.0
H1441 H 0.65918 0.63287 0.70303 0.0
C1442 C 0.60684 0.36901 0.90456 0.0
C1443 C 0.58954 0.36255 0.94647 0.0
C1444 C 0.60151 0.32282 0.93755 0.0
C1445 C 0.6166 0.3288 0.88958 0.0
N1446 N 0.63249 0.35731 0.82325 0.0
N1447 N 0.5674 0.33256 0.99324 0.0
C1448 C 0.61916 0.35188 0.87225 0.0
C1449 C 0.58616 0.33928 0.96085 0.0
N1450 N 0.61172 0.3915 0.8965 0.0
N1451 N 0.60206 0.30142 0.96176 0.0
H1452 H 0.55501 0.34375 1.00926 0.0
H1453 H 0.56285 0.31558 0.99879 0.0
H1454 H 0.61321 0.28884 0.94655 0.0
H1455 H 0.59323 0.29691 1.0012 0.0
H1456 H 0.62554 0.3973 0.87115 0.0
H1457 H 0.60305 0.40437 0.9196 0.0
H1458 H 0.63303 0.37346 0.80397 0.0
H1459 H 0.64186 0.34524 0.79903 0.0
C1460 C 0.88294 0.35892 0.16522 0.0
C1461 C 0.88447 0.33639 0.14243 0.0
C1462 C 0.9133 0.34838 0.06847 0.0
C1463 C 0.91053 0.37127 0.08757 0.0
N1464 N 0.8901 0.39901 0.14724 0.0
N1465 N 0.89621 0.31125 0.06113 0.0
C1466 C 0.89451 0.37676 0.13392 0.0
C1467 C 0.89811 0.33164 0.09051 0.0
N1468 N 0.87135 0.36311 0.21814 0.0
N1469 N 0.93135 0.34217 0.03261 0.0
H1470 H 0.88479 0.29872 0.07476 0.0
H1471 H 0.90408 0.30783 0.01947 0.0
H1472 H 0.94386 0.35345 0.01791 0.0
H1473 H 0.93535 0.32528 0.02312 0.0
H1474 H 0.87174 0.37868 0.24068 0.0
H1475 H 0.8627 0.3505 0.24217 0.0
H1476 H 0.87706 0.40419 0.17632 0.0
H1477 H 0.89823 0.4124 0.12498 0.0
C1478 C 0.89347 0.63047 0.40532 0.0
C1479 C 0.91613 0.63785 0.41653 0.0
C1480 C 0.90741 0.67449 0.36983 0.0
C1481 C 0.88587 0.66617 0.3511 0.0
N1482 N 0.85893 0.63539 0.34564 0.0
N1483 N 0.94621 0.66464 0.39343 0.0
C1484 C 0.87896 0.6439 0.36751 0.0
C1485 C 0.92356 0.65923 0.39435 0.0
N1486 N 0.88561 0.61107 0.43223 0.0
N1487 N 0.91224 0.69718 0.36669 0.0
H1488 H 0.95899 0.65345 0.40709 0.0
H1489 H 0.95247 0.67918 0.37211 0.0
H1490 H 0.90043 0.7093 0.35239 0.0
H1491 H 0.92698 0.70421 0.38523 0.0
H1492 H 0.86864 0.606 0.43071 0.0
H1493 H 0.89571 0.601 0.46052 0.0
H1494 H 0.85407 0.61849 0.35068 0.0
H1495 H 0.8479 0.64488 0.3184 0.0
C1496 C 0.38275 0.33253 0.44959 0.0
C1497 C 0.37376 0.33545 0.38994 0.0
C1498 C 0.40183 0.3653 0.36914 0.0
C1499 C 0.41071 0.36241 0.42894 0.0
N1500 N 0.40594 0.34808 0.53095 0.0
N1501 N 0.37096 0.35771 0.29829 0.0
C1502 C 0.39992 0.34756 0.47074 0.0
C1503 C 0.38209 0.35291 0.35148 0.0
N1504 N 0.37599 0.31455 0.48469 0.0
N1505 N 0.41297 0.37879 0.32808 0.0
H1506 H 0.35646 0.34887 0.28436 0.0
H1507 H 0.37476 0.37164 0.27089 0.0
H1508 H 0.42727 0.38841 0.33917 0.0
H1509 H 0.40902 0.37932 0.28182 0.0
H1510 H 0.38404 0.30993 0.52514 0.0
H1511 H 0.36345 0.30306 0.4714 0.0
H1512 H 0.39719 0.33929 0.56486 0.0
H1513 H 0.41829 0.35915 0.54792 0.0
C1514 C 0.39059 0.66642 0.07179 0.0
C1515 C 0.37989 0.66479 0.12986 0.0
C1516 C 0.40739 0.63554 0.16077 0.0
C1517 C 0.41776 0.63691 0.10232 0.0
N1518 N 0.41628 0.64942 0.9979 0.0
N1519 N 0.37495 0.64494 0.22495 0.0
C1520 C 0.40838 0.65103 0.05647 0.0
C1521 C 0.38735 0.64843 0.17295 0.0
N1522 N 0.38471 0.6835 0.03255 0.0
N1523 N 0.41728 0.62271 0.20544 0.0
H1524 H 0.36018 0.65408 0.23501 0.0
H1525 H 0.3781 0.63178 0.25547 0.0
H1526 H 0.43147 0.61246 0.19766 0.0
H1527 H 0.41232 0.62321 0.25103 0.0
H1528 H 0.39383 0.68729 0.99308 0.0
H1529 H 0.37177 0.69514 0.04148 0.0
H1530 H 0.40862 0.6575 0.961 0.0
H1531 H 0.42924 0.63822 0.98519 0.0
C1532 C 0.07581 0.66748 0.93257 0.0
C1533 C 0.07613 0.64497 0.90955 0.0
C1534 C 0.11421 0.65172 0.86646 0.0
C1535 C 0.11256 0.67485 0.88398 0.0
N1536 N 0.0891 0.70592 0.91878 0.0
N1537 N 0.09406 0.61658 0.84588 0.0
C1538 C 0.09258 0.68308 0.91281 0.0
C1539 C 0.09497 0.63723 0.8743 0.0
N1540 N 0.05996 0.67381 0.97508 0.0
N1541 N 0.13421 0.64356 0.84327 0.0
H1542 H 0.08018 0.60564 0.84962 0.0
H1543 H 0.10621 0.6111 0.81448 0.0
H1544 H 0.14836 0.6539 0.83561 0.0
H1545 H 0.1373 0.62636 0.8358 0.0
H1546 H 0.06039 0.68942 0.99747 0.0
H1547 H 0.04796 0.66258 0.99302 0.0
H1548 H 0.07387 0.71288 0.93459 0.0
H1549 H 0.10035 0.71793 0.90106 0.0
C1550 C 0.08578 0.34119 0.59625 0.0
C1551 C 0.0849 0.36471 0.60985 0.0
C1552 C 0.12486 0.36335 0.64279 0.0
C1553 C 0.12442 0.33937 0.63716 0.0
N1554 N 0.10285 0.30499 0.61994 0.0
N1555 N 0.10278 0.39805 0.65242 0.0
C1556 C 0.10442 0.32814 0.61717 0.0
C1557 C 0.1043 0.37589 0.63435 0.0
N1558 N 0.06915 0.33144 0.56135 0.0
N1559 N 0.14487 0.37408 0.65609 0.0
H1560 H 0.08803 0.40773 0.64727 0.0
H1561 H 0.11555 0.40637 0.67661 0.0
H1562 H 0.15998 0.36526 0.66436 0.0
H1563 H 0.14685 0.39165 0.65467 0.0
H1564 H 0.07013 0.31482 0.54515 0.0
H1565 H 0.05569 0.3407 0.54271 0.0
H1566 H 0.08775 0.29621 0.6119 0.0
H1567 H 0.11598 0.29464 0.6358 0.0
loop_
_geom_bond_atom_site_label_1
_geom_bond_atom_site_label_2
_geom_bond_distance
_geom_bond_site_symmetry_2
_ccdc_geom_bond_type
Mg0 O7 2.141 1_554 S
Mg0 O8 2.048 . S
Mg0 O9 2.048 . S
Mg0 O12 2.141 . S
C1 O2 1.313 . S
C1 O8 1.195 1_655 S
O2 C1 1.313 . S
C3 O4 1.245 . S
C3 O12 1.289 . S
O4 C3 1.245 . S
C5 O6 1.245 1_455 S
C5 O7 1.289 . S
O6 C5 1.245 1_655 S
O7 Mg0 2.141 1_556 S
O7 C5 1.289 . S
O8 Mg0 2.048 . S
O8 C1 1.195 1_455 S
O9 Mg0 2.048 . S
O9 C10 1.195 . S
C10 O9 1.195 . S
C10 O11 1.313 1_455 S
O11 C10 1.313 1_655 S
O12 Mg0 2.141 . S
O12 C3 1.289 . S
Mg13 O20 2.141 . S
Mg13 O21 2.048 . S
Mg13 O22 2.048 . S
Mg13 O25 2.141 . S
C14 O15 1.313 . S
C14 O21 1.195 . S
O15 C14 1.313 . S
C16 O17 1.245 . S
C16 O25 1.289 . S
O17 C16 1.245 . S
C18 O19 1.245 . S
C18 O20 1.289 . S
O19 C18 1.245 . S
O20 Mg13 2.141 . S
O20 C18 1.289 . S
O21 Mg13 2.048 . S
O21 C14 1.195 . S
O22 Mg13 2.048 . S
O22 C23 1.195 . S
C23 O22 1.195 . S
C23 O24 1.313 . S
O24 C23 1.313 . S
O25 Mg13 2.141 . S
O25 C16 1.289 . S
Mg26 O33 2.141 . S
Mg26 O34 2.048 . S
Mg26 O35 2.048 . S
Mg26 O38 2.141 . S
C27 O28 1.313 . S
C27 O34 1.195 . S
O28 C27 1.313 . S
C29 O30 1.245 . S
C29 O38 1.289 . S
O30 C29 1.245 . S
C31 O32 1.245 . S
C31 O33 1.289 . S
O32 C31 1.245 . S
O33 Mg26 2.141 . S
O33 C31 1.289 . S
O34 Mg26 2.048 . S
O34 C27 1.195 . S
O35 Mg26 2.048 . S
O35 C36 1.195 . S
C36 O35 1.195 . S
C36 O37 1.313 . S
O37 C36 1.313 . S
O38 Mg26 2.141 . S
O38 C29 1.289 . S
Mg39 O46 2.141 . S
Mg39 O47 2.048 . S
Mg39 O48 2.048 . S
Mg39 O51 2.141 . S
C40 O41 1.313 . S
C40 O47 1.195 . S
O41 C40 1.313 . S
C42 O43 1.245 . S
C42 O51 1.289 . S
O43 C42 1.245 . S
C44 O45 1.245 . S
C44 O46 1.289 . S
O45 C44 1.245 . S
O46 Mg39 2.141 . S
O46 C44 1.289 . S
O47 Mg39 2.048 . S
O47 C40 1.195 . S
O48 Mg39 2.048 . S
O48 C49 1.195 . S
C49 O48 1.195 . S
C49 O50 1.313 . S
O50 C49 1.313 . S
O51 Mg39 2.141 . S
O51 C42 1.289 . S
Mg52 O59 2.141 . S
Mg52 O60 2.048 . S
Mg52 O61 2.048 . S
Mg52 O64 2.141 . S
C53 O54 1.313 . S
C53 O60 1.195 1_655 S
O54 C53 1.313 . S
C55 O56 1.245 . S
C55 O64 1.289 . S
O56 C55 1.245 . S
C57 O58 1.245 1_455 S
C57 O59 1.289 . S
O58 C57 1.245 1_655 S
O59 Mg52 2.141 . S
O59 C57 1.289 . S
O60 Mg52 2.048 . S
O60 C53 1.195 1_455 S
O61 Mg52 2.048 . S
O61 C62 1.195 . S
C62 O61 1.195 . S
C62 O63 1.313 1_455 S
O63 C62 1.313 1_655 S
O64 Mg52 2.141 . S
O64 C55 1.289 . S
Mg65 O72 2.141 . S
Mg65 O73 2.048 . S
Mg65 O74 2.048 . S
Mg65 O77 2.141 . S
C66 O67 1.313 . S
C66 O73 1.195 . S
O67 C66 1.313 . S
C68 O69 1.245 . S
C68 O77 1.289 . S
O69 C68 1.245 . S
C70 O71 1.245 . S
C70 O72 1.289 . S
O71 C70 1.245 . S
O72 Mg65 2.141 . S
O72 C70 1.289 . S
O73 Mg65 2.048 . S
O73 C66 1.195 . S
O74 Mg65 2.048 . S
O74 C75 1.195 . S
C75 O74 1.195 . S
C75 O76 1.313 . S
O76 C75 1.313 . S
O77 Mg65 2.141 . S
O77 C68 1.289 . S
Mg78 O85 2.141 1_556 S
Mg78 O86 2.048 . S
Mg78 O87 2.048 . S
Mg78 O90 2.141 . S
C79 O80 1.313 . S
C79 O86 1.195 . S
O80 C79 1.313 . S
C81 O82 1.245 . S
C81 O90 1.289 . S
O82 C81 1.245 . S
C83 O84 1.245 . S
C83 O85 1.289 . S
O84 C83 1.245 . S
O85 Mg78 2.141 1_554 S
O85 C83 1.289 . S
O86 Mg78 2.048 . S
O86 C79 1.195 . S
O87 Mg78 2.048 . S
O87 C88 1.195 . S
C88 O87 1.195 . S
C88 O89 1.313 . S
O89 C88 1.313 . S
O90 Mg78 2.141 . S
O90 C81 1.289 . S
Mg91 O98 2.141 . S
Mg91 O99 2.048 . S
Mg91 O100 2.048 . S
Mg91 O103 2.141 . S
C92 O93 1.313 . S
C92 O99 1.195 . S
O93 C92 1.313 . S
C94 O95 1.245 . S
C94 O103 1.289 . S
O95 C94 1.245 . S
C96 O97 1.245 . S
C96 O98 1.289 . S
O97 C96 1.245 . S
O98 Mg91 2.141 . S
O98 C96 1.289 . S
O99 Mg91 2.048 . S
O99 C92 1.195 . S
O100 Mg91 2.048 . S
O100 C101 1.195 . S
C101 O100 1.195 . S
C101 O102 1.313 . S
O102 C101 1.313 . S
O103 Mg91 2.141 . S
O103 C94 1.289 . S
Mg104 O111 2.141 . S
Mg104 O112 2.048 . S
Mg104 O113 2.048 . S
Mg104 O116 2.141 1_556 S
C105 O106 1.313 1_655 S
C105 O112 1.195 . S
O106 C105 1.313 1_455 S
C107 O108 1.245 1_655 S
C107 O116 1.289 . S
O108 C107 1.245 1_455 S
C109 O110 1.245 . S
C109 O111 1.289 . S
O110 C109 1.245 . S
O111 Mg104 2.141 . S
O111 C109 1.289 . S
O112 Mg104 2.048 . S
O112 C105 1.195 . S
O113 Mg104 2.048 . S
O113 C114 1.195 1_655 S
C114 O113 1.195 1_455 S
C114 O115 1.313 . S
O115 C114 1.313 . S
O116 Mg104 2.141 1_554 S
O116 C107 1.289 . S
Mg117 O124 2.141 . S
Mg117 O125 2.048 . S
Mg117 O126 2.048 . S
Mg117 O129 2.141 . S
C118 O119 1.313 . S
C118 O125 1.195 . S
O119 C118 1.313 . S
C120 O121 1.245 . S
C120 O129 1.289 . S
O121 C120 1.245 . S
C122 O123 1.245 . S
C122 O124 1.289 . S
O123 C122 1.245 . S
O124 Mg117 2.141 . S
O124 C122 1.289 . S
O125 Mg117 2.048 . S
O125 C118 1.195 . S
O126 Mg117 2.048 . S
O126 C127 1.195 . S
C127 O126 1.195 . S
C127 O128 1.313 . S
O128 C127 1.313 . S
O129 Mg117 2.141 . S
O129 C120 1.289 . S
Mg130 O137 2.141 . S
Mg130 O138 2.048 . S
Mg130 O139 2.048 . S
Mg130 O142 2.141 . S
C131 O132 1.313 . S
C131 O138 1.195 . S
O132 C131 1.313 . S
C133 O134 1.245 . S
C133 O142 1.289 . S
O134 C133 1.245 . S
C135 O136 1.245 . S
C135 O137 1.289 . S
O136 C135 1.245 . S
O137 Mg130 2.141 . S
O137 C135 1.289 . S
O138 Mg130 2.048 . S
O138 C131 1.195 . S
O139 Mg130 2.048 . S
O139 C140 1.195 . S
C140 O139 1.195 . S
C140 O141 1.313 . S
O141 C140 1.313 . S
O142 Mg130 2.141 . S
O142 C133 1.289 . S
Mg143 O150 2.141 . S
Mg143 O151 2.048 . S
Mg143 O152 2.048 . S
Mg143 O155 2.141 . S
C144 O145 1.313 . S
C144 O151 1.195 . S
O145 C144 1.313 . S
C146 O147 1.245 . S
C146 O155 1.289 . S
O147 C146 1.245 . S
C148 O149 1.245 . S
C148 O150 1.289 . S
O149 C148 1.245 . S
O150 Mg143 2.141 . S
O150 C148 1.289 . S
O151 Mg143 2.048 . S
O151 C144 1.195 . S
O152 Mg143 2.048 . S
O152 C153 1.195 . S
C153 O152 1.195 . S
C153 O154 1.313 . S
O154 C153 1.313 . S
O155 Mg143 2.141 . S
O155 C146 1.289 . S
Mg156 O163 2.141 . S
Mg156 O164 2.048 . S
Mg156 O165 2.048 . S
Mg156 O168 2.141 . S
C157 O158 1.313 1_655 S
C157 O164 1.195 . S
O158 C157 1.313 1_455 S
C159 O160 1.245 1_655 S
C159 O168 1.289 . S
O160 C159 1.245 1_455 S
C161 O162 1.245 . S
C161 O163 1.289 . S
O162 C161 1.245 . S
O163 Mg156 2.141 . S
O163 C161 1.289 . S
O164 Mg156 2.048 . S
O164 C157 1.195 . S
O165 Mg156 2.048 . S
O165 C166 1.195 1_655 S
C166 O165 1.195 1_455 S
C166 O167 1.313 . S
O167 C166 1.313 . S
O168 Mg156 2.141 . S
O168 C159 1.289 . S
Mg169 O176 2.141 . S
Mg169 O177 2.048 . S
Mg169 O178 2.048 . S
Mg169 O181 2.141 . S
C170 O171 1.313 . S
C170 O177 1.195 . S
O171 C170 1.313 . S
C172 O173 1.245 . S
C172 O181 1.289 . S
O173 C172 1.245 . S
C174 O175 1.245 . S
C174 O176 1.289 . S
O175 C174 1.245 . S
O176 Mg169 2.141 . S
O176 C174 1.289 . S
O177 Mg169 2.048 . S
O177 C170 1.195 . S
O178 Mg169 2.048 . S
O178 C179 1.195 . S
C179 O178 1.195 . S
C179 O180 1.313 . S
O180 C179 1.313 . S
O181 Mg169 2.141 . S
O181 C172 1.289 . S
Mg182 O189 2.141 . S
Mg182 O190 2.048 . S
Mg182 O191 2.048 . S
Mg182 O194 2.141 1_554 S
C183 O184 1.313 . S
C183 O190 1.195 . S
O184 C183 1.313 . S
C185 O186 1.245 . S
C185 O194 1.289 . S
O186 C185 1.245 . S
C187 O188 1.245 . S
C187 O189 1.289 . S
O188 C187 1.245 . S
O189 Mg182 2.141 . S
O189 C187 1.289 . S
O190 Mg182 2.048 . S
O190 C183 1.195 . S
O191 Mg182 2.048 . S
O191 C192 1.195 . S
C192 O191 1.195 . S
C192 O193 1.313 . S
O193 C192 1.313 . S
O194 Mg182 2.141 1_556 S
O194 C185 1.289 . S
Mg195 O202 2.141 . S
Mg195 O203 2.048 . S
Mg195 O204 2.048 . S
Mg195 O207 2.141 . S
C196 O197 1.313 . S
C196 O203 1.195 . S
O197 C196 1.313 . S
C198 O199 1.245 . S
C198 O207 1.289 . S
O199 C198 1.245 . S
C200 O201 1.245 . S
C200 O202 1.289 . S
O201 C200 1.245 . S
O202 Mg195 2.141 . S
O202 C200 1.289 . S
O203 Mg195 2.048 . S
O203 C196 1.195 . S
O204 Mg195 2.048 . S
O204 C205 1.195 . S
C205 O204 1.195 . S
C205 O206 1.313 . S
O206 C205 1.313 . S
O207 Mg195 2.141 . S
O207 C198 1.289 . S
Mg208 O215 2.141 . S
Mg208 O216 2.048 . S
Mg208 O217 2.048 . S
Mg208 O220 2.141 . S
C209 O210 1.313 . S
C209 O216 1.195 . S
O210 C209 1.313 . S
C211 O212 1.245 . S
C211 O220 1.289 . S
O212 C211 1.245 . S
C213 O214 1.245 . S
C213 O215 1.289 . S
O214 C213 1.245 . S
O215 Mg208 2.141 . S
O215 C213 1.289 . S
O216 Mg208 2.048 . S
O216 C209 1.195 . S
O217 Mg208 2.048 . S
O217 C218 1.195 . S
C218 O217 1.195 . S
C218 O219 1.313 . S
O219 C218 1.313 . S
O220 Mg208 2.141 . S
O220 C211 1.289 . S
Mg221 O228 2.141 . S
Mg221 O229 2.048 . S
Mg221 O230 2.048 . S
Mg221 O233 2.141 . S
C222 O223 1.313 . S
C222 O229 1.195 . S
O223 C222 1.313 . S
C224 O225 1.245 . S
C224 O233 1.289 . S
O225 C224 1.245 . S
C226 O227 1.245 . S
C226 O228 1.289 . S
O227 C226 1.245 . S
O228 Mg221 2.141 . S
O228 C226 1.289 . S
O229 Mg221 2.048 . S
O229 C222 1.195 . S
O230 Mg221 2.048 . S
O230 C231 1.195 . S
C231 O230 1.195 . S
C231 O232 1.313 . S
O232 C231 1.313 . S
O233 Mg221 2.141 . S
O233 C224 1.289 . S
Mg234 O241 2.141 1_554 S
Mg234 O242 2.048 . S
Mg234 O243 2.048 . S
Mg234 O246 2.141 . S
C235 O236 1.313 . S
C235 O242 1.195 1_455 S
O236 C235 1.313 . S
C237 O238 1.245 . S
C237 O246 1.289 . S
O238 C237 1.245 . S
C239 O240 1.245 1_655 S
C239 O241 1.289 . S
O240 C239 1.245 1_455 S
O241 Mg234 2.141 1_556 S
O241 C239 1.289 . S
O242 Mg234 2.048 . S
O242 C235 1.195 1_655 S
O243 Mg234 2.048 . S
O243 C244 1.195 . S
C244 O243 1.195 . S
C244 O245 1.313 1_655 S
O245 C244 1.313 1_455 S
O246 Mg234 2.141 . S
O246 C237 1.289 . S
Mg247 O254 2.141 . S
Mg247 O255 2.048 . S
Mg247 O256 2.048 . S
Mg247 O259 2.141 . S
C248 O249 1.313 . S
C248 O255 1.195 . S
O249 C248 1.313 . S
C250 O251 1.245 . S
C250 O259 1.289 . S
O251 C250 1.245 . S
C252 O253 1.245 . S
C252 O254 1.289 . S
O253 C252 1.245 . S
O254 Mg247 2.141 . S
O254 C252 1.289 . S
O255 Mg247 2.048 . S
O255 C248 1.195 . S
O256 Mg247 2.048 . S
O256 C257 1.195 . S
C257 O256 1.195 . S
C257 O258 1.313 . S
O258 C257 1.313 . S
O259 Mg247 2.141 . S
O259 C250 1.289 . S
Mg260 O267 2.141 1_556 S
Mg260 O268 2.048 . S
Mg260 O269 2.048 . S
Mg260 O272 2.141 . S
C261 O262 1.313 . S
C261 O268 1.195 . S
O262 C261 1.313 . S
C263 O264 1.245 . S
C263 O272 1.289 . S
O264 C263 1.245 . S
C265 O266 1.245 . S
C265 O267 1.289 . S
O266 C265 1.245 . S
O267 Mg260 2.141 1_554 S
O267 C265 1.289 . S
O268 Mg260 2.048 . S
O268 C261 1.195 . S
O269 Mg260 2.048 . S
O269 C270 1.195 . S
C270 O269 1.195 . S
C270 O271 1.313 . S
O271 C270 1.313 . S
O272 Mg260 2.141 . S
O272 C263 1.289 . S
Mg273 O280 2.141 . S
Mg273 O281 2.048 . S
Mg273 O282 2.048 . S
Mg273 O285 2.141 . S
C274 O275 1.313 . S
C274 O281 1.195 . S
O275 C274 1.313 . S
C276 O277 1.245 . S
C276 O285 1.289 . S
O277 C276 1.245 . S
C278 O279 1.245 . S
C278 O280 1.289 . S
O279 C278 1.245 . S
O280 Mg273 2.141 . S
O280 C278 1.289 . S
O281 Mg273 2.048 . S
O281 C274 1.195 . S
O282 Mg273 2.048 . S
O282 C283 1.195 . S
C283 O282 1.195 . S
C283 O284 1.313 . S
O284 C283 1.313 . S
O285 Mg273 2.141 . S
O285 C276 1.289 . S
Mg286 O293 2.141 . S
Mg286 O294 2.048 . S
Mg286 O295 2.048 . S
Mg286 O298 2.141 . S
C287 O288 1.313 . S
C287 O294 1.195 1_455 S
O288 C287 1.313 . S
C289 O290 1.245 . S
C289 O298 1.289 . S
O290 C289 1.245 . S
C291 O292 1.245 1_655 S
C291 O293 1.289 . S
O292 C291 1.245 1_455 S
O293 Mg286 2.141 . S
O293 C291 1.289 . S
O294 Mg286 2.048 . S
O294 C287 1.195 1_655 S
O295 Mg286 2.048 . S
O295 C296 1.195 . S
C296 O295 1.195 . S
C296 O297 1.313 1_655 S
O297 C296 1.313 1_455 S
O298 Mg286 2.141 . S
O298 C289 1.289 . S
Mg299 O306 2.141 . S
Mg299 O307 2.048 . S
Mg299 O308 2.048 . S
Mg299 O311 2.141 . S
C300 O301 1.313 . S
C300 O307 1.195 . S
O301 C300 1.313 . S
C302 O303 1.245 . S
C302 O311 1.289 . S
O303 C302 1.245 . S
C304 O305 1.245 . S
C304 O306 1.289 . S
O305 C304 1.245 . S
O306 Mg299 2.141 . S
O306 C304 1.289 . S
O307 Mg299 2.048 . S
O307 C300 1.195 . S
O308 Mg299 2.048 . S
O308 C309 1.195 . S
C309 O308 1.195 . S
C309 O310 1.313 . S
O310 C309 1.313 . S
O311 Mg299 2.141 . S
O311 C302 1.289 . S
Mg312 O319 2.141 . S
Mg312 O320 2.048 . S
Mg312 O321 2.048 . S
Mg312 O324 2.141 . S
C313 O314 1.313 . S
C313 O320 1.195 . S
O314 C313 1.313 . S
C315 O316 1.245 . S
C315 O324 1.289 . S
O316 C315 1.245 . S
C317 O318 1.245 . S
C317 O319 1.289 . S
O318 C317 1.245 . S
O319 Mg312 2.141 . S
O319 C317 1.289 . S
O320 Mg312 2.048 . S
O320 C313 1.195 . S
O321 Mg312 2.048 . S
O321 C322 1.195 . S
C322 O321 1.195 . S
C322 O323 1.313 . S
O323 C322 1.313 . S
O324 Mg312 2.141 . S
O324 C315 1.289 . S
Mg325 O332 2.141 . S
Mg325 O333 2.048 . S
Mg325 O334 2.048 . S
Mg325 O337 2.141 . S
C326 O327 1.313 . S
C326 O333 1.195 . S
O327 C326 1.313 . S
C328 O329 1.245 . S
C328 O337 1.289 . S
O329 C328 1.245 . S
C330 O331 1.245 . S
C330 O332 1.289 . S
O331 C330 1.245 . S
O332 Mg325 2.141 . S
O332 C330 1.289 . S
O333 Mg325 2.048 . S
O333 C326 1.195 . S
O334 Mg325 2.048 . S
O334 C335 1.195 . S
C335 O334 1.195 . S
C335 O336 1.313 . S
O336 C335 1.313 . S
O337 Mg325 2.141 . S
O337 C328 1.289 . S
Mg338 O345 2.141 . S
Mg338 O346 2.048 . S
Mg338 O347 2.048 . S
Mg338 O350 2.141 1_556 S
C339 O340 1.313 1_455 S
C339 O346 1.195 . S
O340 C339 1.313 1_655 S
C341 O342 1.245 1_455 S
C341 O350 1.289 . S
O342 C341 1.245 1_655 S
C343 O344 1.245 . S
C343 O345 1.289 . S
O344 C343 1.245 . S
O345 Mg338 2.141 . S
O345 C343 1.289 . S
O346 Mg338 2.048 . S
O346 C339 1.195 . S
O347 Mg338 2.048 . S
O347 C348 1.195 1_455 S
C348 O347 1.195 1_655 S
C348 O349 1.313 . S
O349 C348 1.313 . S
O350 Mg338 2.141 1_554 S
O350 C341 1.289 . S
Mg351 O358 2.141 . S
Mg351 O359 2.048 . S
Mg351 O360 2.048 . S
Mg351 O363 2.141 . S
C352 O353 1.313 . S
C352 O359 1.195 . S
O353 C352 1.313 . S
C354 O355 1.245 . S
C354 O363 1.289 . S
O355 C354 1.245 . S
C356 O357 1.245 . S
C356 O358 1.289 . S
O357 C356 1.245 . S
O358 Mg351 2.141 . S
O358 C356 1.289 . S
O359 Mg351 2.048 . S
O359 C352 1.195 . S
O360 Mg351 2.048 . S
O360 C361 1.195 . S
C361 O360 1.195 . S
C361 O362 1.313 . S
O362 C361 1.313 . S
O363 Mg351 2.141 . S
O363 C354 1.289 . S
Mg364 O371 2.141 . S
Mg364 O372 2.048 . S
Mg364 O373 2.048 . S
Mg364 O376 2.141 1_554 S
C365 O366 1.313 . S
C365 O372 1.195 . S
O366 C365 1.313 . S
C367 O368 1.245 . S
C367 O376 1.289 . S
O368 C367 1.245 . S
C369 O370 1.245 . S
C369 O371 1.289 . S
O370 C369 1.245 . S
O371 Mg364 2.141 . S
O371 C369 1.289 . S
O372 Mg364 2.048 . S
O372 C365 1.195 . S
O373 Mg364 2.048 . S
O373 C374 1.195 . S
C374 O373 1.195 . S
C374 O375 1.313 . S
O375 C374 1.313 . S
O376 Mg364 2.141 1_556 S
O376 C367 1.289 . S
Mg377 O384 2.141 . S
Mg377 O385 2.048 . S
Mg377 O386 2.048 . S
Mg377 O389 2.141 . S
C378 O379 1.313 . S
C378 O385 1.195 . S
O379 C378 1.313 . S
C380 O381 1.245 . S
C380 O389 1.289 . S
O381 C380 1.245 . S
C382 O383 1.245 . S
C382 O384 1.289 . S
O383 C382 1.245 . S
O384 Mg377 2.141 . S
O384 C382 1.289 . S
O385 Mg377 2.048 . S
O385 C378 1.195 . S
O386 Mg377 2.048 . S
O386 C387 1.195 . S
C387 O386 1.195 . S
C387 O388 1.313 . S
O388 C387 1.313 . S
O389 Mg377 2.141 . S
O389 C380 1.289 . S
Mg390 O397 2.141 . S
Mg390 O398 2.048 . S
Mg390 O399 2.048 . S
Mg390 O402 2.141 . S
C391 O392 1.313 1_455 S
C391 O398 1.195 . S
O392 C391 1.313 1_655 S
C393 O394 1.245 1_455 S
C393 O402 1.289 . S
O394 C393 1.245 1_655 S
C395 O396 1.245 . S
C395 O397 1.289 . S
O396 C395 1.245 . S
O397 Mg390 2.141 . S
O397 C395 1.289 . S
O398 Mg390 2.048 . S
O398 C391 1.195 . S
O399 Mg390 2.048 . S
O399 C400 1.195 1_455 S
C400 O399 1.195 1_655 S
C400 O401 1.313 . S
O401 C400 1.313 . S
O402 Mg390 2.141 . S
O402 C393 1.289 . S
Mg403 O410 2.141 . S
Mg403 O411 2.048 . S
Mg403 O412 2.048 . S
Mg403 O415 2.141 . S
C404 O405 1.313 . S
C404 O411 1.195 . S
O405 C404 1.313 . S
C406 O407 1.245 . S
C406 O415 1.289 . S
O407 C406 1.245 . S
C408 O409 1.245 . S
C408 O410 1.289 . S
O409 C408 1.245 . S
O410 Mg403 2.141 . S
O410 C408 1.289 . S
O411 Mg403 2.048 . S
O411 C404 1.195 . S
O412 Mg403 2.048 . S
O412 C413 1.195 . S
C413 O412 1.195 . S
C413 O414 1.313 . S
O414 C413 1.313 . S
O415 Mg403 2.141 . S
O415 C406 1.289 . S
C416 C417 1.363 1_455 S
C416 C422 1.379 . S
C416 N424 1.356 . S
C417 C416 1.363 1_655 S
C417 C423 1.363 . S
C418 C419 1.363 1_655 S
C418 C423 1.379 . S
C418 N425 1.356 . S
C419 C418 1.363 1_455 S
C419 C422 1.363 . S
N420 C422 1.356 . S
N420 H432 0.984 . S
N420 H433 0.985 . S
N421 C423 1.356 . S
N421 H426 0.984 . S
N421 H427 0.985 . S
C422 C416 1.379 . S
C422 C419 1.363 . S
C422 N420 1.356 . S
C423 C417 1.363 . S
C423 C418 1.379 . S
C423 N421 1.356 . S
N424 C416 1.356 . S
N424 H430 0.984 . S
N424 H431 0.984 . S
N425 C418 1.356 . S
N425 H428 0.984 1_655 S
N425 H429 0.985 . S
H426 N421 0.984 . S
H427 N421 0.985 . S
H428 N425 0.984 1_455 S
H429 N425 0.985 . S
H430 N424 0.984 . S
H431 N424 0.984 . S
H432 N420 0.984 . S
H433 N420 0.985 . S
C434 C435 1.363 1_554 S
C434 C440 1.379 . S
C434 N442 1.356 1_554 S
C435 C434 1.363 1_556 S
C435 C441 1.363 1_556 S
C436 C437 1.363 . S
C436 C441 1.379 . S
C436 N443 1.356 . S
C437 C436 1.363 . S
C437 C440 1.363 . S
N438 C440 1.356 . S
N438 H450 0.984 . S
N438 H451 0.985 . S
N439 C441 1.356 1_556 S
N439 H444 0.984 . S
N439 H445 0.985 1_556 S
C440 C434 1.379 . S
C440 C437 1.363 . S
C440 N438 1.356 . S
C441 C435 1.363 1_554 S
C441 C436 1.379 . S
C441 N439 1.356 1_554 S
N442 C434 1.356 1_556 S
N442 H448 0.984 . S
N442 H449 0.984 . S
N443 C436 1.356 . S
N443 H446 0.984 . S
N443 H447 0.985 . S
H444 N439 0.984 . S
H445 N439 0.985 1_554 S
H446 N443 0.984 . S
H447 N443 0.985 . S
H448 N442 0.984 . S
H449 N442 0.984 . S
H450 N438 0.984 . S
H451 N438 0.985 . S
C452 C453 1.363 . S
C452 C458 1.379 . S
C452 N460 1.356 . S
C453 C452 1.363 . S
C453 C459 1.363 . S
C454 C455 1.363 . S
C454 C459 1.379 . S
C454 N461 1.356 . S
C455 C454 1.363 . S
C455 C458 1.363 . S
N456 C458 1.356 . S
N456 H468 0.984 . S
N456 H469 0.985 . S
N457 C459 1.356 . S
N457 H462 0.984 . S
N457 H463 0.985 . S
C458 C452 1.379 . S
C458 C455 1.363 . S
C458 N456 1.356 . S
C459 C453 1.363 . S
C459 C454 1.379 . S
C459 N457 1.356 . S
N460 C452 1.356 . S
N460 H466 0.984 . S
N460 H467 0.984 . S
N461 C454 1.356 . S
N461 H464 0.984 . S
N461 H465 0.985 . S
H462 N457 0.984 . S
H463 N457 0.985 . S
H464 N461 0.984 . S
H465 N461 0.985 . S
H466 N460 0.984 . S
H467 N460 0.984 . S
H468 N456 0.984 . S
H469 N456 0.985 . S
C470 C471 1.363 . S
C470 C476 1.379 . S
C470 N478 1.356 . S
C471 C470 1.363 . S
C471 C477 1.363 . S
C472 C473 1.363 . S
C472 C477 1.379 . S
C472 N479 1.356 . S
C473 C472 1.363 . S
C473 C476 1.363 . S
N474 C476 1.356 . S
N474 H486 0.984 . S
N474 H487 0.985 . S
N475 C477 1.356 . S
N475 H480 0.984 . S
N475 H481 0.985 . S
C476 C470 1.379 . S
C476 C473 1.363 . S
C476 N474 1.356 . S
C477 C471 1.363 . S
C477 C472 1.379 . S
C477 N475 1.356 . S
N478 C470 1.356 . S
N478 H484 0.984 . S
N478 H485 0.984 . S
N479 C472 1.356 . S
N479 H482 0.984 . S
N479 H483 0.985 . S
H480 N475 0.984 . S
H481 N475 0.985 . S
H482 N479 0.984 . S
H483 N479 0.985 . S
H484 N478 0.984 . S
H485 N478 0.984 . S
H486 N474 0.984 . S
H487 N474 0.985 . S
C488 C489 1.363 1_455 S
C488 C494 1.379 . S
C488 N496 1.356 . S
C489 C488 1.363 1_655 S
C489 C495 1.363 . S
C490 C491 1.363 1_655 S
C490 C495 1.379 . S
C490 N497 1.356 . S
C491 C490 1.363 1_455 S
C491 C494 1.363 . S
N492 C494 1.356 . S
N492 H504 0.984 . S
N492 H505 0.985 . S
N493 C495 1.356 . S
N493 H498 0.984 . S
N493 H499 0.985 . S
C494 C488 1.379 . S
C494 C491 1.363 . S
C494 N492 1.356 . S
C495 C489 1.363 . S
C495 C490 1.379 . S
C495 N493 1.356 . S
N496 C488 1.356 . S
N496 H502 0.984 . S
N496 H503 0.984 . S
N497 C490 1.356 . S
N497 H500 0.963 1_655 S
N497 H501 0.985 . S
H498 N493 0.984 . S
H499 N493 0.985 . S
H500 N497 0.963 1_455 S
H501 N497 0.985 . S
H502 N496 0.984 . S
H503 N496 0.984 . S
H504 N492 0.984 . S
H505 N492 0.985 . S
C506 C507 1.363 . S
C506 C512 1.379 . S
C506 N514 1.356 . S
C507 C506 1.363 . S
C507 C513 1.363 . S
C508 C509 1.363 1_556 S
C508 C513 1.379 . S
C508 N515 1.356 . S
C509 C508 1.363 1_554 S
C509 C512 1.363 1_554 S
N510 C512 1.356 1_554 S
N510 H522 0.984 . S
N510 H523 0.985 . S
N511 C513 1.356 . S
N511 H516 0.984 . S
N511 H517 0.985 . S
C512 C506 1.379 . S
C512 C509 1.363 1_556 S
C512 N510 1.356 1_556 S
C513 C507 1.363 . S
C513 C508 1.379 . S
C513 N511 1.356 . S
N514 C506 1.356 . S
N514 H520 0.984 . S
N514 H521 0.984 . S
N515 C508 1.356 . S
N515 H518 0.984 1_556 S
N515 H519 0.985 . S
H516 N511 0.984 . S
H517 N511 0.985 . S
H518 N515 0.984 1_554 S
H519 N515 0.985 . S
H520 N514 0.984 . S
H521 N514 0.984 . S
H522 N510 0.984 . S
H523 N510 0.985 . S
C524 C525 1.363 . S
C524 C530 1.379 . S
C524 N532 1.356 . S
C525 C524 1.363 . S
C525 C531 1.363 . S
C526 C527 1.363 . S
C526 C531 1.379 . S
C526 N533 1.356 . S
C527 C526 1.363 . S
C527 C530 1.363 . S
N528 C530 1.356 . S
N528 H540 0.984 . S
N528 H541 0.985 . S
N529 C531 1.356 . S
N529 H534 0.984 . S
N529 H535 0.985 . S
C530 C524 1.379 . S
C530 C527 1.363 . S
C530 N528 1.356 . S
C531 C525 1.363 . S
C531 C526 1.379 . S
C531 N529 1.356 . S
N532 C524 1.356 . S
N532 H538 0.984 . S
N532 H539 0.984 . S
N533 C526 1.356 . S
N533 H536 0.984 . S
N533 H537 0.985 . S
H534 N529 0.984 . S
H535 N529 0.985 . S
H536 N533 0.984 . S
H537 N533 0.985 . S
H538 N532 0.984 . S
H539 N532 0.984 . S
H540 N528 0.984 . S
H541 N528 0.985 . S
C542 C543 1.363 . S
C542 C548 1.379 . S
C542 N550 1.356 . S
C543 C542 1.363 . S
C543 C549 1.363 . S
C544 C545 1.363 . S
C544 C549 1.379 . S
C544 N551 1.356 . S
C545 C544 1.363 . S
C545 C548 1.363 . S
N546 C548 1.356 . S
N546 H558 0.984 . S
N546 H559 0.985 . S
N547 C549 1.356 . S
N547 H552 0.984 . S
N547 H553 0.985 . S
C548 C542 1.379 . S
C548 C545 1.363 . S
C548 N546 1.356 . S
C549 C543 1.363 . S
C549 C544 1.379 . S
C549 N547 1.356 . S
N550 C542 1.356 . S
N550 H556 0.984 . S
N550 H557 0.984 . S
N551 C544 1.356 . S
N551 H554 0.984 . S
N551 H555 0.985 . S
H552 N547 0.984 . S
H553 N547 0.985 . S
H554 N551 0.984 . S
H555 N551 0.985 . S
H556 N550 0.984 . S
H557 N550 0.984 . S
H558 N546 0.984 . S
H559 N546 0.985 . S
C560 C561 1.363 . S
C560 C566 1.379 . S
C560 N568 1.356 . S
C561 C560 1.363 . S
C561 C567 1.363 1_455 S
C562 C563 1.363 . S
C562 C567 1.379 . S
C562 N569 1.356 . S
C563 C562 1.363 . S
C563 C566 1.363 1_655 S
N564 C566 1.356 . S
N564 H576 0.984 . S
N564 H577 0.992 . S
N565 C567 1.356 . S
N565 H570 0.984 . S
N565 H571 0.985 . S
C566 C560 1.379 . S
C566 C563 1.363 1_455 S
C566 N564 1.356 . S
C567 C561 1.363 1_655 S
C567 C562 1.379 . S
C567 N565 1.356 . S
N568 C560 1.356 . S
N568 H574 0.984 . S
N568 H575 0.984 . S
N569 C562 1.356 . S
N569 H572 0.984 . S
N569 H573 0.985 . S
H570 N565 0.984 . S
H571 N565 0.985 . S
H572 N569 0.984 . S
H573 N569 0.985 . S
H574 N568 0.984 . S
H575 N568 0.984 . S
H576 N564 0.984 . S
H577 N564 0.992 . S
C578 C579 1.363 1_556 S
C578 C584 1.379 . S
C578 N586 1.356 1_556 S
C579 C578 1.363 1_554 S
C579 C585 1.363 1_554 S
C580 C581 1.363 . S
C580 C585 1.379 . S
C580 N587 1.356 . S
C581 C580 1.363 . S
C581 C584 1.363 . S
N582 C584 1.356 . S
N582 H594 0.984 . S
N582 H595 0.985 . S
N583 C585 1.356 . S
N583 H588 0.984 1_556 S
N583 H589 0.985 . S
C584 C578 1.379 . S
C584 C581 1.363 . S
C584 N582 1.356 . S
C585 C579 1.363 1_556 S
C585 C580 1.379 . S
C585 N583 1.356 . S
N586 C578 1.356 1_554 S
N586 H592 0.984 . S
N586 H593 0.984 . S
N587 C580 1.356 . S
N587 H590 0.984 . S
N587 H591 0.985 . S
H588 N583 0.984 1_554 S
H589 N583 0.985 . S
H590 N587 0.984 . S
H591 N587 0.985 . S
H592 N586 0.984 . S
H593 N586 0.984 . S
H594 N582 0.984 . S
H595 N582 0.985 . S
C596 C597 1.363 . S
C596 C602 1.379 . S
C596 N604 1.356 . S
C597 C596 1.363 . S
C597 C603 1.363 . S
C598 C599 1.363 . S
C598 C603 1.379 . S
C598 N605 1.356 . S
C599 C598 1.363 . S
C599 C602 1.363 . S
N600 C602 1.356 . S
N600 H612 0.984 . S
N600 H613 0.985 . S
N601 C603 1.356 . S
N601 H606 0.984 . S
N601 H607 0.985 . S
C602 C596 1.379 . S
C602 C599 1.363 . S
C602 N600 1.356 . S
C603 C597 1.363 . S
C603 C598 1.379 . S
C603 N601 1.356 . S
N604 C596 1.356 . S
N604 H610 0.984 . S
N604 H611 0.984 . S
N605 C598 1.356 . S
N605 H608 0.984 . S
N605 H609 0.985 . S
H606 N601 0.984 . S
H607 N601 0.985 . S
H608 N605 0.984 . S
H609 N605 0.985 . S
H610 N604 0.984 . S
H611 N604 0.984 . S
H612 N600 0.984 . S
H613 N600 0.985 . S
C614 C615 1.363 . S
C614 C620 1.379 . S
C614 N622 1.356 . S
C615 C614 1.363 . S
C615 C621 1.363 . S
C616 C617 1.363 . S
C616 C621 1.379 . S
C616 N623 1.356 . S
C617 C616 1.363 . S
C617 C620 1.363 . S
N618 C620 1.356 . S
N618 H630 0.984 . S
N618 H631 0.985 . S
N619 C621 1.356 . S
N619 H624 0.984 . S
N619 H625 0.985 . S
C620 C614 1.379 . S
C620 C617 1.363 . S
C620 N618 1.356 . S
C621 C615 1.363 . S
C621 C616 1.379 . S
C621 N619 1.356 . S
N622 C614 1.356 . S
N622 H628 0.984 . S
N622 H629 0.984 . S
N623 C616 1.356 . S
N623 H626 0.984 . S
N623 H627 0.985 . S
H624 N619 0.984 . S
H625 N619 0.985 . S
H626 N623 0.984 . S
H627 N623 0.985 . S
H628 N622 0.984 . S
H629 N622 0.984 . S
H630 N618 0.984 . S
H631 N618 0.985 . S
C632 C633 1.363 1_455 S
C632 C638 1.379 . S
C632 N640 1.356 . S
C633 C632 1.363 1_655 S
C633 C639 1.363 . S
C634 C635 1.363 1_655 S
C634 C639 1.379 . S
C634 N641 1.356 . S
C635 C634 1.363 1_455 S
C635 C638 1.363 . S
N636 C638 1.356 . S
N636 H648 0.984 . S
N636 H649 0.985 . S
N637 C639 1.356 . S
N637 H642 0.984 . S
N637 H643 0.985 . S
C638 C632 1.379 . S
C638 C635 1.363 . S
C638 N636 1.356 . S
C639 C633 1.363 . S
C639 C634 1.379 . S
C639 N637 1.356 . S
N640 C632 1.356 . S
N640 H646 0.984 . S
N640 H647 0.984 . S
N641 C634 1.356 . S
N641 H644 0.984 . S
N641 H645 0.985 . S
H642 N637 0.984 . S
H643 N637 0.985 . S
H644 N641 0.984 . S
H645 N641 0.985 . S
H646 N640 0.984 . S
H647 N640 0.984 . S
H648 N636 0.984 . S
H649 N636 0.985 . S
C650 C651 1.363 . S
C650 C656 1.379 . S
C650 N658 1.356 . S
C651 C650 1.363 . S
C651 C657 1.363 . S
C652 C653 1.363 1_554 S
C652 C657 1.379 . S
C652 N659 1.356 1_554 S
C653 C652 1.363 1_556 S
C653 C656 1.363 1_556 S
N654 C656 1.356 . S
N654 H666 0.984 . S
N654 H667 0.985 1_554 S
N655 C657 1.356 . S
N655 H660 0.984 . S
N655 H661 0.985 . S
C656 C650 1.379 . S
C656 C653 1.363 1_554 S
C656 N654 1.356 . S
C657 C651 1.363 . S
C657 C652 1.379 . S
C657 N655 1.356 . S
N658 C650 1.356 . S
N658 H664 0.984 . S
N658 H665 0.984 . S
N659 C652 1.356 1_556 S
N659 H662 0.984 . S
N659 H663 0.985 . S
H660 N655 0.984 . S
H661 N655 0.985 . S
H662 N659 0.984 . S
H663 N659 0.985 . S
H664 N658 0.984 . S
H665 N658 0.984 . S
H666 N654 0.984 . S
H667 N654 0.985 1_556 S
C668 C669 1.363 . S
C668 C674 1.379 . S
C668 N676 1.356 . S
C669 C668 1.363 . S
C669 C675 1.363 . S
C670 C671 1.363 . S
C670 C675 1.379 . S
C670 N677 1.356 . S
C671 C670 1.363 . S
C671 C674 1.363 . S
N672 C674 1.356 . S
N672 H684 0.984 . S
N672 H685 0.985 . S
N673 C675 1.356 . S
N673 H678 0.984 . S
N673 H679 0.985 . S
C674 C668 1.379 . S
C674 C671 1.363 . S
C674 N672 1.356 . S
C675 C669 1.363 . S
C675 C670 1.379 . S
C675 N673 1.356 . S
N676 C668 1.356 . S
N676 H682 0.984 . S
N676 H683 0.984 . S
N677 C670 1.356 . S
N677 H680 0.984 . S
N677 H681 0.985 . S
H678 N673 0.984 . S
H679 N673 0.985 . S
H680 N677 0.984 . S
H681 N677 0.985 . S
H682 N676 0.984 . S
H683 N676 0.984 . S
H684 N672 0.984 . S
H685 N672 0.985 . S
C686 C687 1.363 . S
C686 C692 1.379 . S
C686 N694 1.356 . S
C687 C686 1.363 . S
C687 C693 1.363 . S
C688 C689 1.363 . S
C688 C693 1.379 . S
C688 N695 1.356 . S
C689 C688 1.363 . S
C689 C692 1.363 . S
N690 C692 1.356 . S
N690 H702 0.984 . S
N690 H703 0.985 . S
N691 C693 1.356 . S
N691 H696 0.984 . S
N691 H697 0.985 . S
C692 C686 1.379 . S
C692 C689 1.363 . S
C692 N690 1.356 . S
C693 C687 1.363 . S
C693 C688 1.379 . S
C693 N691 1.356 . S
N694 C686 1.356 . S
N694 H700 0.984 . S
N694 H701 0.984 . S
N695 C688 1.356 . S
N695 H698 0.984 . S
N695 H699 0.985 . S
H696 N691 0.984 . S
H697 N691 0.985 . S
H698 N695 0.984 . S
H699 N695 0.985 . S
H700 N694 0.984 . S
H701 N694 0.984 . S
H702 N690 0.984 . S
H703 N690 0.985 . S
C704 C705 1.363 . S
C704 C710 1.379 . S
C704 N712 1.356 . S
C705 C704 1.363 . S
C705 C711 1.363 . S
C706 C707 1.363 . S
C706 C711 1.379 . S
C706 N713 1.356 . S
C707 C706 1.363 . S
C707 C710 1.363 . S
N708 C710 1.356 . S
N708 H720 0.984 . S
N708 H721 0.985 . S
N709 C711 1.356 . S
N709 H714 0.984 . S
N709 H715 0.985 . S
C710 C704 1.379 . S
C710 C707 1.363 . S
C710 N708 1.356 . S
C711 C705 1.363 . S
C711 C706 1.379 . S
C711 N709 1.356 . S
N712 C704 1.356 . S
N712 H718 0.984 . S
N712 H719 0.984 . S
N713 C706 1.356 . S
N713 H716 0.984 . S
N713 H717 0.985 . S
H714 N709 0.984 . S
H715 N709 0.985 . S
H716 N713 0.984 . S
H717 N713 0.985 . S
H718 N712 0.984 . S
H719 N712 0.984 . S
H720 N708 0.984 . S
H721 N708 0.985 . S
C722 C723 1.363 . S
C722 C728 1.379 . S
C722 N730 1.356 . S
C723 C722 1.363 . S
C723 C729 1.363 . S
C724 C725 1.363 . S
C724 C729 1.379 . S
C724 N731 1.356 . S
C725 C724 1.363 . S
C725 C728 1.363 . S
N726 C728 1.356 . S
N726 H738 0.984 . S
N726 H739 0.985 . S
N727 C729 1.356 . S
N727 H732 0.984 . S
N727 H733 0.985 . S
C728 C722 1.379 . S
C728 C725 1.363 . S
C728 N726 1.356 . S
C729 C723 1.363 . S
C729 C724 1.379 . S
C729 N727 1.356 . S
N730 C722 1.356 . S
N730 H736 0.984 . S
N730 H737 0.984 . S
N731 C724 1.356 . S
N731 H734 0.984 . S
N731 H735 0.985 . S
H732 N727 0.984 . S
H733 N727 0.985 . S
H734 N731 0.984 . S
H735 N731 0.985 . S
H736 N730 0.984 . S
H737 N730 0.984 . S
H738 N726 0.984 . S
H739 N726 0.985 . S
C740 C741 1.363 1_655 S
C740 C746 1.379 . S
C740 N748 1.356 . S
C741 C740 1.363 1_455 S
C741 C747 1.363 . S
C742 C743 1.363 1_455 S
C742 C747 1.379 . S
C742 N749 1.356 . S
C743 C742 1.363 1_655 S
C743 C746 1.363 . S
N744 C746 1.356 . S
N744 H756 0.984 . S
N744 H757 0.985 . S
N745 C747 1.356 . S
N745 H750 0.984 . S
N745 H751 0.985 . S
C746 C740 1.379 . S
C746 C743 1.363 . S
C746 N744 1.356 . S
C747 C741 1.363 . S
C747 C742 1.379 . S
C747 N745 1.356 . S
N748 C740 1.356 . S
N748 H754 0.984 . S
N748 H755 1.001 . S
N749 C742 1.356 . S
N749 H752 0.984 1_455 S
N749 H753 0.985 . S
H750 N745 0.984 . S
H751 N745 0.985 . S
H752 N749 0.984 1_655 S
H753 N749 0.985 . S
H754 N748 0.984 . S
H755 N748 1.001 . S
H756 N744 0.984 . S
H757 N744 0.985 . S
C758 C759 1.363 . S
C758 C764 1.379 . S
C758 N766 1.356 . S
C759 C758 1.363 . S
C759 C765 1.363 . S
C760 C761 1.363 1_554 S
C760 C765 1.379 . S
C760 N767 1.356 . S
C761 C760 1.363 1_556 S
C761 C764 1.363 1_556 S
N762 C764 1.356 1_556 S
N762 H774 0.984 . S
N762 H775 0.985 . S
N763 C765 1.356 . S
N763 H768 0.984 . S
N763 H769 0.985 . S
C764 C758 1.379 . S
C764 C761 1.363 1_554 S
C764 N762 1.356 1_554 S
C765 C759 1.363 . S
C765 C760 1.379 . S
C765 N763 1.356 . S
N766 C758 1.356 . S
N766 H772 0.984 . S
N766 H773 0.984 . S
N767 C760 1.356 . S
N767 H770 0.984 1_554 S
N767 H771 0.985 . S
H768 N763 0.984 . S
H769 N763 0.985 . S
H770 N767 0.984 1_556 S
H771 N767 0.985 . S
H772 N766 0.984 . S
H773 N766 0.984 . S
H774 N762 0.984 . S
H775 N762 0.985 . S
C776 C777 1.363 . S
C776 C782 1.379 . S
C776 N784 1.356 . S
C777 C776 1.363 . S
C777 C783 1.363 . S
C778 C779 1.363 . S
C778 C783 1.379 . S
C778 N785 1.356 . S
C779 C778 1.363 . S
C779 C782 1.363 . S
N780 C782 1.356 . S
N780 H792 0.984 . S
N780 H793 0.985 . S
N781 C783 1.356 . S
N781 H786 0.984 . S
N781 H787 0.985 . S
C782 C776 1.379 . S
C782 C779 1.363 . S
C782 N780 1.356 . S
C783 C777 1.363 . S
C783 C778 1.379 . S
C783 N781 1.356 . S
N784 C776 1.356 . S
N784 H790 0.984 . S
N784 H791 0.984 . S
N785 C778 1.356 . S
N785 H788 0.984 . S
N785 H789 0.985 . S
H786 N781 0.984 . S
H787 N781 0.985 . S
H788 N785 0.984 . S
H789 N785 0.985 . S
H790 N784 0.984 . S
H791 N784 0.984 . S
H792 N780 0.984 . S
H793 N780 0.985 . S
C794 C795 1.363 . S
C794 C800 1.379 . S
C794 N802 1.356 . S
C795 C794 1.363 . S
C795 C801 1.363 . S
C796 C797 1.363 . S
C796 C801 1.379 . S
C796 N803 1.356 . S
C797 C796 1.363 . S
C797 C800 1.363 . S
N798 C800 1.356 . S
N798 H810 0.984 . S
N798 H811 0.985 . S
N799 C801 1.356 . S
N799 H804 0.984 . S
N799 H805 0.985 . S
C800 C794 1.379 . S
C800 C797 1.363 . S
C800 N798 1.356 . S
C801 C795 1.363 . S
C801 C796 1.379 . S
C801 N799 1.356 . S
N802 C794 1.356 . S
N802 H808 0.984 . S
N802 H809 0.984 . S
N803 C796 1.356 . S
N803 H806 0.984 . S
N803 H807 0.985 . S
H804 N799 0.984 . S
H805 N799 0.985 . S
H806 N803 0.984 . S
H807 N803 0.985 . S
H808 N802 0.984 . S
H809 N802 0.984 . S
H810 N798 0.984 . S
H811 N798 0.985 . S
C812 C813 1.363 . S
C812 C818 1.379 . S
C812 N820 1.356 . S
C813 C812 1.363 . S
C813 C819 1.363 1_455 S
C814 C815 1.363 . S
C814 C819 1.379 . S
C814 N821 1.356 . S
C815 C814 1.363 . S
C815 C818 1.363 1_655 S
N816 C818 1.356 . S
N816 H828 0.984 . S
N816 H829 0.985 1_455 S
N817 C819 1.356 . S
N817 H822 0.984 . S
N817 H823 0.985 . S
C818 C812 1.379 . S
C818 C815 1.363 1_455 S
C818 N816 1.356 . S
C819 C813 1.363 1_655 S
C819 C814 1.379 . S
C819 N817 1.356 . S
N820 C812 1.356 . S
N820 H826 0.984 . S
N820 H827 0.984 . S
N821 C814 1.356 . S
N821 H824 0.984 . S
N821 H825 0.985 . S
H822 N817 0.984 . S
H823 N817 0.985 . S
H824 N821 0.984 . S
H825 N821 0.985 . S
H826 N820 0.984 . S
H827 N820 0.984 . S
H828 N816 0.984 . S
H829 N816 0.985 1_655 S
C830 C831 1.363 1_556 S
C830 C836 1.379 . S
C830 N838 1.354 1_556 S
C831 C830 1.363 1_554 S
C831 C837 1.363 1_554 S
C832 C833 1.363 . S
C832 C837 1.379 . S
C832 N839 1.356 . S
C833 C832 1.363 . S
C833 C836 1.363 . S
N834 C836 1.356 . S
N834 H846 0.984 . S
N834 H847 0.985 . S
N835 C837 1.356 1_554 S
N835 H840 0.984 . S
N835 H841 0.985 . S
C836 C830 1.379 . S
C836 C833 1.363 . S
C836 N834 1.356 . S
C837 C831 1.363 1_556 S
C837 C832 1.379 . S
C837 N835 1.356 1_556 S
N838 C830 1.354 1_554 S
N838 H844 0.983 1_554 S
N838 H845 0.989 . S
N839 C832 1.356 . S
N839 H842 0.984 . S
N839 H843 0.985 . S
H840 N835 0.984 . S
H841 N835 0.985 . S
H842 N839 0.984 . S
H843 N839 0.985 . S
H844 N838 0.983 1_556 S
H845 N838 0.989 . S
H846 N834 0.984 . S
H847 N834 0.985 . S
C848 C849 1.363 . S
C848 C854 1.379 . S
C848 N856 1.356 . S
C849 C848 1.363 . S
C849 C855 1.363 . S
C850 C851 1.363 . S
C850 C855 1.379 . S
C850 N857 1.356 . S
C851 C850 1.363 . S
C851 C854 1.363 . S
N852 C854 1.356 . S
N852 H864 0.984 . S
N852 H865 0.985 . S
N853 C855 1.356 . S
N853 H858 0.984 . S
N853 H859 0.985 . S
C854 C848 1.379 . S
C854 C851 1.363 . S
C854 N852 1.356 . S
C855 C849 1.363 . S
C855 C850 1.379 . S
C855 N853 1.356 . S
N856 C848 1.356 . S
N856 H862 0.984 . S
N856 H863 0.984 . S
N857 C850 1.356 . S
N857 H860 0.984 . S
N857 H861 0.985 . S
H858 N853 0.984 . S
H859 N853 0.985 . S
H860 N857 0.984 . S
H861 N857 0.985 . S
H862 N856 0.984 . S
H863 N856 0.984 . S
H864 N852 0.984 . S
H865 N852 0.985 . S
C866 C867 1.363 . S
C866 C872 1.379 . S
C866 N874 1.356 . S
C867 C866 1.363 . S
C867 C873 1.363 . S
C868 C869 1.363 . S
C868 C873 1.379 . S
C868 N875 1.356 . S
C869 C868 1.363 . S
C869 C872 1.363 . S
N870 C872 1.356 . S
N870 H882 0.984 . S
N870 H883 0.985 . S
N871 C873 1.356 . S
N871 H876 0.984 . S
N871 H877 0.985 . S
C872 C866 1.379 . S
C872 C869 1.363 . S
C872 N870 1.356 . S
C873 C867 1.363 . S
C873 C868 1.379 . S
C873 N871 1.356 . S
N874 C866 1.356 . S
N874 H880 0.984 . S
N874 H881 0.984 . S
N875 C868 1.356 . S
N875 H878 0.984 . S
N875 H879 0.985 . S
H876 N871 0.984 . S
H877 N871 0.985 . S
H878 N875 0.984 . S
H879 N875 0.985 . S
H880 N874 0.984 . S
H881 N874 0.984 . S
H882 N870 0.984 . S
H883 N870 0.985 . S
C884 C885 1.363 1_655 S
C884 C890 1.379 . S
C884 N892 1.356 . S
C885 C884 1.363 1_455 S
C885 C891 1.363 . S
C886 C887 1.363 1_455 S
C886 C891 1.379 . S
C886 N893 1.356 . S
C887 C886 1.363 1_655 S
C887 C890 1.363 . S
N888 C890 1.356 . S
N888 H900 0.984 . S
N888 H901 0.985 . S
N889 C891 1.356 . S
N889 H894 0.984 . S
N889 H895 0.985 . S
C890 C884 1.379 . S
C890 C887 1.363 . S
C890 N888 1.356 . S
C891 C885 1.363 . S
C891 C886 1.379 . S
C891 N889 1.356 . S
N892 C884 1.356 . S
N892 H898 0.984 . S
N892 H899 0.984 . S
N893 C886 1.356 . S
N893 H896 0.984 . S
N893 H897 0.985 . S
H894 N889 0.984 . S
H895 N889 0.985 . S
H896 N893 0.984 . S
H897 N893 0.985 . S
H898 N892 0.984 . S
H899 N892 0.984 . S
H900 N888 0.984 . S
H901 N888 0.985 . S
C902 C903 1.363 . S
C902 C908 1.379 . S
C902 N910 1.356 . S
C903 C902 1.363 . S
C903 C909 1.363 . S
C904 C905 1.363 1_556 S
C904 C909 1.379 . S
C904 N911 1.356 . S
C905 C904 1.363 1_554 S
C905 C908 1.363 1_554 S
N906 C908 1.356 1_554 S
N906 H918 0.984 . S
N906 H919 0.985 . S
N907 C909 1.356 . S
N907 H912 0.984 . S
N907 H913 0.985 . S
C908 C902 1.379 . S
C908 C905 1.363 1_556 S
C908 N906 1.356 1_556 S
C909 C903 1.363 . S
C909 C904 1.379 . S
C909 N907 1.356 . S
N910 C902 1.356 . S
N910 H916 0.984 . S
N910 H917 0.984 . S
N911 C904 1.356 . S
N911 H914 0.984 1_556 S
N911 H915 0.985 . S
H912 N907 0.984 . S
H913 N907 0.985 . S
H914 N911 0.984 1_554 S
H915 N911 0.985 . S
H916 N910 0.984 . S
H917 N910 0.984 . S
H918 N906 0.984 . S
H919 N906 0.985 . S
C920 C921 1.363 . S
C920 C926 1.379 . S
C920 N928 1.356 . S
C921 C920 1.363 . S
C921 C927 1.363 . S
C922 C923 1.363 . S
C922 C927 1.379 . S
C922 N929 1.356 . S
C923 C922 1.363 . S
C923 C926 1.363 . S
N924 C926 1.356 . S
N924 H936 0.984 . S
N924 H937 0.985 . S
N925 C927 1.356 . S
N925 H930 0.984 . S
N925 H931 0.985 . S
C926 C920 1.379 . S
C926 C923 1.363 . S
C926 N924 1.356 . S
C927 C921 1.363 . S
C927 C922 1.379 . S
C927 N925 1.356 . S
N928 C920 1.356 . S
N928 H934 0.984 . S
N928 H935 0.984 . S
N929 C922 1.356 . S
N929 H932 0.984 . S
N929 H933 0.985 . S
H930 N925 0.984 . S
H931 N925 0.985 . S
H932 N929 0.984 . S
H933 N929 0.985 . S
H934 N928 0.984 . S
H935 N928 0.984 . S
H936 N924 0.984 . S
H937 N924 0.985 . S
C938 C939 1.363 . S
C938 C944 1.379 . S
C938 N946 1.356 . S
C939 C938 1.363 . S
C939 C945 1.363 . S
C940 C941 1.363 . S
C940 C945 1.379 . S
C940 N947 1.356 . S
C941 C940 1.363 . S
C941 C944 1.363 . S
N942 C944 1.356 . S
N942 H954 0.984 . S
N942 H955 0.985 . S
N943 C945 1.356 . S
N943 H948 0.984 . S
N943 H949 0.985 . S
C944 C938 1.379 . S
C944 C941 1.363 . S
C944 N942 1.356 . S
C945 C939 1.363 . S
C945 C940 1.379 . S
C945 N943 1.356 . S
N946 C938 1.356 . S
N946 H952 0.984 . S
N946 H953 0.984 . S
N947 C940 1.356 . S
N947 H950 0.984 . S
N947 H951 0.985 . S
H948 N943 0.984 . S
H949 N943 0.985 . S
H950 N947 0.984 . S
H951 N947 0.985 . S
H952 N946 0.984 . S
H953 N946 0.984 . S
H954 N942 0.984 . S
H955 N942 0.985 . S
C956 C957 1.363 . S
C956 C962 1.379 . S
C956 N964 1.356 . S
C957 C956 1.363 . S
C957 C963 1.363 1_655 S
C958 C959 1.363 . S
C958 C963 1.379 . S
C958 N965 1.356 . S
C959 C958 1.363 . S
C959 C962 1.363 1_455 S
N960 C962 1.356 . S
N960 H972 0.984 . S
N960 H973 0.985 1_655 S
N961 C963 1.356 . S
N961 H966 0.984 . S
N961 H967 0.985 . S
C962 C956 1.379 . S
C962 C959 1.363 1_655 S
C962 N960 1.356 . S
C963 C957 1.363 1_455 S
C963 C958 1.379 . S
C963 N961 1.356 . S
N964 C956 1.356 . S
N964 H970 0.984 . S
N964 H971 0.984 . S
N965 C958 1.356 . S
N965 H968 0.984 . S
N965 H969 0.985 . S
H966 N961 0.984 . S
H967 N961 0.985 . S
H968 N965 0.984 . S
H969 N965 0.985 . S
H970 N964 0.984 . S
H971 N964 0.984 . S
H972 N960 0.984 . S
H973 N960 0.985 1_455 S
C974 C975 1.363 . S
C974 C980 1.379 . S
C974 N982 1.356 . S
C975 C974 1.363 . S
C975 C981 1.363 . S
C976 C977 1.363 1_554 S
C976 C981 1.379 . S
C976 N983 1.356 . S
C977 C976 1.363 1_556 S
C977 C980 1.363 1_556 S
N978 C980 1.356 1_556 S
N978 H990 0.984 . S
N978 H991 0.985 . S
N979 C981 1.356 . S
N979 H984 0.984 . S
N979 H985 0.985 . S
C980 C974 1.379 . S
C980 C977 1.363 1_554 S
C980 N978 1.356 1_554 S
C981 C975 1.363 . S
C981 C976 1.379 . S
C981 N979 1.356 . S
N982 C974 1.356 . S
N982 H988 0.984 . S
N982 H989 0.984 . S
N983 C976 1.356 . S
N983 H986 0.984 1_554 S
N983 H987 0.985 . S
H984 N979 0.984 . S
H985 N979 0.985 . S
H986 N983 0.984 1_556 S
H987 N983 0.985 . S
H988 N982 0.984 . S
H989 N982 0.984 . S
H990 N978 0.984 . S
H991 N978 0.985 . S
C992 C993 1.363 1_455 S
C992 C998 1.379 1_545 S
C992 N1000 1.356 . S
C993 C992 1.363 1_655 S
C993 C999 1.363 1_554 S
C994 C995 1.363 1_655 S
C994 C999 1.379 1_565 S
C994 N1001 1.356 . S
C995 C994 1.363 1_455 S
C995 C998 1.363 1_556 S
N996 C998 1.356 . S
N996 H1008 0.984 . S
N996 H1009 0.985 . S
N997 C999 1.356 . S
N997 H1002 0.984 . S
N997 H1003 0.985 . S
C998 C992 1.379 1_565 S
C998 C995 1.363 1_554 S
C998 N996 1.356 . S
C999 C993 1.363 1_556 S
C999 C994 1.379 1_545 S
C999 N997 1.356 . S
N1000 C992 1.356 . S
N1000 H1006 0.984 . S
N1000 H1007 0.984 . S
N1001 C994 1.356 . S
N1001 H1004 0.984 . S
N1001 H1005 0.985 . S
H1002 N997 0.984 . S
H1003 N997 0.985 . S
H1004 N1001 0.984 . S
H1005 N1001 0.985 . S
H1006 N1000 0.984 . S
H1007 N1000 0.984 . S
H1008 N996 0.984 . S
H1009 N996 0.985 . S
C1010 C1011 1.363 . S
C1010 C1016 1.379 . S
C1010 N1018 1.356 . S
C1011 C1010 1.363 . S
C1011 C1017 1.363 . S
C1012 C1013 1.363 . S
C1012 C1017 1.379 . S
C1012 N1019 1.356 . S
C1013 C1012 1.363 . S
C1013 C1016 1.363 . S
N1014 C1016 1.356 . S
N1014 H1026 0.984 . S
N1014 H1027 0.985 . S
N1015 C1017 1.356 . S
N1015 H1020 0.984 . S
N1015 H1021 0.985 . S
C1016 C1010 1.379 . S
C1016 C1013 1.363 . S
C1016 N1014 1.356 . S
C1017 C1011 1.363 . S
C1017 C1012 1.379 . S
C1017 N1015 1.356 . S
N1018 C1010 1.356 . S
N1018 H1024 0.984 . S
N1018 H1025 0.984 . S
N1019 C1012 1.356 . S
N1019 H1022 0.984 . S
N1019 H1023 0.985 . S
H1020 N1015 0.984 . S
H1021 N1015 0.985 . S
H1022 N1019 0.984 . S
H1023 N1019 0.985 . S
H1024 N1018 0.984 . S
H1025 N1018 0.984 . S
H1026 N1014 0.984 . S
H1027 N1014 0.985 . S
C1028 C1029 1.363 . S
C1028 C1034 1.379 1_545 S
C1028 N1036 1.356 . S
C1029 C1028 1.363 . S
C1029 C1035 1.363 . S
C1030 C1031 1.363 . S
C1030 C1035 1.379 1_565 S
C1030 N1037 1.356 . S
C1031 C1030 1.363 . S
C1031 C1034 1.363 . S
N1032 C1034 1.356 . S
N1032 H1044 0.984 . S
N1032 H1045 0.985 . S
N1033 C1035 1.356 . S
N1033 H1038 0.984 . S
N1033 H1039 0.985 . S
C1034 C1028 1.379 1_565 S
C1034 C1031 1.363 . S
C1034 N1032 1.356 . S
C1035 C1029 1.363 . S
C1035 C1030 1.379 1_545 S
C1035 N1033 1.356 . S
N1036 C1028 1.356 . S
N1036 H1042 0.984 . S
N1036 H1043 0.984 . S
N1037 C1030 1.356 . S
N1037 H1040 0.984 . S
N1037 H1041 0.985 . S
H1038 N1033 0.984 . S
H1039 N1033 0.985 . S
H1040 N1037 0.984 . S
H1041 N1037 0.985 . S
H1042 N1036 0.984 . S
H1043 N1036 0.984 . S
H1044 N1032 0.984 . S
H1045 N1032 0.985 . S
C1046 C1047 1.363 . S
C1046 C1052 1.379 . S
C1046 N1054 1.356 . S
C1047 C1046 1.363 . S
C1047 C1053 1.363 . S
C1048 C1049 1.363 . S
C1048 C1053 1.379 . S
C1048 N1055 1.356 . S
C1049 C1048 1.363 . S
C1049 C1052 1.363 . S
N1050 C1052 1.356 . S
N1050 H1062 0.984 . S
N1050 H1063 0.985 . S
N1051 C1053 1.356 . S
N1051 H1056 0.984 . S
N1051 H1057 0.985 . S
C1052 C1046 1.379 . S
C1052 C1049 1.363 . S
C1052 N1050 1.356 . S
C1053 C1047 1.363 . S
C1053 C1048 1.379 . S
C1053 N1051 1.356 . S
N1054 C1046 1.356 . S
N1054 H1060 0.984 . S
N1054 H1061 0.984 . S
N1055 C1048 1.356 . S
N1055 H1058 0.984 . S
N1055 H1059 0.985 . S
H1056 N1051 0.984 . S
H1057 N1051 0.985 . S
H1058 N1055 0.984 . S
H1059 N1055 0.985 . S
H1060 N1054 0.984 . S
H1061 N1054 0.984 . S
H1062 N1050 0.984 . S
H1063 N1050 0.985 . S
C1064 C1065 1.363 . S
C1064 C1070 1.379 1_565 S
C1064 N1072 1.356 . S
C1065 C1064 1.363 . S
C1065 C1071 1.363 1_655 S
C1066 C1067 1.363 . S
C1066 C1071 1.379 1_545 S
C1066 N1073 1.356 . S
C1067 C1066 1.363 . S
C1067 C1070 1.363 1_455 S
N1068 C1070 1.356 . S
N1068 H1080 0.984 . S
N1068 H1081 0.985 1_655 S
N1069 C1071 1.356 . S
N1069 H1074 0.984 1_455 S
N1069 H1075 0.985 . S
C1070 C1064 1.379 1_545 S
C1070 C1067 1.363 1_655 S
C1070 N1068 1.356 . S
C1071 C1065 1.363 1_455 S
C1071 C1066 1.379 1_565 S
C1071 N1069 1.356 . S
N1072 C1064 1.356 . S
N1072 H1078 0.984 . S
N1072 H1079 0.984 . S
N1073 C1066 1.356 . S
N1073 H1076 0.984 . S
N1073 H1077 0.985 . S
H1074 N1069 0.984 1_655 S
H1075 N1069 0.985 . S
H1076 N1073 0.984 . S
H1077 N1073 0.985 . S
H1078 N1072 0.984 . S
H1079 N1072 0.984 . S
H1080 N1068 0.984 . S
H1081 N1068 0.985 1_455 S
C1082 C1083 1.363 . S
C1082 C1088 1.379 . S
C1082 N1090 1.356 . S
C1083 C1082 1.363 . S
C1083 C1089 1.363 . S
C1084 C1085 1.363 . S
C1084 C1089 1.379 . S
C1084 N1091 1.356 . S
C1085 C1084 1.363 . S
C1085 C1088 1.363 . S
N1086 C1088 1.356 . S
N1086 H1098 0.984 . S
N1086 H1099 0.985 . S
N1087 C1089 1.356 . S
N1087 H1092 0.984 . S
N1087 H1093 0.985 . S
C1088 C1082 1.379 . S
C1088 C1085 1.363 . S
C1088 N1086 1.356 . S
C1089 C1083 1.363 . S
C1089 C1084 1.379 . S
C1089 N1087 1.356 . S
N1090 C1082 1.356 . S
N1090 H1096 0.984 . S
N1090 H1097 0.984 . S
N1091 C1084 1.356 . S
N1091 H1094 0.984 . S
N1091 H1095 0.985 . S
H1092 N1087 0.984 . S
H1093 N1087 0.985 . S
H1094 N1091 0.984 . S
H1095 N1091 0.985 . S
H1096 N1090 0.984 . S
H1097 N1090 0.984 . S
H1098 N1086 0.984 . S
H1099 N1086 0.985 . S
C1100 C1101 1.363 . S
C1100 C1106 1.379 1_565 S
C1100 N1108 1.356 . S
C1101 C1100 1.363 . S
C1101 C1107 1.363 1_554 S
C1102 C1103 1.363 . S
C1102 C1107 1.379 1_545 S
C1102 N1109 1.356 . S
C1103 C1102 1.363 . S
C1103 C1106 1.363 1_556 S
N1104 C1106 1.356 . S
N1104 H1116 0.984 . S
N1104 H1117 0.985 . S
N1105 C1107 1.356 . S
N1105 H1110 0.984 . S
N1105 H1111 0.985 . S
C1106 C1100 1.379 1_545 S
C1106 C1103 1.363 1_554 S
C1106 N1104 1.356 . S
C1107 C1101 1.363 1_556 S
C1107 C1102 1.379 1_565 S
C1107 N1105 1.356 . S
N1108 C1100 1.356 . S
N1108 H1114 1.008 . S
N1108 H1115 0.984 . S
N1109 C1102 1.356 . S
N1109 H1112 0.984 . S
N1109 H1113 1.008 . S
H1110 N1105 0.984 . S
H1111 N1105 0.985 . S
H1112 N1109 0.984 . S
H1113 N1109 1.008 . S
H1114 N1108 1.008 . S
H1115 N1108 0.984 . S
H1116 N1104 0.984 . S
H1117 N1104 0.985 . S
C1118 C1119 1.363 . S
C1118 C1124 1.379 . S
C1118 N1126 1.356 . S
C1119 C1118 1.363 . S
C1119 C1125 1.363 . S
C1120 C1121 1.363 . S
C1120 C1125 1.379 . S
C1120 N1127 1.356 . S
C1121 C1120 1.363 . S
C1121 C1124 1.363 . S
N1122 C1124 1.356 . S
N1122 H1134 0.984 . S
N1122 H1135 0.985 . S
N1123 C1125 1.356 . S
N1123 H1128 0.984 . S
N1123 H1129 0.985 . S
C1124 C1118 1.379 . S
C1124 C1121 1.363 . S
C1124 N1122 1.356 . S
C1125 C1119 1.363 . S
C1125 C1120 1.379 . S
C1125 N1123 1.356 . S
N1126 C1118 1.356 . S
N1126 H1132 0.984 . S
N1126 H1133 0.984 . S
N1127 C1120 1.356 . S
N1127 H1130 0.984 . S
N1127 H1131 0.985 . S
H1128 N1123 0.984 . S
H1129 N1123 0.985 . S
H1130 N1127 0.984 . S
H1131 N1127 0.985 . S
H1132 N1126 0.984 . S
H1133 N1126 0.984 . S
H1134 N1122 0.984 . S
H1135 N1122 0.985 . S
C1136 C1137 1.363 . S
C1136 C1142 1.379 . S
C1136 N1144 1.356 . S
C1137 C1136 1.363 . S
C1137 C1143 1.363 . S
C1138 C1139 1.363 . S
C1138 C1143 1.379 . S
C1138 N1145 1.356 . S
C1139 C1138 1.363 . S
C1139 C1142 1.363 . S
N1140 C1142 1.356 . S
N1140 H1152 0.984 . S
N1140 H1153 0.985 . S
N1141 C1143 1.356 . S
N1141 H1146 0.984 . S
N1141 H1147 0.985 . S
C1142 C1136 1.379 . S
C1142 C1139 1.363 . S
C1142 N1140 1.356 . S
C1143 C1137 1.363 . S
C1143 C1138 1.379 . S
C1143 N1141 1.356 . S
N1144 C1136 1.356 . S
N1144 H1150 0.984 . S
N1144 H1151 0.984 . S
N1145 C1138 1.356 . S
N1145 H1148 0.984 . S
N1145 H1149 0.985 . S
H1146 N1141 0.984 . S
H1147 N1141 0.985 . S
H1148 N1145 0.984 . S
H1149 N1145 0.985 . S
H1150 N1144 0.984 . S
H1151 N1144 0.984 . S
H1152 N1140 0.984 . S
H1153 N1140 0.985 . S
C1154 C1155 1.363 . S
C1154 C1160 1.379 . S
C1154 N1162 1.356 . S
C1155 C1154 1.363 . S
C1155 C1161 1.363 . S
C1156 C1157 1.363 . S
C1156 C1161 1.379 . S
C1156 N1163 1.356 . S
C1157 C1156 1.363 . S
C1157 C1160 1.363 . S
N1158 C1160 1.356 . S
N1158 H1170 0.984 . S
N1158 H1171 0.985 . S
N1159 C1161 1.356 . S
N1159 H1164 0.984 . S
N1159 H1165 0.985 . S
C1160 C1154 1.379 . S
C1160 C1157 1.363 . S
C1160 N1158 1.356 . S
C1161 C1155 1.363 . S
C1161 C1156 1.379 . S
C1161 N1159 1.356 . S
N1162 C1154 1.356 . S
N1162 H1168 0.984 . S
N1162 H1169 0.984 . S
N1163 C1156 1.356 . S
N1163 H1166 0.984 . S
N1163 H1167 0.985 . S
H1164 N1159 0.984 . S
H1165 N1159 0.985 . S
H1166 N1163 0.984 . S
H1167 N1163 0.985 . S
H1168 N1162 0.984 . S
H1169 N1162 0.984 . S
H1170 N1158 0.984 . S
H1171 N1158 0.985 . S
C1172 C1173 1.363 . S
C1172 C1178 1.379 . S
C1172 N1180 1.356 . S
C1173 C1172 1.363 . S
C1173 C1179 1.363 . S
C1174 C1175 1.363 . S
C1174 C1179 1.379 . S
C1174 N1181 1.356 . S
C1175 C1174 1.363 . S
C1175 C1178 1.363 . S
N1176 C1178 1.356 . S
N1176 H1188 0.984 . S
N1176 H1189 0.985 . S
N1177 C1179 1.356 . S
N1177 H1182 0.984 . S
N1177 H1183 0.985 . S
C1178 C1172 1.379 . S
C1178 C1175 1.363 . S
C1178 N1176 1.356 . S
C1179 C1173 1.363 . S
C1179 C1174 1.379 . S
C1179 N1177 1.356 . S
N1180 C1172 1.356 . S
N1180 H1186 0.984 . S
N1180 H1187 0.984 . S
N1181 C1174 1.356 . S
N1181 H1184 0.984 . S
N1181 H1185 0.985 . S
H1182 N1177 0.984 . S
H1183 N1177 0.985 . S
H1184 N1181 0.984 . S
H1185 N1181 0.985 . S
H1186 N1180 0.984 . S
H1187 N1180 0.984 . S
H1188 N1176 0.984 . S
H1189 N1176 0.985 . S
C1190 C1191 1.363 . S
C1190 C1196 1.379 . S
C1190 N1198 1.356 . S
C1191 C1190 1.363 . S
C1191 C1197 1.363 . S
C1192 C1193 1.363 . S
C1192 C1197 1.379 . S
C1192 N1199 1.356 . S
C1193 C1192 1.363 . S
C1193 C1196 1.363 . S
N1194 C1196 1.356 . S
N1194 H1206 0.984 . S
N1194 H1207 0.985 . S
N1195 C1197 1.356 . S
N1195 H1200 0.984 . S
N1195 H1201 0.985 . S
C1196 C1190 1.379 . S
C1196 C1193 1.363 . S
C1196 N1194 1.356 . S
C1197 C1191 1.363 . S
C1197 C1192 1.379 . S
C1197 N1195 1.356 . S
N1198 C1190 1.356 . S
N1198 H1204 0.984 . S
N1198 H1205 0.984 . S
N1199 C1192 1.356 . S
N1199 H1202 0.984 . S
N1199 H1203 0.985 . S
H1200 N1195 0.984 . S
H1201 N1195 0.985 . S
H1202 N1199 0.984 . S
H1203 N1199 0.985 . S
H1204 N1198 0.984 . S
H1205 N1198 0.984 . S
H1206 N1194 0.984 . S
H1207 N1194 0.985 . S
C1208 C1209 1.363 . S
C1208 C1214 1.379 . S
C1208 N1216 1.356 . S
C1209 C1208 1.363 . S
C1209 C1215 1.363 . S
C1210 C1211 1.363 . S
C1210 C1215 1.379 . S
C1210 N1217 1.356 . S
C1211 C1210 1.363 . S
C1211 C1214 1.363 . S
N1212 C1214 1.356 . S
N1212 H1224 0.984 . S
N1212 H1225 0.985 . S
N1213 C1215 1.356 . S
N1213 H1218 0.984 . S
N1213 H1219 0.985 . S
C1214 C1208 1.379 . S
C1214 C1211 1.363 . S
C1214 N1212 1.356 . S
C1215 C1209 1.363 . S
C1215 C1210 1.379 . S
C1215 N1213 1.356 . S
N1216 C1208 1.356 . S
N1216 H1222 0.984 . S
N1216 H1223 0.984 . S
N1217 C1210 1.356 . S
N1217 H1220 0.984 . S
N1217 H1221 0.985 . S
H1218 N1213 0.984 . S
H1219 N1213 0.985 . S
H1220 N1217 0.984 . S
H1221 N1217 0.985 . S
H1222 N1216 0.984 . S
H1223 N1216 0.984 . S
H1224 N1212 0.984 . S
H1225 N1212 0.985 . S
C1226 C1227 1.363 1_655 S
C1226 C1232 1.379 . S
C1226 N1234 1.356 . S
C1227 C1226 1.363 1_455 S
C1227 C1233 1.363 1_554 S
C1228 C1229 1.363 1_455 S
C1228 C1233 1.379 . S
C1228 N1235 1.356 . S
C1229 C1228 1.363 1_655 S
C1229 C1232 1.363 1_556 S
N1230 C1232 1.356 . S
N1230 H1242 0.984 . S
N1230 H1243 0.985 . S
N1231 C1233 1.356 . S
N1231 H1236 0.984 . S
N1231 H1237 0.985 . S
C1232 C1226 1.379 . S
C1232 C1229 1.363 1_554 S
C1232 N1230 1.356 . S
C1233 C1227 1.363 1_556 S
C1233 C1228 1.379 . S
C1233 N1231 1.356 . S
N1234 C1226 1.356 . S
N1234 H1240 0.984 . S
N1234 H1241 0.984 . S
N1235 C1228 1.356 . S
N1235 H1238 0.984 . S
N1235 H1239 0.985 . S
H1236 N1231 0.984 . S
H1237 N1231 0.985 . S
H1238 N1235 0.984 . S
H1239 N1235 0.985 . S
H1240 N1234 0.984 . S
H1241 N1234 0.984 . S
H1242 N1230 0.984 . S
H1243 N1230 0.985 . S
C1244 C1245 1.363 . S
C1244 C1250 1.379 . S
C1244 N1252 1.356 . S
C1245 C1244 1.363 . S
C1245 C1251 1.363 1_556 S
C1246 C1247 1.363 . S
C1246 C1251 1.379 . S
C1246 N1253 1.356 . S
C1247 C1246 1.363 . S
C1247 C1250 1.363 1_554 S
N1248 C1250 1.356 . S
N1248 H1260 0.984 . S
N1248 H1261 0.985 . S
N1249 C1251 1.356 . S
N1249 H1254 0.984 . S
N1249 H1255 0.985 . S
C1250 C1244 1.379 . S
C1250 C1247 1.363 1_556 S
C1250 N1248 1.356 . S
C1251 C1245 1.363 1_554 S
C1251 C1246 1.379 . S
C1251 N1249 1.356 . S
N1252 C1244 1.356 . S
N1252 H1258 0.984 . S
N1252 H1259 0.984 . S
N1253 C1246 1.356 . S
N1253 H1256 0.984 . S
N1253 H1257 0.985 . S
H1254 N1249 0.984 . S
H1255 N1249 0.985 . S
H1256 N1253 0.984 . S
H1257 N1253 0.985 . S
H1258 N1252 0.984 . S
H1259 N1252 0.984 . S
H1260 N1248 0.984 . S
H1261 N1248 0.985 . S
C1262 C1263 1.363 . S
C1262 C1268 1.382 . S
C1262 N1270 1.356 . S
C1263 C1262 1.363 . S
C1263 C1269 1.359 1_655 S
C1264 C1265 1.363 . S
C1264 C1269 1.382 . S
C1264 N1271 1.356 . S
C1265 C1264 1.363 . S
C1265 C1268 1.359 1_455 S
N1266 C1268 1.355 1_455 S
N1266 H1278 0.984 1_455 S
N1266 H1279 0.985 . S
N1267 C1269 1.355 1_655 S
N1267 H1272 0.984 . S
N1267 H1273 0.985 1_655 S
C1268 C1262 1.382 . S
C1268 C1265 1.359 1_655 S
C1268 N1266 1.355 1_655 S
C1269 C1263 1.359 1_455 S
C1269 C1264 1.382 . S
C1269 N1267 1.355 1_455 S
N1270 C1262 1.356 . S
N1270 H1276 0.984 . S
N1270 H1277 0.984 . S
N1271 C1264 1.356 . S
N1271 H1274 0.984 . S
N1271 H1275 0.985 . S
H1272 N1267 0.984 . S
H1273 N1267 0.985 1_455 S
H1274 N1271 0.984 . S
H1275 N1271 0.985 . S
H1276 N1270 0.984 . S
H1277 N1270 0.984 . S
H1278 N1266 0.984 1_655 S
H1279 N1266 0.985 . S
C1280 C1281 1.363 . S
C1280 C1286 1.379 . S
C1280 N1288 1.356 . S
C1281 C1280 1.363 . S
C1281 C1287 1.363 . S
C1282 C1283 1.363 . S
C1282 C1287 1.379 . S
C1282 N1289 1.356 . S
C1283 C1282 1.363 . S
C1283 C1286 1.363 . S
N1284 C1286 1.356 . S
N1284 H1296 0.984 . S
N1284 H1297 0.985 . S
N1285 C1287 1.356 . S
N1285 H1290 0.984 . S
N1285 H1291 0.985 . S
C1286 C1280 1.379 . S
C1286 C1283 1.363 . S
C1286 N1284 1.356 . S
C1287 C1281 1.363 . S
C1287 C1282 1.379 . S
C1287 N1285 1.356 . S
N1288 C1280 1.356 . S
N1288 H1294 0.984 . S
N1288 H1295 0.984 . S
N1289 C1282 1.356 . S
N1289 H1292 0.984 . S
N1289 H1293 0.985 . S
H1290 N1285 0.984 . S
H1291 N1285 0.985 . S
H1292 N1289 0.984 . S
H1293 N1289 0.985 . S
H1294 N1288 0.984 . S
H1295 N1288 0.984 . S
H1296 N1284 0.984 . S
H1297 N1284 0.985 . S
C1298 C1299 1.363 . S
C1298 C1304 1.379 . S
C1298 N1306 1.356 . S
C1299 C1298 1.363 . S
C1299 C1305 1.363 . S
C1300 C1301 1.363 . S
C1300 C1305 1.379 . S
C1300 N1307 1.356 . S
C1301 C1300 1.363 . S
C1301 C1304 1.363 . S
N1302 C1304 1.356 . S
N1302 H1314 0.984 . S
N1302 H1315 0.985 . S
N1303 C1305 1.356 . S
N1303 H1308 0.984 . S
N1303 H1309 0.985 . S
C1304 C1298 1.379 . S
C1304 C1301 1.363 . S
C1304 N1302 1.356 . S
C1305 C1299 1.363 . S
C1305 C1300 1.379 . S
C1305 N1303 1.356 . S
N1306 C1298 1.356 . S
N1306 H1312 0.984 . S
N1306 H1313 0.984 . S
N1307 C1300 1.356 . S
N1307 H1310 0.984 . S
N1307 H1311 0.985 . S
H1308 N1303 0.984 . S
H1309 N1303 0.985 . S
H1310 N1307 0.984 . S
H1311 N1307 0.985 . S
H1312 N1306 0.984 . S
H1313 N1306 0.984 . S
H1314 N1302 0.984 . S
H1315 N1302 0.985 . S
C1316 C1317 1.363 . S
C1316 C1322 1.379 . S
C1316 N1324 1.356 . S
C1317 C1316 1.363 . S
C1317 C1323 1.363 . S
C1318 C1319 1.363 . S
C1318 C1323 1.379 . S
C1318 N1325 1.356 . S
C1319 C1318 1.363 . S
C1319 C1322 1.363 . S
N1320 C1322 1.356 . S
N1320 H1332 0.984 . S
N1320 H1333 0.985 . S
N1321 C1323 1.356 . S
N1321 H1326 0.984 . S
N1321 H1327 0.985 . S
C1322 C1316 1.379 . S
C1322 C1319 1.363 . S
C1322 N1320 1.356 . S
C1323 C1317 1.363 . S
C1323 C1318 1.379 . S
C1323 N1321 1.356 . S
N1324 C1316 1.356 . S
N1324 H1330 0.984 . S
N1324 H1331 0.984 . S
N1325 C1318 1.356 . S
N1325 H1328 0.984 . S
N1325 H1329 0.985 . S
H1326 N1321 0.984 . S
H1327 N1321 0.985 . S
H1328 N1325 0.984 . S
H1329 N1325 0.985 . S
H1330 N1324 0.984 . S
H1331 N1324 0.984 . S
H1332 N1320 0.984 . S
H1333 N1320 0.985 . S
C1334 C1335 1.363 . S
C1334 C1340 1.379 . S
C1334 N1342 1.356 . S
C1335 C1334 1.363 . S
C1335 C1341 1.363 . S
C1336 C1337 1.363 . S
C1336 C1341 1.379 . S
C1336 N1343 1.356 . S
C1337 C1336 1.363 . S
C1337 C1340 1.363 . S
N1338 C1340 1.356 . S
N1338 H1350 0.984 . S
N1338 H1351 0.985 . S
N1339 C1341 1.356 . S
N1339 H1344 0.984 . S
N1339 H1345 0.985 1_556 S
C1340 C1334 1.379 . S
C1340 C1337 1.363 . S
C1340 N1338 1.356 . S
C1341 C1335 1.363 . S
C1341 C1336 1.379 . S
C1341 N1339 1.356 . S
N1342 C1334 1.356 . S
N1342 H1348 0.984 . S
N1342 H1349 0.984 . S
N1343 C1336 1.356 . S
N1343 H1346 0.984 . S
N1343 H1347 0.985 . S
H1344 N1339 0.984 . S
H1345 N1339 0.985 1_554 S
H1346 N1343 0.984 . S
H1347 N1343 0.985 . S
H1348 N1342 0.984 . S
H1349 N1342 0.984 . S
H1350 N1338 0.984 . S
H1351 N1338 0.985 . S
C1352 C1353 1.363 . S
C1352 C1358 1.379 . S
C1352 N1360 1.356 . S
C1353 C1352 1.363 . S
C1353 C1359 1.363 . S
C1354 C1355 1.363 . S
C1354 C1359 1.379 . S
C1354 N1361 1.356 . S
C1355 C1354 1.363 . S
C1355 C1358 1.363 . S
N1356 C1358 1.356 . S
N1356 H1368 0.984 1_556 S
N1356 H1369 0.985 . S
N1357 C1359 1.356 . S
N1357 H1362 0.984 . S
N1357 H1363 0.985 . S
C1358 C1352 1.379 . S
C1358 C1355 1.363 . S
C1358 N1356 1.356 . S
C1359 C1353 1.363 . S
C1359 C1354 1.379 . S
C1359 N1357 1.356 . S
N1360 C1352 1.356 . S
N1360 H1366 0.984 . S
N1360 H1367 0.984 . S
N1361 C1354 1.356 . S
N1361 H1364 0.984 . S
N1361 H1365 0.985 . S
H1362 N1357 0.984 . S
H1363 N1357 0.985 . S
H1364 N1361 0.984 . S
H1365 N1361 0.985 . S
H1366 N1360 0.984 . S
H1367 N1360 0.984 . S
H1368 N1356 0.984 1_554 S
H1369 N1356 0.985 . S
C1370 C1371 1.363 . S
C1370 C1376 1.379 . S
C1370 N1378 1.356 . S
C1371 C1370 1.363 . S
C1371 C1377 1.363 . S
C1372 C1373 1.363 . S
C1372 C1377 1.379 . S
C1372 N1379 1.356 . S
C1373 C1372 1.363 . S
C1373 C1376 1.363 . S
N1374 C1376 1.356 . S
N1374 H1386 0.984 . S
N1374 H1387 0.985 . S
N1375 C1377 1.356 . S
N1375 H1380 0.984 . S
N1375 H1381 0.985 . S
C1376 C1370 1.379 . S
C1376 C1373 1.363 . S
C1376 N1374 1.356 . S
C1377 C1371 1.363 . S
C1377 C1372 1.379 . S
C1377 N1375 1.356 . S
N1378 C1370 1.356 . S
N1378 H1384 0.984 . S
N1378 H1385 0.984 . S
N1379 C1372 1.356 . S
N1379 H1382 0.984 . S
N1379 H1383 0.985 . S
H1380 N1375 0.984 . S
H1381 N1375 0.985 . S
H1382 N1379 0.984 . S
H1383 N1379 0.985 . S
H1384 N1378 0.984 . S
H1385 N1378 0.984 . S
H1386 N1374 0.984 . S
H1387 N1374 0.985 . S
C1388 C1389 1.363 . S
C1388 C1394 1.379 . S
C1388 N1396 1.356 . S
C1389 C1388 1.363 . S
C1389 C1395 1.363 . S
C1390 C1391 1.363 . S
C1390 C1395 1.379 . S
C1390 N1397 1.356 . S
C1391 C1390 1.363 . S
C1391 C1394 1.363 . S
N1392 C1394 1.356 . S
N1392 H1404 0.984 . S
N1392 H1405 0.985 . S
N1393 C1395 1.356 . S
N1393 H1398 0.984 . S
N1393 H1399 0.985 . S
C1394 C1388 1.379 . S
C1394 C1391 1.363 . S
C1394 N1392 1.356 . S
C1395 C1389 1.363 . S
C1395 C1390 1.379 . S
C1395 N1393 1.356 . S
N1396 C1388 1.356 . S
N1396 H1402 0.984 . S
N1396 H1403 0.984 . S
N1397 C1390 1.356 . S
N1397 H1400 0.984 . S
N1397 H1401 0.985 . S
H1398 N1393 0.984 . S
H1399 N1393 0.985 . S
H1400 N1397 0.984 . S
H1401 N1397 0.985 . S
H1402 N1396 0.984 . S
H1403 N1396 0.984 . S
H1404 N1392 0.984 . S
H1405 N1392 0.985 . S
C1406 C1407 1.363 . S
C1406 C1412 1.379 . S
C1406 N1414 1.356 . S
C1407 C1406 1.363 . S
C1407 C1413 1.363 . S
C1408 C1409 1.363 . S
C1408 C1413 1.379 . S
C1408 N1415 1.356 . S
C1409 C1408 1.363 . S
C1409 C1412 1.363 . S
N1410 C1412 1.356 . S
N1410 H1422 0.984 . S
N1410 H1423 0.985 . S
N1411 C1413 1.356 . S
N1411 H1416 0.984 . S
N1411 H1417 0.985 . S
C1412 C1406 1.379 . S
C1412 C1409 1.363 . S
C1412 N1410 1.356 . S
C1413 C1407 1.363 . S
C1413 C1408 1.379 . S
C1413 N1411 1.356 . S
N1414 C1406 1.356 . S
N1414 H1420 0.984 . S
N1414 H1421 0.984 . S
N1415 C1408 1.356 . S
N1415 H1418 0.984 . S
N1415 H1419 0.985 . S
H1416 N1411 0.984 . S
H1417 N1411 0.985 . S
H1418 N1415 0.984 . S
H1419 N1415 0.985 . S
H1420 N1414 0.984 . S
H1421 N1414 0.984 . S
H1422 N1410 0.984 . S
H1423 N1410 0.985 . S
C1424 C1425 1.363 . S
C1424 C1430 1.379 . S
C1424 N1432 1.356 . S
C1425 C1424 1.363 . S
C1425 C1431 1.363 . S
C1426 C1427 1.363 . S
C1426 C1431 1.379 . S
C1426 N1433 1.356 . S
C1427 C1426 1.363 . S
C1427 C1430 1.363 . S
N1428 C1430 1.356 . S
N1428 H1440 0.984 . S
N1428 H1441 0.985 . S
N1429 C1431 1.356 . S
N1429 H1434 0.984 . S
N1429 H1435 0.985 . S
C1430 C1424 1.379 . S
C1430 C1427 1.363 . S
C1430 N1428 1.356 . S
C1431 C1425 1.363 . S
C1431 C1426 1.379 . S
C1431 N1429 1.356 . S
N1432 C1424 1.356 . S
N1432 H1438 0.984 . S
N1432 H1439 0.984 . S
N1433 C1426 1.356 . S
N1433 H1436 0.984 . S
N1433 H1437 0.985 . S
H1434 N1429 0.984 . S
H1435 N1429 0.985 . S
H1436 N1433 0.984 . S
H1437 N1433 0.985 . S
H1438 N1432 0.984 . S
H1439 N1432 0.984 . S
H1440 N1428 0.984 . S
H1441 N1428 0.985 . S
C1442 C1443 1.363 . S
C1442 C1448 1.379 . S
C1442 N1450 1.356 . S
C1443 C1442 1.363 . S
C1443 C1449 1.363 . S
C1444 C1445 1.363 . S
C1444 C1449 1.379 . S
C1444 N1451 1.356 . S
C1445 C1444 1.363 . S
C1445 C1448 1.363 . S
N1446 C1448 1.356 . S
N1446 H1458 0.984 . S
N1446 H1459 0.985 . S
N1447 C1449 1.356 . S
N1447 H1452 0.984 . S
N1447 H1453 0.985 . S
C1448 C1442 1.379 . S
C1448 C1445 1.363 . S
C1448 N1446 1.356 . S
C1449 C1443 1.363 . S
C1449 C1444 1.379 . S
C1449 N1447 1.356 . S
N1450 C1442 1.356 . S
N1450 H1456 0.984 . S
N1450 H1457 0.984 . S
N1451 C1444 1.356 . S
N1451 H1454 0.984 . S
N1451 H1455 0.985 . S
H1452 N1447 0.984 . S
H1453 N1447 0.985 . S
H1454 N1451 0.984 . S
H1455 N1451 0.985 . S
H1456 N1450 0.984 . S
H1457 N1450 0.984 . S
H1458 N1446 0.984 . S
H1459 N1446 0.985 . S
C1460 C1461 1.363 . S
C1460 C1466 1.379 . S
C1460 N1468 1.356 . S
C1461 C1460 1.363 . S
C1461 C1467 1.363 . S
C1462 C1463 1.363 . S
C1462 C1467 1.379 . S
C1462 N1469 1.356 . S
C1463 C1462 1.363 . S
C1463 C1466 1.363 . S
N1464 C1466 1.356 . S
N1464 H1476 0.984 . S
N1464 H1477 0.985 . S
N1465 C1467 1.356 . S
N1465 H1470 0.984 . S
N1465 H1471 0.985 . S
C1466 C1460 1.379 . S
C1466 C1463 1.363 . S
C1466 N1464 1.356 . S
C1467 C1461 1.363 . S
C1467 C1462 1.379 . S
C1467 N1465 1.356 . S
N1468 C1460 1.356 . S
N1468 H1474 0.984 . S
N1468 H1475 0.984 . S
N1469 C1462 1.356 . S
N1469 H1472 0.984 . S
N1469 H1473 0.985 . S
H1470 N1465 0.984 . S
H1471 N1465 0.985 . S
H1472 N1469 0.984 . S
H1473 N1469 0.985 . S
H1474 N1468 0.984 . S
H1475 N1468 0.984 . S
H1476 N1464 0.984 . S
H1477 N1464 0.985 . S
C1478 C1479 1.363 . S
C1478 C1484 1.379 . S
C1478 N1486 1.356 . S
C1479 C1478 1.363 . S
C1479 C1485 1.363 . S
C1480 C1481 1.363 . S
C1480 C1485 1.379 . S
C1480 N1487 1.356 . S
C1481 C1480 1.363 . S
C1481 C1484 1.363 . S
N1482 C1484 1.356 . S
N1482 H1494 0.984 . S
N1482 H1495 0.985 . S
N1483 C1485 1.356 . S
N1483 H1488 0.984 . S
N1483 H1489 0.985 . S
C1484 C1478 1.379 . S
C1484 C1481 1.363 . S
C1484 N1482 1.356 . S
C1485 C1479 1.363 . S
C1485 C1480 1.379 . S
C1485 N1483 1.356 . S
N1486 C1478 1.356 . S
N1486 H1492 0.984 . S
N1486 H1493 0.984 . S
N1487 C1480 1.356 . S
N1487 H1490 0.984 . S
N1487 H1491 0.985 . S
H1488 N1483 0.984 . S
H1489 N1483 0.985 . S
H1490 N1487 0.984 . S
H1491 N1487 0.985 . S
H1492 N1486 0.984 . S
H1493 N1486 0.984 . S
H1494 N1482 0.984 . S
H1495 N1482 0.985 . S
C1496 C1497 1.363 . S
C1496 C1502 1.379 . S
C1496 N1504 1.356 . S
C1497 C1496 1.363 . S
C1497 C1503 1.363 . S
C1498 C1499 1.363 . S
C1498 C1503 1.379 . S
C1498 N1505 1.356 . S
C1499 C1498 1.363 . S
C1499 C1502 1.363 . S
N1500 C1502 1.356 . S
N1500 H1512 0.984 . S
N1500 H1513 0.985 . S
N1501 C1503 1.356 . S
N1501 H1506 0.984 . S
N1501 H1507 0.985 . S
C1502 C1496 1.379 . S
C1502 C1499 1.363 . S
C1502 N1500 1.356 . S
C1503 C1497 1.363 . S
C1503 C1498 1.379 . S
C1503 N1501 1.356 . S
N1504 C1496 1.356 . S
N1504 H1510 0.984 . S
N1504 H1511 0.984 . S
N1505 C1498 1.356 . S
N1505 H1508 0.984 . S
N1505 H1509 0.985 . S
H1506 N1501 0.984 . S
H1507 N1501 0.985 . S
H1508 N1505 0.984 . S
H1509 N1505 0.985 . S
H1510 N1504 0.984 . S
H1511 N1504 0.984 . S
H1512 N1500 0.984 . S
H1513 N1500 0.985 . S
C1514 C1515 1.363 . S
C1514 C1520 1.379 . S
C1514 N1522 1.356 . S
C1515 C1514 1.363 . S
C1515 C1521 1.363 . S
C1516 C1517 1.363 . S
C1516 C1521 1.379 . S
C1516 N1523 1.356 . S
C1517 C1516 1.363 . S
C1517 C1520 1.363 . S
N1518 C1520 1.356 . S
N1518 H1530 0.984 . S
N1518 H1531 0.985 . S
N1519 C1521 1.356 . S
N1519 H1524 0.984 . S
N1519 H1525 0.985 . S
C1520 C1514 1.379 . S
C1520 C1517 1.363 . S
C1520 N1518 1.356 . S
C1521 C1515 1.363 . S
C1521 C1516 1.379 . S
C1521 N1519 1.356 . S
N1522 C1514 1.356 . S
N1522 H1528 0.984 . S
N1522 H1529 0.984 . S
N1523 C1516 1.356 . S
N1523 H1526 0.984 . S
N1523 H1527 0.985 . S
H1524 N1519 0.984 . S
H1525 N1519 0.985 . S
H1526 N1523 0.984 . S
H1527 N1523 0.985 . S
H1528 N1522 0.984 . S
H1529 N1522 0.984 . S
H1530 N1518 0.984 . S
H1531 N1518 0.985 . S
C1532 C1533 1.363 . S
C1532 C1538 1.379 . S
C1532 N1540 1.356 . S
C1533 C1532 1.363 . S
C1533 C1539 1.363 . S
C1534 C1535 1.363 . S
C1534 C1539 1.379 . S
C1534 N1541 1.356 . S
C1535 C1534 1.363 . S
C1535 C1538 1.363 . S
N1536 C1538 1.356 . S
N1536 H1548 0.984 . S
N1536 H1549 0.985 . S
N1537 C1539 1.356 . S
N1537 H1542 0.984 . S
N1537 H1543 0.985 . S
C1538 C1532 1.379 . S
C1538 C1535 1.363 . S
C1538 N1536 1.356 . S
C1539 C1533 1.363 . S
C1539 C1534 1.379 . S
C1539 N1537 1.356 . S
N1540 C1532 1.356 . S
N1540 H1546 0.984 . S
N1540 H1547 0.984 . S
N1541 C1534 1.356 . S
N1541 H1544 0.984 . S
N1541 H1545 0.985 . S
H1542 N1537 0.984 . S
H1543 N1537 0.985 . S
H1544 N1541 0.984 . S
H1545 N1541 0.985 . S
H1546 N1540 0.984 . S
H1547 N1540 0.984 . S
H1548 N1536 0.984 . S
H1549 N1536 0.985 . S
C1550 C1551 1.363 . S
C1550 C1556 1.379 . S
C1550 N1558 1.356 . S
C1551 C1550 1.363 . S
C1551 C1557 1.363 . S
C1552 C1553 1.363 . S
C1552 C1557 1.379 . S
C1552 N1559 1.356 . S
C1553 C1552 1.363 . S
C1553 C1556 1.363 . S
N1554 C1556 1.356 . S
N1554 H1566 0.984 . S
N1554 H1567 0.985 . S
N1555 C1557 1.356 . S
N1555 H1560 0.984 . S
N1555 H1561 0.985 . S
C1556 C1550 1.379 . S
C1556 C1553 1.363 . S
C1556 N1554 1.356 . S
C1557 C1551 1.363 . S
C1557 C1552 1.379 . S
C1557 N1555 1.356 . S
N1558 C1550 1.356 . S
N1558 H1564 0.984 . S
N1558 H1565 0.984 . S
N1559 C1552 1.356 . S
N1559 H1562 0.984 . S
N1559 H1563 0.985 . S
H1560 N1555 0.984 . S
H1561 N1555 0.985 . S
H1562 N1559 0.984 . S
H1563 N1559 0.985 . S
H1564 N1558 0.984 . S
H1565 N1558 0.984 . S
H1566 N1554 0.984 . S
H1567 N1554 0.985 . S
C417 C157 1.402 . S
C419 C5 1.396 . S
C435 C387 1.452 . S
C437 C16 1.435 . S
C453 C183 1.402 . S
C455 C31 1.396 . S
C471 C413 1.452 . S
C473 C42 1.435 . S
C489 C105 1.402 . S
C491 C57 1.396 . S
C507 C68 1.435 . S
C509 C335 1.452 . S
C525 C83 1.396 . S
C527 C131 1.402 . S
C543 C361 1.452 . S
C545 C94 1.435 . S
C561 C62 1.402 . S
C563 C107 1.396 . S
C579 C274 1.452 . S
C581 C122 1.435 . S
C597 C88 1.402 . S
C599 C133 1.396 . S
C615 C300 1.452 . S
C617 C148 1.435 . S
C633 C159 1.396 . S
C635 C10 1.402 . S
C651 C174 1.435 . S
C653 C222 1.452 . S
C669 C36 1.402 . S
C671 C185 1.396 . S
C687 C200 1.435 . S
C689 C248 1.452 . S
C705 C365 1.402 . S
C707 C213 1.396 . S
C723 C179 1.452 . S
C725 C224 1.435 . S
C741 C391 1.402 . S
C743 C239 1.396 . S
C759 C250 1.435 . S
C761 C205 1.452 . S
C777 C265 1.396 . S
C779 C313 1.402 . S
C795 C276 1.435 . S
C797 C127 1.452 . S
C813 C339 1.402 . S
C815 C291 1.396 . S
C831 C153 1.452 . S
C833 C302 1.435 . S
C849 C270 1.402 . S
C851 C315 1.396 . S
C867 C330 1.435 . S
C869 C66 1.452 . S
C885 C341 1.396 . S
C887 C296 1.402 . S
C903 C356 1.435 . S
C905 C92 1.452 . S
C921 C218 1.402 . S
C923 C367 1.396 . S
C939 C14 1.452 . S
C941 C382 1.435 . S
C957 C244 1.402 . S
C959 C393 1.396 . S
C975 C408 1.435 . S
C977 C40 1.452 . S
C993 C1 2.052 . S
C995 C114 2.052 . S
C1011 C23 1.928 . S
C1013 C326 1.928 . S
C1029 C140 2.052 . S
C1031 C27 2.052 . S
C1047 C49 1.928 . S
C1049 C352 1.929 . S
C1065 C53 2.052 . S
C1067 C166 2.052 . S
C1083 C378 1.929 . S
C1085 C75 1.929 . S
C1101 C192 2.052 . S
C1103 C79 2.052 . S
C1119 C101 1.929 . S
C1121 C404 1.929 . S
C1137 C118 1.928 . S
C1139 C231 1.928 . S
C1155 C144 1.928 . S
C1157 C257 1.929 . S
C1173 C170 1.929 . S
C1175 C283 1.929 . S
C1191 C309 1.929 . S
C1193 C196 1.929 . S
C1209 C209 2.052 . S
C1211 C322 2.052 . S
C1227 C235 2.052 . S
C1229 C348 2.052 . S
C1245 C261 2.052 . S
C1247 C374 2.052 . S
C1263 C400 2.052 . S
C1265 C287 2.052 . S
C1281 C3 1.871 . S
C1283 C96 1.806 . S
C1299 C18 1.806 . S
C1301 C55 1.871 . S
C1317 C70 1.806 . S
C1319 C29 1.871 . S
C1335 C81 1.871 . S
C1337 C44 1.806 . S
C1353 C198 1.806 . S
C1355 C109 1.871 . S
C1371 C161 1.871 . S
C1373 C120 1.806 . S
C1389 C172 1.806 . S
C1391 C135 1.871 . S
C1407 C187 1.871 . S
C1409 C146 1.806 . S
C1425 C211 1.871 . S
C1427 C304 1.806 . S
C1443 C263 1.871 . S
C1445 C226 1.806 . S
C1461 C278 1.806 . S
C1463 C237 1.871 . S
C1479 C289 1.871 . S
C1481 C252 1.806 . S
C1497 C406 1.806 . S
C1499 C317 1.871 . S
C1515 C328 1.806 . S
C1517 C369 1.871 . S
C1533 C343 1.871 . S
C1535 C380 1.806 . S
C1551 C395 1.871 . S
C1553 C354 1.806 . S
