# Generated by pormake.
# Topology ske, (6)-cn, num edge types: 1
# Building blocks:
#     Node 0, Type 0, BuildingBlock: LEVNOQ01_clean_sbu_1, # of connection points: 6
#     Node 1, Type 0, BuildingBlock: LEVNOQ01_clean_sbu_1, # of connection points: 6
#     Node 2, Type 0, BuildingBlock: LEVNOQ01_clean_sbu_1, # of connection points: 6
#     Node 3, Type 0, BuildingBlock: LEVNOQ01_clean_sbu_1, # of connection points: 6
#     Node 4, Type 0, BuildingBlock: LEVNOQ01_clean_sbu_1, # of connection points: 6
#     Node 5, Type 0, BuildingBlock: LEVNOQ01_clean_sbu_1, # of connection points: 6
#     Node 6, Type 0, BuildingBlock: LEVNOQ01_clean_sbu_1, # of connection points: 6
#     Node 7, Type 0, BuildingBlock: LEVNOQ01_clean_sbu_1, # of connection points: 6
#     Edge 8, Type (0, 0), BuildingBlock: XUDNAN_clean_linker_2, # of connection points: 2
#     Edge 9, Type (0, 0), BuildingBlock: XUDNAN_clean_linker_2, # of connection points: 2
#     Edge 10, Type (0, 0), BuildingBlock: XUDNAN_clean_linker_2, # of connection points: 2
#     Edge 11, Type (0, 0), BuildingBlock: XUDNAN_clean_linker_2, # of connection points: 2
#     Edge 12, Type (0, 0), BuildingBlock: XUDNAN_clean_linker_2, # of connection points: 2
#     Edge 13, Type (0, 0), BuildingBlock: XUDNAN_clean_linker_2, # of connection points: 2
#     Edge 14, Type (0, 0), BuildingBlock: XUDNAN_clean_linker_2, # of connection points: 2
#     Edge 15, Type (0, 0), BuildingBlock: XUDNAN_clean_linker_2, # of connection points: 2
#     Edge 16, Type (0, 0), BuildingBlock: XUDNAN_clean_linker_2, # of connection points: 2
#     Edge 17, Type (0, 0), BuildingBlock: XUDNAN_clean_linker_2, # of connection points: 2
#     Edge 18, Type (0, 0), BuildingBlock: XUDNAN_clean_linker_2, # of connection points: 2
#     Edge 19, Type (0, 0), BuildingBlock: XUDNAN_clean_linker_2, # of connection points: 2
#     Edge 20, Type (0, 0), BuildingBlock: XUDNAN_clean_linker_2, # of connection points: 2
#     Edge 21, Type (0, 0), BuildingBlock: XUDNAN_clean_linker_2, # of connection points: 2
#     Edge 22, Type (0, 0), BuildingBlock: XUDNAN_clean_linker_2, # of connection points: 2
#     Edge 23, Type (0, 0), BuildingBlock: XUDNAN_clean_linker_2, # of connection points: 2
#     Edge 24, Type (0, 0), BuildingBlock: XUDNAN_clean_linker_2, # of connection points: 2
#     Edge 25, Type (0, 0), BuildingBlock: XUDNAN_clean_linker_2, # of connection points: 2
#     Edge 26, Type (0, 0), BuildingBlock: XUDNAN_clean_linker_2, # of connection points: 2
#     Edge 27, Type (0, 0), BuildingBlock: XUDNAN_clean_linker_2, # of connection points: 2
#     Edge 28, Type (0, 0), BuildingBlock: XUDNAN_clean_linker_2, # of connection points: 2
#     Edge 29, Type (0, 0), BuildingBlock: XUDNAN_clean_linker_2, # of connection points: 2
#     Edge 30, Type (0, 0), BuildingBlock: XUDNAN_clean_linker_2, # of connection points: 2
#     Edge 31, Type (0, 0), BuildingBlock: XUDNAN_clean_linker_2, # of connection points: 2
# Relax obj value: 0.101
# Max RMSD: 0.138
# Mean RMSD: 0.138
data_MOF--net-ske--node1-LEVNOQ01_clean_sbu_1--edge1-XUDNAN_clean_linker_2
_symmetry_space_group_name_H-M    P1
_symmetry_Int_Tables_number       1
_symmetry_cell_setting            triclinic
loop_
_symmetry_equiv_pos_as_xyz
'x, y, z'
_cell_length_a     61.254162
_cell_length_b     31.127915
_cell_length_c     15.872351
_cell_angle_alpha  89.892018
_cell_angle_beta   90.019233
_cell_angle_gamma 89.953371
loop_
_atom_site_label
_atom_site_type_symbol
_atom_site_fract_x
_atom_site_fract_y
_atom_site_fract_z
_atom_type_partial_charge
O0 O 0.18901 0.20907 0.53535 0.0
Mg1 Mg 0.15966 0.19473 0.59789 0.0
O2 O 0.17222 0.26754 0.56953 0.0
Mg3 Mg 0.13461 0.25165 0.5436 0.0
O4 O 0.13272 0.17405 0.53118 0.0
O5 O 0.15664 0.13146 0.59994 0.0
O6 O 0.09644 0.23882 0.52154 0.0
O7 O 0.13843 0.2576 0.39898 0.0
Mg8 Mg 0.10807 0.31818 0.51695 0.0
O9 O 0.13895 0.3263 0.55594 0.0
O10 O 0.08311 0.29262 0.59186 0.0
O11 O 0.11038 0.30253 0.38685 0.0
O12 O 0.11501 0.38037 0.54528 0.0
C13 C 0.14014 0.23624 0.74427 0.0
C14 C 0.19012 0.2479 0.55672 0.0
C15 C 0.13938 0.13591 0.55445 0.0
C16 C 0.08012 0.25687 0.55675 0.0
C17 C 0.12522 0.27952 0.35337 0.0
C18 C 0.13462 0.36703 0.55938 0.0
O19 O 0.15648 0.21321 0.72642 0.0
O20 O 0.12823 0.25107 0.68553 0.0
O21 O 0.85963 0.19308 0.41403 0.0
Mg22 Mg 0.87318 0.20619 0.53312 0.0
O23 O 0.8783 0.2514 0.42138 0.0
Mg24 Mg 0.87777 0.24237 0.57366 0.0
O25 O 0.88652 0.16364 0.60049 0.0
O26 O 0.85322 0.15095 0.56783 0.0
O27 O 0.88023 0.23729 0.72155 0.0
O28 O 0.83853 0.23105 0.5702 0.0
Mg29 Mg 0.85995 0.29802 0.6624 0.0
O30 O 0.87428 0.3174 0.55347 0.0
O31 O 0.88147 0.30453 0.76035 0.0
O32 O 0.83105 0.26404 0.68757 0.0
O33 O 0.85051 0.35674 0.62882 0.0
C34 C 0.92146 0.2262 0.52117 0.0
C35 C 0.86829 0.22416 0.37682 0.0
C36 C 0.87153 0.136 0.5911 0.0
C37 C 0.88443 0.26555 0.77729 0.0
C38 C 0.82521 0.2394 0.62919 0.0
C39 C 0.86505 0.35396 0.57046 0.0
O40 O 0.90777 0.20114 0.48687 0.0
O41 O 0.91409 0.25339 0.57292 0.0
O42 O 0.12213 0.68011 0.6151 0.0
Mg43 Mg 0.10975 0.65644 0.50061 0.0
O44 O 0.14157 0.73553 0.56583 0.0
Mg45 Mg 0.13758 0.735 0.4229 0.0
O46 O 0.13601 0.6614 0.42489 0.0
O47 O 0.12062 0.59869 0.4545 0.0
O48 O 0.1342 0.73318 0.28083 0.0
O49 O 0.17482 0.71839 0.40485 0.0
Mg50 Mg 0.16653 0.80193 0.36036 0.0
O51 O 0.13855 0.81092 0.42731 0.0
O52 O 0.15795 0.78258 0.23824 0.0
O53 O 0.19513 0.7758 0.4134 0.0
O54 O 0.16097 0.86413 0.38495 0.0
C55 C 0.08197 0.72491 0.43277 0.0
C56 C 0.13473 0.71202 0.62597 0.0
C57 C 0.13698 0.61983 0.42454 0.0
C58 C 0.14373 0.75414 0.22279 0.0
C59 C 0.19366 0.73551 0.40846 0.0
C60 C 0.14321 0.85169 0.42128 0.0
O61 O 0.08243 0.68539 0.45037 0.0
O62 O 0.09939 0.74743 0.42832 0.0
O63 O 0.8651 0.80435 0.57654 0.0
Mg64 Mg 0.88865 0.79489 0.48487 0.0
O65 O 0.87209 0.73722 0.55494 0.0
Mg66 Mg 0.87384 0.7434 0.4041 0.0
O67 O 0.87676 0.81981 0.37739 0.0
O68 O 0.9003 0.85345 0.46321 0.0
O69 O 0.87482 0.7408 0.26286 0.0
O70 O 0.83642 0.75902 0.39897 0.0
Mg71 Mg 0.8433 0.67135 0.34373 0.0
O72 O 0.8716 0.67025 0.4106 0.0
O73 O 0.85159 0.6906 0.22006 0.0
O74 O 0.81682 0.70023 0.40535 0.0
O75 O 0.85226 0.61142 0.37919 0.0
C76 C 0.92517 0.74232 0.45397 0.0
C77 C 0.8665 0.76698 0.60527 0.0
C78 C 0.88736 0.85405 0.39967 0.0
C79 C 0.86566 0.71947 0.20453 0.0
C80 C 0.81786 0.74075 0.4043 0.0
C81 C 0.8693 0.62897 0.4123 0.0
O82 O 0.91903 0.76566 0.51413 0.0
O83 O 0.91118 0.73148 0.399 0.0
O84 O 0.69354 0.71884 0.01808 0.0
Mg85 Mg 0.66814 0.68866 0.0866 0.0
O86 O 0.67399 0.76562 0.08406 0.0
Mg87 Mg 0.63716 0.74614 0.06395 0.0
O88 O 0.63866 0.67115 0.03901 0.0
O89 O 0.66687 0.62605 0.06319 0.0
O90 O 0.59987 0.73771 0.05273 0.0
O91 O 0.64098 0.74936 0.91811 0.0
Mg92 Mg 0.61926 0.83331 0.97274 0.0
O93 O 0.63201 0.81738 0.0906 0.0
O94 O 0.58922 0.8012 0.00136 0.0
O95 O 0.62489 0.80486 0.85827 0.0
O96 O 0.65372 0.84278 -0.00279 0.0
C97 C 0.64918 0.71619 0.25147 0.0
C98 C 0.69251 0.75431 0.05583 0.0
C99 C 0.64698 0.63266 0.03975 0.0
C100 C 0.58492 0.76378 0.02915 0.0
C101 C 0.63528 0.77011 0.85249 0.0
C102 C 0.64602 0.84608 0.07128 0.0
O103 O 0.66544 0.69793 0.21761 0.0
O104 O 0.63492 0.73571 0.20687 0.0
O105 O 0.38557 0.67435 0.8656 0.0
Mg106 Mg 0.40045 0.66373 0.98033 0.0
O107 O 0.37196 0.73833 0.89853 0.0
Mg108 Mg 0.37213 0.74059 0.04742 0.0
O109 O 0.37572 0.66718 0.06061 0.0
O110 O 0.39575 0.60789 0.04376 0.0
O111 O 0.37339 0.74626 0.18994 0.0
O112 O 0.3356 0.72104 0.06231 0.0
Mg113 Mg 0.3382 0.80963 0.1083 0.0
O114 O 0.36667 0.81337 0.04043 0.0
O115 O 0.34875 0.79405 0.23287 0.0
O116 O 0.31208 0.77371 0.0559 0.0
O117 O 0.34522 0.86995 0.06494 0.0
C118 C 0.42786 0.73747 0.02908 0.0
C119 C 0.37752 0.71018 0.84378 0.0
C120 C 0.3778 0.6258 0.06802 0.0
C121 C 0.36404 0.76751 0.24843 0.0
C122 C 0.31587 0.73396 0.06283 0.0
C123 C 0.36333 0.85441 0.03679 0.0
O124 O 0.42805 0.69913 0.00394 0.0
O125 O 0.41003 0.75686 0.04715 0.0
O126 O 0.65621 0.19504 0.06084 0.0
Mg127 Mg 0.62722 0.19116 -0.01078 0.0
O128 O 0.63825 0.25378 0.04578 0.0
Mg129 Mg 0.63207 0.23977 0.8972 0.0
O130 O 0.6316 0.16141 0.8785 0.0
O131 O 0.62016 0.1297 -0.00177 0.0
O132 O 0.62696 0.23811 0.75524 0.0
O133 O 0.67007 0.23018 0.87216 0.0
Mg134 Mg 0.65743 0.3043 0.84632 0.0
O135 O 0.62865 0.3152 0.90515 0.0
O136 O 0.65407 0.28161 0.72179 0.0
O137 O 0.68462 0.28797 0.9214 0.0
O138 O 0.65045 0.36676 0.85075 0.0
C139 C 0.58543 0.23373 0.97994 0.0
C140 C 0.64987 0.22976 0.09235 0.0
C141 C 0.62606 0.12727 0.92079 0.0
C142 C 0.63891 0.25626 0.70018 0.0
C143 C 0.68725 0.25121 0.89015 0.0
C144 C 0.63305 0.35538 0.89068 0.0
O145 O 0.59689 0.21624 0.03647 0.0
O146 O 0.59443 0.2431 0.91052 0.0
O147 O 0.36091 0.3018 0.07431 0.0
Mg148 Mg 0.38502 0.29094 0.98306 0.0
O149 O 0.37103 0.23605 0.06133 0.0
Mg150 Mg 0.37652 0.24446 0.91016 0.0
O151 O 0.37388 0.32297 0.88349 0.0
O152 O 0.39873 0.34993 0.96957 0.0
O153 O 0.38113 0.24124 0.76599 0.0
O154 O 0.33843 0.25709 0.89411 0.0
Mg155 Mg 0.35375 0.17793 0.85123 0.0
O156 O 0.37945 0.16942 0.93262 0.0
O157 O 0.36429 0.18215 0.72583 0.0
O158 O 0.32188 0.19596 0.87691 0.0
O159 O 0.35546 0.11844 0.89427 0.0
C160 C 0.42506 0.24878 0.98419 0.0
C161 C 0.36329 0.26557 0.10751 0.0
C162 C 0.38335 0.35612 0.91642 0.0
C163 C 0.37584 0.21462 0.70844 0.0
C164 C 0.3208 0.23605 0.88443 0.0
C165 C 0.37321 0.12952 0.93188 0.0
O166 O 0.41389 0.2674 0.03931 0.0
O167 O 0.41541 0.23903 0.9161 0.0
H168 H 0.20701 0.20402 0.68513 0.0
H169 H 0.21559 0.32173 0.54344 0.0
H170 H 0.24793 0.33979 0.6325 0.0
H171 H 0.22312 0.24767 0.89159 0.0
H172 H 0.23586 0.19772 0.92167 0.0
H173 H 0.21267 0.19756 0.85169 0.0
H174 H 0.23506 0.15509 0.74034 0.0
H175 H 0.25805 0.15458 0.81041 0.0
H176 H 0.26096 0.17612 0.70552 0.0
H177 H 0.28264 0.33787 0.72784 0.0
H178 H 0.315 0.3157 0.81117 0.0
H179 H 0.28036 0.20221 0.895 0.0
C180 C 0.21569 0.23369 0.67279 0.0
C181 C 0.20935 0.26095 0.60631 0.0
C182 C 0.22059 0.30009 0.59336 0.0
C183 C 0.23878 0.31065 0.64411 0.0
C184 C 0.24484 0.28237 0.70888 0.0
C185 C 0.23329 0.24495 0.72349 0.0
C186 C 0.24327 0.2183 0.7929 0.0
C187 C 0.22781 0.21515 0.86896 0.0
C188 C 0.24973 0.17342 0.76032 0.0
C189 C 0.26302 0.24523 0.81317 0.0
C190 C 0.26369 0.28244 0.76526 0.0
C191 C 0.28194 0.30938 0.76694 0.0
C192 C 0.30022 0.29675 0.81517 0.0
C193 C 0.30009 0.25737 0.86027 0.0
C194 C 0.2808 0.23282 0.86244 0.0
H195 H 0.72004 0.18917 0.8839 0.0
H196 H 0.6955 0.30423 0.76184 0.0
H197 H 0.72423 0.29928 0.65483 0.0
H198 H 0.77421 0.21618 0.87116 0.0
H199 H 0.78462 0.16307 0.84989 0.0
H200 H 0.7592 0.16933 0.90474 0.0
H201 H 0.74044 0.12149 0.79237 0.0
H202 H 0.76587 0.11634 0.73592 0.0
H203 H 0.74195 0.13643 0.68278 0.0
H204 H 0.75681 0.28813 0.57067 0.0
H205 H 0.79588 0.28203 0.53621 0.0
H206 H 0.80267 0.17896 0.71756 0.0
C207 C 0.72066 0.21271 0.83365 0.0
C208 C 0.70549 0.24682 0.83036 0.0
C209 C 0.7069 0.27766 0.76494 0.0
C210 C 0.723 0.27482 0.70313 0.0
C211 C 0.7378 0.24106 0.70754 0.0
C212 C 0.73716 0.21096 0.77191 0.0
C213 C 0.75726 0.18243 0.76912 0.0
C214 C 0.76955 0.18285 0.85372 0.0
C215 C 0.751 0.13644 0.74355 0.0
C216 C 0.77014 0.20421 0.69921 0.0
C217 C 0.75787 0.23601 0.66092 0.0
C218 C 0.76649 0.26279 0.5988 0.0
C219 C 0.78865 0.25891 0.57901 0.0
C220 C 0.80194 0.22941 0.62298 0.0
C221 C 0.79249 0.20061 0.68127 0.0
H222 H 0.27225 0.71634 0.03308 0.0
H223 H 0.32435 0.70043 0.21507 0.0
H224 H 0.29758 0.68234 0.32444 0.0
H225 H 0.23568 0.76456 0.14201 0.0
H226 H 0.21134 0.73583 0.11185 0.0
H227 H 0.23453 0.7361 0.04313 0.0
H228 H 0.23515 0.65298 0.0435 0.0
H229 H 0.21169 0.65259 0.11224 0.0
H230 H 0.2362 0.62434 0.14216 0.0
H231 H 0.26601 0.69096 0.41974 0.0
H232 H 0.23155 0.71311 0.48879 0.0
H233 H 0.19878 0.71115 0.2475 0.0
C234 C 0.27796 0.70648 0.09469 0.0
C235 C 0.30035 0.7092 0.1152 0.0
C236 C 0.30733 0.6975 0.19726 0.0
C237 C 0.2922 0.68728 0.26019 0.0
C238 C 0.27013 0.68686 0.23944 0.0
C239 C 0.26303 0.69405 0.15768 0.0
C240 C 0.23826 0.6945 0.15408 0.0
C241 C 0.22947 0.7352 0.1103 0.0
C242 C 0.22982 0.65368 0.11042 0.0
C243 C 0.23283 0.69354 0.24749 0.0
C244 C 0.25143 0.68774 0.29567 0.0
C245 C 0.25115 0.69328 0.38314 0.0
C246 C 0.23157 0.70594 0.42204 0.0
C247 C 0.21252 0.71216 0.37369 0.0
C248 C 0.21302 0.70452 0.28597 0.0
H249 H 0.70576 0.71461 0.19477 0.0
H250 H 0.72132 0.82209 0.03255 0.0
H251 H 0.75258 0.84071 0.12659 0.0
H252 H 0.72001 0.76844 0.3966 0.0
H253 H 0.73011 0.71884 0.44063 0.0
H254 H 0.70808 0.71802 0.36528 0.0
H255 H 0.73014 0.66596 0.27025 0.0
H256 H 0.75194 0.66611 0.34568 0.0
H257 H 0.75733 0.68067 0.23768 0.0
H258 H 0.7846 0.84051 0.23064 0.0
H259 H 0.81521 0.81827 0.32194 0.0
H260 H 0.77589 0.71407 0.42092 0.0
C261 C 0.71552 0.74255 0.17991 0.0
C262 C 0.71142 0.76686 0.10685 0.0
C263 C 0.7245 0.80298 0.0883 0.0
C264 C 0.74203 0.81394 0.14184 0.0
C265 C 0.74559 0.78911 0.2143 0.0
C266 C 0.73249 0.7543 0.23323 0.0
C267 C 0.74029 0.73045 0.31041 0.0
C268 C 0.72363 0.73418 0.38249 0.0
C269 C 0.74524 0.68304 0.2897 0.0
C270 C 0.76079 0.75547 0.32965 0.0
C271 C 0.7634 0.78985 0.27499 0.0
C272 C 0.78247 0.8143 0.27477 0.0
C273 C 0.79976 0.80161 0.32758 0.0
C274 C 0.79792 0.76432 0.37862 0.0
C275 C 0.77767 0.74298 0.38346 0.0
H276 H 0.1382 0.88973 0.57308 0.0
H277 H 0.11605 0.89218 0.3149 0.0
H278 H 0.10329 0.96673 0.3326 0.0
H279 H 0.09419 0.97345 0.65745 0.0
H280 H 0.11453 -0.00505 0.72771 0.0
H281 H 0.11405 0.93819 0.70502 0.0
H282 H 0.15449 0.94241 0.65889 0.0
H283 H 0.15506 -0.00111 0.67915 0.0
H284 H 0.16222 0.97916 0.57605 0.0
H285 H 0.1046 0.04525 0.36275 0.0
H286 H 0.11673 0.11765 0.40823 0.0
H287 H 0.13666 0.06438 0.64845 0.0
C288 C 0.12912 0.90508 0.52281 0.0
C289 C 0.12748 0.88523 0.44362 0.0
C290 C 0.11673 0.90668 0.37687 0.0
C291 C 0.10955 0.94915 0.38632 0.0
C292 C 0.1129 0.96939 0.46349 0.0
C293 C 0.12176 0.94751 0.53178 0.0
C294 C 0.12703 0.97804 0.60298 0.0
C295 C 0.11152 0.97072 0.6777 0.0
C296 C 0.15112 0.97441 0.63068 0.0
C297 C 0.12229 0.02059 0.56049 0.0
C298 C 0.11343 0.01519 0.48117 0.0
C299 C 0.11071 0.04999 0.42603 0.0
C300 C 0.11765 0.091 0.45208 0.0
C301 C 0.12752 0.09638 0.53176 0.0
C302 C 0.12899 0.06105 0.58732 0.0
H303 H 0.86387 0.42987 0.64918 0.0
H304 H 0.88844 0.36814 0.42365 0.0
H305 H 0.90459 0.43765 0.37813 0.0
H306 H 0.84538 0.519 0.55985 0.0
H307 H 0.8522 0.55389 0.64657 0.0
H308 H 0.84765 0.49806 0.66549 0.0
H309 H 0.88604 0.4933 0.73506 0.0
H310 H 0.89085 0.54934 0.71275 0.0
H311 H 0.90986 0.50926 0.67614 0.0
H312 H 0.91036 0.51491 0.3452 0.0
H313 H 0.89981 0.58993 0.31775 0.0
H314 H 0.87394 0.60076 0.56937 0.0
C315 C 0.8728 0.43069 0.59034 0.0
C316 C 0.87458 0.3941 0.5389 0.0
C317 C 0.88674 0.39621 0.46337 0.0
C318 C 0.89623 0.43528 0.43802 0.0
C319 C 0.89396 0.47108 0.49055 0.0
C320 C 0.88252 0.46879 0.56536 0.0
C321 C 0.87919 0.51226 0.60489 0.0
C322 C 0.85468 0.52131 0.61986 0.0
C323 C 0.89228 0.51626 0.68708 0.0
C324 C 0.8887 0.54036 0.53671 0.0
C325 C 0.89804 0.51602 0.47277 0.0
C326 C 0.90388 0.53434 0.39585 0.0
C327 C 0.89807 0.57718 0.38099 0.0
C328 C 0.88642 0.60055 0.4425 0.0
C329 C 0.88359 0.58349 0.52335 0.0
H330 H 0.85156 0.89522 0.44875 0.0
H331 H 0.91072 0.90828 0.30239 0.0
H332 H 0.91198 0.98545 0.33603 0.0
H333 H 0.82866 0.00944 0.41809 0.0
H334 H 0.81996 0.0103 0.52661 0.0
H335 H 0.81991 0.96051 0.46887 0.0
H336 H 0.84372 0.92698 0.58645 0.0
H337 H 0.84512 0.9772 0.64203 0.0
H338 H 0.86989 0.95041 0.61052 0.0
H339 H 0.91371 0.05103 0.4203 0.0
H340 H 0.90867 0.11384 0.51096 0.0
H341 H 0.84734 0.06149 0.60198 0.0
C342 C 0.86363 0.91527 0.41791 0.0
C343 C 0.88079 0.8965 0.37142 0.0
C344 C 0.89716 0.92268 0.33592 0.0
C345 C 0.89822 0.96627 0.35638 0.0
C346 C 0.88263 0.98272 0.41152 0.0
C347 C 0.86508 0.95867 0.43936 0.0
C348 C 0.85236 0.98235 0.50708 0.0
C349 C 0.82883 0.99121 0.47838 0.0
C350 C 0.85281 0.95774 0.59143 0.0
C351 C 0.86561 0.02323 0.51303 0.0
C352 C 0.88331 0.022 0.45908 0.0
C353 C 0.89947 0.05324 0.46042 0.0
C354 C 0.89666 0.08839 0.51366 0.0
C355 C 0.87749 0.09267 0.56299 0.0
C356 C 0.86207 0.05904 0.56455 0.0
H357 H 0.14985 0.56036 0.31196 0.0
H358 H 0.16816 0.62341 0.54268 0.0
H359 H 0.18287 0.55568 0.59782 0.0
H360 H 0.12744 0.48269 0.37774 0.0
H361 H 0.13666 0.43954 0.31091 0.0
H362 H 0.1382 0.49346 0.27389 0.0
H363 H 0.17966 0.48558 0.24768 0.0
H364 H 0.17821 0.43061 0.28357 0.0
H365 H 0.1973 0.46729 0.3313 0.0
H366 H 0.17557 0.48283 0.65056 0.0
H367 H 0.15653 0.41423 0.67943 0.0
H368 H 0.14933 0.39295 0.4125 0.0
C369 C 0.15896 0.56043 0.37037 0.0
C370 C 0.15777 0.59653 0.42328 0.0
C371 C 0.16918 0.59604 0.5007 0.0
C372 C 0.17733 0.55729 0.53312 0.0
C373 C 0.17516 0.52013 0.48478 0.0
C374 C 0.16757 0.52188 0.40235 0.0
C375 C 0.16318 0.47716 0.36877 0.0
C376 C 0.14001 0.47306 0.33089 0.0
C377 C 0.18064 0.46441 0.30402 0.0
C378 C 0.16571 0.4511 0.4488 0.0
C379 C 0.17319 0.47606 0.515 0.0
C380 C 0.17106 0.46213 0.59872 0.0
C381 C 0.16021 0.42314 0.61498 0.0
C382 C 0.15222 0.39828 0.54765 0.0
C383 C 0.15627 0.41107 0.46421 0.0
H384 H 0.64785 0.55917 0.12679 0.0
H385 H 0.61597 0.62181 0.91648 0.0
H386 H 0.59813 0.55296 0.87879 0.0
H387 H 0.66376 0.47345 0.02764 0.0
H388 H 0.66002 0.43527 0.11199 0.0
H389 H 0.66422 0.4907 0.13604 0.0
H390 H 0.62808 0.49162 0.22112 0.0
H391 H 0.62373 0.43576 0.19624 0.0
H392 H 0.603 0.47496 0.1716 0.0
H393 H 0.59343 0.47683 0.84125 0.0
H394 H 0.60303 0.40203 0.80586 0.0
H395 H 0.63578 0.38782 0.04504 0.0
C396 C 0.63649 0.55853 0.07449 0.0
C397 C 0.63326 0.59512 0.02388 0.0
C398 C 0.61844 0.59379 0.95593 0.0
C399 C 0.60818 0.55496 0.93472 0.0
C400 C 0.61252 0.51856 0.98383 0.0
C401 C 0.62609 0.52035 0.05343 0.0
C402 C 0.63137 0.47617 0.08732 0.0
C403 C 0.65629 0.46848 0.09075 0.0
C404 C 0.6209 0.46923 0.17422 0.0
C405 C 0.62041 0.44883 0.02119 0.0
C406 C 0.60897 0.47377 0.96349 0.0
C407 C 0.60137 0.45671 0.88774 0.0
C408 C 0.60676 0.41416 0.86817 0.0
C409 C 0.61939 0.38942 0.92451 0.0
C410 C 0.62512 0.40593 0.00361 0.0
H411 H 0.3717 0.89504 0.89078 0.0
H412 H 0.39162 0.88531 0.15091 0.0
H413 H 0.40795 0.95767 0.14341 0.0
H414 H 0.41837 0.96933 0.81118 0.0
H415 H 0.39882 -0.00208 0.74717 0.0
H416 H 0.39568 0.94101 0.76469 0.0
H417 H 0.35639 0.95424 0.82034 0.0
H418 H 0.35943 0.01069 0.80374 0.0
H419 H 0.3524 0.99088 0.90687 0.0
H420 H 0.40617 0.03774 0.12484 0.0
H421 H 0.39352 0.11097 0.08502 0.0
H422 H 0.38378 0.06767 0.82931 0.0
C423 C 0.3811 0.90694 0.94363 0.0
C424 C 0.381 0.88472 0.02042 0.0
C425 C 0.39218 0.90178 0.09073 0.0
C426 C 0.40135 0.943 0.08715 0.0
C427 C 0.39961 0.96605 0.01209 0.0
C428 C 0.39054 0.94778 0.94033 0.0
C429 C 0.38688 0.98095 0.87254 0.0
C430 C 0.40079 0.97172 0.79427 0.0
C431 C 0.36236 0.98436 0.84968 0.0
C432 C 0.39464 0.02069 0.91764 0.0
C433 C 0.40135 0.01217 -0.00082 0.0
C434 C 0.40232 0.04496 0.05977 0.0
C435 C 0.39525 0.08655 0.03694 0.0
C436 C 0.38808 0.09446 0.95382 0.0
C437 C 0.38978 0.06219 0.89272 0.0
H438 H 0.37548 0.39348 0.06384 0.0
H439 H 0.36341 0.40933 0.79677 0.0
H440 H 0.34671 0.48087 0.82581 0.0
H441 H 0.32723 0.46024 0.14438 0.0
H442 H 0.34394 0.48023 0.22915 0.0
H443 H 0.34789 0.4263 0.19058 0.0
H444 H 0.38881 0.44246 0.16347 0.0
H445 H 0.38499 0.49551 0.20332 0.0
H446 H 0.39613 0.48805 0.09912 0.0
H447 H 0.3384 0.55508 0.88184 0.0
H448 H 0.34769 0.6246 0.94544 0.0
H449 H 0.36804 0.56055 0.17354 0.0
C450 C 0.36897 0.41165 0.01124 0.0
C451 C 0.37108 0.39653 0.92781 0.0
C452 C 0.36203 0.42063 0.86103 0.0
C453 C 0.35232 0.46095 0.8774 0.0
C454 C 0.35139 0.47578 0.96086 0.0
C455 C 0.35954 0.45145 0.02659 0.0
C456 C 0.36077 0.47659 0.10787 0.0
C457 C 0.34395 0.45983 0.17175 0.0
C458 C 0.38405 0.47565 0.1454 0.0
C459 C 0.3544 0.52063 0.07613 0.0
C460 C 0.34756 0.51901 -0.00727 0.0
C461 C 0.3433 0.55645 0.94728 0.0
C462 C 0.34827 0.59608 0.98471 0.0
C463 C 0.35873 0.59752 0.06421 0.0
C464 C 0.35963 0.56002 0.11354 0.0
H465 H 0.66278 0.08027 0.92066 0.0
H466 H 0.59384 0.07687 0.86212 0.0
H467 H 0.59131 0.00405 0.92236 0.0
H468 H 0.6738 0.9601 0.88852 0.0
H469 H 0.693 0.96085 0.97466 0.0
H470 H 0.68958 0.00779 0.90959 0.0
H471 H 0.6821 0.05112 0.04588 0.0
H472 H 0.6835 0.00359 0.11047 0.0
H473 H 0.65931 0.03658 0.11182 0.0
H474 H 0.59402 0.94464 0.02783 0.0
H475 H 0.60506 0.87837 0.10014 0.0
H476 H 0.67304 0.91572 0.07817 0.0
C477 C 0.6476 0.06271 0.91409 0.0
C478 C 0.62839 0.084 0.8881 0.0
C479 C 0.60868 0.06074 0.88178 0.0
C480 C 0.60697 0.01998 0.91836 0.0
C481 C 0.62545 0.00276 0.95675 0.0
C482 C 0.64573 0.02185 0.94995 0.0
C483 C 0.66286 -0.0032 -0.00143 0.0
C484 C 0.68086 0.98036 0.93928 0.0
C485 C 0.6725 0.02365 0.07091 0.0
C486 C 0.64898 0.9606 0.03295 0.0
C487 C 0.6273 0.96608 0.01163 0.0
C488 C 0.61108 0.93883 0.04158 0.0
C489 C 0.61754 0.90172 0.08464 0.0
C490 C 0.64001 0.8909 0.0901 0.0
C491 C 0.65578 0.92282 0.07285 0.0
H492 H 0.1444 0.21951 0.24783 0.0
H493 H 0.11011 0.34181 0.2495 0.0
H494 H 0.11038 0.34316 0.09504 0.0
H495 H 0.17899 0.2424 0.06575 0.0
H496 H 0.17711 0.18868 0.02424 0.0
H497 H 0.175 0.19753 0.13609 0.0
H498 H 0.13775 0.15807 0.13738 0.0
H499 H 0.13967 0.14952 0.0254 0.0
H500 H 0.11618 0.17641 0.06887 0.0
H501 H 0.11205 0.33046 0.94305 0.0
H502 H 0.11808 0.30672 0.79707 0.0
H503 H 0.15234 0.19371 0.88896 0.0
C504 C 0.13718 0.2467 0.21548 0.0
C505 C 0.12706 0.28032 0.2607 0.0
C506 C 0.11768 0.31533 0.21626 0.0
C507 C 0.11778 0.31653 0.12845 0.0
C508 C 0.12734 0.28253 0.08569 0.0
C509 C 0.13706 0.24841 0.12712 0.0
C510 C 0.14584 0.21583 0.06466 0.0
C511 C 0.17071 0.21084 0.07322 0.0
C512 C 0.13416 0.17239 0.0747 0.0
C513 C 0.13968 0.23743 0.98223 0.0
C514 C 0.12879 0.27559 -0.0037 0.0
C515 C 0.12071 0.3008 0.93086 0.0
C516 C 0.12411 0.28694 0.84829 0.0
C517 C 0.13571 0.24854 0.832 0.0
C518 C 0.14356 0.2234 0.89986 0.0
H519 H 0.8657 0.29118 0.26643 0.0
H520 H 0.87811 0.15425 0.28589 0.0
H521 H 0.88764 0.15176 0.13515 0.0
H522 H 0.83967 0.28248 0.06088 0.0
H523 H 0.84978 0.33373 0.02523 0.0
H524 H 0.84481 0.32482 0.13563 0.0
H525 H 0.88473 0.34696 0.16809 0.0
H526 H 0.8899 0.35501 0.0575 0.0
H527 H 0.90691 0.3189 0.11754 0.0
H528 H 0.89561 0.16334 0.98535 0.0
H529 H 0.89673 0.18696 0.83675 0.0
H530 H 0.87846 0.31589 0.91443 0.0
C531 C 0.87034 0.26082 0.23831 0.0
C532 C 0.87125 0.22292 0.28631 0.0
C533 C 0.87714 0.18344 0.24875 0.0
C534 C 0.88281 0.18179 0.16388 0.0
C535 C 0.8821 0.21978 0.11803 0.0
C536 C 0.87552 0.25837 0.15305 0.0
C537 C 0.87441 0.29355 0.08773 0.0
C538 C 0.85077 0.30956 0.07671 0.0
C539 C 0.88993 0.33078 0.10903 0.0
C540 C 0.88206 0.2688 0.01148 0.0
C541 C 0.88643 0.22637 0.03038 0.0
C542 C 0.89237 0.19654 0.96929 0.0
C543 C 0.89302 0.21016 0.88549 0.0
C544 C 0.88782 0.25309 0.86479 0.0
C545 C 0.88294 0.28299 0.92877 0.0
H546 H 0.12573 0.79742 0.09141 0.0
H547 H 0.15885 0.67983 0.16362 0.0
H548 H 0.16434 0.66167 0.01378 0.0
H549 H 0.09718 0.74909 0.91007 0.0
H550 H 0.09886 0.79787 0.84905 0.0
H551 H 0.09752 0.8005 0.9622 0.0
H552 H 0.13302 0.84573 0.96105 0.0
H553 H 0.13506 0.84133 0.84817 0.0
H554 H 0.1574 0.82395 0.91393 0.0
H555 H 0.16793 0.65801 0.86153 0.0
H556 H 0.16162 0.65908 0.70808 0.0
H557 H 0.12502 0.77767 0.73181 0.0
C558 C 0.13363 0.76745 0.07485 0.0
C559 C 0.14184 0.73962 0.13705 0.0
C560 C 0.15227 0.70083 0.11532 0.0
C561 C 0.15572 0.69071 0.03099 0.0
C562 C 0.14828 0.7196 0.97052 0.0
C563 C 0.13674 0.75632 -0.00917 0.0
C564 C 0.12934 0.78022 0.91288 0.0
C565 C 0.10424 0.78199 0.90829 0.0
C566 C 0.13931 0.82549 0.9088 0.0
C567 C 0.13874 0.7512 0.84577 0.0
C568 C 0.14997 0.71698 0.88093 0.0
C569 C 0.15922 0.68451 0.8328 0.0
C570 C 0.15569 0.68548 0.74623 0.0
C571 C 0.14308 0.71862 0.70999 0.0
C572 C 0.13515 0.75273 0.75912 0.0
H573 H 0.85781 0.69776 0.70874 0.0
H574 H 0.88476 0.82691 0.70383 0.0
H575 H 0.89306 0.82224 0.85381 0.0
H576 H 0.83014 0.70959 0.89604 0.0
H577 H 0.83514 0.65643 0.93704 0.0
H578 H 0.83504 0.66539 0.82516 0.0
H579 H 0.87396 0.63295 0.81478 0.0
H580 H 0.87417 0.62412 0.92712 0.0
H581 H 0.89562 0.65494 0.8783 0.0
H582 H 0.89499 0.80916 0.0017 0.0
H583 H 0.88719 0.78999 0.14841 0.0
H584 H 0.85755 0.67044 0.06531 0.0
C585 C 0.86568 0.72461 0.73962 0.0
C586 C 0.87043 0.76272 0.69546 0.0
C587 C 0.88061 0.7976 0.7371 0.0
C588 C 0.88578 0.79508 0.82196 0.0
C589 C 0.88064 0.75754 0.8644 0.0
C590 C 0.87066 0.72295 0.82555 0.0
C591 C 0.86437 0.689 0.88939 0.0
C592 C 0.83971 0.6796 0.88674 0.0
C593 C 0.87784 0.64782 0.87661 0.0
C594 C 0.87092 0.7117 0.96978 0.0
C595 C 0.8811 0.75033 0.95315 0.0
C596 C 0.88739 0.77866 0.01615 0.0
C597 C 0.88277 0.7676 0.09911 0.0
C598 C 0.87164 0.72893 0.11759 0.0
C599 C 0.86602 0.70025 0.05243 0.0
H600 H 0.62891 0.7737 0.35444 0.0
H601 H 0.66541 0.65414 0.35445 0.0
H602 H 0.6645 0.65261 0.50981 0.0
H603 H 0.65701 0.8191 0.52465 0.0
H604 H 0.63358 0.84621 0.56815 0.0
H605 H 0.63487 0.83547 0.45693 0.0
H606 H 0.59796 0.79485 0.4645 0.0
H607 H 0.59641 0.80592 0.57568 0.0
H608 H 0.59473 0.75133 0.53856 0.0
H609 H 0.66125 0.66614 0.6652 0.0
H610 H 0.656 0.69465 0.80945 0.0
H611 H 0.62327 0.80649 0.70413 0.0
C612 C 0.6363 0.74682 0.38725 0.0
C613 C 0.6471 0.71399 0.34317 0.0
C614 C 0.65706 0.67969 0.38773 0.0
C615 C 0.65658 0.67841 0.47572 0.0
C616 C 0.6462 0.71182 0.51768 0.0
C617 C 0.63626 0.74538 0.47497 0.0
C618 C 0.62768 0.77891 0.53476 0.0
C619 C 0.63897 0.82248 0.52024 0.0
C620 C 0.60271 0.78296 0.52797 0.0
C621 C 0.63447 0.75905 0.6175 0.0
C622 C 0.64497 0.72024 0.60675 0.0
C623 C 0.65298 0.69649 0.67467 0.0
C624 C 0.65004 0.71296 0.75608 0.0
C625 C 0.63934 0.7528 0.7679 0.0
C626 C 0.63157 0.77594 0.69745 0.0
H627 H 0.35755 0.77554 0.74868 0.0
H628 H 0.40456 0.67062 0.73583 0.0
H629 H 0.41072 0.68515 0.58847 0.0
H630 H 0.33172 0.75758 0.56464 0.0
H631 H 0.32918 0.81201 0.52673 0.0
H632 H 0.33151 0.80187 0.63785 0.0
H633 H 0.36494 0.85246 0.64574 0.0
H634 H 0.3627 0.86282 0.53418 0.0
H635 H 0.38799 0.84321 0.57765 0.0
H636 H 0.40792 0.69878 0.44373 0.0
H637 H 0.39557 0.71236 0.30018 0.0
H638 H 0.35028 0.80919 0.39267 0.0
C639 C 0.36929 0.75621 0.71463 0.0
C640 C 0.38015 0.72139 0.75406 0.0
C641 C 0.39551 0.69685 0.70754 0.0
C642 C 0.39956 0.70528 0.6235 0.0
C643 C 0.38828 0.73857 0.58567 0.0
C644 C 0.37355 0.7641 0.62879 0.0
C645 C 0.36214 0.79458 0.56806 0.0
C646 C 0.33715 0.79124 0.57473 0.0
C647 C 0.3699 0.84101 0.58228 0.0
C648 C 0.37065 0.77751 0.48453 0.0
C649 C 0.38658 0.74687 0.4974 0.0
C650 C 0.39587 0.72351 0.4321 0.0
C651 C 0.38853 0.73118 0.35069 0.0
C652 C 0.37186 0.76166 0.33521 0.0
C653 C 0.36307 0.78574 0.40285 0.0
H654 H 0.65984 0.29122 0.21106 0.0
H655 H 0.6288 0.16739 0.17463 0.0
H656 H 0.61904 0.16457 0.32479 0.0
H657 H 0.68423 0.26481 0.40579 0.0
H658 H 0.68054 0.31699 0.45274 0.0
H659 H 0.68289 0.3121 0.34019 0.0
H660 H 0.64582 0.35154 0.32173 0.0
H661 H 0.64341 0.35639 0.43451 0.0
H662 H 0.62194 0.33119 0.37478 0.0
H663 H 0.61418 0.17253 0.47756 0.0
H664 H 0.6173 0.18869 0.62937 0.0
H665 H 0.6529 0.30545 0.5693 0.0
C666 C 0.65093 0.2638 0.23521 0.0
C667 C 0.64527 0.22933 0.18252 0.0
C668 C 0.63358 0.19375 0.21516 0.0
C669 C 0.62773 0.19205 0.29985 0.0
C670 C 0.63376 0.22613 0.35093 0.0
C671 C 0.64524 0.2612 0.32046 0.0
C672 C 0.65128 0.29152 0.39093 0.0
C673 C 0.67621 0.29662 0.39781 0.0
C674 C 0.63993 0.33525 0.37979 0.0
C675 C 0.64203 0.26716 0.46534 0.0
C676 C 0.63152 0.2301 0.44059 0.0
C677 C 0.62223 0.20162 0.49811 0.0
C678 C 0.62407 0.21099 0.58391 0.0
C679 C 0.63541 0.24808 0.6105 0.0
C680 C 0.6442 0.27673 0.55044 0.0
H681 H 0.35933 0.19461 0.21216 0.0
H682 H 0.37322 0.33163 0.20936 0.0
H683 H 0.38353 0.32865 0.35776 0.0
H684 H 0.33376 0.19702 0.41672 0.0
H685 H 0.34386 0.14509 0.44881 0.0
H686 H 0.33947 0.15642 0.33889 0.0
H687 H 0.3796 0.13545 0.30805 0.0
H688 H 0.38419 0.12498 0.41839 0.0
H689 H 0.40138 0.16251 0.36286 0.0
H690 H 0.39318 0.31295 0.50126 0.0
H691 H 0.3927 0.28908 0.64832 0.0
H692 H 0.36943 0.16351 0.56897 0.0
C693 C 0.36436 0.22388 0.24343 0.0
C694 C 0.36548 0.26328 0.19935 0.0
C695 C 0.372 0.30111 0.24196 0.0
C696 C 0.37829 0.29971 0.32599 0.0
C697 C 0.37756 0.26047 0.36723 0.0
C698 C 0.37009 0.22343 0.32894 0.0
C699 C 0.36863 0.18689 0.39207 0.0
C700 C 0.34502 0.17041 0.39959 0.0
C701 C 0.38439 0.1503 0.36894 0.0
C702 C 0.37595 0.20992 0.47151 0.0
C703 C 0.38179 0.25182 0.45426 0.0
C704 C 0.3886 0.28026 0.51627 0.0
C705 C 0.38831 0.26634 0.59962 0.0
C706 C 0.38072 0.22474 0.62006 0.0
C707 C 0.37524 0.19558 0.55498 0.0
H708 H 0.04328 0.3049 0.56811 0.0
H709 H 0.0656 0.17627 0.50829 0.0
H710 H 0.02718 0.15445 0.48065 0.0
H711 H 0.9956 0.2787 0.67513 0.0
H712 H 0.97996 0.32272 0.63233 0.0
H713 H 0.00908 0.32744 0.64248 0.0
H714 H 0.01207 0.34514 0.48297 0.0
H715 H 0.98289 0.34019 0.47231 0.0
H716 H 1.00072 0.30844 0.40699 0.0
H717 H 0.98503 0.14735 0.46547 0.0
H718 H 0.94468 0.15492 0.4708 0.0
H719 H 0.95185 0.28876 0.53996 0.0
C720 C 0.0402 0.27198 0.54966 0.0
C721 C 0.05742 0.24208 0.54171 0.0
C722 C 0.05262 0.19962 0.51549 0.0
C723 C 0.03087 0.18708 0.49924 0.0
C724 C 0.01427 0.21765 0.50792 0.0
C725 C 0.01887 0.2593 0.53205 0.0
C726 C 0.99846 0.28637 0.53814 0.0
C727 C 0.99561 0.30486 0.62733 0.0
C728 C 0.99855 0.32215 0.47113 0.0
C729 C 0.98137 0.25303 0.51848 0.0
C730 C 0.99065 0.21374 0.49911 0.0
C731 C 0.97771 0.1781 0.48015 0.0
C732 C 0.95482 0.18271 0.48304 0.0
C733 C 0.94522 0.22242 0.50618 0.0
C734 C 0.95875 0.25799 0.52244 0.0
H735 H 0.95967 0.76833 0.55257 0.0
H736 H 0.9439 0.70168 0.32007 0.0
H737 H 0.9828 0.70174 0.28108 0.0
H738 H 1.0024 0.83534 0.46753 0.0
H739 H 0.0196 0.83147 0.55938 0.0
H740 H 0.99037 0.82745 0.57003 0.0
H741 H 0.99422 0.75362 0.64425 0.0
H742 H 0.02341 0.75827 0.63643 0.0
H743 H 0.00982 0.71166 0.59425 0.0
H744 H 0.02249 0.71113 0.26367 0.0
H745 H 0.06232 0.71228 0.28507 0.0
H746 H 0.05328 0.76955 0.53101 0.0
C747 C 0.96442 0.75329 0.49389 0.0
C748 C 0.94869 0.73536 0.43886 0.0
C749 C 0.95561 0.7158 0.36298 0.0
C750 C 0.97764 0.71613 0.33979 0.0
C751 C 0.99254 0.73596 0.39331 0.0
C752 C 0.9864 0.75309 0.46989 0.0
C753 C 0.00602 0.77002 0.51786 0.0
C754 C 1.00449 0.81898 0.52936 0.0
C755 C 0.00852 0.74699 0.6032 0.0
C756 C 0.0242 0.75835 0.45718 0.0
C757 C 0.01587 0.74019 0.3845 0.0
C758 C 0.02926 0.72555 0.31987 0.0
C759 C 0.05183 0.72693 0.33194 0.0
C760 C 0.0607 0.74211 0.40844 0.0
C761 C 0.04682 0.75942 0.4707 0.0
H762 H 0.55173 0.77787 0.91839 0.0
H763 H 0.56619 0.72632 0.16616 0.0
H764 H 0.5266 0.72196 0.19678 0.0
H765 H 0.50671 0.84169 0.97003 0.0
H766 H 0.49074 0.82899 0.87797 0.0
H767 H 0.52009 0.82664 0.87332 0.0
H768 H 0.5186 0.74753 0.82353 0.0
H769 H 0.48924 0.75015 0.8252 0.0
H770 H 0.50325 0.70883 0.88383 0.0
H771 H 0.48617 0.73137 0.20616 0.0
H772 H 0.44642 0.73386 0.18094 0.0
H773 H 0.45785 0.77269 0.92258 0.0
C774 C 0.54646 0.76491 0.97842 0.0
C775 C 0.56181 0.75266 0.0404 0.0
C776 C 0.55456 0.73559 0.118 0.0
C777 C 0.53218 0.7335 0.13615 0.0
C778 C 0.51744 0.74778 0.0752 0.0
C779 C 0.52421 0.7615 -0.00336 0.0
C780 C 0.50494 0.77293 0.94095 0.0
C781 C 0.50568 0.82039 0.91401 0.0
C782 C 0.50394 0.74307 0.86386 0.0
C783 C 0.48627 0.76461 0.00149 0.0
C784 C 0.49394 0.75101 0.07905 0.0
C785 C 0.47993 0.74187 0.14575 0.0
C786 C 0.45742 0.7443 0.13151 0.0
C787 C 0.44921 0.75495 0.05099 0.0
C788 C 0.46378 0.7662 0.98566 0.0
H789 H 0.45755 0.22596 0.86934 0.0
H790 H 0.44662 0.26146 0.1307 0.0
H791 H 0.48607 0.26292 0.15517 0.0
H792 H 0.50549 0.15676 0.91479 0.0
H793 H 0.51961 0.17208 0.81981 0.0
H794 H 0.49019 0.1716 0.82216 0.0
H795 H 0.48971 0.25107 0.77365 0.0
H796 H 0.51911 0.25191 0.77222 0.0
H797 H 0.50432 0.29076 0.83407 0.0
H798 H 0.52615 0.26252 0.15358 0.0
H799 H 0.56571 0.25689 0.1257 0.0
H800 H 0.55217 0.2236 0.8656 0.0
C801 C 0.4635 0.23333 0.9319 0.0
C802 C 0.44888 0.24367 -0.00201 0.0
C803 C 0.45737 0.25347 0.07887 0.0
C804 C 0.47982 0.25449 0.09361 0.0
C805 C 0.49378 0.2453 0.02716 0.0
C806 C 0.4861 0.23439 0.94809 0.0
C807 C 0.50503 0.22596 0.88836 0.0
C808 C 0.50508 0.1788 0.85958 0.0
C809 C 0.5045 0.25679 0.81261 0.0
C810 C 0.52431 0.23523 0.94585 0.0
C811 C 0.51733 0.24581 0.02586 0.0
C812 C 0.53189 0.25432 0.09118 0.0
C813 C 0.55428 0.25115 0.07483 0.0
C814 C 0.56188 0.24034 -0.00647 0.0
C815 C 0.54671 0.23277 0.92793 0.0
loop_
_geom_bond_atom_site_label_1
_geom_bond_atom_site_label_2
_geom_bond_distance
_geom_bond_site_symmetry_2
_ccdc_geom_bond_type
O0 Mg1 1.990 . S
O0 C14 1.253 . S
Mg1 O0 1.990 . S
Mg1 O4 2.180 . S
Mg1 O5 2.117 . S
Mg1 O19 2.030 . S
O2 Mg3 2.072 . S
O2 C14 1.260 . S
Mg3 O2 2.072 . S
Mg3 O4 2.099 . S
Mg3 O6 2.079 . S
Mg3 O7 2.072 . S
Mg3 O9 2.099 . S
Mg3 O20 2.079 . S
O4 Mg1 2.180 . S
O4 Mg3 2.099 . S
O4 C15 1.279 . S
O5 Mg1 2.117 . S
O5 C15 1.250 . S
O6 Mg3 2.079 . S
O6 C16 1.264 . S
O7 Mg3 2.072 . S
O7 C17 1.260 . S
Mg8 O9 2.180 . S
Mg8 O10 2.030 . S
Mg8 O11 1.990 . S
Mg8 O12 2.117 . S
O9 Mg3 2.099 . S
O9 Mg8 2.180 . S
O9 C18 1.279 . S
O10 Mg8 2.030 . S
O10 C16 1.248 . S
O11 Mg8 1.990 . S
O11 C17 1.253 . S
O12 Mg8 2.117 . S
O12 C18 1.250 . S
C13 O19 1.248 . S
C13 O20 1.264 . S
C14 O0 1.253 . S
C14 O2 1.260 . S
C15 O4 1.279 . S
C15 O5 1.250 . S
C16 O6 1.264 . S
C16 O10 1.248 . S
C17 O7 1.260 . S
C17 O11 1.253 . S
C18 O9 1.279 . S
C18 O12 1.250 . S
O19 Mg1 2.030 . S
O19 C13 1.248 . S
O20 Mg3 2.079 . S
O20 C13 1.264 . S
O21 Mg22 1.990 . S
O21 C35 1.253 . S
Mg22 O21 1.990 . S
Mg22 O25 2.180 . S
Mg22 O26 2.117 . S
Mg22 O40 2.030 . S
O23 Mg24 2.072 . S
O23 C35 1.260 . S
Mg24 O23 2.072 . S
Mg24 O25 2.099 . S
Mg24 O27 2.079 . S
Mg24 O28 2.072 . S
Mg24 O30 2.099 . S
Mg24 O41 2.079 . S
O25 Mg22 2.180 . S
O25 Mg24 2.099 . S
O25 C36 1.279 . S
O26 Mg22 2.117 . S
O26 C36 1.250 . S
O27 Mg24 2.079 . S
O27 C37 1.264 . S
O28 Mg24 2.072 . S
O28 C38 1.260 . S
Mg29 O30 2.180 . S
Mg29 O31 2.030 . S
Mg29 O32 1.990 . S
Mg29 O33 2.117 . S
O30 Mg24 2.099 . S
O30 Mg29 2.180 . S
O30 C39 1.279 . S
O31 Mg29 2.030 . S
O31 C37 1.248 . S
O32 Mg29 1.990 . S
O32 C38 1.253 . S
O33 Mg29 2.117 . S
O33 C39 1.250 . S
C34 O40 1.248 . S
C34 O41 1.264 . S
C35 O21 1.253 . S
C35 O23 1.260 . S
C36 O25 1.279 . S
C36 O26 1.250 . S
C37 O27 1.264 . S
C37 O31 1.248 . S
C38 O28 1.260 . S
C38 O32 1.253 . S
C39 O30 1.279 . S
C39 O33 1.250 . S
O40 Mg22 2.030 . S
O40 C34 1.248 . S
O41 Mg24 2.079 . S
O41 C34 1.264 . S
O42 Mg43 1.990 . S
O42 C56 1.253 . S
Mg43 O42 1.990 . S
Mg43 O46 2.180 . S
Mg43 O47 2.117 . S
Mg43 O61 2.030 . S
O44 Mg45 2.072 . S
O44 C56 1.260 . S
Mg45 O44 2.072 . S
Mg45 O46 2.099 . S
Mg45 O48 2.079 . S
Mg45 O49 2.072 . S
Mg45 O51 2.099 . S
Mg45 O62 2.079 . S
O46 Mg43 2.180 . S
O46 Mg45 2.099 . S
O46 C57 1.279 . S
O47 Mg43 2.117 . S
O47 C57 1.250 . S
O48 Mg45 2.079 . S
O48 C58 1.264 . S
O49 Mg45 2.072 . S
O49 C59 1.260 . S
Mg50 O51 2.180 . S
Mg50 O52 2.030 . S
Mg50 O53 1.990 . S
Mg50 O54 2.117 . S
O51 Mg45 2.099 . S
O51 Mg50 2.180 . S
O51 C60 1.279 . S
O52 Mg50 2.030 . S
O52 C58 1.248 . S
O53 Mg50 1.990 . S
O53 C59 1.253 . S
O54 Mg50 2.117 . S
O54 C60 1.250 . S
C55 O61 1.248 . S
C55 O62 1.264 . S
C56 O42 1.253 . S
C56 O44 1.260 . S
C57 O46 1.279 . S
C57 O47 1.250 . S
C58 O48 1.264 . S
C58 O52 1.248 . S
C59 O49 1.260 . S
C59 O53 1.253 . S
C60 O51 1.279 . S
C60 O54 1.250 . S
O61 Mg43 2.030 . S
O61 C55 1.248 . S
O62 Mg45 2.079 . S
O62 C55 1.264 . S
O63 Mg64 1.990 . S
O63 C77 1.253 . S
Mg64 O63 1.990 . S
Mg64 O67 2.180 . S
Mg64 O68 2.117 . S
Mg64 O82 2.030 . S
O65 Mg66 2.072 . S
O65 C77 1.260 . S
Mg66 O65 2.072 . S
Mg66 O67 2.099 . S
Mg66 O69 2.079 . S
Mg66 O70 2.072 . S
Mg66 O72 2.099 . S
Mg66 O83 2.079 . S
O67 Mg64 2.180 . S
O67 Mg66 2.099 . S
O67 C78 1.279 . S
O68 Mg64 2.117 . S
O68 C78 1.250 . S
O69 Mg66 2.079 . S
O69 C79 1.264 . S
O70 Mg66 2.072 . S
O70 C80 1.260 . S
Mg71 O72 2.180 . S
Mg71 O73 2.030 . S
Mg71 O74 1.990 . S
Mg71 O75 2.117 . S
O72 Mg66 2.099 . S
O72 Mg71 2.180 . S
O72 C81 1.279 . S
O73 Mg71 2.030 . S
O73 C79 1.248 . S
O74 Mg71 1.990 . S
O74 C80 1.253 . S
O75 Mg71 2.117 . S
O75 C81 1.250 . S
C76 O82 1.248 . S
C76 O83 1.264 . S
C77 O63 1.253 . S
C77 O65 1.260 . S
C78 O67 1.279 . S
C78 O68 1.250 . S
C79 O69 1.264 . S
C79 O73 1.248 . S
C80 O70 1.260 . S
C80 O74 1.253 . S
C81 O72 1.279 . S
C81 O75 1.250 . S
O82 Mg64 2.030 . S
O82 C76 1.248 . S
O83 Mg66 2.079 . S
O83 C76 1.264 . S
O84 Mg85 1.990 . S
O84 C98 1.253 . S
Mg85 O84 1.990 . S
Mg85 O88 2.180 . S
Mg85 O89 2.117 . S
Mg85 O103 2.030 . S
O86 Mg87 2.072 . S
O86 C98 1.260 . S
Mg87 O86 2.072 . S
Mg87 O88 2.099 . S
Mg87 O90 2.079 . S
Mg87 O91 2.072 1_554 S
Mg87 O93 2.099 . S
Mg87 O104 2.079 . S
O88 Mg85 2.180 . S
O88 Mg87 2.099 . S
O88 C99 1.279 . S
O89 Mg85 2.117 . S
O89 C99 1.250 . S
O90 Mg87 2.079 . S
O90 C100 1.264 . S
O91 Mg87 2.072 1_556 S
O91 C101 1.260 . S
Mg92 O93 2.180 1_556 S
Mg92 O94 2.030 . S
Mg92 O95 1.990 . S
Mg92 O96 2.117 . S
O93 Mg87 2.099 . S
O93 Mg92 2.180 1_554 S
O93 C102 1.279 . S
O94 Mg92 2.030 . S
O94 C100 1.248 1_556 S
O95 Mg92 1.990 . S
O95 C101 1.253 . S
O96 Mg92 2.117 . S
O96 C102 1.250 1_556 S
C97 O103 1.248 . S
C97 O104 1.264 . S
C98 O84 1.253 . S
C98 O86 1.260 . S
C99 O88 1.279 . S
C99 O89 1.250 . S
C100 O90 1.264 . S
C100 O94 1.248 1_554 S
C101 O91 1.260 . S
C101 O95 1.253 . S
C102 O93 1.279 . S
C102 O96 1.250 1_554 S
O103 Mg85 2.030 . S
O103 C97 1.248 . S
O104 Mg87 2.079 . S
O104 C97 1.264 . S
O105 Mg106 1.990 . S
O105 C119 1.253 . S
Mg106 O105 1.990 . S
Mg106 O109 2.180 1_556 S
Mg106 O110 2.117 . S
Mg106 O124 2.030 . S
O107 Mg108 2.072 1_556 S
O107 C119 1.260 . S
Mg108 O107 2.072 1_554 S
Mg108 O109 2.099 . S
Mg108 O111 2.079 . S
Mg108 O112 2.072 . S
Mg108 O114 2.099 . S
Mg108 O125 2.079 . S
O109 Mg106 2.180 1_554 S
O109 Mg108 2.099 . S
O109 C120 1.279 . S
O110 Mg106 2.117 . S
O110 C120 1.250 1_556 S
O111 Mg108 2.079 . S
O111 C121 1.264 . S
O112 Mg108 2.072 . S
O112 C122 1.260 . S
Mg113 O114 2.180 . S
Mg113 O115 2.030 . S
Mg113 O116 1.990 . S
Mg113 O117 2.117 . S
O114 Mg108 2.099 . S
O114 Mg113 2.180 . S
O114 C123 1.279 . S
O115 Mg113 2.030 . S
O115 C121 1.248 . S
O116 Mg113 1.990 . S
O116 C122 1.253 . S
O117 Mg113 2.117 . S
O117 C123 1.250 . S
C118 O124 1.248 1_554 S
C118 O125 1.264 . S
C119 O105 1.253 . S
C119 O107 1.260 . S
C120 O109 1.279 . S
C120 O110 1.250 1_554 S
C121 O111 1.264 . S
C121 O115 1.248 . S
C122 O112 1.260 . S
C122 O116 1.253 . S
C123 O114 1.279 . S
C123 O117 1.250 . S
O124 Mg106 2.030 . S
O124 C118 1.248 1_556 S
O125 Mg108 2.079 . S
O125 C118 1.264 . S
O126 Mg127 1.990 . S
O126 C140 1.253 . S
Mg127 O126 1.990 . S
Mg127 O130 2.180 1_554 S
Mg127 O131 2.117 . S
Mg127 O145 2.030 . S
O128 Mg129 2.072 1_554 S
O128 C140 1.260 . S
Mg129 O128 2.072 1_556 S
Mg129 O130 2.099 . S
Mg129 O132 2.079 . S
Mg129 O133 2.072 . S
Mg129 O135 2.099 . S
Mg129 O146 2.079 . S
O130 Mg127 2.180 1_556 S
O130 Mg129 2.099 . S
O130 C141 1.279 . S
O131 Mg127 2.117 . S
O131 C141 1.250 1_554 S
O132 Mg129 2.079 . S
O132 C142 1.264 . S
O133 Mg129 2.072 . S
O133 C143 1.260 . S
Mg134 O135 2.180 . S
Mg134 O136 2.030 . S
Mg134 O137 1.990 . S
Mg134 O138 2.117 . S
O135 Mg129 2.099 . S
O135 Mg134 2.180 . S
O135 C144 1.279 . S
O136 Mg134 2.030 . S
O136 C142 1.248 . S
O137 Mg134 1.990 . S
O137 C143 1.253 . S
O138 Mg134 2.117 . S
O138 C144 1.250 . S
C139 O145 1.248 1_556 S
C139 O146 1.264 . S
C140 O126 1.253 . S
C140 O128 1.260 . S
C141 O130 1.279 . S
C141 O131 1.250 1_556 S
C142 O132 1.264 . S
C142 O136 1.248 . S
C143 O133 1.260 . S
C143 O137 1.253 . S
C144 O135 1.279 . S
C144 O138 1.250 . S
O145 Mg127 2.030 . S
O145 C139 1.248 1_554 S
O146 Mg129 2.079 . S
O146 C139 1.264 . S
O147 Mg148 1.990 . S
O147 C161 1.253 . S
Mg148 O147 1.990 . S
Mg148 O151 2.180 1_554 S
Mg148 O152 2.117 . S
Mg148 O166 2.030 . S
O149 Mg150 2.072 1_554 S
O149 C161 1.260 . S
Mg150 O149 2.072 1_556 S
Mg150 O151 2.099 . S
Mg150 O153 2.079 . S
Mg150 O154 2.072 . S
Mg150 O156 2.099 . S
Mg150 O167 2.079 . S
O151 Mg148 2.180 1_556 S
O151 Mg150 2.099 . S
O151 C162 1.279 . S
O152 Mg148 2.117 . S
O152 C162 1.250 1_554 S
O153 Mg150 2.079 . S
O153 C163 1.264 . S
O154 Mg150 2.072 . S
O154 C164 1.260 . S
Mg155 O156 2.180 . S
Mg155 O157 2.030 . S
Mg155 O158 1.990 . S
Mg155 O159 2.117 . S
O156 Mg150 2.099 . S
O156 Mg155 2.180 . S
O156 C165 1.279 . S
O157 Mg155 2.030 . S
O157 C163 1.248 . S
O158 Mg155 1.990 . S
O158 C164 1.253 . S
O159 Mg155 2.117 . S
O159 C165 1.250 . S
C160 O166 1.248 1_556 S
C160 O167 1.264 . S
C161 O147 1.253 . S
C161 O149 1.260 . S
C162 O151 1.279 . S
C162 O152 1.250 1_556 S
C163 O153 1.264 . S
C163 O157 1.248 . S
C164 O154 1.260 . S
C164 O158 1.253 . S
C165 O156 1.279 . S
C165 O159 1.250 . S
O166 Mg148 2.030 . S
O166 C160 1.248 1_554 S
O167 Mg150 2.079 . S
O167 C160 1.264 . S
H168 C180 0.930 . S
H169 C182 0.930 . S
H170 C183 0.930 . S
H171 C187 0.959 . S
H172 C187 0.959 . S
H173 C187 0.961 . S
H174 C188 0.960 . S
H175 C188 0.961 . S
H176 C188 0.959 . S
H177 C191 0.929 . S
H178 C192 0.931 . S
H179 C194 0.930 . S
C180 H168 0.930 . S
C180 C181 1.399 . S
C180 C185 1.399 . S
C181 C180 1.399 . S
C181 C182 1.376 . S
C182 H169 0.930 . S
C182 C181 1.376 . S
C182 C183 1.388 . S
C183 H170 0.930 . S
C183 C182 1.388 . S
C183 C184 1.390 . S
C184 C183 1.390 . S
C184 C185 1.394 . S
C184 C190 1.465 . S
C185 C180 1.399 . S
C185 C184 1.394 . S
C185 C186 1.516 . S
C186 C185 1.516 . S
C186 C187 1.502 . S
C186 C188 1.561 . S
C186 C189 1.526 . S
C187 H171 0.959 . S
C187 H172 0.959 . S
C187 H173 0.961 . S
C187 C186 1.502 . S
C188 H174 0.960 . S
C188 H175 0.961 . S
C188 H176 0.959 . S
C188 C186 1.561 . S
C189 C186 1.526 . S
C189 C190 1.396 . S
C189 C194 1.390 . S
C190 C184 1.465 . S
C190 C189 1.396 . S
C190 C191 1.399 . S
C191 H177 0.929 . S
C191 C190 1.399 . S
C191 C192 1.385 . S
C192 H178 0.931 . S
C192 C191 1.385 . S
C192 C193 1.389 . S
C193 C192 1.389 . S
C193 C194 1.387 . S
C194 H179 0.930 . S
C194 C189 1.390 . S
C194 C193 1.387 . S
H195 C207 0.930 . S
H196 C209 0.930 . S
H197 C210 0.930 . S
H198 C214 0.959 . S
H199 C214 0.959 . S
H200 C214 0.961 . S
H201 C215 0.960 . S
H202 C215 0.961 . S
H203 C215 0.959 . S
H204 C218 0.929 . S
H205 C219 0.931 . S
H206 C221 0.930 . S
C207 H195 0.930 . S
C207 C208 1.399 . S
C207 C212 1.399 . S
C208 C207 1.399 . S
C208 C209 1.376 . S
C209 H196 0.930 . S
C209 C208 1.376 . S
C209 C210 1.388 . S
C210 H197 0.930 . S
C210 C209 1.388 . S
C210 C211 1.390 . S
C211 C210 1.390 . S
C211 C212 1.394 . S
C211 C217 1.465 . S
C212 C207 1.399 . S
C212 C211 1.394 . S
C212 C213 1.516 . S
C213 C212 1.516 . S
C213 C214 1.502 . S
C213 C215 1.561 . S
C213 C216 1.526 . S
C214 H198 0.959 . S
C214 H199 0.959 . S
C214 H200 0.961 . S
C214 C213 1.502 . S
C215 H201 0.960 . S
C215 H202 0.961 . S
C215 H203 0.959 . S
C215 C213 1.561 . S
C216 C213 1.526 . S
C216 C217 1.396 . S
C216 C221 1.390 . S
C217 C211 1.465 . S
C217 C216 1.396 . S
C217 C218 1.399 . S
C218 H204 0.929 . S
C218 C217 1.399 . S
C218 C219 1.385 . S
C219 H205 0.931 . S
C219 C218 1.385 . S
C219 C220 1.389 . S
C220 C219 1.389 . S
C220 C221 1.387 . S
C221 H206 0.930 . S
C221 C216 1.390 . S
C221 C220 1.387 . S
H222 C234 0.930 . S
H223 C236 0.930 . S
H224 C237 0.930 . S
H225 C241 0.959 . S
H226 C241 0.959 . S
H227 C241 0.961 . S
H228 C242 0.960 . S
H229 C242 0.961 . S
H230 C242 0.959 . S
H231 C245 0.929 . S
H232 C246 0.931 . S
H233 C248 0.930 . S
C234 H222 0.930 . S
C234 C235 1.399 . S
C234 C239 1.399 . S
C235 C234 1.399 . S
C235 C236 1.376 . S
C236 H223 0.930 . S
C236 C235 1.376 . S
C236 C237 1.388 . S
C237 H224 0.930 . S
C237 C236 1.388 . S
C237 C238 1.390 . S
C238 C237 1.390 . S
C238 C239 1.394 . S
C238 C244 1.465 . S
C239 C234 1.399 . S
C239 C238 1.394 . S
C239 C240 1.516 . S
C240 C239 1.516 . S
C240 C241 1.502 . S
C240 C242 1.561 . S
C240 C243 1.526 . S
C241 H225 0.959 . S
C241 H226 0.959 . S
C241 H227 0.961 . S
C241 C240 1.502 . S
C242 H228 0.960 . S
C242 H229 0.961 . S
C242 H230 0.959 . S
C242 C240 1.561 . S
C243 C240 1.526 . S
C243 C244 1.396 . S
C243 C248 1.390 . S
C244 C238 1.465 . S
C244 C243 1.396 . S
C244 C245 1.399 . S
C245 H231 0.929 . S
C245 C244 1.399 . S
C245 C246 1.385 . S
C246 H232 0.931 . S
C246 C245 1.385 . S
C246 C247 1.389 . S
C247 C246 1.389 . S
C247 C248 1.387 . S
C248 H233 0.930 . S
C248 C243 1.390 . S
C248 C247 1.387 . S
H249 C261 0.930 . S
H250 C263 0.930 . S
H251 C264 0.930 . S
H252 C268 0.959 . S
H253 C268 0.959 . S
H254 C268 0.961 . S
H255 C269 0.960 . S
H256 C269 0.961 . S
H257 C269 0.959 . S
H258 C272 0.929 . S
H259 C273 0.931 . S
H260 C275 0.930 . S
C261 H249 0.930 . S
C261 C262 1.399 . S
C261 C266 1.399 . S
C262 C261 1.399 . S
C262 C263 1.376 . S
C263 H250 0.930 . S
C263 C262 1.376 . S
C263 C264 1.388 . S
C264 H251 0.930 . S
C264 C263 1.388 . S
C264 C265 1.390 . S
C265 C264 1.390 . S
C265 C266 1.394 . S
C265 C271 1.465 . S
C266 C261 1.399 . S
C266 C265 1.394 . S
C266 C267 1.516 . S
C267 C266 1.516 . S
C267 C268 1.502 . S
C267 C269 1.561 . S
C267 C270 1.526 . S
C268 H252 0.959 . S
C268 H253 0.959 . S
C268 H254 0.961 . S
C268 C267 1.502 . S
C269 H255 0.960 . S
C269 H256 0.961 . S
C269 H257 0.959 . S
C269 C267 1.561 . S
C270 C267 1.526 . S
C270 C271 1.396 . S
C270 C275 1.390 . S
C271 C265 1.465 . S
C271 C270 1.396 . S
C271 C272 1.399 . S
C272 H258 0.929 . S
C272 C271 1.399 . S
C272 C273 1.385 . S
C273 H259 0.931 . S
C273 C272 1.385 . S
C273 C274 1.389 . S
C274 C273 1.389 . S
C274 C275 1.387 . S
C275 H260 0.930 . S
C275 C270 1.390 . S
C275 C274 1.387 . S
H276 C288 0.930 . S
H277 C290 0.930 . S
H278 C291 0.930 . S
H279 C295 0.959 . S
H280 C295 0.959 1_545 S
H281 C295 0.961 . S
H282 C296 0.960 . S
H283 C296 0.961 1_545 S
H284 C296 0.959 . S
H285 C299 0.929 . S
H286 C300 0.931 . S
H287 C302 0.930 . S
C288 H276 0.930 . S
C288 C289 1.399 . S
C288 C293 1.399 . S
C289 C288 1.399 . S
C289 C290 1.376 . S
C290 H277 0.930 . S
C290 C289 1.376 . S
C290 C291 1.388 . S
C291 H278 0.930 . S
C291 C290 1.388 . S
C291 C292 1.390 . S
C292 C291 1.390 . S
C292 C293 1.394 . S
C292 C298 1.465 1_565 S
C293 C288 1.399 . S
C293 C292 1.394 . S
C293 C294 1.516 . S
C294 C293 1.516 . S
C294 C295 1.502 . S
C294 C296 1.561 . S
C294 C297 1.526 1_565 S
C295 H279 0.959 . S
C295 H280 0.959 1_565 S
C295 H281 0.961 . S
C295 C294 1.502 . S
C296 H282 0.960 . S
C296 H283 0.961 1_565 S
C296 H284 0.959 . S
C296 C294 1.561 . S
C297 C294 1.526 1_545 S
C297 C298 1.396 . S
C297 C302 1.390 . S
C298 C292 1.465 1_545 S
C298 C297 1.396 . S
C298 C299 1.399 . S
C299 H285 0.929 . S
C299 C298 1.399 . S
C299 C300 1.385 . S
C300 H286 0.931 . S
C300 C299 1.385 . S
C300 C301 1.389 . S
C301 C300 1.389 . S
C301 C302 1.387 . S
C302 H287 0.930 . S
C302 C297 1.390 . S
C302 C301 1.387 . S
H303 C315 0.930 . S
H304 C317 0.930 . S
H305 C318 0.930 . S
H306 C322 0.959 . S
H307 C322 0.959 . S
H308 C322 0.961 . S
H309 C323 0.960 . S
H310 C323 0.961 . S
H311 C323 0.959 . S
H312 C326 0.929 . S
H313 C327 0.931 . S
H314 C329 0.930 . S
C315 H303 0.930 . S
C315 C316 1.399 . S
C315 C320 1.399 . S
C316 C315 1.399 . S
C316 C317 1.376 . S
C317 H304 0.930 . S
C317 C316 1.376 . S
C317 C318 1.388 . S
C318 H305 0.930 . S
C318 C317 1.388 . S
C318 C319 1.390 . S
C319 C318 1.390 . S
C319 C320 1.394 . S
C319 C325 1.465 . S
C320 C315 1.399 . S
C320 C319 1.394 . S
C320 C321 1.516 . S
C321 C320 1.516 . S
C321 C322 1.502 . S
C321 C323 1.561 . S
C321 C324 1.526 . S
C322 H306 0.959 . S
C322 H307 0.959 . S
C322 H308 0.961 . S
C322 C321 1.502 . S
C323 H309 0.960 . S
C323 H310 0.961 . S
C323 H311 0.959 . S
C323 C321 1.561 . S
C324 C321 1.526 . S
C324 C325 1.396 . S
C324 C329 1.390 . S
C325 C319 1.465 . S
C325 C324 1.396 . S
C325 C326 1.399 . S
C326 H312 0.929 . S
C326 C325 1.399 . S
C326 C327 1.385 . S
C327 H313 0.931 . S
C327 C326 1.385 . S
C327 C328 1.389 . S
C328 C327 1.389 . S
C328 C329 1.387 . S
C329 H314 0.930 . S
C329 C324 1.390 . S
C329 C328 1.387 . S
H330 C342 0.930 . S
H331 C344 0.930 . S
H332 C345 0.930 . S
H333 C349 0.959 . S
H334 C349 0.959 1_545 S
H335 C349 0.961 . S
H336 C350 0.960 . S
H337 C350 0.961 . S
H338 C350 0.959 . S
H339 C353 0.929 . S
H340 C354 0.931 . S
H341 C356 0.930 . S
C342 H330 0.930 . S
C342 C343 1.399 . S
C342 C347 1.399 . S
C343 C342 1.399 . S
C343 C344 1.376 . S
C344 H331 0.930 . S
C344 C343 1.376 . S
C344 C345 1.388 . S
C345 H332 0.930 . S
C345 C344 1.388 . S
C345 C346 1.390 . S
C346 C345 1.390 . S
C346 C347 1.394 . S
C346 C352 1.465 1_565 S
C347 C342 1.399 . S
C347 C346 1.394 . S
C347 C348 1.516 . S
C348 C347 1.516 . S
C348 C349 1.502 . S
C348 C350 1.561 . S
C348 C351 1.526 1_565 S
C349 H333 0.959 . S
C349 H334 0.959 1_565 S
C349 H335 0.961 . S
C349 C348 1.502 . S
C350 H336 0.960 . S
C350 H337 0.961 . S
C350 H338 0.959 . S
C350 C348 1.561 . S
C351 C348 1.526 1_545 S
C351 C352 1.396 . S
C351 C356 1.390 . S
C352 C346 1.465 1_545 S
C352 C351 1.396 . S
C352 C353 1.399 . S
C353 H339 0.929 . S
C353 C352 1.399 . S
C353 C354 1.385 . S
C354 H340 0.931 . S
C354 C353 1.385 . S
C354 C355 1.389 . S
C355 C354 1.389 . S
C355 C356 1.387 . S
C356 H341 0.930 . S
C356 C351 1.390 . S
C356 C355 1.387 . S
H357 C369 0.930 . S
H358 C371 0.930 . S
H359 C372 0.930 . S
H360 C376 0.959 . S
H361 C376 0.959 . S
H362 C376 0.961 . S
H363 C377 0.960 . S
H364 C377 0.961 . S
H365 C377 0.959 . S
H366 C380 0.929 . S
H367 C381 0.931 . S
H368 C383 0.930 . S
C369 H357 0.930 . S
C369 C370 1.399 . S
C369 C374 1.399 . S
C370 C369 1.399 . S
C370 C371 1.376 . S
C371 H358 0.930 . S
C371 C370 1.376 . S
C371 C372 1.388 . S
C372 H359 0.930 . S
C372 C371 1.388 . S
C372 C373 1.390 . S
C373 C372 1.390 . S
C373 C374 1.394 . S
C373 C379 1.465 . S
C374 C369 1.399 . S
C374 C373 1.394 . S
C374 C375 1.516 . S
C375 C374 1.516 . S
C375 C376 1.502 . S
C375 C377 1.561 . S
C375 C378 1.526 . S
C376 H360 0.959 . S
C376 H361 0.959 . S
C376 H362 0.961 . S
C376 C375 1.502 . S
C377 H363 0.960 . S
C377 H364 0.961 . S
C377 H365 0.959 . S
C377 C375 1.561 . S
C378 C375 1.526 . S
C378 C379 1.396 . S
C378 C383 1.390 . S
C379 C373 1.465 . S
C379 C378 1.396 . S
C379 C380 1.399 . S
C380 H366 0.929 . S
C380 C379 1.399 . S
C380 C381 1.385 . S
C381 H367 0.931 . S
C381 C380 1.385 . S
C381 C382 1.389 . S
C382 C381 1.389 . S
C382 C383 1.387 . S
C383 H368 0.930 . S
C383 C378 1.390 . S
C383 C382 1.387 . S
H384 C396 0.930 . S
H385 C398 0.930 . S
H386 C399 0.930 . S
H387 C403 0.959 . S
H388 C403 0.959 . S
H389 C403 0.961 . S
H390 C404 0.960 . S
H391 C404 0.961 . S
H392 C404 0.959 . S
H393 C407 0.929 . S
H394 C408 0.931 . S
H395 C410 0.930 . S
C396 H384 0.930 . S
C396 C397 1.399 . S
C396 C401 1.399 . S
C397 C396 1.399 . S
C397 C398 1.376 1_554 S
C398 H385 0.930 . S
C398 C397 1.376 1_556 S
C398 C399 1.388 . S
C399 H386 0.930 . S
C399 C398 1.388 . S
C399 C400 1.390 . S
C400 C399 1.390 . S
C400 C401 1.394 1_556 S
C400 C406 1.465 . S
C401 C396 1.399 . S
C401 C400 1.394 1_554 S
C401 C402 1.516 . S
C402 C401 1.516 . S
C402 C403 1.502 . S
C402 C404 1.561 . S
C402 C405 1.526 . S
C403 H387 0.959 . S
C403 H388 0.959 . S
C403 H389 0.961 . S
C403 C402 1.502 . S
C404 H390 0.960 . S
C404 H391 0.961 . S
C404 H392 0.959 . S
C404 C402 1.561 . S
C405 C402 1.526 . S
C405 C406 1.396 1_554 S
C405 C410 1.390 . S
C406 C400 1.465 . S
C406 C405 1.396 1_556 S
C406 C407 1.399 . S
C407 H393 0.929 . S
C407 C406 1.399 . S
C407 C408 1.385 . S
C408 H394 0.931 . S
C408 C407 1.385 . S
C408 C409 1.389 . S
C409 C408 1.389 . S
C409 C410 1.387 1_556 S
C410 H395 0.930 . S
C410 C405 1.390 . S
C410 C409 1.387 1_554 S
H411 C423 0.930 . S
H412 C425 0.930 . S
H413 C426 0.930 . S
H414 C430 0.959 . S
H415 C430 0.959 1_545 S
H416 C430 0.961 . S
H417 C431 0.960 . S
H418 C431 0.961 1_545 S
H419 C431 0.959 . S
H420 C434 0.929 . S
H421 C435 0.931 . S
H422 C437 0.930 . S
C423 H411 0.930 . S
C423 C424 1.399 1_556 S
C423 C428 1.399 . S
C424 C423 1.399 1_554 S
C424 C425 1.376 . S
C425 H412 0.930 . S
C425 C424 1.376 . S
C425 C426 1.388 . S
C426 H413 0.930 . S
C426 C425 1.388 . S
C426 C427 1.390 . S
C427 C426 1.390 . S
C427 C428 1.394 1_554 S
C427 C433 1.465 1_565 S
C428 C423 1.399 . S
C428 C427 1.394 1_556 S
C428 C429 1.516 . S
C429 C428 1.516 . S
C429 C430 1.502 . S
C429 C431 1.561 . S
C429 C432 1.526 1_565 S
C430 H414 0.959 . S
C430 H415 0.959 1_565 S
C430 H416 0.961 . S
C430 C429 1.502 . S
C431 H417 0.960 . S
C431 H418 0.961 1_565 S
C431 H419 0.959 . S
C431 C429 1.561 . S
C432 C429 1.526 1_545 S
C432 C433 1.396 1_556 S
C432 C437 1.390 . S
C433 C427 1.465 1_545 S
C433 C432 1.396 1_554 S
C433 C434 1.399 . S
C434 H420 0.929 . S
C434 C433 1.399 . S
C434 C435 1.385 . S
C435 H421 0.931 . S
C435 C434 1.385 . S
C435 C436 1.389 1_554 S
C436 C435 1.389 1_556 S
C436 C437 1.387 . S
C437 H422 0.930 . S
C437 C432 1.390 . S
C437 C436 1.387 . S
H438 C450 0.930 . S
H439 C452 0.930 . S
H440 C453 0.930 . S
H441 C457 0.959 . S
H442 C457 0.959 . S
H443 C457 0.961 . S
H444 C458 0.960 . S
H445 C458 0.961 . S
H446 C458 0.959 . S
H447 C461 0.929 . S
H448 C462 0.931 . S
H449 C464 0.930 . S
C450 H438 0.930 . S
C450 C451 1.399 1_554 S
C450 C455 1.399 . S
C451 C450 1.399 1_556 S
C451 C452 1.376 . S
C452 H439 0.930 . S
C452 C451 1.376 . S
C452 C453 1.388 . S
C453 H440 0.930 . S
C453 C452 1.388 . S
C453 C454 1.390 . S
C454 C453 1.390 . S
C454 C455 1.394 1_556 S
C454 C460 1.465 . S
C455 C450 1.399 . S
C455 C454 1.394 1_554 S
C455 C456 1.516 . S
C456 C455 1.516 . S
C456 C457 1.502 . S
C456 C458 1.561 . S
C456 C459 1.526 . S
C457 H441 0.959 . S
C457 H442 0.959 . S
C457 H443 0.961 . S
C457 C456 1.502 . S
C458 H444 0.960 . S
C458 H445 0.961 . S
C458 H446 0.959 . S
C458 C456 1.561 . S
C459 C456 1.526 . S
C459 C460 1.396 1_554 S
C459 C464 1.390 . S
C460 C454 1.465 . S
C460 C459 1.396 1_556 S
C460 C461 1.399 . S
C461 H447 0.929 . S
C461 C460 1.399 . S
C461 C462 1.385 . S
C462 H448 0.931 . S
C462 C461 1.385 . S
C462 C463 1.389 1_556 S
C463 C462 1.389 1_554 S
C463 C464 1.387 . S
C464 H449 0.930 . S
C464 C459 1.390 . S
C464 C463 1.387 . S
H465 C477 0.930 1_554 S
H466 C479 0.930 . S
H467 C480 0.930 . S
H468 C484 0.959 1_566 S
H469 C484 0.959 1_565 S
H470 C484 0.961 . S
H471 C485 0.960 . S
H472 C485 0.961 . S
H473 C485 0.959 . S
H474 C488 0.929 . S
H475 C489 0.931 . S
H476 C491 0.930 . S
C477 H465 0.930 1_556 S
C477 C478 1.399 . S
C477 C482 1.399 1_556 S
C478 C477 1.399 . S
C478 C479 1.376 . S
C479 H466 0.930 . S
C479 C478 1.376 . S
C479 C480 1.388 . S
C480 H467 0.930 . S
C480 C479 1.388 . S
C480 C481 1.390 . S
C481 C480 1.390 . S
C481 C482 1.394 1_556 S
C481 C487 1.465 1_545 S
C482 C477 1.399 1_554 S
C482 C481 1.394 1_554 S
C482 C483 1.516 . S
C483 C482 1.516 . S
C483 C484 1.502 . S
C483 C485 1.561 . S
C483 C486 1.526 1_545 S
C484 H468 0.959 1_544 S
C484 H469 0.959 1_545 S
C484 H470 0.961 . S
C484 C483 1.502 . S
C485 H471 0.960 . S
C485 H472 0.961 . S
C485 H473 0.959 . S
C485 C483 1.561 . S
C486 C483 1.526 1_565 S
C486 C487 1.396 1_554 S
C486 C491 1.390 . S
C487 C481 1.465 1_565 S
C487 C486 1.396 1_556 S
C487 C488 1.399 . S
C488 H474 0.929 . S
C488 C487 1.399 . S
C488 C489 1.385 . S
C489 H475 0.931 . S
C489 C488 1.385 . S
C489 C490 1.389 1_556 S
C490 C489 1.389 1_554 S
C490 C491 1.387 . S
C491 H476 0.930 . S
C491 C486 1.390 . S
C491 C490 1.387 . S
H492 C504 0.930 . S
H493 C506 0.930 . S
H494 C507 0.930 . S
H495 C511 0.959 . S
H496 C511 0.959 . S
H497 C511 0.961 . S
H498 C512 0.960 . S
H499 C512 0.961 . S
H500 C512 0.959 . S
H501 C515 0.929 . S
H502 C516 0.931 . S
H503 C518 0.930 . S
C504 H492 0.930 . S
C504 C505 1.399 . S
C504 C509 1.399 . S
C505 C504 1.399 . S
C505 C506 1.376 . S
C506 H493 0.930 . S
C506 C505 1.376 . S
C506 C507 1.388 . S
C507 H494 0.930 . S
C507 C506 1.388 . S
C507 C508 1.390 . S
C508 C507 1.390 . S
C508 C509 1.394 . S
C508 C514 1.465 . S
C509 C504 1.399 . S
C509 C508 1.394 . S
C509 C510 1.516 . S
C510 C509 1.516 . S
C510 C511 1.502 . S
C510 C512 1.561 . S
C510 C513 1.526 1_554 S
C511 H495 0.959 . S
C511 H496 0.959 . S
C511 H497 0.961 . S
C511 C510 1.502 . S
C512 H498 0.960 . S
C512 H499 0.961 . S
C512 H500 0.959 . S
C512 C510 1.561 . S
C513 C510 1.526 1_556 S
C513 C514 1.396 1_556 S
C513 C518 1.390 . S
C514 C508 1.465 . S
C514 C513 1.396 1_554 S
C514 C515 1.399 1_554 S
C515 H501 0.929 . S
C515 C514 1.399 1_556 S
C515 C516 1.385 . S
C516 H502 0.931 . S
C516 C515 1.385 . S
C516 C517 1.389 . S
C517 C516 1.389 . S
C517 C518 1.387 . S
C518 H503 0.930 . S
C518 C513 1.390 . S
C518 C517 1.387 . S
H519 C531 0.930 . S
H520 C533 0.930 . S
H521 C534 0.930 . S
H522 C538 0.959 . S
H523 C538 0.959 . S
H524 C538 0.961 . S
H525 C539 0.960 . S
H526 C539 0.961 . S
H527 C539 0.959 . S
H528 C542 0.929 . S
H529 C543 0.931 . S
H530 C545 0.930 . S
C531 H519 0.930 . S
C531 C532 1.399 . S
C531 C536 1.399 . S
C532 C531 1.399 . S
C532 C533 1.376 . S
C533 H520 0.930 . S
C533 C532 1.376 . S
C533 C534 1.388 . S
C534 H521 0.930 . S
C534 C533 1.388 . S
C534 C535 1.390 . S
C535 C534 1.390 . S
C535 C536 1.394 . S
C535 C541 1.465 . S
C536 C531 1.399 . S
C536 C535 1.394 . S
C536 C537 1.516 . S
C537 C536 1.516 . S
C537 C538 1.502 . S
C537 C539 1.561 . S
C537 C540 1.526 1_554 S
C538 H522 0.959 . S
C538 H523 0.959 . S
C538 H524 0.961 . S
C538 C537 1.502 . S
C539 H525 0.960 . S
C539 H526 0.961 . S
C539 H527 0.959 . S
C539 C537 1.561 . S
C540 C537 1.526 1_556 S
C540 C541 1.396 1_556 S
C540 C545 1.390 . S
C541 C535 1.465 . S
C541 C540 1.396 1_554 S
C541 C542 1.399 1_554 S
C542 H528 0.929 . S
C542 C541 1.399 1_556 S
C542 C543 1.385 . S
C543 H529 0.931 . S
C543 C542 1.385 . S
C543 C544 1.389 . S
C544 C543 1.389 . S
C544 C545 1.387 . S
C545 H530 0.930 . S
C545 C540 1.390 . S
C545 C544 1.387 . S
H546 C558 0.930 . S
H547 C560 0.930 . S
H548 C561 0.930 . S
H549 C565 0.959 . S
H550 C565 0.959 . S
H551 C565 0.961 . S
H552 C566 0.960 . S
H553 C566 0.961 . S
H554 C566 0.959 . S
H555 C569 0.929 . S
H556 C570 0.931 . S
H557 C572 0.930 . S
C558 H546 0.930 . S
C558 C559 1.399 . S
C558 C563 1.399 . S
C559 C558 1.399 . S
C559 C560 1.376 . S
C560 H547 0.930 . S
C560 C559 1.376 . S
C560 C561 1.388 . S
C561 H548 0.930 . S
C561 C560 1.388 . S
C561 C562 1.390 1_554 S
C562 C561 1.390 1_556 S
C562 C563 1.394 1_556 S
C562 C568 1.465 . S
C563 C558 1.399 . S
C563 C562 1.394 1_554 S
C563 C564 1.516 1_554 S
C564 C563 1.516 1_556 S
C564 C565 1.502 . S
C564 C566 1.561 . S
C564 C567 1.526 . S
C565 H549 0.959 . S
C565 H550 0.959 . S
C565 H551 0.961 . S
C565 C564 1.502 . S
C566 H552 0.960 . S
C566 H553 0.961 . S
C566 H554 0.959 . S
C566 C564 1.561 . S
C567 C564 1.526 . S
C567 C568 1.396 . S
C567 C572 1.390 . S
C568 C562 1.465 . S
C568 C567 1.396 . S
C568 C569 1.399 . S
C569 H555 0.929 . S
C569 C568 1.399 . S
C569 C570 1.385 . S
C570 H556 0.931 . S
C570 C569 1.385 . S
C570 C571 1.389 . S
C571 C570 1.389 . S
C571 C572 1.387 . S
C572 H557 0.930 . S
C572 C567 1.390 . S
C572 C571 1.387 . S
H573 C585 0.930 . S
H574 C587 0.930 . S
H575 C588 0.930 . S
H576 C592 0.959 . S
H577 C592 0.959 . S
H578 C592 0.961 . S
H579 C593 0.960 . S
H580 C593 0.961 . S
H581 C593 0.959 . S
H582 C596 0.929 . S
H583 C597 0.931 . S
H584 C599 0.930 . S
C585 H573 0.930 . S
C585 C586 1.399 . S
C585 C590 1.399 . S
C586 C585 1.399 . S
C586 C587 1.376 . S
C587 H574 0.930 . S
C587 C586 1.376 . S
C587 C588 1.388 . S
C588 H575 0.930 . S
C588 C587 1.388 . S
C588 C589 1.390 . S
C589 C588 1.390 . S
C589 C590 1.394 . S
C589 C595 1.465 . S
C590 C585 1.399 . S
C590 C589 1.394 . S
C590 C591 1.516 . S
C591 C590 1.516 . S
C591 C592 1.502 . S
C591 C593 1.561 . S
C591 C594 1.526 1_556 S
C592 H576 0.959 . S
C592 H577 0.959 . S
C592 H578 0.961 . S
C592 C591 1.502 . S
C593 H579 0.960 . S
C593 H580 0.961 . S
C593 H581 0.959 . S
C593 C591 1.561 . S
C594 C591 1.526 1_554 S
C594 C595 1.396 1_554 S
C594 C599 1.390 . S
C595 C589 1.465 . S
C595 C594 1.396 1_556 S
C595 C596 1.399 1_556 S
C596 H582 0.929 . S
C596 C595 1.399 1_554 S
C596 C597 1.385 . S
C597 H583 0.931 . S
C597 C596 1.385 . S
C597 C598 1.389 . S
C598 C597 1.389 . S
C598 C599 1.387 . S
C599 H584 0.930 . S
C599 C594 1.390 . S
C599 C598 1.387 . S
H600 C612 0.930 . S
H601 C614 0.930 . S
H602 C615 0.930 . S
H603 C619 0.959 . S
H604 C619 0.959 . S
H605 C619 0.961 . S
H606 C620 0.960 . S
H607 C620 0.961 . S
H608 C620 0.959 . S
H609 C623 0.929 . S
H610 C624 0.931 . S
H611 C626 0.930 . S
C612 H600 0.930 . S
C612 C613 1.399 . S
C612 C617 1.399 . S
C613 C612 1.399 . S
C613 C614 1.376 . S
C614 H601 0.930 . S
C614 C613 1.376 . S
C614 C615 1.388 . S
C615 H602 0.930 . S
C615 C614 1.388 . S
C615 C616 1.390 . S
C616 C615 1.390 . S
C616 C617 1.394 . S
C616 C622 1.465 . S
C617 C612 1.399 . S
C617 C616 1.394 . S
C617 C618 1.516 . S
C618 C617 1.516 . S
C618 C619 1.502 . S
C618 C620 1.561 . S
C618 C621 1.526 . S
C619 H603 0.959 . S
C619 H604 0.959 . S
C619 H605 0.961 . S
C619 C618 1.502 . S
C620 H606 0.960 . S
C620 H607 0.961 . S
C620 H608 0.959 . S
C620 C618 1.561 . S
C621 C618 1.526 . S
C621 C622 1.396 . S
C621 C626 1.390 . S
C622 C616 1.465 . S
C622 C621 1.396 . S
C622 C623 1.399 . S
C623 H609 0.929 . S
C623 C622 1.399 . S
C623 C624 1.385 . S
C624 H610 0.931 . S
C624 C623 1.385 . S
C624 C625 1.389 . S
C625 C624 1.389 . S
C625 C626 1.387 . S
C626 H611 0.930 . S
C626 C621 1.390 . S
C626 C625 1.387 . S
H627 C639 0.930 . S
H628 C641 0.930 . S
H629 C642 0.930 . S
H630 C646 0.959 . S
H631 C646 0.959 . S
H632 C646 0.961 . S
H633 C647 0.960 . S
H634 C647 0.961 . S
H635 C647 0.959 . S
H636 C650 0.929 . S
H637 C651 0.931 . S
H638 C653 0.930 . S
C639 H627 0.930 . S
C639 C640 1.399 . S
C639 C644 1.399 . S
C640 C639 1.399 . S
C640 C641 1.376 . S
C641 H628 0.930 . S
C641 C640 1.376 . S
C641 C642 1.388 . S
C642 H629 0.930 . S
C642 C641 1.388 . S
C642 C643 1.390 . S
C643 C642 1.390 . S
C643 C644 1.394 . S
C643 C649 1.465 . S
C644 C639 1.399 . S
C644 C643 1.394 . S
C644 C645 1.516 . S
C645 C644 1.516 . S
C645 C646 1.502 . S
C645 C647 1.561 . S
C645 C648 1.526 . S
C646 H630 0.959 . S
C646 H631 0.959 . S
C646 H632 0.961 . S
C646 C645 1.502 . S
C647 H633 0.960 . S
C647 H634 0.961 . S
C647 H635 0.959 . S
C647 C645 1.561 . S
C648 C645 1.526 . S
C648 C649 1.396 . S
C648 C653 1.390 . S
C649 C643 1.465 . S
C649 C648 1.396 . S
C649 C650 1.399 . S
C650 H636 0.929 . S
C650 C649 1.399 . S
C650 C651 1.385 . S
C651 H637 0.931 . S
C651 C650 1.385 . S
C651 C652 1.389 . S
C652 C651 1.389 . S
C652 C653 1.387 . S
C653 H638 0.930 . S
C653 C648 1.390 . S
C653 C652 1.387 . S
H654 C666 0.930 . S
H655 C668 0.930 . S
H656 C669 0.930 . S
H657 C673 0.959 . S
H658 C673 0.959 . S
H659 C673 0.961 . S
H660 C674 0.960 . S
H661 C674 0.961 . S
H662 C674 0.959 . S
H663 C677 0.929 . S
H664 C678 0.931 . S
H665 C680 0.930 . S
C666 H654 0.930 . S
C666 C667 1.399 . S
C666 C671 1.399 . S
C667 C666 1.399 . S
C667 C668 1.376 . S
C668 H655 0.930 . S
C668 C667 1.376 . S
C668 C669 1.388 . S
C669 H656 0.930 . S
C669 C668 1.388 . S
C669 C670 1.390 . S
C670 C669 1.390 . S
C670 C671 1.394 . S
C670 C676 1.465 . S
C671 C666 1.399 . S
C671 C670 1.394 . S
C671 C672 1.516 . S
C672 C671 1.516 . S
C672 C673 1.502 . S
C672 C674 1.561 . S
C672 C675 1.526 . S
C673 H657 0.959 . S
C673 H658 0.959 . S
C673 H659 0.961 . S
C673 C672 1.502 . S
C674 H660 0.960 . S
C674 H661 0.961 . S
C674 H662 0.959 . S
C674 C672 1.561 . S
C675 C672 1.526 . S
C675 C676 1.396 . S
C675 C680 1.390 . S
C676 C670 1.465 . S
C676 C675 1.396 . S
C676 C677 1.399 . S
C677 H663 0.929 . S
C677 C676 1.399 . S
C677 C678 1.385 . S
C678 H664 0.931 . S
C678 C677 1.385 . S
C678 C679 1.389 . S
C679 C678 1.389 . S
C679 C680 1.387 . S
C680 H665 0.930 . S
C680 C675 1.390 . S
C680 C679 1.387 . S
H681 C693 0.930 . S
H682 C695 0.930 . S
H683 C696 0.930 . S
H684 C700 0.959 . S
H685 C700 0.959 . S
H686 C700 0.961 . S
H687 C701 0.960 . S
H688 C701 0.961 . S
H689 C701 0.959 . S
H690 C704 0.929 . S
H691 C705 0.931 . S
H692 C707 0.930 . S
C693 H681 0.930 . S
C693 C694 1.399 . S
C693 C698 1.399 . S
C694 C693 1.399 . S
C694 C695 1.376 . S
C695 H682 0.930 . S
C695 C694 1.376 . S
C695 C696 1.388 . S
C696 H683 0.930 . S
C696 C695 1.388 . S
C696 C697 1.390 . S
C697 C696 1.390 . S
C697 C698 1.394 . S
C697 C703 1.465 . S
C698 C693 1.399 . S
C698 C697 1.394 . S
C698 C699 1.516 . S
C699 C698 1.516 . S
C699 C700 1.502 . S
C699 C701 1.561 . S
C699 C702 1.526 . S
C700 H684 0.959 . S
C700 H685 0.959 . S
C700 H686 0.961 . S
C700 C699 1.502 . S
C701 H687 0.960 . S
C701 H688 0.961 . S
C701 H689 0.959 . S
C701 C699 1.561 . S
C702 C699 1.526 . S
C702 C703 1.396 . S
C702 C707 1.390 . S
C703 C697 1.465 . S
C703 C702 1.396 . S
C703 C704 1.399 . S
C704 H690 0.929 . S
C704 C703 1.399 . S
C704 C705 1.385 . S
C705 H691 0.931 . S
C705 C704 1.385 . S
C705 C706 1.389 . S
C706 C705 1.389 . S
C706 C707 1.387 . S
C707 H692 0.930 . S
C707 C702 1.390 . S
C707 C706 1.387 . S
H708 C720 0.930 . S
H709 C722 0.930 . S
H710 C723 0.930 . S
H711 C727 0.960 . S
H712 C727 0.965 . S
H713 C727 0.954 1_455 S
H714 C728 0.963 . S
H715 C728 0.958 1_655 S
H716 C728 0.959 1_655 S
H717 C731 0.929 . S
H718 C732 0.931 . S
H719 C734 0.930 . S
C720 H708 0.930 . S
C720 C721 1.399 . S
C720 C725 1.399 . S
C721 C720 1.399 . S
C721 C722 1.376 . S
C722 H709 0.930 . S
C722 C721 1.376 . S
C722 C723 1.388 . S
C723 H710 0.930 . S
C723 C722 1.388 . S
C723 C724 1.390 . S
C724 C723 1.390 . S
C724 C725 1.394 . S
C724 C730 1.465 1_455 S
C725 C720 1.399 . S
C725 C724 1.394 . S
C725 C726 1.517 . S
C726 C725 1.517 . S
C726 C727 1.502 1_455 S
C726 C728 1.561 . S
C726 C729 1.525 1_455 S
C727 H711 0.960 . S
C727 H712 0.965 . S
C727 H713 0.954 1_655 S
C727 C726 1.502 1_655 S
C728 H714 0.963 . S
C728 H715 0.958 1_455 S
C728 H716 0.959 1_455 S
C728 C726 1.561 . S
C729 C726 1.525 1_655 S
C729 C730 1.396 . S
C729 C734 1.390 . S
C730 C724 1.465 1_655 S
C730 C729 1.396 . S
C730 C731 1.399 . S
C731 H717 0.929 . S
C731 C730 1.399 . S
C731 C732 1.385 . S
C732 H718 0.931 . S
C732 C731 1.385 . S
C732 C733 1.389 . S
C733 C732 1.389 . S
C733 C734 1.387 . S
C734 H719 0.930 . S
C734 C729 1.390 . S
C734 C733 1.387 . S
H735 C747 0.930 . S
H736 C749 0.930 . S
H737 C750 0.930 . S
H738 C754 0.960 . S
H739 C754 0.964 . S
H740 C754 0.955 1_655 S
H741 C755 0.963 1_655 S
H742 C755 0.959 . S
H743 C755 0.959 . S
H744 C758 0.929 . S
H745 C759 0.931 . S
H746 C761 0.930 . S
C747 H735 0.930 . S
C747 C748 1.399 . S
C747 C752 1.399 . S
C748 C747 1.399 . S
C748 C749 1.376 . S
C749 H736 0.930 . S
C749 C748 1.376 . S
C749 C750 1.388 . S
C750 H737 0.930 . S
C750 C749 1.388 . S
C750 C751 1.390 . S
C751 C750 1.390 . S
C751 C752 1.394 . S
C751 C757 1.465 1_655 S
C752 C747 1.399 . S
C752 C751 1.394 . S
C752 C753 1.514 . S
C753 C752 1.514 . S
C753 C754 1.502 1_655 S
C753 C755 1.561 1_655 S
C753 C756 1.528 1_655 S
C754 H738 0.960 . S
C754 H739 0.964 . S
C754 H740 0.955 1_455 S
C754 C753 1.502 1_455 S
C755 H741 0.963 1_455 S
C755 H742 0.959 . S
C755 H743 0.959 . S
C755 C753 1.561 1_455 S
C756 C753 1.528 1_455 S
C756 C757 1.396 . S
C756 C761 1.390 . S
C757 C751 1.465 1_455 S
C757 C756 1.396 . S
C757 C758 1.399 . S
C758 H744 0.929 . S
C758 C757 1.399 . S
C758 C759 1.385 . S
C759 H745 0.931 . S
C759 C758 1.385 . S
C759 C760 1.389 . S
C760 C759 1.389 . S
C760 C761 1.387 . S
C761 H746 0.930 . S
C761 C756 1.390 . S
C761 C760 1.387 . S
H762 C774 0.930 . S
H763 C776 0.930 . S
H764 C777 0.930 . S
H765 C781 0.959 . S
H766 C781 0.959 . S
H767 C781 0.961 . S
H768 C782 0.960 . S
H769 C782 0.961 . S
H770 C782 0.959 . S
H771 C785 0.929 . S
H772 C786 0.931 . S
H773 C788 0.930 . S
C774 H762 0.930 . S
C774 C775 1.399 1_556 S
C774 C779 1.399 . S
C775 C774 1.399 1_554 S
C775 C776 1.376 . S
C776 H763 0.930 . S
C776 C775 1.376 . S
C776 C777 1.388 . S
C777 H764 0.930 . S
C777 C776 1.388 . S
C777 C778 1.390 . S
C778 C777 1.390 . S
C778 C779 1.394 1_554 S
C778 C784 1.465 . S
C779 C774 1.399 . S
C779 C778 1.394 1_556 S
C779 C780 1.516 . S
C780 C779 1.516 . S
C780 C781 1.502 . S
C780 C782 1.561 . S
C780 C783 1.526 . S
C781 H765 0.959 . S
C781 H766 0.959 . S
C781 H767 0.961 . S
C781 C780 1.502 . S
C782 H768 0.960 . S
C782 H769 0.961 . S
C782 H770 0.959 . S
C782 C780 1.561 . S
C783 C780 1.526 . S
C783 C784 1.396 1_556 S
C783 C788 1.390 . S
C784 C778 1.465 . S
C784 C783 1.396 1_554 S
C784 C785 1.399 . S
C785 H771 0.929 . S
C785 C784 1.399 . S
C785 C786 1.385 . S
C786 H772 0.931 . S
C786 C785 1.385 . S
C786 C787 1.389 . S
C787 C786 1.389 . S
C787 C788 1.387 1_554 S
C788 H773 0.930 . S
C788 C783 1.390 . S
C788 C787 1.387 1_556 S
H789 C801 0.930 . S
H790 C803 0.930 . S
H791 C804 0.930 . S
H792 C808 0.959 . S
H793 C808 0.959 . S
H794 C808 0.961 . S
H795 C809 0.960 . S
H796 C809 0.961 . S
H797 C809 0.959 . S
H798 C812 0.929 . S
H799 C813 0.931 . S
H800 C815 0.930 . S
C801 H789 0.930 . S
C801 C802 1.399 . S
C801 C806 1.399 . S
C802 C801 1.399 . S
C802 C803 1.376 1_556 S
C803 H790 0.930 . S
C803 C802 1.376 1_554 S
C803 C804 1.388 . S
C804 H791 0.930 . S
C804 C803 1.388 . S
C804 C805 1.390 . S
C805 C804 1.390 . S
C805 C806 1.394 1_554 S
C805 C811 1.465 . S
C806 C801 1.399 . S
C806 C805 1.394 1_556 S
C806 C807 1.516 . S
C807 C806 1.516 . S
C807 C808 1.502 . S
C807 C809 1.561 . S
C807 C810 1.526 . S
C808 H792 0.959 . S
C808 H793 0.959 . S
C808 H794 0.961 . S
C808 C807 1.502 . S
C809 H795 0.960 . S
C809 H796 0.961 . S
C809 H797 0.959 . S
C809 C807 1.561 . S
C810 C807 1.526 . S
C810 C811 1.396 1_556 S
C810 C815 1.390 . S
C811 C805 1.465 . S
C811 C810 1.396 1_554 S
C811 C812 1.399 . S
C812 H798 0.929 . S
C812 C811 1.399 . S
C812 C813 1.385 . S
C813 H799 0.931 . S
C813 C812 1.385 . S
C813 C814 1.389 1_554 S
C814 C813 1.389 1_556 S
C814 C815 1.387 . S
C815 H800 0.930 . S
C815 C810 1.390 . S
C815 C814 1.387 . S
C181 C14 1.642 . S
C193 C164 1.615 . S
C208 C143 1.550 . S
C220 C38 1.569 . S
C235 C122 1.573 . S
C247 C59 1.613 . S
C262 C98 1.636 . S
C274 C80 1.601 . S
C289 C60 1.440 . S
C301 C15 1.535 . S
C316 C39 1.566 . S
C328 C81 1.494 . S
C343 C78 1.097 . S
C355 C36 0.998 . S
C370 C57 1.065 . S
C382 C18 1.184 . S
C397 C99 1.566 . S
C409 C144 1.494 . S
C424 C123 1.450 . S
C436 C165 1.557 . S
C451 C162 1.130 . S
C463 C120 1.004 . S
C478 C141 1.056 . S
C490 C102 1.007 . S
C505 C17 1.194 . S
C517 C13 1.301 . S
C532 C35 1.198 . S
C544 C37 1.301 . S
C559 C58 1.253 . S
C571 C56 1.209 . S
C586 C77 1.195 . S
C598 C79 1.301 . S
C613 C97 1.209 . S
C625 C101 1.294 . S
C640 C119 1.198 . S
C652 C121 1.301 . S
C667 C140 1.199 . S
C679 C142 1.301 . S
C694 C161 1.198 . S
C706 C163 1.301 . S
C721 C16 1.612 . S
C733 C34 1.559 . S
C748 C76 1.624 . S
C760 C55 1.570 . S
C775 C100 1.623 . S
C787 C118 1.578 . S
C802 C160 1.559 . S
C814 C139 1.605 . S
