# Generated by pormake.
# Topology wht, (6)-cn, num edge types: 1
# Building blocks:
#     Node 0, Type 0, BuildingBlock: IZENUY_clean_sbu_0, # of connection points: 6
#     Node 1, Type 0, BuildingBlock: IZENUY_clean_sbu_0, # of connection points: 6
#     Node 2, Type 0, BuildingBlock: IZENUY_clean_sbu_0, # of connection points: 6
#     Node 3, Type 0, BuildingBlock: IZENUY_clean_sbu_0, # of connection points: 6
#     Node 4, Type 0, BuildingBlock: IZENUY_clean_sbu_0, # of connection points: 6
#     Node 5, Type 0, BuildingBlock: IZENUY_clean_sbu_0, # of connection points: 6
#     Node 6, Type 0, BuildingBlock: IZENUY_clean_sbu_0, # of connection points: 6
#     Node 7, Type 0, BuildingBlock: IZENUY_clean_sbu_0, # of connection points: 6
#     Edge 8, Type (0, 0), BuildingBlock: XUDNAN_clean_linker_2, # of connection points: 2
#     Edge 9, Type (0, 0), BuildingBlock: XUDNAN_clean_linker_2, # of connection points: 2
#     Edge 10, Type (0, 0), BuildingBlock: XUDNAN_clean_linker_2, # of connection points: 2
#     Edge 11, Type (0, 0), BuildingBlock: XUDNAN_clean_linker_2, # of connection points: 2
#     Edge 12, Type (0, 0), BuildingBlock: XUDNAN_clean_linker_2, # of connection points: 2
#     Edge 13, Type (0, 0), BuildingBlock: XUDNAN_clean_linker_2, # of connection points: 2
#     Edge 14, Type (0, 0), BuildingBlock: XUDNAN_clean_linker_2, # of connection points: 2
#     Edge 15, Type (0, 0), BuildingBlock: XUDNAN_clean_linker_2, # of connection points: 2
#     Edge 16, Type (0, 0), BuildingBlock: XUDNAN_clean_linker_2, # of connection points: 2
#     Edge 17, Type (0, 0), BuildingBlock: XUDNAN_clean_linker_2, # of connection points: 2
#     Edge 18, Type (0, 0), BuildingBlock: XUDNAN_clean_linker_2, # of connection points: 2
#     Edge 19, Type (0, 0), BuildingBlock: XUDNAN_clean_linker_2, # of connection points: 2
#     Edge 20, Type (0, 0), BuildingBlock: XUDNAN_clean_linker_2, # of connection points: 2
#     Edge 21, Type (0, 0), BuildingBlock: XUDNAN_clean_linker_2, # of connection points: 2
#     Edge 22, Type (0, 0), BuildingBlock: XUDNAN_clean_linker_2, # of connection points: 2
#     Edge 23, Type (0, 0), BuildingBlock: XUDNAN_clean_linker_2, # of connection points: 2
#     Edge 24, Type (0, 0), BuildingBlock: XUDNAN_clean_linker_2, # of connection points: 2
#     Edge 25, Type (0, 0), BuildingBlock: XUDNAN_clean_linker_2, # of connection points: 2
#     Edge 26, Type (0, 0), BuildingBlock: XUDNAN_clean_linker_2, # of connection points: 2
#     Edge 27, Type (0, 0), BuildingBlock: XUDNAN_clean_linker_2, # of connection points: 2
#     Edge 28, Type (0, 0), BuildingBlock: XUDNAN_clean_linker_2, # of connection points: 2
#     Edge 29, Type (0, 0), BuildingBlock: XUDNAN_clean_linker_2, # of connection points: 2
#     Edge 30, Type (0, 0), BuildingBlock: XUDNAN_clean_linker_2, # of connection points: 2
#     Edge 31, Type (0, 0), BuildingBlock: XUDNAN_clean_linker_2, # of connection points: 2
# Relax obj value: 0.256
# Max RMSD: 0.239
# Mean RMSD: 0.239
data_MOF--net-wht--node1-IZENUY_clean_sbu_0--edge1-XUDNAN_clean_linker_2
_symmetry_space_group_name_H-M    P1
_symmetry_Int_Tables_number       1
_symmetry_cell_setting            triclinic
loop_
_symmetry_equiv_pos_as_xyz
'x, y, z'
_cell_length_a     26.198512
_cell_length_b     26.233929
_cell_length_c     46.4911
_cell_angle_alpha  89.980539
_cell_angle_beta   89.938457
_cell_angle_gamma 89.935658
loop_
_atom_site_label
_atom_site_type_symbol
_atom_site_fract_x
_atom_site_fract_y
_atom_site_fract_z
_atom_type_partial_charge
Fe0 Fe 0.09451 0.2012 0.14496 0.0
Fe1 Fe 0.18648 0.26959 0.15878 0.0
O2 O 0.11949 0.25941 0.15819 0.0
Fe3 Fe 0.07659 0.30697 0.17048 0.0
O4 O 0.04551 0.3108 0.13561 0.0
O5 O 0.03409 0.22847 0.13205 0.0
O6 O 0.12058 0.21357 0.10974 0.0
C7 C 0.16682 0.22363 0.10461 0.0
C8 C 0.03422 0.214 0.19179 0.0
O9 O 0.19757 0.23602 0.12454 0.0
C10 C 0.15138 0.31213 0.21174 0.0
O11 O 0.15 0.16232 0.1544 0.0
O12 O 0.19839 0.21268 0.17995 0.0
O13 O 0.02939 0.26059 0.18457 0.0
O14 O 0.0672 0.18611 0.17972 0.0
C15 C 0.15432 0.36475 0.14248 0.0
O16 O 0.18583 0.30597 0.19281 0.0
O17 O 0.10477 0.30642 0.20584 0.0
C18 C 0.18709 0.16866 0.17132 0.0
O19 O 0.18164 0.32648 0.13747 0.0
O20 O 0.11595 0.36186 0.15903 0.0
C21 C 0.02405 0.27332 0.12381 0.0
Fe22 Fe 0.25901 0.68783 0.40947 0.0
Fe23 Fe 0.2202 0.57993 0.42354 0.0
O24 O 0.26714 0.62061 0.4085 0.0
Fe25 Fe 0.32225 0.5937 0.39226 0.0
O26 O 0.30607 0.6213 0.35798 0.0
O27 O 0.28932 0.69856 0.37426 0.0
O28 O 0.19996 0.68415 0.39006 0.0
C29 C 0.16164 0.65787 0.39654 0.0
C30 C 0.36118 0.68455 0.41822 0.0
O31 O 0.1652 0.62121 0.41425 0.0
C32 C 0.3144 0.5331 0.43951 0.0
O33 O 0.2259 0.68864 0.44463 0.0
O34 O 0.22748 0.60849 0.45855 0.0
O35 O 0.36432 0.64756 0.40081 0.0
O36 O 0.31856 0.69737 0.42856 0.0
C37 C 0.24365 0.52589 0.37534 0.0
O38 O 0.26652 0.53099 0.43532 0.0
O39 O 0.34164 0.56447 0.42582 0.0
C40 C 0.2222 0.65512 0.46421 0.0
O41 O 0.20969 0.54852 0.3896 0.0
O42 O 0.2905 0.53493 0.37974 0.0
C43 C 0.29793 0.66804 0.35366 0.0
Fe44 Fe 0.93957 0.8247 0.64315 0.0
Fe45 Fe 0.84341 0.76257 0.65685 0.0
O46 O 0.91068 0.76955 0.65831 0.0
Fe47 Fe 0.94929 0.72162 0.67437 0.0
O48 O 0.98492 0.71222 0.64153 0.0
O49 O 0.99952 0.793 0.6326 0.0
O50 O 0.91583 0.80887 0.60782 0.0
C51 C 0.86964 0.80052 0.60192 0.0
C52 C 0.99483 0.81558 0.69244 0.0
O53 O 0.83686 0.79345 0.62157 0.0
C54 C 0.86894 0.72266 0.71216 0.0
O55 O 0.88499 0.86731 0.64996 0.0
O56 O 0.8328 0.82158 0.67611 0.0
O57 O 0.99661 0.76758 0.68852 0.0
O58 O 0.96526 0.8433 0.67774 0.0
C59 C 0.87326 0.66487 0.6444 0.0
O60 O 0.83823 0.72943 0.69148 0.0
O61 O 0.9165 0.72644 0.70862 0.0
C62 C 0.84664 0.86421 0.66647 0.0
O63 O 0.84816 0.7037 0.63735 0.0
O64 O 0.90895 0.66749 0.66279 0.0
C65 C 1.00882 0.74634 0.62814 0.0
Fe66 Fe 0.80701 0.45246 0.92134 0.0
Fe67 Fe 0.69974 0.4394 0.89592 0.0
O68 O 0.75801 0.4121 0.90796 0.0
Fe69 Fe 0.76679 0.34521 0.90598 0.0
O70 O 0.82335 0.35129 0.88424 0.0
O71 O 0.8607 0.41383 0.90752 0.0
O72 O 0.80986 0.48775 0.88763 0.0
C73 C 0.77236 0.51081 0.87674 0.0
C74 C 0.81266 0.37235 0.95943 0.0
O75 O 0.72754 0.5006 0.88497 0.0
C76 C 0.6662 0.34489 0.91956 0.0
O77 O 0.76156 0.4983 0.93771 0.0
O78 O 0.68586 0.46319 0.93165 0.0
O79 O 0.80382 0.3412 0.93924 0.0
O80 O 0.80861 0.41991 0.95581 0.0
C81 C 0.72083 0.37143 0.85308 0.0
O82 O 0.65995 0.3836 0.90378 0.0
O83 O 0.71038 0.33227 0.92742 0.0
C84 C 0.71464 0.49423 0.94462 0.0
O85 O 0.71112 0.41712 0.85965 0.0
O86 O 0.73194 0.33854 0.87205 0.0
C87 C 0.86232 0.37741 0.88962 0.0
Fe88 Fe 0.57966 0.22271 0.58072 0.0
Fe89 Fe 0.59181 0.33001 0.60599 0.0
O90 O 0.61971 0.27215 0.59384 0.0
Fe91 Fe 0.68683 0.26431 0.59541 0.0
O92 O 0.68203 0.20769 0.61706 0.0
O93 O 0.61915 0.16966 0.59434 0.0
O94 O 0.54495 0.21957 0.61465 0.0
C95 C 0.52158 0.25678 0.62561 0.0
C96 C 0.6593 0.21786 0.54215 0.0
O97 O 0.53092 0.30156 0.61711 0.0
C98 C 0.68588 0.36472 0.58222 0.0
O99 O 0.53308 0.26755 0.5645 0.0
O100 O 0.56763 0.34352 0.57033 0.0
O101 O 0.69079 0.22749 0.56207 0.0
O102 O 0.6117 0.22128 0.54608 0.0
C103 C 0.66061 0.30986 0.64852 0.0
O104 O 0.64714 0.37041 0.59808 0.0
O105 O 0.69859 0.32085 0.57399 0.0
C106 C 0.5369 0.31434 0.5574 0.0
O107 O 0.61462 0.31888 0.64216 0.0
O108 O 0.69345 0.29905 0.62941 0.0
C109 C 0.65617 0.16852 0.61185 0.0
Fe110 Fe 0.26764 0.18939 0.84602 0.0
Fe111 Fe 0.30783 0.08175 0.83098 0.0
O112 O 0.25893 0.12245 0.84435 0.0
Fe113 Fe 0.20082 0.09538 0.85681 0.0
O114 O 0.21299 0.11787 0.89295 0.0
O115 O 0.23362 0.19637 0.88032 0.0
O116 O 0.32461 0.18359 0.86732 0.0
C117 C 0.36345 0.1571 0.86208 0.0
C118 C 0.16673 0.18974 0.83323 0.0
O119 O 0.36169 0.12022 0.84452 0.0
C120 C 0.21507 0.04011 0.80818 0.0
O121 O 0.30394 0.19298 0.81238 0.0
O122 O 0.30946 0.11389 0.79639 0.0
O123 O 0.16086 0.15121 0.84918 0.0
O124 O 0.21073 0.20225 0.82501 0.0
C125 C 0.27339 0.02374 0.87579 0.0
O126 O 0.2621 0.03604 0.81488 0.0
O127 O 0.18638 0.07134 0.8212 0.0
C128 C 0.31324 0.16138 0.79242 0.0
O129 O 0.31083 0.04673 0.86481 0.0
O130 O 0.22858 0.03412 0.86768 0.0
C131 C 0.22316 0.16349 0.89944 0.0
Fe132 Fe 0.34091 0.77068 0.09531 0.0
Fe133 Fe 0.44716 0.81161 0.07842 0.0
O134 O 0.40826 0.7637 0.09427 0.0
Fe135 Fe 0.437 0.7087 0.10973 0.0
O136 O 0.41231 0.72463 0.14486 0.0
O137 O 0.3336 0.74017 0.1306 0.0
O138 O 0.34516 0.8297 0.11471 0.0
C139 C 0.37065 0.86841 0.10797 0.0
C140 C 0.34444 0.66889 0.08618 0.0
O141 O 0.40653 0.86576 0.08968 0.0
C142 C 0.49338 0.71766 0.06078 0.0
O143 O 0.33653 0.80351 0.06055 0.0
O144 O 0.41525 0.80671 0.04397 0.0
O145 O 0.38274 0.66603 0.10269 0.0
O146 O 0.3307 0.71137 0.07623 0.0
C147 C 0.50553 0.7872 0.12516 0.0
O148 O 0.49493 0.76565 0.06467 0.0
O149 O 0.46358 0.68995 0.07534 0.0
C150 C 0.36776 0.81039 0.04009 0.0
O151 O 0.48185 0.82116 0.11151 0.0
O152 O 0.49662 0.7405 0.12064 0.0
C153 C 0.36595 0.73297 0.15043 0.0
Fe154 Fe 0.82857 0.93206 0.35756 0.0
Fe155 Fe 0.76005 0.8404 0.34314 0.0
O156 O 0.77022 0.90734 0.34421 0.0
Fe157 Fe 0.72254 0.95051 0.33231 0.0
O158 O 0.71899 0.98104 0.36737 0.0
O159 O 0.80144 0.99222 0.37081 0.0
O160 O 0.81623 0.90534 0.39264 0.0
C161 C 0.80597 0.85908 0.39747 0.0
C162 C 0.81562 0.99311 0.31109 0.0
O163 O 0.79333 0.82875 0.3774 0.0
C164 C 0.71721 0.87663 0.29045 0.0
O165 O 0.86747 0.87686 0.34785 0.0
O166 O 0.81729 0.82869 0.32206 0.0
O167 O 0.76897 0.99773 0.31837 0.0
O168 O 0.84363 0.95998 0.32292 0.0
C169 C 0.66475 0.87247 0.3599 0.0
O170 O 0.72387 0.84171 0.30901 0.0
O171 O 0.72267 0.92304 0.29677 0.0
C172 C 0.86129 0.83983 0.3309 0.0
O173 O 0.70295 0.84478 0.36438 0.0
O174 O 0.66758 0.91122 0.34371 0.0
C175 C 0.75661 1.00238 0.37912 0.0
H176 H 0.03837 0.11938 0.2172 0.0
H177 H 0.94234 0.25364 0.20924 0.0
H178 H 0.87546 0.21113 0.23798 0.0
H179 H 0.93942 0.0265 0.2119 0.0
H180 H 0.96676 0.98412 0.23825 0.0
H181 H 1.00753 0.02521 0.21738 0.0
H182 H 0.04537 0.06317 0.26416 0.0
H183 H 1.00504 0.02188 0.28517 0.0
H184 H 1.0031 0.08982 0.29084 0.0
H185 H 0.81731 0.15236 0.26575 0.0
H186 H 0.77536 0.08489 0.29424 0.0
H187 H 0.91039 0.98998 0.28552 0.0
C188 C 1.00338 0.13999 0.2216 0.0
C189 C 0.99561 0.18987 0.21083 0.0
C190 C 0.94934 0.21552 0.21727 0.0
C191 C 0.91098 0.19158 0.23349 0.0
C192 C 0.91959 0.14215 0.24337 0.0
C193 C 0.9649 0.11687 0.23799 0.0
C194 C 0.96485 0.06423 0.25147 0.0
C195 C 0.96993 0.02257 0.22836 0.0
C196 C 1.00709 0.05952 0.27427 0.0
C197 C 0.91229 0.0637 0.26512 0.0
C198 C 0.88665 0.10885 0.26001 0.0
C199 C 0.83716 0.11697 0.27004 0.0
C200 C 0.81355 0.07827 0.28611 0.0
C201 C 0.83956 0.03212 0.29226 0.0
C202 C 0.88951 0.02486 0.28136 0.0
H203 H 0.41032 0.53626 0.46332 0.0
H204 H 0.27578 0.44069 0.45613 0.0
H205 H 0.31947 0.37298 0.48365 0.0
H206 H 0.50417 0.43708 0.4569 0.0
H207 H 0.54666 0.46422 0.48322 0.0
H208 H 0.50523 0.50505 0.46258 0.0
H209 H 0.4674 0.54243 0.50959 0.0
H210 H 0.50903 0.50205 0.53036 0.0
H211 H 0.44103 0.49995 0.53621 0.0
H212 H 0.37893 0.31447 0.51066 0.0
H213 H 0.44621 0.27302 0.53958 0.0
H214 H 0.54065 0.4081 0.53102 0.0
C215 C 0.39003 0.50109 0.46755 0.0
C216 C 0.33967 0.49371 0.45744 0.0
C217 C 0.31428 0.44733 0.4637 0.0
C218 C 0.33889 0.4085 0.47919 0.0
C219 C 0.38872 0.41679 0.48855 0.0
C220 C 0.41377 0.4622 0.48332 0.0
C221 C 0.46655 0.4621 0.49665 0.0
C222 C 0.5081 0.46742 0.47345 0.0
C223 C 0.47126 0.50412 0.51957 0.0
C224 C 0.46733 0.40949 0.51013 0.0
C225 C 0.4223 0.38375 0.50492 0.0
C226 C 0.41427 0.33435 0.51498 0.0
C227 C 0.45286 0.31101 0.53128 0.0
C228 C 0.49872 0.33728 0.53768 0.0
C229 C 0.50601 0.38701 0.52662 0.0
H230 H 0.99176 0.91209 0.71556 0.0
H231 H 0.08569 0.77588 0.71108 0.0
H232 H 0.15325 0.81963 0.7386 0.0
H233 H 0.09202 1.00346 0.70836 0.0
H234 H 0.06521 0.04786 0.73383 0.0
H235 H 0.02392 1.00603 0.71383 0.0
H236 H 0.98544 0.97152 0.76134 0.0
H237 H 0.02621 1.01364 0.78148 0.0
H238 H 0.0273 0.94609 0.78857 0.0
H239 H 0.21244 0.87964 0.76453 0.0
H240 H 0.25494 0.9479 0.79202 0.0
H241 H 0.12105 0.04389 0.78179 0.0
C242 C 0.02644 0.89137 0.72049 0.0
C243 C 0.03344 0.84054 0.71105 0.0
C244 C 0.07927 0.8147 0.71816 0.0
C245 C 0.11804 0.83935 0.73364 0.0
C246 C 0.11023 0.88967 0.7422 0.0
C247 C 0.06526 0.91515 0.73629 0.0
C248 C 0.06599 0.96864 0.74868 0.0
C249 C 0.06153 1.00886 0.72474 0.0
C250 C 0.02373 0.97534 0.77137 0.0
C251 C 0.11854 0.96936 0.76232 0.0
C252 C 0.14364 0.92364 0.75804 0.0
C253 C 0.19301 0.91549 0.76818 0.0
C254 C 0.21697 0.95467 0.78364 0.0
C255 C 0.19137 1.00131 0.78917 0.0
C256 C 0.14162 1.00868 0.77804 0.0
H257 H 0.49037 0.62172 0.03703 0.0
H258 H 0.58506 0.75693 0.04327 0.0
H259 H 0.65313 0.71324 0.01595 0.0
H260 H 0.58975 0.52911 0.04418 0.0
H261 H 0.56328 0.48573 0.01811 0.0
H262 H 0.52179 0.52741 0.0382 0.0
H263 H 0.48486 0.56368 0.99073 0.0
H264 H 0.52583 0.52172 0.97051 0.0
H265 H 0.52764 0.58945 0.96405 0.0
H266 H 0.71254 0.65339 0.98984 0.0
H267 H 0.75507 0.58553 0.96188 0.0
H268 H 0.62028 0.49058 0.97061 0.0
C269 C 0.52535 0.64221 0.03254 0.0
C270 C 0.53242 0.69274 0.04239 0.0
C271 C 0.57861 0.71834 0.03586 0.0
C272 C 0.61766 0.69372 0.0205 0.0
C273 C 0.60976 0.64368 0.01149 0.0
C274 C 0.56445 0.61847 0.01686 0.0
C275 C 0.56508 0.56536 0.004 0.0
C276 C 0.55966 0.5245 0.02753 0.0
C277 C 0.52339 0.55975 0.98095 0.0
C278 C 0.61797 0.56451 0.99074 0.0
C279 C 0.64331 0.60985 0.99558 0.0
C280 C 0.69294 0.61783 0.98576 0.0
C281 C 0.71691 0.57889 0.97003 0.0
C282 C 0.69106 0.53269 0.96395 0.0
C283 C 0.64107 0.52545 0.97479 0.0
H284 H 0.23479 0.36968 0.22788 0.0
H285 H 0.09608 0.30021 0.26065 0.0
H286 H 0.10988 0.34153 0.3075 0.0
H287 H 0.30799 0.36482 0.29699 0.0
H288 H 0.3372 0.42601 0.29069 0.0
H289 H 0.32051 0.38576 0.26072 0.0
H290 H 0.2668 0.45919 0.23898 0.0
H291 H 0.28301 0.49945 0.26893 0.0
H292 H 0.21696 0.488 0.26027 0.0
H293 H 0.1313 0.39772 0.34804 0.0
H294 H 0.16211 0.46334 0.38165 0.0
H295 H 0.28873 0.49651 0.32439 0.0
C296 C 0.20823 0.36206 0.24521 0.0
C297 C 0.16445 0.33153 0.24068 0.0
C298 C 0.12982 0.32345 0.26364 0.0
C299 C 0.1374 0.34663 0.29037 0.0
C300 C 0.17992 0.37771 0.29391 0.0
C301 C 0.21512 0.38524 0.27215 0.0
C302 C 0.25544 0.42361 0.28121 0.0
C303 C 0.30843 0.39854 0.28248 0.0
C304 C 0.25552 0.47032 0.26116 0.0
C305 C 0.23641 0.43738 0.31108 0.0
C306 C 0.19292 0.41012 0.31791 0.0
C307 C 0.16585 0.41864 0.34323 0.0
C308 C 0.18348 0.45618 0.3621 0.0
C309 C 0.22799 0.48457 0.35571 0.0
C310 C 0.25519 0.47455 0.33003 0.0
H311 H 0.03768 0.79121 0.57728 0.0
H312 H 0.07311 0.66597 0.63485 0.0
H313 H 0.13973 0.6361 0.60129 0.0
H314 H 0.04677 0.71881 0.51396 0.0
H315 H 0.07386 0.76886 0.49222 0.0
H316 H 0.0341 0.78463 0.52252 0.0
H317 H 0.10668 0.84047 0.54337 0.0
H318 H 0.14686 0.8244 0.51319 0.0
H319 H 0.1688 0.81278 0.54934 0.0
H320 H 0.19676 0.61548 0.5606 0.0
H321 H 0.23734 0.60154 0.51346 0.0
H322 H 0.1643 0.73822 0.48056 0.0
C323 C 0.06044 0.75826 0.58304 0.0
C324 C 0.05087 0.73118 0.60878 0.0
C325 C 0.0801 0.68729 0.61528 0.0
C326 C 0.11818 0.67024 0.59645 0.0
C327 C 0.1263 0.69724 0.57105 0.0
C328 C 0.09813 0.74012 0.56415 0.0
C329 C 0.11105 0.75877 0.53408 0.0
C330 C 0.06364 0.75767 0.51454 0.0
C331 C 0.13477 0.81229 0.53507 0.0
C332 C 0.15011 0.71907 0.52503 0.0
C333 C 0.15878 0.68449 0.54693 0.0
C334 C 0.19078 0.64258 0.54337 0.0
C335 C 0.2136 0.63496 0.51649 0.0
C336 C 0.20426 0.66893 0.49339 0.0
C337 C 0.17299 0.71221 0.49797 0.0
H338 H 0.86077 0.53608 0.8476 0.0
H339 H 0.70107 0.57787 0.85663 0.0
H340 H 0.71115 0.64233 0.81862 0.0
H341 H 0.90889 0.66564 0.83172 0.0
H342 H 0.9546 0.64289 0.80571 0.0
H343 H 0.93647 0.60303 0.83561 0.0
H344 H 0.91045 0.53129 0.80028 0.0
H345 H 0.92851 0.57083 0.77032 0.0
H346 H 0.86492 0.54486 0.77224 0.0
H347 H 0.73557 0.69641 0.77689 0.0
H348 H 0.77338 0.73695 0.73396 0.0
H349 H 0.91781 0.66241 0.75198 0.0
C350 C 0.82819 0.55946 0.84195 0.0
C351 C 0.78017 0.55196 0.85527 0.0
C352 C 0.73828 0.58281 0.84686 0.0
C353 C 0.74362 0.61974 0.82531 0.0
C354 C 0.79115 0.62569 0.81236 0.0
C355 C 0.83282 0.59662 0.82037 0.0
C356 C 0.87879 0.60868 0.8017 0.0
C357 C 0.92226 0.63142 0.81977 0.0
C358 C 0.89669 0.56109 0.78516 0.0
C359 C 0.85605 0.64822 0.7816 0.0
C360 C 0.80552 0.65763 0.78829 0.0
C361 C 0.77532 0.68999 0.77168 0.0
C362 C 0.79709 0.71277 0.74732 0.0
C363 C 0.84863 0.70332 0.73981 0.0
C364 C 0.87865 0.67129 0.75754 0.0
H365 H 1.00059 0.36171 0.09441 0.0
H366 H 0.95739 0.20259 0.103 0.0
H367 H 0.89333 0.21353 0.06484 0.0
H368 H 0.87188 0.41131 0.07848 0.0
H369 H 0.89508 0.4568 0.05252 0.0
H370 H 0.93485 0.43809 0.08233 0.0
H371 H 1.00638 0.41133 0.04689 0.0
H372 H 0.96694 0.43 0.01701 0.0
H373 H 0.9923 0.36618 0.01877 0.0
H374 H 0.83895 0.23892 0.02374 0.0
H375 H 0.798 0.27732 0.98123 0.0
H376 H 0.87471 0.42055 0.99877 0.0
C377 C 0.97706 0.32942 0.08858 0.0
C378 C 0.98391 0.28135 0.10185 0.0
C379 C 0.95292 0.23981 0.09323 0.0
C380 C 0.91621 0.24566 0.07163 0.0
C381 C 0.91076 0.29329 0.05882 0.0
C382 C 0.9402 0.33453 0.0669 0.0
C383 C 0.92857 0.38069 0.04833 0.0
C384 C 0.90626 0.4243 0.06651 0.0
C385 C 0.97639 0.39805 0.03177 0.0
C386 C 0.88875 0.35855 0.02824 0.0
C387 C 0.87887 0.30816 0.03488 0.0
C388 C 0.84585 0.27851 0.0185 0.0
C389 C 0.82287 0.30063 0.99436 0.0
C390 C 0.83289 0.35197 0.98681 0.0
C391 C 0.86559 0.38152 0.00433 0.0
H392 H 0.61057 0.15498 0.50349 0.0
H393 H 0.75413 0.23223 0.51973 0.0
H394 H 0.79208 0.19012 0.47742 0.0
H395 H 0.66445 0.03761 0.48471 0.0
H396 H 0.61906 0.02231 0.45692 0.0
H397 H 0.60057 0.06314 0.48625 0.0
H398 H 0.57374 0.13347 0.45016 0.0
H399 H 0.5918 0.09265 0.42066 0.0
H400 H 0.61895 0.15552 0.42368 0.0
H401 H 0.81709 0.13449 0.43678 0.0
H402 H 0.82766 0.06936 0.3992 0.0
H403 H 0.6684 0.02649 0.40875 0.0
C404 C 0.64956 0.16401 0.49766 0.0
C405 C 0.67934 0.19717 0.51478 0.0
C406 C 0.73062 0.20703 0.5069 0.0
C407 C 0.75248 0.18341 0.48287 0.0
C408 C 0.72261 0.14993 0.4669 0.0
C409 C 0.67221 0.14031 0.4738 0.0
C410 C 0.6499 0.09978 0.45421 0.0
C411 C 0.63248 0.05295 0.47156 0.0
C412 C 0.60599 0.12168 0.4361 0.0
C413 C 0.69597 0.0875 0.43567 0.0
C414 C 0.7373 0.11723 0.44328 0.0
C415 C 0.78486 0.11139 0.43035 0.0
C416 C 0.79049 0.07407 0.40908 0.0
C417 C 0.74881 0.04289 0.40088 0.0
C418 C 0.70081 0.05011 0.41427 0.0
H419 H 0.37634 0.11275 0.75363 0.0
H420 H 0.29705 0.2554 0.76943 0.0
H421 H 0.33667 0.29241 0.72607 0.0
H422 H 0.4923 0.16838 0.73234 0.0
H423 H 0.50725 0.12201 0.70499 0.0
H424 H 0.46824 0.10422 0.73525 0.0
H425 H 0.3968 0.07426 0.7007 0.0
H426 H 0.43575 0.09179 0.67029 0.0
H427 H 0.37234 0.11771 0.67399 0.0
H428 H 0.38934 0.31646 0.68384 0.0
H429 H 0.45259 0.32666 0.64514 0.0
H430 H 0.49994 0.16915 0.65634 0.0
C431 C 0.36641 0.15135 0.74754 0.0
C432 C 0.33324 0.1811 0.76477 0.0
C433 C 0.32223 0.23191 0.75652 0.0
C434 C 0.34443 0.25322 0.73188 0.0
C435 C 0.37776 0.22334 0.71571 0.0
C436 C 0.38877 0.1735 0.7231 0.0
C437 C 0.4289 0.15117 0.70313 0.0
C438 C 0.47701 0.13554 0.71993 0.0
C439 C 0.40713 0.10605 0.68601 0.0
C440 C 0.43924 0.19654 0.68372 0.0
C441 C 0.40892 0.23755 0.69128 0.0
C442 C 0.41293 0.28448 0.67751 0.0
C443 C 0.44916 0.28989 0.65556 0.0
C444 C 0.48117 0.24866 0.64752 0.0
C445 C 0.47562 0.20119 0.66168 0.0
H446 H 0.4172 0.87138 1.00087 0.0
H447 H 0.27304 0.79552 0.01746 0.0
H448 H 0.23603 0.83634 0.97442 0.0
H449 H 0.36402 0.98825 0.98111 0.0
H450 H 0.41002 1.00296 0.95348 0.0
H451 H 0.42778 0.96258 0.98312 0.0
H452 H 0.45516 0.8916 0.94756 0.0
H453 H 0.43777 0.93197 0.91775 0.0
H454 H 0.41042 0.8692 0.92099 0.0
H455 H 0.21217 0.89084 0.93283 0.0
H456 H 0.20238 0.95585 0.8951 0.0
H457 H 0.36142 0.99873 0.90539 0.0
C458 C 0.37831 0.86224 0.99494 0.0
C459 C 0.3481 0.82978 0.01232 0.0
C460 C 0.29689 0.82001 0.00437 0.0
C461 C 0.27559 0.84294 0.97993 0.0
C462 C 0.30593 0.87573 0.96369 0.0
C463 C 0.35621 0.88536 0.97076 0.0
C464 C 0.379 0.92552 0.95104 0.0
C465 C 0.3962 0.97261 0.96822 0.0
C466 C 0.42321 0.90323 0.93328 0.0
C467 C 0.33335 0.93763 0.93218 0.0
C468 C 0.29182 0.90803 0.93973 0.0
C469 C 0.24457 0.91383 0.92649 0.0
C470 C 0.23939 0.95107 0.90511 0.0
C471 C 0.28118 0.98236 0.89712 0.0
C472 C 0.32894 0.97502 0.91071 0.0
H473 H 0.53502 0.74112 0.17568 0.0
H474 H 0.56747 0.86952 0.11975 0.0
H475 H 0.6323 0.90017 0.154 0.0
H476 H 0.54107 0.81104 0.2401 0.0
H477 H 0.56988 0.76116 0.26127 0.0
H478 H 0.53081 0.74514 0.23078 0.0
H479 H 0.60526 0.69268 0.20911 0.0
H480 H 0.64468 0.70863 0.23956 0.0
H481 H 0.66646 0.72253 0.20362 0.0
H482 H 0.68795 0.92092 0.19505 0.0
H483 H 0.72883 0.93351 0.24213 0.0
H484 H 0.66013 0.79339 0.27328 0.0
C485 C 0.55674 0.77498 0.17043 0.0
C486 C 0.54678 0.8027 0.14494 0.0
C487 C 0.57471 0.84769 0.13911 0.0
C488 C 0.61176 0.86523 0.15836 0.0
C489 C 0.62023 0.83761 0.18349 0.0
C490 C 0.59347 0.79359 0.18973 0.0
C491 C 0.60684 0.77403 0.21957 0.0
C492 C 0.55933 0.7728 0.23907 0.0
C493 C 0.63234 0.72133 0.21785 0.0
C494 C 0.64454 0.81452 0.22922 0.0
C495 C 0.65206 0.85034 0.20782 0.0
C496 C 0.68284 0.8929 0.2119 0.0
C497 C 0.70581 0.89976 0.23876 0.0
C498 C 0.69789 0.86436 0.26134 0.0
C499 C 0.66763 0.82059 0.25627 0.0
H500 H 0.16382 0.12502 0.94276 0.0
H501 H 0.28054 0.23762 0.92426 0.0
H502 H 0.28189 0.26263 0.9755 0.0
H503 H 0.09456 0.20288 0.99295 0.0
H504 H 0.07765 0.15026 0.01599 0.0
H505 H 0.08777 0.13975 0.97814 0.0
H506 H 0.15567 0.07084 0.98997 0.0
H507 H 0.14598 0.08138 0.02787 0.0
H508 H 0.20902 0.08703 0.01265 0.0
H509 H 0.27206 0.27363 0.02886 0.0
H510 H 0.24484 0.27659 0.07983 0.0
H511 H 0.1307 0.16086 0.06254 0.0
C512 C 0.1897 0.15483 0.94957 0.0
C513 C 0.22216 0.17937 0.92974 0.0
C514 C 0.25514 0.21864 0.93922 0.0
C515 C 0.25643 0.23284 0.96825 0.0
C516 C 0.22401 0.2078 0.98732 0.0
C517 C 0.19073 0.17017 0.97833 0.0
C518 C 0.15802 0.15114 0.00289 0.0
C519 C 0.10114 0.16166 0.99715 0.0
C520 C 0.16778 0.09422 0.00868 0.0
C521 C 0.17814 0.18392 0.02709 0.0
C522 C 0.21673 0.21579 0.01779 0.0
C523 C 0.24173 0.24903 0.03641 0.0
C524 C 0.22625 0.25027 0.06527 0.0
C525 C 0.18566 0.21909 0.07493 0.0
C526 C 0.16163 0.18535 0.05561 0.0
H527 H 0.40378 0.67392 0.19365 0.0
H528 H 0.28886 0.78812 0.17449 0.0
H529 H 0.26093 0.787 0.22539 0.0
H530 H 0.3251 0.6008 0.24131 0.0
H531 H 0.37696 0.58421 0.26498 0.0
H532 H 0.38927 0.59628 0.22749 0.0
H533 H 0.45571 0.66531 0.24143 0.0
H534 H 0.44339 0.65368 0.27899 0.0
H535 H 0.43678 0.71712 0.26457 0.0
H536 H 0.2475 0.77471 0.2787 0.0
H537 H 0.24321 0.74533 0.32934 0.0
H538 H 0.36267 0.6349 0.31198 0.0
C539 C 0.37291 0.69882 0.20025 0.0
C540 C 0.34853 0.73131 0.18042 0.0
C541 C 0.30776 0.76285 0.18954 0.0
C542 C 0.29191 0.76268 0.21834 0.0
C543 C 0.31681 0.73019 0.23745 0.0
C544 C 0.35592 0.69831 0.22869 0.0
C545 C 0.37457 0.66502 0.25303 0.0
C546 C 0.36594 0.60823 0.24629 0.0
C547 C 0.43094 0.67596 0.25991 0.0
C548 C 0.33987 0.68317 0.27689 0.0
C549 C 0.30737 0.72133 0.26766 0.0
C550 C 0.27255 0.74467 0.28616 0.0
C551 C 0.27051 0.72798 0.3148 0.0
C552 C 0.30239 0.68781 0.32426 0.0
C553 C 0.33756 0.66539 0.3051 0.0
H554 H 0.87397 0.88934 0.43835 0.0
H555 H 0.74811 0.78562 0.42297 0.0
H556 H 0.75132 0.75801 0.47387 0.0
H557 H 0.94349 0.80435 0.48739 0.0
H558 H 0.96547 0.85646 0.50936 0.0
H559 H 0.95384 0.86624 0.47158 0.0
H560 H 0.89212 0.94053 0.48406 0.0
H561 H 0.90312 0.93035 0.52184 0.0
H562 H 0.83899 0.92894 0.50786 0.0
H563 H 0.76352 0.74789 0.52725 0.0
H564 H 0.79009 0.74852 0.5783 0.0
H565 H 0.9119 0.85436 0.55761 0.0
C566 C 0.84741 0.86051 0.4457 0.0
C567 C 0.81065 0.83963 0.42698 0.0
C568 C 0.77671 0.80173 0.4371 0.0
C569 C 0.77813 0.78604 0.46592 0.0
C570 C 0.81442 0.80793 0.48399 0.0
C571 C 0.84909 0.84361 0.47414 0.0
C572 C 0.88454 0.86094 0.49785 0.0
C573 C 0.94012 0.84609 0.49114 0.0
C574 C 0.87935 0.9186 0.50321 0.0
C575 C 0.8636 0.83038 0.52275 0.0
C576 C 0.82295 0.8003 0.51439 0.0
C577 C 0.79572 0.77074 0.534 0.0
C578 C 0.81082 0.77161 0.56291 0.0
C579 C 0.85307 0.80134 0.57172 0.0
C580 C 0.8798 0.83088 0.55134 0.0
H581 H 0.62183 0.3711 0.69098 0.0
H582 H 0.7368 0.25585 0.67359 0.0
H583 H 0.76388 0.25858 0.72439 0.0
H584 H 0.70012 0.4451 0.73955 0.0
H585 H 0.64764 0.46182 0.76281 0.0
H586 H 0.63642 0.45 0.72518 0.0
H587 H 0.56928 0.38129 0.73841 0.0
H588 H 0.5804 0.39277 0.77608 0.0
H589 H 0.58721 0.32932 0.7617 0.0
H590 H 0.77568 0.27064 0.77694 0.0
H591 H 0.77727 0.29726 0.82784 0.0
H592 H 0.65895 0.4091 0.8106 0.0
C593 C 0.65265 0.34648 0.69796 0.0
C594 C 0.67724 0.31316 0.67858 0.0
C595 C 0.71778 0.28184 0.68821 0.0
C596 C 0.73324 0.28294 0.71698 0.0
C597 C 0.7082 0.31612 0.7356 0.0
C598 C 0.66929 0.34785 0.72648 0.0
C599 C 0.64999 0.38114 0.75076 0.0
C600 C 0.65911 0.43787 0.74418 0.0
C601 C 0.59337 0.37047 0.75711 0.0
C602 C 0.68384 0.36274 0.77498 0.0
C603 C 0.71671 0.32483 0.7658 0.0
C604 C 0.75046 0.30055 0.7844 0.0
C605 C 0.75089 0.31571 0.81322 0.0
C606 C 0.71832 0.35521 0.82293 0.0
C607 C 0.68451 0.3791 0.80356 0.0
H608 H 0.16948 0.06663 0.16888 0.0
H609 H 0.29112 0.17803 0.17432 0.0
H610 H 0.35405 0.1114 0.16167 0.0
H611 H 0.24634 0.95468 0.19613 0.0
H612 H 0.21413 0.91209 0.17176 0.0
H613 H 0.18089 0.96657 0.18621 0.0
H614 H 0.15975 0.99592 0.13434 0.0
H615 H 0.19395 0.94249 0.11966 0.0
H616 H 0.21103 1.00637 0.10912 0.0
H617 H 0.40082 0.03589 0.13905 0.0
H618 H 0.42876 0.95484 0.11628 0.0
H619 H 0.27642 0.89356 0.12785 0.0
C620 C 0.20962 0.07648 0.16863 0.0
C621 C 0.22544 0.12734 0.17281 0.0
C622 C 0.27821 0.1391 0.17172 0.0
C623 C 0.3142 0.10156 0.16427 0.0
C624 C 0.2969 0.05232 0.1586 0.0
C625 C 0.24595 0.03945 0.16157 0.0
C626 C 0.23632 0.98496 0.15249 0.0
C627 C 0.21837 0.95266 0.17818 0.0
C628 C 0.19802 0.98233 0.12742 0.0
C629 C 0.28933 0.96971 0.14292 0.0
C630 C 0.32393 1.00888 0.14649 0.0
C631 C 0.37429 1.00456 0.13681 0.0
C632 C 0.38973 0.95868 0.12367 0.0
C633 C 0.35494 0.91781 0.12056 0.0
C634 C 0.30423 0.92376 0.13037 0.0
H635 H 0.4616 0.66459 0.40729 0.0
H636 H 0.35767 0.78735 0.42932 0.0
H637 H 0.42541 0.85023 0.4189 0.0
H638 H 0.57946 0.72621 0.43585 0.0
H639 H 0.61763 0.70045 0.40702 0.0
H640 H 0.56288 0.66578 0.41996 0.0
H641 H 0.52683 0.66326 0.36807 0.0
H642 H 0.58075 0.69883 0.35506 0.0
H643 H 0.51697 0.72217 0.34887 0.0
H644 H 0.50117 0.90002 0.39825 0.0
H645 H 0.58208 0.93098 0.3764 0.0
H646 H 0.63584 0.77497 0.37029 0.0
C647 C 0.45357 0.70461 0.41085 0.0
C648 C 0.4044 0.72095 0.41925 0.0
C649 C 0.39524 0.77377 0.4233 0.0
C650 C 0.4334 0.80986 0.41718 0.0
C651 C 0.48075 0.79248 0.40755 0.0
C652 C 0.49127 0.74096 0.40516 0.0
C653 C 0.54419 0.73191 0.39319 0.0
C654 C 0.57804 0.70448 0.41533 0.0
C655 C 0.54201 0.70231 0.36461 0.0
C656 C 0.56141 0.78627 0.38852 0.0
C657 C 0.52441 0.82088 0.39672 0.0
C658 C 0.5308 0.87323 0.39233 0.0
C659 C 0.57658 0.89049 0.37972 0.0
C660 C 0.61534 0.85546 0.37199 0.0
C661 C 0.60729 0.80281 0.37648 0.0
H662 H 0.75427 0.1409 0.62212 0.0
H663 H 0.59871 0.08588 0.62861 0.0
H664 H 0.63071 1.00478 0.64958 0.0
H665 H 0.80643 0.02422 0.59849 0.0
H666 H 0.86621 0.0326 0.61704 0.0
H667 H 0.83015 0.08741 0.60572 0.0
H668 H 0.83011 0.12118 0.65815 0.0
H669 H 0.86571 0.06603 0.66969 0.0
H670 H 0.80573 0.08141 0.68664 0.0
H671 H 0.68095 0.92913 0.66897 0.0
H672 H 0.74399 0.861 0.67797 0.0
H673 H 0.86655 0.96486 0.65552 0.0
C674 C 0.72682 0.11207 0.62836 0.0
C675 C 0.67396 0.11973 0.62418 0.0
C676 C 0.63934 0.08065 0.63178 0.0
C677 C 0.65718 0.03478 0.64388 0.0
C678 C 0.70971 0.02856 0.64781 0.0
C679 C 0.74399 0.06595 0.63981 0.0
C680 C 0.79865 0.04835 0.6435 0.0
C681 C 0.827 0.04812 0.61447 0.0
C682 C 0.82669 0.0812 0.66583 0.0
C683 C 0.79001 0.99485 0.65458 0.0
C684 C 0.73851 0.98447 0.65755 0.0
C685 C 0.72132 0.93695 0.66678 0.0
C686 C 0.75754 0.89855 0.67204 0.0
C687 C 0.81033 0.90758 0.66749 0.0
C688 C 0.82657 0.95685 0.65937 0.0
H689 H 0.38913 0.25305 0.87851 0.0
H690 H 0.44881 0.09902 0.8739 0.0
H691 H 0.53034 0.12897 0.89524 0.0
H692 H 0.50194 0.31283 0.85612 0.0
H693 H 0.49315 0.36817 0.87855 0.0
H694 H 0.43859 0.33285 0.86629 0.0
H695 H 0.40892 0.32131 0.91915 0.0
H696 H 0.4639 0.35614 0.93158 0.0
H697 H 0.45165 0.29281 0.94494 0.0
H698 H 0.60668 0.17773 0.91548 0.0
H699 H 0.67399 0.24108 0.92573 0.0
H700 H 0.564 0.36313 0.91444 0.0
C701 C 0.41899 0.22532 0.88241 0.0
C702 C 0.41248 0.17353 0.8749 0.0
C703 C 0.45301 0.13882 0.8796 0.0
C704 C 0.4992 0.15546 0.89191 0.0
C705 C 0.50424 0.20695 0.89911 0.0
C706 C 0.4653 0.24138 0.89413 0.0
C707 C 0.48155 0.29539 0.90087 0.0
C708 C 0.47865 0.32928 0.87385 0.0
C709 C 0.4496 0.31771 0.92561 0.0
C710 C 0.53615 0.28637 0.91005 0.0
C711 C 0.54833 0.23505 0.90954 0.0
C712 C 0.59737 0.21792 0.91611 0.0
C713 C 0.63531 0.25423 0.92215 0.0
C714 C 0.62421 0.30713 0.92102 0.0
C715 C 0.57356 0.32301 0.91576 0.0
H716 H 0.77747 0.63936 0.62764 0.0
H717 H 0.93097 0.57858 0.63444 0.0
H718 H 0.9014 0.49747 0.61245 0.0
H719 H 0.71496 0.52586 0.64814 0.0
H720 H 0.66116 0.53614 0.62471 0.0
H721 H 0.69628 0.58973 0.63841 0.0
H722 H 0.71139 0.62123 0.58618 0.0
H723 H 0.67699 0.56711 0.57232 0.0
H724 H 0.74136 0.57934 0.56047 0.0
H725 H 0.85325 0.42237 0.59029 0.0
H726 H 0.79 0.35624 0.57774 0.0
H727 H 0.66803 0.4667 0.58796 0.0
C728 C 0.80512 0.60921 0.62424 0.0
C729 C 0.85668 0.61534 0.63242 0.0
C730 C 0.89132 0.57458 0.62827 0.0
C731 C 0.87492 0.52867 0.61558 0.0
C732 C 0.82374 0.5242 0.60747 0.0
C733 C 0.7893 0.56324 0.61213 0.0
C734 C 0.73557 0.5478 0.60406 0.0
C735 C 0.69992 0.54999 0.6304 0.0
C736 C 0.71515 0.58084 0.57928 0.0
C737 C 0.74477 0.49357 0.59438 0.0
C738 C 0.79596 0.48087 0.59588 0.0
C739 C 0.81316 0.43207 0.58893 0.0
C740 C 0.77693 0.39483 0.58155 0.0
C741 C 0.72402 0.40638 0.58172 0.0
C742 C 0.70819 0.45686 0.58734 0.0
H743 H 0.06462 0.17117 0.83854 0.0
H744 H 0.17384 0.29351 0.82678 0.0
H745 H 0.10605 0.35671 0.83668 0.0
H746 H 0.95218 0.2407 0.80739 0.0
H747 H 0.90942 0.21209 0.83313 0.0
H748 H 0.96494 0.1776 0.82099 0.0
H749 H 0.99354 0.16613 0.87394 0.0
H750 H 0.93881 0.20133 0.88624 0.0
H751 H 1.00203 0.22161 0.8963 0.0
H752 H 0.02929 0.40546 0.85654 0.0
H753 H 0.94742 0.43547 0.87761 0.0
H754 H 0.88847 0.28126 0.87351 0.0
C755 C 0.07389 0.21131 0.83705 0.0
C756 C 0.12448 0.22733 0.83174 0.0
C757 C 0.13523 0.28025 0.83039 0.0
C758 C 0.097 0.31648 0.83621 0.0
C759 C 0.04799 0.29925 0.84274 0.0
C760 C 0.0361 0.24788 0.84241 0.0
C761 C 0.98142 0.23885 0.85158 0.0
C762 C 0.95014 0.21597 0.82679 0.0
C763 C 0.97885 0.205 0.87861 0.0
C764 C 0.96485 0.29289 0.85809 0.0
C765 C 1.00365 0.32736 0.85299 0.0
C766 C 0.99826 0.37893 0.85993 0.0
C767 C 0.95186 0.39561 0.87206 0.0
C768 C 0.91143 0.36087 0.87682 0.0
C769 C 0.91826 0.309 0.86954 0.0
H770 H 0.36417 0.56894 0.09887 0.0
H771 H 0.24179 0.67156 0.07424 0.0
H772 H 0.17871 0.60393 0.0843 0.0
H773 H 0.30482 0.45104 0.06979 0.0
H774 H 0.32913 0.41311 0.09908 0.0
H775 H 0.36426 0.46797 0.08678 0.0
H776 H 0.36346 0.50415 0.13867 0.0
H777 H 0.32749 0.45002 0.15102 0.0
H778 H 0.3033 0.51354 0.15679 0.0
H779 H 0.12817 0.52829 0.10425 0.0
H780 H 0.09632 0.44712 0.12527 0.0
H781 H 0.25235 0.39421 0.13414 0.0
C782 C 0.32423 0.57677 0.09477 0.0
C783 C 0.30806 0.62557 0.08569 0.0
C784 C 0.2553 0.63435 0.08088 0.0
C785 C 0.21906 0.59625 0.08676 0.0
C786 C 0.2362 0.54926 0.09693 0.0
C787 C 0.2877 0.53907 0.10019 0.0
C788 C 0.29637 0.48628 0.11232 0.0
C789 C 0.32535 0.45261 0.0907 0.0
C790 C 0.32429 0.48868 0.14142 0.0
C791 C 0.24178 0.46873 0.116 0.0
C792 C 0.20741 0.50554 0.10726 0.0
C793 C 0.15479 0.49882 0.11062 0.0
C794 C 0.13701 0.4529 0.12275 0.0
C795 C 0.17182 0.41431 0.13097 0.0
C796 C 0.22475 0.42267 0.12754 0.0
H797 H 0.96331 0.85742 0.33395 0.0
H798 H 0.852 0.73578 0.32835 0.0
H799 H 0.91841 0.67327 0.34208 0.0
H800 H 0.07635 0.78082 0.3085 0.0
H801 H 0.11799 0.81357 0.33316 0.0
H802 H 0.06377 0.84626 0.31801 0.0
H803 H 0.03256 0.86797 0.36949 0.0
H804 H 0.0857 0.83425 0.38487 0.0
H805 H 0.02146 0.81708 0.39481 0.0
H806 H 0.99404 0.62688 0.36536 0.0
H807 H 0.07515 0.59945 0.38837 0.0
H808 H 0.13565 0.75198 0.37703 0.0
C809 C 0.95345 0.81734 0.3344 0.0
C810 C 0.90267 0.80142 0.32981 0.0
C811 C 0.89089 0.74875 0.3312 0.0
C812 C 0.9283 0.71301 0.3393 0.0
C813 C 0.97741 0.73048 0.34538 0.0
C814 C 0.99029 0.78131 0.34218 0.0
C815 C 0.04449 0.7913 0.35177 0.0
C816 C 0.07761 0.80902 0.32634 0.0
C817 C 0.04609 0.82991 0.37671 0.0
C818 C 0.05967 0.7386 0.36174 0.0
C819 C 0.02068 0.70384 0.35802 0.0
C820 C 0.02518 0.6536 0.36776 0.0
C821 C 0.0711 0.63844 0.38105 0.0
C822 C 0.11182 0.6734 0.38427 0.0
C823 C 0.10558 0.72403 0.3745 0.0
loop_
_geom_bond_atom_site_label_1
_geom_bond_atom_site_label_2
_geom_bond_distance
_geom_bond_site_symmetry_2
_ccdc_geom_bond_type
Fe0 O2 1.918 . S
Fe0 O5 1.997 . S
Fe0 O6 2.002 . S
Fe0 O11 1.976 . S
Fe0 O14 1.996 . S
Fe1 O2 1.918 . S
Fe1 O9 1.997 . S
Fe1 O12 1.996 . S
Fe1 O16 1.976 . S
Fe1 O19 2.002 . S
O2 Fe0 1.918 . S
O2 Fe1 1.918 . S
O2 Fe3 1.918 . S
Fe3 O2 1.918 . S
Fe3 O4 2.011 . S
Fe3 O13 1.976 . S
Fe3 O17 1.996 . S
Fe3 O20 1.997 . S
O4 Fe3 2.011 . S
O4 C21 1.292 1_455 S
O5 Fe0 1.997 . S
O5 C21 1.235 1_455 S
O6 Fe0 2.002 . S
O6 C7 1.295 . S
C7 O6 1.295 . S
C7 O9 1.235 . S
C8 O13 1.287 1_655 S
C8 O14 1.255 1_655 S
O9 Fe1 1.997 . S
O9 C7 1.235 . S
C10 O16 1.287 . S
C10 O17 1.255 . S
O11 Fe0 1.976 . S
O11 C18 1.287 . S
O12 Fe1 1.996 . S
O12 C18 1.255 . S
O13 Fe3 1.976 . S
O13 C8 1.287 1_455 S
O14 Fe0 1.996 . S
O14 C8 1.255 1_455 S
C15 O19 1.295 . S
C15 O20 1.235 . S
O16 Fe1 1.976 . S
O16 C10 1.287 . S
O17 Fe3 1.996 . S
O17 C10 1.255 . S
C18 O11 1.287 . S
C18 O12 1.255 . S
O19 Fe1 2.002 . S
O19 C15 1.295 . S
O20 Fe3 1.997 . S
O20 C15 1.235 . S
C21 O4 1.292 1_655 S
C21 O5 1.235 1_655 S
Fe22 O24 1.918 . S
Fe22 O27 1.997 . S
Fe22 O28 2.002 . S
Fe22 O33 1.976 . S
Fe22 O36 1.996 . S
Fe23 O24 1.918 . S
Fe23 O31 1.997 . S
Fe23 O34 1.996 . S
Fe23 O38 1.976 . S
Fe23 O41 2.002 . S
O24 Fe22 1.918 . S
O24 Fe23 1.918 . S
O24 Fe25 1.918 . S
Fe25 O24 1.918 . S
Fe25 O26 2.002 . S
Fe25 O35 1.976 . S
Fe25 O39 1.996 . S
Fe25 O42 1.997 . S
O26 Fe25 2.002 . S
O26 C43 1.295 . S
O27 Fe22 1.997 . S
O27 C43 1.235 . S
O28 Fe22 2.002 . S
O28 C29 1.295 . S
C29 O28 1.295 . S
C29 O31 1.235 . S
C30 O35 1.287 . S
C30 O36 1.255 . S
O31 Fe23 1.997 . S
O31 C29 1.235 . S
C32 O38 1.287 . S
C32 O39 1.255 . S
O33 Fe22 1.976 . S
O33 C40 1.287 . S
O34 Fe23 1.996 . S
O34 C40 1.255 . S
O35 Fe25 1.976 . S
O35 C30 1.287 . S
O36 Fe22 1.996 . S
O36 C30 1.255 . S
C37 O41 1.295 . S
C37 O42 1.235 . S
O38 Fe23 1.976 . S
O38 C32 1.287 . S
O39 Fe25 1.996 . S
O39 C32 1.255 . S
C40 O33 1.287 . S
C40 O34 1.255 . S
O41 Fe23 2.002 . S
O41 C37 1.295 . S
O42 Fe25 1.997 . S
O42 C37 1.235 . S
C43 O26 1.295 . S
C43 O27 1.235 . S
Fe44 O46 1.918 . S
Fe44 O49 1.997 . S
Fe44 O50 2.002 . S
Fe44 O55 1.976 . S
Fe44 O58 1.996 . S
Fe45 O46 1.918 . S
Fe45 O53 1.997 . S
Fe45 O56 1.996 . S
Fe45 O60 1.976 . S
Fe45 O63 2.002 . S
O46 Fe44 1.918 . S
O46 Fe45 1.918 . S
O46 Fe47 1.918 . S
Fe47 O46 1.918 . S
Fe47 O48 2.011 . S
Fe47 O57 1.976 . S
Fe47 O61 1.996 . S
Fe47 O64 1.997 . S
O48 Fe47 2.011 . S
O48 C65 1.292 1_655 S
O49 Fe44 1.997 . S
O49 C65 1.235 1_655 S
O50 Fe44 2.002 . S
O50 C51 1.295 . S
C51 O50 1.295 . S
C51 O53 1.235 . S
C52 O57 1.287 1_455 S
C52 O58 1.255 1_455 S
O53 Fe45 1.997 . S
O53 C51 1.235 . S
C54 O60 1.287 . S
C54 O61 1.255 . S
O55 Fe44 1.976 . S
O55 C62 1.287 . S
O56 Fe45 1.996 . S
O56 C62 1.255 . S
O57 Fe47 1.976 . S
O57 C52 1.287 1_655 S
O58 Fe44 1.996 . S
O58 C52 1.255 1_655 S
C59 O63 1.295 . S
C59 O64 1.235 . S
O60 Fe45 1.976 . S
O60 C54 1.287 . S
O61 Fe47 1.996 . S
O61 C54 1.255 . S
C62 O55 1.287 . S
C62 O56 1.255 . S
O63 Fe45 2.002 . S
O63 C59 1.295 . S
O64 Fe47 1.997 . S
O64 C59 1.235 . S
C65 O48 1.292 1_455 S
C65 O49 1.235 1_455 S
Fe66 O68 1.918 . S
Fe66 O71 1.997 . S
Fe66 O72 2.002 . S
Fe66 O77 1.976 . S
Fe66 O80 1.996 . S
Fe67 O68 1.918 . S
Fe67 O75 1.997 . S
Fe67 O78 1.996 . S
Fe67 O82 1.976 . S
Fe67 O85 2.002 . S
O68 Fe66 1.918 . S
O68 Fe67 1.918 . S
O68 Fe69 1.918 . S
Fe69 O68 1.918 . S
Fe69 O70 2.002 . S
Fe69 O79 1.976 . S
Fe69 O83 1.996 . S
Fe69 O86 1.997 . S
O70 Fe69 2.002 . S
O70 C87 1.295 . S
O71 Fe66 1.997 . S
O71 C87 1.235 . S
O72 Fe66 2.002 . S
O72 C73 1.295 . S
C73 O72 1.295 . S
C73 O75 1.235 . S
C74 O79 1.287 . S
C74 O80 1.255 . S
O75 Fe67 1.997 . S
O75 C73 1.235 . S
C76 O82 1.287 . S
C76 O83 1.255 . S
O77 Fe66 1.976 . S
O77 C84 1.287 . S
O78 Fe67 1.996 . S
O78 C84 1.255 . S
O79 Fe69 1.976 . S
O79 C74 1.287 . S
O80 Fe66 1.996 . S
O80 C74 1.255 . S
C81 O85 1.295 . S
C81 O86 1.235 . S
O82 Fe67 1.976 . S
O82 C76 1.287 . S
O83 Fe69 1.996 . S
O83 C76 1.255 . S
C84 O77 1.287 . S
C84 O78 1.255 . S
O85 Fe67 2.002 . S
O85 C81 1.295 . S
O86 Fe69 1.997 . S
O86 C81 1.235 . S
C87 O70 1.295 . S
C87 O71 1.235 . S
Fe88 O90 1.918 . S
Fe88 O93 1.997 . S
Fe88 O94 2.002 . S
Fe88 O99 1.976 . S
Fe88 O102 1.996 . S
Fe89 O90 1.918 . S
Fe89 O97 1.997 . S
Fe89 O100 1.996 . S
Fe89 O104 1.976 . S
Fe89 O107 2.002 . S
O90 Fe88 1.918 . S
O90 Fe89 1.918 . S
O90 Fe91 1.918 . S
Fe91 O90 1.918 . S
Fe91 O92 2.002 . S
Fe91 O101 1.976 . S
Fe91 O105 1.996 . S
Fe91 O108 1.997 . S
O92 Fe91 2.002 . S
O92 C109 1.295 . S
O93 Fe88 1.997 . S
O93 C109 1.235 . S
O94 Fe88 2.002 . S
O94 C95 1.295 . S
C95 O94 1.295 . S
C95 O97 1.235 . S
C96 O101 1.287 . S
C96 O102 1.255 . S
O97 Fe89 1.997 . S
O97 C95 1.235 . S
C98 O104 1.287 . S
C98 O105 1.255 . S
O99 Fe88 1.976 . S
O99 C106 1.287 . S
O100 Fe89 1.996 . S
O100 C106 1.255 . S
O101 Fe91 1.976 . S
O101 C96 1.287 . S
O102 Fe88 1.996 . S
O102 C96 1.255 . S
C103 O107 1.295 . S
C103 O108 1.235 . S
O104 Fe89 1.976 . S
O104 C98 1.287 . S
O105 Fe91 1.996 . S
O105 C98 1.255 . S
C106 O99 1.287 . S
C106 O100 1.255 . S
O107 Fe89 2.002 . S
O107 C103 1.295 . S
O108 Fe91 1.997 . S
O108 C103 1.235 . S
C109 O92 1.295 . S
C109 O93 1.235 . S
Fe110 O112 1.918 . S
Fe110 O115 1.997 . S
Fe110 O116 2.002 . S
Fe110 O121 1.976 . S
Fe110 O124 1.996 . S
Fe111 O112 1.918 . S
Fe111 O119 1.997 . S
Fe111 O122 1.996 . S
Fe111 O126 1.976 . S
Fe111 O129 2.011 . S
O112 Fe110 1.918 . S
O112 Fe111 1.918 . S
O112 Fe113 1.918 . S
Fe113 O112 1.918 . S
Fe113 O114 2.002 . S
Fe113 O123 1.976 . S
Fe113 O127 1.996 . S
Fe113 O130 1.997 . S
O114 Fe113 2.002 . S
O114 C131 1.295 . S
O115 Fe110 1.997 . S
O115 C131 1.235 . S
O116 Fe110 2.002 . S
O116 C117 1.295 . S
C117 O116 1.295 . S
C117 O119 1.235 . S
C118 O123 1.287 . S
C118 O124 1.255 . S
O119 Fe111 1.997 . S
O119 C117 1.235 . S
C120 O126 1.287 1_565 S
C120 O127 1.255 1_565 S
O121 Fe110 1.976 . S
O121 C128 1.287 . S
O122 Fe111 1.996 . S
O122 C128 1.255 . S
O123 Fe113 1.976 . S
O123 C118 1.287 . S
O124 Fe110 1.996 . S
O124 C118 1.255 . S
C125 O129 1.292 1_565 S
C125 O130 1.235 1_565 S
O126 Fe111 1.976 . S
O126 C120 1.287 1_545 S
O127 Fe113 1.996 . S
O127 C120 1.255 1_545 S
C128 O121 1.287 . S
C128 O122 1.255 . S
O129 Fe111 2.011 . S
O129 C125 1.292 1_545 S
O130 Fe113 1.997 . S
O130 C125 1.235 1_545 S
C131 O114 1.295 . S
C131 O115 1.235 . S
Fe132 O134 1.918 . S
Fe132 O137 1.997 . S
Fe132 O138 2.002 . S
Fe132 O143 1.976 . S
Fe132 O146 1.996 . S
Fe133 O134 1.918 . S
Fe133 O141 1.997 . S
Fe133 O144 1.996 . S
Fe133 O148 1.976 . S
Fe133 O151 2.002 . S
O134 Fe132 1.918 . S
O134 Fe133 1.918 . S
O134 Fe135 1.918 . S
Fe135 O134 1.918 . S
Fe135 O136 2.002 . S
Fe135 O145 1.976 . S
Fe135 O149 1.996 . S
Fe135 O152 1.997 . S
O136 Fe135 2.002 . S
O136 C153 1.295 . S
O137 Fe132 1.997 . S
O137 C153 1.235 . S
O138 Fe132 2.002 . S
O138 C139 1.295 . S
C139 O138 1.295 . S
C139 O141 1.235 . S
C140 O145 1.287 . S
C140 O146 1.255 . S
O141 Fe133 1.997 . S
O141 C139 1.235 . S
C142 O148 1.287 . S
C142 O149 1.255 . S
O143 Fe132 1.976 . S
O143 C150 1.287 . S
O144 Fe133 1.996 . S
O144 C150 1.255 . S
O145 Fe135 1.976 . S
O145 C140 1.287 . S
O146 Fe132 1.996 . S
O146 C140 1.255 . S
C147 O151 1.295 . S
C147 O152 1.235 . S
O148 Fe133 1.976 . S
O148 C142 1.287 . S
O149 Fe135 1.996 . S
O149 C142 1.255 . S
C150 O143 1.287 . S
C150 O144 1.255 . S
O151 Fe133 2.002 . S
O151 C147 1.295 . S
O152 Fe135 1.997 . S
O152 C147 1.235 . S
C153 O136 1.295 . S
C153 O137 1.235 . S
Fe154 O156 1.918 . S
Fe154 O159 1.997 . S
Fe154 O160 2.002 . S
Fe154 O165 1.976 . S
Fe154 O168 1.996 . S
Fe155 O156 1.918 . S
Fe155 O163 1.997 . S
Fe155 O166 1.996 . S
Fe155 O170 1.976 . S
Fe155 O173 2.002 . S
O156 Fe154 1.918 . S
O156 Fe155 1.918 . S
O156 Fe157 1.918 . S
Fe157 O156 1.918 . S
Fe157 O158 2.011 . S
Fe157 O167 1.976 . S
Fe157 O171 1.996 . S
Fe157 O174 1.997 . S
O158 Fe157 2.011 . S
O158 C175 1.292 1_565 S
O159 Fe154 1.997 . S
O159 C175 1.235 1_565 S
O160 Fe154 2.002 . S
O160 C161 1.295 . S
C161 O160 1.295 . S
C161 O163 1.235 . S
C162 O167 1.287 1_545 S
C162 O168 1.255 1_545 S
O163 Fe155 1.997 . S
O163 C161 1.235 . S
C164 O170 1.287 . S
C164 O171 1.255 . S
O165 Fe154 1.976 . S
O165 C172 1.287 . S
O166 Fe155 1.996 . S
O166 C172 1.255 . S
O167 Fe157 1.976 . S
O167 C162 1.287 1_565 S
O168 Fe154 1.996 . S
O168 C162 1.255 1_565 S
C169 O173 1.295 . S
C169 O174 1.235 . S
O170 Fe155 1.976 . S
O170 C164 1.287 . S
O171 Fe157 1.996 . S
O171 C164 1.255 . S
C172 O165 1.287 . S
C172 O166 1.255 . S
O173 Fe155 2.002 . S
O173 C169 1.295 . S
O174 Fe157 1.997 . S
O174 C169 1.235 . S
C175 O158 1.292 1_545 S
C175 O159 1.235 1_545 S
H176 C188 0.930 . S
H177 C190 0.930 1_455 S
H178 C191 0.930 . S
H179 C195 0.959 . S
H180 C195 0.959 . S
H181 C195 0.961 . S
H182 C196 0.960 . S
H183 C196 0.945 1_565 S
H184 C196 0.959 . S
H185 C199 0.929 . S
H186 C200 0.931 . S
H187 C202 0.930 . S
C188 H176 0.930 . S
C188 C189 1.399 . S
C188 C193 1.399 . S
C189 C188 1.399 . S
C189 C190 1.376 . S
C190 H177 0.930 1_655 S
C190 C189 1.376 . S
C190 C191 1.388 . S
C191 H178 0.930 . S
C191 C190 1.388 . S
C191 C192 1.390 . S
C192 C191 1.390 . S
C192 C193 1.394 . S
C192 C198 1.465 . S
C193 C188 1.399 . S
C193 C192 1.394 . S
C193 C194 1.516 . S
C194 C193 1.516 . S
C194 C195 1.502 . S
C194 C196 1.561 . S
C194 C197 1.526 . S
C195 H179 0.959 . S
C195 H180 0.959 . S
C195 H181 0.961 . S
C195 C194 1.502 . S
C196 H182 0.960 . S
C196 H183 0.945 1_545 S
C196 H184 0.959 . S
C196 C194 1.561 . S
C197 C194 1.526 . S
C197 C198 1.396 . S
C197 C202 1.390 . S
C198 C192 1.465 . S
C198 C197 1.396 . S
C198 C199 1.399 . S
C199 H185 0.929 . S
C199 C198 1.399 . S
C199 C200 1.385 . S
C200 H186 0.931 . S
C200 C199 1.385 . S
C200 C201 1.389 . S
C201 C200 1.389 . S
C201 C202 1.387 . S
C202 H187 0.930 . S
C202 C197 1.390 . S
C202 C201 1.387 . S
H203 C215 0.930 . S
H204 C217 0.930 . S
H205 C218 0.930 . S
H206 C222 0.959 . S
H207 C222 0.959 . S
H208 C222 0.961 . S
H209 C223 0.960 . S
H210 C223 0.961 . S
H211 C223 0.959 . S
H212 C226 0.929 . S
H213 C227 0.931 . S
H214 C229 0.930 . S
C215 H203 0.930 . S
C215 C216 1.399 . S
C215 C220 1.399 . S
C216 C215 1.399 . S
C216 C217 1.376 . S
C217 H204 0.930 . S
C217 C216 1.376 . S
C217 C218 1.388 . S
C218 H205 0.930 . S
C218 C217 1.388 . S
C218 C219 1.390 . S
C219 C218 1.390 . S
C219 C220 1.394 . S
C219 C225 1.465 . S
C220 C215 1.399 . S
C220 C219 1.394 . S
C220 C221 1.516 . S
C221 C220 1.516 . S
C221 C222 1.502 . S
C221 C223 1.561 . S
C221 C224 1.526 . S
C222 H206 0.959 . S
C222 H207 0.959 . S
C222 H208 0.961 . S
C222 C221 1.502 . S
C223 H209 0.960 . S
C223 H210 0.961 . S
C223 H211 0.959 . S
C223 C221 1.561 . S
C224 C221 1.526 . S
C224 C225 1.396 . S
C224 C229 1.390 . S
C225 C219 1.465 . S
C225 C224 1.396 . S
C225 C226 1.399 . S
C226 H212 0.929 . S
C226 C225 1.399 . S
C226 C227 1.385 . S
C227 H213 0.931 . S
C227 C226 1.385 . S
C227 C228 1.389 . S
C228 C227 1.389 . S
C228 C229 1.387 . S
C229 H214 0.930 . S
C229 C224 1.390 . S
C229 C228 1.387 . S
H230 C242 0.930 . S
H231 C244 0.929 . S
H232 C245 0.930 . S
H233 C249 0.959 . S
H234 C249 0.959 . S
H235 C249 0.961 . S
H236 C250 0.960 . S
H237 C250 0.961 1_545 S
H238 C250 0.959 . S
H239 C253 0.929 . S
H240 C254 0.931 . S
H241 C256 0.930 . S
C242 H230 0.930 . S
C242 C243 1.399 . S
C242 C247 1.399 . S
C243 C242 1.399 . S
C243 C244 1.376 . S
C244 H231 0.929 . S
C244 C243 1.376 . S
C244 C245 1.388 . S
C245 H232 0.930 . S
C245 C244 1.388 . S
C245 C246 1.390 . S
C246 C245 1.390 . S
C246 C247 1.394 . S
C246 C252 1.465 . S
C247 C242 1.399 . S
C247 C246 1.394 . S
C247 C248 1.516 . S
C248 C247 1.516 . S
C248 C249 1.502 . S
C248 C250 1.561 . S
C248 C251 1.526 . S
C249 H233 0.959 . S
C249 H234 0.959 . S
C249 H235 0.961 . S
C249 C248 1.502 . S
C250 H236 0.960 . S
C250 H237 0.961 1_565 S
C250 H238 0.959 . S
C250 C248 1.561 . S
C251 C248 1.526 . S
C251 C252 1.396 . S
C251 C256 1.390 . S
C252 C246 1.465 . S
C252 C251 1.396 . S
C252 C253 1.399 . S
C253 H239 0.929 . S
C253 C252 1.399 . S
C253 C254 1.385 . S
C254 H240 0.931 . S
C254 C253 1.385 . S
C254 C255 1.389 . S
C255 C254 1.389 . S
C255 C256 1.387 . S
C256 H241 0.930 . S
C256 C251 1.390 . S
C256 C255 1.387 . S
H257 C269 0.930 . S
H258 C271 0.930 . S
H259 C272 0.930 . S
H260 C276 0.959 . S
H261 C276 0.959 . S
H262 C276 0.961 . S
H263 C277 0.960 . S
H264 C277 0.961 1_556 S
H265 C277 0.959 . S
H266 C280 0.929 1_554 S
H267 C281 0.931 . S
H268 C283 0.930 . S
C269 H257 0.930 . S
C269 C270 1.399 . S
C269 C274 1.399 . S
C270 C269 1.399 . S
C270 C271 1.376 . S
C271 H258 0.930 . S
C271 C270 1.376 . S
C271 C272 1.388 . S
C272 H259 0.930 . S
C272 C271 1.388 . S
C272 C273 1.390 . S
C273 C272 1.390 . S
C273 C274 1.394 . S
C273 C279 1.465 1_554 S
C274 C269 1.399 . S
C274 C273 1.394 . S
C274 C275 1.516 1_554 S
C275 C274 1.516 1_556 S
C275 C276 1.502 . S
C275 C277 1.561 1_556 S
C275 C278 1.526 . S
C276 H260 0.959 . S
C276 H261 0.959 . S
C276 H262 0.961 . S
C276 C275 1.502 . S
C277 H263 0.960 . S
C277 H264 0.961 1_554 S
C277 H265 0.959 . S
C277 C275 1.561 1_554 S
C278 C275 1.526 . S
C278 C279 1.396 . S
C278 C283 1.390 . S
C279 C273 1.465 1_556 S
C279 C278 1.396 . S
C279 C280 1.399 . S
C280 H266 0.929 1_556 S
C280 C279 1.399 . S
C280 C281 1.385 . S
C281 H267 0.931 . S
C281 C280 1.385 . S
C281 C282 1.389 . S
C282 C281 1.389 . S
C282 C283 1.387 . S
C283 H268 0.930 . S
C283 C278 1.390 . S
C283 C282 1.387 . S
H284 C296 0.930 . S
H285 C298 0.930 . S
H286 C299 0.930 . S
H287 C303 0.959 . S
H288 C303 0.959 . S
H289 C303 0.961 . S
H290 C304 0.960 . S
H291 C304 0.961 . S
H292 C304 0.959 . S
H293 C307 0.929 . S
H294 C308 0.931 . S
H295 C310 0.930 . S
C296 H284 0.930 . S
C296 C297 1.399 . S
C296 C301 1.399 . S
C297 C296 1.399 . S
C297 C298 1.376 . S
C298 H285 0.930 . S
C298 C297 1.376 . S
C298 C299 1.388 . S
C299 H286 0.930 . S
C299 C298 1.388 . S
C299 C300 1.390 . S
C300 C299 1.390 . S
C300 C301 1.394 . S
C300 C306 1.465 . S
C301 C296 1.399 . S
C301 C300 1.394 . S
C301 C302 1.516 . S
C302 C301 1.516 . S
C302 C303 1.502 . S
C302 C304 1.561 . S
C302 C305 1.526 . S
C303 H287 0.959 . S
C303 H288 0.959 . S
C303 H289 0.961 . S
C303 C302 1.502 . S
C304 H290 0.960 . S
C304 H291 0.961 . S
C304 H292 0.959 . S
C304 C302 1.561 . S
C305 C302 1.526 . S
C305 C306 1.396 . S
C305 C310 1.390 . S
C306 C300 1.465 . S
C306 C305 1.396 . S
C306 C307 1.399 . S
C307 H293 0.929 . S
C307 C306 1.399 . S
C307 C308 1.385 . S
C308 H294 0.931 . S
C308 C307 1.385 . S
C308 C309 1.389 . S
C309 C308 1.389 . S
C309 C310 1.387 . S
C310 H295 0.930 . S
C310 C305 1.390 . S
C310 C309 1.387 . S
H311 C323 0.930 . S
H312 C325 0.930 . S
H313 C326 0.930 . S
H314 C330 0.959 . S
H315 C330 0.959 . S
H316 C330 0.961 . S
H317 C331 0.960 . S
H318 C331 0.961 . S
H319 C331 0.959 . S
H320 C334 0.929 . S
H321 C335 0.931 . S
H322 C337 0.930 . S
C323 H311 0.930 . S
C323 C324 1.399 . S
C323 C328 1.399 . S
C324 C323 1.399 . S
C324 C325 1.376 . S
C325 H312 0.930 . S
C325 C324 1.376 . S
C325 C326 1.388 . S
C326 H313 0.930 . S
C326 C325 1.388 . S
C326 C327 1.390 . S
C327 C326 1.390 . S
C327 C328 1.394 . S
C327 C333 1.465 . S
C328 C323 1.399 . S
C328 C327 1.394 . S
C328 C329 1.516 . S
C329 C328 1.516 . S
C329 C330 1.502 . S
C329 C331 1.561 . S
C329 C332 1.526 . S
C330 H314 0.959 . S
C330 H315 0.959 . S
C330 H316 0.961 . S
C330 C329 1.502 . S
C331 H317 0.960 . S
C331 H318 0.961 . S
C331 H319 0.959 . S
C331 C329 1.561 . S
C332 C329 1.526 . S
C332 C333 1.396 . S
C332 C337 1.390 . S
C333 C327 1.465 . S
C333 C332 1.396 . S
C333 C334 1.399 . S
C334 H320 0.929 . S
C334 C333 1.399 . S
C334 C335 1.385 . S
C335 H321 0.931 . S
C335 C334 1.385 . S
C335 C336 1.389 . S
C336 C335 1.389 . S
C336 C337 1.387 . S
C337 H322 0.930 . S
C337 C332 1.390 . S
C337 C336 1.387 . S
H338 C350 0.930 . S
H339 C352 0.930 . S
H340 C353 0.930 . S
H341 C357 0.959 . S
H342 C357 0.959 . S
H343 C357 0.961 . S
H344 C358 0.960 . S
H345 C358 0.961 . S
H346 C358 0.959 . S
H347 C361 0.929 . S
H348 C362 0.931 . S
H349 C364 0.930 . S
C350 H338 0.930 . S
C350 C351 1.399 . S
C350 C355 1.399 . S
C351 C350 1.399 . S
C351 C352 1.376 . S
C352 H339 0.930 . S
C352 C351 1.376 . S
C352 C353 1.388 . S
C353 H340 0.930 . S
C353 C352 1.388 . S
C353 C354 1.390 . S
C354 C353 1.390 . S
C354 C355 1.394 . S
C354 C360 1.465 . S
C355 C350 1.399 . S
C355 C354 1.394 . S
C355 C356 1.516 . S
C356 C355 1.516 . S
C356 C357 1.502 . S
C356 C358 1.561 . S
C356 C359 1.526 . S
C357 H341 0.959 . S
C357 H342 0.959 . S
C357 H343 0.961 . S
C357 C356 1.502 . S
C358 H344 0.960 . S
C358 H345 0.961 . S
C358 H346 0.959 . S
C358 C356 1.561 . S
C359 C356 1.526 . S
C359 C360 1.396 . S
C359 C364 1.390 . S
C360 C354 1.465 . S
C360 C359 1.396 . S
C360 C361 1.399 . S
C361 H347 0.929 . S
C361 C360 1.399 . S
C361 C362 1.385 . S
C362 H348 0.931 . S
C362 C361 1.385 . S
C362 C363 1.389 . S
C363 C362 1.389 . S
C363 C364 1.387 . S
C364 H349 0.930 . S
C364 C359 1.390 . S
C364 C363 1.387 . S
H365 C377 0.930 . S
H366 C379 0.930 . S
H367 C380 0.930 . S
H368 C384 0.959 . S
H369 C384 0.959 . S
H370 C384 0.961 . S
H371 C385 0.960 . S
H372 C385 0.961 . S
H373 C385 0.959 . S
H374 C388 0.926 1_554 S
H375 C389 0.931 . S
H376 C391 0.930 . S
C377 H365 0.930 . S
C377 C378 1.399 . S
C377 C382 1.399 . S
C378 C377 1.399 . S
C378 C379 1.376 . S
C379 H366 0.930 . S
C379 C378 1.376 . S
C379 C380 1.388 . S
C380 H367 0.930 . S
C380 C379 1.388 . S
C380 C381 1.390 . S
C381 C380 1.390 . S
C381 C382 1.394 . S
C381 C387 1.465 . S
C382 C377 1.399 . S
C382 C381 1.394 . S
C382 C383 1.516 . S
C383 C382 1.516 . S
C383 C384 1.502 . S
C383 C385 1.561 . S
C383 C386 1.526 . S
C384 H368 0.959 . S
C384 H369 0.959 . S
C384 H370 0.961 . S
C384 C383 1.502 . S
C385 H371 0.960 . S
C385 H372 0.961 . S
C385 H373 0.959 . S
C385 C383 1.561 . S
C386 C383 1.526 . S
C386 C387 1.396 . S
C386 C391 1.390 1_554 S
C387 C381 1.465 . S
C387 C386 1.396 . S
C387 C388 1.380 1_554 S
C388 H374 0.926 1_556 S
C388 C387 1.380 1_556 S
C388 C389 1.407 . S
C389 H375 0.931 . S
C389 C388 1.407 . S
C389 C390 1.389 . S
C390 C389 1.389 . S
C390 C391 1.387 . S
C391 H376 0.930 . S
C391 C386 1.390 1_556 S
C391 C390 1.387 . S
H392 C404 0.930 . S
H393 C406 0.930 . S
H394 C407 0.930 . S
H395 C411 0.959 . S
H396 C411 0.959 . S
H397 C411 0.961 . S
H398 C412 0.960 . S
H399 C412 0.961 . S
H400 C412 0.959 . S
H401 C415 0.929 . S
H402 C416 0.931 . S
H403 C418 0.930 . S
C404 H392 0.930 . S
C404 C405 1.399 . S
C404 C409 1.399 . S
C405 C404 1.399 . S
C405 C406 1.376 . S
C406 H393 0.930 . S
C406 C405 1.376 . S
C406 C407 1.388 . S
C407 H394 0.930 . S
C407 C406 1.388 . S
C407 C408 1.390 . S
C408 C407 1.390 . S
C408 C409 1.394 . S
C408 C414 1.465 . S
C409 C404 1.399 . S
C409 C408 1.394 . S
C409 C410 1.516 . S
C410 C409 1.516 . S
C410 C411 1.502 . S
C410 C412 1.561 . S
C410 C413 1.526 . S
C411 H395 0.959 . S
C411 H396 0.959 . S
C411 H397 0.961 . S
C411 C410 1.502 . S
C412 H398 0.960 . S
C412 H399 0.961 . S
C412 H400 0.959 . S
C412 C410 1.561 . S
C413 C410 1.526 . S
C413 C414 1.396 . S
C413 C418 1.390 . S
C414 C408 1.465 . S
C414 C413 1.396 . S
C414 C415 1.399 . S
C415 H401 0.929 . S
C415 C414 1.399 . S
C415 C416 1.385 . S
C416 H402 0.931 . S
C416 C415 1.385 . S
C416 C417 1.389 . S
C417 C416 1.389 . S
C417 C418 1.387 . S
C418 H403 0.930 . S
C418 C413 1.390 . S
C418 C417 1.387 . S
H419 C431 0.930 . S
H420 C433 0.930 . S
H421 C434 0.930 . S
H422 C438 0.959 . S
H423 C438 0.959 . S
H424 C438 0.961 . S
H425 C439 0.960 . S
H426 C439 0.961 . S
H427 C439 0.959 . S
H428 C442 0.929 . S
H429 C443 0.931 . S
H430 C445 0.930 . S
C431 H419 0.930 . S
C431 C432 1.399 . S
C431 C436 1.399 . S
C432 C431 1.399 . S
C432 C433 1.376 . S
C433 H420 0.930 . S
C433 C432 1.376 . S
C433 C434 1.388 . S
C434 H421 0.930 . S
C434 C433 1.388 . S
C434 C435 1.390 . S
C435 C434 1.390 . S
C435 C436 1.394 . S
C435 C441 1.465 . S
C436 C431 1.399 . S
C436 C435 1.394 . S
C436 C437 1.516 . S
C437 C436 1.516 . S
C437 C438 1.502 . S
C437 C439 1.561 . S
C437 C440 1.526 . S
C438 H422 0.959 . S
C438 H423 0.959 . S
C438 H424 0.961 . S
C438 C437 1.502 . S
C439 H425 0.960 . S
C439 H426 0.961 . S
C439 H427 0.959 . S
C439 C437 1.561 . S
C440 C437 1.526 . S
C440 C441 1.396 . S
C440 C445 1.390 . S
C441 C435 1.465 . S
C441 C440 1.396 . S
C441 C442 1.399 . S
C442 H428 0.929 . S
C442 C441 1.399 . S
C442 C443 1.385 . S
C443 H429 0.931 . S
C443 C442 1.385 . S
C443 C444 1.389 . S
C444 C443 1.389 . S
C444 C445 1.387 . S
C445 H430 0.930 . S
C445 C440 1.390 . S
C445 C444 1.387 . S
H446 C458 0.930 . S
H447 C460 0.930 . S
H448 C461 0.930 . S
H449 C465 0.959 . S
H450 C465 0.959 . S
H451 C465 0.961 . S
H452 C466 0.960 . S
H453 C466 0.961 . S
H454 C466 0.959 . S
H455 C469 0.929 . S
H456 C470 0.931 1_545 S
H457 C472 0.930 . S
C458 H446 0.930 . S
C458 C459 1.399 1_556 S
C458 C463 1.399 . S
C459 C458 1.399 1_554 S
C459 C460 1.376 . S
C460 H447 0.930 . S
C460 C459 1.376 . S
C460 C461 1.388 . S
C461 H448 0.930 . S
C461 C460 1.388 . S
C461 C462 1.390 1_554 S
C462 C461 1.390 1_556 S
C462 C463 1.394 . S
C462 C468 1.465 . S
C463 C458 1.399 . S
C463 C462 1.394 . S
C463 C464 1.516 . S
C464 C463 1.516 . S
C464 C465 1.502 . S
C464 C466 1.561 . S
C464 C467 1.526 . S
C465 H449 0.959 . S
C465 H450 0.959 . S
C465 H451 0.961 . S
C465 C464 1.502 . S
C466 H452 0.960 . S
C466 H453 0.961 . S
C466 H454 0.959 . S
C466 C464 1.561 . S
C467 C464 1.526 . S
C467 C468 1.396 . S
C467 C472 1.390 . S
C468 C462 1.465 . S
C468 C467 1.396 . S
C468 C469 1.399 . S
C469 H455 0.929 . S
C469 C468 1.399 . S
C469 C470 1.385 . S
C470 H456 0.931 1_565 S
C470 C469 1.385 . S
C470 C471 1.389 . S
C471 C470 1.389 . S
C471 C472 1.387 . S
C472 H457 0.930 . S
C472 C467 1.390 . S
C472 C471 1.387 . S
H473 C485 0.930 . S
H474 C487 0.930 . S
H475 C488 0.930 . S
H476 C492 0.959 . S
H477 C492 0.959 . S
H478 C492 0.961 . S
H479 C493 0.960 . S
H480 C493 0.961 . S
H481 C493 0.959 . S
H482 C496 0.929 . S
H483 C497 0.931 . S
H484 C499 0.930 . S
C485 H473 0.930 . S
C485 C486 1.399 . S
C485 C490 1.399 . S
C486 C485 1.399 . S
C486 C487 1.376 . S
C487 H474 0.930 . S
C487 C486 1.376 . S
C487 C488 1.388 . S
C488 H475 0.930 . S
C488 C487 1.388 . S
C488 C489 1.390 . S
C489 C488 1.390 . S
C489 C490 1.394 . S
C489 C495 1.465 . S
C490 C485 1.399 . S
C490 C489 1.394 . S
C490 C491 1.516 . S
C491 C490 1.516 . S
C491 C492 1.502 . S
C491 C493 1.561 . S
C491 C494 1.526 . S
C492 H476 0.959 . S
C492 H477 0.959 . S
C492 H478 0.961 . S
C492 C491 1.502 . S
C493 H479 0.960 . S
C493 H480 0.961 . S
C493 H481 0.959 . S
C493 C491 1.561 . S
C494 C491 1.526 . S
C494 C495 1.396 . S
C494 C499 1.390 . S
C495 C489 1.465 . S
C495 C494 1.396 . S
C495 C496 1.399 . S
C496 H482 0.929 . S
C496 C495 1.399 . S
C496 C497 1.385 . S
C497 H483 0.931 . S
C497 C496 1.385 . S
C497 C498 1.389 . S
C498 C497 1.389 . S
C498 C499 1.387 . S
C499 H484 0.930 . S
C499 C494 1.390 . S
C499 C498 1.387 . S
H500 C512 0.930 . S
H501 C514 0.930 . S
H502 C515 0.930 . S
H503 C519 0.959 . S
H504 C519 0.950 1_554 S
H505 C519 0.961 . S
H506 C520 0.960 1_556 S
H507 C520 0.961 . S
H508 C520 0.959 . S
H509 C523 0.929 . S
H510 C524 0.931 . S
H511 C526 0.930 . S
C512 H500 0.930 . S
C512 C513 1.399 . S
C512 C517 1.399 . S
C513 C512 1.399 . S
C513 C514 1.376 . S
C514 H501 0.930 . S
C514 C513 1.376 . S
C514 C515 1.388 . S
C515 H502 0.930 . S
C515 C514 1.388 . S
C515 C516 1.390 . S
C516 C515 1.390 . S
C516 C517 1.394 . S
C516 C522 1.465 1_556 S
C517 C512 1.399 . S
C517 C516 1.394 . S
C517 C518 1.516 . S
C518 C517 1.516 . S
C518 C519 1.502 . S
C518 C520 1.561 1_556 S
C518 C521 1.526 1_556 S
C519 H503 0.959 . S
C519 H504 0.950 1_556 S
C519 H505 0.961 . S
C519 C518 1.502 . S
C520 H506 0.960 1_554 S
C520 H507 0.961 . S
C520 H508 0.959 . S
C520 C518 1.561 1_554 S
C521 C518 1.526 1_554 S
C521 C522 1.396 . S
C521 C526 1.390 . S
C522 C516 1.465 1_554 S
C522 C521 1.396 . S
C522 C523 1.399 . S
C523 H509 0.929 . S
C523 C522 1.399 . S
C523 C524 1.385 . S
C524 H510 0.931 . S
C524 C523 1.385 . S
C524 C525 1.389 . S
C525 C524 1.389 . S
C525 C526 1.387 . S
C526 H511 0.930 . S
C526 C521 1.390 . S
C526 C525 1.387 . S
H527 C539 0.930 . S
H528 C541 0.930 . S
H529 C542 0.930 . S
H530 C546 0.959 . S
H531 C546 0.959 . S
H532 C546 0.961 . S
H533 C547 0.960 . S
H534 C547 0.961 . S
H535 C547 0.959 . S
H536 C550 0.929 . S
H537 C551 0.931 . S
H538 C553 0.930 . S
C539 H527 0.930 . S
C539 C540 1.399 . S
C539 C544 1.399 . S
C540 C539 1.399 . S
C540 C541 1.376 . S
C541 H528 0.930 . S
C541 C540 1.376 . S
C541 C542 1.388 . S
C542 H529 0.930 . S
C542 C541 1.388 . S
C542 C543 1.390 . S
C543 C542 1.390 . S
C543 C544 1.394 . S
C543 C549 1.465 . S
C544 C539 1.399 . S
C544 C543 1.394 . S
C544 C545 1.516 . S
C545 C544 1.516 . S
C545 C546 1.502 . S
C545 C547 1.561 . S
C545 C548 1.526 . S
C546 H530 0.959 . S
C546 H531 0.959 . S
C546 H532 0.961 . S
C546 C545 1.502 . S
C547 H533 0.960 . S
C547 H534 0.961 . S
C547 H535 0.959 . S
C547 C545 1.561 . S
C548 C545 1.526 . S
C548 C549 1.396 . S
C548 C553 1.390 . S
C549 C543 1.465 . S
C549 C548 1.396 . S
C549 C550 1.399 . S
C550 H536 0.929 . S
C550 C549 1.399 . S
C550 C551 1.385 . S
C551 H537 0.931 . S
C551 C550 1.385 . S
C551 C552 1.389 . S
C552 C551 1.389 . S
C552 C553 1.387 . S
C553 H538 0.930 . S
C553 C548 1.390 . S
C553 C552 1.387 . S
H554 C566 0.930 . S
H555 C568 0.930 . S
H556 C569 0.930 . S
H557 C573 0.959 . S
H558 C573 0.959 . S
H559 C573 0.961 . S
H560 C574 0.960 . S
H561 C574 0.961 . S
H562 C574 0.959 . S
H563 C577 0.929 . S
H564 C578 0.931 . S
H565 C580 0.930 . S
C566 H554 0.930 . S
C566 C567 1.399 . S
C566 C571 1.399 . S
C567 C566 1.399 . S
C567 C568 1.376 . S
C568 H555 0.930 . S
C568 C567 1.376 . S
C568 C569 1.388 . S
C569 H556 0.930 . S
C569 C568 1.388 . S
C569 C570 1.390 . S
C570 C569 1.390 . S
C570 C571 1.394 . S
C570 C576 1.465 . S
C571 C566 1.399 . S
C571 C570 1.394 . S
C571 C572 1.516 . S
C572 C571 1.516 . S
C572 C573 1.502 . S
C572 C574 1.561 . S
C572 C575 1.526 . S
C573 H557 0.959 . S
C573 H558 0.959 . S
C573 H559 0.961 . S
C573 C572 1.502 . S
C574 H560 0.960 . S
C574 H561 0.961 . S
C574 H562 0.959 . S
C574 C572 1.561 . S
C575 C572 1.526 . S
C575 C576 1.396 . S
C575 C580 1.390 . S
C576 C570 1.465 . S
C576 C575 1.396 . S
C576 C577 1.399 . S
C577 H563 0.929 . S
C577 C576 1.399 . S
C577 C578 1.385 . S
C578 H564 0.931 . S
C578 C577 1.385 . S
C578 C579 1.389 . S
C579 C578 1.389 . S
C579 C580 1.387 . S
C580 H565 0.930 . S
C580 C575 1.390 . S
C580 C579 1.387 . S
H581 C593 0.930 . S
H582 C595 0.930 . S
H583 C596 0.930 . S
H584 C600 0.959 . S
H585 C600 0.959 . S
H586 C600 0.961 . S
H587 C601 0.960 . S
H588 C601 0.961 . S
H589 C601 0.959 . S
H590 C604 0.929 . S
H591 C605 0.931 . S
H592 C607 0.930 . S
C593 H581 0.930 . S
C593 C594 1.399 . S
C593 C598 1.399 . S
C594 C593 1.399 . S
C594 C595 1.376 . S
C595 H582 0.930 . S
C595 C594 1.376 . S
C595 C596 1.388 . S
C596 H583 0.930 . S
C596 C595 1.388 . S
C596 C597 1.390 . S
C597 C596 1.390 . S
C597 C598 1.394 . S
C597 C603 1.465 . S
C598 C593 1.399 . S
C598 C597 1.394 . S
C598 C599 1.516 . S
C599 C598 1.516 . S
C599 C600 1.502 . S
C599 C601 1.561 . S
C599 C602 1.526 . S
C600 H584 0.959 . S
C600 H585 0.959 . S
C600 H586 0.961 . S
C600 C599 1.502 . S
C601 H587 0.960 . S
C601 H588 0.961 . S
C601 H589 0.959 . S
C601 C599 1.561 . S
C602 C599 1.526 . S
C602 C603 1.396 . S
C602 C607 1.390 . S
C603 C597 1.465 . S
C603 C602 1.396 . S
C603 C604 1.399 . S
C604 H590 0.929 . S
C604 C603 1.399 . S
C604 C605 1.385 . S
C605 H591 0.931 . S
C605 C604 1.385 . S
C605 C606 1.389 . S
C606 C605 1.389 . S
C606 C607 1.387 . S
C607 H592 0.930 . S
C607 C602 1.390 . S
C607 C606 1.387 . S
H608 C620 0.930 . S
H609 C622 0.930 . S
H610 C623 0.930 . S
H611 C627 0.959 . S
H612 C627 0.959 . S
H613 C627 0.961 . S
H614 C628 0.960 . S
H615 C628 0.961 . S
H616 C628 0.959 . S
H617 C631 0.929 1_545 S
H618 C632 0.931 . S
H619 C634 0.930 . S
C620 H608 0.930 . S
C620 C621 1.399 . S
C620 C625 1.399 . S
C621 C620 1.399 . S
C621 C622 1.376 . S
C622 H609 0.930 . S
C622 C621 1.376 . S
C622 C623 1.388 . S
C623 H610 0.930 . S
C623 C622 1.388 . S
C623 C624 1.390 . S
C624 C623 1.390 . S
C624 C625 1.394 . S
C624 C630 1.465 1_545 S
C625 C620 1.399 . S
C625 C624 1.394 . S
C625 C626 1.516 1_545 S
C626 C625 1.516 1_565 S
C626 C627 1.502 . S
C626 C628 1.561 . S
C626 C629 1.526 . S
C627 H611 0.959 . S
C627 H612 0.959 . S
C627 H613 0.961 . S
C627 C626 1.502 . S
C628 H614 0.960 . S
C628 H615 0.961 . S
C628 H616 0.959 . S
C628 C626 1.561 . S
C629 C626 1.526 . S
C629 C630 1.396 . S
C629 C634 1.390 . S
C630 C624 1.465 1_565 S
C630 C629 1.396 . S
C630 C631 1.399 . S
C631 H617 0.929 1_565 S
C631 C630 1.399 . S
C631 C632 1.385 . S
C632 H618 0.931 . S
C632 C631 1.385 . S
C632 C633 1.389 . S
C633 C632 1.389 . S
C633 C634 1.387 . S
C634 H619 0.930 . S
C634 C629 1.390 . S
C634 C633 1.387 . S
H635 C647 0.930 . S
H636 C649 0.930 . S
H637 C650 0.930 . S
H638 C654 0.959 . S
H639 C654 0.959 . S
H640 C654 0.961 . S
H641 C655 0.960 . S
H642 C655 0.961 . S
H643 C655 0.959 . S
H644 C658 0.929 . S
H645 C659 0.931 . S
H646 C661 0.930 . S
C647 H635 0.930 . S
C647 C648 1.399 . S
C647 C652 1.399 . S
C648 C647 1.399 . S
C648 C649 1.376 . S
C649 H636 0.930 . S
C649 C648 1.376 . S
C649 C650 1.388 . S
C650 H637 0.930 . S
C650 C649 1.388 . S
C650 C651 1.390 . S
C651 C650 1.390 . S
C651 C652 1.394 . S
C651 C657 1.465 . S
C652 C647 1.399 . S
C652 C651 1.394 . S
C652 C653 1.516 . S
C653 C652 1.516 . S
C653 C654 1.502 . S
C653 C655 1.561 . S
C653 C656 1.526 . S
C654 H638 0.959 . S
C654 H639 0.959 . S
C654 H640 0.961 . S
C654 C653 1.502 . S
C655 H641 0.960 . S
C655 H642 0.961 . S
C655 H643 0.959 . S
C655 C653 1.561 . S
C656 C653 1.526 . S
C656 C657 1.396 . S
C656 C661 1.390 . S
C657 C651 1.465 . S
C657 C656 1.396 . S
C657 C658 1.399 . S
C658 H644 0.929 . S
C658 C657 1.399 . S
C658 C659 1.385 . S
C659 H645 0.931 . S
C659 C658 1.385 . S
C659 C660 1.389 . S
C660 C659 1.389 . S
C660 C661 1.387 . S
C661 H646 0.930 . S
C661 C656 1.390 . S
C661 C660 1.387 . S
H662 C674 0.930 . S
H663 C676 0.930 . S
H664 C677 0.930 1_565 S
H665 C681 0.959 . S
H666 C681 0.959 . S
H667 C681 0.961 . S
H668 C682 0.960 . S
H669 C682 0.961 1_565 S
H670 C682 0.959 1_565 S
H671 C685 0.929 . S
H672 C686 0.931 . S
H673 C688 0.930 . S
C674 H662 0.930 . S
C674 C675 1.399 . S
C674 C679 1.399 . S
C675 C674 1.399 . S
C675 C676 1.376 . S
C676 H663 0.930 . S
C676 C675 1.376 . S
C676 C677 1.388 . S
C677 H664 0.930 1_545 S
C677 C676 1.388 . S
C677 C678 1.390 . S
C678 C677 1.390 . S
C678 C679 1.394 . S
C678 C684 1.465 1_545 S
C679 C674 1.399 . S
C679 C678 1.394 . S
C679 C680 1.516 . S
C680 C679 1.516 . S
C680 C681 1.502 . S
C680 C682 1.561 . S
C680 C683 1.526 1_545 S
C681 H665 0.959 . S
C681 H666 0.959 . S
C681 H667 0.961 . S
C681 C680 1.502 . S
C682 H668 0.960 . S
C682 H669 0.961 1_545 S
C682 H670 0.959 1_545 S
C682 C680 1.561 . S
C683 C680 1.526 1_565 S
C683 C684 1.396 . S
C683 C688 1.390 . S
C684 C678 1.465 1_565 S
C684 C683 1.396 . S
C684 C685 1.399 . S
C685 H671 0.929 . S
C685 C684 1.399 . S
C685 C686 1.385 . S
C686 H672 0.931 . S
C686 C685 1.385 . S
C686 C687 1.389 . S
C687 C686 1.389 . S
C687 C688 1.387 . S
C688 H673 0.930 . S
C688 C683 1.390 . S
C688 C687 1.387 . S
H689 C701 0.930 . S
H690 C703 0.930 . S
H691 C704 0.930 . S
H692 C708 0.959 . S
H693 C708 0.959 . S
H694 C708 0.961 . S
H695 C709 0.960 . S
H696 C709 0.961 . S
H697 C709 0.959 . S
H698 C712 0.929 . S
H699 C713 0.931 . S
H700 C715 0.930 . S
C701 H689 0.930 . S
C701 C702 1.399 . S
C701 C706 1.399 . S
C702 C701 1.399 . S
C702 C703 1.376 . S
C703 H690 0.930 . S
C703 C702 1.376 . S
C703 C704 1.388 . S
C704 H691 0.930 . S
C704 C703 1.388 . S
C704 C705 1.390 . S
C705 C704 1.390 . S
C705 C706 1.394 . S
C705 C711 1.465 . S
C706 C701 1.399 . S
C706 C705 1.394 . S
C706 C707 1.516 . S
C707 C706 1.516 . S
C707 C708 1.502 . S
C707 C709 1.561 . S
C707 C710 1.526 . S
C708 H692 0.959 . S
C708 H693 0.959 . S
C708 H694 0.961 . S
C708 C707 1.502 . S
C709 H695 0.960 . S
C709 H696 0.961 . S
C709 H697 0.959 . S
C709 C707 1.561 . S
C710 C707 1.526 . S
C710 C711 1.396 . S
C710 C715 1.390 . S
C711 C705 1.465 . S
C711 C710 1.396 . S
C711 C712 1.399 . S
C712 H698 0.929 . S
C712 C711 1.399 . S
C712 C713 1.385 . S
C713 H699 0.931 . S
C713 C712 1.385 . S
C713 C714 1.389 . S
C714 C713 1.389 . S
C714 C715 1.387 . S
C715 H700 0.930 . S
C715 C710 1.390 . S
C715 C714 1.387 . S
H716 C728 0.930 . S
H717 C730 0.930 . S
H718 C731 0.930 . S
H719 C735 0.959 . S
H720 C735 0.959 . S
H721 C735 0.961 . S
H722 C736 0.960 . S
H723 C736 0.961 . S
H724 C736 0.959 . S
H725 C739 0.929 . S
H726 C740 0.931 . S
H727 C742 0.930 . S
C728 H716 0.930 . S
C728 C729 1.399 . S
C728 C733 1.399 . S
C729 C728 1.399 . S
C729 C730 1.376 . S
C730 H717 0.930 . S
C730 C729 1.376 . S
C730 C731 1.388 . S
C731 H718 0.930 . S
C731 C730 1.388 . S
C731 C732 1.390 . S
C732 C731 1.390 . S
C732 C733 1.394 . S
C732 C738 1.465 . S
C733 C728 1.399 . S
C733 C732 1.394 . S
C733 C734 1.516 . S
C734 C733 1.516 . S
C734 C735 1.502 . S
C734 C736 1.561 . S
C734 C737 1.526 . S
C735 H719 0.959 . S
C735 H720 0.959 . S
C735 H721 0.961 . S
C735 C734 1.502 . S
C736 H722 0.960 . S
C736 H723 0.961 . S
C736 H724 0.959 . S
C736 C734 1.561 . S
C737 C734 1.526 . S
C737 C738 1.396 . S
C737 C742 1.390 . S
C738 C732 1.465 . S
C738 C737 1.396 . S
C738 C739 1.399 . S
C739 H725 0.929 . S
C739 C738 1.399 . S
C739 C740 1.385 . S
C740 H726 0.931 . S
C740 C739 1.385 . S
C740 C741 1.389 . S
C741 C740 1.389 . S
C741 C742 1.387 . S
C742 H727 0.930 . S
C742 C737 1.390 . S
C742 C741 1.387 . S
H743 C755 0.930 . S
H744 C757 0.930 . S
H745 C758 0.922 1_655 S
H746 C762 0.959 . S
H747 C762 0.959 . S
H748 C762 0.961 . S
H749 C763 0.960 . S
H750 C763 0.961 . S
H751 C763 0.959 . S
H752 C766 0.929 . S
H753 C767 0.931 . S
H754 C769 0.930 . S
C755 H743 0.930 . S
C755 C756 1.399 . S
C755 C760 1.399 . S
C756 C755 1.399 . S
C756 C757 1.376 . S
C757 H744 0.930 . S
C757 C756 1.376 . S
C757 C758 1.396 . S
C758 H745 0.922 1_455 S
C758 C757 1.396 . S
C758 C759 1.390 . S
C759 C758 1.390 . S
C759 C760 1.403 . S
C759 C765 1.457 1_455 S
C760 C755 1.399 . S
C760 C759 1.403 . S
C760 C761 1.516 . S
C761 C760 1.516 . S
C761 C762 1.502 . S
C761 C763 1.561 . S
C761 C764 1.526 1_455 S
C762 H746 0.959 . S
C762 H747 0.959 . S
C762 H748 0.961 . S
C762 C761 1.502 . S
C763 H749 0.960 . S
C763 H750 0.961 . S
C763 H751 0.959 . S
C763 C761 1.561 . S
C764 C761 1.526 1_655 S
C764 C765 1.396 . S
C764 C769 1.390 . S
C765 C759 1.457 1_655 S
C765 C764 1.396 . S
C765 C766 1.399 . S
C766 H752 0.929 . S
C766 C765 1.399 . S
C766 C767 1.385 . S
C767 H753 0.931 . S
C767 C766 1.385 . S
C767 C768 1.389 . S
C768 C767 1.389 . S
C768 C769 1.387 . S
C769 H754 0.930 . S
C769 C764 1.390 . S
C769 C768 1.387 . S
H770 C782 0.930 . S
H771 C784 0.930 . S
H772 C785 0.930 . S
H773 C789 0.959 . S
H774 C789 0.959 . S
H775 C789 0.961 . S
H776 C790 0.960 . S
H777 C790 0.961 . S
H778 C790 0.959 . S
H779 C793 0.929 . S
H780 C794 0.931 . S
H781 C796 0.930 . S
C782 H770 0.930 . S
C782 C783 1.399 . S
C782 C787 1.399 . S
C783 C782 1.399 . S
C783 C784 1.376 . S
C784 H771 0.930 . S
C784 C783 1.376 . S
C784 C785 1.388 . S
C785 H772 0.930 . S
C785 C784 1.388 . S
C785 C786 1.390 . S
C786 C785 1.390 . S
C786 C787 1.394 . S
C786 C792 1.465 . S
C787 C782 1.399 . S
C787 C786 1.394 . S
C787 C788 1.516 . S
C788 C787 1.516 . S
C788 C789 1.502 . S
C788 C790 1.561 . S
C788 C791 1.526 . S
C789 H773 0.959 . S
C789 H774 0.959 . S
C789 H775 0.961 . S
C789 C788 1.502 . S
C790 H776 0.960 . S
C790 H777 0.961 . S
C790 H778 0.959 . S
C790 C788 1.561 . S
C791 C788 1.526 . S
C791 C792 1.396 . S
C791 C796 1.390 . S
C792 C786 1.465 . S
C792 C791 1.396 . S
C792 C793 1.399 . S
C793 H779 0.929 . S
C793 C792 1.399 . S
C793 C794 1.385 . S
C794 H780 0.931 . S
C794 C793 1.385 . S
C794 C795 1.389 . S
C795 C794 1.389 . S
C795 C796 1.387 . S
C796 H781 0.930 . S
C796 C791 1.390 . S
C796 C795 1.387 . S
H797 C809 0.930 . S
H798 C811 0.930 . S
H799 C812 0.930 . S
H800 C816 0.959 . S
H801 C816 0.959 . S
H802 C816 0.961 . S
H803 C817 0.960 . S
H804 C817 0.961 . S
H805 C817 0.959 . S
H806 C820 0.929 1_655 S
H807 C821 0.931 . S
H808 C823 0.930 . S
C809 H797 0.930 . S
C809 C810 1.399 . S
C809 C814 1.399 . S
C810 C809 1.399 . S
C810 C811 1.376 . S
C811 H798 0.930 . S
C811 C810 1.376 . S
C811 C812 1.388 . S
C812 H799 0.930 . S
C812 C811 1.388 . S
C812 C813 1.390 . S
C813 C812 1.390 . S
C813 C814 1.394 . S
C813 C819 1.465 1_655 S
C814 C809 1.399 . S
C814 C813 1.394 . S
C814 C815 1.516 1_655 S
C815 C814 1.516 1_455 S
C815 C816 1.502 . S
C815 C817 1.561 . S
C815 C818 1.526 . S
C816 H800 0.959 . S
C816 H801 0.959 . S
C816 H802 0.961 . S
C816 C815 1.502 . S
C817 H803 0.960 . S
C817 H804 0.961 . S
C817 H805 0.959 . S
C817 C815 1.561 . S
C818 C815 1.526 . S
C818 C819 1.396 . S
C818 C823 1.390 . S
C819 C813 1.465 1_455 S
C819 C818 1.396 . S
C819 C820 1.399 . S
C820 H806 0.929 1_455 S
C820 C819 1.399 . S
C820 C821 1.385 . S
C821 H807 0.931 . S
C821 C820 1.385 . S
C821 C822 1.389 . S
C822 C821 1.389 . S
C822 C823 1.387 . S
C823 H808 0.930 . S
C823 C818 1.390 . S
C823 C822 1.387 . S
C189 C8 1.560 . S
C201 C162 1.571 . S
C216 C32 1.585 . S
C228 C106 1.578 . S
C243 C52 1.562 . S
C255 C120 1.574 . S
C270 C142 1.564 . S
C282 C84 1.556 . S
C297 C10 1.302 . S
C309 C37 1.346 . S
C324 C65 1.365 . S
C336 C40 1.322 . S
C351 C73 1.346 . S
C363 C54 1.303 . S
C378 C21 1.345 . S
C390 C74 1.340 . S
C405 C96 1.332 . S
C417 C175 1.345 . S
C432 C128 1.358 . S
C444 C95 1.352 . S
C459 C150 1.309 . S
C471 C125 1.345 . S
C486 C147 1.360 . S
C498 C164 1.298 . S
C513 C131 0.752 . S
C525 C7 0.735 . S
C540 C153 0.721 . S
C552 C43 0.694 . S
C567 C161 0.747 . S
C579 C51 0.752 . S
C594 C103 0.731 . S
C606 C81 0.704 . S
C621 C18 1.514 . S
C633 C139 1.561 . S
C648 C30 1.553 . S
C660 C169 1.572 . S
C675 C109 1.555 . S
C687 C62 1.514 . S
C702 C117 1.551 . S
C714 C76 1.514 . S
C729 C59 1.570 . S
C741 C98 1.557 . S
C756 C118 1.576 . S
C768 C87 1.514 . S
C783 C140 1.516 . S
C795 C15 1.539 . S
C810 C172 1.515 . S
C822 C29 1.542 . S
