# Generated by pormake.
# Topology sml, (6)-cn, num edge types: 1
# Building blocks:
#     Node 0, Type 0, BuildingBlock: BETDAH_clean_sbu_0, # of connection points: 6
#     Node 1, Type 0, BuildingBlock: BETDAH_clean_sbu_0, # of connection points: 6
#     Node 2, Type 0, BuildingBlock: BETDAH_clean_sbu_0, # of connection points: 6
#     Node 3, Type 0, BuildingBlock: BETDAH_clean_sbu_0, # of connection points: 6
#     Node 4, Type 0, BuildingBlock: BETDAH_clean_sbu_0, # of connection points: 6
#     Node 5, Type 0, BuildingBlock: BETDAH_clean_sbu_0, # of connection points: 6
#     Edge 6, Type (0, 0), BuildingBlock: CIFDUS_clean_linker_0, # of connection points: 2
#     Edge 7, Type (0, 0), BuildingBlock: CIFDUS_clean_linker_0, # of connection points: 2
#     Edge 8, Type (0, 0), BuildingBlock: CIFDUS_clean_linker_0, # of connection points: 2
#     Edge 9, Type (0, 0), BuildingBlock: CIFDUS_clean_linker_0, # of connection points: 2
#     Edge 10, Type (0, 0), BuildingBlock: CIFDUS_clean_linker_0, # of connection points: 2
#     Edge 11, Type (0, 0), BuildingBlock: CIFDUS_clean_linker_0, # of connection points: 2
#     Edge 12, Type (0, 0), BuildingBlock: CIFDUS_clean_linker_0, # of connection points: 2
#     Edge 13, Type (0, 0), BuildingBlock: CIFDUS_clean_linker_0, # of connection points: 2
#     Edge 14, Type (0, 0), BuildingBlock: CIFDUS_clean_linker_0, # of connection points: 2
#     Edge 15, Type (0, 0), BuildingBlock: CIFDUS_clean_linker_0, # of connection points: 2
#     Edge 16, Type (0, 0), BuildingBlock: CIFDUS_clean_linker_0, # of connection points: 2
#     Edge 17, Type (0, 0), BuildingBlock: CIFDUS_clean_linker_0, # of connection points: 2
#     Edge 18, Type (0, 0), BuildingBlock: CIFDUS_clean_linker_0, # of connection points: 2
#     Edge 19, Type (0, 0), BuildingBlock: CIFDUS_clean_linker_0, # of connection points: 2
#     Edge 20, Type (0, 0), BuildingBlock: CIFDUS_clean_linker_0, # of connection points: 2
#     Edge 21, Type (0, 0), BuildingBlock: CIFDUS_clean_linker_0, # of connection points: 2
#     Edge 22, Type (0, 0), BuildingBlock: CIFDUS_clean_linker_0, # of connection points: 2
#     Edge 23, Type (0, 0), BuildingBlock: CIFDUS_clean_linker_0, # of connection points: 2
# Relax obj value: 0.204
# Max RMSD: 0.235
# Mean RMSD: 0.235
data_MOF--net-sml--node1-BETDAH_clean_sbu_0--edge1-CIFDUS_clean_linker_0
_symmetry_space_group_name_H-M    P1
_symmetry_Int_Tables_number       1
_symmetry_cell_setting            triclinic
loop_
_symmetry_equiv_pos_as_xyz
'x, y, z'
_cell_length_a     27.039779
_cell_length_b     27.051267
_cell_length_c     23.191071
_cell_angle_alpha  89.571982
_cell_angle_beta   90.093206
_cell_angle_gamma 119.72143
loop_
_atom_site_label
_atom_site_type_symbol
_atom_site_fract_x
_atom_site_fract_y
_atom_site_fract_z
_atom_type_partial_charge
Ho0 Ho 0.16408 0.43161 0.1228 0.0
Ho1 Ho 0.22369 0.40814 0.22878 0.0
C2 C 0.20262 0.33413 0.11799 0.0
C3 C 0.14342 0.45603 0.02064 0.0
C4 C 0.15908 0.45093 0.96109 0.0
C5 C 0.19793 0.43203 0.94971 0.0
C6 C 0.21029 0.42486 0.89278 0.0
C7 C 0.18458 0.43726 0.84626 0.0
C8 C 0.14678 0.45755 0.85803 0.0
C9 C 0.134 0.46408 0.91494 0.0
C10 C 0.09308 0.36541 0.20627 0.0
C11 C 0.18041 0.50179 0.2364 0.0
C12 C 0.25577 0.392 0.32923 0.0
C13 C 0.24707 0.40207 0.38988 0.0
C14 C 0.22021 0.4334 0.40405 0.0
C15 C 0.21323 0.44349 0.46173 0.0
C16 C 0.23391 0.42336 0.50669 0.0
C17 C 0.26118 0.39225 0.49204 0.0
C18 C 0.26742 0.38155 0.43427 0.0
C19 C 0.29159 0.4724 0.1421 0.0
O20 O 0.19253 0.37124 0.09016 0.0
O21 O 0.2084 0.33448 0.17461 0.0
O22 O 0.10996 0.40808 0.04752 0.0
O23 O 0.18481 0.49252 0.0533 0.0
O24 O 0.08135 0.39593 0.17135 0.0
O25 O 0.13838 0.36659 0.1909 0.0
O26 O 0.19542 0.4676 0.26244 0.0
O27 O 0.17023 0.50032 0.18048 0.0
O28 O 0.28547 0.4376 0.29759 0.0
O29 O 0.21138 0.35258 0.30196 0.0
O30 O 0.30158 0.43797 0.17272 0.0
O31 O 0.24886 0.47364 0.16157 0.0
H32 H 0.21841 0.42251 0.9848 0.0
H33 H 0.24009 0.40981 0.88513 0.0
H34 H 0.12592 0.467 0.82323 0.0
H35 H 0.10401 0.47884 0.92293 0.0
H36 H 0.20476 0.45034 0.37067 0.0
H37 H 0.19125 0.46683 0.47093 0.0
H38 H 0.27868 0.37693 0.52508 0.0
H39 H 0.28883 0.35779 0.42423 0.0
Ho40 Ho 0.80224 0.24201 0.55014 0.0
Ho41 Ho 0.74933 0.15649 0.44468 0.0
C42 C 0.77685 0.1106 0.55991 0.0
C43 C 0.82108 0.29004 0.65004 0.0
C44 C 0.80943 0.27363 0.71168 0.0
C45 C 0.7933 0.30439 0.74807 0.0
C46 C 0.78562 0.29232 0.80725 0.0
C47 C 0.79396 0.24913 0.83148 0.0
C48 C 0.80859 0.21724 0.79456 0.0
C49 C 0.81639 0.22947 0.73533 0.0
C50 C 0.87516 0.25373 0.46566 0.0
C51 C 0.77335 0.28761 0.43526 0.0
C52 C 0.73 0.10739 0.34523 0.0
C53 C 0.73986 0.12314 0.28341 0.0
C54 C 0.75185 0.09 0.24594 0.0
C55 C 0.75802 0.1016 0.18667 0.0
C56 C 0.75203 0.14656 0.16329 0.0
C57 C 0.74143 0.1807 0.20133 0.0
C58 C 0.73553 0.16918 0.26078 0.0
C59 C 0.67727 0.14499 0.53003 0.0
O60 O 0.78327 0.15674 0.58635 0.0
O61 O 0.76975 0.10347 0.5035 0.0
O62 O 0.85726 0.27891 0.62366 0.0
O63 O 0.77726 0.28016 0.61789 0.0
O64 O 0.88279 0.29511 0.49922 0.0
O65 O 0.83336 0.20778 0.48285 0.0
O66 O 0.7633 0.24016 0.40921 0.0
O67 O 0.78465 0.29717 0.49092 0.0
O68 O 0.69332 0.11726 0.37229 0.0
O69 O 0.77495 0.11933 0.3764 0.0
O70 O 0.66926 0.10339 0.49651 0.0
O71 O 0.71816 0.19094 0.51159 0.0
H72 H 0.78741 0.33845 0.7308 0.0
H73 H 0.77336 0.31706 0.83411 0.0
H74 H 0.81584 0.18401 0.81167 0.0
H75 H 0.82909 0.20527 0.70828 0.0
H76 H 0.75574 0.05451 0.26248 0.0
H77 H 0.76739 0.07511 0.15914 0.0
H78 H 0.7361 0.21539 0.18509 0.0
H79 H 0.72658 0.19564 0.28885 0.0
Ho80 Ho 0.56443 0.74894 0.79842 0.0
Ho81 Ho 0.59954 0.82163 0.91158 0.0
C82 C 0.67639 0.87285 0.79519 0.0
C83 C 0.5193 0.70012 0.70178 0.0
C84 C 0.52667 0.72017 0.64152 0.0
C85 C 0.49524 0.68225 0.59755 0.0
C86 C 0.50401 0.7004 0.53988 0.0
C87 C 0.54443 0.7569 0.52518 0.0
C88 C 0.57517 0.79499 0.56969 0.0
C89 C 0.5664 0.77675 0.62725 0.0
C90 C 0.63078 0.73069 0.87377 0.0
C91 C 0.48275 0.70268 0.91184 0.0
C92 C 0.64565 0.86815 1.00864 0.0
C93 C 0.63271 0.84978 0.06935 0.0
C94 C 0.6602 0.88877 0.11381 0.0
C95 C 0.64783 0.87147 0.17159 0.0
C96 C 0.60759 0.81476 0.18592 0.0
C97 C 0.57992 0.776 0.14093 0.0
C98 C 0.59242 0.79332 0.0833 0.0
C99 C 0.52819 0.83509 0.84119 0.0
O100 O 0.63589 0.83075 0.76536 0.0
O101 O 0.67394 0.87583 0.85216 0.0
O102 O 0.56341 0.69992 0.72483 0.0
O103 O 0.49565 0.72029 0.73665 0.0
O104 O 0.63075 0.72333 0.81855 0.0
O105 O 0.59143 0.74077 0.88527 0.0
O106 O 0.52374 0.74225 0.94354 0.0
O107 O 0.4872 0.69826 0.85541 0.0
O108 O 0.60809 0.87726 0.98208 0.0
O109 O 0.66319 0.8398 0.97704 0.0
O110 O 0.5281 0.84035 0.89686 0.0
O111 O 0.569 0.82817 0.82608 0.0
H112 H 0.46429 0.63844 0.60776 0.0
H113 H 0.47906 0.67019 0.5068 0.0
H114 H 0.60701 0.83861 0.55998 0.0
H115 H 0.59111 0.80671 0.66055 0.0
H116 H 0.69142 0.93257 0.10384 0.0
H117 H 0.67047 0.9023 0.205 0.0
H118 H 0.5481 0.73229 0.1502 0.0
H119 H 0.57057 0.76259 0.0496 0.0
Ho120 Ho 0.73286 0.5577 0.22866 0.0
Ho121 Ho 0.81537 0.59263 0.12217 0.0
C122 C 0.86764 0.65466 0.23924 0.0
C123 C 0.68327 0.52824 0.32857 0.0
C124 C 0.69749 0.53435 0.39054 0.0
C125 C 0.75206 0.54865 0.41039 0.0
C126 C 0.76369 0.55333 0.46977 0.0
C127 C 0.72086 0.54351 0.5103 0.0
C128 C 0.66651 0.52969 0.4898 0.0
C129 C 0.65504 0.5252 0.43066 0.0
C130 C 0.72578 0.6281 0.15059 0.0
C131 C 0.68244 0.49287 0.11177 0.0
C132 C 0.86363 0.6232 0.02182 0.0
C133 C 0.84862 0.61629 0.96003 0.0
C134 C 0.79401 0.60246 0.94062 0.0
C135 C 0.7818 0.59725 0.88134 0.0
C136 C 0.82409 0.60608 0.84052 0.0
C137 C 0.8784 0.61927 0.8606 0.0
C138 C 0.89043 0.62428 0.9196 0.0
C139 C 0.82026 0.51991 0.19916 0.0
O140 O 0.82063 0.61495 0.26485 0.0
O141 O 0.87294 0.66024 0.18257 0.0
O142 O 0.69276 0.57447 0.3009 0.0
O143 O 0.69748 0.49641 0.29849 0.0
O144 O 0.68244 0.58941 0.1792 0.0
O145 O 0.77076 0.62961 0.16748 0.0
O146 O 0.72828 0.534 0.08601 0.0
O147 O 0.67707 0.48767 0.16856 0.0
O148 O 0.85629 0.57769 0.04947 0.0
O149 O 0.84828 0.65399 0.05224 0.0
O150 O 0.86444 0.55792 0.17091 0.0
O151 O 0.77634 0.52035 0.18227 0.0
H152 H 0.78546 0.5558 0.38008 0.0
H153 H 0.80589 0.56362 0.48394 0.0
H154 H 0.63277 0.52281 0.5195 0.0
H155 H 0.61274 0.51439 0.41621 0.0
H156 H 0.76106 0.59615 0.97117 0.0
H157 H 0.73966 0.58743 0.86744 0.0
H158 H 0.91169 0.62538 0.83065 0.0
H159 H 0.93271 0.63467 0.9337 0.0
Ho160 Ho 0.24996 0.80744 0.47974 0.0
Ho161 Ho 0.16926 0.74577 0.58486 0.0
C162 C 0.11244 0.76061 0.47244 0.0
C163 C 0.2954 0.82817 0.37811 0.0
C164 C 0.27639 0.81893 0.31712 0.0
C165 C 0.27806 0.77593 0.28492 0.0
C166 C 0.26402 0.76932 0.22629 0.0
C167 C 0.2483 0.8058 0.19836 0.0
C168 C 0.24549 0.84802 0.23092 0.0
C169 C 0.25945 0.8546 0.28951 0.0
C170 C 0.24835 0.87737 0.55976 0.0
C171 C 0.30703 0.7988 0.59564 0.0
C172 C 0.12109 0.7113 0.68463 0.0
C173 C 0.1383 0.72003 0.74622 0.0
C174 C 0.13688 0.76316 0.77842 0.0
C175 C 0.14995 0.76903 0.8373 0.0
C176 C 0.16444 0.73171 0.86549 0.0
C177 C 0.16658 0.6891 0.83302 0.0
C178 C 0.15347 0.6832 0.77425 0.0
C179 C 0.17732 0.6806 0.50254 0.0
O180 O 0.16086 0.77485 0.44516 0.0
O181 O 0.10692 0.7538 0.52895 0.0
O182 O 0.28806 0.86517 0.40762 0.0
O183 O 0.28448 0.78284 0.4085 0.0
O184 O 0.29163 0.89061 0.52617 0.0
O185 O 0.20609 0.83051 0.54508 0.0
O186 O 0.25786 0.78406 0.62137 0.0
O187 O 0.3134 0.80371 0.53893 0.0
O188 O 0.13912 0.68321 0.65348 0.0
O189 O 0.12253 0.75417 0.65644 0.0
O190 O 0.12968 0.66727 0.5282 0.0
O191 O 0.21685 0.72551 0.52298 0.0
H192 H 0.2913 0.74801 0.30481 0.0
H193 H 0.26717 0.73671 0.20247 0.0
H194 H 0.23269 0.87627 0.21101 0.0
H195 H 0.25769 0.88821 0.31287 0.0
H196 H 0.12482 0.79192 0.75839 0.0
H197 H 0.14719 0.8019 0.86105 0.0
H198 H 0.17834 0.66012 0.85305 0.0
H199 H 0.15464 0.64924 0.75095 0.0
Ho200 Ho 0.42983 0.17838 0.88666 0.0
Ho201 Ho 0.40811 0.23535 0.77881 0.0
C202 C 0.33418 0.21856 0.88968 0.0
C203 C 0.45215 0.15397 0.98803 0.0
C204 C 0.44698 0.16822 0.04782 0.0
C205 C 0.46843 0.14939 0.09266 0.0
C206 C 0.46103 0.15994 0.15002 0.0
C207 C 0.43177 0.18931 0.16333 0.0
C208 C 0.41142 0.20917 0.11804 0.0
C209 C 0.41911 0.19881 0.06076 0.0
C210 C 0.36303 0.10564 0.80519 0.0
C211 C 0.49964 0.19027 0.77386 0.0
C212 C 0.39142 0.26548 0.67777 0.0
C213 C 0.39884 0.25363 0.61765 0.0
C214 C 0.37497 0.27021 0.57318 0.0
C215 C 0.38453 0.26239 0.5156 0.0
C216 C 0.41804 0.2376 0.50155 0.0
C217 C 0.44106 0.22014 0.54651 0.0
C218 C 0.43175 0.22834 0.60399 0.0
C219 C 0.47243 0.30672 0.86255 0.0
O220 O 0.37117 0.20924 0.91857 0.0
O221 O 0.33482 0.22276 0.83286 0.0
O222 O 0.40409 0.12265 0.96105 0.0
O223 O 0.48982 0.19565 0.95599 0.0
O224 O 0.39508 0.0955 0.83923 0.0
O225 O 0.36418 0.15104 0.81938 0.0
O226 O 0.46292 0.20056 0.74607 0.0
O227 O 0.5012 0.18783 0.83067 0.0
O228 O 0.43848 0.2942 0.70712 0.0
O229 O 0.35129 0.22334 0.70744 0.0
O230 O 0.4402 0.31656 0.82861 0.0
O231 O 0.4736 0.26296 0.84643 0.0
H232 H 0.49006 0.12569 0.08336 0.0
H233 H 0.47676 0.14369 0.18396 0.0
H234 H 0.38947 0.23264 0.12689 0.0
H235 H 0.40291 0.21424 0.02665 0.0
H236 H 0.34979 0.29019 0.58295 0.0
H237 H 0.36679 0.27704 0.48212 0.0
H238 H 0.46635 0.20016 0.53734 0.0
H239 H 0.45089 0.2156 0.63764 0.0
H240 H 0.31007 0.20038 1.0039 0.0
H241 H 0.26976 0.26384 0.84983 0.0
H242 H 0.21777 0.29827 0.9074 0.0
H243 H 0.19469 0.32088 1.00187 0.0
H244 H 0.2404 0.26271 0.15637 0.0
H245 H 0.27888 0.21501 0.09794 0.0
C246 C 0.28966 0.22141 0.9828 0.0
C247 C 0.29491 0.23064 0.92285 0.0
C248 C 0.26106 0.24227 0.01622 0.0
C249 C 0.26681 0.25656 0.896 0.0
C250 C 0.23726 0.27649 0.92891 0.0
C251 C 0.21242 0.29725 0.02292 0.0
C252 C 0.21565 0.29637 0.08342 0.0
C253 C 0.2358 0.27123 0.98916 0.0
C254 C 0.23779 0.26455 0.10986 0.0
C255 C 0.26005 0.23744 0.0765 0.0
H256 H 0.97947 0.30101 0.21638 0.0
H257 H 0.13442 0.37408 0.31436 0.0
H258 H 0.0807 0.34343 0.40435 0.0
H259 H 0.98856 0.30258 0.45509 0.0
H260 H 0.83338 0.22484 0.35671 0.0
H261 H 0.88726 0.24957 0.267 0.0
C262 C 0.00119 0.3091 0.25754 0.0
C263 C 0.06081 0.33933 0.25924 0.0
C264 C 0.96966 0.29064 0.30887 0.0
C265 C 0.08879 0.34986 0.31234 0.0
C266 C 0.05792 0.33284 0.36375 0.0
C267 C 0.96682 0.29035 0.41389 0.0
C268 C 0.90723 0.26177 0.41224 0.0
C269 C -0.0017 0.30415 0.36252 0.0
C270 C 0.87912 0.246 0.35902 0.0
C271 C 0.91003 0.26061 0.30762 0.0
H272 H 0.79335 0.11011 0.67567 0.0
H273 H 0.74891 0.00343 0.52513 0.0
H274 H 0.72477 0.92087 0.5863 0.0
H275 H 0.70242 0.87721 0.68211 0.0
H276 H 0.74072 0.98264 0.83289 0.0
H277 H 0.7833 0.06787 0.77187 0.0
C278 C 0.77931 0.06908 0.65605 0.0
C279 C 0.77189 0.06293 0.59591 0.0
C280 C 0.76452 0.02155 0.69155 0.0
C281 C 0.75445 0.00944 0.57129 0.0
C282 C 0.74056 0.9621 0.60626 0.0
C283 C 0.72123 0.91889 0.70183 0.0
C284 C 0.7173 0.9235 0.76185 0.0
C285 C 0.74341 0.96738 0.66644 0.0
C286 C 0.74289 0.9778 0.78679 0.0
C287 C 0.76667 0.02657 0.75185 0.0
H288 H 0.72919 0.77199 0.93389 0.0
H289 H 0.56573 0.6224 0.90845 0.0
H290 H 0.58144 0.57612 0.99192 0.0
H291 H 0.63759 0.58215 0.07711 0.0
H292 H 0.80291 0.72945 0.10207 0.0
H293 H 0.79101 0.77316 0.01378 0.0
C294 C 0.69795 0.72875 0.94602 0.0
C295 C 0.64665 0.70016 0.91547 0.0
C296 C 0.70718 0.70271 0.99438 0.0
C297 C 0.60571 0.6446 0.93152 0.0
C298 C 0.61447 0.61844 0.97935 0.0
C299 C 0.67102 0.62377 0.06304 0.0
C300 C 0.72048 0.65331 0.09622 0.0
C301 C 0.66428 0.64776 1.01202 0.0
C302 C 0.7642 0.70647 0.07716 0.0
C303 C 0.75742 0.7313 0.0268 0.0
H304 H 0.1076 0.77803 0.35744 0.0
H305 H 0.00225 0.71244 0.50977 0.0
H306 H 0.91692 0.67915 0.45108 0.0
H307 H 0.87224 0.66061 0.35607 0.0
H308 H 0.97732 0.72462 0.20344 0.0
H309 H 0.06271 0.76744 0.26305 0.0
C310 C 0.06604 0.75702 0.37795 0.0
C311 C 0.0614 0.74714 0.43784 0.0
C312 C 0.01704 0.73759 0.34395 0.0
C313 C 0.00717 0.72042 0.46373 0.0
C314 C 0.95825 0.7012 0.4302 0.0
C315 C 0.91373 0.68454 0.33577 0.0
C316 C 0.91831 0.68872 0.27533 0.0
C317 C 0.96269 0.70835 0.37017 0.0
C318 C 0.97245 0.72051 0.24987 0.0
C319 C 0.0214 0.7448 0.2839 0.0
H320 H 0.29629 0.99189 0.80208 0.0
H321 H 0.36797 0.1422 0.69514 0.0
H322 H 0.33344 0.0843 0.60869 0.0
H323 H 0.29182 0.99015 0.56353 0.0
H324 H 0.21688 0.83949 0.67026 0.0
H325 H 0.24222 0.89742 0.7569 0.0
C326 C 0.30312 0.01169 0.75978 0.0
C327 C 0.33434 0.07114 0.75454 0.0
C328 C 0.28246 0.97783 0.71044 0.0
C329 C 0.34318 0.0967 0.69998 0.0
C330 C 0.32386 0.06347 0.65056 0.0
C331 C 0.27984 0.97021 0.60583 0.0
C332 C 0.25219 0.91077 0.61078 0.0
C333 C 0.29461 0.00397 0.65527 0.0
C334 C 0.23696 0.88503 0.66543 0.0
C335 C 0.25219 0.91828 0.71504 0.0
H336 H 0.20714 0.50763 0.7533 0.0
H337 H 0.18657 0.34456 0.80328 0.0
H338 H 0.20018 0.32594 0.70324 0.0
H339 H 0.21427 0.35435 0.60113 0.0
H340 H 0.23947 0.51964 0.55185 0.0
H341 H 0.22613 0.53812 0.65161 0.0
C342 C 0.20553 0.46797 0.74222 0.0
C343 C 0.19563 0.42747 0.78571 0.0
C344 C 0.21356 0.45759 0.68458 0.0
C345 C 0.19455 0.37666 0.77077 0.0
C346 C 0.202 0.36583 0.71349 0.0
C347 C 0.21774 0.39483 0.61208 0.0
C348 C 0.22742 0.43519 0.56834 0.0
C349 C 0.21121 0.40585 0.66996 0.0
C350 C 0.23078 0.48701 0.58391 0.0
C351 C 0.22365 0.49795 0.64123 0.0
H352 H 0.79979 0.24852 0.10484 0.0
H353 H 0.71105 0.06693 0.07745 0.0
H354 H 0.71674 0.08235 0.97344 0.0
H355 H 0.74574 0.1472 0.8896 0.0
H356 H 0.83303 0.32865 0.91703 0.0
H357 H 0.8275 0.31327 0.02117 0.0
C358 C 0.78114 0.21222 0.07626 0.0
C359 C 0.75534 0.15661 0.09948 0.0
C360 C 0.78385 0.2213 0.01616 0.0
C361 C 0.73218 0.11028 0.06125 0.0
C362 C 0.73499 0.119 1.00154 0.0
C363 C 0.76387 0.18341 0.91832 0.0
C364 C 0.7896 0.23902 0.89519 0.0
C365 C 0.76078 0.17431 0.97844 0.0
C366 C 0.81218 0.28534 0.93336 0.0
C367 C 0.80941 0.27662 0.99306 0.0
H368 H 0.55321 0.69921 0.43354 0.0
H369 H 0.56101 0.85739 0.47856 0.0
H370 H 0.58162 0.88943 0.3782 0.0
H371 H 0.59675 0.87223 0.27731 0.0
H372 H 0.59008 0.71429 0.23308 0.0
H373 H 0.56835 0.68207 0.33302 0.0
C374 C 0.55876 0.74044 0.42133 0.0
C375 C 0.55547 0.77575 0.46368 0.0
C376 C 0.57057 0.75861 0.36351 0.0
C377 C 0.56386 0.82952 0.44709 0.0
C378 C 0.5754 0.8478 0.3896 0.0
C379 C 0.59107 0.83097 0.28957 0.0
C380 C 0.59491 0.79577 0.24738 0.0
C381 C 0.57904 0.81277 0.34744 0.0
C382 C 0.58654 0.74203 0.26419 0.0
C383 C 0.57444 0.72364 0.32152 0.0
H384 H 0.72901 0.5276 0.78309 0.0
H385 H 0.89333 0.67661 0.75517 0.0
H386 H 0.87687 0.66975 0.65136 0.0
H387 H 0.81557 0.6221 0.56797 0.0
H388 H 0.65137 0.47285 0.59567 0.0
H389 H 0.66769 0.47979 0.69955 0.0
C390 C 0.761 0.55889 0.75436 0.0
C391 C 0.81246 0.60241 0.77721 0.0
C392 C 0.75127 0.55478 0.69438 0.0
C393 C 0.85366 0.64214 0.73899 0.0
C394 C 0.8442 0.63844 0.67948 0.0
C395 C 0.78356 0.59075 0.59664 0.0
C396 C 0.73219 0.54717 0.57371 0.0
C397 C 0.79326 0.59483 0.65659 0.0
C398 C 0.69097 0.5074 0.61189 0.0
C399 C 0.70036 0.51114 0.67145 0.0
H400 H 0.22376 0.82814 0.92924 0.0
H401 H 0.13024 0.64491 0.94428 0.0
H402 H 0.14828 0.65148 0.04781 0.0
H403 H 0.18914 0.7092 0.13472 0.0
H404 H 0.28225 0.89241 0.11964 0.0
H405 H 0.26446 0.88579 0.01606 0.0
C406 C 0.20686 0.78963 0.9552 0.0
C407 C 0.1758 0.73614 0.92873 0.0
C408 C 0.21691 0.79366 0.01496 0.0
C409 C 0.15504 0.68668 0.96314 0.0
C410 C 0.16498 0.69037 0.02253 0.0
C411 C 0.20589 0.74768 0.10873 0.0
C412 C 0.23679 0.80121 0.13518 0.0
C413 C 0.19583 0.74362 0.04895 0.0
C414 C 0.25754 0.85063 0.10076 0.0
C415 C 0.24773 0.84692 0.04136 0.0
H416 H 0.34452 0.20541 0.41096 0.0
H417 H 0.51836 0.25538 0.45433 0.0
H418 H 0.53794 0.2448 0.35387 0.0
H419 H 0.50593 0.22221 0.25333 0.0
H420 H 0.33262 0.17408 0.20995 0.0
H421 H 0.31311 0.18467 0.31049 0.0
C422 C 0.38687 0.21456 0.39841 0.0
C423 C 0.42978 0.23099 0.4403 0.0
C424 C 0.39807 0.20911 0.34044 0.0
C425 C 0.48419 0.24176 0.42326 0.0
C426 C 0.49559 0.23613 0.36569 0.0
C427 C 0.46383 0.21379 0.266 0.0
C428 C 0.42082 0.1974 0.22425 0.0
C429 C 0.45283 0.21977 0.32393 0.0
C430 C 0.36668 0.1874 0.24113 0.0
C431 C 0.35537 0.19308 0.29867 0.0
H432 H 0.25328 0.56402 0.31807 0.0
H433 H 0.09427 0.52756 0.23986 0.0
H434 H 0.07775 0.57963 0.31714 0.0
H435 H 0.10639 0.62945 0.41162 0.0
H436 H 0.2679 0.66746 0.48536 0.0
H437 H 0.28547 0.6199 0.40561 0.0
C438 C 0.21547 0.56839 0.31749 0.0
C439 C 0.17496 0.54226 0.27388 0.0
C440 C 0.20632 0.59749 0.36186 0.0
C441 C 0.12623 0.54811 0.27297 0.0
C442 C 0.11655 0.57716 0.31745 0.0
C443 C 0.1451 0.6268 0.41 0.0
C444 C 0.18538 0.65054 0.45445 0.0
C445 C 0.15569 0.60077 0.36298 0.0
C446 C 0.2362 0.64867 0.45168 0.0
C447 C 0.24638 0.62184 0.40609 0.0
H448 H 0.69645 0.17796 0.64115 0.0
H449 H 0.56517 0.10482 0.5122 0.0
H450 H 0.49728 0.11014 0.57812 0.0
H451 H 0.47766 0.14145 0.66954 0.0
H452 H 0.60775 0.21326 0.8002 0.0
H453 H 0.67413 0.20224 0.73674 0.0
C454 C 0.65301 0.16352 0.62778 0.0
C455 C 0.63564 0.14222 0.572 0.0
C456 C 0.61443 0.16653 0.666 0.0
C457 C 0.57901 0.1215 0.55516 0.0
C458 C 0.54046 0.12478 0.59263 0.0
C459 C 0.5206 0.15478 0.6841 0.0
C460 C 0.53837 0.17914 0.73883 0.0
C461 C 0.55807 0.14821 0.64766 0.0
C462 C 0.59342 0.19468 0.758 0.0
C463 C 0.63135 0.18865 0.72169 0.0
H464 H 0.29081 0.56187 0.09045 0.0
H465 H 0.36763 0.45543 0.08153 0.0
H466 H 0.4286 0.51338 1.00192 0.0
H467 H 0.46624 0.59981 0.94158 0.0
H468 H 0.3934 0.70923 0.95461 0.0
H469 H 0.32307 0.64376 0.02464 0.0
C470 C 0.3201 0.55079 0.07021 0.0
C471 C 0.32506 0.5048 0.09162 0.0
C472 C 0.35532 0.58464 0.02507 0.0
C473 C 0.36365 0.49114 0.06588 0.0
C474 C 0.39829 0.52406 0.02033 0.0
C475 C 0.43377 0.60813 0.95869 0.0
C476 C 0.43376 0.65819 0.94284 0.0
C477 C 0.39529 0.57158 1.00041 0.0
C478 C 0.39302 0.67011 0.96597 0.0
C479 C 0.35338 0.63308 1.00625 0.0
H480 H 0.86274 0.38784 0.40154 0.0
H481 H 0.68104 0.282 0.38488 0.0
H482 H 0.67922 0.34642 0.31124 0.0
H483 H 0.73037 0.42831 0.24649 0.0
H484 H 0.91275 0.53264 0.25916 0.0
H485 H 0.91384 0.47307 0.33882 0.0
C486 C 0.8228 0.38 0.38256 0.0
C487 C 0.77191 0.33132 0.39889 0.0
C488 C 0.82251 0.41618 0.33888 0.0
C489 C 0.72042 0.31999 0.37321 0.0
C490 C 0.71949 0.35646 0.33093 0.0
C491 C 0.77023 0.43838 0.26724 0.0
C492 C 0.82136 0.48465 0.24731 0.0
C493 C 0.77041 0.40397 0.31261 0.0
C494 C 0.8729 0.49687 0.27372 0.0
C495 C 0.87348 0.46304 0.31937 0.0
H496 H 0.31268 0.80868 0.71169 0.0
H497 H 0.4114 0.81406 0.56308 0.0
H498 H 0.48999 0.82834 0.62613 0.0
H499 H 0.52913 0.83599 0.72412 0.0
H500 H 0.42847 0.82855 0.87155 0.0
H501 H 0.35205 0.81869 0.80804 0.0
C502 C 0.3513 0.8129 0.69283 0.0
C503 C 0.35595 0.80987 0.63272 0.0
C504 C 0.39592 0.82071 0.72917 0.0
C505 C 0.40666 0.81616 0.60922 0.0
C506 C 0.45156 0.82417 0.64525 0.0
C507 C 0.49039 0.83218 0.74214 0.0
C508 C 0.48399 0.83243 0.80226 0.0
C509 C 0.44642 0.82599 0.70534 0.0
C510 C 0.43415 0.82833 0.82533 0.0
C511 C 0.39045 0.82254 0.7891 0.0
H512 H 0.65798 0.51177 1.00407 0.0
H513 H 0.60371 0.38206 0.13631 0.0
H514 H 0.53323 0.31222 0.07028 0.0
H515 H 0.48968 0.28798 0.9733 0.0
H516 H 0.54207 0.41898 0.8434 0.0
H517 H 0.6108 0.48912 0.91029 0.0
C518 C 0.63065 0.46823 0.01851 0.0
C519 C 0.63636 0.45175 0.0746 0.0
C520 C 0.59029 0.42878 0.98066 0.0
C521 C 0.59998 0.39559 0.09322 0.0
C522 C 0.55995 0.35568 0.05544 0.0
C523 C 0.51683 0.33165 0.95977 0.0
C524 C 0.51239 0.34834 0.90353 0.0
C525 C 0.55536 0.37166 0.99879 0.0
C526 C 0.54559 0.40547 0.88659 0.0
C527 C 0.58472 0.44539 0.92469 0.0
loop_
_geom_bond_atom_site_label_1
_geom_bond_atom_site_label_2
_geom_bond_distance
_geom_bond_site_symmetry_2
_ccdc_geom_bond_type
Ho0 C3 2.811 . S
Ho0 O20 2.322 . S
Ho0 O22 2.378 . S
Ho0 O23 2.524 . S
Ho0 O24 2.381 . S
Ho0 O25 2.669 . S
Ho0 O27 2.346 . S
Ho0 O31 2.305 . S
Ho1 C12 2.811 . S
Ho1 O21 2.346 . S
Ho1 O25 2.305 . S
Ho1 O26 2.322 . S
Ho1 O28 2.378 . S
Ho1 O29 2.524 . S
Ho1 O30 2.381 . S
Ho1 O31 2.669 . S
C2 O20 1.259 . S
C2 O21 1.268 . S
C3 Ho0 2.811 . S
C3 C4 1.488 . S
C3 O22 1.215 . S
C3 O23 1.289 . S
C4 C3 1.488 . S
C4 C5 1.348 1_554 S
C4 C9 1.413 1_554 S
C5 C4 1.348 1_556 S
C5 C6 1.442 . S
C5 H32 0.930 . S
C6 C5 1.442 . S
C6 C7 1.381 . S
C6 H33 0.931 . S
C7 C6 1.381 . S
C7 C8 1.321 . S
C8 C7 1.321 . S
C8 C9 1.403 . S
C8 H34 0.934 . S
C9 C4 1.413 1_556 S
C9 C8 1.403 . S
C9 H35 0.930 1_556 S
C10 O24 1.275 . S
C10 O25 1.256 . S
C11 O26 1.259 . S
C11 O27 1.268 . S
C12 Ho1 2.811 . S
C12 C13 1.488 . S
C12 O28 1.215 . S
C12 O29 1.289 . S
C13 C12 1.488 . S
C13 C14 1.348 . S
C13 C18 1.413 . S
C14 C13 1.348 . S
C14 C15 1.442 . S
C14 H36 0.930 . S
C15 C14 1.442 . S
C15 C16 1.381 . S
C15 H37 0.931 . S
C16 C15 1.381 . S
C16 C17 1.321 . S
C17 C16 1.321 . S
C17 C18 1.403 . S
C17 H38 0.934 . S
C18 C13 1.413 . S
C18 C17 1.403 . S
C18 H39 0.930 . S
C19 O30 1.275 . S
C19 O31 1.256 . S
O20 Ho0 2.322 . S
O20 C2 1.259 . S
O21 Ho1 2.346 . S
O21 C2 1.268 . S
O22 Ho0 2.378 . S
O22 C3 1.215 . S
O23 Ho0 2.524 . S
O23 C3 1.289 . S
O24 Ho0 2.381 . S
O24 C10 1.275 . S
O25 Ho0 2.669 . S
O25 Ho1 2.305 . S
O25 C10 1.256 . S
O26 Ho1 2.322 . S
O26 C11 1.259 . S
O27 Ho0 2.346 . S
O27 C11 1.268 . S
O28 Ho1 2.378 . S
O28 C12 1.215 . S
O29 Ho1 2.524 . S
O29 C12 1.289 . S
O30 Ho1 2.381 . S
O30 C19 1.275 . S
O31 Ho0 2.305 . S
O31 Ho1 2.669 . S
O31 C19 1.256 . S
H32 C5 0.930 . S
H33 C6 0.931 . S
H34 C8 0.934 . S
H35 C9 0.930 1_554 S
H36 C14 0.930 . S
H37 C15 0.931 . S
H38 C17 0.934 . S
H39 C18 0.930 . S
Ho40 C43 2.811 . S
Ho40 O60 2.322 . S
Ho40 O62 2.378 . S
Ho40 O63 2.524 . S
Ho40 O64 2.381 . S
Ho40 O65 2.669 . S
Ho40 O67 2.346 . S
Ho40 O71 2.305 . S
Ho41 C52 2.811 . S
Ho41 O61 2.346 . S
Ho41 O65 2.305 . S
Ho41 O66 2.322 . S
Ho41 O68 2.378 . S
Ho41 O69 2.524 . S
Ho41 O70 2.381 . S
Ho41 O71 2.669 . S
C42 O60 1.259 . S
C42 O61 1.268 . S
C43 Ho40 2.811 . S
C43 C44 1.488 . S
C43 O62 1.215 . S
C43 O63 1.289 . S
C44 C43 1.488 . S
C44 C45 1.348 . S
C44 C49 1.413 . S
C45 C44 1.348 . S
C45 C46 1.442 . S
C45 H72 0.930 . S
C46 C45 1.442 . S
C46 C47 1.381 . S
C46 H73 0.931 . S
C47 C46 1.381 . S
C47 C48 1.321 . S
C48 C47 1.321 . S
C48 C49 1.403 . S
C48 H74 0.934 . S
C49 C44 1.413 . S
C49 C48 1.403 . S
C49 H75 0.930 . S
C50 O64 1.275 . S
C50 O65 1.256 . S
C51 O66 1.259 . S
C51 O67 1.268 . S
C52 Ho41 2.811 . S
C52 C53 1.488 . S
C52 O68 1.215 . S
C52 O69 1.289 . S
C53 C52 1.488 . S
C53 C54 1.348 . S
C53 C58 1.413 . S
C54 C53 1.348 . S
C54 C55 1.442 . S
C54 H76 0.930 . S
C55 C54 1.442 . S
C55 C56 1.381 . S
C55 H77 0.931 . S
C56 C55 1.381 . S
C56 C57 1.321 . S
C57 C56 1.321 . S
C57 C58 1.403 . S
C57 H78 0.934 . S
C58 C53 1.413 . S
C58 C57 1.403 . S
C58 H79 0.930 . S
C59 O70 1.275 . S
C59 O71 1.256 . S
O60 Ho40 2.322 . S
O60 C42 1.259 . S
O61 Ho41 2.346 . S
O61 C42 1.268 . S
O62 Ho40 2.378 . S
O62 C43 1.215 . S
O63 Ho40 2.524 . S
O63 C43 1.289 . S
O64 Ho40 2.381 . S
O64 C50 1.275 . S
O65 Ho40 2.669 . S
O65 Ho41 2.305 . S
O65 C50 1.256 . S
O66 Ho41 2.322 . S
O66 C51 1.259 . S
O67 Ho40 2.346 . S
O67 C51 1.268 . S
O68 Ho41 2.378 . S
O68 C52 1.215 . S
O69 Ho41 2.524 . S
O69 C52 1.289 . S
O70 Ho41 2.381 . S
O70 C59 1.275 . S
O71 Ho40 2.305 . S
O71 Ho41 2.669 . S
O71 C59 1.256 . S
H72 C45 0.930 . S
H73 C46 0.931 . S
H74 C48 0.934 . S
H75 C49 0.930 . S
H76 C54 0.930 . S
H77 C55 0.931 . S
H78 C57 0.934 . S
H79 C58 0.930 . S
Ho80 C83 2.811 . S
Ho80 O100 2.322 . S
Ho80 O102 2.378 . S
Ho80 O103 2.524 . S
Ho80 O104 2.381 . S
Ho80 O105 2.669 . S
Ho80 O107 2.346 . S
Ho80 O111 2.305 . S
Ho81 C92 2.811 1_556 S
Ho81 O101 2.346 . S
Ho81 O105 2.305 . S
Ho81 O106 2.322 . S
Ho81 O108 2.378 1_556 S
Ho81 O109 2.524 1_556 S
Ho81 O110 2.381 . S
Ho81 O111 2.669 . S
C82 O100 1.259 . S
C82 O101 1.268 . S
C83 Ho80 2.811 . S
C83 C84 1.488 . S
C83 O102 1.215 . S
C83 O103 1.289 . S
C84 C83 1.488 . S
C84 C85 1.348 . S
C84 C89 1.413 . S
C85 C84 1.348 . S
C85 C86 1.442 . S
C85 H112 0.930 . S
C86 C85 1.442 . S
C86 C87 1.381 . S
C86 H113 0.931 . S
C87 C86 1.381 . S
C87 C88 1.321 . S
C88 C87 1.321 . S
C88 C89 1.403 . S
C88 H114 0.934 . S
C89 C84 1.413 . S
C89 C88 1.403 . S
C89 H115 0.930 . S
C90 O104 1.275 . S
C90 O105 1.256 . S
C91 O106 1.259 . S
C91 O107 1.268 . S
C92 Ho81 2.811 1_554 S
C92 C93 1.488 . S
C92 O108 1.215 . S
C92 O109 1.289 . S
C93 C92 1.488 . S
C93 C94 1.348 . S
C93 C98 1.413 . S
C94 C93 1.348 . S
C94 C95 1.442 . S
C94 H116 0.930 . S
C95 C94 1.442 . S
C95 C96 1.381 . S
C95 H117 0.931 . S
C96 C95 1.381 . S
C96 C97 1.321 . S
C97 C96 1.321 . S
C97 C98 1.403 . S
C97 H118 0.934 . S
C98 C93 1.413 . S
C98 C97 1.403 . S
C98 H119 0.930 . S
C99 O110 1.275 . S
C99 O111 1.256 . S
O100 Ho80 2.322 . S
O100 C82 1.259 . S
O101 Ho81 2.346 . S
O101 C82 1.268 . S
O102 Ho80 2.378 . S
O102 C83 1.215 . S
O103 Ho80 2.524 . S
O103 C83 1.289 . S
O104 Ho80 2.381 . S
O104 C90 1.275 . S
O105 Ho80 2.669 . S
O105 Ho81 2.305 . S
O105 C90 1.256 . S
O106 Ho81 2.322 . S
O106 C91 1.259 . S
O107 Ho80 2.346 . S
O107 C91 1.268 . S
O108 Ho81 2.378 1_554 S
O108 C92 1.215 . S
O109 Ho81 2.524 1_554 S
O109 C92 1.289 . S
O110 Ho81 2.381 . S
O110 C99 1.275 . S
O111 Ho80 2.305 . S
O111 Ho81 2.669 . S
O111 C99 1.256 . S
H112 C85 0.930 . S
H113 C86 0.931 . S
H114 C88 0.934 . S
H115 C89 0.930 . S
H116 C94 0.930 . S
H117 C95 0.931 . S
H118 C97 0.934 . S
H119 C98 0.930 . S
Ho120 C123 2.811 . S
Ho120 O140 2.322 . S
Ho120 O142 2.378 . S
Ho120 O143 2.524 . S
Ho120 O144 2.381 . S
Ho120 O145 2.669 . S
Ho120 O147 2.346 . S
Ho120 O151 2.305 . S
Ho121 C132 2.811 1_554 S
Ho121 O141 2.346 . S
Ho121 O145 2.305 . S
Ho121 O146 2.322 . S
Ho121 O148 2.378 1_554 S
Ho121 O149 2.524 1_554 S
Ho121 O150 2.381 . S
Ho121 O151 2.669 . S
C122 O140 1.259 . S
C122 O141 1.268 . S
C123 Ho120 2.811 . S
C123 C124 1.488 . S
C123 O142 1.215 . S
C123 O143 1.289 . S
C124 C123 1.488 . S
C124 C125 1.348 . S
C124 C129 1.413 . S
C125 C124 1.348 . S
C125 C126 1.442 . S
C125 H152 0.930 . S
C126 C125 1.442 . S
C126 C127 1.381 . S
C126 H153 0.931 . S
C127 C126 1.381 . S
C127 C128 1.321 . S
C128 C127 1.321 . S
C128 C129 1.403 . S
C128 H154 0.934 . S
C129 C124 1.413 . S
C129 C128 1.403 . S
C129 H155 0.930 . S
C130 O144 1.275 . S
C130 O145 1.256 . S
C131 O146 1.259 . S
C131 O147 1.268 . S
C132 Ho121 2.811 1_556 S
C132 C133 1.488 . S
C132 O148 1.215 . S
C132 O149 1.289 . S
C133 C132 1.488 . S
C133 C134 1.348 . S
C133 C138 1.413 . S
C134 C133 1.348 . S
C134 C135 1.442 . S
C134 H156 0.930 . S
C135 C134 1.442 . S
C135 C136 1.381 . S
C135 H157 0.931 . S
C136 C135 1.381 . S
C136 C137 1.321 . S
C137 C136 1.321 . S
C137 C138 1.403 . S
C137 H158 0.934 . S
C138 C133 1.413 . S
C138 C137 1.403 . S
C138 H159 0.930 . S
C139 O150 1.275 . S
C139 O151 1.256 . S
O140 Ho120 2.322 . S
O140 C122 1.259 . S
O141 Ho121 2.346 . S
O141 C122 1.268 . S
O142 Ho120 2.378 . S
O142 C123 1.215 . S
O143 Ho120 2.524 . S
O143 C123 1.289 . S
O144 Ho120 2.381 . S
O144 C130 1.275 . S
O145 Ho120 2.669 . S
O145 Ho121 2.305 . S
O145 C130 1.256 . S
O146 Ho121 2.322 . S
O146 C131 1.259 . S
O147 Ho120 2.346 . S
O147 C131 1.268 . S
O148 Ho121 2.378 1_556 S
O148 C132 1.215 . S
O149 Ho121 2.524 1_556 S
O149 C132 1.289 . S
O150 Ho121 2.381 . S
O150 C139 1.275 . S
O151 Ho120 2.305 . S
O151 Ho121 2.669 . S
O151 C139 1.256 . S
H152 C125 0.930 . S
H153 C126 0.931 . S
H154 C128 0.934 . S
H155 C129 0.930 . S
H156 C134 0.930 . S
H157 C135 0.931 . S
H158 C137 0.934 . S
H159 C138 0.930 . S
Ho160 C163 2.811 . S
Ho160 O180 2.322 . S
Ho160 O182 2.378 . S
Ho160 O183 2.524 . S
Ho160 O184 2.381 . S
Ho160 O185 2.669 . S
Ho160 O187 2.346 . S
Ho160 O191 2.305 . S
Ho161 C172 2.811 . S
Ho161 O181 2.346 . S
Ho161 O185 2.305 . S
Ho161 O186 2.322 . S
Ho161 O188 2.378 . S
Ho161 O189 2.524 . S
Ho161 O190 2.381 . S
Ho161 O191 2.669 . S
C162 O180 1.259 . S
C162 O181 1.268 . S
C163 Ho160 2.811 . S
C163 C164 1.488 . S
C163 O182 1.215 . S
C163 O183 1.289 . S
C164 C163 1.488 . S
C164 C165 1.348 . S
C164 C169 1.413 . S
C165 C164 1.348 . S
C165 C166 1.442 . S
C165 H192 0.930 . S
C166 C165 1.442 . S
C166 C167 1.381 . S
C166 H193 0.931 . S
C167 C166 1.381 . S
C167 C168 1.321 . S
C168 C167 1.321 . S
C168 C169 1.403 . S
C168 H194 0.934 . S
C169 C164 1.413 . S
C169 C168 1.403 . S
C169 H195 0.930 . S
C170 O184 1.275 . S
C170 O185 1.256 . S
C171 O186 1.259 . S
C171 O187 1.268 . S
C172 Ho161 2.811 . S
C172 C173 1.488 . S
C172 O188 1.215 . S
C172 O189 1.289 . S
C173 C172 1.488 . S
C173 C174 1.348 . S
C173 C178 1.413 . S
C174 C173 1.348 . S
C174 C175 1.442 . S
C174 H196 0.930 . S
C175 C174 1.442 . S
C175 C176 1.381 . S
C175 H197 0.931 . S
C176 C175 1.381 . S
C176 C177 1.321 . S
C177 C176 1.321 . S
C177 C178 1.403 . S
C177 H198 0.934 . S
C178 C173 1.413 . S
C178 C177 1.403 . S
C178 H199 0.930 . S
C179 O190 1.275 . S
C179 O191 1.256 . S
O180 Ho160 2.322 . S
O180 C162 1.259 . S
O181 Ho161 2.346 . S
O181 C162 1.268 . S
O182 Ho160 2.378 . S
O182 C163 1.215 . S
O183 Ho160 2.524 . S
O183 C163 1.289 . S
O184 Ho160 2.381 . S
O184 C170 1.275 . S
O185 Ho160 2.669 . S
O185 Ho161 2.305 . S
O185 C170 1.256 . S
O186 Ho161 2.322 . S
O186 C171 1.259 . S
O187 Ho160 2.346 . S
O187 C171 1.268 . S
O188 Ho161 2.378 . S
O188 C172 1.215 . S
O189 Ho161 2.524 . S
O189 C172 1.289 . S
O190 Ho161 2.381 . S
O190 C179 1.275 . S
O191 Ho160 2.305 . S
O191 Ho161 2.669 . S
O191 C179 1.256 . S
H192 C165 0.930 . S
H193 C166 0.931 . S
H194 C168 0.934 . S
H195 C169 0.930 . S
H196 C174 0.930 . S
H197 C175 0.931 . S
H198 C177 0.934 . S
H199 C178 0.930 . S
Ho200 C203 2.811 . S
Ho200 O220 2.322 . S
Ho200 O222 2.378 . S
Ho200 O223 2.524 . S
Ho200 O224 2.381 . S
Ho200 O225 2.669 . S
Ho200 O227 2.346 . S
Ho200 O231 2.305 . S
Ho201 C212 2.811 . S
Ho201 O221 2.346 . S
Ho201 O225 2.305 . S
Ho201 O226 2.322 . S
Ho201 O228 2.378 . S
Ho201 O229 2.524 . S
Ho201 O230 2.381 . S
Ho201 O231 2.669 . S
C202 O220 1.259 . S
C202 O221 1.268 . S
C203 Ho200 2.811 . S
C203 C204 1.488 . S
C203 O222 1.215 . S
C203 O223 1.289 . S
C204 C203 1.488 . S
C204 C205 1.348 1_556 S
C204 C209 1.413 1_556 S
C205 C204 1.348 1_554 S
C205 C206 1.442 . S
C205 H232 0.930 . S
C206 C205 1.442 . S
C206 C207 1.381 . S
C206 H233 0.931 . S
C207 C206 1.381 . S
C207 C208 1.321 . S
C208 C207 1.321 . S
C208 C209 1.403 . S
C208 H234 0.934 . S
C209 C204 1.413 1_554 S
C209 C208 1.403 . S
C209 H235 0.930 1_554 S
C210 O224 1.275 . S
C210 O225 1.256 . S
C211 O226 1.259 . S
C211 O227 1.268 . S
C212 Ho201 2.811 . S
C212 C213 1.488 . S
C212 O228 1.215 . S
C212 O229 1.289 . S
C213 C212 1.488 . S
C213 C214 1.348 . S
C213 C218 1.413 . S
C214 C213 1.348 . S
C214 C215 1.442 . S
C214 H236 0.930 . S
C215 C214 1.442 . S
C215 C216 1.381 . S
C215 H237 0.931 . S
C216 C215 1.381 . S
C216 C217 1.321 . S
C217 C216 1.321 . S
C217 C218 1.403 . S
C217 H238 0.934 . S
C218 C213 1.413 . S
C218 C217 1.403 . S
C218 H239 0.930 . S
C219 O230 1.275 . S
C219 O231 1.256 . S
O220 Ho200 2.322 . S
O220 C202 1.259 . S
O221 Ho201 2.346 . S
O221 C202 1.268 . S
O222 Ho200 2.378 . S
O222 C203 1.215 . S
O223 Ho200 2.524 . S
O223 C203 1.289 . S
O224 Ho200 2.381 . S
O224 C210 1.275 . S
O225 Ho200 2.669 . S
O225 Ho201 2.305 . S
O225 C210 1.256 . S
O226 Ho201 2.322 . S
O226 C211 1.259 . S
O227 Ho200 2.346 . S
O227 C211 1.268 . S
O228 Ho201 2.378 . S
O228 C212 1.215 . S
O229 Ho201 2.524 . S
O229 C212 1.289 . S
O230 Ho201 2.381 . S
O230 C219 1.275 . S
O231 Ho200 2.305 . S
O231 Ho201 2.669 . S
O231 C219 1.256 . S
H232 C205 0.930 . S
H233 C206 0.931 . S
H234 C208 0.934 . S
H235 C209 0.930 1_556 S
H236 C214 0.930 . S
H237 C215 0.931 . S
H238 C217 0.934 . S
H239 C218 0.930 . S
H240 C246 0.930 . S
H241 C249 0.930 . S
H242 C250 0.930 . S
H243 C251 0.930 . S
H244 C254 0.930 . S
H245 C255 0.930 . S
C246 H240 0.930 . S
C246 C247 1.355 . S
C246 C248 1.415 . S
C247 C246 1.355 . S
C247 C249 1.419 . S
C248 C246 1.415 . S
C248 C253 1.425 1_556 S
C248 C255 1.409 1_556 S
C249 H241 0.930 . S
C249 C247 1.419 . S
C249 C250 1.362 . S
C250 H242 0.930 . S
C250 C249 1.362 . S
C250 C253 1.409 1_556 S
C251 H243 0.930 . S
C251 C252 1.355 . S
C251 C253 1.415 . S
C252 C251 1.355 . S
C252 C254 1.419 . S
C253 C248 1.425 1_554 S
C253 C250 1.409 1_554 S
C253 C251 1.415 . S
C254 H244 0.930 . S
C254 C252 1.419 . S
C254 C255 1.362 . S
C255 H245 0.930 . S
C255 C248 1.409 1_554 S
C255 C254 1.362 . S
H256 C262 0.930 . S
H257 C265 0.930 . S
H258 C266 0.930 . S
H259 C267 0.930 . S
H260 C270 0.930 . S
H261 C271 0.930 . S
C262 H256 0.930 . S
C262 C263 1.355 . S
C262 C264 1.413 1_455 S
C263 C262 1.355 . S
C263 C265 1.419 . S
C264 C262 1.413 1_655 S
C264 C269 1.424 1_655 S
C264 C271 1.411 . S
C265 H257 0.930 . S
C265 C263 1.419 . S
C265 C266 1.362 . S
C266 H258 0.930 . S
C266 C265 1.362 . S
C266 C269 1.412 . S
C267 H259 0.930 . S
C267 C268 1.355 . S
C267 C269 1.413 1_655 S
C268 C267 1.355 . S
C268 C270 1.419 . S
C269 C264 1.424 1_455 S
C269 C266 1.412 . S
C269 C267 1.413 1_455 S
C270 H260 0.930 . S
C270 C268 1.419 . S
C270 C271 1.362 . S
C271 H261 0.930 . S
C271 C264 1.411 . S
C271 C270 1.362 . S
H272 C278 0.930 . S
H273 C281 0.930 . S
H274 C282 0.930 . S
H275 C283 0.930 . S
H276 C286 0.930 . S
H277 C287 0.930 . S
C278 H272 0.930 . S
C278 C279 1.355 . S
C278 C280 1.415 . S
C279 C278 1.355 . S
C279 C281 1.419 1_545 S
C280 C278 1.415 . S
C280 C285 1.425 1_545 S
C280 C287 1.409 . S
C281 H273 0.930 . S
C281 C279 1.419 1_565 S
C281 C282 1.362 . S
C282 H274 0.930 . S
C282 C281 1.362 . S
C282 C285 1.409 . S
C283 H275 0.930 . S
C283 C284 1.355 . S
C283 C285 1.415 . S
C284 C283 1.355 . S
C284 C286 1.419 1_565 S
C285 C280 1.425 1_565 S
C285 C282 1.409 . S
C285 C283 1.415 . S
C286 H276 0.930 . S
C286 C284 1.419 1_545 S
C286 C287 1.362 . S
C287 H277 0.930 . S
C287 C280 1.409 . S
C287 C286 1.362 . S
H288 C294 0.930 . S
H289 C297 0.930 . S
H290 C298 0.930 . S
H291 C299 0.930 . S
H292 C302 0.930 . S
H293 C303 0.930 . S
C294 H288 0.930 . S
C294 C295 1.355 . S
C294 C296 1.412 1_556 S
C295 C294 1.355 . S
C295 C297 1.419 . S
C296 C294 1.412 1_554 S
C296 C301 1.425 1_554 S
C296 C303 1.412 . S
C297 H289 0.930 . S
C297 C295 1.419 . S
C297 C298 1.362 . S
C298 H290 0.930 . S
C298 C297 1.362 . S
C298 C301 1.409 . S
C299 H291 0.930 . S
C299 C300 1.355 . S
C299 C301 1.415 1_554 S
C300 C299 1.355 . S
C300 C302 1.419 . S
C301 C296 1.425 1_556 S
C301 C298 1.409 . S
C301 C299 1.415 1_556 S
C302 H292 0.930 . S
C302 C300 1.419 . S
C302 C303 1.362 . S
C303 H293 0.930 . S
C303 C296 1.412 . S
C303 C302 1.362 . S
H304 C310 0.930 1_655 S
H305 C313 0.930 . S
H306 C314 0.930 . S
H307 C315 0.930 1_455 S
H308 C318 0.930 . S
H309 C319 0.930 . S
C310 H304 0.930 1_455 S
C310 C311 1.355 . S
C310 C312 1.415 1_455 S
C311 C310 1.355 . S
C311 C313 1.419 . S
C312 C310 1.415 1_655 S
C312 C317 1.425 1_655 S
C312 C319 1.409 . S
C313 H305 0.930 . S
C313 C311 1.419 . S
C313 C314 1.362 . S
C314 H306 0.930 . S
C314 C313 1.362 . S
C314 C317 1.409 . S
C315 H307 0.930 1_655 S
C315 C316 1.355 . S
C315 C317 1.415 1_655 S
C316 C315 1.355 . S
C316 C318 1.419 . S
C317 C312 1.425 1_455 S
C317 C314 1.409 . S
C317 C315 1.415 1_455 S
C318 H308 0.930 . S
C318 C316 1.419 . S
C318 C319 1.362 . S
C319 H309 0.930 . S
C319 C312 1.409 . S
C319 C318 1.362 . S
H320 C326 0.930 . S
H321 C329 0.930 . S
H322 C330 0.930 . S
H323 C331 0.930 . S
H324 C334 0.930 . S
H325 C335 0.930 . S
C326 H320 0.930 . S
C326 C327 1.355 . S
C326 C328 1.415 . S
C327 C326 1.355 . S
C327 C329 1.419 . S
C328 C326 1.415 . S
C328 C333 1.425 1_545 S
C328 C335 1.409 1_545 S
C329 H321 0.930 . S
C329 C327 1.419 . S
C329 C330 1.362 . S
C330 H322 0.930 . S
C330 C329 1.362 . S
C330 C333 1.409 1_545 S
C331 H323 0.930 . S
C331 C332 1.355 . S
C331 C333 1.415 . S
C332 C331 1.355 . S
C332 C334 1.419 . S
C333 C328 1.425 1_565 S
C333 C330 1.409 1_565 S
C333 C331 1.415 . S
C334 H324 0.930 . S
C334 C332 1.419 . S
C334 C335 1.362 . S
C335 H325 0.930 . S
C335 C328 1.409 1_565 S
C335 C334 1.362 . S
H336 C342 0.930 . S
H337 C345 0.930 . S
H338 C346 0.930 . S
H339 C347 0.930 . S
H340 C350 0.930 . S
H341 C351 0.930 . S
C342 H336 0.930 . S
C342 C343 1.355 . S
C342 C344 1.415 . S
C343 C342 1.355 . S
C343 C345 1.419 . S
C344 C342 1.415 . S
C344 C349 1.425 . S
C344 C351 1.409 . S
C345 H337 0.930 . S
C345 C343 1.419 . S
C345 C346 1.362 . S
C346 H338 0.930 . S
C346 C345 1.362 . S
C346 C349 1.409 . S
C347 H339 0.930 . S
C347 C348 1.355 . S
C347 C349 1.415 . S
C348 C347 1.355 . S
C348 C350 1.419 . S
C349 C344 1.425 . S
C349 C346 1.409 . S
C349 C347 1.415 . S
C350 H340 0.930 . S
C350 C348 1.419 . S
C350 C351 1.362 . S
C351 H341 0.930 . S
C351 C344 1.409 . S
C351 C350 1.362 . S
H352 C358 0.930 . S
H353 C361 0.930 . S
H354 C362 0.930 . S
H355 C363 0.930 . S
H356 C366 0.930 . S
H357 C367 0.930 . S
C358 H352 0.930 . S
C358 C359 1.355 1_556 S
C358 C360 1.415 . S
C359 C358 1.355 1_554 S
C359 C361 1.419 . S
C360 C358 1.415 . S
C360 C365 1.425 . S
C360 C367 1.409 . S
C361 H353 0.930 . S
C361 C359 1.419 . S
C361 C362 1.362 1_554 S
C362 H354 0.930 . S
C362 C361 1.362 1_556 S
C362 C365 1.409 . S
C363 H355 0.930 . S
C363 C364 1.355 . S
C363 C365 1.415 . S
C364 C363 1.355 . S
C364 C366 1.419 . S
C365 C360 1.425 . S
C365 C362 1.409 . S
C365 C363 1.415 . S
C366 H356 0.930 . S
C366 C364 1.419 . S
C366 C367 1.362 . S
C367 H357 0.930 . S
C367 C360 1.409 . S
C367 C366 1.362 . S
H368 C374 0.930 . S
H369 C377 0.930 . S
H370 C378 0.930 . S
H371 C379 0.930 . S
H372 C382 0.930 . S
H373 C383 0.930 . S
C374 H368 0.930 . S
C374 C375 1.355 . S
C374 C376 1.415 . S
C375 C374 1.355 . S
C375 C377 1.419 . S
C376 C374 1.415 . S
C376 C381 1.425 . S
C376 C383 1.409 . S
C377 H369 0.930 . S
C377 C375 1.419 . S
C377 C378 1.362 . S
C378 H370 0.930 . S
C378 C377 1.362 . S
C378 C381 1.409 . S
C379 H371 0.930 . S
C379 C380 1.355 . S
C379 C381 1.415 . S
C380 C379 1.355 . S
C380 C382 1.419 . S
C381 C376 1.425 . S
C381 C378 1.409 . S
C381 C379 1.415 . S
C382 H372 0.930 . S
C382 C380 1.419 . S
C382 C383 1.362 . S
C383 H373 0.930 . S
C383 C376 1.409 . S
C383 C382 1.362 . S
H384 C390 0.930 . S
H385 C393 0.930 . S
H386 C394 0.930 . S
H387 C395 0.930 . S
H388 C398 0.930 . S
H389 C399 0.930 . S
C390 H384 0.930 . S
C390 C391 1.355 . S
C390 C392 1.415 . S
C391 C390 1.355 . S
C391 C393 1.419 . S
C392 C390 1.415 . S
C392 C397 1.425 . S
C392 C399 1.409 . S
C393 H385 0.930 . S
C393 C391 1.419 . S
C393 C394 1.362 . S
C394 H386 0.930 . S
C394 C393 1.362 . S
C394 C397 1.409 . S
C395 H387 0.930 . S
C395 C396 1.355 . S
C395 C397 1.415 . S
C396 C395 1.355 . S
C396 C398 1.419 . S
C397 C392 1.425 . S
C397 C394 1.409 . S
C397 C395 1.415 . S
C398 H388 0.930 . S
C398 C396 1.419 . S
C398 C399 1.362 . S
C399 H389 0.930 . S
C399 C392 1.409 . S
C399 C398 1.362 . S
H400 C406 0.930 . S
H401 C409 0.930 . S
H402 C410 0.930 . S
H403 C411 0.930 . S
H404 C414 0.930 . S
H405 C415 0.930 . S
C406 H400 0.930 . S
C406 C407 1.355 . S
C406 C408 1.415 1_556 S
C407 C406 1.355 . S
C407 C409 1.419 1_556 S
C408 C406 1.415 1_554 S
C408 C413 1.425 . S
C408 C415 1.409 . S
C409 H401 0.930 . S
C409 C407 1.419 1_554 S
C409 C410 1.362 . S
C410 H402 0.930 . S
C410 C409 1.362 . S
C410 C413 1.409 . S
C411 H403 0.930 . S
C411 C412 1.355 . S
C411 C413 1.415 . S
C412 C411 1.355 . S
C412 C414 1.419 . S
C413 C408 1.425 . S
C413 C410 1.409 . S
C413 C411 1.415 . S
C414 H404 0.930 . S
C414 C412 1.419 . S
C414 C415 1.362 . S
C415 H405 0.930 . S
C415 C408 1.409 . S
C415 C414 1.362 . S
H416 C422 0.930 . S
H417 C425 0.930 . S
H418 C426 0.930 . S
H419 C427 0.930 . S
H420 C430 0.930 . S
H421 C431 0.930 . S
C422 H416 0.930 . S
C422 C423 1.355 . S
C422 C424 1.415 . S
C423 C422 1.355 . S
C423 C425 1.419 . S
C424 C422 1.415 . S
C424 C429 1.425 . S
C424 C431 1.409 . S
C425 H417 0.930 . S
C425 C423 1.419 . S
C425 C426 1.362 . S
C426 H418 0.930 . S
C426 C425 1.362 . S
C426 C429 1.409 . S
C427 H419 0.930 . S
C427 C428 1.355 . S
C427 C429 1.415 . S
C428 C427 1.355 . S
C428 C430 1.419 . S
C429 C424 1.425 . S
C429 C426 1.409 . S
C429 C427 1.415 . S
C430 H420 0.930 . S
C430 C428 1.419 . S
C430 C431 1.362 . S
C431 H421 0.930 . S
C431 C424 1.409 . S
C431 C430 1.362 . S
H432 C438 0.930 . S
H433 C441 0.930 . S
H434 C442 0.930 . S
H435 C443 0.930 . S
H436 C446 0.930 . S
H437 C447 0.930 . S
C438 H432 0.930 . S
C438 C439 1.355 . S
C438 C440 1.415 . S
C439 C438 1.355 . S
C439 C441 1.419 . S
C440 C438 1.415 . S
C440 C445 1.425 . S
C440 C447 1.409 . S
C441 H433 0.930 . S
C441 C439 1.419 . S
C441 C442 1.362 . S
C442 H434 0.930 . S
C442 C441 1.362 . S
C442 C445 1.409 . S
C443 H435 0.930 . S
C443 C444 1.355 . S
C443 C445 1.415 . S
C444 C443 1.355 . S
C444 C446 1.419 . S
C445 C440 1.425 . S
C445 C442 1.409 . S
C445 C443 1.415 . S
C446 H436 0.930 . S
C446 C444 1.419 . S
C446 C447 1.362 . S
C447 H437 0.930 . S
C447 C440 1.409 . S
C447 C446 1.362 . S
H448 C454 0.930 . S
H449 C457 0.930 . S
H450 C458 0.930 . S
H451 C459 0.930 . S
H452 C462 0.930 . S
H453 C463 0.930 . S
C454 H448 0.930 . S
C454 C455 1.355 . S
C454 C456 1.415 . S
C455 C454 1.355 . S
C455 C457 1.419 . S
C456 C454 1.415 . S
C456 C461 1.425 . S
C456 C463 1.409 . S
C457 H449 0.930 . S
C457 C455 1.419 . S
C457 C458 1.362 . S
C458 H450 0.930 . S
C458 C457 1.362 . S
C458 C461 1.409 . S
C459 H451 0.930 . S
C459 C460 1.355 . S
C459 C461 1.415 . S
C460 C459 1.355 . S
C460 C462 1.419 . S
C461 C456 1.425 . S
C461 C458 1.409 . S
C461 C459 1.415 . S
C462 H452 0.930 . S
C462 C460 1.419 . S
C462 C463 1.362 . S
C463 H453 0.930 . S
C463 C456 1.409 . S
C463 C462 1.362 . S
H464 C470 0.930 . S
H465 C473 0.930 . S
H466 C474 0.930 . S
H467 C475 0.930 . S
H468 C478 0.930 . S
H469 C479 0.930 . S
C470 H464 0.930 . S
C470 C471 1.355 . S
C470 C472 1.415 . S
C471 C470 1.355 . S
C471 C473 1.419 . S
C472 C470 1.415 . S
C472 C477 1.425 . S
C472 C479 1.409 . S
C473 H465 0.930 . S
C473 C471 1.419 . S
C473 C474 1.362 . S
C474 H466 0.930 . S
C474 C473 1.362 . S
C474 C477 1.409 . S
C475 H467 0.930 . S
C475 C476 1.355 . S
C475 C477 1.415 . S
C476 C475 1.355 . S
C476 C478 1.419 . S
C477 C472 1.425 . S
C477 C474 1.409 . S
C477 C475 1.415 . S
C478 H468 0.930 . S
C478 C476 1.419 . S
C478 C479 1.362 . S
C479 H469 0.930 . S
C479 C472 1.409 . S
C479 C478 1.362 . S
H480 C486 0.930 . S
H481 C489 0.930 . S
H482 C490 0.930 . S
H483 C491 0.930 . S
H484 C494 0.930 . S
H485 C495 0.930 . S
C486 H480 0.930 . S
C486 C487 1.355 . S
C486 C488 1.415 . S
C487 C486 1.355 . S
C487 C489 1.419 . S
C488 C486 1.415 . S
C488 C493 1.425 . S
C488 C495 1.409 . S
C489 H481 0.930 . S
C489 C487 1.419 . S
C489 C490 1.362 . S
C490 H482 0.930 . S
C490 C489 1.362 . S
C490 C493 1.409 . S
C491 H483 0.930 . S
C491 C492 1.355 . S
C491 C493 1.415 . S
C492 C491 1.355 . S
C492 C494 1.419 . S
C493 C488 1.425 . S
C493 C490 1.409 . S
C493 C491 1.415 . S
C494 H484 0.930 . S
C494 C492 1.419 . S
C494 C495 1.362 . S
C495 H485 0.930 . S
C495 C488 1.409 . S
C495 C494 1.362 . S
H496 C502 0.930 . S
H497 C505 0.930 . S
H498 C506 0.930 . S
H499 C507 0.930 . S
H500 C510 0.930 . S
H501 C511 0.930 . S
C502 H496 0.930 . S
C502 C503 1.355 . S
C502 C504 1.415 . S
C503 C502 1.355 . S
C503 C505 1.419 . S
C504 C502 1.415 . S
C504 C509 1.425 . S
C504 C511 1.409 . S
C505 H497 0.930 . S
C505 C503 1.419 . S
C505 C506 1.362 . S
C506 H498 0.930 . S
C506 C505 1.362 . S
C506 C509 1.409 . S
C507 H499 0.930 . S
C507 C508 1.355 . S
C507 C509 1.415 . S
C508 C507 1.355 . S
C508 C510 1.419 . S
C509 C504 1.425 . S
C509 C506 1.409 . S
C509 C507 1.415 . S
C510 H500 0.930 . S
C510 C508 1.419 . S
C510 C511 1.362 . S
C511 H501 0.930 . S
C511 C504 1.409 . S
C511 C510 1.362 . S
H512 C518 0.930 . S
H513 C521 0.927 1_554 S
H514 C522 0.930 . S
H515 C523 0.930 . S
H516 C526 0.930 . S
H517 C527 0.930 . S
C518 H512 0.930 . S
C518 C519 1.355 . S
C518 C520 1.415 . S
C519 C518 1.355 . S
C519 C521 1.420 . S
C520 C518 1.415 . S
C520 C525 1.425 . S
C520 C527 1.409 . S
C521 H513 0.927 1_556 S
C521 C519 1.420 . S
C521 C522 1.364 . S
C522 H514 0.930 . S
C522 C521 1.364 . S
C522 C525 1.409 . S
C523 H515 0.930 . S
C523 C524 1.355 . S
C523 C525 1.415 . S
C524 C523 1.355 . S
C524 C526 1.419 . S
C525 C520 1.425 . S
C525 C522 1.409 . S
C525 C523 1.415 . S
C526 H516 0.930 . S
C526 C524 1.419 . S
C526 C527 1.362 . S
C527 H517 0.930 . S
C527 C520 1.409 . S
C527 C526 1.362 . S
C247 C202 1.841 . S
C252 C2 1.843 . S
C263 C10 1.449 . S
C268 C50 1.431 . S
C279 C42 1.841 . S
C284 C82 1.840 . S
C295 C90 1.372 . S
C300 C130 1.441 . S
C311 C162 1.824 . S
C316 C122 1.825 . S
C327 C210 1.455 . S
C332 C170 1.424 . S
C343 C7 1.456 . S
C348 C16 1.456 . S
C359 C56 1.472 . S
C364 C47 1.472 . S
C375 C87 1.527 . S
C380 C96 1.527 . S
C391 C136 1.530 . S
C396 C127 1.530 . S
C407 C176 1.530 . S
C412 C167 1.530 . S
C423 C216 1.527 . S
C428 C207 1.527 . S
C439 C11 1.858 . S
C444 C179 1.866 . S
C455 C59 1.858 . S
C460 C211 1.868 . S
C471 C19 1.867 . S
C476 C91 1.863 1_554 S
C487 C51 1.859 . S
C492 C139 1.870 . S
C503 C171 1.861 . S
C508 C99 1.863 . S
C519 C131 1.857 1_556 S
C524 C219 1.867 . S
