# Generated by pormake.
# Topology uka, (4)-cn, num edge types: 1
# Building blocks:
#     Node 0, Type 0, BuildingBlock: GALJAG_clean_sbu_0, # of connection points: 4
#     Node 1, Type 0, BuildingBlock: GALJAG_clean_sbu_0, # of connection points: 4
#     Node 2, Type 0, BuildingBlock: GALJAG_clean_sbu_0, # of connection points: 4
#     Node 3, Type 0, BuildingBlock: GALJAG_clean_sbu_0, # of connection points: 4
#     Node 4, Type 0, BuildingBlock: GALJAG_clean_sbu_0, # of connection points: 4
#     Node 5, Type 0, BuildingBlock: GALJAG_clean_sbu_0, # of connection points: 4
#     Node 6, Type 0, BuildingBlock: GALJAG_clean_sbu_0, # of connection points: 4
#     Node 7, Type 0, BuildingBlock: GALJAG_clean_sbu_0, # of connection points: 4
#     Node 8, Type 0, BuildingBlock: GALJAG_clean_sbu_0, # of connection points: 4
#     Node 9, Type 0, BuildingBlock: GALJAG_clean_sbu_0, # of connection points: 4
#     Node 10, Type 0, BuildingBlock: GALJAG_clean_sbu_0, # of connection points: 4
#     Node 11, Type 0, BuildingBlock: GALJAG_clean_sbu_0, # of connection points: 4
#     Node 12, Type 0, BuildingBlock: GALJAG_clean_sbu_0, # of connection points: 4
#     Node 13, Type 0, BuildingBlock: GALJAG_clean_sbu_0, # of connection points: 4
#     Node 14, Type 0, BuildingBlock: GALJAG_clean_sbu_0, # of connection points: 4
#     Node 15, Type 0, BuildingBlock: GALJAG_clean_sbu_0, # of connection points: 4
#     Node 16, Type 0, BuildingBlock: GALJAG_clean_sbu_0, # of connection points: 4
#     Node 17, Type 0, BuildingBlock: GALJAG_clean_sbu_0, # of connection points: 4
#     Node 18, Type 0, BuildingBlock: GALJAG_clean_sbu_0, # of connection points: 4
#     Node 19, Type 0, BuildingBlock: GALJAG_clean_sbu_0, # of connection points: 4
#     Node 20, Type 0, BuildingBlock: GALJAG_clean_sbu_0, # of connection points: 4
#     Node 21, Type 0, BuildingBlock: GALJAG_clean_sbu_0, # of connection points: 4
#     Node 22, Type 0, BuildingBlock: GALJAG_clean_sbu_0, # of connection points: 4
#     Node 23, Type 0, BuildingBlock: GALJAG_clean_sbu_0, # of connection points: 4
#     Node 24, Type 0, BuildingBlock: GALJAG_clean_sbu_0, # of connection points: 4
#     Node 25, Type 0, BuildingBlock: GALJAG_clean_sbu_0, # of connection points: 4
#     Node 26, Type 0, BuildingBlock: GALJAG_clean_sbu_0, # of connection points: 4
#     Node 27, Type 0, BuildingBlock: GALJAG_clean_sbu_0, # of connection points: 4
#     Node 28, Type 0, BuildingBlock: GALJAG_clean_sbu_0, # of connection points: 4
#     Node 29, Type 0, BuildingBlock: GALJAG_clean_sbu_0, # of connection points: 4
#     Node 30, Type 0, BuildingBlock: GALJAG_clean_sbu_0, # of connection points: 4
#     Node 31, Type 0, BuildingBlock: GALJAG_clean_sbu_0, # of connection points: 4
#     Edge 32, Type (0, 0), None
#     Edge 33, Type (0, 0), None
#     Edge 34, Type (0, 0), None
#     Edge 35, Type (0, 0), None
#     Edge 36, Type (0, 0), None
#     Edge 37, Type (0, 0), None
#     Edge 38, Type (0, 0), None
#     Edge 39, Type (0, 0), None
#     Edge 40, Type (0, 0), None
#     Edge 41, Type (0, 0), None
#     Edge 42, Type (0, 0), None
#     Edge 43, Type (0, 0), None
#     Edge 44, Type (0, 0), None
#     Edge 45, Type (0, 0), None
#     Edge 46, Type (0, 0), None
#     Edge 47, Type (0, 0), None
#     Edge 48, Type (0, 0), None
#     Edge 49, Type (0, 0), None
#     Edge 50, Type (0, 0), None
#     Edge 51, Type (0, 0), None
#     Edge 52, Type (0, 0), None
#     Edge 53, Type (0, 0), None
#     Edge 54, Type (0, 0), None
#     Edge 55, Type (0, 0), None
#     Edge 56, Type (0, 0), None
#     Edge 57, Type (0, 0), None
#     Edge 58, Type (0, 0), None
#     Edge 59, Type (0, 0), None
#     Edge 60, Type (0, 0), None
#     Edge 61, Type (0, 0), None
#     Edge 62, Type (0, 0), None
#     Edge 63, Type (0, 0), None
#     Edge 64, Type (0, 0), None
#     Edge 65, Type (0, 0), None
#     Edge 66, Type (0, 0), None
#     Edge 67, Type (0, 0), None
#     Edge 68, Type (0, 0), None
#     Edge 69, Type (0, 0), None
#     Edge 70, Type (0, 0), None
#     Edge 71, Type (0, 0), None
#     Edge 72, Type (0, 0), None
#     Edge 73, Type (0, 0), None
#     Edge 74, Type (0, 0), None
#     Edge 75, Type (0, 0), None
#     Edge 76, Type (0, 0), None
#     Edge 77, Type (0, 0), None
#     Edge 78, Type (0, 0), None
#     Edge 79, Type (0, 0), None
#     Edge 80, Type (0, 0), None
#     Edge 81, Type (0, 0), None
#     Edge 82, Type (0, 0), None
#     Edge 83, Type (0, 0), None
#     Edge 84, Type (0, 0), None
#     Edge 85, Type (0, 0), None
#     Edge 86, Type (0, 0), None
#     Edge 87, Type (0, 0), None
#     Edge 88, Type (0, 0), None
#     Edge 89, Type (0, 0), None
#     Edge 90, Type (0, 0), None
#     Edge 91, Type (0, 0), None
#     Edge 92, Type (0, 0), None
#     Edge 93, Type (0, 0), None
#     Edge 94, Type (0, 0), None
#     Edge 95, Type (0, 0), None
# Relax obj value: 0.104
# Max RMSD: 0.149
# Mean RMSD: 0.149
data_MOF--net-uka--node1-GALJAG_clean_sbu_0--edge1-none
_symmetry_space_group_name_H-M    P1
_symmetry_Int_Tables_number       1
_symmetry_cell_setting            triclinic
loop_
_symmetry_equiv_pos_as_xyz
'x, y, z'
_cell_length_a     27.267339
_cell_length_b     27.267711
_cell_length_c     19.808325
_cell_angle_alpha  90.0
_cell_angle_beta   90.0
_cell_angle_gamma 90.000004
loop_
_atom_site_label
_atom_site_type_symbol
_atom_site_fract_x
_atom_site_fract_y
_atom_site_fract_z
_atom_type_partial_charge
In0 In 0.0942 0.24331 0.29724 0.0
O1 O 0.17506 0.26166 0.3069 0.0
O2 O 0.15486 0.19504 0.25661 0.0
C3 C 0.04417 0.30003 0.38209 0.0
C4 C 0.05657 0.28276 0.18257 0.0
C5 C 0.07378 0.1662 0.37537 0.0
O6 O 0.0905 0.29789 0.38585 0.0
O7 O 0.02478 0.27614 0.3347 0.0
O8 O 0.06282 0.1659 0.31307 0.0
O9 O 0.0951 0.20421 0.39602 0.0
C10 C 0.18868 0.22179 0.27994 0.0
O11 O 0.04273 0.24165 0.2055 0.0
O12 O 0.09184 0.30223 0.21434 0.0
In13 In 0.9356 0.84422 0.54724 0.0
O14 O 0.93728 0.79276 0.4555 0.0
O15 O 0.87668 0.84186 0.46435 0.0
C16 C 0.01272 0.82382 0.62537 0.0
C17 C 0.95712 0.93871 0.52995 0.0
C18 C 0.8789 0.79418 0.63209 0.0
O19 O 0.01302 0.81286 0.56307 0.0
O20 O -0.02529 0.84514 0.64602 0.0
O21 O 0.88102 0.84051 0.63584 0.0
O22 O 0.9028 0.7748 0.58471 0.0
C23 C 0.89616 0.80659 0.43257 0.0
O24 O 0.91725 0.92508 0.55691 0.0
O25 O -0.01613 0.90489 0.5066 0.0
In26 In 0.33468 0.68559 0.79724 0.0
O27 O 0.38614 0.68726 0.7055 0.0
O28 O 0.33704 0.62667 0.71434 0.0
C29 C 0.3551 0.7627 0.87537 0.0
C30 C 0.24019 0.70711 0.77994 0.0
C31 C 0.38471 0.62887 0.88209 0.0
O32 O 0.36605 0.763 0.81307 0.0
O33 O 0.33378 0.72469 0.89602 0.0
O34 O 0.33838 0.63101 0.88585 0.0
O35 O 0.40409 0.65276 0.8347 0.0
C36 C 0.37231 0.64614 0.68257 0.0
O37 O 0.25382 0.66724 0.8069 0.0
O38 O 0.27401 0.73386 0.75661 0.0
In39 In 0.49327 0.08468 0.04724 0.0
O40 O 0.51163 0.00382 0.05691 0.0
O41 O 0.44501 0.02401 1.0066 0.0
C42 C 0.54998 0.13472 0.13209 0.0
C43 C 0.53272 0.12231 0.93257 0.0
C44 C 0.41616 0.10508 0.12537 0.0
O45 O 0.54785 0.08839 0.13584 0.0
O46 O 0.52608 0.1541 0.08471 0.0
O47 O 0.41586 0.11604 0.06307 0.0
O48 O 0.45417 0.08377 0.14602 0.0
C49 C 0.47176 -0.00981 0.02995 0.0
O50 O 0.4916 0.13614 0.95549 0.0
O51 O 0.5522 0.08704 0.96435 0.0
In52 In 0.0942 0.68559 0.25933 0.0
O53 O 0.17506 0.66724 0.24968 0.0
O54 O 0.15486 0.73386 0.29997 0.0
C55 C 0.04417 0.62887 0.17449 0.0
C56 C 0.05657 0.64614 0.374 0.0
C57 C 0.07378 0.7627 0.18121 0.0
O58 O 0.0905 0.63101 0.17072 0.0
O59 O 0.02478 0.65276 0.22187 0.0
O60 O 0.06282 0.763 0.24351 0.0
O61 O 0.0951 0.72469 0.16056 0.0
C62 C 0.18868 0.70711 0.27664 0.0
O63 O 0.04273 0.68726 0.35108 0.0
O64 O 0.09184 0.62667 0.34223 0.0
In65 In 0.49327 0.84422 0.50933 0.0
O66 O 0.4916 0.79276 0.60108 0.0
O67 O 0.5522 0.84186 0.59223 0.0
C68 C 0.41616 0.82382 0.4312 0.0
C69 C 0.47176 0.93871 0.52663 0.0
C70 C 0.54998 0.79418 0.42448 0.0
O71 O 0.41586 0.81286 0.4935 0.0
O72 O 0.45417 0.84514 0.41056 0.0
O73 O 0.54785 0.84051 0.42073 0.0
O74 O 0.52608 0.7748 0.47186 0.0
C75 C 0.53272 0.80659 0.624 0.0
O76 O 0.51163 0.92508 0.49967 0.0
O77 O 0.44501 0.90489 0.54997 0.0
In78 In 0.33468 0.24331 0.75933 0.0
O79 O 0.38614 0.24165 0.85108 0.0
O80 O 0.33704 0.30223 0.84223 0.0
C81 C 0.3551 0.1662 0.68121 0.0
C82 C 0.24019 0.22179 0.77664 0.0
C83 C 0.38471 0.30003 0.67449 0.0
O84 O 0.36605 0.1659 0.74351 0.0
O85 O 0.33378 0.20421 0.66056 0.0
O86 O 0.33838 0.29789 0.67072 0.0
O87 O 0.40409 0.27614 0.72187 0.0
C88 C 0.37231 0.28276 0.874 0.0
O89 O 0.25382 0.26166 0.74968 0.0
O90 O 0.27401 0.19504 0.79997 0.0
In91 In 0.9356 0.08468 1.00933 0.0
O92 O 0.91725 0.00382 0.99967 0.0
O93 O -0.01613 0.02401 0.04997 0.0
C94 C 0.8789 0.13472 0.92448 0.0
C95 C 0.89616 0.12231 0.124 0.0
C96 C 0.01272 0.10508 0.9312 0.0
O97 O 0.88102 0.08839 0.92073 0.0
O98 O 0.9028 0.1541 0.97186 0.0
O99 O 0.01302 0.11604 0.9935 0.0
O100 O -0.02529 0.08377 0.91056 0.0
C101 C 0.95712 -0.00981 1.02663 0.0
O102 O 0.93728 0.13614 0.10108 0.0
O103 O 0.87668 0.08704 0.09223 0.0
In104 In 0.83468 0.68561 0.75933 0.0
O105 O 0.75382 0.66727 0.74968 0.0
O106 O 0.77401 0.73389 0.79996 0.0
C107 C 0.88473 0.62891 0.6745 0.0
C108 C 0.8723 0.64618 0.87401 0.0
C109 C 0.85509 0.76269 0.68118 0.0
O110 O 0.8384 0.63102 0.67075 0.0
O111 O 0.90411 0.65282 0.72187 0.0
O112 O 0.86603 0.76304 0.74349 0.0
O113 O 0.83376 0.72468 0.66054 0.0
C114 C 0.74019 0.70714 0.77663 0.0
O115 O 0.88614 0.68729 0.85108 0.0
O116 O 0.83704 0.6267 0.84223 0.0
In117 In -0.00674 0.0847 0.50935 0.0
O118 O -0.0084 0.13616 0.60109 0.0
O119 O 0.0522 0.08708 0.59223 0.0
C120 C 0.91614 0.10505 0.43122 0.0
C121 C -0.02825 -0.00979 0.52666 0.0
C122 C 0.04992 0.13473 0.42444 0.0
O123 O 0.91584 0.11605 0.49352 0.0
O124 O 0.95414 0.08372 0.41059 0.0
O125 O 0.04789 0.08839 0.4208 0.0
O126 O 0.02597 0.15413 0.47176 0.0
C127 C 0.03272 0.12234 0.624 0.0
O128 O 0.01161 0.00384 0.49968 0.0
O129 O 0.94501 0.02403 0.55001 0.0
In130 In 0.5942 0.24329 0.25933 0.0
O131 O 0.67506 0.26163 0.24968 0.0
O132 O 0.65487 0.19501 0.29996 0.0
C133 C 0.54415 0.29999 0.1745 0.0
C134 C 0.55657 0.28273 0.37401 0.0
C135 C 0.57378 0.16621 0.18118 0.0
O136 O 0.59048 0.29788 0.17075 0.0
O137 O 0.52477 0.27608 0.22186 0.0
O138 O 0.56285 0.16586 0.24349 0.0
O139 O 0.59511 0.20422 0.16054 0.0
C140 C 0.68869 0.22176 0.27663 0.0
O141 O 0.54274 0.24161 0.35108 0.0
O142 O 0.59184 0.3022 0.34223 0.0
In143 In 0.43561 0.84421 1.00935 0.0
O144 O 0.41726 0.92506 0.99968 0.0
O145 O 0.48387 0.90487 0.05001 0.0
C146 C 0.37895 0.79417 0.92444 0.0
C147 C 0.39615 0.80656 0.124 0.0
C148 C 0.51274 0.82385 0.93122 0.0
O149 O 0.38099 0.84051 0.9208 0.0
O150 O 0.4029 0.77477 0.97176 0.0
O151 O 0.51303 0.81285 0.99352 0.0
O152 O 0.47473 0.84518 0.91059 0.0
C153 C 0.45712 0.93869 1.02666 0.0
O154 O 0.43728 0.79274 0.10109 0.0
O155 O 0.37668 0.84182 0.09223 0.0
In156 In 0.83468 0.24329 0.79724 0.0
O157 O 0.88614 0.24161 0.7055 0.0
O158 O 0.83704 0.3022 0.71434 0.0
C159 C 0.85509 0.16621 0.8754 0.0
C160 C 0.74019 0.22176 0.77995 0.0
C161 C 0.88473 0.29999 0.88208 0.0
O162 O 0.86603 0.16586 0.81309 0.0
O163 O 0.83376 0.20422 0.89604 0.0
O164 O 0.8384 0.29788 0.88583 0.0
O165 O 0.90411 0.27608 0.83471 0.0
C166 C 0.8723 0.28273 0.68257 0.0
O167 O 0.75382 0.26163 0.8069 0.0
O168 O 0.77401 0.19501 0.75662 0.0
In169 In 0.43561 0.0847 0.54723 0.0
O170 O 0.43728 0.13616 0.45549 0.0
O171 O 0.37668 0.08708 0.46435 0.0
C172 C 0.51274 0.10505 0.62535 0.0
C173 C 0.45712 -0.00979 0.52991 0.0
C174 C 0.37895 0.13473 0.63213 0.0
O175 O 0.51303 0.11605 0.56306 0.0
O176 O 0.47473 0.08372 0.64599 0.0
O177 O 0.38099 0.08839 0.63577 0.0
O178 O 0.4029 0.15413 0.58482 0.0
C179 C 0.39615 0.12234 0.43257 0.0
O180 O 0.41726 0.00384 0.55689 0.0
O181 O 0.48387 0.02403 0.50656 0.0
In182 In 0.5942 0.68561 0.29724 0.0
O183 O 0.67506 0.66727 0.3069 0.0
O184 O 0.65487 0.73389 0.25662 0.0
C185 C 0.54415 0.62891 0.38208 0.0
C186 C 0.55657 0.64618 0.18257 0.0
C187 C 0.57378 0.76269 0.3754 0.0
O188 O 0.59048 0.63102 0.38583 0.0
O189 O 0.52477 0.65282 0.33471 0.0
O190 O 0.56285 0.76304 0.31309 0.0
O191 O 0.59511 0.72468 0.39604 0.0
C192 C 0.68869 0.70714 0.27995 0.0
O193 O 0.54274 0.68729 0.2055 0.0
O194 O 0.59184 0.6267 0.21434 0.0
In195 In -0.00674 0.84421 0.04723 0.0
O196 O 0.01161 0.92506 0.05689 0.0
O197 O 0.94501 0.90487 1.00656 0.0
C198 C 0.04992 0.79417 0.13213 0.0
C199 C 0.03272 0.80656 0.93257 0.0
C200 C 0.91614 0.82385 0.12535 0.0
O201 O 0.04789 0.84051 0.13577 0.0
O202 O 0.02597 0.77477 0.08482 0.0
O203 O 0.91584 0.81285 0.06306 0.0
O204 O 0.95414 0.84518 0.14599 0.0
C205 C -0.02825 0.93869 0.02991 0.0
O206 O -0.0084 0.79274 0.95549 0.0
O207 O 0.0522 0.84182 0.96435 0.0
In208 In 0.59421 0.74331 0.79724 0.0
O209 O 0.54272 0.74165 0.70551 0.0
O210 O 0.59183 0.80223 0.71434 0.0
C211 C 0.57382 0.66618 0.87537 0.0
C212 C 0.68869 0.72178 0.77992 0.0
C213 C 0.5442 0.8 0.88214 0.0
O214 O 0.56285 0.66589 0.81307 0.0
O215 O 0.59515 0.70419 0.89601 0.0
O216 O 0.59054 0.79792 0.8858 0.0
O217 O 0.52479 0.77607 0.83481 0.0
C218 C 0.55655 0.78276 0.68259 0.0
O219 O 0.67507 0.76165 0.80689 0.0
O220 O 0.65487 0.69503 0.75658 0.0
In221 In 0.43558 0.34423 0.04726 0.0
O222 O 0.41724 0.42509 0.0569 0.0
O223 O 0.48386 0.40489 1.00663 0.0
C224 C 0.37885 0.2942 0.13209 0.0
C225 C 0.39614 0.30659 0.93259 0.0
C226 C 0.51265 0.3238 0.12541 0.0
O227 O 0.38099 0.34053 0.13584 0.0
O228 O 0.40275 0.27481 0.08472 0.0
O229 O 0.513 0.31287 0.0631 0.0
O230 O 0.47464 0.34512 0.14606 0.0
C231 C 0.45711 0.43871 0.02995 0.0
O232 O 0.43725 0.29276 0.95552 0.0
O233 O 0.37667 0.34187 0.96435 0.0
In234 In 0.83467 0.1856 0.29724 0.0
O235 O 0.75381 0.16726 0.30689 0.0
O236 O 0.77401 0.23387 0.25658 0.0
C237 C 0.88467 0.1289 0.38214 0.0
C238 C 0.87232 0.14614 0.18259 0.0
C239 C 0.85506 0.26272 0.37537 0.0
O240 O 0.83834 0.13098 0.3858 0.0
O241 O 0.90408 0.15283 0.33481 0.0
O242 O 0.86603 0.26301 0.31307 0.0
O243 O 0.83373 0.22471 0.39601 0.0
C244 C 0.74018 0.20712 0.27992 0.0
O245 O 0.88615 0.18726 0.20551 0.0
O246 O 0.83705 0.12667 0.21434 0.0
In247 In -0.0067 0.58467 0.54726 0.0
O248 O 0.01164 0.50381 0.5569 0.0
O249 O 0.94501 0.52401 0.50663 0.0
C250 C 0.05002 0.6347 0.63209 0.0
C251 C 0.03274 0.62231 0.43259 0.0
C252 C 0.91623 0.6051 0.62541 0.0
O253 O 0.04789 0.58837 0.63584 0.0
O254 O 0.02612 0.65409 0.58472 0.0
O255 O 0.91588 0.61603 0.5631 0.0
O256 O 0.95424 0.58378 0.64606 0.0
C257 C -0.02824 0.49019 0.52995 0.0
O258 O -0.00838 0.63614 0.45552 0.0
O259 O 0.05221 0.58703 0.46435 0.0
In260 In 0.59421 0.1856 0.75934 0.0
O261 O 0.54272 0.18726 0.85106 0.0
O262 O 0.59183 0.12667 0.84223 0.0
C263 C 0.57382 0.26272 0.68121 0.0
C264 C 0.68869 0.20712 0.77666 0.0
C265 C 0.5442 0.12891 0.67444 0.0
O266 O 0.56285 0.26301 0.74351 0.0
O267 O 0.59515 0.22471 0.66057 0.0
O268 O 0.59054 0.13098 0.67078 0.0
O269 O 0.52479 0.15283 0.72176 0.0
C270 C 0.55655 0.14614 0.87399 0.0
O271 O 0.67507 0.16726 0.74969 0.0
O272 O 0.65487 0.23387 0.8 0.0
In273 In -0.0067 0.34423 1.00932 0.0
O274 O -0.00837 0.29276 0.10106 0.0
O275 O 0.05221 0.34187 0.09223 0.0
C276 C 0.91623 0.3238 0.93116 0.0
C277 C -0.02824 0.43871 1.02663 0.0
C278 C 0.05002 0.2942 0.92449 0.0
O279 O 0.91588 0.31287 0.99348 0.0
O280 O 0.95424 0.34512 0.91052 0.0
O281 O 0.04789 0.34053 0.92073 0.0
O282 O 0.02612 0.27481 0.97186 0.0
C283 C 0.03274 0.30659 0.12399 0.0
O284 O 0.01164 0.42509 0.99968 0.0
O285 O 0.94501 0.40489 0.04995 0.0
In286 In 0.83467 0.74331 0.25934 0.0
O287 O 0.75381 0.76165 0.24969 0.0
O288 O 0.77401 0.69503 0.3 0.0
C289 C 0.88467 0.8 0.17444 0.0
C290 C 0.87232 0.78276 0.37399 0.0
C291 C 0.85505 0.66618 0.18121 0.0
O292 O 0.83834 0.79792 0.17078 0.0
O293 O 0.90408 0.77607 0.22176 0.0
O294 O 0.86603 0.66589 0.24351 0.0
O295 O 0.83373 0.70419 0.16057 0.0
C296 C 0.74018 0.72178 0.27666 0.0
O297 O 0.88615 0.74165 0.35106 0.0
O298 O 0.83705 0.80223 0.34223 0.0
In299 In 0.43558 0.58467 0.50932 0.0
O300 O 0.43725 0.63614 0.60106 0.0
O301 O 0.37667 0.58703 0.59223 0.0
C302 C 0.51265 0.6051 0.43116 0.0
C303 C 0.45711 0.49019 0.52663 0.0
C304 C 0.37885 0.6347 0.42449 0.0
O305 O 0.513 0.61603 0.49348 0.0
O306 O 0.47464 0.58378 0.41052 0.0
O307 O 0.38099 0.58837 0.42073 0.0
O308 O 0.40275 0.65409 0.47186 0.0
C309 C 0.39614 0.62231 0.62399 0.0
O310 O 0.41724 0.50381 0.49968 0.0
O311 O 0.48386 0.52401 0.54995 0.0
In312 In 0.33466 0.18562 0.25934 0.0
O313 O 0.38615 0.18729 0.35106 0.0
O314 O 0.33704 0.1267 0.34223 0.0
C315 C 0.35505 0.2627 0.18118 0.0
C316 C 0.24018 0.20715 0.27665 0.0
C317 C 0.38469 0.12894 0.17445 0.0
O318 O 0.36601 0.26305 0.24349 0.0
O319 O 0.33371 0.2247 0.16055 0.0
O320 O 0.33835 0.13098 0.17081 0.0
O321 O 0.40409 0.1529 0.22176 0.0
C322 C 0.37232 0.14617 0.37399 0.0
O323 O 0.25381 0.16728 0.24969 0.0
O324 O 0.274 0.2339 0.29999 0.0
In325 In 0.49329 0.58469 1.00934 0.0
O326 O 0.49162 0.63617 0.10106 0.0
O327 O 0.55222 0.58707 0.09223 0.0
C328 C 0.41621 0.60507 0.93118 0.0
C329 C 0.47176 0.49021 1.02666 0.0
C330 C 0.54997 0.63472 0.92445 0.0
O331 O 0.41586 0.61603 0.99349 0.0
O332 O 0.45421 0.58374 0.91055 0.0
O333 O 0.54793 0.58838 0.9208 0.0
O334 O 0.52601 0.65412 0.97176 0.0
C335 C 0.53274 0.62234 0.12399 0.0
O336 O 0.51163 0.50383 0.9997 0.0
O337 O 0.44501 0.52403 0.04999 0.0
In338 In 0.09421 0.74328 0.75934 0.0
O339 O 0.04273 0.74161 0.85106 0.0
O340 O 0.09183 0.8022 0.84223 0.0
C341 C 0.07383 0.6662 0.68118 0.0
C342 C 0.18869 0.72175 0.77665 0.0
C343 C 0.04419 0.79996 0.67445 0.0
O344 O 0.06287 0.66585 0.74349 0.0
O345 O 0.09516 0.7042 0.66055 0.0
O346 O 0.09053 0.79792 0.67081 0.0
O347 O 0.02478 0.77601 0.72176 0.0
C348 C 0.05656 0.78273 0.87399 0.0
O349 O 0.17507 0.76162 0.74969 0.0
O350 O 0.15487 0.695 0.79999 0.0
In351 In 0.93559 0.34421 0.50934 0.0
O352 O 0.91725 0.42507 0.4997 0.0
O353 O -0.01613 0.40487 0.54999 0.0
C354 C 0.87891 0.29418 0.42445 0.0
C355 C 0.89613 0.30656 0.62399 0.0
C356 C 0.01267 0.32383 0.43118 0.0
O357 O 0.88095 0.34052 0.4208 0.0
O358 O 0.90286 0.27478 0.47175 0.0
O359 O 0.01301 0.31287 0.49349 0.0
O360 O -0.02533 0.34517 0.41055 0.0
C361 C 0.95712 0.43869 0.52666 0.0
O362 O 0.93725 0.29273 0.60106 0.0
O363 O 0.87666 0.34183 0.59223 0.0
In364 In 0.33466 0.74328 0.29724 0.0
O365 O 0.38615 0.74161 0.20551 0.0
O366 O 0.33704 0.8022 0.21434 0.0
C367 C 0.35505 0.6662 0.37539 0.0
C368 C 0.24018 0.72175 0.27992 0.0
C369 C 0.38469 0.79996 0.38212 0.0
O370 O 0.36601 0.66585 0.31309 0.0
O371 O 0.33371 0.7042 0.39603 0.0
O372 O 0.33835 0.79792 0.38577 0.0
O373 O 0.40409 0.77601 0.33482 0.0
C374 C 0.37232 0.78273 0.18258 0.0
O375 O 0.25381 0.76162 0.30689 0.0
O376 O 0.274 0.695 0.25659 0.0
In377 In 0.93559 0.58469 0.04724 0.0
O378 O 0.91725 0.50383 0.05688 0.0
O379 O -0.01613 0.52403 1.00659 0.0
C380 C 0.87891 0.63472 0.13213 0.0
C381 C 0.89613 0.62234 0.93259 0.0
C382 C 0.01267 0.60507 0.12539 0.0
O383 O 0.88095 0.58838 0.13577 0.0
O384 O 0.90286 0.65412 0.08482 0.0
O385 O 0.01301 0.61603 0.06309 0.0
O386 O -0.02533 0.58374 0.14603 0.0
C387 C 0.95712 0.49021 0.02992 0.0
O388 O 0.93725 0.63617 0.95551 0.0
O389 O 0.87666 0.58707 0.96435 0.0
In390 In 0.09421 0.18562 0.79724 0.0
O391 O 0.04273 0.18729 0.70551 0.0
O392 O 0.09183 0.1267 0.71434 0.0
C393 C 0.07383 0.2627 0.87539 0.0
C394 C 0.18869 0.20715 0.77992 0.0
C395 C 0.04419 0.12894 0.88212 0.0
O396 O 0.06287 0.26305 0.81309 0.0
O397 O 0.09516 0.2247 0.89603 0.0
O398 O 0.09053 0.13098 0.88577 0.0
O399 O 0.02478 0.1529 0.83482 0.0
C400 C 0.05656 0.14617 0.68258 0.0
O401 O 0.17507 0.16728 0.80689 0.0
O402 O 0.15487 0.2339 0.75659 0.0
In403 In 0.49329 0.34421 0.54724 0.0
O404 O 0.49162 0.29273 0.45551 0.0
O405 O 0.55222 0.34183 0.46435 0.0
C406 C 0.41621 0.32383 0.62539 0.0
C407 C 0.47176 0.43869 0.52992 0.0
C408 C 0.54997 0.29418 0.63213 0.0
O409 O 0.41586 0.31287 0.56309 0.0
O410 O 0.45421 0.34517 0.64603 0.0
O411 O 0.54793 0.34052 0.63577 0.0
O412 O 0.52602 0.27478 0.58482 0.0
C413 C 0.53274 0.30656 0.43259 0.0
O414 O 0.51163 0.42507 0.55688 0.0
O415 O 0.44501 0.40487 0.50659 0.0
loop_
_geom_bond_atom_site_label_1
_geom_bond_atom_site_label_2
_geom_bond_distance
_geom_bond_site_symmetry_2
_ccdc_geom_bond_type
In0 O1 2.294 . S
In0 O2 2.326 . S
In0 O6 2.266 . S
In0 O7 2.326 . S
In0 O8 2.266 . S
In0 O9 2.326 . S
In0 O11 2.294 . S
In0 O12 2.326 . S
O1 In0 2.294 . S
O1 C10 1.240 . S
O2 In0 2.326 . S
O2 C10 1.252 . S
C3 O6 1.252 . S
C3 O7 1.260 . S
C4 O11 1.240 . S
C4 O12 1.252 . S
C5 O8 1.252 . S
C5 O9 1.260 . S
O6 In0 2.266 . S
O6 C3 1.252 . S
O7 In0 2.326 . S
O7 C3 1.260 . S
O8 In0 2.266 . S
O8 C5 1.252 . S
O9 In0 2.326 . S
O9 C5 1.260 . S
C10 O1 1.240 . S
C10 O2 1.252 . S
O11 In0 2.294 . S
O11 C4 1.240 . S
O12 In0 2.326 . S
O12 C4 1.252 . S
In13 O14 2.294 . S
In13 O15 2.326 . S
In13 O19 2.266 1_655 S
In13 O20 2.326 . S
In13 O21 2.266 . S
In13 O22 2.326 . S
In13 O24 2.294 . S
In13 O25 2.326 . S
O14 In13 2.294 . S
O14 C23 1.240 . S
O15 In13 2.326 . S
O15 C23 1.252 . S
C16 O19 1.252 . S
C16 O20 1.260 1_455 S
C17 O24 1.240 . S
C17 O25 1.252 . S
C18 O21 1.252 . S
C18 O22 1.260 . S
O19 In13 2.266 1_455 S
O19 C16 1.252 . S
O20 In13 2.326 . S
O20 C16 1.260 1_655 S
O21 In13 2.266 . S
O21 C18 1.252 . S
O22 In13 2.326 . S
O22 C18 1.260 . S
C23 O14 1.240 . S
C23 O15 1.252 . S
O24 In13 2.294 . S
O24 C17 1.240 . S
O25 In13 2.326 . S
O25 C17 1.252 . S
In26 O27 2.294 . S
In26 O28 2.326 . S
In26 O32 2.266 . S
In26 O33 2.326 . S
In26 O34 2.266 . S
In26 O35 2.326 . S
In26 O37 2.294 . S
In26 O38 2.326 . S
O27 In26 2.294 . S
O27 C36 1.240 . S
O28 In26 2.326 . S
O28 C36 1.252 . S
C29 O32 1.252 . S
C29 O33 1.260 . S
C30 O37 1.240 . S
C30 O38 1.252 . S
C31 O34 1.252 . S
C31 O35 1.260 . S
O32 In26 2.266 . S
O32 C29 1.252 . S
O33 In26 2.326 . S
O33 C29 1.260 . S
O34 In26 2.266 . S
O34 C31 1.252 . S
O35 In26 2.326 . S
O35 C31 1.260 . S
C36 O27 1.240 . S
C36 O28 1.252 . S
O37 In26 2.294 . S
O37 C30 1.240 . S
O38 In26 2.326 . S
O38 C30 1.252 . S
In39 O40 2.294 . S
In39 O41 2.326 1_554 S
In39 O45 2.266 . S
In39 O46 2.326 . S
In39 O47 2.266 . S
In39 O48 2.326 . S
In39 O50 2.294 1_554 S
In39 O51 2.326 1_554 S
O40 In39 2.294 . S
O40 C49 1.240 . S
O41 In39 2.326 1_556 S
O41 C49 1.252 1_556 S
C42 O45 1.252 . S
C42 O46 1.260 . S
C43 O50 1.240 . S
C43 O51 1.252 . S
C44 O47 1.252 . S
C44 O48 1.260 . S
O45 In39 2.266 . S
O45 C42 1.252 . S
O46 In39 2.326 . S
O46 C42 1.260 . S
O47 In39 2.266 . S
O47 C44 1.252 . S
O48 In39 2.326 . S
O48 C44 1.260 . S
C49 O40 1.240 . S
C49 O41 1.252 1_554 S
O50 In39 2.294 1_556 S
O50 C43 1.240 . S
O51 In39 2.326 1_556 S
O51 C43 1.252 . S
In52 O53 2.294 . S
In52 O54 2.326 . S
In52 O58 2.266 . S
In52 O59 2.326 . S
In52 O60 2.266 . S
In52 O61 2.326 . S
In52 O63 2.294 . S
In52 O64 2.326 . S
O53 In52 2.294 . S
O53 C62 1.240 . S
O54 In52 2.326 . S
O54 C62 1.252 . S
C55 O58 1.252 . S
C55 O59 1.260 . S
C56 O63 1.240 . S
C56 O64 1.252 . S
C57 O60 1.252 . S
C57 O61 1.260 . S
O58 In52 2.266 . S
O58 C55 1.252 . S
O59 In52 2.326 . S
O59 C55 1.260 . S
O60 In52 2.266 . S
O60 C57 1.252 . S
O61 In52 2.326 . S
O61 C57 1.260 . S
C62 O53 1.240 . S
C62 O54 1.252 . S
O63 In52 2.294 . S
O63 C56 1.240 . S
O64 In52 2.326 . S
O64 C56 1.252 . S
In65 O66 2.294 . S
In65 O67 2.326 . S
In65 O71 2.266 . S
In65 O72 2.326 . S
In65 O73 2.266 . S
In65 O74 2.326 . S
In65 O76 2.294 . S
In65 O77 2.326 . S
O66 In65 2.294 . S
O66 C75 1.240 . S
O67 In65 2.326 . S
O67 C75 1.252 . S
C68 O71 1.252 . S
C68 O72 1.260 . S
C69 O76 1.240 . S
C69 O77 1.252 . S
C70 O73 1.252 . S
C70 O74 1.260 . S
O71 In65 2.266 . S
O71 C68 1.252 . S
O72 In65 2.326 . S
O72 C68 1.260 . S
O73 In65 2.266 . S
O73 C70 1.252 . S
O74 In65 2.326 . S
O74 C70 1.260 . S
C75 O66 1.240 . S
C75 O67 1.252 . S
O76 In65 2.294 . S
O76 C69 1.240 . S
O77 In65 2.326 . S
O77 C69 1.252 . S
In78 O79 2.294 . S
In78 O80 2.326 . S
In78 O84 2.266 . S
In78 O85 2.326 . S
In78 O86 2.266 . S
In78 O87 2.326 . S
In78 O89 2.294 . S
In78 O90 2.326 . S
O79 In78 2.294 . S
O79 C88 1.240 . S
O80 In78 2.326 . S
O80 C88 1.252 . S
C81 O84 1.252 . S
C81 O85 1.260 . S
C82 O89 1.240 . S
C82 O90 1.252 . S
C83 O86 1.252 . S
C83 O87 1.260 . S
O84 In78 2.266 . S
O84 C81 1.252 . S
O85 In78 2.326 . S
O85 C81 1.260 . S
O86 In78 2.266 . S
O86 C83 1.252 . S
O87 In78 2.326 . S
O87 C83 1.260 . S
C88 O79 1.240 . S
C88 O80 1.252 . S
O89 In78 2.294 . S
O89 C82 1.240 . S
O90 In78 2.326 . S
O90 C82 1.252 . S
In91 O92 2.294 . S
In91 O93 2.326 1_556 S
In91 O97 2.266 . S
In91 O98 2.326 . S
In91 O99 2.266 1_655 S
In91 O100 2.326 . S
In91 O102 2.294 1_556 S
In91 O103 2.326 1_556 S
O92 In91 2.294 . S
O92 C101 1.240 . S
O93 In91 2.326 1_554 S
O93 C101 1.252 1_554 S
C94 O97 1.252 . S
C94 O98 1.260 . S
C95 O102 1.240 . S
C95 O103 1.252 . S
C96 O99 1.252 . S
C96 O100 1.260 1_455 S
O97 In91 2.266 . S
O97 C94 1.252 . S
O98 In91 2.326 . S
O98 C94 1.260 . S
O99 In91 2.266 1_455 S
O99 C96 1.252 . S
O100 In91 2.326 . S
O100 C96 1.260 1_655 S
C101 O92 1.240 . S
C101 O93 1.252 1_556 S
O102 In91 2.294 1_554 S
O102 C95 1.240 . S
O103 In91 2.326 1_554 S
O103 C95 1.252 . S
In104 O105 2.294 . S
In104 O106 2.326 . S
In104 O110 2.266 . S
In104 O111 2.326 . S
In104 O112 2.266 . S
In104 O113 2.326 . S
In104 O115 2.294 . S
In104 O116 2.326 . S
O105 In104 2.294 . S
O105 C114 1.240 . S
O106 In104 2.326 . S
O106 C114 1.252 . S
C107 O110 1.252 . S
C107 O111 1.260 . S
C108 O115 1.240 . S
C108 O116 1.252 . S
C109 O112 1.252 . S
C109 O113 1.260 . S
O110 In104 2.266 . S
O110 C107 1.252 . S
O111 In104 2.326 . S
O111 C107 1.260 . S
O112 In104 2.266 . S
O112 C109 1.252 . S
O113 In104 2.326 . S
O113 C109 1.260 . S
C114 O105 1.240 . S
C114 O106 1.252 . S
O115 In104 2.294 . S
O115 C108 1.240 . S
O116 In104 2.326 . S
O116 C108 1.252 . S
In117 O118 2.294 . S
In117 O119 2.326 . S
In117 O123 2.266 1_455 S
In117 O124 2.326 . S
In117 O125 2.266 . S
In117 O126 2.326 . S
In117 O128 2.294 . S
In117 O129 2.326 . S
O118 In117 2.294 . S
O118 C127 1.240 . S
O119 In117 2.326 . S
O119 C127 1.252 . S
C120 O123 1.252 . S
C120 O124 1.260 1_655 S
C121 O128 1.240 . S
C121 O129 1.252 . S
C122 O125 1.252 . S
C122 O126 1.260 . S
O123 In117 2.266 1_655 S
O123 C120 1.252 . S
O124 In117 2.326 . S
O124 C120 1.260 1_455 S
O125 In117 2.266 . S
O125 C122 1.252 . S
O126 In117 2.326 . S
O126 C122 1.260 . S
C127 O118 1.240 . S
C127 O119 1.252 . S
O128 In117 2.294 . S
O128 C121 1.240 . S
O129 In117 2.326 . S
O129 C121 1.252 . S
In130 O131 2.294 . S
In130 O132 2.326 . S
In130 O136 2.266 . S
In130 O137 2.326 . S
In130 O138 2.266 . S
In130 O139 2.326 . S
In130 O141 2.294 . S
In130 O142 2.326 . S
O131 In130 2.294 . S
O131 C140 1.240 . S
O132 In130 2.326 . S
O132 C140 1.252 . S
C133 O136 1.252 . S
C133 O137 1.260 . S
C134 O141 1.240 . S
C134 O142 1.252 . S
C135 O138 1.252 . S
C135 O139 1.260 . S
O136 In130 2.266 . S
O136 C133 1.252 . S
O137 In130 2.326 . S
O137 C133 1.260 . S
O138 In130 2.266 . S
O138 C135 1.252 . S
O139 In130 2.326 . S
O139 C135 1.260 . S
C140 O131 1.240 . S
C140 O132 1.252 . S
O141 In130 2.294 . S
O141 C134 1.240 . S
O142 In130 2.326 . S
O142 C134 1.252 . S
In143 O144 2.294 . S
In143 O145 2.326 1_556 S
In143 O149 2.266 . S
In143 O150 2.326 . S
In143 O151 2.266 . S
In143 O152 2.326 . S
In143 O154 2.294 1_556 S
In143 O155 2.326 1_556 S
O144 In143 2.294 . S
O144 C153 1.240 . S
O145 In143 2.326 1_554 S
O145 C153 1.252 1_554 S
C146 O149 1.252 . S
C146 O150 1.260 . S
C147 O154 1.240 . S
C147 O155 1.252 . S
C148 O151 1.252 . S
C148 O152 1.260 . S
O149 In143 2.266 . S
O149 C146 1.252 . S
O150 In143 2.326 . S
O150 C146 1.260 . S
O151 In143 2.266 . S
O151 C148 1.252 . S
O152 In143 2.326 . S
O152 C148 1.260 . S
C153 O144 1.240 . S
C153 O145 1.252 1_556 S
O154 In143 2.294 1_554 S
O154 C147 1.240 . S
O155 In143 2.326 1_554 S
O155 C147 1.252 . S
In156 O157 2.294 . S
In156 O158 2.326 . S
In156 O162 2.266 . S
In156 O163 2.326 . S
In156 O164 2.266 . S
In156 O165 2.326 . S
In156 O167 2.294 . S
In156 O168 2.326 . S
O157 In156 2.294 . S
O157 C166 1.240 . S
O158 In156 2.326 . S
O158 C166 1.252 . S
C159 O162 1.252 . S
C159 O163 1.260 . S
C160 O167 1.240 . S
C160 O168 1.252 . S
C161 O164 1.252 . S
C161 O165 1.260 . S
O162 In156 2.266 . S
O162 C159 1.252 . S
O163 In156 2.326 . S
O163 C159 1.260 . S
O164 In156 2.266 . S
O164 C161 1.252 . S
O165 In156 2.326 . S
O165 C161 1.260 . S
C166 O157 1.240 . S
C166 O158 1.252 . S
O167 In156 2.294 . S
O167 C160 1.240 . S
O168 In156 2.326 . S
O168 C160 1.252 . S
In169 O170 2.294 . S
In169 O171 2.326 . S
In169 O175 2.266 . S
In169 O176 2.326 . S
In169 O177 2.266 . S
In169 O178 2.326 . S
In169 O180 2.294 . S
In169 O181 2.326 . S
O170 In169 2.294 . S
O170 C179 1.240 . S
O171 In169 2.326 . S
O171 C179 1.252 . S
C172 O175 1.252 . S
C172 O176 1.260 . S
C173 O180 1.240 . S
C173 O181 1.252 . S
C174 O177 1.252 . S
C174 O178 1.260 . S
O175 In169 2.266 . S
O175 C172 1.252 . S
O176 In169 2.326 . S
O176 C172 1.260 . S
O177 In169 2.266 . S
O177 C174 1.252 . S
O178 In169 2.326 . S
O178 C174 1.260 . S
C179 O170 1.240 . S
C179 O171 1.252 . S
O180 In169 2.294 . S
O180 C173 1.240 . S
O181 In169 2.326 . S
O181 C173 1.252 . S
In182 O183 2.294 . S
In182 O184 2.326 . S
In182 O188 2.266 . S
In182 O189 2.326 . S
In182 O190 2.266 . S
In182 O191 2.326 . S
In182 O193 2.294 . S
In182 O194 2.326 . S
O183 In182 2.294 . S
O183 C192 1.240 . S
O184 In182 2.326 . S
O184 C192 1.252 . S
C185 O188 1.252 . S
C185 O189 1.260 . S
C186 O193 1.240 . S
C186 O194 1.252 . S
C187 O190 1.252 . S
C187 O191 1.260 . S
O188 In182 2.266 . S
O188 C185 1.252 . S
O189 In182 2.326 . S
O189 C185 1.260 . S
O190 In182 2.266 . S
O190 C187 1.252 . S
O191 In182 2.326 . S
O191 C187 1.260 . S
C192 O183 1.240 . S
C192 O184 1.252 . S
O193 In182 2.294 . S
O193 C186 1.240 . S
O194 In182 2.326 . S
O194 C186 1.252 . S
In195 O196 2.294 . S
In195 O197 2.326 1_554 S
In195 O201 2.266 . S
In195 O202 2.326 . S
In195 O203 2.266 1_455 S
In195 O204 2.326 . S
In195 O206 2.294 1_554 S
In195 O207 2.326 1_554 S
O196 In195 2.294 . S
O196 C205 1.240 . S
O197 In195 2.326 1_556 S
O197 C205 1.252 1_556 S
C198 O201 1.252 . S
C198 O202 1.260 . S
C199 O206 1.240 . S
C199 O207 1.252 . S
C200 O203 1.252 . S
C200 O204 1.260 1_655 S
O201 In195 2.266 . S
O201 C198 1.252 . S
O202 In195 2.326 . S
O202 C198 1.260 . S
O203 In195 2.266 1_655 S
O203 C200 1.252 . S
O204 In195 2.326 . S
O204 C200 1.260 1_455 S
C205 O196 1.240 . S
C205 O197 1.252 1_554 S
O206 In195 2.294 1_556 S
O206 C199 1.240 . S
O207 In195 2.326 1_556 S
O207 C199 1.252 . S
In208 O209 2.294 . S
In208 O210 2.326 . S
In208 O214 2.266 . S
In208 O215 2.326 . S
In208 O216 2.266 . S
In208 O217 2.326 . S
In208 O219 2.294 . S
In208 O220 2.326 . S
O209 In208 2.294 . S
O209 C218 1.240 . S
O210 In208 2.326 . S
O210 C218 1.252 . S
C211 O214 1.252 . S
C211 O215 1.260 . S
C212 O219 1.240 . S
C212 O220 1.252 . S
C213 O216 1.252 . S
C213 O217 1.260 . S
O214 In208 2.266 . S
O214 C211 1.252 . S
O215 In208 2.326 . S
O215 C211 1.260 . S
O216 In208 2.266 . S
O216 C213 1.252 . S
O217 In208 2.326 . S
O217 C213 1.260 . S
C218 O209 1.240 . S
C218 O210 1.252 . S
O219 In208 2.294 . S
O219 C212 1.240 . S
O220 In208 2.326 . S
O220 C212 1.252 . S
In221 O222 2.294 . S
In221 O223 2.326 1_554 S
In221 O227 2.266 . S
In221 O228 2.326 . S
In221 O229 2.266 . S
In221 O230 2.326 . S
In221 O232 2.294 1_554 S
In221 O233 2.326 1_554 S
O222 In221 2.294 . S
O222 C231 1.240 . S
O223 In221 2.326 1_556 S
O223 C231 1.252 1_556 S
C224 O227 1.252 . S
C224 O228 1.260 . S
C225 O232 1.240 . S
C225 O233 1.252 . S
C226 O229 1.252 . S
C226 O230 1.260 . S
O227 In221 2.266 . S
O227 C224 1.252 . S
O228 In221 2.326 . S
O228 C224 1.260 . S
O229 In221 2.266 . S
O229 C226 1.252 . S
O230 In221 2.326 . S
O230 C226 1.260 . S
C231 O222 1.240 . S
C231 O223 1.252 1_554 S
O232 In221 2.294 1_556 S
O232 C225 1.240 . S
O233 In221 2.326 1_556 S
O233 C225 1.252 . S
In234 O235 2.294 . S
In234 O236 2.326 . S
In234 O240 2.266 . S
In234 O241 2.326 . S
In234 O242 2.266 . S
In234 O243 2.326 . S
In234 O245 2.294 . S
In234 O246 2.326 . S
O235 In234 2.294 . S
O235 C244 1.240 . S
O236 In234 2.326 . S
O236 C244 1.252 . S
C237 O240 1.252 . S
C237 O241 1.260 . S
C238 O245 1.240 . S
C238 O246 1.252 . S
C239 O242 1.252 . S
C239 O243 1.260 . S
O240 In234 2.266 . S
O240 C237 1.252 . S
O241 In234 2.326 . S
O241 C237 1.260 . S
O242 In234 2.266 . S
O242 C239 1.252 . S
O243 In234 2.326 . S
O243 C239 1.260 . S
C244 O235 1.240 . S
C244 O236 1.252 . S
O245 In234 2.294 . S
O245 C238 1.240 . S
O246 In234 2.326 . S
O246 C238 1.252 . S
In247 O248 2.294 . S
In247 O249 2.326 . S
In247 O253 2.266 . S
In247 O254 2.326 . S
In247 O255 2.266 1_455 S
In247 O256 2.326 . S
In247 O258 2.294 . S
In247 O259 2.326 . S
O248 In247 2.294 . S
O248 C257 1.240 . S
O249 In247 2.326 . S
O249 C257 1.252 . S
C250 O253 1.252 . S
C250 O254 1.260 . S
C251 O258 1.240 . S
C251 O259 1.252 . S
C252 O255 1.252 . S
C252 O256 1.260 1_655 S
O253 In247 2.266 . S
O253 C250 1.252 . S
O254 In247 2.326 . S
O254 C250 1.260 . S
O255 In247 2.266 1_655 S
O255 C252 1.252 . S
O256 In247 2.326 . S
O256 C252 1.260 1_455 S
C257 O248 1.240 . S
C257 O249 1.252 . S
O258 In247 2.294 . S
O258 C251 1.240 . S
O259 In247 2.326 . S
O259 C251 1.252 . S
In260 O261 2.294 . S
In260 O262 2.326 . S
In260 O266 2.266 . S
In260 O267 2.326 . S
In260 O268 2.266 . S
In260 O269 2.326 . S
In260 O271 2.294 . S
In260 O272 2.326 . S
O261 In260 2.294 . S
O261 C270 1.240 . S
O262 In260 2.326 . S
O262 C270 1.252 . S
C263 O266 1.252 . S
C263 O267 1.260 . S
C264 O271 1.240 . S
C264 O272 1.252 . S
C265 O268 1.252 . S
C265 O269 1.260 . S
O266 In260 2.266 . S
O266 C263 1.252 . S
O267 In260 2.326 . S
O267 C263 1.260 . S
O268 In260 2.266 . S
O268 C265 1.252 . S
O269 In260 2.326 . S
O269 C265 1.260 . S
C270 O261 1.240 . S
C270 O262 1.252 . S
O271 In260 2.294 . S
O271 C264 1.240 . S
O272 In260 2.326 . S
O272 C264 1.252 . S
In273 O274 2.294 1_556 S
In273 O275 2.326 1_556 S
In273 O279 2.266 1_455 S
In273 O280 2.326 . S
In273 O281 2.266 . S
In273 O282 2.326 . S
In273 O284 2.294 . S
In273 O285 2.326 1_556 S
O274 In273 2.294 1_554 S
O274 C283 1.240 . S
O275 In273 2.326 1_554 S
O275 C283 1.252 . S
C276 O279 1.252 . S
C276 O280 1.260 1_655 S
C277 O284 1.240 . S
C277 O285 1.252 1_556 S
C278 O281 1.252 . S
C278 O282 1.260 . S
O279 In273 2.266 1_655 S
O279 C276 1.252 . S
O280 In273 2.326 . S
O280 C276 1.260 1_455 S
O281 In273 2.266 . S
O281 C278 1.252 . S
O282 In273 2.326 . S
O282 C278 1.260 . S
C283 O274 1.240 . S
C283 O275 1.252 . S
O284 In273 2.294 . S
O284 C277 1.240 . S
O285 In273 2.326 1_554 S
O285 C277 1.252 1_554 S
In286 O287 2.294 . S
In286 O288 2.326 . S
In286 O292 2.266 . S
In286 O293 2.326 . S
In286 O294 2.266 . S
In286 O295 2.326 . S
In286 O297 2.294 . S
In286 O298 2.326 . S
O287 In286 2.294 . S
O287 C296 1.240 . S
O288 In286 2.326 . S
O288 C296 1.252 . S
C289 O292 1.252 . S
C289 O293 1.260 . S
C290 O297 1.240 . S
C290 O298 1.252 . S
C291 O294 1.252 . S
C291 O295 1.260 . S
O292 In286 2.266 . S
O292 C289 1.252 . S
O293 In286 2.326 . S
O293 C289 1.260 . S
O294 In286 2.266 . S
O294 C291 1.252 . S
O295 In286 2.326 . S
O295 C291 1.260 . S
C296 O287 1.240 . S
C296 O288 1.252 . S
O297 In286 2.294 . S
O297 C290 1.240 . S
O298 In286 2.326 . S
O298 C290 1.252 . S
In299 O300 2.294 . S
In299 O301 2.326 . S
In299 O305 2.266 . S
In299 O306 2.326 . S
In299 O307 2.266 . S
In299 O308 2.326 . S
In299 O310 2.294 . S
In299 O311 2.326 . S
O300 In299 2.294 . S
O300 C309 1.240 . S
O301 In299 2.326 . S
O301 C309 1.252 . S
C302 O305 1.252 . S
C302 O306 1.260 . S
C303 O310 1.240 . S
C303 O311 1.252 . S
C304 O307 1.252 . S
C304 O308 1.260 . S
O305 In299 2.266 . S
O305 C302 1.252 . S
O306 In299 2.326 . S
O306 C302 1.260 . S
O307 In299 2.266 . S
O307 C304 1.252 . S
O308 In299 2.326 . S
O308 C304 1.260 . S
C309 O300 1.240 . S
C309 O301 1.252 . S
O310 In299 2.294 . S
O310 C303 1.240 . S
O311 In299 2.326 . S
O311 C303 1.252 . S
In312 O313 2.294 . S
In312 O314 2.326 . S
In312 O318 2.266 . S
In312 O319 2.326 . S
In312 O320 2.266 . S
In312 O321 2.326 . S
In312 O323 2.294 . S
In312 O324 2.326 . S
O313 In312 2.294 . S
O313 C322 1.240 . S
O314 In312 2.326 . S
O314 C322 1.252 . S
C315 O318 1.252 . S
C315 O319 1.260 . S
C316 O323 1.240 . S
C316 O324 1.252 . S
C317 O320 1.252 . S
C317 O321 1.260 . S
O318 In312 2.266 . S
O318 C315 1.252 . S
O319 In312 2.326 . S
O319 C315 1.260 . S
O320 In312 2.266 . S
O320 C317 1.252 . S
O321 In312 2.326 . S
O321 C317 1.260 . S
C322 O313 1.240 . S
C322 O314 1.252 . S
O323 In312 2.294 . S
O323 C316 1.240 . S
O324 In312 2.326 . S
O324 C316 1.252 . S
In325 O326 2.294 1_556 S
In325 O327 2.326 1_556 S
In325 O331 2.266 . S
In325 O332 2.326 . S
In325 O333 2.266 . S
In325 O334 2.326 . S
In325 O336 2.294 . S
In325 O337 2.326 1_556 S
O326 In325 2.294 1_554 S
O326 C335 1.240 . S
O327 In325 2.326 1_554 S
O327 C335 1.252 . S
C328 O331 1.252 . S
C328 O332 1.260 . S
C329 O336 1.240 . S
C329 O337 1.252 1_556 S
C330 O333 1.252 . S
C330 O334 1.260 . S
O331 In325 2.266 . S
O331 C328 1.252 . S
O332 In325 2.326 . S
O332 C328 1.260 . S
O333 In325 2.266 . S
O333 C330 1.252 . S
O334 In325 2.326 . S
O334 C330 1.260 . S
C335 O326 1.240 . S
C335 O327 1.252 . S
O336 In325 2.294 . S
O336 C329 1.240 . S
O337 In325 2.326 1_554 S
O337 C329 1.252 1_554 S
In338 O339 2.294 . S
In338 O340 2.326 . S
In338 O344 2.266 . S
In338 O345 2.326 . S
In338 O346 2.266 . S
In338 O347 2.326 . S
In338 O349 2.294 . S
In338 O350 2.326 . S
O339 In338 2.294 . S
O339 C348 1.240 . S
O340 In338 2.326 . S
O340 C348 1.252 . S
C341 O344 1.252 . S
C341 O345 1.260 . S
C342 O349 1.240 . S
C342 O350 1.252 . S
C343 O346 1.252 . S
C343 O347 1.260 . S
O344 In338 2.266 . S
O344 C341 1.252 . S
O345 In338 2.326 . S
O345 C341 1.260 . S
O346 In338 2.266 . S
O346 C343 1.252 . S
O347 In338 2.326 . S
O347 C343 1.260 . S
C348 O339 1.240 . S
C348 O340 1.252 . S
O349 In338 2.294 . S
O349 C342 1.240 . S
O350 In338 2.326 . S
O350 C342 1.252 . S
In351 O352 2.294 . S
In351 O353 2.326 . S
In351 O357 2.266 . S
In351 O358 2.326 . S
In351 O359 2.266 1_655 S
In351 O360 2.326 . S
In351 O362 2.294 . S
In351 O363 2.326 . S
O352 In351 2.294 . S
O352 C361 1.240 . S
O353 In351 2.326 . S
O353 C361 1.252 . S
C354 O357 1.252 . S
C354 O358 1.260 . S
C355 O362 1.240 . S
C355 O363 1.252 . S
C356 O359 1.252 . S
C356 O360 1.260 1_455 S
O357 In351 2.266 . S
O357 C354 1.252 . S
O358 In351 2.326 . S
O358 C354 1.260 . S
O359 In351 2.266 1_455 S
O359 C356 1.252 . S
O360 In351 2.326 . S
O360 C356 1.260 1_655 S
C361 O352 1.240 . S
C361 O353 1.252 . S
O362 In351 2.294 . S
O362 C355 1.240 . S
O363 In351 2.326 . S
O363 C355 1.252 . S
In364 O365 2.294 . S
In364 O366 2.326 . S
In364 O370 2.266 . S
In364 O371 2.326 . S
In364 O372 2.266 . S
In364 O373 2.326 . S
In364 O375 2.294 . S
In364 O376 2.326 . S
O365 In364 2.294 . S
O365 C374 1.240 . S
O366 In364 2.326 . S
O366 C374 1.252 . S
C367 O370 1.252 . S
C367 O371 1.260 . S
C368 O375 1.240 . S
C368 O376 1.252 . S
C369 O372 1.252 . S
C369 O373 1.260 . S
O370 In364 2.266 . S
O370 C367 1.252 . S
O371 In364 2.326 . S
O371 C367 1.260 . S
O372 In364 2.266 . S
O372 C369 1.252 . S
O373 In364 2.326 . S
O373 C369 1.260 . S
C374 O365 1.240 . S
C374 O366 1.252 . S
O375 In364 2.294 . S
O375 C368 1.240 . S
O376 In364 2.326 . S
O376 C368 1.252 . S
In377 O378 2.294 . S
In377 O379 2.326 1_554 S
In377 O383 2.266 . S
In377 O384 2.326 . S
In377 O385 2.266 1_655 S
In377 O386 2.326 . S
In377 O388 2.294 1_554 S
In377 O389 2.326 1_554 S
O378 In377 2.294 . S
O378 C387 1.240 . S
O379 In377 2.326 1_556 S
O379 C387 1.252 1_556 S
C380 O383 1.252 . S
C380 O384 1.260 . S
C381 O388 1.240 . S
C381 O389 1.252 . S
C382 O385 1.252 . S
C382 O386 1.260 1_455 S
O383 In377 2.266 . S
O383 C380 1.252 . S
O384 In377 2.326 . S
O384 C380 1.260 . S
O385 In377 2.266 1_455 S
O385 C382 1.252 . S
O386 In377 2.326 . S
O386 C382 1.260 1_655 S
C387 O378 1.240 . S
C387 O379 1.252 1_554 S
O388 In377 2.294 1_556 S
O388 C381 1.240 . S
O389 In377 2.326 1_556 S
O389 C381 1.252 . S
In390 O391 2.294 . S
In390 O392 2.326 . S
In390 O396 2.266 . S
In390 O397 2.326 . S
In390 O398 2.266 . S
In390 O399 2.326 . S
In390 O401 2.294 . S
In390 O402 2.326 . S
O391 In390 2.294 . S
O391 C400 1.240 . S
O392 In390 2.326 . S
O392 C400 1.252 . S
C393 O396 1.252 . S
C393 O397 1.260 . S
C394 O401 1.240 . S
C394 O402 1.252 . S
C395 O398 1.252 . S
C395 O399 1.260 . S
O396 In390 2.266 . S
O396 C393 1.252 . S
O397 In390 2.326 . S
O397 C393 1.260 . S
O398 In390 2.266 . S
O398 C395 1.252 . S
O399 In390 2.326 . S
O399 C395 1.260 . S
C400 O391 1.240 . S
C400 O392 1.252 . S
O401 In390 2.294 . S
O401 C394 1.240 . S
O402 In390 2.326 . S
O402 C394 1.252 . S
In403 O404 2.294 . S
In403 O405 2.326 . S
In403 O409 2.266 . S
In403 O410 2.326 . S
In403 O411 2.266 . S
In403 O412 2.326 . S
In403 O414 2.294 . S
In403 O415 2.326 . S
O404 In403 2.294 . S
O404 C413 1.240 . S
O405 In403 2.326 . S
O405 C413 1.252 . S
C406 O409 1.252 . S
C406 O410 1.260 . S
C407 O414 1.240 . S
C407 O415 1.252 . S
C408 O411 1.252 . S
C408 O412 1.260 . S
O409 In403 2.266 . S
O409 C406 1.252 . S
O410 In403 2.326 . S
O410 C406 1.260 . S
O411 In403 2.266 . S
O411 C408 1.252 . S
O412 In403 2.326 . S
O412 C408 1.260 . S
C413 O404 1.240 . S
C413 O405 1.252 . S
O414 In403 2.294 . S
O414 C407 1.240 . S
O415 In403 2.326 . S
O415 C407 1.252 . S
C122 C5 1.368 . S
C16 C343 1.368 . S
C146 C29 1.368 . S
C317 C44 1.368 . S
C57 C198 1.368 . S
C369 C68 1.368 . S
C81 C174 1.368 . S
C395 C96 1.368 . S
C18 C109 1.368 . S
C120 C237 1.368 . S
C42 C135 1.368 . S
C148 C213 1.368 . S
C159 C94 1.368 . S
C265 C172 1.368 . S
C187 C70 1.368 . S
C289 C200 1.368 . S
C330 C211 1.368 . S
C133 C226 1.368 . S
C239 C354 1.368 . S
C107 C252 1.368 . S
C408 C263 1.368 . S
C276 C161 1.368 . S
C380 C291 1.368 . S
C185 C302 1.368 . S
C224 C315 1.368 . S
C328 C31 1.368 . S
C341 C250 1.368 . S
C356 C3 1.368 . S
C304 C367 1.368 . S
C382 C55 1.368 . S
C393 C278 1.368 . S
C406 C83 1.368 . S
C316 C10 2.176 . S
C17 C121 2.176 1_665 S
C30 C342 2.176 . S
C49 C153 2.176 1_544 S
C62 C368 2.176 . S
C69 C173 2.176 1_565 S
C394 C82 2.176 . S
C101 C205 2.176 1_646 S
C114 C212 2.176 . S
C140 C244 2.176 . S
C264 C160 2.176 . S
C296 C192 2.176 . S
C231 C329 2.176 1_554 S
C361 C257 2.176 1_655 S
C277 C387 2.176 1_456 S
C407 C303 2.176 . S
C283 C4 2.022 . S
C290 C23 2.022 . S
C36 C309 2.022 . S
C270 C43 2.022 . S
C251 C56 2.022 . S
C218 C75 2.022 . S
C88 C225 2.022 . S
C238 C95 2.022 . S
C381 C108 2.022 . S
C400 C127 2.022 . S
C413 C134 2.022 . S
C147 C374 2.022 . S
C355 C166 2.022 . S
C322 C179 2.022 . S
C335 C186 2.022 . S
C348 C199 2.022 . S
