# Generated by pormake.
# Topology vby, (6)-cn, num edge types: 1
# Building blocks:
#     Node 0, Type 0, BuildingBlock: KUMBUR_clean_sbu_1, # of connection points: 6
#     Node 1, Type 0, BuildingBlock: KUMBUR_clean_sbu_1, # of connection points: 6
#     Node 2, Type 0, BuildingBlock: KUMBUR_clean_sbu_1, # of connection points: 6
#     Node 3, Type 0, BuildingBlock: KUMBUR_clean_sbu_1, # of connection points: 6
#     Node 4, Type 0, BuildingBlock: KUMBUR_clean_sbu_1, # of connection points: 6
#     Node 5, Type 0, BuildingBlock: KUMBUR_clean_sbu_1, # of connection points: 6
#     Node 6, Type 0, BuildingBlock: KUMBUR_clean_sbu_1, # of connection points: 6
#     Node 7, Type 0, BuildingBlock: KUMBUR_clean_sbu_1, # of connection points: 6
#     Edge 8, Type (0, 0), BuildingBlock: KIFKEQ_clean_linker_1, # of connection points: 2
#     Edge 9, Type (0, 0), BuildingBlock: KIFKEQ_clean_linker_1, # of connection points: 2
#     Edge 10, Type (0, 0), BuildingBlock: KIFKEQ_clean_linker_1, # of connection points: 2
#     Edge 11, Type (0, 0), BuildingBlock: KIFKEQ_clean_linker_1, # of connection points: 2
#     Edge 12, Type (0, 0), BuildingBlock: KIFKEQ_clean_linker_1, # of connection points: 2
#     Edge 13, Type (0, 0), BuildingBlock: KIFKEQ_clean_linker_1, # of connection points: 2
#     Edge 14, Type (0, 0), BuildingBlock: KIFKEQ_clean_linker_1, # of connection points: 2
#     Edge 15, Type (0, 0), BuildingBlock: KIFKEQ_clean_linker_1, # of connection points: 2
#     Edge 16, Type (0, 0), BuildingBlock: KIFKEQ_clean_linker_1, # of connection points: 2
#     Edge 17, Type (0, 0), BuildingBlock: KIFKEQ_clean_linker_1, # of connection points: 2
#     Edge 18, Type (0, 0), BuildingBlock: KIFKEQ_clean_linker_1, # of connection points: 2
#     Edge 19, Type (0, 0), BuildingBlock: KIFKEQ_clean_linker_1, # of connection points: 2
#     Edge 20, Type (0, 0), BuildingBlock: KIFKEQ_clean_linker_1, # of connection points: 2
#     Edge 21, Type (0, 0), BuildingBlock: KIFKEQ_clean_linker_1, # of connection points: 2
#     Edge 22, Type (0, 0), BuildingBlock: KIFKEQ_clean_linker_1, # of connection points: 2
#     Edge 23, Type (0, 0), BuildingBlock: KIFKEQ_clean_linker_1, # of connection points: 2
#     Edge 24, Type (0, 0), BuildingBlock: KIFKEQ_clean_linker_1, # of connection points: 2
#     Edge 25, Type (0, 0), BuildingBlock: KIFKEQ_clean_linker_1, # of connection points: 2
#     Edge 26, Type (0, 0), BuildingBlock: KIFKEQ_clean_linker_1, # of connection points: 2
#     Edge 27, Type (0, 0), BuildingBlock: KIFKEQ_clean_linker_1, # of connection points: 2
#     Edge 28, Type (0, 0), BuildingBlock: KIFKEQ_clean_linker_1, # of connection points: 2
#     Edge 29, Type (0, 0), BuildingBlock: KIFKEQ_clean_linker_1, # of connection points: 2
#     Edge 30, Type (0, 0), BuildingBlock: KIFKEQ_clean_linker_1, # of connection points: 2
#     Edge 31, Type (0, 0), BuildingBlock: KIFKEQ_clean_linker_1, # of connection points: 2
# Relax obj value: 0.189
# Max RMSD: 0.308
# Mean RMSD: 0.217
data_MOF--net-vby--node1-KUMBUR_clean_sbu_1--edge1-KIFKEQ_clean_linker_1
_symmetry_space_group_name_H-M    P1
_symmetry_Int_Tables_number       1
_symmetry_cell_setting            triclinic
loop_
_symmetry_equiv_pos_as_xyz
'x, y, z'
_cell_length_a     15.215232
_cell_length_b     99.84049
_cell_length_c     29.783513
_cell_angle_alpha  100.75387
_cell_angle_beta   94.346791
_cell_angle_gamma 90.020472
loop_
_atom_site_label
_atom_site_type_symbol
_atom_site_fract_x
_atom_site_fract_y
_atom_site_fract_z
_atom_type_partial_charge
Tb0 Tb 0.09638 0.40441 0.03667 0.0
C1 C 0.89701 0.34776 1.00249 0.0
N2 N 0.95354 0.35515 0.03546 0.0
C3 C 0.86519 0.3501 0.0937 0.0
C4 C 0.81924 0.34194 0.01379 0.0
C5 C 0.9413 0.35572 0.08068 0.0
C6 C 0.80314 0.34336 0.06009 0.0
C7 C 0.85925 0.33896 0.92183 0.0
C8 C 0.91694 0.34629 0.95716 0.0
C9 C 0.78056 0.33338 0.93277 0.0
C10 C 0.76069 0.33485 0.97864 0.0
Tb11 Tb 0.07743 0.36321 0.01037 0.0
N12 N 0.99368 0.35183 0.94792 0.0
C13 C 0.88306 0.33729 0.87667 0.0
C14 C 1.01966 0.34946 0.9043 0.0
C15 C 0.96417 0.34242 0.86795 0.0
H16 H 0.99096 0.36013 0.10679 0.0
H17 H 0.98475 0.34073 0.83337 0.0
H18 H 0.1902 0.40261 0.93719 0.0
H19 H 0.21336 0.4231 0.21298 0.0
H20 H 0.08448 0.3525 0.89768 0.0
H21 H 0.84052 0.33173 0.8485 0.0
H22 H 0.10543 0.41234 0.15115 0.0
H23 H 0.85515 0.35079 0.12964 0.0
H24 H 0.73517 0.32777 0.90606 0.0
H25 H 0.70025 0.33037 0.98659 0.0
H26 H 0.33271 0.40905 0.91329 0.0
H27 H 0.74427 0.339 0.07026 0.0
H28 H 0.35824 0.43092 0.19446 0.0
N29 N 0.22595 0.40886 0.00842 0.0
C30 C 0.28714 0.41549 0.04083 0.0
C31 C 0.32107 0.41077 0.9493 0.0
C32 C 0.36886 0.41972 0.0285 0.0
C33 C 0.24066 0.40684 0.96305 0.0
C34 C 0.38559 0.41718 0.98214 0.0
N35 N 0.19062 0.41306 0.098 0.0
C36 C 0.16965 0.41513 0.14254 0.0
C37 C 0.33188 0.42411 0.12125 0.0
C38 C 0.26893 0.41765 0.0869 0.0
C39 C 0.31166 0.42597 0.16708 0.0
C40 C 0.23014 0.42149 0.17772 0.0
H41 H 0.44771 0.42024 0.9713 0.0
H42 H 0.49453 0.42956 0.05384 0.0
H43 H 0.46206 0.43345 0.13483 0.0
O44 O 0.05023 0.42307 0.07191 0.0
O45 O 0.20768 0.39122 0.05232 0.0
O46 O 0.19944 0.37241 0.99485 0.0
O47 O 0.08418 0.42089 1.00213 0.0
O48 O 0.03706 0.39549 0.08881 0.0
O49 O 0.10755 0.37471 0.08026 0.0
O50 O 0.11166 0.34299 0.98507 0.0
O51 O 0.95081 0.37384 0.01246 0.0
O52 O 0.95763 0.39772 0.02931 0.0
O53 O 0.14969 0.3524 0.05482 0.0
O54 O 0.1156 0.37322 0.95511 0.0
O55 O 0.0495 0.39437 0.9671 0.0
C56 C 0.24619 0.38175 0.02385 0.0
C57 C 0.9887 0.43874 0.02775 0.0
C58 C 0.951 0.46188 0.01772 0.0
C59 C 0.86283 0.45747 1.00616 0.0
C60 C 0.90081 0.43454 0.01616 0.0
C61 C 0.83813 0.44392 1.00557 0.0
C62 C 1.01341 0.45235 0.02869 0.0
C63 C 0.06303 0.3845 0.10424 0.0
C64 C 0.05745 0.42916 0.03735 0.0
C65 C 0.4314 0.42624 0.06271 0.0
C66 C 0.41293 0.42844 0.10889 0.0
C67 C 0.914 0.38594 0.01906 0.0
C68 C 0.23507 0.33401 0.02028 0.0
C69 C 0.31194 0.31247 0.01882 0.0
C70 C 0.39051 0.31906 0.01218 0.0
C71 C 0.31362 0.34038 0.01344 0.0
C72 C 0.23428 0.32011 0.0227 0.0
C73 C 0.39107 0.3329 0.00941 0.0
C74 C 0.07589 0.38341 0.93985 0.0
C75 C 0.152 0.3414 0.02358 0.0
H76 H 0.81304 0.4644 0.99674 0.0
H77 H 0.88103 0.42405 0.01499 0.0
H78 H 0.77024 0.44066 0.99639 0.0
H79 H 0.08157 0.45548 0.03817 0.0
H80 H 0.45197 0.31361 0.00986 0.0
H81 H 0.31489 0.35107 0.01114 0.0
H82 H 0.1726 0.31523 0.02703 0.0
H83 H 0.45186 0.33785 1.00432 0.0
Tb84 Tb 0.98205 0.61801 0.00862 0.0
C85 C 0.16315 0.67644 0.03958 0.0
N86 N 0.11466 0.66942 0.06419 0.0
C87 C 0.21279 0.67689 0.13108 0.0
C88 C 0.24106 0.68346 0.05929 0.0
C89 C 0.13607 0.67002 0.10992 0.0
C90 C 0.26606 0.68352 0.10556 0.0
C91 C 0.1842 0.68319 0.96702 0.0
C92 C 0.13505 0.67628 0.9941 0.0
C93 C 0.26284 0.69003 0.98623 0.0
C94 C 0.29112 0.69019 0.03227 0.0
Tb95 Tb 0.98967 0.65908 0.02651 0.0
N96 N 0.05864 0.66957 0.97677 0.0
C97 C 0.15215 0.68315 0.92167 0.0
C98 C 1.02424 0.67026 0.93358 0.0
C99 C 0.07132 0.67678 0.90505 0.0
H100 H 0.09434 0.66523 0.13017 0.0
H101 H 0.04458 0.67705 0.87051 0.0
H102 H 0.94593 0.61289 0.89234 0.0
H103 H 0.79017 0.60414 0.13741 0.0
H104 H 0.95961 0.66605 0.9214 0.0
H105 H 0.18813 0.68829 0.89964 0.0
H106 H 0.92119 0.61335 0.10818 0.0
H107 H 0.23049 0.67713 0.16712 0.0
H108 H 0.30176 0.69536 0.96592 0.0
H109 H 0.3515 0.6956 0.04671 0.0
H110 H 0.82035 0.6069 0.83618 0.0
H111 H 0.32551 0.6888 0.12204 0.0
H112 H 0.65837 0.59671 0.08461 0.0
N113 N 0.87254 0.61246 0.9506 0.0
C114 C 0.79646 0.60781 0.9643 0.0
C115 C 0.81205 0.60743 0.87225 0.0
C116 C 0.72397 0.6034 0.93256 0.0
C117 C 0.88282 0.61137 0.90479 0.0
C118 C 0.73178 0.60365 0.88625 0.0
N119 N 0.86214 0.6115 0.04028 0.0
C120 C 0.86334 0.61026 0.08521 0.0
C121 C 0.71611 0.60165 0.02533 0.0
C122 C 0.79213 0.60691 0.0102 0.0
C123 C 0.71551 0.60073 0.07169 0.0
C124 C 0.78966 0.60497 0.10168 0.0
H125 H 0.67759 0.60036 0.86081 0.0
H126 H 0.59075 0.59512 0.92378 0.0
H127 H 0.58395 0.59359 1.00491 0.0
O128 O 0.037 0.60325 0.04431 0.0
O129 O 0.87514 0.63137 0.03681 0.0
O130 O 0.86935 0.6481 0.99471 0.0
O131 O 0.99507 0.59796 0.97273 0.0
O132 O 0.04142 0.62855 0.07482 0.0
O133 O 0.9748 0.6498 0.08722 0.0
O134 O 0.94246 0.67843 0.01764 0.0
O135 O 0.12054 0.64948 0.03082 0.0
O136 O 0.11644 0.62574 1.00461 0.0
O137 O 0.91372 0.66991 0.07735 0.0
O138 O 0.95176 0.64619 0.95997 0.0
O139 O 1.03144 0.62656 0.95247 0.0
C140 C 0.82872 0.63966 0.01528 0.0
C141 C 0.09215 0.58278 1.00265 0.0
C142 C 0.12744 0.55878 1.00073 0.0
C143 C 0.21246 0.56148 0.98853 0.0
C144 C 0.1769 0.58528 0.99063 0.0
C145 C 0.23685 0.57463 0.9837 0.0
C146 C 0.06783 0.56961 1.00785 0.0
C147 C 1.0148 0.6395 0.102 0.0
C148 C 1.02589 0.59347 0.00886 0.0
C149 C 0.6471 0.59849 0.94772 0.0
C150 C 0.64332 0.59756 0.9939 0.0
C151 C 0.15881 0.63761 0.01791 0.0
C152 C 0.85606 0.69259 0.07356 0.0
C153 C 0.81125 0.71601 0.07063 0.0
C154 C 0.76111 0.71585 0.10828 0.0
C155 C 0.80561 0.69277 0.11122 0.0
C156 C 0.85943 0.70434 0.0535 0.0
C157 C 0.75864 0.70434 0.12841 0.0
C158 C 1.00499 0.63756 0.93726 0.0
C159 C 0.90552 0.6802 0.05612 0.0
H160 H 0.25984 0.5534 0.98196 0.0
H161 H 0.19627 0.59538 0.98636 0.0
H162 H 0.30229 0.57654 0.97416 0.0
H163 H 1.00226 0.56787 0.01775 0.0
H164 H 0.72453 0.72474 0.12258 0.0
H165 H 0.80229 0.68396 0.12743 0.0
H166 H 0.89853 0.70437 0.02458 0.0
H167 H 0.72013 0.70439 0.15754 0.0
Tb168 Tb 0.09991 0.65921 0.53212 0.0
C169 C 0.2809 0.60738 0.47519 0.0
N170 N 0.20323 0.61214 0.45868 0.0
C171 C 0.24923 0.6065 0.38208 0.0
C172 C 0.34722 0.60262 0.4458 0.0
C173 C 0.18472 0.61082 0.41237 0.0
C174 C 0.33138 0.6026 0.39892 0.0
C175 C 0.37104 0.60147 0.53959 0.0
C176 C 0.293 0.60675 0.52161 0.0
C177 C 0.43771 0.597 0.51047 0.0
C178 C 0.42598 0.59763 0.46378 0.0
Tb179 Tb 0.10392 0.61798 0.51292 0.0
N180 N 0.22885 0.61167 0.54941 0.0
C181 C 0.37994 0.60096 0.58642 0.0
C182 C 0.23577 0.61086 0.59482 0.0
C183 C 0.31186 0.60562 0.61409 0.0
H184 H 0.11941 0.61237 0.39792 0.0
H185 H 0.31781 0.60513 0.65018 0.0
H186 H 1.02323 0.66488 0.63547 0.0
H187 H 0.99328 0.67643 0.37536 0.0
H188 H 0.18248 0.61424 0.61601 0.0
H189 H 0.43894 0.59696 0.60151 0.0
H190 H 0.0947 0.66566 0.42606 0.0
H191 H 0.23448 0.60577 0.34556 0.0
H192 H 0.49849 0.593 0.52368 0.0
H193 H 0.47766 0.59398 0.44168 0.0
H194 H 0.89738 0.6764 0.6722 0.0
H195 H 0.38064 0.59902 0.37522 0.0
H196 H 0.85932 0.6878 0.40507 0.0
N197 N 0.98442 0.66919 0.5696 0.0
C198 C 0.92863 0.67627 0.54521 0.0
C199 C 0.9046 0.67627 0.63625 0.0
C200 C 0.85612 0.68316 0.56494 0.0
C201 C 0.97515 0.66948 0.61502 0.0
C202 C 0.84431 0.68304 0.61101 0.0
N203 N 1.01399 0.66939 0.48223 0.0
C204 C 1.03405 0.66987 0.43862 0.0
C205 C 0.88511 0.68295 0.4727 0.0
C206 C 0.9431 0.67616 0.49978 0.0
C207 C 0.9025 0.68276 0.42711 0.0
C208 C 0.97778 0.67629 0.41014 0.0
H209 H 0.78961 0.68827 0.62753 0.0
H210 H 0.74151 0.69522 0.55253 0.0
H211 H 0.7667 0.695 0.4717 0.0
O212 O 0.15168 0.67759 0.51951 0.0
O213 O 0.96883 0.64942 0.52943 0.0
O214 O 0.96793 0.62549 0.50886 0.0
O215 O 0.18177 0.67142 0.58418 0.0
O216 O 0.12749 0.64664 0.46646 0.0
O217 O 0.04645 0.62677 0.45505 0.0
O218 O 0.06041 0.6027 0.54667 0.0
O219 O 0.21783 0.63132 0.54395 0.0
O220 O 0.21394 0.64841 0.50336 0.0
O221 O 0.0777 0.59826 0.47461 0.0
O222 O 0.05536 0.62832 0.57693 0.0
O223 O 0.12774 0.64943 0.59239 0.0
C224 C 0.92816 0.63739 0.51853 0.0
C225 C 0.1643 0.6952 0.58415 0.0
C226 C 0.1572 0.7197 0.5843 0.0
C227 C 0.11138 0.72139 0.62413 0.0
C228 C 0.12022 0.69725 0.62463 0.0
C229 C 0.09359 0.71025 0.64424 0.0
C230 C 0.1839 0.70655 0.56441 0.0
C231 C 0.07295 0.63769 0.44072 0.0
C232 C 0.18639 0.68128 0.56113 0.0
C233 C 0.79784 0.68989 0.53805 0.0
C234 C 0.81216 0.68976 0.49201 0.0
C235 C 0.25922 0.63979 0.52369 0.0
C236 C 0.98958 0.58278 0.50341 0.0
C237 C 0.95069 0.55892 0.5023 0.0
C238 C 0.86313 0.56173 0.48831 0.0
C239 C 0.90227 0.58539 0.48973 0.0
C240 C 1.01336 0.56965 0.50997 0.0
C241 C 0.83928 0.57486 0.48233 0.0
C242 C 0.08499 0.6394 0.60527 0.0
C243 C 0.0588 0.59331 0.51007 0.0
H244 H 0.09029 0.7314 0.64007 0.0
H245 H 0.10589 0.68883 0.64117 0.0
H246 H 0.05894 0.7117 0.67517 0.0
H247 H 0.21793 0.70513 0.53321 0.0
H248 H 0.81314 0.55374 0.48118 0.0
H249 H 0.88321 0.59547 0.4845 0.0
H250 H 0.08102 0.56786 0.52129 0.0
H251 H 0.77181 0.57685 0.47147 0.0
Tb252 Tb 0.97724 0.4041 0.52964 0.0
C253 C 0.11777 0.34622 0.43667 0.0
N254 N 0.03664 0.35185 0.4342 0.0
C255 C 1.01953 0.34312 0.35333 0.0
C256 C 0.15409 0.33909 0.39716 0.0
C257 C 0.98561 0.34985 0.39371 0.0
C258 C 0.10457 0.33786 0.35496 0.0
C259 C 0.24436 0.34064 0.48403 0.0
C260 C 0.16238 0.34698 0.47946 0.0
C261 C 0.28219 0.33386 0.44461 0.0
C262 C 0.23726 0.33312 0.40127 0.0
Tb263 Tb 0.99053 0.3629 0.50224 0.0
N264 N 0.12486 0.35391 0.51672 0.0
C265 C 0.28523 0.3412 0.52812 0.0
C266 C 0.16147 0.35375 0.55999 0.0
C267 C 0.24306 0.34765 0.56628 0.0
H268 H 0.91852 0.3534 0.39259 0.0
H269 H 0.27314 0.34786 0.60052 0.0
H270 H 0.94067 0.41168 0.63899 0.0
H271 H 0.77448 0.40749 0.37383 0.0
H272 H 0.12857 0.35859 0.58948 0.0
H273 H 0.34839 0.33647 0.53311 0.0
H274 H 0.91214 0.4043 0.41794 0.0
H275 H 0.97965 0.34184 0.3211 0.0
H276 H 0.34554 0.32901 0.44733 0.0
H277 H 0.26655 0.32765 0.37126 0.0
H278 H 0.81897 0.42124 0.68488 0.0
H279 H 0.13025 0.3325 0.32372 0.0
H280 H 0.64112 0.41476 0.41379 0.0
N281 N 0.86751 0.41121 0.57516 0.0
C282 C 0.79162 0.41454 0.55296 0.0
C283 C 0.81016 0.41928 0.64782 0.0
C284 C 0.7205 0.42004 0.57768 0.0
C285 C 0.87865 0.41374 0.62185 0.0
C286 C 0.73061 0.4224 0.62567 0.0
N287 N 0.85529 0.4069 0.4823 0.0
C288 C 0.85345 0.40606 0.43588 0.0
C289 C 0.70528 0.4149 0.48128 0.0
C290 C 0.78449 0.412 0.50517 0.0
C291 C 0.70085 0.41269 0.4334 0.0
C292 C 0.77572 0.40847 0.41069 0.0
H293 H 0.67756 0.42666 0.6459 0.0
H294 H 0.58586 0.42696 0.57224 0.0
H295 H 0.57237 0.42241 0.48797 0.0
O296 O 0.97844 0.42276 0.50692 0.0
O297 O 0.87658 0.39008 0.54678 0.0
O298 O 0.86492 0.37231 0.48632 0.0
O299 O 1.03454 0.42138 0.57409 0.0
O300 O 1.02344 0.39466 0.46356 0.0
O301 O 0.94409 0.37472 0.45073 0.0
O302 O 0.92106 0.35327 0.54645 0.0
O303 O 0.11907 0.37364 0.51254 0.0
O304 O 0.11476 0.39752 0.52224 0.0
O305 O 0.95597 0.34219 0.48142 0.0
O306 O 0.99206 0.37293 0.57441 0.0
O307 O 0.03958 0.39576 0.58676 0.0
C308 C 0.82748 0.38123 0.51693 0.0
C309 C 0.08611 0.43919 0.53927 0.0
C310 C 0.12273 0.4622 0.52887 0.0
C311 C 0.21067 0.4582 0.52398 0.0
C312 C 0.17392 0.43536 0.53423 0.0
C313 C 0.23595 0.44489 0.52683 0.0
C314 C 0.06089 0.45259 0.53676 0.0
C315 C 0.99663 0.38322 0.43665 0.0
C316 C 1.01787 0.42934 0.54467 0.0
C317 C 0.6415 0.42281 0.55385 0.0
C318 C 0.63374 0.42017 0.50583 0.0
C319 C 0.15712 0.38579 0.5177 0.0
C320 C 0.83666 0.33339 0.51243 0.0
C321 C 0.76576 0.31116 0.50927 0.0
C322 C 0.68517 0.31673 0.49561 0.0
C323 C 0.75594 0.33871 0.49895 0.0
C324 C 0.84132 0.3197 0.51779 0.0
C325 C 0.68045 0.33039 0.49078 0.0
C326 C 1.02584 0.38418 0.60075 0.0
C327 C 0.91841 0.34152 0.51855 0.0
H328 H 0.26006 0.46539 0.51834 0.0
H329 H 0.19418 0.42504 0.53564 0.0
H330 H 0.30381 0.44193 0.52303 0.0
H331 H 0.99248 0.45542 0.53981 0.0
H332 H 0.62584 0.31049 0.48774 0.0
H333 H 0.7516 0.34919 0.49425 0.0
H334 H 0.90419 0.31575 0.5286 0.0
H335 H 0.61816 0.3345 0.48005 0.0
Tb336 Tb 0.59715 0.90296 0.02837 0.0
C337 C 0.43527 0.8464 0.05013 0.0
N338 N 0.51388 0.85263 0.06632 0.0
C339 C 0.50074 0.84613 0.13912 0.0
C340 C 0.38482 0.84015 0.07845 0.0
C341 C 0.5491 0.85196 0.10939 0.0
C342 C 0.41775 0.84033 0.12375 0.0
C343 C 0.32599 0.83947 0.98615 0.0
C344 C 0.40615 0.84604 1.00455 0.0
C345 C 0.27474 0.83342 0.01445 0.0
C346 C 0.30398 0.83378 0.06049 0.0
Tb347 Tb 0.58455 0.86199 0.01443 0.0
N348 N 0.45579 0.85246 0.97859 0.0
C349 C 0.29998 0.83918 0.93985 0.0
C350 C 0.43326 0.85157 0.93283 0.0
C351 C 0.35434 0.84512 0.91298 0.0
H352 H 0.61534 0.85564 0.12053 0.0
H353 H 0.33577 0.84466 0.87692 0.0
H354 H 0.66028 0.90609 0.92749 0.0
H355 H 0.75678 0.91603 0.20076 0.0
H356 H 0.47577 0.85581 0.91155 0.0
H357 H 0.23882 0.83421 0.92435 0.0
H358 H 0.63168 0.90955 0.14455 0.0
H359 H 0.52813 0.8459 0.17358 0.0
H360 H 0.21263 0.82837 1.00102 0.0
H361 H 0.26405 0.82897 0.08177 0.0
H362 H 0.79272 0.91447 0.89718 0.0
H363 H 0.38079 0.8357 0.14671 0.0
H364 H 0.90069 0.92181 0.17552 0.0
N365 N 0.71823 0.90871 0.99584 0.0
C366 C 0.78828 0.91345 0.02565 0.0
C367 C 0.79252 0.91414 0.93328 0.0
C368 C 0.86509 0.91827 0.0099 0.0
C369 C 0.71802 0.90932 0.95039 0.0
C370 C 0.86659 0.91856 0.9631 0.0
N371 N 0.70637 0.90898 0.08619 0.0
C372 C 0.69526 0.91074 0.13211 0.0
C373 C 0.85542 0.91786 0.10355 0.0
C374 C 0.78312 0.91321 0.07197 0.0
C375 C 0.84668 0.91831 0.1502 0.0
C376 C 0.76576 0.91496 0.16456 0.0
H377 H 0.92436 0.92223 0.9497 0.0
H378 H 0.99769 0.92622 0.02972 0.0
H379 H 0.98927 0.92587 0.11163 0.0
O380 O 0.58065 0.92312 0.06322 0.0
O381 O 0.7022 0.889 1.00151 0.0
O382 O 0.70813 0.87241 0.04444 0.0
O383 O 0.54952 0.91759 0.99061 0.0
O384 O 0.54877 0.89487 0.08569 0.0
O385 O 0.62642 0.87499 0.08025 0.0
O386 O 0.66109 0.85007 0.9661 0.0
O387 O 0.45569 0.87218 0.01068 0.0
O388 O 0.46097 0.89603 0.03231 0.0
O389 O 0.61614 0.84208 0.02255 0.0
O390 O 0.60084 0.87053 0.95244 0.0
O391 O 0.53587 0.89193 0.96325 0.0
C392 C 0.74856 0.88096 0.0241 0.0
C393 C 0.48637 0.93776 0.02844 0.0
C394 C 0.44808 0.9615 0.02716 0.0
C395 C 0.35838 0.95779 0.02595 0.0
C396 C 0.39713 0.93431 0.02774 0.0
C397 C 0.33344 0.94434 0.02666 0.0
C398 C 0.51162 0.95131 0.02888 0.0
C399 C 0.57628 0.88421 0.10267 0.0
C400 C 0.5551 0.92745 0.02596 0.0
C401 C 0.93774 0.92259 0.04119 0.0
C402 C 0.93305 0.92233 0.08782 0.0
C403 C 0.41803 0.88418 0.02141 0.0
C404 C 0.74501 0.83253 0.99324 0.0
C405 C 0.81911 0.81137 1.00314 0.0
C406 C 0.90072 0.81826 1.00647 0.0
C407 C 0.82698 0.8392 0.99689 0.0
C408 C 0.7414 0.81865 0.99647 0.0
C409 C 0.90441 0.83206 1.00341 0.0
C410 C 0.56263 0.88083 0.93685 0.0
C411 C 0.66174 0.8397 0.98706 0.0
H412 H 0.30705 0.96517 0.02353 0.0
H413 H 0.37694 0.92389 0.02744 0.0
H414 H 0.26431 0.94164 0.02561 0.0
H415 H 0.5812 0.95383 0.03032 0.0
H416 H 0.96178 0.81306 0.01228 0.0
H417 H 0.83115 0.8499 0.99484 0.0
H418 H 0.67781 0.81352 0.99346 0.0
H419 H 0.9676 0.83727 1.00637 0.0
Tb420 Tb 0.46933 0.11703 0.0107 0.0
C421 C 0.6526 0.17524 0.04366 0.0
N422 N 0.60432 0.16767 0.06669 0.0
C423 C 0.70471 0.17383 0.1336 0.0
C424 C 0.73087 0.182 0.06427 0.0
C425 C 0.62795 0.1672 0.11158 0.0
C426 C 0.75671 0.1812 0.10979 0.0
C427 C 0.67544 0.18279 0.97258 0.0
C428 C 0.62517 0.17562 0.99845 0.0
C429 C 0.7536 0.18955 0.99293 0.0
C430 C 0.78111 0.18919 0.03869 0.0
Tb431 Tb 0.47712 0.1582 0.0278 0.0
N432 N 0.54964 0.16887 0.97978 0.0
C433 C 0.64556 0.18295 0.92706 0.0
C434 C 0.51794 0.16958 0.93617 0.0
C435 C 0.56611 0.17639 0.90889 0.0
H436 H 0.58705 0.16203 0.13102 0.0
H437 H 0.54124 0.17675 0.87412 0.0
H438 H 0.43483 0.11158 0.8943 0.0
H439 H 0.27658 0.10309 0.13912 0.0
H440 H 0.45418 0.16525 0.92286 0.0
H441 H 0.6825 0.18829 0.90595 0.0
H442 H 0.40776 0.11236 0.11022 0.0
H443 H 0.72326 0.17337 0.16908 0.0
H444 H 0.79319 0.19511 0.97359 0.0
H445 H 0.84158 0.19443 0.05389 0.0
H446 H 0.31003 0.10542 0.8378 0.0
H447 H 0.81631 0.18629 0.12693 0.0
H448 H 0.14546 0.09553 0.08598 0.0
N449 N 0.36058 0.11133 0.95238 0.0
C450 C 0.2845 0.10663 0.96594 0.0
C451 C 0.30121 0.10604 0.87386 0.0
C452 C 0.21248 0.10211 0.93401 0.0
C453 C 0.37151 0.11011 0.90657 0.0
C454 C 0.22082 0.10226 0.88768 0.0
N455 N 0.34946 0.1104 0.04212 0.0
C456 C 0.35021 0.1092 0.08709 0.0
C457 C 0.20372 0.10046 0.02682 0.0
C458 C 0.27979 0.10575 0.01186 0.0
C459 C 0.20267 0.09958 0.07319 0.0
C460 C 0.27644 0.10389 0.10338 0.0
H461 H 0.16701 0.09887 0.86211 0.0
H462 H 0.07958 0.0937 0.92492 0.0
H463 H 0.07195 0.09227 1.00608 0.0
O464 O 0.52269 0.10216 0.04646 0.0
O465 O 0.36142 0.13019 0.03832 0.0
O466 O 0.35669 0.14708 0.99672 0.0
O467 O 0.48424 0.0971 0.97443 0.0
O468 O 0.52738 0.12796 0.07675 0.0
O469 O 0.45788 0.14899 0.08811 0.0
O470 O 0.42252 0.17661 0.01457 0.0
O471 O 0.60777 0.14849 0.02778 0.0
O472 O 0.60491 0.12454 0.00942 0.0
O473 O 0.40814 0.17036 0.07877 0.0
O474 O 0.43808 0.14533 0.96143 0.0
O475 O 0.51773 0.12565 0.95442 0.0
C476 C 0.3158 0.13865 0.0172 0.0
C477 C 0.58108 0.082 1.00458 0.0
C478 C 0.61782 0.05806 1.00116 0.0
C479 C 0.70204 0.06084 0.98836 0.0
C480 C 0.66529 0.08467 0.99209 0.0
C481 C 0.72564 0.07409 0.98416 0.0
C482 C 0.55784 0.06877 0.00941 0.0
C483 C 0.49752 0.13875 0.10346 0.0
C484 C 0.51367 0.0925 0.01058 0.0
C485 C 0.13558 0.09715 0.949 0.0
C486 C 0.13134 0.09628 0.9952 0.0
C487 C 0.64657 0.13652 0.01895 0.0
C488 C 0.42744 0.19409 0.07962 0.0
C489 C 0.42339 0.21888 0.08574 0.0
C490 C 0.48763 0.22024 0.1229 0.0
C491 C 0.48947 0.19582 0.11773 0.0
C492 C 0.3947 0.20569 0.06356 0.0
C493 C 0.52022 0.20879 0.1387 0.0
C494 C 0.49035 0.13653 0.93868 0.0
C495 C 0.39834 0.18026 0.05583 0.0
H496 H 0.74986 0.05281 0.98205 0.0
H497 H 0.6838 0.09483 0.98806 0.0
H498 H 0.79073 0.07613 0.97445 0.0
H499 H 0.49205 0.06673 0.01847 0.0
H500 H 0.5127 0.2302 0.1399 0.0
H501 H 0.51413 0.18719 0.13156 0.0
H502 H 0.34597 0.20446 0.03454 0.0
H503 H 0.56904 0.20998 0.1676 0.0
Tb504 Tb 0.57164 0.15877 0.54093 0.0
C505 C 0.75831 0.10602 0.47621 0.0
N506 N 0.68069 0.11025 0.45815 0.0
C507 C 0.72453 0.1028 0.38209 0.0
C508 C 0.82325 0.10024 0.44751 0.0
C509 C 0.66224 0.10857 0.41187 0.0
C510 C 0.80538 0.09863 0.39995 0.0
C511 C 0.85579 0.10443 0.54342 0.0
C512 C 0.77417 0.10811 0.52384 0.0
C513 C 0.92053 0.09862 0.51485 0.0
C514 C 0.9042 0.09649 0.46709 0.0
Tb515 Tb 0.58203 0.11765 0.51011 0.0
N516 N 0.71039 0.11393 0.55076 0.0
C517 C 0.8699 0.10663 0.59119 0.0
C518 C 0.7221 0.11524 0.59732 0.0
C519 C 0.80248 0.11193 0.61819 0.0
H520 H 0.59881 0.11133 0.39783 0.0
H521 H 0.81162 0.11317 0.65514 0.0
H522 H 0.62755 0.16808 0.65264 0.0
H523 H 0.29643 0.17151 0.43265 0.0
H524 H 0.6693 0.11821 0.61878 0.0
H525 H 0.93181 0.10397 0.60755 0.0
H526 H 0.43981 0.16117 0.44921 0.0
H527 H 0.70984 0.10146 0.34538 0.0
H528 H 0.98358 0.09574 0.52937 0.0
H529 H 0.955 0.09205 0.44558 0.0
H530 H 0.55799 0.1801 0.72081 0.0
H531 H 0.85354 0.09419 0.37674 0.0
H532 H 0.21581 0.18403 0.4963 0.0
N533 N 0.51645 0.16993 0.60652 0.0
C534 C 0.43676 0.17577 0.60075 0.0
C535 C 0.52276 0.17883 0.68729 0.0
C536 C 0.3959 0.18317 0.63835 0.0
C537 C 0.56124 0.17177 0.64878 0.0
C538 C 0.43938 0.18447 0.68213 0.0
N539 N 0.43754 0.16705 0.52152 0.0
C540 C 0.40432 0.16635 0.4772 0.0
C541 C 0.31546 0.18076 0.54891 0.0
C542 C 0.39697 0.17459 0.55669 0.0
C543 C 0.27843 0.17944 0.50376 0.0
C544 C 0.32353 0.17232 0.46773 0.0
H545 H 0.41011 0.19005 0.71196 0.0
H546 H 0.28125 0.1949 0.65941 0.0
H547 H 0.2109 0.19278 0.58111 0.0
O548 O 0.62328 0.1701 0.4959 0.0
O549 O 0.44342 0.14814 0.53508 0.0
O550 O 0.44454 0.12429 0.51418 0.0
O551 O 0.62009 0.17866 0.56759 0.0
O552 O 0.58303 0.1486 0.46956 0.0
O553 O 0.51611 0.12708 0.45622 0.0
O554 O 0.57326 0.09971 0.53717 0.0
O555 O 0.68769 0.13126 0.49601 0.0
O556 O 0.69747 0.1493 0.55604 0.0
O557 O 0.53045 0.09982 0.4668 0.0
O558 O 0.54156 0.12676 0.57791 0.0
O559 O 0.61871 0.14707 0.59293 0.0
C560 C 0.40398 0.13605 0.52518 0.0
C561 C 0.72152 0.18849 0.5266 0.0
C562 C 0.79167 0.2102 0.52246 0.0
C563 C 0.87341 0.20363 0.51994 0.0
C564 C 0.80349 0.18213 0.52445 0.0
C565 C 0.87917 0.18971 0.52122 0.0
C566 C 0.71591 0.20252 0.52608 0.0
C567 C 0.54004 0.13829 0.4426 0.0
C568 C 0.64004 0.18079 0.52791 0.0
C569 C 0.31385 0.18919 0.63094 0.0
C570 C 0.27383 0.18801 0.58632 0.0
C571 C 0.73534 0.14027 0.52594 0.0
C572 C 0.47373 0.08221 0.50066 0.0
C573 C 0.43908 0.05865 0.50661 0.0
C574 C 0.34881 0.06157 0.50031 0.0
C575 C 0.38373 0.08492 0.49514 0.0
C576 C 0.50103 0.06919 0.50698 0.0
C577 C 0.32164 0.07461 0.49503 0.0
C578 C 0.56902 0.13797 0.60609 0.0
C579 C 0.54151 0.09249 0.4985 0.0
H580 H 0.93301 0.2093 0.51746 0.0
H581 H 0.80873 0.17133 0.5249 0.0
H582 H 0.94249 0.18479 0.51948 0.0
H583 H 0.65216 0.20738 0.52738 0.0
H584 H 0.29883 0.05374 0.49863 0.0
H585 H 0.3617 0.09492 0.49045 0.0
H586 H 0.57091 0.06734 0.51222 0.0
H587 H 0.25207 0.07668 0.49025 0.0
Tb588 Tb 0.48098 0.90372 0.53202 0.0
C589 C 0.62419 0.84552 0.44051 0.0
N590 N 0.54492 0.85149 0.43463 0.0
C591 C 0.53933 0.84275 0.35378 0.0
C592 C 0.6653 0.83817 0.40292 0.0
C593 C 0.50057 0.84975 0.39229 0.0
C594 C 0.62245 0.83704 0.35904 0.0
C595 C 0.74381 0.84011 0.49258 0.0
C596 C 0.66299 0.84646 0.4847 0.0
C597 C 0.78589 0.83296 0.45515 0.0
C598 C 0.74681 0.83202 0.41043 0.0
Tb599 Tb 0.48952 0.8626 0.50018 0.0
N600 N 0.622 0.85389 0.51993 0.0
C601 C 0.77964 0.84113 0.53784 0.0
C602 C 0.65387 0.85426 0.5643 0.0
C603 C 0.73396 0.84812 0.57386 0.0
H604 H 0.43441 0.8535 0.38835 0.0
H605 H 0.76007 0.84868 0.609 0.0
H606 H 0.4717 0.91041 0.6449 0.0
H607 H 0.24269 0.90784 0.39018 0.0
H608 H 0.61792 0.85934 0.59226 0.0
H609 H 0.84171 0.8364 0.54537 0.0
H610 H 0.38666 0.90257 0.42434 0.0
H611 H 0.50449 0.84158 0.32018 0.0
H612 H 0.84835 0.82806 0.46044 0.0
H613 H 0.77964 0.82636 0.38196 0.0
H614 H 0.36429 0.92052 0.69907 0.0
H615 H 0.65193 0.8315 0.32921 0.0
H616 H 0.12662 0.91758 0.43976 0.0
N617 N 0.38616 0.91134 0.58568 0.0
C618 C 0.30777 0.91565 0.56872 0.0
C619 C 0.34732 0.91908 0.66252 0.0
C620 C 0.24486 0.92158 0.59844 0.0
C621 C 0.40755 0.91317 0.63176 0.0
C622 C 0.26561 0.92329 0.64583 0.0
N623 N 0.35088 0.90755 0.49324 0.0
C624 C 0.33587 0.90592 0.44673 0.0
C625 C 0.20657 0.91726 0.50283 0.0
C626 C 0.28909 0.91353 0.5212 0.0
C627 C 0.18935 0.91489 0.45519 0.0
C628 C 0.25448 0.9093 0.42708 0.0
H629 H 0.21909 0.92785 0.6698 0.0
H630 H 0.11387 0.93 0.60237 0.0
H631 H 0.0802 0.92616 0.51888 0.0
O632 O 0.48251 0.92189 0.50637 0.0
O633 O 0.37487 0.89012 0.5458 0.0
O634 O 0.36539 0.87247 0.48462 0.0
O635 O 0.54028 0.92129 0.57403 0.0
O636 O 0.52071 0.89484 0.46387 0.0
O637 O 0.44431 0.87446 0.44824 0.0
O638 O 0.42963 0.85172 0.54409 0.0
O639 O 0.61881 0.87303 0.50828 0.0
O640 O 0.61753 0.89694 0.52483 0.0
O641 O 0.44373 0.84261 0.4738 0.0
O642 O 0.47924 0.87258 0.57173 0.0
O643 O 0.54611 0.89412 0.58579 0.0
C644 C 0.32724 0.8812 0.51551 0.0
C645 C 0.58906 0.93873 0.5366 0.0
C646 C 0.62271 0.9618 0.52573 0.0
C647 C 0.70946 0.95776 0.51744 0.0
C648 C 0.67569 0.93487 0.52827 0.0
C649 C 0.73572 0.94441 0.51898 0.0
C650 C 0.563 0.95219 0.53558 0.0
C651 C 0.49425 0.88361 0.4355 0.0
C652 C 0.52229 0.92886 0.54346 0.0
C653 C 0.1631 0.92542 0.58005 0.0
C654 C 0.1439 0.92322 0.53246 0.0
C655 C 0.65817 0.88512 0.51613 0.0
C656 C 0.33039 0.83388 0.50963 0.0
C657 C 0.24718 0.8134 0.51497 0.0
C658 C 0.16891 0.82004 0.50408 0.0
C659 C 0.25194 0.8403 0.49879 0.0
C660 C 0.32803 0.82042 0.51739 0.0
C661 C 0.17149 0.83337 0.496 0.0
C662 C 0.52203 0.88284 0.59898 0.0
C663 C 0.41574 0.84087 0.51238 0.0
H664 H 0.75715 0.96497 0.51012 0.0
H665 H 0.69645 0.9245 0.52848 0.0
H666 H 0.80267 0.94143 0.51257 0.0
H667 H 0.4954 0.95507 0.54119 0.0
H668 H 0.10565 0.81486 0.50141 0.0
H669 H 0.2531 0.85061 0.49238 0.0
H670 H 0.38897 0.81552 0.52601 0.0
H671 H 0.1109 0.83835 0.48752 0.0
H672 H 0.36772 0.3931 0.09305 0.0
H673 H 0.34618 0.37108 0.95351 0.0
H674 H 0.52702 0.39466 0.09117 0.0
H675 H 0.50511 0.37281 0.95088 0.0
H676 H 0.79773 0.36703 0.9695 0.0
H677 H 0.64023 0.36537 0.97353 0.0
H678 H 0.64603 0.40462 0.06454 0.0
H679 H 0.80661 0.40541 0.06411 0.0
C680 C 0.39709 0.38865 0.06179 0.0
C681 C 0.34399 0.38206 0.02331 0.0
C682 C 0.4888 0.38961 0.06057 0.0
C683 C 0.53035 0.38393 0.02081 0.0
C684 C 0.47676 0.37717 0.9825 0.0
C685 C 0.38509 0.37619 0.98384 0.0
C686 C 0.76605 0.3751 0.9915 0.0
C687 C 0.81576 0.38608 0.01765 0.0
C688 C 0.67458 0.37435 0.99293 0.0
C689 C 0.62881 0.38484 0.01944 0.0
C690 C 0.67834 0.39615 0.04443 0.0
C691 C 0.7706 0.39673 0.04368 0.0
H692 H 0.26374 0.65692 0.99374 0.0
H693 H 0.27645 0.61821 0.03771 0.0
H694 H 0.42346 0.65791 0.99514 0.0
H695 H 0.43746 0.61873 0.03678 0.0
H696 H 0.72859 0.63145 0.07812 0.0
H697 H 0.5684 0.63034 0.07755 0.0
H698 H 0.54567 0.64797 0.95542 0.0
H699 H 0.70641 0.64874 0.9556 0.0
C700 C 0.30069 0.64872 1.0045 0.0
C701 C 0.25691 0.63773 0.01703 0.0
C702 C 0.39275 0.64912 1.0043 0.0
C703 C 0.44436 0.63843 0.01622 0.0
C704 C 0.40043 0.62727 0.02808 0.0
C705 C 0.30794 0.6269 0.02825 0.0
C706 C 0.68945 0.63491 0.05076 0.0
C707 C 0.73067 0.6399 0.01635 0.0
C708 C 0.59725 0.63429 0.05045 0.0
C709 C 0.54319 0.63896 0.01626 0.0
C710 C 0.58465 0.64434 0.98252 0.0
C711 C 0.67703 0.64479 0.98257 0.0
H712 H 0.81831 0.61781 0.53893 0.0
H713 H 0.81415 0.65662 0.4954 0.0
H714 H 0.65737 0.61825 0.54002 0.0
H715 H 0.6553 0.6575 0.49877 0.0
H716 H 0.3611 0.64844 0.4625 0.0
H717 H 0.52106 0.64746 0.46024 0.0
H718 H 0.53973 0.62979 0.58235 0.0
H719 H 0.37979 0.63111 0.58496 0.0
C720 C 0.78326 0.62647 0.52975 0.0
C721 C 0.82981 0.63732 0.51786 0.0
C722 C 0.69095 0.6268 0.53085 0.0
C723 C 0.64261 0.63795 0.51972 0.0
C724 C 0.68946 0.64868 0.50726 0.0
C725 C 0.78134 0.64832 0.50617 0.0
C726 C 0.3994 0.64442 0.48901 0.0
C727 C 0.35727 0.63961 0.52344 0.0
C728 C 0.49139 0.64385 0.48778 0.0
C729 C 0.54408 0.63845 0.52095 0.0
C730 C 0.50172 0.63379 0.5557 0.0
C731 C 0.40979 0.63451 0.55718 0.0
H732 H 0.70418 0.37289 0.44525 0.0
H733 H 0.72823 0.39016 0.58954 0.0
H734 H 0.54438 0.37473 0.44447 0.0
H735 H 0.56819 0.39191 0.58932 0.0
H736 H 0.2799 0.40426 0.56743 0.0
H737 H 0.44103 0.40332 0.56695 0.0
H738 H 0.41575 0.36617 0.46538 0.0
H739 H 0.25676 0.36796 0.46324 0.0
C740 C 0.67518 0.37697 0.47699 0.0
C741 C 0.7293 0.38151 0.51733 0.0
C742 C 0.58307 0.37802 0.47667 0.0
C743 C 0.5419 0.38354 0.51684 0.0
C744 C 0.59649 0.38784 0.55742 0.0
C745 C 0.68862 0.38677 0.55766 0.0
C746 C 0.30914 0.39601 0.54468 0.0
C747 C 0.25515 0.38594 0.51632 0.0
C748 C 0.40176 0.39534 0.54478 0.0
C749 C 0.44286 0.38457 0.51646 0.0
C750 C 0.38799 0.3747 0.48752 0.0
C751 C 0.29605 0.3755 0.48708 0.0
H752 H 0.84749 0.88761 0.95831 0.0
H753 H 0.8716 0.87362 0.08703 0.0
H754 H 1.00744 0.88902 0.95873 0.0
H755 H 1.03216 0.87486 0.08756 0.0
H756 H 0.31629 0.86655 0.05535 0.0
H757 H 0.15692 0.865 0.05341 0.0
H758 H 0.13678 0.90136 0.99429 0.0
H759 H 0.29771 0.90209 0.99292 0.0
C760 C 0.8871 0.88494 0.98698 0.0
C761 C 0.84652 0.88079 0.02313 0.0
C762 C 0.9792 0.88576 0.98727 0.0
C763 C 1.03385 0.8822 0.02338 0.0
C764 C 0.99294 0.87763 0.05892 0.0
C765 C 0.90062 0.87692 0.05873 0.0
C766 C 0.27801 0.87393 0.04052 0.0
C767 C 0.3201 0.88413 0.02285 0.0
C768 C 0.18605 0.87328 0.04049 0.0
C769 C 0.13271 0.88302 0.02358 0.0
C770 C 0.17503 0.8935 1.00688 0.0
C771 C 0.26751 0.89404 1.00658 0.0
H772 H 0.19432 0.14777 0.95728 0.0
H773 H 0.21535 0.13035 0.07958 0.0
H774 H 1.03356 0.14695 0.95663 0.0
H775 H 0.05524 0.12924 0.07867 0.0
H776 H 0.76435 0.11721 0.0393 0.0
H777 H 0.92512 0.11771 0.03818 0.0
H778 H 0.91096 0.15677 0.99561 0.0
H779 H 0.75135 0.15576 0.99411 0.0
C780 C 0.16465 0.14379 0.98411 0.0
C781 C 0.21788 0.13888 0.01798 0.0
C782 C 0.07229 0.14331 0.98381 0.0
C783 C 1.0306 0.1379 0.01738 0.0
C784 C 0.0843 0.13322 0.05166 0.0
C785 C 0.17644 0.13384 0.05219 0.0
C786 C 0.79568 0.12586 0.0295 0.0
C787 C 0.74459 0.13663 0.01791 0.0
C788 C 0.88808 0.12623 0.02926 0.0
C789 C 0.93188 0.13735 0.01715 0.0
C790 C 0.8803 0.14799 1.00491 0.0
C791 C 0.78828 0.14758 1.00504 0.0
H792 H 0.28164 0.11746 0.47612 0.0
H793 H 0.30427 0.15412 0.57906 0.0
H794 H 0.121 0.11824 0.47709 0.0
H795 H 0.14558 0.15582 0.57679 0.0
H796 H 0.85795 0.14938 0.59722 0.0
H797 H 1.01769 0.1476 0.5982 0.0
H798 H 0.99397 0.1291 0.45436 0.0
H799 H 0.83425 0.13072 0.45405 0.0
C800 C 0.25243 0.12576 0.49865 0.0
C801 C 0.30618 0.13594 0.52663 0.0
C802 C 0.16002 0.12635 0.49878 0.0
C803 C 0.11891 0.13719 0.52669 0.0
C804 C 0.17344 0.14721 0.55509 0.0
C805 C 0.26525 0.14645 0.55555 0.0
C806 C 0.88703 0.14501 0.56579 0.0
C807 C 0.8332 0.14005 0.52573 0.0
C808 C 0.97905 0.144 0.56619 0.0
C809 C 1.02013 0.13814 0.52634 0.0
C810 C 0.96572 0.13341 0.48605 0.0
C811 C 0.87375 0.1344 0.48576 0.0
H812 H 0.75835 0.86673 0.46368 0.0
H813 H 0.78009 0.904 0.56381 0.0
H814 H 0.91725 0.86515 0.46589 0.0
H815 H 0.94083 0.90326 0.56294 0.0
H816 H 0.22797 0.89093 0.58712 0.0
H817 H 0.06819 0.89247 0.58675 0.0
H818 H 0.04462 0.87353 0.44335 0.0
H819 H 0.20451 0.87193 0.44424 0.0
C820 C 0.79721 0.87454 0.48664 0.0
C821 C 0.75602 0.8852 0.51476 0.0
C822 C 0.88908 0.87384 0.48704 0.0
C823 C 0.94336 0.88405 0.51468 0.0
C824 C 0.90197 0.89502 0.54185 0.0
C825 C 0.80953 0.89557 0.54194 0.0
C826 C 0.18855 0.88715 0.55546 0.0
C827 C 0.22925 0.88143 0.5156 0.0
C828 C 0.09653 0.88808 0.55515 0.0
C829 C 0.04217 0.88319 0.51499 0.0
C830 C 0.08331 0.87727 0.47524 0.0
C831 C 0.1754 0.87636 0.47561 0.0
H832 H 0.22779 0.5398 0.03626 0.0
H833 H 0.96637 0.54581 0.97639 0.0
H834 H 0.18601 0.51663 0.04189 0.0
H835 H 0.92436 0.52275 0.98312 0.0
H836 H 0.8586 0.48529 0.04473 0.0
H837 H 0.90045 0.50869 0.04209 0.0
H838 H 0.14734 0.49469 0.98917 0.0
H839 H 0.10495 0.47125 0.99061 0.0
C840 C 0.1616 0.53619 0.02403 0.0
C841 C 0.10084 0.54473 1.00557 0.0
C842 C 0.1376 0.5229 0.02742 0.0
C843 C 0.05195 0.51782 0.01285 0.0
C844 C 0.9906 0.5264 0.99515 0.0
C845 C 1.01478 0.53965 0.99139 0.0
C846 C 0.92143 0.48714 0.03203 0.0
C847 C 0.97797 0.47628 0.01765 0.0
C848 C 0.9455 0.50059 0.03067 0.0
C849 C 1.02713 0.50356 0.01533 0.0
C850 C 0.08441 0.49277 1.00169 0.0
C851 C 0.06005 0.47931 1.00265 0.0
H852 H 0.16507 0.47696 0.46483 0.0
H853 H 1.01825 0.47926 0.58436 0.0
H854 H 0.12302 0.50014 0.45914 0.0
H855 H 0.97852 0.50266 0.57996 0.0
H856 H 0.85452 0.53999 0.53499 0.0
H857 H 0.89339 0.51673 0.54036 0.0
H858 H 0.14837 0.52299 0.49208 0.0
H859 H 0.1067 0.54585 0.48314 0.0
C860 C 0.12459 0.48251 0.49025 0.0
C861 C 0.09559 0.47631 0.52523 0.0
C862 C 0.1007 0.49585 0.48717 0.0
C863 C 0.04794 0.50345 0.51935 0.0
C864 C 1.01824 0.49716 0.55414 0.0
C865 C 0.04127 0.48373 0.55684 0.0
C866 C 0.91838 0.53636 0.52479 0.0
C867 C 0.9768 0.54486 0.50813 0.0
C868 C 0.94139 0.52302 0.52861 0.0
C869 C 1.02405 0.51782 0.51644 0.0
C870 C 0.08338 0.52645 0.50089 0.0
C871 C 0.05992 0.53972 0.4965 0.0
H872 H 0.58925 0.97023 0.98657 0.0
H873 H 0.36879 0.98546 0.06364 0.0
H874 H 0.63213 0.99334 0.9833 0.0
H875 H 0.40641 1.00848 0.05617 0.0
H876 H 0.53743 0.05009 0.07112 0.0
H877 H 0.49962 0.02701 0.07938 0.0
H878 H 0.59749 0.01134 0.94732 0.0
H879 H 0.63915 0.03438 0.9406 0.0
C880 C 0.54964 0.97846 1.00291 0.0
C881 C 0.47503 0.97581 0.02533 0.0
C882 C 0.57341 0.9918 1.00018 0.0
C883 C 0.52234 1.00293 0.01888 0.0
C884 C 0.44824 1.00029 0.04165 0.0
C885 C 0.42552 0.98697 0.04522 0.0
C886 C 0.55084 0.04167 0.04395 0.0
C887 C 0.59216 0.04401 1.00546 0.0
C888 C 0.52868 0.0284 0.04849 0.0
C889 C 0.54577 0.01714 0.01418 0.0
C890 C 0.58537 0.01961 0.97517 0.0
C891 C 0.60891 0.03285 0.97107 0.0
H892 H 0.5882 0.0451 0.47679 0.0
H893 H 0.35685 0.04021 0.54833 0.0
H894 H 0.63381 0.02232 0.48422 0.0
H895 H 0.39795 0.01697 0.5517 0.0
H896 H 0.53035 0.97909 0.58696 0.0
H897 H 0.48934 1.00255 0.58468 0.0
H898 H 0.60582 0.99956 0.45513 0.0
H899 H 0.65033 0.97637 0.45899 0.0
C900 C 0.54677 0.03922 0.49415 0.0
C901 C 0.46821 0.04464 0.51172 0.0
C902 C 0.57225 0.02596 0.49764 0.0
C903 C 0.51925 0.01756 0.51802 0.0
C904 C 0.44132 0.02304 0.5361 0.0
C905 C 0.4167 0.03639 0.53339 0.0
C906 C 0.54707 0.98349 0.55805 0.0
C907 C 0.59441 0.97594 0.52342 0.0
C908 C 0.52316 0.99696 0.55653 0.0
C909 C 0.54455 1.00315 0.51984 0.0
C910 C 0.59016 0.9954 0.48466 0.0
C911 C 0.61533 0.98203 0.48664 0.0
H912 H 0.40316 0.29152 0.97071 0.0
H913 H 0.21902 0.30003 0.07563 0.0
H914 H 0.41461 0.26815 0.98292 0.0
H915 H 0.22582 0.27644 0.08562 0.0
H916 H 0.36902 0.24169 0.14081 0.0
H917 H 0.32911 0.26338 0.12025 0.0
H918 H 0.35069 0.24606 0.97726 0.0
H919 H 0.39499 0.22434 0.99853 0.0
C920 C 0.3645 0.28839 0.99612 0.0
C921 C 0.31152 0.29779 0.02276 0.0
C922 C 0.36987 0.27488 1.00258 0.0
C923 C 0.32185 0.27037 0.03562 0.0
C924 C 0.26519 0.27959 0.0605 0.0
C925 C 0.26046 0.29312 0.05435 0.0
C926 C 0.36501 0.24249 0.10493 0.0
C927 C 0.38671 0.23137 0.07141 0.0
C928 C 0.34088 0.25491 0.09298 0.0
C929 C 0.33705 0.25657 0.04703 0.0
C930 C 0.35434 0.24522 0.01308 0.0
C931 C 0.37881 0.23274 0.02515 0.0
H932 H 0.92477 0.79058 0.96604 0.0
H933 H 0.70486 0.79895 0.05005 0.0
H934 H 0.92231 0.76683 0.97554 0.0
H935 H 0.7028 0.7753 0.05993 0.0
H936 H 0.6705 0.73013 0.04361 0.0
H937 H 0.67045 0.75248 0.02186 0.0
H938 H 0.95536 0.75295 0.03239 0.0
H939 H 0.95477 0.73033 0.05304 0.0
C940 C 0.87613 0.78737 0.98672 0.0
C941 C 0.81525 0.79672 1.0074 0.0
C942 C 0.87474 0.77373 0.99219 0.0
C943 C 0.81245 0.76908 0.01853 0.0
C944 C 0.7508 0.7784 0.0387 0.0
C945 C 0.75202 0.79201 0.03311 0.0
C946 C 0.73308 0.73495 0.04069 0.0
C947 C 0.81261 0.72856 0.05048 0.0
C948 C 0.73314 0.74781 0.02856 0.0
C949 C 0.81286 0.7547 0.02622 0.0
C950 C 0.89262 0.74796 0.03363 0.0
C951 C 0.89247 0.73499 0.04547 0.0
H952 H 0.03791 0.73705 0.55598 0.0
H953 H 0.31728 0.72986 0.5687 0.0
H954 H 0.06608 0.75915 0.53614 0.0
H955 H 0.34652 0.75236 0.55032 0.0
H956 H 0.35099 0.7915 0.4839 0.0
H957 H 0.33444 0.76794 0.49529 0.0
H958 H 0.12025 0.7803 0.58051 0.0
H959 H 0.13582 0.80354 0.56847 0.0
C960 C 0.10547 0.74019 0.55403 0.0
C961 C 0.17541 0.73185 0.56428 0.0
C962 C 0.12184 0.75291 0.54314 0.0
C963 C 0.20869 0.75774 0.54296 0.0
C964 C 0.27885 0.749 0.55032 0.0
C965 C 0.26225 0.73612 0.56078 0.0
C966 C 0.30078 0.78914 0.50525 0.0
C967 C 0.24332 0.79931 0.52448 0.0
C968 C 0.29131 0.77565 0.51179 0.0
C969 C 0.22441 0.77212 0.53782 0.0
C970 C 0.17032 0.7825 0.55884 0.0
C971 C 0.17938 0.79586 0.5521 0.0
H972 H 0.64208 0.29556 0.53954 0.0
H973 H 0.90164 0.29329 0.48909 0.0
H974 H 0.64573 0.27139 0.54153 0.0
H975 H 0.90852 0.26939 0.4949 0.0
H976 H 0.86312 0.22374 0.46217 0.0
H977 H 0.8561 0.24795 0.4597 0.0
H978 H 0.70183 0.25435 0.57787 0.0
H979 H 0.70576 0.22997 0.57861 0.0
C980 C 0.70019 0.28994 0.52897 0.0
C981 C 0.77101 0.29647 0.5136 0.0
C982 C 0.70294 0.27605 0.53087 0.0
C983 C 0.77722 0.26825 0.51813 0.0
C984 C 0.84919 0.27488 0.50404 0.0
C985 C 0.84589 0.28874 0.50148 0.0
C986 C 0.82787 0.23036 0.48762 0.0
C987 C 0.78559 0.22498 0.52077 0.0
C988 C 0.82422 0.24429 0.48647 0.0
C989 C 0.77927 0.25329 0.51892 0.0
C990 C 0.73619 0.24782 0.55187 0.0
C991 C 0.7387 0.23382 0.55251 0.0
H992 H 0.17252 0.37236 0.16085 0.0
H993 H 0.93437 0.3958 0.15746 0.0
H994 H 0.15676 0.3713 0.24117 0.0
H995 H 0.91821 0.39461 0.23788 0.0
H996 H 0.87359 0.37543 0.36492 0.0
H997 H 0.89023 0.37547 0.28371 0.0
H998 H 0.1612 0.38885 0.31698 0.0
H999 H 0.14426 0.38886 0.39814 0.0
C1000 C 0.11678 0.37727 0.17731 0.0
C1001 C 0.05465 0.38419 0.15307 0.0
C1002 C 0.108 0.3767 0.22324 0.0
C1003 C 0.03614 0.38282 0.24555 0.0
C1004 C 0.97381 0.3897 0.22127 0.0
C1005 C 0.9834 0.39048 0.17551 0.0
C1006 C 0.93697 0.37816 0.35462 0.0
C1007 C 1.00801 0.38202 0.38742 0.0
C1008 C 0.9462 0.37832 0.30839 0.0
C1009 C 1.02691 0.3822 0.29423 0.0
C1010 C 0.09848 0.38574 0.32701 0.0
C1011 C 0.0888 0.38578 0.37328 0.0
H1012 H 0.13731 0.62647 0.14911 0.0
H1013 H 0.91145 0.65256 0.16756 0.0
H1014 H 0.14967 0.62592 0.23106 0.0
H1015 H 0.92318 0.6518 0.24963 0.0
H1016 H 0.92483 0.63199 0.38233 0.0
H1017 H 0.90914 0.63273 0.29998 0.0
H1018 H 0.18422 0.64398 0.30534 0.0
H1019 H 0.19929 0.64346 0.38731 0.0
C1020 C 0.09028 0.63208 0.17068 0.0
C1021 C 1.0236 0.63959 0.15193 0.0
C1022 C 0.09752 0.63179 0.21756 0.0
C1023 C 0.03719 0.63878 0.24661 0.0
C1024 C 0.97012 0.64624 0.22791 0.0
C1025 C 0.96393 0.64676 0.18108 0.0
C1026 C 0.98164 0.6346 0.3657 0.0
C1027 C 0.06299 0.63774 0.391 0.0
C1028 C 0.97265 0.63511 0.31883 0.0
C1029 C 0.04549 0.63844 0.29639 0.0
C1030 C 0.12712 0.64134 0.32171 0.0
C1031 C 0.13561 0.64111 0.36858 0.0
H1032 H 0.15629 0.63338 0.89387 0.0
H1033 H 0.88201 0.64314 0.87244 0.0
H1034 H 0.17755 0.63461 0.81376 0.0
H1035 H 0.90273 0.64429 0.79256 0.0
H1036 H 0.95617 0.62711 0.64192 0.0
H1037 H 0.93829 0.62708 0.72252 0.0
H1038 H 0.17093 0.65262 0.76103 0.0
H1039 H 0.18873 0.65274 0.67981 0.0
C1040 C 0.10074 0.63578 0.8719 0.0
C1041 C 1.01774 0.63824 0.88911 0.0
C1042 C 0.11296 0.63659 0.82633 0.0
C1043 C 0.04183 0.63959 0.797 0.0
C1044 C 0.95864 0.64192 0.81431 0.0
C1045 C 0.94683 0.64132 0.85997 0.0
C1046 C 1.00361 0.63273 0.66753 0.0
C1047 C 0.07406 0.6399 0.65454 0.0
C1048 C 0.99299 0.63277 0.7137 0.0
C1049 C 0.05322 0.63983 0.74804 0.0
C1050 C 0.12386 0.64702 0.73519 0.0
C1051 C 0.13372 0.64716 0.68883 0.0
H1052 H 1.00438 0.36268 0.64439 0.0
H1053 H 0.08093 0.40536 0.67046 0.0
H1054 H 1.02031 0.36272 0.72641 0.0
H1055 H 0.09274 0.40538 0.75277 0.0
H1056 H 0.97593 0.39981 0.89302 0.0
H1057 H 0.96974 0.40031 0.81104 0.0
H1058 H 0.15912 0.36801 0.79194 0.0
H1059 H 0.17057 0.36812 0.87422 0.0
C1060 C 1.02465 0.37208 0.66739 0.0
C1061 C 0.04046 0.38407 0.65055 0.0
C1062 C 1.03366 0.37206 0.71438 0.0
C1063 C 0.05708 0.38407 0.74564 0.0
C1064 C 0.07375 0.39603 0.72916 0.0
C1065 C 0.06682 0.39599 0.68203 0.0
C1066 C 1.01655 0.39284 0.87144 0.0
C1067 C 0.07153 0.38359 0.89004 0.0
C1068 C 1.01301 0.39316 0.82461 0.0
C1069 C 0.06326 0.3841 0.79539 0.0
C1070 C 0.11878 0.37495 0.81383 0.0
C1071 C 0.12422 0.37489 0.86082 0.0
H1072 H 0.69746 0.87768 0.16688 0.0
H1073 H 0.42933 0.89079 0.14807 0.0
H1074 H 0.67705 0.87697 0.24703 0.0
H1075 H 0.40874 0.89028 0.22857 0.0
H1076 H 0.37871 0.87388 0.36133 0.0
H1077 H 0.39913 0.87373 0.28046 0.0
H1078 H 0.6558 0.89274 0.31877 0.0
H1079 H 0.63608 0.89252 0.39925 0.0
C1080 C 0.63411 0.88039 0.18004 0.0
C1081 C 0.56464 0.88417 0.1514 0.0
C1082 C 0.62253 0.88008 0.22594 0.0
C1083 C 0.54113 0.88351 0.24418 0.0
C1084 C 0.47184 0.88739 0.21544 0.0
C1085 C 0.48375 0.88781 0.16956 0.0
C1086 C 0.43998 0.8778 0.35226 0.0
C1087 C 0.50639 0.88303 0.38638 0.0
C1088 C 0.45125 0.87789 0.30607 0.0
C1089 C 0.52915 0.88322 0.29314 0.0
C1090 C 0.59551 0.88841 0.32745 0.0
C1091 C 0.58405 0.88836 0.37354 0.0
H1092 H 0.38132 0.14968 0.1653 0.0
H1093 H 0.62682 0.12807 0.15392 0.0
H1094 H 0.38958 0.1493 0.24769 0.0
H1095 H 0.63616 0.12809 0.2365 0.0
H1096 H 0.65442 0.14968 0.39411 0.0
H1097 H 0.64362 0.14967 0.31171 0.0
H1098 H 0.39665 0.12746 0.29642 0.0
H1099 H 0.40854 0.12708 0.379 0.0
C1100 C 0.43728 0.14495 0.18049 0.0
C1101 C 0.5035 0.1389 0.15333 0.0
C1102 C 0.44164 0.14467 0.22744 0.0
C1103 C 0.51338 0.13865 0.24817 0.0
C1104 C 0.58023 0.13279 0.22118 0.0
C1105 C 0.57476 0.13276 0.17406 0.0
C1106 C 0.59766 0.14482 0.37321 0.0
C1107 C 0.53204 0.13841 0.39289 0.0
C1108 C 0.59184 0.14477 0.32613 0.0
C1109 C 0.51927 0.1386 0.29798 0.0
C1110 C 0.45303 0.13233 0.31761 0.0
C1111 C 0.45996 0.13208 0.36463 0.0
H1112 H 0.3697 0.14383 0.87562 0.0
H1113 H 0.6368 0.13009 0.8926 0.0
H1114 H 0.38943 0.14491 0.79571 0.0
H1115 H 0.65661 0.13095 0.81225 0.0
H1116 H 0.42701 0.12936 0.64295 0.0
H1117 H 0.40842 0.12912 0.72352 0.0
H1118 H 0.66648 0.14772 0.76083 0.0
H1119 H 0.68564 0.14764 0.67983 0.0
C1120 C 0.43276 0.14108 0.86215 0.0
C1121 C 0.5021 0.13701 0.89022 0.0
C1122 C 0.44391 0.14161 0.81636 0.0
C1123 C 0.52471 0.13806 0.79763 0.0
C1124 C 0.59397 0.13392 0.8258 0.0
C1125 C 0.58252 0.13331 0.87159 0.0
C1126 C 0.47955 0.13344 0.66846 0.0
C1127 C 0.55728 0.13866 0.6553 0.0
C1128 C 0.46874 0.13339 0.7146 0.0
C1129 C 0.53588 0.13844 0.74864 0.0
C1130 C 0.61378 0.14368 0.73541 0.0
C1131 C 0.62435 0.14379 0.68917 0.0
H1132 H 0.40678 0.87128 0.64635 0.0
H1133 H 0.65357 0.8937 0.6633 0.0
H1134 H 0.41723 0.87068 0.72827 0.0
H1135 H 0.66503 0.89273 0.74549 0.0
H1136 H 0.67887 0.86995 0.87501 0.0
H1137 H 0.67145 0.87069 0.79283 0.0
H1138 H 0.42391 0.89163 0.80425 0.0
H1139 H 0.43245 0.89129 0.88655 0.0
C1140 C 0.46364 0.87599 0.66756 0.0
C1141 C 0.52962 0.88252 0.64853 0.0
C1142 C 0.46929 0.87568 0.71438 0.0
C1143 C 0.542 0.88161 0.74292 0.0
C1144 C 0.60858 0.88803 0.72396 0.0
C1145 C 0.60185 0.88863 0.67718 0.0
C1146 C 0.62273 0.87464 0.85983 0.0
C1147 C 0.55603 0.88053 0.88696 0.0
C1148 C 0.61892 0.87516 0.81306 0.0
C1149 C 0.54727 0.88125 0.7925 0.0
C1150 C 0.47978 0.88688 0.81943 0.0
C1151 C 0.48471 0.88669 0.86637 0.0
loop_
_geom_bond_atom_site_label_1
_geom_bond_atom_site_label_2
_geom_bond_distance
_geom_bond_site_symmetry_2
_ccdc_geom_bond_type
Tb0 N29 2.617 1_554 S
Tb0 N35 2.572 . S
Tb0 O44 2.465 . S
Tb0 O45 2.387 1_554 S
Tb0 O47 2.428 1_554 S
Tb0 O48 2.308 . S
Tb0 O52 2.349 1_455 S
Tb0 O55 2.393 1_554 S
Tb0 C64 2.802 . S
C1 N2 1.379 . S
C1 C4 1.416 . S
C1 C8 1.424 . S
N2 C1 1.379 . S
N2 C5 1.334 . S
N2 Tb11 2.617 1_655 S
C3 C5 1.390 . S
C3 C6 1.339 . S
C3 H23 0.930 . S
C4 C1 1.416 . S
C4 C6 1.416 . S
C4 C10 1.448 . S
C5 N2 1.334 . S
C5 C3 1.390 . S
C5 H16 0.930 1_655 S
C6 C3 1.339 . S
C6 C4 1.416 . S
C6 H27 0.930 . S
C7 C8 1.413 1_556 S
C7 C9 1.427 1_556 S
C7 C13 1.416 . S
C8 C1 1.424 . S
C8 C7 1.413 1_554 S
C8 N12 1.361 1_554 S
C9 C7 1.427 1_554 S
C9 C10 1.328 . S
C9 H24 0.929 . S
C10 C4 1.448 . S
C10 C9 1.328 . S
C10 H25 0.930 . S
Tb11 N2 2.617 1_455 S
Tb11 N12 2.572 1_454 S
Tb11 O46 2.349 . S
Tb11 O49 2.393 . S
Tb11 O50 2.465 1_554 S
Tb11 O51 2.387 1_455 S
Tb11 O53 2.428 . S
Tb11 O54 2.308 1_554 S
Tb11 C75 2.802 . S
N12 C8 1.361 1_556 S
N12 Tb11 2.572 1_656 S
N12 C14 1.340 . S
C13 C7 1.416 . S
C13 C15 1.332 . S
C13 H21 0.931 . S
C14 N12 1.340 . S
C14 C15 1.407 . S
C14 H20 0.930 . S
C15 C13 1.332 . S
C15 C14 1.407 . S
C15 H17 0.929 . S
H16 C5 0.930 1_455 S
H17 C15 0.929 . S
H18 C33 0.930 . S
H19 C40 0.929 . S
H20 C14 0.930 . S
H21 C13 0.931 . S
H22 C36 0.930 . S
H23 C3 0.930 . S
H24 C9 0.929 . S
H25 C10 0.930 . S
H26 C31 0.930 . S
H27 C6 0.930 . S
H28 C39 0.931 . S
N29 Tb0 2.617 1_556 S
N29 C30 1.379 . S
N29 C33 1.334 . S
C30 N29 1.379 . S
C30 C32 1.416 . S
C30 C38 1.424 1_556 S
C31 H26 0.930 . S
C31 C33 1.390 . S
C31 C34 1.339 . S
C32 C30 1.416 . S
C32 C34 1.416 . S
C32 C65 1.448 . S
C33 H18 0.930 . S
C33 N29 1.334 . S
C33 C31 1.390 . S
C34 C31 1.339 . S
C34 C32 1.416 . S
C34 H41 0.930 . S
N35 Tb0 2.572 . S
N35 C36 1.340 . S
N35 C38 1.361 . S
C36 H22 0.930 . S
C36 N35 1.340 . S
C36 C40 1.407 . S
C37 C38 1.413 . S
C37 C39 1.416 . S
C37 C66 1.427 . S
C38 C30 1.424 1_554 S
C38 N35 1.361 . S
C38 C37 1.413 . S
C39 H28 0.931 . S
C39 C37 1.416 . S
C39 C40 1.332 . S
C40 H19 0.929 . S
C40 C36 1.407 . S
C40 C39 1.332 . S
H41 C34 0.930 . S
H42 C65 0.930 . S
H43 C66 0.929 . S
O44 Tb0 2.465 . S
O44 C64 1.264 . S
O45 Tb0 2.387 1_556 S
O45 C56 1.259 1_556 S
O46 Tb11 2.349 . S
O46 C56 1.243 . S
O47 Tb0 2.428 1_556 S
O47 C64 1.256 1_556 S
O48 Tb0 2.308 . S
O48 C63 1.266 . S
O49 Tb11 2.393 . S
O49 C63 1.248 . S
O50 Tb11 2.465 1_556 S
O50 C75 1.264 1_556 S
O51 Tb11 2.387 1_655 S
O51 C67 1.264 . S
O52 Tb0 2.349 1_655 S
O52 C67 1.243 . S
O53 Tb11 2.428 . S
O53 C75 1.256 . S
O54 Tb11 2.308 1_556 S
O54 C74 1.266 . S
O55 Tb0 2.393 1_556 S
O55 C74 1.248 . S
C56 O45 1.259 1_554 S
C56 O46 1.243 . S
C57 C60 1.399 1_554 S
C57 C62 1.383 . S
C57 C64 1.496 1_655 S
C58 C59 1.399 . S
C58 C62 1.389 . S
C59 C58 1.399 . S
C59 C61 1.380 1_554 S
C59 H76 0.929 . S
C60 C57 1.399 1_556 S
C60 C61 1.392 . S
C60 H77 0.929 . S
C61 C59 1.380 1_556 S
C61 C60 1.392 . S
C61 H78 0.929 . S
C62 C57 1.383 . S
C62 C58 1.389 . S
C62 H79 0.931 . S
C63 O48 1.266 . S
C63 O49 1.248 . S
C64 Tb0 2.802 . S
C64 O44 1.264 . S
C64 O47 1.256 1_554 S
C64 C57 1.496 1_455 S
C65 C32 1.448 . S
C65 H42 0.930 . S
C65 C66 1.328 1_556 S
C66 C37 1.427 . S
C66 H43 0.929 . S
C66 C65 1.328 1_554 S
C67 O51 1.264 . S
C67 O52 1.243 . S
C68 C71 1.399 1_556 S
C68 C72 1.383 . S
C68 C75 1.496 1_556 S
C69 C70 1.399 . S
C69 C72 1.389 . S
C70 C69 1.399 . S
C70 C73 1.380 1_556 S
C70 H80 0.929 . S
C71 C68 1.399 1_554 S
C71 C73 1.392 . S
C71 H81 0.929 . S
C72 C68 1.383 . S
C72 C69 1.389 . S
C72 H82 0.931 . S
C73 C70 1.380 1_554 S
C73 C71 1.392 . S
C73 H83 0.929 . S
C74 O54 1.266 . S
C74 O55 1.248 . S
C75 Tb11 2.802 . S
C75 O50 1.264 1_554 S
C75 O53 1.256 . S
C75 C68 1.496 1_554 S
H76 C59 0.929 . S
H77 C60 0.929 . S
H78 C61 0.929 . S
H79 C62 0.931 . S
H80 C70 0.929 . S
H81 C71 0.929 . S
H82 C72 0.931 . S
H83 C73 0.929 . S
Tb84 N113 2.617 . S
Tb84 N119 2.572 1_556 S
Tb84 O128 2.465 1_556 S
Tb84 O129 2.387 . S
Tb84 O131 2.428 . S
Tb84 O132 2.308 1_556 S
Tb84 O136 2.348 1_656 S
Tb84 O139 2.393 . S
Tb84 C148 2.802 . S
C85 N86 1.379 . S
C85 C88 1.416 . S
C85 C92 1.424 . S
N86 C85 1.379 . S
N86 C89 1.334 . S
N86 Tb95 2.617 1_455 S
C87 C89 1.390 . S
C87 C90 1.339 . S
C87 H107 0.930 . S
C88 C85 1.416 . S
C88 C90 1.416 . S
C88 C94 1.448 . S
C89 N86 1.334 . S
C89 C87 1.390 . S
C89 H100 0.930 . S
C90 C87 1.339 . S
C90 C88 1.416 . S
C90 H111 0.930 . S
C91 C92 1.413 . S
C91 C93 1.427 . S
C91 C97 1.416 1_554 S
C92 C85 1.424 . S
C92 C91 1.413 . S
C92 N96 1.361 . S
C93 C91 1.427 . S
C93 C94 1.328 . S
C93 H108 0.929 . S
C94 C88 1.448 . S
C94 C93 1.328 . S
C94 H109 0.930 . S
Tb95 N86 2.617 1_655 S
Tb95 N96 2.572 1_655 S
Tb95 O130 2.349 . S
Tb95 O133 2.393 . S
Tb95 O134 2.467 . S
Tb95 O135 2.387 1_655 S
Tb95 O137 2.428 . S
Tb95 O138 2.308 1_554 S
Tb95 C159 2.802 . S
N96 C92 1.361 . S
N96 Tb95 2.572 1_455 S
N96 C98 1.340 1_554 S
C97 C91 1.416 1_556 S
C97 C99 1.332 . S
C97 H105 0.931 . S
C98 N96 1.340 1_556 S
C98 C99 1.407 . S
C98 H104 0.930 . S
C99 C97 1.332 . S
C99 C98 1.407 . S
C99 H101 0.929 . S
H100 C89 0.930 . S
H101 C99 0.929 . S
H102 C117 0.930 . S
H103 C124 0.929 . S
H104 C98 0.930 . S
H105 C97 0.931 . S
H106 C120 0.930 . S
H107 C87 0.930 . S
H108 C93 0.929 . S
H109 C94 0.930 . S
H110 C115 0.930 . S
H111 C90 0.930 . S
H112 C123 0.931 . S
N113 Tb84 2.617 . S
N113 C114 1.379 . S
N113 C117 1.334 . S
C114 N113 1.379 . S
C114 C116 1.416 . S
C114 C122 1.424 . S
C115 H110 0.930 . S
C115 C117 1.390 . S
C115 C118 1.339 . S
C116 C114 1.416 . S
C116 C118 1.416 . S
C116 C149 1.448 . S
C117 H102 0.930 . S
C117 N113 1.334 . S
C117 C115 1.390 . S
C118 C115 1.339 . S
C118 C116 1.416 . S
C118 H125 0.930 . S
N119 Tb84 2.572 1_554 S
N119 C120 1.340 . S
N119 C122 1.361 1_554 S
C120 H106 0.930 . S
C120 N119 1.340 . S
C120 C124 1.407 . S
C121 C122 1.413 . S
C121 C123 1.416 1_556 S
C121 C150 1.427 . S
C122 C114 1.424 . S
C122 N119 1.361 1_556 S
C122 C121 1.413 . S
C123 H112 0.931 . S
C123 C121 1.416 1_554 S
C123 C124 1.332 . S
C124 H103 0.929 . S
C124 C120 1.407 . S
C124 C123 1.332 . S
H125 C118 0.930 . S
H126 C149 0.930 . S
H127 C150 0.929 . S
O128 Tb84 2.465 1_554 S
O128 C148 1.264 1_554 S
O129 Tb84 2.387 . S
O129 C140 1.264 1_556 S
O130 Tb95 2.349 . S
O130 C140 1.243 . S
O131 Tb84 2.428 . S
O131 C148 1.256 . S
O132 Tb84 2.308 1_554 S
O132 C147 1.266 . S
O133 Tb95 2.393 . S
O133 C147 1.248 . S
O134 Tb95 2.467 . S
O134 C159 1.266 . S
O135 Tb95 2.387 1_455 S
O135 C151 1.264 . S
O136 Tb84 2.348 1_454 S
O136 C151 1.248 . S
O137 Tb95 2.428 . S
O137 C159 1.256 . S
O138 Tb95 2.308 1_556 S
O138 C158 1.266 . S
O139 Tb84 2.393 . S
O139 C158 1.248 . S
C140 O129 1.264 1_554 S
C140 O130 1.243 . S
C141 C144 1.399 . S
C141 C146 1.383 1_556 S
C141 C148 1.496 1_455 S
C142 C143 1.399 1_554 S
C142 C146 1.389 . S
C143 C142 1.399 1_556 S
C143 C145 1.380 . S
C143 H160 0.929 . S
C144 C141 1.399 . S
C144 C145 1.392 . S
C144 H161 0.929 . S
C145 C143 1.380 . S
C145 C144 1.392 . S
C145 H162 0.929 . S
C146 C141 1.383 1_554 S
C146 C142 1.389 . S
C146 H163 0.931 . S
C147 O132 1.266 . S
C147 O133 1.248 . S
C148 Tb84 2.802 . S
C148 O128 1.264 1_556 S
C148 O131 1.256 . S
C148 C141 1.496 1_655 S
C149 C116 1.448 . S
C149 H126 0.930 . S
C149 C150 1.328 . S
C150 C121 1.427 . S
C150 H127 0.929 . S
C150 C149 1.328 . S
C151 O135 1.264 . S
C151 O136 1.248 . S
C152 C155 1.399 . S
C152 C156 1.383 1_554 S
C152 C159 1.496 . S
C153 C154 1.399 1_556 S
C153 C156 1.389 . S
C154 C153 1.399 1_554 S
C154 C157 1.380 . S
C154 H164 0.929 . S
C155 C152 1.399 . S
C155 C157 1.392 . S
C155 H165 0.929 . S
C156 C152 1.383 1_556 S
C156 C153 1.389 . S
C156 H166 0.931 . S
C157 C154 1.380 . S
C157 C155 1.392 . S
C157 H167 0.929 . S
C158 O138 1.266 . S
C158 O139 1.248 . S
C159 Tb95 2.802 . S
C159 O134 1.266 . S
C159 O137 1.256 . S
C159 C152 1.496 . S
H160 C143 0.929 . S
H161 C144 0.929 . S
H162 C145 0.929 . S
H163 C146 0.931 . S
H164 C154 0.929 . S
H165 C155 0.929 . S
H166 C156 0.931 . S
H167 C157 0.929 . S
Tb168 N197 2.617 1_455 S
Tb168 N203 2.572 1_455 S
Tb168 O212 2.465 . S
Tb168 O213 2.387 1_455 S
Tb168 O215 2.428 . S
Tb168 O216 2.308 . S
Tb168 O220 2.349 . S
Tb168 O223 2.393 . S
Tb168 C232 2.802 . S
C169 N170 1.379 . S
C169 C172 1.416 . S
C169 C176 1.424 . S
N170 C169 1.379 . S
N170 C173 1.334 . S
N170 Tb179 2.617 . S
C171 C173 1.390 . S
C171 C174 1.339 . S
C171 H191 0.930 . S
C172 C169 1.416 . S
C172 C174 1.416 . S
C172 C178 1.448 . S
C173 N170 1.334 . S
C173 C171 1.390 . S
C173 H184 0.930 . S
C174 C171 1.339 . S
C174 C172 1.416 . S
C174 H195 0.930 . S
C175 C176 1.413 . S
C175 C177 1.427 . S
C175 C181 1.416 . S
C176 C169 1.424 . S
C176 C175 1.413 . S
C176 N180 1.361 . S
C177 C175 1.427 . S
C177 C178 1.328 . S
C177 H192 0.929 . S
C178 C172 1.448 . S
C178 C177 1.328 . S
C178 H193 0.930 . S
Tb179 N170 2.617 . S
Tb179 N180 2.572 . S
Tb179 O214 2.349 1_455 S
Tb179 O217 2.393 . S
Tb179 O218 2.465 . S
Tb179 O219 2.387 . S
Tb179 O221 2.428 . S
Tb179 O222 2.308 . S
Tb179 C243 2.802 1_455 S
N180 C176 1.361 . S
N180 Tb179 2.572 . S
N180 C182 1.340 . S
C181 C175 1.416 . S
C181 C183 1.332 . S
C181 H189 0.931 . S
C182 N180 1.340 . S
C182 C183 1.407 . S
C182 H188 0.930 . S
C183 C181 1.332 . S
C183 C182 1.407 . S
C183 H185 0.929 . S
H184 C173 0.930 . S
H185 C183 0.929 . S
H186 C201 0.930 1_455 S
H187 C208 0.929 . S
H188 C182 0.930 . S
H189 C181 0.931 . S
H190 C204 0.930 . S
H191 C171 0.930 . S
H192 C177 0.929 . S
H193 C178 0.930 . S
H194 C199 0.930 . S
H195 C174 0.930 . S
H196 C207 0.931 . S
N197 Tb168 2.617 1_655 S
N197 C198 1.379 . S
N197 C201 1.334 . S
C198 N197 1.379 . S
C198 C200 1.416 . S
C198 C206 1.424 . S
C199 H194 0.930 . S
C199 C201 1.390 . S
C199 C202 1.339 . S
C200 C198 1.416 . S
C200 C202 1.416 . S
C200 C233 1.448 . S
C201 H186 0.930 1_655 S
C201 N197 1.334 . S
C201 C199 1.390 . S
C202 C199 1.339 . S
C202 C200 1.416 . S
C202 H209 0.930 . S
N203 Tb168 2.572 1_655 S
N203 C204 1.340 . S
N203 C206 1.361 . S
C204 H190 0.930 . S
C204 N203 1.340 . S
C204 C208 1.407 . S
C205 C206 1.413 . S
C205 C207 1.416 . S
C205 C234 1.427 . S
C206 C198 1.424 . S
C206 N203 1.361 . S
C206 C205 1.413 . S
C207 H196 0.931 . S
C207 C205 1.416 . S
C207 C208 1.332 . S
C208 H187 0.929 . S
C208 C204 1.407 . S
C208 C207 1.332 . S
H209 C202 0.930 . S
H210 C233 0.930 . S
H211 C234 0.929 . S
O212 Tb168 2.465 . S
O212 C232 1.264 . S
O213 Tb168 2.387 1_655 S
O213 C224 1.264 . S
O214 Tb179 2.349 1_655 S
O214 C224 1.243 . S
O215 Tb168 2.428 . S
O215 C232 1.256 . S
O216 Tb168 2.308 . S
O216 C231 1.266 . S
O217 Tb179 2.393 . S
O217 C231 1.248 . S
O218 Tb179 2.465 . S
O218 C243 1.264 1_455 S
O219 Tb179 2.387 . S
O219 C235 1.264 . S
O220 Tb168 2.349 . S
O220 C235 1.243 . S
O221 Tb179 2.428 . S
O221 C243 1.256 1_455 S
O222 Tb179 2.308 . S
O222 C242 1.266 . S
O223 Tb168 2.393 . S
O223 C242 1.248 . S
C224 O213 1.264 . S
C224 O214 1.243 . S
C225 C228 1.399 . S
C225 C230 1.383 . S
C225 C232 1.496 . S
C226 C227 1.399 . S
C226 C230 1.389 . S
C227 C226 1.399 . S
C227 C229 1.380 . S
C227 H244 0.929 . S
C228 C225 1.399 . S
C228 C229 1.392 . S
C228 H245 0.929 . S
C229 C227 1.380 . S
C229 C228 1.392 . S
C229 H246 0.929 . S
C230 C225 1.383 . S
C230 C226 1.389 . S
C230 H247 0.931 . S
C231 O216 1.266 . S
C231 O217 1.248 . S
C232 Tb168 2.802 . S
C232 O212 1.264 . S
C232 O215 1.256 . S
C232 C225 1.496 . S
C233 C200 1.448 . S
C233 H210 0.930 . S
C233 C234 1.328 . S
C234 C205 1.427 . S
C234 H211 0.929 . S
C234 C233 1.328 . S
C235 O219 1.264 . S
C235 O220 1.243 . S
C236 C239 1.399 . S
C236 C240 1.383 . S
C236 C243 1.496 . S
C237 C238 1.399 . S
C237 C240 1.389 . S
C238 C237 1.399 . S
C238 C241 1.380 . S
C238 H248 0.929 . S
C239 C236 1.399 . S
C239 C241 1.392 . S
C239 H249 0.929 . S
C240 C236 1.383 . S
C240 C237 1.389 . S
C240 H250 0.931 . S
C241 C238 1.380 . S
C241 C239 1.392 . S
C241 H251 0.929 . S
C242 O222 1.266 . S
C242 O223 1.248 . S
C243 Tb179 2.802 1_655 S
C243 O218 1.264 1_655 S
C243 O221 1.256 1_655 S
C243 C236 1.496 . S
H244 C227 0.929 . S
H245 C228 0.929 . S
H246 C229 0.929 . S
H247 C230 0.931 . S
H248 C238 0.929 . S
H249 C239 0.929 . S
H250 C240 0.931 . S
H251 C241 0.929 . S
Tb252 N281 2.617 . S
Tb252 N287 2.572 . S
Tb252 O296 2.465 . S
Tb252 O297 2.387 . S
Tb252 O299 2.428 . S
Tb252 O300 2.308 . S
Tb252 O304 2.349 1_655 S
Tb252 O307 2.393 . S
Tb252 C316 2.802 1_655 S
C253 N254 1.379 . S
C253 C256 1.416 . S
C253 C260 1.424 . S
N254 C253 1.379 . S
N254 C257 1.334 . S
N254 Tb263 2.617 1_455 S
C255 C257 1.390 . S
C255 C258 1.339 . S
C255 H275 0.930 . S
C256 C253 1.416 . S
C256 C258 1.416 . S
C256 C262 1.448 . S
C257 N254 1.334 . S
C257 C255 1.390 . S
C257 H268 0.930 1_455 S
C258 C255 1.339 . S
C258 C256 1.416 . S
C258 H279 0.930 . S
C259 C260 1.413 . S
C259 C261 1.427 . S
C259 C265 1.416 . S
C260 C253 1.424 . S
C260 C259 1.413 . S
C260 N264 1.361 . S
C261 C259 1.427 . S
C261 C262 1.328 . S
C261 H276 0.929 . S
C262 C256 1.448 . S
C262 C261 1.328 . S
C262 H277 0.930 . S
Tb263 N254 2.617 1_655 S
Tb263 N264 2.572 1_655 S
Tb263 O298 2.349 . S
Tb263 O301 2.393 . S
Tb263 O302 2.465 . S
Tb263 O303 2.387 1_655 S
Tb263 O305 2.428 . S
Tb263 O306 2.308 . S
Tb263 C327 2.802 . S
N264 C260 1.361 . S
N264 Tb263 2.572 1_455 S
N264 C266 1.340 . S
C265 C259 1.416 . S
C265 C267 1.332 . S
C265 H273 0.931 . S
C266 N264 1.340 . S
C266 C267 1.407 . S
C266 H272 0.930 . S
C267 C265 1.332 . S
C267 C266 1.407 . S
C267 H269 0.929 . S
H268 C257 0.930 1_655 S
H269 C267 0.929 . S
H270 C285 0.930 . S
H271 C292 0.929 . S
H272 C266 0.930 . S
H273 C265 0.931 . S
H274 C288 0.930 . S
H275 C255 0.930 . S
H276 C261 0.929 . S
H277 C262 0.930 . S
H278 C283 0.930 . S
H279 C258 0.930 . S
H280 C291 0.931 . S
N281 Tb252 2.617 . S
N281 C282 1.379 . S
N281 C285 1.334 . S
C282 N281 1.379 . S
C282 C284 1.416 . S
C282 C290 1.424 . S
C283 H278 0.930 . S
C283 C285 1.390 . S
C283 C286 1.339 . S
C284 C282 1.416 . S
C284 C286 1.416 . S
C284 C317 1.448 . S
C285 H270 0.930 . S
C285 N281 1.334 . S
C285 C283 1.390 . S
C286 C283 1.339 . S
C286 C284 1.416 . S
C286 H293 0.930 . S
N287 Tb252 2.572 . S
N287 C288 1.340 . S
N287 C290 1.361 . S
C288 H274 0.930 . S
C288 N287 1.340 . S
C288 C292 1.407 . S
C289 C290 1.413 . S
C289 C291 1.416 . S
C289 C318 1.427 . S
C290 C282 1.424 . S
C290 N287 1.361 . S
C290 C289 1.413 . S
C291 H280 0.931 . S
C291 C289 1.416 . S
C291 C292 1.332 . S
C292 H271 0.929 . S
C292 C288 1.407 . S
C292 C291 1.332 . S
H293 C286 0.930 . S
H294 C317 0.930 . S
H295 C318 0.929 . S
O296 Tb252 2.465 . S
O296 C316 1.264 1_655 S
O297 Tb252 2.387 . S
O297 C308 1.264 . S
O298 Tb263 2.349 . S
O298 C308 1.243 . S
O299 Tb252 2.428 . S
O299 C316 1.256 1_655 S
O300 Tb252 2.308 . S
O300 C315 1.266 . S
O301 Tb263 2.393 . S
O301 C315 1.248 . S
O302 Tb263 2.465 . S
O302 C327 1.264 . S
O303 Tb263 2.387 1_455 S
O303 C319 1.264 . S
O304 Tb252 2.349 1_455 S
O304 C319 1.243 . S
O305 Tb263 2.428 . S
O305 C327 1.256 . S
O306 Tb263 2.308 . S
O306 C326 1.266 . S
O307 Tb252 2.393 . S
O307 C326 1.248 . S
C308 O297 1.264 . S
C308 O298 1.243 . S
C309 C312 1.399 . S
C309 C314 1.383 . S
C309 C316 1.496 . S
C310 C311 1.399 . S
C310 C314 1.389 . S
C311 C310 1.399 . S
C311 C313 1.380 . S
C311 H328 0.929 . S
C312 C309 1.399 . S
C312 C313 1.392 . S
C312 H329 0.929 . S
C313 C311 1.380 . S
C313 C312 1.392 . S
C313 H330 0.929 . S
C314 C309 1.383 . S
C314 C310 1.389 . S
C314 H331 0.931 . S
C315 O300 1.266 . S
C315 O301 1.248 . S
C316 Tb252 2.802 1_455 S
C316 O296 1.264 1_455 S
C316 O299 1.256 1_455 S
C316 C309 1.496 . S
C317 C284 1.448 . S
C317 H294 0.930 . S
C317 C318 1.328 . S
C318 C289 1.427 . S
C318 H295 0.929 . S
C318 C317 1.328 . S
C319 O303 1.264 . S
C319 O304 1.243 . S
C320 C323 1.399 . S
C320 C324 1.383 . S
C320 C327 1.496 . S
C321 C322 1.399 . S
C321 C324 1.389 . S
C322 C321 1.399 . S
C322 C325 1.380 . S
C322 H332 0.929 . S
C323 C320 1.399 . S
C323 C325 1.392 . S
C323 H333 0.929 . S
C324 C320 1.383 . S
C324 C321 1.389 . S
C324 H334 0.931 . S
C325 C322 1.380 . S
C325 C323 1.392 . S
C325 H335 0.929 . S
C326 O306 1.266 . S
C326 O307 1.248 . S
C327 Tb263 2.802 . S
C327 O302 1.264 . S
C327 O305 1.256 . S
C327 C320 1.496 . S
H328 C311 0.929 . S
H329 C312 0.929 . S
H330 C313 0.929 . S
H331 C314 0.931 . S
H332 C322 0.929 . S
H333 C323 0.929 . S
H334 C324 0.931 . S
H335 C325 0.929 . S
Tb336 N365 2.617 1_554 S
Tb336 N371 2.572 . S
Tb336 O380 2.465 . S
Tb336 O381 2.387 1_554 S
Tb336 O383 2.428 1_554 S
Tb336 O384 2.308 . S
Tb336 O388 2.349 . S
Tb336 O391 2.393 1_554 S
Tb336 C400 2.802 . S
C337 N338 1.379 . S
C337 C340 1.416 . S
C337 C344 1.424 . S
N338 C337 1.379 . S
N338 C341 1.334 . S
N338 Tb347 2.617 . S
C339 C341 1.390 . S
C339 C342 1.339 . S
C339 H359 0.930 . S
C340 C337 1.416 . S
C340 C342 1.416 . S
C340 C346 1.448 . S
C341 N338 1.334 . S
C341 C339 1.390 . S
C341 H352 0.930 . S
C342 C339 1.339 . S
C342 C340 1.416 . S
C342 H363 0.930 . S
C343 C344 1.413 1_556 S
C343 C345 1.427 1_556 S
C343 C349 1.416 . S
C344 C337 1.424 . S
C344 C343 1.413 1_554 S
C344 N348 1.361 1_554 S
C345 C343 1.427 1_554 S
C345 C346 1.328 . S
C345 H360 0.929 . S
C346 C340 1.448 . S
C346 C345 1.328 . S
C346 H361 0.930 . S
Tb347 N338 2.617 . S
Tb347 N348 2.572 1_554 S
Tb347 O382 2.349 . S
Tb347 O385 2.393 . S
Tb347 O386 2.465 1_554 S
Tb347 O387 2.387 . S
Tb347 O389 2.428 . S
Tb347 O390 2.308 1_554 S
Tb347 C411 2.802 . S
N348 C344 1.361 1_556 S
N348 Tb347 2.572 1_556 S
N348 C350 1.340 . S
C349 C343 1.416 . S
C349 C351 1.332 . S
C349 H357 0.931 . S
C350 N348 1.340 . S
C350 C351 1.407 . S
C350 H356 0.930 . S
C351 C349 1.332 . S
C351 C350 1.407 . S
C351 H353 0.929 . S
H352 C341 0.930 . S
H353 C351 0.929 . S
H354 C369 0.930 . S
H355 C376 0.929 . S
H356 C350 0.930 . S
H357 C349 0.931 . S
H358 C372 0.930 . S
H359 C339 0.930 . S
H360 C345 0.929 . S
H361 C346 0.930 . S
H362 C367 0.930 . S
H363 C342 0.930 . S
H364 C375 0.931 . S
N365 Tb336 2.617 1_556 S
N365 C366 1.379 . S
N365 C369 1.334 . S
C366 N365 1.379 . S
C366 C368 1.416 . S
C366 C374 1.424 1_556 S
C367 H362 0.930 . S
C367 C369 1.390 . S
C367 C370 1.339 . S
C368 C366 1.416 . S
C368 C370 1.416 . S
C368 C401 1.448 . S
C369 H354 0.930 . S
C369 N365 1.334 . S
C369 C367 1.390 . S
C370 C367 1.339 . S
C370 C368 1.416 . S
C370 H377 0.930 . S
N371 Tb336 2.572 . S
N371 C372 1.340 . S
N371 C374 1.361 . S
C372 H358 0.930 . S
C372 N371 1.340 . S
C372 C376 1.407 . S
C373 C374 1.413 . S
C373 C375 1.416 . S
C373 C402 1.427 . S
C374 C366 1.424 1_554 S
C374 N371 1.361 . S
C374 C373 1.413 . S
C375 H364 0.931 . S
C375 C373 1.416 . S
C375 C376 1.332 . S
C376 H355 0.929 . S
C376 C372 1.407 . S
C376 C375 1.332 . S
H377 C370 0.930 . S
H378 C401 0.930 . S
H379 C402 0.929 . S
O380 Tb336 2.465 . S
O380 C400 1.264 . S
O381 Tb336 2.387 1_556 S
O381 C392 1.258 1_556 S
O382 Tb347 2.349 . S
O382 C392 1.243 . S
O383 Tb336 2.428 1_556 S
O383 C400 1.256 1_556 S
O384 Tb336 2.308 . S
O384 C399 1.266 . S
O385 Tb347 2.393 . S
O385 C399 1.248 . S
O386 Tb347 2.465 1_556 S
O386 C411 1.264 1_556 S
O387 Tb347 2.387 . S
O387 C403 1.264 . S
O388 Tb336 2.349 . S
O388 C403 1.243 . S
O389 Tb347 2.428 . S
O389 C411 1.256 . S
O390 Tb347 2.308 1_556 S
O390 C410 1.266 . S
O391 Tb336 2.393 1_556 S
O391 C410 1.248 . S
C392 O381 1.258 1_554 S
C392 O382 1.243 . S
C393 C396 1.399 1_554 S
C393 C398 1.383 . S
C393 C400 1.496 . S
C394 C395 1.399 . S
C394 C398 1.389 . S
C395 C394 1.399 . S
C395 C397 1.380 1_554 S
C395 H412 0.929 . S
C396 C393 1.399 1_556 S
C396 C397 1.392 . S
C396 H413 0.929 . S
C397 C395 1.380 1_556 S
C397 C396 1.392 . S
C397 H414 0.929 . S
C398 C393 1.383 . S
C398 C394 1.389 . S
C398 H415 0.931 . S
C399 O384 1.266 . S
C399 O385 1.248 . S
C400 Tb336 2.802 . S
C400 O380 1.264 . S
C400 O383 1.256 1_554 S
C400 C393 1.496 . S
C401 C368 1.448 . S
C401 H378 0.930 . S
C401 C402 1.328 1_556 S
C402 C373 1.427 . S
C402 H379 0.929 . S
C402 C401 1.328 1_554 S
C403 O387 1.264 . S
C403 O388 1.243 . S
C404 C407 1.399 1_556 S
C404 C408 1.383 . S
C404 C411 1.496 1_556 S
C405 C406 1.399 . S
C405 C408 1.389 . S
C406 C405 1.399 . S
C406 C409 1.380 1_556 S
C406 H416 0.929 . S
C407 C404 1.399 1_554 S
C407 C409 1.392 . S
C407 H417 0.929 . S
C408 C404 1.383 . S
C408 C405 1.389 . S
C408 H418 0.931 . S
C409 C406 1.380 1_554 S
C409 C407 1.392 . S
C409 H419 0.929 . S
C410 O390 1.266 . S
C410 O391 1.248 . S
C411 Tb347 2.802 . S
C411 O386 1.264 1_554 S
C411 O389 1.256 . S
C411 C404 1.496 1_554 S
H412 C395 0.929 . S
H413 C396 0.929 . S
H414 C397 0.929 . S
H415 C398 0.931 . S
H416 C406 0.929 . S
H417 C407 0.929 . S
H418 C408 0.931 . S
H419 C409 0.929 . S
Tb420 N449 2.617 . S
Tb420 N455 2.572 1_556 S
Tb420 O464 2.465 1_556 S
Tb420 O465 2.387 . S
Tb420 O467 2.428 . S
Tb420 O468 2.308 1_556 S
Tb420 O472 2.348 1_556 S
Tb420 O475 2.393 . S
Tb420 C484 2.802 . S
C421 N422 1.379 . S
C421 C424 1.416 . S
C421 C428 1.424 . S
N422 C421 1.379 . S
N422 C425 1.334 . S
N422 Tb431 2.617 . S
C423 C425 1.390 . S
C423 C426 1.339 . S
C423 H443 0.930 . S
C424 C421 1.416 . S
C424 C426 1.416 . S
C424 C430 1.448 . S
C425 N422 1.334 . S
C425 C423 1.390 . S
C425 H436 0.930 . S
C426 C423 1.339 . S
C426 C424 1.416 . S
C426 H447 0.930 . S
C427 C428 1.413 . S
C427 C429 1.427 . S
C427 C433 1.416 1_554 S
C428 C421 1.424 . S
C428 C427 1.413 . S
C428 N432 1.361 . S
C429 C427 1.427 . S
C429 C430 1.328 . S
C429 H444 0.929 . S
C430 C424 1.448 . S
C430 C429 1.328 . S
C430 H445 0.930 . S
Tb431 N422 2.617 . S
Tb431 N432 2.572 . S
Tb431 O466 2.349 . S
Tb431 O469 2.393 . S
Tb431 O470 2.467 . S
Tb431 O471 2.387 . S
Tb431 O473 2.428 . S
Tb431 O474 2.308 1_554 S
Tb431 C495 2.802 . S
N432 C428 1.361 . S
N432 Tb431 2.572 . S
N432 C434 1.340 1_554 S
C433 C427 1.416 1_556 S
C433 C435 1.332 . S
C433 H441 0.931 . S
C434 N432 1.340 1_556 S
C434 C435 1.407 . S
C434 H440 0.930 . S
C435 C433 1.332 . S
C435 C434 1.407 . S
C435 H437 0.929 . S
H436 C425 0.930 . S
H437 C435 0.929 . S
H438 C453 0.930 . S
H439 C460 0.929 . S
H440 C434 0.930 . S
H441 C433 0.931 . S
H442 C456 0.930 . S
H443 C423 0.930 . S
H444 C429 0.929 . S
H445 C430 0.930 . S
H446 C451 0.930 . S
H447 C426 0.930 . S
H448 C459 0.931 . S
N449 Tb420 2.617 . S
N449 C450 1.379 . S
N449 C453 1.334 . S
C450 N449 1.379 . S
C450 C452 1.416 . S
C450 C458 1.424 . S
C451 H446 0.930 . S
C451 C453 1.390 . S
C451 C454 1.339 . S
C452 C450 1.416 . S
C452 C454 1.416 . S
C452 C485 1.448 . S
C453 H438 0.930 . S
C453 N449 1.334 . S
C453 C451 1.390 . S
C454 C451 1.339 . S
C454 C452 1.416 . S
C454 H461 0.930 . S
N455 Tb420 2.572 1_554 S
N455 C456 1.340 . S
N455 C458 1.361 1_554 S
C456 H442 0.930 . S
C456 N455 1.340 . S
C456 C460 1.407 . S
C457 C458 1.413 . S
C457 C459 1.416 1_556 S
C457 C486 1.427 . S
C458 C450 1.424 . S
C458 N455 1.361 1_556 S
C458 C457 1.413 . S
C459 H448 0.931 . S
C459 C457 1.416 1_554 S
C459 C460 1.332 . S
C460 H439 0.929 . S
C460 C456 1.407 . S
C460 C459 1.332 . S
H461 C454 0.930 . S
H462 C485 0.930 . S
H463 C486 0.929 . S
O464 Tb420 2.465 1_554 S
O464 C484 1.264 1_554 S
O465 Tb420 2.387 . S
O465 C476 1.264 1_556 S
O466 Tb431 2.349 . S
O466 C476 1.243 . S
O467 Tb420 2.428 . S
O467 C484 1.256 . S
O468 Tb420 2.308 1_554 S
O468 C483 1.266 . S
O469 Tb431 2.393 . S
O469 C483 1.248 . S
O470 Tb431 2.467 . S
O470 C495 1.266 . S
O471 Tb431 2.387 . S
O471 C487 1.264 . S
O472 Tb420 2.348 1_554 S
O472 C487 1.248 . S
O473 Tb431 2.428 . S
O473 C495 1.256 . S
O474 Tb431 2.308 1_556 S
O474 C494 1.266 . S
O475 Tb420 2.393 . S
O475 C494 1.248 . S
C476 O465 1.264 1_554 S
C476 O466 1.243 . S
C477 C480 1.399 . S
C477 C482 1.383 1_556 S
C477 C484 1.496 . S
C478 C479 1.399 1_554 S
C478 C482 1.389 . S
C479 C478 1.399 1_556 S
C479 C481 1.380 . S
C479 H496 0.929 . S
C480 C477 1.399 . S
C480 C481 1.392 . S
C480 H497 0.929 . S
C481 C479 1.380 . S
C481 C480 1.392 . S
C481 H498 0.929 . S
C482 C477 1.383 1_554 S
C482 C478 1.389 . S
C482 H499 0.931 . S
C483 O468 1.266 . S
C483 O469 1.248 . S
C484 Tb420 2.802 . S
C484 O464 1.264 1_556 S
C484 O467 1.256 . S
C484 C477 1.496 . S
C485 C452 1.448 . S
C485 H462 0.930 . S
C485 C486 1.328 . S
C486 C457 1.427 . S
C486 H463 0.929 . S
C486 C485 1.328 . S
C487 O471 1.264 . S
C487 O472 1.248 . S
C488 C491 1.399 . S
C488 C492 1.383 1_554 S
C488 C495 1.496 . S
C489 C490 1.399 1_556 S
C489 C492 1.389 . S
C490 C489 1.399 1_554 S
C490 C493 1.380 . S
C490 H500 0.929 . S
C491 C488 1.399 . S
C491 C493 1.392 . S
C491 H501 0.929 . S
C492 C488 1.383 1_556 S
C492 C489 1.389 . S
C492 H502 0.931 . S
C493 C490 1.380 . S
C493 C491 1.392 . S
C493 H503 0.929 . S
C494 O474 1.266 . S
C494 O475 1.248 . S
C495 Tb431 2.802 . S
C495 O470 1.266 . S
C495 O473 1.256 . S
C495 C488 1.496 . S
H496 C479 0.929 . S
H497 C480 0.929 . S
H498 C481 0.929 . S
H499 C482 0.931 . S
H500 C490 0.929 . S
H501 C491 0.929 . S
H502 C492 0.931 . S
H503 C493 0.929 . S
Tb504 N533 2.617 . S
Tb504 N539 2.572 . S
Tb504 O548 2.465 . S
Tb504 O549 2.387 . S
Tb504 O551 2.428 . S
Tb504 O552 2.308 . S
Tb504 O556 2.349 . S
Tb504 O559 2.393 . S
Tb504 C568 2.802 . S
C505 N506 1.379 . S
C505 C508 1.416 . S
C505 C512 1.424 . S
N506 C505 1.379 . S
N506 C509 1.334 . S
N506 Tb515 2.617 . S
C507 C509 1.390 . S
C507 C510 1.339 . S
C507 H527 0.930 . S
C508 C505 1.416 . S
C508 C510 1.416 . S
C508 C514 1.448 . S
C509 N506 1.334 . S
C509 C507 1.390 . S
C509 H520 0.930 . S
C510 C507 1.339 . S
C510 C508 1.416 . S
C510 H531 0.930 . S
C511 C512 1.413 . S
C511 C513 1.427 . S
C511 C517 1.416 . S
C512 C505 1.424 . S
C512 C511 1.413 . S
C512 N516 1.361 . S
C513 C511 1.427 . S
C513 C514 1.328 . S
C513 H528 0.929 . S
C514 C508 1.448 . S
C514 C513 1.328 . S
C514 H529 0.930 . S
Tb515 N506 2.617 . S
Tb515 N516 2.572 . S
Tb515 O550 2.349 . S
Tb515 O553 2.393 . S
Tb515 O554 2.465 . S
Tb515 O555 2.387 . S
Tb515 O557 2.428 . S
Tb515 O558 2.308 . S
Tb515 C579 2.802 . S
N516 C512 1.361 . S
N516 Tb515 2.572 . S
N516 C518 1.340 . S
C517 C511 1.416 . S
C517 C519 1.332 . S
C517 H525 0.931 . S
C518 N516 1.340 . S
C518 C519 1.407 . S
C518 H524 0.930 . S
C519 C517 1.332 . S
C519 C518 1.407 . S
C519 H521 0.929 . S
H520 C509 0.930 . S
H521 C519 0.929 . S
H522 C537 0.930 . S
H523 C544 0.929 . S
H524 C518 0.930 . S
H525 C517 0.931 . S
H526 C540 0.930 . S
H527 C507 0.930 . S
H528 C513 0.929 . S
H529 C514 0.930 . S
H530 C535 0.930 . S
H531 C510 0.930 . S
H532 C543 0.931 . S
N533 Tb504 2.617 . S
N533 C534 1.379 . S
N533 C537 1.334 . S
C534 N533 1.379 . S
C534 C536 1.416 . S
C534 C542 1.424 . S
C535 H530 0.930 . S
C535 C537 1.390 . S
C535 C538 1.339 . S
C536 C534 1.416 . S
C536 C538 1.416 . S
C536 C569 1.448 . S
C537 H522 0.930 . S
C537 N533 1.334 . S
C537 C535 1.390 . S
C538 C535 1.339 . S
C538 C536 1.416 . S
C538 H545 0.930 . S
N539 Tb504 2.572 . S
N539 C540 1.340 . S
N539 C542 1.361 . S
C540 H526 0.930 . S
C540 N539 1.340 . S
C540 C544 1.407 . S
C541 C542 1.413 . S
C541 C543 1.416 . S
C541 C570 1.427 . S
C542 C534 1.424 . S
C542 N539 1.361 . S
C542 C541 1.413 . S
C543 H532 0.931 . S
C543 C541 1.416 . S
C543 C544 1.332 . S
C544 H523 0.929 . S
C544 C540 1.407 . S
C544 C543 1.332 . S
H545 C538 0.930 . S
H546 C569 0.930 . S
H547 C570 0.929 . S
O548 Tb504 2.465 . S
O548 C568 1.264 . S
O549 Tb504 2.387 . S
O549 C560 1.264 . S
O550 Tb515 2.349 . S
O550 C560 1.243 . S
O551 Tb504 2.428 . S
O551 C568 1.256 . S
O552 Tb504 2.308 . S
O552 C567 1.266 . S
O553 Tb515 2.393 . S
O553 C567 1.248 . S
O554 Tb515 2.465 . S
O554 C579 1.264 . S
O555 Tb515 2.387 . S
O555 C571 1.264 . S
O556 Tb504 2.349 . S
O556 C571 1.243 . S
O557 Tb515 2.428 . S
O557 C579 1.256 . S
O558 Tb515 2.308 . S
O558 C578 1.266 . S
O559 Tb504 2.393 . S
O559 C578 1.248 . S
C560 O549 1.264 . S
C560 O550 1.243 . S
C561 C564 1.399 . S
C561 C566 1.383 . S
C561 C568 1.496 . S
C562 C563 1.399 . S
C562 C566 1.389 . S
C563 C562 1.399 . S
C563 C565 1.380 . S
C563 H580 0.929 . S
C564 C561 1.399 . S
C564 C565 1.392 . S
C564 H581 0.929 . S
C565 C563 1.380 . S
C565 C564 1.392 . S
C565 H582 0.929 . S
C566 C561 1.383 . S
C566 C562 1.389 . S
C566 H583 0.931 . S
C567 O552 1.266 . S
C567 O553 1.248 . S
C568 Tb504 2.802 . S
C568 O548 1.264 . S
C568 O551 1.256 . S
C568 C561 1.496 . S
C569 C536 1.448 . S
C569 H546 0.930 . S
C569 C570 1.328 . S
C570 C541 1.427 . S
C570 H547 0.929 . S
C570 C569 1.328 . S
C571 O555 1.264 . S
C571 O556 1.243 . S
C572 C575 1.399 . S
C572 C576 1.383 . S
C572 C579 1.496 . S
C573 C574 1.399 . S
C573 C576 1.389 . S
C574 C573 1.399 . S
C574 C577 1.380 . S
C574 H584 0.929 . S
C575 C572 1.399 . S
C575 C577 1.392 . S
C575 H585 0.929 . S
C576 C572 1.383 . S
C576 C573 1.389 . S
C576 H586 0.931 . S
C577 C574 1.380 . S
C577 C575 1.392 . S
C577 H587 0.929 . S
C578 O558 1.266 . S
C578 O559 1.248 . S
C579 Tb515 2.802 . S
C579 O554 1.264 . S
C579 O557 1.256 . S
C579 C572 1.496 . S
H580 C563 0.929 . S
H581 C564 0.929 . S
H582 C565 0.929 . S
H583 C566 0.931 . S
H584 C574 0.929 . S
H585 C575 0.929 . S
H586 C576 0.931 . S
H587 C577 0.929 . S
Tb588 N617 2.617 . S
Tb588 N623 2.572 . S
Tb588 O632 2.465 . S
Tb588 O633 2.387 . S
Tb588 O635 2.428 . S
Tb588 O636 2.308 . S
Tb588 O640 2.349 . S
Tb588 O643 2.393 . S
Tb588 C652 2.802 . S
C589 N590 1.379 . S
C589 C592 1.416 . S
C589 C596 1.424 . S
N590 C589 1.379 . S
N590 C593 1.334 . S
N590 Tb599 2.617 . S
C591 C593 1.390 . S
C591 C594 1.339 . S
C591 H611 0.930 . S
C592 C589 1.416 . S
C592 C594 1.416 . S
C592 C598 1.448 . S
C593 N590 1.334 . S
C593 C591 1.390 . S
C593 H604 0.930 . S
C594 C591 1.339 . S
C594 C592 1.416 . S
C594 H615 0.930 . S
C595 C596 1.413 . S
C595 C597 1.427 . S
C595 C601 1.416 . S
C596 C589 1.424 . S
C596 C595 1.413 . S
C596 N600 1.361 . S
C597 C595 1.427 . S
C597 C598 1.328 . S
C597 H612 0.929 . S
C598 C592 1.448 . S
C598 C597 1.328 . S
C598 H613 0.930 . S
Tb599 N590 2.617 . S
Tb599 N600 2.572 . S
Tb599 O634 2.349 . S
Tb599 O637 2.393 . S
Tb599 O638 2.465 . S
Tb599 O639 2.387 . S
Tb599 O641 2.428 . S
Tb599 O642 2.308 . S
Tb599 C663 2.802 . S
N600 C596 1.361 . S
N600 Tb599 2.572 . S
N600 C602 1.340 . S
C601 C595 1.416 . S
C601 C603 1.332 . S
C601 H609 0.931 . S
C602 N600 1.340 . S
C602 C603 1.407 . S
C602 H608 0.930 . S
C603 C601 1.332 . S
C603 C602 1.407 . S
C603 H605 0.929 . S
H604 C593 0.930 . S
H605 C603 0.929 . S
H606 C621 0.930 . S
H607 C628 0.929 . S
H608 C602 0.930 . S
H609 C601 0.931 . S
H610 C624 0.930 . S
H611 C591 0.930 . S
H612 C597 0.929 . S
H613 C598 0.930 . S
H614 C619 0.930 . S
H615 C594 0.930 . S
H616 C627 0.931 . S
N617 Tb588 2.617 . S
N617 C618 1.379 . S
N617 C621 1.334 . S
C618 N617 1.379 . S
C618 C620 1.416 . S
C618 C626 1.424 . S
C619 H614 0.930 . S
C619 C621 1.390 . S
C619 C622 1.339 . S
C620 C618 1.416 . S
C620 C622 1.416 . S
C620 C653 1.448 . S
C621 H606 0.930 . S
C621 N617 1.334 . S
C621 C619 1.390 . S
C622 C619 1.339 . S
C622 C620 1.416 . S
C622 H629 0.930 . S
N623 Tb588 2.572 . S
N623 C624 1.340 . S
N623 C626 1.361 . S
C624 H610 0.930 . S
C624 N623 1.340 . S
C624 C628 1.407 . S
C625 C626 1.413 . S
C625 C627 1.416 . S
C625 C654 1.427 . S
C626 C618 1.424 . S
C626 N623 1.361 . S
C626 C625 1.413 . S
C627 H616 0.931 . S
C627 C625 1.416 . S
C627 C628 1.332 . S
C628 H607 0.929 . S
C628 C624 1.407 . S
C628 C627 1.332 . S
H629 C622 0.930 . S
H630 C653 0.930 . S
H631 C654 0.929 . S
O632 Tb588 2.465 . S
O632 C652 1.264 . S
O633 Tb588 2.387 . S
O633 C644 1.264 . S
O634 Tb599 2.349 . S
O634 C644 1.243 . S
O635 Tb588 2.428 . S
O635 C652 1.256 . S
O636 Tb588 2.308 . S
O636 C651 1.266 . S
O637 Tb599 2.393 . S
O637 C651 1.248 . S
O638 Tb599 2.465 . S
O638 C663 1.264 . S
O639 Tb599 2.387 . S
O639 C655 1.264 . S
O640 Tb588 2.349 . S
O640 C655 1.243 . S
O641 Tb599 2.428 . S
O641 C663 1.256 . S
O642 Tb599 2.308 . S
O642 C662 1.266 . S
O643 Tb588 2.393 . S
O643 C662 1.248 . S
C644 O633 1.264 . S
C644 O634 1.243 . S
C645 C648 1.399 . S
C645 C650 1.383 . S
C645 C652 1.496 . S
C646 C647 1.399 . S
C646 C650 1.389 . S
C647 C646 1.399 . S
C647 C649 1.380 . S
C647 H664 0.929 . S
C648 C645 1.399 . S
C648 C649 1.392 . S
C648 H665 0.929 . S
C649 C647 1.380 . S
C649 C648 1.392 . S
C649 H666 0.929 . S
C650 C645 1.383 . S
C650 C646 1.389 . S
C650 H667 0.931 . S
C651 O636 1.266 . S
C651 O637 1.248 . S
C652 Tb588 2.802 . S
C652 O632 1.264 . S
C652 O635 1.256 . S
C652 C645 1.496 . S
C653 C620 1.448 . S
C653 H630 0.930 . S
C653 C654 1.328 . S
C654 C625 1.427 . S
C654 H631 0.929 . S
C654 C653 1.328 . S
C655 O639 1.264 . S
C655 O640 1.243 . S
C656 C659 1.399 . S
C656 C660 1.383 . S
C656 C663 1.496 . S
C657 C658 1.399 . S
C657 C660 1.389 . S
C658 C657 1.399 . S
C658 C661 1.380 . S
C658 H668 0.929 . S
C659 C656 1.399 . S
C659 C661 1.392 . S
C659 H669 0.929 . S
C660 C656 1.383 . S
C660 C657 1.389 . S
C660 H670 0.931 . S
C661 C658 1.380 . S
C661 C659 1.392 . S
C661 H671 0.929 . S
C662 O642 1.266 . S
C662 O643 1.248 . S
C663 Tb599 2.802 . S
C663 O638 1.264 . S
C663 O641 1.256 . S
C663 C656 1.496 . S
H664 C647 0.929 . S
H665 C648 0.929 . S
H666 C649 0.929 . S
H667 C650 0.931 . S
H668 C658 0.929 . S
H669 C659 0.929 . S
H670 C660 0.931 . S
H671 C661 0.929 . S
H672 C680 0.950 . S
H673 C685 0.950 . S
H674 C682 0.950 . S
H675 C684 0.950 . S
H676 C686 0.950 . S
H677 C688 0.950 . S
H678 C690 0.950 . S
H679 C691 0.950 . S
C680 H672 0.950 . S
C680 C681 1.386 . S
C680 C682 1.391 . S
C681 C680 1.386 . S
C681 C685 1.393 1_554 S
C682 H674 0.950 . S
C682 C680 1.391 . S
C682 C683 1.400 . S
C683 C682 1.400 . S
C683 C684 1.398 1_554 S
C683 C689 1.491 . S
C684 H675 0.950 . S
C684 C683 1.398 1_556 S
C684 C685 1.391 . S
C685 H673 0.950 . S
C685 C681 1.393 1_556 S
C685 C684 1.391 . S
C686 H676 0.950 . S
C686 C687 1.386 1_556 S
C686 C688 1.391 . S
C687 C686 1.386 1_554 S
C687 C691 1.393 . S
C688 H677 0.950 . S
C688 C686 1.391 . S
C688 C689 1.400 1_556 S
C689 C683 1.491 . S
C689 C688 1.400 1_554 S
C689 C690 1.398 . S
C690 H678 0.950 . S
C690 C689 1.398 . S
C690 C691 1.391 . S
C691 H679 0.950 . S
C691 C687 1.393 . S
C691 C690 1.391 . S
H692 C700 0.950 . S
H693 C705 0.950 . S
H694 C702 0.950 . S
H695 C704 0.950 . S
H696 C706 0.950 . S
H697 C708 0.950 . S
H698 C710 0.950 . S
H699 C711 0.950 . S
C700 H692 0.950 . S
C700 C701 1.386 1_556 S
C700 C702 1.391 . S
C701 C700 1.386 1_554 S
C701 C705 1.393 . S
C702 H694 0.950 . S
C702 C700 1.391 . S
C702 C703 1.400 1_556 S
C703 C702 1.400 1_554 S
C703 C704 1.398 . S
C703 C709 1.491 . S
C704 H695 0.950 . S
C704 C703 1.398 . S
C704 C705 1.391 . S
C705 H693 0.950 . S
C705 C701 1.393 . S
C705 C704 1.391 . S
C706 H696 0.950 . S
C706 C707 1.386 . S
C706 C708 1.391 . S
C707 C706 1.386 . S
C707 C711 1.393 1_554 S
C708 H697 0.950 . S
C708 C706 1.391 . S
C708 C709 1.400 . S
C709 C703 1.491 . S
C709 C708 1.400 . S
C709 C710 1.398 1_554 S
C710 H698 0.950 . S
C710 C709 1.398 1_556 S
C710 C711 1.391 . S
C711 H699 0.950 . S
C711 C707 1.393 1_556 S
C711 C710 1.391 . S
H712 C720 0.950 . S
H713 C725 0.950 . S
H714 C722 0.950 . S
H715 C724 0.950 . S
H716 C726 0.950 . S
H717 C728 0.950 . S
H718 C730 0.950 . S
H719 C731 0.950 . S
C720 H712 0.950 . S
C720 C721 1.386 . S
C720 C722 1.391 . S
C721 C720 1.386 . S
C721 C725 1.393 . S
C722 H714 0.950 . S
C722 C720 1.391 . S
C722 C723 1.400 . S
C723 C722 1.400 . S
C723 C724 1.398 . S
C723 C729 1.491 . S
C724 H715 0.950 . S
C724 C723 1.398 . S
C724 C725 1.391 . S
C725 H713 0.950 . S
C725 C721 1.393 . S
C725 C724 1.391 . S
C726 H716 0.950 . S
C726 C727 1.386 . S
C726 C728 1.391 . S
C727 C726 1.386 . S
C727 C731 1.393 . S
C728 H717 0.950 . S
C728 C726 1.391 . S
C728 C729 1.400 . S
C729 C723 1.491 . S
C729 C728 1.400 . S
C729 C730 1.398 . S
C730 H718 0.950 . S
C730 C729 1.398 . S
C730 C731 1.391 . S
C731 H719 0.950 . S
C731 C727 1.393 . S
C731 C730 1.391 . S
H732 C740 0.950 . S
H733 C745 0.950 . S
H734 C742 0.950 . S
H735 C744 0.950 . S
H736 C746 0.950 . S
H737 C748 0.950 . S
H738 C750 0.950 . S
H739 C751 0.950 . S
C740 H732 0.950 . S
C740 C741 1.386 . S
C740 C742 1.391 . S
C741 C740 1.386 . S
C741 C745 1.393 . S
C742 H734 0.950 . S
C742 C740 1.391 . S
C742 C743 1.400 . S
C743 C742 1.400 . S
C743 C744 1.398 . S
C743 C749 1.491 . S
C744 H735 0.950 . S
C744 C743 1.398 . S
C744 C745 1.391 . S
C745 H733 0.950 . S
C745 C741 1.393 . S
C745 C744 1.391 . S
C746 H736 0.950 . S
C746 C747 1.386 . S
C746 C748 1.391 . S
C747 C746 1.386 . S
C747 C751 1.393 . S
C748 H737 0.950 . S
C748 C746 1.391 . S
C748 C749 1.400 . S
C749 C743 1.491 . S
C749 C748 1.400 . S
C749 C750 1.398 . S
C750 H738 0.950 . S
C750 C749 1.398 . S
C750 C751 1.391 . S
C751 H739 0.950 . S
C751 C747 1.393 . S
C751 C750 1.391 . S
H752 C760 0.950 . S
H753 C765 0.950 . S
H754 C762 0.950 . S
H755 C764 0.950 1_455 S
H756 C766 0.950 . S
H757 C768 0.950 . S
H758 C770 0.950 . S
H759 C771 0.950 . S
C760 H752 0.950 . S
C760 C761 1.386 1_556 S
C760 C762 1.391 . S
C761 C760 1.386 1_554 S
C761 C765 1.393 . S
C762 H754 0.950 . S
C762 C760 1.391 . S
C762 C763 1.400 1_656 S
C763 C762 1.400 1_454 S
C763 C764 1.398 1_455 S
C763 C769 1.491 . S
C764 H755 0.950 1_655 S
C764 C763 1.398 1_655 S
C764 C765 1.391 . S
C765 H753 0.950 . S
C765 C761 1.393 . S
C765 C764 1.391 . S
C766 H756 0.950 . S
C766 C767 1.386 . S
C766 C768 1.391 . S
C767 C766 1.386 . S
C767 C771 1.393 1_554 S
C768 H757 0.950 . S
C768 C766 1.391 . S
C768 C769 1.400 . S
C769 C763 1.491 . S
C769 C768 1.400 . S
C769 C770 1.398 1_554 S
C770 H758 0.950 . S
C770 C769 1.398 1_556 S
C770 C771 1.391 . S
C771 H759 0.950 . S
C771 C767 1.393 1_556 S
C771 C770 1.391 . S
H772 C780 0.950 . S
H773 C785 0.950 . S
H774 C782 0.950 1_655 S
H775 C784 0.950 . S
H776 C786 0.950 . S
H777 C788 0.950 . S
H778 C790 0.950 . S
H779 C791 0.950 . S
C780 H772 0.950 . S
C780 C781 1.386 1_556 S
C780 C782 1.391 . S
C781 C780 1.386 1_554 S
C781 C785 1.393 . S
C782 H774 0.950 1_455 S
C782 C780 1.391 . S
C782 C783 1.400 1_456 S
C783 C782 1.400 1_654 S
C783 C784 1.398 1_655 S
C783 C789 1.491 . S
C784 H775 0.950 . S
C784 C783 1.398 1_455 S
C784 C785 1.391 . S
C785 H773 0.950 . S
C785 C781 1.393 . S
C785 C784 1.391 . S
C786 H776 0.950 . S
C786 C787 1.386 . S
C786 C788 1.391 . S
C787 C786 1.386 . S
C787 C791 1.393 1_554 S
C788 H777 0.950 . S
C788 C786 1.391 . S
C788 C789 1.400 . S
C789 C783 1.491 . S
C789 C788 1.400 . S
C789 C790 1.398 1_554 S
C790 H778 0.950 . S
C790 C789 1.398 1_556 S
C790 C791 1.391 . S
C791 H779 0.950 . S
C791 C787 1.393 1_556 S
C791 C790 1.391 . S
H792 C800 0.950 . S
H793 C805 0.950 . S
H794 C802 0.950 . S
H795 C804 0.950 . S
H796 C806 0.950 . S
H797 C808 0.950 1_455 S
H798 C810 0.950 . S
H799 C811 0.950 . S
C800 H792 0.950 . S
C800 C801 1.386 . S
C800 C802 1.391 . S
C801 C800 1.386 . S
C801 C805 1.393 . S
C802 H794 0.950 . S
C802 C800 1.391 . S
C802 C803 1.400 . S
C803 C802 1.400 . S
C803 C804 1.398 . S
C803 C809 1.491 . S
C804 H795 0.950 . S
C804 C803 1.398 . S
C804 C805 1.391 . S
C805 H793 0.950 . S
C805 C801 1.393 . S
C805 C804 1.391 . S
C806 H796 0.950 . S
C806 C807 1.386 . S
C806 C808 1.391 . S
C807 C806 1.386 . S
C807 C811 1.393 . S
C808 H797 0.950 1_655 S
C808 C806 1.391 . S
C808 C809 1.400 1_655 S
C809 C803 1.491 . S
C809 C808 1.400 1_455 S
C809 C810 1.398 1_455 S
C810 H798 0.950 . S
C810 C809 1.398 1_655 S
C810 C811 1.391 . S
C811 H799 0.950 . S
C811 C807 1.393 . S
C811 C810 1.391 . S
H812 C820 0.950 . S
H813 C825 0.950 . S
H814 C822 0.950 . S
H815 C824 0.950 . S
H816 C826 0.950 . S
H817 C828 0.950 . S
H818 C830 0.950 1_655 S
H819 C831 0.950 . S
C820 H812 0.950 . S
C820 C821 1.386 . S
C820 C822 1.391 . S
C821 C820 1.386 . S
C821 C825 1.393 . S
C822 H814 0.950 . S
C822 C820 1.391 . S
C822 C823 1.400 . S
C823 C822 1.400 . S
C823 C824 1.398 . S
C823 C829 1.491 . S
C824 H815 0.950 . S
C824 C823 1.398 . S
C824 C825 1.391 . S
C825 H813 0.950 . S
C825 C821 1.393 . S
C825 C824 1.391 . S
C826 H816 0.950 . S
C826 C827 1.386 . S
C826 C828 1.391 . S
C827 C826 1.386 . S
C827 C831 1.393 . S
C828 H817 0.950 . S
C828 C826 1.391 . S
C828 C829 1.400 1_455 S
C829 C823 1.491 . S
C829 C828 1.400 1_655 S
C829 C830 1.398 1_655 S
C830 H818 0.950 1_455 S
C830 C829 1.398 1_455 S
C830 C831 1.391 . S
C831 H819 0.950 . S
C831 C827 1.393 . S
C831 C830 1.391 . S
H832 C840 0.950 . S
H833 C845 0.950 . S
H834 C842 0.950 . S
H835 C844 0.950 . S
H836 C846 0.950 . S
H837 C848 0.950 . S
H838 C850 0.950 . S
H839 C851 0.950 . S
C840 H832 0.950 . S
C840 C841 1.386 . S
C840 C842 1.391 . S
C841 C840 1.386 . S
C841 C845 1.393 1_455 S
C842 H834 0.950 . S
C842 C840 1.391 . S
C842 C843 1.400 . S
C843 C842 1.400 . S
C843 C844 1.398 1_455 S
C843 C849 1.491 1_455 S
C844 H835 0.950 . S
C844 C843 1.398 1_655 S
C844 C845 1.391 . S
C845 H833 0.950 . S
C845 C841 1.393 1_655 S
C845 C844 1.391 . S
C846 H836 0.950 . S
C846 C847 1.386 . S
C846 C848 1.391 . S
C847 C846 1.386 . S
C847 C851 1.393 1_655 S
C848 H837 0.950 . S
C848 C846 1.391 . S
C848 C849 1.400 . S
C849 C843 1.491 1_655 S
C849 C848 1.400 . S
C849 C850 1.398 1_655 S
C850 H838 0.950 . S
C850 C849 1.398 1_455 S
C850 C851 1.391 . S
C851 H839 0.950 . S
C851 C847 1.393 1_455 S
C851 C850 1.391 . S
H852 C860 0.950 . S
H853 C865 0.950 . S
H854 C862 0.950 . S
H855 C864 0.950 . S
H856 C866 0.950 . S
H857 C868 0.950 . S
H858 C870 0.950 . S
H859 C871 0.950 . S
C860 H852 0.950 . S
C860 C861 1.386 . S
C860 C862 1.391 . S
C861 C860 1.386 . S
C861 C865 1.393 . S
C862 H854 0.950 . S
C862 C860 1.391 . S
C862 C863 1.400 . S
C863 C862 1.400 . S
C863 C864 1.398 1_455 S
C863 C869 1.491 1_455 S
C864 H855 0.950 . S
C864 C863 1.398 1_655 S
C864 C865 1.391 1_655 S
C865 H853 0.950 . S
C865 C861 1.393 . S
C865 C864 1.391 1_455 S
C866 H856 0.950 . S
C866 C867 1.386 . S
C866 C868 1.391 . S
C867 C866 1.386 . S
C867 C871 1.393 . S
C868 H857 0.950 . S
C868 C866 1.391 . S
C868 C869 1.400 . S
C869 C863 1.491 1_655 S
C869 C868 1.400 . S
C869 C870 1.398 1_655 S
C870 H858 0.950 . S
C870 C869 1.398 1_455 S
C870 C871 1.391 1_455 S
C871 H859 0.950 . S
C871 C867 1.393 . S
C871 C870 1.391 1_655 S
H872 C880 0.950 . S
H873 C885 0.950 . S
H874 C882 0.950 . S
H875 C884 0.950 1_545 S
H876 C886 0.950 . S
H877 C888 0.950 . S
H878 C890 0.950 . S
H879 C891 0.950 1_556 S
C880 H872 0.950 . S
C880 C881 1.386 . S
C880 C882 1.391 . S
C881 C880 1.386 . S
C881 C885 1.393 . S
C882 H874 0.950 . S
C882 C880 1.391 . S
C882 C883 1.400 . S
C883 C882 1.400 . S
C883 C884 1.398 . S
C883 C889 1.491 1_565 S
C884 H875 0.950 1_565 S
C884 C883 1.398 . S
C884 C885 1.391 . S
C885 H873 0.950 . S
C885 C881 1.393 . S
C885 C884 1.391 . S
C886 H876 0.950 . S
C886 C887 1.386 . S
C886 C888 1.391 . S
C887 C886 1.386 . S
C887 C891 1.393 . S
C888 H877 0.950 . S
C888 C886 1.391 . S
C888 C889 1.400 . S
C889 C883 1.491 1_545 S
C889 C888 1.400 . S
C889 C890 1.398 . S
C890 H878 0.950 . S
C890 C889 1.398 . S
C890 C891 1.391 . S
C891 H879 0.950 1_554 S
C891 C887 1.393 . S
C891 C890 1.391 . S
H892 C900 0.950 . S
H893 C905 0.950 . S
H894 C902 0.950 . S
H895 C904 0.950 . S
H896 C906 0.950 . S
H897 C908 0.950 . S
H898 C910 0.950 . S
H899 C911 0.950 . S
C900 H892 0.950 . S
C900 C901 1.386 . S
C900 C902 1.391 . S
C901 C900 1.386 . S
C901 C905 1.393 . S
C902 H894 0.950 . S
C902 C900 1.391 . S
C902 C903 1.400 . S
C903 C902 1.400 . S
C903 C904 1.398 . S
C903 C909 1.491 1_545 S
C904 H895 0.950 . S
C904 C903 1.398 . S
C904 C905 1.391 . S
C905 H893 0.950 . S
C905 C901 1.393 . S
C905 C904 1.391 . S
C906 H896 0.950 . S
C906 C907 1.386 . S
C906 C908 1.391 . S
C907 C906 1.386 . S
C907 C911 1.393 . S
C908 H897 0.950 . S
C908 C906 1.391 . S
C908 C909 1.400 . S
C909 C903 1.491 1_565 S
C909 C908 1.400 . S
C909 C910 1.398 . S
C910 H898 0.950 . S
C910 C909 1.398 . S
C910 C911 1.391 . S
C911 H899 0.950 . S
C911 C907 1.393 . S
C911 C910 1.391 . S
H912 C920 0.950 . S
H913 C925 0.950 . S
H914 C922 0.950 . S
H915 C924 0.950 1_554 S
H916 C926 0.950 1_554 S
H917 C928 0.950 1_554 S
H918 C930 0.950 . S
H919 C931 0.950 . S
C920 H912 0.950 . S
C920 C921 1.386 . S
C920 C922 1.391 . S
C921 C920 1.386 . S
C921 C925 1.393 . S
C922 H914 0.950 . S
C922 C920 1.391 . S
C922 C923 1.400 . S
C923 C922 1.400 . S
C923 C924 1.398 . S
C923 C929 1.491 . S
C924 H915 0.950 1_556 S
C924 C923 1.398 . S
C924 C925 1.391 . S
C925 H913 0.950 . S
C925 C921 1.393 . S
C925 C924 1.391 . S
C926 H916 0.950 1_556 S
C926 C927 1.386 . S
C926 C928 1.391 . S
C927 C926 1.386 . S
C927 C931 1.393 . S
C928 H917 0.950 1_556 S
C928 C926 1.391 . S
C928 C929 1.400 . S
C929 C923 1.491 . S
C929 C928 1.400 . S
C929 C930 1.398 . S
C930 H918 0.950 . S
C930 C929 1.398 . S
C930 C931 1.391 . S
C931 H919 0.950 . S
C931 C927 1.393 . S
C931 C930 1.391 . S
H932 C940 0.950 . S
H933 C945 0.950 . S
H934 C942 0.950 . S
H935 C944 0.950 . S
H936 C946 0.950 . S
H937 C948 0.950 . S
H938 C950 0.950 . S
H939 C951 0.950 . S
C940 H932 0.950 . S
C940 C941 1.386 . S
C940 C942 1.391 . S
C941 C940 1.386 . S
C941 C945 1.393 . S
C942 H934 0.950 . S
C942 C940 1.391 . S
C942 C943 1.400 . S
C943 C942 1.400 . S
C943 C944 1.398 . S
C943 C949 1.491 . S
C944 H935 0.950 . S
C944 C943 1.398 . S
C944 C945 1.391 . S
C945 H933 0.950 . S
C945 C941 1.393 . S
C945 C944 1.391 . S
C946 H936 0.950 . S
C946 C947 1.386 . S
C946 C948 1.391 . S
C947 C946 1.386 . S
C947 C951 1.393 . S
C948 H937 0.950 . S
C948 C946 1.391 . S
C948 C949 1.400 . S
C949 C943 1.491 . S
C949 C948 1.400 . S
C949 C950 1.398 . S
C950 H938 0.950 . S
C950 C949 1.398 . S
C950 C951 1.391 . S
C951 H939 0.950 . S
C951 C947 1.393 . S
C951 C950 1.391 . S
H952 C960 0.950 . S
H953 C965 0.950 . S
H954 C962 0.950 . S
H955 C964 0.950 . S
H956 C966 0.950 . S
H957 C968 0.950 . S
H958 C970 0.950 . S
H959 C971 0.950 . S
C960 H952 0.950 . S
C960 C961 1.386 . S
C960 C962 1.391 . S
C961 C960 1.386 . S
C961 C965 1.393 . S
C962 H954 0.950 . S
C962 C960 1.391 . S
C962 C963 1.400 . S
C963 C962 1.400 . S
C963 C964 1.398 . S
C963 C969 1.491 . S
C964 H955 0.950 . S
C964 C963 1.398 . S
C964 C965 1.391 . S
C965 H953 0.950 . S
C965 C961 1.393 . S
C965 C964 1.391 . S
C966 H956 0.950 . S
C966 C967 1.386 . S
C966 C968 1.391 . S
C967 C966 1.386 . S
C967 C971 1.393 . S
C968 H957 0.950 . S
C968 C966 1.391 . S
C968 C969 1.400 . S
C969 C963 1.491 . S
C969 C968 1.400 . S
C969 C970 1.398 . S
C970 H958 0.950 . S
C970 C969 1.398 . S
C970 C971 1.391 . S
C971 H959 0.950 . S
C971 C967 1.393 . S
C971 C970 1.391 . S
H972 C980 0.950 . S
H973 C985 0.950 . S
H974 C982 0.950 . S
H975 C984 0.950 . S
H976 C986 0.950 . S
H977 C988 0.950 . S
H978 C990 0.950 . S
H979 C991 0.950 . S
C980 H972 0.950 . S
C980 C981 1.386 . S
C980 C982 1.391 . S
C981 C980 1.386 . S
C981 C985 1.393 . S
C982 H974 0.950 . S
C982 C980 1.391 . S
C982 C983 1.400 . S
C983 C982 1.400 . S
C983 C984 1.398 . S
C983 C989 1.491 . S
C984 H975 0.950 . S
C984 C983 1.398 . S
C984 C985 1.391 . S
C985 H973 0.950 . S
C985 C981 1.393 . S
C985 C984 1.391 . S
C986 H976 0.950 . S
C986 C987 1.386 . S
C986 C988 1.391 . S
C987 C986 1.386 . S
C987 C991 1.393 . S
C988 H977 0.950 . S
C988 C986 1.391 . S
C988 C989 1.400 . S
C989 C983 1.491 . S
C989 C988 1.400 . S
C989 C990 1.398 . S
C990 H978 0.950 . S
C990 C989 1.398 . S
C990 C991 1.391 . S
C991 H979 0.950 . S
C991 C987 1.393 . S
C991 C990 1.391 . S
H992 C1000 0.950 . S
H993 C1005 0.950 . S
H994 C1002 0.950 . S
H995 C1004 0.950 . S
H996 C1006 0.950 . S
H997 C1008 0.950 . S
H998 C1010 0.950 . S
H999 C1011 0.950 . S
C1000 H992 0.950 . S
C1000 C1001 1.386 . S
C1000 C1002 1.391 . S
C1001 C1000 1.386 . S
C1001 C1005 1.393 1_455 S
C1002 H994 0.950 . S
C1002 C1000 1.391 . S
C1002 C1003 1.400 . S
C1003 C1002 1.400 . S
C1003 C1004 1.398 1_455 S
C1003 C1009 1.491 1_455 S
C1004 H995 0.950 . S
C1004 C1003 1.398 1_655 S
C1004 C1005 1.391 . S
C1005 H993 0.950 . S
C1005 C1001 1.393 1_655 S
C1005 C1004 1.391 . S
C1006 H996 0.950 . S
C1006 C1007 1.386 . S
C1006 C1008 1.391 . S
C1007 C1006 1.386 . S
C1007 C1011 1.393 1_655 S
C1008 H997 0.950 . S
C1008 C1006 1.391 . S
C1008 C1009 1.400 . S
C1009 C1003 1.491 1_655 S
C1009 C1008 1.400 . S
C1009 C1010 1.398 1_655 S
C1010 H998 0.950 . S
C1010 C1009 1.398 1_455 S
C1010 C1011 1.391 . S
C1011 H999 0.950 . S
C1011 C1007 1.393 1_455 S
C1011 C1010 1.391 . S
H1012 C1020 0.950 . S
H1013 C1025 0.950 . S
H1014 C1022 0.950 . S
H1015 C1024 0.950 . S
H1016 C1026 0.950 . S
H1017 C1028 0.950 . S
H1018 C1030 0.950 . S
H1019 C1031 0.950 . S
C1020 H1012 0.950 . S
C1020 C1021 1.386 1_455 S
C1020 C1022 1.391 . S
C1021 C1020 1.386 1_655 S
C1021 C1025 1.393 . S
C1022 H1014 0.950 . S
C1022 C1020 1.391 . S
C1022 C1023 1.400 1_455 S
C1023 C1022 1.400 1_655 S
C1023 C1024 1.398 . S
C1023 C1029 1.491 1_655 S
C1024 H1015 0.950 . S
C1024 C1023 1.398 . S
C1024 C1025 1.391 . S
C1025 H1013 0.950 . S
C1025 C1021 1.393 . S
C1025 C1024 1.391 . S
C1026 H1016 0.950 . S
C1026 C1027 1.386 1_655 S
C1026 C1028 1.391 . S
C1027 C1026 1.386 1_455 S
C1027 C1031 1.393 . S
C1028 H1017 0.950 . S
C1028 C1026 1.391 . S
C1028 C1029 1.400 1_655 S
C1029 C1023 1.491 1_455 S
C1029 C1028 1.400 1_455 S
C1029 C1030 1.398 . S
C1030 H1018 0.950 . S
C1030 C1029 1.398 . S
C1030 C1031 1.391 . S
C1031 H1019 0.950 . S
C1031 C1027 1.393 . S
C1031 C1030 1.391 . S
H1032 C1040 0.953 . S
H1033 C1045 0.950 . S
H1034 C1042 0.950 . S
H1035 C1044 0.950 . S
H1036 C1046 0.950 1_655 S
H1037 C1048 0.950 . S
H1038 C1050 0.950 . S
H1039 C1051 0.950 . S
C1040 H1032 0.953 . S
C1040 C1041 1.378 1_455 S
C1040 C1042 1.395 . S
C1041 C1040 1.378 1_655 S
C1041 C1045 1.393 . S
C1042 H1034 0.950 . S
C1042 C1040 1.395 . S
C1042 C1043 1.400 1_455 S
C1043 C1042 1.400 1_655 S
C1043 C1044 1.398 . S
C1043 C1049 1.491 1_655 S
C1044 H1035 0.950 . S
C1044 C1043 1.398 . S
C1044 C1045 1.391 . S
C1045 H1033 0.950 . S
C1045 C1041 1.393 . S
C1045 C1044 1.391 . S
C1046 H1036 0.950 1_455 S
C1046 C1047 1.386 . S
C1046 C1048 1.391 1_455 S
C1047 C1046 1.386 . S
C1047 C1051 1.393 . S
C1048 H1037 0.950 . S
C1048 C1046 1.391 1_655 S
C1048 C1049 1.400 1_655 S
C1049 C1043 1.491 1_455 S
C1049 C1048 1.400 1_455 S
C1049 C1050 1.398 . S
C1050 H1038 0.950 . S
C1050 C1049 1.398 . S
C1050 C1051 1.391 . S
C1051 H1039 0.950 . S
C1051 C1047 1.393 . S
C1051 C1050 1.391 . S
H1052 C1060 0.950 1_455 S
H1053 C1065 0.950 . S
H1054 C1062 0.950 . S
H1055 C1064 0.950 . S
H1056 C1066 0.950 1_655 S
H1057 C1068 0.950 . S
H1058 C1070 0.950 . S
H1059 C1071 0.950 . S
C1060 H1052 0.950 1_655 S
C1060 C1061 1.386 . S
C1060 C1062 1.391 1_655 S
C1061 C1060 1.386 . S
C1061 C1065 1.393 . S
C1062 H1054 0.950 . S
C1062 C1060 1.391 1_455 S
C1062 C1063 1.400 1_455 S
C1063 C1062 1.400 1_655 S
C1063 C1064 1.398 . S
C1063 C1069 1.491 1_655 S
C1064 H1055 0.950 . S
C1064 C1063 1.398 . S
C1064 C1065 1.391 . S
C1065 H1053 0.950 . S
C1065 C1061 1.393 . S
C1065 C1064 1.391 . S
C1066 H1056 0.950 1_455 S
C1066 C1067 1.386 . S
C1066 C1068 1.391 1_455 S
C1067 C1066 1.386 . S
C1067 C1071 1.393 . S
C1068 H1057 0.950 . S
C1068 C1066 1.391 1_655 S
C1068 C1069 1.400 1_655 S
C1069 C1063 1.491 1_455 S
C1069 C1068 1.400 1_455 S
C1069 C1070 1.398 . S
C1070 H1058 0.950 . S
C1070 C1069 1.398 . S
C1070 C1071 1.391 . S
C1071 H1059 0.950 . S
C1071 C1067 1.393 . S
C1071 C1070 1.391 . S
H1072 C1080 0.950 . S
H1073 C1085 0.950 . S
H1074 C1082 0.950 . S
H1075 C1084 0.950 . S
H1076 C1086 0.950 . S
H1077 C1088 0.950 . S
H1078 C1090 0.950 . S
H1079 C1091 0.950 . S
C1080 H1072 0.950 . S
C1080 C1081 1.386 . S
C1080 C1082 1.391 . S
C1081 C1080 1.386 . S
C1081 C1085 1.393 . S
C1082 H1074 0.950 . S
C1082 C1080 1.391 . S
C1082 C1083 1.400 . S
C1083 C1082 1.400 . S
C1083 C1084 1.398 . S
C1083 C1089 1.491 . S
C1084 H1075 0.950 . S
C1084 C1083 1.398 . S
C1084 C1085 1.391 . S
C1085 H1073 0.950 . S
C1085 C1081 1.393 . S
C1085 C1084 1.391 . S
C1086 H1076 0.950 . S
C1086 C1087 1.386 . S
C1086 C1088 1.391 . S
C1087 C1086 1.386 . S
C1087 C1091 1.393 . S
C1088 H1077 0.950 . S
C1088 C1086 1.391 . S
C1088 C1089 1.400 . S
C1089 C1083 1.491 . S
C1089 C1088 1.400 . S
C1089 C1090 1.398 . S
C1090 H1078 0.950 . S
C1090 C1089 1.398 . S
C1090 C1091 1.391 . S
C1091 H1079 0.950 . S
C1091 C1087 1.393 . S
C1091 C1090 1.391 . S
H1092 C1100 0.950 . S
H1093 C1105 0.950 . S
H1094 C1102 0.950 . S
H1095 C1104 0.950 . S
H1096 C1106 0.950 . S
H1097 C1108 0.950 . S
H1098 C1110 0.950 . S
H1099 C1111 0.950 . S
C1100 H1092 0.950 . S
C1100 C1101 1.386 . S
C1100 C1102 1.391 . S
C1101 C1100 1.386 . S
C1101 C1105 1.393 . S
C1102 H1094 0.950 . S
C1102 C1100 1.391 . S
C1102 C1103 1.400 . S
C1103 C1102 1.400 . S
C1103 C1104 1.398 . S
C1103 C1109 1.491 . S
C1104 H1095 0.950 . S
C1104 C1103 1.398 . S
C1104 C1105 1.391 . S
C1105 H1093 0.950 . S
C1105 C1101 1.393 . S
C1105 C1104 1.391 . S
C1106 H1096 0.950 . S
C1106 C1107 1.386 . S
C1106 C1108 1.391 . S
C1107 C1106 1.386 . S
C1107 C1111 1.393 . S
C1108 H1097 0.950 . S
C1108 C1106 1.391 . S
C1108 C1109 1.400 . S
C1109 C1103 1.491 . S
C1109 C1108 1.400 . S
C1109 C1110 1.398 . S
C1110 H1098 0.950 . S
C1110 C1109 1.398 . S
C1110 C1111 1.391 . S
C1111 H1099 0.950 . S
C1111 C1107 1.393 . S
C1111 C1110 1.391 . S
H1112 C1120 0.950 . S
H1113 C1125 0.950 . S
H1114 C1122 0.950 . S
H1115 C1124 0.950 . S
H1116 C1126 0.950 . S
H1117 C1128 0.950 . S
H1118 C1130 0.950 . S
H1119 C1131 0.950 . S
C1120 H1112 0.950 . S
C1120 C1121 1.386 . S
C1120 C1122 1.391 . S
C1121 C1120 1.386 . S
C1121 C1125 1.393 . S
C1122 H1114 0.950 . S
C1122 C1120 1.391 . S
C1122 C1123 1.400 . S
C1123 C1122 1.400 . S
C1123 C1124 1.398 . S
C1123 C1129 1.491 . S
C1124 H1115 0.950 . S
C1124 C1123 1.398 . S
C1124 C1125 1.391 . S
C1125 H1113 0.950 . S
C1125 C1121 1.393 . S
C1125 C1124 1.391 . S
C1126 H1116 0.950 . S
C1126 C1127 1.386 . S
C1126 C1128 1.391 . S
C1127 C1126 1.386 . S
C1127 C1131 1.393 . S
C1128 H1117 0.950 . S
C1128 C1126 1.391 . S
C1128 C1129 1.400 . S
C1129 C1123 1.491 . S
C1129 C1128 1.400 . S
C1129 C1130 1.398 . S
C1130 H1118 0.950 . S
C1130 C1129 1.398 . S
C1130 C1131 1.391 . S
C1131 H1119 0.950 . S
C1131 C1127 1.393 . S
C1131 C1130 1.391 . S
H1132 C1140 0.950 . S
H1133 C1145 0.950 . S
H1134 C1142 0.950 . S
H1135 C1144 0.950 . S
H1136 C1146 0.950 . S
H1137 C1148 0.950 . S
H1138 C1150 0.950 . S
H1139 C1151 0.950 . S
C1140 H1132 0.950 . S
C1140 C1141 1.386 . S
C1140 C1142 1.391 . S
C1141 C1140 1.386 . S
C1141 C1145 1.393 . S
C1142 H1134 0.950 . S
C1142 C1140 1.391 . S
C1142 C1143 1.400 . S
C1143 C1142 1.400 . S
C1143 C1144 1.398 . S
C1143 C1149 1.491 . S
C1144 H1135 0.950 . S
C1144 C1143 1.398 . S
C1144 C1145 1.391 . S
C1145 H1133 0.950 . S
C1145 C1141 1.393 . S
C1145 C1144 1.391 . S
C1146 H1136 0.950 . S
C1146 C1147 1.386 . S
C1146 C1148 1.391 . S
C1147 C1146 1.386 . S
C1147 C1151 1.393 . S
C1148 H1137 0.950 . S
C1148 C1146 1.391 . S
C1148 C1149 1.400 . S
C1149 C1143 1.491 . S
C1149 C1148 1.400 . S
C1149 C1150 1.398 . S
C1150 H1138 0.950 . S
C1150 C1149 1.398 . S
C1150 C1151 1.391 . S
C1151 H1139 0.950 . S
C1151 C1147 1.393 . S
C1151 C1150 1.391 . S
C681 C56 1.967 . S
C687 C67 1.967 . S
C701 C151 1.962 . S
C707 C140 1.962 . S
C721 C224 1.950 . S
C727 C235 1.950 . S
C741 C308 1.952 . S
C747 C319 1.952 . S
C761 C392 1.959 . S
C767 C403 1.959 . S
C781 C476 1.962 . S
C787 C487 1.962 . S
C801 C560 1.957 . S
C807 C571 1.957 . S
C821 C655 1.952 . S
C827 C644 1.952 . S
C841 C142 2.279 . S
C847 C58 1.940 . S
C861 C310 1.963 . S
C867 C237 1.963 . S
C881 C394 1.967 . S
C887 C478 2.275 . S
C901 C573 1.977 . S
C907 C646 1.977 . S
C921 C69 1.489 . S
C927 C489 1.781 . S
C941 C405 1.475 . S
C947 C153 1.785 . S
C961 C226 1.430 . S
C967 C657 1.430 . S
C981 C321 1.430 . S
C987 C562 1.430 . S
C1001 C63 1.697 . S
C1007 C315 1.746 . S
C1021 C147 1.495 . S
C1027 C231 1.483 . S
C1041 C158 1.630 . S
C1047 C242 1.673 . S
C1061 C326 1.564 . S
C1067 C74 1.503 . S
C1081 C399 1.688 . S
C1087 C651 1.747 . S
C1101 C483 1.512 . S
C1107 C567 1.498 . S
C1121 C494 1.613 . S
C1127 C578 1.670 . S
C1141 C662 1.583 . S
C1147 C410 1.490 . S
