# Generated by pormake.
# Topology wse, (4)-cn, num edge types: 1
# Building blocks:
#     Node 0, Type 0, BuildingBlock: QUQFOY_clean_sbu_1, # of connection points: 4
#     Node 1, Type 0, BuildingBlock: QUQFOY_clean_sbu_1, # of connection points: 4
#     Node 2, Type 0, BuildingBlock: QUQFOY_clean_sbu_1, # of connection points: 4
#     Node 3, Type 0, BuildingBlock: QUQFOY_clean_sbu_1, # of connection points: 4
#     Node 4, Type 0, BuildingBlock: QUQFOY_clean_sbu_1, # of connection points: 4
#     Node 5, Type 0, BuildingBlock: QUQFOY_clean_sbu_1, # of connection points: 4
#     Node 6, Type 0, BuildingBlock: QUQFOY_clean_sbu_1, # of connection points: 4
#     Node 7, Type 0, BuildingBlock: QUQFOY_clean_sbu_1, # of connection points: 4
#     Node 8, Type 0, BuildingBlock: QUQFOY_clean_sbu_1, # of connection points: 4
#     Node 9, Type 0, BuildingBlock: QUQFOY_clean_sbu_1, # of connection points: 4
#     Node 10, Type 0, BuildingBlock: QUQFOY_clean_sbu_1, # of connection points: 4
#     Node 11, Type 0, BuildingBlock: QUQFOY_clean_sbu_1, # of connection points: 4
#     Node 12, Type 0, BuildingBlock: QUQFOY_clean_sbu_1, # of connection points: 4
#     Node 13, Type 0, BuildingBlock: QUQFOY_clean_sbu_1, # of connection points: 4
#     Node 14, Type 0, BuildingBlock: QUQFOY_clean_sbu_1, # of connection points: 4
#     Node 15, Type 0, BuildingBlock: QUQFOY_clean_sbu_1, # of connection points: 4
#     Node 16, Type 0, BuildingBlock: QUQFOY_clean_sbu_1, # of connection points: 4
#     Node 17, Type 0, BuildingBlock: QUQFOY_clean_sbu_1, # of connection points: 4
#     Node 18, Type 0, BuildingBlock: QUQFOY_clean_sbu_1, # of connection points: 4
#     Node 19, Type 0, BuildingBlock: QUQFOY_clean_sbu_1, # of connection points: 4
#     Node 20, Type 0, BuildingBlock: QUQFOY_clean_sbu_1, # of connection points: 4
#     Node 21, Type 0, BuildingBlock: QUQFOY_clean_sbu_1, # of connection points: 4
#     Node 22, Type 0, BuildingBlock: QUQFOY_clean_sbu_1, # of connection points: 4
#     Node 23, Type 0, BuildingBlock: QUQFOY_clean_sbu_1, # of connection points: 4
#     Node 24, Type 0, BuildingBlock: QUQFOY_clean_sbu_1, # of connection points: 4
#     Node 25, Type 0, BuildingBlock: QUQFOY_clean_sbu_1, # of connection points: 4
#     Node 26, Type 0, BuildingBlock: QUQFOY_clean_sbu_1, # of connection points: 4
#     Node 27, Type 0, BuildingBlock: QUQFOY_clean_sbu_1, # of connection points: 4
#     Node 28, Type 0, BuildingBlock: QUQFOY_clean_sbu_1, # of connection points: 4
#     Node 29, Type 0, BuildingBlock: QUQFOY_clean_sbu_1, # of connection points: 4
#     Node 30, Type 0, BuildingBlock: QUQFOY_clean_sbu_1, # of connection points: 4
#     Node 31, Type 0, BuildingBlock: QUQFOY_clean_sbu_1, # of connection points: 4
#     Node 32, Type 0, BuildingBlock: QUQFOY_clean_sbu_1, # of connection points: 4
#     Node 33, Type 0, BuildingBlock: QUQFOY_clean_sbu_1, # of connection points: 4
#     Node 34, Type 0, BuildingBlock: QUQFOY_clean_sbu_1, # of connection points: 4
#     Node 35, Type 0, BuildingBlock: QUQFOY_clean_sbu_1, # of connection points: 4
#     Node 36, Type 0, BuildingBlock: QUQFOY_clean_sbu_1, # of connection points: 4
#     Node 37, Type 0, BuildingBlock: QUQFOY_clean_sbu_1, # of connection points: 4
#     Node 38, Type 0, BuildingBlock: QUQFOY_clean_sbu_1, # of connection points: 4
#     Node 39, Type 0, BuildingBlock: QUQFOY_clean_sbu_1, # of connection points: 4
#     Node 40, Type 0, BuildingBlock: QUQFOY_clean_sbu_1, # of connection points: 4
#     Node 41, Type 0, BuildingBlock: QUQFOY_clean_sbu_1, # of connection points: 4
#     Node 42, Type 0, BuildingBlock: QUQFOY_clean_sbu_1, # of connection points: 4
#     Node 43, Type 0, BuildingBlock: QUQFOY_clean_sbu_1, # of connection points: 4
#     Node 44, Type 0, BuildingBlock: QUQFOY_clean_sbu_1, # of connection points: 4
#     Node 45, Type 0, BuildingBlock: QUQFOY_clean_sbu_1, # of connection points: 4
#     Node 46, Type 0, BuildingBlock: QUQFOY_clean_sbu_1, # of connection points: 4
#     Node 47, Type 0, BuildingBlock: QUQFOY_clean_sbu_1, # of connection points: 4
#     Node 48, Type 0, BuildingBlock: QUQFOY_clean_sbu_1, # of connection points: 4
#     Node 49, Type 0, BuildingBlock: QUQFOY_clean_sbu_1, # of connection points: 4
#     Node 50, Type 0, BuildingBlock: QUQFOY_clean_sbu_1, # of connection points: 4
#     Node 51, Type 0, BuildingBlock: QUQFOY_clean_sbu_1, # of connection points: 4
#     Node 52, Type 0, BuildingBlock: QUQFOY_clean_sbu_1, # of connection points: 4
#     Node 53, Type 0, BuildingBlock: QUQFOY_clean_sbu_1, # of connection points: 4
#     Node 54, Type 0, BuildingBlock: QUQFOY_clean_sbu_1, # of connection points: 4
#     Node 55, Type 0, BuildingBlock: QUQFOY_clean_sbu_1, # of connection points: 4
#     Node 56, Type 0, BuildingBlock: QUQFOY_clean_sbu_1, # of connection points: 4
#     Node 57, Type 0, BuildingBlock: QUQFOY_clean_sbu_1, # of connection points: 4
#     Node 58, Type 0, BuildingBlock: QUQFOY_clean_sbu_1, # of connection points: 4
#     Node 59, Type 0, BuildingBlock: QUQFOY_clean_sbu_1, # of connection points: 4
#     Node 60, Type 0, BuildingBlock: QUQFOY_clean_sbu_1, # of connection points: 4
#     Node 61, Type 0, BuildingBlock: QUQFOY_clean_sbu_1, # of connection points: 4
#     Node 62, Type 0, BuildingBlock: QUQFOY_clean_sbu_1, # of connection points: 4
#     Node 63, Type 0, BuildingBlock: QUQFOY_clean_sbu_1, # of connection points: 4
#     Node 64, Type 0, BuildingBlock: QUQFOY_clean_sbu_1, # of connection points: 4
#     Node 65, Type 0, BuildingBlock: QUQFOY_clean_sbu_1, # of connection points: 4
#     Node 66, Type 0, BuildingBlock: QUQFOY_clean_sbu_1, # of connection points: 4
#     Node 67, Type 0, BuildingBlock: QUQFOY_clean_sbu_1, # of connection points: 4
#     Node 68, Type 0, BuildingBlock: QUQFOY_clean_sbu_1, # of connection points: 4
#     Node 69, Type 0, BuildingBlock: QUQFOY_clean_sbu_1, # of connection points: 4
#     Node 70, Type 0, BuildingBlock: QUQFOY_clean_sbu_1, # of connection points: 4
#     Node 71, Type 0, BuildingBlock: QUQFOY_clean_sbu_1, # of connection points: 4
#     Node 72, Type 0, BuildingBlock: QUQFOY_clean_sbu_1, # of connection points: 4
#     Node 73, Type 0, BuildingBlock: QUQFOY_clean_sbu_1, # of connection points: 4
#     Node 74, Type 0, BuildingBlock: QUQFOY_clean_sbu_1, # of connection points: 4
#     Node 75, Type 0, BuildingBlock: QUQFOY_clean_sbu_1, # of connection points: 4
#     Node 76, Type 0, BuildingBlock: QUQFOY_clean_sbu_1, # of connection points: 4
#     Node 77, Type 0, BuildingBlock: QUQFOY_clean_sbu_1, # of connection points: 4
#     Node 78, Type 0, BuildingBlock: QUQFOY_clean_sbu_1, # of connection points: 4
#     Node 79, Type 0, BuildingBlock: QUQFOY_clean_sbu_1, # of connection points: 4
#     Node 80, Type 0, BuildingBlock: QUQFOY_clean_sbu_1, # of connection points: 4
#     Node 81, Type 0, BuildingBlock: QUQFOY_clean_sbu_1, # of connection points: 4
#     Node 82, Type 0, BuildingBlock: QUQFOY_clean_sbu_1, # of connection points: 4
#     Node 83, Type 0, BuildingBlock: QUQFOY_clean_sbu_1, # of connection points: 4
#     Node 84, Type 0, BuildingBlock: QUQFOY_clean_sbu_1, # of connection points: 4
#     Node 85, Type 0, BuildingBlock: QUQFOY_clean_sbu_1, # of connection points: 4
#     Node 86, Type 0, BuildingBlock: QUQFOY_clean_sbu_1, # of connection points: 4
#     Node 87, Type 0, BuildingBlock: QUQFOY_clean_sbu_1, # of connection points: 4
#     Node 88, Type 0, BuildingBlock: QUQFOY_clean_sbu_1, # of connection points: 4
#     Node 89, Type 0, BuildingBlock: QUQFOY_clean_sbu_1, # of connection points: 4
#     Node 90, Type 0, BuildingBlock: QUQFOY_clean_sbu_1, # of connection points: 4
#     Node 91, Type 0, BuildingBlock: QUQFOY_clean_sbu_1, # of connection points: 4
#     Node 92, Type 0, BuildingBlock: QUQFOY_clean_sbu_1, # of connection points: 4
#     Node 93, Type 0, BuildingBlock: QUQFOY_clean_sbu_1, # of connection points: 4
#     Node 94, Type 0, BuildingBlock: QUQFOY_clean_sbu_1, # of connection points: 4
#     Node 95, Type 0, BuildingBlock: QUQFOY_clean_sbu_1, # of connection points: 4
#     Edge 96, Type (0, 0), BuildingBlock: CIFDUS_clean_linker_0, # of connection points: 2
#     Edge 97, Type (0, 0), BuildingBlock: CIFDUS_clean_linker_0, # of connection points: 2
#     Edge 98, Type (0, 0), BuildingBlock: CIFDUS_clean_linker_0, # of connection points: 2
#     Edge 99, Type (0, 0), BuildingBlock: CIFDUS_clean_linker_0, # of connection points: 2
#     Edge 100, Type (0, 0), BuildingBlock: CIFDUS_clean_linker_0, # of connection points: 2
#     Edge 101, Type (0, 0), BuildingBlock: CIFDUS_clean_linker_0, # of connection points: 2
#     Edge 102, Type (0, 0), BuildingBlock: CIFDUS_clean_linker_0, # of connection points: 2
#     Edge 103, Type (0, 0), BuildingBlock: CIFDUS_clean_linker_0, # of connection points: 2
#     Edge 104, Type (0, 0), BuildingBlock: CIFDUS_clean_linker_0, # of connection points: 2
#     Edge 105, Type (0, 0), BuildingBlock: CIFDUS_clean_linker_0, # of connection points: 2
#     Edge 106, Type (0, 0), BuildingBlock: CIFDUS_clean_linker_0, # of connection points: 2
#     Edge 107, Type (0, 0), BuildingBlock: CIFDUS_clean_linker_0, # of connection points: 2
#     Edge 108, Type (0, 0), BuildingBlock: CIFDUS_clean_linker_0, # of connection points: 2
#     Edge 109, Type (0, 0), BuildingBlock: CIFDUS_clean_linker_0, # of connection points: 2
#     Edge 110, Type (0, 0), BuildingBlock: CIFDUS_clean_linker_0, # of connection points: 2
#     Edge 111, Type (0, 0), BuildingBlock: CIFDUS_clean_linker_0, # of connection points: 2
#     Edge 112, Type (0, 0), BuildingBlock: CIFDUS_clean_linker_0, # of connection points: 2
#     Edge 113, Type (0, 0), BuildingBlock: CIFDUS_clean_linker_0, # of connection points: 2
#     Edge 114, Type (0, 0), BuildingBlock: CIFDUS_clean_linker_0, # of connection points: 2
#     Edge 115, Type (0, 0), BuildingBlock: CIFDUS_clean_linker_0, # of connection points: 2
#     Edge 116, Type (0, 0), BuildingBlock: CIFDUS_clean_linker_0, # of connection points: 2
#     Edge 117, Type (0, 0), BuildingBlock: CIFDUS_clean_linker_0, # of connection points: 2
#     Edge 118, Type (0, 0), BuildingBlock: CIFDUS_clean_linker_0, # of connection points: 2
#     Edge 119, Type (0, 0), BuildingBlock: CIFDUS_clean_linker_0, # of connection points: 2
#     Edge 120, Type (0, 0), BuildingBlock: CIFDUS_clean_linker_0, # of connection points: 2
#     Edge 121, Type (0, 0), BuildingBlock: CIFDUS_clean_linker_0, # of connection points: 2
#     Edge 122, Type (0, 0), BuildingBlock: CIFDUS_clean_linker_0, # of connection points: 2
#     Edge 123, Type (0, 0), BuildingBlock: CIFDUS_clean_linker_0, # of connection points: 2
#     Edge 124, Type (0, 0), BuildingBlock: CIFDUS_clean_linker_0, # of connection points: 2
#     Edge 125, Type (0, 0), BuildingBlock: CIFDUS_clean_linker_0, # of connection points: 2
#     Edge 126, Type (0, 0), BuildingBlock: CIFDUS_clean_linker_0, # of connection points: 2
#     Edge 127, Type (0, 0), BuildingBlock: CIFDUS_clean_linker_0, # of connection points: 2
#     Edge 128, Type (0, 0), BuildingBlock: CIFDUS_clean_linker_0, # of connection points: 2
#     Edge 129, Type (0, 0), BuildingBlock: CIFDUS_clean_linker_0, # of connection points: 2
#     Edge 130, Type (0, 0), BuildingBlock: CIFDUS_clean_linker_0, # of connection points: 2
#     Edge 131, Type (0, 0), BuildingBlock: CIFDUS_clean_linker_0, # of connection points: 2
#     Edge 132, Type (0, 0), BuildingBlock: CIFDUS_clean_linker_0, # of connection points: 2
#     Edge 133, Type (0, 0), BuildingBlock: CIFDUS_clean_linker_0, # of connection points: 2
#     Edge 134, Type (0, 0), BuildingBlock: CIFDUS_clean_linker_0, # of connection points: 2
#     Edge 135, Type (0, 0), BuildingBlock: CIFDUS_clean_linker_0, # of connection points: 2
#     Edge 136, Type (0, 0), BuildingBlock: CIFDUS_clean_linker_0, # of connection points: 2
#     Edge 137, Type (0, 0), BuildingBlock: CIFDUS_clean_linker_0, # of connection points: 2
#     Edge 138, Type (0, 0), BuildingBlock: CIFDUS_clean_linker_0, # of connection points: 2
#     Edge 139, Type (0, 0), BuildingBlock: CIFDUS_clean_linker_0, # of connection points: 2
#     Edge 140, Type (0, 0), BuildingBlock: CIFDUS_clean_linker_0, # of connection points: 2
#     Edge 141, Type (0, 0), BuildingBlock: CIFDUS_clean_linker_0, # of connection points: 2
#     Edge 142, Type (0, 0), BuildingBlock: CIFDUS_clean_linker_0, # of connection points: 2
#     Edge 143, Type (0, 0), BuildingBlock: CIFDUS_clean_linker_0, # of connection points: 2
#     Edge 144, Type (0, 0), BuildingBlock: CIFDUS_clean_linker_0, # of connection points: 2
#     Edge 145, Type (0, 0), BuildingBlock: CIFDUS_clean_linker_0, # of connection points: 2
#     Edge 146, Type (0, 0), BuildingBlock: CIFDUS_clean_linker_0, # of connection points: 2
#     Edge 147, Type (0, 0), BuildingBlock: CIFDUS_clean_linker_0, # of connection points: 2
#     Edge 148, Type (0, 0), BuildingBlock: CIFDUS_clean_linker_0, # of connection points: 2
#     Edge 149, Type (0, 0), BuildingBlock: CIFDUS_clean_linker_0, # of connection points: 2
#     Edge 150, Type (0, 0), BuildingBlock: CIFDUS_clean_linker_0, # of connection points: 2
#     Edge 151, Type (0, 0), BuildingBlock: CIFDUS_clean_linker_0, # of connection points: 2
#     Edge 152, Type (0, 0), BuildingBlock: CIFDUS_clean_linker_0, # of connection points: 2
#     Edge 153, Type (0, 0), BuildingBlock: CIFDUS_clean_linker_0, # of connection points: 2
#     Edge 154, Type (0, 0), BuildingBlock: CIFDUS_clean_linker_0, # of connection points: 2
#     Edge 155, Type (0, 0), BuildingBlock: CIFDUS_clean_linker_0, # of connection points: 2
#     Edge 156, Type (0, 0), BuildingBlock: CIFDUS_clean_linker_0, # of connection points: 2
#     Edge 157, Type (0, 0), BuildingBlock: CIFDUS_clean_linker_0, # of connection points: 2
#     Edge 158, Type (0, 0), BuildingBlock: CIFDUS_clean_linker_0, # of connection points: 2
#     Edge 159, Type (0, 0), BuildingBlock: CIFDUS_clean_linker_0, # of connection points: 2
#     Edge 160, Type (0, 0), BuildingBlock: CIFDUS_clean_linker_0, # of connection points: 2
#     Edge 161, Type (0, 0), BuildingBlock: CIFDUS_clean_linker_0, # of connection points: 2
#     Edge 162, Type (0, 0), BuildingBlock: CIFDUS_clean_linker_0, # of connection points: 2
#     Edge 163, Type (0, 0), BuildingBlock: CIFDUS_clean_linker_0, # of connection points: 2
#     Edge 164, Type (0, 0), BuildingBlock: CIFDUS_clean_linker_0, # of connection points: 2
#     Edge 165, Type (0, 0), BuildingBlock: CIFDUS_clean_linker_0, # of connection points: 2
#     Edge 166, Type (0, 0), BuildingBlock: CIFDUS_clean_linker_0, # of connection points: 2
#     Edge 167, Type (0, 0), BuildingBlock: CIFDUS_clean_linker_0, # of connection points: 2
#     Edge 168, Type (0, 0), BuildingBlock: CIFDUS_clean_linker_0, # of connection points: 2
#     Edge 169, Type (0, 0), BuildingBlock: CIFDUS_clean_linker_0, # of connection points: 2
#     Edge 170, Type (0, 0), BuildingBlock: CIFDUS_clean_linker_0, # of connection points: 2
#     Edge 171, Type (0, 0), BuildingBlock: CIFDUS_clean_linker_0, # of connection points: 2
#     Edge 172, Type (0, 0), BuildingBlock: CIFDUS_clean_linker_0, # of connection points: 2
#     Edge 173, Type (0, 0), BuildingBlock: CIFDUS_clean_linker_0, # of connection points: 2
#     Edge 174, Type (0, 0), BuildingBlock: CIFDUS_clean_linker_0, # of connection points: 2
#     Edge 175, Type (0, 0), BuildingBlock: CIFDUS_clean_linker_0, # of connection points: 2
#     Edge 176, Type (0, 0), BuildingBlock: CIFDUS_clean_linker_0, # of connection points: 2
#     Edge 177, Type (0, 0), BuildingBlock: CIFDUS_clean_linker_0, # of connection points: 2
#     Edge 178, Type (0, 0), BuildingBlock: CIFDUS_clean_linker_0, # of connection points: 2
#     Edge 179, Type (0, 0), BuildingBlock: CIFDUS_clean_linker_0, # of connection points: 2
#     Edge 180, Type (0, 0), BuildingBlock: CIFDUS_clean_linker_0, # of connection points: 2
#     Edge 181, Type (0, 0), BuildingBlock: CIFDUS_clean_linker_0, # of connection points: 2
#     Edge 182, Type (0, 0), BuildingBlock: CIFDUS_clean_linker_0, # of connection points: 2
#     Edge 183, Type (0, 0), BuildingBlock: CIFDUS_clean_linker_0, # of connection points: 2
#     Edge 184, Type (0, 0), BuildingBlock: CIFDUS_clean_linker_0, # of connection points: 2
#     Edge 185, Type (0, 0), BuildingBlock: CIFDUS_clean_linker_0, # of connection points: 2
#     Edge 186, Type (0, 0), BuildingBlock: CIFDUS_clean_linker_0, # of connection points: 2
#     Edge 187, Type (0, 0), BuildingBlock: CIFDUS_clean_linker_0, # of connection points: 2
#     Edge 188, Type (0, 0), BuildingBlock: CIFDUS_clean_linker_0, # of connection points: 2
#     Edge 189, Type (0, 0), BuildingBlock: CIFDUS_clean_linker_0, # of connection points: 2
#     Edge 190, Type (0, 0), BuildingBlock: CIFDUS_clean_linker_0, # of connection points: 2
#     Edge 191, Type (0, 0), BuildingBlock: CIFDUS_clean_linker_0, # of connection points: 2
#     Edge 192, Type (0, 0), BuildingBlock: CIFDUS_clean_linker_0, # of connection points: 2
#     Edge 193, Type (0, 0), BuildingBlock: CIFDUS_clean_linker_0, # of connection points: 2
#     Edge 194, Type (0, 0), BuildingBlock: CIFDUS_clean_linker_0, # of connection points: 2
#     Edge 195, Type (0, 0), BuildingBlock: CIFDUS_clean_linker_0, # of connection points: 2
#     Edge 196, Type (0, 0), BuildingBlock: CIFDUS_clean_linker_0, # of connection points: 2
#     Edge 197, Type (0, 0), BuildingBlock: CIFDUS_clean_linker_0, # of connection points: 2
#     Edge 198, Type (0, 0), BuildingBlock: CIFDUS_clean_linker_0, # of connection points: 2
#     Edge 199, Type (0, 0), BuildingBlock: CIFDUS_clean_linker_0, # of connection points: 2
#     Edge 200, Type (0, 0), BuildingBlock: CIFDUS_clean_linker_0, # of connection points: 2
#     Edge 201, Type (0, 0), BuildingBlock: CIFDUS_clean_linker_0, # of connection points: 2
#     Edge 202, Type (0, 0), BuildingBlock: CIFDUS_clean_linker_0, # of connection points: 2
#     Edge 203, Type (0, 0), BuildingBlock: CIFDUS_clean_linker_0, # of connection points: 2
#     Edge 204, Type (0, 0), BuildingBlock: CIFDUS_clean_linker_0, # of connection points: 2
#     Edge 205, Type (0, 0), BuildingBlock: CIFDUS_clean_linker_0, # of connection points: 2
#     Edge 206, Type (0, 0), BuildingBlock: CIFDUS_clean_linker_0, # of connection points: 2
#     Edge 207, Type (0, 0), BuildingBlock: CIFDUS_clean_linker_0, # of connection points: 2
#     Edge 208, Type (0, 0), BuildingBlock: CIFDUS_clean_linker_0, # of connection points: 2
#     Edge 209, Type (0, 0), BuildingBlock: CIFDUS_clean_linker_0, # of connection points: 2
#     Edge 210, Type (0, 0), BuildingBlock: CIFDUS_clean_linker_0, # of connection points: 2
#     Edge 211, Type (0, 0), BuildingBlock: CIFDUS_clean_linker_0, # of connection points: 2
#     Edge 212, Type (0, 0), BuildingBlock: CIFDUS_clean_linker_0, # of connection points: 2
#     Edge 213, Type (0, 0), BuildingBlock: CIFDUS_clean_linker_0, # of connection points: 2
#     Edge 214, Type (0, 0), BuildingBlock: CIFDUS_clean_linker_0, # of connection points: 2
#     Edge 215, Type (0, 0), BuildingBlock: CIFDUS_clean_linker_0, # of connection points: 2
#     Edge 216, Type (0, 0), BuildingBlock: CIFDUS_clean_linker_0, # of connection points: 2
#     Edge 217, Type (0, 0), BuildingBlock: CIFDUS_clean_linker_0, # of connection points: 2
#     Edge 218, Type (0, 0), BuildingBlock: CIFDUS_clean_linker_0, # of connection points: 2
#     Edge 219, Type (0, 0), BuildingBlock: CIFDUS_clean_linker_0, # of connection points: 2
#     Edge 220, Type (0, 0), BuildingBlock: CIFDUS_clean_linker_0, # of connection points: 2
#     Edge 221, Type (0, 0), BuildingBlock: CIFDUS_clean_linker_0, # of connection points: 2
#     Edge 222, Type (0, 0), BuildingBlock: CIFDUS_clean_linker_0, # of connection points: 2
#     Edge 223, Type (0, 0), BuildingBlock: CIFDUS_clean_linker_0, # of connection points: 2
#     Edge 224, Type (0, 0), BuildingBlock: CIFDUS_clean_linker_0, # of connection points: 2
#     Edge 225, Type (0, 0), BuildingBlock: CIFDUS_clean_linker_0, # of connection points: 2
#     Edge 226, Type (0, 0), BuildingBlock: CIFDUS_clean_linker_0, # of connection points: 2
#     Edge 227, Type (0, 0), BuildingBlock: CIFDUS_clean_linker_0, # of connection points: 2
#     Edge 228, Type (0, 0), BuildingBlock: CIFDUS_clean_linker_0, # of connection points: 2
#     Edge 229, Type (0, 0), BuildingBlock: CIFDUS_clean_linker_0, # of connection points: 2
#     Edge 230, Type (0, 0), BuildingBlock: CIFDUS_clean_linker_0, # of connection points: 2
#     Edge 231, Type (0, 0), BuildingBlock: CIFDUS_clean_linker_0, # of connection points: 2
#     Edge 232, Type (0, 0), BuildingBlock: CIFDUS_clean_linker_0, # of connection points: 2
#     Edge 233, Type (0, 0), BuildingBlock: CIFDUS_clean_linker_0, # of connection points: 2
#     Edge 234, Type (0, 0), BuildingBlock: CIFDUS_clean_linker_0, # of connection points: 2
#     Edge 235, Type (0, 0), BuildingBlock: CIFDUS_clean_linker_0, # of connection points: 2
#     Edge 236, Type (0, 0), BuildingBlock: CIFDUS_clean_linker_0, # of connection points: 2
#     Edge 237, Type (0, 0), BuildingBlock: CIFDUS_clean_linker_0, # of connection points: 2
#     Edge 238, Type (0, 0), BuildingBlock: CIFDUS_clean_linker_0, # of connection points: 2
#     Edge 239, Type (0, 0), BuildingBlock: CIFDUS_clean_linker_0, # of connection points: 2
#     Edge 240, Type (0, 0), BuildingBlock: CIFDUS_clean_linker_0, # of connection points: 2
#     Edge 241, Type (0, 0), BuildingBlock: CIFDUS_clean_linker_0, # of connection points: 2
#     Edge 242, Type (0, 0), BuildingBlock: CIFDUS_clean_linker_0, # of connection points: 2
#     Edge 243, Type (0, 0), BuildingBlock: CIFDUS_clean_linker_0, # of connection points: 2
#     Edge 244, Type (0, 0), BuildingBlock: CIFDUS_clean_linker_0, # of connection points: 2
#     Edge 245, Type (0, 0), BuildingBlock: CIFDUS_clean_linker_0, # of connection points: 2
#     Edge 246, Type (0, 0), BuildingBlock: CIFDUS_clean_linker_0, # of connection points: 2
#     Edge 247, Type (0, 0), BuildingBlock: CIFDUS_clean_linker_0, # of connection points: 2
#     Edge 248, Type (0, 0), BuildingBlock: CIFDUS_clean_linker_0, # of connection points: 2
#     Edge 249, Type (0, 0), BuildingBlock: CIFDUS_clean_linker_0, # of connection points: 2
#     Edge 250, Type (0, 0), BuildingBlock: CIFDUS_clean_linker_0, # of connection points: 2
#     Edge 251, Type (0, 0), BuildingBlock: CIFDUS_clean_linker_0, # of connection points: 2
#     Edge 252, Type (0, 0), BuildingBlock: CIFDUS_clean_linker_0, # of connection points: 2
#     Edge 253, Type (0, 0), BuildingBlock: CIFDUS_clean_linker_0, # of connection points: 2
#     Edge 254, Type (0, 0), BuildingBlock: CIFDUS_clean_linker_0, # of connection points: 2
#     Edge 255, Type (0, 0), BuildingBlock: CIFDUS_clean_linker_0, # of connection points: 2
#     Edge 256, Type (0, 0), BuildingBlock: CIFDUS_clean_linker_0, # of connection points: 2
#     Edge 257, Type (0, 0), BuildingBlock: CIFDUS_clean_linker_0, # of connection points: 2
#     Edge 258, Type (0, 0), BuildingBlock: CIFDUS_clean_linker_0, # of connection points: 2
#     Edge 259, Type (0, 0), BuildingBlock: CIFDUS_clean_linker_0, # of connection points: 2
#     Edge 260, Type (0, 0), BuildingBlock: CIFDUS_clean_linker_0, # of connection points: 2
#     Edge 261, Type (0, 0), BuildingBlock: CIFDUS_clean_linker_0, # of connection points: 2
#     Edge 262, Type (0, 0), BuildingBlock: CIFDUS_clean_linker_0, # of connection points: 2
#     Edge 263, Type (0, 0), BuildingBlock: CIFDUS_clean_linker_0, # of connection points: 2
#     Edge 264, Type (0, 0), BuildingBlock: CIFDUS_clean_linker_0, # of connection points: 2
#     Edge 265, Type (0, 0), BuildingBlock: CIFDUS_clean_linker_0, # of connection points: 2
#     Edge 266, Type (0, 0), BuildingBlock: CIFDUS_clean_linker_0, # of connection points: 2
#     Edge 267, Type (0, 0), BuildingBlock: CIFDUS_clean_linker_0, # of connection points: 2
#     Edge 268, Type (0, 0), BuildingBlock: CIFDUS_clean_linker_0, # of connection points: 2
#     Edge 269, Type (0, 0), BuildingBlock: CIFDUS_clean_linker_0, # of connection points: 2
#     Edge 270, Type (0, 0), BuildingBlock: CIFDUS_clean_linker_0, # of connection points: 2
#     Edge 271, Type (0, 0), BuildingBlock: CIFDUS_clean_linker_0, # of connection points: 2
#     Edge 272, Type (0, 0), BuildingBlock: CIFDUS_clean_linker_0, # of connection points: 2
#     Edge 273, Type (0, 0), BuildingBlock: CIFDUS_clean_linker_0, # of connection points: 2
#     Edge 274, Type (0, 0), BuildingBlock: CIFDUS_clean_linker_0, # of connection points: 2
#     Edge 275, Type (0, 0), BuildingBlock: CIFDUS_clean_linker_0, # of connection points: 2
#     Edge 276, Type (0, 0), BuildingBlock: CIFDUS_clean_linker_0, # of connection points: 2
#     Edge 277, Type (0, 0), BuildingBlock: CIFDUS_clean_linker_0, # of connection points: 2
#     Edge 278, Type (0, 0), BuildingBlock: CIFDUS_clean_linker_0, # of connection points: 2
#     Edge 279, Type (0, 0), BuildingBlock: CIFDUS_clean_linker_0, # of connection points: 2
#     Edge 280, Type (0, 0), BuildingBlock: CIFDUS_clean_linker_0, # of connection points: 2
#     Edge 281, Type (0, 0), BuildingBlock: CIFDUS_clean_linker_0, # of connection points: 2
#     Edge 282, Type (0, 0), BuildingBlock: CIFDUS_clean_linker_0, # of connection points: 2
#     Edge 283, Type (0, 0), BuildingBlock: CIFDUS_clean_linker_0, # of connection points: 2
#     Edge 284, Type (0, 0), BuildingBlock: CIFDUS_clean_linker_0, # of connection points: 2
#     Edge 285, Type (0, 0), BuildingBlock: CIFDUS_clean_linker_0, # of connection points: 2
#     Edge 286, Type (0, 0), BuildingBlock: CIFDUS_clean_linker_0, # of connection points: 2
#     Edge 287, Type (0, 0), BuildingBlock: CIFDUS_clean_linker_0, # of connection points: 2
# Relax obj value: 0.259
# Max RMSD: 0.178
# Mean RMSD: 0.175
data_MOF--net-wse--node1-QUQFOY_clean_sbu_1--edge1-CIFDUS_clean_linker_0
_symmetry_space_group_name_H-M    P1
_symmetry_Int_Tables_number       1
_symmetry_cell_setting            triclinic
loop_
_symmetry_equiv_pos_as_xyz
'x, y, z'
_cell_length_a     94.03947
_cell_length_b     94.04989
_cell_length_c     94.057719
_cell_angle_alpha  89.99494
_cell_angle_beta   89.994245
_cell_angle_gamma 90.021336
loop_
_atom_site_label
_atom_site_type_symbol
_atom_site_fract_x
_atom_site_fract_y
_atom_site_fract_z
_atom_type_partial_charge
O0 O 0.05536 0.18478 0.42436 0.0
Cd1 Cd 0.0746 0.19121 0.43306 0.0
Cd2 Cd 0.07338 0.15944 0.43181 0.0
O3 O 0.05426 0.16154 0.42152 0.0
O4 O 0.08341 0.2093 0.42456 0.0
O5 O 0.06669 0.20913 0.44083 0.0
C6 C 0.07482 0.21633 0.4326 0.0
C7 C 0.09362 0.14909 0.42217 0.0
C8 C 0.04868 0.17376 0.42026 0.0
C9 C 0.07902 0.17277 0.45951 0.0
O10 O 0.07322 0.16215 0.45352 0.0
O11 O 0.0823 0.18381 0.45243 0.0
O12 O 0.0833 0.14137 0.42696 0.0
O13 O 0.09206 0.16277 0.4222 0.0
O14 O 0.85026 0.07176 0.44964 0.0
Cd15 Cd 0.85071 0.07161 0.42776 0.0
Cd16 Cd 0.82036 0.07206 0.43081 0.0
O17 O 0.82783 0.07857 0.4505 0.0
O18 O 0.86804 0.08183 0.42129 0.0
O19 O 0.84611 0.09007 0.41832 0.0
C20 C 0.8597 0.09197 0.41719 0.0
C21 C 0.79568 0.07631 0.42877 0.0
C22 C 0.83967 0.07635 0.45663 0.0
C23 C 0.83639 0.04587 0.41804 0.0
O24 O 0.82538 0.05207 0.42287 0.0
O25 O 0.84831 0.05223 0.41797 0.0
O26 O 0.8009 0.06712 0.43737 0.0
O27 O 0.80451 0.08342 0.42106 0.0
O28 O 0.95512 0.8289 0.42064 0.0
Cd29 Cd 0.93699 0.82017 0.42926 0.0
Cd30 Cd 0.93182 0.8519 0.42838 0.0
O31 O 0.95263 0.85225 0.42107 0.0
O32 O 0.946 0.80157 0.43354 0.0
O33 O 0.92736 0.80313 0.41957 0.0
C34 C 0.9369 0.79532 0.42555 0.0
C35 C 0.91346 0.86409 0.41704 0.0
C36 C 0.9601 0.84127 0.41851 0.0
C37 C 0.9288 0.83682 0.45636 0.0
O38 O 0.92849 0.84861 0.44979 0.0
O39 O 0.93162 0.82528 0.44992 0.0
O40 O 0.92319 0.87075 0.42406 0.0
O41 O 0.91458 0.85044 0.4158 0.0
O42 O 0.15509 0.93251 0.45088 0.0
Cd43 Cd 0.15265 0.93365 0.42915 0.0
Cd44 Cd 0.18394 0.93604 0.42939 0.0
O45 O 0.17858 0.93336 0.45056 0.0
O46 O 0.13521 0.92293 0.42381 0.0
O47 O 0.15706 0.91577 0.41852 0.0
C48 C 0.1435 0.91336 0.41849 0.0
C49 C 0.20871 0.93405 0.42605 0.0
C50 C 0.16694 0.93237 0.45735 0.0
C51 C 0.16481 0.95933 0.41571 0.0
O52 O 0.17669 0.95345 0.41828 0.0
O53 O 0.15326 0.95347 0.41956 0.0
O54 O 0.20297 0.94435 0.43286 0.0
O55 O 0.20039 0.92433 0.42112 0.0
O56 O 0.05041 0.82283 0.57588 0.0
Cd57 Cd 0.06946 0.81741 0.56614 0.0
Cd58 Cd 0.06855 0.84859 0.56949 0.0
O59 O 0.04974 0.84588 0.5802 0.0
O60 O 0.06251 0.79908 0.55827 0.0
O61 O 0.07969 0.79981 0.57405 0.0
C62 C 0.07143 0.79234 0.56606 0.0
C63 C 0.0895 0.85739 0.579 0.0
C64 C 0.04406 0.83366 0.5809 0.0
C65 C 0.0726 0.83753 0.54059 0.0
O66 O 0.06766 0.84789 0.5477 0.0
O67 O 0.0756 0.8258 0.54661 0.0
O68 O 0.07923 0.86583 0.5755 0.0
O69 O 0.08743 0.84382 0.57792 0.0
O70 O 0.1611 0.0719 0.54954 0.0
Cd71 Cd 0.1597 0.07118 0.57132 0.0
Cd72 Cd 0.18973 0.0763 0.56932 0.0
O73 O 0.1806 0.08475 0.55106 0.0
O74 O 0.14163 0.08007 0.5777 0.0
O75 O 0.16295 0.08972 0.58104 0.0
C76 C 0.14925 0.09071 0.58197 0.0
C77 C 0.21405 0.08218 0.56936 0.0
C78 C 0.17027 0.07997 0.5438 0.0
C79 C 0.17697 0.04743 0.58034 0.0
O80 O 0.18703 0.05529 0.57581 0.0
O81 O 0.16432 0.0521 0.58074 0.0
O82 O 0.20854 0.07372 0.56021 0.0
O83 O 0.20582 0.08741 0.57899 0.0
O84 O 0.94381 0.18406 0.57437 0.0
Cd85 Cd 0.92322 0.18815 0.56726 0.0
Cd86 Cd 0.92659 0.15752 0.57094 0.0
O87 O 0.94575 0.1615 0.5805 0.0
O88 O 0.92786 0.20582 0.55669 0.0
O89 O 0.91369 0.20603 0.57529 0.0
C90 C 0.91994 0.21292 0.56521 0.0
C91 C 0.90656 0.14784 0.58152 0.0
C92 C 0.95108 0.17386 0.57952 0.0
C93 C 0.91858 0.16766 0.54297 0.0
O94 O 0.92637 0.15852 0.54911 0.0
O95 O 0.91387 0.17828 0.54984 0.0
O96 O 0.91697 0.13983 0.57742 0.0
O97 O 0.90803 0.16149 0.58041 0.0
O98 O 0.83668 0.92771 0.53984 0.0
Cd99 Cd 0.83849 0.92959 0.56161 0.0
Cd100 Cd 0.81037 0.92551 0.56091 0.0
O101 O 0.81628 0.91641 0.54177 0.0
O102 O 0.85661 0.92088 0.56814 0.0
O103 O 0.83528 0.91174 0.5726 0.0
C104 C 0.84899 0.91067 0.57332 0.0
C105 C 0.78903 0.91697 0.57061 0.0
C106 C 0.82678 0.9204 0.53428 0.0
C107 C 0.82257 0.95502 0.56769 0.0
O108 O 0.81233 0.94738 0.56321 0.0
O109 O 0.8347 0.94948 0.5698 0.0
O110 O 0.78942 0.92363 0.55871 0.0
O111 O 0.80086 0.91479 0.57718 0.0
O112 O 0.44871 0.06609 0.1498 0.0
Cd113 Cd 0.42688 0.06613 0.14922 0.0
Cd114 Cd 0.4301 0.06916 0.17951 0.0
O115 O 0.44929 0.07601 0.17102 0.0
O116 O 0.42096 0.07412 0.13055 0.0
O117 O 0.41775 0.08524 0.15111 0.0
C118 C 0.41702 0.08538 0.13736 0.0
C119 C 0.42847 0.0753 0.20379 0.0
C120 C 0.45554 0.07229 0.15964 0.0
C121 C 0.41771 0.04155 0.16584 0.0
O122 O 0.42288 0.04854 0.17622 0.0
O123 O 0.41701 0.0471 0.15354 0.0
O124 O 0.4376 0.06635 0.19907 0.0
O125 O 0.41992 0.081 0.19472 0.0
O126 O 0.95341 0.42554 0.17531 0.0
Cd127 Cd 0.93355 0.43309 0.18111 0.0
Cd128 Cd 0.9336 0.43084 0.15088 0.0
O129 O 0.95316 0.42116 0.15231 0.0
O130 O 0.93921 0.43834 0.20077 0.0
O131 O 0.92276 0.42227 0.19668 0.0
C132 C 0.93044 0.42915 0.20572 0.0
C133 C 0.91257 0.42059 0.14318 0.0
C134 C 0.9596 0.42105 0.16417 0.0
C135 C 0.92895 0.45944 0.16276 0.0
O136 O 0.9334 0.45267 0.15196 0.0
O137 O 0.92686 0.45307 0.1745 0.0
O138 O 0.92217 0.42464 0.13421 0.0
O139 O 0.91544 0.42146 0.15662 0.0
O140 O 0.54556 0.92862 0.15738 0.0
Cd141 Cd 0.56667 0.93164 0.1525 0.0
Cd142 Cd 0.56827 0.93885 0.18277 0.0
O143 O 0.54686 0.93449 0.18009 0.0
O144 O 0.56941 0.92248 0.1336 0.0
O145 O 0.57929 0.91436 0.15336 0.0
C146 C 0.57696 0.91293 0.13989 0.0
C147 C 0.5754 0.93626 0.20667 0.0
C148 C 0.53966 0.93052 0.16937 0.0
C149 C 0.57712 0.9608 0.16033 0.0
O150 O 0.57643 0.95685 0.17323 0.0
O151 O 0.57352 0.95244 0.15033 0.0
O152 O 0.56745 0.94651 0.20244 0.0
O153 O 0.57959 0.92722 0.19726 0.0
O154 O 0.04262 0.58064 0.17637 0.0
Cd155 Cd 0.05953 0.57108 0.18651 0.0
Cd156 Cd 0.06803 0.56724 0.15809 0.0
O157 O 0.04756 0.57452 0.15427 0.0
O158 O 0.05235 0.57254 0.20629 0.0
O159 O 0.0731 0.58134 0.20006 0.0
C160 C 0.06388 0.57889 0.20991 0.0
C161 C 0.088 0.57738 0.14743 0.0
C162 C 0.0391 0.57989 0.16335 0.0
C163 C 0.06564 0.54107 0.17559 0.0
O164 O 0.06991 0.54617 0.16384 0.0
O165 O 0.06081 0.54917 0.18526 0.0
O166 O 0.07915 0.56976 0.14023 0.0
O167 O 0.0852 0.57975 0.16068 0.0
O168 O 0.45127 0.93182 0.8415 0.0
Cd169 Cd 0.43042 0.93369 0.848 0.0
Cd170 Cd 0.42604 0.94093 0.81828 0.0
O171 O 0.44792 0.93905 0.81941 0.0
O172 O 0.42992 0.92516 0.86738 0.0
O173 O 0.41853 0.91585 0.84903 0.0
C174 C 0.42209 0.91513 0.86228 0.0
C175 C 0.41786 0.93705 0.7949 0.0
C176 C 0.45616 0.93503 0.82933 0.0
C177 C 0.41747 0.96222 0.84108 0.0
O178 O 0.41694 0.95821 0.8282 0.0
O179 O 0.42272 0.95416 0.85058 0.0
O180 O 0.42466 0.9483 0.79854 0.0
O181 O 0.41532 0.92777 0.80466 0.0
O182 O 0.04944 0.42339 0.82995 0.0
Cd183 Cd 0.06889 0.43139 0.82321 0.0
Cd184 Cd 0.06938 0.42951 0.85485 0.0
O185 O 0.05 0.41959 0.85308 0.0
O186 O 0.06149 0.43869 0.80485 0.0
O187 O 0.078 0.42223 0.80559 0.0
C188 C 0.06977 0.43024 0.7981 0.0
C189 C 0.08888 0.41996 0.8666 0.0
C190 C 0.04347 0.41906 0.84129 0.0
C191 C 0.0743 0.45763 0.84169 0.0
O192 O 0.06957 0.45126 0.85262 0.0
O193 O 0.07648 0.4509 0.83018 0.0
O194 O 0.07816 0.42497 0.87355 0.0
O195 O 0.08815 0.41965 0.85286 0.0
O196 O 0.5506 0.06939 0.85143 0.0
Cd197 Cd 0.57227 0.06761 0.85381 0.0
Cd198 Cd 0.5704 0.07103 0.82291 0.0
O199 O 0.55397 0.08239 0.83233 0.0
O200 O 0.57755 0.07499 0.87288 0.0
O201 O 0.58321 0.0858 0.85267 0.0
C202 C 0.58306 0.08582 0.86643 0.0
C203 C 0.56913 0.07496 0.79823 0.0
C204 C 0.5459 0.07806 0.84224 0.0
C205 C 0.57973 0.04244 0.83766 0.0
O206 O 0.57534 0.0498 0.82717 0.0
O207 O 0.58087 0.04801 0.84989 0.0
O208 O 0.5598 0.06768 0.80502 0.0
O209 O 0.57973 0.07993 0.80535 0.0
O210 O 0.9491 0.57118 0.81762 0.0
Cd211 Cd 0.92775 0.56642 0.81455 0.0
Cd212 Cd 0.93271 0.56733 0.84478 0.0
O213 O 0.95246 0.57561 0.84037 0.0
O214 O 0.93008 0.55944 0.79479 0.0
O215 O 0.91709 0.57821 0.7996 0.0
C216 C 0.92223 0.56961 0.79025 0.0
C217 C 0.9148 0.57838 0.85759 0.0
C218 C 0.95721 0.57498 0.82775 0.0
C219 C 0.92279 0.54029 0.83283 0.0
O220 O 0.93047 0.54567 0.84255 0.0
O221 O 0.91888 0.54776 0.82228 0.0
O222 O 0.92568 0.57288 0.86393 0.0
O223 O 0.91461 0.57843 0.84383 0.0
O224 O 0.15196 0.45101 0.07214 0.0
Cd225 Cd 0.14875 0.42952 0.0698 0.0
Cd226 Cd 0.1811 0.43006 0.07014 0.0
O227 O 0.17414 0.44877 0.07957 0.0
O228 O 0.12994 0.4248 0.07819 0.0
O229 O 0.15049 0.41795 0.08755 0.0
C230 C 0.13677 0.41863 0.08838 0.0
C231 C 0.20621 0.42973 0.06959 0.0
C232 C 0.163 0.45624 0.0779 0.0
C233 C 0.16262 0.41955 0.04392 0.0
O234 O 0.17396 0.42264 0.0506 0.0
O235 O 0.15058 0.42105 0.0498 0.0
O236 O 0.19875 0.43839 0.06218 0.0
O237 O 0.19946 0.42107 0.07781 0.0
O238 O 0.15947 0.54756 0.92716 0.0
Cd239 Cd 0.15485 0.56878 0.92973 0.0
Cd240 Cd 0.18418 0.56955 0.94026 0.0
O241 O 0.18131 0.54816 0.93579 0.0
O242 O 0.13724 0.57202 0.91843 0.0
O243 O 0.15803 0.58156 0.91287 0.0
C244 C 0.14478 0.57954 0.90979 0.0
C245 C 0.20847 0.5758 0.94044 0.0
C246 C 0.17094 0.54129 0.93052 0.0
C247 C 0.15969 0.57936 0.95944 0.0
O248 O 0.17292 0.57838 0.9569 0.0
O249 O 0.15056 0.57572 0.95016 0.0
O250 O 0.20278 0.56812 0.95017 0.0
O251 O 0.20034 0.58023 0.93033 0.0
O252 O 0.45297 0.15786 0.92876 0.0
Cd253 Cd 0.43133 0.15494 0.93016 0.0
Cd254 Cd 0.43168 0.18662 0.92725 0.0
O255 O 0.45143 0.17971 0.92023 0.0
O256 O 0.42684 0.1356 0.92289 0.0
O257 O 0.42065 0.15545 0.91174 0.0
C258 C 0.42123 0.1417 0.91193 0.0
C259 C 0.42936 0.21145 0.92414 0.0
C260 C 0.4587 0.16864 0.92298 0.0
C261 C 0.42038 0.17068 0.95459 0.0
O262 O 0.42374 0.1815 0.94719 0.0
O263 O 0.42199 0.15824 0.94963 0.0
O264 O 0.43811 0.20588 0.93298 0.0
O265 O 0.42183 0.20289 0.91653 0.0
O266 O 0.84166 0.45465 0.93332 0.0
Cd267 Cd 0.84552 0.43316 0.9351 0.0
Cd268 Cd 0.81471 0.4317 0.93062 0.0
O269 O 0.82061 0.45168 0.9233 0.0
O270 O 0.8648 0.42884 0.92753 0.0
O271 O 0.84481 0.42208 0.91694 0.0
C272 C 0.85856 0.42284 0.91685 0.0
C273 C 0.7904 0.4272 0.92642 0.0
C274 C 0.831 0.45963 0.92671 0.0
C275 C 0.82958 0.4222 0.95917 0.0
O276 O 0.81904 0.42494 0.95117 0.0
O277 O 0.84218 0.42402 0.95468 0.0
O278 O 0.79477 0.43669 0.93516 0.0
O279 O 0.79989 0.42027 0.91936 0.0
O280 O 0.55026 0.84364 0.93313 0.0
Cd281 Cd 0.57184 0.84669 0.93496 0.0
Cd282 Cd 0.57085 0.81423 0.93519 0.0
O283 O 0.55199 0.82128 0.92612 0.0
O284 O 0.57605 0.86589 0.92714 0.0
O285 O 0.58287 0.84586 0.91675 0.0
C286 C 0.58195 0.85958 0.91647 0.0
C287 C 0.57139 0.7891 0.93509 0.0
C288 C 0.54475 0.83258 0.9277 0.0
C289 C 0.58186 0.83278 0.96103 0.0
O290 O 0.57839 0.82134 0.9547 0.0
O291 O 0.58072 0.8447 0.95481 0.0
O292 O 0.56282 0.79629 0.94288 0.0
O293 O 0.57989 0.79614 0.92695 0.0
O294 O 0.84625 0.55094 0.07137 0.0
Cd295 Cd 0.85031 0.57244 0.07113 0.0
Cd296 Cd 0.81821 0.57102 0.07227 0.0
O297 O 0.82713 0.55469 0.08425 0.0
O298 O 0.86962 0.57579 0.07908 0.0
O299 O 0.84976 0.58267 0.08979 0.0
C300 C 0.86348 0.58153 0.08994 0.0
C301 C 0.7933 0.5684 0.0724 0.0
C302 C 0.8366 0.5463 0.07956 0.0
C303 C 0.83596 0.58233 0.04577 0.0
O304 O 0.82488 0.57793 0.05222 0.0
O305 O 0.84793 0.5824 0.052 0.0
O306 O 0.80156 0.55991 0.06564 0.0
O307 O 0.79912 0.57876 0.07924 0.0
O308 O 0.45219 0.84663 0.07383 0.0
Cd309 Cd 0.43062 0.84974 0.07197 0.0
Cd310 Cd 0.43038 0.8201 0.06444 0.0
O311 O 0.45175 0.8239 0.06797 0.0
O312 O 0.42604 0.86695 0.08338 0.0
O313 O 0.41897 0.84524 0.08925 0.0
C314 C 0.4198 0.85862 0.09233 0.0
C315 C 0.42488 0.7958 0.06729 0.0
C316 C 0.45859 0.83496 0.07161 0.0
C317 C 0.41921 0.84224 0.04327 0.0
O318 O 0.42097 0.82934 0.0469 0.0
O319 O 0.42251 0.85229 0.0517 0.0
O320 O 0.43218 0.80051 0.05677 0.0
O321 O 0.4203 0.80497 0.07639 0.0
O322 O 0.54985 0.15533 0.07637 0.0
Cd323 Cd 0.57137 0.15213 0.07402 0.0
Cd324 Cd 0.57126 0.18179 0.06647 0.0
O325 O 0.5499 0.178 0.07022 0.0
O326 O 0.57583 0.1346 0.08495 0.0
O327 O 0.58347 0.156 0.09117 0.0
C328 C 0.58244 0.14257 0.09395 0.0
C329 C 0.5773 0.20598 0.06902 0.0
C330 C 0.54327 0.1669 0.07415 0.0
C331 C 0.58225 0.15965 0.04515 0.0
O332 O 0.58049 0.17252 0.04887 0.0
O333 O 0.57907 0.14956 0.05355 0.0
O334 O 0.56976 0.20135 0.05864 0.0
O335 O 0.58161 0.19684 0.07828 0.0
O336 O 0.91407 0.82514 0.54577 0.0
Cd337 Cd 0.90979 0.82369 0.5673 0.0
Cd338 Cd 0.93925 0.82099 0.56943 0.0
O339 O 0.9374 0.82306 0.54773 0.0
O340 O 0.89131 0.83338 0.57059 0.0
O341 O 0.9119 0.84167 0.57854 0.0
C342 C 0.89833 0.84331 0.57696 0.0
C343 C 0.96129 0.82871 0.57839 0.0
C344 C 0.92634 0.82456 0.54013 0.0
C345 C 0.92023 0.79641 0.57916 0.0
O346 O 0.93246 0.80191 0.57755 0.0
O347 O 0.9091 0.80347 0.57617 0.0
O348 O 0.95997 0.81723 0.57115 0.0
O349 O 0.95 0.83612 0.58072 0.0
O350 O 0.20631 0.93091 0.58014 0.0
Cd351 Cd 0.18963 0.94101 0.57007 0.0
Cd352 Cd 0.1804 0.91281 0.56749 0.0
O353 O 0.20072 0.90869 0.57502 0.0
O354 O 0.19544 0.96123 0.57235 0.0
O355 O 0.17492 0.9531 0.58029 0.0
C356 C 0.18349 0.96368 0.57853 0.0
C357 C 0.16034 0.90226 0.57754 0.0
C358 C 0.20936 0.91775 0.58013 0.0
C359 C 0.18281 0.92954 0.54063 0.0
O360 O 0.17834 0.91815 0.54635 0.0
O361 O 0.18825 0.93936 0.54815 0.0
O362 O 0.1692 0.89502 0.56999 0.0
O363 O 0.16322 0.91549 0.57994 0.0
O364 O 0.08608 0.17739 0.55 0.0
Cd365 Cd 0.08929 0.17835 0.57156 0.0
Cd366 Cd 0.05872 0.18175 0.57247 0.0
O367 O 0.06261 0.17717 0.55116 0.0
O368 O 0.10757 0.16851 0.57553 0.0
O369 O 0.08661 0.16023 0.58248 0.0
C370 C 0.10024 0.15858 0.58154 0.0
C371 C 0.03521 0.1764 0.57922 0.0
C372 C 0.07405 0.17629 0.54398 0.0
C373 C 0.07876 0.20524 0.5841 0.0
O374 O 0.06637 0.20031 0.58181 0.0
O375 O 0.08975 0.19813 0.5808 0.0
O376 O 0.03829 0.18722 0.57149 0.0
O377 O 0.04553 0.16835 0.58331 0.0
O378 O 0.79828 0.06747 0.56822 0.0
Cd379 Cd 0.81945 0.06374 0.56355 0.0
Cd380 Cd 0.81708 0.09278 0.56848 0.0
O381 O 0.7971 0.08918 0.57687 0.0
O382 O 0.81648 0.04372 0.55752 0.0
O383 O 0.83059 0.04927 0.57535 0.0
C384 C 0.82467 0.03961 0.56762 0.0
C385 C 0.83664 0.10191 0.58036 0.0
C386 C 0.79114 0.07745 0.57388 0.0
C387 C 0.82482 0.08381 0.53932 0.0
O388 O 0.81867 0.09341 0.54657 0.0
O389 O 0.82778 0.07187 0.54491 0.0
O390 O 0.82641 0.1101 0.5762 0.0
O391 O 0.83516 0.08832 0.57869 0.0
O392 O 0.91567 0.17804 0.45288 0.0
Cd393 Cd 0.91445 0.18124 0.43116 0.0
Cd394 Cd 0.94342 0.18254 0.43336 0.0
O395 O 0.93874 0.17392 0.45296 0.0
O396 O 0.89675 0.17171 0.42462 0.0
O397 O 0.9184 0.16409 0.41919 0.0
C398 C 0.90477 0.1622 0.41881 0.0
C399 C 0.9657 0.176 0.42427 0.0
C400 C 0.92683 0.17399 0.45934 0.0
C401 C 0.92652 0.20934 0.42544 0.0
O402 O 0.93797 0.20359 0.42973 0.0
O403 O 0.91538 0.2019 0.42371 0.0
O404 O 0.96439 0.18495 0.4345 0.0
O405 O 0.9543 0.17048 0.41901 0.0
O406 O 0.79572 0.93177 0.413 0.0
Cd407 Cd 0.81445 0.93957 0.4218 0.0
Cd408 Cd 0.81705 0.90792 0.42284 0.0
O409 O 0.79699 0.90831 0.41416 0.0
O410 O 0.80748 0.95934 0.42464 0.0
O411 O 0.82606 0.95463 0.41123 0.0
C412 C 0.81744 0.96389 0.41651 0.0
C413 C 0.83606 0.8954 0.41315 0.0
C414 C 0.79027 0.91956 0.41094 0.0
C415 C 0.82093 0.92366 0.44995 0.0
O416 O 0.81879 0.91163 0.44424 0.0
O417 O 0.82036 0.93503 0.44264 0.0
O418 O 0.82569 0.88891 0.41937 0.0
O419 O 0.8352 0.90905 0.41166 0.0
O420 O 0.09202 0.82144 0.45006 0.0
Cd421 Cd 0.09224 0.82086 0.42807 0.0
Cd422 Cd 0.06402 0.81934 0.4318 0.0
O423 O 0.06938 0.82731 0.45153 0.0
O424 O 0.10929 0.83161 0.42167 0.0
O425 O 0.08716 0.83904 0.41828 0.0
C426 C 0.10069 0.84142 0.41737 0.0
C427 C 0.04148 0.82541 0.42302 0.0
C428 C 0.08146 0.82567 0.45736 0.0
C429 C 0.08064 0.79318 0.42159 0.0
O430 O 0.0697 0.79845 0.42755 0.0
O431 O 0.09123 0.80104 0.4187 0.0
O432 O 0.04309 0.81667 0.43339 0.0
O433 O 0.05268 0.83117 0.4176 0.0
O434 O 0.20282 0.06553 0.4276 0.0
Cd435 Cd 0.1816 0.06121 0.43197 0.0
Cd436 Cd 0.18171 0.09008 0.43193 0.0
O437 O 0.20201 0.0886 0.42345 0.0
O438 O 0.18182 0.04009 0.43106 0.0
O439 O 0.16758 0.05307 0.41762 0.0
C440 C 0.17202 0.04071 0.42157 0.0
C441 C 0.16237 0.101 0.42114 0.0
C442 C 0.20896 0.07702 0.42393 0.0
C443 C 0.17531 0.07616 0.45955 0.0
O444 O 0.17943 0.08763 0.45369 0.0
O445 O 0.1745 0.06476 0.45237 0.0
O446 O 0.17246 0.10841 0.42679 0.0
O447 O 0.16383 0.08733 0.42071 0.0
O448 O 0.54672 0.91133 0.82602 0.0
Cd449 Cd 0.56779 0.9069 0.82225 0.0
Cd450 Cd 0.56744 0.93697 0.81308 0.0
O451 O 0.54619 0.93334 0.81779 0.0
O452 O 0.57056 0.88779 0.83094 0.0
O453 O 0.58103 0.90716 0.83915 0.0
C454 C 0.57858 0.8937 0.84033 0.0
C455 C 0.57409 0.96097 0.81587 0.0
C456 C 0.53993 0.92263 0.82317 0.0
C457 C 0.5773 0.9139 0.79242 0.0
O458 O 0.57624 0.927 0.79559 0.0
O459 O 0.57399 0.90428 0.80132 0.0
O460 O 0.56635 0.95671 0.80546 0.0
O461 O 0.57834 0.95154 0.82488 0.0
O462 O 0.09355 0.54685 0.81903 0.0
Cd463 Cd 0.09335 0.56881 0.81796 0.0
Cd464 Cd 0.06462 0.56483 0.81721 0.0
O465 O 0.07099 0.54543 0.82528 0.0
O466 O 0.11023 0.57589 0.82855 0.0
O467 O 0.08801 0.57866 0.83601 0.0
C468 C 0.10151 0.58001 0.83834 0.0
C469 C 0.04135 0.57156 0.82336 0.0
C470 C 0.0831 0.53966 0.8237 0.0
C471 C 0.0807 0.57535 0.79065 0.0
O472 O 0.06983 0.56962 0.7963 0.0
O473 O 0.09168 0.57789 0.79808 0.0
O474 O 0.0439 0.56163 0.81435 0.0
O475 O 0.05206 0.57778 0.82925 0.0
O476 O 0.45764 0.08933 0.8254 0.0
Cd477 Cd 0.43645 0.09218 0.82027 0.0
Cd478 Cd 0.43596 0.06338 0.8219 0.0
O479 O 0.45447 0.06741 0.83295 0.0
O480 O 0.43125 0.11159 0.82683 0.0
O481 O 0.42301 0.09187 0.83682 0.0
C482 C 0.42401 0.1056 0.83684 0.0
C483 C 0.42364 0.043 0.82912 0.0
C484 C 0.46227 0.07837 0.8318 0.0
C485 C 0.43265 0.07776 0.79296 0.0
O486 O 0.43586 0.06672 0.80008 0.0
O487 O 0.43058 0.08953 0.79926 0.0
O488 O 0.43567 0.04226 0.82272 0.0
O489 O 0.41834 0.05539 0.83162 0.0
O490 O 0.91093 0.45051 0.82468 0.0
Cd491 Cd 0.90694 0.42904 0.82232 0.0
Cd492 Cd 0.93786 0.42854 0.82079 0.0
O493 O 0.93389 0.44845 0.82918 0.0
O494 O 0.88754 0.42595 0.83021 0.0
O495 O 0.90708 0.41758 0.84036 0.0
C496 C 0.89346 0.41944 0.84074 0.0
C497 C 0.96162 0.42125 0.82391 0.0
C498 C 0.92264 0.45591 0.82873 0.0
C499 C 0.91893 0.42064 0.79474 0.0
O500 O 0.93075 0.4238 0.8005 0.0
O501 O 0.90754 0.42073 0.80199 0.0
O502 O 0.9581 0.43113 0.81521 0.0
O503 O 0.95166 0.41538 0.83128 0.0
O504 O 0.54479 0.0917 0.18072 0.0
Cd505 Cd 0.56649 0.09089 0.18378 0.0
Cd506 Cd 0.56246 0.06319 0.18147 0.0
O507 O 0.54393 0.07006 0.17186 0.0
O508 O 0.57526 0.10777 0.17453 0.0
O509 O 0.57773 0.08568 0.16659 0.0
C510 C 0.57983 0.09916 0.16482 0.0
C511 C 0.57259 0.04211 0.17301 0.0
C512 C 0.53797 0.08192 0.17436 0.0
C513 C 0.56945 0.07591 0.2105 0.0
O514 O 0.56409 0.06577 0.20331 0.0
O515 O 0.57327 0.0873 0.20431 0.0
O516 O 0.56065 0.04218 0.17965 0.0
O517 O 0.57891 0.05408 0.17084 0.0
O518 O 0.90868 0.54878 0.18338 0.0
Cd519 Cd 0.90843 0.57066 0.18517 0.0
Cd520 Cd 0.93631 0.56741 0.18212 0.0
O521 O 0.92968 0.54849 0.17309 0.0
O522 O 0.88986 0.57735 0.17763 0.0
O523 O 0.9105 0.58138 0.16692 0.0
C524 C 0.89676 0.58217 0.16677 0.0
C525 C 0.9575 0.57725 0.17341 0.0
C526 C 0.91831 0.54212 0.17666 0.0
C527 C 0.92397 0.57501 0.21122 0.0
O528 O 0.93394 0.56941 0.20398 0.0
O529 O 0.91248 0.57869 0.20516 0.0
O530 O 0.95733 0.56544 0.18027 0.0
O531 O 0.94556 0.58362 0.17116 0.0
O532 O 0.451 0.9157 0.18289 0.0
Cd533 Cd 0.42988 0.91042 0.18481 0.0
Cd534 Cd 0.42751 0.93831 0.19554 0.0
O535 O 0.44937 0.93668 0.19329 0.0
O536 O 0.42718 0.89318 0.17285 0.0
O537 O 0.41735 0.91399 0.16786 0.0
C538 C 0.41965 0.90089 0.16437 0.0
C539 C 0.41917 0.96153 0.19143 0.0
C540 C 0.45681 0.92697 0.18753 0.0
C541 C 0.41801 0.91386 0.21424 0.0
O542 O 0.41801 0.92717 0.21194 0.0
O543 O 0.42274 0.90526 0.20495 0.0
O544 O 0.42574 0.95808 0.20289 0.0
O545 O 0.4169 0.95164 0.18218 0.0
O546 O 0.09074 0.45099 0.18176 0.0
Cd547 Cd 0.0944 0.42967 0.18469 0.0
Cd548 Cd 0.06411 0.42953 0.19066 0.0
O549 O 0.06783 0.45102 0.18701 0.0
O550 O 0.11313 0.42595 0.17564 0.0
O551 O 0.09285 0.41728 0.16735 0.0
C552 C 0.10645 0.41886 0.16599 0.0
C553 C 0.04054 0.42259 0.186 0.0
C554 C 0.07908 0.45759 0.18333 0.0
C555 C 0.08527 0.41825 0.21284 0.0
O556 O 0.07258 0.41974 0.20846 0.0
O557 O 0.09575 0.42208 0.20523 0.0
O558 O 0.04393 0.43 0.19695 0.0
O559 O 0.05056 0.41902 0.17734 0.0
O560 O 0.79847 0.58162 0.93021 0.0
Cd561 Cd 0.81671 0.57303 0.9393 0.0
Cd562 Cd 0.82058 0.57019 0.90741 0.0
O563 O 0.80055 0.57896 0.90693 0.0
O564 O 0.80888 0.57119 0.95887 0.0
O565 O 0.82772 0.5843 0.95427 0.0
C566 C 0.81871 0.57949 0.96343 0.0
C567 C 0.83908 0.57902 0.89345 0.0
C568 C 0.79349 0.58299 0.91771 0.0
C569 C 0.82391 0.54407 0.92517 0.0
O570 O 0.82238 0.54909 0.91273 0.0
O571 O 0.82274 0.55199 0.93607 0.0
O572 O 0.82867 0.57199 0.88793 0.0
O573 O 0.83868 0.58161 0.90695 0.0
O574 O 0.79603 0.42637 0.07262 0.0
Cd575 Cd 0.8154 0.43387 0.06484 0.0
Cd576 Cd 0.81957 0.43595 0.09422 0.0
O577 O 0.79892 0.42887 0.0958 0.0
O578 O 0.81128 0.43299 0.04411 0.0
O579 O 0.8293 0.4215 0.05376 0.0
C580 C 0.82216 0.42489 0.04255 0.0
C581 C 0.83932 0.42405 0.10301 0.0
C582 C 0.79122 0.42549 0.08523 0.0
C583 C 0.82321 0.46269 0.07818 0.0
O584 O 0.82251 0.45723 0.0905 0.0
O585 O 0.821 0.45514 0.06718 0.0
O586 O 0.83075 0.43076 0.1114 0.0
O587 O 0.83613 0.42338 0.08964 0.0
O588 O 0.54663 0.82076 0.08745 0.0
Cd589 Cd 0.5671 0.81731 0.09424 0.0
Cd590 Cd 0.57098 0.80847 0.06509 0.0
O591 O 0.5492 0.81174 0.0659 0.0
O592 O 0.56824 0.82674 0.11317 0.0
O593 O 0.58035 0.83418 0.09442 0.0
C594 C 0.57676 0.8359 0.10757 0.0
C595 C 0.58021 0.8121 0.04211 0.0
C596 C 0.54142 0.81719 0.07552 0.0
C597 C 0.57793 0.78767 0.0888 0.0
O598 O 0.57914 0.79111 0.07579 0.0
O599 O 0.57284 0.79636 0.09781 0.0
O600 O 0.5729 0.80104 0.04537 0.0
O601 O 0.58263 0.82128 0.052 0.0
O602 O 0.19525 0.56761 0.06506 0.0
Cd603 Cd 0.17336 0.5665 0.06251 0.0
Cd604 Cd 0.17655 0.56754 0.09066 0.0
O605 O 0.19686 0.57522 0.08714 0.0
O606 O 0.17189 0.56471 0.04148 0.0
O607 O 0.16344 0.58328 0.05311 0.0
C608 C 0.16564 0.57684 0.04121 0.0
C609 C 0.15735 0.57925 0.10068 0.0
C610 C 0.20273 0.5723 0.07532 0.0
C611 C 0.16621 0.54052 0.07918 0.0
O612 O 0.17373 0.54581 0.08908 0.0
O613 O 0.16301 0.54803 0.06842 0.0
O614 O 0.16744 0.57422 0.10856 0.0
O615 O 0.15889 0.5787 0.08701 0.0
O616 O 0.4536 0.17854 0.08599 0.0
Cd617 Cd 0.43213 0.18055 0.09045 0.0
Cd618 Cd 0.43039 0.18412 0.06042 0.0
O619 O 0.45206 0.18216 0.06281 0.0
O620 O 0.42938 0.17219 0.10971 0.0
O621 O 0.42027 0.16272 0.09019 0.0
C622 C 0.42229 0.16206 0.10377 0.0
C623 C 0.42227 0.17665 0.03795 0.0
C624 C 0.45945 0.17984 0.07387 0.0
C625 C 0.42032 0.20814 0.07992 0.0
O626 O 0.42165 0.20282 0.06757 0.0
O627 O 0.42372 0.20097 0.09087 0.0
O628 O 0.42921 0.18827 0.0397 0.0
O629 O 0.4197 0.16901 0.04904 0.0
O630 O 0.20912 0.41786 0.93143 0.0
Cd631 Cd 0.19215 0.42824 0.94074 0.0
Cd632 Cd 0.18565 0.43137 0.911 0.0
O633 O 0.20593 0.42316 0.90877 0.0
O634 O 0.19839 0.42653 0.96087 0.0
O635 O 0.1778 0.41812 0.9535 0.0
C636 C 0.18669 0.42012 0.96375 0.0
C637 C 0.16657 0.42222 0.89807 0.0
C638 C 0.2134 0.41771 0.91863 0.0
C639 C 0.18684 0.45791 0.9285 0.0
O640 O 0.18384 0.45243 0.91653 0.0
O641 O 0.19074 0.45017 0.93887 0.0
O642 O 0.1764 0.42964 0.89205 0.0
O643 O 0.16785 0.41948 0.91148 0.0
O644 O 0.54893 0.17698 0.91517 0.0
Cd645 Cd 0.57061 0.1799 0.913 0.0
Cd646 Cd 0.56974 0.17791 0.94204 0.0
O647 O 0.55032 0.16887 0.9371 0.0
O648 O 0.57593 0.17256 0.89392 0.0
O649 O 0.58248 0.16225 0.91408 0.0
C650 C 0.58207 0.16209 0.90033 0.0
C651 C 0.57979 0.17069 0.96367 0.0
C652 C 0.54317 0.17104 0.92585 0.0
C653 C 0.57659 0.20649 0.9276 0.0
O654 O 0.57246 0.19949 0.93841 0.0
O655 O 0.57833 0.20026 0.91575 0.0
O656 O 0.5685 0.17833 0.96315 0.0
O657 O 0.5855 0.16673 0.95185 0.0
O658 O 0.45503 0.8249 0.91473 0.0
Cd659 Cd 0.43338 0.82206 0.912 0.0
Cd660 Cd 0.43356 0.82445 0.94077 0.0
O661 O 0.45271 0.83413 0.93612 0.0
O662 O 0.42848 0.82919 0.8927 0.0
O663 O 0.4217 0.83985 0.91263 0.0
C664 C 0.42236 0.83982 0.89888 0.0
C665 C 0.42268 0.83165 0.96199 0.0
C666 C 0.46032 0.83146 0.92529 0.0
C667 C 0.42767 0.7956 0.92679 0.0
O668 O 0.43188 0.80271 0.93749 0.0
O669 O 0.42552 0.80178 0.91498 0.0
O670 O 0.43434 0.82457 0.9619 0.0
O671 O 0.41705 0.83506 0.94996 0.0
O672 O 0.54871 0.67496 0.92439 0.0
Cd673 Cd 0.56868 0.67971 0.93254 0.0
Cd674 Cd 0.56735 0.64908 0.93032 0.0
O675 O 0.54841 0.65196 0.91989 0.0
O676 O 0.56392 0.69935 0.93861 0.0
O677 O 0.58056 0.69522 0.92278 0.0
C678 C 0.57342 0.70429 0.93018 0.0
C679 C 0.58687 0.63752 0.92058 0.0
C680 C 0.54234 0.66401 0.91965 0.0
C681 C 0.57133 0.66112 0.959 0.0
O682 O 0.56667 0.65045 0.95216 0.0
O683 O 0.57436 0.67263 0.95261 0.0
O684 O 0.57594 0.6305 0.92505 0.0
O685 O 0.58641 0.65127 0.92107 0.0
O686 O 0.34621 0.57072 0.94947 0.0
Cd687 Cd 0.3468 0.57045 0.92761 0.0
Cd688 Cd 0.31637 0.57416 0.93097 0.0
O689 O 0.32499 0.58066 0.95018 0.0
O690 O 0.36553 0.578 0.92137 0.0
O691 O 0.34511 0.58931 0.91793 0.0
C692 C 0.35885 0.58918 0.917 0.0
C693 C 0.292 0.58009 0.92994 0.0
C694 C 0.33637 0.57685 0.95638 0.0
C695 C 0.32965 0.54631 0.91843 0.0
O696 O 0.31943 0.55363 0.92342 0.0
O697 O 0.34214 0.55141 0.91799 0.0
O698 O 0.29701 0.57104 0.93881 0.0
O699 O 0.30083 0.58604 0.92131 0.0
O700 O 0.45649 0.32653 0.92544 0.0
Cd701 Cd 0.4363 0.32095 0.93244 0.0
Cd702 Cd 0.43659 0.35123 0.92841 0.0
O703 O 0.45628 0.34914 0.9193 0.0
O704 O 0.44216 0.30253 0.94088 0.0
O705 O 0.4269 0.30351 0.92325 0.0
C706 C 0.43412 0.29592 0.93209 0.0
C707 C 0.41614 0.35878 0.91705 0.0
C708 C 0.46279 0.33737 0.92036 0.0
C709 C 0.43033 0.34106 0.95715 0.0
O710 O 0.43582 0.35128 0.95026 0.0
O711 O 0.42792 0.32922 0.9511 0.0
O712 O 0.42574 0.36777 0.92107 0.0
O713 O 0.41868 0.34535 0.9187 0.0
O714 O 0.65128 0.43554 0.94946 0.0
Cd715 Cd 0.65049 0.43486 0.92764 0.0
Cd716 Cd 0.68123 0.43132 0.93025 0.0
O717 O 0.67231 0.42514 0.9495 0.0
O718 O 0.63404 0.4234 0.92081 0.0
O719 O 0.65654 0.41639 0.9192 0.0
C720 C 0.64316 0.41365 0.91747 0.0
C721 C 0.70603 0.42786 0.93146 0.0
C722 C 0.66122 0.42923 0.95606 0.0
C723 C 0.66689 0.45804 0.9158 0.0
O724 O 0.67727 0.45072 0.92044 0.0
O725 O 0.65423 0.45352 0.917 0.0
O726 O 0.69948 0.43714 0.93899 0.0
O727 O 0.69853 0.42025 0.92287 0.0
O728 O 0.55024 0.31746 0.0702 0.0
Cd729 Cd 0.57112 0.3146 0.06357 0.0
Cd730 Cd 0.56746 0.34413 0.06906 0.0
O731 O 0.54808 0.33944 0.07805 0.0
O732 O 0.56806 0.2962 0.05369 0.0
O733 O 0.58198 0.29788 0.07238 0.0
C734 C 0.57637 0.29009 0.0626 0.0
C735 C 0.58805 0.35162 0.08026 0.0
C736 C 0.54281 0.32719 0.07597 0.0
C737 C 0.57507 0.33644 0.04011 0.0
O738 O 0.56794 0.3454 0.04726 0.0
O739 O 0.57918 0.3249 0.04581 0.0
O740 O 0.57796 0.36052 0.07737 0.0
O741 O 0.58584 0.33825 0.0778 0.0
O742 O 0.65673 0.56736 0.04358 0.0
Cd743 Cd 0.65423 0.56474 0.06521 0.0
Cd744 Cd 0.68449 0.56119 0.06483 0.0
O745 O 0.68012 0.56515 0.04371 0.0
O746 O 0.63667 0.57509 0.07088 0.0
O747 O 0.65838 0.58188 0.07714 0.0
C748 C 0.64483 0.58429 0.07701 0.0
C749 C 0.70846 0.56601 0.07043 0.0
C750 C 0.66856 0.56721 0.03705 0.0
C751 C 0.66519 0.537 0.07567 0.0
O752 O 0.67741 0.54233 0.07341 0.0
O753 O 0.65402 0.54418 0.07316 0.0
O754 O 0.7047 0.55558 0.06249 0.0
O755 O 0.69851 0.57398 0.07549 0.0
O756 O 0.44774 0.67952 0.07046 0.0
Cd757 Cd 0.42731 0.68595 0.06468 0.0
Cd758 Cd 0.42717 0.65487 0.06744 0.0
O759 O 0.44708 0.65678 0.07619 0.0
O760 O 0.43315 0.70372 0.0549 0.0
O761 O 0.41948 0.70412 0.07384 0.0
C762 C 0.42598 0.71101 0.06392 0.0
C763 C 0.40715 0.64557 0.07852 0.0
C764 C 0.4539 0.66839 0.07508 0.0
C765 C 0.41906 0.66675 0.04013 0.0
O766 O 0.42588 0.65651 0.04566 0.0
O767 O 0.41632 0.67782 0.04735 0.0
O768 O 0.41696 0.63733 0.07354 0.0
O769 O 0.40924 0.65917 0.07802 0.0
O770 O 0.34342 0.4293 0.04431 0.0
Cd771 Cd 0.3454 0.43078 0.06609 0.0
Cd772 Cd 0.31552 0.42951 0.065 0.0
O773 O 0.32176 0.42047 0.0459 0.0
O774 O 0.36283 0.4206 0.07234 0.0
O775 O 0.34092 0.41312 0.077 0.0
C776 C 0.35451 0.411 0.07759 0.0
C777 C 0.29108 0.42566 0.06927 0.0
C778 C 0.33281 0.42318 0.03863 0.0
C779 C 0.33176 0.45716 0.07378 0.0
O780 O 0.32071 0.45047 0.06974 0.0
O781 O 0.34361 0.45077 0.07465 0.0
O782 O 0.29568 0.43357 0.05917 0.0
O783 O 0.30043 0.41954 0.07721 0.0
O784 O 0.95037 0.57187 0.65255 0.0
Cd785 Cd 0.92893 0.57024 0.64848 0.0
Cd786 Cd 0.92862 0.56924 0.68065 0.0
O787 O 0.94797 0.57825 0.67505 0.0
O788 O 0.92564 0.57865 0.62937 0.0
O789 O 0.91766 0.58831 0.64934 0.0
C790 C 0.91924 0.58902 0.63569 0.0
C791 C 0.9262 0.56828 0.70563 0.0
C792 C 0.95559 0.5768 0.66398 0.0
C793 C 0.91883 0.5437 0.66096 0.0
O794 O 0.92185 0.54982 0.67264 0.0
O795 O 0.92014 0.55029 0.64926 0.0
O796 O 0.93531 0.56082 0.69879 0.0
O797 O 0.91838 0.57689 0.69837 0.0
O798 O 0.4481 0.92958 0.68577 0.0
Cd799 Cd 0.42769 0.93791 0.68741 0.0
Cd800 Cd 0.43207 0.93248 0.65808 0.0
O801 O 0.45056 0.92225 0.66363 0.0
O802 O 0.42994 0.94731 0.70616 0.0
O803 O 0.41479 0.92977 0.70299 0.0
C804 C 0.42035 0.93912 0.71133 0.0
C805 C 0.41112 0.92241 0.65002 0.0
C806 C 0.45544 0.92351 0.67616 0.0
C807 C 0.42649 0.96188 0.66553 0.0
O808 O 0.43308 0.95424 0.65658 0.0
O809 O 0.4219 0.95648 0.67703 0.0
O810 O 0.42168 0.92453 0.64145 0.0
O811 O 0.41296 0.92503 0.66341 0.0
O812 O 0.05006 0.42546 0.66015 0.0
Cd813 Cd 0.07179 0.42663 0.65809 0.0
Cd814 Cd 0.07081 0.42508 0.68877 0.0
O815 O 0.05142 0.41699 0.68199 0.0
O816 O 0.0777 0.41635 0.6406 0.0
O817 O 0.08209 0.4086 0.66248 0.0
C818 C 0.08251 0.40648 0.64888 0.0
C819 C 0.07354 0.42212 0.71358 0.0
C820 C 0.04425 0.4196 0.67084 0.0
C821 C 0.08125 0.45228 0.67229 0.0
O822 O 0.07747 0.44542 0.68332 0.0
O823 O 0.08084 0.4464 0.66015 0.0
O824 O 0.06424 0.43043 0.70809 0.0
O825 O 0.08148 0.41502 0.70495 0.0
O826 O 0.54645 0.08198 0.68244 0.0
Cd827 Cd 0.56331 0.07033 0.69016 0.0
Cd828 Cd 0.5672 0.06815 0.66028 0.0
O829 O 0.54763 0.07825 0.65932 0.0
O830 O 0.557 0.07027 0.71027 0.0
O831 O 0.57783 0.07884 0.70399 0.0
C832 C 0.56879 0.07608 0.71392 0.0
C833 C 0.58799 0.07748 0.65075 0.0
C834 C 0.54124 0.08338 0.67007 0.0
C835 C 0.56506 0.04092 0.67606 0.0
O836 O 0.56719 0.04657 0.66399 0.0
O837 O 0.5632 0.04856 0.68704 0.0
O838 O 0.57837 0.07189 0.6427 0.0
O839 O 0.58544 0.07839 0.66424 0.0
O840 O 0.95691 0.43289 0.34563 0.0
Cd841 Cd 0.93513 0.43145 0.34727 0.0
Cd842 Cd 0.93845 0.42974 0.31516 0.0
O843 O 0.95808 0.42434 0.32376 0.0
O844 O 0.9307 0.42418 0.36665 0.0
O845 O 0.92656 0.41189 0.34699 0.0
C846 C 0.92648 0.41254 0.36073 0.0
C847 C 0.93906 0.42773 0.29011 0.0
C848 C 0.96409 0.42795 0.33532 0.0
C849 C 0.92273 0.45491 0.331 0.0
O850 O 0.92796 0.44843 0.32034 0.0
O851 O 0.92374 0.44968 0.3434 0.0
O852 O 0.93113 0.41928 0.29744 0.0
O853 O 0.94646 0.43689 0.29697 0.0
O854 O 0.54858 0.92964 0.31765 0.0
Cd855 Cd 0.56865 0.93854 0.3151 0.0
Cd856 Cd 0.56557 0.93243 0.34471 0.0
O857 O 0.54696 0.92208 0.3398 0.0
O858 O 0.56493 0.9483 0.29675 0.0
O859 O 0.58064 0.93108 0.2985 0.0
C860 C 0.57425 0.94039 0.29073 0.0
C861 C 0.58684 0.92234 0.35187 0.0
C862 C 0.54166 0.92335 0.32744 0.0
C863 C 0.57067 0.96201 0.33752 0.0
O864 O 0.56448 0.95415 0.34658 0.0
O865 O 0.57479 0.9569 0.32571 0.0
O866 O 0.5766 0.92434 0.36084 0.0
O867 O 0.5845 0.92513 0.3386 0.0
O868 O 0.04837 0.57406 0.34967 0.0
Cd869 Cd 0.07022 0.57245 0.34871 0.0
Cd870 Cd 0.06615 0.56954 0.31831 0.0
O871 O 0.04609 0.57283 0.32635 0.0
O872 O 0.07804 0.58272 0.36544 0.0
O873 O 0.0804 0.59031 0.34323 0.0
C874 C 0.08219 0.59248 0.3567 0.0
C875 C 0.06563 0.57458 0.29378 0.0
C876 C 0.04065 0.57413 0.33862 0.0
C877 C 0.08007 0.54531 0.33529 0.0
O878 O 0.07613 0.55076 0.32356 0.0
O879 O 0.07889 0.55225 0.34685 0.0
O880 O 0.05899 0.56402 0.29925 0.0
O881 O 0.07339 0.58223 0.30208 0.0
O882 O 0.45401 0.07775 0.32312 0.0
Cd883 Cd 0.43789 0.06782 0.31205 0.0
Cd884 Cd 0.42839 0.06565 0.34219 0.0
O885 O 0.44831 0.07441 0.34568 0.0
O886 O 0.44817 0.06666 0.29362 0.0
O887 O 0.42756 0.07747 0.29544 0.0
C888 C 0.43806 0.07352 0.28757 0.0
C889 C 0.40789 0.07444 0.35313 0.0
C890 C 0.45697 0.0788 0.33626 0.0
C891 C 0.43109 0.03865 0.32549 0.0
O892 O 0.42773 0.04432 0.33728 0.0
O893 O 0.43513 0.04621 0.31504 0.0
O894 O 0.41748 0.06774 0.36027 0.0
O895 O 0.41023 0.07677 0.33979 0.0
O896 O 0.65912 0.9504 0.57324 0.0
Cd897 Cd 0.65549 0.92902 0.56993 0.0
Cd898 Cd 0.68528 0.92827 0.57032 0.0
O899 O 0.68136 0.9476 0.58011 0.0
O900 O 0.63606 0.92492 0.57717 0.0
O901 O 0.65569 0.91664 0.58727 0.0
C902 C 0.642 0.91798 0.58741 0.0
C903 C 0.70753 0.91823 0.57536 0.0
C904 C 0.67041 0.95538 0.57874 0.0
C905 C 0.66871 0.92225 0.54262 0.0
O906 O 0.68016 0.92553 0.54903 0.0
O907 O 0.65707 0.92162 0.54942 0.0
O908 O 0.70626 0.92983 0.56831 0.0
O909 O 0.69613 0.91221 0.58005 0.0
O910 O 0.65745 0.04934 0.43019 0.0
Cd911 Cd 0.65353 0.07074 0.4328 0.0
Cd912 Cd 0.6859 0.07042 0.43361 0.0
O913 O 0.6797 0.05205 0.42308 0.0
O914 O 0.63385 0.07413 0.42582 0.0
O915 O 0.65301 0.08288 0.41525 0.0
C916 C 0.63935 0.08122 0.41544 0.0
C917 C 0.71098 0.072 0.43383 0.0
C918 C 0.66865 0.0444 0.4245 0.0
C919 C 0.66661 0.07917 0.45975 0.0
O920 O 0.67824 0.07603 0.45359 0.0
O921 O 0.65494 0.07872 0.45301 0.0
O922 O 0.7041 0.06262 0.44091 0.0
O923 O 0.70367 0.08076 0.42623 0.0
O924 O 0.9527 0.65843 0.43114 0.0
Cd925 Cd 0.93106 0.65641 0.4337 0.0
Cd926 Cd 0.93238 0.68675 0.42859 0.0
O927 O 0.95062 0.67855 0.4193 0.0
O928 O 0.92543 0.63706 0.42732 0.0
O929 O 0.91968 0.65683 0.41576 0.0
C930 C 0.91975 0.64308 0.41634 0.0
C931 C 0.92997 0.7111 0.42293 0.0
C932 C 0.95805 0.66799 0.42325 0.0
C933 C 0.92411 0.67374 0.45822 0.0
O934 O 0.92798 0.6838 0.45004 0.0
O935 O 0.92313 0.66113 0.4535 0.0
O936 O 0.94013 0.70627 0.43062 0.0
O937 O 0.92084 0.70206 0.41816 0.0
O938 O 0.34454 0.94448 0.43542 0.0
Cd939 Cd 0.34625 0.92279 0.43745 0.0
Cd940 Cd 0.31636 0.9234 0.43226 0.0
O941 O 0.32449 0.942 0.42356 0.0
O942 O 0.36359 0.91576 0.42762 0.0
O943 O 0.3416 0.9122 0.41973 0.0
C944 C 0.35518 0.91115 0.41776 0.0
C945 C 0.29212 0.92164 0.42628 0.0
C946 C 0.33491 0.94965 0.42751 0.0
C947 C 0.32939 0.91418 0.46162 0.0
O948 O 0.31921 0.91771 0.45344 0.0
O949 O 0.34212 0.91438 0.45713 0.0
O950 O 0.29699 0.93125 0.43461 0.0
O951 O 0.30103 0.91255 0.42118 0.0
O952 O 0.05645 0.35454 0.44026 0.0
Cd953 Cd 0.07824 0.35586 0.44072 0.0
Cd954 Cd 0.07636 0.32548 0.43519 0.0
O955 O 0.05662 0.33364 0.42957 0.0
O956 O 0.08436 0.37423 0.43224 0.0
O957 O 0.08774 0.35324 0.42194 0.0
C958 C 0.08856 0.36698 0.42133 0.0
C959 C 0.07807 0.30111 0.42935 0.0
C960 C 0.04997 0.34465 0.43374 0.0
C961 C 0.08893 0.33813 0.46355 0.0
O962 O 0.08475 0.32818 0.4554 0.0
O963 O 0.08802 0.35101 0.45963 0.0
O964 O 0.06941 0.30589 0.43872 0.0
O965 O 0.08587 0.31026 0.42276 0.0
O966 O 0.34827 0.05046 0.57102 0.0
Cd967 Cd 0.35201 0.07188 0.56821 0.0
Cd968 Cd 0.32108 0.0731 0.56778 0.0
O969 O 0.32478 0.05163 0.57082 0.0
O970 O 0.37133 0.0758 0.57591 0.0
O971 O 0.35155 0.08396 0.58579 0.0
C972 C 0.36524 0.08261 0.58615 0.0
C973 C 0.29757 0.07973 0.57324 0.0
C974 C 0.33619 0.04445 0.5718 0.0
C975 C 0.3388 0.08382 0.54218 0.0
O976 O 0.32717 0.08228 0.54886 0.0
O977 O 0.35049 0.08006 0.54781 0.0
O978 O 0.30071 0.07191 0.56254 0.0
O979 O 0.30781 0.08374 0.58142 0.0
O980 O 0.95528 0.34489 0.57531 0.0
Cd981 Cd 0.93417 0.34946 0.57179 0.0
Cd982 Cd 0.93271 0.32045 0.56391 0.0
O983 O 0.95417 0.32249 0.56837 0.0
O984 O 0.92994 0.36698 0.58289 0.0
O985 O 0.92083 0.34588 0.58809 0.0
C986 C 0.92237 0.35917 0.59127 0.0
C987 C 0.92441 0.29706 0.56725 0.0
C988 C 0.96128 0.33302 0.57297 0.0
C989 C 0.92473 0.34306 0.54208 0.0
O990 O 0.92513 0.33006 0.54571 0.0
O991 O 0.92813 0.35277 0.55086 0.0
O992 O 0.93259 0.30054 0.5569 0.0
O993 O 0.92066 0.30696 0.57597 0.0
O994 O 0.05169 0.65353 0.56912 0.0
Cd995 Cd 0.07347 0.65154 0.5688 0.0
Cd996 Cd 0.0713 0.68301 0.57117 0.0
O997 O 0.05139 0.67559 0.57723 0.0
O998 O 0.07809 0.63222 0.57605 0.0
O999 O 0.08327 0.65204 0.58772 0.0
C1000 C 0.08301 0.63828 0.58734 0.0
C1001 C 0.07367 0.70781 0.57458 0.0
C1002 C 0.04497 0.66406 0.57425 0.0
C1003 C 0.08412 0.66744 0.54438 0.0
O1004 O 0.07975 0.67812 0.55142 0.0
O1005 O 0.08339 0.65503 0.54963 0.0
O1006 O 0.06502 0.70238 0.56556 0.0
O1007 O 0.08093 0.69913 0.58231 0.0
O1008 O 0.40769 0.32218 0.04627 0.0
Cd1009 Cd 0.4073 0.32027 0.06818 0.0
Cd1010 Cd 0.43578 0.31921 0.06453 0.0
O1011 O 0.43025 0.32844 0.0454 0.0
O1012 O 0.38999 0.33035 0.07487 0.0
O1013 O 0.41193 0.33795 0.07906 0.0
C1014 C 0.39835 0.34007 0.07979 0.0
C1015 C 0.45892 0.32444 0.07246 0.0
C1016 C 0.41825 0.32703 0.03937 0.0
C1017 C 0.41895 0.29237 0.0728 0.0
O1018 O 0.4299 0.29813 0.06735 0.0
O1019 O 0.40826 0.29987 0.07617 0.0
O1020 O 0.45655 0.3161 0.06192 0.0
O1021 O 0.4481 0.33016 0.07866 0.0
O1022 O 0.70395 0.42407 0.07263 0.0
Cd1023 Cd 0.68437 0.43158 0.06547 0.0
Cd1024 Cd 0.68058 0.40179 0.06617 0.0
O1025 O 0.70108 0.40078 0.07369 0.0
O1026 O 0.68987 0.45194 0.06413 0.0
O1027 O 0.6723 0.44471 0.07787 0.0
C1028 C 0.68012 0.45495 0.07319 0.0
C1029 C 0.66068 0.39295 0.07788 0.0
C1030 C 0.70883 0.41173 0.07524 0.0
C1031 C 0.6767 0.41577 0.03811 0.0
O1032 O 0.67839 0.40406 0.04461 0.0
O1033 O 0.67783 0.42755 0.04468 0.0
O1034 O 0.66969 0.38455 0.07181 0.0
O1035 O 0.66349 0.40643 0.07803 0.0
O1036 O 0.59105 0.67622 0.04914 0.0
Cd1037 Cd 0.59229 0.6764 0.07087 0.0
Cd1038 Cd 0.56215 0.68371 0.0683 0.0
O1039 O 0.56759 0.67737 0.04776 0.0
O1040 O 0.60959 0.66519 0.07562 0.0
O1041 O 0.58777 0.65814 0.081 0.0
C1042 C 0.60127 0.65554 0.08071 0.0
C1043 C 0.53742 0.68247 0.07259 0.0
C1044 C 0.57968 0.67574 0.0419 0.0
C1045 C 0.58404 0.70487 0.08133 0.0
O1046 O 0.5715 0.7017 0.07733 0.0
O1047 O 0.59415 0.69601 0.08015 0.0
O1048 O 0.543 0.69201 0.06456 0.0
O1049 O 0.54587 0.67334 0.07835 0.0
O1050 O 0.29266 0.57083 0.06803 0.0
Cd1051 Cd 0.31317 0.56451 0.06298 0.0
Cd1052 Cd 0.3151 0.59371 0.06837 0.0
O1053 O 0.29509 0.59219 0.07735 0.0
O1054 O 0.30808 0.54481 0.05724 0.0
O1055 O 0.32302 0.5491 0.07474 0.0
C1056 C 0.31609 0.54 0.06718 0.0
C1057 C 0.33549 0.60216 0.0795 0.0
C1058 C 0.28732 0.58158 0.07424 0.0
C1059 C 0.32093 0.58406 0.03896 0.0
O1060 O 0.31624 0.59429 0.04643 0.0
O1061 O 0.32224 0.57173 0.04431 0.0
O1062 O 0.32556 0.61073 0.0754 0.0
O1063 O 0.33327 0.58864 0.07825 0.0
O1064 O 0.4095 0.67922 0.95075 0.0
Cd1065 Cd 0.40648 0.68296 0.92927 0.0
Cd1066 Cd 0.43702 0.68486 0.93053 0.0
O1067 O 0.43247 0.67457 0.94935 0.0
O1068 O 0.38711 0.67553 0.92511 0.0
O1069 O 0.40677 0.6657 0.91669 0.0
C1070 C 0.3931 0.66537 0.91812 0.0
C1071 C 0.46076 0.68218 0.92319 0.0
C1072 C 0.42091 0.67458 0.95633 0.0
C1073 C 0.41847 0.71122 0.92378 0.0
O1074 O 0.4301 0.70555 0.92766 0.0
O1075 O 0.40737 0.70372 0.92212 0.0
O1076 O 0.45727 0.68987 0.93389 0.0
O1077 O 0.45078 0.67556 0.91652 0.0
O1078 O 0.30181 0.43181 0.91704 0.0
Cd1079 Cd 0.32085 0.43924 0.92552 0.0
Cd1080 Cd 0.32356 0.40919 0.92721 0.0
O1081 O 0.3035 0.40844 0.91867 0.0
O1082 O 0.3157 0.45972 0.92623 0.0
O1083 O 0.33409 0.45196 0.91397 0.0
C1084 C 0.32632 0.46248 0.91811 0.0
C1085 C 0.34367 0.40009 0.91629 0.0
C1086 C 0.29652 0.41948 0.91527 0.0
C1087 C 0.32696 0.42468 0.95427 0.0
O1088 O 0.32526 0.41251 0.94869 0.0
O1089 O 0.32614 0.43588 0.94674 0.0
O1090 O 0.33452 0.39182 0.92236 0.0
O1091 O 0.34091 0.41356 0.91573 0.0
O1092 O 0.59745 0.32041 0.95053 0.0
Cd1093 Cd 0.59734 0.31879 0.92861 0.0
Cd1094 Cd 0.56878 0.31717 0.93296 0.0
O1095 O 0.57488 0.32656 0.95181 0.0
O1096 O 0.61377 0.32994 0.9214 0.0
O1097 O 0.59128 0.33635 0.91829 0.0
C1098 C 0.60467 0.33927 0.91704 0.0
C1099 C 0.54482 0.32045 0.92671 0.0
C1100 C 0.587 0.32523 0.95762 0.0
C1101 C 0.5859 0.29083 0.92352 0.0
O1102 O 0.57504 0.29639 0.92933 0.0
O1103 O 0.59647 0.29853 0.92015 0.0
O1104 O 0.54861 0.31264 0.93723 0.0
O1105 O 0.55464 0.32701 0.91973 0.0
O1106 O 0.70521 0.5702 0.91324 0.0
Cd1107 Cd 0.6878 0.56198 0.92377 0.0
Cd1108 Cd 0.68286 0.59112 0.92796 0.0
O1109 O 0.70332 0.59265 0.91985 0.0
O1110 O 0.69119 0.54137 0.92054 0.0
O1111 O 0.67126 0.5519 0.91409 0.0
C1112 C 0.67872 0.54042 0.91504 0.0
C1113 C 0.66414 0.60487 0.91937 0.0
C1114 C 0.71025 0.58272 0.91383 0.0
C1115 C 0.68381 0.57291 0.9539 0.0
O1116 O 0.68071 0.58503 0.94885 0.0
O1117 O 0.68765 0.56282 0.94578 0.0
O1118 O 0.67425 0.61041 0.9268 0.0
O1119 O 0.66503 0.59153 0.91618 0.0
O1120 O 0.05494 0.40853 0.32331 0.0
Cd1121 Cd 0.07666 0.40678 0.32297 0.0
Cd1122 Cd 0.07462 0.43778 0.31925 0.0
O1123 O 0.05379 0.43202 0.32431 0.0
O1124 O 0.08119 0.38834 0.33227 0.0
O1125 O 0.08712 0.40921 0.34144 0.0
C1126 C 0.0867 0.39551 0.34259 0.0
C1127 C 0.07927 0.46229 0.32186 0.0
C1128 C 0.04778 0.41989 0.32465 0.0
C1129 C 0.08792 0.41815 0.29603 0.0
O1130 O 0.08424 0.43024 0.30082 0.0
O1131 O 0.08603 0.40693 0.30328 0.0
O1132 O 0.07127 0.45736 0.31198 0.0
O1133 O 0.08452 0.45334 0.33083 0.0
O1134 O 0.58953 0.05271 0.32405 0.0
Cd1135 Cd 0.58967 0.07462 0.32258 0.0
Cd1136 Cd 0.56115 0.07018 0.32225 0.0
O1137 O 0.56728 0.05109 0.33119 0.0
O1138 O 0.60867 0.0805 0.32976 0.0
O1139 O 0.58854 0.08529 0.34102 0.0
C1140 C 0.60229 0.08558 0.34079 0.0
C1141 C 0.53892 0.07917 0.32897 0.0
C1142 C 0.57936 0.0454 0.32914 0.0
C1143 C 0.57635 0.0795 0.29513 0.0
O1144 O 0.56582 0.07327 0.30091 0.0
O1145 O 0.587 0.08316 0.30258 0.0
O1146 O 0.54012 0.06791 0.32134 0.0
O1147 O 0.55038 0.08543 0.33318 0.0
O1148 O 0.95134 0.58561 0.32766 0.0
Cd1149 Cd 0.93011 0.59058 0.32442 0.0
Cd1150 Cd 0.92807 0.56039 0.32048 0.0
O1151 O 0.94936 0.56237 0.32476 0.0
O1152 O 0.92788 0.61025 0.3319 0.0
O1153 O 0.91759 0.59153 0.34179 0.0
C1154 C 0.92022 0.60502 0.34199 0.0
C1155 C 0.91924 0.53779 0.32665 0.0
C1156 C 0.95687 0.57329 0.32729 0.0
C1157 C 0.92064 0.58023 0.29583 0.0
O1158 O 0.92192 0.56777 0.30088 0.0
O1159 O 0.92285 0.59111 0.30354 0.0
O1160 O 0.92727 0.53977 0.31581 0.0
O1161 O 0.91583 0.54874 0.33415 0.0
O1162 O 0.40947 0.94744 0.32916 0.0
Cd1163 Cd 0.40651 0.92597 0.32642 0.0
Cd1164 Cd 0.43457 0.92651 0.31711 0.0
O1165 O 0.43106 0.94809 0.32001 0.0
O1166 O 0.38945 0.92104 0.33788 0.0
O1167 O 0.4111 0.9133 0.34301 0.0
C1168 C 0.39777 0.9141 0.3463 0.0
C1169 C 0.45793 0.9195 0.32253 0.0
C1170 C 0.42039 0.95441 0.32538 0.0
C1171 C 0.41205 0.91566 0.29682 0.0
O1172 O 0.42519 0.91688 0.29972 0.0
O1173 O 0.40265 0.91909 0.30591 0.0
O1174 O 0.45486 0.92631 0.31109 0.0
O1175 O 0.44762 0.9163 0.33101 0.0
O1176 O 0.04544 0.58562 0.67565 0.0
Cd1177 Cd 0.06696 0.58809 0.6794 0.0
Cd1178 Cd 0.06621 0.55822 0.67747 0.0
O1179 O 0.04691 0.56336 0.66835 0.0
O1180 O 0.072 0.60753 0.67276 0.0
O1181 O 0.07954 0.58788 0.66217 0.0
C1182 C 0.07874 0.60161 0.66238 0.0
C1183 C 0.0748 0.53557 0.67129 0.0
C1184 C 0.03981 0.57475 0.66992 0.0
C1185 C 0.07252 0.57335 0.70609 0.0
O1186 O 0.06907 0.56243 0.6989 0.0
O1187 O 0.07391 0.58534 0.70004 0.0
O1188 O 0.06408 0.53728 0.67954 0.0
O1189 O 0.08075 0.54677 0.66608 0.0
O1190 O 0.40893 0.05274 0.68051 0.0
Cd1191 Cd 0.40944 0.07467 0.68171 0.0
Cd1192 Cd 0.4378 0.07035 0.68091 0.0
O1193 O 0.43122 0.05073 0.67363 0.0
O1194 O 0.39106 0.08142 0.67374 0.0
O1195 O 0.41185 0.08488 0.66316 0.0
C1196 C 0.39813 0.08589 0.66284 0.0
C1197 C 0.45934 0.07846 0.67144 0.0
C1198 C 0.41907 0.04522 0.67569 0.0
C1199 C 0.42402 0.08076 0.70845 0.0
O1200 O 0.43453 0.07489 0.70228 0.0
O1201 O 0.41274 0.08349 0.70154 0.0
O1202 O 0.45884 0.06827 0.68052 0.0
O1203 O 0.44755 0.08429 0.66755 0.0
O1204 O 0.95402 0.41233 0.67963 0.0
Cd1205 Cd 0.93225 0.41082 0.68245 0.0
Cd1206 Cd 0.93438 0.43954 0.68294 0.0
O1207 O 0.95322 0.43473 0.67281 0.0
O1208 O 0.92566 0.39358 0.67213 0.0
O1209 O 0.92078 0.41561 0.66521 0.0
C1210 C 0.92034 0.40207 0.66273 0.0
C1211 C 0.92548 0.46244 0.67859 0.0
C1212 C 0.96003 0.42314 0.67416 0.0
C1213 C 0.92788 0.42273 0.71032 0.0
O1214 O 0.93254 0.43381 0.70413 0.0
O1215 O 0.92482 0.41172 0.70314 0.0
O1216 O 0.93661 0.46031 0.68617 0.0
O1217 O 0.9193 0.45156 0.67298 0.0
O1218 O 0.58739 0.95026 0.67596 0.0
Cd1219 Cd 0.59197 0.92927 0.67996 0.0
Cd1220 Cd 0.56233 0.92889 0.68796 0.0
O1221 O 0.56538 0.9504 0.68417 0.0
O1222 O 0.61132 0.92666 0.6718 0.0
O1223 O 0.59225 0.91595 0.66315 0.0
C1224 C 0.60571 0.91854 0.6623 0.0
C1225 C 0.53916 0.92126 0.68245 0.0
C1226 C 0.57599 0.95688 0.67887 0.0
C1227 C 0.58441 0.91953 0.70956 0.0
O1228 O 0.5714 0.92006 0.70592 0.0
O1229 O 0.59417 0.92323 0.70098 0.0
O1230 O 0.54193 0.92858 0.69365 0.0
O1231 O 0.54966 0.9179 0.67428 0.0
O1232 O 0.30059 0.06475 0.43734 0.0
Cd1233 Cd 0.32218 0.06173 0.44077 0.0
Cd1234 Cd 0.3203 0.0605 0.41199 0.0
O1235 O 0.29963 0.06789 0.41413 0.0
O1236 O 0.32251 0.0628 0.46189 0.0
O1237 O 0.33543 0.07707 0.44844 0.0
C1238 C 0.33158 0.07296 0.46094 0.0
C1239 C 0.33913 0.07221 0.40112 0.0
C1240 C 0.29348 0.06751 0.42616 0.0
C1241 C 0.32897 0.03388 0.42645 0.0
O1242 O 0.32374 0.03899 0.41508 0.0
O1243 O 0.33027 0.04164 0.43742 0.0
O1244 O 0.32934 0.06609 0.39365 0.0
O1245 O 0.33757 0.07259 0.41479 0.0
O1246 O 0.29534 0.92234 0.57586 0.0
Cd1247 Cd 0.3127 0.93172 0.56627 0.0
Cd1248 Cd 0.32076 0.93508 0.59426 0.0
O1249 O 0.30016 0.92817 0.59806 0.0
O1250 O 0.30817 0.92828 0.54591 0.0
O1251 O 0.32812 0.92084 0.55573 0.0
C1252 C 0.3202 0.92194 0.54458 0.0
C1253 C 0.34044 0.92462 0.60508 0.0
C1254 C 0.29174 0.92294 0.58886 0.0
C1255 C 0.31927 0.96147 0.57678 0.0
O1256 O 0.32333 0.95604 0.58845 0.0
O1257 O 0.31409 0.9537 0.56701 0.0
O1258 O 0.33175 0.93253 0.61216 0.0
O1259 O 0.33759 0.92211 0.59187 0.0
O1260 O 0.04958 0.31826 0.58893 0.0
Cd1261 Cd 0.07075 0.31605 0.59389 0.0
Cd1262 Cd 0.07415 0.31142 0.56559 0.0
O1263 O 0.05211 0.31208 0.56644 0.0
O1264 O 0.07434 0.32682 0.61172 0.0
O1265 O 0.08304 0.33317 0.59074 0.0
C1266 C 0.0814 0.33583 0.60414 0.0
C1267 C 0.08371 0.32169 0.54499 0.0
C1268 C 0.04421 0.3156 0.57683 0.0
C1269 C 0.08391 0.28841 0.58572 0.0
O1270 O 0.08418 0.29344 0.57319 0.0
O1271 O 0.07846 0.29553 0.59584 0.0
O1272 O 0.07781 0.30936 0.54488 0.0
O1273 O 0.08446 0.32835 0.55696 0.0
O1274 O 0.70151 0.071 0.57415 0.0
Cd1275 Cd 0.68125 0.06647 0.56684 0.0
Cd1276 Cd 0.67958 0.06698 0.59705 0.0
O1277 O 0.69958 0.07602 0.59696 0.0
O1278 O 0.68736 0.0626 0.54699 0.0
O1279 O 0.67189 0.07942 0.55207 0.0
C1280 C 0.67937 0.07278 0.5427 0.0
C1281 C 0.65936 0.07738 0.60663 0.0
C1282 C 0.70705 0.07513 0.58576 0.0
C1283 C 0.67324 0.03972 0.58274 0.0
O1284 O 0.67813 0.04522 0.59407 0.0
O1285 O 0.67199 0.04711 0.5715 0.0
O1286 O 0.66898 0.07179 0.6147 0.0
O1287 O 0.66174 0.07785 0.59309 0.0
O1288 O 0.95501 0.68321 0.59383 0.0
Cd1289 Cd 0.93309 0.68522 0.59404 0.0
Cd1290 Cd 0.93699 0.68405 0.56528 0.0
O1291 O 0.95622 0.67566 0.57168 0.0
O1292 O 0.92629 0.67701 0.61228 0.0
O1293 O 0.92194 0.66729 0.59123 0.0
C1294 C 0.9211 0.66662 0.60495 0.0
C1295 C 0.92971 0.6777 0.5422 0.0
C1296 C 0.9621 0.67788 0.58363 0.0
C1297 C 0.92834 0.71206 0.58006 0.0
O1298 O 0.93367 0.70539 0.56958 0.0
O1299 O 0.92515 0.70548 0.5914 0.0
O1300 O 0.94017 0.68617 0.54447 0.0
O1301 O 0.92331 0.67237 0.55309 0.0
O1302 O 0.70193 0.92284 0.42557 0.0
Cd1303 Cd 0.68386 0.93158 0.43492 0.0
Cd1304 Cd 0.67958 0.93402 0.4036 0.0
O1305 O 0.69964 0.92548 0.40231 0.0
O1306 O 0.69228 0.93429 0.45413 0.0
O1307 O 0.67355 0.9207 0.45063 0.0
C1308 C 0.68274 0.92603 0.45931 0.0
C1309 C 0.65944 0.92353 0.39382 0.0
C1310 C 0.70679 0.92145 0.41302 0.0
C1311 C 0.67597 0.96027 0.42041 0.0
O1312 O 0.6778 0.95529 0.40801 0.0
O1313 O 0.67717 0.95237 0.43132 0.0
O1314 O 0.66858 0.93011 0.38595 0.0
O1315 O 0.66219 0.92226 0.40724 0.0
O1316 O 0.04779 0.67784 0.41305 0.0
Cd1317 Cd 0.06932 0.68163 0.41077 0.0
Cd1318 Cd 0.0694 0.67975 0.43983 0.0
O1319 O 0.0496 0.67131 0.4355 0.0
O1320 O 0.07583 0.67244 0.39289 0.0
O1321 O 0.08178 0.66484 0.41443 0.0
C1322 C 0.08198 0.66302 0.40078 0.0
C1323 C 0.07896 0.67231 0.46166 0.0
C1324 C 0.04229 0.67254 0.42421 0.0
C1325 C 0.07544 0.70844 0.42487 0.0
O1326 O 0.07257 0.7012 0.43593 0.0
O1327 O 0.07614 0.7024 0.41281 0.0
O1328 O 0.06858 0.68112 0.4609 0.0
O1329 O 0.0841 0.66738 0.44995 0.0
O1330 O 0.96128 0.32266 0.41246 0.0
Cd1331 Cd 0.9395 0.3201 0.41156 0.0
Cd1332 Cd 0.94212 0.32306 0.43991 0.0
O1333 O 0.96106 0.33236 0.43376 0.0
O1334 O 0.93366 0.3264 0.39222 0.0
O1335 O 0.92805 0.33808 0.41191 0.0
C1336 C 0.92807 0.33744 0.39816 0.0
C1337 C 0.9315 0.33175 0.46071 0.0
C1338 C 0.96764 0.32929 0.42237 0.0
C1339 C 0.93514 0.2939 0.42739 0.0
O1340 O 0.94034 0.30119 0.43755 0.0
O1341 O 0.93186 0.29992 0.41575 0.0
O1342 O 0.94337 0.32501 0.46097 0.0
O1343 O 0.92552 0.33389 0.44855 0.0
H1344 H 0.09894 0.12112 0.41697 0.0
H1345 H 0.11929 0.16221 0.41882 0.0
H1346 H 0.14259 0.15093 0.41683 0.0
H1347 H 0.15719 0.12927 0.41776 0.0
H1348 H 0.13686 0.08817 0.41585 0.0
H1349 H 0.11359 0.09959 0.41441 0.0
C1350 C 0.10846 0.12762 0.41669 0.0
C1351 C 0.10737 0.14247 0.41826 0.0
C1352 C 0.12185 0.12106 0.41563 0.0
C1353 C 0.11981 0.15076 0.41769 0.0
C1354 C 0.13316 0.14431 0.41663 0.0
C1355 C 0.14769 0.12281 0.41675 0.0
C1356 C 0.14877 0.10788 0.41712 0.0
C1357 C 0.13432 0.12944 0.41607 0.0
C1358 C 0.13636 0.09968 0.41564 0.0
C1359 C 0.12302 0.1062 0.41491 0.0
H1360 H 0.88733 0.09844 0.41151 0.0
H1361 H 0.84545 0.11706 0.41401 0.0
H1362 H 0.85579 0.14082 0.41259 0.0
H1363 H 0.87684 0.15619 0.41438 0.0
H1364 H 0.91873 0.13759 0.41227 0.0
H1365 H 0.90826 0.11399 0.40953 0.0
C1366 C 0.88044 0.10769 0.41145 0.0
C1367 C 0.86566 0.10597 0.41312 0.0
C1368 C 0.88647 0.12135 0.41083 0.0
C1369 C 0.85687 0.11806 0.41283 0.0
C1370 C 0.86278 0.13167 0.4121 0.0
C1371 C 0.88368 0.14701 0.41301 0.0
C1372 C 0.89855 0.14863 0.41378 0.0
C1373 C 0.87759 0.13344 0.41167 0.0
C1374 C 0.90726 0.13665 0.4118 0.0
C1375 C 0.90127 0.12312 0.41033 0.0
H1376 H 0.86251 0.9063 0.40911 0.0
H1377 H 0.83919 0.86681 0.4096 0.0
H1378 H 0.86143 0.85346 0.40854 0.0
H1379 H 0.88745 0.85302 0.411 0.0
H1380 H 0.91066 0.89256 0.41251 0.0
H1381 H 0.88862 0.90584 0.40905 0.0
C1382 C 0.86229 0.89478 0.40863 0.0
C1383 C 0.84922 0.88756 0.40953 0.0
C1384 C 0.87515 0.88716 0.40855 0.0
C1385 C 0.84912 0.87262 0.40901 0.0
C1386 C 0.86184 0.86497 0.40845 0.0
C1387 C 0.88772 0.86452 0.41023 0.0
C1388 C 0.90066 0.87179 0.41211 0.0
C1389 C 0.87493 0.87212 0.40875 0.0
C1390 C 0.90082 0.88671 0.41119 0.0
C1391 C 0.88821 0.89432 0.40926 0.0
H1392 H 0.12817 0.84881 0.41215 0.0
H1393 H 0.08567 0.86603 0.41394 0.0
H1394 H 0.09523 0.89013 0.41261 0.0
H1395 H 0.11576 0.90623 0.41442 0.0
H1396 H 0.15826 0.88899 0.41289 0.0
H1397 H 0.14859 0.86503 0.41043 0.0
C1398 C 0.12097 0.85782 0.41197 0.0
C1399 C 0.10623 0.85562 0.41337 0.0
C1400 C 0.12656 0.87167 0.4114 0.0
C1401 C 0.09706 0.86741 0.41294 0.0
C1402 C 0.10253 0.88121 0.41227 0.0
C1403 C 0.12291 0.89726 0.41329 0.0
C1404 C 0.13771 0.89939 0.41407 0.0
C1405 C 0.11728 0.88347 0.41204 0.0
C1406 C 0.14683 0.88767 0.4124 0.0
C1407 C 0.1413 0.87393 0.41107 0.0
H1408 H 0.15399 0.8742 0.57964 0.0
H1409 H 0.13589 0.91599 0.58506 0.0
H1410 H 0.11223 0.90554 0.58771 0.0
H1411 H 0.09642 0.88479 0.58532 0.0
H1412 H 0.11466 0.84301 0.58004 0.0
H1413 H 0.13852 0.85318 0.58075 0.0
C1414 C 0.1449 0.881 0.58165 0.0
C1415 C 0.14666 0.89586 0.58194 0.0
C1416 C 0.13133 0.87493 0.58309 0.0
C1417 C 0.13482 0.90453 0.58475 0.0
C1418 C 0.12127 0.89856 0.58618 0.0
C1419 C 0.10563 0.87788 0.58459 0.0
C1420 C 0.10374 0.86319 0.58241 0.0
C1421 C 0.11934 0.88381 0.58489 0.0
C1422 C 0.11578 0.85436 0.58166 0.0
C1423 C 0.12945 0.86018 0.58198 0.0
H1424 H 0.12843 0.15385 0.58551 0.0
H1425 H 0.0876 0.13294 0.58668 0.0
H1426 H 0.09932 0.10985 0.58882 0.0
H1427 H 0.12113 0.09552 0.58699 0.0
H1428 H 0.16194 0.11653 0.58571 0.0
H1429 H 0.15026 0.13963 0.58723 0.0
C1430 C 0.12209 0.14426 0.58649 0.0
C1431 C 0.10717 0.14509 0.58571 0.0
C1432 C 0.1289 0.13102 0.58759 0.0
C1433 C 0.0991 0.1326 0.5872 0.0
C1434 C 0.1058 0.11937 0.58833 0.0
C1435 C 0.12749 0.10514 0.58732 0.0
C1436 C 0.14238 0.10429 0.58601 0.0
C1437 C 0.12069 0.11843 0.58803 0.0
C1438 C 0.15046 0.11686 0.58663 0.0
C1439 C 0.14378 0.1301 0.58741 0.0
H1440 H 0.90054 0.11984 0.58586 0.0
H1441 H 0.88137 0.16154 0.58612 0.0
H1442 H 0.85779 0.15084 0.58787 0.0
H1443 H 0.84258 0.12971 0.58578 0.0
H1444 H 0.86173 0.08801 0.585 0.0
H1445 H 0.8853 0.09865 0.58727 0.0
C1446 C 0.89123 0.12661 0.58658 0.0
C1447 C 0.89273 0.14147 0.58562 0.0
C1448 C 0.87766 0.12037 0.58737 0.0
C1449 C 0.88055 0.15007 0.58673 0.0
C1450 C 0.86703 0.14395 0.58767 0.0
C1451 C 0.85188 0.12292 0.5864 0.0
C1452 C 0.85039 0.10809 0.58499 0.0
C1453 C 0.86544 0.12912 0.58745 0.0
C1454 C 0.86255 0.09946 0.58598 0.0
C1455 C 0.87607 0.10554 0.58718 0.0
H1456 H 0.87004 0.84793 0.58024 0.0
H1457 H 0.9107 0.86914 0.5817 0.0
H1458 H 0.89879 0.89221 0.58257 0.0
H1459 H 0.87697 0.9063 0.57936 0.0
H1460 H 0.83633 0.885 0.57796 0.0
H1461 H 0.84808 0.86206 0.58085 0.0
C1462 C 0.87629 0.85759 0.58103 0.0
C1463 C 0.89122 0.85684 0.58067 0.0
C1464 C 0.86938 0.87082 0.5814 0.0
C1465 C 0.89918 0.86942 0.58191 0.0
C1466 C 0.89238 0.88264 0.58231 0.0
C1467 C 0.87066 0.89666 0.57997 0.0
C1468 C 0.85581 0.89735 0.5782 0.0
C1469 C 0.8775 0.88347 0.58152 0.0
C1470 C 0.84778 0.88478 0.57921 0.0
C1471 C 0.8545 0.87163 0.58078 0.0
H1472 H 0.41592 0.1123 0.14781 0.0
H1473 H 0.41103 0.08819 0.10909 0.0
H1474 H 0.41028 0.11018 0.0953 0.0
H1475 H 0.41427 0.13601 0.09395 0.0
H1476 H 0.42073 0.15986 0.1326 0.0
H1477 H 0.41746 0.1383 0.14667 0.0
C1478 C 0.41435 0.11185 0.13639 0.0
C1479 C 0.41364 0.09861 0.12949 0.0
C1480 C 0.4144 0.12453 0.12847 0.0
C1481 C 0.41169 0.09824 0.11467 0.0
C1482 C 0.41132 0.11082 0.10676 0.0
C1483 C 0.41467 0.13654 0.10546 0.0
C1484 C 0.41787 0.1495 0.1122 0.0
C1485 C 0.41317 0.124 0.11349 0.0
C1486 C 0.4184 0.14999 0.12713 0.0
C1487 C 0.41656 0.13766 0.1352 0.0
H1488 H 0.904 0.41511 0.11607 0.0
H1489 H 0.88842 0.41832 0.15912 0.0
H1490 H 0.86396 0.41779 0.15046 0.0
H1491 H 0.84722 0.42001 0.13052 0.0
H1492 H 0.86276 0.41687 0.08747 0.0
H1493 H 0.88696 0.41355 0.09629 0.0
C1494 C 0.89526 0.41539 0.12359 0.0
C1495 C 0.89805 0.41699 0.13821 0.0
C1496 C 0.88119 0.41525 0.11852 0.0
C1497 C 0.88659 0.41716 0.14781 0.0
C1498 C 0.87258 0.41696 0.14286 0.0
C1499 C 0.85586 0.41832 0.12307 0.0
C1500 C 0.85322 0.41893 0.10836 0.0
C1501 C 0.86978 0.41656 0.12821 0.0
C1502 C 0.8645 0.41652 0.09885 0.0
C1503 C 0.87837 0.41471 0.10388 0.0
H1504 H 0.58112 0.88653 0.1507 0.0
H1505 H 0.58182 0.91026 0.11149 0.0
H1506 H 0.58429 0.88821 0.09796 0.0
H1507 H 0.58275 0.86211 0.09712 0.0
H1508 H 0.57941 0.83846 0.13624 0.0
H1509 H 0.58167 0.86042 0.14995 0.0
C1510 C 0.58218 0.88688 0.13922 0.0
C1511 C 0.58127 0.89998 0.13209 0.0
C1512 C 0.58296 0.87411 0.13148 0.0
C1513 C 0.58245 0.90028 0.1172 0.0
C1514 C 0.58381 0.88767 0.10946 0.0
C1515 C 0.58289 0.86176 0.10865 0.0
C1516 C 0.5809 0.84872 0.11567 0.0
C1517 C 0.58356 0.8745 0.11645 0.0
C1518 C 0.58088 0.8484 0.13061 0.0
C1519 C 0.58212 0.86096 0.13845 0.0
H1520 H 0.09357 0.58138 0.11941 0.0
H1521 H 0.113 0.58331 0.1609 0.0
H1522 H 0.13644 0.58603 0.14996 0.0
H1523 H 0.15158 0.58441 0.12862 0.0
H1524 H 0.13198 0.58286 0.08715 0.0
H1525 H 0.10847 0.58375 0.09806 0.0
C1526 C 0.10291 0.58267 0.12605 0.0
C1527 C 0.10159 0.58192 0.14093 0.0
C1528 C 0.11634 0.58421 0.11969 0.0
C1529 C 0.11374 0.58381 0.14942 0.0
C1530 C 0.12716 0.58528 0.14316 0.0
C1531 C 0.14217 0.58459 0.12196 0.0
C1532 C 0.14355 0.58334 0.1071 0.0
C1533 C 0.12863 0.58499 0.12831 0.0
C1534 C 0.13125 0.58376 0.09861 0.0
C1535 C 0.11777 0.58416 0.10485 0.0
H1536 H 0.41589 0.88829 0.85346 0.0
H1537 H 0.42069 0.91401 0.89112 0.0
H1538 H 0.41882 0.89286 0.90606 0.0
H1539 H 0.41906 0.86688 0.90824 0.0
H1540 H 0.41647 0.84096 0.8705 0.0
H1541 H 0.41399 0.86227 0.85583 0.0
C1542 C 0.4162 0.88928 0.86495 0.0
C1543 C 0.4185 0.90267 0.87118 0.0
C1544 C 0.41564 0.87699 0.87347 0.0
C1545 C 0.41903 0.90379 0.88607 0.0
C1546 C 0.41799 0.8917 0.89462 0.0
C1547 C 0.4176 0.86588 0.89684 0.0
C1548 C 0.418 0.85237 0.89046 0.0
C1549 C 0.41676 0.8782 0.88842 0.0
C1550 C 0.41625 0.85126 0.87566 0.0
C1551 C 0.4149 0.86345 0.86725 0.0
H1552 H 0.11543 0.41769 0.85545 0.0
H1553 H 0.0922 0.41442 0.89487 0.0
H1554 H 0.11451 0.41275 0.90807 0.0
H1555 H 0.14052 0.41541 0.90867 0.0
H1556 H 0.16357 0.42057 0.86934 0.0
H1557 H 0.14151 0.41813 0.85588 0.0
C1558 C 0.11524 0.41629 0.8669 0.0
C1559 C 0.10218 0.41627 0.87417 0.0
C1560 C 0.12812 0.41583 0.87447 0.0
C1561 C 0.10212 0.41455 0.88902 0.0
C1562 C 0.11488 0.41364 0.89659 0.0
C1563 C 0.14075 0.41569 0.89714 0.0
C1564 C 0.15364 0.41826 0.89002 0.0
C1565 C 0.12794 0.41475 0.88947 0.0
C1566 C 0.15375 0.4187 0.87508 0.0
C1567 C 0.14114 0.41734 0.86737 0.0
H1568 H 0.58786 0.11248 0.85634 0.0
H1569 H 0.58743 0.08785 0.89504 0.0
H1570 H 0.58947 0.10957 0.90909 0.0
H1571 H 0.5877 0.13559 0.91044 0.0
H1572 H 0.58643 0.16019 0.87173 0.0
H1573 H 0.58897 0.13852 0.85767 0.0
C1574 C 0.58856 0.11184 0.86783 0.0
C1575 C 0.58734 0.09857 0.87463 0.0
C1576 C 0.58927 0.12441 0.87587 0.0
C1577 C 0.58822 0.09793 0.88954 0.0
C1578 C 0.58934 0.11037 0.89759 0.0
C1579 C 0.58833 0.13625 0.89894 0.0
C1580 C 0.58673 0.14947 0.89214 0.0
C1581 C 0.58932 0.12369 0.89089 0.0
C1582 C 0.58752 0.15013 0.87723 0.0
C1583 C 0.58892 0.13773 0.86917 0.0
H1584 H 0.86591 0.58485 0.90258 0.0
H1585 H 0.84048 0.58091 0.86461 0.0
H1586 H 0.86181 0.58265 0.84992 0.0
H1587 H 0.88781 0.58202 0.848 0.0
H1588 H 0.91338 0.58405 0.88603 0.0
H1589 H 0.89195 0.58656 0.90049 0.0
C1590 C 0.86502 0.58469 0.89108 0.0
C1591 C 0.85165 0.58266 0.8847 0.0
C1592 C 0.8774 0.58522 0.88269 0.0
C1593 C 0.85067 0.58237 0.86979 0.0
C1594 C 0.86287 0.58333 0.86137 0.0
C1595 C 0.88872 0.58335 0.85942 0.0
C1596 C 0.90217 0.58276 0.86593 0.0
C1597 C 0.87632 0.58428 0.86772 0.0
C1598 C 0.90314 0.58439 0.88075 0.0
C1599 C 0.89088 0.58577 0.88905 0.0
H1600 H 0.14806 0.41345 0.11443 0.0
H1601 H 0.10827 0.41425 0.09161 0.0
H1602 H 0.09522 0.4119 0.11393 0.0
H1603 H 0.09508 0.41338 0.14002 0.0
H1604 H 0.13489 0.41462 0.16277 0.0
H1605 H 0.14794 0.41217 0.14046 0.0
C1606 C 0.13655 0.41275 0.11431 0.0
C1607 C 0.12915 0.41416 0.1014 0.0
C1608 C 0.1291 0.41192 0.12722 0.0
C1609 C 0.11422 0.41331 0.10143 0.0
C1610 C 0.10674 0.41201 0.1142 0.0
C1611 C 0.1066 0.41274 0.14012 0.0
C1612 C 0.11401 0.4143 0.153 0.0
C1613 C 0.11405 0.41187 0.12719 0.0
C1614 C 0.12894 0.41355 0.15296 0.0
C1615 C 0.13642 0.4122 0.14021 0.0
H1616 H 0.12871 0.58678 0.8456 0.0
H1617 H 0.08651 0.58222 0.86307 0.0
H1618 H 0.09617 0.58352 0.88711 0.0
H1619 H 0.11688 0.58231 0.903 0.0
H1620 H 0.15909 0.58688 0.88562 0.0
H1621 H 0.14913 0.58943 0.86175 0.0
C1622 C 0.12159 0.58638 0.85466 0.0
C1623 C 0.10693 0.58417 0.85253 0.0
C1624 C 0.12724 0.58698 0.86849 0.0
C1625 C 0.09783 0.58385 0.86439 0.0
C1626 C 0.10336 0.5845 0.87816 0.0
C1627 C 0.12388 0.58415 0.89402 0.0
C1628 C 0.13871 0.58417 0.89604 0.0
C1629 C 0.11809 0.58549 0.88032 0.0
C1630 C 0.14764 0.58677 0.88435 0.0
C1631 C 0.14196 0.58813 0.87067 0.0
H1632 H 0.41743 0.09628 0.86337 0.0
H1633 H 0.41961 0.13423 0.8377 0.0
H1634 H 0.41654 0.14895 0.85887 0.0
H1635 H 0.41706 0.15104 0.88489 0.0
H1636 H 0.41682 0.11307 0.91063 0.0
H1637 H 0.4151 0.0984 0.88929 0.0
C1638 C 0.41685 0.10776 0.86237 0.0
C1639 C 0.41886 0.11416 0.849 0.0
C1640 C 0.41563 0.11618 0.87466 0.0
C1641 C 0.41818 0.12905 0.84789 0.0
C1642 C 0.41649 0.13748 0.86 0.0
C1643 C 0.41629 0.13957 0.88585 0.0
C1644 C 0.41722 0.13316 0.89933 0.0
C1645 C 0.41579 0.13117 0.8735 0.0
C1646 C 0.41625 0.11827 0.90038 0.0
C1647 C 0.41531 0.10987 0.88817 0.0
H1648 H 0.84877 0.41743 0.89019 0.0
H1649 H 0.88721 0.4186 0.9152 0.0
H1650 H 0.90147 0.41536 0.89375 0.0
H1651 H 0.90314 0.41543 0.86767 0.0
H1652 H 0.86473 0.41615 0.84261 0.0
H1653 H 0.85038 0.41517 0.86423 0.0
C1654 C 0.86025 0.41667 0.89099 0.0
C1655 C 0.86691 0.41837 0.90427 0.0
C1656 C 0.86842 0.41526 0.87854 0.0
C1657 C 0.88181 0.41744 0.90509 0.0
C1658 C 0.88999 0.41561 0.89282 0.0
C1659 C 0.89163 0.41502 0.86693 0.0
C1660 C 0.88501 0.41593 0.85355 0.0
C1661 C 0.88343 0.41499 0.87944 0.0
C1662 C 0.87009 0.41553 0.85278 0.0
C1663 C 0.86187 0.41503 0.86515 0.0
H1664 H 0.58529 0.9037 0.8666 0.0
H1665 H 0.58215 0.86507 0.8421 0.0
H1666 H 0.58537 0.85091 0.86362 0.0
H1667 H 0.58551 0.84953 0.88966 0.0
H1668 H 0.5865 0.88816 0.91436 0.0
H1669 H 0.58793 0.90226 0.89259 0.0
C1670 C 0.58568 0.8922 0.86594 0.0
C1671 C 0.5834 0.88544 0.85281 0.0
C1672 C 0.58699 0.8841 0.87846 0.0
C1673 C 0.58378 0.87051 0.85212 0.0
C1674 C 0.58558 0.86241 0.86443 0.0
C1675 C 0.58639 0.86101 0.89029 0.0
C1676 C 0.5858 0.86779 0.9036 0.0
C1677 C 0.58666 0.86908 0.87771 0.0
C1678 C 0.58685 0.88269 0.90423 0.0
C1679 C 0.58761 0.89077 0.89178 0.0
H1680 H 0.90737 0.58525 0.14007 0.0
H1681 H 0.86853 0.58843 0.16429 0.0
H1682 H 0.85482 0.59051 0.14235 0.0
H1683 H 0.85357 0.58799 0.11637 0.0
H1684 H 0.89233 0.58331 0.09226 0.0
H1685 H 0.90632 0.58541 0.114 0.0
C1686 C 0.89595 0.58675 0.14056 0.0
C1687 C 0.88898 0.58656 0.1538 0.0
C1688 C 0.88807 0.58747 0.12788 0.0
C1689 C 0.87416 0.58845 0.15424 0.0
C1690 C 0.86629 0.58957 0.14168 0.0
C1691 C 0.86509 0.58772 0.11583 0.0
C1692 C 0.87188 0.58533 0.10272 0.0
C1693 C 0.87308 0.58856 0.12844 0.0
C1694 C 0.88682 0.585 0.10222 0.0
C1695 C 0.89484 0.58617 0.11467 0.0
H1696 H 0.41437 0.88602 0.09973 0.0
H1697 H 0.41591 0.84341 0.11669 0.0
H1698 H 0.41424 0.8528 0.14084 0.0
H1699 H 0.41592 0.87324 0.15709 0.0
H1700 H 0.41396 0.91583 0.1402 0.0
H1701 H 0.41199 0.90633 0.11608 0.0
C1702 C 0.41403 0.87878 0.10871 0.0
C1703 C 0.41549 0.86406 0.10644 0.0
C1704 C 0.41314 0.88426 0.12258 0.0
C1705 C 0.41484 0.85479 0.11814 0.0
C1706 C 0.41399 0.86016 0.13197 0.0
C1707 C 0.41477 0.88042 0.14814 0.0
C1708 C 0.41531 0.8952 0.15038 0.0
C1709 C 0.41368 0.87489 0.13432 0.0
C1710 C 0.41361 0.90441 0.13874 0.0
C1711 C 0.41258 0.89898 0.12494 0.0
H1712 H 0.58657 0.11483 0.10072 0.0
H1713 H 0.58801 0.15711 0.11846 0.0
H1714 H 0.58962 0.14716 0.1424 0.0
H1715 H 0.58656 0.12657 0.15828 0.0
H1716 H 0.58485 0.08433 0.14041 0.0
H1717 H 0.58769 0.09413 0.11658 0.0
C1718 C 0.58755 0.12187 0.10981 0.0
C1719 C 0.58691 0.13668 0.10784 0.0
C1720 C 0.58828 0.11607 0.12355 0.0
C1721 C 0.58841 0.14566 0.11968 0.0
C1722 C 0.58923 0.13998 0.1334 0.0
C1723 C 0.58715 0.11948 0.1492 0.0
C1724 C 0.58521 0.10476 0.15112 0.0
C1725 C 0.58856 0.12521 0.13547 0.0
C1726 C 0.58619 0.09571 0.13926 0.0
C1727 C 0.58773 0.10131 0.12559 0.0
H1728 H 0.63779 0.595 0.91275 0.0
H1729 H 0.66159 0.63371 0.91904 0.0
H1730 H 0.63967 0.64758 0.91796 0.0
H1731 H 0.61358 0.64838 0.91834 0.0
H1732 H 0.58969 0.60946 0.91384 0.0
H1733 H 0.61174 0.59606 0.91094 0.0
C1734 C 0.6382 0.6065 0.91356 0.0
C1735 C 0.65128 0.6133 0.91605 0.0
C1736 C 0.62549 0.61437 0.91341 0.0
C1737 C 0.65164 0.6282 0.9172 0.0
C1738 C 0.6391 0.63614 0.91663 0.0
C1739 C 0.61318 0.63701 0.91643 0.0
C1740 C 0.60001 0.62992 0.91642 0.0
C1741 C 0.62593 0.6293 0.91521 0.0
C1742 C 0.5997 0.61517 0.91401 0.0
C1743 C 0.61231 0.60748 0.91238 0.0
H1744 H 0.40279 0.63899 0.91128 0.0
H1745 H 0.36431 0.66363 0.91535 0.0
H1746 H 0.35004 0.64207 0.9131 0.0
H1747 H 0.34865 0.61602 0.91362 0.0
H1748 H 0.38721 0.59128 0.91118 0.0
H1749 H 0.40122 0.61301 0.90894 0.0
C1750 C 0.39128 0.63968 0.91131 0.0
C1751 C 0.38463 0.65288 0.91362 0.0
C1752 C 0.38313 0.62717 0.91049 0.0
C1753 C 0.3697 0.65359 0.9137 0.0
C1754 C 0.36152 0.64125 0.91247 0.0
C1755 C 0.36008 0.61536 0.91227 0.0
C1756 C 0.36687 0.60205 0.91273 0.0
C1757 C 0.36813 0.62793 0.91142 0.0
C1758 C 0.38171 0.6014 0.91098 0.0
C1759 C 0.38975 0.61383 0.90975 0.0
H1760 H 0.40836 0.38583 0.91041 0.0
H1761 H 0.39189 0.34313 0.9139 0.0
H1762 H 0.36765 0.35215 0.91192 0.0
H1763 H 0.3512 0.37241 0.91294 0.0
H1764 H 0.36765 0.41514 0.90981 0.0
H1765 H 0.39179 0.40585 0.90767 0.0
C1766 C 0.39948 0.37846 0.91044 0.0
C1767 C 0.40193 0.36385 0.91256 0.0
C1768 C 0.38555 0.38375 0.90951 0.0
C1769 C 0.39032 0.35443 0.91238 0.0
C1770 C 0.37643 0.3596 0.91133 0.0
C1771 C 0.36004 0.37968 0.9115 0.0
C1772 C 0.35765 0.39445 0.91179 0.0
C1773 C 0.37392 0.37427 0.91048 0.0
C1774 C 0.36919 0.40373 0.90971 0.0
C1775 C 0.38302 0.39842 0.90857 0.0
H1776 H 0.63184 0.34814 0.91258 0.0
H1777 H 0.58837 0.36283 0.91211 0.0
H1778 H 0.59656 0.3874 0.91035 0.0
H1779 H 0.61603 0.40476 0.91247 0.0
H1780 H 0.65947 0.38998 0.91348 0.0
H1781 H 0.65132 0.36545 0.91134 0.0
C1782 C 0.62414 0.35668 0.9118 0.0
C1783 C 0.60951 0.35364 0.9127 0.0
C1784 C 0.62893 0.37082 0.91106 0.0
C1785 C 0.59969 0.36485 0.91152 0.0
C1786 C 0.60437 0.37893 0.91061 0.0
C1787 C 0.62373 0.3962 0.91195 0.0
C1788 C 0.63833 0.39921 0.91337 0.0
C1789 C 0.61896 0.38206 0.91092 0.0
C1790 C 0.64817 0.38798 0.91253 0.0
C1791 C 0.64351 0.37392 0.91136 0.0
H1792 H 0.59608 0.37885 0.08611 0.0
H1793 H 0.61243 0.33608 0.08293 0.0
H1794 H 0.63671 0.34514 0.08388 0.0
H1795 H 0.65314 0.36535 0.08193 0.0
H1796 H 0.63687 0.40815 0.0847 0.0
H1797 H 0.61278 0.39893 0.08781 0.0
C1798 C 0.60494 0.37148 0.08594 0.0
C1799 C 0.60241 0.35682 0.08421 0.0
C1800 C 0.61892 0.37678 0.08625 0.0
C1801 C 0.61403 0.34742 0.08416 0.0
C1802 C 0.62796 0.3526 0.08461 0.0
C1803 C 0.64437 0.37266 0.0835 0.0
C1804 C 0.64678 0.38742 0.08285 0.0
C1805 C 0.63051 0.36729 0.08508 0.0
C1806 C 0.63532 0.39674 0.08508 0.0
C1807 C 0.62151 0.39148 0.08677 0.0
H1808 H 0.61705 0.59088 0.08165 0.0
H1809 H 0.65936 0.60857 0.08345 0.0
H1810 H 0.64945 0.63233 0.08671 0.0
H1811 H 0.62883 0.64835 0.0855 0.0
H1812 H 0.58651 0.6307 0.08365 0.0
H1813 H 0.59635 0.60668 0.08421 0.0
C1814 C 0.6241 0.5999 0.08304 0.0
C1815 C 0.63892 0.59798 0.08207 0.0
C1816 C 0.61833 0.61357 0.08477 0.0
C1817 C 0.64792 0.60974 0.08408 0.0
C1818 C 0.64226 0.62336 0.08586 0.0
C1819 C 0.62175 0.63924 0.08551 0.0
C1820 C 0.60697 0.64131 0.0843 0.0
C1821 C 0.62748 0.62545 0.08568 0.0
C1822 C 0.59792 0.62942 0.08452 0.0
C1823 C 0.60355 0.61566 0.08474 0.0
H1824 H 0.3427 0.62967 0.08489 0.0
H1825 H 0.36023 0.58732 0.08288 0.0
H1826 H 0.38426 0.59706 0.08425 0.0
H1827 H 0.40023 0.61772 0.08253 0.0
H1828 H 0.38265 0.66007 0.08423 0.0
H1829 H 0.35877 0.65021 0.08668 0.0
C1830 C 0.35176 0.62254 0.08505 0.0
C1831 C 0.34965 0.60779 0.08357 0.0
C1832 C 0.36558 0.62823 0.08563 0.0
C1833 C 0.36152 0.59871 0.08394 0.0
C1834 C 0.3753 0.60429 0.08463 0.0
C1835 C 0.39121 0.6248 0.08371 0.0
C1836 C 0.39323 0.63962 0.08297 0.0
C1837 C 0.37745 0.61905 0.08494 0.0
C1838 C 0.38142 0.64863 0.08468 0.0
C1839 C 0.36773 0.64299 0.08601 0.0
H1840 H 0.37068 0.34685 0.0847 0.0
H1841 H 0.41292 0.36481 0.08421 0.0
H1842 H 0.40292 0.38873 0.08547 0.0
H1843 H 0.3822 0.40446 0.08287 0.0
H1844 H 0.33997 0.38646 0.08302 0.0
H1845 H 0.34995 0.36269 0.08594 0.0
C1846 C 0.37771 0.35598 0.08519 0.0
C1847 C 0.39252 0.35405 0.08411 0.0
C1848 C 0.37188 0.36973 0.08567 0.0
C1849 C 0.40148 0.36598 0.08494 0.0
C1850 C 0.39576 0.37969 0.08556 0.0
C1851 C 0.37516 0.39537 0.08383 0.0
C1852 C 0.36037 0.39722 0.08247 0.0
C1853 C 0.38098 0.38169 0.08533 0.0
C1854 C 0.3514 0.38535 0.08394 0.0
C1855 C 0.3571 0.37172 0.08553 0.0
H1856 H 0.91716 0.64042 0.5934 0.0
H1857 H 0.91426 0.66347 0.63296 0.0
H1858 H 0.91113 0.64119 0.6459 0.0
H1859 H 0.91288 0.61514 0.64635 0.0
H1860 H 0.91746 0.59214 0.60692 0.0
H1861 H 0.91605 0.61435 0.59359 0.0
C1862 C 0.91549 0.6406 0.6048 0.0
C1863 C 0.9161 0.65358 0.61221 0.0
C1864 C 0.91417 0.62771 0.61225 0.0
C1865 C 0.91396 0.65361 0.62701 0.0
C1866 C 0.91222 0.64086 0.63444 0.0
C1867 C 0.91323 0.61495 0.63482 0.0
C1868 C 0.91543 0.60202 0.62766 0.0
C1869 C 0.91287 0.62783 0.62723 0.0
C1870 C 0.9159 0.60197 0.61272 0.0
C1871 C 0.91514 0.61468 0.60507 0.0
H1872 H 0.34669 0.92313 0.6332 0.0
H1873 H 0.36461 0.91576 0.59164 0.0
H1874 H 0.38815 0.91253 0.60221 0.0
H1875 H 0.40402 0.91508 0.62288 0.0
H1876 H 0.38594 0.9225 0.66441 0.0
H1877 H 0.36209 0.92218 0.65426 0.0
C1878 C 0.3557 0.92057 0.62648 0.0
C1879 C 0.35395 0.91991 0.61164 0.0
C1880 C 0.36921 0.91884 0.63262 0.0
C1881 C 0.36568 0.91638 0.60309 0.0
C1882 C 0.37916 0.91461 0.60912 0.0
C1883 C 0.39485 0.91634 0.62976 0.0
C1884 C 0.3968 0.91903 0.64436 0.0
C1885 C 0.38112 0.91631 0.62382 0.0
C1886 C 0.38478 0.92049 0.65314 0.0
C1887 C 0.37111 0.92039 0.64732 0.0
H1888 H 0.08816 0.39984 0.62129 0.0
H1889 H 0.08545 0.38147 0.66325 0.0
H1890 H 0.08664 0.35764 0.65307 0.0
H1891 H 0.08492 0.34213 0.63209 0.0
H1892 H 0.08778 0.36042 0.59013 0.0
H1893 H 0.09027 0.38413 0.60046 0.0
C1894 C 0.08813 0.39062 0.62822 0.0
C1895 C 0.08649 0.39244 0.64299 0.0
C1896 C 0.08869 0.37692 0.62228 0.0
C1897 C 0.08665 0.3804 0.65185 0.0
C1898 C 0.08723 0.36674 0.64602 0.0
C1899 C 0.08637 0.35128 0.62522 0.0
C1900 C 0.08594 0.34955 0.61037 0.0
C1901 C 0.0877 0.36489 0.63123 0.0
C1902 C 0.08803 0.36146 0.60159 0.0
C1903 C 0.08936 0.37504 0.6075 0.0
H1904 H 0.59488 0.08172 0.623 0.0
H1905 H 0.61283 0.08149 0.66521 0.0
H1906 H 0.63674 0.08316 0.65521 0.0
H1907 H 0.65257 0.08152 0.63444 0.0
H1908 H 0.6346 0.08193 0.59223 0.0
H1909 H 0.61071 0.08359 0.60226 0.0
C1910 C 0.60401 0.08228 0.63001 0.0
C1911 C 0.60209 0.08126 0.64482 0.0
C1912 C 0.61774 0.08317 0.62418 0.0
C1913 C 0.61401 0.0822 0.65378 0.0
C1914 C 0.62771 0.08308 0.64806 0.0
C1915 C 0.64344 0.08225 0.62743 0.0
C1916 C 0.64536 0.0814 0.61261 0.0
C1917 C 0.62971 0.08309 0.63327 0.0
C1918 C 0.63343 0.08252 0.60367 0.0
C1919 C 0.61975 0.08338 0.6094 0.0
H1920 H 0.92284 0.36449 0.40701 0.0
H1921 H 0.92391 0.33816 0.36946 0.0
H1922 H 0.92163 0.35919 0.35443 0.0
H1923 H 0.92261 0.3852 0.3519 0.0
H1924 H 0.92285 0.41152 0.38949 0.0
H1925 H 0.92119 0.39042 0.40448 0.0
C1926 C 0.92224 0.36332 0.39555 0.0
C1927 C 0.92367 0.34977 0.38938 0.0
C1928 C 0.92135 0.37551 0.38694 0.0
C1929 C 0.92293 0.34846 0.3745 0.0
C1930 C 0.92169 0.36051 0.36588 0.0
C1931 C 0.92202 0.38634 0.36336 0.0
C1932 C 0.92301 0.39993 0.36954 0.0
C1933 C 0.9214 0.37412 0.37197 0.0
C1934 C 0.92223 0.40119 0.38443 0.0
C1935 C 0.92131 0.38911 0.39303 0.0
H1936 H 0.65199 0.92182 0.36595 0.0
H1937 H 0.63559 0.91546 0.40833 0.0
H1938 H 0.6116 0.91264 0.39878 0.0
H1939 H 0.59497 0.91522 0.37876 0.0
H1940 H 0.61142 0.92186 0.33643 0.0
H1941 H 0.63568 0.92108 0.34557 0.0
C1942 C 0.64321 0.91957 0.37308 0.0
C1943 C 0.64556 0.91907 0.38785 0.0
C1944 C 0.62941 0.91811 0.36753 0.0
C1945 C 0.63409 0.91597 0.39692 0.0
C1946 C 0.62034 0.91442 0.39147 0.0
C1947 C 0.60386 0.91622 0.37148 0.0
C1948 C 0.60134 0.91881 0.35695 0.0
C1949 C 0.61781 0.91596 0.37684 0.0
C1950 C 0.61301 0.91994 0.34767 0.0
C1951 C 0.62691 0.91958 0.3529 0.0
H1952 H 0.08551 0.65683 0.37273 0.0
H1953 H 0.08975 0.63875 0.4147 0.0
H1954 H 0.09246 0.6151 0.40439 0.0
H1955 H 0.08957 0.59928 0.38381 0.0
H1956 H 0.0849 0.61731 0.34187 0.0
H1957 H 0.08669 0.64122 0.3518 0.0
C1958 C 0.08735 0.64777 0.37962 0.0
C1959 C 0.08715 0.64954 0.39448 0.0
C1960 C 0.08867 0.63414 0.37363 0.0
C1961 C 0.08974 0.6377 0.40323 0.0
C1962 C 0.09121 0.62414 0.39735 0.0
C1963 C 0.08927 0.60843 0.3768 0.0
C1964 C 0.08684 0.60651 0.36216 0.0
C1965 C 0.09006 0.62217 0.38261 0.0
C1966 C 0.08667 0.61847 0.35319 0.0
C1967 C 0.08759 0.63217 0.35888 0.0
H1968 H 0.40244 0.07827 0.38121 0.0
H1969 H 0.38227 0.07813 0.34004 0.0
H1970 H 0.35887 0.07912 0.35134 0.0
H1971 H 0.34421 0.07681 0.37296 0.0
H1972 H 0.36449 0.07749 0.41411 0.0
H1973 H 0.38773 0.07977 0.40279 0.0
C1974 C 0.39293 0.07872 0.37472 0.0
C1975 C 0.39407 0.07792 0.35982 0.0
C1976 C 0.37951 0.07929 0.38129 0.0
C1977 C 0.38167 0.07871 0.35153 0.0
C1978 C 0.36828 0.07919 0.35799 0.0
C1979 C 0.35369 0.07775 0.37945 0.0
C1980 C 0.35262 0.07677 0.39435 0.0
C1981 C 0.36707 0.07901 0.37286 0.0
C1982 C 0.36499 0.07818 0.40262 0.0
C1983 C 0.37832 0.07938 0.39615 0.0
H1984 H 0.59645 0.91254 0.63564 0.0
H1985 H 0.63434 0.91463 0.66139 0.0
H1986 H 0.64913 0.91201 0.64021 0.0
H1987 H 0.65129 0.91298 0.61424 0.0
H1988 H 0.61341 0.91329 0.58839 0.0
H1989 H 0.59866 0.91088 0.60964 0.0
C1990 C 0.60793 0.91203 0.63663 0.0
C1991 C 0.61431 0.91386 0.65002 0.0
C1992 C 0.61639 0.91113 0.62433 0.0
C1993 C 0.6292 0.91334 0.65116 0.0
C1994 C 0.63766 0.91189 0.63905 0.0
C1995 C 0.63983 0.91214 0.61324 0.0
C1996 C 0.63344 0.91341 0.59979 0.0
C1997 C 0.63139 0.91135 0.62554 0.0
C1998 C 0.61857 0.91243 0.59865 0.0
C1999 C 0.61012 0.9111 0.61081 0.0
H2000 H 0.6479 0.08945 0.38905 0.0
H2001 H 0.61045 0.08322 0.41482 0.0
H2002 H 0.59534 0.08653 0.394 0.0
H2003 H 0.59296 0.08761 0.36804 0.0
H2004 H 0.63051 0.09208 0.34206 0.0
H2005 H 0.64532 0.09333 0.36335 0.0
C2006 C 0.63643 0.08914 0.39017 0.0
C2007 C 0.63033 0.08593 0.40344 0.0
C2008 C 0.6278 0.09062 0.37805 0.0
C2009 C 0.61543 0.08553 0.4047 0.0
C2010 C 0.60677 0.08739 0.39278 0.0
C2011 C 0.60434 0.08924 0.36704 0.0
C2012 C 0.61064 0.08963 0.35349 0.0
C2013 C 0.61285 0.08942 0.37932 0.0
C2014 C 0.62541 0.09165 0.35238 0.0
C2015 C 0.6339 0.0923 0.36455 0.0
H2016 H 0.91378 0.59663 0.3689 0.0
H2017 H 0.91775 0.63384 0.34238 0.0
H2018 H 0.9155 0.64917 0.3632 0.0
H2019 H 0.91597 0.65187 0.38912 0.0
H2020 H 0.91405 0.61462 0.41582 0.0
H2021 H 0.9117 0.59949 0.39483 0.0
C2022 C 0.9138 0.6081 0.36766 0.0
C2023 C 0.91603 0.61409 0.35414 0.0
C2024 C 0.91302 0.61685 0.37976 0.0
C2025 C 0.91615 0.62896 0.35269 0.0
C2026 C 0.91491 0.63774 0.3646 0.0
C2027 C 0.91468 0.64047 0.39037 0.0
C2028 C 0.91529 0.63437 0.404 0.0
C2029 C 0.91387 0.6318 0.37823 0.0
C2030 C 0.9137 0.61958 0.40543 0.0
C2031 C 0.91241 0.61091 0.39342 0.0
H2032 H 0.37041 0.90829 0.35323 0.0
H2033 H 0.41294 0.90849 0.3704 0.0
H2034 H 0.40342 0.90537 0.39438 0.0
H2035 H 0.38289 0.90651 0.41061 0.0
H2036 H 0.34038 0.90645 0.39327 0.0
H2037 H 0.35002 0.9053 0.36925 0.0
C2038 C 0.37761 0.90734 0.3622 0.0
C2039 C 0.39233 0.90887 0.36009 0.0
C2040 C 0.37205 0.90571 0.37595 0.0
C2041 C 0.40155 0.9074 0.37175 0.0
C2042 C 0.39611 0.90572 0.38549 0.0
C2043 C 0.37573 0.90591 0.4016 0.0
C2044 C 0.36094 0.90684 0.40375 0.0
C2045 C 0.38135 0.90545 0.38775 0.0
C2046 C 0.35181 0.90586 0.39195 0.0
C2047 C 0.35732 0.9053 0.37817 0.0
H2048 H 0.09214 0.40745 0.36842 0.0
H2049 H 0.0905 0.36709 0.34666 0.0
H2050 H 0.0931 0.3546 0.36924 0.0
H2051 H 0.09253 0.35509 0.39529 0.0
H2052 H 0.09283 0.39542 0.41718 0.0
H2053 H 0.09432 0.40791 0.39448 0.0
C2054 C 0.09266 0.39593 0.36859 0.0
C2055 C 0.09096 0.38822 0.35588 0.0
C2056 C 0.09379 0.38878 0.38168 0.0
C2057 C 0.09164 0.37329 0.3563 0.0
C2058 C 0.0931 0.36612 0.36922 0.0
C2059 C 0.09323 0.3666 0.39512 0.0
C2060 C 0.0924 0.3743 0.40792 0.0
C2061 C 0.09368 0.37375 0.38201 0.0
C2062 C 0.09333 0.38922 0.40749 0.0
C2063 C 0.09413 0.39639 0.3945 0.0
H2064 H 0.3553 0.09067 0.61211 0.0
H2065 H 0.39409 0.0845 0.58838 0.0
H2066 H 0.40803 0.08739 0.61006 0.0
H2067 H 0.40896 0.08807 0.63613 0.0
H2068 H 0.37006 0.09265 0.66003 0.0
H2069 H 0.35649 0.09424 0.63796 0.0
C2070 C 0.36682 0.09028 0.61163 0.0
C2071 C 0.37362 0.0872 0.59867 0.0
C2072 C 0.37477 0.09154 0.62423 0.0
C2073 C 0.38856 0.08672 0.59824 0.0
C2074 C 0.39656 0.08834 0.61065 0.0
C2075 C 0.39756 0.08978 0.63652 0.0
C2076 C 0.39052 0.09009 0.64971 0.0
C2077 C 0.38975 0.09021 0.62378 0.0
C2078 C 0.37573 0.09226 0.65001 0.0
C2079 C 0.36794 0.09311 0.63739 0.0
H2080 H 0.91806 0.3869 0.5981 0.0
H2081 H 0.9156 0.34446 0.61533 0.0
H2082 H 0.91265 0.35418 0.63924 0.0
H2083 H 0.91456 0.37464 0.65548 0.0
H2084 H 0.91683 0.41707 0.63817 0.0
H2085 H 0.91576 0.40747 0.61409 0.0
C2086 C 0.91656 0.37978 0.60706 0.0
C2087 C 0.91728 0.36499 0.60498 0.0
C2088 C 0.91496 0.38545 0.62079 0.0
C2089 C 0.91513 0.35589 0.61664 0.0
C2090 C 0.91354 0.36145 0.63035 0.0
C2091 C 0.91448 0.3818 0.64645 0.0
C2092 C 0.91602 0.39653 0.64863 0.0
C2093 C 0.914 0.37619 0.6326 0.0
C2094 C 0.91571 0.40569 0.63681 0.0
C2095 C 0.91521 0.40019 0.62301 0.0
H2096 H 0.08554 0.59254 0.63577 0.0
H2097 H 0.08267 0.63033 0.66162 0.0
H2098 H 0.086 0.64518 0.6406 0.0
H2099 H 0.08619 0.64745 0.61459 0.0
H2100 H 0.08739 0.60964 0.58863 0.0
H2101 H 0.08846 0.59484 0.60992 0.0
C2102 C 0.08599 0.60401 0.63686 0.0
C2103 C 0.08373 0.61031 0.65023 0.0
C2104 C 0.08744 0.61252 0.62464 0.0
C2105 C 0.08427 0.6252 0.65143 0.0
C2106 C 0.08613 0.63372 0.6394 0.0
C2107 C 0.08702 0.63599 0.61358 0.0
C2108 C 0.08657 0.62966 0.60004 0.0
C2109 C 0.08718 0.6275 0.62589 0.0
C2110 C 0.0876 0.61479 0.59893 0.0
C2111 C 0.08817 0.6063 0.61111 0.0
H2112 H 0.09142 0.23587 0.41822 0.0
H2113 H 0.05556 0.23217 0.44675 0.0
H2114 H 0.05314 0.25776 0.44745 0.0
H2115 H 0.06127 0.28111 0.44078 0.0
H2116 H 0.09727 0.28614 0.41283 0.0
H2117 H 0.09945 0.26015 0.41095 0.0
C2118 C 0.08309 0.2407 0.42455 0.0
C2119 C 0.07376 0.23204 0.43249 0.0
C2120 C 0.08173 0.25565 0.425 0.0
C2121 C 0.06298 0.23849 0.44061 0.0
C2122 C 0.06153 0.25317 0.44101 0.0
C2123 C 0.0696 0.2766 0.4342 0.0
C2124 C 0.07913 0.28557 0.42701 0.0
C2125 C 0.07088 0.26183 0.43336 0.0
C2126 C 0.08978 0.27946 0.41848 0.0
C2127 C 0.09106 0.26461 0.41745 0.0
H2128 H 0.77617 0.06364 0.44532 0.0
H2129 H 0.78004 0.09314 0.41042 0.0
H2130 H 0.75399 0.09494 0.40903 0.0
H2131 H 0.72999 0.08732 0.4175 0.0
H2132 H 0.72736 0.05744 0.45232 0.0
H2133 H 0.75304 0.05666 0.45393 0.0
C2134 C 0.77139 0.07052 0.43738 0.0
C2135 C 0.78005 0.07819 0.42794 0.0
C2136 C 0.75657 0.07141 0.43662 0.0
C2137 C 0.77361 0.0871 0.41781 0.0
C2138 C 0.75872 0.0881 0.41701 0.0
C2139 C 0.73508 0.08071 0.42546 0.0
C2140 C 0.72671 0.07239 0.43471 0.0
C2141 C 0.75006 0.0802 0.42631 0.0
C2142 C 0.73347 0.06388 0.44497 0.0
C2143 C 0.7482 0.06342 0.44594 0.0
H2144 H 0.91617 0.77671 0.41634 0.0
H2145 H 0.95987 0.77895 0.43034 0.0
H2146 H 0.96172 0.75325 0.42954 0.0
H2147 H 0.95076 0.73021 0.42666 0.0
H2148 H 0.90703 0.72677 0.41335 0.0
H2149 H 0.9054 0.75283 0.41188 0.0
C2150 C 0.9261 0.77153 0.41905 0.0
C2151 C 0.93781 0.77975 0.42356 0.0
C2152 C 0.92709 0.75655 0.41876 0.0
C2153 C 0.95063 0.7729 0.42702 0.0
C2154 C 0.95174 0.75819 0.42655 0.0
C2155 C 0.94086 0.73511 0.42335 0.0
C2156 C 0.92899 0.72658 0.42029 0.0
C2157 C 0.93998 0.74992 0.42274 0.0
C2158 C 0.91632 0.73312 0.4158 0.0
C2159 C 0.91538 0.74801 0.41502 0.0
H2160 H 0.22603 0.91149 0.41891 0.0
H2161 H 0.22644 0.9563 0.42905 0.0
H2162 H 0.25219 0.95645 0.42867 0.0
H2163 H 0.27449 0.94382 0.42748 0.0
H2164 H 0.27535 0.89903 0.41785 0.0
H2165 H 0.24925 0.89892 0.41577 0.0
C2166 C 0.2318 0.92127 0.42086 0.0
C2167 C 0.22431 0.93381 0.42421 0.0
C2168 C 0.24681 0.9213 0.42079 0.0
C2169 C 0.23191 0.94645 0.42667 0.0
C2170 C 0.24667 0.94658 0.42643 0.0
C2171 C 0.269 0.93401 0.42484 0.0
C2172 C 0.27676 0.92142 0.42303 0.0
C2173 C 0.25419 0.93404 0.42385 0.0
C2174 C 0.26955 0.90887 0.41932 0.0
C2175 C 0.25465 0.9088 0.41822 0.0
H2176 H 0.06201 0.72694 0.5569 0.0
H2177 H 0.08912 0.72391 0.59376 0.0
H2178 H 0.09139 0.74995 0.59425 0.0
H2179 H 0.08511 0.77373 0.58419 0.0
H2180 H 0.05798 0.7755 0.54714 0.0
H2181 H 0.0564 0.7498 0.54674 0.0
C2182 C 0.06841 0.7319 0.56511 0.0
C2183 C 0.07529 0.72348 0.57534 0.0
C2184 C 0.06971 0.74671 0.56526 0.0
C2185 C 0.08366 0.73016 0.58578 0.0
C2186 C 0.08496 0.74504 0.58605 0.0
C2187 C 0.07896 0.76845 0.576 0.0
C2188 C 0.07163 0.77659 0.56575 0.0
C2189 C 0.07799 0.75346 0.57583 0.0
C2190 C 0.06367 0.76958 0.55521 0.0
C2191 C 0.06273 0.75484 0.55496 0.0
H2192 H 0.23325 0.08638 0.591 0.0
H2193 H 0.22905 0.08507 0.54533 0.0
H2194 H 0.25473 0.08602 0.54264 0.0
H2195 H 0.27819 0.08405 0.55306 0.0
H2196 H 0.28348 0.08446 0.59854 0.0
H2197 H 0.25762 0.08721 0.6016 0.0
C2198 C 0.23802 0.08664 0.58051 0.0
C2199 C 0.22933 0.08549 0.56837 0.0
C2200 C 0.25295 0.08682 0.57902 0.0
C2201 C 0.23556 0.08576 0.55481 0.0
C2202 C 0.25024 0.08629 0.55326 0.0
C2203 C 0.2737 0.08491 0.56366 0.0
C2204 C 0.2826 0.08382 0.57556 0.0
C2205 C 0.259 0.08628 0.56526 0.0
C2206 C 0.27676 0.08523 0.58922 0.0
C2207 C 0.26199 0.08672 0.59095 0.0
H2208 H 0.92508 0.27677 0.54725 0.0
H2209 H 0.91427 0.28362 0.59126 0.0
H2210 H 0.91048 0.25795 0.5944 0.0
H2211 H 0.91263 0.23326 0.58494 0.0
H2212 H 0.92424 0.2274 0.5409 0.0
H2213 H 0.92523 0.25296 0.53747 0.0
C2214 C 0.92177 0.27269 0.55753 0.0
C2215 C 0.92014 0.28203 0.56905 0.0
C2216 C 0.91984 0.25805 0.55926 0.0
C2217 C 0.91563 0.27661 0.58222 0.0
C2218 C 0.91354 0.26194 0.58403 0.0
C2219 C 0.91515 0.23763 0.57457 0.0
C2220 C 0.91853 0.22844 0.56324 0.0
C2221 C 0.91595 0.2525 0.57268 0.0
C2222 C 0.92178 0.23423 0.54985 0.0
C2223 C 0.92235 0.24886 0.54785 0.0
H2224 H 0.76848 0.90147 0.55824 0.0
H2225 H 0.77843 0.92499 0.59622 0.0
H2226 H 0.75319 0.92542 0.60278 0.0
H2227 H 0.72809 0.92318 0.59493 0.0
H2228 H 0.71848 0.89941 0.55701 0.0
H2229 H 0.74376 0.89464 0.55329 0.0
C2230 C 0.76513 0.9062 0.56822 0.0
C2231 C 0.77515 0.91324 0.57674 0.0
C2232 C 0.75065 0.90646 0.57181 0.0
C2233 C 0.77082 0.91941 0.5896 0.0
C2234 C 0.75639 0.91978 0.59325 0.0
C2235 C 0.73156 0.91644 0.58624 0.0
C2236 C 0.72157 0.91154 0.57628 0.0
C2237 C 0.74616 0.91392 0.58408 0.0
C2238 C 0.72606 0.90307 0.56487 0.0
C2239 C 0.74051 0.90049 0.56266 0.0
H2240 H 0.41651 0.08196 0.26959 0.0
H2241 H 0.46102 0.07062 0.2706 0.0
H2242 H 0.46208 0.07146 0.24485 0.0
H2243 H 0.45016 0.07316 0.22207 0.0
H2244 H 0.40578 0.08435 0.22 0.0
H2245 H 0.40491 0.08603 0.24608 0.0
C2246 C 0.42646 0.07989 0.26415 0.0
C2247 C 0.43861 0.07603 0.27204 0.0
C2248 C 0.42702 0.08026 0.24916 0.0
C2249 C 0.45145 0.07342 0.26483 0.0
C2250 C 0.4521 0.0739 0.25007 0.0
C2251 C 0.4403 0.0761 0.22731 0.0
C2252 C 0.42801 0.07844 0.21918 0.0
C2253 C 0.4399 0.07693 0.24215 0.0
C2254 C 0.41538 0.08248 0.22607 0.0
C2255 C 0.41488 0.08336 0.24097 0.0
H2256 H 0.94937 0.43807 0.22508 0.0
H2257 H 0.91045 0.41412 0.2212 0.0
H2258 H 0.90994 0.4107 0.24713 0.0
H2259 H 0.92033 0.41554 0.2711 0.0
H2260 H 0.95935 0.43965 0.27377 0.0
H2261 H 0.96007 0.44185 0.2481 0.0
C2262 C 0.94072 0.4321 0.22985 0.0
C2263 C 0.92987 0.42651 0.22124 0.0
C2264 C 0.94055 0.43017 0.24458 0.0
C2265 C 0.9189 0.41861 0.22762 0.0
C2266 C 0.91862 0.41666 0.24243 0.0
C2267 C 0.92904 0.42112 0.26601 0.0
C2268 C 0.93971 0.42751 0.27438 0.0
C2269 C 0.92936 0.4225 0.25106 0.0
C2270 C 0.95093 0.43474 0.26764 0.0
C2271 C 0.95137 0.43603 0.25293 0.0
H2272 H 0.5834 0.92037 0.27149 0.0
H2273 H 0.57097 0.96437 0.27551 0.0
H2274 H 0.57176 0.96722 0.24984 0.0
H2275 H 0.57348 0.95683 0.22634 0.0
H2276 H 0.58497 0.91275 0.22133 0.0
H2277 H 0.58726 0.91033 0.24724 0.0
C2278 C 0.58114 0.93061 0.26671 0.0
C2279 C 0.57699 0.9421 0.27536 0.0
C2280 C 0.58131 0.93213 0.25178 0.0
C2281 C 0.57402 0.95532 0.26906 0.0
C2282 C 0.57446 0.95697 0.25438 0.0
C2283 C 0.57661 0.9467 0.23088 0.0
C2284 C 0.57886 0.93494 0.22196 0.0
C2285 C 0.57767 0.94537 0.24565 0.0
C2286 C 0.58314 0.92195 0.22799 0.0
C2287 C 0.58438 0.92056 0.24281 0.0
H2288 H 0.04464 0.57836 0.23096 0.0
H2289 H 0.0891 0.58624 0.22302 0.0
H2290 H 0.09356 0.58733 0.24874 0.0
H2291 H 0.085 0.58318 0.27358 0.0
H2292 H 0.04064 0.57357 0.28031 0.0
H2293 H 0.03594 0.5761 0.25502 0.0
C2294 C 0.05531 0.58048 0.2348 0.0
C2295 C 0.06654 0.58204 0.2251 0.0
C2296 C 0.05781 0.58067 0.24945 0.0
C2297 C 0.08026 0.58497 0.23029 0.0
C2298 C 0.08282 0.5855 0.24499 0.0
C2299 C 0.07431 0.5819 0.26945 0.0
C2300 C 0.06319 0.57809 0.27871 0.0
C2301 C 0.07173 0.58294 0.2547 0.0
C2302 C 0.04938 0.57635 0.27332 0.0
C2303 C 0.04667 0.5778 0.25888 0.0
H2304 H 0.41557 0.95721 0.77488 0.0
H2305 H 0.41209 0.91192 0.78098 0.0
H2306 H 0.41052 0.90848 0.75513 0.0
H2307 H 0.41347 0.91838 0.73069 0.0
H2308 H 0.41835 0.96372 0.72559 0.0
H2309 H 0.41588 0.96714 0.75111 0.0
C2310 C 0.41426 0.94658 0.77059 0.0
C2311 C 0.41416 0.93483 0.77978 0.0
C2312 C 0.41372 0.94471 0.75585 0.0
C2313 C 0.41224 0.92115 0.77409 0.0
C2314 C 0.41144 0.91918 0.75931 0.0
C2315 C 0.41365 0.92899 0.7352 0.0
C2316 C 0.41621 0.94078 0.72634 0.0
C2317 C 0.41265 0.93087 0.75005 0.0
C2318 C 0.41654 0.95449 0.73225 0.0
C2319 C 0.41515 0.95646 0.74683 0.0
H2320 H 0.08557 0.41381 0.77955 0.0
H2321 H 0.05293 0.44614 0.78117 0.0
H2322 H 0.0513 0.44616 0.75551 0.0
H2323 H 0.0588 0.43732 0.73269 0.0
H2324 H 0.09146 0.40526 0.72973 0.0
H2325 H 0.09338 0.4048 0.7558 0.0
C2326 C 0.07813 0.42084 0.77425 0.0
C2327 C 0.06939 0.42995 0.78235 0.0
C2328 C 0.07721 0.42086 0.75926 0.0
C2329 C 0.05981 0.43901 0.7753 0.0
C2330 C 0.05883 0.43905 0.76057 0.0
C2331 C 0.06636 0.43017 0.73766 0.0
C2332 C 0.07495 0.42132 0.72925 0.0
C2333 C 0.06743 0.43004 0.75248 0.0
C2334 C 0.0847 0.41218 0.73597 0.0
C2335 C 0.0858 0.41193 0.75087 0.0
H2336 H 0.54942 0.0771 0.73477 0.0
H2337 H 0.59447 0.08114 0.72724 0.0
H2338 H 0.5987 0.0825 0.75301 0.0
H2339 H 0.58946 0.08024 0.77782 0.0
H2340 H 0.54426 0.07522 0.78419 0.0
H2341 H 0.54023 0.07661 0.75874 0.0
C2342 C 0.56019 0.07838 0.73871 0.0
C2343 C 0.57163 0.07883 0.72914 0.0
C2344 C 0.56251 0.07889 0.75338 0.0
C2345 C 0.58548 0.08073 0.73443 0.0
C2346 C 0.58789 0.08143 0.74915 0.0
C2347 C 0.57876 0.07965 0.77359 0.0
C2348 C 0.56719 0.07745 0.78285 0.0
C2349 C 0.57649 0.08019 0.75876 0.0
C2350 C 0.55336 0.0767 0.77727 0.0
C2351 C 0.55102 0.07751 0.76271 0.0
H2352 H 0.91408 0.58631 0.72538 0.0
H2353 H 0.93536 0.54586 0.72082 0.0
H2354 H 0.93499 0.54247 0.74635 0.0
H2355 H 0.92997 0.55121 0.7699 0.0
H2356 H 0.90951 0.59182 0.77576 0.0
H2357 H 0.90805 0.59485 0.74983 0.0
C2358 C 0.91852 0.57674 0.73002 0.0
C2359 C 0.92486 0.56643 0.72119 0.0
C2360 C 0.91846 0.57488 0.74492 0.0
C2361 C 0.93058 0.55406 0.72734 0.0
C2362 C 0.93035 0.55206 0.74196 0.0
C2363 C 0.92511 0.56074 0.76558 0.0
C2364 C 0.91995 0.57132 0.77476 0.0
C2365 C 0.92453 0.56247 0.75084 0.0
C2366 C 0.91358 0.58351 0.76891 0.0
C2367 C 0.9128 0.58526 0.75409 0.0
H2368 H 0.22628 0.41515 0.08533 0.0
H2369 H 0.22142 0.44462 0.05039 0.0
H2370 H 0.24694 0.44558 0.04728 0.0
H2371 H 0.27052 0.43852 0.05429 0.0
H2372 H 0.27671 0.4095 0.08925 0.0
H2373 H 0.25081 0.40788 0.09251 0.0
C2374 C 0.23085 0.42175 0.07705 0.0
C2375 C 0.22189 0.42983 0.06815 0.0
C2376 C 0.24575 0.42235 0.0753 0.0
C2377 C 0.22798 0.43834 0.05747 0.0
C2378 C 0.24262 0.4389 0.05563 0.0
C2379 C 0.26629 0.43179 0.06264 0.0
C2380 C 0.27555 0.42414 0.0715 0.0
C2381 C 0.25157 0.43101 0.06448 0.0
C2382 C 0.2698 0.4155 0.08227 0.0
C2383 C 0.255 0.41459 0.08413 0.0
H2384 H 0.22593 0.58557 0.91905 0.0
H2385 H 0.22577 0.57255 0.9631 0.0
H2386 H 0.25151 0.57413 0.96392 0.0
H2387 H 0.27408 0.5769 0.9518 0.0
H2388 H 0.2753 0.58959 0.9078 0.0
H2389 H 0.24918 0.59068 0.90732 0.0
C2390 C 0.23155 0.5833 0.92885 0.0
C2391 C 0.22393 0.57875 0.94093 0.0
C2392 C 0.24653 0.58408 0.92925 0.0
C2393 C 0.23135 0.57588 0.95359 0.0
C2394 C 0.2461 0.57678 0.95409 0.0
C2395 C 0.26865 0.58004 0.94212 0.0
C2396 C 0.27655 0.58297 0.92981 0.0
C2397 C 0.25379 0.58049 0.94192 0.0
C2398 C 0.26941 0.58726 0.91741 0.0
C2399 C 0.25448 0.5878 0.91713 0.0
H2400 H 0.44163 0.23033 0.94162 0.0
H2401 H 0.41418 0.22783 0.90498 0.0
H2402 H 0.41283 0.25394 0.9042 0.0
H2403 H 0.42001 0.27759 0.91397 0.0
H2404 H 0.44742 0.27877 0.95086 0.0
H2405 H 0.44815 0.25307 0.95146 0.0
C2406 C 0.43534 0.23542 0.9334 0.0
C2407 C 0.4281 0.22713 0.92331 0.0
C2408 C 0.4346 0.25025 0.93308 0.0
C2409 C 0.4199 0.23398 0.91285 0.0
C2410 C 0.41914 0.2489 0.91241 0.0
C2411 C 0.42607 0.27218 0.92215 0.0
C2412 C 0.43368 0.28017 0.93231 0.0
C2413 C 0.4265 0.25718 0.92248 0.0
C2414 C 0.44149 0.27299 0.94285 0.0
C2415 C 0.44194 0.25823 0.94323 0.0
H2416 H 0.7707 0.4336 0.94582 0.0
H2417 H 0.77555 0.4143 0.90454 0.0
H2418 H 0.74956 0.41167 0.90269 0.0
H2419 H 0.72529 0.41655 0.91245 0.0
H2420 H 0.72174 0.43617 0.95384 0.0
H2421 H 0.74741 0.43687 0.95602 0.0
C2422 C 0.76612 0.42879 0.93638 0.0
C2423 C 0.77498 0.42437 0.92523 0.0
C2424 C 0.75137 0.42738 0.93543 0.0
C2425 C 0.7689 0.41787 0.91324 0.0
C2426 C 0.75406 0.4164 0.91218 0.0
C2427 C 0.73019 0.42079 0.92199 0.0
C2428 C 0.72161 0.42646 0.93289 0.0
C2429 C 0.74515 0.42134 0.92315 0.0
C2430 C 0.72807 0.43192 0.94521 0.0
C2431 C 0.74277 0.43233 0.94649 0.0
H2432 H 0.58606 0.76966 0.91866 0.0
H2433 H 0.55613 0.7731 0.95338 0.0
H2434 H 0.55461 0.74747 0.95497 0.0
H2435 H 0.56107 0.72417 0.94648 0.0
H2436 H 0.59069 0.71945 0.9118 0.0
H2437 H 0.59309 0.74545 0.91028 0.0
C2438 C 0.57926 0.76476 0.92657 0.0
C2439 C 0.57117 0.77336 0.93583 0.0
C2440 C 0.57834 0.7498 0.92746 0.0
C2441 C 0.56242 0.76683 0.94605 0.0
C2442 C 0.56153 0.75212 0.94701 0.0
C2443 C 0.56809 0.72875 0.93856 0.0
C2444 C 0.57563 0.71987 0.92923 0.0
C2445 C 0.56934 0.74353 0.93773 0.0
C2446 C 0.58475 0.72606 0.91911 0.0
C2447 C 0.58609 0.74092 0.91823 0.0
H2448 H 0.73013 0.54892 0.06316 0.0
H2449 H 0.72117 0.58884 0.08385 0.0
H2450 H 0.74678 0.59309 0.08683 0.0
H2451 H 0.77188 0.58563 0.08258 0.0
H2452 H 0.77973 0.54558 0.06147 0.0
H2453 H 0.75439 0.54127 0.05965 0.0
C2454 C 0.73371 0.55857 0.06837 0.0
C2455 C 0.72375 0.56858 0.07319 0.0
C2456 C 0.7483 0.56094 0.06992 0.0
C2457 C 0.72863 0.58096 0.08002 0.0
C2458 C 0.74327 0.5834 0.08169 0.0
C2459 C 0.768 0.57595 0.07765 0.0
C2460 C 0.77774 0.566 0.07209 0.0
C2461 C 0.75324 0.5735 0.07654 0.0
C2462 C 0.77254 0.55349 0.06575 0.0
C2463 C 0.75802 0.55098 0.06471 0.0
H2464 H 0.4158 0.73081 0.08302 0.0
H2465 H 0.43494 0.72647 0.04147 0.0
H2466 H 0.43544 0.75208 0.03873 0.0
H2467 H 0.43154 0.77562 0.0482 0.0
H2468 H 0.41298 0.7811 0.08977 0.0
H2469 H 0.41103 0.75518 0.09236 0.0
C2470 C 0.41999 0.7355 0.07336 0.0
C2471 C 0.42542 0.72668 0.06253 0.0
C2472 C 0.42038 0.75043 0.07184 0.0
C2473 C 0.43081 0.73294 0.05006 0.0
C2474 C 0.43109 0.74762 0.04844 0.0
C2475 C 0.427 0.77121 0.05784 0.0
C2476 C 0.42249 0.78029 0.06881 0.0
C2477 C 0.42608 0.75645 0.05929 0.0
C2478 C 0.41654 0.77434 0.08116 0.0
C2479 C 0.41547 0.75952 0.08266 0.0
H2480 H 0.57545 0.22518 0.04802 0.0
H2481 H 0.58595 0.22133 0.09247 0.0
H2482 H 0.58803 0.24732 0.09429 0.0
H2483 H 0.58458 0.2713 0.08347 0.0
H2484 H 0.57343 0.27412 0.03903 0.0
H2485 H 0.574 0.24839 0.03697 0.0
C2486 C 0.5783 0.22999 0.05812 0.0
C2487 C 0.58036 0.22138 0.07013 0.0
C2488 C 0.5793 0.24479 0.05908 0.0
C2489 C 0.58427 0.22776 0.08306 0.0
C2490 C 0.5854 0.24262 0.08411 0.0
C2491 C 0.58252 0.26625 0.07332 0.0
C2492 C 0.57882 0.27461 0.06146 0.0
C2493 C 0.58262 0.25128 0.07223 0.0
C2494 C 0.57613 0.26793 0.04836 0.0
C2495 C 0.57645 0.25321 0.04716 0.0
H2496 H 0.93989 0.77716 0.57225 0.0
H2497 H 0.8986 0.7809 0.59179 0.0
H2498 H 0.89755 0.75487 0.59461 0.0
H2499 H 0.90841 0.73086 0.5906 0.0
H2500 H 0.94864 0.72835 0.5686 0.0
H2501 H 0.95006 0.75411 0.56765 0.0
C2502 C 0.93071 0.77236 0.57733 0.0
C2503 C 0.91944 0.78095 0.58203 0.0
C2504 C 0.92996 0.75756 0.57833 0.0
C2505 C 0.90746 0.77449 0.5882 0.0
C2506 C 0.90686 0.75963 0.58976 0.0
C2507 C 0.91744 0.73603 0.58563 0.0
C2508 C 0.92839 0.72774 0.57964 0.0
C2509 C 0.91802 0.75101 0.58472 0.0
C2510 C 0.94001 0.7345 0.57314 0.0
C2511 C 0.94089 0.74923 0.57265 0.0
H2512 H 0.22675 0.92967 0.5999 0.0
H2513 H 0.22502 0.89658 0.56822 0.0
H2514 H 0.25081 0.89373 0.56954 0.0
H2515 H 0.27403 0.90359 0.57671 0.0
H2516 H 0.27572 0.93603 0.60907 0.0
H2517 H 0.2498 0.93599 0.6107 0.0
C2518 C 0.232 0.92157 0.59358 0.0
C2519 C 0.22404 0.9135 0.58382 0.0
C2520 C 0.24684 0.91998 0.59441 0.0
C2521 C 0.23092 0.90293 0.57581 0.0
C2522 C 0.24569 0.90138 0.57647 0.0
C2523 C 0.26872 0.91035 0.5844 0.0
C2524 C 0.27675 0.91995 0.5926 0.0
C2525 C 0.2538 0.91028 0.58528 0.0
C2526 C 0.26978 0.92855 0.60263 0.0
C2527 C 0.25494 0.92863 0.60348 0.0
H2528 H 0.09915 0.22427 0.57687 0.0
H2529 H 0.06119 0.21952 0.60214 0.0
H2530 H 0.06115 0.24503 0.60719 0.0
H2531 H 0.06989 0.269 0.60155 0.0
H2532 H 0.10588 0.27398 0.57364 0.0
H2533 H 0.10894 0.24815 0.57268 0.0
C2534 C 0.09109 0.22879 0.58377 0.0
C2535 C 0.0802 0.22006 0.58914 0.0
C2536 C 0.09075 0.24356 0.58605 0.0
C2537 C 0.06966 0.22606 0.59786 0.0
C2538 C 0.06962 0.24064 0.60072 0.0
C2539 C 0.07865 0.26442 0.59562 0.0
C2540 C 0.08772 0.27333 0.58776 0.0
C2541 C 0.07983 0.24956 0.59448 0.0
C2542 C 0.09883 0.26729 0.57982 0.0
C2543 C 0.10051 0.25254 0.5792 0.0
H2544 H 0.77229 0.09176 0.59135 0.0
H2545 H 0.77494 0.05856 0.55967 0.0
H2546 H 0.74944 0.05522 0.56063 0.0
H2547 H 0.72637 0.06171 0.56987 0.0
H2548 H 0.72261 0.09356 0.60258 0.0
H2549 H 0.74851 0.0974 0.60188 0.0
C2550 C 0.76725 0.08379 0.58472 0.0
C2551 C 0.77558 0.07547 0.57543 0.0
C2552 C 0.75239 0.08169 0.58547 0.0
C2553 C 0.76889 0.06509 0.56698 0.0
C2554 C 0.75425 0.06318 0.56746 0.0
C2555 C 0.73118 0.06955 0.57684 0.0
C2556 C 0.7226 0.07749 0.5861 0.0
C2557 C 0.74592 0.07144 0.57657 0.0
C2558 C 0.72903 0.08736 0.5953 0.0
C2559 C 0.74381 0.08956 0.59487 0.0
H2560 H 0.9418 0.2285 0.44011 0.0
H2561 H 0.90998 0.22525 0.40729 0.0
H2562 H 0.90975 0.25126 0.40482 0.0
H2563 H 0.91898 0.275 0.412 0.0
H2564 H 0.94957 0.27753 0.44616 0.0
H2565 H 0.94981 0.25177 0.44814 0.0
C2566 C 0.93485 0.23347 0.43235 0.0
C2567 C 0.92608 0.22498 0.42374 0.0
C2568 C 0.93451 0.24833 0.43129 0.0
C2569 C 0.91689 0.23158 0.41398 0.0
C2570 C 0.91677 0.24644 0.41258 0.0
C2571 C 0.92564 0.26989 0.4199 0.0
C2572 C 0.93428 0.27823 0.42888 0.0
C2573 C 0.92557 0.25494 0.42118 0.0
C2574 C 0.94276 0.27143 0.43915 0.0
C2575 C 0.94297 0.25667 0.44026 0.0
H2576 H 0.72669 0.93216 0.39521 0.0
H2577 H 0.72017 0.90036 0.42754 0.0
H2578 H 0.74566 0.89513 0.42783 0.0
H2579 H 0.77004 0.90196 0.42129 0.0
H2580 H 0.77672 0.93607 0.39144 0.0
H2581 H 0.75105 0.93796 0.38756 0.0
C2582 C 0.73084 0.92384 0.40203 0.0
C2583 C 0.72161 0.91658 0.41128 0.0
C2584 C 0.74559 0.92143 0.40266 0.0
C2585 C 0.72711 0.90604 0.42031 0.0
C2586 C 0.74168 0.9031 0.42051 0.0
C2587 C 0.76586 0.90952 0.41365 0.0
C2588 C 0.7752 0.91879 0.40657 0.0
C2589 C 0.75107 0.91105 0.41208 0.0
C2590 C 0.76969 0.9288 0.39696 0.0
C2591 C 0.75502 0.92992 0.3948 0.0
H2592 H 0.06945 0.77355 0.43887 0.0
H2593 H 0.09393 0.77791 0.4004 0.0
H2594 H 0.09459 0.75188 0.39778 0.0
H2595 H 0.0877 0.72778 0.40653 0.0
H2596 H 0.06478 0.72443 0.44621 0.0
H2597 H 0.06412 0.75012 0.44828 0.0
C2598 C 0.07488 0.76882 0.42986 0.0
C2599 C 0.08142 0.77759 0.41971 0.0
C2600 C 0.07556 0.75399 0.4287 0.0
C2601 C 0.08873 0.77133 0.40829 0.0
C2602 C 0.0891 0.75647 0.40681 0.0
C2603 C 0.08265 0.73271 0.41564 0.0
C2604 C 0.07627 0.72413 0.42616 0.0
C2605 C 0.0825 0.74767 0.41696 0.0
C2606 C 0.06985 0.73069 0.43798 0.0
C2607 C 0.06939 0.74543 0.43917 0.0
H2608 H 0.22793 0.06163 0.43862 0.0
H2609 H 0.22499 0.09266 0.40506 0.0
H2610 H 0.25101 0.09231 0.40232 0.0
H2611 H 0.27476 0.083 0.40974 0.0
H2612 H 0.27691 0.05375 0.44505 0.0
H2613 H 0.25112 0.05362 0.44687 0.0
C2614 C 0.23297 0.06825 0.43063 0.0
C2615 C 0.22458 0.07698 0.4219 0.0
C2616 C 0.24784 0.06837 0.4295 0.0
C2617 C 0.23127 0.08578 0.41184 0.0
C2618 C 0.24612 0.08558 0.41029 0.0
C2619 C 0.26953 0.07666 0.41783 0.0
C2620 C 0.27777 0.06838 0.42724 0.0
C2621 C 0.25456 0.07691 0.4191 0.0
C2622 C 0.27087 0.0603 0.43775 0.0
C2623 C 0.25609 0.06015 0.43877 0.0
H2624 H 0.57161 0.90089 0.72756 0.0
H2625 H 0.60466 0.9326 0.72539 0.0
H2626 H 0.60662 0.93261 0.7513 0.0
H2627 H 0.59633 0.92619 0.77456 0.0
H2628 H 0.56435 0.89342 0.77679 0.0
H2629 H 0.56473 0.89102 0.7509 0.0
C2630 C 0.57948 0.90752 0.73278 0.0
C2631 C 0.58785 0.91685 0.72464 0.0
C2632 C 0.58064 0.90737 0.74767 0.0
C2633 C 0.59812 0.9253 0.73145 0.0
C2634 C 0.59916 0.9254 0.74627 0.0
C2635 C 0.58973 0.91828 0.76936 0.0
C2636 C 0.58022 0.91011 0.77749 0.0
C2637 C 0.59011 0.91687 0.7545 0.0
C2638 C 0.5718 0.89979 0.77072 0.0
C2639 C 0.57192 0.89851 0.75592 0.0
H2640 H 0.08671 0.59051 0.72516 0.0
H2641 H 0.06004 0.55321 0.7223 0.0
H2642 H 0.05987 0.55105 0.74801 0.0
H2643 H 0.06697 0.55958 0.7713 0.0
H2644 H 0.09512 0.59555 0.77505 0.0
H2645 H 0.09505 0.59843 0.74906 0.0
C2646 C 0.08092 0.58191 0.7302 0.0
C2647 C 0.07339 0.57205 0.72177 0.0
C2648 C 0.08107 0.58051 0.74514 0.0
C2649 C 0.06601 0.56089 0.72847 0.0
C2650 C 0.06584 0.55966 0.7432 0.0
C2651 C 0.07303 0.56813 0.76645 0.0
C2652 C 0.08086 0.57748 0.77506 0.0
C2653 C 0.07326 0.56942 0.75163 0.0
C2654 C 0.08894 0.58828 0.76862 0.0
C2655 C 0.08889 0.5899 0.75377 0.0
H2656 H 0.4393 0.06569 0.7274 0.0
H2657 H 0.40948 0.10037 0.7245 0.0
H2658 H 0.40977 0.10292 0.75048 0.0
H2659 H 0.41828 0.09481 0.77414 0.0
H2660 H 0.44658 0.05875 0.77644 0.0
H2661 H 0.44706 0.0572 0.75062 0.0
C2662 C 0.43296 0.07392 0.73243 0.0
C2663 C 0.42452 0.08295 0.72404 0.0
C2664 C 0.43283 0.07499 0.7473 0.0
C2665 C 0.41612 0.09334 0.73074 0.0
C2666 C 0.41628 0.09477 0.74558 0.0
C2667 C 0.42454 0.08664 0.76896 0.0
C2668 C 0.43239 0.07692 0.77723 0.0
C2669 C 0.42454 0.08558 0.754 0.0
C2670 C 0.44036 0.0663 0.77036 0.0
C2671 C 0.4407 0.06543 0.75558 0.0
H2672 H 0.90867 0.41031 0.72871 0.0
H2673 H 0.94762 0.43456 0.72712 0.0
H2674 H 0.9487 0.43505 0.75293 0.0
H2675 H 0.93842 0.42952 0.77583 0.0
H2676 H 0.89845 0.4072 0.77849 0.0
H2677 H 0.89791 0.40498 0.75245 0.0
C2678 C 0.91738 0.41562 0.73408 0.0
C2679 C 0.92804 0.42242 0.72603 0.0
C2680 C 0.91775 0.41623 0.74909 0.0
C2681 C 0.93922 0.42937 0.73308 0.0
C2682 C 0.93989 0.42962 0.74784 0.0
C2683 C 0.92963 0.42402 0.77078 0.0
C2684 C 0.91856 0.41842 0.77912 0.0
C2685 C 0.92919 0.42321 0.75593 0.0
C2686 C 0.90714 0.41157 0.77232 0.0
C2687 C 0.90682 0.41032 0.75743 0.0
H2688 H 0.58391 0.09274 0.2295 0.0
H2689 H 0.55604 0.0563 0.22688 0.0
H2690 H 0.55535 0.0547 0.25264 0.0
H2691 H 0.56231 0.06358 0.27592 0.0
H2692 H 0.59127 0.09898 0.27925 0.0
H2693 H 0.59182 0.1011 0.25324 0.0
C2694 C 0.57774 0.08443 0.23458 0.0
C2695 C 0.57002 0.07469 0.22621 0.0
C2696 C 0.57749 0.08343 0.24953 0.0
C2697 C 0.56215 0.06392 0.23299 0.0
C2698 C 0.56168 0.06301 0.24776 0.0
C2699 C 0.56867 0.07185 0.27098 0.0
C2700 C 0.57659 0.08123 0.27949 0.0
C2701 C 0.56922 0.07274 0.25612 0.0
C2702 C 0.58502 0.09167 0.27291 0.0
C2703 C 0.58535 0.09287 0.25805 0.0
H2704 H 0.9094 0.59175 0.23034 0.0
H2705 H 0.94145 0.55897 0.2274 0.0
H2706 H 0.94271 0.55757 0.25313 0.0
H2707 H 0.93449 0.565 0.27644 0.0
H2708 H 0.90416 0.59906 0.28046 0.0
H2709 H 0.90239 0.60064 0.25436 0.0
C2710 C 0.9167 0.58439 0.23537 0.0
C2711 C 0.92527 0.57544 0.22692 0.0
C2712 C 0.9176 0.58379 0.25034 0.0
C2713 C 0.93478 0.56604 0.23359 0.0
C2714 C 0.93547 0.56515 0.24834 0.0
C2715 C 0.92742 0.57273 0.2716 0.0
C2716 C 0.91924 0.5817 0.28027 0.0
C2717 C 0.92686 0.57385 0.25678 0.0
C2718 C 0.91044 0.59195 0.27393 0.0
C2719 C 0.90946 0.59285 0.25904 0.0
H2720 H 0.39814 0.92389 0.23266 0.0
H2721 H 0.43163 0.89287 0.22856 0.0
H2722 H 0.43153 0.88907 0.25425 0.0
H2723 H 0.42477 0.89776 0.27807 0.0
H2724 H 0.39042 0.92783 0.28213 0.0
H2725 H 0.38778 0.9286 0.2563 0.0
C2726 C 0.40511 0.916 0.23738 0.0
C2727 C 0.41501 0.90882 0.2288 0.0
C2728 C 0.40494 0.91382 0.25216 0.0
C2729 C 0.4239 0.89851 0.23496 0.0
C2730 C 0.42394 0.89643 0.24968 0.0
C2731 C 0.41644 0.90414 0.27328 0.0
C2732 C 0.40794 0.91287 0.28193 0.0
C2733 C 0.41494 0.90448 0.25842 0.0
C2734 C 0.39708 0.921 0.27567 0.0
C2735 C 0.39565 0.92155 0.26089 0.0
H2736 H 0.07865 0.39946 0.27638 0.0
H2737 H 0.10657 0.43532 0.28212 0.0
H2738 H 0.11032 0.43679 0.25639 0.0
H2739 H 0.10282 0.43008 0.23223 0.0
H2740 H 0.07204 0.39661 0.22664 0.0
H2741 H 0.0723 0.3918 0.25222 0.0
C2742 C 0.08587 0.40731 0.27198 0.0
C2743 C 0.09245 0.41718 0.28105 0.0
C2744 C 0.08728 0.40859 0.25716 0.0
C2745 C 0.10148 0.42757 0.27528 0.0
C2746 C 0.10355 0.42845 0.26059 0.0
C2747 C 0.09649 0.42149 0.23662 0.0
C2748 C 0.08751 0.41361 0.22764 0.0
C2749 C 0.09611 0.41934 0.2514 0.0
C2750 C 0.07907 0.40274 0.23341 0.0
C2751 C 0.07917 0.40004 0.24801 0.0
H2752 H 0.7296 0.59974 0.92661 0.0
H2753 H 0.7246 0.5699 0.89219 0.0
H2754 H 0.75038 0.5693 0.88872 0.0
H2755 H 0.77433 0.57438 0.89793 0.0
H2756 H 0.77917 0.6019 0.93427 0.0
H2757 H 0.75358 0.60644 0.93447 0.0
C2758 C 0.73415 0.59345 0.91808 0.0
C2759 C 0.72524 0.58491 0.90963 0.0
C2760 C 0.749 0.59258 0.91666 0.0
C2761 C 0.73127 0.57657 0.8988 0.0
C2762 C 0.74601 0.57616 0.89688 0.0
C2763 C 0.76981 0.58166 0.90565 0.0
C2764 C 0.7786 0.58779 0.91608 0.0
C2765 C 0.755 0.58369 0.9061 0.0
C2766 C 0.77259 0.59702 0.92617 0.0
C2767 C 0.75796 0.59959 0.92631 0.0
H2768 H 0.77521 0.40542 0.07189 0.0
H2769 H 0.77304 0.43893 0.10307 0.0
H2770 H 0.74711 0.43706 0.10358 0.0
H2771 H 0.72493 0.42762 0.09314 0.0
H2772 H 0.72707 0.39271 0.06355 0.0
H2773 H 0.75309 0.3932 0.06456 0.0
C2774 C 0.76903 0.41209 0.07899 0.0
C2775 C 0.77596 0.42238 0.08734 0.0
C2776 C 0.75413 0.41075 0.07945 0.0
C2777 C 0.76792 0.4309 0.09659 0.0
C2778 C 0.75309 0.4299 0.09682 0.0
C2779 C 0.73113 0.41994 0.08718 0.0
C2780 C 0.72417 0.41021 0.07822 0.0
C2781 C 0.74606 0.42012 0.08801 0.0
C2782 C 0.73224 0.40024 0.07058 0.0
C2783 C 0.7471 0.40059 0.07107 0.0
H2784 H 0.56824 0.72264 0.09777 0.0
H2785 H 0.60671 0.72053 0.07295 0.0
H2786 H 0.60933 0.74635 0.0744 0.0
H2787 H 0.59863 0.7697 0.07974 0.0
H2788 H 0.56113 0.77178 0.10601 0.0
H2789 H 0.56032 0.74583 0.10727 0.0
C2790 C 0.57737 0.72784 0.09301 0.0
C2791 C 0.58718 0.71977 0.08513 0.0
C2792 C 0.57893 0.74267 0.09407 0.0
C2793 C 0.59905 0.72654 0.07909 0.0
C2794 C 0.6005 0.74131 0.07983 0.0
C2795 C 0.59055 0.76444 0.08608 0.0
C2796 C 0.57989 0.77258 0.09266 0.0
C2797 C 0.59022 0.74952 0.08686 0.0
C2798 C 0.56949 0.76572 0.10091 0.0
C2799 C 0.56894 0.75087 0.10151 0.0
H2800 H 0.26756 0.56697 0.05969 0.0
H2801 H 0.27207 0.59696 0.09406 0.0
H2802 H 0.24618 0.59672 0.09772 0.0
H2803 H 0.22216 0.58765 0.09103 0.0
H2804 H 0.21854 0.55873 0.05552 0.0
H2805 H 0.24416 0.55893 0.05245 0.0
C2806 C 0.26293 0.57342 0.06806 0.0
C2807 C 0.27175 0.58183 0.07671 0.0
C2808 C 0.24815 0.57345 0.06986 0.0
C2809 C 0.26551 0.59035 0.08729 0.0
C2810 C 0.25072 0.5902 0.08938 0.0
C2811 C 0.22701 0.58143 0.08263 0.0
C2812 C 0.21838 0.57317 0.07355 0.0
C2813 C 0.2419 0.58175 0.08072 0.0
C2814 C 0.22484 0.56525 0.06263 0.0
C2815 C 0.23954 0.5653 0.06087 0.0
H2816 H 0.42081 0.22739 0.05876 0.0
H2817 H 0.41271 0.2236 0.10375 0.0
H2818 H 0.41029 0.24955 0.10552 0.0
H2819 H 0.4124 0.2736 0.09432 0.0
H2820 H 0.42306 0.27633 0.04981 0.0
H2821 H 0.42255 0.25053 0.0478 0.0
C2822 C 0.41829 0.23214 0.06896 0.0
C2823 C 0.41689 0.22351 0.08109 0.0
C2824 C 0.41753 0.24696 0.06999 0.0
C2825 C 0.41381 0.22998 0.09422 0.0
C2826 C 0.41249 0.24482 0.09525 0.0
C2827 C 0.41448 0.26846 0.08422 0.0
C2828 C 0.4178 0.27676 0.07222 0.0
C2829 C 0.41464 0.25347 0.08323 0.0
C2830 C 0.4206 0.27008 0.05918 0.0
C2831 C 0.42027 0.25535 0.05801 0.0
H2832 H 0.23234 0.43023 0.90103 0.0
H2833 H 0.22762 0.3956 0.93067 0.0
H2834 H 0.2533 0.39142 0.93016 0.0
H2835 H 0.27725 0.40004 0.92421 0.0
H2836 H 0.282 0.43672 0.89714 0.0
H2837 H 0.25625 0.43762 0.89353 0.0
C2838 C 0.23692 0.4215 0.90703 0.0
C2839 C 0.22815 0.41318 0.91582 0.0
C2840 C 0.25175 0.41969 0.90729 0.0
C2841 C 0.2342 0.4021 0.9238 0.0
C2842 C 0.24888 0.39978 0.92357 0.0
C2843 C 0.27265 0.40798 0.91723 0.0
C2844 C 0.28147 0.4183 0.91094 0.0
C2845 C 0.2578 0.40886 0.91579 0.0
C2846 C 0.27539 0.4287 0.90211 0.0
C2847 C 0.26068 0.42924 0.90009 0.0
H2848 H 0.57334 0.27196 0.94072 0.0
H2849 H 0.59975 0.27461 0.90336 0.0
H2850 H 0.59934 0.24854 0.90117 0.0
H2851 H 0.59078 0.22496 0.90981 0.0
H2852 H 0.56556 0.22327 0.94818 0.0
H2853 H 0.56627 0.24899 0.95005 0.0
C2854 C 0.57899 0.26686 0.93205 0.0
C2855 C 0.58638 0.27518 0.92209 0.0
C2856 C 0.57894 0.25201 0.93107 0.0
C2857 C 0.59393 0.2684 0.91112 0.0
C2858 C 0.59367 0.25352 0.90987 0.0
C2859 C 0.58551 0.23025 0.91859 0.0
C2860 C 0.57807 0.22215 0.9288 0.0
C2861 C 0.58611 0.2452 0.91976 0.0
C2862 C 0.5714 0.22916 0.94019 0.0
C2863 C 0.57174 0.24391 0.94126 0.0
H2864 H 0.41166 0.77705 0.91081 0.0
H2865 H 0.44161 0.77895 0.94556 0.0
H2866 H 0.44149 0.75318 0.94739 0.0
H2867 H 0.43336 0.73011 0.93905 0.0
H2868 H 0.40213 0.72739 0.90564 0.0
H2869 H 0.40219 0.75344 0.90336 0.0
C2870 C 0.4181 0.77179 0.91879 0.0
C2871 C 0.42667 0.77993 0.928 0.0
C2872 C 0.41778 0.75684 0.92 0.0
C2873 C 0.43487 0.77298 0.93839 0.0
C2874 C 0.43486 0.75821 0.93942 0.0
C2875 C 0.42659 0.73521 0.93122 0.0
C2876 C 0.41791 0.72687 0.92239 0.0
C2877 C 0.42644 0.75006 0.93025 0.0
C2878 C 0.40895 0.73362 0.91252 0.0
C2879 C 0.40901 0.74849 0.91122 0.0
H2880 H 0.0279 0.15328 0.41837 0.0
H2881 H 0.03546 0.19824 0.41266 0.0
H2882 H 0.01003 0.20258 0.41151 0.0
H2883 H 0.98583 0.19431 0.41613 0.0
H2884 H 0.97756 0.14962 0.42153 0.0
H2885 H 0.00302 0.14441 0.41864 0.0
C2886 C 0.02398 0.16396 0.41648 0.0
C2887 C 0.0336 0.17545 0.41594 0.0
C2888 C 0.00921 0.16647 0.41598 0.0
C2889 C 0.02833 0.18921 0.41339 0.0
C2890 C 0.01376 0.19175 0.41276 0.0
C2891 C 0.9896 0.1834 0.41629 0.0
C2892 C 0.98001 0.17236 0.41913 0.0
C2893 C 0.00414 0.18057 0.41468 0.0
C2894 C 0.98485 0.15826 0.41928 0.0
C2895 C 0.99939 0.15531 0.41774 0.0
H2896 H 0.8124 0.03021 0.4157 0.0
H2897 H 0.858 0.02716 0.41159 0.0
H2898 H 0.8561 0.00131 0.409 0.0
H2899 H 0.84154 0.97929 0.41078 0.0
H2900 H 0.79616 0.98306 0.41644 0.0
H2901 H 0.79793 0.00885 0.41547 0.0
C2902 C 0.82195 0.02396 0.41406 0.0
C2903 C 0.83533 0.03064 0.41402 0.0
C2904 C 0.82082 0.00915 0.41298 0.0
C2905 C 0.84755 0.02232 0.41172 0.0
C2906 C 0.84648 0.00751 0.41032 0.0
C2907 C 0.83205 0.9858 0.41153 0.0
C2908 C 0.81876 0.9793 0.4138 0.0
C2909 C 0.83319 0.00076 0.41135 0.0
C2910 C 0.80653 0.98782 0.41485 0.0
C2911 C 0.80752 0.00258 0.41429 0.0
H2912 H 0.9772 0.82058 0.40837 0.0
H2913 H 0.9777 0.86449 0.42161 0.0
H2914 H 0.00376 0.86417 0.42197 0.0
H2915 H 0.02616 0.85005 0.42246 0.0
H2916 H 0.0247 0.80564 0.41133 0.0
H2917 H 0.99934 0.80748 0.40613 0.0
C2918 C 0.98298 0.8302 0.41107 0.0
C2919 C 0.97549 0.84247 0.41519 0.0
C2920 C 0.99786 0.82976 0.41179 0.0
C2921 C 0.98319 0.85488 0.41844 0.0
C2922 C 0.9981 0.85466 0.41877 0.0
C2923 C 0.02029 0.84095 0.4185 0.0
C2924 C 0.02717 0.82774 0.4172 0.0
C2925 C 0.00553 0.84197 0.41606 0.0
C2926 C 0.01953 0.81589 0.41234 0.0
C2927 C 0.00505 0.81693 0.40943 0.0
H2928 H 0.14521 0.98047 0.41985 0.0
H2929 H 0.18553 0.97153 0.39983 0.0
H2930 H 0.19031 0.99685 0.39757 0.0
H2931 H 0.18535 0.02106 0.40586 0.0
H2932 H 0.14541 0.03045 0.42608 0.0
H2933 H 0.13803 0.00554 0.42355 0.0
C2934 C 0.15479 0.98408 0.41452 0.0
C2935 C 0.16514 0.97412 0.41031 0.0
C2936 C 0.15765 0.99876 0.41353 0.0
C2937 C 0.17749 0.97898 0.40339 0.0
C2938 C 0.18028 0.99347 0.40215 0.0
C2939 C 0.17483 0.01771 0.4092 0.0
C2940 C 0.1659 0.02742 0.41612 0.0
C2941 C 0.17081 0.0034 0.40789 0.0
C2942 C 0.15235 0.02308 0.42058 0.0
C2943 C 0.14821 0.00883 0.41926 0.0
H2944 H 0.98206 0.81171 0.58784 0.0
H2945 H 0.97246 0.85562 0.57909 0.0
H2946 H 0.99774 0.86176 0.58145 0.0
H2947 H 0.02287 0.85364 0.58202 0.0
H2948 H 0.03181 0.8094 0.59044 0.0
H2949 H 0.00652 0.80445 0.59251 0.0
C2950 C 0.98549 0.82269 0.58677 0.0
C2951 C 0.97555 0.83318 0.58311 0.0
C2952 C 0.99995 0.82604 0.58798 0.0
C2953 C 0.97999 0.84738 0.58192 0.0
C2954 C 0.99445 0.85085 0.58316 0.0
C2955 C 0.01928 0.84302 0.58473 0.0
C2956 C 0.02921 0.83185 0.5858 0.0
C2957 C 0.00459 0.84014 0.58562 0.0
C2958 C 0.02439 0.81815 0.58933 0.0
C2959 C 0.00991 0.81527 0.59048 0.0
H2960 H 0.15817 0.02539 0.58387 0.0
H2961 H 0.203 0.03546 0.58407 0.0
H2962 H 0.20884 0.01031 0.58512 0.0
H2963 H 0.20144 0.98555 0.58304 0.0
H2964 H 0.15685 0.9749 0.58253 0.0
H2965 H 0.1507 1.00014 0.58477 0.0
C2966 C 0.1692 0.02209 0.58443 0.0
C2967 C 0.18012 0.03234 0.58366 0.0
C2968 C 0.17255 0.00749 0.58485 0.0
C2969 C 0.19437 0.02784 0.58445 0.0
C2970 C 0.19774 0.01343 0.58504 0.0
C2971 C 0.19037 0.98872 0.58362 0.0
C2972 C 0.17962 0.97842 0.58242 0.0
C2973 C 0.18695 0.00318 0.58475 0.0
C2974 C 0.16533 0.98265 0.5834 0.0
C2975 C 0.16181 0.99709 0.5846 0.0
H2976 H 0.01409 0.19546 0.58159 0.0
H2977 H 0.02266 0.15055 0.5845 0.0
H2978 H 0.99707 0.14568 0.58645 0.0
H2979 H 0.97217 0.15424 0.58455 0.0
H2980 H 0.96432 0.19942 0.58175 0.0
H2981 H 0.98969 0.20411 0.58274 0.0
C2982 C 0.01037 0.18461 0.58283 0.0
C2983 C 0.02018 0.17337 0.58269 0.0
C2984 C 0.99575 0.18194 0.58389 0.0
C2985 C 0.01527 0.15938 0.58455 0.0
C2986 C 0.00065 0.1566 0.58559 0.0
C2987 C 0.976 0.16511 0.58445 0.0
C2988 C 0.9663 0.17644 0.58284 0.0
C2989 C 0.99075 0.16779 0.58488 0.0
C2990 C 0.97149 0.19047 0.58278 0.0
C2991 C 0.98604 0.19319 0.58332 0.0
H2992 H 0.80536 0.01934 0.56274 0.0
H2993 H 0.84786 0.02556 0.57869 0.0
H2994 H 0.85086 0.99967 0.58097 0.0
H2995 H 0.84168 0.97523 0.57679 0.0
H2996 H 0.79863 0.96993 0.56153 0.0
H2997 H 0.79555 0.99552 0.56077 0.0
C2998 C 0.81528 0.01504 0.56676 0.0
C2999 C 0.82646 0.02426 0.57032 0.0
C3000 C 0.81681 1.00031 0.56816 0.0
C3001 C 0.83913 0.01861 0.57582 0.0
C3002 C 0.84084 0.00383 0.57708 0.0
C3003 C 0.83158 0.97968 0.57346 0.0
C3004 C 0.82048 0.9706 0.56906 0.0
C3005 C 0.8298 0.99456 0.57305 0.0
C3006 C 0.80742 0.97658 0.56489 0.0
C3007 C 0.80562 0.99126 0.5644 0.0
H3008 H 0.41453 0.02792 0.19097 0.0
H3009 H 0.41301 0.0209 0.14567 0.0
H3010 H 0.41151 0.99521 0.14961 0.0
H3011 H 0.41377 0.97464 0.16598 0.0
H3012 H 0.41636 0.98229 0.21116 0.0
H3013 H 0.41419 0.00777 0.2072 0.0
C3014 C 0.41366 0.02082 0.18193 0.0
C3015 C 0.41409 0.02635 0.16804 0.0
C3016 C 0.41313 0.0061 0.18426 0.0
C3017 C 0.41276 0.01695 0.15648 0.0
C3018 C 0.41199 0.00223 0.15873 0.0
C3019 C 0.41357 0.98189 0.17495 0.0
C3020 C 0.41539 0.97658 0.18883 0.0
C3021 C 0.41263 0.99666 0.17258 0.0
C3022 C 0.41514 0.9861 0.20035 0.0
C3023 C 0.41391 0.00069 0.19811 0.0
H3024 H 0.0265 0.41876 0.16072 0.0
H3025 H 0.02083 0.41793 0.20624 0.0
H3026 H 0.99529 0.41506 0.20327 0.0
H3027 H 0.97447 0.4158 0.18809 0.0
H3028 H 0.97923 0.41836 0.14255 0.0
H3029 H 0.00516 0.41719 0.14512 0.0
C3030 C 0.01966 0.41766 0.16993 0.0
C3031 C 0.0255 0.41869 0.18368 0.0
C3032 C 0.00481 0.41643 0.16815 0.0
C3033 C 0.01655 0.41734 0.19556 0.0
C3034 C 0.00194 0.41569 0.19388 0.0
C3035 C 0.98113 0.4159 0.17867 0.0
C3036 C 0.97491 0.41737 0.16516 0.0
C3037 C 0.99593 0.4157 0.18027 0.0
C3038 C 0.98373 0.41727 0.15309 0.0
C3039 C 0.99857 0.41671 0.15457 0.0
H3040 H 0.59263 0.97939 0.17601 0.0
H3041 H 0.56653 0.97656 0.13842 0.0
H3042 H 0.5645 0.00245 0.13769 0.0
H3043 H 0.56642 0.02537 0.15049 0.0
H3044 H 0.59258 0.02812 0.18794 0.0
H3045 H 0.59846 0.00283 0.18597 0.0
C3046 C 0.58685 0.98447 0.16742 0.0
C3047 C 0.57955 0.97607 0.15743 0.0
C3048 C 0.58559 0.99935 0.16718 0.0
C3049 C 0.57224 0.98278 0.14625 0.0
C3050 C 0.57095 0.9976 0.14592 0.0
C3051 C 0.57381 0.02048 0.15787 0.0
C3052 C 0.57914 0.02845 0.1693 0.0
C3053 C 0.57702 0.00592 0.15671 0.0
C3054 C 0.58853 0.02211 0.17898 0.0
C3055 C 0.59178 0.00766 0.17791 0.0
H3056 H 0.02021 0.59716 0.17682 0.0
H3057 H 0.02399 0.5679 0.14171 0.0
H3058 H 0.99815 0.56613 0.14019 0.0
H3059 H 0.97487 0.56921 0.15202 0.0
H3060 H 0.97105 0.59862 0.18687 0.0
H3061 H 0.99645 0.60416 0.18528 0.0
C3062 C 0.01536 0.59074 0.16856 0.0
C3063 C 0.02402 0.58247 0.15958 0.0
C3064 C 1.00047 0.58964 0.16785 0.0
C3065 C 0.0176 0.57434 0.14879 0.0
C3066 C 0.00279 0.57321 0.148 0.0
C3067 C 0.97956 0.57723 0.15887 0.0
C3068 C 0.97124 0.58356 0.16951 0.0
C3069 C 0.99417 0.58025 0.15793 0.0
C3070 C 0.97731 0.59378 0.1785 0.0
C3071 C 0.99184 0.59683 0.17767 0.0
H3072 H 0.40219 0.98101 0.8253 0.0
H3073 H 0.42698 0.9777 0.86377 0.0
H3074 H 0.42895 0.00354 0.8649 0.0
H3075 H 0.42791 0.02648 0.85214 0.0
H3076 H 0.40369 0.02967 0.81344 0.0
H3077 H 0.39707 0.00455 0.81524 0.0
C3078 C 0.40767 0.98596 0.83417 0.0
C3079 C 0.4147 0.97741 0.84425 0.0
C3080 C 0.40903 0.00083 0.83459 0.0
C3081 C 0.42156 0.98399 0.8558 0.0
C3082 C 0.42281 0.99879 0.85639 0.0
C3083 C 0.42072 0.02175 0.84446 0.0
C3084 C 0.41618 0.02978 0.83273 0.0
C3085 C 0.41723 0.00725 0.84544 0.0
C3086 C 0.4071 0.02363 0.82264 0.0
C3087 C 0.40345 0.00926 0.82361 0.0
H3088 H 0.02741 0.41568 0.81771 0.0
H3089 H 0.025 0.41404 0.8635 0.0
H3090 H 0.99903 0.41244 0.86215 0.0
H3091 H 0.97686 0.41495 0.8479 0.0
H3092 H 0.9801 0.41866 0.80231 0.0
H3093 H 0.00582 0.4159 0.80362 0.0
C3094 C 0.02127 0.41475 0.82743 0.0
C3095 C 0.02817 0.4152 0.84069 0.0
C3096 C 0.0064 0.41434 0.82659 0.0
C3097 C 0.01998 0.4138 0.85314 0.0
C3098 C 0.00511 0.41298 0.85237 0.0
C3099 C 0.98323 0.41482 0.83828 0.0
C3100 C 0.97667 0.41706 0.82503 0.0
C3101 C 0.99817 0.41375 0.83916 0.0
C3102 C 0.98497 0.41704 0.81262 0.0
C3103 C 0.99967 0.41549 0.81337 0.0
H3104 H 0.57785 0.02754 0.81307 0.0
H3105 H 0.58658 0.02236 0.85782 0.0
H3106 H 0.587 0.99651 0.85483 0.0
H3107 H 0.58254 0.97528 0.83982 0.0
H3108 H 0.57273 0.98111 0.79537 0.0
H3109 H 0.57515 0.00674 0.79795 0.0
C3110 C 0.58001 0.02081 0.82218 0.0
C3111 C 0.58204 0.02693 0.83568 0.0
C3112 C 0.57993 0.006 0.82045 0.0
C3113 C 0.58492 0.01797 0.84731 0.0
C3114 C 0.58511 0.00316 0.84561 0.0
C3115 C 0.58115 0.98217 0.83068 0.0
C3116 C 0.57734 0.97629 0.81745 0.0
C3117 C 0.58228 0.99704 0.83229 0.0
C3118 C 0.57552 0.98535 0.8057 0.0
C3119 C 0.57691 1.00003 0.80716 0.0
H3120 H 0.0198 0.57234 0.80482 0.0
H3121 H 0.0297 0.57943 0.84896 0.0
H3122 H 0.00426 0.58237 0.8543 0.0
H3123 H 0.97904 0.5805 0.84652 0.0
H3124 H 0.97002 0.57414 0.8019 0.0
H3125 H 0.99525 0.57356 0.79666 0.0
C3126 C 0.01638 0.5747 0.81559 0.0
C3127 C 0.02649 0.57548 0.82652 0.0
C3128 C 0.00189 0.57645 0.81849 0.0
C3129 C 0.02204 0.57877 0.84038 0.0
C3130 C 0.00751 0.58038 0.84343 0.0
C3131 C 0.9826 0.57922 0.83563 0.0
C3132 C 0.97256 0.57711 0.82469 0.0
C3133 C 0.99729 0.57889 0.8326 0.0
C3134 C 0.97742 0.57561 0.81061 0.0
C3135 C 0.99189 0.57524 0.80755 0.0
H3136 H 0.18641 0.41216 0.02965 0.0
H3137 H 0.14145 0.41905 0.02369 0.0
H3138 H 0.14461 0.41782 0.99787 0.0
H3139 H 0.16083 0.4182 0.97701 0.0
H3140 H 0.2059 0.41292 0.98377 0.0
H3141 H 0.202 0.41001 0.00919 0.0
C3142 C 0.17723 0.41318 0.02274 0.0
C3143 C 0.16375 0.41592 0.02861 0.0
C3144 C 0.17919 0.4129 0.00799 0.0
C3145 C 0.15196 0.41699 0.01947 0.0
C3146 C 0.15378 0.41639 0.00469 0.0
C3147 C 0.16972 0.4161 0.98405 0.0
C3148 C 0.18365 0.41591 0.97857 0.0
C3149 C 0.16744 0.41486 0.99881 0.0
C3150 C 0.1951 0.41326 0.98777 0.0
C3151 C 0.19289 0.41161 0.00231 0.0
H3152 H 0.17279 0.59624 0.97882 0.0
H3153 H 0.13695 0.56815 0.9734 0.0
H3154 H 0.13399 0.56666 0.99916 0.0
H3155 H 0.14474 0.56954 0.02297 0.0
H3156 H 0.18026 0.5979 0.02841 0.0
H3157 H 0.18014 0.6033 0.00294 0.0
C3158 C 0.16405 0.59017 0.98329 0.0
C3159 C 0.15525 0.58213 0.97426 0.0
C3160 C 0.16249 0.58928 0.99812 0.0
C3161 C 0.14387 0.57442 0.98014 0.0
C3162 C 0.14227 0.57345 0.99488 0.0
C3163 C 0.15205 0.57733 0.01861 0.0
C3164 C 0.16247 0.58338 0.02741 0.0
C3165 C 0.15195 0.58027 0.00396 0.0
C3166 C 0.17205 0.5933 0.02176 0.0
C3167 C 0.17207 0.59626 0.0072 0.0
H3168 H 0.41439 0.19377 0.01658 0.0
H3169 H 0.42139 0.1497 0.02685 0.0
H3170 H 0.41954 0.14339 0.00157 0.0
H3171 H 0.41934 0.15117 0.97633 0.0
H3172 H 0.41225 0.19554 0.96677 0.0
H3173 H 0.41048 0.20091 0.99196 0.0
C3174 C 0.41524 0.18274 0.01329 0.0
C3175 C 0.41821 0.17223 0.02345 0.0
C3176 C 0.41426 0.17928 0.99885 0.0
C3177 C 0.41909 0.15796 0.01916 0.0
C3178 C 0.41815 0.15439 0.00471 0.0
C3179 C 0.41708 0.16194 0.97976 0.0
C3180 C 0.41623 0.17297 0.96964 0.0
C3181 C 0.41622 0.16505 0.9944 0.0
C3182 C 0.41319 0.18687 0.97429 0.0
C3183 C 0.4122 0.18998 0.98872 0.0
H3184 H 0.84854 0.42028 0.9814 0.0
H3185 H 0.80398 0.41596 0.97099 0.0
H3186 H 0.79801 0.41478 0.99606 0.0
H3187 H 0.80489 0.41827 0.02083 0.0
H3188 H 0.84915 0.42215 0.03195 0.0
H3189 H 0.8558 0.41999 0.00679 0.0
C3190 C 0.83757 0.41877 0.98462 0.0
C3191 C 0.82672 0.41853 0.97427 0.0
C3192 C 0.83411 0.41816 0.9992 0.0
C3193 C 0.81256 0.41643 0.97866 0.0
C3194 C 0.80909 0.41577 0.99304 0.0
C3195 C 0.81602 0.41836 0.01775 0.0
C3196 C 0.82651 0.42053 0.02812 0.0
C3197 C 0.8197 0.41715 0.00337 0.0
C3198 C 0.84089 0.42046 0.0241 0.0
C3199 C 0.84468 0.41933 0.00972 0.0
H3200 H 0.58376 0.83719 0.02782 0.0
H3201 H 0.58639 0.79166 0.02295 0.0
H3202 H 0.5894 0.79432 0.99737 0.0
H3203 H 0.58796 0.80915 0.97626 0.0
H3204 H 0.58373 0.85465 0.98041 0.0
H3205 H 0.58497 0.85248 0.00632 0.0
C3206 C 0.58534 0.82791 0.02116 0.0
C3207 C 0.58474 0.81424 0.02722 0.0
C3208 C 0.58662 0.8295 0.00631 0.0
C3209 C 0.58669 0.80228 0.0185 0.0
C3210 C 0.58838 0.80378 0.00386 0.0
C3211 C 0.58753 0.81865 0.98278 0.0
C3212 C 0.58552 0.83202 0.97637 0.0
C3213 C 0.58783 0.81729 0.99762 0.0
C3214 C 0.5852 0.84421 0.98504 0.0
C3215 C 0.58582 0.84296 0.99988 0.0
H3216 H 0.81216 0.58282 0.02959 0.0
H3217 H 0.85757 0.58902 0.02718 0.0
H3218 H 0.8561 0.59037 0.00123 0.0
H3219 H 0.84214 0.58695 0.97908 0.0
H3220 H 0.797 0.57929 0.98219 0.0
H3221 H 0.79815 0.58143 0.00795 0.0
C3222 C 0.82175 0.58467 0.02345 0.0
C3223 C 0.83497 0.58564 0.03036 0.0
C3224 C 0.82088 0.58503 0.00858 0.0
C3225 C 0.84724 0.58816 0.02216 0.0
C3226 C 0.84642 0.58886 0.0073 0.0
C3227 C 0.83255 0.58601 0.98542 0.0
C3228 C 0.81953 0.58284 0.97876 0.0
C3229 C 0.83334 0.58689 1.00036 0.0
C3230 C 0.80718 0.58157 0.98708 0.0
C3231 C 0.80781 0.5828 0.00182 0.0
H3232 H 0.42587 0.85489 0.97866 0.0
H3233 H 0.40506 0.81419 0.97611 0.0
H3234 H 0.3996 0.8151 0.00151 0.0
H3235 H 0.40487 0.82531 0.02489 0.0
H3236 H 0.4263 0.86577 0.02774 0.0
H3237 H 0.42702 0.86739 0.00182 0.0
C3238 C 0.41964 0.84654 0.98362 0.0
C3239 C 0.41574 0.83455 0.97565 0.0
C3240 C 0.41685 0.84702 0.99831 0.0
C3241 C 0.40796 0.82359 0.98211 0.0
C3242 C 0.40497 0.82406 0.99663 0.0
C3243 C 0.40933 0.83468 0.01983 0.0
C3244 C 0.41576 0.84527 0.02821 0.0
C3245 C 0.40996 0.83539 0.00494 0.0
C3246 C 0.42132 0.85743 0.02154 0.0
C3247 C 0.42186 0.8583 0.00669 0.0
H3248 H 0.57629 0.14739 0.98027 0.0
H3249 H 0.59683 0.18826 0.97829 0.0
H3250 H 0.6019 0.18724 0.00376 0.0
H3251 H 0.59653 0.17679 0.02697 0.0
H3252 H 0.57523 0.13624 0.02936 0.0
H3253 H 0.57478 0.1348 0.0034 0.0
C3254 C 0.58236 0.15576 0.98538 0.0
C3255 C 0.58632 0.16783 0.97754 0.0
C3256 C 0.58491 0.15523 1.00013 0.0
C3257 C 0.59388 0.17882 0.98419 0.0
C3258 C 0.59666 0.17828 0.99875 0.0
C3259 C 0.59214 0.16745 0.02181 0.0
C3260 C 0.5857 0.15677 0.03006 0.0
C3261 C 0.59164 0.16685 0.00691 0.0
C3262 C 0.58022 0.14464 0.02325 0.0
C3263 C 0.57984 0.14387 0.00839 0.0
H3264 H 0.52665 0.68806 0.91851 0.0
H3265 H 0.5236 0.64269 0.91235 0.0
H3266 H 0.49768 0.64456 0.91076 0.0
H3267 H 0.47572 0.65878 0.91458 0.0
H3268 H 0.47953 0.70371 0.92291 0.0
H3269 H 0.50525 0.70235 0.92009 0.0
C3270 C 0.52038 0.67857 0.91659 0.0
C3271 C 0.52709 0.66523 0.91576 0.0
C3272 C 0.50554 0.67965 0.91622 0.0
C3273 C 0.51874 0.6531 0.91311 0.0
C3274 C 0.50389 0.65415 0.91229 0.0
C3275 C 0.48221 0.66828 0.91544 0.0
C3276 C 0.47583 0.68131 0.919 0.0
C3277 C 0.49714 0.66731 0.91434 0.0
C3278 C 0.48428 0.69355 0.92026 0.0
C3279 C 0.49897 0.69278 0.91868 0.0
H3280 H 0.34911 0.52516 0.91323 0.0
H3281 H 0.30397 0.53344 0.91541 0.0
H3282 H 0.29904 0.50813 0.91394 0.0
H3283 H 0.30745 0.48365 0.91514 0.0
H3284 H 0.35232 0.47468 0.91292 0.0
H3285 H 0.35746 0.50022 0.9111 0.0
C3286 C 0.3382 0.52144 0.91308 0.0
C3287 C 0.32695 0.53122 0.9147 0.0
C3288 C 0.33538 0.50674 0.91238 0.0
C3289 C 0.31286 0.52619 0.9144 0.0
C3290 C 0.31 0.51169 0.91358 0.0
C3291 C 0.31835 0.48728 0.91404 0.0
C3292 C 0.32951 0.47738 0.91437 0.0
C3293 C 0.32117 0.50187 0.91308 0.0
C3294 C 0.34357 0.48215 0.91271 0.0
C3295 C 0.34649 0.49675 0.91176 0.0
H3296 H 0.47898 0.31372 0.92129 0.0
H3297 H 0.4815 0.3588 0.9131 0.0
H3298 H 0.50752 0.35731 0.91255 0.0
H3299 H 0.52962 0.34352 0.91737 0.0
H3300 H 0.52612 0.29894 0.92758 0.0
H3301 H 0.50047 0.2999 0.92431 0.0
C3302 C 0.48516 0.32324 0.91919 0.0
C3303 C 0.47826 0.33638 0.91742 0.0
C3304 C 0.50001 0.32239 0.9194 0.0
C3305 C 0.48651 0.34854 0.91456 0.0
C3306 C 0.5014 0.34771 0.91434 0.0
C3307 C 0.5232 0.33402 0.91862 0.0
C3308 C 0.52967 0.3212 0.9228 0.0
C3309 C 0.50829 0.33476 0.91719 0.0
C3310 C 0.52131 0.30895 0.9245 0.0
C3311 C 0.50665 0.30948 0.92263 0.0
H3312 H 0.69378 0.51784 0.90615 0.0
H3313 H 0.65103 0.53133 0.9156 0.0
H3314 H 0.64283 0.50658 0.91448 0.0
H3315 H 0.64881 0.48088 0.91462 0.0
H3316 H 0.69194 0.46798 0.9056 0.0
H3317 H 0.69893 0.49269 0.9025 0.0
C3318 C 0.68261 0.51538 0.90768 0.0
C3319 C 0.67305 0.5263 0.91116 0.0
C3320 C 0.67807 0.5012 0.90722 0.0
C3321 C 0.65858 0.52306 0.91291 0.0
C3322 C 0.65392 0.5089 0.91238 0.0
C3323 C 0.65963 0.48348 0.91159 0.0
C3324 C 0.66989 0.47261 0.9106 0.0
C3325 C 0.66369 0.49783 0.91009 0.0
C3326 C 0.68388 0.47614 0.90665 0.0
C3327 C 0.68791 0.49029 0.90491 0.0
H3328 H 0.52146 0.34614 0.08253 0.0
H3329 H 0.52968 0.30151 0.07527 0.0
H3330 H 0.50434 0.29668 0.07484 0.0
H3331 H 0.47996 0.30536 0.07353 0.0
H3332 H 0.47089 0.34956 0.08128 0.0
H3333 H 0.49639 0.35432 0.08467 0.0
C3334 C 0.5177 0.33533 0.08115 0.0
C3335 C 0.52752 0.32427 0.07865 0.0
C3336 C 0.50296 0.33256 0.08084 0.0
C3337 C 0.52243 0.3103 0.07699 0.0
C3338 C 0.5079 0.30749 0.07671 0.0
C3339 C 0.48357 0.316 0.07617 0.0
C3340 C 0.47369 0.32713 0.07697 0.0
C3341 C 0.4981 0.31858 0.07812 0.0
C3342 C 0.47838 0.34083 0.08061 0.0
C3343 C 0.49294 0.34355 0.08246 0.0
H3344 H 0.68685 0.51998 0.08377 0.0
H3345 H 0.64176 0.51935 0.07531 0.0
H3346 H 0.64192 0.4933 0.07598 0.0
H3347 H 0.65576 0.47072 0.07529 0.0
H3348 H 0.70116 0.47231 0.08144 0.0
H3349 H 0.70001 0.49789 0.08543 0.0
C3350 C 0.67697 0.5142 0.0823 0.0
C3351 C 0.66436 0.52164 0.07926 0.0
C3352 C 0.67726 0.49932 0.08213 0.0
C3353 C 0.65165 0.51392 0.0776 0.0
C3354 C 0.65176 0.499 0.07787 0.0
C3355 C 0.66529 0.47669 0.07785 0.0
C3356 C 0.67853 0.46975 0.07805 0.0
C3357 C 0.66462 0.49158 0.07958 0.0
C3358 C 0.69088 0.47752 0.08118 0.0
C3359 C 0.69023 0.49213 0.08344 0.0
H3360 H 0.47123 0.69125 0.07263 0.0
H3361 H 0.47174 0.64663 0.08334 0.0
H3362 H 0.49776 0.64721 0.08474 0.0
H3363 H 0.52054 0.6601 0.0809 0.0
H3364 H 0.51925 0.70441 0.06897 0.0
H3365 H 0.49342 0.70421 0.07012 0.0
C3366 C 0.47696 0.68164 0.07543 0.0
C3367 C 0.46948 0.66889 0.07778 0.0
C3368 C 0.49186 0.68197 0.07589 0.0
C3369 C 0.47719 0.6566 0.08144 0.0
C3370 C 0.49209 0.65691 0.08219 0.0
C3371 C 0.51458 0.66973 0.07874 0.0
C3372 C 0.52182 0.68222 0.07475 0.0
C3373 C 0.49957 0.66949 0.07913 0.0
C3374 C 0.51395 0.69461 0.07192 0.0
C3375 C 0.49916 0.69452 0.07259 0.0
H3376 H 0.30884 0.47381 0.06919 0.0
H3377 H 0.35263 0.47575 0.08276 0.0
H3378 H 0.3514 0.5018 0.0832 0.0
H3379 H 0.33825 0.52413 0.07772 0.0
H3380 H 0.29507 0.52121 0.06243 0.0
H3381 H 0.29571 0.49546 0.06471 0.0
C3382 C 0.31812 0.47985 0.07242 0.0
C3383 C 0.33083 0.47279 0.07588 0.0
C3384 C 0.31747 0.49472 0.07221 0.0
C3385 C 0.34271 0.4809 0.08001 0.0
C3386 C 0.34202 0.4958 0.08021 0.0
C3387 C 0.32897 0.51782 0.07506 0.0
C3388 C 0.31666 0.52454 0.06983 0.0
C3389 C 0.32953 0.50285 0.07603 0.0
C3390 C 0.30472 0.51627 0.06633 0.0
C3391 C 0.30505 0.50154 0.06766 0.0
H3392 H 0.91425 0.52741 0.68418 0.0
H3393 H 0.9168 0.52507 0.63842 0.0
H3394 H 0.91682 0.49905 0.63969 0.0
H3395 H 0.91979 0.47709 0.65417 0.0
H3396 H 0.91954 0.48038 0.69987 0.0
H3397 H 0.91484 0.50584 0.69829 0.0
C3398 C 0.91458 0.52126 0.67442 0.0
C3399 C 0.91575 0.52822 0.66124 0.0
C3400 C 0.91513 0.5064 0.67527 0.0
C3401 C 0.91597 0.52001 0.64873 0.0
C3402 C 0.91608 0.50511 0.64946 0.0
C3403 C 0.91832 0.48339 0.66371 0.0
C3404 C 0.91996 0.47699 0.67712 0.0
C3405 C 0.9162 0.4982 0.66271 0.0
C3406 C 0.9183 0.48518 0.68946 0.0
C3407 C 0.91567 0.49972 0.68856 0.0
H3408 H 0.51718 0.91922 0.70069 0.0
H3409 H 0.52764 0.9158 0.6562 0.0
H3410 H 0.50228 0.9144 0.65024 0.0
H3411 H 0.47713 0.91725 0.65764 0.0
H3412 H 0.46729 0.92087 0.70235 0.0
H3413 H 0.49238 0.9189 0.70824 0.0
C3414 C 0.51393 0.91796 0.68969 0.0
C3415 C 0.52423 0.91782 0.67888 0.0
C3416 C 0.49941 0.91729 0.68638 0.0
C3417 C 0.51989 0.91596 0.66471 0.0
C3418 C 0.50539 0.91525 0.66131 0.0
C3419 C 0.48045 0.9173 0.66867 0.0
C3420 C 0.47032 0.91945 0.67951 0.0
C3421 C 0.49503 0.91635 0.67203 0.0
C3422 C 0.47484 0.91944 0.69377 0.0
C3423 C 0.48921 0.91833 0.69717 0.0
H3424 H 0.0813 0.51609 0.69081 0.0
H3425 H 0.07947 0.52271 0.64558 0.0
H3426 H 0.08315 0.49713 0.64155 0.0
H3427 H 0.08355 0.47256 0.65131 0.0
H3428 H 0.08575 0.46675 0.69684 0.0
H3429 H 0.08558 0.49232 0.70032 0.0
C3430 C 0.08204 0.51193 0.68007 0.0
C3431 C 0.08003 0.5211 0.6685 0.0
C3432 C 0.08411 0.49735 0.67791 0.0
C3433 C 0.08106 0.51576 0.65462 0.0
C3434 C 0.08306 0.50114 0.65235 0.0
C3435 C 0.08433 0.4769 0.66196 0.0
C3436 C 0.08435 0.46769 0.67379 0.0
C3437 C 0.08412 0.49176 0.66395 0.0
C3438 C 0.08548 0.47353 0.68752 0.0
C3439 C 0.08535 0.48819 0.68956 0.0
H3440 H 0.47803 0.09542 0.68465 0.0
H3441 H 0.47181 0.07077 0.64663 0.0
H3442 H 0.49723 0.07257 0.64105 0.0
H3443 H 0.52159 0.0773 0.6496 0.0
H3444 H 0.52758 0.10104 0.68839 0.0
H3445 H 0.50195 0.10388 0.69086 0.0
C3446 C 0.48222 0.09093 0.67488 0.0
C3447 C 0.47321 0.08308 0.66598 0.0
C3448 C 0.49684 0.09172 0.67199 0.0
C3449 C 0.47863 0.07703 0.65349 0.0
C3450 C 0.49316 0.07795 0.65039 0.0
C3451 C 0.51731 0.08352 0.6583 0.0
C3452 C 0.52648 0.08874 0.66892 0.0
C3453 C 0.50247 0.08473 0.65991 0.0
C3454 C 0.52074 0.09676 0.68017 0.0
C3455 C 0.50607 0.09832 0.68164 0.0
H3456 H 0.91842 0.47588 0.35084 0.0
H3457 H 0.91463 0.46677 0.30598 0.0
H3458 H 0.91101 0.49186 0.30098 0.0
H3459 H 0.91295 0.51654 0.30874 0.0
H3460 H 0.91691 0.52629 0.3533 0.0
H3461 H 0.91618 0.50084 0.35908 0.0
C3462 C 0.91642 0.47934 0.34003 0.0
C3463 C 0.91712 0.46947 0.32878 0.0
C3464 C 0.91455 0.49393 0.33714 0.0
C3465 C 0.91442 0.47415 0.31483 0.0
C3466 C 0.91236 0.48852 0.31193 0.0
C3467 C 0.9133 0.51308 0.31975 0.0
C3468 C 0.91517 0.52317 0.33058 0.0
C3469 C 0.91305 0.49853 0.32291 0.0
C3470 C 0.91545 0.51866 0.3448 0.0
C3471 C 0.91516 0.50411 0.34808 0.0
H3472 H 0.47966 0.91728 0.30404 0.0
H3473 H 0.46992 0.91505 0.34876 0.0
H3474 H 0.49539 0.91424 0.35437 0.0
H3475 H 0.52039 0.91727 0.3465 0.0
H3476 H 0.52947 0.91977 0.30155 0.0
H3477 H 0.50433 0.91719 0.29612 0.0
C3478 C 0.4831 0.91641 0.31501 0.0
C3479 C 0.47296 0.91644 0.32598 0.0
C3480 C 0.49767 0.9161 0.31812 0.0
C3481 C 0.47755 0.91508 0.34013 0.0
C3482 C 0.49211 0.9147 0.34334 0.0
C3483 C 0.51689 0.91693 0.33552 0.0
C3484 C 0.52682 0.91895 0.32446 0.0
C3485 C 0.50228 0.91565 0.33242 0.0
C3486 C 0.52208 0.91845 0.31028 0.0
C3487 C 0.50768 0.917 0.30714 0.0
H3488 H 0.08325 0.52804 0.31253 0.0
H3489 H 0.08534 0.52797 0.35837 0.0
H3490 H 0.08694 0.50196 0.35831 0.0
H3491 H 0.08466 0.47906 0.34518 0.0
H3492 H 0.08061 0.48004 0.29949 0.0
H3493 H 0.08284 0.5058 0.29957 0.0
C3494 C 0.08427 0.52242 0.32255 0.0
C3495 C 0.084 0.53 0.33544 0.0
C3496 C 0.08463 0.50753 0.32246 0.0
C3497 C 0.08547 0.52244 0.34827 0.0
C3498 C 0.08628 0.50754 0.34825 0.0
C3499 C 0.0845 0.48495 0.33528 0.0
C3500 C 0.08233 0.47769 0.32236 0.0
C3501 C 0.08539 0.49993 0.33542 0.0
C3502 C 0.08208 0.48541 0.30958 0.0
C3503 C 0.08338 0.50015 0.3096 0.0
H3504 H 0.5213 0.0736 0.35108 0.0
H3505 H 0.52464 0.09703 0.3119 0.0
H3506 H 0.49901 0.10146 0.31208 0.0
H3507 H 0.47546 0.09484 0.32105 0.0
H3508 H 0.47184 0.07082 0.35994 0.0
H3509 H 0.49771 0.07083 0.36251 0.0
C3510 C 0.51642 0.08012 0.34291 0.0
C3511 C 0.52471 0.08509 0.33154 0.0
C3512 C 0.50162 0.08236 0.34296 0.0
C3513 C 0.51838 0.09328 0.32082 0.0
C3514 C 0.50374 0.0957 0.32087 0.0
C3515 C 0.48032 0.08996 0.33031 0.0
C3516 C 0.47176 0.08263 0.34014 0.0
C3517 C 0.49519 0.08974 0.33154 0.0
C3518 C 0.47817 0.07651 0.35218 0.0
C3519 C 0.49299 0.07638 0.35359 0.0
H3520 H 0.65996 0.91871 0.47595 0.0
H3521 H 0.705 0.92739 0.47735 0.0
H3522 H 0.70478 0.92569 0.50317 0.0
H3523 H 0.69167 0.92373 0.52533 0.0
H3524 H 0.64638 0.91629 0.52465 0.0
H3525 H 0.64685 0.91538 0.49863 0.0
C3526 C 0.66973 0.92 0.48194 0.0
C3527 C 0.68246 0.92325 0.47477 0.0
C3528 C 0.66948 0.91936 0.49691 0.0
C3529 C 0.69504 0.92501 0.48263 0.0
C3530 C 0.69494 0.92404 0.4974 0.0
C3531 C 0.68188 0.92178 0.51955 0.0
C3532 C 0.669 0.9202 0.52697 0.0
C3533 C 0.68218 0.92155 0.50466 0.0
C3534 C 0.65646 0.91761 0.51923 0.0
C3535 C 0.65671 0.91711 0.50433 0.0
H3536 H 0.65691 0.08139 0.52625 0.0
H3537 H 0.70187 0.0724 0.52513 0.0
H3538 H 0.70216 0.07556 0.49944 0.0
H3539 H 0.68941 0.07831 0.47723 0.0
H3540 H 0.64406 0.08537 0.47743 0.0
H3541 H 0.64417 0.08576 0.50347 0.0
C3542 C 0.66677 0.08039 0.52034 0.0
C3543 C 0.67934 0.07661 0.5275 0.0
C3544 C 0.66677 0.08176 0.50541 0.0
C3545 C 0.69205 0.07519 0.5198 0.0
C3546 C 0.69223 0.07699 0.50511 0.0
C3547 C 0.67954 0.08014 0.4829 0.0
C3548 C 0.66674 0.08168 0.47534 0.0
C3549 C 0.6796 0.07988 0.49779 0.0
C3550 C 0.65408 0.08409 0.48296 0.0
C3551 C 0.65412 0.08425 0.49787 0.0
H3552 H 0.91857 0.65504 0.4801 0.0
H3553 H 0.92588 0.69953 0.47108 0.0
H3554 H 0.92721 0.70464 0.49631 0.0
H3555 H 0.92886 0.69633 0.52078 0.0
H3556 H 0.92085 0.65235 0.53069 0.0
H3557 H 0.9171 0.6472 0.50532 0.0
C3558 C 0.92021 0.66588 0.48366 0.0
C3559 C 0.92238 0.67681 0.47362 0.0
C3560 C 0.92098 0.66884 0.49835 0.0
C3561 C 0.92436 0.69083 0.47848 0.0
C3562 C 0.92516 0.69381 0.49295 0.0
C3563 C 0.92612 0.68564 0.51738 0.0
C3564 C 0.92532 0.67468 0.52746 0.0
C3565 C 0.92391 0.68285 0.50293 0.0
C3566 C 0.92153 0.66093 0.52304 0.0
C3567 C 0.91947 0.658 0.50856 0.0
H3568 H 0.34783 0.91369 0.48426 0.0
H3569 H 0.30351 0.90879 0.4732 0.0
H3570 H 0.29701 0.90914 0.4982 0.0
H3571 H 0.3034 0.91402 0.52284 0.0
H3572 H 0.34743 0.91907 0.53452 0.0
H3573 H 0.35457 0.91527 0.50971 0.0
C3574 C 0.33679 0.91238 0.48735 0.0
C3575 C 0.32616 0.91147 0.47682 0.0
C3576 C 0.33304 0.91278 0.50185 0.0
C3577 C 0.31191 0.90972 0.48103 0.0
C3578 C 0.30815 0.90995 0.49535 0.0
C3579 C 0.31459 0.91406 0.52 0.0
C3580 C 0.32486 0.91702 0.53041 0.0
C3581 C 0.31855 0.912 0.50579 0.0
C3582 C 0.33932 0.91684 0.52665 0.0
C3583 C 0.34339 0.91475 0.51246 0.0
H3584 H 0.09396 0.30784 0.52222 0.0
H3585 H 0.08378 0.34983 0.53743 0.0
H3586 H 0.08671 0.35941 0.51333 0.0
H3587 H 0.08849 0.35491 0.48739 0.0
H3588 H 0.09841 0.31254 0.47275 0.0
H3589 H 0.09955 0.30413 0.49717 0.0
C3590 C 0.09267 0.31915 0.5203 0.0
C3591 C 0.08845 0.32809 0.53147 0.0
C3592 C 0.09423 0.32449 0.50648 0.0
C3593 C 0.08701 0.34274 0.52895 0.0
C3594 C 0.08859 0.34819 0.51516 0.0
C3595 C 0.0913 0.34394 0.48958 0.0
C3596 C 0.0931 0.33431 0.47824 0.0
C3597 C 0.09167 0.33905 0.50374 0.0
C3598 C 0.09676 0.32013 0.48126 0.0
C3599 C 0.09737 0.31528 0.49523 0.0
H3600 H 0.35826 0.07881 0.52106 0.0
H3601 H 0.31717 0.09768 0.52903 0.0
H3602 H 0.31222 0.09817 0.50366 0.0
H3603 H 0.31756 0.08892 0.47987 0.0
H3604 H 0.35827 0.06983 0.47149 0.0
H3605 H 0.3655 0.07388 0.49624 0.0
C3606 C 0.34844 0.08346 0.51721 0.0
C3607 C 0.33798 0.0879 0.52697 0.0
C3608 C 0.3455 0.08346 0.50252 0.0
C3609 C 0.32531 0.09395 0.52178 0.0
C3610 C 0.32243 0.09419 0.50725 0.0
C3611 C 0.32819 0.08615 0.48339 0.0
C3612 C 0.33742 0.07916 0.47402 0.0
C3613 C 0.33213 0.08832 0.49762 0.0
C3614 C 0.35111 0.0754 0.47858 0.0
C3615 C 0.35516 0.07759 0.49275 0.0
H3616 H 0.93824 0.35356 0.47816 0.0
H3617 H 0.91017 0.31768 0.47364 0.0
H3618 H 0.90354 0.31942 0.49876 0.0
H3619 H 0.90912 0.32852 0.52265 0.0
H3620 H 0.93692 0.36471 0.52717 0.0
H3621 H 0.93995 0.36581 0.50139 0.0
C3622 C 0.93028 0.3465 0.48262 0.0
C3623 C 0.92463 0.33555 0.4742 0.0
C3624 C 0.92661 0.34754 0.49708 0.0
C3625 C 0.91449 0.32628 0.47999 0.0
C3626 C 0.91081 0.3272 0.49435 0.0
C3627 C 0.91548 0.33692 0.51794 0.0
C3628 C 0.92295 0.34638 0.5268 0.0
C3629 C 0.91727 0.3374 0.50312 0.0
C3630 C 0.93106 0.3573 0.52059 0.0
C3631 C 0.93292 0.35784 0.50584 0.0
H3632 H 0.08718 0.69006 0.4822 0.0
H3633 H 0.08237 0.64558 0.47258 0.0
H3634 H 0.08571 0.63961 0.49781 0.0
H3635 H 0.08614 0.64768 0.52295 0.0
H3636 H 0.09107 0.69248 0.53187 0.0
H3637 H 0.0919 0.69765 0.50659 0.0
C3638 C 0.08726 0.67903 0.48562 0.0
C3639 C 0.08445 0.66826 0.47572 0.0
C3640 C 0.08908 0.67577 0.50003 0.0
C3641 C 0.0846 0.65401 0.48011 0.0
C3642 C 0.08639 0.65063 0.49453 0.0
C3643 C 0.08779 0.65851 0.51936 0.0
C3644 C 0.08821 0.6697 0.52933 0.0
C3645 C 0.08808 0.66149 0.50467 0.0
C3646 C 0.09045 0.68367 0.52447 0.0
C3647 C 0.09089 0.68668 0.50998 0.0
H3648 H 0.09367 0.18344 0.52401 0.0
H3649 H 0.05266 0.16353 0.52918 0.0
H3650 H 0.05124 0.15939 0.50357 0.0
H3651 H 0.06123 0.16228 0.47955 0.0
H3652 H 0.10112 0.18422 0.47418 0.0
H3653 H 0.10353 0.18657 0.49999 0.0
C3654 C 0.08446 0.17813 0.51952 0.0
C3655 C 0.0733 0.17379 0.52847 0.0
C3656 C 0.08356 0.1761 0.50475 0.0
C3657 C 0.06136 0.16706 0.5225 0.0
C3658 C 0.06056 0.16463 0.50787 0.0
C3659 C 0.07053 0.16738 0.48408 0.0
C3660 C 0.08106 0.17293 0.47505 0.0
C3661 C 0.07155 0.1692 0.49888 0.0
C3662 C 0.09292 0.17981 0.48098 0.0
C3663 C 0.09428 0.18119 0.4957 0.0
H3664 H 0.82363 0.09363 0.4732 0.0
H3665 H 0.85759 0.06285 0.47503 0.0
H3666 H 0.85663 0.06314 0.50102 0.0
H3667 H 0.84461 0.07051 0.52306 0.0
H3668 H 0.8112 0.1019 0.52122 0.0
H3669 H 0.81357 0.10311 0.49537 0.0
C3670 C 0.83093 0.08711 0.4793 0.0
C3671 C 0.84054 0.07809 0.47222 0.0
C3672 C 0.83036 0.08738 0.49421 0.0
C3673 C 0.85009 0.06987 0.48024 0.0
C3674 C 0.84949 0.06997 0.49509 0.0
C3675 C 0.83796 0.07773 0.517 0.0
C3676 C 0.82762 0.08597 0.52401 0.0
C3677 C 0.83943 0.07843 0.50216 0.0
C3678 C 0.81922 0.09543 0.51607 0.0
C3679 C 0.82052 0.09608 0.50129 0.0
H3680 H 0.9123 0.84158 0.52139 0.0
H3681 H 0.94412 0.80869 0.52416 0.0
H3682 H 0.94724 0.80921 0.49839 0.0
H3683 H 0.9412 0.81917 0.47516 0.0
H3684 H 0.91118 0.85367 0.47223 0.0
H3685 H 0.90708 0.85247 0.49796 0.0
C3686 C 0.91985 0.83451 0.51628 0.0
C3687 C 0.92791 0.82504 0.52456 0.0
C3688 C 0.92193 0.83521 0.50149 0.0
C3689 C 0.93784 0.81608 0.51794 0.0
C3690 C 0.93961 0.81636 0.50323 0.0
C3691 C 0.93372 0.82639 0.48016 0.0
C3692 C 0.9264 0.8364 0.47186 0.0
C3693 C 0.93176 0.8259 0.49492 0.0
C3694 C 0.91693 0.84588 0.47846 0.0
C3695 C 0.91457 0.84516 0.49314 0.0
H3696 H 0.18712 0.94263 0.47505 0.0
H3697 H 0.1478 0.919 0.47469 0.0
H3698 H 0.14944 0.91564 0.50048 0.0
H3699 H 0.16234 0.91916 0.52307 0.0
H3700 H 0.20068 0.94435 0.52344 0.0
H3701 H 0.19918 0.94735 0.49767 0.0
C3702 C 0.1789 0.93675 0.48063 0.0
C3703 C 0.16742 0.93097 0.473 0.0
C3704 C 0.17978 0.93512 0.49542 0.0
C3705 C 0.15673 0.92357 0.48036 0.0
C3706 C 0.1577 0.9216 0.49508 0.0
C3707 C 0.17037 0.92527 0.51747 0.0
C3708 C 0.18168 0.93141 0.52509 0.0
C3709 C 0.16922 0.92726 0.5027 0.0
C3710 C 0.19189 0.93952 0.51778 0.0
C3711 C 0.19104 0.94122 0.50306 0.0
H3712 H 0.06591 0.8432 0.4742 0.0
H3713 H 0.10031 0.81288 0.47523 0.0
H3714 H 0.10109 0.81441 0.50116 0.0
H3715 H 0.09085 0.82308 0.52359 0.0
H3716 H 0.05728 0.85431 0.52258 0.0
H3717 H 0.05742 0.85384 0.49658 0.0
C3718 C 0.07364 0.83702 0.48012 0.0
C3719 C 0.08292 0.82782 0.47285 0.0
C3720 C 0.07416 0.83809 0.495 0.0
C3721 C 0.09305 0.82004 0.4806 0.0
C3722 C 0.09347 0.82086 0.49542 0.0
C3723 C 0.08366 0.82988 0.51766 0.0
C3724 C 0.07396 0.8386 0.52497 0.0
C3725 C 0.0839 0.82966 0.50274 0.0
C3726 C 0.06485 0.84751 0.51718 0.0
C3727 C 0.06487 0.84719 0.50232 0.0
H3728 H 0.18207 0.09571 0.47985 0.0
H3729 H 0.16022 0.05583 0.47362 0.0
H3730 H 0.15523 0.05436 0.49901 0.0
H3731 H 0.15861 0.06344 0.52323 0.0
H3732 H 0.18189 0.10243 0.5297 0.0
H3733 H 0.18458 0.10532 0.50403 0.0
C3734 C 0.1761 0.08678 0.48403 0.0
C3735 C 0.17162 0.07587 0.47485 0.0
C3736 C 0.17351 0.08583 0.49872 0.0
C3737 C 0.16393 0.06432 0.48046 0.0
C3738 C 0.16103 0.06348 0.49499 0.0
C3739 C 0.16403 0.0727 0.519 0.0
C3740 C 0.17002 0.08271 0.52833 0.0
C3741 C 0.16597 0.07404 0.50425 0.0
C3742 C 0.1772 0.09456 0.52272 0.0
C3743 C 0.17879 0.0962 0.50804 0.0
H3744 H 0.93605 0.15605 0.52322 0.0
H3745 H 0.89654 0.17884 0.52791 0.0
H3746 H 0.8949 0.18168 0.50213 0.0
H3747 H 0.90592 0.17978 0.47851 0.0
H3748 H 0.9464 0.15862 0.47415 0.0
H3749 H 0.94643 0.15305 0.49948 0.0
C3750 C 0.92693 0.16137 0.51856 0.0
C3751 C 0.91642 0.16721 0.52742 0.0
C3752 C 0.92634 0.16344 0.50379 0.0
C3753 C 0.90477 0.17427 0.52128 0.0
C3754 C 0.90386 0.17595 0.50655 0.0
C3755 C 0.91466 0.1738 0.48307 0.0
C3756 C 0.92618 0.16972 0.47447 0.0
C3757 C 0.91478 0.17092 0.49773 0.0
C3758 C 0.93746 0.16202 0.48056 0.0
C3759 C 0.93748 0.1588 0.49505 0.0
H3760 H 0.81468 0.90423 0.47044 0.0
H3761 H 0.83448 0.94512 0.46393 0.0
H3762 H 0.83946 0.94695 0.48935 0.0
H3763 H 0.83704 0.93755 0.5136 0.0
H3764 H 0.81538 0.89771 0.52038 0.0
H3765 H 0.81245 0.89473 0.4947 0.0
C3766 C 0.82017 0.91349 0.47458 0.0
C3767 C 0.82418 0.92453 0.46532 0.0
C3768 C 0.8227 0.91463 0.48926 0.0
C3769 C 0.83118 0.93652 0.47086 0.0
C3770 C 0.83408 0.93756 0.48538 0.0
C3771 C 0.8319 0.92811 0.50941 0.0
C3772 C 0.82654 0.9178 0.51881 0.0
C3773 C 0.82976 0.92675 0.4947 0.0
C3774 C 0.81963 0.90576 0.51331 0.0
C3775 C 0.81791 0.90408 0.49865 0.0
H3776 H 0.47183 0.09138 0.1738 0.0
H3777 H 0.47419 0.0573 0.14319 0.0
H3778 H 0.50016 0.05801 0.14421 0.0
H3779 H 0.52205 0.06673 0.15562 0.0
H3780 H 0.5196 0.10121 0.18581 0.0
H3781 H 0.49381 0.10202 0.18302 0.0
C3782 C 0.47804 0.08422 0.16723 0.0
C3783 C 0.47111 0.07417 0.15859 0.0
C3784 C 0.49293 0.0847 0.16786 0.0
C3785 C 0.47927 0.06512 0.14995 0.0
C3786 C 0.49412 0.06546 0.15059 0.0
C3787 C 0.51588 0.07453 0.16146 0.0
C3788 C 0.52271 0.08376 0.17105 0.0
C3789 C 0.50105 0.07496 0.15978 0.0
C3790 C 0.51461 0.09395 0.17838 0.0
C3791 C 0.49985 0.09439 0.17685 0.0
H3792 H 0.9115 0.4756 0.17903 0.0
H3793 H 0.94202 0.4782 0.14489 0.0
H3794 H 0.94082 0.50417 0.14558 0.0
H3795 H 0.93246 0.5261 0.15718 0.0
H3796 H 0.90122 0.5234 0.19069 0.0
H3797 H 0.90122 0.49751 0.18884 0.0
C3798 C 0.91779 0.48186 0.17167 0.0
C3799 C 0.92697 0.47502 0.16205 0.0
C3800 C 0.91695 0.49676 0.17204 0.0
C3801 C 0.93489 0.48323 0.15241 0.0
C3802 C 0.93425 0.49807 0.15284 0.0
C3803 C 0.92554 0.51984 0.16397 0.0
C3804 C 0.91697 0.52665 0.17417 0.0
C3805 C 0.92553 0.50495 0.1628 0.0
C3806 C 0.90792 0.51843 0.18276 0.0
C3807 C 0.90797 0.50361 0.18176 0.0
H3808 H 0.47439 0.91466 0.1682 0.0
H3809 H 0.47403 0.94377 0.20367 0.0
H3810 H 0.49969 0.9471 0.20141 0.0
H3811 H 0.52219 0.94192 0.18926 0.0
H3812 H 0.52239 0.91401 0.15285 0.0
H3813 H 0.49683 0.91005 0.15556 0.0
C3814 C 0.47996 0.92168 0.17547 0.0
C3815 C 0.47235 0.92889 0.18614 0.0
C3816 C 0.49466 0.92379 0.17392 0.0
C3817 C 0.47965 0.93812 0.19535 0.0
C3818 C 0.49432 0.94001 0.19408 0.0
C3819 C 0.51665 0.93493 0.18195 0.0
C3820 C 0.52418 0.9282 0.17092 0.0
C3821 C 0.50193 0.93293 0.1834 0.0
C3822 C 0.51682 0.91933 0.16141 0.0
C3823 C 0.50222 0.91704 0.16297 0.0
H3824 H 0.08421 0.52189 0.16448 0.0
H3825 H 0.04824 0.5256 0.1927 0.0
H3826 H 0.04899 0.50006 0.19735 0.0
H3827 H 0.05997 0.47668 0.19357 0.0
H3828 H 0.09696 0.47318 0.16666 0.0
H3829 H 0.09576 0.49859 0.16139 0.0
C3830 C 0.07651 0.51707 0.17159 0.0
C3831 C 0.06615 0.52558 0.17817 0.0
C3832 C 0.07723 0.50243 0.17451 0.0
C3833 C 0.05635 0.51926 0.18753 0.0
C3834 C 0.05676 0.50466 0.19018 0.0
C3835 C 0.06775 0.48148 0.18654 0.0
C3836 C 0.0785 0.47305 0.18048 0.0
C3837 C 0.06717 0.49614 0.18377 0.0
C3838 C 0.08861 0.47945 0.17152 0.0
C3839 C 0.08791 0.49397 0.16845 0.0
H3840 H 0.47581 0.91868 0.84288 0.0
H3841 H 0.47117 0.94988 0.80956 0.0
H3842 H 0.49671 0.9491 0.805 0.0
H3843 H 0.52036 0.93952 0.81037 0.0
H3844 H 0.5249 0.90719 0.84259 0.0
H3845 H 0.49944 0.90844 0.84768 0.0
C3846 C 0.48042 0.92533 0.83466 0.0
C3847 C 0.47163 0.93436 0.82662 0.0
C3848 C 0.49509 0.92462 0.83188 0.0
C3849 C 0.4777 0.94279 0.81587 0.0
C3850 C 0.49231 0.94239 0.81327 0.0
C3851 C 0.51578 0.93278 0.81854 0.0
C3852 C 0.52451 0.92334 0.82614 0.0
C3853 C 0.5011 0.93334 0.8212 0.0
C3854 C 0.51839 0.91453 0.83656 0.0
C3855 C 0.50384 0.91526 0.8395 0.0
H3856 H 0.06885 0.52426 0.8434 0.0
H3857 H 0.10101 0.52081 0.8109 0.0
H3858 H 0.10178 0.49501 0.8142 0.0
H3859 H 0.09192 0.47332 0.82507 0.0
H3860 H 0.0606 0.47693 0.85841 0.0
H3861 H 0.06103 0.50282 0.85619 0.0
C3862 C 0.0761 0.51785 0.83713 0.0
C3863 C 0.08472 0.52436 0.82679 0.0
C3864 C 0.07662 0.50308 0.83923 0.0
C3865 C 0.09426 0.51601 0.8189 0.0
C3866 C 0.09466 0.50127 0.82075 0.0
C3867 C 0.08531 0.4798 0.83196 0.0
C3868 C 0.07613 0.47323 0.84178 0.0
C3869 C 0.08569 0.49467 0.8307 0.0
C3870 C 0.06777 0.48174 0.85077 0.0
C3871 C 0.06794 0.49653 0.84945 0.0
H3872 H 0.48387 0.09678 0.826 0.0
H3873 H 0.47393 0.05876 0.84972 0.0
H3874 H 0.49881 0.05637 0.85664 0.0
H3875 H 0.52374 0.06368 0.85398 0.0
H3876 H 0.53384 0.10084 0.82903 0.0
H3877 H 0.50859 0.10507 0.82478 0.0
C3878 C 0.48711 0.08808 0.83284 0.0
C3879 C 0.47706 0.0779 0.83721 0.0
C3880 C 0.5015 0.08658 0.83654 0.0
C3881 C 0.48146 0.06668 0.84607 0.0
C3882 C 0.4957 0.0653 0.85005 0.0
C3883 C 0.52039 0.07287 0.84786 0.0
C3884 C 0.53065 0.08189 0.84179 0.0
C3885 C 0.50587 0.07499 0.84507 0.0
C3886 C 0.52615 0.09368 0.83377 0.0
C3887 C 0.51171 0.09609 0.83128 0.0
H3888 H 0.90442 0.47701 0.82101 0.0
H3889 H 0.94285 0.46907 0.84479 0.0
H3890 H 0.94539 0.49445 0.84955 0.0
H3891 H 0.93775 0.51906 0.84539 0.0
H3892 H 0.90037 0.52714 0.82007 0.0
H3893 H 0.89627 0.5016 0.81763 0.0
C3894 C 0.91325 0.48083 0.82737 0.0
C3895 C 0.92346 0.47117 0.83248 0.0
C3896 C 0.91486 0.49549 0.82977 0.0
C3897 C 0.93491 0.47629 0.84063 0.0
C3898 C 0.93636 0.49081 0.84338 0.0
C3899 C 0.92857 0.51522 0.83955 0.0
C3900 C 0.91937 0.52496 0.83293 0.0
C3901 C 0.92655 0.50053 0.83778 0.0
C3902 C 0.90763 0.51984 0.82523 0.0
C3903 C 0.90529 0.50524 0.8238 0.0
H3904 H 0.14651 0.47761 0.06754 0.0
H3905 H 0.18091 0.46911 0.09668 0.0
H3906 H 0.18389 0.49455 0.10089 0.0
H3907 H 0.17827 0.51924 0.09456 0.0
H3908 H 0.14502 0.52773 0.06412 0.0
H3909 H 0.13997 0.50234 0.06225 0.0
C3910 C 0.1545 0.48132 0.07499 0.0
C3911 C 0.16351 0.47149 0.08173 0.0
C3912 C 0.15644 0.49599 0.07704 0.0
C3913 C 0.17389 0.47647 0.09127 0.0
C3914 C 0.17562 0.49102 0.09368 0.0
C3915 C 0.16977 0.51554 0.0877 0.0
C3916 C 0.16208 0.52535 0.07945 0.0
C3917 C 0.16719 0.50089 0.08636 0.0
C3918 C 0.15117 0.52039 0.07051 0.0
C3919 C 0.14827 0.50586 0.06943 0.0
H3920 H 0.16996 0.47622 0.91389 0.0
H3921 H 0.20095 0.47444 0.94766 0.0
H3922 H 0.19904 0.50014 0.951 0.0
H3923 H 0.18847 0.52308 0.94442 0.0
H3924 H 0.15631 0.52468 0.91174 0.0
H3925 H 0.15874 0.49908 0.90788 0.0
C3926 C 0.17633 0.48148 0.92193 0.0
C3927 C 0.18565 0.47347 0.93045 0.0
C3928 C 0.17494 0.49621 0.92401 0.0
C3929 C 0.19369 0.48038 0.94098 0.0
C3930 C 0.19262 0.49507 0.94288 0.0
C3931 C 0.18202 0.51783 0.93642 0.0
C3932 C 0.17229 0.52577 0.92832 0.0
C3933 C 0.18327 0.50308 0.93447 0.0
C3934 C 0.16387 0.51879 0.91813 0.0
C3935 C 0.16528 0.50417 0.9159 0.0
H3936 H 0.47929 0.15359 0.93657 0.0
H3937 H 0.47282 0.18458 0.90338 0.0
H3938 H 0.4985 0.18704 0.9004 0.0
H3939 H 0.52275 0.18183 0.9085 0.0
H3940 H 0.5292 0.1522 0.94293 0.0
H3941 H 0.50364 0.14771 0.94409 0.0
C3942 C 0.48352 0.16071 0.92854 0.0
C3943 C 0.47418 0.16889 0.92022 0.0
C3944 C 0.4983 0.16241 0.92718 0.0
C3945 C 0.4798 0.17821 0.90997 0.0
C3946 C 0.49448 0.17964 0.90826 0.0
C3947 C 0.51858 0.17424 0.91612 0.0
C3948 C 0.52786 0.16739 0.92562 0.0
C3949 C 0.50383 0.17201 0.917 0.0
C3950 C 0.52227 0.15769 0.93554 0.0
C3951 C 0.50765 0.15511 0.93622 0.0
H3952 H 0.81766 0.52234 0.90716 0.0
H3953 H 0.83739 0.53153 0.94754 0.0
H3954 H 0.84253 0.5063 0.95097 0.0
H3955 H 0.84054 0.48145 0.94295 0.0
H3956 H 0.8189 0.47212 0.90365 0.0
H3957 H 0.81551 0.49753 0.89924 0.0
C3958 C 0.82316 0.51882 0.91667 0.0
C3959 C 0.82715 0.52879 0.92707 0.0
C3960 C 0.82576 0.50425 0.91874 0.0
C3961 C 0.83414 0.52405 0.93941 0.0
C3962 C 0.83712 0.50963 0.94136 0.0
C3963 C 0.83526 0.48503 0.93334 0.0
C3964 C 0.83008 0.47499 0.92357 0.0
C3965 C 0.83288 0.49962 0.93116 0.0
C3966 C 0.82299 0.47969 0.9113 0.0
C3967 C 0.82103 0.4942 0.90879 0.0
H3968 H 0.48155 0.81926 0.91 0.0
H3969 H 0.47344 0.8516 0.9415 0.0
H3970 H 0.49895 0.85587 0.94395 0.0
H3971 H 0.52361 0.84901 0.93862 0.0
H3972 H 0.53163 0.81537 0.90849 0.0
H3973 H 0.50617 0.8131 0.90394 0.0
C3974 C 0.48536 0.8274 0.91723 0.0
C3975 C 0.47563 0.83508 0.92557 0.0
C3976 C 0.50006 0.82949 0.91891 0.0
C3977 C 0.48073 0.84548 0.93502 0.0
C3978 C 0.49532 0.84793 0.93643 0.0
C3979 C 0.51979 0.84134 0.9309 0.0
C3980 C 0.52948 0.83236 0.92393 0.0
C3981 C 0.50509 0.83979 0.92866 0.0
C3982 C 0.52437 0.82235 0.91406 0.0
C3983 C 0.50981 0.82104 0.91146 0.0
H3984 H 0.82088 0.48379 0.09786 0.0
H3985 H 0.83437 0.47559 0.05478 0.0
H3986 H 0.84111 0.5005 0.05195 0.0
H3987 H 0.84235 0.52482 0.06138 0.0
H3988 H 0.8269 0.53351 0.10364 0.0
H3989 H 0.82195 0.5082 0.10724 0.0
C3990 C 0.82534 0.48746 0.08787 0.0
C3991 C 0.8271 0.47785 0.07655 0.0
C3992 C 0.82893 0.50187 0.08622 0.0
C3993 C 0.8328 0.48278 0.06363 0.0
C3994 C 0.83672 0.49702 0.06202 0.0
C3995 C 0.83813 0.52111 0.07145 0.0
C3996 C 0.83515 0.53093 0.0823 0.0
C3997 C 0.83477 0.50667 0.07321 0.0
C3998 C 0.82935 0.52609 0.09518 0.0
C3999 C 0.82647 0.51165 0.09721 0.0
H4000 H 0.4765 0.81639 0.0589 0.0
H4001 H 0.47559 0.85151 0.0884 0.0
H4002 H 0.5012 0.84904 0.09233 0.0
H4003 H 0.52374 0.83648 0.08778 0.0
H4004 H 0.52472 0.8023 0.05718 0.0
H4005 H 0.49917 0.80483 0.05327 0.0
C4006 C 0.48192 0.82352 0.06618 0.0
C4007 C 0.47417 0.83404 0.07344 0.0
C4008 C 0.49663 0.82218 0.06821 0.0
C4009 C 0.48134 0.84333 0.08268 0.0
C4010 C 0.49596 0.8419 0.08497 0.0
C4011 C 0.51834 0.82959 0.08026 0.0
C4012 C 0.52606 0.81914 0.07287 0.0
C4013 C 0.50369 0.83129 0.07786 0.0
C4014 C 0.519 0.81043 0.063 0.0
C4015 C 0.50439 0.81185 0.06078 0.0
H4016 H 0.52486 0.18382 0.06003 0.0
H4017 H 0.52677 0.15127 0.09227 0.0
H4018 H 0.50097 0.15279 0.09555 0.0
H4019 H 0.47779 0.16342 0.08911 0.0
H4020 H 0.476 0.19449 0.05542 0.0
H4021 H 0.50181 0.19354 0.05286 0.0
C4022 C 0.51962 0.17709 0.0678 0.0
C4023 C 0.52768 0.16753 0.07597 0.0
C4024 C 0.50481 0.17777 0.06936 0.0
C4025 C 0.52076 0.1587 0.08584 0.0
C4026 C 0.50603 0.15959 0.08775 0.0
C4027 C 0.48311 0.17 0.08126 0.0
C4028 C 0.47506 0.17907 0.07253 0.0
C4029 C 0.49794 0.1691 0.07956 0.0
C4030 C 0.48199 0.1874 0.06224 0.0
C4031 C 0.49674 0.18689 0.06078 0.0
H4032 H 0.58999 0.67523 0.97574 0.0
H4033 H 0.55433 0.64644 0.97732 0.0
H4034 H 0.55362 0.64849 0.00326 0.0
H4035 H 0.56236 0.65962 0.0254 0.0
H4036 H 0.59918 0.68691 0.02384 0.0
H4037 H 0.60022 0.68436 0.99797 0.0
C4038 C 0.58216 0.66929 0.9818 0.0
C4039 C 0.57216 0.66078 0.97467 0.0
C4040 C 0.58195 0.67038 0.99668 0.0
C4041 C 0.56218 0.65301 0.98261 0.0
C4042 C 0.5617 0.65426 0.99742 0.0
C4043 C 0.57061 0.66496 0.01935 0.0
C4044 C 0.58057 0.67358 0.02641 0.0
C4045 C 0.57138 0.66311 0.00454 0.0
C4046 C 0.59139 0.68025 0.01857 0.0
C4047 C 0.59198 0.67881 0.00381 0.0
H4048 H 0.33933 0.56898 0.02267 0.0
H4049 H 0.30961 0.60388 0.02109 0.0
H4050 H 0.31268 0.60551 0.99533 0.0
H4051 H 0.32216 0.59558 0.97309 0.0
H4052 H 0.3525 0.56121 0.97474 0.0
H4053 H 0.35102 0.56096 0.00068 0.0
C4054 C 0.33363 0.57702 0.01669 0.0
C4055 C 0.32411 0.58616 0.02372 0.0
C4056 C 0.33555 0.57798 0.00192 0.0
C4057 C 0.31698 0.5967 0.0159 0.0
C4058 C 0.31869 0.5976 0.00117 0.0
C4059 C 0.32859 0.58816 0.97915 0.0
C4060 C 0.3373 0.57831 0.97201 0.0
C4061 C 0.3277 0.58809 0.99404 0.0
C4062 C 0.34572 0.5689 0.97998 0.0
C4063 C 0.3448 0.56868 0.99481 0.0
H4064 H 0.43382 0.34564 0.02373 0.0
H4065 H 0.39984 0.31498 0.02055 0.0
H4066 H 0.39983 0.31744 0.99469 0.0
H4067 H 0.41102 0.32663 0.97293 0.0
H4068 H 0.44433 0.35802 0.97606 0.0
H4069 H 0.44293 0.35711 0.00202 0.0
C4070 C 0.42632 0.33962 0.01737 0.0
C4071 C 0.41698 0.33 0.024 0.0
C4072 C 0.42628 0.34119 0.00252 0.0
C4073 C 0.40714 0.32244 0.01568 0.0
C4074 C 0.40718 0.32379 0.00089 0.0
C4075 C 0.41784 0.33341 0.97931 0.0
C4076 C 0.42788 0.34225 0.97262 0.0
C4077 C 0.41693 0.33288 0.99419 0.0
C4078 C 0.43651 0.35113 0.98097 0.0
C4079 C 0.43578 0.35055 0.99581 0.0
H4080 H 0.66121 0.43485 0.02284 0.0
H4081 H 0.68574 0.3963 0.01883 0.0
H4082 H 0.68238 0.39661 0.99309 0.0
H4083 H 0.67365 0.40855 0.97163 0.0
H4084 H 0.64795 0.44632 0.97545 0.0
H4085 H 0.65035 0.44548 0.00138 0.0
C4086 C 0.66576 0.42651 0.0163 0.0
C4087 C 0.67386 0.41567 0.02267 0.0
C4088 C 0.66352 0.42658 0.00151 0.0
C4089 C 0.67949 0.40477 0.01415 0.0
C4090 C 0.67759 0.40495 0.99944 0.0
C4091 C 0.66844 0.4165 0.97816 0.0
C4092 C 0.66074 0.42754 0.97167 0.0
C4093 C 0.66978 0.41589 0.993 0.0
C4094 C 0.65389 0.43768 0.98023 0.0
C4095 C 0.65535 0.43727 0.99503 0.0
H4096 H 0.59558 0.32444 0.02383 0.0
H4097 H 0.55964 0.35287 0.02182 0.0
H4098 H 0.56088 0.35281 0.99585 0.0
H4099 H 0.57054 0.34254 0.97381 0.0
H4100 H 0.6068 0.31451 0.97588 0.0
H4101 H 0.60715 0.31665 0.00177 0.0
C4102 C 0.58815 0.33079 0.01771 0.0
C4103 C 0.57741 0.33849 0.02471 0.0
C4104 C 0.58891 0.33067 0.00281 0.0
C4105 C 0.56799 0.34684 0.01667 0.0
C4106 C 0.56864 0.34673 0.00182 0.0
C4107 C 0.57862 0.33704 0.97993 0.0
C4108 C 0.58849 0.32821 0.97297 0.0
C4109 C 0.57878 0.33835 0.99479 0.0
C4110 C 0.59905 0.32133 0.98099 0.0
C4111 C 0.59922 0.3225 0.99579 0.0
H4112 H 0.66465 0.58423 0.97222 0.0
H4113 H 0.70057 0.55581 0.97003 0.0
H4114 H 0.6991 0.5517 0.99567 0.0
H4115 H 0.68769 0.55627 0.01866 0.0
H4116 H 0.65055 0.58309 0.02071 0.0
H4117 H 0.65231 0.58768 0.99512 0.0
C4118 C 0.67217 0.57718 0.97741 0.0
C4119 C 0.6828 0.57044 0.96934 0.0
C4120 C 0.67099 0.57455 0.99206 0.0
C4121 C 0.69232 0.56112 0.97607 0.0
C4122 C 0.69149 0.55878 0.9907 0.0
C4123 C 0.67998 0.56312 0.01349 0.0
C4124 C 0.66908 0.56944 0.02153 0.0
C4125 C 0.68088 0.56544 0.99879 0.0
C4126 C 0.65902 0.5781 0.0147 0.0
C4127 C 0.66006 0.58077 1.0001 0.0
H4128 H 0.43383 0.65419 0.01881 0.0
H4129 H 0.39684 0.67994 0.02719 0.0
H4130 H 0.3932 0.68339 0.00169 0.0
H4131 H 0.40201 0.68118 0.97721 0.0
H4132 H 0.44024 0.65717 0.96905 0.0
H4133 H 0.4419 0.6509 0.99418 0.0
C4134 C 0.4248 0.66028 0.01502 0.0
C4135 C 0.4156 0.66678 0.02482 0.0
C4136 C 0.42312 0.66271 1.00037 0.0
C4137 C 0.40407 0.67486 0.01981 0.0
C4138 C 0.40202 0.67688 0.00524 0.0
C4139 C 0.41059 0.67442 0.9809 0.0
C4140 C 0.42103 0.66972 0.97129 0.0
C4141 C 0.41171 0.67119 0.99545 0.0
C4142 C 0.43213 0.66103 0.97626 0.0
C4143 C 0.43308 0.65743 0.99063 0.0
H4144 H 0.32055 0.40576 0.97518 0.0
H4145 H 0.3405 0.44641 0.96779 0.0
H4146 H 0.34554 0.44876 0.99315 0.0
H4147 H 0.34319 0.43984 0.01763 0.0
H4148 H 0.3212 0.40036 0.02526 0.0
H4149 H 0.31822 0.39683 0.99965 0.0
C4150 C 0.32607 0.41508 0.97912 0.0
C4151 C 0.33013 0.42589 0.96963 0.0
C4152 C 0.32862 0.41653 0.99377 0.0
C4153 C 0.33717 0.43798 0.9749 0.0
C4154 C 0.34011 0.43931 0.9894 0.0
C4155 C 0.33798 0.43036 0.01363 0.0
C4156 C 0.33256 0.42029 0.02323 0.0
C4157 C 0.33577 0.42872 0.99895 0.0
C4158 C 0.32551 0.40821 0.01801 0.0
C4159 C 0.32376 0.40622 0.00339 0.0
H4160 H 0.97694 0.56422 0.64924 0.0
H4161 H 0.96869 0.59595 0.68129 0.0
H4162 H 0.99422 0.59916 0.68496 0.0
H4163 H 0.01881 0.59152 0.68046 0.0
H4164 H 0.02688 0.55827 0.64993 0.0
H4165 H 0.00157 0.55711 0.6442 0.0
C4166 C 0.98076 0.572 0.65685 0.0
C4167 C 0.97097 0.57985 0.66496 0.0
C4168 C 0.99543 0.57342 0.65927 0.0
C4169 C 0.97604 0.58975 0.67495 0.0
C4170 C 0.99063 0.59158 0.67707 0.0
C4171 C 0.01503 0.58417 0.67242 0.0
C4172 C 0.02468 0.57499 0.66564 0.0
C4173 C 1.00041 0.58325 0.6695 0.0
C4174 C 0.01964 0.56539 0.65536 0.0
C4175 C 0.00517 0.56473 0.65207 0.0
H4176 H 0.43488 0.02785 0.65888 0.0
H4177 H 0.39871 0.02804 0.68713 0.0
H4178 H 0.39705 0.00218 0.68541 0.0
H4179 H 0.40721 0.97946 0.67766 0.0
H4180 H 0.44305 0.97915 0.64901 0.0
H4181 H 0.44336 0.00517 0.64892 0.0
C4182 C 0.42656 0.02223 0.66456 0.0
C4183 C 0.41706 0.02982 0.67328 0.0
C4184 C 0.42562 0.00737 0.66346 0.0
C4185 C 0.40618 0.02244 0.68038 0.0
C4186 C 0.40525 0.00765 0.67945 0.0
C4187 C 0.41498 0.98509 0.67125 0.0
C4188 C 0.42521 0.97741 0.6635 0.0
C4189 C 0.41511 1.0 0.67128 0.0
C4190 C 0.43507 0.98483 0.65508 0.0
C4191 C 0.43531 0.9997 0.6551 0.0
H4192 H 0.02369 0.43342 0.65602 0.0
H4193 H 0.0302 0.39956 0.68626 0.0
H4194 H 0.00451 0.39662 0.68881 0.0
H4195 H 0.98028 0.40513 0.6841 0.0
H4196 H 0.97388 0.44032 0.65538 0.0
H4197 H 0.99937 0.44123 0.6505 0.0
C4198 C 0.01947 0.42524 0.66297 0.0
C4199 C 0.02881 0.41673 0.67094 0.0
C4200 C 0.00469 0.42394 0.66476 0.0
C4201 C 0.0232 0.40629 0.68005 0.0
C4202 C 0.00852 0.40461 0.68153 0.0
C4203 C 0.98445 0.41285 0.67662 0.0
C4204 C 0.97522 0.42266 0.67015 0.0
C4205 C 0.99917 0.4136 0.67419 0.0
C4206 C 0.98079 0.4327 0.66057 0.0
C4207 C 0.99536 0.43324 0.65778 0.0
H4208 H 0.55919 0.97613 0.69222 0.0
H4209 H 0.59097 0.97226 0.65937 0.0
H4210 H 0.58973 0.99785 0.65491 0.0
H4211 H 0.58005 0.02148 0.66081 0.0
H4212 H 0.54974 0.02545 0.695 0.0
H4213 H 0.54989 0.9997 0.69842 0.0
C4214 C 0.56578 0.98089 0.68403 0.0
C4215 C 0.57511 0.97233 0.67611 0.0
C4216 C 0.56528 0.99563 0.68177 0.0
C4217 C 0.58374 0.97865 0.66566 0.0
C4218 C 0.58301 0.99327 0.66307 0.0
C4219 C 0.57341 0.01666 0.66892 0.0
C4220 C 0.56484 0.0253 0.67759 0.0
C4221 C 0.57388 0.00188 0.67112 0.0
C4222 C 0.55644 0.01899 0.68821 0.0
C4223 C 0.55651 0.00428 0.69017 0.0
H4224 H 0.0304 0.43718 0.33999 0.0
H4225 H 0.03025 0.40039 0.31262 0.0
H4226 H 0.00431 0.39933 0.31384 0.0
H4227 H 0.98162 0.40948 0.32187 0.0
H4228 H 0.98169 0.44519 0.35063 0.0
H4229 H 0.0077 0.44596 0.34986 0.0
C4230 C 0.02465 0.42893 0.33434 0.0
C4231 C 0.03217 0.41897 0.3261 0.0
C4232 C 0.00975 0.42816 0.33538 0.0
C4233 C 0.02466 0.40817 0.31902 0.0
C4234 C 0.00984 0.40758 0.31969 0.0
C4235 C 0.98735 0.41735 0.32806 0.0
C4236 C 0.97977 0.42732 0.3362 0.0
C4237 C 0.00227 0.41759 0.32773 0.0
C4238 C 0.98731 0.43736 0.34432 0.0
C4239 C 0.00216 0.43786 0.34381 0.0
H4240 H 0.56307 0.02793 0.34554 0.0
H4241 H 0.59975 0.02818 0.31793 0.0
H4242 H 0.60102 0.00231 0.31913 0.0
H4243 H 0.59035 0.97958 0.3261 0.0
H4244 H 0.55409 0.97909 0.35418 0.0
H4245 H 0.55415 0.00511 0.35489 0.0
C4246 C 0.57143 0.02232 0.33991 0.0
C4247 C 0.58118 0.02996 0.33149 0.0
C4248 C 0.57215 0.00742 0.34069 0.0
C4249 C 0.59209 0.02257 0.32445 0.0
C4250 C 0.5928 0.00776 0.32508 0.0
C4251 C 0.58257 0.98517 0.33252 0.0
C4252 C 0.57212 0.97746 0.33993 0.0
C4253 C 0.58268 1.00007 0.33288 0.0
C4254 C 0.56225 0.98481 0.34839 0.0
C4255 C 0.56222 0.99968 0.34872 0.0
H4256 H 0.97518 0.58802 0.34444 0.0
H4257 H 0.97322 0.55443 0.31324 0.0
H4258 H 0.99893 0.55155 0.31437 0.0
H4259 H 0.02198 0.55903 0.32349 0.0
H4260 H 0.02455 0.59125 0.35593 0.0
H4261 H 0.99856 0.59414 0.35525 0.0
C4262 C 0.98044 0.58008 0.33794 0.0
C4263 C 0.97238 0.57153 0.32868 0.0
C4264 C 0.99527 0.57822 0.33891 0.0
C4265 C 0.97922 0.56111 0.32046 0.0
C4266 C 0.99391 0.55947 0.32107 0.0
C4267 C 0.01682 0.56662 0.33048 0.0
C4268 C 0.02506 0.57502 0.33964 0.0
C4269 C 0.00202 0.56802 0.33016 0.0
C4270 C 0.01833 0.58466 0.34882 0.0
C4271 C 0.00352 0.58637 0.34835 0.0
H4272 H 0.43664 0.97341 0.31101 0.0
H4273 H 0.40474 0.97044 0.34384 0.0
H4274 H 0.40546 0.99623 0.34709 0.0
H4275 H 0.41518 0.01967 0.34053 0.0
H4276 H 0.44602 0.02258 0.30667 0.0
H4277 H 0.44569 0.99679 0.3039 0.0
C4278 C 0.42988 0.9784 0.3189 0.0
C4279 C 0.42071 0.97002 0.32722 0.0
C4280 C 0.43015 0.99323 0.32052 0.0
C4281 C 0.41187 0.97666 0.33728 0.0
C4282 C 0.4123 0.9914 0.33916 0.0
C4283 C 0.42184 0.01464 0.33258 0.0
C4284 C 0.43065 0.02302 0.32387 0.0
C4285 C 0.4214 0.9998 0.33084 0.0
C4286 C 0.43911 0.01637 0.31349 0.0
C4287 C 0.43895 0.00162 0.31191 0.0
H4288 H 0.65456 0.9771 0.56834 0.0
H4289 H 0.68834 0.96773 0.59792 0.0
H4290 H 0.6912 0.99308 0.60295 0.0
H4291 H 0.68533 0.01804 0.59754 0.0
H4292 H 0.65301 0.02727 0.56636 0.0
H4293 H 0.64825 0.00191 0.56345 0.0
C4294 C 0.66241 0.9806 0.57604 0.0
C4295 C 0.67122 0.97057 0.58274 0.0
C4296 C 0.66431 0.9952 0.57853 0.0
C4297 C 0.68147 0.97527 0.59256 0.0
C4298 C 0.68311 0.98975 0.59544 0.0
C4299 C 0.67711 0.01447 0.59028 0.0
C4300 C 0.66952 0.02448 0.58218 0.0
C4301 C 0.67477 0.99984 0.58829 0.0
C4302 C 0.65903 0.01974 0.57266 0.0
C4303 C 0.65631 0.00525 0.57098 0.0
H4304 H 0.68319 0.98251 0.4034 0.0
H4305 H 0.66053 0.97195 0.44186 0.0
H4306 H 0.65487 0.99701 0.44564 0.0
H4307 H 0.65749 0.02208 0.43876 0.0
H4308 H 0.68224 0.03289 0.40173 0.0
H4309 H 0.68582 0.00764 0.39651 0.0
C4310 C 0.67692 0.98571 0.41254 0.0
C4311 C 0.67228 0.97542 0.42233 0.0
C4312 C 0.67407 1.00019 0.41488 0.0
C4313 C 0.66431 0.9797 0.43422 0.0
C4314 C 0.66103 0.99402 0.43637 0.0
C4315 C 0.66346 0.01887 0.42943 0.0
C4316 C 0.66948 0.02925 0.42055 0.0
C4317 C 0.66599 0.00437 0.42686 0.0
C4318 C 0.67747 0.02502 0.40867 0.0
C4319 C 0.67956 0.01061 0.40572 0.0
H4320 H 0.0214 0.68071 0.4059 0.0
H4321 H 0.02909 0.65508 0.44318 0.0
H4322 H 0.00373 0.64995 0.44512 0.0
H4323 H 0.97918 0.65451 0.43757 0.0
H4324 H 0.97134 0.6815 0.40132 0.0
H4325 H 0.9969 0.68416 0.39753 0.0
C4326 C 0.01755 0.67385 0.41433 0.0
C4327 C 0.02711 0.66837 0.42443 0.0
C4328 C 0.00289 0.67122 0.41561 0.0
C4329 C 0.02193 0.65955 0.43534 0.0
C4330 C 0.00743 0.65659 0.43645 0.0
C4331 C 0.98307 0.66075 0.42868 0.0
C4332 C 0.97339 0.66782 0.41977 0.0
C4333 C 0.99778 0.66262 0.42684 0.0
C4334 C 0.97859 0.676 0.40838 0.0
C4335 C 0.9932 0.67756 0.40622 0.0
H4336 H 0.32147 0.01238 0.40854 0.0
H4337 H 0.34589 0.02135 0.44635 0.0
H4338 H 0.35132 0.99614 0.44906 0.0
H4339 H 0.34748 0.97133 0.44189 0.0
H4340 H 0.32176 0.96223 0.40501 0.0
H4341 H 0.31867 0.98764 0.40065 0.0
C4342 C 0.32811 0.00883 0.41727 0.0
C4343 C 0.33317 0.01873 0.42727 0.0
C4344 C 0.33095 0.99426 0.41897 0.0
C4345 C 0.34174 0.01395 0.43856 0.0
C4346 C 0.34487 0.99952 0.44012 0.0
C4347 C 0.34143 0.97492 0.43275 0.0
C4348 C 0.33485 0.96493 0.42381 0.0
C4349 C 0.33931 0.98955 0.43056 0.0
C4350 C 0.32689 0.96973 0.4121 0.0
C4351 C 0.32508 0.98426 0.40961 0.0
H4352 H 0.98323 0.34778 0.43828 0.0
H4353 H 0.98664 0.31767 0.40381 0.0
H4354 H 0.01243 0.32054 0.40366 0.0
H4355 H 0.0341 0.33006 0.4146 0.0
H4356 H 0.03081 0.36058 0.4487 0.0
H4357 H 0.00487 0.3592 0.4476 0.0
C4358 C 0.98961 0.34195 0.43065 0.0
C4359 C 0.98303 0.3324 0.42119 0.0
C4360 C 0.00445 0.34367 0.43059 0.0
C4361 C 0.99142 0.32507 0.41123 0.0
C4362 C 0.00619 0.32665 0.41117 0.0
C4363 C 0.0277 0.33652 0.42171 0.0
C4364 C 0.03437 0.34528 0.43183 0.0
C4365 C 0.01282 0.33569 0.421 0.0
C4366 C 0.02594 0.35374 0.44081 0.0
C4367 C 0.01111 0.3529 0.44024 0.0
H4368 H 0.31565 0.0268 0.56209 0.0
H4369 H 0.35475 0.02731 0.58604 0.0
H4370 H 0.35273 0.00167 0.59014 0.0
H4371 H 0.33969 0.97912 0.58701 0.0
H4372 H 0.3017 0.97842 0.56133 0.0
H4373 H 0.30341 0.00413 0.5578 0.0
C4374 C 0.32372 0.02128 0.56822 0.0
C4375 C 0.33527 0.02891 0.57386 0.0
C4376 C 0.32266 0.00653 0.57022 0.0
C4377 C 0.34577 0.02163 0.58158 0.0
C4378 C 0.34459 0.00699 0.58396 0.0
C4379 C 0.33178 0.98464 0.58068 0.0
C4380 C 0.32052 0.97696 0.57453 0.0
C4381 C 0.33306 0.99935 0.57836 0.0
C4382 C 0.31047 0.98414 0.56615 0.0
C4383 C 0.31142 0.99882 0.56415 0.0
H4384 H 0.97927 0.31459 0.56007 0.0
H4385 H 0.97785 0.34791 0.59155 0.0
H4386 H 0.00331 0.34501 0.596 0.0
H4387 H 0.02603 0.33312 0.59076 0.0
H4388 H 0.02773 0.3011 0.55797 0.0
H4389 H 0.0021 0.30333 0.55422 0.0
C4390 C 0.98454 0.32118 0.56794 0.0
C4391 C 0.97669 0.33139 0.57553 0.0
C4392 C 0.99921 0.31968 0.57019 0.0
C4393 C 0.98368 0.34 0.58555 0.0
C4394 C 0.99822 0.33832 0.58812 0.0
C4395 C 0.02075 0.32658 0.58285 0.0
C4396 C 0.02871 0.31688 0.57472 0.0
C4397 C 0.00609 0.3282 0.58049 0.0
C4398 C 0.02181 0.30865 0.56434 0.0
C4399 C 0.00717 0.30991 0.56221 0.0
H4400 H 0.9784 0.65934 0.56869 0.0
H4401 H 0.98041 0.69075 0.60205 0.0
H4402 H 0.00632 0.68873 0.60262 0.0
H4403 H 0.02847 0.67939 0.59232 0.0
H4404 H 0.02642 0.64722 0.55968 0.0
H4405 H 1.00045 0.64809 0.56023 0.0
C4406 C 0.98452 0.66564 0.57617 0.0
C4407 C 0.97753 0.6753 0.5852 0.0
C4408 C 0.99939 0.66433 0.57653 0.0
C4409 C 0.98554 0.68324 0.59499 0.0
C4410 C 1.00036 0.68214 0.59528 0.0
C4411 C 0.02233 0.67248 0.58542 0.0
C4412 C 0.02934 0.66338 0.57585 0.0
C4413 C 0.00741 0.67294 0.58589 0.0
C4414 C 0.02126 0.65433 0.56713 0.0
C4415 C 0.00642 0.65486 0.56739 0.0
loop_
_geom_bond_atom_site_label_1
_geom_bond_atom_site_label_2
_geom_bond_distance
_geom_bond_site_symmetry_2
_ccdc_geom_bond_type
O0 Cd1 2.223 . S
O0 C8 1.315 . S
Cd1 O0 2.223 . S
Cd1 O4 2.297 . S
Cd1 O5 2.439 . S
Cd1 O11 2.240 . S
Cd2 O3 2.240 . S
Cd2 O10 2.223 . S
Cd2 O12 2.297 . S
Cd2 O13 2.439 . S
O3 Cd2 2.240 . S
O3 C8 1.279 . S
O4 Cd1 2.297 . S
O4 C6 1.247 . S
O5 Cd1 2.439 . S
O5 C6 1.208 . S
C6 O4 1.247 . S
C6 O5 1.208 . S
C7 O12 1.247 . S
C7 O13 1.208 . S
C8 O0 1.315 . S
C8 O3 1.279 . S
C9 O10 1.315 . S
C9 O11 1.279 . S
O10 Cd2 2.223 . S
O10 C9 1.315 . S
O11 Cd1 2.240 . S
O11 C9 1.279 . S
O12 Cd2 2.297 . S
O12 C7 1.247 . S
O13 Cd2 2.439 . S
O13 C7 1.208 . S
O14 Cd15 2.223 . S
O14 C22 1.315 . S
Cd15 O14 2.223 . S
Cd15 O18 2.297 . S
Cd15 O19 2.439 . S
Cd15 O25 2.240 . S
Cd16 O17 2.240 . S
Cd16 O24 2.223 . S
Cd16 O26 2.297 . S
Cd16 O27 2.439 . S
O17 Cd16 2.240 . S
O17 C22 1.279 . S
O18 Cd15 2.297 . S
O18 C20 1.247 . S
O19 Cd15 2.439 . S
O19 C20 1.208 . S
C20 O18 1.247 . S
C20 O19 1.208 . S
C21 O26 1.247 . S
C21 O27 1.208 . S
C22 O14 1.315 . S
C22 O17 1.279 . S
C23 O24 1.315 . S
C23 O25 1.279 . S
O24 Cd16 2.223 . S
O24 C23 1.315 . S
O25 Cd15 2.240 . S
O25 C23 1.279 . S
O26 Cd16 2.297 . S
O26 C21 1.247 . S
O27 Cd16 2.439 . S
O27 C21 1.208 . S
O28 Cd29 2.223 . S
O28 C36 1.315 . S
Cd29 O28 2.223 . S
Cd29 O32 2.297 . S
Cd29 O33 2.439 . S
Cd29 O39 2.240 . S
Cd30 O31 2.240 . S
Cd30 O38 2.223 . S
Cd30 O40 2.297 . S
Cd30 O41 2.439 . S
O31 Cd30 2.240 . S
O31 C36 1.279 . S
O32 Cd29 2.297 . S
O32 C34 1.247 . S
O33 Cd29 2.439 . S
O33 C34 1.208 . S
C34 O32 1.247 . S
C34 O33 1.208 . S
C35 O40 1.247 . S
C35 O41 1.208 . S
C36 O28 1.315 . S
C36 O31 1.279 . S
C37 O38 1.315 . S
C37 O39 1.279 . S
O38 Cd30 2.223 . S
O38 C37 1.315 . S
O39 Cd29 2.240 . S
O39 C37 1.279 . S
O40 Cd30 2.297 . S
O40 C35 1.247 . S
O41 Cd30 2.439 . S
O41 C35 1.208 . S
O42 Cd43 2.223 . S
O42 C50 1.315 . S
Cd43 O42 2.223 . S
Cd43 O46 2.297 . S
Cd43 O47 2.439 . S
Cd43 O53 2.240 . S
Cd44 O45 2.240 . S
Cd44 O52 2.223 . S
Cd44 O54 2.297 . S
Cd44 O55 2.439 . S
O45 Cd44 2.240 . S
O45 C50 1.279 . S
O46 Cd43 2.297 . S
O46 C48 1.247 . S
O47 Cd43 2.439 . S
O47 C48 1.208 . S
C48 O46 1.247 . S
C48 O47 1.208 . S
C49 O54 1.247 . S
C49 O55 1.208 . S
C50 O42 1.315 . S
C50 O45 1.279 . S
C51 O52 1.315 . S
C51 O53 1.279 . S
O52 Cd44 2.223 . S
O52 C51 1.315 . S
O53 Cd43 2.240 . S
O53 C51 1.279 . S
O54 Cd44 2.297 . S
O54 C49 1.247 . S
O55 Cd44 2.439 . S
O55 C49 1.208 . S
O56 Cd57 2.223 . S
O56 C64 1.315 . S
Cd57 O56 2.223 . S
Cd57 O60 2.297 . S
Cd57 O61 2.439 . S
Cd57 O67 2.240 . S
Cd58 O59 2.240 . S
Cd58 O66 2.223 . S
Cd58 O68 2.297 . S
Cd58 O69 2.439 . S
O59 Cd58 2.240 . S
O59 C64 1.279 . S
O60 Cd57 2.297 . S
O60 C62 1.247 . S
O61 Cd57 2.439 . S
O61 C62 1.208 . S
C62 O60 1.247 . S
C62 O61 1.208 . S
C63 O68 1.247 . S
C63 O69 1.208 . S
C64 O56 1.315 . S
C64 O59 1.279 . S
C65 O66 1.315 . S
C65 O67 1.279 . S
O66 Cd58 2.223 . S
O66 C65 1.315 . S
O67 Cd57 2.240 . S
O67 C65 1.279 . S
O68 Cd58 2.297 . S
O68 C63 1.247 . S
O69 Cd58 2.439 . S
O69 C63 1.208 . S
O70 Cd71 2.223 . S
O70 C78 1.315 . S
Cd71 O70 2.223 . S
Cd71 O74 2.297 . S
Cd71 O75 2.439 . S
Cd71 O81 2.240 . S
Cd72 O73 2.240 . S
Cd72 O80 2.223 . S
Cd72 O82 2.297 . S
Cd72 O83 2.439 . S
O73 Cd72 2.240 . S
O73 C78 1.279 . S
O74 Cd71 2.297 . S
O74 C76 1.247 . S
O75 Cd71 2.439 . S
O75 C76 1.208 . S
C76 O74 1.247 . S
C76 O75 1.208 . S
C77 O82 1.247 . S
C77 O83 1.208 . S
C78 O70 1.315 . S
C78 O73 1.279 . S
C79 O80 1.315 . S
C79 O81 1.279 . S
O80 Cd72 2.223 . S
O80 C79 1.315 . S
O81 Cd71 2.240 . S
O81 C79 1.279 . S
O82 Cd72 2.297 . S
O82 C77 1.247 . S
O83 Cd72 2.439 . S
O83 C77 1.208 . S
O84 Cd85 2.223 . S
O84 C92 1.315 . S
Cd85 O84 2.223 . S
Cd85 O88 2.297 . S
Cd85 O89 2.439 . S
Cd85 O95 2.240 . S
Cd86 O87 2.240 . S
Cd86 O94 2.223 . S
Cd86 O96 2.297 . S
Cd86 O97 2.439 . S
O87 Cd86 2.240 . S
O87 C92 1.279 . S
O88 Cd85 2.297 . S
O88 C90 1.247 . S
O89 Cd85 2.439 . S
O89 C90 1.208 . S
C90 O88 1.247 . S
C90 O89 1.208 . S
C91 O96 1.247 . S
C91 O97 1.208 . S
C92 O84 1.315 . S
C92 O87 1.279 . S
C93 O94 1.315 . S
C93 O95 1.279 . S
O94 Cd86 2.223 . S
O94 C93 1.315 . S
O95 Cd85 2.240 . S
O95 C93 1.279 . S
O96 Cd86 2.297 . S
O96 C91 1.247 . S
O97 Cd86 2.439 . S
O97 C91 1.208 . S
O98 Cd99 2.223 . S
O98 C106 1.315 . S
Cd99 O98 2.223 . S
Cd99 O102 2.297 . S
Cd99 O103 2.439 . S
Cd99 O109 2.240 . S
Cd100 O101 2.240 . S
Cd100 O108 2.223 . S
Cd100 O110 2.297 . S
Cd100 O111 2.439 . S
O101 Cd100 2.240 . S
O101 C106 1.279 . S
O102 Cd99 2.297 . S
O102 C104 1.247 . S
O103 Cd99 2.439 . S
O103 C104 1.208 . S
C104 O102 1.247 . S
C104 O103 1.208 . S
C105 O110 1.247 . S
C105 O111 1.208 . S
C106 O98 1.315 . S
C106 O101 1.279 . S
C107 O108 1.315 . S
C107 O109 1.279 . S
O108 Cd100 2.223 . S
O108 C107 1.315 . S
O109 Cd99 2.240 . S
O109 C107 1.279 . S
O110 Cd100 2.297 . S
O110 C105 1.247 . S
O111 Cd100 2.439 . S
O111 C105 1.208 . S
O112 Cd113 2.223 . S
O112 C120 1.315 . S
Cd113 O112 2.223 . S
Cd113 O116 2.297 . S
Cd113 O117 2.439 . S
Cd113 O123 2.240 . S
Cd114 O115 2.240 . S
Cd114 O122 2.223 . S
Cd114 O124 2.297 . S
Cd114 O125 2.439 . S
O115 Cd114 2.240 . S
O115 C120 1.279 . S
O116 Cd113 2.297 . S
O116 C118 1.247 . S
O117 Cd113 2.439 . S
O117 C118 1.208 . S
C118 O116 1.247 . S
C118 O117 1.208 . S
C119 O124 1.247 . S
C119 O125 1.208 . S
C120 O112 1.315 . S
C120 O115 1.279 . S
C121 O122 1.315 . S
C121 O123 1.279 . S
O122 Cd114 2.223 . S
O122 C121 1.315 . S
O123 Cd113 2.240 . S
O123 C121 1.279 . S
O124 Cd114 2.297 . S
O124 C119 1.247 . S
O125 Cd114 2.439 . S
O125 C119 1.208 . S
O126 Cd127 2.223 . S
O126 C134 1.315 . S
Cd127 O126 2.223 . S
Cd127 O130 2.297 . S
Cd127 O131 2.439 . S
Cd127 O137 2.240 . S
Cd128 O129 2.240 . S
Cd128 O136 2.223 . S
Cd128 O138 2.297 . S
Cd128 O139 2.439 . S
O129 Cd128 2.240 . S
O129 C134 1.279 . S
O130 Cd127 2.297 . S
O130 C132 1.247 . S
O131 Cd127 2.439 . S
O131 C132 1.208 . S
C132 O130 1.247 . S
C132 O131 1.208 . S
C133 O138 1.247 . S
C133 O139 1.208 . S
C134 O126 1.315 . S
C134 O129 1.279 . S
C135 O136 1.315 . S
C135 O137 1.279 . S
O136 Cd128 2.223 . S
O136 C135 1.315 . S
O137 Cd127 2.240 . S
O137 C135 1.279 . S
O138 Cd128 2.297 . S
O138 C133 1.247 . S
O139 Cd128 2.439 . S
O139 C133 1.208 . S
O140 Cd141 2.223 . S
O140 C148 1.315 . S
Cd141 O140 2.223 . S
Cd141 O144 2.297 . S
Cd141 O145 2.439 . S
Cd141 O151 2.240 . S
Cd142 O143 2.240 . S
Cd142 O150 2.223 . S
Cd142 O152 2.297 . S
Cd142 O153 2.439 . S
O143 Cd142 2.240 . S
O143 C148 1.279 . S
O144 Cd141 2.297 . S
O144 C146 1.247 . S
O145 Cd141 2.439 . S
O145 C146 1.208 . S
C146 O144 1.247 . S
C146 O145 1.208 . S
C147 O152 1.247 . S
C147 O153 1.208 . S
C148 O140 1.315 . S
C148 O143 1.279 . S
C149 O150 1.315 . S
C149 O151 1.279 . S
O150 Cd142 2.223 . S
O150 C149 1.315 . S
O151 Cd141 2.240 . S
O151 C149 1.279 . S
O152 Cd142 2.297 . S
O152 C147 1.247 . S
O153 Cd142 2.439 . S
O153 C147 1.208 . S
O154 Cd155 2.223 . S
O154 C162 1.315 . S
Cd155 O154 2.223 . S
Cd155 O158 2.297 . S
Cd155 O159 2.439 . S
Cd155 O165 2.240 . S
Cd156 O157 2.240 . S
Cd156 O164 2.223 . S
Cd156 O166 2.297 . S
Cd156 O167 2.439 . S
O157 Cd156 2.240 . S
O157 C162 1.279 . S
O158 Cd155 2.297 . S
O158 C160 1.247 . S
O159 Cd155 2.439 . S
O159 C160 1.208 . S
C160 O158 1.247 . S
C160 O159 1.208 . S
C161 O166 1.247 . S
C161 O167 1.208 . S
C162 O154 1.315 . S
C162 O157 1.279 . S
C163 O164 1.315 . S
C163 O165 1.279 . S
O164 Cd156 2.223 . S
O164 C163 1.315 . S
O165 Cd155 2.240 . S
O165 C163 1.279 . S
O166 Cd156 2.297 . S
O166 C161 1.247 . S
O167 Cd156 2.439 . S
O167 C161 1.208 . S
O168 Cd169 2.223 . S
O168 C176 1.315 . S
Cd169 O168 2.223 . S
Cd169 O172 2.297 . S
Cd169 O173 2.439 . S
Cd169 O179 2.240 . S
Cd170 O171 2.240 . S
Cd170 O178 2.223 . S
Cd170 O180 2.297 . S
Cd170 O181 2.439 . S
O171 Cd170 2.240 . S
O171 C176 1.279 . S
O172 Cd169 2.297 . S
O172 C174 1.247 . S
O173 Cd169 2.439 . S
O173 C174 1.208 . S
C174 O172 1.247 . S
C174 O173 1.208 . S
C175 O180 1.247 . S
C175 O181 1.208 . S
C176 O168 1.315 . S
C176 O171 1.279 . S
C177 O178 1.315 . S
C177 O179 1.279 . S
O178 Cd170 2.223 . S
O178 C177 1.315 . S
O179 Cd169 2.240 . S
O179 C177 1.279 . S
O180 Cd170 2.297 . S
O180 C175 1.247 . S
O181 Cd170 2.439 . S
O181 C175 1.208 . S
O182 Cd183 2.223 . S
O182 C190 1.315 . S
Cd183 O182 2.223 . S
Cd183 O186 2.297 . S
Cd183 O187 2.439 . S
Cd183 O193 2.240 . S
Cd184 O185 2.240 . S
Cd184 O192 2.223 . S
Cd184 O194 2.297 . S
Cd184 O195 2.439 . S
O185 Cd184 2.240 . S
O185 C190 1.279 . S
O186 Cd183 2.297 . S
O186 C188 1.247 . S
O187 Cd183 2.439 . S
O187 C188 1.208 . S
C188 O186 1.247 . S
C188 O187 1.208 . S
C189 O194 1.247 . S
C189 O195 1.208 . S
C190 O182 1.315 . S
C190 O185 1.279 . S
C191 O192 1.315 . S
C191 O193 1.279 . S
O192 Cd184 2.223 . S
O192 C191 1.315 . S
O193 Cd183 2.240 . S
O193 C191 1.279 . S
O194 Cd184 2.297 . S
O194 C189 1.247 . S
O195 Cd184 2.439 . S
O195 C189 1.208 . S
O196 Cd197 2.223 . S
O196 C204 1.315 . S
Cd197 O196 2.223 . S
Cd197 O200 2.297 . S
Cd197 O201 2.439 . S
Cd197 O207 2.240 . S
Cd198 O199 2.240 . S
Cd198 O206 2.223 . S
Cd198 O208 2.297 . S
Cd198 O209 2.439 . S
O199 Cd198 2.240 . S
O199 C204 1.279 . S
O200 Cd197 2.297 . S
O200 C202 1.247 . S
O201 Cd197 2.439 . S
O201 C202 1.208 . S
C202 O200 1.247 . S
C202 O201 1.208 . S
C203 O208 1.247 . S
C203 O209 1.208 . S
C204 O196 1.315 . S
C204 O199 1.279 . S
C205 O206 1.315 . S
C205 O207 1.279 . S
O206 Cd198 2.223 . S
O206 C205 1.315 . S
O207 Cd197 2.240 . S
O207 C205 1.279 . S
O208 Cd198 2.297 . S
O208 C203 1.247 . S
O209 Cd198 2.439 . S
O209 C203 1.208 . S
O210 Cd211 2.223 . S
O210 C218 1.315 . S
Cd211 O210 2.223 . S
Cd211 O214 2.297 . S
Cd211 O215 2.439 . S
Cd211 O221 2.240 . S
Cd212 O213 2.240 . S
Cd212 O220 2.223 . S
Cd212 O222 2.297 . S
Cd212 O223 2.439 . S
O213 Cd212 2.240 . S
O213 C218 1.279 . S
O214 Cd211 2.297 . S
O214 C216 1.247 . S
O215 Cd211 2.439 . S
O215 C216 1.208 . S
C216 O214 1.247 . S
C216 O215 1.208 . S
C217 O222 1.247 . S
C217 O223 1.208 . S
C218 O210 1.315 . S
C218 O213 1.279 . S
C219 O220 1.315 . S
C219 O221 1.279 . S
O220 Cd212 2.223 . S
O220 C219 1.315 . S
O221 Cd211 2.240 . S
O221 C219 1.279 . S
O222 Cd212 2.297 . S
O222 C217 1.247 . S
O223 Cd212 2.439 . S
O223 C217 1.208 . S
O224 Cd225 2.223 . S
O224 C232 1.315 . S
Cd225 O224 2.223 . S
Cd225 O228 2.297 . S
Cd225 O229 2.439 . S
Cd225 O235 2.240 . S
Cd226 O227 2.240 . S
Cd226 O234 2.223 . S
Cd226 O236 2.297 . S
Cd226 O237 2.439 . S
O227 Cd226 2.240 . S
O227 C232 1.279 . S
O228 Cd225 2.297 . S
O228 C230 1.247 . S
O229 Cd225 2.439 . S
O229 C230 1.208 . S
C230 O228 1.247 . S
C230 O229 1.208 . S
C231 O236 1.247 . S
C231 O237 1.208 . S
C232 O224 1.315 . S
C232 O227 1.279 . S
C233 O234 1.315 . S
C233 O235 1.279 . S
O234 Cd226 2.223 . S
O234 C233 1.315 . S
O235 Cd225 2.240 . S
O235 C233 1.279 . S
O236 Cd226 2.297 . S
O236 C231 1.247 . S
O237 Cd226 2.439 . S
O237 C231 1.208 . S
O238 Cd239 2.223 . S
O238 C246 1.315 . S
Cd239 O238 2.223 . S
Cd239 O242 2.297 . S
Cd239 O243 2.439 . S
Cd239 O249 2.240 . S
Cd240 O241 2.240 . S
Cd240 O248 2.223 . S
Cd240 O250 2.297 . S
Cd240 O251 2.439 . S
O241 Cd240 2.240 . S
O241 C246 1.279 . S
O242 Cd239 2.297 . S
O242 C244 1.247 . S
O243 Cd239 2.439 . S
O243 C244 1.208 . S
C244 O242 1.247 . S
C244 O243 1.208 . S
C245 O250 1.247 . S
C245 O251 1.208 . S
C246 O238 1.315 . S
C246 O241 1.279 . S
C247 O248 1.315 . S
C247 O249 1.279 . S
O248 Cd240 2.223 . S
O248 C247 1.315 . S
O249 Cd239 2.240 . S
O249 C247 1.279 . S
O250 Cd240 2.297 . S
O250 C245 1.247 . S
O251 Cd240 2.439 . S
O251 C245 1.208 . S
O252 Cd253 2.223 . S
O252 C260 1.315 . S
Cd253 O252 2.223 . S
Cd253 O256 2.297 . S
Cd253 O257 2.439 . S
Cd253 O263 2.240 . S
Cd254 O255 2.240 . S
Cd254 O262 2.223 . S
Cd254 O264 2.297 . S
Cd254 O265 2.439 . S
O255 Cd254 2.240 . S
O255 C260 1.279 . S
O256 Cd253 2.297 . S
O256 C258 1.247 . S
O257 Cd253 2.439 . S
O257 C258 1.208 . S
C258 O256 1.247 . S
C258 O257 1.208 . S
C259 O264 1.247 . S
C259 O265 1.208 . S
C260 O252 1.315 . S
C260 O255 1.279 . S
C261 O262 1.315 . S
C261 O263 1.279 . S
O262 Cd254 2.223 . S
O262 C261 1.315 . S
O263 Cd253 2.240 . S
O263 C261 1.279 . S
O264 Cd254 2.297 . S
O264 C259 1.247 . S
O265 Cd254 2.439 . S
O265 C259 1.208 . S
O266 Cd267 2.223 . S
O266 C274 1.315 . S
Cd267 O266 2.223 . S
Cd267 O270 2.297 . S
Cd267 O271 2.439 . S
Cd267 O277 2.240 . S
Cd268 O269 2.240 . S
Cd268 O276 2.223 . S
Cd268 O278 2.297 . S
Cd268 O279 2.439 . S
O269 Cd268 2.240 . S
O269 C274 1.279 . S
O270 Cd267 2.297 . S
O270 C272 1.247 . S
O271 Cd267 2.439 . S
O271 C272 1.208 . S
C272 O270 1.247 . S
C272 O271 1.208 . S
C273 O278 1.247 . S
C273 O279 1.208 . S
C274 O266 1.315 . S
C274 O269 1.279 . S
C275 O276 1.315 . S
C275 O277 1.279 . S
O276 Cd268 2.223 . S
O276 C275 1.315 . S
O277 Cd267 2.240 . S
O277 C275 1.279 . S
O278 Cd268 2.297 . S
O278 C273 1.247 . S
O279 Cd268 2.439 . S
O279 C273 1.208 . S
O280 Cd281 2.223 . S
O280 C288 1.315 . S
Cd281 O280 2.223 . S
Cd281 O284 2.297 . S
Cd281 O285 2.439 . S
Cd281 O291 2.240 . S
Cd282 O283 2.240 . S
Cd282 O290 2.223 . S
Cd282 O292 2.297 . S
Cd282 O293 2.439 . S
O283 Cd282 2.240 . S
O283 C288 1.279 . S
O284 Cd281 2.297 . S
O284 C286 1.247 . S
O285 Cd281 2.439 . S
O285 C286 1.208 . S
C286 O284 1.247 . S
C286 O285 1.208 . S
C287 O292 1.247 . S
C287 O293 1.208 . S
C288 O280 1.315 . S
C288 O283 1.279 . S
C289 O290 1.315 . S
C289 O291 1.279 . S
O290 Cd282 2.223 . S
O290 C289 1.315 . S
O291 Cd281 2.240 . S
O291 C289 1.279 . S
O292 Cd282 2.297 . S
O292 C287 1.247 . S
O293 Cd282 2.439 . S
O293 C287 1.208 . S
O294 Cd295 2.223 . S
O294 C302 1.315 . S
Cd295 O294 2.223 . S
Cd295 O298 2.297 . S
Cd295 O299 2.439 . S
Cd295 O305 2.240 . S
Cd296 O297 2.240 . S
Cd296 O304 2.223 . S
Cd296 O306 2.297 . S
Cd296 O307 2.439 . S
O297 Cd296 2.240 . S
O297 C302 1.279 . S
O298 Cd295 2.297 . S
O298 C300 1.247 . S
O299 Cd295 2.439 . S
O299 C300 1.208 . S
C300 O298 1.247 . S
C300 O299 1.208 . S
C301 O306 1.247 . S
C301 O307 1.208 . S
C302 O294 1.315 . S
C302 O297 1.279 . S
C303 O304 1.315 . S
C303 O305 1.279 . S
O304 Cd296 2.223 . S
O304 C303 1.315 . S
O305 Cd295 2.240 . S
O305 C303 1.279 . S
O306 Cd296 2.297 . S
O306 C301 1.247 . S
O307 Cd296 2.439 . S
O307 C301 1.208 . S
O308 Cd309 2.223 . S
O308 C316 1.315 . S
Cd309 O308 2.223 . S
Cd309 O312 2.297 . S
Cd309 O313 2.439 . S
Cd309 O319 2.240 . S
Cd310 O311 2.240 . S
Cd310 O318 2.223 . S
Cd310 O320 2.297 . S
Cd310 O321 2.439 . S
O311 Cd310 2.240 . S
O311 C316 1.279 . S
O312 Cd309 2.297 . S
O312 C314 1.247 . S
O313 Cd309 2.439 . S
O313 C314 1.208 . S
C314 O312 1.247 . S
C314 O313 1.208 . S
C315 O320 1.247 . S
C315 O321 1.208 . S
C316 O308 1.315 . S
C316 O311 1.279 . S
C317 O318 1.315 . S
C317 O319 1.279 . S
O318 Cd310 2.223 . S
O318 C317 1.315 . S
O319 Cd309 2.240 . S
O319 C317 1.279 . S
O320 Cd310 2.297 . S
O320 C315 1.247 . S
O321 Cd310 2.439 . S
O321 C315 1.208 . S
O322 Cd323 2.223 . S
O322 C330 1.315 . S
Cd323 O322 2.223 . S
Cd323 O326 2.297 . S
Cd323 O327 2.439 . S
Cd323 O333 2.240 . S
Cd324 O325 2.240 . S
Cd324 O332 2.223 . S
Cd324 O334 2.297 . S
Cd324 O335 2.439 . S
O325 Cd324 2.240 . S
O325 C330 1.279 . S
O326 Cd323 2.297 . S
O326 C328 1.247 . S
O327 Cd323 2.439 . S
O327 C328 1.208 . S
C328 O326 1.247 . S
C328 O327 1.208 . S
C329 O334 1.247 . S
C329 O335 1.208 . S
C330 O322 1.315 . S
C330 O325 1.279 . S
C331 O332 1.315 . S
C331 O333 1.279 . S
O332 Cd324 2.223 . S
O332 C331 1.315 . S
O333 Cd323 2.240 . S
O333 C331 1.279 . S
O334 Cd324 2.297 . S
O334 C329 1.247 . S
O335 Cd324 2.439 . S
O335 C329 1.208 . S
O336 Cd337 2.223 . S
O336 C344 1.315 . S
Cd337 O336 2.223 . S
Cd337 O340 2.297 . S
Cd337 O341 2.439 . S
Cd337 O347 2.240 . S
Cd338 O339 2.240 . S
Cd338 O346 2.223 . S
Cd338 O348 2.297 . S
Cd338 O349 2.439 . S
O339 Cd338 2.240 . S
O339 C344 1.279 . S
O340 Cd337 2.297 . S
O340 C342 1.247 . S
O341 Cd337 2.439 . S
O341 C342 1.208 . S
C342 O340 1.247 . S
C342 O341 1.208 . S
C343 O348 1.247 . S
C343 O349 1.208 . S
C344 O336 1.315 . S
C344 O339 1.279 . S
C345 O346 1.315 . S
C345 O347 1.279 . S
O346 Cd338 2.223 . S
O346 C345 1.315 . S
O347 Cd337 2.240 . S
O347 C345 1.279 . S
O348 Cd338 2.297 . S
O348 C343 1.247 . S
O349 Cd338 2.439 . S
O349 C343 1.208 . S
O350 Cd351 2.223 . S
O350 C358 1.315 . S
Cd351 O350 2.223 . S
Cd351 O354 2.297 . S
Cd351 O355 2.439 . S
Cd351 O361 2.240 . S
Cd352 O353 2.240 . S
Cd352 O360 2.223 . S
Cd352 O362 2.297 . S
Cd352 O363 2.439 . S
O353 Cd352 2.240 . S
O353 C358 1.279 . S
O354 Cd351 2.297 . S
O354 C356 1.247 . S
O355 Cd351 2.439 . S
O355 C356 1.208 . S
C356 O354 1.247 . S
C356 O355 1.208 . S
C357 O362 1.247 . S
C357 O363 1.208 . S
C358 O350 1.315 . S
C358 O353 1.279 . S
C359 O360 1.315 . S
C359 O361 1.279 . S
O360 Cd352 2.223 . S
O360 C359 1.315 . S
O361 Cd351 2.240 . S
O361 C359 1.279 . S
O362 Cd352 2.297 . S
O362 C357 1.247 . S
O363 Cd352 2.439 . S
O363 C357 1.208 . S
O364 Cd365 2.223 . S
O364 C372 1.315 . S
Cd365 O364 2.223 . S
Cd365 O368 2.297 . S
Cd365 O369 2.439 . S
Cd365 O375 2.240 . S
Cd366 O367 2.240 . S
Cd366 O374 2.223 . S
Cd366 O376 2.297 . S
Cd366 O377 2.439 . S
O367 Cd366 2.240 . S
O367 C372 1.279 . S
O368 Cd365 2.297 . S
O368 C370 1.247 . S
O369 Cd365 2.439 . S
O369 C370 1.208 . S
C370 O368 1.247 . S
C370 O369 1.208 . S
C371 O376 1.247 . S
C371 O377 1.208 . S
C372 O364 1.315 . S
C372 O367 1.279 . S
C373 O374 1.315 . S
C373 O375 1.279 . S
O374 Cd366 2.223 . S
O374 C373 1.315 . S
O375 Cd365 2.240 . S
O375 C373 1.279 . S
O376 Cd366 2.297 . S
O376 C371 1.247 . S
O377 Cd366 2.439 . S
O377 C371 1.208 . S
O378 Cd379 2.223 . S
O378 C386 1.315 . S
Cd379 O378 2.223 . S
Cd379 O382 2.297 . S
Cd379 O383 2.439 . S
Cd379 O389 2.240 . S
Cd380 O381 2.240 . S
Cd380 O388 2.223 . S
Cd380 O390 2.297 . S
Cd380 O391 2.439 . S
O381 Cd380 2.240 . S
O381 C386 1.279 . S
O382 Cd379 2.297 . S
O382 C384 1.247 . S
O383 Cd379 2.439 . S
O383 C384 1.208 . S
C384 O382 1.247 . S
C384 O383 1.208 . S
C385 O390 1.247 . S
C385 O391 1.208 . S
C386 O378 1.315 . S
C386 O381 1.279 . S
C387 O388 1.315 . S
C387 O389 1.279 . S
O388 Cd380 2.223 . S
O388 C387 1.315 . S
O389 Cd379 2.240 . S
O389 C387 1.279 . S
O390 Cd380 2.297 . S
O390 C385 1.247 . S
O391 Cd380 2.439 . S
O391 C385 1.208 . S
O392 Cd393 2.223 . S
O392 C400 1.315 . S
Cd393 O392 2.223 . S
Cd393 O396 2.297 . S
Cd393 O397 2.439 . S
Cd393 O403 2.240 . S
Cd394 O395 2.240 . S
Cd394 O402 2.223 . S
Cd394 O404 2.297 . S
Cd394 O405 2.439 . S
O395 Cd394 2.240 . S
O395 C400 1.279 . S
O396 Cd393 2.297 . S
O396 C398 1.247 . S
O397 Cd393 2.439 . S
O397 C398 1.208 . S
C398 O396 1.247 . S
C398 O397 1.208 . S
C399 O404 1.247 . S
C399 O405 1.208 . S
C400 O392 1.315 . S
C400 O395 1.279 . S
C401 O402 1.315 . S
C401 O403 1.279 . S
O402 Cd394 2.223 . S
O402 C401 1.315 . S
O403 Cd393 2.240 . S
O403 C401 1.279 . S
O404 Cd394 2.297 . S
O404 C399 1.247 . S
O405 Cd394 2.439 . S
O405 C399 1.208 . S
O406 Cd407 2.223 . S
O406 C414 1.315 . S
Cd407 O406 2.223 . S
Cd407 O410 2.297 . S
Cd407 O411 2.439 . S
Cd407 O417 2.240 . S
Cd408 O409 2.240 . S
Cd408 O416 2.223 . S
Cd408 O418 2.297 . S
Cd408 O419 2.439 . S
O409 Cd408 2.240 . S
O409 C414 1.279 . S
O410 Cd407 2.297 . S
O410 C412 1.247 . S
O411 Cd407 2.439 . S
O411 C412 1.208 . S
C412 O410 1.247 . S
C412 O411 1.208 . S
C413 O418 1.247 . S
C413 O419 1.208 . S
C414 O406 1.315 . S
C414 O409 1.279 . S
C415 O416 1.315 . S
C415 O417 1.279 . S
O416 Cd408 2.223 . S
O416 C415 1.315 . S
O417 Cd407 2.240 . S
O417 C415 1.279 . S
O418 Cd408 2.297 . S
O418 C413 1.247 . S
O419 Cd408 2.439 . S
O419 C413 1.208 . S
O420 Cd421 2.223 . S
O420 C428 1.315 . S
Cd421 O420 2.223 . S
Cd421 O424 2.297 . S
Cd421 O425 2.439 . S
Cd421 O431 2.240 . S
Cd422 O423 2.240 . S
Cd422 O430 2.223 . S
Cd422 O432 2.297 . S
Cd422 O433 2.439 . S
O423 Cd422 2.240 . S
O423 C428 1.279 . S
O424 Cd421 2.297 . S
O424 C426 1.247 . S
O425 Cd421 2.439 . S
O425 C426 1.208 . S
C426 O424 1.247 . S
C426 O425 1.208 . S
C427 O432 1.247 . S
C427 O433 1.208 . S
C428 O420 1.315 . S
C428 O423 1.279 . S
C429 O430 1.315 . S
C429 O431 1.279 . S
O430 Cd422 2.223 . S
O430 C429 1.315 . S
O431 Cd421 2.240 . S
O431 C429 1.279 . S
O432 Cd422 2.297 . S
O432 C427 1.247 . S
O433 Cd422 2.439 . S
O433 C427 1.208 . S
O434 Cd435 2.223 . S
O434 C442 1.315 . S
Cd435 O434 2.223 . S
Cd435 O438 2.297 . S
Cd435 O439 2.439 . S
Cd435 O445 2.240 . S
Cd436 O437 2.240 . S
Cd436 O444 2.223 . S
Cd436 O446 2.297 . S
Cd436 O447 2.439 . S
O437 Cd436 2.240 . S
O437 C442 1.279 . S
O438 Cd435 2.297 . S
O438 C440 1.247 . S
O439 Cd435 2.439 . S
O439 C440 1.208 . S
C440 O438 1.247 . S
C440 O439 1.208 . S
C441 O446 1.247 . S
C441 O447 1.208 . S
C442 O434 1.315 . S
C442 O437 1.279 . S
C443 O444 1.315 . S
C443 O445 1.279 . S
O444 Cd436 2.223 . S
O444 C443 1.315 . S
O445 Cd435 2.240 . S
O445 C443 1.279 . S
O446 Cd436 2.297 . S
O446 C441 1.247 . S
O447 Cd436 2.439 . S
O447 C441 1.208 . S
O448 Cd449 2.223 . S
O448 C456 1.315 . S
Cd449 O448 2.223 . S
Cd449 O452 2.297 . S
Cd449 O453 2.439 . S
Cd449 O459 2.240 . S
Cd450 O451 2.240 . S
Cd450 O458 2.223 . S
Cd450 O460 2.297 . S
Cd450 O461 2.439 . S
O451 Cd450 2.240 . S
O451 C456 1.279 . S
O452 Cd449 2.297 . S
O452 C454 1.247 . S
O453 Cd449 2.439 . S
O453 C454 1.208 . S
C454 O452 1.247 . S
C454 O453 1.208 . S
C455 O460 1.247 . S
C455 O461 1.208 . S
C456 O448 1.315 . S
C456 O451 1.279 . S
C457 O458 1.315 . S
C457 O459 1.279 . S
O458 Cd450 2.223 . S
O458 C457 1.315 . S
O459 Cd449 2.240 . S
O459 C457 1.279 . S
O460 Cd450 2.297 . S
O460 C455 1.247 . S
O461 Cd450 2.439 . S
O461 C455 1.208 . S
O462 Cd463 2.223 . S
O462 C470 1.315 . S
Cd463 O462 2.223 . S
Cd463 O466 2.297 . S
Cd463 O467 2.439 . S
Cd463 O473 2.240 . S
Cd464 O465 2.240 . S
Cd464 O472 2.223 . S
Cd464 O474 2.297 . S
Cd464 O475 2.439 . S
O465 Cd464 2.240 . S
O465 C470 1.279 . S
O466 Cd463 2.297 . S
O466 C468 1.247 . S
O467 Cd463 2.439 . S
O467 C468 1.208 . S
C468 O466 1.247 . S
C468 O467 1.208 . S
C469 O474 1.247 . S
C469 O475 1.208 . S
C470 O462 1.315 . S
C470 O465 1.279 . S
C471 O472 1.315 . S
C471 O473 1.279 . S
O472 Cd464 2.223 . S
O472 C471 1.315 . S
O473 Cd463 2.240 . S
O473 C471 1.279 . S
O474 Cd464 2.297 . S
O474 C469 1.247 . S
O475 Cd464 2.439 . S
O475 C469 1.208 . S
O476 Cd477 2.223 . S
O476 C484 1.315 . S
Cd477 O476 2.223 . S
Cd477 O480 2.297 . S
Cd477 O481 2.439 . S
Cd477 O487 2.240 . S
Cd478 O479 2.240 . S
Cd478 O486 2.223 . S
Cd478 O488 2.297 . S
Cd478 O489 2.439 . S
O479 Cd478 2.240 . S
O479 C484 1.279 . S
O480 Cd477 2.297 . S
O480 C482 1.247 . S
O481 Cd477 2.439 . S
O481 C482 1.208 . S
C482 O480 1.247 . S
C482 O481 1.208 . S
C483 O488 1.247 . S
C483 O489 1.208 . S
C484 O476 1.315 . S
C484 O479 1.279 . S
C485 O486 1.315 . S
C485 O487 1.279 . S
O486 Cd478 2.223 . S
O486 C485 1.315 . S
O487 Cd477 2.240 . S
O487 C485 1.279 . S
O488 Cd478 2.297 . S
O488 C483 1.247 . S
O489 Cd478 2.439 . S
O489 C483 1.208 . S
O490 Cd491 2.223 . S
O490 C498 1.315 . S
Cd491 O490 2.223 . S
Cd491 O494 2.297 . S
Cd491 O495 2.439 . S
Cd491 O501 2.240 . S
Cd492 O493 2.240 . S
Cd492 O500 2.223 . S
Cd492 O502 2.297 . S
Cd492 O503 2.439 . S
O493 Cd492 2.240 . S
O493 C498 1.279 . S
O494 Cd491 2.297 . S
O494 C496 1.247 . S
O495 Cd491 2.439 . S
O495 C496 1.208 . S
C496 O494 1.247 . S
C496 O495 1.208 . S
C497 O502 1.247 . S
C497 O503 1.208 . S
C498 O490 1.315 . S
C498 O493 1.279 . S
C499 O500 1.315 . S
C499 O501 1.279 . S
O500 Cd492 2.223 . S
O500 C499 1.315 . S
O501 Cd491 2.240 . S
O501 C499 1.279 . S
O502 Cd492 2.297 . S
O502 C497 1.247 . S
O503 Cd492 2.439 . S
O503 C497 1.208 . S
O504 Cd505 2.223 . S
O504 C512 1.315 . S
Cd505 O504 2.223 . S
Cd505 O508 2.297 . S
Cd505 O509 2.439 . S
Cd505 O515 2.240 . S
Cd506 O507 2.240 . S
Cd506 O514 2.223 . S
Cd506 O516 2.297 . S
Cd506 O517 2.439 . S
O507 Cd506 2.240 . S
O507 C512 1.279 . S
O508 Cd505 2.297 . S
O508 C510 1.247 . S
O509 Cd505 2.439 . S
O509 C510 1.208 . S
C510 O508 1.247 . S
C510 O509 1.208 . S
C511 O516 1.247 . S
C511 O517 1.208 . S
C512 O504 1.315 . S
C512 O507 1.279 . S
C513 O514 1.315 . S
C513 O515 1.279 . S
O514 Cd506 2.223 . S
O514 C513 1.315 . S
O515 Cd505 2.240 . S
O515 C513 1.279 . S
O516 Cd506 2.297 . S
O516 C511 1.247 . S
O517 Cd506 2.439 . S
O517 C511 1.208 . S
O518 Cd519 2.223 . S
O518 C526 1.315 . S
Cd519 O518 2.223 . S
Cd519 O522 2.297 . S
Cd519 O523 2.439 . S
Cd519 O529 2.240 . S
Cd520 O521 2.240 . S
Cd520 O528 2.223 . S
Cd520 O530 2.297 . S
Cd520 O531 2.439 . S
O521 Cd520 2.240 . S
O521 C526 1.279 . S
O522 Cd519 2.297 . S
O522 C524 1.247 . S
O523 Cd519 2.439 . S
O523 C524 1.208 . S
C524 O522 1.247 . S
C524 O523 1.208 . S
C525 O530 1.247 . S
C525 O531 1.208 . S
C526 O518 1.315 . S
C526 O521 1.279 . S
C527 O528 1.315 . S
C527 O529 1.279 . S
O528 Cd520 2.223 . S
O528 C527 1.315 . S
O529 Cd519 2.240 . S
O529 C527 1.279 . S
O530 Cd520 2.297 . S
O530 C525 1.247 . S
O531 Cd520 2.439 . S
O531 C525 1.208 . S
O532 Cd533 2.223 . S
O532 C540 1.315 . S
Cd533 O532 2.223 . S
Cd533 O536 2.297 . S
Cd533 O537 2.439 . S
Cd533 O543 2.240 . S
Cd534 O535 2.240 . S
Cd534 O542 2.223 . S
Cd534 O544 2.297 . S
Cd534 O545 2.439 . S
O535 Cd534 2.240 . S
O535 C540 1.279 . S
O536 Cd533 2.297 . S
O536 C538 1.247 . S
O537 Cd533 2.439 . S
O537 C538 1.208 . S
C538 O536 1.247 . S
C538 O537 1.208 . S
C539 O544 1.247 . S
C539 O545 1.208 . S
C540 O532 1.315 . S
C540 O535 1.279 . S
C541 O542 1.315 . S
C541 O543 1.279 . S
O542 Cd534 2.223 . S
O542 C541 1.315 . S
O543 Cd533 2.240 . S
O543 C541 1.279 . S
O544 Cd534 2.297 . S
O544 C539 1.247 . S
O545 Cd534 2.439 . S
O545 C539 1.208 . S
O546 Cd547 2.223 . S
O546 C554 1.315 . S
Cd547 O546 2.223 . S
Cd547 O550 2.297 . S
Cd547 O551 2.439 . S
Cd547 O557 2.240 . S
Cd548 O549 2.240 . S
Cd548 O556 2.223 . S
Cd548 O558 2.297 . S
Cd548 O559 2.439 . S
O549 Cd548 2.240 . S
O549 C554 1.279 . S
O550 Cd547 2.297 . S
O550 C552 1.247 . S
O551 Cd547 2.439 . S
O551 C552 1.208 . S
C552 O550 1.247 . S
C552 O551 1.208 . S
C553 O558 1.247 . S
C553 O559 1.208 . S
C554 O546 1.315 . S
C554 O549 1.279 . S
C555 O556 1.315 . S
C555 O557 1.279 . S
O556 Cd548 2.223 . S
O556 C555 1.315 . S
O557 Cd547 2.240 . S
O557 C555 1.279 . S
O558 Cd548 2.297 . S
O558 C553 1.247 . S
O559 Cd548 2.439 . S
O559 C553 1.208 . S
O560 Cd561 2.223 . S
O560 C568 1.315 . S
Cd561 O560 2.223 . S
Cd561 O564 2.297 . S
Cd561 O565 2.439 . S
Cd561 O571 2.240 . S
Cd562 O563 2.240 . S
Cd562 O570 2.223 . S
Cd562 O572 2.297 . S
Cd562 O573 2.439 . S
O563 Cd562 2.240 . S
O563 C568 1.279 . S
O564 Cd561 2.297 . S
O564 C566 1.247 . S
O565 Cd561 2.439 . S
O565 C566 1.208 . S
C566 O564 1.247 . S
C566 O565 1.208 . S
C567 O572 1.247 . S
C567 O573 1.208 . S
C568 O560 1.315 . S
C568 O563 1.279 . S
C569 O570 1.315 . S
C569 O571 1.279 . S
O570 Cd562 2.223 . S
O570 C569 1.315 . S
O571 Cd561 2.240 . S
O571 C569 1.279 . S
O572 Cd562 2.297 . S
O572 C567 1.247 . S
O573 Cd562 2.439 . S
O573 C567 1.208 . S
O574 Cd575 2.223 . S
O574 C582 1.315 . S
Cd575 O574 2.223 . S
Cd575 O578 2.297 . S
Cd575 O579 2.439 . S
Cd575 O585 2.240 . S
Cd576 O577 2.240 . S
Cd576 O584 2.223 . S
Cd576 O586 2.297 . S
Cd576 O587 2.439 . S
O577 Cd576 2.240 . S
O577 C582 1.279 . S
O578 Cd575 2.297 . S
O578 C580 1.247 . S
O579 Cd575 2.439 . S
O579 C580 1.208 . S
C580 O578 1.247 . S
C580 O579 1.208 . S
C581 O586 1.247 . S
C581 O587 1.208 . S
C582 O574 1.315 . S
C582 O577 1.279 . S
C583 O584 1.315 . S
C583 O585 1.279 . S
O584 Cd576 2.223 . S
O584 C583 1.315 . S
O585 Cd575 2.240 . S
O585 C583 1.279 . S
O586 Cd576 2.297 . S
O586 C581 1.247 . S
O587 Cd576 2.439 . S
O587 C581 1.208 . S
O588 Cd589 2.223 . S
O588 C596 1.315 . S
Cd589 O588 2.223 . S
Cd589 O592 2.297 . S
Cd589 O593 2.439 . S
Cd589 O599 2.240 . S
Cd590 O591 2.240 . S
Cd590 O598 2.223 . S
Cd590 O600 2.297 . S
Cd590 O601 2.439 . S
O591 Cd590 2.240 . S
O591 C596 1.279 . S
O592 Cd589 2.297 . S
O592 C594 1.247 . S
O593 Cd589 2.439 . S
O593 C594 1.208 . S
C594 O592 1.247 . S
C594 O593 1.208 . S
C595 O600 1.247 . S
C595 O601 1.208 . S
C596 O588 1.315 . S
C596 O591 1.279 . S
C597 O598 1.315 . S
C597 O599 1.279 . S
O598 Cd590 2.223 . S
O598 C597 1.315 . S
O599 Cd589 2.240 . S
O599 C597 1.279 . S
O600 Cd590 2.297 . S
O600 C595 1.247 . S
O601 Cd590 2.439 . S
O601 C595 1.208 . S
O602 Cd603 2.223 . S
O602 C610 1.315 . S
Cd603 O602 2.223 . S
Cd603 O606 2.297 . S
Cd603 O607 2.439 . S
Cd603 O613 2.240 . S
Cd604 O605 2.240 . S
Cd604 O612 2.223 . S
Cd604 O614 2.297 . S
Cd604 O615 2.439 . S
O605 Cd604 2.240 . S
O605 C610 1.279 . S
O606 Cd603 2.297 . S
O606 C608 1.247 . S
O607 Cd603 2.439 . S
O607 C608 1.208 . S
C608 O606 1.247 . S
C608 O607 1.208 . S
C609 O614 1.247 . S
C609 O615 1.208 . S
C610 O602 1.315 . S
C610 O605 1.279 . S
C611 O612 1.315 . S
C611 O613 1.279 . S
O612 Cd604 2.223 . S
O612 C611 1.315 . S
O613 Cd603 2.240 . S
O613 C611 1.279 . S
O614 Cd604 2.297 . S
O614 C609 1.247 . S
O615 Cd604 2.439 . S
O615 C609 1.208 . S
O616 Cd617 2.223 . S
O616 C624 1.315 . S
Cd617 O616 2.223 . S
Cd617 O620 2.297 . S
Cd617 O621 2.439 . S
Cd617 O627 2.240 . S
Cd618 O619 2.240 . S
Cd618 O626 2.223 . S
Cd618 O628 2.297 . S
Cd618 O629 2.439 . S
O619 Cd618 2.240 . S
O619 C624 1.279 . S
O620 Cd617 2.297 . S
O620 C622 1.247 . S
O621 Cd617 2.439 . S
O621 C622 1.208 . S
C622 O620 1.247 . S
C622 O621 1.208 . S
C623 O628 1.247 . S
C623 O629 1.208 . S
C624 O616 1.315 . S
C624 O619 1.279 . S
C625 O626 1.315 . S
C625 O627 1.279 . S
O626 Cd618 2.223 . S
O626 C625 1.315 . S
O627 Cd617 2.240 . S
O627 C625 1.279 . S
O628 Cd618 2.297 . S
O628 C623 1.247 . S
O629 Cd618 2.439 . S
O629 C623 1.208 . S
O630 Cd631 2.223 . S
O630 C638 1.315 . S
Cd631 O630 2.223 . S
Cd631 O634 2.297 . S
Cd631 O635 2.439 . S
Cd631 O641 2.240 . S
Cd632 O633 2.240 . S
Cd632 O640 2.223 . S
Cd632 O642 2.297 . S
Cd632 O643 2.439 . S
O633 Cd632 2.240 . S
O633 C638 1.279 . S
O634 Cd631 2.297 . S
O634 C636 1.247 . S
O635 Cd631 2.439 . S
O635 C636 1.208 . S
C636 O634 1.247 . S
C636 O635 1.208 . S
C637 O642 1.247 . S
C637 O643 1.208 . S
C638 O630 1.315 . S
C638 O633 1.279 . S
C639 O640 1.315 . S
C639 O641 1.279 . S
O640 Cd632 2.223 . S
O640 C639 1.315 . S
O641 Cd631 2.240 . S
O641 C639 1.279 . S
O642 Cd632 2.297 . S
O642 C637 1.247 . S
O643 Cd632 2.439 . S
O643 C637 1.208 . S
O644 Cd645 2.223 . S
O644 C652 1.315 . S
Cd645 O644 2.223 . S
Cd645 O648 2.297 . S
Cd645 O649 2.439 . S
Cd645 O655 2.240 . S
Cd646 O647 2.240 . S
Cd646 O654 2.223 . S
Cd646 O656 2.297 . S
Cd646 O657 2.439 . S
O647 Cd646 2.240 . S
O647 C652 1.279 . S
O648 Cd645 2.297 . S
O648 C650 1.247 . S
O649 Cd645 2.439 . S
O649 C650 1.208 . S
C650 O648 1.247 . S
C650 O649 1.208 . S
C651 O656 1.247 . S
C651 O657 1.208 . S
C652 O644 1.315 . S
C652 O647 1.279 . S
C653 O654 1.315 . S
C653 O655 1.279 . S
O654 Cd646 2.223 . S
O654 C653 1.315 . S
O655 Cd645 2.240 . S
O655 C653 1.279 . S
O656 Cd646 2.297 . S
O656 C651 1.247 . S
O657 Cd646 2.439 . S
O657 C651 1.208 . S
O658 Cd659 2.223 . S
O658 C666 1.315 . S
Cd659 O658 2.223 . S
Cd659 O662 2.297 . S
Cd659 O663 2.439 . S
Cd659 O669 2.240 . S
Cd660 O661 2.240 . S
Cd660 O668 2.223 . S
Cd660 O670 2.297 . S
Cd660 O671 2.439 . S
O661 Cd660 2.240 . S
O661 C666 1.279 . S
O662 Cd659 2.297 . S
O662 C664 1.247 . S
O663 Cd659 2.439 . S
O663 C664 1.208 . S
C664 O662 1.247 . S
C664 O663 1.208 . S
C665 O670 1.247 . S
C665 O671 1.208 . S
C666 O658 1.315 . S
C666 O661 1.279 . S
C667 O668 1.315 . S
C667 O669 1.279 . S
O668 Cd660 2.223 . S
O668 C667 1.315 . S
O669 Cd659 2.240 . S
O669 C667 1.279 . S
O670 Cd660 2.297 . S
O670 C665 1.247 . S
O671 Cd660 2.439 . S
O671 C665 1.208 . S
O672 Cd673 2.223 . S
O672 C680 1.315 . S
Cd673 O672 2.223 . S
Cd673 O676 2.297 . S
Cd673 O677 2.439 . S
Cd673 O683 2.240 . S
Cd674 O675 2.240 . S
Cd674 O682 2.223 . S
Cd674 O684 2.297 . S
Cd674 O685 2.439 . S
O675 Cd674 2.240 . S
O675 C680 1.279 . S
O676 Cd673 2.297 . S
O676 C678 1.247 . S
O677 Cd673 2.439 . S
O677 C678 1.208 . S
C678 O676 1.247 . S
C678 O677 1.208 . S
C679 O684 1.247 . S
C679 O685 1.208 . S
C680 O672 1.315 . S
C680 O675 1.279 . S
C681 O682 1.315 . S
C681 O683 1.279 . S
O682 Cd674 2.223 . S
O682 C681 1.315 . S
O683 Cd673 2.240 . S
O683 C681 1.279 . S
O684 Cd674 2.297 . S
O684 C679 1.247 . S
O685 Cd674 2.439 . S
O685 C679 1.208 . S
O686 Cd687 2.223 . S
O686 C694 1.315 . S
Cd687 O686 2.223 . S
Cd687 O690 2.297 . S
Cd687 O691 2.439 . S
Cd687 O697 2.240 . S
Cd688 O689 2.240 . S
Cd688 O696 2.223 . S
Cd688 O698 2.297 . S
Cd688 O699 2.439 . S
O689 Cd688 2.240 . S
O689 C694 1.279 . S
O690 Cd687 2.297 . S
O690 C692 1.247 . S
O691 Cd687 2.439 . S
O691 C692 1.208 . S
C692 O690 1.247 . S
C692 O691 1.208 . S
C693 O698 1.247 . S
C693 O699 1.208 . S
C694 O686 1.315 . S
C694 O689 1.279 . S
C695 O696 1.315 . S
C695 O697 1.279 . S
O696 Cd688 2.223 . S
O696 C695 1.315 . S
O697 Cd687 2.240 . S
O697 C695 1.279 . S
O698 Cd688 2.297 . S
O698 C693 1.247 . S
O699 Cd688 2.439 . S
O699 C693 1.208 . S
O700 Cd701 2.223 . S
O700 C708 1.315 . S
Cd701 O700 2.223 . S
Cd701 O704 2.297 . S
Cd701 O705 2.439 . S
Cd701 O711 2.240 . S
Cd702 O703 2.240 . S
Cd702 O710 2.223 . S
Cd702 O712 2.297 . S
Cd702 O713 2.439 . S
O703 Cd702 2.240 . S
O703 C708 1.279 . S
O704 Cd701 2.297 . S
O704 C706 1.247 . S
O705 Cd701 2.439 . S
O705 C706 1.208 . S
C706 O704 1.247 . S
C706 O705 1.208 . S
C707 O712 1.247 . S
C707 O713 1.208 . S
C708 O700 1.315 . S
C708 O703 1.279 . S
C709 O710 1.315 . S
C709 O711 1.279 . S
O710 Cd702 2.223 . S
O710 C709 1.315 . S
O711 Cd701 2.240 . S
O711 C709 1.279 . S
O712 Cd702 2.297 . S
O712 C707 1.247 . S
O713 Cd702 2.439 . S
O713 C707 1.208 . S
O714 Cd715 2.223 . S
O714 C722 1.315 . S
Cd715 O714 2.223 . S
Cd715 O718 2.297 . S
Cd715 O719 2.439 . S
Cd715 O725 2.240 . S
Cd716 O717 2.240 . S
Cd716 O724 2.223 . S
Cd716 O726 2.297 . S
Cd716 O727 2.439 . S
O717 Cd716 2.240 . S
O717 C722 1.279 . S
O718 Cd715 2.297 . S
O718 C720 1.247 . S
O719 Cd715 2.439 . S
O719 C720 1.208 . S
C720 O718 1.247 . S
C720 O719 1.208 . S
C721 O726 1.247 . S
C721 O727 1.208 . S
C722 O714 1.315 . S
C722 O717 1.279 . S
C723 O724 1.315 . S
C723 O725 1.279 . S
O724 Cd716 2.223 . S
O724 C723 1.315 . S
O725 Cd715 2.240 . S
O725 C723 1.279 . S
O726 Cd716 2.297 . S
O726 C721 1.247 . S
O727 Cd716 2.439 . S
O727 C721 1.208 . S
O728 Cd729 2.223 . S
O728 C736 1.315 . S
Cd729 O728 2.223 . S
Cd729 O732 2.297 . S
Cd729 O733 2.439 . S
Cd729 O739 2.240 . S
Cd730 O731 2.240 . S
Cd730 O738 2.223 . S
Cd730 O740 2.297 . S
Cd730 O741 2.439 . S
O731 Cd730 2.240 . S
O731 C736 1.279 . S
O732 Cd729 2.297 . S
O732 C734 1.247 . S
O733 Cd729 2.439 . S
O733 C734 1.208 . S
C734 O732 1.247 . S
C734 O733 1.208 . S
C735 O740 1.247 . S
C735 O741 1.208 . S
C736 O728 1.315 . S
C736 O731 1.279 . S
C737 O738 1.315 . S
C737 O739 1.279 . S
O738 Cd730 2.223 . S
O738 C737 1.315 . S
O739 Cd729 2.240 . S
O739 C737 1.279 . S
O740 Cd730 2.297 . S
O740 C735 1.247 . S
O741 Cd730 2.439 . S
O741 C735 1.208 . S
O742 Cd743 2.223 . S
O742 C750 1.315 . S
Cd743 O742 2.223 . S
Cd743 O746 2.297 . S
Cd743 O747 2.439 . S
Cd743 O753 2.240 . S
Cd744 O745 2.240 . S
Cd744 O752 2.223 . S
Cd744 O754 2.297 . S
Cd744 O755 2.439 . S
O745 Cd744 2.240 . S
O745 C750 1.279 . S
O746 Cd743 2.297 . S
O746 C748 1.247 . S
O747 Cd743 2.439 . S
O747 C748 1.208 . S
C748 O746 1.247 . S
C748 O747 1.208 . S
C749 O754 1.247 . S
C749 O755 1.208 . S
C750 O742 1.315 . S
C750 O745 1.279 . S
C751 O752 1.315 . S
C751 O753 1.279 . S
O752 Cd744 2.223 . S
O752 C751 1.315 . S
O753 Cd743 2.240 . S
O753 C751 1.279 . S
O754 Cd744 2.297 . S
O754 C749 1.247 . S
O755 Cd744 2.439 . S
O755 C749 1.208 . S
O756 Cd757 2.223 . S
O756 C764 1.315 . S
Cd757 O756 2.223 . S
Cd757 O760 2.297 . S
Cd757 O761 2.439 . S
Cd757 O767 2.240 . S
Cd758 O759 2.240 . S
Cd758 O766 2.223 . S
Cd758 O768 2.297 . S
Cd758 O769 2.439 . S
O759 Cd758 2.240 . S
O759 C764 1.279 . S
O760 Cd757 2.297 . S
O760 C762 1.247 . S
O761 Cd757 2.439 . S
O761 C762 1.208 . S
C762 O760 1.247 . S
C762 O761 1.208 . S
C763 O768 1.247 . S
C763 O769 1.208 . S
C764 O756 1.315 . S
C764 O759 1.279 . S
C765 O766 1.315 . S
C765 O767 1.279 . S
O766 Cd758 2.223 . S
O766 C765 1.315 . S
O767 Cd757 2.240 . S
O767 C765 1.279 . S
O768 Cd758 2.297 . S
O768 C763 1.247 . S
O769 Cd758 2.439 . S
O769 C763 1.208 . S
O770 Cd771 2.223 . S
O770 C778 1.315 . S
Cd771 O770 2.223 . S
Cd771 O774 2.297 . S
Cd771 O775 2.439 . S
Cd771 O781 2.240 . S
Cd772 O773 2.240 . S
Cd772 O780 2.223 . S
Cd772 O782 2.297 . S
Cd772 O783 2.439 . S
O773 Cd772 2.240 . S
O773 C778 1.279 . S
O774 Cd771 2.297 . S
O774 C776 1.247 . S
O775 Cd771 2.439 . S
O775 C776 1.208 . S
C776 O774 1.247 . S
C776 O775 1.208 . S
C777 O782 1.247 . S
C777 O783 1.208 . S
C778 O770 1.315 . S
C778 O773 1.279 . S
C779 O780 1.315 . S
C779 O781 1.279 . S
O780 Cd772 2.223 . S
O780 C779 1.315 . S
O781 Cd771 2.240 . S
O781 C779 1.279 . S
O782 Cd772 2.297 . S
O782 C777 1.247 . S
O783 Cd772 2.439 . S
O783 C777 1.208 . S
O784 Cd785 2.223 . S
O784 C792 1.315 . S
Cd785 O784 2.223 . S
Cd785 O788 2.297 . S
Cd785 O789 2.439 . S
Cd785 O795 2.240 . S
Cd786 O787 2.240 . S
Cd786 O794 2.223 . S
Cd786 O796 2.297 . S
Cd786 O797 2.439 . S
O787 Cd786 2.240 . S
O787 C792 1.279 . S
O788 Cd785 2.297 . S
O788 C790 1.247 . S
O789 Cd785 2.439 . S
O789 C790 1.208 . S
C790 O788 1.247 . S
C790 O789 1.208 . S
C791 O796 1.247 . S
C791 O797 1.208 . S
C792 O784 1.315 . S
C792 O787 1.279 . S
C793 O794 1.315 . S
C793 O795 1.279 . S
O794 Cd786 2.223 . S
O794 C793 1.315 . S
O795 Cd785 2.240 . S
O795 C793 1.279 . S
O796 Cd786 2.297 . S
O796 C791 1.247 . S
O797 Cd786 2.439 . S
O797 C791 1.208 . S
O798 Cd799 2.223 . S
O798 C806 1.315 . S
Cd799 O798 2.223 . S
Cd799 O802 2.297 . S
Cd799 O803 2.439 . S
Cd799 O809 2.240 . S
Cd800 O801 2.240 . S
Cd800 O808 2.223 . S
Cd800 O810 2.297 . S
Cd800 O811 2.439 . S
O801 Cd800 2.240 . S
O801 C806 1.279 . S
O802 Cd799 2.297 . S
O802 C804 1.247 . S
O803 Cd799 2.439 . S
O803 C804 1.208 . S
C804 O802 1.247 . S
C804 O803 1.208 . S
C805 O810 1.247 . S
C805 O811 1.208 . S
C806 O798 1.315 . S
C806 O801 1.279 . S
C807 O808 1.315 . S
C807 O809 1.279 . S
O808 Cd800 2.223 . S
O808 C807 1.315 . S
O809 Cd799 2.240 . S
O809 C807 1.279 . S
O810 Cd800 2.297 . S
O810 C805 1.247 . S
O811 Cd800 2.439 . S
O811 C805 1.208 . S
O812 Cd813 2.223 . S
O812 C820 1.315 . S
Cd813 O812 2.223 . S
Cd813 O816 2.297 . S
Cd813 O817 2.439 . S
Cd813 O823 2.240 . S
Cd814 O815 2.240 . S
Cd814 O822 2.223 . S
Cd814 O824 2.297 . S
Cd814 O825 2.439 . S
O815 Cd814 2.240 . S
O815 C820 1.279 . S
O816 Cd813 2.297 . S
O816 C818 1.247 . S
O817 Cd813 2.439 . S
O817 C818 1.208 . S
C818 O816 1.247 . S
C818 O817 1.208 . S
C819 O824 1.247 . S
C819 O825 1.208 . S
C820 O812 1.315 . S
C820 O815 1.279 . S
C821 O822 1.315 . S
C821 O823 1.279 . S
O822 Cd814 2.223 . S
O822 C821 1.315 . S
O823 Cd813 2.240 . S
O823 C821 1.279 . S
O824 Cd814 2.297 . S
O824 C819 1.247 . S
O825 Cd814 2.439 . S
O825 C819 1.208 . S
O826 Cd827 2.223 . S
O826 C834 1.315 . S
Cd827 O826 2.223 . S
Cd827 O830 2.297 . S
Cd827 O831 2.439 . S
Cd827 O837 2.240 . S
Cd828 O829 2.240 . S
Cd828 O836 2.223 . S
Cd828 O838 2.297 . S
Cd828 O839 2.439 . S
O829 Cd828 2.240 . S
O829 C834 1.279 . S
O830 Cd827 2.297 . S
O830 C832 1.247 . S
O831 Cd827 2.439 . S
O831 C832 1.208 . S
C832 O830 1.247 . S
C832 O831 1.208 . S
C833 O838 1.247 . S
C833 O839 1.208 . S
C834 O826 1.315 . S
C834 O829 1.279 . S
C835 O836 1.315 . S
C835 O837 1.279 . S
O836 Cd828 2.223 . S
O836 C835 1.315 . S
O837 Cd827 2.240 . S
O837 C835 1.279 . S
O838 Cd828 2.297 . S
O838 C833 1.247 . S
O839 Cd828 2.439 . S
O839 C833 1.208 . S
O840 Cd841 2.223 . S
O840 C848 1.315 . S
Cd841 O840 2.223 . S
Cd841 O844 2.297 . S
Cd841 O845 2.439 . S
Cd841 O851 2.240 . S
Cd842 O843 2.240 . S
Cd842 O850 2.223 . S
Cd842 O852 2.297 . S
Cd842 O853 2.439 . S
O843 Cd842 2.240 . S
O843 C848 1.279 . S
O844 Cd841 2.297 . S
O844 C846 1.247 . S
O845 Cd841 2.439 . S
O845 C846 1.208 . S
C846 O844 1.247 . S
C846 O845 1.208 . S
C847 O852 1.247 . S
C847 O853 1.208 . S
C848 O840 1.315 . S
C848 O843 1.279 . S
C849 O850 1.315 . S
C849 O851 1.279 . S
O850 Cd842 2.223 . S
O850 C849 1.315 . S
O851 Cd841 2.240 . S
O851 C849 1.279 . S
O852 Cd842 2.297 . S
O852 C847 1.247 . S
O853 Cd842 2.439 . S
O853 C847 1.208 . S
O854 Cd855 2.223 . S
O854 C862 1.315 . S
Cd855 O854 2.223 . S
Cd855 O858 2.297 . S
Cd855 O859 2.439 . S
Cd855 O865 2.240 . S
Cd856 O857 2.240 . S
Cd856 O864 2.223 . S
Cd856 O866 2.297 . S
Cd856 O867 2.439 . S
O857 Cd856 2.240 . S
O857 C862 1.279 . S
O858 Cd855 2.297 . S
O858 C860 1.247 . S
O859 Cd855 2.439 . S
O859 C860 1.208 . S
C860 O858 1.247 . S
C860 O859 1.208 . S
C861 O866 1.247 . S
C861 O867 1.208 . S
C862 O854 1.315 . S
C862 O857 1.279 . S
C863 O864 1.315 . S
C863 O865 1.279 . S
O864 Cd856 2.223 . S
O864 C863 1.315 . S
O865 Cd855 2.240 . S
O865 C863 1.279 . S
O866 Cd856 2.297 . S
O866 C861 1.247 . S
O867 Cd856 2.439 . S
O867 C861 1.208 . S
O868 Cd869 2.223 . S
O868 C876 1.315 . S
Cd869 O868 2.223 . S
Cd869 O872 2.297 . S
Cd869 O873 2.439 . S
Cd869 O879 2.240 . S
Cd870 O871 2.240 . S
Cd870 O878 2.223 . S
Cd870 O880 2.297 . S
Cd870 O881 2.439 . S
O871 Cd870 2.240 . S
O871 C876 1.279 . S
O872 Cd869 2.297 . S
O872 C874 1.247 . S
O873 Cd869 2.439 . S
O873 C874 1.208 . S
C874 O872 1.247 . S
C874 O873 1.208 . S
C875 O880 1.247 . S
C875 O881 1.208 . S
C876 O868 1.315 . S
C876 O871 1.279 . S
C877 O878 1.315 . S
C877 O879 1.279 . S
O878 Cd870 2.223 . S
O878 C877 1.315 . S
O879 Cd869 2.240 . S
O879 C877 1.279 . S
O880 Cd870 2.297 . S
O880 C875 1.247 . S
O881 Cd870 2.439 . S
O881 C875 1.208 . S
O882 Cd883 2.223 . S
O882 C890 1.315 . S
Cd883 O882 2.223 . S
Cd883 O886 2.297 . S
Cd883 O887 2.439 . S
Cd883 O893 2.240 . S
Cd884 O885 2.240 . S
Cd884 O892 2.223 . S
Cd884 O894 2.297 . S
Cd884 O895 2.439 . S
O885 Cd884 2.240 . S
O885 C890 1.279 . S
O886 Cd883 2.297 . S
O886 C888 1.247 . S
O887 Cd883 2.439 . S
O887 C888 1.208 . S
C888 O886 1.247 . S
C888 O887 1.208 . S
C889 O894 1.247 . S
C889 O895 1.208 . S
C890 O882 1.315 . S
C890 O885 1.279 . S
C891 O892 1.315 . S
C891 O893 1.279 . S
O892 Cd884 2.223 . S
O892 C891 1.315 . S
O893 Cd883 2.240 . S
O893 C891 1.279 . S
O894 Cd884 2.297 . S
O894 C889 1.247 . S
O895 Cd884 2.439 . S
O895 C889 1.208 . S
O896 Cd897 2.223 . S
O896 C904 1.315 . S
Cd897 O896 2.223 . S
Cd897 O900 2.297 . S
Cd897 O901 2.439 . S
Cd897 O907 2.240 . S
Cd898 O899 2.240 . S
Cd898 O906 2.223 . S
Cd898 O908 2.297 . S
Cd898 O909 2.439 . S
O899 Cd898 2.240 . S
O899 C904 1.279 . S
O900 Cd897 2.297 . S
O900 C902 1.247 . S
O901 Cd897 2.439 . S
O901 C902 1.208 . S
C902 O900 1.247 . S
C902 O901 1.208 . S
C903 O908 1.247 . S
C903 O909 1.208 . S
C904 O896 1.315 . S
C904 O899 1.279 . S
C905 O906 1.315 . S
C905 O907 1.279 . S
O906 Cd898 2.223 . S
O906 C905 1.315 . S
O907 Cd897 2.240 . S
O907 C905 1.279 . S
O908 Cd898 2.297 . S
O908 C903 1.247 . S
O909 Cd898 2.439 . S
O909 C903 1.208 . S
O910 Cd911 2.223 . S
O910 C918 1.315 . S
Cd911 O910 2.223 . S
Cd911 O914 2.297 . S
Cd911 O915 2.439 . S
Cd911 O921 2.240 . S
Cd912 O913 2.240 . S
Cd912 O920 2.223 . S
Cd912 O922 2.297 . S
Cd912 O923 2.439 . S
O913 Cd912 2.240 . S
O913 C918 1.279 . S
O914 Cd911 2.297 . S
O914 C916 1.247 . S
O915 Cd911 2.439 . S
O915 C916 1.208 . S
C916 O914 1.247 . S
C916 O915 1.208 . S
C917 O922 1.247 . S
C917 O923 1.208 . S
C918 O910 1.315 . S
C918 O913 1.279 . S
C919 O920 1.315 . S
C919 O921 1.279 . S
O920 Cd912 2.223 . S
O920 C919 1.315 . S
O921 Cd911 2.240 . S
O921 C919 1.279 . S
O922 Cd912 2.297 . S
O922 C917 1.247 . S
O923 Cd912 2.439 . S
O923 C917 1.208 . S
O924 Cd925 2.223 . S
O924 C932 1.315 . S
Cd925 O924 2.223 . S
Cd925 O928 2.297 . S
Cd925 O929 2.439 . S
Cd925 O935 2.240 . S
Cd926 O927 2.240 . S
Cd926 O934 2.223 . S
Cd926 O936 2.297 . S
Cd926 O937 2.439 . S
O927 Cd926 2.240 . S
O927 C932 1.279 . S
O928 Cd925 2.297 . S
O928 C930 1.247 . S
O929 Cd925 2.439 . S
O929 C930 1.208 . S
C930 O928 1.247 . S
C930 O929 1.208 . S
C931 O936 1.247 . S
C931 O937 1.208 . S
C932 O924 1.315 . S
C932 O927 1.279 . S
C933 O934 1.315 . S
C933 O935 1.279 . S
O934 Cd926 2.223 . S
O934 C933 1.315 . S
O935 Cd925 2.240 . S
O935 C933 1.279 . S
O936 Cd926 2.297 . S
O936 C931 1.247 . S
O937 Cd926 2.439 . S
O937 C931 1.208 . S
O938 Cd939 2.223 . S
O938 C946 1.315 . S
Cd939 O938 2.223 . S
Cd939 O942 2.297 . S
Cd939 O943 2.439 . S
Cd939 O949 2.240 . S
Cd940 O941 2.240 . S
Cd940 O948 2.223 . S
Cd940 O950 2.297 . S
Cd940 O951 2.439 . S
O941 Cd940 2.240 . S
O941 C946 1.279 . S
O942 Cd939 2.297 . S
O942 C944 1.247 . S
O943 Cd939 2.439 . S
O943 C944 1.208 . S
C944 O942 1.247 . S
C944 O943 1.208 . S
C945 O950 1.247 . S
C945 O951 1.208 . S
C946 O938 1.315 . S
C946 O941 1.279 . S
C947 O948 1.315 . S
C947 O949 1.279 . S
O948 Cd940 2.223 . S
O948 C947 1.315 . S
O949 Cd939 2.240 . S
O949 C947 1.279 . S
O950 Cd940 2.297 . S
O950 C945 1.247 . S
O951 Cd940 2.439 . S
O951 C945 1.208 . S
O952 Cd953 2.223 . S
O952 C960 1.315 . S
Cd953 O952 2.223 . S
Cd953 O956 2.297 . S
Cd953 O957 2.439 . S
Cd953 O963 2.240 . S
Cd954 O955 2.240 . S
Cd954 O962 2.223 . S
Cd954 O964 2.297 . S
Cd954 O965 2.439 . S
O955 Cd954 2.240 . S
O955 C960 1.279 . S
O956 Cd953 2.297 . S
O956 C958 1.247 . S
O957 Cd953 2.439 . S
O957 C958 1.208 . S
C958 O956 1.247 . S
C958 O957 1.208 . S
C959 O964 1.247 . S
C959 O965 1.208 . S
C960 O952 1.315 . S
C960 O955 1.279 . S
C961 O962 1.315 . S
C961 O963 1.279 . S
O962 Cd954 2.223 . S
O962 C961 1.315 . S
O963 Cd953 2.240 . S
O963 C961 1.279 . S
O964 Cd954 2.297 . S
O964 C959 1.247 . S
O965 Cd954 2.439 . S
O965 C959 1.208 . S
O966 Cd967 2.223 . S
O966 C974 1.315 . S
Cd967 O966 2.223 . S
Cd967 O970 2.297 . S
Cd967 O971 2.439 . S
Cd967 O977 2.240 . S
Cd968 O969 2.240 . S
Cd968 O976 2.223 . S
Cd968 O978 2.297 . S
Cd968 O979 2.439 . S
O969 Cd968 2.240 . S
O969 C974 1.279 . S
O970 Cd967 2.297 . S
O970 C972 1.247 . S
O971 Cd967 2.439 . S
O971 C972 1.208 . S
C972 O970 1.247 . S
C972 O971 1.208 . S
C973 O978 1.247 . S
C973 O979 1.208 . S
C974 O966 1.315 . S
C974 O969 1.279 . S
C975 O976 1.315 . S
C975 O977 1.279 . S
O976 Cd968 2.223 . S
O976 C975 1.315 . S
O977 Cd967 2.240 . S
O977 C975 1.279 . S
O978 Cd968 2.297 . S
O978 C973 1.247 . S
O979 Cd968 2.439 . S
O979 C973 1.208 . S
O980 Cd981 2.223 . S
O980 C988 1.315 . S
Cd981 O980 2.223 . S
Cd981 O984 2.297 . S
Cd981 O985 2.439 . S
Cd981 O991 2.240 . S
Cd982 O983 2.240 . S
Cd982 O990 2.223 . S
Cd982 O992 2.297 . S
Cd982 O993 2.439 . S
O983 Cd982 2.240 . S
O983 C988 1.279 . S
O984 Cd981 2.297 . S
O984 C986 1.247 . S
O985 Cd981 2.439 . S
O985 C986 1.208 . S
C986 O984 1.247 . S
C986 O985 1.208 . S
C987 O992 1.247 . S
C987 O993 1.208 . S
C988 O980 1.315 . S
C988 O983 1.279 . S
C989 O990 1.315 . S
C989 O991 1.279 . S
O990 Cd982 2.223 . S
O990 C989 1.315 . S
O991 Cd981 2.240 . S
O991 C989 1.279 . S
O992 Cd982 2.297 . S
O992 C987 1.247 . S
O993 Cd982 2.439 . S
O993 C987 1.208 . S
O994 Cd995 2.223 . S
O994 C1002 1.315 . S
Cd995 O994 2.223 . S
Cd995 O998 2.297 . S
Cd995 O999 2.439 . S
Cd995 O1005 2.240 . S
Cd996 O997 2.240 . S
Cd996 O1004 2.223 . S
Cd996 O1006 2.297 . S
Cd996 O1007 2.439 . S
O997 Cd996 2.240 . S
O997 C1002 1.279 . S
O998 Cd995 2.297 . S
O998 C1000 1.247 . S
O999 Cd995 2.439 . S
O999 C1000 1.208 . S
C1000 O998 1.247 . S
C1000 O999 1.208 . S
C1001 O1006 1.247 . S
C1001 O1007 1.208 . S
C1002 O994 1.315 . S
C1002 O997 1.279 . S
C1003 O1004 1.315 . S
C1003 O1005 1.279 . S
O1004 Cd996 2.223 . S
O1004 C1003 1.315 . S
O1005 Cd995 2.240 . S
O1005 C1003 1.279 . S
O1006 Cd996 2.297 . S
O1006 C1001 1.247 . S
O1007 Cd996 2.439 . S
O1007 C1001 1.208 . S
O1008 Cd1009 2.223 . S
O1008 C1016 1.315 . S
Cd1009 O1008 2.223 . S
Cd1009 O1012 2.297 . S
Cd1009 O1013 2.439 . S
Cd1009 O1019 2.240 . S
Cd1010 O1011 2.240 . S
Cd1010 O1018 2.223 . S
Cd1010 O1020 2.297 . S
Cd1010 O1021 2.439 . S
O1011 Cd1010 2.240 . S
O1011 C1016 1.279 . S
O1012 Cd1009 2.297 . S
O1012 C1014 1.247 . S
O1013 Cd1009 2.439 . S
O1013 C1014 1.208 . S
C1014 O1012 1.247 . S
C1014 O1013 1.208 . S
C1015 O1020 1.247 . S
C1015 O1021 1.208 . S
C1016 O1008 1.315 . S
C1016 O1011 1.279 . S
C1017 O1018 1.315 . S
C1017 O1019 1.279 . S
O1018 Cd1010 2.223 . S
O1018 C1017 1.315 . S
O1019 Cd1009 2.240 . S
O1019 C1017 1.279 . S
O1020 Cd1010 2.297 . S
O1020 C1015 1.247 . S
O1021 Cd1010 2.439 . S
O1021 C1015 1.208 . S
O1022 Cd1023 2.223 . S
O1022 C1030 1.315 . S
Cd1023 O1022 2.223 . S
Cd1023 O1026 2.297 . S
Cd1023 O1027 2.439 . S
Cd1023 O1033 2.240 . S
Cd1024 O1025 2.240 . S
Cd1024 O1032 2.223 . S
Cd1024 O1034 2.297 . S
Cd1024 O1035 2.439 . S
O1025 Cd1024 2.240 . S
O1025 C1030 1.279 . S
O1026 Cd1023 2.297 . S
O1026 C1028 1.247 . S
O1027 Cd1023 2.439 . S
O1027 C1028 1.208 . S
C1028 O1026 1.247 . S
C1028 O1027 1.208 . S
C1029 O1034 1.247 . S
C1029 O1035 1.208 . S
C1030 O1022 1.315 . S
C1030 O1025 1.279 . S
C1031 O1032 1.315 . S
C1031 O1033 1.279 . S
O1032 Cd1024 2.223 . S
O1032 C1031 1.315 . S
O1033 Cd1023 2.240 . S
O1033 C1031 1.279 . S
O1034 Cd1024 2.297 . S
O1034 C1029 1.247 . S
O1035 Cd1024 2.439 . S
O1035 C1029 1.208 . S
O1036 Cd1037 2.223 . S
O1036 C1044 1.315 . S
Cd1037 O1036 2.223 . S
Cd1037 O1040 2.297 . S
Cd1037 O1041 2.439 . S
Cd1037 O1047 2.240 . S
Cd1038 O1039 2.240 . S
Cd1038 O1046 2.223 . S
Cd1038 O1048 2.297 . S
Cd1038 O1049 2.439 . S
O1039 Cd1038 2.240 . S
O1039 C1044 1.279 . S
O1040 Cd1037 2.297 . S
O1040 C1042 1.247 . S
O1041 Cd1037 2.439 . S
O1041 C1042 1.208 . S
C1042 O1040 1.247 . S
C1042 O1041 1.208 . S
C1043 O1048 1.247 . S
C1043 O1049 1.208 . S
C1044 O1036 1.315 . S
C1044 O1039 1.279 . S
C1045 O1046 1.315 . S
C1045 O1047 1.279 . S
O1046 Cd1038 2.223 . S
O1046 C1045 1.315 . S
O1047 Cd1037 2.240 . S
O1047 C1045 1.279 . S
O1048 Cd1038 2.297 . S
O1048 C1043 1.247 . S
O1049 Cd1038 2.439 . S
O1049 C1043 1.208 . S
O1050 Cd1051 2.223 . S
O1050 C1058 1.315 . S
Cd1051 O1050 2.223 . S
Cd1051 O1054 2.297 . S
Cd1051 O1055 2.439 . S
Cd1051 O1061 2.240 . S
Cd1052 O1053 2.240 . S
Cd1052 O1060 2.223 . S
Cd1052 O1062 2.297 . S
Cd1052 O1063 2.439 . S
O1053 Cd1052 2.240 . S
O1053 C1058 1.279 . S
O1054 Cd1051 2.297 . S
O1054 C1056 1.247 . S
O1055 Cd1051 2.439 . S
O1055 C1056 1.208 . S
C1056 O1054 1.247 . S
C1056 O1055 1.208 . S
C1057 O1062 1.247 . S
C1057 O1063 1.208 . S
C1058 O1050 1.315 . S
C1058 O1053 1.279 . S
C1059 O1060 1.315 . S
C1059 O1061 1.279 . S
O1060 Cd1052 2.223 . S
O1060 C1059 1.315 . S
O1061 Cd1051 2.240 . S
O1061 C1059 1.279 . S
O1062 Cd1052 2.297 . S
O1062 C1057 1.247 . S
O1063 Cd1052 2.439 . S
O1063 C1057 1.208 . S
O1064 Cd1065 2.223 . S
O1064 C1072 1.315 . S
Cd1065 O1064 2.223 . S
Cd1065 O1068 2.297 . S
Cd1065 O1069 2.439 . S
Cd1065 O1075 2.240 . S
Cd1066 O1067 2.240 . S
Cd1066 O1074 2.223 . S
Cd1066 O1076 2.297 . S
Cd1066 O1077 2.439 . S
O1067 Cd1066 2.240 . S
O1067 C1072 1.279 . S
O1068 Cd1065 2.297 . S
O1068 C1070 1.247 . S
O1069 Cd1065 2.439 . S
O1069 C1070 1.208 . S
C1070 O1068 1.247 . S
C1070 O1069 1.208 . S
C1071 O1076 1.247 . S
C1071 O1077 1.208 . S
C1072 O1064 1.315 . S
C1072 O1067 1.279 . S
C1073 O1074 1.315 . S
C1073 O1075 1.279 . S
O1074 Cd1066 2.223 . S
O1074 C1073 1.315 . S
O1075 Cd1065 2.240 . S
O1075 C1073 1.279 . S
O1076 Cd1066 2.297 . S
O1076 C1071 1.247 . S
O1077 Cd1066 2.439 . S
O1077 C1071 1.208 . S
O1078 Cd1079 2.223 . S
O1078 C1086 1.315 . S
Cd1079 O1078 2.223 . S
Cd1079 O1082 2.297 . S
Cd1079 O1083 2.439 . S
Cd1079 O1089 2.240 . S
Cd1080 O1081 2.240 . S
Cd1080 O1088 2.223 . S
Cd1080 O1090 2.297 . S
Cd1080 O1091 2.439 . S
O1081 Cd1080 2.240 . S
O1081 C1086 1.279 . S
O1082 Cd1079 2.297 . S
O1082 C1084 1.247 . S
O1083 Cd1079 2.439 . S
O1083 C1084 1.208 . S
C1084 O1082 1.247 . S
C1084 O1083 1.208 . S
C1085 O1090 1.247 . S
C1085 O1091 1.208 . S
C1086 O1078 1.315 . S
C1086 O1081 1.279 . S
C1087 O1088 1.315 . S
C1087 O1089 1.279 . S
O1088 Cd1080 2.223 . S
O1088 C1087 1.315 . S
O1089 Cd1079 2.240 . S
O1089 C1087 1.279 . S
O1090 Cd1080 2.297 . S
O1090 C1085 1.247 . S
O1091 Cd1080 2.439 . S
O1091 C1085 1.208 . S
O1092 Cd1093 2.223 . S
O1092 C1100 1.315 . S
Cd1093 O1092 2.223 . S
Cd1093 O1096 2.297 . S
Cd1093 O1097 2.439 . S
Cd1093 O1103 2.240 . S
Cd1094 O1095 2.240 . S
Cd1094 O1102 2.223 . S
Cd1094 O1104 2.297 . S
Cd1094 O1105 2.439 . S
O1095 Cd1094 2.240 . S
O1095 C1100 1.279 . S
O1096 Cd1093 2.297 . S
O1096 C1098 1.247 . S
O1097 Cd1093 2.439 . S
O1097 C1098 1.208 . S
C1098 O1096 1.247 . S
C1098 O1097 1.208 . S
C1099 O1104 1.247 . S
C1099 O1105 1.208 . S
C1100 O1092 1.315 . S
C1100 O1095 1.279 . S
C1101 O1102 1.315 . S
C1101 O1103 1.279 . S
O1102 Cd1094 2.223 . S
O1102 C1101 1.315 . S
O1103 Cd1093 2.240 . S
O1103 C1101 1.279 . S
O1104 Cd1094 2.297 . S
O1104 C1099 1.247 . S
O1105 Cd1094 2.439 . S
O1105 C1099 1.208 . S
O1106 Cd1107 2.223 . S
O1106 C1114 1.315 . S
Cd1107 O1106 2.223 . S
Cd1107 O1110 2.297 . S
Cd1107 O1111 2.439 . S
Cd1107 O1117 2.240 . S
Cd1108 O1109 2.240 . S
Cd1108 O1116 2.223 . S
Cd1108 O1118 2.297 . S
Cd1108 O1119 2.439 . S
O1109 Cd1108 2.240 . S
O1109 C1114 1.279 . S
O1110 Cd1107 2.297 . S
O1110 C1112 1.247 . S
O1111 Cd1107 2.439 . S
O1111 C1112 1.208 . S
C1112 O1110 1.247 . S
C1112 O1111 1.208 . S
C1113 O1118 1.247 . S
C1113 O1119 1.208 . S
C1114 O1106 1.315 . S
C1114 O1109 1.279 . S
C1115 O1116 1.315 . S
C1115 O1117 1.279 . S
O1116 Cd1108 2.223 . S
O1116 C1115 1.315 . S
O1117 Cd1107 2.240 . S
O1117 C1115 1.279 . S
O1118 Cd1108 2.297 . S
O1118 C1113 1.247 . S
O1119 Cd1108 2.439 . S
O1119 C1113 1.208 . S
O1120 Cd1121 2.223 . S
O1120 C1128 1.315 . S
Cd1121 O1120 2.223 . S
Cd1121 O1124 2.297 . S
Cd1121 O1125 2.439 . S
Cd1121 O1131 2.240 . S
Cd1122 O1123 2.240 . S
Cd1122 O1130 2.223 . S
Cd1122 O1132 2.297 . S
Cd1122 O1133 2.439 . S
O1123 Cd1122 2.240 . S
O1123 C1128 1.279 . S
O1124 Cd1121 2.297 . S
O1124 C1126 1.247 . S
O1125 Cd1121 2.439 . S
O1125 C1126 1.208 . S
C1126 O1124 1.247 . S
C1126 O1125 1.208 . S
C1127 O1132 1.247 . S
C1127 O1133 1.208 . S
C1128 O1120 1.315 . S
C1128 O1123 1.279 . S
C1129 O1130 1.315 . S
C1129 O1131 1.279 . S
O1130 Cd1122 2.223 . S
O1130 C1129 1.315 . S
O1131 Cd1121 2.240 . S
O1131 C1129 1.279 . S
O1132 Cd1122 2.297 . S
O1132 C1127 1.247 . S
O1133 Cd1122 2.439 . S
O1133 C1127 1.208 . S
O1134 Cd1135 2.223 . S
O1134 C1142 1.315 . S
Cd1135 O1134 2.223 . S
Cd1135 O1138 2.297 . S
Cd1135 O1139 2.439 . S
Cd1135 O1145 2.240 . S
Cd1136 O1137 2.240 . S
Cd1136 O1144 2.223 . S
Cd1136 O1146 2.297 . S
Cd1136 O1147 2.439 . S
O1137 Cd1136 2.240 . S
O1137 C1142 1.279 . S
O1138 Cd1135 2.297 . S
O1138 C1140 1.247 . S
O1139 Cd1135 2.439 . S
O1139 C1140 1.208 . S
C1140 O1138 1.247 . S
C1140 O1139 1.208 . S
C1141 O1146 1.247 . S
C1141 O1147 1.208 . S
C1142 O1134 1.315 . S
C1142 O1137 1.279 . S
C1143 O1144 1.315 . S
C1143 O1145 1.279 . S
O1144 Cd1136 2.223 . S
O1144 C1143 1.315 . S
O1145 Cd1135 2.240 . S
O1145 C1143 1.279 . S
O1146 Cd1136 2.297 . S
O1146 C1141 1.247 . S
O1147 Cd1136 2.439 . S
O1147 C1141 1.208 . S
O1148 Cd1149 2.223 . S
O1148 C1156 1.315 . S
Cd1149 O1148 2.223 . S
Cd1149 O1152 2.297 . S
Cd1149 O1153 2.439 . S
Cd1149 O1159 2.240 . S
Cd1150 O1151 2.240 . S
Cd1150 O1158 2.223 . S
Cd1150 O1160 2.297 . S
Cd1150 O1161 2.439 . S
O1151 Cd1150 2.240 . S
O1151 C1156 1.279 . S
O1152 Cd1149 2.297 . S
O1152 C1154 1.247 . S
O1153 Cd1149 2.439 . S
O1153 C1154 1.208 . S
C1154 O1152 1.247 . S
C1154 O1153 1.208 . S
C1155 O1160 1.247 . S
C1155 O1161 1.208 . S
C1156 O1148 1.315 . S
C1156 O1151 1.279 . S
C1157 O1158 1.315 . S
C1157 O1159 1.279 . S
O1158 Cd1150 2.223 . S
O1158 C1157 1.315 . S
O1159 Cd1149 2.240 . S
O1159 C1157 1.279 . S
O1160 Cd1150 2.297 . S
O1160 C1155 1.247 . S
O1161 Cd1150 2.439 . S
O1161 C1155 1.208 . S
O1162 Cd1163 2.223 . S
O1162 C1170 1.315 . S
Cd1163 O1162 2.223 . S
Cd1163 O1166 2.297 . S
Cd1163 O1167 2.439 . S
Cd1163 O1173 2.240 . S
Cd1164 O1165 2.240 . S
Cd1164 O1172 2.223 . S
Cd1164 O1174 2.297 . S
Cd1164 O1175 2.439 . S
O1165 Cd1164 2.240 . S
O1165 C1170 1.279 . S
O1166 Cd1163 2.297 . S
O1166 C1168 1.247 . S
O1167 Cd1163 2.439 . S
O1167 C1168 1.208 . S
C1168 O1166 1.247 . S
C1168 O1167 1.208 . S
C1169 O1174 1.247 . S
C1169 O1175 1.208 . S
C1170 O1162 1.315 . S
C1170 O1165 1.279 . S
C1171 O1172 1.315 . S
C1171 O1173 1.279 . S
O1172 Cd1164 2.223 . S
O1172 C1171 1.315 . S
O1173 Cd1163 2.240 . S
O1173 C1171 1.279 . S
O1174 Cd1164 2.297 . S
O1174 C1169 1.247 . S
O1175 Cd1164 2.439 . S
O1175 C1169 1.208 . S
O1176 Cd1177 2.223 . S
O1176 C1184 1.315 . S
Cd1177 O1176 2.223 . S
Cd1177 O1180 2.297 . S
Cd1177 O1181 2.439 . S
Cd1177 O1187 2.240 . S
Cd1178 O1179 2.240 . S
Cd1178 O1186 2.223 . S
Cd1178 O1188 2.297 . S
Cd1178 O1189 2.439 . S
O1179 Cd1178 2.240 . S
O1179 C1184 1.279 . S
O1180 Cd1177 2.297 . S
O1180 C1182 1.247 . S
O1181 Cd1177 2.439 . S
O1181 C1182 1.208 . S
C1182 O1180 1.247 . S
C1182 O1181 1.208 . S
C1183 O1188 1.247 . S
C1183 O1189 1.208 . S
C1184 O1176 1.315 . S
C1184 O1179 1.279 . S
C1185 O1186 1.315 . S
C1185 O1187 1.279 . S
O1186 Cd1178 2.223 . S
O1186 C1185 1.315 . S
O1187 Cd1177 2.240 . S
O1187 C1185 1.279 . S
O1188 Cd1178 2.297 . S
O1188 C1183 1.247 . S
O1189 Cd1178 2.439 . S
O1189 C1183 1.208 . S
O1190 Cd1191 2.223 . S
O1190 C1198 1.315 . S
Cd1191 O1190 2.223 . S
Cd1191 O1194 2.297 . S
Cd1191 O1195 2.439 . S
Cd1191 O1201 2.240 . S
Cd1192 O1193 2.240 . S
Cd1192 O1200 2.223 . S
Cd1192 O1202 2.297 . S
Cd1192 O1203 2.439 . S
O1193 Cd1192 2.240 . S
O1193 C1198 1.279 . S
O1194 Cd1191 2.297 . S
O1194 C1196 1.247 . S
O1195 Cd1191 2.439 . S
O1195 C1196 1.208 . S
C1196 O1194 1.247 . S
C1196 O1195 1.208 . S
C1197 O1202 1.247 . S
C1197 O1203 1.208 . S
C1198 O1190 1.315 . S
C1198 O1193 1.279 . S
C1199 O1200 1.315 . S
C1199 O1201 1.279 . S
O1200 Cd1192 2.223 . S
O1200 C1199 1.315 . S
O1201 Cd1191 2.240 . S
O1201 C1199 1.279 . S
O1202 Cd1192 2.297 . S
O1202 C1197 1.247 . S
O1203 Cd1192 2.439 . S
O1203 C1197 1.208 . S
O1204 Cd1205 2.223 . S
O1204 C1212 1.315 . S
Cd1205 O1204 2.223 . S
Cd1205 O1208 2.297 . S
Cd1205 O1209 2.439 . S
Cd1205 O1215 2.240 . S
Cd1206 O1207 2.240 . S
Cd1206 O1214 2.223 . S
Cd1206 O1216 2.297 . S
Cd1206 O1217 2.439 . S
O1207 Cd1206 2.240 . S
O1207 C1212 1.279 . S
O1208 Cd1205 2.297 . S
O1208 C1210 1.247 . S
O1209 Cd1205 2.439 . S
O1209 C1210 1.208 . S
C1210 O1208 1.247 . S
C1210 O1209 1.208 . S
C1211 O1216 1.247 . S
C1211 O1217 1.208 . S
C1212 O1204 1.315 . S
C1212 O1207 1.279 . S
C1213 O1214 1.315 . S
C1213 O1215 1.279 . S
O1214 Cd1206 2.223 . S
O1214 C1213 1.315 . S
O1215 Cd1205 2.240 . S
O1215 C1213 1.279 . S
O1216 Cd1206 2.297 . S
O1216 C1211 1.247 . S
O1217 Cd1206 2.439 . S
O1217 C1211 1.208 . S
O1218 Cd1219 2.223 . S
O1218 C1226 1.315 . S
Cd1219 O1218 2.223 . S
Cd1219 O1222 2.297 . S
Cd1219 O1223 2.439 . S
Cd1219 O1229 2.240 . S
Cd1220 O1221 2.240 . S
Cd1220 O1228 2.223 . S
Cd1220 O1230 2.297 . S
Cd1220 O1231 2.439 . S
O1221 Cd1220 2.240 . S
O1221 C1226 1.279 . S
O1222 Cd1219 2.297 . S
O1222 C1224 1.247 . S
O1223 Cd1219 2.439 . S
O1223 C1224 1.208 . S
C1224 O1222 1.247 . S
C1224 O1223 1.208 . S
C1225 O1230 1.247 . S
C1225 O1231 1.208 . S
C1226 O1218 1.315 . S
C1226 O1221 1.279 . S
C1227 O1228 1.315 . S
C1227 O1229 1.279 . S
O1228 Cd1220 2.223 . S
O1228 C1227 1.315 . S
O1229 Cd1219 2.240 . S
O1229 C1227 1.279 . S
O1230 Cd1220 2.297 . S
O1230 C1225 1.247 . S
O1231 Cd1220 2.439 . S
O1231 C1225 1.208 . S
O1232 Cd1233 2.223 . S
O1232 C1240 1.315 . S
Cd1233 O1232 2.223 . S
Cd1233 O1236 2.297 . S
Cd1233 O1237 2.439 . S
Cd1233 O1243 2.240 . S
Cd1234 O1235 2.240 . S
Cd1234 O1242 2.223 . S
Cd1234 O1244 2.297 . S
Cd1234 O1245 2.439 . S
O1235 Cd1234 2.240 . S
O1235 C1240 1.279 . S
O1236 Cd1233 2.297 . S
O1236 C1238 1.247 . S
O1237 Cd1233 2.439 . S
O1237 C1238 1.208 . S
C1238 O1236 1.247 . S
C1238 O1237 1.208 . S
C1239 O1244 1.247 . S
C1239 O1245 1.208 . S
C1240 O1232 1.315 . S
C1240 O1235 1.279 . S
C1241 O1242 1.315 . S
C1241 O1243 1.279 . S
O1242 Cd1234 2.223 . S
O1242 C1241 1.315 . S
O1243 Cd1233 2.240 . S
O1243 C1241 1.279 . S
O1244 Cd1234 2.297 . S
O1244 C1239 1.247 . S
O1245 Cd1234 2.439 . S
O1245 C1239 1.208 . S
O1246 Cd1247 2.223 . S
O1246 C1254 1.315 . S
Cd1247 O1246 2.223 . S
Cd1247 O1250 2.297 . S
Cd1247 O1251 2.439 . S
Cd1247 O1257 2.240 . S
Cd1248 O1249 2.240 . S
Cd1248 O1256 2.223 . S
Cd1248 O1258 2.297 . S
Cd1248 O1259 2.439 . S
O1249 Cd1248 2.240 . S
O1249 C1254 1.279 . S
O1250 Cd1247 2.297 . S
O1250 C1252 1.247 . S
O1251 Cd1247 2.439 . S
O1251 C1252 1.208 . S
C1252 O1250 1.247 . S
C1252 O1251 1.208 . S
C1253 O1258 1.247 . S
C1253 O1259 1.208 . S
C1254 O1246 1.315 . S
C1254 O1249 1.279 . S
C1255 O1256 1.315 . S
C1255 O1257 1.279 . S
O1256 Cd1248 2.223 . S
O1256 C1255 1.315 . S
O1257 Cd1247 2.240 . S
O1257 C1255 1.279 . S
O1258 Cd1248 2.297 . S
O1258 C1253 1.247 . S
O1259 Cd1248 2.439 . S
O1259 C1253 1.208 . S
O1260 Cd1261 2.223 . S
O1260 C1268 1.315 . S
Cd1261 O1260 2.223 . S
Cd1261 O1264 2.297 . S
Cd1261 O1265 2.439 . S
Cd1261 O1271 2.240 . S
Cd1262 O1263 2.240 . S
Cd1262 O1270 2.223 . S
Cd1262 O1272 2.297 . S
Cd1262 O1273 2.439 . S
O1263 Cd1262 2.240 . S
O1263 C1268 1.279 . S
O1264 Cd1261 2.297 . S
O1264 C1266 1.247 . S
O1265 Cd1261 2.439 . S
O1265 C1266 1.208 . S
C1266 O1264 1.247 . S
C1266 O1265 1.208 . S
C1267 O1272 1.247 . S
C1267 O1273 1.208 . S
C1268 O1260 1.315 . S
C1268 O1263 1.279 . S
C1269 O1270 1.315 . S
C1269 O1271 1.279 . S
O1270 Cd1262 2.223 . S
O1270 C1269 1.315 . S
O1271 Cd1261 2.240 . S
O1271 C1269 1.279 . S
O1272 Cd1262 2.297 . S
O1272 C1267 1.247 . S
O1273 Cd1262 2.439 . S
O1273 C1267 1.208 . S
O1274 Cd1275 2.223 . S
O1274 C1282 1.315 . S
Cd1275 O1274 2.223 . S
Cd1275 O1278 2.297 . S
Cd1275 O1279 2.439 . S
Cd1275 O1285 2.240 . S
Cd1276 O1277 2.240 . S
Cd1276 O1284 2.223 . S
Cd1276 O1286 2.297 . S
Cd1276 O1287 2.439 . S
O1277 Cd1276 2.240 . S
O1277 C1282 1.279 . S
O1278 Cd1275 2.297 . S
O1278 C1280 1.247 . S
O1279 Cd1275 2.439 . S
O1279 C1280 1.208 . S
C1280 O1278 1.247 . S
C1280 O1279 1.208 . S
C1281 O1286 1.247 . S
C1281 O1287 1.208 . S
C1282 O1274 1.315 . S
C1282 O1277 1.279 . S
C1283 O1284 1.315 . S
C1283 O1285 1.279 . S
O1284 Cd1276 2.223 . S
O1284 C1283 1.315 . S
O1285 Cd1275 2.240 . S
O1285 C1283 1.279 . S
O1286 Cd1276 2.297 . S
O1286 C1281 1.247 . S
O1287 Cd1276 2.439 . S
O1287 C1281 1.208 . S
O1288 Cd1289 2.223 . S
O1288 C1296 1.315 . S
Cd1289 O1288 2.223 . S
Cd1289 O1292 2.297 . S
Cd1289 O1293 2.439 . S
Cd1289 O1299 2.240 . S
Cd1290 O1291 2.240 . S
Cd1290 O1298 2.223 . S
Cd1290 O1300 2.297 . S
Cd1290 O1301 2.439 . S
O1291 Cd1290 2.240 . S
O1291 C1296 1.279 . S
O1292 Cd1289 2.297 . S
O1292 C1294 1.247 . S
O1293 Cd1289 2.439 . S
O1293 C1294 1.208 . S
C1294 O1292 1.247 . S
C1294 O1293 1.208 . S
C1295 O1300 1.247 . S
C1295 O1301 1.208 . S
C1296 O1288 1.315 . S
C1296 O1291 1.279 . S
C1297 O1298 1.315 . S
C1297 O1299 1.279 . S
O1298 Cd1290 2.223 . S
O1298 C1297 1.315 . S
O1299 Cd1289 2.240 . S
O1299 C1297 1.279 . S
O1300 Cd1290 2.297 . S
O1300 C1295 1.247 . S
O1301 Cd1290 2.439 . S
O1301 C1295 1.208 . S
O1302 Cd1303 2.223 . S
O1302 C1310 1.315 . S
Cd1303 O1302 2.223 . S
Cd1303 O1306 2.297 . S
Cd1303 O1307 2.439 . S
Cd1303 O1313 2.240 . S
Cd1304 O1305 2.240 . S
Cd1304 O1312 2.223 . S
Cd1304 O1314 2.297 . S
Cd1304 O1315 2.439 . S
O1305 Cd1304 2.240 . S
O1305 C1310 1.279 . S
O1306 Cd1303 2.297 . S
O1306 C1308 1.247 . S
O1307 Cd1303 2.439 . S
O1307 C1308 1.208 . S
C1308 O1306 1.247 . S
C1308 O1307 1.208 . S
C1309 O1314 1.247 . S
C1309 O1315 1.208 . S
C1310 O1302 1.315 . S
C1310 O1305 1.279 . S
C1311 O1312 1.315 . S
C1311 O1313 1.279 . S
O1312 Cd1304 2.223 . S
O1312 C1311 1.315 . S
O1313 Cd1303 2.240 . S
O1313 C1311 1.279 . S
O1314 Cd1304 2.297 . S
O1314 C1309 1.247 . S
O1315 Cd1304 2.439 . S
O1315 C1309 1.208 . S
O1316 Cd1317 2.223 . S
O1316 C1324 1.315 . S
Cd1317 O1316 2.223 . S
Cd1317 O1320 2.297 . S
Cd1317 O1321 2.439 . S
Cd1317 O1327 2.240 . S
Cd1318 O1319 2.240 . S
Cd1318 O1326 2.223 . S
Cd1318 O1328 2.297 . S
Cd1318 O1329 2.439 . S
O1319 Cd1318 2.240 . S
O1319 C1324 1.279 . S
O1320 Cd1317 2.297 . S
O1320 C1322 1.247 . S
O1321 Cd1317 2.439 . S
O1321 C1322 1.208 . S
C1322 O1320 1.247 . S
C1322 O1321 1.208 . S
C1323 O1328 1.247 . S
C1323 O1329 1.208 . S
C1324 O1316 1.315 . S
C1324 O1319 1.279 . S
C1325 O1326 1.315 . S
C1325 O1327 1.279 . S
O1326 Cd1318 2.223 . S
O1326 C1325 1.315 . S
O1327 Cd1317 2.240 . S
O1327 C1325 1.279 . S
O1328 Cd1318 2.297 . S
O1328 C1323 1.247 . S
O1329 Cd1318 2.439 . S
O1329 C1323 1.208 . S
O1330 Cd1331 2.223 . S
O1330 C1338 1.315 . S
Cd1331 O1330 2.223 . S
Cd1331 O1334 2.297 . S
Cd1331 O1335 2.439 . S
Cd1331 O1341 2.240 . S
Cd1332 O1333 2.240 . S
Cd1332 O1340 2.223 . S
Cd1332 O1342 2.297 . S
Cd1332 O1343 2.439 . S
O1333 Cd1332 2.240 . S
O1333 C1338 1.279 . S
O1334 Cd1331 2.297 . S
O1334 C1336 1.247 . S
O1335 Cd1331 2.439 . S
O1335 C1336 1.208 . S
C1336 O1334 1.247 . S
C1336 O1335 1.208 . S
C1337 O1342 1.247 . S
C1337 O1343 1.208 . S
C1338 O1330 1.315 . S
C1338 O1333 1.279 . S
C1339 O1340 1.315 . S
C1339 O1341 1.279 . S
O1340 Cd1332 2.223 . S
O1340 C1339 1.315 . S
O1341 Cd1331 2.240 . S
O1341 C1339 1.279 . S
O1342 Cd1332 2.297 . S
O1342 C1337 1.247 . S
O1343 Cd1332 2.439 . S
O1343 C1337 1.208 . S
H1344 C1350 0.930 . S
H1345 C1353 0.930 . S
H1346 C1354 0.930 . S
H1347 C1355 0.930 . S
H1348 C1358 0.930 . S
H1349 C1359 0.930 . S
C1350 H1344 0.930 . S
C1350 C1351 1.355 . S
C1350 C1352 1.415 . S
C1351 C1350 1.355 . S
C1351 C1353 1.419 . S
C1352 C1350 1.415 . S
C1352 C1357 1.425 . S
C1352 C1359 1.409 . S
C1353 H1345 0.930 . S
C1353 C1351 1.419 . S
C1353 C1354 1.362 . S
C1354 H1346 0.930 . S
C1354 C1353 1.362 . S
C1354 C1357 1.409 . S
C1355 H1347 0.930 . S
C1355 C1356 1.355 . S
C1355 C1357 1.415 . S
C1356 C1355 1.355 . S
C1356 C1358 1.419 . S
C1357 C1352 1.425 . S
C1357 C1354 1.409 . S
C1357 C1355 1.415 . S
C1358 H1348 0.930 . S
C1358 C1356 1.419 . S
C1358 C1359 1.362 . S
C1359 H1349 0.930 . S
C1359 C1352 1.409 . S
C1359 C1358 1.362 . S
H1360 C1366 0.930 . S
H1361 C1369 0.930 . S
H1362 C1370 0.930 . S
H1363 C1371 0.930 . S
H1364 C1374 0.930 . S
H1365 C1375 0.930 . S
C1366 H1360 0.930 . S
C1366 C1367 1.355 . S
C1366 C1368 1.415 . S
C1367 C1366 1.355 . S
C1367 C1369 1.419 . S
C1368 C1366 1.415 . S
C1368 C1373 1.425 . S
C1368 C1375 1.409 . S
C1369 H1361 0.930 . S
C1369 C1367 1.419 . S
C1369 C1370 1.362 . S
C1370 H1362 0.930 . S
C1370 C1369 1.362 . S
C1370 C1373 1.409 . S
C1371 H1363 0.930 . S
C1371 C1372 1.355 . S
C1371 C1373 1.415 . S
C1372 C1371 1.355 . S
C1372 C1374 1.419 . S
C1373 C1368 1.425 . S
C1373 C1370 1.409 . S
C1373 C1371 1.415 . S
C1374 H1364 0.930 . S
C1374 C1372 1.419 . S
C1374 C1375 1.362 . S
C1375 H1365 0.930 . S
C1375 C1368 1.409 . S
C1375 C1374 1.362 . S
H1376 C1382 0.930 . S
H1377 C1385 0.930 . S
H1378 C1386 0.930 . S
H1379 C1387 0.930 . S
H1380 C1390 0.930 . S
H1381 C1391 0.930 . S
C1382 H1376 0.930 . S
C1382 C1383 1.355 . S
C1382 C1384 1.415 . S
C1383 C1382 1.355 . S
C1383 C1385 1.419 . S
C1384 C1382 1.415 . S
C1384 C1389 1.425 . S
C1384 C1391 1.409 . S
C1385 H1377 0.930 . S
C1385 C1383 1.419 . S
C1385 C1386 1.362 . S
C1386 H1378 0.930 . S
C1386 C1385 1.362 . S
C1386 C1389 1.409 . S
C1387 H1379 0.930 . S
C1387 C1388 1.355 . S
C1387 C1389 1.415 . S
C1388 C1387 1.355 . S
C1388 C1390 1.419 . S
C1389 C1384 1.425 . S
C1389 C1386 1.409 . S
C1389 C1387 1.415 . S
C1390 H1380 0.930 . S
C1390 C1388 1.419 . S
C1390 C1391 1.362 . S
C1391 H1381 0.930 . S
C1391 C1384 1.409 . S
C1391 C1390 1.362 . S
H1392 C1398 0.930 . S
H1393 C1401 0.930 . S
H1394 C1402 0.930 . S
H1395 C1403 0.930 . S
H1396 C1406 0.930 . S
H1397 C1407 0.930 . S
C1398 H1392 0.930 . S
C1398 C1399 1.355 . S
C1398 C1400 1.415 . S
C1399 C1398 1.355 . S
C1399 C1401 1.419 . S
C1400 C1398 1.415 . S
C1400 C1405 1.425 . S
C1400 C1407 1.409 . S
C1401 H1393 0.930 . S
C1401 C1399 1.419 . S
C1401 C1402 1.362 . S
C1402 H1394 0.930 . S
C1402 C1401 1.362 . S
C1402 C1405 1.409 . S
C1403 H1395 0.930 . S
C1403 C1404 1.355 . S
C1403 C1405 1.415 . S
C1404 C1403 1.355 . S
C1404 C1406 1.419 . S
C1405 C1400 1.425 . S
C1405 C1402 1.409 . S
C1405 C1403 1.415 . S
C1406 H1396 0.930 . S
C1406 C1404 1.419 . S
C1406 C1407 1.362 . S
C1407 H1397 0.930 . S
C1407 C1400 1.409 . S
C1407 C1406 1.362 . S
H1408 C1414 0.930 . S
H1409 C1417 0.930 . S
H1410 C1418 0.930 . S
H1411 C1419 0.930 . S
H1412 C1422 0.930 . S
H1413 C1423 0.930 . S
C1414 H1408 0.930 . S
C1414 C1415 1.355 . S
C1414 C1416 1.415 . S
C1415 C1414 1.355 . S
C1415 C1417 1.419 . S
C1416 C1414 1.415 . S
C1416 C1421 1.425 . S
C1416 C1423 1.409 . S
C1417 H1409 0.930 . S
C1417 C1415 1.419 . S
C1417 C1418 1.362 . S
C1418 H1410 0.930 . S
C1418 C1417 1.362 . S
C1418 C1421 1.409 . S
C1419 H1411 0.930 . S
C1419 C1420 1.355 . S
C1419 C1421 1.415 . S
C1420 C1419 1.355 . S
C1420 C1422 1.419 . S
C1421 C1416 1.425 . S
C1421 C1418 1.409 . S
C1421 C1419 1.415 . S
C1422 H1412 0.930 . S
C1422 C1420 1.419 . S
C1422 C1423 1.362 . S
C1423 H1413 0.930 . S
C1423 C1416 1.409 . S
C1423 C1422 1.362 . S
H1424 C1430 0.930 . S
H1425 C1433 0.930 . S
H1426 C1434 0.930 . S
H1427 C1435 0.930 . S
H1428 C1438 0.930 . S
H1429 C1439 0.930 . S
C1430 H1424 0.930 . S
C1430 C1431 1.355 . S
C1430 C1432 1.415 . S
C1431 C1430 1.355 . S
C1431 C1433 1.419 . S
C1432 C1430 1.415 . S
C1432 C1437 1.425 . S
C1432 C1439 1.409 . S
C1433 H1425 0.930 . S
C1433 C1431 1.419 . S
C1433 C1434 1.362 . S
C1434 H1426 0.930 . S
C1434 C1433 1.362 . S
C1434 C1437 1.409 . S
C1435 H1427 0.930 . S
C1435 C1436 1.355 . S
C1435 C1437 1.415 . S
C1436 C1435 1.355 . S
C1436 C1438 1.419 . S
C1437 C1432 1.425 . S
C1437 C1434 1.409 . S
C1437 C1435 1.415 . S
C1438 H1428 0.930 . S
C1438 C1436 1.419 . S
C1438 C1439 1.362 . S
C1439 H1429 0.930 . S
C1439 C1432 1.409 . S
C1439 C1438 1.362 . S
H1440 C1446 0.930 . S
H1441 C1449 0.930 . S
H1442 C1450 0.930 . S
H1443 C1451 0.930 . S
H1444 C1454 0.930 . S
H1445 C1455 0.930 . S
C1446 H1440 0.930 . S
C1446 C1447 1.355 . S
C1446 C1448 1.415 . S
C1447 C1446 1.355 . S
C1447 C1449 1.419 . S
C1448 C1446 1.415 . S
C1448 C1453 1.425 . S
C1448 C1455 1.409 . S
C1449 H1441 0.930 . S
C1449 C1447 1.419 . S
C1449 C1450 1.362 . S
C1450 H1442 0.930 . S
C1450 C1449 1.362 . S
C1450 C1453 1.409 . S
C1451 H1443 0.930 . S
C1451 C1452 1.355 . S
C1451 C1453 1.415 . S
C1452 C1451 1.355 . S
C1452 C1454 1.419 . S
C1453 C1448 1.425 . S
C1453 C1450 1.409 . S
C1453 C1451 1.415 . S
C1454 H1444 0.930 . S
C1454 C1452 1.419 . S
C1454 C1455 1.362 . S
C1455 H1445 0.930 . S
C1455 C1448 1.409 . S
C1455 C1454 1.362 . S
H1456 C1462 0.930 . S
H1457 C1465 0.930 . S
H1458 C1466 0.930 . S
H1459 C1467 0.930 . S
H1460 C1470 0.930 . S
H1461 C1471 0.930 . S
C1462 H1456 0.930 . S
C1462 C1463 1.355 . S
C1462 C1464 1.415 . S
C1463 C1462 1.355 . S
C1463 C1465 1.419 . S
C1464 C1462 1.415 . S
C1464 C1469 1.425 . S
C1464 C1471 1.409 . S
C1465 H1457 0.930 . S
C1465 C1463 1.419 . S
C1465 C1466 1.362 . S
C1466 H1458 0.930 . S
C1466 C1465 1.362 . S
C1466 C1469 1.409 . S
C1467 H1459 0.930 . S
C1467 C1468 1.355 . S
C1467 C1469 1.415 . S
C1468 C1467 1.355 . S
C1468 C1470 1.419 . S
C1469 C1464 1.425 . S
C1469 C1466 1.409 . S
C1469 C1467 1.415 . S
C1470 H1460 0.930 . S
C1470 C1468 1.419 . S
C1470 C1471 1.362 . S
C1471 H1461 0.930 . S
C1471 C1464 1.409 . S
C1471 C1470 1.362 . S
H1472 C1478 0.930 . S
H1473 C1481 0.930 . S
H1474 C1482 0.930 . S
H1475 C1483 0.930 . S
H1476 C1486 0.930 . S
H1477 C1487 0.930 . S
C1478 H1472 0.930 . S
C1478 C1479 1.355 . S
C1478 C1480 1.415 . S
C1479 C1478 1.355 . S
C1479 C1481 1.419 . S
C1480 C1478 1.415 . S
C1480 C1485 1.425 . S
C1480 C1487 1.409 . S
C1481 H1473 0.930 . S
C1481 C1479 1.419 . S
C1481 C1482 1.362 . S
C1482 H1474 0.930 . S
C1482 C1481 1.362 . S
C1482 C1485 1.409 . S
C1483 H1475 0.930 . S
C1483 C1484 1.355 . S
C1483 C1485 1.415 . S
C1484 C1483 1.355 . S
C1484 C1486 1.419 . S
C1485 C1480 1.425 . S
C1485 C1482 1.409 . S
C1485 C1483 1.415 . S
C1486 H1476 0.930 . S
C1486 C1484 1.419 . S
C1486 C1487 1.362 . S
C1487 H1477 0.930 . S
C1487 C1480 1.409 . S
C1487 C1486 1.362 . S
H1488 C1494 0.930 . S
H1489 C1497 0.930 . S
H1490 C1498 0.930 . S
H1491 C1499 0.930 . S
H1492 C1502 0.930 . S
H1493 C1503 0.930 . S
C1494 H1488 0.930 . S
C1494 C1495 1.355 . S
C1494 C1496 1.415 . S
C1495 C1494 1.355 . S
C1495 C1497 1.419 . S
C1496 C1494 1.415 . S
C1496 C1501 1.425 . S
C1496 C1503 1.409 . S
C1497 H1489 0.930 . S
C1497 C1495 1.419 . S
C1497 C1498 1.362 . S
C1498 H1490 0.930 . S
C1498 C1497 1.362 . S
C1498 C1501 1.409 . S
C1499 H1491 0.930 . S
C1499 C1500 1.355 . S
C1499 C1501 1.415 . S
C1500 C1499 1.355 . S
C1500 C1502 1.419 . S
C1501 C1496 1.425 . S
C1501 C1498 1.409 . S
C1501 C1499 1.415 . S
C1502 H1492 0.930 . S
C1502 C1500 1.419 . S
C1502 C1503 1.362 . S
C1503 H1493 0.930 . S
C1503 C1496 1.409 . S
C1503 C1502 1.362 . S
H1504 C1510 0.930 . S
H1505 C1513 0.930 . S
H1506 C1514 0.930 . S
H1507 C1515 0.930 . S
H1508 C1518 0.930 . S
H1509 C1519 0.930 . S
C1510 H1504 0.930 . S
C1510 C1511 1.355 . S
C1510 C1512 1.415 . S
C1511 C1510 1.355 . S
C1511 C1513 1.419 . S
C1512 C1510 1.415 . S
C1512 C1517 1.425 . S
C1512 C1519 1.409 . S
C1513 H1505 0.930 . S
C1513 C1511 1.419 . S
C1513 C1514 1.362 . S
C1514 H1506 0.930 . S
C1514 C1513 1.362 . S
C1514 C1517 1.409 . S
C1515 H1507 0.930 . S
C1515 C1516 1.355 . S
C1515 C1517 1.415 . S
C1516 C1515 1.355 . S
C1516 C1518 1.419 . S
C1517 C1512 1.425 . S
C1517 C1514 1.409 . S
C1517 C1515 1.415 . S
C1518 H1508 0.930 . S
C1518 C1516 1.419 . S
C1518 C1519 1.362 . S
C1519 H1509 0.930 . S
C1519 C1512 1.409 . S
C1519 C1518 1.362 . S
H1520 C1526 0.930 . S
H1521 C1529 0.930 . S
H1522 C1530 0.930 . S
H1523 C1531 0.930 . S
H1524 C1534 0.930 . S
H1525 C1535 0.930 . S
C1526 H1520 0.930 . S
C1526 C1527 1.355 . S
C1526 C1528 1.415 . S
C1527 C1526 1.355 . S
C1527 C1529 1.419 . S
C1528 C1526 1.415 . S
C1528 C1533 1.425 . S
C1528 C1535 1.409 . S
C1529 H1521 0.930 . S
C1529 C1527 1.419 . S
C1529 C1530 1.362 . S
C1530 H1522 0.930 . S
C1530 C1529 1.362 . S
C1530 C1533 1.409 . S
C1531 H1523 0.930 . S
C1531 C1532 1.355 . S
C1531 C1533 1.415 . S
C1532 C1531 1.355 . S
C1532 C1534 1.419 . S
C1533 C1528 1.425 . S
C1533 C1530 1.409 . S
C1533 C1531 1.415 . S
C1534 H1524 0.930 . S
C1534 C1532 1.419 . S
C1534 C1535 1.362 . S
C1535 H1525 0.930 . S
C1535 C1528 1.409 . S
C1535 C1534 1.362 . S
H1536 C1542 0.930 . S
H1537 C1545 0.930 . S
H1538 C1546 0.930 . S
H1539 C1547 0.930 . S
H1540 C1550 0.930 . S
H1541 C1551 0.930 . S
C1542 H1536 0.930 . S
C1542 C1543 1.355 . S
C1542 C1544 1.415 . S
C1543 C1542 1.355 . S
C1543 C1545 1.419 . S
C1544 C1542 1.415 . S
C1544 C1549 1.425 . S
C1544 C1551 1.409 . S
C1545 H1537 0.930 . S
C1545 C1543 1.419 . S
C1545 C1546 1.362 . S
C1546 H1538 0.930 . S
C1546 C1545 1.362 . S
C1546 C1549 1.409 . S
C1547 H1539 0.930 . S
C1547 C1548 1.355 . S
C1547 C1549 1.415 . S
C1548 C1547 1.355 . S
C1548 C1550 1.419 . S
C1549 C1544 1.425 . S
C1549 C1546 1.409 . S
C1549 C1547 1.415 . S
C1550 H1540 0.930 . S
C1550 C1548 1.419 . S
C1550 C1551 1.362 . S
C1551 H1541 0.930 . S
C1551 C1544 1.409 . S
C1551 C1550 1.362 . S
H1552 C1558 0.930 . S
H1553 C1561 0.930 . S
H1554 C1562 0.930 . S
H1555 C1563 0.930 . S
H1556 C1566 0.930 . S
H1557 C1567 0.930 . S
C1558 H1552 0.930 . S
C1558 C1559 1.355 . S
C1558 C1560 1.415 . S
C1559 C1558 1.355 . S
C1559 C1561 1.419 . S
C1560 C1558 1.415 . S
C1560 C1565 1.425 . S
C1560 C1567 1.409 . S
C1561 H1553 0.930 . S
C1561 C1559 1.419 . S
C1561 C1562 1.362 . S
C1562 H1554 0.930 . S
C1562 C1561 1.362 . S
C1562 C1565 1.409 . S
C1563 H1555 0.930 . S
C1563 C1564 1.355 . S
C1563 C1565 1.415 . S
C1564 C1563 1.355 . S
C1564 C1566 1.419 . S
C1565 C1560 1.425 . S
C1565 C1562 1.409 . S
C1565 C1563 1.415 . S
C1566 H1556 0.930 . S
C1566 C1564 1.419 . S
C1566 C1567 1.362 . S
C1567 H1557 0.930 . S
C1567 C1560 1.409 . S
C1567 C1566 1.362 . S
H1568 C1574 0.930 . S
H1569 C1577 0.930 . S
H1570 C1578 0.930 . S
H1571 C1579 0.930 . S
H1572 C1582 0.930 . S
H1573 C1583 0.930 . S
C1574 H1568 0.930 . S
C1574 C1575 1.355 . S
C1574 C1576 1.415 . S
C1575 C1574 1.355 . S
C1575 C1577 1.419 . S
C1576 C1574 1.415 . S
C1576 C1581 1.425 . S
C1576 C1583 1.409 . S
C1577 H1569 0.930 . S
C1577 C1575 1.419 . S
C1577 C1578 1.362 . S
C1578 H1570 0.930 . S
C1578 C1577 1.362 . S
C1578 C1581 1.409 . S
C1579 H1571 0.930 . S
C1579 C1580 1.355 . S
C1579 C1581 1.415 . S
C1580 C1579 1.355 . S
C1580 C1582 1.419 . S
C1581 C1576 1.425 . S
C1581 C1578 1.409 . S
C1581 C1579 1.415 . S
C1582 H1572 0.930 . S
C1582 C1580 1.419 . S
C1582 C1583 1.362 . S
C1583 H1573 0.930 . S
C1583 C1576 1.409 . S
C1583 C1582 1.362 . S
H1584 C1590 0.930 . S
H1585 C1593 0.930 . S
H1586 C1594 0.930 . S
H1587 C1595 0.930 . S
H1588 C1598 0.930 . S
H1589 C1599 0.930 . S
C1590 H1584 0.930 . S
C1590 C1591 1.355 . S
C1590 C1592 1.415 . S
C1591 C1590 1.355 . S
C1591 C1593 1.419 . S
C1592 C1590 1.415 . S
C1592 C1597 1.425 . S
C1592 C1599 1.409 . S
C1593 H1585 0.930 . S
C1593 C1591 1.419 . S
C1593 C1594 1.362 . S
C1594 H1586 0.930 . S
C1594 C1593 1.362 . S
C1594 C1597 1.409 . S
C1595 H1587 0.930 . S
C1595 C1596 1.355 . S
C1595 C1597 1.415 . S
C1596 C1595 1.355 . S
C1596 C1598 1.419 . S
C1597 C1592 1.425 . S
C1597 C1594 1.409 . S
C1597 C1595 1.415 . S
C1598 H1588 0.930 . S
C1598 C1596 1.419 . S
C1598 C1599 1.362 . S
C1599 H1589 0.930 . S
C1599 C1592 1.409 . S
C1599 C1598 1.362 . S
H1600 C1606 0.930 . S
H1601 C1609 0.930 . S
H1602 C1610 0.930 . S
H1603 C1611 0.930 . S
H1604 C1614 0.930 . S
H1605 C1615 0.930 . S
C1606 H1600 0.930 . S
C1606 C1607 1.355 . S
C1606 C1608 1.415 . S
C1607 C1606 1.355 . S
C1607 C1609 1.419 . S
C1608 C1606 1.415 . S
C1608 C1613 1.425 . S
C1608 C1615 1.409 . S
C1609 H1601 0.930 . S
C1609 C1607 1.419 . S
C1609 C1610 1.362 . S
C1610 H1602 0.930 . S
C1610 C1609 1.362 . S
C1610 C1613 1.409 . S
C1611 H1603 0.930 . S
C1611 C1612 1.355 . S
C1611 C1613 1.415 . S
C1612 C1611 1.355 . S
C1612 C1614 1.419 . S
C1613 C1608 1.425 . S
C1613 C1610 1.409 . S
C1613 C1611 1.415 . S
C1614 H1604 0.930 . S
C1614 C1612 1.419 . S
C1614 C1615 1.362 . S
C1615 H1605 0.930 . S
C1615 C1608 1.409 . S
C1615 C1614 1.362 . S
H1616 C1622 0.930 . S
H1617 C1625 0.930 . S
H1618 C1626 0.930 . S
H1619 C1627 0.930 . S
H1620 C1630 0.930 . S
H1621 C1631 0.930 . S
C1622 H1616 0.930 . S
C1622 C1623 1.355 . S
C1622 C1624 1.415 . S
C1623 C1622 1.355 . S
C1623 C1625 1.419 . S
C1624 C1622 1.415 . S
C1624 C1629 1.425 . S
C1624 C1631 1.409 . S
C1625 H1617 0.930 . S
C1625 C1623 1.419 . S
C1625 C1626 1.362 . S
C1626 H1618 0.930 . S
C1626 C1625 1.362 . S
C1626 C1629 1.409 . S
C1627 H1619 0.930 . S
C1627 C1628 1.355 . S
C1627 C1629 1.415 . S
C1628 C1627 1.355 . S
C1628 C1630 1.419 . S
C1629 C1624 1.425 . S
C1629 C1626 1.409 . S
C1629 C1627 1.415 . S
C1630 H1620 0.930 . S
C1630 C1628 1.419 . S
C1630 C1631 1.362 . S
C1631 H1621 0.930 . S
C1631 C1624 1.409 . S
C1631 C1630 1.362 . S
H1632 C1638 0.930 . S
H1633 C1641 0.930 . S
H1634 C1642 0.930 . S
H1635 C1643 0.930 . S
H1636 C1646 0.930 . S
H1637 C1647 0.930 . S
C1638 H1632 0.930 . S
C1638 C1639 1.355 . S
C1638 C1640 1.415 . S
C1639 C1638 1.355 . S
C1639 C1641 1.419 . S
C1640 C1638 1.415 . S
C1640 C1645 1.425 . S
C1640 C1647 1.409 . S
C1641 H1633 0.930 . S
C1641 C1639 1.419 . S
C1641 C1642 1.362 . S
C1642 H1634 0.930 . S
C1642 C1641 1.362 . S
C1642 C1645 1.409 . S
C1643 H1635 0.930 . S
C1643 C1644 1.355 . S
C1643 C1645 1.415 . S
C1644 C1643 1.355 . S
C1644 C1646 1.419 . S
C1645 C1640 1.425 . S
C1645 C1642 1.409 . S
C1645 C1643 1.415 . S
C1646 H1636 0.930 . S
C1646 C1644 1.419 . S
C1646 C1647 1.362 . S
C1647 H1637 0.930 . S
C1647 C1640 1.409 . S
C1647 C1646 1.362 . S
H1648 C1654 0.930 . S
H1649 C1657 0.930 . S
H1650 C1658 0.930 . S
H1651 C1659 0.930 . S
H1652 C1662 0.930 . S
H1653 C1663 0.930 . S
C1654 H1648 0.930 . S
C1654 C1655 1.355 . S
C1654 C1656 1.415 . S
C1655 C1654 1.355 . S
C1655 C1657 1.419 . S
C1656 C1654 1.415 . S
C1656 C1661 1.425 . S
C1656 C1663 1.409 . S
C1657 H1649 0.930 . S
C1657 C1655 1.419 . S
C1657 C1658 1.362 . S
C1658 H1650 0.930 . S
C1658 C1657 1.362 . S
C1658 C1661 1.409 . S
C1659 H1651 0.930 . S
C1659 C1660 1.355 . S
C1659 C1661 1.415 . S
C1660 C1659 1.355 . S
C1660 C1662 1.419 . S
C1661 C1656 1.425 . S
C1661 C1658 1.409 . S
C1661 C1659 1.415 . S
C1662 H1652 0.930 . S
C1662 C1660 1.419 . S
C1662 C1663 1.362 . S
C1663 H1653 0.930 . S
C1663 C1656 1.409 . S
C1663 C1662 1.362 . S
H1664 C1670 0.930 . S
H1665 C1673 0.930 . S
H1666 C1674 0.930 . S
H1667 C1675 0.930 . S
H1668 C1678 0.930 . S
H1669 C1679 0.930 . S
C1670 H1664 0.930 . S
C1670 C1671 1.355 . S
C1670 C1672 1.415 . S
C1671 C1670 1.355 . S
C1671 C1673 1.419 . S
C1672 C1670 1.415 . S
C1672 C1677 1.425 . S
C1672 C1679 1.409 . S
C1673 H1665 0.930 . S
C1673 C1671 1.419 . S
C1673 C1674 1.362 . S
C1674 H1666 0.930 . S
C1674 C1673 1.362 . S
C1674 C1677 1.409 . S
C1675 H1667 0.930 . S
C1675 C1676 1.355 . S
C1675 C1677 1.415 . S
C1676 C1675 1.355 . S
C1676 C1678 1.419 . S
C1677 C1672 1.425 . S
C1677 C1674 1.409 . S
C1677 C1675 1.415 . S
C1678 H1668 0.930 . S
C1678 C1676 1.419 . S
C1678 C1679 1.362 . S
C1679 H1669 0.930 . S
C1679 C1672 1.409 . S
C1679 C1678 1.362 . S
H1680 C1686 0.930 . S
H1681 C1689 0.930 . S
H1682 C1690 0.930 . S
H1683 C1691 0.930 . S
H1684 C1694 0.930 . S
H1685 C1695 0.930 . S
C1686 H1680 0.930 . S
C1686 C1687 1.355 . S
C1686 C1688 1.415 . S
C1687 C1686 1.355 . S
C1687 C1689 1.419 . S
C1688 C1686 1.415 . S
C1688 C1693 1.425 . S
C1688 C1695 1.409 . S
C1689 H1681 0.930 . S
C1689 C1687 1.419 . S
C1689 C1690 1.362 . S
C1690 H1682 0.930 . S
C1690 C1689 1.362 . S
C1690 C1693 1.409 . S
C1691 H1683 0.930 . S
C1691 C1692 1.355 . S
C1691 C1693 1.415 . S
C1692 C1691 1.355 . S
C1692 C1694 1.419 . S
C1693 C1688 1.425 . S
C1693 C1690 1.409 . S
C1693 C1691 1.415 . S
C1694 H1684 0.930 . S
C1694 C1692 1.419 . S
C1694 C1695 1.362 . S
C1695 H1685 0.930 . S
C1695 C1688 1.409 . S
C1695 C1694 1.362 . S
H1696 C1702 0.930 . S
H1697 C1705 0.930 . S
H1698 C1706 0.930 . S
H1699 C1707 0.930 . S
H1700 C1710 0.930 . S
H1701 C1711 0.930 . S
C1702 H1696 0.930 . S
C1702 C1703 1.355 . S
C1702 C1704 1.415 . S
C1703 C1702 1.355 . S
C1703 C1705 1.419 . S
C1704 C1702 1.415 . S
C1704 C1709 1.425 . S
C1704 C1711 1.409 . S
C1705 H1697 0.930 . S
C1705 C1703 1.419 . S
C1705 C1706 1.362 . S
C1706 H1698 0.930 . S
C1706 C1705 1.362 . S
C1706 C1709 1.409 . S
C1707 H1699 0.930 . S
C1707 C1708 1.355 . S
C1707 C1709 1.415 . S
C1708 C1707 1.355 . S
C1708 C1710 1.419 . S
C1709 C1704 1.425 . S
C1709 C1706 1.409 . S
C1709 C1707 1.415 . S
C1710 H1700 0.930 . S
C1710 C1708 1.419 . S
C1710 C1711 1.362 . S
C1711 H1701 0.930 . S
C1711 C1704 1.409 . S
C1711 C1710 1.362 . S
H1712 C1718 0.930 . S
H1713 C1721 0.930 . S
H1714 C1722 0.930 . S
H1715 C1723 0.930 . S
H1716 C1726 0.930 . S
H1717 C1727 0.930 . S
C1718 H1712 0.930 . S
C1718 C1719 1.355 . S
C1718 C1720 1.415 . S
C1719 C1718 1.355 . S
C1719 C1721 1.419 . S
C1720 C1718 1.415 . S
C1720 C1725 1.425 . S
C1720 C1727 1.409 . S
C1721 H1713 0.930 . S
C1721 C1719 1.419 . S
C1721 C1722 1.362 . S
C1722 H1714 0.930 . S
C1722 C1721 1.362 . S
C1722 C1725 1.409 . S
C1723 H1715 0.930 . S
C1723 C1724 1.355 . S
C1723 C1725 1.415 . S
C1724 C1723 1.355 . S
C1724 C1726 1.419 . S
C1725 C1720 1.425 . S
C1725 C1722 1.409 . S
C1725 C1723 1.415 . S
C1726 H1716 0.930 . S
C1726 C1724 1.419 . S
C1726 C1727 1.362 . S
C1727 H1717 0.930 . S
C1727 C1720 1.409 . S
C1727 C1726 1.362 . S
H1728 C1734 0.930 . S
H1729 C1737 0.930 . S
H1730 C1738 0.930 . S
H1731 C1739 0.930 . S
H1732 C1742 0.930 . S
H1733 C1743 0.930 . S
C1734 H1728 0.930 . S
C1734 C1735 1.355 . S
C1734 C1736 1.415 . S
C1735 C1734 1.355 . S
C1735 C1737 1.419 . S
C1736 C1734 1.415 . S
C1736 C1741 1.425 . S
C1736 C1743 1.409 . S
C1737 H1729 0.930 . S
C1737 C1735 1.419 . S
C1737 C1738 1.362 . S
C1738 H1730 0.930 . S
C1738 C1737 1.362 . S
C1738 C1741 1.409 . S
C1739 H1731 0.930 . S
C1739 C1740 1.355 . S
C1739 C1741 1.415 . S
C1740 C1739 1.355 . S
C1740 C1742 1.419 . S
C1741 C1736 1.425 . S
C1741 C1738 1.409 . S
C1741 C1739 1.415 . S
C1742 H1732 0.930 . S
C1742 C1740 1.419 . S
C1742 C1743 1.362 . S
C1743 H1733 0.930 . S
C1743 C1736 1.409 . S
C1743 C1742 1.362 . S
H1744 C1750 0.930 . S
H1745 C1753 0.930 . S
H1746 C1754 0.930 . S
H1747 C1755 0.930 . S
H1748 C1758 0.930 . S
H1749 C1759 0.930 . S
C1750 H1744 0.930 . S
C1750 C1751 1.355 . S
C1750 C1752 1.415 . S
C1751 C1750 1.355 . S
C1751 C1753 1.419 . S
C1752 C1750 1.415 . S
C1752 C1757 1.425 . S
C1752 C1759 1.409 . S
C1753 H1745 0.930 . S
C1753 C1751 1.419 . S
C1753 C1754 1.362 . S
C1754 H1746 0.930 . S
C1754 C1753 1.362 . S
C1754 C1757 1.409 . S
C1755 H1747 0.930 . S
C1755 C1756 1.355 . S
C1755 C1757 1.415 . S
C1756 C1755 1.355 . S
C1756 C1758 1.419 . S
C1757 C1752 1.425 . S
C1757 C1754 1.409 . S
C1757 C1755 1.415 . S
C1758 H1748 0.930 . S
C1758 C1756 1.419 . S
C1758 C1759 1.362 . S
C1759 H1749 0.930 . S
C1759 C1752 1.409 . S
C1759 C1758 1.362 . S
H1760 C1766 0.930 . S
H1761 C1769 0.930 . S
H1762 C1770 0.930 . S
H1763 C1771 0.930 . S
H1764 C1774 0.930 . S
H1765 C1775 0.930 . S
C1766 H1760 0.930 . S
C1766 C1767 1.355 . S
C1766 C1768 1.415 . S
C1767 C1766 1.355 . S
C1767 C1769 1.419 . S
C1768 C1766 1.415 . S
C1768 C1773 1.425 . S
C1768 C1775 1.409 . S
C1769 H1761 0.930 . S
C1769 C1767 1.419 . S
C1769 C1770 1.362 . S
C1770 H1762 0.930 . S
C1770 C1769 1.362 . S
C1770 C1773 1.409 . S
C1771 H1763 0.930 . S
C1771 C1772 1.355 . S
C1771 C1773 1.415 . S
C1772 C1771 1.355 . S
C1772 C1774 1.419 . S
C1773 C1768 1.425 . S
C1773 C1770 1.409 . S
C1773 C1771 1.415 . S
C1774 H1764 0.930 . S
C1774 C1772 1.419 . S
C1774 C1775 1.362 . S
C1775 H1765 0.930 . S
C1775 C1768 1.409 . S
C1775 C1774 1.362 . S
H1776 C1782 0.930 . S
H1777 C1785 0.930 . S
H1778 C1786 0.930 . S
H1779 C1787 0.930 . S
H1780 C1790 0.930 . S
H1781 C1791 0.930 . S
C1782 H1776 0.930 . S
C1782 C1783 1.355 . S
C1782 C1784 1.415 . S
C1783 C1782 1.355 . S
C1783 C1785 1.419 . S
C1784 C1782 1.415 . S
C1784 C1789 1.425 . S
C1784 C1791 1.409 . S
C1785 H1777 0.930 . S
C1785 C1783 1.419 . S
C1785 C1786 1.362 . S
C1786 H1778 0.930 . S
C1786 C1785 1.362 . S
C1786 C1789 1.409 . S
C1787 H1779 0.930 . S
C1787 C1788 1.355 . S
C1787 C1789 1.415 . S
C1788 C1787 1.355 . S
C1788 C1790 1.419 . S
C1789 C1784 1.425 . S
C1789 C1786 1.409 . S
C1789 C1787 1.415 . S
C1790 H1780 0.930 . S
C1790 C1788 1.419 . S
C1790 C1791 1.362 . S
C1791 H1781 0.930 . S
C1791 C1784 1.409 . S
C1791 C1790 1.362 . S
H1792 C1798 0.930 . S
H1793 C1801 0.930 . S
H1794 C1802 0.930 . S
H1795 C1803 0.930 . S
H1796 C1806 0.930 . S
H1797 C1807 0.930 . S
C1798 H1792 0.930 . S
C1798 C1799 1.355 . S
C1798 C1800 1.415 . S
C1799 C1798 1.355 . S
C1799 C1801 1.419 . S
C1800 C1798 1.415 . S
C1800 C1805 1.425 . S
C1800 C1807 1.409 . S
C1801 H1793 0.930 . S
C1801 C1799 1.419 . S
C1801 C1802 1.362 . S
C1802 H1794 0.930 . S
C1802 C1801 1.362 . S
C1802 C1805 1.409 . S
C1803 H1795 0.930 . S
C1803 C1804 1.355 . S
C1803 C1805 1.415 . S
C1804 C1803 1.355 . S
C1804 C1806 1.419 . S
C1805 C1800 1.425 . S
C1805 C1802 1.409 . S
C1805 C1803 1.415 . S
C1806 H1796 0.930 . S
C1806 C1804 1.419 . S
C1806 C1807 1.362 . S
C1807 H1797 0.930 . S
C1807 C1800 1.409 . S
C1807 C1806 1.362 . S
H1808 C1814 0.930 . S
H1809 C1817 0.930 . S
H1810 C1818 0.930 . S
H1811 C1819 0.930 . S
H1812 C1822 0.930 . S
H1813 C1823 0.930 . S
C1814 H1808 0.930 . S
C1814 C1815 1.355 . S
C1814 C1816 1.415 . S
C1815 C1814 1.355 . S
C1815 C1817 1.419 . S
C1816 C1814 1.415 . S
C1816 C1821 1.425 . S
C1816 C1823 1.409 . S
C1817 H1809 0.930 . S
C1817 C1815 1.419 . S
C1817 C1818 1.362 . S
C1818 H1810 0.930 . S
C1818 C1817 1.362 . S
C1818 C1821 1.409 . S
C1819 H1811 0.930 . S
C1819 C1820 1.355 . S
C1819 C1821 1.415 . S
C1820 C1819 1.355 . S
C1820 C1822 1.419 . S
C1821 C1816 1.425 . S
C1821 C1818 1.409 . S
C1821 C1819 1.415 . S
C1822 H1812 0.930 . S
C1822 C1820 1.419 . S
C1822 C1823 1.362 . S
C1823 H1813 0.930 . S
C1823 C1816 1.409 . S
C1823 C1822 1.362 . S
H1824 C1830 0.930 . S
H1825 C1833 0.930 . S
H1826 C1834 0.930 . S
H1827 C1835 0.930 . S
H1828 C1838 0.930 . S
H1829 C1839 0.930 . S
C1830 H1824 0.930 . S
C1830 C1831 1.355 . S
C1830 C1832 1.415 . S
C1831 C1830 1.355 . S
C1831 C1833 1.419 . S
C1832 C1830 1.415 . S
C1832 C1837 1.425 . S
C1832 C1839 1.409 . S
C1833 H1825 0.930 . S
C1833 C1831 1.419 . S
C1833 C1834 1.362 . S
C1834 H1826 0.930 . S
C1834 C1833 1.362 . S
C1834 C1837 1.409 . S
C1835 H1827 0.930 . S
C1835 C1836 1.355 . S
C1835 C1837 1.415 . S
C1836 C1835 1.355 . S
C1836 C1838 1.419 . S
C1837 C1832 1.425 . S
C1837 C1834 1.409 . S
C1837 C1835 1.415 . S
C1838 H1828 0.930 . S
C1838 C1836 1.419 . S
C1838 C1839 1.362 . S
C1839 H1829 0.930 . S
C1839 C1832 1.409 . S
C1839 C1838 1.362 . S
H1840 C1846 0.930 . S
H1841 C1849 0.930 . S
H1842 C1850 0.930 . S
H1843 C1851 0.930 . S
H1844 C1854 0.930 . S
H1845 C1855 0.930 . S
C1846 H1840 0.930 . S
C1846 C1847 1.355 . S
C1846 C1848 1.415 . S
C1847 C1846 1.355 . S
C1847 C1849 1.419 . S
C1848 C1846 1.415 . S
C1848 C1853 1.425 . S
C1848 C1855 1.409 . S
C1849 H1841 0.930 . S
C1849 C1847 1.419 . S
C1849 C1850 1.362 . S
C1850 H1842 0.930 . S
C1850 C1849 1.362 . S
C1850 C1853 1.409 . S
C1851 H1843 0.930 . S
C1851 C1852 1.355 . S
C1851 C1853 1.415 . S
C1852 C1851 1.355 . S
C1852 C1854 1.419 . S
C1853 C1848 1.425 . S
C1853 C1850 1.409 . S
C1853 C1851 1.415 . S
C1854 H1844 0.930 . S
C1854 C1852 1.419 . S
C1854 C1855 1.362 . S
C1855 H1845 0.930 . S
C1855 C1848 1.409 . S
C1855 C1854 1.362 . S
H1856 C1862 0.930 . S
H1857 C1865 0.930 . S
H1858 C1866 0.930 . S
H1859 C1867 0.930 . S
H1860 C1870 0.930 . S
H1861 C1871 0.930 . S
C1862 H1856 0.930 . S
C1862 C1863 1.355 . S
C1862 C1864 1.415 . S
C1863 C1862 1.355 . S
C1863 C1865 1.419 . S
C1864 C1862 1.415 . S
C1864 C1869 1.425 . S
C1864 C1871 1.409 . S
C1865 H1857 0.930 . S
C1865 C1863 1.419 . S
C1865 C1866 1.362 . S
C1866 H1858 0.930 . S
C1866 C1865 1.362 . S
C1866 C1869 1.409 . S
C1867 H1859 0.930 . S
C1867 C1868 1.355 . S
C1867 C1869 1.415 . S
C1868 C1867 1.355 . S
C1868 C1870 1.419 . S
C1869 C1864 1.425 . S
C1869 C1866 1.409 . S
C1869 C1867 1.415 . S
C1870 H1860 0.930 . S
C1870 C1868 1.419 . S
C1870 C1871 1.362 . S
C1871 H1861 0.930 . S
C1871 C1864 1.409 . S
C1871 C1870 1.362 . S
H1872 C1878 0.930 . S
H1873 C1881 0.930 . S
H1874 C1882 0.930 . S
H1875 C1883 0.930 . S
H1876 C1886 0.930 . S
H1877 C1887 0.930 . S
C1878 H1872 0.930 . S
C1878 C1879 1.355 . S
C1878 C1880 1.415 . S
C1879 C1878 1.355 . S
C1879 C1881 1.419 . S
C1880 C1878 1.415 . S
C1880 C1885 1.425 . S
C1880 C1887 1.409 . S
C1881 H1873 0.930 . S
C1881 C1879 1.419 . S
C1881 C1882 1.362 . S
C1882 H1874 0.930 . S
C1882 C1881 1.362 . S
C1882 C1885 1.409 . S
C1883 H1875 0.930 . S
C1883 C1884 1.355 . S
C1883 C1885 1.415 . S
C1884 C1883 1.355 . S
C1884 C1886 1.419 . S
C1885 C1880 1.425 . S
C1885 C1882 1.409 . S
C1885 C1883 1.415 . S
C1886 H1876 0.930 . S
C1886 C1884 1.419 . S
C1886 C1887 1.362 . S
C1887 H1877 0.930 . S
C1887 C1880 1.409 . S
C1887 C1886 1.362 . S
H1888 C1894 0.930 . S
H1889 C1897 0.930 . S
H1890 C1898 0.930 . S
H1891 C1899 0.930 . S
H1892 C1902 0.930 . S
H1893 C1903 0.930 . S
C1894 H1888 0.930 . S
C1894 C1895 1.355 . S
C1894 C1896 1.415 . S
C1895 C1894 1.355 . S
C1895 C1897 1.419 . S
C1896 C1894 1.415 . S
C1896 C1901 1.425 . S
C1896 C1903 1.409 . S
C1897 H1889 0.930 . S
C1897 C1895 1.419 . S
C1897 C1898 1.362 . S
C1898 H1890 0.930 . S
C1898 C1897 1.362 . S
C1898 C1901 1.409 . S
C1899 H1891 0.930 . S
C1899 C1900 1.355 . S
C1899 C1901 1.415 . S
C1900 C1899 1.355 . S
C1900 C1902 1.419 . S
C1901 C1896 1.425 . S
C1901 C1898 1.409 . S
C1901 C1899 1.415 . S
C1902 H1892 0.930 . S
C1902 C1900 1.419 . S
C1902 C1903 1.362 . S
C1903 H1893 0.930 . S
C1903 C1896 1.409 . S
C1903 C1902 1.362 . S
H1904 C1910 0.930 . S
H1905 C1913 0.930 . S
H1906 C1914 0.930 . S
H1907 C1915 0.930 . S
H1908 C1918 0.930 . S
H1909 C1919 0.930 . S
C1910 H1904 0.930 . S
C1910 C1911 1.355 . S
C1910 C1912 1.415 . S
C1911 C1910 1.355 . S
C1911 C1913 1.419 . S
C1912 C1910 1.415 . S
C1912 C1917 1.425 . S
C1912 C1919 1.409 . S
C1913 H1905 0.930 . S
C1913 C1911 1.419 . S
C1913 C1914 1.362 . S
C1914 H1906 0.930 . S
C1914 C1913 1.362 . S
C1914 C1917 1.409 . S
C1915 H1907 0.930 . S
C1915 C1916 1.355 . S
C1915 C1917 1.415 . S
C1916 C1915 1.355 . S
C1916 C1918 1.419 . S
C1917 C1912 1.425 . S
C1917 C1914 1.409 . S
C1917 C1915 1.415 . S
C1918 H1908 0.930 . S
C1918 C1916 1.419 . S
C1918 C1919 1.362 . S
C1919 H1909 0.930 . S
C1919 C1912 1.409 . S
C1919 C1918 1.362 . S
H1920 C1926 0.930 . S
H1921 C1929 0.930 . S
H1922 C1930 0.930 . S
H1923 C1931 0.930 . S
H1924 C1934 0.930 . S
H1925 C1935 0.930 . S
C1926 H1920 0.930 . S
C1926 C1927 1.355 . S
C1926 C1928 1.415 . S
C1927 C1926 1.355 . S
C1927 C1929 1.419 . S
C1928 C1926 1.415 . S
C1928 C1933 1.425 . S
C1928 C1935 1.409 . S
C1929 H1921 0.930 . S
C1929 C1927 1.419 . S
C1929 C1930 1.362 . S
C1930 H1922 0.930 . S
C1930 C1929 1.362 . S
C1930 C1933 1.409 . S
C1931 H1923 0.930 . S
C1931 C1932 1.355 . S
C1931 C1933 1.415 . S
C1932 C1931 1.355 . S
C1932 C1934 1.419 . S
C1933 C1928 1.425 . S
C1933 C1930 1.409 . S
C1933 C1931 1.415 . S
C1934 H1924 0.930 . S
C1934 C1932 1.419 . S
C1934 C1935 1.362 . S
C1935 H1925 0.930 . S
C1935 C1928 1.409 . S
C1935 C1934 1.362 . S
H1936 C1942 0.930 . S
H1937 C1945 0.930 . S
H1938 C1946 0.930 . S
H1939 C1947 0.930 . S
H1940 C1950 0.930 . S
H1941 C1951 0.930 . S
C1942 H1936 0.930 . S
C1942 C1943 1.355 . S
C1942 C1944 1.415 . S
C1943 C1942 1.355 . S
C1943 C1945 1.419 . S
C1944 C1942 1.415 . S
C1944 C1949 1.425 . S
C1944 C1951 1.409 . S
C1945 H1937 0.930 . S
C1945 C1943 1.419 . S
C1945 C1946 1.362 . S
C1946 H1938 0.930 . S
C1946 C1945 1.362 . S
C1946 C1949 1.409 . S
C1947 H1939 0.930 . S
C1947 C1948 1.355 . S
C1947 C1949 1.415 . S
C1948 C1947 1.355 . S
C1948 C1950 1.419 . S
C1949 C1944 1.425 . S
C1949 C1946 1.409 . S
C1949 C1947 1.415 . S
C1950 H1940 0.930 . S
C1950 C1948 1.419 . S
C1950 C1951 1.362 . S
C1951 H1941 0.930 . S
C1951 C1944 1.409 . S
C1951 C1950 1.362 . S
H1952 C1958 0.930 . S
H1953 C1961 0.930 . S
H1954 C1962 0.930 . S
H1955 C1963 0.930 . S
H1956 C1966 0.930 . S
H1957 C1967 0.930 . S
C1958 H1952 0.930 . S
C1958 C1959 1.355 . S
C1958 C1960 1.415 . S
C1959 C1958 1.355 . S
C1959 C1961 1.419 . S
C1960 C1958 1.415 . S
C1960 C1965 1.425 . S
C1960 C1967 1.409 . S
C1961 H1953 0.930 . S
C1961 C1959 1.419 . S
C1961 C1962 1.362 . S
C1962 H1954 0.930 . S
C1962 C1961 1.362 . S
C1962 C1965 1.409 . S
C1963 H1955 0.930 . S
C1963 C1964 1.355 . S
C1963 C1965 1.415 . S
C1964 C1963 1.355 . S
C1964 C1966 1.419 . S
C1965 C1960 1.425 . S
C1965 C1962 1.409 . S
C1965 C1963 1.415 . S
C1966 H1956 0.930 . S
C1966 C1964 1.419 . S
C1966 C1967 1.362 . S
C1967 H1957 0.930 . S
C1967 C1960 1.409 . S
C1967 C1966 1.362 . S
H1968 C1974 0.930 . S
H1969 C1977 0.930 . S
H1970 C1978 0.930 . S
H1971 C1979 0.930 . S
H1972 C1982 0.930 . S
H1973 C1983 0.930 . S
C1974 H1968 0.930 . S
C1974 C1975 1.355 . S
C1974 C1976 1.415 . S
C1975 C1974 1.355 . S
C1975 C1977 1.419 . S
C1976 C1974 1.415 . S
C1976 C1981 1.425 . S
C1976 C1983 1.409 . S
C1977 H1969 0.930 . S
C1977 C1975 1.419 . S
C1977 C1978 1.362 . S
C1978 H1970 0.930 . S
C1978 C1977 1.362 . S
C1978 C1981 1.409 . S
C1979 H1971 0.930 . S
C1979 C1980 1.355 . S
C1979 C1981 1.415 . S
C1980 C1979 1.355 . S
C1980 C1982 1.419 . S
C1981 C1976 1.425 . S
C1981 C1978 1.409 . S
C1981 C1979 1.415 . S
C1982 H1972 0.930 . S
C1982 C1980 1.419 . S
C1982 C1983 1.362 . S
C1983 H1973 0.930 . S
C1983 C1976 1.409 . S
C1983 C1982 1.362 . S
H1984 C1990 0.930 . S
H1985 C1993 0.930 . S
H1986 C1994 0.930 . S
H1987 C1995 0.930 . S
H1988 C1998 0.930 . S
H1989 C1999 0.930 . S
C1990 H1984 0.930 . S
C1990 C1991 1.355 . S
C1990 C1992 1.415 . S
C1991 C1990 1.355 . S
C1991 C1993 1.419 . S
C1992 C1990 1.415 . S
C1992 C1997 1.425 . S
C1992 C1999 1.409 . S
C1993 H1985 0.930 . S
C1993 C1991 1.419 . S
C1993 C1994 1.362 . S
C1994 H1986 0.930 . S
C1994 C1993 1.362 . S
C1994 C1997 1.409 . S
C1995 H1987 0.930 . S
C1995 C1996 1.355 . S
C1995 C1997 1.415 . S
C1996 C1995 1.355 . S
C1996 C1998 1.419 . S
C1997 C1992 1.425 . S
C1997 C1994 1.409 . S
C1997 C1995 1.415 . S
C1998 H1988 0.930 . S
C1998 C1996 1.419 . S
C1998 C1999 1.362 . S
C1999 H1989 0.930 . S
C1999 C1992 1.409 . S
C1999 C1998 1.362 . S
H2000 C2006 0.930 . S
H2001 C2009 0.930 . S
H2002 C2010 0.930 . S
H2003 C2011 0.930 . S
H2004 C2014 0.930 . S
H2005 C2015 0.930 . S
C2006 H2000 0.930 . S
C2006 C2007 1.355 . S
C2006 C2008 1.415 . S
C2007 C2006 1.355 . S
C2007 C2009 1.419 . S
C2008 C2006 1.415 . S
C2008 C2013 1.425 . S
C2008 C2015 1.409 . S
C2009 H2001 0.930 . S
C2009 C2007 1.419 . S
C2009 C2010 1.362 . S
C2010 H2002 0.930 . S
C2010 C2009 1.362 . S
C2010 C2013 1.409 . S
C2011 H2003 0.930 . S
C2011 C2012 1.355 . S
C2011 C2013 1.415 . S
C2012 C2011 1.355 . S
C2012 C2014 1.419 . S
C2013 C2008 1.425 . S
C2013 C2010 1.409 . S
C2013 C2011 1.415 . S
C2014 H2004 0.930 . S
C2014 C2012 1.419 . S
C2014 C2015 1.362 . S
C2015 H2005 0.930 . S
C2015 C2008 1.409 . S
C2015 C2014 1.362 . S
H2016 C2022 0.930 . S
H2017 C2025 0.930 . S
H2018 C2026 0.930 . S
H2019 C2027 0.930 . S
H2020 C2030 0.930 . S
H2021 C2031 0.930 . S
C2022 H2016 0.930 . S
C2022 C2023 1.355 . S
C2022 C2024 1.415 . S
C2023 C2022 1.355 . S
C2023 C2025 1.419 . S
C2024 C2022 1.415 . S
C2024 C2029 1.425 . S
C2024 C2031 1.409 . S
C2025 H2017 0.930 . S
C2025 C2023 1.419 . S
C2025 C2026 1.362 . S
C2026 H2018 0.930 . S
C2026 C2025 1.362 . S
C2026 C2029 1.409 . S
C2027 H2019 0.930 . S
C2027 C2028 1.355 . S
C2027 C2029 1.415 . S
C2028 C2027 1.355 . S
C2028 C2030 1.419 . S
C2029 C2024 1.425 . S
C2029 C2026 1.409 . S
C2029 C2027 1.415 . S
C2030 H2020 0.930 . S
C2030 C2028 1.419 . S
C2030 C2031 1.362 . S
C2031 H2021 0.930 . S
C2031 C2024 1.409 . S
C2031 C2030 1.362 . S
H2032 C2038 0.930 . S
H2033 C2041 0.930 . S
H2034 C2042 0.930 . S
H2035 C2043 0.930 . S
H2036 C2046 0.930 . S
H2037 C2047 0.930 . S
C2038 H2032 0.930 . S
C2038 C2039 1.355 . S
C2038 C2040 1.415 . S
C2039 C2038 1.355 . S
C2039 C2041 1.419 . S
C2040 C2038 1.415 . S
C2040 C2045 1.425 . S
C2040 C2047 1.409 . S
C2041 H2033 0.930 . S
C2041 C2039 1.419 . S
C2041 C2042 1.362 . S
C2042 H2034 0.930 . S
C2042 C2041 1.362 . S
C2042 C2045 1.409 . S
C2043 H2035 0.930 . S
C2043 C2044 1.355 . S
C2043 C2045 1.415 . S
C2044 C2043 1.355 . S
C2044 C2046 1.419 . S
C2045 C2040 1.425 . S
C2045 C2042 1.409 . S
C2045 C2043 1.415 . S
C2046 H2036 0.930 . S
C2046 C2044 1.419 . S
C2046 C2047 1.362 . S
C2047 H2037 0.930 . S
C2047 C2040 1.409 . S
C2047 C2046 1.362 . S
H2048 C2054 0.930 . S
H2049 C2057 0.930 . S
H2050 C2058 0.930 . S
H2051 C2059 0.930 . S
H2052 C2062 0.930 . S
H2053 C2063 0.930 . S
C2054 H2048 0.930 . S
C2054 C2055 1.355 . S
C2054 C2056 1.415 . S
C2055 C2054 1.355 . S
C2055 C2057 1.419 . S
C2056 C2054 1.415 . S
C2056 C2061 1.425 . S
C2056 C2063 1.409 . S
C2057 H2049 0.930 . S
C2057 C2055 1.419 . S
C2057 C2058 1.362 . S
C2058 H2050 0.930 . S
C2058 C2057 1.362 . S
C2058 C2061 1.409 . S
C2059 H2051 0.930 . S
C2059 C2060 1.355 . S
C2059 C2061 1.415 . S
C2060 C2059 1.355 . S
C2060 C2062 1.419 . S
C2061 C2056 1.425 . S
C2061 C2058 1.409 . S
C2061 C2059 1.415 . S
C2062 H2052 0.930 . S
C2062 C2060 1.419 . S
C2062 C2063 1.362 . S
C2063 H2053 0.930 . S
C2063 C2056 1.409 . S
C2063 C2062 1.362 . S
H2064 C2070 0.930 . S
H2065 C2073 0.930 . S
H2066 C2074 0.930 . S
H2067 C2075 0.930 . S
H2068 C2078 0.930 . S
H2069 C2079 0.930 . S
C2070 H2064 0.930 . S
C2070 C2071 1.355 . S
C2070 C2072 1.415 . S
C2071 C2070 1.355 . S
C2071 C2073 1.419 . S
C2072 C2070 1.415 . S
C2072 C2077 1.425 . S
C2072 C2079 1.409 . S
C2073 H2065 0.930 . S
C2073 C2071 1.419 . S
C2073 C2074 1.362 . S
C2074 H2066 0.930 . S
C2074 C2073 1.362 . S
C2074 C2077 1.409 . S
C2075 H2067 0.930 . S
C2075 C2076 1.355 . S
C2075 C2077 1.415 . S
C2076 C2075 1.355 . S
C2076 C2078 1.419 . S
C2077 C2072 1.425 . S
C2077 C2074 1.409 . S
C2077 C2075 1.415 . S
C2078 H2068 0.930 . S
C2078 C2076 1.419 . S
C2078 C2079 1.362 . S
C2079 H2069 0.930 . S
C2079 C2072 1.409 . S
C2079 C2078 1.362 . S
H2080 C2086 0.930 . S
H2081 C2089 0.930 . S
H2082 C2090 0.930 . S
H2083 C2091 0.930 . S
H2084 C2094 0.930 . S
H2085 C2095 0.930 . S
C2086 H2080 0.930 . S
C2086 C2087 1.355 . S
C2086 C2088 1.415 . S
C2087 C2086 1.355 . S
C2087 C2089 1.419 . S
C2088 C2086 1.415 . S
C2088 C2093 1.425 . S
C2088 C2095 1.409 . S
C2089 H2081 0.930 . S
C2089 C2087 1.419 . S
C2089 C2090 1.362 . S
C2090 H2082 0.930 . S
C2090 C2089 1.362 . S
C2090 C2093 1.409 . S
C2091 H2083 0.930 . S
C2091 C2092 1.355 . S
C2091 C2093 1.415 . S
C2092 C2091 1.355 . S
C2092 C2094 1.419 . S
C2093 C2088 1.425 . S
C2093 C2090 1.409 . S
C2093 C2091 1.415 . S
C2094 H2084 0.930 . S
C2094 C2092 1.419 . S
C2094 C2095 1.362 . S
C2095 H2085 0.930 . S
C2095 C2088 1.409 . S
C2095 C2094 1.362 . S
H2096 C2102 0.930 . S
H2097 C2105 0.930 . S
H2098 C2106 0.930 . S
H2099 C2107 0.930 . S
H2100 C2110 0.930 . S
H2101 C2111 0.930 . S
C2102 H2096 0.930 . S
C2102 C2103 1.355 . S
C2102 C2104 1.415 . S
C2103 C2102 1.355 . S
C2103 C2105 1.419 . S
C2104 C2102 1.415 . S
C2104 C2109 1.425 . S
C2104 C2111 1.409 . S
C2105 H2097 0.930 . S
C2105 C2103 1.419 . S
C2105 C2106 1.362 . S
C2106 H2098 0.930 . S
C2106 C2105 1.362 . S
C2106 C2109 1.409 . S
C2107 H2099 0.930 . S
C2107 C2108 1.355 . S
C2107 C2109 1.415 . S
C2108 C2107 1.355 . S
C2108 C2110 1.419 . S
C2109 C2104 1.425 . S
C2109 C2106 1.409 . S
C2109 C2107 1.415 . S
C2110 H2100 0.930 . S
C2110 C2108 1.419 . S
C2110 C2111 1.362 . S
C2111 H2101 0.930 . S
C2111 C2104 1.409 . S
C2111 C2110 1.362 . S
H2112 C2118 0.930 . S
H2113 C2121 0.930 . S
H2114 C2122 0.930 . S
H2115 C2123 0.930 . S
H2116 C2126 0.930 . S
H2117 C2127 0.930 . S
C2118 H2112 0.930 . S
C2118 C2119 1.355 . S
C2118 C2120 1.415 . S
C2119 C2118 1.355 . S
C2119 C2121 1.419 . S
C2120 C2118 1.415 . S
C2120 C2125 1.425 . S
C2120 C2127 1.409 . S
C2121 H2113 0.930 . S
C2121 C2119 1.419 . S
C2121 C2122 1.362 . S
C2122 H2114 0.930 . S
C2122 C2121 1.362 . S
C2122 C2125 1.409 . S
C2123 H2115 0.930 . S
C2123 C2124 1.355 . S
C2123 C2125 1.415 . S
C2124 C2123 1.355 . S
C2124 C2126 1.419 . S
C2125 C2120 1.425 . S
C2125 C2122 1.409 . S
C2125 C2123 1.415 . S
C2126 H2116 0.930 . S
C2126 C2124 1.419 . S
C2126 C2127 1.362 . S
C2127 H2117 0.930 . S
C2127 C2120 1.409 . S
C2127 C2126 1.362 . S
H2128 C2134 0.930 . S
H2129 C2137 0.930 . S
H2130 C2138 0.930 . S
H2131 C2139 0.930 . S
H2132 C2142 0.930 . S
H2133 C2143 0.930 . S
C2134 H2128 0.930 . S
C2134 C2135 1.355 . S
C2134 C2136 1.415 . S
C2135 C2134 1.355 . S
C2135 C2137 1.419 . S
C2136 C2134 1.415 . S
C2136 C2141 1.425 . S
C2136 C2143 1.409 . S
C2137 H2129 0.930 . S
C2137 C2135 1.419 . S
C2137 C2138 1.362 . S
C2138 H2130 0.930 . S
C2138 C2137 1.362 . S
C2138 C2141 1.409 . S
C2139 H2131 0.930 . S
C2139 C2140 1.355 . S
C2139 C2141 1.415 . S
C2140 C2139 1.355 . S
C2140 C2142 1.419 . S
C2141 C2136 1.425 . S
C2141 C2138 1.409 . S
C2141 C2139 1.415 . S
C2142 H2132 0.930 . S
C2142 C2140 1.419 . S
C2142 C2143 1.362 . S
C2143 H2133 0.930 . S
C2143 C2136 1.409 . S
C2143 C2142 1.362 . S
H2144 C2150 0.930 . S
H2145 C2153 0.930 . S
H2146 C2154 0.930 . S
H2147 C2155 0.930 . S
H2148 C2158 0.930 . S
H2149 C2159 0.930 . S
C2150 H2144 0.930 . S
C2150 C2151 1.355 . S
C2150 C2152 1.415 . S
C2151 C2150 1.355 . S
C2151 C2153 1.419 . S
C2152 C2150 1.415 . S
C2152 C2157 1.425 . S
C2152 C2159 1.409 . S
C2153 H2145 0.930 . S
C2153 C2151 1.419 . S
C2153 C2154 1.362 . S
C2154 H2146 0.930 . S
C2154 C2153 1.362 . S
C2154 C2157 1.409 . S
C2155 H2147 0.930 . S
C2155 C2156 1.355 . S
C2155 C2157 1.415 . S
C2156 C2155 1.355 . S
C2156 C2158 1.419 . S
C2157 C2152 1.425 . S
C2157 C2154 1.409 . S
C2157 C2155 1.415 . S
C2158 H2148 0.930 . S
C2158 C2156 1.419 . S
C2158 C2159 1.362 . S
C2159 H2149 0.930 . S
C2159 C2152 1.409 . S
C2159 C2158 1.362 . S
H2160 C2166 0.930 . S
H2161 C2169 0.930 . S
H2162 C2170 0.930 . S
H2163 C2171 0.930 . S
H2164 C2174 0.930 . S
H2165 C2175 0.930 . S
C2166 H2160 0.930 . S
C2166 C2167 1.355 . S
C2166 C2168 1.415 . S
C2167 C2166 1.355 . S
C2167 C2169 1.419 . S
C2168 C2166 1.415 . S
C2168 C2173 1.425 . S
C2168 C2175 1.409 . S
C2169 H2161 0.930 . S
C2169 C2167 1.419 . S
C2169 C2170 1.362 . S
C2170 H2162 0.930 . S
C2170 C2169 1.362 . S
C2170 C2173 1.409 . S
C2171 H2163 0.930 . S
C2171 C2172 1.355 . S
C2171 C2173 1.415 . S
C2172 C2171 1.355 . S
C2172 C2174 1.419 . S
C2173 C2168 1.425 . S
C2173 C2170 1.409 . S
C2173 C2171 1.415 . S
C2174 H2164 0.930 . S
C2174 C2172 1.419 . S
C2174 C2175 1.362 . S
C2175 H2165 0.930 . S
C2175 C2168 1.409 . S
C2175 C2174 1.362 . S
H2176 C2182 0.930 . S
H2177 C2185 0.930 . S
H2178 C2186 0.930 . S
H2179 C2187 0.930 . S
H2180 C2190 0.930 . S
H2181 C2191 0.930 . S
C2182 H2176 0.930 . S
C2182 C2183 1.355 . S
C2182 C2184 1.415 . S
C2183 C2182 1.355 . S
C2183 C2185 1.419 . S
C2184 C2182 1.415 . S
C2184 C2189 1.425 . S
C2184 C2191 1.409 . S
C2185 H2177 0.930 . S
C2185 C2183 1.419 . S
C2185 C2186 1.362 . S
C2186 H2178 0.930 . S
C2186 C2185 1.362 . S
C2186 C2189 1.409 . S
C2187 H2179 0.930 . S
C2187 C2188 1.355 . S
C2187 C2189 1.415 . S
C2188 C2187 1.355 . S
C2188 C2190 1.419 . S
C2189 C2184 1.425 . S
C2189 C2186 1.409 . S
C2189 C2187 1.415 . S
C2190 H2180 0.930 . S
C2190 C2188 1.419 . S
C2190 C2191 1.362 . S
C2191 H2181 0.930 . S
C2191 C2184 1.409 . S
C2191 C2190 1.362 . S
H2192 C2198 0.930 . S
H2193 C2201 0.930 . S
H2194 C2202 0.930 . S
H2195 C2203 0.930 . S
H2196 C2206 0.930 . S
H2197 C2207 0.930 . S
C2198 H2192 0.930 . S
C2198 C2199 1.355 . S
C2198 C2200 1.415 . S
C2199 C2198 1.355 . S
C2199 C2201 1.419 . S
C2200 C2198 1.415 . S
C2200 C2205 1.425 . S
C2200 C2207 1.409 . S
C2201 H2193 0.930 . S
C2201 C2199 1.419 . S
C2201 C2202 1.362 . S
C2202 H2194 0.930 . S
C2202 C2201 1.362 . S
C2202 C2205 1.409 . S
C2203 H2195 0.930 . S
C2203 C2204 1.355 . S
C2203 C2205 1.415 . S
C2204 C2203 1.355 . S
C2204 C2206 1.419 . S
C2205 C2200 1.425 . S
C2205 C2202 1.409 . S
C2205 C2203 1.415 . S
C2206 H2196 0.930 . S
C2206 C2204 1.419 . S
C2206 C2207 1.362 . S
C2207 H2197 0.930 . S
C2207 C2200 1.409 . S
C2207 C2206 1.362 . S
H2208 C2214 0.930 . S
H2209 C2217 0.930 . S
H2210 C2218 0.930 . S
H2211 C2219 0.930 . S
H2212 C2222 0.930 . S
H2213 C2223 0.930 . S
C2214 H2208 0.930 . S
C2214 C2215 1.355 . S
C2214 C2216 1.415 . S
C2215 C2214 1.355 . S
C2215 C2217 1.419 . S
C2216 C2214 1.415 . S
C2216 C2221 1.425 . S
C2216 C2223 1.409 . S
C2217 H2209 0.930 . S
C2217 C2215 1.419 . S
C2217 C2218 1.362 . S
C2218 H2210 0.930 . S
C2218 C2217 1.362 . S
C2218 C2221 1.409 . S
C2219 H2211 0.930 . S
C2219 C2220 1.355 . S
C2219 C2221 1.415 . S
C2220 C2219 1.355 . S
C2220 C2222 1.419 . S
C2221 C2216 1.425 . S
C2221 C2218 1.409 . S
C2221 C2219 1.415 . S
C2222 H2212 0.930 . S
C2222 C2220 1.419 . S
C2222 C2223 1.362 . S
C2223 H2213 0.930 . S
C2223 C2216 1.409 . S
C2223 C2222 1.362 . S
H2224 C2230 0.930 . S
H2225 C2233 0.930 . S
H2226 C2234 0.930 . S
H2227 C2235 0.930 . S
H2228 C2238 0.930 . S
H2229 C2239 0.930 . S
C2230 H2224 0.930 . S
C2230 C2231 1.355 . S
C2230 C2232 1.415 . S
C2231 C2230 1.355 . S
C2231 C2233 1.419 . S
C2232 C2230 1.415 . S
C2232 C2237 1.425 . S
C2232 C2239 1.409 . S
C2233 H2225 0.930 . S
C2233 C2231 1.419 . S
C2233 C2234 1.362 . S
C2234 H2226 0.930 . S
C2234 C2233 1.362 . S
C2234 C2237 1.409 . S
C2235 H2227 0.930 . S
C2235 C2236 1.355 . S
C2235 C2237 1.415 . S
C2236 C2235 1.355 . S
C2236 C2238 1.419 . S
C2237 C2232 1.425 . S
C2237 C2234 1.409 . S
C2237 C2235 1.415 . S
C2238 H2228 0.930 . S
C2238 C2236 1.419 . S
C2238 C2239 1.362 . S
C2239 H2229 0.930 . S
C2239 C2232 1.409 . S
C2239 C2238 1.362 . S
H2240 C2246 0.930 . S
H2241 C2249 0.930 . S
H2242 C2250 0.930 . S
H2243 C2251 0.930 . S
H2244 C2254 0.930 . S
H2245 C2255 0.930 . S
C2246 H2240 0.930 . S
C2246 C2247 1.355 . S
C2246 C2248 1.415 . S
C2247 C2246 1.355 . S
C2247 C2249 1.419 . S
C2248 C2246 1.415 . S
C2248 C2253 1.425 . S
C2248 C2255 1.409 . S
C2249 H2241 0.930 . S
C2249 C2247 1.419 . S
C2249 C2250 1.362 . S
C2250 H2242 0.930 . S
C2250 C2249 1.362 . S
C2250 C2253 1.409 . S
C2251 H2243 0.930 . S
C2251 C2252 1.355 . S
C2251 C2253 1.415 . S
C2252 C2251 1.355 . S
C2252 C2254 1.419 . S
C2253 C2248 1.425 . S
C2253 C2250 1.409 . S
C2253 C2251 1.415 . S
C2254 H2244 0.930 . S
C2254 C2252 1.419 . S
C2254 C2255 1.362 . S
C2255 H2245 0.930 . S
C2255 C2248 1.409 . S
C2255 C2254 1.362 . S
H2256 C2262 0.930 . S
H2257 C2265 0.930 . S
H2258 C2266 0.930 . S
H2259 C2267 0.930 . S
H2260 C2270 0.930 . S
H2261 C2271 0.930 . S
C2262 H2256 0.930 . S
C2262 C2263 1.355 . S
C2262 C2264 1.415 . S
C2263 C2262 1.355 . S
C2263 C2265 1.419 . S
C2264 C2262 1.415 . S
C2264 C2269 1.425 . S
C2264 C2271 1.409 . S
C2265 H2257 0.930 . S
C2265 C2263 1.419 . S
C2265 C2266 1.362 . S
C2266 H2258 0.930 . S
C2266 C2265 1.362 . S
C2266 C2269 1.409 . S
C2267 H2259 0.930 . S
C2267 C2268 1.355 . S
C2267 C2269 1.415 . S
C2268 C2267 1.355 . S
C2268 C2270 1.419 . S
C2269 C2264 1.425 . S
C2269 C2266 1.409 . S
C2269 C2267 1.415 . S
C2270 H2260 0.930 . S
C2270 C2268 1.419 . S
C2270 C2271 1.362 . S
C2271 H2261 0.930 . S
C2271 C2264 1.409 . S
C2271 C2270 1.362 . S
H2272 C2278 0.930 . S
H2273 C2281 0.930 . S
H2274 C2282 0.930 . S
H2275 C2283 0.930 . S
H2276 C2286 0.930 . S
H2277 C2287 0.930 . S
C2278 H2272 0.930 . S
C2278 C2279 1.355 . S
C2278 C2280 1.415 . S
C2279 C2278 1.355 . S
C2279 C2281 1.419 . S
C2280 C2278 1.415 . S
C2280 C2285 1.425 . S
C2280 C2287 1.409 . S
C2281 H2273 0.930 . S
C2281 C2279 1.419 . S
C2281 C2282 1.362 . S
C2282 H2274 0.930 . S
C2282 C2281 1.362 . S
C2282 C2285 1.409 . S
C2283 H2275 0.930 . S
C2283 C2284 1.355 . S
C2283 C2285 1.415 . S
C2284 C2283 1.355 . S
C2284 C2286 1.419 . S
C2285 C2280 1.425 . S
C2285 C2282 1.409 . S
C2285 C2283 1.415 . S
C2286 H2276 0.930 . S
C2286 C2284 1.419 . S
C2286 C2287 1.362 . S
C2287 H2277 0.930 . S
C2287 C2280 1.409 . S
C2287 C2286 1.362 . S
H2288 C2294 0.930 . S
H2289 C2297 0.930 . S
H2290 C2298 0.930 . S
H2291 C2299 0.930 . S
H2292 C2302 0.930 . S
H2293 C2303 0.930 . S
C2294 H2288 0.930 . S
C2294 C2295 1.355 . S
C2294 C2296 1.415 . S
C2295 C2294 1.355 . S
C2295 C2297 1.419 . S
C2296 C2294 1.415 . S
C2296 C2301 1.425 . S
C2296 C2303 1.409 . S
C2297 H2289 0.930 . S
C2297 C2295 1.419 . S
C2297 C2298 1.362 . S
C2298 H2290 0.930 . S
C2298 C2297 1.362 . S
C2298 C2301 1.409 . S
C2299 H2291 0.930 . S
C2299 C2300 1.355 . S
C2299 C2301 1.415 . S
C2300 C2299 1.355 . S
C2300 C2302 1.419 . S
C2301 C2296 1.425 . S
C2301 C2298 1.409 . S
C2301 C2299 1.415 . S
C2302 H2292 0.930 . S
C2302 C2300 1.419 . S
C2302 C2303 1.362 . S
C2303 H2293 0.930 . S
C2303 C2296 1.409 . S
C2303 C2302 1.362 . S
H2304 C2310 0.930 . S
H2305 C2313 0.930 . S
H2306 C2314 0.930 . S
H2307 C2315 0.930 . S
H2308 C2318 0.930 . S
H2309 C2319 0.930 . S
C2310 H2304 0.930 . S
C2310 C2311 1.355 . S
C2310 C2312 1.415 . S
C2311 C2310 1.355 . S
C2311 C2313 1.419 . S
C2312 C2310 1.415 . S
C2312 C2317 1.425 . S
C2312 C2319 1.409 . S
C2313 H2305 0.930 . S
C2313 C2311 1.419 . S
C2313 C2314 1.362 . S
C2314 H2306 0.930 . S
C2314 C2313 1.362 . S
C2314 C2317 1.409 . S
C2315 H2307 0.930 . S
C2315 C2316 1.355 . S
C2315 C2317 1.415 . S
C2316 C2315 1.355 . S
C2316 C2318 1.419 . S
C2317 C2312 1.425 . S
C2317 C2314 1.409 . S
C2317 C2315 1.415 . S
C2318 H2308 0.930 . S
C2318 C2316 1.419 . S
C2318 C2319 1.362 . S
C2319 H2309 0.930 . S
C2319 C2312 1.409 . S
C2319 C2318 1.362 . S
H2320 C2326 0.930 . S
H2321 C2329 0.930 . S
H2322 C2330 0.930 . S
H2323 C2331 0.930 . S
H2324 C2334 0.930 . S
H2325 C2335 0.930 . S
C2326 H2320 0.930 . S
C2326 C2327 1.355 . S
C2326 C2328 1.415 . S
C2327 C2326 1.355 . S
C2327 C2329 1.419 . S
C2328 C2326 1.415 . S
C2328 C2333 1.425 . S
C2328 C2335 1.409 . S
C2329 H2321 0.930 . S
C2329 C2327 1.419 . S
C2329 C2330 1.362 . S
C2330 H2322 0.930 . S
C2330 C2329 1.362 . S
C2330 C2333 1.409 . S
C2331 H2323 0.930 . S
C2331 C2332 1.355 . S
C2331 C2333 1.415 . S
C2332 C2331 1.355 . S
C2332 C2334 1.419 . S
C2333 C2328 1.425 . S
C2333 C2330 1.409 . S
C2333 C2331 1.415 . S
C2334 H2324 0.930 . S
C2334 C2332 1.419 . S
C2334 C2335 1.362 . S
C2335 H2325 0.930 . S
C2335 C2328 1.409 . S
C2335 C2334 1.362 . S
H2336 C2342 0.930 . S
H2337 C2345 0.930 . S
H2338 C2346 0.930 . S
H2339 C2347 0.930 . S
H2340 C2350 0.930 . S
H2341 C2351 0.930 . S
C2342 H2336 0.930 . S
C2342 C2343 1.355 . S
C2342 C2344 1.415 . S
C2343 C2342 1.355 . S
C2343 C2345 1.419 . S
C2344 C2342 1.415 . S
C2344 C2349 1.425 . S
C2344 C2351 1.409 . S
C2345 H2337 0.930 . S
C2345 C2343 1.419 . S
C2345 C2346 1.362 . S
C2346 H2338 0.930 . S
C2346 C2345 1.362 . S
C2346 C2349 1.409 . S
C2347 H2339 0.930 . S
C2347 C2348 1.355 . S
C2347 C2349 1.415 . S
C2348 C2347 1.355 . S
C2348 C2350 1.419 . S
C2349 C2344 1.425 . S
C2349 C2346 1.409 . S
C2349 C2347 1.415 . S
C2350 H2340 0.930 . S
C2350 C2348 1.419 . S
C2350 C2351 1.362 . S
C2351 H2341 0.930 . S
C2351 C2344 1.409 . S
C2351 C2350 1.362 . S
H2352 C2358 0.930 . S
H2353 C2361 0.930 . S
H2354 C2362 0.930 . S
H2355 C2363 0.930 . S
H2356 C2366 0.930 . S
H2357 C2367 0.930 . S
C2358 H2352 0.930 . S
C2358 C2359 1.355 . S
C2358 C2360 1.415 . S
C2359 C2358 1.355 . S
C2359 C2361 1.419 . S
C2360 C2358 1.415 . S
C2360 C2365 1.425 . S
C2360 C2367 1.409 . S
C2361 H2353 0.930 . S
C2361 C2359 1.419 . S
C2361 C2362 1.362 . S
C2362 H2354 0.930 . S
C2362 C2361 1.362 . S
C2362 C2365 1.409 . S
C2363 H2355 0.930 . S
C2363 C2364 1.355 . S
C2363 C2365 1.415 . S
C2364 C2363 1.355 . S
C2364 C2366 1.419 . S
C2365 C2360 1.425 . S
C2365 C2362 1.409 . S
C2365 C2363 1.415 . S
C2366 H2356 0.930 . S
C2366 C2364 1.419 . S
C2366 C2367 1.362 . S
C2367 H2357 0.930 . S
C2367 C2360 1.409 . S
C2367 C2366 1.362 . S
H2368 C2374 0.930 . S
H2369 C2377 0.930 . S
H2370 C2378 0.930 . S
H2371 C2379 0.930 . S
H2372 C2382 0.930 . S
H2373 C2383 0.930 . S
C2374 H2368 0.930 . S
C2374 C2375 1.355 . S
C2374 C2376 1.415 . S
C2375 C2374 1.355 . S
C2375 C2377 1.419 . S
C2376 C2374 1.415 . S
C2376 C2381 1.425 . S
C2376 C2383 1.409 . S
C2377 H2369 0.930 . S
C2377 C2375 1.419 . S
C2377 C2378 1.362 . S
C2378 H2370 0.930 . S
C2378 C2377 1.362 . S
C2378 C2381 1.409 . S
C2379 H2371 0.930 . S
C2379 C2380 1.355 . S
C2379 C2381 1.415 . S
C2380 C2379 1.355 . S
C2380 C2382 1.419 . S
C2381 C2376 1.425 . S
C2381 C2378 1.409 . S
C2381 C2379 1.415 . S
C2382 H2372 0.930 . S
C2382 C2380 1.419 . S
C2382 C2383 1.362 . S
C2383 H2373 0.930 . S
C2383 C2376 1.409 . S
C2383 C2382 1.362 . S
H2384 C2390 0.930 . S
H2385 C2393 0.930 . S
H2386 C2394 0.930 . S
H2387 C2395 0.930 . S
H2388 C2398 0.930 . S
H2389 C2399 0.930 . S
C2390 H2384 0.930 . S
C2390 C2391 1.355 . S
C2390 C2392 1.415 . S
C2391 C2390 1.355 . S
C2391 C2393 1.419 . S
C2392 C2390 1.415 . S
C2392 C2397 1.425 . S
C2392 C2399 1.409 . S
C2393 H2385 0.930 . S
C2393 C2391 1.419 . S
C2393 C2394 1.362 . S
C2394 H2386 0.930 . S
C2394 C2393 1.362 . S
C2394 C2397 1.409 . S
C2395 H2387 0.930 . S
C2395 C2396 1.355 . S
C2395 C2397 1.415 . S
C2396 C2395 1.355 . S
C2396 C2398 1.419 . S
C2397 C2392 1.425 . S
C2397 C2394 1.409 . S
C2397 C2395 1.415 . S
C2398 H2388 0.930 . S
C2398 C2396 1.419 . S
C2398 C2399 1.362 . S
C2399 H2389 0.930 . S
C2399 C2392 1.409 . S
C2399 C2398 1.362 . S
H2400 C2406 0.930 . S
H2401 C2409 0.930 . S
H2402 C2410 0.930 . S
H2403 C2411 0.930 . S
H2404 C2414 0.930 . S
H2405 C2415 0.930 . S
C2406 H2400 0.930 . S
C2406 C2407 1.355 . S
C2406 C2408 1.415 . S
C2407 C2406 1.355 . S
C2407 C2409 1.419 . S
C2408 C2406 1.415 . S
C2408 C2413 1.425 . S
C2408 C2415 1.409 . S
C2409 H2401 0.930 . S
C2409 C2407 1.419 . S
C2409 C2410 1.362 . S
C2410 H2402 0.930 . S
C2410 C2409 1.362 . S
C2410 C2413 1.409 . S
C2411 H2403 0.930 . S
C2411 C2412 1.355 . S
C2411 C2413 1.415 . S
C2412 C2411 1.355 . S
C2412 C2414 1.419 . S
C2413 C2408 1.425 . S
C2413 C2410 1.409 . S
C2413 C2411 1.415 . S
C2414 H2404 0.930 . S
C2414 C2412 1.419 . S
C2414 C2415 1.362 . S
C2415 H2405 0.930 . S
C2415 C2408 1.409 . S
C2415 C2414 1.362 . S
H2416 C2422 0.930 . S
H2417 C2425 0.930 . S
H2418 C2426 0.930 . S
H2419 C2427 0.930 . S
H2420 C2430 0.930 . S
H2421 C2431 0.930 . S
C2422 H2416 0.930 . S
C2422 C2423 1.355 . S
C2422 C2424 1.415 . S
C2423 C2422 1.355 . S
C2423 C2425 1.419 . S
C2424 C2422 1.415 . S
C2424 C2429 1.425 . S
C2424 C2431 1.409 . S
C2425 H2417 0.930 . S
C2425 C2423 1.419 . S
C2425 C2426 1.362 . S
C2426 H2418 0.930 . S
C2426 C2425 1.362 . S
C2426 C2429 1.409 . S
C2427 H2419 0.930 . S
C2427 C2428 1.355 . S
C2427 C2429 1.415 . S
C2428 C2427 1.355 . S
C2428 C2430 1.419 . S
C2429 C2424 1.425 . S
C2429 C2426 1.409 . S
C2429 C2427 1.415 . S
C2430 H2420 0.930 . S
C2430 C2428 1.419 . S
C2430 C2431 1.362 . S
C2431 H2421 0.930 . S
C2431 C2424 1.409 . S
C2431 C2430 1.362 . S
H2432 C2438 0.930 . S
H2433 C2441 0.930 . S
H2434 C2442 0.930 . S
H2435 C2443 0.930 . S
H2436 C2446 0.930 . S
H2437 C2447 0.930 . S
C2438 H2432 0.930 . S
C2438 C2439 1.355 . S
C2438 C2440 1.415 . S
C2439 C2438 1.355 . S
C2439 C2441 1.419 . S
C2440 C2438 1.415 . S
C2440 C2445 1.425 . S
C2440 C2447 1.409 . S
C2441 H2433 0.930 . S
C2441 C2439 1.419 . S
C2441 C2442 1.362 . S
C2442 H2434 0.930 . S
C2442 C2441 1.362 . S
C2442 C2445 1.409 . S
C2443 H2435 0.930 . S
C2443 C2444 1.355 . S
C2443 C2445 1.415 . S
C2444 C2443 1.355 . S
C2444 C2446 1.419 . S
C2445 C2440 1.425 . S
C2445 C2442 1.409 . S
C2445 C2443 1.415 . S
C2446 H2436 0.930 . S
C2446 C2444 1.419 . S
C2446 C2447 1.362 . S
C2447 H2437 0.930 . S
C2447 C2440 1.409 . S
C2447 C2446 1.362 . S
H2448 C2454 0.930 . S
H2449 C2457 0.930 . S
H2450 C2458 0.930 . S
H2451 C2459 0.930 . S
H2452 C2462 0.930 . S
H2453 C2463 0.930 . S
C2454 H2448 0.930 . S
C2454 C2455 1.355 . S
C2454 C2456 1.415 . S
C2455 C2454 1.355 . S
C2455 C2457 1.419 . S
C2456 C2454 1.415 . S
C2456 C2461 1.425 . S
C2456 C2463 1.409 . S
C2457 H2449 0.930 . S
C2457 C2455 1.419 . S
C2457 C2458 1.362 . S
C2458 H2450 0.930 . S
C2458 C2457 1.362 . S
C2458 C2461 1.409 . S
C2459 H2451 0.930 . S
C2459 C2460 1.355 . S
C2459 C2461 1.415 . S
C2460 C2459 1.355 . S
C2460 C2462 1.419 . S
C2461 C2456 1.425 . S
C2461 C2458 1.409 . S
C2461 C2459 1.415 . S
C2462 H2452 0.930 . S
C2462 C2460 1.419 . S
C2462 C2463 1.362 . S
C2463 H2453 0.930 . S
C2463 C2456 1.409 . S
C2463 C2462 1.362 . S
H2464 C2470 0.930 . S
H2465 C2473 0.930 . S
H2466 C2474 0.930 . S
H2467 C2475 0.930 . S
H2468 C2478 0.930 . S
H2469 C2479 0.930 . S
C2470 H2464 0.930 . S
C2470 C2471 1.355 . S
C2470 C2472 1.415 . S
C2471 C2470 1.355 . S
C2471 C2473 1.419 . S
C2472 C2470 1.415 . S
C2472 C2477 1.425 . S
C2472 C2479 1.409 . S
C2473 H2465 0.930 . S
C2473 C2471 1.419 . S
C2473 C2474 1.362 . S
C2474 H2466 0.930 . S
C2474 C2473 1.362 . S
C2474 C2477 1.409 . S
C2475 H2467 0.930 . S
C2475 C2476 1.355 . S
C2475 C2477 1.415 . S
C2476 C2475 1.355 . S
C2476 C2478 1.419 . S
C2477 C2472 1.425 . S
C2477 C2474 1.409 . S
C2477 C2475 1.415 . S
C2478 H2468 0.930 . S
C2478 C2476 1.419 . S
C2478 C2479 1.362 . S
C2479 H2469 0.930 . S
C2479 C2472 1.409 . S
C2479 C2478 1.362 . S
H2480 C2486 0.930 . S
H2481 C2489 0.930 . S
H2482 C2490 0.930 . S
H2483 C2491 0.930 . S
H2484 C2494 0.930 . S
H2485 C2495 0.930 . S
C2486 H2480 0.930 . S
C2486 C2487 1.355 . S
C2486 C2488 1.415 . S
C2487 C2486 1.355 . S
C2487 C2489 1.419 . S
C2488 C2486 1.415 . S
C2488 C2493 1.425 . S
C2488 C2495 1.409 . S
C2489 H2481 0.930 . S
C2489 C2487 1.419 . S
C2489 C2490 1.362 . S
C2490 H2482 0.930 . S
C2490 C2489 1.362 . S
C2490 C2493 1.409 . S
C2491 H2483 0.930 . S
C2491 C2492 1.355 . S
C2491 C2493 1.415 . S
C2492 C2491 1.355 . S
C2492 C2494 1.419 . S
C2493 C2488 1.425 . S
C2493 C2490 1.409 . S
C2493 C2491 1.415 . S
C2494 H2484 0.930 . S
C2494 C2492 1.419 . S
C2494 C2495 1.362 . S
C2495 H2485 0.930 . S
C2495 C2488 1.409 . S
C2495 C2494 1.362 . S
H2496 C2502 0.930 . S
H2497 C2505 0.930 . S
H2498 C2506 0.930 . S
H2499 C2507 0.930 . S
H2500 C2510 0.930 . S
H2501 C2511 0.930 . S
C2502 H2496 0.930 . S
C2502 C2503 1.355 . S
C2502 C2504 1.415 . S
C2503 C2502 1.355 . S
C2503 C2505 1.419 . S
C2504 C2502 1.415 . S
C2504 C2509 1.425 . S
C2504 C2511 1.409 . S
C2505 H2497 0.930 . S
C2505 C2503 1.419 . S
C2505 C2506 1.362 . S
C2506 H2498 0.930 . S
C2506 C2505 1.362 . S
C2506 C2509 1.409 . S
C2507 H2499 0.930 . S
C2507 C2508 1.355 . S
C2507 C2509 1.415 . S
C2508 C2507 1.355 . S
C2508 C2510 1.419 . S
C2509 C2504 1.425 . S
C2509 C2506 1.409 . S
C2509 C2507 1.415 . S
C2510 H2500 0.930 . S
C2510 C2508 1.419 . S
C2510 C2511 1.362 . S
C2511 H2501 0.930 . S
C2511 C2504 1.409 . S
C2511 C2510 1.362 . S
H2512 C2518 0.930 . S
H2513 C2521 0.930 . S
H2514 C2522 0.930 . S
H2515 C2523 0.930 . S
H2516 C2526 0.930 . S
H2517 C2527 0.930 . S
C2518 H2512 0.930 . S
C2518 C2519 1.355 . S
C2518 C2520 1.415 . S
C2519 C2518 1.355 . S
C2519 C2521 1.419 . S
C2520 C2518 1.415 . S
C2520 C2525 1.425 . S
C2520 C2527 1.409 . S
C2521 H2513 0.930 . S
C2521 C2519 1.419 . S
C2521 C2522 1.362 . S
C2522 H2514 0.930 . S
C2522 C2521 1.362 . S
C2522 C2525 1.409 . S
C2523 H2515 0.930 . S
C2523 C2524 1.355 . S
C2523 C2525 1.415 . S
C2524 C2523 1.355 . S
C2524 C2526 1.419 . S
C2525 C2520 1.425 . S
C2525 C2522 1.409 . S
C2525 C2523 1.415 . S
C2526 H2516 0.930 . S
C2526 C2524 1.419 . S
C2526 C2527 1.362 . S
C2527 H2517 0.930 . S
C2527 C2520 1.409 . S
C2527 C2526 1.362 . S
H2528 C2534 0.930 . S
H2529 C2537 0.930 . S
H2530 C2538 0.930 . S
H2531 C2539 0.930 . S
H2532 C2542 0.930 . S
H2533 C2543 0.930 . S
C2534 H2528 0.930 . S
C2534 C2535 1.355 . S
C2534 C2536 1.415 . S
C2535 C2534 1.355 . S
C2535 C2537 1.419 . S
C2536 C2534 1.415 . S
C2536 C2541 1.425 . S
C2536 C2543 1.409 . S
C2537 H2529 0.930 . S
C2537 C2535 1.419 . S
C2537 C2538 1.362 . S
C2538 H2530 0.930 . S
C2538 C2537 1.362 . S
C2538 C2541 1.409 . S
C2539 H2531 0.930 . S
C2539 C2540 1.355 . S
C2539 C2541 1.415 . S
C2540 C2539 1.355 . S
C2540 C2542 1.419 . S
C2541 C2536 1.425 . S
C2541 C2538 1.409 . S
C2541 C2539 1.415 . S
C2542 H2532 0.930 . S
C2542 C2540 1.419 . S
C2542 C2543 1.362 . S
C2543 H2533 0.930 . S
C2543 C2536 1.409 . S
C2543 C2542 1.362 . S
H2544 C2550 0.930 . S
H2545 C2553 0.930 . S
H2546 C2554 0.930 . S
H2547 C2555 0.930 . S
H2548 C2558 0.930 . S
H2549 C2559 0.930 . S
C2550 H2544 0.930 . S
C2550 C2551 1.355 . S
C2550 C2552 1.415 . S
C2551 C2550 1.355 . S
C2551 C2553 1.419 . S
C2552 C2550 1.415 . S
C2552 C2557 1.425 . S
C2552 C2559 1.409 . S
C2553 H2545 0.930 . S
C2553 C2551 1.419 . S
C2553 C2554 1.362 . S
C2554 H2546 0.930 . S
C2554 C2553 1.362 . S
C2554 C2557 1.409 . S
C2555 H2547 0.930 . S
C2555 C2556 1.355 . S
C2555 C2557 1.415 . S
C2556 C2555 1.355 . S
C2556 C2558 1.419 . S
C2557 C2552 1.425 . S
C2557 C2554 1.409 . S
C2557 C2555 1.415 . S
C2558 H2548 0.930 . S
C2558 C2556 1.419 . S
C2558 C2559 1.362 . S
C2559 H2549 0.930 . S
C2559 C2552 1.409 . S
C2559 C2558 1.362 . S
H2560 C2566 0.930 . S
H2561 C2569 0.930 . S
H2562 C2570 0.930 . S
H2563 C2571 0.930 . S
H2564 C2574 0.930 . S
H2565 C2575 0.930 . S
C2566 H2560 0.930 . S
C2566 C2567 1.355 . S
C2566 C2568 1.415 . S
C2567 C2566 1.355 . S
C2567 C2569 1.419 . S
C2568 C2566 1.415 . S
C2568 C2573 1.425 . S
C2568 C2575 1.409 . S
C2569 H2561 0.930 . S
C2569 C2567 1.419 . S
C2569 C2570 1.362 . S
C2570 H2562 0.930 . S
C2570 C2569 1.362 . S
C2570 C2573 1.409 . S
C2571 H2563 0.930 . S
C2571 C2572 1.355 . S
C2571 C2573 1.415 . S
C2572 C2571 1.355 . S
C2572 C2574 1.419 . S
C2573 C2568 1.425 . S
C2573 C2570 1.409 . S
C2573 C2571 1.415 . S
C2574 H2564 0.930 . S
C2574 C2572 1.419 . S
C2574 C2575 1.362 . S
C2575 H2565 0.930 . S
C2575 C2568 1.409 . S
C2575 C2574 1.362 . S
H2576 C2582 0.930 . S
H2577 C2585 0.930 . S
H2578 C2586 0.930 . S
H2579 C2587 0.930 . S
H2580 C2590 0.930 . S
H2581 C2591 0.930 . S
C2582 H2576 0.930 . S
C2582 C2583 1.355 . S
C2582 C2584 1.415 . S
C2583 C2582 1.355 . S
C2583 C2585 1.419 . S
C2584 C2582 1.415 . S
C2584 C2589 1.425 . S
C2584 C2591 1.409 . S
C2585 H2577 0.930 . S
C2585 C2583 1.419 . S
C2585 C2586 1.362 . S
C2586 H2578 0.930 . S
C2586 C2585 1.362 . S
C2586 C2589 1.409 . S
C2587 H2579 0.930 . S
C2587 C2588 1.355 . S
C2587 C2589 1.415 . S
C2588 C2587 1.355 . S
C2588 C2590 1.419 . S
C2589 C2584 1.425 . S
C2589 C2586 1.409 . S
C2589 C2587 1.415 . S
C2590 H2580 0.930 . S
C2590 C2588 1.419 . S
C2590 C2591 1.362 . S
C2591 H2581 0.930 . S
C2591 C2584 1.409 . S
C2591 C2590 1.362 . S
H2592 C2598 0.930 . S
H2593 C2601 0.930 . S
H2594 C2602 0.930 . S
H2595 C2603 0.930 . S
H2596 C2606 0.930 . S
H2597 C2607 0.930 . S
C2598 H2592 0.930 . S
C2598 C2599 1.355 . S
C2598 C2600 1.415 . S
C2599 C2598 1.355 . S
C2599 C2601 1.419 . S
C2600 C2598 1.415 . S
C2600 C2605 1.425 . S
C2600 C2607 1.409 . S
C2601 H2593 0.930 . S
C2601 C2599 1.419 . S
C2601 C2602 1.362 . S
C2602 H2594 0.930 . S
C2602 C2601 1.362 . S
C2602 C2605 1.409 . S
C2603 H2595 0.930 . S
C2603 C2604 1.355 . S
C2603 C2605 1.415 . S
C2604 C2603 1.355 . S
C2604 C2606 1.419 . S
C2605 C2600 1.425 . S
C2605 C2602 1.409 . S
C2605 C2603 1.415 . S
C2606 H2596 0.930 . S
C2606 C2604 1.419 . S
C2606 C2607 1.362 . S
C2607 H2597 0.930 . S
C2607 C2600 1.409 . S
C2607 C2606 1.362 . S
H2608 C2614 0.930 . S
H2609 C2617 0.930 . S
H2610 C2618 0.930 . S
H2611 C2619 0.930 . S
H2612 C2622 0.930 . S
H2613 C2623 0.930 . S
C2614 H2608 0.930 . S
C2614 C2615 1.355 . S
C2614 C2616 1.415 . S
C2615 C2614 1.355 . S
C2615 C2617 1.419 . S
C2616 C2614 1.415 . S
C2616 C2621 1.425 . S
C2616 C2623 1.409 . S
C2617 H2609 0.930 . S
C2617 C2615 1.419 . S
C2617 C2618 1.362 . S
C2618 H2610 0.930 . S
C2618 C2617 1.362 . S
C2618 C2621 1.409 . S
C2619 H2611 0.930 . S
C2619 C2620 1.355 . S
C2619 C2621 1.415 . S
C2620 C2619 1.355 . S
C2620 C2622 1.419 . S
C2621 C2616 1.425 . S
C2621 C2618 1.409 . S
C2621 C2619 1.415 . S
C2622 H2612 0.930 . S
C2622 C2620 1.419 . S
C2622 C2623 1.362 . S
C2623 H2613 0.930 . S
C2623 C2616 1.409 . S
C2623 C2622 1.362 . S
H2624 C2630 0.930 . S
H2625 C2633 0.930 . S
H2626 C2634 0.930 . S
H2627 C2635 0.930 . S
H2628 C2638 0.930 . S
H2629 C2639 0.930 . S
C2630 H2624 0.930 . S
C2630 C2631 1.355 . S
C2630 C2632 1.415 . S
C2631 C2630 1.355 . S
C2631 C2633 1.419 . S
C2632 C2630 1.415 . S
C2632 C2637 1.425 . S
C2632 C2639 1.409 . S
C2633 H2625 0.930 . S
C2633 C2631 1.419 . S
C2633 C2634 1.362 . S
C2634 H2626 0.930 . S
C2634 C2633 1.362 . S
C2634 C2637 1.409 . S
C2635 H2627 0.930 . S
C2635 C2636 1.355 . S
C2635 C2637 1.415 . S
C2636 C2635 1.355 . S
C2636 C2638 1.419 . S
C2637 C2632 1.425 . S
C2637 C2634 1.409 . S
C2637 C2635 1.415 . S
C2638 H2628 0.930 . S
C2638 C2636 1.419 . S
C2638 C2639 1.362 . S
C2639 H2629 0.930 . S
C2639 C2632 1.409 . S
C2639 C2638 1.362 . S
H2640 C2646 0.930 . S
H2641 C2649 0.930 . S
H2642 C2650 0.930 . S
H2643 C2651 0.930 . S
H2644 C2654 0.930 . S
H2645 C2655 0.930 . S
C2646 H2640 0.930 . S
C2646 C2647 1.355 . S
C2646 C2648 1.415 . S
C2647 C2646 1.355 . S
C2647 C2649 1.419 . S
C2648 C2646 1.415 . S
C2648 C2653 1.425 . S
C2648 C2655 1.409 . S
C2649 H2641 0.930 . S
C2649 C2647 1.419 . S
C2649 C2650 1.362 . S
C2650 H2642 0.930 . S
C2650 C2649 1.362 . S
C2650 C2653 1.409 . S
C2651 H2643 0.930 . S
C2651 C2652 1.355 . S
C2651 C2653 1.415 . S
C2652 C2651 1.355 . S
C2652 C2654 1.419 . S
C2653 C2648 1.425 . S
C2653 C2650 1.409 . S
C2653 C2651 1.415 . S
C2654 H2644 0.930 . S
C2654 C2652 1.419 . S
C2654 C2655 1.362 . S
C2655 H2645 0.930 . S
C2655 C2648 1.409 . S
C2655 C2654 1.362 . S
H2656 C2662 0.930 . S
H2657 C2665 0.930 . S
H2658 C2666 0.930 . S
H2659 C2667 0.930 . S
H2660 C2670 0.930 . S
H2661 C2671 0.930 . S
C2662 H2656 0.930 . S
C2662 C2663 1.355 . S
C2662 C2664 1.415 . S
C2663 C2662 1.355 . S
C2663 C2665 1.419 . S
C2664 C2662 1.415 . S
C2664 C2669 1.425 . S
C2664 C2671 1.409 . S
C2665 H2657 0.930 . S
C2665 C2663 1.419 . S
C2665 C2666 1.362 . S
C2666 H2658 0.930 . S
C2666 C2665 1.362 . S
C2666 C2669 1.409 . S
C2667 H2659 0.930 . S
C2667 C2668 1.355 . S
C2667 C2669 1.415 . S
C2668 C2667 1.355 . S
C2668 C2670 1.419 . S
C2669 C2664 1.425 . S
C2669 C2666 1.409 . S
C2669 C2667 1.415 . S
C2670 H2660 0.930 . S
C2670 C2668 1.419 . S
C2670 C2671 1.362 . S
C2671 H2661 0.930 . S
C2671 C2664 1.409 . S
C2671 C2670 1.362 . S
H2672 C2678 0.930 . S
H2673 C2681 0.930 . S
H2674 C2682 0.930 . S
H2675 C2683 0.930 . S
H2676 C2686 0.930 . S
H2677 C2687 0.930 . S
C2678 H2672 0.930 . S
C2678 C2679 1.355 . S
C2678 C2680 1.415 . S
C2679 C2678 1.355 . S
C2679 C2681 1.419 . S
C2680 C2678 1.415 . S
C2680 C2685 1.425 . S
C2680 C2687 1.409 . S
C2681 H2673 0.930 . S
C2681 C2679 1.419 . S
C2681 C2682 1.362 . S
C2682 H2674 0.930 . S
C2682 C2681 1.362 . S
C2682 C2685 1.409 . S
C2683 H2675 0.930 . S
C2683 C2684 1.355 . S
C2683 C2685 1.415 . S
C2684 C2683 1.355 . S
C2684 C2686 1.419 . S
C2685 C2680 1.425 . S
C2685 C2682 1.409 . S
C2685 C2683 1.415 . S
C2686 H2676 0.930 . S
C2686 C2684 1.419 . S
C2686 C2687 1.362 . S
C2687 H2677 0.930 . S
C2687 C2680 1.409 . S
C2687 C2686 1.362 . S
H2688 C2694 0.930 . S
H2689 C2697 0.930 . S
H2690 C2698 0.930 . S
H2691 C2699 0.930 . S
H2692 C2702 0.930 . S
H2693 C2703 0.930 . S
C2694 H2688 0.930 . S
C2694 C2695 1.355 . S
C2694 C2696 1.415 . S
C2695 C2694 1.355 . S
C2695 C2697 1.419 . S
C2696 C2694 1.415 . S
C2696 C2701 1.425 . S
C2696 C2703 1.409 . S
C2697 H2689 0.930 . S
C2697 C2695 1.419 . S
C2697 C2698 1.362 . S
C2698 H2690 0.930 . S
C2698 C2697 1.362 . S
C2698 C2701 1.409 . S
C2699 H2691 0.930 . S
C2699 C2700 1.355 . S
C2699 C2701 1.415 . S
C2700 C2699 1.355 . S
C2700 C2702 1.419 . S
C2701 C2696 1.425 . S
C2701 C2698 1.409 . S
C2701 C2699 1.415 . S
C2702 H2692 0.930 . S
C2702 C2700 1.419 . S
C2702 C2703 1.362 . S
C2703 H2693 0.930 . S
C2703 C2696 1.409 . S
C2703 C2702 1.362 . S
H2704 C2710 0.930 . S
H2705 C2713 0.930 . S
H2706 C2714 0.930 . S
H2707 C2715 0.930 . S
H2708 C2718 0.930 . S
H2709 C2719 0.930 . S
C2710 H2704 0.930 . S
C2710 C2711 1.355 . S
C2710 C2712 1.415 . S
C2711 C2710 1.355 . S
C2711 C2713 1.419 . S
C2712 C2710 1.415 . S
C2712 C2717 1.425 . S
C2712 C2719 1.409 . S
C2713 H2705 0.930 . S
C2713 C2711 1.419 . S
C2713 C2714 1.362 . S
C2714 H2706 0.930 . S
C2714 C2713 1.362 . S
C2714 C2717 1.409 . S
C2715 H2707 0.930 . S
C2715 C2716 1.355 . S
C2715 C2717 1.415 . S
C2716 C2715 1.355 . S
C2716 C2718 1.419 . S
C2717 C2712 1.425 . S
C2717 C2714 1.409 . S
C2717 C2715 1.415 . S
C2718 H2708 0.930 . S
C2718 C2716 1.419 . S
C2718 C2719 1.362 . S
C2719 H2709 0.930 . S
C2719 C2712 1.409 . S
C2719 C2718 1.362 . S
H2720 C2726 0.930 . S
H2721 C2729 0.930 . S
H2722 C2730 0.930 . S
H2723 C2731 0.930 . S
H2724 C2734 0.930 . S
H2725 C2735 0.930 . S
C2726 H2720 0.930 . S
C2726 C2727 1.355 . S
C2726 C2728 1.415 . S
C2727 C2726 1.355 . S
C2727 C2729 1.419 . S
C2728 C2726 1.415 . S
C2728 C2733 1.425 . S
C2728 C2735 1.409 . S
C2729 H2721 0.930 . S
C2729 C2727 1.419 . S
C2729 C2730 1.362 . S
C2730 H2722 0.930 . S
C2730 C2729 1.362 . S
C2730 C2733 1.409 . S
C2731 H2723 0.930 . S
C2731 C2732 1.355 . S
C2731 C2733 1.415 . S
C2732 C2731 1.355 . S
C2732 C2734 1.419 . S
C2733 C2728 1.425 . S
C2733 C2730 1.409 . S
C2733 C2731 1.415 . S
C2734 H2724 0.930 . S
C2734 C2732 1.419 . S
C2734 C2735 1.362 . S
C2735 H2725 0.930 . S
C2735 C2728 1.409 . S
C2735 C2734 1.362 . S
H2736 C2742 0.930 . S
H2737 C2745 0.930 . S
H2738 C2746 0.930 . S
H2739 C2747 0.930 . S
H2740 C2750 0.930 . S
H2741 C2751 0.930 . S
C2742 H2736 0.930 . S
C2742 C2743 1.355 . S
C2742 C2744 1.415 . S
C2743 C2742 1.355 . S
C2743 C2745 1.419 . S
C2744 C2742 1.415 . S
C2744 C2749 1.425 . S
C2744 C2751 1.409 . S
C2745 H2737 0.930 . S
C2745 C2743 1.419 . S
C2745 C2746 1.362 . S
C2746 H2738 0.930 . S
C2746 C2745 1.362 . S
C2746 C2749 1.409 . S
C2747 H2739 0.930 . S
C2747 C2748 1.355 . S
C2747 C2749 1.415 . S
C2748 C2747 1.355 . S
C2748 C2750 1.419 . S
C2749 C2744 1.425 . S
C2749 C2746 1.409 . S
C2749 C2747 1.415 . S
C2750 H2740 0.930 . S
C2750 C2748 1.419 . S
C2750 C2751 1.362 . S
C2751 H2741 0.930 . S
C2751 C2744 1.409 . S
C2751 C2750 1.362 . S
H2752 C2758 0.930 . S
H2753 C2761 0.930 . S
H2754 C2762 0.930 . S
H2755 C2763 0.930 . S
H2756 C2766 0.930 . S
H2757 C2767 0.930 . S
C2758 H2752 0.930 . S
C2758 C2759 1.355 . S
C2758 C2760 1.415 . S
C2759 C2758 1.355 . S
C2759 C2761 1.419 . S
C2760 C2758 1.415 . S
C2760 C2765 1.425 . S
C2760 C2767 1.409 . S
C2761 H2753 0.930 . S
C2761 C2759 1.419 . S
C2761 C2762 1.362 . S
C2762 H2754 0.930 . S
C2762 C2761 1.362 . S
C2762 C2765 1.409 . S
C2763 H2755 0.930 . S
C2763 C2764 1.355 . S
C2763 C2765 1.415 . S
C2764 C2763 1.355 . S
C2764 C2766 1.419 . S
C2765 C2760 1.425 . S
C2765 C2762 1.409 . S
C2765 C2763 1.415 . S
C2766 H2756 0.930 . S
C2766 C2764 1.419 . S
C2766 C2767 1.362 . S
C2767 H2757 0.930 . S
C2767 C2760 1.409 . S
C2767 C2766 1.362 . S
H2768 C2774 0.930 . S
H2769 C2777 0.930 . S
H2770 C2778 0.930 . S
H2771 C2779 0.930 . S
H2772 C2782 0.930 . S
H2773 C2783 0.930 . S
C2774 H2768 0.930 . S
C2774 C2775 1.355 . S
C2774 C2776 1.415 . S
C2775 C2774 1.355 . S
C2775 C2777 1.419 . S
C2776 C2774 1.415 . S
C2776 C2781 1.425 . S
C2776 C2783 1.409 . S
C2777 H2769 0.930 . S
C2777 C2775 1.419 . S
C2777 C2778 1.362 . S
C2778 H2770 0.930 . S
C2778 C2777 1.362 . S
C2778 C2781 1.409 . S
C2779 H2771 0.930 . S
C2779 C2780 1.355 . S
C2779 C2781 1.415 . S
C2780 C2779 1.355 . S
C2780 C2782 1.419 . S
C2781 C2776 1.425 . S
C2781 C2778 1.409 . S
C2781 C2779 1.415 . S
C2782 H2772 0.930 . S
C2782 C2780 1.419 . S
C2782 C2783 1.362 . S
C2783 H2773 0.930 . S
C2783 C2776 1.409 . S
C2783 C2782 1.362 . S
H2784 C2790 0.930 . S
H2785 C2793 0.930 . S
H2786 C2794 0.930 . S
H2787 C2795 0.930 . S
H2788 C2798 0.930 . S
H2789 C2799 0.930 . S
C2790 H2784 0.930 . S
C2790 C2791 1.355 . S
C2790 C2792 1.415 . S
C2791 C2790 1.355 . S
C2791 C2793 1.419 . S
C2792 C2790 1.415 . S
C2792 C2797 1.425 . S
C2792 C2799 1.409 . S
C2793 H2785 0.930 . S
C2793 C2791 1.419 . S
C2793 C2794 1.362 . S
C2794 H2786 0.930 . S
C2794 C2793 1.362 . S
C2794 C2797 1.409 . S
C2795 H2787 0.930 . S
C2795 C2796 1.355 . S
C2795 C2797 1.415 . S
C2796 C2795 1.355 . S
C2796 C2798 1.419 . S
C2797 C2792 1.425 . S
C2797 C2794 1.409 . S
C2797 C2795 1.415 . S
C2798 H2788 0.930 . S
C2798 C2796 1.419 . S
C2798 C2799 1.362 . S
C2799 H2789 0.930 . S
C2799 C2792 1.409 . S
C2799 C2798 1.362 . S
H2800 C2806 0.930 . S
H2801 C2809 0.930 . S
H2802 C2810 0.930 . S
H2803 C2811 0.930 . S
H2804 C2814 0.930 . S
H2805 C2815 0.930 . S
C2806 H2800 0.930 . S
C2806 C2807 1.355 . S
C2806 C2808 1.415 . S
C2807 C2806 1.355 . S
C2807 C2809 1.419 . S
C2808 C2806 1.415 . S
C2808 C2813 1.425 . S
C2808 C2815 1.409 . S
C2809 H2801 0.930 . S
C2809 C2807 1.419 . S
C2809 C2810 1.362 . S
C2810 H2802 0.930 . S
C2810 C2809 1.362 . S
C2810 C2813 1.409 . S
C2811 H2803 0.930 . S
C2811 C2812 1.355 . S
C2811 C2813 1.415 . S
C2812 C2811 1.355 . S
C2812 C2814 1.419 . S
C2813 C2808 1.425 . S
C2813 C2810 1.409 . S
C2813 C2811 1.415 . S
C2814 H2804 0.930 . S
C2814 C2812 1.419 . S
C2814 C2815 1.362 . S
C2815 H2805 0.930 . S
C2815 C2808 1.409 . S
C2815 C2814 1.362 . S
H2816 C2822 0.930 . S
H2817 C2825 0.930 . S
H2818 C2826 0.930 . S
H2819 C2827 0.930 . S
H2820 C2830 0.930 . S
H2821 C2831 0.930 . S
C2822 H2816 0.930 . S
C2822 C2823 1.355 . S
C2822 C2824 1.415 . S
C2823 C2822 1.355 . S
C2823 C2825 1.419 . S
C2824 C2822 1.415 . S
C2824 C2829 1.425 . S
C2824 C2831 1.409 . S
C2825 H2817 0.930 . S
C2825 C2823 1.419 . S
C2825 C2826 1.362 . S
C2826 H2818 0.930 . S
C2826 C2825 1.362 . S
C2826 C2829 1.409 . S
C2827 H2819 0.930 . S
C2827 C2828 1.355 . S
C2827 C2829 1.415 . S
C2828 C2827 1.355 . S
C2828 C2830 1.419 . S
C2829 C2824 1.425 . S
C2829 C2826 1.409 . S
C2829 C2827 1.415 . S
C2830 H2820 0.930 . S
C2830 C2828 1.419 . S
C2830 C2831 1.362 . S
C2831 H2821 0.930 . S
C2831 C2824 1.409 . S
C2831 C2830 1.362 . S
H2832 C2838 0.930 . S
H2833 C2841 0.930 . S
H2834 C2842 0.930 . S
H2835 C2843 0.930 . S
H2836 C2846 0.930 . S
H2837 C2847 0.930 . S
C2838 H2832 0.930 . S
C2838 C2839 1.355 . S
C2838 C2840 1.415 . S
C2839 C2838 1.355 . S
C2839 C2841 1.419 . S
C2840 C2838 1.415 . S
C2840 C2845 1.425 . S
C2840 C2847 1.409 . S
C2841 H2833 0.930 . S
C2841 C2839 1.419 . S
C2841 C2842 1.362 . S
C2842 H2834 0.930 . S
C2842 C2841 1.362 . S
C2842 C2845 1.409 . S
C2843 H2835 0.930 . S
C2843 C2844 1.355 . S
C2843 C2845 1.415 . S
C2844 C2843 1.355 . S
C2844 C2846 1.419 . S
C2845 C2840 1.425 . S
C2845 C2842 1.409 . S
C2845 C2843 1.415 . S
C2846 H2836 0.930 . S
C2846 C2844 1.419 . S
C2846 C2847 1.362 . S
C2847 H2837 0.930 . S
C2847 C2840 1.409 . S
C2847 C2846 1.362 . S
H2848 C2854 0.930 . S
H2849 C2857 0.930 . S
H2850 C2858 0.930 . S
H2851 C2859 0.930 . S
H2852 C2862 0.930 . S
H2853 C2863 0.930 . S
C2854 H2848 0.930 . S
C2854 C2855 1.355 . S
C2854 C2856 1.415 . S
C2855 C2854 1.355 . S
C2855 C2857 1.419 . S
C2856 C2854 1.415 . S
C2856 C2861 1.425 . S
C2856 C2863 1.409 . S
C2857 H2849 0.930 . S
C2857 C2855 1.419 . S
C2857 C2858 1.362 . S
C2858 H2850 0.930 . S
C2858 C2857 1.362 . S
C2858 C2861 1.409 . S
C2859 H2851 0.930 . S
C2859 C2860 1.355 . S
C2859 C2861 1.415 . S
C2860 C2859 1.355 . S
C2860 C2862 1.419 . S
C2861 C2856 1.425 . S
C2861 C2858 1.409 . S
C2861 C2859 1.415 . S
C2862 H2852 0.930 . S
C2862 C2860 1.419 . S
C2862 C2863 1.362 . S
C2863 H2853 0.930 . S
C2863 C2856 1.409 . S
C2863 C2862 1.362 . S
H2864 C2870 0.930 . S
H2865 C2873 0.930 . S
H2866 C2874 0.930 . S
H2867 C2875 0.930 . S
H2868 C2878 0.930 . S
H2869 C2879 0.930 . S
C2870 H2864 0.930 . S
C2870 C2871 1.355 . S
C2870 C2872 1.415 . S
C2871 C2870 1.355 . S
C2871 C2873 1.419 . S
C2872 C2870 1.415 . S
C2872 C2877 1.425 . S
C2872 C2879 1.409 . S
C2873 H2865 0.930 . S
C2873 C2871 1.419 . S
C2873 C2874 1.362 . S
C2874 H2866 0.930 . S
C2874 C2873 1.362 . S
C2874 C2877 1.409 . S
C2875 H2867 0.930 . S
C2875 C2876 1.355 . S
C2875 C2877 1.415 . S
C2876 C2875 1.355 . S
C2876 C2878 1.419 . S
C2877 C2872 1.425 . S
C2877 C2874 1.409 . S
C2877 C2875 1.415 . S
C2878 H2868 0.930 . S
C2878 C2876 1.419 . S
C2878 C2879 1.362 . S
C2879 H2869 0.930 . S
C2879 C2872 1.409 . S
C2879 C2878 1.362 . S
H2880 C2886 0.930 . S
H2881 C2889 0.930 . S
H2882 C2890 0.930 . S
H2883 C2891 0.930 . S
H2884 C2894 0.930 . S
H2885 C2895 0.930 . S
C2886 H2880 0.930 . S
C2886 C2887 1.355 . S
C2886 C2888 1.415 . S
C2887 C2886 1.355 . S
C2887 C2889 1.419 . S
C2888 C2886 1.415 . S
C2888 C2893 1.425 . S
C2888 C2895 1.409 . S
C2889 H2881 0.930 . S
C2889 C2887 1.419 . S
C2889 C2890 1.362 . S
C2890 H2882 0.930 . S
C2890 C2889 1.362 . S
C2890 C2893 1.409 . S
C2891 H2883 0.930 . S
C2891 C2892 1.355 . S
C2891 C2893 1.415 1_655 S
C2892 C2891 1.355 . S
C2892 C2894 1.419 . S
C2893 C2888 1.425 . S
C2893 C2890 1.409 . S
C2893 C2891 1.415 1_455 S
C2894 H2884 0.930 . S
C2894 C2892 1.419 . S
C2894 C2895 1.362 1_655 S
C2895 H2885 0.930 . S
C2895 C2888 1.409 . S
C2895 C2894 1.362 1_455 S
H2896 C2902 0.930 . S
H2897 C2905 0.930 . S
H2898 C2906 0.930 . S
H2899 C2907 0.930 . S
H2900 C2910 0.930 . S
H2901 C2911 0.930 . S
C2902 H2896 0.930 . S
C2902 C2903 1.355 . S
C2902 C2904 1.415 . S
C2903 C2902 1.355 . S
C2903 C2905 1.419 . S
C2904 C2902 1.415 . S
C2904 C2909 1.425 . S
C2904 C2911 1.409 . S
C2905 H2897 0.930 . S
C2905 C2903 1.419 . S
C2905 C2906 1.362 . S
C2906 H2898 0.930 . S
C2906 C2905 1.362 . S
C2906 C2909 1.409 . S
C2907 H2899 0.930 . S
C2907 C2908 1.355 . S
C2907 C2909 1.415 1_565 S
C2908 C2907 1.355 . S
C2908 C2910 1.419 . S
C2909 C2904 1.425 . S
C2909 C2906 1.409 . S
C2909 C2907 1.415 1_545 S
C2910 H2900 0.930 . S
C2910 C2908 1.419 . S
C2910 C2911 1.362 1_565 S
C2911 H2901 0.930 . S
C2911 C2904 1.409 . S
C2911 C2910 1.362 1_545 S
H2912 C2918 0.930 . S
H2913 C2921 0.930 . S
H2914 C2922 0.930 . S
H2915 C2923 0.930 . S
H2916 C2926 0.930 . S
H2917 C2927 0.930 . S
C2918 H2912 0.930 . S
C2918 C2919 1.355 . S
C2918 C2920 1.415 . S
C2919 C2918 1.355 . S
C2919 C2921 1.419 . S
C2920 C2918 1.415 . S
C2920 C2925 1.425 . S
C2920 C2927 1.409 . S
C2921 H2913 0.930 . S
C2921 C2919 1.419 . S
C2921 C2922 1.362 . S
C2922 H2914 0.930 . S
C2922 C2921 1.362 . S
C2922 C2925 1.409 . S
C2923 H2915 0.930 . S
C2923 C2924 1.355 . S
C2923 C2925 1.415 1_455 S
C2924 C2923 1.355 . S
C2924 C2926 1.419 . S
C2925 C2920 1.425 . S
C2925 C2922 1.409 . S
C2925 C2923 1.415 1_655 S
C2926 H2916 0.930 . S
C2926 C2924 1.419 . S
C2926 C2927 1.362 1_455 S
C2927 H2917 0.930 . S
C2927 C2920 1.409 . S
C2927 C2926 1.362 1_655 S
H2928 C2934 0.930 . S
H2929 C2937 0.930 . S
H2930 C2938 0.930 . S
H2931 C2939 0.930 . S
H2932 C2942 0.930 . S
H2933 C2943 0.930 . S
C2934 H2928 0.930 . S
C2934 C2935 1.355 . S
C2934 C2936 1.415 . S
C2935 C2934 1.355 . S
C2935 C2937 1.419 . S
C2936 C2934 1.415 . S
C2936 C2941 1.425 . S
C2936 C2943 1.409 . S
C2937 H2929 0.930 . S
C2937 C2935 1.419 . S
C2937 C2938 1.362 . S
C2938 H2930 0.930 . S
C2938 C2937 1.362 . S
C2938 C2941 1.409 . S
C2939 H2931 0.930 . S
C2939 C2940 1.355 . S
C2939 C2941 1.415 1_545 S
C2940 C2939 1.355 . S
C2940 C2942 1.419 . S
C2941 C2936 1.425 . S
C2941 C2938 1.409 . S
C2941 C2939 1.415 1_565 S
C2942 H2932 0.930 . S
C2942 C2940 1.419 . S
C2942 C2943 1.362 1_545 S
C2943 H2933 0.930 . S
C2943 C2936 1.409 . S
C2943 C2942 1.362 1_565 S
H2944 C2950 0.930 . S
H2945 C2953 0.930 . S
H2946 C2954 0.930 . S
H2947 C2955 0.930 . S
H2948 C2958 0.930 . S
H2949 C2959 0.930 . S
C2950 H2944 0.930 . S
C2950 C2951 1.355 . S
C2950 C2952 1.415 1_655 S
C2951 C2950 1.355 . S
C2951 C2953 1.419 . S
C2952 C2950 1.415 1_455 S
C2952 C2957 1.425 . S
C2952 C2959 1.409 . S
C2953 H2945 0.930 . S
C2953 C2951 1.419 . S
C2953 C2954 1.362 1_655 S
C2954 H2946 0.930 . S
C2954 C2953 1.362 1_455 S
C2954 C2957 1.409 . S
C2955 H2947 0.930 . S
C2955 C2956 1.355 . S
C2955 C2957 1.415 . S
C2956 C2955 1.355 . S
C2956 C2958 1.419 . S
C2957 C2952 1.425 . S
C2957 C2954 1.409 . S
C2957 C2955 1.415 . S
C2958 H2948 0.930 . S
C2958 C2956 1.419 . S
C2958 C2959 1.362 . S
C2959 H2949 0.930 . S
C2959 C2952 1.409 . S
C2959 C2958 1.362 . S
H2960 C2966 0.930 . S
H2961 C2969 0.930 . S
H2962 C2970 0.930 . S
H2963 C2971 0.930 . S
H2964 C2974 0.930 . S
H2965 C2975 0.930 . S
C2966 H2960 0.930 . S
C2966 C2967 1.355 . S
C2966 C2968 1.415 . S
C2967 C2966 1.355 . S
C2967 C2969 1.419 . S
C2968 C2966 1.415 . S
C2968 C2973 1.425 . S
C2968 C2975 1.409 . S
C2969 H2961 0.930 . S
C2969 C2967 1.419 . S
C2969 C2970 1.362 . S
C2970 H2962 0.930 . S
C2970 C2969 1.362 . S
C2970 C2973 1.409 . S
C2971 H2963 0.930 . S
C2971 C2972 1.355 . S
C2971 C2973 1.415 1_565 S
C2972 C2971 1.355 . S
C2972 C2974 1.419 . S
C2973 C2968 1.425 . S
C2973 C2970 1.409 . S
C2973 C2971 1.415 1_545 S
C2974 H2964 0.930 . S
C2974 C2972 1.419 . S
C2974 C2975 1.362 1_565 S
C2975 H2965 0.930 . S
C2975 C2968 1.409 . S
C2975 C2974 1.362 1_545 S
H2976 C2982 0.930 . S
H2977 C2985 0.930 . S
H2978 C2986 0.930 . S
H2979 C2987 0.930 . S
H2980 C2990 0.930 . S
H2981 C2991 0.930 . S
C2982 H2976 0.930 . S
C2982 C2983 1.355 . S
C2982 C2984 1.415 1_455 S
C2983 C2982 1.355 . S
C2983 C2985 1.419 . S
C2984 C2982 1.415 1_655 S
C2984 C2989 1.425 . S
C2984 C2991 1.409 . S
C2985 H2977 0.930 . S
C2985 C2983 1.419 . S
C2985 C2986 1.362 1_455 S
C2986 H2978 0.930 . S
C2986 C2985 1.362 1_655 S
C2986 C2989 1.409 . S
C2987 H2979 0.930 . S
C2987 C2988 1.355 . S
C2987 C2989 1.415 . S
C2988 C2987 1.355 . S
C2988 C2990 1.419 . S
C2989 C2984 1.425 . S
C2989 C2986 1.409 . S
C2989 C2987 1.415 . S
C2990 H2980 0.930 . S
C2990 C2988 1.419 . S
C2990 C2991 1.362 . S
C2991 H2981 0.930 . S
C2991 C2984 1.409 . S
C2991 C2990 1.362 . S
H2992 C2998 0.930 . S
H2993 C3001 0.930 . S
H2994 C3002 0.930 . S
H2995 C3003 0.930 . S
H2996 C3006 0.930 . S
H2997 C3007 0.930 . S
C2998 H2992 0.930 . S
C2998 C2999 1.355 . S
C2998 C3000 1.415 1_545 S
C2999 C2998 1.355 . S
C2999 C3001 1.419 . S
C3000 C2998 1.415 1_565 S
C3000 C3005 1.425 . S
C3000 C3007 1.409 . S
C3001 H2993 0.930 . S
C3001 C2999 1.419 . S
C3001 C3002 1.362 1_545 S
C3002 H2994 0.930 . S
C3002 C3001 1.362 1_565 S
C3002 C3005 1.409 . S
C3003 H2995 0.930 . S
C3003 C3004 1.355 . S
C3003 C3005 1.415 . S
C3004 C3003 1.355 . S
C3004 C3006 1.419 . S
C3005 C3000 1.425 . S
C3005 C3002 1.409 . S
C3005 C3003 1.415 . S
C3006 H2996 0.930 . S
C3006 C3004 1.419 . S
C3006 C3007 1.362 . S
C3007 H2997 0.930 . S
C3007 C3000 1.409 . S
C3007 C3006 1.362 . S
H3008 C3014 0.930 . S
H3009 C3017 0.930 . S
H3010 C3018 0.930 . S
H3011 C3019 0.930 . S
H3012 C3022 0.930 . S
H3013 C3023 0.930 . S
C3014 H3008 0.930 . S
C3014 C3015 1.355 . S
C3014 C3016 1.415 . S
C3015 C3014 1.355 . S
C3015 C3017 1.419 . S
C3016 C3014 1.415 . S
C3016 C3021 1.425 . S
C3016 C3023 1.409 . S
C3017 H3009 0.930 . S
C3017 C3015 1.419 . S
C3017 C3018 1.362 . S
C3018 H3010 0.930 . S
C3018 C3017 1.362 . S
C3018 C3021 1.409 . S
C3019 H3011 0.930 . S
C3019 C3020 1.355 . S
C3019 C3021 1.415 1_565 S
C3020 C3019 1.355 . S
C3020 C3022 1.419 . S
C3021 C3016 1.425 . S
C3021 C3018 1.409 . S
C3021 C3019 1.415 1_545 S
C3022 H3012 0.930 . S
C3022 C3020 1.419 . S
C3022 C3023 1.362 1_565 S
C3023 H3013 0.930 . S
C3023 C3016 1.409 . S
C3023 C3022 1.362 1_545 S
H3024 C3030 0.930 . S
H3025 C3033 0.930 . S
H3026 C3034 0.930 . S
H3027 C3035 0.930 . S
H3028 C3038 0.930 . S
H3029 C3039 0.930 . S
C3030 H3024 0.930 . S
C3030 C3031 1.355 . S
C3030 C3032 1.415 1_455 S
C3031 C3030 1.355 . S
C3031 C3033 1.419 . S
C3032 C3030 1.415 1_655 S
C3032 C3037 1.425 . S
C3032 C3039 1.409 . S
C3033 H3025 0.930 . S
C3033 C3031 1.419 . S
C3033 C3034 1.362 1_455 S
C3034 H3026 0.930 . S
C3034 C3033 1.362 1_655 S
C3034 C3037 1.409 . S
C3035 H3027 0.930 . S
C3035 C3036 1.355 . S
C3035 C3037 1.415 . S
C3036 C3035 1.355 . S
C3036 C3038 1.419 . S
C3037 C3032 1.425 . S
C3037 C3034 1.409 . S
C3037 C3035 1.415 . S
C3038 H3028 0.930 . S
C3038 C3036 1.419 . S
C3038 C3039 1.362 . S
C3039 H3029 0.930 . S
C3039 C3032 1.409 . S
C3039 C3038 1.362 . S
H3040 C3046 0.930 . S
H3041 C3049 0.930 . S
H3042 C3050 0.930 . S
H3043 C3051 0.930 . S
H3044 C3054 0.930 . S
H3045 C3055 0.930 . S
C3046 H3040 0.930 . S
C3046 C3047 1.355 . S
C3046 C3048 1.415 . S
C3047 C3046 1.355 . S
C3047 C3049 1.419 . S
C3048 C3046 1.415 . S
C3048 C3053 1.425 . S
C3048 C3055 1.409 . S
C3049 H3041 0.930 . S
C3049 C3047 1.419 . S
C3049 C3050 1.362 . S
C3050 H3042 0.930 . S
C3050 C3049 1.362 . S
C3050 C3053 1.409 . S
C3051 H3043 0.930 . S
C3051 C3052 1.355 . S
C3051 C3053 1.415 1_545 S
C3052 C3051 1.355 . S
C3052 C3054 1.419 . S
C3053 C3048 1.425 . S
C3053 C3050 1.409 . S
C3053 C3051 1.415 1_565 S
C3054 H3044 0.930 . S
C3054 C3052 1.419 . S
C3054 C3055 1.362 1_545 S
C3055 H3045 0.930 . S
C3055 C3048 1.409 . S
C3055 C3054 1.362 1_565 S
H3056 C3062 0.930 . S
H3057 C3065 0.930 . S
H3058 C3066 0.930 . S
H3059 C3067 0.930 . S
H3060 C3070 0.930 . S
H3061 C3071 0.930 . S
C3062 H3056 0.930 . S
C3062 C3063 1.355 . S
C3062 C3064 1.415 . S
C3063 C3062 1.355 . S
C3063 C3065 1.419 . S
C3064 C3062 1.415 . S
C3064 C3069 1.425 . S
C3064 C3071 1.409 . S
C3065 H3057 0.930 . S
C3065 C3063 1.419 . S
C3065 C3066 1.362 . S
C3066 H3058 0.930 . S
C3066 C3065 1.362 . S
C3066 C3069 1.409 . S
C3067 H3059 0.930 . S
C3067 C3068 1.355 . S
C3067 C3069 1.415 1_655 S
C3068 C3067 1.355 . S
C3068 C3070 1.419 . S
C3069 C3064 1.425 . S
C3069 C3066 1.409 . S
C3069 C3067 1.415 1_455 S
C3070 H3060 0.930 . S
C3070 C3068 1.419 . S
C3070 C3071 1.362 1_655 S
C3071 H3061 0.930 . S
C3071 C3064 1.409 . S
C3071 C3070 1.362 1_455 S
H3072 C3078 0.930 . S
H3073 C3081 0.930 . S
H3074 C3082 0.930 . S
H3075 C3083 0.930 . S
H3076 C3086 0.930 . S
H3077 C3087 0.930 . S
C3078 H3072 0.930 . S
C3078 C3079 1.355 . S
C3078 C3080 1.415 . S
C3079 C3078 1.355 . S
C3079 C3081 1.419 . S
C3080 C3078 1.415 . S
C3080 C3085 1.425 . S
C3080 C3087 1.409 . S
C3081 H3073 0.930 . S
C3081 C3079 1.419 . S
C3081 C3082 1.362 . S
C3082 H3074 0.930 . S
C3082 C3081 1.362 . S
C3082 C3085 1.409 . S
C3083 H3075 0.930 . S
C3083 C3084 1.355 . S
C3083 C3085 1.415 1_545 S
C3084 C3083 1.355 . S
C3084 C3086 1.419 . S
C3085 C3080 1.425 . S
C3085 C3082 1.409 . S
C3085 C3083 1.415 1_565 S
C3086 H3076 0.930 . S
C3086 C3084 1.419 . S
C3086 C3087 1.362 1_545 S
C3087 H3077 0.930 . S
C3087 C3080 1.409 . S
C3087 C3086 1.362 1_565 S
H3088 C3094 0.930 . S
H3089 C3097 0.930 . S
H3090 C3098 0.930 . S
H3091 C3099 0.930 . S
H3092 C3102 0.930 . S
H3093 C3103 0.930 . S
C3094 H3088 0.930 . S
C3094 C3095 1.355 . S
C3094 C3096 1.415 . S
C3095 C3094 1.355 . S
C3095 C3097 1.419 . S
C3096 C3094 1.415 . S
C3096 C3101 1.425 . S
C3096 C3103 1.409 . S
C3097 H3089 0.930 . S
C3097 C3095 1.419 . S
C3097 C3098 1.362 . S
C3098 H3090 0.930 . S
C3098 C3097 1.362 . S
C3098 C3101 1.409 . S
C3099 H3091 0.930 . S
C3099 C3100 1.355 . S
C3099 C3101 1.415 1_655 S
C3100 C3099 1.355 . S
C3100 C3102 1.419 . S
C3101 C3096 1.425 . S
C3101 C3098 1.409 . S
C3101 C3099 1.415 1_455 S
C3102 H3092 0.930 . S
C3102 C3100 1.419 . S
C3102 C3103 1.362 1_655 S
C3103 H3093 0.930 . S
C3103 C3096 1.409 . S
C3103 C3102 1.362 1_455 S
H3104 C3110 0.930 . S
H3105 C3113 0.930 . S
H3106 C3114 0.930 . S
H3107 C3115 0.930 . S
H3108 C3118 0.930 . S
H3109 C3119 0.930 . S
C3110 H3104 0.930 . S
C3110 C3111 1.355 . S
C3110 C3112 1.415 . S
C3111 C3110 1.355 . S
C3111 C3113 1.419 . S
C3112 C3110 1.415 . S
C3112 C3117 1.425 . S
C3112 C3119 1.409 . S
C3113 H3105 0.930 . S
C3113 C3111 1.419 . S
C3113 C3114 1.362 . S
C3114 H3106 0.930 . S
C3114 C3113 1.362 . S
C3114 C3117 1.409 . S
C3115 H3107 0.930 . S
C3115 C3116 1.355 . S
C3115 C3117 1.415 1_565 S
C3116 C3115 1.355 . S
C3116 C3118 1.419 . S
C3117 C3112 1.425 . S
C3117 C3114 1.409 . S
C3117 C3115 1.415 1_545 S
C3118 H3108 0.930 . S
C3118 C3116 1.419 . S
C3118 C3119 1.362 1_565 S
C3119 H3109 0.930 . S
C3119 C3112 1.409 . S
C3119 C3118 1.362 1_545 S
H3120 C3126 0.930 . S
H3121 C3129 0.930 . S
H3122 C3130 0.930 . S
H3123 C3131 0.930 . S
H3124 C3134 0.930 . S
H3125 C3135 0.930 . S
C3126 H3120 0.930 . S
C3126 C3127 1.355 . S
C3126 C3128 1.415 1_455 S
C3127 C3126 1.355 . S
C3127 C3129 1.419 . S
C3128 C3126 1.415 1_655 S
C3128 C3133 1.425 . S
C3128 C3135 1.409 . S
C3129 H3121 0.930 . S
C3129 C3127 1.419 . S
C3129 C3130 1.362 1_455 S
C3130 H3122 0.930 . S
C3130 C3129 1.362 1_655 S
C3130 C3133 1.409 . S
C3131 H3123 0.930 . S
C3131 C3132 1.355 . S
C3131 C3133 1.415 . S
C3132 C3131 1.355 . S
C3132 C3134 1.419 . S
C3133 C3128 1.425 . S
C3133 C3130 1.409 . S
C3133 C3131 1.415 . S
C3134 H3124 0.930 . S
C3134 C3132 1.419 . S
C3134 C3135 1.362 . S
C3135 H3125 0.930 . S
C3135 C3128 1.409 . S
C3135 C3134 1.362 . S
H3136 C3142 0.930 . S
H3137 C3145 0.930 . S
H3138 C3146 0.930 . S
H3139 C3147 0.930 . S
H3140 C3150 0.930 . S
H3141 C3151 0.930 . S
C3142 H3136 0.930 . S
C3142 C3143 1.355 . S
C3142 C3144 1.415 . S
C3143 C3142 1.355 . S
C3143 C3145 1.419 . S
C3144 C3142 1.415 . S
C3144 C3149 1.425 . S
C3144 C3151 1.409 . S
C3145 H3137 0.930 . S
C3145 C3143 1.419 . S
C3145 C3146 1.362 . S
C3146 H3138 0.930 . S
C3146 C3145 1.362 . S
C3146 C3149 1.409 . S
C3147 H3139 0.930 . S
C3147 C3148 1.355 . S
C3147 C3149 1.415 1_556 S
C3148 C3147 1.355 . S
C3148 C3150 1.419 . S
C3149 C3144 1.425 . S
C3149 C3146 1.409 . S
C3149 C3147 1.415 1_554 S
C3150 H3140 0.930 . S
C3150 C3148 1.419 . S
C3150 C3151 1.362 1_556 S
C3151 H3141 0.930 . S
C3151 C3144 1.409 . S
C3151 C3150 1.362 1_554 S
H3152 C3158 0.930 . S
H3153 C3161 0.930 . S
H3154 C3162 0.930 . S
H3155 C3163 0.930 . S
H3156 C3166 0.930 . S
H3157 C3167 0.930 . S
C3158 H3152 0.930 . S
C3158 C3159 1.355 . S
C3158 C3160 1.415 . S
C3159 C3158 1.355 . S
C3159 C3161 1.419 . S
C3160 C3158 1.415 . S
C3160 C3165 1.425 . S
C3160 C3167 1.409 . S
C3161 H3153 0.930 . S
C3161 C3159 1.419 . S
C3161 C3162 1.362 . S
C3162 H3154 0.930 . S
C3162 C3161 1.362 . S
C3162 C3165 1.409 . S
C3163 H3155 0.930 . S
C3163 C3164 1.355 . S
C3163 C3165 1.415 1_554 S
C3164 C3163 1.355 . S
C3164 C3166 1.419 . S
C3165 C3160 1.425 . S
C3165 C3162 1.409 . S
C3165 C3163 1.415 1_556 S
C3166 H3156 0.930 . S
C3166 C3164 1.419 . S
C3166 C3167 1.362 1_554 S
C3167 H3157 0.930 . S
C3167 C3160 1.409 . S
C3167 C3166 1.362 1_556 S
H3168 C3174 0.930 . S
H3169 C3177 0.930 . S
H3170 C3178 0.930 . S
H3171 C3179 0.930 . S
H3172 C3182 0.930 . S
H3173 C3183 0.930 . S
C3174 H3168 0.930 . S
C3174 C3175 1.355 . S
C3174 C3176 1.415 1_554 S
C3175 C3174 1.355 . S
C3175 C3177 1.419 . S
C3176 C3174 1.415 1_556 S
C3176 C3181 1.425 . S
C3176 C3183 1.409 . S
C3177 H3169 0.930 . S
C3177 C3175 1.419 . S
C3177 C3178 1.362 1_554 S
C3178 H3170 0.930 . S
C3178 C3177 1.362 1_556 S
C3178 C3181 1.409 . S
C3179 H3171 0.930 . S
C3179 C3180 1.355 . S
C3179 C3181 1.415 . S
C3180 C3179 1.355 . S
C3180 C3182 1.419 . S
C3181 C3176 1.425 . S
C3181 C3178 1.409 . S
C3181 C3179 1.415 . S
C3182 H3172 0.930 . S
C3182 C3180 1.419 . S
C3182 C3183 1.362 . S
C3183 H3173 0.930 . S
C3183 C3176 1.409 . S
C3183 C3182 1.362 . S
H3184 C3190 0.930 . S
H3185 C3193 0.930 . S
H3186 C3194 0.930 . S
H3187 C3195 0.930 . S
H3188 C3198 0.930 . S
H3189 C3199 0.930 . S
C3190 H3184 0.930 . S
C3190 C3191 1.355 . S
C3190 C3192 1.415 . S
C3191 C3190 1.355 . S
C3191 C3193 1.419 . S
C3192 C3190 1.415 . S
C3192 C3197 1.425 . S
C3192 C3199 1.409 . S
C3193 H3185 0.930 . S
C3193 C3191 1.419 . S
C3193 C3194 1.362 . S
C3194 H3186 0.930 . S
C3194 C3193 1.362 . S
C3194 C3197 1.409 . S
C3195 H3187 0.930 . S
C3195 C3196 1.355 . S
C3195 C3197 1.415 1_554 S
C3196 C3195 1.355 . S
C3196 C3198 1.419 . S
C3197 C3192 1.425 . S
C3197 C3194 1.409 . S
C3197 C3195 1.415 1_556 S
C3198 H3188 0.930 . S
C3198 C3196 1.419 . S
C3198 C3199 1.362 1_554 S
C3199 H3189 0.930 . S
C3199 C3192 1.409 . S
C3199 C3198 1.362 1_556 S
H3200 C3206 0.930 . S
H3201 C3209 0.930 . S
H3202 C3210 0.930 . S
H3203 C3211 0.930 . S
H3204 C3214 0.930 . S
H3205 C3215 0.930 . S
C3206 H3200 0.930 . S
C3206 C3207 1.355 . S
C3206 C3208 1.415 1_554 S
C3207 C3206 1.355 . S
C3207 C3209 1.419 . S
C3208 C3206 1.415 1_556 S
C3208 C3213 1.425 . S
C3208 C3215 1.409 . S
C3209 H3201 0.930 . S
C3209 C3207 1.419 . S
C3209 C3210 1.362 1_554 S
C3210 H3202 0.930 . S
C3210 C3209 1.362 1_556 S
C3210 C3213 1.409 . S
C3211 H3203 0.930 . S
C3211 C3212 1.355 . S
C3211 C3213 1.415 . S
C3212 C3211 1.355 . S
C3212 C3214 1.419 . S
C3213 C3208 1.425 . S
C3213 C3210 1.409 . S
C3213 C3211 1.415 . S
C3214 H3204 0.930 . S
C3214 C3212 1.419 . S
C3214 C3215 1.362 . S
C3215 H3205 0.930 . S
C3215 C3208 1.409 . S
C3215 C3214 1.362 . S
H3216 C3222 0.930 . S
H3217 C3225 0.930 . S
H3218 C3226 0.930 . S
H3219 C3227 0.930 . S
H3220 C3230 0.930 . S
H3221 C3231 0.930 . S
C3222 H3216 0.930 . S
C3222 C3223 1.355 . S
C3222 C3224 1.415 . S
C3223 C3222 1.355 . S
C3223 C3225 1.419 . S
C3224 C3222 1.415 . S
C3224 C3229 1.425 . S
C3224 C3231 1.409 . S
C3225 H3217 0.930 . S
C3225 C3223 1.419 . S
C3225 C3226 1.362 . S
C3226 H3218 0.930 . S
C3226 C3225 1.362 . S
C3226 C3229 1.409 . S
C3227 H3219 0.930 . S
C3227 C3228 1.355 . S
C3227 C3229 1.415 1_556 S
C3228 C3227 1.355 . S
C3228 C3230 1.419 . S
C3229 C3224 1.425 . S
C3229 C3226 1.409 . S
C3229 C3227 1.415 1_554 S
C3230 H3220 0.930 . S
C3230 C3228 1.419 . S
C3230 C3231 1.362 1_556 S
C3231 H3221 0.930 . S
C3231 C3224 1.409 . S
C3231 C3230 1.362 1_554 S
H3232 C3238 0.930 . S
H3233 C3241 0.930 . S
H3234 C3242 0.930 . S
H3235 C3243 0.930 . S
H3236 C3246 0.930 . S
H3237 C3247 0.930 . S
C3238 H3232 0.930 . S
C3238 C3239 1.355 . S
C3238 C3240 1.415 1_556 S
C3239 C3238 1.355 . S
C3239 C3241 1.419 . S
C3240 C3238 1.415 1_554 S
C3240 C3245 1.425 . S
C3240 C3247 1.409 . S
C3241 H3233 0.930 . S
C3241 C3239 1.419 . S
C3241 C3242 1.362 1_556 S
C3242 H3234 0.930 . S
C3242 C3241 1.362 1_554 S
C3242 C3245 1.409 . S
C3243 H3235 0.930 . S
C3243 C3244 1.355 . S
C3243 C3245 1.415 . S
C3244 C3243 1.355 . S
C3244 C3246 1.419 . S
C3245 C3240 1.425 . S
C3245 C3242 1.409 . S
C3245 C3243 1.415 . S
C3246 H3236 0.930 . S
C3246 C3244 1.419 . S
C3246 C3247 1.362 . S
C3247 H3237 0.930 . S
C3247 C3240 1.409 . S
C3247 C3246 1.362 . S
H3248 C3254 0.930 . S
H3249 C3257 0.930 . S
H3250 C3258 0.930 . S
H3251 C3259 0.930 . S
H3252 C3262 0.930 . S
H3253 C3263 0.930 . S
C3254 H3248 0.930 . S
C3254 C3255 1.355 . S
C3254 C3256 1.415 1_556 S
C3255 C3254 1.355 . S
C3255 C3257 1.419 . S
C3256 C3254 1.415 1_554 S
C3256 C3261 1.425 . S
C3256 C3263 1.409 . S
C3257 H3249 0.930 . S
C3257 C3255 1.419 . S
C3257 C3258 1.362 1_556 S
C3258 H3250 0.930 . S
C3258 C3257 1.362 1_554 S
C3258 C3261 1.409 . S
C3259 H3251 0.930 . S
C3259 C3260 1.355 . S
C3259 C3261 1.415 . S
C3260 C3259 1.355 . S
C3260 C3262 1.419 . S
C3261 C3256 1.425 . S
C3261 C3258 1.409 . S
C3261 C3259 1.415 . S
C3262 H3252 0.930 . S
C3262 C3260 1.419 . S
C3262 C3263 1.362 . S
C3263 H3253 0.930 . S
C3263 C3256 1.409 . S
C3263 C3262 1.362 . S
H3264 C3270 0.930 . S
H3265 C3273 0.930 . S
H3266 C3274 0.930 . S
H3267 C3275 0.930 . S
H3268 C3278 0.930 . S
H3269 C3279 0.930 . S
C3270 H3264 0.930 . S
C3270 C3271 1.355 . S
C3270 C3272 1.415 . S
C3271 C3270 1.355 . S
C3271 C3273 1.419 . S
C3272 C3270 1.415 . S
C3272 C3277 1.425 . S
C3272 C3279 1.409 . S
C3273 H3265 0.930 . S
C3273 C3271 1.419 . S
C3273 C3274 1.362 . S
C3274 H3266 0.930 . S
C3274 C3273 1.362 . S
C3274 C3277 1.409 . S
C3275 H3267 0.930 . S
C3275 C3276 1.355 . S
C3275 C3277 1.415 . S
C3276 C3275 1.355 . S
C3276 C3278 1.419 . S
C3277 C3272 1.425 . S
C3277 C3274 1.409 . S
C3277 C3275 1.415 . S
C3278 H3268 0.930 . S
C3278 C3276 1.419 . S
C3278 C3279 1.362 . S
C3279 H3269 0.930 . S
C3279 C3272 1.409 . S
C3279 C3278 1.362 . S
H3280 C3286 0.930 . S
H3281 C3289 0.930 . S
H3282 C3290 0.930 . S
H3283 C3291 0.930 . S
H3284 C3294 0.930 . S
H3285 C3295 0.930 . S
C3286 H3280 0.930 . S
C3286 C3287 1.355 . S
C3286 C3288 1.415 . S
C3287 C3286 1.355 . S
C3287 C3289 1.419 . S
C3288 C3286 1.415 . S
C3288 C3293 1.425 . S
C3288 C3295 1.409 . S
C3289 H3281 0.930 . S
C3289 C3287 1.419 . S
C3289 C3290 1.362 . S
C3290 H3282 0.930 . S
C3290 C3289 1.362 . S
C3290 C3293 1.409 . S
C3291 H3283 0.930 . S
C3291 C3292 1.355 . S
C3291 C3293 1.415 . S
C3292 C3291 1.355 . S
C3292 C3294 1.419 . S
C3293 C3288 1.425 . S
C3293 C3290 1.409 . S
C3293 C3291 1.415 . S
C3294 H3284 0.930 . S
C3294 C3292 1.419 . S
C3294 C3295 1.362 . S
C3295 H3285 0.930 . S
C3295 C3288 1.409 . S
C3295 C3294 1.362 . S
H3296 C3302 0.930 . S
H3297 C3305 0.930 . S
H3298 C3306 0.930 . S
H3299 C3307 0.930 . S
H3300 C3310 0.930 . S
H3301 C3311 0.930 . S
C3302 H3296 0.930 . S
C3302 C3303 1.355 . S
C3302 C3304 1.415 . S
C3303 C3302 1.355 . S
C3303 C3305 1.419 . S
C3304 C3302 1.415 . S
C3304 C3309 1.425 . S
C3304 C3311 1.409 . S
C3305 H3297 0.930 . S
C3305 C3303 1.419 . S
C3305 C3306 1.362 . S
C3306 H3298 0.930 . S
C3306 C3305 1.362 . S
C3306 C3309 1.409 . S
C3307 H3299 0.930 . S
C3307 C3308 1.355 . S
C3307 C3309 1.415 . S
C3308 C3307 1.355 . S
C3308 C3310 1.419 . S
C3309 C3304 1.425 . S
C3309 C3306 1.409 . S
C3309 C3307 1.415 . S
C3310 H3300 0.930 . S
C3310 C3308 1.419 . S
C3310 C3311 1.362 . S
C3311 H3301 0.930 . S
C3311 C3304 1.409 . S
C3311 C3310 1.362 . S
H3312 C3318 0.930 . S
H3313 C3321 0.930 . S
H3314 C3322 0.930 . S
H3315 C3323 0.930 . S
H3316 C3326 0.930 . S
H3317 C3327 0.930 . S
C3318 H3312 0.930 . S
C3318 C3319 1.355 . S
C3318 C3320 1.415 . S
C3319 C3318 1.355 . S
C3319 C3321 1.419 . S
C3320 C3318 1.415 . S
C3320 C3325 1.425 . S
C3320 C3327 1.409 . S
C3321 H3313 0.930 . S
C3321 C3319 1.419 . S
C3321 C3322 1.362 . S
C3322 H3314 0.930 . S
C3322 C3321 1.362 . S
C3322 C3325 1.409 . S
C3323 H3315 0.930 . S
C3323 C3324 1.355 . S
C3323 C3325 1.415 . S
C3324 C3323 1.355 . S
C3324 C3326 1.419 . S
C3325 C3320 1.425 . S
C3325 C3322 1.409 . S
C3325 C3323 1.415 . S
C3326 H3316 0.930 . S
C3326 C3324 1.419 . S
C3326 C3327 1.362 . S
C3327 H3317 0.930 . S
C3327 C3320 1.409 . S
C3327 C3326 1.362 . S
H3328 C3334 0.930 . S
H3329 C3337 0.930 . S
H3330 C3338 0.930 . S
H3331 C3339 0.930 . S
H3332 C3342 0.930 . S
H3333 C3343 0.930 . S
C3334 H3328 0.930 . S
C3334 C3335 1.355 . S
C3334 C3336 1.415 . S
C3335 C3334 1.355 . S
C3335 C3337 1.419 . S
C3336 C3334 1.415 . S
C3336 C3341 1.425 . S
C3336 C3343 1.409 . S
C3337 H3329 0.930 . S
C3337 C3335 1.419 . S
C3337 C3338 1.362 . S
C3338 H3330 0.930 . S
C3338 C3337 1.362 . S
C3338 C3341 1.409 . S
C3339 H3331 0.930 . S
C3339 C3340 1.355 . S
C3339 C3341 1.415 . S
C3340 C3339 1.355 . S
C3340 C3342 1.419 . S
C3341 C3336 1.425 . S
C3341 C3338 1.409 . S
C3341 C3339 1.415 . S
C3342 H3332 0.930 . S
C3342 C3340 1.419 . S
C3342 C3343 1.362 . S
C3343 H3333 0.930 . S
C3343 C3336 1.409 . S
C3343 C3342 1.362 . S
H3344 C3350 0.930 . S
H3345 C3353 0.930 . S
H3346 C3354 0.930 . S
H3347 C3355 0.930 . S
H3348 C3358 0.930 . S
H3349 C3359 0.930 . S
C3350 H3344 0.930 . S
C3350 C3351 1.355 . S
C3350 C3352 1.415 . S
C3351 C3350 1.355 . S
C3351 C3353 1.419 . S
C3352 C3350 1.415 . S
C3352 C3357 1.425 . S
C3352 C3359 1.409 . S
C3353 H3345 0.930 . S
C3353 C3351 1.419 . S
C3353 C3354 1.362 . S
C3354 H3346 0.930 . S
C3354 C3353 1.362 . S
C3354 C3357 1.409 . S
C3355 H3347 0.930 . S
C3355 C3356 1.355 . S
C3355 C3357 1.415 . S
C3356 C3355 1.355 . S
C3356 C3358 1.419 . S
C3357 C3352 1.425 . S
C3357 C3354 1.409 . S
C3357 C3355 1.415 . S
C3358 H3348 0.930 . S
C3358 C3356 1.419 . S
C3358 C3359 1.362 . S
C3359 H3349 0.930 . S
C3359 C3352 1.409 . S
C3359 C3358 1.362 . S
H3360 C3366 0.930 . S
H3361 C3369 0.930 . S
H3362 C3370 0.930 . S
H3363 C3371 0.930 . S
H3364 C3374 0.930 . S
H3365 C3375 0.930 . S
C3366 H3360 0.930 . S
C3366 C3367 1.355 . S
C3366 C3368 1.415 . S
C3367 C3366 1.355 . S
C3367 C3369 1.419 . S
C3368 C3366 1.415 . S
C3368 C3373 1.425 . S
C3368 C3375 1.409 . S
C3369 H3361 0.930 . S
C3369 C3367 1.419 . S
C3369 C3370 1.362 . S
C3370 H3362 0.930 . S
C3370 C3369 1.362 . S
C3370 C3373 1.409 . S
C3371 H3363 0.930 . S
C3371 C3372 1.355 . S
C3371 C3373 1.415 . S
C3372 C3371 1.355 . S
C3372 C3374 1.419 . S
C3373 C3368 1.425 . S
C3373 C3370 1.409 . S
C3373 C3371 1.415 . S
C3374 H3364 0.930 . S
C3374 C3372 1.419 . S
C3374 C3375 1.362 . S
C3375 H3365 0.930 . S
C3375 C3368 1.409 . S
C3375 C3374 1.362 . S
H3376 C3382 0.930 . S
H3377 C3385 0.930 . S
H3378 C3386 0.930 . S
H3379 C3387 0.930 . S
H3380 C3390 0.930 . S
H3381 C3391 0.930 . S
C3382 H3376 0.930 . S
C3382 C3383 1.355 . S
C3382 C3384 1.415 . S
C3383 C3382 1.355 . S
C3383 C3385 1.419 . S
C3384 C3382 1.415 . S
C3384 C3389 1.425 . S
C3384 C3391 1.409 . S
C3385 H3377 0.930 . S
C3385 C3383 1.419 . S
C3385 C3386 1.362 . S
C3386 H3378 0.930 . S
C3386 C3385 1.362 . S
C3386 C3389 1.409 . S
C3387 H3379 0.930 . S
C3387 C3388 1.355 . S
C3387 C3389 1.415 . S
C3388 C3387 1.355 . S
C3388 C3390 1.419 . S
C3389 C3384 1.425 . S
C3389 C3386 1.409 . S
C3389 C3387 1.415 . S
C3390 H3380 0.930 . S
C3390 C3388 1.419 . S
C3390 C3391 1.362 . S
C3391 H3381 0.930 . S
C3391 C3384 1.409 . S
C3391 C3390 1.362 . S
H3392 C3398 0.930 . S
H3393 C3401 0.930 . S
H3394 C3402 0.930 . S
H3395 C3403 0.930 . S
H3396 C3406 0.930 . S
H3397 C3407 0.930 . S
C3398 H3392 0.930 . S
C3398 C3399 1.355 . S
C3398 C3400 1.415 . S
C3399 C3398 1.355 . S
C3399 C3401 1.419 . S
C3400 C3398 1.415 . S
C3400 C3405 1.425 . S
C3400 C3407 1.409 . S
C3401 H3393 0.930 . S
C3401 C3399 1.419 . S
C3401 C3402 1.362 . S
C3402 H3394 0.930 . S
C3402 C3401 1.362 . S
C3402 C3405 1.409 . S
C3403 H3395 0.930 . S
C3403 C3404 1.355 . S
C3403 C3405 1.415 . S
C3404 C3403 1.355 . S
C3404 C3406 1.419 . S
C3405 C3400 1.425 . S
C3405 C3402 1.409 . S
C3405 C3403 1.415 . S
C3406 H3396 0.930 . S
C3406 C3404 1.419 . S
C3406 C3407 1.362 . S
C3407 H3397 0.930 . S
C3407 C3400 1.409 . S
C3407 C3406 1.362 . S
H3408 C3414 0.930 . S
H3409 C3417 0.930 . S
H3410 C3418 0.930 . S
H3411 C3419 0.930 . S
H3412 C3422 0.930 . S
H3413 C3423 0.930 . S
C3414 H3408 0.930 . S
C3414 C3415 1.355 . S
C3414 C3416 1.415 . S
C3415 C3414 1.355 . S
C3415 C3417 1.419 . S
C3416 C3414 1.415 . S
C3416 C3421 1.425 . S
C3416 C3423 1.409 . S
C3417 H3409 0.930 . S
C3417 C3415 1.419 . S
C3417 C3418 1.362 . S
C3418 H3410 0.930 . S
C3418 C3417 1.362 . S
C3418 C3421 1.409 . S
C3419 H3411 0.930 . S
C3419 C3420 1.355 . S
C3419 C3421 1.415 . S
C3420 C3419 1.355 . S
C3420 C3422 1.419 . S
C3421 C3416 1.425 . S
C3421 C3418 1.409 . S
C3421 C3419 1.415 . S
C3422 H3412 0.930 . S
C3422 C3420 1.419 . S
C3422 C3423 1.362 . S
C3423 H3413 0.930 . S
C3423 C3416 1.409 . S
C3423 C3422 1.362 . S
H3424 C3430 0.930 . S
H3425 C3433 0.930 . S
H3426 C3434 0.930 . S
H3427 C3435 0.930 . S
H3428 C3438 0.930 . S
H3429 C3439 0.930 . S
C3430 H3424 0.930 . S
C3430 C3431 1.355 . S
C3430 C3432 1.415 . S
C3431 C3430 1.355 . S
C3431 C3433 1.419 . S
C3432 C3430 1.415 . S
C3432 C3437 1.425 . S
C3432 C3439 1.409 . S
C3433 H3425 0.930 . S
C3433 C3431 1.419 . S
C3433 C3434 1.362 . S
C3434 H3426 0.930 . S
C3434 C3433 1.362 . S
C3434 C3437 1.409 . S
C3435 H3427 0.930 . S
C3435 C3436 1.355 . S
C3435 C3437 1.415 . S
C3436 C3435 1.355 . S
C3436 C3438 1.419 . S
C3437 C3432 1.425 . S
C3437 C3434 1.409 . S
C3437 C3435 1.415 . S
C3438 H3428 0.930 . S
C3438 C3436 1.419 . S
C3438 C3439 1.362 . S
C3439 H3429 0.930 . S
C3439 C3432 1.409 . S
C3439 C3438 1.362 . S
H3440 C3446 0.930 . S
H3441 C3449 0.930 . S
H3442 C3450 0.930 . S
H3443 C3451 0.930 . S
H3444 C3454 0.930 . S
H3445 C3455 0.930 . S
C3446 H3440 0.930 . S
C3446 C3447 1.355 . S
C3446 C3448 1.415 . S
C3447 C3446 1.355 . S
C3447 C3449 1.419 . S
C3448 C3446 1.415 . S
C3448 C3453 1.425 . S
C3448 C3455 1.409 . S
C3449 H3441 0.930 . S
C3449 C3447 1.419 . S
C3449 C3450 1.362 . S
C3450 H3442 0.930 . S
C3450 C3449 1.362 . S
C3450 C3453 1.409 . S
C3451 H3443 0.930 . S
C3451 C3452 1.355 . S
C3451 C3453 1.415 . S
C3452 C3451 1.355 . S
C3452 C3454 1.419 . S
C3453 C3448 1.425 . S
C3453 C3450 1.409 . S
C3453 C3451 1.415 . S
C3454 H3444 0.930 . S
C3454 C3452 1.419 . S
C3454 C3455 1.362 . S
C3455 H3445 0.930 . S
C3455 C3448 1.409 . S
C3455 C3454 1.362 . S
H3456 C3462 0.930 . S
H3457 C3465 0.930 . S
H3458 C3466 0.930 . S
H3459 C3467 0.930 . S
H3460 C3470 0.930 . S
H3461 C3471 0.930 . S
C3462 H3456 0.930 . S
C3462 C3463 1.355 . S
C3462 C3464 1.415 . S
C3463 C3462 1.355 . S
C3463 C3465 1.419 . S
C3464 C3462 1.415 . S
C3464 C3469 1.425 . S
C3464 C3471 1.409 . S
C3465 H3457 0.930 . S
C3465 C3463 1.419 . S
C3465 C3466 1.362 . S
C3466 H3458 0.930 . S
C3466 C3465 1.362 . S
C3466 C3469 1.409 . S
C3467 H3459 0.930 . S
C3467 C3468 1.355 . S
C3467 C3469 1.415 . S
C3468 C3467 1.355 . S
C3468 C3470 1.419 . S
C3469 C3464 1.425 . S
C3469 C3466 1.409 . S
C3469 C3467 1.415 . S
C3470 H3460 0.930 . S
C3470 C3468 1.419 . S
C3470 C3471 1.362 . S
C3471 H3461 0.930 . S
C3471 C3464 1.409 . S
C3471 C3470 1.362 . S
H3472 C3478 0.930 . S
H3473 C3481 0.930 . S
H3474 C3482 0.930 . S
H3475 C3483 0.930 . S
H3476 C3486 0.930 . S
H3477 C3487 0.930 . S
C3478 H3472 0.930 . S
C3478 C3479 1.355 . S
C3478 C3480 1.415 . S
C3479 C3478 1.355 . S
C3479 C3481 1.419 . S
C3480 C3478 1.415 . S
C3480 C3485 1.425 . S
C3480 C3487 1.409 . S
C3481 H3473 0.930 . S
C3481 C3479 1.419 . S
C3481 C3482 1.362 . S
C3482 H3474 0.930 . S
C3482 C3481 1.362 . S
C3482 C3485 1.409 . S
C3483 H3475 0.930 . S
C3483 C3484 1.355 . S
C3483 C3485 1.415 . S
C3484 C3483 1.355 . S
C3484 C3486 1.419 . S
C3485 C3480 1.425 . S
C3485 C3482 1.409 . S
C3485 C3483 1.415 . S
C3486 H3476 0.930 . S
C3486 C3484 1.419 . S
C3486 C3487 1.362 . S
C3487 H3477 0.930 . S
C3487 C3480 1.409 . S
C3487 C3486 1.362 . S
H3488 C3494 0.930 . S
H3489 C3497 0.930 . S
H3490 C3498 0.930 . S
H3491 C3499 0.930 . S
H3492 C3502 0.930 . S
H3493 C3503 0.930 . S
C3494 H3488 0.930 . S
C3494 C3495 1.355 . S
C3494 C3496 1.415 . S
C3495 C3494 1.355 . S
C3495 C3497 1.419 . S
C3496 C3494 1.415 . S
C3496 C3501 1.425 . S
C3496 C3503 1.409 . S
C3497 H3489 0.930 . S
C3497 C3495 1.419 . S
C3497 C3498 1.362 . S
C3498 H3490 0.930 . S
C3498 C3497 1.362 . S
C3498 C3501 1.409 . S
C3499 H3491 0.930 . S
C3499 C3500 1.355 . S
C3499 C3501 1.415 . S
C3500 C3499 1.355 . S
C3500 C3502 1.419 . S
C3501 C3496 1.425 . S
C3501 C3498 1.409 . S
C3501 C3499 1.415 . S
C3502 H3492 0.930 . S
C3502 C3500 1.419 . S
C3502 C3503 1.362 . S
C3503 H3493 0.930 . S
C3503 C3496 1.409 . S
C3503 C3502 1.362 . S
H3504 C3510 0.930 . S
H3505 C3513 0.930 . S
H3506 C3514 0.930 . S
H3507 C3515 0.930 . S
H3508 C3518 0.930 . S
H3509 C3519 0.930 . S
C3510 H3504 0.930 . S
C3510 C3511 1.355 . S
C3510 C3512 1.415 . S
C3511 C3510 1.355 . S
C3511 C3513 1.419 . S
C3512 C3510 1.415 . S
C3512 C3517 1.425 . S
C3512 C3519 1.409 . S
C3513 H3505 0.930 . S
C3513 C3511 1.419 . S
C3513 C3514 1.362 . S
C3514 H3506 0.930 . S
C3514 C3513 1.362 . S
C3514 C3517 1.409 . S
C3515 H3507 0.930 . S
C3515 C3516 1.355 . S
C3515 C3517 1.415 . S
C3516 C3515 1.355 . S
C3516 C3518 1.419 . S
C3517 C3512 1.425 . S
C3517 C3514 1.409 . S
C3517 C3515 1.415 . S
C3518 H3508 0.930 . S
C3518 C3516 1.419 . S
C3518 C3519 1.362 . S
C3519 H3509 0.930 . S
C3519 C3512 1.409 . S
C3519 C3518 1.362 . S
H3520 C3526 0.930 . S
H3521 C3529 0.930 . S
H3522 C3530 0.930 . S
H3523 C3531 0.930 . S
H3524 C3534 0.930 . S
H3525 C3535 0.930 . S
C3526 H3520 0.930 . S
C3526 C3527 1.355 . S
C3526 C3528 1.415 . S
C3527 C3526 1.355 . S
C3527 C3529 1.419 . S
C3528 C3526 1.415 . S
C3528 C3533 1.425 . S
C3528 C3535 1.409 . S
C3529 H3521 0.930 . S
C3529 C3527 1.419 . S
C3529 C3530 1.362 . S
C3530 H3522 0.930 . S
C3530 C3529 1.362 . S
C3530 C3533 1.409 . S
C3531 H3523 0.930 . S
C3531 C3532 1.355 . S
C3531 C3533 1.415 . S
C3532 C3531 1.355 . S
C3532 C3534 1.419 . S
C3533 C3528 1.425 . S
C3533 C3530 1.409 . S
C3533 C3531 1.415 . S
C3534 H3524 0.930 . S
C3534 C3532 1.419 . S
C3534 C3535 1.362 . S
C3535 H3525 0.930 . S
C3535 C3528 1.409 . S
C3535 C3534 1.362 . S
H3536 C3542 0.930 . S
H3537 C3545 0.930 . S
H3538 C3546 0.930 . S
H3539 C3547 0.930 . S
H3540 C3550 0.930 . S
H3541 C3551 0.930 . S
C3542 H3536 0.930 . S
C3542 C3543 1.355 . S
C3542 C3544 1.415 . S
C3543 C3542 1.355 . S
C3543 C3545 1.419 . S
C3544 C3542 1.415 . S
C3544 C3549 1.425 . S
C3544 C3551 1.409 . S
C3545 H3537 0.930 . S
C3545 C3543 1.419 . S
C3545 C3546 1.362 . S
C3546 H3538 0.930 . S
C3546 C3545 1.362 . S
C3546 C3549 1.409 . S
C3547 H3539 0.930 . S
C3547 C3548 1.355 . S
C3547 C3549 1.415 . S
C3548 C3547 1.355 . S
C3548 C3550 1.419 . S
C3549 C3544 1.425 . S
C3549 C3546 1.409 . S
C3549 C3547 1.415 . S
C3550 H3540 0.930 . S
C3550 C3548 1.419 . S
C3550 C3551 1.362 . S
C3551 H3541 0.930 . S
C3551 C3544 1.409 . S
C3551 C3550 1.362 . S
H3552 C3558 0.930 . S
H3553 C3561 0.930 . S
H3554 C3562 0.930 . S
H3555 C3563 0.930 . S
H3556 C3566 0.930 . S
H3557 C3567 0.930 . S
C3558 H3552 0.930 . S
C3558 C3559 1.355 . S
C3558 C3560 1.415 . S
C3559 C3558 1.355 . S
C3559 C3561 1.419 . S
C3560 C3558 1.415 . S
C3560 C3565 1.425 . S
C3560 C3567 1.409 . S
C3561 H3553 0.930 . S
C3561 C3559 1.419 . S
C3561 C3562 1.362 . S
C3562 H3554 0.930 . S
C3562 C3561 1.362 . S
C3562 C3565 1.409 . S
C3563 H3555 0.930 . S
C3563 C3564 1.355 . S
C3563 C3565 1.415 . S
C3564 C3563 1.355 . S
C3564 C3566 1.419 . S
C3565 C3560 1.425 . S
C3565 C3562 1.409 . S
C3565 C3563 1.415 . S
C3566 H3556 0.930 . S
C3566 C3564 1.419 . S
C3566 C3567 1.362 . S
C3567 H3557 0.930 . S
C3567 C3560 1.409 . S
C3567 C3566 1.362 . S
H3568 C3574 0.930 . S
H3569 C3577 0.930 . S
H3570 C3578 0.930 . S
H3571 C3579 0.930 . S
H3572 C3582 0.930 . S
H3573 C3583 0.930 . S
C3574 H3568 0.930 . S
C3574 C3575 1.355 . S
C3574 C3576 1.415 . S
C3575 C3574 1.355 . S
C3575 C3577 1.419 . S
C3576 C3574 1.415 . S
C3576 C3581 1.425 . S
C3576 C3583 1.409 . S
C3577 H3569 0.930 . S
C3577 C3575 1.419 . S
C3577 C3578 1.362 . S
C3578 H3570 0.930 . S
C3578 C3577 1.362 . S
C3578 C3581 1.409 . S
C3579 H3571 0.930 . S
C3579 C3580 1.355 . S
C3579 C3581 1.415 . S
C3580 C3579 1.355 . S
C3580 C3582 1.419 . S
C3581 C3576 1.425 . S
C3581 C3578 1.409 . S
C3581 C3579 1.415 . S
C3582 H3572 0.930 . S
C3582 C3580 1.419 . S
C3582 C3583 1.362 . S
C3583 H3573 0.930 . S
C3583 C3576 1.409 . S
C3583 C3582 1.362 . S
H3584 C3590 0.930 . S
H3585 C3593 0.930 . S
H3586 C3594 0.930 . S
H3587 C3595 0.930 . S
H3588 C3598 0.930 . S
H3589 C3599 0.930 . S
C3590 H3584 0.930 . S
C3590 C3591 1.355 . S
C3590 C3592 1.415 . S
C3591 C3590 1.355 . S
C3591 C3593 1.419 . S
C3592 C3590 1.415 . S
C3592 C3597 1.425 . S
C3592 C3599 1.409 . S
C3593 H3585 0.930 . S
C3593 C3591 1.419 . S
C3593 C3594 1.362 . S
C3594 H3586 0.930 . S
C3594 C3593 1.362 . S
C3594 C3597 1.409 . S
C3595 H3587 0.930 . S
C3595 C3596 1.355 . S
C3595 C3597 1.415 . S
C3596 C3595 1.355 . S
C3596 C3598 1.419 . S
C3597 C3592 1.425 . S
C3597 C3594 1.409 . S
C3597 C3595 1.415 . S
C3598 H3588 0.930 . S
C3598 C3596 1.419 . S
C3598 C3599 1.362 . S
C3599 H3589 0.930 . S
C3599 C3592 1.409 . S
C3599 C3598 1.362 . S
H3600 C3606 0.930 . S
H3601 C3609 0.930 . S
H3602 C3610 0.930 . S
H3603 C3611 0.930 . S
H3604 C3614 0.930 . S
H3605 C3615 0.930 . S
C3606 H3600 0.930 . S
C3606 C3607 1.355 . S
C3606 C3608 1.415 . S
C3607 C3606 1.355 . S
C3607 C3609 1.419 . S
C3608 C3606 1.415 . S
C3608 C3613 1.425 . S
C3608 C3615 1.409 . S
C3609 H3601 0.930 . S
C3609 C3607 1.419 . S
C3609 C3610 1.362 . S
C3610 H3602 0.930 . S
C3610 C3609 1.362 . S
C3610 C3613 1.409 . S
C3611 H3603 0.930 . S
C3611 C3612 1.355 . S
C3611 C3613 1.415 . S
C3612 C3611 1.355 . S
C3612 C3614 1.419 . S
C3613 C3608 1.425 . S
C3613 C3610 1.409 . S
C3613 C3611 1.415 . S
C3614 H3604 0.930 . S
C3614 C3612 1.419 . S
C3614 C3615 1.362 . S
C3615 H3605 0.930 . S
C3615 C3608 1.409 . S
C3615 C3614 1.362 . S
H3616 C3622 0.930 . S
H3617 C3625 0.930 . S
H3618 C3626 0.930 . S
H3619 C3627 0.930 . S
H3620 C3630 0.930 . S
H3621 C3631 0.930 . S
C3622 H3616 0.930 . S
C3622 C3623 1.355 . S
C3622 C3624 1.415 . S
C3623 C3622 1.355 . S
C3623 C3625 1.419 . S
C3624 C3622 1.415 . S
C3624 C3629 1.425 . S
C3624 C3631 1.409 . S
C3625 H3617 0.930 . S
C3625 C3623 1.419 . S
C3625 C3626 1.362 . S
C3626 H3618 0.930 . S
C3626 C3625 1.362 . S
C3626 C3629 1.409 . S
C3627 H3619 0.930 . S
C3627 C3628 1.355 . S
C3627 C3629 1.415 . S
C3628 C3627 1.355 . S
C3628 C3630 1.419 . S
C3629 C3624 1.425 . S
C3629 C3626 1.409 . S
C3629 C3627 1.415 . S
C3630 H3620 0.930 . S
C3630 C3628 1.419 . S
C3630 C3631 1.362 . S
C3631 H3621 0.930 . S
C3631 C3624 1.409 . S
C3631 C3630 1.362 . S
H3632 C3638 0.930 . S
H3633 C3641 0.930 . S
H3634 C3642 0.930 . S
H3635 C3643 0.930 . S
H3636 C3646 0.930 . S
H3637 C3647 0.930 . S
C3638 H3632 0.930 . S
C3638 C3639 1.355 . S
C3638 C3640 1.415 . S
C3639 C3638 1.355 . S
C3639 C3641 1.419 . S
C3640 C3638 1.415 . S
C3640 C3645 1.425 . S
C3640 C3647 1.409 . S
C3641 H3633 0.930 . S
C3641 C3639 1.419 . S
C3641 C3642 1.362 . S
C3642 H3634 0.930 . S
C3642 C3641 1.362 . S
C3642 C3645 1.409 . S
C3643 H3635 0.930 . S
C3643 C3644 1.355 . S
C3643 C3645 1.415 . S
C3644 C3643 1.355 . S
C3644 C3646 1.419 . S
C3645 C3640 1.425 . S
C3645 C3642 1.409 . S
C3645 C3643 1.415 . S
C3646 H3636 0.930 . S
C3646 C3644 1.419 . S
C3646 C3647 1.362 . S
C3647 H3637 0.930 . S
C3647 C3640 1.409 . S
C3647 C3646 1.362 . S
H3648 C3654 0.930 . S
H3649 C3657 0.930 . S
H3650 C3658 0.930 . S
H3651 C3659 0.930 . S
H3652 C3662 0.930 . S
H3653 C3663 0.930 . S
C3654 H3648 0.930 . S
C3654 C3655 1.355 . S
C3654 C3656 1.415 . S
C3655 C3654 1.355 . S
C3655 C3657 1.419 . S
C3656 C3654 1.415 . S
C3656 C3661 1.425 . S
C3656 C3663 1.409 . S
C3657 H3649 0.930 . S
C3657 C3655 1.419 . S
C3657 C3658 1.362 . S
C3658 H3650 0.930 . S
C3658 C3657 1.362 . S
C3658 C3661 1.409 . S
C3659 H3651 0.930 . S
C3659 C3660 1.355 . S
C3659 C3661 1.415 . S
C3660 C3659 1.355 . S
C3660 C3662 1.419 . S
C3661 C3656 1.425 . S
C3661 C3658 1.409 . S
C3661 C3659 1.415 . S
C3662 H3652 0.930 . S
C3662 C3660 1.419 . S
C3662 C3663 1.362 . S
C3663 H3653 0.930 . S
C3663 C3656 1.409 . S
C3663 C3662 1.362 . S
H3664 C3670 0.930 . S
H3665 C3673 0.930 . S
H3666 C3674 0.930 . S
H3667 C3675 0.930 . S
H3668 C3678 0.930 . S
H3669 C3679 0.930 . S
C3670 H3664 0.930 . S
C3670 C3671 1.355 . S
C3670 C3672 1.415 . S
C3671 C3670 1.355 . S
C3671 C3673 1.419 . S
C3672 C3670 1.415 . S
C3672 C3677 1.425 . S
C3672 C3679 1.409 . S
C3673 H3665 0.930 . S
C3673 C3671 1.419 . S
C3673 C3674 1.362 . S
C3674 H3666 0.930 . S
C3674 C3673 1.362 . S
C3674 C3677 1.409 . S
C3675 H3667 0.930 . S
C3675 C3676 1.355 . S
C3675 C3677 1.415 . S
C3676 C3675 1.355 . S
C3676 C3678 1.419 . S
C3677 C3672 1.425 . S
C3677 C3674 1.409 . S
C3677 C3675 1.415 . S
C3678 H3668 0.930 . S
C3678 C3676 1.419 . S
C3678 C3679 1.362 . S
C3679 H3669 0.930 . S
C3679 C3672 1.409 . S
C3679 C3678 1.362 . S
H3680 C3686 0.930 . S
H3681 C3689 0.930 . S
H3682 C3690 0.930 . S
H3683 C3691 0.930 . S
H3684 C3694 0.930 . S
H3685 C3695 0.930 . S
C3686 H3680 0.930 . S
C3686 C3687 1.355 . S
C3686 C3688 1.415 . S
C3687 C3686 1.355 . S
C3687 C3689 1.419 . S
C3688 C3686 1.415 . S
C3688 C3693 1.425 . S
C3688 C3695 1.409 . S
C3689 H3681 0.930 . S
C3689 C3687 1.419 . S
C3689 C3690 1.362 . S
C3690 H3682 0.930 . S
C3690 C3689 1.362 . S
C3690 C3693 1.409 . S
C3691 H3683 0.930 . S
C3691 C3692 1.355 . S
C3691 C3693 1.415 . S
C3692 C3691 1.355 . S
C3692 C3694 1.419 . S
C3693 C3688 1.425 . S
C3693 C3690 1.409 . S
C3693 C3691 1.415 . S
C3694 H3684 0.930 . S
C3694 C3692 1.419 . S
C3694 C3695 1.362 . S
C3695 H3685 0.930 . S
C3695 C3688 1.409 . S
C3695 C3694 1.362 . S
H3696 C3702 0.930 . S
H3697 C3705 0.930 . S
H3698 C3706 0.930 . S
H3699 C3707 0.930 . S
H3700 C3710 0.930 . S
H3701 C3711 0.930 . S
C3702 H3696 0.930 . S
C3702 C3703 1.355 . S
C3702 C3704 1.415 . S
C3703 C3702 1.355 . S
C3703 C3705 1.419 . S
C3704 C3702 1.415 . S
C3704 C3709 1.425 . S
C3704 C3711 1.409 . S
C3705 H3697 0.930 . S
C3705 C3703 1.419 . S
C3705 C3706 1.362 . S
C3706 H3698 0.930 . S
C3706 C3705 1.362 . S
C3706 C3709 1.409 . S
C3707 H3699 0.930 . S
C3707 C3708 1.355 . S
C3707 C3709 1.415 . S
C3708 C3707 1.355 . S
C3708 C3710 1.419 . S
C3709 C3704 1.425 . S
C3709 C3706 1.409 . S
C3709 C3707 1.415 . S
C3710 H3700 0.930 . S
C3710 C3708 1.419 . S
C3710 C3711 1.362 . S
C3711 H3701 0.930 . S
C3711 C3704 1.409 . S
C3711 C3710 1.362 . S
H3712 C3718 0.930 . S
H3713 C3721 0.930 . S
H3714 C3722 0.930 . S
H3715 C3723 0.930 . S
H3716 C3726 0.930 . S
H3717 C3727 0.930 . S
C3718 H3712 0.930 . S
C3718 C3719 1.355 . S
C3718 C3720 1.415 . S
C3719 C3718 1.355 . S
C3719 C3721 1.419 . S
C3720 C3718 1.415 . S
C3720 C3725 1.425 . S
C3720 C3727 1.409 . S
C3721 H3713 0.930 . S
C3721 C3719 1.419 . S
C3721 C3722 1.362 . S
C3722 H3714 0.930 . S
C3722 C3721 1.362 . S
C3722 C3725 1.409 . S
C3723 H3715 0.930 . S
C3723 C3724 1.355 . S
C3723 C3725 1.415 . S
C3724 C3723 1.355 . S
C3724 C3726 1.419 . S
C3725 C3720 1.425 . S
C3725 C3722 1.409 . S
C3725 C3723 1.415 . S
C3726 H3716 0.930 . S
C3726 C3724 1.419 . S
C3726 C3727 1.362 . S
C3727 H3717 0.930 . S
C3727 C3720 1.409 . S
C3727 C3726 1.362 . S
H3728 C3734 0.930 . S
H3729 C3737 0.930 . S
H3730 C3738 0.930 . S
H3731 C3739 0.930 . S
H3732 C3742 0.930 . S
H3733 C3743 0.930 . S
C3734 H3728 0.930 . S
C3734 C3735 1.355 . S
C3734 C3736 1.415 . S
C3735 C3734 1.355 . S
C3735 C3737 1.419 . S
C3736 C3734 1.415 . S
C3736 C3741 1.425 . S
C3736 C3743 1.409 . S
C3737 H3729 0.930 . S
C3737 C3735 1.419 . S
C3737 C3738 1.362 . S
C3738 H3730 0.930 . S
C3738 C3737 1.362 . S
C3738 C3741 1.409 . S
C3739 H3731 0.930 . S
C3739 C3740 1.355 . S
C3739 C3741 1.415 . S
C3740 C3739 1.355 . S
C3740 C3742 1.419 . S
C3741 C3736 1.425 . S
C3741 C3738 1.409 . S
C3741 C3739 1.415 . S
C3742 H3732 0.930 . S
C3742 C3740 1.419 . S
C3742 C3743 1.362 . S
C3743 H3733 0.930 . S
C3743 C3736 1.409 . S
C3743 C3742 1.362 . S
H3744 C3750 0.930 . S
H3745 C3753 0.930 . S
H3746 C3754 0.930 . S
H3747 C3755 0.930 . S
H3748 C3758 0.930 . S
H3749 C3759 0.930 . S
C3750 H3744 0.930 . S
C3750 C3751 1.355 . S
C3750 C3752 1.415 . S
C3751 C3750 1.355 . S
C3751 C3753 1.419 . S
C3752 C3750 1.415 . S
C3752 C3757 1.425 . S
C3752 C3759 1.409 . S
C3753 H3745 0.930 . S
C3753 C3751 1.419 . S
C3753 C3754 1.362 . S
C3754 H3746 0.930 . S
C3754 C3753 1.362 . S
C3754 C3757 1.409 . S
C3755 H3747 0.930 . S
C3755 C3756 1.355 . S
C3755 C3757 1.415 . S
C3756 C3755 1.355 . S
C3756 C3758 1.419 . S
C3757 C3752 1.425 . S
C3757 C3754 1.409 . S
C3757 C3755 1.415 . S
C3758 H3748 0.930 . S
C3758 C3756 1.419 . S
C3758 C3759 1.362 . S
C3759 H3749 0.930 . S
C3759 C3752 1.409 . S
C3759 C3758 1.362 . S
H3760 C3766 0.930 . S
H3761 C3769 0.930 . S
H3762 C3770 0.930 . S
H3763 C3771 0.930 . S
H3764 C3774 0.930 . S
H3765 C3775 0.930 . S
C3766 H3760 0.930 . S
C3766 C3767 1.355 . S
C3766 C3768 1.415 . S
C3767 C3766 1.355 . S
C3767 C3769 1.419 . S
C3768 C3766 1.415 . S
C3768 C3773 1.425 . S
C3768 C3775 1.409 . S
C3769 H3761 0.930 . S
C3769 C3767 1.419 . S
C3769 C3770 1.362 . S
C3770 H3762 0.930 . S
C3770 C3769 1.362 . S
C3770 C3773 1.409 . S
C3771 H3763 0.930 . S
C3771 C3772 1.355 . S
C3771 C3773 1.415 . S
C3772 C3771 1.355 . S
C3772 C3774 1.419 . S
C3773 C3768 1.425 . S
C3773 C3770 1.409 . S
C3773 C3771 1.415 . S
C3774 H3764 0.930 . S
C3774 C3772 1.419 . S
C3774 C3775 1.362 . S
C3775 H3765 0.930 . S
C3775 C3768 1.409 . S
C3775 C3774 1.362 . S
H3776 C3782 0.930 . S
H3777 C3785 0.930 . S
H3778 C3786 0.930 . S
H3779 C3787 0.930 . S
H3780 C3790 0.930 . S
H3781 C3791 0.930 . S
C3782 H3776 0.930 . S
C3782 C3783 1.355 . S
C3782 C3784 1.415 . S
C3783 C3782 1.355 . S
C3783 C3785 1.419 . S
C3784 C3782 1.415 . S
C3784 C3789 1.425 . S
C3784 C3791 1.409 . S
C3785 H3777 0.930 . S
C3785 C3783 1.419 . S
C3785 C3786 1.362 . S
C3786 H3778 0.930 . S
C3786 C3785 1.362 . S
C3786 C3789 1.409 . S
C3787 H3779 0.930 . S
C3787 C3788 1.355 . S
C3787 C3789 1.415 . S
C3788 C3787 1.355 . S
C3788 C3790 1.419 . S
C3789 C3784 1.425 . S
C3789 C3786 1.409 . S
C3789 C3787 1.415 . S
C3790 H3780 0.930 . S
C3790 C3788 1.419 . S
C3790 C3791 1.362 . S
C3791 H3781 0.930 . S
C3791 C3784 1.409 . S
C3791 C3790 1.362 . S
H3792 C3798 0.930 . S
H3793 C3801 0.930 . S
H3794 C3802 0.930 . S
H3795 C3803 0.930 . S
H3796 C3806 0.930 . S
H3797 C3807 0.930 . S
C3798 H3792 0.930 . S
C3798 C3799 1.355 . S
C3798 C3800 1.415 . S
C3799 C3798 1.355 . S
C3799 C3801 1.419 . S
C3800 C3798 1.415 . S
C3800 C3805 1.425 . S
C3800 C3807 1.409 . S
C3801 H3793 0.930 . S
C3801 C3799 1.419 . S
C3801 C3802 1.362 . S
C3802 H3794 0.930 . S
C3802 C3801 1.362 . S
C3802 C3805 1.409 . S
C3803 H3795 0.930 . S
C3803 C3804 1.355 . S
C3803 C3805 1.415 . S
C3804 C3803 1.355 . S
C3804 C3806 1.419 . S
C3805 C3800 1.425 . S
C3805 C3802 1.409 . S
C3805 C3803 1.415 . S
C3806 H3796 0.930 . S
C3806 C3804 1.419 . S
C3806 C3807 1.362 . S
C3807 H3797 0.930 . S
C3807 C3800 1.409 . S
C3807 C3806 1.362 . S
H3808 C3814 0.930 . S
H3809 C3817 0.930 . S
H3810 C3818 0.930 . S
H3811 C3819 0.930 . S
H3812 C3822 0.930 . S
H3813 C3823 0.930 . S
C3814 H3808 0.930 . S
C3814 C3815 1.355 . S
C3814 C3816 1.415 . S
C3815 C3814 1.355 . S
C3815 C3817 1.419 . S
C3816 C3814 1.415 . S
C3816 C3821 1.425 . S
C3816 C3823 1.409 . S
C3817 H3809 0.930 . S
C3817 C3815 1.419 . S
C3817 C3818 1.362 . S
C3818 H3810 0.930 . S
C3818 C3817 1.362 . S
C3818 C3821 1.409 . S
C3819 H3811 0.930 . S
C3819 C3820 1.355 . S
C3819 C3821 1.415 . S
C3820 C3819 1.355 . S
C3820 C3822 1.419 . S
C3821 C3816 1.425 . S
C3821 C3818 1.409 . S
C3821 C3819 1.415 . S
C3822 H3812 0.930 . S
C3822 C3820 1.419 . S
C3822 C3823 1.362 . S
C3823 H3813 0.930 . S
C3823 C3816 1.409 . S
C3823 C3822 1.362 . S
H3824 C3830 0.930 . S
H3825 C3833 0.930 . S
H3826 C3834 0.930 . S
H3827 C3835 0.930 . S
H3828 C3838 0.930 . S
H3829 C3839 0.930 . S
C3830 H3824 0.930 . S
C3830 C3831 1.355 . S
C3830 C3832 1.415 . S
C3831 C3830 1.355 . S
C3831 C3833 1.419 . S
C3832 C3830 1.415 . S
C3832 C3837 1.425 . S
C3832 C3839 1.409 . S
C3833 H3825 0.930 . S
C3833 C3831 1.419 . S
C3833 C3834 1.362 . S
C3834 H3826 0.930 . S
C3834 C3833 1.362 . S
C3834 C3837 1.409 . S
C3835 H3827 0.930 . S
C3835 C3836 1.355 . S
C3835 C3837 1.415 . S
C3836 C3835 1.355 . S
C3836 C3838 1.419 . S
C3837 C3832 1.425 . S
C3837 C3834 1.409 . S
C3837 C3835 1.415 . S
C3838 H3828 0.930 . S
C3838 C3836 1.419 . S
C3838 C3839 1.362 . S
C3839 H3829 0.930 . S
C3839 C3832 1.409 . S
C3839 C3838 1.362 . S
H3840 C3846 0.930 . S
H3841 C3849 0.930 . S
H3842 C3850 0.930 . S
H3843 C3851 0.930 . S
H3844 C3854 0.930 . S
H3845 C3855 0.930 . S
C3846 H3840 0.930 . S
C3846 C3847 1.355 . S
C3846 C3848 1.415 . S
C3847 C3846 1.355 . S
C3847 C3849 1.419 . S
C3848 C3846 1.415 . S
C3848 C3853 1.425 . S
C3848 C3855 1.409 . S
C3849 H3841 0.930 . S
C3849 C3847 1.419 . S
C3849 C3850 1.362 . S
C3850 H3842 0.930 . S
C3850 C3849 1.362 . S
C3850 C3853 1.409 . S
C3851 H3843 0.930 . S
C3851 C3852 1.355 . S
C3851 C3853 1.415 . S
C3852 C3851 1.355 . S
C3852 C3854 1.419 . S
C3853 C3848 1.425 . S
C3853 C3850 1.409 . S
C3853 C3851 1.415 . S
C3854 H3844 0.930 . S
C3854 C3852 1.419 . S
C3854 C3855 1.362 . S
C3855 H3845 0.930 . S
C3855 C3848 1.409 . S
C3855 C3854 1.362 . S
H3856 C3862 0.930 . S
H3857 C3865 0.930 . S
H3858 C3866 0.930 . S
H3859 C3867 0.930 . S
H3860 C3870 0.930 . S
H3861 C3871 0.930 . S
C3862 H3856 0.930 . S
C3862 C3863 1.355 . S
C3862 C3864 1.415 . S
C3863 C3862 1.355 . S
C3863 C3865 1.419 . S
C3864 C3862 1.415 . S
C3864 C3869 1.425 . S
C3864 C3871 1.409 . S
C3865 H3857 0.930 . S
C3865 C3863 1.419 . S
C3865 C3866 1.362 . S
C3866 H3858 0.930 . S
C3866 C3865 1.362 . S
C3866 C3869 1.409 . S
C3867 H3859 0.930 . S
C3867 C3868 1.355 . S
C3867 C3869 1.415 . S
C3868 C3867 1.355 . S
C3868 C3870 1.419 . S
C3869 C3864 1.425 . S
C3869 C3866 1.409 . S
C3869 C3867 1.415 . S
C3870 H3860 0.930 . S
C3870 C3868 1.419 . S
C3870 C3871 1.362 . S
C3871 H3861 0.930 . S
C3871 C3864 1.409 . S
C3871 C3870 1.362 . S
H3872 C3878 0.930 . S
H3873 C3881 0.930 . S
H3874 C3882 0.930 . S
H3875 C3883 0.930 . S
H3876 C3886 0.930 . S
H3877 C3887 0.930 . S
C3878 H3872 0.930 . S
C3878 C3879 1.355 . S
C3878 C3880 1.415 . S
C3879 C3878 1.355 . S
C3879 C3881 1.419 . S
C3880 C3878 1.415 . S
C3880 C3885 1.425 . S
C3880 C3887 1.409 . S
C3881 H3873 0.930 . S
C3881 C3879 1.419 . S
C3881 C3882 1.362 . S
C3882 H3874 0.930 . S
C3882 C3881 1.362 . S
C3882 C3885 1.409 . S
C3883 H3875 0.930 . S
C3883 C3884 1.355 . S
C3883 C3885 1.415 . S
C3884 C3883 1.355 . S
C3884 C3886 1.419 . S
C3885 C3880 1.425 . S
C3885 C3882 1.409 . S
C3885 C3883 1.415 . S
C3886 H3876 0.930 . S
C3886 C3884 1.419 . S
C3886 C3887 1.362 . S
C3887 H3877 0.930 . S
C3887 C3880 1.409 . S
C3887 C3886 1.362 . S
H3888 C3894 0.930 . S
H3889 C3897 0.930 . S
H3890 C3898 0.930 . S
H3891 C3899 0.930 . S
H3892 C3902 0.930 . S
H3893 C3903 0.930 . S
C3894 H3888 0.930 . S
C3894 C3895 1.355 . S
C3894 C3896 1.415 . S
C3895 C3894 1.355 . S
C3895 C3897 1.419 . S
C3896 C3894 1.415 . S
C3896 C3901 1.425 . S
C3896 C3903 1.409 . S
C3897 H3889 0.930 . S
C3897 C3895 1.419 . S
C3897 C3898 1.362 . S
C3898 H3890 0.930 . S
C3898 C3897 1.362 . S
C3898 C3901 1.409 . S
C3899 H3891 0.930 . S
C3899 C3900 1.355 . S
C3899 C3901 1.415 . S
C3900 C3899 1.355 . S
C3900 C3902 1.419 . S
C3901 C3896 1.425 . S
C3901 C3898 1.409 . S
C3901 C3899 1.415 . S
C3902 H3892 0.930 . S
C3902 C3900 1.419 . S
C3902 C3903 1.362 . S
C3903 H3893 0.930 . S
C3903 C3896 1.409 . S
C3903 C3902 1.362 . S
H3904 C3910 0.930 . S
H3905 C3913 0.930 . S
H3906 C3914 0.930 . S
H3907 C3915 0.930 . S
H3908 C3918 0.930 . S
H3909 C3919 0.930 . S
C3910 H3904 0.930 . S
C3910 C3911 1.355 . S
C3910 C3912 1.415 . S
C3911 C3910 1.355 . S
C3911 C3913 1.419 . S
C3912 C3910 1.415 . S
C3912 C3917 1.425 . S
C3912 C3919 1.409 . S
C3913 H3905 0.930 . S
C3913 C3911 1.419 . S
C3913 C3914 1.362 . S
C3914 H3906 0.930 . S
C3914 C3913 1.362 . S
C3914 C3917 1.409 . S
C3915 H3907 0.930 . S
C3915 C3916 1.355 . S
C3915 C3917 1.415 . S
C3916 C3915 1.355 . S
C3916 C3918 1.419 . S
C3917 C3912 1.425 . S
C3917 C3914 1.409 . S
C3917 C3915 1.415 . S
C3918 H3908 0.930 . S
C3918 C3916 1.419 . S
C3918 C3919 1.362 . S
C3919 H3909 0.930 . S
C3919 C3912 1.409 . S
C3919 C3918 1.362 . S
H3920 C3926 0.930 . S
H3921 C3929 0.930 . S
H3922 C3930 0.930 . S
H3923 C3931 0.930 . S
H3924 C3934 0.930 . S
H3925 C3935 0.930 . S
C3926 H3920 0.930 . S
C3926 C3927 1.355 . S
C3926 C3928 1.415 . S
C3927 C3926 1.355 . S
C3927 C3929 1.419 . S
C3928 C3926 1.415 . S
C3928 C3933 1.425 . S
C3928 C3935 1.409 . S
C3929 H3921 0.930 . S
C3929 C3927 1.419 . S
C3929 C3930 1.362 . S
C3930 H3922 0.930 . S
C3930 C3929 1.362 . S
C3930 C3933 1.409 . S
C3931 H3923 0.930 . S
C3931 C3932 1.355 . S
C3931 C3933 1.415 . S
C3932 C3931 1.355 . S
C3932 C3934 1.419 . S
C3933 C3928 1.425 . S
C3933 C3930 1.409 . S
C3933 C3931 1.415 . S
C3934 H3924 0.930 . S
C3934 C3932 1.419 . S
C3934 C3935 1.362 . S
C3935 H3925 0.930 . S
C3935 C3928 1.409 . S
C3935 C3934 1.362 . S
H3936 C3942 0.930 . S
H3937 C3945 0.930 . S
H3938 C3946 0.930 . S
H3939 C3947 0.930 . S
H3940 C3950 0.930 . S
H3941 C3951 0.930 . S
C3942 H3936 0.930 . S
C3942 C3943 1.355 . S
C3942 C3944 1.415 . S
C3943 C3942 1.355 . S
C3943 C3945 1.419 . S
C3944 C3942 1.415 . S
C3944 C3949 1.425 . S
C3944 C3951 1.409 . S
C3945 H3937 0.930 . S
C3945 C3943 1.419 . S
C3945 C3946 1.362 . S
C3946 H3938 0.930 . S
C3946 C3945 1.362 . S
C3946 C3949 1.409 . S
C3947 H3939 0.930 . S
C3947 C3948 1.355 . S
C3947 C3949 1.415 . S
C3948 C3947 1.355 . S
C3948 C3950 1.419 . S
C3949 C3944 1.425 . S
C3949 C3946 1.409 . S
C3949 C3947 1.415 . S
C3950 H3940 0.930 . S
C3950 C3948 1.419 . S
C3950 C3951 1.362 . S
C3951 H3941 0.930 . S
C3951 C3944 1.409 . S
C3951 C3950 1.362 . S
H3952 C3958 0.930 . S
H3953 C3961 0.930 . S
H3954 C3962 0.930 . S
H3955 C3963 0.930 . S
H3956 C3966 0.930 . S
H3957 C3967 0.930 . S
C3958 H3952 0.930 . S
C3958 C3959 1.355 . S
C3958 C3960 1.415 . S
C3959 C3958 1.355 . S
C3959 C3961 1.419 . S
C3960 C3958 1.415 . S
C3960 C3965 1.425 . S
C3960 C3967 1.409 . S
C3961 H3953 0.930 . S
C3961 C3959 1.419 . S
C3961 C3962 1.362 . S
C3962 H3954 0.930 . S
C3962 C3961 1.362 . S
C3962 C3965 1.409 . S
C3963 H3955 0.930 . S
C3963 C3964 1.355 . S
C3963 C3965 1.415 . S
C3964 C3963 1.355 . S
C3964 C3966 1.419 . S
C3965 C3960 1.425 . S
C3965 C3962 1.409 . S
C3965 C3963 1.415 . S
C3966 H3956 0.930 . S
C3966 C3964 1.419 . S
C3966 C3967 1.362 . S
C3967 H3957 0.930 . S
C3967 C3960 1.409 . S
C3967 C3966 1.362 . S
H3968 C3974 0.930 . S
H3969 C3977 0.930 . S
H3970 C3978 0.930 . S
H3971 C3979 0.930 . S
H3972 C3982 0.930 . S
H3973 C3983 0.930 . S
C3974 H3968 0.930 . S
C3974 C3975 1.355 . S
C3974 C3976 1.415 . S
C3975 C3974 1.355 . S
C3975 C3977 1.419 . S
C3976 C3974 1.415 . S
C3976 C3981 1.425 . S
C3976 C3983 1.409 . S
C3977 H3969 0.930 . S
C3977 C3975 1.419 . S
C3977 C3978 1.362 . S
C3978 H3970 0.930 . S
C3978 C3977 1.362 . S
C3978 C3981 1.409 . S
C3979 H3971 0.930 . S
C3979 C3980 1.355 . S
C3979 C3981 1.415 . S
C3980 C3979 1.355 . S
C3980 C3982 1.419 . S
C3981 C3976 1.425 . S
C3981 C3978 1.409 . S
C3981 C3979 1.415 . S
C3982 H3972 0.930 . S
C3982 C3980 1.419 . S
C3982 C3983 1.362 . S
C3983 H3973 0.930 . S
C3983 C3976 1.409 . S
C3983 C3982 1.362 . S
H3984 C3990 0.930 . S
H3985 C3993 0.930 . S
H3986 C3994 0.930 . S
H3987 C3995 0.930 . S
H3988 C3998 0.930 . S
H3989 C3999 0.930 . S
C3990 H3984 0.930 . S
C3990 C3991 1.355 . S
C3990 C3992 1.415 . S
C3991 C3990 1.355 . S
C3991 C3993 1.419 . S
C3992 C3990 1.415 . S
C3992 C3997 1.425 . S
C3992 C3999 1.409 . S
C3993 H3985 0.930 . S
C3993 C3991 1.419 . S
C3993 C3994 1.362 . S
C3994 H3986 0.930 . S
C3994 C3993 1.362 . S
C3994 C3997 1.409 . S
C3995 H3987 0.930 . S
C3995 C3996 1.355 . S
C3995 C3997 1.415 . S
C3996 C3995 1.355 . S
C3996 C3998 1.419 . S
C3997 C3992 1.425 . S
C3997 C3994 1.409 . S
C3997 C3995 1.415 . S
C3998 H3988 0.930 . S
C3998 C3996 1.419 . S
C3998 C3999 1.362 . S
C3999 H3989 0.930 . S
C3999 C3992 1.409 . S
C3999 C3998 1.362 . S
H4000 C4006 0.930 . S
H4001 C4009 0.930 . S
H4002 C4010 0.930 . S
H4003 C4011 0.930 . S
H4004 C4014 0.930 . S
H4005 C4015 0.930 . S
C4006 H4000 0.930 . S
C4006 C4007 1.355 . S
C4006 C4008 1.415 . S
C4007 C4006 1.355 . S
C4007 C4009 1.419 . S
C4008 C4006 1.415 . S
C4008 C4013 1.425 . S
C4008 C4015 1.409 . S
C4009 H4001 0.930 . S
C4009 C4007 1.419 . S
C4009 C4010 1.362 . S
C4010 H4002 0.930 . S
C4010 C4009 1.362 . S
C4010 C4013 1.409 . S
C4011 H4003 0.930 . S
C4011 C4012 1.355 . S
C4011 C4013 1.415 . S
C4012 C4011 1.355 . S
C4012 C4014 1.419 . S
C4013 C4008 1.425 . S
C4013 C4010 1.409 . S
C4013 C4011 1.415 . S
C4014 H4004 0.930 . S
C4014 C4012 1.419 . S
C4014 C4015 1.362 . S
C4015 H4005 0.930 . S
C4015 C4008 1.409 . S
C4015 C4014 1.362 . S
H4016 C4022 0.930 . S
H4017 C4025 0.930 . S
H4018 C4026 0.930 . S
H4019 C4027 0.930 . S
H4020 C4030 0.930 . S
H4021 C4031 0.930 . S
C4022 H4016 0.930 . S
C4022 C4023 1.355 . S
C4022 C4024 1.415 . S
C4023 C4022 1.355 . S
C4023 C4025 1.419 . S
C4024 C4022 1.415 . S
C4024 C4029 1.425 . S
C4024 C4031 1.409 . S
C4025 H4017 0.930 . S
C4025 C4023 1.419 . S
C4025 C4026 1.362 . S
C4026 H4018 0.930 . S
C4026 C4025 1.362 . S
C4026 C4029 1.409 . S
C4027 H4019 0.930 . S
C4027 C4028 1.355 . S
C4027 C4029 1.415 . S
C4028 C4027 1.355 . S
C4028 C4030 1.419 . S
C4029 C4024 1.425 . S
C4029 C4026 1.409 . S
C4029 C4027 1.415 . S
C4030 H4020 0.930 . S
C4030 C4028 1.419 . S
C4030 C4031 1.362 . S
C4031 H4021 0.930 . S
C4031 C4024 1.409 . S
C4031 C4030 1.362 . S
H4032 C4038 0.930 . S
H4033 C4041 0.930 . S
H4034 C4042 0.930 . S
H4035 C4043 0.930 . S
H4036 C4046 0.930 . S
H4037 C4047 0.930 . S
C4038 H4032 0.930 . S
C4038 C4039 1.355 . S
C4038 C4040 1.415 . S
C4039 C4038 1.355 . S
C4039 C4041 1.419 . S
C4040 C4038 1.415 . S
C4040 C4045 1.425 . S
C4040 C4047 1.409 . S
C4041 H4033 0.930 . S
C4041 C4039 1.419 . S
C4041 C4042 1.362 . S
C4042 H4034 0.930 . S
C4042 C4041 1.362 . S
C4042 C4045 1.409 . S
C4043 H4035 0.930 . S
C4043 C4044 1.355 . S
C4043 C4045 1.415 1_554 S
C4044 C4043 1.355 . S
C4044 C4046 1.419 . S
C4045 C4040 1.425 . S
C4045 C4042 1.409 . S
C4045 C4043 1.415 1_556 S
C4046 H4036 0.930 . S
C4046 C4044 1.419 . S
C4046 C4047 1.362 1_554 S
C4047 H4037 0.930 . S
C4047 C4040 1.409 . S
C4047 C4046 1.362 1_556 S
H4048 C4054 0.930 . S
H4049 C4057 0.930 . S
H4050 C4058 0.930 . S
H4051 C4059 0.930 . S
H4052 C4062 0.930 . S
H4053 C4063 0.930 . S
C4054 H4048 0.930 . S
C4054 C4055 1.355 . S
C4054 C4056 1.415 1_554 S
C4055 C4054 1.355 . S
C4055 C4057 1.419 . S
C4056 C4054 1.415 1_556 S
C4056 C4061 1.425 . S
C4056 C4063 1.409 . S
C4057 H4049 0.930 . S
C4057 C4055 1.419 . S
C4057 C4058 1.362 1_554 S
C4058 H4050 0.930 . S
C4058 C4057 1.362 1_556 S
C4058 C4061 1.409 . S
C4059 H4051 0.930 . S
C4059 C4060 1.355 . S
C4059 C4061 1.415 . S
C4060 C4059 1.355 . S
C4060 C4062 1.419 . S
C4061 C4056 1.425 . S
C4061 C4058 1.409 . S
C4061 C4059 1.415 . S
C4062 H4052 0.930 . S
C4062 C4060 1.419 . S
C4062 C4063 1.362 . S
C4063 H4053 0.930 . S
C4063 C4056 1.409 . S
C4063 C4062 1.362 . S
H4064 C4070 0.930 . S
H4065 C4073 0.930 . S
H4066 C4074 0.930 . S
H4067 C4075 0.930 . S
H4068 C4078 0.930 . S
H4069 C4079 0.930 . S
C4070 H4064 0.930 . S
C4070 C4071 1.355 . S
C4070 C4072 1.415 1_554 S
C4071 C4070 1.355 . S
C4071 C4073 1.419 . S
C4072 C4070 1.415 1_556 S
C4072 C4077 1.425 . S
C4072 C4079 1.409 . S
C4073 H4065 0.930 . S
C4073 C4071 1.419 . S
C4073 C4074 1.362 1_554 S
C4074 H4066 0.930 . S
C4074 C4073 1.362 1_556 S
C4074 C4077 1.409 . S
C4075 H4067 0.930 . S
C4075 C4076 1.355 . S
C4075 C4077 1.415 . S
C4076 C4075 1.355 . S
C4076 C4078 1.419 . S
C4077 C4072 1.425 . S
C4077 C4074 1.409 . S
C4077 C4075 1.415 . S
C4078 H4068 0.930 . S
C4078 C4076 1.419 . S
C4078 C4079 1.362 . S
C4079 H4069 0.930 . S
C4079 C4072 1.409 . S
C4079 C4078 1.362 . S
H4080 C4086 0.930 . S
H4081 C4089 0.930 . S
H4082 C4090 0.930 . S
H4083 C4091 0.930 . S
H4084 C4094 0.930 . S
H4085 C4095 0.930 . S
C4086 H4080 0.930 . S
C4086 C4087 1.355 . S
C4086 C4088 1.415 1_554 S
C4087 C4086 1.355 . S
C4087 C4089 1.419 . S
C4088 C4086 1.415 1_556 S
C4088 C4093 1.425 . S
C4088 C4095 1.409 . S
C4089 H4081 0.930 . S
C4089 C4087 1.419 . S
C4089 C4090 1.362 1_554 S
C4090 H4082 0.930 . S
C4090 C4089 1.362 1_556 S
C4090 C4093 1.409 . S
C4091 H4083 0.930 . S
C4091 C4092 1.355 . S
C4091 C4093 1.415 . S
C4092 C4091 1.355 . S
C4092 C4094 1.419 . S
C4093 C4088 1.425 . S
C4093 C4090 1.409 . S
C4093 C4091 1.415 . S
C4094 H4084 0.930 . S
C4094 C4092 1.419 . S
C4094 C4095 1.362 . S
C4095 H4085 0.930 . S
C4095 C4088 1.409 . S
C4095 C4094 1.362 . S
H4096 C4102 0.930 . S
H4097 C4105 0.930 . S
H4098 C4106 0.930 . S
H4099 C4107 0.930 . S
H4100 C4110 0.930 . S
H4101 C4111 0.930 . S
C4102 H4096 0.930 . S
C4102 C4103 1.355 . S
C4102 C4104 1.415 . S
C4103 C4102 1.355 . S
C4103 C4105 1.419 . S
C4104 C4102 1.415 . S
C4104 C4109 1.425 . S
C4104 C4111 1.409 . S
C4105 H4097 0.930 . S
C4105 C4103 1.419 . S
C4105 C4106 1.362 . S
C4106 H4098 0.930 . S
C4106 C4105 1.362 . S
C4106 C4109 1.409 . S
C4107 H4099 0.930 . S
C4107 C4108 1.355 . S
C4107 C4109 1.415 1_556 S
C4108 C4107 1.355 . S
C4108 C4110 1.419 . S
C4109 C4104 1.425 . S
C4109 C4106 1.409 . S
C4109 C4107 1.415 1_554 S
C4110 H4100 0.930 . S
C4110 C4108 1.419 . S
C4110 C4111 1.362 1_556 S
C4111 H4101 0.930 . S
C4111 C4104 1.409 . S
C4111 C4110 1.362 1_554 S
H4112 C4118 0.930 . S
H4113 C4121 0.930 . S
H4114 C4122 0.930 . S
H4115 C4123 0.930 . S
H4116 C4126 0.930 . S
H4117 C4127 0.930 . S
C4118 H4112 0.930 . S
C4118 C4119 1.355 . S
C4118 C4120 1.415 1_556 S
C4119 C4118 1.355 . S
C4119 C4121 1.419 . S
C4120 C4118 1.415 1_554 S
C4120 C4125 1.425 . S
C4120 C4127 1.409 . S
C4121 H4113 0.930 . S
C4121 C4119 1.419 . S
C4121 C4122 1.362 1_556 S
C4122 H4114 0.930 . S
C4122 C4121 1.362 1_554 S
C4122 C4125 1.409 . S
C4123 H4115 0.930 . S
C4123 C4124 1.355 . S
C4123 C4125 1.415 . S
C4124 C4123 1.355 . S
C4124 C4126 1.419 . S
C4125 C4120 1.425 . S
C4125 C4122 1.409 . S
C4125 C4123 1.415 . S
C4126 H4116 0.930 . S
C4126 C4124 1.419 . S
C4126 C4127 1.362 . S
C4127 H4117 0.930 . S
C4127 C4120 1.409 . S
C4127 C4126 1.362 . S
H4128 C4134 0.930 . S
H4129 C4137 0.930 . S
H4130 C4138 0.930 . S
H4131 C4139 0.930 . S
H4132 C4142 0.930 . S
H4133 C4143 0.930 . S
C4134 H4128 0.930 . S
C4134 C4135 1.355 . S
C4134 C4136 1.415 . S
C4135 C4134 1.355 . S
C4135 C4137 1.419 . S
C4136 C4134 1.415 . S
C4136 C4141 1.425 . S
C4136 C4143 1.409 . S
C4137 H4129 0.930 . S
C4137 C4135 1.419 . S
C4137 C4138 1.362 . S
C4138 H4130 0.930 . S
C4138 C4137 1.362 . S
C4138 C4141 1.409 . S
C4139 H4131 0.930 . S
C4139 C4140 1.355 . S
C4139 C4141 1.415 1_556 S
C4140 C4139 1.355 . S
C4140 C4142 1.419 . S
C4141 C4136 1.425 . S
C4141 C4138 1.409 . S
C4141 C4139 1.415 1_554 S
C4142 H4132 0.930 . S
C4142 C4140 1.419 . S
C4142 C4143 1.362 1_556 S
C4143 H4133 0.930 . S
C4143 C4136 1.409 . S
C4143 C4142 1.362 1_554 S
H4144 C4150 0.930 . S
H4145 C4153 0.930 . S
H4146 C4154 0.930 . S
H4147 C4155 0.930 . S
H4148 C4158 0.930 . S
H4149 C4159 0.930 . S
C4150 H4144 0.930 . S
C4150 C4151 1.355 . S
C4150 C4152 1.415 1_556 S
C4151 C4150 1.355 . S
C4151 C4153 1.419 . S
C4152 C4150 1.415 1_554 S
C4152 C4157 1.425 . S
C4152 C4159 1.409 . S
C4153 H4145 0.930 . S
C4153 C4151 1.419 . S
C4153 C4154 1.362 1_556 S
C4154 H4146 0.930 . S
C4154 C4153 1.362 1_554 S
C4154 C4157 1.409 . S
C4155 H4147 0.930 . S
C4155 C4156 1.355 . S
C4155 C4157 1.415 . S
C4156 C4155 1.355 . S
C4156 C4158 1.419 . S
C4157 C4152 1.425 . S
C4157 C4154 1.409 . S
C4157 C4155 1.415 . S
C4158 H4148 0.930 . S
C4158 C4156 1.419 . S
C4158 C4159 1.362 . S
C4159 H4149 0.930 . S
C4159 C4152 1.409 . S
C4159 C4158 1.362 . S
H4160 C4166 0.930 . S
H4161 C4169 0.930 . S
H4162 C4170 0.930 . S
H4163 C4171 0.930 . S
H4164 C4174 0.930 . S
H4165 C4175 0.943 . S
C4166 H4160 0.930 . S
C4166 C4167 1.355 . S
C4166 C4168 1.415 . S
C4167 C4166 1.355 . S
C4167 C4169 1.419 . S
C4168 C4166 1.415 . S
C4168 C4173 1.425 . S
C4168 C4175 1.467 . S
C4169 H4161 0.930 . S
C4169 C4167 1.419 . S
C4169 C4170 1.362 . S
C4170 H4162 0.930 . S
C4170 C4169 1.362 . S
C4170 C4173 1.409 . S
C4171 H4163 0.930 . S
C4171 C4172 1.355 . S
C4171 C4173 1.415 1_455 S
C4172 C4171 1.355 . S
C4172 C4174 1.419 . S
C4173 C4168 1.425 . S
C4173 C4170 1.409 . S
C4173 C4171 1.415 1_655 S
C4174 H4164 0.930 . S
C4174 C4172 1.419 . S
C4174 C4175 1.296 1_455 S
C4175 H4165 0.943 . S
C4175 C4168 1.467 . S
C4175 C4174 1.296 1_655 S
H4176 C4182 0.930 . S
H4177 C4185 0.930 . S
H4178 C4186 0.930 . S
H4179 C4187 0.930 . S
H4180 C4190 0.930 . S
H4181 C4191 0.930 . S
C4182 H4176 0.930 . S
C4182 C4183 1.355 . S
C4182 C4184 1.415 1_545 S
C4183 C4182 1.355 . S
C4183 C4185 1.419 . S
C4184 C4182 1.415 1_565 S
C4184 C4189 1.425 . S
C4184 C4191 1.409 . S
C4185 H4177 0.930 . S
C4185 C4183 1.419 . S
C4185 C4186 1.362 1_545 S
C4186 H4178 0.930 . S
C4186 C4185 1.362 1_565 S
C4186 C4189 1.409 . S
C4187 H4179 0.930 . S
C4187 C4188 1.355 . S
C4187 C4189 1.415 . S
C4188 C4187 1.355 . S
C4188 C4190 1.419 . S
C4189 C4184 1.425 . S
C4189 C4186 1.409 . S
C4189 C4187 1.415 . S
C4190 H4180 0.930 . S
C4190 C4188 1.419 . S
C4190 C4191 1.362 . S
C4191 H4181 0.930 . S
C4191 C4184 1.409 . S
C4191 C4190 1.362 . S
H4192 C4198 0.930 . S
H4193 C4201 0.930 . S
H4194 C4202 0.930 . S
H4195 C4203 0.930 . S
H4196 C4206 0.930 . S
H4197 C4207 0.940 . S
C4198 H4192 0.930 . S
C4198 C4199 1.355 . S
C4198 C4200 1.415 . S
C4199 C4198 1.355 . S
C4199 C4201 1.419 . S
C4200 C4198 1.415 . S
C4200 C4205 1.425 . S
C4200 C4207 1.456 . S
C4201 H4193 0.930 . S
C4201 C4199 1.419 . S
C4201 C4202 1.362 . S
C4202 H4194 0.930 . S
C4202 C4201 1.362 . S
C4202 C4205 1.409 . S
C4203 H4195 0.930 . S
C4203 C4204 1.355 . S
C4203 C4205 1.415 1_655 S
C4204 C4203 1.355 . S
C4204 C4206 1.419 . S
C4205 C4200 1.425 . S
C4205 C4202 1.409 . S
C4205 C4203 1.415 1_455 S
C4206 H4196 0.930 . S
C4206 C4204 1.419 . S
C4206 C4207 1.309 1_655 S
C4207 H4197 0.940 . S
C4207 C4200 1.456 . S
C4207 C4206 1.309 1_455 S
H4208 C4214 0.930 . S
H4209 C4217 0.930 . S
H4210 C4218 0.946 . S
H4211 C4219 0.930 . S
H4212 C4222 0.930 . S
H4213 C4223 0.930 . S
C4214 H4208 0.930 . S
C4214 C4215 1.355 . S
C4214 C4216 1.415 1_565 S
C4215 C4214 1.355 . S
C4215 C4217 1.419 . S
C4216 C4214 1.415 1_545 S
C4216 C4221 1.425 . S
C4216 C4223 1.409 . S
C4217 H4209 0.930 . S
C4217 C4215 1.419 . S
C4217 C4218 1.285 1_565 S
C4218 H4210 0.946 . S
C4218 C4217 1.285 1_545 S
C4218 C4221 1.476 . S
C4219 H4211 0.930 . S
C4219 C4220 1.355 . S
C4219 C4221 1.415 . S
C4220 C4219 1.355 . S
C4220 C4222 1.419 . S
C4221 C4216 1.425 . S
C4221 C4218 1.476 . S
C4221 C4219 1.415 . S
C4222 H4212 0.930 . S
C4222 C4220 1.419 . S
C4222 C4223 1.362 . S
C4223 H4213 0.930 . S
C4223 C4216 1.409 . S
C4223 C4222 1.362 . S
H4224 C4230 0.930 . S
H4225 C4233 0.930 . S
H4226 C4234 0.930 . S
H4227 C4235 0.930 . S
H4228 C4238 0.930 . S
H4229 C4239 0.930 . S
C4230 H4224 0.930 . S
C4230 C4231 1.355 . S
C4230 C4232 1.415 1_455 S
C4231 C4230 1.355 . S
C4231 C4233 1.419 . S
C4232 C4230 1.415 1_655 S
C4232 C4237 1.425 . S
C4232 C4239 1.409 . S
C4233 H4225 0.930 . S
C4233 C4231 1.419 . S
C4233 C4234 1.362 1_455 S
C4234 H4226 0.930 . S
C4234 C4233 1.362 1_655 S
C4234 C4237 1.409 . S
C4235 H4227 0.930 . S
C4235 C4236 1.355 . S
C4235 C4237 1.415 . S
C4236 C4235 1.355 . S
C4236 C4238 1.419 . S
C4237 C4232 1.425 . S
C4237 C4234 1.409 . S
C4237 C4235 1.415 . S
C4238 H4228 0.930 . S
C4238 C4236 1.419 . S
C4238 C4239 1.362 . S
C4239 H4229 0.930 . S
C4239 C4232 1.409 . S
C4239 C4238 1.362 . S
H4240 C4246 0.930 . S
H4241 C4249 0.930 . S
H4242 C4250 0.930 . S
H4243 C4251 0.930 . S
H4244 C4254 0.930 . S
H4245 C4255 0.930 . S
C4246 H4240 0.930 . S
C4246 C4247 1.355 . S
C4246 C4248 1.415 1_545 S
C4247 C4246 1.355 . S
C4247 C4249 1.419 . S
C4248 C4246 1.415 1_565 S
C4248 C4253 1.425 . S
C4248 C4255 1.409 . S
C4249 H4241 0.930 . S
C4249 C4247 1.419 . S
C4249 C4250 1.362 1_545 S
C4250 H4242 0.930 . S
C4250 C4249 1.362 1_565 S
C4250 C4253 1.409 . S
C4251 H4243 0.930 . S
C4251 C4252 1.355 . S
C4251 C4253 1.415 . S
C4252 C4251 1.355 . S
C4252 C4254 1.419 . S
C4253 C4248 1.425 . S
C4253 C4250 1.409 . S
C4253 C4251 1.415 . S
C4254 H4244 0.930 . S
C4254 C4252 1.419 . S
C4254 C4255 1.362 . S
C4255 H4245 0.930 . S
C4255 C4248 1.409 . S
C4255 C4254 1.362 . S
H4256 C4262 0.930 . S
H4257 C4265 0.930 . S
H4258 C4266 0.930 . S
H4259 C4267 0.930 . S
H4260 C4270 0.930 . S
H4261 C4271 0.930 . S
C4262 H4256 0.930 . S
C4262 C4263 1.355 . S
C4262 C4264 1.415 1_655 S
C4263 C4262 1.355 . S
C4263 C4265 1.419 . S
C4264 C4262 1.415 1_455 S
C4264 C4269 1.425 . S
C4264 C4271 1.409 . S
C4265 H4257 0.930 . S
C4265 C4263 1.419 . S
C4265 C4266 1.362 1_655 S
C4266 H4258 0.930 . S
C4266 C4265 1.362 1_455 S
C4266 C4269 1.409 . S
C4267 H4259 0.930 . S
C4267 C4268 1.355 . S
C4267 C4269 1.415 . S
C4268 C4267 1.355 . S
C4268 C4270 1.419 . S
C4269 C4264 1.425 . S
C4269 C4266 1.409 . S
C4269 C4267 1.415 . S
C4270 H4260 0.930 . S
C4270 C4268 1.419 . S
C4270 C4271 1.362 . S
C4271 H4261 0.930 . S
C4271 C4264 1.409 . S
C4271 C4270 1.362 . S
H4272 C4278 0.930 . S
H4273 C4281 0.930 . S
H4274 C4282 0.930 . S
H4275 C4283 0.930 . S
H4276 C4286 0.930 . S
H4277 C4287 0.930 . S
C4278 H4272 0.930 . S
C4278 C4279 1.355 . S
C4278 C4280 1.415 1_565 S
C4279 C4278 1.355 . S
C4279 C4281 1.419 . S
C4280 C4278 1.415 1_545 S
C4280 C4285 1.425 . S
C4280 C4287 1.409 . S
C4281 H4273 0.930 . S
C4281 C4279 1.419 . S
C4281 C4282 1.362 1_565 S
C4282 H4274 0.930 . S
C4282 C4281 1.362 1_545 S
C4282 C4285 1.409 . S
C4283 H4275 0.930 . S
C4283 C4284 1.355 . S
C4283 C4285 1.415 . S
C4284 C4283 1.355 . S
C4284 C4286 1.419 . S
C4285 C4280 1.425 . S
C4285 C4282 1.409 . S
C4285 C4283 1.415 . S
C4286 H4276 0.930 . S
C4286 C4284 1.419 . S
C4286 C4287 1.362 . S
C4287 H4277 0.930 . S
C4287 C4280 1.409 . S
C4287 C4286 1.362 . S
H4288 C4294 0.930 . S
H4289 C4297 0.930 . S
H4290 C4298 0.930 . S
H4291 C4299 0.930 . S
H4292 C4302 0.930 . S
H4293 C4303 0.930 . S
C4294 H4288 0.930 . S
C4294 C4295 1.355 . S
C4294 C4296 1.415 . S
C4295 C4294 1.355 . S
C4295 C4297 1.419 . S
C4296 C4294 1.415 . S
C4296 C4301 1.425 . S
C4296 C4303 1.409 . S
C4297 H4289 0.930 . S
C4297 C4295 1.419 . S
C4297 C4298 1.362 . S
C4298 H4290 0.930 . S
C4298 C4297 1.362 . S
C4298 C4301 1.409 . S
C4299 H4291 0.930 . S
C4299 C4300 1.355 . S
C4299 C4301 1.415 1_545 S
C4300 C4299 1.355 . S
C4300 C4302 1.419 . S
C4301 C4296 1.425 . S
C4301 C4298 1.409 . S
C4301 C4299 1.415 1_565 S
C4302 H4292 0.930 . S
C4302 C4300 1.419 . S
C4302 C4303 1.362 1_545 S
C4303 H4293 0.930 . S
C4303 C4296 1.409 . S
C4303 C4302 1.362 1_565 S
H4304 C4310 0.930 . S
H4305 C4313 0.930 . S
H4306 C4314 0.930 . S
H4307 C4315 0.930 . S
H4308 C4318 0.930 . S
H4309 C4319 0.930 . S
C4310 H4304 0.930 . S
C4310 C4311 1.355 . S
C4310 C4312 1.415 1_565 S
C4311 C4310 1.355 . S
C4311 C4313 1.419 . S
C4312 C4310 1.415 1_545 S
C4312 C4317 1.425 . S
C4312 C4319 1.409 . S
C4313 H4305 0.930 . S
C4313 C4311 1.419 . S
C4313 C4314 1.362 1_565 S
C4314 H4306 0.930 . S
C4314 C4313 1.362 1_545 S
C4314 C4317 1.409 . S
C4315 H4307 0.930 . S
C4315 C4316 1.355 . S
C4315 C4317 1.415 . S
C4316 C4315 1.355 . S
C4316 C4318 1.419 . S
C4317 C4312 1.425 . S
C4317 C4314 1.409 . S
C4317 C4315 1.415 . S
C4318 H4308 0.930 . S
C4318 C4316 1.419 . S
C4318 C4319 1.362 . S
C4319 H4309 0.930 . S
C4319 C4312 1.409 . S
C4319 C4318 1.362 . S
H4320 C4326 0.930 . S
H4321 C4329 0.930 . S
H4322 C4330 0.940 . S
H4323 C4331 0.930 . S
H4324 C4334 0.930 . S
H4325 C4335 0.930 . S
C4326 H4320 0.930 . S
C4326 C4327 1.355 . S
C4326 C4328 1.415 1_455 S
C4327 C4326 1.355 . S
C4327 C4329 1.419 . S
C4328 C4326 1.415 1_655 S
C4328 C4333 1.425 . S
C4328 C4335 1.409 . S
C4329 H4321 0.930 . S
C4329 C4327 1.419 . S
C4329 C4330 1.308 1_455 S
C4330 H4322 0.940 . S
C4330 C4329 1.308 1_655 S
C4330 C4333 1.457 . S
C4331 H4323 0.930 . S
C4331 C4332 1.355 . S
C4331 C4333 1.415 . S
C4332 C4331 1.355 . S
C4332 C4334 1.419 . S
C4333 C4328 1.425 . S
C4333 C4330 1.457 . S
C4333 C4331 1.415 . S
C4334 H4324 0.930 . S
C4334 C4332 1.419 . S
C4334 C4335 1.362 . S
C4335 H4325 0.930 . S
C4335 C4328 1.409 . S
C4335 C4334 1.362 . S
H4336 C4342 0.930 . S
H4337 C4345 0.930 . S
H4338 C4346 0.930 . S
H4339 C4347 0.930 . S
H4340 C4350 0.930 . S
H4341 C4351 0.930 . S
C4342 H4336 0.930 . S
C4342 C4343 1.355 . S
C4342 C4344 1.415 1_545 S
C4343 C4342 1.355 . S
C4343 C4345 1.419 . S
C4344 C4342 1.415 1_565 S
C4344 C4349 1.425 . S
C4344 C4351 1.409 . S
C4345 H4337 0.930 . S
C4345 C4343 1.419 . S
C4345 C4346 1.362 1_545 S
C4346 H4338 0.930 . S
C4346 C4345 1.362 1_565 S
C4346 C4349 1.409 . S
C4347 H4339 0.930 . S
C4347 C4348 1.355 . S
C4347 C4349 1.415 . S
C4348 C4347 1.355 . S
C4348 C4350 1.419 . S
C4349 C4344 1.425 . S
C4349 C4346 1.409 . S
C4349 C4347 1.415 . S
C4350 H4340 0.930 . S
C4350 C4348 1.419 . S
C4350 C4351 1.362 . S
C4351 H4341 0.930 . S
C4351 C4344 1.409 . S
C4351 C4350 1.362 . S
H4352 C4358 0.930 . S
H4353 C4361 0.930 . S
H4354 C4362 0.930 . S
H4355 C4363 0.930 . S
H4356 C4366 0.930 . S
H4357 C4367 0.930 . S
C4358 H4352 0.930 . S
C4358 C4359 1.355 . S
C4358 C4360 1.415 1_655 S
C4359 C4358 1.355 . S
C4359 C4361 1.419 . S
C4360 C4358 1.415 1_455 S
C4360 C4365 1.425 . S
C4360 C4367 1.409 . S
C4361 H4353 0.930 . S
C4361 C4359 1.419 . S
C4361 C4362 1.362 1_655 S
C4362 H4354 0.930 . S
C4362 C4361 1.362 1_455 S
C4362 C4365 1.409 . S
C4363 H4355 0.930 . S
C4363 C4364 1.355 . S
C4363 C4365 1.415 . S
C4364 C4363 1.355 . S
C4364 C4366 1.419 . S
C4365 C4360 1.425 . S
C4365 C4362 1.409 . S
C4365 C4363 1.415 . S
C4366 H4356 0.930 . S
C4366 C4364 1.419 . S
C4366 C4367 1.362 . S
C4367 H4357 0.930 . S
C4367 C4360 1.409 . S
C4367 C4366 1.362 . S
H4368 C4374 0.930 . S
H4369 C4377 0.930 . S
H4370 C4378 0.930 . S
H4371 C4379 0.930 . S
H4372 C4382 0.930 . S
H4373 C4383 0.930 . S
C4374 H4368 0.930 . S
C4374 C4375 1.355 . S
C4374 C4376 1.415 . S
C4375 C4374 1.355 . S
C4375 C4377 1.419 . S
C4376 C4374 1.415 . S
C4376 C4381 1.425 . S
C4376 C4383 1.409 . S
C4377 H4369 0.930 . S
C4377 C4375 1.419 . S
C4377 C4378 1.362 . S
C4378 H4370 0.930 . S
C4378 C4377 1.362 . S
C4378 C4381 1.409 . S
C4379 H4371 0.930 . S
C4379 C4380 1.355 . S
C4379 C4381 1.415 1_565 S
C4380 C4379 1.355 . S
C4380 C4382 1.419 . S
C4381 C4376 1.425 . S
C4381 C4378 1.409 . S
C4381 C4379 1.415 1_545 S
C4382 H4372 0.930 . S
C4382 C4380 1.419 . S
C4382 C4383 1.362 1_565 S
C4383 H4373 0.930 . S
C4383 C4376 1.409 . S
C4383 C4382 1.362 1_545 S
H4384 C4390 0.930 . S
H4385 C4393 0.930 . S
H4386 C4394 0.930 . S
H4387 C4395 0.930 . S
H4388 C4398 0.930 . S
H4389 C4399 0.930 . S
C4390 H4384 0.930 . S
C4390 C4391 1.355 . S
C4390 C4392 1.415 . S
C4391 C4390 1.355 . S
C4391 C4393 1.419 . S
C4392 C4390 1.415 . S
C4392 C4397 1.425 . S
C4392 C4399 1.409 . S
C4393 H4385 0.930 . S
C4393 C4391 1.419 . S
C4393 C4394 1.362 . S
C4394 H4386 0.930 . S
C4394 C4393 1.362 . S
C4394 C4397 1.409 . S
C4395 H4387 0.930 . S
C4395 C4396 1.355 . S
C4395 C4397 1.415 1_455 S
C4396 C4395 1.355 . S
C4396 C4398 1.419 . S
C4397 C4392 1.425 . S
C4397 C4394 1.409 . S
C4397 C4395 1.415 1_655 S
C4398 H4388 0.930 . S
C4398 C4396 1.419 . S
C4398 C4399 1.362 1_455 S
C4399 H4389 0.930 . S
C4399 C4392 1.409 . S
C4399 C4398 1.362 1_655 S
H4400 C4406 0.930 . S
H4401 C4409 0.930 . S
H4402 C4410 0.930 . S
H4403 C4411 0.930 . S
H4404 C4414 0.930 . S
H4405 C4415 0.930 . S
C4406 H4400 0.930 . S
C4406 C4407 1.355 . S
C4406 C4408 1.415 1_655 S
C4407 C4406 1.355 . S
C4407 C4409 1.419 . S
C4408 C4406 1.415 1_455 S
C4408 C4413 1.425 . S
C4408 C4415 1.409 . S
C4409 H4401 0.930 . S
C4409 C4407 1.419 . S
C4409 C4410 1.362 1_655 S
C4410 H4402 0.930 . S
C4410 C4409 1.362 1_455 S
C4410 C4413 1.409 . S
C4411 H4403 0.930 . S
C4411 C4412 1.355 . S
C4411 C4413 1.415 . S
C4412 C4411 1.355 . S
C4412 C4414 1.419 . S
C4413 C4408 1.425 . S
C4413 C4410 1.409 . S
C4413 C4411 1.415 . S
C4414 H4404 0.930 . S
C4414 C4412 1.419 . S
C4414 C4415 1.362 . S
C4415 H4405 0.930 . S
C4415 C4408 1.409 . S
C4415 C4414 1.362 . S
C1351 C7 1.406 . S
C1356 C441 1.424 . S
C1367 C20 1.399 . S
C1372 C398 1.436 . S
C1383 C413 1.368 . S
C1388 C35 1.304 . S
C1399 C426 1.395 . S
C1404 C48 1.329 . S
C1415 C357 1.391 . S
C1420 C63 1.382 . S
C1431 C370 1.434 . S
C1436 C76 1.405 . S
C1447 C91 1.407 . S
C1452 C385 1.429 . S
C1463 C342 1.434 . S
C1468 C104 1.388 . S
C1479 C118 1.335 . S
C1484 C622 1.355 . S
C1495 C133 1.316 . S
C1500 C581 1.383 . S
C1511 C146 1.361 . S
C1516 C594 1.372 . S
C1527 C161 1.400 . S
C1532 C609 1.436 . S
C1543 C174 1.301 . S
C1548 C664 1.346 . S
C1559 C189 1.325 . S
C1564 C637 1.350 . S
C1575 C202 1.389 . S
C1580 C650 1.398 . S
C1591 C567 1.346 . S
C1596 C217 1.301 . S
C1607 C230 1.381 . S
C1612 C552 1.390 . S
C1623 C468 1.397 . S
C1628 C244 1.331 . S
C1639 C482 1.352 . S
C1644 C258 1.298 . S
C1655 C272 1.298 . S
C1660 C496 1.352 . S
C1671 C454 1.385 . S
C1676 C286 1.318 . S
C1687 C524 1.352 . S
C1692 C300 1.298 . S
C1703 C314 1.363 . S
C1708 C538 1.421 . S
C1719 C328 1.304 . S
C1724 C510 1.368 . S
C1735 C1113 1.347 . S
C1740 C679 1.316 . S
C1751 C1070 1.365 . S
C1756 C692 1.303 . S
C1767 C707 1.337 . S
C1772 C1085 1.403 . S
C1783 C1098 1.434 . S
C1788 C720 1.391 . S
C1799 C735 1.403 . S
C1804 C1029 1.418 . S
C1815 C748 1.396 . S
C1820 C1042 1.435 . S
C1831 C1057 1.400 . S
C1836 C763 1.391 . S
C1847 C1014 1.404 . S
C1852 C776 1.393 . S
C1863 C1294 1.351 . S
C1868 C790 1.327 . S
C1879 C1253 1.389 . S
C1884 C805 1.322 . S
C1895 C818 1.366 . S
C1900 C1266 1.423 . S
C1911 C833 1.396 . S
C1916 C1281 1.407 . S
C1927 C1336 1.365 . S
C1932 C846 1.302 . S
C1943 C1309 1.435 . S
C1948 C861 1.392 . S
C1959 C1322 1.431 . S
C1964 C874 1.407 . S
C1975 C889 1.304 . S
C1980 C1239 1.368 . S
C1991 C1224 1.374 . S
C1996 C902 1.362 . S
C2007 C916 1.350 . S
C2012 C1140 1.364 . S
C2023 C1154 1.346 . S
C2028 C930 1.315 . S
C2039 C1168 1.427 . S
C2044 C944 1.373 . S
C2055 C1126 1.379 . S
C2060 C958 1.313 . S
C2071 C972 1.298 . S
C2076 C1196 1.349 . S
C2087 C986 1.390 . S
C2092 C1210 1.400 . S
C2103 C1182 1.346 . S
C2108 C1000 1.302 . S
C2119 C6 1.448 . S
C2124 C959 1.545 . S
C2135 C21 1.542 . S
C2140 C917 1.445 . S
C2151 C34 1.471 . S
C2156 C931 1.560 . S
C2167 C49 1.452 . S
C2172 C945 1.550 . S
C2183 C1001 1.551 . S
C2188 C62 1.517 . S
C2199 C77 1.472 . S
C2204 C973 1.461 . S
C2215 C987 1.440 . S
C2220 C90 1.518 . S
C2231 C105 1.457 . S
C2236 C903 1.554 . S
C2247 C888 1.533 . S
C2252 C119 1.540 . S
C2263 C132 1.559 . S
C2268 C847 1.468 . S
C2279 C860 1.440 . S
C2284 C147 1.526 . S
C2295 C160 1.465 . S
C2300 C875 1.468 . S
C2311 C175 1.449 . S
C2316 C804 1.490 . S
C2327 C188 1.464 . S
C2332 C819 1.558 . S
C2343 C832 1.463 . S
C2348 C203 1.469 . S
C2359 C791 1.441 . S
C2364 C216 1.532 . S
C2375 C231 1.519 . S
C2380 C777 1.551 . S
C2391 C245 1.463 . S
C2396 C693 1.558 . S
C2407 C259 1.534 . S
C2412 C706 1.540 . S
C2423 C273 1.541 . S
C2428 C721 1.445 . S
C2439 C287 1.440 . S
C2444 C678 1.517 . S
C2455 C749 1.507 . S
C2460 C301 1.442 . S
C2471 C762 1.440 . S
C2476 C315 1.516 . S
C2487 C329 1.517 . S
C2492 C734 1.440 . S
C2503 C345 1.648 . S
C2508 C1297 1.649 . S
C2519 C358 1.644 . S
C2524 C1254 1.653 . S
C2535 C373 1.612 . S
C2540 C1269 1.648 . S
C2551 C386 1.634 . S
C2556 C1282 1.657 . S
C2567 C401 1.647 . S
C2572 C1339 1.612 . S
C2583 C1310 1.623 . S
C2588 C414 1.619 . S
C2599 C429 1.641 . S
C2604 C1325 1.611 . S
C2615 C442 1.641 . S
C2620 C1240 1.611 . S
C2631 C1227 1.646 . S
C2636 C457 1.651 . S
C2647 C1185 1.615 . S
C2652 C471 1.653 . S
C2663 C1199 1.640 . S
C2668 C485 1.611 . S
C2679 C1213 1.616 . S
C2684 C499 1.654 . S
C2695 C513 1.612 . S
C2700 C1143 1.637 . S
C2711 C527 1.611 . S
C2716 C1157 1.643 . S
C2727 C541 1.644 . S
C2732 C1171 1.652 . S
C2743 C1129 1.658 . S
C2748 C555 1.630 . S
C2759 C1114 1.622 . S
C2764 C568 1.657 . S
C2775 C582 1.641 . S
C2780 C1030 1.654 . S
C2791 C1045 1.618 . S
C2796 C597 1.656 . S
C2807 C1058 1.656 . S
C2812 C610 1.619 . S
C2823 C625 1.658 . S
C2828 C1017 1.630 . S
C2839 C638 1.631 . S
C2844 C1086 1.613 . S
C2855 C1101 1.651 . S
C2860 C653 1.646 . S
C2871 C667 1.619 . S
C2876 C1073 1.656 . S
C2887 C8 1.503 . S
C2892 C399 1.456 . S
C2903 C23 1.542 . S
C2908 C412 1.430 . S
C2919 C36 1.504 . S
C2924 C427 1.487 . S
C2935 C51 1.537 . S
C2940 C440 1.393 . S
C2951 C343 1.425 . S
C2956 C64 1.516 . S
C2967 C79 1.509 . S
C2972 C356 1.441 . S
C2983 C371 1.445 . S
C2988 C92 1.507 . S
C2999 C384 1.487 . S
C3004 C107 1.502 . S
C3015 C121 1.530 . S
C3020 C539 1.457 . S
C3031 C553 1.448 . S
C3036 C134 1.534 . S
C3047 C149 1.509 . S
C3052 C511 1.484 . S
C3063 C162 1.510 . S
C3068 C525 1.483 . S
C3079 C177 1.502 . S
C3084 C483 1.487 . S
C3095 C190 1.547 . S
C3100 C497 1.387 . S
C3111 C205 1.514 . S
C3116 C455 1.479 . S
C3127 C469 1.485 . S
C3132 C218 1.507 . S
C3143 C233 1.517 . S
C3148 C636 1.475 . S
C3159 C247 1.531 . S
C3164 C608 1.454 . S
C3175 C623 1.474 . S
C3180 C261 1.518 . S
C3191 C275 1.500 . S
C3196 C580 1.466 . S
C3207 C595 1.457 . S
C3212 C289 1.530 . S
C3223 C303 1.544 . S
C3228 C566 1.424 . S
C3239 C665 1.387 . S
C3244 C317 1.547 . S
C3255 C651 1.398 . S
C3260 C331 1.550 . S
C3271 C680 1.549 . S
C3276 C1071 1.389 . S
C3287 C695 1.540 . S
C3292 C1084 1.390 . S
C3303 C708 1.516 . S
C3308 C1099 1.476 . S
C3319 C1112 1.419 . S
C3324 C723 1.519 . S
C3335 C736 1.501 . S
C3340 C1015 1.487 . S
C3351 C751 1.535 . S
C3356 C1028 1.445 . S
C3367 C764 1.545 . S
C3372 C1043 1.421 . S
C3383 C779 1.550 . S
C3388 C1056 1.394 . S
C3399 C793 1.530 . S
C3404 C1211 1.456 . S
C3415 C1225 1.486 . S
C3420 C806 1.501 . S
C3431 C1183 1.399 . S
C3436 C821 1.532 . S
C3447 C1197 1.410 . S
C3452 C834 1.525 . S
C3463 C849 1.502 . S
C3468 C1155 1.459 . S
C3479 C1169 1.420 . S
C3484 C862 1.519 . S
C3495 C877 1.514 . S
C3500 C1127 1.479 . S
C3511 C1141 1.440 . S
C3516 C890 1.538 . S
C3527 C1308 1.409 . S
C3532 C905 1.549 . S
C3543 C1280 1.439 . S
C3548 C919 1.538 . S
C3559 C933 1.515 . S
C3564 C1295 1.427 . S
C3575 C947 1.500 . S
C3580 C1252 1.468 . S
C3591 C1267 1.484 . S
C3596 C961 1.499 . S
C3607 C975 1.512 . S
C3612 C1238 1.434 . S
C3623 C1337 1.469 . S
C3628 C989 1.522 . S
C3639 C1323 1.480 . S
C3644 C1003 1.498 . S
C3655 C372 1.652 . S
C3660 C9 1.664 . S
C3671 C22 1.680 . S
C3676 C387 1.663 . S
C3687 C344 1.676 . S
C3692 C37 1.673 . S
C3703 C50 1.672 . S
C3708 C359 1.674 . S
C3719 C428 1.662 . S
C3724 C65 1.680 . S
C3735 C443 1.645 . S
C3740 C78 1.666 . S
C3751 C93 1.665 . S
C3756 C400 1.647 . S
C3767 C415 1.672 . S
C3772 C106 1.670 . S
C3783 C120 1.681 . S
C3788 C512 1.668 . S
C3799 C135 1.674 . S
C3804 C526 1.676 . S
C3815 C540 1.672 . S
C3820 C148 1.680 . S
C3831 C163 1.677 . S
C3836 C554 1.650 . S
C3847 C176 1.674 . S
C3852 C456 1.647 . S
C3863 C470 1.652 . S
C3868 C191 1.677 . S
C3879 C484 1.657 . S
C3884 C204 1.665 . S
C3895 C498 1.663 . S
C3900 C219 1.666 . S
C3911 C232 1.669 . S
C3916 C611 1.643 . S
C3927 C639 1.677 . S
C3932 C246 1.677 . S
C3943 C260 1.668 . S
C3948 C652 1.643 . S
C3959 C569 1.666 . S
C3964 C274 1.667 . S
C3975 C666 1.671 . S
C3980 C288 1.669 . S
C3991 C583 1.647 . S
C3996 C302 1.665 . S
C4007 C316 1.672 . S
C4012 C596 1.675 . S
C4023 C330 1.667 . S
C4028 C624 1.667 . S
C4039 C681 1.673 . S
C4044 C1044 1.676 . S
C4055 C1059 1.671 . S
C4060 C694 1.680 . S
C4071 C1016 1.661 . S
C4076 C709 1.680 . S
C4087 C1031 1.653 . S
C4092 C722 1.678 . S
C4103 C737 1.679 . S
C4108 C1100 1.675 . S
C4119 C1115 1.676 . S
C4124 C750 1.678 . S
C4135 C765 1.665 . S
C4140 C1072 1.657 . S
C4151 C1087 1.669 . S
C4156 C778 1.668 . S
C4167 C792 1.668 . S
C4172 C1184 1.643 . S
C4183 C1198 1.659 . S
C4188 C807 1.680 . S
C4199 C820 1.669 . S
C4204 C1212 1.643 . S
C4215 C1226 1.643 . S
C4220 C835 1.670 . S
C4231 C1128 1.656 . S
C4236 C848 1.679 . S
C4247 C1142 1.658 . S
C4252 C863 1.679 . S
C4263 C1156 1.676 . S
C4268 C876 1.678 . S
C4279 C1170 1.649 . S
C4284 C891 1.676 . S
C4295 C904 1.665 . S
C4300 C1283 1.647 . S
C4311 C1311 1.653 . S
C4316 C918 1.664 . S
C4327 C1324 1.646 . S
C4332 C932 1.665 . S
C4343 C1241 1.677 . S
C4348 C946 1.676 . S
C4359 C1338 1.677 . S
C4364 C960 1.677 . S
C4375 C974 1.675 . S
C4380 C1255 1.677 . S
C4391 C988 1.668 . S
C4396 C1268 1.668 . S
C4407 C1296 1.667 . S
C4412 C1002 1.681 . S
