# Generated by pormake.
# Topology fno, (5)-cn, num edge types: 1
# Building blocks:
#     Node 0, Type 0, BuildingBlock: BEQFEK_clean_sbu_0, # of connection points: 5
#     Node 1, Type 0, BuildingBlock: BEQFEK_clean_sbu_0, # of connection points: 5
#     Node 2, Type 0, BuildingBlock: BEQFEK_clean_sbu_0, # of connection points: 5
#     Node 3, Type 0, BuildingBlock: BEQFEK_clean_sbu_0, # of connection points: 5
#     Node 4, Type 0, BuildingBlock: BEQFEK_clean_sbu_0, # of connection points: 5
#     Node 5, Type 0, BuildingBlock: BEQFEK_clean_sbu_0, # of connection points: 5
#     Node 6, Type 0, BuildingBlock: BEQFEK_clean_sbu_0, # of connection points: 5
#     Node 7, Type 0, BuildingBlock: BEQFEK_clean_sbu_0, # of connection points: 5
#     Node 8, Type 0, BuildingBlock: BEQFEK_clean_sbu_0, # of connection points: 5
#     Node 9, Type 0, BuildingBlock: BEQFEK_clean_sbu_0, # of connection points: 5
#     Node 10, Type 0, BuildingBlock: BEQFEK_clean_sbu_0, # of connection points: 5
#     Node 11, Type 0, BuildingBlock: BEQFEK_clean_sbu_0, # of connection points: 5
#     Node 12, Type 0, BuildingBlock: BEQFEK_clean_sbu_0, # of connection points: 5
#     Node 13, Type 0, BuildingBlock: BEQFEK_clean_sbu_0, # of connection points: 5
#     Node 14, Type 0, BuildingBlock: BEQFEK_clean_sbu_0, # of connection points: 5
#     Node 15, Type 0, BuildingBlock: BEQFEK_clean_sbu_0, # of connection points: 5
#     Node 16, Type 0, BuildingBlock: BEQFEK_clean_sbu_0, # of connection points: 5
#     Node 17, Type 0, BuildingBlock: BEQFEK_clean_sbu_0, # of connection points: 5
#     Node 18, Type 0, BuildingBlock: BEQFEK_clean_sbu_0, # of connection points: 5
#     Node 19, Type 0, BuildingBlock: BEQFEK_clean_sbu_0, # of connection points: 5
#     Node 20, Type 0, BuildingBlock: BEQFEK_clean_sbu_0, # of connection points: 5
#     Node 21, Type 0, BuildingBlock: BEQFEK_clean_sbu_0, # of connection points: 5
#     Node 22, Type 0, BuildingBlock: BEQFEK_clean_sbu_0, # of connection points: 5
#     Node 23, Type 0, BuildingBlock: BEQFEK_clean_sbu_0, # of connection points: 5
#     Node 24, Type 0, BuildingBlock: BEQFEK_clean_sbu_0, # of connection points: 5
#     Node 25, Type 0, BuildingBlock: BEQFEK_clean_sbu_0, # of connection points: 5
#     Node 26, Type 0, BuildingBlock: BEQFEK_clean_sbu_0, # of connection points: 5
#     Node 27, Type 0, BuildingBlock: BEQFEK_clean_sbu_0, # of connection points: 5
#     Node 28, Type 0, BuildingBlock: BEQFEK_clean_sbu_0, # of connection points: 5
#     Node 29, Type 0, BuildingBlock: BEQFEK_clean_sbu_0, # of connection points: 5
#     Node 30, Type 0, BuildingBlock: BEQFEK_clean_sbu_0, # of connection points: 5
#     Node 31, Type 0, BuildingBlock: BEQFEK_clean_sbu_0, # of connection points: 5
#     Node 32, Type 0, BuildingBlock: BEQFEK_clean_sbu_0, # of connection points: 5
#     Node 33, Type 0, BuildingBlock: BEQFEK_clean_sbu_0, # of connection points: 5
#     Node 34, Type 0, BuildingBlock: BEQFEK_clean_sbu_0, # of connection points: 5
#     Node 35, Type 0, BuildingBlock: BEQFEK_clean_sbu_0, # of connection points: 5
#     Node 36, Type 0, BuildingBlock: BEQFEK_clean_sbu_0, # of connection points: 5
#     Node 37, Type 0, BuildingBlock: BEQFEK_clean_sbu_0, # of connection points: 5
#     Node 38, Type 0, BuildingBlock: BEQFEK_clean_sbu_0, # of connection points: 5
#     Node 39, Type 0, BuildingBlock: BEQFEK_clean_sbu_0, # of connection points: 5
#     Node 40, Type 0, BuildingBlock: BEQFEK_clean_sbu_0, # of connection points: 5
#     Node 41, Type 0, BuildingBlock: BEQFEK_clean_sbu_0, # of connection points: 5
#     Node 42, Type 0, BuildingBlock: BEQFEK_clean_sbu_0, # of connection points: 5
#     Node 43, Type 0, BuildingBlock: BEQFEK_clean_sbu_0, # of connection points: 5
#     Node 44, Type 0, BuildingBlock: BEQFEK_clean_sbu_0, # of connection points: 5
#     Node 45, Type 0, BuildingBlock: BEQFEK_clean_sbu_0, # of connection points: 5
#     Node 46, Type 0, BuildingBlock: BEQFEK_clean_sbu_0, # of connection points: 5
#     Node 47, Type 0, BuildingBlock: BEQFEK_clean_sbu_0, # of connection points: 5
#     Edge 48, Type (0, 0), BuildingBlock: XIVTED_clean_linker_0, # of connection points: 2
#     Edge 49, Type (0, 0), BuildingBlock: XIVTED_clean_linker_0, # of connection points: 2
#     Edge 50, Type (0, 0), BuildingBlock: XIVTED_clean_linker_0, # of connection points: 2
#     Edge 51, Type (0, 0), BuildingBlock: XIVTED_clean_linker_0, # of connection points: 2
#     Edge 52, Type (0, 0), BuildingBlock: XIVTED_clean_linker_0, # of connection points: 2
#     Edge 53, Type (0, 0), BuildingBlock: XIVTED_clean_linker_0, # of connection points: 2
#     Edge 54, Type (0, 0), BuildingBlock: XIVTED_clean_linker_0, # of connection points: 2
#     Edge 55, Type (0, 0), BuildingBlock: XIVTED_clean_linker_0, # of connection points: 2
#     Edge 56, Type (0, 0), BuildingBlock: XIVTED_clean_linker_0, # of connection points: 2
#     Edge 57, Type (0, 0), BuildingBlock: XIVTED_clean_linker_0, # of connection points: 2
#     Edge 58, Type (0, 0), BuildingBlock: XIVTED_clean_linker_0, # of connection points: 2
#     Edge 59, Type (0, 0), BuildingBlock: XIVTED_clean_linker_0, # of connection points: 2
#     Edge 60, Type (0, 0), BuildingBlock: XIVTED_clean_linker_0, # of connection points: 2
#     Edge 61, Type (0, 0), BuildingBlock: XIVTED_clean_linker_0, # of connection points: 2
#     Edge 62, Type (0, 0), BuildingBlock: XIVTED_clean_linker_0, # of connection points: 2
#     Edge 63, Type (0, 0), BuildingBlock: XIVTED_clean_linker_0, # of connection points: 2
#     Edge 64, Type (0, 0), BuildingBlock: XIVTED_clean_linker_0, # of connection points: 2
#     Edge 65, Type (0, 0), BuildingBlock: XIVTED_clean_linker_0, # of connection points: 2
#     Edge 66, Type (0, 0), BuildingBlock: XIVTED_clean_linker_0, # of connection points: 2
#     Edge 67, Type (0, 0), BuildingBlock: XIVTED_clean_linker_0, # of connection points: 2
#     Edge 68, Type (0, 0), BuildingBlock: XIVTED_clean_linker_0, # of connection points: 2
#     Edge 69, Type (0, 0), BuildingBlock: XIVTED_clean_linker_0, # of connection points: 2
#     Edge 70, Type (0, 0), BuildingBlock: XIVTED_clean_linker_0, # of connection points: 2
#     Edge 71, Type (0, 0), BuildingBlock: XIVTED_clean_linker_0, # of connection points: 2
#     Edge 72, Type (0, 0), BuildingBlock: XIVTED_clean_linker_0, # of connection points: 2
#     Edge 73, Type (0, 0), BuildingBlock: XIVTED_clean_linker_0, # of connection points: 2
#     Edge 74, Type (0, 0), BuildingBlock: XIVTED_clean_linker_0, # of connection points: 2
#     Edge 75, Type (0, 0), BuildingBlock: XIVTED_clean_linker_0, # of connection points: 2
#     Edge 76, Type (0, 0), BuildingBlock: XIVTED_clean_linker_0, # of connection points: 2
#     Edge 77, Type (0, 0), BuildingBlock: XIVTED_clean_linker_0, # of connection points: 2
#     Edge 78, Type (0, 0), BuildingBlock: XIVTED_clean_linker_0, # of connection points: 2
#     Edge 79, Type (0, 0), BuildingBlock: XIVTED_clean_linker_0, # of connection points: 2
#     Edge 80, Type (0, 0), BuildingBlock: XIVTED_clean_linker_0, # of connection points: 2
#     Edge 81, Type (0, 0), BuildingBlock: XIVTED_clean_linker_0, # of connection points: 2
#     Edge 82, Type (0, 0), BuildingBlock: XIVTED_clean_linker_0, # of connection points: 2
#     Edge 83, Type (0, 0), BuildingBlock: XIVTED_clean_linker_0, # of connection points: 2
#     Edge 84, Type (0, 0), BuildingBlock: XIVTED_clean_linker_0, # of connection points: 2
#     Edge 85, Type (0, 0), BuildingBlock: XIVTED_clean_linker_0, # of connection points: 2
#     Edge 86, Type (0, 0), BuildingBlock: XIVTED_clean_linker_0, # of connection points: 2
#     Edge 87, Type (0, 0), BuildingBlock: XIVTED_clean_linker_0, # of connection points: 2
#     Edge 88, Type (0, 0), BuildingBlock: XIVTED_clean_linker_0, # of connection points: 2
#     Edge 89, Type (0, 0), BuildingBlock: XIVTED_clean_linker_0, # of connection points: 2
#     Edge 90, Type (0, 0), BuildingBlock: XIVTED_clean_linker_0, # of connection points: 2
#     Edge 91, Type (0, 0), BuildingBlock: XIVTED_clean_linker_0, # of connection points: 2
#     Edge 92, Type (0, 0), BuildingBlock: XIVTED_clean_linker_0, # of connection points: 2
#     Edge 93, Type (0, 0), BuildingBlock: XIVTED_clean_linker_0, # of connection points: 2
#     Edge 94, Type (0, 0), BuildingBlock: XIVTED_clean_linker_0, # of connection points: 2
#     Edge 95, Type (0, 0), BuildingBlock: XIVTED_clean_linker_0, # of connection points: 2
#     Edge 96, Type (0, 0), BuildingBlock: XIVTED_clean_linker_0, # of connection points: 2
#     Edge 97, Type (0, 0), BuildingBlock: XIVTED_clean_linker_0, # of connection points: 2
#     Edge 98, Type (0, 0), BuildingBlock: XIVTED_clean_linker_0, # of connection points: 2
#     Edge 99, Type (0, 0), BuildingBlock: XIVTED_clean_linker_0, # of connection points: 2
#     Edge 100, Type (0, 0), BuildingBlock: XIVTED_clean_linker_0, # of connection points: 2
#     Edge 101, Type (0, 0), BuildingBlock: XIVTED_clean_linker_0, # of connection points: 2
#     Edge 102, Type (0, 0), BuildingBlock: XIVTED_clean_linker_0, # of connection points: 2
#     Edge 103, Type (0, 0), BuildingBlock: XIVTED_clean_linker_0, # of connection points: 2
#     Edge 104, Type (0, 0), BuildingBlock: XIVTED_clean_linker_0, # of connection points: 2
#     Edge 105, Type (0, 0), BuildingBlock: XIVTED_clean_linker_0, # of connection points: 2
#     Edge 106, Type (0, 0), BuildingBlock: XIVTED_clean_linker_0, # of connection points: 2
#     Edge 107, Type (0, 0), BuildingBlock: XIVTED_clean_linker_0, # of connection points: 2
#     Edge 108, Type (0, 0), BuildingBlock: XIVTED_clean_linker_0, # of connection points: 2
#     Edge 109, Type (0, 0), BuildingBlock: XIVTED_clean_linker_0, # of connection points: 2
#     Edge 110, Type (0, 0), BuildingBlock: XIVTED_clean_linker_0, # of connection points: 2
#     Edge 111, Type (0, 0), BuildingBlock: XIVTED_clean_linker_0, # of connection points: 2
#     Edge 112, Type (0, 0), BuildingBlock: XIVTED_clean_linker_0, # of connection points: 2
#     Edge 113, Type (0, 0), BuildingBlock: XIVTED_clean_linker_0, # of connection points: 2
#     Edge 114, Type (0, 0), BuildingBlock: XIVTED_clean_linker_0, # of connection points: 2
#     Edge 115, Type (0, 0), BuildingBlock: XIVTED_clean_linker_0, # of connection points: 2
#     Edge 116, Type (0, 0), BuildingBlock: XIVTED_clean_linker_0, # of connection points: 2
#     Edge 117, Type (0, 0), BuildingBlock: XIVTED_clean_linker_0, # of connection points: 2
#     Edge 118, Type (0, 0), BuildingBlock: XIVTED_clean_linker_0, # of connection points: 2
#     Edge 119, Type (0, 0), BuildingBlock: XIVTED_clean_linker_0, # of connection points: 2
#     Edge 120, Type (0, 0), BuildingBlock: XIVTED_clean_linker_0, # of connection points: 2
#     Edge 121, Type (0, 0), BuildingBlock: XIVTED_clean_linker_0, # of connection points: 2
#     Edge 122, Type (0, 0), BuildingBlock: XIVTED_clean_linker_0, # of connection points: 2
#     Edge 123, Type (0, 0), BuildingBlock: XIVTED_clean_linker_0, # of connection points: 2
#     Edge 124, Type (0, 0), BuildingBlock: XIVTED_clean_linker_0, # of connection points: 2
#     Edge 125, Type (0, 0), BuildingBlock: XIVTED_clean_linker_0, # of connection points: 2
#     Edge 126, Type (0, 0), BuildingBlock: XIVTED_clean_linker_0, # of connection points: 2
#     Edge 127, Type (0, 0), BuildingBlock: XIVTED_clean_linker_0, # of connection points: 2
#     Edge 128, Type (0, 0), BuildingBlock: XIVTED_clean_linker_0, # of connection points: 2
#     Edge 129, Type (0, 0), BuildingBlock: XIVTED_clean_linker_0, # of connection points: 2
#     Edge 130, Type (0, 0), BuildingBlock: XIVTED_clean_linker_0, # of connection points: 2
#     Edge 131, Type (0, 0), BuildingBlock: XIVTED_clean_linker_0, # of connection points: 2
#     Edge 132, Type (0, 0), BuildingBlock: XIVTED_clean_linker_0, # of connection points: 2
#     Edge 133, Type (0, 0), BuildingBlock: XIVTED_clean_linker_0, # of connection points: 2
#     Edge 134, Type (0, 0), BuildingBlock: XIVTED_clean_linker_0, # of connection points: 2
#     Edge 135, Type (0, 0), BuildingBlock: XIVTED_clean_linker_0, # of connection points: 2
#     Edge 136, Type (0, 0), BuildingBlock: XIVTED_clean_linker_0, # of connection points: 2
#     Edge 137, Type (0, 0), BuildingBlock: XIVTED_clean_linker_0, # of connection points: 2
#     Edge 138, Type (0, 0), BuildingBlock: XIVTED_clean_linker_0, # of connection points: 2
#     Edge 139, Type (0, 0), BuildingBlock: XIVTED_clean_linker_0, # of connection points: 2
#     Edge 140, Type (0, 0), BuildingBlock: XIVTED_clean_linker_0, # of connection points: 2
#     Edge 141, Type (0, 0), BuildingBlock: XIVTED_clean_linker_0, # of connection points: 2
#     Edge 142, Type (0, 0), BuildingBlock: XIVTED_clean_linker_0, # of connection points: 2
#     Edge 143, Type (0, 0), BuildingBlock: XIVTED_clean_linker_0, # of connection points: 2
#     Edge 144, Type (0, 0), BuildingBlock: XIVTED_clean_linker_0, # of connection points: 2
#     Edge 145, Type (0, 0), BuildingBlock: XIVTED_clean_linker_0, # of connection points: 2
#     Edge 146, Type (0, 0), BuildingBlock: XIVTED_clean_linker_0, # of connection points: 2
#     Edge 147, Type (0, 0), BuildingBlock: XIVTED_clean_linker_0, # of connection points: 2
#     Edge 148, Type (0, 0), BuildingBlock: XIVTED_clean_linker_0, # of connection points: 2
#     Edge 149, Type (0, 0), BuildingBlock: XIVTED_clean_linker_0, # of connection points: 2
#     Edge 150, Type (0, 0), BuildingBlock: XIVTED_clean_linker_0, # of connection points: 2
#     Edge 151, Type (0, 0), BuildingBlock: XIVTED_clean_linker_0, # of connection points: 2
#     Edge 152, Type (0, 0), BuildingBlock: XIVTED_clean_linker_0, # of connection points: 2
#     Edge 153, Type (0, 0), BuildingBlock: XIVTED_clean_linker_0, # of connection points: 2
#     Edge 154, Type (0, 0), BuildingBlock: XIVTED_clean_linker_0, # of connection points: 2
#     Edge 155, Type (0, 0), BuildingBlock: XIVTED_clean_linker_0, # of connection points: 2
#     Edge 156, Type (0, 0), BuildingBlock: XIVTED_clean_linker_0, # of connection points: 2
#     Edge 157, Type (0, 0), BuildingBlock: XIVTED_clean_linker_0, # of connection points: 2
#     Edge 158, Type (0, 0), BuildingBlock: XIVTED_clean_linker_0, # of connection points: 2
#     Edge 159, Type (0, 0), BuildingBlock: XIVTED_clean_linker_0, # of connection points: 2
#     Edge 160, Type (0, 0), BuildingBlock: XIVTED_clean_linker_0, # of connection points: 2
#     Edge 161, Type (0, 0), BuildingBlock: XIVTED_clean_linker_0, # of connection points: 2
#     Edge 162, Type (0, 0), BuildingBlock: XIVTED_clean_linker_0, # of connection points: 2
#     Edge 163, Type (0, 0), BuildingBlock: XIVTED_clean_linker_0, # of connection points: 2
#     Edge 164, Type (0, 0), BuildingBlock: XIVTED_clean_linker_0, # of connection points: 2
#     Edge 165, Type (0, 0), BuildingBlock: XIVTED_clean_linker_0, # of connection points: 2
#     Edge 166, Type (0, 0), BuildingBlock: XIVTED_clean_linker_0, # of connection points: 2
#     Edge 167, Type (0, 0), BuildingBlock: XIVTED_clean_linker_0, # of connection points: 2
# Relax obj value: 0.216
# Max RMSD: 0.143
# Mean RMSD: 0.129
data_MOF--net-fno--node1-BEQFEK_clean_sbu_0--edge1-XIVTED_clean_linker_0
_symmetry_space_group_name_H-M    P1
_symmetry_Int_Tables_number       1
_symmetry_cell_setting            triclinic
loop_
_symmetry_equiv_pos_as_xyz
'x, y, z'
_cell_length_a     60.811467
_cell_length_b     61.212979
_cell_length_c     60.099102
_cell_angle_alpha  90.151678
_cell_angle_beta   90.25031
_cell_angle_gamma 90.522471
loop_
_atom_site_label
_atom_site_type_symbol
_atom_site_fract_x
_atom_site_fract_y
_atom_site_fract_z
_atom_type_partial_charge
Co0 Co 0.09841 0.35043 0.0855 0.0
Co1 Co 0.09075 0.35958 0.1362 0.0
C2 C 0.13589 0.35901 0.11662 0.0
O3 O 0.12866 0.35423 0.09731 0.0
O4 O 0.12293 0.36155 0.13293 0.0
C5 C 0.11845 0.34042 0.04404 0.0
O6 O 0.13598 0.33741 0.05646 0.0
C7 C 0.09726 0.35502 0.1839 0.0
C8 C 0.0736 0.37903 0.19688 0.0
C9 C 0.09082 0.36568 0.20315 0.0
N10 N 0.08467 0.36208 0.16701 0.0
N11 N 0.07019 0.37601 0.17496 0.0
C12 C 0.11676 0.34056 0.18098 0.0
H13 H 0.13198 0.34956 0.18577 0.0
H14 H 0.11792 0.33463 0.1636 0.0
H15 H 0.11522 0.32611 0.19193 0.0
C16 C 0.07146 0.31132 0.09663 0.0
N17 N 0.08226 0.32979 0.10231 0.0
N18 N 0.0794 0.33353 0.12368 0.0
C19 C 0.06684 0.31752 0.13233 0.0
C20 C 0.06144 0.30289 0.11549 0.0
C21 C 0.07023 0.3025 0.07343 0.0
H22 H 0.0869 0.3025 0.06601 0.0
H23 H 0.06324 0.28569 0.07309 0.0
H24 H 0.05977 0.31336 0.06319 0.0
O25 O 0.08446 0.37931 0.08624 0.0
O26 O 0.07819 0.38554 0.12193 0.0
H27 H 0.04609 0.30448 0.15858 0.0
H28 H 0.07241 0.31552 0.16737 0.0
C29 C 0.05841 0.31763 0.15571 0.0
H30 H 0.0508 0.33364 0.15932 0.0
H31 H 0.05908 0.38465 0.16516 0.0
O32 O 0.10003 0.34355 0.05337 0.0
C33 C 0.0773 0.39149 0.1017 0.0
Co34 Co 0.90182 0.85138 0.34758 0.0
Co35 Co 0.89796 0.8446 0.39863 0.0
C36 C 0.90798 0.88871 0.37758 0.0
O37 O 0.91053 0.88085 0.35816 0.0
O38 O 0.90282 0.87645 0.39384 0.0
C39 C 0.88997 0.86749 0.30767 0.0
O40 O 0.88327 0.88215 0.32206 0.0
C41 C 0.91102 0.85225 0.44447 0.0
C42 C 0.88647 0.83232 0.46244 0.0
C43 C 0.90273 0.84808 0.46545 0.0
N44 N 0.89994 0.8398 0.42971 0.0
N45 N 0.88573 0.82743 0.44062 0.0
C46 C 0.92664 0.87019 0.43816 0.0
H47 H 0.91765 0.88587 0.43756 0.0
H48 H 0.93392 0.86684 0.42161 0.0
H49 H 0.93999 0.87185 0.45068 0.0
C50 C 0.9345 0.81519 0.35286 0.0
N51 N 0.91943 0.82924 0.36079 0.0
N52 N 0.91788 0.82669 0.38247 0.0
C53 C 0.93182 0.81093 0.38902 0.0
C54 C 0.94297 0.80309 0.3705 0.0
C55 C 0.9413 0.81415 0.329 0.0
H56 H 0.93952 0.8304 0.32109 0.0
H57 H 0.95854 0.80855 0.32749 0.0
H58 H 0.93042 0.80238 0.32007 0.0
O59 O 0.87016 0.84798 0.35468 0.0
O60 O 0.86694 0.83932 0.39018 0.0
H61 H 0.91679 0.8003 0.41929 0.0
H62 H 0.9427 0.7874 0.41357 0.0
C63 C 0.93351 0.80293 0.41247 0.0
H64 H 0.94189 0.81556 0.4228 0.0
H65 H 0.87426 0.81705 0.43297 0.0
O66 O 0.90111 0.85138 0.31471 0.0
C67 C 0.85828 0.84319 0.37133 0.0
Co68 Co 0.4034 0.64144 0.65456 0.0
Co69 Co 0.3976 0.64923 0.60334 0.0
C70 C 0.39706 0.60427 0.62324 0.0
O71 O 0.4013 0.61144 0.64267 0.0
O72 O 0.3952 0.61716 0.60679 0.0
C73 C 0.40719 0.62242 0.69742 0.0
O74 O 0.40823 0.60417 0.68599 0.0
C75 C 0.40337 0.6419 0.55592 0.0
C76 C 0.39119 0.67258 0.54129 0.0
C77 C 0.39903 0.65207 0.53593 0.0
N78 N 0.3981 0.65559 0.57249 0.0
N79 N 0.39098 0.674 0.56366 0.0
C80 C 0.41298 0.61973 0.55918 0.0
H81 H 0.42328 0.61951 0.57446 0.0
H82 H 0.42305 0.61497 0.54462 0.0
H83 H 0.39945 0.60764 0.56099 0.0
C84 C 0.44324 0.66841 0.64673 0.0
N85 N 0.42499 0.6579 0.6396 0.0
N86 N 0.42262 0.66101 0.61806 0.0
C87 C 0.4393 0.67362 0.61078 0.0
C88 C 0.45285 0.67877 0.62868 0.0
C89 C 0.45021 0.66962 0.6706 0.0
H90 H 0.43654 0.67626 0.68067 0.0
H91 H 0.45353 0.65288 0.67674 0.0
H92 H 0.46507 0.68003 0.67291 0.0
O93 O 0.37392 0.65401 0.65097 0.0
O94 O 0.37001 0.66114 0.6151 0.0
H95 H 0.42916 0.69229 0.58263 0.0
H96 H 0.45854 0.68838 0.58441 0.0
C97 C 0.44224 0.68056 0.58711 0.0
H98 H 0.44068 0.66614 0.57601 0.0
H99 H 0.38543 0.68729 0.57291 0.0
O100 O 0.4076 0.64055 0.68716 0.0
C101 C 0.36245 0.66098 0.6348 0.0
Co102 Co 0.6051 0.1377 0.90446 0.0
Co103 Co 0.59396 0.1312 0.85408 0.0
C104 C 0.64061 0.1382 0.8716 0.0
O105 O 0.63495 0.14212 0.89161 0.0
O106 O 0.62637 0.13367 0.85667 0.0
C107 C 0.61934 0.12695 0.94622 0.0
O108 O 0.63214 0.11538 0.93327 0.0
C109 C 0.59974 0.13859 0.80667 0.0
C110 C 0.57561 0.11528 0.79245 0.0
C111 C 0.59314 0.12882 0.78666 0.0
N112 N 0.58722 0.13054 0.82316 0.0
N113 N 0.57256 0.11693 0.81451 0.0
C114 C 0.61748 0.15524 0.81067 0.0
H115 H 0.61456 0.16399 0.82658 0.0
H116 H 0.61793 0.1673 0.79692 0.0
H117 H 0.63361 0.14698 0.81186 0.0
C118 C 0.57186 0.17301 0.89917 0.0
N119 N 0.58386 0.15638 0.8911 0.0
N120 N 0.5793 0.15378 0.86982 0.0
C121 C 0.56427 0.16867 0.86366 0.0
C122 C 0.55898 0.18144 0.88207 0.0
C123 C 0.57352 0.18118 0.9226 0.0
H124 H 0.59077 0.18011 0.92856 0.0
H125 H 0.56784 0.19831 0.92396 0.0
H126 H 0.56316 0.17068 0.93342 0.0
O127 O 0.59774 0.1063 0.90018 0.0
O128 O 0.58643 0.10196 0.86544 0.0
H129 H 0.55018 0.15321 0.8349 0.0
H130 H 0.53973 0.18025 0.84033 0.0
C131 C 0.55459 0.16988 0.84077 0.0
H132 H 0.5671 0.17666 0.82923 0.0
H133 H 0.56142 0.10771 0.82383 0.0
O134 O 0.6061 0.14034 0.93729 0.0
C135 C 0.59047 0.09415 0.88457 0.0
Co136 Co 0.10029 0.63992 0.40073 0.0
Co137 Co 0.09591 0.63545 0.34915 0.0
C138 C 0.1399 0.64172 0.37184 0.0
O139 O 0.13122 0.64419 0.39091 0.0
O140 O 0.12807 0.63824 0.35466 0.0
C141 C 0.11361 0.62872 0.44192 0.0
O142 O 0.12641 0.61773 0.42844 0.0
C143 C 0.10468 0.64346 0.30211 0.0
C144 C 0.07989 0.62189 0.28618 0.0
C145 C 0.09809 0.63491 0.28176 0.0
N146 N 0.09113 0.63563 0.31787 0.0
N147 N 0.07601 0.6232 0.30816 0.0
C148 C 0.1252 0.6563 0.30694 0.0
H149 H 0.1235 0.66549 0.32277 0.0
H150 H 0.12884 0.66795 0.29335 0.0
H151 H 0.13922 0.64493 0.30834 0.0
C152 C 0.06703 0.67499 0.39271 0.0
N153 N 0.08058 0.65905 0.38574 0.0
N154 N 0.07923 0.65745 0.36393 0.0
C155 C 0.065 0.6725 0.3563 0.0
C156 C 0.0566 0.68414 0.37428 0.0
C157 C 0.06354 0.68062 0.41667 0.0
H158 H 0.06499 0.66577 0.42709 0.0
H159 H 0.07643 0.69246 0.42206 0.0
H160 H 0.04716 0.68804 0.41925 0.0
O161 O 0.0928 0.60889 0.39529 0.0
O162 O 0.08785 0.60555 0.35899 0.0
H163 H 0.0503 0.66292 0.32539 0.0
H164 H 0.05242 0.69222 0.32921 0.0
C165 C 0.0607 0.67641 0.3321 0.0
H166 H 0.07647 0.67646 0.32292 0.0
H167 H 0.06401 0.61436 0.31674 0.0
O168 O 0.09988 0.64199 0.43358 0.0
C169 C 0.0884 0.59721 0.37833 0.0
Co170 Co 0.61465 0.83391 0.58864 0.0
Co171 Co 0.60326 0.84717 0.63769 0.0
C172 C 0.64989 0.84111 0.62167 0.0
O173 O 0.64412 0.83431 0.60249 0.0
O174 O 0.63574 0.84691 0.63598 0.0
C175 C 0.632 0.83908 0.5477 0.0
O176 O 0.64467 0.85098 0.5608 0.0
C177 C 0.60718 0.84403 0.68591 0.0
C178 C 0.58425 0.86963 0.69688 0.0
C179 C 0.60029 0.85553 0.7045 0.0
N180 N 0.59594 0.85126 0.66813 0.0
N181 N 0.5819 0.86621 0.67487 0.0
C182 C 0.62592 0.82839 0.68452 0.0
H183 H 0.6414 0.83672 0.68971 0.0
H184 H 0.62754 0.82175 0.66745 0.0
H185 H 0.62306 0.81446 0.6959 0.0
C186 C 0.58407 0.79744 0.5996 0.0
N187 N 0.59527 0.8158 0.60488 0.0
N188 N 0.59059 0.82145 0.62548 0.0
C189 C 0.57615 0.80698 0.63393 0.0
C190 C 0.57157 0.79128 0.61785 0.0
C191 C 0.5845 0.78698 0.57709 0.0
H192 H 0.581 0.79946 0.56422 0.0
H193 H 0.60125 0.78068 0.57392 0.0
H194 H 0.57235 0.77341 0.57567 0.0
O195 O 0.60397 0.86411 0.58788 0.0
O196 O 0.59321 0.87328 0.6217 0.0
H197 H 0.5586 0.82394 0.65933 0.0
H198 H 0.55574 0.79447 0.66069 0.0
C199 C 0.56719 0.80819 0.65705 0.0
H200 H 0.58101 0.80771 0.66913 0.0
H201 H 0.57181 0.87513 0.66423 0.0
O202 O 0.61715 0.82714 0.55648 0.0
C203 C 0.59569 0.87782 0.60125 0.0
Co204 Co 0.40498 0.34916 0.90519 0.0
Co205 Co 0.41085 0.35121 0.85387 0.0
C206 C 0.36629 0.34592 0.87563 0.0
O207 O 0.37445 0.34336 0.89496 0.0
O208 O 0.37861 0.34922 0.8589 0.0
C209 C 0.39016 0.36243 0.94505 0.0
O210 O 0.3769 0.37159 0.93057 0.0
C211 C 0.40171 0.33945 0.80796 0.0
C212 C 0.42485 0.36103 0.7901 0.0
C213 C 0.40702 0.34707 0.78701 0.0
N214 N 0.41553 0.34869 0.82279 0.0
N215 N 0.4298 0.36104 0.81194 0.0
C216 C 0.38178 0.32634 0.81414 0.0
H217 H 0.3843 0.31827 0.83045 0.0
H218 H 0.37816 0.31374 0.80132 0.0
H219 H 0.3674 0.33731 0.81517 0.0
C220 C 0.43911 0.31441 0.90028 0.0
N221 N 0.4255 0.32973 0.89207 0.0
N222 N 0.42741 0.33025 0.87028 0.0
C223 C 0.44207 0.31511 0.86388 0.0
C224 C 0.45018 0.30455 0.88269 0.0
C225 C 0.44201 0.31001 0.92459 0.0
H226 H 0.4399 0.32528 0.93427 0.0
H227 H 0.42924 0.29812 0.92999 0.0
H228 H 0.45847 0.30312 0.92812 0.0
O229 O 0.41127 0.38001 0.89784 0.0
O230 O 0.41854 0.38173 0.8619 0.0
H231 H 0.4571 0.32352 0.83296 0.0
H232 H 0.45591 0.2944 0.8382 0.0
C233 C 0.44704 0.31004 0.84005 0.0
H234 H 0.43148 0.30893 0.83043 0.0
H235 H 0.44165 0.37096 0.81964 0.0
O236 O 0.40486 0.34949 0.938 0.0
C237 C 0.41629 0.39102 0.88069 0.0
Co238 Co 0.90276 0.14163 0.1528 0.0
Co239 Co 0.88954 0.15649 0.10494 0.0
C240 C 0.90016 0.10968 0.11635 0.0
O241 O 0.90627 0.1139 0.13619 0.0
O242 O 0.89317 0.12463 0.1036 0.0
C243 C 0.89905 0.12017 0.19219 0.0
O244 O 0.88858 0.10725 0.17815 0.0
C245 C 0.89169 0.15514 0.05704 0.0
C246 C 0.86561 0.17815 0.04738 0.0
C247 C 0.87949 0.16232 0.03886 0.0
N248 N 0.88477 0.16571 0.07527 0.0
N249 N 0.86945 0.17972 0.06938 0.0
C250 C 0.90987 0.13882 0.05756 0.0
H251 H 0.92077 0.14189 0.07212 0.0
H252 H 0.91969 0.13969 0.04206 0.0
H253 H 0.90281 0.12214 0.05924 0.0
C254 C 0.93617 0.17706 0.14629 0.0
N255 N 0.91901 0.16469 0.1394 0.0
N256 N 0.91358 0.17048 0.11903 0.0
C257 C 0.92711 0.18655 0.1122 0.0
C258 C 0.94184 0.19137 0.12928 0.0
C259 C 0.94629 0.17558 0.16895 0.0
H260 H 0.93334 0.17256 0.18154 0.0
H261 H 0.95775 0.16157 0.16931 0.0
H262 H 0.95551 0.19074 0.17329 0.0
O263 O 0.871 0.14807 0.15352 0.0
O264 O 0.8621 0.16184 0.12077 0.0
H265 H 0.91155 0.20618 0.08745 0.0
H266 H 0.94129 0.20621 0.08571 0.0
C267 C 0.92652 0.1961 0.08928 0.0
H268 H 0.92558 0.18278 0.07681 0.0
H269 H 0.86064 0.18931 0.08056 0.0
O270 O 0.90933 0.13674 0.18461 0.0
C271 C 0.8569 0.15625 0.14039 0.0
Co272 Co 0.09251 0.09226 0.35208 0.0
Co273 Co 0.14002 0.07919 0.36637 0.0
C274 C 0.12818 0.12459 0.34983 0.0
O275 O 0.10858 0.11939 0.34427 0.0
O276 O 0.14099 0.11071 0.35868 0.0
C277 C 0.05314 0.11262 0.35587 0.0
O278 O 0.06707 0.12718 0.36391 0.0
C279 C 0.18777 0.07857 0.36288 0.0
C280 C 0.19674 0.0561 0.39008 0.0
C281 C 0.20556 0.07039 0.37458 0.0
N282 N 0.16931 0.06963 0.37117 0.0
N283 N 0.17479 0.05582 0.38707 0.0
C284 C 0.18794 0.09675 0.34627 0.0
H285 H 0.18874 0.11261 0.35522 0.0
H286 H 0.17282 0.09612 0.3359 0.0
H287 H 0.20242 0.09578 0.33523 0.0
C288 C 0.0983 0.0537 0.32223 0.0
N289 N 0.1052 0.06738 0.33847 0.0
N290 N 0.12544 0.06234 0.34415 0.0
C291 C 0.13223 0.04552 0.33154 0.0
C292 C 0.11521 0.03932 0.31725 0.0
C293 C 0.07591 0.05446 0.31187 0.0
H294 H 0.06353 0.05877 0.3246 0.0
H295 H 0.07576 0.0673 0.29888 0.0
H296 H 0.07139 0.03855 0.30415 0.0
O297 O 0.09326 0.0905 0.38475 0.0
O298 O 0.12531 0.07745 0.3955 0.0
H299 H 0.15855 0.02882 0.3477 0.0
H300 H 0.15864 0.026 0.31769 0.0
C301 C 0.15535 0.03726 0.33172 0.0
H302 H 0.16693 0.05127 0.3305 0.0
H303 H 0.16347 0.04731 0.39685 0.0
O304 O 0.0607 0.09554 0.34664 0.0
C305 C 0.10623 0.08439 0.40005 0.0
Co306 Co 0.14674 0.91155 0.603 0.0
Co307 Co 0.14996 0.86028 0.60333 0.0
C308 C 0.15569 0.88636 0.64503 0.0
O309 O 0.15351 0.90426 0.63453 0.0
O310 O 0.15534 0.86808 0.63486 0.0
C311 C 0.13047 0.9505 0.61481 0.0
O312 O 0.12129 0.9362 0.62823 0.0
C313 C 0.15596 0.81386 0.61411 0.0
C314 C 0.14906 0.79808 0.5817 0.0
C315 C 0.15368 0.79374 0.6038 0.0
N316 N 0.1528 0.82954 0.59883 0.0
N317 N 0.14865 0.81996 0.57949 0.0
C318 C 0.16052 0.81809 0.63819 0.0
H319 H 0.17321 0.8311 0.63992 0.0
H320 H 0.16634 0.80317 0.64676 0.0
H321 H 0.14517 0.82369 0.6462 0.0
C322 C 0.17979 0.90615 0.56692 0.0
N323 N 0.16643 0.89814 0.58284 0.0
N324 N 0.1683 0.87672 0.58355 0.0
C325 C 0.18341 0.87054 0.56849 0.0
C326 C 0.19093 0.88887 0.55717 0.0
C327 C 0.18099 0.92973 0.56058 0.0
H328 H 0.16458 0.9373 0.56229 0.0
H329 H 0.19254 0.93834 0.57203 0.0
H330 H 0.18692 0.93174 0.54326 0.0
O331 O 0.1164 0.90167 0.5977 0.0
O332 O 0.11827 0.86566 0.59869 0.0
H333 H 0.18163 0.83874 0.55377 0.0
H334 H 0.20909 0.84796 0.55996 0.0
C335 C 0.19189 0.84777 0.56607 0.0
H336 H 0.19132 0.83915 0.58225 0.0
H337 H 0.14469 0.82835 0.56495 0.0
O338 O 0.1447 0.94383 0.60094 0.0
C339 C 0.10711 0.88304 0.59723 0.0
Co340 Co 0.40685 0.88404 0.82671 0.0
Co341 Co 0.35814 0.89568 0.83634 0.0
C342 C 0.37267 0.8502 0.82263 0.0
O343 O 0.39228 0.85624 0.8184 0.0
O344 O 0.35858 0.86376 0.82978 0.0
C345 C 0.44609 0.86453 0.83343 0.0
O346 O 0.43191 0.8497 0.84023 0.0
C347 C 0.31065 0.89435 0.83027 0.0
C348 C 0.30004 0.91679 0.85689 0.0
C349 C 0.2923 0.90156 0.84159 0.0
N350 N 0.32845 0.90453 0.8388 0.0
N351 N 0.32194 0.91843 0.85422 0.0
C352 C 0.31166 0.87583 0.81403 0.0
H353 H 0.3275 0.87611 0.80497 0.0
H354 H 0.29806 0.87687 0.80176 0.0
H355 H 0.30981 0.86016 0.82308 0.0
C356 C 0.40309 0.92315 0.79745 0.0
N357 N 0.39471 0.90832 0.81169 0.0
N358 N 0.37392 0.9128 0.81537 0.0
C359 C 0.36831 0.9305 0.80345 0.0
C360 C 0.38664 0.93781 0.79176 0.0
C361 C 0.4267 0.92388 0.79058 0.0
H362 H 0.4374 0.91999 0.805 0.0
H363 H 0.42942 0.91129 0.77758 0.0
H364 H 0.43139 0.94014 0.78391 0.0
O365 O 0.40395 0.88664 0.85926 0.0
O366 O 0.37062 0.89869 0.86658 0.0
H367 H 0.34204 0.94782 0.8188 0.0
H368 H 0.34347 0.95142 0.78895 0.0
C369 C 0.34555 0.93961 0.80274 0.0
H370 H 0.33346 0.92612 0.80051 0.0
H371 H 0.33261 0.92769 0.86419 0.0
O372 O 0.4389 0.88143 0.82363 0.0
C373 C 0.38953 0.89273 0.8731 0.0
Co374 Co 0.35708 0.16178 0.10266 0.0
Co375 Co 0.35584 0.11029 0.0986 0.0
C376 C 0.3982 0.13445 0.10357 0.0
O377 O 0.38855 0.15282 0.10365 0.0
O378 O 0.38746 0.11665 0.10144 0.0
C379 C 0.37343 0.20576 0.10265 0.0
O380 O 0.39202 0.19622 0.09766 0.0
C381 C 0.36653 0.06403 0.09078 0.0
C382 C 0.33396 0.04817 0.09405 0.0
C383 C 0.35606 0.04384 0.09111 0.0
N384 N 0.35138 0.07965 0.09368 0.0
N385 N 0.33191 0.07003 0.0955 0.0
C386 C 0.39053 0.06835 0.08751 0.0
H387 H 0.39295 0.08317 0.0772 0.0
H388 H 0.39858 0.0543 0.07929 0.0
H389 H 0.39834 0.07106 0.10398 0.0
C390 C 0.32862 0.15724 0.06242 0.0
N391 N 0.34169 0.14888 0.07839 0.0
N392 N 0.34249 0.12752 0.07598 0.0
C393 C 0.33083 0.12171 0.0578 0.0
C394 C 0.32119 0.14026 0.04878 0.0
C395 C 0.32176 0.18064 0.06179 0.0
H396 H 0.32207 0.18775 0.07877 0.0
H397 H 0.33345 0.19 0.05129 0.0
H398 H 0.30498 0.18226 0.0547 0.0
O399 O 0.34397 0.15246 0.13077 0.0
O400 O 0.34312 0.11634 0.12826 0.0
H401 H 0.3167 0.08959 0.05713 0.0
H402 H 0.3264 0.09904 0.0305 0.0
C403 C 0.3299 0.09894 0.04864 0.0
H404 H 0.34577 0.09064 0.05159 0.0
H405 H 0.31731 0.07835 0.09843 0.0
O406 O 0.35592 0.1943 0.10365 0.0
C407 C 0.33964 0.13387 0.13908 0.0
Co408 Co 0.14819 0.88232 0.15177 0.0
Co409 Co 0.0985 0.87377 0.16235 0.0
C410 C 0.1151 0.88516 0.11627 0.0
O411 O 0.13481 0.88906 0.12247 0.0
O412 O 0.10053 0.87898 0.13005 0.0
C413 C 0.18855 0.87506 0.13384 0.0
O414 O 0.17502 0.86505 0.11999 0.0
C415 C 0.05158 0.88173 0.15856 0.0
C416 C 0.03792 0.85631 0.18071 0.0
C417 C 0.03207 0.87181 0.16505 0.0
N418 N 0.06818 0.87234 0.1697 0.0
N419 N 0.05988 0.85752 0.18331 0.0
C420 C 0.05486 0.89736 0.13973 0.0
H421 H 0.07074 0.90624 0.1417 0.0
H422 H 0.0414 0.90939 0.13892 0.0
H423 H 0.05496 0.88812 0.12382 0.0
C424 C 0.14232 0.91494 0.18825 0.0
N425 N 0.13492 0.8987 0.17493 0.0
N426 N 0.11391 0.89523 0.17897 0.0
C427 C 0.10724 0.90916 0.19485 0.0
C428 C 0.12497 0.92216 0.20125 0.0
C429 C 0.16522 0.924 0.18758 0.0
H430 H 0.17083 0.92515 0.17007 0.0
H431 H 0.16626 0.94031 0.19565 0.0
H432 H 0.17636 0.91264 0.19642 0.0
O433 O 0.14438 0.85044 0.15579 0.0
O434 O 0.11023 0.8444 0.16684 0.0
H435 H 0.08317 0.92029 0.2188 0.0
H436 H 0.07297 0.91551 0.19085 0.0
C437 C 0.08437 0.9096 0.20394 0.0
H438 H 0.07917 0.8928 0.20852 0.0
H439 H 0.06933 0.84715 0.19315 0.0
O440 O 0.18051 0.88594 0.1499 0.0
C441 C 0.12916 0.83739 0.16175 0.0
Co442 Co 0.34181 0.85394 0.38778 0.0
Co443 Co 0.34503 0.90476 0.38691 0.0
C444 C 0.3845 0.87578 0.39532 0.0
O445 O 0.37339 0.85803 0.39509 0.0
O446 O 0.37527 0.89415 0.39241 0.0
C447 C 0.34403 0.80727 0.39627 0.0
O448 O 0.35831 0.81182 0.41211 0.0
C449 C 0.35978 0.94818 0.40086 0.0
C450 C 0.34388 0.96837 0.37512 0.0
C451 C 0.35933 0.96903 0.3921 0.0
N452 N 0.34552 0.93562 0.38929 0.0
N453 N 0.33557 0.94796 0.37439 0.0
C454 C 0.3756 0.93981 0.41784 0.0
H455 H 0.39244 0.94015 0.41084 0.0
H456 H 0.3711 0.92299 0.42303 0.0
H457 H 0.37564 0.95069 0.43263 0.0
C458 C 0.30855 0.86425 0.42271 0.0
N459 N 0.32322 0.87017 0.40705 0.0
N460 N 0.32445 0.89163 0.40635 0.0
C461 C 0.31052 0.90009 0.42137 0.0
C462 C 0.29997 0.88303 0.43238 0.0
C463 C 0.30405 0.84106 0.42917 0.0
H464 H 0.31956 0.83169 0.42895 0.0
H465 H 0.29662 0.83997 0.44596 0.0
H466 H 0.29263 0.83357 0.41682 0.0
O467 O 0.3387 0.86255 0.35634 0.0
O468 O 0.33858 0.89859 0.35535 0.0
H469 H 0.3057 0.93207 0.40795 0.0
H470 H 0.29178 0.92741 0.43396 0.0
C471 C 0.30696 0.92407 0.42443 0.0
H472 H 0.32132 0.93129 0.43333 0.0
H473 H 0.32449 0.94202 0.36247 0.0
O474 O 0.33447 0.82263 0.38608 0.0
C475 C 0.33763 0.88026 0.34547 0.0
Co476 Co 0.40122 0.11241 0.64391 0.0
Co477 Co 0.34961 0.10789 0.6476 0.0
C478 C 0.37328 0.15141 0.65017 0.0
O479 O 0.39231 0.14294 0.64943 0.0
O480 O 0.35593 0.1396 0.64982 0.0
C481 C 0.44173 0.12549 0.62811 0.0
O482 O 0.42842 0.13959 0.61875 0.0
C483 C 0.30395 0.11687 0.66078 0.0
C484 C 0.28654 0.08737 0.64863 0.0
C485 C 0.28322 0.10763 0.65825 0.0
N486 N 0.31891 0.10285 0.6528 0.0
N487 N 0.30836 0.08516 0.6457 0.0
C488 C 0.30935 0.13874 0.67058 0.0
H489 H 0.32543 0.13826 0.67933 0.0
H490 H 0.29638 0.1439 0.68238 0.0
H491 H 0.31029 0.15091 0.65702 0.0
C492 C 0.39899 0.07874 0.67916 0.0
N493 N 0.38936 0.09282 0.66507 0.0
N494 N 0.36784 0.09111 0.66696 0.0
C495 C 0.36312 0.07605 0.6826 0.0
C496 C 0.38271 0.06762 0.69079 0.0
C497 C 0.42333 0.07609 0.6813 0.0
H498 H 0.43143 0.0924 0.68181 0.0
H499 H 0.42774 0.06678 0.69647 0.0
H500 H 0.42951 0.06733 0.66643 0.0
O501 O 0.39075 0.10535 0.61385 0.0
O502 O 0.35461 0.10095 0.61586 0.0
H503 H 0.33989 0.05756 0.70268 0.0
H504 H 0.32994 0.08316 0.69171 0.0
C505 C 0.34026 0.06872 0.68821 0.0
H506 H 0.3331 0.05996 0.67369 0.0
H507 H 0.31597 0.07194 0.63803 0.0
O508 O 0.43374 0.11143 0.64147 0.0
C509 C 0.37228 0.10151 0.60461 0.0
Co510 Co 0.15877 0.15725 0.88431 0.0
Co511 Co 0.14986 0.11046 0.90179 0.0
C512 C 0.11449 0.14214 0.90305 0.0
O513 O 0.12712 0.15597 0.89352 0.0
O514 O 0.12157 0.1236 0.90916 0.0
C515 C 0.16488 0.20419 0.88745 0.0
O516 O 0.16137 0.20239 0.90892 0.0
C517 C 0.13389 0.06722 0.91417 0.0
C518 C 0.1645 0.04808 0.91393 0.0
C519 C 0.14191 0.04621 0.91606 0.0
N520 N 0.15097 0.08091 0.91108 0.0
N521 N 0.16924 0.06937 0.911 0.0
C522 C 0.11039 0.07423 0.91445 0.0
H523 H 0.10843 0.08722 0.92715 0.0
H524 H 0.09908 0.06051 0.91855 0.0
H525 H 0.10595 0.08117 0.89801 0.0
C526 C 0.19665 0.15419 0.91589 0.0
N527 N 0.17838 0.14618 0.90589 0.0
N528 N 0.17354 0.12699 0.91441 0.0
C529 C 0.18766 0.12281 0.93116 0.0
C530 C 0.20315 0.13967 0.93237 0.0
C531 C 0.20842 0.17452 0.90869 0.0
H532 H 0.20502 0.17787 0.89089 0.0
H533 H 0.20264 0.18853 0.91876 0.0
H534 H 0.22643 0.17295 0.91125 0.0
O535 O 0.16069 0.14094 0.85683 0.0
O536 O 0.15013 0.10836 0.86854 0.0
H537 H 0.19492 0.09065 0.94296 0.0
H538 H 0.18958 0.11018 0.96454 0.0
C539 C 0.18454 0.10472 0.94762 0.0
H540 H 0.16709 0.09933 0.948 0.0
H541 H 0.18478 0.07583 0.90752 0.0
O542 O 0.16521 0.18727 0.87529 0.0
C543 C 0.15496 0.12138 0.8528 0.0
Co544 Co 0.86057 0.35642 0.90094 0.0
Co545 Co 0.85711 0.40706 0.89785 0.0
C546 C 0.9004 0.38392 0.90492 0.0
O547 O 0.89133 0.36525 0.90704 0.0
O548 O 0.88899 0.40084 0.90112 0.0
C549 C 0.87341 0.31638 0.88828 0.0
O550 O 0.88788 0.32978 0.8794 0.0
C551 C 0.86759 0.45205 0.90954 0.0
C552 C 0.84719 0.46972 0.88516 0.0
C553 C 0.86403 0.47251 0.90054 0.0
N554 N 0.85382 0.43776 0.89957 0.0
N555 N 0.84119 0.44854 0.88551 0.0
C556 C 0.88597 0.44565 0.92473 0.0
H557 H 0.88289 0.42919 0.93179 0.0
H558 H 0.88769 0.4576 0.93853 0.0
H559 H 0.90162 0.44572 0.91533 0.0
C560 C 0.82645 0.36345 0.93578 0.0
N561 N 0.84066 0.37067 0.92026 0.0
N562 N 0.83938 0.39208 0.91896 0.0
C563 C 0.82423 0.39919 0.9335 0.0
C564 C 0.81553 0.38129 0.94477 0.0
C565 C 0.82384 0.33996 0.94211 0.0
H566 H 0.83981 0.33147 0.94062 0.0
H567 H 0.81756 0.33835 0.95935 0.0
H568 H 0.81197 0.33199 0.93052 0.0
O569 O 0.85455 0.3633 0.86942 0.0
O570 O 0.84935 0.39889 0.86702 0.0
H571 H 0.81422 0.42905 0.91825 0.0
H572 H 0.80197 0.4243 0.94506 0.0
C573 C 0.81719 0.4225 0.93517 0.0
H574 H 0.83062 0.43232 0.94292 0.0
H575 H 0.82983 0.44113 0.87477 0.0
O576 O 0.85873 0.3242 0.90099 0.0
C577 C 0.85031 0.38015 0.85797 0.0
Co578 Co 0.90535 0.61031 0.14525 0.0
Co579 Co 0.85357 0.60763 0.14727 0.0
C580 C 0.87813 0.64933 0.1565 0.0
O581 O 0.89676 0.64041 0.1536 0.0
O582 O 0.86031 0.63829 0.15529 0.0
C583 C 0.94621 0.62331 0.13153 0.0
O584 O 0.93314 0.63791 0.12266 0.0
C585 C 0.80667 0.61618 0.15514 0.0
C586 C 0.7913 0.58786 0.13811 0.0
C587 C 0.78656 0.60754 0.14834 0.0
N588 N 0.82258 0.60221 0.14917 0.0
N589 N 0.81321 0.58517 0.13931 0.0
C590 C 0.81106 0.6388 0.16361 0.0
H591 H 0.81781 0.64882 0.14984 0.0
H592 H 0.82347 0.63824 0.17718 0.0
H593 H 0.79598 0.64673 0.16982 0.0
C594 C 0.90066 0.57364 0.1771 0.0
N595 N 0.89204 0.58892 0.16365 0.0
N596 N 0.87042 0.58788 0.16473 0.0
C597 C 0.86461 0.57209 0.17921 0.0
C598 C 0.88359 0.56246 0.18745 0.0
C599 C 0.92481 0.57052 0.18046 0.0
H600 H 0.93297 0.58664 0.18292 0.0
H601 H 0.92826 0.55989 0.19497 0.0
H602 H 0.93182 0.56303 0.16526 0.0
O603 O 0.89643 0.60671 0.11411 0.0
O604 O 0.86008 0.6055 0.1151 0.0
H605 H 0.83381 0.55819 0.16933 0.0
H606 H 0.84009 0.55422 0.19826 0.0
C607 C 0.8413 0.56592 0.18428 0.0
H608 H 0.8318 0.58081 0.18824 0.0
H609 H 0.8219 0.57242 0.132 0.0
O610 O 0.9379 0.60874 0.14411 0.0
C611 C 0.87796 0.60575 0.10422 0.0
Co612 Co 0.64664 0.65595 0.3951 0.0
Co613 Co 0.64787 0.60502 0.39899 0.0
C614 C 0.6057 0.63016 0.40343 0.0
O615 O 0.61571 0.64843 0.40172 0.0
O616 O 0.61618 0.61222 0.40304 0.0
C617 C 0.63622 0.69463 0.37708 0.0
O618 O 0.62197 0.6808 0.36829 0.0
C619 C 0.63753 0.55866 0.4056 0.0
C620 C 0.66841 0.5436 0.39428 0.0
C621 C 0.64702 0.53878 0.40044 0.0
N622 N 0.65268 0.57451 0.40262 0.0
N623 N 0.67121 0.56533 0.39625 0.0
C624 C 0.61359 0.56294 0.40882 0.0
H625 H 0.60678 0.56956 0.3931 0.0
H626 H 0.61145 0.57524 0.4222 0.0
H627 H 0.60427 0.54794 0.41315 0.0
C628 C 0.68135 0.6528 0.4294 0.0
N629 N 0.66638 0.64366 0.41563 0.0
N630 N 0.66676 0.62227 0.41782 0.0
C631 C 0.68182 0.61715 0.43347 0.0
C632 C 0.6917 0.63634 0.44118 0.0
C633 C 0.68529 0.67689 0.43133 0.0
H634 H 0.66932 0.68548 0.43183 0.0
H635 H 0.69502 0.68106 0.44645 0.0
H636 H 0.69429 0.68263 0.41639 0.0
O637 O 0.65223 0.64572 0.36489 0.0
O638 O 0.65356 0.60978 0.36694 0.0
H639 H 0.69824 0.58721 0.42689 0.0
H640 H 0.69655 0.59363 0.4559 0.0
C641 C 0.68753 0.59427 0.43988 0.0
H642 H 0.67237 0.58415 0.44106 0.0
H643 H 0.68518 0.57405 0.39133 0.0
O644 O 0.64944 0.68782 0.39192 0.0
C645 C 0.65419 0.62725 0.3556 0.0
Co646 Co 0.89904 0.38297 0.32986 0.0
Co647 Co 0.85197 0.39858 0.34169 0.0
C648 C 0.86262 0.35174 0.32843 0.0
O649 O 0.88241 0.35586 0.32291 0.0
O650 O 0.85032 0.36666 0.33609 0.0
C651 C 0.93802 0.36164 0.33492 0.0
O652 O 0.92392 0.34735 0.34296 0.0
C653 C 0.80465 0.39914 0.33597 0.0
C654 C 0.79467 0.42107 0.36326 0.0
C655 C 0.78649 0.4065 0.34753 0.0
N656 N 0.82271 0.40864 0.34472 0.0
N657 N 0.81661 0.42223 0.3606 0.0
C658 C 0.80526 0.38093 0.31931 0.0
H659 H 0.80356 0.36508 0.32806 0.0
H660 H 0.82098 0.38134 0.31001 0.0
H661 H 0.79151 0.38225 0.30727 0.0
C662 C 0.89644 0.42141 0.29948 0.0
N663 N 0.8878 0.40766 0.31466 0.0
N664 N 0.8677 0.41386 0.31937 0.0
C665 C 0.86277 0.43162 0.30724 0.0
C666 C 0.88087 0.43714 0.29427 0.0
C667 C 0.91962 0.42016 0.29136 0.0
H668 H 0.93082 0.41665 0.30549 0.0
H669 H 0.92089 0.40651 0.27926 0.0
H670 H 0.92493 0.43558 0.28325 0.0
O671 O 0.8978 0.3868 0.3625 0.0
O672 O 0.86604 0.40186 0.37112 0.0
H673 H 0.83868 0.45086 0.32384 0.0
H674 H 0.83896 0.4544 0.29391 0.0
C675 C 0.8408 0.44246 0.30762 0.0
H676 H 0.82763 0.4299 0.306 0.0
H677 H 0.82754 0.43088 0.37084 0.0
O678 O 0.93068 0.37854 0.32524 0.0
C679 C 0.88472 0.39457 0.37685 0.0
Co680 Co 0.59775 0.59022 0.84819 0.0
Co681 Co 0.64683 0.5808 0.86008 0.0
C682 C 0.63128 0.62553 0.8463 0.0
O683 O 0.61186 0.61871 0.84213 0.0
O684 O 0.646 0.61265 0.8535 0.0
C685 C 0.55787 0.6086 0.8527 0.0
O686 O 0.57145 0.62276 0.862 0.0
C687 C 0.6945 0.58267 0.85622 0.0
C688 C 0.70466 0.5604 0.88318 0.0
C689 C 0.71268 0.5754 0.86795 0.0
N690 N 0.67656 0.57257 0.86431 0.0
N691 N 0.68278 0.55888 0.88004 0.0
C692 C 0.69366 0.60115 0.84 0.0
H693 H 0.69401 0.61685 0.84927 0.0
H694 H 0.6784 0.60013 0.82987 0.0
H695 H 0.70801 0.60093 0.82873 0.0
C696 C 0.60527 0.55332 0.81701 0.0
N697 N 0.612 0.56748 0.83285 0.0
N698 N 0.6327 0.56363 0.83784 0.0
C699 C 0.63979 0.54679 0.82545 0.0
C700 C 0.62266 0.53969 0.81185 0.0
C701 C 0.58237 0.55246 0.80784 0.0
H702 H 0.57042 0.55269 0.82174 0.0
H703 H 0.57951 0.56724 0.79762 0.0
H704 H 0.57952 0.53765 0.7975 0.0
O705 O 0.59861 0.58563 0.88059 0.0
O706 O 0.63279 0.57699 0.8892 0.0
H707 H 0.66596 0.53114 0.84288 0.0
H708 H 0.66558 0.52565 0.81326 0.0
C709 C 0.66276 0.53823 0.82622 0.0
H710 H 0.67456 0.55192 0.82374 0.0
H711 H 0.67193 0.54965 0.88969 0.0
O712 O 0.56584 0.59221 0.84258 0.0
C713 C 0.61303 0.58041 0.89489 0.0
Co714 Co 0.89946 0.65699 0.90657 0.0
Co715 Co 0.90468 0.64896 0.85547 0.0
C716 C 0.86079 0.64655 0.87763 0.0
O717 O 0.86866 0.65214 0.89646 0.0
O718 O 0.87306 0.64472 0.86069 0.0
C719 C 0.88145 0.66414 0.94964 0.0
O720 O 0.86287 0.66613 0.93866 0.0
C721 C 0.89432 0.65341 0.80864 0.0
C722 C 0.92426 0.64134 0.79215 0.0
C723 C 0.90334 0.64916 0.78811 0.0
N724 N 0.90908 0.64817 0.82433 0.0
N725 N 0.92701 0.641 0.81441 0.0
C726 C 0.87251 0.66357 0.81316 0.0
H727 H 0.87308 0.67296 0.82897 0.0
H728 H 0.86771 0.67455 0.79933 0.0
H729 H 0.85987 0.6505 0.81447 0.0
C730 C 0.92542 0.69688 0.89492 0.0
N731 N 0.91421 0.67851 0.88952 0.0
N732 N 0.9154 0.6754 0.86789 0.0
C733 C 0.92684 0.69194 0.85873 0.0
C734 C 0.9339 0.70596 0.87553 0.0
C735 C 0.9296 0.70421 0.91834 0.0
H736 H 0.93174 0.68983 0.9293 0.0
H737 H 0.91514 0.71343 0.9243 0.0
H738 H 0.94441 0.71488 0.91952 0.0
O739 O 0.91414 0.62857 0.90417 0.0
O740 O 0.91951 0.62332 0.86815 0.0
H741 H 0.94291 0.68218 0.82877 0.0
H742 H 0.93671 0.71101 0.83003 0.0
C743 C 0.93068 0.69438 0.83426 0.0
H744 H 0.91511 0.69136 0.8251 0.0
H745 H 0.94099 0.63565 0.82284 0.0
O746 O 0.89935 0.66288 0.93889 0.0
C747 C 0.9212 0.61696 0.88821 0.0
Co748 Co 0.08241 0.13946 0.66419 0.0
Co749 Co 0.09358 0.15231 0.61541 0.0
C750 C 0.08378 0.10561 0.63043 0.0
O751 O 0.07736 0.11103 0.64973 0.0
O752 O 0.0908 0.11989 0.61681 0.0
C753 C 0.08134 0.11837 0.70569 0.0
O754 O 0.08302 0.10093 0.69307 0.0
C755 C 0.08581 0.14676 0.56836 0.0
C756 C 0.10698 0.17197 0.5531 0.0
C757 C 0.09353 0.1542 0.54819 0.0
N758 N 0.09447 0.15923 0.58462 0.0
N759 N 0.10685 0.17456 0.5754 0.0
C760 C 0.07066 0.12772 0.57207 0.0
H761 H 0.06077 0.13033 0.58731 0.0
H762 H 0.05956 0.12534 0.55754 0.0
H763 H 0.08049 0.11269 0.57413 0.0
C764 C 0.04889 0.17412 0.65796 0.0
N765 N 0.06556 0.16168 0.6507 0.0
N766 N 0.07036 0.16716 0.63012 0.0
C767 C 0.05705 0.18349 0.62369 0.0
C768 C 0.04297 0.18847 0.64111 0.0
C769 C 0.03954 0.1727 0.68089 0.0
H770 H 0.05297 0.17488 0.69327 0.0
H771 H 0.03239 0.15614 0.6834 0.0
H772 H 0.02675 0.1852 0.68375 0.0
O773 O 0.11444 0.14571 0.66216 0.0
O774 O 0.12247 0.15913 0.62895 0.0
H775 H 0.07393 0.20103 0.59816 0.0
H776 H 0.04465 0.20618 0.59906 0.0
C777 C 0.05749 0.19358 0.60105 0.0
H778 H 0.05488 0.18066 0.58831 0.0
H779 H 0.11612 0.18603 0.58437 0.0
O780 O 0.07791 0.13679 0.69659 0.0
C781 C 0.12833 0.15353 0.64847 0.0
Co782 Co 0.59135 0.35564 0.335 0.0
Co783 Co 0.5969 0.34867 0.38652 0.0
C784 C 0.58644 0.39242 0.36757 0.0
O785 O 0.58596 0.38505 0.34775 0.0
O786 O 0.59018 0.37997 0.38403 0.0
C787 C 0.58889 0.37482 0.29237 0.0
O788 O 0.58747 0.3928 0.3042 0.0
C789 C 0.5961 0.35372 0.43485 0.0
C790 C 0.60686 0.32133 0.44653 0.0
C791 C 0.6013 0.34203 0.45371 0.0
N792 N 0.59861 0.34067 0.41708 0.0
N793 N 0.60503 0.32129 0.42416 0.0
C794 C 0.58856 0.37687 0.43379 0.0
H795 H 0.57385 0.37784 0.42288 0.0
H796 H 0.58429 0.3833 0.45048 0.0
H797 H 0.60186 0.38714 0.42661 0.0
C798 C 0.55782 0.32052 0.34153 0.0
N799 N 0.57384 0.334 0.34908 0.0
N800 N 0.5758 0.33163 0.37077 0.0
C801 C 0.56076 0.31699 0.3778 0.0
C802 C 0.54906 0.30921 0.35951 0.0
C803 C 0.55132 0.31849 0.31758 0.0
H804 H 0.56617 0.31928 0.30694 0.0
H805 H 0.54063 0.33242 0.3131 0.0
H806 H 0.54229 0.30297 0.31434 0.0
O807 O 0.6229 0.35012 0.33891 0.0
O808 O 0.62697 0.34494 0.37508 0.0
H809 H 0.56758 0.29973 0.40788 0.0
H810 H 0.53898 0.30622 0.40406 0.0
C811 C 0.55606 0.31233 0.40178 0.0
H812 H 0.55831 0.32737 0.41187 0.0
H813 H 0.60868 0.3082 0.41369 0.0
O814 O 0.58811 0.35646 0.3022 0.0
C815 C 0.63505 0.34644 0.35568 0.0
Co816 Co 0.39244 0.85496 0.14578 0.0
Co817 Co 0.38895 0.84297 0.09527 0.0
C818 C 0.39813 0.8891 0.11206 0.0
O819 O 0.40006 0.8836 0.13238 0.0
O820 O 0.39367 0.87499 0.0971 0.0
C821 C 0.38142 0.87346 0.18575 0.0
O822 O 0.37255 0.88698 0.17141 0.0
C823 C 0.39995 0.84687 0.0483 0.0
C824 C 0.38237 0.81879 0.03323 0.0
C825 C 0.39458 0.8373 0.02812 0.0
N826 N 0.39104 0.83487 0.06468 0.0
N827 N 0.38081 0.81789 0.05559 0.0
C828 C 0.41359 0.86705 0.05185 0.0
H829 H 0.42306 0.86579 0.0676 0.0
H830 H 0.42508 0.8696 0.03777 0.0
H831 H 0.40264 0.88137 0.05286 0.0
C832 C 0.42444 0.81828 0.14481 0.0
N833 N 0.41019 0.83193 0.13485 0.0
N834 N 0.40906 0.82721 0.1135 0.0
C835 C 0.42283 0.81061 0.10911 0.0
C836 C 0.43299 0.80422 0.12884 0.0
C837 C 0.42864 0.818 0.16936 0.0
H838 H 0.41302 0.82046 0.17843 0.0
H839 H 0.43996 0.83168 0.17375 0.0
H840 H 0.43605 0.80237 0.17474 0.0
O841 O 0.36105 0.84953 0.13927 0.0
O842 O 0.35798 0.83821 0.10437 0.0
H843 H 0.41262 0.79168 0.08093 0.0
H844 H 0.44204 0.79193 0.08557 0.0
C845 C 0.4269 0.80187 0.08622 0.0
H846 H 0.42861 0.81561 0.07435 0.0
H847 H 0.37195 0.80623 0.06457 0.0
O848 O 0.393 0.8578 0.17848 0.0
C849 C 0.34931 0.843 0.12298 0.0
Co850 Co 0.89033 0.3565 0.6536 0.0
Co851 Co 0.88924 0.35011 0.60177 0.0
C852 C 0.89794 0.39412 0.62331 0.0
O853 O 0.89729 0.38623 0.64287 0.0
O854 O 0.89526 0.38196 0.60626 0.0
C855 C 0.87873 0.37156 0.69464 0.0
O856 O 0.86862 0.38499 0.68108 0.0
C857 C 0.89795 0.3564 0.55415 0.0
C858 C 0.8843 0.32611 0.5394 0.0
C859 C 0.89365 0.34611 0.53406 0.0
N860 N 0.8912 0.34329 0.57073 0.0
N861 N 0.8832 0.32511 0.56177 0.0
C862 C 0.90816 0.37846 0.55744 0.0
H863 H 0.89486 0.39042 0.56021 0.0
H864 H 0.9192 0.37835 0.57217 0.0
H865 H 0.91771 0.38352 0.5426 0.0
C866 C 0.92298 0.32092 0.65012 0.0
N867 N 0.90889 0.33518 0.64091 0.0
N868 N 0.90851 0.33235 0.61918 0.0
C869 C 0.92245 0.31611 0.61391 0.0
C870 C 0.93201 0.30826 0.63332 0.0
C871 C 0.92661 0.3188 0.67465 0.0
H872 H 0.91051 0.31681 0.68306 0.0
H873 H 0.93432 0.33408 0.68108 0.0
H874 H 0.93723 0.30472 0.67875 0.0
O875 O 0.85926 0.35069 0.64635 0.0
O876 O 0.85788 0.34538 0.60992 0.0
H877 H 0.91316 0.29824 0.58478 0.0
H878 H 0.94239 0.29899 0.5899 0.0
C879 C 0.92704 0.30862 0.59069 0.0
H880 H 0.92856 0.32292 0.5795 0.0
H881 H 0.87627 0.31233 0.57091 0.0
O882 O 0.89105 0.35693 0.68644 0.0
C883 C 0.84836 0.34679 0.62869 0.0
Co884 Co 0.39358 0.15061 0.40725 0.0
Co885 Co 0.39949 0.14165 0.35648 0.0
C886 C 0.35543 0.13861 0.37873 0.0
O887 O 0.36306 0.14484 0.39743 0.0
O888 O 0.36785 0.13663 0.36193 0.0
C889 C 0.37548 0.15791 0.45009 0.0
O890 O 0.35696 0.15997 0.43902 0.0
C891 C 0.38859 0.14679 0.31 0.0
C892 C 0.4115 0.12377 0.29408 0.0
C893 C 0.39333 0.13668 0.28996 0.0
N894 N 0.40306 0.13986 0.3253 0.0
N895 N 0.41705 0.12651 0.3156 0.0
C896 C 0.36883 0.16018 0.31541 0.0
H897 H 0.35371 0.15009 0.3132 0.0
H898 H 0.36979 0.16648 0.3327 0.0
H899 H 0.36775 0.1743 0.30399 0.0
C900 C 0.41824 0.19085 0.39505 0.0
N901 N 0.40751 0.17224 0.38973 0.0
N902 N 0.40975 0.1685 0.36829 0.0
C903 C 0.42199 0.18456 0.35925 0.0
C904 C 0.42779 0.19931 0.37592 0.0
C905 C 0.42036 0.19947 0.41828 0.0
H906 H 0.40427 0.19817 0.42683 0.0
H907 H 0.4261 0.21674 0.41838 0.0
H908 H 0.4323 0.18935 0.42759 0.0
O909 O 0.40917 0.12252 0.40544 0.0
O910 O 0.4152 0.11689 0.3696 0.0
H911 H 0.4376 0.16766 0.33249 0.0
H912 H 0.44301 0.19668 0.33273 0.0
C913 C 0.43039 0.18391 0.33587 0.0
H914 H 0.41642 0.18615 0.32419 0.0
H915 H 0.42932 0.11801 0.32403 0.0
O916 O 0.39346 0.15693 0.43945 0.0
C917 C 0.41691 0.11094 0.38978 0.0
Co918 Co 0.59178 0.64184 0.15793 0.0
Co919 Co 0.59425 0.64989 0.10684 0.0
C920 C 0.59103 0.60454 0.12605 0.0
O921 O 0.58887 0.61181 0.14577 0.0
O922 O 0.59314 0.61751 0.10967 0.0
C923 C 0.60351 0.6254 0.19811 0.0
O924 O 0.61332 0.6124 0.18392 0.0
C925 C 0.58351 0.64429 0.06002 0.0
C926 C 0.60581 0.66852 0.04471 0.0
C927 C 0.59184 0.65113 0.03979 0.0
N928 N 0.59245 0.65676 0.07615 0.0
N929 N 0.60522 0.67169 0.06684 0.0
C930 C 0.57008 0.62414 0.06422 0.0
H931 H 0.58071 0.6096 0.06265 0.0
H932 H 0.56277 0.62465 0.08109 0.0
H933 H 0.55671 0.6226 0.05171 0.0
C934 C 0.55504 0.67378 0.15358 0.0
N935 N 0.57117 0.66132 0.14513 0.0
N936 N 0.57212 0.66435 0.12348 0.0
C937 C 0.55658 0.67874 0.11744 0.0
C938 C 0.54516 0.68523 0.1363 0.0
C939 C 0.54916 0.67446 0.1777 0.0
H940 H 0.56096 0.68537 0.18656 0.0
H941 H 0.55051 0.6579 0.185 0.0
H942 H 0.53226 0.68073 0.18011 0.0
O943 O 0.62235 0.6513 0.15235 0.0
O944 O 0.62429 0.65845 0.11638 0.0
H945 H 0.57004 0.69329 0.08814 0.0
H946 H 0.5419 0.70066 0.09328 0.0
C947 C 0.55393 0.6872 0.09424 0.0
H948 H 0.54852 0.67363 0.08316 0.0
H949 H 0.61499 0.68279 0.07573 0.0
O950 O 0.59086 0.64017 0.19067 0.0
C951 C 0.63332 0.65723 0.13545 0.0
Co952 Co 0.09778 0.86371 0.84306 0.0
Co953 Co 0.10528 0.84801 0.89212 0.0
C954 C 0.09792 0.89542 0.87964 0.0
O955 O 0.09417 0.89171 0.85911 0.0
O956 O 0.10274 0.88008 0.89297 0.0
C957 C 0.10699 0.88355 0.8033 0.0
O958 O 0.11691 0.89651 0.81771 0.0
C959 C 0.09607 0.84891 0.93943 0.0
C960 C 0.1161 0.82187 0.9524 0.0
C961 C 0.10287 0.83902 0.95886 0.0
N962 N 0.10502 0.83835 0.92216 0.0
N963 N 0.11675 0.82196 0.92998 0.0
C964 C 0.08129 0.86821 0.93742 0.0
H965 H 0.07235 0.86775 0.92128 0.0
H966 H 0.06934 0.86848 0.95133 0.0
H967 H 0.0913 0.88339 0.93833 0.0
C968 C 0.06054 0.83213 0.8466 0.0
N969 N 0.07866 0.84214 0.85476 0.0
N970 N 0.08196 0.83562 0.87536 0.0
C971 C 0.06607 0.8213 0.881 0.0
C972 C 0.05189 0.81874 0.86305 0.0
C973 C 0.05123 0.83624 0.82394 0.0
H974 H 0.05315 0.85377 0.81965 0.0
H975 H 0.03362 0.83138 0.823 0.0
H976 H 0.06057 0.82659 0.81158 0.0
O977 O 0.12874 0.85506 0.84605 0.0
O978 O 0.13429 0.84136 0.8796 0.0
H979 H 0.08146 0.80345 0.90727 0.0
H980 H 0.05302 0.7961 0.90273 0.0
C981 C 0.065 0.80987 0.90296 0.0
H982 H 0.06023 0.82174 0.91602 0.0
H983 H 0.12601 0.8115 0.92008 0.0
O984 O 0.095 0.86799 0.81056 0.0
C985 C 0.14131 0.8464 0.86039 0.0
Co986 Co 0.9138 0.89958 0.65639 0.0
Co987 Co 0.86404 0.90703 0.64617 0.0
C988 C 0.8828 0.862 0.65238 0.0
O989 O 0.9016 0.86955 0.6579 0.0
O990 O 0.86712 0.87469 0.6473 0.0
C991 C 0.95602 0.88123 0.65979 0.0
O992 O 0.94462 0.86293 0.65917 0.0
C993 C 0.81683 0.90096 0.65054 0.0
C994 C 0.80427 0.92539 0.62678 0.0
C995 C 0.79785 0.90814 0.6402 0.0
N996 N 0.83372 0.91332 0.64342 0.0
N997 N 0.82606 0.92822 0.62962 0.0
C998 C 0.81952 0.8807 0.66413 0.0
H999 H 0.82092 0.86644 0.6528 0.0
H1000 H 0.83462 0.88194 0.6745 0.0
H1001 H 0.80513 0.87796 0.67504 0.0
C1002 C 0.90433 0.93271 0.69146 0.0
N1003 N 0.89815 0.91917 0.67484 0.0
N1004 N 0.87708 0.92188 0.67071 0.0
C1005 C 0.86917 0.93726 0.6845 0.0
C1006 C 0.88617 0.94466 0.69821 0.0
C1007 C 0.92732 0.93441 0.70028 0.0
H1008 H 0.93727 0.94465 0.68883 0.0
H1009 H 0.9348 0.91796 0.70091 0.0
H1010 H 0.92767 0.94193 0.7171 0.0
O1011 O 0.91223 0.90822 0.62478 0.0
O1012 O 0.87745 0.91621 0.61806 0.0
H1013 H 0.84356 0.95171 0.66522 0.0
H1014 H 0.8439 0.96051 0.69378 0.0
C1015 C 0.84647 0.94637 0.68259 0.0
H1016 H 0.83427 0.93335 0.68647 0.0
H1017 H 0.83592 0.93932 0.62096 0.0
O1018 O 0.94593 0.89923 0.66183 0.0
C1019 C 0.89723 0.91459 0.61159 0.0
Co1020 Co 0.85606 0.08767 0.39266 0.0
Co1021 Co 0.85665 0.13901 0.39541 0.0
C1022 C 0.85378 0.11412 0.35179 0.0
O1023 O 0.85197 0.09547 0.36095 0.0
O1024 O 0.85567 0.13147 0.36339 0.0
C1025 C 0.87147 0.04762 0.38162 0.0
O1026 O 0.88192 0.06125 0.36843 0.0
C1027 C 0.84366 0.18324 0.38286 0.0
C1028 C 0.85855 0.20324 0.40967 0.0
C1029 C 0.84714 0.20458 0.38974 0.0
N1030 N 0.85276 0.16981 0.3979 0.0
N1031 N 0.86151 0.18189 0.41398 0.0
C1032 C 0.83176 0.17576 0.36236 0.0
H1033 H 0.82352 0.1598 0.36537 0.0
H1034 H 0.81941 0.18799 0.35713 0.0
H1035 H 0.84375 0.17379 0.34869 0.0
C1036 C 0.81862 0.09402 0.42419 0.0
N1037 N 0.835 0.10159 0.41118 0.0
N1038 N 0.83539 0.12309 0.4122 0.0
C1039 C 0.81935 0.12987 0.42591 0.0
C1040 C 0.80805 0.11171 0.43395 0.0
C1041 C 0.81288 0.07035 0.42665 0.0
H1042 H 0.81621 0.06151 0.4109 0.0
H1043 H 0.79536 0.06815 0.43133 0.0
H1044 H 0.82334 0.06323 0.4399 0.0
O1045 O 0.8864 0.09691 0.40011 0.0
O1046 O 0.88713 0.1328 0.40459 0.0
H1047 H 0.80373 0.15517 0.44564 0.0
H1048 H 0.81083 0.16263 0.41741 0.0
C1049 C 0.81606 0.15327 0.43228 0.0
H1050 H 0.83187 0.16026 0.43828 0.0
H1051 H 0.87017 0.17557 0.42751 0.0
O1052 O 0.85709 0.05522 0.39485 0.0
C1053 C 0.89689 0.11452 0.40423 0.0
Co1054 Co 0.59684 0.10474 0.15294 0.0
Co1055 Co 0.64581 0.09211 0.14682 0.0
C1056 C 0.63106 0.13869 0.15533 0.0
O1057 O 0.6111 0.13338 0.15881 0.0
O1058 O 0.64523 0.12435 0.15035 0.0
C1059 C 0.55717 0.12423 0.14551 0.0
O1060 O 0.57098 0.13752 0.13546 0.0
C1061 C 0.69179 0.0944 0.15853 0.0
C1062 C 0.70661 0.07291 0.13329 0.0
C1063 C 0.71172 0.088 0.14981 0.0
N1064 N 0.67566 0.08381 0.14754 0.0
N1065 N 0.6846 0.07046 0.13292 0.0
C1066 C 0.68798 0.1128 0.17444 0.0
H1067 H 0.68934 0.12855 0.16542 0.0
H1068 H 0.67138 0.11136 0.18193 0.0
H1069 H 0.70055 0.11282 0.18786 0.0
C1070 C 0.60018 0.07006 0.18798 0.0
N1071 N 0.60858 0.08245 0.17148 0.0
N1072 N 0.62929 0.0772 0.16856 0.0
C1073 C 0.63467 0.06114 0.18276 0.0
C1074 C 0.61645 0.05606 0.19558 0.0
C1075 C 0.57695 0.07142 0.19585 0.0
H1076 H 0.56566 0.06748 0.18182 0.0
H1077 H 0.57351 0.08843 0.20115 0.0
H1078 H 0.57376 0.06004 0.20984 0.0
O1079 O 0.60097 0.09869 0.12054 0.0
O1080 O 0.63481 0.08621 0.11672 0.0
H1081 H 0.66195 0.04489 0.16794 0.0
H1082 H 0.65781 0.03815 0.19695 0.0
C1083 C 0.65711 0.05141 0.18443 0.0
H1084 H 0.66912 0.06436 0.18917 0.0
H1085 H 0.67566 0.06111 0.12143 0.0
O1086 O 0.56477 0.108 0.15614 0.0
C1087 C 0.61633 0.09133 0.10838 0.0
Co1088 Co 0.63656 0.89428 0.90065 0.0
Co1089 Co 0.63603 0.84289 0.90299 0.0
C1090 C 0.64799 0.86712 0.86118 0.0
O1091 O 0.64626 0.88578 0.87045 0.0
O1092 O 0.64476 0.84952 0.87201 0.0
C1093 C 0.62379 0.93483 0.88784 0.0
O1094 O 0.61518 0.92176 0.87269 0.0
C1095 C 0.64712 0.79663 0.89596 0.0
C1096 C 0.62327 0.78082 0.91852 0.0
C1097 C 0.63855 0.77649 0.90213 0.0
N1098 N 0.63717 0.81219 0.90803 0.0
N1099 N 0.62332 0.80255 0.92185 0.0
C1100 C 0.66197 0.80116 0.87673 0.0
H1101 H 0.67035 0.81719 0.87888 0.0
H1102 H 0.67447 0.78819 0.8751 0.0
H1103 H 0.65203 0.8013 0.86123 0.0
C1104 C 0.66793 0.88817 0.93822 0.0
N1105 N 0.65362 0.88041 0.9229 0.0
N1106 N 0.65324 0.85892 0.92385 0.0
C1107 C 0.66721 0.8523 0.93984 0.0
C1108 C 0.67708 0.87059 0.94945 0.0
C1109 C 0.67376 0.91183 0.94083 0.0
H1110 H 0.67386 0.91991 0.92433 0.0
H1111 H 0.69005 0.91402 0.94897 0.0
H1112 H 0.66108 0.91982 0.95119 0.0
O1113 O 0.60527 0.88601 0.90234 0.0
O1114 O 0.60459 0.84999 0.90461 0.0
H1115 H 0.65439 0.82105 0.94919 0.0
H1116 H 0.68096 0.82711 0.96103 0.0
C1117 C 0.67056 0.82887 0.94596 0.0
H1118 H 0.67826 0.82019 0.93179 0.0
H1119 H 0.6128 0.81094 0.93248 0.0
O1120 O 0.63599 0.92663 0.90286 0.0
C1121 C 0.59465 0.8681 0.9034 0.0
Co1122 Co 0.84423 0.12151 0.83852 0.0
Co1123 Co 0.89586 0.12101 0.84249 0.0
C1124 C 0.86815 0.11305 0.88181 0.0
O1125 O 0.85073 0.11611 0.87042 0.0
O1126 O 0.88707 0.11319 0.87286 0.0
C1127 C 0.79888 0.10604 0.84269 0.0
O1128 O 0.80694 0.08815 0.8514 0.0
C1129 C 0.94184 0.12416 0.85687 0.0
C1130 C 0.95938 0.12718 0.8249 0.0
C1131 C 0.96251 0.1276 0.84775 0.0
N1132 N 0.92724 0.12144 0.84017 0.0
N1133 N 0.93785 0.12335 0.82111 0.0
C1134 C 0.9354 0.12692 0.88074 0.0
H1135 H 0.92047 0.13714 0.8818 0.0
H1136 H 0.93147 0.11066 0.88787 0.0
H1137 H 0.94864 0.13478 0.89074 0.0
C1138 C 0.85386 0.08673 0.80502 0.0
N1139 N 0.86029 0.10233 0.81961 0.0
N1140 N 0.88186 0.10173 0.82181 0.0
C1141 C 0.88971 0.0853 0.80927 0.0
C1142 C 0.87231 0.07541 0.79795 0.0
C1143 C 0.8305 0.08274 0.79815 0.0
H1144 H 0.82134 0.09832 0.79812 0.0
H1145 H 0.82261 0.07152 0.81026 0.0
H1146 H 0.82961 0.07514 0.78138 0.0
O1147 O 0.8517 0.15228 0.83351 0.0
O1148 O 0.88776 0.1519 0.83822 0.0
H1149 H 0.92278 0.08492 0.79738 0.0
H1150 H 0.91326 0.05915 0.80802 0.0
C1151 C 0.91281 0.0771 0.81061 0.0
H1152 H 0.92017 0.08103 0.82705 0.0
H1153 H 0.93023 0.12318 0.80552 0.0
O1154 O 0.81183 0.12058 0.8351 0.0
C1155 C 0.87003 0.16225 0.83497 0.0
Co1156 Co 0.64307 0.1455 0.59185 0.0
Co1157 Co 0.64198 0.09443 0.59026 0.0
C1158 C 0.60073 0.12009 0.58625 0.0
O1159 O 0.6113 0.13812 0.58736 0.0
O1160 O 0.61072 0.10194 0.5866 0.0
C1161 C 0.63016 0.18986 0.58813 0.0
O1162 O 0.61227 0.1812 0.57938 0.0
C1163 C 0.6302 0.04957 0.57841 0.0
C1164 C 0.65812 0.03112 0.59223 0.0
C1165 C 0.63794 0.02868 0.58169 0.0
N1166 N 0.64496 0.06381 0.58686 0.0
N1167 N 0.66173 0.0527 0.5949 0.0
C1168 C 0.60935 0.0559 0.56695 0.0
H1169 H 0.61196 0.07113 0.5573 0.0
H1170 H 0.6035 0.04272 0.5556 0.0
H1171 H 0.59652 0.05885 0.57961 0.0
C1172 C 0.67682 0.13839 0.55646 0.0
N1173 N 0.66167 0.13119 0.57112 0.0
N1174 N 0.66072 0.10972 0.57024 0.0
C1175 C 0.67496 0.10259 0.55477 0.0
C1176 C 0.68587 0.12046 0.54565 0.0
C1177 C 0.68322 0.16189 0.55386 0.0
H1178 H 0.68351 0.17006 0.57036 0.0
H1179 H 0.67073 0.17013 0.5434 0.0
H1180 H 0.69957 0.16365 0.5459 0.0
O1181 O 0.64984 0.13705 0.62279 0.0
O1182 O 0.64864 0.10088 0.62184 0.0
H1183 H 0.68721 0.07053 0.56072 0.0
H1184 H 0.68537 0.07758 0.53163 0.0
C1185 C 0.67726 0.07916 0.54805 0.0
H1186 H 0.66082 0.07125 0.54706 0.0
H1187 H 0.67533 0.05983 0.60281 0.0
O1188 O 0.64648 0.17768 0.59222 0.0
C1189 C 0.65082 0.11871 0.63259 0.0
Co1190 Co 0.65743 0.89131 0.3491 0.0
Co1191 Co 0.60622 0.88459 0.34438 0.0
C1192 C 0.62878 0.88756 0.38898 0.0
O1193 O 0.64735 0.89198 0.38034 0.0
O1194 O 0.6118 0.8843 0.37694 0.0
C1195 C 0.69845 0.88117 0.36304 0.0
O1196 O 0.68516 0.86896 0.37502 0.0
C1197 C 0.55917 0.88918 0.35358 0.0
C1198 C 0.54445 0.87047 0.32566 0.0
C1199 C 0.53936 0.88105 0.34534 0.0
N1200 N 0.57523 0.88348 0.33945 0.0
N1201 N 0.56627 0.87263 0.32262 0.0
C1202 C 0.56337 0.89942 0.37585 0.0
H1203 H 0.56626 0.88633 0.38821 0.0
H1204 H 0.57818 0.91011 0.37516 0.0
H1205 H 0.54919 0.90912 0.38154 0.0
C1206 C 0.64731 0.92891 0.31898 0.0
N1207 N 0.6414 0.91146 0.33131 0.0
N1208 N 0.61993 0.90861 0.32972 0.0
C1209 C 0.61156 0.92405 0.3163 0.0
C1210 C 0.62859 0.93743 0.30896 0.0
C1211 C 0.67054 0.93662 0.31619 0.0
H1212 H 0.68171 0.92242 0.31545 0.0
H1213 H 0.67531 0.94667 0.33086 0.0
H1214 H 0.6724 0.94666 0.30095 0.0
O1215 O 0.65308 0.86101 0.33863 0.0
O1216 O 0.6173 0.85667 0.33318 0.0
H1217 H 0.58218 0.91222 0.30061 0.0
H1218 H 0.58396 0.9417 0.30239 0.0
C1219 C 0.58758 0.9262 0.31114 0.0
H1220 H 0.57805 0.92566 0.32682 0.0
H1221 H 0.57522 0.86566 0.30968 0.0
O1222 O 0.69009 0.89471 0.34939 0.0
C1223 C 0.63672 0.8492 0.33291 0.0
Co1224 Co 0.83981 0.8438 0.11093 0.0
Co1225 Co 0.83784 0.89501 0.11159 0.0
C1226 C 0.88019 0.87125 0.1051 0.0
O1227 O 0.87063 0.85269 0.10533 0.0
O1228 O 0.86935 0.88879 0.10714 0.0
C1229 C 0.85421 0.80045 0.103 0.0
O1230 O 0.86982 0.81042 0.0918 0.0
C1231 C 0.84775 0.9401 0.09961 0.0
C1232 C 0.82113 0.95823 0.11606 0.0
C1233 C 0.84034 0.96091 0.10405 0.0
N1234 N 0.8338 0.92565 0.10883 0.0
N1235 N 0.81773 0.93657 0.1184 0.0
C1236 C 0.86763 0.93412 0.08647 0.0
H1237 H 0.86464 0.91861 0.07729 0.0
H1238 H 0.87197 0.94726 0.07452 0.0
H1239 H 0.88168 0.93192 0.098 0.0
C1240 C 0.80512 0.85003 0.07658 0.0
N1241 N 0.81987 0.85773 0.09149 0.0
N1242 N 0.81939 0.87923 0.09152 0.0
C1243 C 0.8045 0.88592 0.07642 0.0
C1244 C 0.7948 0.86766 0.06655 0.0
C1245 C 0.8005 0.82626 0.07283 0.0
H1246 H 0.80078 0.81747 0.08894 0.0
H1247 H 0.81361 0.81938 0.06218 0.0
H1248 H 0.78433 0.8236 0.06459 0.0
O1249 O 0.8343 0.85142 0.14214 0.0
O1250 O 0.83203 0.88751 0.14304 0.0
H1251 H 0.79127 0.91722 0.08421 0.0
H1252 H 0.79147 0.91104 0.05478 0.0
C1253 C 0.80068 0.90936 0.07064 0.0
H1254 H 0.81667 0.91802 0.06903 0.0
H1255 H 0.8049 0.92927 0.12724 0.0
O1256 O 0.83824 0.81151 0.11042 0.0
C1257 C 0.83195 0.86914 0.1529 0.0
Co1258 Co 0.14539 0.64994 0.08685 0.0
Co1259 Co 0.14735 0.59925 0.09175 0.0
C1260 C 0.10451 0.62329 0.08624 0.0
O1261 O 0.11394 0.64167 0.08321 0.0
O1262 O 0.11565 0.60617 0.08976 0.0
C1263 C 0.13208 0.69388 0.08552 0.0
O1264 O 0.11277 0.68475 0.08199 0.0
C1265 C 0.13498 0.55469 0.08131 0.0
C1266 C 0.15493 0.53646 0.10564 0.0
C1267 C 0.13783 0.53423 0.09047 0.0
N1268 N 0.14949 0.56849 0.09088 0.0
N1269 N 0.16183 0.55738 0.10493 0.0
C1270 C 0.11658 0.56171 0.06644 0.0
H1271 H 0.12077 0.57741 0.05823 0.0
H1272 H 0.11315 0.5491 0.05357 0.0
H1273 H 0.10146 0.56374 0.07647 0.0
C1274 C 0.17843 0.64042 0.05172 0.0
N1275 N 0.16381 0.63416 0.06728 0.0
N1276 N 0.16453 0.6128 0.06945 0.0
C1277 C 0.17977 0.6048 0.05554 0.0
C1278 C 0.18902 0.62199 0.04377 0.0
C1279 C 0.18336 0.66372 0.04607 0.0
H1280 H 0.19179 0.67164 0.06043 0.0
H1281 H 0.16775 0.67253 0.04315 0.0
H1282 H 0.19401 0.665 0.03117 0.0
O1283 O 0.15275 0.64417 0.1184 0.0
O1284 O 0.15669 0.60842 0.12168 0.0
H1285 H 0.19223 0.57603 0.071 0.0
H1286 H 0.19896 0.57837 0.04175 0.0
C1287 C 0.1861 0.58126 0.05445 0.0
H1288 H 0.17136 0.5712 0.05037 0.0
H1289 H 0.17364 0.56445 0.11542 0.0
O1290 O 0.14913 0.68205 0.08495 0.0
C1291 C 0.15689 0.62746 0.13017 0.0
Co1292 Co 0.16777 0.39912 0.85122 0.0
Co1293 Co 0.11791 0.38789 0.84207 0.0
C1294 C 0.13673 0.39424 0.88843 0.0
O1295 O 0.15565 0.40029 0.88175 0.0
O1296 O 0.12158 0.38897 0.87474 0.0
C1297 C 0.20841 0.39074 0.86708 0.0
O1298 O 0.19488 0.37928 0.87953 0.0
C1299 C 0.07083 0.39424 0.84837 0.0
C1300 C 0.05687 0.368 0.82719 0.0
C1301 C 0.05132 0.3835 0.843 0.0
N1302 N 0.08715 0.38527 0.83651 0.0
N1303 N 0.07861 0.36993 0.8235 0.0
C1304 C 0.07444 0.41072 0.86649 0.0
H1305 H 0.09175 0.41656 0.86677 0.0
H1306 H 0.06367 0.42498 0.86377 0.0
H1307 H 0.07007 0.40341 0.88277 0.0
C1308 C 0.1572 0.43492 0.81916 0.0
N1309 N 0.15174 0.41728 0.83138 0.0
N1310 N 0.1308 0.41256 0.82795 0.0
C1311 C 0.12229 0.42704 0.81356 0.0
C1312 C 0.13867 0.44177 0.80755 0.0
C1313 C 0.17968 0.44501 0.81878 0.0
H1314 H 0.18779 0.44309 0.83522 0.0
H1315 H 0.17888 0.46257 0.81431 0.0
H1316 H 0.18972 0.43644 0.80615 0.0
O1317 O 0.16566 0.36844 0.84198 0.0
O1318 O 0.13142 0.36029 0.83241 0.0
H1319 H 0.09537 0.40864 0.79976 0.0
H1320 H 0.09694 0.43647 0.79002 0.0
C1321 C 0.09928 0.42572 0.80465 0.0
H1322 H 0.08767 0.43057 0.81792 0.0
H1323 H 0.08784 0.35977 0.81326 0.0
O1324 O 0.2003 0.40357 0.85258 0.0
C1325 C 0.15139 0.35483 0.83491 0.0
Co1326 Co 0.34128 0.34602 0.59913 0.0
Co1327 Co 0.32824 0.39356 0.61179 0.0
C1328 C 0.37499 0.38055 0.60088 0.0
O1329 O 0.3696 0.36145 0.59436 0.0
O1330 O 0.36068 0.39368 0.60832 0.0
C1331 C 0.36229 0.30746 0.60372 0.0
O1332 O 0.37552 0.32162 0.61352 0.0
C1333 C 0.32988 0.44048 0.60658 0.0
C1334 C 0.30717 0.45158 0.63277 0.0
C1335 C 0.32251 0.45895 0.61747 0.0
N1336 N 0.3195 0.42301 0.61514 0.0
N1337 N 0.30553 0.42976 0.6304 0.0
C1338 C 0.3488 0.43897 0.59082 0.0
H1339 H 0.34779 0.42351 0.58117 0.0
H1340 H 0.34895 0.4529 0.57909 0.0
H1341 H 0.36443 0.43938 0.60042 0.0
C1342 C 0.30493 0.35235 0.56616 0.0
N1343 N 0.31817 0.3592 0.58286 0.0
N1344 N 0.31318 0.37946 0.58805 0.0
C1345 C 0.29668 0.3862 0.57484 0.0
C1346 C 0.29079 0.36923 0.56058 0.0
C1347 C 0.30541 0.32986 0.55642 0.0
H1348 H 0.30887 0.31774 0.56963 0.0
H1349 H 0.31884 0.32904 0.54402 0.0
H1350 H 0.2896 0.32568 0.54806 0.0
O1351 O 0.33554 0.34658 0.63148 0.0
O1352 O 0.32263 0.3791 0.64029 0.0
H1353 H 0.27931 0.41171 0.59135 0.0
H1354 H 0.27601 0.41183 0.56138 0.0
C1355 C 0.28767 0.40888 0.57524 0.0
H1356 H 0.3014 0.42082 0.57391 0.0
H1357 H 0.2961 0.41935 0.64033 0.0
O1358 O 0.34538 0.31449 0.59354 0.0
C1359 C 0.32805 0.35986 0.64579 0.0
Co1360 Co 0.10012 0.60452 0.6486 0.0
Co1361 Co 0.15024 0.59575 0.64214 0.0
C1362 C 0.13215 0.6406 0.65221 0.0
O1363 O 0.11251 0.634 0.65541 0.0
O1364 O 0.14715 0.62736 0.64673 0.0
C1365 C 0.06043 0.62135 0.63844 0.0
O1366 O 0.07469 0.63451 0.62886 0.0
C1367 C 0.19648 0.60212 0.65217 0.0
C1368 C 0.21185 0.58274 0.62551 0.0
C1369 C 0.2164 0.5981 0.64193 0.0
N1370 N 0.18085 0.59005 0.64197 0.0
N1371 N 0.19024 0.57798 0.6265 0.0
C1372 C 0.19184 0.61941 0.66912 0.0
H1373 H 0.17508 0.6173 0.67603 0.0
H1374 H 0.20386 0.61853 0.68298 0.0
H1375 H 0.19353 0.63575 0.66136 0.0
C1376 C 0.10621 0.56849 0.68209 0.0
N1377 N 0.11359 0.58237 0.66632 0.0
N1378 N 0.13483 0.57932 0.66366 0.0
C1379 C 0.1417 0.56369 0.67766 0.0
C1380 C 0.12379 0.55608 0.68974 0.0
C1381 C 0.08271 0.5668 0.68916 0.0
H1382 H 0.07957 0.57932 0.70211 0.0
H1383 H 0.07899 0.55042 0.69615 0.0
H1384 H 0.07167 0.57003 0.67483 0.0
O1385 O 0.1048 0.5994 0.61636 0.0
O1386 O 0.13947 0.58977 0.61191 0.0
H1387 H 0.17084 0.54887 0.66505 0.0
H1388 H 0.16806 0.54686 0.69499 0.0
C1389 C 0.16532 0.55742 0.68032 0.0
H1390 H 0.17554 0.57237 0.68238 0.0
H1391 H 0.18162 0.568 0.61531 0.0
O1392 O 0.06762 0.60593 0.65056 0.0
C1393 C 0.12051 0.5935 0.6039 0.0
Co1394 Co 0.40834 0.39951 0.1478 0.0
Co1395 Co 0.3571 0.4036 0.14405 0.0
C1396 C 0.37787 0.3608 0.1538 0.0
O1397 O 0.39692 0.36965 0.15401 0.0
O1398 O 0.36066 0.37212 0.15066 0.0
C1399 C 0.44853 0.38357 0.13795 0.0
O1400 O 0.43477 0.36933 0.12906 0.0
C1401 C 0.30905 0.39875 0.14656 0.0
C1402 C 0.2984 0.42972 0.13121 0.0
C1403 C 0.29066 0.41005 0.13949 0.0
N1404 N 0.32689 0.41127 0.14272 0.0
N1405 N 0.32038 0.42985 0.1338 0.0
C1406 C 0.31016 0.37536 0.15359 0.0
H1407 H 0.31745 0.3657 0.13988 0.0
H1408 H 0.32101 0.37394 0.1684 0.0
H1409 H 0.29374 0.3684 0.15743 0.0
C1410 C 0.4018 0.4365 0.17971 0.0
N1411 N 0.39436 0.421 0.16548 0.0
N1412 N 0.37275 0.42184 0.16453 0.0
C1413 C 0.36572 0.43744 0.17856 0.0
C1414 C 0.38386 0.44756 0.18842 0.0
C1415 C 0.42564 0.44124 0.18388 0.0
H1416 H 0.43541 0.43738 0.16887 0.0
H1417 H 0.43148 0.4308 0.19773 0.0
H1418 H 0.42828 0.45862 0.18857 0.0
O1419 O 0.40334 0.40468 0.11607 0.0
O1420 O 0.36727 0.40756 0.11314 0.0
H1421 H 0.33513 0.45273 0.17101 0.0
H1422 H 0.34008 0.44899 0.20034 0.0
C1423 C 0.34201 0.44149 0.18364 0.0
H1424 H 0.33258 0.42592 0.18313 0.0
H1425 H 0.33107 0.44219 0.12847 0.0
O1426 O 0.44084 0.39912 0.14959 0.0
C1427 C 0.3862 0.40717 0.10431 0.0
Co1428 Co 0.64496 0.40869 0.09674 0.0
Co1429 Co 0.64593 0.35691 0.09728 0.0
C1430 C 0.64973 0.38291 0.13911 0.0
O1431 O 0.64842 0.40085 0.12856 0.0
O1432 O 0.64977 0.36467 0.12893 0.0
C1433 C 0.64973 0.45304 0.11109 0.0
O1434 O 0.65791 0.44378 0.12895 0.0
C1435 C 0.65163 0.31075 0.10965 0.0
C1436 C 0.6447 0.29366 0.07797 0.0
C1437 C 0.64941 0.29018 0.10023 0.0
N1438 N 0.64824 0.32582 0.09377 0.0
N1439 N 0.64415 0.31545 0.07485 0.0
C1440 C 0.6571 0.31596 0.13335 0.0
H1441 H 0.66988 0.32898 0.13399 0.0
H1442 H 0.66328 0.30143 0.14234 0.0
H1443 H 0.64208 0.32194 0.14173 0.0
C1444 C 0.68093 0.40149 0.06412 0.0
N1445 N 0.66553 0.39404 0.07834 0.0
N1446 N 0.66629 0.37254 0.07899 0.0
C1447 C 0.68255 0.3657 0.06555 0.0
C1448 C 0.69223 0.38376 0.05544 0.0
C1449 C 0.68408 0.42509 0.05847 0.0
H1450 H 0.66794 0.43337 0.05792 0.0
H1451 H 0.69422 0.43303 0.07165 0.0
H1452 H 0.69246 0.42709 0.04223 0.0
O1453 O 0.61461 0.40021 0.08948 0.0
O1454 O 0.61483 0.36403 0.09045 0.0
H1455 H 0.6796 0.3338 0.05131 0.0
H1456 H 0.70735 0.34159 0.05853 0.0
C1457 C 0.68992 0.3425 0.06381 0.0
H1458 H 0.68815 0.3342 0.08008 0.0
H1459 H 0.64036 0.32325 0.05991 0.0
O1460 O 0.6452 0.44123 0.0942 0.0
C1461 C 0.60456 0.38195 0.08836 0.0
Co1462 Co 0.86544 0.6653 0.5908 0.0
Co1463 Co 0.85763 0.61461 0.5966 0.0
C1464 C 0.90297 0.63452 0.59136 0.0
O1465 O 0.89565 0.65367 0.58801 0.0
O1466 O 0.89001 0.61844 0.59482 0.0
C1467 C 0.88007 0.70573 0.60243 0.0
O1468 O 0.89269 0.69229 0.61359 0.0
C1469 C 0.86326 0.5669 0.59288 0.0
C1470 C 0.83363 0.55519 0.6105 0.0
C1471 C 0.85312 0.54821 0.60115 0.0
N1472 N 0.85039 0.58413 0.59736 0.0
N1473 N 0.8325 0.57691 0.60746 0.0
C1474 C 0.8861 0.56882 0.58393 0.0
H1475 H 0.89769 0.57118 0.59803 0.0
H1476 H 0.88739 0.58302 0.57257 0.0
H1477 H 0.89092 0.55386 0.57486 0.0
C1478 C 0.83115 0.65852 0.55601 0.0
N1479 N 0.84524 0.65097 0.57147 0.0
N1480 N 0.84237 0.62972 0.57361 0.0
C1481 C 0.82654 0.62304 0.55935 0.0
C1482 C 0.81873 0.64106 0.54784 0.0
C1483 C 0.82836 0.68225 0.55091 0.0
H1484 H 0.82862 0.69184 0.5666 0.0
H1485 H 0.8424 0.6879 0.54061 0.0
H1486 H 0.81277 0.68535 0.54185 0.0
O1487 O 0.85679 0.66094 0.62181 0.0
O1488 O 0.84937 0.6258 0.62621 0.0
H1489 H 0.80829 0.59544 0.57107 0.0
H1490 H 0.80978 0.59724 0.54111 0.0
C1491 C 0.81904 0.5998 0.55687 0.0
H1492 H 0.83345 0.58884 0.55706 0.0
H1493 H 0.82017 0.58702 0.61358 0.0
O1494 O 0.8663 0.69772 0.58854 0.0
C1495 C 0.85082 0.64508 0.63398 0.0
Co1496 Co 0.64473 0.37996 0.64894 0.0
Co1497 Co 0.59373 0.37594 0.65698 0.0
C1498 C 0.61374 0.38603 0.612 0.0
O1499 O 0.63342 0.38759 0.61914 0.0
O1500 O 0.59792 0.38154 0.62501 0.0
C1501 C 0.68578 0.37081 0.63266 0.0
O1502 O 0.67272 0.36126 0.61804 0.0
C1503 C 0.54784 0.38794 0.65021 0.0
C1504 C 0.53076 0.36995 0.67691 0.0
C1505 C 0.5272 0.38304 0.6585 0.0
N1506 N 0.56298 0.37798 0.66288 0.0
N1507 N 0.55268 0.36742 0.67897 0.0
C1508 C 0.55306 0.40235 0.63084 0.0
H1509 H 0.56883 0.41117 0.63379 0.0
H1510 H 0.53974 0.41432 0.62801 0.0
H1511 H 0.55465 0.39216 0.61568 0.0
C1512 C 0.64039 0.41228 0.68548 0.0
N1513 N 0.63187 0.39729 0.67137 0.0
N1514 N 0.61057 0.39544 0.67486 0.0
C1515 C 0.60487 0.4091 0.6914 0.0
C1516 C 0.62356 0.42017 0.6987 0.0
C1517 C 0.66425 0.41833 0.68648 0.0
H1518 H 0.67411 0.40335 0.68889 0.0
H1519 H 0.66921 0.42562 0.67036 0.0
H1520 H 0.66785 0.43004 0.70017 0.0
O1521 O 0.63802 0.34865 0.65317 0.0
O1522 O 0.60255 0.3453 0.66103 0.0
H1523 H 0.57582 0.39688 0.70706 0.0
H1524 H 0.58056 0.42579 0.71141 0.0
C1525 C 0.58178 0.41221 0.69925 0.0
H1526 H 0.571 0.41575 0.68479 0.0
H1527 H 0.56055 0.3579 0.69092 0.0
O1528 O 0.67725 0.38163 0.6485 0.0
C1529 C 0.62131 0.33686 0.65769 0.0
Co1530 Co 0.35924 0.58804 0.89356 0.0
Co1531 Co 0.36126 0.63944 0.89656 0.0
C1532 C 0.35338 0.6152 0.85337 0.0
O1533 O 0.35253 0.59655 0.86265 0.0
O1534 O 0.35655 0.63257 0.86469 0.0
C1535 C 0.37203 0.54777 0.88029 0.0
O1536 O 0.38081 0.5612 0.86572 0.0
C1537 C 0.3511 0.68529 0.88684 0.0
C1538 C 0.37366 0.70208 0.91025 0.0
C1539 C 0.35973 0.70564 0.89236 0.0
N1540 N 0.3598 0.67035 0.90062 0.0
N1541 N 0.37278 0.68062 0.91499 0.0
C1542 C 0.33732 0.67985 0.8669 0.0
H1543 H 0.32944 0.66356 0.86876 0.0
H1544 H 0.32438 0.69229 0.86454 0.0
H1545 H 0.34786 0.68003 0.8519 0.0
C1546 C 0.32491 0.59508 0.92814 0.0
N1547 N 0.34048 0.60238 0.91403 0.0
N1548 N 0.34153 0.62387 0.91525 0.0
C1549 C 0.32684 0.63089 0.93028 0.0
C1550 C 0.31581 0.61292 0.93898 0.0
C1551 C 0.31911 0.57149 0.93117 0.0
H1552 H 0.33436 0.56177 0.93251 0.0
H1553 H 0.30993 0.56563 0.91628 0.0
H1554 H 0.30885 0.56893 0.94618 0.0
O1555 O 0.39036 0.59593 0.89838 0.0
O1556 O 0.39217 0.63183 0.90238 0.0
H1557 H 0.33752 0.66187 0.94292 0.0
H1558 H 0.30838 0.65669 0.94631 0.0
C1559 C 0.32264 0.65448 0.93512 0.0
H1560 H 0.31949 0.66322 0.9193 0.0
H1561 H 0.38241 0.67275 0.92688 0.0
O1562 O 0.35953 0.55559 0.89524 0.0
C1563 C 0.40148 0.61335 0.90142 0.0
Co1564 Co 0.12947 0.39623 0.39776 0.0
Co1565 Co 0.13282 0.3448 0.39697 0.0
C1566 C 0.14366 0.37184 0.35705 0.0
O1567 O 0.13994 0.38961 0.36739 0.0
O1568 O 0.14181 0.35339 0.36665 0.0
C1569 C 0.11571 0.43663 0.38545 0.0
O1570 O 0.10748 0.4235 0.37015 0.0
C1571 C 0.14288 0.299 0.38611 0.0
C1572 C 0.131 0.28185 0.41608 0.0
C1573 C 0.13993 0.27845 0.39524 0.0
N1574 N 0.13599 0.31398 0.40086 0.0
N1575 N 0.12889 0.30358 0.41874 0.0
C1576 C 0.15199 0.3043 0.3637 0.0
H1577 H 0.1639 0.31805 0.36516 0.0
H1578 H 0.16036 0.29004 0.35622 0.0
H1579 H 0.13831 0.30935 0.35263 0.0
C1580 C 0.16126 0.39056 0.43479 0.0
N1581 N 0.14735 0.38243 0.4193 0.0
N1582 N 0.14917 0.36101 0.41861 0.0
C1583 C 0.16465 0.35487 0.43338 0.0
C1584 C 0.17274 0.37336 0.44417 0.0
C1585 C 0.1647 0.41445 0.43894 0.0
H1586 H 0.16876 0.42267 0.42302 0.0
H1587 H 0.17805 0.41756 0.45122 0.0
H1588 H 0.14915 0.42158 0.44509 0.0
O1589 O 0.09879 0.38604 0.399 0.0
O1590 O 0.10079 0.34998 0.39837 0.0
H1591 H 0.15862 0.32273 0.44564 0.0
H1592 H 0.18698 0.33069 0.44691 0.0
C1593 C 0.17178 0.33176 0.43677 0.0
H1594 H 0.17445 0.32378 0.42044 0.0
H1595 H 0.12197 0.3113 0.43251 0.0
O1596 O 0.12765 0.42852 0.40075 0.0
C1597 C 0.08953 0.36738 0.39853 0.0
Co1598 Co 0.34279 0.60829 0.34591 0.0
Co1599 Co 0.39077 0.62373 0.33432 0.0
C1600 C 0.37644 0.60708 0.38007 0.0
O1601 O 0.35718 0.60079 0.3744 0.0
O1602 O 0.38925 0.61624 0.36619 0.0
C1603 C 0.3016 0.61123 0.36384 0.0
O1604 O 0.31425 0.6208 0.3788 0.0
C1605 C 0.43827 0.61884 0.33827 0.0
C1606 C 0.45008 0.64898 0.32197 0.0
C1607 C 0.45695 0.63168 0.33506 0.0
N1608 N 0.42118 0.62844 0.32802 0.0
N1609 N 0.42849 0.64612 0.31778 0.0
C1610 C 0.436 0.59936 0.35312 0.0
H1611 H 0.44026 0.60399 0.37049 0.0
H1612 H 0.41911 0.59246 0.3523 0.0
H1613 H 0.44744 0.58643 0.34774 0.0
C1614 C 0.35215 0.57781 0.30838 0.0
N1615 N 0.3575 0.59494 0.32152 0.0
N1616 N 0.37765 0.60144 0.31679 0.0
C1617 C 0.38574 0.58873 0.30052 0.0
C1618 C 0.36991 0.57324 0.29466 0.0
C1619 C 0.33121 0.56499 0.31039 0.0
H1620 H 0.3252 0.56549 0.32778 0.0
H1621 H 0.33351 0.54777 0.30511 0.0
H1622 H 0.31856 0.57245 0.29951 0.0
O1623 O 0.34375 0.64054 0.34454 0.0
O1624 O 0.37576 0.65198 0.33138 0.0
H1625 H 0.4121 0.60901 0.28871 0.0
H1626 H 0.40974 0.58287 0.27474 0.0
C1627 C 0.40829 0.59141 0.29097 0.0
H1628 H 0.42049 0.58461 0.30279 0.0
H1629 H 0.41841 0.6572 0.30951 0.0
O1630 O 0.31064 0.60212 0.34719 0.0
C1631 C 0.35654 0.65591 0.33848 0.0
H1632 H 0.15664 0.34418 0.02042 0.0
H1633 H 0.09781 0.38561 0.90945 0.0
H1634 H 0.08617 0.34952 0.01356 0.0
H1635 H 0.16767 0.39152 0.92157 0.0
H1636 H 0.09307 0.37147 0.94705 0.0
H1637 H 0.1609 0.35895 0.98301 0.0
C1638 C 0.14203 0.34814 0.01094 0.0
C1639 C 0.121 0.34569 0.0202 0.0
C1640 C 0.10941 0.37606 0.94156 0.0
C1641 C 0.12582 0.36295 0.97747 0.0
C1642 C 0.11212 0.38428 0.92013 0.0
C1643 C 0.13319 0.38972 0.91229 0.0
C1644 C 0.12791 0.37305 0.95521 0.0
C1645 C 0.15111 0.3876 0.9269 0.0
C1646 C 0.1445 0.3568 0.98966 0.0
C1647 C 0.10269 0.35119 0.00712 0.0
N1648 N 0.14809 0.37921 0.94758 0.0
N1649 N 0.10553 0.35965 0.98645 0.0
H1650 H 0.87172 0.90223 0.28664 0.0
H1651 H 0.83582 0.83311 0.17947 0.0
H1652 H 0.88805 0.83441 0.27678 0.0
H1653 H 0.83394 0.90361 0.1822 0.0
H1654 H 0.84904 0.83264 0.21779 0.0
H1655 H 0.85362 0.90245 0.25033 0.0
C1656 C 0.87166 0.88741 0.27673 0.0
C1657 C 0.88147 0.86828 0.28468 0.0
C1658 C 0.8455 0.84819 0.21007 0.0
C1659 C 0.8604 0.86834 0.24332 0.0
C1660 C 0.83772 0.8485 0.18824 0.0
C1661 C 0.83407 0.86848 0.17742 0.0
C1662 C 0.84956 0.86797 0.22123 0.0
C1663 C 0.8367 0.88784 0.18977 0.0
C1664 C 0.86123 0.88754 0.25606 0.0
C1665 C 0.88085 0.84956 0.27119 0.0
N1666 N 0.84453 0.88711 0.21095 0.0
N1667 N 0.87036 0.85003 0.25118 0.0
H1668 H 0.41673 0.66907 0.49827 0.0
H1669 H 0.35352 0.59143 0.4162 0.0
H1670 H 0.38079 0.61327 0.52307 0.0
H1671 H 0.41446 0.62339 0.39795 0.0
H1672 H 0.36197 0.5991 0.4554 0.0
H1673 H 0.41449 0.65352 0.46067 0.0
C1674 C 0.40859 0.65344 0.49575 0.0
C1675 C 0.39915 0.64226 0.51361 0.0
C1676 C 0.37363 0.60401 0.44275 0.0
C1677 C 0.39612 0.62465 0.47097 0.0
C1678 C 0.36885 0.59962 0.42041 0.0
C1679 C 0.38311 0.60707 0.40372 0.0
C1680 C 0.39255 0.61623 0.44824 0.0
C1681 C 0.40281 0.61755 0.41018 0.0
C1682 C 0.4074 0.64452 0.47442 0.0
C1683 C 0.38859 0.62214 0.50965 0.0
N1684 N 0.40672 0.62221 0.43189 0.0
N1685 N 0.38708 0.61406 0.48864 0.0
H1686 H 0.66299 0.15074 0.66244 0.0
H1687 H 0.57557 0.11292 0.74817 0.0
H1688 H 0.63344 0.08644 0.65836 0.0
H1689 H 0.63521 0.14322 0.77345 0.0
H1690 H 0.59333 0.10874 0.7122 0.0
H1691 H 0.65095 0.15329 0.70137 0.0
C1692 C 0.65449 0.13697 0.66987 0.0
C1693 C 0.64916 0.11837 0.65711 0.0
C1694 C 0.60236 0.11646 0.72572 0.0
C1695 C 0.63471 0.12161 0.701 0.0
C1696 C 0.59223 0.11901 0.74628 0.0
C1697 C 0.60357 0.12879 0.76422 0.0
C1698 C 0.62389 0.12412 0.72274 0.0
C1699 C 0.62523 0.13626 0.76039 0.0
C1700 C 0.64756 0.1385 0.69197 0.0
C1701 C 0.63798 0.10105 0.66753 0.0
N1702 N 0.63461 0.13394 0.74001 0.0
N1703 N 0.63067 0.10331 0.68871 0.0
H1704 H 0.08447 0.6415 0.47423 0.0
H1705 H 0.14937 0.58062 0.57165 0.0
H1706 H 0.14352 0.60417 0.46415 0.0
H1707 H 0.08539 0.6094 0.58053 0.0
H1708 H 0.14704 0.58853 0.53197 0.0
H1709 H 0.0846 0.63045 0.51343 0.0
C1710 C 0.09752 0.63113 0.48029 0.0
C1711 C 0.11402 0.62377 0.46593 0.0
C1712 C 0.1334 0.59291 0.54255 0.0
C1713 C 0.11416 0.61091 0.51053 0.0
C1714 C 0.13468 0.58829 0.56522 0.0
C1715 C 0.11762 0.59447 0.57949 0.0
C1716 C 0.11503 0.60398 0.53411 0.0
C1717 C 0.09897 0.60436 0.57017 0.0
C1718 C 0.0975 0.62468 0.50259 0.0
C1719 C 0.13046 0.61022 0.4746 0.0
N1720 N 0.09828 0.60904 0.5481 0.0
N1721 N 0.13012 0.60427 0.49631 0.0
H1722 H 0.64811 0.90092 0.83128 0.0
H1723 H 0.61312 0.82174 0.73152 0.0
H1724 H 0.65015 0.83053 0.83494 0.0
H1725 H 0.61117 0.89204 0.72792 0.0
H1726 H 0.63127 0.82464 0.76775 0.0
H1727 H 0.64038 0.89807 0.79153 0.0
C1728 C 0.64745 0.88486 0.82368 0.0
C1729 C 0.64934 0.8659 0.83663 0.0
C1730 C 0.62712 0.83945 0.75893 0.0
C1731 C 0.64005 0.86254 0.79117 0.0
C1732 C 0.6169 0.83778 0.73815 0.0
C1733 C 0.61094 0.85667 0.72659 0.0
C1734 C 0.63123 0.86018 0.76826 0.0
C1735 C 0.61542 0.87706 0.73638 0.0
C1736 C 0.64285 0.88325 0.80097 0.0
C1737 C 0.64846 0.84558 0.82575 0.0
N1738 N 0.62525 0.87828 0.75667 0.0
N1739 N 0.6435 0.84442 0.80373 0.0
H1740 H 0.3574 0.38465 0.9655 0.0
H1741 H 0.42306 0.3987 0.07995 0.0
H1742 H 0.42112 0.35645 0.97779 0.0
H1743 H 0.35358 0.41137 0.073 0.0
H1744 H 0.4244 0.38877 0.04067 0.0
H1745 H 0.35724 0.39885 0.00343 0.0
C1746 C 0.37132 0.38133 0.97624 0.0
C1747 C 0.38929 0.36928 0.96853 0.0
C1748 C 0.40892 0.39392 0.04772 0.0
C1749 C 0.38931 0.38578 0.01185 0.0
C1750 C 0.40815 0.39981 0.0701 0.0
C1751 C 0.38809 0.40566 0.07987 0.0
C1752 C 0.38956 0.39403 0.03498 0.0
C1753 C 0.36936 0.4068 0.06623 0.0
C1754 C 0.37123 0.38951 -0.00214 0.0
C1755 C 0.40688 0.36552 0.98314 0.0
N1756 N 0.37051 0.40085 0.04449 0.0
N1757 N 0.40649 0.37384 0.00412 0.0
H1758 H 0.88096 0.08513 0.21352 0.0
H1759 H 0.86651 0.14992 0.32783 0.0
H1760 H 0.90679 0.15005 0.22546 0.0
H1761 H 0.85104 0.08125 0.32056 0.0
H1762 H 0.87847 0.15085 0.28933 0.0
H1763 H 0.86862 0.08356 0.2521 0.0
C1764 C 0.88429 0.09896 0.22435 0.0
C1765 C 0.89487 0.11779 0.21625 0.0
C1766 C 0.87232 0.1356 0.29608 0.0
C1767 C 0.88042 0.11622 0.2603 0.0
C1768 C 0.86516 0.1351 0.31805 0.0
C1769 C 0.85758 0.11548 0.32752 0.0
C1770 C 0.87193 0.11637 0.28337 0.0
C1771 C 0.85669 0.09675 0.31399 0.0
C1772 C 0.87715 0.09807 0.24634 0.0
C1773 C 0.89876 0.13519 0.23101 0.0
N1774 N 0.86386 0.09764 0.2926 0.0
N1775 N 0.89135 0.13406 0.25228 0.0
H1776 H 0.92325 0.07869 0.40102 0.0
H1777 H 0.03142 0.14788 0.37245 0.0
H1778 H 0.92597 0.14918 0.40439 0.0
H1779 H 0.02186 0.08011 0.3545 0.0
H1780 H 0.99434 0.14837 0.38793 0.0
H1781 H 0.96162 0.07847 0.38963 0.0
C1782 C 0.93201 0.09413 0.39985 0.0
C1783 C 0.9212 0.11403 0.4034 0.0
C1784 C 0.00032 0.13344 0.38049 0.0
C1785 C 0.96514 0.11383 0.38994 0.0
C1786 C 0.02143 0.13316 0.37152 0.0
C1787 C 0.02973 0.11392 0.36211 0.0
C1788 C 0.9875 0.11427 0.38027 0.0
C1789 C 0.01608 0.09533 0.36145 0.0
C1790 C 0.95389 0.09398 0.39308 0.0
C1791 C 0.93354 0.13346 0.40171 0.0
N1792 N 0.99568 0.09593 0.37056 0.0
N1793 N 0.9548 0.13289 0.39485 0.0
H1794 H 0.17575 0.75745 0.59127 0.0
H1795 H 0.10534 0.67521 0.66265 0.0
H1796 H 0.12902 0.78085 0.63929 0.0
H1797 H 0.17038 0.65997 0.63885 0.0
H1798 H 0.11237 0.7138 0.65401 0.0
H1799 H 0.1725 0.72081 0.60735 0.0
C1800 C 0.16498 0.75482 0.60535 0.0
C1801 C 0.15286 0.77205 0.61422 0.0
C1802 C 0.12519 0.70197 0.6511 0.0
C1803 C 0.14869 0.73039 0.63237 0.0
C1804 C 0.12121 0.67998 0.65605 0.0
C1805 C 0.13721 0.66426 0.65133 0.0
C1806 C 0.14511 0.7081 0.64103 0.0
C1807 C 0.1575 0.67142 0.64275 0.0
C1808 C 0.16318 0.73403 0.61458 0.0
C1809 C 0.13892 0.76794 0.6323 0.0
N1810 N 0.16071 0.69272 0.63754 0.0
N1811 N 0.137 0.74741 0.64068 0.0
H1812 H 0.46707 0.83014 0.85255 0.0
H1813 H 0.56881 0.90326 0.89385 0.0
H1814 H 0.47633 0.89796 0.83503 0.0
H1815 H 0.56645 0.83298 0.90029 0.0
H1816 H 0.53249 0.90217 0.87661 0.0
H1817 H 0.50205 0.83117 0.87262 0.0
C1818 C 0.47662 0.84518 0.85267 0.0
C1819 C 0.46878 0.864 0.84211 0.0
C1820 C 0.53984 0.88701 0.88198 0.0
C1821 C 0.50856 0.8654 0.86546 0.0
C1822 C 0.5605 0.88762 0.89208 0.0
C1823 C 0.57086 0.86813 0.8983 0.0
C1824 C 0.52941 0.8668 0.87816 0.0
C1825 C 0.55919 0.8484 0.89561 0.0
C1826 C 0.4965 0.84578 0.86426 0.0
C1827 C 0.48179 0.88304 0.84284 0.0
N1828 N 0.53916 0.84822 0.88552 0.0
N1829 N 0.50098 0.88329 0.85449 0.0
H1830 H 0.34061 0.33506 0.15067 0.0
H1831 H 0.40905 0.23269 0.10834 0.0
H1832 H 0.41145 0.33133 0.15321 0.0
H1833 H 0.33845 0.23087 0.11567 0.0
H1834 H 0.40979 0.26912 0.12466 0.0
H1835 H 0.33901 0.2967 0.13939 0.0
C1836 C 0.35581 0.32614 0.14927 0.0
C1837 C 0.37621 0.33665 0.15255 0.0
C1838 C 0.39411 0.26078 0.12274 0.0
C1839 C 0.37449 0.29279 0.13928 0.0
C1840 C 0.39365 0.24001 0.11322 0.0
C1841 C 0.37364 0.22868 0.11057 0.0
C1842 C 0.37441 0.27048 0.12957 0.0
C1843 C 0.35424 0.23902 0.11735 0.0
C1844 C 0.35487 0.30423 0.14271 0.0
C1845 C 0.39533 0.32408 0.15067 0.0
N1846 N 0.3551 0.25936 0.12651 0.0
N1847 N 0.39401 0.30295 0.14386 0.0
H1848 H 0.00719 0.90785 0.15605 0.0
H1849 H 0.90933 0.83744 0.10188 0.0
H1850 H 0.00829 0.83782 0.14843 0.0
H1851 H 0.90641 0.90705 0.1132 0.0
H1852 H 0.94783 0.83814 0.11344 0.0
H1853 H 0.97208 0.90863 0.13595 0.0
C1854 C 0.00014 0.89269 0.14987 0.0
C1855 C 0.01064 0.87278 0.15362 0.0
C1856 C 0.93884 0.85332 0.11306 0.0
C1857 C 0.97049 0.87343 0.13099 0.0
C1858 C 0.91687 0.85297 0.10631 0.0
C1859 C 0.90446 0.8722 0.10677 0.0
C1860 C 0.94846 0.87302 0.12041 0.0
C1861 C 0.91521 0.89182 0.11258 0.0
C1862 C 0.98008 0.89311 0.1385 0.0
C1863 C 0.00057 0.8535 0.14591 0.0
N1864 N 0.93649 0.89168 0.11946 0.0
N1865 N 0.98104 0.85429 0.13496 0.0
H1866 H 0.33861 0.79593 0.35289 0.0
H1867 H 0.32814 0.66906 0.37048 0.0
H1868 H 0.34645 0.76826 0.41838 0.0
H1869 H 0.37174 0.69418 0.3199 0.0
H1870 H 0.3229 0.70627 0.38423 0.0
H1871 H 0.3393 0.75906 0.3369 0.0
C1872 C 0.34009 0.78206 0.36393 0.0
C1873 C 0.34243 0.78503 0.38701 0.0
C1874 C 0.33333 0.70356 0.36993 0.0
C1875 C 0.34286 0.74314 0.36883 0.0
C1876 C 0.3362 0.68244 0.3619 0.0
C1877 C 0.35044 0.67855 0.34399 0.0
C1878 C 0.34428 0.72095 0.35961 0.0
C1879 C 0.36066 0.6965 0.33375 0.0
C1880 C 0.34064 0.76115 0.35476 0.0
C1881 C 0.34462 0.76657 0.40053 0.0
N1882 N 0.35732 0.71704 0.34168 0.0
N1883 N 0.34461 0.74629 0.39123 0.0
H1884 H 0.57365 0.08558 0.59607 0.0
H1885 H 0.46459 0.15662 0.60513 0.0
H1886 H 0.57247 0.15474 0.58226 0.0
H1887 H 0.47209 0.09343 0.63583 0.0
H1888 H 0.50268 0.155 0.59247 0.0
H1889 H 0.53476 0.08674 0.60537 0.0
C1890 C 0.56515 0.10095 0.59451 0.0
C1891 C 0.57645 0.12009 0.58829 0.0
C1892 C 0.496 0.14152 0.60202 0.0
C1893 C 0.53183 0.12158 0.59943 0.0
C1894 C 0.47427 0.14242 0.60928 0.0
C1895 C 0.46515 0.12514 0.62161 0.0
C1896 C 0.50867 0.12309 0.60688 0.0
C1897 C 0.47847 0.10717 0.62648 0.0
C1898 C 0.54296 0.10163 0.60012 0.0
C1899 C 0.56449 0.13958 0.58699 0.0
N1900 N 0.49954 0.10657 0.619 0.0
N1901 N 0.54284 0.13984 0.5926 0.0
H1902 H 0.18065 0.24242 0.90519 0.0
H1903 H 0.12661 0.31973 0.82035 0.0
H1904 H 0.15205 0.21467 0.84552 0.0
H1905 H 0.18946 0.3367 0.84984 0.0
H1906 H 0.13311 0.2814 0.82995 0.0
H1907 H 0.18113 0.27837 0.88711 0.0
C1908 C 0.17458 0.24393 0.8883 0.0
C1909 C 0.16629 0.22571 0.8768 0.0
C1910 C 0.14562 0.29356 0.83382 0.0
C1911 C 0.16649 0.26642 0.85632 0.0
C1912 C 0.14197 0.31537 0.8283 0.0
C1913 C 0.15732 0.3315 0.83463 0.0
C1914 C 0.16442 0.28811 0.84616 0.0
C1915 C 0.177 0.32489 0.84486 0.0
C1916 C 0.175 0.26429 0.87796 0.0
C1917 C 0.15866 0.22839 0.85488 0.0
N1918 N 0.17973 0.30377 0.85086 0.0
N1919 N 0.15858 0.24849 0.84543 0.0
H1920 H 0.38213 0.907 0.07383 0.0
H1921 H 0.3914 0.03054 0.11572 0.0
H1922 H 0.41149 0.92471 0.13697 0.0
H1923 H 0.34277 0.00739 0.06864 0.0
H1924 H 0.4058 0.99337 0.11862 0.0
H1925 H 0.37527 0.94538 0.06647 0.0
C1926 C 0.38769 0.91896 0.08593 0.0
C1927 C 0.39747 0.91254 0.10608 0.0
C1928 C 0.39216 0.99651 0.10746 0.0
C1929 C 0.38916 0.95663 0.09784 0.0
C1930 C 0.38407 0.0177 0.10563 0.0
C1931 C 0.36607 0.02199 0.09168 0.0
C1932 C 0.38226 0.97959 0.09511 0.0
C1933 C 0.35673 0.0047 0.07951 0.0
C1934 C 0.38349 0.94089 0.08179 0.0
C1935 C 0.40385 0.9289 0.12127 0.0
N1936 N 0.36497 0.98423 0.08146 0.0
N1937 N 0.39946 0.95023 0.1169 0.0
H1938 H 0.93283 0.5853 0.85822 0.0
H1939 H 0.87913 0.49576 0.93668 0.0
H1940 H 0.92007 0.59537 0.92812 0.0
H1941 H 0.88383 0.49136 0.86526 0.0
H1942 H 0.90353 0.52796 0.93599 0.0
H1943 H 0.92639 0.5463 0.86325 0.0
C1944 C 0.92934 0.57927 0.87477 0.0
C1945 C 0.92608 0.59374 0.89258 0.0
C1946 C 0.89949 0.51972 0.92052 0.0
C1947 C 0.91817 0.54924 0.8983 0.0
C1948 C 0.88559 0.50142 0.92093 0.0
C1949 C 0.87935 0.49121 0.90098 0.0
C1950 C 0.90713 0.52769 0.9 0.0
C1951 C 0.88797 0.49912 0.88096 0.0
C1952 C 0.92547 0.55699 0.8776 0.0
C1953 C 0.92207 0.58489 0.91375 0.0
N1954 N 0.90129 0.51699 0.88096 0.0
N1955 N 0.91758 0.56324 0.91591 0.0
H1956 H 0.76326 0.62625 0.18219 0.0
H1957 H 0.66362 0.65902 0.10183 0.0
H1958 H 0.76162 0.61414 0.11153 0.0
H1959 H 0.6584 0.65688 0.17344 0.0
H1960 H 0.70272 0.65086 0.10512 0.0
H1961 H 0.72755 0.64452 0.17919 0.0
C1962 C 0.75543 0.62766 0.16604 0.0
C1963 C 0.76527 0.61879 0.14707 0.0
C1964 C 0.69307 0.65251 0.12012 0.0
C1965 C 0.7247 0.63954 0.14346 0.0
C1966 C 0.67077 0.65739 0.11828 0.0
C1967 C 0.65759 0.65826 0.13737 0.0
C1968 C 0.70227 0.64856 0.1412 0.0
C1969 C 0.66785 0.65605 0.15824 0.0
C1970 C 0.73511 0.63803 0.16433 0.0
C1971 C 0.75443 0.6207 0.12655 0.0
N1972 N 0.68952 0.651 0.15959 0.0
N1973 N 0.73472 0.63087 0.12528 0.0
H1974 H 0.57945 0.41493 0.40638 0.0
H1975 H 0.64628 0.51738 0.36104 0.0
H1976 H 0.5959 0.42427 0.33727 0.0
H1977 H 0.62122 0.51397 0.42792 0.0
H1978 H 0.626 0.48396 0.35174 0.0
H1979 H 0.59123 0.45241 0.41416 0.0
C1980 C 0.58518 0.42496 0.39277 0.0
C1981 C 0.58722 0.41626 0.37127 0.0
C1982 C 0.62476 0.49053 0.36843 0.0
C1983 C 0.60091 0.45905 0.38004 0.0
C1984 C 0.63651 0.50946 0.37377 0.0
C1985 C 0.63535 0.51825 0.39525 0.0
C1986 C 0.612 0.48018 0.3848 0.0
C1987 C 0.62237 0.50761 0.41114 0.0
C1988 C 0.59191 0.44637 0.39722 0.0
C1989 C 0.59422 0.43019 0.35415 0.0
N1990 N 0.61126 0.48899 0.40564 0.0
N1991 N 0.60122 0.45078 0.359 0.0
H1992 H 0.31775 0.83437 0.09111 0.0
H1993 H 0.22105 0.88576 0.16391 0.0
H1994 H 0.32563 0.85502 0.1595 0.0
H1995 H 0.21036 0.85515 0.09992 0.0
H1996 H 0.25995 0.87607 0.16179 0.0
H1997 H 0.27843 0.84213 0.09365 0.0
C1998 C 0.3112 0.84022 0.10674 0.0
C1999 C 0.32509 0.84413 0.12507 0.0
C2000 C 0.24908 0.8715 0.1482 0.0
C2001 C 0.28021 0.85345 0.12795 0.0
C2002 C 0.22691 0.87718 0.14934 0.0
C2003 C 0.21244 0.87124 0.13209 0.0
C2004 C 0.25683 0.85991 0.12962 0.0
C2005 C 0.22092 0.86002 0.11364 0.0
C2006 C 0.28877 0.84477 0.10814 0.0
C2007 C 0.31563 0.85181 0.14488 0.0
N2008 N 0.24254 0.85472 0.1129 0.0
N2009 N 0.29386 0.85639 0.14572 0.0
H2010 H 0.14244 0.98472 0.58747 0.0
H2011 H 0.06813 0.07028 0.65351 0.0
H2012 H 0.10104 0.96833 0.64331 0.0
H2013 H 0.10613 0.08754 0.5955 0.0
H2014 H 0.07819 0.0322 0.6481 0.0
H2015 H 0.12837 0.02218 0.5888 0.0
C2016 C 0.13047 0.98899 0.60001 0.0
C2017 C 0.123 0.9734 0.61536 0.0
C2018 C 0.08415 0.04427 0.63639 0.0
C2019 C 0.10673 0.016 0.61686 0.0
C2020 C 0.07831 0.06603 0.63942 0.0
C2021 C 0.08638 0.08218 0.62503 0.0
C2022 C 0.09835 0.03858 0.61895 0.0
C2023 C 0.09948 0.07565 0.60701 0.0
C2024 C 0.12236 0.01031 0.60069 0.0
C2025 C 0.10736 0.97978 0.63116 0.0
N2026 N 0.10528 0.05438 0.60464 0.0
N2027 N 0.09982 0.00054 0.63152 0.0
H2028 H 0.65845 0.35239 0.31726 0.0
H2029 H 0.76604 0.39025 0.38391 0.0
H2030 H 0.66662 0.34541 0.38833 0.0
H2031 H 0.75764 0.39856 0.31318 0.0
H2032 H 0.73091 0.37066 0.38529 0.0
H2033 H 0.69664 0.36454 0.31462 0.0
C2034 C 0.66838 0.35296 0.33227 0.0
C2035 C 0.65916 0.34825 0.35312 0.0
C2036 C 0.73677 0.37663 0.36942 0.0
C2037 C 0.70279 0.36253 0.35021 0.0
C2038 C 0.75669 0.38798 0.36867 0.0
C2039 C 0.76471 0.39585 0.34837 0.0
C2040 C 0.72468 0.3733 0.34972 0.0
C2041 C 0.75217 0.39235 0.32907 0.0
C2042 C 0.69016 0.36006 0.33075 0.0
C2043 C 0.67291 0.34912 0.37193 0.0
N2044 N 0.73269 0.38136 0.33022 0.0
N2045 N 0.69394 0.35648 0.37007 0.0
H2046 H 0.8295 0.64524 0.91046 0.0
H2047 H 0.74123 0.58255 0.83366 0.0
H2048 H 0.83929 0.63077 0.84085 0.0
H2049 H 0.73368 0.59161 0.90436 0.0
H2050 H 0.77629 0.60245 0.83547 0.0
H2051 H 0.79291 0.62854 0.90796 0.0
C2052 C 0.82387 0.63887 0.89458 0.0
C2053 C 0.83755 0.63943 0.87583 0.0
C2054 C 0.76696 0.60014 0.8506 0.0
C2055 C 0.79584 0.62007 0.87294 0.0
C2056 C 0.74695 0.58888 0.84952 0.0
C2057 C 0.73456 0.58578 0.86883 0.0
C2058 C 0.77456 0.60827 0.87116 0.0
C2059 C 0.74288 0.59369 0.88911 0.0
C2060 C 0.80303 0.62922 0.8932 0.0
C2061 C 0.82936 0.63085 0.85571 0.0
N2062 N 0.76235 0.60468 0.88976 0.0
N2063 N 0.80911 0.62143 0.85484 0.0
H2064 H 0.84204 0.61335 0.07761 0.0
H2065 H 0.91652 0.65481 0.97656 0.0
H2066 H 0.9128 0.60792 0.07569 0.0
H2067 H 0.84558 0.65778 0.97633 0.0
H2068 H 0.91527 0.638 0.01325 0.0
H2069 H 0.84266 0.62813 0.0399 0.0
C2070 C 0.85766 0.61481 0.06912 0.0
C2071 C 0.87742 0.60957 0.07996 0.0
C2072 C 0.89997 0.64241 0.00523 0.0
C2073 C 0.87826 0.62695 0.03702 0.0
C2074 C 0.90068 0.65221 0.98434 0.0
C2075 C 0.88111 0.65764 0.97328 0.0
C2076 C 0.87955 0.638 0.01517 0.0
C2077 C 0.86108 0.65386 0.98421 0.0
C2078 C 0.85802 0.62347 0.04767 0.0
C2079 C 0.89716 0.61188 0.0681 0.0
N2080 N 0.86081 0.64415 0.00451 0.0
N2081 N 0.89708 0.62062 0.04739 0.0
H2082 H 0.13116 0.08588 0.83742 0.0
H2083 H 0.09454 0.15259 0.73185 0.0
H2084 H 0.16406 0.14477 0.8154 0.0
H2085 H 0.08792 0.08227 0.73173 0.0
H2086 H 0.11501 0.15049 0.7667 0.0
H2087 H 0.11233 0.0836 0.80125 0.0
C2088 C 0.13491 0.09797 0.82483 0.0
C2089 C 0.14893 0.11578 0.82961 0.0
C2090 C 0.10898 0.13552 0.75908 0.0
C2091 C 0.12695 0.11361 0.78882 0.0
C2092 C 0.09702 0.13672 0.73935 0.0
C2093 C 0.08963 0.11755 0.72879 0.0
C2094 C 0.11333 0.11507 0.76853 0.0
C2095 C 0.09345 0.09744 0.7393 0.0
C2096 C 0.12399 0.09676 0.80433 0.0
C2097 C 0.15312 0.13097 0.81265 0.0
N2098 N 0.10509 0.09668 0.75866 0.0
N2099 N 0.14183 0.12979 0.79321 0.0
H2100 H 0.5769 0.37094 0.59084 0.0
H2101 H 0.62539 0.37678 0.4684 0.0
H2102 H 0.64146 0.39801 0.578 0.0
H2103 H 0.58082 0.32625 0.49047 0.0
H2104 H 0.62705 0.3913 0.50653 0.0
H2105 H 0.57299 0.36231 0.55153 0.0
C2106 C 0.59005 0.37564 0.57971 0.0
C2107 C 0.60961 0.38518 0.5878 0.0
C2108 C 0.61689 0.37708 0.50296 0.0
C2109 C 0.60527 0.37489 0.54279 0.0
C2110 C 0.61592 0.36884 0.48135 0.0
C2111 C 0.60288 0.35042 0.47654 0.0
C2112 C 0.60443 0.36697 0.51965 0.0
C2113 C 0.59105 0.34048 0.49369 0.0
C2114 C 0.58787 0.37041 0.5573 0.0
C2115 C 0.62616 0.39056 0.5725 0.0
N2116 N 0.59197 0.349 0.51455 0.0
N2117 N 0.62368 0.3852 0.55065 0.0
H2118 H 0.38711 0.84261 0.21812 0.0
H2119 H 0.33662 0.91433 0.31578 0.0
H2120 H 0.36144 0.90724 0.20717 0.0
H2121 H 0.34341 0.84423 0.31925 0.0
H2122 H 0.34675 0.9129 0.27645 0.0
H2123 H 0.3737 0.84403 0.25639 0.0
C2124 C 0.37885 0.85718 0.22383 0.0
C2125 C 0.37539 0.87483 0.20946 0.0
C2126 C 0.34575 0.89783 0.2858 0.0
C2127 C 0.35984 0.87649 0.25311 0.0
C2128 C 0.33985 0.89861 0.30822 0.0
C2129 C 0.33931 0.8794 0.32093 0.0
C2130 C 0.3514 0.87774 0.27613 0.0
C2131 C 0.34369 0.85949 0.31019 0.0
C2132 C 0.37101 0.85789 0.2456 0.0
C2133 C 0.36443 0.89324 0.2177 0.0
N2134 N 0.34983 0.85922 0.28852 0.0
N2135 N 0.35708 0.89362 0.23901 0.0
H2136 H 0.91814 0.37093 0.39506 0.0
H2137 H 0.8786 0.38569 0.52048 0.0
H2138 H 0.86308 0.41134 0.41305 0.0
H2139 H 0.91091 0.32781 0.49668 0.0
H2140 H 0.87942 0.40067 0.48274 0.0
H2141 H 0.92265 0.36098 0.43409 0.0
C2142 C 0.90723 0.37807 0.40724 0.0
C2143 C 0.89002 0.39184 0.40072 0.0
C2144 C 0.88652 0.3848 0.48584 0.0
C2145 C 0.89517 0.3804 0.44538 0.0
C2146 C 0.88621 0.37632 0.50734 0.0
C2147 C 0.89498 0.35563 0.51162 0.0
C2148 C 0.89583 0.37255 0.46859 0.0
C2149 C 0.90408 0.34386 0.49397 0.0
C2150 C 0.90976 0.37221 0.42948 0.0
C2151 C 0.87645 0.40054 0.4173 0.0
N2152 N 0.90437 0.35253 0.47317 0.0
N2153 N 0.87924 0.39458 0.4389 0.0
H2154 H 0.38065 0.10012 0.26763 0.0
H2155 H 0.33003 0.1674 0.16756 0.0
H2156 H 0.37451 0.17023 0.26675 0.0
H2157 H 0.3407 0.09777 0.16594 0.0
H2158 H 0.33668 0.16725 0.20755 0.0
H2159 H 0.35843 0.09787 0.23371 0.0
C2160 C 0.37446 0.11503 0.26034 0.0
C2161 C 0.37933 0.13539 0.26996 0.0
C2162 C 0.33711 0.15192 0.19853 0.0
C2163 C 0.35389 0.13299 0.23128 0.0
C2164 C 0.33316 0.15196 0.17569 0.0
C2165 C 0.33556 0.13268 0.16325 0.0
C2166 C 0.34363 0.13251 0.20892 0.0
C2167 C 0.33917 0.11311 0.17477 0.0
C2168 C 0.36163 0.11373 0.24111 0.0
C2169 C 0.37077 0.1542 0.26008 0.0
N2170 N 0.34366 0.11361 0.19691 0.0
N2171 N 0.35864 0.15256 0.24112 0.0
H2172 H 0.6407 0.57622 0.93066 0.0
H2173 H 0.55799 0.63577 0.01361 0.0
H2174 H 0.57323 0.59022 0.91347 0.0
H2175 H 0.62859 0.63582 0.02049 0.0
H2176 H 0.56127 0.61219 0.98058 0.0
H2177 H 0.63396 0.58963 0.96821 0.0
C2178 C 0.62433 0.58164 0.93489 0.0
C2179 C 0.60766 0.5826 0.91873 0.0
C2180 C 0.576 0.6173 0.98944 0.0
C2181 C 0.59997 0.5983 0.96154 0.0
C2182 C 0.57412 0.63072 0.00816 0.0
C2183 C 0.59307 0.63779 0.01949 0.0
C2184 C 0.59695 0.61082 0.98232 0.0
C2185 C 0.61363 0.63095 0.01191 0.0
C2186 C 0.62054 0.58946 0.95629 0.0
C2187 C 0.58669 0.58955 0.92529 0.0
N2188 N 0.61503 0.61784 0.99379 0.0
N2189 N 0.58353 0.59751 0.94613 0.0
H2190 H 0.15415 0.92185 0.6731 0.0
H2191 H 0.10213 0.85193 0.77127 0.0
H2192 H 0.15222 0.85133 0.67316 0.0
H2193 H 0.12668 0.91758 0.78162 0.0
H2194 H 0.11701 0.85267 0.73352 0.0
H2195 H 0.14251 0.92166 0.71201 0.0
C2196 C 0.15171 0.90631 0.68135 0.0
C2197 C 0.15394 0.88655 0.66964 0.0
C2198 C 0.11909 0.86692 0.74406 0.0
C2199 C 0.14001 0.8863 0.71396 0.0
C2200 C 0.11037 0.86661 0.7655 0.0
C2201 C 0.11316 0.88473 0.77959 0.0
C2202 C 0.13043 0.88559 0.73656 0.0
C2203 C 0.12419 0.90324 0.7713 0.0
C2204 C 0.14491 0.90624 0.70353 0.0
C2205 C 0.15052 0.86696 0.68131 0.0
N2206 N 0.13239 0.90322 0.7503 0.0
N2207 N 0.14339 0.86733 0.70268 0.0
H2208 H 0.07796 0.91684 0.59668 0.0
H2209 H 0.98226 0.8459 0.65274 0.0
H2210 H 0.0815 0.847 0.60608 0.0
H2211 H 0.98195 0.91632 0.64851 0.0
H2212 H 0.01777 0.84564 0.634 0.0
H2213 H 0.04091 0.91628 0.6119 0.0
C2214 C 0.07079 0.90129 0.60147 0.0
C2215 C 0.08303 0.88197 0.60036 0.0
C2216 C 0.00999 0.86115 0.63727 0.0
C2217 C 0.04073 0.88133 0.61829 0.0
C2218 C 0.98979 0.86134 0.64815 0.0
C2219 C 0.97908 0.88117 0.65218 0.0
C2220 C 0.01952 0.88093 0.63029 0.0
C2221 C 0.98961 0.90065 0.64581 0.0
C2222 C 0.04969 0.90103 0.6104 0.0
C2223 C 0.07277 0.86233 0.60674 0.0
N2224 N 0.00919 0.90002 0.63505 0.0
N2225 N 0.05231 0.86256 0.61572 0.0
H2226 H 0.88267 0.3147 0.31267 0.0
H2227 H 0.82897 0.24244 0.40416 0.0
H2228 H 0.82571 0.33629 0.34905 0.0
H2229 H 0.8588 0.21271 0.34677 0.0
H2230 H 0.82788 0.2773 0.38421 0.0
H2231 H 0.87432 0.27709 0.32389 0.0
C2232 C 0.86814 0.31151 0.32255 0.0
C2233 C 0.85507 0.32875 0.33017 0.0
C2234 C 0.83424 0.26304 0.37581 0.0
C2235 C 0.84579 0.28596 0.34344 0.0
C2236 C 0.83492 0.24323 0.38721 0.0
C2237 C 0.84376 0.22477 0.37695 0.0
C2238 C 0.84313 0.26447 0.35431 0.0
C2239 C 0.8515 0.22656 0.35506 0.0
C2240 C 0.86341 0.29006 0.32896 0.0
C2241 C 0.83639 0.3236 0.3429 0.0
N2242 N 0.85137 0.2462 0.34456 0.0
N2243 N 0.8326 0.30275 0.34955 0.0
H2244 H 0.52418 0.09508 0.15536 0.0
H2245 H 0.42865 0.16791 0.1027 0.0
H2246 H 0.53593 0.15878 0.12685 0.0
H2247 H 0.42187 0.09906 0.11672 0.0
H2248 H 0.46722 0.16625 0.1144 0.0
H2249 H 0.48536 0.09795 0.14511 0.0
C2250 C 0.51856 0.10976 0.14717 0.0
C2251 C 0.53331 0.12666 0.14183 0.0
C2252 C 0.45727 0.1515 0.11475 0.0
C2253 C 0.48903 0.12997 0.12991 0.0
C2254 C 0.43528 0.15242 0.10803 0.0
C2255 C 0.42201 0.13355 0.10853 0.0
C2256 C 0.46594 0.13163 0.12228 0.0
C2257 C 0.43149 0.11394 0.1157 0.0
C2258 C 0.49644 0.11133 0.14118 0.0
C2259 C 0.52513 0.1453 0.13116 0.0
N2260 N 0.45281 0.11352 0.1224 0.0
N2261 N 0.50353 0.14644 0.12549 0.0
H2262 H 0.67509 0.75206 0.89313 0.0
H2263 H 0.60343 0.65822 0.83384 0.0
H2264 H 0.60492 0.75409 0.88314 0.0
H2265 H 0.66859 0.64735 0.86021 0.0
H2266 H 0.60723 0.69685 0.84307 0.0
H2267 H 0.6759 0.71672 0.87348 0.0
C2268 C 0.65995 0.74515 0.88655 0.0
C2269 C 0.6399 0.75578 0.88974 0.0
C2270 C 0.62083 0.68606 0.84653 0.0
C2271 C 0.64065 0.71582 0.86732 0.0
C2272 C 0.61874 0.66399 0.84113 0.0
C2273 C 0.63555 0.64938 0.84664 0.0
C2274 C 0.63985 0.69362 0.85752 0.0
C2275 C 0.6551 0.65794 0.85588 0.0
C2276 C 0.66039 0.72506 0.87541 0.0
C2277 C 0.62066 0.7462 0.88115 0.0
N2278 N 0.65659 0.67947 0.86137 0.0
N2279 N 0.6215 0.72676 0.87035 0.0
H2280 H 0.99304 0.15817 0.83604 0.0
H2281 H 0.08215 0.11782 0.92329 0.0
H2282 H 0.97965 0.10877 0.88528 0.0
H2283 H 0.09173 0.17355 0.88042 0.0
H2284 H 0.0433 0.11705 0.91301 0.0
H2285 H 0.02825 0.16603 0.85429 0.0
C2286 C 0.9975 0.14908 0.85081 0.0
C2287 C 0.9834 0.13293 0.85929 0.0
C2288 C 0.05381 0.1297 0.90616 0.0
C2289 C 0.02369 0.1417 0.88024 0.0
C2290 C 0.07602 0.13021 0.91211 0.0
C2291 C 0.09039 0.14549 0.90236 0.0
C2292 C 0.04593 0.14444 0.8902 0.0
C2293 C 0.08138 0.16131 0.8882 0.0
C2294 C 0.01752 0.15366 0.86132 0.0
C2295 C 0.98992 0.12161 0.87844 0.0
N2296 N 0.05983 0.16011 0.88221 0.0
N2297 N 0.00968 0.12609 0.88818 0.0
H2298 H 0.59475 0.21682 0.59109 0.0
H2299 H 0.65861 0.31238 0.65456 0.0
H2300 H 0.66364 0.21294 0.60829 0.0
H2301 H 0.58779 0.30736 0.6512 0.0
H2302 H 0.66116 0.27587 0.6384 0.0
H2303 H 0.59244 0.25093 0.61193 0.0
C2304 C 0.60947 0.22327 0.59902 0.0
C2305 C 0.62943 0.21199 0.59793 0.0
C2306 C 0.64506 0.28262 0.64154 0.0
C2307 C 0.62679 0.25091 0.62213 0.0
C2308 C 0.64358 0.30341 0.65092 0.0
C2309 C 0.62295 0.31307 0.65402 0.0
C2310 C 0.62579 0.27154 0.63498 0.0
C2311 C 0.60405 0.30063 0.64905 0.0
C2312 C 0.60807 0.24262 0.61115 0.0
C2313 C 0.64792 0.2211 0.60868 0.0
N2314 N 0.60593 0.28065 0.63941 0.0
N2315 N 0.64615 0.24005 0.62034 0.0
H2316 H 0.51608 0.9148 0.36336 0.0
H2317 H 0.41115 0.84005 0.39048 0.0
H2318 H 0.51345 0.84529 0.35183 0.0
H2319 H 0.41338 0.91007 0.39901 0.0
H2320 H 0.45042 0.8407 0.38189 0.0
H2321 H 0.48008 0.91261 0.38125 0.0
C2322 C 0.50808 0.89901 0.36502 0.0
C2323 C 0.51783 0.88014 0.35651 0.0
C2324 C 0.44236 0.85589 0.38597 0.0
C2325 C 0.47644 0.87752 0.37638 0.0
C2326 C 0.41995 0.85551 0.39106 0.0
C2327 C 0.40883 0.8751 0.3952 0.0
C2328 C 0.45368 0.87598 0.38502 0.0
C2329 C 0.42115 0.89461 0.39569 0.0
C2330 C 0.48747 0.89777 0.37506 0.0
C2331 C 0.50642 0.86021 0.35824 0.0
N2332 N 0.44281 0.89459 0.39039 0.0
N2333 N 0.48629 0.85941 0.36796 0.0
H2334 H 0.88997 0.77452 0.09651 0.0
H2335 H 0.84326 0.67509 0.16807 0.0
H2336 H 0.82663 0.77546 0.1287 0.0
H2337 H 0.90944 0.67846 0.14257 0.0
H2338 H 0.83753 0.71272 0.15616 0.0
H2339 H 0.89739 0.7394 0.11387 0.0
C2340 C 0.87751 0.76725 0.10704 0.0
C2341 C 0.85762 0.77796 0.1111 0.0
C2342 C 0.85341 0.70533 0.15346 0.0
C2343 C 0.86618 0.73783 0.13135 0.0
C2344 C 0.85672 0.68385 0.16035 0.0
C2345 C 0.87668 0.67341 0.15587 0.0
C2346 C 0.87016 0.71637 0.14191 0.0
C2347 C 0.89371 0.68575 0.14622 0.0
C2348 C 0.88186 0.74727 0.11715 0.0
C2349 C 0.84216 0.76777 0.12504 0.0
N2350 N 0.88992 0.70644 0.13921 0.0
N2351 N 0.84677 0.74826 0.13466 0.0
H2352 H 0.60414 0.07108 0.92108 0.0
H2353 H 0.59948 0.95652 0.85696 0.0
H2354 H 0.5775 0.06241 0.85487 0.0
H2355 H 0.63377 0.96623 0.91931 0.0
H2356 H 0.58803 0.9945 0.85785 0.0
H2357 H 0.61081 0.03186 0.92299 0.0
C2358 C 0.59931 0.06091 0.90708 0.0
C2359 C 0.59042 0.07015 0.88767 0.0
C2360 C 0.59805 0.98837 0.87136 0.0
C2361 C 0.59833 0.02523 0.88971 0.0
C2362 C 0.60468 0.96666 0.87084 0.0
C2363 C 0.61773 0.95818 0.88804 0.0
C2364 C 0.60444 0.00182 0.88923 0.0
C2365 C 0.62385 0.97212 0.90563 0.0
C2366 C 0.6033 0.03852 0.90815 0.0
C2367 C 0.58451 0.05609 0.87011 0.0
N2368 N 0.61715 0.99329 0.90577 0.0
N2369 N 0.58875 0.03438 0.87148 0.0
H2370 H 0.07944 0.41215 0.06129 0.0
H2371 H 0.11548 0.51819 0.1256 0.0
H2372 H 0.06595 0.42402 0.13075 0.0
H2373 H 0.1235 0.50994 0.05488 0.0
H2374 H 0.09019 0.48704 0.12601 0.0
H2375 H 0.08665 0.45103 0.05633 0.0
C2376 C 0.07731 0.42299 0.07538 0.0
C2377 C 0.07303 0.41468 0.09671 0.0
C2378 C 0.0972 0.49213 0.1103 0.0
C2379 C 0.08167 0.45908 0.09119 0.0
C2380 C 0.11179 0.50975 0.11013 0.0
C2381 C 0.12176 0.51621 0.09025 0.0
C2382 C 0.09296 0.48058 0.09049 0.0
C2383 C 0.11619 0.5052 0.07055 0.0
C2384 C 0.08157 0.44523 0.07254 0.0
C2385 C 0.06994 0.4296 0.11416 0.0
N2386 N 0.1024 0.48761 0.07121 0.0
N2387 N 0.07494 0.45102 0.11115 0.0
H2388 H 0.33418 0.33896 0.90679 0.0
H2389 H 0.24086 0.40013 0.83651 0.0
H2390 H 0.34369 0.36124 0.83937 0.0
H2391 H 0.22998 0.36993 0.90038 0.0
H2392 H 0.27912 0.38756 0.83767 0.0
H2393 H 0.29592 0.35048 0.90466 0.0
C2394 C 0.32815 0.34593 0.8914 0.0
C2395 C 0.34225 0.34908 0.87323 0.0
C2396 C 0.26833 0.38378 0.85145 0.0
C2397 C 0.29846 0.36281 0.87084 0.0
C2398 C 0.24659 0.39114 0.85088 0.0
C2399 C 0.23221 0.38605 0.86836 0.0
C2400 C 0.27571 0.37139 0.86967 0.0
C2401 C 0.24044 0.37416 0.88648 0.0
C2402 C 0.30631 0.35266 0.89023 0.0
C2403 C 0.33346 0.35834 0.85376 0.0
N2404 N 0.26156 0.36723 0.88664 0.0
N2405 N 0.31221 0.36505 0.85315 0.0
H2406 H 0.38078 0.58396 0.58585 0.0
H2407 H 0.33954 0.47969 0.65351 0.0
H2408 H 0.39772 0.57185 0.65456 0.0
H2409 H 0.33057 0.48661 0.5827 0.0
H2410 H 0.36075 0.51379 0.65411 0.0
H2411 H 0.36368 0.54789 0.58375 0.0
C2412 C 0.38136 0.57358 0.60037 0.0
C2413 C 0.39062 0.58108 0.62047 0.0
C2414 C 0.35423 0.50785 0.6384 0.0
C2415 C 0.37049 0.53994 0.61831 0.0
C2416 C 0.34195 0.48855 0.63812 0.0
C2417 C 0.33353 0.4804 0.618 0.0
C2418 C 0.3579 0.51916 0.61844 0.0
C2419 C 0.33717 0.49228 0.59847 0.0
C2420 C 0.37139 0.55302 0.5992 0.0
C2421 C 0.39064 0.56688 0.63877 0.0
N2422 N 0.3491 0.51114 0.59916 0.0
N2423 N 0.38048 0.5471 0.63733 0.0
H2424 H 0.76378 0.07767 0.8416 0.0
H2425 H 0.6767 0.15777 0.89143 0.0
H2426 H 0.78061 0.14585 0.84976 0.0
H2427 H 0.65797 0.11248 0.83938 0.0
H2428 H 0.71562 0.15061 0.88307 0.0
H2429 H 0.72486 0.08673 0.84754 0.0
C2430 C 0.75925 0.0945 0.84456 0.0
C2431 C 0.77531 0.11106 0.845 0.0
C2432 C 0.70287 0.14243 0.87345 0.0
C2433 C 0.7313 0.12134 0.85245 0.0
C2434 C 0.68077 0.14648 0.8782 0.0
C2435 C 0.66412 0.13582 0.86599 0.0
C2436 C 0.70822 0.1271 0.85695 0.0
C2437 C 0.67027 0.12122 0.84906 0.0
C2438 C 0.73716 0.09964 0.8479 0.0
C2439 C 0.76865 0.13264 0.84902 0.0
N2440 N 0.69182 0.11704 0.84526 0.0
N2441 N 0.74716 0.13715 0.8529 0.0
H2442 H 0.89403 0.91165 0.41407 0.0
H2443 H 0.89747 0.0268 0.35173 0.0
H2444 H 0.91899 0.92062 0.34752 0.0
H2445 H 0.85996 0.01535 0.41146 0.0
H2446 H 0.90922 0.98891 0.35224 0.0
H2447 H 0.88617 0.95065 0.41601 0.0
C2448 C 0.8983 0.92185 0.40001 0.0
C2449 C 0.90714 0.91274 0.38053 0.0
C2450 C 0.89841 0.99463 0.36524 0.0
C2451 C 0.89781 0.95743 0.3826 0.0
C2452 C 0.89164 0.0163 0.36497 0.0
C2453 C 0.87762 0.02428 0.38156 0.0
C2454 C 0.89127 0.98073 0.38231 0.0
C2455 C 0.87066 0.00985 0.39827 0.0
C2456 C 0.89357 0.94411 0.40108 0.0
C2457 C 0.91212 0.92685 0.36284 0.0
N2458 N 0.8776 0.98875 0.39825 0.0
N2459 N 0.90726 0.94843 0.36425 0.0
H2460 H 0.33084 0.66944 0.60336 0.0
H2461 H 0.24097 0.61037 0.67837 0.0
H2462 H 0.33924 0.65712 0.67361 0.0
H2463 H 0.23643 0.61787 0.60718 0.0
H2464 H 0.2734 0.63446 0.67864 0.0
H2465 H 0.29211 0.65953 0.60664 0.0
C2466 C 0.32445 0.66528 0.61962 0.0
C2467 C 0.33851 0.66335 0.63808 0.0
C2468 C 0.26514 0.63104 0.663 0.0
C2469 C 0.29433 0.65147 0.64179 0.0
C2470 C 0.24666 0.61733 0.66286 0.0
C2471 C 0.23614 0.61217 0.64273 0.0
C2472 C 0.27309 0.63954 0.64283 0.0
C2473 C 0.24433 0.62124 0.62302 0.0
C2474 C 0.30233 0.65941 0.62144 0.0
C2475 C 0.32914 0.65827 0.65879 0.0
N2476 N 0.26237 0.63441 0.62355 0.0
N2477 N 0.30773 0.65195 0.65998 0.0
H2478 H 0.26404 0.39224 0.17126 0.0
H2479 H 0.16755 0.36401 0.08474 0.0
H2480 H 0.26626 0.40901 0.10169 0.0
H2481 H 0.15815 0.36457 0.15594 0.0
H2482 H 0.20578 0.37528 0.09048 0.0
H2483 H 0.22675 0.37741 0.1658 0.0
C2484 C 0.25664 0.39266 0.15484 0.0
C2485 C 0.26811 0.40161 0.13684 0.0
C2486 C 0.19535 0.37282 0.10483 0.0
C2487 C 0.2258 0.38484 0.13045 0.0
C2488 C 0.17357 0.36625 0.10159 0.0
C2489 C 0.15958 0.36347 0.11989 0.0
C2490 C 0.20325 0.37647 0.12653 0.0
C2491 C 0.16831 0.36665 0.14134 0.0
C2492 C 0.23542 0.3843 0.15174 0.0
C2493 C 0.25783 0.40221 0.11596 0.0
N2494 N 0.18958 0.37305 0.14407 0.0
N2495 N 0.23726 0.39381 0.11328 0.0
H2496 H 0.5945 0.86958 0.41244 0.0
H2497 H 0.66509 0.85801 0.52427 0.0
H2498 H 0.66114 0.89344 0.42031 0.0
H2499 H 0.5999 0.83053 0.51636 0.0
H2500 H 0.66378 0.87076 0.48597 0.0
H2501 H 0.59543 0.85629 0.4507 0.0
C2502 C 0.60919 0.8724 0.42229 0.0
C2503 C 0.62777 0.8827 0.41308 0.0
C2504 C 0.64979 0.86181 0.49249 0.0
C2505 C 0.62907 0.86706 0.45678 0.0
C2506 C 0.65058 0.8544 0.51435 0.0
C2507 C 0.63255 0.84324 0.52353 0.0
C2508 C 0.63076 0.85819 0.47967 0.0
C2509 C 0.61421 0.83899 0.50989 0.0
C2510 C 0.60978 0.86457 0.44409 0.0
C2511 C 0.64642 0.88561 0.42664 0.0
N2512 N 0.6137 0.84665 0.48865 0.0
N2513 N 0.64662 0.87774 0.44774 0.0
H2514 H 0.33997 0.32075 0.66419 0.0
H2515 H 0.38843 0.38262 0.76869 0.0
H2516 H 0.32287 0.38694 0.68168 0.0
H2517 H 0.3914 0.31258 0.76225 0.0
H2518 H 0.36263 0.38374 0.73752 0.0
H2519 H 0.35545 0.31591 0.70135 0.0
C2520 C 0.3389 0.33409 0.67602 0.0
C2521 C 0.33061 0.35449 0.6696 0.0
C2522 C 0.36874 0.36807 0.74297 0.0
C2523 C 0.34871 0.34915 0.71193 0.0
C2524 C 0.38366 0.36748 0.76055 0.0
C2525 C 0.39211 0.34751 0.76773 0.0
C2526 C 0.3625 0.34855 0.73225 0.0
C2527 C 0.38521 0.32828 0.75702 0.0
C2528 C 0.34786 0.33132 0.69722 0.0
C2529 C 0.32943 0.37105 0.68573 0.0
N2530 N 0.37093 0.32927 0.73957 0.0
N2531 N 0.33887 0.36817 0.70599 0.0
H2532 H 0.86339 0.18266 0.00215 0.0
H2533 H 0.89764 0.09748 0.91237 0.0
H2534 H 0.89044 0.12096 0.02313 0.0
H2535 H 0.83658 0.13252 0.90666 0.0
H2536 H 0.89962 0.1078 0.95184 0.0
H2537 H 0.85813 0.16735 0.96488 0.0
C2538 C 0.86856 0.16606 -0.00104 0.0
C2539 C 0.87807 0.15343 0.01588 0.0
C2540 C 0.88562 0.11282 0.94195 0.0
C2541 C 0.87207 0.13593 0.97327 0.0
C2542 C 0.88443 0.10689 0.91954 0.0
C2543 C 0.86695 0.1142 0.90626 0.0
C2544 C 0.86957 0.12662 0.95081 0.0
C2545 C 0.85029 0.12645 0.91632 0.0
C2546 C 0.8654 0.15733 0.97774 0.0
C2547 C 0.88415 0.13188 0.01069 0.0
N2548 N 0.85226 0.1327 0.93791 0.0
N2549 N 0.88127 0.12389 0.98977 0.0
H2550 H 0.15465 0.66513 0.15487 0.0
H2551 H 0.11185 0.599 0.25975 0.0
H2552 H 0.15916 0.59505 0.16143 0.0
H2553 H 0.11331 0.66935 0.25694 0.0
H2554 H 0.13281 0.59762 0.22522 0.0
H2555 H 0.14466 0.6676 0.19405 0.0
C2556 C 0.15407 0.65029 0.16465 0.0
C2557 C 0.15726 0.62978 0.15467 0.0
C2558 C 0.1288 0.61339 0.23222 0.0
C2559 C 0.14542 0.63252 0.19944 0.0
C2560 C 0.11668 0.61416 0.2518 0.0
C2561 C 0.11094 0.63431 0.26108 0.0
C2562 C 0.1349 0.63294 0.22163 0.0
C2563 C 0.11769 0.65351 0.25036 0.0
C2564 C 0.14823 0.65173 0.18702 0.0
C2565 C 0.15651 0.61119 0.16827 0.0
N2566 N 0.12918 0.65236 0.23104 0.0
N2567 N 0.15025 0.61296 0.18985 0.0
H2568 H 0.5901 0.14217 0.9773 0.0
H2569 H 0.64404 0.07455 0.07702 0.0
H2570 H 0.6462 0.10008 0.96985 0.0
H2571 H 0.58413 0.11127 0.08385 0.0
H2572 H 0.64411 0.08264 0.03733 0.0
H2573 H 0.58741 0.1311 0.01635 0.0
C2574 C 0.60195 0.13076 0.9839 0.0
C2575 C 0.61843 0.12208 0.97029 0.0
C2576 C 0.6308 0.08874 0.04744 0.0
C2577 C 0.61529 0.10915 0.01482 0.0
C2578 C 0.63069 0.08401 0.07012 0.0
C2579 C 0.61413 0.09235 0.08387 0.0
C2580 C 0.61436 0.10208 0.0384 0.0
C2581 C 0.59724 0.1045 0.07393 0.0
C2582 C 0.6003 0.12431 0.00614 0.0
C2583 C 0.63323 0.10722 0.9797 0.0
N2584 N 0.59793 0.10922 0.05185 0.0
N2585 N 0.63131 0.10125 0.00134 0.0
H2586 H 0.10104 0.40251 0.22626 0.0
H2587 H 0.1524 0.33788 0.32859 0.0
H2588 H 0.10775 0.33247 0.22851 0.0
H2589 H 0.13859 0.40694 0.32939 0.0
H2590 H 0.144 0.33691 0.28892 0.0
H2591 H 0.12101 0.40538 0.2615 0.0
C2592 C 0.10681 0.38773 0.23417 0.0
C2593 C 0.10291 0.36722 0.22442 0.0
C2594 C 0.14314 0.35234 0.29772 0.0
C2595 C 0.12585 0.37036 0.26462 0.0
C2596 C 0.14802 0.35293 0.32039 0.0
C2597 C 0.14548 0.37235 0.33254 0.0
C2598 C 0.1357 0.37133 0.28716 0.0
C2599 C 0.14036 0.39147 0.32083 0.0
C2600 C 0.11836 0.38939 0.25417 0.0
C2601 C 0.11088 0.34862 0.23518 0.0
N2602 N 0.13521 0.39039 0.29886 0.0
N2603 N 0.12187 0.35061 0.25482 0.0
H2604 H 0.86915 0.92568 0.57779 0.0
H2605 H 0.93971 0.85944 0.48924 0.0
H2606 H 0.93551 0.90411 0.59024 0.0
H2607 H 0.86977 0.86975 0.48543 0.0
H2608 H 0.94145 0.8836 0.522 0.0
H2609 H 0.87291 0.91478 0.539 0.0
C2610 C 0.88473 0.91919 0.57228 0.0
C2611 C 0.90178 0.91515 0.58747 0.0
C2612 C 0.92579 0.88074 0.51381 0.0
C2613 C 0.906 0.90223 0.5432 0.0
C2614 C 0.92481 0.86697 0.49523 0.0
C2615 C 0.90454 0.86253 0.48495 0.0
C2616 C 0.90637 0.89013 0.52189 0.0
C2617 C 0.88564 0.87254 0.49322 0.0
C2618 C 0.8868 0.91281 0.55013 0.0
C2619 C 0.92173 0.90707 0.57922 0.0
N2620 N 0.887 0.88581 0.51126 0.0
N2621 N 0.92312 0.90037 0.55771 0.0
H2622 H 0.39934 0.65696 0.72527 0.0
H2623 H 0.35409 0.58126 0.82349 0.0
H2624 H 0.39848 0.58643 0.72285 0.0
H2625 H 0.35852 0.65162 0.82749 0.0
H2626 H 0.36677 0.58307 0.78509 0.0
H2627 H 0.38269 0.65545 0.76211 0.0
C2628 C 0.3959 0.64115 0.73258 0.0
C2629 C 0.4003 0.62179 0.72093 0.0
C2630 C 0.36471 0.59813 0.79431 0.0
C2631 C 0.38086 0.61995 0.76292 0.0
C2632 C 0.35724 0.59714 0.81619 0.0
C2633 C 0.35546 0.61632 0.8289 0.0
C2634 C 0.37044 0.61844 0.78508 0.0
C2635 C 0.35977 0.6364 0.81846 0.0
C2636 C 0.38622 0.6403 0.75355 0.0
C2637 C 0.39541 0.60178 0.73122 0.0
N2638 N 0.36731 0.63691 0.79725 0.0
N2639 N 0.38586 0.60138 0.75159 0.0
H2640 H 0.52646 0.5764 0.84815 0.0
H2641 H 0.43141 0.64715 0.90372 0.0
H2642 H 0.53581 0.64299 0.87036 0.0
H2643 H 0.42657 0.57747 0.89283 0.0
H2644 H 0.46964 0.64619 0.89153 0.0
H2645 H 0.48892 0.57713 0.86261 0.0
C2646 C 0.52051 0.59127 0.85576 0.0
C2647 C 0.53427 0.60965 0.85809 0.0
C2648 C 0.46027 0.63108 0.89206 0.0
C2649 C 0.49157 0.61049 0.875 0.0
C2650 C 0.43847 0.63159 0.8992 0.0
C2651 C 0.42565 0.6124 0.89914 0.0
C2652 C 0.46923 0.61129 0.88464 0.0
C2653 C 0.43574 0.59271 0.89306 0.0
C2654 C 0.49919 0.5916 0.86425 0.0
C2655 C 0.52578 0.62842 0.86828 0.0
N2656 N 0.45684 0.59272 0.88579 0.0
N2657 N 0.50499 0.62834 0.87639 0.0
H2658 H 0.62653 0.279 0.1375 0.0
H2659 H 0.6691 0.15603 0.13851 0.0
H2660 H 0.67071 0.25297 0.08842 0.0
H2661 H 0.60664 0.1747 0.16637 0.0
H2662 H 0.67569 0.19393 0.1278 0.0
H2663 H 0.62457 0.24296 0.15517 0.0
C2664 C 0.63609 0.26574 0.13069 0.0
C2665 C 0.64899 0.26889 0.11165 0.0
C2666 C 0.66069 0.18974 0.13652 0.0
C2667 C 0.64678 0.22782 0.13166 0.0
C2668 C 0.65695 0.16813 0.14284 0.0
C2669 C 0.63713 0.16207 0.15316 0.0
C2670 C 0.64464 0.20549 0.14079 0.0
C2671 C 0.62206 0.17857 0.15829 0.0
C2672 C 0.63487 0.24522 0.14068 0.0
C2673 C 0.66064 0.25113 0.10313 0.0
N2674 N 0.62605 0.19953 0.1519 0.0
N2675 N 0.65933 0.23133 0.11325 0.0
H2676 H 0.95977 0.32711 0.35314 0.0
H2677 H 0.06128 0.40128 0.39211 0.0
H2678 H 0.9687 0.39459 0.33416 0.0
H2679 H 0.0636 0.33075 0.39277 0.0
H2680 H 0.02453 0.39917 0.376 0.0
H2681 H 0.99601 0.32803 0.37103 0.0
C2682 C 0.96949 0.34202 0.35246 0.0
C2683 C 0.9612 0.36082 0.34217 0.0
C2684 C 0.03303 0.38416 0.37982 0.0
C2685 C 0.0023 0.36209 0.36306 0.0
C2686 C 0.05394 0.38532 0.38927 0.0
C2687 C 0.0657 0.36614 0.39362 0.0
C2688 C 0.02367 0.3637 0.37481 0.0
C2689 C 0.05522 0.34596 0.38959 0.0
C2690 C 0.99008 0.34255 0.36278 0.0
C2691 C 0.97445 0.37969 0.34182 0.0
N2692 N 0.03482 0.34525 0.38025 0.0
N2693 N 0.99425 0.37991 0.35233 0.0
H2694 H 0.91097 0.82945 0.6645 0.0
H2695 H 0.85045 0.73758 0.59057 0.0
H2696 H 0.8494 0.84033 0.63041 0.0
H2697 H 0.90973 0.72716 0.62872 0.0
H2698 H 0.84958 0.77533 0.60447 0.0
H2699 H 0.90993 0.79152 0.65217 0.0
C2700 C 0.89707 0.82381 0.65467 0.0
C2701 C 0.88032 0.83819 0.64841 0.0
C2702 C 0.86278 0.76475 0.60973 0.0
C2703 C 0.8792 0.7947 0.63384 0.0
C2704 C 0.86338 0.74328 0.60166 0.0
C2705 C 0.88018 0.72919 0.60849 0.0
C2706 C 0.87914 0.77213 0.62466 0.0
C2707 C 0.89642 0.73739 0.62302 0.0
C2708 C 0.89653 0.80213 0.64751 0.0
C2709 C 0.86268 0.82985 0.63567 0.0
N2710 N 0.89546 0.75824 0.63061 0.0
N2711 N 0.86268 0.8087 0.62862 0.0
H2712 H 0.4899 0.39804 0.67807 0.0
H2713 H 0.41072 0.36047 0.5823 0.0
H2714 H 0.51566 0.37632 0.61516 0.0
H2715 H 0.39294 0.41255 0.62719 0.0
H2716 H 0.44912 0.36481 0.59412 0.0
H2717 H 0.45352 0.40185 0.66063 0.0
C2718 C 0.4879 0.39436 0.66054 0.0
C2719 C 0.50572 0.38715 0.64793 0.0
C2720 C 0.43683 0.37554 0.60103 0.0
C2721 C 0.46438 0.39095 0.62807 0.0
C2722 C 0.41494 0.3731 0.59428 0.0
C2723 C 0.39856 0.38603 0.60389 0.0
C2724 C 0.44222 0.39062 0.61788 0.0
C2725 C 0.40498 0.40216 0.61936 0.0
C2726 C 0.46725 0.39661 0.65058 0.0
C2727 C 0.50236 0.38233 0.62531 0.0
N2728 N 0.42625 0.40368 0.62623 0.0
N2729 N 0.48199 0.38403 0.61615 0.0
H2730 H 0.83949 0.28669 0.89173 0.0
H2731 H 0.90565 0.18993 0.8347 0.0
H2732 H 0.90585 0.29408 0.86748 0.0
H2733 H 0.83501 0.1891 0.84196 0.0
H2734 H 0.90636 0.22793 0.84714 0.0
H2735 H 0.83806 0.24989 0.87556 0.0
C2736 C 0.85381 0.28048 0.88324 0.0
C2737 C 0.87282 0.2934 0.88095 0.0
C2738 C 0.89068 0.21951 0.84572 0.0
C2739 C 0.87123 0.25161 0.86225 0.0
C2740 C 0.89025 0.19786 0.83848 0.0
C2741 C 0.87026 0.18626 0.83742 0.0
C2742 C 0.87103 0.22953 0.85222 0.0
C2743 C 0.85081 0.19738 0.84254 0.0
C2744 C 0.85292 0.25961 0.8738 0.0
C2745 C 0.89085 0.28467 0.86959 0.0
N2746 N 0.85171 0.21831 0.85005 0.0
N2747 N 0.88963 0.26431 0.8607 0.0
H2748 H 0.07441 0.65564 0.07859 0.0
H2749 H 0.97687 0.59164 0.14014 0.0
H2750 H 0.07954 0.589 0.10133 0.0
H2751 H 0.96885 0.65404 0.10792 0.0
H2752 H 0.01493 0.59074 0.12697 0.0
H2753 H 0.03567 0.65538 0.08917 0.0
C2754 C 0.06735 0.64085 0.0855 0.0
C2755 C 0.08033 0.62234 0.0891 0.0
C2756 C 0.00481 0.60462 0.12279 0.0
C2757 C 0.03604 0.62206 0.10163 0.0
C2758 C 0.98314 0.6052 0.13043 0.0
C2759 C 0.96966 0.62294 0.12513 0.0
C2760 C 0.01307 0.62195 0.10989 0.0
C2761 C 0.97862 0.64001 0.11239 0.0
C2762 C 0.04523 0.64074 0.09163 0.0
C2763 C 0.07022 0.60364 0.09816 0.0
N2764 N -0.00026 0.6391 0.10524 0.0
N2765 N 0.04875 0.60406 0.1043 0.0
H2766 H 0.66832 0.72545 0.3852 0.0
H2767 H 0.60671 0.81847 0.31881 0.0
H2768 H 0.60842 0.71425 0.34786 0.0
H2769 H 0.67324 0.82556 0.34343 0.0
H2770 H 0.60839 0.77938 0.32623 0.0
H2771 H 0.67123 0.76184 0.36863 0.0
C2772 C 0.65576 0.73068 0.37359 0.0
C2773 C 0.638 0.71692 0.36806 0.0
C2774 C 0.62277 0.78942 0.32963 0.0
C2775 C 0.64132 0.7583 0.34889 0.0
C2776 C 0.62186 0.81174 0.32526 0.0
C2777 C 0.63969 0.82538 0.33091 0.0
C2778 C 0.64152 0.7808 0.34 0.0
C2779 C 0.65898 0.81572 0.33905 0.0
C2780 C 0.65754 0.75134 0.36397 0.0
C2781 C 0.62232 0.72438 0.35271 0.0
N2782 N 0.65922 0.79407 0.34381 0.0
N2783 N 0.62428 0.74462 0.34379 0.0
H2784 H 0.90427 0.41797 0.5851 0.0
H2785 H 0.85646 0.52632 0.64008 0.0
H2786 H 0.89137 0.42532 0.65524 0.0
H2787 H 0.87145 0.52072 0.57029 0.0
H2788 H 0.87204 0.4902 0.64627 0.0
H2789 H 0.89624 0.4566 0.57976 0.0
C2790 C 0.89997 0.4277 0.59941 0.0
C2791 C 0.89801 0.41818 0.62054 0.0
C2792 C 0.87216 0.49689 0.62961 0.0
C2793 C 0.88874 0.4625 0.61457 0.0
C2794 C 0.86315 0.51745 0.62607 0.0
C2795 C 0.8629 0.52652 0.6047 0.0
C2796 C 0.88072 0.48514 0.61156 0.0
C2797 C 0.87177 0.51444 0.5871 0.0
C2798 C 0.8954 0.44981 0.59635 0.0
C2799 C 0.89292 0.43183 0.63858 0.0
N2800 N 0.88024 0.49428 0.5909 0.0
N2801 N 0.88817 0.45319 0.63513 0.0
H2802 H 0.38618 0.98456 0.36012 0.0
H2803 H 0.41455 0.08927 0.42964 0.0
H2804 H 0.37114 0.99166 0.42974 0.0
H2805 H 0.4319 0.07996 0.36069 0.0
H2806 H 0.40915 0.04999 0.4333 0.0
H2807 H 0.41183 0.01529 0.3629 0.0
C2808 C 0.38847 0.9926 0.37606 0.0
C2809 C 0.37631 0.98606 0.39463 0.0
C2810 C 0.41473 0.05645 0.41753 0.0
C2811 C 0.40539 0.02133 0.39799 0.0
C2812 C 0.41797 0.07894 0.41544 0.0
C2813 C 0.42269 0.08802 0.39452 0.0
C2814 C 0.41614 0.04313 0.39855 0.0
C2815 C 0.42747 0.07375 0.37694 0.0
C2816 C 0.40323 0.01002 0.37772 0.0
C2817 C 0.38013 0.99652 0.41502 0.0
N2818 N 0.42344 0.05204 0.37917 0.0
N2819 N 0.39404 0.01401 0.41608 0.0
H2820 H 0.2707 0.14768 0.64313 0.0
H2821 H 0.14701 0.13452 0.68495 0.0
H2822 H 0.2467 0.09109 0.67836 0.0
H2823 H 0.16374 0.16971 0.62505 0.0
H2824 H 0.18583 0.12641 0.69057 0.0
H2825 H 0.23361 0.16313 0.64408 0.0
C2826 C 0.25772 0.13877 0.65154 0.0
C2827 C 0.26169 0.1182 0.66091 0.0
C2828 C 0.18099 0.13618 0.67639 0.0
C2829 C 0.21947 0.13568 0.66195 0.0
C2830 C 0.15885 0.14096 0.67319 0.0
C2831 C 0.15201 0.15259 0.65428 0.0
C2832 C 0.1965 0.1433 0.66078 0.0
C2833 C 0.16822 0.16052 0.63973 0.0
C2834 C 0.23659 0.1475 0.6519 0.0
C2835 C 0.24423 0.10703 0.67104 0.0
N2836 N 0.18974 0.15559 0.64319 0.0
N2837 N 0.22385 0.11594 0.67135 0.0
H2838 H 0.11333 0.90958 0.91988 0.0
H2839 H 0.10863 0.03548 0.88736 0.0
H2840 H 0.08514 0.93302 0.85841 0.0
H2841 H 0.14865 0.00953 0.94029 0.0
H2842 H 0.09266 -0.00086 0.88129 0.0
H2843 H 0.11878 0.94706 0.9321 0.0
C2844 C 0.10784 0.92258 0.9091 0.0
C2845 C 0.09877 0.9181 0.88803 0.0
C2846 C 0.10461 0.00148 0.89452 0.0
C2847 C 0.10551 0.9612 0.90183 0.0
C2848 C 0.11353 0.02224 0.89817 0.0
C2849 C 0.12968 0.02544 0.91461 0.0
C2850 C 0.11205 0.98387 0.90731 0.0
C2851 C 0.13611 0.00765 0.92756 0.0
C2852 C 0.11114 0.94403 0.91606 0.0
C2853 C 0.09234 0.93572 0.87471 0.0
N2854 N 0.12733 0.98755 0.92358 0.0
N2855 N 0.09603 0.95656 0.88175 0.0
H2856 H 0.8228 0.35331 0.66539 0.0
H2857 H 0.70901 0.35287 0.59853 0.0
H2858 H 0.81837 0.34105 0.59467 0.0
H2859 H 0.71709 0.38025 0.66436 0.0
H2860 H 0.74829 0.34491 0.59772 0.0
H2861 H 0.78319 0.35868 0.66636 0.0
C2862 C 0.81349 0.35145 0.65007 0.0
C2863 C 0.82403 0.34683 0.62986 0.0
C2864 C 0.74148 0.35271 0.61231 0.0
C2865 C 0.77854 0.3532 0.63092 0.0
C2866 C 0.71906 0.35729 0.61279 0.0
C2867 C 0.70975 0.36728 0.63155 0.0
C2868 C 0.75468 0.35794 0.6308 0.0
C2869 C 0.72358 0.37263 0.64953 0.0
C2870 C 0.79086 0.3547 0.65065 0.0
C2871 C 0.811 0.34464 0.61061 0.0
N2872 N 0.74534 0.3678 0.64875 0.0
N2873 N 0.78894 0.34795 0.61161 0.0
H2874 H 0.59694 0.58234 0.08668 0.0
H2875 H 0.6492 0.47975 0.1475 0.0
H2876 H 0.59572 0.57293 0.15785 0.0
H2877 H 0.63183 0.47818 0.07776 0.0
H2878 H 0.6324 0.51557 0.15068 0.0
H2879 H 0.61088 0.54523 0.08225 0.0
C2880 C 0.59917 0.57239 0.10135 0.0
C2881 C 0.59519 0.58091 0.12269 0.0
C2882 C 0.63227 0.50743 0.13466 0.0
C2883 C 0.61173 0.53861 0.11772 0.0
C2884 C 0.64207 0.48702 0.13276 0.0
C2885 C 0.64193 0.47588 0.11232 0.0
C2886 C 0.62241 0.51698 0.11595 0.0
C2887 C 0.63232 0.48617 0.09385 0.0
C2888 C 0.60727 0.55123 0.09879 0.0
C2889 C 0.59856 0.56718 0.14107 0.0
N2890 N 0.62295 0.50618 0.09609 0.0
N2891 N 0.60689 0.54687 0.13817 0.0
H2892 H 0.26341 0.89235 0.80763 0.0
H2893 H 0.17509 0.83919 0.88975 0.0
H2894 H 0.27274 0.88531 0.8784 0.0
H2895 H 0.16186 0.85378 0.82072 0.0
H2896 H 0.21367 0.84875 0.8839 0.0
H2897 H 0.22842 0.87236 0.81052 0.0
C2898 C 0.25814 0.8864 0.82371 0.0
C2899 C 0.27084 0.89038 0.8428 0.0
C2900 C 0.20237 0.84953 0.86996 0.0
C2901 C 0.23106 0.8677 0.84631 0.0
C2902 C 0.18036 0.84388 0.87324 0.0
C2903 C 0.16513 0.84616 0.85583 0.0
C2904 C 0.20911 0.85752 0.84915 0.0
C2905 C 0.17297 0.85219 0.83474 0.0
C2906 C 0.23821 0.87505 0.82539 0.0
C2907 C 0.26321 0.88274 0.86334 0.0
N2908 N 0.19437 0.85801 0.83208 0.0
N2909 N 0.24378 0.87178 0.86457 0.0
H2910 H 0.33338 0.12373 0.34175 0.0
H2911 H 0.22759 0.08572 0.4107 0.0
H2912 H 0.32492 0.13586 0.41203 0.0
H2913 H 0.2344 0.07563 0.34006 0.0
H2914 H 0.26355 0.10387 0.41147 0.0
H2915 H 0.29683 0.10699 0.34045 0.0
C2916 C 0.32376 0.12312 0.35686 0.0
C2917 C 0.33231 0.13114 0.37707 0.0
C2918 C 0.2572 0.09775 0.39577 0.0
C2919 C 0.29056 0.11171 0.37572 0.0
C2920 C 0.23679 0.08725 0.39537 0.0
C2921 C 0.228 0.07954 0.37523 0.0
C2922 C 0.26895 0.1004 0.37587 0.0
C2923 C 0.24043 0.0819 0.35581 0.0
C2924 C 0.30292 0.11345 0.35612 0.0
C2925 C 0.31906 0.12988 0.39609 0.0
N2926 N 0.26031 0.0922 0.35659 0.0
N2927 N 0.29891 0.1202 0.39497 0.0
H2928 H 0.33589 0.10787 0.57833 0.0
H2929 H 0.41034 0.14719 0.47669 0.0
H2930 H 0.40629 0.09968 0.57519 0.0
H2931 H 0.33945 0.1512 0.47652 0.0
H2932 H 0.40881 0.12937 0.51282 0.0
H2933 H 0.33624 0.12117 0.54004 0.0
C2934 C 0.35134 0.10827 0.56942 0.0
C2935 C 0.37115 0.10296 0.58012 0.0
C2936 C 0.39358 0.13419 0.50493 0.0
C2937 C 0.37171 0.11873 0.53658 0.0
C2938 C 0.39445 0.14459 0.48437 0.0
C2939 C 0.37499 0.15068 0.47351 0.0
C2940 C 0.3731 0.12986 0.51478 0.0
C2941 C 0.35488 0.14681 0.48429 0.0
C2942 C 0.35155 0.11614 0.54764 0.0
C2943 C 0.39065 0.10387 0.56772 0.0
N2944 N 0.35445 0.13658 0.50432 0.0
N2945 N 0.39048 0.11196 0.54674 0.0
H2946 H 0.65256 0.59083 0.32868 0.0
H2947 H 0.59898 0.65752 0.22946 0.0
H2948 H 0.65072 0.66137 0.32669 0.0
H2949 H 0.62374 0.59227 0.22012 0.0
H2950 H 0.6145 0.6578 0.26707 0.0
H2951 H 0.64052 0.58984 0.28974 0.0
C2952 C 0.65011 0.6061 0.31997 0.0
C2953 C 0.65241 0.6262 0.33109 0.0
C2954 C 0.6165 0.64342 0.25677 0.0
C2955 C 0.63807 0.62511 0.28691 0.0
C2956 C 0.60742 0.64316 0.23543 0.0
C2957 C 0.61012 0.62486 0.2217 0.0
C2958 C 0.62809 0.62516 0.26447 0.0
C2959 C 0.62137 0.60674 0.23019 0.0
C2960 C 0.64308 0.6055 0.29782 0.0
C2961 C 0.64897 0.64546 0.31893 0.0
N2962 N 0.62993 0.60732 0.25109 0.0
N2963 N 0.64162 0.64442 0.29763 0.0
H2964 H 0.13875 0.90161 0.08107 0.0
H2965 H 0.08786 0.81849 0.99603 0.0
H2966 H 0.07989 0.86484 0.09681 0.0
H2967 H 0.11528 0.87947 0.9729 0.0
H2968 H 0.08769 0.83328 0.03412 0.0
H2969 H 0.13303 0.89266 0.04162 0.0
C2970 C 0.12444 0.89204 0.07621 0.0
C2971 C 0.10986 0.88387 0.09227 0.0
C2972 C 0.09346 0.84349 0.02062 0.0
C2973 C 0.10365 0.87315 0.04753 0.0
C2974 C 0.09363 0.83505 -0.00097 0.0
C2975 C 0.10133 0.84794 0.98151 0.0
C2976 C 0.1017 0.86467 0.02462 0.0
C2977 C 0.10887 0.86922 0.98606 0.0
C2978 C 0.12121 0.88693 0.05376 0.0
C2979 C 0.09158 0.8715 0.08504 0.0
N2980 N 0.10916 0.87687 0.00729 0.0
N2981 N 0.08924 0.86614 0.06325 0.0
H2982 H 0.88944 0.34163 0.7267 0.0
H2983 H 0.84198 0.41212 0.82712 0.0
H2984 H 0.85736 0.40358 0.71732 0.0
H2985 H 0.85863 0.34389 0.83283 0.0
H2986 H 0.84788 0.40976 0.78697 0.0
H2987 H 0.87976 0.34293 0.76616 0.0
C2988 C 0.88048 0.35555 0.73296 0.0
C2989 C 0.87422 0.37253 0.71873 0.0
C2990 C 0.84999 0.39526 0.79701 0.0
C2991 C 0.863 0.37408 0.76375 0.0
C2992 C 0.84653 0.39657 0.81993 0.0
C2993 C 0.84994 0.37823 0.83343 0.0
C2994 C 0.85715 0.37554 0.78759 0.0
C2995 C 0.85586 0.3585 0.82314 0.0
C2996 C 0.87481 0.35621 0.75544 0.0
C2997 C 0.8625 0.39012 0.72771 0.0
N2998 N 0.85953 0.35776 0.80089 0.0
N2999 N 0.85733 0.39048 0.74966 0.0
H3000 H 0.36619 0.90825 0.90878 0.0
H3001 H 0.40999 0.81816 0.99033 0.0
H3002 H 0.42184 0.8682 0.8919 0.0
H3003 H 0.38328 0.87831 0.01548 0.0
H3004 H 0.41169 0.83447 0.95302 0.0
H3005 H 0.3698 0.89645 0.94759 0.0
C3006 C 0.37936 0.89729 0.91328 0.0
C3007 C 0.39366 0.88914 0.89706 0.0
C3008 C 0.40574 0.84416 0.96681 0.0
C3009 C 0.39746 0.8752 0.94109 0.0
C3010 C 0.40469 0.83484 0.98796 0.0
C3011 C 0.39682 0.84707 0.00588 0.0
C3012 C 0.39823 0.86558 0.96358 0.0
C3013 C 0.38989 0.86855 0.00208 0.0
C3014 C 0.38139 0.89056 0.93538 0.0
C3015 C 0.41044 0.87493 0.90382 0.0
N3016 N 0.39052 0.87708 0.98126 0.0
N3017 N 0.41163 0.8681 0.92525 0.0
H3018 H 0.91783 0.67077 0.75155 0.0
H3019 H 0.83886 0.6159 0.66656 0.0
H3020 H 0.86423 0.63101 0.77578 0.0
H3021 H 0.86229 0.68205 0.65681 0.0
H3022 H 0.84808 0.6192 0.70617 0.0
H3023 H 0.89934 0.67284 0.71523 0.0
C3024 C 0.90214 0.66257 0.74914 0.0
C3025 C 0.89239 0.65081 0.76643 0.0
C3026 C 0.85068 0.6331 0.69535 0.0
C3027 C 0.87143 0.65282 0.72534 0.0
C3028 C 0.84539 0.63126 0.6728 0.0
C3029 C 0.85022 0.64855 0.65827 0.0
C3030 C 0.86124 0.65213 0.70313 0.0
C3031 C 0.85858 0.66815 0.6673 0.0
C3032 C 0.89153 0.66389 0.72862 0.0
C3033 C 0.87206 0.64039 0.76273 0.0
N3034 N 0.86437 0.66921 0.68907 0.0
N3035 N 0.86232 0.64136 0.74239 0.0
H3036 H 0.1274 0.07178 0.4384 0.0
H3037 H 0.08015 0.16942 0.50777 0.0
H3038 H 0.07238 0.10949 0.41468 0.0
H3039 H 0.10561 0.11235 0.54051 0.0
H3040 H 0.07996 0.1492 0.47234 0.0
H3041 H 0.12185 0.08711 0.47567 0.0
C3042 C 0.11393 0.08292 0.44109 0.0
C3043 C 0.10048 0.08949 0.42335 0.0
C3044 C 0.08534 0.14107 0.48736 0.0
C3045 C 0.09449 0.10745 0.46559 0.0
C3046 C 0.08556 0.15261 0.50743 0.0
C3047 C 0.09266 0.14236 0.5269 0.0
C3048 C 0.09287 0.11942 0.48683 0.0
C3049 C 0.09968 0.12062 0.52578 0.0
C3050 C 0.11081 0.09168 0.46231 0.0
C3051 C 0.08324 0.104 0.42781 0.0
N3052 N 0.09985 0.10989 0.506 0.0
N3053 N 0.08102 0.11283 0.44839 0.0
H3054 H 0.65466 0.34897 0.1684 0.0
H3055 H 0.59234 0.4112 0.26639 0.0
H3056 H 0.63647 0.4169 0.16538 0.0
H3057 H 0.60386 0.34169 0.26581 0.0
H3058 H 0.61044 0.41414 0.23036 0.0
H3059 H 0.63982 0.34698 0.20597 0.0
C3060 C 0.64782 0.36354 0.1757 0.0
C3061 C 0.64638 0.38297 0.16347 0.0
C3062 C 0.60892 0.39823 0.23806 0.0
C3063 C 0.62921 0.3808 0.20645 0.0
C3064 C 0.59844 0.39651 0.25856 0.0
C3065 C 0.59658 0.37617 0.26914 0.0
C3066 C 0.61771 0.3795 0.22808 0.0
C3067 C 0.60484 0.35769 0.25823 0.0
C3068 C 0.63924 0.36237 0.19714 0.0
C3069 C 0.6378 0.4015 0.17407 0.0
N3070 N 0.61516 0.35983 0.23834 0.0
N3071 N 0.62928 0.39987 0.19485 0.0
H3072 H 0.57637 0.3466 0.08888 0.0
H3073 H 0.47927 0.41657 0.14071 0.0
H3074 H 0.57738 0.41712 0.09209 0.0
H3075 H 0.47059 0.34963 0.1194 0.0
H3076 H 0.51646 0.41636 0.12524 0.0
H3077 H 0.5379 0.34684 0.10052 0.0
C3078 C 0.56842 0.36214 0.09155 0.0
C3079 C 0.58026 0.38185 0.08971 0.0
C3080 C 0.5064 0.40172 0.12398 0.0
C3081 C 0.53646 0.38218 0.10362 0.0
C3082 C 0.48529 0.40176 0.13304 0.0
C3083 C 0.47186 0.38309 0.13134 0.0
C3084 C 0.51416 0.38281 0.11338 0.0
C3085 C 0.4804 0.3644 0.12103 0.0
C3086 C 0.5465 0.36226 0.09836 0.0
C3087 C 0.56902 0.4015 0.09341 0.0
N3088 N 0.50102 0.36472 0.11246 0.0
N3089 N 0.54787 0.40114 0.10053 0.0
H3090 H 0.39568 0.72529 0.87497 0.0
H3091 H 0.33354 0.83041 0.83386 0.0
H3092 H 0.32509 0.73021 0.87748 0.0
H3093 H 0.40057 0.81587 0.8161 0.0
H3094 H 0.32883 0.79292 0.84679 0.0
H3095 H 0.39712 0.75793 0.85175 0.0
C3096 C 0.38047 0.73332 0.87056 0.0
C3097 C 0.36025 0.72522 0.87815 0.0
C3098 C 0.34441 0.79781 0.83962 0.0
C3099 C 0.36169 0.76256 0.85159 0.0
C3100 C 0.3471 0.81923 0.83208 0.0
C3101 C 0.36762 0.82651 0.82421 0.0
C3102 C 0.36245 0.78368 0.83955 0.0
C3103 C 0.38453 0.81116 0.82229 0.0
C3104 C 0.38126 0.75181 0.85714 0.0
C3105 C 0.34098 0.73598 0.87182 0.0
N3106 N 0.38171 0.79062 0.83034 0.0
N3107 N 0.34217 0.75431 0.85908 0.0
H3108 H 0.93641 0.66395 0.58377 0.0
H3109 H 0.02676 0.59222 0.6469 0.0
H3110 H 0.92401 0.59862 0.60786 0.0
H3111 H 0.0406 0.65451 0.61621 0.0
H3112 H 0.98869 0.59456 0.63359 0.0
H3113 H 0.97479 0.66063 0.5953 0.0
C3114 C 0.9418 0.64877 0.59115 0.0
C3115 C 0.92689 0.63153 0.59478 0.0
C3116 C 8e-05 0.60772 0.62982 0.0
C3117 C 0.97076 0.62777 0.60846 0.0
C3118 C 0.02175 0.60647 0.63757 0.0
C3119 C 0.03687 0.62318 0.63265 0.0
C3120 C 0.99352 0.62585 0.61717 0.0
C3121 C 0.02952 0.6412 0.62035 0.0
C3122 C 0.96371 0.64693 0.59786 0.0
C3123 C 0.93487 0.61229 0.60453 0.0
N3124 N 0.00841 0.64204 0.61303 0.0
N3125 N 0.95619 0.611 0.6112 0.0
H3126 H 0.12429 0.26565 0.35456 0.0
H3127 H 0.16474 0.14289 0.36915 0.0
H3128 H 0.16022 0.24254 0.4117 0.0
H3129 H 0.10672 0.15954 0.33133 0.0
H3130 H 0.17126 0.18156 0.37655 0.0
H3131 H 0.12538 0.22876 0.3385 0.0
C3132 C 0.13283 0.25289 0.36346 0.0
C3133 C 0.14236 0.25703 0.38436 0.0
C3134 C 0.15732 0.17673 0.36631 0.0
C3135 C 0.1436 0.21508 0.36622 0.0
C3136 C 0.15365 0.15465 0.36189 0.0
C3137 C 0.13494 0.14787 0.34983 0.0
C3138 C 0.14234 0.19219 0.35846 0.0
C3139 C 0.1212 0.16399 0.34091 0.0
C3140 C 0.13331 0.23189 0.35437 0.0
C3141 C 0.15274 0.23991 0.39552 0.0
N3142 N 0.12504 0.18544 0.34561 0.0
N3143 N 0.15311 0.21964 0.38629 0.0
H3144 H 0.57799 0.59448 0.40027 0.0
H3145 H 0.47869 0.66608 0.3538 0.0
H3146 H 0.57786 0.665 0.40016 0.0
H3147 H 0.48319 0.59633 0.34483 0.0
H3148 H 0.51269 0.66555 0.3755 0.0
H3149 H 0.54031 0.59441 0.38621 0.0
C3150 C 0.56997 0.60995 0.39773 0.0
C3151 C 0.58141 0.62976 0.40097 0.0
C3152 C 0.50614 0.65031 0.36897 0.0
C3153 C 0.53822 0.62978 0.38465 0.0
C3154 C 0.48681 0.65061 0.35643 0.0
C3155 C 0.47789 0.63116 0.34771 0.0
C3156 C 0.5168 0.63041 0.37275 0.0
C3157 C 0.48905 0.6116 0.35177 0.0
C3158 C 0.54845 0.60989 0.38954 0.0
C3159 C 0.56989 0.6493 0.39765 0.0
N3160 N 0.50796 0.61173 0.36396 0.0
N3161 N 0.54907 0.64881 0.38938 0.0
H3162 H 0.09807 0.80492 0.16469 0.0
H3163 H 0.16888 0.71746 0.09789 0.0
H3164 H 0.16624 0.81619 0.14787 0.0
H3165 H 0.0979 0.71954 0.09806 0.0
H3166 H 0.16979 0.75072 0.12072 0.0
H3167 H 0.09987 0.76916 0.14695 0.0
C3168 C 0.11359 0.7997 0.15778 0.0
C3169 C 0.13191 0.8138 0.15741 0.0
C3170 C 0.15406 0.74387 0.11564 0.0
C3171 C 0.13391 0.77303 0.13668 0.0
C3172 C 0.15352 0.72503 0.10247 0.0
C3173 C 0.13328 0.71569 0.09604 0.0
C3174 C 0.13424 0.75321 0.1226 0.0
C3175 C 0.11389 0.72614 0.10256 0.0
C3176 C 0.11451 0.77937 0.1474 0.0
C3177 C 0.15161 0.80599 0.1483 0.0
N3178 N 0.11486 0.74422 0.11561 0.0
N3179 N 0.15201 0.78621 0.13799 0.0
H3180 H 0.02766 0.34899 0.85829 0.0
H3181 H 0.92581 0.42029 0.89677 0.0
H3182 H 0.02699 0.41933 0.85487 0.0
H3183 H 0.93023 0.35065 0.90698 0.0
H3184 H 0.96408 0.42091 0.8849 0.0
H3185 H 0.99281 0.34967 0.87829 0.0
C3186 C 0.02016 0.36461 0.86183 0.0
C3187 C 0.03027 0.38415 0.8551 0.0
C3188 C 0.95679 0.40555 0.89008 0.0
C3189 C 0.99039 0.38511 0.878 0.0
C3190 C 0.93492 0.4052 0.89703 0.0
C3191 C 0.92463 0.38535 0.9027 0.0
C3192 C 0.96841 0.3859 0.88857 0.0
C3193 C 0.93736 0.36633 0.90261 0.0
C3194 C 0.00036 0.365 0.8734 0.0
C3195 C 0.01998 0.40393 0.8602 0.0
N3196 N 0.95847 0.36703 0.89532 0.0
N3197 N 0.00049 0.4039 0.87123 0.0
H3198 H 0.33596 0.17438 0.64112 0.0
H3199 H 0.39869 0.28741 0.62011 0.0
H3200 H 0.40593 0.18276 0.65081 0.0
H3201 H 0.33194 0.27434 0.5989 0.0
H3202 H 0.40138 0.24987 0.63333 0.0
H3203 H 0.33357 0.21219 0.62924 0.0
C3204 C 0.35078 0.18426 0.64128 0.0
C3205 C 0.37117 0.17528 0.6471 0.0
C3206 C 0.3862 0.25515 0.62564 0.0
C3207 C 0.36861 0.21862 0.63281 0.0
C3208 C 0.38467 0.27655 0.61799 0.0
C3209 C 0.36503 0.284 0.60842 0.0
C3210 C 0.36789 0.24115 0.62392 0.0
C3211 C 0.34741 0.26924 0.60609 0.0
C3212 C 0.34943 0.20583 0.63414 0.0
C3213 C 0.38985 0.18894 0.6465 0.0
N3214 N 0.3492 0.24854 0.61397 0.0
N3215 N 0.38813 0.20991 0.63935 0.0
H3216 H 0.09455 0.45857 0.35244 0.0
H3217 H 0.09557 0.57335 0.41615 0.0
H3218 H 0.12402 0.46818 0.41726 0.0
H3219 H 0.08004 0.56607 0.3463 0.0
H3220 H 0.10068 0.53395 0.41868 0.0
H3221 H 0.08467 0.49704 0.35167 0.0
C3222 C 0.09897 0.46878 0.36654 0.0
C3223 C 0.11024 0.46013 0.38492 0.0
C3224 C 0.09596 0.54096 0.40286 0.0
C3225 C 0.09874 0.5043 0.38417 0.0
C3226 C 0.09285 0.56347 0.4014 0.0
C3227 C 0.08751 0.57314 0.3809 0.0
C3228 C 0.0936 0.52794 0.38374 0.0
C3229 C 0.08425 0.5594 0.36241 0.0
C3230 C 0.09328 0.49077 0.36607 0.0
C3231 C 0.11546 0.47418 0.4027 0.0
N3232 N 0.08748 0.53753 0.36425 0.0
N3233 N 0.10965 0.49559 0.40189 0.0
H3234 H 0.57713 0.91205 0.62376 0.0
H3235 H 0.59559 0.01954 0.59351 0.0
H3236 H 0.60816 0.89537 0.56151 0.0
H3237 H 0.65329 0.99066 0.56463 0.0
H3238 H 0.57768 0.98355 0.59374 0.0
H3239 H 0.58139 0.95068 0.61454 0.0
C3240 C 0.58424 0.91648 0.60788 0.0
C3241 C 0.59267 0.90048 0.5936 0.0
C3242 C 0.59414 0.98518 0.58711 0.0
C3243 C 0.59765 0.94451 0.58301 0.0
C3244 C 0.60426 0.00569 0.58671 0.0
C3245 C 0.6259 0.00793 0.57896 0.0
C3246 C 0.60583 0.96693 0.57971 0.0
C3247 C 0.63663 0.98948 0.57081 0.0
C3248 C 0.58656 0.93854 0.60256 0.0
C3249 C 0.60166 0.90714 0.57318 0.0
N3250 N 0.62647 0.96966 0.57143 0.0
N3251 N 0.60448 0.92869 0.56879 0.0
H3252 H 0.82681 0.83569 0.40315 0.0
H3253 H 0.73076 0.8928 0.33317 0.0
H3254 H 0.8347 0.85735 0.33528 0.0
H3255 H 0.72048 0.85996 0.39578 0.0
H3256 H 0.7696 0.88214 0.33454 0.0
H3257 H 0.788 0.84552 0.4012 0.0
C3258 C 0.82034 0.8422 0.38774 0.0
C3259 C 0.83411 0.84568 0.36938 0.0
C3260 C 0.75881 0.87734 0.34799 0.0
C3261 C 0.78973 0.85744 0.36718 0.0
C3262 C 0.73672 0.88359 0.3473 0.0
C3263 C 0.72238 0.87721 0.36435 0.0
C3264 C 0.76656 0.86481 0.36594 0.0
C3265 C 0.73092 0.86513 0.38219 0.0
C3266 C 0.79819 0.84795 0.38667 0.0
C3267 C 0.82476 0.85432 0.34987 0.0
N3268 N 0.7524 0.85933 0.38251 0.0
N3269 N 0.80322 0.86007 0.34936 0.0
H3270 H 0.8828 0.96951 0.11564 0.0
H3271 H 0.87788 0.09445 0.07987 0.0
H3272 H 0.82521 -0.00084 0.08704 0.0
H3273 H 0.91541 0.07258 0.1367 0.0
H3274 H 0.86627 0.05684 0.07284 0.0
H3275 H 0.90189 0.00492 0.11422 0.0
C3276 C 0.87438 0.9834 0.10858 0.0
C3277 C 0.85252 0.98155 0.10124 0.0
C3278 C 0.87736 0.06029 0.08659 0.0
C3279 C 0.87414 0.02177 0.09964 0.0
C3280 C 0.88416 0.08171 0.09057 0.0
C3281 C 0.8974 0.08673 0.10916 0.0
C3282 C 0.88409 0.04375 0.10107 0.0
C3283 C 0.90499 0.06947 0.12236 0.0
C3284 C 0.88521 0.00354 0.10793 0.0
C3285 C 0.8421 5e-05 0.0928 0.0
N3286 N 0.89805 0.0487 0.11818 0.0
N3287 N 0.85304 0.01948 0.09218 0.0
H3288 H 0.27027 0.60146 0.33203 0.0
H3289 H 0.17106 0.64955 0.40417 0.0
H3290 H 0.27799 0.62794 0.39828 0.0
H3291 H 0.16403 0.62864 0.33581 0.0
H3292 H 0.21029 0.64156 0.40231 0.0
H3293 H 0.23101 0.61008 0.33343 0.0
C3294 C 0.26369 0.60886 0.34695 0.0
C3295 C 0.27746 0.614 0.36505 0.0
C3296 C 0.20019 0.63888 0.38765 0.0
C3297 C 0.23265 0.62415 0.36668 0.0
C3298 C 0.17778 0.64356 0.38867 0.0
C3299 C 0.16415 0.63986 0.3701 0.0
C3300 C 0.20909 0.63027 0.36797 0.0
C3301 C 0.17385 0.63195 0.3505 0.0
C3302 C 0.24131 0.61393 0.34768 0.0
C3303 C 0.26804 0.62372 0.38389 0.0
N3304 N 0.19567 0.6273 0.35 0.0
N3305 N 0.24628 0.6285 0.38419 0.0
H3306 H 0.3932 0.526 0.8473 0.0
H3307 H 0.40741 0.41617 0.91727 0.0
H3308 H 0.36673 0.51697 0.9132 0.0
H3309 H 0.42126 0.42095 0.847 0.0
H3310 H 0.39735 0.45464 0.91755 0.0
H3311 H 0.40714 0.48881 0.84814 0.0
C3312 C 0.39021 0.51614 0.86194 0.0
C3313 C 0.37872 0.52461 0.88021 0.0
C3314 C 0.4028 0.44732 0.90213 0.0
C3315 C 0.39496 0.48199 0.88136 0.0
C3316 C 0.40877 0.42537 0.90196 0.0
C3317 C 0.41504 0.41517 0.882 0.0
C3318 C 0.40319 0.45926 0.88225 0.0
C3319 C 0.41646 0.42804 0.86275 0.0
C3320 C 0.39824 0.49491 0.86241 0.0
C3321 C 0.37537 0.51106 0.8987 0.0
N3322 N 0.4104 0.44937 0.86332 0.0
N3323 N 0.38354 0.49042 0.89884 0.0
H3324 H 0.73757 0.0962 0.18635 0.0
H3325 H 0.82147 0.16857 0.11532 0.0
H3326 H 0.73166 0.10921 0.11613 0.0
H3327 H 0.83867 0.14005 0.17868 0.0
H3328 H 0.78379 0.15573 0.12025 0.0
H3329 H 0.77086 0.11939 0.18763 0.0
C3330 C 0.74335 0.10398 0.17127 0.0
C3331 C 0.73224 0.1007 0.15106 0.0
C3332 C 0.79575 0.15261 0.13324 0.0
C3333 C 0.76955 0.12736 0.15243 0.0
C3334 C 0.81724 0.16009 0.13053 0.0
C3335 C 0.8334 0.15481 0.1463 0.0
C3336 C 0.79043 0.13979 0.15182 0.0
C3337 C 0.82683 0.14409 0.16586 0.0
C3338 C 0.76217 0.11722 0.172 0.0
C3339 C 0.74011 0.11109 0.13194 0.0
N3340 N 0.80588 0.13651 0.16788 0.0
N3341 N 0.7583 0.12397 0.13308 0.0
H3342 H 0.66887 0.85323 0.66129 0.0
H3343 H 0.77832 0.89387 0.60234 0.0
H3344 H 0.68439 0.83928 0.59267 0.0
H3345 H 0.76999 0.89544 0.67352 0.0
H3346 H 0.74388 0.87331 0.59878 0.0
H3347 H 0.70626 0.86705 0.66684 0.0
C3348 C 0.68023 0.85271 0.64748 0.0
C3349 C 0.67338 0.84535 0.62639 0.0
C3350 C 0.74962 0.87797 0.61522 0.0
C3351 C 0.71604 0.86147 0.63256 0.0
C3352 C 0.76913 0.88986 0.61721 0.0
C3353 C 0.77687 0.89621 0.63824 0.0
C3354 C 0.7376 0.8727 0.6344 0.0
C3355 C 0.76459 0.89055 0.65705 0.0
C3356 C 0.70157 0.86066 0.65066 0.0
C3357 C 0.68887 0.84494 0.60917 0.0
N3358 N 0.74541 0.87919 0.65468 0.0
N3359 N 0.70938 0.85322 0.61255 0.0
H3360 H 0.93841 0.2339 0.11715 0.0
H3361 H 0.06325 0.26629 0.14103 0.0
H3362 H 0.98506 0.18668 0.14096 0.0
H3363 H 0.02267 0.29974 0.09333 0.0
H3364 H 0.03407 0.23856 0.14549 0.0
H3365 H 0.96828 0.2606 0.11328 0.0
C3366 C 0.95499 0.22922 0.12159 0.0
C3367 C 0.95944 0.20807 0.12907 0.0
C3368 C 0.03167 0.25187 0.13391 0.0
C3369 C 0.99352 0.23846 0.125 0.0
C3370 C 0.04825 0.26756 0.13136 0.0
C3371 C 0.0452 0.28504 0.11673 0.0
C3372 C 0.01189 0.25406 0.12202 0.0
C3373 C 0.02556 0.2863 0.10462 0.0
C3374 C 0.97199 0.2444 0.11937 0.0
C3375 C 0.98105 0.20289 0.13514 0.0
N3376 N 0.00952 0.27108 0.10768 0.0
N3377 N 0.99739 0.21802 0.13294 0.0
H3378 H 0.058 0.72345 0.39629 0.0
H3379 H 0.94519 0.76719 0.34328 0.0
H3380 H 0.01762 0.68545 0.35126 0.0
H3381 H 0.97988 0.80014 0.39645 0.0
H3382 H 0.973 0.73836 0.34382 0.0
H3383 H 0.03076 0.7527 0.39503 0.0
C3384 C 0.04334 0.72123 0.38622 0.0
C3385 C 0.04011 0.702 0.37383 0.0
C3386 C 0.97455 0.7519 0.35537 0.0
C3387 C 0.00893 0.73556 0.37202 0.0
C3388 C 0.95876 0.7684 0.35496 0.0
C3389 C 0.96018 0.78598 0.36993 0.0
C3390 C 0.99204 0.75306 0.37076 0.0
C3391 C 0.97803 0.78671 0.38482 0.0
C3392 C 0.02783 0.73797 0.38541 0.0
C3393 C 0.02093 0.70013 0.36083 0.0
N3394 N 0.99323 0.77052 0.38487 0.0
N3395 N 0.00612 0.71667 0.36022 0.0
H3396 H 0.57834 0.74751 0.61351 0.0
H3397 H 0.49555 0.67133 0.64037 0.0
H3398 H 0.52794 0.79513 0.62523 0.0
H3399 H 0.45181 0.72132 0.61696 0.0
H3400 H 0.52637 0.69751 0.63819 0.0
H3401 H 0.55063 0.71826 0.61708 0.0
C3402 C 0.56141 0.75168 0.6169 0.0
C3403 C 0.55524 0.77353 0.61926 0.0
C3404 C 0.51009 0.70267 0.63328 0.0
C3405 C 0.52376 0.74057 0.62373 0.0
C3406 C 0.49256 0.68786 0.6348 0.0
C3407 C 0.47137 0.69433 0.62869 0.0
C3408 C 0.50616 0.72401 0.62572 0.0
C3409 C 0.46805 0.71581 0.62163 0.0
C3410 C 0.54569 0.73507 0.61921 0.0
C3411 C 0.53322 0.77836 0.62351 0.0
N3412 N 0.48528 0.72995 0.62041 0.0
N3413 N 0.51821 0.76199 0.6255 0.0
H3414 H 0.48969 0.3031 0.86117 0.0
H3415 H 0.52547 0.18748 0.91164 0.0
H3416 H 0.4491 0.26629 0.90648 0.0
H3417 H 0.55693 0.21729 0.85511 0.0
H3418 H 0.49939 0.21786 0.91284 0.0
H3419 H 0.51648 0.27348 0.86143 0.0
C3420 C 0.48639 0.28872 0.87113 0.0
C3421 C 0.46702 0.28706 0.88363 0.0
C3422 C 0.51199 0.21777 0.90017 0.0
C3423 C 0.49783 0.25319 0.88435 0.0
C3424 C 0.52691 0.2005 0.89955 0.0
C3425 C 0.54327 0.19987 0.88319 0.0
C3426 C 0.51359 0.23467 0.88445 0.0
C3427 C 0.54439 0.21706 0.86784 0.0
C3428 C 0.50172 0.27185 0.87134 0.0
C3429 C 0.46385 0.2683 0.89667 0.0
N3430 N 0.5298 0.23376 0.86886 0.0
N3431 N 0.47907 0.25208 0.89667 0.0
H3432 H 0.14991 0.92626 0.23882 0.0
H3433 H 0.10218 0.04234 0.27371 0.0
H3434 H 0.09961 0.9585 0.20076 0.0
H3435 H 0.12951 0.99739 0.32129 0.0
H3436 H 0.10491 0.0141 0.24485 0.0
H3437 H 0.14737 0.95504 0.2673 0.0
C3438 C 0.13851 0.93955 0.23644 0.0
C3439 C 0.12489 0.94013 0.21763 0.0
C3440 C 0.11025 0.01043 0.26163 0.0
C3441 C 0.12188 0.97289 0.2498 0.0
C3442 C 0.10857 0.02646 0.27811 0.0
C3443 C 0.1157 0.02216 0.29986 0.0
C3444 C 0.1194 0.9901 0.26693 0.0
C3445 C 0.12415 0.00143 0.30461 0.0
C3446 C 0.13694 0.95582 0.25268 0.0
C3447 C 0.11028 0.95754 0.21519 0.0
N3448 N 0.12594 0.98621 0.28825 0.0
N3449 N 0.10918 0.97331 0.23109 0.0
H3450 H 0.30292 0.90786 0.47017 0.0
H3451 H 0.18905 0.86357 0.51998 0.0
H3452 H 0.26054 0.86168 0.43628 0.0
H3453 H 0.22741 0.91486 0.55099 0.0
H3454 H 0.21534 0.86246 0.48939 0.0
H3455 H 0.27587 0.91054 0.50014 0.0
C3456 C 0.28783 0.89838 0.46902 0.0
C3457 C 0.28387 0.88458 0.45074 0.0
C3458 C 0.21804 0.87403 0.50281 0.0
C3459 C 0.25299 0.88734 0.48501 0.0
C3460 C 0.20307 0.8746 0.52031 0.0
C3461 C 0.2062 0.88922 0.53805 0.0
C3462 C 0.23637 0.88815 0.50307 0.0
C3463 C 0.22441 0.90341 0.53753 0.0
C3464 C 0.27244 0.89986 0.48614 0.0
C3465 C 0.26427 0.87237 0.45019 0.0
N3466 N 0.23891 0.90245 0.52036 0.0
N3467 N 0.24957 0.87402 0.46708 0.0
H3468 H 0.36777 0.06519 0.73339 0.0
H3469 H 0.40375 0.94063 0.74982 0.0
H3470 H 0.40385 0.02906 0.68421 0.0
H3471 H 0.37347 0.97927 0.8011 0.0
H3472 H 0.4049 0.97294 0.72577 0.0
H3473 H 0.3704 0.03404 0.75876 0.0
C3474 C 0.3763 0.05065 0.72802 0.0
C3475 C 0.38545 0.04949 0.70673 0.0
C3476 C 0.39808 0.97439 0.74231 0.0
C3477 C 0.38859 0.01384 0.7355 0.0
C3478 C 0.39749 0.95599 0.75603 0.0
C3479 C 0.38834 0.95732 0.77735 0.0
C3480 C 0.38939 0.99423 0.74999 0.0
C3481 C 0.38034 0.97752 0.78461 0.0
C3482 C 0.37786 0.03291 0.74247 0.0
C3483 C 0.39658 0.03048 0.70056 0.0
N3484 N 0.38094 0.99514 0.77093 0.0
N3485 N 0.39771 0.01331 0.71482 0.0
H3486 H 0.21936 0.17604 0.95432 0.0
H3487 H 0.28715 0.11176 0.04159 0.0
H3488 H 0.23058 0.10706 0.94543 0.0
H3489 H 0.31639 0.17083 0.01552 0.0
H3490 H 0.26019 0.11221 0.01147 0.0
H3491 H 0.2498 0.17734 0.98137 0.0
C3492 C 0.22832 0.16124 0.95782 0.0
C3493 C 0.22222 0.14133 0.94778 0.0
C3494 C 0.27259 0.12501 0.01235 0.0
C3495 C 0.25626 0.14265 0.97909 0.0
C3496 C 0.28812 0.12469 0.02939 0.0
C3497 C 0.3044 0.14102 0.03081 0.0
C3498 C 0.27282 0.14217 0.99702 0.0
C3499 C 0.30408 0.15796 0.01508 0.0
C3500 C 0.24555 0.16202 0.9733 0.0
C3501 C 0.23419 0.1226 0.95328 0.0
N3502 N 0.28838 0.15822 -0.00115 0.0
N3503 N 0.2504 0.12364 0.96883 0.0
H3504 H 0.69542 0.3584 0.01831 0.0
H3505 H 0.81297 0.40659 0.98214 0.0
H3506 H 0.72979 0.40889 0.05493 0.0
H3507 H 0.77825 0.35605 0.94595 0.0
H3508 H 0.78292 0.40762 0.00917 0.0
H3509 H 0.72572 0.35724 0.99174 0.0
C3510 C 0.70941 0.36922 0.02075 0.0
C3511 C 0.71018 0.38371 0.03884 0.0
C3512 C 0.78187 0.39626 0.99536 0.0
C3513 C 0.7449 0.38262 0.00845 0.0
C3514 C 0.79898 0.39571 0.97993 0.0
C3515 C 0.79798 0.38128 0.96179 0.0
C3516 C 0.76362 0.38224 0.99261 0.0
C3517 C 0.77969 0.36731 0.9598 0.0
C3518 C 0.72668 0.36861 0.00555 0.0
C3519 C 0.72851 0.39761 0.04108 0.0
N3520 N 0.7632 0.36818 0.97498 0.0
N3521 N 0.74519 0.39669 0.02608 0.0
H3522 H 0.90334 0.52306 0.18165 0.0
H3523 H 0.87162 0.47972 0.30324 0.0
H3524 H 0.86767 0.561 0.22971 0.0
H3525 H 0.89561 0.43766 0.25129 0.0
H3526 H 0.8737 0.51073 0.27771 0.0
H3527 H 0.9045 0.49259 0.20815 0.0
C3528 C 0.89585 0.52493 0.19786 0.0
C3529 C 0.8852 0.54434 0.20354 0.0
C3530 C 0.87856 0.49474 0.27186 0.0
C3531 C 0.88647 0.50982 0.23385 0.0
C3532 C 0.87731 0.47706 0.2864 0.0
C3533 C 0.88323 0.45613 0.27923 0.0
C3534 C 0.88595 0.49151 0.25 0.0
C3535 C 0.89093 0.45359 0.25743 0.0
C3536 C 0.89644 0.50758 0.21292 0.0
C3537 C 0.87578 0.54612 0.22468 0.0
N3538 N 0.89201 0.47107 0.24352 0.0
N3539 N 0.87659 0.52906 0.23907 0.0
H3540 H 0.73145 0.65603 0.43445 0.0
H3541 H 0.77781 0.62435 0.55504 0.0
H3542 H 0.69343 0.62224 0.48416 0.0
H3543 H 0.81612 0.65941 0.50643 0.0
H3544 H 0.74644 0.6243 0.5295 0.0
H3545 H 0.76233 0.65866 0.46078 0.0
C3546 C 0.72966 0.64923 0.45097 0.0
C3547 C 0.7101 0.63865 0.45716 0.0
C3548 C 0.76166 0.63206 0.52436 0.0
C3549 C 0.74515 0.64152 0.48727 0.0
C3550 C 0.77957 0.63199 0.5389 0.0
C3551 C 0.79955 0.64172 0.53267 0.0
C3552 C 0.76372 0.64193 0.50339 0.0
C3553 C 0.80093 0.65176 0.51179 0.0
C3554 C 0.74724 0.65068 0.46596 0.0
C3555 C 0.70845 0.63015 0.47869 0.0
N3556 N 0.78326 0.65152 0.49781 0.0
N3557 N 0.72578 0.63169 0.49296 0.0
H3558 H 0.63169 0.4973 0.82095 0.0
H3559 H 0.61313 0.41495 0.7422 0.0
H3560 H 0.61444 0.54047 0.76727 0.0
H3561 H 0.63625 0.46278 0.69514 0.0
H3562 H 0.61293 0.44318 0.77119 0.0
H3563 H 0.6331 0.46682 0.79447 0.0
C3564 C 0.62806 0.50023 0.80355 0.0
C3565 C 0.62281 0.52121 0.79614 0.0
C3566 C 0.61845 0.44744 0.75465 0.0
C3567 C 0.62416 0.48667 0.76592 0.0
C3568 C 0.61843 0.43141 0.73815 0.0
C3569 C 0.6249 0.43669 0.71649 0.0
C3570 C 0.62481 0.46891 0.74929 0.0
C3571 C 0.6314 0.45818 0.7118 0.0
C3572 C 0.62869 0.48287 0.78851 0.0
C3573 C 0.61835 0.52438 0.77351 0.0
N3574 N 0.63098 0.47364 0.72807 0.0
N3575 N 0.61929 0.50727 0.75909 0.0
H3576 H 0.93202 0.7472 0.89331 0.0
H3577 H 0.0427 0.78647 0.83321 0.0
H3578 H 0.97243 0.70542 0.85295 0.0
H3579 H 0.01674 0.81919 0.89085 0.0
H3580 H 0.01219 0.76005 0.83496 0.0
H3581 H 0.95911 0.7769 0.8884 0.0
C3582 C 0.94658 0.74434 0.88343 0.0
C3583 C 0.94998 0.72401 0.87333 0.0
C3584 C 0.01307 0.77312 0.84712 0.0
C3585 C 0.98055 0.75768 0.86732 0.0
C3586 C 0.03032 0.78822 0.84599 0.0
C3587 C 0.03216 0.80472 0.86204 0.0
C3588 C 0.99756 0.77475 0.86431 0.0
C3589 C 0.01586 0.80643 0.87835 0.0
C3590 C 0.96191 0.76124 0.88054 0.0
C3591 C 0.969 0.72103 0.86063 0.0
N3592 N -0.00077 0.79151 0.87917 0.0
N3593 N 0.98353 0.7377 0.8579 0.0
H3594 H 0.92556 0.26622 0.6198 0.0
H3595 H -0.00117 0.1827 0.64673 0.0
H3596 H 0.97331 0.30855 0.65144 0.0
H3597 H 0.04824 0.23249 0.63654 0.0
H3598 H 0.97037 0.21094 0.64583 0.0
H3599 H 0.95147 0.23585 0.62264 0.0
C3600 C 0.94149 0.269 0.62748 0.0
C3601 C 0.94736 0.28976 0.63554 0.0
C3602 C 0.98741 0.21567 0.64362 0.0
C3603 C 0.97699 0.25525 0.63896 0.0
C3604 C 0.00361 0.19962 0.64433 0.0
C3605 C 0.02576 0.20538 0.64153 0.0
C3606 C 0.99352 0.23764 0.6403 0.0
C3607 C 0.03124 0.22748 0.63858 0.0
C3608 C 0.95618 0.25167 0.62928 0.0
C3609 C 0.96819 0.29267 0.64523 0.0
N3610 N 0.01523 0.24286 0.63815 0.0
N3611 N 0.98239 0.27564 0.64646 0.0
H3612 H 0.46568 0.20256 0.3997 0.0
H3613 H 0.5083 0.31155 0.34 0.0
H3614 H 0.42842 0.23474 0.34841 0.0
H3615 H 0.54918 0.26986 0.38005 0.0
H3616 H 0.47787 0.28518 0.34398 0.0
H3617 H 0.49523 0.22942 0.39499 0.0
C3618 C 0.46366 0.21553 0.38766 0.0
C3619 C 0.44469 0.21663 0.37448 0.0
C3620 C 0.49355 0.28177 0.35178 0.0
C3621 C 0.47846 0.24714 0.36865 0.0
C3622 C 0.5109 0.2967 0.34937 0.0
C3623 C 0.53115 0.29281 0.35979 0.0
C3624 C 0.49656 0.263 0.36482 0.0
C3625 C 0.5337 0.27354 0.372 0.0
C3626 C 0.48058 0.23072 0.38479 0.0
C3627 C 0.44291 0.23348 0.35885 0.0
N3628 N 0.51657 0.25941 0.3743 0.0
N3629 N 0.45964 0.24813 0.35632 0.0
H3630 H 0.50657 0.68498 0.11316 0.0
H3631 H 0.47205 0.80503 0.15178 0.0
H3632 H 0.54318 0.72216 0.16195 0.0
H3633 H 0.42983 0.76231 0.11329 0.0
H3634 H 0.49843 0.77519 0.15578 0.0
H3635 H 0.47835 0.71329 0.11287 0.0
C3636 C 0.50854 0.6991 0.12391 0.0
C3637 C 0.5272 0.70137 0.1375 0.0
C3638 C 0.48335 0.7723 0.14654 0.0
C3639 C 0.49513 0.73391 0.13722 0.0
C3640 C 0.46828 0.78931 0.14432 0.0
C3641 C 0.44882 0.78615 0.13207 0.0
C3642 C 0.47898 0.75203 0.13632 0.0
C3643 C 0.44482 0.76553 0.12256 0.0
C3644 C 0.49245 0.71524 0.12378 0.0
C3645 C 0.52897 0.71985 0.15126 0.0
N3646 N 0.4598 0.74932 0.12477 0.0
N3647 N 0.51323 0.73553 0.15063 0.0
H3648 H 0.84678 0.03825 0.79858 0.0
H3649 H 0.91274 0.98079 0.69934 0.0
H3650 H 0.90082 0.06864 0.76388 0.0
H3651 H 0.85786 0.95055 0.73276 0.0
H3652 H 0.90945 0.01262 0.72381 0.0
H3653 H 0.8506 0.00582 0.77495 0.0
C3654 C 0.85928 0.03817 0.7858 0.0
C3655 C 0.87347 0.05613 0.78308 0.0
C3656 C 0.89816 -0.00099 0.7259 0.0
C3657 C 0.87824 0.01902 0.7563 0.0
C3658 C 0.90016 0.9808 0.71205 0.0
C3659 C 0.8855 0.96314 0.71408 0.0
C3660 C 0.88137 -0.00046 0.7419 0.0
C3661 C 0.86934 0.96399 0.73061 0.0
C3662 C 0.8616 0.0196 0.77246 0.0
C3663 C 0.88967 0.05503 0.7666 0.0
N3664 N 0.86763 0.98194 0.74385 0.0
N3665 N 0.89164 0.0368 0.75385 0.0
H3666 H 0.80379 0.08817 0.47232 0.0
H3667 H 0.68989 0.14408 0.50715 0.0
H3668 H 0.76996 0.1349 0.43139 0.0
H3669 H 0.7228 0.09559 0.5467 0.0
H3670 H 0.71921 0.1414 0.47933 0.0
H3671 H 0.77395 0.09024 0.49953 0.0
C3672 C 0.78995 0.09871 0.46901 0.0
C3673 C 0.78937 0.11151 0.44973 0.0
C3674 C 0.72003 0.13134 0.49409 0.0
C3675 C 0.7553 0.11422 0.48082 0.0
C3676 C 0.70339 0.13299 0.51001 0.0
C3677 C 0.70393 0.11998 0.52914 0.0
C3678 C 0.73736 0.1166 0.49741 0.0
C3679 C 0.72166 0.10573 0.53201 0.0
C3680 C 0.77299 0.10002 0.48458 0.0
C3681 C 0.77114 0.125 0.44624 0.0
N3682 N 0.73763 0.1044 0.51633 0.0
N3683 N 0.75489 0.1261 0.46168 0.0
H3684 H 0.61244 0.0625 0.24029 0.0
H3685 H 0.64216 0.97977 0.31476 0.0
H3686 H 0.61852 0.01204 0.19071 0.0
H3687 H 0.61145 0.93642 0.2671 0.0
H3688 H 0.63786 0.0101 0.28842 0.0
H3689 H 0.61515 0.03463 0.26956 0.0
C3690 C 0.61411 0.04549 0.23567 0.0
C3691 C 0.61525 0.0394 0.21323 0.0
C3692 C 0.63178 0.99403 0.28384 0.0
C3693 C 0.61892 0.00764 0.2463 0.0
C3694 C 0.6345 0.97672 0.29873 0.0
C3695 C 0.62699 0.95573 0.29305 0.0
C3696 C 0.62168 0.99015 0.26307 0.0
C3697 C 0.61725 0.95248 0.2721 0.0
C3698 C 0.61599 0.02965 0.2523 0.0
C3699 C 0.61755 0.01725 0.20791 0.0
N3700 N 0.615 0.96948 0.2578 0.0
N3701 N 0.61924 0.00213 0.22433 0.0
H3702 H 0.67814 0.89392 0.98822 0.0
H3703 H 0.79402 0.84508 0.02732 0.0
H3704 H 0.71565 0.84837 0.94933 0.0
H3705 H 0.75602 0.88959 0.06698 0.0
H3706 H 0.7654 0.84596 -0.00148 0.0
H3707 H 0.70679 0.89318 0.01707 0.0
C3708 C 0.69249 0.88385 0.98578 0.0
C3709 C 0.69455 0.87103 0.96659 0.0
C3710 C 0.76328 0.85553 0.01352 0.0
C3711 C 0.72723 0.86995 -0.00065 0.0
C3712 C 0.77954 0.85491 0.02997 0.0
C3713 C 0.77731 0.86732 0.04942 0.0
C3714 C 0.74468 0.86866 0.0166 0.0
C3715 C 0.7584 0.87997 0.05205 0.0
C3716 C 0.70876 0.88333 0.00224 0.0
C3717 C 0.71337 0.85822 0.96411 0.0
N3718 N 0.74281 0.88036 0.0358 0.0
N3719 N 0.72897 0.85795 0.98034 0.0
H3720 H 0.31794 0.62883 0.98114 0.0
H3721 H 0.23138 0.61604 0.05631 0.0
H3722 H 0.27358 0.59807 0.93432 0.0
H3723 H 0.19035 0.62517 -0.00143 0.0
H3724 H 0.26355 0.61299 0.03203 0.0
H3725 H 0.28783 0.63137 0.008 0.0
C3726 C 0.30185 0.62239 0.9767 0.0
C3727 C 0.29812 0.61309 0.9557 0.0
C3728 C 0.24759 0.616 0.02465 0.0
C3729 C 0.26372 0.61584 0.98614 0.0
C3730 C 0.2293 0.61763 0.03847 0.0
C3731 C 0.20845 0.62112 0.02928 0.0
C3732 C 0.24487 0.61768 0.00149 0.0
C3733 C 0.20632 0.62272 0.00615 0.0
C3734 C 0.28474 0.62371 0.99202 0.0
C3735 C 0.27703 0.60514 0.95051 0.0
N3736 N 0.22434 0.62083 0.99295 0.0
N3737 N 0.2605 0.60691 0.96557 0.0
H3738 H 0.14164 0.51569 0.68598 0.0
H3739 H 0.1097 0.47546 0.80789 0.0
H3740 H 0.10625 0.5566 0.73173 0.0
H3741 H 0.16308 0.44833 0.77022 0.0
H3742 H 0.10478 0.50336 0.77901 0.0
H3743 H 0.14561 0.48825 0.71518 0.0
C3744 C 0.13464 0.51882 0.70221 0.0
C3745 C 0.1239 0.53852 0.70662 0.0
C3746 C 0.11765 0.49139 0.77714 0.0
C3747 C 0.12813 0.50715 0.74002 0.0
C3748 C 0.12046 0.47554 0.79356 0.0
C3749 C 0.13682 0.45972 0.79131 0.0
C3750 C 0.13111 0.49114 0.75823 0.0
C3751 C 0.15038 0.4604 0.77256 0.0
C3752 C 0.13694 0.50321 0.71886 0.0
C3753 C 0.11466 0.5416 0.72772 0.0
N3754 N 0.1471 0.47575 0.75661 0.0
N3755 N 0.11704 0.52607 0.74372 0.0
H3756 H 0.24803 0.38064 0.56617 0.0
H3757 H 0.21518 0.3611 0.4384 0.0
H3758 H 0.29357 0.35793 0.51668 0.0
H3759 H 0.17099 0.38778 0.48701 0.0
H3760 H 0.24422 0.35987 0.46675 0.0
H3761 H 0.21941 0.38288 0.53754 0.0
C3762 C 0.25193 0.37613 0.54921 0.0
C3763 C 0.27313 0.36926 0.54364 0.0
C3764 C 0.22822 0.36608 0.47125 0.0
C3765 C 0.24057 0.37165 0.51085 0.0
C3766 C 0.21172 0.36679 0.4551 0.0
C3767 C 0.19077 0.37438 0.46059 0.0
C3768 C 0.22368 0.373 0.49304 0.0
C3769 C 0.187 0.38179 0.48227 0.0
C3770 C 0.23564 0.3774 0.53289 0.0
C3771 C 0.27736 0.36325 0.52158 0.0
N3772 N 0.20328 0.38079 0.4978 0.0
N3773 N 0.26122 0.36464 0.50594 0.0
H3774 H 0.34223 0.56177 0.26074 0.0
H3775 H 0.40734 0.45381 0.22712 0.0
H3776 H 0.40263 0.54306 0.29292 0.0
H3777 H 0.3599 0.48471 0.18429 0.0
H3778 H 0.40466 0.48479 0.253 0.0
H3779 H 0.34649 0.53146 0.23439 0.0
C3780 C 0.35636 0.55121 0.26222 0.0
C3781 C 0.37218 0.5549 0.27883 0.0
C3782 C 0.3949 0.48478 0.23789 0.0
C3783 C 0.37719 0.52027 0.24894 0.0
C3784 C 0.39652 0.46719 0.22309 0.0
C3785 C 0.38366 0.46663 0.20367 0.0
C3786 C 0.38018 0.50178 0.23326 0.0
C3787 C 0.36974 0.48428 0.19932 0.0
C3788 C 0.35887 0.53402 0.24716 0.0
C3789 C 0.39023 0.54084 0.28011 0.0
N3790 N 0.36824 0.50104 0.21406 0.0
N3791 N 0.39223 0.52406 0.2654 0.0
loop_
_geom_bond_atom_site_label_1
_geom_bond_atom_site_label_2
_geom_bond_distance
_geom_bond_site_symmetry_2
_ccdc_geom_bond_type
Co0 O3 1.970 . S
Co0 N17 1.989 . S
Co0 O25 1.967 . S
Co0 O32 1.920 . S
Co1 O4 1.966 . S
Co1 N10 2.022 . S
Co1 N18 1.993 . S
Co1 O26 1.941 . S
C2 O3 1.258 . S
C2 O4 1.263 . S
O3 Co0 1.970 . S
O3 C2 1.258 . S
O4 Co1 1.966 . S
O4 C2 1.263 . S
C5 O6 1.235 . S
C5 O32 1.289 . S
O6 C5 1.235 . S
C7 C9 1.400 . S
C7 N10 1.351 . S
C7 C12 1.501 . S
C8 C9 1.387 . S
C8 N11 1.341 . S
C9 C7 1.400 . S
C9 C8 1.387 . S
N10 Co1 2.022 . S
N10 C7 1.351 . S
N10 N11 1.365 . S
N11 C8 1.341 . S
N11 N10 1.365 . S
N11 H31 0.862 . S
C12 C7 1.501 . S
C12 H13 0.961 . S
C12 H14 0.961 . S
C12 H15 0.960 . S
H13 C12 0.961 . S
H14 C12 0.961 . S
H15 C12 0.960 . S
C16 N17 1.342 . S
C16 C20 1.401 . S
C16 C21 1.499 . S
N17 Co0 1.989 . S
N17 C16 1.342 . S
N17 N18 1.388 . S
N18 Co1 1.993 . S
N18 N17 1.388 . S
N18 C19 1.346 . S
C19 N18 1.346 . S
C19 C20 1.396 . S
C19 C29 1.510 . S
C20 C16 1.401 . S
C20 C19 1.396 . S
C21 C16 1.499 . S
C21 H22 0.959 . S
C21 H23 0.960 . S
C21 H24 0.961 . S
H22 C21 0.959 . S
H23 C21 0.960 . S
H24 C21 0.961 . S
O25 Co0 1.967 . S
O25 C33 1.258 . S
O26 Co1 1.941 . S
O26 C33 1.266 . S
H27 C29 0.959 . S
H28 C29 0.961 . S
C29 C19 1.510 . S
C29 H27 0.959 . S
C29 H28 0.961 . S
C29 H30 0.960 . S
H30 C29 0.960 . S
H31 N11 0.862 . S
O32 Co0 1.920 . S
O32 C5 1.289 . S
C33 O25 1.258 . S
C33 O26 1.266 . S
Co34 O37 1.970 . S
Co34 N51 1.989 . S
Co34 O59 1.967 . S
Co34 O66 1.920 . S
Co35 O38 1.966 . S
Co35 N44 2.022 . S
Co35 N52 1.993 . S
Co35 O60 1.941 . S
C36 O37 1.258 . S
C36 O38 1.263 . S
O37 Co34 1.970 . S
O37 C36 1.258 . S
O38 Co35 1.966 . S
O38 C36 1.263 . S
C39 O40 1.235 . S
C39 O66 1.289 . S
O40 C39 1.235 . S
C41 C43 1.400 . S
C41 N44 1.351 . S
C41 C46 1.501 . S
C42 C43 1.387 . S
C42 N45 1.341 . S
C43 C41 1.400 . S
C43 C42 1.387 . S
N44 Co35 2.022 . S
N44 C41 1.351 . S
N44 N45 1.365 . S
N45 C42 1.341 . S
N45 N44 1.365 . S
N45 H65 0.862 . S
C46 C41 1.501 . S
C46 H47 0.961 . S
C46 H48 0.961 . S
C46 H49 0.960 . S
H47 C46 0.961 . S
H48 C46 0.961 . S
H49 C46 0.960 . S
C50 N51 1.342 . S
C50 C54 1.401 . S
C50 C55 1.499 . S
N51 Co34 1.989 . S
N51 C50 1.342 . S
N51 N52 1.388 . S
N52 Co35 1.993 . S
N52 N51 1.388 . S
N52 C53 1.346 . S
C53 N52 1.346 . S
C53 C54 1.396 . S
C53 C63 1.510 . S
C54 C50 1.401 . S
C54 C53 1.396 . S
C55 C50 1.499 . S
C55 H56 0.959 . S
C55 H57 0.960 . S
C55 H58 0.961 . S
H56 C55 0.959 . S
H57 C55 0.960 . S
H58 C55 0.961 . S
O59 Co34 1.967 . S
O59 C67 1.258 . S
O60 Co35 1.941 . S
O60 C67 1.266 . S
H61 C63 0.959 . S
H62 C63 0.961 . S
C63 C53 1.510 . S
C63 H61 0.959 . S
C63 H62 0.961 . S
C63 H64 0.960 . S
H64 C63 0.960 . S
H65 N45 0.862 . S
O66 Co34 1.920 . S
O66 C39 1.289 . S
C67 O59 1.258 . S
C67 O60 1.266 . S
Co68 O71 1.970 . S
Co68 N85 1.989 . S
Co68 O93 1.967 . S
Co68 O100 1.920 . S
Co69 O72 1.966 . S
Co69 N78 2.022 . S
Co69 N86 1.993 . S
Co69 O94 1.941 . S
C70 O71 1.258 . S
C70 O72 1.263 . S
O71 Co68 1.970 . S
O71 C70 1.258 . S
O72 Co69 1.966 . S
O72 C70 1.263 . S
C73 O74 1.235 . S
C73 O100 1.289 . S
O74 C73 1.235 . S
C75 C77 1.400 . S
C75 N78 1.351 . S
C75 C80 1.501 . S
C76 C77 1.387 . S
C76 N79 1.341 . S
C77 C75 1.400 . S
C77 C76 1.387 . S
N78 Co69 2.022 . S
N78 C75 1.351 . S
N78 N79 1.365 . S
N79 C76 1.341 . S
N79 N78 1.365 . S
N79 H99 0.862 . S
C80 C75 1.501 . S
C80 H81 0.961 . S
C80 H82 0.961 . S
C80 H83 0.960 . S
H81 C80 0.961 . S
H82 C80 0.961 . S
H83 C80 0.960 . S
C84 N85 1.342 . S
C84 C88 1.401 . S
C84 C89 1.499 . S
N85 Co68 1.989 . S
N85 C84 1.342 . S
N85 N86 1.388 . S
N86 Co69 1.993 . S
N86 N85 1.388 . S
N86 C87 1.346 . S
C87 N86 1.346 . S
C87 C88 1.396 . S
C87 C97 1.510 . S
C88 C84 1.401 . S
C88 C87 1.396 . S
C89 C84 1.499 . S
C89 H90 0.959 . S
C89 H91 0.960 . S
C89 H92 0.961 . S
H90 C89 0.959 . S
H91 C89 0.960 . S
H92 C89 0.961 . S
O93 Co68 1.967 . S
O93 C101 1.258 . S
O94 Co69 1.941 . S
O94 C101 1.266 . S
H95 C97 0.959 . S
H96 C97 0.961 . S
C97 C87 1.510 . S
C97 H95 0.959 . S
C97 H96 0.961 . S
C97 H98 0.960 . S
H98 C97 0.960 . S
H99 N79 0.862 . S
O100 Co68 1.920 . S
O100 C73 1.289 . S
C101 O93 1.258 . S
C101 O94 1.266 . S
Co102 O105 1.970 . S
Co102 N119 1.989 . S
Co102 O127 1.967 . S
Co102 O134 1.920 . S
Co103 O106 1.966 . S
Co103 N112 2.022 . S
Co103 N120 1.993 . S
Co103 O128 1.941 . S
C104 O105 1.258 . S
C104 O106 1.263 . S
O105 Co102 1.970 . S
O105 C104 1.258 . S
O106 Co103 1.966 . S
O106 C104 1.263 . S
C107 O108 1.235 . S
C107 O134 1.289 . S
O108 C107 1.235 . S
C109 C111 1.400 . S
C109 N112 1.351 . S
C109 C114 1.501 . S
C110 C111 1.387 . S
C110 N113 1.341 . S
C111 C109 1.400 . S
C111 C110 1.387 . S
N112 Co103 2.022 . S
N112 C109 1.351 . S
N112 N113 1.365 . S
N113 C110 1.341 . S
N113 N112 1.365 . S
N113 H133 0.862 . S
C114 C109 1.501 . S
C114 H115 0.961 . S
C114 H116 0.961 . S
C114 H117 0.960 . S
H115 C114 0.961 . S
H116 C114 0.961 . S
H117 C114 0.960 . S
C118 N119 1.342 . S
C118 C122 1.401 . S
C118 C123 1.499 . S
N119 Co102 1.989 . S
N119 C118 1.342 . S
N119 N120 1.388 . S
N120 Co103 1.993 . S
N120 N119 1.388 . S
N120 C121 1.346 . S
C121 N120 1.346 . S
C121 C122 1.396 . S
C121 C131 1.510 . S
C122 C118 1.401 . S
C122 C121 1.396 . S
C123 C118 1.499 . S
C123 H124 0.959 . S
C123 H125 0.960 . S
C123 H126 0.961 . S
H124 C123 0.959 . S
H125 C123 0.960 . S
H126 C123 0.961 . S
O127 Co102 1.967 . S
O127 C135 1.258 . S
O128 Co103 1.941 . S
O128 C135 1.266 . S
H129 C131 0.959 . S
H130 C131 0.961 . S
C131 C121 1.510 . S
C131 H129 0.959 . S
C131 H130 0.961 . S
C131 H132 0.960 . S
H132 C131 0.960 . S
H133 N113 0.862 . S
O134 Co102 1.920 . S
O134 C107 1.289 . S
C135 O127 1.258 . S
C135 O128 1.266 . S
Co136 O139 1.970 . S
Co136 N153 1.989 . S
Co136 O161 1.967 . S
Co136 O168 1.920 . S
Co137 O140 1.966 . S
Co137 N146 2.022 . S
Co137 N154 1.993 . S
Co137 O162 1.941 . S
C138 O139 1.258 . S
C138 O140 1.263 . S
O139 Co136 1.970 . S
O139 C138 1.258 . S
O140 Co137 1.966 . S
O140 C138 1.263 . S
C141 O142 1.235 . S
C141 O168 1.289 . S
O142 C141 1.235 . S
C143 C145 1.400 . S
C143 N146 1.351 . S
C143 C148 1.501 . S
C144 C145 1.387 . S
C144 N147 1.341 . S
C145 C143 1.400 . S
C145 C144 1.387 . S
N146 Co137 2.022 . S
N146 C143 1.351 . S
N146 N147 1.365 . S
N147 C144 1.341 . S
N147 N146 1.365 . S
N147 H167 0.862 . S
C148 C143 1.501 . S
C148 H149 0.961 . S
C148 H150 0.961 . S
C148 H151 0.960 . S
H149 C148 0.961 . S
H150 C148 0.961 . S
H151 C148 0.960 . S
C152 N153 1.342 . S
C152 C156 1.401 . S
C152 C157 1.499 . S
N153 Co136 1.989 . S
N153 C152 1.342 . S
N153 N154 1.388 . S
N154 Co137 1.993 . S
N154 N153 1.388 . S
N154 C155 1.346 . S
C155 N154 1.346 . S
C155 C156 1.396 . S
C155 C165 1.510 . S
C156 C152 1.401 . S
C156 C155 1.396 . S
C157 C152 1.499 . S
C157 H158 0.959 . S
C157 H159 0.960 . S
C157 H160 0.961 . S
H158 C157 0.959 . S
H159 C157 0.960 . S
H160 C157 0.961 . S
O161 Co136 1.967 . S
O161 C169 1.258 . S
O162 Co137 1.941 . S
O162 C169 1.266 . S
H163 C165 0.959 . S
H164 C165 0.961 . S
C165 C155 1.510 . S
C165 H163 0.959 . S
C165 H164 0.961 . S
C165 H166 0.960 . S
H166 C165 0.960 . S
H167 N147 0.862 . S
O168 Co136 1.920 . S
O168 C141 1.289 . S
C169 O161 1.258 . S
C169 O162 1.266 . S
Co170 O173 1.970 . S
Co170 N187 1.989 . S
Co170 O195 1.967 . S
Co170 O202 1.920 . S
Co171 O174 1.966 . S
Co171 N180 2.022 . S
Co171 N188 1.993 . S
Co171 O196 1.941 . S
C172 O173 1.258 . S
C172 O174 1.263 . S
O173 Co170 1.970 . S
O173 C172 1.258 . S
O174 Co171 1.966 . S
O174 C172 1.263 . S
C175 O176 1.235 . S
C175 O202 1.289 . S
O176 C175 1.235 . S
C177 C179 1.400 . S
C177 N180 1.351 . S
C177 C182 1.501 . S
C178 C179 1.387 . S
C178 N181 1.341 . S
C179 C177 1.400 . S
C179 C178 1.387 . S
N180 Co171 2.022 . S
N180 C177 1.351 . S
N180 N181 1.365 . S
N181 C178 1.341 . S
N181 N180 1.365 . S
N181 H201 0.862 . S
C182 C177 1.501 . S
C182 H183 0.961 . S
C182 H184 0.961 . S
C182 H185 0.960 . S
H183 C182 0.961 . S
H184 C182 0.961 . S
H185 C182 0.960 . S
C186 N187 1.342 . S
C186 C190 1.401 . S
C186 C191 1.499 . S
N187 Co170 1.989 . S
N187 C186 1.342 . S
N187 N188 1.388 . S
N188 Co171 1.993 . S
N188 N187 1.388 . S
N188 C189 1.346 . S
C189 N188 1.346 . S
C189 C190 1.396 . S
C189 C199 1.510 . S
C190 C186 1.401 . S
C190 C189 1.396 . S
C191 C186 1.499 . S
C191 H192 0.959 . S
C191 H193 0.960 . S
C191 H194 0.961 . S
H192 C191 0.959 . S
H193 C191 0.960 . S
H194 C191 0.961 . S
O195 Co170 1.967 . S
O195 C203 1.258 . S
O196 Co171 1.941 . S
O196 C203 1.266 . S
H197 C199 0.959 . S
H198 C199 0.961 . S
C199 C189 1.510 . S
C199 H197 0.959 . S
C199 H198 0.961 . S
C199 H200 0.960 . S
H200 C199 0.960 . S
H201 N181 0.862 . S
O202 Co170 1.920 . S
O202 C175 1.289 . S
C203 O195 1.258 . S
C203 O196 1.266 . S
Co204 O207 1.970 . S
Co204 N221 1.989 . S
Co204 O229 1.967 . S
Co204 O236 1.920 . S
Co205 O208 1.966 . S
Co205 N214 2.022 . S
Co205 N222 1.993 . S
Co205 O230 1.941 . S
C206 O207 1.258 . S
C206 O208 1.263 . S
O207 Co204 1.970 . S
O207 C206 1.258 . S
O208 Co205 1.966 . S
O208 C206 1.263 . S
C209 O210 1.235 . S
C209 O236 1.289 . S
O210 C209 1.235 . S
C211 C213 1.400 . S
C211 N214 1.351 . S
C211 C216 1.501 . S
C212 C213 1.387 . S
C212 N215 1.341 . S
C213 C211 1.400 . S
C213 C212 1.387 . S
N214 Co205 2.022 . S
N214 C211 1.351 . S
N214 N215 1.365 . S
N215 C212 1.341 . S
N215 N214 1.365 . S
N215 H235 0.862 . S
C216 C211 1.501 . S
C216 H217 0.961 . S
C216 H218 0.961 . S
C216 H219 0.960 . S
H217 C216 0.961 . S
H218 C216 0.961 . S
H219 C216 0.960 . S
C220 N221 1.342 . S
C220 C224 1.401 . S
C220 C225 1.499 . S
N221 Co204 1.989 . S
N221 C220 1.342 . S
N221 N222 1.388 . S
N222 Co205 1.993 . S
N222 N221 1.388 . S
N222 C223 1.346 . S
C223 N222 1.346 . S
C223 C224 1.396 . S
C223 C233 1.510 . S
C224 C220 1.401 . S
C224 C223 1.396 . S
C225 C220 1.499 . S
C225 H226 0.959 . S
C225 H227 0.960 . S
C225 H228 0.961 . S
H226 C225 0.959 . S
H227 C225 0.960 . S
H228 C225 0.961 . S
O229 Co204 1.967 . S
O229 C237 1.258 . S
O230 Co205 1.941 . S
O230 C237 1.266 . S
H231 C233 0.959 . S
H232 C233 0.961 . S
C233 C223 1.510 . S
C233 H231 0.959 . S
C233 H232 0.961 . S
C233 H234 0.960 . S
H234 C233 0.960 . S
H235 N215 0.862 . S
O236 Co204 1.920 . S
O236 C209 1.289 . S
C237 O229 1.258 . S
C237 O230 1.266 . S
Co238 O241 1.970 . S
Co238 N255 1.989 . S
Co238 O263 1.967 . S
Co238 O270 1.920 . S
Co239 O242 1.966 . S
Co239 N248 2.022 . S
Co239 N256 1.993 . S
Co239 O264 1.941 . S
C240 O241 1.258 . S
C240 O242 1.263 . S
O241 Co238 1.970 . S
O241 C240 1.258 . S
O242 Co239 1.966 . S
O242 C240 1.263 . S
C243 O244 1.235 . S
C243 O270 1.289 . S
O244 C243 1.235 . S
C245 C247 1.400 . S
C245 N248 1.351 . S
C245 C250 1.501 . S
C246 C247 1.387 . S
C246 N249 1.341 . S
C247 C245 1.400 . S
C247 C246 1.387 . S
N248 Co239 2.022 . S
N248 C245 1.351 . S
N248 N249 1.365 . S
N249 C246 1.341 . S
N249 N248 1.365 . S
N249 H269 0.862 . S
C250 C245 1.501 . S
C250 H251 0.961 . S
C250 H252 0.961 . S
C250 H253 0.960 . S
H251 C250 0.961 . S
H252 C250 0.961 . S
H253 C250 0.960 . S
C254 N255 1.342 . S
C254 C258 1.401 . S
C254 C259 1.499 . S
N255 Co238 1.989 . S
N255 C254 1.342 . S
N255 N256 1.388 . S
N256 Co239 1.993 . S
N256 N255 1.388 . S
N256 C257 1.346 . S
C257 N256 1.346 . S
C257 C258 1.396 . S
C257 C267 1.510 . S
C258 C254 1.401 . S
C258 C257 1.396 . S
C259 C254 1.499 . S
C259 H260 0.959 . S
C259 H261 0.960 . S
C259 H262 0.961 . S
H260 C259 0.959 . S
H261 C259 0.960 . S
H262 C259 0.961 . S
O263 Co238 1.967 . S
O263 C271 1.258 . S
O264 Co239 1.941 . S
O264 C271 1.266 . S
H265 C267 0.959 . S
H266 C267 0.961 . S
C267 C257 1.510 . S
C267 H265 0.959 . S
C267 H266 0.961 . S
C267 H268 0.960 . S
H268 C267 0.960 . S
H269 N249 0.862 . S
O270 Co238 1.920 . S
O270 C243 1.289 . S
C271 O263 1.258 . S
C271 O264 1.266 . S
Co272 O275 1.970 . S
Co272 N289 1.989 . S
Co272 O297 1.967 . S
Co272 O304 1.920 . S
Co273 O276 1.966 . S
Co273 N282 2.022 . S
Co273 N290 1.993 . S
Co273 O298 1.941 . S
C274 O275 1.258 . S
C274 O276 1.263 . S
O275 Co272 1.970 . S
O275 C274 1.258 . S
O276 Co273 1.966 . S
O276 C274 1.263 . S
C277 O278 1.235 . S
C277 O304 1.289 . S
O278 C277 1.235 . S
C279 C281 1.400 . S
C279 N282 1.351 . S
C279 C284 1.501 . S
C280 C281 1.387 . S
C280 N283 1.341 . S
C281 C279 1.400 . S
C281 C280 1.387 . S
N282 Co273 2.022 . S
N282 C279 1.351 . S
N282 N283 1.365 . S
N283 C280 1.341 . S
N283 N282 1.365 . S
N283 H303 0.862 . S
C284 C279 1.501 . S
C284 H285 0.961 . S
C284 H286 0.961 . S
C284 H287 0.960 . S
H285 C284 0.961 . S
H286 C284 0.961 . S
H287 C284 0.960 . S
C288 N289 1.342 . S
C288 C292 1.401 . S
C288 C293 1.499 . S
N289 Co272 1.989 . S
N289 C288 1.342 . S
N289 N290 1.388 . S
N290 Co273 1.993 . S
N290 N289 1.388 . S
N290 C291 1.346 . S
C291 N290 1.346 . S
C291 C292 1.396 . S
C291 C301 1.510 . S
C292 C288 1.401 . S
C292 C291 1.396 . S
C293 C288 1.499 . S
C293 H294 0.959 . S
C293 H295 0.960 . S
C293 H296 0.961 . S
H294 C293 0.959 . S
H295 C293 0.960 . S
H296 C293 0.961 . S
O297 Co272 1.967 . S
O297 C305 1.258 . S
O298 Co273 1.941 . S
O298 C305 1.266 . S
H299 C301 0.959 . S
H300 C301 0.961 . S
C301 C291 1.510 . S
C301 H299 0.959 . S
C301 H300 0.961 . S
C301 H302 0.960 . S
H302 C301 0.960 . S
H303 N283 0.862 . S
O304 Co272 1.920 . S
O304 C277 1.289 . S
C305 O297 1.258 . S
C305 O298 1.266 . S
Co306 O309 1.970 . S
Co306 N323 1.989 . S
Co306 O331 1.967 . S
Co306 O338 1.920 . S
Co307 O310 1.966 . S
Co307 N316 2.022 . S
Co307 N324 1.993 . S
Co307 O332 1.941 . S
C308 O309 1.258 . S
C308 O310 1.263 . S
O309 Co306 1.970 . S
O309 C308 1.258 . S
O310 Co307 1.966 . S
O310 C308 1.263 . S
C311 O312 1.235 . S
C311 O338 1.289 . S
O312 C311 1.235 . S
C313 C315 1.400 . S
C313 N316 1.351 . S
C313 C318 1.501 . S
C314 C315 1.387 . S
C314 N317 1.341 . S
C315 C313 1.400 . S
C315 C314 1.387 . S
N316 Co307 2.022 . S
N316 C313 1.351 . S
N316 N317 1.365 . S
N317 C314 1.341 . S
N317 N316 1.365 . S
N317 H337 0.862 . S
C318 C313 1.501 . S
C318 H319 0.961 . S
C318 H320 0.961 . S
C318 H321 0.960 . S
H319 C318 0.961 . S
H320 C318 0.961 . S
H321 C318 0.960 . S
C322 N323 1.342 . S
C322 C326 1.401 . S
C322 C327 1.499 . S
N323 Co306 1.989 . S
N323 C322 1.342 . S
N323 N324 1.388 . S
N324 Co307 1.993 . S
N324 N323 1.388 . S
N324 C325 1.346 . S
C325 N324 1.346 . S
C325 C326 1.396 . S
C325 C335 1.510 . S
C326 C322 1.401 . S
C326 C325 1.396 . S
C327 C322 1.499 . S
C327 H328 0.959 . S
C327 H329 0.960 . S
C327 H330 0.961 . S
H328 C327 0.959 . S
H329 C327 0.960 . S
H330 C327 0.961 . S
O331 Co306 1.967 . S
O331 C339 1.258 . S
O332 Co307 1.941 . S
O332 C339 1.266 . S
H333 C335 0.959 . S
H334 C335 0.961 . S
C335 C325 1.510 . S
C335 H333 0.959 . S
C335 H334 0.961 . S
C335 H336 0.960 . S
H336 C335 0.960 . S
H337 N317 0.862 . S
O338 Co306 1.920 . S
O338 C311 1.289 . S
C339 O331 1.258 . S
C339 O332 1.266 . S
Co340 O343 1.970 . S
Co340 N357 1.989 . S
Co340 O365 1.967 . S
Co340 O372 1.920 . S
Co341 O344 1.966 . S
Co341 N350 2.022 . S
Co341 N358 1.993 . S
Co341 O366 1.941 . S
C342 O343 1.258 . S
C342 O344 1.263 . S
O343 Co340 1.970 . S
O343 C342 1.258 . S
O344 Co341 1.966 . S
O344 C342 1.263 . S
C345 O346 1.235 . S
C345 O372 1.289 . S
O346 C345 1.235 . S
C347 C349 1.400 . S
C347 N350 1.351 . S
C347 C352 1.501 . S
C348 C349 1.387 . S
C348 N351 1.341 . S
C349 C347 1.400 . S
C349 C348 1.387 . S
N350 Co341 2.022 . S
N350 C347 1.351 . S
N350 N351 1.365 . S
N351 C348 1.341 . S
N351 N350 1.365 . S
N351 H371 0.862 . S
C352 C347 1.501 . S
C352 H353 0.961 . S
C352 H354 0.961 . S
C352 H355 0.960 . S
H353 C352 0.961 . S
H354 C352 0.961 . S
H355 C352 0.960 . S
C356 N357 1.342 . S
C356 C360 1.401 . S
C356 C361 1.499 . S
N357 Co340 1.989 . S
N357 C356 1.342 . S
N357 N358 1.388 . S
N358 Co341 1.993 . S
N358 N357 1.388 . S
N358 C359 1.346 . S
C359 N358 1.346 . S
C359 C360 1.396 . S
C359 C369 1.510 . S
C360 C356 1.401 . S
C360 C359 1.396 . S
C361 C356 1.499 . S
C361 H362 0.959 . S
C361 H363 0.960 . S
C361 H364 0.961 . S
H362 C361 0.959 . S
H363 C361 0.960 . S
H364 C361 0.961 . S
O365 Co340 1.967 . S
O365 C373 1.258 . S
O366 Co341 1.941 . S
O366 C373 1.266 . S
H367 C369 0.959 . S
H368 C369 0.961 . S
C369 C359 1.510 . S
C369 H367 0.959 . S
C369 H368 0.961 . S
C369 H370 0.960 . S
H370 C369 0.960 . S
H371 N351 0.862 . S
O372 Co340 1.920 . S
O372 C345 1.289 . S
C373 O365 1.258 . S
C373 O366 1.266 . S
Co374 O377 1.970 . S
Co374 N391 1.989 . S
Co374 O399 1.967 . S
Co374 O406 1.920 . S
Co375 O378 1.966 . S
Co375 N384 2.022 . S
Co375 N392 1.993 . S
Co375 O400 1.941 . S
C376 O377 1.258 . S
C376 O378 1.263 . S
O377 Co374 1.970 . S
O377 C376 1.258 . S
O378 Co375 1.966 . S
O378 C376 1.263 . S
C379 O380 1.235 . S
C379 O406 1.289 . S
O380 C379 1.235 . S
C381 C383 1.400 . S
C381 N384 1.351 . S
C381 C386 1.501 . S
C382 C383 1.387 . S
C382 N385 1.341 . S
C383 C381 1.400 . S
C383 C382 1.387 . S
N384 Co375 2.022 . S
N384 C381 1.351 . S
N384 N385 1.365 . S
N385 C382 1.341 . S
N385 N384 1.365 . S
N385 H405 0.862 . S
C386 C381 1.501 . S
C386 H387 0.961 . S
C386 H388 0.961 . S
C386 H389 0.960 . S
H387 C386 0.961 . S
H388 C386 0.961 . S
H389 C386 0.960 . S
C390 N391 1.342 . S
C390 C394 1.401 . S
C390 C395 1.499 . S
N391 Co374 1.989 . S
N391 C390 1.342 . S
N391 N392 1.388 . S
N392 Co375 1.993 . S
N392 N391 1.388 . S
N392 C393 1.346 . S
C393 N392 1.346 . S
C393 C394 1.396 . S
C393 C403 1.510 . S
C394 C390 1.401 . S
C394 C393 1.396 . S
C395 C390 1.499 . S
C395 H396 0.959 . S
C395 H397 0.960 . S
C395 H398 0.961 . S
H396 C395 0.959 . S
H397 C395 0.960 . S
H398 C395 0.961 . S
O399 Co374 1.967 . S
O399 C407 1.258 . S
O400 Co375 1.941 . S
O400 C407 1.266 . S
H401 C403 0.959 . S
H402 C403 0.961 . S
C403 C393 1.510 . S
C403 H401 0.959 . S
C403 H402 0.961 . S
C403 H404 0.960 . S
H404 C403 0.960 . S
H405 N385 0.862 . S
O406 Co374 1.920 . S
O406 C379 1.289 . S
C407 O399 1.258 . S
C407 O400 1.266 . S
Co408 O411 1.970 . S
Co408 N425 1.989 . S
Co408 O433 1.967 . S
Co408 O440 1.920 . S
Co409 O412 1.966 . S
Co409 N418 2.022 . S
Co409 N426 1.993 . S
Co409 O434 1.941 . S
C410 O411 1.258 . S
C410 O412 1.263 . S
O411 Co408 1.970 . S
O411 C410 1.258 . S
O412 Co409 1.966 . S
O412 C410 1.263 . S
C413 O414 1.235 . S
C413 O440 1.289 . S
O414 C413 1.235 . S
C415 C417 1.400 . S
C415 N418 1.351 . S
C415 C420 1.501 . S
C416 C417 1.387 . S
C416 N419 1.341 . S
C417 C415 1.400 . S
C417 C416 1.387 . S
N418 Co409 2.022 . S
N418 C415 1.351 . S
N418 N419 1.365 . S
N419 C416 1.341 . S
N419 N418 1.365 . S
N419 H439 0.862 . S
C420 C415 1.501 . S
C420 H421 0.961 . S
C420 H422 0.961 . S
C420 H423 0.960 . S
H421 C420 0.961 . S
H422 C420 0.961 . S
H423 C420 0.960 . S
C424 N425 1.342 . S
C424 C428 1.401 . S
C424 C429 1.499 . S
N425 Co408 1.989 . S
N425 C424 1.342 . S
N425 N426 1.388 . S
N426 Co409 1.993 . S
N426 N425 1.388 . S
N426 C427 1.346 . S
C427 N426 1.346 . S
C427 C428 1.396 . S
C427 C437 1.510 . S
C428 C424 1.401 . S
C428 C427 1.396 . S
C429 C424 1.499 . S
C429 H430 0.959 . S
C429 H431 0.960 . S
C429 H432 0.961 . S
H430 C429 0.959 . S
H431 C429 0.960 . S
H432 C429 0.961 . S
O433 Co408 1.967 . S
O433 C441 1.258 . S
O434 Co409 1.941 . S
O434 C441 1.266 . S
H435 C437 0.959 . S
H436 C437 0.961 . S
C437 C427 1.510 . S
C437 H435 0.959 . S
C437 H436 0.961 . S
C437 H438 0.960 . S
H438 C437 0.960 . S
H439 N419 0.862 . S
O440 Co408 1.920 . S
O440 C413 1.289 . S
C441 O433 1.258 . S
C441 O434 1.266 . S
Co442 O445 1.970 . S
Co442 N459 1.989 . S
Co442 O467 1.967 . S
Co442 O474 1.920 . S
Co443 O446 1.966 . S
Co443 N452 2.022 . S
Co443 N460 1.993 . S
Co443 O468 1.941 . S
C444 O445 1.258 . S
C444 O446 1.263 . S
O445 Co442 1.970 . S
O445 C444 1.258 . S
O446 Co443 1.966 . S
O446 C444 1.263 . S
C447 O448 1.235 . S
C447 O474 1.289 . S
O448 C447 1.235 . S
C449 C451 1.400 . S
C449 N452 1.351 . S
C449 C454 1.501 . S
C450 C451 1.387 . S
C450 N453 1.341 . S
C451 C449 1.400 . S
C451 C450 1.387 . S
N452 Co443 2.022 . S
N452 C449 1.351 . S
N452 N453 1.365 . S
N453 C450 1.341 . S
N453 N452 1.365 . S
N453 H473 0.862 . S
C454 C449 1.501 . S
C454 H455 0.961 . S
C454 H456 0.961 . S
C454 H457 0.960 . S
H455 C454 0.961 . S
H456 C454 0.961 . S
H457 C454 0.960 . S
C458 N459 1.342 . S
C458 C462 1.401 . S
C458 C463 1.499 . S
N459 Co442 1.989 . S
N459 C458 1.342 . S
N459 N460 1.388 . S
N460 Co443 1.993 . S
N460 N459 1.388 . S
N460 C461 1.346 . S
C461 N460 1.346 . S
C461 C462 1.396 . S
C461 C471 1.510 . S
C462 C458 1.401 . S
C462 C461 1.396 . S
C463 C458 1.499 . S
C463 H464 0.959 . S
C463 H465 0.960 . S
C463 H466 0.961 . S
H464 C463 0.959 . S
H465 C463 0.960 . S
H466 C463 0.961 . S
O467 Co442 1.967 . S
O467 C475 1.258 . S
O468 Co443 1.941 . S
O468 C475 1.266 . S
H469 C471 0.959 . S
H470 C471 0.961 . S
C471 C461 1.510 . S
C471 H469 0.959 . S
C471 H470 0.961 . S
C471 H472 0.960 . S
H472 C471 0.960 . S
H473 N453 0.862 . S
O474 Co442 1.920 . S
O474 C447 1.289 . S
C475 O467 1.258 . S
C475 O468 1.266 . S
Co476 O479 1.970 . S
Co476 N493 1.989 . S
Co476 O501 1.967 . S
Co476 O508 1.920 . S
Co477 O480 1.966 . S
Co477 N486 2.022 . S
Co477 N494 1.993 . S
Co477 O502 1.941 . S
C478 O479 1.258 . S
C478 O480 1.263 . S
O479 Co476 1.970 . S
O479 C478 1.258 . S
O480 Co477 1.966 . S
O480 C478 1.263 . S
C481 O482 1.235 . S
C481 O508 1.289 . S
O482 C481 1.235 . S
C483 C485 1.400 . S
C483 N486 1.351 . S
C483 C488 1.501 . S
C484 C485 1.387 . S
C484 N487 1.341 . S
C485 C483 1.400 . S
C485 C484 1.387 . S
N486 Co477 2.022 . S
N486 C483 1.351 . S
N486 N487 1.365 . S
N487 C484 1.341 . S
N487 N486 1.365 . S
N487 H507 0.862 . S
C488 C483 1.501 . S
C488 H489 0.961 . S
C488 H490 0.961 . S
C488 H491 0.960 . S
H489 C488 0.961 . S
H490 C488 0.961 . S
H491 C488 0.960 . S
C492 N493 1.342 . S
C492 C496 1.401 . S
C492 C497 1.499 . S
N493 Co476 1.989 . S
N493 C492 1.342 . S
N493 N494 1.388 . S
N494 Co477 1.993 . S
N494 N493 1.388 . S
N494 C495 1.346 . S
C495 N494 1.346 . S
C495 C496 1.396 . S
C495 C505 1.510 . S
C496 C492 1.401 . S
C496 C495 1.396 . S
C497 C492 1.499 . S
C497 H498 0.959 . S
C497 H499 0.960 . S
C497 H500 0.961 . S
H498 C497 0.959 . S
H499 C497 0.960 . S
H500 C497 0.961 . S
O501 Co476 1.967 . S
O501 C509 1.258 . S
O502 Co477 1.941 . S
O502 C509 1.266 . S
H503 C505 0.959 . S
H504 C505 0.961 . S
C505 C495 1.510 . S
C505 H503 0.959 . S
C505 H504 0.961 . S
C505 H506 0.960 . S
H506 C505 0.960 . S
H507 N487 0.862 . S
O508 Co476 1.920 . S
O508 C481 1.289 . S
C509 O501 1.258 . S
C509 O502 1.266 . S
Co510 O513 1.970 . S
Co510 N527 1.989 . S
Co510 O535 1.967 . S
Co510 O542 1.920 . S
Co511 O514 1.966 . S
Co511 N520 2.022 . S
Co511 N528 1.993 . S
Co511 O536 1.941 . S
C512 O513 1.258 . S
C512 O514 1.263 . S
O513 Co510 1.970 . S
O513 C512 1.258 . S
O514 Co511 1.966 . S
O514 C512 1.263 . S
C515 O516 1.235 . S
C515 O542 1.289 . S
O516 C515 1.235 . S
C517 C519 1.400 . S
C517 N520 1.351 . S
C517 C522 1.501 . S
C518 C519 1.387 . S
C518 N521 1.341 . S
C519 C517 1.400 . S
C519 C518 1.387 . S
N520 Co511 2.022 . S
N520 C517 1.351 . S
N520 N521 1.365 . S
N521 C518 1.341 . S
N521 N520 1.365 . S
N521 H541 0.862 . S
C522 C517 1.501 . S
C522 H523 0.961 . S
C522 H524 0.961 . S
C522 H525 0.960 . S
H523 C522 0.961 . S
H524 C522 0.961 . S
H525 C522 0.960 . S
C526 N527 1.342 . S
C526 C530 1.401 . S
C526 C531 1.499 . S
N527 Co510 1.989 . S
N527 C526 1.342 . S
N527 N528 1.388 . S
N528 Co511 1.993 . S
N528 N527 1.388 . S
N528 C529 1.346 . S
C529 N528 1.346 . S
C529 C530 1.396 . S
C529 C539 1.510 . S
C530 C526 1.401 . S
C530 C529 1.396 . S
C531 C526 1.499 . S
C531 H532 0.959 . S
C531 H533 0.960 . S
C531 H534 0.961 . S
H532 C531 0.959 . S
H533 C531 0.960 . S
H534 C531 0.961 . S
O535 Co510 1.967 . S
O535 C543 1.258 . S
O536 Co511 1.941 . S
O536 C543 1.266 . S
H537 C539 0.959 . S
H538 C539 0.961 . S
C539 C529 1.510 . S
C539 H537 0.959 . S
C539 H538 0.961 . S
C539 H540 0.960 . S
H540 C539 0.960 . S
H541 N521 0.862 . S
O542 Co510 1.920 . S
O542 C515 1.289 . S
C543 O535 1.258 . S
C543 O536 1.266 . S
Co544 O547 1.970 . S
Co544 N561 1.989 . S
Co544 O569 1.967 . S
Co544 O576 1.920 . S
Co545 O548 1.966 . S
Co545 N554 2.022 . S
Co545 N562 1.993 . S
Co545 O570 1.941 . S
C546 O547 1.258 . S
C546 O548 1.263 . S
O547 Co544 1.970 . S
O547 C546 1.258 . S
O548 Co545 1.966 . S
O548 C546 1.263 . S
C549 O550 1.235 . S
C549 O576 1.289 . S
O550 C549 1.235 . S
C551 C553 1.400 . S
C551 N554 1.351 . S
C551 C556 1.501 . S
C552 C553 1.387 . S
C552 N555 1.341 . S
C553 C551 1.400 . S
C553 C552 1.387 . S
N554 Co545 2.022 . S
N554 C551 1.351 . S
N554 N555 1.365 . S
N555 C552 1.341 . S
N555 N554 1.365 . S
N555 H575 0.862 . S
C556 C551 1.501 . S
C556 H557 0.961 . S
C556 H558 0.961 . S
C556 H559 0.960 . S
H557 C556 0.961 . S
H558 C556 0.961 . S
H559 C556 0.960 . S
C560 N561 1.342 . S
C560 C564 1.401 . S
C560 C565 1.499 . S
N561 Co544 1.989 . S
N561 C560 1.342 . S
N561 N562 1.388 . S
N562 Co545 1.993 . S
N562 N561 1.388 . S
N562 C563 1.346 . S
C563 N562 1.346 . S
C563 C564 1.396 . S
C563 C573 1.510 . S
C564 C560 1.401 . S
C564 C563 1.396 . S
C565 C560 1.499 . S
C565 H566 0.959 . S
C565 H567 0.960 . S
C565 H568 0.961 . S
H566 C565 0.959 . S
H567 C565 0.960 . S
H568 C565 0.961 . S
O569 Co544 1.967 . S
O569 C577 1.258 . S
O570 Co545 1.941 . S
O570 C577 1.266 . S
H571 C573 0.959 . S
H572 C573 0.961 . S
C573 C563 1.510 . S
C573 H571 0.959 . S
C573 H572 0.961 . S
C573 H574 0.960 . S
H574 C573 0.960 . S
H575 N555 0.862 . S
O576 Co544 1.920 . S
O576 C549 1.289 . S
C577 O569 1.258 . S
C577 O570 1.266 . S
Co578 O581 1.970 . S
Co578 N595 1.989 . S
Co578 O603 1.967 . S
Co578 O610 1.920 . S
Co579 O582 1.966 . S
Co579 N588 2.022 . S
Co579 N596 1.993 . S
Co579 O604 1.941 . S
C580 O581 1.258 . S
C580 O582 1.263 . S
O581 Co578 1.970 . S
O581 C580 1.258 . S
O582 Co579 1.966 . S
O582 C580 1.263 . S
C583 O584 1.235 . S
C583 O610 1.289 . S
O584 C583 1.235 . S
C585 C587 1.400 . S
C585 N588 1.351 . S
C585 C590 1.501 . S
C586 C587 1.387 . S
C586 N589 1.341 . S
C587 C585 1.400 . S
C587 C586 1.387 . S
N588 Co579 2.022 . S
N588 C585 1.351 . S
N588 N589 1.365 . S
N589 C586 1.341 . S
N589 N588 1.365 . S
N589 H609 0.862 . S
C590 C585 1.501 . S
C590 H591 0.961 . S
C590 H592 0.961 . S
C590 H593 0.960 . S
H591 C590 0.961 . S
H592 C590 0.961 . S
H593 C590 0.960 . S
C594 N595 1.342 . S
C594 C598 1.401 . S
C594 C599 1.499 . S
N595 Co578 1.989 . S
N595 C594 1.342 . S
N595 N596 1.388 . S
N596 Co579 1.993 . S
N596 N595 1.388 . S
N596 C597 1.346 . S
C597 N596 1.346 . S
C597 C598 1.396 . S
C597 C607 1.510 . S
C598 C594 1.401 . S
C598 C597 1.396 . S
C599 C594 1.499 . S
C599 H600 0.959 . S
C599 H601 0.960 . S
C599 H602 0.961 . S
H600 C599 0.959 . S
H601 C599 0.960 . S
H602 C599 0.961 . S
O603 Co578 1.967 . S
O603 C611 1.258 . S
O604 Co579 1.941 . S
O604 C611 1.266 . S
H605 C607 0.959 . S
H606 C607 0.961 . S
C607 C597 1.510 . S
C607 H605 0.959 . S
C607 H606 0.961 . S
C607 H608 0.960 . S
H608 C607 0.960 . S
H609 N589 0.862 . S
O610 Co578 1.920 . S
O610 C583 1.289 . S
C611 O603 1.258 . S
C611 O604 1.266 . S
Co612 O615 1.970 . S
Co612 N629 1.989 . S
Co612 O637 1.967 . S
Co612 O644 1.920 . S
Co613 O616 1.966 . S
Co613 N622 2.022 . S
Co613 N630 1.993 . S
Co613 O638 1.941 . S
C614 O615 1.258 . S
C614 O616 1.263 . S
O615 Co612 1.970 . S
O615 C614 1.258 . S
O616 Co613 1.966 . S
O616 C614 1.263 . S
C617 O618 1.235 . S
C617 O644 1.289 . S
O618 C617 1.235 . S
C619 C621 1.400 . S
C619 N622 1.351 . S
C619 C624 1.501 . S
C620 C621 1.387 . S
C620 N623 1.341 . S
C621 C619 1.400 . S
C621 C620 1.387 . S
N622 Co613 2.022 . S
N622 C619 1.351 . S
N622 N623 1.365 . S
N623 C620 1.341 . S
N623 N622 1.365 . S
N623 H643 0.862 . S
C624 C619 1.501 . S
C624 H625 0.961 . S
C624 H626 0.961 . S
C624 H627 0.960 . S
H625 C624 0.961 . S
H626 C624 0.961 . S
H627 C624 0.960 . S
C628 N629 1.342 . S
C628 C632 1.401 . S
C628 C633 1.499 . S
N629 Co612 1.989 . S
N629 C628 1.342 . S
N629 N630 1.388 . S
N630 Co613 1.993 . S
N630 N629 1.388 . S
N630 C631 1.346 . S
C631 N630 1.346 . S
C631 C632 1.396 . S
C631 C641 1.510 . S
C632 C628 1.401 . S
C632 C631 1.396 . S
C633 C628 1.499 . S
C633 H634 0.959 . S
C633 H635 0.960 . S
C633 H636 0.961 . S
H634 C633 0.959 . S
H635 C633 0.960 . S
H636 C633 0.961 . S
O637 Co612 1.967 . S
O637 C645 1.258 . S
O638 Co613 1.941 . S
O638 C645 1.266 . S
H639 C641 0.959 . S
H640 C641 0.961 . S
C641 C631 1.510 . S
C641 H639 0.959 . S
C641 H640 0.961 . S
C641 H642 0.960 . S
H642 C641 0.960 . S
H643 N623 0.862 . S
O644 Co612 1.920 . S
O644 C617 1.289 . S
C645 O637 1.258 . S
C645 O638 1.266 . S
Co646 O649 1.970 . S
Co646 N663 1.989 . S
Co646 O671 1.967 . S
Co646 O678 1.920 . S
Co647 O650 1.966 . S
Co647 N656 2.022 . S
Co647 N664 1.993 . S
Co647 O672 1.941 . S
C648 O649 1.258 . S
C648 O650 1.263 . S
O649 Co646 1.970 . S
O649 C648 1.258 . S
O650 Co647 1.966 . S
O650 C648 1.263 . S
C651 O652 1.235 . S
C651 O678 1.289 . S
O652 C651 1.235 . S
C653 C655 1.400 . S
C653 N656 1.351 . S
C653 C658 1.501 . S
C654 C655 1.387 . S
C654 N657 1.341 . S
C655 C653 1.400 . S
C655 C654 1.387 . S
N656 Co647 2.022 . S
N656 C653 1.351 . S
N656 N657 1.365 . S
N657 C654 1.341 . S
N657 N656 1.365 . S
N657 H677 0.862 . S
C658 C653 1.501 . S
C658 H659 0.961 . S
C658 H660 0.961 . S
C658 H661 0.960 . S
H659 C658 0.961 . S
H660 C658 0.961 . S
H661 C658 0.960 . S
C662 N663 1.342 . S
C662 C666 1.401 . S
C662 C667 1.499 . S
N663 Co646 1.989 . S
N663 C662 1.342 . S
N663 N664 1.388 . S
N664 Co647 1.993 . S
N664 N663 1.388 . S
N664 C665 1.346 . S
C665 N664 1.346 . S
C665 C666 1.396 . S
C665 C675 1.510 . S
C666 C662 1.401 . S
C666 C665 1.396 . S
C667 C662 1.499 . S
C667 H668 0.959 . S
C667 H669 0.960 . S
C667 H670 0.961 . S
H668 C667 0.959 . S
H669 C667 0.960 . S
H670 C667 0.961 . S
O671 Co646 1.967 . S
O671 C679 1.258 . S
O672 Co647 1.941 . S
O672 C679 1.266 . S
H673 C675 0.959 . S
H674 C675 0.961 . S
C675 C665 1.510 . S
C675 H673 0.959 . S
C675 H674 0.961 . S
C675 H676 0.960 . S
H676 C675 0.960 . S
H677 N657 0.862 . S
O678 Co646 1.920 . S
O678 C651 1.289 . S
C679 O671 1.258 . S
C679 O672 1.266 . S
Co680 O683 1.970 . S
Co680 N697 1.989 . S
Co680 O705 1.967 . S
Co680 O712 1.920 . S
Co681 O684 1.966 . S
Co681 N690 2.022 . S
Co681 N698 1.993 . S
Co681 O706 1.941 . S
C682 O683 1.258 . S
C682 O684 1.263 . S
O683 Co680 1.970 . S
O683 C682 1.258 . S
O684 Co681 1.966 . S
O684 C682 1.263 . S
C685 O686 1.235 . S
C685 O712 1.289 . S
O686 C685 1.235 . S
C687 C689 1.400 . S
C687 N690 1.351 . S
C687 C692 1.501 . S
C688 C689 1.387 . S
C688 N691 1.341 . S
C689 C687 1.400 . S
C689 C688 1.387 . S
N690 Co681 2.022 . S
N690 C687 1.351 . S
N690 N691 1.365 . S
N691 C688 1.341 . S
N691 N690 1.365 . S
N691 H711 0.862 . S
C692 C687 1.501 . S
C692 H693 0.961 . S
C692 H694 0.961 . S
C692 H695 0.960 . S
H693 C692 0.961 . S
H694 C692 0.961 . S
H695 C692 0.960 . S
C696 N697 1.342 . S
C696 C700 1.401 . S
C696 C701 1.499 . S
N697 Co680 1.989 . S
N697 C696 1.342 . S
N697 N698 1.388 . S
N698 Co681 1.993 . S
N698 N697 1.388 . S
N698 C699 1.346 . S
C699 N698 1.346 . S
C699 C700 1.396 . S
C699 C709 1.510 . S
C700 C696 1.401 . S
C700 C699 1.396 . S
C701 C696 1.499 . S
C701 H702 0.959 . S
C701 H703 0.960 . S
C701 H704 0.961 . S
H702 C701 0.959 . S
H703 C701 0.960 . S
H704 C701 0.961 . S
O705 Co680 1.967 . S
O705 C713 1.258 . S
O706 Co681 1.941 . S
O706 C713 1.266 . S
H707 C709 0.959 . S
H708 C709 0.961 . S
C709 C699 1.510 . S
C709 H707 0.959 . S
C709 H708 0.961 . S
C709 H710 0.960 . S
H710 C709 0.960 . S
H711 N691 0.862 . S
O712 Co680 1.920 . S
O712 C685 1.289 . S
C713 O705 1.258 . S
C713 O706 1.266 . S
Co714 O717 1.970 . S
Co714 N731 1.989 . S
Co714 O739 1.967 . S
Co714 O746 1.920 . S
Co715 O718 1.966 . S
Co715 N724 2.022 . S
Co715 N732 1.993 . S
Co715 O740 1.941 . S
C716 O717 1.258 . S
C716 O718 1.263 . S
O717 Co714 1.970 . S
O717 C716 1.258 . S
O718 Co715 1.966 . S
O718 C716 1.263 . S
C719 O720 1.235 . S
C719 O746 1.289 . S
O720 C719 1.235 . S
C721 C723 1.400 . S
C721 N724 1.351 . S
C721 C726 1.501 . S
C722 C723 1.387 . S
C722 N725 1.341 . S
C723 C721 1.400 . S
C723 C722 1.387 . S
N724 Co715 2.022 . S
N724 C721 1.351 . S
N724 N725 1.365 . S
N725 C722 1.341 . S
N725 N724 1.365 . S
N725 H745 0.862 . S
C726 C721 1.501 . S
C726 H727 0.961 . S
C726 H728 0.961 . S
C726 H729 0.960 . S
H727 C726 0.961 . S
H728 C726 0.961 . S
H729 C726 0.960 . S
C730 N731 1.342 . S
C730 C734 1.401 . S
C730 C735 1.499 . S
N731 Co714 1.989 . S
N731 C730 1.342 . S
N731 N732 1.388 . S
N732 Co715 1.993 . S
N732 N731 1.388 . S
N732 C733 1.346 . S
C733 N732 1.346 . S
C733 C734 1.396 . S
C733 C743 1.510 . S
C734 C730 1.401 . S
C734 C733 1.396 . S
C735 C730 1.499 . S
C735 H736 0.959 . S
C735 H737 0.960 . S
C735 H738 0.961 . S
H736 C735 0.959 . S
H737 C735 0.960 . S
H738 C735 0.961 . S
O739 Co714 1.967 . S
O739 C747 1.258 . S
O740 Co715 1.941 . S
O740 C747 1.266 . S
H741 C743 0.959 . S
H742 C743 0.961 . S
C743 C733 1.510 . S
C743 H741 0.959 . S
C743 H742 0.961 . S
C743 H744 0.960 . S
H744 C743 0.960 . S
H745 N725 0.862 . S
O746 Co714 1.920 . S
O746 C719 1.289 . S
C747 O739 1.258 . S
C747 O740 1.266 . S
Co748 O751 1.970 . S
Co748 N765 1.989 . S
Co748 O773 1.967 . S
Co748 O780 1.920 . S
Co749 O752 1.966 . S
Co749 N758 2.022 . S
Co749 N766 1.993 . S
Co749 O774 1.941 . S
C750 O751 1.258 . S
C750 O752 1.263 . S
O751 Co748 1.970 . S
O751 C750 1.258 . S
O752 Co749 1.966 . S
O752 C750 1.263 . S
C753 O754 1.235 . S
C753 O780 1.289 . S
O754 C753 1.235 . S
C755 C757 1.400 . S
C755 N758 1.351 . S
C755 C760 1.501 . S
C756 C757 1.387 . S
C756 N759 1.341 . S
C757 C755 1.400 . S
C757 C756 1.387 . S
N758 Co749 2.022 . S
N758 C755 1.351 . S
N758 N759 1.365 . S
N759 C756 1.341 . S
N759 N758 1.365 . S
N759 H779 0.862 . S
C760 C755 1.501 . S
C760 H761 0.961 . S
C760 H762 0.961 . S
C760 H763 0.960 . S
H761 C760 0.961 . S
H762 C760 0.961 . S
H763 C760 0.960 . S
C764 N765 1.342 . S
C764 C768 1.401 . S
C764 C769 1.499 . S
N765 Co748 1.989 . S
N765 C764 1.342 . S
N765 N766 1.388 . S
N766 Co749 1.993 . S
N766 N765 1.388 . S
N766 C767 1.346 . S
C767 N766 1.346 . S
C767 C768 1.396 . S
C767 C777 1.510 . S
C768 C764 1.401 . S
C768 C767 1.396 . S
C769 C764 1.499 . S
C769 H770 0.959 . S
C769 H771 0.960 . S
C769 H772 0.961 . S
H770 C769 0.959 . S
H771 C769 0.960 . S
H772 C769 0.961 . S
O773 Co748 1.967 . S
O773 C781 1.258 . S
O774 Co749 1.941 . S
O774 C781 1.266 . S
H775 C777 0.959 . S
H776 C777 0.961 . S
C777 C767 1.510 . S
C777 H775 0.959 . S
C777 H776 0.961 . S
C777 H778 0.960 . S
H778 C777 0.960 . S
H779 N759 0.862 . S
O780 Co748 1.920 . S
O780 C753 1.289 . S
C781 O773 1.258 . S
C781 O774 1.266 . S
Co782 O785 1.970 . S
Co782 N799 1.989 . S
Co782 O807 1.967 . S
Co782 O814 1.920 . S
Co783 O786 1.966 . S
Co783 N792 2.022 . S
Co783 N800 1.993 . S
Co783 O808 1.941 . S
C784 O785 1.258 . S
C784 O786 1.263 . S
O785 Co782 1.970 . S
O785 C784 1.258 . S
O786 Co783 1.966 . S
O786 C784 1.263 . S
C787 O788 1.235 . S
C787 O814 1.289 . S
O788 C787 1.235 . S
C789 C791 1.400 . S
C789 N792 1.351 . S
C789 C794 1.501 . S
C790 C791 1.387 . S
C790 N793 1.341 . S
C791 C789 1.400 . S
C791 C790 1.387 . S
N792 Co783 2.022 . S
N792 C789 1.351 . S
N792 N793 1.365 . S
N793 C790 1.341 . S
N793 N792 1.365 . S
N793 H813 0.862 . S
C794 C789 1.501 . S
C794 H795 0.961 . S
C794 H796 0.961 . S
C794 H797 0.960 . S
H795 C794 0.961 . S
H796 C794 0.961 . S
H797 C794 0.960 . S
C798 N799 1.342 . S
C798 C802 1.401 . S
C798 C803 1.499 . S
N799 Co782 1.989 . S
N799 C798 1.342 . S
N799 N800 1.388 . S
N800 Co783 1.993 . S
N800 N799 1.388 . S
N800 C801 1.346 . S
C801 N800 1.346 . S
C801 C802 1.396 . S
C801 C811 1.510 . S
C802 C798 1.401 . S
C802 C801 1.396 . S
C803 C798 1.499 . S
C803 H804 0.959 . S
C803 H805 0.960 . S
C803 H806 0.961 . S
H804 C803 0.959 . S
H805 C803 0.960 . S
H806 C803 0.961 . S
O807 Co782 1.967 . S
O807 C815 1.258 . S
O808 Co783 1.941 . S
O808 C815 1.266 . S
H809 C811 0.959 . S
H810 C811 0.961 . S
C811 C801 1.510 . S
C811 H809 0.959 . S
C811 H810 0.961 . S
C811 H812 0.960 . S
H812 C811 0.960 . S
H813 N793 0.862 . S
O814 Co782 1.920 . S
O814 C787 1.289 . S
C815 O807 1.258 . S
C815 O808 1.266 . S
Co816 O819 1.970 . S
Co816 N833 1.989 . S
Co816 O841 1.967 . S
Co816 O848 1.920 . S
Co817 O820 1.966 . S
Co817 N826 2.022 . S
Co817 N834 1.993 . S
Co817 O842 1.941 . S
C818 O819 1.258 . S
C818 O820 1.263 . S
O819 Co816 1.970 . S
O819 C818 1.258 . S
O820 Co817 1.966 . S
O820 C818 1.263 . S
C821 O822 1.235 . S
C821 O848 1.289 . S
O822 C821 1.235 . S
C823 C825 1.400 . S
C823 N826 1.351 . S
C823 C828 1.501 . S
C824 C825 1.387 . S
C824 N827 1.341 . S
C825 C823 1.400 . S
C825 C824 1.387 . S
N826 Co817 2.022 . S
N826 C823 1.351 . S
N826 N827 1.365 . S
N827 C824 1.341 . S
N827 N826 1.365 . S
N827 H847 0.862 . S
C828 C823 1.501 . S
C828 H829 0.961 . S
C828 H830 0.961 . S
C828 H831 0.960 . S
H829 C828 0.961 . S
H830 C828 0.961 . S
H831 C828 0.960 . S
C832 N833 1.342 . S
C832 C836 1.401 . S
C832 C837 1.499 . S
N833 Co816 1.989 . S
N833 C832 1.342 . S
N833 N834 1.388 . S
N834 Co817 1.993 . S
N834 N833 1.388 . S
N834 C835 1.346 . S
C835 N834 1.346 . S
C835 C836 1.396 . S
C835 C845 1.510 . S
C836 C832 1.401 . S
C836 C835 1.396 . S
C837 C832 1.499 . S
C837 H838 0.959 . S
C837 H839 0.960 . S
C837 H840 0.961 . S
H838 C837 0.959 . S
H839 C837 0.960 . S
H840 C837 0.961 . S
O841 Co816 1.967 . S
O841 C849 1.258 . S
O842 Co817 1.941 . S
O842 C849 1.266 . S
H843 C845 0.959 . S
H844 C845 0.961 . S
C845 C835 1.510 . S
C845 H843 0.959 . S
C845 H844 0.961 . S
C845 H846 0.960 . S
H846 C845 0.960 . S
H847 N827 0.862 . S
O848 Co816 1.920 . S
O848 C821 1.289 . S
C849 O841 1.258 . S
C849 O842 1.266 . S
Co850 O853 1.970 . S
Co850 N867 1.989 . S
Co850 O875 1.967 . S
Co850 O882 1.920 . S
Co851 O854 1.966 . S
Co851 N860 2.022 . S
Co851 N868 1.993 . S
Co851 O876 1.941 . S
C852 O853 1.258 . S
C852 O854 1.263 . S
O853 Co850 1.970 . S
O853 C852 1.258 . S
O854 Co851 1.966 . S
O854 C852 1.263 . S
C855 O856 1.235 . S
C855 O882 1.289 . S
O856 C855 1.235 . S
C857 C859 1.400 . S
C857 N860 1.351 . S
C857 C862 1.501 . S
C858 C859 1.387 . S
C858 N861 1.341 . S
C859 C857 1.400 . S
C859 C858 1.387 . S
N860 Co851 2.022 . S
N860 C857 1.351 . S
N860 N861 1.365 . S
N861 C858 1.341 . S
N861 N860 1.365 . S
N861 H881 0.862 . S
C862 C857 1.501 . S
C862 H863 0.961 . S
C862 H864 0.961 . S
C862 H865 0.960 . S
H863 C862 0.961 . S
H864 C862 0.961 . S
H865 C862 0.960 . S
C866 N867 1.342 . S
C866 C870 1.401 . S
C866 C871 1.499 . S
N867 Co850 1.989 . S
N867 C866 1.342 . S
N867 N868 1.388 . S
N868 Co851 1.993 . S
N868 N867 1.388 . S
N868 C869 1.346 . S
C869 N868 1.346 . S
C869 C870 1.396 . S
C869 C879 1.510 . S
C870 C866 1.401 . S
C870 C869 1.396 . S
C871 C866 1.499 . S
C871 H872 0.959 . S
C871 H873 0.960 . S
C871 H874 0.961 . S
H872 C871 0.959 . S
H873 C871 0.960 . S
H874 C871 0.961 . S
O875 Co850 1.967 . S
O875 C883 1.258 . S
O876 Co851 1.941 . S
O876 C883 1.266 . S
H877 C879 0.959 . S
H878 C879 0.961 . S
C879 C869 1.510 . S
C879 H877 0.959 . S
C879 H878 0.961 . S
C879 H880 0.960 . S
H880 C879 0.960 . S
H881 N861 0.862 . S
O882 Co850 1.920 . S
O882 C855 1.289 . S
C883 O875 1.258 . S
C883 O876 1.266 . S
Co884 O887 1.970 . S
Co884 N901 1.989 . S
Co884 O909 1.967 . S
Co884 O916 1.920 . S
Co885 O888 1.966 . S
Co885 N894 2.022 . S
Co885 N902 1.993 . S
Co885 O910 1.941 . S
C886 O887 1.258 . S
C886 O888 1.263 . S
O887 Co884 1.970 . S
O887 C886 1.258 . S
O888 Co885 1.966 . S
O888 C886 1.263 . S
C889 O890 1.235 . S
C889 O916 1.289 . S
O890 C889 1.235 . S
C891 C893 1.400 . S
C891 N894 1.351 . S
C891 C896 1.501 . S
C892 C893 1.387 . S
C892 N895 1.341 . S
C893 C891 1.400 . S
C893 C892 1.387 . S
N894 Co885 2.022 . S
N894 C891 1.351 . S
N894 N895 1.365 . S
N895 C892 1.341 . S
N895 N894 1.365 . S
N895 H915 0.862 . S
C896 C891 1.501 . S
C896 H897 0.961 . S
C896 H898 0.961 . S
C896 H899 0.960 . S
H897 C896 0.961 . S
H898 C896 0.961 . S
H899 C896 0.960 . S
C900 N901 1.342 . S
C900 C904 1.401 . S
C900 C905 1.499 . S
N901 Co884 1.989 . S
N901 C900 1.342 . S
N901 N902 1.388 . S
N902 Co885 1.993 . S
N902 N901 1.388 . S
N902 C903 1.346 . S
C903 N902 1.346 . S
C903 C904 1.396 . S
C903 C913 1.510 . S
C904 C900 1.401 . S
C904 C903 1.396 . S
C905 C900 1.499 . S
C905 H906 0.959 . S
C905 H907 0.960 . S
C905 H908 0.961 . S
H906 C905 0.959 . S
H907 C905 0.960 . S
H908 C905 0.961 . S
O909 Co884 1.967 . S
O909 C917 1.258 . S
O910 Co885 1.941 . S
O910 C917 1.266 . S
H911 C913 0.959 . S
H912 C913 0.961 . S
C913 C903 1.510 . S
C913 H911 0.959 . S
C913 H912 0.961 . S
C913 H914 0.960 . S
H914 C913 0.960 . S
H915 N895 0.862 . S
O916 Co884 1.920 . S
O916 C889 1.289 . S
C917 O909 1.258 . S
C917 O910 1.266 . S
Co918 O921 1.970 . S
Co918 N935 1.989 . S
Co918 O943 1.967 . S
Co918 O950 1.920 . S
Co919 O922 1.966 . S
Co919 N928 2.022 . S
Co919 N936 1.993 . S
Co919 O944 1.941 . S
C920 O921 1.258 . S
C920 O922 1.263 . S
O921 Co918 1.970 . S
O921 C920 1.258 . S
O922 Co919 1.966 . S
O922 C920 1.263 . S
C923 O924 1.235 . S
C923 O950 1.289 . S
O924 C923 1.235 . S
C925 C927 1.400 . S
C925 N928 1.351 . S
C925 C930 1.501 . S
C926 C927 1.387 . S
C926 N929 1.341 . S
C927 C925 1.400 . S
C927 C926 1.387 . S
N928 Co919 2.022 . S
N928 C925 1.351 . S
N928 N929 1.365 . S
N929 C926 1.341 . S
N929 N928 1.365 . S
N929 H949 0.862 . S
C930 C925 1.501 . S
C930 H931 0.961 . S
C930 H932 0.961 . S
C930 H933 0.960 . S
H931 C930 0.961 . S
H932 C930 0.961 . S
H933 C930 0.960 . S
C934 N935 1.342 . S
C934 C938 1.401 . S
C934 C939 1.499 . S
N935 Co918 1.989 . S
N935 C934 1.342 . S
N935 N936 1.388 . S
N936 Co919 1.993 . S
N936 N935 1.388 . S
N936 C937 1.346 . S
C937 N936 1.346 . S
C937 C938 1.396 . S
C937 C947 1.510 . S
C938 C934 1.401 . S
C938 C937 1.396 . S
C939 C934 1.499 . S
C939 H940 0.959 . S
C939 H941 0.960 . S
C939 H942 0.961 . S
H940 C939 0.959 . S
H941 C939 0.960 . S
H942 C939 0.961 . S
O943 Co918 1.967 . S
O943 C951 1.258 . S
O944 Co919 1.941 . S
O944 C951 1.266 . S
H945 C947 0.959 . S
H946 C947 0.961 . S
C947 C937 1.510 . S
C947 H945 0.959 . S
C947 H946 0.961 . S
C947 H948 0.960 . S
H948 C947 0.960 . S
H949 N929 0.862 . S
O950 Co918 1.920 . S
O950 C923 1.289 . S
C951 O943 1.258 . S
C951 O944 1.266 . S
Co952 O955 1.970 . S
Co952 N969 1.989 . S
Co952 O977 1.967 . S
Co952 O984 1.920 . S
Co953 O956 1.966 . S
Co953 N962 2.022 . S
Co953 N970 1.993 . S
Co953 O978 1.941 . S
C954 O955 1.258 . S
C954 O956 1.263 . S
O955 Co952 1.970 . S
O955 C954 1.258 . S
O956 Co953 1.966 . S
O956 C954 1.263 . S
C957 O958 1.235 . S
C957 O984 1.289 . S
O958 C957 1.235 . S
C959 C961 1.400 . S
C959 N962 1.351 . S
C959 C964 1.501 . S
C960 C961 1.387 . S
C960 N963 1.341 . S
C961 C959 1.400 . S
C961 C960 1.387 . S
N962 Co953 2.022 . S
N962 C959 1.351 . S
N962 N963 1.365 . S
N963 C960 1.341 . S
N963 N962 1.365 . S
N963 H983 0.862 . S
C964 C959 1.501 . S
C964 H965 0.961 . S
C964 H966 0.961 . S
C964 H967 0.960 . S
H965 C964 0.961 . S
H966 C964 0.961 . S
H967 C964 0.960 . S
C968 N969 1.342 . S
C968 C972 1.401 . S
C968 C973 1.499 . S
N969 Co952 1.989 . S
N969 C968 1.342 . S
N969 N970 1.388 . S
N970 Co953 1.993 . S
N970 N969 1.388 . S
N970 C971 1.346 . S
C971 N970 1.346 . S
C971 C972 1.396 . S
C971 C981 1.510 . S
C972 C968 1.401 . S
C972 C971 1.396 . S
C973 C968 1.499 . S
C973 H974 0.959 . S
C973 H975 0.960 . S
C973 H976 0.961 . S
H974 C973 0.959 . S
H975 C973 0.960 . S
H976 C973 0.961 . S
O977 Co952 1.967 . S
O977 C985 1.258 . S
O978 Co953 1.941 . S
O978 C985 1.266 . S
H979 C981 0.959 . S
H980 C981 0.961 . S
C981 C971 1.510 . S
C981 H979 0.959 . S
C981 H980 0.961 . S
C981 H982 0.960 . S
H982 C981 0.960 . S
H983 N963 0.862 . S
O984 Co952 1.920 . S
O984 C957 1.289 . S
C985 O977 1.258 . S
C985 O978 1.266 . S
Co986 O989 1.970 . S
Co986 N1003 1.989 . S
Co986 O1011 1.967 . S
Co986 O1018 1.920 . S
Co987 O990 1.966 . S
Co987 N996 2.022 . S
Co987 N1004 1.993 . S
Co987 O1012 1.941 . S
C988 O989 1.258 . S
C988 O990 1.263 . S
O989 Co986 1.970 . S
O989 C988 1.258 . S
O990 Co987 1.966 . S
O990 C988 1.263 . S
C991 O992 1.235 . S
C991 O1018 1.289 . S
O992 C991 1.235 . S
C993 C995 1.400 . S
C993 N996 1.351 . S
C993 C998 1.501 . S
C994 C995 1.387 . S
C994 N997 1.341 . S
C995 C993 1.400 . S
C995 C994 1.387 . S
N996 Co987 2.022 . S
N996 C993 1.351 . S
N996 N997 1.365 . S
N997 C994 1.341 . S
N997 N996 1.365 . S
N997 H1017 0.862 . S
C998 C993 1.501 . S
C998 H999 0.961 . S
C998 H1000 0.961 . S
C998 H1001 0.960 . S
H999 C998 0.961 . S
H1000 C998 0.961 . S
H1001 C998 0.960 . S
C1002 N1003 1.342 . S
C1002 C1006 1.401 . S
C1002 C1007 1.499 . S
N1003 Co986 1.989 . S
N1003 C1002 1.342 . S
N1003 N1004 1.388 . S
N1004 Co987 1.993 . S
N1004 N1003 1.388 . S
N1004 C1005 1.346 . S
C1005 N1004 1.346 . S
C1005 C1006 1.396 . S
C1005 C1015 1.510 . S
C1006 C1002 1.401 . S
C1006 C1005 1.396 . S
C1007 C1002 1.499 . S
C1007 H1008 0.959 . S
C1007 H1009 0.960 . S
C1007 H1010 0.961 . S
H1008 C1007 0.959 . S
H1009 C1007 0.960 . S
H1010 C1007 0.961 . S
O1011 Co986 1.967 . S
O1011 C1019 1.258 . S
O1012 Co987 1.941 . S
O1012 C1019 1.266 . S
H1013 C1015 0.959 . S
H1014 C1015 0.961 . S
C1015 C1005 1.510 . S
C1015 H1013 0.959 . S
C1015 H1014 0.961 . S
C1015 H1016 0.960 . S
H1016 C1015 0.960 . S
H1017 N997 0.862 . S
O1018 Co986 1.920 . S
O1018 C991 1.289 . S
C1019 O1011 1.258 . S
C1019 O1012 1.266 . S
Co1020 O1023 1.970 . S
Co1020 N1037 1.989 . S
Co1020 O1045 1.967 . S
Co1020 O1052 1.920 . S
Co1021 O1024 1.966 . S
Co1021 N1030 2.022 . S
Co1021 N1038 1.993 . S
Co1021 O1046 1.941 . S
C1022 O1023 1.258 . S
C1022 O1024 1.263 . S
O1023 Co1020 1.970 . S
O1023 C1022 1.258 . S
O1024 Co1021 1.966 . S
O1024 C1022 1.263 . S
C1025 O1026 1.235 . S
C1025 O1052 1.289 . S
O1026 C1025 1.235 . S
C1027 C1029 1.400 . S
C1027 N1030 1.351 . S
C1027 C1032 1.501 . S
C1028 C1029 1.387 . S
C1028 N1031 1.341 . S
C1029 C1027 1.400 . S
C1029 C1028 1.387 . S
N1030 Co1021 2.022 . S
N1030 C1027 1.351 . S
N1030 N1031 1.365 . S
N1031 C1028 1.341 . S
N1031 N1030 1.365 . S
N1031 H1051 0.862 . S
C1032 C1027 1.501 . S
C1032 H1033 0.961 . S
C1032 H1034 0.961 . S
C1032 H1035 0.960 . S
H1033 C1032 0.961 . S
H1034 C1032 0.961 . S
H1035 C1032 0.960 . S
C1036 N1037 1.342 . S
C1036 C1040 1.401 . S
C1036 C1041 1.499 . S
N1037 Co1020 1.989 . S
N1037 C1036 1.342 . S
N1037 N1038 1.388 . S
N1038 Co1021 1.993 . S
N1038 N1037 1.388 . S
N1038 C1039 1.346 . S
C1039 N1038 1.346 . S
C1039 C1040 1.396 . S
C1039 C1049 1.510 . S
C1040 C1036 1.401 . S
C1040 C1039 1.396 . S
C1041 C1036 1.499 . S
C1041 H1042 0.959 . S
C1041 H1043 0.960 . S
C1041 H1044 0.961 . S
H1042 C1041 0.959 . S
H1043 C1041 0.960 . S
H1044 C1041 0.961 . S
O1045 Co1020 1.967 . S
O1045 C1053 1.258 . S
O1046 Co1021 1.941 . S
O1046 C1053 1.266 . S
H1047 C1049 0.959 . S
H1048 C1049 0.961 . S
C1049 C1039 1.510 . S
C1049 H1047 0.959 . S
C1049 H1048 0.961 . S
C1049 H1050 0.960 . S
H1050 C1049 0.960 . S
H1051 N1031 0.862 . S
O1052 Co1020 1.920 . S
O1052 C1025 1.289 . S
C1053 O1045 1.258 . S
C1053 O1046 1.266 . S
Co1054 O1057 1.970 . S
Co1054 N1071 1.989 . S
Co1054 O1079 1.967 . S
Co1054 O1086 1.920 . S
Co1055 O1058 1.966 . S
Co1055 N1064 2.022 . S
Co1055 N1072 1.993 . S
Co1055 O1080 1.941 . S
C1056 O1057 1.258 . S
C1056 O1058 1.263 . S
O1057 Co1054 1.970 . S
O1057 C1056 1.258 . S
O1058 Co1055 1.966 . S
O1058 C1056 1.263 . S
C1059 O1060 1.235 . S
C1059 O1086 1.289 . S
O1060 C1059 1.235 . S
C1061 C1063 1.400 . S
C1061 N1064 1.351 . S
C1061 C1066 1.501 . S
C1062 C1063 1.387 . S
C1062 N1065 1.341 . S
C1063 C1061 1.400 . S
C1063 C1062 1.387 . S
N1064 Co1055 2.022 . S
N1064 C1061 1.351 . S
N1064 N1065 1.365 . S
N1065 C1062 1.341 . S
N1065 N1064 1.365 . S
N1065 H1085 0.862 . S
C1066 C1061 1.501 . S
C1066 H1067 0.961 . S
C1066 H1068 0.961 . S
C1066 H1069 0.960 . S
H1067 C1066 0.961 . S
H1068 C1066 0.961 . S
H1069 C1066 0.960 . S
C1070 N1071 1.342 . S
C1070 C1074 1.401 . S
C1070 C1075 1.499 . S
N1071 Co1054 1.989 . S
N1071 C1070 1.342 . S
N1071 N1072 1.388 . S
N1072 Co1055 1.993 . S
N1072 N1071 1.388 . S
N1072 C1073 1.346 . S
C1073 N1072 1.346 . S
C1073 C1074 1.396 . S
C1073 C1083 1.510 . S
C1074 C1070 1.401 . S
C1074 C1073 1.396 . S
C1075 C1070 1.499 . S
C1075 H1076 0.959 . S
C1075 H1077 0.960 . S
C1075 H1078 0.961 . S
H1076 C1075 0.959 . S
H1077 C1075 0.960 . S
H1078 C1075 0.961 . S
O1079 Co1054 1.967 . S
O1079 C1087 1.258 . S
O1080 Co1055 1.941 . S
O1080 C1087 1.266 . S
H1081 C1083 0.959 . S
H1082 C1083 0.961 . S
C1083 C1073 1.510 . S
C1083 H1081 0.959 . S
C1083 H1082 0.961 . S
C1083 H1084 0.960 . S
H1084 C1083 0.960 . S
H1085 N1065 0.862 . S
O1086 Co1054 1.920 . S
O1086 C1059 1.289 . S
C1087 O1079 1.258 . S
C1087 O1080 1.266 . S
Co1088 O1091 1.970 . S
Co1088 N1105 1.989 . S
Co1088 O1113 1.967 . S
Co1088 O1120 1.920 . S
Co1089 O1092 1.966 . S
Co1089 N1098 2.022 . S
Co1089 N1106 1.993 . S
Co1089 O1114 1.941 . S
C1090 O1091 1.258 . S
C1090 O1092 1.263 . S
O1091 Co1088 1.970 . S
O1091 C1090 1.258 . S
O1092 Co1089 1.966 . S
O1092 C1090 1.263 . S
C1093 O1094 1.235 . S
C1093 O1120 1.289 . S
O1094 C1093 1.235 . S
C1095 C1097 1.400 . S
C1095 N1098 1.351 . S
C1095 C1100 1.501 . S
C1096 C1097 1.387 . S
C1096 N1099 1.341 . S
C1097 C1095 1.400 . S
C1097 C1096 1.387 . S
N1098 Co1089 2.022 . S
N1098 C1095 1.351 . S
N1098 N1099 1.365 . S
N1099 C1096 1.341 . S
N1099 N1098 1.365 . S
N1099 H1119 0.862 . S
C1100 C1095 1.501 . S
C1100 H1101 0.961 . S
C1100 H1102 0.961 . S
C1100 H1103 0.960 . S
H1101 C1100 0.961 . S
H1102 C1100 0.961 . S
H1103 C1100 0.960 . S
C1104 N1105 1.342 . S
C1104 C1108 1.401 . S
C1104 C1109 1.499 . S
N1105 Co1088 1.989 . S
N1105 C1104 1.342 . S
N1105 N1106 1.388 . S
N1106 Co1089 1.993 . S
N1106 N1105 1.388 . S
N1106 C1107 1.346 . S
C1107 N1106 1.346 . S
C1107 C1108 1.396 . S
C1107 C1117 1.510 . S
C1108 C1104 1.401 . S
C1108 C1107 1.396 . S
C1109 C1104 1.499 . S
C1109 H1110 0.959 . S
C1109 H1111 0.960 . S
C1109 H1112 0.961 . S
H1110 C1109 0.959 . S
H1111 C1109 0.960 . S
H1112 C1109 0.961 . S
O1113 Co1088 1.967 . S
O1113 C1121 1.258 . S
O1114 Co1089 1.941 . S
O1114 C1121 1.266 . S
H1115 C1117 0.959 . S
H1116 C1117 0.961 . S
C1117 C1107 1.510 . S
C1117 H1115 0.959 . S
C1117 H1116 0.961 . S
C1117 H1118 0.960 . S
H1118 C1117 0.960 . S
H1119 N1099 0.862 . S
O1120 Co1088 1.920 . S
O1120 C1093 1.289 . S
C1121 O1113 1.258 . S
C1121 O1114 1.266 . S
Co1122 O1125 1.970 . S
Co1122 N1139 1.989 . S
Co1122 O1147 1.967 . S
Co1122 O1154 1.920 . S
Co1123 O1126 1.966 . S
Co1123 N1132 2.022 . S
Co1123 N1140 1.993 . S
Co1123 O1148 1.941 . S
C1124 O1125 1.258 . S
C1124 O1126 1.263 . S
O1125 Co1122 1.970 . S
O1125 C1124 1.258 . S
O1126 Co1123 1.966 . S
O1126 C1124 1.263 . S
C1127 O1128 1.235 . S
C1127 O1154 1.289 . S
O1128 C1127 1.235 . S
C1129 C1131 1.400 . S
C1129 N1132 1.351 . S
C1129 C1134 1.501 . S
C1130 C1131 1.387 . S
C1130 N1133 1.341 . S
C1131 C1129 1.400 . S
C1131 C1130 1.387 . S
N1132 Co1123 2.022 . S
N1132 C1129 1.351 . S
N1132 N1133 1.365 . S
N1133 C1130 1.341 . S
N1133 N1132 1.365 . S
N1133 H1153 0.862 . S
C1134 C1129 1.501 . S
C1134 H1135 0.961 . S
C1134 H1136 0.961 . S
C1134 H1137 0.960 . S
H1135 C1134 0.961 . S
H1136 C1134 0.961 . S
H1137 C1134 0.960 . S
C1138 N1139 1.342 . S
C1138 C1142 1.401 . S
C1138 C1143 1.499 . S
N1139 Co1122 1.989 . S
N1139 C1138 1.342 . S
N1139 N1140 1.388 . S
N1140 Co1123 1.993 . S
N1140 N1139 1.388 . S
N1140 C1141 1.346 . S
C1141 N1140 1.346 . S
C1141 C1142 1.396 . S
C1141 C1151 1.510 . S
C1142 C1138 1.401 . S
C1142 C1141 1.396 . S
C1143 C1138 1.499 . S
C1143 H1144 0.959 . S
C1143 H1145 0.960 . S
C1143 H1146 0.961 . S
H1144 C1143 0.959 . S
H1145 C1143 0.960 . S
H1146 C1143 0.961 . S
O1147 Co1122 1.967 . S
O1147 C1155 1.258 . S
O1148 Co1123 1.941 . S
O1148 C1155 1.266 . S
H1149 C1151 0.959 . S
H1150 C1151 0.961 . S
C1151 C1141 1.510 . S
C1151 H1149 0.959 . S
C1151 H1150 0.961 . S
C1151 H1152 0.960 . S
H1152 C1151 0.960 . S
H1153 N1133 0.862 . S
O1154 Co1122 1.920 . S
O1154 C1127 1.289 . S
C1155 O1147 1.258 . S
C1155 O1148 1.266 . S
Co1156 O1159 1.970 . S
Co1156 N1173 1.989 . S
Co1156 O1181 1.967 . S
Co1156 O1188 1.920 . S
Co1157 O1160 1.966 . S
Co1157 N1166 2.022 . S
Co1157 N1174 1.993 . S
Co1157 O1182 1.941 . S
C1158 O1159 1.258 . S
C1158 O1160 1.263 . S
O1159 Co1156 1.970 . S
O1159 C1158 1.258 . S
O1160 Co1157 1.966 . S
O1160 C1158 1.263 . S
C1161 O1162 1.235 . S
C1161 O1188 1.289 . S
O1162 C1161 1.235 . S
C1163 C1165 1.400 . S
C1163 N1166 1.351 . S
C1163 C1168 1.501 . S
C1164 C1165 1.387 . S
C1164 N1167 1.341 . S
C1165 C1163 1.400 . S
C1165 C1164 1.387 . S
N1166 Co1157 2.022 . S
N1166 C1163 1.351 . S
N1166 N1167 1.365 . S
N1167 C1164 1.341 . S
N1167 N1166 1.365 . S
N1167 H1187 0.862 . S
C1168 C1163 1.501 . S
C1168 H1169 0.961 . S
C1168 H1170 0.961 . S
C1168 H1171 0.960 . S
H1169 C1168 0.961 . S
H1170 C1168 0.961 . S
H1171 C1168 0.960 . S
C1172 N1173 1.342 . S
C1172 C1176 1.401 . S
C1172 C1177 1.499 . S
N1173 Co1156 1.989 . S
N1173 C1172 1.342 . S
N1173 N1174 1.388 . S
N1174 Co1157 1.993 . S
N1174 N1173 1.388 . S
N1174 C1175 1.346 . S
C1175 N1174 1.346 . S
C1175 C1176 1.396 . S
C1175 C1185 1.510 . S
C1176 C1172 1.401 . S
C1176 C1175 1.396 . S
C1177 C1172 1.499 . S
C1177 H1178 0.959 . S
C1177 H1179 0.960 . S
C1177 H1180 0.961 . S
H1178 C1177 0.959 . S
H1179 C1177 0.960 . S
H1180 C1177 0.961 . S
O1181 Co1156 1.967 . S
O1181 C1189 1.258 . S
O1182 Co1157 1.941 . S
O1182 C1189 1.266 . S
H1183 C1185 0.959 . S
H1184 C1185 0.961 . S
C1185 C1175 1.510 . S
C1185 H1183 0.959 . S
C1185 H1184 0.961 . S
C1185 H1186 0.960 . S
H1186 C1185 0.960 . S
H1187 N1167 0.862 . S
O1188 Co1156 1.920 . S
O1188 C1161 1.289 . S
C1189 O1181 1.258 . S
C1189 O1182 1.266 . S
Co1190 O1193 1.970 . S
Co1190 N1207 1.989 . S
Co1190 O1215 1.967 . S
Co1190 O1222 1.920 . S
Co1191 O1194 1.966 . S
Co1191 N1200 2.022 . S
Co1191 N1208 1.993 . S
Co1191 O1216 1.941 . S
C1192 O1193 1.258 . S
C1192 O1194 1.263 . S
O1193 Co1190 1.970 . S
O1193 C1192 1.258 . S
O1194 Co1191 1.966 . S
O1194 C1192 1.263 . S
C1195 O1196 1.235 . S
C1195 O1222 1.289 . S
O1196 C1195 1.235 . S
C1197 C1199 1.400 . S
C1197 N1200 1.351 . S
C1197 C1202 1.501 . S
C1198 C1199 1.387 . S
C1198 N1201 1.341 . S
C1199 C1197 1.400 . S
C1199 C1198 1.387 . S
N1200 Co1191 2.022 . S
N1200 C1197 1.351 . S
N1200 N1201 1.365 . S
N1201 C1198 1.341 . S
N1201 N1200 1.365 . S
N1201 H1221 0.862 . S
C1202 C1197 1.501 . S
C1202 H1203 0.961 . S
C1202 H1204 0.961 . S
C1202 H1205 0.960 . S
H1203 C1202 0.961 . S
H1204 C1202 0.961 . S
H1205 C1202 0.960 . S
C1206 N1207 1.342 . S
C1206 C1210 1.401 . S
C1206 C1211 1.499 . S
N1207 Co1190 1.989 . S
N1207 C1206 1.342 . S
N1207 N1208 1.388 . S
N1208 Co1191 1.993 . S
N1208 N1207 1.388 . S
N1208 C1209 1.346 . S
C1209 N1208 1.346 . S
C1209 C1210 1.396 . S
C1209 C1219 1.510 . S
C1210 C1206 1.401 . S
C1210 C1209 1.396 . S
C1211 C1206 1.499 . S
C1211 H1212 0.959 . S
C1211 H1213 0.960 . S
C1211 H1214 0.961 . S
H1212 C1211 0.959 . S
H1213 C1211 0.960 . S
H1214 C1211 0.961 . S
O1215 Co1190 1.967 . S
O1215 C1223 1.258 . S
O1216 Co1191 1.941 . S
O1216 C1223 1.266 . S
H1217 C1219 0.959 . S
H1218 C1219 0.961 . S
C1219 C1209 1.510 . S
C1219 H1217 0.959 . S
C1219 H1218 0.961 . S
C1219 H1220 0.960 . S
H1220 C1219 0.960 . S
H1221 N1201 0.862 . S
O1222 Co1190 1.920 . S
O1222 C1195 1.289 . S
C1223 O1215 1.258 . S
C1223 O1216 1.266 . S
Co1224 O1227 1.970 . S
Co1224 N1241 1.989 . S
Co1224 O1249 1.967 . S
Co1224 O1256 1.920 . S
Co1225 O1228 1.966 . S
Co1225 N1234 2.022 . S
Co1225 N1242 1.993 . S
Co1225 O1250 1.941 . S
C1226 O1227 1.258 . S
C1226 O1228 1.263 . S
O1227 Co1224 1.970 . S
O1227 C1226 1.258 . S
O1228 Co1225 1.966 . S
O1228 C1226 1.263 . S
C1229 O1230 1.235 . S
C1229 O1256 1.289 . S
O1230 C1229 1.235 . S
C1231 C1233 1.400 . S
C1231 N1234 1.351 . S
C1231 C1236 1.501 . S
C1232 C1233 1.387 . S
C1232 N1235 1.341 . S
C1233 C1231 1.400 . S
C1233 C1232 1.387 . S
N1234 Co1225 2.022 . S
N1234 C1231 1.351 . S
N1234 N1235 1.365 . S
N1235 C1232 1.341 . S
N1235 N1234 1.365 . S
N1235 H1255 0.862 . S
C1236 C1231 1.501 . S
C1236 H1237 0.961 . S
C1236 H1238 0.961 . S
C1236 H1239 0.960 . S
H1237 C1236 0.961 . S
H1238 C1236 0.961 . S
H1239 C1236 0.960 . S
C1240 N1241 1.342 . S
C1240 C1244 1.401 . S
C1240 C1245 1.499 . S
N1241 Co1224 1.989 . S
N1241 C1240 1.342 . S
N1241 N1242 1.388 . S
N1242 Co1225 1.993 . S
N1242 N1241 1.388 . S
N1242 C1243 1.346 . S
C1243 N1242 1.346 . S
C1243 C1244 1.396 . S
C1243 C1253 1.510 . S
C1244 C1240 1.401 . S
C1244 C1243 1.396 . S
C1245 C1240 1.499 . S
C1245 H1246 0.959 . S
C1245 H1247 0.960 . S
C1245 H1248 0.961 . S
H1246 C1245 0.959 . S
H1247 C1245 0.960 . S
H1248 C1245 0.961 . S
O1249 Co1224 1.967 . S
O1249 C1257 1.258 . S
O1250 Co1225 1.941 . S
O1250 C1257 1.266 . S
H1251 C1253 0.959 . S
H1252 C1253 0.961 . S
C1253 C1243 1.510 . S
C1253 H1251 0.959 . S
C1253 H1252 0.961 . S
C1253 H1254 0.960 . S
H1254 C1253 0.960 . S
H1255 N1235 0.862 . S
O1256 Co1224 1.920 . S
O1256 C1229 1.289 . S
C1257 O1249 1.258 . S
C1257 O1250 1.266 . S
Co1258 O1261 1.970 . S
Co1258 N1275 1.989 . S
Co1258 O1283 1.967 . S
Co1258 O1290 1.920 . S
Co1259 O1262 1.966 . S
Co1259 N1268 2.022 . S
Co1259 N1276 1.993 . S
Co1259 O1284 1.941 . S
C1260 O1261 1.258 . S
C1260 O1262 1.263 . S
O1261 Co1258 1.970 . S
O1261 C1260 1.258 . S
O1262 Co1259 1.966 . S
O1262 C1260 1.263 . S
C1263 O1264 1.235 . S
C1263 O1290 1.289 . S
O1264 C1263 1.235 . S
C1265 C1267 1.400 . S
C1265 N1268 1.351 . S
C1265 C1270 1.501 . S
C1266 C1267 1.387 . S
C1266 N1269 1.341 . S
C1267 C1265 1.400 . S
C1267 C1266 1.387 . S
N1268 Co1259 2.022 . S
N1268 C1265 1.351 . S
N1268 N1269 1.365 . S
N1269 C1266 1.341 . S
N1269 N1268 1.365 . S
N1269 H1289 0.862 . S
C1270 C1265 1.501 . S
C1270 H1271 0.961 . S
C1270 H1272 0.961 . S
C1270 H1273 0.960 . S
H1271 C1270 0.961 . S
H1272 C1270 0.961 . S
H1273 C1270 0.960 . S
C1274 N1275 1.342 . S
C1274 C1278 1.401 . S
C1274 C1279 1.499 . S
N1275 Co1258 1.989 . S
N1275 C1274 1.342 . S
N1275 N1276 1.388 . S
N1276 Co1259 1.993 . S
N1276 N1275 1.388 . S
N1276 C1277 1.346 . S
C1277 N1276 1.346 . S
C1277 C1278 1.396 . S
C1277 C1287 1.510 . S
C1278 C1274 1.401 . S
C1278 C1277 1.396 . S
C1279 C1274 1.499 . S
C1279 H1280 0.959 . S
C1279 H1281 0.960 . S
C1279 H1282 0.961 . S
H1280 C1279 0.959 . S
H1281 C1279 0.960 . S
H1282 C1279 0.961 . S
O1283 Co1258 1.967 . S
O1283 C1291 1.258 . S
O1284 Co1259 1.941 . S
O1284 C1291 1.266 . S
H1285 C1287 0.959 . S
H1286 C1287 0.961 . S
C1287 C1277 1.510 . S
C1287 H1285 0.959 . S
C1287 H1286 0.961 . S
C1287 H1288 0.960 . S
H1288 C1287 0.960 . S
H1289 N1269 0.862 . S
O1290 Co1258 1.920 . S
O1290 C1263 1.289 . S
C1291 O1283 1.258 . S
C1291 O1284 1.266 . S
Co1292 O1295 1.970 . S
Co1292 N1309 1.989 . S
Co1292 O1317 1.967 . S
Co1292 O1324 1.920 . S
Co1293 O1296 1.966 . S
Co1293 N1302 2.022 . S
Co1293 N1310 1.993 . S
Co1293 O1318 1.941 . S
C1294 O1295 1.258 . S
C1294 O1296 1.263 . S
O1295 Co1292 1.970 . S
O1295 C1294 1.258 . S
O1296 Co1293 1.966 . S
O1296 C1294 1.263 . S
C1297 O1298 1.235 . S
C1297 O1324 1.289 . S
O1298 C1297 1.235 . S
C1299 C1301 1.400 . S
C1299 N1302 1.351 . S
C1299 C1304 1.501 . S
C1300 C1301 1.387 . S
C1300 N1303 1.341 . S
C1301 C1299 1.400 . S
C1301 C1300 1.387 . S
N1302 Co1293 2.022 . S
N1302 C1299 1.351 . S
N1302 N1303 1.365 . S
N1303 C1300 1.341 . S
N1303 N1302 1.365 . S
N1303 H1323 0.862 . S
C1304 C1299 1.501 . S
C1304 H1305 0.961 . S
C1304 H1306 0.961 . S
C1304 H1307 0.960 . S
H1305 C1304 0.961 . S
H1306 C1304 0.961 . S
H1307 C1304 0.960 . S
C1308 N1309 1.342 . S
C1308 C1312 1.401 . S
C1308 C1313 1.499 . S
N1309 Co1292 1.989 . S
N1309 C1308 1.342 . S
N1309 N1310 1.388 . S
N1310 Co1293 1.993 . S
N1310 N1309 1.388 . S
N1310 C1311 1.346 . S
C1311 N1310 1.346 . S
C1311 C1312 1.396 . S
C1311 C1321 1.510 . S
C1312 C1308 1.401 . S
C1312 C1311 1.396 . S
C1313 C1308 1.499 . S
C1313 H1314 0.959 . S
C1313 H1315 0.960 . S
C1313 H1316 0.961 . S
H1314 C1313 0.959 . S
H1315 C1313 0.960 . S
H1316 C1313 0.961 . S
O1317 Co1292 1.967 . S
O1317 C1325 1.258 . S
O1318 Co1293 1.941 . S
O1318 C1325 1.266 . S
H1319 C1321 0.959 . S
H1320 C1321 0.961 . S
C1321 C1311 1.510 . S
C1321 H1319 0.959 . S
C1321 H1320 0.961 . S
C1321 H1322 0.960 . S
H1322 C1321 0.960 . S
H1323 N1303 0.862 . S
O1324 Co1292 1.920 . S
O1324 C1297 1.289 . S
C1325 O1317 1.258 . S
C1325 O1318 1.266 . S
Co1326 O1329 1.970 . S
Co1326 N1343 1.989 . S
Co1326 O1351 1.967 . S
Co1326 O1358 1.920 . S
Co1327 O1330 1.966 . S
Co1327 N1336 2.022 . S
Co1327 N1344 1.993 . S
Co1327 O1352 1.941 . S
C1328 O1329 1.258 . S
C1328 O1330 1.263 . S
O1329 Co1326 1.970 . S
O1329 C1328 1.258 . S
O1330 Co1327 1.966 . S
O1330 C1328 1.263 . S
C1331 O1332 1.235 . S
C1331 O1358 1.289 . S
O1332 C1331 1.235 . S
C1333 C1335 1.400 . S
C1333 N1336 1.351 . S
C1333 C1338 1.501 . S
C1334 C1335 1.387 . S
C1334 N1337 1.341 . S
C1335 C1333 1.400 . S
C1335 C1334 1.387 . S
N1336 Co1327 2.022 . S
N1336 C1333 1.351 . S
N1336 N1337 1.365 . S
N1337 C1334 1.341 . S
N1337 N1336 1.365 . S
N1337 H1357 0.862 . S
C1338 C1333 1.501 . S
C1338 H1339 0.961 . S
C1338 H1340 0.961 . S
C1338 H1341 0.960 . S
H1339 C1338 0.961 . S
H1340 C1338 0.961 . S
H1341 C1338 0.960 . S
C1342 N1343 1.342 . S
C1342 C1346 1.401 . S
C1342 C1347 1.499 . S
N1343 Co1326 1.989 . S
N1343 C1342 1.342 . S
N1343 N1344 1.388 . S
N1344 Co1327 1.993 . S
N1344 N1343 1.388 . S
N1344 C1345 1.346 . S
C1345 N1344 1.346 . S
C1345 C1346 1.396 . S
C1345 C1355 1.510 . S
C1346 C1342 1.401 . S
C1346 C1345 1.396 . S
C1347 C1342 1.499 . S
C1347 H1348 0.959 . S
C1347 H1349 0.960 . S
C1347 H1350 0.961 . S
H1348 C1347 0.959 . S
H1349 C1347 0.960 . S
H1350 C1347 0.961 . S
O1351 Co1326 1.967 . S
O1351 C1359 1.258 . S
O1352 Co1327 1.941 . S
O1352 C1359 1.266 . S
H1353 C1355 0.959 . S
H1354 C1355 0.961 . S
C1355 C1345 1.510 . S
C1355 H1353 0.959 . S
C1355 H1354 0.961 . S
C1355 H1356 0.960 . S
H1356 C1355 0.960 . S
H1357 N1337 0.862 . S
O1358 Co1326 1.920 . S
O1358 C1331 1.289 . S
C1359 O1351 1.258 . S
C1359 O1352 1.266 . S
Co1360 O1363 1.970 . S
Co1360 N1377 1.989 . S
Co1360 O1385 1.967 . S
Co1360 O1392 1.920 . S
Co1361 O1364 1.966 . S
Co1361 N1370 2.022 . S
Co1361 N1378 1.993 . S
Co1361 O1386 1.941 . S
C1362 O1363 1.258 . S
C1362 O1364 1.263 . S
O1363 Co1360 1.970 . S
O1363 C1362 1.258 . S
O1364 Co1361 1.966 . S
O1364 C1362 1.263 . S
C1365 O1366 1.235 . S
C1365 O1392 1.289 . S
O1366 C1365 1.235 . S
C1367 C1369 1.400 . S
C1367 N1370 1.351 . S
C1367 C1372 1.501 . S
C1368 C1369 1.387 . S
C1368 N1371 1.341 . S
C1369 C1367 1.400 . S
C1369 C1368 1.387 . S
N1370 Co1361 2.022 . S
N1370 C1367 1.351 . S
N1370 N1371 1.365 . S
N1371 C1368 1.341 . S
N1371 N1370 1.365 . S
N1371 H1391 0.862 . S
C1372 C1367 1.501 . S
C1372 H1373 0.961 . S
C1372 H1374 0.961 . S
C1372 H1375 0.960 . S
H1373 C1372 0.961 . S
H1374 C1372 0.961 . S
H1375 C1372 0.960 . S
C1376 N1377 1.342 . S
C1376 C1380 1.401 . S
C1376 C1381 1.499 . S
N1377 Co1360 1.989 . S
N1377 C1376 1.342 . S
N1377 N1378 1.388 . S
N1378 Co1361 1.993 . S
N1378 N1377 1.388 . S
N1378 C1379 1.346 . S
C1379 N1378 1.346 . S
C1379 C1380 1.396 . S
C1379 C1389 1.510 . S
C1380 C1376 1.401 . S
C1380 C1379 1.396 . S
C1381 C1376 1.499 . S
C1381 H1382 0.959 . S
C1381 H1383 0.960 . S
C1381 H1384 0.961 . S
H1382 C1381 0.959 . S
H1383 C1381 0.960 . S
H1384 C1381 0.961 . S
O1385 Co1360 1.967 . S
O1385 C1393 1.258 . S
O1386 Co1361 1.941 . S
O1386 C1393 1.266 . S
H1387 C1389 0.959 . S
H1388 C1389 0.961 . S
C1389 C1379 1.510 . S
C1389 H1387 0.959 . S
C1389 H1388 0.961 . S
C1389 H1390 0.960 . S
H1390 C1389 0.960 . S
H1391 N1371 0.862 . S
O1392 Co1360 1.920 . S
O1392 C1365 1.289 . S
C1393 O1385 1.258 . S
C1393 O1386 1.266 . S
Co1394 O1397 1.970 . S
Co1394 N1411 1.989 . S
Co1394 O1419 1.967 . S
Co1394 O1426 1.920 . S
Co1395 O1398 1.966 . S
Co1395 N1404 2.022 . S
Co1395 N1412 1.993 . S
Co1395 O1420 1.941 . S
C1396 O1397 1.258 . S
C1396 O1398 1.263 . S
O1397 Co1394 1.970 . S
O1397 C1396 1.258 . S
O1398 Co1395 1.966 . S
O1398 C1396 1.263 . S
C1399 O1400 1.235 . S
C1399 O1426 1.289 . S
O1400 C1399 1.235 . S
C1401 C1403 1.400 . S
C1401 N1404 1.351 . S
C1401 C1406 1.501 . S
C1402 C1403 1.387 . S
C1402 N1405 1.341 . S
C1403 C1401 1.400 . S
C1403 C1402 1.387 . S
N1404 Co1395 2.022 . S
N1404 C1401 1.351 . S
N1404 N1405 1.365 . S
N1405 C1402 1.341 . S
N1405 N1404 1.365 . S
N1405 H1425 0.862 . S
C1406 C1401 1.501 . S
C1406 H1407 0.961 . S
C1406 H1408 0.961 . S
C1406 H1409 0.960 . S
H1407 C1406 0.961 . S
H1408 C1406 0.961 . S
H1409 C1406 0.960 . S
C1410 N1411 1.342 . S
C1410 C1414 1.401 . S
C1410 C1415 1.499 . S
N1411 Co1394 1.989 . S
N1411 C1410 1.342 . S
N1411 N1412 1.388 . S
N1412 Co1395 1.993 . S
N1412 N1411 1.388 . S
N1412 C1413 1.346 . S
C1413 N1412 1.346 . S
C1413 C1414 1.396 . S
C1413 C1423 1.510 . S
C1414 C1410 1.401 . S
C1414 C1413 1.396 . S
C1415 C1410 1.499 . S
C1415 H1416 0.959 . S
C1415 H1417 0.960 . S
C1415 H1418 0.961 . S
H1416 C1415 0.959 . S
H1417 C1415 0.960 . S
H1418 C1415 0.961 . S
O1419 Co1394 1.967 . S
O1419 C1427 1.258 . S
O1420 Co1395 1.941 . S
O1420 C1427 1.266 . S
H1421 C1423 0.959 . S
H1422 C1423 0.961 . S
C1423 C1413 1.510 . S
C1423 H1421 0.959 . S
C1423 H1422 0.961 . S
C1423 H1424 0.960 . S
H1424 C1423 0.960 . S
H1425 N1405 0.862 . S
O1426 Co1394 1.920 . S
O1426 C1399 1.289 . S
C1427 O1419 1.258 . S
C1427 O1420 1.266 . S
Co1428 O1431 1.970 . S
Co1428 N1445 1.989 . S
Co1428 O1453 1.967 . S
Co1428 O1460 1.920 . S
Co1429 O1432 1.966 . S
Co1429 N1438 2.022 . S
Co1429 N1446 1.993 . S
Co1429 O1454 1.941 . S
C1430 O1431 1.258 . S
C1430 O1432 1.263 . S
O1431 Co1428 1.970 . S
O1431 C1430 1.258 . S
O1432 Co1429 1.966 . S
O1432 C1430 1.263 . S
C1433 O1434 1.235 . S
C1433 O1460 1.289 . S
O1434 C1433 1.235 . S
C1435 C1437 1.400 . S
C1435 N1438 1.351 . S
C1435 C1440 1.501 . S
C1436 C1437 1.387 . S
C1436 N1439 1.341 . S
C1437 C1435 1.400 . S
C1437 C1436 1.387 . S
N1438 Co1429 2.022 . S
N1438 C1435 1.351 . S
N1438 N1439 1.365 . S
N1439 C1436 1.341 . S
N1439 N1438 1.365 . S
N1439 H1459 0.862 . S
C1440 C1435 1.501 . S
C1440 H1441 0.961 . S
C1440 H1442 0.961 . S
C1440 H1443 0.960 . S
H1441 C1440 0.961 . S
H1442 C1440 0.961 . S
H1443 C1440 0.960 . S
C1444 N1445 1.342 . S
C1444 C1448 1.401 . S
C1444 C1449 1.499 . S
N1445 Co1428 1.989 . S
N1445 C1444 1.342 . S
N1445 N1446 1.388 . S
N1446 Co1429 1.993 . S
N1446 N1445 1.388 . S
N1446 C1447 1.346 . S
C1447 N1446 1.346 . S
C1447 C1448 1.396 . S
C1447 C1457 1.510 . S
C1448 C1444 1.401 . S
C1448 C1447 1.396 . S
C1449 C1444 1.499 . S
C1449 H1450 0.959 . S
C1449 H1451 0.960 . S
C1449 H1452 0.961 . S
H1450 C1449 0.959 . S
H1451 C1449 0.960 . S
H1452 C1449 0.961 . S
O1453 Co1428 1.967 . S
O1453 C1461 1.258 . S
O1454 Co1429 1.941 . S
O1454 C1461 1.266 . S
H1455 C1457 0.959 . S
H1456 C1457 0.961 . S
C1457 C1447 1.510 . S
C1457 H1455 0.959 . S
C1457 H1456 0.961 . S
C1457 H1458 0.960 . S
H1458 C1457 0.960 . S
H1459 N1439 0.862 . S
O1460 Co1428 1.920 . S
O1460 C1433 1.289 . S
C1461 O1453 1.258 . S
C1461 O1454 1.266 . S
Co1462 O1465 1.970 . S
Co1462 N1479 1.989 . S
Co1462 O1487 1.967 . S
Co1462 O1494 1.920 . S
Co1463 O1466 1.966 . S
Co1463 N1472 2.022 . S
Co1463 N1480 1.993 . S
Co1463 O1488 1.941 . S
C1464 O1465 1.258 . S
C1464 O1466 1.263 . S
O1465 Co1462 1.970 . S
O1465 C1464 1.258 . S
O1466 Co1463 1.966 . S
O1466 C1464 1.263 . S
C1467 O1468 1.235 . S
C1467 O1494 1.289 . S
O1468 C1467 1.235 . S
C1469 C1471 1.400 . S
C1469 N1472 1.351 . S
C1469 C1474 1.501 . S
C1470 C1471 1.387 . S
C1470 N1473 1.341 . S
C1471 C1469 1.400 . S
C1471 C1470 1.387 . S
N1472 Co1463 2.022 . S
N1472 C1469 1.351 . S
N1472 N1473 1.365 . S
N1473 C1470 1.341 . S
N1473 N1472 1.365 . S
N1473 H1493 0.862 . S
C1474 C1469 1.501 . S
C1474 H1475 0.961 . S
C1474 H1476 0.961 . S
C1474 H1477 0.960 . S
H1475 C1474 0.961 . S
H1476 C1474 0.961 . S
H1477 C1474 0.960 . S
C1478 N1479 1.342 . S
C1478 C1482 1.401 . S
C1478 C1483 1.499 . S
N1479 Co1462 1.989 . S
N1479 C1478 1.342 . S
N1479 N1480 1.388 . S
N1480 Co1463 1.993 . S
N1480 N1479 1.388 . S
N1480 C1481 1.346 . S
C1481 N1480 1.346 . S
C1481 C1482 1.396 . S
C1481 C1491 1.510 . S
C1482 C1478 1.401 . S
C1482 C1481 1.396 . S
C1483 C1478 1.499 . S
C1483 H1484 0.959 . S
C1483 H1485 0.960 . S
C1483 H1486 0.961 . S
H1484 C1483 0.959 . S
H1485 C1483 0.960 . S
H1486 C1483 0.961 . S
O1487 Co1462 1.967 . S
O1487 C1495 1.258 . S
O1488 Co1463 1.941 . S
O1488 C1495 1.266 . S
H1489 C1491 0.959 . S
H1490 C1491 0.961 . S
C1491 C1481 1.510 . S
C1491 H1489 0.959 . S
C1491 H1490 0.961 . S
C1491 H1492 0.960 . S
H1492 C1491 0.960 . S
H1493 N1473 0.862 . S
O1494 Co1462 1.920 . S
O1494 C1467 1.289 . S
C1495 O1487 1.258 . S
C1495 O1488 1.266 . S
Co1496 O1499 1.970 . S
Co1496 N1513 1.989 . S
Co1496 O1521 1.967 . S
Co1496 O1528 1.920 . S
Co1497 O1500 1.966 . S
Co1497 N1506 2.022 . S
Co1497 N1514 1.993 . S
Co1497 O1522 1.941 . S
C1498 O1499 1.258 . S
C1498 O1500 1.263 . S
O1499 Co1496 1.970 . S
O1499 C1498 1.258 . S
O1500 Co1497 1.966 . S
O1500 C1498 1.263 . S
C1501 O1502 1.235 . S
C1501 O1528 1.289 . S
O1502 C1501 1.235 . S
C1503 C1505 1.400 . S
C1503 N1506 1.351 . S
C1503 C1508 1.501 . S
C1504 C1505 1.387 . S
C1504 N1507 1.341 . S
C1505 C1503 1.400 . S
C1505 C1504 1.387 . S
N1506 Co1497 2.022 . S
N1506 C1503 1.351 . S
N1506 N1507 1.365 . S
N1507 C1504 1.341 . S
N1507 N1506 1.365 . S
N1507 H1527 0.862 . S
C1508 C1503 1.501 . S
C1508 H1509 0.961 . S
C1508 H1510 0.961 . S
C1508 H1511 0.960 . S
H1509 C1508 0.961 . S
H1510 C1508 0.961 . S
H1511 C1508 0.960 . S
C1512 N1513 1.342 . S
C1512 C1516 1.401 . S
C1512 C1517 1.499 . S
N1513 Co1496 1.989 . S
N1513 C1512 1.342 . S
N1513 N1514 1.388 . S
N1514 Co1497 1.993 . S
N1514 N1513 1.388 . S
N1514 C1515 1.346 . S
C1515 N1514 1.346 . S
C1515 C1516 1.396 . S
C1515 C1525 1.510 . S
C1516 C1512 1.401 . S
C1516 C1515 1.396 . S
C1517 C1512 1.499 . S
C1517 H1518 0.959 . S
C1517 H1519 0.960 . S
C1517 H1520 0.961 . S
H1518 C1517 0.959 . S
H1519 C1517 0.960 . S
H1520 C1517 0.961 . S
O1521 Co1496 1.967 . S
O1521 C1529 1.258 . S
O1522 Co1497 1.941 . S
O1522 C1529 1.266 . S
H1523 C1525 0.959 . S
H1524 C1525 0.961 . S
C1525 C1515 1.510 . S
C1525 H1523 0.959 . S
C1525 H1524 0.961 . S
C1525 H1526 0.960 . S
H1526 C1525 0.960 . S
H1527 N1507 0.862 . S
O1528 Co1496 1.920 . S
O1528 C1501 1.289 . S
C1529 O1521 1.258 . S
C1529 O1522 1.266 . S
Co1530 O1533 1.970 . S
Co1530 N1547 1.989 . S
Co1530 O1555 1.967 . S
Co1530 O1562 1.920 . S
Co1531 O1534 1.966 . S
Co1531 N1540 2.022 . S
Co1531 N1548 1.993 . S
Co1531 O1556 1.941 . S
C1532 O1533 1.258 . S
C1532 O1534 1.263 . S
O1533 Co1530 1.970 . S
O1533 C1532 1.258 . S
O1534 Co1531 1.966 . S
O1534 C1532 1.263 . S
C1535 O1536 1.235 . S
C1535 O1562 1.289 . S
O1536 C1535 1.235 . S
C1537 C1539 1.400 . S
C1537 N1540 1.351 . S
C1537 C1542 1.501 . S
C1538 C1539 1.387 . S
C1538 N1541 1.341 . S
C1539 C1537 1.400 . S
C1539 C1538 1.387 . S
N1540 Co1531 2.022 . S
N1540 C1537 1.351 . S
N1540 N1541 1.365 . S
N1541 C1538 1.341 . S
N1541 N1540 1.365 . S
N1541 H1561 0.862 . S
C1542 C1537 1.501 . S
C1542 H1543 0.961 . S
C1542 H1544 0.961 . S
C1542 H1545 0.960 . S
H1543 C1542 0.961 . S
H1544 C1542 0.961 . S
H1545 C1542 0.960 . S
C1546 N1547 1.342 . S
C1546 C1550 1.401 . S
C1546 C1551 1.499 . S
N1547 Co1530 1.989 . S
N1547 C1546 1.342 . S
N1547 N1548 1.388 . S
N1548 Co1531 1.993 . S
N1548 N1547 1.388 . S
N1548 C1549 1.346 . S
C1549 N1548 1.346 . S
C1549 C1550 1.396 . S
C1549 C1559 1.510 . S
C1550 C1546 1.401 . S
C1550 C1549 1.396 . S
C1551 C1546 1.499 . S
C1551 H1552 0.959 . S
C1551 H1553 0.960 . S
C1551 H1554 0.961 . S
H1552 C1551 0.959 . S
H1553 C1551 0.960 . S
H1554 C1551 0.961 . S
O1555 Co1530 1.967 . S
O1555 C1563 1.258 . S
O1556 Co1531 1.941 . S
O1556 C1563 1.266 . S
H1557 C1559 0.959 . S
H1558 C1559 0.961 . S
C1559 C1549 1.510 . S
C1559 H1557 0.959 . S
C1559 H1558 0.961 . S
C1559 H1560 0.960 . S
H1560 C1559 0.960 . S
H1561 N1541 0.862 . S
O1562 Co1530 1.920 . S
O1562 C1535 1.289 . S
C1563 O1555 1.258 . S
C1563 O1556 1.266 . S
Co1564 O1567 1.970 . S
Co1564 N1581 1.989 . S
Co1564 O1589 1.967 . S
Co1564 O1596 1.920 . S
Co1565 O1568 1.966 . S
Co1565 N1574 2.022 . S
Co1565 N1582 1.993 . S
Co1565 O1590 1.941 . S
C1566 O1567 1.258 . S
C1566 O1568 1.263 . S
O1567 Co1564 1.970 . S
O1567 C1566 1.258 . S
O1568 Co1565 1.966 . S
O1568 C1566 1.263 . S
C1569 O1570 1.235 . S
C1569 O1596 1.289 . S
O1570 C1569 1.235 . S
C1571 C1573 1.400 . S
C1571 N1574 1.351 . S
C1571 C1576 1.501 . S
C1572 C1573 1.387 . S
C1572 N1575 1.341 . S
C1573 C1571 1.400 . S
C1573 C1572 1.387 . S
N1574 Co1565 2.022 . S
N1574 C1571 1.351 . S
N1574 N1575 1.365 . S
N1575 C1572 1.341 . S
N1575 N1574 1.365 . S
N1575 H1595 0.862 . S
C1576 C1571 1.501 . S
C1576 H1577 0.961 . S
C1576 H1578 0.961 . S
C1576 H1579 0.960 . S
H1577 C1576 0.961 . S
H1578 C1576 0.961 . S
H1579 C1576 0.960 . S
C1580 N1581 1.342 . S
C1580 C1584 1.401 . S
C1580 C1585 1.499 . S
N1581 Co1564 1.989 . S
N1581 C1580 1.342 . S
N1581 N1582 1.388 . S
N1582 Co1565 1.993 . S
N1582 N1581 1.388 . S
N1582 C1583 1.346 . S
C1583 N1582 1.346 . S
C1583 C1584 1.396 . S
C1583 C1593 1.510 . S
C1584 C1580 1.401 . S
C1584 C1583 1.396 . S
C1585 C1580 1.499 . S
C1585 H1586 0.959 . S
C1585 H1587 0.960 . S
C1585 H1588 0.961 . S
H1586 C1585 0.959 . S
H1587 C1585 0.960 . S
H1588 C1585 0.961 . S
O1589 Co1564 1.967 . S
O1589 C1597 1.258 . S
O1590 Co1565 1.941 . S
O1590 C1597 1.266 . S
H1591 C1593 0.959 . S
H1592 C1593 0.961 . S
C1593 C1583 1.510 . S
C1593 H1591 0.959 . S
C1593 H1592 0.961 . S
C1593 H1594 0.960 . S
H1594 C1593 0.960 . S
H1595 N1575 0.862 . S
O1596 Co1564 1.920 . S
O1596 C1569 1.289 . S
C1597 O1589 1.258 . S
C1597 O1590 1.266 . S
Co1598 O1601 1.970 . S
Co1598 N1615 1.989 . S
Co1598 O1623 1.967 . S
Co1598 O1630 1.920 . S
Co1599 O1602 1.966 . S
Co1599 N1608 2.022 . S
Co1599 N1616 1.993 . S
Co1599 O1624 1.941 . S
C1600 O1601 1.258 . S
C1600 O1602 1.263 . S
O1601 Co1598 1.970 . S
O1601 C1600 1.258 . S
O1602 Co1599 1.966 . S
O1602 C1600 1.263 . S
C1603 O1604 1.235 . S
C1603 O1630 1.289 . S
O1604 C1603 1.235 . S
C1605 C1607 1.400 . S
C1605 N1608 1.351 . S
C1605 C1610 1.501 . S
C1606 C1607 1.387 . S
C1606 N1609 1.341 . S
C1607 C1605 1.400 . S
C1607 C1606 1.387 . S
N1608 Co1599 2.022 . S
N1608 C1605 1.351 . S
N1608 N1609 1.365 . S
N1609 C1606 1.341 . S
N1609 N1608 1.365 . S
N1609 H1629 0.862 . S
C1610 C1605 1.501 . S
C1610 H1611 0.961 . S
C1610 H1612 0.961 . S
C1610 H1613 0.960 . S
H1611 C1610 0.961 . S
H1612 C1610 0.961 . S
H1613 C1610 0.960 . S
C1614 N1615 1.342 . S
C1614 C1618 1.401 . S
C1614 C1619 1.499 . S
N1615 Co1598 1.989 . S
N1615 C1614 1.342 . S
N1615 N1616 1.388 . S
N1616 Co1599 1.993 . S
N1616 N1615 1.388 . S
N1616 C1617 1.346 . S
C1617 N1616 1.346 . S
C1617 C1618 1.396 . S
C1617 C1627 1.510 . S
C1618 C1614 1.401 . S
C1618 C1617 1.396 . S
C1619 C1614 1.499 . S
C1619 H1620 0.959 . S
C1619 H1621 0.960 . S
C1619 H1622 0.961 . S
H1620 C1619 0.959 . S
H1621 C1619 0.960 . S
H1622 C1619 0.961 . S
O1623 Co1598 1.967 . S
O1623 C1631 1.258 . S
O1624 Co1599 1.941 . S
O1624 C1631 1.266 . S
H1625 C1627 0.959 . S
H1626 C1627 0.961 . S
C1627 C1617 1.510 . S
C1627 H1625 0.959 . S
C1627 H1626 0.961 . S
C1627 H1628 0.960 . S
H1628 C1627 0.960 . S
H1629 N1609 0.862 . S
O1630 Co1598 1.920 . S
O1630 C1603 1.289 . S
C1631 O1623 1.258 . S
C1631 O1624 1.266 . S
H1632 C1638 0.930 . S
H1633 C1642 0.930 . S
H1634 C1647 0.929 . S
H1635 C1645 0.929 . S
H1636 C1640 0.929 . S
H1637 C1646 0.920 1_556 S
C1638 H1632 0.930 . S
C1638 C1639 1.367 . S
C1638 C1646 1.378 . S
C1639 C1638 1.367 . S
C1639 C1647 1.433 . S
C1640 H1636 0.929 . S
C1640 C1642 1.378 . S
C1640 C1644 1.350 . S
C1641 C1644 1.463 . S
C1641 C1646 1.350 1_556 S
C1641 N1649 1.427 . S
C1642 H1633 0.930 . S
C1642 C1640 1.378 . S
C1642 C1643 1.367 . S
C1643 C1642 1.367 . S
C1643 C1645 1.433 . S
C1644 C1640 1.350 . S
C1644 C1641 1.463 . S
C1644 N1648 1.427 . S
C1645 H1635 0.929 . S
C1645 C1643 1.433 . S
C1645 N1648 1.384 . S
C1646 H1637 0.920 1_554 S
C1646 C1638 1.378 . S
C1646 C1641 1.350 1_554 S
C1647 H1634 0.929 . S
C1647 C1639 1.433 . S
C1647 N1649 1.384 1_554 S
N1648 C1644 1.427 . S
N1648 C1645 1.384 . S
N1649 C1641 1.427 . S
N1649 C1647 1.384 1_556 S
H1650 C1656 0.930 . S
H1651 C1660 0.930 . S
H1652 C1665 0.929 . S
H1653 C1663 0.929 . S
H1654 C1658 0.929 . S
H1655 C1664 0.929 . S
C1656 H1650 0.930 . S
C1656 C1657 1.367 . S
C1656 C1664 1.378 . S
C1657 C1656 1.367 . S
C1657 C1665 1.433 . S
C1658 H1654 0.929 . S
C1658 C1660 1.378 . S
C1658 C1662 1.350 . S
C1659 C1662 1.463 . S
C1659 C1664 1.350 . S
C1659 N1667 1.427 . S
C1660 H1651 0.930 . S
C1660 C1658 1.378 . S
C1660 C1661 1.367 . S
C1661 C1660 1.367 . S
C1661 C1663 1.433 . S
C1662 C1658 1.350 . S
C1662 C1659 1.463 . S
C1662 N1666 1.427 . S
C1663 H1653 0.929 . S
C1663 C1661 1.433 . S
C1663 N1666 1.384 . S
C1664 H1655 0.929 . S
C1664 C1656 1.378 . S
C1664 C1659 1.350 . S
C1665 H1652 0.929 . S
C1665 C1657 1.433 . S
C1665 N1667 1.384 . S
N1666 C1662 1.427 . S
N1666 C1663 1.384 . S
N1667 C1659 1.427 . S
N1667 C1665 1.384 . S
H1668 C1674 0.930 . S
H1669 C1678 0.930 . S
H1670 C1683 0.929 . S
H1671 C1681 0.929 . S
H1672 C1676 0.929 . S
H1673 C1682 0.929 . S
C1674 H1668 0.930 . S
C1674 C1675 1.367 . S
C1674 C1682 1.378 . S
C1675 C1674 1.367 . S
C1675 C1683 1.433 . S
C1676 H1672 0.929 . S
C1676 C1678 1.378 . S
C1676 C1680 1.350 . S
C1677 C1680 1.463 . S
C1677 C1682 1.350 . S
C1677 N1685 1.427 . S
C1678 H1669 0.930 . S
C1678 C1676 1.378 . S
C1678 C1679 1.367 . S
C1679 C1678 1.367 . S
C1679 C1681 1.433 . S
C1680 C1676 1.350 . S
C1680 C1677 1.463 . S
C1680 N1684 1.427 . S
C1681 H1671 0.929 . S
C1681 C1679 1.433 . S
C1681 N1684 1.384 . S
C1682 H1673 0.929 . S
C1682 C1674 1.378 . S
C1682 C1677 1.350 . S
C1683 H1670 0.929 . S
C1683 C1675 1.433 . S
C1683 N1685 1.384 . S
N1684 C1680 1.427 . S
N1684 C1681 1.384 . S
N1685 C1677 1.427 . S
N1685 C1683 1.384 . S
H1686 C1692 0.930 . S
H1687 C1696 0.930 . S
H1688 C1701 0.929 . S
H1689 C1699 0.929 . S
H1690 C1694 0.929 . S
H1691 C1700 0.929 . S
C1692 H1686 0.930 . S
C1692 C1693 1.367 . S
C1692 C1700 1.378 . S
C1693 C1692 1.367 . S
C1693 C1701 1.433 . S
C1694 H1690 0.929 . S
C1694 C1696 1.378 . S
C1694 C1698 1.350 . S
C1695 C1698 1.463 . S
C1695 C1700 1.350 . S
C1695 N1703 1.427 . S
C1696 H1687 0.930 . S
C1696 C1694 1.378 . S
C1696 C1697 1.367 . S
C1697 C1696 1.367 . S
C1697 C1699 1.433 . S
C1698 C1694 1.350 . S
C1698 C1695 1.463 . S
C1698 N1702 1.427 . S
C1699 H1689 0.929 . S
C1699 C1697 1.433 . S
C1699 N1702 1.384 . S
C1700 H1691 0.929 . S
C1700 C1692 1.378 . S
C1700 C1695 1.350 . S
C1701 H1688 0.929 . S
C1701 C1693 1.433 . S
C1701 N1703 1.384 . S
N1702 C1698 1.427 . S
N1702 C1699 1.384 . S
N1703 C1695 1.427 . S
N1703 C1701 1.384 . S
H1704 C1710 0.930 . S
H1705 C1714 0.930 . S
H1706 C1719 0.929 . S
H1707 C1717 0.929 . S
H1708 C1712 0.929 . S
H1709 C1718 0.929 . S
C1710 H1704 0.930 . S
C1710 C1711 1.367 . S
C1710 C1718 1.378 . S
C1711 C1710 1.367 . S
C1711 C1719 1.433 . S
C1712 H1708 0.929 . S
C1712 C1714 1.378 . S
C1712 C1716 1.350 . S
C1713 C1716 1.463 . S
C1713 C1718 1.350 . S
C1713 N1721 1.427 . S
C1714 H1705 0.930 . S
C1714 C1712 1.378 . S
C1714 C1715 1.367 . S
C1715 C1714 1.367 . S
C1715 C1717 1.433 . S
C1716 C1712 1.350 . S
C1716 C1713 1.463 . S
C1716 N1720 1.427 . S
C1717 H1707 0.929 . S
C1717 C1715 1.433 . S
C1717 N1720 1.384 . S
C1718 H1709 0.929 . S
C1718 C1710 1.378 . S
C1718 C1713 1.350 . S
C1719 H1706 0.929 . S
C1719 C1711 1.433 . S
C1719 N1721 1.384 . S
N1720 C1716 1.427 . S
N1720 C1717 1.384 . S
N1721 C1713 1.427 . S
N1721 C1719 1.384 . S
H1722 C1728 0.930 . S
H1723 C1732 0.930 . S
H1724 C1737 0.929 . S
H1725 C1735 0.929 . S
H1726 C1730 0.929 . S
H1727 C1736 0.929 . S
C1728 H1722 0.930 . S
C1728 C1729 1.367 . S
C1728 C1736 1.378 . S
C1729 C1728 1.367 . S
C1729 C1737 1.433 . S
C1730 H1726 0.929 . S
C1730 C1732 1.378 . S
C1730 C1734 1.350 . S
C1731 C1734 1.463 . S
C1731 C1736 1.350 . S
C1731 N1739 1.427 . S
C1732 H1723 0.930 . S
C1732 C1730 1.378 . S
C1732 C1733 1.367 . S
C1733 C1732 1.367 . S
C1733 C1735 1.433 . S
C1734 C1730 1.350 . S
C1734 C1731 1.463 . S
C1734 N1738 1.427 . S
C1735 H1725 0.929 . S
C1735 C1733 1.433 . S
C1735 N1738 1.384 . S
C1736 H1727 0.929 . S
C1736 C1728 1.378 . S
C1736 C1731 1.350 . S
C1737 H1724 0.929 . S
C1737 C1729 1.433 . S
C1737 N1739 1.384 . S
N1738 C1734 1.427 . S
N1738 C1735 1.384 . S
N1739 C1731 1.427 . S
N1739 C1737 1.384 . S
H1740 C1746 0.930 . S
H1741 C1750 0.930 . S
H1742 C1755 0.929 . S
H1743 C1753 0.929 . S
H1744 C1748 0.929 . S
H1745 C1754 0.929 . S
C1746 H1740 0.930 . S
C1746 C1747 1.367 . S
C1746 C1754 1.378 . S
C1747 C1746 1.367 . S
C1747 C1755 1.433 . S
C1748 H1744 0.929 . S
C1748 C1750 1.378 . S
C1748 C1752 1.350 . S
C1749 C1752 1.463 . S
C1749 C1754 1.350 1_554 S
C1749 N1757 1.427 . S
C1750 H1741 0.930 . S
C1750 C1748 1.378 . S
C1750 C1751 1.367 . S
C1751 C1750 1.367 . S
C1751 C1753 1.433 . S
C1752 C1748 1.350 . S
C1752 C1749 1.463 . S
C1752 N1756 1.427 . S
C1753 H1743 0.929 . S
C1753 C1751 1.433 . S
C1753 N1756 1.384 . S
C1754 H1745 0.929 . S
C1754 C1746 1.378 . S
C1754 C1749 1.350 1_556 S
C1755 H1742 0.929 . S
C1755 C1747 1.433 . S
C1755 N1757 1.384 1_556 S
N1756 C1752 1.427 . S
N1756 C1753 1.384 . S
N1757 C1749 1.427 . S
N1757 C1755 1.384 1_554 S
H1758 C1764 0.930 . S
H1759 C1768 0.930 . S
H1760 C1773 0.929 . S
H1761 C1771 0.929 . S
H1762 C1766 0.929 . S
H1763 C1772 0.929 . S
C1764 H1758 0.930 . S
C1764 C1765 1.367 . S
C1764 C1772 1.378 . S
C1765 C1764 1.367 . S
C1765 C1773 1.433 . S
C1766 H1762 0.929 . S
C1766 C1768 1.378 . S
C1766 C1770 1.350 . S
C1767 C1770 1.463 . S
C1767 C1772 1.350 . S
C1767 N1775 1.427 . S
C1768 H1759 0.930 . S
C1768 C1766 1.378 . S
C1768 C1769 1.367 . S
C1769 C1768 1.367 . S
C1769 C1771 1.433 . S
C1770 C1766 1.350 . S
C1770 C1767 1.463 . S
C1770 N1774 1.427 . S
C1771 H1761 0.929 . S
C1771 C1769 1.433 . S
C1771 N1774 1.384 . S
C1772 H1763 0.929 . S
C1772 C1764 1.378 . S
C1772 C1767 1.350 . S
C1773 H1760 0.929 . S
C1773 C1765 1.433 . S
C1773 N1775 1.384 . S
N1774 C1770 1.427 . S
N1774 C1771 1.384 . S
N1775 C1767 1.427 . S
N1775 C1773 1.384 . S
H1776 C1782 0.930 . S
H1777 C1786 0.930 . S
H1778 C1791 0.929 . S
H1779 C1789 0.929 . S
H1780 C1784 0.929 . S
H1781 C1790 0.929 . S
C1782 H1776 0.930 . S
C1782 C1783 1.367 . S
C1782 C1790 1.378 . S
C1783 C1782 1.367 . S
C1783 C1791 1.433 . S
C1784 H1780 0.929 . S
C1784 C1786 1.378 . S
C1784 C1788 1.350 1_455 S
C1785 C1788 1.463 . S
C1785 C1790 1.350 . S
C1785 N1793 1.427 . S
C1786 H1777 0.930 . S
C1786 C1784 1.378 . S
C1786 C1787 1.367 . S
C1787 C1786 1.367 . S
C1787 C1789 1.433 . S
C1788 C1784 1.350 1_655 S
C1788 C1785 1.463 . S
C1788 N1792 1.427 . S
C1789 H1779 0.929 . S
C1789 C1787 1.433 . S
C1789 N1792 1.384 1_455 S
C1790 H1781 0.929 . S
C1790 C1782 1.378 . S
C1790 C1785 1.350 . S
C1791 H1778 0.929 . S
C1791 C1783 1.433 . S
C1791 N1793 1.384 . S
N1792 C1788 1.427 . S
N1792 C1789 1.384 1_655 S
N1793 C1785 1.427 . S
N1793 C1791 1.384 . S
H1794 C1800 0.930 . S
H1795 C1804 0.930 . S
H1796 C1809 0.929 . S
H1797 C1807 0.929 . S
H1798 C1802 0.929 . S
H1799 C1808 0.929 . S
C1800 H1794 0.930 . S
C1800 C1801 1.367 . S
C1800 C1808 1.378 . S
C1801 C1800 1.367 . S
C1801 C1809 1.433 . S
C1802 H1798 0.929 . S
C1802 C1804 1.378 . S
C1802 C1806 1.350 . S
C1803 C1806 1.463 . S
C1803 C1808 1.350 . S
C1803 N1811 1.427 . S
C1804 H1795 0.930 . S
C1804 C1802 1.378 . S
C1804 C1805 1.367 . S
C1805 C1804 1.367 . S
C1805 C1807 1.433 . S
C1806 C1802 1.350 . S
C1806 C1803 1.463 . S
C1806 N1810 1.427 . S
C1807 H1797 0.929 . S
C1807 C1805 1.433 . S
C1807 N1810 1.384 . S
C1808 H1799 0.929 . S
C1808 C1800 1.378 . S
C1808 C1803 1.350 . S
C1809 H1796 0.929 . S
C1809 C1801 1.433 . S
C1809 N1811 1.384 . S
N1810 C1806 1.427 . S
N1810 C1807 1.384 . S
N1811 C1803 1.427 . S
N1811 C1809 1.384 . S
H1812 C1818 0.930 . S
H1813 C1822 0.930 . S
H1814 C1827 0.929 . S
H1815 C1825 0.929 . S
H1816 C1820 0.929 . S
H1817 C1826 0.929 . S
C1818 H1812 0.930 . S
C1818 C1819 1.367 . S
C1818 C1826 1.378 . S
C1819 C1818 1.367 . S
C1819 C1827 1.433 . S
C1820 H1816 0.929 . S
C1820 C1822 1.378 . S
C1820 C1824 1.350 . S
C1821 C1824 1.463 . S
C1821 C1826 1.350 . S
C1821 N1829 1.427 . S
C1822 H1813 0.930 . S
C1822 C1820 1.378 . S
C1822 C1823 1.367 . S
C1823 C1822 1.367 . S
C1823 C1825 1.433 . S
C1824 C1820 1.350 . S
C1824 C1821 1.463 . S
C1824 N1828 1.427 . S
C1825 H1815 0.929 . S
C1825 C1823 1.433 . S
C1825 N1828 1.384 . S
C1826 H1817 0.929 . S
C1826 C1818 1.378 . S
C1826 C1821 1.350 . S
C1827 H1814 0.929 . S
C1827 C1819 1.433 . S
C1827 N1829 1.384 . S
N1828 C1824 1.427 . S
N1828 C1825 1.384 . S
N1829 C1821 1.427 . S
N1829 C1827 1.384 . S
H1830 C1836 0.930 . S
H1831 C1840 0.930 . S
H1832 C1845 0.929 . S
H1833 C1843 0.929 . S
H1834 C1838 0.929 . S
H1835 C1844 0.929 . S
C1836 H1830 0.930 . S
C1836 C1837 1.367 . S
C1836 C1844 1.378 . S
C1837 C1836 1.367 . S
C1837 C1845 1.433 . S
C1838 H1834 0.929 . S
C1838 C1840 1.378 . S
C1838 C1842 1.350 . S
C1839 C1842 1.463 . S
C1839 C1844 1.350 . S
C1839 N1847 1.427 . S
C1840 H1831 0.930 . S
C1840 C1838 1.378 . S
C1840 C1841 1.367 . S
C1841 C1840 1.367 . S
C1841 C1843 1.433 . S
C1842 C1838 1.350 . S
C1842 C1839 1.463 . S
C1842 N1846 1.427 . S
C1843 H1833 0.929 . S
C1843 C1841 1.433 . S
C1843 N1846 1.384 . S
C1844 H1835 0.929 . S
C1844 C1836 1.378 . S
C1844 C1839 1.350 . S
C1845 H1832 0.929 . S
C1845 C1837 1.433 . S
C1845 N1847 1.384 . S
N1846 C1842 1.427 . S
N1846 C1843 1.384 . S
N1847 C1839 1.427 . S
N1847 C1845 1.384 . S
H1848 C1854 0.930 . S
H1849 C1858 0.930 . S
H1850 C1863 0.929 . S
H1851 C1861 0.929 . S
H1852 C1856 0.929 . S
H1853 C1862 0.929 . S
C1854 H1848 0.930 . S
C1854 C1855 1.367 . S
C1854 C1862 1.378 1_455 S
C1855 C1854 1.367 . S
C1855 C1863 1.433 . S
C1856 H1852 0.929 . S
C1856 C1858 1.378 . S
C1856 C1860 1.350 . S
C1857 C1860 1.463 . S
C1857 C1862 1.350 . S
C1857 N1865 1.427 . S
C1858 H1849 0.930 . S
C1858 C1856 1.378 . S
C1858 C1859 1.367 . S
C1859 C1858 1.367 . S
C1859 C1861 1.433 . S
C1860 C1856 1.350 . S
C1860 C1857 1.463 . S
C1860 N1864 1.427 . S
C1861 H1851 0.929 . S
C1861 C1859 1.433 . S
C1861 N1864 1.384 . S
C1862 H1853 0.929 . S
C1862 C1854 1.378 1_655 S
C1862 C1857 1.350 . S
C1863 H1850 0.929 . S
C1863 C1855 1.433 . S
C1863 N1865 1.384 1_455 S
N1864 C1860 1.427 . S
N1864 C1861 1.384 . S
N1865 C1857 1.427 . S
N1865 C1863 1.384 1_655 S
H1866 C1872 0.930 . S
H1867 C1876 0.930 . S
H1868 C1881 0.929 . S
H1869 C1879 0.929 . S
H1870 C1874 0.929 . S
H1871 C1880 0.929 . S
C1872 H1866 0.930 . S
C1872 C1873 1.367 . S
C1872 C1880 1.378 . S
C1873 C1872 1.367 . S
C1873 C1881 1.433 . S
C1874 H1870 0.929 . S
C1874 C1876 1.378 . S
C1874 C1878 1.350 . S
C1875 C1878 1.463 . S
C1875 C1880 1.350 . S
C1875 N1883 1.427 . S
C1876 H1867 0.930 . S
C1876 C1874 1.378 . S
C1876 C1877 1.367 . S
C1877 C1876 1.367 . S
C1877 C1879 1.433 . S
C1878 C1874 1.350 . S
C1878 C1875 1.463 . S
C1878 N1882 1.427 . S
C1879 H1869 0.929 . S
C1879 C1877 1.433 . S
C1879 N1882 1.384 . S
C1880 H1871 0.929 . S
C1880 C1872 1.378 . S
C1880 C1875 1.350 . S
C1881 H1868 0.929 . S
C1881 C1873 1.433 . S
C1881 N1883 1.384 . S
N1882 C1878 1.427 . S
N1882 C1879 1.384 . S
N1883 C1875 1.427 . S
N1883 C1881 1.384 . S
H1884 C1890 0.930 . S
H1885 C1894 0.930 . S
H1886 C1899 0.929 . S
H1887 C1897 0.929 . S
H1888 C1892 0.929 . S
H1889 C1898 0.929 . S
C1890 H1884 0.930 . S
C1890 C1891 1.367 . S
C1890 C1898 1.378 . S
C1891 C1890 1.367 . S
C1891 C1899 1.433 . S
C1892 H1888 0.929 . S
C1892 C1894 1.378 . S
C1892 C1896 1.350 . S
C1893 C1896 1.463 . S
C1893 C1898 1.350 . S
C1893 N1901 1.427 . S
C1894 H1885 0.930 . S
C1894 C1892 1.378 . S
C1894 C1895 1.367 . S
C1895 C1894 1.367 . S
C1895 C1897 1.433 . S
C1896 C1892 1.350 . S
C1896 C1893 1.463 . S
C1896 N1900 1.427 . S
C1897 H1887 0.929 . S
C1897 C1895 1.433 . S
C1897 N1900 1.384 . S
C1898 H1889 0.929 . S
C1898 C1890 1.378 . S
C1898 C1893 1.350 . S
C1899 H1886 0.929 . S
C1899 C1891 1.433 . S
C1899 N1901 1.384 . S
N1900 C1896 1.427 . S
N1900 C1897 1.384 . S
N1901 C1893 1.427 . S
N1901 C1899 1.384 . S
H1902 C1908 0.930 . S
H1903 C1912 0.930 . S
H1904 C1917 0.929 . S
H1905 C1915 0.929 . S
H1906 C1910 0.929 . S
H1907 C1916 0.929 . S
C1908 H1902 0.930 . S
C1908 C1909 1.367 . S
C1908 C1916 1.378 . S
C1909 C1908 1.367 . S
C1909 C1917 1.433 . S
C1910 H1906 0.929 . S
C1910 C1912 1.378 . S
C1910 C1914 1.350 . S
C1911 C1914 1.463 . S
C1911 C1916 1.350 . S
C1911 N1919 1.427 . S
C1912 H1903 0.930 . S
C1912 C1910 1.378 . S
C1912 C1913 1.367 . S
C1913 C1912 1.367 . S
C1913 C1915 1.433 . S
C1914 C1910 1.350 . S
C1914 C1911 1.463 . S
C1914 N1918 1.427 . S
C1915 H1905 0.929 . S
C1915 C1913 1.433 . S
C1915 N1918 1.384 . S
C1916 H1907 0.929 . S
C1916 C1908 1.378 . S
C1916 C1911 1.350 . S
C1917 H1904 0.929 . S
C1917 C1909 1.433 . S
C1917 N1919 1.384 . S
N1918 C1914 1.427 . S
N1918 C1915 1.384 . S
N1919 C1911 1.427 . S
N1919 C1917 1.384 . S
H1920 C1926 0.930 . S
H1921 C1930 0.930 . S
H1922 C1935 0.929 . S
H1923 C1933 0.929 . S
H1924 C1928 0.929 1_565 S
H1925 C1934 0.929 . S
C1926 H1920 0.930 . S
C1926 C1927 1.367 . S
C1926 C1934 1.378 . S
C1927 C1926 1.367 . S
C1927 C1935 1.433 . S
C1928 H1924 0.929 1_545 S
C1928 C1930 1.378 . S
C1928 C1932 1.350 1_545 S
C1929 C1932 1.463 . S
C1929 C1934 1.350 . S
C1929 N1937 1.427 . S
C1930 H1921 0.930 . S
C1930 C1928 1.378 . S
C1930 C1931 1.367 . S
C1931 C1930 1.367 . S
C1931 C1933 1.433 . S
C1932 C1928 1.350 1_565 S
C1932 C1929 1.463 . S
C1932 N1936 1.427 . S
C1933 H1923 0.929 . S
C1933 C1931 1.433 . S
C1933 N1936 1.384 1_545 S
C1934 H1925 0.929 . S
C1934 C1926 1.378 . S
C1934 C1929 1.350 . S
C1935 H1922 0.929 . S
C1935 C1927 1.433 . S
C1935 N1937 1.384 . S
N1936 C1932 1.427 . S
N1936 C1933 1.384 1_565 S
N1937 C1929 1.427 . S
N1937 C1935 1.384 . S
H1938 C1944 0.930 . S
H1939 C1948 0.930 . S
H1940 C1953 0.929 . S
H1941 C1951 0.929 . S
H1942 C1946 0.929 . S
H1943 C1952 0.929 . S
C1944 H1938 0.930 . S
C1944 C1945 1.367 . S
C1944 C1952 1.378 . S
C1945 C1944 1.367 . S
C1945 C1953 1.433 . S
C1946 H1942 0.929 . S
C1946 C1948 1.378 . S
C1946 C1950 1.350 . S
C1947 C1950 1.463 . S
C1947 C1952 1.350 . S
C1947 N1955 1.427 . S
C1948 H1939 0.930 . S
C1948 C1946 1.378 . S
C1948 C1949 1.367 . S
C1949 C1948 1.367 . S
C1949 C1951 1.433 . S
C1950 C1946 1.350 . S
C1950 C1947 1.463 . S
C1950 N1954 1.427 . S
C1951 H1941 0.929 . S
C1951 C1949 1.433 . S
C1951 N1954 1.384 . S
C1952 H1943 0.929 . S
C1952 C1944 1.378 . S
C1952 C1947 1.350 . S
C1953 H1940 0.929 . S
C1953 C1945 1.433 . S
C1953 N1955 1.384 . S
N1954 C1950 1.427 . S
N1954 C1951 1.384 . S
N1955 C1947 1.427 . S
N1955 C1953 1.384 . S
H1956 C1962 0.930 . S
H1957 C1966 0.930 . S
H1958 C1971 0.929 . S
H1959 C1969 0.929 . S
H1960 C1964 0.929 . S
H1961 C1970 0.929 . S
C1962 H1956 0.930 . S
C1962 C1963 1.367 . S
C1962 C1970 1.378 . S
C1963 C1962 1.367 . S
C1963 C1971 1.433 . S
C1964 H1960 0.929 . S
C1964 C1966 1.378 . S
C1964 C1968 1.350 . S
C1965 C1968 1.463 . S
C1965 C1970 1.350 . S
C1965 N1973 1.427 . S
C1966 H1957 0.930 . S
C1966 C1964 1.378 . S
C1966 C1967 1.367 . S
C1967 C1966 1.367 . S
C1967 C1969 1.433 . S
C1968 C1964 1.350 . S
C1968 C1965 1.463 . S
C1968 N1972 1.427 . S
C1969 H1959 0.929 . S
C1969 C1967 1.433 . S
C1969 N1972 1.384 . S
C1970 H1961 0.929 . S
C1970 C1962 1.378 . S
C1970 C1965 1.350 . S
C1971 H1958 0.929 . S
C1971 C1963 1.433 . S
C1971 N1973 1.384 . S
N1972 C1968 1.427 . S
N1972 C1969 1.384 . S
N1973 C1965 1.427 . S
N1973 C1971 1.384 . S
H1974 C1980 0.930 . S
H1975 C1984 0.930 . S
H1976 C1989 0.929 . S
H1977 C1987 0.929 . S
H1978 C1982 0.929 . S
H1979 C1988 0.929 . S
C1980 H1974 0.930 . S
C1980 C1981 1.367 . S
C1980 C1988 1.378 . S
C1981 C1980 1.367 . S
C1981 C1989 1.433 . S
C1982 H1978 0.929 . S
C1982 C1984 1.378 . S
C1982 C1986 1.350 . S
C1983 C1986 1.463 . S
C1983 C1988 1.350 . S
C1983 N1991 1.427 . S
C1984 H1975 0.930 . S
C1984 C1982 1.378 . S
C1984 C1985 1.367 . S
C1985 C1984 1.367 . S
C1985 C1987 1.433 . S
C1986 C1982 1.350 . S
C1986 C1983 1.463 . S
C1986 N1990 1.427 . S
C1987 H1977 0.929 . S
C1987 C1985 1.433 . S
C1987 N1990 1.384 . S
C1988 H1979 0.929 . S
C1988 C1980 1.378 . S
C1988 C1983 1.350 . S
C1989 H1976 0.929 . S
C1989 C1981 1.433 . S
C1989 N1991 1.384 . S
N1990 C1986 1.427 . S
N1990 C1987 1.384 . S
N1991 C1983 1.427 . S
N1991 C1989 1.384 . S
H1992 C1998 0.930 . S
H1993 C2002 0.930 . S
H1994 C2007 0.929 . S
H1995 C2005 0.929 . S
H1996 C2000 0.929 . S
H1997 C2006 0.929 . S
C1998 H1992 0.930 . S
C1998 C1999 1.367 . S
C1998 C2006 1.378 . S
C1999 C1998 1.367 . S
C1999 C2007 1.433 . S
C2000 H1996 0.929 . S
C2000 C2002 1.378 . S
C2000 C2004 1.350 . S
C2001 C2004 1.463 . S
C2001 C2006 1.350 . S
C2001 N2009 1.427 . S
C2002 H1993 0.930 . S
C2002 C2000 1.378 . S
C2002 C2003 1.367 . S
C2003 C2002 1.367 . S
C2003 C2005 1.433 . S
C2004 C2000 1.350 . S
C2004 C2001 1.463 . S
C2004 N2008 1.427 . S
C2005 H1995 0.929 . S
C2005 C2003 1.433 . S
C2005 N2008 1.384 . S
C2006 H1997 0.929 . S
C2006 C1998 1.378 . S
C2006 C2001 1.350 . S
C2007 H1994 0.929 . S
C2007 C1999 1.433 . S
C2007 N2009 1.384 . S
N2008 C2004 1.427 . S
N2008 C2005 1.384 . S
N2009 C2001 1.427 . S
N2009 C2007 1.384 . S
H2010 C2016 0.930 . S
H2011 C2020 0.930 . S
H2012 C2025 0.929 . S
H2013 C2023 0.929 . S
H2014 C2018 0.929 . S
H2015 C2024 0.929 1_545 S
C2016 H2010 0.930 . S
C2016 C2017 1.367 . S
C2016 C2024 1.378 . S
C2017 C2016 1.367 . S
C2017 C2025 1.433 . S
C2018 H2014 0.929 . S
C2018 C2020 1.378 . S
C2018 C2022 1.350 . S
C2019 C2022 1.463 . S
C2019 C2024 1.350 1_545 S
C2019 N2027 1.427 1_545 S
C2020 H2011 0.930 . S
C2020 C2018 1.378 . S
C2020 C2021 1.367 . S
C2021 C2020 1.367 . S
C2021 C2023 1.433 . S
C2022 C2018 1.350 . S
C2022 C2019 1.463 . S
C2022 N2026 1.427 . S
C2023 H2013 0.929 . S
C2023 C2021 1.433 . S
C2023 N2026 1.384 . S
C2024 H2015 0.929 1_565 S
C2024 C2016 1.378 . S
C2024 C2019 1.350 1_565 S
C2025 H2012 0.929 . S
C2025 C2017 1.433 . S
C2025 N2027 1.384 . S
N2026 C2022 1.427 . S
N2026 C2023 1.384 . S
N2027 C2019 1.427 1_565 S
N2027 C2025 1.384 . S
H2028 C2034 0.930 . S
H2029 C2038 0.930 . S
H2030 C2043 0.929 . S
H2031 C2041 0.929 . S
H2032 C2036 0.929 . S
H2033 C2042 0.929 . S
C2034 H2028 0.930 . S
C2034 C2035 1.367 . S
C2034 C2042 1.378 . S
C2035 C2034 1.367 . S
C2035 C2043 1.433 . S
C2036 H2032 0.929 . S
C2036 C2038 1.378 . S
C2036 C2040 1.350 . S
C2037 C2040 1.463 . S
C2037 C2042 1.350 . S
C2037 N2045 1.427 . S
C2038 H2029 0.930 . S
C2038 C2036 1.378 . S
C2038 C2039 1.367 . S
C2039 C2038 1.367 . S
C2039 C2041 1.433 . S
C2040 C2036 1.350 . S
C2040 C2037 1.463 . S
C2040 N2044 1.427 . S
C2041 H2031 0.929 . S
C2041 C2039 1.433 . S
C2041 N2044 1.384 . S
C2042 H2033 0.929 . S
C2042 C2034 1.378 . S
C2042 C2037 1.350 . S
C2043 H2030 0.929 . S
C2043 C2035 1.433 . S
C2043 N2045 1.384 . S
N2044 C2040 1.427 . S
N2044 C2041 1.384 . S
N2045 C2037 1.427 . S
N2045 C2043 1.384 . S
H2046 C2052 0.930 . S
H2047 C2056 0.930 . S
H2048 C2061 0.929 . S
H2049 C2059 0.929 . S
H2050 C2054 0.929 . S
H2051 C2060 0.929 . S
C2052 H2046 0.930 . S
C2052 C2053 1.367 . S
C2052 C2060 1.378 . S
C2053 C2052 1.367 . S
C2053 C2061 1.433 . S
C2054 H2050 0.929 . S
C2054 C2056 1.378 . S
C2054 C2058 1.350 . S
C2055 C2058 1.463 . S
C2055 C2060 1.350 . S
C2055 N2063 1.427 . S
C2056 H2047 0.930 . S
C2056 C2054 1.378 . S
C2056 C2057 1.367 . S
C2057 C2056 1.367 . S
C2057 C2059 1.433 . S
C2058 C2054 1.350 . S
C2058 C2055 1.463 . S
C2058 N2062 1.427 . S
C2059 H2049 0.929 . S
C2059 C2057 1.433 . S
C2059 N2062 1.384 . S
C2060 H2051 0.929 . S
C2060 C2052 1.378 . S
C2060 C2055 1.350 . S
C2061 H2048 0.929 . S
C2061 C2053 1.433 . S
C2061 N2063 1.384 . S
N2062 C2058 1.427 . S
N2062 C2059 1.384 . S
N2063 C2055 1.427 . S
N2063 C2061 1.384 . S
H2064 C2070 0.930 . S
H2065 C2074 0.930 . S
H2066 C2079 0.929 . S
H2067 C2077 0.929 . S
H2068 C2072 0.929 . S
H2069 C2078 0.929 . S
C2070 H2064 0.930 . S
C2070 C2071 1.367 . S
C2070 C2078 1.378 . S
C2071 C2070 1.367 . S
C2071 C2079 1.433 . S
C2072 H2068 0.929 . S
C2072 C2074 1.378 1_554 S
C2072 C2076 1.350 . S
C2073 C2076 1.463 . S
C2073 C2078 1.350 . S
C2073 N2081 1.427 . S
C2074 H2065 0.930 . S
C2074 C2072 1.378 1_556 S
C2074 C2075 1.367 . S
C2075 C2074 1.367 . S
C2075 C2077 1.433 . S
C2076 C2072 1.350 . S
C2076 C2073 1.463 . S
C2076 N2080 1.411 1_554 S
C2077 H2067 0.929 . S
C2077 C2075 1.433 . S
C2077 N2080 1.408 . S
C2078 H2069 0.929 . S
C2078 C2070 1.378 . S
C2078 C2073 1.350 . S
C2079 H2066 0.929 . S
C2079 C2071 1.433 . S
C2079 N2081 1.384 . S
N2080 C2076 1.411 1_556 S
N2080 C2077 1.408 . S
N2081 C2073 1.427 . S
N2081 C2079 1.384 . S
H2082 C2088 0.930 . S
H2083 C2092 0.930 . S
H2084 C2097 0.929 . S
H2085 C2095 0.929 . S
H2086 C2090 0.929 . S
H2087 C2096 0.929 . S
C2088 H2082 0.930 . S
C2088 C2089 1.367 . S
C2088 C2096 1.378 . S
C2089 C2088 1.367 . S
C2089 C2097 1.433 . S
C2090 H2086 0.929 . S
C2090 C2092 1.378 . S
C2090 C2094 1.350 . S
C2091 C2094 1.463 . S
C2091 C2096 1.350 . S
C2091 N2099 1.427 . S
C2092 H2083 0.930 . S
C2092 C2090 1.378 . S
C2092 C2093 1.367 . S
C2093 C2092 1.367 . S
C2093 C2095 1.433 . S
C2094 C2090 1.350 . S
C2094 C2091 1.463 . S
C2094 N2098 1.427 . S
C2095 H2085 0.929 . S
C2095 C2093 1.433 . S
C2095 N2098 1.384 . S
C2096 H2087 0.929 . S
C2096 C2088 1.378 . S
C2096 C2091 1.350 . S
C2097 H2084 0.929 . S
C2097 C2089 1.433 . S
C2097 N2099 1.384 . S
N2098 C2094 1.427 . S
N2098 C2095 1.384 . S
N2099 C2091 1.427 . S
N2099 C2097 1.384 . S
H2100 C2106 0.930 . S
H2101 C2110 0.930 . S
H2102 C2115 0.929 . S
H2103 C2113 0.929 . S
H2104 C2108 0.929 . S
H2105 C2114 0.929 . S
C2106 H2100 0.930 . S
C2106 C2107 1.367 . S
C2106 C2114 1.378 . S
C2107 C2106 1.367 . S
C2107 C2115 1.433 . S
C2108 H2104 0.929 . S
C2108 C2110 1.378 . S
C2108 C2112 1.350 . S
C2109 C2112 1.463 . S
C2109 C2114 1.350 . S
C2109 N2117 1.427 . S
C2110 H2101 0.930 . S
C2110 C2108 1.378 . S
C2110 C2111 1.367 . S
C2111 C2110 1.367 . S
C2111 C2113 1.433 . S
C2112 C2108 1.350 . S
C2112 C2109 1.463 . S
C2112 N2116 1.427 . S
C2113 H2103 0.929 . S
C2113 C2111 1.433 . S
C2113 N2116 1.384 . S
C2114 H2105 0.929 . S
C2114 C2106 1.378 . S
C2114 C2109 1.350 . S
C2115 H2102 0.929 . S
C2115 C2107 1.433 . S
C2115 N2117 1.384 . S
N2116 C2112 1.427 . S
N2116 C2113 1.384 . S
N2117 C2109 1.427 . S
N2117 C2115 1.384 . S
H2118 C2124 0.930 . S
H2119 C2128 0.930 . S
H2120 C2133 0.929 . S
H2121 C2131 0.929 . S
H2122 C2126 0.929 . S
H2123 C2132 0.929 . S
C2124 H2118 0.930 . S
C2124 C2125 1.367 . S
C2124 C2132 1.378 . S
C2125 C2124 1.367 . S
C2125 C2133 1.433 . S
C2126 H2122 0.929 . S
C2126 C2128 1.378 . S
C2126 C2130 1.350 . S
C2127 C2130 1.463 . S
C2127 C2132 1.350 . S
C2127 N2135 1.427 . S
C2128 H2119 0.930 . S
C2128 C2126 1.378 . S
C2128 C2129 1.367 . S
C2129 C2128 1.367 . S
C2129 C2131 1.433 . S
C2130 C2126 1.350 . S
C2130 C2127 1.463 . S
C2130 N2134 1.427 . S
C2131 H2121 0.929 . S
C2131 C2129 1.433 . S
C2131 N2134 1.384 . S
C2132 H2123 0.929 . S
C2132 C2124 1.378 . S
C2132 C2127 1.350 . S
C2133 H2120 0.929 . S
C2133 C2125 1.433 . S
C2133 N2135 1.384 . S
N2134 C2130 1.427 . S
N2134 C2131 1.384 . S
N2135 C2127 1.427 . S
N2135 C2133 1.384 . S
H2136 C2142 0.930 . S
H2137 C2146 0.930 . S
H2138 C2151 0.929 . S
H2139 C2149 0.929 . S
H2140 C2144 0.929 . S
H2141 C2150 0.929 . S
C2142 H2136 0.930 . S
C2142 C2143 1.367 . S
C2142 C2150 1.378 . S
C2143 C2142 1.367 . S
C2143 C2151 1.433 . S
C2144 H2140 0.929 . S
C2144 C2146 1.378 . S
C2144 C2148 1.350 . S
C2145 C2148 1.463 . S
C2145 C2150 1.350 . S
C2145 N2153 1.427 . S
C2146 H2137 0.930 . S
C2146 C2144 1.378 . S
C2146 C2147 1.367 . S
C2147 C2146 1.367 . S
C2147 C2149 1.433 . S
C2148 C2144 1.350 . S
C2148 C2145 1.463 . S
C2148 N2152 1.427 . S
C2149 H2139 0.929 . S
C2149 C2147 1.433 . S
C2149 N2152 1.384 . S
C2150 H2141 0.929 . S
C2150 C2142 1.378 . S
C2150 C2145 1.350 . S
C2151 H2138 0.929 . S
C2151 C2143 1.433 . S
C2151 N2153 1.384 . S
N2152 C2148 1.427 . S
N2152 C2149 1.384 . S
N2153 C2145 1.427 . S
N2153 C2151 1.384 . S
H2154 C2160 0.930 . S
H2155 C2164 0.930 . S
H2156 C2169 0.929 . S
H2157 C2167 0.929 . S
H2158 C2162 0.929 . S
H2159 C2168 0.929 . S
C2160 H2154 0.930 . S
C2160 C2161 1.367 . S
C2160 C2168 1.378 . S
C2161 C2160 1.367 . S
C2161 C2169 1.433 . S
C2162 H2158 0.929 . S
C2162 C2164 1.378 . S
C2162 C2166 1.350 . S
C2163 C2166 1.463 . S
C2163 C2168 1.350 . S
C2163 N2171 1.427 . S
C2164 H2155 0.930 . S
C2164 C2162 1.378 . S
C2164 C2165 1.367 . S
C2165 C2164 1.367 . S
C2165 C2167 1.433 . S
C2166 C2162 1.350 . S
C2166 C2163 1.463 . S
C2166 N2170 1.427 . S
C2167 H2157 0.929 . S
C2167 C2165 1.433 . S
C2167 N2170 1.384 . S
C2168 H2159 0.929 . S
C2168 C2160 1.378 . S
C2168 C2163 1.350 . S
C2169 H2156 0.929 . S
C2169 C2161 1.433 . S
C2169 N2171 1.384 . S
N2170 C2166 1.427 . S
N2170 C2167 1.384 . S
N2171 C2163 1.427 . S
N2171 C2169 1.384 . S
H2172 C2178 0.930 . S
H2173 C2182 0.930 . S
H2174 C2187 0.929 . S
H2175 C2185 0.929 . S
H2176 C2180 0.922 1_556 S
H2177 C2186 0.929 . S
C2178 H2172 0.930 . S
C2178 C2179 1.367 . S
C2178 C2186 1.378 . S
C2179 C2178 1.367 . S
C2179 C2187 1.433 . S
C2180 H2176 0.922 1_554 S
C2180 C2182 1.378 . S
C2180 C2184 1.350 1_554 S
C2181 C2184 1.463 . S
C2181 C2186 1.350 . S
C2181 N2189 1.427 . S
C2182 H2173 0.930 . S
C2182 C2180 1.378 . S
C2182 C2183 1.367 . S
C2183 C2182 1.367 . S
C2183 C2185 1.433 . S
C2184 C2180 1.350 1_556 S
C2184 C2181 1.463 . S
C2184 N2188 1.438 . S
C2185 H2175 0.929 . S
C2185 C2183 1.433 . S
C2185 N2188 1.353 1_554 S
C2186 H2177 0.929 . S
C2186 C2178 1.378 . S
C2186 C2181 1.350 . S
C2187 H2174 0.929 . S
C2187 C2179 1.433 . S
C2187 N2189 1.384 . S
N2188 C2184 1.438 . S
N2188 C2185 1.353 1_556 S
N2189 C2181 1.427 . S
N2189 C2187 1.384 . S
H2190 C2196 0.930 . S
H2191 C2200 0.930 . S
H2192 C2205 0.929 . S
H2193 C2203 0.929 . S
H2194 C2198 0.929 . S
H2195 C2204 0.929 . S
C2196 H2190 0.930 . S
C2196 C2197 1.367 . S
C2196 C2204 1.378 . S
C2197 C2196 1.367 . S
C2197 C2205 1.433 . S
C2198 H2194 0.929 . S
C2198 C2200 1.378 . S
C2198 C2202 1.350 . S
C2199 C2202 1.463 . S
C2199 C2204 1.350 . S
C2199 N2207 1.427 . S
C2200 H2191 0.930 . S
C2200 C2198 1.378 . S
C2200 C2201 1.367 . S
C2201 C2200 1.367 . S
C2201 C2203 1.433 . S
C2202 C2198 1.350 . S
C2202 C2199 1.463 . S
C2202 N2206 1.427 . S
C2203 H2193 0.929 . S
C2203 C2201 1.433 . S
C2203 N2206 1.384 . S
C2204 H2195 0.929 . S
C2204 C2196 1.378 . S
C2204 C2199 1.350 . S
C2205 H2192 0.929 . S
C2205 C2197 1.433 . S
C2205 N2207 1.384 . S
N2206 C2202 1.427 . S
N2206 C2203 1.384 . S
N2207 C2199 1.427 . S
N2207 C2205 1.384 . S
H2208 C2214 0.930 . S
H2209 C2218 0.930 . S
H2210 C2223 0.929 . S
H2211 C2221 0.929 . S
H2212 C2216 0.929 1_455 S
H2213 C2222 0.929 . S
C2214 H2208 0.930 . S
C2214 C2215 1.367 . S
C2214 C2222 1.378 . S
C2215 C2214 1.367 . S
C2215 C2223 1.433 . S
C2216 H2212 0.929 1_655 S
C2216 C2218 1.376 . S
C2216 C2220 1.351 1_655 S
C2217 C2220 1.463 . S
C2217 C2222 1.350 . S
C2217 N2225 1.427 . S
C2218 H2209 0.930 . S
C2218 C2216 1.376 . S
C2218 C2219 1.367 . S
C2219 C2218 1.367 . S
C2219 C2221 1.433 . S
C2220 C2216 1.351 1_455 S
C2220 C2217 1.463 . S
C2220 N2224 1.427 . S
C2221 H2211 0.929 . S
C2221 C2219 1.433 . S
C2221 N2224 1.384 1_655 S
C2222 H2213 0.929 . S
C2222 C2214 1.378 . S
C2222 C2217 1.350 . S
C2223 H2210 0.929 . S
C2223 C2215 1.433 . S
C2223 N2225 1.384 . S
N2224 C2220 1.427 . S
N2224 C2221 1.384 1_455 S
N2225 C2217 1.427 . S
N2225 C2223 1.384 . S
H2226 C2232 0.930 . S
H2227 C2236 0.930 . S
H2228 C2241 0.929 . S
H2229 C2239 0.929 . S
H2230 C2234 0.929 . S
H2231 C2240 0.929 . S
C2232 H2226 0.930 . S
C2232 C2233 1.367 . S
C2232 C2240 1.378 . S
C2233 C2232 1.367 . S
C2233 C2241 1.433 . S
C2234 H2230 0.929 . S
C2234 C2236 1.378 . S
C2234 C2238 1.350 . S
C2235 C2238 1.463 . S
C2235 C2240 1.350 . S
C2235 N2243 1.427 . S
C2236 H2227 0.930 . S
C2236 C2234 1.378 . S
C2236 C2237 1.367 . S
C2237 C2236 1.367 . S
C2237 C2239 1.433 . S
C2238 C2234 1.350 . S
C2238 C2235 1.463 . S
C2238 N2242 1.427 . S
C2239 H2229 0.929 . S
C2239 C2237 1.433 . S
C2239 N2242 1.384 . S
C2240 H2231 0.929 . S
C2240 C2232 1.378 . S
C2240 C2235 1.350 . S
C2241 H2228 0.929 . S
C2241 C2233 1.433 . S
C2241 N2243 1.384 . S
N2242 C2238 1.427 . S
N2242 C2239 1.384 . S
N2243 C2235 1.427 . S
N2243 C2241 1.384 . S
H2244 C2250 0.930 . S
H2245 C2254 0.930 . S
H2246 C2259 0.929 . S
H2247 C2257 0.929 . S
H2248 C2252 0.929 . S
H2249 C2258 0.929 . S
C2250 H2244 0.930 . S
C2250 C2251 1.367 . S
C2250 C2258 1.378 . S
C2251 C2250 1.367 . S
C2251 C2259 1.433 . S
C2252 H2248 0.929 . S
C2252 C2254 1.378 . S
C2252 C2256 1.350 . S
C2253 C2256 1.463 . S
C2253 C2258 1.350 . S
C2253 N2261 1.427 . S
C2254 H2245 0.930 . S
C2254 C2252 1.378 . S
C2254 C2255 1.367 . S
C2255 C2254 1.367 . S
C2255 C2257 1.433 . S
C2256 C2252 1.350 . S
C2256 C2253 1.463 . S
C2256 N2260 1.427 . S
C2257 H2247 0.929 . S
C2257 C2255 1.433 . S
C2257 N2260 1.384 . S
C2258 H2249 0.929 . S
C2258 C2250 1.378 . S
C2258 C2253 1.350 . S
C2259 H2246 0.929 . S
C2259 C2251 1.433 . S
C2259 N2261 1.384 . S
N2260 C2256 1.427 . S
N2260 C2257 1.384 . S
N2261 C2253 1.427 . S
N2261 C2259 1.384 . S
H2262 C2268 0.930 . S
H2263 C2272 0.930 . S
H2264 C2277 0.929 . S
H2265 C2275 0.929 . S
H2266 C2270 0.929 . S
H2267 C2276 0.929 . S
C2268 H2262 0.930 . S
C2268 C2269 1.367 . S
C2268 C2276 1.378 . S
C2269 C2268 1.367 . S
C2269 C2277 1.433 . S
C2270 H2266 0.929 . S
C2270 C2272 1.378 . S
C2270 C2274 1.350 . S
C2271 C2274 1.463 . S
C2271 C2276 1.350 . S
C2271 N2279 1.427 . S
C2272 H2263 0.930 . S
C2272 C2270 1.378 . S
C2272 C2273 1.367 . S
C2273 C2272 1.367 . S
C2273 C2275 1.433 . S
C2274 C2270 1.350 . S
C2274 C2271 1.463 . S
C2274 N2278 1.427 . S
C2275 H2265 0.929 . S
C2275 C2273 1.433 . S
C2275 N2278 1.384 . S
C2276 H2267 0.929 . S
C2276 C2268 1.378 . S
C2276 C2271 1.350 . S
C2277 H2264 0.929 . S
C2277 C2269 1.433 . S
C2277 N2279 1.384 . S
N2278 C2274 1.427 . S
N2278 C2275 1.384 . S
N2279 C2271 1.427 . S
N2279 C2277 1.384 . S
H2280 C2286 0.930 1_655 S
H2281 C2290 0.930 . S
H2282 C2295 0.929 . S
H2283 C2293 0.929 . S
H2284 C2288 0.929 . S
H2285 C2294 0.929 . S
C2286 H2280 0.930 1_455 S
C2286 C2287 1.367 1_455 S
C2286 C2294 1.378 . S
C2287 C2286 1.367 1_655 S
C2287 C2295 1.433 . S
C2288 H2284 0.929 . S
C2288 C2290 1.378 . S
C2288 C2292 1.350 . S
C2289 C2292 1.463 . S
C2289 C2294 1.350 . S
C2289 N2297 1.427 . S
C2290 H2281 0.930 . S
C2290 C2288 1.378 . S
C2290 C2291 1.367 . S
C2291 C2290 1.367 . S
C2291 C2293 1.433 . S
C2292 C2288 1.350 . S
C2292 C2289 1.463 . S
C2292 N2296 1.427 . S
C2293 H2283 0.929 . S
C2293 C2291 1.433 . S
C2293 N2296 1.384 . S
C2294 H2285 0.929 . S
C2294 C2286 1.378 . S
C2294 C2289 1.350 . S
C2295 H2282 0.929 . S
C2295 C2287 1.433 . S
C2295 N2297 1.384 1_655 S
N2296 C2292 1.427 . S
N2296 C2293 1.384 . S
N2297 C2289 1.427 . S
N2297 C2295 1.384 1_455 S
H2298 C2304 0.930 . S
H2299 C2308 0.930 . S
H2300 C2313 0.929 . S
H2301 C2311 0.929 . S
H2302 C2306 0.929 . S
H2303 C2312 0.929 . S
C2304 H2298 0.930 . S
C2304 C2305 1.367 . S
C2304 C2312 1.378 . S
C2305 C2304 1.367 . S
C2305 C2313 1.433 . S
C2306 H2302 0.929 . S
C2306 C2308 1.378 . S
C2306 C2310 1.350 . S
C2307 C2310 1.463 . S
C2307 C2312 1.350 . S
C2307 N2315 1.427 . S
C2308 H2299 0.930 . S
C2308 C2306 1.378 . S
C2308 C2309 1.367 . S
C2309 C2308 1.367 . S
C2309 C2311 1.433 . S
C2310 C2306 1.350 . S
C2310 C2307 1.463 . S
C2310 N2314 1.427 . S
C2311 H2301 0.929 . S
C2311 C2309 1.433 . S
C2311 N2314 1.384 . S
C2312 H2303 0.929 . S
C2312 C2304 1.378 . S
C2312 C2307 1.350 . S
C2313 H2300 0.929 . S
C2313 C2305 1.433 . S
C2313 N2315 1.384 . S
N2314 C2310 1.427 . S
N2314 C2311 1.384 . S
N2315 C2307 1.427 . S
N2315 C2313 1.384 . S
H2316 C2322 0.930 . S
H2317 C2326 0.930 . S
H2318 C2331 0.929 . S
H2319 C2329 0.929 . S
H2320 C2324 0.929 . S
H2321 C2330 0.929 . S
C2322 H2316 0.930 . S
C2322 C2323 1.367 . S
C2322 C2330 1.378 . S
C2323 C2322 1.367 . S
C2323 C2331 1.433 . S
C2324 H2320 0.929 . S
C2324 C2326 1.378 . S
C2324 C2328 1.350 . S
C2325 C2328 1.463 . S
C2325 C2330 1.350 . S
C2325 N2333 1.427 . S
C2326 H2317 0.930 . S
C2326 C2324 1.378 . S
C2326 C2327 1.367 . S
C2327 C2326 1.367 . S
C2327 C2329 1.433 . S
C2328 C2324 1.350 . S
C2328 C2325 1.463 . S
C2328 N2332 1.427 . S
C2329 H2319 0.929 . S
C2329 C2327 1.433 . S
C2329 N2332 1.384 . S
C2330 H2321 0.929 . S
C2330 C2322 1.378 . S
C2330 C2325 1.350 . S
C2331 H2318 0.929 . S
C2331 C2323 1.433 . S
C2331 N2333 1.384 . S
N2332 C2328 1.427 . S
N2332 C2329 1.384 . S
N2333 C2325 1.427 . S
N2333 C2331 1.384 . S
H2334 C2340 0.930 . S
H2335 C2344 0.930 . S
H2336 C2349 0.929 . S
H2337 C2347 0.929 . S
H2338 C2342 0.929 . S
H2339 C2348 0.929 . S
C2340 H2334 0.930 . S
C2340 C2341 1.367 . S
C2340 C2348 1.378 . S
C2341 C2340 1.367 . S
C2341 C2349 1.433 . S
C2342 H2338 0.929 . S
C2342 C2344 1.378 . S
C2342 C2346 1.350 . S
C2343 C2346 1.463 . S
C2343 C2348 1.350 . S
C2343 N2351 1.427 . S
C2344 H2335 0.930 . S
C2344 C2342 1.378 . S
C2344 C2345 1.367 . S
C2345 C2344 1.367 . S
C2345 C2347 1.433 . S
C2346 C2342 1.350 . S
C2346 C2343 1.463 . S
C2346 N2350 1.427 . S
C2347 H2337 0.929 . S
C2347 C2345 1.433 . S
C2347 N2350 1.384 . S
C2348 H2339 0.929 . S
C2348 C2340 1.378 . S
C2348 C2343 1.350 . S
C2349 H2336 0.929 . S
C2349 C2341 1.433 . S
C2349 N2351 1.384 . S
N2350 C2346 1.427 . S
N2350 C2347 1.384 . S
N2351 C2343 1.427 . S
N2351 C2349 1.384 . S
H2352 C2358 0.930 . S
H2353 C2362 0.930 . S
H2354 C2367 0.929 . S
H2355 C2365 0.929 . S
H2356 C2360 0.929 1_545 S
H2357 C2366 0.929 . S
C2358 H2352 0.930 . S
C2358 C2359 1.367 . S
C2358 C2366 1.378 . S
C2359 C2358 1.367 . S
C2359 C2367 1.433 . S
C2360 H2356 0.929 1_565 S
C2360 C2362 1.378 . S
C2360 C2364 1.350 1_565 S
C2361 C2364 1.463 . S
C2361 C2366 1.350 . S
C2361 N2369 1.427 . S
C2362 H2353 0.930 . S
C2362 C2360 1.378 . S
C2362 C2363 1.367 . S
C2363 C2362 1.367 . S
C2363 C2365 1.433 . S
C2364 C2360 1.350 1_545 S
C2364 C2361 1.463 . S
C2364 N2368 1.422 1_545 S
C2365 H2355 0.929 . S
C2365 C2363 1.433 . S
C2365 N2368 1.398 . S
C2366 H2357 0.929 . S
C2366 C2358 1.378 . S
C2366 C2361 1.350 . S
C2367 H2354 0.929 . S
C2367 C2359 1.433 . S
C2367 N2369 1.384 . S
N2368 C2364 1.422 1_565 S
N2368 C2365 1.398 . S
N2369 C2361 1.427 . S
N2369 C2367 1.384 . S
H2370 C2376 0.930 . S
H2371 C2380 0.930 . S
H2372 C2385 0.929 . S
H2373 C2383 0.929 . S
H2374 C2378 0.929 . S
H2375 C2384 0.929 . S
C2376 H2370 0.930 . S
C2376 C2377 1.367 . S
C2376 C2384 1.378 . S
C2377 C2376 1.367 . S
C2377 C2385 1.433 . S
C2378 H2374 0.929 . S
C2378 C2380 1.378 . S
C2378 C2382 1.350 . S
C2379 C2382 1.463 . S
C2379 C2384 1.350 . S
C2379 N2387 1.427 . S
C2380 H2371 0.930 . S
C2380 C2378 1.378 . S
C2380 C2381 1.367 . S
C2381 C2380 1.367 . S
C2381 C2383 1.433 . S
C2382 C2378 1.350 . S
C2382 C2379 1.463 . S
C2382 N2386 1.427 . S
C2383 H2373 0.929 . S
C2383 C2381 1.433 . S
C2383 N2386 1.384 . S
C2384 H2375 0.929 . S
C2384 C2376 1.378 . S
C2384 C2379 1.350 . S
C2385 H2372 0.929 . S
C2385 C2377 1.433 . S
C2385 N2387 1.384 . S
N2386 C2382 1.427 . S
N2386 C2383 1.384 . S
N2387 C2379 1.427 . S
N2387 C2385 1.384 . S
H2388 C2394 0.930 . S
H2389 C2398 0.930 . S
H2390 C2403 0.929 . S
H2391 C2401 0.929 . S
H2392 C2396 0.929 . S
H2393 C2402 0.929 . S
C2394 H2388 0.930 . S
C2394 C2395 1.367 . S
C2394 C2402 1.378 . S
C2395 C2394 1.367 . S
C2395 C2403 1.433 . S
C2396 H2392 0.929 . S
C2396 C2398 1.378 . S
C2396 C2400 1.350 . S
C2397 C2400 1.463 . S
C2397 C2402 1.350 . S
C2397 N2405 1.427 . S
C2398 H2389 0.930 . S
C2398 C2396 1.378 . S
C2398 C2399 1.367 . S
C2399 C2398 1.367 . S
C2399 C2401 1.433 . S
C2400 C2396 1.350 . S
C2400 C2397 1.463 . S
C2400 N2404 1.427 . S
C2401 H2391 0.929 . S
C2401 C2399 1.433 . S
C2401 N2404 1.384 . S
C2402 H2393 0.929 . S
C2402 C2394 1.378 . S
C2402 C2397 1.350 . S
C2403 H2390 0.929 . S
C2403 C2395 1.433 . S
C2403 N2405 1.384 . S
N2404 C2400 1.427 . S
N2404 C2401 1.384 . S
N2405 C2397 1.427 . S
N2405 C2403 1.384 . S
H2406 C2412 0.930 . S
H2407 C2416 0.930 . S
H2408 C2421 0.929 . S
H2409 C2419 0.929 . S
H2410 C2414 0.929 . S
H2411 C2420 0.929 . S
C2412 H2406 0.930 . S
C2412 C2413 1.367 . S
C2412 C2420 1.378 . S
C2413 C2412 1.367 . S
C2413 C2421 1.433 . S
C2414 H2410 0.929 . S
C2414 C2416 1.378 . S
C2414 C2418 1.350 . S
C2415 C2418 1.463 . S
C2415 C2420 1.350 . S
C2415 N2423 1.427 . S
C2416 H2407 0.930 . S
C2416 C2414 1.378 . S
C2416 C2417 1.367 . S
C2417 C2416 1.367 . S
C2417 C2419 1.433 . S
C2418 C2414 1.350 . S
C2418 C2415 1.463 . S
C2418 N2422 1.427 . S
C2419 H2409 0.929 . S
C2419 C2417 1.433 . S
C2419 N2422 1.384 . S
C2420 H2411 0.929 . S
C2420 C2412 1.378 . S
C2420 C2415 1.350 . S
C2421 H2408 0.929 . S
C2421 C2413 1.433 . S
C2421 N2423 1.384 . S
N2422 C2418 1.427 . S
N2422 C2419 1.384 . S
N2423 C2415 1.427 . S
N2423 C2421 1.384 . S
H2424 C2430 0.930 . S
H2425 C2434 0.930 . S
H2426 C2439 0.929 . S
H2427 C2437 0.929 . S
H2428 C2432 0.929 . S
H2429 C2438 0.929 . S
C2430 H2424 0.930 . S
C2430 C2431 1.367 . S
C2430 C2438 1.378 . S
C2431 C2430 1.367 . S
C2431 C2439 1.433 . S
C2432 H2428 0.929 . S
C2432 C2434 1.378 . S
C2432 C2436 1.350 . S
C2433 C2436 1.463 . S
C2433 C2438 1.350 . S
C2433 N2441 1.427 . S
C2434 H2425 0.930 . S
C2434 C2432 1.378 . S
C2434 C2435 1.367 . S
C2435 C2434 1.367 . S
C2435 C2437 1.433 . S
C2436 C2432 1.350 . S
C2436 C2433 1.463 . S
C2436 N2440 1.427 . S
C2437 H2427 0.929 . S
C2437 C2435 1.433 . S
C2437 N2440 1.384 . S
C2438 H2429 0.929 . S
C2438 C2430 1.378 . S
C2438 C2433 1.350 . S
C2439 H2426 0.929 . S
C2439 C2431 1.433 . S
C2439 N2441 1.384 . S
N2440 C2436 1.427 . S
N2440 C2437 1.384 . S
N2441 C2433 1.427 . S
N2441 C2439 1.384 . S
H2442 C2448 0.930 . S
H2443 C2452 0.930 . S
H2444 C2457 0.929 . S
H2445 C2455 0.929 . S
H2446 C2450 0.929 . S
H2447 C2456 0.929 . S
C2448 H2442 0.930 . S
C2448 C2449 1.367 . S
C2448 C2456 1.378 . S
C2449 C2448 1.367 . S
C2449 C2457 1.433 . S
C2450 H2446 0.929 . S
C2450 C2452 1.378 1_565 S
C2450 C2454 1.350 . S
C2451 C2454 1.463 . S
C2451 C2456 1.350 . S
C2451 N2459 1.427 . S
C2452 H2443 0.930 . S
C2452 C2450 1.378 1_545 S
C2452 C2453 1.367 . S
C2453 C2452 1.367 . S
C2453 C2455 1.433 . S
C2454 C2450 1.350 . S
C2454 C2451 1.463 . S
C2454 N2458 1.427 1_565 S
C2455 H2445 0.929 . S
C2455 C2453 1.433 . S
C2455 N2458 1.384 . S
C2456 H2447 0.929 . S
C2456 C2448 1.378 . S
C2456 C2451 1.350 . S
C2457 H2444 0.929 . S
C2457 C2449 1.433 . S
C2457 N2459 1.384 . S
N2458 C2454 1.427 1_545 S
N2458 C2455 1.384 . S
N2459 C2451 1.427 . S
N2459 C2457 1.384 . S
H2460 C2466 0.930 . S
H2461 C2470 0.930 . S
H2462 C2475 0.929 . S
H2463 C2473 0.929 . S
H2464 C2468 0.929 . S
H2465 C2474 0.929 . S
C2466 H2460 0.930 . S
C2466 C2467 1.367 . S
C2466 C2474 1.378 . S
C2467 C2466 1.367 . S
C2467 C2475 1.433 . S
C2468 H2464 0.929 . S
C2468 C2470 1.378 . S
C2468 C2472 1.350 . S
C2469 C2472 1.463 . S
C2469 C2474 1.350 . S
C2469 N2477 1.427 . S
C2470 H2461 0.930 . S
C2470 C2468 1.378 . S
C2470 C2471 1.367 . S
C2471 C2470 1.367 . S
C2471 C2473 1.433 . S
C2472 C2468 1.350 . S
C2472 C2469 1.463 . S
C2472 N2476 1.427 . S
C2473 H2463 0.929 . S
C2473 C2471 1.433 . S
C2473 N2476 1.384 . S
C2474 H2465 0.929 . S
C2474 C2466 1.378 . S
C2474 C2469 1.350 . S
C2475 H2462 0.929 . S
C2475 C2467 1.433 . S
C2475 N2477 1.384 . S
N2476 C2472 1.427 . S
N2476 C2473 1.384 . S
N2477 C2469 1.427 . S
N2477 C2475 1.384 . S
H2478 C2484 0.930 . S
H2479 C2488 0.930 . S
H2480 C2493 0.929 . S
H2481 C2491 0.929 . S
H2482 C2486 0.929 . S
H2483 C2492 0.929 . S
C2484 H2478 0.930 . S
C2484 C2485 1.367 . S
C2484 C2492 1.378 . S
C2485 C2484 1.367 . S
C2485 C2493 1.433 . S
C2486 H2482 0.929 . S
C2486 C2488 1.378 . S
C2486 C2490 1.350 . S
C2487 C2490 1.463 . S
C2487 C2492 1.350 . S
C2487 N2495 1.427 . S
C2488 H2479 0.930 . S
C2488 C2486 1.378 . S
C2488 C2489 1.367 . S
C2489 C2488 1.367 . S
C2489 C2491 1.433 . S
C2490 C2486 1.350 . S
C2490 C2487 1.463 . S
C2490 N2494 1.427 . S
C2491 H2481 0.929 . S
C2491 C2489 1.433 . S
C2491 N2494 1.384 . S
C2492 H2483 0.929 . S
C2492 C2484 1.378 . S
C2492 C2487 1.350 . S
C2493 H2480 0.929 . S
C2493 C2485 1.433 . S
C2493 N2495 1.384 . S
N2494 C2490 1.427 . S
N2494 C2491 1.384 . S
N2495 C2487 1.427 . S
N2495 C2493 1.384 . S
H2496 C2502 0.930 . S
H2497 C2506 0.930 . S
H2498 C2511 0.929 . S
H2499 C2509 0.929 . S
H2500 C2504 0.929 . S
H2501 C2510 0.929 . S
C2502 H2496 0.930 . S
C2502 C2503 1.367 . S
C2502 C2510 1.378 . S
C2503 C2502 1.367 . S
C2503 C2511 1.433 . S
C2504 H2500 0.929 . S
C2504 C2506 1.378 . S
C2504 C2508 1.350 . S
C2505 C2508 1.463 . S
C2505 C2510 1.350 . S
C2505 N2513 1.427 . S
C2506 H2497 0.930 . S
C2506 C2504 1.378 . S
C2506 C2507 1.367 . S
C2507 C2506 1.367 . S
C2507 C2509 1.433 . S
C2508 C2504 1.350 . S
C2508 C2505 1.463 . S
C2508 N2512 1.427 . S
C2509 H2499 0.929 . S
C2509 C2507 1.433 . S
C2509 N2512 1.384 . S
C2510 H2501 0.929 . S
C2510 C2502 1.378 . S
C2510 C2505 1.350 . S
C2511 H2498 0.929 . S
C2511 C2503 1.433 . S
C2511 N2513 1.384 . S
N2512 C2508 1.427 . S
N2512 C2509 1.384 . S
N2513 C2505 1.427 . S
N2513 C2511 1.384 . S
H2514 C2520 0.930 . S
H2515 C2524 0.930 . S
H2516 C2529 0.929 . S
H2517 C2527 0.929 . S
H2518 C2522 0.929 . S
H2519 C2528 0.929 . S
C2520 H2514 0.930 . S
C2520 C2521 1.367 . S
C2520 C2528 1.378 . S
C2521 C2520 1.367 . S
C2521 C2529 1.433 . S
C2522 H2518 0.929 . S
C2522 C2524 1.378 . S
C2522 C2526 1.350 . S
C2523 C2526 1.463 . S
C2523 C2528 1.350 . S
C2523 N2531 1.427 . S
C2524 H2515 0.930 . S
C2524 C2522 1.378 . S
C2524 C2525 1.367 . S
C2525 C2524 1.367 . S
C2525 C2527 1.433 . S
C2526 C2522 1.350 . S
C2526 C2523 1.463 . S
C2526 N2530 1.427 . S
C2527 H2517 0.929 . S
C2527 C2525 1.433 . S
C2527 N2530 1.384 . S
C2528 H2519 0.929 . S
C2528 C2520 1.378 . S
C2528 C2523 1.350 . S
C2529 H2516 0.929 . S
C2529 C2521 1.433 . S
C2529 N2531 1.384 . S
N2530 C2526 1.427 . S
N2530 C2527 1.384 . S
N2531 C2523 1.427 . S
N2531 C2529 1.384 . S
H2532 C2538 0.930 . S
H2533 C2542 0.930 . S
H2534 C2547 0.929 . S
H2535 C2545 0.929 . S
H2536 C2540 0.929 . S
H2537 C2546 0.929 . S
C2538 H2532 0.930 . S
C2538 C2539 1.367 . S
C2538 C2546 1.378 1_554 S
C2539 C2538 1.367 . S
C2539 C2547 1.433 . S
C2540 H2536 0.929 . S
C2540 C2542 1.378 . S
C2540 C2544 1.350 . S
C2541 C2544 1.463 . S
C2541 C2546 1.350 . S
C2541 N2549 1.427 . S
C2542 H2533 0.930 . S
C2542 C2540 1.378 . S
C2542 C2543 1.367 . S
C2543 C2542 1.367 . S
C2543 C2545 1.433 . S
C2544 C2540 1.350 . S
C2544 C2541 1.463 . S
C2544 N2548 1.427 . S
C2545 H2535 0.929 . S
C2545 C2543 1.433 . S
C2545 N2548 1.384 . S
C2546 H2537 0.929 . S
C2546 C2538 1.378 1_556 S
C2546 C2541 1.350 . S
C2547 H2534 0.929 . S
C2547 C2539 1.433 . S
C2547 N2549 1.384 1_554 S
N2548 C2544 1.427 . S
N2548 C2545 1.384 . S
N2549 C2541 1.427 . S
N2549 C2547 1.384 1_556 S
H2550 C2556 0.930 . S
H2551 C2560 0.930 . S
H2552 C2565 0.929 . S
H2553 C2563 0.929 . S
H2554 C2558 0.929 . S
H2555 C2564 0.929 . S
C2556 H2550 0.930 . S
C2556 C2557 1.367 . S
C2556 C2564 1.378 . S
C2557 C2556 1.367 . S
C2557 C2565 1.433 . S
C2558 H2554 0.929 . S
C2558 C2560 1.378 . S
C2558 C2562 1.350 . S
C2559 C2562 1.463 . S
C2559 C2564 1.350 . S
C2559 N2567 1.427 . S
C2560 H2551 0.930 . S
C2560 C2558 1.378 . S
C2560 C2561 1.367 . S
C2561 C2560 1.367 . S
C2561 C2563 1.433 . S
C2562 C2558 1.350 . S
C2562 C2559 1.463 . S
C2562 N2566 1.427 . S
C2563 H2553 0.929 . S
C2563 C2561 1.433 . S
C2563 N2566 1.384 . S
C2564 H2555 0.929 . S
C2564 C2556 1.378 . S
C2564 C2559 1.350 . S
C2565 H2552 0.929 . S
C2565 C2557 1.433 . S
C2565 N2567 1.384 . S
N2566 C2562 1.427 . S
N2566 C2563 1.384 . S
N2567 C2559 1.427 . S
N2567 C2565 1.384 . S
H2568 C2574 0.930 . S
H2569 C2578 0.930 . S
H2570 C2583 0.929 . S
H2571 C2581 0.929 . S
H2572 C2576 0.929 . S
H2573 C2582 0.929 . S
C2574 H2568 0.930 . S
C2574 C2575 1.367 . S
C2574 C2582 1.378 1_556 S
C2575 C2574 1.367 . S
C2575 C2583 1.433 . S
C2576 H2572 0.929 . S
C2576 C2578 1.378 . S
C2576 C2580 1.350 . S
C2577 C2580 1.463 . S
C2577 C2582 1.350 . S
C2577 N2585 1.427 1_554 S
C2578 H2569 0.930 . S
C2578 C2576 1.378 . S
C2578 C2579 1.367 . S
C2579 C2578 1.367 . S
C2579 C2581 1.433 . S
C2580 C2576 1.350 . S
C2580 C2577 1.463 . S
C2580 N2584 1.427 . S
C2581 H2571 0.929 . S
C2581 C2579 1.433 . S
C2581 N2584 1.384 . S
C2582 H2573 0.929 . S
C2582 C2574 1.378 1_554 S
C2582 C2577 1.350 . S
C2583 H2570 0.929 . S
C2583 C2575 1.433 . S
C2583 N2585 1.384 . S
N2584 C2580 1.427 . S
N2584 C2581 1.384 . S
N2585 C2577 1.427 1_556 S
N2585 C2583 1.384 . S
H2586 C2592 0.930 . S
H2587 C2596 0.930 . S
H2588 C2601 0.929 . S
H2589 C2599 0.929 . S
H2590 C2594 0.929 . S
H2591 C2600 0.929 . S
C2592 H2586 0.930 . S
C2592 C2593 1.367 . S
C2592 C2600 1.378 . S
C2593 C2592 1.367 . S
C2593 C2601 1.433 . S
C2594 H2590 0.929 . S
C2594 C2596 1.378 . S
C2594 C2598 1.350 . S
C2595 C2598 1.463 . S
C2595 C2600 1.350 . S
C2595 N2603 1.427 . S
C2596 H2587 0.930 . S
C2596 C2594 1.378 . S
C2596 C2597 1.367 . S
C2597 C2596 1.367 . S
C2597 C2599 1.433 . S
C2598 C2594 1.350 . S
C2598 C2595 1.463 . S
C2598 N2602 1.427 . S
C2599 H2589 0.929 . S
C2599 C2597 1.433 . S
C2599 N2602 1.384 . S
C2600 H2591 0.929 . S
C2600 C2592 1.378 . S
C2600 C2595 1.350 . S
C2601 H2588 0.929 . S
C2601 C2593 1.433 . S
C2601 N2603 1.384 . S
N2602 C2598 1.427 . S
N2602 C2599 1.384 . S
N2603 C2595 1.427 . S
N2603 C2601 1.384 . S
H2604 C2610 0.930 . S
H2605 C2614 0.930 . S
H2606 C2619 0.929 . S
H2607 C2617 0.929 . S
H2608 C2612 0.929 . S
H2609 C2618 0.929 . S
C2610 H2604 0.930 . S
C2610 C2611 1.367 . S
C2610 C2618 1.378 . S
C2611 C2610 1.367 . S
C2611 C2619 1.433 . S
C2612 H2608 0.929 . S
C2612 C2614 1.378 . S
C2612 C2616 1.350 . S
C2613 C2616 1.463 . S
C2613 C2618 1.350 . S
C2613 N2621 1.427 . S
C2614 H2605 0.930 . S
C2614 C2612 1.378 . S
C2614 C2615 1.367 . S
C2615 C2614 1.367 . S
C2615 C2617 1.433 . S
C2616 C2612 1.350 . S
C2616 C2613 1.463 . S
C2616 N2620 1.427 . S
C2617 H2607 0.929 . S
C2617 C2615 1.433 . S
C2617 N2620 1.384 . S
C2618 H2609 0.929 . S
C2618 C2610 1.378 . S
C2618 C2613 1.350 . S
C2619 H2606 0.929 . S
C2619 C2611 1.433 . S
C2619 N2621 1.384 . S
N2620 C2616 1.427 . S
N2620 C2617 1.384 . S
N2621 C2613 1.427 . S
N2621 C2619 1.384 . S
H2622 C2628 0.930 . S
H2623 C2632 0.930 . S
H2624 C2637 0.929 . S
H2625 C2635 0.929 . S
H2626 C2630 0.929 . S
H2627 C2636 0.929 . S
C2628 H2622 0.930 . S
C2628 C2629 1.367 . S
C2628 C2636 1.378 . S
C2629 C2628 1.367 . S
C2629 C2637 1.433 . S
C2630 H2626 0.929 . S
C2630 C2632 1.378 . S
C2630 C2634 1.350 . S
C2631 C2634 1.463 . S
C2631 C2636 1.350 . S
C2631 N2639 1.427 . S
C2632 H2623 0.930 . S
C2632 C2630 1.378 . S
C2632 C2633 1.367 . S
C2633 C2632 1.367 . S
C2633 C2635 1.433 . S
C2634 C2630 1.350 . S
C2634 C2631 1.463 . S
C2634 N2638 1.427 . S
C2635 H2625 0.929 . S
C2635 C2633 1.433 . S
C2635 N2638 1.384 . S
C2636 H2627 0.929 . S
C2636 C2628 1.378 . S
C2636 C2631 1.350 . S
C2637 H2624 0.929 . S
C2637 C2629 1.433 . S
C2637 N2639 1.384 . S
N2638 C2634 1.427 . S
N2638 C2635 1.384 . S
N2639 C2631 1.427 . S
N2639 C2637 1.384 . S
H2640 C2646 0.930 . S
H2641 C2650 0.930 . S
H2642 C2655 0.929 . S
H2643 C2653 0.929 . S
H2644 C2648 0.929 . S
H2645 C2654 0.929 . S
C2646 H2640 0.930 . S
C2646 C2647 1.367 . S
C2646 C2654 1.378 . S
C2647 C2646 1.367 . S
C2647 C2655 1.433 . S
C2648 H2644 0.929 . S
C2648 C2650 1.378 . S
C2648 C2652 1.350 . S
C2649 C2652 1.463 . S
C2649 C2654 1.350 . S
C2649 N2657 1.427 . S
C2650 H2641 0.930 . S
C2650 C2648 1.378 . S
C2650 C2651 1.367 . S
C2651 C2650 1.367 . S
C2651 C2653 1.433 . S
C2652 C2648 1.350 . S
C2652 C2649 1.463 . S
C2652 N2656 1.427 . S
C2653 H2643 0.929 . S
C2653 C2651 1.433 . S
C2653 N2656 1.384 . S
C2654 H2645 0.929 . S
C2654 C2646 1.378 . S
C2654 C2649 1.350 . S
C2655 H2642 0.929 . S
C2655 C2647 1.433 . S
C2655 N2657 1.384 . S
N2656 C2652 1.427 . S
N2656 C2653 1.384 . S
N2657 C2649 1.427 . S
N2657 C2655 1.384 . S
H2658 C2664 0.930 . S
H2659 C2668 0.930 . S
H2660 C2673 0.929 . S
H2661 C2671 0.929 . S
H2662 C2666 0.929 . S
H2663 C2672 0.929 . S
C2664 H2658 0.930 . S
C2664 C2665 1.367 . S
C2664 C2672 1.378 . S
C2665 C2664 1.367 . S
C2665 C2673 1.433 . S
C2666 H2662 0.929 . S
C2666 C2668 1.378 . S
C2666 C2670 1.350 . S
C2667 C2670 1.463 . S
C2667 C2672 1.350 . S
C2667 N2675 1.427 . S
C2668 H2659 0.930 . S
C2668 C2666 1.378 . S
C2668 C2669 1.367 . S
C2669 C2668 1.367 . S
C2669 C2671 1.433 . S
C2670 C2666 1.350 . S
C2670 C2667 1.463 . S
C2670 N2674 1.427 . S
C2671 H2661 0.929 . S
C2671 C2669 1.433 . S
C2671 N2674 1.384 . S
C2672 H2663 0.929 . S
C2672 C2664 1.378 . S
C2672 C2667 1.350 . S
C2673 H2660 0.929 . S
C2673 C2665 1.433 . S
C2673 N2675 1.384 . S
N2674 C2670 1.427 . S
N2674 C2671 1.384 . S
N2675 C2667 1.427 . S
N2675 C2673 1.384 . S
H2676 C2682 0.930 . S
H2677 C2686 0.930 . S
H2678 C2691 0.929 . S
H2679 C2689 0.929 . S
H2680 C2684 0.929 . S
H2681 C2690 0.929 1_455 S
C2682 H2676 0.930 . S
C2682 C2683 1.367 . S
C2682 C2690 1.378 . S
C2683 C2682 1.367 . S
C2683 C2691 1.433 . S
C2684 H2680 0.929 . S
C2684 C2686 1.378 . S
C2684 C2688 1.350 . S
C2685 C2688 1.455 1_655 S
C2685 C2690 1.352 . S
C2685 N2693 1.433 . S
C2686 H2677 0.930 . S
C2686 C2684 1.378 . S
C2686 C2687 1.367 . S
C2687 C2686 1.367 . S
C2687 C2689 1.433 . S
C2688 C2684 1.350 . S
C2688 C2685 1.455 1_455 S
C2688 N2692 1.427 . S
C2689 H2679 0.929 . S
C2689 C2687 1.433 . S
C2689 N2692 1.384 . S
C2690 H2681 0.929 1_655 S
C2690 C2682 1.378 . S
C2690 C2685 1.352 . S
C2691 H2678 0.929 . S
C2691 C2683 1.433 . S
C2691 N2693 1.384 . S
N2692 C2688 1.427 . S
N2692 C2689 1.384 . S
N2693 C2685 1.433 . S
N2693 C2691 1.384 . S
H2694 C2700 0.930 . S
H2695 C2704 0.930 . S
H2696 C2709 0.929 . S
H2697 C2707 0.929 . S
H2698 C2702 0.929 . S
H2699 C2708 0.929 . S
C2700 H2694 0.930 . S
C2700 C2701 1.367 . S
C2700 C2708 1.378 . S
C2701 C2700 1.367 . S
C2701 C2709 1.433 . S
C2702 H2698 0.929 . S
C2702 C2704 1.378 . S
C2702 C2706 1.350 . S
C2703 C2706 1.463 . S
C2703 C2708 1.350 . S
C2703 N2711 1.427 . S
C2704 H2695 0.930 . S
C2704 C2702 1.378 . S
C2704 C2705 1.367 . S
C2705 C2704 1.367 . S
C2705 C2707 1.433 . S
C2706 C2702 1.350 . S
C2706 C2703 1.463 . S
C2706 N2710 1.427 . S
C2707 H2697 0.929 . S
C2707 C2705 1.433 . S
C2707 N2710 1.384 . S
C2708 H2699 0.929 . S
C2708 C2700 1.378 . S
C2708 C2703 1.350 . S
C2709 H2696 0.929 . S
C2709 C2701 1.433 . S
C2709 N2711 1.384 . S
N2710 C2706 1.427 . S
N2710 C2707 1.384 . S
N2711 C2703 1.427 . S
N2711 C2709 1.384 . S
H2712 C2718 0.930 . S
H2713 C2722 0.930 . S
H2714 C2727 0.929 . S
H2715 C2725 0.929 . S
H2716 C2720 0.929 . S
H2717 C2726 0.929 . S
C2718 H2712 0.930 . S
C2718 C2719 1.367 . S
C2718 C2726 1.378 . S
C2719 C2718 1.367 . S
C2719 C2727 1.433 . S
C2720 H2716 0.929 . S
C2720 C2722 1.378 . S
C2720 C2724 1.350 . S
C2721 C2724 1.463 . S
C2721 C2726 1.350 . S
C2721 N2729 1.427 . S
C2722 H2713 0.930 . S
C2722 C2720 1.378 . S
C2722 C2723 1.367 . S
C2723 C2722 1.367 . S
C2723 C2725 1.433 . S
C2724 C2720 1.350 . S
C2724 C2721 1.463 . S
C2724 N2728 1.427 . S
C2725 H2715 0.929 . S
C2725 C2723 1.433 . S
C2725 N2728 1.384 . S
C2726 H2717 0.929 . S
C2726 C2718 1.378 . S
C2726 C2721 1.350 . S
C2727 H2714 0.929 . S
C2727 C2719 1.433 . S
C2727 N2729 1.384 . S
N2728 C2724 1.427 . S
N2728 C2725 1.384 . S
N2729 C2721 1.427 . S
N2729 C2727 1.384 . S
H2730 C2736 0.930 . S
H2731 C2740 0.930 . S
H2732 C2745 0.929 . S
H2733 C2743 0.929 . S
H2734 C2738 0.929 . S
H2735 C2744 0.929 . S
C2736 H2730 0.930 . S
C2736 C2737 1.367 . S
C2736 C2744 1.378 . S
C2737 C2736 1.367 . S
C2737 C2745 1.433 . S
C2738 H2734 0.929 . S
C2738 C2740 1.378 . S
C2738 C2742 1.350 . S
C2739 C2742 1.463 . S
C2739 C2744 1.350 . S
C2739 N2747 1.427 . S
C2740 H2731 0.930 . S
C2740 C2738 1.378 . S
C2740 C2741 1.367 . S
C2741 C2740 1.367 . S
C2741 C2743 1.433 . S
C2742 C2738 1.350 . S
C2742 C2739 1.463 . S
C2742 N2746 1.427 . S
C2743 H2733 0.929 . S
C2743 C2741 1.433 . S
C2743 N2746 1.384 . S
C2744 H2735 0.929 . S
C2744 C2736 1.378 . S
C2744 C2739 1.350 . S
C2745 H2732 0.929 . S
C2745 C2737 1.433 . S
C2745 N2747 1.384 . S
N2746 C2742 1.427 . S
N2746 C2743 1.384 . S
N2747 C2739 1.427 . S
N2747 C2745 1.384 . S
H2748 C2754 0.930 . S
H2749 C2758 0.930 . S
H2750 C2763 0.929 . S
H2751 C2761 0.929 . S
H2752 C2756 0.929 1_455 S
H2753 C2762 0.929 . S
C2754 H2748 0.930 . S
C2754 C2755 1.367 . S
C2754 C2762 1.378 . S
C2755 C2754 1.367 . S
C2755 C2763 1.433 . S
C2756 H2752 0.929 1_655 S
C2756 C2758 1.378 . S
C2756 C2760 1.350 1_655 S
C2757 C2760 1.463 . S
C2757 C2762 1.350 . S
C2757 N2765 1.427 . S
C2758 H2749 0.930 . S
C2758 C2756 1.378 . S
C2758 C2759 1.367 . S
C2759 C2758 1.367 . S
C2759 C2761 1.433 . S
C2760 C2756 1.350 1_455 S
C2760 C2757 1.463 . S
C2760 N2764 1.427 1_455 S
C2761 H2751 0.929 . S
C2761 C2759 1.433 . S
C2761 N2764 1.384 . S
C2762 H2753 0.929 . S
C2762 C2754 1.378 . S
C2762 C2757 1.350 . S
C2763 H2750 0.929 . S
C2763 C2755 1.433 . S
C2763 N2765 1.384 . S
N2764 C2760 1.427 1_655 S
N2764 C2761 1.384 . S
N2765 C2757 1.427 . S
N2765 C2763 1.384 . S
H2766 C2772 0.930 . S
H2767 C2776 0.930 . S
H2768 C2781 0.929 . S
H2769 C2779 0.929 . S
H2770 C2774 0.929 . S
H2771 C2780 0.929 . S
C2772 H2766 0.930 . S
C2772 C2773 1.367 . S
C2772 C2780 1.378 . S
C2773 C2772 1.367 . S
C2773 C2781 1.433 . S
C2774 H2770 0.929 . S
C2774 C2776 1.378 . S
C2774 C2778 1.350 . S
C2775 C2778 1.463 . S
C2775 C2780 1.350 . S
C2775 N2783 1.427 . S
C2776 H2767 0.930 . S
C2776 C2774 1.378 . S
C2776 C2777 1.367 . S
C2777 C2776 1.367 . S
C2777 C2779 1.433 . S
C2778 C2774 1.350 . S
C2778 C2775 1.463 . S
C2778 N2782 1.427 . S
C2779 H2769 0.929 . S
C2779 C2777 1.433 . S
C2779 N2782 1.384 . S
C2780 H2771 0.929 . S
C2780 C2772 1.378 . S
C2780 C2775 1.350 . S
C2781 H2768 0.929 . S
C2781 C2773 1.433 . S
C2781 N2783 1.384 . S
N2782 C2778 1.427 . S
N2782 C2779 1.384 . S
N2783 C2775 1.427 . S
N2783 C2781 1.384 . S
H2784 C2790 0.930 . S
H2785 C2794 0.930 . S
H2786 C2799 0.929 . S
H2787 C2797 0.929 . S
H2788 C2792 0.929 . S
H2789 C2798 0.929 . S
C2790 H2784 0.930 . S
C2790 C2791 1.367 . S
C2790 C2798 1.378 . S
C2791 C2790 1.367 . S
C2791 C2799 1.433 . S
C2792 H2788 0.929 . S
C2792 C2794 1.378 . S
C2792 C2796 1.350 . S
C2793 C2796 1.463 . S
C2793 C2798 1.350 . S
C2793 N2801 1.427 . S
C2794 H2785 0.930 . S
C2794 C2792 1.378 . S
C2794 C2795 1.367 . S
C2795 C2794 1.367 . S
C2795 C2797 1.433 . S
C2796 C2792 1.350 . S
C2796 C2793 1.463 . S
C2796 N2800 1.427 . S
C2797 H2787 0.929 . S
C2797 C2795 1.433 . S
C2797 N2800 1.384 . S
C2798 H2789 0.929 . S
C2798 C2790 1.378 . S
C2798 C2793 1.350 . S
C2799 H2786 0.929 . S
C2799 C2791 1.433 . S
C2799 N2801 1.384 . S
N2800 C2796 1.427 . S
N2800 C2797 1.384 . S
N2801 C2793 1.427 . S
N2801 C2799 1.384 . S
H2802 C2808 0.930 . S
H2803 C2812 0.930 . S
H2804 C2817 0.929 . S
H2805 C2815 0.929 . S
H2806 C2810 0.929 . S
H2807 C2816 0.929 . S
C2808 H2802 0.930 . S
C2808 C2809 1.367 . S
C2808 C2816 1.378 1_565 S
C2809 C2808 1.367 . S
C2809 C2817 1.433 . S
C2810 H2806 0.929 . S
C2810 C2812 1.378 . S
C2810 C2814 1.350 . S
C2811 C2814 1.463 . S
C2811 C2816 1.350 . S
C2811 N2819 1.427 . S
C2812 H2803 0.930 . S
C2812 C2810 1.378 . S
C2812 C2813 1.367 . S
C2813 C2812 1.367 . S
C2813 C2815 1.433 . S
C2814 C2810 1.350 . S
C2814 C2811 1.463 . S
C2814 N2818 1.427 . S
C2815 H2805 0.929 . S
C2815 C2813 1.433 . S
C2815 N2818 1.384 . S
C2816 H2807 0.929 . S
C2816 C2808 1.378 1_545 S
C2816 C2811 1.350 . S
C2817 H2804 0.929 . S
C2817 C2809 1.433 . S
C2817 N2819 1.384 1_565 S
N2818 C2814 1.427 . S
N2818 C2815 1.384 . S
N2819 C2811 1.427 . S
N2819 C2817 1.384 1_545 S
H2820 C2826 0.930 . S
H2821 C2830 0.930 . S
H2822 C2835 0.929 . S
H2823 C2833 0.929 . S
H2824 C2828 0.929 . S
H2825 C2834 0.929 . S
C2826 H2820 0.930 . S
C2826 C2827 1.367 . S
C2826 C2834 1.378 . S
C2827 C2826 1.367 . S
C2827 C2835 1.433 . S
C2828 H2824 0.929 . S
C2828 C2830 1.378 . S
C2828 C2832 1.350 . S
C2829 C2832 1.463 . S
C2829 C2834 1.350 . S
C2829 N2837 1.427 . S
C2830 H2821 0.930 . S
C2830 C2828 1.378 . S
C2830 C2831 1.367 . S
C2831 C2830 1.367 . S
C2831 C2833 1.433 . S
C2832 C2828 1.350 . S
C2832 C2829 1.463 . S
C2832 N2836 1.427 . S
C2833 H2823 0.929 . S
C2833 C2831 1.433 . S
C2833 N2836 1.384 . S
C2834 H2825 0.929 . S
C2834 C2826 1.378 . S
C2834 C2829 1.350 . S
C2835 H2822 0.929 . S
C2835 C2827 1.433 . S
C2835 N2837 1.384 . S
N2836 C2832 1.427 . S
N2836 C2833 1.384 . S
N2837 C2829 1.427 . S
N2837 C2835 1.384 . S
H2838 C2844 0.930 . S
H2839 C2848 0.930 . S
H2840 C2853 0.929 . S
H2841 C2851 0.929 . S
H2842 C2846 0.929 . S
H2843 C2852 0.929 . S
C2844 H2838 0.930 . S
C2844 C2845 1.367 . S
C2844 C2852 1.378 . S
C2845 C2844 1.367 . S
C2845 C2853 1.433 . S
C2846 H2842 0.929 . S
C2846 C2848 1.378 1_565 S
C2846 C2850 1.350 . S
C2847 C2850 1.463 . S
C2847 C2852 1.350 . S
C2847 N2855 1.427 . S
C2848 H2839 0.930 . S
C2848 C2846 1.378 1_545 S
C2848 C2849 1.367 . S
C2849 C2848 1.367 . S
C2849 C2851 1.433 . S
C2850 C2846 1.350 . S
C2850 C2847 1.463 . S
C2850 N2854 1.427 . S
C2851 H2841 0.929 . S
C2851 C2849 1.433 . S
C2851 N2854 1.384 1_545 S
C2852 H2843 0.929 . S
C2852 C2844 1.378 . S
C2852 C2847 1.350 . S
C2853 H2840 0.929 . S
C2853 C2845 1.433 . S
C2853 N2855 1.384 . S
N2854 C2850 1.427 . S
N2854 C2851 1.384 1_565 S
N2855 C2847 1.427 . S
N2855 C2853 1.384 . S
H2856 C2862 0.930 . S
H2857 C2866 0.930 . S
H2858 C2871 0.929 . S
H2859 C2869 0.929 . S
H2860 C2864 0.929 . S
H2861 C2870 0.929 . S
C2862 H2856 0.930 . S
C2862 C2863 1.367 . S
C2862 C2870 1.378 . S
C2863 C2862 1.367 . S
C2863 C2871 1.433 . S
C2864 H2860 0.929 . S
C2864 C2866 1.378 . S
C2864 C2868 1.350 . S
C2865 C2868 1.463 . S
C2865 C2870 1.350 . S
C2865 N2873 1.427 . S
C2866 H2857 0.930 . S
C2866 C2864 1.378 . S
C2866 C2867 1.367 . S
C2867 C2866 1.367 . S
C2867 C2869 1.433 . S
C2868 C2864 1.350 . S
C2868 C2865 1.463 . S
C2868 N2872 1.427 . S
C2869 H2859 0.929 . S
C2869 C2867 1.433 . S
C2869 N2872 1.384 . S
C2870 H2861 0.929 . S
C2870 C2862 1.378 . S
C2870 C2865 1.350 . S
C2871 H2858 0.929 . S
C2871 C2863 1.433 . S
C2871 N2873 1.384 . S
N2872 C2868 1.427 . S
N2872 C2869 1.384 . S
N2873 C2865 1.427 . S
N2873 C2871 1.384 . S
H2874 C2880 0.930 . S
H2875 C2884 0.930 . S
H2876 C2889 0.929 . S
H2877 C2887 0.929 . S
H2878 C2882 0.929 . S
H2879 C2888 0.929 . S
C2880 H2874 0.930 . S
C2880 C2881 1.367 . S
C2880 C2888 1.378 . S
C2881 C2880 1.367 . S
C2881 C2889 1.433 . S
C2882 H2878 0.929 . S
C2882 C2884 1.378 . S
C2882 C2886 1.350 . S
C2883 C2886 1.463 . S
C2883 C2888 1.350 . S
C2883 N2891 1.427 . S
C2884 H2875 0.930 . S
C2884 C2882 1.378 . S
C2884 C2885 1.367 . S
C2885 C2884 1.367 . S
C2885 C2887 1.433 . S
C2886 C2882 1.350 . S
C2886 C2883 1.463 . S
C2886 N2890 1.427 . S
C2887 H2877 0.929 . S
C2887 C2885 1.433 . S
C2887 N2890 1.384 . S
C2888 H2879 0.929 . S
C2888 C2880 1.378 . S
C2888 C2883 1.350 . S
C2889 H2876 0.929 . S
C2889 C2881 1.433 . S
C2889 N2891 1.384 . S
N2890 C2886 1.427 . S
N2890 C2887 1.384 . S
N2891 C2883 1.427 . S
N2891 C2889 1.384 . S
H2892 C2898 0.930 . S
H2893 C2902 0.930 . S
H2894 C2907 0.929 . S
H2895 C2905 0.929 . S
H2896 C2900 0.929 . S
H2897 C2906 0.929 . S
C2898 H2892 0.930 . S
C2898 C2899 1.367 . S
C2898 C2906 1.378 . S
C2899 C2898 1.367 . S
C2899 C2907 1.433 . S
C2900 H2896 0.929 . S
C2900 C2902 1.378 . S
C2900 C2904 1.350 . S
C2901 C2904 1.463 . S
C2901 C2906 1.350 . S
C2901 N2909 1.427 . S
C2902 H2893 0.930 . S
C2902 C2900 1.378 . S
C2902 C2903 1.367 . S
C2903 C2902 1.367 . S
C2903 C2905 1.433 . S
C2904 C2900 1.350 . S
C2904 C2901 1.463 . S
C2904 N2908 1.427 . S
C2905 H2895 0.929 . S
C2905 C2903 1.433 . S
C2905 N2908 1.384 . S
C2906 H2897 0.929 . S
C2906 C2898 1.378 . S
C2906 C2901 1.350 . S
C2907 H2894 0.929 . S
C2907 C2899 1.433 . S
C2907 N2909 1.384 . S
N2908 C2904 1.427 . S
N2908 C2905 1.384 . S
N2909 C2901 1.427 . S
N2909 C2907 1.384 . S
H2910 C2916 0.930 . S
H2911 C2920 0.930 . S
H2912 C2925 0.929 . S
H2913 C2923 0.929 . S
H2914 C2918 0.929 . S
H2915 C2924 0.929 . S
C2916 H2910 0.930 . S
C2916 C2917 1.367 . S
C2916 C2924 1.378 . S
C2917 C2916 1.367 . S
C2917 C2925 1.433 . S
C2918 H2914 0.929 . S
C2918 C2920 1.378 . S
C2918 C2922 1.350 . S
C2919 C2922 1.463 . S
C2919 C2924 1.350 . S
C2919 N2927 1.427 . S
C2920 H2911 0.930 . S
C2920 C2918 1.378 . S
C2920 C2921 1.367 . S
C2921 C2920 1.367 . S
C2921 C2923 1.433 . S
C2922 C2918 1.350 . S
C2922 C2919 1.463 . S
C2922 N2926 1.427 . S
C2923 H2913 0.929 . S
C2923 C2921 1.433 . S
C2923 N2926 1.384 . S
C2924 H2915 0.929 . S
C2924 C2916 1.378 . S
C2924 C2919 1.350 . S
C2925 H2912 0.929 . S
C2925 C2917 1.433 . S
C2925 N2927 1.384 . S
N2926 C2922 1.427 . S
N2926 C2923 1.384 . S
N2927 C2919 1.427 . S
N2927 C2925 1.384 . S
H2928 C2934 0.930 . S
H2929 C2938 0.930 . S
H2930 C2943 0.929 . S
H2931 C2941 0.929 . S
H2932 C2936 0.929 . S
H2933 C2942 0.929 . S
C2934 H2928 0.930 . S
C2934 C2935 1.367 . S
C2934 C2942 1.378 . S
C2935 C2934 1.367 . S
C2935 C2943 1.433 . S
C2936 H2932 0.929 . S
C2936 C2938 1.378 . S
C2936 C2940 1.350 . S
C2937 C2940 1.463 . S
C2937 C2942 1.350 . S
C2937 N2945 1.427 . S
C2938 H2929 0.930 . S
C2938 C2936 1.378 . S
C2938 C2939 1.367 . S
C2939 C2938 1.367 . S
C2939 C2941 1.433 . S
C2940 C2936 1.350 . S
C2940 C2937 1.463 . S
C2940 N2944 1.427 . S
C2941 H2931 0.929 . S
C2941 C2939 1.433 . S
C2941 N2944 1.384 . S
C2942 H2933 0.929 . S
C2942 C2934 1.378 . S
C2942 C2937 1.350 . S
C2943 H2930 0.929 . S
C2943 C2935 1.433 . S
C2943 N2945 1.384 . S
N2944 C2940 1.427 . S
N2944 C2941 1.384 . S
N2945 C2937 1.427 . S
N2945 C2943 1.384 . S
H2946 C2952 0.930 . S
H2947 C2956 0.930 . S
H2948 C2961 0.929 . S
H2949 C2959 0.929 . S
H2950 C2954 0.929 . S
H2951 C2960 0.929 . S
C2952 H2946 0.930 . S
C2952 C2953 1.367 . S
C2952 C2960 1.378 . S
C2953 C2952 1.367 . S
C2953 C2961 1.433 . S
C2954 H2950 0.929 . S
C2954 C2956 1.378 . S
C2954 C2958 1.350 . S
C2955 C2958 1.463 . S
C2955 C2960 1.350 . S
C2955 N2963 1.427 . S
C2956 H2947 0.930 . S
C2956 C2954 1.378 . S
C2956 C2957 1.367 . S
C2957 C2956 1.367 . S
C2957 C2959 1.433 . S
C2958 C2954 1.350 . S
C2958 C2955 1.463 . S
C2958 N2962 1.427 . S
C2959 H2949 0.929 . S
C2959 C2957 1.433 . S
C2959 N2962 1.384 . S
C2960 H2951 0.929 . S
C2960 C2952 1.378 . S
C2960 C2955 1.350 . S
C2961 H2948 0.929 . S
C2961 C2953 1.433 . S
C2961 N2963 1.384 . S
N2962 C2958 1.427 . S
N2962 C2959 1.384 . S
N2963 C2955 1.427 . S
N2963 C2961 1.384 . S
H2964 C2970 0.930 . S
H2965 C2974 0.947 . S
H2966 C2979 0.929 . S
H2967 C2977 0.929 . S
H2968 C2972 0.929 . S
H2969 C2978 0.929 . S
C2970 H2964 0.930 . S
C2970 C2971 1.367 . S
C2970 C2978 1.378 . S
C2971 C2970 1.367 . S
C2971 C2979 1.433 . S
C2972 H2968 0.929 . S
C2972 C2974 1.327 1_554 S
C2972 C2976 1.350 . S
C2973 C2976 1.463 . S
C2973 C2978 1.350 . S
C2973 N2981 1.427 . S
C2974 H2965 0.947 . S
C2974 C2972 1.327 1_556 S
C2974 C2975 1.402 . S
C2975 C2974 1.402 . S
C2975 C2977 1.433 . S
C2976 C2972 1.350 . S
C2976 C2973 1.463 . S
C2976 N2980 1.427 . S
C2977 H2967 0.929 . S
C2977 C2975 1.433 . S
C2977 N2980 1.384 1_556 S
C2978 H2969 0.929 . S
C2978 C2970 1.378 . S
C2978 C2973 1.350 . S
C2979 H2966 0.929 . S
C2979 C2971 1.433 . S
C2979 N2981 1.384 . S
N2980 C2976 1.427 . S
N2980 C2977 1.384 1_554 S
N2981 C2973 1.427 . S
N2981 C2979 1.384 . S
H2982 C2988 0.930 . S
H2983 C2992 0.930 . S
H2984 C2997 0.929 . S
H2985 C2995 0.929 . S
H2986 C2990 0.929 . S
H2987 C2996 0.929 . S
C2988 H2982 0.930 . S
C2988 C2989 1.367 . S
C2988 C2996 1.378 . S
C2989 C2988 1.367 . S
C2989 C2997 1.433 . S
C2990 H2986 0.929 . S
C2990 C2992 1.378 . S
C2990 C2994 1.350 . S
C2991 C2994 1.463 . S
C2991 C2996 1.350 . S
C2991 N2999 1.427 . S
C2992 H2983 0.930 . S
C2992 C2990 1.378 . S
C2992 C2993 1.367 . S
C2993 C2992 1.367 . S
C2993 C2995 1.433 . S
C2994 C2990 1.350 . S
C2994 C2991 1.463 . S
C2994 N2998 1.427 . S
C2995 H2985 0.929 . S
C2995 C2993 1.433 . S
C2995 N2998 1.384 . S
C2996 H2987 0.929 . S
C2996 C2988 1.378 . S
C2996 C2991 1.350 . S
C2997 H2984 0.929 . S
C2997 C2989 1.433 . S
C2997 N2999 1.384 . S
N2998 C2994 1.427 . S
N2998 C2995 1.384 . S
N2999 C2991 1.427 . S
N2999 C2997 1.384 . S
H3000 C3006 0.930 . S
H3001 C3010 0.935 . S
H3002 C3015 0.929 . S
H3003 C3013 0.929 . S
H3004 C3008 0.929 . S
H3005 C3014 0.929 . S
C3006 H3000 0.930 . S
C3006 C3007 1.367 . S
C3006 C3014 1.378 . S
C3007 C3006 1.367 . S
C3007 C3015 1.433 . S
C3008 H3004 0.929 . S
C3008 C3010 1.356 1_556 S
C3008 C3012 1.350 . S
C3009 C3012 1.463 . S
C3009 C3014 1.350 . S
C3009 N3017 1.427 . S
C3010 H3001 0.935 . S
C3010 C3008 1.356 1_554 S
C3010 C3011 1.384 . S
C3011 C3010 1.384 . S
C3011 C3013 1.433 . S
C3012 C3008 1.350 . S
C3012 C3009 1.463 . S
C3012 N3016 1.427 . S
C3013 H3003 0.929 . S
C3013 C3011 1.433 . S
C3013 N3016 1.384 1_554 S
C3014 H3005 0.929 . S
C3014 C3006 1.378 . S
C3014 C3009 1.350 . S
C3015 H3002 0.929 . S
C3015 C3007 1.433 . S
C3015 N3017 1.384 . S
N3016 C3012 1.427 . S
N3016 C3013 1.384 1_556 S
N3017 C3009 1.427 . S
N3017 C3015 1.384 . S
H3018 C3024 0.930 . S
H3019 C3028 0.930 . S
H3020 C3033 0.929 . S
H3021 C3031 0.929 . S
H3022 C3026 0.929 . S
H3023 C3032 0.929 . S
C3024 H3018 0.930 . S
C3024 C3025 1.367 . S
C3024 C3032 1.378 . S
C3025 C3024 1.367 . S
C3025 C3033 1.433 . S
C3026 H3022 0.929 . S
C3026 C3028 1.378 . S
C3026 C3030 1.350 . S
C3027 C3030 1.463 . S
C3027 C3032 1.350 . S
C3027 N3035 1.427 . S
C3028 H3019 0.930 . S
C3028 C3026 1.378 . S
C3028 C3029 1.367 . S
C3029 C3028 1.367 . S
C3029 C3031 1.433 . S
C3030 C3026 1.350 . S
C3030 C3027 1.463 . S
C3030 N3034 1.427 . S
C3031 H3021 0.929 . S
C3031 C3029 1.433 . S
C3031 N3034 1.384 . S
C3032 H3023 0.929 . S
C3032 C3024 1.378 . S
C3032 C3027 1.350 . S
C3033 H3020 0.929 . S
C3033 C3025 1.433 . S
C3033 N3035 1.384 . S
N3034 C3030 1.427 . S
N3034 C3031 1.384 . S
N3035 C3027 1.427 . S
N3035 C3033 1.384 . S
H3036 C3042 0.930 . S
H3037 C3046 0.930 . S
H3038 C3051 0.929 . S
H3039 C3049 0.929 . S
H3040 C3044 0.929 . S
H3041 C3050 0.929 . S
C3042 H3036 0.930 . S
C3042 C3043 1.367 . S
C3042 C3050 1.378 . S
C3043 C3042 1.367 . S
C3043 C3051 1.433 . S
C3044 H3040 0.929 . S
C3044 C3046 1.378 . S
C3044 C3048 1.350 . S
C3045 C3048 1.463 . S
C3045 C3050 1.350 . S
C3045 N3053 1.427 . S
C3046 H3037 0.930 . S
C3046 C3044 1.378 . S
C3046 C3047 1.367 . S
C3047 C3046 1.367 . S
C3047 C3049 1.433 . S
C3048 C3044 1.350 . S
C3048 C3045 1.463 . S
C3048 N3052 1.427 . S
C3049 H3039 0.929 . S
C3049 C3047 1.433 . S
C3049 N3052 1.384 . S
C3050 H3041 0.929 . S
C3050 C3042 1.378 . S
C3050 C3045 1.350 . S
C3051 H3038 0.929 . S
C3051 C3043 1.433 . S
C3051 N3053 1.384 . S
N3052 C3048 1.427 . S
N3052 C3049 1.384 . S
N3053 C3045 1.427 . S
N3053 C3051 1.384 . S
H3054 C3060 0.930 . S
H3055 C3064 0.930 . S
H3056 C3069 0.929 . S
H3057 C3067 0.929 . S
H3058 C3062 0.929 . S
H3059 C3068 0.929 . S
C3060 H3054 0.930 . S
C3060 C3061 1.367 . S
C3060 C3068 1.378 . S
C3061 C3060 1.367 . S
C3061 C3069 1.433 . S
C3062 H3058 0.929 . S
C3062 C3064 1.378 . S
C3062 C3066 1.350 . S
C3063 C3066 1.463 . S
C3063 C3068 1.350 . S
C3063 N3071 1.427 . S
C3064 H3055 0.930 . S
C3064 C3062 1.378 . S
C3064 C3065 1.367 . S
C3065 C3064 1.367 . S
C3065 C3067 1.433 . S
C3066 C3062 1.350 . S
C3066 C3063 1.463 . S
C3066 N3070 1.427 . S
C3067 H3057 0.929 . S
C3067 C3065 1.433 . S
C3067 N3070 1.384 . S
C3068 H3059 0.929 . S
C3068 C3060 1.378 . S
C3068 C3063 1.350 . S
C3069 H3056 0.929 . S
C3069 C3061 1.433 . S
C3069 N3071 1.384 . S
N3070 C3066 1.427 . S
N3070 C3067 1.384 . S
N3071 C3063 1.427 . S
N3071 C3069 1.384 . S
H3072 C3078 0.930 . S
H3073 C3082 0.930 . S
H3074 C3087 0.929 . S
H3075 C3085 0.929 . S
H3076 C3080 0.929 . S
H3077 C3086 0.929 . S
C3078 H3072 0.930 . S
C3078 C3079 1.367 . S
C3078 C3086 1.378 . S
C3079 C3078 1.367 . S
C3079 C3087 1.433 . S
C3080 H3076 0.929 . S
C3080 C3082 1.378 . S
C3080 C3084 1.350 . S
C3081 C3084 1.463 . S
C3081 C3086 1.350 . S
C3081 N3089 1.427 . S
C3082 H3073 0.930 . S
C3082 C3080 1.378 . S
C3082 C3083 1.367 . S
C3083 C3082 1.367 . S
C3083 C3085 1.433 . S
C3084 C3080 1.350 . S
C3084 C3081 1.463 . S
C3084 N3088 1.427 . S
C3085 H3075 0.929 . S
C3085 C3083 1.433 . S
C3085 N3088 1.384 . S
C3086 H3077 0.929 . S
C3086 C3078 1.378 . S
C3086 C3081 1.350 . S
C3087 H3074 0.929 . S
C3087 C3079 1.433 . S
C3087 N3089 1.384 . S
N3088 C3084 1.427 . S
N3088 C3085 1.384 . S
N3089 C3081 1.427 . S
N3089 C3087 1.384 . S
H3090 C3096 0.930 . S
H3091 C3100 0.930 . S
H3092 C3105 0.929 . S
H3093 C3103 0.929 . S
H3094 C3098 0.929 . S
H3095 C3104 0.929 . S
C3096 H3090 0.930 . S
C3096 C3097 1.367 . S
C3096 C3104 1.378 . S
C3097 C3096 1.367 . S
C3097 C3105 1.433 . S
C3098 H3094 0.929 . S
C3098 C3100 1.378 . S
C3098 C3102 1.350 . S
C3099 C3102 1.463 . S
C3099 C3104 1.350 . S
C3099 N3107 1.427 . S
C3100 H3091 0.930 . S
C3100 C3098 1.378 . S
C3100 C3101 1.367 . S
C3101 C3100 1.367 . S
C3101 C3103 1.433 . S
C3102 C3098 1.350 . S
C3102 C3099 1.463 . S
C3102 N3106 1.427 . S
C3103 H3093 0.929 . S
C3103 C3101 1.433 . S
C3103 N3106 1.384 . S
C3104 H3095 0.929 . S
C3104 C3096 1.378 . S
C3104 C3099 1.350 . S
C3105 H3092 0.929 . S
C3105 C3097 1.433 . S
C3105 N3107 1.384 . S
N3106 C3102 1.427 . S
N3106 C3103 1.384 . S
N3107 C3099 1.427 . S
N3107 C3105 1.384 . S
H3108 C3114 0.930 . S
H3109 C3118 0.930 . S
H3110 C3123 0.929 . S
H3111 C3121 0.929 . S
H3112 C3116 0.929 . S
H3113 C3122 0.929 . S
C3114 H3108 0.930 . S
C3114 C3115 1.367 . S
C3114 C3122 1.378 . S
C3115 C3114 1.367 . S
C3115 C3123 1.433 . S
C3116 H3112 0.929 . S
C3116 C3118 1.378 . S
C3116 C3120 1.350 . S
C3117 C3120 1.463 1_655 S
C3117 C3122 1.350 . S
C3117 N3125 1.427 . S
C3118 H3109 0.930 . S
C3118 C3116 1.378 . S
C3118 C3119 1.367 . S
C3119 C3118 1.367 . S
C3119 C3121 1.433 . S
C3120 C3116 1.350 . S
C3120 C3117 1.463 1_455 S
C3120 N3124 1.427 . S
C3121 H3111 0.929 . S
C3121 C3119 1.433 . S
C3121 N3124 1.384 . S
C3122 H3113 0.929 . S
C3122 C3114 1.378 . S
C3122 C3117 1.350 . S
C3123 H3110 0.929 . S
C3123 C3115 1.433 . S
C3123 N3125 1.384 . S
N3124 C3120 1.427 . S
N3124 C3121 1.384 . S
N3125 C3117 1.427 . S
N3125 C3123 1.384 . S
H3126 C3132 0.930 . S
H3127 C3136 0.930 . S
H3128 C3141 0.929 . S
H3129 C3139 0.929 . S
H3130 C3134 0.929 . S
H3131 C3140 0.929 . S
C3132 H3126 0.930 . S
C3132 C3133 1.367 . S
C3132 C3140 1.378 . S
C3133 C3132 1.367 . S
C3133 C3141 1.433 . S
C3134 H3130 0.929 . S
C3134 C3136 1.378 . S
C3134 C3138 1.350 . S
C3135 C3138 1.463 . S
C3135 C3140 1.350 . S
C3135 N3143 1.427 . S
C3136 H3127 0.930 . S
C3136 C3134 1.378 . S
C3136 C3137 1.367 . S
C3137 C3136 1.367 . S
C3137 C3139 1.433 . S
C3138 C3134 1.350 . S
C3138 C3135 1.463 . S
C3138 N3142 1.427 . S
C3139 H3129 0.929 . S
C3139 C3137 1.433 . S
C3139 N3142 1.384 . S
C3140 H3131 0.929 . S
C3140 C3132 1.378 . S
C3140 C3135 1.350 . S
C3141 H3128 0.929 . S
C3141 C3133 1.433 . S
C3141 N3143 1.384 . S
N3142 C3138 1.427 . S
N3142 C3139 1.384 . S
N3143 C3135 1.427 . S
N3143 C3141 1.384 . S
H3144 C3150 0.930 . S
H3145 C3154 0.930 . S
H3146 C3159 0.929 . S
H3147 C3157 0.929 . S
H3148 C3152 0.929 . S
H3149 C3158 0.929 . S
C3150 H3144 0.930 . S
C3150 C3151 1.367 . S
C3150 C3158 1.378 . S
C3151 C3150 1.367 . S
C3151 C3159 1.433 . S
C3152 H3148 0.929 . S
C3152 C3154 1.378 . S
C3152 C3156 1.350 . S
C3153 C3156 1.463 . S
C3153 C3158 1.350 . S
C3153 N3161 1.427 . S
C3154 H3145 0.930 . S
C3154 C3152 1.378 . S
C3154 C3155 1.367 . S
C3155 C3154 1.367 . S
C3155 C3157 1.433 . S
C3156 C3152 1.350 . S
C3156 C3153 1.463 . S
C3156 N3160 1.427 . S
C3157 H3147 0.929 . S
C3157 C3155 1.433 . S
C3157 N3160 1.384 . S
C3158 H3149 0.929 . S
C3158 C3150 1.378 . S
C3158 C3153 1.350 . S
C3159 H3146 0.929 . S
C3159 C3151 1.433 . S
C3159 N3161 1.384 . S
N3160 C3156 1.427 . S
N3160 C3157 1.384 . S
N3161 C3153 1.427 . S
N3161 C3159 1.384 . S
H3162 C3168 0.930 . S
H3163 C3172 0.930 . S
H3164 C3177 0.929 . S
H3165 C3175 0.929 . S
H3166 C3170 0.929 . S
H3167 C3176 0.929 . S
C3168 H3162 0.930 . S
C3168 C3169 1.367 . S
C3168 C3176 1.378 . S
C3169 C3168 1.367 . S
C3169 C3177 1.433 . S
C3170 H3166 0.929 . S
C3170 C3172 1.378 . S
C3170 C3174 1.350 . S
C3171 C3174 1.463 . S
C3171 C3176 1.350 . S
C3171 N3179 1.427 . S
C3172 H3163 0.930 . S
C3172 C3170 1.378 . S
C3172 C3173 1.367 . S
C3173 C3172 1.367 . S
C3173 C3175 1.433 . S
C3174 C3170 1.350 . S
C3174 C3171 1.463 . S
C3174 N3178 1.427 . S
C3175 H3165 0.929 . S
C3175 C3173 1.433 . S
C3175 N3178 1.384 . S
C3176 H3167 0.929 . S
C3176 C3168 1.378 . S
C3176 C3171 1.350 . S
C3177 H3164 0.929 . S
C3177 C3169 1.433 . S
C3177 N3179 1.384 . S
N3178 C3174 1.427 . S
N3178 C3175 1.384 . S
N3179 C3171 1.427 . S
N3179 C3177 1.384 . S
H3180 C3186 0.930 . S
H3181 C3190 0.930 . S
H3182 C3195 0.929 . S
H3183 C3193 0.929 . S
H3184 C3188 0.929 . S
H3185 C3194 0.929 . S
C3186 H3180 0.930 . S
C3186 C3187 1.367 . S
C3186 C3194 1.378 1_455 S
C3187 C3186 1.367 . S
C3187 C3195 1.433 . S
C3188 H3184 0.929 . S
C3188 C3190 1.378 . S
C3188 C3192 1.350 . S
C3189 C3192 1.463 . S
C3189 C3194 1.350 . S
C3189 N3197 1.427 . S
C3190 H3181 0.930 . S
C3190 C3188 1.378 . S
C3190 C3191 1.367 . S
C3191 C3190 1.367 . S
C3191 C3193 1.433 . S
C3192 C3188 1.350 . S
C3192 C3189 1.463 . S
C3192 N3196 1.427 . S
C3193 H3183 0.929 . S
C3193 C3191 1.433 . S
C3193 N3196 1.384 . S
C3194 H3185 0.929 . S
C3194 C3186 1.378 1_655 S
C3194 C3189 1.350 . S
C3195 H3182 0.929 . S
C3195 C3187 1.433 . S
C3195 N3197 1.384 1_455 S
N3196 C3192 1.427 . S
N3196 C3193 1.384 . S
N3197 C3189 1.427 . S
N3197 C3195 1.384 1_655 S
H3198 C3204 0.930 . S
H3199 C3208 0.930 . S
H3200 C3213 0.929 . S
H3201 C3211 0.929 . S
H3202 C3206 0.929 . S
H3203 C3212 0.929 . S
C3204 H3198 0.930 . S
C3204 C3205 1.367 . S
C3204 C3212 1.378 . S
C3205 C3204 1.367 . S
C3205 C3213 1.433 . S
C3206 H3202 0.929 . S
C3206 C3208 1.378 . S
C3206 C3210 1.350 . S
C3207 C3210 1.463 . S
C3207 C3212 1.350 . S
C3207 N3215 1.427 . S
C3208 H3199 0.930 . S
C3208 C3206 1.378 . S
C3208 C3209 1.367 . S
C3209 C3208 1.367 . S
C3209 C3211 1.433 . S
C3210 C3206 1.350 . S
C3210 C3207 1.463 . S
C3210 N3214 1.427 . S
C3211 H3201 0.929 . S
C3211 C3209 1.433 . S
C3211 N3214 1.384 . S
C3212 H3203 0.929 . S
C3212 C3204 1.378 . S
C3212 C3207 1.350 . S
C3213 H3200 0.929 . S
C3213 C3205 1.433 . S
C3213 N3215 1.384 . S
N3214 C3210 1.427 . S
N3214 C3211 1.384 . S
N3215 C3207 1.427 . S
N3215 C3213 1.384 . S
H3216 C3222 0.930 . S
H3217 C3226 0.930 . S
H3218 C3231 0.929 . S
H3219 C3229 0.929 . S
H3220 C3224 0.929 . S
H3221 C3230 0.929 . S
C3222 H3216 0.930 . S
C3222 C3223 1.367 . S
C3222 C3230 1.378 . S
C3223 C3222 1.367 . S
C3223 C3231 1.433 . S
C3224 H3220 0.929 . S
C3224 C3226 1.378 . S
C3224 C3228 1.350 . S
C3225 C3228 1.463 . S
C3225 C3230 1.350 . S
C3225 N3233 1.427 . S
C3226 H3217 0.930 . S
C3226 C3224 1.378 . S
C3226 C3227 1.367 . S
C3227 C3226 1.367 . S
C3227 C3229 1.433 . S
C3228 C3224 1.350 . S
C3228 C3225 1.463 . S
C3228 N3232 1.427 . S
C3229 H3219 0.929 . S
C3229 C3227 1.433 . S
C3229 N3232 1.384 . S
C3230 H3221 0.929 . S
C3230 C3222 1.378 . S
C3230 C3225 1.350 . S
C3231 H3218 0.929 . S
C3231 C3223 1.433 . S
C3231 N3233 1.384 . S
N3232 C3228 1.427 . S
N3232 C3229 1.384 . S
N3233 C3225 1.427 . S
N3233 C3231 1.384 . S
H3234 C3240 0.930 . S
H3235 C3244 0.930 . S
H3236 C3249 0.929 . S
H3237 C3247 0.929 . S
H3238 C3242 0.929 . S
H3239 C3248 0.929 . S
C3240 H3234 0.930 . S
C3240 C3241 1.367 . S
C3240 C3248 1.378 . S
C3241 C3240 1.367 . S
C3241 C3249 1.433 . S
C3242 H3238 0.929 . S
C3242 C3244 1.378 1_565 S
C3242 C3246 1.350 . S
C3243 C3246 1.463 . S
C3243 C3248 1.350 . S
C3243 N3251 1.427 . S
C3244 H3235 0.930 . S
C3244 C3242 1.378 1_545 S
C3244 C3245 1.367 . S
C3245 C3244 1.367 . S
C3245 C3247 1.433 . S
C3246 C3242 1.350 . S
C3246 C3243 1.463 . S
C3246 N3250 1.427 . S
C3247 H3237 0.929 . S
C3247 C3245 1.433 . S
C3247 N3250 1.384 1_545 S
C3248 H3239 0.929 . S
C3248 C3240 1.378 . S
C3248 C3243 1.350 . S
C3249 H3236 0.929 . S
C3249 C3241 1.433 . S
C3249 N3251 1.384 . S
N3250 C3246 1.427 . S
N3250 C3247 1.384 1_565 S
N3251 C3243 1.427 . S
N3251 C3249 1.384 . S
H3252 C3258 0.930 . S
H3253 C3262 0.930 . S
H3254 C3267 0.929 . S
H3255 C3265 0.929 . S
H3256 C3260 0.929 . S
H3257 C3266 0.929 . S
C3258 H3252 0.930 . S
C3258 C3259 1.367 . S
C3258 C3266 1.378 . S
C3259 C3258 1.367 . S
C3259 C3267 1.433 . S
C3260 H3256 0.929 . S
C3260 C3262 1.378 . S
C3260 C3264 1.350 . S
C3261 C3264 1.463 . S
C3261 C3266 1.350 . S
C3261 N3269 1.427 . S
C3262 H3253 0.930 . S
C3262 C3260 1.378 . S
C3262 C3263 1.367 . S
C3263 C3262 1.367 . S
C3263 C3265 1.433 . S
C3264 C3260 1.350 . S
C3264 C3261 1.463 . S
C3264 N3268 1.427 . S
C3265 H3255 0.929 . S
C3265 C3263 1.433 . S
C3265 N3268 1.384 . S
C3266 H3257 0.929 . S
C3266 C3258 1.378 . S
C3266 C3261 1.350 . S
C3267 H3254 0.929 . S
C3267 C3259 1.433 . S
C3267 N3269 1.384 . S
N3268 C3264 1.427 . S
N3268 C3265 1.384 . S
N3269 C3261 1.427 . S
N3269 C3267 1.384 . S
H3270 C3276 0.930 . S
H3271 C3280 0.930 . S
H3272 C3285 0.928 1_565 S
H3273 C3283 0.929 . S
H3274 C3278 0.929 . S
H3275 C3284 0.929 . S
C3276 H3270 0.930 . S
C3276 C3277 1.367 . S
C3276 C3284 1.378 1_565 S
C3277 C3276 1.367 . S
C3277 C3285 1.429 1_565 S
C3278 H3274 0.929 . S
C3278 C3280 1.378 . S
C3278 C3282 1.350 . S
C3279 C3282 1.463 . S
C3279 C3284 1.350 . S
C3279 N3287 1.427 . S
C3280 H3271 0.930 . S
C3280 C3278 1.378 . S
C3280 C3281 1.367 . S
C3281 C3280 1.367 . S
C3281 C3283 1.433 . S
C3282 C3278 1.350 . S
C3282 C3279 1.463 . S
C3282 N3286 1.427 . S
C3283 H3273 0.929 . S
C3283 C3281 1.433 . S
C3283 N3286 1.384 . S
C3284 H3275 0.929 . S
C3284 C3276 1.378 1_545 S
C3284 C3279 1.350 . S
C3285 H3272 0.928 1_545 S
C3285 C3277 1.429 1_545 S
C3285 N3287 1.389 . S
N3286 C3282 1.427 . S
N3286 C3283 1.384 . S
N3287 C3279 1.427 . S
N3287 C3285 1.389 . S
H3288 C3294 0.930 . S
H3289 C3298 0.930 . S
H3290 C3303 0.929 . S
H3291 C3301 0.929 . S
H3292 C3296 0.929 . S
H3293 C3302 0.929 . S
C3294 H3288 0.930 . S
C3294 C3295 1.367 . S
C3294 C3302 1.378 . S
C3295 C3294 1.367 . S
C3295 C3303 1.433 . S
C3296 H3292 0.929 . S
C3296 C3298 1.378 . S
C3296 C3300 1.350 . S
C3297 C3300 1.463 . S
C3297 C3302 1.350 . S
C3297 N3305 1.427 . S
C3298 H3289 0.930 . S
C3298 C3296 1.378 . S
C3298 C3299 1.367 . S
C3299 C3298 1.367 . S
C3299 C3301 1.433 . S
C3300 C3296 1.350 . S
C3300 C3297 1.463 . S
C3300 N3304 1.427 . S
C3301 H3291 0.929 . S
C3301 C3299 1.433 . S
C3301 N3304 1.384 . S
C3302 H3293 0.929 . S
C3302 C3294 1.378 . S
C3302 C3297 1.350 . S
C3303 H3290 0.929 . S
C3303 C3295 1.433 . S
C3303 N3305 1.384 . S
N3304 C3300 1.427 . S
N3304 C3301 1.384 . S
N3305 C3297 1.427 . S
N3305 C3303 1.384 . S
H3306 C3312 0.930 . S
H3307 C3316 0.930 . S
H3308 C3321 0.929 . S
H3309 C3319 0.929 . S
H3310 C3314 0.929 . S
H3311 C3320 0.929 . S
C3312 H3306 0.930 . S
C3312 C3313 1.367 . S
C3312 C3320 1.378 . S
C3313 C3312 1.367 . S
C3313 C3321 1.433 . S
C3314 H3310 0.929 . S
C3314 C3316 1.378 . S
C3314 C3318 1.350 . S
C3315 C3318 1.463 . S
C3315 C3320 1.350 . S
C3315 N3323 1.427 . S
C3316 H3307 0.930 . S
C3316 C3314 1.378 . S
C3316 C3317 1.367 . S
C3317 C3316 1.367 . S
C3317 C3319 1.433 . S
C3318 C3314 1.350 . S
C3318 C3315 1.463 . S
C3318 N3322 1.427 . S
C3319 H3309 0.929 . S
C3319 C3317 1.433 . S
C3319 N3322 1.384 . S
C3320 H3311 0.929 . S
C3320 C3312 1.378 . S
C3320 C3315 1.350 . S
C3321 H3308 0.929 . S
C3321 C3313 1.433 . S
C3321 N3323 1.384 . S
N3322 C3318 1.427 . S
N3322 C3319 1.384 . S
N3323 C3315 1.427 . S
N3323 C3321 1.384 . S
H3324 C3330 0.930 . S
H3325 C3334 0.930 . S
H3326 C3339 0.929 . S
H3327 C3337 0.929 . S
H3328 C3332 0.929 . S
H3329 C3338 0.929 . S
C3330 H3324 0.930 . S
C3330 C3331 1.367 . S
C3330 C3338 1.378 . S
C3331 C3330 1.367 . S
C3331 C3339 1.433 . S
C3332 H3328 0.929 . S
C3332 C3334 1.378 . S
C3332 C3336 1.350 . S
C3333 C3336 1.463 . S
C3333 C3338 1.350 . S
C3333 N3341 1.427 . S
C3334 H3325 0.930 . S
C3334 C3332 1.378 . S
C3334 C3335 1.367 . S
C3335 C3334 1.367 . S
C3335 C3337 1.433 . S
C3336 C3332 1.350 . S
C3336 C3333 1.463 . S
C3336 N3340 1.427 . S
C3337 H3327 0.929 . S
C3337 C3335 1.433 . S
C3337 N3340 1.384 . S
C3338 H3329 0.929 . S
C3338 C3330 1.378 . S
C3338 C3333 1.350 . S
C3339 H3326 0.929 . S
C3339 C3331 1.433 . S
C3339 N3341 1.384 . S
N3340 C3336 1.427 . S
N3340 C3337 1.384 . S
N3341 C3333 1.427 . S
N3341 C3339 1.384 . S
H3342 C3348 0.930 . S
H3343 C3352 0.930 . S
H3344 C3357 0.929 . S
H3345 C3355 0.929 . S
H3346 C3350 0.929 . S
H3347 C3356 0.929 . S
C3348 H3342 0.930 . S
C3348 C3349 1.367 . S
C3348 C3356 1.378 . S
C3349 C3348 1.367 . S
C3349 C3357 1.433 . S
C3350 H3346 0.929 . S
C3350 C3352 1.378 . S
C3350 C3354 1.350 . S
C3351 C3354 1.463 . S
C3351 C3356 1.350 . S
C3351 N3359 1.427 . S
C3352 H3343 0.930 . S
C3352 C3350 1.378 . S
C3352 C3353 1.367 . S
C3353 C3352 1.367 . S
C3353 C3355 1.433 . S
C3354 C3350 1.350 . S
C3354 C3351 1.463 . S
C3354 N3358 1.427 . S
C3355 H3345 0.929 . S
C3355 C3353 1.433 . S
C3355 N3358 1.384 . S
C3356 H3347 0.929 . S
C3356 C3348 1.378 . S
C3356 C3351 1.350 . S
C3357 H3344 0.929 . S
C3357 C3349 1.433 . S
C3357 N3359 1.384 . S
N3358 C3354 1.427 . S
N3358 C3355 1.384 . S
N3359 C3351 1.427 . S
N3359 C3357 1.384 . S
H3360 C3366 0.930 . S
H3361 C3370 0.930 . S
H3362 C3375 0.929 . S
H3363 C3373 0.929 . S
H3364 C3368 0.929 . S
H3365 C3374 0.929 . S
C3366 H3360 0.930 . S
C3366 C3367 1.367 . S
C3366 C3374 1.378 . S
C3367 C3366 1.367 . S
C3367 C3375 1.433 . S
C3368 H3364 0.929 . S
C3368 C3370 1.378 . S
C3368 C3372 1.350 . S
C3369 C3372 1.463 1_655 S
C3369 C3374 1.350 . S
C3369 N3377 1.427 . S
C3370 H3361 0.930 . S
C3370 C3368 1.378 . S
C3370 C3371 1.367 . S
C3371 C3370 1.367 . S
C3371 C3373 1.433 . S
C3372 C3368 1.350 . S
C3372 C3369 1.463 1_455 S
C3372 N3376 1.427 . S
C3373 H3363 0.929 . S
C3373 C3371 1.433 . S
C3373 N3376 1.384 . S
C3374 H3365 0.929 . S
C3374 C3366 1.378 . S
C3374 C3369 1.350 . S
C3375 H3362 0.929 . S
C3375 C3367 1.433 . S
C3375 N3377 1.384 . S
N3376 C3372 1.427 . S
N3376 C3373 1.384 . S
N3377 C3369 1.427 . S
N3377 C3375 1.384 . S
H3378 C3384 0.930 . S
H3379 C3388 0.930 . S
H3380 C3393 0.929 . S
H3381 C3391 0.929 . S
H3382 C3386 0.929 . S
H3383 C3392 0.929 . S
C3384 H3378 0.930 . S
C3384 C3385 1.367 . S
C3384 C3392 1.378 . S
C3385 C3384 1.367 . S
C3385 C3393 1.433 . S
C3386 H3382 0.929 . S
C3386 C3388 1.378 . S
C3386 C3390 1.350 . S
C3387 C3390 1.463 1_455 S
C3387 C3392 1.350 . S
C3387 N3395 1.430 . S
C3388 H3379 0.930 . S
C3388 C3386 1.378 . S
C3388 C3389 1.367 . S
C3389 C3388 1.367 . S
C3389 C3391 1.433 . S
C3390 C3386 1.350 . S
C3390 C3387 1.463 1_655 S
C3390 N3394 1.427 . S
C3391 H3381 0.929 . S
C3391 C3389 1.433 . S
C3391 N3394 1.384 . S
C3392 H3383 0.929 . S
C3392 C3384 1.378 . S
C3392 C3387 1.350 . S
C3393 H3380 0.929 . S
C3393 C3385 1.433 . S
C3393 N3395 1.401 . S
N3394 C3390 1.427 . S
N3394 C3391 1.384 . S
N3395 C3387 1.430 . S
N3395 C3393 1.401 . S
H3396 C3402 0.930 . S
H3397 C3406 0.930 . S
H3398 C3411 0.929 . S
H3399 C3409 0.929 . S
H3400 C3404 0.929 . S
H3401 C3410 0.929 . S
C3402 H3396 0.930 . S
C3402 C3403 1.367 . S
C3402 C3410 1.378 . S
C3403 C3402 1.367 . S
C3403 C3411 1.433 . S
C3404 H3400 0.929 . S
C3404 C3406 1.378 . S
C3404 C3408 1.350 . S
C3405 C3408 1.463 . S
C3405 C3410 1.350 . S
C3405 N3413 1.427 . S
C3406 H3397 0.930 . S
C3406 C3404 1.378 . S
C3406 C3407 1.367 . S
C3407 C3406 1.367 . S
C3407 C3409 1.433 . S
C3408 C3404 1.350 . S
C3408 C3405 1.463 . S
C3408 N3412 1.427 . S
C3409 H3399 0.929 . S
C3409 C3407 1.433 . S
C3409 N3412 1.384 . S
C3410 H3401 0.929 . S
C3410 C3402 1.378 . S
C3410 C3405 1.350 . S
C3411 H3398 0.929 . S
C3411 C3403 1.433 . S
C3411 N3413 1.384 . S
N3412 C3408 1.427 . S
N3412 C3409 1.384 . S
N3413 C3405 1.427 . S
N3413 C3411 1.384 . S
H3414 C3420 0.930 . S
H3415 C3424 0.930 . S
H3416 C3429 0.929 . S
H3417 C3427 0.929 . S
H3418 C3422 0.929 . S
H3419 C3428 0.929 . S
C3420 H3414 0.930 . S
C3420 C3421 1.367 . S
C3420 C3428 1.378 . S
C3421 C3420 1.367 . S
C3421 C3429 1.433 . S
C3422 H3418 0.929 . S
C3422 C3424 1.378 . S
C3422 C3426 1.350 . S
C3423 C3426 1.463 . S
C3423 C3428 1.350 . S
C3423 N3431 1.427 . S
C3424 H3415 0.930 . S
C3424 C3422 1.378 . S
C3424 C3425 1.367 . S
C3425 C3424 1.367 . S
C3425 C3427 1.433 . S
C3426 C3422 1.350 . S
C3426 C3423 1.463 . S
C3426 N3430 1.427 . S
C3427 H3417 0.929 . S
C3427 C3425 1.433 . S
C3427 N3430 1.384 . S
C3428 H3419 0.929 . S
C3428 C3420 1.378 . S
C3428 C3423 1.350 . S
C3429 H3416 0.929 . S
C3429 C3421 1.433 . S
C3429 N3431 1.384 . S
N3430 C3426 1.427 . S
N3430 C3427 1.384 . S
N3431 C3423 1.427 . S
N3431 C3429 1.384 . S
H3432 C3438 0.930 . S
H3433 C3442 0.930 . S
H3434 C3447 0.929 . S
H3435 C3445 0.929 . S
H3436 C3440 0.927 1_565 S
H3437 C3446 0.929 . S
C3438 H3432 0.930 . S
C3438 C3439 1.367 . S
C3438 C3446 1.378 . S
C3439 C3438 1.367 . S
C3439 C3447 1.433 . S
C3440 H3436 0.927 1_545 S
C3440 C3442 1.388 . S
C3440 C3444 1.341 1_545 S
C3441 C3444 1.463 . S
C3441 C3446 1.350 . S
C3441 N3449 1.427 . S
C3442 H3433 0.930 . S
C3442 C3440 1.388 . S
C3442 C3443 1.367 . S
C3443 C3442 1.367 . S
C3443 C3445 1.433 . S
C3444 C3440 1.341 1_565 S
C3444 C3441 1.463 . S
C3444 N3448 1.427 . S
C3445 H3435 0.929 . S
C3445 C3443 1.433 . S
C3445 N3448 1.384 1_545 S
C3446 H3437 0.929 . S
C3446 C3438 1.378 . S
C3446 C3441 1.350 . S
C3447 H3434 0.929 . S
C3447 C3439 1.433 . S
C3447 N3449 1.384 . S
N3448 C3444 1.427 . S
N3448 C3445 1.384 1_565 S
N3449 C3441 1.427 . S
N3449 C3447 1.384 . S
H3450 C3456 0.930 . S
H3451 C3460 0.930 . S
H3452 C3465 0.929 . S
H3453 C3463 0.929 . S
H3454 C3458 0.929 . S
H3455 C3464 0.929 . S
C3456 H3450 0.930 . S
C3456 C3457 1.367 . S
C3456 C3464 1.378 . S
C3457 C3456 1.367 . S
C3457 C3465 1.433 . S
C3458 H3454 0.929 . S
C3458 C3460 1.378 . S
C3458 C3462 1.350 . S
C3459 C3462 1.463 . S
C3459 C3464 1.350 . S
C3459 N3467 1.427 . S
C3460 H3451 0.930 . S
C3460 C3458 1.378 . S
C3460 C3461 1.367 . S
C3461 C3460 1.367 . S
C3461 C3463 1.433 . S
C3462 C3458 1.350 . S
C3462 C3459 1.463 . S
C3462 N3466 1.427 . S
C3463 H3453 0.929 . S
C3463 C3461 1.433 . S
C3463 N3466 1.384 . S
C3464 H3455 0.929 . S
C3464 C3456 1.378 . S
C3464 C3459 1.350 . S
C3465 H3452 0.929 . S
C3465 C3457 1.433 . S
C3465 N3467 1.384 . S
N3466 C3462 1.427 . S
N3466 C3463 1.384 . S
N3467 C3459 1.427 . S
N3467 C3465 1.384 . S
H3468 C3474 0.930 . S
H3469 C3478 0.930 . S
H3470 C3483 0.929 . S
H3471 C3481 0.929 . S
H3472 C3476 0.929 . S
H3473 C3482 0.929 . S
C3474 H3468 0.930 . S
C3474 C3475 1.367 . S
C3474 C3482 1.378 . S
C3475 C3474 1.367 . S
C3475 C3483 1.433 . S
C3476 H3472 0.929 . S
C3476 C3478 1.378 . S
C3476 C3480 1.350 . S
C3477 C3480 1.463 1_545 S
C3477 C3482 1.350 . S
C3477 N3485 1.427 . S
C3478 H3469 0.930 . S
C3478 C3476 1.378 . S
C3478 C3479 1.367 . S
C3479 C3478 1.367 . S
C3479 C3481 1.433 . S
C3480 C3476 1.350 . S
C3480 C3477 1.463 1_565 S
C3480 N3484 1.427 . S
C3481 H3471 0.929 . S
C3481 C3479 1.433 . S
C3481 N3484 1.384 . S
C3482 H3473 0.929 . S
C3482 C3474 1.378 . S
C3482 C3477 1.350 . S
C3483 H3470 0.929 . S
C3483 C3475 1.433 . S
C3483 N3485 1.384 . S
N3484 C3480 1.427 . S
N3484 C3481 1.384 . S
N3485 C3477 1.427 . S
N3485 C3483 1.384 . S
H3486 C3492 0.930 . S
H3487 C3496 0.930 . S
H3488 C3501 0.929 . S
H3489 C3499 0.929 . S
H3490 C3494 0.929 . S
H3491 C3500 0.929 . S
C3492 H3486 0.930 . S
C3492 C3493 1.367 . S
C3492 C3500 1.378 . S
C3493 C3492 1.367 . S
C3493 C3501 1.433 . S
C3494 H3490 0.929 . S
C3494 C3496 1.378 . S
C3494 C3498 1.350 1_554 S
C3495 C3498 1.463 . S
C3495 C3500 1.350 . S
C3495 N3503 1.427 . S
C3496 H3487 0.930 . S
C3496 C3494 1.378 . S
C3496 C3497 1.367 . S
C3497 C3496 1.367 . S
C3497 C3499 1.433 . S
C3498 C3494 1.350 1_556 S
C3498 C3495 1.463 . S
C3498 N3502 1.427 1_556 S
C3499 H3489 0.929 . S
C3499 C3497 1.433 . S
C3499 N3502 1.384 . S
C3500 H3491 0.929 . S
C3500 C3492 1.378 . S
C3500 C3495 1.350 . S
C3501 H3488 0.929 . S
C3501 C3493 1.433 . S
C3501 N3503 1.384 . S
N3502 C3498 1.427 1_554 S
N3502 C3499 1.384 . S
N3503 C3495 1.427 . S
N3503 C3501 1.384 . S
H3504 C3510 0.930 . S
H3505 C3514 0.930 . S
H3506 C3519 0.929 . S
H3507 C3517 0.929 . S
H3508 C3512 0.929 . S
H3509 C3518 0.929 . S
C3510 H3504 0.930 . S
C3510 C3511 1.367 . S
C3510 C3518 1.378 1_554 S
C3511 C3510 1.367 . S
C3511 C3519 1.433 . S
C3512 H3508 0.929 . S
C3512 C3514 1.378 . S
C3512 C3516 1.350 . S
C3513 C3516 1.463 . S
C3513 C3518 1.350 . S
C3513 N3521 1.427 1_556 S
C3514 H3505 0.930 . S
C3514 C3512 1.378 . S
C3514 C3515 1.367 . S
C3515 C3514 1.367 . S
C3515 C3517 1.433 . S
C3516 C3512 1.350 . S
C3516 C3513 1.463 . S
C3516 N3520 1.427 . S
C3517 H3507 0.929 . S
C3517 C3515 1.433 . S
C3517 N3520 1.384 . S
C3518 H3509 0.929 . S
C3518 C3510 1.378 1_556 S
C3518 C3513 1.350 . S
C3519 H3506 0.929 . S
C3519 C3511 1.433 . S
C3519 N3521 1.384 . S
N3520 C3516 1.427 . S
N3520 C3517 1.384 . S
N3521 C3513 1.427 1_554 S
N3521 C3519 1.384 . S
H3522 C3528 0.930 . S
H3523 C3532 0.930 . S
H3524 C3537 0.929 . S
H3525 C3535 0.929 . S
H3526 C3530 0.929 . S
H3527 C3536 0.929 . S
C3528 H3522 0.930 . S
C3528 C3529 1.367 . S
C3528 C3536 1.378 . S
C3529 C3528 1.367 . S
C3529 C3537 1.433 . S
C3530 H3526 0.929 . S
C3530 C3532 1.378 . S
C3530 C3534 1.350 . S
C3531 C3534 1.463 . S
C3531 C3536 1.350 . S
C3531 N3539 1.427 . S
C3532 H3523 0.930 . S
C3532 C3530 1.378 . S
C3532 C3533 1.367 . S
C3533 C3532 1.367 . S
C3533 C3535 1.433 . S
C3534 C3530 1.350 . S
C3534 C3531 1.463 . S
C3534 N3538 1.427 . S
C3535 H3525 0.929 . S
C3535 C3533 1.433 . S
C3535 N3538 1.384 . S
C3536 H3527 0.929 . S
C3536 C3528 1.378 . S
C3536 C3531 1.350 . S
C3537 H3524 0.929 . S
C3537 C3529 1.433 . S
C3537 N3539 1.384 . S
N3538 C3534 1.427 . S
N3538 C3535 1.384 . S
N3539 C3531 1.427 . S
N3539 C3537 1.384 . S
H3540 C3546 0.930 . S
H3541 C3550 0.930 . S
H3542 C3555 0.929 . S
H3543 C3553 0.929 . S
H3544 C3548 0.929 . S
H3545 C3554 0.929 . S
C3546 H3540 0.930 . S
C3546 C3547 1.367 . S
C3546 C3554 1.378 . S
C3547 C3546 1.367 . S
C3547 C3555 1.433 . S
C3548 H3544 0.929 . S
C3548 C3550 1.378 . S
C3548 C3552 1.350 . S
C3549 C3552 1.463 . S
C3549 C3554 1.350 . S
C3549 N3557 1.427 . S
C3550 H3541 0.930 . S
C3550 C3548 1.378 . S
C3550 C3551 1.367 . S
C3551 C3550 1.367 . S
C3551 C3553 1.433 . S
C3552 C3548 1.350 . S
C3552 C3549 1.463 . S
C3552 N3556 1.427 . S
C3553 H3543 0.929 . S
C3553 C3551 1.433 . S
C3553 N3556 1.384 . S
C3554 H3545 0.929 . S
C3554 C3546 1.378 . S
C3554 C3549 1.350 . S
C3555 H3542 0.929 . S
C3555 C3547 1.433 . S
C3555 N3557 1.384 . S
N3556 C3552 1.427 . S
N3556 C3553 1.384 . S
N3557 C3549 1.427 . S
N3557 C3555 1.384 . S
H3558 C3564 0.930 . S
H3559 C3568 0.930 . S
H3560 C3573 0.929 . S
H3561 C3571 0.929 . S
H3562 C3566 0.929 . S
H3563 C3572 0.929 . S
C3564 H3558 0.930 . S
C3564 C3565 1.367 . S
C3564 C3572 1.378 . S
C3565 C3564 1.367 . S
C3565 C3573 1.433 . S
C3566 H3562 0.929 . S
C3566 C3568 1.378 . S
C3566 C3570 1.350 . S
C3567 C3570 1.463 . S
C3567 C3572 1.350 . S
C3567 N3575 1.427 . S
C3568 H3559 0.930 . S
C3568 C3566 1.378 . S
C3568 C3569 1.367 . S
C3569 C3568 1.367 . S
C3569 C3571 1.433 . S
C3570 C3566 1.350 . S
C3570 C3567 1.463 . S
C3570 N3574 1.427 . S
C3571 H3561 0.929 . S
C3571 C3569 1.433 . S
C3571 N3574 1.384 . S
C3572 H3563 0.929 . S
C3572 C3564 1.378 . S
C3572 C3567 1.350 . S
C3573 H3560 0.929 . S
C3573 C3565 1.433 . S
C3573 N3575 1.384 . S
N3574 C3570 1.427 . S
N3574 C3571 1.384 . S
N3575 C3567 1.427 . S
N3575 C3573 1.384 . S
H3576 C3582 0.930 . S
H3577 C3586 0.930 . S
H3578 C3591 0.929 . S
H3579 C3589 0.929 . S
H3580 C3584 0.929 . S
H3581 C3590 0.929 . S
C3582 H3576 0.930 . S
C3582 C3583 1.367 . S
C3582 C3590 1.378 . S
C3583 C3582 1.367 . S
C3583 C3591 1.433 . S
C3584 H3580 0.929 . S
C3584 C3586 1.378 . S
C3584 C3588 1.350 . S
C3585 C3588 1.463 1_655 S
C3585 C3590 1.350 . S
C3585 N3593 1.427 1_655 S
C3586 H3577 0.930 . S
C3586 C3584 1.378 . S
C3586 C3587 1.367 . S
C3587 C3586 1.367 . S
C3587 C3589 1.433 . S
C3588 C3584 1.350 . S
C3588 C3585 1.463 1_455 S
C3588 N3592 1.427 . S
C3589 H3579 0.929 . S
C3589 C3587 1.433 . S
C3589 N3592 1.384 . S
C3590 H3581 0.929 . S
C3590 C3582 1.378 . S
C3590 C3585 1.350 . S
C3591 H3578 0.929 . S
C3591 C3583 1.433 . S
C3591 N3593 1.384 1_655 S
N3592 C3588 1.427 . S
N3592 C3589 1.384 . S
N3593 C3585 1.427 1_455 S
N3593 C3591 1.384 1_455 S
H3594 C3600 0.930 . S
H3595 C3604 0.930 . S
H3596 C3609 0.929 . S
H3597 C3607 0.929 . S
H3598 C3602 0.929 1_655 S
H3599 C3608 0.929 . S
C3600 H3594 0.930 . S
C3600 C3601 1.367 . S
C3600 C3608 1.378 . S
C3601 C3600 1.367 . S
C3601 C3609 1.433 . S
C3602 H3598 0.929 1_455 S
C3602 C3604 1.378 . S
C3602 C3606 1.350 1_455 S
C3603 C3606 1.463 . S
C3603 C3608 1.350 . S
C3603 N3611 1.427 . S
C3604 H3595 0.930 . S
C3604 C3602 1.378 . S
C3604 C3605 1.367 . S
C3605 C3604 1.367 . S
C3605 C3607 1.433 . S
C3606 C3602 1.350 1_655 S
C3606 C3603 1.463 . S
C3606 N3610 1.427 1_655 S
C3607 H3597 0.929 . S
C3607 C3605 1.433 . S
C3607 N3610 1.384 . S
C3608 H3599 0.929 . S
C3608 C3600 1.378 . S
C3608 C3603 1.350 . S
C3609 H3596 0.929 . S
C3609 C3601 1.433 . S
C3609 N3611 1.384 . S
N3610 C3606 1.427 1_455 S
N3610 C3607 1.384 . S
N3611 C3603 1.427 . S
N3611 C3609 1.384 . S
H3612 C3618 0.930 . S
H3613 C3622 0.930 . S
H3614 C3627 0.929 . S
H3615 C3625 0.929 . S
H3616 C3620 0.929 . S
H3617 C3626 0.929 . S
C3618 H3612 0.930 . S
C3618 C3619 1.367 . S
C3618 C3626 1.378 . S
C3619 C3618 1.367 . S
C3619 C3627 1.433 . S
C3620 H3616 0.929 . S
C3620 C3622 1.378 . S
C3620 C3624 1.350 . S
C3621 C3624 1.463 . S
C3621 C3626 1.350 . S
C3621 N3629 1.427 . S
C3622 H3613 0.930 . S
C3622 C3620 1.378 . S
C3622 C3623 1.367 . S
C3623 C3622 1.367 . S
C3623 C3625 1.433 . S
C3624 C3620 1.350 . S
C3624 C3621 1.463 . S
C3624 N3628 1.427 . S
C3625 H3615 0.929 . S
C3625 C3623 1.433 . S
C3625 N3628 1.384 . S
C3626 H3617 0.929 . S
C3626 C3618 1.378 . S
C3626 C3621 1.350 . S
C3627 H3614 0.929 . S
C3627 C3619 1.433 . S
C3627 N3629 1.384 . S
N3628 C3624 1.427 . S
N3628 C3625 1.384 . S
N3629 C3621 1.427 . S
N3629 C3627 1.384 . S
H3630 C3636 0.930 . S
H3631 C3640 0.930 . S
H3632 C3645 0.929 . S
H3633 C3643 0.929 . S
H3634 C3638 0.929 . S
H3635 C3644 0.929 . S
C3636 H3630 0.930 . S
C3636 C3637 1.367 . S
C3636 C3644 1.378 . S
C3637 C3636 1.367 . S
C3637 C3645 1.433 . S
C3638 H3634 0.929 . S
C3638 C3640 1.378 . S
C3638 C3642 1.350 . S
C3639 C3642 1.463 . S
C3639 C3644 1.350 . S
C3639 N3647 1.427 . S
C3640 H3631 0.930 . S
C3640 C3638 1.378 . S
C3640 C3641 1.367 . S
C3641 C3640 1.367 . S
C3641 C3643 1.433 . S
C3642 C3638 1.350 . S
C3642 C3639 1.463 . S
C3642 N3646 1.427 . S
C3643 H3633 0.929 . S
C3643 C3641 1.433 . S
C3643 N3646 1.384 . S
C3644 H3635 0.929 . S
C3644 C3636 1.378 . S
C3644 C3639 1.350 . S
C3645 H3632 0.929 . S
C3645 C3637 1.433 . S
C3645 N3647 1.384 . S
N3646 C3642 1.427 . S
N3646 C3643 1.384 . S
N3647 C3639 1.427 . S
N3647 C3645 1.384 . S
H3648 C3654 0.930 . S
H3649 C3658 0.930 . S
H3650 C3663 0.929 . S
H3651 C3661 0.929 . S
H3652 C3656 0.929 . S
H3653 C3662 0.929 . S
C3654 H3648 0.930 . S
C3654 C3655 1.367 . S
C3654 C3662 1.378 . S
C3655 C3654 1.367 . S
C3655 C3663 1.433 . S
C3656 H3652 0.929 . S
C3656 C3658 1.378 1_545 S
C3656 C3660 1.350 . S
C3657 C3660 1.463 . S
C3657 C3662 1.350 . S
C3657 N3665 1.427 . S
C3658 H3649 0.930 . S
C3658 C3656 1.378 1_565 S
C3658 C3659 1.367 . S
C3659 C3658 1.367 . S
C3659 C3661 1.433 . S
C3660 C3656 1.350 . S
C3660 C3657 1.463 . S
C3660 N3664 1.427 1_545 S
C3661 H3651 0.929 . S
C3661 C3659 1.433 . S
C3661 N3664 1.384 . S
C3662 H3653 0.929 . S
C3662 C3654 1.378 . S
C3662 C3657 1.350 . S
C3663 H3650 0.929 . S
C3663 C3655 1.433 . S
C3663 N3665 1.384 . S
N3664 C3660 1.427 1_565 S
N3664 C3661 1.384 . S
N3665 C3657 1.427 . S
N3665 C3663 1.384 . S
H3666 C3672 0.930 . S
H3667 C3676 0.930 . S
H3668 C3681 0.929 . S
H3669 C3679 0.929 . S
H3670 C3674 0.929 . S
H3671 C3680 0.929 . S
C3672 H3666 0.930 . S
C3672 C3673 1.367 . S
C3672 C3680 1.378 . S
C3673 C3672 1.367 . S
C3673 C3681 1.433 . S
C3674 H3670 0.929 . S
C3674 C3676 1.378 . S
C3674 C3678 1.350 . S
C3675 C3678 1.463 . S
C3675 C3680 1.350 . S
C3675 N3683 1.427 . S
C3676 H3667 0.930 . S
C3676 C3674 1.378 . S
C3676 C3677 1.367 . S
C3677 C3676 1.367 . S
C3677 C3679 1.433 . S
C3678 C3674 1.350 . S
C3678 C3675 1.463 . S
C3678 N3682 1.427 . S
C3679 H3669 0.929 . S
C3679 C3677 1.433 . S
C3679 N3682 1.384 . S
C3680 H3671 0.929 . S
C3680 C3672 1.378 . S
C3680 C3675 1.350 . S
C3681 H3668 0.929 . S
C3681 C3673 1.433 . S
C3681 N3683 1.384 . S
N3682 C3678 1.427 . S
N3682 C3679 1.384 . S
N3683 C3675 1.427 . S
N3683 C3681 1.384 . S
H3684 C3690 0.930 . S
H3685 C3694 0.930 . S
H3686 C3699 0.929 . S
H3687 C3697 0.929 . S
H3688 C3692 0.929 . S
H3689 C3698 0.929 . S
C3690 H3684 0.930 . S
C3690 C3691 1.367 . S
C3690 C3698 1.378 . S
C3691 C3690 1.367 . S
C3691 C3699 1.433 . S
C3692 H3688 0.929 . S
C3692 C3694 1.378 . S
C3692 C3696 1.350 . S
C3693 C3696 1.463 . S
C3693 C3698 1.350 1_565 S
C3693 N3701 1.427 1_565 S
C3694 H3685 0.930 . S
C3694 C3692 1.378 . S
C3694 C3695 1.367 . S
C3695 C3694 1.367 . S
C3695 C3697 1.433 . S
C3696 C3692 1.350 . S
C3696 C3693 1.463 . S
C3696 N3700 1.427 . S
C3697 H3687 0.929 . S
C3697 C3695 1.433 . S
C3697 N3700 1.384 . S
C3698 H3689 0.929 . S
C3698 C3690 1.378 . S
C3698 C3693 1.350 1_545 S
C3699 H3686 0.929 . S
C3699 C3691 1.433 . S
C3699 N3701 1.384 . S
N3700 C3696 1.427 . S
N3700 C3697 1.384 . S
N3701 C3693 1.427 1_545 S
N3701 C3699 1.384 . S
H3702 C3708 0.933 . S
H3703 C3712 0.930 . S
H3704 C3717 0.929 . S
H3705 C3715 0.929 . S
H3706 C3710 0.929 . S
H3707 C3716 0.929 . S
C3708 H3702 0.933 . S
C3708 C3709 1.347 1_554 S
C3708 C3716 1.396 . S
C3709 C3708 1.347 1_556 S
C3709 C3717 1.433 . S
C3710 H3706 0.929 . S
C3710 C3712 1.378 . S
C3710 C3714 1.350 . S
C3711 C3714 1.463 . S
C3711 C3716 1.350 . S
C3711 N3719 1.427 1_554 S
C3712 H3703 0.930 . S
C3712 C3710 1.378 . S
C3712 C3713 1.367 . S
C3713 C3712 1.367 . S
C3713 C3715 1.433 . S
C3714 C3710 1.350 . S
C3714 C3711 1.463 . S
C3714 N3718 1.427 . S
C3715 H3705 0.929 . S
C3715 C3713 1.433 . S
C3715 N3718 1.384 . S
C3716 H3707 0.929 . S
C3716 C3708 1.396 . S
C3716 C3711 1.350 . S
C3717 H3704 0.929 . S
C3717 C3709 1.433 . S
C3717 N3719 1.384 . S
N3718 C3714 1.427 . S
N3718 C3715 1.384 . S
N3719 C3711 1.427 1_556 S
N3719 C3717 1.384 . S
H3720 C3726 0.930 . S
H3721 C3730 0.930 . S
H3722 C3735 0.929 . S
H3723 C3733 0.929 . S
H3724 C3728 0.929 . S
H3725 C3734 0.929 . S
C3726 H3720 0.930 . S
C3726 C3727 1.367 . S
C3726 C3734 1.378 . S
C3727 C3726 1.367 . S
C3727 C3735 1.433 . S
C3728 H3724 0.929 . S
C3728 C3730 1.378 . S
C3728 C3732 1.350 . S
C3729 C3732 1.439 1_556 S
C3729 C3734 1.368 . S
C3729 N3737 1.432 . S
C3730 H3721 0.930 . S
C3730 C3728 1.378 . S
C3730 C3731 1.367 . S
C3731 C3730 1.367 . S
C3731 C3733 1.433 . S
C3732 C3728 1.350 . S
C3732 C3729 1.439 1_554 S
C3732 N3736 1.427 . S
C3733 H3723 0.929 . S
C3733 C3731 1.433 . S
C3733 N3736 1.384 . S
C3734 H3725 0.929 . S
C3734 C3726 1.378 . S
C3734 C3729 1.368 . S
C3735 H3722 0.929 . S
C3735 C3727 1.433 . S
C3735 N3737 1.384 . S
N3736 C3732 1.427 . S
N3736 C3733 1.384 . S
N3737 C3729 1.432 . S
N3737 C3735 1.384 . S
H3738 C3744 0.930 . S
H3739 C3748 0.930 . S
H3740 C3753 0.929 . S
H3741 C3751 0.929 . S
H3742 C3746 0.929 . S
H3743 C3752 0.929 . S
C3744 H3738 0.930 . S
C3744 C3745 1.367 . S
C3744 C3752 1.378 . S
C3745 C3744 1.367 . S
C3745 C3753 1.433 . S
C3746 H3742 0.929 . S
C3746 C3748 1.378 . S
C3746 C3750 1.350 . S
C3747 C3750 1.463 . S
C3747 C3752 1.350 . S
C3747 N3755 1.427 . S
C3748 H3739 0.930 . S
C3748 C3746 1.378 . S
C3748 C3749 1.367 . S
C3749 C3748 1.367 . S
C3749 C3751 1.433 . S
C3750 C3746 1.350 . S
C3750 C3747 1.463 . S
C3750 N3754 1.427 . S
C3751 H3741 0.929 . S
C3751 C3749 1.433 . S
C3751 N3754 1.384 . S
C3752 H3743 0.929 . S
C3752 C3744 1.378 . S
C3752 C3747 1.350 . S
C3753 H3740 0.929 . S
C3753 C3745 1.433 . S
C3753 N3755 1.384 . S
N3754 C3750 1.427 . S
N3754 C3751 1.384 . S
N3755 C3747 1.427 . S
N3755 C3753 1.384 . S
H3756 C3762 0.930 . S
H3757 C3766 0.930 . S
H3758 C3771 0.929 . S
H3759 C3769 0.929 . S
H3760 C3764 0.929 . S
H3761 C3770 0.929 . S
C3762 H3756 0.930 . S
C3762 C3763 1.367 . S
C3762 C3770 1.378 . S
C3763 C3762 1.367 . S
C3763 C3771 1.433 . S
C3764 H3760 0.929 . S
C3764 C3766 1.378 . S
C3764 C3768 1.350 . S
C3765 C3768 1.463 . S
C3765 C3770 1.350 . S
C3765 N3773 1.427 . S
C3766 H3757 0.930 . S
C3766 C3764 1.378 . S
C3766 C3767 1.367 . S
C3767 C3766 1.367 . S
C3767 C3769 1.433 . S
C3768 C3764 1.350 . S
C3768 C3765 1.463 . S
C3768 N3772 1.427 . S
C3769 H3759 0.929 . S
C3769 C3767 1.433 . S
C3769 N3772 1.384 . S
C3770 H3761 0.929 . S
C3770 C3762 1.378 . S
C3770 C3765 1.350 . S
C3771 H3758 0.929 . S
C3771 C3763 1.433 . S
C3771 N3773 1.384 . S
N3772 C3768 1.427 . S
N3772 C3769 1.384 . S
N3773 C3765 1.427 . S
N3773 C3771 1.384 . S
H3774 C3780 0.930 . S
H3775 C3784 0.930 . S
H3776 C3789 0.929 . S
H3777 C3787 0.929 . S
H3778 C3782 0.929 . S
H3779 C3788 0.929 . S
C3780 H3774 0.930 . S
C3780 C3781 1.367 . S
C3780 C3788 1.378 . S
C3781 C3780 1.367 . S
C3781 C3789 1.433 . S
C3782 H3778 0.929 . S
C3782 C3784 1.378 . S
C3782 C3786 1.350 . S
C3783 C3786 1.463 . S
C3783 C3788 1.350 . S
C3783 N3791 1.427 . S
C3784 H3775 0.930 . S
C3784 C3782 1.378 . S
C3784 C3785 1.367 . S
C3785 C3784 1.367 . S
C3785 C3787 1.433 . S
C3786 C3782 1.350 . S
C3786 C3783 1.463 . S
C3786 N3790 1.427 . S
C3787 H3777 0.929 . S
C3787 C3785 1.433 . S
C3787 N3790 1.384 . S
C3788 H3779 0.929 . S
C3788 C3780 1.378 . S
C3788 C3783 1.350 . S
C3789 H3776 0.929 . S
C3789 C3781 1.433 . S
C3789 N3791 1.384 . S
N3790 C3786 1.427 . S
N3790 C3787 1.384 . S
N3791 C3783 1.427 . S
N3791 C3789 1.384 . S
C1639 C5 1.247 . S
C1643 C1294 1.247 . S
C1657 C39 0.994 . S
C1661 C1257 0.975 . S
C1675 C77 0.953 . S
C1679 C1600 1.023 . S
C1693 C1189 0.791 . S
C1697 C111 0.765 . S
C1711 C141 1.186 . S
C1715 C1393 1.155 . S
C1729 C1090 1.101 . S
C1733 C179 1.035 . S
C1747 C209 0.955 . S
C1751 C1427 0.927 . S
C1765 C243 1.216 . S
C1769 C1022 1.217 . S
C1783 C1053 1.028 . S
C1787 C277 1.050 . S
C1801 C315 0.851 . S
C1805 C1362 0.876 . S
C1819 C345 1.191 . S
C1823 C1121 1.155 . S
C1837 C1396 1.339 . S
C1841 C379 1.347 . S
C1855 C417 0.932 . S
C1859 C1226 0.953 . S
C1873 C447 1.288 . S
C1877 C1631 1.253 . S
C1891 C1158 1.392 . S
C1895 C481 1.405 . S
C1909 C515 1.176 . S
C1913 C1325 1.155 . S
C1927 C818 1.148 . S
C1931 C383 1.040 . S
C1945 C747 0.780 . S
C1949 C553 0.796 . S
C1963 C587 0.890 . S
C1967 C951 0.916 . S
C1981 C784 1.011 . S
C1985 C621 0.937 . S
C1999 C849 1.287 . S
C2003 C413 1.300 . S
C2017 C311 1.173 . S
C2021 C750 1.162 . S
C2035 C815 0.881 . S
C2039 C655 0.825 . S
C2053 C716 1.060 . S
C2057 C689 1.026 . S
C2071 C611 1.326 . S
C2075 C719 1.347 . S
C2089 C543 1.003 . S
C2093 C753 1.047 . S
C2107 C1498 1.050 . S
C2111 C791 0.978 . S
C2125 C821 1.162 . S
C2129 C475 1.133 . S
C2143 C679 0.848 . S
C2147 C859 0.819 . S
C2161 C893 0.876 . S
C2165 C407 0.922 . S
C2179 C713 0.751 . S
C2183 C927 0.770 . S
C2197 C308 1.258 . S
C2201 C957 1.267 . S
C2215 C339 0.935 . S
C2219 C991 0.950 . S
C2233 C648 0.904 . S
C2237 C1029 0.865 . S
C2251 C1059 1.349 . S
C2255 C376 1.342 . S
C2269 C1097 1.123 . S
C2273 C682 1.180 . S
C2287 C1131 0.814 . S
C2291 C512 0.848 . S
C2305 C1161 1.046 . S
C2309 C1529 1.020 . S
C2323 C1199 1.012 . S
C2327 C444 1.047 . S
C2341 C1229 1.107 . S
C2345 C580 1.108 . S
C2359 C135 1.339 . S
C2363 C1093 1.351 . S
C2377 C33 0.919 . S
C2381 C1267 0.858 . S
C2395 C206 1.127 . S
C2399 C1297 1.137 . S
C2413 C70 1.032 . S
C2417 C1335 0.957 . S
C2431 C1127 1.362 . S
C2435 C104 1.364 . S
C2449 C36 1.321 . S
C2453 C1025 1.323 . S
C2467 C101 0.711 . S
C2471 C1369 0.727 . S
C2485 C1403 1.003 . S
C2489 C2 1.048 . S
C2503 C1192 1.434 . S
C2507 C175 1.433 . S
C2521 C1359 0.742 . S
C2525 C213 0.733 . S
C2539 C247 0.897 . S
C2543 C1124 0.971 . S
C2557 C1291 0.744 . S
C2561 C145 0.737 . S
C2575 C107 1.187 . S
C2579 C1087 1.161 . S
C2593 C9 0.965 . S
C2597 C1566 1.048 . S
C2611 C1019 0.627 . S
C2615 C43 0.676 . S
C2629 C73 1.389 . S
C2633 C1532 1.387 . S
C2647 C685 0.961 . S
C2651 C1563 0.935 . S
C2665 C1437 0.823 . S
C2669 C1056 0.841 . S
C2683 C651 1.191 . S
C2687 C1597 1.153 . S
C2701 C988 1.335 . S
C2705 C1467 1.349 . S
C2719 C1505 0.945 . S
C2723 C1328 0.975 . S
C2737 C549 1.297 . S
C2741 C1155 1.267 . S
C2755 C1260 1.390 . S
C2759 C583 1.408 . S
C2773 C617 1.098 . S
C2777 C1223 1.069 . S
C2791 C852 1.157 . S
C2795 C1471 1.039 . S
C2809 C451 0.751 . S
C2813 C917 0.775 . S
C2827 C485 0.874 . S
C2831 C781 0.921 . S
C2845 C954 1.035 . S
C2849 C519 0.973 . S
C2863 C883 1.292 . S
C2867 C1501 1.299 . S
C2881 C920 1.146 . S
C2885 C1433 1.149 . S
C2899 C349 0.842 . S
C2903 C985 0.868 . S
C2917 C886 1.097 . S
C2921 C281 1.031 . S
C2935 C509 1.319 . S
C2939 C889 1.340 . S
C2953 C645 1.005 . S
C2957 C923 1.040 . S
C2971 C410 1.073 . S
C2975 C961 0.999 . S
C2989 C855 1.193 . S
C2993 C577 1.158 . S
C3007 C373 0.828 . S
C3011 C825 0.803 . S
C3025 C723 0.886 . S
C3029 C1495 0.920 . S
C3043 C305 0.774 . S
C3047 C757 0.766 . S
C3061 C1430 1.272 . S
C3065 C787 1.272 . S
C3079 C1461 0.989 . S
C3083 C1399 1.000 . S
C3097 C1539 0.924 . S
C3101 C342 0.969 . S
C3115 C1464 1.321 . S
C3119 C1365 1.329 . S
C3133 C1573 1.058 . S
C3137 C274 1.114 . S
C3151 C614 0.911 . S
C3155 C1607 0.863 . S
C3169 C441 1.005 . S
C3173 C1263 1.046 . S
C3187 C1301 0.909 . S
C3191 C546 0.972 . S
C3205 C478 1.053 . S
C3209 C1331 1.059 . S
C3223 C1569 1.268 . S
C3227 C169 1.252 . S
C3241 C203 0.932 . S
C3245 C1165 0.903 . S
C3259 C67 1.017 . S
C3263 C1195 1.046 . S
C3277 C1233 0.878 . S
C3281 C240 0.914 . S
C3295 C1603 1.446 . S
C3299 C138 1.446 . S
C3313 C1535 1.231 . S
C3317 C237 1.210 . S
C3331 C1063 0.731 . S
C3335 C271 0.690 . S
C3349 C172 1.159 . S
C3353 C995 1.062 . S
C3367 C258 2.107 . S
C3371 C20 2.101 . S
C3385 C156 2.649 . S
C3389 C54 2.654 . S
C3403 C190 2.192 . S
C3407 C88 2.195 . S
C3421 C224 2.654 . S
C3425 C122 2.654 . S
C3439 C428 2.301 . S
C3443 C292 2.313 . S
C3457 C462 2.533 . S
C3461 C326 2.542 . S
C3475 C496 2.431 . S
C3479 C360 2.432 . S
C3493 C530 2.347 . S
C3497 C394 2.356 . S
C3511 C1448 2.532 . S
C3515 C564 2.522 . S
C3529 C598 2.421 . S
C3533 C666 2.423 . S
C3547 C632 2.414 . S
C3551 C1482 2.423 . S
C3565 C700 2.375 . S
C3569 C1516 2.362 . S
C3583 C734 2.152 . S
C3587 C972 2.153 . S
C3601 C870 2.507 . S
C3605 C768 2.515 . S
C3619 C904 2.156 . S
C3623 C802 2.150 . S
C3637 C938 2.523 . S
C3641 C836 2.515 . S
C3655 C1142 2.390 . S
C3659 C1006 2.406 . S
C3673 C1040 2.504 . S
C3677 C1176 2.510 . S
C3691 C1074 2.547 . S
C3695 C1210 2.531 . S
C3709 C1108 2.388 . S
C3713 C1244 2.402 . S
C3727 C1550 2.548 . S
C3731 C1278 2.565 . S
C3745 C1380 2.503 . S
C3749 C1312 2.492 . S
C3763 C1346 2.349 . S
C3767 C1584 2.318 . S
C3781 C1618 2.459 . S
C3785 C1414 2.459 . S
