# Generated by pormake.
# Topology umo, (4)-cn, num edge types: 1
# Building blocks:
#     Node 0, Type 0, BuildingBlock: KOZSID_clean_sbu_0, # of connection points: 4
#     Node 1, Type 0, BuildingBlock: KOZSID_clean_sbu_0, # of connection points: 4
#     Node 2, Type 0, BuildingBlock: KOZSID_clean_sbu_0, # of connection points: 4
#     Node 3, Type 0, BuildingBlock: KOZSID_clean_sbu_0, # of connection points: 4
#     Node 4, Type 0, BuildingBlock: KOZSID_clean_sbu_0, # of connection points: 4
#     Node 5, Type 0, BuildingBlock: KOZSID_clean_sbu_0, # of connection points: 4
#     Node 6, Type 0, BuildingBlock: KOZSID_clean_sbu_0, # of connection points: 4
#     Node 7, Type 0, BuildingBlock: KOZSID_clean_sbu_0, # of connection points: 4
#     Node 8, Type 0, BuildingBlock: KOZSID_clean_sbu_0, # of connection points: 4
#     Node 9, Type 0, BuildingBlock: KOZSID_clean_sbu_0, # of connection points: 4
#     Node 10, Type 0, BuildingBlock: KOZSID_clean_sbu_0, # of connection points: 4
#     Node 11, Type 0, BuildingBlock: KOZSID_clean_sbu_0, # of connection points: 4
#     Edge 12, Type (0, 0), BuildingBlock: MIFKUJ_clean_linker_0, # of connection points: 2
#     Edge 13, Type (0, 0), BuildingBlock: MIFKUJ_clean_linker_0, # of connection points: 2
#     Edge 14, Type (0, 0), BuildingBlock: MIFKUJ_clean_linker_0, # of connection points: 2
#     Edge 15, Type (0, 0), BuildingBlock: MIFKUJ_clean_linker_0, # of connection points: 2
#     Edge 16, Type (0, 0), BuildingBlock: MIFKUJ_clean_linker_0, # of connection points: 2
#     Edge 17, Type (0, 0), BuildingBlock: MIFKUJ_clean_linker_0, # of connection points: 2
#     Edge 18, Type (0, 0), BuildingBlock: MIFKUJ_clean_linker_0, # of connection points: 2
#     Edge 19, Type (0, 0), BuildingBlock: MIFKUJ_clean_linker_0, # of connection points: 2
#     Edge 20, Type (0, 0), BuildingBlock: MIFKUJ_clean_linker_0, # of connection points: 2
#     Edge 21, Type (0, 0), BuildingBlock: MIFKUJ_clean_linker_0, # of connection points: 2
#     Edge 22, Type (0, 0), BuildingBlock: MIFKUJ_clean_linker_0, # of connection points: 2
#     Edge 23, Type (0, 0), BuildingBlock: MIFKUJ_clean_linker_0, # of connection points: 2
#     Edge 24, Type (0, 0), BuildingBlock: MIFKUJ_clean_linker_0, # of connection points: 2
#     Edge 25, Type (0, 0), BuildingBlock: MIFKUJ_clean_linker_0, # of connection points: 2
#     Edge 26, Type (0, 0), BuildingBlock: MIFKUJ_clean_linker_0, # of connection points: 2
#     Edge 27, Type (0, 0), BuildingBlock: MIFKUJ_clean_linker_0, # of connection points: 2
#     Edge 28, Type (0, 0), BuildingBlock: MIFKUJ_clean_linker_0, # of connection points: 2
#     Edge 29, Type (0, 0), BuildingBlock: MIFKUJ_clean_linker_0, # of connection points: 2
#     Edge 30, Type (0, 0), BuildingBlock: MIFKUJ_clean_linker_0, # of connection points: 2
#     Edge 31, Type (0, 0), BuildingBlock: MIFKUJ_clean_linker_0, # of connection points: 2
#     Edge 32, Type (0, 0), BuildingBlock: MIFKUJ_clean_linker_0, # of connection points: 2
#     Edge 33, Type (0, 0), BuildingBlock: MIFKUJ_clean_linker_0, # of connection points: 2
#     Edge 34, Type (0, 0), BuildingBlock: MIFKUJ_clean_linker_0, # of connection points: 2
#     Edge 35, Type (0, 0), BuildingBlock: MIFKUJ_clean_linker_0, # of connection points: 2
# Relax obj value: 0.201
# Max RMSD: 0.253
# Mean RMSD: 0.253
data_MOF--net-umo--node1-KOZSID_clean_sbu_0--edge1-MIFKUJ_clean_linker_0
_symmetry_space_group_name_H-M    P1
_symmetry_Int_Tables_number       1
_symmetry_cell_setting            triclinic
loop_
_symmetry_equiv_pos_as_xyz
'x, y, z'
_cell_length_a     80.023085
_cell_length_b     80.120221
_cell_length_c     50.158368
_cell_angle_alpha  90.066796
_cell_angle_beta   89.859802
_cell_angle_gamma 119.99159
loop_
_atom_site_label
_atom_site_type_symbol
_atom_site_fract_x
_atom_site_fract_y
_atom_site_fract_z
_atom_type_partial_charge
C0 C 0.19447 0.52639 0.35202 0.0
C1 C 0.19682 0.51042 0.35 0.0
C2 C 0.18771 0.49901 0.37178 0.0
C3 C 0.18024 0.5086 0.38573 0.0
N4 N 0.1841 0.5252 0.37391 0.0
Co5 Co 0.17614 0.54343 0.38671 0.0
N6 N 0.1732 0.5337 0.42356 0.0
C7 C 0.1708 0.51645 0.43077 0.0
C8 C 0.16902 0.51368 0.45789 0.0
C9 C 0.17026 0.53015 0.4682 0.0
C10 C 0.17269 0.54208 0.44671 0.0
N11 N 0.16805 0.56164 0.3996 0.0
C12 C 0.16786 0.56768 0.42477 0.0
C13 C 0.16083 0.58038 0.42507 0.0
C14 C 0.15646 0.58218 0.39907 0.0
C15 C 0.161 0.57048 0.38437 0.0
N16 N 0.17921 0.55296 0.34968 0.0
C17 C 0.17135 0.56295 0.33943 0.0
C18 C 0.17779 0.56923 0.31395 0.0
C19 C 0.19041 0.56276 0.30805 0.0
C20 C 0.19086 0.55263 0.33021 0.0
N21 N 0.14887 0.52434 0.37953 0.0
C22 C 0.10946 0.50074 0.36716 0.0
C23 C 0.12387 0.5022 0.34969 0.0
C24 C 0.14346 0.51418 0.35613 0.0
C25 C 0.11526 0.51074 0.39137 0.0
C26 C 0.1349 0.52218 0.3973 0.0
N27 N 0.20312 0.56283 0.3937 0.0
C28 C 0.22837 0.59593 0.39037 0.0
C29 C 0.24127 0.5919 0.4037 0.0
C30 C 0.23477 0.57274 0.4114 0.0
C31 C 0.21556 0.55841 0.40631 0.0
C32 C 0.20953 0.58135 0.38566 0.0
H33 H 0.21071 0.54382 0.41268 0.0
H34 H 0.20012 0.58519 0.37548 0.0
H35 H 0.15423 0.51563 0.34186 0.0
H36 H 0.13874 0.52975 0.41606 0.0
C37 C 0.17352 0.5049 0.41215 0.0
C38 C 0.20176 0.54226 0.33268 0.0
C39 C 0.17293 0.5605 0.44864 0.0
C40 C 0.16238 0.57019 0.35638 0.0
H41 H 0.20451 0.50748 0.33461 0.0
H42 H 0.18753 0.4859 0.37749 0.0
H43 H 0.16769 0.50147 0.46894 0.0
H44 H 0.1693 0.53295 0.48909 0.0
H45 H 0.159 0.58751 0.44224 0.0
H46 H 0.15134 0.59152 0.3917 0.0
H47 H 0.17485 0.57863 0.30184 0.0
H48 H 0.19859 0.56573 0.2898 0.0
H49 H 0.12004 0.49471 0.33074 0.0
H50 H 0.10465 0.50982 0.40565 0.0
H51 H 0.23279 0.61036 0.38343 0.0
H52 H 0.24427 0.56895 0.42173 0.0
C53 C 0.66974 0.19223 0.5144 0.0
C54 C 0.68829 0.19543 0.51063 0.0
C55 C 0.69196 0.18669 0.5316 0.0
C56 C 0.67544 0.17861 0.54687 0.0
N57 N 0.66175 0.18174 0.53662 0.0
Co58 Co 0.63597 0.17304 0.55186 0.0
N59 N 0.64466 0.17064 0.58773 0.0
C60 C 0.66023 0.169 0.59324 0.0
C61 C 0.66248 0.16745 0.62011 0.0
C62 C 0.64732 0.16804 0.63208 0.0
C63 C 0.63662 0.16991 0.61176 0.0
N64 N 0.61004 0.16391 0.56709 0.0
C65 C 0.60474 0.16341 0.59286 0.0
C66 C 0.58492 0.15567 0.59488 0.0
C67 C 0.57773 0.15114 0.56935 0.0
C68 C 0.59348 0.15633 0.55318 0.0
N69 N 0.62767 0.17589 0.51588 0.0
C70 C 0.60939 0.16755 0.50709 0.0
C71 C 0.60831 0.17359 0.4818 0.0
C72 C 0.62706 0.18649 0.47449 0.0
C73 C 0.63861 0.18753 0.49573 0.0
N74 N 0.62843 0.14603 0.54392 0.0
C75 C 0.6136 0.10682 0.53114 0.0
C76 C 0.62358 0.12132 0.5121 0.0
C77 C 0.63111 0.14079 0.51897 0.0
C78 C 0.6118 0.11248 0.55694 0.0
C79 C 0.61911 0.13202 0.56283 0.0
N80 N 0.64299 0.1998 0.55949 0.0
C81 C 0.6343 0.22452 0.55764 0.0
C82 C 0.65275 0.23854 0.56608 0.0
C83 C 0.66607 0.23247 0.57207 0.0
C84 C 0.66085 0.21301 0.56882 0.0
C85 C 0.62984 0.20549 0.55422 0.0
H86 H 0.67135 0.20872 0.57332 0.0
H87 H 0.6157 0.19542 0.54682 0.0
H88 H 0.63869 0.15159 0.50387 0.0
H89 H 0.6167 0.13572 0.58259 0.0
C90 C 0.67383 0.17212 0.57325 0.0
C91 C 0.65987 0.19893 0.49648 0.0
C92 C 0.61809 0.16924 0.61558 0.0
C93 C 0.59394 0.15796 0.52516 0.0
H94 H 0.69816 0.20346 0.49464 0.0
H95 H 0.70545 0.18721 0.53598 0.0
H96 H 0.6741 0.16665 0.62992 0.0
H97 H 0.64436 0.16699 0.65327 0.0
H98 H 0.57658 0.15355 0.61286 0.0
H99 H 0.5629 0.14558 0.56327 0.0
H100 H 0.59539 0.17004 0.47065 0.0
H101 H 0.63157 0.19435 0.45591 0.0
H102 H 0.62552 0.11763 0.49199 0.0
H103 H 0.60413 0.10181 0.57227 0.0
H104 H 0.62321 0.22813 0.55356 0.0
H105 H 0.68053 0.24267 0.57862 0.0
C106 C 0.48324 0.66826 0.68454 0.0
C107 C 0.49883 0.68691 0.68382 0.0
C108 C 0.50988 0.68892 0.70585 0.0
C109 C 0.50042 0.6715 0.71883 0.0
N110 N 0.48419 0.65875 0.70621 0.0
Co111 Co 0.46565 0.63242 0.71837 0.0
N112 N 0.47478 0.63881 0.75554 0.0
C113 C 0.49191 0.65355 0.76336 0.0
C114 C 0.49425 0.6542 0.79054 0.0
C115 C 0.4776 0.63884 0.80026 0.0
C116 C 0.46598 0.62966 0.77838 0.0
N117 N 0.4472 0.60601 0.73049 0.0
C118 C 0.44082 0.59945 0.75546 0.0
C119 C 0.428 0.57975 0.75514 0.0
C120 C 0.42655 0.57392 0.729 0.0
C121 C 0.4385 0.59031 0.71479 0.0
N122 N 0.45663 0.62635 0.68113 0.0
C123 C 0.44696 0.60868 0.67027 0.0
C124 C 0.44184 0.60926 0.64423 0.0
C125 C 0.44874 0.62848 0.63867 0.0
C126 C 0.45764 0.63854 0.66169 0.0
N127 N 0.48482 0.62423 0.71146 0.0
C128 C 0.50871 0.60837 0.69977 0.0
C129 C 0.50602 0.62002 0.68121 0.0
C130 C 0.49429 0.62794 0.68754 0.0
C131 C 0.49968 0.60567 0.72474 0.0
C132 C 0.48775 0.61345 0.73002 0.0
N133 N 0.44624 0.64006 0.72506 0.0
C134 C 0.41379 0.63376 0.7186 0.0
C135 C 0.41799 0.65066 0.73218 0.0
C136 C 0.43661 0.66206 0.7426 0.0
C137 C 0.45061 0.65659 0.73858 0.0
C138 C 0.42795 0.62864 0.71554 0.0
H139 H 0.46498 0.66575 0.74622 0.0
H140 H 0.42407 0.61542 0.7052 0.0
H141 H 0.49241 0.63663 0.67271 0.0
H142 H 0.48054 0.61031 0.74906 0.0
C143 C 0.50367 0.66811 0.74525 0.0
C144 C 0.46787 0.65964 0.66446 0.0
C145 C 0.44757 0.61143 0.77966 0.0
C146 C 0.43931 0.59227 0.6868 0.0
H147 H 0.5018 0.69802 0.66929 0.0
H148 H 0.52259 0.70193 0.71246 0.0
H149 H 0.50628 0.66492 0.80202 0.0
H150 H 0.47445 0.63475 0.821 0.0
H151 H 0.42053 0.57058 0.77199 0.0
H152 H 0.41727 0.55958 0.72121 0.0
H153 H 0.43316 0.59714 0.63132 0.0
H154 H 0.44727 0.63439 0.62001 0.0
H155 H 0.51243 0.62262 0.66155 0.0
H156 H 0.50159 0.59745 0.74031 0.0
H157 H 0.39951 0.62439 0.71061 0.0
H158 H 0.44041 0.67523 0.75329 0.0
C159 C 0.81787 0.48158 0.85465 0.0
C160 C 0.8147 0.4971 0.854 0.0
C161 C 0.82394 0.5083 0.87584 0.0
C162 C 0.83213 0.499 0.88865 0.0
N163 N 0.8286 0.48272 0.8761 0.0
Co164 Co 0.83669 0.46439 0.88809 0.0
N165 N 0.83987 0.4738 0.92517 0.0
C166 C 0.84221 0.49092 0.93295 0.0
C167 C 0.84413 0.49342 0.9601 0.0
C168 C 0.84304 0.47688 0.96984 0.0
C169 C 0.84051 0.46519 0.94799 0.0
N170 N 0.84495 0.44614 0.90001 0.0
C171 C 0.84538 0.43992 0.92496 0.0
C172 C 0.85243 0.42724 0.92455 0.0
C173 C 0.85658 0.42564 0.89832 0.0
C174 C 0.85187 0.43741 0.88419 0.0
N175 N 0.83328 0.45504 0.85096 0.0
C176 C 0.84126 0.44537 0.83991 0.0
C177 C 0.8353 0.44008 0.814 0.0
C178 C 0.82284 0.44686 0.80869 0.0
C179 C 0.82187 0.45588 0.83174 0.0
N180 N 0.86393 0.48352 0.88049 0.0
C181 C 0.90354 0.50708 0.86778 0.0
C182 C 0.89752 0.49827 0.89289 0.0
C183 C 0.87788 0.48654 0.89869 0.0
C184 C 0.88899 0.50442 0.84963 0.0
C185 C 0.86939 0.49281 0.85644 0.0
N186 N 0.80978 0.44497 0.89557 0.0
C187 C 0.78418 0.41205 0.89181 0.0
C188 C 0.77163 0.41602 0.90643 0.0
C189 C 0.77858 0.43507 0.91505 0.0
C190 C 0.7977 0.44934 0.90939 0.0
C191 C 0.80305 0.42655 0.88683 0.0
H192 H 0.80278 0.46385 0.91634 0.0
H193 H 0.81223 0.42275 0.87583 0.0
H194 H 0.87405 0.47948 0.91783 0.0
H195 H 0.85863 0.49086 0.8419 0.0
C196 C 0.83908 0.50247 0.91492 0.0
C197 C 0.81099 0.46611 0.83469 0.0
C198 C 0.84034 0.44678 0.94923 0.0
C199 C 0.85036 0.43797 0.85622 0.0
H200 H 0.80636 0.49992 0.83965 0.0
H201 H 0.82363 0.52101 0.88246 0.0
H202 H 0.84541 0.50545 0.97158 0.0
H203 H 0.84413 0.47385 0.99056 0.0
H204 H 0.8544 0.41998 0.9414 0.0
H205 H 0.86167 0.41639 0.89045 0.0
H206 H 0.83868 0.43138 0.801 0.0
H207 H 0.81527 0.44526 0.79017 0.0
H208 H 0.90788 0.50021 0.90814 0.0
H209 H 0.89258 0.51071 0.82991 0.0
H210 H 0.77948 0.39777 0.884 0.0
H211 H 0.76947 0.43889 0.92646 0.0
C212 C 0.34127 0.81581 0.01919 0.0
C213 C 0.32268 0.81285 0.0176 0.0
C214 C 0.32032 0.82199 0.03932 0.0
C215 C 0.33755 0.82999 0.05286 0.0
N216 N 0.35048 0.82645 0.04084 0.0
Co217 Co 0.37667 0.83431 0.05361 0.0
N218 N 0.36977 0.83712 0.09051 0.0
C219 C 0.35488 0.83948 0.09782 0.0
C220 C 0.35386 0.84121 0.12495 0.0
C221 C 0.36913 0.83999 0.13518 0.0
C222 C 0.37862 0.83753 0.11362 0.0
N223 N 0.40296 0.84233 0.06636 0.0
C224 C 0.4092 0.84258 0.09152 0.0
C225 C 0.4289 0.84935 0.09164 0.0
C226 C 0.43507 0.85364 0.0656 0.0
C227 C 0.41886 0.84922 0.051 0.0
N228 N 0.38323 0.83127 0.01659 0.0
C229 C 0.40104 0.8392 0.0061 0.0
C230 C 0.40075 0.83337 0.98017 0.0
C231 C 0.38158 0.82102 0.9743 0.0
C232 C 0.37124 0.82002 0.99702 0.0
N233 N 0.38496 0.86161 0.04647 0.0
C234 C 0.40123 0.90132 0.03455 0.0
C235 C 0.38986 0.88696 0.01583 0.0
C236 C 0.3817 0.86732 0.02228 0.0
C237 C 0.40335 0.89501 0.05981 0.0
C238 C 0.39541 0.87533 0.06519 0.0
N239 N 0.36893 0.80731 0.06056 0.0
C240 C 0.37531 0.78115 0.05503 0.0
C241 C 0.35827 0.76858 0.06848 0.0
C242 C 0.34672 0.77584 0.07828 0.0
C243 C 0.35222 0.79524 0.07386 0.0
C244 C 0.38045 0.80039 0.05155 0.0
H245 H 0.34296 0.80047 0.08107 0.0
H246 H 0.3938 0.80966 0.04137 0.0
H247 H 0.37323 0.85675 0.00733 0.0
H248 H 0.3982 0.8713 0.08445 0.0
C249 C 0.34055 0.83667 0.07929 0.0
C250 C 0.35013 0.80894 0.99972 0.0
C251 C 0.39688 0.83742 0.11544 0.0
C252 C 0.41725 0.84798 0.02297 0.0
H253 H 0.31195 0.80475 0.00259 0.0
H254 H 0.30721 0.82176 0.04535 0.0
H255 H 0.34297 0.84253 0.13608 0.0
H256 H 0.37296 0.84103 0.15603 0.0
H257 H 0.43786 0.85102 0.10869 0.0
H258 H 0.44951 0.85859 0.05814 0.0
H259 H 0.41303 0.83669 0.96759 0.0
H260 H 0.37589 0.81346 0.95568 0.0
H261 H 0.38768 0.89072 0.99595 0.0
H262 H 0.41127 0.90513 0.07555 0.0
H263 H 0.3848 0.77621 0.04754 0.0
H264 H 0.33343 0.76656 0.08886 0.0
C265 C 0.53284 0.34114 0.18131 0.0
C266 C 0.5175 0.32246 0.17906 0.0
C267 C 0.50556 0.31959 0.20047 0.0
C268 C 0.51428 0.33661 0.21454 0.0
N269 N 0.53085 0.3499 0.20313 0.0
Co270 Co 0.54883 0.37583 0.2171 0.0
N271 N 0.53846 0.36821 0.2536 0.0
C272 C 0.52115 0.35311 0.26013 0.0
C273 C 0.51792 0.35155 0.28717 0.0
C274 C 0.53415 0.36668 0.29817 0.0
C275 C 0.54644 0.37664 0.27713 0.0
N276 N 0.56677 0.40185 0.23099 0.0
C277 C 0.57228 0.40762 0.25643 0.0
C278 C 0.58511 0.42731 0.25739 0.0
C279 C 0.58744 0.43396 0.23159 0.0
C280 C 0.57597 0.41802 0.21628 0.0
N281 N 0.55909 0.38314 0.1805 0.0
C282 C 0.56903 0.40113 0.17072 0.0
C283 C 0.57507 0.40139 0.14491 0.0
C284 C 0.5685 0.38238 0.13834 0.0
C285 C 0.55884 0.37161 0.16058 0.0
N286 N 0.52983 0.38413 0.20985 0.0
C287 C 0.50623 0.40022 0.19799 0.0
C288 C 0.50953 0.38915 0.17908 0.0
C289 C 0.52112 0.3811 0.18548 0.0
C290 C 0.51446 0.40219 0.22335 0.0
C291 C 0.52625 0.3943 0.22873 0.0
N292 N 0.56802 0.36801 0.22418 0.0
C293 C 0.60053 0.37421 0.21888 0.0
C294 C 0.59576 0.35687 0.23155 0.0
C295 C 0.57686 0.34528 0.24095 0.0
C296 C 0.56312 0.35103 0.2368 0.0
C297 C 0.58659 0.37962 0.21571 0.0
H298 H 0.54853 0.3417 0.24358 0.0
H299 H 0.59085 0.39317 0.2061 0.0
H300 H 0.52351 0.37288 0.1704 0.0
H301 H 0.53285 0.39687 0.24813 0.0
C302 C 0.5101 0.33908 0.24098 0.0
C303 C 0.54893 0.3505 0.16242 0.0
C304 C 0.56471 0.3949 0.27987 0.0
C305 C 0.57609 0.41699 0.18822 0.0
H306 H 0.51535 0.31197 0.16387 0.0
H307 H 0.49276 0.30626 0.206 0.0
H308 H 0.50559 0.34038 0.29774 0.0
H309 H 0.53657 0.37009 0.3192 0.0
H310 H 0.59205 0.43596 0.27484 0.0
H311 H 0.59696 0.44853 0.22474 0.0
H312 H 0.58418 0.41392 0.13287 0.0
H313 H 0.57075 0.37709 0.1196 0.0
H314 H 0.50373 0.38712 0.15913 0.0
H315 H 0.51201 0.40992 0.23916 0.0
H316 H 0.61506 0.38367 0.21166 0.0
H317 H 0.57267 0.33176 0.25091 0.0
C318 C 0.48652 0.81615 0.48225 0.0
C319 C 0.50167 0.81237 0.48164 0.0
C320 C 0.51237 0.82128 0.45928 0.0
C321 C 0.50313 0.82982 0.44729 0.0
N322 N 0.48733 0.8268 0.46084 0.0
Co323 Co 0.46896 0.83514 0.44981 0.0
N324 N 0.47737 0.83772 0.41224 0.0
C325 C 0.4942 0.83974 0.40355 0.0
C326 C 0.49601 0.84133 0.37629 0.0
C327 C 0.47931 0.84034 0.36745 0.0
C328 C 0.46821 0.83819 0.3899 0.0
N329 N 0.45066 0.84358 0.43881 0.0
C330 C 0.44383 0.84379 0.4142 0.0
C331 C 0.43133 0.85106 0.41528 0.0
C332 C 0.43052 0.85562 0.44156 0.0
C333 C 0.44253 0.8509 0.45507 0.0
N334 N 0.46065 0.83237 0.48742 0.0
C335 C 0.45154 0.84077 0.49893 0.0
C336 C 0.44696 0.83531 0.52517 0.0
C337 C 0.45363 0.82273 0.53018 0.0
C338 C 0.46186 0.82117 0.50665 0.0
N339 N 0.48857 0.86233 0.45635 0.0
C340 C 0.51229 0.90197 0.46817 0.0
C341 C 0.50299 0.89576 0.44343 0.0
C342 C 0.49119 0.8761 0.43806 0.0
C343 C 0.51014 0.88761 0.48632 0.0
C344 C 0.49844 0.86798 0.47994 0.0
N345 N 0.44905 0.80829 0.44343 0.0
C346 C 0.41608 0.78316 0.44921 0.0
C347 C 0.4192 0.77041 0.43371 0.0
C348 C 0.43792 0.77698 0.42376 0.0
C349 C 0.45266 0.79595 0.42893 0.0
C350 C 0.43098 0.80191 0.45352 0.0
H351 H 0.46689 0.80075 0.42097 0.0
H352 H 0.42776 0.8113 0.465 0.0
H353 H 0.4837 0.87211 0.41926 0.0
H354 H 0.49684 0.85736 0.49451 0.0
C355 C 0.50602 0.83652 0.42091 0.0
C356 C 0.47171 0.80994 0.5033 0.0
C357 C 0.4499 0.83826 0.3896 0.0
C358 C 0.44387 0.8498 0.48298 0.0
H359 H 0.50461 0.80379 0.49537 0.0
H360 H 0.52462 0.82046 0.45174 0.0
H361 H 0.50768 0.8423 0.36419 0.0
H362 H 0.47577 0.84123 0.3469 0.0
H363 H 0.42367 0.85291 0.39884 0.0
H364 H 0.42162 0.86099 0.44991 0.0
H365 H 0.43879 0.8391 0.53861 0.0
H366 H 0.45247 0.81546 0.54885 0.0
H367 H 0.50454 0.90599 0.42818 0.0
H368 H 0.51687 0.89139 0.50575 0.0
H369 H 0.40214 0.77877 0.45808 0.0
H370 H 0.4411 0.76773 0.41161 0.0
C371 C 0.67276 0.4819 0.64982 0.0
C372 C 0.69158 0.49729 0.65007 0.0
C373 C 0.69351 0.50844 0.62823 0.0
C374 C 0.67595 0.49923 0.61565 0.0
N375 N 0.66316 0.483 0.62832 0.0
Co376 Co 0.63672 0.46465 0.61616 0.0
N377 N 0.64303 0.47411 0.57909 0.0
C378 C 0.65783 0.49122 0.57134 0.0
C379 C 0.65846 0.49374 0.54419 0.0
C380 C 0.64303 0.4772 0.53441 0.0
C381 C 0.63384 0.46549 0.55623 0.0
N382 N 0.61019 0.44652 0.60405 0.0
C383 C 0.60359 0.44033 0.57907 0.0
C384 C 0.58384 0.42766 0.57939 0.0
C385 C 0.57802 0.42606 0.60558 0.0
C386 C 0.59448 0.4378 0.61979 0.0
N387 N 0.63069 0.45512 0.65319 0.0
C388 C 0.61299 0.44538 0.66408 0.0
C389 C 0.61352 0.44015 0.69006 0.0
C390 C 0.63275 0.44706 0.6956 0.0
C391 C 0.64289 0.4561 0.67261 0.0
N392 N 0.62869 0.48381 0.62387 0.0
C393 C 0.61337 0.50784 0.63663 0.0
C394 C 0.62488 0.50482 0.65488 0.0
C395 C 0.63259 0.493 0.64801 0.0
C396 C 0.61025 0.49902 0.61157 0.0
C397 C 0.61785 0.48702 0.60569 0.0
N398 N 0.64421 0.44524 0.60863 0.0
C399 C 0.63636 0.41207 0.61054 0.0
C400 C 0.65385 0.41667 0.59833 0.0
C401 C 0.6666 0.43595 0.59154 0.0
C402 C 0.66139 0.45001 0.59658 0.0
C403 C 0.63193 0.42651 0.61576 0.0
H404 H 0.67121 0.46471 0.59072 0.0
H405 H 0.61847 0.42244 0.62563 0.0
H406 H 0.64134 0.49092 0.6625 0.0
H407 H 0.61446 0.47991 0.58659 0.0
C408 C 0.67248 0.50271 0.5894 0.0
C409 C 0.66407 0.46662 0.67016 0.0
C410 C 0.61563 0.44708 0.55491 0.0
C411 C 0.59652 0.43816 0.64773 0.0
H412 H 0.70295 0.50009 0.66401 0.0
H413 H 0.70658 0.52101 0.62139 0.0
H414 H 0.66924 0.50578 0.53275 0.0
H415 H 0.63893 0.47417 0.51366 0.0
H416 H 0.57465 0.42036 0.56251 0.0
H417 H 0.56366 0.41676 0.61339 0.0
H418 H 0.60138 0.4315 0.70301 0.0
H419 H 0.63863 0.44562 0.71429 0.0
H420 H 0.62789 0.51152 0.67438 0.0
H421 H 0.60137 0.5008 0.59686 0.0
H422 H 0.62622 0.39737 0.61633 0.0
H423 H 0.68027 0.44004 0.58198 0.0
C424 C 0.19384 0.67031 0.81689 0.0
C425 C 0.19701 0.68901 0.81693 0.0
C426 C 0.18774 0.69066 0.79492 0.0
C427 C 0.17959 0.67302 0.78254 0.0
N428 N 0.18318 0.66047 0.7955 0.0
Co429 Co 0.17529 0.63397 0.78397 0.0
N430 N 0.17213 0.63982 0.74672 0.0
C431 C 0.16953 0.65436 0.7386 0.0
C432 C 0.16748 0.65458 0.71144 0.0
C433 C 0.16876 0.63915 0.70205 0.0
C434 C 0.17162 0.6304 0.7241 0.0
N435 N 0.16727 0.60742 0.77246 0.0
C436 C 0.16709 0.60061 0.74765 0.0
C437 C 0.16054 0.58099 0.74847 0.0
C438 C 0.15629 0.57545 0.77473 0.0
C439 C 0.16053 0.59194 0.78853 0.0
N440 N 0.17864 0.62841 0.8213 0.0
C441 C 0.17075 0.61088 0.83258 0.0
C442 C 0.17656 0.61178 0.85861 0.0
C443 C 0.18882 0.63107 0.86375 0.0
C444 C 0.18986 0.64086 0.84049 0.0
N445 N 0.14801 0.62584 0.79133 0.0
C446 C 0.1086 0.61059 0.80369 0.0
C447 C 0.12304 0.62237 0.82188 0.0
C448 C 0.1426 0.63006 0.81519 0.0
C449 C 0.1144 0.60712 0.7789 0.0
C450 C 0.13404 0.61468 0.77324 0.0
N451 N 0.20229 0.64159 0.77685 0.0
C452 C 0.22853 0.63535 0.78281 0.0
C453 C 0.24102 0.65202 0.7686 0.0
C454 C 0.23365 0.6633 0.75821 0.0
C455 C 0.21426 0.65792 0.76279 0.0
C456 C 0.20931 0.63033 0.78647 0.0
H457 H 0.20894 0.66696 0.75507 0.0
H458 H 0.20012 0.61727 0.79726 0.0
H459 H 0.15337 0.63906 0.82961 0.0
H460 H 0.13786 0.61102 0.75437 0.0
C461 C 0.17257 0.6692 0.75631 0.0
C462 C 0.20061 0.66194 0.83736 0.0
C463 C 0.17214 0.61235 0.72321 0.0
C464 C 0.16191 0.59426 0.81646 0.0
H465 H 0.20537 0.70043 0.83095 0.0
H466 H 0.18803 0.70357 0.7879 0.0
H467 H 0.16595 0.66508 0.69973 0.0
H468 H 0.16755 0.63474 0.68142 0.0
H469 H 0.15903 0.57166 0.73192 0.0
H470 H 0.15154 0.56126 0.78288 0.0
H471 H 0.17321 0.59983 0.87182 0.0
H472 H 0.19624 0.63722 0.88232 0.0
H473 H 0.11924 0.62561 0.84117 0.0
H474 H 0.10379 0.59802 0.76428 0.0
H475 H 0.23351 0.62604 0.79076 0.0
H476 H 0.24285 0.6763 0.74706 0.0
C477 C 0.52997 0.19188 0.98647 0.0
C478 C 0.51465 0.19539 0.98753 0.0
C479 C 0.50313 0.1862 0.96594 0.0
C480 C 0.51206 0.17775 0.95277 0.0
N481 N 0.52843 0.18109 0.96486 0.0
Co482 Co 0.54653 0.17288 0.9519 0.0
N483 N 0.53673 0.16993 0.9151 0.0
C484 C 0.51954 0.16768 0.90793 0.0
C485 C 0.51667 0.16575 0.88085 0.0
C486 C 0.53306 0.16674 0.87049 0.0
C487 C 0.54506 0.16929 0.89192 0.0
N488 N 0.56449 0.16445 0.93901 0.0
C489 C 0.57045 0.16408 0.91382 0.0
C490 C 0.58324 0.15715 0.91364 0.0
C491 C 0.58505 0.15286 0.93967 0.0
C492 C 0.57336 0.15744 0.95432 0.0
N493 N 0.55632 0.17613 0.98873 0.0
C494 C 0.56604 0.16805 0.99916 0.0
C495 C 0.5717 0.17393 0.02501 0.0
C496 C 0.56511 0.18646 0.03091 0.0
C497 C 0.55583 0.18756 0.00827 0.0
N498 N 0.52728 0.14573 0.95948 0.0
C499 C 0.50315 0.1064 0.97198 0.0
C500 C 0.50633 0.12088 0.99046 0.0
C501 C 0.51821 0.1404 0.98372 0.0
C502 C 0.51186 0.11215 0.94684 0.0
C503 C 0.52391 0.13174 0.94108 0.0
N504 N 0.56599 0.19975 0.94453 0.0
C505 C 0.59905 0.22518 0.94768 0.0
C506 C 0.5947 0.23809 0.93498 0.0
C507 C 0.57548 0.23142 0.92747 0.0
C508 C 0.56135 0.21215 0.9323 0.0
C509 C 0.58461 0.20623 0.95221 0.0
H510 H 0.5467 0.20724 0.92612 0.0
H511 H 0.58859 0.19681 0.96209 0.0
H512 H 0.52043 0.15119 0.99839 0.0
H513 H 0.53093 0.1355 0.92189 0.0
C514 C 0.50826 0.17086 0.92647 0.0
C515 C 0.54567 0.19855 0.00609 0.0
C516 C 0.56338 0.1693 0.88994 0.0
C517 C 0.57315 0.15892 0.98233 0.0
H518 H 0.51214 0.20397 0.00188 0.0
H519 H 0.4905 0.18678 0.95966 0.0
H520 H 0.50448 0.16448 0.86983 0.0
H521 H 0.53576 0.16554 0.84962 0.0
H522 H 0.59052 0.15541 0.89657 0.0
H523 H 0.59446 0.14784 0.94709 0.0
H524 H 0.58053 0.17045 0.03755 0.0
H525 H 0.567 0.194 0.04957 0.0
H526 H 0.49972 0.11715 0.01003 0.0
H527 H 0.50998 0.10154 0.93196 0.0
H528 H 0.61356 0.22971 0.95436 0.0
H529 H 0.57146 0.24088 0.91752 0.0
C530 C 0.3442 0.52891 0.15389 0.0
C531 C 0.32565 0.51334 0.15635 0.0
C532 C 0.32282 0.50157 0.13481 0.0
C533 C 0.33978 0.51058 0.12053 0.0
N534 N 0.35298 0.52716 0.13192 0.0
Co535 Co 0.37904 0.54502 0.11821 0.0
N536 N 0.37152 0.53485 0.08165 0.0
C537 C 0.35639 0.51763 0.075 0.0
C538 C 0.35492 0.51454 0.04793 0.0
C539 C 0.37014 0.53078 0.03706 0.0
C540 C 0.38008 0.54291 0.05818 0.0
N541 N 0.4052 0.56281 0.10446 0.0
C542 C 0.4111 0.56841 0.07906 0.0
C543 C 0.43085 0.58103 0.07816 0.0
C544 C 0.4374 0.58317 0.10399 0.0
C545 C 0.42135 0.5718 0.11922 0.0
N546 N 0.38622 0.55507 0.15494 0.0
C547 C 0.40423 0.56498 0.16469 0.0
C548 C 0.40451 0.5712 0.19035 0.0
C549 C 0.3855 0.56479 0.19688 0.0
C550 C 0.37463 0.55487 0.17484 0.0
N551 N 0.38704 0.52582 0.12549 0.0
C552 C 0.40228 0.50166 0.13754 0.0
C553 C 0.39125 0.50504 0.15631 0.0
C554 C 0.38358 0.51692 0.1498 0.0
C555 C 0.40495 0.5102 0.11234 0.0
C556 C 0.39738 0.52225 0.1068 0.0
N557 N 0.37153 0.56445 0.11117 0.0
C558 C 0.3783 0.59711 0.11653 0.0
C559 C 0.36091 0.59264 0.10419 0.0
C560 C 0.34905 0.5738 0.09482 0.0
C561 C 0.35455 0.55984 0.09874 0.0
C562 C 0.38341 0.58296 0.11955 0.0
H563 H 0.34503 0.5453 0.09199 0.0
H564 H 0.39696 0.58701 0.12904 0.0
H565 H 0.37523 0.51929 0.1647 0.0
H566 H 0.40039 0.52912 0.08754 0.0
C567 C 0.3423 0.50648 0.09409 0.0
C568 C 0.35341 0.54487 0.17295 0.0
C569 C 0.39841 0.56112 0.05561 0.0
C570 C 0.42016 0.5719 0.14726 0.0
H571 H 0.31526 0.51091 0.17186 0.0
H572 H 0.30959 0.48863 0.12943 0.0
H573 H 0.34375 0.50229 0.03728 0.0
H574 H 0.37363 0.5333 0.01605 0.0
H575 H 0.43958 0.58794 0.06072 0.0
H576 H 0.45199 0.59255 0.1109 0.0
H577 H 0.41706 0.58042 0.20226 0.0
H578 H 0.38041 0.56748 0.21549 0.0
H579 H 0.38859 0.49857 0.17594 0.0
H580 H 0.41346 0.50815 0.09724 0.0
H581 H 0.38802 0.61157 0.12366 0.0
H582 H 0.33548 0.5698 0.08512 0.0
C583 C 0.81963 0.33976 0.31994 0.0
C584 C 0.81732 0.32145 0.32182 0.0
C585 C 0.82694 0.31943 0.30038 0.0
C586 C 0.83462 0.33661 0.28675 0.0
N587 N 0.83044 0.34916 0.29847 0.0
Co588 Co 0.83802 0.37524 0.28573 0.0
N589 N 0.84143 0.36864 0.24898 0.0
C590 C 0.84438 0.35411 0.24188 0.0
C591 C 0.84652 0.35328 0.2148 0.0
C592 C 0.84492 0.36829 0.20441 0.0
C593 C 0.84184 0.37744 0.22583 0.0
N594 N 0.84563 0.4014 0.27291 0.0
C595 C 0.84575 0.40757 0.24774 0.0
C596 C 0.85205 0.42715 0.24757 0.0
C597 C 0.85618 0.43333 0.27361 0.0
C598 C 0.85215 0.41722 0.28823 0.0
N599 N 0.8345 0.38149 0.32269 0.0
C600 C 0.84199 0.39928 0.33308 0.0
C601 C 0.8353 0.39891 0.35847 0.0
C602 C 0.82287 0.37975 0.36414 0.0
C603 C 0.82277 0.36937 0.34192 0.0
N604 N 0.86535 0.3839 0.29328 0.0
C605 C 0.90475 0.39978 0.30579 0.0
C606 C 0.89033 0.38675 0.32314 0.0
C607 C 0.87075 0.37911 0.31664 0.0
C608 C 0.89896 0.40409 0.28166 0.0
C609 C 0.87933 0.39588 0.27568 0.0
N610 N 0.81096 0.36708 0.27837 0.0
C611 C 0.78449 0.37306 0.28325 0.0
C612 C 0.77206 0.35582 0.27019 0.0
C613 C 0.77961 0.34439 0.26085 0.0
C614 C 0.7991 0.35023 0.26532 0.0
C615 C 0.80377 0.37845 0.28696 0.0
H616 H 0.80458 0.34111 0.2584 0.0
H617 H 0.81286 0.39188 0.297 0.0
H618 H 0.85995 0.36966 0.33077 0.0
H619 H 0.8755 0.39964 0.25695 0.0
C620 C 0.84171 0.33985 0.26048 0.0
C621 C 0.81197 0.34816 0.33906 0.0
C622 C 0.84101 0.39531 0.22385 0.0
C623 C 0.85068 0.41551 0.31621 0.0
H624 H 0.80932 0.31067 0.33685 0.0
H625 H 0.82726 0.30658 0.29461 0.0
H626 H 0.84832 0.34265 0.2038 0.0
H627 H 0.84609 0.37216 0.18355 0.0
H628 H 0.8535 0.43604 0.23052 0.0
H629 H 0.86074 0.44765 0.28105 0.0
H630 H 0.8379 0.41113 0.37064 0.0
H631 H 0.81454 0.37435 0.38224 0.0
H632 H 0.89414 0.383 0.34202 0.0
H633 H 0.90957 0.41383 0.26745 0.0
H634 H 0.77941 0.38254 0.29031 0.0
H635 H 0.77047 0.33095 0.2506 0.0
H636 H 0.25176 0.62784 0.422 0.0
H637 H 0.28413 0.65566 0.42555 0.0
H638 H 0.30856 0.62048 0.40268 0.0
H639 H 0.27589 0.59239 0.39834 0.0
H640 H 0.32884 0.64856 0.44589 0.0
H641 H 0.3054 0.64656 0.35607 0.0
H642 H 0.28128 0.64402 0.32327 0.0
H643 H 0.28316 0.69431 0.3565 0.0
H644 H 0.30704 0.69697 0.38973 0.0
H645 H 0.41942 0.73606 0.42906 0.0
H646 H 0.39175 0.70377 0.42164 0.0
H647 H 0.35399 0.72772 0.41944 0.0
H648 H 0.38146 0.75983 0.42464 0.0
H649 H 0.34255 0.7024 0.38438 0.0
H650 H 0.36035 0.70361 0.47622 0.0
H651 H 0.3823 0.70751 0.51318 0.0
H652 H 0.38873 0.66104 0.48224 0.0
H653 H 0.367 0.65704 0.44484 0.0
C654 C 0.26398 0.62594 0.41771 0.0
C655 C 0.26119 0.60793 0.40941 0.0
C656 C 0.2825 0.64187 0.41987 0.0
C657 C 0.29875 0.64025 0.41389 0.0
C658 C 0.29619 0.62207 0.40719 0.0
C659 C 0.27753 0.60603 0.40484 0.0
C660 C 0.31814 0.6579 0.41322 0.0
C661 C 0.33206 0.66023 0.43213 0.0
C662 C 0.3221 0.67331 0.39575 0.0
C663 C 0.30792 0.67186 0.37549 0.0
C664 C 0.30056 0.65697 0.35648 0.0
C665 C 0.28695 0.65553 0.33781 0.0
C666 C 0.28068 0.66896 0.33784 0.0
C667 C 0.28803 0.6839 0.3565 0.0
C668 C 0.30162 0.6854 0.37523 0.0
C669 C 0.40526 0.73447 0.42654 0.0
C670 C 0.40275 0.75065 0.42792 0.0
C671 C 0.38937 0.71592 0.42266 0.0
C672 C 0.37059 0.71311 0.42051 0.0
C673 C 0.36822 0.72933 0.42116 0.0
C674 C 0.38402 0.74778 0.42454 0.0
C675 C 0.35322 0.6935 0.41769 0.0
C676 C 0.33961 0.69072 0.39798 0.0
C677 C 0.34935 0.67795 0.435 0.0
C678 C 0.36226 0.68019 0.45755 0.0
C679 C 0.36655 0.69431 0.4772 0.0
C680 C 0.37894 0.69653 0.49823 0.0
C681 C 0.38696 0.68458 0.49999 0.0
C682 C 0.38254 0.67032 0.48079 0.0
C683 C 0.37019 0.66807 0.45967 0.0
H684 H 0.39656 0.68635 0.51626 0.0
H685 H 0.27014 0.66781 0.32338 0.0
H686 H 0.67676 0.26631 0.60233 0.0
H687 H 0.68288 0.2993 0.60686 0.0
H688 H 0.64508 0.29013 0.54039 0.0
H689 H 0.64034 0.25804 0.53428 0.0
H690 H 0.6719 0.324 0.53681 0.0
H691 H 0.63183 0.28721 0.61085 0.0
H692 H 0.62335 0.26686 0.65109 0.0
H693 H 0.67353 0.31087 0.69105 0.0
H694 H 0.68242 0.33139 0.65091 0.0
H695 H 0.63276 0.38435 0.56885 0.0
H696 H 0.63828 0.35712 0.56266 0.0
H697 H 0.68994 0.38613 0.61013 0.0
H698 H 0.68466 0.41372 0.61586 0.0
H699 H 0.66155 0.34557 0.62493 0.0
H700 H 0.69739 0.38389 0.54949 0.0
H701 H 0.70204 0.40314 0.50896 0.0
H702 H 0.65484 0.35423 0.47117 0.0
H703 H 0.64972 0.33476 0.51163 0.0
C704 C 0.67004 0.27142 0.58834 0.0
C705 C 0.6577 0.25918 0.56827 0.0
C706 C 0.67334 0.29028 0.5912 0.0
C707 C 0.66405 0.29721 0.57445 0.0
C708 C 0.65235 0.28525 0.55381 0.0
C709 C 0.64939 0.26664 0.5506 0.0
C710 C 0.66593 0.31661 0.57845 0.0
C711 C 0.66952 0.32858 0.55612 0.0
C712 C 0.66324 0.32301 0.60366 0.0
C713 C 0.65791 0.31072 0.62779 0.0
C714 C 0.64112 0.29248 0.62816 0.0
C715 C 0.63623 0.28093 0.65095 0.0
C716 C 0.64793 0.28754 0.67358 0.0
C717 C 0.66451 0.30575 0.67349 0.0
C718 C 0.66948 0.31735 0.65073 0.0
C719 C 0.64543 0.38501 0.57765 0.0
C720 C 0.65835 0.40114 0.5927 0.0
C721 C 0.64857 0.36947 0.57412 0.0
C722 C 0.66452 0.36961 0.58592 0.0
C723 C 0.67756 0.38577 0.60083 0.0
C724 C 0.67462 0.40153 0.60394 0.0
C725 C 0.66701 0.35248 0.58324 0.0
C726 C 0.66422 0.34101 0.60578 0.0
C727 C 0.66991 0.34628 0.55814 0.0
C728 C 0.67309 0.35791 0.53368 0.0
C729 C 0.68791 0.37728 0.53261 0.0
C730 C 0.69065 0.38822 0.50963 0.0
C731 C 0.67873 0.37992 0.48752 0.0
C732 C 0.66407 0.36064 0.48831 0.0
C733 C 0.66126 0.34964 0.51125 0.0
H734 H 0.68086 0.38842 0.46975 0.0
H735 H 0.64412 0.27858 0.6912 0.0
H736 H 0.26158 0.66134 0.72189 0.0
H737 H 0.29383 0.66548 0.71474 0.0
H738 H 0.2986 0.65793 0.79894 0.0
H739 H 0.26644 0.65374 0.80614 0.0
H740 H 0.33334 0.6871 0.77613 0.0
H741 H 0.2848 0.62073 0.75997 0.0
H742 H 0.25568 0.59484 0.73836 0.0
H743 H 0.28274 0.61304 0.66164 0.0
H744 H 0.31193 0.63925 0.68278 0.0
H745 H 0.40515 0.65894 0.77824 0.0
H746 H 0.37707 0.66324 0.78367 0.0
H747 H 0.36844 0.65865 0.69845 0.0
H748 H 0.396 0.65359 0.69323 0.0
H749 H 0.336 0.63731 0.72037 0.0
H750 H 0.38533 0.70251 0.73555 0.0
H751 H 0.41444 0.72906 0.75623 0.0
H752 H 0.38667 0.7145 0.83283 0.0
H753 H 0.35748 0.68768 0.81268 0.0
C754 C 0.26969 0.66094 0.7389 0.0
C755 C 0.26145 0.65709 0.76453 0.0
C756 C 0.28805 0.6632 0.73479 0.0
C757 C 0.29857 0.66184 0.75628 0.0
C758 C 0.29078 0.65902 0.78207 0.0
C759 C 0.27236 0.65653 0.78613 0.0
C760 C 0.31704 0.66195 0.75178 0.0
C761 C 0.33396 0.67617 0.76408 0.0
C762 C 0.31792 0.64792 0.73563 0.0
C763 C 0.30045 0.63208 0.72292 0.0
C764 C 0.28448 0.61931 0.73847 0.0
C765 C 0.26797 0.60457 0.72631 0.0
C766 C 0.26734 0.60233 0.69864 0.0
C767 C 0.28324 0.61481 0.68307 0.0
C768 C 0.29976 0.62961 0.69513 0.0
C769 C 0.39743 0.65919 0.76069 0.0
C770 C 0.40272 0.65592 0.73533 0.0
C771 C 0.38138 0.6617 0.76375 0.0
C772 C 0.37058 0.66143 0.74145 0.0
C773 C 0.37637 0.65883 0.71603 0.0
C774 C 0.39217 0.65601 0.71302 0.0
C775 C 0.35258 0.66259 0.74459 0.0
C776 C 0.33561 0.64847 0.73217 0.0
C777 C 0.35175 0.67684 0.76044 0.0
C778 C 0.36927 0.69297 0.77263 0.0
C779 C 0.38548 0.70488 0.75684 0.0
C780 C 0.40199 0.71999 0.76846 0.0
C781 C 0.40242 0.72344 0.79583 0.0
C782 C 0.38633 0.7118 0.81163 0.0
C783 C 0.36979 0.69665 0.80012 0.0
H784 H 0.41522 0.73515 0.80479 0.0
H785 H 0.25455 0.59091 0.68926 0.0
H786 H 0.75987 0.37847 0.91889 0.0
H787 H 0.72702 0.35156 0.92294 0.0
H788 H 0.70472 0.39021 0.91299 0.0
H789 H 0.73776 0.41739 0.90761 0.0
H790 H 0.68737 0.35686 0.95784 0.0
H791 H 0.69911 0.37027 0.86344 0.0
H792 H 0.71897 0.37788 0.82275 0.0
H793 H 0.72054 0.32536 0.83135 0.0
H794 H 0.70098 0.31762 0.8724 0.0
H795 H 0.59414 0.272 0.94126 0.0
H796 H 0.62116 0.30501 0.93541 0.0
H797 H 0.65785 0.2824 0.91159 0.0
H798 H 0.63092 0.2497 0.91642 0.0
H799 H 0.66517 0.31149 0.88137 0.0
H800 H 0.65708 0.29888 0.97594 0.0
H801 H 0.63932 0.29057 0.01858 0.0
H802 H 0.6326 0.34032 0.0121 0.0
H803 H 0.64999 0.34872 0.96909 0.0
C804 C 0.74806 0.38137 0.91739 0.0
C805 C 0.75156 0.40015 0.91233 0.0
C806 C 0.72927 0.36594 0.92001 0.0
C807 C 0.71346 0.36887 0.91811 0.0
C808 C 0.71677 0.38768 0.91457 0.0
C809 C 0.73567 0.40319 0.91157 0.0
C810 C 0.69366 0.35189 0.91786 0.0
C811 C 0.68222 0.34712 0.94093 0.0
C812 C 0.68723 0.33902 0.89602 0.0
C813 C 0.69872 0.34346 0.87111 0.0
C814 C 0.70383 0.36043 0.85678 0.0
C815 C 0.71501 0.36475 0.83364 0.0
C816 C 0.72105 0.35213 0.8245 0.0
C817 C 0.71587 0.33513 0.83846 0.0
C818 C 0.70472 0.33076 0.86166 0.0
C819 C 0.6079 0.27413 0.93436 0.0
C820 C 0.61041 0.2582 0.92958 0.0
C821 C 0.62339 0.293 0.93126 0.0
C822 C 0.6417 0.29628 0.9234 0.0
C823 C 0.64396 0.28035 0.91774 0.0
C824 C 0.62855 0.2616 0.92075 0.0
C825 C 0.65881 0.3161 0.92159 0.0
C826 C 0.66992 0.32137 0.89812 0.0
C827 C 0.66499 0.32927 0.94323 0.0
C828 C 0.65461 0.32429 0.96913 0.0
C829 C 0.65167 0.30796 0.98348 0.0
C830 C 0.64168 0.30324 0.00773 0.0
C831 C 0.6348 0.31489 0.01801 0.0
C832 C 0.63793 0.33131 0.0041 0.0
C833 C 0.64781 0.33603 0.97976 0.0
H834 H 0.62708 0.31121 0.03679 0.0
H835 H 0.7297 0.35549 0.80658 0.0
H836 H 0.34934 0.74828 0.11522 0.0
H837 H 0.34539 0.71614 0.12226 0.0
H838 H 0.35195 0.71093 0.03782 0.0
H839 H 0.35611 0.74308 0.03076 0.0
H840 H 0.32254 0.67602 0.06269 0.0
H841 H 0.38957 0.725 0.07371 0.0
H842 H 0.4161 0.75462 0.09338 0.0
H843 H 0.40068 0.72931 0.17139 0.0
H844 H 0.37384 0.69962 0.1522 0.0
H845 H 0.35076 0.60432 0.05874 0.0
H846 H 0.34619 0.63221 0.0535 0.0
H847 H 0.3543 0.64299 0.13815 0.0
H848 H 0.35961 0.61563 0.14313 0.0
H849 H 0.37465 0.67481 0.11449 0.0
H850 H 0.30894 0.6252 0.10479 0.0
H851 H 0.28154 0.59559 0.08653 0.0
H852 H 0.29278 0.62125 0.00868 0.0
H853 H 0.32043 0.65094 0.0264 0.0
C854 C 0.34955 0.74009 0.09814 0.0
C855 C 0.35312 0.74817 0.07247 0.0
C856 C 0.34738 0.72179 0.10218 0.0
C857 C 0.3485 0.71119 0.08057 0.0
C858 C 0.35101 0.71883 0.05476 0.0
C859 C 0.35347 0.73721 0.05077 0.0
C860 C 0.34863 0.69289 0.085 0.0
C861 C 0.33397 0.67571 0.07386 0.0
C862 C 0.36333 0.69243 0.10005 0.0
C863 C 0.37957 0.71018 0.11156 0.0
C864 C 0.39173 0.72581 0.09508 0.0
C865 C 0.40684 0.7426 0.10614 0.0
C866 C 0.41004 0.74387 0.13363 0.0
C867 C 0.39816 0.72832 0.15011 0.0
C868 C 0.38301 0.71151 0.13915 0.0
C869 C 0.35123 0.61249 0.07623 0.0
C870 C 0.35556 0.60785 0.10132 0.0
C871 C 0.34857 0.62842 0.07328 0.0
C872 C 0.34975 0.63976 0.09546 0.0
C873 C 0.35341 0.63463 0.12066 0.0
C874 C 0.35638 0.61894 0.12353 0.0
C875 C 0.34842 0.65763 0.09232 0.0
C876 C 0.363 0.67488 0.10356 0.0
C877 C 0.3335 0.65805 0.07763 0.0
C878 C 0.31687 0.64023 0.06689 0.0
C879 C 0.30566 0.62448 0.08373 0.0
C880 C 0.29007 0.60769 0.07348 0.0
C881 C 0.28545 0.60652 0.04645 0.0
C882 C 0.29639 0.62217 0.02961 0.0
C883 C 0.31201 0.63899 0.03976 0.0
H884 H 0.27338 0.59351 0.03855 0.0
H885 H 0.42174 0.75687 0.14215 0.0
H886 H 0.75076 0.34331 0.22427 0.0
H887 H 0.71838 0.33866 0.21656 0.0
H888 H 0.71506 0.3521 0.29896 0.0
H889 H 0.74715 0.35642 0.30688 0.0
H890 H 0.67982 0.3207 0.27852 0.0
H891 H 0.72823 0.38633 0.25667 0.0
H892 H 0.75713 0.41095 0.23299 0.0
H893 H 0.72921 0.38873 0.15779 0.0
H894 H 0.70023 0.36377 0.18105 0.0
H895 H 0.60889 0.34971 0.27792 0.0
H896 H 0.6367 0.34503 0.28352 0.0
H897 H 0.64397 0.34659 0.19804 0.0
H898 H 0.61678 0.35221 0.19266 0.0
H899 H 0.67671 0.36802 0.21806 0.0
H900 H 0.62717 0.304 0.23858 0.0
H901 H 0.59827 0.27848 0.26117 0.0
H902 H 0.62735 0.29561 0.33657 0.0
H903 H 0.65634 0.32143 0.31449 0.0
C904 C 0.74292 0.34481 0.24085 0.0
C905 C 0.75154 0.35036 0.26613 0.0
C906 C 0.72449 0.34226 0.23641 0.0
C907 C 0.71434 0.34509 0.2572 0.0
C908 C 0.72256 0.34972 0.2827 0.0
C909 C 0.74096 0.35234 0.28713 0.0
C910 C 0.69584 0.34468 0.2521 0.0
C911 C 0.67907 0.33107 0.26541 0.0
C912 C 0.69483 0.35794 0.23455 0.0
C913 C 0.71216 0.37305 0.22058 0.0
C914 C 0.72832 0.3866 0.23508 0.0
C915 C 0.7447 0.40063 0.22174 0.0
C916 C 0.74503 0.40137 0.1939 0.0
C917 C 0.72895 0.38811 0.17935 0.0
C918 C 0.71254 0.37403 0.1926 0.0
C919 C 0.61627 0.34871 0.26038 0.0
C920 C 0.61074 0.35129 0.23488 0.0
C921 C 0.63214 0.34596 0.26354 0.0
C922 C 0.64246 0.34525 0.24119 0.0
C923 C 0.63639 0.34715 0.21565 0.0
C924 C 0.6208 0.35027 0.21254 0.0
C925 C 0.66034 0.34392 0.2444 0.0
C926 C 0.67716 0.35736 0.23088 0.0
C927 C 0.66128 0.33032 0.26152 0.0
C928 C 0.64387 0.31478 0.27489 0.0
C929 C 0.62736 0.30243 0.26 0.0
C930 C 0.61097 0.28789 0.27272 0.0
C931 C 0.61096 0.28546 0.3003 0.0
C932 C 0.62736 0.29753 0.31521 0.0
C933 C 0.64379 0.31211 0.3026 0.0
H934 H 0.59825 0.27419 0.3101 0.0
H935 H 0.75772 0.41224 0.1836 0.0
H936 H 0.20344 0.62536 0.69089 0.0
H937 H 0.20428 0.61649 0.64425 0.0
H938 H 0.14367 0.57419 0.64852 0.0
H939 H 0.14294 0.58299 0.69525 0.0
H940 H 0.16278 0.56059 0.6196 0.0
H941 H 0.15883 0.61831 0.62145 0.0
H942 H 0.1687 0.65167 0.63445 0.0
H943 H 0.22372 0.67188 0.59667 0.0
H944 H 0.21426 0.63858 0.58371 0.0
H945 H 0.14213 0.55011 0.48134 0.0
H946 H 0.1426 0.55923 0.52823 0.0
H947 H 0.20424 0.59694 0.52349 0.0
H948 H 0.20372 0.58764 0.47655 0.0
H949 H 0.18513 0.61295 0.55243 0.0
H950 H 0.18831 0.55465 0.55014 0.0
H951 H 0.17763 0.52119 0.53672 0.0
H952 H 0.12297 0.502 0.57503 0.0
H953 H 0.13324 0.53542 0.5884 0.0
C954 C 0.19045 0.61385 0.68197 0.0
C955 C 0.17323 0.60459 0.69669 0.0
C956 C 0.19087 0.60891 0.65529 0.0
C957 C 0.17397 0.59483 0.64268 0.0
C958 C 0.1569 0.58505 0.65775 0.0
C959 C 0.1565 0.58998 0.68447 0.0
C960 C 0.17387 0.59095 0.61355 0.0
C961 C 0.16747 0.57202 0.60494 0.0
C962 C 0.18025 0.60588 0.5943 0.0
C963 C 0.18591 0.62593 0.60183 0.0
C964 C 0.17308 0.62985 0.61606 0.0
C965 C 0.17859 0.64875 0.6234 0.0
C966 C 0.19684 0.66387 0.61647 0.0
C967 C 0.2096 0.66014 0.60207 0.0
C968 C 0.20416 0.64126 0.59469 0.0
C969 C 0.15568 0.56063 0.49026 0.0
C970 C 0.17288 0.56831 0.47551 0.0
C971 C 0.15598 0.56573 0.51703 0.0
C972 C 0.17349 0.57863 0.52947 0.0
C973 C 0.19058 0.58698 0.51432 0.0
C974 C 0.19029 0.58172 0.48757 0.0
C975 C 0.17404 0.58263 0.55857 0.0
C976 C 0.1805 0.60156 0.56715 0.0
C977 C 0.16761 0.5677 0.57777 0.0
C978 C 0.16148 0.54756 0.57005 0.0
C979 C 0.17396 0.54331 0.55555 0.0
C980 C 0.168 0.52435 0.54799 0.0
C981 C 0.14962 0.50949 0.55496 0.0
C982 C 0.13719 0.51354 0.56961 0.0
C983 C 0.14309 0.53249 0.57722 0.0
H984 H 0.14501 0.49482 0.54905 0.0
H985 H 0.20109 0.67849 0.62219 0.0
H986 H 0.59751 0.13853 0.64826 0.0
H987 H 0.58869 0.13893 0.69505 0.0
H988 H 0.61501 0.20086 0.69165 0.0
H989 H 0.62427 0.20037 0.64498 0.0
H990 H 0.625 0.19113 0.73611 0.0
H991 H 0.5649 0.16995 0.69173 0.0
H992 H 0.53792 0.14967 0.66167 0.0
H993 H 0.5245 0.09976 0.70874 0.0
H994 H 0.5516 0.11969 0.73887 0.0
H995 H 0.58285 0.20038 0.85758 0.0
H996 H 0.59274 0.20077 0.81106 0.0
H997 H 0.5707 0.13945 0.81473 0.0
H998 H 0.5607 0.13912 0.86118 0.0
H999 H 0.55853 0.14932 0.77024 0.0
H1000 H 0.61914 0.1712 0.81459 0.0
H1001 H 0.64596 0.19204 0.84454 0.0
H1002 H 0.65797 0.2415 0.79734 0.0
H1003 H 0.63103 0.22098 0.76729 0.0
C1004 C 0.60114 0.15215 0.65753 0.0
C1005 C 0.61127 0.1694 0.64312 0.0
C1006 C 0.59611 0.1524 0.68422 0.0
C1007 C 0.60092 0.16991 0.69693 0.0
C1008 C 0.61106 0.18716 0.68237 0.0
C1009 C 0.61623 0.1869 0.65571 0.0
C1010 C 0.59578 0.17023 0.72552 0.0
C1011 C 0.6104 0.18218 0.74345 0.0
C1012 C 0.57681 0.1583 0.73539 0.0
C1013 C 0.5604 0.14629 0.71742 0.0
C1014 C 0.55629 0.15462 0.69557 0.0
C1015 C 0.54096 0.1432 0.67852 0.0
C1016 C 0.52953 0.12343 0.68325 0.0
C1017 C 0.53338 0.11506 0.70508 0.0
C1018 C 0.54871 0.12642 0.72216 0.0
C1019 C 0.58051 0.1871 0.84851 0.0
C1020 C 0.57146 0.16981 0.863 0.0
C1021 C 0.58611 0.1873 0.82197 0.0
C1022 C 0.58264 0.17016 0.80939 0.0
C1023 C 0.57362 0.15287 0.82399 0.0
C1024 C 0.56809 0.1527 0.85055 0.0
C1025 C 0.58776 0.17014 0.78076 0.0
C1026 C 0.57313 0.15826 0.76285 0.0
C1027 C 0.60667 0.18223 0.77088 0.0
C1028 C 0.62295 0.19457 0.78884 0.0
C1029 C 0.6274 0.18654 0.81071 0.0
C1030 C 0.64265 0.19829 0.82769 0.0
C1031 C 0.65363 0.21809 0.82289 0.0
C1032 C 0.64943 0.22616 0.80105 0.0
C1033 C 0.63419 0.21448 0.78403 0.0
H1034 H 0.66543 0.22716 0.83605 0.0
H1035 H 0.51767 0.11461 0.67004 0.0
H1036 H 0.38879 0.58292 0.02486 0.0
H1037 H 0.39713 0.59182 0.97787 0.0
H1038 H 0.43126 0.5638 0.97777 0.0
H1039 H 0.42331 0.55543 0.02499 0.0
H1040 H 0.44889 0.5955 0.94905 0.0
H1041 H 0.3847 0.54183 0.95313 0.0
H1042 H 0.35084 0.52392 0.96814 0.0
H1043 H 0.34052 0.56686 0.93324 0.0
H1044 H 0.37445 0.58523 0.91842 0.0
H1045 H 0.45238 0.58552 0.80889 0.0
H1046 H 0.44344 0.57661 0.85579 0.0
H1047 H 0.41645 0.61163 0.85783 0.0
H1048 H 0.42551 0.62058 0.81092 0.0
H1049 H 0.39504 0.57619 0.88512 0.0
H1050 H 0.46024 0.62978 0.88161 0.0
H1051 H 0.49415 0.64671 0.86662 0.0
H1052 H 0.50216 0.60185 0.8999 0.0
H1053 H 0.46822 0.58454 0.91485 0.0
C1054 C 0.39839 0.57907 0.01484 0.0
C1055 C 0.40564 0.56876 0.02844 0.0
C1056 C 0.40301 0.58396 0.98796 0.0
C1057 C 0.41458 0.57821 0.97402 0.0
C1058 C 0.42233 0.56842 0.98798 0.0
C1059 C 0.41784 0.56369 0.01493 0.0
C1060 C 0.41803 0.58175 0.94475 0.0
C1061 C 0.43707 0.59105 0.9351 0.0
C1062 C 0.40267 0.57618 0.92638 0.0
C1063 C 0.38217 0.565 0.93487 0.0
C1064 C 0.37525 0.54752 0.94879 0.0
C1065 C 0.35604 0.53728 0.95726 0.0
C1066 C 0.34354 0.54427 0.95169 0.0
C1067 C 0.35022 0.56148 0.93757 0.0
C1068 C 0.36944 0.57181 0.92911 0.0
C1069 C 0.44412 0.59088 0.81925 0.0
C1070 C 0.43932 0.60346 0.80635 0.0
C1071 C 0.43917 0.58594 0.84604 0.0
C1072 C 0.4294 0.59357 0.86041 0.0
C1073 C 0.42393 0.60553 0.84715 0.0
C1074 C 0.42903 0.61059 0.8204 0.0
C1075 C 0.42585 0.58994 0.88958 0.0
C1076 C 0.40681 0.58061 0.89915 0.0
C1077 C 0.44118 0.59529 0.90785 0.0
C1078 C 0.46164 0.60578 0.89913 0.0
C1079 C 0.4692 0.62346 0.88558 0.0
C1080 C 0.48843 0.63314 0.87712 0.0
C1081 C 0.50028 0.62533 0.88223 0.0
C1082 C 0.49295 0.60787 0.89592 0.0
C1083 C 0.47373 0.59813 0.90443 0.0
H1084 H 0.51516 0.63283 0.87563 0.0
H1085 H 0.32867 0.53632 0.95828 0.0
H1086 H 0.80978 0.38232 0.19156 0.0
H1087 H 0.8091 0.39086 0.14473 0.0
H1088 H 0.87008 0.43198 0.14814 0.0
H1089 H 0.8706 0.42361 0.1951 0.0
H1090 H 0.85217 0.44629 0.11944 0.0
H1091 H 0.85294 0.38703 0.1215 0.0
H1092 H 0.84169 0.35345 0.13486 0.0
H1093 H 0.78709 0.33523 0.09725 0.0
H1094 H 0.7979 0.36878 0.08403 0.0
H1095 H 0.8713 0.45549 0.9806 0.0
H1096 H 0.87099 0.44612 0.02732 0.0
H1097 H 0.80896 0.41114 0.02466 0.0
H1098 H 0.80932 0.4207 0.97793 0.0
H1099 H 0.82714 0.39355 0.05261 0.0
H1100 H 0.8271 0.45368 0.05117 0.0
H1101 H 0.83924 0.48743 0.0378 0.0
H1102 H 0.89398 0.50396 0.07381 0.0
H1103 H 0.88221 0.47024 0.08718 0.0
C1104 C 0.8229 0.39347 0.18236 0.0
C1105 C 0.84016 0.40256 0.1969 0.0
C1106 C 0.82257 0.39822 0.15559 0.0
C1107 C 0.83961 0.41189 0.14271 0.0
C1108 C 0.85675 0.42143 0.15757 0.0
C1109 C 0.85705 0.41672 0.1844 0.0
C1110 C 0.83973 0.41572 0.11356 0.0
C1111 C 0.84689 0.43476 0.10486 0.0
C1112 C 0.83262 0.40069 0.0944 0.0
C1113 C 0.82617 0.38045 0.10199 0.0
C1114 C 0.83849 0.37588 0.11622 0.0
C1115 C 0.8322 0.35685 0.12376 0.0
C1116 C 0.81367 0.34222 0.11696 0.0
C1117 C 0.80143 0.34659 0.10253 0.0
C1118 C 0.80763 0.36561 0.095 0.0
C1119 C 0.85768 0.44547 0.98992 0.0
C1120 C 0.84034 0.43863 0.97581 0.0
C1121 C 0.85748 0.44024 0.01658 0.0
C1122 C 0.83993 0.42805 0.02957 0.0
C1123 C 0.82265 0.42052 0.01505 0.0
C1124 C 0.82285 0.42592 0.98842 0.0
C1125 C 0.83956 0.42407 0.05863 0.0
C1126 C 0.83237 0.40503 0.06727 0.0
C1127 C 0.84679 0.43911 0.07773 0.0
C1128 C 0.85384 0.45941 0.06996 0.0
C1129 C 0.84177 0.46449 0.05609 0.0
C1130 C 0.84857 0.48362 0.04856 0.0
C1131 C 0.86739 0.49782 0.05488 0.0
C1132 C 0.87942 0.49294 0.06888 0.0
C1133 C 0.87268 0.47383 0.07649 0.0
H1134 H 0.87264 0.51261 0.04898 0.0
H1135 H 0.80883 0.3275 0.12282 0.0
H1136 H 0.38572 0.80626 0.14741 0.0
H1137 H 0.39456 0.80596 0.19419 0.0
H1138 H 0.43252 0.86758 0.19132 0.0
H1139 H 0.42395 0.86771 0.14437 0.0
H1140 H 0.44868 0.85166 0.21992 0.0
H1141 H 0.38682 0.84711 0.21798 0.0
H1142 H 0.35286 0.83353 0.20451 0.0
H1143 H 0.33857 0.77967 0.24145 0.0
H1144 H 0.37255 0.79284 0.25476 0.0
H1145 H 0.45619 0.86902 0.35926 0.0
H1146 H 0.44658 0.86858 0.31265 0.0
H1147 H 0.41545 0.80642 0.31381 0.0
H1148 H 0.42525 0.80692 0.36041 0.0
H1149 H 0.39567 0.82254 0.2865 0.0
H1150 H 0.45845 0.82785 0.28747 0.0
H1151 H 0.49258 0.84227 0.30064 0.0
H1152 H 0.50489 0.89624 0.26601 0.0
H1153 H 0.47078 0.88217 0.25278 0.0
C1154 C 0.39627 0.81962 0.15672 0.0
C1155 C 0.40442 0.83695 0.14234 0.0
C1156 C 0.40117 0.8195 0.18348 0.0
C1157 C 0.414 0.8368 0.19652 0.0
C1158 C 0.42262 0.85405 0.18179 0.0
C1159 C 0.4178 0.85413 0.15498 0.0
C1160 C 0.41788 0.83703 0.22567 0.0
C1161 C 0.43707 0.84549 0.23445 0.0
C1162 C 0.40277 0.82878 0.24478 0.0
C1163 C 0.38227 0.82091 0.23715 0.0
C1164 C 0.37647 0.83233 0.22309 0.0
C1165 C 0.35721 0.82472 0.21549 0.0
C1166 C 0.34358 0.80574 0.22207 0.0
C1167 C 0.34916 0.79436 0.23634 0.0
C1168 C 0.36841 0.8019 0.24393 0.0
C1169 C 0.44689 0.85531 0.34968 0.0
C1170 C 0.44117 0.838 0.36336 0.0
C1171 C 0.44155 0.85505 0.32305 0.0
C1172 C 0.43042 0.83746 0.30965 0.0
C1173 C 0.42399 0.82015 0.32374 0.0
C1174 C 0.42951 0.82042 0.35032 0.0
C1175 C 0.42642 0.83714 0.2806 0.0
C1176 C 0.40723 0.82869 0.27189 0.0
C1177 C 0.44151 0.84556 0.26157 0.0
C1178 C 0.46204 0.85401 0.26936 0.0
C1179 C 0.46841 0.84283 0.28282 0.0
C1180 C 0.48776 0.85093 0.29024 0.0
C1181 C 0.50088 0.87018 0.28425 0.0
C1182 C 0.4947 0.88134 0.27068 0.0
C1183 C 0.47538 0.8733 0.26316 0.0
H1184 H 0.51584 0.87643 0.29006 0.0
H1185 H 0.32868 0.79986 0.21616 0.0
H1186 H 0.58471 0.38375 0.31188 0.0
H1187 H 0.59364 0.39241 0.35877 0.0
H1188 H 0.56897 0.42954 0.35648 0.0
H1189 H 0.56049 0.42116 0.30942 0.0
H1190 H 0.60109 0.44613 0.38484 0.0
H1191 H 0.54456 0.38376 0.38299 0.0
H1192 H 0.52473 0.34976 0.36945 0.0
H1193 H 0.56521 0.33658 0.40608 0.0
H1194 H 0.58549 0.3706 0.41941 0.0
H1195 H 0.59128 0.45338 0.5243 0.0
H1196 H 0.58231 0.44385 0.4776 0.0
H1197 H 0.61415 0.41349 0.47856 0.0
H1198 H 0.62321 0.42318 0.52527 0.0
H1199 H 0.5784 0.39331 0.45129 0.0
H1200 H 0.63493 0.45655 0.45259 0.0
H1201 H 0.65394 0.49064 0.46613 0.0
H1202 H 0.61169 0.50194 0.43107 0.0
H1203 H 0.5923 0.46785 0.41756 0.0
C1204 C 0.58157 0.39404 0.32136 0.0
C1205 C 0.57221 0.40203 0.30711 0.0
C1206 C 0.58649 0.39885 0.34818 0.0
C1207 C 0.58174 0.41144 0.36139 0.0
C1208 C 0.57283 0.41983 0.34682 0.0
C1209 C 0.56804 0.41511 0.31995 0.0
C1210 C 0.58546 0.41536 0.39054 0.0
C1211 C 0.59591 0.43455 0.39934 0.0
C1212 C 0.57895 0.4003 0.40961 0.0
C1213 C 0.56664 0.37977 0.40198 0.0
C1214 C 0.5493 0.37364 0.38801 0.0
C1215 C 0.53798 0.35436 0.38038 0.0
C1216 C 0.54373 0.34103 0.38686 0.0
C1217 C 0.56079 0.34693 0.40104 0.0
C1218 C 0.57221 0.36621 0.40865 0.0
C1219 C 0.59596 0.44432 0.51462 0.0
C1220 C 0.60769 0.43877 0.52828 0.0
C1221 C 0.59097 0.439 0.48796 0.0
C1222 C 0.59768 0.42807 0.47449 0.0
C1223 C 0.60878 0.42188 0.48854 0.0
C1224 C 0.6139 0.42735 0.51516 0.0
C1225 C 0.594 0.42403 0.44544 0.0
C1226 C 0.58355 0.40483 0.43671 0.0
C1227 C 0.60034 0.43907 0.42645 0.0
C1228 C 0.61208 0.45961 0.43428 0.0
C1229 C 0.62963 0.46628 0.44792 0.0
C1230 C 0.64048 0.4856 0.45555 0.0
C1231 C 0.634 0.49843 0.44953 0.0
C1232 C 0.61668 0.49198 0.43575 0.0
C1233 C 0.60577 0.47266 0.42807 0.0
H1234 H 0.64241 0.51338 0.4555 0.0
H1235 H 0.53494 0.32611 0.38093 0.0
H1236 H 0.92546 0.38305 0.32358 0.0
H1237 H 0.96007 0.39883 0.33325 0.0
H1238 H 0.96578 0.45406 0.31472 0.0
H1239 H 0.93148 0.43815 0.30372 0.0
H1240 H 0.99475 0.45484 0.29538 0.0
H1241 H 0.96621 0.43623 0.38188 0.0
H1242 H 0.94495 0.41434 0.41699 0.0
H1243 H 0.97313 0.38082 0.411 0.0
H1244 H 0.99441 0.40238 0.37559 0.0
H1245 H 0.08306 0.51284 0.36848 0.0
H1246 H 0.04862 0.49453 0.35732 0.0
H1247 H 0.05384 0.44473 0.33937 0.0
H1248 H 0.08853 0.46321 0.3498 0.0
H1249 H 0.02028 0.44039 0.37677 0.0
H1250 H 0.04993 0.46233 0.28978 0.0
H1251 H 0.07159 0.48714 0.25779 0.0
H1252 H 0.041 0.51794 0.2692 0.0
H1253 H 0.01933 0.49345 0.3016 0.0
C1254 C 0.93412 0.39857 0.3217 0.0
C1255 C 0.92569 0.40933 0.31287 0.0
C1256 C 0.95396 0.40765 0.32739 0.0
C1257 C 0.96579 0.42782 0.3252 0.0
C1258 C 0.95723 0.43853 0.31654 0.0
C1259 C 0.93753 0.42941 0.3103 0.0
C1260 C 0.98704 0.43781 0.33136 0.0
C1261 C 1.00016 0.45171 0.31338 0.0
C1262 C 0.99453 0.43381 0.35464 0.0
C1263 C 0.98176 0.4208 0.37588 0.0
C1264 C 0.96778 0.4241 0.38791 0.0
C1265 C 0.95574 0.41177 0.40788 0.0
C1266 C 0.95765 0.39616 0.41616 0.0
C1267 C 0.97165 0.39289 0.40453 0.0
C1268 C 0.98371 0.40517 0.38452 0.0
C1269 C 0.07688 0.49799 0.36214 0.0
C1270 C 0.08854 0.48948 0.36004 0.0
C1271 C 0.0572 0.48755 0.35574 0.0
C1272 C 0.0486 0.46823 0.34758 0.0
C1273 C 0.06014 0.4596 0.34569 0.0
C1274 C 0.07997 0.47019 0.35151 0.0
C1275 C 0.02761 0.45723 0.34086 0.0
C1276 C 0.01466 0.44328 0.35877 0.0
C1277 C 0.02022 0.46151 0.31791 0.0
C1278 C 0.03315 0.47617 0.29833 0.0
C1279 C 0.04794 0.47449 0.28567 0.0
C1280 C 0.06019 0.48848 0.26742 0.0
C1281 C 0.05771 0.50414 0.26152 0.0
C1282 C 0.04293 0.50582 0.27382 0.0
C1283 C 0.03065 0.49188 0.29211 0.0
H1284 H 0.0672 0.51495 0.24738 0.0
H1285 H 0.94832 0.38663 0.43163 0.0
H1286 H 0.54429 0.92135 0.50107 0.0
H1287 H 0.56199 0.95568 0.51227 0.0
H1288 H 0.5244 0.96544 0.46149 0.0
H1289 H 0.50599 0.93119 0.45124 0.0
H1290 H 0.56453 0.99241 0.45371 0.0
H1291 H 0.51799 0.96505 0.52532 0.0
H1292 H 0.50166 0.94279 0.56275 0.0
H1293 H 0.55562 0.96552 0.6041 0.0
H1294 H 0.57233 0.98774 0.56672 0.0
H1295 H 0.58994 0.08794 0.48897 0.0
H1296 H 0.57362 0.05351 0.47868 0.0
H1297 H 0.60083 0.04399 0.5466 0.0
H1298 H 0.61629 0.07833 0.5577 0.0
H1299 H 0.56705 0.0163 0.54569 0.0
H1300 H 0.61427 0.04362 0.47651 0.0
H1301 H 0.63222 0.06538 0.43928 0.0
H1302 H 0.58007 0.04246 0.3935 0.0
H1303 H 0.56174 0.02072 0.4306 0.0
C1304 C 0.53952 0.93065 0.49249 0.0
C1305 C 0.52359 0.92315 0.47501 0.0
C1306 C 0.54981 0.95039 0.49882 0.0
C1307 C 0.5446 0.96323 0.48769 0.0
C1308 C 0.52886 0.95591 0.47017 0.0
C1309 C 0.51839 0.93618 0.46416 0.0
C1310 C 0.5554 0.98428 0.49429 0.0
C1311 C 0.56495 0.99767 0.47377 0.0
C1312 C 0.55649 0.9912 0.52058 0.0
C1313 C 0.54644 0.9779 0.5431 0.0
C1314 C 0.5264 0.96518 0.54229 0.0
C1315 C 0.51707 0.95259 0.56352 0.0
C1316 C 0.5276 0.9527 0.58576 0.0
C1317 C 0.54749 0.96543 0.58685 0.0
C1318 C 0.55689 0.97803 0.56565 0.0
C1319 C 0.59256 0.07851 0.50157 0.0
C1320 C 0.60454 0.08593 0.52405 0.0
C1321 C 0.58328 0.05875 0.49559 0.0
C1322 C 0.58618 0.0459 0.51145 0.0
C1323 C 0.59823 0.05339 0.53391 0.0
C1324 C 0.60716 0.07309 0.54024 0.0
C1325 C 0.57632 0.0247 0.50505 0.0
C1326 C 0.56686 0.01119 0.5256 0.0
C1327 C 0.57563 0.01766 0.47882 0.0
C1328 C 0.58661 0.03067 0.45644 0.0
C1329 C 0.6066 0.04331 0.45857 0.0
C1330 C 0.61685 0.05563 0.43748 0.0
C1331 C 0.60728 0.05534 0.41407 0.0
C1332 C 0.58745 0.04269 0.41166 0.0
C1333 C 0.57713 0.03035 0.4327 0.0
H1334 H 0.61524 0.06489 0.39776 0.0
H1335 H 0.52035 0.94294 0.60218 0.0
H1336 H 0.53969 0.62036 0.66477 0.0
H1337 H 0.55778 0.60411 0.6537 0.0
H1338 H 0.52342 0.55882 0.70932 0.0
H1339 H 0.50437 0.57406 0.71931 0.0
H1340 H 0.56606 0.57551 0.71294 0.0
H1341 H 0.51323 0.5478 0.64994 0.0
H1342 H 0.49286 0.54937 0.61436 0.0
H1343 H 0.54248 0.57898 0.56355 0.0
H1344 H 0.56321 0.57784 0.59902 0.0
H1345 H 0.59333 0.50587 0.68208 0.0
H1346 H 0.57655 0.52353 0.69263 0.0
H1347 H 0.596 0.55435 0.61815 0.0
H1348 H 0.61201 0.53598 0.60707 0.0
H1349 H 0.56176 0.54658 0.62396 0.0
H1350 H 0.61502 0.57473 0.68382 0.0
H1351 H 0.63722 0.5757 0.7186 0.0
H1352 H 0.59018 0.5491 0.77423 0.0
H1353 H 0.56765 0.54774 0.73967 0.0
C1354 C 0.53565 0.6068 0.67446 0.0
C1355 C 0.52038 0.59876 0.69316 0.0
C1356 C 0.54622 0.5976 0.66821 0.0
C1357 C 0.54205 0.58026 0.68075 0.0
C1358 C 0.52706 0.57227 0.69955 0.0
C1359 C 0.51623 0.58122 0.70541 0.0
C1360 C 0.55312 0.57027 0.6741 0.0
C1361 C 0.565 0.569 0.69358 0.0
C1362 C 0.55225 0.56231 0.64859 0.0
C1363 C 0.5398 0.56294 0.62724 0.0
C1364 C 0.51983 0.55482 0.63128 0.0
C1365 C 0.50821 0.55559 0.61111 0.0
C1366 C 0.51638 0.56432 0.58674 0.0
C1367 C 0.53618 0.57225 0.58246 0.0
C1368 C 0.54787 0.57154 0.60258 0.0
C1369 C 0.59419 0.51656 0.66808 0.0
C1370 C 0.60413 0.51956 0.64379 0.0
C1371 C 0.58462 0.52677 0.67417 0.0
C1372 C 0.58516 0.5407 0.65649 0.0
C1373 C 0.59522 0.54375 0.63226 0.0
C1374 C 0.60446 0.53326 0.62593 0.0
C1375 C 0.57486 0.55165 0.66288 0.0
C1376 C 0.56305 0.55313 0.64334 0.0
C1377 C 0.57612 0.56017 0.68822 0.0
C1378 C 0.58962 0.56097 0.70907 0.0
C1379 C 0.60939 0.56896 0.70342 0.0
C1380 C 0.62203 0.5696 0.7231 0.0
C1381 C 0.61511 0.56242 0.74859 0.0
C1382 C 0.59552 0.55463 0.75447 0.0
C1383 C 0.58281 0.55394 0.73485 0.0
H1384 H 0.62492 0.56293 0.7638 0.0
H1385 H 0.50736 0.5649 0.57114 0.0
H1386 H 0.09029 0.59023 0.84873 0.0
H1387 H 0.05559 0.57341 0.85888 0.0
H1388 H 0.04475 0.59342 0.78476 0.0
H1389 H 0.07939 0.60988 0.77422 0.0
H1390 H 0.02472 0.59696 0.83376 0.0
H1391 H 0.03467 0.55103 0.78349 0.0
H1392 H 0.05052 0.53202 0.77413 0.0
H1393 H 0.03327 0.50513 0.85102 0.0
H1394 H 0.01757 0.52424 0.86101 0.0
H1395 H 0.92242 0.53817 0.83317 0.0
H1396 H 0.95653 0.55582 0.82131 0.0
H1397 H 0.96745 0.52056 0.87537 0.0
H1398 H 0.93326 0.50178 0.88553 0.0
H1399 H 0.98806 0.5255 0.83559 0.0
H1400 H 0.97911 0.57027 0.8881 0.0
H1401 H 0.96459 0.58988 0.90137 0.0
H1402 H 0.98111 0.61956 0.82629 0.0
H1403 H 0.99553 0.59995 0.81243 0.0
C1404 C 0.08054 0.59119 0.83471 0.0
C1405 C 0.08763 0.60141 0.81066 0.0
C1406 C 0.06069 0.58151 0.84048 0.0
C1407 C 0.04751 0.58211 0.82258 0.0
C1408 C 0.05461 0.59275 0.79891 0.0
C1409 C 0.0744 0.60209 0.79285 0.0
C1410 C 0.0263 0.57117 0.82823 0.0
C1411 C 0.01661 0.58133 0.83384 0.0
C1412 C 0.0158 0.55079 0.82915 0.0
C1413 C 0.02513 0.53922 0.8231 0.0
C1414 C 0.03441 0.5412 0.7985 0.0
C1415 C 0.04334 0.53038 0.79307 0.0
C1416 C 0.04295 0.51741 0.812 0.0
C1417 C 0.03359 0.51521 0.83639 0.0
C1418 C 0.02466 0.52602 0.84194 0.0
C1419 C 0.93193 0.5339 0.84235 0.0
C1420 C 0.92471 0.51846 0.86063 0.0
C1421 C 0.95167 0.54432 0.83582 0.0
C1422 C 0.96495 0.53996 0.8478 0.0
C1423 C 0.95775 0.52446 0.86583 0.0
C1424 C 0.93802 0.51383 0.87199 0.0
C1425 C 0.98619 0.55121 0.8414 0.0
C1426 C 0.996 0.54113 0.83559 0.0
C1427 C 0.99687 0.57169 0.84089 0.0
C1428 C 0.98821 0.58349 0.84912 0.0
C1429 C 0.97952 0.58088 0.87434 0.0
C1430 C 0.97132 0.59201 0.88198 0.0
C1431 C 0.97187 0.60591 0.86465 0.0
C1432 C 0.98066 0.60876 0.83967 0.0
C1433 C 0.98886 0.59765 0.83192 0.0
H1434 H 0.96553 0.61452 0.8706 0.0
H1435 H 0.04987 0.50904 0.80775 0.0
H1436 H 0.47496 0.07696 0.94234 0.0
H1437 H 0.45699 0.04243 0.95295 0.0
H1438 H 0.48728 0.05372 0.02763 0.0
H1439 H 0.50511 0.0883 0.01729 0.0
H1440 H 0.48625 0.02276 0.99653 0.0
H1441 H 0.44279 0.04352 0.0297 0.0
H1442 H 0.42297 0.05906 0.02578 0.0
H1443 H 0.38994 0.01978 0.96322 0.0
H1444 H 0.40976 0.00417 0.96651 0.0
H1445 H 0.43502 0.93119 0.05556 0.0
H1446 H 0.45067 0.96527 0.04571 0.0
H1447 H 0.40758 0.9545 0.98629 0.0
H1448 H 0.39053 0.92041 0.99801 0.0
H1449 H 0.41519 0.98558 0.00809 0.0
H1450 H 0.45696 0.96478 0.97238 0.0
H1451 H 0.4769 0.94924 0.97198 0.0
H1452 H 0.51328 0.98809 0.03281 0.0
H1453 H 0.49341 1.00371 0.03382 0.0
C1454 C 0.47774 0.0721 0.96108 0.0
C1455 C 0.49146 0.08545 0.97899 0.0
C1456 C 0.4674 0.05235 0.96716 0.0
C1457 C 0.47073 0.0454 0.99113 0.0
C1458 C 0.48443 0.05868 0.00903 0.0
C1459 C 0.49452 0.07848 0.00317 0.0
C1460 C 0.46019 0.02429 0.9973 0.0
C1461 C 0.47073 0.01465 0.99942 0.0
C1462 C 0.43987 0.01351 1.00003 0.0
C1463 C 0.42788 0.0228 0.99817 0.0
C1464 C 0.4314 0.0383 0.01495 0.0
C1465 C 0.42015 0.0471 0.01288 0.0
C1466 C 0.40524 0.04044 0.99422 0.0
C1467 C 0.40151 0.02493 0.97764 0.0
C1468 C 0.41274 0.01609 0.97962 0.0
C1469 C 0.42843 0.93588 0.04078 0.0
C1470 C 0.41121 0.92256 0.02779 0.0
C1471 C 0.43779 0.95559 0.03469 0.0
C1472 C 0.43076 0.96272 0.01466 0.0
C1473 C 0.41354 0.94956 1.00171 0.0
C1474 C 0.40387 0.92985 0.00825 0.0
C1475 C 0.44122 0.98383 0.00755 0.0
C1476 C 0.43069 0.99354 0.00518 0.0
C1477 C 0.46156 0.99462 0.00393 0.0
C1478 C 0.47358 0.98529 0.00334 0.0
C1479 C 0.46914 0.96992 0.9858 0.0
C1480 C 0.48044 0.96111 0.98545 0.0
C1481 C 0.49632 0.96764 0.00241 0.0
C1482 C 0.50096 0.98303 0.01971 0.0
C1483 C 0.4897 0.99188 0.02016 0.0
H1484 H 0.50505 0.9608 0.00211 0.0
H1485 H 0.39654 0.04728 0.99264 0.0
H1486 H 0.42274 0.50368 0.18243 0.0
H1487 H 0.43953 0.48581 0.19225 0.0
H1488 H 0.41961 0.4552 0.11789 0.0
H1489 H 0.40299 0.47321 0.10779 0.0
H1490 H 0.41621 0.4312 0.1635 0.0
H1491 H 0.46339 0.48962 0.11954 0.0
H1492 H 0.48239 0.52486 0.1135 0.0
H1493 H 0.50658 0.53109 0.19168 0.0
H1494 H 0.4875 0.4959 0.19834 0.0
H1495 H 0.47623 0.38916 0.16177 0.0
H1496 H 0.45859 0.40569 0.15066 0.0
H1497 H 0.49132 0.44941 0.2092 0.0
H1498 H 0.51025 0.43409 0.2186 0.0
H1499 H 0.48756 0.46667 0.17077 0.0
H1500 H 0.44112 0.4101 0.21715 0.0
H1501 H 0.42143 0.37534 0.22674 0.0
H1502 H 0.395 0.3658 0.14962 0.0
H1503 H 0.41473 0.40049 0.13944 0.0
C1504 C 0.42177 0.49301 0.16828 0.0
C1505 C 0.41152 0.48991 0.1443 0.0
C1506 C 0.43146 0.48286 0.17386 0.0
C1507 C 0.43093 0.46918 0.15577 0.0
C1508 C 0.42026 0.46566 0.13217 0.0
C1509 C 0.41084 0.47604 0.12636 0.0
C1510 C 0.44194 0.45896 0.16115 0.0
C1511 C 0.43183 0.43889 0.16479 0.0
C1512 C 0.46228 0.46901 0.1636 0.0
C1513 C 0.47387 0.49015 0.15953 0.0
C1514 C 0.47264 0.49852 0.13553 0.0
C1515 C 0.48345 0.51848 0.13198 0.0
C1516 C 0.49565 0.53021 0.15222 0.0
C1517 C 0.49711 0.52199 0.17603 0.0
C1518 C 0.48631 0.50204 0.17969 0.0
C1519 C 0.47997 0.40244 0.1721 0.0
C1520 C 0.49477 0.41 0.19139 0.0
C1521 C 0.46952 0.41177 0.166 0.0
C1522 C 0.47316 0.4287 0.17945 0.0
C1523 C 0.48799 0.43635 0.19852 0.0
C1524 C 0.49869 0.42728 0.20423 0.0
C1525 C 0.46188 0.43871 0.17346 0.0
C1526 C 0.47193 0.45882 0.16961 0.0
C1527 C 0.44143 0.42871 0.17138 0.0
C1528 C 0.42955 0.40786 0.17743 0.0
C1529 C 0.43121 0.40057 0.20217 0.0
C1530 C 0.42003 0.38088 0.20772 0.0
C1531 C 0.40701 0.36837 0.18877 0.0
C1532 C 0.40511 0.37551 0.16426 0.0
C1533 C 0.41628 0.39519 0.15859 0.0
H1534 H 0.39836 0.35313 0.19311 0.0
H1535 H 0.504 0.54566 0.14943 0.0
H1536 H 0.23666 0.54904 0.34992 0.0
H1537 H 0.26342 0.55122 0.32381 0.0
H1538 H 0.23261 0.54706 0.25127 0.0
H1539 H 0.20485 0.54223 0.27762 0.0
H1540 H 0.24781 0.52768 0.24347 0.0
H1541 H 0.27586 0.59174 0.28011 0.0
H1542 H 0.28528 0.61596 0.31584 0.0
H1543 H 0.32043 0.59557 0.3516 0.0
H1544 H 0.31098 0.571 0.31634 0.0
H1545 H 0.32848 0.55665 0.15796 0.0
H1546 H 0.30431 0.55898 0.18544 0.0
H1547 H 0.32533 0.54387 0.25514 0.0
H1548 H 0.34918 0.54102 0.22751 0.0
H1549 H 0.31635 0.57421 0.26389 0.0
H1550 H 0.28744 0.51006 0.22712 0.0
H1551 H 0.27871 0.48665 0.19043 0.0
H1552 H 0.2458 0.50919 0.15335 0.0
H1553 H 0.25456 0.53291 0.18968 0.0
C1554 C 0.23571 0.54881 0.32836 0.0
C1555 C 0.21888 0.54628 0.31588 0.0
C1556 C 0.25117 0.55028 0.31333 0.0
C1557 C 0.2506 0.55004 0.28527 0.0
C1558 C 0.23375 0.54761 0.2728 0.0
C1559 C 0.21797 0.54538 0.28791 0.0
C1560 C 0.26699 0.55123 0.269 0.0
C1561 C 0.26273 0.53818 0.24778 0.0
C1562 C 0.28671 0.56448 0.2747 0.0
C1563 C 0.2926 0.57945 0.29568 0.0
C1564 C 0.28553 0.59237 0.29566 0.0
C1565 C 0.29087 0.60616 0.31584 0.0
C1566 C 0.30343 0.60729 0.33597 0.0
C1567 C 0.3107 0.59466 0.33598 0.0
C1568 C 0.30537 0.58082 0.3159 0.0
C1569 C 0.32816 0.55419 0.17925 0.0
C1570 C 0.34098 0.54909 0.19071 0.0
C1571 C 0.31431 0.55545 0.1949 0.0
C1572 C 0.31296 0.55157 0.22238 0.0
C1573 C 0.32621 0.54711 0.23405 0.0
C1574 C 0.33996 0.54566 0.2183 0.0
C1575 C 0.29695 0.55095 0.23849 0.0
C1576 C 0.30134 0.56396 0.25963 0.0
C1577 C 0.27737 0.53787 0.23257 0.0
C1578 C 0.2718 0.52337 0.21099 0.0
C1579 C 0.27844 0.5101 0.21106 0.0
C1580 C 0.27347 0.49676 0.19035 0.0
C1581 C 0.26176 0.49647 0.16953 0.0
C1582 C 0.2549 0.50945 0.16947 0.0
C1583 C 0.25984 0.52283 0.19013 0.0
H1584 H 0.25795 0.48615 0.15349 0.0
H1585 H 0.3076 0.61797 0.35153 0.0
H1586 H 0.77681 0.32103 0.32097 0.0
H1587 H 0.74939 0.29672 0.34652 0.0
H1588 H 0.78046 0.32131 0.41964 0.0
H1589 H 0.80856 0.34423 0.39384 0.0
H1590 H 0.76475 0.28631 0.42528 0.0
H1591 H 0.73853 0.32487 0.393 0.0
H1592 H 0.7285 0.34115 0.36033 0.0
H1593 H 0.69084 0.28689 0.32285 0.0
H1594 H 0.70088 0.27032 0.35496 0.0
H1595 H 0.68495 0.23545 0.51178 0.0
H1596 H 0.70892 0.262 0.48433 0.0
H1597 H 0.68651 0.22667 0.41406 0.0
H1598 H 0.66282 0.19988 0.44166 0.0
H1599 H 0.69651 0.26688 0.40709 0.0
H1600 H 0.72431 0.22926 0.43937 0.0
H1601 H 0.73291 0.21327 0.47433 0.0
H1602 H 0.76677 0.26748 0.51415 0.0
H1603 H 0.75824 0.28377 0.4795 0.0
C1604 C 0.77766 0.32135 0.34254 0.0
C1605 C 0.79463 0.33505 0.3554 0.0
C1606 C 0.76185 0.30753 0.35723 0.0
C1607 C 0.76239 0.30732 0.38528 0.0
C1608 C 0.77939 0.32114 0.39811 0.0
C1609 C 0.79539 0.33462 0.38335 0.0
C1610 C 0.74586 0.29204 0.40117 0.0
C1611 C 0.74991 0.28244 0.42145 0.0
C1612 C 0.72623 0.28631 0.39604 0.0
C1613 C 0.72058 0.29637 0.3763 0.0
C1614 C 0.72826 0.31643 0.37763 0.0
C1615 C 0.72255 0.32571 0.35923 0.0
C1616 C 0.70903 0.31504 0.33957 0.0
C1617 C 0.7013 0.29512 0.33811 0.0
C1618 C 0.70699 0.28578 0.3564 0.0
C1619 C 0.68487 0.23353 0.49038 0.0
C1620 C 0.67174 0.21576 0.47878 0.0
C1621 C 0.69862 0.24866 0.47474 0.0
C1622 C 0.69957 0.24634 0.44711 0.0
C1623 C 0.68595 0.22886 0.43528 0.0
C1624 C 0.67228 0.21361 0.45102 0.0
C1625 C 0.71564 0.26165 0.43104 0.0
C1626 C 0.71145 0.27106 0.41079 0.0
C1627 C 0.73515 0.26742 0.43635 0.0
C1628 C 0.74051 0.2577 0.45697 0.0
C1629 C 0.7335 0.23775 0.45566 0.0
C1630 C 0.73839 0.22864 0.47539 0.0
C1631 C 0.75032 0.23934 0.4965 0.0
C1632 C 0.7575 0.2592 0.49782 0.0
C1633 C 0.75268 0.26839 0.47811 0.0
H1634 H 0.75404 0.23224 0.51179 0.0
H1635 H 0.70442 0.32217 0.32555 0.0
H1636 H 0.43823 0.66717 0.66436 0.0
H1637 H 0.43508 0.69094 0.63686 0.0
H1638 H 0.48777 0.70463 0.59575 0.0
H1639 H 0.49065 0.68059 0.62268 0.0
H1640 H 0.47246 0.73485 0.63233 0.0
H1641 H 0.47128 0.69481 0.55182 0.0
H1642 H 0.45611 0.66306 0.52965 0.0
H1643 H 0.40015 0.65703 0.54117 0.0
H1644 H 0.41504 0.68862 0.56383 0.0
H1645 H 0.497 0.80982 0.53992 0.0
H1646 H 0.49316 0.78285 0.56708 0.0
H1647 H 0.43458 0.74837 0.53908 0.0
H1648 H 0.43913 0.77507 0.51015 0.0
H1649 H 0.44848 0.72649 0.5394 0.0
H1650 H 0.44822 0.76845 0.60604 0.0
H1651 H 0.45929 0.79881 0.63074 0.0
H1652 H 0.51205 0.80006 0.6507 0.0
H1653 H 0.50142 0.76984 0.62581 0.0
C1654 C 0.44885 0.67497 0.649 0.0
C1655 C 0.46468 0.67211 0.64556 0.0
C1656 C 0.4471 0.68857 0.6334 0.0
C1657 C 0.46111 0.69945 0.61409 0.0
C1658 C 0.47665 0.69621 0.61022 0.0
C1659 C 0.47831 0.68253 0.62563 0.0
C1660 C 0.46043 0.71524 0.59938 0.0
C1661 C 0.46738 0.73315 0.61193 0.0
C1662 C 0.45306 0.71278 0.57325 0.0
C1663 C 0.44422 0.69386 0.55981 0.0
C1664 C 0.45574 0.68658 0.5499 0.0
C1665 C 0.4472 0.66865 0.53719 0.0
C1666 C 0.42717 0.65799 0.5341 0.0
C1667 C 0.41565 0.66526 0.54368 0.0
C1668 C 0.42412 0.68315 0.55647 0.0
C1669 C 0.48335 0.79643 0.53949 0.0
C1670 C 0.46852 0.79436 0.5225 0.0
C1671 C 0.48102 0.78104 0.55537 0.0
C1672 C 0.46346 0.76342 0.5556 0.0
C1673 C 0.44833 0.76167 0.53933 0.0
C1674 C 0.45084 0.77697 0.52295 0.0
C1675 C 0.46129 0.74671 0.57188 0.0
C1676 C 0.45362 0.72846 0.55978 0.0
C1677 C 0.46765 0.74881 0.59874 0.0
C1678 C 0.47407 0.76694 0.61389 0.0
C1679 C 0.46223 0.77526 0.61556 0.0
C1680 C 0.46843 0.79244 0.62962 0.0
C1681 C 0.48638 0.80138 0.64224 0.0
C1682 C 0.49815 0.79312 0.6409 0.0
C1683 C 0.49204 0.77595 0.62685 0.0
H1684 H 0.49115 0.81468 0.6531 0.0
H1685 H 0.42059 0.64414 0.5242 0.0
H1686 H 0.77387 0.43639 0.8347 0.0
H1687 H 0.74686 0.43292 0.80709 0.0
H1688 H 0.78557 0.48556 0.7659 0.0
H1689 H 0.81258 0.48877 0.79299 0.0
H1690 H 0.73901 0.46911 0.80192 0.0
H1691 H 0.77947 0.47015 0.72094 0.0
H1692 H 0.79755 0.45605 0.69995 0.0
H1693 H 0.7498 0.39913 0.71376 0.0
H1694 H 0.73161 0.41297 0.73517 0.0
H1695 H 0.68804 0.49193 0.70797 0.0
H1696 H 0.7113 0.48889 0.73593 0.0
H1697 H 0.68985 0.43095 0.70683 0.0
H1698 H 0.66765 0.43478 0.67705 0.0
H1699 H 0.72567 0.44593 0.70841 0.0
H1700 H 0.6815 0.44368 0.77391 0.0
H1701 H 0.66115 0.45383 0.79798 0.0
H1702 H 0.71145 0.50723 0.81925 0.0
H1703 H 0.73209 0.49751 0.79502 0.0
C1704 C 0.7766 0.44696 0.81935 0.0
C1705 C 0.79522 0.46285 0.81592 0.0
C1706 C 0.7612 0.44504 0.80371 0.0
C1707 C 0.76422 0.45893 0.78434 0.0
C1708 C 0.78294 0.47455 0.78048 0.0
C1709 C 0.79834 0.4764 0.79597 0.0
C1710 C 0.74773 0.45786 0.76919 0.0
C1711 C 0.73611 0.46419 0.78141 0.0
C1712 C 0.74348 0.45075 0.74287 0.0
C1713 C 0.75433 0.44255 0.72982 0.0
C1714 C 0.77293 0.45464 0.71966 0.0
C1715 C 0.78317 0.4467 0.70767 0.0
C1716 C 0.77485 0.4267 0.70559 0.0
C1717 C 0.75625 0.41461 0.71544 0.0
C1718 C 0.74599 0.42249 0.72751 0.0
C1719 C 0.68839 0.47859 0.70748 0.0
C1720 C 0.67639 0.46376 0.68991 0.0
C1721 C 0.70152 0.47671 0.72382 0.0
C1722 C 0.70237 0.45957 0.72397 0.0
C1723 C 0.6897 0.44439 0.70715 0.0
C1724 C 0.67687 0.44649 0.69029 0.0
C1725 C 0.71703 0.4579 0.7407 0.0
C1726 C 0.72833 0.45089 0.72891 0.0
C1727 C 0.72068 0.46407 0.76771 0.0
C1728 C 0.70833 0.46991 0.78248 0.0
C1729 C 0.68821 0.45764 0.7836 0.0
C1730 C 0.67663 0.46331 0.79728 0.0
C1731 C 0.685 0.48117 0.81009 0.0
C1732 C 0.70499 0.49339 0.80931 0.0
C1733 C 0.71664 0.4878 0.79563 0.0
H1734 H 0.676 0.48554 0.82067 0.0
H1735 H 0.78279 0.42058 0.69628 0.0
H1736 H 0.33315 0.77077 0.01068 0.0
H1737 H 0.30954 0.74371 0.98353 0.0
H1738 H 0.31419 0.78369 0.92234 0.0
H1739 H 0.33821 0.81059 0.94928 0.0
H1740 H 0.27542 0.73428 0.96868 0.0
H1741 H 0.30326 0.76271 0.86157 0.0
H1742 H 0.33428 0.7822 0.83823 0.0
H1743 H 0.36319 0.76764 0.898 0.0
H1744 H 0.33232 0.74785 0.92148 0.0
H1745 H 0.1997 0.68555 0.87611 0.0
H1746 H 0.22645 0.70873 0.90375 0.0
H1747 H 0.26327 0.68905 0.87006 0.0
H1748 H 0.23663 0.66657 0.84126 0.0
H1749 H 0.28291 0.72572 0.8723 0.0
H1750 H 0.24432 0.67814 0.93639 0.0
H1751 H 0.2147 0.65597 0.96102 0.0
H1752 H 0.21003 0.70396 0.98985 0.0
H1753 H 0.23948 0.72641 0.96508 0.0
C1754 C 0.32938 0.77363 0.99114 0.0
C1755 C 0.33767 0.79263 0.98176 0.0
C1756 C 0.31578 0.75822 0.97572 0.0
C1757 C 0.31008 0.7615 0.95065 0.0
C1758 C 0.31856 0.7806 0.94126 0.0
C1759 C 0.33228 0.796 0.95662 0.0
C1760 C 0.29467 0.7451 0.93496 0.0
C1761 C 0.27712 0.73242 0.94761 0.0
C1762 C 0.29687 0.74222 0.90757 0.0
C1763 C 0.31548 0.75395 0.89342 0.0
C1764 C 0.31622 0.7636 0.86967 0.0
C1765 C 0.33378 0.77471 0.85642 0.0
C1766 C 0.3507 0.77621 0.86667 0.0
C1767 C 0.35008 0.76654 0.89014 0.0
C1768 C 0.33256 0.75539 0.90344 0.0
C1769 C 0.21353 0.68622 0.87466 0.0
C1770 C 0.21622 0.67451 0.85633 0.0
C1771 C 0.2288 0.69935 0.89066 0.0
C1772 C 0.247 0.70067 0.88933 0.0
C1773 C 0.24948 0.68847 0.8715 0.0
C1774 C 0.23424 0.67551 0.85519 0.0
C1775 C 0.26351 0.71516 0.90589 0.0
C1776 C 0.28124 0.72751 0.89339 0.0
C1777 C 0.26168 0.71738 0.93362 0.0
C1778 C 0.24404 0.70395 0.94871 0.0
C1779 C 0.23691 0.68396 0.94785 0.0
C1780 C 0.22016 0.67134 0.96185 0.0
C1781 C 0.21047 0.67855 0.97695 0.0
C1782 C 0.21754 0.6984 0.97814 0.0
C1783 C 0.23428 0.71108 0.96414 0.0
H1784 H 0.1975 0.66876 0.98778 0.0
H1785 H 0.36428 0.78483 0.85639 0.0
H1786 H 0.53359 0.33666 0.11329 0.0
H1787 H 0.53695 0.31275 0.08658 0.0
H1788 H 0.57722 0.31336 0.1442 0.0
H1789 H 0.57346 0.33693 0.17109 0.0
H1790 H 0.56471 0.30937 0.06142 0.0
H1791 H 0.56871 0.26775 0.15289 0.0
H1792 H 0.55928 0.26323 0.20037 0.0
H1793 H 0.51344 0.27475 0.18328 0.0
H1794 H 0.52238 0.27899 0.13568 0.0
H1795 H 0.57768 0.23423 0.00873 0.0
H1796 H 0.58256 0.26167 0.03632 0.0
H1797 H 0.52672 0.22613 0.07264 0.0
H1798 H 0.52253 0.19856 0.04631 0.0
H1799 H 0.54859 0.24864 0.10837 0.0
H1800 H 0.5361 0.2588 0.01764 0.0
H1801 H 0.54223 0.26214 0.96919 0.0
H1802 H 0.59834 0.31123 0.98245 0.0
H1803 H 0.59264 0.30804 0.03109 0.0
C1804 C 0.54343 0.33192 0.11986 0.0
C1805 C 0.55332 0.33859 0.14409 0.0
C1806 C 0.54537 0.31828 0.10463 0.0
C1807 C 0.55716 0.311 0.11346 0.0
C1808 C 0.56783 0.3185 0.13707 0.0
C1809 C 0.56579 0.33205 0.15235 0.0
C1810 C 0.55709 0.29456 0.09914 0.0
C1811 C 0.56132 0.29615 0.07173 0.0
C1812 C 0.55229 0.27707 0.11234 0.0
C1813 C 0.54636 0.27388 0.14078 0.0
C1814 C 0.55655 0.26919 0.15925 0.0
C1815 C 0.55129 0.26669 0.18619 0.0
C1816 C 0.53581 0.26875 0.19485 0.0
C1817 C 0.52546 0.2732 0.17657 0.0
C1818 C 0.53061 0.27564 0.14961 0.0
C1819 C 0.56666 0.23229 0.02299 0.0
C1820 C 0.54955 0.21445 0.02502 0.0
C1821 C 0.56933 0.24801 0.03857 0.0
C1822 C 0.55476 0.24627 0.05613 0.0
C1823 C 0.53815 0.22805 0.05917 0.0
C1824 C 0.53567 0.21229 0.04398 0.0
C1825 C 0.55628 0.26339 0.07055 0.0
C1826 C 0.55225 0.26193 0.09804 0.0
C1827 C 0.56074 0.28078 0.05723 0.0
C1828 C 0.56402 0.28305 0.02801 0.0
C1829 C 0.54977 0.27026 0.01024 0.0
C1830 C 0.55318 0.27213 0.98275 0.0
C1831 C 0.57069 0.28686 0.97278 0.0
C1832 C 0.58481 0.29981 0.99025 0.0
C1833 C 0.5815 0.29798 0.01777 0.0
H1834 H 0.5733 0.28829 0.9515 0.0
H1835 H 0.5318 0.26688 0.21572 0.0
loop_
_geom_bond_atom_site_label_1
_geom_bond_atom_site_label_2
_geom_bond_distance
_geom_bond_site_symmetry_2
_ccdc_geom_bond_type
C0 C1 1.443 . S
C0 N4 1.376 . S
C0 C38 1.389 . S
C1 C0 1.443 . S
C1 C2 1.340 . S
C1 H41 0.951 . S
C2 C1 1.340 . S
C2 C3 1.439 . S
C2 H42 0.950 . S
C3 C2 1.439 . S
C3 N4 1.374 . S
C3 C37 1.395 . S
N4 C0 1.376 . S
N4 C3 1.374 . S
N4 Co5 2.008 . S
Co5 N4 2.008 . S
Co5 N6 1.995 . S
Co5 N11 2.008 . S
Co5 N16 1.995 . S
Co5 N21 2.282 . S
Co5 N27 2.282 . S
N6 Co5 1.995 . S
N6 C7 1.376 . S
N6 C10 1.383 . S
C7 N6 1.376 . S
C7 C8 1.446 . S
C7 C37 1.391 . S
C8 C7 1.446 . S
C8 C9 1.339 . S
C8 H43 0.949 . S
C9 C8 1.339 . S
C9 C10 1.439 . S
C9 H44 0.950 . S
C10 N6 1.383 . S
C10 C9 1.439 . S
C10 C39 1.392 . S
N11 Co5 2.008 . S
N11 C12 1.376 . S
N11 C15 1.374 . S
C12 N11 1.376 . S
C12 C13 1.443 . S
C12 C39 1.389 . S
C13 C12 1.443 . S
C13 C14 1.340 . S
C13 H45 0.951 . S
C14 C13 1.340 . S
C14 C15 1.439 . S
C14 H46 0.950 . S
C15 N11 1.374 . S
C15 C14 1.439 . S
C15 C40 1.395 . S
N16 Co5 1.995 . S
N16 C17 1.376 . S
N16 C20 1.383 . S
C17 N16 1.376 . S
C17 C18 1.446 . S
C17 C40 1.391 . S
C18 C17 1.446 . S
C18 C19 1.339 . S
C18 H47 0.949 . S
C19 C18 1.339 . S
C19 C20 1.439 . S
C19 H48 0.950 . S
C20 N16 1.383 . S
C20 C19 1.439 . S
C20 C38 1.392 . S
N21 Co5 2.282 . S
N21 C24 1.332 . S
N21 C26 1.332 . S
C22 C23 1.386 . S
C22 C25 1.388 . S
C23 C22 1.386 . S
C23 C24 1.382 . S
C23 H49 0.950 . S
C24 N21 1.332 . S
C24 C23 1.382 . S
C24 H35 0.952 . S
C25 C22 1.388 . S
C25 C26 1.382 . S
C25 H50 0.950 . S
C26 N21 1.332 . S
C26 C25 1.382 . S
C26 H36 0.948 . S
N27 Co5 2.282 . S
N27 C31 1.332 . S
N27 C32 1.332 . S
C28 C29 1.388 . S
C28 C32 1.382 . S
C28 H51 0.950 . S
C29 C28 1.388 . S
C29 C30 1.386 . S
C30 C29 1.386 . S
C30 C31 1.382 . S
C30 H52 0.950 . S
C31 N27 1.332 . S
C31 C30 1.382 . S
C31 H33 0.952 . S
C32 N27 1.332 . S
C32 C28 1.382 . S
C32 H34 0.948 . S
H33 C31 0.952 . S
H34 C32 0.948 . S
H35 C24 0.952 . S
H36 C26 0.948 . S
C37 C3 1.395 . S
C37 C7 1.391 . S
C38 C0 1.389 . S
C38 C20 1.392 . S
C39 C10 1.392 . S
C39 C12 1.389 . S
C40 C15 1.395 . S
C40 C17 1.391 . S
H41 C1 0.951 . S
H42 C2 0.950 . S
H43 C8 0.949 . S
H44 C9 0.950 . S
H45 C13 0.951 . S
H46 C14 0.950 . S
H47 C18 0.949 . S
H48 C19 0.950 . S
H49 C23 0.950 . S
H50 C25 0.950 . S
H51 C28 0.950 . S
H52 C30 0.950 . S
C53 C54 1.443 . S
C53 N57 1.376 . S
C53 C91 1.389 . S
C54 C53 1.443 . S
C54 C55 1.340 . S
C54 H94 0.951 . S
C55 C54 1.340 . S
C55 C56 1.439 . S
C55 H95 0.950 . S
C56 C55 1.439 . S
C56 N57 1.374 . S
C56 C90 1.395 . S
N57 C53 1.376 . S
N57 C56 1.374 . S
N57 Co58 2.008 . S
Co58 N57 2.008 . S
Co58 N59 1.995 . S
Co58 N64 2.008 . S
Co58 N69 1.995 . S
Co58 N74 2.282 . S
Co58 N80 2.282 . S
N59 Co58 1.995 . S
N59 C60 1.376 . S
N59 C63 1.383 . S
C60 N59 1.376 . S
C60 C61 1.446 . S
C60 C90 1.391 . S
C61 C60 1.446 . S
C61 C62 1.339 . S
C61 H96 0.949 . S
C62 C61 1.339 . S
C62 C63 1.439 . S
C62 H97 0.950 . S
C63 N59 1.383 . S
C63 C62 1.439 . S
C63 C92 1.392 . S
N64 Co58 2.008 . S
N64 C65 1.376 . S
N64 C68 1.374 . S
C65 N64 1.376 . S
C65 C66 1.443 . S
C65 C92 1.389 . S
C66 C65 1.443 . S
C66 C67 1.340 . S
C66 H98 0.951 . S
C67 C66 1.340 . S
C67 C68 1.439 . S
C67 H99 0.950 . S
C68 N64 1.374 . S
C68 C67 1.439 . S
C68 C93 1.395 . S
N69 Co58 1.995 . S
N69 C70 1.376 . S
N69 C73 1.383 . S
C70 N69 1.376 . S
C70 C71 1.446 . S
C70 C93 1.391 . S
C71 C70 1.446 . S
C71 C72 1.339 . S
C71 H100 0.949 . S
C72 C71 1.339 . S
C72 C73 1.439 . S
C72 H101 0.950 . S
C73 N69 1.383 . S
C73 C72 1.439 . S
C73 C91 1.392 . S
N74 Co58 2.282 . S
N74 C77 1.332 . S
N74 C79 1.332 . S
C75 C76 1.386 . S
C75 C78 1.388 . S
C76 C75 1.386 . S
C76 C77 1.382 . S
C76 H102 0.950 . S
C77 N74 1.332 . S
C77 C76 1.382 . S
C77 H88 0.952 . S
C78 C75 1.388 . S
C78 C79 1.382 . S
C78 H103 0.950 . S
C79 N74 1.332 . S
C79 C78 1.382 . S
C79 H89 0.948 . S
N80 Co58 2.282 . S
N80 C84 1.332 . S
N80 C85 1.332 . S
C81 C82 1.388 . S
C81 C85 1.382 . S
C81 H104 0.950 . S
C82 C81 1.388 . S
C82 C83 1.386 . S
C83 C82 1.386 . S
C83 C84 1.382 . S
C83 H105 0.950 . S
C84 N80 1.332 . S
C84 C83 1.382 . S
C84 H86 0.952 . S
C85 N80 1.332 . S
C85 C81 1.382 . S
C85 H87 0.948 . S
H86 C84 0.952 . S
H87 C85 0.948 . S
H88 C77 0.952 . S
H89 C79 0.948 . S
C90 C56 1.395 . S
C90 C60 1.391 . S
C91 C53 1.389 . S
C91 C73 1.392 . S
C92 C63 1.392 . S
C92 C65 1.389 . S
C93 C68 1.395 . S
C93 C70 1.391 . S
H94 C54 0.951 . S
H95 C55 0.950 . S
H96 C61 0.949 . S
H97 C62 0.950 . S
H98 C66 0.951 . S
H99 C67 0.950 . S
H100 C71 0.949 . S
H101 C72 0.950 . S
H102 C76 0.950 . S
H103 C78 0.950 . S
H104 C81 0.950 . S
H105 C83 0.950 . S
C106 C107 1.443 . S
C106 N110 1.376 . S
C106 C144 1.389 . S
C107 C106 1.443 . S
C107 C108 1.340 . S
C107 H147 0.951 . S
C108 C107 1.340 . S
C108 C109 1.439 . S
C108 H148 0.950 . S
C109 C108 1.439 . S
C109 N110 1.374 . S
C109 C143 1.395 . S
N110 C106 1.376 . S
N110 C109 1.374 . S
N110 Co111 2.008 . S
Co111 N110 2.008 . S
Co111 N112 1.995 . S
Co111 N117 2.008 . S
Co111 N122 1.995 . S
Co111 N127 2.282 . S
Co111 N133 2.282 . S
N112 Co111 1.995 . S
N112 C113 1.376 . S
N112 C116 1.383 . S
C113 N112 1.376 . S
C113 C114 1.446 . S
C113 C143 1.391 . S
C114 C113 1.446 . S
C114 C115 1.339 . S
C114 H149 0.949 . S
C115 C114 1.339 . S
C115 C116 1.439 . S
C115 H150 0.950 . S
C116 N112 1.383 . S
C116 C115 1.439 . S
C116 C145 1.392 . S
N117 Co111 2.008 . S
N117 C118 1.376 . S
N117 C121 1.374 . S
C118 N117 1.376 . S
C118 C119 1.443 . S
C118 C145 1.389 . S
C119 C118 1.443 . S
C119 C120 1.340 . S
C119 H151 0.951 . S
C120 C119 1.340 . S
C120 C121 1.439 . S
C120 H152 0.950 . S
C121 N117 1.374 . S
C121 C120 1.439 . S
C121 C146 1.395 . S
N122 Co111 1.995 . S
N122 C123 1.376 . S
N122 C126 1.383 . S
C123 N122 1.376 . S
C123 C124 1.446 . S
C123 C146 1.391 . S
C124 C123 1.446 . S
C124 C125 1.339 . S
C124 H153 0.949 . S
C125 C124 1.339 . S
C125 C126 1.439 . S
C125 H154 0.950 . S
C126 N122 1.383 . S
C126 C125 1.439 . S
C126 C144 1.392 . S
N127 Co111 2.282 . S
N127 C130 1.332 . S
N127 C132 1.332 . S
C128 C129 1.386 . S
C128 C131 1.388 . S
C129 C128 1.386 . S
C129 C130 1.382 . S
C129 H155 0.950 . S
C130 N127 1.332 . S
C130 C129 1.382 . S
C130 H141 0.952 . S
C131 C128 1.388 . S
C131 C132 1.382 . S
C131 H156 0.950 . S
C132 N127 1.332 . S
C132 C131 1.382 . S
C132 H142 0.948 . S
N133 Co111 2.282 . S
N133 C137 1.332 . S
N133 C138 1.332 . S
C134 C135 1.388 . S
C134 C138 1.382 . S
C134 H157 0.950 . S
C135 C134 1.388 . S
C135 C136 1.386 . S
C136 C135 1.386 . S
C136 C137 1.382 . S
C136 H158 0.950 . S
C137 N133 1.332 . S
C137 C136 1.382 . S
C137 H139 0.952 . S
C138 N133 1.332 . S
C138 C134 1.382 . S
C138 H140 0.948 . S
H139 C137 0.952 . S
H140 C138 0.948 . S
H141 C130 0.952 . S
H142 C132 0.948 . S
C143 C109 1.395 . S
C143 C113 1.391 . S
C144 C106 1.389 . S
C144 C126 1.392 . S
C145 C116 1.392 . S
C145 C118 1.389 . S
C146 C121 1.395 . S
C146 C123 1.391 . S
H147 C107 0.951 . S
H148 C108 0.950 . S
H149 C114 0.949 . S
H150 C115 0.950 . S
H151 C119 0.951 . S
H152 C120 0.950 . S
H153 C124 0.949 . S
H154 C125 0.950 . S
H155 C129 0.950 . S
H156 C131 0.950 . S
H157 C134 0.950 . S
H158 C136 0.950 . S
C159 C160 1.443 . S
C159 N163 1.376 . S
C159 C197 1.389 . S
C160 C159 1.443 . S
C160 C161 1.340 . S
C160 H200 0.951 . S
C161 C160 1.340 . S
C161 C162 1.439 . S
C161 H201 0.950 . S
C162 C161 1.439 . S
C162 N163 1.374 . S
C162 C196 1.395 . S
N163 C159 1.376 . S
N163 C162 1.374 . S
N163 Co164 2.008 . S
Co164 N163 2.008 . S
Co164 N165 1.995 . S
Co164 N170 2.008 . S
Co164 N175 1.995 . S
Co164 N180 2.282 . S
Co164 N186 2.282 . S
N165 Co164 1.995 . S
N165 C166 1.376 . S
N165 C169 1.383 . S
C166 N165 1.376 . S
C166 C167 1.446 . S
C166 C196 1.391 . S
C167 C166 1.446 . S
C167 C168 1.339 . S
C167 H202 0.949 . S
C168 C167 1.339 . S
C168 C169 1.439 . S
C168 H203 0.950 1_556 S
C169 N165 1.383 . S
C169 C168 1.439 . S
C169 C198 1.392 . S
N170 Co164 2.008 . S
N170 C171 1.376 . S
N170 C174 1.374 . S
C171 N170 1.376 . S
C171 C172 1.443 . S
C171 C198 1.389 . S
C172 C171 1.443 . S
C172 C173 1.340 . S
C172 H204 0.951 . S
C173 C172 1.340 . S
C173 C174 1.439 . S
C173 H205 0.950 . S
C174 N170 1.374 . S
C174 C173 1.439 . S
C174 C199 1.395 . S
N175 Co164 1.995 . S
N175 C176 1.376 . S
N175 C179 1.383 . S
C176 N175 1.376 . S
C176 C177 1.446 . S
C176 C199 1.391 . S
C177 C176 1.446 . S
C177 C178 1.339 . S
C177 H206 0.949 . S
C178 C177 1.339 . S
C178 C179 1.439 . S
C178 H207 0.950 . S
C179 N175 1.383 . S
C179 C178 1.439 . S
C179 C197 1.392 . S
N180 Co164 2.282 . S
N180 C183 1.332 . S
N180 C185 1.332 . S
C181 C182 1.386 . S
C181 C184 1.388 . S
C182 C181 1.386 . S
C182 C183 1.382 . S
C182 H208 0.950 . S
C183 N180 1.332 . S
C183 C182 1.382 . S
C183 H194 0.952 . S
C184 C181 1.388 . S
C184 C185 1.382 . S
C184 H209 0.950 . S
C185 N180 1.332 . S
C185 C184 1.382 . S
C185 H195 0.948 . S
N186 Co164 2.282 . S
N186 C190 1.332 . S
N186 C191 1.332 . S
C187 C188 1.388 . S
C187 C191 1.382 . S
C187 H210 0.950 . S
C188 C187 1.388 . S
C188 C189 1.386 . S
C189 C188 1.386 . S
C189 C190 1.382 . S
C189 H211 0.950 . S
C190 N186 1.332 . S
C190 C189 1.382 . S
C190 H192 0.952 . S
C191 N186 1.332 . S
C191 C187 1.382 . S
C191 H193 0.948 . S
H192 C190 0.952 . S
H193 C191 0.948 . S
H194 C183 0.952 . S
H195 C185 0.948 . S
C196 C162 1.395 . S
C196 C166 1.391 . S
C197 C159 1.389 . S
C197 C179 1.392 . S
C198 C169 1.392 . S
C198 C171 1.389 . S
C199 C174 1.395 . S
C199 C176 1.391 . S
H200 C160 0.951 . S
H201 C161 0.950 . S
H202 C167 0.949 . S
H203 C168 0.950 1_554 S
H204 C172 0.951 . S
H205 C173 0.950 . S
H206 C177 0.949 . S
H207 C178 0.950 . S
H208 C182 0.950 . S
H209 C184 0.950 . S
H210 C187 0.950 . S
H211 C189 0.950 . S
C212 C213 1.443 . S
C212 N216 1.376 . S
C212 C250 1.389 . S
C213 C212 1.443 . S
C213 C214 1.340 . S
C213 H253 0.951 . S
C214 C213 1.340 . S
C214 C215 1.439 . S
C214 H254 0.950 . S
C215 C214 1.439 . S
C215 N216 1.374 . S
C215 C249 1.395 . S
N216 C212 1.376 . S
N216 C215 1.374 . S
N216 Co217 2.008 . S
Co217 N216 2.008 . S
Co217 N218 1.995 . S
Co217 N223 2.008 . S
Co217 N228 1.995 . S
Co217 N233 2.282 . S
Co217 N239 2.282 . S
N218 Co217 1.995 . S
N218 C219 1.376 . S
N218 C222 1.383 . S
C219 N218 1.376 . S
C219 C220 1.446 . S
C219 C249 1.391 . S
C220 C219 1.446 . S
C220 C221 1.339 . S
C220 H255 0.949 . S
C221 C220 1.339 . S
C221 C222 1.439 . S
C221 H256 0.950 . S
C222 N218 1.383 . S
C222 C221 1.439 . S
C222 C251 1.392 . S
N223 Co217 2.008 . S
N223 C224 1.376 . S
N223 C227 1.374 . S
C224 N223 1.376 . S
C224 C225 1.443 . S
C224 C251 1.389 . S
C225 C224 1.443 . S
C225 C226 1.340 . S
C225 H257 0.951 . S
C226 C225 1.340 . S
C226 C227 1.439 . S
C226 H258 0.950 . S
C227 N223 1.374 . S
C227 C226 1.439 . S
C227 C252 1.395 . S
N228 Co217 1.995 . S
N228 C229 1.376 . S
N228 C232 1.383 . S
C229 N228 1.376 . S
C229 C230 1.446 1_554 S
C229 C252 1.391 . S
C230 C229 1.446 1_556 S
C230 C231 1.339 . S
C230 H259 0.949 . S
C231 C230 1.339 . S
C231 C232 1.439 1_556 S
C231 H260 0.950 . S
C232 N228 1.383 . S
C232 C231 1.439 1_554 S
C232 C250 1.392 . S
N233 Co217 2.282 . S
N233 C236 1.332 . S
N233 C238 1.332 . S
C234 C235 1.386 . S
C234 C237 1.388 . S
C235 C234 1.386 . S
C235 C236 1.382 . S
C235 H261 0.950 . S
C236 N233 1.332 . S
C236 C235 1.382 . S
C236 H247 0.952 . S
C237 C234 1.388 . S
C237 C238 1.382 . S
C237 H262 0.950 . S
C238 N233 1.332 . S
C238 C237 1.382 . S
C238 H248 0.948 . S
N239 Co217 2.282 . S
N239 C243 1.332 . S
N239 C244 1.332 . S
C240 C241 1.388 . S
C240 C244 1.382 . S
C240 H263 0.950 . S
C241 C240 1.388 . S
C241 C242 1.386 . S
C242 C241 1.386 . S
C242 C243 1.382 . S
C242 H264 0.950 . S
C243 N239 1.332 . S
C243 C242 1.382 . S
C243 H245 0.952 . S
C244 N239 1.332 . S
C244 C240 1.382 . S
C244 H246 0.948 . S
H245 C243 0.952 . S
H246 C244 0.948 . S
H247 C236 0.952 . S
H248 C238 0.948 . S
C249 C215 1.395 . S
C249 C219 1.391 . S
C250 C212 1.389 . S
C250 C232 1.392 . S
C251 C222 1.392 . S
C251 C224 1.389 . S
C252 C227 1.395 . S
C252 C229 1.391 . S
H253 C213 0.951 . S
H254 C214 0.950 . S
H255 C220 0.949 . S
H256 C221 0.950 . S
H257 C225 0.951 . S
H258 C226 0.950 . S
H259 C230 0.949 . S
H260 C231 0.950 . S
H261 C235 0.950 . S
H262 C237 0.950 . S
H263 C240 0.950 . S
H264 C242 0.950 . S
C265 C266 1.443 . S
C265 N269 1.376 . S
C265 C303 1.389 . S
C266 C265 1.443 . S
C266 C267 1.340 . S
C266 H306 0.951 . S
C267 C266 1.340 . S
C267 C268 1.439 . S
C267 H307 0.950 . S
C268 C267 1.439 . S
C268 N269 1.374 . S
C268 C302 1.395 . S
N269 C265 1.376 . S
N269 C268 1.374 . S
N269 Co270 2.008 . S
Co270 N269 2.008 . S
Co270 N271 1.995 . S
Co270 N276 2.008 . S
Co270 N281 1.995 . S
Co270 N286 2.282 . S
Co270 N292 2.282 . S
N271 Co270 1.995 . S
N271 C272 1.376 . S
N271 C275 1.383 . S
C272 N271 1.376 . S
C272 C273 1.446 . S
C272 C302 1.391 . S
C273 C272 1.446 . S
C273 C274 1.339 . S
C273 H308 0.949 . S
C274 C273 1.339 . S
C274 C275 1.439 . S
C274 H309 0.950 . S
C275 N271 1.383 . S
C275 C274 1.439 . S
C275 C304 1.392 . S
N276 Co270 2.008 . S
N276 C277 1.376 . S
N276 C280 1.374 . S
C277 N276 1.376 . S
C277 C278 1.443 . S
C277 C304 1.389 . S
C278 C277 1.443 . S
C278 C279 1.340 . S
C278 H310 0.951 . S
C279 C278 1.340 . S
C279 C280 1.439 . S
C279 H311 0.950 . S
C280 N276 1.374 . S
C280 C279 1.439 . S
C280 C305 1.395 . S
N281 Co270 1.995 . S
N281 C282 1.376 . S
N281 C285 1.383 . S
C282 N281 1.376 . S
C282 C283 1.446 . S
C282 C305 1.391 . S
C283 C282 1.446 . S
C283 C284 1.339 . S
C283 H312 0.949 . S
C284 C283 1.339 . S
C284 C285 1.439 . S
C284 H313 0.950 . S
C285 N281 1.383 . S
C285 C284 1.439 . S
C285 C303 1.392 . S
N286 Co270 2.282 . S
N286 C289 1.332 . S
N286 C291 1.332 . S
C287 C288 1.386 . S
C287 C290 1.388 . S
C288 C287 1.386 . S
C288 C289 1.382 . S
C288 H314 0.950 . S
C289 N286 1.332 . S
C289 C288 1.382 . S
C289 H300 0.952 . S
C290 C287 1.388 . S
C290 C291 1.382 . S
C290 H315 0.950 . S
C291 N286 1.332 . S
C291 C290 1.382 . S
C291 H301 0.948 . S
N292 Co270 2.282 . S
N292 C296 1.332 . S
N292 C297 1.332 . S
C293 C294 1.388 . S
C293 C297 1.382 . S
C293 H316 0.950 . S
C294 C293 1.388 . S
C294 C295 1.386 . S
C295 C294 1.386 . S
C295 C296 1.382 . S
C295 H317 0.950 . S
C296 N292 1.332 . S
C296 C295 1.382 . S
C296 H298 0.952 . S
C297 N292 1.332 . S
C297 C293 1.382 . S
C297 H299 0.948 . S
H298 C296 0.952 . S
H299 C297 0.948 . S
H300 C289 0.952 . S
H301 C291 0.948 . S
C302 C268 1.395 . S
C302 C272 1.391 . S
C303 C265 1.389 . S
C303 C285 1.392 . S
C304 C275 1.392 . S
C304 C277 1.389 . S
C305 C280 1.395 . S
C305 C282 1.391 . S
H306 C266 0.951 . S
H307 C267 0.950 . S
H308 C273 0.949 . S
H309 C274 0.950 . S
H310 C278 0.951 . S
H311 C279 0.950 . S
H312 C283 0.949 . S
H313 C284 0.950 . S
H314 C288 0.950 . S
H315 C290 0.950 . S
H316 C293 0.950 . S
H317 C295 0.950 . S
C318 C319 1.443 . S
C318 N322 1.376 . S
C318 C356 1.389 . S
C319 C318 1.443 . S
C319 C320 1.340 . S
C319 H359 0.951 . S
C320 C319 1.340 . S
C320 C321 1.439 . S
C320 H360 0.950 . S
C321 C320 1.439 . S
C321 N322 1.374 . S
C321 C355 1.395 . S
N322 C318 1.376 . S
N322 C321 1.374 . S
N322 Co323 2.008 . S
Co323 N322 2.008 . S
Co323 N324 1.995 . S
Co323 N329 2.008 . S
Co323 N334 1.995 . S
Co323 N339 2.282 . S
Co323 N345 2.282 . S
N324 Co323 1.995 . S
N324 C325 1.376 . S
N324 C328 1.383 . S
C325 N324 1.376 . S
C325 C326 1.446 . S
C325 C355 1.391 . S
C326 C325 1.446 . S
C326 C327 1.339 . S
C326 H361 0.949 . S
C327 C326 1.339 . S
C327 C328 1.439 . S
C327 H362 0.950 . S
C328 N324 1.383 . S
C328 C327 1.439 . S
C328 C357 1.392 . S
N329 Co323 2.008 . S
N329 C330 1.376 . S
N329 C333 1.374 . S
C330 N329 1.376 . S
C330 C331 1.443 . S
C330 C357 1.389 . S
C331 C330 1.443 . S
C331 C332 1.340 . S
C331 H363 0.951 . S
C332 C331 1.340 . S
C332 C333 1.439 . S
C332 H364 0.950 . S
C333 N329 1.374 . S
C333 C332 1.439 . S
C333 C358 1.395 . S
N334 Co323 1.995 . S
N334 C335 1.376 . S
N334 C338 1.383 . S
C335 N334 1.376 . S
C335 C336 1.446 . S
C335 C358 1.391 . S
C336 C335 1.446 . S
C336 C337 1.339 . S
C336 H365 0.949 . S
C337 C336 1.339 . S
C337 C338 1.439 . S
C337 H366 0.950 . S
C338 N334 1.383 . S
C338 C337 1.439 . S
C338 C356 1.392 . S
N339 Co323 2.282 . S
N339 C342 1.332 . S
N339 C344 1.332 . S
C340 C341 1.386 . S
C340 C343 1.388 . S
C341 C340 1.386 . S
C341 C342 1.382 . S
C341 H367 0.950 . S
C342 N339 1.332 . S
C342 C341 1.382 . S
C342 H353 0.952 . S
C343 C340 1.388 . S
C343 C344 1.382 . S
C343 H368 0.950 . S
C344 N339 1.332 . S
C344 C343 1.382 . S
C344 H354 0.948 . S
N345 Co323 2.282 . S
N345 C349 1.332 . S
N345 C350 1.332 . S
C346 C347 1.388 . S
C346 C350 1.382 . S
C346 H369 0.950 . S
C347 C346 1.388 . S
C347 C348 1.386 . S
C348 C347 1.386 . S
C348 C349 1.382 . S
C348 H370 0.950 . S
C349 N345 1.332 . S
C349 C348 1.382 . S
C349 H351 0.952 . S
C350 N345 1.332 . S
C350 C346 1.382 . S
C350 H352 0.948 . S
H351 C349 0.952 . S
H352 C350 0.948 . S
H353 C342 0.952 . S
H354 C344 0.948 . S
C355 C321 1.395 . S
C355 C325 1.391 . S
C356 C318 1.389 . S
C356 C338 1.392 . S
C357 C328 1.392 . S
C357 C330 1.389 . S
C358 C333 1.395 . S
C358 C335 1.391 . S
H359 C319 0.951 . S
H360 C320 0.950 . S
H361 C326 0.949 . S
H362 C327 0.950 . S
H363 C331 0.951 . S
H364 C332 0.950 . S
H365 C336 0.949 . S
H366 C337 0.950 . S
H367 C341 0.950 . S
H368 C343 0.950 . S
H369 C346 0.950 . S
H370 C348 0.950 . S
C371 C372 1.443 . S
C371 N375 1.376 . S
C371 C409 1.389 . S
C372 C371 1.443 . S
C372 C373 1.340 . S
C372 H412 0.951 . S
C373 C372 1.340 . S
C373 C374 1.439 . S
C373 H413 0.950 . S
C374 C373 1.439 . S
C374 N375 1.374 . S
C374 C408 1.395 . S
N375 C371 1.376 . S
N375 C374 1.374 . S
N375 Co376 2.008 . S
Co376 N375 2.008 . S
Co376 N377 1.995 . S
Co376 N382 2.008 . S
Co376 N387 1.995 . S
Co376 N392 2.282 . S
Co376 N398 2.282 . S
N377 Co376 1.995 . S
N377 C378 1.376 . S
N377 C381 1.383 . S
C378 N377 1.376 . S
C378 C379 1.446 . S
C378 C408 1.391 . S
C379 C378 1.446 . S
C379 C380 1.339 . S
C379 H414 0.949 . S
C380 C379 1.339 . S
C380 C381 1.439 . S
C380 H415 0.950 . S
C381 N377 1.383 . S
C381 C380 1.439 . S
C381 C410 1.392 . S
N382 Co376 2.008 . S
N382 C383 1.376 . S
N382 C386 1.374 . S
C383 N382 1.376 . S
C383 C384 1.443 . S
C383 C410 1.389 . S
C384 C383 1.443 . S
C384 C385 1.340 . S
C384 H416 0.951 . S
C385 C384 1.340 . S
C385 C386 1.439 . S
C385 H417 0.950 . S
C386 N382 1.374 . S
C386 C385 1.439 . S
C386 C411 1.395 . S
N387 Co376 1.995 . S
N387 C388 1.376 . S
N387 C391 1.383 . S
C388 N387 1.376 . S
C388 C389 1.446 . S
C388 C411 1.391 . S
C389 C388 1.446 . S
C389 C390 1.339 . S
C389 H418 0.949 . S
C390 C389 1.339 . S
C390 C391 1.439 . S
C390 H419 0.950 . S
C391 N387 1.383 . S
C391 C390 1.439 . S
C391 C409 1.392 . S
N392 Co376 2.282 . S
N392 C395 1.332 . S
N392 C397 1.332 . S
C393 C394 1.386 . S
C393 C396 1.388 . S
C394 C393 1.386 . S
C394 C395 1.382 . S
C394 H420 0.950 . S
C395 N392 1.332 . S
C395 C394 1.382 . S
C395 H406 0.952 . S
C396 C393 1.388 . S
C396 C397 1.382 . S
C396 H421 0.950 . S
C397 N392 1.332 . S
C397 C396 1.382 . S
C397 H407 0.948 . S
N398 Co376 2.282 . S
N398 C402 1.332 . S
N398 C403 1.332 . S
C399 C400 1.388 . S
C399 C403 1.382 . S
C399 H422 0.950 . S
C400 C399 1.388 . S
C400 C401 1.386 . S
C401 C400 1.386 . S
C401 C402 1.382 . S
C401 H423 0.950 . S
C402 N398 1.332 . S
C402 C401 1.382 . S
C402 H404 0.952 . S
C403 N398 1.332 . S
C403 C399 1.382 . S
C403 H405 0.948 . S
H404 C402 0.952 . S
H405 C403 0.948 . S
H406 C395 0.952 . S
H407 C397 0.948 . S
C408 C374 1.395 . S
C408 C378 1.391 . S
C409 C371 1.389 . S
C409 C391 1.392 . S
C410 C381 1.392 . S
C410 C383 1.389 . S
C411 C386 1.395 . S
C411 C388 1.391 . S
H412 C372 0.951 . S
H413 C373 0.950 . S
H414 C379 0.949 . S
H415 C380 0.950 . S
H416 C384 0.951 . S
H417 C385 0.950 . S
H418 C389 0.949 . S
H419 C390 0.950 . S
H420 C394 0.950 . S
H421 C396 0.950 . S
H422 C399 0.950 . S
H423 C401 0.950 . S
C424 C425 1.443 . S
C424 N428 1.376 . S
C424 C462 1.389 . S
C425 C424 1.443 . S
C425 C426 1.340 . S
C425 H465 0.951 . S
C426 C425 1.340 . S
C426 C427 1.439 . S
C426 H466 0.950 . S
C427 C426 1.439 . S
C427 N428 1.374 . S
C427 C461 1.395 . S
N428 C424 1.376 . S
N428 C427 1.374 . S
N428 Co429 2.008 . S
Co429 N428 2.008 . S
Co429 N430 1.995 . S
Co429 N435 2.008 . S
Co429 N440 1.995 . S
Co429 N445 2.282 . S
Co429 N451 2.282 . S
N430 Co429 1.995 . S
N430 C431 1.376 . S
N430 C434 1.383 . S
C431 N430 1.376 . S
C431 C432 1.446 . S
C431 C461 1.391 . S
C432 C431 1.446 . S
C432 C433 1.339 . S
C432 H467 0.949 . S
C433 C432 1.339 . S
C433 C434 1.439 . S
C433 H468 0.950 . S
C434 N430 1.383 . S
C434 C433 1.439 . S
C434 C463 1.392 . S
N435 Co429 2.008 . S
N435 C436 1.376 . S
N435 C439 1.374 . S
C436 N435 1.376 . S
C436 C437 1.443 . S
C436 C463 1.389 . S
C437 C436 1.443 . S
C437 C438 1.340 . S
C437 H469 0.951 . S
C438 C437 1.340 . S
C438 C439 1.439 . S
C438 H470 0.950 . S
C439 N435 1.374 . S
C439 C438 1.439 . S
C439 C464 1.395 . S
N440 Co429 1.995 . S
N440 C441 1.376 . S
N440 C444 1.383 . S
C441 N440 1.376 . S
C441 C442 1.446 . S
C441 C464 1.391 . S
C442 C441 1.446 . S
C442 C443 1.339 . S
C442 H471 0.949 . S
C443 C442 1.339 . S
C443 C444 1.439 . S
C443 H472 0.950 . S
C444 N440 1.383 . S
C444 C443 1.439 . S
C444 C462 1.392 . S
N445 Co429 2.282 . S
N445 C448 1.332 . S
N445 C450 1.332 . S
C446 C447 1.386 . S
C446 C449 1.388 . S
C447 C446 1.386 . S
C447 C448 1.382 . S
C447 H473 0.950 . S
C448 N445 1.332 . S
C448 C447 1.382 . S
C448 H459 0.952 . S
C449 C446 1.388 . S
C449 C450 1.382 . S
C449 H474 0.950 . S
C450 N445 1.332 . S
C450 C449 1.382 . S
C450 H460 0.948 . S
N451 Co429 2.282 . S
N451 C455 1.332 . S
N451 C456 1.332 . S
C452 C453 1.388 . S
C452 C456 1.382 . S
C452 H475 0.950 . S
C453 C452 1.388 . S
C453 C454 1.386 . S
C454 C453 1.386 . S
C454 C455 1.382 . S
C454 H476 0.950 . S
C455 N451 1.332 . S
C455 C454 1.382 . S
C455 H457 0.952 . S
C456 N451 1.332 . S
C456 C452 1.382 . S
C456 H458 0.948 . S
H457 C455 0.952 . S
H458 C456 0.948 . S
H459 C448 0.952 . S
H460 C450 0.948 . S
C461 C427 1.395 . S
C461 C431 1.391 . S
C462 C424 1.389 . S
C462 C444 1.392 . S
C463 C434 1.392 . S
C463 C436 1.389 . S
C464 C439 1.395 . S
C464 C441 1.391 . S
H465 C425 0.951 . S
H466 C426 0.950 . S
H467 C432 0.949 . S
H468 C433 0.950 . S
H469 C437 0.951 . S
H470 C438 0.950 . S
H471 C442 0.949 . S
H472 C443 0.950 . S
H473 C447 0.950 . S
H474 C449 0.950 . S
H475 C452 0.950 . S
H476 C454 0.950 . S
C477 C478 1.443 . S
C477 N481 1.376 . S
C477 C515 1.389 . S
C478 C477 1.443 . S
C478 C479 1.340 . S
C478 H518 0.951 . S
C479 C478 1.340 . S
C479 C480 1.439 . S
C479 H519 0.950 . S
C480 C479 1.439 . S
C480 N481 1.374 . S
C480 C514 1.395 . S
N481 C477 1.376 . S
N481 C480 1.374 . S
N481 Co482 2.008 . S
Co482 N481 2.008 . S
Co482 N483 1.995 . S
Co482 N488 2.008 . S
Co482 N493 1.995 . S
Co482 N498 2.282 . S
Co482 N504 2.282 . S
N483 Co482 1.995 . S
N483 C484 1.376 . S
N483 C487 1.383 . S
C484 N483 1.376 . S
C484 C485 1.446 . S
C484 C514 1.391 . S
C485 C484 1.446 . S
C485 C486 1.339 . S
C485 H520 0.949 . S
C486 C485 1.339 . S
C486 C487 1.439 . S
C486 H521 0.950 . S
C487 N483 1.383 . S
C487 C486 1.439 . S
C487 C516 1.392 . S
N488 Co482 2.008 . S
N488 C489 1.376 . S
N488 C492 1.374 . S
C489 N488 1.376 . S
C489 C490 1.443 . S
C489 C516 1.389 . S
C490 C489 1.443 . S
C490 C491 1.340 . S
C490 H522 0.951 . S
C491 C490 1.340 . S
C491 C492 1.439 . S
C491 H523 0.950 . S
C492 N488 1.374 . S
C492 C491 1.439 . S
C492 C517 1.395 . S
N493 Co482 1.995 . S
N493 C494 1.376 . S
N493 C497 1.383 . S
C494 N493 1.376 . S
C494 C495 1.446 1_556 S
C494 C517 1.391 . S
C495 C494 1.446 1_554 S
C495 C496 1.339 . S
C495 H524 0.949 . S
C496 C495 1.339 . S
C496 C497 1.439 1_554 S
C496 H525 0.950 . S
C497 N493 1.383 . S
C497 C496 1.439 1_556 S
C497 C515 1.392 . S
N498 Co482 2.282 . S
N498 C501 1.332 . S
N498 C503 1.332 . S
C499 C500 1.386 . S
C499 C502 1.388 . S
C500 C499 1.386 . S
C500 C501 1.382 . S
C500 H526 0.950 . S
C501 N498 1.332 . S
C501 C500 1.382 . S
C501 H512 0.952 . S
C502 C499 1.388 . S
C502 C503 1.382 . S
C502 H527 0.950 . S
C503 N498 1.332 . S
C503 C502 1.382 . S
C503 H513 0.948 . S
N504 Co482 2.282 . S
N504 C508 1.332 . S
N504 C509 1.332 . S
C505 C506 1.388 . S
C505 C509 1.382 . S
C505 H528 0.950 . S
C506 C505 1.388 . S
C506 C507 1.386 . S
C507 C506 1.386 . S
C507 C508 1.382 . S
C507 H529 0.950 . S
C508 N504 1.332 . S
C508 C507 1.382 . S
C508 H510 0.952 . S
C509 N504 1.332 . S
C509 C505 1.382 . S
C509 H511 0.948 . S
H510 C508 0.952 . S
H511 C509 0.948 . S
H512 C501 0.952 . S
H513 C503 0.948 . S
C514 C480 1.395 . S
C514 C484 1.391 . S
C515 C477 1.389 . S
C515 C497 1.392 . S
C516 C487 1.392 . S
C516 C489 1.389 . S
C517 C492 1.395 . S
C517 C494 1.391 . S
H518 C478 0.951 . S
H519 C479 0.950 . S
H520 C485 0.949 . S
H521 C486 0.950 . S
H522 C490 0.951 . S
H523 C491 0.950 . S
H524 C495 0.949 . S
H525 C496 0.950 . S
H526 C500 0.950 . S
H527 C502 0.950 . S
H528 C505 0.950 . S
H529 C507 0.950 . S
C530 C531 1.443 . S
C530 N534 1.376 . S
C530 C568 1.389 . S
C531 C530 1.443 . S
C531 C532 1.340 . S
C531 H571 0.951 . S
C532 C531 1.340 . S
C532 C533 1.439 . S
C532 H572 0.950 . S
C533 C532 1.439 . S
C533 N534 1.374 . S
C533 C567 1.395 . S
N534 C530 1.376 . S
N534 C533 1.374 . S
N534 Co535 2.008 . S
Co535 N534 2.008 . S
Co535 N536 1.995 . S
Co535 N541 2.008 . S
Co535 N546 1.995 . S
Co535 N551 2.282 . S
Co535 N557 2.282 . S
N536 Co535 1.995 . S
N536 C537 1.376 . S
N536 C540 1.383 . S
C537 N536 1.376 . S
C537 C538 1.446 . S
C537 C567 1.391 . S
C538 C537 1.446 . S
C538 C539 1.339 . S
C538 H573 0.949 . S
C539 C538 1.339 . S
C539 C540 1.439 . S
C539 H574 0.950 1_554 S
C540 N536 1.383 . S
C540 C539 1.439 . S
C540 C569 1.392 . S
N541 Co535 2.008 . S
N541 C542 1.376 . S
N541 C545 1.374 . S
C542 N541 1.376 . S
C542 C543 1.443 . S
C542 C569 1.389 . S
C543 C542 1.443 . S
C543 C544 1.340 . S
C543 H575 0.951 . S
C544 C543 1.340 . S
C544 C545 1.439 . S
C544 H576 0.950 . S
C545 N541 1.374 . S
C545 C544 1.439 . S
C545 C570 1.395 . S
N546 Co535 1.995 . S
N546 C547 1.376 . S
N546 C550 1.383 . S
C547 N546 1.376 . S
C547 C548 1.446 . S
C547 C570 1.391 . S
C548 C547 1.446 . S
C548 C549 1.339 . S
C548 H577 0.949 . S
C549 C548 1.339 . S
C549 C550 1.439 . S
C549 H578 0.950 . S
C550 N546 1.383 . S
C550 C549 1.439 . S
C550 C568 1.392 . S
N551 Co535 2.282 . S
N551 C554 1.332 . S
N551 C556 1.332 . S
C552 C553 1.386 . S
C552 C555 1.388 . S
C553 C552 1.386 . S
C553 C554 1.382 . S
C553 H579 0.950 . S
C554 N551 1.332 . S
C554 C553 1.382 . S
C554 H565 0.952 . S
C555 C552 1.388 . S
C555 C556 1.382 . S
C555 H580 0.950 . S
C556 N551 1.332 . S
C556 C555 1.382 . S
C556 H566 0.948 . S
N557 Co535 2.282 . S
N557 C561 1.332 . S
N557 C562 1.332 . S
C558 C559 1.388 . S
C558 C562 1.382 . S
C558 H581 0.950 . S
C559 C558 1.388 . S
C559 C560 1.386 . S
C560 C559 1.386 . S
C560 C561 1.382 . S
C560 H582 0.950 . S
C561 N557 1.332 . S
C561 C560 1.382 . S
C561 H563 0.952 . S
C562 N557 1.332 . S
C562 C558 1.382 . S
C562 H564 0.948 . S
H563 C561 0.952 . S
H564 C562 0.948 . S
H565 C554 0.952 . S
H566 C556 0.948 . S
C567 C533 1.395 . S
C567 C537 1.391 . S
C568 C530 1.389 . S
C568 C550 1.392 . S
C569 C540 1.392 . S
C569 C542 1.389 . S
C570 C545 1.395 . S
C570 C547 1.391 . S
H571 C531 0.951 . S
H572 C532 0.950 . S
H573 C538 0.949 . S
H574 C539 0.950 1_556 S
H575 C543 0.951 . S
H576 C544 0.950 . S
H577 C548 0.949 . S
H578 C549 0.950 . S
H579 C553 0.950 . S
H580 C555 0.950 . S
H581 C558 0.950 . S
H582 C560 0.950 . S
C583 C584 1.443 . S
C583 N587 1.376 . S
C583 C621 1.389 . S
C584 C583 1.443 . S
C584 C585 1.340 . S
C584 H624 0.951 . S
C585 C584 1.340 . S
C585 C586 1.439 . S
C585 H625 0.950 . S
C586 C585 1.439 . S
C586 N587 1.374 . S
C586 C620 1.395 . S
N587 C583 1.376 . S
N587 C586 1.374 . S
N587 Co588 2.008 . S
Co588 N587 2.008 . S
Co588 N589 1.995 . S
Co588 N594 2.008 . S
Co588 N599 1.995 . S
Co588 N604 2.282 . S
Co588 N610 2.282 . S
N589 Co588 1.995 . S
N589 C590 1.376 . S
N589 C593 1.383 . S
C590 N589 1.376 . S
C590 C591 1.446 . S
C590 C620 1.391 . S
C591 C590 1.446 . S
C591 C592 1.339 . S
C591 H626 0.949 . S
C592 C591 1.339 . S
C592 C593 1.439 . S
C592 H627 0.950 . S
C593 N589 1.383 . S
C593 C592 1.439 . S
C593 C622 1.392 . S
N594 Co588 2.008 . S
N594 C595 1.376 . S
N594 C598 1.374 . S
C595 N594 1.376 . S
C595 C596 1.443 . S
C595 C622 1.389 . S
C596 C595 1.443 . S
C596 C597 1.340 . S
C596 H628 0.951 . S
C597 C596 1.340 . S
C597 C598 1.439 . S
C597 H629 0.950 . S
C598 N594 1.374 . S
C598 C597 1.439 . S
C598 C623 1.395 . S
N599 Co588 1.995 . S
N599 C600 1.376 . S
N599 C603 1.383 . S
C600 N599 1.376 . S
C600 C601 1.446 . S
C600 C623 1.391 . S
C601 C600 1.446 . S
C601 C602 1.339 . S
C601 H630 0.949 . S
C602 C601 1.339 . S
C602 C603 1.439 . S
C602 H631 0.950 . S
C603 N599 1.383 . S
C603 C602 1.439 . S
C603 C621 1.392 . S
N604 Co588 2.282 . S
N604 C607 1.332 . S
N604 C609 1.332 . S
C605 C606 1.386 . S
C605 C608 1.388 . S
C606 C605 1.386 . S
C606 C607 1.382 . S
C606 H632 0.950 . S
C607 N604 1.332 . S
C607 C606 1.382 . S
C607 H618 0.952 . S
C608 C605 1.388 . S
C608 C609 1.382 . S
C608 H633 0.950 . S
C609 N604 1.332 . S
C609 C608 1.382 . S
C609 H619 0.948 . S
N610 Co588 2.282 . S
N610 C614 1.332 . S
N610 C615 1.332 . S
C611 C612 1.388 . S
C611 C615 1.382 . S
C611 H634 0.950 . S
C612 C611 1.388 . S
C612 C613 1.386 . S
C613 C612 1.386 . S
C613 C614 1.382 . S
C613 H635 0.950 . S
C614 N610 1.332 . S
C614 C613 1.382 . S
C614 H616 0.952 . S
C615 N610 1.332 . S
C615 C611 1.382 . S
C615 H617 0.948 . S
H616 C614 0.952 . S
H617 C615 0.948 . S
H618 C607 0.952 . S
H619 C609 0.948 . S
C620 C586 1.395 . S
C620 C590 1.391 . S
C621 C583 1.389 . S
C621 C603 1.392 . S
C622 C593 1.392 . S
C622 C595 1.389 . S
C623 C598 1.395 . S
C623 C600 1.391 . S
H624 C584 0.951 . S
H625 C585 0.950 . S
H626 C591 0.949 . S
H627 C592 0.950 . S
H628 C596 0.951 . S
H629 C597 0.950 . S
H630 C601 0.949 . S
H631 C602 0.950 . S
H632 C606 0.950 . S
H633 C608 0.950 . S
H634 C611 0.950 . S
H635 C613 0.950 . S
H636 C654 0.951 . S
H637 C656 0.951 . S
H638 C658 0.950 . S
H639 C659 0.950 . S
H640 C661 0.950 . S
H641 C664 0.950 . S
H642 C665 0.950 . S
H643 C667 0.950 . S
H644 C668 0.950 . S
H645 C669 0.951 . S
H646 C671 0.951 . S
H647 C673 0.950 . S
H648 C674 0.950 . S
H649 C676 0.950 . S
H650 C679 0.950 . S
H651 C680 0.950 . S
H652 C682 0.950 . S
H653 C683 0.950 . S
C654 H636 0.951 . S
C654 C655 1.366 . S
C654 C656 1.388 . S
C655 C654 1.366 . S
C655 C659 1.385 . S
C656 H637 0.951 . S
C656 C654 1.388 . S
C656 C657 1.366 . S
C657 C656 1.366 . S
C657 C658 1.414 . S
C657 C660 1.499 . S
C658 H638 0.950 . S
C658 C657 1.414 . S
C658 C659 1.374 . S
C659 H639 0.950 . S
C659 C655 1.385 . S
C659 C658 1.374 . S
C660 C657 1.499 . S
C660 C661 1.373 . S
C660 C662 1.389 . S
C661 H640 0.950 . S
C661 C660 1.373 . S
C661 C677 1.377 . S
C662 C660 1.389 . S
C662 C663 1.524 . S
C662 C676 1.377 . S
C663 C662 1.524 . S
C663 C664 1.397 . S
C663 C668 1.363 . S
C664 H641 0.950 . S
C664 C663 1.397 . S
C664 C665 1.334 . S
C665 H642 0.950 . S
C665 C664 1.334 . S
C665 C666 1.287 . S
C666 C665 1.287 . S
C666 C667 1.524 . S
C666 H685 0.913 . S
C667 H643 0.950 . S
C667 C666 1.524 . S
C667 C668 1.415 . S
C668 H644 0.950 . S
C668 C663 1.363 . S
C668 C667 1.415 . S
C669 H645 0.951 . S
C669 C670 1.366 . S
C669 C671 1.388 . S
C670 C669 1.366 . S
C670 C674 1.385 . S
C671 H646 0.951 . S
C671 C669 1.388 . S
C671 C672 1.366 . S
C672 C671 1.366 . S
C672 C673 1.414 . S
C672 C675 1.499 . S
C673 H647 0.950 . S
C673 C672 1.414 . S
C673 C674 1.374 . S
C674 H648 0.950 . S
C674 C670 1.385 . S
C674 C673 1.374 . S
C675 C672 1.499 . S
C675 C676 1.373 . S
C675 C677 1.389 . S
C676 H649 0.950 . S
C676 C662 1.377 . S
C676 C675 1.373 . S
C677 C661 1.377 . S
C677 C675 1.389 . S
C677 C678 1.524 . S
C678 C677 1.524 . S
C678 C679 1.397 . S
C678 C683 1.363 . S
C679 H650 0.950 . S
C679 C678 1.397 . S
C679 C680 1.334 . S
C680 H651 0.950 . S
C680 C679 1.334 . S
C680 C681 1.287 . S
C681 C680 1.287 . S
C681 C682 1.524 . S
C681 H684 0.999 . S
C682 H652 0.950 . S
C682 C681 1.524 . S
C682 C683 1.415 . S
C683 H653 0.950 . S
C683 C678 1.363 . S
C683 C682 1.415 . S
H684 C681 0.999 . S
H685 C666 0.913 . S
H686 C704 0.951 . S
H687 C706 0.951 . S
H688 C708 0.950 . S
H689 C709 0.950 . S
H690 C711 0.950 . S
H691 C714 0.950 . S
H692 C715 0.950 . S
H693 C717 0.950 . S
H694 C718 0.950 . S
H695 C719 0.951 . S
H696 C721 0.951 . S
H697 C723 0.950 . S
H698 C724 0.950 . S
H699 C726 0.950 . S
H700 C729 0.950 . S
H701 C730 0.950 . S
H702 C732 0.950 . S
H703 C733 0.950 . S
C704 H686 0.951 . S
C704 C705 1.366 . S
C704 C706 1.388 . S
C705 C704 1.366 . S
C705 C709 1.385 . S
C706 H687 0.951 . S
C706 C704 1.388 . S
C706 C707 1.366 . S
C707 C706 1.366 . S
C707 C708 1.414 . S
C707 C710 1.499 . S
C708 H688 0.950 . S
C708 C707 1.414 . S
C708 C709 1.374 . S
C709 H689 0.950 . S
C709 C705 1.385 . S
C709 C708 1.374 . S
C710 C707 1.499 . S
C710 C711 1.373 . S
C710 C712 1.389 . S
C711 H690 0.950 . S
C711 C710 1.373 . S
C711 C727 1.377 . S
C712 C710 1.389 . S
C712 C713 1.524 . S
C712 C726 1.377 . S
C713 C712 1.524 . S
C713 C714 1.397 . S
C713 C718 1.363 . S
C714 H691 0.950 . S
C714 C713 1.397 . S
C714 C715 1.334 . S
C715 H692 0.950 . S
C715 C714 1.334 . S
C715 C716 1.287 . S
C716 C715 1.287 . S
C716 C717 1.524 . S
C716 H735 0.913 . S
C717 H693 0.950 . S
C717 C716 1.524 . S
C717 C718 1.415 . S
C718 H694 0.950 . S
C718 C713 1.363 . S
C718 C717 1.415 . S
C719 H695 0.951 . S
C719 C720 1.366 . S
C719 C721 1.388 . S
C720 C719 1.366 . S
C720 C724 1.385 . S
C721 H696 0.951 . S
C721 C719 1.388 . S
C721 C722 1.366 . S
C722 C721 1.366 . S
C722 C723 1.414 . S
C722 C725 1.499 . S
C723 H697 0.950 . S
C723 C722 1.414 . S
C723 C724 1.374 . S
C724 H698 0.950 . S
C724 C720 1.385 . S
C724 C723 1.374 . S
C725 C722 1.499 . S
C725 C726 1.373 . S
C725 C727 1.389 . S
C726 H699 0.950 . S
C726 C712 1.377 . S
C726 C725 1.373 . S
C727 C711 1.377 . S
C727 C725 1.389 . S
C727 C728 1.524 . S
C728 C727 1.524 . S
C728 C729 1.397 . S
C728 C733 1.363 . S
C729 H700 0.950 . S
C729 C728 1.397 . S
C729 C730 1.334 . S
C730 H701 0.950 . S
C730 C729 1.334 . S
C730 C731 1.287 . S
C731 C730 1.287 . S
C731 C732 1.524 . S
C731 H734 0.999 . S
C732 H702 0.950 . S
C732 C731 1.524 . S
C732 C733 1.415 . S
C733 H703 0.950 . S
C733 C728 1.363 . S
C733 C732 1.415 . S
H734 C731 0.999 . S
H735 C716 0.913 . S
H736 C754 0.951 . S
H737 C756 0.951 . S
H738 C758 0.950 . S
H739 C759 0.950 . S
H740 C761 0.950 . S
H741 C764 0.950 . S
H742 C765 0.950 . S
H743 C767 0.950 . S
H744 C768 0.950 . S
H745 C769 0.951 . S
H746 C771 0.951 . S
H747 C773 0.950 . S
H748 C774 0.950 . S
H749 C776 0.950 . S
H750 C779 0.950 . S
H751 C780 0.950 . S
H752 C782 0.950 . S
H753 C783 0.950 . S
C754 H736 0.951 . S
C754 C755 1.366 . S
C754 C756 1.388 . S
C755 C754 1.366 . S
C755 C759 1.385 . S
C756 H737 0.951 . S
C756 C754 1.388 . S
C756 C757 1.366 . S
C757 C756 1.366 . S
C757 C758 1.414 . S
C757 C760 1.499 . S
C758 H738 0.950 . S
C758 C757 1.414 . S
C758 C759 1.374 . S
C759 H739 0.950 . S
C759 C755 1.385 . S
C759 C758 1.374 . S
C760 C757 1.499 . S
C760 C761 1.373 . S
C760 C762 1.389 . S
C761 H740 0.950 . S
C761 C760 1.373 . S
C761 C777 1.377 . S
C762 C760 1.389 . S
C762 C763 1.524 . S
C762 C776 1.377 . S
C763 C762 1.524 . S
C763 C764 1.397 . S
C763 C768 1.363 . S
C764 H741 0.950 . S
C764 C763 1.397 . S
C764 C765 1.334 . S
C765 H742 0.950 . S
C765 C764 1.334 . S
C765 C766 1.287 . S
C766 C765 1.287 . S
C766 C767 1.524 . S
C766 H785 0.913 . S
C767 H743 0.950 . S
C767 C766 1.524 . S
C767 C768 1.415 . S
C768 H744 0.950 . S
C768 C763 1.363 . S
C768 C767 1.415 . S
C769 H745 0.951 . S
C769 C770 1.366 . S
C769 C771 1.388 . S
C770 C769 1.366 . S
C770 C774 1.385 . S
C771 H746 0.951 . S
C771 C769 1.388 . S
C771 C772 1.366 . S
C772 C771 1.366 . S
C772 C773 1.414 . S
C772 C775 1.499 . S
C773 H747 0.950 . S
C773 C772 1.414 . S
C773 C774 1.374 . S
C774 H748 0.950 . S
C774 C770 1.385 . S
C774 C773 1.374 . S
C775 C772 1.499 . S
C775 C776 1.373 . S
C775 C777 1.389 . S
C776 H749 0.950 . S
C776 C762 1.377 . S
C776 C775 1.373 . S
C777 C761 1.377 . S
C777 C775 1.389 . S
C777 C778 1.524 . S
C778 C777 1.524 . S
C778 C779 1.397 . S
C778 C783 1.363 . S
C779 H750 0.950 . S
C779 C778 1.397 . S
C779 C780 1.334 . S
C780 H751 0.950 . S
C780 C779 1.334 . S
C780 C781 1.287 . S
C781 C780 1.287 . S
C781 C782 1.524 . S
C781 H784 0.999 . S
C782 H752 0.950 . S
C782 C781 1.524 . S
C782 C783 1.415 . S
C783 H753 0.950 . S
C783 C778 1.363 . S
C783 C782 1.415 . S
H784 C781 0.999 . S
H785 C766 0.913 . S
H786 C804 0.951 . S
H787 C806 0.951 . S
H788 C808 0.950 . S
H789 C809 0.950 . S
H790 C811 0.950 . S
H791 C814 0.950 . S
H792 C815 0.950 . S
H793 C817 0.950 . S
H794 C818 0.950 . S
H795 C819 0.951 . S
H796 C821 0.951 . S
H797 C823 0.950 . S
H798 C824 0.950 . S
H799 C826 0.950 . S
H800 C829 0.950 . S
H801 C830 0.950 . S
H802 C832 0.950 . S
H803 C833 0.950 . S
C804 H786 0.951 . S
C804 C805 1.366 . S
C804 C806 1.388 . S
C805 C804 1.366 . S
C805 C809 1.385 . S
C806 H787 0.951 . S
C806 C804 1.388 . S
C806 C807 1.366 . S
C807 C806 1.366 . S
C807 C808 1.414 . S
C807 C810 1.499 . S
C808 H788 0.950 . S
C808 C807 1.414 . S
C808 C809 1.374 . S
C809 H789 0.950 . S
C809 C805 1.385 . S
C809 C808 1.374 . S
C810 C807 1.499 . S
C810 C811 1.373 . S
C810 C812 1.389 . S
C811 H790 0.950 . S
C811 C810 1.373 . S
C811 C827 1.377 . S
C812 C810 1.389 . S
C812 C813 1.524 . S
C812 C826 1.377 . S
C813 C812 1.524 . S
C813 C814 1.397 . S
C813 C818 1.363 . S
C814 H791 0.950 . S
C814 C813 1.397 . S
C814 C815 1.334 . S
C815 H792 0.950 . S
C815 C814 1.334 . S
C815 C816 1.287 . S
C816 C815 1.287 . S
C816 C817 1.524 . S
C816 H835 0.913 . S
C817 H793 0.950 . S
C817 C816 1.524 . S
C817 C818 1.415 . S
C818 H794 0.950 . S
C818 C813 1.363 . S
C818 C817 1.415 . S
C819 H795 0.951 . S
C819 C820 1.366 . S
C819 C821 1.388 . S
C820 C819 1.366 . S
C820 C824 1.385 . S
C821 H796 0.951 . S
C821 C819 1.388 . S
C821 C822 1.366 . S
C822 C821 1.366 . S
C822 C823 1.414 . S
C822 C825 1.499 . S
C823 H797 0.950 . S
C823 C822 1.414 . S
C823 C824 1.374 . S
C824 H798 0.950 . S
C824 C820 1.385 . S
C824 C823 1.374 . S
C825 C822 1.499 . S
C825 C826 1.373 . S
C825 C827 1.389 . S
C826 H799 0.950 . S
C826 C812 1.377 . S
C826 C825 1.373 . S
C827 C811 1.377 . S
C827 C825 1.389 . S
C827 C828 1.524 . S
C828 C827 1.524 . S
C828 C829 1.397 . S
C828 C833 1.363 . S
C829 H800 0.950 . S
C829 C828 1.397 . S
C829 C830 1.334 1_556 S
C830 H801 0.950 . S
C830 C829 1.334 1_554 S
C830 C831 1.287 . S
C831 C830 1.287 . S
C831 C832 1.524 . S
C831 H834 0.999 . S
C832 H802 0.950 . S
C832 C831 1.524 . S
C832 C833 1.415 1_554 S
C833 H803 0.950 . S
C833 C828 1.363 . S
C833 C832 1.415 1_556 S
H834 C831 0.999 . S
H835 C816 0.913 . S
H836 C854 0.951 . S
H837 C856 0.951 . S
H838 C858 0.950 . S
H839 C859 0.950 . S
H840 C861 0.950 . S
H841 C864 0.950 . S
H842 C865 0.950 . S
H843 C867 0.950 . S
H844 C868 0.950 . S
H845 C869 0.951 . S
H846 C871 0.951 . S
H847 C873 0.950 . S
H848 C874 0.950 . S
H849 C876 0.950 . S
H850 C879 0.950 . S
H851 C880 0.950 . S
H852 C882 0.950 . S
H853 C883 0.950 . S
C854 H836 0.951 . S
C854 C855 1.366 . S
C854 C856 1.388 . S
C855 C854 1.366 . S
C855 C859 1.385 . S
C856 H837 0.951 . S
C856 C854 1.388 . S
C856 C857 1.366 . S
C857 C856 1.366 . S
C857 C858 1.414 . S
C857 C860 1.499 . S
C858 H838 0.950 . S
C858 C857 1.414 . S
C858 C859 1.374 . S
C859 H839 0.950 . S
C859 C855 1.385 . S
C859 C858 1.374 . S
C860 C857 1.499 . S
C860 C861 1.373 . S
C860 C862 1.389 . S
C861 H840 0.950 . S
C861 C860 1.373 . S
C861 C877 1.377 . S
C862 C860 1.389 . S
C862 C863 1.524 . S
C862 C876 1.377 . S
C863 C862 1.524 . S
C863 C864 1.397 . S
C863 C868 1.363 . S
C864 H841 0.950 . S
C864 C863 1.397 . S
C864 C865 1.334 . S
C865 H842 0.950 . S
C865 C864 1.334 . S
C865 C866 1.287 . S
C866 C865 1.287 . S
C866 C867 1.524 . S
C866 H885 0.913 . S
C867 H843 0.950 . S
C867 C866 1.524 . S
C867 C868 1.415 . S
C868 H844 0.950 . S
C868 C863 1.363 . S
C868 C867 1.415 . S
C869 H845 0.951 . S
C869 C870 1.366 . S
C869 C871 1.388 . S
C870 C869 1.366 . S
C870 C874 1.385 . S
C871 H846 0.951 . S
C871 C869 1.388 . S
C871 C872 1.366 . S
C872 C871 1.366 . S
C872 C873 1.414 . S
C872 C875 1.499 . S
C873 H847 0.950 . S
C873 C872 1.414 . S
C873 C874 1.374 . S
C874 H848 0.950 . S
C874 C870 1.385 . S
C874 C873 1.374 . S
C875 C872 1.499 . S
C875 C876 1.373 . S
C875 C877 1.389 . S
C876 H849 0.950 . S
C876 C862 1.377 . S
C876 C875 1.373 . S
C877 C861 1.377 . S
C877 C875 1.389 . S
C877 C878 1.524 . S
C878 C877 1.524 . S
C878 C879 1.397 . S
C878 C883 1.363 . S
C879 H850 0.950 . S
C879 C878 1.397 . S
C879 C880 1.334 . S
C880 H851 0.950 . S
C880 C879 1.334 . S
C880 C881 1.287 . S
C881 C880 1.287 . S
C881 C882 1.524 . S
C881 H884 0.999 . S
C882 H852 0.950 . S
C882 C881 1.524 . S
C882 C883 1.415 . S
C883 H853 0.950 . S
C883 C878 1.363 . S
C883 C882 1.415 . S
H884 C881 0.999 . S
H885 C866 0.913 . S
H886 C904 0.951 . S
H887 C906 0.951 . S
H888 C908 0.950 . S
H889 C909 0.950 . S
H890 C911 0.950 . S
H891 C914 0.950 . S
H892 C915 0.950 . S
H893 C917 0.950 . S
H894 C918 0.950 . S
H895 C919 0.951 . S
H896 C921 0.951 . S
H897 C923 0.950 . S
H898 C924 0.950 . S
H899 C926 0.950 . S
H900 C929 0.950 . S
H901 C930 0.950 . S
H902 C932 0.950 . S
H903 C933 0.950 . S
C904 H886 0.951 . S
C904 C905 1.366 . S
C904 C906 1.388 . S
C905 C904 1.366 . S
C905 C909 1.385 . S
C906 H887 0.951 . S
C906 C904 1.388 . S
C906 C907 1.366 . S
C907 C906 1.366 . S
C907 C908 1.414 . S
C907 C910 1.499 . S
C908 H888 0.950 . S
C908 C907 1.414 . S
C908 C909 1.374 . S
C909 H889 0.950 . S
C909 C905 1.385 . S
C909 C908 1.374 . S
C910 C907 1.499 . S
C910 C911 1.373 . S
C910 C912 1.389 . S
C911 H890 0.950 . S
C911 C910 1.373 . S
C911 C927 1.377 . S
C912 C910 1.389 . S
C912 C913 1.524 . S
C912 C926 1.377 . S
C913 C912 1.524 . S
C913 C914 1.397 . S
C913 C918 1.363 . S
C914 H891 0.950 . S
C914 C913 1.397 . S
C914 C915 1.334 . S
C915 H892 0.950 . S
C915 C914 1.334 . S
C915 C916 1.287 . S
C916 C915 1.287 . S
C916 C917 1.524 . S
C916 H935 0.913 . S
C917 H893 0.950 . S
C917 C916 1.524 . S
C917 C918 1.415 . S
C918 H894 0.950 . S
C918 C913 1.363 . S
C918 C917 1.415 . S
C919 H895 0.951 . S
C919 C920 1.366 . S
C919 C921 1.388 . S
C920 C919 1.366 . S
C920 C924 1.385 . S
C921 H896 0.951 . S
C921 C919 1.388 . S
C921 C922 1.366 . S
C922 C921 1.366 . S
C922 C923 1.414 . S
C922 C925 1.499 . S
C923 H897 0.950 . S
C923 C922 1.414 . S
C923 C924 1.374 . S
C924 H898 0.950 . S
C924 C920 1.385 . S
C924 C923 1.374 . S
C925 C922 1.499 . S
C925 C926 1.373 . S
C925 C927 1.389 . S
C926 H899 0.950 . S
C926 C912 1.377 . S
C926 C925 1.373 . S
C927 C911 1.377 . S
C927 C925 1.389 . S
C927 C928 1.524 . S
C928 C927 1.524 . S
C928 C929 1.397 . S
C928 C933 1.363 . S
C929 H900 0.950 . S
C929 C928 1.397 . S
C929 C930 1.334 . S
C930 H901 0.950 . S
C930 C929 1.334 . S
C930 C931 1.287 . S
C931 C930 1.287 . S
C931 C932 1.524 . S
C931 H934 0.999 . S
C932 H902 0.950 . S
C932 C931 1.524 . S
C932 C933 1.415 . S
C933 H903 0.950 . S
C933 C928 1.363 . S
C933 C932 1.415 . S
H934 C931 0.999 . S
H935 C916 0.913 . S
H936 C954 0.951 . S
H937 C956 0.951 . S
H938 C958 0.950 . S
H939 C959 0.950 . S
H940 C961 0.950 . S
H941 C964 0.950 . S
H942 C965 0.950 . S
H943 C967 0.950 . S
H944 C968 0.950 . S
H945 C969 0.951 . S
H946 C971 0.951 . S
H947 C973 0.950 . S
H948 C974 0.950 . S
H949 C976 0.950 . S
H950 C979 0.950 . S
H951 C980 0.950 . S
H952 C982 0.950 . S
H953 C983 0.950 . S
C954 H936 0.951 . S
C954 C955 1.366 . S
C954 C956 1.388 . S
C955 C954 1.366 . S
C955 C959 1.385 . S
C956 H937 0.951 . S
C956 C954 1.388 . S
C956 C957 1.366 . S
C957 C956 1.366 . S
C957 C958 1.414 . S
C957 C960 1.499 . S
C958 H938 0.950 . S
C958 C957 1.414 . S
C958 C959 1.374 . S
C959 H939 0.950 . S
C959 C955 1.385 . S
C959 C958 1.374 . S
C960 C957 1.499 . S
C960 C961 1.373 . S
C960 C962 1.389 . S
C961 H940 0.950 . S
C961 C960 1.373 . S
C961 C977 1.377 . S
C962 C960 1.389 . S
C962 C963 1.524 . S
C962 C976 1.377 . S
C963 C962 1.524 . S
C963 C964 1.397 . S
C963 C968 1.363 . S
C964 H941 0.950 . S
C964 C963 1.397 . S
C964 C965 1.334 . S
C965 H942 0.950 . S
C965 C964 1.334 . S
C965 C966 1.287 . S
C966 C965 1.287 . S
C966 C967 1.524 . S
C966 H985 0.913 . S
C967 H943 0.950 . S
C967 C966 1.524 . S
C967 C968 1.415 . S
C968 H944 0.950 . S
C968 C963 1.363 . S
C968 C967 1.415 . S
C969 H945 0.951 . S
C969 C970 1.366 . S
C969 C971 1.388 . S
C970 C969 1.366 . S
C970 C974 1.385 . S
C971 H946 0.951 . S
C971 C969 1.388 . S
C971 C972 1.366 . S
C972 C971 1.366 . S
C972 C973 1.414 . S
C972 C975 1.499 . S
C973 H947 0.950 . S
C973 C972 1.414 . S
C973 C974 1.374 . S
C974 H948 0.950 . S
C974 C970 1.385 . S
C974 C973 1.374 . S
C975 C972 1.499 . S
C975 C976 1.373 . S
C975 C977 1.389 . S
C976 H949 0.950 . S
C976 C962 1.377 . S
C976 C975 1.373 . S
C977 C961 1.377 . S
C977 C975 1.389 . S
C977 C978 1.524 . S
C978 C977 1.524 . S
C978 C979 1.397 . S
C978 C983 1.363 . S
C979 H950 0.950 . S
C979 C978 1.397 . S
C979 C980 1.334 . S
C980 H951 0.950 . S
C980 C979 1.334 . S
C980 C981 1.287 . S
C981 C980 1.287 . S
C981 C982 1.524 . S
C981 H984 0.999 . S
C982 H952 0.950 . S
C982 C981 1.524 . S
C982 C983 1.415 . S
C983 H953 0.950 . S
C983 C978 1.363 . S
C983 C982 1.415 . S
H984 C981 0.999 . S
H985 C966 0.913 . S
H986 C1004 0.951 . S
H987 C1006 0.951 . S
H988 C1008 0.950 . S
H989 C1009 0.950 . S
H990 C1011 0.950 . S
H991 C1014 0.950 . S
H992 C1015 0.950 . S
H993 C1017 0.950 . S
H994 C1018 0.950 . S
H995 C1019 0.951 . S
H996 C1021 0.951 . S
H997 C1023 0.950 . S
H998 C1024 0.950 . S
H999 C1026 0.950 . S
H1000 C1029 0.950 . S
H1001 C1030 0.950 . S
H1002 C1032 0.950 . S
H1003 C1033 0.950 . S
C1004 H986 0.951 . S
C1004 C1005 1.366 . S
C1004 C1006 1.388 . S
C1005 C1004 1.366 . S
C1005 C1009 1.385 . S
C1006 H987 0.951 . S
C1006 C1004 1.388 . S
C1006 C1007 1.366 . S
C1007 C1006 1.366 . S
C1007 C1008 1.414 . S
C1007 C1010 1.499 . S
C1008 H988 0.950 . S
C1008 C1007 1.414 . S
C1008 C1009 1.374 . S
C1009 H989 0.950 . S
C1009 C1005 1.385 . S
C1009 C1008 1.374 . S
C1010 C1007 1.499 . S
C1010 C1011 1.373 . S
C1010 C1012 1.389 . S
C1011 H990 0.950 . S
C1011 C1010 1.373 . S
C1011 C1027 1.377 . S
C1012 C1010 1.389 . S
C1012 C1013 1.524 . S
C1012 C1026 1.377 . S
C1013 C1012 1.524 . S
C1013 C1014 1.397 . S
C1013 C1018 1.363 . S
C1014 H991 0.950 . S
C1014 C1013 1.397 . S
C1014 C1015 1.334 . S
C1015 H992 0.950 . S
C1015 C1014 1.334 . S
C1015 C1016 1.287 . S
C1016 C1015 1.287 . S
C1016 C1017 1.524 . S
C1016 H1035 0.913 . S
C1017 H993 0.950 . S
C1017 C1016 1.524 . S
C1017 C1018 1.415 . S
C1018 H994 0.950 . S
C1018 C1013 1.363 . S
C1018 C1017 1.415 . S
C1019 H995 0.951 . S
C1019 C1020 1.366 . S
C1019 C1021 1.388 . S
C1020 C1019 1.366 . S
C1020 C1024 1.385 . S
C1021 H996 0.951 . S
C1021 C1019 1.388 . S
C1021 C1022 1.366 . S
C1022 C1021 1.366 . S
C1022 C1023 1.414 . S
C1022 C1025 1.499 . S
C1023 H997 0.950 . S
C1023 C1022 1.414 . S
C1023 C1024 1.374 . S
C1024 H998 0.950 . S
C1024 C1020 1.385 . S
C1024 C1023 1.374 . S
C1025 C1022 1.499 . S
C1025 C1026 1.373 . S
C1025 C1027 1.389 . S
C1026 H999 0.950 . S
C1026 C1012 1.377 . S
C1026 C1025 1.373 . S
C1027 C1011 1.377 . S
C1027 C1025 1.389 . S
C1027 C1028 1.524 . S
C1028 C1027 1.524 . S
C1028 C1029 1.397 . S
C1028 C1033 1.363 . S
C1029 H1000 0.950 . S
C1029 C1028 1.397 . S
C1029 C1030 1.334 . S
C1030 H1001 0.950 . S
C1030 C1029 1.334 . S
C1030 C1031 1.287 . S
C1031 C1030 1.287 . S
C1031 C1032 1.524 . S
C1031 H1034 0.999 . S
C1032 H1002 0.950 . S
C1032 C1031 1.524 . S
C1032 C1033 1.415 . S
C1033 H1003 0.950 . S
C1033 C1028 1.363 . S
C1033 C1032 1.415 . S
H1034 C1031 0.999 . S
H1035 C1016 0.913 . S
H1036 C1054 0.951 . S
H1037 C1056 0.951 . S
H1038 C1058 0.950 . S
H1039 C1059 0.950 . S
H1040 C1061 0.950 . S
H1041 C1064 0.950 . S
H1042 C1065 0.950 . S
H1043 C1067 0.950 . S
H1044 C1068 0.950 . S
H1045 C1069 0.951 . S
H1046 C1071 0.951 . S
H1047 C1073 0.950 . S
H1048 C1074 0.950 . S
H1049 C1076 0.950 . S
H1050 C1079 0.950 . S
H1051 C1080 0.950 . S
H1052 C1082 0.950 . S
H1053 C1083 0.950 . S
C1054 H1036 0.951 . S
C1054 C1055 1.366 . S
C1054 C1056 1.388 1_554 S
C1055 C1054 1.366 . S
C1055 C1059 1.385 . S
C1056 H1037 0.951 . S
C1056 C1054 1.388 1_556 S
C1056 C1057 1.366 . S
C1057 C1056 1.366 . S
C1057 C1058 1.414 . S
C1057 C1060 1.499 . S
C1058 H1038 0.950 . S
C1058 C1057 1.414 . S
C1058 C1059 1.374 1_556 S
C1059 H1039 0.950 . S
C1059 C1055 1.385 . S
C1059 C1058 1.374 1_554 S
C1060 C1057 1.499 . S
C1060 C1061 1.373 . S
C1060 C1062 1.389 . S
C1061 H1040 0.950 . S
C1061 C1060 1.373 . S
C1061 C1077 1.377 . S
C1062 C1060 1.389 . S
C1062 C1063 1.524 . S
C1062 C1076 1.377 . S
C1063 C1062 1.524 . S
C1063 C1064 1.397 . S
C1063 C1068 1.363 . S
C1064 H1041 0.950 . S
C1064 C1063 1.397 . S
C1064 C1065 1.334 . S
C1065 H1042 0.950 . S
C1065 C1064 1.334 . S
C1065 C1066 1.287 . S
C1066 C1065 1.287 . S
C1066 C1067 1.524 . S
C1066 H1085 0.913 . S
C1067 H1043 0.950 . S
C1067 C1066 1.524 . S
C1067 C1068 1.415 . S
C1068 H1044 0.950 . S
C1068 C1063 1.363 . S
C1068 C1067 1.415 . S
C1069 H1045 0.951 . S
C1069 C1070 1.366 . S
C1069 C1071 1.388 . S
C1070 C1069 1.366 . S
C1070 C1074 1.385 . S
C1071 H1046 0.951 . S
C1071 C1069 1.388 . S
C1071 C1072 1.366 . S
C1072 C1071 1.366 . S
C1072 C1073 1.414 . S
C1072 C1075 1.499 . S
C1073 H1047 0.950 . S
C1073 C1072 1.414 . S
C1073 C1074 1.374 . S
C1074 H1048 0.950 . S
C1074 C1070 1.385 . S
C1074 C1073 1.374 . S
C1075 C1072 1.499 . S
C1075 C1076 1.373 . S
C1075 C1077 1.389 . S
C1076 H1049 0.950 . S
C1076 C1062 1.377 . S
C1076 C1075 1.373 . S
C1077 C1061 1.377 . S
C1077 C1075 1.389 . S
C1077 C1078 1.524 . S
C1078 C1077 1.524 . S
C1078 C1079 1.397 . S
C1078 C1083 1.363 . S
C1079 H1050 0.950 . S
C1079 C1078 1.397 . S
C1079 C1080 1.334 . S
C1080 H1051 0.950 . S
C1080 C1079 1.334 . S
C1080 C1081 1.287 . S
C1081 C1080 1.287 . S
C1081 C1082 1.524 . S
C1081 H1084 0.999 . S
C1082 H1052 0.950 . S
C1082 C1081 1.524 . S
C1082 C1083 1.415 . S
C1083 H1053 0.950 . S
C1083 C1078 1.363 . S
C1083 C1082 1.415 . S
H1084 C1081 0.999 . S
H1085 C1066 0.913 . S
H1086 C1104 0.951 . S
H1087 C1106 0.951 . S
H1088 C1108 0.950 . S
H1089 C1109 0.950 . S
H1090 C1111 0.950 . S
H1091 C1114 0.950 . S
H1092 C1115 0.950 . S
H1093 C1117 0.950 . S
H1094 C1118 0.950 . S
H1095 C1119 0.950 . S
H1096 C1121 0.951 . S
H1097 C1123 0.950 . S
H1098 C1124 0.950 . S
H1099 C1126 0.950 . S
H1100 C1129 0.950 . S
H1101 C1130 0.950 . S
H1102 C1132 0.950 . S
H1103 C1133 0.950 . S
C1104 H1086 0.951 . S
C1104 C1105 1.366 . S
C1104 C1106 1.388 . S
C1105 C1104 1.366 . S
C1105 C1109 1.385 . S
C1106 H1087 0.951 . S
C1106 C1104 1.388 . S
C1106 C1107 1.366 . S
C1107 C1106 1.366 . S
C1107 C1108 1.414 . S
C1107 C1110 1.499 . S
C1108 H1088 0.950 . S
C1108 C1107 1.414 . S
C1108 C1109 1.374 . S
C1109 H1089 0.950 . S
C1109 C1105 1.385 . S
C1109 C1108 1.374 . S
C1110 C1107 1.499 . S
C1110 C1111 1.373 . S
C1110 C1112 1.389 . S
C1111 H1090 0.950 . S
C1111 C1110 1.373 . S
C1111 C1127 1.377 . S
C1112 C1110 1.389 . S
C1112 C1113 1.524 . S
C1112 C1126 1.377 . S
C1113 C1112 1.524 . S
C1113 C1114 1.397 . S
C1113 C1118 1.363 . S
C1114 H1091 0.950 . S
C1114 C1113 1.397 . S
C1114 C1115 1.334 . S
C1115 H1092 0.950 . S
C1115 C1114 1.334 . S
C1115 C1116 1.287 . S
C1116 C1115 1.287 . S
C1116 C1117 1.524 . S
C1116 H1135 0.913 . S
C1117 H1093 0.950 . S
C1117 C1116 1.524 . S
C1117 C1118 1.415 . S
C1118 H1094 0.950 . S
C1118 C1113 1.363 . S
C1118 C1117 1.415 . S
C1119 H1095 0.950 . S
C1119 C1120 1.363 . S
C1119 C1121 1.392 1_556 S
C1120 C1119 1.363 . S
C1120 C1124 1.385 . S
C1121 H1096 0.951 . S
C1121 C1119 1.392 1_554 S
C1121 C1122 1.366 . S
C1122 C1121 1.366 . S
C1122 C1123 1.414 . S
C1122 C1125 1.499 . S
C1123 H1097 0.950 . S
C1123 C1122 1.414 . S
C1123 C1124 1.374 1_554 S
C1124 H1098 0.950 . S
C1124 C1120 1.385 . S
C1124 C1123 1.374 1_556 S
C1125 C1122 1.499 . S
C1125 C1126 1.373 . S
C1125 C1127 1.389 . S
C1126 H1099 0.950 . S
C1126 C1112 1.377 . S
C1126 C1125 1.373 . S
C1127 C1111 1.377 . S
C1127 C1125 1.389 . S
C1127 C1128 1.524 . S
C1128 C1127 1.524 . S
C1128 C1129 1.397 . S
C1128 C1133 1.363 . S
C1129 H1100 0.950 . S
C1129 C1128 1.397 . S
C1129 C1130 1.334 . S
C1130 H1101 0.950 . S
C1130 C1129 1.334 . S
C1130 C1131 1.287 . S
C1131 C1130 1.287 . S
C1131 C1132 1.524 . S
C1131 H1134 0.999 . S
C1132 H1102 0.950 . S
C1132 C1131 1.524 . S
C1132 C1133 1.415 . S
C1133 H1103 0.950 . S
C1133 C1128 1.363 . S
C1133 C1132 1.415 . S
H1134 C1131 0.999 . S
H1135 C1116 0.913 . S
H1136 C1154 0.951 . S
H1137 C1156 0.951 . S
H1138 C1158 0.950 . S
H1139 C1159 0.950 . S
H1140 C1161 0.950 . S
H1141 C1164 0.950 . S
H1142 C1165 0.950 . S
H1143 C1167 0.950 . S
H1144 C1168 0.950 . S
H1145 C1169 0.951 . S
H1146 C1171 0.951 . S
H1147 C1173 0.950 . S
H1148 C1174 0.950 . S
H1149 C1176 0.950 . S
H1150 C1179 0.950 . S
H1151 C1180 0.950 . S
H1152 C1182 0.950 . S
H1153 C1183 0.950 . S
C1154 H1136 0.951 . S
C1154 C1155 1.366 . S
C1154 C1156 1.388 . S
C1155 C1154 1.366 . S
C1155 C1159 1.385 . S
C1156 H1137 0.951 . S
C1156 C1154 1.388 . S
C1156 C1157 1.366 . S
C1157 C1156 1.366 . S
C1157 C1158 1.414 . S
C1157 C1160 1.499 . S
C1158 H1138 0.950 . S
C1158 C1157 1.414 . S
C1158 C1159 1.374 . S
C1159 H1139 0.950 . S
C1159 C1155 1.385 . S
C1159 C1158 1.374 . S
C1160 C1157 1.499 . S
C1160 C1161 1.373 . S
C1160 C1162 1.389 . S
C1161 H1140 0.950 . S
C1161 C1160 1.373 . S
C1161 C1177 1.377 . S
C1162 C1160 1.389 . S
C1162 C1163 1.524 . S
C1162 C1176 1.377 . S
C1163 C1162 1.524 . S
C1163 C1164 1.397 . S
C1163 C1168 1.363 . S
C1164 H1141 0.950 . S
C1164 C1163 1.397 . S
C1164 C1165 1.334 . S
C1165 H1142 0.950 . S
C1165 C1164 1.334 . S
C1165 C1166 1.287 . S
C1166 C1165 1.287 . S
C1166 C1167 1.524 . S
C1166 H1185 0.913 . S
C1167 H1143 0.950 . S
C1167 C1166 1.524 . S
C1167 C1168 1.415 . S
C1168 H1144 0.950 . S
C1168 C1163 1.363 . S
C1168 C1167 1.415 . S
C1169 H1145 0.951 . S
C1169 C1170 1.366 . S
C1169 C1171 1.388 . S
C1170 C1169 1.366 . S
C1170 C1174 1.385 . S
C1171 H1146 0.951 . S
C1171 C1169 1.388 . S
C1171 C1172 1.366 . S
C1172 C1171 1.366 . S
C1172 C1173 1.414 . S
C1172 C1175 1.499 . S
C1173 H1147 0.950 . S
C1173 C1172 1.414 . S
C1173 C1174 1.374 . S
C1174 H1148 0.950 . S
C1174 C1170 1.385 . S
C1174 C1173 1.374 . S
C1175 C1172 1.499 . S
C1175 C1176 1.373 . S
C1175 C1177 1.389 . S
C1176 H1149 0.950 . S
C1176 C1162 1.377 . S
C1176 C1175 1.373 . S
C1177 C1161 1.377 . S
C1177 C1175 1.389 . S
C1177 C1178 1.524 . S
C1178 C1177 1.524 . S
C1178 C1179 1.397 . S
C1178 C1183 1.363 . S
C1179 H1150 0.950 . S
C1179 C1178 1.397 . S
C1179 C1180 1.334 . S
C1180 H1151 0.950 . S
C1180 C1179 1.334 . S
C1180 C1181 1.287 . S
C1181 C1180 1.287 . S
C1181 C1182 1.524 . S
C1181 H1184 0.999 . S
C1182 H1152 0.950 . S
C1182 C1181 1.524 . S
C1182 C1183 1.415 . S
C1183 H1153 0.950 . S
C1183 C1178 1.363 . S
C1183 C1182 1.415 . S
H1184 C1181 0.999 . S
H1185 C1166 0.913 . S
H1186 C1204 0.951 . S
H1187 C1206 0.951 . S
H1188 C1208 0.950 . S
H1189 C1209 0.950 . S
H1190 C1211 0.950 . S
H1191 C1214 0.950 . S
H1192 C1215 0.950 . S
H1193 C1217 0.950 . S
H1194 C1218 0.950 . S
H1195 C1219 0.951 . S
H1196 C1221 0.951 . S
H1197 C1223 0.950 . S
H1198 C1224 0.950 . S
H1199 C1226 0.950 . S
H1200 C1229 0.950 . S
H1201 C1230 0.950 . S
H1202 C1232 0.950 . S
H1203 C1233 0.950 . S
C1204 H1186 0.951 . S
C1204 C1205 1.366 . S
C1204 C1206 1.388 . S
C1205 C1204 1.366 . S
C1205 C1209 1.385 . S
C1206 H1187 0.951 . S
C1206 C1204 1.388 . S
C1206 C1207 1.366 . S
C1207 C1206 1.366 . S
C1207 C1208 1.414 . S
C1207 C1210 1.499 . S
C1208 H1188 0.950 . S
C1208 C1207 1.414 . S
C1208 C1209 1.374 . S
C1209 H1189 0.950 . S
C1209 C1205 1.385 . S
C1209 C1208 1.374 . S
C1210 C1207 1.499 . S
C1210 C1211 1.373 . S
C1210 C1212 1.389 . S
C1211 H1190 0.950 . S
C1211 C1210 1.373 . S
C1211 C1227 1.377 . S
C1212 C1210 1.389 . S
C1212 C1213 1.524 . S
C1212 C1226 1.377 . S
C1213 C1212 1.524 . S
C1213 C1214 1.397 . S
C1213 C1218 1.363 . S
C1214 H1191 0.950 . S
C1214 C1213 1.397 . S
C1214 C1215 1.334 . S
C1215 H1192 0.950 . S
C1215 C1214 1.334 . S
C1215 C1216 1.287 . S
C1216 C1215 1.287 . S
C1216 C1217 1.524 . S
C1216 H1235 0.913 . S
C1217 H1193 0.950 . S
C1217 C1216 1.524 . S
C1217 C1218 1.415 . S
C1218 H1194 0.950 . S
C1218 C1213 1.363 . S
C1218 C1217 1.415 . S
C1219 H1195 0.951 . S
C1219 C1220 1.366 . S
C1219 C1221 1.388 . S
C1220 C1219 1.366 . S
C1220 C1224 1.385 . S
C1221 H1196 0.951 . S
C1221 C1219 1.388 . S
C1221 C1222 1.366 . S
C1222 C1221 1.366 . S
C1222 C1223 1.414 . S
C1222 C1225 1.499 . S
C1223 H1197 0.950 . S
C1223 C1222 1.414 . S
C1223 C1224 1.374 . S
C1224 H1198 0.950 . S
C1224 C1220 1.385 . S
C1224 C1223 1.374 . S
C1225 C1222 1.499 . S
C1225 C1226 1.373 . S
C1225 C1227 1.389 . S
C1226 H1199 0.950 . S
C1226 C1212 1.377 . S
C1226 C1225 1.373 . S
C1227 C1211 1.377 . S
C1227 C1225 1.389 . S
C1227 C1228 1.524 . S
C1228 C1227 1.524 . S
C1228 C1229 1.397 . S
C1228 C1233 1.363 . S
C1229 H1200 0.950 . S
C1229 C1228 1.397 . S
C1229 C1230 1.334 . S
C1230 H1201 0.950 . S
C1230 C1229 1.334 . S
C1230 C1231 1.287 . S
C1231 C1230 1.287 . S
C1231 C1232 1.524 . S
C1231 H1234 0.999 . S
C1232 H1202 0.950 . S
C1232 C1231 1.524 . S
C1232 C1233 1.415 . S
C1233 H1203 0.950 . S
C1233 C1228 1.363 . S
C1233 C1232 1.415 . S
H1234 C1231 0.999 . S
H1235 C1216 0.913 . S
H1236 C1254 0.951 . S
H1237 C1256 0.951 . S
H1238 C1258 0.950 . S
H1239 C1259 0.950 . S
H1240 C1261 0.950 . S
H1241 C1264 0.950 . S
H1242 C1265 0.950 . S
H1243 C1267 0.950 . S
H1244 C1268 0.950 . S
H1245 C1269 0.951 . S
H1246 C1271 0.951 . S
H1247 C1273 0.950 . S
H1248 C1274 0.950 . S
H1249 C1276 0.950 . S
H1250 C1279 0.950 . S
H1251 C1280 0.950 . S
H1252 C1282 0.950 . S
H1253 C1283 0.950 . S
C1254 H1236 0.951 . S
C1254 C1255 1.366 . S
C1254 C1256 1.388 . S
C1255 C1254 1.366 . S
C1255 C1259 1.385 . S
C1256 H1237 0.951 . S
C1256 C1254 1.388 . S
C1256 C1257 1.366 . S
C1257 C1256 1.366 . S
C1257 C1258 1.414 . S
C1257 C1260 1.499 . S
C1258 H1238 0.950 . S
C1258 C1257 1.414 . S
C1258 C1259 1.374 . S
C1259 H1239 0.950 . S
C1259 C1255 1.385 . S
C1259 C1258 1.374 . S
C1260 C1257 1.499 . S
C1260 C1261 1.373 . S
C1260 C1262 1.389 . S
C1261 H1240 0.950 . S
C1261 C1260 1.373 . S
C1261 C1277 1.377 1_655 S
C1262 C1260 1.389 . S
C1262 C1263 1.524 . S
C1262 C1276 1.377 1_655 S
C1263 C1262 1.524 . S
C1263 C1264 1.397 . S
C1263 C1268 1.363 . S
C1264 H1241 0.950 . S
C1264 C1263 1.397 . S
C1264 C1265 1.334 . S
C1265 H1242 0.950 . S
C1265 C1264 1.334 . S
C1265 C1266 1.287 . S
C1266 C1265 1.287 . S
C1266 C1267 1.524 . S
C1266 H1285 0.913 . S
C1267 H1243 0.950 . S
C1267 C1266 1.524 . S
C1267 C1268 1.415 . S
C1268 H1244 0.950 . S
C1268 C1263 1.363 . S
C1268 C1267 1.415 . S
C1269 H1245 0.951 . S
C1269 C1270 1.366 . S
C1269 C1271 1.388 . S
C1270 C1269 1.366 . S
C1270 C1274 1.385 . S
C1271 H1246 0.951 . S
C1271 C1269 1.388 . S
C1271 C1272 1.366 . S
C1272 C1271 1.366 . S
C1272 C1273 1.414 . S
C1272 C1275 1.499 . S
C1273 H1247 0.950 . S
C1273 C1272 1.414 . S
C1273 C1274 1.374 . S
C1274 H1248 0.950 . S
C1274 C1270 1.385 . S
C1274 C1273 1.374 . S
C1275 C1272 1.499 . S
C1275 C1276 1.373 . S
C1275 C1277 1.389 . S
C1276 H1249 0.950 . S
C1276 C1262 1.377 1_455 S
C1276 C1275 1.373 . S
C1277 C1261 1.377 1_455 S
C1277 C1275 1.389 . S
C1277 C1278 1.524 . S
C1278 C1277 1.524 . S
C1278 C1279 1.397 . S
C1278 C1283 1.363 . S
C1279 H1250 0.950 . S
C1279 C1278 1.397 . S
C1279 C1280 1.334 . S
C1280 H1251 0.950 . S
C1280 C1279 1.334 . S
C1280 C1281 1.287 . S
C1281 C1280 1.287 . S
C1281 C1282 1.524 . S
C1281 H1284 0.999 . S
C1282 H1252 0.950 . S
C1282 C1281 1.524 . S
C1282 C1283 1.415 . S
C1283 H1253 0.950 . S
C1283 C1278 1.363 . S
C1283 C1282 1.415 . S
H1284 C1281 0.999 . S
H1285 C1266 0.913 . S
H1286 C1304 0.951 . S
H1287 C1306 0.951 . S
H1288 C1308 0.950 . S
H1289 C1309 0.950 . S
H1290 C1311 0.950 . S
H1291 C1314 0.950 . S
H1292 C1315 0.950 . S
H1293 C1317 0.950 . S
H1294 C1318 0.950 . S
H1295 C1319 0.951 . S
H1296 C1321 0.951 . S
H1297 C1323 0.950 . S
H1298 C1324 0.950 . S
H1299 C1326 0.950 . S
H1300 C1329 0.950 . S
H1301 C1330 0.950 . S
H1302 C1332 0.950 . S
H1303 C1333 0.950 . S
C1304 H1286 0.951 . S
C1304 C1305 1.366 . S
C1304 C1306 1.388 . S
C1305 C1304 1.366 . S
C1305 C1309 1.385 . S
C1306 H1287 0.951 . S
C1306 C1304 1.388 . S
C1306 C1307 1.366 . S
C1307 C1306 1.366 . S
C1307 C1308 1.414 . S
C1307 C1310 1.499 . S
C1308 H1288 0.950 . S
C1308 C1307 1.414 . S
C1308 C1309 1.374 . S
C1309 H1289 0.950 . S
C1309 C1305 1.385 . S
C1309 C1308 1.374 . S
C1310 C1307 1.499 . S
C1310 C1311 1.373 . S
C1310 C1312 1.389 . S
C1311 H1290 0.950 . S
C1311 C1310 1.373 . S
C1311 C1327 1.377 1_565 S
C1312 C1310 1.389 . S
C1312 C1313 1.524 . S
C1312 C1326 1.377 1_565 S
C1313 C1312 1.524 . S
C1313 C1314 1.397 . S
C1313 C1318 1.363 . S
C1314 H1291 0.950 . S
C1314 C1313 1.397 . S
C1314 C1315 1.334 . S
C1315 H1292 0.950 . S
C1315 C1314 1.334 . S
C1315 C1316 1.287 . S
C1316 C1315 1.287 . S
C1316 C1317 1.524 . S
C1316 H1335 0.913 . S
C1317 H1293 0.950 . S
C1317 C1316 1.524 . S
C1317 C1318 1.415 . S
C1318 H1294 0.950 . S
C1318 C1313 1.363 . S
C1318 C1317 1.415 . S
C1319 H1295 0.951 . S
C1319 C1320 1.366 . S
C1319 C1321 1.388 . S
C1320 C1319 1.366 . S
C1320 C1324 1.385 . S
C1321 H1296 0.951 . S
C1321 C1319 1.388 . S
C1321 C1322 1.366 . S
C1322 C1321 1.366 . S
C1322 C1323 1.414 . S
C1322 C1325 1.499 . S
C1323 H1297 0.950 . S
C1323 C1322 1.414 . S
C1323 C1324 1.374 . S
C1324 H1298 0.950 . S
C1324 C1320 1.385 . S
C1324 C1323 1.374 . S
C1325 C1322 1.499 . S
C1325 C1326 1.373 . S
C1325 C1327 1.389 . S
C1326 H1299 0.950 . S
C1326 C1312 1.377 1_545 S
C1326 C1325 1.373 . S
C1327 C1311 1.377 1_545 S
C1327 C1325 1.389 . S
C1327 C1328 1.524 . S
C1328 C1327 1.524 . S
C1328 C1329 1.397 . S
C1328 C1333 1.363 . S
C1329 H1300 0.950 . S
C1329 C1328 1.397 . S
C1329 C1330 1.334 . S
C1330 H1301 0.950 . S
C1330 C1329 1.334 . S
C1330 C1331 1.287 . S
C1331 C1330 1.287 . S
C1331 C1332 1.524 . S
C1331 H1334 0.999 . S
C1332 H1302 0.950 . S
C1332 C1331 1.524 . S
C1332 C1333 1.415 . S
C1333 H1303 0.950 . S
C1333 C1328 1.363 . S
C1333 C1332 1.415 . S
H1334 C1331 0.999 . S
H1335 C1316 0.913 . S
H1336 C1354 0.951 . S
H1337 C1356 0.951 . S
H1338 C1358 0.950 . S
H1339 C1359 0.950 . S
H1340 C1361 0.950 . S
H1341 C1364 0.950 . S
H1342 C1365 0.950 . S
H1343 C1367 0.950 . S
H1344 C1368 0.950 . S
H1345 C1369 0.951 . S
H1346 C1371 0.951 . S
H1347 C1373 0.950 . S
H1348 C1374 0.950 . S
H1349 C1376 0.950 . S
H1350 C1379 0.950 . S
H1351 C1380 0.950 . S
H1352 C1382 0.950 . S
H1353 C1383 0.950 . S
C1354 H1336 0.951 . S
C1354 C1355 1.366 . S
C1354 C1356 1.388 . S
C1355 C1354 1.366 . S
C1355 C1359 1.385 . S
C1356 H1337 0.951 . S
C1356 C1354 1.388 . S
C1356 C1357 1.366 . S
C1357 C1356 1.366 . S
C1357 C1358 1.414 . S
C1357 C1360 1.499 . S
C1358 H1338 0.950 . S
C1358 C1357 1.414 . S
C1358 C1359 1.374 . S
C1359 H1339 0.950 . S
C1359 C1355 1.385 . S
C1359 C1358 1.374 . S
C1360 C1357 1.499 . S
C1360 C1361 1.373 . S
C1360 C1362 1.389 . S
C1361 H1340 0.950 . S
C1361 C1360 1.373 . S
C1361 C1377 1.377 . S
C1362 C1360 1.389 . S
C1362 C1363 1.524 . S
C1362 C1376 1.377 . S
C1363 C1362 1.524 . S
C1363 C1364 1.397 . S
C1363 C1368 1.363 . S
C1364 H1341 0.950 . S
C1364 C1363 1.397 . S
C1364 C1365 1.334 . S
C1365 H1342 0.950 . S
C1365 C1364 1.334 . S
C1365 C1366 1.287 . S
C1366 C1365 1.287 . S
C1366 C1367 1.524 . S
C1366 H1385 0.913 . S
C1367 H1343 0.950 . S
C1367 C1366 1.524 . S
C1367 C1368 1.415 . S
C1368 H1344 0.950 . S
C1368 C1363 1.363 . S
C1368 C1367 1.415 . S
C1369 H1345 0.951 . S
C1369 C1370 1.366 . S
C1369 C1371 1.388 . S
C1370 C1369 1.366 . S
C1370 C1374 1.385 . S
C1371 H1346 0.951 . S
C1371 C1369 1.388 . S
C1371 C1372 1.366 . S
C1372 C1371 1.366 . S
C1372 C1373 1.414 . S
C1372 C1375 1.499 . S
C1373 H1347 0.950 . S
C1373 C1372 1.414 . S
C1373 C1374 1.374 . S
C1374 H1348 0.950 . S
C1374 C1370 1.385 . S
C1374 C1373 1.374 . S
C1375 C1372 1.499 . S
C1375 C1376 1.373 . S
C1375 C1377 1.389 . S
C1376 H1349 0.950 . S
C1376 C1362 1.377 . S
C1376 C1375 1.373 . S
C1377 C1361 1.377 . S
C1377 C1375 1.389 . S
C1377 C1378 1.524 . S
C1378 C1377 1.524 . S
C1378 C1379 1.397 . S
C1378 C1383 1.363 . S
C1379 H1350 0.950 . S
C1379 C1378 1.397 . S
C1379 C1380 1.334 . S
C1380 H1351 0.950 . S
C1380 C1379 1.334 . S
C1380 C1381 1.287 . S
C1381 C1380 1.287 . S
C1381 C1382 1.524 . S
C1381 H1384 0.999 . S
C1382 H1352 0.950 . S
C1382 C1381 1.524 . S
C1382 C1383 1.415 . S
C1383 H1353 0.950 . S
C1383 C1378 1.363 . S
C1383 C1382 1.415 . S
H1384 C1381 0.999 . S
H1385 C1366 0.913 . S
H1386 C1404 0.951 . S
H1387 C1406 0.951 . S
H1388 C1408 0.950 . S
H1389 C1409 0.950 . S
H1390 C1411 0.950 . S
H1391 C1414 0.950 . S
H1392 C1415 0.950 . S
H1393 C1417 0.950 . S
H1394 C1418 0.950 . S
H1395 C1419 0.951 . S
H1396 C1421 0.951 . S
H1397 C1423 0.950 . S
H1398 C1424 0.950 . S
H1399 C1426 0.950 . S
H1400 C1429 0.950 . S
H1401 C1430 0.950 . S
H1402 C1432 0.950 . S
H1403 C1433 0.950 . S
C1404 H1386 0.951 . S
C1404 C1405 1.366 . S
C1404 C1406 1.388 . S
C1405 C1404 1.366 . S
C1405 C1409 1.385 . S
C1406 H1387 0.951 . S
C1406 C1404 1.388 . S
C1406 C1407 1.366 . S
C1407 C1406 1.366 . S
C1407 C1408 1.414 . S
C1407 C1410 1.499 . S
C1408 H1388 0.950 . S
C1408 C1407 1.414 . S
C1408 C1409 1.374 . S
C1409 H1389 0.950 . S
C1409 C1405 1.385 . S
C1409 C1408 1.374 . S
C1410 C1407 1.499 . S
C1410 C1411 1.373 . S
C1410 C1412 1.389 . S
C1411 H1390 0.950 . S
C1411 C1410 1.373 . S
C1411 C1427 1.377 1_455 S
C1412 C1410 1.389 . S
C1412 C1413 1.524 . S
C1412 C1426 1.377 1_455 S
C1413 C1412 1.524 . S
C1413 C1414 1.397 . S
C1413 C1418 1.363 . S
C1414 H1391 0.950 . S
C1414 C1413 1.397 . S
C1414 C1415 1.334 . S
C1415 H1392 0.950 . S
C1415 C1414 1.334 . S
C1415 C1416 1.287 . S
C1416 C1415 1.287 . S
C1416 C1417 1.524 . S
C1416 H1435 0.913 . S
C1417 H1393 0.950 . S
C1417 C1416 1.524 . S
C1417 C1418 1.415 . S
C1418 H1394 0.950 . S
C1418 C1413 1.363 . S
C1418 C1417 1.415 . S
C1419 H1395 0.951 . S
C1419 C1420 1.366 . S
C1419 C1421 1.388 . S
C1420 C1419 1.366 . S
C1420 C1424 1.385 . S
C1421 H1396 0.951 . S
C1421 C1419 1.388 . S
C1421 C1422 1.366 . S
C1422 C1421 1.366 . S
C1422 C1423 1.414 . S
C1422 C1425 1.499 . S
C1423 H1397 0.950 . S
C1423 C1422 1.414 . S
C1423 C1424 1.374 . S
C1424 H1398 0.950 . S
C1424 C1420 1.385 . S
C1424 C1423 1.374 . S
C1425 C1422 1.499 . S
C1425 C1426 1.373 . S
C1425 C1427 1.389 . S
C1426 H1399 0.950 . S
C1426 C1412 1.377 1_655 S
C1426 C1425 1.373 . S
C1427 C1411 1.377 1_655 S
C1427 C1425 1.389 . S
C1427 C1428 1.524 . S
C1428 C1427 1.524 . S
C1428 C1429 1.397 . S
C1428 C1433 1.363 . S
C1429 H1400 0.950 . S
C1429 C1428 1.397 . S
C1429 C1430 1.334 . S
C1430 H1401 0.950 . S
C1430 C1429 1.334 . S
C1430 C1431 1.287 . S
C1431 C1430 1.287 . S
C1431 C1432 1.524 . S
C1431 H1434 0.999 . S
C1432 H1402 0.950 . S
C1432 C1431 1.524 . S
C1432 C1433 1.415 . S
C1433 H1403 0.950 . S
C1433 C1428 1.363 . S
C1433 C1432 1.415 . S
H1434 C1431 0.999 . S
H1435 C1416 0.913 . S
H1436 C1454 0.951 . S
H1437 C1456 0.951 . S
H1438 C1458 0.950 1_554 S
H1439 C1459 0.950 . S
H1440 C1461 0.950 . S
H1441 C1464 0.950 1_554 S
H1442 C1465 0.950 . S
H1443 C1467 0.950 . S
H1444 C1468 0.950 1_565 S
H1445 C1469 0.951 . S
H1446 C1471 0.951 . S
H1447 C1473 0.950 1_556 S
H1448 C1474 0.950 . S
H1449 C1476 0.950 . S
H1450 C1479 0.950 1_556 S
H1451 C1480 0.950 . S
H1452 C1482 0.950 . S
H1453 C1483 0.950 1_545 S
C1454 H1436 0.951 . S
C1454 C1455 1.366 . S
C1454 C1456 1.388 . S
C1455 C1454 1.366 . S
C1455 C1459 1.385 . S
C1456 H1437 0.951 . S
C1456 C1454 1.388 . S
C1456 C1457 1.366 . S
C1457 C1456 1.366 . S
C1457 C1458 1.414 . S
C1457 C1460 1.499 . S
C1458 H1438 0.950 1_556 S
C1458 C1457 1.414 . S
C1458 C1459 1.374 . S
C1459 H1439 0.950 . S
C1459 C1455 1.385 . S
C1459 C1458 1.374 . S
C1460 C1457 1.499 . S
C1460 C1461 1.373 . S
C1460 C1462 1.389 . S
C1461 H1440 0.950 . S
C1461 C1460 1.373 . S
C1461 C1477 1.377 1_546 S
C1462 C1460 1.389 . S
C1462 C1463 1.524 . S
C1462 C1476 1.377 1_546 S
C1463 C1462 1.524 . S
C1463 C1464 1.397 . S
C1463 C1468 1.363 . S
C1464 H1441 0.950 1_556 S
C1464 C1463 1.397 . S
C1464 C1465 1.334 . S
C1465 H1442 0.950 . S
C1465 C1464 1.334 . S
C1465 C1466 1.287 . S
C1466 C1465 1.287 . S
C1466 C1467 1.524 . S
C1466 H1485 0.913 . S
C1467 H1443 0.950 . S
C1467 C1466 1.524 . S
C1467 C1468 1.415 . S
C1468 H1444 0.950 1_545 S
C1468 C1463 1.363 . S
C1468 C1467 1.415 . S
C1469 H1445 0.951 . S
C1469 C1470 1.366 . S
C1469 C1471 1.388 . S
C1470 C1469 1.366 . S
C1470 C1474 1.385 . S
C1471 H1446 0.951 . S
C1471 C1469 1.388 . S
C1471 C1472 1.366 . S
C1472 C1471 1.366 . S
C1472 C1473 1.414 . S
C1472 C1475 1.499 . S
C1473 H1447 0.950 1_554 S
C1473 C1472 1.414 . S
C1473 C1474 1.374 . S
C1474 H1448 0.950 . S
C1474 C1470 1.385 . S
C1474 C1473 1.374 . S
C1475 C1472 1.499 . S
C1475 C1476 1.373 . S
C1475 C1477 1.389 . S
C1476 H1449 0.950 . S
C1476 C1462 1.377 1_564 S
C1476 C1475 1.373 . S
C1477 C1461 1.377 1_564 S
C1477 C1475 1.389 . S
C1477 C1478 1.524 . S
C1478 C1477 1.524 . S
C1478 C1479 1.397 . S
C1478 C1483 1.363 . S
C1479 H1450 0.950 1_554 S
C1479 C1478 1.397 . S
C1479 C1480 1.334 . S
C1480 H1451 0.950 . S
C1480 C1479 1.334 . S
C1480 C1481 1.287 . S
C1481 C1480 1.287 . S
C1481 C1482 1.524 . S
C1481 H1484 0.999 . S
C1482 H1452 0.950 . S
C1482 C1481 1.524 . S
C1482 C1483 1.415 . S
C1483 H1453 0.950 1_565 S
C1483 C1478 1.363 . S
C1483 C1482 1.415 . S
H1484 C1481 0.999 . S
H1485 C1466 0.913 . S
H1486 C1504 0.951 . S
H1487 C1506 0.951 . S
H1488 C1508 0.950 . S
H1489 C1509 0.950 . S
H1490 C1511 0.950 . S
H1491 C1514 0.950 . S
H1492 C1515 0.950 . S
H1493 C1517 0.950 . S
H1494 C1518 0.950 . S
H1495 C1519 0.951 . S
H1496 C1521 0.951 . S
H1497 C1523 0.950 . S
H1498 C1524 0.950 . S
H1499 C1526 0.950 . S
H1500 C1529 0.950 . S
H1501 C1530 0.950 . S
H1502 C1532 0.950 . S
H1503 C1533 0.950 . S
C1504 H1486 0.951 . S
C1504 C1505 1.366 . S
C1504 C1506 1.388 . S
C1505 C1504 1.366 . S
C1505 C1509 1.385 . S
C1506 H1487 0.951 . S
C1506 C1504 1.388 . S
C1506 C1507 1.366 . S
C1507 C1506 1.366 . S
C1507 C1508 1.414 . S
C1507 C1510 1.499 . S
C1508 H1488 0.950 . S
C1508 C1507 1.414 . S
C1508 C1509 1.374 . S
C1509 H1489 0.950 . S
C1509 C1505 1.385 . S
C1509 C1508 1.374 . S
C1510 C1507 1.499 . S
C1510 C1511 1.373 . S
C1510 C1512 1.389 . S
C1511 H1490 0.950 . S
C1511 C1510 1.373 . S
C1511 C1527 1.377 . S
C1512 C1510 1.389 . S
C1512 C1513 1.524 . S
C1512 C1526 1.377 . S
C1513 C1512 1.524 . S
C1513 C1514 1.397 . S
C1513 C1518 1.363 . S
C1514 H1491 0.950 . S
C1514 C1513 1.397 . S
C1514 C1515 1.334 . S
C1515 H1492 0.950 . S
C1515 C1514 1.334 . S
C1515 C1516 1.287 . S
C1516 C1515 1.287 . S
C1516 C1517 1.524 . S
C1516 H1535 0.913 . S
C1517 H1493 0.950 . S
C1517 C1516 1.524 . S
C1517 C1518 1.415 . S
C1518 H1494 0.950 . S
C1518 C1513 1.363 . S
C1518 C1517 1.415 . S
C1519 H1495 0.951 . S
C1519 C1520 1.366 . S
C1519 C1521 1.388 . S
C1520 C1519 1.366 . S
C1520 C1524 1.385 . S
C1521 H1496 0.951 . S
C1521 C1519 1.388 . S
C1521 C1522 1.366 . S
C1522 C1521 1.366 . S
C1522 C1523 1.414 . S
C1522 C1525 1.499 . S
C1523 H1497 0.950 . S
C1523 C1522 1.414 . S
C1523 C1524 1.374 . S
C1524 H1498 0.950 . S
C1524 C1520 1.385 . S
C1524 C1523 1.374 . S
C1525 C1522 1.499 . S
C1525 C1526 1.373 . S
C1525 C1527 1.389 . S
C1526 H1499 0.950 . S
C1526 C1512 1.377 . S
C1526 C1525 1.373 . S
C1527 C1511 1.377 . S
C1527 C1525 1.389 . S
C1527 C1528 1.524 . S
C1528 C1527 1.524 . S
C1528 C1529 1.397 . S
C1528 C1533 1.363 . S
C1529 H1500 0.950 . S
C1529 C1528 1.397 . S
C1529 C1530 1.334 . S
C1530 H1501 0.950 . S
C1530 C1529 1.334 . S
C1530 C1531 1.287 . S
C1531 C1530 1.287 . S
C1531 C1532 1.524 . S
C1531 H1534 0.999 . S
C1532 H1502 0.950 . S
C1532 C1531 1.524 . S
C1532 C1533 1.415 . S
C1533 H1503 0.950 . S
C1533 C1528 1.363 . S
C1533 C1532 1.415 . S
H1534 C1531 0.999 . S
H1535 C1516 0.913 . S
H1536 C1554 0.951 . S
H1537 C1556 0.951 . S
H1538 C1558 0.950 . S
H1539 C1559 0.950 . S
H1540 C1561 0.950 . S
H1541 C1564 0.950 . S
H1542 C1565 0.950 . S
H1543 C1567 0.950 . S
H1544 C1568 0.950 . S
H1545 C1569 0.951 . S
H1546 C1571 0.951 . S
H1547 C1573 0.950 . S
H1548 C1574 0.950 . S
H1549 C1576 0.950 . S
H1550 C1579 0.950 . S
H1551 C1580 0.950 . S
H1552 C1582 0.950 . S
H1553 C1583 0.950 . S
C1554 H1536 0.951 . S
C1554 C1555 1.366 . S
C1554 C1556 1.388 . S
C1555 C1554 1.366 . S
C1555 C1559 1.385 . S
C1556 H1537 0.951 . S
C1556 C1554 1.388 . S
C1556 C1557 1.366 . S
C1557 C1556 1.366 . S
C1557 C1558 1.414 . S
C1557 C1560 1.499 . S
C1558 H1538 0.950 . S
C1558 C1557 1.414 . S
C1558 C1559 1.374 . S
C1559 H1539 0.950 . S
C1559 C1555 1.385 . S
C1559 C1558 1.374 . S
C1560 C1557 1.499 . S
C1560 C1561 1.373 . S
C1560 C1562 1.389 . S
C1561 H1540 0.950 . S
C1561 C1560 1.373 . S
C1561 C1577 1.377 . S
C1562 C1560 1.389 . S
C1562 C1563 1.524 . S
C1562 C1576 1.377 . S
C1563 C1562 1.524 . S
C1563 C1564 1.397 . S
C1563 C1568 1.363 . S
C1564 H1541 0.950 . S
C1564 C1563 1.397 . S
C1564 C1565 1.334 . S
C1565 H1542 0.950 . S
C1565 C1564 1.334 . S
C1565 C1566 1.287 . S
C1566 C1565 1.287 . S
C1566 C1567 1.524 . S
C1566 H1585 0.913 . S
C1567 H1543 0.950 . S
C1567 C1566 1.524 . S
C1567 C1568 1.415 . S
C1568 H1544 0.950 . S
C1568 C1563 1.363 . S
C1568 C1567 1.415 . S
C1569 H1545 0.951 . S
C1569 C1570 1.366 . S
C1569 C1571 1.388 . S
C1570 C1569 1.366 . S
C1570 C1574 1.385 . S
C1571 H1546 0.951 . S
C1571 C1569 1.388 . S
C1571 C1572 1.366 . S
C1572 C1571 1.366 . S
C1572 C1573 1.414 . S
C1572 C1575 1.499 . S
C1573 H1547 0.950 . S
C1573 C1572 1.414 . S
C1573 C1574 1.374 . S
C1574 H1548 0.950 . S
C1574 C1570 1.385 . S
C1574 C1573 1.374 . S
C1575 C1572 1.499 . S
C1575 C1576 1.373 . S
C1575 C1577 1.389 . S
C1576 H1549 0.950 . S
C1576 C1562 1.377 . S
C1576 C1575 1.373 . S
C1577 C1561 1.377 . S
C1577 C1575 1.389 . S
C1577 C1578 1.524 . S
C1578 C1577 1.524 . S
C1578 C1579 1.397 . S
C1578 C1583 1.363 . S
C1579 H1550 0.950 . S
C1579 C1578 1.397 . S
C1579 C1580 1.334 . S
C1580 H1551 0.950 . S
C1580 C1579 1.334 . S
C1580 C1581 1.287 . S
C1581 C1580 1.287 . S
C1581 C1582 1.524 . S
C1581 H1584 0.999 . S
C1582 H1552 0.950 . S
C1582 C1581 1.524 . S
C1582 C1583 1.415 . S
C1583 H1553 0.950 . S
C1583 C1578 1.363 . S
C1583 C1582 1.415 . S
H1584 C1581 0.999 . S
H1585 C1566 0.913 . S
H1586 C1604 0.951 . S
H1587 C1606 0.951 . S
H1588 C1608 0.950 . S
H1589 C1609 0.950 . S
H1590 C1611 0.950 . S
H1591 C1614 0.950 . S
H1592 C1615 0.950 . S
H1593 C1617 0.950 . S
H1594 C1618 0.950 . S
H1595 C1619 0.951 . S
H1596 C1621 0.951 . S
H1597 C1623 0.950 . S
H1598 C1624 0.950 . S
H1599 C1626 0.950 . S
H1600 C1629 0.950 . S
H1601 C1630 0.950 . S
H1602 C1632 0.950 . S
H1603 C1633 0.950 . S
C1604 H1586 0.951 . S
C1604 C1605 1.366 . S
C1604 C1606 1.388 . S
C1605 C1604 1.366 . S
C1605 C1609 1.385 . S
C1606 H1587 0.951 . S
C1606 C1604 1.388 . S
C1606 C1607 1.366 . S
C1607 C1606 1.366 . S
C1607 C1608 1.414 . S
C1607 C1610 1.499 . S
C1608 H1588 0.950 . S
C1608 C1607 1.414 . S
C1608 C1609 1.374 . S
C1609 H1589 0.950 . S
C1609 C1605 1.385 . S
C1609 C1608 1.374 . S
C1610 C1607 1.499 . S
C1610 C1611 1.373 . S
C1610 C1612 1.389 . S
C1611 H1590 0.950 . S
C1611 C1610 1.373 . S
C1611 C1627 1.377 . S
C1612 C1610 1.389 . S
C1612 C1613 1.524 . S
C1612 C1626 1.377 . S
C1613 C1612 1.524 . S
C1613 C1614 1.397 . S
C1613 C1618 1.363 . S
C1614 H1591 0.950 . S
C1614 C1613 1.397 . S
C1614 C1615 1.334 . S
C1615 H1592 0.950 . S
C1615 C1614 1.334 . S
C1615 C1616 1.287 . S
C1616 C1615 1.287 . S
C1616 C1617 1.524 . S
C1616 H1635 0.913 . S
C1617 H1593 0.950 . S
C1617 C1616 1.524 . S
C1617 C1618 1.415 . S
C1618 H1594 0.950 . S
C1618 C1613 1.363 . S
C1618 C1617 1.415 . S
C1619 H1595 0.951 . S
C1619 C1620 1.366 . S
C1619 C1621 1.388 . S
C1620 C1619 1.366 . S
C1620 C1624 1.385 . S
C1621 H1596 0.951 . S
C1621 C1619 1.388 . S
C1621 C1622 1.366 . S
C1622 C1621 1.366 . S
C1622 C1623 1.414 . S
C1622 C1625 1.499 . S
C1623 H1597 0.950 . S
C1623 C1622 1.414 . S
C1623 C1624 1.374 . S
C1624 H1598 0.950 . S
C1624 C1620 1.385 . S
C1624 C1623 1.374 . S
C1625 C1622 1.499 . S
C1625 C1626 1.373 . S
C1625 C1627 1.389 . S
C1626 H1599 0.950 . S
C1626 C1612 1.377 . S
C1626 C1625 1.373 . S
C1627 C1611 1.377 . S
C1627 C1625 1.389 . S
C1627 C1628 1.524 . S
C1628 C1627 1.524 . S
C1628 C1629 1.397 . S
C1628 C1633 1.363 . S
C1629 H1600 0.950 . S
C1629 C1628 1.397 . S
C1629 C1630 1.334 . S
C1630 H1601 0.950 . S
C1630 C1629 1.334 . S
C1630 C1631 1.287 . S
C1631 C1630 1.287 . S
C1631 C1632 1.524 . S
C1631 H1634 0.999 . S
C1632 H1602 0.950 . S
C1632 C1631 1.524 . S
C1632 C1633 1.415 . S
C1633 H1603 0.950 . S
C1633 C1628 1.363 . S
C1633 C1632 1.415 . S
H1634 C1631 0.999 . S
H1635 C1616 0.913 . S
H1636 C1654 0.951 . S
H1637 C1656 0.951 . S
H1638 C1658 0.950 . S
H1639 C1659 0.950 . S
H1640 C1661 0.950 . S
H1641 C1664 0.950 . S
H1642 C1665 0.950 . S
H1643 C1667 0.950 . S
H1644 C1668 0.950 . S
H1645 C1669 0.951 . S
H1646 C1671 0.951 . S
H1647 C1673 0.950 . S
H1648 C1674 0.950 . S
H1649 C1676 0.950 . S
H1650 C1679 0.950 . S
H1651 C1680 0.950 . S
H1652 C1682 0.950 . S
H1653 C1683 0.950 . S
C1654 H1636 0.951 . S
C1654 C1655 1.366 . S
C1654 C1656 1.388 . S
C1655 C1654 1.366 . S
C1655 C1659 1.385 . S
C1656 H1637 0.951 . S
C1656 C1654 1.388 . S
C1656 C1657 1.366 . S
C1657 C1656 1.366 . S
C1657 C1658 1.414 . S
C1657 C1660 1.499 . S
C1658 H1638 0.950 . S
C1658 C1657 1.414 . S
C1658 C1659 1.374 . S
C1659 H1639 0.950 . S
C1659 C1655 1.385 . S
C1659 C1658 1.374 . S
C1660 C1657 1.499 . S
C1660 C1661 1.373 . S
C1660 C1662 1.389 . S
C1661 H1640 0.950 . S
C1661 C1660 1.373 . S
C1661 C1677 1.377 . S
C1662 C1660 1.389 . S
C1662 C1663 1.524 . S
C1662 C1676 1.377 . S
C1663 C1662 1.524 . S
C1663 C1664 1.397 . S
C1663 C1668 1.363 . S
C1664 H1641 0.950 . S
C1664 C1663 1.397 . S
C1664 C1665 1.334 . S
C1665 H1642 0.950 . S
C1665 C1664 1.334 . S
C1665 C1666 1.287 . S
C1666 C1665 1.287 . S
C1666 C1667 1.524 . S
C1666 H1685 0.913 . S
C1667 H1643 0.950 . S
C1667 C1666 1.524 . S
C1667 C1668 1.415 . S
C1668 H1644 0.950 . S
C1668 C1663 1.363 . S
C1668 C1667 1.415 . S
C1669 H1645 0.951 . S
C1669 C1670 1.366 . S
C1669 C1671 1.388 . S
C1670 C1669 1.366 . S
C1670 C1674 1.385 . S
C1671 H1646 0.951 . S
C1671 C1669 1.388 . S
C1671 C1672 1.366 . S
C1672 C1671 1.366 . S
C1672 C1673 1.414 . S
C1672 C1675 1.499 . S
C1673 H1647 0.950 . S
C1673 C1672 1.414 . S
C1673 C1674 1.374 . S
C1674 H1648 0.950 . S
C1674 C1670 1.385 . S
C1674 C1673 1.374 . S
C1675 C1672 1.499 . S
C1675 C1676 1.373 . S
C1675 C1677 1.389 . S
C1676 H1649 0.950 . S
C1676 C1662 1.377 . S
C1676 C1675 1.373 . S
C1677 C1661 1.377 . S
C1677 C1675 1.389 . S
C1677 C1678 1.524 . S
C1678 C1677 1.524 . S
C1678 C1679 1.397 . S
C1678 C1683 1.363 . S
C1679 H1650 0.950 . S
C1679 C1678 1.397 . S
C1679 C1680 1.334 . S
C1680 H1651 0.950 . S
C1680 C1679 1.334 . S
C1680 C1681 1.287 . S
C1681 C1680 1.287 . S
C1681 C1682 1.524 . S
C1681 H1684 0.999 . S
C1682 H1652 0.950 . S
C1682 C1681 1.524 . S
C1682 C1683 1.415 . S
C1683 H1653 0.950 . S
C1683 C1678 1.363 . S
C1683 C1682 1.415 . S
H1684 C1681 0.999 . S
H1685 C1666 0.913 . S
H1686 C1704 0.951 . S
H1687 C1706 0.951 . S
H1688 C1708 0.950 . S
H1689 C1709 0.950 . S
H1690 C1711 0.950 . S
H1691 C1714 0.950 . S
H1692 C1715 0.950 . S
H1693 C1717 0.950 . S
H1694 C1718 0.950 . S
H1695 C1719 0.951 . S
H1696 C1721 0.951 . S
H1697 C1723 0.950 . S
H1698 C1724 0.950 . S
H1699 C1726 0.950 . S
H1700 C1729 0.950 . S
H1701 C1730 0.950 . S
H1702 C1732 0.950 . S
H1703 C1733 0.950 . S
C1704 H1686 0.951 . S
C1704 C1705 1.366 . S
C1704 C1706 1.388 . S
C1705 C1704 1.366 . S
C1705 C1709 1.385 . S
C1706 H1687 0.951 . S
C1706 C1704 1.388 . S
C1706 C1707 1.366 . S
C1707 C1706 1.366 . S
C1707 C1708 1.414 . S
C1707 C1710 1.499 . S
C1708 H1688 0.950 . S
C1708 C1707 1.414 . S
C1708 C1709 1.374 . S
C1709 H1689 0.950 . S
C1709 C1705 1.385 . S
C1709 C1708 1.374 . S
C1710 C1707 1.499 . S
C1710 C1711 1.373 . S
C1710 C1712 1.389 . S
C1711 H1690 0.950 . S
C1711 C1710 1.373 . S
C1711 C1727 1.377 . S
C1712 C1710 1.389 . S
C1712 C1713 1.524 . S
C1712 C1726 1.377 . S
C1713 C1712 1.524 . S
C1713 C1714 1.397 . S
C1713 C1718 1.363 . S
C1714 H1691 0.950 . S
C1714 C1713 1.397 . S
C1714 C1715 1.334 . S
C1715 H1692 0.950 . S
C1715 C1714 1.334 . S
C1715 C1716 1.287 . S
C1716 C1715 1.287 . S
C1716 C1717 1.524 . S
C1716 H1735 0.913 . S
C1717 H1693 0.950 . S
C1717 C1716 1.524 . S
C1717 C1718 1.415 . S
C1718 H1694 0.950 . S
C1718 C1713 1.363 . S
C1718 C1717 1.415 . S
C1719 H1695 0.951 . S
C1719 C1720 1.366 . S
C1719 C1721 1.388 . S
C1720 C1719 1.366 . S
C1720 C1724 1.385 . S
C1721 H1696 0.951 . S
C1721 C1719 1.388 . S
C1721 C1722 1.366 . S
C1722 C1721 1.366 . S
C1722 C1723 1.414 . S
C1722 C1725 1.499 . S
C1723 H1697 0.950 . S
C1723 C1722 1.414 . S
C1723 C1724 1.374 . S
C1724 H1698 0.950 . S
C1724 C1720 1.385 . S
C1724 C1723 1.374 . S
C1725 C1722 1.499 . S
C1725 C1726 1.373 . S
C1725 C1727 1.389 . S
C1726 H1699 0.950 . S
C1726 C1712 1.377 . S
C1726 C1725 1.373 . S
C1727 C1711 1.377 . S
C1727 C1725 1.389 . S
C1727 C1728 1.524 . S
C1728 C1727 1.524 . S
C1728 C1729 1.397 . S
C1728 C1733 1.363 . S
C1729 H1700 0.950 . S
C1729 C1728 1.397 . S
C1729 C1730 1.334 . S
C1730 H1701 0.950 . S
C1730 C1729 1.334 . S
C1730 C1731 1.287 . S
C1731 C1730 1.287 . S
C1731 C1732 1.524 . S
C1731 H1734 0.999 . S
C1732 H1702 0.950 . S
C1732 C1731 1.524 . S
C1732 C1733 1.415 . S
C1733 H1703 0.950 . S
C1733 C1728 1.363 . S
C1733 C1732 1.415 . S
H1734 C1731 0.999 . S
H1735 C1716 0.913 . S
H1736 C1754 0.951 . S
H1737 C1756 0.951 . S
H1738 C1758 0.950 . S
H1739 C1759 0.950 . S
H1740 C1761 0.950 . S
H1741 C1764 0.950 . S
H1742 C1765 0.950 . S
H1743 C1767 0.950 . S
H1744 C1768 0.950 . S
H1745 C1769 0.951 . S
H1746 C1771 0.951 . S
H1747 C1773 0.950 . S
H1748 C1774 0.950 . S
H1749 C1776 0.950 . S
H1750 C1779 0.950 . S
H1751 C1780 0.950 . S
H1752 C1782 0.950 . S
H1753 C1783 0.950 . S
C1754 H1736 0.951 . S
C1754 C1755 1.366 . S
C1754 C1756 1.388 . S
C1755 C1754 1.366 . S
C1755 C1759 1.385 . S
C1756 H1737 0.951 . S
C1756 C1754 1.388 . S
C1756 C1757 1.366 . S
C1757 C1756 1.366 . S
C1757 C1758 1.414 . S
C1757 C1760 1.499 . S
C1758 H1738 0.950 . S
C1758 C1757 1.414 . S
C1758 C1759 1.374 . S
C1759 H1739 0.950 . S
C1759 C1755 1.385 . S
C1759 C1758 1.374 . S
C1760 C1757 1.499 . S
C1760 C1761 1.373 . S
C1760 C1762 1.389 . S
C1761 H1740 0.950 . S
C1761 C1760 1.373 . S
C1761 C1777 1.377 . S
C1762 C1760 1.389 . S
C1762 C1763 1.524 . S
C1762 C1776 1.377 . S
C1763 C1762 1.524 . S
C1763 C1764 1.397 . S
C1763 C1768 1.363 . S
C1764 H1741 0.950 . S
C1764 C1763 1.397 . S
C1764 C1765 1.334 . S
C1765 H1742 0.950 . S
C1765 C1764 1.334 . S
C1765 C1766 1.287 . S
C1766 C1765 1.287 . S
C1766 C1767 1.524 . S
C1766 H1785 0.913 . S
C1767 H1743 0.950 . S
C1767 C1766 1.524 . S
C1767 C1768 1.415 . S
C1768 H1744 0.950 . S
C1768 C1763 1.363 . S
C1768 C1767 1.415 . S
C1769 H1745 0.951 . S
C1769 C1770 1.366 . S
C1769 C1771 1.388 . S
C1770 C1769 1.366 . S
C1770 C1774 1.385 . S
C1771 H1746 0.951 . S
C1771 C1769 1.388 . S
C1771 C1772 1.366 . S
C1772 C1771 1.366 . S
C1772 C1773 1.414 . S
C1772 C1775 1.499 . S
C1773 H1747 0.950 . S
C1773 C1772 1.414 . S
C1773 C1774 1.374 . S
C1774 H1748 0.950 . S
C1774 C1770 1.385 . S
C1774 C1773 1.374 . S
C1775 C1772 1.499 . S
C1775 C1776 1.373 . S
C1775 C1777 1.389 . S
C1776 H1749 0.950 . S
C1776 C1762 1.377 . S
C1776 C1775 1.373 . S
C1777 C1761 1.377 . S
C1777 C1775 1.389 . S
C1777 C1778 1.524 . S
C1778 C1777 1.524 . S
C1778 C1779 1.397 . S
C1778 C1783 1.363 . S
C1779 H1750 0.950 . S
C1779 C1778 1.397 . S
C1779 C1780 1.334 . S
C1780 H1751 0.950 . S
C1780 C1779 1.334 . S
C1780 C1781 1.287 . S
C1781 C1780 1.287 . S
C1781 C1782 1.524 . S
C1781 H1784 0.999 . S
C1782 H1752 0.950 . S
C1782 C1781 1.524 . S
C1782 C1783 1.415 . S
C1783 H1753 0.950 . S
C1783 C1778 1.363 . S
C1783 C1782 1.415 . S
H1784 C1781 0.999 . S
H1785 C1766 0.913 . S
H1786 C1804 0.951 . S
H1787 C1806 0.951 . S
H1788 C1808 0.950 . S
H1789 C1809 0.950 . S
H1790 C1811 0.950 . S
H1791 C1814 0.950 . S
H1792 C1815 0.950 . S
H1793 C1817 0.950 . S
H1794 C1818 0.950 . S
H1795 C1819 0.951 . S
H1796 C1821 0.951 . S
H1797 C1823 0.950 . S
H1798 C1824 0.950 1_556 S
H1799 C1826 0.950 . S
H1800 C1829 0.950 . S
H1801 C1830 0.950 1_556 S
H1802 C1832 0.950 . S
H1803 C1833 0.950 . S
C1804 H1786 0.951 . S
C1804 C1805 1.366 . S
C1804 C1806 1.388 . S
C1805 C1804 1.366 . S
C1805 C1809 1.385 . S
C1806 H1787 0.951 . S
C1806 C1804 1.388 . S
C1806 C1807 1.366 . S
C1807 C1806 1.366 . S
C1807 C1808 1.414 . S
C1807 C1810 1.499 . S
C1808 H1788 0.950 . S
C1808 C1807 1.414 . S
C1808 C1809 1.374 . S
C1809 H1789 0.950 . S
C1809 C1805 1.385 . S
C1809 C1808 1.374 . S
C1810 C1807 1.499 . S
C1810 C1811 1.373 . S
C1810 C1812 1.389 . S
C1811 H1790 0.950 . S
C1811 C1810 1.373 . S
C1811 C1827 1.377 . S
C1812 C1810 1.389 . S
C1812 C1813 1.524 . S
C1812 C1826 1.377 . S
C1813 C1812 1.524 . S
C1813 C1814 1.397 . S
C1813 C1818 1.363 . S
C1814 H1791 0.950 . S
C1814 C1813 1.397 . S
C1814 C1815 1.334 . S
C1815 H1792 0.950 . S
C1815 C1814 1.334 . S
C1815 C1816 1.287 . S
C1816 C1815 1.287 . S
C1816 C1817 1.524 . S
C1816 H1835 0.913 . S
C1817 H1793 0.950 . S
C1817 C1816 1.524 . S
C1817 C1818 1.415 . S
C1818 H1794 0.950 . S
C1818 C1813 1.363 . S
C1818 C1817 1.415 . S
C1819 H1795 0.951 . S
C1819 C1820 1.366 . S
C1819 C1821 1.388 . S
C1820 C1819 1.366 . S
C1820 C1824 1.385 . S
C1821 H1796 0.951 . S
C1821 C1819 1.388 . S
C1821 C1822 1.366 . S
C1822 C1821 1.366 . S
C1822 C1823 1.414 . S
C1822 C1825 1.499 . S
C1823 H1797 0.950 . S
C1823 C1822 1.414 . S
C1823 C1824 1.374 . S
C1824 H1798 0.950 1_554 S
C1824 C1820 1.385 . S
C1824 C1823 1.374 . S
C1825 C1822 1.499 . S
C1825 C1826 1.373 . S
C1825 C1827 1.389 . S
C1826 H1799 0.950 . S
C1826 C1812 1.377 . S
C1826 C1825 1.373 . S
C1827 C1811 1.377 . S
C1827 C1825 1.389 . S
C1827 C1828 1.524 . S
C1828 C1827 1.524 . S
C1828 C1829 1.397 . S
C1828 C1833 1.363 . S
C1829 H1800 0.950 . S
C1829 C1828 1.397 . S
C1829 C1830 1.334 . S
C1830 H1801 0.950 1_554 S
C1830 C1829 1.334 . S
C1830 C1831 1.287 . S
C1831 C1830 1.287 . S
C1831 C1832 1.524 . S
C1831 H1834 0.999 . S
C1832 H1802 0.950 . S
C1832 C1831 1.524 . S
C1832 C1833 1.415 . S
C1833 H1803 0.950 . S
C1833 C1828 1.363 . S
C1833 C1832 1.415 . S
H1834 C1831 0.999 . S
H1835 C1816 0.913 . S
C655 C29 1.496 . S
C670 C347 1.496 . S
C705 C82 1.496 . S
C720 C400 1.496 . S
C755 C453 1.496 . S
C770 C135 1.496 . S
C805 C188 1.496 . S
C820 C506 1.496 . S
C855 C241 1.496 . S
C870 C559 1.496 . S
C905 C612 1.496 . S
C920 C294 1.496 . S
C955 C463 1.300 . S
C970 C39 1.301 . S
C1005 C92 1.301 . S
C1020 C516 1.301 . S
C1055 C569 1.301 . S
C1070 C145 1.301 . S
C1105 C622 1.301 . S
C1120 C198 1.301 . S
C1155 C251 1.301 . S
C1170 C357 1.301 . S
C1205 C304 1.301 . S
C1220 C410 1.301 . S
C1255 C605 2.108 . S
C1270 C22 2.108 . S
C1305 C340 2.108 . S
C1320 C75 2.108 . S
C1355 C128 2.108 . S
C1370 C393 2.108 . S
C1405 C446 2.108 . S
C1420 C181 2.107 . S
C1455 C499 2.108 . S
C1470 C234 2.108 . S
C1505 C552 2.108 . S
C1520 C287 2.108 . S
C1555 C38 1.949 . S
C1570 C568 1.949 . S
C1605 C621 1.949 . S
C1620 C91 1.949 . S
C1655 C144 1.949 . S
C1670 C356 1.949 . S
C1705 C197 1.949 . S
C1720 C409 1.949 . S
C1755 C250 1.948 1_556 S
C1770 C462 1.948 . S
C1805 C303 1.949 . S
C1820 C515 1.949 1_554 S
