# Generated by pormake.
# Topology wgl, (5)-cn, num edge types: 1
# Building blocks:
#     Node 0, Type 0, BuildingBlock: XOMCOT_clean_sbu_0, # of connection points: 5
#     Node 1, Type 0, BuildingBlock: XOMCOT_clean_sbu_0, # of connection points: 5
#     Node 2, Type 0, BuildingBlock: XOMCOT_clean_sbu_0, # of connection points: 5
#     Node 3, Type 0, BuildingBlock: XOMCOT_clean_sbu_0, # of connection points: 5
#     Node 4, Type 0, BuildingBlock: XOMCOT_clean_sbu_0, # of connection points: 5
#     Node 5, Type 0, BuildingBlock: XOMCOT_clean_sbu_0, # of connection points: 5
#     Node 6, Type 0, BuildingBlock: XOMCOT_clean_sbu_0, # of connection points: 5
#     Node 7, Type 0, BuildingBlock: XOMCOT_clean_sbu_0, # of connection points: 5
#     Node 8, Type 0, BuildingBlock: XOMCOT_clean_sbu_0, # of connection points: 5
#     Node 9, Type 0, BuildingBlock: XOMCOT_clean_sbu_0, # of connection points: 5
#     Node 10, Type 0, BuildingBlock: XOMCOT_clean_sbu_0, # of connection points: 5
#     Node 11, Type 0, BuildingBlock: XOMCOT_clean_sbu_0, # of connection points: 5
#     Node 12, Type 0, BuildingBlock: XOMCOT_clean_sbu_0, # of connection points: 5
#     Node 13, Type 0, BuildingBlock: XOMCOT_clean_sbu_0, # of connection points: 5
#     Node 14, Type 0, BuildingBlock: XOMCOT_clean_sbu_0, # of connection points: 5
#     Node 15, Type 0, BuildingBlock: XOMCOT_clean_sbu_0, # of connection points: 5
#     Node 16, Type 0, BuildingBlock: XOMCOT_clean_sbu_0, # of connection points: 5
#     Node 17, Type 0, BuildingBlock: XOMCOT_clean_sbu_0, # of connection points: 5
#     Node 18, Type 0, BuildingBlock: XOMCOT_clean_sbu_0, # of connection points: 5
#     Node 19, Type 0, BuildingBlock: XOMCOT_clean_sbu_0, # of connection points: 5
#     Node 20, Type 0, BuildingBlock: XOMCOT_clean_sbu_0, # of connection points: 5
#     Node 21, Type 0, BuildingBlock: XOMCOT_clean_sbu_0, # of connection points: 5
#     Node 22, Type 0, BuildingBlock: XOMCOT_clean_sbu_0, # of connection points: 5
#     Node 23, Type 0, BuildingBlock: XOMCOT_clean_sbu_0, # of connection points: 5
#     Node 24, Type 0, BuildingBlock: XOMCOT_clean_sbu_0, # of connection points: 5
#     Node 25, Type 0, BuildingBlock: XOMCOT_clean_sbu_0, # of connection points: 5
#     Node 26, Type 0, BuildingBlock: XOMCOT_clean_sbu_0, # of connection points: 5
#     Node 27, Type 0, BuildingBlock: XOMCOT_clean_sbu_0, # of connection points: 5
#     Node 28, Type 0, BuildingBlock: XOMCOT_clean_sbu_0, # of connection points: 5
#     Node 29, Type 0, BuildingBlock: XOMCOT_clean_sbu_0, # of connection points: 5
#     Node 30, Type 0, BuildingBlock: XOMCOT_clean_sbu_0, # of connection points: 5
#     Node 31, Type 0, BuildingBlock: XOMCOT_clean_sbu_0, # of connection points: 5
#     Edge 32, Type (0, 0), BuildingBlock: XUDNAN_clean_linker_2, # of connection points: 2
#     Edge 33, Type (0, 0), BuildingBlock: XUDNAN_clean_linker_2, # of connection points: 2
#     Edge 34, Type (0, 0), BuildingBlock: XUDNAN_clean_linker_2, # of connection points: 2
#     Edge 35, Type (0, 0), BuildingBlock: XUDNAN_clean_linker_2, # of connection points: 2
#     Edge 36, Type (0, 0), BuildingBlock: XUDNAN_clean_linker_2, # of connection points: 2
#     Edge 37, Type (0, 0), BuildingBlock: XUDNAN_clean_linker_2, # of connection points: 2
#     Edge 38, Type (0, 0), BuildingBlock: XUDNAN_clean_linker_2, # of connection points: 2
#     Edge 39, Type (0, 0), BuildingBlock: XUDNAN_clean_linker_2, # of connection points: 2
#     Edge 40, Type (0, 0), BuildingBlock: XUDNAN_clean_linker_2, # of connection points: 2
#     Edge 41, Type (0, 0), BuildingBlock: XUDNAN_clean_linker_2, # of connection points: 2
#     Edge 42, Type (0, 0), BuildingBlock: XUDNAN_clean_linker_2, # of connection points: 2
#     Edge 43, Type (0, 0), BuildingBlock: XUDNAN_clean_linker_2, # of connection points: 2
#     Edge 44, Type (0, 0), BuildingBlock: XUDNAN_clean_linker_2, # of connection points: 2
#     Edge 45, Type (0, 0), BuildingBlock: XUDNAN_clean_linker_2, # of connection points: 2
#     Edge 46, Type (0, 0), BuildingBlock: XUDNAN_clean_linker_2, # of connection points: 2
#     Edge 47, Type (0, 0), BuildingBlock: XUDNAN_clean_linker_2, # of connection points: 2
#     Edge 48, Type (0, 0), BuildingBlock: XUDNAN_clean_linker_2, # of connection points: 2
#     Edge 49, Type (0, 0), BuildingBlock: XUDNAN_clean_linker_2, # of connection points: 2
#     Edge 50, Type (0, 0), BuildingBlock: XUDNAN_clean_linker_2, # of connection points: 2
#     Edge 51, Type (0, 0), BuildingBlock: XUDNAN_clean_linker_2, # of connection points: 2
#     Edge 52, Type (0, 0), BuildingBlock: XUDNAN_clean_linker_2, # of connection points: 2
#     Edge 53, Type (0, 0), BuildingBlock: XUDNAN_clean_linker_2, # of connection points: 2
#     Edge 54, Type (0, 0), BuildingBlock: XUDNAN_clean_linker_2, # of connection points: 2
#     Edge 55, Type (0, 0), BuildingBlock: XUDNAN_clean_linker_2, # of connection points: 2
#     Edge 56, Type (0, 0), BuildingBlock: XUDNAN_clean_linker_2, # of connection points: 2
#     Edge 57, Type (0, 0), BuildingBlock: XUDNAN_clean_linker_2, # of connection points: 2
#     Edge 58, Type (0, 0), BuildingBlock: XUDNAN_clean_linker_2, # of connection points: 2
#     Edge 59, Type (0, 0), BuildingBlock: XUDNAN_clean_linker_2, # of connection points: 2
#     Edge 60, Type (0, 0), BuildingBlock: XUDNAN_clean_linker_2, # of connection points: 2
#     Edge 61, Type (0, 0), BuildingBlock: XUDNAN_clean_linker_2, # of connection points: 2
#     Edge 62, Type (0, 0), BuildingBlock: XUDNAN_clean_linker_2, # of connection points: 2
#     Edge 63, Type (0, 0), BuildingBlock: XUDNAN_clean_linker_2, # of connection points: 2
#     Edge 64, Type (0, 0), BuildingBlock: XUDNAN_clean_linker_2, # of connection points: 2
#     Edge 65, Type (0, 0), BuildingBlock: XUDNAN_clean_linker_2, # of connection points: 2
#     Edge 66, Type (0, 0), BuildingBlock: XUDNAN_clean_linker_2, # of connection points: 2
#     Edge 67, Type (0, 0), BuildingBlock: XUDNAN_clean_linker_2, # of connection points: 2
#     Edge 68, Type (0, 0), BuildingBlock: XUDNAN_clean_linker_2, # of connection points: 2
#     Edge 69, Type (0, 0), BuildingBlock: XUDNAN_clean_linker_2, # of connection points: 2
#     Edge 70, Type (0, 0), BuildingBlock: XUDNAN_clean_linker_2, # of connection points: 2
#     Edge 71, Type (0, 0), BuildingBlock: XUDNAN_clean_linker_2, # of connection points: 2
#     Edge 72, Type (0, 0), BuildingBlock: XUDNAN_clean_linker_2, # of connection points: 2
#     Edge 73, Type (0, 0), BuildingBlock: XUDNAN_clean_linker_2, # of connection points: 2
#     Edge 74, Type (0, 0), BuildingBlock: XUDNAN_clean_linker_2, # of connection points: 2
#     Edge 75, Type (0, 0), BuildingBlock: XUDNAN_clean_linker_2, # of connection points: 2
#     Edge 76, Type (0, 0), BuildingBlock: XUDNAN_clean_linker_2, # of connection points: 2
#     Edge 77, Type (0, 0), BuildingBlock: XUDNAN_clean_linker_2, # of connection points: 2
#     Edge 78, Type (0, 0), BuildingBlock: XUDNAN_clean_linker_2, # of connection points: 2
#     Edge 79, Type (0, 0), BuildingBlock: XUDNAN_clean_linker_2, # of connection points: 2
#     Edge 80, Type (0, 0), BuildingBlock: XUDNAN_clean_linker_2, # of connection points: 2
#     Edge 81, Type (0, 0), BuildingBlock: XUDNAN_clean_linker_2, # of connection points: 2
#     Edge 82, Type (0, 0), BuildingBlock: XUDNAN_clean_linker_2, # of connection points: 2
#     Edge 83, Type (0, 0), BuildingBlock: XUDNAN_clean_linker_2, # of connection points: 2
#     Edge 84, Type (0, 0), BuildingBlock: XUDNAN_clean_linker_2, # of connection points: 2
#     Edge 85, Type (0, 0), BuildingBlock: XUDNAN_clean_linker_2, # of connection points: 2
#     Edge 86, Type (0, 0), BuildingBlock: XUDNAN_clean_linker_2, # of connection points: 2
#     Edge 87, Type (0, 0), BuildingBlock: XUDNAN_clean_linker_2, # of connection points: 2
#     Edge 88, Type (0, 0), BuildingBlock: XUDNAN_clean_linker_2, # of connection points: 2
#     Edge 89, Type (0, 0), BuildingBlock: XUDNAN_clean_linker_2, # of connection points: 2
#     Edge 90, Type (0, 0), BuildingBlock: XUDNAN_clean_linker_2, # of connection points: 2
#     Edge 91, Type (0, 0), BuildingBlock: XUDNAN_clean_linker_2, # of connection points: 2
#     Edge 92, Type (0, 0), BuildingBlock: XUDNAN_clean_linker_2, # of connection points: 2
#     Edge 93, Type (0, 0), BuildingBlock: XUDNAN_clean_linker_2, # of connection points: 2
#     Edge 94, Type (0, 0), BuildingBlock: XUDNAN_clean_linker_2, # of connection points: 2
#     Edge 95, Type (0, 0), BuildingBlock: XUDNAN_clean_linker_2, # of connection points: 2
#     Edge 96, Type (0, 0), BuildingBlock: XUDNAN_clean_linker_2, # of connection points: 2
#     Edge 97, Type (0, 0), BuildingBlock: XUDNAN_clean_linker_2, # of connection points: 2
#     Edge 98, Type (0, 0), BuildingBlock: XUDNAN_clean_linker_2, # of connection points: 2
#     Edge 99, Type (0, 0), BuildingBlock: XUDNAN_clean_linker_2, # of connection points: 2
#     Edge 100, Type (0, 0), BuildingBlock: XUDNAN_clean_linker_2, # of connection points: 2
#     Edge 101, Type (0, 0), BuildingBlock: XUDNAN_clean_linker_2, # of connection points: 2
#     Edge 102, Type (0, 0), BuildingBlock: XUDNAN_clean_linker_2, # of connection points: 2
#     Edge 103, Type (0, 0), BuildingBlock: XUDNAN_clean_linker_2, # of connection points: 2
#     Edge 104, Type (0, 0), BuildingBlock: XUDNAN_clean_linker_2, # of connection points: 2
#     Edge 105, Type (0, 0), BuildingBlock: XUDNAN_clean_linker_2, # of connection points: 2
#     Edge 106, Type (0, 0), BuildingBlock: XUDNAN_clean_linker_2, # of connection points: 2
#     Edge 107, Type (0, 0), BuildingBlock: XUDNAN_clean_linker_2, # of connection points: 2
#     Edge 108, Type (0, 0), BuildingBlock: XUDNAN_clean_linker_2, # of connection points: 2
#     Edge 109, Type (0, 0), BuildingBlock: XUDNAN_clean_linker_2, # of connection points: 2
#     Edge 110, Type (0, 0), BuildingBlock: XUDNAN_clean_linker_2, # of connection points: 2
#     Edge 111, Type (0, 0), BuildingBlock: XUDNAN_clean_linker_2, # of connection points: 2
# Relax obj value: 0.050
# Max RMSD: 0.097
# Mean RMSD: 0.097
data_MOF--net-wgl--node1-XOMCOT_clean_sbu_0--edge1-XUDNAN_clean_linker_2
_symmetry_space_group_name_H-M    P1
_symmetry_Int_Tables_number       1
_symmetry_cell_setting            triclinic
loop_
_symmetry_equiv_pos_as_xyz
'x, y, z'
_cell_length_a     57.604419
_cell_length_b     57.53892
_cell_length_c     52.179174
_cell_angle_alpha  90.028881
_cell_angle_beta   89.987366
_cell_angle_gamma 90.055809
loop_
_atom_site_label
_atom_site_type_symbol
_atom_site_fract_x
_atom_site_fract_y
_atom_site_fract_z
_atom_type_partial_charge
Co0 Co 0.30097 0.32852 0.13944 0.0
C1 C 0.33096 0.28618 0.13465 0.0
C2 C 0.30328 0.28696 0.10714 0.0
C3 C 0.3151 0.26642 0.10437 0.0
N4 N 0.31321 0.29948 0.126 0.0
N5 N 0.33242 0.26571 0.12178 0.0
H6 H 0.34193 0.29099 0.15062 0.0
H7 H 0.28801 0.29203 0.09649 0.0
C8 C 0.28743 0.35375 0.09246 0.0
O9 O 0.29872 0.37136 0.10261 0.0
N10 N 0.2868 0.3572 0.15316 0.0
C11 C 0.29157 0.36798 0.17558 0.0
C12 C 0.27564 0.38545 0.17971 0.0
C13 C 0.26701 0.36778 0.14486 0.0
N14 N 0.26028 0.38547 0.16025 0.0
C15 C 0.34153 0.35746 0.14533 0.0
C16 C 0.36016 0.3495 0.09729 0.0
C17 C 0.37237 0.36369 0.1145 0.0
C18 C 0.36274 0.36759 0.13877 0.0
C19 C 0.33871 0.33997 0.10451 0.0
N20 N 0.32932 0.34439 0.12815 0.0
H21 H 0.33551 0.35948 0.16464 0.0
H22 H 0.32973 0.32881 0.0911 0.0
H23 H 0.30482 0.36281 0.18905 0.0
H24 H 0.25685 0.36195 0.12868 0.0
O25 O 0.31178 0.32027 0.17292 0.0
O26 O 0.27725 0.3105 0.15801 0.0
O27 O 0.28557 0.33465 0.10496 0.0
C28 C 0.2923 0.30961 0.17678 0.0
H29 H 0.311 0.25294 0.09063 0.0
H30 H 0.27509 0.39693 0.19615 0.0
H31 H 0.36709 0.34583 0.07842 0.0
H32 H 0.37196 0.37774 0.15301 0.0
Co33 Co 0.94491 0.05406 0.39202 0.0
C34 C 0.98807 0.0826 0.38575 0.0
C35 C 0.9873 0.0523 0.36171 0.0
C36 C 1.00854 0.06283 0.35899 0.0
N37 N 0.9744 0.06464 0.3784 0.0
N38 N 1.00914 0.08178 0.37418 0.0
H39 H 0.98314 0.09528 0.40008 0.0
H40 H 0.98203 0.03614 0.35288 0.0
C41 C 0.91921 0.03999 0.34539 0.0
O42 O 0.9018 0.0519 0.35499 0.0
N43 N 0.91569 0.04136 0.40578 0.0
C44 C 0.90406 0.04748 0.42725 0.0
C45 C 0.88604 0.03205 0.43126 0.0
C46 C 0.90512 0.02139 0.39809 0.0
N47 N 0.88659 0.0158 0.41269 0.0
C48 C 0.9191 0.09654 0.39753 0.0
C49 C 0.92482 0.11261 0.34804 0.0
C50 C 0.91231 0.12634 0.36551 0.0
C51 C 0.9098 0.11803 0.39063 0.0
C52 C 0.93396 0.09113 0.35583 0.0
N53 N 0.93032 0.08288 0.38012 0.0
H54 H 0.91807 0.09147 0.41728 0.0
H55 H 0.94413 0.08118 0.34231 0.0
H56 H 0.90889 0.06131 0.44017 0.0
H57 H 0.91141 1.0104 0.38278 0.0
O58 O 0.95354 0.06505 0.42533 0.0
O59 O 0.96174 0.02985 0.41107 0.0
O60 O 0.93827 0.03826 0.35792 0.0
C61 C 0.96323 0.04514 0.42958 0.0
H62 H 0.02263 0.05677 0.34701 0.0
H63 H 0.87372 0.03256 0.44692 0.0
H64 H 0.92756 0.11835 0.32852 0.0
H65 H 0.90134 0.12838 0.40523 0.0
Co66 Co 0.23078 0.70251 0.6413 0.0
C67 C 0.19954 0.74553 0.6411 0.0
C68 C 0.23068 0.74826 0.61882 0.0
C69 C 0.21945 0.76918 0.61786 0.0
N70 N 0.21828 0.73318 0.63314 0.0
N71 N 0.19991 0.76755 0.63187 0.0
H72 H 0.18633 0.73921 0.65393 0.0
H73 H 0.24716 0.74433 0.60989 0.0
C74 C 0.22384 0.70287 0.58529 0.0
O75 O 0.20295 0.7108 0.5904 0.0
N76 N 0.24501 0.67273 0.64866 0.0
C77 C 0.2374 0.65581 0.66439 0.0
C78 C 0.25253 0.63722 0.66283 0.0
C79 C 0.26472 0.66441 0.63804 0.0
N80 N 0.26973 0.64268 0.64628 0.0
C81 C 0.18302 0.69203 0.65414 0.0
C82 C 0.1767 0.65818 0.6172 0.0
C83 C 0.15767 0.66478 0.63227 0.0
C84 C 0.16122 0.68149 0.65148 0.0
C85 C 0.19816 0.66901 0.62067 0.0
N86 N 0.20074 0.6869 0.63771 0.0
H87 H 0.18572 0.70408 0.66968 0.0
H88 H 0.21275 0.66298 0.60949 0.0
H89 H 0.22184 0.65681 0.67595 0.0
H90 H 0.27494 0.67395 0.62417 0.0
O91 O 0.22944 0.70991 0.67749 0.0
O92 O 0.259 0.71804 0.65185 0.0
O93 O 0.23788 0.69811 0.60357 0.0
C94 C 0.24964 0.71967 0.67452 0.0
H95 H 0.2252 0.78444 0.6075 0.0
H96 H 0.2511 0.62105 0.6733 0.0
H97 H 0.17511 0.64451 0.60302 0.0
H98 H 0.14724 0.68659 0.66416 0.0
Co99 Co 0.58632 0.98021 0.89218 0.0
C100 C 0.54136 0.95396 0.89184 0.0
C101 C 0.54712 0.97265 0.85686 0.0
C102 C 0.52578 0.96213 0.85553 0.0
N103 N 0.55708 0.96752 0.87956 0.0
N104 N 0.52205 0.95046 0.87754 0.0
H105 H 0.54376 0.94709 0.91095 0.0
H106 H 0.55436 0.98385 0.84233 0.0
C107 C 0.61171 0.99592 0.8461 0.0
O108 O 0.62968 0.98531 0.85623 0.0
N109 N 0.61523 0.99456 0.90447 0.0
C110 C 0.63462 0.9852 0.91476 0.0
C111 C 0.65211 1.00163 0.91465 0.0
C112 C 0.62116 0.01693 0.89939 0.0
N113 N 0.64371 0.02151 0.90467 0.0
C114 C 0.61003 0.93682 0.89925 0.0
C115 C 0.60897 0.92213 0.84886 0.0
C116 C 0.61916 0.90769 0.86732 0.0
C117 C 0.6194 0.91524 0.89282 0.0
C118 C 0.60002 0.94382 0.85612 0.0
N119 N 0.60162 0.95151 0.88093 0.0
H120 H 0.60909 0.94138 0.91927 0.0
H121 H 0.59136 0.95414 0.84176 0.0
H122 H 0.63681 0.96752 0.92094 0.0
H123 H 0.60971 0.029 0.88974 0.0
O124 O 0.5789 0.9702 0.92618 0.0
O125 O 0.56864 1.0043 0.91063 0.0
O126 O 0.59209 0.99573 0.85772 0.0
C127 C 0.56807 0.98961 0.92974 0.0
H128 H 0.5135 0.96381 0.83995 0.0
H129 H 0.66988 0.99888 0.92063 0.0
H130 H 0.60784 0.9167 0.82902 0.0
H131 H 0.6261 0.90421 0.90792 0.0
Co132 Co 0.29823 0.69515 0.35687 0.0
C133 C 0.32969 0.738 0.35909 0.0
C134 C 0.29497 0.74302 0.37273 0.0
C135 C 0.30631 0.76388 0.37382 0.0
N136 N 0.30952 0.72654 0.36388 0.0
N137 N 0.32822 0.76087 0.36536 0.0
H138 H 0.34498 0.73022 0.35091 0.0
H139 H 0.27693 0.74011 0.37749 0.0
C140 C 0.29121 0.70155 0.4129 0.0
O141 O 0.31248 0.70979 0.41401 0.0
N142 N 0.28512 0.66467 0.3503 0.0
C143 C 0.29571 0.64534 0.34163 0.0
C144 C 0.28009 0.62708 0.34272 0.0
C145 C 0.26322 0.65805 0.35611 0.0
N146 N 0.25966 0.63515 0.35178 0.0
C147 C 0.34641 0.68339 0.35638 0.0
C148 C 0.34651 0.65395 0.3982 0.0
C149 C 0.36722 0.65741 0.3846 0.0
C150 C 0.36692 0.67231 0.36342 0.0
C151 C 0.32616 0.66525 0.39026 0.0
N152 N 0.32647 0.68057 0.37016 0.0
H153 H 0.34652 0.69369 0.33915 0.0
H154 H 0.31008 0.66105 0.39982 0.0
H155 H 0.31366 0.6444 0.33565 0.0
H156 H 0.2504 0.66963 0.3643 0.0
O157 O 0.30769 0.69791 0.32166 0.0
O158 O 0.27359 0.70929 0.33658 0.0
O159 O 0.28277 0.69476 0.39151 0.0
C160 C 0.28789 0.70783 0.31726 0.0
H161 H 0.29861 0.78021 0.37957 0.0
H162 H 0.28352 0.60923 0.33739 0.0
H163 H 0.34585 0.64193 0.41416 0.0
H164 H 0.38243 0.67518 0.35209 0.0
Co165 Co 0.5838 0.04635 0.61804 0.0
C166 C 0.54109 0.07541 0.62122 0.0
C167 C 0.54517 0.05333 0.65405 0.0
C168 C 0.52454 0.06514 0.65637 0.0
N169 N 0.55566 0.05985 0.63212 0.0
N170 N 0.52188 0.07894 0.63569 0.0
H171 H 0.54425 0.08354 0.60285 0.0
H172 H 0.55152 0.04019 0.66706 0.0
C173 C 0.61315 0.03949 0.66431 0.0
O174 O 0.63017 0.04878 0.65099 0.0
N175 N 0.61164 0.03136 0.6039 0.0
C176 C 0.62087 0.03423 0.58031 0.0
C177 C 0.63826 0.01815 0.57662 0.0
C178 C 0.62302 1.01262 0.61359 0.0
N179 N 0.63973 1.00465 0.59763 0.0
C180 C 0.60988 0.08728 0.6025 0.0
C181 C 0.60953 0.10847 0.65008 0.0
C182 C 0.62176 0.11912 0.63009 0.0
C183 C 0.62139 0.10852 0.60586 0.0
C184 C 0.59804 0.08744 0.6458 0.0
N185 N 0.59939 0.07635 0.62263 0.0
H186 H 0.60912 0.07994 0.58359 0.0
H187 H 0.5883 0.07989 0.6614 0.0
H188 H 0.61462 0.04611 0.5659 0.0
H189 H 0.61848 1.00415 0.63139 0.0
O190 O 0.57165 0.05082 0.58376 0.0
O191 O 0.56585 0.01949 0.60759 0.0
O192 O 0.5933 0.03636 0.65383 0.0
C193 C 0.56187 0.03056 0.58622 0.0
H194 H 0.51191 0.06282 0.67152 0.0
H195 H 0.64866 0.0162 0.55947 0.0
H196 H 0.60859 0.11647 0.66885 0.0
H197 H 0.63011 0.11644 0.58968 0.0
Co198 Co 0.2283 0.33075 0.86393 0.0
C199 C 0.19945 0.28738 0.86455 0.0
C200 C 0.22266 0.28972 0.89663 0.0
C201 C 0.211 0.26895 0.89804 0.0
N202 N 0.21537 0.30144 0.87579 0.0
N203 N 0.19644 0.26737 0.87787 0.0
H204 H 0.19056 0.29153 0.84688 0.0
H205 H 0.23616 0.29537 0.90959 0.0
C206 C 0.23997 0.35646 0.91125 0.0
O207 O 0.23021 0.37415 0.89953 0.0
N208 N 0.24302 0.35977 0.85237 0.0
C209 C 0.23489 0.37752 0.838 0.0
C210 C 0.25112 0.39518 0.83772 0.0
C211 C 0.2646 0.3667 0.85952 0.0
N212 N 0.26974 0.38848 0.85149 0.0
C213 C 0.18552 0.35466 0.85357 0.0
C214 C 0.16785 0.35387 0.90274 0.0
C215 C 0.15494 0.36477 0.88338 0.0
C216 C 0.16394 0.36469 0.85846 0.0
C217 C 0.18955 0.34412 0.89699 0.0
N218 N 0.19885 0.34584 0.87289 0.0
H219 H 0.19103 0.35331 0.83392 0.0
H220 H 0.19869 0.33494 0.91194 0.0
H221 H 0.21841 0.37821 0.8284 0.0
H222 H 0.27579 0.35646 0.87176 0.0
O223 O 0.22026 0.32305 0.82947 0.0
O224 O 0.25362 0.31332 0.84715 0.0
O225 O 0.2414 0.33684 0.89966 0.0
C226 C 0.24004 0.3127 0.82707 0.0
H227 H 0.21382 0.25557 0.91226 0.0
H228 H 0.24922 0.41181 0.82826 0.0
H229 H 0.16128 0.35286 0.92216 0.0
H230 H 0.15403 0.37167 0.84259 0.0
Co231 Co 0.9465 0.98359 0.1184 0.0
C232 C 0.98878 0.95397 0.12199 0.0
C233 C 0.98884 0.98239 0.14873 0.0
C234 C 1.00961 0.97083 0.15079 0.0
N235 N 0.97581 0.97184 0.13074 0.0
N236 N 1.0096 0.95303 0.13396 0.0
H237 H 0.98343 0.94247 0.10666 0.0
H238 H 0.98384 0.99785 0.15914 0.0
C239 C 0.91829 0.99013 0.16541 0.0
O240 O 0.9012 0.98062 0.15243 0.0
N241 N 0.91718 0.99726 0.1067 0.0
C242 C 0.89916 0.98834 0.0933 0.0
C243 C 0.88114 1.00416 0.09332 0.0
C244 C 0.90987 0.01868 0.11393 0.0
N245 N 0.88785 0.0232 0.10642 0.0
C246 C 0.92652 0.93998 0.10204 0.0
C247 C 0.92616 0.91896 0.14964 0.0
C248 C 0.9173 0.90664 0.12862 0.0
C249 C 0.91786 0.91736 0.10449 0.0
C250 C 0.9344 0.94165 0.14635 0.0
N251 N 0.93325 0.95248 0.12302 0.0
H252 H 0.92815 0.94733 0.08309 0.0
H253 H 0.94214 0.95029 0.16261 0.0
H254 H 0.89839 0.97145 0.08454 0.0
H255 H 0.92008 0.03019 0.12586 0.0
O256 O 0.95736 0.98023 0.08346 0.0
O257 O 0.96257 1.01155 0.10736 0.0
O258 O 0.93814 0.99284 0.15477 0.0
C259 C 0.96651 1.00077 0.08579 0.0
H260 H 0.02369 0.97525 0.16364 0.0
H261 H 0.86428 1.00171 0.08457 0.0
H262 H 0.92669 0.91119 0.16853 0.0
H263 H 0.91221 0.9081 0.08752 0.0
Co264 Co 0.72939 0.69375 0.86283 0.0
C265 C 0.70033 0.737 0.8597 0.0
C266 C 0.72093 0.73493 0.8939 0.0
C267 C 0.70975 0.75588 0.89375 0.0
N268 N 0.715 0.7229 0.87274 0.0
N269 N 0.69699 0.75745 0.87215 0.0
H270 H 0.6932 0.73288 0.84105 0.0
H271 H 0.73342 0.72945 0.90809 0.0
C272 C 0.73682 0.66921 0.91343 0.0
O273 O 0.73171 0.64899 0.90317 0.0
N274 N 0.74544 0.66495 0.85391 0.0
C275 C 0.73902 0.64653 0.83953 0.0
C276 C 0.75558 0.62922 0.84207 0.0
C277 C 0.76609 0.65876 0.86421 0.0
N278 N 0.77241 0.63685 0.85797 0.0
C279 C 0.68769 0.67222 0.84377 0.0
C280 C 0.66465 0.66994 0.8902 0.0
C281 C 0.65304 0.66286 0.86801 0.0
C282 C 0.66471 0.66423 0.84453 0.0
C283 C 0.68736 0.67841 0.88851 0.0
N284 N 0.69906 0.67863 0.86566 0.0
H285 H 0.69606 0.67395 0.82537 0.0
H286 H 0.69491 0.68581 0.90554 0.0
H287 H 0.72316 0.64507 0.82871 0.0
H288 H 0.77565 0.66973 0.87735 0.0
O289 O 0.72807 0.70297 0.82718 0.0
O290 O 0.75703 0.71099 0.85363 0.0
O291 O 0.73665 0.6878 0.90005 0.0
C292 C 0.74779 0.71339 0.83099 0.0
H293 H 0.71132 0.76916 0.90834 0.0
H294 H 0.75454 0.61187 0.83412 0.0
H295 H 0.65587 0.66992 0.90857 0.0
H296 H 0.65607 0.65937 0.82688 0.0
Co297 Co 0.07762 0.98701 0.61263 0.0
C298 C 0.0343 0.95636 0.60883 0.0
C299 C 0.03225 0.98399 0.63622 0.0
C300 C 1.0114 0.97259 0.636 0.0
N301 N 0.04703 0.97362 0.61974 0.0
N302 N 1.01254 0.95523 0.61874 0.0
H303 H 0.04004 0.94556 0.59322 0.0
H304 H 0.03626 0.99927 0.64746 0.0
C305 C 0.07712 0.97823 0.6686 0.0
O306 O 0.07006 0.95718 0.66264 0.0
N307 N 0.10738 1.00204 0.60641 0.0
C308 C 0.12204 0.99889 0.58659 0.0
C309 C 0.14111 1.01327 0.58989 0.0
C310 C 0.11768 0.01825 0.6214 0.0
N311 N 0.13839 0.02536 0.61188 0.0
C312 C 0.08764 0.93953 0.59909 0.0
C313 C 0.12133 0.93191 0.63579 0.0
C314 C 0.11332 0.91301 0.62126 0.0
C315 C 0.09679 0.91723 0.60213 0.0
C316 C 0.11145 0.95391 0.63226 0.0
N317 N 0.0935 0.95707 0.61544 0.0
H318 H 0.07598 0.94269 0.58337 0.0
H319 H 0.11779 0.96827 0.64365 0.0
H320 H 0.1192 0.98685 0.57098 0.0
H321 H 0.11009 0.02485 0.6389 0.0
O322 O 0.07096 0.98628 0.57629 0.0
O323 O 0.06167 0.01519 0.60232 0.0
O324 O 0.08128 0.99306 0.65084 0.0
C325 C 0.06072 1.00618 0.57937 0.0
H326 H 0.99654 0.97688 0.64776 0.0
H327 H 0.15608 1.01427 0.5774 0.0
H328 H 0.13463 0.9296 0.65023 0.0
H329 H 0.09112 0.90344 0.58944 0.0
Co330 Co 0.79783 0.33828 0.3538 0.0
C331 C 0.82929 0.29628 0.35215 0.0
C332 C 0.81361 0.30126 0.38898 0.0
C333 C 0.82572 0.28083 0.38944 0.0
N334 N 0.81567 0.31123 0.36563 0.0
N335 N 0.83539 0.27747 0.36628 0.0
H336 H 0.8337 0.2984 0.33213 0.0
H337 H 0.8036 0.30782 0.40485 0.0
C338 C 0.78441 0.35714 0.40559 0.0
O339 O 0.79313 0.37747 0.3993 0.0
N340 N 0.77867 0.36466 0.34214 0.0
C341 C 0.77853 0.37423 0.31845 0.0
C342 C 0.76104 0.39046 0.31688 0.0
C343 C 0.76039 0.37491 0.35421 0.0
N344 N 0.74976 0.39099 0.33944 0.0
C345 C 0.83145 0.37428 0.34481 0.0
C346 C 0.85636 0.369 0.38962 0.0
C347 C 0.86404 0.38525 0.37147 0.0
C348 C 0.85116 0.38792 0.34895 0.0
C349 C 0.83624 0.35594 0.38492 0.0
N350 N 0.82379 0.35881 0.36279 0.0
H351 H 0.82298 0.37559 0.32654 0.0
H352 H 0.83082 0.34347 0.39912 0.0
H353 H 0.7899 0.3694 0.30286 0.0
H354 H 0.75381 0.3699 0.37274 0.0
O355 O 0.8072 0.33197 0.31921 0.0
O356 O 0.77588 0.31697 0.3374 0.0
O357 O 0.78362 0.34068 0.38913 0.0
C358 C 0.78932 0.31833 0.31728 0.0
H359 H 0.82695 0.26907 0.40557 0.0
H360 H 0.75674 0.40087 0.30027 0.0
H361 H 0.86589 0.36631 0.40727 0.0
H362 H 0.85685 0.39975 0.33406 0.0
Co363 Co 0.44864 0.04175 0.11089 0.0
C364 C 0.49065 0.0731 0.10906 0.0
C365 C 0.49467 0.04295 0.13291 0.0
C366 C 0.51523 0.05489 0.1328 0.0
N367 N 0.4792 0.05425 0.11815 0.0
N368 N 0.51285 0.0738 0.11778 0.0
H369 H 0.48316 0.0856 0.09596 0.0
H370 H 0.49133 0.02672 0.14268 0.0
C371 C 0.43011 0.03642 0.16477 0.0
O372 O 0.4101 0.04533 0.15774 0.0
N373 N 0.41835 0.02715 0.10427 0.0
C374 C 0.40389 0.02951 0.08406 0.0
C375 C 0.38561 1.01404 0.08657 0.0
C376 C 0.40914 1.00929 0.11787 0.0
N377 N 0.38883 1.00143 0.10805 0.0
C378 C 0.42252 0.08294 0.09801 0.0
C379 C 0.43141 0.10704 0.14278 0.0
C380 C 0.41767 0.11769 0.12393 0.0
C381 C 0.41344 0.10531 0.10122 0.0
C382 C 0.4401 0.08459 0.1388 0.0
N383 N 0.43494 0.07241 0.117 0.0
H384 H 0.42027 0.07452 0.0798 0.0
H385 H 0.45138 0.0772 0.15317 0.0
H386 H 0.40667 0.04085 0.06788 0.0
H387 H 0.41757 1.00149 0.13422 0.0
O388 O 0.45487 0.04453 0.07443 0.0
O389 O 0.46352 1.01393 0.09829 0.0
O390 O 0.44635 0.03339 0.1484 0.0
C391 C 0.46462 0.02419 0.07605 0.0
H392 H 0.53078 0.05006 0.14314 0.0
H393 H 0.37112 1.01224 0.07353 0.0
H394 H 0.43546 0.11594 0.16051 0.0
H395 H 0.4038 0.11311 0.08563 0.0
Co396 Co 0.72649 0.33727 0.63969 0.0
C397 C 0.70601 0.28873 0.64113 0.0
C398 C 0.70442 0.30494 0.6042 0.0
C399 C 0.69439 0.28343 0.60242 0.0
N400 N 0.71194 0.30838 0.62835 0.0
N401 N 0.69519 0.27314 0.62563 0.0
H402 H 0.70892 0.28607 0.66136 0.0
H403 H 0.70562 0.31749 0.58885 0.0
C404 C 0.75022 0.355 0.59026 0.0
O405 O 0.75351 0.37605 0.59918 0.0
N406 N 0.7414 0.36609 0.65049 0.0
C407 C 0.73097 0.3857 0.65859 0.0
C408 C 0.74747 0.403 0.66071 0.0
C409 C 0.7643 0.37139 0.64924 0.0
N410 N 0.7684 0.39412 0.6544 0.0
C411 C 0.67816 0.34518 0.63971 0.0
C412 C 0.67576 0.38085 0.60448 0.0
C413 C 0.6551 0.3717 0.61454 0.0
C414 C 0.65656 0.35379 0.63255 0.0
C415 C 0.69719 0.37136 0.61188 0.0
N416 N 0.69821 0.35347 0.62909 0.0
H417 H 0.67874 0.33121 0.65351 0.0
H418 H 0.71265 0.37874 0.60393 0.0
H419 H 0.71252 0.38766 0.66168 0.0
H420 H 0.77729 0.35942 0.64215 0.0
O421 O 0.71745 0.33184 0.67461 0.0
O422 O 0.75041 0.31944 0.65781 0.0
O423 O 0.74073 0.3392 0.60405 0.0
C424 C 0.73671 0.32058 0.67775 0.0
H425 H 0.68712 0.27604 0.58513 0.0
H426 H 0.74412 0.42095 0.66566 0.0
H427 H 0.67534 0.39495 0.59074 0.0
H428 H 0.64108 0.34656 0.64125 0.0
Co429 Co 0.45061 0.97812 0.39847 0.0
C430 C 0.49376 0.94839 0.39867 0.0
C431 C 0.49657 0.97952 0.3762 0.0
C432 C 0.51744 0.96821 0.37541 0.0
N433 N 0.48161 0.96717 0.39055 0.0
N434 N 0.51592 0.94871 0.38968 0.0
H435 H 0.48677 0.93526 0.41136 0.0
H436 H 0.49277 0.99606 0.36735 0.0
C437 C 0.43211 0.99266 0.34702 0.0
O438 O 0.41194 0.98357 0.35319 0.0
N439 N 0.41978 0.99095 0.40575 0.0
C440 C 0.40033 0.9808 0.41495 0.0
C441 C 0.38215 0.99635 0.41332 0.0
C442 C 0.4131 1.01284 0.39952 0.0
N443 N 0.39013 0.01645 0.40341 0.0
C444 C 0.42923 0.93373 0.40527 0.0
C445 C 0.43135 0.91837 0.35522 0.0
C446 C 0.42062 0.90414 0.37365 0.0
C447 C 0.42034 0.91194 0.39908 0.0
C448 C 0.44034 0.94016 0.36239 0.0
N449 N 0.43789 0.94826 0.38693 0.0
H450 H 0.42904 0.93881 0.42515 0.0
H451 H 0.44952 0.95023 0.34819 0.0
H452 H 0.39884 0.9633 0.42198 0.0
H453 H 0.42463 0.02541 0.3908 0.0
O454 O 0.45486 0.97004 0.43385 0.0
O455 O 0.46472 1.00401 0.41752 0.0
O456 O 0.44905 0.992 0.36288 0.0
C457 C 0.46407 0.99029 0.43745 0.0
H458 H 0.5326 0.97406 0.36501 0.0
H459 H 0.36434 0.99297 0.41879 0.0
H460 H 0.43268 0.91286 0.33544 0.0
H461 H 0.4135 0.90119 0.41435 0.0
Co462 Co 0.79961 0.69622 0.14232 0.0
C463 C 0.82912 0.73895 0.13854 0.0
C464 C 0.8027 0.73745 0.10961 0.0
C465 C 0.81464 0.75793 0.10691 0.0
N466 N 0.81182 0.72541 0.12927 0.0
N467 N 0.83119 0.75911 0.1252 0.0
H468 H 0.83942 0.7344 0.15513 0.0
H469 H 0.78799 0.73205 0.09823 0.0
C470 C 0.78878 0.67202 0.09212 0.0
O471 O 0.80059 0.65347 0.09884 0.0
N472 N 0.78587 0.66725 0.15525 0.0
C473 C 0.78938 0.65743 0.17842 0.0
C474 C 0.774 0.63934 0.18169 0.0
C475 C 0.76751 0.65536 0.14534 0.0
N476 N 0.76021 0.63798 0.16087 0.0
C477 C 0.84108 0.66912 0.15267 0.0
C478 C 0.86159 0.6762 0.10544 0.0
C479 C 0.8736 0.66281 0.12363 0.0
C480 C 0.86286 0.65934 0.14755 0.0
C481 C 0.83963 0.68522 0.11117 0.0
N482 N 0.82932 0.68128 0.13438 0.0
H483 H 0.83408 0.66732 0.17164 0.0
H484 H 0.83106 0.69577 0.09692 0.0
H485 H 0.80125 0.66373 0.19285 0.0
H486 H 0.75852 0.66021 0.12799 0.0
O487 O 0.80574 0.70697 0.17711 0.0
O488 O 0.77327 0.71298 0.15536 0.0
O489 O 0.78705 0.68937 0.10723 0.0
C490 C 0.78533 0.7167 0.17605 0.0
H491 H 0.81115 0.77096 0.09249 0.0
H492 H 0.77268 0.62847 0.19854 0.0
H493 H 0.86919 0.68022 0.087 0.0
H494 H 0.87111 0.64918 0.16242 0.0
Co495 Co 0.07984 0.04647 0.89995 0.0
C496 C 0.03741 0.07701 0.88852 0.0
C497 C 0.02898 0.04269 0.90129 0.0
C498 C 1.00869 0.05457 0.89764 0.0
N499 N 0.04732 0.05671 0.89624 0.0
N500 N 1.01392 0.07609 0.88961 0.0
H501 H 0.0468 0.092 0.88164 0.0
H502 H 0.02993 0.02466 0.90687 0.0
C503 C 0.07106 0.04046 0.84388 0.0
O504 O 0.06275 0.06168 0.84337 0.0
N505 N 0.11136 0.03475 0.90329 0.0
C506 C 0.13018 0.04541 0.91313 0.0
C507 C 0.1492 0.03097 0.91007 0.0
C508 C 0.11911 1.01397 0.89468 0.0
N509 N 0.14223 1.01115 0.89846 0.0
C510 C 0.08788 0.09533 0.9009 0.0
C511 C 0.11833 0.09785 0.86008 0.0
C512 C 0.11381 0.11811 0.87432 0.0
C513 C 0.09815 0.11657 0.89481 0.0
C514 C 0.10757 0.0768 0.86685 0.0
N515 N 0.0921 0.07583 0.88672 0.0
H516 H 0.07634 0.09456 0.9172 0.0
H517 H 0.11235 0.06115 0.85669 0.0
H518 H 0.13017 0.06258 0.92158 0.0
H519 H 0.10805 1.00136 0.88531 0.0
O520 O 0.07924 0.05513 0.93565 0.0
O521 O 0.06886 0.02061 0.92116 0.0
O522 O 0.07837 0.03175 0.86491 0.0
C523 C 0.07064 0.0348 0.94059 0.0
H524 H 0.99131 0.04766 0.89984 0.0
H525 H 0.16677 0.03475 0.91613 0.0
H526 H 0.13076 0.09804 0.84451 0.0
H527 H 0.09393 0.13166 0.90629 0.0
Co528 Co 0.79779 0.83058 0.64836 0.0
C529 C 0.83194 0.79066 0.6469 0.0
C530 C 0.79762 0.78228 0.63361 0.0
C531 C 0.81071 0.76244 0.63302 0.0
N532 N 0.81074 0.79997 0.64236 0.0
N533 N 0.83222 0.76764 0.6413 0.0
H534 H 0.84659 0.80028 0.65442 0.0
H535 H 0.77952 0.78372 0.62833 0.0
C536 C 0.78682 0.84547 0.59515 0.0
O537 O 0.79617 0.86568 0.60084 0.0
N538 N 0.78249 0.86072 0.6541 0.0
C539 C 0.78633 0.87716 0.67213 0.0
C540 C 0.77029 0.89487 0.66925 0.0
C541 C 0.76309 0.86813 0.64186 0.0
N542 N 0.75583 0.88926 0.64989 0.0
C543 C 0.83817 0.85971 0.65275 0.0
C544 C 0.85865 0.84761 0.60676 0.0
C545 C 0.86988 0.86382 0.62259 0.0
C546 C 0.8594 0.86963 0.64596 0.0
C547 C 0.83722 0.83822 0.61424 0.0
N548 N 0.82675 0.84496 0.63662 0.0
H549 H 0.83147 0.86324 0.67154 0.0
H550 H 0.8292 0.82524 0.60214 0.0
H551 H 0.79924 0.8763 0.68706 0.0
H552 H 0.754 0.85803 0.62758 0.0
O553 O 0.80561 0.82822 0.68401 0.0
O554 O 0.77263 0.81557 0.66724 0.0
O555 O 0.78524 0.82958 0.61221 0.0
C556 C 0.786 0.81755 0.68735 0.0
H557 H 0.80497 0.74544 0.62672 0.0
H558 H 0.7695 0.9107 0.68042 0.0
H559 H 0.86632 0.84224 0.58876 0.0
H560 H 0.86792 0.88121 0.65937 0.0
Co561 Co 0.4425 0.54848 0.89445 0.0
C562 C 0.48357 0.58087 0.89002 0.0
C563 C 0.49024 0.54575 0.87807 0.0
C564 C 0.51056 0.55804 0.87639 0.0
N565 N 0.47334 0.55988 0.88672 0.0
N566 N 0.50641 0.58005 0.88384 0.0
H567 H 0.47475 0.59614 0.89724 0.0
H568 H 0.48797 0.52751 0.87371 0.0
C569 C 0.42477 0.5337 0.84322 0.0
O570 O 0.40468 0.54299 0.84932 0.0
N571 N 0.41194 0.53483 0.90165 0.0
C572 C 0.39241 0.54409 0.9117 0.0
C573 C 0.37475 0.52789 0.91034 0.0
C574 C 0.40586 0.51279 0.89523 0.0
N575 N 0.38316 0.50824 0.89979 0.0
C576 C 0.41906 0.59209 0.89993 0.0
C577 C 0.42447 0.60797 0.85038 0.0
C578 C 0.41227 0.62179 0.86799 0.0
C579 C 0.40996 0.61366 0.89312 0.0
C580 C 0.43305 0.58616 0.85798 0.0
N581 N 0.42922 0.57787 0.88223 0.0
H582 H 0.41826 0.5871 0.91981 0.0
H583 H 0.44326 0.57629 0.84447 0.0
H584 H 0.39049 0.5613 0.91939 0.0
H585 H 0.41763 0.50069 0.8861 0.0
O586 O 0.44644 0.55719 0.92972 0.0
O587 O 0.45704 0.52322 0.9139 0.0
O588 O 0.44165 0.53422 0.85913 0.0
C589 C 0.4564 0.53731 0.9335 0.0
H590 H 0.52717 0.5514 0.87 0.0
H591 H 0.35702 0.53048 0.91658 0.0
H592 H 0.42734 0.61392 0.83095 0.0
H593 H 0.40171 0.62422 0.90771 0.0
Co594 Co 0.73062 0.1987 0.1375 0.0
C595 C 0.70237 0.243 0.13624 0.0
C596 C 0.72791 0.24114 0.10654 0.0
C597 C 0.71679 0.26214 0.10465 0.0
N598 N 0.71837 0.22856 0.12569 0.0
N599 N 0.70073 0.26334 0.12331 0.0
H600 H 0.69283 0.23941 0.15356 0.0
H601 H 0.7428 0.23594 0.09532 0.0
C602 C 0.73114 0.19268 0.08 0.0
O603 O 0.70965 0.20023 0.0786 0.0
N604 N 0.74436 0.16955 0.14842 0.0
C605 C 0.73501 0.15198 0.16201 0.0
C606 C 0.75053 0.13359 0.16218 0.0
C607 C 0.76543 0.1618 0.14088 0.0
N608 N 0.76967 0.13987 0.14889 0.0
C609 C 0.68202 0.19069 0.14638 0.0
C610 C 0.67627 0.15463 0.112 0.0
C611 C 0.65661 0.16362 0.12445 0.0
C612 C 0.65986 0.18152 0.14231 0.0
C613 C 0.69817 0.16452 0.11651 0.0
N614 N 0.70062 0.18328 0.13241 0.0
H615 H 0.68419 0.20355 0.16114 0.0
H616 H 0.71312 0.15709 0.10709 0.0
H617 H 0.71789 0.1522 0.17053 0.0
H618 H 0.77708 0.17177 0.12888 0.0
O619 O 0.7269 0.20862 0.17288 0.0
O620 O 0.75805 0.21492 0.14898 0.0
O621 O 0.74132 0.19107 0.10168 0.0
C622 C 0.74748 0.2178 0.17082 0.0
H623 H 0.72104 0.276 0.09142 0.0
H624 H 0.7479 0.1169 0.17127 0.0
H625 H 0.67472 0.14035 0.09858 0.0
H626 H 0.64543 0.18817 0.15341 0.0
Co627 Co 0.08591 0.47576 0.40696 0.0
C628 C 0.03782 0.45867 0.39413 0.0
C629 C 0.05811 0.43452 0.41604 0.0
C630 C 0.03646 0.42527 0.41261 0.0
N631 N 0.05914 0.45536 0.40441 0.0
N632 N 0.02354 0.4403 0.39876 0.0
H633 H 0.03288 0.47424 0.38388 0.0
H634 H 0.0721 0.42681 0.42693 0.0
C635 C 0.09701 0.48747 0.35286 0.0
O636 O 0.11845 0.48152 0.35845 0.0
N637 N 0.11299 0.49646 0.41092 0.0
C638 C 0.1293 0.4948 0.42944 0.0
C639 C 0.1459 0.51163 0.42587 0.0
C640 C 0.11928 0.51574 0.39747 0.0
N641 N 0.13978 0.52469 0.40561 0.0
C642 C 0.12236 0.44078 0.41005 0.0
C643 C 0.1094 0.41729 0.36607 0.0
C644 C 0.12768 0.40836 0.38075 0.0
C645 C 0.1342 0.42053 0.40297 0.0
C646 C 0.0982 0.43763 0.37371 0.0
N647 N 0.10499 0.44959 0.39516 0.0
H648 H 0.12651 0.44852 0.42818 0.0
H649 H 0.08332 0.44328 0.36277 0.0
H650 H 0.12906 0.48264 0.44517 0.0
H651 H 0.10936 0.52298 0.38182 0.0
O652 O 0.08616 0.46964 0.44337 0.0
O653 O 0.06681 0.49837 0.42504 0.0
O654 O 0.08124 0.4866 0.37021 0.0
C655 C 0.07181 0.48693 0.44589 0.0
H656 H 0.03056 0.409 0.42067 0.0
H657 H 0.16117 0.51433 0.43761 0.0
H658 H 0.10304 0.40815 0.34934 0.0
H659 H 0.14804 0.41427 0.41517 0.0
Co660 Co 0.79564 0.19836 0.85438 0.0
C661 C 0.82556 0.24241 0.85639 0.0
C662 C 0.79837 0.24059 0.88424 0.0
C663 C 0.80946 0.26145 0.88706 0.0
N664 N 0.8087 0.22812 0.86555 0.0
N665 N 0.82656 0.26276 0.86953 0.0
H666 H 0.83611 0.23885 0.83982 0.0
H667 H 0.78325 0.23507 0.89492 0.0
C668 C 0.80295 0.19238 0.91029 0.0
O669 O 0.82433 0.19958 0.90645 0.0
N670 N 0.7806 0.16943 0.84478 0.0
C671 C 0.7879 0.15226 0.82918 0.0
C672 C 0.7724 0.13388 0.83096 0.0
C673 C 0.76075 0.16146 0.85544 0.0
N674 N 0.75532 0.13976 0.8475 0.0
C675 C 0.84305 0.19037 0.83991 0.0
C676 C 0.85112 0.15197 0.87024 0.0
C677 C 0.86975 0.16113 0.85593 0.0
C678 C 0.86519 0.18055 0.84043 0.0
C679 C 0.82929 0.1628 0.8696 0.0
N680 N 0.82579 0.18256 0.85556 0.0
H681 H 0.83975 0.20406 0.82638 0.0
H682 H 0.81516 0.15519 0.88036 0.0
H683 H 0.80368 0.15275 0.81795 0.0
H684 H 0.75094 0.1711 0.86959 0.0
O685 O 0.79672 0.20837 0.81904 0.0
O686 O 0.76752 0.2152 0.84556 0.0
O687 O 0.78883 0.19065 0.89147 0.0
C688 C 0.77672 0.21813 0.82292 0.0
H689 H 0.80509 0.27461 0.90105 0.0
H690 H 0.77368 0.11744 0.82097 0.0
H691 H 0.85316 0.13639 0.8816 0.0
H692 H 0.87853 0.1884 0.82869 0.0
Co693 Co 0.08228 0.54257 0.11713 0.0
C694 C 0.0426 0.57675 0.11418 0.0
C695 C 0.03766 0.54996 0.14229 0.0
C696 C 0.01862 0.56417 0.14267 0.0
N697 N 0.053 0.55796 0.12487 0.0
N698 N 0.02161 0.58096 0.12505 0.0
H699 H 0.05001 0.58688 0.09874 0.0
H700 H 0.03962 0.53428 0.15338 0.0
C701 C 0.09747 0.53061 0.1706 0.0
O702 O 0.11784 0.53974 0.16527 0.0
N703 N 0.11119 0.52538 0.10969 0.0
C704 C 0.12591 0.52771 0.08967 0.0
C705 C 0.1436 0.51157 0.0918 0.0
C706 C 0.11961 0.50672 0.12265 0.0
N707 N 0.13977 0.4985 0.11281 0.0
C708 C 0.11398 0.58081 0.11157 0.0
C709 C 0.10307 0.6034 0.15669 0.0
C710 C 0.11873 0.61411 0.1397 0.0
C711 C 0.12409 0.60235 0.1169 0.0
C712 C 0.09319 0.58181 0.15049 0.0
N713 N 0.09908 0.57043 0.12838 0.0
H714 H 0.11721 0.57324 0.09312 0.0
H715 H 0.08034 0.57452 0.16326 0.0
H716 H 0.12389 0.53986 0.07406 0.0
H717 H 0.11086 0.49869 0.13864 0.0
O718 O 0.07921 0.5512 0.08181 0.0
O719 O 0.06463 0.51893 0.09824 0.0
O720 O 0.08186 0.5293 0.1532 0.0
C721 C 0.06704 0.53251 0.07832 0.0
H722 H 1.00317 0.56172 0.1542 0.0
H723 H 0.15826 0.50983 0.07898 0.0
H724 H 0.09817 0.61173 0.17449 0.0
H725 H 0.1352 0.61016 0.10255 0.0
Co726 Co 0.73695 0.83415 0.35878 0.0
C727 C 0.70505 0.79245 0.35676 0.0
C728 C 0.73826 0.78601 0.3741 0.0
C729 C 0.72626 0.76548 0.37326 0.0
N730 N 0.72512 0.80294 0.36382 0.0
N731 N 0.70543 0.76944 0.36238 0.0
H732 H 0.69079 0.80126 0.3474 0.0
H733 H 0.75569 0.78842 0.38134 0.0
C734 C 0.74522 0.84792 0.41305 0.0
O735 O 0.73471 0.86766 0.408 0.0
N736 N 0.75116 0.86504 0.35398 0.0
C737 C 0.74843 0.88029 0.33451 0.0
C738 C 0.76337 0.89889 0.33793 0.0
C739 C 0.7689 0.87413 0.36791 0.0
N740 N 0.77607 0.89508 0.35919 0.0
C741 C 0.69618 0.86294 0.35468 0.0
C742 C 0.67361 0.84643 0.39776 0.0
C743 C 0.66256 0.8633 0.38268 0.0
C744 C 0.67419 0.87149 0.36088 0.0
C745 C 0.69583 0.83853 0.39102 0.0
N746 N 0.70715 0.84717 0.36998 0.0
H747 H 0.70389 0.86843 0.33696 0.0
H748 H 0.70379 0.82515 0.40258 0.0
H749 H 0.73699 0.87793 0.31831 0.0
H750 H 0.77719 0.8653 0.38368 0.0
O751 O 0.72999 0.83198 0.32293 0.0
O752 O 0.76305 0.82032 0.3403 0.0
O753 O 0.74864 0.83301 0.39525 0.0
C754 C 0.75 0.822 0.3199 0.0
H755 H 0.73228 0.74887 0.38037 0.0
H756 H 0.76468 0.91406 0.32576 0.0
H757 H 0.6652 0.8394 0.41462 0.0
H758 H 0.66601 0.88387 0.34812 0.0
Co759 Co 0.44331 0.48333 0.60792 0.0
C760 C 0.48682 0.45513 0.60461 0.0
C761 C 0.489 0.48358 0.63119 0.0
C762 C 0.51025 0.47296 0.63009 0.0
N763 N 0.47428 0.47243 0.61537 0.0
N764 N 0.509 0.45517 0.61331 0.0
H765 H 0.48013 0.4434 0.59017 0.0
H766 H 0.48476 0.49893 0.64219 0.0
C767 C 0.42295 0.49203 0.66052 0.0
O768 O 0.40224 0.48567 0.65268 0.0
N769 N 0.4124 0.49594 0.60118 0.0
C770 C 0.39292 0.48574 0.59213 0.0
C771 C 0.37486 0.50146 0.59334 0.0
C772 C 0.40582 0.51786 0.60728 0.0
N773 N 0.38298 0.52164 0.60294 0.0
C774 C 0.4242 0.43893 0.59334 0.0
C775 C 0.42488 0.4189 0.64143 0.0
C776 C 0.41588 0.40589 0.62092 0.0
C777 C 0.41604 0.41616 0.5965 0.0
C778 C 0.43303 0.44153 0.63736 0.0
N779 N 0.43144 0.45184 0.61381 0.0
H780 H 0.42445 0.4463 0.57431 0.0
H781 H 0.44106 0.45041 0.65324 0.0
H782 H 0.39134 0.4681 0.58551 0.0
H783 H 0.41737 0.53047 0.61593 0.0
O784 O 0.45001 0.4813 0.57144 0.0
O785 O 0.45679 0.51203 0.59583 0.0
O786 O 0.4402 0.49196 0.64515 0.0
C787 C 0.45866 0.50213 0.57349 0.0
H788 H 0.52551 0.47804 0.64082 0.0
H789 H 0.35708 0.49822 0.58766 0.0
H790 H 0.42559 0.41179 0.66061 0.0
H791 H 0.4102 0.40663 0.57981 0.0
Co792 Co 0.23563 0.19268 0.35918 0.0
C793 C 0.2075 0.23767 0.35912 0.0
C794 C 0.23397 0.23578 0.38783 0.0
C795 C 0.22337 0.25695 0.38984 0.0
N796 N 0.22357 0.2231 0.36931 0.0
N797 N 0.20671 0.25816 0.37188 0.0
H798 H 0.19716 0.23406 0.34239 0.0
H799 H 0.24893 0.23029 0.39877 0.0
C800 C 0.22919 0.18881 0.41547 0.0
O801 O 0.20805 0.19664 0.41158 0.0
N802 N 0.24971 0.16312 0.35037 0.0
C803 C 0.24173 0.14572 0.3355 0.0
C804 C 0.25722 0.12734 0.3369 0.0
C805 C 0.26992 0.15528 0.36024 0.0
N806 N 0.27497 0.13344 0.35245 0.0
C807 C 0.18739 0.18567 0.34736 0.0
C808 C 0.17918 0.14947 0.38091 0.0
C809 C 0.1603 0.15952 0.36803 0.0
C810 C 0.1648 0.17735 0.35046 0.0
C811 C 0.20157 0.15861 0.37744 0.0
N812 N 0.20515 0.17765 0.36219 0.0
H813 H 0.19057 0.19846 0.33277 0.0
H814 H 0.21592 0.15077 0.38759 0.0
H815 H 0.22562 0.14614 0.32487 0.0
H816 H 0.28038 0.16522 0.37355 0.0
O817 O 0.23373 0.20139 0.32345 0.0
O818 O 0.26384 0.20856 0.34856 0.0
O819 O 0.24311 0.18613 0.39655 0.0
C820 C 0.25403 0.21088 0.32614 0.0
H821 H 0.2282 0.27082 0.40282 0.0
H822 H 0.25556 0.1108 0.32716 0.0
H823 H 0.17658 0.13515 0.39407 0.0
H824 H 0.15094 0.18473 0.33903 0.0
Co825 Co 0.58054 0.48529 0.11007 0.0
C826 C 0.53828 0.45445 0.1061 0.0
C827 C 0.53577 0.48102 0.13488 0.0
C828 C 0.5152 0.46915 0.1342 0.0
N829 N 0.55039 0.47179 0.11755 0.0
N830 N 0.51654 0.45255 0.11599 0.0
H831 H 0.54492 0.44408 0.09042 0.0
H832 H 0.53949 0.496 0.14668 0.0
C833 C 0.5999 0.4888 0.16361 0.0
O834 O 0.61963 0.47977 0.15579 0.0
N835 N 0.61032 0.50087 0.10321 0.0
C836 C 0.62389 0.50018 0.0821 0.0
C837 C 0.64225 0.51549 0.08513 0.0
C838 C 0.61999 0.51779 0.11785 0.0
N839 N 0.63989 0.52643 0.10784 0.0
C840 C 0.61016 0.44588 0.09782 0.0
C841 C 0.59907 0.42024 0.14089 0.0
C842 C 0.61572 0.41126 0.12392 0.0
C843 C 0.62096 0.42438 0.10192 0.0
C844 C 0.589 0.44192 0.13627 0.0
N845 N 0.59517 0.45495 0.11543 0.0
H846 H 0.61371 0.45498 0.08029 0.0
H847 H 0.5762 0.4483 0.14968 0.0
H848 H 0.62043 0.49002 0.06512 0.0
H849 H 0.61211 0.52446 0.13511 0.0
O850 O 0.57368 0.48317 0.0737 0.0
O851 O 0.56466 0.51291 0.09878 0.0
O852 O 0.5835 0.4928 0.14772 0.0
C853 C 0.56325 0.50311 0.07631 0.0
H854 H 0.50032 0.4727 0.14622 0.0
H855 H 0.65618 0.51832 0.07156 0.0
H856 H 0.59356 0.41055 0.1576 0.0
H857 H 0.63347 0.41831 0.08798 0.0
Co858 Co 0.29982 0.83586 0.85934 0.0
C859 C 0.3281 0.79117 0.85772 0.0
C860 C 0.30051 0.79075 0.8851 0.0
C861 C 0.31088 0.76939 0.88517 0.0
N862 N 0.3117 0.805 0.86868 0.0
N863 N 0.32824 0.76941 0.86785 0.0
H864 H 0.33858 0.79616 0.84149 0.0
H865 H 0.2849 0.79502 0.89554 0.0
C866 C 0.29386 0.83632 0.91628 0.0
O867 O 0.3157 0.83 0.91845 0.0
N868 N 0.28618 0.86576 0.85063 0.0
C869 C 0.29591 0.88419 0.83889 0.0
C870 C 0.28047 0.90263 0.83987 0.0
C871 C 0.26495 0.87311 0.85821 0.0
N872 N 0.26099 0.89563 0.85207 0.0
C873 C 0.34852 0.84523 0.85975 0.0
C874 C 0.34829 0.88184 0.894 0.0
C875 C 0.36945 0.87507 0.88287 0.0
C876 C 0.36927 0.85642 0.86565 0.0
C877 C 0.32773 0.87006 0.88749 0.0
N878 N 0.32811 0.85149 0.87106 0.0
H879 H 0.34886 0.83211 0.84515 0.0
H880 H 0.31146 0.8762 0.89526 0.0
H881 H 0.31326 0.88447 0.83095 0.0
H882 H 0.25298 0.86237 0.86894 0.0
O883 O 0.3092 0.83113 0.82449 0.0
O884 O 0.27528 0.81999 0.84021 0.0
O885 O 0.28473 0.83882 0.89411 0.0
C886 C 0.28954 0.82067 0.82074 0.0
H887 H 0.30551 0.75484 0.89685 0.0
H888 H 0.28347 0.91989 0.83232 0.0
H889 H 0.34749 0.89655 0.90691 0.0
H890 H 0.38507 0.85061 0.8564 0.0
Co891 Co 0.94857 0.54643 0.62205 0.0
C892 C 0.99076 0.57613 0.62416 0.0
C893 C 0.98814 0.55327 0.65655 0.0
C894 C 1.0084 0.56579 0.65863 0.0
N895 N 0.97704 0.55983 0.63504 0.0
N896 N 1.0101 0.58012 0.63825 0.0
H897 H 0.98676 0.58465 0.60622 0.0
H898 H 0.98232 0.53981 0.66949 0.0
C899 C 0.91879 0.53954 0.66805 0.0
O900 O 0.90168 0.54822 0.65442 0.0
N901 N 0.92012 0.53161 0.60961 0.0
C902 C 0.90292 0.53973 0.59453 0.0
C903 C 0.88499 0.52375 0.59426 0.0
C904 C 0.91257 0.51048 0.61756 0.0
N905 N 0.89098 0.50542 0.60895 0.0
C906 C 0.92979 0.58948 0.60281 0.0
C907 C 0.92498 0.61128 0.64973 0.0
C908 C 0.9193 0.62358 0.62749 0.0
C909 C 0.92209 0.61255 0.60376 0.0
C910 C 0.9332 0.58848 0.64786 0.0
N911 N 0.93434 0.57729 0.62472 0.0
H912 H 0.93266 0.58163 0.58429 0.0
H913 H 0.93942 0.58025 0.6651 0.0
H914 H 0.90271 0.55624 0.58485 0.0
H915 H 0.92215 0.49973 0.63088 0.0
O916 O 0.9605 0.54868 0.58741 0.0
O917 O 0.96567 0.51851 0.61301 0.0
O918 O 0.93912 0.53792 0.65831 0.0
C919 C 0.9698 0.52838 0.59098 0.0
H920 H 0.02134 0.56375 0.67349 0.0
H921 H 0.86862 0.52572 0.58432 0.0
H922 H 0.92395 0.61955 0.66835 0.0
H923 H 0.91843 0.62172 0.58609 0.0
Co924 Co 0.22902 0.82953 0.14158 0.0
C925 C 0.20113 0.78484 0.14301 0.0
C926 C 0.22422 0.78698 0.11102 0.0
C927 C 0.21393 0.76545 0.11082 0.0
N928 N 0.21574 0.79966 0.13069 0.0
N929 N 0.19938 0.76404 0.13096 0.0
H930 H 0.19334 0.78819 0.16142 0.0
H931 H 0.23789 0.79253 0.09821 0.0
C932 C 0.22154 0.83579 0.0859 0.0
O933 O 0.20022 0.82855 0.09007 0.0
N934 N 0.2435 0.85851 0.15218 0.0
C935 C 0.23742 0.87133 0.17268 0.0
C936 C 0.25276 0.88958 0.17503 0.0
C937 C 0.26244 0.86922 0.14218 0.0
N938 N 0.26849 0.88831 0.1559 0.0
C939 C 0.18087 0.83714 0.15412 0.0
C940 C 0.17454 0.87593 0.12374 0.0
C941 C 0.1552 0.86592 0.13578 0.0
C942 C 0.15871 0.84669 0.15174 0.0
C943 C 0.1964 0.86557 0.12641 0.0
N944 N 0.19903 0.84542 0.14005 0.0
H945 H 0.18338 0.82332 0.16762 0.0
H946 H 0.21112 0.87338 0.11688 0.0
H947 H 0.22308 0.86739 0.18534 0.0
H948 H 0.27209 0.86272 0.12589 0.0
O949 O 0.22778 0.8193 0.17673 0.0
O950 O 0.25713 0.81284 0.15015 0.0
O951 O 0.23591 0.8374 0.10453 0.0
C952 C 0.24786 0.80969 0.17271 0.0
H953 H 0.21729 0.75174 0.09712 0.0
H954 H 0.25253 0.9027 0.18992 0.0
H955 H 0.1727 0.89122 0.11182 0.0
H956 H 0.14447 0.83923 0.16253 0.0
Co957 Co 0.94623 0.48372 0.89588 0.0
C958 C 0.98893 0.4548 0.89272 0.0
C959 C 0.98695 0.47989 0.86237 0.0
C960 C 1.00753 0.468 0.86013 0.0
N961 N 0.97524 0.47156 0.88269 0.0
N962 N 1.00894 0.45229 0.87931 0.0
H963 H 0.98461 0.44524 0.90992 0.0
H964 H 0.9812 0.49399 0.85025 0.0
C965 C 0.91819 0.49105 0.84878 0.0
O966 O 0.90132 0.48017 0.8608 0.0
N967 N 0.91746 0.49749 0.90921 0.0
C968 C 0.90758 0.49414 0.9324 0.0
C969 C 0.88964 0.50975 0.9356 0.0
C970 C 0.90589 0.51601 0.89931 0.0
N971 N 0.88847 0.52333 0.91463 0.0
C972 C 0.92065 0.44165 0.90861 0.0
C973 C 0.9267 0.42051 0.86145 0.0
C974 C 0.91428 0.40865 0.88044 0.0
C975 C 0.91134 0.41948 0.90432 0.0
C976 C 0.9355 0.44267 0.86644 0.0
N977 N 0.9319 0.45337 0.88955 0.0
H978 H 0.91939 0.44895 0.9275 0.0
H979 H 0.94536 0.45123 0.85157 0.0
H980 H 0.91373 0.48228 0.9469 0.0
H981 H 0.91084 0.52494 0.88193 0.0
O982 O 0.95738 0.4786 0.93048 0.0
O983 O 0.96294 0.51079 0.90803 0.0
O984 O 0.93765 0.49445 0.86005 0.0
C985 C 0.96667 0.49917 0.92911 0.0
H986 H 0.02046 0.47089 0.84544 0.0
H987 H 0.87868 0.51137 0.95236 0.0
H988 H 0.92952 0.41281 0.84276 0.0
H989 H 0.90249 0.41063 0.91983 0.0
Co990 Co 0.29802 0.19483 0.64487 0.0
C991 C 0.32849 0.23765 0.6381 0.0
C992 C 0.29628 0.23882 0.61772 0.0
C993 C 0.30747 0.25963 0.61433 0.0
N994 N 0.30947 0.22474 0.63229 0.0
N995 N 0.32785 0.25906 0.62708 0.0
H996 H 0.34215 0.23198 0.65065 0.0
H997 H 0.27915 0.23449 0.61069 0.0
C998 C 0.29622 0.19087 0.58765 0.0
O999 O 0.31723 0.19977 0.58669 0.0
N1000 N 0.28523 0.16558 0.65689 0.0
C1001 C 0.29278 0.15274 0.67675 0.0
C1002 C 0.27812 0.13394 0.67975 0.0
C1003 C 0.26617 0.15436 0.64795 0.0
N1004 N 0.26142 0.13493 0.66161 0.0
C1005 C 0.3464 0.1852 0.65384 0.0
C1006 C 0.35102 0.15035 0.61778 0.0
C1007 C 0.37074 0.1574 0.63152 0.0
C1008 C 0.36807 0.17475 0.65017 0.0
C1009 C 0.32963 0.16116 0.62223 0.0
N1010 N 0.32779 0.17939 0.63894 0.0
H1011 H 0.34456 0.19779 0.66901 0.0
H1012 H 0.31453 0.15458 0.61237 0.0
H1013 H 0.30771 0.15694 0.68845 0.0
H1014 H 0.25554 0.16067 0.63234 0.0
O1015 O 0.3028 0.20528 0.67999 0.0
O1016 O 0.27082 0.21082 0.65736 0.0
O1017 O 0.28644 0.18723 0.60929 0.0
C1018 C 0.28211 0.21424 0.67865 0.0
H1019 H 0.30045 0.27431 0.604 0.0
H1020 H 0.2796 0.12058 0.69425 0.0
H1021 H 0.35198 0.13625 0.60406 0.0
H1022 H 0.38263 0.18039 0.66174 0.0
Co1023 Co 0.58407 0.55232 0.39524 0.0
C1024 C 0.538 0.57744 0.39803 0.0
C1025 C 0.55109 0.57426 0.35978 0.0
C1026 C 0.52992 0.58494 0.35873 0.0
N1027 N 0.55647 0.56951 0.38438 0.0
N1028 N 0.5214 0.58674 0.38271 0.0
H1029 H 0.53633 0.57589 0.41856 0.0
H1030 H 0.56137 0.56979 0.34324 0.0
C1031 C 0.60276 0.5334 0.34523 0.0
O1032 O 0.62404 0.53875 0.35216 0.0
N1033 N 0.61135 0.53423 0.40521 0.0
C1034 C 0.63125 0.5412 0.41648 0.0
C1035 C 0.64742 0.52353 0.41463 0.0
C1036 C 0.61553 0.51211 0.39764 0.0
N1037 N 0.63766 0.50539 0.40227 0.0
C1038 C 0.6099 0.59388 0.40543 0.0
C1039 C 0.61504 0.60916 0.35562 0.0
C1040 C 0.62124 0.62398 0.37568 0.0
C1041 C 0.61892 0.61603 0.4008 0.0
C1042 C 0.60563 0.58723 0.36106 0.0
N1043 N 0.60302 0.57962 0.38582 0.0
H1044 H 0.60768 0.58872 0.42512 0.0
H1045 H 0.59943 0.57729 0.34508 0.0
H1046 H 0.63453 0.55828 0.42417 0.0
H1047 H 0.6031 0.50181 0.38701 0.0
O1048 O 0.57843 0.5605 0.43043 0.0
O1049 O 0.56412 0.52916 0.41191 0.0
O1050 O 0.5856 0.53801 0.35994 0.0
C1051 C 0.56557 0.5421 0.43238 0.0
H1052 H 0.52149 0.59071 0.34136 0.0
H1053 H 0.66552 0.52472 0.42008 0.0
H1054 H 0.61632 0.61493 0.33591 0.0
H1055 H 0.62349 0.62712 0.41683 0.0
H1056 H 0.25651 0.27924 0.19131 0.0
H1057 H 0.32074 0.31066 0.21799 0.0
H1058 H 0.31831 0.2883 0.25781 0.0
H1059 H 0.22822 0.2782 0.25421 0.0
H1060 H 0.21428 0.25056 0.24891 0.0
H1061 H 0.22062 0.26931 0.22215 0.0
H1062 H 0.24357 0.23597 0.20046 0.0
H1063 H 0.23746 0.2172 0.22726 0.0
H1064 H 0.26706 0.22229 0.21755 0.0
H1065 H 0.31013 0.26216 0.29456 0.0
H1066 H 0.29488 0.2352 0.3273 0.0
H1067 H 0.23569 0.22032 0.27844 0.0
C1068 C 0.26991 0.28152 0.20564 0.0
C1069 C 0.28885 0.29676 0.20129 0.0
C1070 C 0.30607 0.29911 0.2206 0.0
C1071 C 0.30491 0.28643 0.24342 0.0
C1072 C 0.28636 0.27135 0.247 0.0
C1073 C 0.26901 0.26891 0.22885 0.0
C1074 C 0.25097 0.25144 0.23796 0.0
C1075 C 0.22711 0.26307 0.24099 0.0
C1076 C 0.2497 0.23048 0.21972 0.0
C1077 C 0.26103 0.24454 0.26385 0.0
C1078 C 0.28151 0.25622 0.26857 0.0
C1079 C 0.29408 0.2529 0.29113 0.0
C1080 C 0.28532 0.23747 0.3096 0.0
C1081 C 0.26417 0.22553 0.30549 0.0
C1082 C 0.252 0.22905 0.28215 0.0
H1083 H 0.05264 0.98871 0.53093 0.0
H1084 H 0.03577 0.04655 0.58103 0.0
H1085 H 1.00891 0.06183 0.54829 0.0
H1086 H 0.05051 0.02142 0.47082 0.0
H1087 H 0.03775 0.9978 0.453 0.0
H1088 H 0.05634 0.99178 0.47995 0.0
H1089 H 0.02367 0.96718 0.5006 0.0
H1090 H 1.00487 0.97332 0.47386 0.0
H1091 H 0.99559 0.9801 0.506 0.0
H1092 H 0.98294 0.07004 0.51152 0.0
H1093 H 0.96086 0.07263 0.4715 0.0
H1094 H 0.99402 1.0097 0.44368 0.0
C1095 C 0.04353 1.00477 0.53487 0.0
C1096 C 0.04643 0.01653 0.55859 0.0
C1097 C 0.03398 0.03733 0.56305 0.0
C1098 C 0.01861 0.04608 0.54457 0.0
C1099 C 0.01585 0.03388 0.52166 0.0
C1100 C 0.02807 1.0138 0.51657 0.0
C1101 C 0.02161 1.00405 0.49037 0.0
C1102 C 0.04282 1.00375 0.47248 0.0
C1103 C 1.01079 0.97972 0.49287 0.0
C1104 C 1.00373 0.02177 0.48159 0.0
C1105 C 1.00074 0.03873 0.50011 0.0
C1106 C 0.98523 0.05695 0.49684 0.0
C1107 C 0.97272 0.05821 0.47392 0.0
C1108 C 0.97566 0.0414 0.45425 0.0
C1109 C 0.99126 0.02274 0.45832 0.0
H1110 H 0.25436 0.78953 0.80798 0.0
H1111 H 0.31591 0.8236 0.77786 0.0
H1112 H 0.3129 0.80061 0.73837 0.0
H1113 H 0.26643 0.73309 0.78255 0.0
H1114 H 0.23679 0.72636 0.77432 0.0
H1115 H 0.24292 0.74598 0.80039 0.0
H1116 H 0.21764 0.77775 0.77905 0.0
H1117 H 0.21117 0.75811 0.7531 0.0
H1118 H 0.22356 0.78624 0.74644 0.0
H1119 H 0.30482 0.77309 0.70294 0.0
H1120 H 0.28962 0.74493 0.67153 0.0
H1121 H 0.23271 0.72855 0.72307 0.0
C1122 C 0.26695 0.79237 0.7929 0.0
C1123 C 0.28537 0.80842 0.79611 0.0
C1124 C 0.30164 0.81144 0.77597 0.0
C1125 C 0.30015 0.7984 0.75341 0.0
C1126 C 0.28222 0.78237 0.75104 0.0
C1127 C 0.26569 0.77945 0.76999 0.0
C1128 C 0.24818 0.76097 0.76222 0.0
C1129 C 0.24861 0.74038 0.78099 0.0
C1130 C 0.22369 0.77139 0.76007 0.0
C1131 C 0.25758 0.75401 0.73609 0.0
C1132 C 0.27733 0.76651 0.73018 0.0
C1133 C 0.2893 0.76323 0.70726 0.0
C1134 C 0.28059 0.74709 0.68958 0.0
C1135 C 0.26002 0.73446 0.6948 0.0
C1136 C 0.24855 0.73783 0.71855 0.0
H1137 H 0.47481 0.04399 0.02891 0.0
H1138 H 0.48761 0.9829 0.07566 0.0
H1139 H 0.51534 0.96854 0.04347 0.0
H1140 H 0.4789 1.0139 0.96654 0.0
H1141 H 0.49312 0.03799 0.95098 0.0
H1142 H 0.47332 0.04321 0.9771 0.0
H1143 H 0.50547 0.06593 1.00109 0.0
H1144 H 0.52547 0.06052 0.97522 0.0
H1145 H 0.5329 0.052 0.00743 0.0
H1146 H 0.54326 0.96184 0.00867 0.0
H1147 H 0.56766 0.9606 0.97038 0.0
H1148 H 0.53713 0.02523 0.94358 0.0
C1149 C 0.48316 0.0274 0.03213 0.0
C1150 C 0.47893 1.01452 0.05488 0.0
C1151 C 0.49042 0.99304 0.05845 0.0
C1152 C 0.5063 0.98477 0.04029 0.0
C1153 C 0.51049 0.99807 0.01847 0.0
C1154 C 0.49909 0.01875 0.01401 0.0
C1155 C 0.50715 0.02954 0.98884 0.0
C1156 C 0.48692 0.03125 0.96973 0.0
C1157 C 0.51842 0.05341 0.99343 0.0
C1158 C 0.52504 1.01176 0.98008 0.0
C1159 C 0.52661 0.99389 0.99771 0.0
C1160 C 0.54203 0.97559 0.9946 0.0
C1161 C 0.55592 0.97514 0.97267 0.0
C1162 C 0.55439 0.99278 0.95372 0.0
C1163 C 0.53881 1.01152 0.95765 0.0
H1164 H 0.23184 0.80028 0.2211 0.0
H1165 H 0.28678 0.78279 0.16752 0.0
H1166 H 0.30174 0.75359 0.19805 0.0
H1167 H 0.26637 0.79445 0.27886 0.0
H1168 H 0.24282 0.78233 0.29727 0.0
H1169 H 0.23679 0.80204 0.27132 0.0
H1170 H 0.20982 0.7712 0.2507 0.0
H1171 H 0.21603 0.75126 0.2764 0.0
H1172 H 0.22109 0.74268 0.24365 0.0
H1173 H 0.31011 0.72575 0.23378 0.0
H1174 H 0.31348 0.70326 0.27375 0.0
H1175 H 0.25317 0.73882 0.30454 0.0
C1176 C 0.24716 0.79048 0.21587 0.0
C1177 C 0.25821 0.79386 0.19193 0.0
C1178 C 0.27813 0.7806 0.18579 0.0
C1179 C 0.28666 0.76388 0.20295 0.0
C1180 C 0.2751 0.76069 0.22618 0.0
C1181 C 0.25594 0.77377 0.2328 0.0
C1182 C 0.24686 0.76704 0.25907 0.0
C1183 C 0.24831 0.78769 0.27773 0.0
C1184 C 0.22197 0.75748 0.25734 0.0
C1185 C 0.26393 0.74809 0.26623 0.0
C1186 C 0.27998 0.74465 0.24688 0.0
C1187 C 0.29766 0.72831 0.24906 0.0
C1188 C 0.29937 0.71556 0.27184 0.0
C1189 C 0.28353 0.71919 0.29226 0.0
C1190 C 0.26536 0.73545 0.28918 0.0
H1191 H 0.49583 0.02508 0.45024 0.0
H1192 H 0.45669 0.96728 0.48188 0.0
H1193 H 0.47718 0.97162 0.52283 0.0
H1194 H 0.54941 1.0115 0.48005 0.0
H1195 H 0.55768 0.04108 0.48693 0.0
H1196 H 0.53895 0.03486 0.46015 0.0
H1197 H 0.50801 0.06315 0.47811 0.0
H1198 H 0.52679 0.06968 0.50479 0.0
H1199 H 0.49766 0.05944 0.51046 0.0
H1200 H 0.50367 0.97962 0.55924 0.0
H1201 H 0.53245 0.9936 0.59069 0.0
H1202 H 0.55434 0.04712 0.53725 0.0
C1203 C 0.49126 1.01371 0.46598 0.0
C1204 C 0.47459 0.99583 0.46275 0.0
C1205 C 0.46938 0.98108 0.48375 0.0
C1206 C 0.48096 0.98336 0.50718 0.0
C1207 C 0.49773 1.00061 0.50958 0.0
C1208 C 0.50271 0.01579 0.48978 0.0
C1209 C 0.52193 0.0325 0.49763 0.0
C1210 C 0.54326 0.02981 0.48015 0.0
C1211 C 0.51306 0.05769 0.49775 0.0
C1212 C 0.52705 0.02404 0.52467 0.0
C1213 C 0.5129 1.00556 0.53105 0.0
C1214 C 0.51472 0.99424 0.55459 0.0
C1215 C 0.53123 1.00222 0.5723 0.0
C1216 C 0.54564 0.02145 0.56651 0.0
C1217 C 0.54351 0.03242 0.54229 0.0
H1218 H 0.30011 0.22325 0.72713 0.0
H1219 H 0.24255 0.23975 0.67653 0.0
H1220 H 0.22728 0.26705 0.70856 0.0
H1221 H 0.26628 0.22555 0.78643 0.0
H1222 H 0.28931 0.2384 0.80506 0.0
H1223 H 0.29615 0.21992 0.77821 0.0
H1224 H 0.32104 0.25284 0.75847 0.0
H1225 H 0.31411 0.27149 0.78514 0.0
H1226 H 0.30812 0.28091 0.75287 0.0
H1227 H 0.21875 0.29328 0.74408 0.0
H1228 H 0.21464 0.31523 0.78383 0.0
H1229 H 0.27643 0.28198 0.81454 0.0
C1230 C 0.28421 0.23252 0.72292 0.0
C1231 C 0.27252 0.22932 0.69921 0.0
C1232 C 0.2518 0.24178 0.69446 0.0
C1233 C 0.24301 0.25744 0.71253 0.0
C1234 C 0.25501 0.26042 0.73546 0.0
C1235 C 0.27497 0.2482 0.741 0.0
C1236 C 0.28396 0.25465 0.76759 0.0
C1237 C 0.28392 0.23336 0.78537 0.0
C1238 C 0.30825 0.26562 0.76591 0.0
C1239 C 0.26592 0.27246 0.77594 0.0
C1240 C 0.2496 0.27549 0.7568 0.0
C1241 C 0.23129 0.29096 0.7593 0.0
C1242 C 0.22918 0.3034 0.78212 0.0
C1243 C 0.24512 0.30035 0.8026 0.0
C1244 C 0.26399 0.28478 0.79931 0.0
H1245 H 0.03877 1.00073 0.95394 0.0
H1246 H 0.07703 0.05961 0.98435 0.0
H1247 H 0.05438 0.05748 0.02432 0.0
H1248 H 0.98417 0.01644 0.97896 0.0
H1249 H 0.97498 0.98737 0.9869 0.0
H1250 H 0.99536 0.99201 0.96121 0.0
H1251 H 0.02475 0.96423 0.9829 0.0
H1252 H 1.00429 0.95918 0.00844 0.0
H1253 H 0.03317 0.9693 0.01571 0.0
H1254 H 0.02546 0.05134 0.0596 0.0
H1255 H 0.99509 0.0386 0.08993 0.0
H1256 H 0.97574 0.98312 0.03772 0.0
C1257 C 0.04281 1.01274 0.9693 0.0
C1258 C 0.05984 0.03026 0.966 0.0
C1259 C 0.06419 0.04597 0.98639 0.0
C1260 C 0.05132 0.04498 0.00918 0.0
C1261 C 0.03414 0.02808 0.01151 0.0
C1262 C 0.03008 1.01197 0.99234 0.0
C1263 C 1.01018 0.99593 0.99967 0.0
C1264 C 0.98998 0.99808 0.98054 0.0
C1265 C 0.01861 0.97066 1.00181 0.0
C1266 C 1.00361 1.00572 0.02574 0.0
C1267 C 0.01759 0.02435 0.03211 0.0
C1268 C 0.01454 0.03663 0.05492 0.0
C1269 C 0.9971 0.02937 0.07198 0.0
C1270 C 0.98297 1.0099 0.06627 0.0
C1271 C 0.98622 0.9981 0.04267 0.0
H1272 H 0.73238 0.72147 0.78181 0.0
H1273 H 0.78485 0.74256 0.83685 0.0
H1274 H 0.7986 0.77266 0.80679 0.0
H1275 H 0.7683 0.72964 0.72503 0.0
H1276 H 0.74459 0.74016 0.70572 0.0
H1277 H 0.73906 0.72008 0.73149 0.0
H1278 H 0.70952 0.74904 0.751 0.0
H1279 H 0.71523 0.76937 0.72551 0.0
H1280 H 0.71869 0.77824 0.75842 0.0
H1281 H 0.80583 0.80122 0.77182 0.0
H1282 H 0.80912 0.82398 0.7321 0.0
H1283 H 0.75261 0.7843 0.69856 0.0
C1284 C 0.74693 0.73226 0.78742 0.0
C1285 C 0.75758 0.72961 0.81172 0.0
C1286 C 0.7765 0.74414 0.81834 0.0
C1287 C 0.78434 0.7614 0.80145 0.0
C1288 C 0.77317 0.76387 0.77791 0.0
C1289 C 0.7551 0.74952 0.77068 0.0
C1290 C 0.74645 0.75568 0.74402 0.0
C1291 C 0.74981 0.73517 0.72547 0.0
C1292 C 0.72096 0.76355 0.7448 0.0
C1293 C 0.76248 0.77577 0.73742 0.0
C1294 C 0.77759 0.78026 0.75741 0.0
C1295 C 0.79415 0.79782 0.75601 0.0
C1296 C 0.79582 0.81071 0.73334 0.0
C1297 C 0.7811 0.80599 0.71218 0.0
C1298 C 0.76392 0.78851 0.71447 0.0
H1299 H 0.75247 0.28924 0.3037 0.0
H1300 H 0.81923 0.31515 0.27741 0.0
H1301 H 0.81603 0.29139 0.23857 0.0
H1302 H 0.75922 0.23045 0.27952 0.0
H1303 H 0.72943 0.2275 0.26944 0.0
H1304 H 0.73667 0.24632 0.29588 0.0
H1305 H 0.71664 0.28082 0.27297 0.0
H1306 H 0.70924 0.26207 0.24654 0.0
H1307 H 0.72537 0.28842 0.24086 0.0
H1308 H 0.80648 0.26514 0.20272 0.0
H1309 H 0.78975 0.23896 0.17029 0.0
H1310 H 0.72853 0.22973 0.21785 0.0
C1311 C 0.76635 0.28989 0.28972 0.0
C1312 C 0.7861 0.30414 0.29372 0.0
C1313 C 0.80387 0.30451 0.2749 0.0
C1314 C 0.8023 0.29098 0.25271 0.0
C1315 C 0.78277 0.27712 0.24934 0.0
C1316 C 0.76499 0.27651 0.26712 0.0
C1317 C 0.74573 0.26032 0.25814 0.0
C1318 C 0.74258 0.23994 0.27687 0.0
C1319 C 0.72289 0.27371 0.2544 0.0
C1320 C 0.75556 0.25209 0.23263 0.0
C1321 C 0.77703 0.26195 0.22814 0.0
C1322 C 0.78966 0.25728 0.20597 0.0
C1323 C 0.78 0.24233 0.18765 0.0
C1324 C 0.75785 0.23222 0.19147 0.0
C1325 C 0.74556 0.23708 0.21441 0.0
H1326 H 0.77051 0.28757 0.68936 0.0
H1327 H 0.71191 0.32491 0.72165 0.0
H1328 H 0.71515 0.30219 0.76131 0.0
H1329 H 0.75629 0.23201 0.71614 0.0
H1330 H 0.78584 0.22384 0.723 0.0
H1331 H 0.7797 0.24346 0.69698 0.0
H1332 H 0.80749 0.2741 0.71657 0.0
H1333 H 0.81395 0.25446 0.74248 0.0
H1334 H 0.80336 0.28327 0.7493 0.0
H1335 H 0.72337 0.27462 0.79708 0.0
H1336 H 0.73838 0.24584 0.82803 0.0
H1337 H 0.79208 0.22632 0.77377 0.0
C1338 C 0.7586 0.29115 0.70492 0.0
C1339 C 0.74096 0.3081 0.70228 0.0
C1340 C 0.72557 0.31206 0.72307 0.0
C1341 C 0.72721 0.29918 0.74575 0.0
C1342 C 0.7444 0.28232 0.7476 0.0
C1343 C 0.76001 0.27839 0.72793 0.0
C1344 C 0.77682 0.25913 0.73513 0.0
C1345 C 0.77452 0.23838 0.71672 0.0
C1346 C 0.80189 0.26829 0.73592 0.0
C1347 C 0.76813 0.25295 0.76181 0.0
C1348 C 0.74931 0.26647 0.76851 0.0
C1349 C 0.73817 0.26396 0.7921 0.0
C1350 C 0.74674 0.24747 0.80953 0.0
C1351 C 0.76635 0.23376 0.80338 0.0
C1352 C 0.777 0.23647 0.77905 0.0
H1353 H 0.78335 0.7884 0.30903 0.0
H1354 H 0.72839 0.82952 0.27464 0.0
H1355 H 0.73187 0.80703 0.23484 0.0
H1356 H 0.81806 0.78202 0.24909 0.0
H1357 H 0.82654 0.75263 0.25649 0.0
H1358 H 0.82104 0.77302 0.28202 0.0
H1359 H 0.79099 0.74456 0.30147 0.0
H1360 H 0.7961 0.72426 0.2758 0.0
H1361 H 0.7671 0.73455 0.28205 0.0
H1362 H 0.73788 0.77818 0.20064 0.0
H1363 H 0.74993 0.74735 0.1709 0.0
H1364 H 0.80266 0.72498 0.225 0.0
C1365 C 0.77251 0.79302 0.29287 0.0
C1366 C 0.75559 0.8108 0.29501 0.0
C1367 C 0.74146 0.81603 0.27355 0.0
C1368 C 0.74324 0.80329 0.25081 0.0
C1369 C 0.75942 0.78541 0.24956 0.0
C1370 C 0.77417 0.78047 0.26972 0.0
C1371 C 0.78973 0.75994 0.26308 0.0
C1372 C 0.81537 0.76735 0.26264 0.0
C1373 C 0.78573 0.73963 0.28171 0.0
C1374 C 0.78107 0.75402 0.23629 0.0
C1375 C 0.76346 0.76892 0.22911 0.0
C1376 C 0.75188 0.76657 0.20585 0.0
C1377 C 0.75877 0.74884 0.18915 0.0
C1378 C 0.77727 0.73371 0.19552 0.0
C1379 C 0.78851 0.73631 0.21953 0.0
H1380 H 0.4894 0.5035 0.94508 0.0
H1381 H 0.45198 0.56214 0.9773 0.0
H1382 H 0.47602 0.56019 0.01609 0.0
H1383 H 0.49653 0.4722 0.00662 0.0
H1384 H 0.52519 0.46191 0.99866 0.0
H1385 H 0.50427 0.46705 0.97362 0.0
H1386 H 0.53343 0.49465 0.95119 0.0
H1387 H 0.55427 0.48991 0.97639 0.0
H1388 H 0.54516 0.51903 0.96864 0.0
H1389 H 0.50547 0.55434 0.04991 0.0
H1390 H 0.53575 0.54141 0.07992 0.0
H1391 H 0.55417 0.48546 0.02785 0.0
C1392 C 0.48596 0.51556 0.96056 0.0
C1393 C 0.46873 0.53298 0.95806 0.0
C1394 C 0.46503 0.54865 0.97864 0.0
C1395 C 0.47867 0.54777 1.00079 0.0
C1396 C 0.49596 0.53099 1.00235 0.0
C1397 C 0.49945 0.51485 0.98309 0.0
C1398 C 0.5194 0.49869 0.98998 0.0
C1399 C 0.51083 0.47347 0.99236 0.0
C1400 C 0.53924 0.5007 0.97038 0.0
C1401 C 0.52658 0.50847 0.01591 0.0
C1402 C 0.51287 0.52723 0.02245 0.0
C1403 C 0.51621 0.53954 0.04514 0.0
C1404 C 0.53361 0.53213 0.06201 0.0
C1405 C 0.54742 0.51244 0.05632 0.0
C1406 C 0.544 0.50065 0.03273 0.0
H1407 H 0.97847 0.54348 0.54183 0.0
H1408 H 0.99792 0.49042 0.59684 0.0
H1409 H 0.02694 0.47517 0.56627 0.0
H1410 H 0.98388 0.50692 0.4853 0.0
H1411 H 0.99513 0.53001 0.46552 0.0
H1412 H 0.97588 0.53665 0.49172 0.0
H1413 H 1.00653 0.56496 0.51033 0.0
H1414 H 0.02599 0.55822 0.48434 0.0
H1415 H 0.0354 0.55452 0.51703 0.0
H1416 H 0.05474 0.46649 0.53038 0.0
H1417 H 0.07703 0.4626 0.49032 0.0
H1418 H 0.03901 0.52053 0.45759 0.0
C1419 C 0.98872 0.52854 0.54738 0.0
C1420 C 0.98589 0.51812 0.57179 0.0
C1421 C 0.99966 0.49862 0.57827 0.0
C1422 C 0.01629 0.48991 0.56105 0.0
C1423 C 0.01886 0.50077 0.53732 0.0
C1424 C 1.00527 0.51949 0.53032 0.0
C1425 C 1.01128 0.5277 0.50344 0.0
C1426 C 0.9903 0.52516 0.48543 0.0
C1427 C 0.02034 0.55284 0.50382 0.0
C1428 C 0.03043 0.51072 0.49644 0.0
C1429 C 0.03462 0.49548 0.51638 0.0
C1430 C 0.05154 0.47828 0.51462 0.0
C1431 C 0.0642 0.47628 0.49175 0.0
C1432 C 0.05987 0.49127 0.47073 0.0
C1433 C 0.04286 0.50887 0.4733 0.0
H1434 H 0.03424 0.4989 0.06444 0.0
H1435 H 0.0725 0.55844 0.03545 0.0
H1436 H 0.05066 0.55658 0.9952 0.0
H1437 H 0.03129 0.46817 1.00249 0.0
H1438 H 1.00238 0.45726 0.00804 0.0
H1439 H 0.02149 0.46264 0.03474 0.0
H1440 H 0.99052 0.48957 0.05503 0.0
H1441 H 0.97144 0.48448 0.02826 0.0
H1442 H 0.97944 0.51376 0.03682 0.0
H1443 H 0.0235 0.55031 0.95898 0.0
H1444 H 0.99491 0.53721 0.9269 0.0
H1445 H 0.97448 0.48072 0.97725 0.0
C1446 C 0.03822 0.51129 0.04946 0.0
C1447 C 0.05515 0.52884 0.05329 0.0
C1448 C 0.05966 0.54483 0.03319 0.0
C1449 C 0.04728 0.54399 0.01015 0.0
C1450 C 0.03043 0.52692 0.00715 0.0
C1451 C 0.02603 0.5106 0.026 0.0
C1452 C 1.0069 0.49408 0.01745 0.0
C1453 C 0.01607 0.46905 0.01557 0.0
C1454 C 0.98583 0.49557 0.03547 0.0
C1455 C 1.00123 0.50386 0.99108 0.0
C1456 C 0.01495 0.52292 0.9857 0.0
C1457 C 1.01274 0.5353 0.96287 0.0
C1458 C 0.99634 0.52779 0.94479 0.0
C1459 C 0.98243 0.50796 0.94948 0.0
C1460 C 0.98487 0.49595 0.97307 0.0
H1461 H 0.53543 0.50562 0.44446 0.0
H1462 H 0.56243 0.57128 0.47295 0.0
H1463 H 0.53646 0.56891 0.51005 0.0
H1464 H 0.47606 0.51412 0.46445 0.0
H1465 H 0.47147 0.48449 0.47445 0.0
H1466 H 0.49208 0.49091 0.44944 0.0
H1467 H 0.52445 0.46994 0.47494 0.0
H1468 H 0.50386 0.4632 0.49985 0.0
H1469 H 0.53026 0.47853 0.50755 0.0
H1470 H 0.50728 0.56074 0.54343 0.0
H1471 H 0.47921 0.54471 0.57427 0.0
H1472 H 0.47115 0.48336 0.52654 0.0
C1473 C 0.53596 0.51936 0.45863 0.0
C1474 C 0.55104 0.53866 0.45564 0.0
C1475 C 0.55117 0.55627 0.47468 0.0
C1476 C 0.53635 0.55519 0.49585 0.0
C1477 C 0.5215 0.53626 0.49807 0.0
C1478 C 0.52135 0.51844 0.4803 0.0
C1479 C 0.50402 0.49975 0.4881 0.0
C1480 C 0.48477 0.49717 0.4679 0.0
C1481 C 0.51639 0.47648 0.4929 0.0
C1482 C 0.49457 0.50997 0.51291 0.0
C1483 C 0.50479 0.53118 0.51802 0.0
C1484 C 0.49917 0.5441 0.53972 0.0
C1485 C 0.4831 0.53487 0.5571 0.0
C1486 C 0.47288 0.5128 0.55288 0.0
C1487 C 0.47849 0.50036 0.53022 0.0
H1488 H 0.32532 0.22022 0.10922 0.0
H1489 H 0.37523 0.26698 0.14427 0.0
H1490 H 0.40228 0.23398 0.15013 0.0
H1491 H 0.33694 0.17037 0.14885 0.0
H1492 H 0.33331 0.15 0.12289 0.0
H1493 H 0.31773 0.17713 0.12262 0.0
H1494 H 0.33504 0.18682 0.07804 0.0
H1495 H 0.3507 0.15975 0.07817 0.0
H1496 H 0.36611 0.18674 0.0738 0.0
H1497 H 0.42447 0.19542 0.15062 0.0
H1498 H 0.43957 0.15546 0.14573 0.0
H1499 H 0.37483 0.13462 0.10991 0.0
C1500 C 0.34195 0.22374 0.11798 0.0
C1501 C 0.34809 0.24642 0.12613 0.0
C1502 C 0.36996 0.24984 0.13803 0.0
C1503 C 0.3855 0.23118 0.14134 0.0
C1504 C 0.37891 0.20915 0.13273 0.0
C1505 C 0.3576 0.20541 0.12135 0.0
C1506 C 0.35469 0.18027 0.11328 0.0
C1507 C 0.33447 0.16877 0.12778 0.0
C1508 C 0.35145 0.17829 0.08409 0.0
C1509 C 0.37783 0.17038 0.12162 0.0
C1510 C 0.39155 0.18722 0.13294 0.0
C1511 C 0.41377 0.18212 0.14192 0.0
C1512 C 0.42216 0.15929 0.13918 0.0
C1513 C 0.40843 0.14176 0.12746 0.0
C1514 C 0.38592 0.14756 0.11871 0.0
H1515 H 0.05464 0.06962 0.37238 0.0
H1516 H 1.00852 0.12819 0.38382 0.0
H1517 H 0.04259 0.15452 0.38604 0.0
H1518 H 0.10127 0.0901 0.41457 0.0
H1519 H 0.12378 0.07888 0.39402 0.0
H1520 H 0.09588 0.06472 0.39518 0.0
H1521 H 0.09194 0.0691 0.34596 0.0
H1522 H 0.11976 0.08331 0.34464 0.0
H1523 H 0.09448 0.09752 0.3317 0.0
H1524 H 0.08169 0.17466 0.38289 0.0
H1525 H 0.12253 0.18687 0.37723 0.0
H1526 H 0.14312 0.1148 0.36883 0.0
C1527 C 0.05168 0.08798 0.37548 0.0
C1528 C 0.02888 0.09692 0.37778 0.0
C1529 C 0.02581 0.12098 0.3822 0.0
C1530 C 0.04506 0.13603 0.38337 0.0
C1531 C 0.06727 0.12666 0.38046 0.0
C1532 C 0.07065 0.10313 0.37692 0.0
C1533 C 0.09619 0.09742 0.37371 0.0
C1534 C 0.10478 0.08186 0.39568 0.0
C1535 C 0.10086 0.08618 0.34744 0.0
C1536 C 0.10671 0.12151 0.37535 0.0
C1537 C 0.08974 0.13814 0.37928 0.0
C1538 C 0.0951 0.16175 0.38011 0.0
C1539 C 0.11833 0.16852 0.37674 0.0
C1540 C 0.136 0.15178 0.3727 0.0
C1541 C 0.13005 0.12795 0.37229 0.0
H1542 H 0.15852 0.89875 0.62756 0.0
H1543 H 0.08775 0.8731 0.62492 0.0
H1544 H 0.102 0.83298 0.63126 0.0
H1545 H 0.18318 0.85279 0.59216 0.0
H1546 H 0.20982 0.85189 0.61026 0.0
H1547 H 0.19384 0.87864 0.6078 0.0
H1548 H 0.19215 0.88149 0.65735 0.0
H1549 H 0.2081 0.85466 0.65995 0.0
H1550 H 0.18034 0.85762 0.67557 0.0
H1551 H 0.12434 0.79522 0.63621 0.0
H1552 H 0.1531 0.76314 0.63605 0.0
H1553 H 0.20892 0.81367 0.63496 0.0
C1554 C 0.14601 0.88473 0.62875 0.0
C1555 C 0.12202 0.88904 0.62585 0.0
C1556 C 0.10623 0.87016 0.62695 0.0
C1557 C 0.11414 0.84734 0.63074 0.0
C1558 C 0.13793 0.84364 0.63335 0.0
C1559 C 0.15363 0.86183 0.63228 0.0
C1560 C 0.17836 0.85307 0.63388 0.0
C1561 C 0.1921 0.85947 0.60958 0.0
C1562 C 0.19044 0.86226 0.65814 0.0
C1563 C 0.17414 0.82713 0.63557 0.0
C1564 C 0.15072 0.82199 0.63563 0.0
C1565 C 0.14273 0.79907 0.63634 0.0
C1566 C 0.15914 0.78096 0.63639 0.0
C1567 C 0.18319 0.78591 0.6354 0.0
C1568 C 0.19064 0.80934 0.63552 0.0
H1569 H 0.49229 0.92872 0.84531 0.0
H1570 H 0.50344 0.9456 0.92534 0.0
H1571 H 0.46525 0.92821 0.93611 0.0
H1572 H 0.43229 0.94232 0.8435 0.0
H1573 H 0.425 0.91896 0.82191 0.0
H1574 H 0.45356 0.93166 0.82104 0.0
H1575 H 0.47197 0.89108 0.82819 0.0
H1576 H 0.44346 0.87822 0.8289 0.0
H1577 H 0.46309 0.87389 0.85536 0.0
H1578 H 0.42425 0.91023 0.93727 0.0
H1579 H 0.38625 0.89126 0.92911 0.0
H1580 H 0.40274 0.88757 0.8481 0.0
C1581 C 0.48676 0.92876 0.86513 0.0
C1582 C 0.50086 0.93859 0.88446 0.0
C1583 C 0.49307 0.93795 0.91023 0.0
C1584 C 0.47132 0.92827 0.91648 0.0
C1585 C 0.45765 0.91918 0.89676 0.0
C1586 C 0.46525 0.91921 0.87163 0.0
C1587 C 0.44744 0.90862 0.85382 0.0
C1588 C 0.43908 0.92646 0.8339 0.0
C1589 C 0.45707 0.88665 0.84081 0.0
C1590 C 0.42846 0.90273 0.87274 0.0
C1591 C 0.43453 0.90893 0.89744 0.0
C1592 C 0.41943 0.90524 0.91799 0.0
C1593 C 0.39782 0.89461 0.91317 0.0
C1594 C 0.39156 0.88773 0.88801 0.0
C1595 C 0.4071 0.8922 0.86763 0.0
H1596 H 0.38102 0.8852 0.39383 0.0
H1597 H 0.43558 0.87107 0.33863 0.0
H1598 H 0.41815 0.83243 0.33007 0.0
H1599 H 0.37942 0.82823 0.42081 0.0
H1600 H 0.34845 0.82872 0.42573 0.0
H1601 H 0.36472 0.85545 0.42622 0.0
H1602 H 0.33817 0.87233 0.3907 0.0
H1603 H 0.32178 0.84568 0.39014 0.0
H1604 H 0.33466 0.85661 0.36105 0.0
H1605 H 0.3942 0.79423 0.3286 0.0
H1606 H 0.36614 0.76184 0.33359 0.0
H1607 H 0.3299 0.8014 0.392 0.0
C1608 C 0.38954 0.87401 0.38005 0.0
C1609 C 0.40983 0.88126 0.36705 0.0
C1610 C 0.41992 0.8661 0.34871 0.0
C1611 C 0.41022 0.84402 0.34386 0.0
C1612 C 0.39047 0.83731 0.35752 0.0
C1613 C 0.3803 0.85199 0.37522 0.0
C1614 C 0.35946 0.84087 0.38783 0.0
C1615 C 0.36325 0.83816 0.41686 0.0
C1616 C 0.33721 0.85469 0.38207 0.0
C1617 C 0.35932 0.81757 0.37447 0.0
C1618 C 0.37723 0.81569 0.35699 0.0
C1619 C 0.38017 0.79559 0.3423 0.0
C1620 C 0.36421 0.77718 0.34539 0.0
C1621 C 0.34557 0.77898 0.36306 0.0
C1622 C 0.34354 0.79943 0.37793 0.0
H1623 H 0.40336 0.14364 0.667 0.0
H1624 H 0.39032 0.14633 0.58516 0.0
H1625 H 0.42851 0.12817 0.57705 0.0
H1626 H 0.46509 0.15632 0.66398 0.0
H1627 H 0.47221 0.13666 0.68967 0.0
H1628 H 0.4442 0.15053 0.6889 0.0
H1629 H 0.42409 0.11026 0.69087 0.0
H1630 H 0.45203 0.09627 0.6917 0.0
H1631 H 0.43128 0.0885 0.6673 0.0
H1632 H 0.4683 0.10915 0.57802 0.0
H1633 H 0.50509 0.08901 0.58818 0.0
H1634 H 0.49197 0.09909 0.66928 0.0
C1635 C 0.40863 0.14067 0.64734 0.0
C1636 C 0.39382 0.14649 0.6267 0.0
C1637 C 0.40125 0.14185 0.6013 0.0
C1638 C 0.42299 0.13169 0.59649 0.0
C1639 C 0.43716 0.1262 0.61729 0.0
C1640 C 0.43021 0.13045 0.64221 0.0
C1641 C 0.44829 0.12218 0.66122 0.0
C1642 C 0.45802 0.14265 0.67686 0.0
C1643 C 0.43832 0.10317 0.6788 0.0
C1644 C 0.46641 0.11243 0.64312 0.0
C1645 C 0.45981 0.11508 0.61785 0.0
C1646 C 0.47368 0.10709 0.59776 0.0
C1647 C 0.49464 0.0958 0.6037 0.0
C1648 C 0.50148 0.09243 0.62953 0.0
C1649 C 0.48719 0.10119 0.64937 0.0
H1650 H 0.17728 0.23676 0.91122 0.0
H1651 H 0.18391 0.25222 0.83025 0.0
H1652 H 0.1629 0.21575 0.81987 0.0
H1653 H 0.18738 0.17627 0.9065 0.0
H1654 H 0.16686 0.16865 0.9312 0.0
H1655 H 0.18107 0.19652 0.93194 0.0
H1656 H 0.14109 0.21714 0.93299 0.0
H1657 H 0.12675 0.18932 0.93241 0.0
H1658 H 0.12 0.21082 0.90844 0.0
H1659 H 0.14278 0.17569 0.81884 0.0
H1660 H 0.12368 0.13782 0.82729 0.0
H1661 H 0.13156 0.14923 0.90902 0.0
C1662 C 0.1743 0.23256 0.89127 0.0
C1663 C 0.18233 0.24737 0.87155 0.0
C1664 C 0.17772 0.24131 0.8457 0.0
C1665 C 0.16594 0.22053 0.83965 0.0
C1666 C 0.15875 0.20608 0.85965 0.0
C1667 C 0.16262 0.21203 0.88496 0.0
C1668 C 0.15359 0.19356 0.90304 0.0
C1669 C 0.17341 0.18314 0.91911 0.0
C1670 C 0.1342 0.2033 0.92023 0.0
C1671 C 0.14417 0.17608 0.88403 0.0
C1672 C 0.14726 0.18349 0.85907 0.0
C1673 C 0.1402 0.16985 0.83835 0.0
C1674 C 0.1295 0.14827 0.84332 0.0
C1675 C 0.12589 0.14055 0.86882 0.0
C1676 C 0.13358 0.15473 0.8893 0.0
H1677 H 0.1409 0.9114 0.13868 0.0
H1678 H 0.11589 0.84146 0.12455 0.0
H1679 H 0.07595 0.85652 0.11953 0.0
H1680 H 0.0933 0.92922 0.17659 0.0
H1681 H 0.09277 0.95859 0.16462 0.0
H1682 H 0.11958 0.94256 0.16491 0.0
H1683 H 0.12446 0.94973 0.11616 0.0
H1684 H 0.09764 0.96581 0.11573 0.0
H1685 H 0.10151 0.94137 0.09455 0.0
H1686 H 0.0384 0.87923 0.11735 0.0
H1687 H 1.0061 0.90748 0.12101 0.0
H1688 H 0.05566 0.96218 0.13758 0.0
C1689 C 0.12706 0.89934 0.13413 0.0
C1690 C 0.13146 0.87529 0.13188 0.0
C1691 C 0.11283 0.85995 0.12645 0.0
C1692 C 0.09014 0.86836 0.12342 0.0
C1693 C 0.08632 0.89215 0.12598 0.0
C1694 C 0.10425 0.90741 0.13133 0.0
C1695 C 0.09531 0.93196 0.13471 0.0
C1696 C 0.10055 0.94111 0.16182 0.0
C1697 C 0.10533 0.94817 0.11405 0.0
C1698 C 0.06954 0.92806 0.13082 0.0
C1699 C 0.0647 0.90506 0.12543 0.0
C1700 C 0.04201 0.89731 0.12146 0.0
C1701 C 0.02379 0.91344 0.12346 0.0
C1702 C 0.02837 0.93694 0.12971 0.0
C1703 C 0.0516 0.94428 0.13307 0.0
H1704 H 0.70594 0.80222 0.88498 0.0
H1705 H 0.6587 0.75892 0.84127 0.0
H1706 H 0.63485 0.79374 0.8314 0.0
H1707 H 0.66352 0.83578 0.91483 0.0
H1708 H 0.68032 0.86222 0.91448 0.0
H1709 H 0.69479 0.83455 0.91507 0.0
H1710 H 0.71759 0.84558 0.87398 0.0
H1711 H 0.70319 0.87336 0.87327 0.0
H1712 H 0.70194 0.85448 0.84573 0.0
H1713 H 0.61453 0.83371 0.82969 0.0
H1714 H 0.59972 0.87365 0.83694 0.0
H1715 H 0.66033 0.8892 0.8831 0.0
C1716 C 0.69062 0.7999 0.87328 0.0
C1717 C 0.68409 0.77771 0.8641 0.0
C1718 C 0.66414 0.77574 0.84838 0.0
C1719 C 0.65048 0.79543 0.84276 0.0
C1720 C 0.65714 0.81694 0.85286 0.0
C1721 C 0.67687 0.81918 0.86771 0.0
C1722 C 0.67976 0.84366 0.87777 0.0
C1723 C 0.67957 0.84406 0.90728 0.0
C1724 C 0.70193 0.85493 0.86704 0.0
C1725 C 0.65826 0.8549 0.86684 0.0
C1726 C 0.64552 0.83942 0.8522 0.0
C1727 C 0.62453 0.84595 0.84092 0.0
C1728 C 0.61629 0.86869 0.84505 0.0
C1729 C 0.62887 0.88451 0.86061 0.0
C1730 C 0.65027 0.87748 0.87123 0.0
H1731 H 0.96621 0.96251 0.62455 0.0
H1732 H 0.01653 0.9112 0.59966 0.0
H1733 H 0.98474 0.88263 0.59381 0.0
H1734 H 0.9333 0.9249 0.66227 0.0
H1735 H 0.90584 0.9383 0.65487 0.0
H1736 H 0.93207 0.95524 0.65377 0.0
H1737 H 0.92322 0.96683 0.60677 0.0
H1738 H 0.89686 0.94995 0.60774 0.0
H1739 H 0.9182 0.94445 0.58321 0.0
H1740 H 0.94712 0.85866 0.59449 0.0
H1741 H 0.90812 0.84182 0.60216 0.0
H1742 H 0.8835 0.90914 0.62778 0.0
C1743 C 0.97069 0.94534 0.61775 0.0
C1744 C 0.99401 0.93914 0.61269 0.0
C1745 C 0.99883 0.91649 0.60342 0.0
C1746 C 0.98087 0.90012 0.60014 0.0
C1747 C 0.95815 0.9067 0.60607 0.0
C1748 C 0.9531 0.92887 0.61457 0.0
C1749 C 0.92767 0.9314 0.62129 0.0
C1750 C 0.92455 0.93783 0.64973 0.0
C1751 C 0.91579 0.94921 0.6037 0.0
C1752 C 0.91918 0.90702 0.61587 0.0
C1753 C 0.93687 0.89303 0.60678 0.0
C1754 C 0.93314 0.86956 0.60135 0.0
C1755 C 0.9109 0.86016 0.60566 0.0
C1756 C 0.89275 0.87415 0.61558 0.0
C1757 C 0.89702 0.89795 0.62032 0.0
H1758 H 0.87116 0.14573 0.3812 0.0
H1759 H 0.93152 0.15985 0.33392 0.0
H1760 H 0.91654 0.19937 0.32524 0.0
H1761 H 0.82909 0.1796 0.34436 0.0
H1762 H 0.8143 0.18947 0.37279 0.0
H1763 H 0.82857 0.16162 0.37264 0.0
H1764 H 0.85264 0.17376 0.41244 0.0
H1765 H 0.83849 0.20161 0.4127 0.0
H1766 H 0.86971 0.20002 0.41129 0.0
H1767 H 0.89577 0.23914 0.32468 0.0
H1768 H 0.87218 0.27444 0.33353 0.0
H1769 H 0.8267 0.23354 0.3819 0.0
C1770 C 0.88126 0.15702 0.3689 0.0
C1771 C 0.90258 0.14953 0.35829 0.0
C1772 C 0.91498 0.16494 0.34203 0.0
C1773 C 0.90665 0.18751 0.33707 0.0
C1774 C 0.88581 0.19445 0.34838 0.0
C1775 C 0.8733 0.17953 0.3639 0.0
C1776 C 0.85221 0.19138 0.37515 0.0
C1777 C 0.82971 0.17983 0.36566 0.0
C1778 C 0.85335 0.19171 0.40463 0.0
C1779 C 0.85502 0.2155 0.36408 0.0
C1780 C 0.87428 0.21702 0.34839 0.0
C1781 C 0.88057 0.23802 0.3368 0.0
C1782 C 0.86706 0.25797 0.34181 0.0
C1783 C 0.84774 0.25678 0.35854 0.0
C1784 C 0.84153 0.2351 0.36927 0.0
H1785 H 0.55905 0.06563 0.11468 0.0
H1786 H 0.50756 0.12035 0.11069 0.0
H1787 H 0.53911 0.14972 0.10861 0.0
H1788 H 0.59714 0.09388 0.15596 0.0
H1789 H 0.62327 0.08299 0.14123 0.0
H1790 H 0.59681 0.06646 0.13922 0.0
H1791 H 0.59985 0.06603 0.08968 0.0
H1792 H 0.62646 0.08245 0.09152 0.0
H1793 H 0.60258 0.0931 0.07255 0.0
H1794 H 0.57662 0.17306 0.11195 0.0
H1795 H 0.61638 0.18831 0.11797 0.0
H1796 H 0.64305 0.11787 0.11999 0.0
C1797 C 0.55438 0.08378 0.11305 0.0
C1798 C 0.53082 0.09075 0.11294 0.0
C1799 C 0.52546 0.11464 0.11054 0.0
C1800 C 0.54328 0.1314 0.10948 0.0
C1801 C 0.56634 0.12391 0.11051 0.0
C1802 C 0.57188 0.1006 0.11191 0.0
C1803 C 0.59786 0.09697 0.11405 0.0
C1804 C 0.60413 0.08433 0.1391 0.0
C1805 C 0.60724 0.08386 0.09054 0.0
C1806 C 0.60619 0.12192 0.11436 0.0
C1807 C 0.58778 0.13723 0.11217 0.0
C1808 C 0.59113 0.16119 0.11337 0.0
C1809 C 0.61377 0.16969 0.11697 0.0
C1810 C 0.63288 0.15431 0.11938 0.0
C1811 C 0.62892 0.13011 0.11777 0.0
H1812 H 0.66336 0.24799 0.59844 0.0
H1813 H 0.70585 0.24613 0.6672 0.0
H1814 H 0.69092 0.20677 0.67665 0.0
H1815 H 0.61431 0.21685 0.62303 0.0
H1816 H 0.60913 0.20164 0.59336 0.0
H1817 H 0.62228 0.23005 0.59295 0.0
H1818 H 0.6572 0.21364 0.5674 0.0
H1819 H 0.6442 0.18518 0.56776 0.0
H1820 H 0.67316 0.18927 0.58005 0.0
H1821 H 0.67154 0.16684 0.67788 0.0
H1822 H 0.65019 0.1301 0.67044 0.0
H1823 H 0.62216 0.15818 0.59982 0.0
C1824 C 0.66982 0.23945 0.61543 0.0
C1825 C 0.68599 0.25041 0.63197 0.0
C1826 C 0.69335 0.2384 0.65428 0.0
C1827 C 0.68504 0.21593 0.65975 0.0
C1828 C 0.66941 0.20563 0.64273 0.0
C1829 C 0.66193 0.21706 0.62101 0.0
C1830 C 0.64557 0.20213 0.60534 0.0
C1831 C 0.62139 0.21334 0.60358 0.0
C1832 C 0.65564 0.19727 0.57855 0.0
C1833 C 0.64504 0.18034 0.62152 0.0
C1834 C 0.65874 0.18272 0.64313 0.0
C1835 C 0.66077 0.16485 0.66102 0.0
C1836 C 0.64852 0.14409 0.65668 0.0
C1837 C 0.63455 0.14125 0.63452 0.0
C1838 C 0.63289 0.1597 0.61677 0.0
H1839 H 0.647 0.90824 0.38149 0.0
H1840 H 0.62426 0.83788 0.39744 0.0
H1841 H 0.58415 0.85219 0.40424 0.0
H1842 H 0.60894 0.93718 0.42785 0.0
H1843 H 0.60418 0.96171 0.40703 0.0
H1844 H 0.63112 0.9459 0.40543 0.0
H1845 H 0.62476 0.93902 0.35682 0.0
H1846 H 0.59781 0.95473 0.35829 0.0
H1847 H 0.59828 0.92544 0.34605 0.0
H1848 H 0.54531 0.8746 0.40563 0.0
H1849 H 0.51272 0.90262 0.40218 0.0
H1850 H 0.56219 0.95782 0.38705 0.0
C1851 C 0.63363 0.89584 0.3866 0.0
C1852 C 0.63879 0.87193 0.3889 0.0
C1853 C 0.62079 0.85632 0.39583 0.0
C1854 C 0.59792 0.86429 0.39963 0.0
C1855 C 0.59337 0.88797 0.39677 0.0
C1856 C 0.61087 0.9035 0.39066 0.0
C1857 C 0.60157 0.92794 0.38787 0.0
C1858 C 0.61208 0.94413 0.40826 0.0
C1859 C 0.60586 0.93732 0.36064 0.0
C1860 C 0.57602 0.92374 0.39271 0.0
C1861 C 0.57148 0.90066 0.39794 0.0
C1862 C 0.54878 0.89276 0.40183 0.0
C1863 C 0.53034 0.90881 0.39995 0.0
C1864 C 0.5347 0.93247 0.39412 0.0
C1865 C 0.55799 0.93988 0.39107 0.0
H1866 H 0.87741 0.88854 0.10805 0.0
H1867 H 0.936 0.87053 0.15626 0.0
H1868 H 0.92028 0.83073 0.16132 0.0
H1869 H 0.83464 0.856 0.14338 0.0
H1870 H 0.81874 0.8475 0.11514 0.0
H1871 H 0.83478 0.87438 0.11541 0.0
H1872 H 0.85739 0.8613 0.07493 0.0
H1873 H 0.84142 0.83439 0.07455 0.0
H1874 H 0.8727 0.83399 0.07526 0.0
H1875 H 0.89809 0.79217 0.16008 0.0
H1876 H 0.87134 0.75911 0.15333 0.0
H1877 H 0.82691 0.8036 0.10737 0.0
C1878 C 0.88702 0.87619 0.11954 0.0
C1879 C 0.90797 0.88265 0.13171 0.0
C1880 C 0.91982 0.86604 0.14692 0.0
C1881 C 0.91107 0.84336 0.14982 0.0
C1882 C 0.89034 0.83757 0.13755 0.0
C1883 C 0.87844 0.8536 0.12282 0.0
C1884 C 0.85642 0.84322 0.11189 0.0
C1885 C 0.83488 0.85604 0.12207 0.0
C1886 C 0.85703 0.84323 0.08241 0.0
C1887 C 0.85787 0.81878 0.1225 0.0
C1888 C 0.87753 0.81576 0.13723 0.0
C1889 C 0.88257 0.79442 0.14866 0.0
C1890 C 0.86717 0.77572 0.14481 0.0
C1891 C 0.84687 0.77843 0.1297 0.0
C1892 C 0.84229 0.80047 0.11867 0.0
H1893 H 0.97514 0.08785 0.91548 0.0
H1894 H 0.01419 0.10217 0.84639 0.0
H1895 H 0.98176 0.12659 0.83033 0.0
H1896 H 0.92042 0.08251 0.8876 0.0
H1897 H 0.90467 0.09673 0.91301 0.0
H1898 H 0.93155 0.08209 0.91989 0.0
H1899 H 0.94849 0.11984 0.9395 0.0
H1900 H 0.92149 0.13453 0.93308 0.0
H1901 H 0.94835 0.14625 0.9209 0.0
H1902 H 0.94281 0.14485 0.81981 0.0
H1903 H 0.90315 0.16023 0.81764 0.0
H1904 H 0.89084 0.1371 0.89583 0.0
C1905 C 0.97698 0.09657 0.89721 0.0
C1906 C 0.9971 0.09327 0.88212 0.0
C1907 C 0.99901 0.10479 0.85828 0.0
C1908 C 0.98062 0.1185 0.849 0.0
C1909 C 0.96069 0.12082 0.86406 0.0
C1910 C 0.95902 0.1106 0.88794 0.0
C1911 C 0.93569 0.11553 0.90026 0.0
C1912 C 0.9223 0.09287 0.90549 0.0
C1913 C 0.93869 0.1299 0.92489 0.0
C1914 C 0.92418 0.12964 0.87931 0.0
C1915 C 0.93881 0.13236 0.85854 0.0
C1916 C 0.93147 0.14341 0.83627 0.0
C1917 C 0.90879 0.15229 0.83535 0.0
C1918 C 0.89359 0.15054 0.85677 0.0
C1919 C 0.90164 0.13887 0.87898 0.0
H1920 H 0.88151 0.64013 0.65326 0.0
H1921 H 0.93869 0.66189 0.60497 0.0
H1922 H 0.92513 0.70274 0.60771 0.0
H1923 H 0.83983 0.67676 0.62421 0.0
H1924 H 0.82419 0.68246 0.65347 0.0
H1925 H 0.83998 0.65571 0.64979 0.0
H1926 H 0.86284 0.66468 0.69144 0.0
H1927 H 0.84726 0.69163 0.69506 0.0
H1928 H 0.87854 0.69169 0.6942 0.0
H1929 H 0.90427 0.74136 0.61499 0.0
H1930 H 0.87525 0.77284 0.6212 0.0
H1931 H 0.83091 0.72505 0.66244 0.0
C1932 C 0.8913 0.6536 0.64357 0.0
C1933 C 0.91125 0.64802 0.62912 0.0
C1934 C 0.92338 0.66592 0.61618 0.0
C1935 C 0.9159 0.68914 0.61779 0.0
C1936 C 0.89611 0.69412 0.63222 0.0
C1937 C 0.88382 0.67675 0.64459 0.0
C1938 C 0.86195 0.6862 0.65684 0.0
C1939 C 0.84021 0.6746 0.64539 0.0
C1940 C 0.86271 0.68338 0.68613 0.0
C1941 C 0.86366 0.71153 0.6492 0.0
C1942 C 0.8837 0.71595 0.63548 0.0
C1943 C 0.88859 0.73809 0.62584 0.0
C1944 C 0.87219 0.75591 0.62961 0.0
C1945 C 0.85107 0.7513 0.64244 0.0
C1946 C 0.84709 0.72898 0.65279 0.0
H1947 H 0.63558 0.62558 0.89403 0.0
H1948 H 0.61548 0.68269 0.8448 0.0
H1949 H 0.57431 0.67019 0.84763 0.0
H1950 H 0.59763 0.58429 0.86561 0.0
H1951 H 0.59154 0.56929 0.89518 0.0
H1952 H 0.61873 0.58424 0.89112 0.0
H1953 H 0.61062 0.60804 0.93236 0.0
H1954 H 0.58323 0.59331 0.93635 0.0
H1955 H 0.58417 0.6246 0.93489 0.0
H1956 H 0.53513 0.65063 0.85548 0.0
H1957 H 0.5027 0.62282 0.86264 0.0
H1958 H 0.54917 0.57754 0.90435 0.0
C1959 C 0.62241 0.63553 0.88408 0.0
C1960 C 0.62851 0.65517 0.86937 0.0
C1961 C 0.61101 0.66759 0.85617 0.0
C1962 C 0.58763 0.66071 0.85784 0.0
C1963 C 0.58211 0.64123 0.87256 0.0
C1964 C 0.5991 0.62863 0.88514 0.0
C1965 C 0.589 0.60724 0.89784 0.0
C1966 C 0.59986 0.58496 0.88676 0.0
C1967 C 0.59193 0.60838 0.9271 0.0
C1968 C 0.56374 0.60957 0.89023 0.0
C1969 C 0.55993 0.62953 0.87613 0.0
C1970 C 0.53793 0.63501 0.86659 0.0
C1971 C 0.51958 0.61929 0.87089 0.0
C1972 C 0.52353 0.59825 0.88414 0.0
C1973 C 0.54577 0.59366 0.89433 0.0
H1974 H 0.63131 0.37834 0.08906 0.0
H1975 H 0.6272 0.3923 0.17081 0.0
H1976 H 0.64605 0.35478 0.17962 0.0
H1977 H 0.62238 0.31644 0.09175 0.0
H1978 H 0.64326 0.31028 0.06693 0.0
H1979 H 0.62795 0.33757 0.06699 0.0
H1980 H 0.66709 0.35982 0.06668 0.0
H1981 H 0.6825 0.33262 0.06647 0.0
H1982 H 0.68834 0.35378 0.09114 0.0
H1983 H 0.66609 0.31544 0.17961 0.0
H1984 H 0.68808 0.27938 0.17031 0.0
H1985 H 0.68118 0.29256 0.08892 0.0
C1986 C 0.63446 0.37374 0.10886 0.0
C1987 C 0.62737 0.38846 0.12918 0.0
C1988 C 0.63178 0.38128 0.15478 0.0
C1989 C 0.64267 0.35998 0.16004 0.0
C1990 C 0.64935 0.34598 0.13955 0.0
C1991 C 0.6456 0.35269 0.11447 0.0
C1992 C 0.65544 0.33502 0.09587 0.0
C1993 C 0.6361 0.32419 0.07942 0.0
C1994 C 0.67447 0.34597 0.07906 0.0
C1995 C 0.66548 0.31744 0.1144 0.0
C1996 C 0.66155 0.32387 0.13953 0.0
C1997 C 0.66925 0.31025 0.15998 0.0
C1998 C 0.6816 0.28974 0.15456 0.0
C1999 C 0.68637 0.28323 0.12892 0.0
C2000 C 0.67795 0.29723 0.1087 0.0
H2001 H 0.9992 0.39957 0.39826 0.0
H2002 H 0.99227 0.47358 0.38388 0.0
H2003 H 0.95045 0.46781 0.37502 0.0
H2004 H 0.95887 0.37934 0.35126 0.0
H2005 H 0.94801 0.3563 0.37137 0.0
H2006 H 0.97743 0.36634 0.37508 0.0
H2007 H 0.96971 0.37445 0.4232 0.0
H2008 H 0.94022 0.36456 0.41962 0.0
H2009 H 0.94599 0.39314 0.43227 0.0
H2010 H 0.90871 0.45337 0.36817 0.0
H2011 H 0.87155 0.43191 0.36427 0.0
H2012 H 0.90636 0.36817 0.3861 0.0
C2013 C 0.98909 0.41476 0.39351 0.0
C2014 C 0.99931 0.43714 0.39204 0.0
C2015 C 0.9851 0.45623 0.38501 0.0
C2016 C 0.96124 0.45313 0.38009 0.0
C2017 C 0.95178 0.43086 0.38236 0.0
C2018 C 0.96536 0.41204 0.38893 0.0
C2019 C 0.95116 0.38994 0.39076 0.0
C2020 C 0.95936 0.37193 0.37093 0.0
C2021 C 0.95181 0.37994 0.41809 0.0
C2022 C 0.92733 0.39917 0.38422 0.0
C2023 C 0.92799 0.42278 0.37923 0.0
C2024 C 0.90806 0.43493 0.37215 0.0
C2025 C 0.88704 0.42261 0.36996 0.0
C2026 C 0.88604 0.39843 0.37512 0.0
C2027 C 0.90649 0.38671 0.38249 0.0
H2028 H 0.87123 0.39166 0.89308 0.0
H2029 H 0.93592 0.37215 0.8564 0.0
H2030 H 0.92008 0.33295 0.84775 0.0
H2031 H 0.8603 0.33725 0.92378 0.0
H2032 H 0.82936 0.33841 0.91882 0.0
H2033 H 0.84579 0.36492 0.92155 0.0
H2034 H 0.82981 0.3786 0.87764 0.0
H2035 H 0.81338 0.35208 0.87475 0.0
H2036 H 0.83346 0.36033 0.84986 0.0
H2037 H 0.89717 0.29507 0.84447 0.0
H2038 H 0.86945 0.26227 0.84716 0.0
H2039 H 0.8196 0.30768 0.88439 0.0
C2040 C 0.88211 0.37911 0.88334 0.0
C2041 C 0.90482 0.38498 0.87543 0.0
C2042 C 0.91839 0.36812 0.86243 0.0
C2043 C 0.90956 0.34579 0.85749 0.0
C2044 C 0.88706 0.3406 0.8655 0.0
C2045 C 0.87352 0.35684 0.87807 0.0
C2046 C 0.84993 0.34696 0.88477 0.0
C2047 C 0.84614 0.34688 0.91396 0.0
C2048 C 0.8305 0.36029 0.87092 0.0
C2049 C 0.85242 0.32253 0.87435 0.0
C2050 C 0.87389 0.31912 0.86325 0.0
C2051 C 0.88023 0.29763 0.85298 0.0
C2052 C 0.8643 0.2791 0.85444 0.0
C2053 C 0.84227 0.28217 0.86609 0.0
C2054 C 0.83632 0.30441 0.87572 0.0
H2055 H 0.90985 0.65403 0.1573 0.0
H2056 H 0.89118 0.6484 0.07682 0.0
H2057 H 0.92968 0.63189 0.06751 0.0
H2058 H 0.97131 0.66624 0.14932 0.0
H2059 H 0.97963 0.64819 0.176 0.0
H2060 H 0.95172 0.66231 0.17593 0.0
H2061 H 0.93128 0.62256 0.18226 0.0
H2062 H 0.95911 0.60841 0.18269 0.0
H2063 H 0.93722 0.5992 0.16018 0.0
H2064 H 0.97009 0.61359 0.06731 0.0
H2065 H 1.00607 0.5916 0.07741 0.0
H2066 H 0.9966 0.60681 0.15792 0.0
C2067 C 0.91361 0.64932 0.13766 0.0
C2068 C 0.89717 0.65291 0.11784 0.0
C2069 C 0.90341 0.64656 0.09242 0.0
C2070 C 0.92531 0.637 0.08689 0.0
C2071 C 0.94094 0.63365 0.10693 0.0
C2072 C 0.9352 0.63941 0.13186 0.0
C2073 C 0.95414 0.63221 0.15035 0.0
C2074 C 0.96483 0.65351 0.16368 0.0
C2075 C 0.94488 0.61454 0.17002 0.0
C2076 C 0.97124 0.6211 0.13203 0.0
C2077 C 0.96362 0.62248 0.10697 0.0
C2078 C 0.97628 0.61259 0.08686 0.0
C2079 C 0.99678 0.60032 0.09267 0.0
C2080 C 1.00412 0.59776 0.11837 0.0
C2081 C 0.99143 0.60879 0.13809 0.0
H2082 H 0.71178 0.72502 0.34746 0.0
H2083 H 0.65924 0.77437 0.37095 0.0
H2084 H 0.63029 0.74242 0.3732 0.0
H2085 H 0.67265 0.68643 0.30922 0.0
H2086 H 0.68802 0.66073 0.31925 0.0
H2087 H 0.70328 0.68795 0.3161 0.0
H2088 H 0.71745 0.68433 0.36304 0.0
H2089 H 0.70204 0.65732 0.36648 0.0
H2090 H 0.69643 0.6809 0.38837 0.0
H2091 H 0.60915 0.70407 0.37942 0.0
H2092 H 0.59649 0.6632 0.38517 0.0
H2093 H 0.66262 0.63914 0.35607 0.0
C2094 C 0.69401 0.72914 0.35245 0.0
C2095 C 0.68763 0.75211 0.35899 0.0
C2096 C 0.66431 0.75693 0.36553 0.0
C2097 C 0.64786 0.73887 0.36699 0.0
C2098 C 0.65499 0.71621 0.36137 0.0
C2099 C 0.67744 0.71141 0.35372 0.0
C2100 C 0.6812 0.68554 0.35017 0.0
C2101 C 0.6866 0.67983 0.32201 0.0
C2102 C 0.70041 0.6765 0.36809 0.0
C2103 C 0.65761 0.67633 0.35792 0.0
C2104 C 0.64267 0.69429 0.36424 0.0
C2105 C 0.62053 0.68996 0.37396 0.0
C2106 C 0.61351 0.66676 0.37725 0.0
C2107 C 0.62852 0.64823 0.37071 0.0
C2108 C 0.65072 0.65308 0.3607 0.0
H2109 H 0.64077 0.4171 0.61337 0.0
H2110 H 0.61703 0.34662 0.60006 0.0
H2111 H 0.57711 0.36105 0.59318 0.0
H2112 H 0.59381 0.43428 0.64972 0.0
H2113 H 0.59234 0.46359 0.63764 0.0
H2114 H 0.61953 0.44829 0.63745 0.0
H2115 H 0.62347 0.45522 0.58857 0.0
H2116 H 0.59629 0.47072 0.58863 0.0
H2117 H 0.60034 0.4463 0.56746 0.0
H2118 H 0.53901 0.38274 0.59242 0.0
H2119 H 0.5061 0.40981 0.59896 0.0
H2120 H 0.55485 0.46591 0.6127 0.0
C2121 C 0.62729 0.40484 0.6082 0.0
C2122 C 0.63197 0.38079 0.60704 0.0
C2123 C 0.61376 0.36514 0.60101 0.0
C2124 C 0.59107 0.37318 0.59695 0.0
C2125 C 0.58685 0.39695 0.59893 0.0
C2126 C 0.60449 0.41257 0.6043 0.0
C2127 C 0.59504 0.4369 0.60777 0.0
C2128 C 0.6005 0.4463 0.63475 0.0
C2129 C 0.60434 0.45325 0.58686 0.0
C2130 C 0.56931 0.4324 0.60439 0.0
C2131 C 0.56491 0.40934 0.59888 0.0
C2132 C 0.54228 0.40091 0.59636 0.0
C2133 C 0.52369 0.41639 0.60002 0.0
C2134 C 0.52787 0.43993 0.60646 0.0
C2135 C 0.55104 0.44799 0.60805 0.0
H2136 H 0.14316 0.37391 0.41312 0.0
H2137 H 0.13735 0.39144 0.33243 0.0
H2138 H 0.15427 0.3534 0.321 0.0
H2139 H 0.19856 0.34631 0.40818 0.0
H2140 H 0.19189 0.32463 0.432 0.0
H2141 H 0.17818 0.35269 0.43345 0.0
H2142 H 0.13777 0.3328 0.43319 0.0
H2143 H 0.15137 0.30466 0.43145 0.0
H2144 H 0.13041 0.31309 0.40757 0.0
H2145 H 0.17256 0.31296 0.31855 0.0
H2146 H 0.19329 0.27567 0.32576 0.0
H2147 H 0.18806 0.28611 0.40776 0.0
C2148 C 0.14564 0.36999 0.39302 0.0
C2149 C 0.13879 0.3858 0.37373 0.0
C2150 C 0.14207 0.37956 0.34764 0.0
C2151 C 0.15175 0.35798 0.34092 0.0
C2152 C 0.15816 0.34281 0.36048 0.0
C2153 C 0.15541 0.34868 0.38599 0.0
C2154 C 0.16447 0.32979 0.40345 0.0
C2155 C 0.18446 0.3389 0.42025 0.0
C2156 C 0.14483 0.31948 0.41988 0.0
C2157 C 0.17301 0.31246 0.38381 0.0
C2158 C 0.16901 0.32004 0.35909 0.0
C2159 C 0.17574 0.30686 0.33784 0.0
C2160 C 0.18733 0.28567 0.34206 0.0
C2161 C 0.19228 0.27813 0.36729 0.0
C2162 C 0.18462 0.29158 0.38828 0.0
H2163 H 0.47034 0.46027 0.12163 0.0
H2164 H 0.52004 0.40933 0.09447 0.0
H2165 H 0.48774 0.38155 0.08686 0.0
H2166 H 0.43685 0.42167 0.15735 0.0
H2167 H 0.40966 0.4359 0.15065 0.0
H2168 H 0.43621 0.45237 0.15047 0.0
H2169 H 0.42762 0.46616 0.10414 0.0
H2170 H 0.40096 0.44975 0.10419 0.0
H2171 H 0.42223 0.44494 0.07941 0.0
H2172 H 0.44939 0.35829 0.0858 0.0
H2173 H 0.40996 0.34197 0.09244 0.0
H2174 H 0.38685 0.40834 0.12227 0.0
C2175 C 0.47461 0.44333 0.11402 0.0
C2176 C 0.49787 0.43697 0.10886 0.0
C2177 C 0.50239 0.4147 0.09839 0.0
C2178 C 0.48414 0.3988 0.0941 0.0
C2179 C 0.46147 0.4055 0.10024 0.0
C2180 C 0.45677 0.42734 0.10991 0.0
C2181 C 0.4314 0.43006 0.11676 0.0
C2182 C 0.42837 0.4353 0.14551 0.0
C2183 C 0.41988 0.44884 0.10012 0.0
C2184 C 0.42247 0.40613 0.11004 0.0
C2185 C 0.43989 0.39223 0.10015 0.0
C2186 C 0.43565 0.36915 0.09332 0.0
C2187 C 0.41319 0.36004 0.09706 0.0
C2188 C 0.39536 0.37389 0.10789 0.0
C2189 C 0.40014 0.3973 0.11405 0.0
H2190 H 0.32 0.72356 0.87812 0.0
H2191 H 0.3703 0.77011 0.84333 0.0
H2192 H 0.39637 0.73661 0.83571 0.0
H2193 H 0.3605 0.69057 0.91253 0.0
H2194 H 0.34486 0.66362 0.90892 0.0
H2195 H 0.32939 0.69076 0.90873 0.0
H2196 H 0.31155 0.68041 0.86456 0.0
H2197 H 0.327 0.6532 0.86459 0.0
H2198 H 0.33043 0.67311 0.8382 0.0
H2199 H 0.41811 0.69734 0.83456 0.0
H2200 H 0.43344 0.65755 0.84168 0.0
H2201 H 0.36906 0.63837 0.87911 0.0
C2202 C 0.33643 0.72701 0.86889 0.0
C2203 C 0.34296 0.74978 0.86146 0.0
C2204 C 0.36464 0.75294 0.84901 0.0
C2205 C 0.37964 0.73397 0.84467 0.0
C2206 C 0.37275 0.71189 0.85286 0.0
C2207 C 0.3516 0.70845 0.86473 0.0
C2208 C 0.34862 0.68351 0.87332 0.0
C2209 C 0.34568 0.68204 0.9026 0.0
C2210 C 0.32819 0.67187 0.85932 0.0
C2211 C 0.37157 0.67337 0.86485 0.0
C2212 C 0.38522 0.68982 0.85275 0.0
C2213 C 0.40745 0.68436 0.84387 0.0
C2214 C 0.41599 0.6617 0.84788 0.0
C2215 C 0.40245 0.64488 0.86097 0.0
C2216 C 0.37985 0.65086 0.86914 0.0
H2217 H 0.12662 0.64898 0.66849 0.0
H2218 H 0.13636 0.65601 0.5864 0.0
H2219 H 0.09848 0.637 0.57895 0.0
H2220 H 0.10099 0.59308 0.6668 0.0
H2221 H 0.08077 0.59863 0.69245 0.0
H2222 H 0.10796 0.61403 0.69134 0.0
H2223 H 0.08597 0.6533 0.69251 0.0
H2224 H 0.05868 0.63799 0.69366 0.0
H2225 H 0.06393 0.65915 0.66886 0.0
H2226 H 0.05997 0.61595 0.58044 0.0
H2227 H 0.02478 0.59323 0.5908 0.0
H2228 H 0.04009 0.60029 0.67185 0.0
C2229 C 0.12062 0.64685 0.64896 0.0
C2230 C 0.13447 0.65402 0.62802 0.0
C2231 C 0.12616 0.65048 0.60274 0.0
C2232 C 0.1046 0.63983 0.59832 0.0
C2233 C 0.09147 0.63281 0.61937 0.0
C2234 C 0.09918 0.63615 0.64419 0.0
C2235 C 0.08221 0.62609 0.66342 0.0
C2236 C 0.09367 0.60681 0.67944 0.0
C2237 C 0.0721 0.64528 0.68063 0.0
C2238 C 0.06394 0.6163 0.64553 0.0
C2239 C 0.06945 0.62054 0.6202 0.0
C2240 C 0.0554 0.61268 0.60023 0.0
C2241 C 0.03534 0.59989 0.6063 0.0
C2242 C 0.0296 0.59492 0.63214 0.0
C2243 C 0.04405 0.60357 0.6519 0.0
H2244 H 0.16203 0.63122 0.12698 0.0
H2245 H 0.09712 0.65143 0.16294 0.0
H2246 H 0.11197 0.69142 0.16787 0.0
H2247 H 0.20036 0.66899 0.16423 0.0
H2248 H 0.21853 0.67547 0.13703 0.0
H2249 H 0.20372 0.64793 0.13891 0.0
H2250 H 0.18473 0.6556 0.09469 0.0
H2251 H 0.19944 0.68314 0.0927 0.0
H2252 H 0.16828 0.68187 0.08984 0.0
H2253 H 0.13321 0.73034 0.16612 0.0
H2254 H 0.15841 0.76422 0.15692 0.0
H2255 H 0.2086 0.71846 0.121 0.0
C2256 C 0.15088 0.64395 0.136 0.0
C2257 C 0.12835 0.63791 0.14464 0.0
C2258 C 0.11458 0.65529 0.15657 0.0
C2259 C 0.12283 0.67818 0.15932 0.0
C2260 C 0.14492 0.68356 0.1501 0.0
C2261 C 0.15874 0.66688 0.13871 0.0
C2262 C 0.18127 0.6773 0.12904 0.0
C2263 C 0.20221 0.6668 0.14315 0.0
C2264 C 0.18355 0.6743 0.09984 0.0
C2265 C 0.17779 0.70256 0.13627 0.0
C2266 C 0.15686 0.70584 0.14868 0.0
C2267 C 0.14971 0.72789 0.15659 0.0
C2268 C 0.16419 0.74705 0.15138 0.0
C2269 C 0.18549 0.74412 0.13816 0.0
C2270 C 0.19236 0.72144 0.13088 0.0
H2271 H 0.05355 0.45663 0.86224 0.0
H2272 H 1.00869 0.41289 0.90862 0.0
H2273 H 0.04175 0.38665 0.917 0.0
H2274 H 0.0843 0.4106 0.83223 0.0
H2275 H 0.11156 0.42599 0.83176 0.0
H2276 H 0.08469 0.4419 0.83087 0.0
H2277 H 0.09737 0.46534 0.87095 0.0
H2278 H 0.12427 0.44944 0.87201 0.0
H2279 H 0.10558 0.45006 0.89971 0.0
H2280 H 0.0801 0.36433 0.91903 0.0
H2281 H 0.11937 0.34762 0.91323 0.0
H2282 H 0.13811 0.40594 0.86479 0.0
C2283 C 0.05043 0.44153 0.87405 0.0
C2284 C 0.02828 0.43697 0.8847 0.0
C2285 C 0.02543 0.41705 0.90042 0.0
C2286 C 0.04413 0.40195 0.90523 0.0
C2287 C 0.06564 0.40696 0.89422 0.0
C2288 C 0.06879 0.42628 0.87891 0.0
C2289 C 0.09332 0.42752 0.86859 0.0
C2290 C 0.09346 0.42643 0.83912 0.0
C2291 C 0.10587 0.44939 0.87841 0.0
C2292 C 0.10349 0.40571 0.88021 0.0
C2293 C 0.08738 0.39413 0.89512 0.0
C2294 C 0.09285 0.37334 0.90747 0.0
C2295 C 0.11524 0.36404 0.90419 0.0
C2296 C 0.13184 0.37543 0.88853 0.0
C2297 C 0.12579 0.39668 0.87669 0.0
H2298 H 0.37888 0.38474 0.59661 0.0
H2299 H 0.43169 0.37217 0.65435 0.0
H2300 H 0.4153 0.33317 0.66206 0.0
H2301 H 0.33251 0.35566 0.62776 0.0
H2302 H 0.32051 0.34365 0.59872 0.0
H2303 H 0.33652 0.37052 0.59766 0.0
H2304 H 0.3643 0.35306 0.56366 0.0
H2305 H 0.34829 0.32617 0.56453 0.0
H2306 H 0.37912 0.32617 0.57042 0.0
H2307 H 0.39204 0.29544 0.6643 0.0
H2308 H 0.36481 0.26262 0.66018 0.0
H2309 H 0.32912 0.29936 0.59898 0.0
C2310 C 0.3873 0.37375 0.61063 0.0
C2311 C 0.40659 0.38182 0.62494 0.0
C2312 C 0.41666 0.36677 0.64341 0.0
C2313 C 0.40757 0.34443 0.64782 0.0
C2314 C 0.38848 0.33717 0.63348 0.0
C2315 C 0.37859 0.35135 0.61513 0.0
C2316 C 0.35817 0.33949 0.60231 0.0
C2317 C 0.3356 0.35315 0.6069 0.0
C2318 C 0.36275 0.33601 0.57353 0.0
C2319 C 0.35797 0.3165 0.61647 0.0
C2320 C 0.37553 0.31544 0.6344 0.0
C2321 C 0.37832 0.29606 0.65015 0.0
C2322 C 0.3627 0.27736 0.64757 0.0
C2323 C 0.34445 0.27802 0.62929 0.0
C2324 C 0.34244 0.29798 0.61345 0.0
H2325 H 0.39526 0.63335 0.35211 0.0
H2326 H 0.38819 0.65329 0.43181 0.0
H2327 H 0.42649 0.63539 0.44127 0.0
H2328 H 0.42432 0.57777 0.36348 0.0
H2329 H 0.44245 0.58092 0.33554 0.0
H2330 H 0.41395 0.59377 0.33609 0.0
H2331 H 0.43198 0.63396 0.3255 0.0
H2332 H 0.4605 0.62129 0.32512 0.0
H2333 H 0.45443 0.64556 0.34591 0.0
H2334 H 0.46787 0.61791 0.44046 0.0
H2335 H 0.50644 0.60146 0.42994 0.0
H2336 H 0.48413 0.59212 0.35111 0.0
C2337 C 0.40168 0.63378 0.37162 0.0
C2338 C 0.38889 0.64479 0.39122 0.0
C2339 C 0.39772 0.64481 0.41656 0.0
C2340 C 0.41946 0.63477 0.42205 0.0
C2341 C 0.43192 0.62451 0.40205 0.0
C2342 C 0.42309 0.62373 0.37741 0.0
C2343 C 0.43986 0.61237 0.35903 0.0
C2344 C 0.42953 0.58987 0.34789 0.0
C2345 C 0.44712 0.62931 0.33764 0.0
C2346 C 0.4598 0.60729 0.37695 0.0
C2347 C 0.45506 0.6143 0.40171 0.0
C2348 C 0.47159 0.61213 0.42115 0.0
C2349 C 0.49349 0.60269 0.415 0.0
C2350 C 0.49868 0.59556 0.3896 0.0
C2351 C 0.48126 0.59768 0.37062 0.0
H2352 H 0.27981 0.32101 0.05428 0.0
H2353 H 0.27167 0.39412 0.07288 0.0
H2354 H 0.25858 0.40196 0.02892 0.0
H2355 H 0.30224 0.32948 0.99168 0.0
H2356 H 0.28726 0.30538 0.97702 0.0
H2357 H 0.29431 0.30452 0.01065 0.0
H2358 H 0.25108 0.2975 0.02185 0.0
H2359 H 0.24393 0.29805 0.98822 0.0
H2360 H 0.22938 0.3174 0.01013 0.0
H2361 H 0.24949 0.40303 0.98324 0.0
H2362 H 0.24123 0.39694 0.93772 0.0
H2363 H 0.2543 0.32296 0.94654 0.0
C2364 C 0.27475 0.33852 0.04915 0.0
C2365 C 0.27675 0.35699 0.06697 0.0
C2366 C 0.2704 0.37976 0.0595 0.0
C2367 C 0.26293 0.3844 0.03457 0.0
C2368 C 0.26186 0.36609 0.01722 0.0
C2369 C 0.2673 0.34354 0.02406 0.0
C2370 C 0.26519 0.32739 1.00105 0.0
C2371 C 0.28865 0.31603 0.99474 0.0
C2372 C 0.24627 0.309 0.00559 0.0
C2373 C 0.25802 0.34452 0.9803 0.0
C2374 C 0.25628 0.36669 0.99028 0.0
C2375 C 0.25051 0.38572 0.9752 0.0
C2376 C 0.2459 0.38202 0.94926 0.0
C2377 C 0.24694 0.35944 0.93843 0.0
C2378 C 0.25334 0.34042 0.95419 0.0
H2379 H 0.95063 1.00547 0.20088 0.0
H2380 H 0.87775 0.98759 0.19208 0.0
H2381 H 0.87118 0.99581 0.23772 0.0
H2382 H 0.95762 0.98118 0.26488 0.0
H2383 H 0.97649 1.00414 0.27581 0.0
H2384 H 0.97602 0.99622 0.24238 0.0
H2385 H 0.96659 0.03879 0.23008 0.0
H2386 H 0.9672 0.04685 0.26343 0.0
H2387 H 0.94183 0.05292 0.24436 0.0
H2388 H 0.87169 1.00711 0.28335 0.0
H2389 H 0.87912 0.02239 0.32668 0.0
H2390 H 0.95173 0.0325 0.30746 0.0
C2391 C 0.93331 1.00328 0.20858 0.0
C2392 C 0.91472 0.99583 0.19283 0.0
C2393 C 0.89231 0.9932 0.20367 0.0
C2394 C 0.88838 0.99777 0.22964 0.0
C2395 C 0.90703 1.0049 0.24465 0.0
C2396 C 0.92905 1.00774 0.23462 0.0
C2397 C 0.94581 0.01628 0.25504 0.0
C2398 C 0.96513 0.99838 0.2598 0.0
C2399 C 0.95595 0.04013 0.24779 0.0
C2400 C 0.92964 0.01808 0.27794 0.0
C2401 C 0.90738 1.01128 0.27142 0.0
C2402 C 0.88906 1.01234 0.28876 0.0
C2403 C 0.89345 0.02105 0.31331 0.0
C2404 C 0.91599 0.02846 0.32039 0.0
C2405 C 0.93443 0.02655 0.30263 0.0
H2406 H 0.26735 0.70474 0.56381 0.0
H2407 H 0.19476 0.69278 0.54595 0.0
H2408 H 0.20453 0.689 0.50012 0.0
H2409 H 0.27871 0.74044 0.51029 0.0
H2410 H 0.3077 0.72978 0.50477 0.0
H2411 H 0.29557 0.72909 0.53656 0.0
H2412 H 0.30328 0.68479 0.53924 0.0
H2413 H 0.31558 0.68537 0.50749 0.0
H2414 H 0.29194 0.66589 0.51467 0.0
H2415 H 0.22161 0.6882 0.45628 0.0
H2416 H 0.24493 0.69163 0.41679 0.0
H2417 H 0.30626 0.70592 0.4626 0.0
C2418 C 0.25364 0.70088 0.55025 0.0
C2419 C 0.23034 0.6989 0.55834 0.0
C2420 C 0.21273 0.69437 0.54008 0.0
C2421 C 0.2181 0.69211 0.51404 0.0
C2422 C 0.24116 0.6946 0.50656 0.0
C2423 C 0.25867 0.69893 0.52406 0.0
C2424 C 0.28175 0.70243 0.51066 0.0
C2425 C 0.29149 0.72689 0.51588 0.0
C2426 C 0.29916 0.68349 0.51848 0.0
C2427 C 0.27436 0.69971 0.48294 0.0
C2428 C 0.25093 0.6949 0.48106 0.0
C2429 C 0.24001 0.69189 0.45748 0.0
C2430 C 0.25339 0.6939 0.43516 0.0
C2431 C 0.27738 0.69915 0.4366 0.0
C2432 C 0.28794 0.70201 0.46086 0.0
H2433 H 0.57949 1.00034 0.80721 0.0
H2434 H 0.65099 0.01531 0.8276 0.0
H2435 H 0.65856 0.02897 0.78367 0.0
H2436 H 0.59153 0.97791 0.74585 0.0
H2437 H 0.56641 0.99011 0.73029 0.0
H2438 H 0.56554 0.98364 0.76404 0.0
H2439 H 0.55406 0.02621 0.77399 0.0
H2440 H 0.55462 0.03276 0.74021 0.0
H2441 H 0.57193 0.04962 0.76219 0.0
H2442 H 0.65952 0.03806 0.73743 0.0
H2443 H 0.65331 0.04437 0.69135 0.0
H2444 H 0.58121 0.0234 0.6997 0.0
C2445 C 0.59653 1.00706 0.80252 0.0
C2446 C 0.61465 1.00688 0.82077 0.0
C2447 C 0.6369 0.01527 0.81385 0.0
C2448 C 0.64137 0.02308 0.78896 0.0
C2449 C 0.6234 0.02237 0.77117 0.0
C2450 C 0.60137 0.01478 0.77756 0.0
C2451 C 0.5856 0.01479 0.75424 0.0
C2452 C 0.57676 0.99015 0.74826 0.0
C2453 C 0.56535 0.03187 0.75788 0.0
C2454 C 0.60235 0.02326 0.7338 0.0
C2455 C 0.62401 0.02757 0.74411 0.0
C2456 C 0.64258 0.03498 0.72913 0.0
C2457 C 0.63887 0.03843 0.70292 0.0
C2458 C 0.61676 0.03446 0.69184 0.0
C2459 C 0.5983 0.02664 0.70756 0.0
H2460 H 0.79183 0.64169 0.05093 0.0
H2461 H 0.7585 0.70535 0.0766 0.0
H2462 H 0.74 0.70964 0.03461 0.0
H2463 H 0.80416 0.66053 0.98785 0.0
H2464 H 0.79796 0.63314 0.97252 0.0
H2465 H 0.80766 0.63373 0.00532 0.0
H2466 H 0.77119 0.61053 0.01915 0.0
H2467 H 0.76141 0.60982 0.98633 0.0
H2468 H 0.74278 0.62135 0.01101 0.0
H2469 H 0.72775 0.70948 0.98977 0.0
H2470 H 0.72089 0.70379 0.94366 0.0
H2471 H 0.76032 0.63959 0.94579 0.0
C2472 C 0.78041 0.65634 0.04778 0.0
C2473 C 0.77677 0.67324 0.06709 0.0
C2474 C 0.76178 0.69225 0.06214 0.0
C2475 C 0.75106 0.69483 0.03835 0.0
C2476 C 0.75527 0.67817 0.01965 0.0
C2477 C 0.7694 0.65919 0.02398 0.0
C2478 C 0.77145 0.64437 0.99997 0.0
C2479 C 0.79682 0.64287 0.99089 0.0
C2480 C 0.76108 0.62007 0.00438 0.0
C2481 C 0.75674 0.6584 0.98146 0.0
C2482 C 0.74758 0.67778 0.99339 0.0
C2483 C 0.73457 0.69425 0.98022 0.0
C2484 C 0.73092 0.69096 0.95402 0.0
C2485 C 0.74011 0.67131 0.94128 0.0
C2486 C 0.75288 0.65461 0.95523 0.0
H2487 H 0.06611 0.05659 0.79454 0.0
H2488 H 0.08269 0.99463 0.83836 0.0
H2489 H 0.08792 0.97273 0.79811 0.0
H2490 H 0.03406 0.02847 0.74481 0.0
H2491 H 0.04496 0.0469 0.7196 0.0
H2492 H 0.0429 0.05786 0.75185 0.0
H2493 H 0.08662 0.06846 0.75089 0.0
H2494 H 0.08885 0.05741 0.71866 0.0
H2495 H 0.10767 0.04632 0.74337 0.0
H2496 H 0.08951 0.95709 0.75354 0.0
H2497 H 0.0879 0.94867 0.70723 0.0
H2498 H 0.07206 0.02102 0.69174 0.0
C2499 C 0.07081 0.03841 0.7957 0.0
C2500 C 0.07386 0.02729 0.81966 0.0
C2501 C 0.0802 1.00352 0.82027 0.0
C2502 C 0.08326 0.99094 0.7975 0.0
C2503 C 0.08016 1.00242 0.77425 0.0
C2504 C 0.07418 0.02563 0.77313 0.0
C2505 C 0.07177 0.03373 0.74557 0.0
C2506 C 0.04695 0.04223 0.74015 0.0
C2507 C 0.08981 0.0526 0.73926 0.0
C2508 C 0.07697 1.01132 0.73138 0.0
C2509 C 0.08176 0.99351 0.74836 0.0
C2510 C 0.086 0.97093 0.74005 0.0
C2511 C 0.085 0.96632 0.71372 0.0
C2512 C 0.08001 0.98422 0.69594 0.0
C2513 C 0.0763 1.0071 0.70489 0.0
H2514 H 0.76759 0.38523 0.55431 0.0
H2515 H 0.74346 0.31421 0.56388 0.0
H2516 H 0.7485 0.30746 0.51751 0.0
H2517 H 0.74029 0.39587 0.49405 0.0
H2518 H 0.764 0.41279 0.48137 0.0
H2519 H 0.75885 0.41206 0.51541 0.0
H2520 H 0.80103 0.39809 0.52313 0.0
H2521 H 0.80639 0.39901 0.48914 0.0
H2522 H 0.81142 0.37254 0.50674 0.0
H2523 H 0.75499 0.30881 0.46986 0.0
H2524 H 0.76515 0.31723 0.42491 0.0
H2525 H 0.78584 0.38713 0.44662 0.0
C2526 C 0.7635 0.36818 0.54676 0.0
C2527 C 0.75498 0.35029 0.56281 0.0
C2528 C 0.74988 0.32825 0.55203 0.0
C2529 C 0.75266 0.32424 0.52568 0.0
C2530 C 0.76067 0.3424 0.51037 0.0
C2531 C 0.76622 0.36386 0.52054 0.0
C2532 C 0.77468 0.38039 0.49994 0.0
C2533 C 0.75848 0.40152 0.49756 0.0
C2534 C 0.79988 0.38794 0.50505 0.0
C2535 C 0.77301 0.36486 0.47658 0.0
C2536 C 0.76475 0.34307 0.48299 0.0
C2537 C 0.76159 0.32578 0.46463 0.0
C2538 C 0.76741 0.33075 0.43912 0.0
C2539 C 0.77645 0.3528 0.43218 0.0
C2540 C 0.77899 0.37011 0.45122 0.0
H2541 H 0.3996 1.00113 0.30944 0.0
H2542 H 0.47369 1.00349 0.3247 0.0
H2543 H 0.48085 0.01545 0.28009 0.0
H2544 H 0.4033 0.97825 0.24614 0.0
H2545 H 0.37982 0.99545 0.23348 0.0
H2546 H 0.38017 0.98776 0.26693 0.0
H2547 H 0.37734 0.03125 0.27942 0.0
H2548 H 0.37683 0.03908 0.24599 0.0
H2549 H 0.39838 0.05153 0.26697 0.0
H2550 H 0.48041 0.02474 0.2335 0.0
H2551 H 0.4722 0.03356 0.1882 0.0
H2552 H 0.39831 0.02679 0.20283 0.0
C2553 C 0.41731 1.00432 0.30345 0.0
C2554 C 0.43609 1.00133 0.32064 0.0
C2555 C 0.459 1.00573 0.31201 0.0
C2556 C 0.46327 1.01248 0.28665 0.0
C2557 C 0.44444 0.01498 0.27015 0.0
C2558 C 0.42189 1.01129 0.2782 0.0
C2559 C 0.40484 0.01519 0.25645 0.0
C2560 C 0.39124 0.99283 0.2504 0.0
C2561 C 0.38838 0.03547 0.26258 0.0
C2562 C 0.42138 0.02137 0.23488 0.0
C2563 C 0.44414 0.02101 0.24325 0.0
C2564 C 0.46265 0.02527 0.22675 0.0
C2565 C 0.45781 0.03014 0.20101 0.0
C2566 C 0.43462 0.03092 0.192 0.0
C2567 C 0.41618 0.02654 0.20924 0.0
H2568 H 0.77623 0.87736 0.55824 0.0
H2569 H 0.78091 0.80315 0.57212 0.0
H2570 H 0.77125 0.79558 0.52667 0.0
H2571 H 0.7274 0.87431 0.51458 0.0
H2572 H 0.738 0.89765 0.49474 0.0
H2573 H 0.74507 0.89697 0.52835 0.0
H2574 H 0.78886 0.89904 0.51701 0.0
H2575 H 0.78193 0.89945 0.48336 0.0
H2576 H 0.80118 0.87754 0.49587 0.0
H2577 H 0.76325 0.79634 0.47913 0.0
H2578 H 0.75362 0.80519 0.43399 0.0
H2579 H 0.75266 0.87884 0.45196 0.0
C2580 C 0.77514 0.85951 0.55173 0.0
C2581 C 0.77939 0.84082 0.5686 0.0
C2582 C 0.77759 0.8177 0.55949 0.0
C2583 C 0.77225 0.81325 0.53371 0.0
C2584 C 0.7685 0.83211 0.51747 0.0
C2585 C 0.76955 0.85476 0.52621 0.0
C2586 C 0.76441 0.87192 0.50499 0.0
C2587 C 0.74241 0.88604 0.51103 0.0
C2588 C 0.78534 0.88792 0.50002 0.0
C2589 C 0.76051 0.85539 0.48286 0.0
C2590 C 0.76314 0.83251 0.49038 0.0
C2591 C 0.76097 0.81418 0.47307 0.0
C2592 C 0.75564 0.81937 0.44747 0.0
C2593 C 0.75232 0.84268 0.43957 0.0
C2594 C 0.75491 0.86085 0.45752 0.0
H2595 H 0.39243 0.5276 0.805 0.0
H2596 H 0.46591 0.52007 0.82183 0.0
H2597 H 0.47297 0.50785 0.77723 0.0
H2598 H 0.38831 0.47781 0.7617 0.0
H2599 H 0.3681 0.49205 0.74054 0.0
H2600 H 0.36859 0.49935 0.77412 0.0
H2601 H 0.3748 0.5427 0.76255 0.0
H2602 H 0.37448 0.53552 0.72896 0.0
H2603 H 0.39892 0.55082 0.74243 0.0
H2604 H 0.47262 0.49882 0.73063 0.0
H2605 H 0.46467 0.49123 0.68509 0.0
H2606 H 0.39122 0.50355 0.69806 0.0
C2607 C 0.40998 0.52319 0.79938 0.0
C2608 C 0.42863 0.52482 0.81694 0.0
C2609 C 0.45132 0.51889 0.80879 0.0
C2610 C 0.45553 0.51197 0.78347 0.0
C2611 C 0.43684 0.51087 0.76658 0.0
C2612 C 0.41448 0.51609 0.77418 0.0
C2613 C 0.39758 0.51373 0.75203 0.0
C2614 C 0.37958 0.49459 0.75743 0.0
C2615 C 0.38575 0.53709 0.74615 0.0
C2616 C 0.41402 0.50669 0.73071 0.0
C2617 C 0.43658 0.50521 0.7396 0.0
C2618 C 0.45501 0.49976 0.72347 0.0
C2619 C 0.4503 0.49561 0.69757 0.0
C2620 C 0.42731 0.49681 0.68797 0.0
C2621 C 0.40893 0.50234 0.70486 0.0
H2622 H 0.71696 0.19717 0.02976 0.0
H2623 H 0.77575 0.1769 0.07685 0.0
H2624 H 0.79937 0.17146 0.03804 0.0
H2625 H 0.72943 0.1568 0.97601 0.0
H2626 H 0.72037 0.17751 0.95213 0.0
H2627 H 0.70722 0.17778 0.98348 0.0
H2628 H 0.71837 0.22116 0.98878 0.0
H2629 H 0.73159 0.22101 0.95753 0.0
H2630 H 0.74829 0.2298 0.9851 0.0
H2631 H 0.81792 0.17241 0.9951 0.0
H2632 H 0.82977 0.17801 0.95007 0.0
H2633 H 0.75895 0.19607 0.93006 0.0
C2634 C 0.73467 0.1912 0.03189 0.0
C2635 C 0.74447 0.18751 0.0564 0.0
C2636 C 0.7678 0.17989 0.05833 0.0
C2637 C 0.78139 0.17667 0.03637 0.0
C2638 C 0.77137 0.18089 0.01257 0.0
C2639 C 0.7485 0.18776 0.0101 0.0
C2640 C 0.74239 0.1922 0.98225 0.0
C2641 C 0.72375 0.17505 0.97292 0.0
C2642 C 0.73472 0.21755 0.97819 0.0
C2643 C 0.76561 0.18744 0.96961 0.0
C2644 C 0.78203 0.18084 0.98748 0.0
C2645 C 0.80515 0.17716 0.98084 0.0
C2646 C 0.81173 0.18048 0.95526 0.0
C2647 C 0.79523 0.18725 0.93663 0.0
C2648 C 0.77181 0.19042 0.94385 0.0
H2649 H 0.12766 0.50094 0.31597 0.0
H2650 H 0.0542 0.48943 0.32942 0.0
H2651 H 0.04614 0.4986 0.28384 0.0
H2652 H 0.12099 0.54933 0.27267 0.0
H2653 H 0.14527 0.5408 0.25302 0.0
H2654 H 0.14487 0.53351 0.28658 0.0
H2655 H 0.15056 0.49005 0.27507 0.0
H2656 H 0.15077 0.49717 0.24147 0.0
H2657 H 0.13039 0.47608 0.25359 0.0
H2658 H 0.04672 0.50741 0.23595 0.0
H2659 H 0.05526 0.5182 0.19114 0.0
H2660 H 0.1283 0.52499 0.2101 0.0
C2661 C 0.10983 0.50039 0.30941 0.0
C2662 C 0.09153 0.49438 0.32621 0.0
C2663 C 0.06846 0.49407 0.31689 0.0
C2664 C 0.06375 0.49915 0.29102 0.0
C2665 C 0.0823 0.50468 0.27489 0.0
C2666 C 0.10484 0.50558 0.28385 0.0
C2667 C 0.12171 0.51225 0.26285 0.0
C2668 C 0.13392 0.53535 0.26916 0.0
C2669 C 0.1394 0.49272 0.25796 0.0
C2670 C 0.10519 0.51489 0.24052 0.0
C2671 C 0.08256 0.5103 0.24775 0.0
C2672 C 0.06436 0.51121 0.23018 0.0
C2673 C 0.06941 0.51731 0.2047 0.0
C2674 C 0.09243 0.52264 0.19706 0.0
C2675 C 0.11049 0.52119 0.2153 0.0
H2676 H 0.31139 0.19642 0.53798 0.0
H2677 H 0.25209 0.17376 0.58297 0.0
H2678 H 0.22979 0.16758 0.54327 0.0
H2679 H 0.28015 0.228 0.49215 0.0
H2680 H 0.29808 0.21993 0.46528 0.0
H2681 H 0.31024 0.22062 0.49703 0.0
H2682 H 0.32329 0.17776 0.4922 0.0
H2683 H 0.31118 0.17694 0.46036 0.0
H2684 H 0.30219 0.15586 0.4839 0.0
H2685 H 0.21258 0.16783 0.49953 0.0
H2686 H 0.20196 0.17305 0.45409 0.0
H2687 H 0.27259 0.19393 0.43669 0.0
C2688 C 0.29383 0.18983 0.53948 0.0
C2689 C 0.28351 0.1856 0.56365 0.0
C2690 C 0.26042 0.17713 0.56474 0.0
C2691 C 0.2476 0.17351 0.54227 0.0
C2692 C 0.25816 0.1782 0.51881 0.0
C2693 C 0.2808 0.18598 0.5172 0.0
C2694 C 0.28763 0.19068 0.48959 0.0
C2695 C 0.29442 0.21633 0.4858 0.0
C2696 C 0.30724 0.17433 0.48101 0.0
C2697 C 0.26506 0.18496 0.47603 0.0
C2698 C 0.24834 0.17772 0.4933 0.0
C2699 C 0.22562 0.17309 0.48576 0.0
C2700 C 0.21973 0.17618 0.45995 0.0
C2701 C 0.23653 0.18364 0.44193 0.0
C2702 C 0.25958 0.18771 0.45001 0.0
H2703 H 0.63444 0.52175 0.30773 0.0
H2704 H 0.56044 0.525 0.32359 0.0
H2705 H 0.55213 0.51264 0.27943 0.0
H2706 H 0.63177 0.54406 0.2445 0.0
H2707 H 0.65385 0.5252 0.23164 0.0
H2708 H 0.65438 0.53305 0.26505 0.0
H2709 H 0.65426 0.48952 0.27778 0.0
H2710 H 0.65391 0.48152 0.24438 0.0
H2711 H 0.63174 0.47071 0.26567 0.0
H2712 H 0.55144 0.50262 0.23336 0.0
H2713 H 0.55844 0.49354 0.18797 0.0
H2714 H 0.63282 0.4958 0.2012 0.0
C2715 C 0.6165 0.51965 0.30198 0.0
C2716 C 0.5981 0.52443 0.31916 0.0
C2717 C 0.57486 0.52147 0.31085 0.0
C2718 C 0.56993 0.51445 0.28577 0.0
C2719 C 0.5884 0.51026 0.26924 0.0
C2720 C 0.61123 0.51254 0.27695 0.0
C2721 C 0.62775 0.50737 0.25503 0.0
C2722 C 0.64282 0.52869 0.24868 0.0
C2723 C 0.6428 0.486 0.26108 0.0
C2724 C 0.61058 0.50226 0.23372 0.0
C2725 C 0.588 0.50403 0.24245 0.0
C2726 C 0.56903 0.501 0.2263 0.0
C2727 C 0.5732 0.49599 0.20049 0.0
C2728 C 0.59616 0.49398 0.19102 0.0
C2729 C 0.61509 0.49702 0.20795 0.0
H2730 H 0.30768 0.8335 0.96659 0.0
H2731 H 0.24765 0.84709 0.91851 0.0
H2732 H 0.22338 0.85157 0.95711 0.0
H2733 H 0.27886 0.79966 0.01281 0.0
H2734 H 0.2949 0.81085 0.03979 0.0
H2735 H 0.308 0.81044 0.00849 0.0
H2736 H 0.31578 0.85473 0.01165 0.0
H2737 H 0.30264 0.85528 0.043 0.0
H2738 H 0.292 0.87421 0.01814 0.0
H2739 H 0.20503 0.85138 1.00033 0.0
H2740 H 0.19376 0.84699 0.04566 0.0
H2741 H 0.26572 0.83465 0.0661 0.0
C2742 C 0.28948 0.83764 0.96416 0.0
C2743 C 0.27956 0.83988 0.93949 0.0
C2744 C 0.25566 0.84526 0.93718 0.0
C2745 C 0.24173 0.84791 0.959 0.0
C2746 C 0.252 0.84536 0.98299 0.0
C2747 C 0.27534 0.84048 0.98575 0.0
C2748 C 0.28182 0.83768 0.01374 0.0
C2749 C 0.29145 0.8132 0.019 0.0
C2750 C 0.29908 0.85661 0.02212 0.0
C2751 C 0.25833 0.84113 0.02622 0.0
C2752 C 0.24142 0.84569 0.00811 0.0
C2753 C 0.21815 0.84812 0.01473 0.0
C2754 C 0.21191 0.84553 0.0405 0.0
C2755 C 0.22889 0.84062 0.05936 0.0
C2756 C 0.25245 0.8388 0.05214 0.0
H2757 H 0.95088 0.52856 0.70542 0.0
H2758 H 0.87681 0.53516 0.69164 0.0
H2759 H 0.86898 0.52447 0.73649 0.0
H2760 H 0.9474 0.47919 0.74761 0.0
H2761 H 0.97033 0.48907 0.76846 0.0
H2762 H 0.9703 0.49736 0.73517 0.0
H2763 H 0.97201 0.54076 0.74828 0.0
H2764 H 0.97198 0.5326 0.78162 0.0
H2765 H 0.95024 0.5523 0.7696 0.0
H2766 H 0.86884 0.51252 0.78223 0.0
H2767 H 0.87645 0.49981 0.82652 0.0
H2768 H 0.9506 0.50159 0.81167 0.0
C2769 C 0.93302 0.52771 0.71184 0.0
C2770 C 0.91445 0.53272 0.69498 0.0
C2771 C 0.89134 0.5315 0.70417 0.0
C2772 C 0.88669 0.52543 0.72964 0.0
C2773 C 0.90533 0.52073 0.74577 0.0
C2774 C 0.92804 0.5218 0.73733 0.0
C2775 C 0.94482 0.51586 0.75876 0.0
C2776 C 0.95905 0.49408 0.7521 0.0
C2777 C 0.9607 0.53662 0.76493 0.0
C2778 C 0.92794 0.51115 0.78047 0.0
C2779 C 0.90526 0.51407 0.77247 0.0
C2780 C 0.88652 0.51021 0.78876 0.0
C2781 C 0.89103 0.50294 0.81386 0.0
C2782 C 0.9141 0.49972 0.82252 0.0
C2783 C 0.9328 0.50412 0.80564 0.0
H2784 H 0.24261 0.40399 0.11601 0.0
H2785 H 0.2328 0.40163 0.19833 0.0
H2786 H 0.20001 0.42902 0.19461 0.0
H2787 H 0.23122 0.4649 0.10941 0.0
H2788 H 0.21629 0.4624 0.07917 0.0
H2789 H 0.23804 0.44137 0.08785 0.0
H2790 H 0.20839 0.40813 0.08139 0.0
H2791 H 0.1865 0.42903 0.07262 0.0
H2792 H 0.18115 0.40889 0.0984 0.0
H2793 H 0.16887 0.45736 0.18241 0.0
H2794 H 0.14241 0.48583 0.16288 0.0
H2795 H 0.17214 0.47127 0.0881 0.0
C2796 C 0.2333 0.40902 0.13315 0.0
C2797 C 0.24026 0.40054 0.15751 0.0
C2798 C 0.22791 0.40793 0.17954 0.0
C2799 C 0.20917 0.42343 0.17759 0.0
C2800 C 0.20293 0.43168 0.15344 0.0
C2801 C 0.21464 0.42484 0.13158 0.0
C2802 C 0.20497 0.43729 0.10814 0.0
C2803 C 0.22375 0.45238 0.0954 0.0
C2804 C 0.19463 0.41979 0.08901 0.0
C2805 C 0.1861 0.45222 0.12029 0.0
C2806 C 0.18515 0.4485 0.14642 0.0
C2807 C 0.16937 0.4603 0.16193 0.0
C2808 C 0.15422 0.4764 0.15056 0.0
C2809 C 0.15485 0.48086 0.12382 0.0
C2810 C 0.17112 0.46844 0.10856 0.0
H2811 H 0.87051 0.9975 0.36779 0.0
H2812 H 0.86687 0.99008 0.45033 0.0
H2813 H 0.8392 0.95751 0.4453 0.0
H2814 H 0.81 0.98687 0.35635 0.0
H2815 H 0.81444 0.97119 0.32684 0.0
H2816 H 0.83505 0.99297 0.33673 0.0
H2817 H 0.8682 0.96287 0.33397 0.0
H2818 H 0.84777 0.94091 0.32402 0.0
H2819 H 0.86593 0.93602 0.35161 0.0
H2820 H 0.81186 0.92579 0.43143 0.0
H2821 H 0.78497 0.89867 0.41001 0.0
H2822 H 0.80454 0.9272 0.33613 0.0
C2823 C 0.86407 0.98879 0.38475 0.0
C2824 C 0.87098 0.99626 0.40951 0.0
C2825 C 0.86179 0.98474 0.43125 0.0
C2826 C 0.84613 0.96615 0.42854 0.0
C2827 C 0.83953 0.95934 0.40393 0.0
C2828 C 0.84806 0.9704 0.38238 0.0
C2829 C 0.83724 0.96031 0.3582 0.0
C2830 C 0.82336 0.97895 0.34368 0.0
C2831 C 0.8559 0.94938 0.34093 0.0
C2832 C 0.8213 0.94187 0.36953 0.0
C2833 C 0.82313 0.94149 0.39594 0.0
C2834 C 0.81032 0.92593 0.41076 0.0
C2835 C 0.79516 0.91045 0.39837 0.0
C2836 C 0.79261 0.91062 0.37133 0.0
C2837 C 0.80595 0.92666 0.3568 0.0
H2838 H 0.27134 0.59531 0.6435 0.0
H2839 H 0.31273 0.65748 0.63246 0.0
H2840 H 0.34638 0.63323 0.62027 0.0
H2841 H 0.31676 0.55951 0.67016 0.0
H2842 H 0.30724 0.53345 0.6541 0.0
H2843 H 0.28654 0.55571 0.66221 0.0
H2844 H 0.27363 0.55796 0.61472 0.0
H2845 H 0.29431 0.53573 0.60647 0.0
H2846 H 0.29502 0.56335 0.5902 0.0
H2847 H 0.37603 0.60189 0.61034 0.0
H2848 H 0.39847 0.56619 0.60114 0.0
H2849 H 0.33755 0.52444 0.61749 0.0
C2850 C 0.28752 0.60382 0.6387 0.0
C2851 C 0.28935 0.62838 0.63902 0.0
C2852 C 0.31079 0.63878 0.63216 0.0
C2853 C 0.33006 0.62511 0.62534 0.0
C2854 C 0.32765 0.60099 0.62524 0.0
C2855 C 0.30687 0.59043 0.63157 0.0
C2856 C 0.30873 0.56418 0.6294 0.0
C2857 C 0.30457 0.55253 0.65552 0.0
C2858 C 0.29192 0.55476 0.60898 0.0
C2859 C 0.33381 0.5616 0.62094 0.0
C2860 C 0.34449 0.58303 0.61884 0.0
C2861 C 0.36779 0.58503 0.61183 0.0
C2862 C 0.38045 0.56465 0.60676 0.0
C2863 C 0.36981 0.54249 0.60844 0.0
C2864 C 0.34613 0.5411 0.61564 0.0
H2865 H 0.68863 0.0234 0.88809 0.0
H2866 H 0.6284 0.06608 0.90414 0.0
H2867 H 0.65039 0.1011 0.89093 0.0
H2868 H 0.7323 0.06398 0.90968 0.0
H2869 H 0.75253 0.05681 0.88453 0.0
H2870 H 0.73215 0.03532 0.8957 0.0
H2871 H 0.71704 0.02979 0.84935 0.0
H2872 H 0.73729 0.05134 0.83803 0.0
H2873 H 0.70671 0.05462 0.83168 0.0
H2874 H 0.67954 0.1317 0.8769 0.0
H2875 H 0.71266 0.15514 0.86143 0.0
H2876 H 0.75367 0.09247 0.85294 0.0
C2877 C 0.68015 0.04015 0.88912 0.0
C2878 C 0.65679 0.04201 0.89746 0.0
C2879 C 0.64621 0.06422 0.89785 0.0
C2880 C 0.65861 0.08421 0.89043 0.0
C2881 C 0.68158 0.08174 0.88231 0.0
C2882 C 0.6922 0.06024 0.88144 0.0
C2883 C 0.71686 0.06226 0.87131 0.0
C2884 C 0.7345 0.05411 0.89151 0.0
C2885 C 0.71963 0.0487 0.84609 0.0
C2886 C 0.71858 0.08829 0.86686 0.0
C2887 C 0.69806 0.09922 0.87345 0.0
C2888 C 0.69563 0.12327 0.87161 0.0
C2889 C 0.7146 0.13648 0.86289 0.0
C2890 C 0.73581 0.12573 0.85586 0.0
C2891 C 0.73764 0.10123 0.85779 0.0
H2892 H 0.18668 0.52668 0.40192 0.0
H2893 H 0.12392 0.56481 0.38416 0.0
H2894 H 0.1478 0.59748 0.36754 0.0
H2895 H 0.22095 0.57444 0.42286 0.0
H2896 H 0.24745 0.5639 0.40866 0.0
H2897 H 0.22534 0.54367 0.41854 0.0
H2898 H 0.22421 0.52626 0.37275 0.0
H2899 H 0.24637 0.54642 0.36273 0.0
H2900 H 0.21914 0.54513 0.34576 0.0
H2901 H 0.17935 0.6272 0.3557 0.0
H2902 H 0.21511 0.64961 0.34622 0.0
H2903 H 0.25692 0.59086 0.3698 0.0
C2904 C 0.17794 0.54192 0.39456 0.0
C2905 C 0.1534 0.54332 0.39458 0.0
C2906 C 0.14265 0.56337 0.38429 0.0
C2907 C 0.15611 0.58201 0.37493 0.0
C2908 C 0.18031 0.58018 0.37556 0.0
C2909 C 0.19107 0.56044 0.38481 0.0
C2910 C 0.21729 0.5625 0.38313 0.0
C2911 C 0.2284 0.56105 0.40989 0.0
C2912 C 0.22734 0.54398 0.36501 0.0
C2913 C 0.21973 0.58666 0.37188 0.0
C2914 C 0.19823 0.59668 0.36779 0.0
C2915 C 0.19621 0.61936 0.35858 0.0
C2916 C 0.21661 0.63201 0.35336 0.0
C2917 C 0.23881 0.62194 0.35703 0.0
C2918 C 0.24023 0.59889 0.36634 0.0
H2919 H 0.66065 0.99094 0.64218 0.0
H2920 H 0.65425 0.97427 0.56146 0.0
H2921 H 0.68223 0.94218 0.56671 0.0
H2922 H 0.72179 0.98063 0.64625 0.0
H2923 H 0.72094 0.96818 0.67793 0.0
H2924 H 0.69928 0.98901 0.66841 0.0
H2925 H 0.66678 0.95967 0.67969 0.0
H2926 H 0.68834 0.93875 0.68934 0.0
H2927 H 0.6671 0.93114 0.66539 0.0
H2928 H 0.71153 0.91254 0.58015 0.0
H2929 H 0.7411 0.8879 0.60055 0.0
H2930 H 0.72981 0.92349 0.67287 0.0
C2931 C 0.66492 0.98028 0.62575 0.0
C2932 C 0.65518 0.9851 0.60137 0.0
C2933 C 0.66156 0.97104 0.58022 0.0
C2934 C 0.67738 0.95268 0.58306 0.0
C2935 C 0.6869 0.94856 0.60718 0.0
C2936 C 0.681 0.96196 0.62819 0.0
C2937 C 0.69464 0.95435 0.65172 0.0
C2938 C 0.71008 0.97423 0.66165 0.0
C2939 C 0.67823 0.94544 0.67278 0.0
C2940 C 0.70916 0.9347 0.64058 0.0
C2941 C 0.70421 0.93159 0.6149 0.0
C2942 C 0.71541 0.91471 0.6003 0.0
C2943 C 0.73214 0.90063 0.61216 0.0
C2944 C 0.73777 0.90345 0.63846 0.0
C2945 C 0.72602 0.92083 0.65277 0.0
H2946 H 0.3374 0.5054 0.88657 0.0
H2947 H 0.39938 0.46388 0.89742 0.0
H2948 H 0.37723 0.42847 0.88589 0.0
H2949 H 0.29648 0.46409 0.91206 0.0
H2950 H 0.27426 0.47092 0.88895 0.0
H2951 H 0.29504 0.49276 0.89822 0.0
H2952 H 0.30642 0.49859 0.85061 0.0
H2953 H 0.28573 0.4767 0.8412 0.0
H2954 H 0.31575 0.47393 0.83194 0.0
H2955 H 0.34747 0.39716 0.87419 0.0
H2956 H 0.31352 0.3733 0.86161 0.0
H2957 H 0.2714 0.43559 0.85746 0.0
C2958 C 0.34631 0.48886 0.88676 0.0
C2959 C 0.37019 0.48748 0.89311 0.0
C2960 C 0.38119 0.46545 0.89254 0.0
C2961 C 0.3687 0.44522 0.8861 0.0
C2962 C 0.34518 0.44722 0.87999 0.0
C2963 C 0.33415 0.46854 0.88012 0.0
C2964 C 0.30887 0.46611 0.87237 0.0
C2965 C 0.29271 0.47393 0.8942 0.0
C2966 C 0.30391 0.47963 0.84755 0.0
C2967 C 0.30728 0.44008 0.86802 0.0
C2968 C 0.32837 0.42944 0.87263 0.0
C2969 C 0.33094 0.40539 0.87043 0.0
C2970 C 0.31152 0.39194 0.86336 0.0
C2971 C 0.28976 0.40248 0.85832 0.0
C2972 C 0.28781 0.42695 0.86069 0.0
H2973 H 0.84107 0.02467 0.11493 0.0
H2974 H 0.90298 0.06751 0.11256 0.0
H2975 H 0.87943 0.10206 0.12354 0.0
H2976 H 0.80154 0.06659 0.08782 0.0
H2977 H 0.77769 0.0586 0.10837 0.0
H2978 H 0.79938 0.03737 0.10005 0.0
H2979 H 0.80707 0.0297 0.14821 0.0
H2980 H 0.78544 0.05095 0.15668 0.0
H2981 H 0.81459 0.05365 0.16891 0.0
H2982 H 0.84876 0.13226 0.1335 0.0
H2983 H 0.81384 0.1554 0.14377 0.0
H2984 H 0.77186 0.09288 0.1413 0.0
C2985 C 0.84964 0.04135 0.1165 0.0
C2986 C 0.87393 0.04338 0.1127 0.0
C2987 C 0.88449 0.06549 0.11548 0.0
C2988 C 0.87121 0.08523 0.12162 0.0
C2989 C 0.84734 0.08262 0.12524 0.0
C2990 C 0.83666 0.0612 0.12297 0.0
C2991 C 0.8108 0.06306 0.1284 0.0
C2992 C 0.79651 0.05599 0.10475 0.0
C2993 C 0.80409 0.04847 0.15195 0.0
C2994 C 0.80855 0.0889 0.13388 0.0
C2995 C 0.82982 0.09987 0.13179 0.0
C2996 C 0.83206 0.1238 0.13529 0.0
C2997 C 0.81209 0.13684 0.14101 0.0
C2998 C 0.79009 0.12602 0.14346 0.0
C2999 C 0.78844 0.10164 0.13994 0.0
H3000 H 0.86705 0.53514 0.86986 0.0
H3001 H 0.87392 0.55467 0.94972 0.0
H3002 H 0.84609 0.58681 0.94316 0.0
H3003 H 0.86053 0.59359 0.84362 0.0
H3004 H 0.83895 0.58511 0.82041 0.0
H3005 H 0.86044 0.56445 0.83088 0.0
H3006 H 0.8279 0.53593 0.84423 0.0
H3007 H 0.80627 0.55646 0.83385 0.0
H3008 H 0.80568 0.54547 0.86618 0.0
H3009 H 0.81753 0.61668 0.9282 0.0
H3010 H 0.78815 0.64084 0.90671 0.0
H3011 H 0.79757 0.60134 0.83664 0.0
C3012 C 0.86285 0.54641 0.88582 0.0
C3013 C 0.87276 0.54253 0.91031 0.0
C3014 C 0.8665 0.5573 0.93088 0.0
C3015 C 0.85079 0.57566 0.92729 0.0
C3016 C 0.84118 0.57893 0.90303 0.0
C3017 C 0.84679 0.56463 0.88266 0.0
C3018 C 0.83295 0.57126 0.85893 0.0
C3019 C 0.84919 0.57907 0.83718 0.0
C3020 C 0.81727 0.55107 0.8503 0.0
C3021 C 0.8187 0.5915 0.86916 0.0
C3022 C 0.82399 0.59574 0.89458 0.0
C3023 C 0.8133 0.61355 0.90829 0.0
C3024 C 0.79668 0.62731 0.89583 0.0
C3025 C 0.79056 0.62317 0.86989 0.0
C3026 C 0.80181 0.60493 0.85646 0.0
H3027 H 0.16971 0.05394 0.58783 0.0
H3028 H 0.14449 0.03309 0.66272 0.0
H3029 H 0.17267 0.05949 0.68321 0.0
H3030 H 0.23009 0.0587 0.60488 0.0
H3031 H 0.23546 0.08401 0.58541 0.0
H3032 H 0.21311 0.06368 0.57639 0.0
H3033 H 0.18294 0.097 0.57588 0.0
H3034 H 0.20522 0.11743 0.58491 0.0
H3035 H 0.17927 0.11482 0.60401 0.0
H3036 H 0.20478 0.08668 0.69588 0.0
H3037 H 0.23732 0.11442 0.69983 0.0
H3038 H 0.24144 0.1195 0.61708 0.0
C3039 C 0.17015 0.05492 0.60853 0.0
C3040 C 0.15473 0.04136 0.62363 0.0
C3041 C 0.15579 0.0434 0.65068 0.0
C3042 C 0.17188 0.0583 0.66253 0.0
C3043 C 0.18679 0.07135 0.64715 0.0
C3044 C 0.18599 0.07 0.62073 0.0
C3045 C 0.20393 0.08615 0.60876 0.0
C3046 C 0.2217 0.0723 0.59292 0.0
C3047 C 0.19213 0.10496 0.59242 0.0
C3048 C 0.21507 0.09659 0.63258 0.0
C3049 C 0.20495 0.08765 0.65449 0.0
C3050 C 0.21272 0.09389 0.67884 0.0
C3051 C 0.2313 0.1096 0.68091 0.0
C3052 C 0.24192 0.11921 0.65883 0.0
C3053 C 0.23349 0.11269 0.63432 0.0
H3054 H 0.67566 0.48239 0.42097 0.0
H3055 H 0.62806 0.48487 0.35658 0.0
H3056 H 0.65057 0.4544 0.33476 0.0
H3057 H 0.72714 0.47468 0.38466 0.0
H3058 H 0.74069 0.4548 0.40675 0.0
H3059 H 0.72007 0.47584 0.4183 0.0
H3060 H 0.6955 0.44285 0.43842 0.0
H3061 H 0.71611 0.42171 0.42697 0.0
H3062 H 0.68587 0.41905 0.4186 0.0
H3063 H 0.68003 0.4262 0.318 0.0
H3064 H 0.71327 0.40036 0.30869 0.0
H3065 H 0.74144 0.41416 0.38415 0.0
C3066 C 0.66983 0.47628 0.40243 0.0
C3067 C 0.64984 0.48597 0.3907 0.0
C3068 C 0.64291 0.47752 0.36632 0.0
C3069 C 0.65573 0.46026 0.35363 0.0
C3070 C 0.6754 0.45127 0.36559 0.0
C3071 C 0.68232 0.45876 0.38957 0.0
C3072 C 0.70447 0.44645 0.39782 0.0
C3073 C 0.72426 0.46399 0.40213 0.0
C3074 C 0.70022 0.43163 0.42188 0.0
C3075 C 0.70912 0.43125 0.37453 0.0
C3076 C 0.69213 0.4344 0.35615 0.0
C3077 C 0.69326 0.42336 0.33239 0.0
C3078 C 0.71223 0.40879 0.32721 0.0
C3079 C 0.72979 0.4051 0.34574 0.0
C3080 C 0.72803 0.41633 0.36983 0.0
H3081 H 0.35674 0.97391 0.08326 0.0
H3082 H 0.38544 0.9896 0.15825 0.0
H3083 H 0.35902 0.96105 0.17778 0.0
H3084 H 0.29762 0.96729 0.10391 0.0
H3085 H 0.29114 0.94356 0.0825 0.0
H3086 H 0.31294 0.96462 0.07392 0.0
H3087 H 0.34299 0.93161 0.06812 0.0
H3088 H 0.32127 0.91044 0.07674 0.0
H3089 H 0.34827 0.9117 0.09414 0.0
H3090 H 0.32834 0.93247 0.1899 0.0
H3091 H 0.29572 0.90487 0.19369 0.0
H3092 H 0.28642 0.90615 0.11129 0.0
C3093 C 0.35751 0.97132 0.10377 0.0
C3094 C 0.37349 0.98404 0.11911 0.0
C3095 C 0.37383 0.97992 0.14591 0.0
C3096 C 0.35873 0.96377 0.15726 0.0
C3097 C 0.34328 0.9516 0.14167 0.0
C3098 C 0.34257 0.95505 0.11549 0.0
C3099 C 0.32394 0.93978 0.10332 0.0
C3100 C 0.30531 0.9547 0.09014 0.0
C3101 C 0.33477 0.92235 0.08446 0.0
C3102 C 0.31417 0.92746 0.1268 0.0
C3103 C 0.32565 0.93466 0.14868 0.0
C3104 C 0.31934 0.9266 0.17287 0.0
C3105 C 0.30072 0.91097 0.17486 0.0
C3106 C 0.28854 0.90328 0.15284 0.0
C3107 C 0.29561 0.91146 0.12841 0.0
H3108 H 0.77227 0.43946 0.63956 0.0
H3109 H 0.81279 0.37816 0.65767 0.0
H3110 H 0.84888 0.39991 0.64791 0.0
H3111 H 0.80687 0.45832 0.58673 0.0
H3112 H 0.80365 0.48882 0.59377 0.0
H3113 H 0.78122 0.46865 0.60293 0.0
H3114 H 0.78424 0.48254 0.65005 0.0
H3115 H 0.80657 0.50288 0.64101 0.0
H3116 H 0.812 0.48195 0.66599 0.0
H3117 H 0.88081 0.429 0.63621 0.0
H3118 H 0.90536 0.46216 0.62281 0.0
H3119 H 0.84362 0.50408 0.6119 0.0
C3120 C 0.78871 0.43064 0.64189 0.0
C3121 C 0.78961 0.40705 0.64967 0.0
C3122 C 0.81159 0.39614 0.65173 0.0
C3123 C 0.83219 0.4084 0.64628 0.0
C3124 C 0.83062 0.43159 0.63857 0.0
C3125 C 0.80939 0.44256 0.63633 0.0
C3126 C 0.8123 0.46741 0.62712 0.0
C3127 C 0.8003 0.471 0.60109 0.0
C3128 C 0.80324 0.48471 0.64724 0.0
C3129 C 0.83849 0.46882 0.62457 0.0
C3130 C 0.84879 0.44803 0.63136 0.0
C3131 C 0.87286 0.44532 0.63084 0.0
C3132 C 0.88671 0.46431 0.62328 0.0
C3133 C 0.87654 0.4858 0.61614 0.0
C3134 C 0.85203 0.48787 0.6168 0.0
H3135 H 0.27737 0.08615 0.35752 0.0
H3136 H 0.31803 0.14932 0.36428 0.0
H3137 H 0.35201 0.12623 0.3778 0.0
H3138 H 0.30141 0.05763 0.41265 0.0
H3139 H 0.3012 0.02909 0.3984 0.0
H3140 H 0.28023 0.05046 0.38846 0.0
H3141 H 0.29342 0.04562 0.34129 0.0
H3142 H 0.31436 0.02416 0.35109 0.0
H3143 H 0.32364 0.04933 0.33325 0.0
H3144 H 0.38198 0.09602 0.39029 0.0
H3145 H 0.40486 0.06133 0.4023 0.0
H3146 H 0.34466 0.01778 0.38845 0.0
C3147 C 0.29348 0.0951 0.36159 0.0
C3148 C 0.29496 0.11964 0.35977 0.0
C3149 C 0.31633 0.13063 0.36573 0.0
C3150 C 0.3358 0.11763 0.37332 0.0
C3151 C 0.33372 0.09353 0.37507 0.0
C3152 C 0.31307 0.08236 0.36947 0.0
C3153 C 0.31532 0.05631 0.37355 0.0
C3154 C 0.29854 0.04789 0.39451 0.0
C3155 C 0.31146 0.04308 0.34829 0.0
C3156 C 0.34042 0.05458 0.3823 0.0
C3157 C 0.35078 0.07624 0.38287 0.0
C3158 C 0.37399 0.079 0.38995 0.0
C3159 C 0.38691 0.05916 0.39666 0.0
C3160 C 0.37663 0.03677 0.39651 0.0
C3161 C 0.353 0.03462 0.3892 0.0
H3162 H 0.74312 0.62049 0.11567 0.0
H3163 H 0.73271 0.6199 0.19803 0.0
H3164 H 0.70062 0.59202 0.19292 0.0
H3165 H 0.68174 0.61595 0.09814 0.0
H3166 H 0.68702 0.59701 0.07124 0.0
H3167 H 0.7089 0.61759 0.08104 0.0
H3168 H 0.73866 0.5842 0.08548 0.0
H3169 H 0.71689 0.5635 0.07578 0.0
H3170 H 0.73197 0.55972 0.10575 0.0
H3171 H 0.67034 0.56349 0.17952 0.0
H3172 H 0.64373 0.53601 0.15869 0.0
H3173 H 0.67246 0.55448 0.08443 0.0
C3174 C 0.7339 0.61467 0.13257 0.0
C3175 C 0.74064 0.62241 0.15732 0.0
C3176 C 0.72823 0.61409 0.17894 0.0
C3177 C 0.70982 0.5983 0.17622 0.0
C3178 C 0.70384 0.59081 0.15171 0.0
C3179 C 0.71543 0.59868 0.13021 0.0
C3180 C 0.70568 0.58726 0.10616 0.0
C3181 C 0.69521 0.60555 0.08808 0.0
C3182 C 0.72442 0.57281 0.09249 0.0
C3183 C 0.6869 0.57173 0.11758 0.0
C3184 C 0.68617 0.5742 0.1439 0.0
C3185 C 0.67062 0.56158 0.15889 0.0
C3186 C 0.65537 0.54605 0.14676 0.0
C3187 C 0.65557 0.54307 0.11975 0.0
C3188 C 0.67172 0.55619 0.10506 0.0
H3189 H 0.18893 1.01032 0.88796 0.0
H3190 H 0.12787 0.96634 0.89317 0.0
H3191 H 0.15157 0.93229 0.88137 0.0
H3192 H 0.21469 0.98136 0.8335 0.0
H3193 H 0.24405 0.98444 0.84495 0.0
H3194 H 0.22236 1.00549 0.85388 0.0
H3195 H 0.23117 0.99811 0.90185 0.0
H3196 H 0.25292 0.97709 0.89307 0.0
H3197 H 0.2296 0.96892 0.91428 0.0
H3198 H 0.18213 0.90258 0.86982 0.0
H3199 H 0.2169 0.87981 0.85832 0.0
H3200 H 0.25845 0.94271 0.86013 0.0
C3201 C 0.18053 0.99353 0.88679 0.0
C3202 C 0.15636 0.99119 0.89153 0.0
C3203 C 0.14617 0.96881 0.88939 0.0
C3204 C 0.15956 0.94927 0.8828 0.0
C3205 C 0.18324 0.95221 0.87824 0.0
C3206 C 0.19365 0.97379 0.88005 0.0
C3207 C 0.21944 0.97217 0.87394 0.0
C3208 C 0.22548 0.98673 0.85015 0.0
C3209 C 0.23415 0.97951 0.89717 0.0
C3210 C 0.22191 0.94631 0.86853 0.0
C3211 C 0.20081 0.93513 0.87122 0.0
C3212 C 0.19873 0.9112 0.86764 0.0
C3213 C 0.21865 0.89835 0.86122 0.0
C3214 C 0.24055 0.90932 0.85825 0.0
C3215 C 0.24202 0.93374 0.8619 0.0
loop_
_geom_bond_atom_site_label_1
_geom_bond_atom_site_label_2
_geom_bond_distance
_geom_bond_site_symmetry_2
_ccdc_geom_bond_type
Co0 N4 2.148 . S
Co0 N10 2.128 . S
Co0 N20 2.194 . S
Co0 O25 2.351 . S
Co0 O26 2.155 . S
Co0 O27 2.096 . S
C1 N4 1.301 . S
C1 N5 1.328 . S
C1 H6 0.930 . S
C2 C3 1.333 . S
C2 N4 1.317 . S
C2 H7 0.930 . S
C3 C2 1.333 . S
C3 N5 1.350 . S
C3 H29 0.931 . S
N4 Co0 2.148 . S
N4 C1 1.301 . S
N4 C2 1.317 . S
N5 C1 1.328 . S
N5 C3 1.350 . S
H6 C1 0.930 . S
H7 C2 0.930 . S
C8 O9 1.224 . S
C8 O27 1.247 . S
O9 C8 1.224 . S
N10 Co0 2.128 . S
N10 C11 1.355 . S
N10 C13 1.311 . S
C11 N10 1.355 . S
C11 C12 1.363 . S
C11 H23 0.929 . S
C12 C11 1.363 . S
C12 N14 1.375 . S
C12 H30 0.931 . S
C13 N10 1.311 . S
C13 N14 1.347 . S
C13 H24 0.929 . S
N14 C12 1.375 . S
N14 C13 1.347 . S
C15 C18 1.365 . S
C15 N20 1.328 . S
C15 H21 0.929 . S
C16 C17 1.362 . S
C16 C19 1.378 . S
C16 H31 0.929 . S
C17 C16 1.362 . S
C17 C18 1.366 . S
C18 C15 1.365 . S
C18 C17 1.366 . S
C18 H32 0.930 . S
C19 C16 1.378 . S
C19 N20 1.315 . S
C19 H22 0.930 . S
N20 Co0 2.194 . S
N20 C15 1.328 . S
N20 C19 1.315 . S
H21 C15 0.929 . S
H22 C19 0.930 . S
H23 C11 0.929 . S
H24 C13 0.929 . S
O25 Co0 2.351 . S
O25 C28 1.244 . S
O26 Co0 2.155 . S
O26 C28 1.240 . S
O27 Co0 2.096 . S
O27 C8 1.247 . S
C28 O25 1.244 . S
C28 O26 1.240 . S
H29 C3 0.931 . S
H30 C12 0.931 . S
H31 C16 0.929 . S
H32 C18 0.930 . S
Co33 N37 2.148 . S
Co33 N43 2.128 . S
Co33 N53 2.194 . S
Co33 O58 2.351 . S
Co33 O59 2.155 . S
Co33 O60 2.096 . S
C34 N37 1.301 . S
C34 N38 1.328 . S
C34 H39 0.930 . S
C35 C36 1.333 . S
C35 N37 1.317 . S
C35 H40 0.930 . S
C36 C35 1.333 . S
C36 N38 1.350 . S
C36 H62 0.931 1_655 S
N37 Co33 2.148 . S
N37 C34 1.301 . S
N37 C35 1.317 . S
N38 C34 1.328 . S
N38 C36 1.350 . S
H39 C34 0.930 . S
H40 C35 0.930 . S
C41 O42 1.224 . S
C41 O60 1.247 . S
O42 C41 1.224 . S
N43 Co33 2.128 . S
N43 C44 1.355 . S
N43 C46 1.311 . S
C44 N43 1.355 . S
C44 C45 1.363 . S
C44 H56 0.929 . S
C45 C44 1.363 . S
C45 N47 1.375 . S
C45 H63 0.931 . S
C46 N43 1.311 . S
C46 N47 1.347 . S
C46 H57 0.929 1_545 S
N47 C45 1.375 . S
N47 C46 1.347 . S
C48 C51 1.365 . S
C48 N53 1.328 . S
C48 H54 0.929 . S
C49 C50 1.362 . S
C49 C52 1.378 . S
C49 H64 0.929 . S
C50 C49 1.362 . S
C50 C51 1.366 . S
C51 C48 1.365 . S
C51 C50 1.366 . S
C51 H65 0.930 . S
C52 C49 1.378 . S
C52 N53 1.315 . S
C52 H55 0.930 . S
N53 Co33 2.194 . S
N53 C48 1.328 . S
N53 C52 1.315 . S
H54 C48 0.929 . S
H55 C52 0.930 . S
H56 C44 0.929 . S
H57 C46 0.929 1_565 S
O58 Co33 2.351 . S
O58 C61 1.244 . S
O59 Co33 2.155 . S
O59 C61 1.240 . S
O60 Co33 2.096 . S
O60 C41 1.247 . S
C61 O58 1.244 . S
C61 O59 1.240 . S
H62 C36 0.931 1_455 S
H63 C45 0.931 . S
H64 C49 0.929 . S
H65 C51 0.930 . S
Co66 N70 2.148 . S
Co66 N76 2.128 . S
Co66 N86 2.194 . S
Co66 O91 2.351 . S
Co66 O92 2.155 . S
Co66 O93 2.096 . S
C67 N70 1.301 . S
C67 N71 1.328 . S
C67 H72 0.930 . S
C68 C69 1.333 . S
C68 N70 1.317 . S
C68 H73 0.930 . S
C69 C68 1.333 . S
C69 N71 1.350 . S
C69 H95 0.931 . S
N70 Co66 2.148 . S
N70 C67 1.301 . S
N70 C68 1.317 . S
N71 C67 1.328 . S
N71 C69 1.350 . S
H72 C67 0.930 . S
H73 C68 0.930 . S
C74 O75 1.224 . S
C74 O93 1.247 . S
O75 C74 1.224 . S
N76 Co66 2.128 . S
N76 C77 1.355 . S
N76 C79 1.311 . S
C77 N76 1.355 . S
C77 C78 1.363 . S
C77 H89 0.929 . S
C78 C77 1.363 . S
C78 N80 1.375 . S
C78 H96 0.931 . S
C79 N76 1.311 . S
C79 N80 1.347 . S
C79 H90 0.929 . S
N80 C78 1.375 . S
N80 C79 1.347 . S
C81 C84 1.365 . S
C81 N86 1.328 . S
C81 H87 0.929 . S
C82 C83 1.362 . S
C82 C85 1.378 . S
C82 H97 0.929 . S
C83 C82 1.362 . S
C83 C84 1.366 . S
C84 C81 1.365 . S
C84 C83 1.366 . S
C84 H98 0.930 . S
C85 C82 1.378 . S
C85 N86 1.315 . S
C85 H88 0.930 . S
N86 Co66 2.194 . S
N86 C81 1.328 . S
N86 C85 1.315 . S
H87 C81 0.929 . S
H88 C85 0.930 . S
H89 C77 0.929 . S
H90 C79 0.929 . S
O91 Co66 2.351 . S
O91 C94 1.244 . S
O92 Co66 2.155 . S
O92 C94 1.240 . S
O93 Co66 2.096 . S
O93 C74 1.247 . S
C94 O91 1.244 . S
C94 O92 1.240 . S
H95 C69 0.931 . S
H96 C78 0.931 . S
H97 C82 0.929 . S
H98 C84 0.930 . S
Co99 N103 2.148 . S
Co99 N109 2.128 . S
Co99 N119 2.194 . S
Co99 O124 2.351 . S
Co99 O125 2.155 . S
Co99 O126 2.096 . S
C100 N103 1.301 . S
C100 N104 1.328 . S
C100 H105 0.930 . S
C101 C102 1.333 . S
C101 N103 1.317 . S
C101 H106 0.930 . S
C102 C101 1.333 . S
C102 N104 1.350 . S
C102 H128 0.931 . S
N103 Co99 2.148 . S
N103 C100 1.301 . S
N103 C101 1.317 . S
N104 C100 1.328 . S
N104 C102 1.350 . S
H105 C100 0.930 . S
H106 C101 0.930 . S
C107 O108 1.224 . S
C107 O126 1.247 . S
O108 C107 1.224 . S
N109 Co99 2.128 . S
N109 C110 1.355 . S
N109 C112 1.311 . S
C110 N109 1.355 . S
C110 C111 1.363 . S
C110 H122 0.929 . S
C111 C110 1.363 . S
C111 N113 1.375 . S
C111 H129 0.931 . S
C112 N109 1.311 . S
C112 N113 1.347 . S
C112 H123 0.929 1_565 S
N113 C111 1.375 . S
N113 C112 1.347 . S
C114 C117 1.365 . S
C114 N119 1.328 . S
C114 H120 0.929 . S
C115 C116 1.362 . S
C115 C118 1.378 . S
C115 H130 0.929 . S
C116 C115 1.362 . S
C116 C117 1.366 . S
C117 C114 1.365 . S
C117 C116 1.366 . S
C117 H131 0.930 . S
C118 C115 1.378 . S
C118 N119 1.315 . S
C118 H121 0.930 . S
N119 Co99 2.194 . S
N119 C114 1.328 . S
N119 C118 1.315 . S
H120 C114 0.929 . S
H121 C118 0.930 . S
H122 C110 0.929 . S
H123 C112 0.929 1_545 S
O124 Co99 2.351 . S
O124 C127 1.244 . S
O125 Co99 2.155 . S
O125 C127 1.240 . S
O126 Co99 2.096 . S
O126 C107 1.247 . S
C127 O124 1.244 . S
C127 O125 1.240 . S
H128 C102 0.931 . S
H129 C111 0.931 . S
H130 C115 0.929 . S
H131 C117 0.930 . S
Co132 N136 2.148 . S
Co132 N142 2.128 . S
Co132 N152 2.194 . S
Co132 O157 2.351 . S
Co132 O158 2.155 . S
Co132 O159 2.096 . S
C133 N136 1.301 . S
C133 N137 1.328 . S
C133 H138 0.930 . S
C134 C135 1.333 . S
C134 N136 1.317 . S
C134 H139 0.930 . S
C135 C134 1.333 . S
C135 N137 1.350 . S
C135 H161 0.931 . S
N136 Co132 2.148 . S
N136 C133 1.301 . S
N136 C134 1.317 . S
N137 C133 1.328 . S
N137 C135 1.350 . S
H138 C133 0.930 . S
H139 C134 0.930 . S
C140 O141 1.224 . S
C140 O159 1.247 . S
O141 C140 1.224 . S
N142 Co132 2.128 . S
N142 C143 1.355 . S
N142 C145 1.311 . S
C143 N142 1.355 . S
C143 C144 1.363 . S
C143 H155 0.929 . S
C144 C143 1.363 . S
C144 N146 1.375 . S
C144 H162 0.931 . S
C145 N142 1.311 . S
C145 N146 1.347 . S
C145 H156 0.929 . S
N146 C144 1.375 . S
N146 C145 1.347 . S
C147 C150 1.365 . S
C147 N152 1.328 . S
C147 H153 0.929 . S
C148 C149 1.362 . S
C148 C151 1.378 . S
C148 H163 0.929 . S
C149 C148 1.362 . S
C149 C150 1.366 . S
C150 C147 1.365 . S
C150 C149 1.366 . S
C150 H164 0.930 . S
C151 C148 1.378 . S
C151 N152 1.315 . S
C151 H154 0.930 . S
N152 Co132 2.194 . S
N152 C147 1.328 . S
N152 C151 1.315 . S
H153 C147 0.929 . S
H154 C151 0.930 . S
H155 C143 0.929 . S
H156 C145 0.929 . S
O157 Co132 2.351 . S
O157 C160 1.244 . S
O158 Co132 2.155 . S
O158 C160 1.240 . S
O159 Co132 2.096 . S
O159 C140 1.247 . S
C160 O157 1.244 . S
C160 O158 1.240 . S
H161 C135 0.931 . S
H162 C144 0.931 . S
H163 C148 0.929 . S
H164 C150 0.930 . S
Co165 N169 2.148 . S
Co165 N175 2.128 . S
Co165 N185 2.194 . S
Co165 O190 2.351 . S
Co165 O191 2.155 . S
Co165 O192 2.096 . S
C166 N169 1.301 . S
C166 N170 1.328 . S
C166 H171 0.930 . S
C167 C168 1.333 . S
C167 N169 1.317 . S
C167 H172 0.930 . S
C168 C167 1.333 . S
C168 N170 1.350 . S
C168 H194 0.931 . S
N169 Co165 2.148 . S
N169 C166 1.301 . S
N169 C167 1.317 . S
N170 C166 1.328 . S
N170 C168 1.350 . S
H171 C166 0.930 . S
H172 C167 0.930 . S
C173 O174 1.224 . S
C173 O192 1.247 . S
O174 C173 1.224 . S
N175 Co165 2.128 . S
N175 C176 1.355 . S
N175 C178 1.311 . S
C176 N175 1.355 . S
C176 C177 1.363 . S
C176 H188 0.929 . S
C177 C176 1.363 . S
C177 N179 1.375 . S
C177 H195 0.931 . S
C178 N175 1.311 . S
C178 N179 1.347 . S
C178 H189 0.929 1_545 S
N179 C177 1.375 . S
N179 C178 1.347 . S
C180 C183 1.365 . S
C180 N185 1.328 . S
C180 H186 0.929 . S
C181 C182 1.362 . S
C181 C184 1.378 . S
C181 H196 0.929 . S
C182 C181 1.362 . S
C182 C183 1.366 . S
C183 C180 1.365 . S
C183 C182 1.366 . S
C183 H197 0.930 . S
C184 C181 1.378 . S
C184 N185 1.315 . S
C184 H187 0.930 . S
N185 Co165 2.194 . S
N185 C180 1.328 . S
N185 C184 1.315 . S
H186 C180 0.929 . S
H187 C184 0.930 . S
H188 C176 0.929 . S
H189 C178 0.929 1_565 S
O190 Co165 2.351 . S
O190 C193 1.244 . S
O191 Co165 2.155 . S
O191 C193 1.240 . S
O192 Co165 2.096 . S
O192 C173 1.247 . S
C193 O190 1.244 . S
C193 O191 1.240 . S
H194 C168 0.931 . S
H195 C177 0.931 . S
H196 C181 0.929 . S
H197 C183 0.930 . S
Co198 N202 2.148 . S
Co198 N208 2.128 . S
Co198 N218 2.194 . S
Co198 O223 2.351 . S
Co198 O224 2.155 . S
Co198 O225 2.096 . S
C199 N202 1.301 . S
C199 N203 1.328 . S
C199 H204 0.930 . S
C200 C201 1.333 . S
C200 N202 1.317 . S
C200 H205 0.930 . S
C201 C200 1.333 . S
C201 N203 1.350 . S
C201 H227 0.931 . S
N202 Co198 2.148 . S
N202 C199 1.301 . S
N202 C200 1.317 . S
N203 C199 1.328 . S
N203 C201 1.350 . S
H204 C199 0.930 . S
H205 C200 0.930 . S
C206 O207 1.224 . S
C206 O225 1.247 . S
O207 C206 1.224 . S
N208 Co198 2.128 . S
N208 C209 1.355 . S
N208 C211 1.311 . S
C209 N208 1.355 . S
C209 C210 1.363 . S
C209 H221 0.929 . S
C210 C209 1.363 . S
C210 N212 1.375 . S
C210 H228 0.931 . S
C211 N208 1.311 . S
C211 N212 1.347 . S
C211 H222 0.929 . S
N212 C210 1.375 . S
N212 C211 1.347 . S
C213 C216 1.365 . S
C213 N218 1.328 . S
C213 H219 0.929 . S
C214 C215 1.362 . S
C214 C217 1.378 . S
C214 H229 0.929 . S
C215 C214 1.362 . S
C215 C216 1.366 . S
C216 C213 1.365 . S
C216 C215 1.366 . S
C216 H230 0.930 . S
C217 C214 1.378 . S
C217 N218 1.315 . S
C217 H220 0.930 . S
N218 Co198 2.194 . S
N218 C213 1.328 . S
N218 C217 1.315 . S
H219 C213 0.929 . S
H220 C217 0.930 . S
H221 C209 0.929 . S
H222 C211 0.929 . S
O223 Co198 2.351 . S
O223 C226 1.244 . S
O224 Co198 2.155 . S
O224 C226 1.240 . S
O225 Co198 2.096 . S
O225 C206 1.247 . S
C226 O223 1.244 . S
C226 O224 1.240 . S
H227 C201 0.931 . S
H228 C210 0.931 . S
H229 C214 0.929 . S
H230 C216 0.930 . S
Co231 N235 2.148 . S
Co231 N241 2.128 . S
Co231 N251 2.194 . S
Co231 O256 2.351 . S
Co231 O257 2.155 . S
Co231 O258 2.096 . S
C232 N235 1.301 . S
C232 N236 1.328 . S
C232 H237 0.930 . S
C233 C234 1.333 . S
C233 N235 1.317 . S
C233 H238 0.930 . S
C234 C233 1.333 . S
C234 N236 1.350 . S
C234 H260 0.931 1_655 S
N235 Co231 2.148 . S
N235 C232 1.301 . S
N235 C233 1.317 . S
N236 C232 1.328 . S
N236 C234 1.350 . S
H237 C232 0.930 . S
H238 C233 0.930 . S
C239 O240 1.224 . S
C239 O258 1.247 . S
O240 C239 1.224 . S
N241 Co231 2.128 . S
N241 C242 1.355 . S
N241 C244 1.311 . S
C242 N241 1.355 . S
C242 C243 1.363 . S
C242 H254 0.929 . S
C243 C242 1.363 . S
C243 N245 1.375 . S
C243 H261 0.931 . S
C244 N241 1.311 . S
C244 N245 1.347 . S
C244 H255 0.929 1_565 S
N245 C243 1.375 . S
N245 C244 1.347 . S
C246 C249 1.365 . S
C246 N251 1.328 . S
C246 H252 0.929 . S
C247 C248 1.362 . S
C247 C250 1.378 . S
C247 H262 0.929 . S
C248 C247 1.362 . S
C248 C249 1.366 . S
C249 C246 1.365 . S
C249 C248 1.366 . S
C249 H263 0.930 . S
C250 C247 1.378 . S
C250 N251 1.315 . S
C250 H253 0.930 . S
N251 Co231 2.194 . S
N251 C246 1.328 . S
N251 C250 1.315 . S
H252 C246 0.929 . S
H253 C250 0.930 . S
H254 C242 0.929 . S
H255 C244 0.929 1_545 S
O256 Co231 2.351 . S
O256 C259 1.244 . S
O257 Co231 2.155 . S
O257 C259 1.240 . S
O258 Co231 2.096 . S
O258 C239 1.247 . S
C259 O256 1.244 . S
C259 O257 1.240 . S
H260 C234 0.931 1_455 S
H261 C243 0.931 . S
H262 C247 0.929 . S
H263 C249 0.930 . S
Co264 N268 2.148 . S
Co264 N274 2.128 . S
Co264 N284 2.194 . S
Co264 O289 2.351 . S
Co264 O290 2.155 . S
Co264 O291 2.096 . S
C265 N268 1.301 . S
C265 N269 1.328 . S
C265 H270 0.930 . S
C266 C267 1.333 . S
C266 N268 1.317 . S
C266 H271 0.930 . S
C267 C266 1.333 . S
C267 N269 1.350 . S
C267 H293 0.931 . S
N268 Co264 2.148 . S
N268 C265 1.301 . S
N268 C266 1.317 . S
N269 C265 1.328 . S
N269 C267 1.350 . S
H270 C265 0.930 . S
H271 C266 0.930 . S
C272 O273 1.224 . S
C272 O291 1.247 . S
O273 C272 1.224 . S
N274 Co264 2.128 . S
N274 C275 1.355 . S
N274 C277 1.311 . S
C275 N274 1.355 . S
C275 C276 1.363 . S
C275 H287 0.929 . S
C276 C275 1.363 . S
C276 N278 1.375 . S
C276 H294 0.931 . S
C277 N274 1.311 . S
C277 N278 1.347 . S
C277 H288 0.929 . S
N278 C276 1.375 . S
N278 C277 1.347 . S
C279 C282 1.365 . S
C279 N284 1.328 . S
C279 H285 0.929 . S
C280 C281 1.362 . S
C280 C283 1.378 . S
C280 H295 0.929 . S
C281 C280 1.362 . S
C281 C282 1.366 . S
C282 C279 1.365 . S
C282 C281 1.366 . S
C282 H296 0.930 . S
C283 C280 1.378 . S
C283 N284 1.315 . S
C283 H286 0.930 . S
N284 Co264 2.194 . S
N284 C279 1.328 . S
N284 C283 1.315 . S
H285 C279 0.929 . S
H286 C283 0.930 . S
H287 C275 0.929 . S
H288 C277 0.929 . S
O289 Co264 2.351 . S
O289 C292 1.244 . S
O290 Co264 2.155 . S
O290 C292 1.240 . S
O291 Co264 2.096 . S
O291 C272 1.247 . S
C292 O289 1.244 . S
C292 O290 1.240 . S
H293 C267 0.931 . S
H294 C276 0.931 . S
H295 C280 0.929 . S
H296 C282 0.930 . S
Co297 N301 2.148 . S
Co297 N307 2.128 . S
Co297 N317 2.194 . S
Co297 O322 2.351 . S
Co297 O323 2.155 . S
Co297 O324 2.096 . S
C298 N301 1.301 . S
C298 N302 1.328 . S
C298 H303 0.930 . S
C299 C300 1.333 . S
C299 N301 1.317 . S
C299 H304 0.930 . S
C300 C299 1.333 . S
C300 N302 1.350 . S
C300 H326 0.931 1_455 S
N301 Co297 2.148 . S
N301 C298 1.301 . S
N301 C299 1.317 . S
N302 C298 1.328 . S
N302 C300 1.350 . S
H303 C298 0.930 . S
H304 C299 0.930 . S
C305 O306 1.224 . S
C305 O324 1.247 . S
O306 C305 1.224 . S
N307 Co297 2.128 . S
N307 C308 1.355 . S
N307 C310 1.311 . S
C308 N307 1.355 . S
C308 C309 1.363 . S
C308 H320 0.929 . S
C309 C308 1.363 . S
C309 N311 1.375 . S
C309 H327 0.931 . S
C310 N307 1.311 . S
C310 N311 1.347 . S
C310 H321 0.929 1_565 S
N311 C309 1.375 . S
N311 C310 1.347 . S
C312 C315 1.365 . S
C312 N317 1.328 . S
C312 H318 0.929 . S
C313 C314 1.362 . S
C313 C316 1.378 . S
C313 H328 0.929 . S
C314 C313 1.362 . S
C314 C315 1.366 . S
C315 C312 1.365 . S
C315 C314 1.366 . S
C315 H329 0.930 . S
C316 C313 1.378 . S
C316 N317 1.315 . S
C316 H319 0.930 . S
N317 Co297 2.194 . S
N317 C312 1.328 . S
N317 C316 1.315 . S
H318 C312 0.929 . S
H319 C316 0.930 . S
H320 C308 0.929 . S
H321 C310 0.929 1_545 S
O322 Co297 2.351 . S
O322 C325 1.244 . S
O323 Co297 2.155 . S
O323 C325 1.240 . S
O324 Co297 2.096 . S
O324 C305 1.247 . S
C325 O322 1.244 . S
C325 O323 1.240 . S
H326 C300 0.931 1_655 S
H327 C309 0.931 . S
H328 C313 0.929 . S
H329 C315 0.930 . S
Co330 N334 2.148 . S
Co330 N340 2.128 . S
Co330 N350 2.194 . S
Co330 O355 2.351 . S
Co330 O356 2.155 . S
Co330 O357 2.096 . S
C331 N334 1.301 . S
C331 N335 1.328 . S
C331 H336 0.930 . S
C332 C333 1.333 . S
C332 N334 1.317 . S
C332 H337 0.930 . S
C333 C332 1.333 . S
C333 N335 1.350 . S
C333 H359 0.931 . S
N334 Co330 2.148 . S
N334 C331 1.301 . S
N334 C332 1.317 . S
N335 C331 1.328 . S
N335 C333 1.350 . S
H336 C331 0.930 . S
H337 C332 0.930 . S
C338 O339 1.224 . S
C338 O357 1.247 . S
O339 C338 1.224 . S
N340 Co330 2.128 . S
N340 C341 1.355 . S
N340 C343 1.311 . S
C341 N340 1.355 . S
C341 C342 1.363 . S
C341 H353 0.929 . S
C342 C341 1.363 . S
C342 N344 1.375 . S
C342 H360 0.931 . S
C343 N340 1.311 . S
C343 N344 1.347 . S
C343 H354 0.929 . S
N344 C342 1.375 . S
N344 C343 1.347 . S
C345 C348 1.365 . S
C345 N350 1.328 . S
C345 H351 0.929 . S
C346 C347 1.362 . S
C346 C349 1.378 . S
C346 H361 0.929 . S
C347 C346 1.362 . S
C347 C348 1.366 . S
C348 C345 1.365 . S
C348 C347 1.366 . S
C348 H362 0.930 . S
C349 C346 1.378 . S
C349 N350 1.315 . S
C349 H352 0.930 . S
N350 Co330 2.194 . S
N350 C345 1.328 . S
N350 C349 1.315 . S
H351 C345 0.929 . S
H352 C349 0.930 . S
H353 C341 0.929 . S
H354 C343 0.929 . S
O355 Co330 2.351 . S
O355 C358 1.244 . S
O356 Co330 2.155 . S
O356 C358 1.240 . S
O357 Co330 2.096 . S
O357 C338 1.247 . S
C358 O355 1.244 . S
C358 O356 1.240 . S
H359 C333 0.931 . S
H360 C342 0.931 . S
H361 C346 0.929 . S
H362 C348 0.930 . S
Co363 N367 2.148 . S
Co363 N373 2.128 . S
Co363 N383 2.194 . S
Co363 O388 2.351 . S
Co363 O389 2.155 . S
Co363 O390 2.096 . S
C364 N367 1.301 . S
C364 N368 1.328 . S
C364 H369 0.930 . S
C365 C366 1.333 . S
C365 N367 1.317 . S
C365 H370 0.930 . S
C366 C365 1.333 . S
C366 N368 1.350 . S
C366 H392 0.931 . S
N367 Co363 2.148 . S
N367 C364 1.301 . S
N367 C365 1.317 . S
N368 C364 1.328 . S
N368 C366 1.350 . S
H369 C364 0.930 . S
H370 C365 0.930 . S
C371 O372 1.224 . S
C371 O390 1.247 . S
O372 C371 1.224 . S
N373 Co363 2.128 . S
N373 C374 1.355 . S
N373 C376 1.311 . S
C374 N373 1.355 . S
C374 C375 1.363 . S
C374 H386 0.929 . S
C375 C374 1.363 . S
C375 N377 1.375 . S
C375 H393 0.931 . S
C376 N373 1.311 . S
C376 N377 1.347 . S
C376 H387 0.929 1_545 S
N377 C375 1.375 . S
N377 C376 1.347 . S
C378 C381 1.365 . S
C378 N383 1.328 . S
C378 H384 0.929 . S
C379 C380 1.362 . S
C379 C382 1.378 . S
C379 H394 0.929 . S
C380 C379 1.362 . S
C380 C381 1.366 . S
C381 C378 1.365 . S
C381 C380 1.366 . S
C381 H395 0.930 . S
C382 C379 1.378 . S
C382 N383 1.315 . S
C382 H385 0.930 . S
N383 Co363 2.194 . S
N383 C378 1.328 . S
N383 C382 1.315 . S
H384 C378 0.929 . S
H385 C382 0.930 . S
H386 C374 0.929 . S
H387 C376 0.929 1_565 S
O388 Co363 2.351 . S
O388 C391 1.244 . S
O389 Co363 2.155 . S
O389 C391 1.240 . S
O390 Co363 2.096 . S
O390 C371 1.247 . S
C391 O388 1.244 . S
C391 O389 1.240 . S
H392 C366 0.931 . S
H393 C375 0.931 . S
H394 C379 0.929 . S
H395 C381 0.930 . S
Co396 N400 2.148 . S
Co396 N406 2.128 . S
Co396 N416 2.194 . S
Co396 O421 2.351 . S
Co396 O422 2.155 . S
Co396 O423 2.096 . S
C397 N400 1.301 . S
C397 N401 1.328 . S
C397 H402 0.930 . S
C398 C399 1.333 . S
C398 N400 1.317 . S
C398 H403 0.930 . S
C399 C398 1.333 . S
C399 N401 1.350 . S
C399 H425 0.931 . S
N400 Co396 2.148 . S
N400 C397 1.301 . S
N400 C398 1.317 . S
N401 C397 1.328 . S
N401 C399 1.350 . S
H402 C397 0.930 . S
H403 C398 0.930 . S
C404 O405 1.224 . S
C404 O423 1.247 . S
O405 C404 1.224 . S
N406 Co396 2.128 . S
N406 C407 1.355 . S
N406 C409 1.311 . S
C407 N406 1.355 . S
C407 C408 1.363 . S
C407 H419 0.929 . S
C408 C407 1.363 . S
C408 N410 1.375 . S
C408 H426 0.931 . S
C409 N406 1.311 . S
C409 N410 1.347 . S
C409 H420 0.929 . S
N410 C408 1.375 . S
N410 C409 1.347 . S
C411 C414 1.365 . S
C411 N416 1.328 . S
C411 H417 0.929 . S
C412 C413 1.362 . S
C412 C415 1.378 . S
C412 H427 0.929 . S
C413 C412 1.362 . S
C413 C414 1.366 . S
C414 C411 1.365 . S
C414 C413 1.366 . S
C414 H428 0.930 . S
C415 C412 1.378 . S
C415 N416 1.315 . S
C415 H418 0.930 . S
N416 Co396 2.194 . S
N416 C411 1.328 . S
N416 C415 1.315 . S
H417 C411 0.929 . S
H418 C415 0.930 . S
H419 C407 0.929 . S
H420 C409 0.929 . S
O421 Co396 2.351 . S
O421 C424 1.244 . S
O422 Co396 2.155 . S
O422 C424 1.240 . S
O423 Co396 2.096 . S
O423 C404 1.247 . S
C424 O421 1.244 . S
C424 O422 1.240 . S
H425 C399 0.931 . S
H426 C408 0.931 . S
H427 C412 0.929 . S
H428 C414 0.930 . S
Co429 N433 2.148 . S
Co429 N439 2.128 . S
Co429 N449 2.194 . S
Co429 O454 2.351 . S
Co429 O455 2.155 . S
Co429 O456 2.096 . S
C430 N433 1.301 . S
C430 N434 1.328 . S
C430 H435 0.930 . S
C431 C432 1.333 . S
C431 N433 1.317 . S
C431 H436 0.930 . S
C432 C431 1.333 . S
C432 N434 1.350 . S
C432 H458 0.931 . S
N433 Co429 2.148 . S
N433 C430 1.301 . S
N433 C431 1.317 . S
N434 C430 1.328 . S
N434 C432 1.350 . S
H435 C430 0.930 . S
H436 C431 0.930 . S
C437 O438 1.224 . S
C437 O456 1.247 . S
O438 C437 1.224 . S
N439 Co429 2.128 . S
N439 C440 1.355 . S
N439 C442 1.311 . S
C440 N439 1.355 . S
C440 C441 1.363 . S
C440 H452 0.929 . S
C441 C440 1.363 . S
C441 N443 1.375 . S
C441 H459 0.931 . S
C442 N439 1.311 . S
C442 N443 1.347 . S
C442 H453 0.929 1_565 S
N443 C441 1.375 . S
N443 C442 1.347 . S
C444 C447 1.365 . S
C444 N449 1.328 . S
C444 H450 0.929 . S
C445 C446 1.362 . S
C445 C448 1.378 . S
C445 H460 0.929 . S
C446 C445 1.362 . S
C446 C447 1.366 . S
C447 C444 1.365 . S
C447 C446 1.366 . S
C447 H461 0.930 . S
C448 C445 1.378 . S
C448 N449 1.315 . S
C448 H451 0.930 . S
N449 Co429 2.194 . S
N449 C444 1.328 . S
N449 C448 1.315 . S
H450 C444 0.929 . S
H451 C448 0.930 . S
H452 C440 0.929 . S
H453 C442 0.929 1_545 S
O454 Co429 2.351 . S
O454 C457 1.244 . S
O455 Co429 2.155 . S
O455 C457 1.240 . S
O456 Co429 2.096 . S
O456 C437 1.247 . S
C457 O454 1.244 . S
C457 O455 1.240 . S
H458 C432 0.931 . S
H459 C441 0.931 . S
H460 C445 0.929 . S
H461 C447 0.930 . S
Co462 N466 2.148 . S
Co462 N472 2.128 . S
Co462 N482 2.194 . S
Co462 O487 2.351 . S
Co462 O488 2.155 . S
Co462 O489 2.096 . S
C463 N466 1.301 . S
C463 N467 1.328 . S
C463 H468 0.930 . S
C464 C465 1.333 . S
C464 N466 1.317 . S
C464 H469 0.930 . S
C465 C464 1.333 . S
C465 N467 1.350 . S
C465 H491 0.931 . S
N466 Co462 2.148 . S
N466 C463 1.301 . S
N466 C464 1.317 . S
N467 C463 1.328 . S
N467 C465 1.350 . S
H468 C463 0.930 . S
H469 C464 0.930 . S
C470 O471 1.224 . S
C470 O489 1.247 . S
O471 C470 1.224 . S
N472 Co462 2.128 . S
N472 C473 1.355 . S
N472 C475 1.311 . S
C473 N472 1.355 . S
C473 C474 1.363 . S
C473 H485 0.929 . S
C474 C473 1.363 . S
C474 N476 1.375 . S
C474 H492 0.931 . S
C475 N472 1.311 . S
C475 N476 1.347 . S
C475 H486 0.929 . S
N476 C474 1.375 . S
N476 C475 1.347 . S
C477 C480 1.365 . S
C477 N482 1.328 . S
C477 H483 0.929 . S
C478 C479 1.362 . S
C478 C481 1.378 . S
C478 H493 0.929 . S
C479 C478 1.362 . S
C479 C480 1.366 . S
C480 C477 1.365 . S
C480 C479 1.366 . S
C480 H494 0.930 . S
C481 C478 1.378 . S
C481 N482 1.315 . S
C481 H484 0.930 . S
N482 Co462 2.194 . S
N482 C477 1.328 . S
N482 C481 1.315 . S
H483 C477 0.929 . S
H484 C481 0.930 . S
H485 C473 0.929 . S
H486 C475 0.929 . S
O487 Co462 2.351 . S
O487 C490 1.244 . S
O488 Co462 2.155 . S
O488 C490 1.240 . S
O489 Co462 2.096 . S
O489 C470 1.247 . S
C490 O487 1.244 . S
C490 O488 1.240 . S
H491 C465 0.931 . S
H492 C474 0.931 . S
H493 C478 0.929 . S
H494 C480 0.930 . S
Co495 N499 2.148 . S
Co495 N505 2.128 . S
Co495 N515 2.194 . S
Co495 O520 2.351 . S
Co495 O521 2.155 . S
Co495 O522 2.096 . S
C496 N499 1.301 . S
C496 N500 1.328 . S
C496 H501 0.930 . S
C497 C498 1.333 . S
C497 N499 1.317 . S
C497 H502 0.930 . S
C498 C497 1.333 . S
C498 N500 1.350 . S
C498 H524 0.931 1_455 S
N499 Co495 2.148 . S
N499 C496 1.301 . S
N499 C497 1.317 . S
N500 C496 1.328 . S
N500 C498 1.350 . S
H501 C496 0.930 . S
H502 C497 0.930 . S
C503 O504 1.224 . S
C503 O522 1.247 . S
O504 C503 1.224 . S
N505 Co495 2.128 . S
N505 C506 1.355 . S
N505 C508 1.311 . S
C506 N505 1.355 . S
C506 C507 1.363 . S
C506 H518 0.929 . S
C507 C506 1.363 . S
C507 N509 1.375 . S
C507 H525 0.931 . S
C508 N505 1.311 . S
C508 N509 1.347 . S
C508 H519 0.929 1_545 S
N509 C507 1.375 . S
N509 C508 1.347 . S
C510 C513 1.365 . S
C510 N515 1.328 . S
C510 H516 0.929 . S
C511 C512 1.362 . S
C511 C514 1.378 . S
C511 H526 0.929 . S
C512 C511 1.362 . S
C512 C513 1.366 . S
C513 C510 1.365 . S
C513 C512 1.366 . S
C513 H527 0.930 . S
C514 C511 1.378 . S
C514 N515 1.315 . S
C514 H517 0.930 . S
N515 Co495 2.194 . S
N515 C510 1.328 . S
N515 C514 1.315 . S
H516 C510 0.929 . S
H517 C514 0.930 . S
H518 C506 0.929 . S
H519 C508 0.929 1_565 S
O520 Co495 2.351 . S
O520 C523 1.244 . S
O521 Co495 2.155 . S
O521 C523 1.240 . S
O522 Co495 2.096 . S
O522 C503 1.247 . S
C523 O520 1.244 . S
C523 O521 1.240 . S
H524 C498 0.931 1_655 S
H525 C507 0.931 . S
H526 C511 0.929 . S
H527 C513 0.930 . S
Co528 N532 2.148 . S
Co528 N538 2.128 . S
Co528 N548 2.194 . S
Co528 O553 2.351 . S
Co528 O554 2.155 . S
Co528 O555 2.096 . S
C529 N532 1.301 . S
C529 N533 1.328 . S
C529 H534 0.930 . S
C530 C531 1.333 . S
C530 N532 1.317 . S
C530 H535 0.930 . S
C531 C530 1.333 . S
C531 N533 1.350 . S
C531 H557 0.931 . S
N532 Co528 2.148 . S
N532 C529 1.301 . S
N532 C530 1.317 . S
N533 C529 1.328 . S
N533 C531 1.350 . S
H534 C529 0.930 . S
H535 C530 0.930 . S
C536 O537 1.224 . S
C536 O555 1.247 . S
O537 C536 1.224 . S
N538 Co528 2.128 . S
N538 C539 1.355 . S
N538 C541 1.311 . S
C539 N538 1.355 . S
C539 C540 1.363 . S
C539 H551 0.929 . S
C540 C539 1.363 . S
C540 N542 1.375 . S
C540 H558 0.931 . S
C541 N538 1.311 . S
C541 N542 1.347 . S
C541 H552 0.929 . S
N542 C540 1.375 . S
N542 C541 1.347 . S
C543 C546 1.365 . S
C543 N548 1.328 . S
C543 H549 0.929 . S
C544 C545 1.362 . S
C544 C547 1.378 . S
C544 H559 0.929 . S
C545 C544 1.362 . S
C545 C546 1.366 . S
C546 C543 1.365 . S
C546 C545 1.366 . S
C546 H560 0.930 . S
C547 C544 1.378 . S
C547 N548 1.315 . S
C547 H550 0.930 . S
N548 Co528 2.194 . S
N548 C543 1.328 . S
N548 C547 1.315 . S
H549 C543 0.929 . S
H550 C547 0.930 . S
H551 C539 0.929 . S
H552 C541 0.929 . S
O553 Co528 2.351 . S
O553 C556 1.244 . S
O554 Co528 2.155 . S
O554 C556 1.240 . S
O555 Co528 2.096 . S
O555 C536 1.247 . S
C556 O553 1.244 . S
C556 O554 1.240 . S
H557 C531 0.931 . S
H558 C540 0.931 . S
H559 C544 0.929 . S
H560 C546 0.930 . S
Co561 N565 2.148 . S
Co561 N571 2.128 . S
Co561 N581 2.194 . S
Co561 O586 2.351 . S
Co561 O587 2.155 . S
Co561 O588 2.096 . S
C562 N565 1.301 . S
C562 N566 1.328 . S
C562 H567 0.930 . S
C563 C564 1.333 . S
C563 N565 1.317 . S
C563 H568 0.930 . S
C564 C563 1.333 . S
C564 N566 1.350 . S
C564 H590 0.931 . S
N565 Co561 2.148 . S
N565 C562 1.301 . S
N565 C563 1.317 . S
N566 C562 1.328 . S
N566 C564 1.350 . S
H567 C562 0.930 . S
H568 C563 0.930 . S
C569 O570 1.224 . S
C569 O588 1.247 . S
O570 C569 1.224 . S
N571 Co561 2.128 . S
N571 C572 1.355 . S
N571 C574 1.311 . S
C572 N571 1.355 . S
C572 C573 1.363 . S
C572 H584 0.929 . S
C573 C572 1.363 . S
C573 N575 1.375 . S
C573 H591 0.931 . S
C574 N571 1.311 . S
C574 N575 1.347 . S
C574 H585 0.929 . S
N575 C573 1.375 . S
N575 C574 1.347 . S
C576 C579 1.365 . S
C576 N581 1.328 . S
C576 H582 0.929 . S
C577 C578 1.362 . S
C577 C580 1.378 . S
C577 H592 0.929 . S
C578 C577 1.362 . S
C578 C579 1.366 . S
C579 C576 1.365 . S
C579 C578 1.366 . S
C579 H593 0.930 . S
C580 C577 1.378 . S
C580 N581 1.315 . S
C580 H583 0.930 . S
N581 Co561 2.194 . S
N581 C576 1.328 . S
N581 C580 1.315 . S
H582 C576 0.929 . S
H583 C580 0.930 . S
H584 C572 0.929 . S
H585 C574 0.929 . S
O586 Co561 2.351 . S
O586 C589 1.244 . S
O587 Co561 2.155 . S
O587 C589 1.240 . S
O588 Co561 2.096 . S
O588 C569 1.247 . S
C589 O586 1.244 . S
C589 O587 1.240 . S
H590 C564 0.931 . S
H591 C573 0.931 . S
H592 C577 0.929 . S
H593 C579 0.930 . S
Co594 N598 2.148 . S
Co594 N604 2.128 . S
Co594 N614 2.194 . S
Co594 O619 2.351 . S
Co594 O620 2.155 . S
Co594 O621 2.096 . S
C595 N598 1.301 . S
C595 N599 1.328 . S
C595 H600 0.930 . S
C596 C597 1.333 . S
C596 N598 1.317 . S
C596 H601 0.930 . S
C597 C596 1.333 . S
C597 N599 1.350 . S
C597 H623 0.931 . S
N598 Co594 2.148 . S
N598 C595 1.301 . S
N598 C596 1.317 . S
N599 C595 1.328 . S
N599 C597 1.350 . S
H600 C595 0.930 . S
H601 C596 0.930 . S
C602 O603 1.224 . S
C602 O621 1.247 . S
O603 C602 1.224 . S
N604 Co594 2.128 . S
N604 C605 1.355 . S
N604 C607 1.311 . S
C605 N604 1.355 . S
C605 C606 1.363 . S
C605 H617 0.929 . S
C606 C605 1.363 . S
C606 N608 1.375 . S
C606 H624 0.931 . S
C607 N604 1.311 . S
C607 N608 1.347 . S
C607 H618 0.929 . S
N608 C606 1.375 . S
N608 C607 1.347 . S
C609 C612 1.365 . S
C609 N614 1.328 . S
C609 H615 0.929 . S
C610 C611 1.362 . S
C610 C613 1.378 . S
C610 H625 0.929 . S
C611 C610 1.362 . S
C611 C612 1.366 . S
C612 C609 1.365 . S
C612 C611 1.366 . S
C612 H626 0.930 . S
C613 C610 1.378 . S
C613 N614 1.315 . S
C613 H616 0.930 . S
N614 Co594 2.194 . S
N614 C609 1.328 . S
N614 C613 1.315 . S
H615 C609 0.929 . S
H616 C613 0.930 . S
H617 C605 0.929 . S
H618 C607 0.929 . S
O619 Co594 2.351 . S
O619 C622 1.244 . S
O620 Co594 2.155 . S
O620 C622 1.240 . S
O621 Co594 2.096 . S
O621 C602 1.247 . S
C622 O619 1.244 . S
C622 O620 1.240 . S
H623 C597 0.931 . S
H624 C606 0.931 . S
H625 C610 0.929 . S
H626 C612 0.930 . S
Co627 N631 2.148 . S
Co627 N637 2.128 . S
Co627 N647 2.194 . S
Co627 O652 2.351 . S
Co627 O653 2.155 . S
Co627 O654 2.096 . S
C628 N631 1.301 . S
C628 N632 1.328 . S
C628 H633 0.930 . S
C629 C630 1.333 . S
C629 N631 1.317 . S
C629 H634 0.930 . S
C630 C629 1.333 . S
C630 N632 1.350 . S
C630 H656 0.931 1_455 S
N631 Co627 2.148 . S
N631 C628 1.301 . S
N631 C629 1.317 . S
N632 C628 1.328 . S
N632 C630 1.350 . S
H633 C628 0.930 . S
H634 C629 0.930 . S
C635 O636 1.224 . S
C635 O654 1.247 . S
O636 C635 1.224 . S
N637 Co627 2.128 . S
N637 C638 1.355 . S
N637 C640 1.311 . S
C638 N637 1.355 . S
C638 C639 1.363 . S
C638 H650 0.929 . S
C639 C638 1.363 . S
C639 N641 1.375 . S
C639 H657 0.931 . S
C640 N637 1.311 . S
C640 N641 1.347 . S
C640 H651 0.929 . S
N641 C639 1.375 . S
N641 C640 1.347 . S
C642 C645 1.365 . S
C642 N647 1.328 . S
C642 H648 0.929 . S
C643 C644 1.362 . S
C643 C646 1.378 . S
C643 H658 0.929 . S
C644 C643 1.362 . S
C644 C645 1.366 . S
C645 C642 1.365 . S
C645 C644 1.366 . S
C645 H659 0.930 . S
C646 C643 1.378 . S
C646 N647 1.315 . S
C646 H649 0.930 . S
N647 Co627 2.194 . S
N647 C642 1.328 . S
N647 C646 1.315 . S
H648 C642 0.929 . S
H649 C646 0.930 . S
H650 C638 0.929 . S
H651 C640 0.929 . S
O652 Co627 2.351 . S
O652 C655 1.244 . S
O653 Co627 2.155 . S
O653 C655 1.240 . S
O654 Co627 2.096 . S
O654 C635 1.247 . S
C655 O652 1.244 . S
C655 O653 1.240 . S
H656 C630 0.931 1_655 S
H657 C639 0.931 . S
H658 C643 0.929 . S
H659 C645 0.930 . S
Co660 N664 2.148 . S
Co660 N670 2.128 . S
Co660 N680 2.194 . S
Co660 O685 2.351 . S
Co660 O686 2.155 . S
Co660 O687 2.096 . S
C661 N664 1.301 . S
C661 N665 1.328 . S
C661 H666 0.930 . S
C662 C663 1.333 . S
C662 N664 1.317 . S
C662 H667 0.930 . S
C663 C662 1.333 . S
C663 N665 1.350 . S
C663 H689 0.931 . S
N664 Co660 2.148 . S
N664 C661 1.301 . S
N664 C662 1.317 . S
N665 C661 1.328 . S
N665 C663 1.350 . S
H666 C661 0.930 . S
H667 C662 0.930 . S
C668 O669 1.224 . S
C668 O687 1.247 . S
O669 C668 1.224 . S
N670 Co660 2.128 . S
N670 C671 1.355 . S
N670 C673 1.311 . S
C671 N670 1.355 . S
C671 C672 1.363 . S
C671 H683 0.929 . S
C672 C671 1.363 . S
C672 N674 1.375 . S
C672 H690 0.931 . S
C673 N670 1.311 . S
C673 N674 1.347 . S
C673 H684 0.929 . S
N674 C672 1.375 . S
N674 C673 1.347 . S
C675 C678 1.365 . S
C675 N680 1.328 . S
C675 H681 0.929 . S
C676 C677 1.362 . S
C676 C679 1.378 . S
C676 H691 0.929 . S
C677 C676 1.362 . S
C677 C678 1.366 . S
C678 C675 1.365 . S
C678 C677 1.366 . S
C678 H692 0.930 . S
C679 C676 1.378 . S
C679 N680 1.315 . S
C679 H682 0.930 . S
N680 Co660 2.194 . S
N680 C675 1.328 . S
N680 C679 1.315 . S
H681 C675 0.929 . S
H682 C679 0.930 . S
H683 C671 0.929 . S
H684 C673 0.929 . S
O685 Co660 2.351 . S
O685 C688 1.244 . S
O686 Co660 2.155 . S
O686 C688 1.240 . S
O687 Co660 2.096 . S
O687 C668 1.247 . S
C688 O685 1.244 . S
C688 O686 1.240 . S
H689 C663 0.931 . S
H690 C672 0.931 . S
H691 C676 0.929 . S
H692 C678 0.930 . S
Co693 N697 2.148 . S
Co693 N703 2.128 . S
Co693 N713 2.194 . S
Co693 O718 2.351 . S
Co693 O719 2.155 . S
Co693 O720 2.096 . S
C694 N697 1.301 . S
C694 N698 1.328 . S
C694 H699 0.930 . S
C695 C696 1.333 . S
C695 N697 1.317 . S
C695 H700 0.930 . S
C696 C695 1.333 . S
C696 N698 1.350 . S
C696 H722 0.931 1_455 S
N697 Co693 2.148 . S
N697 C694 1.301 . S
N697 C695 1.317 . S
N698 C694 1.328 . S
N698 C696 1.350 . S
H699 C694 0.930 . S
H700 C695 0.930 . S
C701 O702 1.224 . S
C701 O720 1.247 . S
O702 C701 1.224 . S
N703 Co693 2.128 . S
N703 C704 1.355 . S
N703 C706 1.311 . S
C704 N703 1.355 . S
C704 C705 1.363 . S
C704 H716 0.929 . S
C705 C704 1.363 . S
C705 N707 1.375 . S
C705 H723 0.931 . S
C706 N703 1.311 . S
C706 N707 1.347 . S
C706 H717 0.929 . S
N707 C705 1.375 . S
N707 C706 1.347 . S
C708 C711 1.365 . S
C708 N713 1.328 . S
C708 H714 0.929 . S
C709 C710 1.362 . S
C709 C712 1.378 . S
C709 H724 0.929 . S
C710 C709 1.362 . S
C710 C711 1.366 . S
C711 C708 1.365 . S
C711 C710 1.366 . S
C711 H725 0.930 . S
C712 C709 1.378 . S
C712 N713 1.315 . S
C712 H715 0.930 . S
N713 Co693 2.194 . S
N713 C708 1.328 . S
N713 C712 1.315 . S
H714 C708 0.929 . S
H715 C712 0.930 . S
H716 C704 0.929 . S
H717 C706 0.929 . S
O718 Co693 2.351 . S
O718 C721 1.244 . S
O719 Co693 2.155 . S
O719 C721 1.240 . S
O720 Co693 2.096 . S
O720 C701 1.247 . S
C721 O718 1.244 . S
C721 O719 1.240 . S
H722 C696 0.931 1_655 S
H723 C705 0.931 . S
H724 C709 0.929 . S
H725 C711 0.930 . S
Co726 N730 2.148 . S
Co726 N736 2.128 . S
Co726 N746 2.194 . S
Co726 O751 2.351 . S
Co726 O752 2.155 . S
Co726 O753 2.096 . S
C727 N730 1.301 . S
C727 N731 1.328 . S
C727 H732 0.930 . S
C728 C729 1.333 . S
C728 N730 1.317 . S
C728 H733 0.930 . S
C729 C728 1.333 . S
C729 N731 1.350 . S
C729 H755 0.931 . S
N730 Co726 2.148 . S
N730 C727 1.301 . S
N730 C728 1.317 . S
N731 C727 1.328 . S
N731 C729 1.350 . S
H732 C727 0.930 . S
H733 C728 0.930 . S
C734 O735 1.224 . S
C734 O753 1.247 . S
O735 C734 1.224 . S
N736 Co726 2.128 . S
N736 C737 1.355 . S
N736 C739 1.311 . S
C737 N736 1.355 . S
C737 C738 1.363 . S
C737 H749 0.929 . S
C738 C737 1.363 . S
C738 N740 1.375 . S
C738 H756 0.931 . S
C739 N736 1.311 . S
C739 N740 1.347 . S
C739 H750 0.929 . S
N740 C738 1.375 . S
N740 C739 1.347 . S
C741 C744 1.365 . S
C741 N746 1.328 . S
C741 H747 0.929 . S
C742 C743 1.362 . S
C742 C745 1.378 . S
C742 H757 0.929 . S
C743 C742 1.362 . S
C743 C744 1.366 . S
C744 C741 1.365 . S
C744 C743 1.366 . S
C744 H758 0.930 . S
C745 C742 1.378 . S
C745 N746 1.315 . S
C745 H748 0.930 . S
N746 Co726 2.194 . S
N746 C741 1.328 . S
N746 C745 1.315 . S
H747 C741 0.929 . S
H748 C745 0.930 . S
H749 C737 0.929 . S
H750 C739 0.929 . S
O751 Co726 2.351 . S
O751 C754 1.244 . S
O752 Co726 2.155 . S
O752 C754 1.240 . S
O753 Co726 2.096 . S
O753 C734 1.247 . S
C754 O751 1.244 . S
C754 O752 1.240 . S
H755 C729 0.931 . S
H756 C738 0.931 . S
H757 C742 0.929 . S
H758 C744 0.930 . S
Co759 N763 2.148 . S
Co759 N769 2.128 . S
Co759 N779 2.194 . S
Co759 O784 2.351 . S
Co759 O785 2.155 . S
Co759 O786 2.096 . S
C760 N763 1.301 . S
C760 N764 1.328 . S
C760 H765 0.930 . S
C761 C762 1.333 . S
C761 N763 1.317 . S
C761 H766 0.930 . S
C762 C761 1.333 . S
C762 N764 1.350 . S
C762 H788 0.931 . S
N763 Co759 2.148 . S
N763 C760 1.301 . S
N763 C761 1.317 . S
N764 C760 1.328 . S
N764 C762 1.350 . S
H765 C760 0.930 . S
H766 C761 0.930 . S
C767 O768 1.224 . S
C767 O786 1.247 . S
O768 C767 1.224 . S
N769 Co759 2.128 . S
N769 C770 1.355 . S
N769 C772 1.311 . S
C770 N769 1.355 . S
C770 C771 1.363 . S
C770 H782 0.929 . S
C771 C770 1.363 . S
C771 N773 1.375 . S
C771 H789 0.931 . S
C772 N769 1.311 . S
C772 N773 1.347 . S
C772 H783 0.929 . S
N773 C771 1.375 . S
N773 C772 1.347 . S
C774 C777 1.365 . S
C774 N779 1.328 . S
C774 H780 0.929 . S
C775 C776 1.362 . S
C775 C778 1.378 . S
C775 H790 0.929 . S
C776 C775 1.362 . S
C776 C777 1.366 . S
C777 C774 1.365 . S
C777 C776 1.366 . S
C777 H791 0.930 . S
C778 C775 1.378 . S
C778 N779 1.315 . S
C778 H781 0.930 . S
N779 Co759 2.194 . S
N779 C774 1.328 . S
N779 C778 1.315 . S
H780 C774 0.929 . S
H781 C778 0.930 . S
H782 C770 0.929 . S
H783 C772 0.929 . S
O784 Co759 2.351 . S
O784 C787 1.244 . S
O785 Co759 2.155 . S
O785 C787 1.240 . S
O786 Co759 2.096 . S
O786 C767 1.247 . S
C787 O784 1.244 . S
C787 O785 1.240 . S
H788 C762 0.931 . S
H789 C771 0.931 . S
H790 C775 0.929 . S
H791 C777 0.930 . S
Co792 N796 2.148 . S
Co792 N802 2.128 . S
Co792 N812 2.194 . S
Co792 O817 2.351 . S
Co792 O818 2.155 . S
Co792 O819 2.096 . S
C793 N796 1.301 . S
C793 N797 1.328 . S
C793 H798 0.930 . S
C794 C795 1.333 . S
C794 N796 1.317 . S
C794 H799 0.930 . S
C795 C794 1.333 . S
C795 N797 1.350 . S
C795 H821 0.931 . S
N796 Co792 2.148 . S
N796 C793 1.301 . S
N796 C794 1.317 . S
N797 C793 1.328 . S
N797 C795 1.350 . S
H798 C793 0.930 . S
H799 C794 0.930 . S
C800 O801 1.224 . S
C800 O819 1.247 . S
O801 C800 1.224 . S
N802 Co792 2.128 . S
N802 C803 1.355 . S
N802 C805 1.311 . S
C803 N802 1.355 . S
C803 C804 1.363 . S
C803 H815 0.929 . S
C804 C803 1.363 . S
C804 N806 1.375 . S
C804 H822 0.931 . S
C805 N802 1.311 . S
C805 N806 1.347 . S
C805 H816 0.929 . S
N806 C804 1.375 . S
N806 C805 1.347 . S
C807 C810 1.365 . S
C807 N812 1.328 . S
C807 H813 0.929 . S
C808 C809 1.362 . S
C808 C811 1.378 . S
C808 H823 0.929 . S
C809 C808 1.362 . S
C809 C810 1.366 . S
C810 C807 1.365 . S
C810 C809 1.366 . S
C810 H824 0.930 . S
C811 C808 1.378 . S
C811 N812 1.315 . S
C811 H814 0.930 . S
N812 Co792 2.194 . S
N812 C807 1.328 . S
N812 C811 1.315 . S
H813 C807 0.929 . S
H814 C811 0.930 . S
H815 C803 0.929 . S
H816 C805 0.929 . S
O817 Co792 2.351 . S
O817 C820 1.244 . S
O818 Co792 2.155 . S
O818 C820 1.240 . S
O819 Co792 2.096 . S
O819 C800 1.247 . S
C820 O817 1.244 . S
C820 O818 1.240 . S
H821 C795 0.931 . S
H822 C804 0.931 . S
H823 C808 0.929 . S
H824 C810 0.930 . S
Co825 N829 2.148 . S
Co825 N835 2.128 . S
Co825 N845 2.194 . S
Co825 O850 2.351 . S
Co825 O851 2.155 . S
Co825 O852 2.096 . S
C826 N829 1.301 . S
C826 N830 1.328 . S
C826 H831 0.930 . S
C827 C828 1.333 . S
C827 N829 1.317 . S
C827 H832 0.930 . S
C828 C827 1.333 . S
C828 N830 1.350 . S
C828 H854 0.931 . S
N829 Co825 2.148 . S
N829 C826 1.301 . S
N829 C827 1.317 . S
N830 C826 1.328 . S
N830 C828 1.350 . S
H831 C826 0.930 . S
H832 C827 0.930 . S
C833 O834 1.224 . S
C833 O852 1.247 . S
O834 C833 1.224 . S
N835 Co825 2.128 . S
N835 C836 1.355 . S
N835 C838 1.311 . S
C836 N835 1.355 . S
C836 C837 1.363 . S
C836 H848 0.929 . S
C837 C836 1.363 . S
C837 N839 1.375 . S
C837 H855 0.931 . S
C838 N835 1.311 . S
C838 N839 1.347 . S
C838 H849 0.929 . S
N839 C837 1.375 . S
N839 C838 1.347 . S
C840 C843 1.365 . S
C840 N845 1.328 . S
C840 H846 0.929 . S
C841 C842 1.362 . S
C841 C844 1.378 . S
C841 H856 0.929 . S
C842 C841 1.362 . S
C842 C843 1.366 . S
C843 C840 1.365 . S
C843 C842 1.366 . S
C843 H857 0.930 . S
C844 C841 1.378 . S
C844 N845 1.315 . S
C844 H847 0.930 . S
N845 Co825 2.194 . S
N845 C840 1.328 . S
N845 C844 1.315 . S
H846 C840 0.929 . S
H847 C844 0.930 . S
H848 C836 0.929 . S
H849 C838 0.929 . S
O850 Co825 2.351 . S
O850 C853 1.244 . S
O851 Co825 2.155 . S
O851 C853 1.240 . S
O852 Co825 2.096 . S
O852 C833 1.247 . S
C853 O850 1.244 . S
C853 O851 1.240 . S
H854 C828 0.931 . S
H855 C837 0.931 . S
H856 C841 0.929 . S
H857 C843 0.930 . S
Co858 N862 2.148 . S
Co858 N868 2.128 . S
Co858 N878 2.194 . S
Co858 O883 2.351 . S
Co858 O884 2.155 . S
Co858 O885 2.096 . S
C859 N862 1.301 . S
C859 N863 1.328 . S
C859 H864 0.930 . S
C860 C861 1.333 . S
C860 N862 1.317 . S
C860 H865 0.930 . S
C861 C860 1.333 . S
C861 N863 1.350 . S
C861 H887 0.931 . S
N862 Co858 2.148 . S
N862 C859 1.301 . S
N862 C860 1.317 . S
N863 C859 1.328 . S
N863 C861 1.350 . S
H864 C859 0.930 . S
H865 C860 0.930 . S
C866 O867 1.224 . S
C866 O885 1.247 . S
O867 C866 1.224 . S
N868 Co858 2.128 . S
N868 C869 1.355 . S
N868 C871 1.311 . S
C869 N868 1.355 . S
C869 C870 1.363 . S
C869 H881 0.929 . S
C870 C869 1.363 . S
C870 N872 1.375 . S
C870 H888 0.931 . S
C871 N868 1.311 . S
C871 N872 1.347 . S
C871 H882 0.929 . S
N872 C870 1.375 . S
N872 C871 1.347 . S
C873 C876 1.365 . S
C873 N878 1.328 . S
C873 H879 0.929 . S
C874 C875 1.362 . S
C874 C877 1.378 . S
C874 H889 0.929 . S
C875 C874 1.362 . S
C875 C876 1.366 . S
C876 C873 1.365 . S
C876 C875 1.366 . S
C876 H890 0.930 . S
C877 C874 1.378 . S
C877 N878 1.315 . S
C877 H880 0.930 . S
N878 Co858 2.194 . S
N878 C873 1.328 . S
N878 C877 1.315 . S
H879 C873 0.929 . S
H880 C877 0.930 . S
H881 C869 0.929 . S
H882 C871 0.929 . S
O883 Co858 2.351 . S
O883 C886 1.244 . S
O884 Co858 2.155 . S
O884 C886 1.240 . S
O885 Co858 2.096 . S
O885 C866 1.247 . S
C886 O883 1.244 . S
C886 O884 1.240 . S
H887 C861 0.931 . S
H888 C870 0.931 . S
H889 C874 0.929 . S
H890 C876 0.930 . S
Co891 N895 2.148 . S
Co891 N901 2.128 . S
Co891 N911 2.194 . S
Co891 O916 2.351 . S
Co891 O917 2.155 . S
Co891 O918 2.096 . S
C892 N895 1.301 . S
C892 N896 1.328 . S
C892 H897 0.930 . S
C893 C894 1.333 . S
C893 N895 1.317 . S
C893 H898 0.930 . S
C894 C893 1.333 . S
C894 N896 1.350 . S
C894 H920 0.931 1_655 S
N895 Co891 2.148 . S
N895 C892 1.301 . S
N895 C893 1.317 . S
N896 C892 1.328 . S
N896 C894 1.350 . S
H897 C892 0.930 . S
H898 C893 0.930 . S
C899 O900 1.224 . S
C899 O918 1.247 . S
O900 C899 1.224 . S
N901 Co891 2.128 . S
N901 C902 1.355 . S
N901 C904 1.311 . S
C902 N901 1.355 . S
C902 C903 1.363 . S
C902 H914 0.929 . S
C903 C902 1.363 . S
C903 N905 1.375 . S
C903 H921 0.931 . S
C904 N901 1.311 . S
C904 N905 1.347 . S
C904 H915 0.929 . S
N905 C903 1.375 . S
N905 C904 1.347 . S
C906 C909 1.365 . S
C906 N911 1.328 . S
C906 H912 0.929 . S
C907 C908 1.362 . S
C907 C910 1.378 . S
C907 H922 0.929 . S
C908 C907 1.362 . S
C908 C909 1.366 . S
C909 C906 1.365 . S
C909 C908 1.366 . S
C909 H923 0.930 . S
C910 C907 1.378 . S
C910 N911 1.315 . S
C910 H913 0.930 . S
N911 Co891 2.194 . S
N911 C906 1.328 . S
N911 C910 1.315 . S
H912 C906 0.929 . S
H913 C910 0.930 . S
H914 C902 0.929 . S
H915 C904 0.929 . S
O916 Co891 2.351 . S
O916 C919 1.244 . S
O917 Co891 2.155 . S
O917 C919 1.240 . S
O918 Co891 2.096 . S
O918 C899 1.247 . S
C919 O916 1.244 . S
C919 O917 1.240 . S
H920 C894 0.931 1_455 S
H921 C903 0.931 . S
H922 C907 0.929 . S
H923 C909 0.930 . S
Co924 N928 2.148 . S
Co924 N934 2.128 . S
Co924 N944 2.194 . S
Co924 O949 2.351 . S
Co924 O950 2.155 . S
Co924 O951 2.096 . S
C925 N928 1.301 . S
C925 N929 1.328 . S
C925 H930 0.930 . S
C926 C927 1.333 . S
C926 N928 1.317 . S
C926 H931 0.930 . S
C927 C926 1.333 . S
C927 N929 1.350 . S
C927 H953 0.931 . S
N928 Co924 2.148 . S
N928 C925 1.301 . S
N928 C926 1.317 . S
N929 C925 1.328 . S
N929 C927 1.350 . S
H930 C925 0.930 . S
H931 C926 0.930 . S
C932 O933 1.224 . S
C932 O951 1.247 . S
O933 C932 1.224 . S
N934 Co924 2.128 . S
N934 C935 1.355 . S
N934 C937 1.311 . S
C935 N934 1.355 . S
C935 C936 1.363 . S
C935 H947 0.929 . S
C936 C935 1.363 . S
C936 N938 1.375 . S
C936 H954 0.931 . S
C937 N934 1.311 . S
C937 N938 1.347 . S
C937 H948 0.929 . S
N938 C936 1.375 . S
N938 C937 1.347 . S
C939 C942 1.365 . S
C939 N944 1.328 . S
C939 H945 0.929 . S
C940 C941 1.362 . S
C940 C943 1.378 . S
C940 H955 0.929 . S
C941 C940 1.362 . S
C941 C942 1.366 . S
C942 C939 1.365 . S
C942 C941 1.366 . S
C942 H956 0.930 . S
C943 C940 1.378 . S
C943 N944 1.315 . S
C943 H946 0.930 . S
N944 Co924 2.194 . S
N944 C939 1.328 . S
N944 C943 1.315 . S
H945 C939 0.929 . S
H946 C943 0.930 . S
H947 C935 0.929 . S
H948 C937 0.929 . S
O949 Co924 2.351 . S
O949 C952 1.244 . S
O950 Co924 2.155 . S
O950 C952 1.240 . S
O951 Co924 2.096 . S
O951 C932 1.247 . S
C952 O949 1.244 . S
C952 O950 1.240 . S
H953 C927 0.931 . S
H954 C936 0.931 . S
H955 C940 0.929 . S
H956 C942 0.930 . S
Co957 N961 2.148 . S
Co957 N967 2.128 . S
Co957 N977 2.194 . S
Co957 O982 2.351 . S
Co957 O983 2.155 . S
Co957 O984 2.096 . S
C958 N961 1.301 . S
C958 N962 1.328 . S
C958 H963 0.930 . S
C959 C960 1.333 . S
C959 N961 1.317 . S
C959 H964 0.930 . S
C960 C959 1.333 . S
C960 N962 1.350 . S
C960 H986 0.931 1_655 S
N961 Co957 2.148 . S
N961 C958 1.301 . S
N961 C959 1.317 . S
N962 C958 1.328 . S
N962 C960 1.350 . S
H963 C958 0.930 . S
H964 C959 0.930 . S
C965 O966 1.224 . S
C965 O984 1.247 . S
O966 C965 1.224 . S
N967 Co957 2.128 . S
N967 C968 1.355 . S
N967 C970 1.311 . S
C968 N967 1.355 . S
C968 C969 1.363 . S
C968 H980 0.929 . S
C969 C968 1.363 . S
C969 N971 1.375 . S
C969 H987 0.931 . S
C970 N967 1.311 . S
C970 N971 1.347 . S
C970 H981 0.929 . S
N971 C969 1.375 . S
N971 C970 1.347 . S
C972 C975 1.365 . S
C972 N977 1.328 . S
C972 H978 0.929 . S
C973 C974 1.362 . S
C973 C976 1.378 . S
C973 H988 0.929 . S
C974 C973 1.362 . S
C974 C975 1.366 . S
C975 C972 1.365 . S
C975 C974 1.366 . S
C975 H989 0.930 . S
C976 C973 1.378 . S
C976 N977 1.315 . S
C976 H979 0.930 . S
N977 Co957 2.194 . S
N977 C972 1.328 . S
N977 C976 1.315 . S
H978 C972 0.929 . S
H979 C976 0.930 . S
H980 C968 0.929 . S
H981 C970 0.929 . S
O982 Co957 2.351 . S
O982 C985 1.244 . S
O983 Co957 2.155 . S
O983 C985 1.240 . S
O984 Co957 2.096 . S
O984 C965 1.247 . S
C985 O982 1.244 . S
C985 O983 1.240 . S
H986 C960 0.931 1_455 S
H987 C969 0.931 . S
H988 C973 0.929 . S
H989 C975 0.930 . S
Co990 N994 2.148 . S
Co990 N1000 2.128 . S
Co990 N1010 2.194 . S
Co990 O1015 2.351 . S
Co990 O1016 2.155 . S
Co990 O1017 2.096 . S
C991 N994 1.301 . S
C991 N995 1.328 . S
C991 H996 0.930 . S
C992 C993 1.333 . S
C992 N994 1.317 . S
C992 H997 0.930 . S
C993 C992 1.333 . S
C993 N995 1.350 . S
C993 H1019 0.931 . S
N994 Co990 2.148 . S
N994 C991 1.301 . S
N994 C992 1.317 . S
N995 C991 1.328 . S
N995 C993 1.350 . S
H996 C991 0.930 . S
H997 C992 0.930 . S
C998 O999 1.224 . S
C998 O1017 1.247 . S
O999 C998 1.224 . S
N1000 Co990 2.128 . S
N1000 C1001 1.355 . S
N1000 C1003 1.311 . S
C1001 N1000 1.355 . S
C1001 C1002 1.363 . S
C1001 H1013 0.929 . S
C1002 C1001 1.363 . S
C1002 N1004 1.375 . S
C1002 H1020 0.931 . S
C1003 N1000 1.311 . S
C1003 N1004 1.347 . S
C1003 H1014 0.929 . S
N1004 C1002 1.375 . S
N1004 C1003 1.347 . S
C1005 C1008 1.365 . S
C1005 N1010 1.328 . S
C1005 H1011 0.929 . S
C1006 C1007 1.362 . S
C1006 C1009 1.378 . S
C1006 H1021 0.929 . S
C1007 C1006 1.362 . S
C1007 C1008 1.366 . S
C1008 C1005 1.365 . S
C1008 C1007 1.366 . S
C1008 H1022 0.930 . S
C1009 C1006 1.378 . S
C1009 N1010 1.315 . S
C1009 H1012 0.930 . S
N1010 Co990 2.194 . S
N1010 C1005 1.328 . S
N1010 C1009 1.315 . S
H1011 C1005 0.929 . S
H1012 C1009 0.930 . S
H1013 C1001 0.929 . S
H1014 C1003 0.929 . S
O1015 Co990 2.351 . S
O1015 C1018 1.244 . S
O1016 Co990 2.155 . S
O1016 C1018 1.240 . S
O1017 Co990 2.096 . S
O1017 C998 1.247 . S
C1018 O1015 1.244 . S
C1018 O1016 1.240 . S
H1019 C993 0.931 . S
H1020 C1002 0.931 . S
H1021 C1006 0.929 . S
H1022 C1008 0.930 . S
Co1023 N1027 2.148 . S
Co1023 N1033 2.128 . S
Co1023 N1043 2.194 . S
Co1023 O1048 2.351 . S
Co1023 O1049 2.155 . S
Co1023 O1050 2.096 . S
C1024 N1027 1.301 . S
C1024 N1028 1.328 . S
C1024 H1029 0.930 . S
C1025 C1026 1.333 . S
C1025 N1027 1.317 . S
C1025 H1030 0.930 . S
C1026 C1025 1.333 . S
C1026 N1028 1.350 . S
C1026 H1052 0.931 . S
N1027 Co1023 2.148 . S
N1027 C1024 1.301 . S
N1027 C1025 1.317 . S
N1028 C1024 1.328 . S
N1028 C1026 1.350 . S
H1029 C1024 0.930 . S
H1030 C1025 0.930 . S
C1031 O1032 1.224 . S
C1031 O1050 1.247 . S
O1032 C1031 1.224 . S
N1033 Co1023 2.128 . S
N1033 C1034 1.355 . S
N1033 C1036 1.311 . S
C1034 N1033 1.355 . S
C1034 C1035 1.363 . S
C1034 H1046 0.929 . S
C1035 C1034 1.363 . S
C1035 N1037 1.375 . S
C1035 H1053 0.931 . S
C1036 N1033 1.311 . S
C1036 N1037 1.347 . S
C1036 H1047 0.929 . S
N1037 C1035 1.375 . S
N1037 C1036 1.347 . S
C1038 C1041 1.365 . S
C1038 N1043 1.328 . S
C1038 H1044 0.929 . S
C1039 C1040 1.362 . S
C1039 C1042 1.378 . S
C1039 H1054 0.929 . S
C1040 C1039 1.362 . S
C1040 C1041 1.366 . S
C1041 C1038 1.365 . S
C1041 C1040 1.366 . S
C1041 H1055 0.930 . S
C1042 C1039 1.378 . S
C1042 N1043 1.315 . S
C1042 H1045 0.930 . S
N1043 Co1023 2.194 . S
N1043 C1038 1.328 . S
N1043 C1042 1.315 . S
H1044 C1038 0.929 . S
H1045 C1042 0.930 . S
H1046 C1034 0.929 . S
H1047 C1036 0.929 . S
O1048 Co1023 2.351 . S
O1048 C1051 1.244 . S
O1049 Co1023 2.155 . S
O1049 C1051 1.240 . S
O1050 Co1023 2.096 . S
O1050 C1031 1.247 . S
C1051 O1048 1.244 . S
C1051 O1049 1.240 . S
H1052 C1026 0.931 . S
H1053 C1035 0.931 . S
H1054 C1039 0.929 . S
H1055 C1041 0.930 . S
H1056 C1068 0.930 . S
H1057 C1070 0.930 . S
H1058 C1071 0.930 . S
H1059 C1075 0.959 . S
H1060 C1075 0.959 . S
H1061 C1075 0.961 . S
H1062 C1076 0.960 . S
H1063 C1076 0.961 . S
H1064 C1076 0.959 . S
H1065 C1079 0.929 . S
H1066 C1080 0.931 . S
H1067 C1082 0.930 . S
C1068 H1056 0.930 . S
C1068 C1069 1.399 . S
C1068 C1073 1.399 . S
C1069 C1068 1.399 . S
C1069 C1070 1.376 . S
C1070 H1057 0.930 . S
C1070 C1069 1.376 . S
C1070 C1071 1.388 . S
C1071 H1058 0.930 . S
C1071 C1070 1.388 . S
C1071 C1072 1.390 . S
C1072 C1071 1.390 . S
C1072 C1073 1.394 . S
C1072 C1078 1.465 . S
C1073 C1068 1.399 . S
C1073 C1072 1.394 . S
C1073 C1074 1.516 . S
C1074 C1073 1.516 . S
C1074 C1075 1.502 . S
C1074 C1076 1.561 . S
C1074 C1077 1.526 . S
C1075 H1059 0.959 . S
C1075 H1060 0.959 . S
C1075 H1061 0.961 . S
C1075 C1074 1.502 . S
C1076 H1062 0.960 . S
C1076 H1063 0.961 . S
C1076 H1064 0.959 . S
C1076 C1074 1.561 . S
C1077 C1074 1.526 . S
C1077 C1078 1.396 . S
C1077 C1082 1.390 . S
C1078 C1072 1.465 . S
C1078 C1077 1.396 . S
C1078 C1079 1.399 . S
C1079 H1065 0.929 . S
C1079 C1078 1.399 . S
C1079 C1080 1.385 . S
C1080 H1066 0.931 . S
C1080 C1079 1.385 . S
C1080 C1081 1.389 . S
C1081 C1080 1.389 . S
C1081 C1082 1.387 . S
C1082 H1067 0.930 . S
C1082 C1077 1.390 . S
C1082 C1081 1.387 . S
H1083 C1095 0.930 . S
H1084 C1097 0.930 . S
H1085 C1098 0.930 . S
H1086 C1102 0.959 . S
H1087 C1102 0.959 . S
H1088 C1102 0.961 . S
H1089 C1103 0.960 . S
H1090 C1103 0.961 . S
H1091 C1103 0.959 . S
H1092 C1106 0.929 . S
H1093 C1107 0.931 . S
H1094 C1109 0.909 1_565 S
C1095 H1083 0.930 . S
C1095 C1096 1.399 . S
C1095 C1100 1.399 . S
C1096 C1095 1.399 . S
C1096 C1097 1.376 1_565 S
C1097 H1084 0.930 . S
C1097 C1096 1.376 1_545 S
C1097 C1098 1.388 . S
C1098 H1085 0.930 . S
C1098 C1097 1.388 . S
C1098 C1099 1.390 . S
C1099 C1098 1.390 . S
C1099 C1100 1.394 1_545 S
C1099 C1105 1.438 1_455 S
C1100 C1095 1.399 . S
C1100 C1099 1.394 1_565 S
C1100 C1101 1.516 1_455 S
C1101 C1100 1.516 1_655 S
C1101 C1102 1.502 . S
C1101 C1103 1.561 . S
C1101 C1104 1.526 . S
C1102 H1086 0.959 . S
C1102 H1087 0.959 . S
C1102 H1088 0.961 . S
C1102 C1101 1.502 . S
C1103 H1089 0.960 . S
C1103 H1090 0.961 . S
C1103 H1091 0.959 . S
C1103 C1101 1.561 . S
C1104 C1101 1.526 . S
C1104 C1105 1.435 1_565 S
C1104 C1109 1.387 1_565 S
C1105 C1099 1.438 1_655 S
C1105 C1104 1.435 1_545 S
C1105 C1106 1.394 1_655 S
C1106 H1092 0.929 . S
C1106 C1105 1.394 1_455 S
C1106 C1107 1.385 1_455 S
C1107 H1093 0.931 . S
C1107 C1106 1.385 1_655 S
C1107 C1108 1.389 . S
C1108 C1107 1.389 . S
C1108 C1109 1.411 . S
C1109 H1094 0.909 1_545 S
C1109 C1104 1.387 1_545 S
C1109 C1108 1.411 . S
H1110 C1122 0.930 . S
H1111 C1124 0.930 . S
H1112 C1125 0.930 . S
H1113 C1129 0.959 . S
H1114 C1129 0.959 . S
H1115 C1129 0.961 . S
H1116 C1130 0.960 . S
H1117 C1130 0.961 . S
H1118 C1130 0.959 . S
H1119 C1133 0.929 . S
H1120 C1134 0.931 . S
H1121 C1136 0.930 . S
C1122 H1110 0.930 . S
C1122 C1123 1.399 . S
C1122 C1127 1.399 . S
C1123 C1122 1.399 . S
C1123 C1124 1.376 . S
C1124 H1111 0.930 . S
C1124 C1123 1.376 . S
C1124 C1125 1.388 . S
C1125 H1112 0.930 . S
C1125 C1124 1.388 . S
C1125 C1126 1.390 . S
C1126 C1125 1.390 . S
C1126 C1127 1.394 . S
C1126 C1132 1.465 . S
C1127 C1122 1.399 . S
C1127 C1126 1.394 . S
C1127 C1128 1.516 . S
C1128 C1127 1.516 . S
C1128 C1129 1.502 . S
C1128 C1130 1.561 . S
C1128 C1131 1.526 . S
C1129 H1113 0.959 . S
C1129 H1114 0.959 . S
C1129 H1115 0.961 . S
C1129 C1128 1.502 . S
C1130 H1116 0.960 . S
C1130 H1117 0.961 . S
C1130 H1118 0.959 . S
C1130 C1128 1.561 . S
C1131 C1128 1.526 . S
C1131 C1132 1.396 . S
C1131 C1136 1.390 . S
C1132 C1126 1.465 . S
C1132 C1131 1.396 . S
C1132 C1133 1.399 . S
C1133 H1119 0.929 . S
C1133 C1132 1.399 . S
C1133 C1134 1.385 . S
C1134 H1120 0.931 . S
C1134 C1133 1.385 . S
C1134 C1135 1.389 . S
C1135 C1134 1.389 . S
C1135 C1136 1.387 . S
C1136 H1121 0.930 . S
C1136 C1131 1.390 . S
C1136 C1135 1.387 . S
H1137 C1149 0.930 1_565 S
H1138 C1151 0.930 . S
H1139 C1152 0.930 . S
H1140 C1156 0.968 . S
H1141 C1156 0.959 . S
H1142 C1156 0.961 . S
H1143 C1157 0.960 . S
H1144 C1157 0.961 1_565 S
H1145 C1157 0.959 . S
H1146 C1160 0.929 . S
H1147 C1161 0.926 1_545 S
H1148 C1163 0.930 . S
C1149 H1137 0.930 1_545 S
C1149 C1150 1.399 . S
C1149 C1154 1.399 . S
C1150 C1149 1.399 . S
C1150 C1151 1.376 . S
C1151 H1138 0.930 . S
C1151 C1150 1.376 . S
C1151 C1152 1.388 . S
C1152 H1139 0.930 . S
C1152 C1151 1.388 . S
C1152 C1153 1.390 . S
C1153 C1152 1.390 . S
C1153 C1154 1.394 . S
C1153 C1159 1.465 1_554 S
C1154 C1149 1.399 . S
C1154 C1153 1.394 . S
C1154 C1155 1.516 1_544 S
C1155 C1154 1.516 1_566 S
C1155 C1156 1.502 . S
C1155 C1157 1.561 1_565 S
C1155 C1158 1.526 . S
C1156 H1140 0.968 . S
C1156 H1141 0.959 . S
C1156 H1142 0.961 . S
C1156 C1155 1.502 . S
C1157 H1143 0.960 . S
C1157 H1144 0.961 1_545 S
C1157 H1145 0.959 . S
C1157 C1155 1.561 1_545 S
C1158 C1155 1.526 . S
C1158 C1159 1.396 1_565 S
C1158 C1163 1.390 . S
C1159 C1153 1.465 1_556 S
C1159 C1158 1.396 1_545 S
C1159 C1160 1.399 . S
C1160 H1146 0.929 . S
C1160 C1159 1.399 . S
C1160 C1161 1.385 1_545 S
C1161 H1147 0.926 1_565 S
C1161 C1160 1.385 1_565 S
C1161 C1162 1.389 . S
C1162 C1161 1.389 . S
C1162 C1163 1.387 . S
C1163 H1148 0.930 . S
C1163 C1158 1.390 . S
C1163 C1162 1.387 . S
H1164 C1176 0.930 . S
H1165 C1178 0.930 . S
H1166 C1179 0.930 . S
H1167 C1183 0.959 . S
H1168 C1183 0.959 . S
H1169 C1183 0.961 . S
H1170 C1184 0.960 . S
H1171 C1184 0.961 . S
H1172 C1184 0.959 . S
H1173 C1187 0.929 . S
H1174 C1188 0.931 . S
H1175 C1190 0.930 . S
C1176 H1164 0.930 . S
C1176 C1177 1.399 . S
C1176 C1181 1.399 . S
C1177 C1176 1.399 . S
C1177 C1178 1.376 . S
C1178 H1165 0.930 . S
C1178 C1177 1.376 . S
C1178 C1179 1.388 . S
C1179 H1166 0.930 . S
C1179 C1178 1.388 . S
C1179 C1180 1.390 . S
C1180 C1179 1.390 . S
C1180 C1181 1.394 . S
C1180 C1186 1.465 . S
C1181 C1176 1.399 . S
C1181 C1180 1.394 . S
C1181 C1182 1.516 . S
C1182 C1181 1.516 . S
C1182 C1183 1.502 . S
C1182 C1184 1.561 . S
C1182 C1185 1.526 . S
C1183 H1167 0.959 . S
C1183 H1168 0.959 . S
C1183 H1169 0.961 . S
C1183 C1182 1.502 . S
C1184 H1170 0.960 . S
C1184 H1171 0.961 . S
C1184 H1172 0.959 . S
C1184 C1182 1.561 . S
C1185 C1182 1.526 . S
C1185 C1186 1.396 . S
C1185 C1190 1.390 . S
C1186 C1180 1.465 . S
C1186 C1185 1.396 . S
C1186 C1187 1.399 . S
C1187 H1173 0.929 . S
C1187 C1186 1.399 . S
C1187 C1188 1.385 . S
C1188 H1174 0.931 . S
C1188 C1187 1.385 . S
C1188 C1189 1.389 . S
C1189 C1188 1.389 . S
C1189 C1190 1.387 . S
C1190 H1175 0.930 . S
C1190 C1185 1.390 . S
C1190 C1189 1.387 . S
H1191 C1203 0.930 . S
H1192 C1205 0.930 . S
H1193 C1206 0.930 . S
H1194 C1210 0.959 . S
H1195 C1210 0.959 . S
H1196 C1210 0.961 . S
H1197 C1211 0.960 . S
H1198 C1211 0.961 . S
H1199 C1211 0.959 . S
H1200 C1214 0.929 . S
H1201 C1215 0.931 . S
H1202 C1217 0.930 . S
C1203 H1191 0.930 . S
C1203 C1204 1.399 1_545 S
C1203 C1208 1.399 . S
C1204 C1203 1.399 1_565 S
C1204 C1205 1.376 . S
C1205 H1192 0.930 . S
C1205 C1204 1.376 . S
C1205 C1206 1.388 . S
C1206 H1193 0.930 . S
C1206 C1205 1.388 . S
C1206 C1207 1.390 . S
C1207 C1206 1.390 . S
C1207 C1208 1.394 1_565 S
C1207 C1213 1.465 . S
C1208 C1203 1.399 . S
C1208 C1207 1.394 1_545 S
C1208 C1209 1.516 . S
C1209 C1208 1.516 . S
C1209 C1210 1.502 . S
C1209 C1211 1.561 . S
C1209 C1212 1.526 . S
C1210 H1194 0.959 . S
C1210 H1195 0.959 . S
C1210 H1196 0.961 . S
C1210 C1209 1.502 . S
C1211 H1197 0.960 . S
C1211 H1198 0.961 . S
C1211 H1199 0.959 . S
C1211 C1209 1.561 . S
C1212 C1209 1.526 . S
C1212 C1213 1.396 1_545 S
C1212 C1217 1.390 . S
C1213 C1207 1.465 . S
C1213 C1212 1.396 1_565 S
C1213 C1214 1.399 . S
C1214 H1200 0.929 . S
C1214 C1213 1.399 . S
C1214 C1215 1.385 . S
C1215 H1201 0.931 . S
C1215 C1214 1.385 . S
C1215 C1216 1.389 1_565 S
C1216 C1215 1.389 1_545 S
C1216 C1217 1.387 . S
C1217 H1202 0.930 . S
C1217 C1212 1.390 . S
C1217 C1216 1.387 . S
H1218 C1230 0.930 . S
H1219 C1232 0.930 . S
H1220 C1233 0.930 . S
H1221 C1237 0.959 . S
H1222 C1237 0.959 . S
H1223 C1237 0.961 . S
H1224 C1238 0.960 . S
H1225 C1238 0.961 . S
H1226 C1238 0.959 . S
H1227 C1241 0.929 . S
H1228 C1242 0.931 . S
H1229 C1244 0.930 . S
C1230 H1218 0.930 . S
C1230 C1231 1.399 . S
C1230 C1235 1.399 . S
C1231 C1230 1.399 . S
C1231 C1232 1.376 . S
C1232 H1219 0.930 . S
C1232 C1231 1.376 . S
C1232 C1233 1.388 . S
C1233 H1220 0.930 . S
C1233 C1232 1.388 . S
C1233 C1234 1.390 . S
C1234 C1233 1.390 . S
C1234 C1235 1.394 . S
C1234 C1240 1.465 . S
C1235 C1230 1.399 . S
C1235 C1234 1.394 . S
C1235 C1236 1.516 . S
C1236 C1235 1.516 . S
C1236 C1237 1.502 . S
C1236 C1238 1.561 . S
C1236 C1239 1.526 . S
C1237 H1221 0.959 . S
C1237 H1222 0.959 . S
C1237 H1223 0.961 . S
C1237 C1236 1.502 . S
C1238 H1224 0.960 . S
C1238 H1225 0.961 . S
C1238 H1226 0.959 . S
C1238 C1236 1.561 . S
C1239 C1236 1.526 . S
C1239 C1240 1.396 . S
C1239 C1244 1.390 . S
C1240 C1234 1.465 . S
C1240 C1239 1.396 . S
C1240 C1241 1.399 . S
C1241 H1227 0.929 . S
C1241 C1240 1.399 . S
C1241 C1242 1.385 . S
C1242 H1228 0.931 . S
C1242 C1241 1.385 . S
C1242 C1243 1.389 . S
C1243 C1242 1.389 . S
C1243 C1244 1.387 . S
C1244 H1229 0.930 . S
C1244 C1239 1.390 . S
C1244 C1243 1.387 . S
H1245 C1257 0.930 . S
H1246 C1259 0.930 . S
H1247 C1260 0.944 . S
H1248 C1264 0.959 . S
H1249 C1264 0.959 . S
H1250 C1264 0.961 . S
H1251 C1265 0.960 . S
H1252 C1265 0.961 1_554 S
H1253 C1265 0.959 1_554 S
H1254 C1268 0.929 . S
H1255 C1269 0.931 . S
H1256 C1271 0.930 . S
C1257 H1245 0.930 . S
C1257 C1258 1.399 1_565 S
C1257 C1262 1.399 . S
C1258 C1257 1.399 1_545 S
C1258 C1259 1.376 . S
C1259 H1246 0.930 . S
C1259 C1258 1.376 . S
C1259 C1260 1.388 . S
C1260 H1247 0.944 . S
C1260 C1259 1.388 . S
C1260 C1261 1.390 . S
C1261 C1260 1.390 . S
C1261 C1262 1.394 1_545 S
C1261 C1267 1.465 1_456 S
C1262 C1257 1.399 . S
C1262 C1261 1.394 1_565 S
C1262 C1263 1.516 . S
C1263 C1262 1.516 . S
C1263 C1264 1.502 1_455 S
C1263 C1265 1.561 . S
C1263 C1266 1.526 1_456 S
C1264 H1248 0.959 . S
C1264 H1249 0.959 . S
C1264 H1250 0.961 . S
C1264 C1263 1.502 1_655 S
C1265 H1251 0.960 . S
C1265 H1252 0.961 1_556 S
C1265 H1253 0.959 1_556 S
C1265 C1263 1.561 . S
C1266 C1263 1.526 1_654 S
C1266 C1267 1.396 1_565 S
C1266 C1271 1.390 . S
C1267 C1261 1.465 1_654 S
C1267 C1266 1.396 1_545 S
C1267 C1268 1.399 . S
C1268 H1254 0.929 . S
C1268 C1267 1.399 . S
C1268 C1269 1.385 . S
C1269 H1255 0.931 . S
C1269 C1268 1.385 . S
C1269 C1270 1.389 1_545 S
C1270 C1269 1.389 1_565 S
C1270 C1271 1.387 . S
C1271 H1256 0.930 . S
C1271 C1266 1.390 . S
C1271 C1270 1.387 . S
H1272 C1284 0.930 . S
H1273 C1286 0.930 . S
H1274 C1287 0.930 . S
H1275 C1291 0.959 . S
H1276 C1291 0.959 . S
H1277 C1291 0.961 . S
H1278 C1292 0.960 . S
H1279 C1292 0.961 . S
H1280 C1292 0.959 . S
H1281 C1295 0.929 . S
H1282 C1296 0.931 . S
H1283 C1298 0.930 . S
C1284 H1272 0.930 . S
C1284 C1285 1.399 . S
C1284 C1289 1.399 . S
C1285 C1284 1.399 . S
C1285 C1286 1.376 . S
C1286 H1273 0.930 . S
C1286 C1285 1.376 . S
C1286 C1287 1.388 . S
C1287 H1274 0.930 . S
C1287 C1286 1.388 . S
C1287 C1288 1.390 . S
C1288 C1287 1.390 . S
C1288 C1289 1.394 . S
C1288 C1294 1.465 . S
C1289 C1284 1.399 . S
C1289 C1288 1.394 . S
C1289 C1290 1.516 . S
C1290 C1289 1.516 . S
C1290 C1291 1.502 . S
C1290 C1292 1.561 . S
C1290 C1293 1.526 . S
C1291 H1275 0.959 . S
C1291 H1276 0.959 . S
C1291 H1277 0.961 . S
C1291 C1290 1.502 . S
C1292 H1278 0.960 . S
C1292 H1279 0.961 . S
C1292 H1280 0.959 . S
C1292 C1290 1.561 . S
C1293 C1290 1.526 . S
C1293 C1294 1.396 . S
C1293 C1298 1.390 . S
C1294 C1288 1.465 . S
C1294 C1293 1.396 . S
C1294 C1295 1.399 . S
C1295 H1281 0.929 . S
C1295 C1294 1.399 . S
C1295 C1296 1.385 . S
C1296 H1282 0.931 . S
C1296 C1295 1.385 . S
C1296 C1297 1.389 . S
C1297 C1296 1.389 . S
C1297 C1298 1.387 . S
C1298 H1283 0.930 . S
C1298 C1293 1.390 . S
C1298 C1297 1.387 . S
H1299 C1311 0.930 . S
H1300 C1313 0.930 . S
H1301 C1314 0.930 . S
H1302 C1318 0.959 . S
H1303 C1318 0.959 . S
H1304 C1318 0.961 . S
H1305 C1319 0.960 . S
H1306 C1319 0.961 . S
H1307 C1319 0.959 . S
H1308 C1322 0.929 . S
H1309 C1323 0.931 . S
H1310 C1325 0.930 . S
C1311 H1299 0.930 . S
C1311 C1312 1.399 . S
C1311 C1316 1.399 . S
C1312 C1311 1.399 . S
C1312 C1313 1.376 . S
C1313 H1300 0.930 . S
C1313 C1312 1.376 . S
C1313 C1314 1.388 . S
C1314 H1301 0.930 . S
C1314 C1313 1.388 . S
C1314 C1315 1.390 . S
C1315 C1314 1.390 . S
C1315 C1316 1.394 . S
C1315 C1321 1.465 . S
C1316 C1311 1.399 . S
C1316 C1315 1.394 . S
C1316 C1317 1.516 . S
C1317 C1316 1.516 . S
C1317 C1318 1.502 . S
C1317 C1319 1.561 . S
C1317 C1320 1.526 . S
C1318 H1302 0.959 . S
C1318 H1303 0.959 . S
C1318 H1304 0.961 . S
C1318 C1317 1.502 . S
C1319 H1305 0.960 . S
C1319 H1306 0.961 . S
C1319 H1307 0.959 . S
C1319 C1317 1.561 . S
C1320 C1317 1.526 . S
C1320 C1321 1.396 . S
C1320 C1325 1.390 . S
C1321 C1315 1.465 . S
C1321 C1320 1.396 . S
C1321 C1322 1.399 . S
C1322 H1308 0.929 . S
C1322 C1321 1.399 . S
C1322 C1323 1.385 . S
C1323 H1309 0.931 . S
C1323 C1322 1.385 . S
C1323 C1324 1.389 . S
C1324 C1323 1.389 . S
C1324 C1325 1.387 . S
C1325 H1310 0.930 . S
C1325 C1320 1.390 . S
C1325 C1324 1.387 . S
H1326 C1338 0.930 . S
H1327 C1340 0.930 . S
H1328 C1341 0.930 . S
H1329 C1345 0.959 . S
H1330 C1345 0.959 . S
H1331 C1345 0.961 . S
H1332 C1346 0.960 . S
H1333 C1346 0.961 . S
H1334 C1346 0.959 . S
H1335 C1349 0.929 . S
H1336 C1350 0.931 . S
H1337 C1352 0.930 . S
C1338 H1326 0.930 . S
C1338 C1339 1.399 . S
C1338 C1343 1.399 . S
C1339 C1338 1.399 . S
C1339 C1340 1.376 . S
C1340 H1327 0.930 . S
C1340 C1339 1.376 . S
C1340 C1341 1.388 . S
C1341 H1328 0.930 . S
C1341 C1340 1.388 . S
C1341 C1342 1.390 . S
C1342 C1341 1.390 . S
C1342 C1343 1.394 . S
C1342 C1348 1.465 . S
C1343 C1338 1.399 . S
C1343 C1342 1.394 . S
C1343 C1344 1.516 . S
C1344 C1343 1.516 . S
C1344 C1345 1.502 . S
C1344 C1346 1.561 . S
C1344 C1347 1.526 . S
C1345 H1329 0.959 . S
C1345 H1330 0.959 . S
C1345 H1331 0.961 . S
C1345 C1344 1.502 . S
C1346 H1332 0.960 . S
C1346 H1333 0.961 . S
C1346 H1334 0.959 . S
C1346 C1344 1.561 . S
C1347 C1344 1.526 . S
C1347 C1348 1.396 . S
C1347 C1352 1.390 . S
C1348 C1342 1.465 . S
C1348 C1347 1.396 . S
C1348 C1349 1.399 . S
C1349 H1335 0.929 . S
C1349 C1348 1.399 . S
C1349 C1350 1.385 . S
C1350 H1336 0.931 . S
C1350 C1349 1.385 . S
C1350 C1351 1.389 . S
C1351 C1350 1.389 . S
C1351 C1352 1.387 . S
C1352 H1337 0.930 . S
C1352 C1347 1.390 . S
C1352 C1351 1.387 . S
H1353 C1365 0.930 . S
H1354 C1367 0.930 . S
H1355 C1368 0.930 . S
H1356 C1372 0.959 . S
H1357 C1372 0.959 . S
H1358 C1372 0.961 . S
H1359 C1373 0.960 . S
H1360 C1373 0.961 . S
H1361 C1373 0.959 . S
H1362 C1376 0.929 . S
H1363 C1377 0.931 . S
H1364 C1379 0.930 . S
C1365 H1353 0.930 . S
C1365 C1366 1.399 . S
C1365 C1370 1.399 . S
C1366 C1365 1.399 . S
C1366 C1367 1.376 . S
C1367 H1354 0.930 . S
C1367 C1366 1.376 . S
C1367 C1368 1.388 . S
C1368 H1355 0.930 . S
C1368 C1367 1.388 . S
C1368 C1369 1.390 . S
C1369 C1368 1.390 . S
C1369 C1370 1.394 . S
C1369 C1375 1.465 . S
C1370 C1365 1.399 . S
C1370 C1369 1.394 . S
C1370 C1371 1.516 . S
C1371 C1370 1.516 . S
C1371 C1372 1.502 . S
C1371 C1373 1.561 . S
C1371 C1374 1.526 . S
C1372 H1356 0.959 . S
C1372 H1357 0.959 . S
C1372 H1358 0.961 . S
C1372 C1371 1.502 . S
C1373 H1359 0.960 . S
C1373 H1360 0.961 . S
C1373 H1361 0.959 . S
C1373 C1371 1.561 . S
C1374 C1371 1.526 . S
C1374 C1375 1.396 . S
C1374 C1379 1.390 . S
C1375 C1369 1.465 . S
C1375 C1374 1.396 . S
C1375 C1376 1.399 . S
C1376 H1362 0.929 . S
C1376 C1375 1.399 . S
C1376 C1377 1.385 . S
C1377 H1363 0.931 . S
C1377 C1376 1.385 . S
C1377 C1378 1.389 . S
C1378 C1377 1.389 . S
C1378 C1379 1.387 . S
C1379 H1364 0.930 . S
C1379 C1374 1.390 . S
C1379 C1378 1.387 . S
H1380 C1392 0.930 . S
H1381 C1394 0.930 . S
H1382 C1395 0.930 . S
H1383 C1399 0.959 1_554 S
H1384 C1399 0.959 1_554 S
H1385 C1399 0.962 . S
H1386 C1400 0.960 . S
H1387 C1400 0.961 . S
H1388 C1400 0.959 . S
H1389 C1403 0.929 . S
H1390 C1404 0.931 . S
H1391 C1406 0.930 . S
C1392 H1380 0.930 . S
C1392 C1393 1.399 . S
C1392 C1397 1.399 . S
C1393 C1392 1.399 . S
C1393 C1394 1.376 . S
C1394 H1381 0.930 . S
C1394 C1393 1.376 . S
C1394 C1395 1.388 . S
C1395 H1382 0.930 . S
C1395 C1394 1.388 . S
C1395 C1396 1.390 . S
C1396 C1395 1.390 . S
C1396 C1397 1.394 . S
C1396 C1402 1.465 1_556 S
C1397 C1392 1.399 . S
C1397 C1396 1.394 . S
C1397 C1398 1.516 . S
C1398 C1397 1.516 . S
C1398 C1399 1.502 . S
C1398 C1400 1.561 . S
C1398 C1401 1.526 1_556 S
C1399 H1383 0.959 1_556 S
C1399 H1384 0.959 1_556 S
C1399 H1385 0.962 . S
C1399 C1398 1.502 . S
C1400 H1386 0.960 . S
C1400 H1387 0.961 . S
C1400 H1388 0.959 . S
C1400 C1398 1.561 . S
C1401 C1398 1.526 1_554 S
C1401 C1402 1.396 . S
C1401 C1406 1.390 . S
C1402 C1396 1.465 1_554 S
C1402 C1401 1.396 . S
C1402 C1403 1.399 . S
C1403 H1389 0.929 . S
C1403 C1402 1.399 . S
C1403 C1404 1.385 . S
C1404 H1390 0.931 . S
C1404 C1403 1.385 . S
C1404 C1405 1.389 . S
C1405 C1404 1.389 . S
C1405 C1406 1.387 . S
C1406 H1391 0.930 . S
C1406 C1401 1.390 . S
C1406 C1405 1.387 . S
H1407 C1419 0.930 . S
H1408 C1421 0.930 . S
H1409 C1422 0.930 1_455 S
H1410 C1426 0.959 . S
H1411 C1426 0.959 . S
H1412 C1426 0.961 . S
H1413 C1427 0.958 1_655 S
H1414 C1427 0.961 . S
H1415 C1427 0.959 . S
H1416 C1430 0.929 . S
H1417 C1431 0.931 . S
H1418 C1433 0.930 . S
C1419 H1407 0.930 . S
C1419 C1420 1.399 . S
C1419 C1424 1.399 . S
C1420 C1419 1.399 . S
C1420 C1421 1.376 . S
C1421 H1408 0.930 . S
C1421 C1420 1.376 . S
C1421 C1422 1.388 . S
C1422 H1409 0.930 1_655 S
C1422 C1421 1.388 . S
C1422 C1423 1.396 . S
C1423 C1422 1.396 . S
C1423 C1424 1.420 . S
C1423 C1429 1.439 1_655 S
C1424 C1419 1.399 . S
C1424 C1423 1.420 . S
C1424 C1425 1.516 . S
C1425 C1424 1.516 . S
C1425 C1426 1.502 . S
C1425 C1427 1.561 1_655 S
C1425 C1428 1.526 1_655 S
C1426 H1410 0.959 . S
C1426 H1411 0.959 . S
C1426 H1412 0.961 . S
C1426 C1425 1.502 . S
C1427 H1413 0.958 1_455 S
C1427 H1414 0.961 . S
C1427 H1415 0.959 . S
C1427 C1425 1.561 1_455 S
C1428 C1425 1.526 1_455 S
C1428 C1429 1.396 . S
C1428 C1433 1.390 . S
C1429 C1423 1.439 1_455 S
C1429 C1428 1.396 . S
C1429 C1430 1.399 . S
C1430 H1416 0.929 . S
C1430 C1429 1.399 . S
C1430 C1431 1.385 . S
C1431 H1417 0.931 . S
C1431 C1430 1.385 . S
C1431 C1432 1.389 . S
C1432 C1431 1.389 . S
C1432 C1433 1.387 . S
C1433 H1418 0.930 . S
C1433 C1428 1.390 . S
C1433 C1432 1.387 . S
H1434 C1446 0.930 . S
H1435 C1448 0.930 . S
H1436 C1449 0.930 . S
H1437 C1453 0.959 . S
H1438 C1453 0.959 . S
H1439 C1453 0.961 . S
H1440 C1454 0.960 . S
H1441 C1454 0.961 1_556 S
H1442 C1454 0.919 1_655 S
H1443 C1457 0.929 . S
H1444 C1458 0.931 . S
H1445 C1460 0.930 . S
C1446 H1434 0.930 . S
C1446 C1447 1.399 . S
C1446 C1451 1.399 . S
C1447 C1446 1.399 . S
C1447 C1448 1.376 . S
C1448 H1435 0.930 . S
C1448 C1447 1.376 . S
C1448 C1449 1.388 1_455 S
C1449 H1436 0.930 . S
C1449 C1448 1.388 1_655 S
C1449 C1450 1.390 . S
C1450 C1449 1.390 . S
C1450 C1451 1.394 1_655 S
C1450 C1456 1.465 1_554 S
C1451 C1446 1.399 . S
C1451 C1450 1.394 1_455 S
C1451 C1452 1.516 1_554 S
C1452 C1451 1.516 1_556 S
C1452 C1453 1.502 . S
C1452 C1454 1.561 1_556 S
C1452 C1455 1.526 1_455 S
C1453 H1437 0.959 . S
C1453 H1438 0.959 . S
C1453 H1439 0.961 . S
C1453 C1452 1.502 . S
C1454 H1440 0.960 . S
C1454 H1441 0.961 1_554 S
C1454 H1442 0.919 1_455 S
C1454 C1452 1.561 1_554 S
C1455 C1452 1.526 1_655 S
C1455 C1456 1.396 . S
C1455 C1460 1.390 . S
C1456 C1450 1.465 1_556 S
C1456 C1455 1.396 . S
C1456 C1457 1.399 . S
C1457 H1443 0.929 . S
C1457 C1456 1.399 . S
C1457 C1458 1.385 . S
C1458 H1444 0.931 . S
C1458 C1457 1.385 . S
C1458 C1459 1.389 . S
C1459 C1458 1.389 . S
C1459 C1460 1.387 . S
C1460 H1445 0.930 . S
C1460 C1455 1.390 . S
C1460 C1459 1.387 . S
H1461 C1473 0.930 . S
H1462 C1475 0.930 . S
H1463 C1476 0.930 . S
H1464 C1480 0.959 . S
H1465 C1480 0.959 . S
H1466 C1480 0.961 . S
H1467 C1481 0.960 . S
H1468 C1481 0.961 . S
H1469 C1481 0.959 . S
H1470 C1484 0.929 . S
H1471 C1485 0.931 . S
H1472 C1487 0.930 . S
C1473 H1461 0.930 . S
C1473 C1474 1.399 . S
C1473 C1478 1.399 . S
C1474 C1473 1.399 . S
C1474 C1475 1.376 . S
C1475 H1462 0.930 . S
C1475 C1474 1.376 . S
C1475 C1476 1.388 . S
C1476 H1463 0.930 . S
C1476 C1475 1.388 . S
C1476 C1477 1.390 . S
C1477 C1476 1.390 . S
C1477 C1478 1.394 . S
C1477 C1483 1.465 . S
C1478 C1473 1.399 . S
C1478 C1477 1.394 . S
C1478 C1479 1.516 . S
C1479 C1478 1.516 . S
C1479 C1480 1.502 . S
C1479 C1481 1.561 . S
C1479 C1482 1.526 . S
C1480 H1464 0.959 . S
C1480 H1465 0.959 . S
C1480 H1466 0.961 . S
C1480 C1479 1.502 . S
C1481 H1467 0.960 . S
C1481 H1468 0.961 . S
C1481 H1469 0.959 . S
C1481 C1479 1.561 . S
C1482 C1479 1.526 . S
C1482 C1483 1.396 . S
C1482 C1487 1.390 . S
C1483 C1477 1.465 . S
C1483 C1482 1.396 . S
C1483 C1484 1.399 . S
C1484 H1470 0.929 . S
C1484 C1483 1.399 . S
C1484 C1485 1.385 . S
C1485 H1471 0.931 . S
C1485 C1484 1.385 . S
C1485 C1486 1.389 . S
C1486 C1485 1.389 . S
C1486 C1487 1.387 . S
C1487 H1472 0.930 . S
C1487 C1482 1.390 . S
C1487 C1486 1.387 . S
H1488 C1500 0.930 . S
H1489 C1502 0.930 . S
H1490 C1503 0.930 . S
H1491 C1507 0.959 . S
H1492 C1507 0.959 . S
H1493 C1507 0.961 . S
H1494 C1508 0.960 . S
H1495 C1508 0.961 . S
H1496 C1508 0.959 . S
H1497 C1511 0.929 . S
H1498 C1512 0.931 . S
H1499 C1514 0.930 . S
C1500 H1488 0.930 . S
C1500 C1501 1.399 . S
C1500 C1505 1.399 . S
C1501 C1500 1.399 . S
C1501 C1502 1.376 . S
C1502 H1489 0.930 . S
C1502 C1501 1.376 . S
C1502 C1503 1.388 . S
C1503 H1490 0.930 . S
C1503 C1502 1.388 . S
C1503 C1504 1.390 . S
C1504 C1503 1.390 . S
C1504 C1505 1.394 . S
C1504 C1510 1.465 . S
C1505 C1500 1.399 . S
C1505 C1504 1.394 . S
C1505 C1506 1.516 . S
C1506 C1505 1.516 . S
C1506 C1507 1.502 . S
C1506 C1508 1.561 . S
C1506 C1509 1.526 . S
C1507 H1491 0.959 . S
C1507 H1492 0.959 . S
C1507 H1493 0.961 . S
C1507 C1506 1.502 . S
C1508 H1494 0.960 . S
C1508 H1495 0.961 . S
C1508 H1496 0.959 . S
C1508 C1506 1.561 . S
C1509 C1506 1.526 . S
C1509 C1510 1.396 . S
C1509 C1514 1.390 . S
C1510 C1504 1.465 . S
C1510 C1509 1.396 . S
C1510 C1511 1.399 . S
C1511 H1497 0.929 . S
C1511 C1510 1.399 . S
C1511 C1512 1.385 . S
C1512 H1498 0.931 . S
C1512 C1511 1.385 . S
C1512 C1513 1.389 . S
C1513 C1512 1.389 . S
C1513 C1514 1.387 . S
C1514 H1499 0.930 . S
C1514 C1509 1.390 . S
C1514 C1513 1.387 . S
H1515 C1527 0.930 . S
H1516 C1529 0.930 . S
H1517 C1530 0.930 . S
H1518 C1534 0.959 . S
H1519 C1534 0.959 . S
H1520 C1534 0.961 . S
H1521 C1535 0.960 . S
H1522 C1535 0.961 . S
H1523 C1535 0.959 . S
H1524 C1538 0.929 . S
H1525 C1539 0.931 . S
H1526 C1541 0.930 . S
C1527 H1515 0.930 . S
C1527 C1528 1.399 . S
C1527 C1532 1.399 . S
C1528 C1527 1.399 . S
C1528 C1529 1.376 . S
C1529 H1516 0.930 . S
C1529 C1528 1.376 . S
C1529 C1530 1.388 . S
C1530 H1517 0.930 . S
C1530 C1529 1.388 . S
C1530 C1531 1.390 . S
C1531 C1530 1.390 . S
C1531 C1532 1.394 . S
C1531 C1537 1.465 . S
C1532 C1527 1.399 . S
C1532 C1531 1.394 . S
C1532 C1533 1.516 . S
C1533 C1532 1.516 . S
C1533 C1534 1.502 . S
C1533 C1535 1.561 . S
C1533 C1536 1.526 . S
C1534 H1518 0.959 . S
C1534 H1519 0.959 . S
C1534 H1520 0.961 . S
C1534 C1533 1.502 . S
C1535 H1521 0.960 . S
C1535 H1522 0.961 . S
C1535 H1523 0.959 . S
C1535 C1533 1.561 . S
C1536 C1533 1.526 . S
C1536 C1537 1.396 . S
C1536 C1541 1.390 . S
C1537 C1531 1.465 . S
C1537 C1536 1.396 . S
C1537 C1538 1.399 . S
C1538 H1524 0.929 . S
C1538 C1537 1.399 . S
C1538 C1539 1.385 . S
C1539 H1525 0.931 . S
C1539 C1538 1.385 . S
C1539 C1540 1.389 . S
C1540 C1539 1.389 . S
C1540 C1541 1.387 . S
C1541 H1526 0.930 . S
C1541 C1536 1.390 . S
C1541 C1540 1.387 . S
H1542 C1554 0.930 . S
H1543 C1556 0.930 . S
H1544 C1557 0.930 . S
H1545 C1561 0.959 . S
H1546 C1561 0.959 . S
H1547 C1561 0.961 . S
H1548 C1562 0.960 . S
H1549 C1562 0.961 . S
H1550 C1562 0.959 . S
H1551 C1565 0.929 . S
H1552 C1566 0.931 . S
H1553 C1568 0.930 . S
C1554 H1542 0.930 . S
C1554 C1555 1.399 . S
C1554 C1559 1.399 . S
C1555 C1554 1.399 . S
C1555 C1556 1.376 . S
C1556 H1543 0.930 . S
C1556 C1555 1.376 . S
C1556 C1557 1.388 . S
C1557 H1544 0.930 . S
C1557 C1556 1.388 . S
C1557 C1558 1.390 . S
C1558 C1557 1.390 . S
C1558 C1559 1.394 . S
C1558 C1564 1.465 . S
C1559 C1554 1.399 . S
C1559 C1558 1.394 . S
C1559 C1560 1.516 . S
C1560 C1559 1.516 . S
C1560 C1561 1.502 . S
C1560 C1562 1.561 . S
C1560 C1563 1.526 . S
C1561 H1545 0.959 . S
C1561 H1546 0.959 . S
C1561 H1547 0.961 . S
C1561 C1560 1.502 . S
C1562 H1548 0.960 . S
C1562 H1549 0.961 . S
C1562 H1550 0.959 . S
C1562 C1560 1.561 . S
C1563 C1560 1.526 . S
C1563 C1564 1.396 . S
C1563 C1568 1.390 . S
C1564 C1558 1.465 . S
C1564 C1563 1.396 . S
C1564 C1565 1.399 . S
C1565 H1551 0.929 . S
C1565 C1564 1.399 . S
C1565 C1566 1.385 . S
C1566 H1552 0.931 . S
C1566 C1565 1.385 . S
C1566 C1567 1.389 . S
C1567 C1566 1.389 . S
C1567 C1568 1.387 . S
C1568 H1553 0.930 . S
C1568 C1563 1.390 . S
C1568 C1567 1.387 . S
H1569 C1581 0.930 . S
H1570 C1583 0.930 . S
H1571 C1584 0.930 . S
H1572 C1588 0.959 . S
H1573 C1588 0.959 . S
H1574 C1588 0.961 . S
H1575 C1589 0.960 . S
H1576 C1589 0.961 . S
H1577 C1589 0.959 . S
H1578 C1592 0.929 . S
H1579 C1593 0.931 . S
H1580 C1595 0.930 . S
C1581 H1569 0.930 . S
C1581 C1582 1.399 . S
C1581 C1586 1.399 . S
C1582 C1581 1.399 . S
C1582 C1583 1.376 . S
C1583 H1570 0.930 . S
C1583 C1582 1.376 . S
C1583 C1584 1.388 . S
C1584 H1571 0.930 . S
C1584 C1583 1.388 . S
C1584 C1585 1.390 . S
C1585 C1584 1.390 . S
C1585 C1586 1.394 . S
C1585 C1591 1.465 . S
C1586 C1581 1.399 . S
C1586 C1585 1.394 . S
C1586 C1587 1.516 . S
C1587 C1586 1.516 . S
C1587 C1588 1.502 . S
C1587 C1589 1.561 . S
C1587 C1590 1.526 . S
C1588 H1572 0.959 . S
C1588 H1573 0.959 . S
C1588 H1574 0.961 . S
C1588 C1587 1.502 . S
C1589 H1575 0.960 . S
C1589 H1576 0.961 . S
C1589 H1577 0.959 . S
C1589 C1587 1.561 . S
C1590 C1587 1.526 . S
C1590 C1591 1.396 . S
C1590 C1595 1.390 . S
C1591 C1585 1.465 . S
C1591 C1590 1.396 . S
C1591 C1592 1.399 . S
C1592 H1578 0.929 . S
C1592 C1591 1.399 . S
C1592 C1593 1.385 . S
C1593 H1579 0.931 . S
C1593 C1592 1.385 . S
C1593 C1594 1.389 . S
C1594 C1593 1.389 . S
C1594 C1595 1.387 . S
C1595 H1580 0.930 . S
C1595 C1590 1.390 . S
C1595 C1594 1.387 . S
H1596 C1608 0.930 . S
H1597 C1610 0.930 . S
H1598 C1611 0.930 . S
H1599 C1615 0.959 . S
H1600 C1615 0.959 . S
H1601 C1615 0.961 . S
H1602 C1616 0.960 . S
H1603 C1616 0.961 . S
H1604 C1616 0.959 . S
H1605 C1619 0.929 . S
H1606 C1620 0.931 . S
H1607 C1622 0.930 . S
C1608 H1596 0.930 . S
C1608 C1609 1.399 . S
C1608 C1613 1.399 . S
C1609 C1608 1.399 . S
C1609 C1610 1.376 . S
C1610 H1597 0.930 . S
C1610 C1609 1.376 . S
C1610 C1611 1.388 . S
C1611 H1598 0.930 . S
C1611 C1610 1.388 . S
C1611 C1612 1.390 . S
C1612 C1611 1.390 . S
C1612 C1613 1.394 . S
C1612 C1618 1.465 . S
C1613 C1608 1.399 . S
C1613 C1612 1.394 . S
C1613 C1614 1.516 . S
C1614 C1613 1.516 . S
C1614 C1615 1.502 . S
C1614 C1616 1.561 . S
C1614 C1617 1.526 . S
C1615 H1599 0.959 . S
C1615 H1600 0.959 . S
C1615 H1601 0.961 . S
C1615 C1614 1.502 . S
C1616 H1602 0.960 . S
C1616 H1603 0.961 . S
C1616 H1604 0.959 . S
C1616 C1614 1.561 . S
C1617 C1614 1.526 . S
C1617 C1618 1.396 . S
C1617 C1622 1.390 . S
C1618 C1612 1.465 . S
C1618 C1617 1.396 . S
C1618 C1619 1.399 . S
C1619 H1605 0.929 . S
C1619 C1618 1.399 . S
C1619 C1620 1.385 . S
C1620 H1606 0.931 . S
C1620 C1619 1.385 . S
C1620 C1621 1.389 . S
C1621 C1620 1.389 . S
C1621 C1622 1.387 . S
C1622 H1607 0.930 . S
C1622 C1617 1.390 . S
C1622 C1621 1.387 . S
H1623 C1635 0.930 . S
H1624 C1637 0.930 . S
H1625 C1638 0.930 . S
H1626 C1642 0.959 . S
H1627 C1642 0.959 . S
H1628 C1642 0.961 . S
H1629 C1643 0.960 . S
H1630 C1643 0.961 . S
H1631 C1643 0.959 . S
H1632 C1646 0.929 . S
H1633 C1647 0.931 . S
H1634 C1649 0.930 . S
C1635 H1623 0.930 . S
C1635 C1636 1.399 . S
C1635 C1640 1.399 . S
C1636 C1635 1.399 . S
C1636 C1637 1.376 . S
C1637 H1624 0.930 . S
C1637 C1636 1.376 . S
C1637 C1638 1.388 . S
C1638 H1625 0.930 . S
C1638 C1637 1.388 . S
C1638 C1639 1.390 . S
C1639 C1638 1.390 . S
C1639 C1640 1.394 . S
C1639 C1645 1.465 . S
C1640 C1635 1.399 . S
C1640 C1639 1.394 . S
C1640 C1641 1.516 . S
C1641 C1640 1.516 . S
C1641 C1642 1.502 . S
C1641 C1643 1.561 . S
C1641 C1644 1.526 . S
C1642 H1626 0.959 . S
C1642 H1627 0.959 . S
C1642 H1628 0.961 . S
C1642 C1641 1.502 . S
C1643 H1629 0.960 . S
C1643 H1630 0.961 . S
C1643 H1631 0.959 . S
C1643 C1641 1.561 . S
C1644 C1641 1.526 . S
C1644 C1645 1.396 . S
C1644 C1649 1.390 . S
C1645 C1639 1.465 . S
C1645 C1644 1.396 . S
C1645 C1646 1.399 . S
C1646 H1632 0.929 . S
C1646 C1645 1.399 . S
C1646 C1647 1.385 . S
C1647 H1633 0.931 . S
C1647 C1646 1.385 . S
C1647 C1648 1.389 . S
C1648 C1647 1.389 . S
C1648 C1649 1.387 . S
C1649 H1634 0.930 . S
C1649 C1644 1.390 . S
C1649 C1648 1.387 . S
H1650 C1662 0.930 . S
H1651 C1664 0.930 . S
H1652 C1665 0.930 . S
H1653 C1669 0.959 . S
H1654 C1669 0.959 . S
H1655 C1669 0.961 . S
H1656 C1670 0.960 . S
H1657 C1670 0.961 . S
H1658 C1670 0.959 . S
H1659 C1673 0.929 . S
H1660 C1674 0.931 . S
H1661 C1676 0.930 . S
C1662 H1650 0.930 . S
C1662 C1663 1.399 . S
C1662 C1667 1.399 . S
C1663 C1662 1.399 . S
C1663 C1664 1.376 . S
C1664 H1651 0.930 . S
C1664 C1663 1.376 . S
C1664 C1665 1.388 . S
C1665 H1652 0.930 . S
C1665 C1664 1.388 . S
C1665 C1666 1.390 . S
C1666 C1665 1.390 . S
C1666 C1667 1.394 . S
C1666 C1672 1.465 . S
C1667 C1662 1.399 . S
C1667 C1666 1.394 . S
C1667 C1668 1.516 . S
C1668 C1667 1.516 . S
C1668 C1669 1.502 . S
C1668 C1670 1.561 . S
C1668 C1671 1.526 . S
C1669 H1653 0.959 . S
C1669 H1654 0.959 . S
C1669 H1655 0.961 . S
C1669 C1668 1.502 . S
C1670 H1656 0.960 . S
C1670 H1657 0.961 . S
C1670 H1658 0.959 . S
C1670 C1668 1.561 . S
C1671 C1668 1.526 . S
C1671 C1672 1.396 . S
C1671 C1676 1.390 . S
C1672 C1666 1.465 . S
C1672 C1671 1.396 . S
C1672 C1673 1.399 . S
C1673 H1659 0.929 . S
C1673 C1672 1.399 . S
C1673 C1674 1.385 . S
C1674 H1660 0.931 . S
C1674 C1673 1.385 . S
C1674 C1675 1.389 . S
C1675 C1674 1.389 . S
C1675 C1676 1.387 . S
C1676 H1661 0.930 . S
C1676 C1671 1.390 . S
C1676 C1675 1.387 . S
H1677 C1689 0.930 . S
H1678 C1691 0.930 . S
H1679 C1692 0.930 . S
H1680 C1696 0.959 . S
H1681 C1696 0.959 . S
H1682 C1696 0.961 . S
H1683 C1697 0.960 . S
H1684 C1697 0.961 . S
H1685 C1697 0.959 . S
H1686 C1700 0.929 . S
H1687 C1701 0.931 . S
H1688 C1703 0.930 . S
C1689 H1677 0.930 . S
C1689 C1690 1.399 . S
C1689 C1694 1.399 . S
C1690 C1689 1.399 . S
C1690 C1691 1.376 . S
C1691 H1678 0.930 . S
C1691 C1690 1.376 . S
C1691 C1692 1.388 . S
C1692 H1679 0.930 . S
C1692 C1691 1.388 . S
C1692 C1693 1.390 . S
C1693 C1692 1.390 . S
C1693 C1694 1.394 . S
C1693 C1699 1.465 . S
C1694 C1689 1.399 . S
C1694 C1693 1.394 . S
C1694 C1695 1.516 . S
C1695 C1694 1.516 . S
C1695 C1696 1.502 . S
C1695 C1697 1.561 . S
C1695 C1698 1.526 . S
C1696 H1680 0.959 . S
C1696 H1681 0.959 . S
C1696 H1682 0.961 . S
C1696 C1695 1.502 . S
C1697 H1683 0.960 . S
C1697 H1684 0.961 . S
C1697 H1685 0.959 . S
C1697 C1695 1.561 . S
C1698 C1695 1.526 . S
C1698 C1699 1.396 . S
C1698 C1703 1.390 . S
C1699 C1693 1.465 . S
C1699 C1698 1.396 . S
C1699 C1700 1.399 . S
C1700 H1686 0.929 . S
C1700 C1699 1.399 . S
C1700 C1701 1.385 . S
C1701 H1687 0.931 . S
C1701 C1700 1.385 . S
C1701 C1702 1.389 . S
C1702 C1701 1.389 . S
C1702 C1703 1.387 . S
C1703 H1688 0.930 . S
C1703 C1698 1.390 . S
C1703 C1702 1.387 . S
H1704 C1716 0.930 . S
H1705 C1718 0.930 . S
H1706 C1719 0.930 . S
H1707 C1723 0.959 . S
H1708 C1723 0.959 . S
H1709 C1723 0.961 . S
H1710 C1724 0.960 . S
H1711 C1724 0.961 . S
H1712 C1724 0.959 . S
H1713 C1727 0.929 . S
H1714 C1728 0.931 . S
H1715 C1730 0.930 . S
C1716 H1704 0.930 . S
C1716 C1717 1.399 . S
C1716 C1721 1.399 . S
C1717 C1716 1.399 . S
C1717 C1718 1.376 . S
C1718 H1705 0.930 . S
C1718 C1717 1.376 . S
C1718 C1719 1.388 . S
C1719 H1706 0.930 . S
C1719 C1718 1.388 . S
C1719 C1720 1.390 . S
C1720 C1719 1.390 . S
C1720 C1721 1.394 . S
C1720 C1726 1.465 . S
C1721 C1716 1.399 . S
C1721 C1720 1.394 . S
C1721 C1722 1.516 . S
C1722 C1721 1.516 . S
C1722 C1723 1.502 . S
C1722 C1724 1.561 . S
C1722 C1725 1.526 . S
C1723 H1707 0.959 . S
C1723 H1708 0.959 . S
C1723 H1709 0.961 . S
C1723 C1722 1.502 . S
C1724 H1710 0.960 . S
C1724 H1711 0.961 . S
C1724 H1712 0.959 . S
C1724 C1722 1.561 . S
C1725 C1722 1.526 . S
C1725 C1726 1.396 . S
C1725 C1730 1.390 . S
C1726 C1720 1.465 . S
C1726 C1725 1.396 . S
C1726 C1727 1.399 . S
C1727 H1713 0.929 . S
C1727 C1726 1.399 . S
C1727 C1728 1.385 . S
C1728 H1714 0.931 . S
C1728 C1727 1.385 . S
C1728 C1729 1.389 . S
C1729 C1728 1.389 . S
C1729 C1730 1.387 . S
C1730 H1715 0.930 . S
C1730 C1725 1.390 . S
C1730 C1729 1.387 . S
H1731 C1743 0.930 . S
H1732 C1745 0.930 . S
H1733 C1746 0.930 . S
H1734 C1750 0.959 . S
H1735 C1750 0.959 . S
H1736 C1750 0.961 . S
H1737 C1751 0.960 . S
H1738 C1751 0.961 . S
H1739 C1751 0.959 . S
H1740 C1754 0.929 . S
H1741 C1755 0.931 . S
H1742 C1757 0.930 . S
C1743 H1731 0.930 . S
C1743 C1744 1.399 . S
C1743 C1748 1.399 . S
C1744 C1743 1.399 . S
C1744 C1745 1.376 . S
C1745 H1732 0.930 . S
C1745 C1744 1.376 . S
C1745 C1746 1.388 . S
C1746 H1733 0.930 . S
C1746 C1745 1.388 . S
C1746 C1747 1.390 . S
C1747 C1746 1.390 . S
C1747 C1748 1.394 . S
C1747 C1753 1.465 . S
C1748 C1743 1.399 . S
C1748 C1747 1.394 . S
C1748 C1749 1.516 . S
C1749 C1748 1.516 . S
C1749 C1750 1.502 . S
C1749 C1751 1.561 . S
C1749 C1752 1.526 . S
C1750 H1734 0.959 . S
C1750 H1735 0.959 . S
C1750 H1736 0.961 . S
C1750 C1749 1.502 . S
C1751 H1737 0.960 . S
C1751 H1738 0.961 . S
C1751 H1739 0.959 . S
C1751 C1749 1.561 . S
C1752 C1749 1.526 . S
C1752 C1753 1.396 . S
C1752 C1757 1.390 . S
C1753 C1747 1.465 . S
C1753 C1752 1.396 . S
C1753 C1754 1.399 . S
C1754 H1740 0.929 . S
C1754 C1753 1.399 . S
C1754 C1755 1.385 . S
C1755 H1741 0.931 . S
C1755 C1754 1.385 . S
C1755 C1756 1.389 . S
C1756 C1755 1.389 . S
C1756 C1757 1.387 . S
C1757 H1742 0.930 . S
C1757 C1752 1.390 . S
C1757 C1756 1.387 . S
H1758 C1770 0.930 . S
H1759 C1772 0.930 . S
H1760 C1773 0.930 . S
H1761 C1777 0.959 . S
H1762 C1777 0.959 . S
H1763 C1777 0.961 . S
H1764 C1778 0.960 . S
H1765 C1778 0.961 . S
H1766 C1778 0.959 . S
H1767 C1781 0.929 . S
H1768 C1782 0.931 . S
H1769 C1784 0.930 . S
C1770 H1758 0.930 . S
C1770 C1771 1.399 . S
C1770 C1775 1.399 . S
C1771 C1770 1.399 . S
C1771 C1772 1.376 . S
C1772 H1759 0.930 . S
C1772 C1771 1.376 . S
C1772 C1773 1.388 . S
C1773 H1760 0.930 . S
C1773 C1772 1.388 . S
C1773 C1774 1.390 . S
C1774 C1773 1.390 . S
C1774 C1775 1.394 . S
C1774 C1780 1.465 . S
C1775 C1770 1.399 . S
C1775 C1774 1.394 . S
C1775 C1776 1.516 . S
C1776 C1775 1.516 . S
C1776 C1777 1.502 . S
C1776 C1778 1.561 . S
C1776 C1779 1.526 . S
C1777 H1761 0.959 . S
C1777 H1762 0.959 . S
C1777 H1763 0.961 . S
C1777 C1776 1.502 . S
C1778 H1764 0.960 . S
C1778 H1765 0.961 . S
C1778 H1766 0.959 . S
C1778 C1776 1.561 . S
C1779 C1776 1.526 . S
C1779 C1780 1.396 . S
C1779 C1784 1.390 . S
C1780 C1774 1.465 . S
C1780 C1779 1.396 . S
C1780 C1781 1.399 . S
C1781 H1767 0.929 . S
C1781 C1780 1.399 . S
C1781 C1782 1.385 . S
C1782 H1768 0.931 . S
C1782 C1781 1.385 . S
C1782 C1783 1.389 . S
C1783 C1782 1.389 . S
C1783 C1784 1.387 . S
C1784 H1769 0.930 . S
C1784 C1779 1.390 . S
C1784 C1783 1.387 . S
H1785 C1797 0.930 . S
H1786 C1799 0.930 . S
H1787 C1800 0.930 . S
H1788 C1804 0.959 . S
H1789 C1804 0.959 . S
H1790 C1804 0.961 . S
H1791 C1805 0.960 . S
H1792 C1805 0.961 . S
H1793 C1805 0.959 . S
H1794 C1808 0.929 . S
H1795 C1809 0.931 . S
H1796 C1811 0.930 . S
C1797 H1785 0.930 . S
C1797 C1798 1.399 . S
C1797 C1802 1.399 . S
C1798 C1797 1.399 . S
C1798 C1799 1.376 . S
C1799 H1786 0.930 . S
C1799 C1798 1.376 . S
C1799 C1800 1.388 . S
C1800 H1787 0.930 . S
C1800 C1799 1.388 . S
C1800 C1801 1.390 . S
C1801 C1800 1.390 . S
C1801 C1802 1.394 . S
C1801 C1807 1.465 . S
C1802 C1797 1.399 . S
C1802 C1801 1.394 . S
C1802 C1803 1.516 . S
C1803 C1802 1.516 . S
C1803 C1804 1.502 . S
C1803 C1805 1.561 . S
C1803 C1806 1.526 . S
C1804 H1788 0.959 . S
C1804 H1789 0.959 . S
C1804 H1790 0.961 . S
C1804 C1803 1.502 . S
C1805 H1791 0.960 . S
C1805 H1792 0.961 . S
C1805 H1793 0.959 . S
C1805 C1803 1.561 . S
C1806 C1803 1.526 . S
C1806 C1807 1.396 . S
C1806 C1811 1.390 . S
C1807 C1801 1.465 . S
C1807 C1806 1.396 . S
C1807 C1808 1.399 . S
C1808 H1794 0.929 . S
C1808 C1807 1.399 . S
C1808 C1809 1.385 . S
C1809 H1795 0.931 . S
C1809 C1808 1.385 . S
C1809 C1810 1.389 . S
C1810 C1809 1.389 . S
C1810 C1811 1.387 . S
C1811 H1796 0.930 . S
C1811 C1806 1.390 . S
C1811 C1810 1.387 . S
H1812 C1824 0.930 . S
H1813 C1826 0.930 . S
H1814 C1827 0.930 . S
H1815 C1831 0.959 . S
H1816 C1831 0.959 . S
H1817 C1831 0.961 . S
H1818 C1832 0.960 . S
H1819 C1832 0.961 . S
H1820 C1832 0.959 . S
H1821 C1835 0.929 . S
H1822 C1836 0.931 . S
H1823 C1838 0.930 . S
C1824 H1812 0.930 . S
C1824 C1825 1.399 . S
C1824 C1829 1.399 . S
C1825 C1824 1.399 . S
C1825 C1826 1.376 . S
C1826 H1813 0.930 . S
C1826 C1825 1.376 . S
C1826 C1827 1.388 . S
C1827 H1814 0.930 . S
C1827 C1826 1.388 . S
C1827 C1828 1.390 . S
C1828 C1827 1.390 . S
C1828 C1829 1.394 . S
C1828 C1834 1.465 . S
C1829 C1824 1.399 . S
C1829 C1828 1.394 . S
C1829 C1830 1.516 . S
C1830 C1829 1.516 . S
C1830 C1831 1.502 . S
C1830 C1832 1.561 . S
C1830 C1833 1.526 . S
C1831 H1815 0.959 . S
C1831 H1816 0.959 . S
C1831 H1817 0.961 . S
C1831 C1830 1.502 . S
C1832 H1818 0.960 . S
C1832 H1819 0.961 . S
C1832 H1820 0.959 . S
C1832 C1830 1.561 . S
C1833 C1830 1.526 . S
C1833 C1834 1.396 . S
C1833 C1838 1.390 . S
C1834 C1828 1.465 . S
C1834 C1833 1.396 . S
C1834 C1835 1.399 . S
C1835 H1821 0.929 . S
C1835 C1834 1.399 . S
C1835 C1836 1.385 . S
C1836 H1822 0.931 . S
C1836 C1835 1.385 . S
C1836 C1837 1.389 . S
C1837 C1836 1.389 . S
C1837 C1838 1.387 . S
C1838 H1823 0.930 . S
C1838 C1833 1.390 . S
C1838 C1837 1.387 . S
H1839 C1851 0.930 . S
H1840 C1853 0.930 . S
H1841 C1854 0.930 . S
H1842 C1858 0.959 . S
H1843 C1858 0.959 . S
H1844 C1858 0.961 . S
H1845 C1859 0.960 . S
H1846 C1859 0.961 . S
H1847 C1859 0.959 . S
H1848 C1862 0.929 . S
H1849 C1863 0.931 . S
H1850 C1865 0.930 . S
C1851 H1839 0.930 . S
C1851 C1852 1.399 . S
C1851 C1856 1.399 . S
C1852 C1851 1.399 . S
C1852 C1853 1.376 . S
C1853 H1840 0.930 . S
C1853 C1852 1.376 . S
C1853 C1854 1.388 . S
C1854 H1841 0.930 . S
C1854 C1853 1.388 . S
C1854 C1855 1.390 . S
C1855 C1854 1.390 . S
C1855 C1856 1.394 . S
C1855 C1861 1.465 . S
C1856 C1851 1.399 . S
C1856 C1855 1.394 . S
C1856 C1857 1.516 . S
C1857 C1856 1.516 . S
C1857 C1858 1.502 . S
C1857 C1859 1.561 . S
C1857 C1860 1.526 . S
C1858 H1842 0.959 . S
C1858 H1843 0.959 . S
C1858 H1844 0.961 . S
C1858 C1857 1.502 . S
C1859 H1845 0.960 . S
C1859 H1846 0.961 . S
C1859 H1847 0.959 . S
C1859 C1857 1.561 . S
C1860 C1857 1.526 . S
C1860 C1861 1.396 . S
C1860 C1865 1.390 . S
C1861 C1855 1.465 . S
C1861 C1860 1.396 . S
C1861 C1862 1.399 . S
C1862 H1848 0.929 . S
C1862 C1861 1.399 . S
C1862 C1863 1.385 . S
C1863 H1849 0.931 . S
C1863 C1862 1.385 . S
C1863 C1864 1.389 . S
C1864 C1863 1.389 . S
C1864 C1865 1.387 . S
C1865 H1850 0.930 . S
C1865 C1860 1.390 . S
C1865 C1864 1.387 . S
H1866 C1878 0.930 . S
H1867 C1880 0.930 . S
H1868 C1881 0.930 . S
H1869 C1885 0.959 . S
H1870 C1885 0.959 . S
H1871 C1885 0.961 . S
H1872 C1886 0.960 . S
H1873 C1886 0.961 . S
H1874 C1886 0.959 . S
H1875 C1889 0.929 . S
H1876 C1890 0.931 . S
H1877 C1892 0.930 . S
C1878 H1866 0.930 . S
C1878 C1879 1.399 . S
C1878 C1883 1.399 . S
C1879 C1878 1.399 . S
C1879 C1880 1.376 . S
C1880 H1867 0.930 . S
C1880 C1879 1.376 . S
C1880 C1881 1.388 . S
C1881 H1868 0.930 . S
C1881 C1880 1.388 . S
C1881 C1882 1.390 . S
C1882 C1881 1.390 . S
C1882 C1883 1.394 . S
C1882 C1888 1.465 . S
C1883 C1878 1.399 . S
C1883 C1882 1.394 . S
C1883 C1884 1.516 . S
C1884 C1883 1.516 . S
C1884 C1885 1.502 . S
C1884 C1886 1.561 . S
C1884 C1887 1.526 . S
C1885 H1869 0.959 . S
C1885 H1870 0.959 . S
C1885 H1871 0.961 . S
C1885 C1884 1.502 . S
C1886 H1872 0.960 . S
C1886 H1873 0.961 . S
C1886 H1874 0.959 . S
C1886 C1884 1.561 . S
C1887 C1884 1.526 . S
C1887 C1888 1.396 . S
C1887 C1892 1.390 . S
C1888 C1882 1.465 . S
C1888 C1887 1.396 . S
C1888 C1889 1.399 . S
C1889 H1875 0.929 . S
C1889 C1888 1.399 . S
C1889 C1890 1.385 . S
C1890 H1876 0.931 . S
C1890 C1889 1.385 . S
C1890 C1891 1.389 . S
C1891 C1890 1.389 . S
C1891 C1892 1.387 . S
C1892 H1877 0.930 . S
C1892 C1887 1.390 . S
C1892 C1891 1.387 . S
H1893 C1905 0.930 . S
H1894 C1907 0.930 . S
H1895 C1908 0.930 . S
H1896 C1912 0.959 . S
H1897 C1912 0.959 . S
H1898 C1912 0.961 . S
H1899 C1913 0.960 . S
H1900 C1913 0.961 . S
H1901 C1913 0.959 . S
H1902 C1916 0.929 . S
H1903 C1917 0.931 . S
H1904 C1919 0.930 . S
C1905 H1893 0.930 . S
C1905 C1906 1.399 . S
C1905 C1910 1.399 . S
C1906 C1905 1.399 . S
C1906 C1907 1.376 . S
C1907 H1894 0.930 . S
C1907 C1906 1.376 . S
C1907 C1908 1.388 . S
C1908 H1895 0.930 . S
C1908 C1907 1.388 . S
C1908 C1909 1.390 . S
C1909 C1908 1.390 . S
C1909 C1910 1.394 . S
C1909 C1915 1.465 . S
C1910 C1905 1.399 . S
C1910 C1909 1.394 . S
C1910 C1911 1.516 . S
C1911 C1910 1.516 . S
C1911 C1912 1.502 . S
C1911 C1913 1.561 . S
C1911 C1914 1.526 . S
C1912 H1896 0.959 . S
C1912 H1897 0.959 . S
C1912 H1898 0.961 . S
C1912 C1911 1.502 . S
C1913 H1899 0.960 . S
C1913 H1900 0.961 . S
C1913 H1901 0.959 . S
C1913 C1911 1.561 . S
C1914 C1911 1.526 . S
C1914 C1915 1.396 . S
C1914 C1919 1.390 . S
C1915 C1909 1.465 . S
C1915 C1914 1.396 . S
C1915 C1916 1.399 . S
C1916 H1902 0.929 . S
C1916 C1915 1.399 . S
C1916 C1917 1.385 . S
C1917 H1903 0.931 . S
C1917 C1916 1.385 . S
C1917 C1918 1.389 . S
C1918 C1917 1.389 . S
C1918 C1919 1.387 . S
C1919 H1904 0.930 . S
C1919 C1914 1.390 . S
C1919 C1918 1.387 . S
H1920 C1932 0.930 . S
H1921 C1934 0.930 . S
H1922 C1935 0.930 . S
H1923 C1939 0.959 . S
H1924 C1939 0.959 . S
H1925 C1939 0.961 . S
H1926 C1940 0.960 . S
H1927 C1940 0.961 . S
H1928 C1940 0.959 . S
H1929 C1943 0.929 . S
H1930 C1944 0.931 . S
H1931 C1946 0.930 . S
C1932 H1920 0.930 . S
C1932 C1933 1.399 . S
C1932 C1937 1.399 . S
C1933 C1932 1.399 . S
C1933 C1934 1.376 . S
C1934 H1921 0.930 . S
C1934 C1933 1.376 . S
C1934 C1935 1.388 . S
C1935 H1922 0.930 . S
C1935 C1934 1.388 . S
C1935 C1936 1.390 . S
C1936 C1935 1.390 . S
C1936 C1937 1.394 . S
C1936 C1942 1.465 . S
C1937 C1932 1.399 . S
C1937 C1936 1.394 . S
C1937 C1938 1.516 . S
C1938 C1937 1.516 . S
C1938 C1939 1.502 . S
C1938 C1940 1.561 . S
C1938 C1941 1.526 . S
C1939 H1923 0.959 . S
C1939 H1924 0.959 . S
C1939 H1925 0.961 . S
C1939 C1938 1.502 . S
C1940 H1926 0.960 . S
C1940 H1927 0.961 . S
C1940 H1928 0.959 . S
C1940 C1938 1.561 . S
C1941 C1938 1.526 . S
C1941 C1942 1.396 . S
C1941 C1946 1.390 . S
C1942 C1936 1.465 . S
C1942 C1941 1.396 . S
C1942 C1943 1.399 . S
C1943 H1929 0.929 . S
C1943 C1942 1.399 . S
C1943 C1944 1.385 . S
C1944 H1930 0.931 . S
C1944 C1943 1.385 . S
C1944 C1945 1.389 . S
C1945 C1944 1.389 . S
C1945 C1946 1.387 . S
C1946 H1931 0.930 . S
C1946 C1941 1.390 . S
C1946 C1945 1.387 . S
H1947 C1959 0.930 . S
H1948 C1961 0.930 . S
H1949 C1962 0.930 . S
H1950 C1966 0.959 . S
H1951 C1966 0.959 . S
H1952 C1966 0.961 . S
H1953 C1967 0.960 . S
H1954 C1967 0.961 . S
H1955 C1967 0.959 . S
H1956 C1970 0.929 . S
H1957 C1971 0.931 . S
H1958 C1973 0.930 . S
C1959 H1947 0.930 . S
C1959 C1960 1.399 . S
C1959 C1964 1.399 . S
C1960 C1959 1.399 . S
C1960 C1961 1.376 . S
C1961 H1948 0.930 . S
C1961 C1960 1.376 . S
C1961 C1962 1.388 . S
C1962 H1949 0.930 . S
C1962 C1961 1.388 . S
C1962 C1963 1.390 . S
C1963 C1962 1.390 . S
C1963 C1964 1.394 . S
C1963 C1969 1.465 . S
C1964 C1959 1.399 . S
C1964 C1963 1.394 . S
C1964 C1965 1.516 . S
C1965 C1964 1.516 . S
C1965 C1966 1.502 . S
C1965 C1967 1.561 . S
C1965 C1968 1.526 . S
C1966 H1950 0.959 . S
C1966 H1951 0.959 . S
C1966 H1952 0.961 . S
C1966 C1965 1.502 . S
C1967 H1953 0.960 . S
C1967 H1954 0.961 . S
C1967 H1955 0.959 . S
C1967 C1965 1.561 . S
C1968 C1965 1.526 . S
C1968 C1969 1.396 . S
C1968 C1973 1.390 . S
C1969 C1963 1.465 . S
C1969 C1968 1.396 . S
C1969 C1970 1.399 . S
C1970 H1956 0.929 . S
C1970 C1969 1.399 . S
C1970 C1971 1.385 . S
C1971 H1957 0.931 . S
C1971 C1970 1.385 . S
C1971 C1972 1.389 . S
C1972 C1971 1.389 . S
C1972 C1973 1.387 . S
C1973 H1958 0.930 . S
C1973 C1968 1.390 . S
C1973 C1972 1.387 . S
H1974 C1986 0.930 . S
H1975 C1988 0.930 . S
H1976 C1989 0.930 . S
H1977 C1993 0.959 . S
H1978 C1993 0.959 . S
H1979 C1993 0.961 . S
H1980 C1994 0.960 . S
H1981 C1994 0.961 . S
H1982 C1994 0.959 . S
H1983 C1997 0.929 . S
H1984 C1998 0.931 . S
H1985 C2000 0.930 . S
C1986 H1974 0.930 . S
C1986 C1987 1.399 . S
C1986 C1991 1.399 . S
C1987 C1986 1.399 . S
C1987 C1988 1.376 . S
C1988 H1975 0.930 . S
C1988 C1987 1.376 . S
C1988 C1989 1.388 . S
C1989 H1976 0.930 . S
C1989 C1988 1.388 . S
C1989 C1990 1.390 . S
C1990 C1989 1.390 . S
C1990 C1991 1.394 . S
C1990 C1996 1.465 . S
C1991 C1986 1.399 . S
C1991 C1990 1.394 . S
C1991 C1992 1.516 . S
C1992 C1991 1.516 . S
C1992 C1993 1.502 . S
C1992 C1994 1.561 . S
C1992 C1995 1.526 . S
C1993 H1977 0.959 . S
C1993 H1978 0.959 . S
C1993 H1979 0.961 . S
C1993 C1992 1.502 . S
C1994 H1980 0.960 . S
C1994 H1981 0.961 . S
C1994 H1982 0.959 . S
C1994 C1992 1.561 . S
C1995 C1992 1.526 . S
C1995 C1996 1.396 . S
C1995 C2000 1.390 . S
C1996 C1990 1.465 . S
C1996 C1995 1.396 . S
C1996 C1997 1.399 . S
C1997 H1983 0.929 . S
C1997 C1996 1.399 . S
C1997 C1998 1.385 . S
C1998 H1984 0.931 . S
C1998 C1997 1.385 . S
C1998 C1999 1.389 . S
C1999 C1998 1.389 . S
C1999 C2000 1.387 . S
C2000 H1985 0.930 . S
C2000 C1995 1.390 . S
C2000 C1999 1.387 . S
H2001 C2013 0.930 . S
H2002 C2015 0.930 . S
H2003 C2016 0.930 . S
H2004 C2020 0.959 . S
H2005 C2020 0.959 . S
H2006 C2020 0.961 . S
H2007 C2021 0.960 . S
H2008 C2021 0.961 . S
H2009 C2021 0.959 . S
H2010 C2024 0.929 . S
H2011 C2025 0.931 . S
H2012 C2027 0.930 . S
C2013 H2001 0.930 . S
C2013 C2014 1.399 . S
C2013 C2018 1.399 . S
C2014 C2013 1.399 . S
C2014 C2015 1.376 . S
C2015 H2002 0.930 . S
C2015 C2014 1.376 . S
C2015 C2016 1.388 . S
C2016 H2003 0.930 . S
C2016 C2015 1.388 . S
C2016 C2017 1.390 . S
C2017 C2016 1.390 . S
C2017 C2018 1.394 . S
C2017 C2023 1.465 . S
C2018 C2013 1.399 . S
C2018 C2017 1.394 . S
C2018 C2019 1.516 . S
C2019 C2018 1.516 . S
C2019 C2020 1.502 . S
C2019 C2021 1.561 . S
C2019 C2022 1.526 . S
C2020 H2004 0.959 . S
C2020 H2005 0.959 . S
C2020 H2006 0.961 . S
C2020 C2019 1.502 . S
C2021 H2007 0.960 . S
C2021 H2008 0.961 . S
C2021 H2009 0.959 . S
C2021 C2019 1.561 . S
C2022 C2019 1.526 . S
C2022 C2023 1.396 . S
C2022 C2027 1.390 . S
C2023 C2017 1.465 . S
C2023 C2022 1.396 . S
C2023 C2024 1.399 . S
C2024 H2010 0.929 . S
C2024 C2023 1.399 . S
C2024 C2025 1.385 . S
C2025 H2011 0.931 . S
C2025 C2024 1.385 . S
C2025 C2026 1.389 . S
C2026 C2025 1.389 . S
C2026 C2027 1.387 . S
C2027 H2012 0.930 . S
C2027 C2022 1.390 . S
C2027 C2026 1.387 . S
H2028 C2040 0.930 . S
H2029 C2042 0.930 . S
H2030 C2043 0.930 . S
H2031 C2047 0.959 . S
H2032 C2047 0.959 . S
H2033 C2047 0.961 . S
H2034 C2048 0.960 . S
H2035 C2048 0.961 . S
H2036 C2048 0.959 . S
H2037 C2051 0.929 . S
H2038 C2052 0.931 . S
H2039 C2054 0.930 . S
C2040 H2028 0.930 . S
C2040 C2041 1.399 . S
C2040 C2045 1.399 . S
C2041 C2040 1.399 . S
C2041 C2042 1.376 . S
C2042 H2029 0.930 . S
C2042 C2041 1.376 . S
C2042 C2043 1.388 . S
C2043 H2030 0.930 . S
C2043 C2042 1.388 . S
C2043 C2044 1.390 . S
C2044 C2043 1.390 . S
C2044 C2045 1.394 . S
C2044 C2050 1.465 . S
C2045 C2040 1.399 . S
C2045 C2044 1.394 . S
C2045 C2046 1.516 . S
C2046 C2045 1.516 . S
C2046 C2047 1.502 . S
C2046 C2048 1.561 . S
C2046 C2049 1.526 . S
C2047 H2031 0.959 . S
C2047 H2032 0.959 . S
C2047 H2033 0.961 . S
C2047 C2046 1.502 . S
C2048 H2034 0.960 . S
C2048 H2035 0.961 . S
C2048 H2036 0.959 . S
C2048 C2046 1.561 . S
C2049 C2046 1.526 . S
C2049 C2050 1.396 . S
C2049 C2054 1.390 . S
C2050 C2044 1.465 . S
C2050 C2049 1.396 . S
C2050 C2051 1.399 . S
C2051 H2037 0.929 . S
C2051 C2050 1.399 . S
C2051 C2052 1.385 . S
C2052 H2038 0.931 . S
C2052 C2051 1.385 . S
C2052 C2053 1.389 . S
C2053 C2052 1.389 . S
C2053 C2054 1.387 . S
C2054 H2039 0.930 . S
C2054 C2049 1.390 . S
C2054 C2053 1.387 . S
H2055 C2067 0.930 . S
H2056 C2069 0.930 . S
H2057 C2070 0.930 . S
H2058 C2074 0.959 . S
H2059 C2074 0.959 . S
H2060 C2074 0.961 . S
H2061 C2075 0.960 . S
H2062 C2075 0.961 . S
H2063 C2075 0.959 . S
H2064 C2078 0.929 . S
H2065 C2079 0.931 . S
H2066 C2081 0.930 . S
C2067 H2055 0.930 . S
C2067 C2068 1.399 . S
C2067 C2072 1.399 . S
C2068 C2067 1.399 . S
C2068 C2069 1.376 . S
C2069 H2056 0.930 . S
C2069 C2068 1.376 . S
C2069 C2070 1.388 . S
C2070 H2057 0.930 . S
C2070 C2069 1.388 . S
C2070 C2071 1.390 . S
C2071 C2070 1.390 . S
C2071 C2072 1.394 . S
C2071 C2077 1.465 . S
C2072 C2067 1.399 . S
C2072 C2071 1.394 . S
C2072 C2073 1.516 . S
C2073 C2072 1.516 . S
C2073 C2074 1.502 . S
C2073 C2075 1.561 . S
C2073 C2076 1.526 . S
C2074 H2058 0.959 . S
C2074 H2059 0.959 . S
C2074 H2060 0.961 . S
C2074 C2073 1.502 . S
C2075 H2061 0.960 . S
C2075 H2062 0.961 . S
C2075 H2063 0.959 . S
C2075 C2073 1.561 . S
C2076 C2073 1.526 . S
C2076 C2077 1.396 . S
C2076 C2081 1.390 . S
C2077 C2071 1.465 . S
C2077 C2076 1.396 . S
C2077 C2078 1.399 . S
C2078 H2064 0.929 . S
C2078 C2077 1.399 . S
C2078 C2079 1.385 . S
C2079 H2065 0.931 . S
C2079 C2078 1.385 . S
C2079 C2080 1.389 . S
C2080 C2079 1.389 . S
C2080 C2081 1.387 . S
C2081 H2066 0.930 . S
C2081 C2076 1.390 . S
C2081 C2080 1.387 . S
H2082 C2094 0.930 . S
H2083 C2096 0.930 . S
H2084 C2097 0.930 . S
H2085 C2101 0.959 . S
H2086 C2101 0.959 . S
H2087 C2101 0.961 . S
H2088 C2102 0.960 . S
H2089 C2102 0.961 . S
H2090 C2102 0.959 . S
H2091 C2105 0.929 . S
H2092 C2106 0.931 . S
H2093 C2108 0.930 . S
C2094 H2082 0.930 . S
C2094 C2095 1.399 . S
C2094 C2099 1.399 . S
C2095 C2094 1.399 . S
C2095 C2096 1.376 . S
C2096 H2083 0.930 . S
C2096 C2095 1.376 . S
C2096 C2097 1.388 . S
C2097 H2084 0.930 . S
C2097 C2096 1.388 . S
C2097 C2098 1.390 . S
C2098 C2097 1.390 . S
C2098 C2099 1.394 . S
C2098 C2104 1.465 . S
C2099 C2094 1.399 . S
C2099 C2098 1.394 . S
C2099 C2100 1.516 . S
C2100 C2099 1.516 . S
C2100 C2101 1.502 . S
C2100 C2102 1.561 . S
C2100 C2103 1.526 . S
C2101 H2085 0.959 . S
C2101 H2086 0.959 . S
C2101 H2087 0.961 . S
C2101 C2100 1.502 . S
C2102 H2088 0.960 . S
C2102 H2089 0.961 . S
C2102 H2090 0.959 . S
C2102 C2100 1.561 . S
C2103 C2100 1.526 . S
C2103 C2104 1.396 . S
C2103 C2108 1.390 . S
C2104 C2098 1.465 . S
C2104 C2103 1.396 . S
C2104 C2105 1.399 . S
C2105 H2091 0.929 . S
C2105 C2104 1.399 . S
C2105 C2106 1.385 . S
C2106 H2092 0.931 . S
C2106 C2105 1.385 . S
C2106 C2107 1.389 . S
C2107 C2106 1.389 . S
C2107 C2108 1.387 . S
C2108 H2093 0.930 . S
C2108 C2103 1.390 . S
C2108 C2107 1.387 . S
H2109 C2121 0.930 . S
H2110 C2123 0.930 . S
H2111 C2124 0.930 . S
H2112 C2128 0.959 . S
H2113 C2128 0.959 . S
H2114 C2128 0.961 . S
H2115 C2129 0.960 . S
H2116 C2129 0.961 . S
H2117 C2129 0.959 . S
H2118 C2132 0.929 . S
H2119 C2133 0.931 . S
H2120 C2135 0.930 . S
C2121 H2109 0.930 . S
C2121 C2122 1.399 . S
C2121 C2126 1.399 . S
C2122 C2121 1.399 . S
C2122 C2123 1.376 . S
C2123 H2110 0.930 . S
C2123 C2122 1.376 . S
C2123 C2124 1.388 . S
C2124 H2111 0.930 . S
C2124 C2123 1.388 . S
C2124 C2125 1.390 . S
C2125 C2124 1.390 . S
C2125 C2126 1.394 . S
C2125 C2131 1.465 . S
C2126 C2121 1.399 . S
C2126 C2125 1.394 . S
C2126 C2127 1.516 . S
C2127 C2126 1.516 . S
C2127 C2128 1.502 . S
C2127 C2129 1.561 . S
C2127 C2130 1.526 . S
C2128 H2112 0.959 . S
C2128 H2113 0.959 . S
C2128 H2114 0.961 . S
C2128 C2127 1.502 . S
C2129 H2115 0.960 . S
C2129 H2116 0.961 . S
C2129 H2117 0.959 . S
C2129 C2127 1.561 . S
C2130 C2127 1.526 . S
C2130 C2131 1.396 . S
C2130 C2135 1.390 . S
C2131 C2125 1.465 . S
C2131 C2130 1.396 . S
C2131 C2132 1.399 . S
C2132 H2118 0.929 . S
C2132 C2131 1.399 . S
C2132 C2133 1.385 . S
C2133 H2119 0.931 . S
C2133 C2132 1.385 . S
C2133 C2134 1.389 . S
C2134 C2133 1.389 . S
C2134 C2135 1.387 . S
C2135 H2120 0.930 . S
C2135 C2130 1.390 . S
C2135 C2134 1.387 . S
H2136 C2148 0.930 . S
H2137 C2150 0.930 . S
H2138 C2151 0.930 . S
H2139 C2155 0.959 . S
H2140 C2155 0.959 . S
H2141 C2155 0.961 . S
H2142 C2156 0.960 . S
H2143 C2156 0.961 . S
H2144 C2156 0.959 . S
H2145 C2159 0.929 . S
H2146 C2160 0.931 . S
H2147 C2162 0.930 . S
C2148 H2136 0.930 . S
C2148 C2149 1.399 . S
C2148 C2153 1.399 . S
C2149 C2148 1.399 . S
C2149 C2150 1.376 . S
C2150 H2137 0.930 . S
C2150 C2149 1.376 . S
C2150 C2151 1.388 . S
C2151 H2138 0.930 . S
C2151 C2150 1.388 . S
C2151 C2152 1.390 . S
C2152 C2151 1.390 . S
C2152 C2153 1.394 . S
C2152 C2158 1.465 . S
C2153 C2148 1.399 . S
C2153 C2152 1.394 . S
C2153 C2154 1.516 . S
C2154 C2153 1.516 . S
C2154 C2155 1.502 . S
C2154 C2156 1.561 . S
C2154 C2157 1.526 . S
C2155 H2139 0.959 . S
C2155 H2140 0.959 . S
C2155 H2141 0.961 . S
C2155 C2154 1.502 . S
C2156 H2142 0.960 . S
C2156 H2143 0.961 . S
C2156 H2144 0.959 . S
C2156 C2154 1.561 . S
C2157 C2154 1.526 . S
C2157 C2158 1.396 . S
C2157 C2162 1.390 . S
C2158 C2152 1.465 . S
C2158 C2157 1.396 . S
C2158 C2159 1.399 . S
C2159 H2145 0.929 . S
C2159 C2158 1.399 . S
C2159 C2160 1.385 . S
C2160 H2146 0.931 . S
C2160 C2159 1.385 . S
C2160 C2161 1.389 . S
C2161 C2160 1.389 . S
C2161 C2162 1.387 . S
C2162 H2147 0.930 . S
C2162 C2157 1.390 . S
C2162 C2161 1.387 . S
H2163 C2175 0.930 . S
H2164 C2177 0.930 . S
H2165 C2178 0.930 . S
H2166 C2182 0.959 . S
H2167 C2182 0.959 . S
H2168 C2182 0.961 . S
H2169 C2183 0.960 . S
H2170 C2183 0.961 . S
H2171 C2183 0.959 . S
H2172 C2186 0.929 . S
H2173 C2187 0.931 . S
H2174 C2189 0.930 . S
C2175 H2163 0.930 . S
C2175 C2176 1.399 . S
C2175 C2180 1.399 . S
C2176 C2175 1.399 . S
C2176 C2177 1.376 . S
C2177 H2164 0.930 . S
C2177 C2176 1.376 . S
C2177 C2178 1.388 . S
C2178 H2165 0.930 . S
C2178 C2177 1.388 . S
C2178 C2179 1.390 . S
C2179 C2178 1.390 . S
C2179 C2180 1.394 . S
C2179 C2185 1.465 . S
C2180 C2175 1.399 . S
C2180 C2179 1.394 . S
C2180 C2181 1.516 . S
C2181 C2180 1.516 . S
C2181 C2182 1.502 . S
C2181 C2183 1.561 . S
C2181 C2184 1.526 . S
C2182 H2166 0.959 . S
C2182 H2167 0.959 . S
C2182 H2168 0.961 . S
C2182 C2181 1.502 . S
C2183 H2169 0.960 . S
C2183 H2170 0.961 . S
C2183 H2171 0.959 . S
C2183 C2181 1.561 . S
C2184 C2181 1.526 . S
C2184 C2185 1.396 . S
C2184 C2189 1.390 . S
C2185 C2179 1.465 . S
C2185 C2184 1.396 . S
C2185 C2186 1.399 . S
C2186 H2172 0.929 . S
C2186 C2185 1.399 . S
C2186 C2187 1.385 . S
C2187 H2173 0.931 . S
C2187 C2186 1.385 . S
C2187 C2188 1.389 . S
C2188 C2187 1.389 . S
C2188 C2189 1.387 . S
C2189 H2174 0.930 . S
C2189 C2184 1.390 . S
C2189 C2188 1.387 . S
H2190 C2202 0.930 . S
H2191 C2204 0.930 . S
H2192 C2205 0.930 . S
H2193 C2209 0.959 . S
H2194 C2209 0.959 . S
H2195 C2209 0.961 . S
H2196 C2210 0.960 . S
H2197 C2210 0.961 . S
H2198 C2210 0.959 . S
H2199 C2213 0.929 . S
H2200 C2214 0.931 . S
H2201 C2216 0.930 . S
C2202 H2190 0.930 . S
C2202 C2203 1.399 . S
C2202 C2207 1.399 . S
C2203 C2202 1.399 . S
C2203 C2204 1.376 . S
C2204 H2191 0.930 . S
C2204 C2203 1.376 . S
C2204 C2205 1.388 . S
C2205 H2192 0.930 . S
C2205 C2204 1.388 . S
C2205 C2206 1.390 . S
C2206 C2205 1.390 . S
C2206 C2207 1.394 . S
C2206 C2212 1.465 . S
C2207 C2202 1.399 . S
C2207 C2206 1.394 . S
C2207 C2208 1.516 . S
C2208 C2207 1.516 . S
C2208 C2209 1.502 . S
C2208 C2210 1.561 . S
C2208 C2211 1.526 . S
C2209 H2193 0.959 . S
C2209 H2194 0.959 . S
C2209 H2195 0.961 . S
C2209 C2208 1.502 . S
C2210 H2196 0.960 . S
C2210 H2197 0.961 . S
C2210 H2198 0.959 . S
C2210 C2208 1.561 . S
C2211 C2208 1.526 . S
C2211 C2212 1.396 . S
C2211 C2216 1.390 . S
C2212 C2206 1.465 . S
C2212 C2211 1.396 . S
C2212 C2213 1.399 . S
C2213 H2199 0.929 . S
C2213 C2212 1.399 . S
C2213 C2214 1.385 . S
C2214 H2200 0.931 . S
C2214 C2213 1.385 . S
C2214 C2215 1.389 . S
C2215 C2214 1.389 . S
C2215 C2216 1.387 . S
C2216 H2201 0.930 . S
C2216 C2211 1.390 . S
C2216 C2215 1.387 . S
H2217 C2229 0.930 . S
H2218 C2231 0.930 . S
H2219 C2232 0.930 . S
H2220 C2236 0.959 . S
H2221 C2236 0.959 . S
H2222 C2236 0.961 . S
H2223 C2237 0.960 . S
H2224 C2237 0.961 . S
H2225 C2237 0.959 . S
H2226 C2240 0.929 . S
H2227 C2241 0.931 . S
H2228 C2243 0.930 . S
C2229 H2217 0.930 . S
C2229 C2230 1.399 . S
C2229 C2234 1.399 . S
C2230 C2229 1.399 . S
C2230 C2231 1.376 . S
C2231 H2218 0.930 . S
C2231 C2230 1.376 . S
C2231 C2232 1.388 . S
C2232 H2219 0.930 . S
C2232 C2231 1.388 . S
C2232 C2233 1.390 . S
C2233 C2232 1.390 . S
C2233 C2234 1.394 . S
C2233 C2239 1.465 . S
C2234 C2229 1.399 . S
C2234 C2233 1.394 . S
C2234 C2235 1.516 . S
C2235 C2234 1.516 . S
C2235 C2236 1.502 . S
C2235 C2237 1.561 . S
C2235 C2238 1.526 . S
C2236 H2220 0.959 . S
C2236 H2221 0.959 . S
C2236 H2222 0.961 . S
C2236 C2235 1.502 . S
C2237 H2223 0.960 . S
C2237 H2224 0.961 . S
C2237 H2225 0.959 . S
C2237 C2235 1.561 . S
C2238 C2235 1.526 . S
C2238 C2239 1.396 . S
C2238 C2243 1.390 . S
C2239 C2233 1.465 . S
C2239 C2238 1.396 . S
C2239 C2240 1.399 . S
C2240 H2226 0.929 . S
C2240 C2239 1.399 . S
C2240 C2241 1.385 . S
C2241 H2227 0.931 . S
C2241 C2240 1.385 . S
C2241 C2242 1.389 . S
C2242 C2241 1.389 . S
C2242 C2243 1.387 . S
C2243 H2228 0.930 . S
C2243 C2238 1.390 . S
C2243 C2242 1.387 . S
H2244 C2256 0.930 . S
H2245 C2258 0.930 . S
H2246 C2259 0.930 . S
H2247 C2263 0.959 . S
H2248 C2263 0.959 . S
H2249 C2263 0.961 . S
H2250 C2264 0.960 . S
H2251 C2264 0.961 . S
H2252 C2264 0.959 . S
H2253 C2267 0.929 . S
H2254 C2268 0.931 . S
H2255 C2270 0.930 . S
C2256 H2244 0.930 . S
C2256 C2257 1.399 . S
C2256 C2261 1.399 . S
C2257 C2256 1.399 . S
C2257 C2258 1.376 . S
C2258 H2245 0.930 . S
C2258 C2257 1.376 . S
C2258 C2259 1.388 . S
C2259 H2246 0.930 . S
C2259 C2258 1.388 . S
C2259 C2260 1.390 . S
C2260 C2259 1.390 . S
C2260 C2261 1.394 . S
C2260 C2266 1.465 . S
C2261 C2256 1.399 . S
C2261 C2260 1.394 . S
C2261 C2262 1.516 . S
C2262 C2261 1.516 . S
C2262 C2263 1.502 . S
C2262 C2264 1.561 . S
C2262 C2265 1.526 . S
C2263 H2247 0.959 . S
C2263 H2248 0.959 . S
C2263 H2249 0.961 . S
C2263 C2262 1.502 . S
C2264 H2250 0.960 . S
C2264 H2251 0.961 . S
C2264 H2252 0.959 . S
C2264 C2262 1.561 . S
C2265 C2262 1.526 . S
C2265 C2266 1.396 . S
C2265 C2270 1.390 . S
C2266 C2260 1.465 . S
C2266 C2265 1.396 . S
C2266 C2267 1.399 . S
C2267 H2253 0.929 . S
C2267 C2266 1.399 . S
C2267 C2268 1.385 . S
C2268 H2254 0.931 . S
C2268 C2267 1.385 . S
C2268 C2269 1.389 . S
C2269 C2268 1.389 . S
C2269 C2270 1.387 . S
C2270 H2255 0.930 . S
C2270 C2265 1.390 . S
C2270 C2269 1.387 . S
H2271 C2283 0.930 . S
H2272 C2285 0.930 1_655 S
H2273 C2286 0.930 . S
H2274 C2290 0.959 . S
H2275 C2290 0.959 . S
H2276 C2290 0.961 . S
H2277 C2291 0.960 . S
H2278 C2291 0.961 . S
H2279 C2291 0.959 . S
H2280 C2294 0.929 . S
H2281 C2295 0.931 . S
H2282 C2297 0.930 . S
C2283 H2271 0.930 . S
C2283 C2284 1.399 . S
C2283 C2288 1.399 . S
C2284 C2283 1.399 . S
C2284 C2285 1.376 . S
C2285 H2272 0.930 1_455 S
C2285 C2284 1.376 . S
C2285 C2286 1.388 . S
C2286 H2273 0.930 . S
C2286 C2285 1.388 . S
C2286 C2287 1.390 . S
C2287 C2286 1.390 . S
C2287 C2288 1.394 . S
C2287 C2293 1.465 . S
C2288 C2283 1.399 . S
C2288 C2287 1.394 . S
C2288 C2289 1.516 . S
C2289 C2288 1.516 . S
C2289 C2290 1.502 . S
C2289 C2291 1.561 . S
C2289 C2292 1.526 . S
C2290 H2274 0.959 . S
C2290 H2275 0.959 . S
C2290 H2276 0.961 . S
C2290 C2289 1.502 . S
C2291 H2277 0.960 . S
C2291 H2278 0.961 . S
C2291 H2279 0.959 . S
C2291 C2289 1.561 . S
C2292 C2289 1.526 . S
C2292 C2293 1.396 . S
C2292 C2297 1.390 . S
C2293 C2287 1.465 . S
C2293 C2292 1.396 . S
C2293 C2294 1.399 . S
C2294 H2280 0.929 . S
C2294 C2293 1.399 . S
C2294 C2295 1.385 . S
C2295 H2281 0.931 . S
C2295 C2294 1.385 . S
C2295 C2296 1.389 . S
C2296 C2295 1.389 . S
C2296 C2297 1.387 . S
C2297 H2282 0.930 . S
C2297 C2292 1.390 . S
C2297 C2296 1.387 . S
H2298 C2310 0.930 . S
H2299 C2312 0.930 . S
H2300 C2313 0.930 . S
H2301 C2317 0.959 . S
H2302 C2317 0.959 . S
H2303 C2317 0.961 . S
H2304 C2318 0.960 . S
H2305 C2318 0.961 . S
H2306 C2318 0.959 . S
H2307 C2321 0.929 . S
H2308 C2322 0.931 . S
H2309 C2324 0.930 . S
C2310 H2298 0.930 . S
C2310 C2311 1.399 . S
C2310 C2315 1.399 . S
C2311 C2310 1.399 . S
C2311 C2312 1.376 . S
C2312 H2299 0.930 . S
C2312 C2311 1.376 . S
C2312 C2313 1.388 . S
C2313 H2300 0.930 . S
C2313 C2312 1.388 . S
C2313 C2314 1.390 . S
C2314 C2313 1.390 . S
C2314 C2315 1.394 . S
C2314 C2320 1.465 . S
C2315 C2310 1.399 . S
C2315 C2314 1.394 . S
C2315 C2316 1.516 . S
C2316 C2315 1.516 . S
C2316 C2317 1.502 . S
C2316 C2318 1.561 . S
C2316 C2319 1.526 . S
C2317 H2301 0.959 . S
C2317 H2302 0.959 . S
C2317 H2303 0.961 . S
C2317 C2316 1.502 . S
C2318 H2304 0.960 . S
C2318 H2305 0.961 . S
C2318 H2306 0.959 . S
C2318 C2316 1.561 . S
C2319 C2316 1.526 . S
C2319 C2320 1.396 . S
C2319 C2324 1.390 . S
C2320 C2314 1.465 . S
C2320 C2319 1.396 . S
C2320 C2321 1.399 . S
C2321 H2307 0.929 . S
C2321 C2320 1.399 . S
C2321 C2322 1.385 . S
C2322 H2308 0.931 . S
C2322 C2321 1.385 . S
C2322 C2323 1.389 . S
C2323 C2322 1.389 . S
C2323 C2324 1.387 . S
C2324 H2309 0.930 . S
C2324 C2319 1.390 . S
C2324 C2323 1.387 . S
H2325 C2337 0.930 . S
H2326 C2339 0.930 . S
H2327 C2340 0.930 . S
H2328 C2344 0.959 . S
H2329 C2344 0.959 . S
H2330 C2344 0.961 . S
H2331 C2345 0.960 . S
H2332 C2345 0.961 . S
H2333 C2345 0.959 . S
H2334 C2348 0.929 . S
H2335 C2349 0.931 . S
H2336 C2351 0.930 . S
C2337 H2325 0.930 . S
C2337 C2338 1.399 . S
C2337 C2342 1.399 . S
C2338 C2337 1.399 . S
C2338 C2339 1.376 . S
C2339 H2326 0.930 . S
C2339 C2338 1.376 . S
C2339 C2340 1.388 . S
C2340 H2327 0.930 . S
C2340 C2339 1.388 . S
C2340 C2341 1.390 . S
C2341 C2340 1.390 . S
C2341 C2342 1.394 . S
C2341 C2347 1.465 . S
C2342 C2337 1.399 . S
C2342 C2341 1.394 . S
C2342 C2343 1.516 . S
C2343 C2342 1.516 . S
C2343 C2344 1.502 . S
C2343 C2345 1.561 . S
C2343 C2346 1.526 . S
C2344 H2328 0.959 . S
C2344 H2329 0.959 . S
C2344 H2330 0.961 . S
C2344 C2343 1.502 . S
C2345 H2331 0.960 . S
C2345 H2332 0.961 . S
C2345 H2333 0.959 . S
C2345 C2343 1.561 . S
C2346 C2343 1.526 . S
C2346 C2347 1.396 . S
C2346 C2351 1.390 . S
C2347 C2341 1.465 . S
C2347 C2346 1.396 . S
C2347 C2348 1.399 . S
C2348 H2334 0.929 . S
C2348 C2347 1.399 . S
C2348 C2349 1.385 . S
C2349 H2335 0.931 . S
C2349 C2348 1.385 . S
C2349 C2350 1.389 . S
C2350 C2349 1.389 . S
C2350 C2351 1.387 . S
C2351 H2336 0.930 . S
C2351 C2346 1.390 . S
C2351 C2350 1.387 . S
H2352 C2364 0.930 . S
H2353 C2366 0.930 . S
H2354 C2367 0.930 . S
H2355 C2371 0.959 . S
H2356 C2371 0.959 . S
H2357 C2371 0.961 . S
H2358 C2372 0.960 1_554 S
H2359 C2372 0.961 . S
H2360 C2372 0.959 . S
H2361 C2375 0.929 . S
H2362 C2376 0.931 . S
H2363 C2378 0.930 . S
C2364 H2352 0.930 . S
C2364 C2365 1.399 . S
C2364 C2369 1.399 . S
C2365 C2364 1.399 . S
C2365 C2366 1.376 . S
C2366 H2353 0.930 . S
C2366 C2365 1.376 . S
C2366 C2367 1.388 . S
C2367 H2354 0.930 . S
C2367 C2366 1.388 . S
C2367 C2368 1.390 . S
C2368 C2367 1.390 . S
C2368 C2369 1.394 . S
C2368 C2374 1.465 1_554 S
C2369 C2364 1.399 . S
C2369 C2368 1.394 . S
C2369 C2370 1.516 1_554 S
C2370 C2369 1.516 1_556 S
C2370 C2371 1.502 . S
C2370 C2372 1.561 . S
C2370 C2373 1.526 . S
C2371 H2355 0.959 . S
C2371 H2356 0.959 . S
C2371 H2357 0.961 . S
C2371 C2370 1.502 . S
C2372 H2358 0.960 1_556 S
C2372 H2359 0.961 . S
C2372 H2360 0.959 . S
C2372 C2370 1.561 . S
C2373 C2370 1.526 . S
C2373 C2374 1.396 . S
C2373 C2378 1.390 . S
C2374 C2368 1.465 1_556 S
C2374 C2373 1.396 . S
C2374 C2375 1.399 . S
C2375 H2361 0.929 . S
C2375 C2374 1.399 . S
C2375 C2376 1.385 . S
C2376 H2362 0.931 . S
C2376 C2375 1.385 . S
C2376 C2377 1.389 . S
C2377 C2376 1.389 . S
C2377 C2378 1.387 . S
C2378 H2363 0.930 . S
C2378 C2373 1.390 . S
C2378 C2377 1.387 . S
H2379 C2391 0.930 . S
H2380 C2393 0.930 . S
H2381 C2394 0.930 . S
H2382 C2398 0.959 . S
H2383 C2398 0.959 . S
H2384 C2398 0.961 . S
H2385 C2399 0.960 . S
H2386 C2399 0.961 . S
H2387 C2399 0.959 . S
H2388 C2402 0.929 . S
H2389 C2403 0.931 . S
H2390 C2405 0.930 . S
C2391 H2379 0.930 . S
C2391 C2392 1.399 1_545 S
C2391 C2396 1.399 . S
C2392 C2391 1.399 1_565 S
C2392 C2393 1.376 . S
C2393 H2380 0.930 . S
C2393 C2392 1.376 . S
C2393 C2394 1.388 . S
C2394 H2381 0.930 . S
C2394 C2393 1.388 . S
C2394 C2395 1.390 . S
C2395 C2394 1.390 . S
C2395 C2396 1.394 1_565 S
C2395 C2401 1.465 . S
C2396 C2391 1.399 . S
C2396 C2395 1.394 1_545 S
C2396 C2397 1.516 . S
C2397 C2396 1.516 . S
C2397 C2398 1.502 . S
C2397 C2399 1.561 . S
C2397 C2400 1.526 . S
C2398 H2382 0.959 . S
C2398 H2383 0.959 . S
C2398 H2384 0.961 . S
C2398 C2397 1.502 . S
C2399 H2385 0.960 . S
C2399 H2386 0.961 . S
C2399 H2387 0.959 . S
C2399 C2397 1.561 . S
C2400 C2397 1.526 . S
C2400 C2401 1.396 1_545 S
C2400 C2405 1.390 . S
C2401 C2395 1.465 . S
C2401 C2400 1.396 1_565 S
C2401 C2402 1.399 . S
C2402 H2388 0.929 . S
C2402 C2401 1.399 . S
C2402 C2403 1.385 . S
C2403 H2389 0.931 . S
C2403 C2402 1.385 . S
C2403 C2404 1.389 1_565 S
C2404 C2403 1.389 1_545 S
C2404 C2405 1.387 . S
C2405 H2390 0.930 . S
C2405 C2400 1.390 . S
C2405 C2404 1.387 . S
H2406 C2418 0.930 . S
H2407 C2420 0.930 . S
H2408 C2421 0.930 . S
H2409 C2425 0.959 . S
H2410 C2425 0.959 . S
H2411 C2425 0.961 . S
H2412 C2426 0.960 . S
H2413 C2426 0.961 . S
H2414 C2426 0.959 . S
H2415 C2429 0.929 . S
H2416 C2430 0.931 . S
H2417 C2432 0.930 . S
C2418 H2406 0.930 . S
C2418 C2419 1.399 . S
C2418 C2423 1.399 . S
C2419 C2418 1.399 . S
C2419 C2420 1.376 . S
C2420 H2407 0.930 . S
C2420 C2419 1.376 . S
C2420 C2421 1.388 . S
C2421 H2408 0.930 . S
C2421 C2420 1.388 . S
C2421 C2422 1.390 . S
C2422 C2421 1.390 . S
C2422 C2423 1.394 . S
C2422 C2428 1.465 . S
C2423 C2418 1.399 . S
C2423 C2422 1.394 . S
C2423 C2424 1.516 . S
C2424 C2423 1.516 . S
C2424 C2425 1.502 . S
C2424 C2426 1.561 . S
C2424 C2427 1.526 . S
C2425 H2409 0.959 . S
C2425 H2410 0.959 . S
C2425 H2411 0.961 . S
C2425 C2424 1.502 . S
C2426 H2412 0.960 . S
C2426 H2413 0.961 . S
C2426 H2414 0.959 . S
C2426 C2424 1.561 . S
C2427 C2424 1.526 . S
C2427 C2428 1.396 . S
C2427 C2432 1.390 . S
C2428 C2422 1.465 . S
C2428 C2427 1.396 . S
C2428 C2429 1.399 . S
C2429 H2415 0.929 . S
C2429 C2428 1.399 . S
C2429 C2430 1.385 . S
C2430 H2416 0.931 . S
C2430 C2429 1.385 . S
C2430 C2431 1.389 . S
C2431 C2430 1.389 . S
C2431 C2432 1.387 . S
C2432 H2417 0.930 . S
C2432 C2427 1.390 . S
C2432 C2431 1.387 . S
H2433 C2445 0.930 . S
H2434 C2447 0.930 . S
H2435 C2448 0.930 . S
H2436 C2452 0.959 . S
H2437 C2452 0.959 . S
H2438 C2452 0.961 . S
H2439 C2453 0.960 . S
H2440 C2453 0.961 . S
H2441 C2453 0.959 . S
H2442 C2456 0.929 . S
H2443 C2457 0.931 . S
H2444 C2459 0.930 . S
C2445 H2433 0.930 . S
C2445 C2446 1.399 1_545 S
C2445 C2450 1.399 . S
C2446 C2445 1.399 1_565 S
C2446 C2447 1.376 . S
C2447 H2434 0.930 . S
C2447 C2446 1.376 . S
C2447 C2448 1.388 . S
C2448 H2435 0.930 . S
C2448 C2447 1.388 . S
C2448 C2449 1.390 . S
C2449 C2448 1.390 . S
C2449 C2450 1.394 1_565 S
C2449 C2455 1.465 . S
C2450 C2445 1.399 . S
C2450 C2449 1.394 1_545 S
C2450 C2451 1.516 . S
C2451 C2450 1.516 . S
C2451 C2452 1.502 . S
C2451 C2453 1.561 . S
C2451 C2454 1.526 . S
C2452 H2436 0.959 . S
C2452 H2437 0.959 . S
C2452 H2438 0.961 . S
C2452 C2451 1.502 . S
C2453 H2439 0.960 . S
C2453 H2440 0.961 . S
C2453 H2441 0.959 . S
C2453 C2451 1.561 . S
C2454 C2451 1.526 . S
C2454 C2455 1.396 1_545 S
C2454 C2459 1.390 . S
C2455 C2449 1.465 . S
C2455 C2454 1.396 1_565 S
C2455 C2456 1.399 . S
C2456 H2442 0.929 . S
C2456 C2455 1.399 . S
C2456 C2457 1.385 . S
C2457 H2443 0.931 . S
C2457 C2456 1.385 . S
C2457 C2458 1.389 1_565 S
C2458 C2457 1.389 1_545 S
C2458 C2459 1.387 . S
C2459 H2444 0.930 . S
C2459 C2454 1.390 . S
C2459 C2458 1.387 . S
H2460 C2472 0.930 . S
H2461 C2474 0.930 . S
H2462 C2475 0.930 . S
H2463 C2479 0.959 . S
H2464 C2479 0.959 . S
H2465 C2479 0.961 1_554 S
H2466 C2480 0.960 . S
H2467 C2480 0.961 1_556 S
H2468 C2480 0.959 . S
H2469 C2483 0.929 . S
H2470 C2484 0.931 . S
H2471 C2486 0.930 . S
C2472 H2460 0.930 . S
C2472 C2473 1.399 . S
C2472 C2477 1.399 . S
C2473 C2472 1.399 . S
C2473 C2474 1.376 . S
C2474 H2461 0.930 . S
C2474 C2473 1.376 . S
C2474 C2475 1.388 . S
C2475 H2462 0.930 . S
C2475 C2474 1.388 . S
C2475 C2476 1.390 . S
C2476 C2475 1.390 . S
C2476 C2477 1.394 . S
C2476 C2482 1.465 1_554 S
C2477 C2472 1.399 . S
C2477 C2476 1.394 . S
C2477 C2478 1.516 1_554 S
C2478 C2477 1.516 1_556 S
C2478 C2479 1.502 . S
C2478 C2480 1.561 1_556 S
C2478 C2481 1.526 . S
C2479 H2463 0.959 . S
C2479 H2464 0.959 . S
C2479 H2465 0.961 1_556 S
C2479 C2478 1.502 . S
C2480 H2466 0.960 . S
C2480 H2467 0.961 1_554 S
C2480 H2468 0.959 . S
C2480 C2478 1.561 1_554 S
C2481 C2478 1.526 . S
C2481 C2482 1.396 . S
C2481 C2486 1.390 . S
C2482 C2476 1.465 1_556 S
C2482 C2481 1.396 . S
C2482 C2483 1.399 . S
C2483 H2469 0.929 . S
C2483 C2482 1.399 . S
C2483 C2484 1.385 . S
C2484 H2470 0.931 . S
C2484 C2483 1.385 . S
C2484 C2485 1.389 . S
C2485 C2484 1.389 . S
C2485 C2486 1.387 . S
C2486 H2471 0.930 . S
C2486 C2481 1.390 . S
C2486 C2485 1.387 . S
H2487 C2499 0.930 . S
H2488 C2501 0.930 . S
H2489 C2502 0.930 . S
H2490 C2506 0.959 . S
H2491 C2506 0.959 . S
H2492 C2506 0.961 . S
H2493 C2507 0.960 . S
H2494 C2507 0.961 . S
H2495 C2507 0.959 . S
H2496 C2510 0.929 . S
H2497 C2511 0.931 . S
H2498 C2513 0.930 . S
C2499 H2487 0.930 . S
C2499 C2500 1.399 . S
C2499 C2504 1.399 . S
C2500 C2499 1.399 . S
C2500 C2501 1.376 . S
C2501 H2488 0.930 . S
C2501 C2500 1.376 . S
C2501 C2502 1.388 . S
C2502 H2489 0.930 . S
C2502 C2501 1.388 . S
C2502 C2503 1.390 . S
C2503 C2502 1.390 . S
C2503 C2504 1.394 . S
C2503 C2509 1.465 . S
C2504 C2499 1.399 . S
C2504 C2503 1.394 . S
C2504 C2505 1.516 1_545 S
C2505 C2504 1.516 1_565 S
C2505 C2506 1.502 . S
C2505 C2507 1.561 1_565 S
C2505 C2508 1.526 . S
C2506 H2490 0.959 . S
C2506 H2491 0.959 . S
C2506 H2492 0.961 . S
C2506 C2505 1.502 . S
C2507 H2493 0.960 . S
C2507 H2494 0.961 . S
C2507 H2495 0.959 . S
C2507 C2505 1.561 1_545 S
C2508 C2505 1.526 . S
C2508 C2509 1.396 1_565 S
C2508 C2513 1.390 . S
C2509 C2503 1.465 . S
C2509 C2508 1.396 1_545 S
C2509 C2510 1.399 . S
C2510 H2496 0.929 . S
C2510 C2509 1.399 . S
C2510 C2511 1.385 1_545 S
C2511 H2497 0.931 . S
C2511 C2510 1.385 1_565 S
C2511 C2512 1.389 . S
C2512 C2511 1.389 . S
C2512 C2513 1.387 . S
C2513 H2498 0.930 . S
C2513 C2508 1.390 . S
C2513 C2512 1.387 . S
H2514 C2526 0.930 . S
H2515 C2528 0.930 . S
H2516 C2529 0.930 . S
H2517 C2533 0.959 . S
H2518 C2533 0.959 . S
H2519 C2533 0.961 . S
H2520 C2534 0.960 . S
H2521 C2534 0.961 . S
H2522 C2534 0.959 . S
H2523 C2537 0.929 . S
H2524 C2538 0.931 . S
H2525 C2540 0.930 . S
C2526 H2514 0.930 . S
C2526 C2527 1.399 . S
C2526 C2531 1.399 . S
C2527 C2526 1.399 . S
C2527 C2528 1.376 . S
C2528 H2515 0.930 . S
C2528 C2527 1.376 . S
C2528 C2529 1.388 . S
C2529 H2516 0.930 . S
C2529 C2528 1.388 . S
C2529 C2530 1.390 . S
C2530 C2529 1.390 . S
C2530 C2531 1.394 . S
C2530 C2536 1.465 . S
C2531 C2526 1.399 . S
C2531 C2530 1.394 . S
C2531 C2532 1.516 . S
C2532 C2531 1.516 . S
C2532 C2533 1.502 . S
C2532 C2534 1.561 . S
C2532 C2535 1.526 . S
C2533 H2517 0.959 . S
C2533 H2518 0.959 . S
C2533 H2519 0.961 . S
C2533 C2532 1.502 . S
C2534 H2520 0.960 . S
C2534 H2521 0.961 . S
C2534 H2522 0.959 . S
C2534 C2532 1.561 . S
C2535 C2532 1.526 . S
C2535 C2536 1.396 . S
C2535 C2540 1.390 . S
C2536 C2530 1.465 . S
C2536 C2535 1.396 . S
C2536 C2537 1.399 . S
C2537 H2523 0.929 . S
C2537 C2536 1.399 . S
C2537 C2538 1.385 . S
C2538 H2524 0.931 . S
C2538 C2537 1.385 . S
C2538 C2539 1.389 . S
C2539 C2538 1.389 . S
C2539 C2540 1.387 . S
C2540 H2525 0.930 . S
C2540 C2535 1.390 . S
C2540 C2539 1.387 . S
H2541 C2553 0.930 . S
H2542 C2555 0.930 . S
H2543 C2556 0.930 . S
H2544 C2560 0.959 . S
H2545 C2560 0.959 . S
H2546 C2560 0.961 . S
H2547 C2561 0.960 . S
H2548 C2561 0.961 . S
H2549 C2561 0.959 . S
H2550 C2564 0.929 . S
H2551 C2565 0.931 . S
H2552 C2567 0.930 . S
C2553 H2541 0.930 . S
C2553 C2554 1.399 1_545 S
C2553 C2558 1.399 . S
C2554 C2553 1.399 1_565 S
C2554 C2555 1.376 . S
C2555 H2542 0.930 . S
C2555 C2554 1.376 . S
C2555 C2556 1.388 . S
C2556 H2543 0.930 . S
C2556 C2555 1.388 . S
C2556 C2557 1.390 . S
C2557 C2556 1.390 . S
C2557 C2558 1.394 1_565 S
C2557 C2563 1.465 . S
C2558 C2553 1.399 . S
C2558 C2557 1.394 1_545 S
C2558 C2559 1.516 . S
C2559 C2558 1.516 . S
C2559 C2560 1.502 . S
C2559 C2561 1.561 . S
C2559 C2562 1.526 . S
C2560 H2544 0.959 . S
C2560 H2545 0.959 . S
C2560 H2546 0.961 . S
C2560 C2559 1.502 . S
C2561 H2547 0.960 . S
C2561 H2548 0.961 . S
C2561 H2549 0.959 . S
C2561 C2559 1.561 . S
C2562 C2559 1.526 . S
C2562 C2563 1.396 1_545 S
C2562 C2567 1.390 . S
C2563 C2557 1.465 . S
C2563 C2562 1.396 1_565 S
C2563 C2564 1.399 . S
C2564 H2550 0.929 . S
C2564 C2563 1.399 . S
C2564 C2565 1.385 . S
C2565 H2551 0.931 . S
C2565 C2564 1.385 . S
C2565 C2566 1.389 1_565 S
C2566 C2565 1.389 1_545 S
C2566 C2567 1.387 . S
C2567 H2552 0.930 . S
C2567 C2562 1.390 . S
C2567 C2566 1.387 . S
H2568 C2580 0.930 . S
H2569 C2582 0.930 . S
H2570 C2583 0.930 . S
H2571 C2587 0.959 . S
H2572 C2587 0.959 . S
H2573 C2587 0.961 . S
H2574 C2588 0.960 . S
H2575 C2588 0.961 . S
H2576 C2588 0.959 . S
H2577 C2591 0.929 . S
H2578 C2592 0.931 . S
H2579 C2594 0.930 . S
C2580 H2568 0.930 . S
C2580 C2581 1.399 . S
C2580 C2585 1.399 . S
C2581 C2580 1.399 . S
C2581 C2582 1.376 . S
C2582 H2569 0.930 . S
C2582 C2581 1.376 . S
C2582 C2583 1.388 . S
C2583 H2570 0.930 . S
C2583 C2582 1.388 . S
C2583 C2584 1.390 . S
C2584 C2583 1.390 . S
C2584 C2585 1.394 . S
C2584 C2590 1.465 . S
C2585 C2580 1.399 . S
C2585 C2584 1.394 . S
C2585 C2586 1.516 . S
C2586 C2585 1.516 . S
C2586 C2587 1.502 . S
C2586 C2588 1.561 . S
C2586 C2589 1.526 . S
C2587 H2571 0.959 . S
C2587 H2572 0.959 . S
C2587 H2573 0.961 . S
C2587 C2586 1.502 . S
C2588 H2574 0.960 . S
C2588 H2575 0.961 . S
C2588 H2576 0.959 . S
C2588 C2586 1.561 . S
C2589 C2586 1.526 . S
C2589 C2590 1.396 . S
C2589 C2594 1.390 . S
C2590 C2584 1.465 . S
C2590 C2589 1.396 . S
C2590 C2591 1.399 . S
C2591 H2577 0.929 . S
C2591 C2590 1.399 . S
C2591 C2592 1.385 . S
C2592 H2578 0.931 . S
C2592 C2591 1.385 . S
C2592 C2593 1.389 . S
C2593 C2592 1.389 . S
C2593 C2594 1.387 . S
C2594 H2579 0.930 . S
C2594 C2589 1.390 . S
C2594 C2593 1.387 . S
H2595 C2607 0.930 . S
H2596 C2609 0.930 . S
H2597 C2610 0.930 . S
H2598 C2614 0.959 . S
H2599 C2614 0.959 . S
H2600 C2614 0.961 . S
H2601 C2615 0.960 . S
H2602 C2615 0.961 . S
H2603 C2615 0.959 . S
H2604 C2618 0.929 . S
H2605 C2619 0.931 . S
H2606 C2621 0.930 . S
C2607 H2595 0.930 . S
C2607 C2608 1.399 . S
C2607 C2612 1.399 . S
C2608 C2607 1.399 . S
C2608 C2609 1.376 . S
C2609 H2596 0.930 . S
C2609 C2608 1.376 . S
C2609 C2610 1.388 . S
C2610 H2597 0.930 . S
C2610 C2609 1.388 . S
C2610 C2611 1.390 . S
C2611 C2610 1.390 . S
C2611 C2612 1.394 . S
C2611 C2617 1.465 . S
C2612 C2607 1.399 . S
C2612 C2611 1.394 . S
C2612 C2613 1.516 . S
C2613 C2612 1.516 . S
C2613 C2614 1.502 . S
C2613 C2615 1.561 . S
C2613 C2616 1.526 . S
C2614 H2598 0.959 . S
C2614 H2599 0.959 . S
C2614 H2600 0.961 . S
C2614 C2613 1.502 . S
C2615 H2601 0.960 . S
C2615 H2602 0.961 . S
C2615 H2603 0.959 . S
C2615 C2613 1.561 . S
C2616 C2613 1.526 . S
C2616 C2617 1.396 . S
C2616 C2621 1.390 . S
C2617 C2611 1.465 . S
C2617 C2616 1.396 . S
C2617 C2618 1.399 . S
C2618 H2604 0.929 . S
C2618 C2617 1.399 . S
C2618 C2619 1.385 . S
C2619 H2605 0.931 . S
C2619 C2618 1.385 . S
C2619 C2620 1.389 . S
C2620 C2619 1.389 . S
C2620 C2621 1.387 . S
C2621 H2606 0.930 . S
C2621 C2616 1.390 . S
C2621 C2620 1.387 . S
H2622 C2634 0.930 . S
H2623 C2636 0.930 . S
H2624 C2637 0.930 . S
H2625 C2641 0.959 . S
H2626 C2641 0.959 . S
H2627 C2641 0.961 1_554 S
H2628 C2642 0.960 . S
H2629 C2642 0.961 1_556 S
H2630 C2642 0.959 . S
H2631 C2645 0.929 . S
H2632 C2646 0.931 . S
H2633 C2648 0.930 . S
C2634 H2622 0.930 . S
C2634 C2635 1.399 . S
C2634 C2639 1.399 . S
C2635 C2634 1.399 . S
C2635 C2636 1.376 . S
C2636 H2623 0.930 . S
C2636 C2635 1.376 . S
C2636 C2637 1.388 . S
C2637 H2624 0.930 . S
C2637 C2636 1.388 . S
C2637 C2638 1.390 . S
C2638 C2637 1.390 . S
C2638 C2639 1.394 . S
C2638 C2644 1.465 1_554 S
C2639 C2634 1.399 . S
C2639 C2638 1.394 . S
C2639 C2640 1.516 1_554 S
C2640 C2639 1.516 1_556 S
C2640 C2641 1.502 . S
C2640 C2642 1.561 1_556 S
C2640 C2643 1.526 . S
C2641 H2625 0.959 . S
C2641 H2626 0.959 . S
C2641 H2627 0.961 1_556 S
C2641 C2640 1.502 . S
C2642 H2628 0.960 . S
C2642 H2629 0.961 1_554 S
C2642 H2630 0.959 . S
C2642 C2640 1.561 1_554 S
C2643 C2640 1.526 . S
C2643 C2644 1.396 . S
C2643 C2648 1.390 . S
C2644 C2638 1.465 1_556 S
C2644 C2643 1.396 . S
C2644 C2645 1.399 . S
C2645 H2631 0.929 . S
C2645 C2644 1.399 . S
C2645 C2646 1.385 . S
C2646 H2632 0.931 . S
C2646 C2645 1.385 . S
C2646 C2647 1.389 . S
C2647 C2646 1.389 . S
C2647 C2648 1.387 . S
C2648 H2633 0.930 . S
C2648 C2643 1.390 . S
C2648 C2647 1.387 . S
H2649 C2661 0.930 . S
H2650 C2663 0.930 . S
H2651 C2664 0.930 . S
H2652 C2668 0.959 . S
H2653 C2668 0.959 . S
H2654 C2668 0.961 . S
H2655 C2669 0.960 . S
H2656 C2669 0.961 . S
H2657 C2669 0.959 . S
H2658 C2672 0.929 . S
H2659 C2673 0.931 . S
H2660 C2675 0.930 . S
C2661 H2649 0.930 . S
C2661 C2662 1.399 . S
C2661 C2666 1.399 . S
C2662 C2661 1.399 . S
C2662 C2663 1.376 . S
C2663 H2650 0.930 . S
C2663 C2662 1.376 . S
C2663 C2664 1.388 . S
C2664 H2651 0.930 . S
C2664 C2663 1.388 . S
C2664 C2665 1.390 . S
C2665 C2664 1.390 . S
C2665 C2666 1.394 . S
C2665 C2671 1.465 . S
C2666 C2661 1.399 . S
C2666 C2665 1.394 . S
C2666 C2667 1.516 . S
C2667 C2666 1.516 . S
C2667 C2668 1.502 . S
C2667 C2669 1.561 . S
C2667 C2670 1.526 . S
C2668 H2652 0.959 . S
C2668 H2653 0.959 . S
C2668 H2654 0.961 . S
C2668 C2667 1.502 . S
C2669 H2655 0.960 . S
C2669 H2656 0.961 . S
C2669 H2657 0.959 . S
C2669 C2667 1.561 . S
C2670 C2667 1.526 . S
C2670 C2671 1.396 . S
C2670 C2675 1.390 . S
C2671 C2665 1.465 . S
C2671 C2670 1.396 . S
C2671 C2672 1.399 . S
C2672 H2658 0.929 . S
C2672 C2671 1.399 . S
C2672 C2673 1.385 . S
C2673 H2659 0.931 . S
C2673 C2672 1.385 . S
C2673 C2674 1.389 . S
C2674 C2673 1.389 . S
C2674 C2675 1.387 . S
C2675 H2660 0.930 . S
C2675 C2670 1.390 . S
C2675 C2674 1.387 . S
H2676 C2688 0.930 . S
H2677 C2690 0.930 . S
H2678 C2691 0.930 . S
H2679 C2695 0.959 . S
H2680 C2695 0.959 . S
H2681 C2695 0.961 . S
H2682 C2696 0.960 . S
H2683 C2696 0.961 . S
H2684 C2696 0.959 . S
H2685 C2699 0.929 . S
H2686 C2700 0.931 . S
H2687 C2702 0.930 . S
C2688 H2676 0.930 . S
C2688 C2689 1.399 . S
C2688 C2693 1.399 . S
C2689 C2688 1.399 . S
C2689 C2690 1.376 . S
C2690 H2677 0.930 . S
C2690 C2689 1.376 . S
C2690 C2691 1.388 . S
C2691 H2678 0.930 . S
C2691 C2690 1.388 . S
C2691 C2692 1.390 . S
C2692 C2691 1.390 . S
C2692 C2693 1.394 . S
C2692 C2698 1.465 . S
C2693 C2688 1.399 . S
C2693 C2692 1.394 . S
C2693 C2694 1.516 . S
C2694 C2693 1.516 . S
C2694 C2695 1.502 . S
C2694 C2696 1.561 . S
C2694 C2697 1.526 . S
C2695 H2679 0.959 . S
C2695 H2680 0.959 . S
C2695 H2681 0.961 . S
C2695 C2694 1.502 . S
C2696 H2682 0.960 . S
C2696 H2683 0.961 . S
C2696 H2684 0.959 . S
C2696 C2694 1.561 . S
C2697 C2694 1.526 . S
C2697 C2698 1.396 . S
C2697 C2702 1.390 . S
C2698 C2692 1.465 . S
C2698 C2697 1.396 . S
C2698 C2699 1.399 . S
C2699 H2685 0.929 . S
C2699 C2698 1.399 . S
C2699 C2700 1.385 . S
C2700 H2686 0.931 . S
C2700 C2699 1.385 . S
C2700 C2701 1.389 . S
C2701 C2700 1.389 . S
C2701 C2702 1.387 . S
C2702 H2687 0.930 . S
C2702 C2697 1.390 . S
C2702 C2701 1.387 . S
H2703 C2715 0.930 . S
H2704 C2717 0.930 . S
H2705 C2718 0.930 . S
H2706 C2722 0.959 . S
H2707 C2722 0.959 . S
H2708 C2722 0.961 . S
H2709 C2723 0.960 . S
H2710 C2723 0.961 . S
H2711 C2723 0.959 . S
H2712 C2726 0.929 . S
H2713 C2727 0.931 . S
H2714 C2729 0.930 . S
C2715 H2703 0.930 . S
C2715 C2716 1.399 . S
C2715 C2720 1.399 . S
C2716 C2715 1.399 . S
C2716 C2717 1.376 . S
C2717 H2704 0.930 . S
C2717 C2716 1.376 . S
C2717 C2718 1.388 . S
C2718 H2705 0.930 . S
C2718 C2717 1.388 . S
C2718 C2719 1.390 . S
C2719 C2718 1.390 . S
C2719 C2720 1.394 . S
C2719 C2725 1.465 . S
C2720 C2715 1.399 . S
C2720 C2719 1.394 . S
C2720 C2721 1.516 . S
C2721 C2720 1.516 . S
C2721 C2722 1.502 . S
C2721 C2723 1.561 . S
C2721 C2724 1.526 . S
C2722 H2706 0.959 . S
C2722 H2707 0.959 . S
C2722 H2708 0.961 . S
C2722 C2721 1.502 . S
C2723 H2709 0.960 . S
C2723 H2710 0.961 . S
C2723 H2711 0.959 . S
C2723 C2721 1.561 . S
C2724 C2721 1.526 . S
C2724 C2725 1.396 . S
C2724 C2729 1.390 . S
C2725 C2719 1.465 . S
C2725 C2724 1.396 . S
C2725 C2726 1.399 . S
C2726 H2712 0.929 . S
C2726 C2725 1.399 . S
C2726 C2727 1.385 . S
C2727 H2713 0.931 . S
C2727 C2726 1.385 . S
C2727 C2728 1.389 . S
C2728 C2727 1.389 . S
C2728 C2729 1.387 . S
C2729 H2714 0.930 . S
C2729 C2724 1.390 . S
C2729 C2728 1.387 . S
H2730 C2742 0.930 . S
H2731 C2744 0.930 . S
H2732 C2745 0.930 . S
H2733 C2749 0.959 . S
H2734 C2749 0.959 1_554 S
H2735 C2749 0.961 . S
H2736 C2750 0.960 1_556 S
H2737 C2750 0.961 . S
H2738 C2750 0.959 . S
H2739 C2753 0.929 . S
H2740 C2754 0.931 . S
H2741 C2756 0.930 . S
C2742 H2730 0.930 . S
C2742 C2743 1.399 . S
C2742 C2747 1.399 . S
C2743 C2742 1.399 . S
C2743 C2744 1.376 . S
C2744 H2731 0.930 . S
C2744 C2743 1.376 . S
C2744 C2745 1.388 . S
C2745 H2732 0.930 . S
C2745 C2744 1.388 . S
C2745 C2746 1.390 . S
C2746 C2745 1.390 . S
C2746 C2747 1.394 . S
C2746 C2752 1.465 1_556 S
C2747 C2742 1.399 . S
C2747 C2746 1.394 . S
C2747 C2748 1.544 . S
C2748 C2747 1.544 . S
C2748 C2749 1.510 . S
C2748 C2750 1.554 1_556 S
C2748 C2751 1.496 1_556 S
C2749 H2733 0.959 . S
C2749 H2734 0.959 1_556 S
C2749 H2735 0.961 . S
C2749 C2748 1.510 . S
C2750 H2736 0.960 1_554 S
C2750 H2737 0.961 . S
C2750 H2738 0.959 . S
C2750 C2748 1.554 1_554 S
C2751 C2748 1.496 1_554 S
C2751 C2752 1.396 . S
C2751 C2756 1.390 . S
C2752 C2746 1.465 1_554 S
C2752 C2751 1.396 . S
C2752 C2753 1.399 . S
C2753 H2739 0.929 . S
C2753 C2752 1.399 . S
C2753 C2754 1.385 . S
C2754 H2740 0.931 . S
C2754 C2753 1.385 . S
C2754 C2755 1.389 . S
C2755 C2754 1.389 . S
C2755 C2756 1.387 . S
C2756 H2741 0.930 . S
C2756 C2751 1.390 . S
C2756 C2755 1.387 . S
H2757 C2769 0.930 . S
H2758 C2771 0.930 . S
H2759 C2772 0.930 . S
H2760 C2776 0.959 . S
H2761 C2776 0.959 . S
H2762 C2776 0.961 . S
H2763 C2777 0.960 . S
H2764 C2777 0.961 . S
H2765 C2777 0.959 . S
H2766 C2780 0.929 . S
H2767 C2781 0.931 . S
H2768 C2783 0.930 . S
C2769 H2757 0.930 . S
C2769 C2770 1.399 . S
C2769 C2774 1.399 . S
C2770 C2769 1.399 . S
C2770 C2771 1.376 . S
C2771 H2758 0.930 . S
C2771 C2770 1.376 . S
C2771 C2772 1.388 . S
C2772 H2759 0.930 . S
C2772 C2771 1.388 . S
C2772 C2773 1.390 . S
C2773 C2772 1.390 . S
C2773 C2774 1.394 . S
C2773 C2779 1.465 . S
C2774 C2769 1.399 . S
C2774 C2773 1.394 . S
C2774 C2775 1.516 . S
C2775 C2774 1.516 . S
C2775 C2776 1.502 . S
C2775 C2777 1.561 . S
C2775 C2778 1.526 . S
C2776 H2760 0.959 . S
C2776 H2761 0.959 . S
C2776 H2762 0.961 . S
C2776 C2775 1.502 . S
C2777 H2763 0.960 . S
C2777 H2764 0.961 . S
C2777 H2765 0.959 . S
C2777 C2775 1.561 . S
C2778 C2775 1.526 . S
C2778 C2779 1.396 . S
C2778 C2783 1.390 . S
C2779 C2773 1.465 . S
C2779 C2778 1.396 . S
C2779 C2780 1.399 . S
C2780 H2766 0.929 . S
C2780 C2779 1.399 . S
C2780 C2781 1.385 . S
C2781 H2767 0.931 . S
C2781 C2780 1.385 . S
C2781 C2782 1.389 . S
C2782 C2781 1.389 . S
C2782 C2783 1.387 . S
C2783 H2768 0.930 . S
C2783 C2778 1.390 . S
C2783 C2782 1.387 . S
H2784 C2796 0.930 . S
H2785 C2798 0.930 . S
H2786 C2799 0.930 . S
H2787 C2803 0.959 . S
H2788 C2803 0.959 . S
H2789 C2803 0.961 . S
H2790 C2804 0.960 . S
H2791 C2804 0.961 . S
H2792 C2804 0.959 . S
H2793 C2807 0.929 . S
H2794 C2808 0.931 . S
H2795 C2810 0.930 . S
C2796 H2784 0.930 . S
C2796 C2797 1.399 . S
C2796 C2801 1.399 . S
C2797 C2796 1.399 . S
C2797 C2798 1.376 . S
C2798 H2785 0.930 . S
C2798 C2797 1.376 . S
C2798 C2799 1.388 . S
C2799 H2786 0.930 . S
C2799 C2798 1.388 . S
C2799 C2800 1.390 . S
C2800 C2799 1.390 . S
C2800 C2801 1.394 . S
C2800 C2806 1.465 . S
C2801 C2796 1.399 . S
C2801 C2800 1.394 . S
C2801 C2802 1.516 . S
C2802 C2801 1.516 . S
C2802 C2803 1.502 . S
C2802 C2804 1.561 . S
C2802 C2805 1.526 . S
C2803 H2787 0.959 . S
C2803 H2788 0.959 . S
C2803 H2789 0.961 . S
C2803 C2802 1.502 . S
C2804 H2790 0.960 . S
C2804 H2791 0.961 . S
C2804 H2792 0.959 . S
C2804 C2802 1.561 . S
C2805 C2802 1.526 . S
C2805 C2806 1.396 . S
C2805 C2810 1.390 . S
C2806 C2800 1.465 . S
C2806 C2805 1.396 . S
C2806 C2807 1.399 . S
C2807 H2793 0.929 . S
C2807 C2806 1.399 . S
C2807 C2808 1.385 . S
C2808 H2794 0.931 . S
C2808 C2807 1.385 . S
C2808 C2809 1.389 . S
C2809 C2808 1.389 . S
C2809 C2810 1.387 . S
C2810 H2795 0.930 . S
C2810 C2805 1.390 . S
C2810 C2809 1.387 . S
H2811 C2823 0.930 . S
H2812 C2825 0.930 . S
H2813 C2826 0.930 . S
H2814 C2830 0.959 . S
H2815 C2830 0.959 . S
H2816 C2830 0.961 . S
H2817 C2831 0.960 . S
H2818 C2831 0.961 . S
H2819 C2831 0.959 . S
H2820 C2834 0.929 . S
H2821 C2835 0.931 . S
H2822 C2837 0.930 . S
C2823 H2811 0.930 . S
C2823 C2824 1.399 . S
C2823 C2828 1.399 . S
C2824 C2823 1.399 . S
C2824 C2825 1.376 . S
C2825 H2812 0.930 . S
C2825 C2824 1.376 . S
C2825 C2826 1.388 . S
C2826 H2813 0.930 . S
C2826 C2825 1.388 . S
C2826 C2827 1.390 . S
C2827 C2826 1.390 . S
C2827 C2828 1.394 . S
C2827 C2833 1.465 . S
C2828 C2823 1.399 . S
C2828 C2827 1.394 . S
C2828 C2829 1.516 . S
C2829 C2828 1.516 . S
C2829 C2830 1.502 . S
C2829 C2831 1.561 . S
C2829 C2832 1.526 . S
C2830 H2814 0.959 . S
C2830 H2815 0.959 . S
C2830 H2816 0.961 . S
C2830 C2829 1.502 . S
C2831 H2817 0.960 . S
C2831 H2818 0.961 . S
C2831 H2819 0.959 . S
C2831 C2829 1.561 . S
C2832 C2829 1.526 . S
C2832 C2833 1.396 . S
C2832 C2837 1.390 . S
C2833 C2827 1.465 . S
C2833 C2832 1.396 . S
C2833 C2834 1.399 . S
C2834 H2820 0.929 . S
C2834 C2833 1.399 . S
C2834 C2835 1.385 . S
C2835 H2821 0.931 . S
C2835 C2834 1.385 . S
C2835 C2836 1.389 . S
C2836 C2835 1.389 . S
C2836 C2837 1.387 . S
C2837 H2822 0.930 . S
C2837 C2832 1.390 . S
C2837 C2836 1.387 . S
H2838 C2850 0.930 . S
H2839 C2852 0.930 . S
H2840 C2853 0.930 . S
H2841 C2857 0.959 . S
H2842 C2857 0.959 . S
H2843 C2857 0.961 . S
H2844 C2858 0.960 . S
H2845 C2858 0.961 . S
H2846 C2858 0.959 . S
H2847 C2861 0.929 . S
H2848 C2862 0.931 . S
H2849 C2864 0.930 . S
C2850 H2838 0.930 . S
C2850 C2851 1.399 . S
C2850 C2855 1.399 . S
C2851 C2850 1.399 . S
C2851 C2852 1.376 . S
C2852 H2839 0.930 . S
C2852 C2851 1.376 . S
C2852 C2853 1.388 . S
C2853 H2840 0.930 . S
C2853 C2852 1.388 . S
C2853 C2854 1.390 . S
C2854 C2853 1.390 . S
C2854 C2855 1.394 . S
C2854 C2860 1.465 . S
C2855 C2850 1.399 . S
C2855 C2854 1.394 . S
C2855 C2856 1.516 . S
C2856 C2855 1.516 . S
C2856 C2857 1.502 . S
C2856 C2858 1.561 . S
C2856 C2859 1.526 . S
C2857 H2841 0.959 . S
C2857 H2842 0.959 . S
C2857 H2843 0.961 . S
C2857 C2856 1.502 . S
C2858 H2844 0.960 . S
C2858 H2845 0.961 . S
C2858 H2846 0.959 . S
C2858 C2856 1.561 . S
C2859 C2856 1.526 . S
C2859 C2860 1.396 . S
C2859 C2864 1.390 . S
C2860 C2854 1.465 . S
C2860 C2859 1.396 . S
C2860 C2861 1.399 . S
C2861 H2847 0.929 . S
C2861 C2860 1.399 . S
C2861 C2862 1.385 . S
C2862 H2848 0.931 . S
C2862 C2861 1.385 . S
C2862 C2863 1.389 . S
C2863 C2862 1.389 . S
C2863 C2864 1.387 . S
C2864 H2849 0.930 . S
C2864 C2859 1.390 . S
C2864 C2863 1.387 . S
H2865 C2877 0.930 . S
H2866 C2879 0.930 . S
H2867 C2880 0.930 . S
H2868 C2884 0.959 . S
H2869 C2884 0.959 . S
H2870 C2884 0.961 . S
H2871 C2885 0.960 . S
H2872 C2885 0.961 . S
H2873 C2885 0.959 . S
H2874 C2888 0.929 . S
H2875 C2889 0.931 . S
H2876 C2891 0.930 . S
C2877 H2865 0.930 . S
C2877 C2878 1.399 . S
C2877 C2882 1.399 . S
C2878 C2877 1.399 . S
C2878 C2879 1.376 . S
C2879 H2866 0.930 . S
C2879 C2878 1.376 . S
C2879 C2880 1.388 . S
C2880 H2867 0.930 . S
C2880 C2879 1.388 . S
C2880 C2881 1.390 . S
C2881 C2880 1.390 . S
C2881 C2882 1.394 . S
C2881 C2887 1.465 . S
C2882 C2877 1.399 . S
C2882 C2881 1.394 . S
C2882 C2883 1.516 . S
C2883 C2882 1.516 . S
C2883 C2884 1.502 . S
C2883 C2885 1.561 . S
C2883 C2886 1.526 . S
C2884 H2868 0.959 . S
C2884 H2869 0.959 . S
C2884 H2870 0.961 . S
C2884 C2883 1.502 . S
C2885 H2871 0.960 . S
C2885 H2872 0.961 . S
C2885 H2873 0.959 . S
C2885 C2883 1.561 . S
C2886 C2883 1.526 . S
C2886 C2887 1.396 . S
C2886 C2891 1.390 . S
C2887 C2881 1.465 . S
C2887 C2886 1.396 . S
C2887 C2888 1.399 . S
C2888 H2874 0.929 . S
C2888 C2887 1.399 . S
C2888 C2889 1.385 . S
C2889 H2875 0.931 . S
C2889 C2888 1.385 . S
C2889 C2890 1.389 . S
C2890 C2889 1.389 . S
C2890 C2891 1.387 . S
C2891 H2876 0.930 . S
C2891 C2886 1.390 . S
C2891 C2890 1.387 . S
H2892 C2904 0.930 . S
H2893 C2906 0.930 . S
H2894 C2907 0.930 . S
H2895 C2911 0.959 . S
H2896 C2911 0.959 . S
H2897 C2911 0.961 . S
H2898 C2912 0.960 . S
H2899 C2912 0.961 . S
H2900 C2912 0.959 . S
H2901 C2915 0.929 . S
H2902 C2916 0.931 . S
H2903 C2918 0.930 . S
C2904 H2892 0.930 . S
C2904 C2905 1.399 . S
C2904 C2909 1.399 . S
C2905 C2904 1.399 . S
C2905 C2906 1.376 . S
C2906 H2893 0.930 . S
C2906 C2905 1.376 . S
C2906 C2907 1.388 . S
C2907 H2894 0.930 . S
C2907 C2906 1.388 . S
C2907 C2908 1.390 . S
C2908 C2907 1.390 . S
C2908 C2909 1.394 . S
C2908 C2914 1.465 . S
C2909 C2904 1.399 . S
C2909 C2908 1.394 . S
C2909 C2910 1.516 . S
C2910 C2909 1.516 . S
C2910 C2911 1.502 . S
C2910 C2912 1.561 . S
C2910 C2913 1.526 . S
C2911 H2895 0.959 . S
C2911 H2896 0.959 . S
C2911 H2897 0.961 . S
C2911 C2910 1.502 . S
C2912 H2898 0.960 . S
C2912 H2899 0.961 . S
C2912 H2900 0.959 . S
C2912 C2910 1.561 . S
C2913 C2910 1.526 . S
C2913 C2914 1.396 . S
C2913 C2918 1.390 . S
C2914 C2908 1.465 . S
C2914 C2913 1.396 . S
C2914 C2915 1.399 . S
C2915 H2901 0.929 . S
C2915 C2914 1.399 . S
C2915 C2916 1.385 . S
C2916 H2902 0.931 . S
C2916 C2915 1.385 . S
C2916 C2917 1.389 . S
C2917 C2916 1.389 . S
C2917 C2918 1.387 . S
C2918 H2903 0.930 . S
C2918 C2913 1.390 . S
C2918 C2917 1.387 . S
H2919 C2931 0.930 . S
H2920 C2933 0.930 . S
H2921 C2934 0.930 . S
H2922 C2938 0.959 . S
H2923 C2938 0.959 . S
H2924 C2938 0.961 . S
H2925 C2939 0.960 . S
H2926 C2939 0.961 . S
H2927 C2939 0.959 . S
H2928 C2942 0.929 . S
H2929 C2943 0.931 . S
H2930 C2945 0.930 . S
C2931 H2919 0.930 . S
C2931 C2932 1.399 . S
C2931 C2936 1.399 . S
C2932 C2931 1.399 . S
C2932 C2933 1.376 . S
C2933 H2920 0.930 . S
C2933 C2932 1.376 . S
C2933 C2934 1.388 . S
C2934 H2921 0.930 . S
C2934 C2933 1.388 . S
C2934 C2935 1.390 . S
C2935 C2934 1.390 . S
C2935 C2936 1.394 . S
C2935 C2941 1.465 . S
C2936 C2931 1.399 . S
C2936 C2935 1.394 . S
C2936 C2937 1.516 . S
C2937 C2936 1.516 . S
C2937 C2938 1.502 . S
C2937 C2939 1.561 . S
C2937 C2940 1.526 . S
C2938 H2922 0.959 . S
C2938 H2923 0.959 . S
C2938 H2924 0.961 . S
C2938 C2937 1.502 . S
C2939 H2925 0.960 . S
C2939 H2926 0.961 . S
C2939 H2927 0.959 . S
C2939 C2937 1.561 . S
C2940 C2937 1.526 . S
C2940 C2941 1.396 . S
C2940 C2945 1.390 . S
C2941 C2935 1.465 . S
C2941 C2940 1.396 . S
C2941 C2942 1.399 . S
C2942 H2928 0.929 . S
C2942 C2941 1.399 . S
C2942 C2943 1.385 . S
C2943 H2929 0.931 . S
C2943 C2942 1.385 . S
C2943 C2944 1.389 . S
C2944 C2943 1.389 . S
C2944 C2945 1.387 . S
C2945 H2930 0.930 . S
C2945 C2940 1.390 . S
C2945 C2944 1.387 . S
H2946 C2958 0.930 . S
H2947 C2960 0.930 . S
H2948 C2961 0.930 . S
H2949 C2965 0.959 . S
H2950 C2965 0.959 . S
H2951 C2965 0.961 . S
H2952 C2966 0.960 . S
H2953 C2966 0.961 . S
H2954 C2966 0.959 . S
H2955 C2969 0.929 . S
H2956 C2970 0.931 . S
H2957 C2972 0.930 . S
C2958 H2946 0.930 . S
C2958 C2959 1.399 . S
C2958 C2963 1.399 . S
C2959 C2958 1.399 . S
C2959 C2960 1.376 . S
C2960 H2947 0.930 . S
C2960 C2959 1.376 . S
C2960 C2961 1.388 . S
C2961 H2948 0.930 . S
C2961 C2960 1.388 . S
C2961 C2962 1.390 . S
C2962 C2961 1.390 . S
C2962 C2963 1.394 . S
C2962 C2968 1.465 . S
C2963 C2958 1.399 . S
C2963 C2962 1.394 . S
C2963 C2964 1.516 . S
C2964 C2963 1.516 . S
C2964 C2965 1.502 . S
C2964 C2966 1.561 . S
C2964 C2967 1.526 . S
C2965 H2949 0.959 . S
C2965 H2950 0.959 . S
C2965 H2951 0.961 . S
C2965 C2964 1.502 . S
C2966 H2952 0.960 . S
C2966 H2953 0.961 . S
C2966 H2954 0.959 . S
C2966 C2964 1.561 . S
C2967 C2964 1.526 . S
C2967 C2968 1.396 . S
C2967 C2972 1.390 . S
C2968 C2962 1.465 . S
C2968 C2967 1.396 . S
C2968 C2969 1.399 . S
C2969 H2955 0.929 . S
C2969 C2968 1.399 . S
C2969 C2970 1.385 . S
C2970 H2956 0.931 . S
C2970 C2969 1.385 . S
C2970 C2971 1.389 . S
C2971 C2970 1.389 . S
C2971 C2972 1.387 . S
C2972 H2957 0.930 . S
C2972 C2967 1.390 . S
C2972 C2971 1.387 . S
H2973 C2985 0.930 . S
H2974 C2987 0.930 . S
H2975 C2988 0.930 . S
H2976 C2992 0.959 . S
H2977 C2992 0.959 . S
H2978 C2992 0.961 . S
H2979 C2993 0.960 . S
H2980 C2993 0.961 . S
H2981 C2993 0.959 . S
H2982 C2996 0.929 . S
H2983 C2997 0.931 . S
H2984 C2999 0.930 . S
C2985 H2973 0.930 . S
C2985 C2986 1.399 . S
C2985 C2990 1.399 . S
C2986 C2985 1.399 . S
C2986 C2987 1.376 . S
C2987 H2974 0.930 . S
C2987 C2986 1.376 . S
C2987 C2988 1.388 . S
C2988 H2975 0.930 . S
C2988 C2987 1.388 . S
C2988 C2989 1.390 . S
C2989 C2988 1.390 . S
C2989 C2990 1.394 . S
C2989 C2995 1.465 . S
C2990 C2985 1.399 . S
C2990 C2989 1.394 . S
C2990 C2991 1.516 . S
C2991 C2990 1.516 . S
C2991 C2992 1.502 . S
C2991 C2993 1.561 . S
C2991 C2994 1.526 . S
C2992 H2976 0.959 . S
C2992 H2977 0.959 . S
C2992 H2978 0.961 . S
C2992 C2991 1.502 . S
C2993 H2979 0.960 . S
C2993 H2980 0.961 . S
C2993 H2981 0.959 . S
C2993 C2991 1.561 . S
C2994 C2991 1.526 . S
C2994 C2995 1.396 . S
C2994 C2999 1.390 . S
C2995 C2989 1.465 . S
C2995 C2994 1.396 . S
C2995 C2996 1.399 . S
C2996 H2982 0.929 . S
C2996 C2995 1.399 . S
C2996 C2997 1.385 . S
C2997 H2983 0.931 . S
C2997 C2996 1.385 . S
C2997 C2998 1.389 . S
C2998 C2997 1.389 . S
C2998 C2999 1.387 . S
C2999 H2984 0.930 . S
C2999 C2994 1.390 . S
C2999 C2998 1.387 . S
H3000 C3012 0.930 . S
H3001 C3014 0.930 . S
H3002 C3015 0.930 . S
H3003 C3019 0.959 . S
H3004 C3019 0.959 . S
H3005 C3019 0.961 . S
H3006 C3020 0.960 . S
H3007 C3020 0.961 . S
H3008 C3020 0.959 . S
H3009 C3023 0.929 . S
H3010 C3024 0.931 . S
H3011 C3026 0.930 . S
C3012 H3000 0.930 . S
C3012 C3013 1.399 . S
C3012 C3017 1.399 . S
C3013 C3012 1.399 . S
C3013 C3014 1.376 . S
C3014 H3001 0.930 . S
C3014 C3013 1.376 . S
C3014 C3015 1.388 . S
C3015 H3002 0.930 . S
C3015 C3014 1.388 . S
C3015 C3016 1.390 . S
C3016 C3015 1.390 . S
C3016 C3017 1.394 . S
C3016 C3022 1.465 . S
C3017 C3012 1.399 . S
C3017 C3016 1.394 . S
C3017 C3018 1.516 . S
C3018 C3017 1.516 . S
C3018 C3019 1.502 . S
C3018 C3020 1.561 . S
C3018 C3021 1.526 . S
C3019 H3003 0.959 . S
C3019 H3004 0.959 . S
C3019 H3005 0.961 . S
C3019 C3018 1.502 . S
C3020 H3006 0.960 . S
C3020 H3007 0.961 . S
C3020 H3008 0.959 . S
C3020 C3018 1.561 . S
C3021 C3018 1.526 . S
C3021 C3022 1.396 . S
C3021 C3026 1.390 . S
C3022 C3016 1.465 . S
C3022 C3021 1.396 . S
C3022 C3023 1.399 . S
C3023 H3009 0.929 . S
C3023 C3022 1.399 . S
C3023 C3024 1.385 . S
C3024 H3010 0.931 . S
C3024 C3023 1.385 . S
C3024 C3025 1.389 . S
C3025 C3024 1.389 . S
C3025 C3026 1.387 . S
C3026 H3011 0.930 . S
C3026 C3021 1.390 . S
C3026 C3025 1.387 . S
H3027 C3039 0.930 . S
H3028 C3041 0.930 . S
H3029 C3042 0.930 . S
H3030 C3046 0.959 . S
H3031 C3046 0.959 . S
H3032 C3046 0.961 . S
H3033 C3047 0.960 . S
H3034 C3047 0.961 . S
H3035 C3047 0.959 . S
H3036 C3050 0.929 . S
H3037 C3051 0.931 . S
H3038 C3053 0.930 . S
C3039 H3027 0.930 . S
C3039 C3040 1.399 . S
C3039 C3044 1.399 . S
C3040 C3039 1.399 . S
C3040 C3041 1.376 . S
C3041 H3028 0.930 . S
C3041 C3040 1.376 . S
C3041 C3042 1.388 . S
C3042 H3029 0.930 . S
C3042 C3041 1.388 . S
C3042 C3043 1.390 . S
C3043 C3042 1.390 . S
C3043 C3044 1.394 . S
C3043 C3049 1.465 . S
C3044 C3039 1.399 . S
C3044 C3043 1.394 . S
C3044 C3045 1.516 . S
C3045 C3044 1.516 . S
C3045 C3046 1.502 . S
C3045 C3047 1.561 . S
C3045 C3048 1.526 . S
C3046 H3030 0.959 . S
C3046 H3031 0.959 . S
C3046 H3032 0.961 . S
C3046 C3045 1.502 . S
C3047 H3033 0.960 . S
C3047 H3034 0.961 . S
C3047 H3035 0.959 . S
C3047 C3045 1.561 . S
C3048 C3045 1.526 . S
C3048 C3049 1.396 . S
C3048 C3053 1.390 . S
C3049 C3043 1.465 . S
C3049 C3048 1.396 . S
C3049 C3050 1.399 . S
C3050 H3036 0.929 . S
C3050 C3049 1.399 . S
C3050 C3051 1.385 . S
C3051 H3037 0.931 . S
C3051 C3050 1.385 . S
C3051 C3052 1.389 . S
C3052 C3051 1.389 . S
C3052 C3053 1.387 . S
C3053 H3038 0.930 . S
C3053 C3048 1.390 . S
C3053 C3052 1.387 . S
H3054 C3066 0.930 . S
H3055 C3068 0.930 . S
H3056 C3069 0.930 . S
H3057 C3073 0.959 . S
H3058 C3073 0.959 . S
H3059 C3073 0.961 . S
H3060 C3074 0.960 . S
H3061 C3074 0.961 . S
H3062 C3074 0.959 . S
H3063 C3077 0.929 . S
H3064 C3078 0.931 . S
H3065 C3080 0.930 . S
C3066 H3054 0.930 . S
C3066 C3067 1.399 . S
C3066 C3071 1.399 . S
C3067 C3066 1.399 . S
C3067 C3068 1.376 . S
C3068 H3055 0.930 . S
C3068 C3067 1.376 . S
C3068 C3069 1.388 . S
C3069 H3056 0.930 . S
C3069 C3068 1.388 . S
C3069 C3070 1.390 . S
C3070 C3069 1.390 . S
C3070 C3071 1.394 . S
C3070 C3076 1.465 . S
C3071 C3066 1.399 . S
C3071 C3070 1.394 . S
C3071 C3072 1.516 . S
C3072 C3071 1.516 . S
C3072 C3073 1.502 . S
C3072 C3074 1.561 . S
C3072 C3075 1.526 . S
C3073 H3057 0.959 . S
C3073 H3058 0.959 . S
C3073 H3059 0.961 . S
C3073 C3072 1.502 . S
C3074 H3060 0.960 . S
C3074 H3061 0.961 . S
C3074 H3062 0.959 . S
C3074 C3072 1.561 . S
C3075 C3072 1.526 . S
C3075 C3076 1.396 . S
C3075 C3080 1.390 . S
C3076 C3070 1.465 . S
C3076 C3075 1.396 . S
C3076 C3077 1.399 . S
C3077 H3063 0.929 . S
C3077 C3076 1.399 . S
C3077 C3078 1.385 . S
C3078 H3064 0.931 . S
C3078 C3077 1.385 . S
C3078 C3079 1.389 . S
C3079 C3078 1.389 . S
C3079 C3080 1.387 . S
C3080 H3065 0.930 . S
C3080 C3075 1.390 . S
C3080 C3079 1.387 . S
H3081 C3093 0.930 . S
H3082 C3095 0.930 . S
H3083 C3096 0.930 . S
H3084 C3100 0.959 . S
H3085 C3100 0.959 . S
H3086 C3100 0.961 . S
H3087 C3101 0.960 . S
H3088 C3101 0.961 . S
H3089 C3101 0.959 . S
H3090 C3104 0.929 . S
H3091 C3105 0.931 . S
H3092 C3107 0.930 . S
C3093 H3081 0.930 . S
C3093 C3094 1.399 . S
C3093 C3098 1.399 . S
C3094 C3093 1.399 . S
C3094 C3095 1.376 . S
C3095 H3082 0.930 . S
C3095 C3094 1.376 . S
C3095 C3096 1.388 . S
C3096 H3083 0.930 . S
C3096 C3095 1.388 . S
C3096 C3097 1.390 . S
C3097 C3096 1.390 . S
C3097 C3098 1.394 . S
C3097 C3103 1.465 . S
C3098 C3093 1.399 . S
C3098 C3097 1.394 . S
C3098 C3099 1.516 . S
C3099 C3098 1.516 . S
C3099 C3100 1.502 . S
C3099 C3101 1.561 . S
C3099 C3102 1.526 . S
C3100 H3084 0.959 . S
C3100 H3085 0.959 . S
C3100 H3086 0.961 . S
C3100 C3099 1.502 . S
C3101 H3087 0.960 . S
C3101 H3088 0.961 . S
C3101 H3089 0.959 . S
C3101 C3099 1.561 . S
C3102 C3099 1.526 . S
C3102 C3103 1.396 . S
C3102 C3107 1.390 . S
C3103 C3097 1.465 . S
C3103 C3102 1.396 . S
C3103 C3104 1.399 . S
C3104 H3090 0.929 . S
C3104 C3103 1.399 . S
C3104 C3105 1.385 . S
C3105 H3091 0.931 . S
C3105 C3104 1.385 . S
C3105 C3106 1.389 . S
C3106 C3105 1.389 . S
C3106 C3107 1.387 . S
C3107 H3092 0.930 . S
C3107 C3102 1.390 . S
C3107 C3106 1.387 . S
H3108 C3120 0.930 . S
H3109 C3122 0.930 . S
H3110 C3123 0.930 . S
H3111 C3127 0.959 . S
H3112 C3127 0.959 . S
H3113 C3127 0.961 . S
H3114 C3128 0.960 . S
H3115 C3128 0.961 . S
H3116 C3128 0.959 . S
H3117 C3131 0.929 . S
H3118 C3132 0.931 . S
H3119 C3134 0.930 . S
C3120 H3108 0.930 . S
C3120 C3121 1.399 . S
C3120 C3125 1.399 . S
C3121 C3120 1.399 . S
C3121 C3122 1.376 . S
C3122 H3109 0.930 . S
C3122 C3121 1.376 . S
C3122 C3123 1.388 . S
C3123 H3110 0.930 . S
C3123 C3122 1.388 . S
C3123 C3124 1.390 . S
C3124 C3123 1.390 . S
C3124 C3125 1.394 . S
C3124 C3130 1.465 . S
C3125 C3120 1.399 . S
C3125 C3124 1.394 . S
C3125 C3126 1.516 . S
C3126 C3125 1.516 . S
C3126 C3127 1.502 . S
C3126 C3128 1.561 . S
C3126 C3129 1.526 . S
C3127 H3111 0.959 . S
C3127 H3112 0.959 . S
C3127 H3113 0.961 . S
C3127 C3126 1.502 . S
C3128 H3114 0.960 . S
C3128 H3115 0.961 . S
C3128 H3116 0.959 . S
C3128 C3126 1.561 . S
C3129 C3126 1.526 . S
C3129 C3130 1.396 . S
C3129 C3134 1.390 . S
C3130 C3124 1.465 . S
C3130 C3129 1.396 . S
C3130 C3131 1.399 . S
C3131 H3117 0.929 . S
C3131 C3130 1.399 . S
C3131 C3132 1.385 . S
C3132 H3118 0.931 . S
C3132 C3131 1.385 . S
C3132 C3133 1.389 . S
C3133 C3132 1.389 . S
C3133 C3134 1.387 . S
C3134 H3119 0.930 . S
C3134 C3129 1.390 . S
C3134 C3133 1.387 . S
H3135 C3147 0.930 . S
H3136 C3149 0.930 . S
H3137 C3150 0.930 . S
H3138 C3154 0.959 . S
H3139 C3154 0.959 . S
H3140 C3154 0.961 . S
H3141 C3155 0.960 . S
H3142 C3155 0.961 . S
H3143 C3155 0.959 . S
H3144 C3158 0.929 . S
H3145 C3159 0.931 . S
H3146 C3161 0.930 . S
C3147 H3135 0.930 . S
C3147 C3148 1.399 . S
C3147 C3152 1.399 . S
C3148 C3147 1.399 . S
C3148 C3149 1.376 . S
C3149 H3136 0.930 . S
C3149 C3148 1.376 . S
C3149 C3150 1.388 . S
C3150 H3137 0.930 . S
C3150 C3149 1.388 . S
C3150 C3151 1.390 . S
C3151 C3150 1.390 . S
C3151 C3152 1.394 . S
C3151 C3157 1.465 . S
C3152 C3147 1.399 . S
C3152 C3151 1.394 . S
C3152 C3153 1.516 . S
C3153 C3152 1.516 . S
C3153 C3154 1.502 . S
C3153 C3155 1.561 . S
C3153 C3156 1.526 . S
C3154 H3138 0.959 . S
C3154 H3139 0.959 . S
C3154 H3140 0.961 . S
C3154 C3153 1.502 . S
C3155 H3141 0.960 . S
C3155 H3142 0.961 . S
C3155 H3143 0.959 . S
C3155 C3153 1.561 . S
C3156 C3153 1.526 . S
C3156 C3157 1.396 . S
C3156 C3161 1.390 . S
C3157 C3151 1.465 . S
C3157 C3156 1.396 . S
C3157 C3158 1.399 . S
C3158 H3144 0.929 . S
C3158 C3157 1.399 . S
C3158 C3159 1.385 . S
C3159 H3145 0.931 . S
C3159 C3158 1.385 . S
C3159 C3160 1.389 . S
C3160 C3159 1.389 . S
C3160 C3161 1.387 . S
C3161 H3146 0.930 . S
C3161 C3156 1.390 . S
C3161 C3160 1.387 . S
H3162 C3174 0.930 . S
H3163 C3176 0.930 . S
H3164 C3177 0.930 . S
H3165 C3181 0.959 . S
H3166 C3181 0.959 . S
H3167 C3181 0.961 . S
H3168 C3182 0.960 . S
H3169 C3182 0.961 . S
H3170 C3182 0.959 . S
H3171 C3185 0.929 . S
H3172 C3186 0.931 . S
H3173 C3188 0.930 . S
C3174 H3162 0.930 . S
C3174 C3175 1.399 . S
C3174 C3179 1.399 . S
C3175 C3174 1.399 . S
C3175 C3176 1.376 . S
C3176 H3163 0.930 . S
C3176 C3175 1.376 . S
C3176 C3177 1.388 . S
C3177 H3164 0.930 . S
C3177 C3176 1.388 . S
C3177 C3178 1.390 . S
C3178 C3177 1.390 . S
C3178 C3179 1.394 . S
C3178 C3184 1.465 . S
C3179 C3174 1.399 . S
C3179 C3178 1.394 . S
C3179 C3180 1.516 . S
C3180 C3179 1.516 . S
C3180 C3181 1.502 . S
C3180 C3182 1.561 . S
C3180 C3183 1.526 . S
C3181 H3165 0.959 . S
C3181 H3166 0.959 . S
C3181 H3167 0.961 . S
C3181 C3180 1.502 . S
C3182 H3168 0.960 . S
C3182 H3169 0.961 . S
C3182 H3170 0.959 . S
C3182 C3180 1.561 . S
C3183 C3180 1.526 . S
C3183 C3184 1.396 . S
C3183 C3188 1.390 . S
C3184 C3178 1.465 . S
C3184 C3183 1.396 . S
C3184 C3185 1.399 . S
C3185 H3171 0.929 . S
C3185 C3184 1.399 . S
C3185 C3186 1.385 . S
C3186 H3172 0.931 . S
C3186 C3185 1.385 . S
C3186 C3187 1.389 . S
C3187 C3186 1.389 . S
C3187 C3188 1.387 . S
C3188 H3173 0.930 . S
C3188 C3183 1.390 . S
C3188 C3187 1.387 . S
H3189 C3201 0.930 . S
H3190 C3203 0.930 . S
H3191 C3204 0.930 . S
H3192 C3208 0.959 . S
H3193 C3208 0.959 . S
H3194 C3208 0.961 . S
H3195 C3209 0.960 . S
H3196 C3209 0.961 . S
H3197 C3209 0.959 . S
H3198 C3212 0.929 . S
H3199 C3213 0.931 . S
H3200 C3215 0.930 . S
C3201 H3189 0.930 . S
C3201 C3202 1.399 . S
C3201 C3206 1.399 . S
C3202 C3201 1.399 . S
C3202 C3203 1.376 . S
C3203 H3190 0.930 . S
C3203 C3202 1.376 . S
C3203 C3204 1.388 . S
C3204 H3191 0.930 . S
C3204 C3203 1.388 . S
C3204 C3205 1.390 . S
C3205 C3204 1.390 . S
C3205 C3206 1.394 . S
C3205 C3211 1.465 . S
C3206 C3201 1.399 . S
C3206 C3205 1.394 . S
C3206 C3207 1.516 . S
C3207 C3206 1.516 . S
C3207 C3208 1.502 . S
C3207 C3209 1.561 . S
C3207 C3210 1.526 . S
C3208 H3192 0.959 . S
C3208 H3193 0.959 . S
C3208 H3194 0.961 . S
C3208 C3207 1.502 . S
C3209 H3195 0.960 . S
C3209 H3196 0.961 . S
C3209 H3197 0.959 . S
C3209 C3207 1.561 . S
C3210 C3207 1.526 . S
C3210 C3211 1.396 . S
C3210 C3215 1.390 . S
C3211 C3205 1.465 . S
C3211 C3210 1.396 . S
C3211 C3212 1.399 . S
C3212 H3198 0.929 . S
C3212 C3211 1.399 . S
C3212 C3213 1.385 . S
C3213 H3199 0.931 . S
C3213 C3212 1.385 . S
C3213 C3214 1.389 . S
C3214 C3213 1.389 . S
C3214 C3215 1.387 . S
C3215 H3200 0.930 . S
C3215 C3210 1.390 . S
C3215 C3214 1.387 . S
C1069 C28 1.570 . S
C1081 C820 1.563 . S
C1096 C325 1.568 . S
C1108 C61 1.564 . S
C1123 C886 1.570 . S
C1135 C94 1.563 . S
C1150 C391 1.564 . S
C1162 C127 1.571 . S
C1177 C952 1.563 . S
C1189 C160 1.571 . S
C1204 C457 1.568 . S
C1216 C193 1.567 . S
C1231 C1018 1.564 . S
C1243 C226 1.569 . S
C1258 C523 1.568 . S
C1270 C259 1.567 . S
C1285 C292 1.564 . S
C1297 C556 1.570 . S
C1312 C358 1.567 . S
C1324 C622 1.568 . S
C1339 C424 1.570 . S
C1351 C688 1.563 . S
C1366 C754 1.563 . S
C1378 C490 1.570 . S
C1393 C589 1.564 . S
C1405 C853 1.569 . S
C1420 C919 1.564 . S
C1432 C655 1.568 . S
C1447 C721 1.563 . S
C1459 C985 1.571 . S
C1474 C1051 1.570 . S
C1486 C787 1.565 . S
C1501 N5 1.226 . S
C1513 C380 1.312 . S
C1528 N38 1.240 1_455 S
C1540 C809 1.299 . S
C1555 C314 1.288 . S
C1567 N71 1.258 . S
C1582 N104 1.310 . S
C1594 C875 1.275 . S
C1609 C446 1.292 . S
C1621 N137 1.251 . S
C1636 C1007 1.320 . S
C1648 N170 1.261 . S
C1663 N203 1.303 . S
C1675 C512 1.274 . S
C1690 C941 1.300 . S
C1702 N236 1.240 1_455 S
C1717 N269 1.261 . S
C1729 C116 1.302 . S
C1744 N302 1.255 1_655 S
C1756 C545 1.305 . S
C1771 C50 1.325 . S
C1783 N335 1.224 . S
C1798 N368 1.242 . S
C1810 C611 1.313 . S
C1825 N401 1.223 . S
C1837 C182 1.325 . S
C1852 C743 1.323 . S
C1864 N434 1.228 . S
C1879 C248 1.325 . S
C1891 N467 1.224 . S
C1906 N500 1.254 1_655 S
C1918 C677 1.306 . S
C1933 C908 1.297 . S
C1945 N533 1.243 . S
C1960 C281 1.304 . S
C1972 N566 1.235 . S
C1987 C842 1.317 . S
C1999 N599 1.269 . S
C2014 N632 1.224 1_655 S
C2026 C347 1.322 . S
C2041 C974 1.279 . S
C2053 N665 1.276 . S
C2068 C479 1.298 . S
C2080 N698 1.299 1_655 S
C2095 N731 1.223 . S
C2107 C1040 1.317 . S
C2122 C413 1.275 . S
C2134 N764 1.291 . S
C2149 C644 1.280 . S
C2161 N797 1.303 . S
C2176 N830 1.276 . S
C2188 C17 1.293 . S
C2203 N863 1.260 . S
C2215 C578 1.302 . S
C2230 C83 1.273 . S
C2242 N896 1.311 1_455 S
C2257 C710 1.278 . S
C2269 N929 1.302 . S
C2284 N962 1.298 1_455 S
C2296 C215 1.281 . S
C2311 C776 1.274 . S
C2323 N995 1.312 . S
C2338 C149 1.273 . S
C2350 N1028 1.312 . S
C2365 C8 1.043 . S
C2377 C206 0.987 . S
C2392 C239 0.987 . S
C2404 C41 1.037 . S
C2419 C74 1.026 . S
C2431 C140 0.996 . S
C2446 C107 0.988 . S
C2458 C173 1.036 . S
C2473 C470 1.041 . S
C2485 C272 1.013 . S
C2500 C503 0.990 . S
C2512 C305 1.017 . S
C2527 C404 1.043 . S
C2539 C338 1.006 . S
C2554 C437 1.009 . S
C2566 C371 1.042 . S
C2581 C536 1.003 . S
C2593 C734 1.035 . S
C2608 C569 1.040 . S
C2620 C767 0.997 . S
C2635 C602 1.028 . S
C2647 C668 0.994 . S
C2662 C635 0.986 . S
C2674 C701 1.043 . S
C2689 C998 0.995 . S
C2701 C800 1.009 . S
C2716 C1031 1.032 . S
C2728 C833 0.986 . S
C2743 C866 0.990 . S
C2755 C932 1.016 . S
C2770 C899 1.025 . S
C2782 C965 0.987 . S
C2797 N14 1.867 . S
C2809 N707 1.895 . S
C2824 N47 1.866 1_565 S
C2836 N740 1.900 . S
C2851 N80 1.897 . S
C2863 N773 1.866 . S
C2878 N113 1.897 1_545 S
C2890 N674 1.870 . S
C2905 N641 1.896 . S
C2917 N146 1.867 . S
C2932 N179 1.867 1_565 S
C2944 N542 1.899 . S
C2959 N575 1.872 . S
C2971 N212 1.896 . S
C2986 N245 1.870 1_545 S
C2998 N608 1.897 . S
C3013 N971 1.875 . S
C3025 N278 1.894 . S
C3040 N311 1.895 1_545 S
C3052 N1004 1.866 . S
C3067 N1037 1.899 . S
C3079 N344 1.865 . S
C3094 N377 1.897 1_565 S
C3106 N938 1.866 . S
C3121 N410 1.877 . S
C3133 N905 1.893 . S
C3148 N806 1.887 . S
C3160 N443 1.872 1_545 S
C3175 N476 1.871 . S
C3187 N839 1.897 . S
C3202 N509 1.870 1_565 S
C3214 N872 1.898 . S
