# Generated by pormake.
# Topology yfj, (5)-cn, num edge types: 1
# Building blocks:
#     Node 0, Type 0, BuildingBlock: XOMCOT_clean_sbu_0, # of connection points: 5
#     Node 1, Type 0, BuildingBlock: XOMCOT_clean_sbu_0, # of connection points: 5
#     Node 2, Type 0, BuildingBlock: XOMCOT_clean_sbu_0, # of connection points: 5
#     Node 3, Type 0, BuildingBlock: XOMCOT_clean_sbu_0, # of connection points: 5
#     Node 4, Type 0, BuildingBlock: XOMCOT_clean_sbu_0, # of connection points: 5
#     Node 5, Type 0, BuildingBlock: XOMCOT_clean_sbu_0, # of connection points: 5
#     Node 6, Type 0, BuildingBlock: XOMCOT_clean_sbu_0, # of connection points: 5
#     Node 7, Type 0, BuildingBlock: XOMCOT_clean_sbu_0, # of connection points: 5
#     Node 8, Type 0, BuildingBlock: XOMCOT_clean_sbu_0, # of connection points: 5
#     Node 9, Type 0, BuildingBlock: XOMCOT_clean_sbu_0, # of connection points: 5
#     Node 10, Type 0, BuildingBlock: XOMCOT_clean_sbu_0, # of connection points: 5
#     Node 11, Type 0, BuildingBlock: XOMCOT_clean_sbu_0, # of connection points: 5
#     Node 12, Type 0, BuildingBlock: XOMCOT_clean_sbu_0, # of connection points: 5
#     Node 13, Type 0, BuildingBlock: XOMCOT_clean_sbu_0, # of connection points: 5
#     Node 14, Type 0, BuildingBlock: XOMCOT_clean_sbu_0, # of connection points: 5
#     Node 15, Type 0, BuildingBlock: XOMCOT_clean_sbu_0, # of connection points: 5
#     Edge 16, Type (0, 0), BuildingBlock: KIFKEQ_clean_linker_1, # of connection points: 2
#     Edge 17, Type (0, 0), BuildingBlock: KIFKEQ_clean_linker_1, # of connection points: 2
#     Edge 18, Type (0, 0), BuildingBlock: KIFKEQ_clean_linker_1, # of connection points: 2
#     Edge 19, Type (0, 0), BuildingBlock: KIFKEQ_clean_linker_1, # of connection points: 2
#     Edge 20, Type (0, 0), BuildingBlock: KIFKEQ_clean_linker_1, # of connection points: 2
#     Edge 21, Type (0, 0), BuildingBlock: KIFKEQ_clean_linker_1, # of connection points: 2
#     Edge 22, Type (0, 0), BuildingBlock: KIFKEQ_clean_linker_1, # of connection points: 2
#     Edge 23, Type (0, 0), BuildingBlock: KIFKEQ_clean_linker_1, # of connection points: 2
#     Edge 24, Type (0, 0), BuildingBlock: KIFKEQ_clean_linker_1, # of connection points: 2
#     Edge 25, Type (0, 0), BuildingBlock: KIFKEQ_clean_linker_1, # of connection points: 2
#     Edge 26, Type (0, 0), BuildingBlock: KIFKEQ_clean_linker_1, # of connection points: 2
#     Edge 27, Type (0, 0), BuildingBlock: KIFKEQ_clean_linker_1, # of connection points: 2
#     Edge 28, Type (0, 0), BuildingBlock: KIFKEQ_clean_linker_1, # of connection points: 2
#     Edge 29, Type (0, 0), BuildingBlock: KIFKEQ_clean_linker_1, # of connection points: 2
#     Edge 30, Type (0, 0), BuildingBlock: KIFKEQ_clean_linker_1, # of connection points: 2
#     Edge 31, Type (0, 0), BuildingBlock: KIFKEQ_clean_linker_1, # of connection points: 2
#     Edge 32, Type (0, 0), BuildingBlock: KIFKEQ_clean_linker_1, # of connection points: 2
#     Edge 33, Type (0, 0), BuildingBlock: KIFKEQ_clean_linker_1, # of connection points: 2
#     Edge 34, Type (0, 0), BuildingBlock: KIFKEQ_clean_linker_1, # of connection points: 2
#     Edge 35, Type (0, 0), BuildingBlock: KIFKEQ_clean_linker_1, # of connection points: 2
#     Edge 36, Type (0, 0), BuildingBlock: KIFKEQ_clean_linker_1, # of connection points: 2
#     Edge 37, Type (0, 0), BuildingBlock: KIFKEQ_clean_linker_1, # of connection points: 2
#     Edge 38, Type (0, 0), BuildingBlock: KIFKEQ_clean_linker_1, # of connection points: 2
#     Edge 39, Type (0, 0), BuildingBlock: KIFKEQ_clean_linker_1, # of connection points: 2
#     Edge 40, Type (0, 0), BuildingBlock: KIFKEQ_clean_linker_1, # of connection points: 2
#     Edge 41, Type (0, 0), BuildingBlock: KIFKEQ_clean_linker_1, # of connection points: 2
#     Edge 42, Type (0, 0), BuildingBlock: KIFKEQ_clean_linker_1, # of connection points: 2
#     Edge 43, Type (0, 0), BuildingBlock: KIFKEQ_clean_linker_1, # of connection points: 2
#     Edge 44, Type (0, 0), BuildingBlock: KIFKEQ_clean_linker_1, # of connection points: 2
#     Edge 45, Type (0, 0), BuildingBlock: KIFKEQ_clean_linker_1, # of connection points: 2
#     Edge 46, Type (0, 0), BuildingBlock: KIFKEQ_clean_linker_1, # of connection points: 2
#     Edge 47, Type (0, 0), BuildingBlock: KIFKEQ_clean_linker_1, # of connection points: 2
#     Edge 48, Type (0, 0), BuildingBlock: KIFKEQ_clean_linker_1, # of connection points: 2
#     Edge 49, Type (0, 0), BuildingBlock: KIFKEQ_clean_linker_1, # of connection points: 2
#     Edge 50, Type (0, 0), BuildingBlock: KIFKEQ_clean_linker_1, # of connection points: 2
#     Edge 51, Type (0, 0), BuildingBlock: KIFKEQ_clean_linker_1, # of connection points: 2
#     Edge 52, Type (0, 0), BuildingBlock: KIFKEQ_clean_linker_1, # of connection points: 2
#     Edge 53, Type (0, 0), BuildingBlock: KIFKEQ_clean_linker_1, # of connection points: 2
#     Edge 54, Type (0, 0), BuildingBlock: KIFKEQ_clean_linker_1, # of connection points: 2
#     Edge 55, Type (0, 0), BuildingBlock: KIFKEQ_clean_linker_1, # of connection points: 2
# Relax obj value: 0.402
# Max RMSD: 0.239
# Mean RMSD: 0.239
data_MOF--net-yfj--node1-XOMCOT_clean_sbu_0--edge1-KIFKEQ_clean_linker_1
_symmetry_space_group_name_H-M    P1
_symmetry_Int_Tables_number       1
_symmetry_cell_setting            triclinic
loop_
_symmetry_equiv_pos_as_xyz
'x, y, z'
_cell_length_a     48.067915
_cell_length_b     48.041041
_cell_length_c     48.573109
_cell_angle_alpha  89.99602
_cell_angle_beta   89.807681
_cell_angle_gamma 89.762274
loop_
_atom_site_label
_atom_site_type_symbol
_atom_site_fract_x
_atom_site_fract_y
_atom_site_fract_z
_atom_type_partial_charge
Co0 Co 0.12653 0.15222 0.33098 0.0
C1 C 0.16689 0.15257 0.28343 0.0
C2 C 0.14197 0.18968 0.28558 0.0
C3 C 0.1601 0.19195 0.26358 0.0
N4 N 0.14618 0.16504 0.29813 0.0
N5 N 0.17564 0.16856 0.26212 0.0
H6 H 0.17592 0.13258 0.28845 0.0
H7 H 0.12677 0.20502 0.292 0.0
C8 C 0.12824 0.2083 0.3563 0.0
O9 O 0.10404 0.21035 0.34394 0.0
N10 N 0.10759 0.13899 0.36431 0.0
C11 C 0.09786 0.11298 0.3685 0.0
C12 C 0.09151 0.10955 0.39593 0.0
C13 C 0.10756 0.15068 0.38978 0.0
N14 N 0.09787 0.13318 0.40937 0.0
C15 C 0.11799 0.10396 0.2971 0.0
C16 C 0.06059 0.10528 0.30102 0.0
C17 C 0.07378 0.0807 0.29202 0.0
C18 C 0.10273 0.08095 0.28857 0.0
C19 C 0.07676 0.12815 0.30911 0.0
N20 N 0.1051 0.12644 0.30876 0.0
H21 H 0.14032 0.10252 0.29624 0.0
H22 H 0.06674 0.1461 0.3183 0.0
H23 H 0.0973 0.09666 0.35323 0.0
H24 H 0.1158 0.17095 0.39447 0.0
O25 O 0.15604 0.12415 0.33855 0.0
O26 O 0.15808 0.16511 0.35477 0.0
O27 O 0.14261 0.18554 0.35313 0.0
C28 C 0.1692 0.14071 0.35372 0.0
H29 H 0.16147 0.20933 0.24946 0.0
H30 H 0.08474 0.0904 0.40555 0.0
H31 H 0.03825 0.1061 0.30386 0.0
H32 H 0.11372 0.06281 0.28089 0.0
Co33 Co 0.87664 0.63937 0.58387 0.0
C34 C 0.87252 0.6725 0.53182 0.0
C35 C 0.83453 0.6509 0.54024 0.0
C36 C 0.83147 0.66589 0.51608 0.0
N37 N 0.86032 0.65507 0.55024 0.0
N38 N 0.85548 0.67934 0.51073 0.0
H39 H 0.89356 0.68012 0.53364 0.0
H40 H 0.81898 0.63771 0.5496 0.0
C41 C 0.8299 0.61436 0.61894 0.0
O42 O 0.84711 0.59612 0.62961 0.0
N43 N 0.89383 0.62508 0.6173 0.0
C44 C 0.91641 0.60844 0.61902 0.0
C45 C 0.92326 0.60507 0.64631 0.0
C46 C 0.88839 0.63299 0.64353 0.0
N47 N 0.90549 0.62035 0.66174 0.0
C48 C 0.90134 0.60684 0.54224 0.0
C49 C 0.8979 0.55637 0.56893 0.0
C50 C 0.91896 0.56035 0.54929 0.0
C51 C 0.91903 0.58518 0.53434 0.0
C52 C 0.87992 0.57848 0.57561 0.0
N53 N 0.88387 0.60427 0.56438 0.0
H54 H 0.90451 0.62683 0.5327 0.0
H55 H 0.86507 0.5752 0.59159 0.0
H56 H 0.9276 0.59982 0.60164 0.0
H57 H 0.87165 0.64703 0.64917 0.0
O58 O 0.91208 0.65616 0.57559 0.0
O59 O 0.87771 0.67592 0.59961 0.0
O60 O 0.83754 0.62967 0.59848 0.0
C61 C 0.90292 0.67715 0.58982 0.0
H62 H 0.81316 0.66636 0.50317 0.0
H63 H 0.94033 0.59266 0.65414 0.0
H64 H 0.89667 0.53709 0.58043 0.0
H65 H 0.93477 0.58907 0.5188 0.0
Co66 Co 0.38041 0.3758 0.83475 0.0
C67 C 0.34457 0.37147 0.78466 0.0
C68 C 0.3736 0.33763 0.78708 0.0
C69 C 0.35851 0.33513 0.763 0.0
N70 N 0.36486 0.36045 0.80075 0.0
N71 N 0.34022 0.35651 0.76144 0.0
H72 H 0.33395 0.39079 0.78917 0.0
H73 H 0.39023 0.32402 0.79378 0.0
C74 C 0.40625 0.32796 0.86755 0.0
O75 O 0.42485 0.34463 0.87819 0.0
N76 N 0.39474 0.39195 0.86855 0.0
C77 C 0.40937 0.41573 0.87078 0.0
C78 C 0.41195 0.42241 0.89821 0.0
C79 C 0.38748 0.38527 0.89466 0.0
N80 N 0.39833 0.40312 0.91319 0.0
C81 C 0.41118 0.40232 0.79347 0.0
C82 C 0.46218 0.40064 0.81922 0.0
C83 C 0.4565 0.4223 0.80066 0.0
C84 C 0.43145 0.42162 0.78621 0.0
C85 C 0.44108 0.38159 0.82595 0.0
N86 N 0.41501 0.38444 0.81505 0.0
H87 H 0.39097 0.40457 0.78415 0.0
H88 H 0.44523 0.36683 0.84184 0.0
H89 H 0.41688 0.42797 0.85364 0.0
H90 H 0.37424 0.36789 0.89993 0.0
O91 O 0.36279 0.41127 0.82809 0.0
O92 O 0.344 0.37583 0.85107 0.0
O93 O 0.3909 0.33626 0.84744 0.0
C94 C 0.34222 0.40141 0.84235 0.0
H95 H 0.36103 0.31884 0.74781 0.0
H96 H 0.423 0.4401 0.90647 0.0
H97 H 0.48163 0.40005 0.83039 0.0
H98 H 0.42653 0.43753 0.77115 0.0
Co99 Co 0.63846 0.87862 0.08869 0.0
C100 C 0.64388 0.84323 0.03798 0.0
C101 C 0.67666 0.87316 0.04063 0.0
C102 C 0.67992 0.85807 1.01657 0.0
N103 N 0.65403 0.86387 0.05418 0.0
N104 N 0.65924 0.83918 1.01483 0.0
H105 H 0.62502 0.83197 0.04245 0.0
H106 H 0.68972 0.89005 0.04752 0.0
C107 C 0.68634 0.90449 0.1214 0.0
O108 O 0.66949 0.92261 0.13287 0.0
N109 N 0.62215 0.892 0.12308 0.0
C110 C 0.59822 0.9065 0.12574 0.0
C111 C 0.59241 0.90996 0.15326 0.0
C112 C 0.62948 0.8852 0.14914 0.0
N113 N 0.61222 0.8968 0.16801 0.0
C114 C 0.61254 0.91069 0.04745 0.0
C115 C 0.61081 0.96007 0.07625 0.0
C116 C 0.59032 0.9552 0.05624 0.0
C117 C 0.59321 0.93114 0.0401 0.0
C118 C 0.63047 0.93928 0.08237 0.0
N119 N 0.62919 0.91376 0.07001 0.0
H120 H 0.61143 0.89095 0.03696 0.0
H121 H 0.64399 0.94294 0.09929 0.0
H122 H 0.58545 0.91359 0.10883 0.0
H123 H 0.64753 0.87267 0.15415 0.0
O124 O 0.60331 0.86081 0.08169 0.0
O125 O 0.63916 0.84194 0.10409 0.0
O126 O 0.67791 0.88922 0.1013 0.0
C127 C 0.61363 0.84005 0.09545 0.0
H128 H 0.69636 0.86089 1.00158 0.0
H129 H 0.57464 0.92094 0.16174 0.0
H130 H 0.61024 0.9785 0.08903 0.0
H131 H 0.57913 0.92689 0.02329 0.0
Co132 Co 0.14731 0.38234 0.949 0.0
C133 C 0.18306 0.37649 0.99925 0.0
C134 C 0.15388 0.34308 0.99599 0.0
C135 C 0.16905 0.33974 0.01995 0.0
N136 N 0.16266 0.36616 0.98289 0.0
N137 N 0.18746 0.36082 0.02208 0.0
H138 H 0.19385 0.39571 0.99514 0.0
H139 H 0.13726 0.32981 0.98893 0.0
C140 C 0.12006 0.33582 0.91557 0.0
O141 O 0.10215 0.35346 0.90504 0.0
N142 N 0.13329 0.39935 0.91536 0.0
C143 C 0.11778 0.42271 0.91346 0.0
C144 C 0.11413 0.42912 0.88611 0.0
C145 C 0.14036 0.39296 0.8891 0.0
N146 N 0.12816 0.41028 0.87078 0.0
C147 C 0.11645 0.40921 0.99039 0.0
C148 C 0.06572 0.40814 0.96418 0.0
C149 C 0.07121 0.42994 0.98268 0.0
C150 C 0.09603 0.42858 0.99766 0.0
C151 C 0.08669 0.38864 0.95797 0.0
N152 N 0.11276 0.39142 0.96877 0.0
H153 H 0.13659 0.4111 0.99994 0.0
H154 H 0.08239 0.37345 0.9426 0.0
H155 H 0.11016 0.43473 0.93073 0.0
H156 H 0.15348 0.37546 0.88353 0.0
O157 O 0.16551 0.41727 0.95621 0.0
O158 O 0.18366 0.38171 0.93266 0.0
O159 O 0.13603 0.34327 0.93553 0.0
C160 C 0.18588 0.4071 0.94173 0.0
H161 H 0.16656 0.32299 0.03462 0.0
H162 H 0.10244 0.44664 0.87813 0.0
H163 H 0.0465 0.40748 0.95267 0.0
H164 H 0.10074 0.44386 1.01335 0.0
Co165 Co 0.64474 0.64422 0.2025 0.0
C166 C 0.64751 0.67811 0.25419 0.0
C167 C 0.68586 0.65654 0.24652 0.0
C168 C 0.68843 0.67175 0.27053 0.0
N169 N 0.6602 0.66058 0.2361 0.0
N170 N 0.66423 0.68524 0.27542 0.0
H171 H 0.62642 0.68567 0.25194 0.0
H172 H 0.70168 0.64326 0.23757 0.0
C173 C 0.6918 0.61686 0.1698 0.0
O174 O 0.67477 0.59812 0.15988 0.0
N175 N 0.62845 0.62892 0.16916 0.0
C176 C 0.6064 0.61177 0.16754 0.0
C177 C 0.60033 0.60727 0.14025 0.0
C178 C 0.63451 0.63577 0.14278 0.0
N179 N 0.61817 0.62216 0.12464 0.0
C180 C 0.61621 0.61367 0.24276 0.0
C181 C 0.62572 0.56131 0.22161 0.0
C182 C 0.60192 0.56575 0.23803 0.0
C183 C 0.59863 0.59197 0.25024 0.0
C184 C 0.64294 0.58385 0.21468 0.0
N185 N 0.63623 0.61018 0.22302 0.0
H186 H 0.61138 0.63414 0.25057 0.0
H187 H 0.66028 0.58008 0.20134 0.0
H188 H 0.59509 0.60347 0.18494 0.0
H189 H 0.65118 0.64972 0.13705 0.0
O190 O 0.60943 0.6624 0.20882 0.0
O191 O 0.645 0.68022 0.18535 0.0
O192 O 0.68396 0.633 0.18955 0.0
C193 C 0.61953 0.68259 0.19424 0.0
H194 H 0.70656 0.67236 0.28367 0.0
H195 H 0.58372 0.59431 0.13254 0.0
H196 H 0.63012 0.54103 0.21287 0.0
H197 H 0.58102 0.59672 0.26338 0.0
Co198 Co 0.38352 0.15134 0.45328 0.0
C199 C 0.35127 0.156 0.50566 0.0
C200 C 0.37191 0.19433 0.4965 0.0
C201 C 0.35619 0.19776 0.52023 0.0
N202 N 0.36882 0.16805 0.48725 0.0
N203 N 0.34328 0.17354 0.526 0.0
H204 H 0.34376 0.13491 0.50395 0.0
H205 H 0.38433 0.21016 0.48661 0.0
C206 C 0.41504 0.19454 0.42017 0.0
O207 O 0.43215 0.17553 0.41049 0.0
N208 N 0.39666 0.13378 0.41951 0.0
C209 C 0.41204 0.11037 0.41703 0.0
C210 C 0.41476 0.10398 0.38951 0.0
C211 C 0.38911 0.14045 0.3935 0.0
N212 N 0.40042 0.12298 0.37474 0.0
C213 C 0.41077 0.11823 0.49252 0.0
C214 C 0.46412 0.12318 0.47212 0.0
C215 C 0.45713 0.09969 0.48784 0.0
C216 C 0.4307 0.09853 0.49973 0.0
C217 C 0.44328 0.14269 0.46543 0.0
N218 N 0.41633 0.13836 0.47342 0.0
H219 H 0.38993 0.11517 0.50007 0.0
H220 H 0.44869 0.15982 0.45243 0.0
H221 H 0.4202 0.09831 0.43397 0.0
H222 H 0.37617 0.15821 0.38843 0.0
O223 O 0.36113 0.11862 0.45915 0.0
O224 O 0.3481 0.15671 0.43627 0.0
O225 O 0.39929 0.18897 0.44094 0.0
C226 C 0.34242 0.13179 0.44501 0.0
H227 H 0.35445 0.21665 0.53226 0.0
H228 H 0.42598 0.08635 0.38106 0.0
H229 H 0.48471 0.12524 0.46326 0.0
H230 H 0.42477 0.08119 0.51272 0.0
Co231 Co 0.88367 0.87419 0.69655 0.0
C232 C 0.8766 0.83858 0.747 0.0
C233 C 0.85059 0.87495 0.74789 0.0
C234 C 0.84808 0.86123 0.77277 0.0
N235 N 0.8686 0.86089 0.73167 0.0
N236 N 0.86444 0.83835 0.77219 0.0
H237 H 0.89205 0.82348 0.74062 0.0
H238 H 0.84085 0.89451 0.74244 0.0
C239 C 0.83705 0.90239 0.66447 0.0
O240 O 0.85481 0.91942 0.65282 0.0
N241 N 0.89953 0.88668 0.66175 0.0
C242 C 0.92297 0.90165 0.65845 0.0
C243 C 0.92895 0.90356 0.63078 0.0
C244 C 0.89222 0.87878 0.63601 0.0
N245 N 0.9095 0.88935 0.61667 0.0
C246 C 0.91458 0.90482 0.73479 0.0
C247 C 0.90747 0.95703 0.7124 0.0
C248 C 0.93048 0.95221 0.72961 0.0
C249 C 0.9327 0.92606 0.74219 0.0
C250 C 0.88967 0.93498 0.70554 0.0
N251 N 0.89495 0.90866 0.71486 0.0
H252 H 0.91821 0.88435 0.74325 0.0
H253 H 0.87294 0.93912 0.69172 0.0
H254 H 0.93531 0.9101 0.67501 0.0
H255 H 0.87462 0.86555 0.63156 0.0
O256 O 0.91808 0.85435 0.70249 0.0
O257 O 0.88074 0.83743 0.68136 0.0
O258 O 0.84461 0.88701 0.68487 0.0
C259 C 0.90644 0.83418 0.68912 0.0
H260 H 0.83547 0.86781 0.79011 0.0
H261 H 0.9462 0.91478 0.62174 0.0
H262 H 0.90401 0.97728 0.7032 0.0
H263 H 0.94973 0.92106 0.75586 0.0
Co264 Co 0.64821 0.64342 0.83996 0.0
C265 C 0.68497 0.64778 0.79005 0.0
C266 C 0.65639 0.682 0.79296 0.0
C267 C 0.67141 0.68446 0.76878 0.0
N268 N 0.66484 0.65897 0.80641 0.0
N269 N 0.68938 0.66284 0.76682 0.0
H270 H 0.69528 0.62825 0.79433 0.0
H271 H 0.63985 0.69569 0.7998 0.0
C272 C 0.62063 0.69108 0.87197 0.0
O273 O 0.60204 0.67403 0.88218 0.0
N274 N 0.63262 0.6271 0.87328 0.0
C275 C 0.61664 0.60417 0.87485 0.0
C276 C 0.61199 0.59794 0.90211 0.0
C277 C 0.63882 0.63349 0.89971 0.0
N278 N 0.62573 0.61653 0.91778 0.0
C279 C 0.61878 0.61675 0.79806 0.0
C280 C 0.56654 0.62013 0.82144 0.0
C281 C 0.57269 0.59803 0.80354 0.0
C282 C 0.59846 0.5978 0.79023 0.0
C283 C 0.58774 0.63881 0.82878 0.0
N284 N 0.61429 0.63504 0.81919 0.0
H285 H 0.63936 0.61394 0.78958 0.0
H286 H 0.58306 0.65419 0.84397 0.0
H287 H 0.60943 0.59227 0.85741 0.0
H288 H 0.65205 0.65068 0.90551 0.0
O289 O 0.66592 0.60794 0.83356 0.0
O290 O 0.68414 0.64305 0.85727 0.0
O291 O 0.63721 0.6829 0.85267 0.0
C292 C 0.68606 0.61749 0.84847 0.0
H293 H 0.66896 0.70086 0.7537 0.0
H294 H 0.59986 0.58065 0.90977 0.0
H295 H 0.54651 0.6214 0.83165 0.0
H296 H 0.60377 0.58145 0.77575 0.0
Co297 Co 0.37494 0.15325 0.08892 0.0
C298 C 0.37132 0.17943 0.03321 0.0
C299 C 0.33158 0.16399 0.04586 0.0
C300 C 0.32866 0.17763 0.02089 0.0
N301 N 0.35843 0.16513 0.05375 0.0
N302 N 0.35375 0.18731 1.01293 0.0
H303 H 0.39313 0.18474 0.03327 0.0
H304 H 0.315 0.15451 0.05757 0.0
C305 C 0.31858 0.13112 0.11105 0.0
O306 O 0.32082 0.1069 0.09876 0.0
N307 N 0.39194 0.14289 0.12382 0.0
C308 C 0.41747 0.13148 0.12665 0.0
C309 C 0.42217 0.12626 0.15402 0.0
C310 C 0.38171 0.14512 0.14972 0.0
N311 N 0.39972 0.13475 0.16852 0.0
C312 C 0.3901 0.1106 0.05133 0.0
C313 C 0.39582 0.07004 0.09118 0.0
C314 C 0.41175 0.06797 0.06702 0.0
C315 C 0.40705 0.08747 0.04614 0.0
C316 C 0.37852 0.09324 0.0953 0.0
N317 N 0.37786 0.1145 0.07651 0.0
H318 H 0.39027 0.12706 0.03629 0.0
H319 H 0.36907 0.0958 0.11536 0.0
H320 H 0.43148 0.12666 0.10983 0.0
H321 H 0.3614 0.15354 0.15472 0.0
O322 O 0.41137 0.16462 0.0764 0.0
O323 O 0.38046 0.19152 0.09817 0.0
O324 O 0.33672 0.15013 0.107 0.0
C325 C 0.40511 0.18854 0.08733 0.0
H326 H 0.30947 0.18033 1.00959 0.0
H327 H 0.44074 0.11695 0.16265 0.0
H328 H 0.39848 0.05513 0.1077 0.0
H329 H 0.41884 0.08666 0.02711 0.0
Co330 Co 0.8765 0.8694 0.33228 0.0
C331 C 0.84169 0.86783 0.28131 0.0
C332 C 0.86137 0.82845 0.28866 0.0
C333 C 0.84548 0.82652 0.26504 0.0
N334 N 0.85896 0.85439 0.29902 0.0
N335 N 0.83318 0.85137 0.26035 0.0
H336 H 0.83523 0.88928 0.28366 0.0
H337 H 0.87392 0.81199 0.29744 0.0
C338 C 0.90254 0.82176 0.36495 0.0
O339 O 0.92166 0.83855 0.37453 0.0
N340 N 0.89284 0.88543 0.36529 0.0
C341 C 0.91049 0.90706 0.36649 0.0
C342 C 0.91502 0.91366 0.39366 0.0
C343 C 0.88586 0.88008 0.3918 0.0
N344 N 0.89977 0.89649 0.40976 0.0
C345 C 0.90764 0.89579 0.29092 0.0
C346 C 0.96 0.88383 0.31064 0.0
C347 C 0.9565 0.90703 0.29329 0.0
C348 C 0.93014 0.91156 0.28194 0.0
C349 C 0.93671 0.86832 0.31894 0.0
N350 N 0.91057 0.87621 0.31111 0.0
H351 H 0.88728 0.90162 0.28365 0.0
H352 H 0.93991 0.8513 0.33272 0.0
H353 H 0.91905 0.9178 0.34885 0.0
H354 H 0.87137 0.86395 0.39762 0.0
O355 O 0.8598 0.90541 0.32595 0.0
O356 O 0.84077 0.87084 0.34995 0.0
O357 O 0.88639 0.82979 0.34533 0.0
C358 C 0.83936 0.89628 0.34084 0.0
H359 H 0.84354 0.80832 0.25207 0.0
H360 H 0.92833 0.93024 0.40076 0.0
H361 H 0.98025 0.87865 0.31893 0.0
H362 H 0.92616 0.92889 0.26824 0.0
Co363 Co 0.14862 0.3828 0.58519 0.0
C364 C 0.15466 0.3468 0.53498 0.0
C365 C 0.18813 0.37589 0.53849 0.0
C366 C 0.19173 0.36062 0.51461 0.0
N367 N 0.16481 0.36729 0.55133 0.0
N368 N 0.17058 0.34232 0.5123 0.0
H369 H 0.13574 0.33557 0.53926 0.0
H370 H 0.20126 0.39263 0.54557 0.0
C371 C 0.19791 0.40754 0.6171 0.0
O372 O 0.18283 0.42848 0.62583 0.0
N373 N 0.13216 0.39665 0.61933 0.0
C374 C 0.10717 0.40933 0.62184 0.0
C375 C 0.10155 0.41359 0.64927 0.0
C376 C 0.14048 0.39175 0.6455 0.0
N377 N 0.12257 0.40268 0.66415 0.0
C378 C 0.12975 0.41698 0.54119 0.0
C379 C 0.11976 0.46357 0.57272 0.0
C380 C 0.10366 0.45955 0.54901 0.0
C381 C 0.11092 0.43713 0.53194 0.0
C382 C 0.13906 0.44326 0.58085 0.0
N383 N 0.14192 0.41881 0.5666 0.0
H384 H 0.13122 0.39821 0.52919 0.0
H385 H 0.14747 0.44575 0.60095 0.0
H386 H 0.09372 0.41474 0.60484 0.0
H387 H 0.15929 0.38054 0.65076 0.0
O388 O 0.11276 0.36747 0.5765 0.0
O389 O 0.14629 0.34598 0.60013 0.0
O390 O 0.18817 0.39062 0.59909 0.0
C391 C 0.12104 0.34593 0.59045 0.0
H392 H 0.20825 0.36348 0.49971 0.0
H393 H 0.08307 0.42341 0.65766 0.0
H394 H 0.11546 0.48053 0.58678 0.0
H395 H 0.1003 0.43363 0.51263 0.0
Co396 Co 0.64717 0.87578 0.45208 0.0
C397 C 0.68521 0.87066 0.50061 0.0
C398 C 0.65544 0.83762 0.49949 0.0
C399 C 0.67117 0.83501 0.52315 0.0
N400 N 0.66421 0.86002 0.48527 0.0
N401 N 0.6899 0.85588 0.52392 0.0
H402 H 0.69601 0.88967 0.49562 0.0
H403 H 0.63823 0.82452 0.49356 0.0
C404 C 0.61855 0.82891 0.42073 0.0
O405 O 0.5999 0.84632 0.41109 0.0
N406 N 0.63129 0.89232 0.41901 0.0
C407 C 0.61543 0.91549 0.41764 0.0
C408 C 0.61042 0.92162 0.39044 0.0
C409 C 0.6371 0.88574 0.39249 0.0
N410 N 0.62386 0.90277 0.37461 0.0
C411 C 0.61905 0.90318 0.49473 0.0
C412 C 0.56642 0.90128 0.47247 0.0
C413 C 0.57328 0.92325 0.49021 0.0
C414 C 0.59919 0.92259 0.50311 0.0
C415 C 0.5871 0.88201 0.46471 0.0
N416 N 0.61386 0.88511 0.47365 0.0
H417 H 0.63981 0.90541 0.50274 0.0
H418 H 0.5819 0.86676 0.44963 0.0
H419 H 0.60853 0.92759 0.43515 0.0
H420 H 0.65013 0.86832 0.38648 0.0
O421 O 0.66571 0.91079 0.45783 0.0
O422 O 0.68262 0.87492 0.43385 0.0
O423 O 0.63521 0.83658 0.43998 0.0
C424 C 0.68532 0.90042 0.44252 0.0
H425 H 0.6687 0.81907 0.53869 0.0
H426 H 0.59823 0.939 0.3829 0.0
H427 H 0.54626 0.90054 0.46262 0.0
H428 H 0.60501 0.9386 0.51769 0.0
Co429 Co 0.14033 0.15439 0.69327 0.0
C430 C 0.14499 0.18977 0.74405 0.0
C431 C 0.18012 0.16262 0.73909 0.0
C432 C 0.18307 0.17729 0.76337 0.0
N433 N 0.15625 0.17044 0.72682 0.0
N434 N 0.16092 0.1944 0.7666 0.0
H435 H 0.12501 0.19955 0.74075 0.0
H436 H 0.19421 0.14686 0.7313 0.0
C437 C 0.18773 0.1296 0.65898 0.0
O438 O 0.17052 0.11199 0.64749 0.0
N439 N 0.12337 0.13921 0.66003 0.0
C440 C 0.1019 0.12125 0.65917 0.0
C441 C 0.094 0.11758 0.63225 0.0
C442 C 0.12716 0.14738 0.63354 0.0
N443 N 0.10997 0.13386 0.61606 0.0
C444 C 0.11525 0.12199 0.73435 0.0
C445 C 0.12489 0.07048 0.71117 0.0
C446 C 0.10233 0.07367 0.72946 0.0
C447 C 0.09907 0.09947 0.74256 0.0
C448 C 0.14075 0.09377 0.70356 0.0
N449 N 0.13389 0.11962 0.7132 0.0
H450 H 0.11035 0.14216 0.7429 0.0
H451 H 0.15672 0.09105 0.68842 0.0
H452 H 0.09195 0.11205 0.67693 0.0
H453 H 0.14257 0.16246 0.62719 0.0
O454 O 0.10458 0.17111 0.70111 0.0
O455 O 0.13875 0.19065 0.67688 0.0
O456 O 0.17968 0.14471 0.67942 0.0
C457 C 0.11346 0.19186 0.68646 0.0
H458 H 0.20028 0.17533 0.77755 0.0
H459 H 0.07724 0.10443 0.62521 0.0
H460 H 0.12913 0.05063 0.70144 0.0
H461 H 0.08232 0.10324 0.75706 0.0
Co462 Co 0.86948 0.64071 0.94645 0.0
C463 C 0.83607 0.64621 0.99831 0.0
C464 C 0.86122 0.68228 0.99175 0.0
C465 C 0.84674 0.68543 1.01626 0.0
N466 N 0.85456 0.6576 0.98037 0.0
N467 N 0.83084 0.66269 0.02035 0.0
H468 H 0.82722 0.62576 0.99597 0.0
H469 H 0.87589 0.6969 0.98323 0.0
C470 C 0.89043 0.69836 0.92652 0.0
O471 O 0.91245 0.69856 0.94243 0.0
N472 N 0.88308 0.62356 0.91263 0.0
C473 C 0.89585 0.5986 0.91049 0.0
C474 C 0.90208 0.59369 0.88326 0.0
C475 C 0.88106 0.63315 0.88654 0.0
N476 N 0.89281 0.61542 0.86821 0.0
C477 C 0.90902 0.62785 0.98741 0.0
C478 C 0.95264 0.62187 0.95076 0.0
C479 C 0.95263 0.6058 0.97498 0.0
C480 C 0.93175 0.61124 0.99449 0.0
C481 C 0.92981 0.63919 0.94486 0.0
N482 N 0.90701 0.63947 0.96182 0.0
H483 H 0.89143 0.62782 1.00123 0.0
H484 H 0.92877 0.64875 0.92474 0.0
H485 H 0.90054 0.58502 0.92763 0.0
H486 H 0.87145 0.65272 0.88105 0.0
O487 O 0.85825 0.60412 0.95874 0.0
O488 O 0.83243 0.63377 0.93427 0.0
O489 O 0.87292 0.67847 0.928 0.0
C490 C 0.83532 0.60934 0.94555 0.0
H491 H 0.84783 0.70319 0.0299 0.0
H492 H 0.91233 0.57534 0.87512 0.0
H493 H 0.9685 0.61899 0.93514 0.0
H494 H 0.93144 0.60056 1.01412 0.0
Co495 Co 0.38176 0.37356 0.19757 0.0
C496 C 0.37919 0.33759 0.24793 0.0
C497 C 0.34235 0.36247 0.24365 0.0
C498 C 0.34048 0.34734 0.26782 0.0
N499 N 0.36666 0.35638 0.23107 0.0
N500 N 0.3638 0.33187 0.27062 0.0
H501 H 0.39954 0.32871 0.24413 0.0
H502 H 0.32732 0.37751 0.23632 0.0
C503 C 0.33367 0.40101 0.16624 0.0
O504 O 0.35038 0.42 0.15623 0.0
N505 N 0.39766 0.38951 0.16428 0.0
C506 C 0.42104 0.40478 0.16246 0.0
C507 C 0.42729 0.40895 0.13512 0.0
C508 C 0.39092 0.38337 0.13797 0.0
N509 N 0.40818 0.3957 0.11962 0.0
C510 C 0.40841 0.40281 0.23972 0.0
C511 C 0.40566 0.455 0.21631 0.0
C512 C 0.42758 0.44871 0.23428 0.0
C513 C 0.42744 0.42301 0.24763 0.0
C514 C 0.3868 0.43396 0.20899 0.0
N515 N 0.3902 0.40739 0.21861 0.0
H516 H 0.41124 0.38223 0.24806 0.0
H517 H 0.37166 0.43872 0.19367 0.0
H518 H 0.43333 0.4116 0.17978 0.0
H519 H 0.37342 0.37043 0.13254 0.0
O520 O 0.41741 0.35589 0.20325 0.0
O521 O 0.38212 0.33783 0.17978 0.0
O522 O 0.34211 0.38441 0.18536 0.0
C523 C 0.40775 0.33588 0.18818 0.0
H524 H 0.32371 0.34852 0.28271 0.0
H525 H 0.44505 0.42032 0.12742 0.0
H526 H 0.40472 0.47498 0.20601 0.0
H527 H 0.44367 0.41756 0.26212 0.0
H528 H 0.13487 0.16298 0.43968 0.0
H529 H 0.0619 0.11143 0.4462 0.0
H530 H 0.13801 0.16483 0.4899 0.0
H531 H 0.0645 0.11371 0.4962 0.0
H532 H 0.09577 0.09264 0.58114 0.0
H533 H 0.09247 0.09473 0.53139 0.0
H534 H 0.11837 0.18074 0.53303 0.0
H535 H 0.12212 0.17833 0.58333 0.0
C536 C 0.11917 0.1525 0.45184 0.0
C537 C 0.09822 0.13685 0.43893 0.0
C538 C 0.12096 0.15354 0.48068 0.0
C539 C 0.10176 0.13908 0.4973 0.0
C540 C 0.08015 0.12448 0.48422 0.0
C541 C 0.07852 0.12326 0.45551 0.0
C542 C 0.10055 0.1121 0.57099 0.0
C543 C 0.10892 0.13539 0.58633 0.0
C544 C 0.09858 0.11336 0.54233 0.0
C545 C 0.10471 0.13805 0.52799 0.0
C546 C 0.11361 0.16131 0.54327 0.0
C547 C 0.11576 0.15997 0.57212 0.0
H548 H 0.93454 0.59648 0.83587 0.0
H549 H 0.85706 0.64204 0.83377 0.0
H550 H 0.93817 0.59966 0.78605 0.0
H551 H 0.86021 0.64472 0.78354 0.0
H552 H 0.8868 0.66289 0.69395 0.0
H553 H 0.88418 0.66375 0.74428 0.0
H554 H 0.91722 0.57998 0.74687 0.0
H555 H 0.92027 0.57947 0.69702 0.0
C556 C 0.91813 0.607 0.82469 0.0
C557 C 0.89535 0.6187 0.83876 0.0
C558 C 0.92016 0.60879 0.79605 0.0
C559 C 0.89928 0.62208 0.78056 0.0
C560 C 0.8768 0.6345 0.79472 0.0
C561 C 0.87493 0.63292 0.82352 0.0
C562 C 0.89346 0.6447 0.70535 0.0
C563 C 0.904 0.62121 0.69144 0.0
C564 C 0.8919 0.64514 0.73421 0.0
C565 C 0.9007 0.62202 0.74981 0.0
C566 C 0.91092 0.59847 0.73574 0.0
C567 C 0.91265 0.59813 0.70704 0.0
H568 H 0.37837 0.36028 0.08709 0.0
H569 H 0.43312 0.43142 0.08386 0.0
H570 H 0.37349 0.36208 0.03727 0.0
H571 H 0.42947 0.43213 0.03426 0.0
H572 H 0.39695 0.44619 0.94892 0.0
H573 H 0.39775 0.44381 0.99898 0.0
H574 H 0.39772 0.35393 0.99475 0.0
H575 H 0.39622 0.35652 0.94453 0.0
C576 C 0.38945 0.37626 0.07593 0.0
C577 C 0.40613 0.39574 0.08986 0.0
C578 C 0.38687 0.37709 0.0472 0.0
C579 C 0.40094 0.39736 0.03162 0.0
C580 C 0.41787 0.41654 0.04552 0.0
C581 C 0.42032 0.41583 0.07415 0.0
C582 C 0.39707 0.42595 0.95871 0.0
C583 C 0.39672 0.40156 0.94279 0.0
C584 C 0.39764 0.42453 0.98743 0.0
C585 C 0.39821 0.39866 1.00103 0.0
C586 C 0.39705 0.37422 0.98507 0.0
C587 C 0.39621 0.37567 0.95627 0.0
H588 H 0.6636 0.88181 0.34023 0.0
H589 H 0.58151 0.91849 0.34162 0.0
H590 H 0.66177 0.87947 0.28989 0.0
H591 H 0.5794 0.9158 0.29178 0.0
H592 H 0.59526 0.93717 0.20297 0.0
H593 H 0.59916 0.93781 0.25273 0.0
H594 H 0.63965 0.85736 0.25064 0.0
H595 H 0.63605 0.85703 0.20033 0.0
C596 C 0.6451 0.88917 0.32982 0.0
C597 C 0.62285 0.90069 0.34495 0.0
C598 C 0.644 0.88777 0.30097 0.0
C599 C 0.62055 0.89773 0.28664 0.0
C600 C 0.59811 0.9086 0.30195 0.0
C601 C 0.5993 0.91015 0.33062 0.0
C602 C 0.60475 0.91946 0.21307 0.0
C603 C 0.615 0.89689 0.19763 0.0
C604 C 0.607 0.9198 0.24171 0.0
C605 C 0.61941 0.89747 0.25589 0.0
C606 C 0.63015 0.87502 0.24044 0.0
C607 C 0.62803 0.87477 0.21161 0.0
H608 H 0.14744 0.36437 0.69732 0.0
H609 H 0.1042 0.44322 0.69805 0.0
H610 H 0.14982 0.36535 0.7477 0.0
H611 H 0.10707 0.44468 0.74791 0.0
H612 H 0.08696 0.42551 0.83628 0.0
H613 H 0.08675 0.42275 0.78641 0.0
H614 H 0.16973 0.38777 0.78758 0.0
H615 H 0.16955 0.39005 0.83797 0.0
C616 C 0.13871 0.38202 0.70822 0.0
C617 C 0.12526 0.40352 0.69373 0.0
C618 C 0.14012 0.38266 0.73709 0.0
C619 C 0.12831 0.40493 0.75202 0.0
C620 C 0.1157 0.42679 0.73729 0.0
C621 C 0.11407 0.42601 0.70862 0.0
C622 C 0.10527 0.41746 0.82594 0.0
C623 C 0.12839 0.40832 0.84112 0.0
C624 C 0.1052 0.41589 0.79725 0.0
C625 C 0.12838 0.40538 0.78278 0.0
C626 C 0.15142 0.39579 0.79798 0.0
C627 C 0.15138 0.39716 0.82685 0.0
H628 H 0.6654 0.63839 0.9513 0.0
H629 H 0.58463 0.59941 0.95187 0.0
H630 H 0.66435 0.64065 1.00164 0.0
H631 H 0.58347 0.6018 1.00175 0.0
H632 H 0.60289 0.58072 0.09021 0.0
H633 H 0.60565 0.58017 0.04034 0.0
H634 H 0.64109 0.66265 0.0411 0.0
H635 H 0.63844 0.66309 0.09143 0.0
C636 C 0.64736 0.63048 0.9621 0.0
C637 C 0.62525 0.6184 0.94748 0.0
C638 C 0.64673 0.63182 0.99097 0.0
C639 C 0.62394 0.62116 1.00584 0.0
C640 C 0.60166 0.60961 0.9911 0.0
C641 C 0.60233 0.60821 0.96239 0.0
C642 C 0.611 0.5989 0.07984 0.0
C643 C 0.62014 0.62208 0.09493 0.0
C644 C 0.61261 0.59858 0.05113 0.0
C645 C 0.62333 0.62148 0.03657 0.0
C646 C 0.63292 0.64455 0.05163 0.0
C647 C 0.63136 0.64484 0.08049 0.0
H648 H 0.35761 0.14358 0.34434 0.0
H649 H 0.43943 0.10685 0.33791 0.0
H650 H 0.35485 0.14605 0.29408 0.0
H651 H 0.43711 0.10981 0.28809 0.0
H652 H 0.41707 0.0923 0.20031 0.0
H653 H 0.41503 0.0891 0.2502 0.0
H654 H 0.37287 0.16869 0.25359 0.0
H655 H 0.37425 0.17126 0.20316 0.0
C656 C 0.37507 0.13622 0.3322 0.0
C657 C 0.39864 0.12476 0.34512 0.0
C658 C 0.37354 0.13769 0.30339 0.0
C659 C 0.39563 0.12787 0.28686 0.0
C660 C 0.41933 0.11688 0.29997 0.0
C661 C 0.42074 0.11521 0.32863 0.0
C662 C 0.40731 0.10907 0.21173 0.0
C663 C 0.39615 0.13219 0.19789 0.0
C664 C 0.40624 0.10734 0.24038 0.0
C665 C 0.3943 0.1289 0.25613 0.0
C666 C 0.38213 0.15163 0.2422 0.0
C667 C 0.38293 0.15317 0.21333 0.0
H668 H 0.93517 0.92253 0.44517 0.0
H669 H 0.86446 0.86713 0.44334 0.0
H670 H 0.93611 0.91951 0.49468 0.0
H671 H 0.86644 0.86309 0.49322 0.0
H672 H 0.86229 0.88633 0.5863 0.0
H673 H 0.85879 0.88733 0.53604 0.0
H674 H 0.94851 0.88807 0.52998 0.0
H675 H 0.95179 0.88772 0.57995 0.0
C676 C 0.91971 0.90968 0.45508 0.0
C677 C 0.89973 0.89509 0.43966 0.0
C678 C 0.92054 0.90764 0.48376 0.0
C679 C 0.90161 0.89075 0.49814 0.0
C680 C 0.88132 0.87642 0.48293 0.0
C681 C 0.88037 0.87857 0.45412 0.0
C682 C 0.88121 0.88636 0.57414 0.0
C683 C 0.90732 0.88723 0.58709 0.0
C684 C 0.87924 0.88694 0.54531 0.0
C685 C 0.90336 0.88821 0.5288 0.0
C686 C 0.92944 0.88791 0.54191 0.0
C687 C 0.93137 0.88759 0.57061 0.0
H688 H 0.29243 0.09273 0.14385 0.0
H689 H 0.2944 0.18059 0.1262 0.0
H690 H 0.25931 0.101 0.18098 0.0
H691 H 0.25969 0.18898 0.16176 0.0
H692 H 0.21494 0.20323 0.24215 0.0
H693 H 0.24925 0.19375 0.20643 0.0
H694 H 0.21658 0.11037 0.19779 0.0
H695 H 0.18378 0.11972 0.23516 0.0
C696 C 0.28527 0.11382 0.14751 0.0
C697 C 0.29611 0.13596 0.13193 0.0
C698 C 0.26602 0.11867 0.1689 0.0
C699 C 0.2564 0.14582 0.17506 0.0
C700 C 0.26681 0.16782 0.1587 0.0
C701 C 0.2866 0.16302 0.13785 0.0
C702 C 0.21533 0.18283 0.23267 0.0
C703 C 0.19668 0.16223 0.24154 0.0
C704 C 0.23488 0.17735 0.21179 0.0
C705 C 0.23596 0.15125 0.19836 0.0
C706 C 0.21717 0.1306 0.20753 0.0
C707 C 0.19811 0.13591 0.229 0.0
H708 H 0.82003 0.71267 0.482 0.0
H709 H 0.90556 0.68567 0.48568 0.0
H710 H 0.83145 0.74381 0.44385 0.0
H711 H 0.91696 0.71583 0.44705 0.0
H712 H 0.9357 0.79768 0.40356 0.0
H713 H 0.9239 0.76212 0.43668 0.0
H714 H 0.84426 0.75096 0.39725 0.0
H715 H 0.85585 0.78796 0.36443 0.0
C716 C 0.84122 0.7131 0.47441 0.0
C717 C 0.86193 0.69688 0.48722 0.0
C718 C 0.84781 0.73089 0.45234 0.0
C719 C 0.87527 0.73277 0.44218 0.0
C720 C 0.89572 0.71574 0.45453 0.0
C721 C 0.8892 0.69829 0.47678 0.0
C722 C 0.91577 0.78744 0.40154 0.0
C723 C 0.89676 0.7959 0.38116 0.0
C724 C 0.90899 0.76673 0.42064 0.0
C725 C 0.88298 0.75339 0.42003 0.0
C726 C 0.86433 0.76094 0.39883 0.0
C727 C 0.87113 0.78193 0.37966 0.0
H728 H 0.29408 0.38958 0.76385 0.0
H729 H 0.3419 0.33796 0.70815 0.0
H730 H 0.26271 0.4017 0.72663 0.0
H731 H 0.31008 0.34997 0.67083 0.0
H732 H 0.22595 0.35723 0.62062 0.0
H733 H 0.26155 0.34425 0.65439 0.0
H734 H 0.26254 0.42877 0.68448 0.0
H735 H 0.22713 0.4416 0.65117 0.0
C736 C 0.29818 0.38095 0.74367 0.0
C737 C 0.32094 0.36293 0.73925 0.0
C738 C 0.28005 0.38794 0.72219 0.0
C739 C 0.28393 0.37711 0.6955 0.0
C740 C 0.30631 0.35863 0.69109 0.0
C741 C 0.3246 0.3517 0.71262 0.0
C742 C 0.23425 0.37317 0.634 0.0
C743 C 0.22345 0.40046 0.63317 0.0
C744 C 0.25462 0.3657 0.65348 0.0
C745 C 0.26459 0.38531 0.67264 0.0
C746 C 0.25491 0.4129 0.67062 0.0
C747 C 0.23471 0.42034 0.65124 0.0
H748 H 0.62797 0.79196 1.01705 0.0
H749 H 0.67902 0.84057 0.96189 0.0
H750 H 0.61868 0.75924 0.98016 0.0
H751 H 0.66977 0.80751 0.92488 0.0
H752 H 0.66857 0.72268 0.87535 0.0
H753 H 0.67832 0.75969 0.90875 0.0
H754 H 0.59344 0.75565 0.93775 0.0
H755 H 0.58393 0.71878 0.90491 0.0
C756 C 0.63705 0.79596 0.99705 0.0
C757 C 0.65414 0.81932 0.99273 0.0
C758 C 0.63167 0.77705 0.97571 0.0
C759 C 0.6432 0.78071 0.94924 0.0
C760 C 0.66064 0.8038 0.94494 0.0
C761 C 0.66596 0.82284 0.96631 0.0
C762 C 0.65183 0.73021 0.88838 0.0
C763 C 0.62547 0.71758 0.8874 0.0
C764 C 0.65745 0.75138 0.90769 0.0
C765 C 0.63685 0.7604 0.92651 0.0
C766 C 0.6101 0.74885 0.92424 0.0
C767 C 0.60454 0.72782 0.90509 0.0
H768 H 0.18649 0.33996 0.07459 0.0
H769 H 0.23376 0.3935 0.02063 0.0
H770 H 0.21908 0.34946 0.11184 0.0
H771 H 0.26604 0.40302 0.05776 0.0
H772 H 0.30526 0.43748 0.13383 0.0
H773 H 0.26893 0.42752 0.10064 0.0
H774 H 0.26688 0.34208 0.12808 0.0
H775 H 0.30333 0.35229 0.16185 0.0
C776 C 0.20383 0.35362 0.07047 0.0
C777 C 0.20709 0.36606 0.04431 0.0
C778 C 0.22261 0.35909 0.09198 0.0
C779 C 0.24519 0.37729 0.08812 0.0
C780 C 0.24861 0.38942 0.0619 0.0
C781 C 0.22995 0.38391 0.04042 0.0
C782 C 0.29676 0.41664 0.13324 0.0
C783 C 0.30739 0.39572 0.15064 0.0
C784 C 0.27605 0.41082 0.11387 0.0
C785 C 0.2652 0.38381 0.11105 0.0
C786 C 0.27462 0.36316 0.12955 0.0
C787 C 0.29547 0.36903 0.14909 0.0
H788 H 0.66422 0.79347 0.4216 0.0
H789 H 0.58488 0.80589 0.38199 0.0
H790 H 0.67511 0.7562 0.38881 0.0
H791 H 0.59604 0.77 0.34886 0.0
H792 H 0.61372 0.69307 0.29948 0.0
H793 H 0.60226 0.72355 0.33798 0.0
H794 H 0.68816 0.74936 0.34237 0.0
H795 H 0.6996 0.71806 0.3044 0.0
C796 C 0.64889 0.78798 0.40626 0.0
C797 C 0.62364 0.80282 0.4046 0.0
C798 C 0.65529 0.76683 0.38711 0.0
C799 C 0.63664 0.75998 0.36574 0.0
C800 C 0.61094 0.7741 0.36501 0.0
C801 C 0.60453 0.79499 0.38412 0.0
C802 C 0.63014 0.7053 0.30862 0.0
C803 C 0.65755 0.70318 0.29861 0.0
C804 C 0.62359 0.72291 0.33079 0.0
C805 C 0.64417 0.73935 0.34349 0.0
C806 C 0.67171 0.73686 0.33366 0.0
C807 C 0.6783 0.71896 0.31167 0.0
H808 H 0.22351 0.17438 0.66392 0.0
H809 H 0.213 0.0967 0.62061 0.0
H810 H 0.26363 0.18522 0.63453 0.0
H811 H 0.25204 0.10772 0.59104 0.0
H812 H 0.33415 0.12365 0.55057 0.0
H813 H 0.30025 0.11278 0.58626 0.0
H814 H 0.27422 0.19893 0.58808 0.0
H815 H 0.30872 0.20982 0.55265 0.0
C816 C 0.23 0.15939 0.64852 0.0
C817 C 0.21491 0.13463 0.64477 0.0
C818 C 0.25282 0.16576 0.63136 0.0
C819 C 0.26122 0.14748 0.6101 0.0
C820 C 0.2467 0.12226 0.60725 0.0
C821 C 0.22404 0.11595 0.62427 0.0
C822 C 0.3212 0.1403 0.55853 0.0
C823 C 0.32408 0.16758 0.54839 0.0
C824 C 0.30164 0.13407 0.57908 0.0
C825 C 0.28404 0.15485 0.59008 0.0
C826 C 0.28748 0.18234 0.5805 0.0
C827 C 0.30727 0.18862 0.56002 0.0
H828 H 0.91899 0.7477 0.91927 0.0
H829 H 0.85268 0.69884 0.88427 0.0
H830 H 0.91334 0.78201 0.88219 0.0
H831 H 0.84791 0.73243 0.84701 0.0
H832 H 0.87273 0.7826 0.76814 0.0
H833 H 0.87929 0.74932 0.80596 0.0
H834 H 0.874 0.81652 0.86465 0.0
H835 H 0.8669 0.84966 0.82688 0.0
C836 C 0.90326 0.74419 0.90376 0.0
C837 C 0.88646 0.72025 0.90486 0.0
C838 C 0.90002 0.76388 0.8825 0.0
C839 C 0.88034 0.75983 0.86146 0.0
C840 C 0.8635 0.73602 0.86265 0.0
C841 C 0.86626 0.71674 0.88416 0.0
C842 C 0.87307 0.79025 0.7891 0.0
C843 C 0.86914 0.81877 0.79446 0.0
C844 C 0.87669 0.7712 0.81078 0.0
C845 C 0.87716 0.78025 0.83836 0.0
C846 C 0.87387 0.80886 0.84367 0.0
C847 C 0.86959 0.82782 0.82204 0.0
H848 H 0.68676 0.68164 0.71368 0.0
H849 H 0.7352 0.62921 0.76774 0.0
H850 H 0.71781 0.66996 0.67553 0.0
H851 H 0.76604 0.61752 0.72968 0.0
H852 H 0.80217 0.57952 0.65344 0.0
H853 H 0.76707 0.59138 0.68765 0.0
H854 H 0.76493 0.67579 0.65719 0.0
H855 H 0.80008 0.66365 0.62241 0.0
C856 C 0.70408 0.66779 0.71763 0.0
C857 C 0.70815 0.65632 0.74408 0.0
C858 C 0.72196 0.66105 0.69559 0.0
C859 C 0.74442 0.64253 0.69924 0.0
C860 C 0.74865 0.63134 0.72575 0.0
C861 C 0.73086 0.6381 0.74775 0.0
C862 C 0.79386 0.60051 0.65359 0.0
C863 C 0.80408 0.6206 0.63507 0.0
C864 C 0.77389 0.60743 0.67353 0.0
C865 C 0.76346 0.63475 0.67578 0.0
C866 C 0.77239 0.65452 0.65617 0.0
C867 C 0.79247 0.64753 0.63605 0.0
H868 H 0.31982 0.22309 0.98504 0.0
H869 H 0.40314 0.18948 0.98569 0.0
H870 H 0.3324 0.25356 0.94672 0.0
H871 H 0.41565 0.21935 0.94716 0.0
H872 H 0.43855 0.30183 0.90564 0.0
H873 H 0.42523 0.2662 0.93832 0.0
H874 H 0.34494 0.25954 0.89924 0.0
H875 H 0.35819 0.29627 0.86672 0.0
C876 C 0.34071 0.22185 0.97676 0.0
C877 C 0.36051 0.20396 0.98882 0.0
C878 C 0.34796 0.23933 0.95462 0.0
C879 C 0.37521 0.23933 0.94373 0.0
C880 C 0.39466 0.22062 0.95522 0.0
C881 C 0.38747 0.20336 0.97743 0.0
C882 C 0.41818 0.29249 0.90357 0.0
C883 C 0.39953 0.30206 0.88335 0.0
C884 C 0.41051 0.27181 0.92242 0.0
C885 C 0.38386 0.25977 0.92177 0.0
C886 C 0.36551 0.26848 0.90077 0.0
C887 C 0.37325 0.2893 0.88178 0.0
H888 H 0.82683 0.90232 0.23686 0.0
H889 H 0.79811 0.81756 0.23201 0.0
H890 H 0.79551 0.91539 0.19972 0.0
H891 H 0.76604 0.83066 0.19532 0.0
H892 H 0.72008 0.85762 0.11807 0.0
H893 H 0.7581 0.84474 0.14915 0.0
H894 H 0.74877 0.92352 0.19118 0.0
H895 H 0.71204 0.93658 0.15978 0.0
C896 C 0.81363 0.88647 0.22803 0.0
C897 C 0.81493 0.8589 0.23772 0.0
C898 C 0.79553 0.89397 0.20663 0.0
C899 C 0.77779 0.87423 0.19436 0.0
C900 C 0.7795 0.8465 0.20375 0.0
C901 C 0.79787 0.83894 0.225 0.0
C902 C 0.72672 0.87246 0.13347 0.0
C903 C 0.71288 0.8982 0.13625 0.0
C904 C 0.74829 0.86491 0.15165 0.0
C905 C 0.75663 0.8829 0.17311 0.0
C906 C 0.7435 0.90909 0.17492 0.0
C907 C 0.72215 0.9166 0.15681 0.0
H908 H 0.09752 0.25261 0.37492 0.0
H909 H 0.17714 0.21235 0.38558 0.0
H910 H 0.10846 0.28498 0.41178 0.0
H911 H 0.18777 0.24413 0.42337 0.0
H912 H 0.20786 0.32222 0.47458 0.0
H913 H 0.1987 0.29116 0.43601 0.0
H914 H 0.11242 0.28641 0.46052 0.0
H915 H 0.12124 0.31829 0.49821 0.0
C916 C 0.11743 0.25061 0.3851 0.0
C917 C 0.13629 0.22949 0.37737 0.0
C918 C 0.12361 0.26908 0.40656 0.0
C919 C 0.14887 0.2671 0.42105 0.0
C920 C 0.16813 0.24648 0.41276 0.0
C921 C 0.16193 0.228 0.3912 0.0
C922 C 0.18686 0.3148 0.47168 0.0
C923 C 0.16535 0.32308 0.48976 0.0
C924 C 0.18165 0.29664 0.44962 0.0
C925 C 0.15475 0.28619 0.44486 0.0
C926 C 0.13333 0.29427 0.46309 0.0
C927 C 0.13852 0.3124 0.48511 0.0
H928 H 0.68799 0.83953 0.57783 0.0
H929 H 0.73732 0.88643 0.51979 0.0
H930 H 0.72074 0.85114 0.61436 0.0
H931 H 0.76988 0.89798 0.55615 0.0
H932 H 0.81039 0.93722 0.62902 0.0
H933 H 0.77367 0.92595 0.59666 0.0
H934 H 0.76786 0.84344 0.63141 0.0
H935 H 0.80458 0.85502 0.66434 0.0
C936 C 0.70587 0.85213 0.5727 0.0
C937 C 0.7097 0.86214 0.54564 0.0
C938 C 0.72471 0.85883 0.59377 0.0
C939 C 0.74793 0.87581 0.58847 0.0
C940 C 0.75194 0.88545 0.56134 0.0
C941 C 0.73317 0.87875 0.54033 0.0
C942 C 0.80094 0.91682 0.63021 0.0
C943 C 0.81057 0.89706 0.64938 0.0
C944 C 0.78002 0.91021 0.61134 0.0
C945 C 0.76805 0.88354 0.61084 0.0
C946 C 0.77648 0.86422 0.6311 0.0
C947 C 0.79748 0.87091 0.65015 0.0
H948 H 0.1688 0.30552 0.90991 0.0
H949 H 0.08322 0.30793 0.88356 0.0
H950 H 0.17888 0.27001 0.87494 0.0
H951 H 0.093 0.27238 0.84921 0.0
H952 H 0.12629 0.23951 0.76743 0.0
H953 H 0.11639 0.27044 0.80586 0.0
H954 H 0.1724 0.22312 0.85722 0.0
H955 H 0.18235 0.19206 0.81868 0.0
C956 C 0.15194 0.29786 0.8973 0.0
C957 C 0.12518 0.30967 0.89963 0.0
C958 C 0.15773 0.27757 0.87706 0.0
C959 C 0.13691 0.26859 0.85866 0.0
C960 C 0.10982 0.27921 0.86232 0.0
C961 C 0.1041 0.29942 0.88236 0.0
C962 C 0.13634 0.23539 0.78691 0.0
C963 C 0.1551 0.21298 0.78965 0.0
C964 C 0.1306 0.25323 0.80914 0.0
C965 C 0.14337 0.24933 0.83497 0.0
C966 C 0.16231 0.22706 0.8377 0.0
C967 C 0.16804 0.20916 0.81544 0.0
H968 H 0.83304 0.68388 0.07255 0.0
H969 H 0.78627 0.628 0.02094 0.0
H970 H 0.80258 0.67271 0.11143 0.0
H971 H 0.756 0.61698 0.05946 0.0
H972 H 0.72016 0.58124 0.13625 0.0
H973 H 0.75532 0.59247 0.10197 0.0
H974 H 0.75577 0.67774 0.13009 0.0
H975 H 0.72077 0.66619 0.16504 0.0
C976 C 0.81621 0.66936 0.06936 0.0
C977 C 0.81245 0.6567 0.04345 0.0
C978 C 0.79869 0.66292 0.09175 0.0
C979 C 0.77689 0.64361 0.08891 0.0
C980 C 0.77294 0.63136 0.06286 0.0
C981 C 0.79039 0.63775 0.04058 0.0
C982 C 0.72814 0.60229 0.13557 0.0
C983 C 0.71751 0.62278 0.15348 0.0
C984 C 0.74814 0.60885 0.11559 0.0
C985 C 0.75809 0.63621 0.11263 0.0
C986 C 0.74872 0.65642 0.13166 0.0
C987 C 0.7287 0.64977 0.15186 0.0
H988 H 0.41579 0.32184 0.29008 0.0
H989 H 0.32941 0.30266 0.30444 0.0
H990 H 0.42897 0.29271 0.32893 0.0
H991 H 0.3425 0.27266 0.34292 0.0
H992 H 0.37155 0.23253 0.42266 0.0
H993 H 0.35952 0.26794 0.38837 0.0
H994 H 0.43347 0.2466 0.34201 0.0
H995 H 0.44587 0.2125 0.37651 0.0
C996 C 0.39958 0.31112 0.30134 0.0
C997 C 0.37152 0.31447 0.29385 0.0
C998 C 0.40714 0.29429 0.32374 0.0
C999 C 0.38692 0.27991 0.33927 0.0
C1000 C 0.35877 0.28359 0.33194 0.0
C1001 C 0.3512 0.30071 0.30968 0.0
C1002 C 0.38558 0.23596 0.40551 0.0
C1003 C 0.40976 0.21957 0.40255 0.0
C1004 C 0.37847 0.25603 0.38553 0.0
C1005 C 0.39531 0.26024 0.36201 0.0
C1006 C 0.42002 0.24453 0.3598 0.0
C1007 C 0.42714 0.2247 0.37972 0.0
H1008 H 0.0225 0.07141 0.26848 0.0
H1009 H 0.08983 0.02953 0.31038 0.0
H1010 H 0.99684 0.02744 0.26666 0.0
H1011 H 0.0646 0.98583 0.30806 0.0
H1012 H 0.9929 0.92574 0.33225 0.0
H1013 H 0.02254 0.9666 0.32994 0.0
H1014 H 0.99854 0.97973 0.24536 0.0
H1015 H 0.96927 0.93835 0.24738 0.0
C1016 C 0.03189 0.05284 0.2771 0.0
C1017 C 0.0583 0.054 0.28937 0.0
C1018 C 0.01733 0.02761 0.27585 0.0
C1019 C 0.02872 1.0031 0.28719 0.0
C1020 C 0.05517 1.0043 0.29927 0.0
C1021 C 0.06976 0.02936 0.30032 0.0
C1022 C 0.99455 0.93673 0.31285 0.0
C1023 C 0.97852 0.92866 0.29004 0.0
C1024 C 0.01142 0.96036 0.3116 0.0
C1025 C 0.01262 0.97666 0.28756 0.0
C1026 C 0.99764 0.96794 0.26435 0.0
C1027 C 0.98093 0.94414 0.26551 0.0
H1028 H 0.0552 0.44144 0.52472 0.0
H1029 H 0.09082 0.51384 0.56408 0.0
H1030 H 1.01038 0.46484 0.52289 0.0
H1031 H 0.04516 0.53624 0.56371 0.0
H1032 H 0.95185 0.54427 0.59165 0.0
H1033 H 0.99715 0.52095 0.58908 0.0
H1034 H 0.98801 0.51218 0.5012 0.0
H1035 H 0.94283 0.53626 0.50365 0.0
C1036 C 0.05389 0.46252 0.53248 0.0
C1037 C 0.07713 0.47556 0.5446 0.0
C1038 C 0.02792 0.47577 0.53166 0.0
C1039 C 0.02425 0.50215 0.54344 0.0
C1040 C 0.04739 0.51567 0.55482 0.0
C1041 C 0.07356 0.5027 0.5551 0.0
C1042 C 0.95923 0.53682 0.57186 0.0
C1043 C 0.94367 0.54173 0.54789 0.0
C1044 C 0.9853 0.52386 0.57036 0.0
C1045 C 0.99615 0.51505 0.54492 0.0
C1046 C 0.9801 0.51883 0.52105 0.0
C1047 C 0.95426 0.53242 0.52247 0.0
H1048 H 0.43926 0.47536 0.8086 0.0
H1049 H 0.51281 0.42674 0.79116 0.0
H1050 H 0.46671 0.51765 0.80899 0.0
H1051 H 0.54049 0.46936 0.78993 0.0
H1052 H 0.58757 0.54587 0.81789 0.0
H1053 H 0.55993 0.50368 0.81674 0.0
H1054 H 0.49056 0.55079 0.78404 0.0
H1055 H 0.51821 0.5934 0.78688 0.0
C1056 C 0.46135 0.47385 0.80431 0.0
C1057 C 0.47389 0.44778 0.79963 0.0
C1058 C 0.47715 0.4982 0.80436 0.0
C1059 C 0.50598 0.49729 0.79933 0.0
C1060 C 0.51847 0.47106 0.79437 0.0
C1061 C 0.50265 0.44656 0.79485 0.0
C1062 C 0.56638 0.54711 0.81043 0.0
C1063 C 0.55502 0.57282 0.80233 0.0
C1064 C 0.55053 0.52284 0.80952 0.0
C1065 C 0.52291 0.52344 0.80004 0.0
C1066 C 0.51157 0.54935 0.79186 0.0
C1067 C 0.52738 0.57383 0.79329 0.0
H1068 H 0.45218 0.06064 0.10545 0.0
H1069 H 0.42762 0.03377 0.02433 0.0
H1070 H 0.49564 0.03438 0.101 0.0
H1071 H 0.47113 1.00718 0.02 0.0
H1072 H 0.53741 0.93846 0.04255 0.0
H1073 H 0.49452 0.96511 0.04388 0.0
H1074 H 0.53972 0.03766 0.07018 0.0
H1075 H 0.58333 1.01151 0.0675 0.0
C1076 C 0.45583 0.04866 0.08688 0.0
C1077 C 0.4363 0.049 0.06536 0.0
C1078 C 0.4809 0.03397 0.08418 0.0
C1079 C 0.48691 0.01892 0.06007 0.0
C1080 C 0.46706 0.01858 0.03884 0.0
C1081 C 0.44216 0.03372 0.04133 0.0
C1082 C 0.53869 0.96031 0.04776 0.0
C1083 C 0.56435 0.97267 0.0547 0.0
C1084 C 0.51383 0.97553 0.04877 0.0
C1085 C 0.51368 1.00341 0.05728 0.0
C1086 C 0.53916 0.01605 0.06386 0.0
C1087 C 0.56419 1.00096 0.06237 0.0
H1088 H 0.01401 0.43463 0.9775 0.0
H1089 H 0.08805 0.48394 0.98925 0.0
H1090 H 0.98628 0.47717 0.97547 0.0
H1091 H 0.06023 0.52605 0.98902 0.0
H1092 H 1.00715 0.59851 0.95759 0.0
H1093 H 0.0351 0.55604 0.95949 0.0
H1094 H 0.96824 0.51416 1.00208 0.0
H1095 H 0.93984 0.55564 0.9986 0.0
C1096 C 0.0244 0.45442 0.97995 0.0
C1097 C 0.05336 0.45556 0.98382 0.0
C1098 C 1.00842 0.47892 0.97906 0.0
C1099 C 0.02093 0.50525 0.9821 0.0
C1100 C 0.04981 0.50632 0.98624 0.0
C1101 C 0.06576 0.48193 0.98694 0.0
C1102 C 0.99837 0.58025 0.96729 0.0
C1103 C 0.97122 0.58089 0.97818 0.0
C1104 C 0.01453 0.55587 0.96864 0.0
C1105 C 1.004 0.53147 0.98095 0.0
C1106 C 0.97702 0.53228 0.99211 0.0
C1107 C 0.96087 0.55647 0.9906 0.0
H1108 H 0.4795 0.43248 0.22045 0.0
H1109 H 0.43317 0.50354 0.25011 0.0
H1110 H 0.52253 0.4592 0.22236 0.0
H1111 H 0.47665 0.53047 0.25241 0.0
H1112 H 0.56608 0.55504 0.28136 0.0
H1113 H 0.52341 0.5277 0.2803 0.0
H1114 H 0.54233 0.50177 0.1973 0.0
H1115 H 0.58428 0.53003 0.19766 0.0
C1116 C 0.47862 0.45387 0.22751 0.0
C1117 C 0.4531 0.46594 0.23534 0.0
C1118 C 0.50322 0.46917 0.22847 0.0
C1119 C 0.50299 0.49686 0.23764 0.0
C1120 C 0.47744 0.50905 0.2455 0.0
C1121 C 0.45261 0.49379 0.24406 0.0
C1122 C 0.56122 0.54361 0.2628 0.0
C1123 C 0.57877 0.54504 0.23952 0.0
C1124 C 0.53669 0.52797 0.26224 0.0
C1125 C 0.52937 0.5129 0.23862 0.0
C1126 C 0.54748 0.51316 0.21584 0.0
C1127 C 0.57175 0.52915 0.2162 0.0
H1128 H 0.51697 0.92828 0.49988 0.0
H1129 H 0.59075 0.97629 0.4831 0.0
H1130 H 0.48939 0.9712 0.50104 0.0
H1131 H 0.56341 0.01884 0.48297 0.0
H1132 H 0.51119 0.09462 0.5058 0.0
H1133 H 0.53893 0.05181 0.50867 0.0
H1134 H 0.47096 1.00568 0.47279 0.0
H1135 H 0.44322 0.04802 0.47134 0.0
C1136 C 0.52723 0.94801 0.49641 0.0
C1137 C 0.55602 0.94895 0.49178 0.0
C1138 C 0.51147 0.97266 0.49686 0.0
C1139 C 0.52408 0.99875 0.49211 0.0
C1140 C 0.55293 0.99944 0.48739 0.0
C1141 C 0.56865 0.97494 0.48737 0.0
C1142 C 0.50236 0.07524 0.49861 0.0
C1143 C 0.47506 0.07451 0.48863 0.0
C1144 C 0.51821 0.05067 0.50011 0.0
C1145 C 0.5072 0.02499 0.49116 0.0
C1146 C 0.48 0.02468 0.48063 0.0
C1147 C 0.46413 0.04904 0.47955 0.0
H1148 H 0.08234 0.03926 0.68913 0.0
H1149 H 0.07064 0.06003 0.77496 0.0
H1150 H 0.04109 1.01036 0.69063 0.0
H1151 H 0.02815 0.03286 0.77589 0.0
H1152 H 0.96381 0.96306 0.77448 0.0
H1153 H 1.0068 0.98942 0.77528 0.0
H1154 H 0.99265 0.01528 0.69123 0.0
H1155 H 0.95085 0.98717 0.68976 0.0
C1156 C 0.07128 0.03739 0.70849 0.0
C1157 C 0.07995 0.05225 0.73188 0.0
C1158 C 0.04712 0.02124 0.70918 0.0
C1159 C 0.03069 0.01968 0.73319 0.0
C1160 C 0.0401 0.03343 0.75698 0.0
C1161 C 0.06447 0.04931 0.75638 0.0
C1162 C 0.96987 0.97427 0.7561 0.0
C1163 C 0.95381 0.97259 0.73195 0.0
C1164 C 0.99452 0.9897 0.75665 0.0
C1165 C 1.00367 1.00425 0.73318 0.0
C1166 C 0.98682 1.00377 0.70951 0.0
C1167 C 0.96236 0.98807 0.70885 0.0
H1168 H 0.33081 0.10906 0.39631 0.0
H1169 H 0.29637 0.1268 0.47654 0.0
H1170 H 0.28438 0.1006 0.3785 0.0
H1171 H 0.24947 0.11815 0.45889 0.0
H1172 H 0.18979 0.16722 0.39833 0.0
H1173 H 0.229 0.15288 0.42645 0.0
H1174 H 0.23794 0.07799 0.37777 0.0
H1175 H 0.19892 0.09287 0.34909 0.0
C1176 C 0.31321 0.10987 0.41032 0.0
C1177 C 0.31655 0.11872 0.43748 0.0
C1178 C 0.28671 0.10485 0.40027 0.0
C1179 C 0.26341 0.10915 0.4173 0.0
C1180 C 0.26719 0.11497 0.4454 0.0
C1181 C 0.29382 0.11986 0.45547 0.0
C1182 C 0.20023 0.14782 0.3936 0.0
C1183 C 0.1922 0.13165 0.37107 0.0
C1184 C 0.22217 0.1392 0.41011 0.0
C1185 C 0.23635 0.11424 0.40428 0.0
C1186 C 0.22729 0.09731 0.3826 0.0
C1187 C 0.20526 0.10595 0.36611 0.0
H1188 H 0.90239 0.73067 0.57298 0.0
H1189 H 0.94319 0.67276 0.62752 0.0
H1190 H 0.92167 0.76952 0.59902 0.0
H1191 H 0.96158 0.71164 0.65442 0.0
H1192 H 0.89874 0.78038 0.70292 0.0
H1193 H 0.91651 0.74039 0.6772 0.0
H1194 H 0.9658 0.79523 0.62639 0.0
H1195 H 0.94892 0.83519 0.65319 0.0
C1196 C 0.91664 0.72643 0.58973 0.0
C1197 C 0.92143 0.69918 0.59855 0.0
C1198 C 0.92785 0.74852 0.60449 0.0
C1199 C 0.94299 0.74335 0.62867 0.0
C1200 C 0.95026 0.71596 0.63564 0.0
C1201 C 0.93965 0.69387 0.62041 0.0
C1202 C 0.91448 0.78357 0.68722 0.0
C1203 C 0.92257 0.81041 0.67974 0.0
C1204 C 0.92485 0.76082 0.67269 0.0
C1205 C 0.94255 0.76495 0.64996 0.0
C1206 C 0.95254 0.79168 0.64412 0.0
C1207 C 0.94279 0.81438 0.65926 0.0
H1208 H 0.18298 0.44645 0.9028 0.0
H1209 H 0.23926 0.40526 0.95862 0.0
H1210 H 0.22254 0.46303 0.87554 0.0
H1211 H 0.27881 0.42262 0.93217 0.0
H1212 H 0.34574 0.44384 0.87805 0.0
H1213 H 0.3067 0.46355 0.9043 0.0
H1214 H 0.2493 0.41811 0.85309 0.0
H1215 H 0.2883 0.39765 0.82782 0.0
C1216 C 0.20392 0.44241 0.91004 0.0
C1217 C 0.20854 0.42458 0.9324 0.0
C1218 C 0.22641 0.452 0.89461 0.0
C1219 C 0.25352 0.44402 0.90182 0.0
C1220 C 0.25806 0.42932 0.92645 0.0
C1221 C 0.23556 0.41918 0.94145 0.0
C1222 C 0.32465 0.43919 0.87177 0.0
C1223 C 0.31956 0.41926 0.85135 0.0
C1224 C 0.30247 0.45055 0.88659 0.0
C1225 C 0.27519 0.44236 0.88057 0.0
C1226 C 0.27017 0.42505 0.8578 0.0
C1227 C 0.29235 0.41312 0.84353 0.0
H1228 H 0.57332 0.84174 0.13368 0.0
H1229 H 0.61703 0.78687 0.07801 0.0
H1230 H 0.55729 0.80154 0.16031 0.0
H1231 H 0.60023 0.74669 0.1038 0.0
H1232 H 0.57885 0.6787 0.15683 0.0
H1233 H 0.55947 0.71761 0.1303 0.0
H1234 H 0.60199 0.77545 0.18352 0.0
H1235 H 0.62207 0.73658 0.20916 0.0
C1236 C 0.57803 0.82095 0.12629 0.0
C1237 C 0.59639 0.81695 0.10416 0.0
C1238 C 0.56879 0.79809 0.14138 0.0
C1239 C 0.57761 0.77123 0.13404 0.0
C1240 C 0.59288 0.76723 0.10961 0.0
C1241 C 0.60268 0.7901 0.09498 0.0
C1242 C 0.58292 0.69984 0.16344 0.0
C1243 C 0.60189 0.70511 0.18464 0.0
C1244 C 0.57176 0.72194 0.14845 0.0
C1245 C 0.57919 0.74933 0.15503 0.0
C1246 C 0.5956 0.75448 0.17839 0.0
C1247 C 0.60731 0.73238 0.19287 0.0
H1248 H 0.67948 0.57299 0.88132 0.0
H1249 H 0.74117 0.62175 0.83865 0.0
H1250 H 0.71625 0.55008 0.90809 0.0
H1251 H 0.77793 0.59811 0.86424 0.0
H1252 H 0.78356 0.60591 0.96684 0.0
H1253 H 0.74456 0.58745 0.94091 0.0
H1254 H 0.8017 0.54936 0.88332 0.0
H1255 H 0.84078 0.56686 0.91013 0.0
C1256 C 0.70105 0.57769 0.87679 0.0
C1257 C 0.70791 0.59909 0.85836 0.0
C1258 C 0.72194 0.56447 0.89187 0.0
C1259 C 0.74978 0.57215 0.88798 0.0
C1260 C 0.75662 0.59143 0.86722 0.0
C1261 C 0.73572 0.60521 0.85283 0.0
C1262 C 0.78769 0.5918 0.94989 0.0
C1263 C 0.81482 0.58791 0.94011 0.0
C1264 C 0.76542 0.58111 0.93506 0.0
C1265 C 0.77032 0.56755 0.90985 0.0
C1266 C 0.79755 0.55973 0.90272 0.0
C1267 C 0.81985 0.56982 0.918 0.0
H1268 H 0.45233 0.18328 0.11639 0.0
H1269 H 0.40321 0.24176 0.06972 0.0
H1270 H 0.47293 0.22171 0.14211 0.0
H1271 H 0.4248 0.28017 0.0942 0.0
H1272 H 0.44758 0.34393 0.15026 0.0
H1273 H 0.46732 0.30784 0.12026 0.0
H1274 H 0.4285 0.24473 0.17055 0.0
H1275 H 0.40783 0.28083 0.19956 0.0
C1276 C 0.44751 0.20446 0.11029 0.0
C1277 C 0.42601 0.20991 0.0916 0.0
C1278 C 0.45939 0.22638 0.12492 0.0
C1279 C 0.45011 0.25371 0.12033 0.0
C1280 C 0.43237 0.25924 0.09803 0.0
C1281 C 0.41986 0.23733 0.08409 0.0
C1282 C 0.44444 0.32223 0.15549 0.0
C1283 C 0.42619 0.31475 0.1768 0.0
C1284 C 0.45589 0.30171 0.13852 0.0
C1285 C 0.44952 0.27366 0.14324 0.0
C1286 C 0.43411 0.26623 0.16679 0.0
C1287 C 0.42203 0.28676 0.18322 0.0
H1288 H 0.78558 0.89538 0.32549 0.0
H1289 H 0.84422 0.93725 0.378 0.0
H1290 H 0.74714 0.91575 0.35156 0.0
H1291 H 0.80571 0.957 0.40494 0.0
H1292 H 0.68166 0.94045 0.40422 0.0
H1293 H 0.72066 0.95817 0.37681 0.0
H1294 H 0.77813 0.91596 0.43101 0.0
H1295 H 0.73916 0.89762 0.45759 0.0
C1296 C 0.79004 0.91001 0.34187 0.0
C1297 C 0.81738 0.91479 0.35014 0.0
C1298 C 0.76818 0.92191 0.35661 0.0
C1299 C 0.77364 0.93781 0.38029 0.0
C1300 C 0.80113 0.94502 0.38662 0.0
C1301 C 0.82301 0.93363 0.3714 0.0
C1302 C 0.70276 0.93616 0.41085 0.0
C1303 C 0.70789 0.91763 0.43254 0.0
C1304 C 0.72493 0.94641 0.39538 0.0
C1305 C 0.75221 0.93837 0.40186 0.0
C1306 C 0.75726 0.92276 0.42584 0.0
C1307 C 0.73509 0.912 0.44088 0.0
H1308 H 0.07504 0.18754 0.6469 0.0
H1309 H 0.11159 0.24496 0.70445 0.0
H1310 H 0.05754 0.22661 0.61955 0.0
H1311 H 0.09336 0.28399 0.67786 0.0
H1312 H 0.12446 0.29214 0.57511 0.0
H1313 H 0.10212 0.25348 0.5988 0.0
H1314 H 0.05446 0.31156 0.64804 0.0
H1315 H 0.07611 0.35033 0.62324 0.0
C1316 C 0.07778 0.20857 0.65451 0.0
C1317 C 0.09471 0.2137 0.67736 0.0
C1318 C 0.06764 0.2308 0.63902 0.0
C1319 C 0.07428 0.25815 0.64657 0.0
C1320 C 0.08772 0.26306 0.67178 0.0
C1321 C 0.09838 0.24085 0.68689 0.0
C1322 C 0.10808 0.29647 0.58992 0.0
C1323 C 0.10194 0.32378 0.5977 0.0
C1324 C 0.09507 0.27446 0.60329 0.0
C1325 C 0.07666 0.2797 0.62528 0.0
C1326 C 0.06835 0.30713 0.63097 0.0
C1327 C 0.08081 0.32918 0.61696 0.0
loop_
_geom_bond_atom_site_label_1
_geom_bond_atom_site_label_2
_geom_bond_distance
_geom_bond_site_symmetry_2
_ccdc_geom_bond_type
Co0 N4 2.148 . S
Co0 N10 2.128 . S
Co0 N20 2.194 . S
Co0 O25 2.351 . S
Co0 O26 2.155 . S
Co0 O27 2.096 . S
C1 N4 1.301 . S
C1 N5 1.328 . S
C1 H6 0.930 . S
C2 C3 1.333 . S
C2 N4 1.317 . S
C2 H7 0.930 . S
C3 C2 1.333 . S
C3 N5 1.350 . S
C3 H29 0.931 . S
N4 Co0 2.148 . S
N4 C1 1.301 . S
N4 C2 1.317 . S
N5 C1 1.328 . S
N5 C3 1.350 . S
H6 C1 0.930 . S
H7 C2 0.930 . S
C8 O9 1.224 . S
C8 O27 1.247 . S
O9 C8 1.224 . S
N10 Co0 2.128 . S
N10 C11 1.355 . S
N10 C13 1.311 . S
C11 N10 1.355 . S
C11 C12 1.363 . S
C11 H23 0.929 . S
C12 C11 1.363 . S
C12 N14 1.375 . S
C12 H30 0.931 . S
C13 N10 1.311 . S
C13 N14 1.347 . S
C13 H24 0.929 . S
N14 C12 1.375 . S
N14 C13 1.347 . S
C15 C18 1.365 . S
C15 N20 1.328 . S
C15 H21 0.929 . S
C16 C17 1.362 . S
C16 C19 1.378 . S
C16 H31 0.929 . S
C17 C16 1.362 . S
C17 C18 1.366 . S
C18 C15 1.365 . S
C18 C17 1.366 . S
C18 H32 0.930 . S
C19 C16 1.378 . S
C19 N20 1.315 . S
C19 H22 0.930 . S
N20 Co0 2.194 . S
N20 C15 1.328 . S
N20 C19 1.315 . S
H21 C15 0.929 . S
H22 C19 0.930 . S
H23 C11 0.929 . S
H24 C13 0.929 . S
O25 Co0 2.351 . S
O25 C28 1.244 . S
O26 Co0 2.155 . S
O26 C28 1.240 . S
O27 Co0 2.096 . S
O27 C8 1.247 . S
C28 O25 1.244 . S
C28 O26 1.240 . S
H29 C3 0.931 . S
H30 C12 0.931 . S
H31 C16 0.929 . S
H32 C18 0.930 . S
Co33 N37 2.148 . S
Co33 N43 2.128 . S
Co33 N53 2.194 . S
Co33 O58 2.351 . S
Co33 O59 2.155 . S
Co33 O60 2.096 . S
C34 N37 1.301 . S
C34 N38 1.328 . S
C34 H39 0.930 . S
C35 C36 1.333 . S
C35 N37 1.317 . S
C35 H40 0.930 . S
C36 C35 1.333 . S
C36 N38 1.350 . S
C36 H62 0.931 . S
N37 Co33 2.148 . S
N37 C34 1.301 . S
N37 C35 1.317 . S
N38 C34 1.328 . S
N38 C36 1.350 . S
H39 C34 0.930 . S
H40 C35 0.930 . S
C41 O42 1.224 . S
C41 O60 1.247 . S
O42 C41 1.224 . S
N43 Co33 2.128 . S
N43 C44 1.355 . S
N43 C46 1.311 . S
C44 N43 1.355 . S
C44 C45 1.363 . S
C44 H56 0.929 . S
C45 C44 1.363 . S
C45 N47 1.375 . S
C45 H63 0.931 . S
C46 N43 1.311 . S
C46 N47 1.347 . S
C46 H57 0.929 . S
N47 C45 1.375 . S
N47 C46 1.347 . S
C48 C51 1.365 . S
C48 N53 1.328 . S
C48 H54 0.929 . S
C49 C50 1.362 . S
C49 C52 1.378 . S
C49 H64 0.929 . S
C50 C49 1.362 . S
C50 C51 1.366 . S
C51 C48 1.365 . S
C51 C50 1.366 . S
C51 H65 0.930 . S
C52 C49 1.378 . S
C52 N53 1.315 . S
C52 H55 0.930 . S
N53 Co33 2.194 . S
N53 C48 1.328 . S
N53 C52 1.315 . S
H54 C48 0.929 . S
H55 C52 0.930 . S
H56 C44 0.929 . S
H57 C46 0.929 . S
O58 Co33 2.351 . S
O58 C61 1.244 . S
O59 Co33 2.155 . S
O59 C61 1.240 . S
O60 Co33 2.096 . S
O60 C41 1.247 . S
C61 O58 1.244 . S
C61 O59 1.240 . S
H62 C36 0.931 . S
H63 C45 0.931 . S
H64 C49 0.929 . S
H65 C51 0.930 . S
Co66 N70 2.148 . S
Co66 N76 2.128 . S
Co66 N86 2.194 . S
Co66 O91 2.351 . S
Co66 O92 2.155 . S
Co66 O93 2.096 . S
C67 N70 1.301 . S
C67 N71 1.328 . S
C67 H72 0.930 . S
C68 C69 1.333 . S
C68 N70 1.317 . S
C68 H73 0.930 . S
C69 C68 1.333 . S
C69 N71 1.350 . S
C69 H95 0.931 . S
N70 Co66 2.148 . S
N70 C67 1.301 . S
N70 C68 1.317 . S
N71 C67 1.328 . S
N71 C69 1.350 . S
H72 C67 0.930 . S
H73 C68 0.930 . S
C74 O75 1.224 . S
C74 O93 1.247 . S
O75 C74 1.224 . S
N76 Co66 2.128 . S
N76 C77 1.355 . S
N76 C79 1.311 . S
C77 N76 1.355 . S
C77 C78 1.363 . S
C77 H89 0.929 . S
C78 C77 1.363 . S
C78 N80 1.375 . S
C78 H96 0.931 . S
C79 N76 1.311 . S
C79 N80 1.347 . S
C79 H90 0.929 . S
N80 C78 1.375 . S
N80 C79 1.347 . S
C81 C84 1.365 . S
C81 N86 1.328 . S
C81 H87 0.929 . S
C82 C83 1.362 . S
C82 C85 1.378 . S
C82 H97 0.929 . S
C83 C82 1.362 . S
C83 C84 1.366 . S
C84 C81 1.365 . S
C84 C83 1.366 . S
C84 H98 0.930 . S
C85 C82 1.378 . S
C85 N86 1.315 . S
C85 H88 0.930 . S
N86 Co66 2.194 . S
N86 C81 1.328 . S
N86 C85 1.315 . S
H87 C81 0.929 . S
H88 C85 0.930 . S
H89 C77 0.929 . S
H90 C79 0.929 . S
O91 Co66 2.351 . S
O91 C94 1.244 . S
O92 Co66 2.155 . S
O92 C94 1.240 . S
O93 Co66 2.096 . S
O93 C74 1.247 . S
C94 O91 1.244 . S
C94 O92 1.240 . S
H95 C69 0.931 . S
H96 C78 0.931 . S
H97 C82 0.929 . S
H98 C84 0.930 . S
Co99 N103 2.148 . S
Co99 N109 2.128 . S
Co99 N119 2.194 . S
Co99 O124 2.351 . S
Co99 O125 2.155 . S
Co99 O126 2.096 . S
C100 N103 1.301 . S
C100 N104 1.328 . S
C100 H105 0.930 . S
C101 C102 1.333 . S
C101 N103 1.317 . S
C101 H106 0.930 . S
C102 C101 1.333 . S
C102 N104 1.350 . S
C102 H128 0.931 . S
N103 Co99 2.148 . S
N103 C100 1.301 . S
N103 C101 1.317 . S
N104 C100 1.328 . S
N104 C102 1.350 . S
H105 C100 0.930 . S
H106 C101 0.930 . S
C107 O108 1.224 . S
C107 O126 1.247 . S
O108 C107 1.224 . S
N109 Co99 2.128 . S
N109 C110 1.355 . S
N109 C112 1.311 . S
C110 N109 1.355 . S
C110 C111 1.363 . S
C110 H122 0.929 . S
C111 C110 1.363 . S
C111 N113 1.375 . S
C111 H129 0.931 . S
C112 N109 1.311 . S
C112 N113 1.347 . S
C112 H123 0.929 . S
N113 C111 1.375 . S
N113 C112 1.347 . S
C114 C117 1.365 . S
C114 N119 1.328 . S
C114 H120 0.929 . S
C115 C116 1.362 . S
C115 C118 1.378 . S
C115 H130 0.929 . S
C116 C115 1.362 . S
C116 C117 1.366 . S
C117 C114 1.365 . S
C117 C116 1.366 . S
C117 H131 0.930 . S
C118 C115 1.378 . S
C118 N119 1.315 . S
C118 H121 0.930 . S
N119 Co99 2.194 . S
N119 C114 1.328 . S
N119 C118 1.315 . S
H120 C114 0.929 . S
H121 C118 0.930 . S
H122 C110 0.929 . S
H123 C112 0.929 . S
O124 Co99 2.351 . S
O124 C127 1.244 . S
O125 Co99 2.155 . S
O125 C127 1.240 . S
O126 Co99 2.096 . S
O126 C107 1.247 . S
C127 O124 1.244 . S
C127 O125 1.240 . S
H128 C102 0.931 . S
H129 C111 0.931 . S
H130 C115 0.929 . S
H131 C117 0.930 . S
Co132 N136 2.148 . S
Co132 N142 2.128 . S
Co132 N152 2.194 . S
Co132 O157 2.351 . S
Co132 O158 2.155 . S
Co132 O159 2.096 . S
C133 N136 1.301 . S
C133 N137 1.328 . S
C133 H138 0.930 . S
C134 C135 1.333 . S
C134 N136 1.317 . S
C134 H139 0.930 . S
C135 C134 1.333 . S
C135 N137 1.350 . S
C135 H161 0.931 . S
N136 Co132 2.148 . S
N136 C133 1.301 . S
N136 C134 1.317 . S
N137 C133 1.328 . S
N137 C135 1.350 . S
H138 C133 0.930 . S
H139 C134 0.930 . S
C140 O141 1.224 . S
C140 O159 1.247 . S
O141 C140 1.224 . S
N142 Co132 2.128 . S
N142 C143 1.355 . S
N142 C145 1.311 . S
C143 N142 1.355 . S
C143 C144 1.363 . S
C143 H155 0.929 . S
C144 C143 1.363 . S
C144 N146 1.375 . S
C144 H162 0.931 . S
C145 N142 1.311 . S
C145 N146 1.347 . S
C145 H156 0.929 . S
N146 C144 1.375 . S
N146 C145 1.347 . S
C147 C150 1.365 . S
C147 N152 1.328 . S
C147 H153 0.929 . S
C148 C149 1.362 . S
C148 C151 1.378 . S
C148 H163 0.929 . S
C149 C148 1.362 . S
C149 C150 1.366 . S
C150 C147 1.365 . S
C150 C149 1.366 . S
C150 H164 0.930 . S
C151 C148 1.378 . S
C151 N152 1.315 . S
C151 H154 0.930 . S
N152 Co132 2.194 . S
N152 C147 1.328 . S
N152 C151 1.315 . S
H153 C147 0.929 . S
H154 C151 0.930 . S
H155 C143 0.929 . S
H156 C145 0.929 . S
O157 Co132 2.351 . S
O157 C160 1.244 . S
O158 Co132 2.155 . S
O158 C160 1.240 . S
O159 Co132 2.096 . S
O159 C140 1.247 . S
C160 O157 1.244 . S
C160 O158 1.240 . S
H161 C135 0.931 . S
H162 C144 0.931 . S
H163 C148 0.929 . S
H164 C150 0.930 . S
Co165 N169 2.148 . S
Co165 N175 2.128 . S
Co165 N185 2.194 . S
Co165 O190 2.351 . S
Co165 O191 2.155 . S
Co165 O192 2.096 . S
C166 N169 1.301 . S
C166 N170 1.328 . S
C166 H171 0.930 . S
C167 C168 1.333 . S
C167 N169 1.317 . S
C167 H172 0.930 . S
C168 C167 1.333 . S
C168 N170 1.350 . S
C168 H194 0.931 . S
N169 Co165 2.148 . S
N169 C166 1.301 . S
N169 C167 1.317 . S
N170 C166 1.328 . S
N170 C168 1.350 . S
H171 C166 0.930 . S
H172 C167 0.930 . S
C173 O174 1.224 . S
C173 O192 1.247 . S
O174 C173 1.224 . S
N175 Co165 2.128 . S
N175 C176 1.355 . S
N175 C178 1.311 . S
C176 N175 1.355 . S
C176 C177 1.363 . S
C176 H188 0.929 . S
C177 C176 1.363 . S
C177 N179 1.375 . S
C177 H195 0.931 . S
C178 N175 1.311 . S
C178 N179 1.347 . S
C178 H189 0.929 . S
N179 C177 1.375 . S
N179 C178 1.347 . S
C180 C183 1.365 . S
C180 N185 1.328 . S
C180 H186 0.929 . S
C181 C182 1.362 . S
C181 C184 1.378 . S
C181 H196 0.929 . S
C182 C181 1.362 . S
C182 C183 1.366 . S
C183 C180 1.365 . S
C183 C182 1.366 . S
C183 H197 0.930 . S
C184 C181 1.378 . S
C184 N185 1.315 . S
C184 H187 0.930 . S
N185 Co165 2.194 . S
N185 C180 1.328 . S
N185 C184 1.315 . S
H186 C180 0.929 . S
H187 C184 0.930 . S
H188 C176 0.929 . S
H189 C178 0.929 . S
O190 Co165 2.351 . S
O190 C193 1.244 . S
O191 Co165 2.155 . S
O191 C193 1.240 . S
O192 Co165 2.096 . S
O192 C173 1.247 . S
C193 O190 1.244 . S
C193 O191 1.240 . S
H194 C168 0.931 . S
H195 C177 0.931 . S
H196 C181 0.929 . S
H197 C183 0.930 . S
Co198 N202 2.148 . S
Co198 N208 2.128 . S
Co198 N218 2.194 . S
Co198 O223 2.351 . S
Co198 O224 2.155 . S
Co198 O225 2.096 . S
C199 N202 1.301 . S
C199 N203 1.328 . S
C199 H204 0.930 . S
C200 C201 1.333 . S
C200 N202 1.317 . S
C200 H205 0.930 . S
C201 C200 1.333 . S
C201 N203 1.350 . S
C201 H227 0.931 . S
N202 Co198 2.148 . S
N202 C199 1.301 . S
N202 C200 1.317 . S
N203 C199 1.328 . S
N203 C201 1.350 . S
H204 C199 0.930 . S
H205 C200 0.930 . S
C206 O207 1.224 . S
C206 O225 1.247 . S
O207 C206 1.224 . S
N208 Co198 2.128 . S
N208 C209 1.355 . S
N208 C211 1.311 . S
C209 N208 1.355 . S
C209 C210 1.363 . S
C209 H221 0.929 . S
C210 C209 1.363 . S
C210 N212 1.375 . S
C210 H228 0.931 . S
C211 N208 1.311 . S
C211 N212 1.347 . S
C211 H222 0.929 . S
N212 C210 1.375 . S
N212 C211 1.347 . S
C213 C216 1.365 . S
C213 N218 1.328 . S
C213 H219 0.929 . S
C214 C215 1.362 . S
C214 C217 1.378 . S
C214 H229 0.929 . S
C215 C214 1.362 . S
C215 C216 1.366 . S
C216 C213 1.365 . S
C216 C215 1.366 . S
C216 H230 0.930 . S
C217 C214 1.378 . S
C217 N218 1.315 . S
C217 H220 0.930 . S
N218 Co198 2.194 . S
N218 C213 1.328 . S
N218 C217 1.315 . S
H219 C213 0.929 . S
H220 C217 0.930 . S
H221 C209 0.929 . S
H222 C211 0.929 . S
O223 Co198 2.351 . S
O223 C226 1.244 . S
O224 Co198 2.155 . S
O224 C226 1.240 . S
O225 Co198 2.096 . S
O225 C206 1.247 . S
C226 O223 1.244 . S
C226 O224 1.240 . S
H227 C201 0.931 . S
H228 C210 0.931 . S
H229 C214 0.929 . S
H230 C216 0.930 . S
Co231 N235 2.148 . S
Co231 N241 2.128 . S
Co231 N251 2.194 . S
Co231 O256 2.351 . S
Co231 O257 2.155 . S
Co231 O258 2.096 . S
C232 N235 1.301 . S
C232 N236 1.328 . S
C232 H237 0.930 . S
C233 C234 1.333 . S
C233 N235 1.317 . S
C233 H238 0.930 . S
C234 C233 1.333 . S
C234 N236 1.350 . S
C234 H260 0.931 . S
N235 Co231 2.148 . S
N235 C232 1.301 . S
N235 C233 1.317 . S
N236 C232 1.328 . S
N236 C234 1.350 . S
H237 C232 0.930 . S
H238 C233 0.930 . S
C239 O240 1.224 . S
C239 O258 1.247 . S
O240 C239 1.224 . S
N241 Co231 2.128 . S
N241 C242 1.355 . S
N241 C244 1.311 . S
C242 N241 1.355 . S
C242 C243 1.363 . S
C242 H254 0.929 . S
C243 C242 1.363 . S
C243 N245 1.375 . S
C243 H261 0.931 . S
C244 N241 1.311 . S
C244 N245 1.347 . S
C244 H255 0.929 . S
N245 C243 1.375 . S
N245 C244 1.347 . S
C246 C249 1.365 . S
C246 N251 1.328 . S
C246 H252 0.929 . S
C247 C248 1.362 . S
C247 C250 1.378 . S
C247 H262 0.929 . S
C248 C247 1.362 . S
C248 C249 1.366 . S
C249 C246 1.365 . S
C249 C248 1.366 . S
C249 H263 0.930 . S
C250 C247 1.378 . S
C250 N251 1.315 . S
C250 H253 0.930 . S
N251 Co231 2.194 . S
N251 C246 1.328 . S
N251 C250 1.315 . S
H252 C246 0.929 . S
H253 C250 0.930 . S
H254 C242 0.929 . S
H255 C244 0.929 . S
O256 Co231 2.351 . S
O256 C259 1.244 . S
O257 Co231 2.155 . S
O257 C259 1.240 . S
O258 Co231 2.096 . S
O258 C239 1.247 . S
C259 O256 1.244 . S
C259 O257 1.240 . S
H260 C234 0.931 . S
H261 C243 0.931 . S
H262 C247 0.929 . S
H263 C249 0.930 . S
Co264 N268 2.148 . S
Co264 N274 2.128 . S
Co264 N284 2.194 . S
Co264 O289 2.351 . S
Co264 O290 2.155 . S
Co264 O291 2.096 . S
C265 N268 1.301 . S
C265 N269 1.328 . S
C265 H270 0.930 . S
C266 C267 1.333 . S
C266 N268 1.317 . S
C266 H271 0.930 . S
C267 C266 1.333 . S
C267 N269 1.350 . S
C267 H293 0.931 . S
N268 Co264 2.148 . S
N268 C265 1.301 . S
N268 C266 1.317 . S
N269 C265 1.328 . S
N269 C267 1.350 . S
H270 C265 0.930 . S
H271 C266 0.930 . S
C272 O273 1.224 . S
C272 O291 1.247 . S
O273 C272 1.224 . S
N274 Co264 2.128 . S
N274 C275 1.355 . S
N274 C277 1.311 . S
C275 N274 1.355 . S
C275 C276 1.363 . S
C275 H287 0.929 . S
C276 C275 1.363 . S
C276 N278 1.375 . S
C276 H294 0.931 . S
C277 N274 1.311 . S
C277 N278 1.347 . S
C277 H288 0.929 . S
N278 C276 1.375 . S
N278 C277 1.347 . S
C279 C282 1.365 . S
C279 N284 1.328 . S
C279 H285 0.929 . S
C280 C281 1.362 . S
C280 C283 1.378 . S
C280 H295 0.929 . S
C281 C280 1.362 . S
C281 C282 1.366 . S
C282 C279 1.365 . S
C282 C281 1.366 . S
C282 H296 0.930 . S
C283 C280 1.378 . S
C283 N284 1.315 . S
C283 H286 0.930 . S
N284 Co264 2.194 . S
N284 C279 1.328 . S
N284 C283 1.315 . S
H285 C279 0.929 . S
H286 C283 0.930 . S
H287 C275 0.929 . S
H288 C277 0.929 . S
O289 Co264 2.351 . S
O289 C292 1.244 . S
O290 Co264 2.155 . S
O290 C292 1.240 . S
O291 Co264 2.096 . S
O291 C272 1.247 . S
C292 O289 1.244 . S
C292 O290 1.240 . S
H293 C267 0.931 . S
H294 C276 0.931 . S
H295 C280 0.929 . S
H296 C282 0.930 . S
Co297 N301 2.148 . S
Co297 N307 2.128 . S
Co297 N317 2.194 . S
Co297 O322 2.351 . S
Co297 O323 2.155 . S
Co297 O324 2.096 . S
C298 N301 1.301 . S
C298 N302 1.328 . S
C298 H303 0.930 . S
C299 C300 1.333 . S
C299 N301 1.317 . S
C299 H304 0.930 . S
C300 C299 1.333 . S
C300 N302 1.350 . S
C300 H326 0.931 . S
N301 Co297 2.148 . S
N301 C298 1.301 . S
N301 C299 1.317 . S
N302 C298 1.328 . S
N302 C300 1.350 . S
H303 C298 0.930 . S
H304 C299 0.930 . S
C305 O306 1.224 . S
C305 O324 1.247 . S
O306 C305 1.224 . S
N307 Co297 2.128 . S
N307 C308 1.355 . S
N307 C310 1.311 . S
C308 N307 1.355 . S
C308 C309 1.363 . S
C308 H320 0.929 . S
C309 C308 1.363 . S
C309 N311 1.375 . S
C309 H327 0.931 . S
C310 N307 1.311 . S
C310 N311 1.347 . S
C310 H321 0.929 . S
N311 C309 1.375 . S
N311 C310 1.347 . S
C312 C315 1.365 . S
C312 N317 1.328 . S
C312 H318 0.929 . S
C313 C314 1.362 . S
C313 C316 1.378 . S
C313 H328 0.929 . S
C314 C313 1.362 . S
C314 C315 1.366 . S
C315 C312 1.365 . S
C315 C314 1.366 . S
C315 H329 0.930 . S
C316 C313 1.378 . S
C316 N317 1.315 . S
C316 H319 0.930 . S
N317 Co297 2.194 . S
N317 C312 1.328 . S
N317 C316 1.315 . S
H318 C312 0.929 . S
H319 C316 0.930 . S
H320 C308 0.929 . S
H321 C310 0.929 . S
O322 Co297 2.351 . S
O322 C325 1.244 . S
O323 Co297 2.155 . S
O323 C325 1.240 . S
O324 Co297 2.096 . S
O324 C305 1.247 . S
C325 O322 1.244 . S
C325 O323 1.240 . S
H326 C300 0.931 . S
H327 C309 0.931 . S
H328 C313 0.929 . S
H329 C315 0.930 . S
Co330 N334 2.148 . S
Co330 N340 2.128 . S
Co330 N350 2.194 . S
Co330 O355 2.351 . S
Co330 O356 2.155 . S
Co330 O357 2.096 . S
C331 N334 1.301 . S
C331 N335 1.328 . S
C331 H336 0.930 . S
C332 C333 1.333 . S
C332 N334 1.317 . S
C332 H337 0.930 . S
C333 C332 1.333 . S
C333 N335 1.350 . S
C333 H359 0.931 . S
N334 Co330 2.148 . S
N334 C331 1.301 . S
N334 C332 1.317 . S
N335 C331 1.328 . S
N335 C333 1.350 . S
H336 C331 0.930 . S
H337 C332 0.930 . S
C338 O339 1.224 . S
C338 O357 1.247 . S
O339 C338 1.224 . S
N340 Co330 2.128 . S
N340 C341 1.355 . S
N340 C343 1.311 . S
C341 N340 1.355 . S
C341 C342 1.363 . S
C341 H353 0.929 . S
C342 C341 1.363 . S
C342 N344 1.375 . S
C342 H360 0.931 . S
C343 N340 1.311 . S
C343 N344 1.347 . S
C343 H354 0.929 . S
N344 C342 1.375 . S
N344 C343 1.347 . S
C345 C348 1.365 . S
C345 N350 1.328 . S
C345 H351 0.929 . S
C346 C347 1.362 . S
C346 C349 1.378 . S
C346 H361 0.929 . S
C347 C346 1.362 . S
C347 C348 1.366 . S
C348 C345 1.365 . S
C348 C347 1.366 . S
C348 H362 0.930 . S
C349 C346 1.378 . S
C349 N350 1.315 . S
C349 H352 0.930 . S
N350 Co330 2.194 . S
N350 C345 1.328 . S
N350 C349 1.315 . S
H351 C345 0.929 . S
H352 C349 0.930 . S
H353 C341 0.929 . S
H354 C343 0.929 . S
O355 Co330 2.351 . S
O355 C358 1.244 . S
O356 Co330 2.155 . S
O356 C358 1.240 . S
O357 Co330 2.096 . S
O357 C338 1.247 . S
C358 O355 1.244 . S
C358 O356 1.240 . S
H359 C333 0.931 . S
H360 C342 0.931 . S
H361 C346 0.929 . S
H362 C348 0.930 . S
Co363 N367 2.148 . S
Co363 N373 2.128 . S
Co363 N383 2.194 . S
Co363 O388 2.351 . S
Co363 O389 2.155 . S
Co363 O390 2.096 . S
C364 N367 1.301 . S
C364 N368 1.328 . S
C364 H369 0.930 . S
C365 C366 1.333 . S
C365 N367 1.317 . S
C365 H370 0.930 . S
C366 C365 1.333 . S
C366 N368 1.350 . S
C366 H392 0.931 . S
N367 Co363 2.148 . S
N367 C364 1.301 . S
N367 C365 1.317 . S
N368 C364 1.328 . S
N368 C366 1.350 . S
H369 C364 0.930 . S
H370 C365 0.930 . S
C371 O372 1.224 . S
C371 O390 1.247 . S
O372 C371 1.224 . S
N373 Co363 2.128 . S
N373 C374 1.355 . S
N373 C376 1.311 . S
C374 N373 1.355 . S
C374 C375 1.363 . S
C374 H386 0.929 . S
C375 C374 1.363 . S
C375 N377 1.375 . S
C375 H393 0.931 . S
C376 N373 1.311 . S
C376 N377 1.347 . S
C376 H387 0.929 . S
N377 C375 1.375 . S
N377 C376 1.347 . S
C378 C381 1.365 . S
C378 N383 1.328 . S
C378 H384 0.929 . S
C379 C380 1.362 . S
C379 C382 1.378 . S
C379 H394 0.929 . S
C380 C379 1.362 . S
C380 C381 1.366 . S
C381 C378 1.365 . S
C381 C380 1.366 . S
C381 H395 0.930 . S
C382 C379 1.378 . S
C382 N383 1.315 . S
C382 H385 0.930 . S
N383 Co363 2.194 . S
N383 C378 1.328 . S
N383 C382 1.315 . S
H384 C378 0.929 . S
H385 C382 0.930 . S
H386 C374 0.929 . S
H387 C376 0.929 . S
O388 Co363 2.351 . S
O388 C391 1.244 . S
O389 Co363 2.155 . S
O389 C391 1.240 . S
O390 Co363 2.096 . S
O390 C371 1.247 . S
C391 O388 1.244 . S
C391 O389 1.240 . S
H392 C366 0.931 . S
H393 C375 0.931 . S
H394 C379 0.929 . S
H395 C381 0.930 . S
Co396 N400 2.148 . S
Co396 N406 2.128 . S
Co396 N416 2.194 . S
Co396 O421 2.351 . S
Co396 O422 2.155 . S
Co396 O423 2.096 . S
C397 N400 1.301 . S
C397 N401 1.328 . S
C397 H402 0.930 . S
C398 C399 1.333 . S
C398 N400 1.317 . S
C398 H403 0.930 . S
C399 C398 1.333 . S
C399 N401 1.350 . S
C399 H425 0.931 . S
N400 Co396 2.148 . S
N400 C397 1.301 . S
N400 C398 1.317 . S
N401 C397 1.328 . S
N401 C399 1.350 . S
H402 C397 0.930 . S
H403 C398 0.930 . S
C404 O405 1.224 . S
C404 O423 1.247 . S
O405 C404 1.224 . S
N406 Co396 2.128 . S
N406 C407 1.355 . S
N406 C409 1.311 . S
C407 N406 1.355 . S
C407 C408 1.363 . S
C407 H419 0.929 . S
C408 C407 1.363 . S
C408 N410 1.375 . S
C408 H426 0.931 . S
C409 N406 1.311 . S
C409 N410 1.347 . S
C409 H420 0.929 . S
N410 C408 1.375 . S
N410 C409 1.347 . S
C411 C414 1.365 . S
C411 N416 1.328 . S
C411 H417 0.929 . S
C412 C413 1.362 . S
C412 C415 1.378 . S
C412 H427 0.929 . S
C413 C412 1.362 . S
C413 C414 1.366 . S
C414 C411 1.365 . S
C414 C413 1.366 . S
C414 H428 0.930 . S
C415 C412 1.378 . S
C415 N416 1.315 . S
C415 H418 0.930 . S
N416 Co396 2.194 . S
N416 C411 1.328 . S
N416 C415 1.315 . S
H417 C411 0.929 . S
H418 C415 0.930 . S
H419 C407 0.929 . S
H420 C409 0.929 . S
O421 Co396 2.351 . S
O421 C424 1.244 . S
O422 Co396 2.155 . S
O422 C424 1.240 . S
O423 Co396 2.096 . S
O423 C404 1.247 . S
C424 O421 1.244 . S
C424 O422 1.240 . S
H425 C399 0.931 . S
H426 C408 0.931 . S
H427 C412 0.929 . S
H428 C414 0.930 . S
Co429 N433 2.148 . S
Co429 N439 2.128 . S
Co429 N449 2.194 . S
Co429 O454 2.351 . S
Co429 O455 2.155 . S
Co429 O456 2.096 . S
C430 N433 1.301 . S
C430 N434 1.328 . S
C430 H435 0.930 . S
C431 C432 1.333 . S
C431 N433 1.317 . S
C431 H436 0.930 . S
C432 C431 1.333 . S
C432 N434 1.350 . S
C432 H458 0.931 . S
N433 Co429 2.148 . S
N433 C430 1.301 . S
N433 C431 1.317 . S
N434 C430 1.328 . S
N434 C432 1.350 . S
H435 C430 0.930 . S
H436 C431 0.930 . S
C437 O438 1.224 . S
C437 O456 1.247 . S
O438 C437 1.224 . S
N439 Co429 2.128 . S
N439 C440 1.355 . S
N439 C442 1.311 . S
C440 N439 1.355 . S
C440 C441 1.363 . S
C440 H452 0.929 . S
C441 C440 1.363 . S
C441 N443 1.375 . S
C441 H459 0.931 . S
C442 N439 1.311 . S
C442 N443 1.347 . S
C442 H453 0.929 . S
N443 C441 1.375 . S
N443 C442 1.347 . S
C444 C447 1.365 . S
C444 N449 1.328 . S
C444 H450 0.929 . S
C445 C446 1.362 . S
C445 C448 1.378 . S
C445 H460 0.929 . S
C446 C445 1.362 . S
C446 C447 1.366 . S
C447 C444 1.365 . S
C447 C446 1.366 . S
C447 H461 0.930 . S
C448 C445 1.378 . S
C448 N449 1.315 . S
C448 H451 0.930 . S
N449 Co429 2.194 . S
N449 C444 1.328 . S
N449 C448 1.315 . S
H450 C444 0.929 . S
H451 C448 0.930 . S
H452 C440 0.929 . S
H453 C442 0.929 . S
O454 Co429 2.351 . S
O454 C457 1.244 . S
O455 Co429 2.155 . S
O455 C457 1.240 . S
O456 Co429 2.096 . S
O456 C437 1.247 . S
C457 O454 1.244 . S
C457 O455 1.240 . S
H458 C432 0.931 . S
H459 C441 0.931 . S
H460 C445 0.929 . S
H461 C447 0.930 . S
Co462 N466 2.148 . S
Co462 N472 2.128 . S
Co462 N482 2.194 . S
Co462 O487 2.351 . S
Co462 O488 2.155 . S
Co462 O489 2.096 . S
C463 N466 1.301 . S
C463 N467 1.328 . S
C463 H468 0.930 . S
C464 C465 1.333 . S
C464 N466 1.317 . S
C464 H469 0.930 . S
C465 C464 1.333 . S
C465 N467 1.350 . S
C465 H491 0.931 . S
N466 Co462 2.148 . S
N466 C463 1.301 . S
N466 C464 1.317 . S
N467 C463 1.328 . S
N467 C465 1.350 . S
H468 C463 0.930 . S
H469 C464 0.930 . S
C470 O471 1.224 . S
C470 O489 1.247 . S
O471 C470 1.224 . S
N472 Co462 2.128 . S
N472 C473 1.355 . S
N472 C475 1.311 . S
C473 N472 1.355 . S
C473 C474 1.363 . S
C473 H485 0.929 . S
C474 C473 1.363 . S
C474 N476 1.375 . S
C474 H492 0.931 . S
C475 N472 1.311 . S
C475 N476 1.347 . S
C475 H486 0.929 . S
N476 C474 1.375 . S
N476 C475 1.347 . S
C477 C480 1.365 . S
C477 N482 1.328 . S
C477 H483 0.929 . S
C478 C479 1.362 . S
C478 C481 1.378 . S
C478 H493 0.929 . S
C479 C478 1.362 . S
C479 C480 1.366 . S
C480 C477 1.365 . S
C480 C479 1.366 . S
C480 H494 0.930 . S
C481 C478 1.378 . S
C481 N482 1.315 . S
C481 H484 0.930 . S
N482 Co462 2.194 . S
N482 C477 1.328 . S
N482 C481 1.315 . S
H483 C477 0.929 . S
H484 C481 0.930 . S
H485 C473 0.929 . S
H486 C475 0.929 . S
O487 Co462 2.351 . S
O487 C490 1.244 . S
O488 Co462 2.155 . S
O488 C490 1.240 . S
O489 Co462 2.096 . S
O489 C470 1.247 . S
C490 O487 1.244 . S
C490 O488 1.240 . S
H491 C465 0.931 . S
H492 C474 0.931 . S
H493 C478 0.929 . S
H494 C480 0.930 . S
Co495 N499 2.148 . S
Co495 N505 2.128 . S
Co495 N515 2.194 . S
Co495 O520 2.351 . S
Co495 O521 2.155 . S
Co495 O522 2.096 . S
C496 N499 1.301 . S
C496 N500 1.328 . S
C496 H501 0.930 . S
C497 C498 1.333 . S
C497 N499 1.317 . S
C497 H502 0.930 . S
C498 C497 1.333 . S
C498 N500 1.350 . S
C498 H524 0.931 . S
N499 Co495 2.148 . S
N499 C496 1.301 . S
N499 C497 1.317 . S
N500 C496 1.328 . S
N500 C498 1.350 . S
H501 C496 0.930 . S
H502 C497 0.930 . S
C503 O504 1.224 . S
C503 O522 1.247 . S
O504 C503 1.224 . S
N505 Co495 2.128 . S
N505 C506 1.355 . S
N505 C508 1.311 . S
C506 N505 1.355 . S
C506 C507 1.363 . S
C506 H518 0.929 . S
C507 C506 1.363 . S
C507 N509 1.375 . S
C507 H525 0.931 . S
C508 N505 1.311 . S
C508 N509 1.347 . S
C508 H519 0.929 . S
N509 C507 1.375 . S
N509 C508 1.347 . S
C510 C513 1.365 . S
C510 N515 1.328 . S
C510 H516 0.929 . S
C511 C512 1.362 . S
C511 C514 1.378 . S
C511 H526 0.929 . S
C512 C511 1.362 . S
C512 C513 1.366 . S
C513 C510 1.365 . S
C513 C512 1.366 . S
C513 H527 0.930 . S
C514 C511 1.378 . S
C514 N515 1.315 . S
C514 H517 0.930 . S
N515 Co495 2.194 . S
N515 C510 1.328 . S
N515 C514 1.315 . S
H516 C510 0.929 . S
H517 C514 0.930 . S
H518 C506 0.929 . S
H519 C508 0.929 . S
O520 Co495 2.351 . S
O520 C523 1.244 . S
O521 Co495 2.155 . S
O521 C523 1.240 . S
O522 Co495 2.096 . S
O522 C503 1.247 . S
C523 O520 1.244 . S
C523 O521 1.240 . S
H524 C498 0.931 . S
H525 C507 0.931 . S
H526 C511 0.929 . S
H527 C513 0.930 . S
H528 C536 0.950 . S
H529 C541 0.950 . S
H530 C538 0.950 . S
H531 C540 0.950 . S
H532 C542 0.950 . S
H533 C544 0.950 . S
H534 C546 0.950 . S
H535 C547 0.950 . S
C536 H528 0.950 . S
C536 C537 1.386 . S
C536 C538 1.391 . S
C537 C536 1.386 . S
C537 C541 1.393 . S
C538 H530 0.950 . S
C538 C536 1.391 . S
C538 C539 1.400 . S
C539 C538 1.400 . S
C539 C540 1.398 . S
C539 C545 1.491 . S
C540 H531 0.950 . S
C540 C539 1.398 . S
C540 C541 1.391 . S
C541 H529 0.950 . S
C541 C537 1.393 . S
C541 C540 1.391 . S
C542 H532 0.950 . S
C542 C543 1.386 . S
C542 C544 1.391 . S
C543 C542 1.386 . S
C543 C547 1.393 . S
C544 H533 0.950 . S
C544 C542 1.391 . S
C544 C545 1.400 . S
C545 C539 1.491 . S
C545 C544 1.400 . S
C545 C546 1.398 . S
C546 H534 0.950 . S
C546 C545 1.398 . S
C546 C547 1.391 . S
C547 H535 0.950 . S
C547 C543 1.393 . S
C547 C546 1.391 . S
H548 C556 0.950 . S
H549 C561 0.950 . S
H550 C558 0.950 . S
H551 C560 0.950 . S
H552 C562 0.950 . S
H553 C564 0.950 . S
H554 C566 0.950 . S
H555 C567 0.950 . S
C556 H548 0.950 . S
C556 C557 1.386 . S
C556 C558 1.391 . S
C557 C556 1.386 . S
C557 C561 1.393 . S
C558 H550 0.950 . S
C558 C556 1.391 . S
C558 C559 1.400 . S
C559 C558 1.400 . S
C559 C560 1.398 . S
C559 C565 1.491 . S
C560 H551 0.950 . S
C560 C559 1.398 . S
C560 C561 1.391 . S
C561 H549 0.950 . S
C561 C557 1.393 . S
C561 C560 1.391 . S
C562 H552 0.950 . S
C562 C563 1.386 . S
C562 C564 1.391 . S
C563 C562 1.386 . S
C563 C567 1.393 . S
C564 H553 0.950 . S
C564 C562 1.391 . S
C564 C565 1.400 . S
C565 C559 1.491 . S
C565 C564 1.400 . S
C565 C566 1.398 . S
C566 H554 0.950 . S
C566 C565 1.398 . S
C566 C567 1.391 . S
C567 H555 0.950 . S
C567 C563 1.393 . S
C567 C566 1.391 . S
H568 C576 0.950 . S
H569 C581 0.950 . S
H570 C578 0.950 . S
H571 C580 0.950 . S
H572 C582 0.950 . S
H573 C584 0.950 . S
H574 C586 0.950 . S
H575 C587 0.950 . S
C576 H568 0.950 . S
C576 C577 1.386 . S
C576 C578 1.391 . S
C577 C576 1.386 . S
C577 C581 1.393 . S
C578 H570 0.950 . S
C578 C576 1.391 . S
C578 C579 1.400 . S
C579 C578 1.400 . S
C579 C580 1.398 . S
C579 C585 1.491 1_554 S
C580 H571 0.950 . S
C580 C579 1.398 . S
C580 C581 1.391 . S
C581 H569 0.950 . S
C581 C577 1.393 . S
C581 C580 1.391 . S
C582 H572 0.950 . S
C582 C583 1.386 . S
C582 C584 1.391 . S
C583 C582 1.386 . S
C583 C587 1.393 . S
C584 H573 0.950 . S
C584 C582 1.391 . S
C584 C585 1.400 . S
C585 C579 1.491 1_556 S
C585 C584 1.400 . S
C585 C586 1.398 . S
C586 H574 0.950 . S
C586 C585 1.398 . S
C586 C587 1.391 . S
C587 H575 0.950 . S
C587 C583 1.393 . S
C587 C586 1.391 . S
H588 C596 0.950 . S
H589 C601 0.950 . S
H590 C598 0.950 . S
H591 C600 0.950 . S
H592 C602 0.950 . S
H593 C604 0.950 . S
H594 C606 0.950 . S
H595 C607 0.950 . S
C596 H588 0.950 . S
C596 C597 1.386 . S
C596 C598 1.391 . S
C597 C596 1.386 . S
C597 C601 1.393 . S
C598 H590 0.950 . S
C598 C596 1.391 . S
C598 C599 1.400 . S
C599 C598 1.400 . S
C599 C600 1.398 . S
C599 C605 1.491 . S
C600 H591 0.950 . S
C600 C599 1.398 . S
C600 C601 1.391 . S
C601 H589 0.950 . S
C601 C597 1.393 . S
C601 C600 1.391 . S
C602 H592 0.950 . S
C602 C603 1.386 . S
C602 C604 1.391 . S
C603 C602 1.386 . S
C603 C607 1.393 . S
C604 H593 0.950 . S
C604 C602 1.391 . S
C604 C605 1.400 . S
C605 C599 1.491 . S
C605 C604 1.400 . S
C605 C606 1.398 . S
C606 H594 0.950 . S
C606 C605 1.398 . S
C606 C607 1.391 . S
C607 H595 0.950 . S
C607 C603 1.393 . S
C607 C606 1.391 . S
H608 C616 0.950 . S
H609 C621 0.950 . S
H610 C618 0.950 . S
H611 C620 0.950 . S
H612 C622 0.950 . S
H613 C624 0.950 . S
H614 C626 0.950 . S
H615 C627 0.950 . S
C616 H608 0.950 . S
C616 C617 1.386 . S
C616 C618 1.391 . S
C617 C616 1.386 . S
C617 C621 1.393 . S
C618 H610 0.950 . S
C618 C616 1.391 . S
C618 C619 1.400 . S
C619 C618 1.400 . S
C619 C620 1.398 . S
C619 C625 1.491 . S
C620 H611 0.950 . S
C620 C619 1.398 . S
C620 C621 1.391 . S
C621 H609 0.950 . S
C621 C617 1.393 . S
C621 C620 1.391 . S
C622 H612 0.950 . S
C622 C623 1.386 . S
C622 C624 1.391 . S
C623 C622 1.386 . S
C623 C627 1.393 . S
C624 H613 0.950 . S
C624 C622 1.391 . S
C624 C625 1.400 . S
C625 C619 1.491 . S
C625 C624 1.400 . S
C625 C626 1.398 . S
C626 H614 0.950 . S
C626 C625 1.398 . S
C626 C627 1.391 . S
C627 H615 0.950 . S
C627 C623 1.393 . S
C627 C626 1.391 . S
H628 C636 0.950 . S
H629 C641 0.950 . S
H630 C638 0.950 . S
H631 C640 0.950 . S
H632 C642 0.950 . S
H633 C644 0.950 . S
H634 C646 0.950 . S
H635 C647 0.950 . S
C636 H628 0.950 . S
C636 C637 1.386 . S
C636 C638 1.391 . S
C637 C636 1.386 . S
C637 C641 1.393 . S
C638 H630 0.950 . S
C638 C636 1.391 . S
C638 C639 1.400 . S
C639 C638 1.400 . S
C639 C640 1.398 . S
C639 C645 1.491 1_556 S
C640 H631 0.950 . S
C640 C639 1.398 . S
C640 C641 1.391 . S
C641 H629 0.950 . S
C641 C637 1.393 . S
C641 C640 1.391 . S
C642 H632 0.950 . S
C642 C643 1.386 . S
C642 C644 1.391 . S
C643 C642 1.386 . S
C643 C647 1.393 . S
C644 H633 0.950 . S
C644 C642 1.391 . S
C644 C645 1.400 . S
C645 C639 1.491 1_554 S
C645 C644 1.400 . S
C645 C646 1.398 . S
C646 H634 0.950 . S
C646 C645 1.398 . S
C646 C647 1.391 . S
C647 H635 0.950 . S
C647 C643 1.393 . S
C647 C646 1.391 . S
H648 C656 0.950 . S
H649 C661 0.950 . S
H650 C658 0.950 . S
H651 C660 0.950 . S
H652 C662 0.950 . S
H653 C664 0.950 . S
H654 C666 0.950 . S
H655 C667 0.950 . S
C656 H648 0.950 . S
C656 C657 1.386 . S
C656 C658 1.391 . S
C657 C656 1.386 . S
C657 C661 1.393 . S
C658 H650 0.950 . S
C658 C656 1.391 . S
C658 C659 1.400 . S
C659 C658 1.400 . S
C659 C660 1.398 . S
C659 C665 1.491 . S
C660 H651 0.950 . S
C660 C659 1.398 . S
C660 C661 1.391 . S
C661 H649 0.950 . S
C661 C657 1.393 . S
C661 C660 1.391 . S
C662 H652 0.950 . S
C662 C663 1.386 . S
C662 C664 1.391 . S
C663 C662 1.386 . S
C663 C667 1.393 . S
C664 H653 0.950 . S
C664 C662 1.391 . S
C664 C665 1.400 . S
C665 C659 1.491 . S
C665 C664 1.400 . S
C665 C666 1.398 . S
C666 H654 0.950 . S
C666 C665 1.398 . S
C666 C667 1.391 . S
C667 H655 0.950 . S
C667 C663 1.393 . S
C667 C666 1.391 . S
H668 C676 0.950 . S
H669 C681 0.950 . S
H670 C678 0.950 . S
H671 C680 0.950 . S
H672 C682 0.950 . S
H673 C684 0.950 . S
H674 C686 0.950 . S
H675 C687 0.950 . S
C676 H668 0.950 . S
C676 C677 1.386 . S
C676 C678 1.391 . S
C677 C676 1.386 . S
C677 C681 1.393 . S
C678 H670 0.950 . S
C678 C676 1.391 . S
C678 C679 1.400 . S
C679 C678 1.400 . S
C679 C680 1.398 . S
C679 C685 1.491 . S
C680 H671 0.950 . S
C680 C679 1.398 . S
C680 C681 1.391 . S
C681 H669 0.950 . S
C681 C677 1.393 . S
C681 C680 1.391 . S
C682 H672 0.950 . S
C682 C683 1.386 . S
C682 C684 1.391 . S
C683 C682 1.386 . S
C683 C687 1.393 . S
C684 H673 0.950 . S
C684 C682 1.391 . S
C684 C685 1.400 . S
C685 C679 1.491 . S
C685 C684 1.400 . S
C685 C686 1.398 . S
C686 H674 0.950 . S
C686 C685 1.398 . S
C686 C687 1.391 . S
C687 H675 0.950 . S
C687 C683 1.393 . S
C687 C686 1.391 . S
H688 C696 0.950 . S
H689 C701 0.950 . S
H690 C698 0.950 . S
H691 C700 0.950 . S
H692 C702 0.950 . S
H693 C704 0.950 . S
H694 C706 0.950 . S
H695 C707 0.950 . S
C696 H688 0.950 . S
C696 C697 1.386 . S
C696 C698 1.391 . S
C697 C696 1.386 . S
C697 C701 1.393 . S
C698 H690 0.950 . S
C698 C696 1.391 . S
C698 C699 1.400 . S
C699 C698 1.400 . S
C699 C700 1.398 . S
C699 C705 1.491 . S
C700 H691 0.950 . S
C700 C699 1.398 . S
C700 C701 1.391 . S
C701 H689 0.950 . S
C701 C697 1.393 . S
C701 C700 1.391 . S
C702 H692 0.950 . S
C702 C703 1.386 . S
C702 C704 1.391 . S
C703 C702 1.386 . S
C703 C707 1.393 . S
C704 H693 0.950 . S
C704 C702 1.391 . S
C704 C705 1.400 . S
C705 C699 1.491 . S
C705 C704 1.400 . S
C705 C706 1.398 . S
C706 H694 0.950 . S
C706 C705 1.398 . S
C706 C707 1.391 . S
C707 H695 0.950 . S
C707 C703 1.393 . S
C707 C706 1.391 . S
H708 C716 0.950 . S
H709 C721 0.950 . S
H710 C718 0.950 . S
H711 C720 0.950 . S
H712 C722 0.950 . S
H713 C724 0.950 . S
H714 C726 0.950 . S
H715 C727 0.950 . S
C716 H708 0.950 . S
C716 C717 1.386 . S
C716 C718 1.391 . S
C717 C716 1.386 . S
C717 C721 1.393 . S
C718 H710 0.950 . S
C718 C716 1.391 . S
C718 C719 1.400 . S
C719 C718 1.400 . S
C719 C720 1.398 . S
C719 C725 1.491 . S
C720 H711 0.950 . S
C720 C719 1.398 . S
C720 C721 1.391 . S
C721 H709 0.950 . S
C721 C717 1.393 . S
C721 C720 1.391 . S
C722 H712 0.950 . S
C722 C723 1.386 . S
C722 C724 1.391 . S
C723 C722 1.386 . S
C723 C727 1.393 . S
C724 H713 0.950 . S
C724 C722 1.391 . S
C724 C725 1.400 . S
C725 C719 1.491 . S
C725 C724 1.400 . S
C725 C726 1.398 . S
C726 H714 0.950 . S
C726 C725 1.398 . S
C726 C727 1.391 . S
C727 H715 0.950 . S
C727 C723 1.393 . S
C727 C726 1.391 . S
H728 C736 0.950 . S
H729 C741 0.950 . S
H730 C738 0.950 . S
H731 C740 0.950 . S
H732 C742 0.950 . S
H733 C744 0.950 . S
H734 C746 0.950 . S
H735 C747 0.950 . S
C736 H728 0.950 . S
C736 C737 1.386 . S
C736 C738 1.391 . S
C737 C736 1.386 . S
C737 C741 1.393 . S
C738 H730 0.950 . S
C738 C736 1.391 . S
C738 C739 1.400 . S
C739 C738 1.400 . S
C739 C740 1.398 . S
C739 C745 1.491 . S
C740 H731 0.950 . S
C740 C739 1.398 . S
C740 C741 1.391 . S
C741 H729 0.950 . S
C741 C737 1.393 . S
C741 C740 1.391 . S
C742 H732 0.950 . S
C742 C743 1.386 . S
C742 C744 1.391 . S
C743 C742 1.386 . S
C743 C747 1.393 . S
C744 H733 0.950 . S
C744 C742 1.391 . S
C744 C745 1.400 . S
C745 C739 1.491 . S
C745 C744 1.400 . S
C745 C746 1.398 . S
C746 H734 0.950 . S
C746 C745 1.398 . S
C746 C747 1.391 . S
C747 H735 0.950 . S
C747 C743 1.393 . S
C747 C746 1.391 . S
H748 C756 0.950 . S
H749 C761 0.950 . S
H750 C758 0.950 . S
H751 C760 0.950 . S
H752 C762 0.950 . S
H753 C764 0.950 . S
H754 C766 0.950 . S
H755 C767 0.950 . S
C756 H748 0.950 . S
C756 C757 1.386 . S
C756 C758 1.391 . S
C757 C756 1.386 . S
C757 C761 1.393 . S
C758 H750 0.950 . S
C758 C756 1.391 . S
C758 C759 1.400 . S
C759 C758 1.400 . S
C759 C760 1.398 . S
C759 C765 1.491 . S
C760 H751 0.950 . S
C760 C759 1.398 . S
C760 C761 1.391 . S
C761 H749 0.950 . S
C761 C757 1.393 . S
C761 C760 1.391 . S
C762 H752 0.950 . S
C762 C763 1.386 . S
C762 C764 1.391 . S
C763 C762 1.386 . S
C763 C767 1.393 . S
C764 H753 0.950 . S
C764 C762 1.391 . S
C764 C765 1.400 . S
C765 C759 1.491 . S
C765 C764 1.400 . S
C765 C766 1.398 . S
C766 H754 0.950 . S
C766 C765 1.398 . S
C766 C767 1.391 . S
C767 H755 0.950 . S
C767 C763 1.393 . S
C767 C766 1.391 . S
H768 C776 0.950 . S
H769 C781 0.950 . S
H770 C778 0.950 . S
H771 C780 0.950 . S
H772 C782 0.950 . S
H773 C784 0.950 . S
H774 C786 0.950 . S
H775 C787 0.950 . S
C776 H768 0.950 . S
C776 C777 1.386 . S
C776 C778 1.391 . S
C777 C776 1.386 . S
C777 C781 1.393 . S
C778 H770 0.950 . S
C778 C776 1.391 . S
C778 C779 1.400 . S
C779 C778 1.400 . S
C779 C780 1.398 . S
C779 C785 1.491 . S
C780 H771 0.950 . S
C780 C779 1.398 . S
C780 C781 1.391 . S
C781 H769 0.950 . S
C781 C777 1.393 . S
C781 C780 1.391 . S
C782 H772 0.950 . S
C782 C783 1.386 . S
C782 C784 1.391 . S
C783 C782 1.386 . S
C783 C787 1.393 . S
C784 H773 0.950 . S
C784 C782 1.391 . S
C784 C785 1.400 . S
C785 C779 1.491 . S
C785 C784 1.400 . S
C785 C786 1.398 . S
C786 H774 0.950 . S
C786 C785 1.398 . S
C786 C787 1.391 . S
C787 H775 0.950 . S
C787 C783 1.393 . S
C787 C786 1.391 . S
H788 C796 0.950 . S
H789 C801 0.950 . S
H790 C798 0.950 . S
H791 C800 0.950 . S
H792 C802 0.950 . S
H793 C804 0.950 . S
H794 C806 0.950 . S
H795 C807 0.950 . S
C796 H788 0.950 . S
C796 C797 1.386 . S
C796 C798 1.391 . S
C797 C796 1.386 . S
C797 C801 1.393 . S
C798 H790 0.950 . S
C798 C796 1.391 . S
C798 C799 1.400 . S
C799 C798 1.400 . S
C799 C800 1.398 . S
C799 C805 1.491 . S
C800 H791 0.950 . S
C800 C799 1.398 . S
C800 C801 1.391 . S
C801 H789 0.950 . S
C801 C797 1.393 . S
C801 C800 1.391 . S
C802 H792 0.950 . S
C802 C803 1.386 . S
C802 C804 1.391 . S
C803 C802 1.386 . S
C803 C807 1.393 . S
C804 H793 0.950 . S
C804 C802 1.391 . S
C804 C805 1.400 . S
C805 C799 1.491 . S
C805 C804 1.400 . S
C805 C806 1.398 . S
C806 H794 0.950 . S
C806 C805 1.398 . S
C806 C807 1.391 . S
C807 H795 0.950 . S
C807 C803 1.393 . S
C807 C806 1.391 . S
H808 C816 0.950 . S
H809 C821 0.950 . S
H810 C818 0.950 . S
H811 C820 0.950 . S
H812 C822 0.950 . S
H813 C824 0.950 . S
H814 C826 0.950 . S
H815 C827 0.950 . S
C816 H808 0.950 . S
C816 C817 1.386 . S
C816 C818 1.391 . S
C817 C816 1.386 . S
C817 C821 1.393 . S
C818 H810 0.950 . S
C818 C816 1.391 . S
C818 C819 1.400 . S
C819 C818 1.400 . S
C819 C820 1.398 . S
C819 C825 1.491 . S
C820 H811 0.950 . S
C820 C819 1.398 . S
C820 C821 1.391 . S
C821 H809 0.950 . S
C821 C817 1.393 . S
C821 C820 1.391 . S
C822 H812 0.950 . S
C822 C823 1.386 . S
C822 C824 1.391 . S
C823 C822 1.386 . S
C823 C827 1.393 . S
C824 H813 0.950 . S
C824 C822 1.391 . S
C824 C825 1.400 . S
C825 C819 1.491 . S
C825 C824 1.400 . S
C825 C826 1.398 . S
C826 H814 0.950 . S
C826 C825 1.398 . S
C826 C827 1.391 . S
C827 H815 0.950 . S
C827 C823 1.393 . S
C827 C826 1.391 . S
H828 C836 0.950 . S
H829 C841 0.950 . S
H830 C838 0.950 . S
H831 C840 0.950 . S
H832 C842 0.950 . S
H833 C844 0.950 . S
H834 C846 0.950 . S
H835 C847 0.950 . S
C836 H828 0.950 . S
C836 C837 1.386 . S
C836 C838 1.391 . S
C837 C836 1.386 . S
C837 C841 1.393 . S
C838 H830 0.950 . S
C838 C836 1.391 . S
C838 C839 1.400 . S
C839 C838 1.400 . S
C839 C840 1.398 . S
C839 C845 1.491 . S
C840 H831 0.950 . S
C840 C839 1.398 . S
C840 C841 1.391 . S
C841 H829 0.950 . S
C841 C837 1.393 . S
C841 C840 1.391 . S
C842 H832 0.950 . S
C842 C843 1.386 . S
C842 C844 1.391 . S
C843 C842 1.386 . S
C843 C847 1.393 . S
C844 H833 0.950 . S
C844 C842 1.391 . S
C844 C845 1.400 . S
C845 C839 1.491 . S
C845 C844 1.400 . S
C845 C846 1.398 . S
C846 H834 0.950 . S
C846 C845 1.398 . S
C846 C847 1.391 . S
C847 H835 0.950 . S
C847 C843 1.393 . S
C847 C846 1.391 . S
H848 C856 0.950 . S
H849 C861 0.950 . S
H850 C858 0.950 . S
H851 C860 0.950 . S
H852 C862 0.950 . S
H853 C864 0.950 . S
H854 C866 0.950 . S
H855 C867 0.950 . S
C856 H848 0.950 . S
C856 C857 1.386 . S
C856 C858 1.391 . S
C857 C856 1.386 . S
C857 C861 1.393 . S
C858 H850 0.950 . S
C858 C856 1.391 . S
C858 C859 1.400 . S
C859 C858 1.400 . S
C859 C860 1.398 . S
C859 C865 1.491 . S
C860 H851 0.950 . S
C860 C859 1.398 . S
C860 C861 1.391 . S
C861 H849 0.950 . S
C861 C857 1.393 . S
C861 C860 1.391 . S
C862 H852 0.950 . S
C862 C863 1.386 . S
C862 C864 1.391 . S
C863 C862 1.386 . S
C863 C867 1.393 . S
C864 H853 0.950 . S
C864 C862 1.391 . S
C864 C865 1.400 . S
C865 C859 1.491 . S
C865 C864 1.400 . S
C865 C866 1.398 . S
C866 H854 0.950 . S
C866 C865 1.398 . S
C866 C867 1.391 . S
C867 H855 0.950 . S
C867 C863 1.393 . S
C867 C866 1.391 . S
H868 C876 0.950 . S
H869 C881 0.950 . S
H870 C878 0.950 . S
H871 C880 0.950 . S
H872 C882 0.950 . S
H873 C884 0.950 . S
H874 C886 0.950 . S
H875 C887 0.950 . S
C876 H868 0.950 . S
C876 C877 1.386 . S
C876 C878 1.391 . S
C877 C876 1.386 . S
C877 C881 1.393 . S
C878 H870 0.950 . S
C878 C876 1.391 . S
C878 C879 1.400 . S
C879 C878 1.400 . S
C879 C880 1.398 . S
C879 C885 1.491 . S
C880 H871 0.950 . S
C880 C879 1.398 . S
C880 C881 1.391 . S
C881 H869 0.950 . S
C881 C877 1.393 . S
C881 C880 1.391 . S
C882 H872 0.950 . S
C882 C883 1.386 . S
C882 C884 1.391 . S
C883 C882 1.386 . S
C883 C887 1.393 . S
C884 H873 0.950 . S
C884 C882 1.391 . S
C884 C885 1.400 . S
C885 C879 1.491 . S
C885 C884 1.400 . S
C885 C886 1.398 . S
C886 H874 0.950 . S
C886 C885 1.398 . S
C886 C887 1.391 . S
C887 H875 0.950 . S
C887 C883 1.393 . S
C887 C886 1.391 . S
H888 C896 0.950 . S
H889 C901 0.950 . S
H890 C898 0.950 . S
H891 C900 0.950 . S
H892 C902 0.950 . S
H893 C904 0.950 . S
H894 C906 0.950 . S
H895 C907 0.950 . S
C896 H888 0.950 . S
C896 C897 1.386 . S
C896 C898 1.391 . S
C897 C896 1.386 . S
C897 C901 1.393 . S
C898 H890 0.950 . S
C898 C896 1.391 . S
C898 C899 1.400 . S
C899 C898 1.400 . S
C899 C900 1.398 . S
C899 C905 1.491 . S
C900 H891 0.950 . S
C900 C899 1.398 . S
C900 C901 1.391 . S
C901 H889 0.950 . S
C901 C897 1.393 . S
C901 C900 1.391 . S
C902 H892 0.950 . S
C902 C903 1.386 . S
C902 C904 1.391 . S
C903 C902 1.386 . S
C903 C907 1.393 . S
C904 H893 0.950 . S
C904 C902 1.391 . S
C904 C905 1.400 . S
C905 C899 1.491 . S
C905 C904 1.400 . S
C905 C906 1.398 . S
C906 H894 0.950 . S
C906 C905 1.398 . S
C906 C907 1.391 . S
C907 H895 0.950 . S
C907 C903 1.393 . S
C907 C906 1.391 . S
H908 C916 0.950 . S
H909 C921 0.950 . S
H910 C918 0.950 . S
H911 C920 0.950 . S
H912 C922 0.950 . S
H913 C924 0.950 . S
H914 C926 0.950 . S
H915 C927 0.950 . S
C916 H908 0.950 . S
C916 C917 1.386 . S
C916 C918 1.391 . S
C917 C916 1.386 . S
C917 C921 1.393 . S
C918 H910 0.950 . S
C918 C916 1.391 . S
C918 C919 1.400 . S
C919 C918 1.400 . S
C919 C920 1.398 . S
C919 C925 1.491 . S
C920 H911 0.950 . S
C920 C919 1.398 . S
C920 C921 1.391 . S
C921 H909 0.950 . S
C921 C917 1.393 . S
C921 C920 1.391 . S
C922 H912 0.950 . S
C922 C923 1.386 . S
C922 C924 1.391 . S
C923 C922 1.386 . S
C923 C927 1.393 . S
C924 H913 0.950 . S
C924 C922 1.391 . S
C924 C925 1.400 . S
C925 C919 1.491 . S
C925 C924 1.400 . S
C925 C926 1.398 . S
C926 H914 0.950 . S
C926 C925 1.398 . S
C926 C927 1.391 . S
C927 H915 0.950 . S
C927 C923 1.393 . S
C927 C926 1.391 . S
H928 C936 0.950 . S
H929 C941 0.950 . S
H930 C938 0.950 . S
H931 C940 0.950 . S
H932 C942 0.950 . S
H933 C944 0.950 . S
H934 C946 0.950 . S
H935 C947 0.950 . S
C936 H928 0.950 . S
C936 C937 1.386 . S
C936 C938 1.391 . S
C937 C936 1.386 . S
C937 C941 1.393 . S
C938 H930 0.950 . S
C938 C936 1.391 . S
C938 C939 1.400 . S
C939 C938 1.400 . S
C939 C940 1.398 . S
C939 C945 1.491 . S
C940 H931 0.950 . S
C940 C939 1.398 . S
C940 C941 1.391 . S
C941 H929 0.950 . S
C941 C937 1.393 . S
C941 C940 1.391 . S
C942 H932 0.950 . S
C942 C943 1.386 . S
C942 C944 1.391 . S
C943 C942 1.386 . S
C943 C947 1.393 . S
C944 H933 0.950 . S
C944 C942 1.391 . S
C944 C945 1.400 . S
C945 C939 1.491 . S
C945 C944 1.400 . S
C945 C946 1.398 . S
C946 H934 0.950 . S
C946 C945 1.398 . S
C946 C947 1.391 . S
C947 H935 0.950 . S
C947 C943 1.393 . S
C947 C946 1.391 . S
H948 C956 0.950 . S
H949 C961 0.950 . S
H950 C958 0.950 . S
H951 C960 0.950 . S
H952 C962 0.950 . S
H953 C964 0.950 . S
H954 C966 0.950 . S
H955 C967 0.950 . S
C956 H948 0.950 . S
C956 C957 1.386 . S
C956 C958 1.391 . S
C957 C956 1.386 . S
C957 C961 1.393 . S
C958 H950 0.950 . S
C958 C956 1.391 . S
C958 C959 1.400 . S
C959 C958 1.400 . S
C959 C960 1.398 . S
C959 C965 1.491 . S
C960 H951 0.950 . S
C960 C959 1.398 . S
C960 C961 1.391 . S
C961 H949 0.950 . S
C961 C957 1.393 . S
C961 C960 1.391 . S
C962 H952 0.950 . S
C962 C963 1.386 . S
C962 C964 1.391 . S
C963 C962 1.386 . S
C963 C967 1.393 . S
C964 H953 0.950 . S
C964 C962 1.391 . S
C964 C965 1.400 . S
C965 C959 1.491 . S
C965 C964 1.400 . S
C965 C966 1.398 . S
C966 H954 0.950 . S
C966 C965 1.398 . S
C966 C967 1.391 . S
C967 H955 0.950 . S
C967 C963 1.393 . S
C967 C966 1.391 . S
H968 C976 0.950 . S
H969 C981 0.950 1_556 S
H970 C978 0.950 . S
H971 C980 0.950 . S
H972 C982 0.950 . S
H973 C984 0.950 . S
H974 C986 0.950 . S
H975 C987 0.950 . S
C976 H968 0.950 . S
C976 C977 1.386 . S
C976 C978 1.391 . S
C977 C976 1.386 . S
C977 C981 1.393 . S
C978 H970 0.950 . S
C978 C976 1.391 . S
C978 C979 1.400 . S
C979 C978 1.400 . S
C979 C980 1.398 . S
C979 C985 1.491 . S
C980 H971 0.950 . S
C980 C979 1.398 . S
C980 C981 1.391 . S
C981 H969 0.950 1_554 S
C981 C977 1.393 . S
C981 C980 1.391 . S
C982 H972 0.950 . S
C982 C983 1.386 . S
C982 C984 1.391 . S
C983 C982 1.386 . S
C983 C987 1.393 . S
C984 H973 0.950 . S
C984 C982 1.391 . S
C984 C985 1.400 . S
C985 C979 1.491 . S
C985 C984 1.400 . S
C985 C986 1.398 . S
C986 H974 0.950 . S
C986 C985 1.398 . S
C986 C987 1.391 . S
C987 H975 0.950 . S
C987 C983 1.393 . S
C987 C986 1.391 . S
H988 C996 0.950 . S
H989 C1001 0.950 . S
H990 C998 0.950 . S
H991 C1000 0.950 . S
H992 C1002 0.950 . S
H993 C1004 0.950 . S
H994 C1006 0.950 . S
H995 C1007 0.950 . S
C996 H988 0.950 . S
C996 C997 1.386 . S
C996 C998 1.391 . S
C997 C996 1.386 . S
C997 C1001 1.393 . S
C998 H990 0.950 . S
C998 C996 1.391 . S
C998 C999 1.400 . S
C999 C998 1.400 . S
C999 C1000 1.398 . S
C999 C1005 1.491 . S
C1000 H991 0.950 . S
C1000 C999 1.398 . S
C1000 C1001 1.391 . S
C1001 H989 0.950 . S
C1001 C997 1.393 . S
C1001 C1000 1.391 . S
C1002 H992 0.950 . S
C1002 C1003 1.386 . S
C1002 C1004 1.391 . S
C1003 C1002 1.386 . S
C1003 C1007 1.393 . S
C1004 H993 0.950 . S
C1004 C1002 1.391 . S
C1004 C1005 1.400 . S
C1005 C999 1.491 . S
C1005 C1004 1.400 . S
C1005 C1006 1.398 . S
C1006 H994 0.950 . S
C1006 C1005 1.398 . S
C1006 C1007 1.391 . S
C1007 H995 0.950 . S
C1007 C1003 1.393 . S
C1007 C1006 1.391 . S
H1008 C1016 0.950 . S
H1009 C1021 0.950 . S
H1010 C1018 0.950 1_655 S
H1011 C1020 0.950 1_565 S
H1012 C1022 0.950 . S
H1013 C1024 0.950 1_455 S
H1014 C1026 0.950 1_545 S
H1015 C1027 0.950 . S
C1016 H1008 0.950 . S
C1016 C1017 1.386 . S
C1016 C1018 1.391 . S
C1017 C1016 1.386 . S
C1017 C1021 1.393 . S
C1018 H1010 0.950 1_455 S
C1018 C1016 1.391 . S
C1018 C1019 1.400 . S
C1019 C1018 1.400 . S
C1019 C1020 1.398 . S
C1019 C1025 1.491 1_445 S
C1020 H1011 0.950 1_545 S
C1020 C1019 1.398 . S
C1020 C1021 1.391 . S
C1021 H1009 0.950 . S
C1021 C1017 1.393 . S
C1021 C1020 1.391 . S
C1022 H1012 0.950 . S
C1022 C1023 1.386 . S
C1022 C1024 1.391 . S
C1023 C1022 1.386 . S
C1023 C1027 1.393 . S
C1024 H1013 0.950 1_655 S
C1024 C1022 1.391 . S
C1024 C1025 1.400 . S
C1025 C1019 1.491 1_665 S
C1025 C1024 1.400 . S
C1025 C1026 1.398 . S
C1026 H1014 0.950 1_565 S
C1026 C1025 1.398 . S
C1026 C1027 1.391 . S
C1027 H1015 0.950 . S
C1027 C1023 1.393 . S
C1027 C1026 1.391 . S
H1028 C1036 0.950 . S
H1029 C1041 0.950 . S
H1030 C1038 0.950 1_655 S
H1031 C1040 0.950 . S
H1032 C1042 0.950 . S
H1033 C1044 0.950 1_455 S
H1034 C1046 0.950 . S
H1035 C1047 0.950 . S
C1036 H1028 0.950 . S
C1036 C1037 1.386 . S
C1036 C1038 1.391 . S
C1037 C1036 1.386 . S
C1037 C1041 1.393 . S
C1038 H1030 0.950 1_455 S
C1038 C1036 1.391 . S
C1038 C1039 1.400 . S
C1039 C1038 1.400 . S
C1039 C1040 1.398 . S
C1039 C1045 1.491 1_455 S
C1040 H1031 0.950 . S
C1040 C1039 1.398 . S
C1040 C1041 1.391 . S
C1041 H1029 0.950 . S
C1041 C1037 1.393 . S
C1041 C1040 1.391 . S
C1042 H1032 0.950 . S
C1042 C1043 1.386 . S
C1042 C1044 1.391 . S
C1043 C1042 1.386 . S
C1043 C1047 1.393 . S
C1044 H1033 0.950 1_655 S
C1044 C1042 1.391 . S
C1044 C1045 1.400 . S
C1045 C1039 1.491 1_655 S
C1045 C1044 1.400 . S
C1045 C1046 1.398 . S
C1046 H1034 0.950 . S
C1046 C1045 1.398 . S
C1046 C1047 1.391 . S
C1047 H1035 0.950 . S
C1047 C1043 1.393 . S
C1047 C1046 1.391 . S
H1048 C1056 0.950 . S
H1049 C1061 0.950 . S
H1050 C1058 0.950 . S
H1051 C1060 0.950 . S
H1052 C1062 0.950 . S
H1053 C1064 0.950 . S
H1054 C1066 0.950 . S
H1055 C1067 0.950 . S
C1056 H1048 0.950 . S
C1056 C1057 1.386 . S
C1056 C1058 1.391 . S
C1057 C1056 1.386 . S
C1057 C1061 1.393 . S
C1058 H1050 0.950 . S
C1058 C1056 1.391 . S
C1058 C1059 1.400 . S
C1059 C1058 1.400 . S
C1059 C1060 1.398 . S
C1059 C1065 1.491 . S
C1060 H1051 0.950 . S
C1060 C1059 1.398 . S
C1060 C1061 1.391 . S
C1061 H1049 0.950 . S
C1061 C1057 1.393 . S
C1061 C1060 1.391 . S
C1062 H1052 0.950 . S
C1062 C1063 1.386 . S
C1062 C1064 1.391 . S
C1063 C1062 1.386 . S
C1063 C1067 1.393 . S
C1064 H1053 0.950 . S
C1064 C1062 1.391 . S
C1064 C1065 1.400 . S
C1065 C1059 1.491 . S
C1065 C1064 1.400 . S
C1065 C1066 1.398 . S
C1066 H1054 0.950 . S
C1066 C1065 1.398 . S
C1066 C1067 1.391 . S
C1067 H1055 0.950 . S
C1067 C1063 1.393 . S
C1067 C1066 1.391 . S
H1068 C1076 0.950 . S
H1069 C1081 0.950 . S
H1070 C1078 0.950 . S
H1071 C1080 0.950 . S
H1072 C1082 0.950 . S
H1073 C1084 0.950 . S
H1074 C1086 0.950 . S
H1075 C1087 0.950 . S
C1076 H1068 0.950 . S
C1076 C1077 1.386 . S
C1076 C1078 1.391 . S
C1077 C1076 1.386 . S
C1077 C1081 1.393 . S
C1078 H1070 0.950 . S
C1078 C1076 1.391 . S
C1078 C1079 1.400 . S
C1079 C1078 1.400 . S
C1079 C1080 1.398 1_545 S
C1079 C1085 1.491 1_545 S
C1080 H1071 0.950 . S
C1080 C1079 1.398 1_565 S
C1080 C1081 1.391 1_565 S
C1081 H1069 0.950 . S
C1081 C1077 1.393 . S
C1081 C1080 1.391 1_545 S
C1082 H1072 0.950 . S
C1082 C1083 1.386 . S
C1082 C1084 1.391 . S
C1083 C1082 1.386 . S
C1083 C1087 1.393 . S
C1084 H1073 0.950 . S
C1084 C1082 1.391 . S
C1084 C1085 1.400 . S
C1085 C1079 1.491 1_565 S
C1085 C1084 1.400 . S
C1085 C1086 1.398 1_565 S
C1086 H1074 0.950 . S
C1086 C1085 1.398 1_545 S
C1086 C1087 1.391 1_545 S
C1087 H1075 0.950 . S
C1087 C1083 1.393 . S
C1087 C1086 1.391 1_565 S
H1088 C1096 0.950 . S
H1089 C1101 0.950 . S
H1090 C1098 0.950 . S
H1091 C1100 0.950 . S
H1092 C1102 0.950 . S
H1093 C1104 0.950 . S
H1094 C1106 0.950 . S
H1095 C1107 0.950 . S
C1096 H1088 0.950 . S
C1096 C1097 1.386 . S
C1096 C1098 1.391 1_455 S
C1097 C1096 1.386 . S
C1097 C1101 1.393 . S
C1098 H1090 0.950 . S
C1098 C1096 1.391 1_655 S
C1098 C1099 1.400 1_655 S
C1099 C1098 1.400 1_455 S
C1099 C1100 1.398 . S
C1099 C1105 1.491 1_455 S
C1100 H1091 0.950 . S
C1100 C1099 1.398 . S
C1100 C1101 1.391 . S
C1101 H1089 0.950 . S
C1101 C1097 1.393 . S
C1101 C1100 1.391 . S
C1102 H1092 0.950 . S
C1102 C1103 1.386 . S
C1102 C1104 1.391 1_655 S
C1103 C1102 1.386 . S
C1103 C1107 1.393 . S
C1104 H1093 0.950 . S
C1104 C1102 1.391 1_455 S
C1104 C1105 1.400 1_455 S
C1105 C1099 1.491 1_655 S
C1105 C1104 1.400 1_655 S
C1105 C1106 1.398 . S
C1106 H1094 0.950 . S
C1106 C1105 1.398 . S
C1106 C1107 1.391 . S
C1107 H1095 0.950 . S
C1107 C1103 1.393 . S
C1107 C1106 1.391 . S
H1108 C1116 0.950 . S
H1109 C1121 0.950 . S
H1110 C1118 0.950 . S
H1111 C1120 0.950 . S
H1112 C1122 0.950 . S
H1113 C1124 0.950 . S
H1114 C1126 0.950 . S
H1115 C1127 0.950 . S
C1116 H1108 0.950 . S
C1116 C1117 1.386 . S
C1116 C1118 1.391 . S
C1117 C1116 1.386 . S
C1117 C1121 1.393 . S
C1118 H1110 0.950 . S
C1118 C1116 1.391 . S
C1118 C1119 1.400 . S
C1119 C1118 1.400 . S
C1119 C1120 1.398 . S
C1119 C1125 1.491 . S
C1120 H1111 0.950 . S
C1120 C1119 1.398 . S
C1120 C1121 1.391 . S
C1121 H1109 0.950 . S
C1121 C1117 1.393 . S
C1121 C1120 1.391 . S
C1122 H1112 0.950 . S
C1122 C1123 1.386 . S
C1122 C1124 1.391 . S
C1123 C1122 1.386 . S
C1123 C1127 1.393 . S
C1124 H1113 0.950 . S
C1124 C1122 1.391 . S
C1124 C1125 1.400 . S
C1125 C1119 1.491 . S
C1125 C1124 1.400 . S
C1125 C1126 1.398 . S
C1126 H1114 0.950 . S
C1126 C1125 1.398 . S
C1126 C1127 1.391 . S
C1127 H1115 0.950 . S
C1127 C1123 1.393 . S
C1127 C1126 1.391 . S
H1128 C1136 0.950 . S
H1129 C1141 0.950 . S
H1130 C1138 0.950 . S
H1131 C1140 0.950 1_545 S
H1132 C1142 0.950 . S
H1133 C1144 0.950 . S
H1134 C1146 0.950 1_565 S
H1135 C1147 0.950 . S
C1136 H1128 0.950 . S
C1136 C1137 1.386 . S
C1136 C1138 1.391 . S
C1137 C1136 1.386 . S
C1137 C1141 1.393 . S
C1138 H1130 0.950 . S
C1138 C1136 1.391 . S
C1138 C1139 1.400 . S
C1139 C1138 1.400 . S
C1139 C1140 1.398 . S
C1139 C1145 1.491 1_565 S
C1140 H1131 0.950 1_565 S
C1140 C1139 1.398 . S
C1140 C1141 1.391 . S
C1141 H1129 0.950 . S
C1141 C1137 1.393 . S
C1141 C1140 1.391 . S
C1142 H1132 0.950 . S
C1142 C1143 1.386 . S
C1142 C1144 1.391 . S
C1143 C1142 1.386 . S
C1143 C1147 1.393 . S
C1144 H1133 0.950 . S
C1144 C1142 1.391 . S
C1144 C1145 1.400 . S
C1145 C1139 1.491 1_545 S
C1145 C1144 1.400 . S
C1145 C1146 1.398 . S
C1146 H1134 0.950 1_545 S
C1146 C1145 1.398 . S
C1146 C1147 1.391 . S
C1147 H1135 0.950 . S
C1147 C1143 1.393 . S
C1147 C1146 1.391 . S
H1148 C1156 0.950 . S
H1149 C1161 0.950 . S
H1150 C1158 0.950 . S
H1151 C1160 0.950 . S
H1152 C1162 0.950 . S
H1153 C1164 0.950 . S
H1154 C1166 0.950 . S
H1155 C1167 0.950 . S
C1156 H1148 0.950 . S
C1156 C1157 1.386 . S
C1156 C1158 1.391 . S
C1157 C1156 1.386 . S
C1157 C1161 1.393 . S
C1158 H1150 0.950 . S
C1158 C1156 1.391 . S
C1158 C1159 1.400 . S
C1159 C1158 1.400 . S
C1159 C1160 1.398 . S
C1159 C1165 1.491 1_445 S
C1160 H1151 0.950 . S
C1160 C1159 1.398 . S
C1160 C1161 1.391 . S
C1161 H1149 0.950 . S
C1161 C1157 1.393 . S
C1161 C1160 1.391 . S
C1162 H1152 0.950 . S
C1162 C1163 1.386 . S
C1162 C1164 1.391 . S
C1163 C1162 1.386 . S
C1163 C1167 1.393 . S
C1164 H1153 0.950 . S
C1164 C1162 1.391 . S
C1164 C1165 1.400 . S
C1165 C1159 1.491 1_665 S
C1165 C1164 1.400 . S
C1165 C1166 1.398 . S
C1166 H1154 0.950 . S
C1166 C1165 1.398 . S
C1166 C1167 1.391 . S
C1167 H1155 0.950 . S
C1167 C1163 1.393 . S
C1167 C1166 1.391 . S
H1168 C1176 0.950 . S
H1169 C1181 0.950 . S
H1170 C1178 0.950 . S
H1171 C1180 0.950 . S
H1172 C1182 0.950 . S
H1173 C1184 0.950 . S
H1174 C1186 0.950 . S
H1175 C1187 0.950 . S
C1176 H1168 0.950 . S
C1176 C1177 1.386 . S
C1176 C1178 1.391 . S
C1177 C1176 1.386 . S
C1177 C1181 1.393 . S
C1178 H1170 0.950 . S
C1178 C1176 1.391 . S
C1178 C1179 1.400 . S
C1179 C1178 1.400 . S
C1179 C1180 1.398 . S
C1179 C1185 1.491 . S
C1180 H1171 0.950 . S
C1180 C1179 1.398 . S
C1180 C1181 1.391 . S
C1181 H1169 0.950 . S
C1181 C1177 1.393 . S
C1181 C1180 1.391 . S
C1182 H1172 0.950 . S
C1182 C1183 1.386 . S
C1182 C1184 1.391 . S
C1183 C1182 1.386 . S
C1183 C1187 1.393 . S
C1184 H1173 0.950 . S
C1184 C1182 1.391 . S
C1184 C1185 1.400 . S
C1185 C1179 1.491 . S
C1185 C1184 1.400 . S
C1185 C1186 1.398 . S
C1186 H1174 0.950 . S
C1186 C1185 1.398 . S
C1186 C1187 1.391 . S
C1187 H1175 0.950 . S
C1187 C1183 1.393 . S
C1187 C1186 1.391 . S
H1188 C1196 0.950 . S
H1189 C1201 0.950 . S
H1190 C1198 0.950 . S
H1191 C1200 0.950 . S
H1192 C1202 0.950 . S
H1193 C1204 0.950 . S
H1194 C1206 0.950 . S
H1195 C1207 0.950 . S
C1196 H1188 0.950 . S
C1196 C1197 1.386 . S
C1196 C1198 1.391 . S
C1197 C1196 1.386 . S
C1197 C1201 1.393 . S
C1198 H1190 0.950 . S
C1198 C1196 1.391 . S
C1198 C1199 1.400 . S
C1199 C1198 1.400 . S
C1199 C1200 1.398 . S
C1199 C1205 1.491 . S
C1200 H1191 0.950 . S
C1200 C1199 1.398 . S
C1200 C1201 1.391 . S
C1201 H1189 0.950 . S
C1201 C1197 1.393 . S
C1201 C1200 1.391 . S
C1202 H1192 0.950 . S
C1202 C1203 1.386 . S
C1202 C1204 1.391 . S
C1203 C1202 1.386 . S
C1203 C1207 1.393 . S
C1204 H1193 0.950 . S
C1204 C1202 1.391 . S
C1204 C1205 1.400 . S
C1205 C1199 1.491 . S
C1205 C1204 1.400 . S
C1205 C1206 1.398 . S
C1206 H1194 0.950 . S
C1206 C1205 1.398 . S
C1206 C1207 1.391 . S
C1207 H1195 0.950 . S
C1207 C1203 1.393 . S
C1207 C1206 1.391 . S
H1208 C1216 0.950 . S
H1209 C1221 0.950 . S
H1210 C1218 0.950 . S
H1211 C1220 0.950 . S
H1212 C1222 0.950 . S
H1213 C1224 0.950 . S
H1214 C1226 0.950 . S
H1215 C1227 0.950 . S
C1216 H1208 0.950 . S
C1216 C1217 1.386 . S
C1216 C1218 1.391 . S
C1217 C1216 1.386 . S
C1217 C1221 1.393 . S
C1218 H1210 0.950 . S
C1218 C1216 1.391 . S
C1218 C1219 1.400 . S
C1219 C1218 1.400 . S
C1219 C1220 1.398 . S
C1219 C1225 1.491 . S
C1220 H1211 0.950 . S
C1220 C1219 1.398 . S
C1220 C1221 1.391 . S
C1221 H1209 0.950 . S
C1221 C1217 1.393 . S
C1221 C1220 1.391 . S
C1222 H1212 0.950 . S
C1222 C1223 1.386 . S
C1222 C1224 1.391 . S
C1223 C1222 1.386 . S
C1223 C1227 1.393 . S
C1224 H1213 0.950 . S
C1224 C1222 1.391 . S
C1224 C1225 1.400 . S
C1225 C1219 1.491 . S
C1225 C1224 1.400 . S
C1225 C1226 1.398 . S
C1226 H1214 0.950 . S
C1226 C1225 1.398 . S
C1226 C1227 1.391 . S
C1227 H1215 0.950 . S
C1227 C1223 1.393 . S
C1227 C1226 1.391 . S
H1228 C1236 0.950 . S
H1229 C1241 0.950 . S
H1230 C1238 0.950 . S
H1231 C1240 0.950 . S
H1232 C1242 0.950 . S
H1233 C1244 0.950 . S
H1234 C1246 0.950 . S
H1235 C1247 0.950 . S
C1236 H1228 0.950 . S
C1236 C1237 1.386 . S
C1236 C1238 1.391 . S
C1237 C1236 1.386 . S
C1237 C1241 1.393 . S
C1238 H1230 0.950 . S
C1238 C1236 1.391 . S
C1238 C1239 1.400 . S
C1239 C1238 1.400 . S
C1239 C1240 1.398 . S
C1239 C1245 1.491 . S
C1240 H1231 0.950 . S
C1240 C1239 1.398 . S
C1240 C1241 1.391 . S
C1241 H1229 0.950 . S
C1241 C1237 1.393 . S
C1241 C1240 1.391 . S
C1242 H1232 0.950 . S
C1242 C1243 1.386 . S
C1242 C1244 1.391 . S
C1243 C1242 1.386 . S
C1243 C1247 1.393 . S
C1244 H1233 0.950 . S
C1244 C1242 1.391 . S
C1244 C1245 1.400 . S
C1245 C1239 1.491 . S
C1245 C1244 1.400 . S
C1245 C1246 1.398 . S
C1246 H1234 0.950 . S
C1246 C1245 1.398 . S
C1246 C1247 1.391 . S
C1247 H1235 0.950 . S
C1247 C1243 1.393 . S
C1247 C1246 1.391 . S
H1248 C1256 0.950 . S
H1249 C1261 0.950 . S
H1250 C1258 0.950 . S
H1251 C1260 0.950 . S
H1252 C1262 0.950 . S
H1253 C1264 0.950 . S
H1254 C1266 0.950 . S
H1255 C1267 0.950 . S
C1256 H1248 0.950 . S
C1256 C1257 1.386 . S
C1256 C1258 1.391 . S
C1257 C1256 1.386 . S
C1257 C1261 1.393 . S
C1258 H1250 0.950 . S
C1258 C1256 1.391 . S
C1258 C1259 1.400 . S
C1259 C1258 1.400 . S
C1259 C1260 1.398 . S
C1259 C1265 1.491 . S
C1260 H1251 0.950 . S
C1260 C1259 1.398 . S
C1260 C1261 1.391 . S
C1261 H1249 0.950 . S
C1261 C1257 1.393 . S
C1261 C1260 1.391 . S
C1262 H1252 0.950 . S
C1262 C1263 1.386 . S
C1262 C1264 1.391 . S
C1263 C1262 1.386 . S
C1263 C1267 1.393 . S
C1264 H1253 0.950 . S
C1264 C1262 1.391 . S
C1264 C1265 1.400 . S
C1265 C1259 1.491 . S
C1265 C1264 1.400 . S
C1265 C1266 1.398 . S
C1266 H1254 0.950 . S
C1266 C1265 1.398 . S
C1266 C1267 1.391 . S
C1267 H1255 0.950 . S
C1267 C1263 1.393 . S
C1267 C1266 1.391 . S
H1268 C1276 0.950 . S
H1269 C1281 0.950 . S
H1270 C1278 0.950 . S
H1271 C1280 0.950 . S
H1272 C1282 0.950 . S
H1273 C1284 0.950 . S
H1274 C1286 0.950 . S
H1275 C1287 0.950 . S
C1276 H1268 0.950 . S
C1276 C1277 1.386 . S
C1276 C1278 1.391 . S
C1277 C1276 1.386 . S
C1277 C1281 1.393 . S
C1278 H1270 0.950 . S
C1278 C1276 1.391 . S
C1278 C1279 1.400 . S
C1279 C1278 1.400 . S
C1279 C1280 1.398 . S
C1279 C1285 1.491 . S
C1280 H1271 0.950 . S
C1280 C1279 1.398 . S
C1280 C1281 1.391 . S
C1281 H1269 0.950 . S
C1281 C1277 1.393 . S
C1281 C1280 1.391 . S
C1282 H1272 0.950 . S
C1282 C1283 1.386 . S
C1282 C1284 1.391 . S
C1283 C1282 1.386 . S
C1283 C1287 1.393 . S
C1284 H1273 0.950 . S
C1284 C1282 1.391 . S
C1284 C1285 1.400 . S
C1285 C1279 1.491 . S
C1285 C1284 1.400 . S
C1285 C1286 1.398 . S
C1286 H1274 0.950 . S
C1286 C1285 1.398 . S
C1286 C1287 1.391 . S
C1287 H1275 0.950 . S
C1287 C1283 1.393 . S
C1287 C1286 1.391 . S
H1288 C1296 0.950 . S
H1289 C1301 0.950 . S
H1290 C1298 0.950 . S
H1291 C1300 0.950 . S
H1292 C1302 0.950 . S
H1293 C1304 0.950 . S
H1294 C1306 0.950 . S
H1295 C1307 0.950 . S
C1296 H1288 0.950 . S
C1296 C1297 1.386 . S
C1296 C1298 1.391 . S
C1297 C1296 1.386 . S
C1297 C1301 1.393 . S
C1298 H1290 0.950 . S
C1298 C1296 1.391 . S
C1298 C1299 1.400 . S
C1299 C1298 1.400 . S
C1299 C1300 1.398 . S
C1299 C1305 1.491 . S
C1300 H1291 0.950 . S
C1300 C1299 1.398 . S
C1300 C1301 1.391 . S
C1301 H1289 0.950 . S
C1301 C1297 1.393 . S
C1301 C1300 1.391 . S
C1302 H1292 0.950 . S
C1302 C1303 1.386 . S
C1302 C1304 1.391 . S
C1303 C1302 1.386 . S
C1303 C1307 1.393 . S
C1304 H1293 0.950 . S
C1304 C1302 1.391 . S
C1304 C1305 1.400 . S
C1305 C1299 1.491 . S
C1305 C1304 1.400 . S
C1305 C1306 1.398 . S
C1306 H1294 0.950 . S
C1306 C1305 1.398 . S
C1306 C1307 1.391 . S
C1307 H1295 0.950 . S
C1307 C1303 1.393 . S
C1307 C1306 1.391 . S
H1308 C1316 0.950 . S
H1309 C1321 0.950 . S
H1310 C1318 0.950 . S
H1311 C1320 0.950 . S
H1312 C1322 0.950 . S
H1313 C1324 0.950 . S
H1314 C1326 0.950 . S
H1315 C1327 0.950 . S
C1316 H1308 0.950 . S
C1316 C1317 1.386 . S
C1316 C1318 1.391 . S
C1317 C1316 1.386 . S
C1317 C1321 1.393 . S
C1318 H1310 0.950 . S
C1318 C1316 1.391 . S
C1318 C1319 1.400 . S
C1319 C1318 1.400 . S
C1319 C1320 1.398 . S
C1319 C1325 1.491 . S
C1320 H1311 0.950 . S
C1320 C1319 1.398 . S
C1320 C1321 1.391 . S
C1321 H1309 0.950 . S
C1321 C1317 1.393 . S
C1321 C1320 1.391 . S
C1322 H1312 0.950 . S
C1322 C1323 1.386 . S
C1322 C1324 1.391 . S
C1323 C1322 1.386 . S
C1323 C1327 1.393 . S
C1324 H1313 0.950 . S
C1324 C1322 1.391 . S
C1324 C1325 1.400 . S
C1325 C1319 1.491 . S
C1325 C1324 1.400 . S
C1325 C1326 1.398 . S
C1326 H1314 0.950 . S
C1326 C1325 1.398 . S
C1326 C1327 1.391 . S
C1327 H1315 0.950 . S
C1327 C1323 1.393 . S
C1327 C1326 1.391 . S
C537 N14 0.564 . S
C543 N443 0.564 . S
C557 N476 0.487 . S
C563 N47 0.487 . S
C577 N509 0.548 . S
C583 N80 0.549 . S
C597 N410 0.572 . S
C603 N113 0.572 . S
C617 N377 0.569 . S
C623 N146 0.569 . S
C637 N278 0.561 . S
C643 N179 0.561 . S
C657 N212 0.565 . S
C663 N311 0.565 . S
C677 N344 0.500 . S
C683 N245 0.499 . S
C697 C305 2.135 . S
C703 N5 2.221 . S
C717 N38 2.211 . S
C723 C338 2.130 . S
C737 N71 2.220 . S
C743 C371 2.121 . S
C757 N104 2.223 1_556 S
C763 C272 2.122 . S
C777 N137 2.218 1_554 S
C783 C503 2.139 . S
C797 C404 2.134 . S
C803 N170 2.210 . S
C817 C437 2.143 . S
C823 N203 2.209 . S
C837 C470 2.136 . S
C843 N236 2.220 . S
C857 N269 2.214 . S
C863 C41 2.143 . S
C877 N302 2.213 1_556 S
C883 C74 2.126 . S
C897 N335 2.221 . S
C903 C107 2.133 . S
C917 C8 2.122 . S
C923 N368 2.217 . S
C937 N401 2.210 . S
C943 C239 2.144 . S
C957 C140 2.138 . S
C963 N434 2.219 . S
C977 N467 2.214 1_554 S
C983 C173 2.144 . S
C997 N500 2.223 . S
C1003 C206 2.125 . S
C1017 C17 1.441 . S
C1023 C347 1.435 . S
C1037 C380 1.436 . S
C1043 C50 1.445 . S
C1057 C83 1.436 . S
C1063 C281 1.444 . S
C1077 C314 1.437 . S
C1083 C116 1.445 . S
C1097 C149 1.446 . S
C1103 C479 1.437 . S
C1117 C512 1.443 . S
C1123 C182 1.446 . S
C1137 C413 1.443 . S
C1143 C215 1.435 . S
C1157 C446 1.446 . S
C1163 C248 1.443 . S
C1177 C226 0.553 . S
C1183 C28 0.536 . S
C1197 C61 0.467 . S
C1203 C259 0.502 . S
C1217 C160 0.505 . S
C1223 C94 0.469 . S
C1237 C127 0.538 . S
C1243 C193 0.501 . S
C1257 C292 0.544 . S
C1263 C490 0.551 . S
C1277 C325 0.548 . S
C1283 C523 0.517 . S
C1297 C358 0.464 . S
C1303 C424 0.464 . S
C1317 C457 0.549 . S
C1323 C391 0.548 . S
