# Generated by pormake.
# Topology vme, (6)-cn, num edge types: 1
# Building blocks:
#     Node 0, Type 0, BuildingBlock: IZENUY_clean_sbu_0, # of connection points: 6
#     Node 1, Type 0, BuildingBlock: IZENUY_clean_sbu_0, # of connection points: 6
#     Node 2, Type 0, BuildingBlock: IZENUY_clean_sbu_0, # of connection points: 6
#     Node 3, Type 0, BuildingBlock: IZENUY_clean_sbu_0, # of connection points: 6
#     Edge 4, Type (0, 0), BuildingBlock: TEMPAE_clean_linker_10, # of connection points: 2
#     Edge 5, Type (0, 0), BuildingBlock: TEMPAE_clean_linker_10, # of connection points: 2
#     Edge 6, Type (0, 0), BuildingBlock: TEMPAE_clean_linker_10, # of connection points: 2
#     Edge 7, Type (0, 0), BuildingBlock: TEMPAE_clean_linker_10, # of connection points: 2
#     Edge 8, Type (0, 0), BuildingBlock: TEMPAE_clean_linker_10, # of connection points: 2
#     Edge 9, Type (0, 0), BuildingBlock: TEMPAE_clean_linker_10, # of connection points: 2
#     Edge 10, Type (0, 0), BuildingBlock: TEMPAE_clean_linker_10, # of connection points: 2
#     Edge 11, Type (0, 0), BuildingBlock: TEMPAE_clean_linker_10, # of connection points: 2
#     Edge 12, Type (0, 0), BuildingBlock: TEMPAE_clean_linker_10, # of connection points: 2
#     Edge 13, Type (0, 0), BuildingBlock: TEMPAE_clean_linker_10, # of connection points: 2
#     Edge 14, Type (0, 0), BuildingBlock: TEMPAE_clean_linker_10, # of connection points: 2
#     Edge 15, Type (0, 0), BuildingBlock: TEMPAE_clean_linker_10, # of connection points: 2
# Relax obj value: 0.240
# Max RMSD: 0.243
# Mean RMSD: 0.243
data_MOF--net-vme--node1-IZENUY_clean_sbu_0--edge1-TEMPAE_clean_linker_10
_symmetry_space_group_name_H-M    P1
_symmetry_Int_Tables_number       1
_symmetry_cell_setting            triclinic
loop_
_symmetry_equiv_pos_as_xyz
'x, y, z'
_cell_length_a     26.095698
_cell_length_b     25.887726
_cell_length_c     28.401581
_cell_angle_alpha  89.957041
_cell_angle_beta   116.83005
_cell_angle_gamma 89.987912
loop_
_atom_site_label
_atom_site_type_symbol
_atom_site_fract_x
_atom_site_fract_y
_atom_site_fract_z
_atom_type_partial_charge
Fe0 Fe 0.13442 0.39089 0.33293 0.0
Fe1 Fe 0.2439 0.32898 0.39751 0.0
O2 O 0.19942 0.38258 0.39089 0.0
Fe3 Fe 0.21866 0.42759 0.44253 0.0
O4 O 0.15504 0.41263 0.44916 0.0
O5 O 0.09616 0.42428 0.36599 0.0
O6 O 0.10683 0.33124 0.34438 0.0
C7 C 0.1299 0.28791 0.34712 0.0
C8 C 0.16748 0.48991 0.3487 0.0
O9 O 0.18297 0.28474 0.35824 0.0
C10 C 0.32255 0.41256 0.4453 0.0
O11 O 0.16035 0.35919 0.28907 0.0
O12 O 0.25233 0.34825 0.34042 0.0
O13 O 0.18419 0.48326 0.39791 0.0
O14 O 0.15927 0.45132 0.31916 0.0
C15 C 0.24803 0.33179 0.49535 0.0
O16 O 0.31209 0.3643 0.43812 0.0
O17 O 0.28355 0.44427 0.4392 0.0
C18 C 0.21091 0.35097 0.2949 0.0
O19 O 0.23747 0.30612 0.45446 0.0
O20 O 0.25551 0.38026 0.49603 0.0
C21 C 0.10589 0.42367 0.414 0.0
Fe22 Fe 0.78372 0.82851 0.13001 0.0
Fe23 Fe 0.80712 0.92846 0.08621 0.0
O24 O 0.82781 0.88249 0.1371 0.0
Fe25 Fe 0.89322 0.89031 0.19459 0.0
O26 O 0.92049 0.83097 0.18212 0.0
O27 O 0.8448 0.78419 0.16869 0.0
O28 O 0.79012 0.80704 0.07279 0.0
C29 C 0.77819 0.83352 0.03208 0.0
C30 C 0.81731 0.84914 0.23291 0.0
O31 O 0.76923 0.88175 0.03216 0.0
C32 C 0.8605 0.98954 0.18045 0.0
O33 O 0.71521 0.8638 0.08994 0.0
O34 O 0.74358 0.94428 0.09256 0.0
O35 O 0.8678 0.85791 0.23862 0.0
O36 O 0.77568 0.84669 0.18747 0.0
C37 C 0.9193 0.92485 0.11231 0.0
O38 O 0.84256 0.98351 0.13105 0.0
O39 O 0.86908 0.95057 0.20964 0.0
C40 C 0.70506 0.9122 0.08681 0.0
O41 O 0.86968 0.91437 0.0776 0.0
O42 O 0.93045 0.92419 0.16075 0.0
C43 C 0.89776 0.78755 0.1796 0.0
Fe44 Fe 0.80429 0.58646 0.58267 0.0
Fe45 Fe 0.8928 0.6316 0.68622 0.0
O46 O 0.82421 0.63379 0.63223 0.0
Fe47 Fe 0.77582 0.68366 0.62707 0.0
O48 O 0.77512 0.70633 0.56698 0.0
O49 O 0.7579 0.63043 0.52879 0.0
O50 O 0.8605 0.60601 0.56706 0.0
C51 C 0.91278 0.60424 0.59895 0.0
C52 C 0.70526 0.59389 0.59054 0.0
O53 O 0.92871 0.60322 0.64841 0.0
C54 C 0.8196 0.66425 0.73134 0.0
O55 O 0.84921 0.53434 0.6276 0.0
O56 O 0.87843 0.56933 0.70555 0.0
O57 O 0.71054 0.64293 0.59141 0.0
O58 O 0.74636 0.56511 0.59575 0.0
C59 C 0.88489 0.73442 0.66974 0.0
O60 O 0.86915 0.66003 0.73327 0.0
O61 O 0.77518 0.66375 0.68759 0.0
C62 C 0.87195 0.52996 0.6776 0.0
O63 O 0.91044 0.69345 0.66937 0.0
O64 O 0.83283 0.73293 0.66196 0.0
C65 C 0.76336 0.67907 0.52678 0.0
Fe66 Fe 0.25107 0.18247 0.9 0.0
Fe67 Fe 0.22023 0.08743 0.946 0.0
O68 O 0.20189 0.13358 0.89542 0.0
Fe69 Fe 0.13354 0.13134 0.84095 0.0
O70 O 0.1161 0.19377 0.85656 0.0
O71 O 0.19459 0.23218 0.86449 0.0
O72 O 0.25209 0.20674 0.95986 0.0
C73 C 0.2626 0.18033 1.0004 0.0
C74 C 0.20744 0.16173 0.79598 0.0
O75 O 0.2667 0.13154 0.99924 0.0
C76 C 0.15394 0.02968 0.85173 0.0
O77 O 0.3157 0.1409 0.93616 0.0
O78 O 0.27878 0.06413 0.9352 0.0
O79 O 0.15781 0.15849 0.79393 0.0
O80 O 0.25169 0.16126 0.83983 0.0
C81 C 0.11144 0.10672 0.92749 0.0
O82 O 0.17532 0.03505 0.90158 0.0
O83 O 0.14796 0.06845 0.82306 0.0
C84 C 0.32066 0.09183 0.94053 0.0
O85 O 0.16345 0.10913 0.9599 0.0
O86 O 0.09657 0.10421 0.87832 0.0
C87 C 0.14249 0.23436 0.85668 0.0
C88 C 0.91925 0.04188 0.26108 0.0
C89 C 0.89061 0.03814 0.20578 0.0
C90 C 0.95841 0.08188 0.28624 0.0
C91 C 0.96885 0.11952 0.25547 0.0
C92 C 0.93799 0.11758 0.19971 0.0
C93 C 0.89913 0.07704 0.17555 0.0
C94 C 0.99034 0.08264 0.34577 0.0
C95 C 0.94745 0.15734 0.16548 0.0
C96 C 0.03376 0.24751 0.31929 0.0
C97 C 0.09114 0.24245 0.32831 0.0
C98 C 0.99383 0.20778 0.29595 0.0
C99 C 1.01156 0.16131 0.28169 0.0
C100 C 0.06977 0.15505 0.29218 0.0
C101 C 0.10895 0.19578 0.31535 0.0
C102 C 0.93223 0.21613 0.28533 0.0
C103 C 0.09033 0.10573 0.27793 0.0
H104 H 0.91304 0.01217 0.28493 0.0
H105 H 0.87734 0.07467 0.13288 0.0
H106 H 0.03708 0.07826 0.35866 0.0
H107 H 0.984 0.12027 0.36105 0.0
H108 H 0.97621 0.05131 0.36402 0.0
H109 H 0.91855 0.15146 0.12284 0.0
H110 H 0.94032 0.19674 0.17674 0.0
H111 H 0.99255 0.15548 0.17169 0.0
H112 H 0.01947 0.28322 0.32947 0.0
H113 H 0.15303 0.19154 0.32201 0.0
H114 H 0.9188 0.18546 0.30473 0.0
H115 H 0.9036 0.21356 0.24232 0.0
H116 H 0.92559 0.25428 0.29963 0.0
H117 H 0.07988 0.07217 0.29636 0.0
H118 H 0.13734 0.10604 0.29076 0.0
H119 H 0.06779 0.09993 0.23458 0.0
C120 C 0.1093 0.54242 0.26803 0.0
C121 C 0.13807 0.53881 0.32336 0.0
C122 C 0.07027 0.58249 0.24276 0.0
C123 C 0.06028 0.62049 0.27341 0.0
C124 C 0.09157 0.6189 0.32916 0.0
C125 C 0.13018 0.57815 0.35347 0.0
C126 C 0.03783 0.58282 0.18324 0.0
C127 C 0.08271 0.65918 0.36323 0.0
C128 C 0.99409 0.74751 0.20749 0.0
C129 C 0.93688 0.74236 0.19889 0.0
C130 C 0.03446 0.70821 0.23156 0.0
C131 C 0.01731 0.66207 0.24699 0.0
C132 C 0.95927 0.65571 0.23699 0.0
C133 C 0.91967 0.69602 0.21307 0.0
C134 C 0.09587 0.71663 0.24164 0.0
C135 C 0.93934 0.60672 0.25247 0.0
H136 H 0.11509 0.51244 0.24423 0.0
H137 H 0.15227 0.576 0.39614 0.0
H138 H 0.99118 0.57842 0.17078 0.0
H139 H 0.04385 0.6203 0.16744 0.0
H140 H 0.05178 0.5513 0.16508 0.0
H141 H 0.1125 0.65397 0.40578 0.0
H142 H 0.08897 0.69842 0.35097 0.0
H143 H 0.03799 0.65711 0.35803 0.0
H144 H 1.00791 0.78299 0.1964 0.0
H145 H 0.87572 0.69175 0.20681 0.0
H146 H 0.10922 0.68577 0.22241 0.0
H147 H 0.12482 0.71444 0.28462 0.0
H148 H 0.10212 0.75463 0.22678 0.0
H149 H 0.94957 0.57283 0.23433 0.0
H150 H 0.89244 0.60701 0.24021 0.0
H151 H 0.96246 0.60152 0.29589 0.0
C152 C 0.10952 0.94423 0.85455 0.0
C153 C 0.11986 0.98311 0.82546 0.0
C154 C 0.06967 0.90462 0.82898 0.0
C155 C 0.039 0.90435 0.77313 0.0
C156 C 0.04997 0.94293 0.74364 0.0
C157 C 0.09069 0.9813 0.77004 0.0
C158 C 0.05998 0.86335 0.86169 0.0
C159 C 0.01789 0.9443 0.68408 0.0
C160 C 0.97925 0.77879 0.70126 0.0
C161 C 0.92129 0.781 0.69108 0.0
C162 C 0.01784 0.8182 0.7286 0.0
C163 C 0.99799 0.86202 0.74506 0.0
C164 C 0.93916 0.8658 0.73323 0.0
C165 C 0.90145 0.82496 0.70667 0.0
C166 C 0.08028 0.81229 0.74089 0.0
C167 C 0.91631 0.91267 0.74918 0.0
H168 H 0.13138 0.94547 0.89729 0.0
H169 H 0.09817 0.01107 0.747 0.0
H170 H 0.0146 0.86407 0.8547 0.0
H171 H 0.06812 0.82465 0.84966 0.0
H172 H 0.08815 0.8684 0.9046 0.0
H173 H 0.0296 0.97833 0.66712 0.0
H174 H 0.02708 0.90881 0.66739 0.0
H175 H 0.97092 0.94524 0.6712 0.0
H176 H 0.99527 0.74524 0.68922 0.0
H177 H 0.85694 0.82696 0.69921 0.0
H178 H 0.10778 0.81488 0.78412 0.0
H179 H 0.09324 0.84408 0.72232 0.0
H180 H 0.0891 0.77493 0.72672 0.0
H181 H 0.93792 0.91669 0.79275 0.0
H182 H 0.86921 0.91049 0.73553 0.0
H183 H 0.92598 0.94809 0.73262 0.0
C184 C 0.91403 0.44308 0.67522 0.0
C185 C 0.9069 0.48381 0.70429 0.0
C186 C 0.95424 0.40356 0.70046 0.0
C187 C 0.98864 0.40529 0.75589 0.0
C188 C 0.98104 0.44584 0.78543 0.0
C189 C 0.93986 0.48406 0.75946 0.0
C190 C 0.96022 0.36015 0.66782 0.0
C191 C 0.01715 0.4494 0.84451 0.0
C192 C 0.05043 0.28126 0.83058 0.0
C193 C 0.10693 0.28162 0.8365 0.0
C194 C 1.01166 0.32084 0.80393 0.0
C195 C 0.02996 0.363 0.78376 0.0
C196 C 0.08759 0.36508 0.79148 0.0
C197 C 0.12544 0.32407 0.81752 0.0
C198 C 0.95054 0.31677 0.79619 0.0
C199 C 0.10887 0.41017 0.7715 0.0
H200 H 0.88921 0.44267 0.63264 0.0
H201 H 0.93498 0.51529 0.78252 0.0
H202 H 1.00457 0.35934 0.67198 0.0
H203 H 0.95264 0.32251 0.68234 0.0
H204 H 0.92969 0.36398 0.6253 0.0
H205 H 1.0078 0.48479 0.86136 0.0
H206 H 1.00937 0.41526 0.86401 0.0
H207 H 0.06342 0.44928 0.85432 0.0
H208 H 0.0356 0.24891 0.84543 0.0
H209 H 0.16881 0.32461 0.82166 0.0
H210 H 0.9203 0.31791 0.75347 0.0
H211 H 0.94022 0.35013 0.81489 0.0
H212 H 0.94283 0.28067 0.81319 0.0
H213 H 0.08458 0.41252 0.72789 0.0
H214 H 0.15537 0.40703 0.7825 0.0
H215 H 0.10127 0.44682 0.78762 0.0
C216 C 0.93636 0.6052 0.524 0.0
C217 C 0.95131 0.58985 0.57602 0.0
C218 C 0.9606 0.58131 0.49466 0.0
C219 C 1.00136 0.54152 0.51819 0.0
C220 C 0.01982 0.52845 0.57197 0.0
C221 C 0.99438 0.55283 0.60039 0.0
C222 C 0.93988 0.59652 0.43756 0.0
C223 C 0.06426 0.48692 0.59863 0.0
C224 C 0.02207 0.43901 0.43236 0.0
C225 C 0.07227 0.45663 0.43165 0.0
C226 C 0.99738 0.46712 0.45939 0.0
C227 C 0.02416 0.51324 0.48629 0.0
C228 C 0.07354 0.53199 0.48356 0.0
C229 C 0.09699 0.50334 0.45636 0.0
C230 C 0.94397 0.44662 0.46079 0.0
C231 C 0.10322 0.581 0.51137 0.0
H232 H 0.90296 0.63394 0.50514 0.0
H233 H 1.00541 0.54047 0.64032 0.0
H234 H 0.97669 0.60398 0.42899 0.0
H235 H 0.91475 0.56429 0.41174 0.0
H236 H 0.91226 0.6315 0.42694 0.0
H237 H 0.07667 0.48381 0.64145 0.0
H238 H 0.04711 0.44905 0.57987 0.0
H239 H 0.10331 0.49491 0.59366 0.0
H240 H 1.00371 0.40244 0.41387 0.0
H241 H 0.13654 0.51632 0.45655 0.0
H242 H 0.91026 0.47693 0.4476 0.0
H243 H 0.95374 0.43618 0.50188 0.0
H244 H 0.92659 0.41201 0.4354 0.0
H245 H 0.07229 0.61358 0.49949 0.0
H246 H 0.13936 0.59168 0.50273 0.0
H247 H 0.1202 0.57596 0.55463 0.0
C248 C 0.92579 1.00364 0.06738 0.0
C249 C 0.9523 0.95826 0.09435 0.0
C250 C 0.94929 0.03256 0.04042 0.0
C251 C 1.00061 0.01551 0.04032 0.0
C252 C 0.02923 0.97099 0.06969 0.0
C253 C 1.00448 0.94257 0.09649 0.0
C254 C 0.91769 0.07991 1.01001 0.0
C255 C 0.08469 0.95239 0.07107 0.0
C256 C 0.03171 0.05317 0.92655 0.0
C257 C 0.07249 0.09219 0.94985 0.0
C258 C 1.00675 0.02858 0.95525 0.0
C259 C 0.02323 0.04361 1.00818 0.0
C260 C 0.06153 0.08531 0.0305 0.0
C261 C 0.08549 0.10926 1.00092 0.0
C262 C 0.9651 0.98479 0.9299 0.0
C263 C 0.07996 0.10266 0.08664 0.0
H264 H 0.885 0.01535 0.06545 0.0
H265 H 0.02439 0.90714 0.11694 0.0
H266 H 0.94692 0.11369 0.02112 0.0
H267 H 0.90223 0.07326 0.96715 0.0
H268 H 0.88022 0.08967 0.01702 0.0
H269 H 0.1033 0.91915 0.09829 0.0
H270 H 0.07701 0.94048 0.03089 0.0
H271 H 0.11661 0.98419 0.0836 0.0
H272 H 0.02236 0.03944 0.88743 0.0
H273 H 0.11727 0.13944 0.01896 0.0
H274 H 0.92485 0.99165 0.93318 0.0
H275 H 0.98395 0.94816 0.9509 0.0
H276 H 0.95429 0.97987 0.88758 0.0
H277 H 0.10613 0.13851 0.09634 0.0
H278 H 0.10586 0.07177 0.11424 0.0
H279 H 0.04203 0.10957 0.09368 0.0
C280 C 0.26425 0.26083 0.04956 0.0
C281 C 0.26425 0.20662 0.04745 0.0
C282 C 0.25703 0.2869 0.08943 0.0
C283 C 0.24965 0.25816 0.12829 0.0
C284 C 0.25125 0.20345 0.12737 0.0
C285 C 0.25868 0.17831 0.08702 0.0
C286 C 0.25553 0.34524 0.08898 0.0
C287 C 0.24374 0.17147 0.16831 0.0
C288 C 0.27657 0.32339 0.2571 0.0
C289 C 0.22047 0.33301 0.24983 0.0
C290 C 0.28667 0.29965 0.21769 0.0
C291 C 0.23958 0.28538 0.16956 0.0
C292 C 0.1829 0.29662 0.16108 0.0
C293 C 0.174 0.32036 0.20131 0.0
C294 C 0.34772 0.2885 0.22818 0.0
C295 C 0.1316 0.28227 0.11005 0.0
H296 H 0.26835 0.2831 0.01909 0.0
H297 H 0.25797 0.13647 0.08541 0.0
H298 H 0.21285 0.35878 0.08352 0.0
H299 H 0.28795 0.36058 0.12737 0.0
H300 H 0.2639 0.36189 0.05705 0.0
H301 H 0.245 0.12933 0.16153 0.0
H302 H 0.27811 0.18092 0.20819 0.0
H303 H 0.20213 0.18083 0.16806 0.0
H304 H 0.31285 0.33317 0.29433 0.0
H305 H 0.13054 0.32743 0.19532 0.0
H306 H 0.35646 0.30589 0.19683 0.0
H307 H 0.35401 0.24619 0.22732 0.0
H308 H 0.37965 0.30363 0.26699 0.0
H309 H 0.13547 0.29986 0.07616 0.0
H310 H 0.09045 0.29503 0.10901 0.0
H311 H 0.13011 0.23977 0.10459 0.0
C312 C 0.85433 0.81593 0.32572 0.0
C313 C 0.80792 0.8302 0.27776 0.0
C314 C 0.8452 0.7914 0.3655 0.0
C315 C 0.78837 0.78098 0.3571 0.0
C316 C 0.74142 0.79657 0.30944 0.0
C317 C 0.75173 0.82112 0.27053 0.0
C318 C 0.89636 0.77563 0.41608 0.0
C319 C 0.68023 0.78632 0.29904 0.0
C320 C 0.76683 0.67531 0.43989 0.0
C321 C 0.76191 0.70435 0.47932 0.0
C322 C 0.7749 0.69972 0.39946 0.0
C323 C 0.77791 0.75438 0.39845 0.0
C324 C 0.77118 0.78383 0.43719 0.0
C325 C 0.76312 0.75853 0.47696 0.0
C326 C 0.7812 0.66705 0.35838 0.0
C327 C 0.77428 0.84213 0.43762 0.0
H328 H 0.89784 0.82246 0.3316 0.0
H329 H 0.7155 0.83211 0.23371 0.0
H330 H 0.89353 0.79349 0.45033 0.0
H331 H 0.8964 0.73313 0.42116 0.0
H332 H 0.93772 0.7871 0.4168 0.0
H333 H 0.64847 0.80146 0.26012 0.0
H334 H 0.67336 0.74415 0.30026 0.0
H335 H 0.67176 0.80436 0.33026 0.0
H336 H 0.76653 0.63349 0.44169 0.0
H337 H 0.75944 0.78139 0.50726 0.0
H338 H 0.82157 0.67692 0.35643 0.0
H339 H 0.74523 0.67528 0.31896 0.0
H340 H 0.78144 0.62505 0.36655 0.0
H341 H 0.81715 0.85454 0.44264 0.0
H342 H 0.76684 0.8594 0.46981 0.0
H343 H 0.74195 0.85792 0.39939 0.0
C344 C 0.77515 0.83596 0.94231 0.0
C345 C 0.77751 0.80748 0.98527 0.0
C346 C 0.78137 0.81144 0.90098 0.0
C347 C 0.79022 0.75728 0.90279 0.0
C348 C 0.79129 0.72827 0.9454 0.0
C349 C 0.78478 0.75364 0.98593 0.0
C350 C 0.77969 0.84359 0.85594 0.0
C351 C 0.80064 0.67051 0.94884 0.0
C352 C 0.75857 0.68672 0.77548 0.0
C353 C 0.81347 0.68228 0.77814 0.0
C354 C 0.75048 0.71081 0.81583 0.0
C355 C 0.79846 0.73073 0.86022 0.0
C356 C 0.85425 0.72483 0.86415 0.0
C357 C 0.86112 0.70063 0.82307 0.0
C358 C 0.69036 0.71609 0.81029 0.0
C359 C 0.90653 0.74521 0.91118 0.0
H360 H 0.77 0.87754 0.94164 0.0
H361 H 0.78673 0.73114 0.0189 0.0
H362 H 0.82144 0.8407 0.85461 0.0
H363 H 0.7462 0.82863 0.81785 0.0
H364 H 0.77071 0.88496 0.85954 0.0
H365 H 0.79934 0.65346 0.98419 0.0
H366 H 0.76736 0.65149 0.91315 0.0
H367 H 0.84292 0.66152 0.95033 0.0
H368 H 0.72145 0.67256 0.74103 0.0
H369 H 0.90363 0.69769 0.8254 0.0
H370 H 0.6794 0.75757 0.80979 0.0
H371 H 0.68776 0.69822 0.84466 0.0
H372 H 0.6577 0.69772 0.77369 0.0
H373 H 0.90309 0.78773 0.91377 0.0
H374 H 0.94703 0.73623 0.90898 0.0
H375 H 0.909 0.72844 0.94811 0.0
C376 C 0.16614 0.19607 0.70347 0.0
C377 C 0.21381 0.17861 0.74895 0.0
C378 C 0.17304 0.21955 0.66206 0.0
C379 C 0.22888 0.22558 0.6662 0.0
C380 C 0.27689 0.20621 0.71101 0.0
C381 C 0.26878 0.18288 0.75173 0.0
C382 C 0.12072 0.23939 0.61464 0.0
C383 C 0.33707 0.21164 0.71676 0.0
C384 C 0.24233 0.25071 0.5406 0.0
C385 C 0.24891 0.30466 0.54175 0.0
C386 C 0.23641 0.2245 0.58107 0.0
C387 C 0.23719 0.25276 0.62396 0.0
C388 C 0.24531 0.30701 0.62619 0.0
C389 C 0.25109 0.33234 0.58504 0.0
C390 C 0.22787 0.16665 0.57724 0.0
C391 C 0.24658 0.33843 0.67148 0.0
H392 H 0.12355 0.19316 0.70097 0.0
H393 H 0.30592 0.16934 0.78659 0.0
H394 H 0.12339 0.282 0.61211 0.0
H395 H 0.11907 0.223 0.5779 0.0
H396 H 0.08014 0.22962 0.61635 0.0
H397 H 0.36959 0.19271 0.75311 0.0
H398 H 0.33977 0.19449 0.68216 0.0
H399 H 0.34814 0.25316 0.71799 0.0
H400 H 0.2405 0.22885 0.50735 0.0
H401 H 0.25576 0.37399 0.58613 0.0
H402 H 0.18547 0.15701 0.57516 0.0
H403 H 0.26105 0.14763 0.61304 0.0
H404 H 0.22995 0.15017 0.54204 0.0
H405 H 0.20483 0.33491 0.67272 0.0
H406 H 0.2551 0.38 0.66822 0.0
H407 H 0.2802 0.32336 0.70947 0.0
C408 C 0.39828 0.46569 0.51398 0.0
C409 C 0.38191 0.43261 0.47048 0.0
C410 C 0.45137 0.49114 0.5355 0.0
C411 C 0.48873 0.48437 0.51222 0.0
C412 C 0.47294 0.45013 0.46881 0.0
C413 C 0.41977 0.42411 0.44872 0.0
C414 C 0.46695 0.52606 0.58259 0.0
C415 C 0.51132 0.44239 0.44252 0.0
C416 C 0.59818 0.59156 0.53618 0.0
C417 C 0.64872 0.5689 0.57419 0.0
C418 C 0.54591 0.56421 0.51507 0.0
C419 C 0.54401 0.51354 0.53335 0.0
C420 C 0.59463 0.49135 0.5731 0.0
C421 C 0.64638 0.51903 0.59254 0.0
C422 C 0.493 0.58901 0.47232 0.0
C423 C 0.59426 0.43819 0.59488 0.0
H424 H 0.36893 0.47216 0.53087 0.0
H425 H 0.40672 0.39906 0.41467 0.0
H426 H 0.50924 0.51475 0.6149 0.0
H427 H 0.47083 0.56649 0.57165 0.0
H428 H 0.43451 0.52486 0.5978 0.0
H429 H 0.49332 0.414 0.40973 0.0
H430 H 0.5175 0.47978 0.42663 0.0
H431 H 0.55431 0.42884 0.47177 0.0
H432 H 0.59999 0.62976 0.52132 0.0
H433 H 0.68544 0.5014 0.62198 0.0
H434 H 0.45899 0.59222 0.4854 0.0
H435 H 0.47578 0.56443 0.43648 0.0
H436 H 0.50183 0.62814 0.46163 0.0
H437 H 0.56249 0.43674 0.61079 0.0
H438 H 0.63699 0.42703 0.62673 0.0
H439 H 0.58099 0.40909 0.56288 0.0
C440 C 0.41937 0.08049 0.94652 0.0
C441 C 0.37759 0.06633 0.9622 0.0
C442 C 0.47189 0.05343 0.9656 0.0
C443 C 0.48326 0.01245 1.00229 0.0
C444 C 0.44151 0.99898 0.01896 0.0
C445 C 0.38912 0.02558 0.99827 0.0
C446 C 0.51498 0.06832 0.94619 0.0
C447 C 0.45241 0.95684 0.05923 0.0
C448 C 0.59969 0.9123 0.02498 0.0
C449 C 0.64648 0.93297 0.06891 0.0
C450 C 0.54635 0.93806 1.00235 0.0
C451 C 0.53956 0.9848 0.02506 0.0
C452 C 0.58628 1.00451 0.07074 0.0
C453 C 0.63926 0.97876 0.09159 0.0
C454 C 0.49782 0.91621 0.95322 0.0
C455 C 0.58056 0.05319 0.09729 0.0
H456 H 0.41038 0.11169 0.9184 0.0
H457 H 0.35716 0.01485 1.01102 0.0
H458 H 0.55521 0.08188 0.97971 0.0
H459 H 0.52606 0.03409 0.9291 0.0
H460 H 0.49865 0.09932 0.91588 0.0
H461 H 0.41564 0.95143 0.0684 0.0
H462 H 0.46088 0.91968 0.0446 0.0
H463 H 0.49117 0.96623 0.09635 0.0
H464 H 0.60559 0.87748 1.00679 0.0
H465 H 0.67563 0.99488 0.12546 0.0
H466 H 0.48422 0.94492 0.92076 0.0
H467 H 0.46009 0.9084 0.96032 0.0
H468 H 0.51009 0.87986 0.94014 0.0
H469 H 0.57041 0.08637 0.0698 0.0
H470 H 0.62036 0.06222 0.13372 0.0
H471 H 0.54457 0.04924 0.10771 0.0
loop_
_geom_bond_atom_site_label_1
_geom_bond_atom_site_label_2
_geom_bond_distance
_geom_bond_site_symmetry_2
_ccdc_geom_bond_type
Fe0 O2 1.918 . S
Fe0 O5 1.997 . S
Fe0 O6 2.002 . S
Fe0 O11 1.976 . S
Fe0 O14 1.996 . S
Fe1 O2 1.918 . S
Fe1 O9 1.997 . S
Fe1 O12 1.996 . S
Fe1 O16 1.976 . S
Fe1 O19 2.002 . S
O2 Fe0 1.918 . S
O2 Fe1 1.918 . S
O2 Fe3 1.918 . S
Fe3 O2 1.918 . S
Fe3 O4 2.002 . S
Fe3 O13 1.976 . S
Fe3 O17 1.996 . S
Fe3 O20 1.997 . S
O4 Fe3 2.002 . S
O4 C21 1.295 . S
O5 Fe0 1.997 . S
O5 C21 1.235 . S
O6 Fe0 2.002 . S
O6 C7 1.295 . S
C7 O6 1.295 . S
C7 O9 1.235 . S
C8 O13 1.287 . S
C8 O14 1.255 . S
O9 Fe1 1.997 . S
O9 C7 1.235 . S
C10 O16 1.287 . S
C10 O17 1.255 . S
O11 Fe0 1.976 . S
O11 C18 1.287 . S
O12 Fe1 1.996 . S
O12 C18 1.255 . S
O13 Fe3 1.976 . S
O13 C8 1.287 . S
O14 Fe0 1.996 . S
O14 C8 1.255 . S
C15 O19 1.295 . S
C15 O20 1.235 . S
O16 Fe1 1.976 . S
O16 C10 1.287 . S
O17 Fe3 1.996 . S
O17 C10 1.255 . S
C18 O11 1.287 . S
C18 O12 1.255 . S
O19 Fe1 2.002 . S
O19 C15 1.295 . S
O20 Fe3 1.997 . S
O20 C15 1.235 . S
C21 O4 1.295 . S
C21 O5 1.235 . S
Fe22 O24 1.918 . S
Fe22 O27 1.997 . S
Fe22 O28 2.002 . S
Fe22 O33 1.976 . S
Fe22 O36 1.996 . S
Fe23 O24 1.918 . S
Fe23 O31 1.997 . S
Fe23 O34 1.996 . S
Fe23 O38 1.976 . S
Fe23 O41 2.002 . S
O24 Fe22 1.918 . S
O24 Fe23 1.918 . S
O24 Fe25 1.918 . S
Fe25 O24 1.918 . S
Fe25 O26 2.002 . S
Fe25 O35 1.976 . S
Fe25 O39 1.996 . S
Fe25 O42 1.997 . S
O26 Fe25 2.002 . S
O26 C43 1.295 . S
O27 Fe22 1.997 . S
O27 C43 1.235 . S
O28 Fe22 2.002 . S
O28 C29 1.283 1_554 S
C29 O28 1.283 1_556 S
C29 O31 1.235 1_556 S
C30 O35 1.287 . S
C30 O36 1.255 . S
O31 Fe23 1.997 . S
O31 C29 1.235 1_554 S
C32 O38 1.287 1_545 S
C32 O39 1.255 1_545 S
O33 Fe22 1.976 . S
O33 C40 1.287 . S
O34 Fe23 1.996 . S
O34 C40 1.255 . S
O35 Fe25 1.976 . S
O35 C30 1.287 . S
O36 Fe22 1.996 . S
O36 C30 1.255 . S
C37 O41 1.295 . S
C37 O42 1.235 . S
O38 Fe23 1.976 . S
O38 C32 1.287 1_565 S
O39 Fe25 1.996 . S
O39 C32 1.255 1_565 S
C40 O33 1.287 . S
C40 O34 1.255 . S
O41 Fe23 2.002 . S
O41 C37 1.295 . S
O42 Fe25 1.997 . S
O42 C37 1.235 . S
C43 O26 1.295 . S
C43 O27 1.235 . S
Fe44 O46 1.918 . S
Fe44 O49 1.997 . S
Fe44 O50 2.002 . S
Fe44 O55 1.976 . S
Fe44 O58 1.996 . S
Fe45 O46 1.918 . S
Fe45 O53 1.997 . S
Fe45 O56 1.996 . S
Fe45 O60 1.976 . S
Fe45 O63 2.002 . S
O46 Fe44 1.918 . S
O46 Fe45 1.918 . S
O46 Fe47 1.918 . S
Fe47 O46 1.918 . S
Fe47 O48 2.002 . S
Fe47 O57 1.976 . S
Fe47 O61 1.996 . S
Fe47 O64 1.997 . S
O48 Fe47 2.002 . S
O48 C65 1.295 . S
O49 Fe44 1.997 . S
O49 C65 1.235 . S
O50 Fe44 2.002 . S
O50 C51 1.295 . S
C51 O50 1.295 . S
C51 O53 1.235 . S
C52 O57 1.287 . S
C52 O58 1.255 . S
O53 Fe45 1.997 . S
O53 C51 1.235 . S
C54 O60 1.287 . S
C54 O61 1.255 . S
O55 Fe44 1.976 . S
O55 C62 1.287 . S
O56 Fe45 1.996 . S
O56 C62 1.255 . S
O57 Fe47 1.976 . S
O57 C52 1.287 . S
O58 Fe44 1.996 . S
O58 C52 1.255 . S
C59 O63 1.295 . S
C59 O64 1.235 . S
O60 Fe45 1.976 . S
O60 C54 1.287 . S
O61 Fe47 1.996 . S
O61 C54 1.255 . S
C62 O55 1.287 . S
C62 O56 1.255 . S
O63 Fe45 2.002 . S
O63 C59 1.295 . S
O64 Fe47 1.997 . S
O64 C59 1.235 . S
C65 O48 1.295 . S
C65 O49 1.235 . S
Fe66 O68 1.918 . S
Fe66 O71 1.997 . S
Fe66 O72 2.002 . S
Fe66 O77 1.976 . S
Fe66 O80 1.996 . S
Fe67 O68 1.918 . S
Fe67 O75 1.997 . S
Fe67 O78 1.996 . S
Fe67 O82 1.976 . S
Fe67 O85 2.002 . S
O68 Fe66 1.918 . S
O68 Fe67 1.918 . S
O68 Fe69 1.918 . S
Fe69 O68 1.918 . S
Fe69 O70 2.002 . S
Fe69 O79 1.976 . S
Fe69 O83 1.996 . S
Fe69 O86 1.997 . S
O70 Fe69 2.002 . S
O70 C87 1.295 . S
O71 Fe66 1.997 . S
O71 C87 1.235 . S
O72 Fe66 2.002 . S
O72 C73 1.283 1_556 S
C73 O72 1.283 1_554 S
C73 O75 1.235 1_554 S
C74 O79 1.287 . S
C74 O80 1.255 . S
O75 Fe67 1.997 . S
O75 C73 1.235 1_556 S
C76 O82 1.287 1_565 S
C76 O83 1.255 1_565 S
O77 Fe66 1.976 . S
O77 C84 1.287 . S
O78 Fe67 1.996 . S
O78 C84 1.255 . S
O79 Fe69 1.976 . S
O79 C74 1.287 . S
O80 Fe66 1.996 . S
O80 C74 1.255 . S
C81 O85 1.295 . S
C81 O86 1.235 . S
O82 Fe67 1.976 . S
O82 C76 1.287 1_545 S
O83 Fe69 1.996 . S
O83 C76 1.255 1_545 S
C84 O77 1.287 . S
C84 O78 1.255 . S
O85 Fe67 2.002 . S
O85 C81 1.295 . S
O86 Fe69 1.997 . S
O86 C81 1.235 . S
C87 O70 1.295 . S
C87 O71 1.235 . S
C88 C89 1.391 . S
C88 C90 1.394 . S
C88 H104 0.931 . S
C89 C88 1.391 . S
C89 C93 1.376 . S
C90 C88 1.394 . S
C90 C91 1.369 . S
C90 C94 1.531 1_655 S
C91 C90 1.369 . S
C91 C92 1.410 . S
C91 C99 1.501 1_655 S
C92 C91 1.410 . S
C92 C93 1.392 . S
C92 C95 1.511 . S
C93 C89 1.376 . S
C93 C92 1.392 . S
C93 H105 0.929 . S
C94 C90 1.531 1_455 S
C94 H106 0.960 . S
C94 H107 0.962 . S
C94 H108 0.960 . S
C95 C92 1.511 . S
C95 H109 0.961 . S
C95 H110 0.961 . S
C95 H111 0.961 . S
C96 C97 1.370 . S
C96 C98 1.363 . S
C96 H112 0.931 . S
C97 C96 1.370 . S
C97 C101 1.408 . S
C98 C96 1.363 . S
C98 C99 1.369 . S
C98 C102 1.524 1_455 S
C99 C91 1.501 1_455 S
C99 C98 1.369 . S
C99 C100 1.406 . S
C100 C99 1.406 . S
C100 C101 1.404 . S
C100 C103 1.539 . S
C101 C97 1.408 . S
C101 C100 1.404 . S
C101 H113 0.930 . S
C102 C98 1.524 1_655 S
C102 H114 0.956 . S
C102 H115 0.961 . S
C102 H116 0.961 . S
C103 C100 1.539 . S
C103 H117 0.958 . S
C103 H118 0.961 . S
C103 H119 0.960 1_455 S
H104 C88 0.931 . S
H105 C93 0.929 . S
H106 C94 0.960 . S
H107 C94 0.962 . S
H108 C94 0.960 . S
H109 C95 0.961 . S
H110 C95 0.961 . S
H111 C95 0.961 . S
H112 C96 0.931 . S
H113 C101 0.930 . S
H114 C102 0.956 . S
H115 C102 0.961 . S
H116 C102 0.961 . S
H117 C103 0.958 . S
H118 C103 0.961 . S
H119 C103 0.960 1_655 S
C120 C121 1.391 . S
C120 C122 1.394 . S
C120 H136 0.931 . S
C121 C120 1.391 . S
C121 C125 1.376 . S
C122 C120 1.394 . S
C122 C123 1.369 . S
C122 C126 1.531 1_455 S
C123 C122 1.369 . S
C123 C124 1.410 . S
C123 C131 1.503 1_455 S
C124 C123 1.410 . S
C124 C125 1.392 . S
C124 C127 1.511 . S
C125 C121 1.376 . S
C125 C124 1.392 . S
C125 H137 0.929 . S
C126 C122 1.531 1_655 S
C126 H138 0.960 . S
C126 H139 0.962 . S
C126 H140 0.960 . S
C127 C124 1.511 . S
C127 H141 0.961 . S
C127 H142 0.961 . S
C127 H143 0.961 . S
C128 C129 1.370 . S
C128 C130 1.361 1_655 S
C128 H144 0.931 . S
C129 C128 1.370 . S
C129 C133 1.408 . S
C130 C128 1.361 1_455 S
C130 C131 1.368 1_455 S
C130 C134 1.529 . S
C131 C123 1.503 1_655 S
C131 C130 1.368 1_655 S
C131 C132 1.403 . S
C132 C131 1.403 . S
C132 C133 1.404 . S
C132 C135 1.539 . S
C133 C129 1.408 . S
C133 C132 1.404 . S
C133 H145 0.930 . S
C134 C130 1.529 . S
C134 H146 0.956 . S
C134 H147 0.961 . S
C134 H148 0.961 . S
C135 C132 1.539 . S
C135 H149 0.958 . S
C135 H150 0.961 . S
C135 H151 0.960 . S
H136 C120 0.931 . S
H137 C125 0.929 . S
H138 C126 0.960 . S
H139 C126 0.962 . S
H140 C126 0.960 . S
H141 C127 0.961 . S
H142 C127 0.961 . S
H143 C127 0.961 . S
H144 C128 0.931 . S
H145 C133 0.930 . S
H146 C134 0.956 . S
H147 C134 0.961 . S
H148 C134 0.961 . S
H149 C135 0.958 . S
H150 C135 0.961 . S
H151 C135 0.960 . S
C152 C153 1.391 . S
C152 C154 1.394 . S
C152 H168 0.931 . S
C153 C152 1.391 . S
C153 C157 1.376 . S
C154 C152 1.394 . S
C154 C155 1.369 . S
C154 C158 1.531 . S
C155 C154 1.369 . S
C155 C156 1.410 . S
C155 C163 1.503 1_455 S
C156 C155 1.410 . S
C156 C157 1.392 . S
C156 C159 1.511 . S
C157 C153 1.376 . S
C157 C156 1.392 . S
C157 H169 0.929 . S
C158 C154 1.531 . S
C158 H170 0.960 1_455 S
C158 H171 0.962 . S
C158 H172 0.960 . S
C159 C156 1.511 . S
C159 H173 0.961 . S
C159 H174 0.961 . S
C159 H175 0.961 1_455 S
C160 C161 1.370 . S
C160 C162 1.363 1_655 S
C160 H176 0.931 . S
C161 C160 1.370 . S
C161 C165 1.408 . S
C162 C160 1.363 1_455 S
C162 C163 1.370 1_455 S
C162 C166 1.524 . S
C163 C155 1.503 1_655 S
C163 C162 1.370 1_655 S
C163 C164 1.403 . S
C164 C163 1.403 . S
C164 C165 1.404 . S
C164 C167 1.539 . S
C165 C161 1.408 . S
C165 C164 1.404 . S
C165 H177 0.930 . S
C166 C162 1.524 . S
C166 H178 0.956 . S
C166 H179 0.961 . S
C166 H180 0.961 . S
C167 C164 1.539 . S
C167 H181 0.958 . S
C167 H182 0.961 . S
C167 H183 0.960 . S
H168 C152 0.931 . S
H169 C157 0.929 . S
H170 C158 0.960 1_655 S
H171 C158 0.962 . S
H172 C158 0.960 . S
H173 C159 0.961 . S
H174 C159 0.961 . S
H175 C159 0.961 1_655 S
H176 C160 0.931 . S
H177 C165 0.930 . S
H178 C166 0.956 . S
H179 C166 0.961 . S
H180 C166 0.961 . S
H181 C167 0.958 . S
H182 C167 0.961 . S
H183 C167 0.960 . S
C184 C185 1.391 . S
C184 C186 1.394 . S
C184 H200 0.931 . S
C185 C184 1.391 . S
C185 C189 1.376 . S
C186 C184 1.394 . S
C186 C187 1.369 . S
C186 C190 1.531 . S
C187 C186 1.369 . S
C187 C188 1.410 . S
C187 C195 1.503 1_655 S
C188 C187 1.410 . S
C188 C189 1.392 . S
C188 C191 1.511 . S
C189 C185 1.376 . S
C189 C188 1.392 . S
C189 H201 0.929 . S
C190 C186 1.531 . S
C190 H202 0.960 . S
C190 H203 0.962 . S
C190 H204 0.960 . S
C191 C188 1.511 . S
C191 H205 0.961 . S
C191 H206 0.961 . S
C191 H207 0.961 1_655 S
C192 C193 1.370 . S
C192 C194 1.363 1_455 S
C192 H208 0.931 . S
C193 C192 1.370 . S
C193 C197 1.408 . S
C194 C192 1.363 1_655 S
C194 C195 1.370 1_655 S
C194 C198 1.524 . S
C195 C187 1.503 1_455 S
C195 C194 1.370 1_455 S
C195 C196 1.403 . S
C196 C195 1.403 . S
C196 C197 1.404 . S
C196 C199 1.539 . S
C197 C193 1.408 . S
C197 C196 1.404 . S
C197 H209 0.930 . S
C198 C194 1.524 . S
C198 H210 0.956 . S
C198 H211 0.961 . S
C198 H212 0.961 . S
C199 C196 1.539 . S
C199 H213 0.958 . S
C199 H214 0.961 . S
C199 H215 0.960 . S
H200 C184 0.931 . S
H201 C189 0.929 . S
H202 C190 0.960 . S
H203 C190 0.962 . S
H204 C190 0.960 . S
H205 C191 0.961 . S
H206 C191 0.961 . S
H207 C191 0.961 1_455 S
H208 C192 0.931 . S
H209 C197 0.930 . S
H210 C198 0.956 . S
H211 C198 0.961 . S
H212 C198 0.961 . S
H213 C199 0.958 . S
H214 C199 0.961 . S
H215 C199 0.960 . S
C216 C217 1.391 . S
C216 C218 1.394 . S
C216 H232 0.931 . S
C217 C216 1.391 . S
C217 C221 1.376 1_655 S
C218 C216 1.394 . S
C218 C219 1.369 . S
C218 C222 1.531 . S
C219 C218 1.369 . S
C219 C220 1.410 1_655 S
C219 C227 1.503 1_655 S
C220 C219 1.410 1_455 S
C220 C221 1.392 . S
C220 C223 1.511 . S
C221 C217 1.376 1_455 S
C221 C220 1.392 . S
C221 H233 0.929 . S
C222 C218 1.531 . S
C222 H234 0.960 . S
C222 H235 0.962 . S
C222 H236 0.960 . S
C223 C220 1.511 . S
C223 H237 0.961 . S
C223 H238 0.961 . S
C223 H239 0.961 . S
C224 C225 1.370 . S
C224 C226 1.368 . S
C224 H240 0.931 . S
C225 C224 1.370 . S
C225 C229 1.408 . S
C226 C224 1.368 . S
C226 C227 1.372 . S
C226 C230 1.518 1_455 S
C227 C219 1.503 1_455 S
C227 C226 1.372 . S
C227 C228 1.403 . S
C228 C227 1.403 . S
C228 C229 1.404 . S
C228 C231 1.539 . S
C229 C225 1.408 . S
C229 C228 1.404 . S
C229 H241 0.930 . S
C230 C226 1.518 1_655 S
C230 H242 0.956 . S
C230 H243 0.961 . S
C230 H244 0.961 . S
C231 C228 1.539 . S
C231 H245 0.958 . S
C231 H246 0.961 . S
C231 H247 0.960 . S
H232 C216 0.931 . S
H233 C221 0.929 . S
H234 C222 0.960 . S
H235 C222 0.962 . S
H236 C222 0.960 . S
H237 C223 0.961 . S
H238 C223 0.961 . S
H239 C223 0.961 . S
H240 C224 0.931 . S
H241 C229 0.930 . S
H242 C230 0.956 . S
H243 C230 0.961 . S
H244 C230 0.961 . S
H245 C231 0.958 . S
H246 C231 0.961 . S
H247 C231 0.960 . S
C248 C249 1.391 . S
C248 C250 1.394 1_565 S
C248 H264 0.931 . S
C249 C248 1.391 . S
C249 C253 1.376 1_655 S
C250 C248 1.394 1_545 S
C250 C251 1.369 1_545 S
C250 C254 1.531 1_554 S
C251 C250 1.369 1_565 S
C251 C252 1.410 1_655 S
C251 C259 1.503 1_664 S
C252 C251 1.410 1_455 S
C252 C253 1.392 . S
C252 C255 1.511 . S
C253 C249 1.376 1_455 S
C253 C252 1.392 . S
C253 H265 0.929 . S
C254 C250 1.531 1_556 S
C254 H266 0.960 . S
C254 H267 0.962 . S
C254 H268 0.960 1_556 S
C255 C252 1.511 . S
C255 H269 0.961 . S
C255 H270 0.961 . S
C255 H271 0.961 . S
C256 C257 1.370 . S
C256 C258 1.349 1_455 S
C256 H272 0.931 . S
C257 C256 1.370 . S
C257 C261 1.408 . S
C258 C256 1.349 1_655 S
C258 C259 1.374 1_655 S
C258 C262 1.536 1_545 S
C259 C251 1.503 1_446 S
C259 C258 1.374 1_455 S
C259 C260 1.403 1_556 S
C260 C259 1.403 1_554 S
C260 C261 1.404 1_554 S
C260 C263 1.539 . S
C261 C257 1.408 . S
C261 C260 1.404 1_556 S
C261 H273 0.930 . S
C262 C258 1.536 1_565 S
C262 H274 0.956 . S
C262 H275 0.961 . S
C262 H276 0.961 . S
C263 C260 1.539 . S
C263 H277 0.958 . S
C263 H278 0.961 . S
C263 H279 0.960 . S
H264 C248 0.931 . S
H265 C253 0.929 . S
H266 C254 0.960 . S
H267 C254 0.962 . S
H268 C254 0.960 1_554 S
H269 C255 0.961 . S
H270 C255 0.961 . S
H271 C255 0.961 . S
H272 C256 0.931 . S
H273 C261 0.930 . S
H274 C262 0.956 . S
H275 C262 0.961 . S
H276 C262 0.961 . S
H277 C263 0.958 . S
H278 C263 0.961 . S
H279 C263 0.960 . S
C280 C281 1.391 . S
C280 C282 1.394 . S
C280 H296 0.931 . S
C281 C280 1.391 . S
C281 C285 1.376 . S
C282 C280 1.394 . S
C282 C283 1.369 . S
C282 C286 1.531 . S
C283 C282 1.369 . S
C283 C284 1.410 . S
C283 C291 1.503 . S
C284 C283 1.410 . S
C284 C285 1.392 . S
C284 C287 1.511 . S
C285 C281 1.376 . S
C285 C284 1.392 . S
C285 H297 0.929 . S
C286 C282 1.531 . S
C286 H298 0.960 . S
C286 H299 0.962 . S
C286 H300 0.960 . S
C287 C284 1.511 . S
C287 H301 0.961 . S
C287 H302 0.961 . S
C287 H303 0.961 . S
C288 C289 1.370 . S
C288 C290 1.363 . S
C288 H304 0.931 . S
C289 C288 1.370 . S
C289 C293 1.408 . S
C290 C288 1.363 . S
C290 C291 1.370 . S
C290 C294 1.524 . S
C291 C283 1.503 . S
C291 C290 1.370 . S
C291 C292 1.403 . S
C292 C291 1.403 . S
C292 C293 1.404 . S
C292 C295 1.539 . S
C293 C289 1.408 . S
C293 C292 1.404 . S
C293 H305 0.930 . S
C294 C290 1.524 . S
C294 H306 0.956 . S
C294 H307 0.961 . S
C294 H308 0.961 . S
C295 C292 1.539 . S
C295 H309 0.958 . S
C295 H310 0.961 . S
C295 H311 0.960 . S
H296 C280 0.931 . S
H297 C285 0.929 . S
H298 C286 0.960 . S
H299 C286 0.962 . S
H300 C286 0.960 . S
H301 C287 0.961 . S
H302 C287 0.961 . S
H303 C287 0.961 . S
H304 C288 0.931 . S
H305 C293 0.930 . S
H306 C294 0.956 . S
H307 C294 0.961 . S
H308 C294 0.961 . S
H309 C295 0.958 . S
H310 C295 0.961 . S
H311 C295 0.960 . S
C312 C313 1.391 . S
C312 C314 1.394 . S
C312 H328 0.931 . S
C313 C312 1.391 . S
C313 C317 1.376 . S
C314 C312 1.394 . S
C314 C315 1.369 . S
C314 C318 1.531 . S
C315 C314 1.369 . S
C315 C316 1.410 . S
C315 C323 1.503 . S
C316 C315 1.410 . S
C316 C317 1.392 . S
C316 C319 1.511 . S
C317 C313 1.376 . S
C317 C316 1.392 . S
C317 H329 0.929 . S
C318 C314 1.531 . S
C318 H330 0.960 . S
C318 H331 0.962 . S
C318 H332 0.960 . S
C319 C316 1.511 . S
C319 H333 0.961 . S
C319 H334 0.961 . S
C319 H335 0.961 . S
C320 C321 1.370 . S
C320 C322 1.363 . S
C320 H336 0.931 . S
C321 C320 1.370 . S
C321 C325 1.408 . S
C322 C320 1.363 . S
C322 C323 1.370 . S
C322 C326 1.524 . S
C323 C315 1.503 . S
C323 C322 1.370 . S
C323 C324 1.403 . S
C324 C323 1.403 . S
C324 C325 1.404 . S
C324 C327 1.539 . S
C325 C321 1.408 . S
C325 C324 1.404 . S
C325 H337 0.930 . S
C326 C322 1.524 . S
C326 H338 0.956 . S
C326 H339 0.961 . S
C326 H340 0.961 . S
C327 C324 1.539 . S
C327 H341 0.958 . S
C327 H342 0.961 . S
C327 H343 0.960 . S
H328 C312 0.931 . S
H329 C317 0.929 . S
H330 C318 0.960 . S
H331 C318 0.962 . S
H332 C318 0.960 . S
H333 C319 0.961 . S
H334 C319 0.961 . S
H335 C319 0.961 . S
H336 C320 0.931 . S
H337 C325 0.930 . S
H338 C326 0.956 . S
H339 C326 0.961 . S
H340 C326 0.961 . S
H341 C327 0.958 . S
H342 C327 0.961 . S
H343 C327 0.960 . S
C344 C345 1.391 . S
C344 C346 1.394 . S
C344 H360 0.931 . S
C345 C344 1.391 . S
C345 C349 1.376 . S
C346 C344 1.394 . S
C346 C347 1.369 . S
C346 C350 1.531 . S
C347 C346 1.369 . S
C347 C348 1.410 . S
C347 C355 1.503 . S
C348 C347 1.410 . S
C348 C349 1.392 . S
C348 C351 1.511 . S
C349 C345 1.376 . S
C349 C348 1.392 . S
C349 H361 0.929 . S
C350 C346 1.531 . S
C350 H362 0.960 . S
C350 H363 0.962 . S
C350 H364 0.960 . S
C351 C348 1.511 . S
C351 H365 0.961 . S
C351 H366 0.961 . S
C351 H367 0.961 . S
C352 C353 1.370 . S
C352 C354 1.363 . S
C352 H368 0.931 . S
C353 C352 1.370 . S
C353 C357 1.408 . S
C354 C352 1.363 . S
C354 C355 1.370 . S
C354 C358 1.524 . S
C355 C347 1.503 . S
C355 C354 1.370 . S
C355 C356 1.403 . S
C356 C355 1.403 . S
C356 C357 1.404 . S
C356 C359 1.539 . S
C357 C353 1.408 . S
C357 C356 1.404 . S
C357 H369 0.930 . S
C358 C354 1.524 . S
C358 H370 0.956 . S
C358 H371 0.961 . S
C358 H372 0.961 . S
C359 C356 1.539 . S
C359 H373 0.958 . S
C359 H374 0.961 . S
C359 H375 0.960 . S
H360 C344 0.931 . S
H361 C349 0.929 . S
H362 C350 0.960 . S
H363 C350 0.962 . S
H364 C350 0.960 . S
H365 C351 0.961 . S
H366 C351 0.961 . S
H367 C351 0.961 . S
H368 C352 0.931 . S
H369 C357 0.930 . S
H370 C358 0.956 . S
H371 C358 0.961 . S
H372 C358 0.961 . S
H373 C359 0.958 . S
H374 C359 0.961 . S
H375 C359 0.960 . S
C376 C377 1.391 . S
C376 C378 1.394 . S
C376 H392 0.931 . S
C377 C376 1.391 . S
C377 C381 1.376 . S
C378 C376 1.394 . S
C378 C379 1.369 . S
C378 C382 1.531 . S
C379 C378 1.369 . S
C379 C380 1.410 . S
C379 C387 1.503 . S
C380 C379 1.410 . S
C380 C381 1.392 . S
C380 C383 1.511 . S
C381 C377 1.376 . S
C381 C380 1.392 . S
C381 H393 0.929 . S
C382 C378 1.531 . S
C382 H394 0.960 . S
C382 H395 0.962 . S
C382 H396 0.960 . S
C383 C380 1.511 . S
C383 H397 0.961 . S
C383 H398 0.961 . S
C383 H399 0.961 . S
C384 C385 1.370 . S
C384 C386 1.363 . S
C384 H400 0.931 . S
C385 C384 1.370 . S
C385 C389 1.408 . S
C386 C384 1.363 . S
C386 C387 1.370 . S
C386 C390 1.524 . S
C387 C379 1.503 . S
C387 C386 1.370 . S
C387 C388 1.403 . S
C388 C387 1.403 . S
C388 C389 1.404 . S
C388 C391 1.539 . S
C389 C385 1.408 . S
C389 C388 1.404 . S
C389 H401 0.930 . S
C390 C386 1.524 . S
C390 H402 0.956 . S
C390 H403 0.961 . S
C390 H404 0.961 . S
C391 C388 1.539 . S
C391 H405 0.958 . S
C391 H406 0.961 . S
C391 H407 0.960 . S
H392 C376 0.931 . S
H393 C381 0.929 . S
H394 C382 0.960 . S
H395 C382 0.962 . S
H396 C382 0.960 . S
H397 C383 0.961 . S
H398 C383 0.961 . S
H399 C383 0.961 . S
H400 C384 0.931 . S
H401 C389 0.930 . S
H402 C390 0.956 . S
H403 C390 0.961 . S
H404 C390 0.961 . S
H405 C391 0.958 . S
H406 C391 0.961 . S
H407 C391 0.960 . S
C408 C409 1.391 . S
C408 C410 1.394 . S
C408 H424 0.931 . S
C409 C408 1.391 . S
C409 C413 1.376 . S
C410 C408 1.394 . S
C410 C411 1.369 . S
C410 C414 1.531 . S
C411 C410 1.369 . S
C411 C412 1.410 . S
C411 C419 1.503 . S
C412 C411 1.410 . S
C412 C413 1.392 . S
C412 C415 1.511 . S
C413 C409 1.376 . S
C413 C412 1.392 . S
C413 H425 0.929 . S
C414 C410 1.531 . S
C414 H426 0.960 . S
C414 H427 0.962 . S
C414 H428 0.960 . S
C415 C412 1.511 . S
C415 H429 0.961 . S
C415 H430 0.961 . S
C415 H431 0.961 . S
C416 C417 1.370 . S
C416 C418 1.363 . S
C416 H432 0.931 . S
C417 C416 1.370 . S
C417 C421 1.408 . S
C418 C416 1.363 . S
C418 C419 1.370 . S
C418 C422 1.524 . S
C419 C411 1.503 . S
C419 C418 1.370 . S
C419 C420 1.403 . S
C420 C419 1.403 . S
C420 C421 1.404 . S
C420 C423 1.539 . S
C421 C417 1.408 . S
C421 C420 1.404 . S
C421 H433 0.930 . S
C422 C418 1.524 . S
C422 H434 0.956 . S
C422 H435 0.961 . S
C422 H436 0.961 . S
C423 C420 1.539 . S
C423 H437 0.958 . S
C423 H438 0.961 . S
C423 H439 0.960 . S
H424 C408 0.931 . S
H425 C413 0.929 . S
H426 C414 0.960 . S
H427 C414 0.962 . S
H428 C414 0.960 . S
H429 C415 0.961 . S
H430 C415 0.961 . S
H431 C415 0.961 . S
H432 C416 0.931 . S
H433 C421 0.930 . S
H434 C422 0.956 . S
H435 C422 0.961 . S
H436 C422 0.961 . S
H437 C423 0.958 . S
H438 C423 0.961 . S
H439 C423 0.960 . S
C440 C441 1.391 . S
C440 C442 1.394 . S
C440 H456 0.931 . S
C441 C440 1.391 . S
C441 C445 1.376 1_556 S
C442 C440 1.394 . S
C442 C443 1.369 . S
C442 C446 1.531 . S
C443 C442 1.369 . S
C443 C444 1.410 1_556 S
C443 C451 1.503 1_546 S
C444 C443 1.410 1_554 S
C444 C445 1.392 . S
C444 C447 1.511 . S
C445 C441 1.376 1_554 S
C445 C444 1.392 . S
C445 H457 0.929 . S
C446 C442 1.531 . S
C446 H458 0.960 . S
C446 H459 0.962 1_545 S
C446 H460 0.960 . S
C447 C444 1.511 . S
C447 H461 0.961 . S
C447 H462 0.961 1_545 S
C447 H463 0.961 . S
C448 C449 1.370 . S
C448 C450 1.363 . S
C448 H464 0.931 . S
C449 C448 1.370 . S
C449 C453 1.408 . S
C450 C448 1.363 . S
C450 C451 1.370 . S
C450 C454 1.524 1_554 S
C451 C443 1.503 1_564 S
C451 C450 1.370 . S
C451 C452 1.403 1_565 S
C452 C451 1.403 1_545 S
C452 C453 1.404 1_545 S
C452 C455 1.539 . S
C453 C449 1.408 . S
C453 C452 1.404 1_565 S
C453 H465 0.930 1_565 S
C454 C450 1.524 1_556 S
C454 H466 0.956 . S
C454 H467 0.961 1_556 S
C454 H468 0.961 . S
C455 C452 1.539 . S
C455 H469 0.958 . S
C455 H470 0.961 . S
C455 H471 0.960 . S
H456 C440 0.931 . S
H457 C445 0.929 . S
H458 C446 0.960 . S
H459 C446 0.962 1_565 S
H460 C446 0.960 . S
H461 C447 0.961 . S
H462 C447 0.961 1_565 S
H463 C447 0.961 . S
H464 C448 0.931 . S
H465 C453 0.930 1_545 S
H466 C454 0.956 . S
H467 C454 0.961 1_554 S
H468 C454 0.961 . S
H469 C455 0.958 . S
H470 C455 0.961 . S
H471 C455 0.960 . S
C89 C32 1.469 . S
C97 C7 1.492 . S
C121 C8 1.457 . S
C129 C43 1.494 . S
C153 C76 1.439 . S
C161 C59 1.508 . S
C185 C62 1.440 . S
C193 C87 1.506 . S
C217 C51 1.024 . S
C225 C21 0.960 . S
C249 C37 0.981 . S
C257 C81 0.976 . S
C281 C73 1.547 . S
C289 C18 1.547 . S
C313 C30 1.550 . S
C321 C65 1.561 . S
C345 C29 1.547 . S
C353 C54 1.550 . S
C377 C74 1.516 . S
C385 C15 1.561 . S
C409 C10 1.556 . S
C417 C52 1.554 . S
C441 C84 1.563 . S
C449 C40 1.552 . S
