# Generated by pormake.
# Topology whv, (6)-cn, num edge types: 1
# Building blocks:
#     Node 0, Type 0, BuildingBlock: IZENUY_clean_sbu_0, # of connection points: 6
#     Node 1, Type 0, BuildingBlock: IZENUY_clean_sbu_0, # of connection points: 6
#     Node 2, Type 0, BuildingBlock: IZENUY_clean_sbu_0, # of connection points: 6
#     Node 3, Type 0, BuildingBlock: IZENUY_clean_sbu_0, # of connection points: 6
#     Node 4, Type 0, BuildingBlock: IZENUY_clean_sbu_0, # of connection points: 6
#     Node 5, Type 0, BuildingBlock: IZENUY_clean_sbu_0, # of connection points: 6
#     Node 6, Type 0, BuildingBlock: IZENUY_clean_sbu_0, # of connection points: 6
#     Node 7, Type 0, BuildingBlock: IZENUY_clean_sbu_0, # of connection points: 6
#     Node 8, Type 0, BuildingBlock: IZENUY_clean_sbu_0, # of connection points: 6
#     Node 9, Type 0, BuildingBlock: IZENUY_clean_sbu_0, # of connection points: 6
#     Node 10, Type 0, BuildingBlock: IZENUY_clean_sbu_0, # of connection points: 6
#     Node 11, Type 0, BuildingBlock: IZENUY_clean_sbu_0, # of connection points: 6
#     Node 12, Type 0, BuildingBlock: IZENUY_clean_sbu_0, # of connection points: 6
#     Node 13, Type 0, BuildingBlock: IZENUY_clean_sbu_0, # of connection points: 6
#     Node 14, Type 0, BuildingBlock: IZENUY_clean_sbu_0, # of connection points: 6
#     Node 15, Type 0, BuildingBlock: IZENUY_clean_sbu_0, # of connection points: 6
#     Edge 16, Type (0, 0), BuildingBlock: EZIPEK_clean_linker_0, # of connection points: 2
#     Edge 17, Type (0, 0), BuildingBlock: EZIPEK_clean_linker_0, # of connection points: 2
#     Edge 18, Type (0, 0), BuildingBlock: EZIPEK_clean_linker_0, # of connection points: 2
#     Edge 19, Type (0, 0), BuildingBlock: EZIPEK_clean_linker_0, # of connection points: 2
#     Edge 20, Type (0, 0), BuildingBlock: EZIPEK_clean_linker_0, # of connection points: 2
#     Edge 21, Type (0, 0), BuildingBlock: EZIPEK_clean_linker_0, # of connection points: 2
#     Edge 22, Type (0, 0), BuildingBlock: EZIPEK_clean_linker_0, # of connection points: 2
#     Edge 23, Type (0, 0), BuildingBlock: EZIPEK_clean_linker_0, # of connection points: 2
#     Edge 24, Type (0, 0), BuildingBlock: EZIPEK_clean_linker_0, # of connection points: 2
#     Edge 25, Type (0, 0), BuildingBlock: EZIPEK_clean_linker_0, # of connection points: 2
#     Edge 26, Type (0, 0), BuildingBlock: EZIPEK_clean_linker_0, # of connection points: 2
#     Edge 27, Type (0, 0), BuildingBlock: EZIPEK_clean_linker_0, # of connection points: 2
#     Edge 28, Type (0, 0), BuildingBlock: EZIPEK_clean_linker_0, # of connection points: 2
#     Edge 29, Type (0, 0), BuildingBlock: EZIPEK_clean_linker_0, # of connection points: 2
#     Edge 30, Type (0, 0), BuildingBlock: EZIPEK_clean_linker_0, # of connection points: 2
#     Edge 31, Type (0, 0), BuildingBlock: EZIPEK_clean_linker_0, # of connection points: 2
#     Edge 32, Type (0, 0), BuildingBlock: EZIPEK_clean_linker_0, # of connection points: 2
#     Edge 33, Type (0, 0), BuildingBlock: EZIPEK_clean_linker_0, # of connection points: 2
#     Edge 34, Type (0, 0), BuildingBlock: EZIPEK_clean_linker_0, # of connection points: 2
#     Edge 35, Type (0, 0), BuildingBlock: EZIPEK_clean_linker_0, # of connection points: 2
#     Edge 36, Type (0, 0), BuildingBlock: EZIPEK_clean_linker_0, # of connection points: 2
#     Edge 37, Type (0, 0), BuildingBlock: EZIPEK_clean_linker_0, # of connection points: 2
#     Edge 38, Type (0, 0), BuildingBlock: EZIPEK_clean_linker_0, # of connection points: 2
#     Edge 39, Type (0, 0), BuildingBlock: EZIPEK_clean_linker_0, # of connection points: 2
#     Edge 40, Type (0, 0), BuildingBlock: EZIPEK_clean_linker_0, # of connection points: 2
#     Edge 41, Type (0, 0), BuildingBlock: EZIPEK_clean_linker_0, # of connection points: 2
#     Edge 42, Type (0, 0), BuildingBlock: EZIPEK_clean_linker_0, # of connection points: 2
#     Edge 43, Type (0, 0), BuildingBlock: EZIPEK_clean_linker_0, # of connection points: 2
#     Edge 44, Type (0, 0), BuildingBlock: EZIPEK_clean_linker_0, # of connection points: 2
#     Edge 45, Type (0, 0), BuildingBlock: EZIPEK_clean_linker_0, # of connection points: 2
#     Edge 46, Type (0, 0), BuildingBlock: EZIPEK_clean_linker_0, # of connection points: 2
#     Edge 47, Type (0, 0), BuildingBlock: EZIPEK_clean_linker_0, # of connection points: 2
#     Edge 48, Type (0, 0), BuildingBlock: EZIPEK_clean_linker_0, # of connection points: 2
#     Edge 49, Type (0, 0), BuildingBlock: EZIPEK_clean_linker_0, # of connection points: 2
#     Edge 50, Type (0, 0), BuildingBlock: EZIPEK_clean_linker_0, # of connection points: 2
#     Edge 51, Type (0, 0), BuildingBlock: EZIPEK_clean_linker_0, # of connection points: 2
#     Edge 52, Type (0, 0), BuildingBlock: EZIPEK_clean_linker_0, # of connection points: 2
#     Edge 53, Type (0, 0), BuildingBlock: EZIPEK_clean_linker_0, # of connection points: 2
#     Edge 54, Type (0, 0), BuildingBlock: EZIPEK_clean_linker_0, # of connection points: 2
#     Edge 55, Type (0, 0), BuildingBlock: EZIPEK_clean_linker_0, # of connection points: 2
#     Edge 56, Type (0, 0), BuildingBlock: EZIPEK_clean_linker_0, # of connection points: 2
#     Edge 57, Type (0, 0), BuildingBlock: EZIPEK_clean_linker_0, # of connection points: 2
#     Edge 58, Type (0, 0), BuildingBlock: EZIPEK_clean_linker_0, # of connection points: 2
#     Edge 59, Type (0, 0), BuildingBlock: EZIPEK_clean_linker_0, # of connection points: 2
#     Edge 60, Type (0, 0), BuildingBlock: EZIPEK_clean_linker_0, # of connection points: 2
#     Edge 61, Type (0, 0), BuildingBlock: EZIPEK_clean_linker_0, # of connection points: 2
#     Edge 62, Type (0, 0), BuildingBlock: EZIPEK_clean_linker_0, # of connection points: 2
#     Edge 63, Type (0, 0), BuildingBlock: EZIPEK_clean_linker_0, # of connection points: 2
# Relax obj value: 0.237
# Max RMSD: 0.246
# Mean RMSD: 0.246
data_MOF--net-whv--node1-IZENUY_clean_sbu_0--edge1-EZIPEK_clean_linker_0
_symmetry_space_group_name_H-M    P1
_symmetry_Int_Tables_number       1
_symmetry_cell_setting            triclinic
loop_
_symmetry_equiv_pos_as_xyz
'x, y, z'
_cell_length_a     37.388727
_cell_length_b     37.607252
_cell_length_c     19.001031
_cell_angle_alpha  89.860976
_cell_angle_beta   90.022315
_cell_angle_gamma 90.086675
loop_
_atom_site_label
_atom_site_type_symbol
_atom_site_fract_x
_atom_site_fract_y
_atom_site_fract_z
_atom_type_partial_charge
Fe0 Fe 0.29542 0.24109 0.0512 0.0
Fe1 Fe 0.32403 0.17079 0.99658 0.0
O2 O 0.3284 0.20801 0.05135 0.0
Fe3 Fe 0.36667 0.21355 0.10408 0.0
O4 O 0.37904 0.25255 0.0539 0.0
O5 O 0.32755 0.27802 0.06886 0.0
O6 O 0.30351 0.25057 0.96137 0.0
C7 C 0.29882 0.22919 0.91245 0.0
C8 C 0.30894 0.23949 0.18948 0.0
O9 O 0.29974 0.19562 0.92415 0.0
C10 C 0.35668 0.14401 0.12624 0.0
O11 O 0.25796 0.20976 0.03014 0.0
O12 O 0.28306 0.15766 0.0389 0.0
O13 O 0.34239 0.23935 0.17439 0.0
O14 O 0.28612 0.23355 0.14249 0.0
C15 C 0.39426 0.17969 0.97946 0.0
O16 O 0.348 0.14047 0.06105 0.0
O17 O 0.3563 0.17426 0.15435 0.0
C18 C 0.25505 0.176 0.03576 0.0
O19 O 0.36445 0.18178 0.94995 0.0
O20 O 0.39708 0.18797 0.04423 0.0
C21 C 0.35962 0.27956 0.04657 0.0
Fe22 Fe 0.5493 0.54547 0.29828 0.0
Fe23 Fe 0.61848 0.57645 0.24057 0.0
O24 O 0.58184 0.57907 0.29846 0.0
Fe25 Fe 0.57663 0.61567 0.35498 0.0
O26 O 0.53572 0.62841 0.3113 0.0
O27 O 0.51171 0.57605 0.32007 0.0
O28 O 0.53791 0.55514 0.21027 0.0
C29 C 0.55865 0.55144 0.1598 0.0
C30 C 0.55195 0.55529 0.43718 0.0
O31 O 0.59255 0.5529 0.16902 0.0
C32 C 0.64784 0.60578 0.36891 0.0
O33 O 0.5812 0.50943 0.27301 0.0
O34 O 0.63319 0.53545 0.27945 0.0
O35 O 0.55275 0.58902 0.42592 0.0
O36 O 0.55866 0.53425 0.38801 0.0
C37 C 0.60334 0.6468 0.22704 0.0
O38 O 0.6499 0.59969 0.30267 0.0
O39 O 0.61796 0.60565 0.39963 0.0
C40 C 0.61521 0.50728 0.27771 0.0
O41 O 0.60625 0.61712 0.19765 0.0
O42 O 0.59924 0.64782 0.29384 0.0
C43 C 0.50874 0.60884 0.30483 0.0
Fe44 Fe 0.24197 0.79338 0.54896 0.0
Fe45 Fe 0.21277 0.86438 0.49844 0.0
O46 O 0.20947 0.82697 0.55363 0.0
Fe47 Fe 0.17325 0.82232 0.61241 0.0
O48 O 0.15818 0.7831 0.5664 0.0
O49 O 0.21005 0.75688 0.56996 0.0
O50 O 0.23071 0.78436 0.46019 0.0
C51 C 0.23517 0.80595 0.41125 0.0
C52 C 0.23372 0.79492 0.68938 0.0
O53 O 0.23399 0.83944 0.42312 0.0
C54 C 0.18935 0.89197 0.6328 0.0
O55 O 0.2794 0.82422 0.52418 0.0
O56 O 0.25534 0.8766 0.53475 0.0
O57 O 0.19981 0.79629 0.6795 0.0
O58 O 0.25474 0.80004 0.63895 0.0
C59 C 0.14109 0.85556 0.49124 0.0
O60 O 0.19282 0.89479 0.56581 0.0
O61 O 0.18625 0.86154 0.65974 0.0
C62 C 0.28293 0.85785 0.53093 0.0
O63 O 0.17009 0.85519 0.45795 0.0
O64 O 0.14068 0.8481 0.55685 0.0
C65 C 0.17649 0.75541 0.5582 0.0
Fe66 Fe 0.997 0.48851 0.80061 0.0
Fe67 Fe 0.92694 0.45606 0.7502 0.0
O68 O 0.9649 0.45452 0.80482 0.0
Fe69 Fe 0.97183 0.41851 0.86248 0.0
O70 O 1.01145 0.40604 0.81484 0.0
O71 O 0.03513 0.45869 0.82141 0.0
O72 O 1.00653 0.47815 0.71178 0.0
C73 C 0.98464 0.48083 0.66276 0.0
C74 C 0.99629 0.47937 0.94062 0.0
O75 O 0.95096 0.47899 0.675 0.0
C76 C 0.90157 0.42744 0.88364 0.0
O77 O 0.96429 0.52384 0.77594 0.0
O78 O 0.91266 0.49765 0.78787 0.0
O79 O 0.99693 0.44572 0.92972 0.0
O80 O 0.98954 0.50032 0.89088 0.0
C81 C 0.93971 0.38565 0.7404 0.0
O82 O 0.89755 0.43317 0.81732 0.0
O83 O 0.93209 0.4294 0.91101 0.0
C84 C 0.93042 0.52595 0.78279 0.0
O85 O 0.93842 0.41472 0.70805 0.0
O86 O 0.94759 0.3852 0.80582 0.0
C87 C 0.03776 0.42616 0.80416 0.0
Fe88 Fe 0.71604 0.86649 0.10876 0.0
Fe89 Fe 0.67118 0.82425 1.00254 0.0
O90 O 0.709 0.82825 0.05697 0.0
Fe91 Fe 0.73948 0.79318 0.06098 0.0
O92 O 0.72942 0.78665 0.14976 0.0
O93 O 0.7394 0.84113 0.18312 0.0
O94 O 0.67426 0.85998 0.15527 0.0
C95 C 0.64432 0.86093 0.12489 0.0
C96 C 0.78463 0.85614 0.07214 0.0
O97 O 0.64178 0.85253 0.06006 0.0
C98 C 0.72785 0.79207 0.92315 0.0
O99 O 0.6942 0.89679 0.04174 0.0
O100 O 0.68599 0.86149 0.95102 0.0
O101 O 0.77893 0.82288 0.07853 0.0
O102 O 0.75809 0.87635 0.0661 0.0
C103 C 0.67235 0.75989 0.06708 0.0
O104 O 0.69432 0.79526 0.93562 0.0
O105 O 0.75027 0.79746 0.97052 0.0
C106 C 0.68618 0.8922 0.97645 0.0
O107 O 0.6546 0.78727 0.05323 0.0
O108 O 0.70502 0.75794 0.04819 0.0
C109 C 0.73991 0.80743 0.1952 0.0
Fe110 Fe 0.46767 0.42107 0.76142 0.0
Fe111 Fe 0.4922 0.49135 0.82609 0.0
O112 O 0.45915 0.45841 0.81505 0.0
Fe113 Fe 0.41804 0.46283 0.8591 0.0
O114 O 0.42452 0.42217 0.90738 0.0
O115 O 0.4391 0.38974 0.81567 0.0
O116 O 0.50415 0.40773 0.81661 0.0
C117 C 0.53012 0.42699 0.83355 0.0
C118 C 0.39951 0.4315 0.72458 0.0
O119 O 0.53025 0.45996 0.8184 0.0
C120 C 0.42635 0.53134 0.8238 0.0
O121 O 0.49731 0.44665 0.69846 0.0
O122 O 0.49184 0.50212 0.73425 0.0
O123 O 0.3922 0.44005 0.78789 0.0
O124 O 0.43122 0.43154 0.70345 0.0
C125 C 0.46999 0.48688 0.95946 0.0
O126 O 0.45952 0.52851 0.83911 0.0
O127 O 0.40869 0.50356 0.81351 0.0
C128 C 0.49995 0.48027 0.68712 0.0
O129 O 0.49493 0.48189 0.91732 0.0
O130 O 0.43758 0.48645 0.93786 0.0
C131 C 0.42659 0.39235 0.87824 0.0
Fe132 Fe 0.80177 0.24216 0.57037 0.0
Fe133 Fe 0.82936 0.16932 0.61296 0.0
O134 O 0.83393 0.20839 0.56277 0.0
Fe135 Fe 0.87098 0.21484 0.50673 0.0
O136 O 0.88546 0.25289 0.55809 0.0
O137 O 0.83373 0.27895 0.55213 0.0
O138 O 0.81308 0.24848 0.66022 0.0
C139 C 0.80889 0.22537 0.70667 0.0
C140 C 0.81107 0.24338 0.43035 0.0
O141 O 0.80805 0.19238 0.69026 0.0
C142 C 0.85803 0.14586 0.47859 0.0
O143 O 0.7641 0.21141 0.5927 0.0
O144 O 0.78681 0.15918 0.57315 0.0
O145 O 0.84494 0.2423 0.44131 0.0
O146 O 0.78948 0.23755 0.47969 0.0
C147 C 0.90075 0.17758 0.62582 0.0
O148 O 0.85039 0.14061 0.54366 0.0
O149 O 0.8589 0.17689 0.45391 0.0
C150 C 0.75965 0.1782 0.58242 0.0
O151 O 0.87121 0.17661 0.65676 0.0
O152 O 0.90271 0.18772 0.56174 0.0
C153 C 0.86649 0.27987 0.56975 0.0
Fe154 Fe 0.0508 0.54427 0.32751 0.0
Fe155 Fe 0.1246 0.57383 0.36351 0.0
O156 O 0.08342 0.57803 0.31861 0.0
Fe157 Fe 0.07435 0.61576 0.26592 0.0
O158 O 0.03675 0.62746 0.31958 0.0
O159 O 1.01189 0.57474 0.3194 0.0
O160 O 0.04731 0.55244 0.4191 0.0
C161 C 0.07207 0.54698 0.46162 0.0
C162 C 0.04547 0.5567 0.18768 0.0
O163 O 0.10472 0.54898 0.4413 0.0
C164 C 0.14338 0.60725 0.23033 0.0
O165 O 0.08407 0.50761 0.3401 0.0
O166 O 0.13487 0.53347 0.31741 0.0
O167 O 0.04682 0.5902 0.20015 0.0
O168 O 0.05205 0.53457 0.23548 0.0
C169 C 0.11347 0.64423 0.38514 0.0
O170 O 0.15081 0.59782 0.29345 0.0
O171 O 0.11167 0.60724 0.20908 0.0
C172 C 0.11734 0.50535 0.32544 0.0
O173 O 0.1177 0.61412 0.41268 0.0
O174 O 0.10083 0.64712 0.32292 0.0
C175 C 1.01094 0.60764 0.33477 0.0
Fe176 Fe 0.80029 0.73859 0.54982 0.0
Fe177 Fe 0.8242 0.66523 0.50657 0.0
O178 O 0.83068 0.70391 0.55769 0.0
Fe179 Fe 0.86814 0.709 0.61209 0.0
O180 O 0.88425 0.74698 0.56352 0.0
O181 O 0.83321 0.77456 0.56428 0.0
O182 O 0.81319 0.74332 0.46078 0.0
C183 C 0.80031 0.72265 0.41759 0.0
C184 C 0.80949 0.74076 0.68874 0.0
O185 O 0.79959 0.6894 0.43276 0.0
C186 C 0.85668 0.64018 0.63638 0.0
O187 O 0.76148 0.70812 0.53193 0.0
O188 O 0.78254 0.65517 0.55089 0.0
O189 O 0.8433 0.7367 0.67926 0.0
O190 O 0.78782 0.73564 0.63966 0.0
C191 C 0.8952 0.67626 0.48594 0.0
O192 O 0.84822 0.63544 0.57156 0.0
O193 O 0.85493 0.6707 0.66259 0.0
C194 C 0.75582 0.67496 0.54072 0.0
O195 O 0.86469 0.67316 0.45895 0.0
O196 O 0.89792 0.68272 0.55182 0.0
C197 C 0.86614 0.77386 0.54846 0.0
Fe198 Fe 0.04869 0.04259 0.7925 0.0
Fe199 Fe 0.11809 0.07795 0.74815 0.0
O200 O 0.07895 0.07828 0.79888 0.0
Fe201 Fe 0.06923 0.1142 0.85435 0.0
O202 O 0.02967 0.12428 0.80504 0.0
O203 O 1.0084 0.07049 0.8104 0.0
O204 O 0.04005 0.05304 0.70374 0.0
C205 C 0.06289 0.05096 0.65659 0.0
C206 C 0.04564 0.05171 0.93138 0.0
O207 O 0.09621 0.05372 0.67162 0.0
C208 C 0.1398 0.10995 0.88022 0.0
O209 O 0.08379 1.0086 0.76853 0.0
O210 O 0.13265 0.03776 0.79134 0.0
O211 O 0.04478 0.08553 0.92089 0.0
O212 O 0.05527 0.0311 0.88308 0.0
C213 C 0.10039 0.14711 0.73111 0.0
O214 O 0.14541 0.10308 0.81509 0.0
O215 O 0.10895 0.10706 0.90579 0.0
C216 C 0.11784 1.00911 0.77528 0.0
O217 O 0.10592 0.11764 0.70269 0.0
O218 O 0.09195 0.14787 0.79623 0.0
C219 C 1.00434 0.10315 0.7947 0.0
Fe220 Fe 0.74612 0.29622 0.04368 0.0
Fe221 Fe 0.71578 0.368 0.99897 0.0
O222 O 0.71235 0.3287 0.04952 0.0
Fe223 Fe 0.67507 0.32153 0.10449 0.0
O224 O 0.66236 0.28276 0.05622 0.0
O225 O 0.71528 0.25795 0.05606 0.0
O226 O 0.73735 0.28988 0.95292 0.0
C227 C 0.74275 0.31294 0.90722 0.0
C228 C 0.73455 0.29421 0.18393 0.0
O229 O 0.741 0.346 0.92368 0.0
C230 C 0.68315 0.39114 0.12988 0.0
O231 O 0.78265 0.32933 0.02703 0.0
O232 O 0.7563 0.38027 0.04359 0.0
O233 O 0.70084 0.29582 0.17242 0.0
O234 O 0.75649 0.29995 0.13529 0.0
C235 C 0.64528 0.35406 0.97967 0.0
O236 O 0.69093 0.39631 0.0649 0.0
O237 O 0.6848 0.36047 0.1557 0.0
C238 C 0.78471 0.36286 0.03753 0.0
O239 O 0.67544 0.35836 0.9517 0.0
O240 O 0.64367 0.34597 0.04483 0.0
C241 C 0.68212 0.25711 0.0408 0.0
Fe242 Fe 0.4948 0.99101 0.29829 0.0
Fe243 Fe 0.42317 0.95992 0.25596 0.0
O244 O 0.46275 0.95673 0.30472 0.0
Fe245 Fe 0.47149 0.91953 0.35831 0.0
O246 O 0.51041 0.90903 0.30607 0.0
O247 O 0.53367 0.96164 0.31706 0.0
O248 O 0.50253 0.98056 0.20879 0.0
C249 C 0.47925 0.98282 0.16199 0.0
C250 C 0.49619 0.98038 0.43759 0.0
O251 O 0.44593 0.98229 0.17828 0.0
C252 C 0.40155 0.92687 0.38876 0.0
O253 O 0.46197 0.02674 0.27371 0.0
O254 O 0.41182 1.00104 0.29933 0.0
O255 O 0.49713 0.9467 0.4253 0.0
O256 O 0.48862 1.00203 0.38918 0.0
C257 C 0.43382 0.89001 0.23817 0.0
O258 O 0.39543 0.93679 0.32538 0.0
O259 O 0.43285 0.92702 0.41268 0.0
C260 C 0.4281 0.0285 0.2808 0.0
O261 O 0.4317 0.91967 0.20909 0.0
O262 O 0.44617 0.88733 0.30066 0.0
C263 C 0.53668 0.92948 0.29777 0.0
Fe264 Fe 0.21266 0.3695 0.60757 0.0
Fe265 Fe 0.17238 0.32033 0.50696 0.0
O266 O 0.20858 0.32847 0.56428 0.0
Fe267 Fe 0.24142 0.29545 0.5785 0.0
O268 O 0.22991 0.29253 0.669 0.0
O269 O 0.23459 0.34963 0.68904 0.0
O270 O 0.17072 0.36399 0.6525 0.0
C271 C 0.14126 0.36047 0.6213 0.0
C272 C 0.28161 0.36083 0.58254 0.0
O273 O 0.13989 0.34803 0.55884 0.0
C274 C 0.23338 0.28988 0.43738 0.0
O275 O 0.19115 0.39573 0.53524 0.0
O276 O 0.18434 0.3569 0.45029 0.0
O277 O 0.27857 0.32776 0.59657 0.0
O278 O 0.25452 0.37756 0.56327 0.0
C279 C 0.17662 0.25803 0.58005 0.0
O280 O 0.19941 0.29182 0.4459 0.0
O281 O 0.25433 0.29617 0.48762 0.0
C282 C 0.18385 0.38848 0.47116 0.0
O283 O 0.15768 0.2837 0.5605 0.0
O284 O 0.20998 0.25773 0.56686 0.0
C285 C 0.23482 0.31739 0.71121 0.0
Fe286 Fe 0.99107 0.98771 0.31894 0.0
Fe287 Fe 0.92041 0.95696 0.36651 0.0
O288 O 0.95875 0.95397 0.31425 0.0
Fe289 Fe 0.96595 0.9167 0.26027 0.0
O290 O 1.0054 0.90476 0.31048 0.0
O291 O 0.02939 0.95722 0.30203 0.0
O292 O 0.99924 0.97809 0.40879 0.0
C293 C 0.97659 0.9825 0.45577 0.0
C294 C 0.99299 0.97678 0.18034 0.0
O295 O 0.9433 0.98128 0.4408 0.0
C296 C 0.89522 0.92578 0.23617 0.0
O297 O 0.95806 0.02381 0.34048 0.0
O298 O 0.90706 0.99731 0.32211 0.0
O299 O 0.99201 0.94309 0.19234 0.0
O300 O 0.98496 0.99841 0.22796 0.0
C301 C 0.93268 0.88745 0.38409 0.0
O302 O 0.8912 0.93274 0.30163 0.0
O303 O 0.92608 0.92576 0.20919 0.0
C304 C 0.92401 0.02536 0.33423 0.0
O305 O 0.93258 0.91724 0.41309 0.0
O306 O 0.94083 0.88506 0.31888 0.0
C307 C 0.03177 0.92486 0.32086 0.0
Fe308 Fe 0.29969 0.73829 0.07158 0.0
Fe309 Fe 0.32776 0.66525 0.11366 0.0
O310 O 0.33257 0.7051 0.06565 0.0
Fe311 Fe 0.37059 0.71302 1.01357 0.0
O312 O 0.3829 0.75012 0.06819 0.0
O313 O 0.33138 0.77599 0.05784 0.0
O314 O 0.30879 0.74347 0.16232 0.0
C315 C 0.3032 0.71998 0.20733 0.0
C316 C 0.3118 0.74148 0.93276 0.0
O317 O 0.30406 0.68705 0.19013 0.0
C318 C 0.36014 0.64447 0.98066 0.0
O319 O 0.26228 0.70665 0.08892 0.0
O320 O 0.28634 0.65493 0.06945 0.0
O321 O 0.34547 0.74073 0.94656 0.0
O322 O 0.28939 0.73466 0.98001 0.0
C323 C 0.39872 0.67557 0.13424 0.0
O324 O 0.35123 0.63786 0.04471 0.0
O325 O 0.36062 0.67582 0.95805 0.0
C326 C 0.25869 0.6735 0.0769 0.0
O327 O 0.36849 0.6725 0.16203 0.0
O328 O 0.40168 0.68628 0.07074 0.0
C329 C 0.36374 0.77692 0.07829 0.0
Fe330 Fe 0.54956 0.04588 0.82206 0.0
Fe331 Fe 0.62131 0.07655 0.86727 0.0
O332 O 0.58179 0.07989 0.81672 0.0
Fe333 Fe 0.57401 0.11729 0.76287 0.0
O334 O 0.53453 0.12886 0.81084 0.0
O335 O 0.51064 0.07585 0.80932 0.0
O336 O 0.54287 0.05452 0.91255 0.0
C337 C 0.56596 0.04918 0.95834 0.0
C338 C 0.54766 0.05787 0.68208 0.0
O339 O 0.59924 0.05092 0.94204 0.0
C340 C 0.64424 0.11082 0.73741 0.0
O341 O 0.58325 1.01 0.83911 0.0
O342 O 0.63423 0.0367 0.82203 0.0
O343 O 0.54883 0.09143 0.69398 0.0
O344 O 0.55377 0.03594 0.73046 0.0
C345 C 0.60669 0.14603 0.88897 0.0
O346 O 0.64961 0.10221 0.80195 0.0
O347 O 0.61344 0.10902 0.71163 0.0
C348 C 0.61698 1.00825 0.82823 0.0
O349 O 0.61101 0.11583 0.91556 0.0
O350 O 0.59798 0.14843 0.82408 0.0
C351 C 0.50894 0.10866 0.82544 0.0
C352 C 0.18936 0.1765 0.99987 0.0
C353 C 0.22074 0.15715 1.01541 0.0
C354 C 0.19703 0.10557 0.95041 0.0
C355 C 0.16796 0.1264 0.92618 0.0
N356 N 0.13518 0.18194 0.9313 0.0
N357 N 0.24134 0.09811 0.04192 0.0
C358 C 0.16349 0.16178 0.95276 0.0
C359 C 0.221 0.12004 1.00111 0.0
N360 N 0.18293 0.20748 0.03508 0.0
N361 N 0.20182 0.07188 0.92548 0.0
H362 H 0.25359 0.10747 0.08754 0.0
H363 H 0.24107 0.0705 0.03783 0.0
H364 H 0.18404 0.05969 0.89078 0.0
H365 H 0.2248 0.05704 0.93548 0.0
H366 H 0.15937 0.22202 0.03107 0.0
H367 H 0.19938 0.21621 0.07593 0.0
H368 H 0.13336 0.20924 0.93925 0.0
H369 H 0.11396 0.17185 0.90256 0.0
C370 C 0.68758 0.44828 0.19975 0.0
C371 C 0.66654 0.41952 0.17489 0.0
C372 C 0.61545 0.44178 0.24509 0.0
C373 C 0.63469 0.47329 0.25942 0.0
N374 N 0.69374 0.49536 0.28585 0.0
N375 N 0.60994 0.38782 0.17776 0.0
C376 C 0.67226 0.47352 0.24691 0.0
C377 C 0.63047 0.41574 0.19942 0.0
N378 N 0.72236 0.45139 0.17879 0.0
N379 N 0.58428 0.43529 0.28048 0.0
H380 H 0.62013 0.36589 0.15184 0.0
H381 H 0.58224 0.38698 0.18327 0.0
H382 H 0.57532 0.45177 0.32087 0.0
H383 H 0.57008 0.41152 0.2775 0.0
H384 H 0.7378 0.47404 0.18736 0.0
H385 H 0.73519 0.43183 0.14952 0.0
H386 H 0.72154 0.49518 0.28321 0.0
H387 H 0.68404 0.50979 0.32859 0.0
C388 C 0.376 0.87327 0.45458 0.0
C389 C 0.37296 0.90979 0.43326 0.0
C390 C 0.31854 0.91437 0.5051 0.0
C391 C 0.31777 0.87673 0.51394 0.0
N392 N 0.35458 0.82522 0.52954 0.0
N393 N 0.34052 0.96505 0.43874 0.0
C394 C 0.34907 0.85741 0.49783 0.0
C395 C 0.34395 0.93029 0.45868 0.0
N396 N 0.40392 0.85305 0.43164 0.0
N397 N 0.29758 0.93519 0.54694 0.0
H398 H 0.35951 0.97828 0.40813 0.0
H399 H 0.31766 0.98001 0.4488 0.0
H400 H 0.28344 0.92471 0.58954 0.0
H401 H 0.29864 0.96287 0.54689 0.0
H402 H 0.40418 0.82539 0.43402 0.0
H403 H 0.4265 0.86354 0.40788 0.0
H404 H 0.37814 0.81068 0.52534 0.0
H405 H 0.33755 0.81538 0.56845 0.0
C406 C 0.85684 0.58159 0.70182 0.0
C407 C 0.87569 0.61221 0.67895 0.0
C408 C 0.92894 0.59147 0.74565 0.0
C409 C 0.91048 0.5598 0.76375 0.0
N410 N 0.8521 0.53783 0.79457 0.0
N411 N 0.92747 0.65073 0.69652 0.0
C412 C 0.87292 0.55852 0.75213 0.0
C413 C 0.9111 0.61852 0.70599 0.0
N414 N 0.82318 0.57483 0.67731 0.0
N415 N 0.96336 0.59619 0.76789 0.0
H416 H 0.91685 0.67152 0.66767 0.0
H417 H 0.95092 0.65832 0.72186 0.0
H418 H 0.97401 0.58207 0.81027 0.0
H419 H 0.9811 0.61428 0.74529 0.0
H420 H 0.80982 0.551 0.6874 0.0
H421 H 0.80968 0.59182 0.64297 0.0
H422 H 0.82426 0.53741 0.79193 0.0
H423 H 0.86258 0.52607 0.83983 0.0
C424 C 0.83994 0.85396 0.1485 0.0
C425 C 0.8193 0.87259 0.09816 0.0
C426 C 0.85202 0.92731 0.13261 0.0
C427 C 0.86556 0.90954 0.1933 0.0
N428 N 0.86455 0.85637 0.26509 0.0
N429 N 0.81052 0.92707 0.03358 0.0
C430 C 0.85704 0.87305 0.20318 0.0
C431 C 0.82687 0.90944 0.08756 0.0
N432 N 0.84545 0.81834 0.14169 0.0
N433 N 0.86346 0.96103 0.11782 0.0
H434 H 0.79645 0.91368 0.99425 0.0
H435 H 0.81082 0.9546 0.02783 0.0
H436 H 0.88019 0.97527 0.15153 0.0
H437 H 0.85782 0.97427 0.07097 0.0
H438 H 0.86195 0.80397 0.17565 0.0
H439 H 0.83855 0.80485 0.09574 0.0
H440 H 0.85678 0.83023 0.27558 0.0
H441 H 0.87361 0.8702 0.30874 0.0
C442 C 0.36933 0.56266 0.86238 0.0
C443 C 0.40596 0.56465 0.84239 0.0
C444 C 0.41056 0.62221 0.90199 0.0
C445 C 0.37603 0.61666 0.93342 0.0
N446 N 0.32332 0.58004 0.94466 0.0
N447 N 0.45453 0.60357 0.81481 0.0
C448 C 0.3557 0.58639 0.91395 0.0
C449 C 0.42446 0.59681 0.85345 0.0
N450 N 0.34666 0.54061 0.82686 0.0
N451 N 0.43149 0.65017 0.92237 0.0
H452 H 0.4635 0.58605 0.77612 0.0
H453 H 0.46793 0.62784 0.81452 0.0
H454 H 0.42339 0.66955 0.95752 0.0
H455 H 0.45835 0.6528 0.90901 0.0
H456 H 0.31917 0.53971 0.83553 0.0
H457 H 0.35437 0.52791 0.78074 0.0
H458 H 0.30941 0.55619 0.93891 0.0
H459 H 0.31166 0.59752 0.98011 0.0
C460 C 0.66929 0.16446 0.6713 0.0
C461 C 0.67256 0.12796 0.69239 0.0
C462 C 0.7239 0.12242 0.61266 0.0
C463 C 0.72516 0.15997 0.60401 0.0
N464 N 0.68928 0.21249 0.59459 0.0
N465 N 0.70271 0.07182 0.67995 0.0
C466 C 0.69503 0.17997 0.62485 0.0
C467 C 0.69993 0.1069 0.6623 0.0
N468 N 0.64196 0.18473 0.69651 0.0
N469 N 0.74236 0.10143 0.56701 0.0
H470 H 0.68394 0.059 0.71152 0.0
H471 H 0.72461 0.05616 0.66642 0.0
H472 H 0.75377 0.11217 0.52172 0.0
H473 H 0.74108 0.07377 0.56693 0.0
H474 H 0.64154 0.21238 0.69406 0.0
H475 H 0.61985 0.17409 0.72156 0.0
H476 H 0.66656 0.22786 0.60269 0.0
H477 H 0.70515 0.22206 0.55354 0.0
C478 C 0.18934 0.44639 0.40421 0.0
C479 C 0.16865 0.41615 0.42264 0.0
C480 C 0.11902 0.43907 0.34904 0.0
C481 C 0.1377 0.4714 0.34031 0.0
N482 N 0.19697 0.49535 0.32297 0.0
N483 N 0.11279 0.38342 0.41137 0.0
C484 C 0.17483 0.47224 0.3573 0.0
C485 C 0.13351 0.41198 0.39338 0.0
N486 N 0.22291 0.4506 0.43147 0.0
N487 N 0.0884 0.43358 0.31128 0.0
H488 H 0.12194 0.36183 0.44014 0.0
H489 H 0.08547 0.38193 0.40123 0.0
H490 H 0.07918 0.45206 0.27444 0.0
H491 H 0.0748 0.40944 0.30941 0.0
H492 H 0.2373 0.47427 0.42754 0.0
H493 H 0.23564 0.43117 0.4616 0.0
H494 H 0.22463 0.49572 0.32931 0.0
H495 H 0.18845 0.50987 0.27946 0.0
C496 C 0.69124 0.60324 0.47111 0.0
C497 C 0.67848 0.62114 0.40992 0.0
C498 C 0.70347 0.67674 0.45585 0.0
C499 C 0.72256 0.65812 0.50901 0.0
N500 N 0.73001 0.6036 0.57421 0.0
N501 N 0.67986 0.6742 0.33799 0.0
C502 C 0.71505 0.6212 0.51862 0.0
C503 C 0.6872 0.65754 0.40016 0.0
N504 N 0.68004 0.56924 0.48424 0.0
N505 N 0.69821 0.71253 0.46106 0.0
H506 H 0.66957 0.66082 0.29463 0.0
H507 H 0.68825 0.7001 0.32707 0.0
H508 H 0.70389 0.72647 0.50709 0.0
H509 H 0.68278 0.7269 0.42521 0.0
H510 H 0.68472 0.55581 0.53128 0.0
H511 H 0.66463 0.55479 0.44847 0.0
H512 H 0.72995 0.57605 0.57963 0.0
H513 H 0.7426 0.61697 0.61545 0.0
C514 C 0.18303 0.95916 0.65217 0.0
C515 C 0.17986 0.92389 0.67821 0.0
C516 C 0.13928 0.94524 0.77141 0.0
C517 C 0.14081 0.98025 0.74393 0.0
N518 N 0.17339 0.02198 0.66849 0.0
N519 N 0.17239 0.8908 0.78685 0.0
C520 C 0.16563 0.98775 0.68788 0.0
C521 C 0.16308 0.9189 0.74503 0.0
N522 N 0.20315 0.96573 0.59358 0.0
N523 N 0.11584 0.93704 0.82413 0.0
H524 H 0.19444 0.87478 0.77613 0.0
H525 H 0.1625 0.88729 0.83767 0.0
H526 H 0.09954 0.95587 0.84833 0.0
H527 H 0.11109 0.91096 0.84045 0.0
H528 H 0.20062 0.98862 0.56298 0.0
H529 H 0.2227 0.94825 0.57579 0.0
H530 H 0.19487 0.02874 0.63627 0.0
H531 H 0.16065 0.04445 0.68721 0.0
C532 C 0.87891 0.3793 0.96798 0.0
C533 C 0.8724 0.41127 0.92818 0.0
C534 C 0.81593 0.41827 0.9918 0.0
C535 C 0.81846 0.38304 0.01869 0.0
N536 N 0.85616 0.33386 0.04849 0.0
N537 N 0.83169 0.45876 0.89826 0.0
C538 C 0.85144 0.36496 1.01232 0.0
C539 C 0.83992 0.42985 0.93861 0.0
N540 N 0.91098 0.36209 0.96256 0.0
N541 N 0.79264 0.44182 0.0212 0.0
H542 H 0.84843 0.46838 0.85896 0.0
H543 H 0.80668 0.47097 0.89952 0.0
H544 H 0.77931 0.43618 0.06795 0.0
H545 H 0.7914 0.46854 1.0067 0.0
H546 H 0.91936 0.34199 0.99634 0.0
H547 H 0.93 0.36787 0.92451 0.0
H548 H 0.87679 0.31592 0.03952 0.0
H549 H 0.83889 0.32607 0.08886 0.0
C550 C 0.41974 0.09353 0.25199 0.0
C551 C 0.40742 0.05807 0.24558 0.0
C552 C 0.3583 0.08008 0.16957 0.0
C553 C 0.37413 0.11425 0.16698 0.0
N554 N 0.42609 0.15049 0.19535 0.0
N555 N 0.36789 1.01728 0.18191 0.0
C556 C 0.40651 0.12022 0.20547 0.0
C557 C 0.37734 0.05114 0.20037 0.0
N558 N 0.44355 0.10218 0.3038 0.0
N559 N 0.32449 0.07517 0.14428 0.0
H560 H 0.38078 0.99438 0.19844 0.0
H561 H 0.34913 1.01189 0.14275 0.0
H562 H 0.30965 0.09571 0.12216 0.0
H563 H 0.30997 0.05181 0.15214 0.0
H564 H 0.45071 0.12834 0.31521 0.0
H565 H 0.45292 0.08374 0.34053 0.0
H566 H 0.45162 0.15398 0.2163 0.0
H567 H 0.41911 0.17042 0.16009 0.0
C568 C 0.33858 0.43358 0.67047 0.0
C569 C 0.37133 0.41559 0.67862 0.0
C570 C 0.3478 0.3673 0.60437 0.0
C571 C 0.3129 0.38166 0.60988 0.0
N572 N 0.27503 0.42673 0.66581 0.0
N573 N 0.40557 0.36153 0.65954 0.0
C574 C 0.30812 0.41456 0.64696 0.0
C575 C 0.37578 0.38152 0.64673 0.0
N576 N 0.33655 0.4691 0.68444 0.0
N577 N 0.35448 0.34043 0.55798 0.0
H578 H 0.42676 0.36983 0.69082 0.0
H579 H 0.40773 0.33505 0.64408 0.0
H580 H 0.33494 0.33024 0.52436 0.0
H581 H 0.38019 0.33119 0.54735 0.0
H582 H 0.31386 0.48424 0.67354 0.0
H583 H 0.35904 0.48397 0.6982 0.0
H584 H 0.27157 0.44866 0.69856 0.0
H585 H 0.25118 0.41326 0.65773 0.0
C586 C 0.90463 0.12012 0.39391 0.0
C587 C 0.87247 0.1161 0.434 0.0
C588 C 0.87365 0.05223 0.40919 0.0
C589 C 0.90371 0.05675 0.36292 0.0
N590 N 0.94039 0.09781 0.2973 0.0
N591 N 0.82105 0.07979 0.45861 0.0
C592 C 0.91666 0.09164 0.35057 0.0
C593 C 0.85527 0.08265 0.43454 0.0
N594 N 0.92546 0.1498 0.40054 0.0
N595 N 0.86393 0.01957 0.43468 0.0
H596 H 0.80658 0.10191 0.47472 0.0
H597 H 0.80598 0.05654 0.4542 0.0
H598 H 0.87742 0.99602 0.42503 0.0
H599 H 0.84459 1.01641 0.47374 0.0
H600 H 0.95077 0.1519 0.37791 0.0
H601 H 0.91987 0.17056 0.43478 0.0
H602 H 0.94823 0.12332 0.28218 0.0
H603 H 0.94897 0.07782 0.26327 0.0
C604 C 0.19806 0.60196 0.15255 0.0
C605 C 0.17089 0.62344 0.1824 0.0
C606 C 0.19359 0.67483 0.11403 0.0
C607 C 0.22405 0.65488 0.09521 0.0
N608 N 0.2426 0.59637 0.06065 0.0
N609 N 0.14136 0.68086 0.18729 0.0
C610 C 0.22288 0.61736 0.10427 0.0
C611 C 0.1679 0.65987 0.16097 0.0
N612 N 0.19989 0.56673 0.1695 0.0
N613 N 0.18776 0.70689 0.08204 0.0
H614 H 0.11975 0.67106 0.21529 0.0
H615 H 0.14152 0.70849 0.18373 0.0
H616 H 0.2041 0.71622 0.04147 0.0
H617 H 0.16454 0.72179 0.08819 0.0
H618 H 0.22158 0.55063 0.15681 0.0
H619 H 0.18022 0.554 0.1991 0.0
H620 H 0.24166 0.56871 0.0609 0.0
H621 H 0.25534 0.60701 1.01661 0.0
C622 C 0.63512 0.91481 0.89843 0.0
C623 C 0.66904 0.92091 0.93252 0.0
C624 C 0.67419 0.97685 0.86667 0.0
C625 C 0.63759 0.97471 0.84621 0.0
N626 N 0.5867 0.93748 0.82505 0.0
N627 N 0.72022 0.95918 0.9491 0.0
C628 C 0.61933 0.94215 0.85623 0.0
C629 C 0.68819 0.95251 0.91708 0.0
N630 N 0.61777 0.88298 0.90581 0.0
N631 N 0.6966 0.99983 0.83274 0.0
H632 H 0.73274 0.94122 0.98286 0.0
H633 H 0.73314 0.9837 0.9457 0.0
H634 H 0.68878 1.01312 0.78722 0.0
H635 H 0.72407 1.00095 0.84182 0.0
H636 H 0.59635 0.87494 0.87475 0.0
H637 H 0.62487 0.86341 0.9415 0.0
H638 H 0.5684 0.91784 0.839 0.0
H639 H 0.57799 0.95371 0.78387 0.0
C640 C 0.45951 0.17129 0.94899 0.0
C641 C 0.42353 0.16024 0.94197 0.0
C642 C 0.44261 0.11566 0.85443 0.0
C643 C 0.47888 0.12409 0.86779 0.0
N644 N 0.5207 0.15178 0.94835 0.0
N645 N 0.38337 0.113 0.90369 0.0
C646 C 0.48701 0.14955 0.92115 0.0
C647 C 0.41569 0.12986 0.89921 0.0
N648 N 0.46773 0.20298 0.98013 0.0
N649 N 0.43335 0.09521 0.79801 0.0
H650 H 0.36353 0.11999 0.9393 0.0
H651 H 0.37805 0.08904 0.87823 0.0
H652 H 0.45193 0.08489 0.76285 0.0
H653 H 0.40688 0.09157 0.78229 0.0
H654 H 0.49359 0.2134 0.98048 0.0
H655 H 0.44839 0.22065 0.99836 0.0
H656 H 0.52725 0.16813 0.9907 0.0
H657 H 0.54049 0.13348 0.93577 0.0
C658 C 0.62185 0.71225 0.21547 0.0
C659 C 0.61392 0.67911 0.18363 0.0
C660 C 0.64259 0.69988 0.07343 0.0
C661 C 0.65414 0.73108 0.10788 0.0
N662 N 0.65609 0.76678 0.21347 0.0
N663 N 0.60059 0.65122 0.07217 0.0
C664 C 0.64403 0.73721 0.17932 0.0
C665 C 0.61989 0.67553 0.1096 0.0
N666 N 0.60497 0.72168 0.27641 0.0
N667 N 0.65315 0.69344 1.00581 0.0
H668 H 0.57967 0.63703 0.09464 0.0
H669 H 0.60126 0.64907 1.01758 0.0
H670 H 0.66762 0.71174 0.97595 0.0
H671 H 0.6497 0.66899 0.98103 0.0
H672 H 0.60751 0.74655 0.29984 0.0
H673 H 0.58398 0.70694 0.29767 0.0
H674 H 0.65521 0.76974 0.26794 0.0
H675 H 0.66793 0.78808 0.18751 0.0
C676 C 0.08232 0.92863 0.41235 0.0
C677 C 0.06433 0.90961 0.35776 0.0
C678 C 0.09301 0.85393 0.39884 0.0
C679 C 0.10989 0.87254 0.45439 0.0
N680 N 0.12123 0.9273 0.51477 0.0
N681 N 0.0626 0.85693 0.28609 0.0
C682 C 0.10441 0.90979 0.4614 0.0
C683 C 0.0725 0.87294 0.34761 0.0
N684 N 0.0782 0.96461 0.41828 0.0
N685 N 0.09611 0.81774 0.396 0.0
H686 H 0.05043 0.87091 0.24508 0.0
H687 H 0.07008 0.83127 0.27204 0.0
H688 H 0.11078 0.80328 0.43305 0.0
H689 H 0.08167 0.80181 0.36141 0.0
H690 H 0.086 0.97942 0.46171 0.0
H691 H 0.06863 0.98074 0.37817 0.0
H692 H 0.12559 0.95459 0.51633 0.0
H693 H 0.13033 0.91394 0.55917 0.0
C694 C 0.8653 0.32851 0.66385 0.0
C695 C 0.88326 0.3113 0.60712 0.0
C696 C 0.94016 0.33942 0.64475 0.0
C697 C 0.92271 0.35451 0.70368 0.0
N698 N 0.8702 0.36038 0.7745 0.0
N699 N 0.93501 0.30934 0.53198 0.0
C700 C 0.88569 0.34789 0.71463 0.0
C701 C 0.92008 0.31918 0.59464 0.0
N702 N 0.82886 0.32662 0.66931 0.0
N703 N 0.9763 0.34392 0.63797 0.0
H704 H 0.9201 0.29747 0.49194 0.0
H705 H 0.96075 0.31615 0.5162 0.0
H706 H 0.9914 0.35824 0.67449 0.0
H707 H 0.99185 0.33128 0.6002 0.0
H708 H 0.81393 0.33607 0.71128 0.0
H709 H 0.81224 0.31857 0.62864 0.0
H710 H 0.84294 0.36242 0.78368 0.0
H711 H 0.88561 0.3666 0.81813 0.0
C712 C 0.61004 0.91629 0.15907 0.0
C713 C 0.61415 0.87873 0.1632 0.0
C714 C 0.57662 0.87795 0.26895 0.0
C715 C 0.56944 0.91495 0.2615 0.0
N716 N 0.58326 0.9706 0.20267 0.0
N717 N 0.59423 0.82327 0.2114 0.0
C718 C 0.58772 0.93463 0.20815 0.0
C719 C 0.59545 0.85946 0.21532 0.0
N720 N 0.62746 0.93445 0.10729 0.0
N721 N 0.5667 0.86076 0.3293 0.0
H722 H 0.60545 0.80958 0.16917 0.0
H723 H 0.57851 0.80753 0.24436 0.0
H724 H 0.5553 0.87414 0.3718 0.0
H725 H 0.57375 0.83455 0.3405 0.0
H726 H 0.63188 0.96176 0.10702 0.0
H727 H 0.63641 0.92162 0.0625 0.0
H728 H 0.59066 0.9856 0.15903 0.0
H729 H 0.57316 0.98638 0.24268 0.0
C730 C 0.35379 0.33493 0.96634 0.0
C731 C 0.37505 0.31161 1.00861 0.0
C732 C 0.42911 0.3363 0.95118 0.0
C733 C 0.40838 0.36197 0.91533 0.0
N734 N 0.35058 0.3907 0.90457 0.0
N735 N 0.43403 0.30154 0.05762 0.0
C736 C 0.37069 0.36271 0.92747 0.0
C737 C 0.41308 0.31555 1.0056 0.0
N738 N 0.31754 0.33096 0.96084 0.0
N739 N 0.46429 0.33193 0.93432 0.0
H740 H 0.42333 0.2901 0.10306 0.0
H741 H 0.46154 0.30588 0.06044 0.0
H742 H 0.47666 0.34646 0.8943 0.0
H743 H 0.4799 0.31152 0.9552 0.0
H744 H 0.30273 0.34307 0.92094 0.0
H745 H 0.30177 0.31518 0.99296 0.0
H746 H 0.32418 0.39481 0.92015 0.0
H747 H 0.36084 0.41166 0.87574 0.0
C748 C 0.93606 0.12228 0.65162 0.0
C749 C 0.93075 0.15929 0.6632 0.0
C750 C 0.96271 0.15422 0.77568 0.0
C751 C 0.97135 0.1182 0.76061 0.0
N752 N 0.95909 0.06545 0.69269 0.0
N753 N 0.94125 0.21136 0.73296 0.0
C754 C 0.95544 0.10131 0.70155 0.0
C755 C 0.94469 0.17543 0.72455 0.0
N756 N 0.9221 0.10727 0.59252 0.0
N757 N 0.97044 0.16746 0.84087 0.0
H758 H 0.92855 0.22745 0.69571 0.0
H759 H 0.95352 0.22567 0.77312 0.0
H760 H 0.98152 0.15163 0.88049 0.0
H761 H 0.96251 0.19245 0.85826 0.0
H762 H 0.91816 0.0802 0.58504 0.0
H763 H 0.91541 0.12274 0.54925 0.0
H764 H 0.95147 0.0516 0.64793 0.0
H765 H 0.96792 0.04853 0.73232 0.0
C766 C 0.1665 0.6752 0.43893 0.0
C767 C 0.12924 0.6753 0.42396 0.0
C768 C 0.12133 0.72224 0.51268 0.0
C769 C 0.15906 0.72302 0.52509 0.0
N770 N 0.21239 0.68694 0.52503 0.0
N771 N 0.07199 0.70317 0.43794 0.0
C772 C 0.1803 0.69572 0.49541 0.0
C773 C 0.10686 0.70012 0.45839 0.0
N774 N 0.18928 0.65687 0.39647 0.0
N775 N 0.099 0.73966 0.55783 0.0
H776 H 0.06106 0.68772 0.3978 0.0
H777 H 0.05494 0.72311 0.45557 0.0
H778 H 0.10816 0.75123 0.60429 0.0
H779 H 0.07123 0.73823 0.55532 0.0
H780 H 0.21703 0.65847 0.40065 0.0
H781 H 0.18054 0.64461 0.35075 0.0
H782 H 0.22771 0.66543 0.50832 0.0
H783 H 0.22067 0.69689 0.57349 0.0
C784 C 0.96204 0.66478 0.46982 0.0
C785 C 0.92692 0.66508 0.44187 0.0
C786 C 0.94663 0.62749 0.34321 0.0
C787 C 0.98076 0.62407 0.37458 0.0
N788 N 0.02089 0.63784 0.47037 0.0
N789 N 0.89483 0.66511 0.33123 0.0
C790 C 0.98847 0.64249 0.4385 0.0
C791 C 0.92152 0.6516 0.37254 0.0
N792 N 0.97105 0.68856 0.52118 0.0
N793 N 0.93798 0.60793 0.28521 0.0
H794 H 0.88023 0.68759 0.34538 0.0
H795 H 0.8913 0.65817 0.27863 0.0
H796 H 0.95564 0.59016 0.26183 0.0
H797 H 0.91214 0.60678 0.26472 0.0
H798 H 0.99681 0.69195 0.54073 0.0
H799 H 0.95387 0.70883 0.53694 0.0
H800 H 0.02746 0.64819 0.51939 0.0
H801 H 0.04075 0.62139 0.45012 0.0
C802 C 0.15179 0.19645 0.59063 0.0
C803 C 0.15878 0.22957 0.62206 0.0
C804 C 0.12008 0.21272 0.72275 0.0
C805 C 0.11316 0.17941 0.69023 0.0
N806 N 0.10778 0.15051 0.5771 0.0
N807 N 0.14571 0.27187 0.71372 0.0
C808 C 0.12474 0.17445 0.61932 0.0
C809 C 0.14188 0.2384 0.68712 0.0
N810 N 0.17052 0.18589 0.53273 0.0
N811 N 0.10481 0.22055 0.78606 0.0
H812 H 0.16219 0.29104 0.69107 0.0
H813 H 0.13143 0.2815 0.75653 0.0
H814 H 0.08198 0.20764 0.80435 0.0
H815 H 0.11378 0.24068 0.81917 0.0
H816 H 0.16829 0.16044 0.51152 0.0
H817 H 0.19103 0.20108 0.51098 0.0
H818 H 0.1133 0.14774 0.52361 0.0
H819 H 0.08458 0.13767 0.59317 0.0
C820 C 0.61728 0.37937 0.86843 0.0
C821 C 0.61275 0.36658 0.93868 0.0
C822 C 0.55202 0.39205 0.93785 0.0
C823 C 0.55978 0.40975 0.87306 0.0
N824 N 0.6014 0.42268 0.77966 0.0
N825 N 0.57116 0.35252 0.03178 0.0
C826 C 0.59307 0.40452 0.83984 0.0
C827 C 0.57869 0.37056 0.9711 0.0
N828 N 0.64246 0.36447 0.82593 0.0
N829 N 0.51859 0.39497 0.96638 0.0
H830 H 0.58491 0.3296 0.04644 0.0
H831 H 0.55028 0.35881 0.06565 0.0
H832 H 0.49913 0.41202 0.9464 0.0
H833 H 0.50932 0.38009 1.00877 0.0
H834 H 0.64524 0.37048 0.77265 0.0
H835 H 0.65629 0.34187 0.84116 0.0
H836 H 0.62701 0.42278 0.75799 0.0
H837 H 0.58369 0.43987 0.75444 0.0
C838 C 0.36001 0.83156 0.15903 0.0
C839 C 0.38021 0.8085 0.11488 0.0
C840 C 0.43563 0.83483 0.1635 0.0
C841 C 0.41538 0.86006 0.20131 0.0
N842 N 0.3577 0.88963 0.21016 0.0
N843 N 0.43749 0.79933 0.05791 0.0
C844 C 0.37747 0.86057 0.19205 0.0
C845 C 0.4182 0.81318 0.11237 0.0
N846 N 0.32435 0.82647 0.17128 0.0
N847 N 0.47166 0.83233 0.17417 0.0
H848 H 0.42546 0.78751 1.01429 0.0
H849 H 0.46472 0.80418 0.05106 0.0
H850 H 0.48538 0.84852 0.20966 0.0
H851 H 0.48713 0.81214 0.15227 0.0
H852 H 0.31074 0.83991 0.21103 0.0
H853 H 0.30832 0.8079 0.1465 0.0
H854 H 0.33064 0.8922 0.19789 0.0
H855 H 0.36873 0.91325 0.22736 0.0
C856 C 0.08914 0.35716 0.70242 0.0
C857 C 0.1098 0.37761 0.65565 0.0
C858 C 0.08795 0.43249 0.71263 0.0
C859 C 0.06889 0.41141 0.76292 0.0
N860 N 0.06314 0.35379 0.81833 0.0
N861 N 0.12685 0.4346 0.61028 0.0
C862 C 0.07295 0.37373 0.76133 0.0
C863 C 0.10835 0.4153 0.659 0.0
N864 N 0.0841 0.32191 0.68919 0.0
N865 N 0.08663 0.46876 0.71525 0.0
H866 H 0.1355 0.42307 0.56369 0.0
H867 H 0.13248 0.46162 0.61423 0.0
H868 H 0.08037 0.48284 0.76051 0.0
H869 H 0.09348 0.48532 0.67343 0.0
H870 H 0.06658 0.30603 0.71818 0.0
H871 H 0.09462 0.30984 0.64432 0.0
H872 H 0.06801 0.32657 0.82206 0.0
H873 H 0.05453 0.36533 0.86528 0.0
C874 C 0.87572 0.83894 0.52066 0.0
C875 C 0.88303 0.80291 0.50606 0.0
C876 C 0.92634 0.82195 0.41587 0.0
C877 C 0.91511 0.85767 0.42371 0.0
N878 N 0.86769 0.89626 0.46739 0.0
N879 N 0.90644 0.7611 0.42089 0.0
C880 C 0.88649 0.86519 0.47147 0.0
C881 C 0.90595 0.79455 0.44835 0.0
N882 N 0.85941 0.84851 0.58197 0.0
N883 N 0.95663 0.81388 0.37918 0.0
H884 H 0.88828 0.74168 0.43654 0.0
H885 H 0.92094 0.75449 0.37593 0.0
H886 H 0.97334 0.83318 0.35736 0.0
H887 H 0.96706 0.7882 0.3774 0.0
H888 H 0.85603 0.87501 0.59657 0.0
H889 H 0.85353 0.83024 0.62164 0.0
H890 H 0.84524 0.90118 0.49842 0.0
H891 H 0.87091 0.91463 0.42685 0.0
C892 C 0.44545 0.67963 0.22965 0.0
C893 C 0.42941 0.65991 0.1744 0.0
C894 C 0.45403 0.60466 0.225 0.0
C895 C 0.4752 0.62472 0.27277 0.0
N896 N 0.4852 0.68072 0.33113 0.0
N897 N 0.42247 0.60431 0.11383 0.0
C898 C 0.4691 0.66216 0.27805 0.0
C899 C 0.43501 0.62263 0.17056 0.0
N900 N 0.43725 0.7149 0.23652 0.0
N901 N 0.45036 0.56874 0.23337 0.0
H902 H 0.41217 0.6172 0.0699 0.0
H903 H 0.42643 0.57724 0.1062 0.0
H904 H 0.45924 0.55518 0.27775 0.0
H905 H 0.43343 0.55313 0.20279 0.0
H906 H 0.44489 0.73065 0.27884 0.0
H907 H 0.42165 0.72855 0.19981 0.0
H908 H 0.48626 0.70831 0.3339 0.0
H909 H 0.49723 0.66804 0.37392 0.0
C910 C 0.63399 0.17136 1.0005 0.0
C911 C 0.61996 0.17747 0.93154 0.0
C912 C 0.64659 0.23732 0.93543 0.0
C913 C 0.66551 0.2281 0.9983 0.0
N914 N 0.68098 0.18366 0.08436 0.0
N915 N 0.60602 0.22056 0.84147 0.0
C916 C 0.6607 0.19414 0.0283 0.0
C917 C 0.62425 0.21178 0.90129 0.0
N918 N 0.61922 0.14587 0.04264 0.0
N919 N 0.6492 0.27112 0.90954 0.0
H920 H 0.58285 0.2073 0.82601 0.0
H921 H 0.61275 0.24183 0.80891 0.0
H922 H 0.66834 0.28905 0.92732 0.0
H923 H 0.63231 0.28175 0.87145 0.0
H924 H 0.62647 0.1421 0.0951 0.0
H925 H 0.59583 0.13271 0.02875 0.0
H926 H 0.68059 0.15775 0.10402 0.0
H927 H 0.70079 0.19964 0.10635 0.0
C928 C 0.29679 0.28797 0.27885 0.0
C929 C 0.29437 0.25166 0.25874 0.0
C930 C 0.2462 0.24258 0.34589 0.0
C931 C 0.25036 0.27812 0.36975 0.0
N932 N 0.28145 0.33431 0.36235 0.0
N933 N 0.27167 0.19291 0.28147 0.0
C934 C 0.27634 0.30061 0.33725 0.0
C935 C 0.27045 0.2286 0.29492 0.0
N936 N 0.3172 0.31091 0.23994 0.0
N937 N 0.21871 0.22223 0.37094 0.0
H938 H 0.28954 0.18186 0.24546 0.0
H939 H 0.2577 0.17395 0.31053 0.0
H940 H 0.20022 0.23156 0.4073 0.0
H941 H 0.21201 0.19739 0.35077 0.0
H942 H 0.31635 0.33843 0.24539 0.0
H943 H 0.33383 0.30265 0.19925 0.0
H944 H 0.30313 0.35026 0.34849 0.0
H945 H 0.26466 0.34599 0.39952 0.0
C946 C 0.49512 0.49562 0.55821 0.0
C947 C 0.51564 0.49571 0.62086 0.0
C948 C 0.5578 0.53892 0.56623 0.0
C949 C 0.53721 0.53869 0.50342 0.0
N950 N 0.48858 0.51277 0.43652 0.0
N951 N 0.56576 0.51841 0.68685 0.0
C952 C 0.50653 0.51594 0.49883 0.0
C953 C 0.54688 0.5176 0.62523 0.0
N954 N 0.46321 0.47782 0.55673 0.0
N955 N 0.58901 0.55797 0.56787 0.0
H956 H 0.56063 0.50103 0.72839 0.0
H957 H 0.58588 0.53662 0.69821 0.0
H958 H 0.59715 0.57452 0.52678 0.0
H959 H 0.60783 0.55655 0.60805 0.0
H960 H 0.4439 0.48123 0.51783 0.0
H961 H 0.45488 0.46092 0.59685 0.0
H962 H 0.47046 0.49248 0.42557 0.0
H963 H 0.49289 0.5294 0.39386 0.0
C964 C 0.27463 0.80496 0.79275 0.0
C965 C 0.25055 0.78198 0.75656 0.0
C966 C 0.27303 0.73128 0.82691 0.0
C967 C 0.29641 0.75448 0.86436 0.0
N968 N 0.31684 0.81395 0.88856 0.0
N969 N 0.22834 0.72286 0.73508 0.0
C970 C 0.29678 0.79142 0.84817 0.0
C971 C 0.24993 0.74504 0.77315 0.0
N972 N 0.27687 0.83987 0.77267 0.0
N973 N 0.27245 0.69596 0.84457 0.0
H974 H 0.20957 0.73207 0.69894 0.0
H975 H 0.22912 0.69527 0.7375 0.0
H976 H 0.29093 0.68461 0.87913 0.0
H977 H 0.2536 0.67775 0.82672 0.0
H978 H 0.29691 0.85717 0.78915 0.0
H979 H 0.25927 0.8514 0.73662 0.0
H980 H 0.31485 0.84152 0.8867 0.0
H981 H 0.33466 0.80506 0.92688 0.0
C982 C 0.05777 0.51615 0.08534 0.0
C983 C 0.03454 0.54121 0.11804 0.0
C984 C 0.98513 0.52005 0.04292 0.0
C985 C 1.00867 0.49622 1.00793 0.0
N986 N 0.06878 0.47508 0.98936 0.0
N987 N 0.97789 0.57157 0.11855 0.0
C988 C 0.04535 0.49507 0.0277 0.0
C989 C 0.99877 0.5446 0.09376 0.0
N990 N 0.09194 0.51235 0.11004 0.0
N991 N 0.94928 0.5183 0.02891 0.0
H992 H 0.98711 0.59023 0.1546 0.0
H993 H 0.95274 0.57769 0.09846 0.0
H994 H 0.9384 0.50026 0.99312 0.0
H995 H 0.92998 0.53215 0.05715 0.0
H996 H 0.10863 0.49132 0.0965 0.0
H997 H 0.10332 0.52972 0.14653 0.0
H998 H 0.09645 0.47672 0.99446 0.0
H999 H 0.06078 0.458 0.94933 0.0
C1000 C 0.75109 0.80075 0.80132 0.0
C1001 C 0.74285 0.77723 0.85712 0.0
C1002 C 0.78695 0.7342 0.81173 0.0
C1003 C 0.79337 0.75657 0.75316 0.0
N1004 N 0.77896 0.81002 0.68821 0.0
N1005 N 0.74802 0.71921 0.90955 0.0
C1006 C 0.77473 0.78959 0.74708 0.0
C1007 C 0.75943 0.74321 0.86043 0.0
N1008 N 0.73733 0.83441 0.80161 0.0
N1009 N 0.80723 0.70433 0.8207 0.0
H1010 H 0.72713 0.72482 0.94386 0.0
H1011 H 0.75648 0.69289 0.91177 0.0
H1012 H 0.82755 0.69729 0.78587 0.0
H1013 H 0.80629 0.68836 0.86547 0.0
H1014 H 0.74616 0.85472 0.76856 0.0
H1015 H 0.71791 0.84249 0.83746 0.0
H1016 H 0.76251 0.83138 0.67529 0.0
H1017 H 0.79824 0.80466 0.65054 0.0
C1018 C 0.77547 0.30555 0.28653 0.0
C1019 C 0.75031 0.28272 0.25282 0.0
C1020 C 0.77122 0.23291 0.32652 0.0
C1021 C 0.79491 0.25611 0.36283 0.0
N1022 N 0.81642 0.31559 0.38379 0.0
N1023 N 0.72024 0.22604 0.2484 0.0
C1024 C 0.79634 0.29271 0.34426 0.0
C1025 C 0.7469 0.24683 0.27539 0.0
N1026 N 0.77959 0.33967 0.26267 0.0
N1027 N 0.77288 0.19717 0.33969 0.0
H1028 H 0.70205 0.23518 0.21107 0.0
H1029 H 0.71396 0.20082 0.26736 0.0
H1030 H 0.79073 0.18613 0.37588 0.0
H1031 H 0.75916 0.17812 0.31059 0.0
H1032 H 0.80064 0.35619 0.27747 0.0
H1033 H 0.76256 0.35116 0.22553 0.0
H1034 H 0.81505 0.34314 0.37937 0.0
H1035 H 0.83332 0.30714 0.42405 0.0
C1036 C 1.00101 1.0106 0.99079 0.0
C1037 C 0.03066 0.03457 0.99647 0.0
C1038 C 0.03875 1.01602 0.11982 0.0
C1039 C 1.00864 0.99258 0.11453 0.0
N1040 N 0.95816 0.97147 0.04823 0.0
N1041 N 0.0808 0.05632 0.06296 0.0
C1042 C 0.98929 0.99062 0.05056 0.0
C1043 C 0.05005 0.03655 0.06042 0.0
N1044 N 0.9844 1.00613 0.92734 0.0
N1045 N 0.05618 0.01935 0.18269 0.0
H1046 H 0.08931 0.07252 0.02169 0.0
H1047 H 0.09921 0.05538 0.10395 0.0
H1048 H 0.05184 1.00231 0.22485 0.0
H1049 H 0.07412 0.03964 0.19444 0.0
H1050 H 0.9668 0.98541 0.91632 0.0
H1051 H 0.9894 0.02214 0.88392 0.0
H1052 H 0.93972 0.97295 1.00729 0.0
H1053 H 0.94935 0.9555 0.08963 0.0
C1054 C 0.49961 0.04438 0.59218 0.0
C1055 C 0.53599 0.04211 0.61331 0.0
C1056 C 0.54626 0.99632 0.52213 0.0
C1057 C 0.50924 0.99669 0.50485 0.0
N1058 N 0.44969 1.0169 0.53054 0.0
N1059 N 0.59378 1.01441 0.60175 0.0
C1060 C 0.48571 0.01966 0.54197 0.0
C1061 C 0.5592 1.0176 0.57905 0.0
N1062 N 0.47831 0.07034 0.61974 0.0
N1063 N 0.56944 0.97684 0.48221 0.0
H1064 H 0.60524 0.03172 0.63825 0.0
H1065 H 0.61073 0.99385 0.58673 0.0
H1066 H 0.56107 0.95944 0.44302 0.0
H1067 H 0.59714 0.97913 0.48538 0.0
H1068 H 0.45258 0.07579 0.60184 0.0
H1069 H 0.48743 0.08877 0.65639 0.0
H1070 H 0.4305 0.03008 0.56028 0.0
H1071 H 0.43869 0.99865 0.49529 0.0
C1072 C 0.2888 0.30317 0.78253 0.0
C1073 C 0.25102 0.30512 0.77863 0.0
C1074 C 0.24614 0.24925 0.84485 0.0
C1075 C 0.28385 0.24666 0.84874 0.0
N1076 N 0.34178 0.27056 0.82116 0.0
N1077 N 0.19518 0.28834 0.82908 0.0
C1078 C 0.30539 0.27352 0.81681 0.0
C1079 C 0.23023 0.28063 0.81733 0.0
N1080 N 0.30834 0.3305 0.75511 0.0
N1081 N 0.22552 0.22141 0.86669 0.0
H1082 H 0.18408 0.31221 0.81121 0.0
H1083 H 0.17869 0.27325 0.8618 0.0
H1084 H 0.23676 0.19754 0.8837 0.0
H1085 H 0.19787 0.22061 0.86013 0.0
H1086 H 0.33609 0.33143 0.75299 0.0
H1087 H 0.29593 0.35383 0.7385 0.0
H1088 H 0.35987 0.28912 0.80163 0.0
H1089 H 0.35403 0.24832 0.84362 0.0
C1090 C 0.48505 0.54109 0.02706 0.0
C1091 C 0.48243 0.50358 0.02564 0.0
C1092 C 0.53834 0.49922 0.09237 0.0
C1093 C 0.54032 0.53676 0.09722 0.0
N1094 N 0.51177 0.59355 0.07907 0.0
N1095 N 0.49945 0.44812 0.07687 0.0
C1096 C 0.51266 0.55777 0.06668 0.0
C1097 C 0.50683 0.48313 0.06531 0.0
N1098 N 0.46114 0.56076 0.98973 0.0
N1099 N 0.56661 0.47895 0.11349 0.0
H1100 H 0.47571 0.43669 0.05859 0.0
H1101 H 0.51471 0.43193 0.10979 0.0
H1102 H 0.59059 0.49027 0.13027 0.0
H1103 H 0.56763 0.45149 0.10661 0.0
H1104 H 0.46469 0.58763 0.97878 0.0
H1105 H 0.43756 0.54964 0.97057 0.0
H1106 H 0.49115 0.61025 0.06309 0.0
H1107 H 0.53089 0.6064 0.10958 0.0
C1108 C 0.28828 0.7915 0.33758 0.0
C1109 C 0.25082 0.78916 0.34751 0.0
C1110 C 0.25044 0.73162 0.28452 0.0
C1111 C 0.28783 0.73462 0.27334 0.0
N1112 N 0.34306 0.7658 0.2984 0.0
N1113 N 0.19512 0.75978 0.32355 0.0
C1114 C 0.30677 0.76365 0.30347 0.0
C1115 C 0.23162 0.75993 0.31846 0.0
N1116 N 0.30677 0.82055 0.36052 0.0
N1117 N 0.23322 0.70139 0.26377 0.0
H1118 H 0.18111 0.78073 0.34667 0.0
H1119 H 0.17852 0.74075 0.30102 0.0
H1120 H 0.24679 0.67966 0.24298 0.0
H1121 H 0.20632 0.69624 0.27283 0.0
H1122 H 0.33445 0.82297 0.35491 0.0
H1123 H 0.29416 0.84304 0.3804 0.0
H1124 H 0.35889 0.74611 0.2755 0.0
H1125 H 0.35889 0.74611 0.2755 0.0
C1126 C 0.03514 0.54941 0.56763 0.0
C1127 C 0.05942 0.5293 0.52724 0.0
C1128 C 0.028 0.47475 0.56502 0.0
C1129 C 1.00124 0.49573 0.59816 0.0
N1130 N 0.97544 0.55341 0.61613 0.0
N1131 N 0.08115 0.47235 0.49131 0.0
C1132 C 1.0036 0.53323 0.59446 0.0
C1133 C 0.05655 0.49168 0.52755 0.0
N1134 N 0.04279 0.58419 0.5807 0.0
N1135 N 0.02648 0.43858 0.57193 0.0
H1136 H 0.10444 0.48404 0.47189 0.0
H1137 H 0.07878 0.44527 0.4815 0.0
H1138 H 1.00479 0.42581 0.59574 0.0
H1139 H 0.04664 0.42136 0.55601 0.0
H1140 H 0.02778 0.59989 0.61479 0.0
H1141 H 0.06647 0.5958 0.56249 0.0
H1142 H 0.97452 0.58093 0.60982 0.0
H1143 H 0.95145 0.54192 0.63259 0.0
C1144 C 0.77889 0.75792 0.23984 0.0
C1145 C 0.75754 0.78888 0.25499 0.0
C1146 C 0.75854 0.77231 0.37893 0.0
C1147 C 0.77829 0.74037 0.36251 0.0
N1148 N 0.79671 0.69861 0.27434 0.0
N1149 N 0.71965 0.81934 0.33729 0.0
C1150 C 0.78479 0.73176 0.29208 0.0
C1151 C 0.74537 0.7944 0.32408 0.0
N1152 N 0.79436 0.75338 0.17547 0.0
N1153 N 0.75262 0.78239 0.44694 0.0
H1154 H 0.70977 0.83666 0.29907 0.0
H1155 H 0.70596 0.82096 0.38494 0.0
H1156 H 0.75681 0.76615 0.4901 0.0
H1157 H 0.74444 0.80792 0.46079 0.0
H1158 H 0.81409 0.73447 0.16565 0.0
H1159 H 0.7902 0.77004 0.13316 0.0
H1160 H 0.79797 0.68963 0.22256 0.0
H1161 H 0.80143 0.67857 0.31101 0.0
C1162 C 0.81561 0.26693 0.80642 0.0
C1163 C 0.79466 0.24032 0.77305 0.0
C1164 C 0.74045 0.27231 0.80593 0.0
C1165 C 0.76061 0.29792 0.84359 0.0
N1166 N 0.81798 0.31919 0.88099 0.0
N1167 N 0.7374 0.21218 0.76133 0.0
C1168 C 0.7985 0.29507 0.84393 0.0
C1169 C 0.75714 0.24121 0.77973 0.0
N1170 N 0.85197 0.26574 0.79938 0.0
N1171 N 0.70513 0.27835 0.79406 0.0
H1172 H 0.74929 0.18857 0.74485 0.0
H1173 H 0.71003 0.21021 0.77095 0.0
H1174 H 0.69354 0.30218 0.80923 0.0
H1175 H 0.68911 0.26216 0.76263 0.0
H1176 H 0.8692 0.28587 0.81557 0.0
H1177 H 0.86481 0.24433 0.77529 0.0
H1178 H 0.84499 0.31619 0.89278 0.0
H1179 H 0.80657 0.34277 0.89862 0.0
C1180 C 1.01893 0.97947 0.55445 0.0
C1181 C 0.99189 0.99915 0.51961 0.0
C1182 C 1.01966 0.05493 0.55913 0.0
C1183 C 0.04776 0.03534 0.59147 0.0
N1184 N 0.07635 0.97962 0.61449 0.0
N1185 N 0.96532 0.05507 0.49 0.0
C1186 C 0.04808 0.99768 0.58676 0.0
C1187 C 0.992 0.03676 0.52261 0.0
N1188 N 1.01702 0.94314 0.5534 0.0
N1189 N 1.01797 0.09089 0.56887 0.0
H1190 H 0.94138 0.04266 0.47711 0.0
H1191 H 0.96642 0.08202 0.47767 0.0
H1192 H 0.03736 0.10471 0.59691 0.0
H1193 H 0.99689 0.10694 0.5527 0.0
H1194 H 0.03585 0.92613 0.57541 0.0
H1195 H 0.99511 0.9298 0.53174 0.0
H1196 H 0.0779 0.95219 0.62002 0.0
H1197 H 0.09972 0.99285 0.6282 0.0
C1198 C 0.52248 0.05139 0.05534 0.0
C1199 C 0.55054 0.03212 0.02252 0.0
C1200 C 0.52295 0.9765 0.06525 0.0
C1201 C 0.49415 0.99623 0.09459 0.0
N1202 N 0.46142 0.05088 0.09813 0.0
N1203 N 0.57755 0.97588 0.99572 0.0
C1204 C 0.49232 0.03322 0.08317 0.0
C1205 C 0.55081 0.99443 0.02761 0.0
N1206 N 0.52493 0.08746 0.0595 0.0
N1207 N 0.52399 0.94059 0.0764 0.0
H1208 H 0.60033 0.98842 0.97618 0.0
H1209 H 0.57742 0.94844 0.98912 0.0
H1210 H 0.50284 0.92702 0.10045 0.0
H1211 H 0.54554 0.9244 0.06359 0.0
H1212 H 0.50696 0.10328 0.08719 0.0
H1213 H 0.54743 0.10081 0.04114 0.0
H1214 H 0.45729 0.07766 0.08662 0.0
H1215 H 0.4384 0.0374 0.11375 0.0
loop_
_geom_bond_atom_site_label_1
_geom_bond_atom_site_label_2
_geom_bond_distance
_geom_bond_site_symmetry_2
_ccdc_geom_bond_type
Fe0 O2 1.918 . S
Fe0 O5 1.997 . S
Fe0 O6 2.002 1_554 S
Fe0 O11 1.976 . S
Fe0 O14 1.996 . S
Fe1 O2 1.918 1_556 S
Fe1 O9 1.997 . S
Fe1 O12 1.996 . S
Fe1 O16 1.976 1_556 S
Fe1 O19 2.002 . S
O2 Fe0 1.918 . S
O2 Fe1 1.918 1_554 S
O2 Fe3 1.918 . S
Fe3 O2 1.918 . S
Fe3 O4 2.002 . S
Fe3 O13 1.976 . S
Fe3 O17 1.996 . S
Fe3 O20 1.997 . S
O4 Fe3 2.002 . S
O4 C21 1.295 . S
O5 Fe0 1.997 . S
O5 C21 1.235 . S
O6 Fe0 2.002 1_556 S
O6 C7 1.295 . S
C7 O6 1.295 . S
C7 O9 1.235 . S
C8 O13 1.287 . S
C8 O14 1.255 . S
O9 Fe1 1.997 . S
O9 C7 1.235 . S
C10 O16 1.287 . S
C10 O17 1.255 . S
O11 Fe0 1.976 . S
O11 C18 1.288 . S
O12 Fe1 1.996 . S
O12 C18 1.253 1_556 S
O13 Fe3 1.976 . S
O13 C8 1.287 . S
O14 Fe0 1.996 . S
O14 C8 1.255 . S
C15 O19 1.295 . S
C15 O20 1.235 1_556 S
O16 Fe1 1.976 1_554 S
O16 C10 1.287 . S
O17 Fe3 1.996 . S
O17 C10 1.255 . S
C18 O11 1.288 . S
C18 O12 1.253 1_554 S
O19 Fe1 2.002 . S
O19 C15 1.295 . S
O20 Fe3 1.997 . S
O20 C15 1.235 1_554 S
C21 O4 1.295 . S
C21 O5 1.235 . S
Fe22 O24 1.918 . S
Fe22 O27 1.997 . S
Fe22 O28 2.002 . S
Fe22 O33 1.976 . S
Fe22 O36 1.996 . S
Fe23 O24 1.918 . S
Fe23 O31 1.997 . S
Fe23 O34 1.996 . S
Fe23 O38 1.976 . S
Fe23 O41 2.002 . S
O24 Fe22 1.918 . S
O24 Fe23 1.918 . S
O24 Fe25 1.918 . S
Fe25 O24 1.918 . S
Fe25 O26 2.002 . S
Fe25 O35 1.976 . S
Fe25 O39 1.996 . S
Fe25 O42 1.997 . S
O26 Fe25 2.002 . S
O26 C43 1.295 . S
O27 Fe22 1.997 . S
O27 C43 1.235 . S
O28 Fe22 2.002 . S
O28 C29 1.295 . S
C29 O28 1.295 . S
C29 O31 1.235 . S
C30 O35 1.287 . S
C30 O36 1.255 . S
O31 Fe23 1.997 . S
O31 C29 1.235 . S
C32 O38 1.287 . S
C32 O39 1.255 . S
O33 Fe22 1.976 . S
O33 C40 1.287 . S
O34 Fe23 1.996 . S
O34 C40 1.255 . S
O35 Fe25 1.976 . S
O35 C30 1.287 . S
O36 Fe22 1.996 . S
O36 C30 1.255 . S
C37 O41 1.295 . S
C37 O42 1.235 . S
O38 Fe23 1.976 . S
O38 C32 1.287 . S
O39 Fe25 1.996 . S
O39 C32 1.255 . S
C40 O33 1.287 . S
C40 O34 1.255 . S
O41 Fe23 2.002 . S
O41 C37 1.295 . S
O42 Fe25 1.997 . S
O42 C37 1.235 . S
C43 O26 1.295 . S
C43 O27 1.235 . S
Fe44 O46 1.918 . S
Fe44 O49 1.997 . S
Fe44 O50 2.002 . S
Fe44 O55 1.976 . S
Fe44 O58 1.996 . S
Fe45 O46 1.918 . S
Fe45 O53 1.997 . S
Fe45 O56 1.996 . S
Fe45 O60 1.976 . S
Fe45 O63 2.002 . S
O46 Fe44 1.918 . S
O46 Fe45 1.918 . S
O46 Fe47 1.918 . S
Fe47 O46 1.918 . S
Fe47 O48 2.002 . S
Fe47 O57 1.976 . S
Fe47 O61 1.996 . S
Fe47 O64 1.997 . S
O48 Fe47 2.002 . S
O48 C65 1.295 . S
O49 Fe44 1.997 . S
O49 C65 1.235 . S
O50 Fe44 2.002 . S
O50 C51 1.295 . S
C51 O50 1.295 . S
C51 O53 1.235 . S
C52 O57 1.287 . S
C52 O58 1.255 . S
O53 Fe45 1.997 . S
O53 C51 1.235 . S
C54 O60 1.287 . S
C54 O61 1.255 . S
O55 Fe44 1.976 . S
O55 C62 1.287 . S
O56 Fe45 1.996 . S
O56 C62 1.255 . S
O57 Fe47 1.976 . S
O57 C52 1.287 . S
O58 Fe44 1.996 . S
O58 C52 1.255 . S
C59 O63 1.295 . S
C59 O64 1.235 . S
O60 Fe45 1.976 . S
O60 C54 1.287 . S
O61 Fe47 1.996 . S
O61 C54 1.255 . S
C62 O55 1.287 . S
C62 O56 1.255 . S
O63 Fe45 2.002 . S
O63 C59 1.295 . S
O64 Fe47 1.997 . S
O64 C59 1.235 . S
C65 O48 1.295 . S
C65 O49 1.235 . S
Fe66 O68 1.918 . S
Fe66 O71 1.997 1_655 S
Fe66 O72 2.002 . S
Fe66 O77 1.976 . S
Fe66 O80 1.996 . S
Fe67 O68 1.918 . S
Fe67 O75 1.997 . S
Fe67 O78 1.996 . S
Fe67 O82 1.976 . S
Fe67 O85 2.002 . S
O68 Fe66 1.918 . S
O68 Fe67 1.918 . S
O68 Fe69 1.918 . S
Fe69 O68 1.918 . S
Fe69 O70 2.002 . S
Fe69 O79 1.976 . S
Fe69 O83 1.996 . S
Fe69 O86 1.997 . S
O70 Fe69 2.002 . S
O70 C87 1.295 1_655 S
O71 Fe66 1.997 1_455 S
O71 C87 1.235 . S
O72 Fe66 2.002 . S
O72 C73 1.295 . S
C73 O72 1.295 . S
C73 O75 1.235 . S
C74 O79 1.287 . S
C74 O80 1.255 . S
O75 Fe67 1.997 . S
O75 C73 1.235 . S
C76 O82 1.287 . S
C76 O83 1.255 . S
O77 Fe66 1.976 . S
O77 C84 1.287 . S
O78 Fe67 1.996 . S
O78 C84 1.255 . S
O79 Fe69 1.976 . S
O79 C74 1.287 . S
O80 Fe66 1.996 . S
O80 C74 1.255 . S
C81 O85 1.295 . S
C81 O86 1.235 . S
O82 Fe67 1.976 . S
O82 C76 1.287 . S
O83 Fe69 1.996 . S
O83 C76 1.255 . S
C84 O77 1.287 . S
C84 O78 1.255 . S
O85 Fe67 2.002 . S
O85 C81 1.295 . S
O86 Fe69 1.997 . S
O86 C81 1.235 . S
C87 O70 1.295 1_455 S
C87 O71 1.235 . S
Fe88 O90 1.918 . S
Fe88 O93 1.997 . S
Fe88 O94 2.002 . S
Fe88 O99 1.976 . S
Fe88 O102 1.996 . S
Fe89 O90 1.918 1_556 S
Fe89 O97 1.997 1_556 S
Fe89 O100 1.996 . S
Fe89 O104 1.976 . S
Fe89 O107 2.002 1_556 S
O90 Fe88 1.918 . S
O90 Fe89 1.918 1_554 S
O90 Fe91 1.918 . S
Fe91 O90 1.918 . S
Fe91 O92 2.002 . S
Fe91 O101 1.976 . S
Fe91 O105 1.996 1_554 S
Fe91 O108 1.997 . S
O92 Fe91 2.002 . S
O92 C109 1.295 . S
O93 Fe88 1.997 . S
O93 C109 1.235 . S
O94 Fe88 2.002 . S
O94 C95 1.295 . S
C95 O94 1.295 . S
C95 O97 1.235 . S
C96 O101 1.287 . S
C96 O102 1.255 . S
O97 Fe89 1.997 1_554 S
O97 C95 1.235 . S
C98 O104 1.287 . S
C98 O105 1.255 . S
O99 Fe88 1.976 . S
O99 C106 1.287 1_554 S
O100 Fe89 1.996 . S
O100 C106 1.255 . S
O101 Fe91 1.976 . S
O101 C96 1.287 . S
O102 Fe88 1.996 . S
O102 C96 1.255 . S
C103 O107 1.295 . S
C103 O108 1.235 . S
O104 Fe89 1.976 . S
O104 C98 1.287 . S
O105 Fe91 1.996 1_556 S
O105 C98 1.255 . S
C106 O99 1.287 1_556 S
C106 O100 1.255 . S
O107 Fe89 2.002 1_554 S
O107 C103 1.295 . S
O108 Fe91 1.997 . S
O108 C103 1.235 . S
C109 O92 1.295 . S
C109 O93 1.235 . S
Fe110 O112 1.918 . S
Fe110 O115 1.997 . S
Fe110 O116 2.002 . S
Fe110 O121 1.976 . S
Fe110 O124 1.996 . S
Fe111 O112 1.918 . S
Fe111 O119 1.997 . S
Fe111 O122 1.996 . S
Fe111 O126 1.976 . S
Fe111 O129 2.002 . S
O112 Fe110 1.918 . S
O112 Fe111 1.918 . S
O112 Fe113 1.918 . S
Fe113 O112 1.918 . S
Fe113 O114 2.002 . S
Fe113 O123 1.976 . S
Fe113 O127 1.996 . S
Fe113 O130 1.997 . S
O114 Fe113 2.002 . S
O114 C131 1.295 . S
O115 Fe110 1.997 . S
O115 C131 1.235 . S
O116 Fe110 2.002 . S
O116 C117 1.295 . S
C117 O116 1.295 . S
C117 O119 1.235 . S
C118 O123 1.287 . S
C118 O124 1.255 . S
O119 Fe111 1.997 . S
O119 C117 1.235 . S
C120 O126 1.287 . S
C120 O127 1.255 . S
O121 Fe110 1.976 . S
O121 C128 1.287 . S
O122 Fe111 1.996 . S
O122 C128 1.255 . S
O123 Fe113 1.976 . S
O123 C118 1.287 . S
O124 Fe110 1.996 . S
O124 C118 1.255 . S
C125 O129 1.295 . S
C125 O130 1.235 . S
O126 Fe111 1.976 . S
O126 C120 1.287 . S
O127 Fe113 1.996 . S
O127 C120 1.255 . S
C128 O121 1.287 . S
C128 O122 1.255 . S
O129 Fe111 2.002 . S
O129 C125 1.295 . S
O130 Fe113 1.997 . S
O130 C125 1.235 . S
C131 O114 1.295 . S
C131 O115 1.235 . S
Fe132 O134 1.918 . S
Fe132 O137 1.997 . S
Fe132 O138 2.002 . S
Fe132 O143 1.976 . S
Fe132 O146 1.996 . S
Fe133 O134 1.918 . S
Fe133 O141 1.997 . S
Fe133 O144 1.996 . S
Fe133 O148 1.976 . S
Fe133 O151 2.002 . S
O134 Fe132 1.918 . S
O134 Fe133 1.918 . S
O134 Fe135 1.918 . S
Fe135 O134 1.918 . S
Fe135 O136 2.002 . S
Fe135 O145 1.976 . S
Fe135 O149 1.996 . S
Fe135 O152 1.997 . S
O136 Fe135 2.002 . S
O136 C153 1.295 . S
O137 Fe132 1.997 . S
O137 C153 1.235 . S
O138 Fe132 2.002 . S
O138 C139 1.295 . S
C139 O138 1.295 . S
C139 O141 1.235 . S
C140 O145 1.287 . S
C140 O146 1.255 . S
O141 Fe133 1.997 . S
O141 C139 1.235 . S
C142 O148 1.287 . S
C142 O149 1.255 . S
O143 Fe132 1.976 . S
O143 C150 1.287 . S
O144 Fe133 1.996 . S
O144 C150 1.255 . S
O145 Fe135 1.976 . S
O145 C140 1.287 . S
O146 Fe132 1.996 . S
O146 C140 1.255 . S
C147 O151 1.295 . S
C147 O152 1.235 . S
O148 Fe133 1.976 . S
O148 C142 1.287 . S
O149 Fe135 1.996 . S
O149 C142 1.255 . S
C150 O143 1.287 . S
C150 O144 1.255 . S
O151 Fe133 2.002 . S
O151 C147 1.295 . S
O152 Fe135 1.997 . S
O152 C147 1.235 . S
C153 O136 1.295 . S
C153 O137 1.235 . S
Fe154 O156 1.918 . S
Fe154 O159 1.997 1_455 S
Fe154 O160 2.002 . S
Fe154 O165 1.976 . S
Fe154 O168 1.996 . S
Fe155 O156 1.918 . S
Fe155 O163 1.997 . S
Fe155 O166 1.996 . S
Fe155 O170 1.976 . S
Fe155 O173 2.002 . S
O156 Fe154 1.918 . S
O156 Fe155 1.918 . S
O156 Fe157 1.918 . S
Fe157 O156 1.918 . S
Fe157 O158 2.002 . S
Fe157 O167 1.976 . S
Fe157 O171 1.996 . S
Fe157 O174 1.997 . S
O158 Fe157 2.002 . S
O158 C175 1.295 1_455 S
O159 Fe154 1.997 1_655 S
O159 C175 1.235 . S
O160 Fe154 2.002 . S
O160 C161 1.295 . S
C161 O160 1.295 . S
C161 O163 1.235 . S
C162 O167 1.287 . S
C162 O168 1.255 . S
O163 Fe155 1.997 . S
O163 C161 1.235 . S
C164 O170 1.287 . S
C164 O171 1.255 . S
O165 Fe154 1.976 . S
O165 C172 1.287 . S
O166 Fe155 1.996 . S
O166 C172 1.255 . S
O167 Fe157 1.976 . S
O167 C162 1.287 . S
O168 Fe154 1.996 . S
O168 C162 1.255 . S
C169 O173 1.295 . S
C169 O174 1.235 . S
O170 Fe155 1.976 . S
O170 C164 1.287 . S
O171 Fe157 1.996 . S
O171 C164 1.255 . S
C172 O165 1.287 . S
C172 O166 1.255 . S
O173 Fe155 2.002 . S
O173 C169 1.295 . S
O174 Fe157 1.997 . S
O174 C169 1.235 . S
C175 O158 1.295 1_655 S
C175 O159 1.235 . S
Fe176 O178 1.918 . S
Fe176 O181 1.997 . S
Fe176 O182 2.002 . S
Fe176 O187 1.976 . S
Fe176 O190 1.996 . S
Fe177 O178 1.918 . S
Fe177 O185 1.997 . S
Fe177 O188 1.996 . S
Fe177 O192 1.976 . S
Fe177 O195 2.002 . S
O178 Fe176 1.918 . S
O178 Fe177 1.918 . S
O178 Fe179 1.918 . S
Fe179 O178 1.918 . S
Fe179 O180 2.002 . S
Fe179 O189 1.976 . S
Fe179 O193 1.996 . S
Fe179 O196 1.997 . S
O180 Fe179 2.002 . S
O180 C197 1.295 . S
O181 Fe176 1.997 . S
O181 C197 1.235 . S
O182 Fe176 2.002 . S
O182 C183 1.295 . S
C183 O182 1.295 . S
C183 O185 1.235 . S
C184 O189 1.287 . S
C184 O190 1.255 . S
O185 Fe177 1.997 . S
O185 C183 1.235 . S
C186 O192 1.287 . S
C186 O193 1.255 . S
O187 Fe176 1.976 . S
O187 C194 1.287 . S
O188 Fe177 1.996 . S
O188 C194 1.255 . S
O189 Fe179 1.976 . S
O189 C184 1.287 . S
O190 Fe176 1.996 . S
O190 C184 1.255 . S
C191 O195 1.295 . S
C191 O196 1.235 . S
O192 Fe177 1.976 . S
O192 C186 1.287 . S
O193 Fe179 1.996 . S
O193 C186 1.255 . S
C194 O187 1.287 . S
C194 O188 1.255 . S
O195 Fe177 2.002 . S
O195 C191 1.295 . S
O196 Fe179 1.997 . S
O196 C191 1.235 . S
C197 O180 1.295 . S
C197 O181 1.235 . S
Fe198 O200 1.918 . S
Fe198 O203 1.997 1_455 S
Fe198 O204 2.002 . S
Fe198 O209 1.976 1_545 S
Fe198 O212 1.996 . S
Fe199 O200 1.918 . S
Fe199 O207 1.997 . S
Fe199 O210 1.996 . S
Fe199 O214 1.976 . S
Fe199 O217 2.002 . S
O200 Fe198 1.918 . S
O200 Fe199 1.918 . S
O200 Fe201 1.918 . S
Fe201 O200 1.918 . S
Fe201 O202 2.002 . S
Fe201 O211 1.976 . S
Fe201 O215 1.996 . S
Fe201 O218 1.997 . S
O202 Fe201 2.002 . S
O202 C219 1.295 1_455 S
O203 Fe198 1.997 1_655 S
O203 C219 1.235 . S
O204 Fe198 2.002 . S
O204 C205 1.295 . S
C205 O204 1.295 . S
C205 O207 1.235 . S
C206 O211 1.287 . S
C206 O212 1.255 . S
O207 Fe199 1.997 . S
O207 C205 1.235 . S
C208 O214 1.287 . S
C208 O215 1.255 . S
O209 Fe198 1.976 1_565 S
O209 C216 1.287 . S
O210 Fe199 1.996 . S
O210 C216 1.255 1_545 S
O211 Fe201 1.976 . S
O211 C206 1.287 . S
O212 Fe198 1.996 . S
O212 C206 1.255 . S
C213 O217 1.295 . S
C213 O218 1.235 . S
O214 Fe199 1.976 . S
O214 C208 1.287 . S
O215 Fe201 1.996 . S
O215 C208 1.255 . S
C216 O209 1.287 . S
C216 O210 1.255 1_565 S
O217 Fe199 2.002 . S
O217 C213 1.295 . S
O218 Fe201 1.997 . S
O218 C213 1.235 . S
C219 O202 1.295 1_655 S
C219 O203 1.235 . S
Fe220 O222 1.918 . S
Fe220 O225 1.997 . S
Fe220 O226 2.002 1_554 S
Fe220 O231 1.976 . S
Fe220 O234 1.996 . S
Fe221 O222 1.918 1_556 S
Fe221 O229 1.997 . S
Fe221 O232 1.996 . S
Fe221 O236 1.976 1_556 S
Fe221 O239 2.002 . S
O222 Fe220 1.918 . S
O222 Fe221 1.918 1_554 S
O222 Fe223 1.918 . S
Fe223 O222 1.918 . S
Fe223 O224 2.002 . S
Fe223 O233 1.976 . S
Fe223 O237 1.996 . S
Fe223 O240 1.997 . S
O224 Fe223 2.002 . S
O224 C241 1.295 . S
O225 Fe220 1.997 . S
O225 C241 1.235 . S
O226 Fe220 2.002 1_556 S
O226 C227 1.295 . S
C227 O226 1.295 . S
C227 O229 1.235 . S
C228 O233 1.287 . S
C228 O234 1.255 . S
O229 Fe221 1.997 . S
O229 C227 1.235 . S
C230 O236 1.287 . S
C230 O237 1.255 . S
O231 Fe220 1.976 . S
O231 C238 1.288 . S
O232 Fe221 1.996 . S
O232 C238 1.253 1_556 S
O233 Fe223 1.976 . S
O233 C228 1.287 . S
O234 Fe220 1.996 . S
O234 C228 1.255 . S
C235 O239 1.295 . S
C235 O240 1.235 1_556 S
O236 Fe221 1.976 1_554 S
O236 C230 1.287 . S
O237 Fe223 1.996 . S
O237 C230 1.255 . S
C238 O231 1.288 . S
C238 O232 1.253 1_554 S
O239 Fe221 2.002 . S
O239 C235 1.295 . S
O240 Fe223 1.997 . S
O240 C235 1.235 1_554 S
C241 O224 1.295 . S
C241 O225 1.235 . S
Fe242 O244 1.918 . S
Fe242 O247 1.997 . S
Fe242 O248 2.002 . S
Fe242 O253 1.976 1_565 S
Fe242 O256 1.996 . S
Fe243 O244 1.918 . S
Fe243 O251 1.997 . S
Fe243 O254 1.996 . S
Fe243 O258 1.976 . S
Fe243 O261 2.002 . S
O244 Fe242 1.918 . S
O244 Fe243 1.918 . S
O244 Fe245 1.918 . S
Fe245 O244 1.918 . S
Fe245 O246 2.002 . S
Fe245 O255 1.976 . S
Fe245 O259 1.996 . S
Fe245 O262 1.997 . S
O246 Fe245 2.002 . S
O246 C263 1.295 . S
O247 Fe242 1.997 . S
O247 C263 1.235 . S
O248 Fe242 2.002 . S
O248 C249 1.295 . S
C249 O248 1.295 . S
C249 O251 1.235 . S
C250 O255 1.287 . S
C250 O256 1.255 . S
O251 Fe243 1.997 . S
O251 C249 1.235 . S
C252 O258 1.287 . S
C252 O259 1.255 . S
O253 Fe242 1.976 1_545 S
O253 C260 1.287 . S
O254 Fe243 1.996 . S
O254 C260 1.255 1_565 S
O255 Fe245 1.976 . S
O255 C250 1.287 . S
O256 Fe242 1.996 . S
O256 C250 1.255 . S
C257 O261 1.295 . S
C257 O262 1.235 . S
O258 Fe243 1.976 . S
O258 C252 1.287 . S
O259 Fe245 1.996 . S
O259 C252 1.255 . S
C260 O253 1.287 . S
C260 O254 1.255 1_545 S
O261 Fe243 2.002 . S
O261 C257 1.295 . S
O262 Fe245 1.997 . S
O262 C257 1.235 . S
C263 O246 1.295 . S
C263 O247 1.235 . S
Fe264 O266 1.918 . S
Fe264 O269 1.997 . S
Fe264 O270 2.002 . S
Fe264 O275 1.976 . S
Fe264 O278 1.996 . S
Fe265 O266 1.918 . S
Fe265 O273 1.997 . S
Fe265 O276 1.996 . S
Fe265 O280 1.976 . S
Fe265 O283 2.002 . S
O266 Fe264 1.918 . S
O266 Fe265 1.918 . S
O266 Fe267 1.918 . S
Fe267 O266 1.918 . S
Fe267 O268 2.002 . S
Fe267 O277 1.976 . S
Fe267 O281 1.996 . S
Fe267 O284 1.997 . S
O268 Fe267 2.002 . S
O268 C285 1.295 . S
O269 Fe264 1.997 . S
O269 C285 1.235 . S
O270 Fe264 2.002 . S
O270 C271 1.295 . S
C271 O270 1.295 . S
C271 O273 1.235 . S
C272 O277 1.287 . S
C272 O278 1.255 . S
O273 Fe265 1.997 . S
O273 C271 1.235 . S
C274 O280 1.287 . S
C274 O281 1.255 . S
O275 Fe264 1.976 . S
O275 C282 1.287 . S
O276 Fe265 1.996 . S
O276 C282 1.255 . S
O277 Fe267 1.976 . S
O277 C272 1.287 . S
O278 Fe264 1.996 . S
O278 C272 1.255 . S
C279 O283 1.295 . S
C279 O284 1.235 . S
O280 Fe265 1.976 . S
O280 C274 1.287 . S
O281 Fe267 1.996 . S
O281 C274 1.255 . S
C282 O275 1.287 . S
C282 O276 1.255 . S
O283 Fe265 2.002 . S
O283 C279 1.295 . S
O284 Fe267 1.997 . S
O284 C279 1.235 . S
C285 O268 1.295 . S
C285 O269 1.235 . S
Fe286 O288 1.918 . S
Fe286 O291 1.997 1_655 S
Fe286 O292 2.002 . S
Fe286 O297 1.976 1_565 S
Fe286 O300 1.996 . S
Fe287 O288 1.918 . S
Fe287 O295 1.997 . S
Fe287 O298 1.996 . S
Fe287 O302 1.976 . S
Fe287 O305 2.002 . S
O288 Fe286 1.918 . S
O288 Fe287 1.918 . S
O288 Fe289 1.918 . S
Fe289 O288 1.918 . S
Fe289 O290 2.002 . S
Fe289 O299 1.976 . S
Fe289 O303 1.996 . S
Fe289 O306 1.997 . S
O290 Fe289 2.002 . S
O290 C307 1.295 1_655 S
O291 Fe286 1.997 1_455 S
O291 C307 1.235 . S
O292 Fe286 2.002 . S
O292 C293 1.295 . S
C293 O292 1.295 . S
C293 O295 1.235 . S
C294 O299 1.287 . S
C294 O300 1.255 . S
O295 Fe287 1.997 . S
O295 C293 1.235 . S
C296 O302 1.287 . S
C296 O303 1.255 . S
O297 Fe286 1.976 1_545 S
O297 C304 1.287 . S
O298 Fe287 1.996 . S
O298 C304 1.255 1_565 S
O299 Fe289 1.976 . S
O299 C294 1.287 . S
O300 Fe286 1.996 . S
O300 C294 1.255 . S
C301 O305 1.295 . S
C301 O306 1.235 . S
O302 Fe287 1.976 . S
O302 C296 1.287 . S
O303 Fe289 1.996 . S
O303 C296 1.255 . S
C304 O297 1.287 . S
C304 O298 1.255 1_545 S
O305 Fe287 2.002 . S
O305 C301 1.295 . S
O306 Fe289 1.997 . S
O306 C301 1.235 . S
C307 O290 1.295 1_455 S
C307 O291 1.235 . S
Fe308 O310 1.918 . S
Fe308 O313 1.997 . S
Fe308 O314 2.002 . S
Fe308 O319 1.976 . S
Fe308 O322 1.996 1_554 S
Fe309 O310 1.918 . S
Fe309 O317 1.997 . S
Fe309 O320 1.996 . S
Fe309 O324 1.976 . S
Fe309 O327 2.002 . S
O310 Fe308 1.918 . S
O310 Fe309 1.918 . S
O310 Fe311 1.918 1_554 S
Fe311 O310 1.918 1_556 S
Fe311 O312 2.002 1_556 S
Fe311 O321 1.976 . S
Fe311 O325 1.996 . S
Fe311 O328 1.997 1_556 S
O312 Fe311 2.002 1_554 S
O312 C329 1.295 . S
O313 Fe308 1.997 . S
O313 C329 1.235 . S
O314 Fe308 2.002 . S
O314 C315 1.295 . S
C315 O314 1.295 . S
C315 O317 1.235 . S
C316 O321 1.287 . S
C316 O322 1.255 . S
O317 Fe309 1.997 . S
O317 C315 1.235 . S
C318 O324 1.287 1_556 S
C318 O325 1.255 . S
O319 Fe308 1.976 . S
O319 C326 1.287 . S
O320 Fe309 1.996 . S
O320 C326 1.255 . S
O321 Fe311 1.976 . S
O321 C316 1.287 . S
O322 Fe308 1.996 1_556 S
O322 C316 1.255 . S
C323 O327 1.295 . S
C323 O328 1.235 . S
O324 Fe309 1.976 . S
O324 C318 1.287 1_554 S
O325 Fe311 1.996 . S
O325 C318 1.255 . S
C326 O319 1.287 . S
C326 O320 1.255 . S
O327 Fe309 2.002 . S
O327 C323 1.295 . S
O328 Fe311 1.997 1_554 S
O328 C323 1.235 . S
C329 O312 1.295 . S
C329 O313 1.235 . S
Fe330 O332 1.918 . S
Fe330 O335 1.997 . S
Fe330 O336 2.002 . S
Fe330 O341 1.976 1_545 S
Fe330 O344 1.996 . S
Fe331 O332 1.918 . S
Fe331 O339 1.997 . S
Fe331 O342 1.996 . S
Fe331 O346 1.976 . S
Fe331 O349 2.002 . S
O332 Fe330 1.918 . S
O332 Fe331 1.918 . S
O332 Fe333 1.918 . S
Fe333 O332 1.918 . S
Fe333 O334 2.002 . S
Fe333 O343 1.976 . S
Fe333 O347 1.996 . S
Fe333 O350 1.997 . S
O334 Fe333 2.002 . S
O334 C351 1.295 . S
O335 Fe330 1.997 . S
O335 C351 1.235 . S
O336 Fe330 2.002 . S
O336 C337 1.295 . S
C337 O336 1.295 . S
C337 O339 1.235 . S
C338 O343 1.287 . S
C338 O344 1.255 . S
O339 Fe331 1.997 . S
O339 C337 1.235 . S
C340 O346 1.287 . S
C340 O347 1.255 . S
O341 Fe330 1.976 1_565 S
O341 C348 1.287 . S
O342 Fe331 1.996 . S
O342 C348 1.255 1_545 S
O343 Fe333 1.976 . S
O343 C338 1.287 . S
O344 Fe330 1.996 . S
O344 C338 1.255 . S
C345 O349 1.295 . S
C345 O350 1.235 . S
O346 Fe331 1.976 . S
O346 C340 1.287 . S
O347 Fe333 1.996 . S
O347 C340 1.255 . S
C348 O341 1.287 . S
C348 O342 1.255 1_565 S
O349 Fe331 2.002 . S
O349 C345 1.295 . S
O350 Fe333 1.997 . S
O350 C345 1.235 . S
C351 O334 1.295 . S
C351 O335 1.235 . S
C352 C353 1.363 . S
C352 C358 1.379 . S
C352 N360 1.356 . S
C353 C352 1.363 . S
C353 C359 1.363 . S
C354 C355 1.363 . S
C354 C359 1.379 . S
C354 N361 1.356 . S
C355 C354 1.363 . S
C355 C358 1.363 . S
N356 C358 1.356 . S
N356 H368 0.984 . S
N356 H369 0.985 . S
N357 C359 1.356 1_554 S
N357 H362 0.984 . S
N357 H363 0.985 . S
C358 C352 1.379 . S
C358 C355 1.363 . S
C358 N356 1.356 . S
C359 C353 1.363 . S
C359 C354 1.379 . S
C359 N357 1.356 1_556 S
N360 C352 1.356 . S
N360 H366 0.984 . S
N360 H367 0.984 . S
N361 C354 1.356 . S
N361 H364 0.984 . S
N361 H365 0.985 . S
H362 N357 0.984 . S
H363 N357 0.985 . S
H364 N361 0.984 . S
H365 N361 0.985 . S
H366 N360 0.984 . S
H367 N360 0.984 . S
H368 N356 0.984 . S
H369 N356 0.985 . S
C370 C371 1.363 . S
C370 C376 1.379 . S
C370 N378 1.356 . S
C371 C370 1.363 . S
C371 C377 1.363 . S
C372 C373 1.363 . S
C372 C377 1.379 . S
C372 N379 1.356 . S
C373 C372 1.363 . S
C373 C376 1.363 . S
N374 C376 1.356 . S
N374 H386 0.984 . S
N374 H387 0.985 . S
N375 C377 1.356 . S
N375 H380 0.984 . S
N375 H381 0.985 . S
C376 C370 1.379 . S
C376 C373 1.363 . S
C376 N374 1.356 . S
C377 C371 1.363 . S
C377 C372 1.379 . S
C377 N375 1.356 . S
N378 C370 1.356 . S
N378 H384 0.984 . S
N378 H385 0.984 . S
N379 C372 1.356 . S
N379 H382 0.984 . S
N379 H383 0.985 . S
H380 N375 0.984 . S
H381 N375 0.985 . S
H382 N379 0.984 . S
H383 N379 0.985 . S
H384 N378 0.984 . S
H385 N378 0.984 . S
H386 N374 0.984 . S
H387 N374 0.985 . S
C388 C389 1.363 . S
C388 C394 1.379 . S
C388 N396 1.356 . S
C389 C388 1.363 . S
C389 C395 1.363 . S
C390 C391 1.363 . S
C390 C395 1.379 . S
C390 N397 1.356 . S
C391 C390 1.363 . S
C391 C394 1.363 . S
N392 C394 1.356 . S
N392 H404 0.984 . S
N392 H405 0.985 . S
N393 C395 1.356 . S
N393 H398 0.984 . S
N393 H399 0.985 . S
C394 C388 1.379 . S
C394 C391 1.363 . S
C394 N392 1.356 . S
C395 C389 1.363 . S
C395 C390 1.379 . S
C395 N393 1.356 . S
N396 C388 1.356 . S
N396 H402 0.984 . S
N396 H403 0.984 . S
N397 C390 1.356 . S
N397 H400 0.984 . S
N397 H401 0.985 . S
H398 N393 0.984 . S
H399 N393 0.985 . S
H400 N397 0.984 . S
H401 N397 0.985 . S
H402 N396 0.984 . S
H403 N396 0.984 . S
H404 N392 0.984 . S
H405 N392 0.985 . S
C406 C407 1.363 . S
C406 C412 1.379 . S
C406 N414 1.356 . S
C407 C406 1.363 . S
C407 C413 1.363 . S
C408 C409 1.363 . S
C408 C413 1.379 . S
C408 N415 1.356 . S
C409 C408 1.363 . S
C409 C412 1.363 . S
N410 C412 1.356 . S
N410 H422 0.984 . S
N410 H423 0.985 . S
N411 C413 1.356 . S
N411 H416 0.984 . S
N411 H417 0.985 . S
C412 C406 1.379 . S
C412 C409 1.363 . S
C412 N410 1.356 . S
C413 C407 1.363 . S
C413 C408 1.379 . S
C413 N411 1.356 . S
N414 C406 1.356 . S
N414 H420 0.984 . S
N414 H421 0.984 . S
N415 C408 1.356 . S
N415 H418 0.984 . S
N415 H419 0.985 . S
H416 N411 0.984 . S
H417 N411 0.985 . S
H418 N415 0.984 . S
H419 N415 0.985 . S
H420 N414 0.984 . S
H421 N414 0.984 . S
H422 N410 0.984 . S
H423 N410 0.985 . S
C424 C425 1.363 . S
C424 C430 1.379 . S
C424 N432 1.356 . S
C425 C424 1.363 . S
C425 C431 1.363 . S
C426 C427 1.363 . S
C426 C431 1.379 . S
C426 N433 1.356 . S
C427 C426 1.363 . S
C427 C430 1.363 . S
N428 C430 1.356 . S
N428 H440 0.984 . S
N428 H441 0.985 . S
N429 C431 1.356 . S
N429 H434 0.984 1_554 S
N429 H435 0.985 1_554 S
C430 C424 1.379 . S
C430 C427 1.363 . S
C430 N428 1.356 . S
C431 C425 1.363 . S
C431 C426 1.379 . S
C431 N429 1.356 . S
N432 C424 1.356 . S
N432 H438 0.984 . S
N432 H439 0.984 . S
N433 C426 1.356 . S
N433 H436 0.984 . S
N433 H437 0.985 . S
H434 N429 0.984 1_556 S
H435 N429 0.985 1_556 S
H436 N433 0.984 . S
H437 N433 0.985 . S
H438 N432 0.984 . S
H439 N432 0.984 . S
H440 N428 0.984 . S
H441 N428 0.985 . S
C442 C443 1.363 . S
C442 C448 1.379 . S
C442 N450 1.356 . S
C443 C442 1.363 . S
C443 C449 1.363 . S
C444 C445 1.363 . S
C444 C449 1.379 . S
C444 N451 1.356 . S
C445 C444 1.363 . S
C445 C448 1.363 . S
N446 C448 1.356 . S
N446 H458 0.984 . S
N446 H459 0.985 . S
N447 C449 1.356 . S
N447 H452 0.984 . S
N447 H453 0.985 . S
C448 C442 1.379 . S
C448 C445 1.363 . S
C448 N446 1.356 . S
C449 C443 1.363 . S
C449 C444 1.379 . S
C449 N447 1.356 . S
N450 C442 1.356 . S
N450 H456 0.984 . S
N450 H457 0.984 . S
N451 C444 1.356 . S
N451 H454 0.984 . S
N451 H455 0.985 . S
H452 N447 0.984 . S
H453 N447 0.985 . S
H454 N451 0.984 . S
H455 N451 0.985 . S
H456 N450 0.984 . S
H457 N450 0.984 . S
H458 N446 0.984 . S
H459 N446 0.985 . S
C460 C461 1.363 . S
C460 C466 1.379 . S
C460 N468 1.356 . S
C461 C460 1.363 . S
C461 C467 1.363 . S
C462 C463 1.363 . S
C462 C467 1.379 . S
C462 N469 1.356 . S
C463 C462 1.363 . S
C463 C466 1.363 . S
N464 C466 1.356 . S
N464 H476 0.984 . S
N464 H477 0.985 . S
N465 C467 1.356 . S
N465 H470 0.984 . S
N465 H471 0.985 . S
C466 C460 1.379 . S
C466 C463 1.363 . S
C466 N464 1.356 . S
C467 C461 1.363 . S
C467 C462 1.379 . S
C467 N465 1.356 . S
N468 C460 1.356 . S
N468 H474 0.984 . S
N468 H475 0.984 . S
N469 C462 1.356 . S
N469 H472 0.984 . S
N469 H473 0.985 . S
H470 N465 0.984 . S
H471 N465 0.985 . S
H472 N469 0.984 . S
H473 N469 0.985 . S
H474 N468 0.984 . S
H475 N468 0.984 . S
H476 N464 0.984 . S
H477 N464 0.985 . S
C478 C479 1.363 . S
C478 C484 1.379 . S
C478 N486 1.356 . S
C479 C478 1.363 . S
C479 C485 1.363 . S
C480 C481 1.363 . S
C480 C485 1.379 . S
C480 N487 1.356 . S
C481 C480 1.363 . S
C481 C484 1.363 . S
N482 C484 1.356 . S
N482 H494 0.984 . S
N482 H495 0.985 . S
N483 C485 1.356 . S
N483 H488 0.984 . S
N483 H489 0.985 . S
C484 C478 1.379 . S
C484 C481 1.363 . S
C484 N482 1.356 . S
C485 C479 1.363 . S
C485 C480 1.379 . S
C485 N483 1.356 . S
N486 C478 1.356 . S
N486 H492 0.984 . S
N486 H493 0.984 . S
N487 C480 1.356 . S
N487 H490 0.984 . S
N487 H491 0.985 . S
H488 N483 0.984 . S
H489 N483 0.985 . S
H490 N487 0.984 . S
H491 N487 0.985 . S
H492 N486 0.984 . S
H493 N486 0.984 . S
H494 N482 0.984 . S
H495 N482 0.985 . S
C496 C497 1.363 . S
C496 C502 1.379 . S
C496 N504 1.356 . S
C497 C496 1.363 . S
C497 C503 1.363 . S
C498 C499 1.363 . S
C498 C503 1.379 . S
C498 N505 1.356 . S
C499 C498 1.363 . S
C499 C502 1.363 . S
N500 C502 1.356 . S
N500 H512 0.984 . S
N500 H513 0.985 . S
N501 C503 1.356 . S
N501 H506 0.984 . S
N501 H507 0.985 . S
C502 C496 1.379 . S
C502 C499 1.363 . S
C502 N500 1.356 . S
C503 C497 1.363 . S
C503 C498 1.379 . S
C503 N501 1.356 . S
N504 C496 1.356 . S
N504 H510 0.984 . S
N504 H511 0.984 . S
N505 C498 1.356 . S
N505 H508 0.984 . S
N505 H509 0.985 . S
H506 N501 0.984 . S
H507 N501 0.985 . S
H508 N505 0.984 . S
H509 N505 0.985 . S
H510 N504 0.984 . S
H511 N504 0.984 . S
H512 N500 0.984 . S
H513 N500 0.985 . S
C514 C515 1.363 . S
C514 C520 1.379 . S
C514 N522 1.356 . S
C515 C514 1.363 . S
C515 C521 1.363 . S
C516 C517 1.363 . S
C516 C521 1.379 . S
C516 N523 1.356 . S
C517 C516 1.363 . S
C517 C520 1.363 . S
N518 C520 1.356 . S
N518 H530 0.984 1_565 S
N518 H531 0.985 1_565 S
N519 C521 1.356 . S
N519 H524 0.984 . S
N519 H525 0.985 . S
C520 C514 1.379 . S
C520 C517 1.363 . S
C520 N518 1.356 . S
C521 C515 1.363 . S
C521 C516 1.379 . S
C521 N519 1.356 . S
N522 C514 1.356 . S
N522 H528 0.984 . S
N522 H529 0.984 . S
N523 C516 1.356 . S
N523 H526 0.984 . S
N523 H527 0.985 . S
H524 N519 0.984 . S
H525 N519 0.985 . S
H526 N523 0.984 . S
H527 N523 0.985 . S
H528 N522 0.984 . S
H529 N522 0.984 . S
H530 N518 0.984 1_545 S
H531 N518 0.985 1_545 S
C532 C533 1.363 . S
C532 C538 1.379 . S
C532 N540 1.356 . S
C533 C532 1.363 . S
C533 C539 1.363 . S
C534 C535 1.363 . S
C534 C539 1.379 . S
C534 N541 1.356 1_556 S
C535 C534 1.363 . S
C535 C538 1.363 . S
N536 C538 1.356 . S
N536 H548 0.984 . S
N536 H549 0.985 . S
N537 C539 1.356 . S
N537 H542 0.984 . S
N537 H543 0.985 . S
C538 C532 1.379 . S
C538 C535 1.363 . S
C538 N536 1.356 . S
C539 C533 1.363 . S
C539 C534 1.379 . S
C539 N537 1.356 . S
N540 C532 1.356 . S
N540 H546 0.984 . S
N540 H547 0.984 . S
N541 C534 1.356 1_554 S
N541 H544 0.984 . S
N541 H545 0.985 . S
H542 N537 0.984 . S
H543 N537 0.985 . S
H544 N541 0.984 . S
H545 N541 0.985 . S
H546 N540 0.984 . S
H547 N540 0.984 . S
H548 N536 0.984 . S
H549 N536 0.985 . S
C550 C551 1.363 . S
C550 C556 1.379 . S
C550 N558 1.356 . S
C551 C550 1.363 . S
C551 C557 1.363 . S
C552 C553 1.363 . S
C552 C557 1.379 . S
C552 N559 1.356 . S
C553 C552 1.363 . S
C553 C556 1.363 . S
N554 C556 1.356 . S
N554 H566 0.984 . S
N554 H567 0.985 . S
N555 C557 1.356 . S
N555 H560 0.984 . S
N555 H561 0.985 . S
C556 C550 1.379 . S
C556 C553 1.363 . S
C556 N554 1.356 . S
C557 C551 1.363 . S
C557 C552 1.379 . S
C557 N555 1.356 . S
N558 C550 1.356 . S
N558 H564 0.984 . S
N558 H565 0.984 . S
N559 C552 1.356 . S
N559 H562 0.984 . S
N559 H563 0.985 . S
H560 N555 0.984 . S
H561 N555 0.985 . S
H562 N559 0.984 . S
H563 N559 0.985 . S
H564 N558 0.984 . S
H565 N558 0.984 . S
H566 N554 0.984 . S
H567 N554 0.985 . S
C568 C569 1.363 . S
C568 C574 1.379 . S
C568 N576 1.356 . S
C569 C568 1.363 . S
C569 C575 1.363 . S
C570 C571 1.363 . S
C570 C575 1.379 . S
C570 N577 1.356 . S
C571 C570 1.363 . S
C571 C574 1.363 . S
N572 C574 1.356 . S
N572 H584 0.984 . S
N572 H585 0.985 . S
N573 C575 1.356 . S
N573 H578 0.984 . S
N573 H579 0.985 . S
C574 C568 1.379 . S
C574 C571 1.363 . S
C574 N572 1.356 . S
C575 C569 1.363 . S
C575 C570 1.379 . S
C575 N573 1.356 . S
N576 C568 1.356 . S
N576 H582 0.984 . S
N576 H583 0.984 . S
N577 C570 1.356 . S
N577 H580 0.984 . S
N577 H581 0.985 . S
H578 N573 0.984 . S
H579 N573 0.985 . S
H580 N577 0.984 . S
H581 N577 0.985 . S
H582 N576 0.984 . S
H583 N576 0.984 . S
H584 N572 0.984 . S
H585 N572 0.985 . S
C586 C587 1.363 . S
C586 C592 1.379 . S
C586 N594 1.356 . S
C587 C586 1.363 . S
C587 C593 1.363 . S
C588 C589 1.363 . S
C588 C593 1.379 . S
C588 N595 1.356 . S
C589 C588 1.363 . S
C589 C592 1.363 . S
N590 C592 1.356 . S
N590 H602 0.984 . S
N590 H603 0.985 . S
N591 C593 1.356 . S
N591 H596 0.984 . S
N591 H597 0.985 . S
C592 C586 1.379 . S
C592 C589 1.363 . S
C592 N590 1.356 . S
C593 C587 1.363 . S
C593 C588 1.379 . S
C593 N591 1.356 . S
N594 C586 1.356 . S
N594 H600 0.984 . S
N594 H601 0.984 . S
N595 C588 1.356 . S
N595 H598 0.984 . S
N595 H599 0.985 . S
H596 N591 0.984 . S
H597 N591 0.985 . S
H598 N595 0.984 . S
H599 N595 0.985 . S
H600 N594 0.984 . S
H601 N594 0.984 . S
H602 N590 0.984 . S
H603 N590 0.985 . S
C604 C605 1.363 . S
C604 C610 1.379 . S
C604 N612 1.356 . S
C605 C604 1.363 . S
C605 C611 1.363 . S
C606 C607 1.363 . S
C606 C611 1.379 . S
C606 N613 1.356 . S
C607 C606 1.363 . S
C607 C610 1.363 . S
N608 C610 1.356 . S
N608 H620 0.984 . S
N608 H621 0.985 . S
N609 C611 1.356 . S
N609 H614 0.984 . S
N609 H615 0.985 . S
C610 C604 1.379 . S
C610 C607 1.363 . S
C610 N608 1.356 . S
C611 C605 1.363 . S
C611 C606 1.379 . S
C611 N609 1.356 . S
N612 C604 1.356 . S
N612 H618 0.984 . S
N612 H619 0.984 . S
N613 C606 1.356 . S
N613 H616 0.984 . S
N613 H617 0.985 . S
H614 N609 0.984 . S
H615 N609 0.985 . S
H616 N613 0.984 . S
H617 N613 0.985 . S
H618 N612 0.984 . S
H619 N612 0.984 . S
H620 N608 0.984 . S
H621 N608 0.985 . S
C622 C623 1.363 . S
C622 C628 1.379 . S
C622 N630 1.356 . S
C623 C622 1.363 . S
C623 C629 1.363 . S
C624 C625 1.363 . S
C624 C629 1.379 . S
C624 N631 1.356 . S
C625 C624 1.363 . S
C625 C628 1.363 . S
N626 C628 1.356 . S
N626 H638 0.984 . S
N626 H639 0.985 . S
N627 C629 1.356 . S
N627 H632 0.984 . S
N627 H633 0.985 . S
C628 C622 1.379 . S
C628 C625 1.363 . S
C628 N626 1.356 . S
C629 C623 1.363 . S
C629 C624 1.379 . S
C629 N627 1.356 . S
N630 C622 1.356 . S
N630 H636 0.984 . S
N630 H637 0.984 . S
N631 C624 1.356 . S
N631 H634 0.984 . S
N631 H635 0.985 . S
H632 N627 0.984 . S
H633 N627 0.985 . S
H634 N631 0.984 . S
H635 N631 0.985 . S
H636 N630 0.984 . S
H637 N630 0.984 . S
H638 N626 0.984 . S
H639 N626 0.985 . S
C640 C641 1.363 . S
C640 C646 1.379 . S
C640 N648 1.356 . S
C641 C640 1.363 . S
C641 C647 1.363 . S
C642 C643 1.363 . S
C642 C647 1.379 . S
C642 N649 1.356 . S
C643 C642 1.363 . S
C643 C646 1.363 . S
N644 C646 1.356 . S
N644 H656 0.984 . S
N644 H657 0.985 . S
N645 C647 1.356 . S
N645 H650 0.984 . S
N645 H651 0.985 . S
C646 C640 1.379 . S
C646 C643 1.363 . S
C646 N644 1.356 . S
C647 C641 1.363 . S
C647 C642 1.379 . S
C647 N645 1.356 . S
N648 C640 1.356 . S
N648 H654 0.984 . S
N648 H655 0.984 . S
N649 C642 1.356 . S
N649 H652 0.984 . S
N649 H653 0.985 . S
H650 N645 0.984 . S
H651 N645 0.985 . S
H652 N649 0.984 . S
H653 N649 0.985 . S
H654 N648 0.984 . S
H655 N648 0.984 . S
H656 N644 0.984 . S
H657 N644 0.985 . S
C658 C659 1.363 . S
C658 C664 1.379 . S
C658 N666 1.356 . S
C659 C658 1.363 . S
C659 C665 1.363 . S
C660 C661 1.363 . S
C660 C665 1.379 . S
C660 N667 1.356 . S
C661 C660 1.363 . S
C661 C664 1.363 . S
N662 C664 1.356 . S
N662 H674 0.984 . S
N662 H675 0.985 . S
N663 C665 1.356 . S
N663 H668 0.984 . S
N663 H669 0.985 . S
C664 C658 1.379 . S
C664 C661 1.363 . S
C664 N662 1.356 . S
C665 C659 1.363 . S
C665 C660 1.379 . S
C665 N663 1.356 . S
N666 C658 1.356 . S
N666 H672 0.984 . S
N666 H673 0.984 . S
N667 C660 1.356 . S
N667 H670 0.984 1_554 S
N667 H671 0.985 1_554 S
H668 N663 0.984 . S
H669 N663 0.985 . S
H670 N667 0.984 1_556 S
H671 N667 0.985 1_556 S
H672 N666 0.984 . S
H673 N666 0.984 . S
H674 N662 0.984 . S
H675 N662 0.985 . S
C676 C677 1.363 . S
C676 C682 1.379 . S
C676 N684 1.356 . S
C677 C676 1.363 . S
C677 C683 1.363 . S
C678 C679 1.363 . S
C678 C683 1.379 . S
C678 N685 1.356 . S
C679 C678 1.363 . S
C679 C682 1.363 . S
N680 C682 1.356 . S
N680 H692 0.984 . S
N680 H693 0.985 . S
N681 C683 1.356 . S
N681 H686 0.984 . S
N681 H687 0.985 . S
C682 C676 1.379 . S
C682 C679 1.363 . S
C682 N680 1.356 . S
C683 C677 1.363 . S
C683 C678 1.379 . S
C683 N681 1.356 . S
N684 C676 1.356 . S
N684 H690 0.984 . S
N684 H691 0.984 . S
N685 C678 1.356 . S
N685 H688 0.984 . S
N685 H689 0.985 . S
H686 N681 0.984 . S
H687 N681 0.985 . S
H688 N685 0.984 . S
H689 N685 0.985 . S
H690 N684 0.984 . S
H691 N684 0.984 . S
H692 N680 0.984 . S
H693 N680 0.985 . S
C694 C695 1.363 . S
C694 C700 1.379 . S
C694 N702 1.356 . S
C695 C694 1.363 . S
C695 C701 1.363 . S
C696 C697 1.363 . S
C696 C701 1.379 . S
C696 N703 1.356 . S
C697 C696 1.363 . S
C697 C700 1.363 . S
N698 C700 1.356 . S
N698 H710 0.984 . S
N698 H711 0.985 . S
N699 C701 1.356 . S
N699 H704 0.984 . S
N699 H705 0.985 . S
C700 C694 1.379 . S
C700 C697 1.363 . S
C700 N698 1.356 . S
C701 C695 1.363 . S
C701 C696 1.379 . S
C701 N699 1.356 . S
N702 C694 1.356 . S
N702 H708 0.984 . S
N702 H709 0.984 . S
N703 C696 1.356 . S
N703 H706 0.984 . S
N703 H707 0.985 . S
H704 N699 0.984 . S
H705 N699 0.985 . S
H706 N703 0.984 . S
H707 N703 0.985 . S
H708 N702 0.984 . S
H709 N702 0.984 . S
H710 N698 0.984 . S
H711 N698 0.985 . S
C712 C713 1.363 . S
C712 C718 1.379 . S
C712 N720 1.356 . S
C713 C712 1.363 . S
C713 C719 1.363 . S
C714 C715 1.363 . S
C714 C719 1.379 . S
C714 N721 1.356 . S
C715 C714 1.363 . S
C715 C718 1.363 . S
N716 C718 1.356 . S
N716 H728 0.984 . S
N716 H729 0.985 . S
N717 C719 1.356 . S
N717 H722 0.984 . S
N717 H723 0.985 . S
C718 C712 1.379 . S
C718 C715 1.363 . S
C718 N716 1.356 . S
C719 C713 1.363 . S
C719 C714 1.379 . S
C719 N717 1.356 . S
N720 C712 1.356 . S
N720 H726 0.984 . S
N720 H727 0.984 . S
N721 C714 1.356 . S
N721 H724 0.984 . S
N721 H725 0.985 . S
H722 N717 0.984 . S
H723 N717 0.985 . S
H724 N721 0.984 . S
H725 N721 0.985 . S
H726 N720 0.984 . S
H727 N720 0.984 . S
H728 N716 0.984 . S
H729 N716 0.985 . S
C730 C731 1.363 . S
C730 C736 1.379 . S
C730 N738 1.356 . S
C731 C730 1.363 . S
C731 C737 1.363 . S
C732 C733 1.363 . S
C732 C737 1.379 . S
C732 N739 1.356 . S
C733 C732 1.363 . S
C733 C736 1.363 . S
N734 C736 1.356 . S
N734 H746 0.984 . S
N734 H747 0.985 . S
N735 C737 1.356 1_554 S
N735 H740 0.984 . S
N735 H741 0.985 . S
C736 C730 1.379 . S
C736 C733 1.363 . S
C736 N734 1.356 . S
C737 C731 1.363 . S
C737 C732 1.379 . S
C737 N735 1.356 1_556 S
N738 C730 1.356 . S
N738 H744 0.984 . S
N738 H745 0.984 1_556 S
N739 C732 1.356 . S
N739 H742 0.984 . S
N739 H743 0.985 . S
H740 N735 0.984 . S
H741 N735 0.985 . S
H742 N739 0.984 . S
H743 N739 0.985 . S
H744 N738 0.984 . S
H745 N738 0.984 1_554 S
H746 N734 0.984 . S
H747 N734 0.985 . S
C748 C749 1.363 . S
C748 C754 1.379 . S
C748 N756 1.356 . S
C749 C748 1.363 . S
C749 C755 1.363 . S
C750 C751 1.363 . S
C750 C755 1.379 . S
C750 N757 1.356 . S
C751 C750 1.363 . S
C751 C754 1.363 . S
N752 C754 1.356 . S
N752 H764 0.984 . S
N752 H765 0.985 . S
N753 C755 1.356 . S
N753 H758 0.984 . S
N753 H759 0.985 . S
C754 C748 1.379 . S
C754 C751 1.363 . S
C754 N752 1.356 . S
C755 C749 1.363 . S
C755 C750 1.379 . S
C755 N753 1.356 . S
N756 C748 1.356 . S
N756 H762 0.984 . S
N756 H763 0.984 . S
N757 C750 1.356 . S
N757 H760 0.984 . S
N757 H761 0.985 . S
H758 N753 0.984 . S
H759 N753 0.985 . S
H760 N757 0.984 . S
H761 N757 0.985 . S
H762 N756 0.984 . S
H763 N756 0.984 . S
H764 N752 0.984 . S
H765 N752 0.985 . S
C766 C767 1.363 . S
C766 C772 1.379 . S
C766 N774 1.356 . S
C767 C766 1.363 . S
C767 C773 1.363 . S
C768 C769 1.363 . S
C768 C773 1.379 . S
C768 N775 1.356 . S
C769 C768 1.363 . S
C769 C772 1.363 . S
N770 C772 1.356 . S
N770 H782 0.984 . S
N770 H783 0.985 . S
N771 C773 1.356 . S
N771 H776 0.984 . S
N771 H777 0.985 . S
C772 C766 1.379 . S
C772 C769 1.363 . S
C772 N770 1.356 . S
C773 C767 1.363 . S
C773 C768 1.379 . S
C773 N771 1.356 . S
N774 C766 1.356 . S
N774 H780 0.984 . S
N774 H781 0.984 . S
N775 C768 1.356 . S
N775 H778 0.984 . S
N775 H779 0.985 . S
H776 N771 0.984 . S
H777 N771 0.985 . S
H778 N775 0.984 . S
H779 N775 0.985 . S
H780 N774 0.984 . S
H781 N774 0.984 . S
H782 N770 0.984 . S
H783 N770 0.985 . S
C784 C785 1.363 . S
C784 C790 1.379 . S
C784 N792 1.356 . S
C785 C784 1.363 . S
C785 C791 1.363 . S
C786 C787 1.363 . S
C786 C791 1.379 . S
C786 N793 1.356 . S
C787 C786 1.363 . S
C787 C790 1.363 . S
N788 C790 1.356 . S
N788 H800 0.984 1_655 S
N788 H801 0.985 1_655 S
N789 C791 1.356 . S
N789 H794 0.984 . S
N789 H795 0.985 . S
C790 C784 1.379 . S
C790 C787 1.363 . S
C790 N788 1.356 . S
C791 C785 1.363 . S
C791 C786 1.379 . S
C791 N789 1.356 . S
N792 C784 1.356 . S
N792 H798 0.984 . S
N792 H799 0.984 . S
N793 C786 1.356 . S
N793 H796 0.984 . S
N793 H797 0.985 . S
H794 N789 0.984 . S
H795 N789 0.985 . S
H796 N793 0.984 . S
H797 N793 0.985 . S
H798 N792 0.984 . S
H799 N792 0.984 . S
H800 N788 0.984 1_455 S
H801 N788 0.985 1_455 S
C802 C803 1.363 . S
C802 C808 1.379 . S
C802 N810 1.356 . S
C803 C802 1.363 . S
C803 C809 1.363 . S
C804 C805 1.363 . S
C804 C809 1.379 . S
C804 N811 1.356 . S
C805 C804 1.363 . S
C805 C808 1.363 . S
N806 C808 1.356 . S
N806 H818 0.984 . S
N806 H819 0.985 . S
N807 C809 1.356 . S
N807 H812 0.984 . S
N807 H813 0.985 . S
C808 C802 1.379 . S
C808 C805 1.363 . S
C808 N806 1.356 . S
C809 C803 1.363 . S
C809 C804 1.379 . S
C809 N807 1.356 . S
N810 C802 1.356 . S
N810 H816 0.984 . S
N810 H817 0.984 . S
N811 C804 1.356 . S
N811 H814 0.984 . S
N811 H815 0.985 . S
H812 N807 0.984 . S
H813 N807 0.985 . S
H814 N811 0.984 . S
H815 N811 0.985 . S
H816 N810 0.984 . S
H817 N810 0.984 . S
H818 N806 0.984 . S
H819 N806 0.985 . S
C820 C821 1.363 . S
C820 C826 1.379 . S
C820 N828 1.356 . S
C821 C820 1.363 . S
C821 C827 1.363 . S
C822 C823 1.363 . S
C822 C827 1.379 . S
C822 N829 1.356 . S
C823 C822 1.363 . S
C823 C826 1.363 . S
N824 C826 1.356 . S
N824 H836 0.984 . S
N824 H837 0.985 . S
N825 C827 1.356 . S
N825 H830 0.984 . S
N825 H831 0.985 . S
C826 C820 1.379 . S
C826 C823 1.363 . S
C826 N824 1.356 . S
C827 C821 1.363 . S
C827 C822 1.379 . S
C827 N825 1.356 . S
N828 C820 1.356 . S
N828 H834 0.984 . S
N828 H835 0.984 . S
N829 C822 1.356 . S
N829 H832 0.984 . S
N829 H833 0.985 . S
H830 N825 0.984 . S
H831 N825 0.985 . S
H832 N829 0.984 . S
H833 N829 0.985 . S
H834 N828 0.984 . S
H835 N828 0.984 . S
H836 N824 0.984 . S
H837 N824 0.985 . S
C838 C839 1.363 . S
C838 C844 1.379 . S
C838 N846 1.356 . S
C839 C838 1.363 . S
C839 C845 1.363 . S
C840 C841 1.363 . S
C840 C845 1.379 . S
C840 N847 1.356 . S
C841 C840 1.363 . S
C841 C844 1.363 . S
N842 C844 1.356 . S
N842 H854 0.984 . S
N842 H855 0.985 . S
N843 C845 1.356 . S
N843 H848 0.984 1_554 S
N843 H849 0.985 1_554 S
C844 C838 1.379 . S
C844 C841 1.363 . S
C844 N842 1.356 . S
C845 C839 1.363 . S
C845 C840 1.379 . S
C845 N843 1.356 . S
N846 C838 1.356 . S
N846 H852 0.984 . S
N846 H853 0.984 . S
N847 C840 1.356 . S
N847 H850 0.984 . S
N847 H851 0.985 . S
H848 N843 0.984 1_556 S
H849 N843 0.985 1_556 S
H850 N847 0.984 . S
H851 N847 0.985 . S
H852 N846 0.984 . S
H853 N846 0.984 . S
H854 N842 0.984 . S
H855 N842 0.985 . S
C856 C857 1.363 . S
C856 C862 1.379 . S
C856 N864 1.356 . S
C857 C856 1.363 . S
C857 C863 1.363 . S
C858 C859 1.363 . S
C858 C863 1.379 . S
C858 N865 1.356 . S
C859 C858 1.363 . S
C859 C862 1.363 . S
N860 C862 1.356 . S
N860 H872 0.984 . S
N860 H873 0.985 . S
N861 C863 1.356 . S
N861 H866 0.984 . S
N861 H867 0.985 . S
C862 C856 1.379 . S
C862 C859 1.363 . S
C862 N860 1.356 . S
C863 C857 1.363 . S
C863 C858 1.379 . S
C863 N861 1.356 . S
N864 C856 1.356 . S
N864 H870 0.984 . S
N864 H871 0.984 . S
N865 C858 1.356 . S
N865 H868 0.984 . S
N865 H869 0.985 . S
H866 N861 0.984 . S
H867 N861 0.985 . S
H868 N865 0.984 . S
H869 N865 0.985 . S
H870 N864 0.984 . S
H871 N864 0.984 . S
H872 N860 0.984 . S
H873 N860 0.985 . S
C874 C875 1.363 . S
C874 C880 1.379 . S
C874 N882 1.356 . S
C875 C874 1.363 . S
C875 C881 1.363 . S
C876 C877 1.363 . S
C876 C881 1.379 . S
C876 N883 1.356 . S
C877 C876 1.363 . S
C877 C880 1.363 . S
N878 C880 1.356 . S
N878 H890 0.984 . S
N878 H891 0.985 . S
N879 C881 1.356 . S
N879 H884 0.984 . S
N879 H885 0.985 . S
C880 C874 1.379 . S
C880 C877 1.363 . S
C880 N878 1.356 . S
C881 C875 1.363 . S
C881 C876 1.379 . S
C881 N879 1.356 . S
N882 C874 1.356 . S
N882 H888 0.984 . S
N882 H889 0.984 . S
N883 C876 1.356 . S
N883 H886 0.984 . S
N883 H887 0.985 . S
H884 N879 0.984 . S
H885 N879 0.985 . S
H886 N883 0.984 . S
H887 N883 0.985 . S
H888 N882 0.984 . S
H889 N882 0.984 . S
H890 N878 0.984 . S
H891 N878 0.985 . S
C892 C893 1.363 . S
C892 C898 1.379 . S
C892 N900 1.356 . S
C893 C892 1.363 . S
C893 C899 1.363 . S
C894 C895 1.363 . S
C894 C899 1.379 . S
C894 N901 1.356 . S
C895 C894 1.363 . S
C895 C898 1.363 . S
N896 C898 1.356 . S
N896 H908 0.984 . S
N896 H909 0.985 . S
N897 C899 1.356 . S
N897 H902 0.984 . S
N897 H903 0.985 . S
C898 C892 1.379 . S
C898 C895 1.363 . S
C898 N896 1.356 . S
C899 C893 1.363 . S
C899 C894 1.379 . S
C899 N897 1.356 . S
N900 C892 1.356 . S
N900 H906 0.984 . S
N900 H907 0.984 . S
N901 C894 1.356 . S
N901 H904 0.984 . S
N901 H905 0.985 . S
H902 N897 0.984 . S
H903 N897 0.985 . S
H904 N901 0.984 . S
H905 N901 0.985 . S
H906 N900 0.984 . S
H907 N900 0.984 . S
H908 N896 0.984 . S
H909 N896 0.985 . S
C910 C911 1.363 . S
C910 C916 1.379 1_556 S
C910 N918 1.356 . S
C911 C910 1.363 . S
C911 C917 1.363 . S
C912 C913 1.363 . S
C912 C917 1.379 . S
C912 N919 1.356 . S
C913 C912 1.363 . S
C913 C916 1.363 1_556 S
N914 C916 1.356 . S
N914 H926 0.984 . S
N914 H927 0.985 . S
N915 C917 1.356 . S
N915 H920 0.984 . S
N915 H921 0.985 . S
C916 C910 1.379 1_554 S
C916 C913 1.363 1_554 S
C916 N914 1.356 . S
C917 C911 1.363 . S
C917 C912 1.379 . S
C917 N915 1.356 . S
N918 C910 1.356 . S
N918 H924 0.984 1_556 S
N918 H925 0.984 . S
N919 C912 1.356 . S
N919 H922 0.984 . S
N919 H923 0.985 . S
H920 N915 0.984 . S
H921 N915 0.985 . S
H922 N919 0.984 . S
H923 N919 0.985 . S
H924 N918 0.984 1_554 S
H925 N918 0.984 . S
H926 N914 0.984 . S
H927 N914 0.985 . S
C928 C929 1.363 . S
C928 C934 1.379 . S
C928 N936 1.356 . S
C929 C928 1.363 . S
C929 C935 1.363 . S
C930 C931 1.363 . S
C930 C935 1.379 . S
C930 N937 1.356 . S
C931 C930 1.363 . S
C931 C934 1.363 . S
N932 C934 1.356 . S
N932 H944 0.984 . S
N932 H945 0.985 . S
N933 C935 1.356 . S
N933 H938 0.984 . S
N933 H939 0.985 . S
C934 C928 1.379 . S
C934 C931 1.363 . S
C934 N932 1.356 . S
C935 C929 1.363 . S
C935 C930 1.379 . S
C935 N933 1.356 . S
N936 C928 1.356 . S
N936 H942 0.984 . S
N936 H943 0.984 . S
N937 C930 1.356 . S
N937 H940 0.984 . S
N937 H941 0.985 . S
H938 N933 0.984 . S
H939 N933 0.985 . S
H940 N937 0.984 . S
H941 N937 0.985 . S
H942 N936 0.984 . S
H943 N936 0.984 . S
H944 N932 0.984 . S
H945 N932 0.985 . S
C946 C947 1.363 . S
C946 C952 1.379 . S
C946 N954 1.356 . S
C947 C946 1.363 . S
C947 C953 1.363 . S
C948 C949 1.363 . S
C948 C953 1.379 . S
C948 N955 1.356 . S
C949 C948 1.363 . S
C949 C952 1.363 . S
N950 C952 1.356 . S
N950 H962 0.984 . S
N950 H963 0.985 . S
N951 C953 1.356 . S
N951 H956 0.984 . S
N951 H957 0.985 . S
C952 C946 1.379 . S
C952 C949 1.363 . S
C952 N950 1.356 . S
C953 C947 1.363 . S
C953 C948 1.379 . S
C953 N951 1.356 . S
N954 C946 1.356 . S
N954 H960 0.984 . S
N954 H961 0.984 . S
N955 C948 1.356 . S
N955 H958 0.984 . S
N955 H959 0.985 . S
H956 N951 0.984 . S
H957 N951 0.985 . S
H958 N955 0.984 . S
H959 N955 0.985 . S
H960 N954 0.984 . S
H961 N954 0.984 . S
H962 N950 0.984 . S
H963 N950 0.985 . S
C964 C965 1.363 . S
C964 C970 1.379 . S
C964 N972 1.356 . S
C965 C964 1.363 . S
C965 C971 1.363 . S
C966 C967 1.363 . S
C966 C971 1.379 . S
C966 N973 1.356 . S
C967 C966 1.363 . S
C967 C970 1.363 . S
N968 C970 1.356 . S
N968 H980 0.984 . S
N968 H981 0.985 . S
N969 C971 1.356 . S
N969 H974 0.984 . S
N969 H975 0.985 . S
C970 C964 1.379 . S
C970 C967 1.363 . S
C970 N968 1.356 . S
C971 C965 1.363 . S
C971 C966 1.379 . S
C971 N969 1.356 . S
N972 C964 1.356 . S
N972 H978 0.984 . S
N972 H979 0.984 . S
N973 C966 1.356 . S
N973 H976 0.984 . S
N973 H977 0.985 . S
H974 N969 0.984 . S
H975 N969 0.985 . S
H976 N973 0.984 . S
H977 N973 0.985 . S
H978 N972 0.984 . S
H979 N972 0.984 . S
H980 N968 0.984 . S
H981 N968 0.985 . S
C982 C983 1.363 . S
C982 C988 1.379 . S
C982 N990 1.356 . S
C983 C982 1.363 . S
C983 C989 1.363 1_455 S
C984 C985 1.363 . S
C984 C989 1.379 1_556 S
C984 N991 1.356 . S
C985 C984 1.363 . S
C985 C988 1.363 1_656 S
N986 C988 1.356 . S
N986 H998 0.984 . S
N986 H999 0.985 1_454 S
N987 C989 1.356 . S
N987 H992 0.984 1_655 S
N987 H993 0.985 . S
C988 C982 1.379 . S
C988 C985 1.363 1_454 S
C988 N986 1.356 . S
C989 C983 1.363 1_655 S
C989 C984 1.379 1_554 S
C989 N987 1.356 . S
N990 C982 1.356 . S
N990 H996 0.984 . S
N990 H997 0.984 . S
N991 C984 1.356 . S
N991 H994 0.984 . S
N991 H995 0.985 . S
H992 N987 0.984 1_455 S
H993 N987 0.985 . S
H994 N991 0.984 . S
H995 N991 0.985 . S
H996 N990 0.984 . S
H997 N990 0.984 . S
H998 N986 0.984 . S
H999 N986 0.985 1_656 S
C1000 C1001 1.363 . S
C1000 C1006 1.379 . S
C1000 N1008 1.356 . S
C1001 C1000 1.363 . S
C1001 C1007 1.363 . S
C1002 C1003 1.363 . S
C1002 C1007 1.379 . S
C1002 N1009 1.356 . S
C1003 C1002 1.363 . S
C1003 C1006 1.363 . S
N1004 C1006 1.356 . S
N1004 H1016 0.984 . S
N1004 H1017 0.985 . S
N1005 C1007 1.356 . S
N1005 H1010 0.984 . S
N1005 H1011 0.985 . S
C1006 C1000 1.379 . S
C1006 C1003 1.363 . S
C1006 N1004 1.356 . S
C1007 C1001 1.363 . S
C1007 C1002 1.379 . S
C1007 N1005 1.356 . S
N1008 C1000 1.356 . S
N1008 H1014 0.984 . S
N1008 H1015 0.984 . S
N1009 C1002 1.356 . S
N1009 H1012 0.984 . S
N1009 H1013 0.985 . S
H1010 N1005 0.984 . S
H1011 N1005 0.985 . S
H1012 N1009 0.984 . S
H1013 N1009 0.985 . S
H1014 N1008 0.984 . S
H1015 N1008 0.984 . S
H1016 N1004 0.984 . S
H1017 N1004 0.985 . S
C1018 C1019 1.363 . S
C1018 C1024 1.379 . S
C1018 N1026 1.356 . S
C1019 C1018 1.363 . S
C1019 C1025 1.363 . S
C1020 C1021 1.363 . S
C1020 C1025 1.379 . S
C1020 N1027 1.356 . S
C1021 C1020 1.363 . S
C1021 C1024 1.363 . S
N1022 C1024 1.356 . S
N1022 H1034 0.984 . S
N1022 H1035 0.985 . S
N1023 C1025 1.356 . S
N1023 H1028 0.984 . S
N1023 H1029 0.985 . S
C1024 C1018 1.379 . S
C1024 C1021 1.363 . S
C1024 N1022 1.356 . S
C1025 C1019 1.363 . S
C1025 C1020 1.379 . S
C1025 N1023 1.356 . S
N1026 C1018 1.356 . S
N1026 H1032 0.984 . S
N1026 H1033 0.984 . S
N1027 C1020 1.356 . S
N1027 H1030 0.984 . S
N1027 H1031 0.985 . S
H1028 N1023 0.984 . S
H1029 N1023 0.985 . S
H1030 N1027 0.984 . S
H1031 N1027 0.985 . S
H1032 N1026 0.984 . S
H1033 N1026 0.984 . S
H1034 N1022 0.984 . S
H1035 N1022 0.985 . S
C1036 C1037 1.363 1_665 S
C1036 C1042 1.379 1_556 S
C1036 N1044 1.356 . S
C1037 C1036 1.363 1_445 S
C1037 C1043 1.363 1_556 S
C1038 C1039 1.363 1_445 S
C1038 C1043 1.379 . S
C1038 N1045 1.356 . S
C1039 C1038 1.363 1_665 S
C1039 C1042 1.363 . S
N1040 C1042 1.356 . S
N1040 H1052 0.984 . S
N1040 H1053 0.985 . S
N1041 C1043 1.356 . S
N1041 H1046 0.984 1_554 S
N1041 H1047 0.985 . S
C1042 C1036 1.379 1_554 S
C1042 C1039 1.363 . S
C1042 N1040 1.356 . S
C1043 C1037 1.363 1_554 S
C1043 C1038 1.379 . S
C1043 N1041 1.356 . S
N1044 C1036 1.356 . S
N1044 H1050 0.984 . S
N1044 H1051 0.984 1_665 S
N1045 C1038 1.356 . S
N1045 H1048 0.984 1_445 S
N1045 H1049 0.985 . S
H1046 N1041 0.984 1_556 S
H1047 N1041 0.985 . S
H1048 N1045 0.984 1_665 S
H1049 N1045 0.985 . S
H1050 N1044 0.984 . S
H1051 N1044 0.984 1_445 S
H1052 N1040 0.984 . S
H1053 N1040 0.985 . S
C1054 C1055 1.363 . S
C1054 C1060 1.379 . S
C1054 N1062 1.356 . S
C1055 C1054 1.363 . S
C1055 C1061 1.363 1_545 S
C1056 C1057 1.363 . S
C1056 C1061 1.379 . S
C1056 N1063 1.356 . S
C1057 C1056 1.363 . S
C1057 C1060 1.363 1_565 S
N1058 C1060 1.356 . S
N1058 H1070 0.984 . S
N1058 H1071 0.985 1_545 S
N1059 C1061 1.356 . S
N1059 H1064 0.984 1_565 S
N1059 H1065 0.985 . S
C1060 C1054 1.379 . S
C1060 C1057 1.363 1_545 S
C1060 N1058 1.356 . S
C1061 C1055 1.363 1_565 S
C1061 C1056 1.379 . S
C1061 N1059 1.356 . S
N1062 C1054 1.356 . S
N1062 H1068 0.984 . S
N1062 H1069 0.984 . S
N1063 C1056 1.356 . S
N1063 H1066 0.984 . S
N1063 H1067 0.985 . S
H1064 N1059 0.984 1_545 S
H1065 N1059 0.985 . S
H1066 N1063 0.984 . S
H1067 N1063 0.985 . S
H1068 N1062 0.984 . S
H1069 N1062 0.984 . S
H1070 N1058 0.984 . S
H1071 N1058 0.985 1_565 S
C1072 C1073 1.363 . S
C1072 C1078 1.379 . S
C1072 N1080 1.356 . S
C1073 C1072 1.363 . S
C1073 C1079 1.363 . S
C1074 C1075 1.363 . S
C1074 C1079 1.379 . S
C1074 N1081 1.356 . S
C1075 C1074 1.363 . S
C1075 C1078 1.363 . S
N1076 C1078 1.356 . S
N1076 H1088 0.984 . S
N1076 H1089 0.985 . S
N1077 C1079 1.356 . S
N1077 H1082 0.984 . S
N1077 H1083 0.985 . S
C1078 C1072 1.379 . S
C1078 C1075 1.363 . S
C1078 N1076 1.356 . S
C1079 C1073 1.363 . S
C1079 C1074 1.379 . S
C1079 N1077 1.356 . S
N1080 C1072 1.356 . S
N1080 H1086 0.984 . S
N1080 H1087 0.984 . S
N1081 C1074 1.356 . S
N1081 H1084 0.984 . S
N1081 H1085 0.985 . S
H1082 N1077 0.984 . S
H1083 N1077 0.985 . S
H1084 N1081 0.984 . S
H1085 N1081 0.985 . S
H1086 N1080 0.984 . S
H1087 N1080 0.984 . S
H1088 N1076 0.984 . S
H1089 N1076 0.985 . S
C1090 C1091 1.363 1_556 S
C1090 C1096 1.379 1_556 S
C1090 N1098 1.356 . S
C1091 C1090 1.363 1_554 S
C1091 C1097 1.363 . S
C1092 C1093 1.363 . S
C1092 C1097 1.379 . S
C1092 N1099 1.356 . S
C1093 C1092 1.363 . S
C1093 C1096 1.363 . S
N1094 C1096 1.356 1_556 S
N1094 H1106 0.984 . S
N1094 H1107 0.985 1_556 S
N1095 C1097 1.356 . S
N1095 H1100 0.984 . S
N1095 H1101 0.985 . S
C1096 C1090 1.379 1_554 S
C1096 C1093 1.363 . S
C1096 N1094 1.356 1_554 S
C1097 C1091 1.363 . S
C1097 C1092 1.379 . S
C1097 N1095 1.356 . S
N1098 C1090 1.356 . S
N1098 H1104 0.984 . S
N1098 H1105 0.984 . S
N1099 C1092 1.356 . S
N1099 H1102 0.984 . S
N1099 H1103 0.985 . S
H1100 N1095 0.984 . S
H1101 N1095 0.985 . S
H1102 N1099 0.984 . S
H1103 N1099 0.985 . S
H1104 N1098 0.984 . S
H1105 N1098 0.984 . S
H1106 N1094 0.984 . S
H1107 N1094 0.985 1_554 S
C1108 C1109 1.363 . S
C1108 C1114 1.379 . S
C1108 N1116 1.356 . S
C1109 C1108 1.363 . S
C1109 C1115 1.363 . S
C1110 C1111 1.363 . S
C1110 C1115 1.379 . S
C1110 N1117 1.356 . S
C1111 C1110 1.363 . S
C1111 C1114 1.363 . S
N1112 C1114 1.356 . S
N1112 H1124 0.984 . S
N1112 H1125 0.985 . S
N1113 C1115 1.356 . S
N1113 H1118 0.984 . S
N1113 H1119 0.985 . S
C1114 C1108 1.379 . S
C1114 C1111 1.363 . S
C1114 N1112 1.356 . S
C1115 C1109 1.363 . S
C1115 C1110 1.379 . S
C1115 N1113 1.356 . S
N1116 C1108 1.356 . S
N1116 H1122 0.984 . S
N1116 H1123 0.984 . S
N1117 C1110 1.356 . S
N1117 H1120 0.984 . S
N1117 H1121 0.985 . S
H1118 N1113 0.984 . S
H1119 N1113 0.985 . S
H1120 N1117 0.984 . S
H1121 N1117 0.985 . S
H1122 N1116 0.984 . S
H1123 N1116 0.984 . S
H1124 N1112 0.984 . S
H1125 N1112 0.985 . S
C1126 C1127 1.363 1_655 S
C1126 C1132 1.379 . S
C1126 N1134 1.356 1_655 S
C1127 C1126 1.363 1_455 S
C1127 C1133 1.363 . S
C1128 C1129 1.363 1_455 S
C1128 C1133 1.379 . S
C1128 N1135 1.356 1_455 S
C1129 C1128 1.363 1_655 S
C1129 C1132 1.363 . S
N1130 C1132 1.356 . S
N1130 H1142 0.984 . S
N1130 H1143 0.985 . S
N1131 C1133 1.356 . S
N1131 H1136 0.984 . S
N1131 H1137 0.985 . S
C1132 C1126 1.379 . S
C1132 C1129 1.363 . S
C1132 N1130 1.356 . S
C1133 C1127 1.363 . S
C1133 C1128 1.379 . S
C1133 N1131 1.356 . S
N1134 C1126 1.356 1_455 S
N1134 H1140 0.984 1_455 S
N1134 H1141 0.984 . S
N1135 C1128 1.356 1_655 S
N1135 H1138 0.984 . S
N1135 H1139 0.985 1_655 S
H1136 N1131 0.984 . S
H1137 N1131 0.985 . S
H1138 N1135 0.984 . S
H1139 N1135 0.985 1_455 S
H1140 N1134 0.984 1_655 S
H1141 N1134 0.984 . S
H1142 N1130 0.984 . S
H1143 N1130 0.985 . S
C1144 C1145 1.363 . S
C1144 C1150 1.379 . S
C1144 N1152 1.356 . S
C1145 C1144 1.363 . S
C1145 C1151 1.363 . S
C1146 C1147 1.363 . S
C1146 C1151 1.379 . S
C1146 N1153 1.356 . S
C1147 C1146 1.363 . S
C1147 C1150 1.363 . S
N1148 C1150 1.356 . S
N1148 H1160 0.984 . S
N1148 H1161 0.985 . S
N1149 C1151 1.356 . S
N1149 H1154 0.984 . S
N1149 H1155 0.985 . S
C1150 C1144 1.379 . S
C1150 C1147 1.363 . S
C1150 N1148 1.356 . S
C1151 C1145 1.363 . S
C1151 C1146 1.379 . S
C1151 N1149 1.356 . S
N1152 C1144 1.356 . S
N1152 H1158 0.984 . S
N1152 H1159 0.984 . S
N1153 C1146 1.356 . S
N1153 H1156 0.984 . S
N1153 H1157 0.985 . S
H1154 N1149 0.984 . S
H1155 N1149 0.985 . S
H1156 N1153 0.984 . S
H1157 N1153 0.985 . S
H1158 N1152 0.984 . S
H1159 N1152 0.984 . S
H1160 N1148 0.984 . S
H1161 N1148 0.985 . S
C1162 C1163 1.363 . S
C1162 C1168 1.379 . S
C1162 N1170 1.356 . S
C1163 C1162 1.363 . S
C1163 C1169 1.363 . S
C1164 C1165 1.363 . S
C1164 C1169 1.379 . S
C1164 N1171 1.356 . S
C1165 C1164 1.363 . S
C1165 C1168 1.363 . S
N1166 C1168 1.356 . S
N1166 H1178 0.984 . S
N1166 H1179 0.985 . S
N1167 C1169 1.356 . S
N1167 H1172 0.984 . S
N1167 H1173 0.985 . S
C1168 C1162 1.379 . S
C1168 C1165 1.363 . S
C1168 N1166 1.356 . S
C1169 C1163 1.363 . S
C1169 C1164 1.379 . S
C1169 N1167 1.356 . S
N1170 C1162 1.356 . S
N1170 H1176 0.984 . S
N1170 H1177 0.984 . S
N1171 C1164 1.356 . S
N1171 H1174 0.984 . S
N1171 H1175 0.985 . S
H1172 N1167 0.984 . S
H1173 N1167 0.985 . S
H1174 N1171 0.984 . S
H1175 N1171 0.985 . S
H1176 N1170 0.984 . S
H1177 N1170 0.984 . S
H1178 N1166 0.984 . S
H1179 N1166 0.985 . S
C1180 C1181 1.363 . S
C1180 C1186 1.379 1_655 S
C1180 N1188 1.356 . S
C1181 C1180 1.363 . S
C1181 C1187 1.363 1_565 S
C1182 C1183 1.363 . S
C1182 C1187 1.379 1_455 S
C1182 N1189 1.356 . S
C1183 C1182 1.363 . S
C1183 C1186 1.363 1_545 S
N1184 C1186 1.356 1_545 S
N1184 H1196 0.984 1_545 S
N1184 H1197 0.985 . S
N1185 C1187 1.356 1_565 S
N1185 H1190 0.984 . S
N1185 H1191 0.985 1_565 S
C1186 C1180 1.379 1_455 S
C1186 C1183 1.363 1_565 S
C1186 N1184 1.356 1_565 S
C1187 C1181 1.363 1_545 S
C1187 C1182 1.379 1_655 S
C1187 N1185 1.356 1_545 S
N1188 C1180 1.356 . S
N1188 H1194 0.984 . S
N1188 H1195 0.984 . S
N1189 C1182 1.356 . S
N1189 H1192 0.984 . S
N1189 H1193 0.985 . S
H1190 N1185 0.984 . S
H1191 N1185 0.985 1_545 S
H1192 N1189 0.984 . S
H1193 N1189 0.985 . S
H1194 N1188 0.984 . S
H1195 N1188 0.984 . S
H1196 N1184 0.984 1_565 S
H1197 N1184 0.985 . S
C1198 C1199 1.363 1_556 S
C1198 C1204 1.379 1_546 S
C1198 N1206 1.356 . S
C1199 C1198 1.363 1_554 S
C1199 C1205 1.363 . S
C1200 C1201 1.363 . S
C1200 C1205 1.379 1_565 S
C1200 N1207 1.356 . S
C1201 C1200 1.363 . S
C1201 C1204 1.363 . S
N1202 C1204 1.356 1_556 S
N1202 H1214 0.984 . S
N1202 H1215 0.985 1_556 S
N1203 C1205 1.356 . S
N1203 H1208 0.984 . S
N1203 H1209 0.985 . S
C1204 C1198 1.379 1_564 S
C1204 C1201 1.363 . S
C1204 N1202 1.356 1_554 S
C1205 C1199 1.363 . S
C1205 C1200 1.379 1_545 S
C1205 N1203 1.356 . S
N1206 C1198 1.356 . S
N1206 H1212 0.984 . S
N1206 H1213 0.984 . S
N1207 C1200 1.356 . S
N1207 H1210 0.984 . S
N1207 H1211 0.985 . S
H1208 N1203 0.984 . S
H1209 N1203 0.985 . S
H1210 N1207 0.984 . S
H1211 N1207 0.985 . S
H1212 N1206 0.984 . S
H1213 N1206 0.984 . S
H1214 N1202 0.984 . S
H1215 N1202 0.985 1_554 S
C353 C18 1.551 1_556 S
C355 C208 1.608 . S
C371 C230 1.608 . S
C373 C40 1.553 . S
C389 C252 1.608 . S
C391 C62 1.553 . S
C407 C186 1.608 . S
C409 C84 1.553 . S
C425 C96 1.553 . S
C427 C296 1.608 . S
C443 C120 1.553 . S
C445 C318 1.608 . S
C461 C340 1.608 . S
C463 C150 1.553 . S
C479 C282 1.608 . S
C481 C172 1.553 . S
C497 C32 1.608 . S
C499 C194 1.553 . S
C515 C54 1.608 . S
C517 C216 1.553 . S
C533 C76 1.608 . S
C535 C238 1.551 1_556 S
C551 C260 1.553 . S
C553 C10 1.608 . S
C569 C118 1.608 . S
C571 C272 1.553 . S
C587 C142 1.608 . S
C589 C304 1.553 . S
C605 C164 1.608 . S
C607 C326 1.553 . S
C623 C106 1.608 . S
C625 C348 1.553 . S
C641 C15 1.592 . S
C643 C351 1.623 . S
C659 C37 1.592 . S
C661 C103 1.623 . S
C677 C307 1.623 . S
C679 C59 1.592 . S
C695 C153 1.623 . S
C697 C81 1.592 . S
C713 C95 1.592 . S
C715 C263 1.623 . S
C731 C21 1.623 1_556 S
C733 C131 1.592 . S
C749 C147 1.592 . S
C751 C219 1.623 . S
C767 C169 1.592 . S
C769 C65 1.623 . S
C785 C191 1.592 . S
C787 C175 1.623 . S
C803 C279 1.623 . S
C805 C213 1.592 . S
C821 C235 1.592 . S
C823 C117 1.623 . S
C839 C329 1.623 . S
C841 C257 1.592 . S
C857 C271 1.592 . S
C859 C87 1.623 . S
C875 C197 1.623 . S
C877 C301 1.592 . S
C893 C323 1.592 . S
C895 C43 1.623 . S
C911 C345 1.592 . S
C913 C241 1.623 1_556 S
C929 C8 1.571 . S
C931 C274 1.571 . S
C947 C128 1.571 . S
C949 C30 1.571 . S
C965 C52 1.571 . S
C967 C316 1.571 . S
C983 C162 1.571 . S
C985 C74 1.571 . S
C1001 C98 1.571 . S
C1003 C184 1.571 . S
C1019 C228 1.571 . S
C1021 C140 1.571 . S
C1037 C206 1.571 . S
C1039 C294 1.571 . S
C1055 C338 1.571 . S
C1057 C250 1.571 . S
C1073 C285 1.241 . S
C1075 C7 1.241 . S
C1091 C125 1.241 1_554 S
C1093 C29 1.241 . S
C1109 C51 1.241 . S
C1111 C315 1.241 . S
C1127 C161 1.241 . S
C1129 C73 1.241 . S
C1145 C109 1.241 . S
C1147 C183 1.241 . S
C1163 C139 1.241 . S
C1165 C227 1.241 . S
C1181 C293 1.241 . S
C1183 C205 1.241 . S
C1199 C337 1.241 1_554 S
C1201 C249 1.241 . S
