# Generated by pormake.
# Topology smu, (6)-cn, num edge types: 1
# Building blocks:
#     Node 0, Type 0, BuildingBlock: MIDCAF_clean_sbu_0, # of connection points: 6
#     Node 1, Type 0, BuildingBlock: MIDCAF_clean_sbu_0, # of connection points: 6
#     Node 2, Type 0, BuildingBlock: MIDCAF_clean_sbu_0, # of connection points: 6
#     Node 3, Type 0, BuildingBlock: MIDCAF_clean_sbu_0, # of connection points: 6
#     Node 4, Type 0, BuildingBlock: MIDCAF_clean_sbu_0, # of connection points: 6
#     Node 5, Type 0, BuildingBlock: MIDCAF_clean_sbu_0, # of connection points: 6
#     Edge 6, Type (0, 0), BuildingBlock: UVAHIK_clean_linker_0, # of connection points: 2
#     Edge 7, Type (0, 0), BuildingBlock: UVAHIK_clean_linker_0, # of connection points: 2
#     Edge 8, Type (0, 0), BuildingBlock: UVAHIK_clean_linker_0, # of connection points: 2
#     Edge 9, Type (0, 0), BuildingBlock: UVAHIK_clean_linker_0, # of connection points: 2
#     Edge 10, Type (0, 0), BuildingBlock: UVAHIK_clean_linker_0, # of connection points: 2
#     Edge 11, Type (0, 0), BuildingBlock: UVAHIK_clean_linker_0, # of connection points: 2
#     Edge 12, Type (0, 0), BuildingBlock: UVAHIK_clean_linker_0, # of connection points: 2
#     Edge 13, Type (0, 0), BuildingBlock: UVAHIK_clean_linker_0, # of connection points: 2
#     Edge 14, Type (0, 0), BuildingBlock: UVAHIK_clean_linker_0, # of connection points: 2
#     Edge 15, Type (0, 0), BuildingBlock: UVAHIK_clean_linker_0, # of connection points: 2
#     Edge 16, Type (0, 0), BuildingBlock: UVAHIK_clean_linker_0, # of connection points: 2
#     Edge 17, Type (0, 0), BuildingBlock: UVAHIK_clean_linker_0, # of connection points: 2
#     Edge 18, Type (0, 0), BuildingBlock: UVAHIK_clean_linker_0, # of connection points: 2
#     Edge 19, Type (0, 0), BuildingBlock: UVAHIK_clean_linker_0, # of connection points: 2
#     Edge 20, Type (0, 0), BuildingBlock: UVAHIK_clean_linker_0, # of connection points: 2
#     Edge 21, Type (0, 0), BuildingBlock: UVAHIK_clean_linker_0, # of connection points: 2
#     Edge 22, Type (0, 0), BuildingBlock: UVAHIK_clean_linker_0, # of connection points: 2
#     Edge 23, Type (0, 0), BuildingBlock: UVAHIK_clean_linker_0, # of connection points: 2
# Relax obj value: 0.355
# Max RMSD: 0.260
# Mean RMSD: 0.260
data_MOF--net-smu--node1-MIDCAF_clean_sbu_0--edge1-UVAHIK_clean_linker_0
_symmetry_space_group_name_H-M    P1
_symmetry_Int_Tables_number       1
_symmetry_cell_setting            triclinic
loop_
_symmetry_equiv_pos_as_xyz
'x, y, z'
_cell_length_a     35.333202
_cell_length_b     35.486485
_cell_length_c     38.341522
_cell_angle_alpha  90.075525
_cell_angle_beta   89.971696
_cell_angle_gamma 119.59732
loop_
_atom_site_label
_atom_site_type_symbol
_atom_site_fract_x
_atom_site_fract_y
_atom_site_fract_z
_atom_type_partial_charge
Zn0 Zn 0.21924 0.05118 0.22316 0.0
Zn1 Zn 0.40092 0.14567 0.30112 0.0
Zn2 Zn 0.34711 0.10515 0.25127 0.0
C3 C 0.41354 0.07859 0.27056 0.0
C4 C 0.33281 0.07353 0.32733 0.0
O5 O 0.32361 0.1411 0.2807 0.0
O6 O 0.26941 0.08748 0.25607 0.0
C7 C 0.29246 0.08364 0.17149 0.0
O8 O 0.37271 0.06236 0.26406 0.0
O9 O 0.43424 0.11581 0.2844 0.0
O10 O 0.35132 0.11345 0.33474 0.0
O11 O 0.33748 0.06156 0.29678 0.0
O12 O 0.25157 0.06822 0.17694 0.0
O13 O 0.32064 0.09409 0.19639 0.0
O14 O 0.32112 0.0349 0.26094 0.0
O15 O 0.26984 0.04753 0.24522 0.0
C16 C 0.28173 0.01963 0.25036 0.0
O17 O 0.4028 0.15861 0.22838 0.0
O18 O 0.41316 0.19897 0.27499 0.0
C19 C 0.28434 0.12377 0.2713 0.0
C20 C 0.41809 0.19586 0.24261 0.0
Zn21 Zn 0.82512 0.76046 0.21321 0.0
Zn22 Zn 0.74744 0.59595 0.30317 0.0
Zn23 Zn 0.75946 0.6539 0.26844 0.0
C24 C 0.66922 0.58958 0.27632 0.0
C25 C 0.73666 0.65813 0.34145 0.0
O26 O 0.82114 0.68237 0.295 0.0
O27 O 0.81914 0.724 0.25561 0.0
C28 C 0.77187 0.67371 0.17865 0.0
O29 O 0.6918 0.63059 0.28157 0.0
O30 O 0.68727 0.56665 0.28024 0.0
O31 O 0.75729 0.63741 0.34396 0.0
O32 O 0.72094 0.65983 0.3115 0.0
O33 O 0.79882 0.71437 0.17542 0.0
O34 O 0.75918 0.65439 0.20867 0.0
O35 O 0.71871 0.68282 0.27779 0.0
O36 O 0.77584 0.723 0.24705 0.0
C37 C 0.74045 0.71745 0.2601 0.0
O38 O 0.76382 0.61445 0.22888 0.0
O39 O 0.79531 0.59944 0.2721 0.0
C40 C 0.84199 0.71535 0.27598 0.0
C41 C 0.79031 0.60216 0.23961 0.0
Zn42 Zn 0.94333 0.17355 0.21918 0.0
Zn43 Zn 0.83711 0.24212 0.29289 0.0
Zn44 Zn 0.89118 0.23714 0.26421 0.0
C45 C 0.90496 0.32363 0.26911 0.0
C46 C 0.90783 0.26034 0.3378 0.0
O47 O 0.85772 0.17644 0.2917 0.0
O48 O 0.90645 0.17854 0.25745 0.0
C49 C 0.91061 0.22332 0.17727 0.0
O50 O 0.92739 0.30553 0.27753 0.0
O51 O 0.86383 0.30131 0.26999 0.0
O52 O 0.86668 0.23728 0.33681 0.0
O53 O 0.9286 0.27742 0.30923 0.0
O54 O 0.92726 0.19837 0.17767 0.0
O55 O 0.89907 0.23582 0.20524 0.0
O56 O 0.95953 0.28016 0.27784 0.0
O57 O 0.94723 0.22171 0.251 0.0
C58 C 0.97495 0.25808 0.26356 0.0
O59 O 0.84907 0.22846 0.22082 0.0
O60 O 0.79944 0.19254 0.26088 0.0
C61 C 0.87308 0.1558 0.27591 0.0
C62 C 0.81032 0.1992 0.229 0.0
Zn63 Zn 0.1 0.26452 0.85146 0.0
Zn64 Zn 0.14101 0.38552 0.6993 0.0
Zn65 Zn 0.09104 0.33363 0.76263 0.0
C66 C 0.07247 0.39853 0.72647 0.0
C67 C 0.06745 0.30727 0.68618 0.0
O68 O 0.14463 0.31987 0.75806 0.0
O69 O 0.13405 0.30917 0.81358 0.0
C70 C 0.08016 0.33514 0.83785 0.0
O71 O 0.05577 0.35827 0.73358 0.0
O72 O 0.11079 0.41883 0.71462 0.0
O73 O 0.10799 0.32317 0.68195 0.0
O74 O 0.05374 0.31741 0.71369 0.0
O75 O 0.109 0.3239 0.83399 0.0
O76 O 0.06736 0.3455 0.81042 0.0
O77 O 0.05717 0.26702 0.78233 0.0
O78 O 0.04829 0.2183 0.82281 0.0
C79 C 0.03718 0.22791 0.79371 0.0
O80 O 0.16384 0.37819 0.76538 0.0
O81 O 0.20022 0.41035 0.71768 0.0
C82 C 0.15096 0.304 0.78594 0.0
C83 C 0.20003 0.40367 0.75002 0.0
Zn84 Zn 0.28076 0.87964 0.71822 0.0
Zn85 Zn 0.19866 0.9375 0.75197 0.0
Zn86 Zn 0.24153 0.90783 0.74879 0.0
C87 C 0.27922 0.00529 0.74766 0.0
C88 C 0.2359 0.94635 0.81863 0.0
O89 O 0.20493 0.83928 0.76367 0.0
O90 O 0.24455 0.81823 0.73394 0.0
C91 C 0.25147 0.91496 0.66777 0.0
O92 O 0.28338 0.9767 0.76545 0.0
O93 O 0.24524 0.99265 0.72929 0.0
O94 O 0.1994 0.93826 0.80613 0.0
O95 O 0.26423 0.94577 0.79757 0.0
O96 O 0.27088 0.89324 0.66974 0.0
O97 O 0.23898 0.92553 0.69542 0.0
O98 O 0.30138 0.94057 0.77975 0.0
O99 O 0.33569 0.91844 0.74406 0.0
C100 C 0.336 0.93961 0.77076 0.0
O101 O 0.17445 0.85782 0.76205 0.0
O102 O 0.14733 0.88849 0.72813 0.0
C103 C 0.2125 0.80905 0.75372 0.0
C104 C 0.14189 0.85579 0.74536 0.0
Zn105 Zn 0.59316 0.71879 0.73285 0.0
Zn106 Zn 0.70561 0.80209 0.80338 0.0
Zn107 Zn 0.65679 0.75111 0.76768 0.0
C108 C 0.73238 0.74204 0.78193 0.0
C109 C 0.66232 0.73342 0.84604 0.0
O110 O 0.62269 0.77992 0.79139 0.0
O111 O 0.57598 0.76312 0.74852 0.0
C112 C 0.66117 0.7469 0.68538 0.0
O113 O 0.69098 0.71772 0.78613 0.0
O114 O 0.74836 0.78274 0.78409 0.0
O115 O 0.67226 0.77291 0.84809 0.0
O116 O 0.66207 0.71753 0.81569 0.0
O117 O 0.62025 0.72395 0.6864 0.0
O118 O 0.6826 0.76415 0.71353 0.0
O119 O 0.63858 0.68577 0.78402 0.0
O120 O 0.57493 0.66243 0.75796 0.0
C121 C 0.60017 0.65492 0.77649 0.0
O122 O 0.70382 0.8052 0.73553 0.0
O123 O 0.70177 0.84822 0.77581 0.0
C124 C 0.59276 0.78388 0.7764 0.0
C125 C 0.71013 0.84279 0.74467 0.0
C126 C 0.22551 0.98165 0.87137 0.0
C127 C 0.24816 0.96369 0.85448 0.0
C128 C 0.2372 -0.00133 0.90497 0.0
C129 C 0.3246 0.03444 0.97255 0.0
H130 H 0.22988 0.01989 0.03238 0.0
C131 C 0.33061 0.06669 0.1241 0.0
C132 C 0.30575 0.08566 0.13481 0.0
C133 C 0.33164 0.05673 0.08875 0.0
C134 C 0.25679 0.02455 0.01592 0.0
H135 H 0.30114 0.95014 0.85933 0.0
H136 H 0.3205 0.97788 0.91881 0.0
H137 H 0.21413 0.99031 0.97393 0.0
H138 H 0.26645 0.11319 0.11714 0.0
H139 H 0.26915 0.09699 0.05577 0.0
H140 H 0.36692 0.06761 0.01586 0.0
C141 C 0.29433 0.97984 0.90582 0.0
C142 C 0.2478 0.00776 0.98222 0.0
C143 C 0.28307 0.96355 0.87182 0.0
C144 C 0.28564 0.09835 0.10951 0.0
C145 C 0.28693 0.08879 0.07446 0.0
C146 C 0.33356 0.05082 0.00673 0.0
C147 C 0.27126 -0.00267 0.92298 0.0
C148 C 0.28156 0.01328 0.95969 0.0
C149 C 0.30792 0.06584 0.06395 0.0
C150 C 0.29973 0.04688 0.02839 0.0
H151 H 0.19904 0.98316 0.85844 0.0
H152 H 0.21949 0.01309 0.91672 0.0
H153 H 0.3515 0.03936 0.956 0.0
H154 H 0.34601 0.05621 0.14324 0.0
H155 H 0.34811 0.03907 0.08129 0.0
C156 C 0.67634 0.71078 0.63703 0.0
C157 C 0.68269 0.74957 0.65193 0.0
C158 C 0.68585 0.7091 0.602 0.0
C159 C 0.74426 0.76993 0.52489 0.0
H160 H 0.64968 0.67333 0.47616 0.0
C161 C 0.76478 0.69449 0.39852 0.0
C162 C 0.73236 0.68018 0.3727 0.0
C163 C 0.76013 0.71189 0.42979 0.0
C164 C 0.6761 0.70088 0.48917 0.0
H165 H 0.70518 0.81747 0.64251 0.0
H166 H 0.72302 0.81489 0.58067 0.0
H167 H 0.64115 0.6864 0.53737 0.0
H168 H 0.67039 0.67445 0.35869 0.0
H169 H 0.66143 0.70387 0.41433 0.0
H170 H 0.77978 0.78332 0.47681 0.0
C171 C 0.71081 0.78584 0.59636 0.0
C172 C 0.67142 0.70808 0.52432 0.0
C173 C 0.70106 0.78746 0.6317 0.0
C174 C 0.69578 0.68515 0.37822 0.0
C175 C 0.69067 0.70186 0.41001 0.0
C176 C 0.74916 0.76237 0.48971 0.0
C177 C 0.70169 0.74618 0.58095 0.0
C178 C 0.70577 0.74202 0.54278 0.0
C179 C 0.7226 0.71482 0.4363 0.0
C180 C 0.7154 0.72723 0.47169 0.0
H181 H 0.66178 0.68109 0.65212 0.0
H182 H 0.6793 0.67831 0.59101 0.0
H183 H 0.77118 0.79636 0.53846 0.0
H184 H 0.79359 0.69149 0.39481 0.0
H185 H 0.78506 0.72113 0.44958 0.0
C186 C 0.95256 0.28308 0.13637 0.0
C187 C 0.91379 0.24485 0.14381 0.0
C188 C 0.96386 0.29713 0.10196 0.0
C189 C 0.93877 0.25171 0.0115 0.0
H190 H 0.0263 0.3692 0.98794 0.0
C191 C 0.01269 0.31788 0.87223 0.0
C192 C 0.05624 0.32706 0.87122 0.0
C193 C 0.99059 0.30983 0.90415 0.0
C194 C 0.00156 0.33635 0.99418 0.0
H195 H 0.85516 0.1924 0.12171 0.0
H196 H 0.87283 0.21855 0.06167 0.0
H197 H 0.99297 0.35383 0.04567 0.0
H198 H 0.11097 0.33595 0.90271 0.0
H199 H 0.07274 0.32347 0.95848 0.0
H200 H 0.94717 0.23501 0.95928 0.0
C201 C 0.89566 0.23707 0.08208 0.0
C202 C 0.98266 0.32728 0.0274 0.0
C203 C 0.88491 0.22245 0.11656 0.0
C204 C 0.07738 0.32874 0.9027 0.0
C205 C 0.05567 0.32181 0.93456 0.0
C206 C 0.95692 0.26109 0.978 0.0
C207 C 0.93627 0.27355 0.07404 0.0
C208 C 0.95181 0.28454 0.03702 0.0
C209 C 0.01207 0.31203 0.93553 0.0
C210 C 0.98915 0.30325 0.96938 0.0
H211 H 0.97592 0.30015 0.15694 0.0
H212 H 0.9957 0.3248 0.09737 0.0
H213 H 0.91593 0.21826 0.01763 0.0
H214 H 0.99554 0.31624 0.84837 0.0
H215 H 0.95688 0.30221 0.90439 0.0
C216 C 0.31905 0.01348 0.368 0.0
C217 C 0.30662 0.0423 0.35435 0.0
C218 C 0.30127 0.99222 0.39955 0.0
C219 C 0.25047 0.0085 0.47872 0.0
H220 H 0.24816 0.90295 0.50766 0.0
C221 C 0.2594 0.96958 0.62335 0.0
C222 C 0.2426 0.92625 0.63316 0.0
C223 C 0.25791 0.98004 0.58838 0.0
C224 C 0.24762 0.93205 0.50008 0.0
H225 H 0.2636 0.06892 0.36045 0.0
H226 H 0.23038 0.0298 0.41412 0.0
H227 H 0.25898 0.92329 0.4467 0.0
H228 H 0.20826 0.85966 0.61556 0.0
H229 H 0.20276 0.87739 0.55514 0.0
H230 H 0.23769 0.01656 0.53185 0.0
C231 C 0.25516 0.02488 0.40177 0.0
C232 C 0.25465 0.94412 0.46499 0.0
C233 C 0.27367 0.04682 0.37079 0.0
C234 C 0.22168 0.89338 0.60829 0.0
C235 C 0.21907 0.90366 0.57363 0.0
C236 C 0.24258 -0.00402 0.51367 0.0
C237 C 0.27027 -0.00099 0.41754 0.0
C238 C 0.25724 0.98306 0.45394 0.0
C239 C 0.23869 0.94717 0.56286 0.0
C240 C 0.2421 0.95813 0.52503 0.0
H241 H 0.34481 0.01 0.35578 0.0
H242 H 0.31407 0.97287 0.41083 0.0
H243 H 0.25285 0.03908 0.47155 0.0
H244 H 0.27605 0.99537 0.64223 0.0
H245 H 0.27386 0.01394 0.58122 0.0
C246 C 0.64011 0.71716 0.90844 0.0
C247 C 0.65771 0.70899 0.87851 0.0
C248 C 0.64165 0.69944 0.9406 0.0
C249 C 0.67788 0.62646 0.98444 0.0
H250 H 0.68884 0.69912 0.06369 0.0
C251 C 0.77359 0.65639 0.11601 0.0
C252 C 0.74923 0.65118 0.14639 0.0
C253 C 0.7541 0.64947 0.08311 0.0
C254 C 0.68524 0.67816 0.04186 0.0
H255 H 0.68825 0.67377 0.85824 0.0
H256 H 0.69483 0.646 0.9145 0.0
H257 H 0.6714 0.71622 0.00704 0.0
H258 H 0.68503 0.63242 0.16639 0.0
H259 H 0.65118 0.62158 0.10868 0.0
H260 H 0.69619 0.59115 0.01988 0.0
C261 C 0.67822 0.66467 0.9135 0.0
C262 C 0.67478 0.68765 0.00912 0.0
C263 C 0.67498 0.68101 0.88103 0.0
C264 C 0.70429 0.63566 0.14342 0.0
C265 C 0.68502 0.62984 0.11046 0.0
C266 C 0.68971 0.61782 0.01718 0.0
C267 C 0.66268 0.67462 0.94413 0.0
C268 C 0.67103 0.66214 0.97964 0.0
C269 C 0.7102 0.63829 0.08007 0.0
C270 C 0.69349 0.64368 0.0461 0.0
H271 H 0.62581 0.738 0.90709 0.0
H272 H 0.62718 0.70636 0.9628 0.0
H273 H 0.67462 0.60528 0.96296 0.0
H274 H 0.80842 0.66907 0.11765 0.0
H275 H 0.77423 0.65664 0.06005 0.0
C276 C 0.96725 0.30129 0.38219 0.0
C277 C 0.92977 0.2635 0.37134 0.0
C278 C 0.98326 0.30416 0.41626 0.0
C279 C 0.97683 0.23645 0.49254 0.0
H280 H 0.0032 0.33848 0.54721 0.0
C281 C 0.05137 0.26687 0.63039 0.0
C282 C 0.04013 0.28926 0.65477 0.0
C283 C 0.03507 0.26004 0.59645 0.0
C284 C 0.99542 0.30954 0.5324 0.0
H285 H 0.88142 0.1983 0.38647 0.0
H286 H 0.90916 0.20312 0.44494 0.0
H287 H 0.98571 0.33624 0.48531 0.0
H288 H 0.00074 0.31962 0.6635 0.0
H289 H 0.97134 0.30692 0.60405 0.0
H290 H 0.98545 0.20924 0.53958 0.0
C291 C 0.92625 0.23069 0.42777 0.0
C292 C 0.98622 0.30862 0.49677 0.0
C293 C 0.91012 0.22807 0.39425 0.0
C294 C 0.0096 0.30187 0.64533 0.0
C295 C 0.99341 0.29526 0.61113 0.0
C296 C 0.986 0.23736 0.52806 0.0
C297 C 0.96247 0.26894 0.43952 0.0
C298 C 0.9765 0.27192 0.47649 0.0
C299 C 0.0072 0.27561 0.58599 0.0
C300 C 0.99525 0.27383 0.54851 0.0
H301 H 0.98297 0.32901 0.36497 0.0
H302 H 0.01152 0.33396 0.42453 0.0
H303 H 0.96976 0.20776 0.47762 0.0
H304 H 0.07501 0.25698 0.63698 0.0
H305 H 0.04658 0.24497 0.57787 0.0
C306 C 0.47426 0.06279 0.27472 0.0
C307 C 0.43903 0.05991 0.25566 0.0
C308 C 0.50903 0.06263 0.25751 0.0
C309 C 0.57855 0.12025 0.19874 0.0
H310 H 0.62275 0.04174 0.18023 0.0
C311 C 0.75959 0.19369 0.18181 0.0
C312 C 0.7761 0.17348 0.2035 0.0
C313 C 0.71589 0.17102 0.17117 0.0
C314 C 0.61102 0.06424 0.18512 0.0
H315 H 0.41058 0.05096 0.20419 0.0
H316 H 0.47227 0.05185 0.17395 0.0
H317 H 0.54699 0.01281 0.19867 0.0
H318 H 0.76265 0.11271 0.22689 0.0
H319 H 0.68729 0.07373 0.20943 0.0
H320 H 0.64244 0.17194 0.18897 0.0
C321 C 0.47232 0.0531 0.20218 0.0
C322 C 0.56748 0.04746 0.19534 0.0
C323 C 0.43699 0.05232 0.21953 0.0
C324 C 0.7505 0.12894 0.21008 0.0
C325 C 0.70691 0.10653 0.19999 0.0
C326 C 0.62204 0.13706 0.18918 0.0
C327 C 0.50935 0.06026 0.22099 0.0
C328 C 0.55148 0.07556 0.20321 0.0
C329 C 0.68803 0.12817 0.18271 0.0
C330 C 0.63958 0.10948 0.18357 0.0
H331 H 0.4768 0.06925 0.3025 0.0
H332 H 0.53752 0.06861 0.27242 0.0
H333 H 0.56676 0.14246 0.20496 0.0
H334 H 0.7787 0.22809 0.17649 0.0
H335 H 0.70312 0.18839 0.15659 0.0
C336 C 0.58845 0.55705 0.27693 0.0
C337 C 0.62713 0.57007 0.25848 0.0
C338 C 0.54895 0.52454 0.26316 0.0
C339 C 0.50554 0.44132 0.18992 0.0
H340 H 0.46532 0.36343 0.26903 0.0
C341 C 0.41139 0.24695 0.20268 0.0
C342 C 0.43809 0.23601 0.22238 0.0
C343 C 0.4244 0.2906 0.19634 0.0
C344 C 0.47558 0.38485 0.24664 0.0
H345 H 0.65509 0.56453 0.20994 0.0
H346 H 0.58763 0.50753 0.18652 0.0
H347 H 0.50024 0.44054 0.27893 0.0
H348 H 0.50041 0.26077 0.24798 0.0
H349 H 0.5237 0.33664 0.23603 0.0
H350 H 0.48401 0.38418 0.15822 0.0
C351 C 0.58631 0.52192 0.21106 0.0
C352 C 0.49526 0.42933 0.25219 0.0
C353 C 0.62537 0.55463 0.22456 0.0
C354 C 0.47972 0.26852 0.23221 0.0
C355 C 0.49278 0.31183 0.2257 0.0
C356 C 0.48606 0.39647 0.18443 0.0
C357 C 0.54819 0.50387 0.23141 0.0
C358 C 0.51328 0.45844 0.22412 0.0
C359 C 0.46421 0.32324 0.20958 0.0
C360 C 0.47333 0.36833 0.21303 0.0
H361 H 0.58926 0.56886 0.30314 0.0
H362 H 0.51991 0.5127 0.279 0.0
H363 H 0.51765 0.46259 0.16754 0.0
H364 H 0.3787 0.22227 0.19563 0.0
H365 H 0.40188 0.29886 0.18401 0.0
C366 C 0.95305 0.40468 0.26964 0.0
C367 C 0.92423 0.36632 0.25227 0.0
C368 C 0.96041 0.44475 0.25657 0.0
C369 C 0.92564 0.4932 0.18321 0.0
H370 H 0.91379 0.55795 0.2597 0.0
C371 C 0.80431 0.55594 0.19918 0.0
C372 C 0.81943 0.59577 0.21622 0.0
C373 C 0.8334 0.54114 0.19101 0.0
C374 C 0.91795 0.54085 0.2379 0.0
H375 H 0.88433 0.33935 0.20629 0.0
H376 H 0.89564 0.40756 0.18426 0.0
H377 H 0.93949 0.5074 0.27131 0.0
H378 H 0.87654 0.65345 0.23473 0.0
H379 H 0.92715 0.6275 0.22074 0.0
H380 H 0.89891 0.52364 0.15071 0.0
C381 C 0.91346 0.40821 0.2074 0.0
C382 C 0.93306 0.51189 0.2445 0.0
C383 C 0.9065 0.36869 0.22023 0.0
C384 C 0.86436 0.62282 0.22113 0.0
C385 C 0.89327 0.6079 0.21337 0.0
C386 C 0.90923 0.52128 0.17683 0.0
C387 C 0.93862 0.44672 0.22626 0.0
C388 C 0.93512 0.48599 0.21754 0.0
C389 C 0.8776 0.56588 0.20027 0.0
C390 C 0.90388 0.54417 0.20438 0.0
H391 H 0.96714 0.40349 0.29441 0.0
H392 H 0.98104 0.47378 0.27138 0.0
H393 H 0.92824 0.47514 0.16146 0.0
H394 H 0.7697 0.53426 0.1959 0.0
H395 H 0.82051 0.50842 0.18119 0.0
C396 C 0.0233 0.43057 0.72508 0.0
C397 C 0.0547 0.42419 0.74215 0.0
C398 C 0.01608 0.46439 0.73561 0.0
C399 C 0.05871 0.55953 0.79853 0.0
H400 H 0.06644 0.62142 0.71338 0.0
C401 C 0.1507 0.74901 0.78759 0.0
C402 C 0.18061 0.76283 0.75984 0.0
C403 C 0.11866 0.70514 0.79065 0.0
C404 C 0.06387 0.60451 0.73755 0.0
H405 H 0.1002 0.44451 0.78507 0.0
H406 H 0.08922 0.50376 0.8027 0.0
H407 H 0.03497 0.54361 0.71165 0.0
H408 H 0.20115 0.74132 0.71419 0.0
H409 H 0.14667 0.66591 0.71981 0.0
H410 H 0.09234 0.62184 0.82334 0.0
C411 C 0.06903 0.48293 0.78188 0.0
C412 C 0.0452 0.55952 0.73671 0.0
C413 C 0.07577 0.44906 0.77161 0.0
C414 C 0.17861 0.73196 0.73587 0.0
C415 C 0.14682 0.68867 0.73876 0.0
C416 C 0.07813 0.60481 0.7992 0.0
C417 C 0.04095 0.49277 0.76282 0.0
C418 C 0.04523 0.53667 0.76667 0.0
C419 C 0.11603 0.6747 0.76579 0.0
C420 C 0.08355 0.62782 0.76815 0.0
H421 H 0.00667 0.41151 0.70227 0.0
H422 H 0.99327 0.47009 0.72087 0.0
H423 H 0.05767 0.54292 0.82249 0.0
H424 H 0.15229 0.772 0.8069 0.0
H425 H 0.09578 0.69513 0.8121 0.0
C426 C 0.41584 0.97835 0.77611 0.0
C427 C 0.3752 0.95706 0.79272 0.0
C428 C 0.45134 0.97632 0.78993 0.0
C429 C 0.46263 0.89486 0.84144 0.0
H430 H 0.57894 0.95722 0.80268 0.0
C431 C 0.57612 0.8203 0.82553 0.0
C432 C 0.57952 0.81465 0.78962 0.0
C433 C 0.5609 0.84788 0.83728 0.0
C434 C 0.54687 0.93989 0.81433 0.0
H435 H 0.34111 0.92117 0.83868 0.0
H436 H 0.40382 0.92123 0.86467 0.0
H437 H 0.53563 0.99337 0.80774 0.0
H438 H 0.57242 0.83504 0.73794 0.0
H439 H 0.54737 0.88414 0.75846 0.0
H440 H 0.474 0.84122 0.84731 0.0
C441 C 0.40813 0.93799 0.84017 0.0
C442 C 0.52177 0.96034 0.81693 0.0
C443 C 0.37229 0.93923 0.82588 0.0
C444 C 0.5696 0.83849 0.76576 0.0
C445 C 0.55575 0.86689 0.77747 0.0
C446 C 0.48815 0.87489 0.83964 0.0
C447 C 0.44698 0.95319 0.82092 0.0
C448 C 0.47825 0.93723 0.82849 0.0
C449 C 0.55053 0.87128 0.81325 0.0
C450 C 0.52954 0.89645 0.8244 0.0
H451 H 0.41876 0.99191 0.75028 0.0
H452 H 0.48034 0.98866 0.77403 0.0
H453 H 0.42935 0.8754 0.85019 0.0
H454 H 0.5837 0.80227 0.84437 0.0
H455 H 0.55666 0.85052 0.86499 0.0
C456 C 0.2449 0.40947 0.80318 0.0
C457 C 0.24228 0.42028 0.76826 0.0
C458 C 0.2856 0.42322 0.81882 0.0
C459 C 0.38783 0.50251 0.83258 0.0
H460 H 0.45585 0.45161 0.79822 0.0
C461 C 0.56007 0.57563 0.77171 0.0
C462 C 0.58081 0.61225 0.79325 0.0
C463 C 0.523 0.53849 0.78336 0.0
C464 C 0.43729 0.46587 0.80865 0.0
H465 H 0.28047 0.45494 0.72284 0.0
H466 H 0.35064 0.47839 0.7501 0.0
H467 H 0.37684 0.41337 0.79005 0.0
H468 H 0.58324 0.63687 0.84527 0.0
H469 H 0.51912 0.57163 0.86612 0.0
H470 H 0.44802 0.55716 0.84768 0.0
C471 C 0.32131 0.45906 0.76514 0.0
C472 C 0.39209 0.4438 0.80418 0.0
C473 C 0.28105 0.44571 0.74967 0.0
C474 C 0.56817 0.60884 0.8283 0.0
C475 C 0.53088 0.57167 0.84002 0.0
C476 C 0.43301 0.52477 0.83683 0.0
C477 C 0.32392 0.44763 0.79961 0.0
C478 C 0.36743 0.46294 0.81472 0.0
C479 C 0.50587 0.5376 0.81671 0.0
C480 C 0.45858 0.50783 0.82311 0.0
H481 H 0.21567 0.39007 0.81824 0.0
H482 H 0.28716 0.41449 0.84562 0.0
H483 H 0.36939 0.5181 0.84035 0.0
H484 H 0.56904 0.57772 0.74445 0.0
H485 H 0.50492 0.51304 0.76455 0.0
C486 C 0.23521 0.14467 0.24156 0.0
C487 C 0.26077 0.14827 0.27065 0.0
C488 C 0.21193 0.16684 0.24046 0.0
C489 C 0.19697 0.25333 0.28257 0.0
H490 H 0.08276 0.18702 0.24059 0.0
C491 C 0.04607 0.28096 0.29277 0.0
C492 C 0.02142 0.27149 0.26203 0.0
C493 C 0.08402 0.27758 0.29333 0.0
C494 C 0.11478 0.20624 0.25201 0.0
H495 H 0.28381 0.17923 0.32082 0.0
H496 H 0.24107 0.21674 0.3198 0.0
H497 H 0.13002 0.15595 0.24386 0.0
H498 H 0.01909 0.25639 0.20712 0.0
H499 H 0.08562 0.25174 0.20782 0.0
H500 H 0.17992 0.303 0.29187 0.0
C501 C 0.23967 0.19734 0.29751 0.0
C502 C 0.14204 0.18847 0.25381 0.0
C503 C 0.26383 0.17566 0.29827 0.0
C504 C 0.03766 0.26376 0.23111 0.0
C505 C 0.07553 0.26085 0.23158 0.0
C506 C 0.16914 0.27103 0.28116 0.0
C507 C 0.21277 0.19249 0.26879 0.0
C508 C 0.1838 0.21192 0.26854 0.0
C509 C 0.09745 0.26492 0.26311 0.0
C510 C 0.12806 0.2478 0.26529 0.0
H511 H 0.23356 0.12507 0.21934 0.0
H512 H 0.19295 0.16356 0.21733 0.0
H513 H 0.22894 0.27231 0.29408 0.0
H514 H 0.03373 0.28647 0.31699 0.0
H515 H 0.10035 0.28083 0.31797 0.0
C516 C 0.90991 0.76012 0.2426 0.0
C517 C 0.88987 0.7385 0.27358 0.0
C518 C 0.95503 0.78302 0.23981 0.0
C519 C 0.05867 0.80126 0.27846 0.0
H520 H 0.10204 0.91274 0.23322 0.0
C521 C 0.23685 0.94859 0.27941 0.0
C522 C 0.2494 0.97345 0.24877 0.0
C523 C 0.19579 0.91126 0.28146 0.0
C524 C 0.09053 0.88142 0.24543 0.0
H525 H 0.90113 0.72196 0.32544 0.0
H526 H 0.98091 0.76359 0.32098 0.0
H527 H 0.02443 0.8661 0.24038 0.0
H528 H 0.23198 0.97702 0.19533 0.0
H529 H 0.16136 0.91115 0.19832 0.0
H530 H 0.12581 0.818 0.28424 0.0
C531 C 0.96145 0.76236 0.29874 0.0
C532 C 0.04596 0.85466 0.24959 0.0
C533 C 0.91591 0.73886 0.3014 0.0
C534 C 0.22292 0.95808 0.21912 0.0
C535 C 0.1824 0.92068 0.22099 0.0
C536 C 0.10375 0.82847 0.27448 0.0
C537 C 0.98142 0.78541 0.26808 0.0
C538 C 0.02933 0.81397 0.26561 0.0
C539 C 0.16724 0.89862 0.2528 0.0
C540 C 0.11996 0.86852 0.25735 0.0
H541 H 0.89078 0.75914 0.22025 0.0
H542 H 0.96931 0.79927 0.21544 0.0
H543 H 0.04678 0.77008 0.29095 0.0
H544 H 0.25661 0.96041 0.30274 0.0
H545 H 0.1849 0.89486 0.30629 0.0
C546 C 0.8199 0.08292 0.30012 0.0
C547 C 0.84984 0.10818 0.27422 0.0
C548 C 0.79819 0.0376 0.29792 0.0
C549 C 0.81155 0.95138 0.25644 0.0
H550 H 0.69022 0.8752 0.28009 0.0
C551 C 0.74002 0.77627 0.22635 0.0
C552 C 0.72803 0.75098 0.25665 0.0
C553 C 0.74175 0.81626 0.22638 0.0
C554 C 0.72407 0.8963 0.2734 0.0
H555 H 0.87827 0.10616 0.22461 0.0
H556 H 0.84032 0.02793 0.22046 0.0
H557 H 0.72181 0.95428 0.28564 0.0
H558 H 0.70345 0.7445 0.30933 0.0
H559 H 0.70762 0.81564 0.30974 0.0
H560 H 0.8142 0.8942 0.24405 0.0
C561 C 0.8346 0.04267 0.24314 0.0
C562 C 0.74221 0.94134 0.27676 0.0
C563 C 0.85653 0.08761 0.24556 0.0
C564 C 0.71277 0.76369 0.28568 0.0
C565 C 0.7151 0.80425 0.28589 0.0
C566 C 0.79348 0.90688 0.25277 0.0
C567 C 0.80589 0.01707 0.26959 0.0
C568 C 0.78607 0.96928 0.26785 0.0
C569 C 0.7323 0.83185 0.25695 0.0
C570 C 0.74953 0.87893 0.26074 0.0
H571 H 0.81389 0.09816 0.32231 0.0
H572 H 0.77634 0.01871 0.31875 0.0
H573 H 0.84575 0.97181 0.25043 0.0
H574 H 0.75137 0.76667 0.20354 0.0
H575 H 0.7544 0.83677 0.20357 0.0
C576 C 0.18546 0.26698 0.81759 0.0
C577 C 0.17622 0.28094 0.78607 0.0
C578 C 0.21025 0.24612 0.81784 0.0
C579 C 0.2867 0.22656 0.76423 0.0
H580 H 0.24336 0.12237 0.82002 0.0
C581 C 0.3078 0.08147 0.73005 0.0
C582 C 0.30303 0.05187 0.7563 0.0
C583 C 0.30894 0.12031 0.73848 0.0
C584 C 0.25685 0.15201 0.80497 0.0
H585 H 0.18635 0.28465 0.73013 0.0
H586 H 0.22893 0.24755 0.73045 0.0
H587 H 0.20934 0.16713 0.82479 0.0
H588 H 0.30273 0.04268 0.81212 0.0
H589 H 0.30535 0.11089 0.82703 0.0
H590 H 0.33311 0.21027 0.74336 0.0
C591 C 0.21753 0.2532 0.75507 0.0
C592 C 0.23706 0.17764 0.80758 0.0
C593 C 0.19272 0.27406 0.75483 0.0
C594 C 0.30627 0.06479 0.79132 0.0
C595 C 0.30708 0.10362 0.79982 0.0
C596 C 0.30655 0.20089 0.76162 0.0
C597 C 0.22649 0.23883 0.78658 0.0
C598 C 0.25094 0.21458 0.78657 0.0
C599 C 0.30524 0.13024 0.7734 0.0
C600 C 0.29108 0.1626 0.78126 0.0
H601 H 0.17383 0.27243 0.84217 0.0
H602 H 0.21695 0.23596 0.8426 0.0
H603 H 0.29878 0.25531 0.74819 0.0
H604 H 0.30533 0.07224 0.70283 0.0
H605 H 0.30774 0.13994 0.71737 0.0
C606 C 0.06848 0.80883 0.72002 0.0
C607 C 0.09791 0.81755 0.74746 0.0
C608 C 0.0246 0.77814 0.72392 0.0
C609 C 0.94448 0.73549 0.79416 0.0
H610 H 0.86665 0.68383 0.71549 0.0
C611 C 0.7669 0.69826 0.80035 0.0
C612 C 0.76163 0.72442 0.77563 0.0
C613 C 0.80152 0.68973 0.79725 0.0
C614 C 0.88786 0.69732 0.7379 0.0
H615 H 0.10498 0.79978 0.8 0.0
H616 H 0.0284 0.74475 0.80657 0.0
H617 H 0.94321 0.70394 0.7099 0.0
H618 H 0.78581 0.75975 0.72734 0.0
H619 H 0.84522 0.74391 0.72126 0.0
H620 H 0.88943 0.73059 0.82156 0.0
C621 C 0.03915 0.76194 0.78206 0.0
C622 C 0.93176 0.70914 0.73468 0.0
C623 C 0.08319 0.79296 0.77814 0.0
C624 C 0.78924 0.73928 0.74658 0.0
C625 C 0.82304 0.72999 0.74304 0.0
C626 C 0.90046 0.7231 0.7975 0.0
C627 C 0.00898 0.75539 0.75547 0.0
C628 C 0.96115 0.73086 0.76206 0.0
C629 C 0.83053 0.70649 0.76896 0.0
C630 C 0.87233 0.70621 0.76878 0.0
H631 H 0.07898 0.82731 0.69603 0.0
H632 H 0.00256 0.77468 0.70299 0.0
H633 H 0.96594 0.75223 0.81582 0.0
H634 H 0.74629 0.68694 0.82314 0.0
H635 H 0.80678 0.67174 0.81766 0.0
C636 C 0.98499 0.20162 0.74279 0.0
C637 C 0.00301 0.19277 0.77232 0.0
C638 C 0.95335 0.16761 0.72258 0.0
C639 C 0.90974 0.05059 0.70493 0.0
H640 H 0.79827 0.04438 0.69097 0.0
C641 C 0.76258 0.88514 0.69684 0.0
C642 C 0.73211 0.88137 0.72204 0.0
C643 C 0.79247 0.92604 0.68355 0.0
C644 C 0.82929 0.0456 0.69433 0.0
H645 H 0.0018 0.14129 0.80365 0.0
H646 H 0.9472 0.08274 0.76888 0.0
H647 H 0.86127 0.113 0.70819 0.0
H648 H 0.70448 0.91581 0.74908 0.0
H649 H 0.75664 0.98634 0.72729 0.0
H650 H 0.87776 0.9829 0.69467 0.0
C651 C 0.95773 0.11574 0.76089 0.0
C652 C 0.8655 0.08514 0.70387 0.0
C653 C 0.98877 0.14942 0.78113 0.0
C654 C 0.72833 0.91795 0.73023 0.0
C655 C 0.75819 0.95861 0.71727 0.0
C656 C 0.87364 0.01114 0.6958 0.0
C657 C 0.93978 0.12428 0.73129 0.0
C658 C 0.90538 0.08722 0.71141 0.0
C659 C 0.79257 0.9637 0.69563 0.0
C660 C 0.83224 0.0074 0.69265 0.0
H661 H 0.99511 0.23469 0.73543 0.0
H662 H 0.93979 0.17514 0.70006 0.0
H663 H 0.94045 0.05157 0.70965 0.0
H664 H 0.76587 0.85734 0.68974 0.0
H665 H 0.81757 0.92846 0.66598 0.0
loop_
_geom_bond_atom_site_label_1
_geom_bond_atom_site_label_2
_geom_bond_distance
_geom_bond_site_symmetry_2
_ccdc_geom_bond_type
Zn0 O6 1.920 . S
Zn0 O12 1.898 . S
Zn0 O15 1.905 1_545 S
Zn1 O9 1.905 . S
Zn1 O10 1.898 . S
Zn1 O18 1.920 . S
Zn2 O5 2.080 . S
Zn2 O8 2.114 . S
Zn2 O11 2.120 . S
Zn2 O13 2.120 . S
Zn2 O14 2.114 . S
Zn2 O17 2.080 . S
C3 O8 1.166 . S
C3 O9 1.182 . S
C4 O10 1.167 . S
C4 O11 1.299 . S
O5 Zn2 2.080 . S
O5 C19 1.305 . S
O6 Zn0 1.920 . S
O6 C19 1.234 . S
C7 O12 1.167 . S
C7 O13 1.299 . S
O8 Zn2 2.114 . S
O8 C3 1.166 . S
O9 Zn1 1.905 . S
O9 C3 1.182 . S
O10 Zn1 1.898 . S
O10 C4 1.167 . S
O11 Zn2 2.120 . S
O11 C4 1.299 . S
O12 Zn0 1.898 . S
O12 C7 1.167 . S
O13 Zn2 2.120 . S
O13 C7 1.299 . S
O14 Zn2 2.114 . S
O14 C16 1.165 1_545 S
O15 Zn0 1.905 1_565 S
O15 C16 1.172 . S
C16 O14 1.165 1_565 S
C16 O15 1.172 . S
O17 Zn2 2.080 . S
O17 C20 1.305 . S
O18 Zn1 1.920 . S
O18 C20 1.234 . S
C19 O5 1.305 . S
C19 O6 1.234 . S
C20 O17 1.305 . S
C20 O18 1.234 . S
Zn21 O27 1.920 . S
Zn21 O33 1.898 . S
Zn21 O36 1.905 . S
Zn22 O30 1.905 . S
Zn22 O31 1.898 . S
Zn22 O39 1.920 . S
Zn23 O26 2.080 . S
Zn23 O29 2.114 . S
Zn23 O32 2.120 . S
Zn23 O34 2.120 . S
Zn23 O35 2.114 . S
Zn23 O38 2.080 . S
C24 O29 1.166 . S
C24 O30 1.182 . S
C25 O31 1.167 . S
C25 O32 1.299 . S
O26 Zn23 2.080 . S
O26 C40 1.305 . S
O27 Zn21 1.920 . S
O27 C40 1.234 . S
C28 O33 1.167 . S
C28 O34 1.299 . S
O29 Zn23 2.114 . S
O29 C24 1.166 . S
O30 Zn22 1.905 . S
O30 C24 1.182 . S
O31 Zn22 1.898 . S
O31 C25 1.167 . S
O32 Zn23 2.120 . S
O32 C25 1.299 . S
O33 Zn21 1.898 . S
O33 C28 1.167 . S
O34 Zn23 2.120 . S
O34 C28 1.299 . S
O35 Zn23 2.114 . S
O35 C37 1.166 . S
O36 Zn21 1.905 . S
O36 C37 1.182 . S
C37 O35 1.166 . S
C37 O36 1.182 . S
O38 Zn23 2.080 . S
O38 C41 1.305 . S
O39 Zn22 1.920 . S
O39 C41 1.234 . S
C40 O26 1.305 . S
C40 O27 1.234 . S
C41 O38 1.305 . S
C41 O39 1.234 . S
Zn42 O48 1.920 . S
Zn42 O54 1.898 . S
Zn42 O57 1.905 1_655 S
Zn43 O51 1.905 . S
Zn43 O52 1.898 . S
Zn43 O60 1.920 . S
Zn44 O47 2.080 . S
Zn44 O50 2.114 . S
Zn44 O53 2.120 . S
Zn44 O55 2.120 . S
Zn44 O56 2.114 . S
Zn44 O59 2.080 . S
C45 O50 1.166 . S
C45 O51 1.182 . S
C46 O52 1.167 . S
C46 O53 1.299 . S
O47 Zn44 2.080 . S
O47 C61 1.305 . S
O48 Zn42 1.920 . S
O48 C61 1.234 . S
C49 O54 1.167 . S
C49 O55 1.299 . S
O50 Zn44 2.114 . S
O50 C45 1.166 . S
O51 Zn43 1.905 . S
O51 C45 1.182 . S
O52 Zn43 1.898 . S
O52 C46 1.167 . S
O53 Zn44 2.120 . S
O53 C46 1.299 . S
O54 Zn42 1.898 . S
O54 C49 1.167 . S
O55 Zn44 2.120 . S
O55 C49 1.299 . S
O56 Zn44 2.114 . S
O56 C58 1.142 1_655 S
O57 Zn42 1.905 1_455 S
O57 C58 1.195 . S
C58 O56 1.142 1_455 S
C58 O57 1.195 . S
O59 Zn44 2.080 . S
O59 C62 1.305 . S
O60 Zn43 1.920 . S
O60 C62 1.234 . S
C61 O47 1.305 . S
C61 O48 1.234 . S
C62 O59 1.305 . S
C62 O60 1.234 . S
Zn63 O69 1.920 . S
Zn63 O75 1.898 . S
Zn63 O78 1.905 1_455 S
Zn64 O72 1.905 . S
Zn64 O73 1.898 . S
Zn64 O81 1.920 . S
Zn65 O68 2.080 . S
Zn65 O71 2.114 . S
Zn65 O74 2.120 . S
Zn65 O76 2.120 . S
Zn65 O77 2.114 . S
Zn65 O80 2.080 . S
C66 O71 1.166 . S
C66 O72 1.182 . S
C67 O73 1.167 . S
C67 O74 1.299 . S
O68 Zn65 2.080 . S
O68 C82 1.305 . S
O69 Zn63 1.920 . S
O69 C82 1.234 . S
C70 O75 1.167 . S
C70 O76 1.299 . S
O71 Zn65 2.114 . S
O71 C66 1.166 . S
O72 Zn64 1.905 . S
O72 C66 1.182 . S
O73 Zn64 1.898 . S
O73 C67 1.167 . S
O74 Zn65 2.120 . S
O74 C67 1.299 . S
O75 Zn63 1.898 . S
O75 C70 1.167 . S
O76 Zn65 2.120 . S
O76 C70 1.299 . S
O77 Zn65 2.114 . S
O77 C79 1.165 1_455 S
O78 Zn63 1.905 1_655 S
O78 C79 1.172 . S
C79 O77 1.165 1_655 S
C79 O78 1.172 . S
O80 Zn65 2.080 . S
O80 C83 1.305 . S
O81 Zn64 1.920 . S
O81 C83 1.234 . S
C82 O68 1.305 . S
C82 O69 1.234 . S
C83 O80 1.305 . S
C83 O81 1.234 . S
Zn84 O90 1.920 . S
Zn84 O96 1.898 . S
Zn84 O99 1.905 . S
Zn85 O93 1.905 1_565 S
Zn85 O94 1.898 . S
Zn85 O102 1.920 . S
Zn86 O89 2.080 . S
Zn86 O92 2.114 . S
Zn86 O95 2.120 . S
Zn86 O97 2.120 . S
Zn86 O98 2.114 . S
Zn86 O101 2.080 . S
C87 O92 1.142 1_545 S
C87 O93 1.195 . S
C88 O94 1.167 . S
C88 O95 1.299 . S
O89 Zn86 2.080 . S
O89 C103 1.305 . S
O90 Zn84 1.920 . S
O90 C103 1.234 . S
C91 O96 1.167 . S
C91 O97 1.299 . S
O92 Zn86 2.114 . S
O92 C87 1.142 1_565 S
O93 Zn85 1.905 1_545 S
O93 C87 1.195 . S
O94 Zn85 1.898 . S
O94 C88 1.167 . S
O95 Zn86 2.120 . S
O95 C88 1.299 . S
O96 Zn84 1.898 . S
O96 C91 1.167 . S
O97 Zn86 2.120 . S
O97 C91 1.299 . S
O98 Zn86 2.114 . S
O98 C100 1.166 . S
O99 Zn84 1.905 . S
O99 C100 1.182 . S
C100 O98 1.166 . S
C100 O99 1.182 . S
O101 Zn86 2.080 . S
O101 C104 1.305 . S
O102 Zn85 1.920 . S
O102 C104 1.234 . S
C103 O89 1.305 . S
C103 O90 1.234 . S
C104 O101 1.305 . S
C104 O102 1.234 . S
Zn105 O111 1.920 . S
Zn105 O117 1.898 . S
Zn105 O120 1.905 . S
Zn106 O114 1.905 . S
Zn106 O115 1.898 . S
Zn106 O123 1.920 . S
Zn107 O110 2.080 . S
Zn107 O113 2.114 . S
Zn107 O116 2.120 . S
Zn107 O118 2.120 . S
Zn107 O119 2.114 . S
Zn107 O122 2.080 . S
C108 O113 1.166 . S
C108 O114 1.182 . S
C109 O115 1.167 . S
C109 O116 1.299 . S
O110 Zn107 2.080 . S
O110 C124 1.305 . S
O111 Zn105 1.920 . S
O111 C124 1.234 . S
C112 O117 1.167 . S
C112 O118 1.299 . S
O113 Zn107 2.114 . S
O113 C108 1.166 . S
O114 Zn106 1.905 . S
O114 C108 1.182 . S
O115 Zn106 1.898 . S
O115 C109 1.167 . S
O116 Zn107 2.120 . S
O116 C109 1.299 . S
O117 Zn105 1.898 . S
O117 C112 1.167 . S
O118 Zn107 2.120 . S
O118 C112 1.299 . S
O119 Zn107 2.114 . S
O119 C121 1.166 . S
O120 Zn105 1.905 . S
O120 C121 1.182 . S
C121 O119 1.166 . S
C121 O120 1.182 . S
O122 Zn107 2.080 . S
O122 C125 1.305 . S
O123 Zn106 1.920 . S
O123 C125 1.234 . S
C124 O110 1.305 . S
C124 O111 1.234 . S
C125 O122 1.305 . S
C125 O123 1.234 . S
C126 C127 1.349 . S
C126 C128 1.327 . S
C126 H151 0.950 . S
C127 C126 1.349 . S
C127 C143 1.349 . S
C128 C126 1.327 . S
C128 C147 1.429 . S
C128 H152 0.950 . S
C129 C146 1.574 1_556 S
C129 C148 1.368 . S
C129 H153 0.949 . S
H130 C134 0.949 . S
C131 C132 1.349 . S
C131 C133 1.327 . S
C131 H154 0.950 . S
C132 C131 1.349 . S
C132 C144 1.349 . S
C133 C131 1.327 . S
C133 C149 1.429 . S
C133 H155 0.950 . S
C134 H130 0.949 . S
C134 C142 1.574 1_554 S
C134 C150 1.368 . S
H135 C143 0.950 . S
H136 C141 0.950 . S
H137 C142 0.949 . S
H138 C144 0.950 . S
H139 C145 0.950 . S
H140 C146 0.949 . S
C141 H136 0.950 . S
C141 C143 1.327 . S
C141 C147 1.429 . S
C142 C134 1.574 1_556 S
C142 H137 0.949 . S
C142 C148 1.368 1_545 S
C143 C127 1.349 . S
C143 H135 0.950 . S
C143 C141 1.327 . S
C144 C132 1.349 . S
C144 H138 0.950 . S
C144 C145 1.327 . S
C145 H139 0.950 . S
C145 C144 1.327 . S
C145 C149 1.429 . S
C146 C129 1.574 1_554 S
C146 H140 0.949 . S
C146 C150 1.368 1_565 S
C147 C128 1.429 . S
C147 C141 1.429 . S
C147 C148 1.523 . S
C148 C129 1.368 . S
C148 C142 1.368 1_565 S
C148 C147 1.523 . S
C149 C133 1.429 . S
C149 C145 1.429 . S
C149 C150 1.523 . S
C150 C134 1.368 . S
C150 C146 1.368 1_545 S
C150 C149 1.523 . S
H151 C126 0.950 . S
H152 C128 0.950 . S
H153 C129 0.949 . S
H154 C131 0.950 . S
H155 C133 0.950 . S
C156 C157 1.349 . S
C156 C158 1.327 . S
C156 H181 0.950 . S
C157 C156 1.349 . S
C157 C173 1.349 . S
C158 C156 1.327 . S
C158 C177 1.429 . S
C158 H182 0.950 . S
C159 C176 1.574 . S
C159 C178 1.368 . S
C159 H183 0.949 . S
H160 C164 0.949 . S
C161 C162 1.349 . S
C161 C163 1.327 . S
C161 H184 0.950 . S
C162 C161 1.349 . S
C162 C174 1.349 . S
C163 C161 1.327 . S
C163 C179 1.429 . S
C163 H185 0.950 . S
C164 H160 0.949 . S
C164 C172 1.574 . S
C164 C180 1.368 . S
H165 C173 0.950 . S
H166 C171 0.950 . S
H167 C172 0.949 . S
H168 C174 0.950 . S
H169 C175 0.950 . S
H170 C176 0.949 . S
C171 H166 0.950 . S
C171 C173 1.327 . S
C171 C177 1.429 . S
C172 C164 1.574 . S
C172 H167 0.949 . S
C172 C178 1.368 . S
C173 C157 1.349 . S
C173 H165 0.950 . S
C173 C171 1.327 . S
C174 C162 1.349 . S
C174 H168 0.950 . S
C174 C175 1.327 . S
C175 H169 0.950 . S
C175 C174 1.327 . S
C175 C179 1.429 . S
C176 C159 1.574 . S
C176 H170 0.949 . S
C176 C180 1.368 . S
C177 C158 1.429 . S
C177 C171 1.429 . S
C177 C178 1.523 . S
C178 C159 1.368 . S
C178 C172 1.368 . S
C178 C177 1.523 . S
C179 C163 1.429 . S
C179 C175 1.429 . S
C179 C180 1.523 . S
C180 C164 1.368 . S
C180 C176 1.368 . S
C180 C179 1.523 . S
H181 C156 0.950 . S
H182 C158 0.950 . S
H183 C159 0.949 . S
H184 C161 0.950 . S
H185 C163 0.950 . S
C186 C187 1.349 . S
C186 C188 1.327 . S
C186 H211 0.948 1_655 S
C187 C186 1.349 . S
C187 C203 1.349 . S
C188 C186 1.327 . S
C188 C207 1.429 . S
C188 H212 0.950 1_655 S
C189 C206 1.574 1_554 S
C189 C208 1.368 . S
C189 H213 0.949 . S
H190 C194 0.949 . S
C191 C192 1.349 . S
C191 C193 1.327 . S
C191 H214 0.948 1_455 S
C192 C191 1.349 . S
C192 C204 1.349 . S
C193 C191 1.327 . S
C193 C209 1.429 . S
C193 H215 0.950 1_455 S
C194 H190 0.949 . S
C194 C202 1.574 1_556 S
C194 C210 1.368 . S
H195 C203 0.950 . S
H196 C201 0.950 . S
H197 C202 0.949 . S
H198 C204 0.950 . S
H199 C205 0.950 . S
H200 C206 0.949 . S
C201 H196 0.950 . S
C201 C203 1.327 . S
C201 C207 1.429 . S
C202 C194 1.574 1_554 S
C202 H197 0.949 . S
C202 C208 1.368 1_455 S
C203 C187 1.349 . S
C203 H195 0.950 . S
C203 C201 1.327 . S
C204 C192 1.349 . S
C204 H198 0.950 . S
C204 C205 1.327 . S
C205 H199 0.950 . S
C205 C204 1.327 . S
C205 C209 1.429 . S
C206 C189 1.574 1_556 S
C206 H200 0.949 . S
C206 C210 1.368 1_655 S
C207 C188 1.429 . S
C207 C201 1.429 . S
C207 C208 1.523 . S
C208 C189 1.368 . S
C208 C202 1.368 1_655 S
C208 C207 1.523 . S
C209 C193 1.429 . S
C209 C205 1.429 . S
C209 C210 1.523 . S
C210 C194 1.368 . S
C210 C206 1.368 1_455 S
C210 C209 1.523 . S
H211 C186 0.948 1_455 S
H212 C188 0.950 1_455 S
H213 C189 0.949 . S
H214 C191 0.948 1_655 S
H215 C193 0.950 1_655 S
C216 C217 1.349 . S
C216 C218 1.330 . S
C216 H241 0.950 1_545 S
C217 C216 1.349 . S
C217 C233 1.349 . S
C218 C216 1.330 . S
C218 C237 1.436 . S
C218 H242 0.938 1_545 S
C219 C236 1.574 . S
C219 C238 1.368 . S
C219 H243 0.949 . S
H220 C224 0.949 . S
C221 C222 1.349 . S
C221 C223 1.330 . S
C221 H244 0.950 1_565 S
C222 C221 1.349 . S
C222 C234 1.349 . S
C223 C221 1.330 . S
C223 C239 1.436 . S
C223 H245 0.938 1_565 S
C224 H220 0.949 . S
C224 C232 1.574 . S
C224 C240 1.368 . S
H225 C233 0.950 . S
H226 C231 0.950 . S
H227 C232 0.949 . S
H228 C234 0.950 . S
H229 C235 0.950 . S
H230 C236 0.949 . S
C231 H226 0.950 . S
C231 C233 1.327 . S
C231 C237 1.429 . S
C232 C224 1.574 . S
C232 H227 0.949 . S
C232 C238 1.368 1_565 S
C233 C217 1.349 . S
C233 H225 0.950 . S
C233 C231 1.327 . S
C234 C222 1.349 . S
C234 H228 0.950 . S
C234 C235 1.327 . S
C235 H229 0.950 . S
C235 C234 1.327 . S
C235 C239 1.429 . S
C236 C219 1.574 . S
C236 H230 0.949 . S
C236 C240 1.368 1_545 S
C237 C218 1.436 . S
C237 C231 1.429 . S
C237 C238 1.523 . S
C238 C219 1.368 . S
C238 C232 1.368 1_545 S
C238 C237 1.523 . S
C239 C223 1.436 . S
C239 C235 1.429 . S
C239 C240 1.523 . S
C240 C224 1.368 . S
C240 C236 1.368 1_565 S
C240 C239 1.523 . S
H241 C216 0.950 1_565 S
H242 C218 0.938 1_565 S
H243 C219 0.949 . S
H244 C221 0.950 1_545 S
H245 C223 0.938 1_545 S
C246 C247 1.349 . S
C246 C248 1.327 . S
C246 H271 0.950 . S
C247 C246 1.349 . S
C247 C263 1.349 . S
C248 C246 1.327 . S
C248 C267 1.429 . S
C248 H272 0.950 . S
C249 C266 1.574 1_556 S
C249 C268 1.368 . S
C249 H273 0.949 . S
H250 C254 0.949 . S
C251 C252 1.349 . S
C251 C253 1.327 . S
C251 H274 0.950 . S
C252 C251 1.349 . S
C252 C264 1.349 . S
C253 C251 1.327 . S
C253 C269 1.429 . S
C253 H275 0.950 . S
C254 H250 0.949 . S
C254 C262 1.574 1_554 S
C254 C270 1.368 . S
H255 C263 0.950 . S
H256 C261 0.950 . S
H257 C262 0.949 . S
H258 C264 0.950 . S
H259 C265 0.950 . S
H260 C266 0.949 . S
C261 H256 0.950 . S
C261 C263 1.327 . S
C261 C267 1.429 . S
C262 C254 1.574 1_556 S
C262 H257 0.949 . S
C262 C268 1.368 . S
C263 C247 1.349 . S
C263 H255 0.950 . S
C263 C261 1.327 . S
C264 C252 1.349 . S
C264 H258 0.950 . S
C264 C265 1.327 . S
C265 H259 0.950 . S
C265 C264 1.327 . S
C265 C269 1.429 . S
C266 C249 1.574 1_554 S
C266 H260 0.949 . S
C266 C270 1.368 . S
C267 C248 1.429 . S
C267 C261 1.429 . S
C267 C268 1.523 . S
C268 C249 1.368 . S
C268 C262 1.368 . S
C268 C267 1.523 . S
C269 C253 1.429 . S
C269 C265 1.429 . S
C269 C270 1.523 . S
C270 C254 1.368 . S
C270 C266 1.368 . S
C270 C269 1.523 . S
H271 C246 0.950 . S
H272 C248 0.950 . S
H273 C249 0.949 . S
H274 C251 0.950 . S
H275 C253 0.950 . S
C276 C277 1.349 . S
C276 C278 1.327 . S
C276 H301 0.950 . S
C277 C276 1.349 . S
C277 C293 1.349 . S
C278 C276 1.327 . S
C278 C297 1.429 . S
C278 H302 0.950 . S
C279 C296 1.575 . S
C279 C298 1.366 1_455 S
C279 H303 0.952 . S
H280 C284 0.952 . S
C281 C282 1.349 . S
C281 C283 1.327 . S
C281 H304 0.950 . S
C282 C281 1.349 . S
C282 C294 1.349 . S
C283 C281 1.327 . S
C283 C299 1.429 . S
C283 H305 0.950 . S
C284 H280 0.952 . S
C284 C292 1.575 . S
C284 C300 1.366 1_655 S
H285 C293 0.950 . S
H286 C291 0.950 . S
H287 C292 0.949 . S
H288 C294 0.950 . S
H289 C295 0.950 . S
H290 C296 0.949 . S
C291 H286 0.950 . S
C291 C293 1.327 . S
C291 C297 1.429 . S
C292 C284 1.575 . S
C292 H287 0.949 . S
C292 C298 1.368 . S
C293 C277 1.349 . S
C293 H285 0.950 . S
C293 C291 1.327 . S
C294 C282 1.349 . S
C294 H288 0.950 . S
C294 C295 1.327 . S
C295 H289 0.950 . S
C295 C294 1.327 . S
C295 C299 1.429 . S
C296 C279 1.575 . S
C296 H290 0.949 . S
C296 C300 1.368 . S
C297 C278 1.429 . S
C297 C291 1.429 . S
C297 C298 1.523 . S
C298 C279 1.366 1_655 S
C298 C292 1.368 . S
C298 C297 1.523 . S
C299 C283 1.429 . S
C299 C295 1.429 . S
C299 C300 1.523 . S
C300 C284 1.366 1_455 S
C300 C296 1.368 . S
C300 C299 1.523 . S
H301 C276 0.950 . S
H302 C278 0.950 . S
H303 C279 0.952 . S
H304 C281 0.950 . S
H305 C283 0.950 . S
C306 C307 1.349 . S
C306 C308 1.327 . S
C306 H331 0.950 . S
C307 C306 1.349 . S
C307 C323 1.349 . S
C308 C306 1.327 . S
C308 C327 1.429 . S
C308 H332 0.950 . S
C309 C326 1.574 . S
C309 C328 1.368 . S
C309 H333 0.949 . S
H310 C314 0.949 . S
C311 C312 1.349 . S
C311 C313 1.327 . S
C311 H334 0.950 . S
C312 C311 1.349 . S
C312 C324 1.349 . S
C313 C311 1.327 . S
C313 C329 1.429 . S
C313 H335 0.950 . S
C314 H310 0.949 . S
C314 C322 1.574 . S
C314 C330 1.368 . S
H315 C323 0.950 . S
H316 C321 0.950 . S
H317 C322 0.949 . S
H318 C324 0.950 . S
H319 C325 0.950 . S
H320 C326 0.949 . S
C321 H316 0.950 . S
C321 C323 1.327 . S
C321 C327 1.429 . S
C322 C314 1.574 . S
C322 H317 0.949 . S
C322 C328 1.368 . S
C323 C307 1.349 . S
C323 H315 0.950 . S
C323 C321 1.327 . S
C324 C312 1.349 . S
C324 H318 0.950 . S
C324 C325 1.327 . S
C325 H319 0.950 . S
C325 C324 1.327 . S
C325 C329 1.429 . S
C326 C309 1.574 . S
C326 H320 0.949 . S
C326 C330 1.368 . S
C327 C308 1.429 . S
C327 C321 1.429 . S
C327 C328 1.523 . S
C328 C309 1.368 . S
C328 C322 1.368 . S
C328 C327 1.523 . S
C329 C313 1.429 . S
C329 C325 1.429 . S
C329 C330 1.523 . S
C330 C314 1.368 . S
C330 C326 1.368 . S
C330 C329 1.523 . S
H331 C306 0.950 . S
H332 C308 0.950 . S
H333 C309 0.949 . S
H334 C311 0.950 . S
H335 C313 0.950 . S
C336 C337 1.349 . S
C336 C338 1.327 . S
C336 H361 0.950 . S
C337 C336 1.349 . S
C337 C353 1.349 . S
C338 C336 1.327 . S
C338 C357 1.429 . S
C338 H362 0.950 . S
C339 C356 1.574 . S
C339 C358 1.368 . S
C339 H363 0.949 . S
H340 C344 0.949 . S
C341 C342 1.349 . S
C341 C343 1.327 . S
C341 H364 0.950 . S
C342 C341 1.349 . S
C342 C354 1.349 . S
C343 C341 1.327 . S
C343 C359 1.429 . S
C343 H365 0.950 . S
C344 H340 0.949 . S
C344 C352 1.574 . S
C344 C360 1.368 . S
H345 C353 0.950 . S
H346 C351 0.950 . S
H347 C352 0.949 . S
H348 C354 0.950 . S
H349 C355 0.950 . S
H350 C356 0.949 . S
C351 H346 0.950 . S
C351 C353 1.327 . S
C351 C357 1.429 . S
C352 C344 1.574 . S
C352 H347 0.949 . S
C352 C358 1.368 . S
C353 C337 1.349 . S
C353 H345 0.950 . S
C353 C351 1.327 . S
C354 C342 1.349 . S
C354 H348 0.950 . S
C354 C355 1.327 . S
C355 H349 0.950 . S
C355 C354 1.327 . S
C355 C359 1.429 . S
C356 C339 1.574 . S
C356 H350 0.949 . S
C356 C360 1.368 . S
C357 C338 1.429 . S
C357 C351 1.429 . S
C357 C358 1.523 . S
C358 C339 1.368 . S
C358 C352 1.368 . S
C358 C357 1.523 . S
C359 C343 1.429 . S
C359 C355 1.429 . S
C359 C360 1.523 . S
C360 C344 1.368 . S
C360 C356 1.368 . S
C360 C359 1.523 . S
H361 C336 0.950 . S
H362 C338 0.950 . S
H363 C339 0.949 . S
H364 C341 0.950 . S
H365 C343 0.950 . S
C366 C367 1.349 . S
C366 C368 1.327 . S
C366 H391 0.950 . S
C367 C366 1.349 . S
C367 C383 1.349 . S
C368 C366 1.327 . S
C368 C387 1.429 . S
C368 H392 0.950 . S
C369 C386 1.574 . S
C369 C388 1.368 . S
C369 H393 0.949 . S
H370 C374 0.949 . S
C371 C372 1.349 . S
C371 C373 1.327 . S
C371 H394 0.950 . S
C372 C371 1.349 . S
C372 C384 1.349 . S
C373 C371 1.327 . S
C373 C389 1.429 . S
C373 H395 0.950 . S
C374 H370 0.949 . S
C374 C382 1.574 . S
C374 C390 1.368 . S
H375 C383 0.950 . S
H376 C381 0.950 . S
H377 C382 0.949 . S
H378 C384 0.950 . S
H379 C385 0.950 . S
H380 C386 0.949 . S
C381 H376 0.950 . S
C381 C383 1.327 . S
C381 C387 1.429 . S
C382 C374 1.574 . S
C382 H377 0.949 . S
C382 C388 1.368 . S
C383 C367 1.349 . S
C383 H375 0.950 . S
C383 C381 1.327 . S
C384 C372 1.349 . S
C384 H378 0.950 . S
C384 C385 1.327 . S
C385 H379 0.950 . S
C385 C384 1.327 . S
C385 C389 1.429 . S
C386 C369 1.574 . S
C386 H380 0.949 . S
C386 C390 1.368 . S
C387 C368 1.429 . S
C387 C381 1.429 . S
C387 C388 1.523 . S
C388 C369 1.368 . S
C388 C382 1.368 . S
C388 C387 1.523 . S
C389 C373 1.429 . S
C389 C385 1.429 . S
C389 C390 1.523 . S
C390 C374 1.368 . S
C390 C386 1.368 . S
C390 C389 1.523 . S
H391 C366 0.950 . S
H392 C368 0.950 . S
H393 C369 0.949 . S
H394 C371 0.950 . S
H395 C373 0.950 . S
C396 C397 1.349 . S
C396 C398 1.327 . S
C396 H421 0.950 . S
C397 C396 1.349 . S
C397 C413 1.349 . S
C398 C396 1.327 . S
C398 C417 1.429 . S
C398 H422 0.950 . S
C399 C416 1.574 . S
C399 C418 1.368 . S
C399 H423 0.949 . S
H400 C404 0.949 . S
C401 C402 1.349 . S
C401 C403 1.327 . S
C401 H424 0.950 . S
C402 C401 1.349 . S
C402 C414 1.349 . S
C403 C401 1.327 . S
C403 C419 1.429 . S
C403 H425 0.950 . S
C404 H400 0.949 . S
C404 C412 1.574 . S
C404 C420 1.368 . S
H405 C413 0.950 . S
H406 C411 0.950 . S
H407 C412 0.949 . S
H408 C414 0.950 . S
H409 C415 0.950 . S
H410 C416 0.949 . S
C411 H406 0.950 . S
C411 C413 1.327 . S
C411 C417 1.429 . S
C412 C404 1.574 . S
C412 H407 0.949 . S
C412 C418 1.368 . S
C413 C397 1.349 . S
C413 H405 0.950 . S
C413 C411 1.327 . S
C414 C402 1.349 . S
C414 H408 0.950 . S
C414 C415 1.327 . S
C415 H409 0.950 . S
C415 C414 1.327 . S
C415 C419 1.429 . S
C416 C399 1.574 . S
C416 H410 0.949 . S
C416 C420 1.368 . S
C417 C398 1.429 . S
C417 C411 1.429 . S
C417 C418 1.523 . S
C418 C399 1.368 . S
C418 C412 1.368 . S
C418 C417 1.523 . S
C419 C403 1.429 . S
C419 C415 1.429 . S
C419 C420 1.523 . S
C420 C404 1.368 . S
C420 C416 1.368 . S
C420 C419 1.523 . S
H421 C396 0.950 . S
H422 C398 0.950 . S
H423 C399 0.949 . S
H424 C401 0.950 . S
H425 C403 0.950 . S
C426 C427 1.349 . S
C426 C428 1.327 . S
C426 H451 0.950 . S
C427 C426 1.349 . S
C427 C443 1.349 . S
C428 C426 1.327 . S
C428 C447 1.429 . S
C428 H452 0.950 . S
C429 C446 1.574 . S
C429 C448 1.368 . S
C429 H453 0.949 . S
H430 C434 0.949 . S
C431 C432 1.349 . S
C431 C433 1.327 . S
C431 H454 0.950 . S
C432 C431 1.349 . S
C432 C444 1.349 . S
C433 C431 1.327 . S
C433 C449 1.429 . S
C433 H455 0.950 . S
C434 H430 0.949 . S
C434 C442 1.574 . S
C434 C450 1.368 . S
H435 C443 0.950 . S
H436 C441 0.950 . S
H437 C442 0.949 . S
H438 C444 0.950 . S
H439 C445 0.950 . S
H440 C446 0.949 . S
C441 H436 0.950 . S
C441 C443 1.327 . S
C441 C447 1.429 . S
C442 C434 1.574 . S
C442 H437 0.949 . S
C442 C448 1.368 . S
C443 C427 1.349 . S
C443 H435 0.950 . S
C443 C441 1.327 . S
C444 C432 1.349 . S
C444 H438 0.950 . S
C444 C445 1.327 . S
C445 H439 0.950 . S
C445 C444 1.327 . S
C445 C449 1.429 . S
C446 C429 1.574 . S
C446 H440 0.949 . S
C446 C450 1.368 . S
C447 C428 1.429 . S
C447 C441 1.429 . S
C447 C448 1.523 . S
C448 C429 1.368 . S
C448 C442 1.368 . S
C448 C447 1.523 . S
C449 C433 1.429 . S
C449 C445 1.429 . S
C449 C450 1.523 . S
C450 C434 1.368 . S
C450 C446 1.368 . S
C450 C449 1.523 . S
H451 C426 0.950 . S
H452 C428 0.950 . S
H453 C429 0.949 . S
H454 C431 0.950 . S
H455 C433 0.950 . S
C456 C457 1.349 . S
C456 C458 1.327 . S
C456 H481 0.950 . S
C457 C456 1.349 . S
C457 C473 1.349 . S
C458 C456 1.327 . S
C458 C477 1.429 . S
C458 H482 0.950 . S
C459 C476 1.574 . S
C459 C478 1.368 . S
C459 H483 0.949 . S
H460 C464 0.949 . S
C461 C462 1.349 . S
C461 C463 1.327 . S
C461 H484 0.950 . S
C462 C461 1.349 . S
C462 C474 1.349 . S
C463 C461 1.327 . S
C463 C479 1.429 . S
C463 H485 0.950 . S
C464 H460 0.949 . S
C464 C472 1.574 . S
C464 C480 1.368 . S
H465 C473 0.950 . S
H466 C471 0.950 . S
H467 C472 0.949 . S
H468 C474 0.950 . S
H469 C475 0.950 . S
H470 C476 0.949 . S
C471 H466 0.950 . S
C471 C473 1.327 . S
C471 C477 1.429 . S
C472 C464 1.574 . S
C472 H467 0.949 . S
C472 C478 1.368 . S
C473 C457 1.349 . S
C473 H465 0.950 . S
C473 C471 1.327 . S
C474 C462 1.349 . S
C474 H468 0.950 . S
C474 C475 1.327 . S
C475 H469 0.950 . S
C475 C474 1.327 . S
C475 C479 1.429 . S
C476 C459 1.574 . S
C476 H470 0.949 . S
C476 C480 1.368 . S
C477 C458 1.429 . S
C477 C471 1.429 . S
C477 C478 1.523 . S
C478 C459 1.368 . S
C478 C472 1.368 . S
C478 C477 1.523 . S
C479 C463 1.429 . S
C479 C475 1.429 . S
C479 C480 1.523 . S
C480 C464 1.368 . S
C480 C476 1.368 . S
C480 C479 1.523 . S
H481 C456 0.950 . S
H482 C458 0.950 . S
H483 C459 0.949 . S
H484 C461 0.950 . S
H485 C463 0.950 . S
C486 C487 1.349 . S
C486 C488 1.327 . S
C486 H511 0.950 . S
C487 C486 1.349 . S
C487 C503 1.349 . S
C488 C486 1.327 . S
C488 C507 1.429 . S
C488 H512 0.950 . S
C489 C506 1.574 . S
C489 C508 1.368 . S
C489 H513 0.949 . S
H490 C494 0.949 . S
C491 C492 1.349 . S
C491 C493 1.327 . S
C491 H514 0.950 . S
C492 C491 1.349 . S
C492 C504 1.349 . S
C493 C491 1.327 . S
C493 C509 1.429 . S
C493 H515 0.950 . S
C494 H490 0.949 . S
C494 C502 1.574 . S
C494 C510 1.368 . S
H495 C503 0.950 . S
H496 C501 0.950 . S
H497 C502 0.949 . S
H498 C504 0.950 1_655 S
H499 C505 0.950 . S
H500 C506 0.949 . S
C501 H496 0.950 . S
C501 C503 1.327 . S
C501 C507 1.429 . S
C502 C494 1.574 . S
C502 H497 0.949 . S
C502 C508 1.368 . S
C503 C487 1.349 . S
C503 H495 0.950 . S
C503 C501 1.327 . S
C504 C492 1.349 . S
C504 H498 0.950 1_455 S
C504 C505 1.327 . S
C505 H499 0.950 . S
C505 C504 1.327 . S
C505 C509 1.429 . S
C506 C489 1.574 . S
C506 H500 0.949 . S
C506 C510 1.368 . S
C507 C488 1.429 . S
C507 C501 1.429 . S
C507 C508 1.523 . S
C508 C489 1.368 . S
C508 C502 1.368 . S
C508 C507 1.523 . S
C509 C493 1.429 . S
C509 C505 1.429 . S
C509 C510 1.523 . S
C510 C494 1.368 . S
C510 C506 1.368 . S
C510 C509 1.523 . S
H511 C486 0.950 . S
H512 C488 0.950 . S
H513 C489 0.949 . S
H514 C491 0.950 . S
H515 C493 0.950 . S
C516 C517 1.349 . S
C516 C518 1.327 . S
C516 H541 0.950 . S
C517 C516 1.349 . S
C517 C533 1.349 . S
C518 C516 1.327 . S
C518 C537 1.429 . S
C518 H542 0.950 . S
C519 C536 1.574 . S
C519 C538 1.368 . S
C519 H543 0.949 . S
H520 C524 0.949 . S
C521 C522 1.349 . S
C521 C523 1.327 . S
C521 H544 0.950 . S
C522 C521 1.349 . S
C522 C534 1.349 . S
C523 C521 1.327 . S
C523 C539 1.429 . S
C523 H545 0.950 . S
C524 H520 0.949 . S
C524 C532 1.574 . S
C524 C540 1.368 . S
H525 C533 0.950 . S
H526 C531 0.950 . S
H527 C532 0.949 . S
H528 C534 0.950 1_545 S
H529 C535 0.950 . S
H530 C536 0.949 . S
C531 H526 0.950 . S
C531 C533 1.327 . S
C531 C537 1.429 . S
C532 C524 1.574 . S
C532 H527 0.949 . S
C532 C538 1.368 . S
C533 C517 1.349 . S
C533 H525 0.950 . S
C533 C531 1.327 . S
C534 C522 1.349 . S
C534 H528 0.950 1_565 S
C534 C535 1.327 . S
C535 H529 0.950 . S
C535 C534 1.327 . S
C535 C539 1.429 . S
C536 C519 1.574 . S
C536 H530 0.949 . S
C536 C540 1.368 . S
C537 C518 1.429 . S
C537 C531 1.429 . S
C537 C538 1.523 1_655 S
C538 C519 1.368 . S
C538 C532 1.368 . S
C538 C537 1.523 1_455 S
C539 C523 1.429 . S
C539 C535 1.429 . S
C539 C540 1.523 . S
C540 C524 1.368 . S
C540 C536 1.368 . S
C540 C539 1.523 . S
H541 C516 0.950 . S
H542 C518 0.950 . S
H543 C519 0.949 . S
H544 C521 0.950 . S
H545 C523 0.950 . S
C546 C547 1.349 . S
C546 C548 1.327 . S
C546 H571 0.950 . S
C547 C546 1.349 . S
C547 C563 1.349 . S
C548 C546 1.327 . S
C548 C567 1.429 . S
C548 H572 0.950 . S
C549 C566 1.574 . S
C549 C568 1.368 . S
C549 H573 0.949 . S
H550 C554 0.949 . S
C551 C552 1.349 . S
C551 C553 1.327 . S
C551 H574 0.950 . S
C552 C551 1.349 . S
C552 C564 1.349 . S
C553 C551 1.327 . S
C553 C569 1.429 . S
C553 H575 0.950 . S
C554 H550 0.949 . S
C554 C562 1.574 . S
C554 C570 1.368 . S
H555 C563 0.950 . S
H556 C561 0.950 . S
H557 C562 0.949 . S
H558 C564 0.950 . S
H559 C565 0.950 . S
H560 C566 0.949 . S
C561 H556 0.950 . S
C561 C563 1.327 . S
C561 C567 1.429 . S
C562 C554 1.574 . S
C562 H557 0.949 . S
C562 C568 1.368 . S
C563 C547 1.349 . S
C563 H555 0.950 . S
C563 C561 1.327 . S
C564 C552 1.349 . S
C564 H558 0.950 . S
C564 C565 1.327 . S
C565 H559 0.950 . S
C565 C564 1.327 . S
C565 C569 1.429 . S
C566 C549 1.574 . S
C566 H560 0.949 . S
C566 C570 1.368 . S
C567 C548 1.429 . S
C567 C561 1.429 . S
C567 C568 1.523 1_545 S
C568 C549 1.368 . S
C568 C562 1.368 . S
C568 C567 1.523 1_565 S
C569 C553 1.429 . S
C569 C565 1.429 . S
C569 C570 1.523 . S
C570 C554 1.368 . S
C570 C566 1.368 . S
C570 C569 1.523 . S
H571 C546 0.950 . S
H572 C548 0.950 . S
H573 C549 0.949 . S
H574 C551 0.950 . S
H575 C553 0.950 . S
C576 C577 1.349 . S
C576 C578 1.327 . S
C576 H601 0.950 . S
C577 C576 1.349 . S
C577 C593 1.349 . S
C578 C576 1.327 . S
C578 C597 1.429 . S
C578 H602 0.950 . S
C579 C596 1.574 . S
C579 C598 1.368 . S
C579 H603 0.949 . S
H580 C584 0.949 . S
C581 C582 1.349 . S
C581 C583 1.327 . S
C581 H604 0.950 . S
C582 C581 1.349 . S
C582 C594 1.349 . S
C583 C581 1.327 . S
C583 C599 1.429 . S
C583 H605 0.950 . S
C584 H580 0.949 . S
C584 C592 1.574 . S
C584 C600 1.368 . S
H585 C593 0.950 . S
H586 C591 0.950 . S
H587 C592 0.949 . S
H588 C594 0.950 1_565 S
H589 C595 0.950 . S
H590 C596 0.949 . S
C591 H586 0.950 . S
C591 C593 1.327 . S
C591 C597 1.429 . S
C592 C584 1.574 . S
C592 H587 0.949 . S
C592 C598 1.368 . S
C593 C577 1.349 . S
C593 H585 0.950 . S
C593 C591 1.327 . S
C594 C582 1.349 . S
C594 H588 0.950 1_545 S
C594 C595 1.327 . S
C595 H589 0.950 . S
C595 C594 1.327 . S
C595 C599 1.429 . S
C596 C579 1.574 . S
C596 H590 0.949 . S
C596 C600 1.368 . S
C597 C578 1.429 . S
C597 C591 1.429 . S
C597 C598 1.523 . S
C598 C579 1.368 . S
C598 C592 1.368 . S
C598 C597 1.523 . S
C599 C583 1.429 . S
C599 C595 1.429 . S
C599 C600 1.523 . S
C600 C584 1.368 . S
C600 C596 1.368 . S
C600 C599 1.523 . S
H601 C576 0.950 . S
H602 C578 0.950 . S
H603 C579 0.949 . S
H604 C581 0.950 . S
H605 C583 0.950 . S
C606 C607 1.349 . S
C606 C608 1.327 . S
C606 H631 0.950 . S
C607 C606 1.349 . S
C607 C623 1.349 . S
C608 C606 1.327 . S
C608 C627 1.429 . S
C608 H632 0.950 . S
C609 C626 1.574 . S
C609 C628 1.368 . S
C609 H633 0.949 . S
H610 C614 0.949 . S
C611 C612 1.349 . S
C611 C613 1.327 . S
C611 H634 0.950 . S
C612 C611 1.349 . S
C612 C624 1.349 . S
C613 C611 1.327 . S
C613 C629 1.429 . S
C613 H635 0.950 . S
C614 H610 0.949 . S
C614 C622 1.574 . S
C614 C630 1.368 . S
H615 C623 0.950 . S
H616 C621 0.950 . S
H617 C622 0.949 . S
H618 C624 0.950 . S
H619 C625 0.950 . S
H620 C626 0.949 . S
C621 H616 0.950 . S
C621 C623 1.327 . S
C621 C627 1.429 . S
C622 C614 1.574 . S
C622 H617 0.949 . S
C622 C628 1.368 . S
C623 C607 1.349 . S
C623 H615 0.950 . S
C623 C621 1.327 . S
C624 C612 1.349 . S
C624 H618 0.950 . S
C624 C625 1.327 . S
C625 H619 0.950 . S
C625 C624 1.327 . S
C625 C629 1.429 . S
C626 C609 1.574 . S
C626 H620 0.949 . S
C626 C630 1.368 . S
C627 C608 1.429 . S
C627 C621 1.429 . S
C627 C628 1.523 1_455 S
C628 C609 1.368 . S
C628 C622 1.368 . S
C628 C627 1.523 1_655 S
C629 C613 1.429 . S
C629 C625 1.429 . S
C629 C630 1.523 . S
C630 C614 1.368 . S
C630 C626 1.368 . S
C630 C629 1.523 . S
H631 C606 0.950 . S
H632 C608 0.950 . S
H633 C609 0.949 . S
H634 C611 0.950 . S
H635 C613 0.950 . S
C636 C637 1.349 . S
C636 C638 1.327 . S
C636 H661 0.950 . S
C637 C636 1.349 . S
C637 C653 1.349 . S
C638 C636 1.327 . S
C638 C657 1.429 . S
C638 H662 0.950 . S
C639 C656 1.574 . S
C639 C658 1.368 . S
C639 H663 0.949 . S
H640 C644 0.949 . S
C641 C642 1.349 . S
C641 C643 1.327 . S
C641 H664 0.950 . S
C642 C641 1.349 . S
C642 C654 1.349 . S
C643 C641 1.327 . S
C643 C659 1.429 . S
C643 H665 0.950 . S
C644 H640 0.949 . S
C644 C652 1.574 . S
C644 C660 1.368 . S
H645 C653 0.950 1_455 S
H646 C651 0.950 . S
H647 C652 0.949 . S
H648 C654 0.950 . S
H649 C655 0.950 . S
H650 C656 0.949 . S
C651 H646 0.950 . S
C651 C653 1.327 . S
C651 C657 1.429 . S
C652 C644 1.574 . S
C652 H647 0.949 . S
C652 C658 1.368 . S
C653 C637 1.349 . S
C653 H645 0.950 1_655 S
C653 C651 1.327 . S
C654 C642 1.349 . S
C654 H648 0.950 . S
C654 C655 1.327 . S
C655 H649 0.950 . S
C655 C654 1.327 . S
C655 C659 1.429 . S
C656 C639 1.574 . S
C656 H650 0.949 . S
C656 C660 1.368 . S
C657 C638 1.429 . S
C657 C651 1.429 . S
C657 C658 1.523 . S
C658 C639 1.368 . S
C658 C652 1.368 . S
C658 C657 1.523 . S
C659 C643 1.429 . S
C659 C655 1.429 . S
C659 C660 1.523 1_565 S
C660 C644 1.368 . S
C660 C656 1.368 . S
C660 C659 1.523 1_545 S
H661 C636 0.950 . S
H662 C638 0.950 . S
H663 C639 0.949 . S
H664 C641 0.950 . S
H665 C643 0.950 . S
C127 C88 1.439 . S
C132 C7 1.439 . S
C157 C112 1.506 . S
C162 C25 1.506 . S
C187 C49 1.439 . S
C192 C70 1.439 . S
C217 C4 1.506 . S
C222 C91 1.506 . S
C247 C109 1.439 . S
C252 C28 1.439 . S
C277 C46 1.506 . S
C282 C67 1.506 . S
C307 C3 0.869 . S
C312 C62 0.968 . S
C337 C24 0.869 . S
C342 C20 0.968 . S
C367 C45 0.869 . S
C372 C41 0.968 . S
C397 C66 0.869 . S
C402 C103 0.968 . S
C427 C100 0.869 . S
C432 C124 0.968 . S
C457 C83 0.968 . S
C462 C121 0.869 . S
C487 C19 0.793 . S
C492 C58 0.788 . S
C517 C40 0.793 . S
C522 C16 0.790 . S
C547 C61 0.793 . S
C552 C37 0.771 . S
C577 C82 0.793 . S
C582 C87 0.788 . S
C607 C104 0.793 . S
C612 C108 0.771 . S
C637 C79 0.790 . S
C642 C125 0.793 . S
