# Generated by pormake.
# Topology wht, (6)-cn, num edge types: 1
# Building blocks:
#     Node 0, Type 0, BuildingBlock: VOLQOD_clean_sbu_1, # of connection points: 6
#     Node 1, Type 0, BuildingBlock: VOLQOD_clean_sbu_1, # of connection points: 6
#     Node 2, Type 0, BuildingBlock: VOLQOD_clean_sbu_1, # of connection points: 6
#     Node 3, Type 0, BuildingBlock: VOLQOD_clean_sbu_1, # of connection points: 6
#     Node 4, Type 0, BuildingBlock: VOLQOD_clean_sbu_1, # of connection points: 6
#     Node 5, Type 0, BuildingBlock: VOLQOD_clean_sbu_1, # of connection points: 6
#     Node 6, Type 0, BuildingBlock: VOLQOD_clean_sbu_1, # of connection points: 6
#     Node 7, Type 0, BuildingBlock: VOLQOD_clean_sbu_1, # of connection points: 6
#     Edge 8, Type (0, 0), BuildingBlock: MIFKUJ_clean_linker_0, # of connection points: 2
#     Edge 9, Type (0, 0), BuildingBlock: MIFKUJ_clean_linker_0, # of connection points: 2
#     Edge 10, Type (0, 0), BuildingBlock: MIFKUJ_clean_linker_0, # of connection points: 2
#     Edge 11, Type (0, 0), BuildingBlock: MIFKUJ_clean_linker_0, # of connection points: 2
#     Edge 12, Type (0, 0), BuildingBlock: MIFKUJ_clean_linker_0, # of connection points: 2
#     Edge 13, Type (0, 0), BuildingBlock: MIFKUJ_clean_linker_0, # of connection points: 2
#     Edge 14, Type (0, 0), BuildingBlock: MIFKUJ_clean_linker_0, # of connection points: 2
#     Edge 15, Type (0, 0), BuildingBlock: MIFKUJ_clean_linker_0, # of connection points: 2
#     Edge 16, Type (0, 0), BuildingBlock: MIFKUJ_clean_linker_0, # of connection points: 2
#     Edge 17, Type (0, 0), BuildingBlock: MIFKUJ_clean_linker_0, # of connection points: 2
#     Edge 18, Type (0, 0), BuildingBlock: MIFKUJ_clean_linker_0, # of connection points: 2
#     Edge 19, Type (0, 0), BuildingBlock: MIFKUJ_clean_linker_0, # of connection points: 2
#     Edge 20, Type (0, 0), BuildingBlock: MIFKUJ_clean_linker_0, # of connection points: 2
#     Edge 21, Type (0, 0), BuildingBlock: MIFKUJ_clean_linker_0, # of connection points: 2
#     Edge 22, Type (0, 0), BuildingBlock: MIFKUJ_clean_linker_0, # of connection points: 2
#     Edge 23, Type (0, 0), BuildingBlock: MIFKUJ_clean_linker_0, # of connection points: 2
#     Edge 24, Type (0, 0), BuildingBlock: MIFKUJ_clean_linker_0, # of connection points: 2
#     Edge 25, Type (0, 0), BuildingBlock: MIFKUJ_clean_linker_0, # of connection points: 2
#     Edge 26, Type (0, 0), BuildingBlock: MIFKUJ_clean_linker_0, # of connection points: 2
#     Edge 27, Type (0, 0), BuildingBlock: MIFKUJ_clean_linker_0, # of connection points: 2
#     Edge 28, Type (0, 0), BuildingBlock: MIFKUJ_clean_linker_0, # of connection points: 2
#     Edge 29, Type (0, 0), BuildingBlock: MIFKUJ_clean_linker_0, # of connection points: 2
#     Edge 30, Type (0, 0), BuildingBlock: MIFKUJ_clean_linker_0, # of connection points: 2
#     Edge 31, Type (0, 0), BuildingBlock: MIFKUJ_clean_linker_0, # of connection points: 2
# Relax obj value: 0.361
# Max RMSD: 0.253
# Mean RMSD: 0.253
data_MOF--net-wht--node1-VOLQOD_clean_sbu_1--edge1-MIFKUJ_clean_linker_0
_symmetry_space_group_name_H-M    P1
_symmetry_Int_Tables_number       1
_symmetry_cell_setting            triclinic
loop_
_symmetry_equiv_pos_as_xyz
'x, y, z'
_cell_length_a     34.947765
_cell_length_b     34.892937
_cell_length_c     61.729183
_cell_angle_alpha  90.243814
_cell_angle_beta   89.943676
_cell_angle_gamma 90.102144
loop_
_atom_site_label
_atom_site_type_symbol
_atom_site_fract_x
_atom_site_fract_y
_atom_site_fract_z
_atom_type_partial_charge
O0 O 0.11946 0.28722 0.18086 0.0
Zn1 Zn 0.12432 0.27206 0.14925 0.0
O2 O 0.07284 0.26934 0.13661 0.0
Zn3 Zn 0.05945 0.21674 0.13037 0.0
Zn4 Zn 0.03469 0.29027 0.15644 0.0
Zn5 Zn 0.07145 0.29773 0.10974 0.0
O6 O 0.04965 0.20828 0.09901 0.0
O7 O 0.06809 0.2627 0.08365 0.0
O8 O 0.15213 0.21995 0.14693 0.0
O9 O 0.10364 0.18312 0.13648 0.0
O10 O 0.01514 0.19765 0.14783 0.0
O11 O 0.99868 0.24958 0.1663 0.0
O12 O 0.00127 0.33028 0.14251 0.0
O13 O 0.15466 0.31516 0.13483 0.0
O14 O 0.0253 0.33123 0.10921 0.0
O15 O 0.11702 0.33218 0.10751 0.0
C16 C 0.09262 0.30279 0.19182 0.0
C17 C 0.05687 0.22803 0.08224 0.0
C18 C 0.99391 0.21442 0.16164 0.0
C19 C 0.13843 0.18701 0.14203 0.0
C20 C 0.00069 0.34231 0.12308 0.0
C21 C 0.14749 0.3365 0.11856 0.0
O22 O 0.05961 0.3086 0.18374 0.0
O23 O 0.24701 0.60416 0.34571 0.0
Zn24 Zn 0.23321 0.62401 0.37536 0.0
O25 O 0.23728 0.58321 0.3963 0.0
Zn26 Zn 0.18763 0.56819 0.40667 0.0
Zn27 Zn 0.26131 0.53959 0.38279 0.0
Zn28 Zn 0.26794 0.60031 0.42052 0.0
O29 O 0.18961 0.56379 0.43914 0.0
O30 O 0.23611 0.60509 0.44767 0.0
O31 O 0.17947 0.6462 0.37527 0.0
O32 O 0.1489 0.60796 0.3983 0.0
O33 O 0.17004 0.51839 0.39298 0.0
O34 O 0.22299 0.4988 0.37643 0.0
O35 O 0.301 0.51643 0.40173 0.0
O36 O 0.27415 0.6643 0.3812 0.0
O37 O 0.3065 0.5602 0.42771 0.0
O38 O 0.2983 0.6474 0.413 0.0
C39 C 0.27269 0.57961 0.34096 0.0
C40 C 0.2085 0.58316 0.45307 0.0
C41 C 0.18804 0.494 0.38146 0.0
C42 C 0.14915 0.63648 0.38545 0.0
C43 C 0.31627 0.5285 0.41914 0.0
C44 C 0.29836 0.66909 0.39644 0.0
O45 O 0.28465 0.55545 0.35477 0.0
O46 O 0.87275 0.71278 0.68594 0.0
Zn47 Zn 0.86522 0.72979 0.65497 0.0
O48 O 0.91541 0.7337 0.64116 0.0
Zn49 Zn 0.92971 0.787 0.63837 0.0
Zn50 Zn 0.95389 0.70673 0.65812 0.0
Zn51 Zn 0.91293 0.71118 0.6127 0.0
O52 O 0.93503 0.80262 0.60731 0.0
O53 O 0.91693 0.75043 0.5892 0.0
O54 O 0.83799 0.78193 0.65519 0.0
O55 O 0.88797 0.82008 0.64955 0.0
O56 O 0.97746 0.7997 0.65482 0.0
O57 O 0.99317 0.74377 0.66925 0.0
O58 O 0.98234 0.66614 0.64085 0.0
O59 O 0.83365 0.68805 0.63997 0.0
O60 O 0.95612 0.67537 0.60862 0.0
O61 O 0.86597 0.67904 0.60937 0.0
C62 C 0.89922 0.6933 0.69488 0.0
C63 C 0.92765 0.78527 0.58965 0.0
C64 C 0.99917 0.77943 0.66667 0.0
C65 C 0.85282 0.8154 0.65419 0.0
C66 C 0.98037 0.65873 0.62066 0.0
C67 C 0.83788 0.67118 0.62172 0.0
O68 O 0.93019 0.68531 0.68494 0.0
O69 O 0.77382 0.37944 0.93687 0.0
Zn70 Zn 0.76466 0.37325 0.90458 0.0
O71 O 0.7628 0.42449 0.89191 0.0
Zn72 Zn 0.71078 0.43818 0.88516 0.0
Zn73 Zn 0.78314 0.46298 0.91143 0.0
Zn74 Zn 0.79164 0.42496 0.86544 0.0
O75 O 0.70545 0.45513 0.85453 0.0
O76 O 0.75628 0.42724 0.83979 0.0
O77 O 0.71416 0.34427 0.89901 0.0
O78 O 0.67807 0.3918 0.88669 0.0
O79 O 0.6893 0.47816 0.90518 0.0
O80 O 0.74242 0.49963 0.92067 0.0
O81 O 0.82441 0.4954 0.89786 0.0
O82 O 0.81023 0.34363 0.89193 0.0
O83 O 0.82563 0.47081 0.8646 0.0
O84 O 0.82645 0.37978 0.86384 0.0
C85 C 0.78986 0.40627 0.94773 0.0
C86 C 0.72379 0.44347 0.83796 0.0
C87 C 0.7065 0.50141 0.91775 0.0
C88 C 0.68229 0.3568 0.89176 0.0
C89 C 0.83701 0.49527 0.87851 0.0
C90 C 0.83168 0.35039 0.8756 0.0
O91 O 0.79903 0.4381 0.93905 0.0
O92 O 0.62675 0.20892 0.55329 0.0
Zn93 Zn 0.63313 0.22751 0.58445 0.0
O94 O 0.58178 0.23562 0.59685 0.0
Zn95 Zn 0.57343 0.28965 0.60143 0.0
Zn96 Zn 0.54176 0.21668 0.57767 0.0
Zn97 Zn 0.57719 0.20954 0.62429 0.0
O98 O 0.56922 0.30222 0.63276 0.0
O99 O 0.57734 0.24665 0.64956 0.0
O100 O 0.6647 0.27754 0.58439 0.0
O101 O 0.61808 0.31921 0.59111 0.0
O102 O 0.52853 0.31019 0.58539 0.0
O103 O 0.50973 0.25942 0.56658 0.0
O104 O 0.50491 0.18052 0.59207 0.0
O105 O 0.66064 0.18472 0.60085 0.0
O106 O 0.52909 0.17887 0.62532 0.0
O107 O 0.61923 0.17166 0.62723 0.0
C108 C 0.59831 0.19443 0.54313 0.0
C109 C 0.57271 0.28287 0.65004 0.0
C110 C 0.50679 0.29471 0.57138 0.0
C111 C 0.65251 0.31194 0.58599 0.0
C112 C 0.50394 0.16891 0.61154 0.0
C113 C 0.65024 0.16481 0.61715 0.0
O114 O 0.56507 0.19303 0.55154 0.0
O115 O 0.27988 0.11922 0.80594 0.0
Zn116 Zn 0.26503 0.12455 0.83763 0.0
O117 O 0.26374 0.07357 0.85017 0.0
Zn118 Zn 0.21208 0.05619 0.85444 0.0
Zn119 Zn 0.28965 0.03792 0.83157 0.0
Zn120 Zn 0.28827 0.07437 0.8778 0.0
O121 O 0.20265 0.0405 0.8851 0.0
O122 O 0.24814 0.07493 0.90112 0.0
O123 O 0.21278 0.15094 0.84149 0.0
O124 O 0.17735 0.10075 0.85105 0.0
O125 O 0.19671 0.01468 0.83336 0.0
O126 O 0.25199 0.00383 0.81681 0.0
O127 O 0.32533 0.00331 0.84792 0.0
O128 O 0.30823 0.15531 0.85174 0.0
O129 O 0.32007 0.02742 0.88116 0.0
O130 O 0.32393 0.1192 0.87991 0.0
C131 C 0.30388 0.09583 0.79759 0.0
C132 C 0.21641 0.05681 0.90187 0.0
C133 C 0.21646 0.99716 0.81908 0.0
C134 C 0.18056 0.13628 0.84686 0.0
C135 C 0.33335 0.00257 0.86802 0.0
C136 C 0.32922 0.14877 0.86825 0.0
O137 O 0.31511 0.0661 0.80767 0.0
O138 O 0.37774 0.78236 0.05684 0.0
Zn139 Zn 0.37394 0.77149 0.08899 0.0
O140 O 0.4261 0.76871 0.10069 0.0
Zn141 Zn 0.43882 0.71575 0.10642 0.0
Zn142 Zn 0.46355 0.78908 0.08046 0.0
Zn143 Zn 0.42908 0.79821 0.12721 0.0
O144 O 0.4473 0.70768 0.13793 0.0
O145 O 0.43416 0.76392 0.15321 0.0
O146 O 0.34562 0.72022 0.09249 0.0
O147 O 0.39485 0.68186 0.09915 0.0
O148 O 0.48439 0.69694 0.08973 0.0
O149 O 0.50227 0.74948 0.07242 0.0
O150 O 0.4938 0.83349 0.09242 0.0
O151 O 0.34469 0.81602 0.10311 0.0
O152 O 0.47364 0.83397 0.12654 0.0
O153 O 0.38356 0.83233 0.13008 0.0
C154 C 0.4047 0.79557 0.04505 0.0
C155 C 0.44285 0.72857 0.15467 0.0
C156 C 0.50698 0.71431 0.07693 0.0
C157 C 0.35949 0.6867 0.0952 0.0
C158 C 0.4954 0.8466 0.11165 0.0
C159 C 0.35292 0.83734 0.11935 0.0
O160 O 0.43791 0.80211 0.0527 0.0
O161 O 0.75919 0.88563 0.38695 0.0
Zn162 Zn 0.73923 0.87057 0.35751 0.0
O163 O 0.7433 0.91375 0.3378 0.0
Zn164 Zn 0.69298 0.92928 0.32792 0.0
Zn165 Zn 0.76794 0.95629 0.35246 0.0
Zn166 Zn 0.77466 0.8998 0.31319 0.0
O167 O 0.69224 0.93176 0.29522 0.0
O168 O 0.74371 0.89797 0.28594 0.0
O169 O 0.6843 0.85145 0.3598 0.0
O170 O 0.65358 0.89073 0.33752 0.0
O171 O 0.67715 0.98007 0.34134 0.0
O172 O 0.72956 0.99612 0.35959 0.0
O173 O 0.80719 0.98214 0.334 0.0
O174 O 0.77535 0.82801 0.34828 0.0
O175 O 0.81371 0.94029 0.30719 0.0
O176 O 0.80279 0.85088 0.31855 0.0
C177 C 0.78265 0.91171 0.39281 0.0
C178 C 0.71318 0.9157 0.28087 0.0
C179 C 0.69527 0.00278 0.35391 0.0
C180 C 0.65362 0.86235 0.35046 0.0
C181 C 0.82285 0.97166 0.31637 0.0
C182 C 0.79998 0.82524 0.33308 0.0
O183 O 0.79157 0.93921 0.38028 0.0
H184 H 0.94178 0.24099 0.19107 0.0
H185 H 0.90644 0.20303 0.21753 0.0
H186 H 0.94906 0.0991 0.1882 0.0
H187 H 0.9841 0.13668 0.16146 0.0
H188 H 0.87414 0.09236 0.20359 0.0
H189 H 0.99855 0.14 0.22843 0.0
H190 H 0.04314 0.19398 0.23428 0.0
H191 H 0.96287 0.24679 0.27776 0.0
H192 H 0.91753 0.19337 0.27189 0.0
H193 H 0.87178 0.95546 0.28323 0.0
H194 H 0.89989 0.00139 0.25811 0.0
H195 H 0.85637 0.09489 0.29681 0.0
H196 H 0.8288 0.0491 0.32235 0.0
H197 H 0.92553 0.11257 0.27782 0.0
H198 H 0.80363 0.06335 0.25661 0.0
H199 H 0.75601 0.0125 0.24962 0.0
H200 H 0.82698 0.96637 0.1991 0.0
H201 H 0.87543 0.01644 0.20607 0.0
C202 C 0.94296 0.21004 0.18991 0.0
C203 C 0.9664 0.19182 0.17447 0.0
C204 C 0.92275 0.18845 0.20505 0.0
C205 C 0.92597 0.14842 0.20504 0.0
C206 C 0.9465 0.13004 0.18849 0.0
C207 C 0.96658 0.15159 0.17327 0.0
C208 C 0.91201 0.12589 0.22359 0.0
C209 C 0.88544 0.09658 0.2198 0.0
C210 C 0.92617 0.13229 0.2448 0.0
C211 C 0.95452 0.16291 0.24955 0.0
C212 C 0.99043 0.16313 0.23924 0.0
C213 C 0.01577 0.19367 0.2425 0.0
C214 C 0.00566 0.22397 0.2562 0.0
C215 C 0.97052 0.22343 0.26702 0.0
C216 C 0.94501 0.193 0.26376 0.0
C217 C 0.86905 0.98578 0.28672 0.0
C218 C 0.8475 0.99871 0.30451 0.0
C219 C 0.88503 0.01196 0.27234 0.0
C220 C 0.87917 0.05139 0.27534 0.0
C221 C 0.86085 0.06451 0.29416 0.0
C222 C 0.84516 0.03829 0.30873 0.0
C223 C 0.8884 0.07826 0.25769 0.0
C224 C 0.91395 0.10849 0.26167 0.0
C225 C 0.87292 0.07301 0.23667 0.0
C226 C 0.84336 0.04345 0.23202 0.0
C227 C 0.80922 0.0422 0.24411 0.0
C228 C 0.78212 0.01349 0.24019 0.0
C229 C 0.78863 0.98613 0.22403 0.0
C230 C 0.8221 0.98753 0.21167 0.0
C231 C 0.84938 0.01607 0.2156 0.0
H232 H 0.76764 0.96399 0.22099 0.0
H233 H 0.02513 0.2478 0.25851 0.0
H234 H 0.36811 0.54955 0.44986 0.0
H235 H 0.40331 0.50696 0.474 0.0
H236 H 0.35805 0.40862 0.44 0.0
H237 H 0.32307 0.45098 0.41556 0.0
H238 H 0.343 0.41089 0.48537 0.0
H239 H 0.44743 0.42138 0.43599 0.0
H240 H 0.49444 0.45423 0.41274 0.0
H241 H 0.54119 0.5119 0.46834 0.0
H242 H 0.49405 0.47982 0.4919 0.0
H243 H 0.4527 0.27135 0.54231 0.0
H244 H 0.41905 0.31133 0.51624 0.0
H245 H 0.46939 0.41256 0.54481 0.0
H246 H 0.50339 0.37287 0.57094 0.0
H247 H 0.48215 0.40677 0.50095 0.0
H248 H 0.37655 0.39795 0.55018 0.0
H249 H 0.32928 0.36556 0.57347 0.0
H250 H 0.28443 0.30526 0.51826 0.0
H251 H 0.33183 0.3369 0.49466 0.0
C252 C 0.36633 0.51888 0.44724 0.0
C253 C 0.34266 0.5035 0.431 0.0
C254 C 0.38651 0.49466 0.46096 0.0
C255 C 0.38299 0.45484 0.45872 0.0
C256 C 0.36096 0.43938 0.44187 0.0
C257 C 0.3412 0.46359 0.42791 0.0
C258 C 0.39906 0.42968 0.47541 0.0
C259 C 0.37348 0.40932 0.48858 0.0
C260 C 0.43865 0.42887 0.47981 0.0
C261 C 0.46691 0.44847 0.46569 0.0
C262 C 0.46746 0.44137 0.44324 0.0
C263 C 0.4942 0.45978 0.43001 0.0
C264 C 0.52072 0.48521 0.43905 0.0
C265 C 0.52059 0.49223 0.46135 0.0
C266 C 0.49389 0.47391 0.47466 0.0
C267 C 0.45605 0.30217 0.54335 0.0
C268 C 0.48103 0.31895 0.55851 0.0
C269 C 0.43672 0.32494 0.52847 0.0
C270 C 0.44201 0.36475 0.52862 0.0
C271 C 0.4652 0.38179 0.54447 0.0
C272 C 0.48441 0.35907 0.55942 0.0
C273 C 0.42605 0.38817 0.51106 0.0
C274 C 0.45167 0.4082 0.49771 0.0
C275 C 0.38647 0.38873 0.50652 0.0
C276 C 0.35804 0.36949 0.52068 0.0
C277 C 0.35687 0.37749 0.54303 0.0
C278 C 0.32999 0.35934 0.55628 0.0
C279 C 0.30394 0.33329 0.54736 0.0
C280 C 0.30467 0.32541 0.52515 0.0
C281 C 0.33152 0.34347 0.51183 0.0
H282 H 0.28313 0.31928 0.55765 0.0
H283 H 0.54142 0.49942 0.42878 0.0
H284 H 0.0306 0.85016 0.66007 0.0
H285 H 0.07474 0.88451 0.68394 0.0
H286 H 0.07828 0.78685 0.7266 0.0
H287 H 0.03542 0.75192 0.70245 0.0
H288 H 0.06179 0.90694 0.72289 0.0
H289 H 0.15946 0.78532 0.75562 0.0
H290 H 0.18926 0.72558 0.74241 0.0
H291 H 0.18592 0.76774 0.67719 0.0
H292 H 0.15663 0.82794 0.69003 0.0
H293 H 0.14324 0.96901 0.82081 0.0
H294 H 0.1114 0.92842 0.79389 0.0
H295 H 0.21506 0.92499 0.75589 0.0
H296 H 0.24734 0.9645 0.78289 0.0
H297 H 0.18188 0.85739 0.75507 0.0
H298 H 0.14315 0.98712 0.74319 0.0
H299 H 0.11718 0.05037 0.75336 0.0
H300 H 0.01008 0.99824 0.77063 0.0
H301 H 0.0356 0.93457 0.76082 0.0
C302 C 0.0414 0.83577 0.67432 0.0
C303 C 0.02951 0.79839 0.67941 0.0
C304 C 0.06651 0.85545 0.68797 0.0
C305 C 0.0799 0.83824 0.70702 0.0
C306 C 0.06895 0.80048 0.71179 0.0
C307 C 0.04431 0.78058 0.69798 0.0
C308 C 0.10274 0.86077 0.72276 0.0
C309 C 0.08815 0.89613 0.72982 0.0
C310 C 0.13736 0.84692 0.73164 0.0
C311 C 0.15554 0.81102 0.72379 0.0
C312 C 0.16527 0.78193 0.73847 0.0
C313 C 0.18204 0.74797 0.73105 0.0
C314 C 0.18938 0.74283 0.70897 0.0
C315 C 0.1801 0.7717 0.69428 0.0
C316 C 0.16337 0.80573 0.70162 0.0
C317 C 0.15934 0.9593 0.80683 0.0
C318 C 0.1977 0.97025 0.8039 0.0
C319 C 0.1411 0.93621 0.79144 0.0
C320 C 0.16074 0.92424 0.77274 0.0
C321 C 0.19939 0.93393 0.7702 0.0
C322 C 0.21774 0.95665 0.78564 0.0
C323 C 0.14058 0.90318 0.7553 0.0
C324 C 0.15559 0.86813 0.74801 0.0
C325 C 0.10695 0.91781 0.7457 0.0
C326 C 0.09139 0.95607 0.75146 0.0
C327 C 0.11414 0.98913 0.74929 0.0
C328 C 0.09949 0.02505 0.75497 0.0
C329 C 0.06203 0.02831 0.76269 0.0
C330 C 0.0391 0.99566 0.76468 0.0
C331 C 0.05363 0.95965 0.75904 0.0
H332 H 0.05075 0.05614 0.76708 0.0
H333 H 0.20232 0.7165 0.70325 0.0
H334 H 0.51267 0.63659 0.07224 0.0
H335 H 0.55316 0.60222 0.0465 0.0
H336 H 0.60859 0.70834 0.02904 0.0
H337 H 0.56761 0.74304 0.05439 0.0
H338 H 0.58144 0.67502 -0.00534 0.0
H339 H 0.65722 0.63501 0.05412 0.0
H340 H 0.67365 0.60737 0.08958 0.0
H341 H 0.62875 0.49836 0.06935 0.0
H342 H 0.61139 0.52548 0.03389 0.0
H343 H 0.73025 0.57028 0.93359 0.0
H344 H 0.69735 0.61027 0.96049 0.0
H345 H 0.60136 0.53252 0.95981 0.0
H346 H 0.63349 0.49295 0.9324 0.0
H347 H 0.65254 0.55312 0.0029 0.0
H348 H 0.57233 0.59876 0.94379 0.0
H349 H 0.56024 0.62862 0.90834 0.0
H350 H 0.61999 0.73007 0.92886 0.0
H351 H 0.63306 0.70048 0.96432 0.0
C352 C 0.53415 0.65248 0.06334 0.0
C353 C 0.53656 0.69259 0.06507 0.0
C354 C 0.5574 0.63275 0.04867 0.0
C355 C 0.58378 0.65276 0.03579 0.0
C356 C 0.5882 0.69241 0.03872 0.0
C357 C 0.56477 0.71218 0.05321 0.0
C358 C 0.60287 0.63336 0.01739 0.0
C359 C 0.59754 0.64869 -0.00342 0.0
C360 C 0.62325 0.59863 0.01981 0.0
C361 C 0.63255 0.58247 0.04139 0.0
C362 C 0.65034 0.60528 0.05732 0.0
C363 C 0.65994 0.58966 0.07741 0.0
C364 C 0.65212 0.55117 0.08175 0.0
C365 C 0.63468 0.52821 0.066 0.0
C366 C 0.62496 0.5437 0.04589 0.0
C367 C 0.70173 0.56226 0.9388 0.0
C368 C 0.68436 0.52857 0.93101 0.0
C369 C 0.68305 0.58508 0.95408 0.0
C370 C 0.64711 0.57416 0.96196 0.0
C371 C 0.62905 0.54135 0.95367 0.0
C372 C 0.64733 0.51895 0.93802 0.0
C373 C 0.63044 0.59464 0.98052 0.0
C374 C 0.63646 0.57953 0.00123 0.0
C375 C 0.61116 0.62978 0.9781 0.0
C376 C 0.60429 0.64711 0.95656 0.0
C377 C 0.5835 0.62714 0.94061 0.0
C378 C 0.5763 0.6441 0.92055 0.0
C379 C 0.58951 0.68114 0.9163 0.0
C380 C 0.60992 0.70132 0.93213 0.0
C381 C 0.61724 0.68446 0.95221 0.0
H382 H 0.58379 0.69427 0.90079 0.0
H383 H 0.65969 0.53911 0.09728 0.0
H384 H 0.16132 0.31695 0.21137 0.0
H385 H 0.17216 0.33905 0.24857 0.0
H386 H 0.05071 0.3355 0.26088 0.0
H387 H 0.03953 0.31377 0.22368 0.0
H388 H 0.1419 0.40743 0.26513 0.0
H389 H 0.04226 0.31213 0.31711 0.0
H390 H 0.0167 0.24618 0.31778 0.0
H391 H 0.11307 0.20675 0.28077 0.0
H392 H 0.13949 0.27229 0.28014 0.0
H393 H 0.11572 0.49481 0.3653 0.0
H394 H 0.09048 0.45029 0.33804 0.0
H395 H 0.18881 0.37748 0.34645 0.0
H396 H 0.21478 0.42242 0.3732 0.0
H397 H 0.10742 0.34088 0.33342 0.0
H398 H 0.21156 0.43206 0.3139 0.0
H399 H 0.23834 0.49754 0.31571 0.0
H400 H 0.13548 0.54238 0.28758 0.0
H401 H 0.10789 0.47718 0.28598 0.0
C402 C 0.13696 0.32056 0.22205 0.0
C403 C 0.09957 0.31409 0.21455 0.0
C404 C 0.14319 0.33315 0.24326 0.0
C405 C 0.11223 0.33875 0.25741 0.0
C406 C 0.07496 0.33108 0.25022 0.0
C407 C 0.06865 0.31901 0.22892 0.0
C408 C 0.11872 0.35575 0.27905 0.0
C409 C 0.13439 0.39273 0.28 0.0
C410 C 0.10853 0.33673 0.29846 0.0
C411 C 0.09266 0.29725 0.29842 0.0
C412 C 0.05804 0.28937 0.30915 0.0
C413 C 0.04346 0.25204 0.30958 0.0
C414 C 0.06334 0.22228 0.29941 0.0
C415 C 0.09773 0.22982 0.28867 0.0
C416 C 0.11246 0.2671 0.28822 0.0
C417 C 0.13107 0.46845 0.36204 0.0
C418 C 0.16737 0.46215 0.37106 0.0
C419 C 0.11658 0.44304 0.34653 0.0
C420 C 0.13794 0.41082 0.34028 0.0
C421 C 0.17187 0.40208 0.35124 0.0
C422 C 0.18677 0.42787 0.36638 0.0
C423 C 0.13034 0.39224 0.31924 0.0
C424 C 0.11455 0.35534 0.31843 0.0
C425 C 0.14048 0.41106 0.29985 0.0
C426 C 0.15759 0.44993 0.29999 0.0
C427 C 0.19463 0.45595 0.3082 0.0
C428 C 0.20995 0.49296 0.30919 0.0
C429 C 0.18858 0.52409 0.30181 0.0
C430 C 0.15196 0.51823 0.29332 0.0
C431 C 0.13648 0.48128 0.29236 0.0
H432 H 0.20039 0.55272 0.30265 0.0
H433 H 0.05196 0.19341 0.29972 0.0
H434 H 0.04313 0.62258 0.63862 0.0
H435 H 0.09285 0.58687 0.6189 0.0
H436 H 0.02982 0.60221 0.5594 0.0
H437 H 0.9801 0.63543 0.5788 0.0
H438 H 0.0615 0.53746 0.55754 0.0
H439 H 0.1053 0.66817 0.58019 0.0
H440 H 0.12341 0.71475 0.60865 0.0
H441 H 0.20544 0.63509 0.6339 0.0
H442 H 0.18756 0.58801 0.60564 0.0
H443 H 0.19785 0.64019 0.48253 0.0
H444 H 0.17219 0.63359 0.51921 0.0
H445 H 0.17437 0.51032 0.5124 0.0
H446 H 0.19711 0.5172 0.47508 0.0
H447 H 0.18604 0.60577 0.5565 0.0
H448 H 0.09886 0.47123 0.53677 0.0
H449 H 0.07336 0.4355 0.50529 0.0
H450 H 0.06692 0.53992 0.46889 0.0
H451 H 0.092 0.57622 0.50023 0.0
C452 C 0.03962 0.61744 0.62141 0.0
C453 C 0.00799 0.63246 0.61021 0.0
C454 C 0.0681 0.59719 0.61016 0.0
C455 C 0.06547 0.59235 0.58758 0.0
C456 C 0.03266 0.60531 0.57681 0.0
C457 C 0.00423 0.62481 0.58796 0.0
C458 C 0.09771 0.57799 0.57416 0.0
C459 C 0.08916 0.55168 0.5576 0.0
C460 C 0.13392 0.59622 0.57427 0.0
C461 C 0.14487 0.62456 0.59103 0.0
C462 C 0.12713 0.66065 0.59187 0.0
C463 C 0.13733 0.68709 0.60795 0.0
C464 C 0.16548 0.67784 0.62312 0.0
C465 C 0.18358 0.64218 0.62218 0.0
C466 C 0.17344 0.61562 0.60615 0.0
C467 C 0.19309 0.61177 0.48902 0.0
C468 C 0.1984 0.57924 0.47601 0.0
C469 C 0.17879 0.60792 0.51003 0.0
C470 C 0.17052 0.57141 0.51846 0.0
C471 C 0.17944 0.53878 0.50607 0.0
C472 C 0.19239 0.5427 0.4848 0.0
C473 C 0.14805 0.56828 0.53881 0.0
C474 C 0.15903 0.59038 0.55684 0.0
C475 C 0.11303 0.54775 0.53954 0.0
C476 C 0.09783 0.52623 0.52068 0.0
C477 C 0.09198 0.48648 0.52203 0.0
C478 C 0.07759 0.46617 0.50423 0.0
C479 C 0.0687 0.4854 0.48507 0.0
C480 C 0.07397 0.52503 0.4837 0.0
C481 C 0.08827 0.54548 0.50147 0.0
H482 H 0.05762 0.46961 0.4713 0.0
H483 H 0.17332 0.69833 0.63556 0.0
H484 H 0.82699 0.5708 0.88728 0.0
H485 H 0.84768 0.62299 0.86358 0.0
H486 H 0.91877 0.54414 0.82779 0.0
H487 H 0.89724 0.49174 0.85094 0.0
H488 H 0.9427 0.6307 0.8295 0.0
H489 H 0.83954 0.5374 0.80865 0.0
H490 H 0.78102 0.50203 0.81878 0.0
H491 H 0.72612 0.60785 0.83615 0.0
H492 H 0.78459 0.64373 0.82624 0.0
H493 H 0.9449 0.64416 0.71724 0.0
H494 H 0.9405 0.62674 0.75527 0.0
H495 H 0.84144 0.69927 0.76276 0.0
H496 H 0.84509 0.71629 0.72437 0.0
H497 H 0.82946 0.6327 0.78093 0.0
H498 H 0.92849 0.72496 0.78521 0.0
H499 H 0.98825 0.75778 0.77486 0.0
H500 H 0.05259 0.65658 0.78976 0.0
H501 H 0.99317 0.62288 0.79986 0.0
C502 C 0.8486 0.56507 0.8751 0.0
C503 C 0.86026 0.52737 0.87065 0.0
C504 C 0.86041 0.5949 0.86161 0.0
C505 C 0.88447 0.58718 0.84392 0.0
C506 C 0.90038 0.55058 0.84147 0.0
C507 C 0.88794 0.52066 0.85461 0.0
C508 C 0.88438 0.61275 0.82501 0.0
C509 C 0.918 0.6317 0.8189 0.0
C510 C 0.85179 0.61433 0.81152 0.0
C511 C 0.81632 0.59312 0.81684 0.0
C512 C 0.81495 0.55304 0.81466 0.0
C513 C 0.78185 0.53292 0.82037 0.0
C514 C 0.74987 0.55267 0.82815 0.0
C515 C 0.75091 0.59259 0.83014 0.0
C516 C 0.784 0.61284 0.82446 0.0
C517 C 0.92216 0.6565 0.72693 0.0
C518 C 0.89532 0.68161 0.71776 0.0
C519 C 0.91995 0.64683 0.74876 0.0
C520 C 0.89123 0.66247 0.76199 0.0
C521 C 0.86408 0.68721 0.75287 0.0
C522 C 0.86609 0.69672 0.73092 0.0
C523 C 0.88822 0.6505 0.78491 0.0
C524 C 0.85392 0.6335 0.79174 0.0
C525 C 0.92024 0.65108 0.79902 0.0
C526 C 0.95626 0.67132 0.79323 0.0
C527 C 0.95535 0.7096 0.78617 0.0
C528 C 0.98918 0.72838 0.78035 0.0
C529 C 0.02419 0.70927 0.78163 0.0
C530 C 0.02544 0.67136 0.78879 0.0
C531 C 0.99169 0.65242 0.7946 0.0
H532 H 0.05034 0.72385 0.7771 0.0
H533 H 0.72427 0.53704 0.83259 0.0
H534 H 0.92745 0.34192 0.1388 0.0
H535 H 0.8704 0.35911 0.11791 0.0
H536 H 0.94212 0.40766 0.06822 0.0
H537 H 0.999 0.39061 0.0888 0.0
H538 H 0.84381 0.43327 0.08565 0.0
H539 H 0.93028 0.33284 0.03214 0.0
H540 H 0.97623 0.27962 0.03561 0.0
H541 H 0.92223 0.24464 0.09485 0.0
H542 H 0.87538 0.29708 0.09141 0.0
H543 H 0.82328 0.45735 0.97541 0.0
H544 H 0.83714 0.44911 0.0136 0.0
H545 H 0.78533 0.33677 0.01196 0.0
H546 H 0.77186 0.34451 0.9733 0.0
H547 H 0.85269 0.33286 0.02862 0.0
H548 H 0.74596 0.40941 0.04376 0.0
H549 H 0.70007 0.46268 0.04064 0.0
H550 H 0.78768 0.54284 0.05892 0.0
H551 H 0.8343 0.49021 0.06187 0.0
C552 C 0.93096 0.35796 0.12394 0.0
C553 C 0.96759 0.36424 0.11514 0.0
C554 C 0.89833 0.3678 0.11207 0.0
C555 C 0.90231 0.38413 0.09149 0.0
C556 C 0.93865 0.395 0.08411 0.0
C557 C 0.97111 0.38504 0.09582 0.0
C558 C 0.87131 0.3812 0.07543 0.0
C559 C 0.84496 0.41113 0.07329 0.0
C560 C 0.87235 0.35149 0.05981 0.0
C561 C 0.89958 0.31906 0.06161 0.0
C562 C 0.92808 0.31362 0.04582 0.0
C563 C 0.9543 0.28362 0.0478 0.0
C564 C 0.95226 0.25885 0.06549 0.0
C565 C 0.92386 0.26391 0.08119 0.0
C566 C 0.89747 0.29376 0.07923 0.0
C567 C 0.81445 0.43095 0.98313 0.0
C568 C 0.79688 0.40136 0.97119 0.0
C569 C 0.82189 0.42654 0.00513 0.0
C570 C 0.81164 0.39262 0.01579 0.0
C571 C 0.79316 0.36335 0.00409 0.0
C572 C 0.78576 0.3677 0.98197 0.0
C573 C 0.82571 0.38594 0.03808 0.0
C574 C 0.84962 0.35426 0.0413 0.0
C575 C 0.82158 0.41367 0.05479 0.0
C576 C 0.79374 0.44571 0.05299 0.0
C577 C 0.75556 0.43841 0.04698 0.0
C578 C 0.72938 0.46851 0.04526 0.0
C579 C 0.74096 0.50612 0.04956 0.0
C580 C 0.77874 0.51368 0.05562 0.0
C581 C 0.80505 0.48369 0.05737 0.0
H582 H 0.72067 0.52939 0.04819 0.0
H583 H 0.97257 0.23564 0.067 0.0
H584 H 0.66053 0.20214 0.51624 0.0
H585 H 0.66658 0.1791 0.47883 0.0
H586 H 0.55245 0.13216 0.48191 0.0
H587 H 0.54615 0.1547 0.51911 0.0
H588 H 0.60357 0.08097 0.46698 0.0
H589 H 0.56811 0.20972 0.45213 0.0
H590 H 0.57131 0.28017 0.4547 0.0
H591 H 0.68494 0.27867 0.42819 0.0
H592 H 0.68267 0.20812 0.42577 0.0
H593 H 0.61853 0.01081 0.36179 0.0
H594 H 0.58987 0.05472 0.38828 0.0
H595 H 0.6991 0.11055 0.39683 0.0
H596 H 0.72765 0.06734 0.37034 0.0
H597 H 0.63972 0.16048 0.40369 0.0
H598 H 0.67776 0.03134 0.42444 0.0
H599 H 0.67495 0.96074 0.42286 0.0
H600 H 0.55583 0.96382 0.43999 0.0
H601 H 0.5577 0.03433 0.44095 0.0
C602 C 0.63676 0.18691 0.50895 0.0
C603 C 0.60296 0.18012 0.5207 0.0
C604 C 0.64009 0.17412 0.48752 0.0
C605 C 0.60974 0.15436 0.47758 0.0
C606 C 0.57608 0.14756 0.48928 0.0
C607 C 0.57264 0.16042 0.51057 0.0
C608 C 0.61403 0.13824 0.45553 0.0
C609 C 0.61063 0.09847 0.45304 0.0
C610 C 0.62375 0.16111 0.43747 0.0
C611 C 0.62533 0.20356 0.43895 0.0
C612 C 0.59393 0.22436 0.44703 0.0
C613 C 0.59555 0.26433 0.44842 0.0
C614 C 0.62834 0.28388 0.44165 0.0
C615 C 0.65956 0.26348 0.43344 0.0
C616 C 0.65811 0.2235 0.43204 0.0
C617 C 0.63601 0.03343 0.36868 0.0
C618 C 0.67548 0.03515 0.36444 0.0
C619 C 0.61965 0.05841 0.38384 0.0
C620 C 0.64265 0.08521 0.39486 0.0
C621 C 0.68093 0.08991 0.38863 0.0
C622 C 0.69726 0.06498 0.37359 0.0
C623 C 0.62957 0.10322 0.41527 0.0
C624 C 0.63167 0.14321 0.41754 0.0
C625 C 0.61872 0.08059 0.43325 0.0
C626 C 0.61769 0.03811 0.4324 0.0
C627 C 0.65086 0.01694 0.42756 0.0
C628 C 0.64944 0.9769 0.42677 0.0
C629 C 0.61516 0.95773 0.43115 0.0
C630 C 0.58229 0.97857 0.43638 0.0
C631 C 0.58348 0.01858 0.437 0.0
H632 H 0.61412 0.92673 0.43059 0.0
H633 H 0.62953 0.31482 0.44273 0.0
H634 H 0.27525 0.14361 0.76627 0.0
H635 H 0.29869 0.15062 0.72894 0.0
H636 H 0.38753 0.06809 0.74164 0.0
H637 H 0.36465 0.06089 0.7786 0.0
H638 H 0.41355 0.13606 0.7237 0.0
H639 H 0.31406 0.0415 0.71292 0.0
H640 H 0.24781 0.01729 0.71461 0.0
H641 H 0.2105 0.10915 0.67371 0.0
H642 H 0.27649 0.13428 0.67206 0.0
H643 H 0.50528 0.10083 0.63206 0.0
H644 H 0.45628 0.07867 0.65731 0.0
H645 H 0.38101 0.16888 0.63617 0.0
H646 H 0.42948 0.18996 0.61006 0.0
H647 H 0.34253 0.10117 0.65675 0.0
H648 H 0.44025 0.19825 0.66996 0.0
H649 H 0.50658 0.22164 0.66696 0.0
H650 H 0.54622 0.12523 0.70365 0.0
H651 H 0.47998 0.101 0.70657 0.0
C652 C 0.29985 0.12711 0.76108 0.0
C653 C 0.31821 0.10182 0.77538 0.0
C654 C 0.31292 0.13088 0.73976 0.0
C655 C 0.34456 0.1096 0.73262 0.0
C656 C 0.36294 0.0846 0.7469 0.0
C657 C 0.34983 0.08061 0.76802 0.0
C658 C 0.36044 0.1146 0.7107 0.0
C659 C 0.39801 0.12823 0.70912 0.0
C660 C 0.33975 0.10525 0.69168 0.0
C661 C 0.30013 0.09006 0.69259 0.0
C662 C 0.29167 0.05677 0.70447 0.0
C663 C 0.25418 0.04283 0.70538 0.0
C664 C 0.22493 0.06174 0.69434 0.0
C665 C 0.23316 0.09457 0.6823 0.0
C666 C 0.27061 0.10867 0.68136 0.0
C667 C 0.47739 0.11436 0.63189 0.0
C668 C 0.471 0.1472 0.61945 0.0
C669 C 0.4494 0.1017 0.64625 0.0
C670 C 0.41555 0.12281 0.6489 0.0
C671 C 0.407 0.15229 0.63432 0.0
C672 C 0.43472 0.16438 0.61949 0.0
C673 C 0.39583 0.1215 0.67001 0.0
C674 C 0.35773 0.10911 0.67141 0.0
C675 C 0.41577 0.13221 0.68904 0.0
C676 C 0.45529 0.14772 0.68834 0.0
C677 C 0.46314 0.18205 0.67737 0.0
C678 C 0.50072 0.19543 0.67567 0.0
C679 C 0.53067 0.17487 0.68506 0.0
C680 C 0.52301 0.14109 0.69636 0.0
C681 C 0.48544 0.12755 0.69807 0.0
H682 H 0.5598 0.18512 0.6836 0.0
H683 H 0.19593 0.0509 0.69506 0.0
H684 H 0.34104 0.77782 0.02094 0.0
H685 H 0.33074 0.79063 0.98241 0.0
H686 H 0.44309 0.84168 0.97828 0.0
H687 H 0.4539 0.82832 0.0163 0.0
H688 H 0.32599 0.85729 0.96526 0.0
H689 H 0.48113 0.83795 0.9295 0.0
H690 H 0.53396 0.79149 0.93205 0.0
H691 H 0.4552 0.70428 0.9525 0.0
H692 H 0.40173 0.74996 0.94974 0.0
H693 H 0.37833 0.00264 0.90367 0.0
H694 H 0.39565 0.94664 0.92494 0.0
H695 H 0.35109 0.87235 0.87497 0.0
H696 H 0.334 0.92858 0.85329 0.0
H697 H 0.42306 0.84683 0.90672 0.0
H698 H 0.28792 0.87976 0.90242 0.0
H699 H 0.23641 0.92764 0.89908 0.0
H700 H 0.27331 0.98174 0.95808 0.0
H701 H 0.32548 0.93454 0.96156 0.0
C702 C 0.36367 0.79143 0.01173 0.0
C703 C 0.39814 0.80238 0.02174 0.0
C704 C 0.35785 0.79843 0.9897 0.0
C705 C 0.38641 0.81645 0.97734 0.0
C706 C 0.42105 0.8267 0.98726 0.0
C707 C 0.42696 0.81955 0.00916 0.0
C708 C 0.37841 0.82993 0.9551 0.0
C709 C 0.34665 0.85387 0.95226 0.0
C710 C 0.40516 0.82531 0.93798 0.0
C711 C 0.43731 0.79754 0.93945 0.0
C712 C 0.47495 0.8088 0.93437 0.0
C713 C 0.50506 0.78259 0.9359 0.0
C714 C 0.49795 0.74497 0.94245 0.0
C715 C 0.46069 0.73346 0.94747 0.0
C716 C 0.43047 0.75953 0.94596 0.0
C717 C 0.37364 0.97438 0.8968 0.0
C718 C 0.35421 0.96982 0.87709 0.0
C719 C 0.38376 0.94245 0.90889 0.0
C720 C 0.37416 0.90562 0.90155 0.0
C721 C 0.35883 0.90067 0.88076 0.0
C722 C 0.349 0.93279 0.86847 0.0
C723 C 0.37182 0.87481 0.91769 0.0
C724 C 0.40165 0.84829 0.91942 0.0
C725 C 0.34295 0.87626 0.9337 0.0
C726 C 0.31063 0.9037 0.9322 0.0
C727 C 0.2851 0.90194 0.91464 0.0
C728 C 0.25582 0.92897 0.91271 0.0
C729 C 0.25161 0.95773 0.92835 0.0
C730 C 0.2766 0.95943 0.94599 0.0
C731 C 0.30598 0.93251 0.94796 0.0
H732 H 0.22895 0.97865 0.92683 0.0
H733 H 0.5213 0.72475 0.94364 0.0
H734 H 0.56781 0.85058 0.0953 0.0
H735 H 0.62279 0.87966 0.11372 0.0
H736 H 0.5469 0.93137 0.16055 0.0
H737 H 0.49212 0.90205 0.14247 0.0
H738 H 0.61879 0.9732 0.15353 0.0
H739 H 0.56704 0.84338 0.17025 0.0
H740 H 0.54876 0.77845 0.158 0.0
H741 H 0.66182 0.76103 0.13248 0.0
H742 H 0.68051 0.82614 0.14437 0.0
H743 H 0.65309 0.95488 0.26338 0.0
H744 H 0.6341 0.95742 0.22549 0.0
H745 H 0.73034 0.88641 0.20795 0.0
H746 H 0.74926 0.88315 0.24597 0.0
H747 H 0.66853 0.85845 0.19145 0.0
H748 H 0.72505 0.98116 0.1883 0.0
H749 H 0.74223 0.04654 0.20024 0.0
H750 H 0.62376 0.07876 0.19948 0.0
H751 H 0.60584 0.01357 0.18762 0.0
C752 C 0.56278 0.8696 0.10892 0.0
C753 C 0.52597 0.87348 0.11783 0.0
C754 C 0.59418 0.88626 0.11937 0.0
C755 C 0.5888 0.90716 0.13861 0.0
C756 C 0.55158 0.91536 0.1457 0.0
C757 C 0.52034 0.8983 0.13549 0.0
C758 C 0.62029 0.9116 0.15431 0.0
C759 C 0.63029 0.9483 0.1617 0.0
C760 C 0.63584 0.87899 0.16456 0.0
C761 C 0.62503 0.83957 0.158 0.0
C762 C 0.58792 0.82568 0.16198 0.0
C763 C 0.57748 0.7889 0.15509 0.0
C764 C 0.6041 0.76565 0.14442 0.0
C765 C 0.64123 0.7791 0.14071 0.0
C766 C 0.65176 0.81592 0.14751 0.0
C767 C 0.67044 0.94002 0.25148 0.0
C768 C 0.70244 0.91846 0.25776 0.0
C769 C 0.65987 0.94198 0.22973 0.0
C770 C 0.68121 0.92269 0.21379 0.0
C771 C 0.71362 0.90175 0.21995 0.0
C772 C 0.72425 0.89977 0.24172 0.0
C773 C 0.6664 0.92027 0.19134 0.0
C774 C 0.65903 0.88369 0.18279 0.0
C775 C 0.65369 0.95307 0.18001 0.0
C776 C 0.66412 0.99238 0.18719 0.0
C777 C 0.70265 0.00211 0.19085 0.0
C778 C 0.71252 0.03914 0.19756 0.0
C779 C 0.6841 0.06671 0.20071 0.0
C780 C 0.64574 0.05736 0.19704 0.0
C781 C 0.63573 0.02041 0.19024 0.0
H782 H 0.6918 0.09535 0.20594 0.0
H783 H 0.59597 0.7372 0.13907 0.0
H784 H 0.1396 0.0425 0.90485 0.0
H785 H 0.09632 0.06767 0.93253 0.0
H786 H 0.19311 0.10768 0.96961 0.0
H787 H 0.23661 0.08323 0.94191 0.0
H788 H 0.08226 0.0639 0.97607 0.0
H789 H 0.18141 0.19946 0.98015 0.0
H790 H 0.22384 0.23453 0.95512 0.0
H791 H 0.1607 0.19075 0.90071 0.0
H792 H 0.1176 0.1559 0.92539 0.0
H793 H 0.06915 0.15271 0.07485 0.0
H794 H 0.07901 0.12108 0.0404 0.0
H795 H 0.05256 0.22636 0.00698 0.0
H796 H 0.04587 0.25917 0.04199 0.0
H797 H 0.10919 0.2017 0.98946 0.0
H798 H 0.9947 0.1386 0.00327 0.0
H799 H 0.94364 0.10492 0.02315 0.0
H800 H 0.01832 0.00913 0.03335 0.0
H801 H 0.07007 0.04241 0.01383 0.0
C802 C 0.15179 0.05564 0.91921 0.0
C803 C 0.19154 0.06166 0.92101 0.0
C804 C 0.12692 0.07003 0.93498 0.0
C805 C 0.14157 0.0904 0.95272 0.0
C806 C 0.18132 0.09274 0.9557 0.0
C807 C 0.20615 0.07864 0.93992 0.0
C808 C 0.11598 0.11283 0.96697 0.0
C809 C 0.08776 0.09406 0.97905 0.0
C810 C 0.12131 0.15274 0.96951 0.0
C811 C 0.14645 0.17483 0.95466 0.0
C812 C 0.17641 0.19754 0.96287 0.0
C813 C 0.20065 0.2173 0.94873 0.0
C814 C 0.19512 0.21467 0.92635 0.0
C815 C 0.16514 0.19254 0.91804 0.0
C816 C 0.1408 0.17279 0.9321 0.0
C817 C 0.06468 0.16903 0.06017 0.0
C818 C 0.05677 0.20842 0.06107 0.0
C819 C 0.06988 0.15071 0.04035 0.0
C820 C 0.06579 0.17092 0.02087 0.0
C821 C 0.05591 0.21 0.02172 0.0
C822 C 0.05197 0.22875 0.04169 0.0
C823 C 0.07705 0.15224 0.00012 0.0
C824 C 0.10259 0.17178 0.98645 0.0
C825 C 0.06741 0.11357 -0.00467 0.0
C826 C 0.03636 0.09312 0.00707 0.0
C827 C 0.00034 0.11044 0.00984 0.0
C828 C 0.97125 0.09139 0.02105 0.0
C829 C 0.97773 0.05491 0.02951 0.0
C830 C 0.01332 0.03737 0.02675 0.0
C831 C 0.04253 0.05629 0.01556 0.0
H832 H 0.95517 0.04022 0.03819 0.0
H833 H 0.21394 0.22996 0.91544 0.0
H834 H 0.45177 0.76174 0.19467 0.0
H835 H 0.43838 0.73187 0.2297 0.0
H836 H 0.41554 0.62434 0.1972 0.0
H837 H 0.43124 0.65315 0.16275 0.0
H838 H 0.37469 0.71067 0.24139 0.0
H839 H 0.41569 0.54884 0.22775 0.0
H840 H 0.47047 0.51177 0.21379 0.0
H841 H 0.54522 0.60728 0.22581 0.0
H842 H 0.49104 0.64477 0.24015 0.0
H843 H 0.24602 0.60807 0.30273 0.0
H844 H 0.28453 0.62681 0.27146 0.0
H845 H 0.38567 0.58294 0.30295 0.0
H846 H 0.34696 0.56183 0.33331 0.0
H847 H 0.39775 0.5767 0.2643 0.0
H848 H 0.35091 0.68152 0.30657 0.0
H849 H 0.30443 0.72442 0.32417 0.0
H850 H 0.25492 0.75076 0.26245 0.0
H851 H 0.30117 0.70799 0.24436 0.0
C852 C 0.44511 0.73143 0.19519 0.0
C853 C 0.44222 0.70986 0.17601 0.0
C854 C 0.4374 0.71438 0.21516 0.0
C855 C 0.42592 0.67577 0.21618 0.0
C856 C 0.42525 0.65382 0.19708 0.0
C857 C 0.43391 0.67052 0.17726 0.0
C858 C 0.40875 0.65999 0.23624 0.0
C859 C 0.38021 0.68155 0.24659 0.0
C860 C 0.41637 0.62229 0.24341 0.0
C861 C 0.44917 0.59972 0.23492 0.0
C862 C 0.44384 0.56188 0.22755 0.0
C863 C 0.4748 0.5408 0.21953 0.0
C864 C 0.51128 0.55718 0.21887 0.0
C865 C 0.51692 0.59466 0.22627 0.0
C866 C 0.48607 0.61587 0.2343 0.0
C867 C 0.2763 0.60154 0.30263 0.0
C868 C 0.29364 0.58398 0.32049 0.0
C869 C 0.2984 0.61268 0.28491 0.0
C870 C 0.33836 0.60815 0.28532 0.0
C871 C 0.35509 0.58766 0.30238 0.0
C872 C 0.33286 0.57543 0.31975 0.0
C873 C 0.36292 0.62703 0.26891 0.0
C874 C 0.39275 0.60601 0.2593 0.0
C875 C 0.35776 0.66596 0.26314 0.0
C876 C 0.3296 0.69142 0.27408 0.0
C877 C 0.33021 0.69642 0.29671 0.0
C878 C 0.30383 0.7207 0.3068 0.0
C879 C 0.27671 0.74024 0.29447 0.0
C880 C 0.27595 0.73561 0.27199 0.0
C881 C 0.3023 0.7114 0.2618 0.0
H882 H 0.2563 0.75901 0.30234 0.0
H883 H 0.5352 0.54081 0.21265 0.0
H884 H 0.84524 0.9517 0.40718 0.0
H885 H 0.88353 0.9384 0.43943 0.0
H886 H 0.80348 0.85018 0.45804 0.0
H887 H 0.76554 0.86265 0.42574 0.0
H888 H 0.87422 0.93862 0.48209 0.0
H889 H 0.85209 0.77145 0.47465 0.0
H890 H 0.84296 0.72418 0.44531 0.0
H891 H 0.89311 0.80222 0.39973 0.0
H892 H 0.90435 0.84904 0.4289 0.0
H893 H 0.88525 0.84751 0.58139 0.0
H894 H 0.87524 0.87783 0.54632 0.0
H895 H 0.96089 0.80382 0.51791 0.0
H896 H 0.9678 0.77097 0.55274 0.0
H897 H 0.9076 0.80206 0.49342 0.0
H898 H 0.96987 0.90773 0.5234 0.0
H899 H 0.98875 0.95831 0.54925 0.0
H900 H 0.87675 0.00804 0.54509 0.0
H901 H 0.8568 0.95725 0.51964 0.0
C902 C 0.83551 0.9298 0.41829 0.0
C903 C 0.80264 0.9078 0.41375 0.0
C904 C 0.85743 0.9223 0.4367 0.0
C905 C 0.84677 0.89276 0.45081 0.0
C906 C 0.81266 0.87252 0.44704 0.0
C907 C 0.79093 0.87977 0.42861 0.0
C908 C 0.87188 0.88149 0.46896 0.0
C909 C 0.88177 0.90886 0.48467 0.0
C910 C 0.8838 0.84307 0.47148 0.0
C911 C 0.87865 0.81404 0.454 0.0
C912 C 0.86165 0.77835 0.45843 0.0
C913 C 0.85619 0.75154 0.44181 0.0
C914 C 0.86744 0.76013 0.42066 0.0
C915 C 0.88455 0.79541 0.41612 0.0
C916 C 0.89057 0.82207 0.43271 0.0
C917 C 0.90232 0.83836 0.56767 0.0
C918 C 0.92717 0.80716 0.56951 0.0
C919 C 0.89704 0.85599 0.54768 0.0
C920 C 0.91785 0.84381 0.52941 0.0
C921 C 0.94442 0.81381 0.53168 0.0
C922 C 0.94852 0.79514 0.55152 0.0
C923 C 0.90777 0.85873 0.50763 0.0
C924 C 0.90086 0.83205 0.49098 0.0
C925 C 0.9003 0.89812 0.50389 0.0
C926 C 0.9118 0.92849 0.51958 0.0
C927 C 0.94911 0.92922 0.52813 0.0
C928 C 0.96003 0.95798 0.54271 0.0
C929 C 0.934 0.98642 0.54876 0.0
C930 C 0.89695 0.9861 0.54029 0.0
C931 C 0.8858 0.95728 0.52581 0.0
H932 H 0.94251 0.00867 0.56005 0.0
H933 H 0.86294 0.73943 0.40782 0.0
H934 H 0.55499 0.25716 0.6908 0.0
H935 H 0.56409 0.29154 0.72507 0.0
H936 H 0.60903 0.3886 0.68994 0.0
H937 H 0.59733 0.35563 0.65598 0.0
H938 H 0.62286 0.31021 0.74356 0.0
H939 H 0.60642 0.47029 0.71463 0.0
H940 H 0.5623 0.5078 0.69196 0.0
H941 H 0.47471 0.42283 0.70076 0.0
H942 H 0.51808 0.38502 0.72373 0.0
H943 H 0.75132 0.41782 0.79908 0.0
H944 H 0.71286 0.3985 0.76794 0.0
H945 H 0.61201 0.44547 0.79828 0.0
H946 H 0.65024 0.4655 0.8294 0.0
H947 H 0.60874 0.45065 0.75389 0.0
H948 H 0.62787 0.35788 0.80737 0.0
H949 H 0.66405 0.32001 0.83397 0.0
H950 H 0.72808 0.26719 0.78256 0.0
H951 H 0.69307 0.30558 0.75563 0.0
C952 C 0.56592 0.28616 0.69048 0.0
C953 C 0.57523 0.30379 0.67076 0.0
C954 C 0.57119 0.30581 0.71004 0.0
C955 C 0.5867 0.34304 0.7102 0.0
C956 C 0.59566 0.3606 0.6904 0.0
C957 C 0.58934 0.34148 0.67091 0.0
C958 C 0.59791 0.36203 0.73082 0.0
C959 C 0.61921 0.34081 0.74586 0.0
C960 C 0.59206 0.40177 0.73448 0.0
C961 C 0.56563 0.42471 0.72087 0.0
C962 C 0.57766 0.45971 0.71188 0.0
C963 C 0.5528 0.481 0.69893 0.0
C964 C 0.51574 0.46769 0.6949 0.0
C965 C 0.50345 0.43307 0.70385 0.0
C966 C 0.52819 0.41166 0.71681 0.0
C967 C 0.72122 0.42513 0.79888 0.0
C968 C 0.70364 0.44218 0.81697 0.0
C969 C 0.69927 0.414 0.7811 0.0
C970 C 0.65951 0.4196 0.78122 0.0
C971 C 0.64261 0.44057 0.79807 0.0
C972 C 0.66458 0.45188 0.81585 0.0
C973 C 0.63545 0.39911 0.76532 0.0
C974 C 0.6116 0.41997 0.75152 0.0
C975 C 0.63729 0.35876 0.76338 0.0
C976 C 0.65807 0.33495 0.77946 0.0
C977 C 0.64998 0.33854 0.80172 0.0
C978 C 0.67032 0.31702 0.81688 0.0
C979 C 0.69846 0.29135 0.80997 0.0
C980 C 0.70631 0.28715 0.78788 0.0
C981 C 0.68624 0.30882 0.77266 0.0
H982 H 0.71405 0.27457 0.82172 0.0
H983 H 0.49655 0.4842 0.68486 0.0
H984 H 0.2122 0.17714 0.1575 0.0
H985 H 0.25017 0.11784 0.1567 0.0
H986 H 0.15731 0.0592 0.12453 0.0
H987 H 0.11939 0.11713 0.12571 0.0
H988 H 0.18396 0.01494 0.15427 0.0
H989 H 0.23908 0.09125 0.09733 0.0
H990 H 0.27033 0.1481 0.08156 0.0
H991 H 0.36626 0.13347 0.12413 0.0
H992 H 0.33531 0.07677 0.14035 0.0
H993 H 0.2813 0.85604 0.10394 0.0
H994 H 0.24553 0.91541 0.11084 0.0
H995 H 0.33551 0.95532 0.15303 0.0
H996 H 0.37099 0.89634 0.14662 0.0
H997 H 0.31312 0.00919 0.12109 0.0
H998 H 0.25766 0.92855 0.17573 0.0
H999 H 0.22555 0.87064 0.18959 0.0
H1000 H 0.12873 0.89261 0.14875 0.0
H1001 H 0.16052 0.95039 0.1344 0.0
C1002 C 0.19997 0.15156 0.1503 0.0
C1003 C 0.16268 0.15203 0.14176 0.0
C1004 C 0.2217 0.1177 0.14978 0.0
C1005 C 0.20667 0.08396 0.14046 0.0
C1006 C 0.16953 0.08461 0.13196 0.0
C1007 C 0.14786 0.11803 0.13262 0.0
C1008 C 0.22908 0.04771 0.13925 0.0
C1009 C 0.21208 0.01374 0.14685 0.0
C1010 C 0.26607 0.046 0.12992 0.0
C1011 C 0.28468 0.08008 0.12024 0.0
C1012 C 0.26669 0.10036 0.10345 0.0
C1013 C 0.28437 0.13251 0.09441 0.0
C1014 C 0.3202 0.14447 0.10189 0.0
C1015 C 0.33847 0.12422 0.11839 0.0
C1016 C 0.32088 0.09208 0.12751 0.0
C1017 C 0.29323 0.87724 0.11489 0.0
C1018 C 0.32901 0.87127 0.12473 0.0
C1019 C 0.27279 0.91114 0.1188 0.0
C1020 C 0.28799 0.93977 0.13241 0.0
C1021 C 0.32335 0.93366 0.14244 0.0
C1022 C 0.34347 0.89971 0.13881 0.0
C1023 C 0.26763 0.97663 0.13576 0.0
C1024 C 0.28508 0.01059 0.12861 0.0
C1025 C 0.23085 0.97829 0.14522 0.0
C1026 C 0.21165 0.94358 0.15383 0.0
C1027 C 0.22968 0.92084 0.16955 0.0
C1028 C 0.2115 0.88808 0.17753 0.0
C1029 C 0.17517 0.8779 0.17001 0.0
C1030 C 0.1569 0.90051 0.15453 0.0
C1031 C 0.17497 0.93328 0.14649 0.0
H1032 H 0.16114 0.85253 0.17622 0.0
H1033 H 0.33385 0.16935 0.09486 0.0
H1034 H 0.3123 0.71665 0.36203 0.0
H1035 H 0.37138 0.75164 0.35408 0.0
H1036 H 0.41837 0.71564 0.4153 0.0
H1037 H 0.35942 0.68122 0.42342 0.0
H1038 H 0.43851 0.78533 0.40886 0.0
H1039 H 0.44097 0.67155 0.36578 0.0
H1040 H 0.42683 0.62221 0.3382 0.0
H1041 H 0.43197 0.70715 0.28819 0.0
H1042 H 0.44524 0.75723 0.31549 0.0
H1043 H 0.63696 0.81301 0.38374 0.0
H1044 H 0.57504 0.78339 0.39209 0.0
H1045 H 0.5252 0.83785 0.33629 0.0
H1046 H 0.58669 0.86765 0.32787 0.0
H1047 H 0.50671 0.76049 0.33975 0.0
H1048 H 0.50735 0.87349 0.38474 0.0
H1049 H 0.53472 0.91694 0.41216 0.0
H1050 H 0.53096 0.82696 0.45939 0.0
H1051 H 0.50409 0.78269 0.43205 0.0
C1052 C 0.33499 0.71666 0.37391 0.0
C1053 C 0.33107 0.69585 0.39327 0.0
C1054 C 0.36896 0.73639 0.36927 0.0
C1055 C 0.3998 0.73565 0.38387 0.0
C1056 C 0.39517 0.71655 0.40369 0.0
C1057 C 0.36126 0.69691 0.40834 0.0
C1058 C 0.43703 0.75432 0.37856 0.0
C1059 C 0.45346 0.77952 0.39379 0.0
C1060 C 0.45661 0.74735 0.35878 0.0
C1061 C 0.44379 0.71824 0.34275 0.0
C1062 C 0.43823 0.6799 0.34898 0.0
C1063 C 0.43063 0.65175 0.33337 0.0
C1064 C 0.42895 0.66155 0.31147 0.0
C1065 C 0.43361 0.69963 0.30516 0.0
C1066 C 0.44097 0.72792 0.3207 0.0
C1067 C 0.61288 0.81854 0.37319 0.0
C1068 C 0.61682 0.84276 0.35515 0.0
C1069 C 0.57746 0.80178 0.37806 0.0
C1070 C 0.54544 0.80873 0.36491 0.0
C1071 C 0.5495 0.83222 0.34668 0.0
C1072 C 0.5847 0.84927 0.34193 0.0
C1073 C 0.50772 0.79123 0.36994 0.0
C1074 C 0.49133 0.76636 0.35468 0.0
C1075 C 0.48851 0.79799 0.38975 0.0
C1076 C 0.50405 0.8247 0.4063 0.0
C1077 C 0.51261 0.86288 0.40093 0.0
C1078 C 0.52801 0.88768 0.41648 0.0
C1079 C 0.53469 0.87472 0.43753 0.0
C1080 C 0.52582 0.83695 0.44307 0.0
C1081 C 0.51048 0.812 0.42756 0.0
H1082 H 0.54666 0.89391 0.44956 0.0
H1083 H 0.42423 0.63965 0.29936 0.0
H1084 H 0.62088 0.09817 0.63178 0.0
H1085 H 0.65464 0.03961 0.64086 0.0
H1086 H 0.76243 0.09486 0.62666 0.0
H1087 H 0.72803 0.15313 0.61594 0.0
H1088 H 0.76626 0.02845 0.61189 0.0
H1089 H 0.72693 0.07414 0.6811 0.0
H1090 H 0.68255 0.09908 0.70883 0.0
H1091 H 0.61614 0.99565 0.70486 0.0
H1092 H 0.65983 0.97027 0.67688 0.0
H1093 H 0.87808 0.88792 0.66155 0.0
H1094 H 0.84191 0.94719 0.65888 0.0
H1095 H 0.73802 0.8827 0.64908 0.0
H1096 H 0.7743 0.8225 0.65163 0.0
H1097 H 0.73348 0.95339 0.67751 0.0
H1098 H 0.77625 0.91203 0.60549 0.0
H1099 H 0.82644 0.88917 0.58051 0.0
H1100 H 0.89399 0.98924 0.59436 0.0
H1101 H 0.84406 0.01272 0.61938 0.0
C1102 C 0.65184 0.09795 0.63072 0.0
C1103 C 0.67193 0.1303 0.62336 0.0
C1104 C 0.67119 0.06445 0.63611 0.0
C1105 C 0.71129 0.06289 0.63512 0.0
C1106 C 0.7315 0.09529 0.62771 0.0
C1107 C 0.71193 0.12861 0.62164 0.0
C1108 C 0.73171 0.02687 0.64087 0.0
C1109 C 0.75933 0.01255 0.62644 0.0
C1110 C 0.72264 0.00547 0.65974 0.0
C1111 C 0.69651 0.02044 0.67675 0.0
C1112 C 0.70274 0.0568 0.68605 0.0
C1113 C 0.67772 0.071 0.70182 0.0
C1114 C 0.64649 0.049 0.70857 0.0
C1115 C 0.64031 0.01268 0.69961 0.0
C1116 C 0.66523 0.99834 0.68381 0.0
C1117 C 0.84743 0.8861 0.65915 0.0
C1118 C 0.82914 0.85039 0.65648 0.0
C1119 C 0.82683 0.92011 0.65766 0.0
C1120 C 0.78749 0.91927 0.65347 0.0
C1121 C 0.76847 0.88381 0.65227 0.0
C1122 C 0.78919 0.8495 0.65375 0.0
C1123 C 0.76738 0.95548 0.64848 0.0
C1124 C 0.74006 0.96966 0.66304 0.0
C1125 C 0.77736 0.97733 0.63007 0.0
C1126 C 0.8066 0.96395 0.61439 0.0
C1127 C 0.80184 0.9291 0.60321 0.0
C1128 C 0.83024 0.91605 0.58904 0.0
C1129 C 0.86353 0.93761 0.58597 0.0
C1130 C 0.86823 0.97253 0.5968 0.0
C1131 C 0.83984 0.9858 0.6109 0.0
H1132 H 0.88569 0.92731 0.5752 0.0
H1133 H 0.62713 0.06007 0.72076 0.0
H1134 H 0.38409 0.1381 0.89913 0.0
H1135 H 0.44441 0.1721 0.90326 0.0
H1136 H 0.41285 0.24873 0.85163 0.0
H1137 H 0.35254 0.21386 0.84687 0.0
H1138 H 0.48307 0.22514 0.84568 0.0
H1139 H 0.41528 0.27724 0.90627 0.0
H1140 H 0.37675 0.27603 0.93974 0.0
H1141 H 0.4656 0.21369 0.9721 0.0
H1142 H 0.50447 0.21407 0.93872 0.0
H1143 H 0.62232 0.36812 0.86473 0.0
H1144 H 0.56475 0.32962 0.86075 0.0
H1145 H 0.60829 0.2485 0.90708 0.0
H1146 H 0.66677 0.28735 0.91122 0.0
H1147 H 0.53392 0.272 0.91598 0.0
H1148 H 0.60207 0.22196 0.85457 0.0
H1149 H 0.63939 0.2243 0.82066 0.0
H1150 H 0.54901 0.28678 0.78982 0.0
H1151 H 0.51109 0.28484 0.82356 0.0
C1152 C 0.38955 0.16252 0.88882 0.0
C1153 C 0.36327 0.17319 0.87265 0.0
C1154 C 0.42419 0.18209 0.89126 0.0
C1155 C 0.43322 0.21326 0.8779 0.0
C1156 C 0.4066 0.22473 0.86214 0.0
C1157 C 0.37198 0.20491 0.85953 0.0
C1158 C 0.47117 0.23254 0.8797 0.0
C1159 C 0.49389 0.23588 0.86101 0.0
C1160 C 0.48593 0.24562 0.8998 0.0
C1161 C 0.46263 0.24536 0.91992 0.0
C1162 C 0.42648 0.263 0.92047 0.0
C1163 C 0.4046 0.26252 0.93943 0.0
C1164 C 0.41867 0.24471 0.95802 0.0
C1165 C 0.45471 0.22743 0.95768 0.0
C1166 C 0.47669 0.2278 0.93875 0.0
C1167 C 0.61992 0.34198 0.87404 0.0
C1168 C 0.64906 0.33095 0.88846 0.0
C1169 C 0.58701 0.31981 0.87158 0.0
C1170 C 0.58226 0.28606 0.8835 0.0
C1171 C 0.61149 0.27444 0.89768 0.0
C1172 C 0.64487 0.29654 0.89998 0.0
C1173 C 0.54559 0.26463 0.88198 0.0
C1174 C 0.52309 0.26101 0.9007 0.0
C1175 C 0.53087 0.25167 0.86188 0.0
C1176 C 0.55381 0.25339 0.84164 0.0
C1177 C 0.59023 0.23639 0.8406 0.0
C1178 C 0.6114 0.23748 0.82138 0.0
C1179 C 0.5965 0.25554 0.80308 0.0
C1180 C 0.56042 0.27265 0.80398 0.0
C1181 C 0.53903 0.27145 0.82313 0.0
H1182 H 0.61296 0.25639 0.78823 0.0
H1183 H 0.40169 0.24437 0.97269 0.0
H1184 H 0.83087 0.63729 0.58201 0.0
H1185 H 0.7994 0.57672 0.57333 0.0
H1186 H 0.75964 0.568 0.63932 0.0
H1187 H 0.79052 0.62914 0.64805 0.0
H1188 H 0.81478 0.50813 0.5882 0.0
H1189 H 0.67776 0.51489 0.64085 0.0
H1190 H 0.63186 0.56277 0.65469 0.0
H1191 H 0.65856 0.63708 0.60148 0.0
H1192 H 0.70421 0.58944 0.58717 0.0
H1193 H 0.72518 0.3226 0.60182 0.0
H1194 H 0.75872 0.38443 0.60491 0.0
H1195 H 0.66963 0.43829 0.56751 0.0
H1196 H 0.63591 0.37722 0.56494 0.0
H1197 H 0.67925 0.47587 0.6035 0.0
H1198 H 0.76193 0.42684 0.54788 0.0
H1199 H 0.80596 0.38063 0.53073 0.0
H1200 H 0.88459 0.39392 0.58365 0.0
H1201 H 0.84077 0.43986 0.60127 0.0
C1202 C 0.81483 0.62289 0.59461 0.0
C1203 C 0.81323 0.63813 0.61575 0.0
C1204 C 0.79708 0.58807 0.58965 0.0
C1205 C 0.77729 0.56762 0.60566 0.0
C1206 C 0.77442 0.58339 0.6266 0.0
C1207 C 0.79199 0.61846 0.63157 0.0
C1208 C 0.761 0.52919 0.60056 0.0
C1209 C 0.78511 0.50108 0.59154 0.0
C1210 C 0.72226 0.51998 0.6047 0.0
C1211 C 0.69472 0.54876 0.61309 0.0
C1212 C 0.67375 0.54141 0.63208 0.0
C1213 C 0.64779 0.56851 0.64 0.0
C1214 C 0.64241 0.603 0.62901 0.0
C1215 C 0.66288 0.61042 0.61003 0.0
C1216 C 0.68884 0.5834 0.60202 0.0
C1217 C 0.71357 0.34745 0.59369 0.0
C1218 C 0.67803 0.34527 0.58316 0.0
C1219 C 0.73258 0.3828 0.59554 0.0
C1220 C 0.7165 0.41616 0.5866 0.0
C1221 C 0.68239 0.41314 0.57476 0.0
C1222 C 0.6633 0.37817 0.57315 0.0
C1223 C 0.73294 0.45478 0.59104 0.0
C1224 C 0.70893 0.48287 0.60013 0.0
C1225 C 0.77152 0.46414 0.58653 0.0
C1226 C 0.79788 0.43648 0.576 0.0
C1227 C 0.78846 0.41966 0.55596 0.0
C1228 C 0.81341 0.39357 0.54613 0.0
C1229 C 0.848 0.38426 0.55613 0.0
C1230 C 0.85776 0.40111 0.57594 0.0
C1231 C 0.83289 0.4272 0.58585 0.0
H1232 H 0.86729 0.36406 0.54849 0.0
H1233 H 0.62231 0.62395 0.63518 0.0
H1234 H 0.16627 0.20891 0.83111 0.0
H1235 H 0.10713 0.24624 0.8354 0.0
H1236 H 0.05854 0.15565 0.8741 0.0
H1237 H 0.11647 0.11825 0.8695 0.0
H1238 H 0.00814 0.1775 0.84595 0.0
H1239 H 0.09021 0.24196 0.89702 0.0
H1240 H 0.14765 0.27683 0.90946 0.0
H1241 H 0.12619 0.36573 0.86323 0.0
H1242 H 0.06852 0.33148 0.85052 0.0
H1243 H 0.85162 0.28152 0.8942 0.0
H1244 H 0.91088 0.24514 0.88838 0.0
H1245 H 0.9484 0.32872 0.84169 0.0
H1246 H 0.88959 0.36483 0.8471 0.0
H1247 H 0.00405 0.31147 0.87299 0.0
H1248 H 0.91917 0.24636 0.82363 0.0
H1249 H 0.86053 0.21155 0.81316 0.0
H1250 H 0.88732 0.12229 0.85832 0.0
H1251 H 0.94588 0.15687 0.86929 0.0
C1252 C 0.14296 0.1971 0.84054 0.0
C1253 C 0.14597 0.16041 0.84969 0.0
C1254 C 0.10924 0.21848 0.84308 0.0
C1255 C 0.07828 0.20377 0.8551 0.0
C1256 C 0.08173 0.16751 0.86457 0.0
C1257 C 0.11502 0.14611 0.86188 0.0
C1258 C 0.04175 0.22528 0.85752 0.0
C1259 C 0.00731 0.20666 0.85211 0.0
C1260 C 0.04048 0.26354 0.8652 0.0
C1261 C 0.0753 0.28398 0.87266 0.0
C1262 C 0.09791 0.2688 0.88939 0.0
C1263 C 0.13046 0.28847 0.89652 0.0
C1264 C 0.14071 0.32331 0.88705 0.0
C1265 C 0.11828 0.33869 0.87051 0.0
C1266 C 0.0856 0.31923 0.86338 0.0
C1267 C 0.8723 0.29191 0.88253 0.0
C1268 C 0.8657 0.32609 0.87112 0.0
C1269 C 0.90614 0.27113 0.87923 0.0
C1270 C 0.93405 0.28435 0.86463 0.0
C1271 C 0.92733 0.31812 0.85308 0.0
C1272 C 0.89347 0.33859 0.85614 0.0
C1273 C 0.97069 0.26351 0.8616 0.0
C1274 C 0.00504 0.28231 0.86684 0.0
C1275 C 0.97186 0.22526 0.85402 0.0
C1276 C 0.93669 0.20442 0.84745 0.0
C1277 C 0.91238 0.21949 0.83147 0.0
C1278 C 0.87919 0.19976 0.82542 0.0
C1279 C 0.87015 0.16478 0.83512 0.0
C1280 C 0.89433 0.14941 0.85085 0.0
C1281 C 0.92753 0.16906 0.85698 0.0
H1282 H 0.84445 0.14954 0.8304 0.0
H1283 H 0.16594 0.33846 0.89259 0.0
H1284 H 0.3825 0.61264 0.09133 0.0
H1285 H 0.34368 0.55487 0.09276 0.0
H1286 H 0.24167 0.62338 0.09909 0.0
H1287 H 0.28073 0.68209 0.09778 0.0
H1288 H 0.24435 0.56409 0.12876 0.0
H1289 H 0.25816 0.57876 0.05239 0.0
H1290 H 0.29277 0.58949 0.01811 0.0
H1291 H 0.35813 0.48709 0.02836 0.0
H1292 H 0.3243 0.47603 0.06287 0.0
H1293 H 0.14483 0.38263 0.08297 0.0
H1294 H 0.17903 0.44262 0.0771 0.0
H1295 H 0.24089 0.4264 0.13677 0.0
H1296 H 0.20629 0.36632 0.14299 0.0
H1297 H 0.25196 0.46288 0.07218 0.0
H1298 H 0.25157 0.51404 0.16141 0.0
H1299 H 0.21365 0.50477 0.19473 0.0
H1300 H 0.11415 0.4789 0.15658 0.0
H1301 H 0.15132 0.48854 0.12306 0.0
C1302 C 0.35177 0.61567 0.0929 0.0
C1303 C 0.33473 0.65212 0.09447 0.0
C1304 C 0.3296 0.58248 0.09363 0.0
C1305 C 0.28978 0.58477 0.09589 0.0
C1306 C 0.27241 0.62102 0.0973 0.0
C1307 C 0.2947 0.6545 0.09643 0.0
C1308 C 0.26691 0.54897 0.09741 0.0
C1309 C 0.24583 0.54204 0.11635 0.0
C1310 C 0.26858 0.52031 0.08112 0.0
C1311 C 0.28886 0.52672 0.0603 0.0
C1312 C 0.28011 0.55867 0.04742 0.0
C1313 C 0.29955 0.56479 0.02793 0.0
C1314 C 0.32768 0.53902 0.02108 0.0
C1315 C 0.33635 0.50703 0.03369 0.0
C1316 C 0.31701 0.5008 0.0532 0.0
C1317 C 0.16601 0.39149 0.09477 0.0
C1318 C 0.17256 0.36971 0.11356 0.0
C1319 C 0.1856 0.42585 0.09135 0.0
C1320 C 0.21204 0.43937 0.10666 0.0
C1321 C 0.2201 0.41684 0.12492 0.0
C1322 C 0.20052 0.38233 0.12836 0.0
C1323 C 0.23011 0.47761 0.10376 0.0
C1324 C 0.25033 0.48497 0.08457 0.0
C1325 C 0.22717 0.50684 0.11968 0.0
C1326 C 0.20436 0.50165 0.13974 0.0
C1327 C 0.22156 0.50654 0.16014 0.0
C1328 C 0.20021 0.50119 0.17906 0.0
C1329 C 0.16155 0.49113 0.17777 0.0
C1330 C 0.14413 0.48655 0.15756 0.0
C1331 C 0.16534 0.49192 0.13859 0.0
H1332 H 0.14509 0.48695 0.19243 0.0
H1333 H 0.34271 0.54381 0.00599 0.0
H1334 H 0.86517 0.81991 0.30883 0.0
H1335 H 0.92114 0.78114 0.31647 0.0
H1336 H 0.85993 0.72399 0.3678 0.0
H1337 H 0.80405 0.76416 0.3609 0.0
H1338 H 0.92365 0.74971 0.38251 0.0
H1339 H 0.89129 0.67678 0.31984 0.0
H1340 H 0.87307 0.66549 0.28177 0.0
H1341 H 0.9774 0.71849 0.26043 0.0
H1342 H 0.99604 0.73059 0.29837 0.0
H1343 H 0.08005 0.62533 0.40536 0.0
H1344 H 0.01852 0.6534 0.39581 0.0
H1345 H 0.07325 0.72093 0.34625 0.0
H1346 H 0.13505 0.69262 0.35551 0.0
H1347 H 0.01087 0.68507 0.33081 0.0
H1348 H 0.04166 0.76001 0.39377 0.0
H1349 H 0.05758 0.7746 0.43181 0.0
H1350 H 0.95377 0.72008 0.45274 0.0
H1351 H 0.93774 0.70418 0.41488 0.0
C1352 C 0.86313 0.79847 0.32143 0.0
C1353 C 0.83011 0.79546 0.33439 0.0
C1354 C 0.89528 0.77608 0.3257 0.0
C1355 C 0.89489 0.74951 0.34271 0.0
C1356 C 0.86104 0.7445 0.35469 0.0
C1357 C 0.82899 0.76733 0.35064 0.0
C1358 C 0.931 0.73065 0.34962 0.0
C1359 C 0.9423 0.73487 0.3713 0.0
C1360 C 0.95597 0.71221 0.33484 0.0
C1361 C 0.94493 0.70483 0.31198 0.0
C1362 C 0.91024 0.68628 0.30703 0.0
C1363 C 0.89985 0.67969 0.28547 0.0
C1364 C 0.92403 0.69133 0.26869 0.0
C1365 C 0.95869 0.7095 0.27344 0.0
C1366 C 0.96921 0.71618 0.29498 0.0
C1367 C 0.07919 0.64647 0.39256 0.0
C1368 C 0.1126 0.65663 0.38116 0.0
C1369 C 0.04391 0.66258 0.38718 0.0
C1370 C 0.04126 0.68936 0.37036 0.0
C1371 C 0.07463 0.70024 0.35926 0.0
C1372 C 0.10999 0.68418 0.36465 0.0
C1373 C 0.00347 0.70465 0.36369 0.0
C1374 C 0.99194 0.69969 0.34205 0.0
C1375 C 0.97818 0.72242 0.37856 0.0
C1376 C 0.9888 0.73036 0.40145 0.0
C1377 C 0.02256 0.7505 0.40649 0.0
C1378 C 0.03155 0.75911 0.42804 0.0
C1379 C 0.0068 0.74812 0.44469 0.0
C1380 C 0.97304 0.72841 0.43985 0.0
C1381 C 0.96404 0.71951 0.41834 0.0
H1382 H 0.01372 0.755 0.46135 0.0
H1383 H 0.91593 0.6862 0.252 0.0
loop_
_geom_bond_atom_site_label_1
_geom_bond_atom_site_label_2
_geom_bond_distance
_geom_bond_site_symmetry_2
_ccdc_geom_bond_type
O0 Zn1 1.953 . S
O0 C16 1.225 . S
Zn1 O0 1.953 . S
Zn1 O2 1.949 . S
Zn1 O8 1.919 . S
Zn1 O13 1.924 . S
O2 Zn1 1.949 . S
O2 Zn3 1.923 . S
O2 Zn4 1.950 . S
O2 Zn5 1.945 . S
Zn3 O2 1.923 . S
Zn3 O6 1.933 . S
Zn3 O9 1.941 . S
Zn3 O10 1.965 . S
Zn4 O2 1.950 . S
Zn4 O11 1.938 1_455 S
Zn4 O12 1.906 1_455 S
Zn4 O22 1.953 . S
Zn5 O2 1.945 . S
Zn5 O7 1.932 . S
Zn5 O14 1.977 . S
Zn5 O15 1.910 . S
O6 Zn3 1.933 . S
O6 C17 1.226 . S
O7 Zn5 1.932 . S
O7 C17 1.307 . S
O8 Zn1 1.919 . S
O8 C19 1.253 . S
O9 Zn3 1.941 . S
O9 C19 1.283 . S
O10 Zn3 1.965 . S
O10 C18 1.303 1_455 S
O11 Zn4 1.938 1_655 S
O11 C18 1.247 . S
O12 Zn4 1.906 1_655 S
O12 C20 1.304 . S
O13 Zn1 1.924 . S
O13 C21 1.311 . S
O14 Zn5 1.977 . S
O14 C20 1.272 1_455 S
O15 Zn5 1.910 . S
O15 C21 1.231 . S
C16 O0 1.225 . S
C16 O22 1.298 . S
C17 O6 1.226 . S
C17 O7 1.307 . S
C18 O10 1.303 1_655 S
C18 O11 1.247 . S
C19 O8 1.253 . S
C19 O9 1.283 . S
C20 O12 1.304 . S
C20 O14 1.272 1_655 S
C21 O13 1.311 . S
C21 O15 1.231 . S
O22 Zn4 1.953 . S
O22 C16 1.298 . S
O23 Zn24 1.953 . S
O23 C39 1.225 . S
Zn24 O23 1.953 . S
Zn24 O25 1.949 . S
Zn24 O31 1.919 . S
Zn24 O36 1.924 . S
O25 Zn24 1.949 . S
O25 Zn26 1.923 . S
O25 Zn27 1.950 . S
O25 Zn28 1.945 . S
Zn26 O25 1.923 . S
Zn26 O29 1.933 . S
Zn26 O32 1.941 . S
Zn26 O33 1.965 . S
Zn27 O25 1.950 . S
Zn27 O34 1.938 . S
Zn27 O35 1.906 . S
Zn27 O45 1.953 . S
Zn28 O25 1.945 . S
Zn28 O30 1.932 . S
Zn28 O37 1.977 . S
Zn28 O38 1.910 . S
O29 Zn26 1.933 . S
O29 C40 1.226 . S
O30 Zn28 1.932 . S
O30 C40 1.307 . S
O31 Zn24 1.919 . S
O31 C42 1.253 . S
O32 Zn26 1.941 . S
O32 C42 1.283 . S
O33 Zn26 1.965 . S
O33 C41 1.303 . S
O34 Zn27 1.938 . S
O34 C41 1.247 . S
O35 Zn27 1.906 . S
O35 C43 1.304 . S
O36 Zn24 1.924 . S
O36 C44 1.311 . S
O37 Zn28 1.977 . S
O37 C43 1.272 . S
O38 Zn28 1.910 . S
O38 C44 1.231 . S
C39 O23 1.225 . S
C39 O45 1.298 . S
C40 O29 1.226 . S
C40 O30 1.307 . S
C41 O33 1.303 . S
C41 O34 1.247 . S
C42 O31 1.253 . S
C42 O32 1.283 . S
C43 O35 1.304 . S
C43 O37 1.272 . S
C44 O36 1.311 . S
C44 O38 1.231 . S
O45 Zn27 1.953 . S
O45 C39 1.298 . S
O46 Zn47 1.953 . S
O46 C62 1.225 . S
Zn47 O46 1.953 . S
Zn47 O48 1.949 . S
Zn47 O54 1.919 . S
Zn47 O59 1.924 . S
O48 Zn47 1.949 . S
O48 Zn49 1.923 . S
O48 Zn50 1.950 . S
O48 Zn51 1.945 . S
Zn49 O48 1.923 . S
Zn49 O52 1.933 . S
Zn49 O55 1.941 . S
Zn49 O56 1.965 . S
Zn50 O48 1.950 . S
Zn50 O57 1.938 1_655 S
Zn50 O58 1.906 1_655 S
Zn50 O68 1.953 . S
Zn51 O48 1.945 . S
Zn51 O53 1.932 . S
Zn51 O60 1.977 . S
Zn51 O61 1.910 . S
O52 Zn49 1.933 . S
O52 C63 1.226 . S
O53 Zn51 1.932 . S
O53 C63 1.307 . S
O54 Zn47 1.919 . S
O54 C65 1.253 . S
O55 Zn49 1.941 . S
O55 C65 1.283 . S
O56 Zn49 1.965 . S
O56 C64 1.303 1_655 S
O57 Zn50 1.938 1_455 S
O57 C64 1.247 . S
O58 Zn50 1.906 1_455 S
O58 C66 1.304 . S
O59 Zn47 1.924 . S
O59 C67 1.311 . S
O60 Zn51 1.977 . S
O60 C66 1.272 1_655 S
O61 Zn51 1.910 . S
O61 C67 1.231 . S
C62 O46 1.225 . S
C62 O68 1.298 . S
C63 O52 1.226 . S
C63 O53 1.307 . S
C64 O56 1.303 1_455 S
C64 O57 1.247 . S
C65 O54 1.253 . S
C65 O55 1.283 . S
C66 O58 1.304 . S
C66 O60 1.272 1_455 S
C67 O59 1.311 . S
C67 O61 1.231 . S
O68 Zn50 1.953 . S
O68 C62 1.298 . S
O69 Zn70 1.953 . S
O69 C85 1.225 . S
Zn70 O69 1.953 . S
Zn70 O71 1.949 . S
Zn70 O77 1.919 . S
Zn70 O82 1.924 . S
O71 Zn70 1.949 . S
O71 Zn72 1.923 . S
O71 Zn73 1.950 . S
O71 Zn74 1.945 . S
Zn72 O71 1.923 . S
Zn72 O75 1.933 . S
Zn72 O78 1.941 . S
Zn72 O79 1.965 . S
Zn73 O71 1.950 . S
Zn73 O80 1.938 . S
Zn73 O81 1.906 . S
Zn73 O91 1.953 . S
Zn74 O71 1.945 . S
Zn74 O76 1.932 . S
Zn74 O83 1.977 . S
Zn74 O84 1.910 . S
O75 Zn72 1.933 . S
O75 C86 1.226 . S
O76 Zn74 1.932 . S
O76 C86 1.307 . S
O77 Zn70 1.919 . S
O77 C88 1.253 . S
O78 Zn72 1.941 . S
O78 C88 1.283 . S
O79 Zn72 1.965 . S
O79 C87 1.303 . S
O80 Zn73 1.938 . S
O80 C87 1.247 . S
O81 Zn73 1.906 . S
O81 C89 1.304 . S
O82 Zn70 1.924 . S
O82 C90 1.311 . S
O83 Zn74 1.977 . S
O83 C89 1.272 . S
O84 Zn74 1.910 . S
O84 C90 1.231 . S
C85 O69 1.225 . S
C85 O91 1.298 . S
C86 O75 1.226 . S
C86 O76 1.307 . S
C87 O79 1.303 . S
C87 O80 1.247 . S
C88 O77 1.253 . S
C88 O78 1.283 . S
C89 O81 1.304 . S
C89 O83 1.272 . S
C90 O82 1.311 . S
C90 O84 1.231 . S
O91 Zn73 1.953 . S
O91 C85 1.298 . S
O92 Zn93 1.953 . S
O92 C108 1.225 . S
Zn93 O92 1.953 . S
Zn93 O94 1.949 . S
Zn93 O100 1.919 . S
Zn93 O105 1.924 . S
O94 Zn93 1.949 . S
O94 Zn95 1.923 . S
O94 Zn96 1.950 . S
O94 Zn97 1.945 . S
Zn95 O94 1.923 . S
Zn95 O98 1.933 . S
Zn95 O101 1.941 . S
Zn95 O102 1.965 . S
Zn96 O94 1.950 . S
Zn96 O103 1.938 . S
Zn96 O104 1.906 . S
Zn96 O114 1.953 . S
Zn97 O94 1.945 . S
Zn97 O99 1.932 . S
Zn97 O106 1.977 . S
Zn97 O107 1.910 . S
O98 Zn95 1.933 . S
O98 C109 1.226 . S
O99 Zn97 1.932 . S
O99 C109 1.307 . S
O100 Zn93 1.919 . S
O100 C111 1.253 . S
O101 Zn95 1.941 . S
O101 C111 1.283 . S
O102 Zn95 1.965 . S
O102 C110 1.303 . S
O103 Zn96 1.938 . S
O103 C110 1.247 . S
O104 Zn96 1.906 . S
O104 C112 1.304 . S
O105 Zn93 1.924 . S
O105 C113 1.311 . S
O106 Zn97 1.977 . S
O106 C112 1.272 . S
O107 Zn97 1.910 . S
O107 C113 1.231 . S
C108 O92 1.225 . S
C108 O114 1.298 . S
C109 O98 1.226 . S
C109 O99 1.307 . S
C110 O102 1.303 . S
C110 O103 1.247 . S
C111 O100 1.253 . S
C111 O101 1.283 . S
C112 O104 1.304 . S
C112 O106 1.272 . S
C113 O105 1.311 . S
C113 O107 1.231 . S
O114 Zn96 1.953 . S
O114 C108 1.298 . S
O115 Zn116 1.953 . S
O115 C131 1.225 . S
Zn116 O115 1.953 . S
Zn116 O117 1.949 . S
Zn116 O123 1.919 . S
Zn116 O128 1.924 . S
O117 Zn116 1.949 . S
O117 Zn118 1.923 . S
O117 Zn119 1.950 . S
O117 Zn120 1.945 . S
Zn118 O117 1.923 . S
Zn118 O121 1.933 . S
Zn118 O124 1.941 . S
Zn118 O125 1.965 . S
Zn119 O117 1.950 . S
Zn119 O126 1.938 1_545 S
Zn119 O127 1.906 1_545 S
Zn119 O137 1.953 . S
Zn120 O117 1.945 . S
Zn120 O122 1.932 . S
Zn120 O129 1.977 . S
Zn120 O130 1.910 . S
O121 Zn118 1.933 . S
O121 C132 1.226 . S
O122 Zn120 1.932 . S
O122 C132 1.307 . S
O123 Zn116 1.919 . S
O123 C134 1.253 . S
O124 Zn118 1.941 . S
O124 C134 1.283 . S
O125 Zn118 1.965 . S
O125 C133 1.303 1_545 S
O126 Zn119 1.938 1_565 S
O126 C133 1.247 . S
O127 Zn119 1.906 1_565 S
O127 C135 1.304 . S
O128 Zn116 1.924 . S
O128 C136 1.311 . S
O129 Zn120 1.977 . S
O129 C135 1.272 1_545 S
O130 Zn120 1.910 . S
O130 C136 1.231 . S
C131 O115 1.225 . S
C131 O137 1.298 . S
C132 O121 1.226 . S
C132 O122 1.307 . S
C133 O125 1.303 1_565 S
C133 O126 1.247 . S
C134 O123 1.253 . S
C134 O124 1.283 . S
C135 O127 1.304 . S
C135 O129 1.272 1_565 S
C136 O128 1.311 . S
C136 O130 1.231 . S
O137 Zn119 1.953 . S
O137 C131 1.298 . S
O138 Zn139 1.953 . S
O138 C154 1.225 . S
Zn139 O138 1.953 . S
Zn139 O140 1.949 . S
Zn139 O146 1.919 . S
Zn139 O151 1.924 . S
O140 Zn139 1.949 . S
O140 Zn141 1.923 . S
O140 Zn142 1.950 . S
O140 Zn143 1.945 . S
Zn141 O140 1.923 . S
Zn141 O144 1.933 . S
Zn141 O147 1.941 . S
Zn141 O148 1.965 . S
Zn142 O140 1.950 . S
Zn142 O149 1.938 . S
Zn142 O150 1.906 . S
Zn142 O160 1.953 . S
Zn143 O140 1.945 . S
Zn143 O145 1.932 . S
Zn143 O152 1.977 . S
Zn143 O153 1.910 . S
O144 Zn141 1.933 . S
O144 C155 1.226 . S
O145 Zn143 1.932 . S
O145 C155 1.307 . S
O146 Zn139 1.919 . S
O146 C157 1.253 . S
O147 Zn141 1.941 . S
O147 C157 1.283 . S
O148 Zn141 1.965 . S
O148 C156 1.303 . S
O149 Zn142 1.938 . S
O149 C156 1.247 . S
O150 Zn142 1.906 . S
O150 C158 1.304 . S
O151 Zn139 1.924 . S
O151 C159 1.311 . S
O152 Zn143 1.977 . S
O152 C158 1.272 . S
O153 Zn143 1.910 . S
O153 C159 1.231 . S
C154 O138 1.225 . S
C154 O160 1.298 . S
C155 O144 1.226 . S
C155 O145 1.307 . S
C156 O148 1.303 . S
C156 O149 1.247 . S
C157 O146 1.253 . S
C157 O147 1.283 . S
C158 O150 1.304 . S
C158 O152 1.272 . S
C159 O151 1.311 . S
C159 O153 1.231 . S
O160 Zn142 1.953 . S
O160 C154 1.298 . S
O161 Zn162 1.953 . S
O161 C177 1.225 . S
Zn162 O161 1.953 . S
Zn162 O163 1.949 . S
Zn162 O169 1.919 . S
Zn162 O174 1.924 . S
O163 Zn162 1.949 . S
O163 Zn164 1.923 . S
O163 Zn165 1.950 . S
O163 Zn166 1.945 . S
Zn164 O163 1.923 . S
Zn164 O167 1.933 . S
Zn164 O170 1.941 . S
Zn164 O171 1.965 . S
Zn165 O163 1.950 . S
Zn165 O172 1.938 1_565 S
Zn165 O173 1.906 1_565 S
Zn165 O183 1.953 . S
Zn166 O163 1.945 . S
Zn166 O168 1.932 . S
Zn166 O175 1.977 . S
Zn166 O176 1.910 . S
O167 Zn164 1.933 . S
O167 C178 1.226 . S
O168 Zn166 1.932 . S
O168 C178 1.307 . S
O169 Zn162 1.919 . S
O169 C180 1.253 . S
O170 Zn164 1.941 . S
O170 C180 1.283 . S
O171 Zn164 1.965 . S
O171 C179 1.303 1_565 S
O172 Zn165 1.938 1_545 S
O172 C179 1.247 . S
O173 Zn165 1.906 1_545 S
O173 C181 1.304 . S
O174 Zn162 1.924 . S
O174 C182 1.311 . S
O175 Zn166 1.977 . S
O175 C181 1.271 1_565 S
O176 Zn166 1.910 . S
O176 C182 1.231 . S
C177 O161 1.225 . S
C177 O183 1.298 . S
C178 O167 1.226 . S
C178 O168 1.307 . S
C179 O171 1.303 1_545 S
C179 O172 1.247 . S
C180 O169 1.253 . S
C180 O170 1.283 . S
C181 O173 1.304 . S
C181 O175 1.271 1_545 S
C182 O174 1.311 . S
C182 O176 1.231 . S
O183 Zn165 1.953 . S
O183 C177 1.298 . S
H184 C202 0.951 . S
H185 C204 0.951 . S
H186 C206 0.950 . S
H187 C207 0.950 1_455 S
H188 C209 0.950 . S
H189 C212 0.950 . S
H190 C213 0.950 . S
H191 C215 0.950 . S
H192 C216 0.950 . S
H193 C217 0.951 1_565 S
H194 C219 0.951 . S
H195 C221 0.950 . S
H196 C222 0.950 . S
H197 C224 0.950 . S
H198 C227 0.950 . S
H199 C228 0.950 . S
H200 C230 0.950 . S
H201 C231 0.952 . S
C202 H184 0.951 . S
C202 C203 1.366 . S
C202 C204 1.388 . S
C203 C202 1.366 . S
C203 C207 1.385 . S
C204 H185 0.951 . S
C204 C202 1.388 . S
C204 C205 1.366 . S
C205 C204 1.366 . S
C205 C206 1.414 . S
C205 C208 1.499 . S
C206 H186 0.950 . S
C206 C205 1.414 . S
C206 C207 1.374 . S
C207 H187 0.950 1_655 S
C207 C203 1.385 . S
C207 C206 1.374 . S
C208 C205 1.499 . S
C208 C209 1.373 . S
C208 C210 1.389 . S
C209 H188 0.950 . S
C209 C208 1.373 . S
C209 C225 1.377 . S
C210 C208 1.389 . S
C210 C211 1.524 . S
C210 C224 1.377 . S
C211 C210 1.524 . S
C211 C212 1.397 . S
C211 C216 1.363 . S
C212 H189 0.950 . S
C212 C211 1.397 . S
C212 C213 1.334 1_655 S
C213 H190 0.950 . S
C213 C212 1.334 1_455 S
C213 C214 1.287 1_455 S
C214 C213 1.287 1_655 S
C214 C215 1.524 . S
C214 H233 0.913 1_655 S
C215 H191 0.950 . S
C215 C214 1.524 . S
C215 C216 1.415 . S
C216 H192 0.950 . S
C216 C211 1.363 . S
C216 C215 1.415 . S
C217 H193 0.951 1_545 S
C217 C218 1.366 . S
C217 C219 1.388 . S
C218 C217 1.366 . S
C218 C222 1.385 . S
C219 H194 0.951 . S
C219 C217 1.388 . S
C219 C220 1.366 . S
C220 C219 1.366 . S
C220 C221 1.414 . S
C220 C223 1.499 . S
C221 H195 0.950 . S
C221 C220 1.414 . S
C221 C222 1.374 . S
C222 H196 0.950 . S
C222 C218 1.385 . S
C222 C221 1.374 . S
C223 C220 1.499 . S
C223 C224 1.373 . S
C223 C225 1.389 . S
C224 H197 0.950 . S
C224 C210 1.377 . S
C224 C223 1.373 . S
C225 C209 1.377 . S
C225 C223 1.389 . S
C225 C226 1.524 . S
C226 C225 1.524 . S
C226 C227 1.397 . S
C226 C231 1.363 1_545 S
C227 H198 0.950 . S
C227 C226 1.397 . S
C227 C228 1.334 1_545 S
C228 H199 0.950 . S
C228 C227 1.334 1_565 S
C228 C229 1.287 . S
C229 C228 1.287 . S
C229 C230 1.524 . S
C229 H232 0.999 . S
C230 H200 0.950 . S
C230 C229 1.524 . S
C230 C231 1.415 . S
C231 H201 0.952 . S
C231 C226 1.363 1_565 S
C231 C230 1.415 . S
H232 C229 0.999 . S
H233 C214 0.913 1_455 S
H234 C252 0.951 . S
H235 C254 0.951 . S
H236 C256 0.950 . S
H237 C257 0.950 . S
H238 C259 0.950 . S
H239 C262 0.950 . S
H240 C263 0.950 . S
H241 C265 0.950 . S
H242 C266 0.950 . S
H243 C267 0.951 . S
H244 C269 0.951 . S
H245 C271 0.950 . S
H246 C272 0.950 . S
H247 C274 0.950 . S
H248 C277 0.950 . S
H249 C278 0.950 . S
H250 C280 0.950 . S
H251 C281 0.950 . S
C252 H234 0.951 . S
C252 C253 1.366 . S
C252 C254 1.388 . S
C253 C252 1.366 . S
C253 C257 1.385 . S
C254 H235 0.951 . S
C254 C252 1.388 . S
C254 C255 1.366 . S
C255 C254 1.366 . S
C255 C256 1.414 . S
C255 C258 1.499 . S
C256 H236 0.950 . S
C256 C255 1.414 . S
C256 C257 1.374 . S
C257 H237 0.950 . S
C257 C253 1.385 . S
C257 C256 1.374 . S
C258 C255 1.499 . S
C258 C259 1.373 . S
C258 C260 1.389 . S
C259 H238 0.950 . S
C259 C258 1.373 . S
C259 C275 1.377 . S
C260 C258 1.389 . S
C260 C261 1.524 . S
C260 C274 1.377 . S
C261 C260 1.524 . S
C261 C262 1.397 . S
C261 C266 1.363 . S
C262 H239 0.950 . S
C262 C261 1.397 . S
C262 C263 1.334 . S
C263 H240 0.950 . S
C263 C262 1.334 . S
C263 C264 1.287 . S
C264 C263 1.287 . S
C264 C265 1.524 . S
C264 H283 0.913 . S
C265 H241 0.950 . S
C265 C264 1.524 . S
C265 C266 1.415 . S
C266 H242 0.950 . S
C266 C261 1.363 . S
C266 C265 1.415 . S
C267 H243 0.951 . S
C267 C268 1.366 . S
C267 C269 1.388 . S
C268 C267 1.366 . S
C268 C272 1.385 . S
C269 H244 0.951 . S
C269 C267 1.388 . S
C269 C270 1.366 . S
C270 C269 1.366 . S
C270 C271 1.414 . S
C270 C273 1.499 . S
C271 H245 0.950 . S
C271 C270 1.414 . S
C271 C272 1.374 . S
C272 H246 0.950 . S
C272 C268 1.385 . S
C272 C271 1.374 . S
C273 C270 1.499 . S
C273 C274 1.373 . S
C273 C275 1.389 . S
C274 H247 0.950 . S
C274 C260 1.377 . S
C274 C273 1.373 . S
C275 C259 1.377 . S
C275 C273 1.389 . S
C275 C276 1.524 . S
C276 C275 1.524 . S
C276 C277 1.397 . S
C276 C281 1.363 . S
C277 H248 0.950 . S
C277 C276 1.397 . S
C277 C278 1.334 . S
C278 H249 0.950 . S
C278 C277 1.334 . S
C278 C279 1.287 . S
C279 C278 1.287 . S
C279 C280 1.524 . S
C279 H282 0.999 . S
C280 H250 0.950 . S
C280 C279 1.524 . S
C280 C281 1.415 . S
C281 H251 0.950 . S
C281 C276 1.363 . S
C281 C280 1.415 . S
H282 C279 0.999 . S
H283 C264 0.913 . S
H284 C302 0.951 . S
H285 C304 0.951 . S
H286 C306 0.950 . S
H287 C307 0.925 1_655 S
H288 C309 0.950 . S
H289 C312 0.950 . S
H290 C313 0.950 . S
H291 C315 0.950 . S
H292 C316 0.950 . S
H293 C317 0.951 . S
H294 C319 0.951 . S
H295 C321 0.950 . S
H296 C322 0.950 . S
H297 C324 0.950 . S
H298 C327 0.950 1_545 S
H299 C328 0.950 . S
H300 C330 0.950 . S
H301 C331 0.950 . S
C302 H284 0.951 . S
C302 C303 1.366 . S
C302 C304 1.388 . S
C303 C302 1.366 . S
C303 C307 1.396 . S
C304 H285 0.951 . S
C304 C302 1.388 . S
C304 C305 1.366 . S
C305 C304 1.366 . S
C305 C306 1.414 . S
C305 C308 1.499 . S
C306 H286 0.950 . S
C306 C305 1.414 . S
C306 C307 1.388 . S
C307 H287 0.925 1_455 S
C307 C303 1.396 . S
C307 C306 1.388 . S
C308 C305 1.499 . S
C308 C309 1.373 . S
C308 C310 1.389 . S
C309 H288 0.950 . S
C309 C308 1.373 . S
C309 C325 1.377 . S
C310 C308 1.389 . S
C310 C311 1.524 . S
C310 C324 1.377 . S
C311 C310 1.524 . S
C311 C312 1.397 . S
C311 C316 1.363 . S
C312 H289 0.950 . S
C312 C311 1.397 . S
C312 C313 1.334 . S
C313 H290 0.950 . S
C313 C312 1.334 . S
C313 C314 1.287 . S
C314 C313 1.287 . S
C314 C315 1.524 . S
C314 H333 0.913 . S
C315 H291 0.950 . S
C315 C314 1.524 . S
C315 C316 1.415 . S
C316 H292 0.950 . S
C316 C311 1.363 . S
C316 C315 1.415 . S
C317 H293 0.951 . S
C317 C318 1.366 . S
C317 C319 1.388 . S
C318 C317 1.366 . S
C318 C322 1.385 . S
C319 H294 0.951 . S
C319 C317 1.388 . S
C319 C320 1.366 . S
C320 C319 1.366 . S
C320 C321 1.414 . S
C320 C323 1.499 . S
C321 H295 0.950 . S
C321 C320 1.414 . S
C321 C322 1.374 . S
C322 H296 0.950 . S
C322 C318 1.385 . S
C322 C321 1.374 . S
C323 C320 1.499 . S
C323 C324 1.373 . S
C323 C325 1.389 . S
C324 H297 0.950 . S
C324 C310 1.377 . S
C324 C323 1.373 . S
C325 C309 1.377 . S
C325 C323 1.389 . S
C325 C326 1.524 . S
C326 C325 1.524 . S
C326 C327 1.397 . S
C326 C331 1.363 . S
C327 H298 0.950 1_565 S
C327 C326 1.397 . S
C327 C328 1.334 1_565 S
C328 H299 0.950 . S
C328 C327 1.334 1_545 S
C328 C329 1.287 . S
C329 C328 1.287 . S
C329 C330 1.524 1_445 S
C329 H332 0.999 1_455 S
C330 H300 0.950 . S
C330 C329 1.524 1_665 S
C330 C331 1.415 1_655 S
C331 H301 0.950 . S
C331 C326 1.363 . S
C331 C330 1.415 1_455 S
H332 C329 0.999 1_655 S
H333 C314 0.913 . S
H334 C352 0.951 . S
H335 C354 0.951 . S
H336 C356 0.950 . S
H337 C357 0.950 . S
H338 C359 0.950 . S
H339 C362 0.950 . S
H340 C363 0.950 . S
H341 C365 0.950 . S
H342 C366 0.950 . S
H343 C367 0.951 . S
H344 C369 0.951 . S
H345 C371 0.950 . S
H346 C372 0.950 . S
H347 C374 0.950 . S
H348 C377 0.950 . S
H349 C378 0.950 . S
H350 C380 0.950 . S
H351 C381 0.950 . S
C352 H334 0.951 . S
C352 C353 1.366 . S
C352 C354 1.388 . S
C353 C352 1.366 . S
C353 C357 1.385 . S
C354 H335 0.951 . S
C354 C352 1.388 . S
C354 C355 1.366 . S
C355 C354 1.366 . S
C355 C356 1.414 . S
C355 C358 1.499 . S
C356 H336 0.950 . S
C356 C355 1.414 . S
C356 C357 1.374 . S
C357 H337 0.950 . S
C357 C353 1.385 . S
C357 C356 1.374 . S
C358 C355 1.499 . S
C358 C359 1.385 . S
C358 C360 1.389 . S
C359 H338 0.950 . S
C359 C358 1.385 . S
C359 C375 1.364 1_554 S
C360 C358 1.389 . S
C360 C361 1.524 . S
C360 C374 1.367 1_554 S
C361 C360 1.524 . S
C361 C362 1.397 . S
C361 C366 1.363 . S
C362 H339 0.950 . S
C362 C361 1.397 . S
C362 C363 1.334 . S
C363 H340 0.950 . S
C363 C362 1.334 . S
C363 C364 1.287 . S
C364 C363 1.287 . S
C364 C365 1.524 . S
C364 H383 0.913 . S
C365 H341 0.950 . S
C365 C364 1.524 . S
C365 C366 1.415 . S
C366 H342 0.950 . S
C366 C361 1.363 . S
C366 C365 1.415 . S
C367 H343 0.951 . S
C367 C368 1.366 . S
C367 C369 1.388 . S
C368 C367 1.366 . S
C368 C372 1.385 . S
C369 H344 0.951 . S
C369 C367 1.388 . S
C369 C370 1.366 . S
C370 C369 1.366 . S
C370 C371 1.414 . S
C370 C373 1.499 . S
C371 H345 0.950 . S
C371 C370 1.414 . S
C371 C372 1.374 . S
C372 H346 0.950 . S
C372 C368 1.385 . S
C372 C371 1.374 . S
C373 C370 1.499 . S
C373 C374 1.383 . S
C373 C375 1.389 . S
C374 H347 0.950 . S
C374 C360 1.367 1_556 S
C374 C373 1.383 . S
C375 C359 1.364 1_556 S
C375 C373 1.389 . S
C375 C376 1.524 . S
C376 C375 1.524 . S
C376 C377 1.397 . S
C376 C381 1.363 . S
C377 H348 0.950 . S
C377 C376 1.397 . S
C377 C378 1.334 . S
C378 H349 0.950 . S
C378 C377 1.334 . S
C378 C379 1.287 . S
C379 C378 1.287 . S
C379 C380 1.524 . S
C379 H382 0.999 . S
C380 H350 0.950 . S
C380 C379 1.524 . S
C380 C381 1.415 . S
C381 H351 0.950 . S
C381 C376 1.363 . S
C381 C380 1.415 . S
H382 C379 0.999 . S
H383 C364 0.913 . S
H384 C402 0.951 . S
H385 C404 0.951 . S
H386 C406 0.950 . S
H387 C407 0.950 . S
H388 C409 0.950 . S
H389 C412 0.950 . S
H390 C413 0.950 1_655 S
H391 C415 0.950 . S
H392 C416 0.950 . S
H393 C417 0.951 . S
H394 C419 0.951 . S
H395 C421 0.950 . S
H396 C422 0.950 . S
H397 C424 0.950 . S
H398 C427 0.950 . S
H399 C428 0.950 . S
H400 C430 0.950 . S
H401 C431 0.950 . S
C402 H384 0.951 . S
C402 C403 1.366 . S
C402 C404 1.388 . S
C403 C402 1.366 . S
C403 C407 1.385 . S
C404 H385 0.951 . S
C404 C402 1.388 . S
C404 C405 1.366 . S
C405 C404 1.366 . S
C405 C406 1.414 . S
C405 C408 1.499 . S
C406 H386 0.950 . S
C406 C405 1.414 . S
C406 C407 1.374 . S
C407 H387 0.950 . S
C407 C403 1.385 . S
C407 C406 1.374 . S
C408 C405 1.499 . S
C408 C409 1.373 . S
C408 C410 1.389 . S
C409 H388 0.950 . S
C409 C408 1.373 . S
C409 C425 1.377 . S
C410 C408 1.389 . S
C410 C411 1.524 . S
C410 C424 1.377 . S
C411 C410 1.524 . S
C411 C412 1.397 . S
C411 C416 1.363 . S
C412 H389 0.950 . S
C412 C411 1.397 . S
C412 C413 1.334 . S
C413 H390 0.950 1_455 S
C413 C412 1.334 . S
C413 C414 1.287 . S
C414 C413 1.287 . S
C414 C415 1.524 . S
C414 H433 0.913 1_455 S
C415 H391 0.950 . S
C415 C414 1.524 . S
C415 C416 1.415 . S
C416 H392 0.950 . S
C416 C411 1.363 . S
C416 C415 1.415 . S
C417 H393 0.951 . S
C417 C418 1.366 . S
C417 C419 1.388 . S
C418 C417 1.366 . S
C418 C422 1.385 . S
C419 H394 0.951 . S
C419 C417 1.388 . S
C419 C420 1.366 . S
C420 C419 1.366 . S
C420 C421 1.414 . S
C420 C423 1.499 . S
C421 H395 0.950 . S
C421 C420 1.414 . S
C421 C422 1.374 . S
C422 H396 0.950 . S
C422 C418 1.385 . S
C422 C421 1.374 . S
C423 C420 1.499 . S
C423 C424 1.373 . S
C423 C425 1.389 . S
C424 H397 0.950 . S
C424 C410 1.377 . S
C424 C423 1.373 . S
C425 C409 1.377 . S
C425 C423 1.389 . S
C425 C426 1.524 . S
C426 C425 1.524 . S
C426 C427 1.397 . S
C426 C431 1.363 . S
C427 H398 0.950 . S
C427 C426 1.397 . S
C427 C428 1.334 . S
C428 H399 0.950 . S
C428 C427 1.334 . S
C428 C429 1.287 . S
C429 C428 1.287 . S
C429 C430 1.524 . S
C429 H432 0.999 . S
C430 H400 0.950 . S
C430 C429 1.524 . S
C430 C431 1.415 . S
C431 H401 0.950 . S
C431 C426 1.363 . S
C431 C430 1.415 . S
H432 C429 0.999 . S
H433 C414 0.913 1_655 S
H434 C452 0.951 . S
H435 C454 0.951 . S
H436 C456 0.950 . S
H437 C457 0.950 . S
H438 C459 0.950 . S
H439 C462 0.950 . S
H440 C463 0.950 . S
H441 C465 0.950 . S
H442 C466 0.950 . S
H443 C467 0.951 . S
H444 C469 0.951 . S
H445 C471 0.950 . S
H446 C472 0.950 . S
H447 C474 0.950 . S
H448 C477 0.950 . S
H449 C478 0.950 . S
H450 C480 0.950 . S
H451 C481 0.950 . S
C452 H434 0.951 . S
C452 C453 1.366 . S
C452 C454 1.388 . S
C453 C452 1.366 . S
C453 C457 1.385 . S
C454 H435 0.951 . S
C454 C452 1.388 . S
C454 C455 1.366 . S
C455 C454 1.366 . S
C455 C456 1.414 . S
C455 C458 1.499 . S
C456 H436 0.950 . S
C456 C455 1.414 . S
C456 C457 1.374 . S
C457 H437 0.950 . S
C457 C453 1.385 . S
C457 C456 1.374 . S
C458 C455 1.499 . S
C458 C459 1.373 . S
C458 C460 1.389 . S
C459 H438 0.950 . S
C459 C458 1.373 . S
C459 C475 1.377 . S
C460 C458 1.389 . S
C460 C461 1.524 . S
C460 C474 1.377 . S
C461 C460 1.524 . S
C461 C462 1.397 . S
C461 C466 1.363 . S
C462 H439 0.950 . S
C462 C461 1.397 . S
C462 C463 1.334 . S
C463 H440 0.950 . S
C463 C462 1.334 . S
C463 C464 1.287 . S
C464 C463 1.287 . S
C464 C465 1.524 . S
C464 H483 0.913 . S
C465 H441 0.950 . S
C465 C464 1.524 . S
C465 C466 1.415 . S
C466 H442 0.950 . S
C466 C461 1.363 . S
C466 C465 1.415 . S
C467 H443 0.951 . S
C467 C468 1.366 . S
C467 C469 1.388 . S
C468 C467 1.366 . S
C468 C472 1.385 . S
C469 H444 0.951 . S
C469 C467 1.388 . S
C469 C470 1.366 . S
C470 C469 1.366 . S
C470 C471 1.414 . S
C470 C473 1.499 . S
C471 H445 0.950 . S
C471 C470 1.414 . S
C471 C472 1.374 . S
C472 H446 0.950 . S
C472 C468 1.385 . S
C472 C471 1.374 . S
C473 C470 1.499 . S
C473 C474 1.373 . S
C473 C475 1.389 . S
C474 H447 0.950 . S
C474 C460 1.377 . S
C474 C473 1.373 . S
C475 C459 1.377 . S
C475 C473 1.389 . S
C475 C476 1.524 . S
C476 C475 1.524 . S
C476 C477 1.397 . S
C476 C481 1.363 . S
C477 H448 0.950 . S
C477 C476 1.397 . S
C477 C478 1.334 . S
C478 H449 0.950 . S
C478 C477 1.334 . S
C478 C479 1.287 . S
C479 C478 1.287 . S
C479 C480 1.524 . S
C479 H482 0.999 . S
C480 H450 0.950 . S
C480 C479 1.524 . S
C480 C481 1.415 . S
C481 H451 0.950 . S
C481 C476 1.363 . S
C481 C480 1.415 . S
H482 C479 0.999 . S
H483 C464 0.913 . S
H484 C502 0.951 . S
H485 C504 0.951 . S
H486 C506 0.950 . S
H487 C507 0.950 . S
H488 C509 0.950 . S
H489 C512 0.950 . S
H490 C513 0.950 . S
H491 C515 0.950 . S
H492 C516 0.950 . S
H493 C517 0.951 . S
H494 C519 0.951 . S
H495 C521 0.950 . S
H496 C522 0.950 . S
H497 C524 0.950 . S
H498 C527 0.950 . S
H499 C528 0.950 . S
H500 C530 0.950 . S
H501 C531 0.950 . S
C502 H484 0.951 . S
C502 C503 1.366 . S
C502 C504 1.388 . S
C503 C502 1.366 . S
C503 C507 1.385 . S
C504 H485 0.951 . S
C504 C502 1.388 . S
C504 C505 1.366 . S
C505 C504 1.366 . S
C505 C506 1.414 . S
C505 C508 1.499 . S
C506 H486 0.950 . S
C506 C505 1.414 . S
C506 C507 1.374 . S
C507 H487 0.950 . S
C507 C503 1.385 . S
C507 C506 1.374 . S
C508 C505 1.499 . S
C508 C509 1.373 . S
C508 C510 1.389 . S
C509 H488 0.950 . S
C509 C508 1.373 . S
C509 C525 1.377 . S
C510 C508 1.389 . S
C510 C511 1.524 . S
C510 C524 1.377 . S
C511 C510 1.524 . S
C511 C512 1.397 . S
C511 C516 1.363 . S
C512 H489 0.950 . S
C512 C511 1.397 . S
C512 C513 1.334 . S
C513 H490 0.950 . S
C513 C512 1.334 . S
C513 C514 1.287 . S
C514 C513 1.287 . S
C514 C515 1.524 . S
C514 H533 0.913 . S
C515 H491 0.950 . S
C515 C514 1.524 . S
C515 C516 1.415 . S
C516 H492 0.950 . S
C516 C511 1.363 . S
C516 C515 1.415 . S
C517 H493 0.951 . S
C517 C518 1.366 . S
C517 C519 1.388 . S
C518 C517 1.366 . S
C518 C522 1.385 . S
C519 H494 0.951 . S
C519 C517 1.388 . S
C519 C520 1.366 . S
C520 C519 1.366 . S
C520 C521 1.414 . S
C520 C523 1.499 . S
C521 H495 0.950 . S
C521 C520 1.414 . S
C521 C522 1.374 . S
C522 H496 0.950 . S
C522 C518 1.385 . S
C522 C521 1.374 . S
C523 C520 1.499 . S
C523 C524 1.373 . S
C523 C525 1.389 . S
C524 H497 0.950 . S
C524 C510 1.377 . S
C524 C523 1.373 . S
C525 C509 1.377 . S
C525 C523 1.389 . S
C525 C526 1.524 . S
C526 C525 1.524 . S
C526 C527 1.397 . S
C526 C531 1.363 . S
C527 H498 0.950 . S
C527 C526 1.397 . S
C527 C528 1.334 . S
C528 H499 0.950 . S
C528 C527 1.334 . S
C528 C529 1.287 1_655 S
C529 C528 1.287 1_455 S
C529 C530 1.524 . S
C529 H532 0.999 . S
C530 H500 0.950 . S
C530 C529 1.524 . S
C530 C531 1.415 1_455 S
C531 H501 0.950 . S
C531 C526 1.363 . S
C531 C530 1.415 1_655 S
H532 C529 0.999 . S
H533 C514 0.913 . S
H534 C552 0.951 . S
H535 C554 0.951 . S
H536 C556 0.950 . S
H537 C557 0.954 . S
H538 C559 0.950 . S
H539 C562 0.950 . S
H540 C563 0.950 1_455 S
H541 C565 0.950 . S
H542 C566 0.950 . S
H543 C567 0.951 . S
H544 C569 0.951 . S
H545 C571 0.950 . S
H546 C572 0.950 . S
H547 C574 0.973 . S
H548 C577 0.950 . S
H549 C578 0.950 . S
H550 C580 0.950 . S
H551 C581 0.950 . S
C552 H534 0.951 . S
C552 C553 1.366 . S
C552 C554 1.388 . S
C553 C552 1.366 . S
C553 C557 1.385 . S
C554 H535 0.951 . S
C554 C552 1.388 . S
C554 C555 1.366 . S
C555 C554 1.366 . S
C555 C556 1.414 . S
C555 C558 1.499 . S
C556 H536 0.950 . S
C556 C555 1.414 . S
C556 C557 1.374 . S
C557 H537 0.954 . S
C557 C553 1.385 . S
C557 C556 1.374 . S
C558 C555 1.499 . S
C558 C559 1.373 . S
C558 C560 1.389 . S
C559 H538 0.950 . S
C559 C558 1.373 . S
C559 C575 1.377 . S
C560 C558 1.389 . S
C560 C561 1.524 . S
C560 C574 1.377 . S
C561 C560 1.524 . S
C561 C562 1.397 . S
C561 C566 1.363 . S
C562 H539 0.950 . S
C562 C561 1.397 . S
C562 C563 1.334 . S
C563 H540 0.950 1_655 S
C563 C562 1.334 . S
C563 C564 1.287 . S
C564 C563 1.287 . S
C564 C565 1.524 . S
C564 H583 0.913 . S
C565 H541 0.950 . S
C565 C564 1.524 . S
C565 C566 1.415 . S
C566 H542 0.950 . S
C566 C561 1.363 . S
C566 C565 1.415 . S
C567 H543 0.951 . S
C567 C568 1.366 . S
C567 C569 1.388 . S
C568 C567 1.366 . S
C568 C572 1.385 . S
C569 H544 0.951 . S
C569 C567 1.388 . S
C569 C570 1.366 . S
C570 C569 1.366 . S
C570 C571 1.414 . S
C570 C573 1.499 1_556 S
C571 H545 0.950 . S
C571 C570 1.414 . S
C571 C572 1.374 . S
C572 H546 0.950 . S
C572 C568 1.385 . S
C572 C571 1.374 . S
C573 C570 1.499 1_554 S
C573 C574 1.373 . S
C573 C575 1.389 . S
C574 H547 0.973 . S
C574 C560 1.377 . S
C574 C573 1.373 . S
C575 C559 1.377 . S
C575 C573 1.389 . S
C575 C576 1.524 . S
C576 C575 1.524 . S
C576 C577 1.397 . S
C576 C581 1.363 . S
C577 H548 0.950 . S
C577 C576 1.397 . S
C577 C578 1.334 . S
C578 H549 0.950 . S
C578 C577 1.334 . S
C578 C579 1.287 . S
C579 C578 1.287 . S
C579 C580 1.524 . S
C579 H582 0.999 . S
C580 H550 0.950 . S
C580 C579 1.524 . S
C580 C581 1.415 . S
C581 H551 0.950 . S
C581 C576 1.363 . S
C581 C580 1.415 . S
H582 C579 0.999 . S
H583 C564 0.913 . S
H584 C602 0.951 . S
H585 C604 0.951 . S
H586 C606 0.950 . S
H587 C607 0.950 . S
H588 C609 0.950 . S
H589 C612 0.950 . S
H590 C613 0.950 . S
H591 C615 0.950 . S
H592 C616 0.950 . S
H593 C617 0.951 1_565 S
H594 C619 0.951 . S
H595 C621 0.950 . S
H596 C622 0.950 . S
H597 C624 0.950 . S
H598 C627 0.950 . S
H599 C628 0.950 . S
H600 C630 0.950 . S
H601 C631 0.950 . S
C602 H584 0.951 . S
C602 C603 1.366 . S
C602 C604 1.388 . S
C603 C602 1.366 . S
C603 C607 1.385 . S
C604 H585 0.951 . S
C604 C602 1.388 . S
C604 C605 1.366 . S
C605 C604 1.366 . S
C605 C606 1.414 . S
C605 C608 1.499 . S
C606 H586 0.950 . S
C606 C605 1.414 . S
C606 C607 1.374 . S
C607 H587 0.950 . S
C607 C603 1.385 . S
C607 C606 1.374 . S
C608 C605 1.499 . S
C608 C609 1.373 . S
C608 C610 1.389 . S
C609 H588 0.950 . S
C609 C608 1.373 . S
C609 C625 1.377 . S
C610 C608 1.389 . S
C610 C611 1.524 . S
C610 C624 1.377 . S
C611 C610 1.524 . S
C611 C612 1.397 . S
C611 C616 1.363 . S
C612 H589 0.950 . S
C612 C611 1.397 . S
C612 C613 1.334 . S
C613 H590 0.950 . S
C613 C612 1.334 . S
C613 C614 1.287 . S
C614 C613 1.287 . S
C614 C615 1.524 . S
C614 H633 0.913 . S
C615 H591 0.950 . S
C615 C614 1.524 . S
C615 C616 1.415 . S
C616 H592 0.950 . S
C616 C611 1.363 . S
C616 C615 1.415 . S
C617 H593 0.951 1_545 S
C617 C618 1.366 . S
C617 C619 1.388 . S
C618 C617 1.366 . S
C618 C622 1.385 . S
C619 H594 0.951 . S
C619 C617 1.388 . S
C619 C620 1.366 . S
C620 C619 1.366 . S
C620 C621 1.414 . S
C620 C623 1.499 . S
C621 H595 0.950 . S
C621 C620 1.414 . S
C621 C622 1.374 . S
C622 H596 0.950 . S
C622 C618 1.385 . S
C622 C621 1.374 . S
C623 C620 1.499 . S
C623 C624 1.373 . S
C623 C625 1.389 . S
C624 H597 0.950 . S
C624 C610 1.377 . S
C624 C623 1.373 . S
C625 C609 1.377 . S
C625 C623 1.389 . S
C625 C626 1.524 . S
C626 C625 1.524 . S
C626 C627 1.397 . S
C626 C631 1.363 . S
C627 H598 0.950 . S
C627 C626 1.397 . S
C627 C628 1.334 . S
C628 H599 0.950 . S
C628 C627 1.334 . S
C628 C629 1.287 . S
C629 C628 1.287 . S
C629 C630 1.524 1_545 S
C629 H632 0.999 1_545 S
C630 H600 0.950 . S
C630 C629 1.524 1_565 S
C630 C631 1.415 1_565 S
C631 H601 0.950 . S
C631 C626 1.363 . S
C631 C630 1.415 1_545 S
H632 C629 0.999 1_565 S
H633 C614 0.913 . S
H634 C652 0.951 . S
H635 C654 0.951 . S
H636 C656 0.950 . S
H637 C657 0.950 . S
H638 C659 0.950 . S
H639 C662 0.950 . S
H640 C663 0.950 . S
H641 C665 0.950 . S
H642 C666 0.950 . S
H643 C667 0.951 . S
H644 C669 0.951 . S
H645 C671 0.950 . S
H646 C672 0.950 . S
H647 C674 0.950 . S
H648 C677 0.950 . S
H649 C678 0.950 . S
H650 C680 0.950 . S
H651 C681 0.950 . S
C652 H634 0.951 . S
C652 C653 1.366 . S
C652 C654 1.388 . S
C653 C652 1.366 . S
C653 C657 1.385 . S
C654 H635 0.951 . S
C654 C652 1.388 . S
C654 C655 1.366 . S
C655 C654 1.366 . S
C655 C656 1.414 . S
C655 C658 1.499 . S
C656 H636 0.950 . S
C656 C655 1.414 . S
C656 C657 1.374 . S
C657 H637 0.950 . S
C657 C653 1.385 . S
C657 C656 1.374 . S
C658 C655 1.499 . S
C658 C659 1.373 . S
C658 C660 1.389 . S
C659 H638 0.950 . S
C659 C658 1.373 . S
C659 C675 1.377 . S
C660 C658 1.389 . S
C660 C661 1.524 . S
C660 C674 1.377 . S
C661 C660 1.524 . S
C661 C662 1.397 . S
C661 C666 1.363 . S
C662 H639 0.950 . S
C662 C661 1.397 . S
C662 C663 1.334 . S
C663 H640 0.950 . S
C663 C662 1.334 . S
C663 C664 1.287 . S
C664 C663 1.287 . S
C664 C665 1.524 . S
C664 H683 0.913 . S
C665 H641 0.950 . S
C665 C664 1.524 . S
C665 C666 1.415 . S
C666 H642 0.950 . S
C666 C661 1.363 . S
C666 C665 1.415 . S
C667 H643 0.951 . S
C667 C668 1.366 . S
C667 C669 1.388 . S
C668 C667 1.366 . S
C668 C672 1.385 . S
C669 H644 0.951 . S
C669 C667 1.388 . S
C669 C670 1.366 . S
C670 C669 1.366 . S
C670 C671 1.414 . S
C670 C673 1.499 . S
C671 H645 0.950 . S
C671 C670 1.414 . S
C671 C672 1.374 . S
C672 H646 0.950 . S
C672 C668 1.385 . S
C672 C671 1.374 . S
C673 C670 1.499 . S
C673 C674 1.373 . S
C673 C675 1.389 . S
C674 H647 0.950 . S
C674 C660 1.377 . S
C674 C673 1.373 . S
C675 C659 1.377 . S
C675 C673 1.389 . S
C675 C676 1.524 . S
C676 C675 1.524 . S
C676 C677 1.397 . S
C676 C681 1.363 . S
C677 H648 0.950 . S
C677 C676 1.397 . S
C677 C678 1.334 . S
C678 H649 0.950 . S
C678 C677 1.334 . S
C678 C679 1.287 . S
C679 C678 1.287 . S
C679 C680 1.524 . S
C679 H682 0.999 . S
C680 H650 0.950 . S
C680 C679 1.524 . S
C680 C681 1.415 . S
C681 H651 0.950 . S
C681 C676 1.363 . S
C681 C680 1.415 . S
H682 C679 0.999 . S
H683 C664 0.913 . S
H684 C702 0.951 . S
H685 C704 0.951 1_556 S
H686 C706 0.950 . S
H687 C707 0.950 . S
H688 C709 0.950 1_554 S
H689 C712 0.950 . S
H690 C713 0.950 . S
H691 C715 0.950 . S
H692 C716 0.950 . S
H693 C717 0.951 1_545 S
H694 C719 0.951 . S
H695 C721 0.950 . S
H696 C722 0.950 . S
H697 C724 0.950 . S
H698 C727 0.950 . S
H699 C728 0.950 . S
H700 C730 0.972 1_545 S
H701 C731 0.950 1_554 S
C702 H684 0.951 . S
C702 C703 1.366 . S
C702 C704 1.388 . S
C703 C702 1.366 . S
C703 C707 1.385 . S
C704 H685 0.951 1_554 S
C704 C702 1.388 . S
C704 C705 1.366 . S
C705 C704 1.366 . S
C705 C706 1.414 . S
C705 C708 1.499 1_554 S
C706 H686 0.950 . S
C706 C705 1.414 . S
C706 C707 1.374 . S
C707 H687 0.950 . S
C707 C703 1.385 . S
C707 C706 1.374 . S
C708 C705 1.499 1_556 S
C708 C709 1.373 . S
C708 C710 1.389 . S
C709 H688 0.950 1_556 S
C709 C708 1.373 . S
C709 C725 1.377 . S
C710 C708 1.389 . S
C710 C711 1.524 . S
C710 C724 1.377 . S
C711 C710 1.524 . S
C711 C712 1.397 . S
C711 C716 1.363 . S
C712 H689 0.950 . S
C712 C711 1.397 . S
C712 C713 1.334 . S
C713 H690 0.950 . S
C713 C712 1.334 . S
C713 C714 1.287 . S
C714 C713 1.287 . S
C714 C715 1.524 . S
C714 H733 0.913 . S
C715 H691 0.950 . S
C715 C714 1.524 . S
C715 C716 1.415 . S
C716 H692 0.950 . S
C716 C711 1.363 . S
C716 C715 1.415 . S
C717 H693 0.951 1_565 S
C717 C718 1.366 . S
C717 C719 1.388 . S
C718 C717 1.366 . S
C718 C722 1.385 . S
C719 H694 0.951 . S
C719 C717 1.388 . S
C719 C720 1.366 . S
C720 C719 1.366 . S
C720 C721 1.414 . S
C720 C723 1.499 . S
C721 H695 0.950 . S
C721 C720 1.414 . S
C721 C722 1.374 . S
C722 H696 0.950 . S
C722 C718 1.385 . S
C722 C721 1.374 . S
C723 C720 1.499 . S
C723 C724 1.373 . S
C723 C725 1.389 . S
C724 H697 0.950 . S
C724 C710 1.377 . S
C724 C723 1.373 . S
C725 C709 1.377 . S
C725 C723 1.389 . S
C725 C726 1.524 . S
C726 C725 1.524 . S
C726 C727 1.397 . S
C726 C731 1.363 . S
C727 H698 0.950 . S
C727 C726 1.397 . S
C727 C728 1.334 . S
C728 H699 0.950 . S
C728 C727 1.334 . S
C728 C729 1.287 . S
C729 C728 1.287 . S
C729 C730 1.508 1_556 S
C729 H732 0.999 . S
C730 H700 0.972 1_565 S
C730 C729 1.508 1_554 S
C730 C731 1.406 1_554 S
C731 H701 0.950 1_556 S
C731 C726 1.363 . S
C731 C730 1.406 1_556 S
H732 C729 0.999 . S
H733 C714 0.913 . S
H734 C752 0.951 . S
H735 C754 0.951 . S
H736 C756 0.950 . S
H737 C757 0.950 . S
H738 C759 0.950 . S
H739 C762 0.950 . S
H740 C763 0.950 . S
H741 C765 0.950 . S
H742 C766 0.950 . S
H743 C767 0.951 . S
H744 C769 0.951 . S
H745 C771 0.950 . S
H746 C772 0.950 . S
H747 C774 0.950 . S
H748 C777 0.950 . S
H749 C778 0.950 . S
H750 C780 0.950 . S
H751 C781 0.950 . S
C752 H734 0.951 . S
C752 C753 1.366 . S
C752 C754 1.388 . S
C753 C752 1.366 . S
C753 C757 1.385 . S
C754 H735 0.951 . S
C754 C752 1.388 . S
C754 C755 1.366 . S
C755 C754 1.366 . S
C755 C756 1.414 . S
C755 C758 1.499 . S
C756 H736 0.950 . S
C756 C755 1.414 . S
C756 C757 1.374 . S
C757 H737 0.950 . S
C757 C753 1.385 . S
C757 C756 1.374 . S
C758 C755 1.499 . S
C758 C759 1.373 . S
C758 C760 1.389 . S
C759 H738 0.950 . S
C759 C758 1.373 . S
C759 C775 1.377 . S
C760 C758 1.389 . S
C760 C761 1.524 . S
C760 C774 1.377 . S
C761 C760 1.524 . S
C761 C762 1.397 . S
C761 C766 1.363 . S
C762 H739 0.950 . S
C762 C761 1.397 . S
C762 C763 1.334 . S
C763 H740 0.950 . S
C763 C762 1.334 . S
C763 C764 1.287 . S
C764 C763 1.287 . S
C764 C765 1.524 . S
C764 H783 0.913 . S
C765 H741 0.950 . S
C765 C764 1.524 . S
C765 C766 1.415 . S
C766 H742 0.950 . S
C766 C761 1.363 . S
C766 C765 1.415 . S
C767 H743 0.951 . S
C767 C768 1.366 . S
C767 C769 1.388 . S
C768 C767 1.366 . S
C768 C772 1.385 . S
C769 H744 0.951 . S
C769 C767 1.388 . S
C769 C770 1.366 . S
C770 C769 1.366 . S
C770 C771 1.414 . S
C770 C773 1.499 . S
C771 H745 0.950 . S
C771 C770 1.414 . S
C771 C772 1.374 . S
C772 H746 0.950 . S
C772 C768 1.385 . S
C772 C771 1.374 . S
C773 C770 1.499 . S
C773 C774 1.373 . S
C773 C775 1.389 . S
C774 H747 0.950 . S
C774 C760 1.377 . S
C774 C773 1.373 . S
C775 C759 1.377 . S
C775 C773 1.389 . S
C775 C776 1.524 . S
C776 C775 1.524 . S
C776 C777 1.397 . S
C776 C781 1.363 . S
C777 H748 0.950 . S
C777 C776 1.397 . S
C777 C778 1.334 1_565 S
C778 H749 0.950 . S
C778 C777 1.334 1_545 S
C778 C779 1.287 . S
C779 C778 1.287 . S
C779 C780 1.524 . S
C779 H782 0.999 . S
C780 H750 0.950 . S
C780 C779 1.524 . S
C780 C781 1.415 1_545 S
C781 H751 0.950 . S
C781 C776 1.363 . S
C781 C780 1.415 1_565 S
H782 C779 0.999 . S
H783 C764 0.913 . S
H784 C802 0.951 . S
H785 C804 0.951 . S
H786 C806 0.950 . S
H787 C807 0.950 . S
H788 C809 0.950 . S
H789 C812 0.950 . S
H790 C813 0.950 . S
H791 C815 0.950 . S
H792 C816 0.950 . S
H793 C817 0.951 . S
H794 C819 0.951 . S
H795 C821 0.950 . S
H796 C822 0.950 . S
H797 C824 0.950 . S
H798 C827 0.950 . S
H799 C828 0.950 . S
H800 C830 0.950 1_565 S
H801 C831 0.950 . S
C802 H784 0.951 . S
C802 C803 1.366 . S
C802 C804 1.388 . S
C803 C802 1.366 . S
C803 C807 1.385 . S
C804 H785 0.951 . S
C804 C802 1.388 . S
C804 C805 1.366 . S
C805 C804 1.366 . S
C805 C806 1.414 . S
C805 C808 1.499 . S
C806 H786 0.950 . S
C806 C805 1.414 . S
C806 C807 1.374 . S
C807 H787 0.950 . S
C807 C803 1.385 . S
C807 C806 1.374 . S
C808 C805 1.499 . S
C808 C809 1.373 . S
C808 C810 1.389 . S
C809 H788 0.950 . S
C809 C808 1.373 . S
C809 C825 1.377 1_556 S
C810 C808 1.389 . S
C810 C811 1.524 . S
C810 C824 1.377 1_556 S
C811 C810 1.524 . S
C811 C812 1.397 . S
C811 C816 1.363 . S
C812 H789 0.950 . S
C812 C811 1.397 . S
C812 C813 1.334 . S
C813 H790 0.950 . S
C813 C812 1.334 . S
C813 C814 1.287 . S
C814 C813 1.287 . S
C814 C815 1.524 . S
C814 H833 0.913 . S
C815 H791 0.950 . S
C815 C814 1.524 . S
C815 C816 1.415 . S
C816 H792 0.950 . S
C816 C811 1.363 . S
C816 C815 1.415 . S
C817 H793 0.951 . S
C817 C818 1.366 . S
C817 C819 1.388 . S
C818 C817 1.366 . S
C818 C822 1.385 . S
C819 H794 0.951 . S
C819 C817 1.388 . S
C819 C820 1.366 . S
C820 C819 1.366 . S
C820 C821 1.414 . S
C820 C823 1.499 . S
C821 H795 0.950 . S
C821 C820 1.414 . S
C821 C822 1.374 . S
C822 H796 0.950 . S
C822 C818 1.385 . S
C822 C821 1.374 . S
C823 C820 1.499 . S
C823 C824 1.373 . S
C823 C825 1.389 . S
C824 H797 0.950 . S
C824 C810 1.377 1_554 S
C824 C823 1.373 . S
C825 C809 1.377 1_554 S
C825 C823 1.389 . S
C825 C826 1.524 . S
C826 C825 1.524 . S
C826 C827 1.397 . S
C826 C831 1.363 . S
C827 H798 0.950 . S
C827 C826 1.397 . S
C827 C828 1.334 . S
C828 H799 0.950 . S
C828 C827 1.334 . S
C828 C829 1.287 . S
C829 C828 1.287 . S
C829 C830 1.524 . S
C829 H832 0.999 . S
C830 H800 0.950 1_545 S
C830 C829 1.524 . S
C830 C831 1.415 . S
C831 H801 0.950 . S
C831 C826 1.363 . S
C831 C830 1.415 . S
H832 C829 0.999 . S
H833 C814 0.913 . S
H834 C852 0.951 . S
H835 C854 0.951 . S
H836 C856 0.950 . S
H837 C857 0.950 . S
H838 C859 0.950 . S
H839 C862 0.950 . S
H840 C863 0.950 . S
H841 C865 0.950 . S
H842 C866 0.950 . S
H843 C867 0.951 . S
H844 C869 0.951 . S
H845 C871 0.950 . S
H846 C872 0.950 . S
H847 C874 0.950 . S
H848 C877 0.950 . S
H849 C878 0.950 . S
H850 C880 0.950 . S
H851 C881 0.950 . S
C852 H834 0.951 . S
C852 C853 1.366 . S
C852 C854 1.388 . S
C853 C852 1.366 . S
C853 C857 1.385 . S
C854 H835 0.951 . S
C854 C852 1.388 . S
C854 C855 1.366 . S
C855 C854 1.366 . S
C855 C856 1.414 . S
C855 C858 1.499 . S
C856 H836 0.950 . S
C856 C855 1.414 . S
C856 C857 1.374 . S
C857 H837 0.950 . S
C857 C853 1.385 . S
C857 C856 1.374 . S
C858 C855 1.499 . S
C858 C859 1.373 . S
C858 C860 1.389 . S
C859 H838 0.950 . S
C859 C858 1.373 . S
C859 C875 1.377 . S
C860 C858 1.389 . S
C860 C861 1.524 . S
C860 C874 1.377 . S
C861 C860 1.524 . S
C861 C862 1.397 . S
C861 C866 1.363 . S
C862 H839 0.950 . S
C862 C861 1.397 . S
C862 C863 1.334 . S
C863 H840 0.950 . S
C863 C862 1.334 . S
C863 C864 1.287 . S
C864 C863 1.287 . S
C864 C865 1.524 . S
C864 H883 0.913 . S
C865 H841 0.950 . S
C865 C864 1.524 . S
C865 C866 1.415 . S
C866 H842 0.950 . S
C866 C861 1.363 . S
C866 C865 1.415 . S
C867 H843 0.951 . S
C867 C868 1.366 . S
C867 C869 1.388 . S
C868 C867 1.366 . S
C868 C872 1.385 . S
C869 H844 0.951 . S
C869 C867 1.388 . S
C869 C870 1.366 . S
C870 C869 1.366 . S
C870 C871 1.414 . S
C870 C873 1.499 . S
C871 H845 0.950 . S
C871 C870 1.414 . S
C871 C872 1.374 . S
C872 H846 0.950 . S
C872 C868 1.385 . S
C872 C871 1.374 . S
C873 C870 1.499 . S
C873 C874 1.373 . S
C873 C875 1.389 . S
C874 H847 0.950 . S
C874 C860 1.377 . S
C874 C873 1.373 . S
C875 C859 1.377 . S
C875 C873 1.389 . S
C875 C876 1.524 . S
C876 C875 1.524 . S
C876 C877 1.397 . S
C876 C881 1.363 . S
C877 H848 0.950 . S
C877 C876 1.397 . S
C877 C878 1.334 . S
C878 H849 0.950 . S
C878 C877 1.334 . S
C878 C879 1.287 . S
C879 C878 1.287 . S
C879 C880 1.524 . S
C879 H882 0.999 . S
C880 H850 0.950 . S
C880 C879 1.524 . S
C880 C881 1.415 . S
C881 H851 0.950 . S
C881 C876 1.363 . S
C881 C880 1.415 . S
H882 C879 0.999 . S
H883 C864 0.913 . S
H884 C902 0.951 . S
H885 C904 0.951 . S
H886 C906 0.950 . S
H887 C907 0.950 . S
H888 C909 0.950 . S
H889 C912 0.950 . S
H890 C913 0.950 . S
H891 C915 0.950 . S
H892 C916 0.950 . S
H893 C917 0.951 . S
H894 C919 0.951 . S
H895 C921 0.950 . S
H896 C922 0.950 . S
H897 C924 0.950 . S
H898 C927 0.950 . S
H899 C928 0.950 . S
H900 C930 0.950 1_545 S
H901 C931 0.950 . S
C902 H884 0.951 . S
C902 C903 1.366 . S
C902 C904 1.388 . S
C903 C902 1.366 . S
C903 C907 1.385 . S
C904 H885 0.951 . S
C904 C902 1.388 . S
C904 C905 1.366 . S
C905 C904 1.366 . S
C905 C906 1.414 . S
C905 C908 1.499 . S
C906 H886 0.950 . S
C906 C905 1.414 . S
C906 C907 1.374 . S
C907 H887 0.950 . S
C907 C903 1.385 . S
C907 C906 1.374 . S
C908 C905 1.499 . S
C908 C909 1.373 . S
C908 C910 1.389 . S
C909 H888 0.950 . S
C909 C908 1.373 . S
C909 C925 1.377 . S
C910 C908 1.389 . S
C910 C911 1.524 . S
C910 C924 1.377 . S
C911 C910 1.524 . S
C911 C912 1.397 . S
C911 C916 1.363 . S
C912 H889 0.950 . S
C912 C911 1.397 . S
C912 C913 1.334 . S
C913 H890 0.950 . S
C913 C912 1.334 . S
C913 C914 1.287 . S
C914 C913 1.287 . S
C914 C915 1.524 . S
C914 H933 0.913 . S
C915 H891 0.950 . S
C915 C914 1.524 . S
C915 C916 1.415 . S
C916 H892 0.950 . S
C916 C911 1.363 . S
C916 C915 1.415 . S
C917 H893 0.951 . S
C917 C918 1.366 . S
C917 C919 1.388 . S
C918 C917 1.366 . S
C918 C922 1.385 . S
C919 H894 0.951 . S
C919 C917 1.388 . S
C919 C920 1.366 . S
C920 C919 1.366 . S
C920 C921 1.414 . S
C920 C923 1.499 . S
C921 H895 0.950 . S
C921 C920 1.414 . S
C921 C922 1.374 . S
C922 H896 0.950 . S
C922 C918 1.385 . S
C922 C921 1.374 . S
C923 C920 1.499 . S
C923 C924 1.373 . S
C923 C925 1.389 . S
C924 H897 0.950 . S
C924 C910 1.377 . S
C924 C923 1.373 . S
C925 C909 1.377 . S
C925 C923 1.389 . S
C925 C926 1.524 . S
C926 C925 1.524 . S
C926 C927 1.397 . S
C926 C931 1.363 . S
C927 H898 0.950 . S
C927 C926 1.397 . S
C927 C928 1.334 . S
C928 H899 0.950 . S
C928 C927 1.334 . S
C928 C929 1.287 . S
C929 C928 1.287 . S
C929 C930 1.524 . S
C929 H932 0.999 . S
C930 H900 0.950 1_565 S
C930 C929 1.524 . S
C930 C931 1.415 . S
C931 H901 0.950 . S
C931 C926 1.363 . S
C931 C930 1.415 . S
H932 C929 0.999 . S
H933 C914 0.913 . S
H934 C952 0.951 . S
H935 C954 0.951 . S
H936 C956 0.950 . S
H937 C957 0.950 . S
H938 C959 0.950 . S
H939 C962 0.950 . S
H940 C963 0.950 . S
H941 C965 0.950 . S
H942 C966 0.950 . S
H943 C967 0.951 . S
H944 C969 0.951 . S
H945 C971 0.950 . S
H946 C972 0.950 . S
H947 C974 0.950 . S
H948 C977 0.950 . S
H949 C978 0.950 . S
H950 C980 0.950 . S
H951 C981 0.950 . S
C952 H934 0.951 . S
C952 C953 1.366 . S
C952 C954 1.388 . S
C953 C952 1.366 . S
C953 C957 1.385 . S
C954 H935 0.951 . S
C954 C952 1.388 . S
C954 C955 1.366 . S
C955 C954 1.366 . S
C955 C956 1.414 . S
C955 C958 1.499 . S
C956 H936 0.950 . S
C956 C955 1.414 . S
C956 C957 1.374 . S
C957 H937 0.950 . S
C957 C953 1.385 . S
C957 C956 1.374 . S
C958 C955 1.499 . S
C958 C959 1.373 . S
C958 C960 1.389 . S
C959 H938 0.950 . S
C959 C958 1.373 . S
C959 C975 1.377 . S
C960 C958 1.389 . S
C960 C961 1.524 . S
C960 C974 1.377 . S
C961 C960 1.524 . S
C961 C962 1.397 . S
C961 C966 1.363 . S
C962 H939 0.950 . S
C962 C961 1.397 . S
C962 C963 1.334 . S
C963 H940 0.950 . S
C963 C962 1.334 . S
C963 C964 1.287 . S
C964 C963 1.287 . S
C964 C965 1.524 . S
C964 H983 0.913 . S
C965 H941 0.950 . S
C965 C964 1.524 . S
C965 C966 1.415 . S
C966 H942 0.950 . S
C966 C961 1.363 . S
C966 C965 1.415 . S
C967 H943 0.951 . S
C967 C968 1.366 . S
C967 C969 1.388 . S
C968 C967 1.366 . S
C968 C972 1.385 . S
C969 H944 0.951 . S
C969 C967 1.388 . S
C969 C970 1.366 . S
C970 C969 1.366 . S
C970 C971 1.414 . S
C970 C973 1.499 . S
C971 H945 0.950 . S
C971 C970 1.414 . S
C971 C972 1.374 . S
C972 H946 0.950 . S
C972 C968 1.385 . S
C972 C971 1.374 . S
C973 C970 1.499 . S
C973 C974 1.373 . S
C973 C975 1.389 . S
C974 H947 0.950 . S
C974 C960 1.377 . S
C974 C973 1.373 . S
C975 C959 1.377 . S
C975 C973 1.389 . S
C975 C976 1.524 . S
C976 C975 1.524 . S
C976 C977 1.397 . S
C976 C981 1.363 . S
C977 H948 0.950 . S
C977 C976 1.397 . S
C977 C978 1.334 . S
C978 H949 0.950 . S
C978 C977 1.334 . S
C978 C979 1.287 . S
C979 C978 1.287 . S
C979 C980 1.524 . S
C979 H982 0.999 . S
C980 H950 0.950 . S
C980 C979 1.524 . S
C980 C981 1.415 . S
C981 H951 0.950 . S
C981 C976 1.363 . S
C981 C980 1.415 . S
H982 C979 0.999 . S
H983 C964 0.913 . S
H984 C1002 0.951 . S
H985 C1004 0.951 . S
H986 C1006 0.950 . S
H987 C1007 0.950 . S
H988 C1009 0.950 . S
H989 C1012 0.950 . S
H990 C1013 0.950 . S
H991 C1015 0.950 . S
H992 C1016 0.950 . S
H993 C1017 0.951 . S
H994 C1019 0.951 . S
H995 C1021 0.950 . S
H996 C1022 0.950 . S
H997 C1024 0.950 . S
H998 C1027 0.950 . S
H999 C1028 0.950 . S
H1000 C1030 0.950 . S
H1001 C1031 0.950 . S
C1002 H984 0.951 . S
C1002 C1003 1.366 . S
C1002 C1004 1.388 . S
C1003 C1002 1.366 . S
C1003 C1007 1.385 . S
C1004 H985 0.951 . S
C1004 C1002 1.388 . S
C1004 C1005 1.366 . S
C1005 C1004 1.366 . S
C1005 C1006 1.414 . S
C1005 C1008 1.499 . S
C1006 H986 0.950 . S
C1006 C1005 1.414 . S
C1006 C1007 1.374 . S
C1007 H987 0.950 . S
C1007 C1003 1.385 . S
C1007 C1006 1.374 . S
C1008 C1005 1.499 . S
C1008 C1009 1.373 1_545 S
C1008 C1010 1.389 . S
C1009 H988 0.950 . S
C1009 C1008 1.373 1_565 S
C1009 C1025 1.377 . S
C1010 C1008 1.389 . S
C1010 C1011 1.524 . S
C1010 C1024 1.377 1_545 S
C1011 C1010 1.524 . S
C1011 C1012 1.397 . S
C1011 C1016 1.363 . S
C1012 H989 0.950 . S
C1012 C1011 1.397 . S
C1012 C1013 1.334 . S
C1013 H990 0.950 . S
C1013 C1012 1.334 . S
C1013 C1014 1.287 . S
C1014 C1013 1.287 . S
C1014 C1015 1.524 . S
C1014 H1033 0.913 . S
C1015 H991 0.950 . S
C1015 C1014 1.524 . S
C1015 C1016 1.415 . S
C1016 H992 0.950 . S
C1016 C1011 1.363 . S
C1016 C1015 1.415 . S
C1017 H993 0.951 . S
C1017 C1018 1.366 . S
C1017 C1019 1.388 . S
C1018 C1017 1.366 . S
C1018 C1022 1.385 . S
C1019 H994 0.951 . S
C1019 C1017 1.388 . S
C1019 C1020 1.366 . S
C1020 C1019 1.366 . S
C1020 C1021 1.414 . S
C1020 C1023 1.499 . S
C1021 H995 0.950 . S
C1021 C1020 1.414 . S
C1021 C1022 1.374 . S
C1022 H996 0.950 . S
C1022 C1018 1.385 . S
C1022 C1021 1.374 . S
C1023 C1020 1.499 . S
C1023 C1024 1.373 . S
C1023 C1025 1.389 . S
C1024 H997 0.950 . S
C1024 C1010 1.377 1_565 S
C1024 C1023 1.373 . S
C1025 C1009 1.377 . S
C1025 C1023 1.389 . S
C1025 C1026 1.524 . S
C1026 C1025 1.524 . S
C1026 C1027 1.397 . S
C1026 C1031 1.363 . S
C1027 H998 0.950 . S
C1027 C1026 1.397 . S
C1027 C1028 1.334 . S
C1028 H999 0.950 . S
C1028 C1027 1.334 . S
C1028 C1029 1.287 . S
C1029 C1028 1.287 . S
C1029 C1030 1.524 . S
C1029 H1032 0.999 . S
C1030 H1000 0.950 . S
C1030 C1029 1.524 . S
C1030 C1031 1.415 . S
C1031 H1001 0.950 . S
C1031 C1026 1.363 . S
C1031 C1030 1.415 . S
H1032 C1029 0.999 . S
H1033 C1014 0.913 . S
H1034 C1052 0.951 . S
H1035 C1054 0.951 . S
H1036 C1056 0.950 . S
H1037 C1057 0.950 . S
H1038 C1059 0.950 . S
H1039 C1062 0.950 . S
H1040 C1063 0.950 . S
H1041 C1065 0.950 . S
H1042 C1066 0.950 . S
H1043 C1067 0.951 . S
H1044 C1069 0.951 . S
H1045 C1071 0.950 . S
H1046 C1072 0.950 . S
H1047 C1074 0.950 . S
H1048 C1077 0.950 . S
H1049 C1078 0.950 . S
H1050 C1080 0.950 . S
H1051 C1081 0.950 . S
C1052 H1034 0.951 . S
C1052 C1053 1.366 . S
C1052 C1054 1.388 . S
C1053 C1052 1.366 . S
C1053 C1057 1.385 . S
C1054 H1035 0.951 . S
C1054 C1052 1.388 . S
C1054 C1055 1.366 . S
C1055 C1054 1.366 . S
C1055 C1056 1.414 . S
C1055 C1058 1.499 . S
C1056 H1036 0.950 . S
C1056 C1055 1.414 . S
C1056 C1057 1.374 . S
C1057 H1037 0.950 . S
C1057 C1053 1.385 . S
C1057 C1056 1.374 . S
C1058 C1055 1.499 . S
C1058 C1059 1.373 . S
C1058 C1060 1.389 . S
C1059 H1038 0.950 . S
C1059 C1058 1.373 . S
C1059 C1075 1.377 . S
C1060 C1058 1.389 . S
C1060 C1061 1.524 . S
C1060 C1074 1.377 . S
C1061 C1060 1.524 . S
C1061 C1062 1.397 . S
C1061 C1066 1.363 . S
C1062 H1039 0.950 . S
C1062 C1061 1.397 . S
C1062 C1063 1.334 . S
C1063 H1040 0.950 . S
C1063 C1062 1.334 . S
C1063 C1064 1.287 . S
C1064 C1063 1.287 . S
C1064 C1065 1.524 . S
C1064 H1083 0.913 . S
C1065 H1041 0.950 . S
C1065 C1064 1.524 . S
C1065 C1066 1.415 . S
C1066 H1042 0.950 . S
C1066 C1061 1.363 . S
C1066 C1065 1.415 . S
C1067 H1043 0.951 . S
C1067 C1068 1.366 . S
C1067 C1069 1.388 . S
C1068 C1067 1.366 . S
C1068 C1072 1.385 . S
C1069 H1044 0.951 . S
C1069 C1067 1.388 . S
C1069 C1070 1.366 . S
C1070 C1069 1.366 . S
C1070 C1071 1.414 . S
C1070 C1073 1.499 . S
C1071 H1045 0.950 . S
C1071 C1070 1.414 . S
C1071 C1072 1.374 . S
C1072 H1046 0.950 . S
C1072 C1068 1.385 . S
C1072 C1071 1.374 . S
C1073 C1070 1.499 . S
C1073 C1074 1.373 . S
C1073 C1075 1.389 . S
C1074 H1047 0.950 . S
C1074 C1060 1.377 . S
C1074 C1073 1.373 . S
C1075 C1059 1.377 . S
C1075 C1073 1.389 . S
C1075 C1076 1.524 . S
C1076 C1075 1.524 . S
C1076 C1077 1.397 . S
C1076 C1081 1.363 . S
C1077 H1048 0.950 . S
C1077 C1076 1.397 . S
C1077 C1078 1.334 . S
C1078 H1049 0.950 . S
C1078 C1077 1.334 . S
C1078 C1079 1.287 . S
C1079 C1078 1.287 . S
C1079 C1080 1.524 . S
C1079 H1082 0.999 . S
C1080 H1050 0.950 . S
C1080 C1079 1.524 . S
C1080 C1081 1.415 . S
C1081 H1051 0.950 . S
C1081 C1076 1.363 . S
C1081 C1080 1.415 . S
H1082 C1079 0.999 . S
H1083 C1064 0.913 . S
H1084 C1102 0.951 . S
H1085 C1104 0.951 . S
H1086 C1106 0.950 . S
H1087 C1107 0.950 . S
H1088 C1109 0.950 . S
H1089 C1112 0.950 . S
H1090 C1113 0.950 . S
H1091 C1115 0.950 . S
H1092 C1116 0.950 . S
H1093 C1117 0.951 . S
H1094 C1119 0.951 . S
H1095 C1121 0.950 . S
H1096 C1122 0.950 . S
H1097 C1124 0.950 . S
H1098 C1127 0.950 . S
H1099 C1128 0.950 . S
H1100 C1130 0.950 . S
H1101 C1131 0.950 . S
C1102 H1084 0.951 . S
C1102 C1103 1.366 . S
C1102 C1104 1.388 . S
C1103 C1102 1.366 . S
C1103 C1107 1.385 . S
C1104 H1085 0.951 . S
C1104 C1102 1.388 . S
C1104 C1105 1.366 . S
C1105 C1104 1.366 . S
C1105 C1106 1.414 . S
C1105 C1108 1.499 . S
C1106 H1086 0.950 . S
C1106 C1105 1.414 . S
C1106 C1107 1.374 . S
C1107 H1087 0.950 . S
C1107 C1103 1.385 . S
C1107 C1106 1.374 . S
C1108 C1105 1.499 . S
C1108 C1109 1.373 . S
C1108 C1110 1.389 . S
C1109 H1088 0.950 . S
C1109 C1108 1.373 . S
C1109 C1125 1.377 1_545 S
C1110 C1108 1.389 . S
C1110 C1111 1.524 . S
C1110 C1124 1.377 1_545 S
C1111 C1110 1.524 . S
C1111 C1112 1.397 . S
C1111 C1116 1.363 1_545 S
C1112 H1089 0.950 . S
C1112 C1111 1.397 . S
C1112 C1113 1.334 . S
C1113 H1090 0.950 . S
C1113 C1112 1.334 . S
C1113 C1114 1.287 . S
C1114 C1113 1.287 . S
C1114 C1115 1.524 1_545 S
C1114 H1133 0.913 . S
C1115 H1091 0.950 . S
C1115 C1114 1.524 1_565 S
C1115 C1116 1.415 . S
C1116 H1092 0.950 . S
C1116 C1111 1.363 1_565 S
C1116 C1115 1.415 . S
C1117 H1093 0.951 . S
C1117 C1118 1.366 . S
C1117 C1119 1.388 . S
C1118 C1117 1.366 . S
C1118 C1122 1.385 . S
C1119 H1094 0.951 . S
C1119 C1117 1.388 . S
C1119 C1120 1.366 . S
C1120 C1119 1.366 . S
C1120 C1121 1.414 . S
C1120 C1123 1.499 . S
C1121 H1095 0.950 . S
C1121 C1120 1.414 . S
C1121 C1122 1.374 . S
C1122 H1096 0.950 . S
C1122 C1118 1.385 . S
C1122 C1121 1.374 . S
C1123 C1120 1.499 . S
C1123 C1124 1.373 . S
C1123 C1125 1.389 . S
C1124 H1097 0.950 . S
C1124 C1110 1.377 1_565 S
C1124 C1123 1.373 . S
C1125 C1109 1.377 1_565 S
C1125 C1123 1.389 . S
C1125 C1126 1.524 . S
C1126 C1125 1.524 . S
C1126 C1127 1.397 . S
C1126 C1131 1.363 1_565 S
C1127 H1098 0.950 . S
C1127 C1126 1.397 . S
C1127 C1128 1.334 . S
C1128 H1099 0.950 . S
C1128 C1127 1.334 . S
C1128 C1129 1.287 . S
C1129 C1128 1.287 . S
C1129 C1130 1.524 1_565 S
C1129 H1132 0.999 . S
C1130 H1100 0.950 . S
C1130 C1129 1.524 1_545 S
C1130 C1131 1.415 . S
C1131 H1101 0.950 . S
C1131 C1126 1.363 1_545 S
C1131 C1130 1.415 . S
H1132 C1129 0.999 . S
H1133 C1114 0.913 . S
H1134 C1152 0.951 . S
H1135 C1154 0.951 . S
H1136 C1156 0.950 . S
H1137 C1157 0.950 . S
H1138 C1159 0.950 . S
H1139 C1162 0.950 . S
H1140 C1163 0.950 . S
H1141 C1165 0.950 . S
H1142 C1166 0.950 . S
H1143 C1167 0.951 . S
H1144 C1169 0.951 . S
H1145 C1171 0.950 . S
H1146 C1172 0.950 . S
H1147 C1174 0.950 . S
H1148 C1177 0.950 . S
H1149 C1178 0.950 . S
H1150 C1180 0.950 . S
H1151 C1181 0.950 . S
C1152 H1134 0.951 . S
C1152 C1153 1.366 . S
C1152 C1154 1.388 . S
C1153 C1152 1.366 . S
C1153 C1157 1.385 . S
C1154 H1135 0.951 . S
C1154 C1152 1.388 . S
C1154 C1155 1.366 . S
C1155 C1154 1.366 . S
C1155 C1156 1.414 . S
C1155 C1158 1.499 . S
C1156 H1136 0.950 . S
C1156 C1155 1.414 . S
C1156 C1157 1.374 . S
C1157 H1137 0.950 . S
C1157 C1153 1.385 . S
C1157 C1156 1.374 . S
C1158 C1155 1.499 . S
C1158 C1159 1.373 . S
C1158 C1160 1.389 . S
C1159 H1138 0.950 . S
C1159 C1158 1.373 . S
C1159 C1175 1.377 . S
C1160 C1158 1.389 . S
C1160 C1161 1.524 . S
C1160 C1174 1.377 . S
C1161 C1160 1.524 . S
C1161 C1162 1.397 . S
C1161 C1166 1.363 . S
C1162 H1139 0.950 . S
C1162 C1161 1.397 . S
C1162 C1163 1.334 . S
C1163 H1140 0.950 . S
C1163 C1162 1.334 . S
C1163 C1164 1.287 . S
C1164 C1163 1.287 . S
C1164 C1165 1.524 . S
C1164 H1183 0.913 . S
C1165 H1141 0.950 . S
C1165 C1164 1.524 . S
C1165 C1166 1.415 . S
C1166 H1142 0.950 . S
C1166 C1161 1.363 . S
C1166 C1165 1.415 . S
C1167 H1143 0.951 . S
C1167 C1168 1.366 . S
C1167 C1169 1.388 . S
C1168 C1167 1.366 . S
C1168 C1172 1.385 . S
C1169 H1144 0.951 . S
C1169 C1167 1.388 . S
C1169 C1170 1.366 . S
C1170 C1169 1.366 . S
C1170 C1171 1.414 . S
C1170 C1173 1.499 . S
C1171 H1145 0.950 . S
C1171 C1170 1.414 . S
C1171 C1172 1.374 . S
C1172 H1146 0.950 . S
C1172 C1168 1.385 . S
C1172 C1171 1.374 . S
C1173 C1170 1.499 . S
C1173 C1174 1.373 . S
C1173 C1175 1.389 . S
C1174 H1147 0.950 . S
C1174 C1160 1.377 . S
C1174 C1173 1.373 . S
C1175 C1159 1.377 . S
C1175 C1173 1.389 . S
C1175 C1176 1.524 . S
C1176 C1175 1.524 . S
C1176 C1177 1.397 . S
C1176 C1181 1.363 . S
C1177 H1148 0.950 . S
C1177 C1176 1.397 . S
C1177 C1178 1.334 . S
C1178 H1149 0.950 . S
C1178 C1177 1.334 . S
C1178 C1179 1.287 . S
C1179 C1178 1.287 . S
C1179 C1180 1.524 . S
C1179 H1182 0.999 . S
C1180 H1150 0.950 . S
C1180 C1179 1.524 . S
C1180 C1181 1.415 . S
C1181 H1151 0.950 . S
C1181 C1176 1.363 . S
C1181 C1180 1.415 . S
H1182 C1179 0.999 . S
H1183 C1164 0.913 . S
H1184 C1202 0.951 . S
H1185 C1204 0.951 . S
H1186 C1206 0.950 . S
H1187 C1207 0.950 . S
H1188 C1209 0.950 . S
H1189 C1212 0.950 . S
H1190 C1213 0.950 . S
H1191 C1215 0.950 . S
H1192 C1216 0.950 . S
H1193 C1217 0.951 . S
H1194 C1219 0.951 . S
H1195 C1221 0.950 . S
H1196 C1222 0.950 . S
H1197 C1224 0.950 . S
H1198 C1227 0.950 . S
H1199 C1228 0.950 . S
H1200 C1230 0.950 . S
H1201 C1231 0.950 . S
C1202 H1184 0.951 . S
C1202 C1203 1.366 . S
C1202 C1204 1.388 . S
C1203 C1202 1.366 . S
C1203 C1207 1.385 . S
C1204 H1185 0.951 . S
C1204 C1202 1.388 . S
C1204 C1205 1.366 . S
C1205 C1204 1.366 . S
C1205 C1206 1.414 . S
C1205 C1208 1.499 . S
C1206 H1186 0.950 . S
C1206 C1205 1.414 . S
C1206 C1207 1.374 . S
C1207 H1187 0.950 . S
C1207 C1203 1.385 . S
C1207 C1206 1.374 . S
C1208 C1205 1.499 . S
C1208 C1209 1.373 . S
C1208 C1210 1.389 . S
C1209 H1188 0.950 . S
C1209 C1208 1.373 . S
C1209 C1225 1.377 . S
C1210 C1208 1.389 . S
C1210 C1211 1.524 . S
C1210 C1224 1.377 . S
C1211 C1210 1.524 . S
C1211 C1212 1.397 . S
C1211 C1216 1.363 . S
C1212 H1189 0.950 . S
C1212 C1211 1.397 . S
C1212 C1213 1.334 . S
C1213 H1190 0.950 . S
C1213 C1212 1.334 . S
C1213 C1214 1.287 . S
C1214 C1213 1.287 . S
C1214 C1215 1.524 . S
C1214 H1233 0.913 . S
C1215 H1191 0.950 . S
C1215 C1214 1.524 . S
C1215 C1216 1.415 . S
C1216 H1192 0.950 . S
C1216 C1211 1.363 . S
C1216 C1215 1.415 . S
C1217 H1193 0.951 . S
C1217 C1218 1.366 . S
C1217 C1219 1.388 . S
C1218 C1217 1.366 . S
C1218 C1222 1.385 . S
C1219 H1194 0.951 . S
C1219 C1217 1.388 . S
C1219 C1220 1.366 . S
C1220 C1219 1.366 . S
C1220 C1221 1.414 . S
C1220 C1223 1.499 . S
C1221 H1195 0.950 . S
C1221 C1220 1.414 . S
C1221 C1222 1.374 . S
C1222 H1196 0.950 . S
C1222 C1218 1.385 . S
C1222 C1221 1.374 . S
C1223 C1220 1.499 . S
C1223 C1224 1.373 . S
C1223 C1225 1.389 . S
C1224 H1197 0.950 . S
C1224 C1210 1.377 . S
C1224 C1223 1.373 . S
C1225 C1209 1.377 . S
C1225 C1223 1.389 . S
C1225 C1226 1.524 . S
C1226 C1225 1.524 . S
C1226 C1227 1.397 . S
C1226 C1231 1.363 . S
C1227 H1198 0.950 . S
C1227 C1226 1.397 . S
C1227 C1228 1.334 . S
C1228 H1199 0.950 . S
C1228 C1227 1.334 . S
C1228 C1229 1.287 . S
C1229 C1228 1.287 . S
C1229 C1230 1.524 . S
C1229 H1232 0.999 . S
C1230 H1200 0.950 . S
C1230 C1229 1.524 . S
C1230 C1231 1.415 . S
C1231 H1201 0.950 . S
C1231 C1226 1.363 . S
C1231 C1230 1.415 . S
H1232 C1229 0.999 . S
H1233 C1214 0.913 . S
H1234 C1252 0.951 . S
H1235 C1254 0.951 . S
H1236 C1256 0.950 . S
H1237 C1257 0.950 . S
H1238 C1259 0.950 . S
H1239 C1262 0.950 . S
H1240 C1263 0.950 . S
H1241 C1265 0.950 . S
H1242 C1266 0.950 . S
H1243 C1267 0.951 . S
H1244 C1269 0.951 . S
H1245 C1271 0.950 . S
H1246 C1272 0.950 . S
H1247 C1274 0.950 . S
H1248 C1277 0.950 . S
H1249 C1278 0.950 . S
H1250 C1280 0.950 . S
H1251 C1281 0.950 . S
C1252 H1234 0.951 . S
C1252 C1253 1.366 . S
C1252 C1254 1.388 . S
C1253 C1252 1.366 . S
C1253 C1257 1.385 . S
C1254 H1235 0.951 . S
C1254 C1252 1.388 . S
C1254 C1255 1.366 . S
C1255 C1254 1.366 . S
C1255 C1256 1.414 . S
C1255 C1258 1.499 . S
C1256 H1236 0.950 . S
C1256 C1255 1.414 . S
C1256 C1257 1.374 . S
C1257 H1237 0.950 . S
C1257 C1253 1.385 . S
C1257 C1256 1.374 . S
C1258 C1255 1.499 . S
C1258 C1259 1.373 1_455 S
C1258 C1260 1.389 . S
C1259 H1238 0.950 . S
C1259 C1258 1.373 1_655 S
C1259 C1275 1.377 . S
C1260 C1258 1.389 . S
C1260 C1261 1.524 . S
C1260 C1274 1.377 1_455 S
C1261 C1260 1.524 . S
C1261 C1262 1.397 . S
C1261 C1266 1.363 . S
C1262 H1239 0.950 . S
C1262 C1261 1.397 . S
C1262 C1263 1.334 . S
C1263 H1240 0.950 . S
C1263 C1262 1.334 . S
C1263 C1264 1.287 . S
C1264 C1263 1.287 . S
C1264 C1265 1.524 . S
C1264 H1283 0.913 . S
C1265 H1241 0.950 . S
C1265 C1264 1.524 . S
C1265 C1266 1.415 . S
C1266 H1242 0.950 . S
C1266 C1261 1.363 . S
C1266 C1265 1.415 . S
C1267 H1243 0.951 . S
C1267 C1268 1.366 . S
C1267 C1269 1.388 . S
C1268 C1267 1.366 . S
C1268 C1272 1.385 . S
C1269 H1244 0.951 . S
C1269 C1267 1.388 . S
C1269 C1270 1.366 . S
C1270 C1269 1.366 . S
C1270 C1271 1.414 . S
C1270 C1273 1.499 . S
C1271 H1245 0.950 . S
C1271 C1270 1.414 . S
C1271 C1272 1.374 . S
C1272 H1246 0.950 . S
C1272 C1268 1.385 . S
C1272 C1271 1.374 . S
C1273 C1270 1.499 . S
C1273 C1274 1.373 . S
C1273 C1275 1.389 . S
C1274 H1247 0.950 . S
C1274 C1260 1.377 1_655 S
C1274 C1273 1.373 . S
C1275 C1259 1.377 . S
C1275 C1273 1.389 . S
C1275 C1276 1.524 . S
C1276 C1275 1.524 . S
C1276 C1277 1.397 . S
C1276 C1281 1.363 . S
C1277 H1248 0.950 . S
C1277 C1276 1.397 . S
C1277 C1278 1.334 . S
C1278 H1249 0.950 . S
C1278 C1277 1.334 . S
C1278 C1279 1.287 . S
C1279 C1278 1.287 . S
C1279 C1280 1.524 . S
C1279 H1282 0.999 . S
C1280 H1250 0.950 . S
C1280 C1279 1.524 . S
C1280 C1281 1.415 . S
C1281 H1251 0.950 . S
C1281 C1276 1.363 . S
C1281 C1280 1.415 . S
H1282 C1279 0.999 . S
H1283 C1264 0.913 . S
H1284 C1302 0.951 . S
H1285 C1304 0.951 . S
H1286 C1306 0.950 . S
H1287 C1307 0.950 . S
H1288 C1309 0.950 . S
H1289 C1312 0.950 . S
H1290 C1313 0.950 . S
H1291 C1315 0.950 . S
H1292 C1316 0.950 . S
H1293 C1317 0.951 . S
H1294 C1319 0.951 . S
H1295 C1321 0.950 . S
H1296 C1322 0.950 . S
H1297 C1324 0.950 . S
H1298 C1327 0.950 . S
H1299 C1328 0.950 . S
H1300 C1330 0.950 . S
H1301 C1331 0.950 . S
C1302 H1284 0.951 . S
C1302 C1303 1.366 . S
C1302 C1304 1.388 . S
C1303 C1302 1.366 . S
C1303 C1307 1.385 . S
C1304 H1285 0.951 . S
C1304 C1302 1.388 . S
C1304 C1305 1.366 . S
C1305 C1304 1.366 . S
C1305 C1306 1.414 . S
C1305 C1308 1.499 . S
C1306 H1286 0.950 . S
C1306 C1305 1.414 . S
C1306 C1307 1.374 . S
C1307 H1287 0.950 . S
C1307 C1303 1.385 . S
C1307 C1306 1.374 . S
C1308 C1305 1.499 . S
C1308 C1309 1.373 . S
C1308 C1310 1.389 . S
C1309 H1288 0.950 . S
C1309 C1308 1.373 . S
C1309 C1325 1.377 . S
C1310 C1308 1.389 . S
C1310 C1311 1.524 . S
C1310 C1324 1.377 . S
C1311 C1310 1.524 . S
C1311 C1312 1.397 . S
C1311 C1316 1.363 . S
C1312 H1289 0.950 . S
C1312 C1311 1.397 . S
C1312 C1313 1.334 . S
C1313 H1290 0.950 . S
C1313 C1312 1.334 . S
C1313 C1314 1.287 . S
C1314 C1313 1.287 . S
C1314 C1315 1.524 . S
C1314 H1333 0.913 . S
C1315 H1291 0.950 . S
C1315 C1314 1.524 . S
C1315 C1316 1.415 . S
C1316 H1292 0.950 . S
C1316 C1311 1.363 . S
C1316 C1315 1.415 . S
C1317 H1293 0.951 . S
C1317 C1318 1.366 . S
C1317 C1319 1.388 . S
C1318 C1317 1.366 . S
C1318 C1322 1.385 . S
C1319 H1294 0.951 . S
C1319 C1317 1.388 . S
C1319 C1320 1.366 . S
C1320 C1319 1.366 . S
C1320 C1321 1.414 . S
C1320 C1323 1.499 . S
C1321 H1295 0.950 . S
C1321 C1320 1.414 . S
C1321 C1322 1.374 . S
C1322 H1296 0.950 . S
C1322 C1318 1.385 . S
C1322 C1321 1.374 . S
C1323 C1320 1.499 . S
C1323 C1324 1.373 . S
C1323 C1325 1.389 . S
C1324 H1297 0.950 . S
C1324 C1310 1.377 . S
C1324 C1323 1.373 . S
C1325 C1309 1.377 . S
C1325 C1323 1.389 . S
C1325 C1326 1.524 . S
C1326 C1325 1.524 . S
C1326 C1327 1.397 . S
C1326 C1331 1.363 . S
C1327 H1298 0.950 . S
C1327 C1326 1.397 . S
C1327 C1328 1.334 . S
C1328 H1299 0.950 . S
C1328 C1327 1.334 . S
C1328 C1329 1.287 . S
C1329 C1328 1.287 . S
C1329 C1330 1.524 . S
C1329 H1332 0.999 . S
C1330 H1300 0.950 . S
C1330 C1329 1.524 . S
C1330 C1331 1.415 . S
C1331 H1301 0.950 . S
C1331 C1326 1.363 . S
C1331 C1330 1.415 . S
H1332 C1329 0.999 . S
H1333 C1314 0.913 . S
H1334 C1352 0.951 . S
H1335 C1354 0.951 . S
H1336 C1356 0.950 . S
H1337 C1357 0.950 . S
H1338 C1359 0.950 . S
H1339 C1362 0.950 . S
H1340 C1363 0.950 . S
H1341 C1365 0.950 . S
H1342 C1366 0.950 . S
H1343 C1367 0.951 . S
H1344 C1369 0.951 . S
H1345 C1371 0.950 . S
H1346 C1372 0.950 . S
H1347 C1374 0.950 . S
H1348 C1377 0.950 . S
H1349 C1378 0.950 . S
H1350 C1380 0.950 . S
H1351 C1381 0.950 . S
C1352 H1334 0.951 . S
C1352 C1353 1.366 . S
C1352 C1354 1.388 . S
C1353 C1352 1.366 . S
C1353 C1357 1.385 . S
C1354 H1335 0.951 . S
C1354 C1352 1.388 . S
C1354 C1355 1.366 . S
C1355 C1354 1.366 . S
C1355 C1356 1.414 . S
C1355 C1358 1.499 . S
C1356 H1336 0.950 . S
C1356 C1355 1.414 . S
C1356 C1357 1.374 . S
C1357 H1337 0.950 . S
C1357 C1353 1.385 . S
C1357 C1356 1.374 . S
C1358 C1355 1.499 . S
C1358 C1359 1.373 . S
C1358 C1360 1.389 1_655 S
C1359 H1338 0.950 . S
C1359 C1358 1.373 . S
C1359 C1375 1.377 1_655 S
C1360 C1358 1.389 1_455 S
C1360 C1361 1.524 . S
C1360 C1374 1.377 . S
C1361 C1360 1.524 . S
C1361 C1362 1.397 1_455 S
C1361 C1366 1.363 . S
C1362 H1339 0.950 . S
C1362 C1361 1.397 1_655 S
C1362 C1363 1.334 . S
C1363 H1340 0.950 . S
C1363 C1362 1.334 . S
C1363 C1364 1.287 1_655 S
C1364 C1363 1.287 1_455 S
C1364 C1365 1.524 . S
C1364 H1383 0.913 . S
C1365 H1341 0.950 . S
C1365 C1364 1.524 . S
C1365 C1366 1.415 . S
C1366 H1342 0.950 . S
C1366 C1361 1.363 . S
C1366 C1365 1.415 . S
C1367 H1343 0.951 . S
C1367 C1368 1.366 . S
C1367 C1369 1.388 . S
C1368 C1367 1.366 . S
C1368 C1372 1.385 . S
C1369 H1344 0.951 . S
C1369 C1367 1.388 . S
C1369 C1370 1.366 . S
C1370 C1369 1.366 . S
C1370 C1371 1.414 . S
C1370 C1373 1.499 . S
C1371 H1345 0.950 . S
C1371 C1370 1.414 . S
C1371 C1372 1.374 . S
C1372 H1346 0.950 . S
C1372 C1368 1.385 . S
C1372 C1371 1.374 . S
C1373 C1370 1.499 . S
C1373 C1374 1.373 . S
C1373 C1375 1.389 . S
C1374 H1347 0.950 . S
C1374 C1360 1.377 . S
C1374 C1373 1.373 . S
C1375 C1359 1.377 1_455 S
C1375 C1373 1.389 . S
C1375 C1376 1.524 . S
C1376 C1375 1.524 . S
C1376 C1377 1.397 . S
C1376 C1381 1.363 1_455 S
C1377 H1348 0.950 . S
C1377 C1376 1.397 . S
C1377 C1378 1.334 . S
C1378 H1349 0.950 . S
C1378 C1377 1.334 . S
C1378 C1379 1.280 1_455 S
C1379 C1378 1.280 1_655 S
C1379 C1380 1.530 . S
C1379 H1382 1.000 . S
C1380 H1350 0.950 . S
C1380 C1379 1.530 . S
C1380 C1381 1.415 . S
C1381 H1351 0.950 . S
C1381 C1376 1.363 1_655 S
C1381 C1380 1.415 . S
H1382 C1379 1.000 . S
H1383 C1364 0.913 . S
C203 C18 1.036 . S
C218 C181 1.025 . S
C253 C43 1.024 . S
C268 C110 1.036 . S
C303 C64 1.066 . S
C318 C133 1.066 . S
C353 C156 1.066 . S
C368 C87 1.067 . S
C403 C16 1.147 . S
C418 C41 1.168 . S
C453 C66 1.078 . S
C468 C40 1.085 . S
C503 C89 1.128 . S
C518 C62 1.122 . S
C553 C20 1.117 . S
C568 C85 1.111 . S
C603 C108 1.147 . S
C618 C179 1.168 . S
C653 C131 1.112 . S
C668 C112 1.117 . S
C703 C154 1.121 . S
C718 C135 1.127 . S
C753 C158 1.079 . S
C768 C178 1.084 . S
C803 C132 0.661 . S
C818 C17 0.660 . S
C853 C155 0.698 . S
C868 C39 0.703 . S
C903 C177 0.703 . S
C918 C63 0.698 . S
C953 C109 0.660 . S
C968 C86 0.661 . S
C1003 C19 1.932 . S
C1018 C159 1.948 . S
C1053 C44 1.920 . S
C1068 C180 1.897 . S
C1103 C113 1.871 . S
C1118 C65 1.857 . S
C1153 C136 1.916 . S
C1168 C88 1.901 . S
C1203 C67 1.948 . S
C1218 C111 1.932 . S
C1253 C134 1.901 . S
C1268 C90 1.916 . S
C1303 C157 1.856 . S
C1318 C21 1.871 . S
C1353 C182 1.920 . S
C1368 C42 1.896 . S
