# Generated by pormake.
# Topology cdl, (4)-cn, num edge types: 1
# Building blocks:
#     Node 0, Type 0, BuildingBlock: KOZSID_clean_sbu_0, # of connection points: 4
#     Node 1, Type 0, BuildingBlock: KOZSID_clean_sbu_0, # of connection points: 4
#     Node 2, Type 0, BuildingBlock: KOZSID_clean_sbu_0, # of connection points: 4
#     Node 3, Type 0, BuildingBlock: KOZSID_clean_sbu_0, # of connection points: 4
#     Edge 4, Type (0, 0), BuildingBlock: TEMPAE_clean_linker_10, # of connection points: 2
#     Edge 5, Type (0, 0), BuildingBlock: TEMPAE_clean_linker_10, # of connection points: 2
#     Edge 6, Type (0, 0), BuildingBlock: TEMPAE_clean_linker_10, # of connection points: 2
#     Edge 7, Type (0, 0), BuildingBlock: TEMPAE_clean_linker_10, # of connection points: 2
#     Edge 8, Type (0, 0), BuildingBlock: TEMPAE_clean_linker_10, # of connection points: 2
#     Edge 9, Type (0, 0), BuildingBlock: TEMPAE_clean_linker_10, # of connection points: 2
#     Edge 10, Type (0, 0), BuildingBlock: TEMPAE_clean_linker_10, # of connection points: 2
#     Edge 11, Type (0, 0), BuildingBlock: TEMPAE_clean_linker_10, # of connection points: 2
# Relax obj value: 0.000
# Max RMSD: 0.025
# Mean RMSD: 0.023
data_MOF--net-cdl--node1-KOZSID_clean_sbu_0--edge1-TEMPAE_clean_linker_10
_symmetry_space_group_name_H-M    P1
_symmetry_Int_Tables_number       1
_symmetry_cell_setting            triclinic
loop_
_symmetry_equiv_pos_as_xyz
'x, y, z'
_cell_length_a     16.889074
_cell_length_b     19.812138
_cell_length_c     73.402806
_cell_angle_alpha  107.5232
_cell_angle_beta   105.98469
_cell_angle_gamma 84.828936
loop_
_atom_site_label
_atom_site_type_symbol
_atom_site_fract_x
_atom_site_fract_y
_atom_site_fract_z
_atom_type_partial_charge
C0 C 0.18291 0.15772 0.16396 0.0
C1 C 0.25933 0.16158 0.17758 0.0
C2 C 0.31718 0.15325 0.16729 0.0
C3 C 0.27324 0.1441 0.14804 0.0
N4 N 0.19063 0.14699 0.14537 0.0
Co5 Co 0.10418 0.12932 0.11943 0.0
N6 N 0.18975 0.11123 0.10411 0.0
C7 C 0.27248 0.11299 0.11169 0.0
C8 C 0.31574 0.10656 0.098 0.0
C9 C 0.25741 0.10126 0.08063 0.0
C10 C 0.1812 0.10352 0.08463 0.0
N11 N 0.01778 0.11091 0.09357 0.0
C12 C 0.02559 0.09716 0.07491 0.0
C13 C 0.94967 0.0842 0.06101 0.0
C14 C 0.89166 0.09332 0.07132 0.0
C15 C 0.93524 0.11014 0.0908 0.0
N16 N 0.01854 0.14827 0.13467 0.0
C17 C 0.93582 0.14878 0.12722 0.0
C18 C 0.89279 0.16426 0.14131 0.0
C19 C 0.9514 0.17315 0.15883 0.0
C20 C 0.0271 0.16184 0.15435 0.0
N21 N 0.10356 0.23169 0.12097 0.0
C22 C 0.10329 0.37472 0.12103 0.0
C23 C 0.02961 0.33861 0.11634 0.0
C24 C 0.03113 0.26773 0.1163 0.0
C25 C 0.17701 0.33825 0.12602 0.0
C26 C 0.17575 0.26772 0.12605 0.0
N27 N 0.10478 0.02685 0.1179 0.0
C28 C 0.03165 0.92053 0.11329 0.0
C29 C 0.10548 0.88356 0.1177 0.0
C30 C 0.17899 0.91935 0.12193 0.0
C31 C 0.17724 0.99005 0.12179 0.0
C32 C 0.03269 0.99143 0.11358 0.0
H33 H 0.2354 0.0139 0.125 0.0
H34 H 0.97425 0.01663 0.11049 0.0
H35 H 0.97289 0.24292 0.11219 0.0
H36 H 0.2341 0.24332 0.13009 0.0
C37 C 0.30768 0.12822 0.13201 0.0
C38 C 0.10488 0.16098 0.16918 0.0
C39 C 0.10235 0.10113 0.06974 0.0
C40 C 0.90032 0.12956 0.10682 0.0
H41 H 0.2725 0.16775 0.19326 0.0
H42 H 0.38339 0.15159 0.17305 0.0
H43 H 0.38181 0.10901 0.10054 0.0
H44 H 0.27058 0.09867 0.06685 0.0
H45 H 0.93723 0.07163 0.04509 0.0
H46 H 0.82549 0.08998 0.06534 0.0
H47 H 0.82663 0.1668 0.13907 0.0
H48 H 0.93965 0.1849 0.17325 0.0
H49 H 0.97083 0.36439 0.11224 0.0
H50 H 0.23574 0.36418 0.13006 0.0
H51 H 0.97302 0.89538 0.11007 0.0
H52 H 0.23785 0.89275 0.12518 0.0
C53 C 0.22503 0.17872 0.64999 0.0
C54 C 0.26344 0.24332 0.66036 0.0
C55 C 0.20234 0.2929 0.66223 0.0
C56 C 0.13046 0.25578 0.65322 0.0
N57 N 0.14203 0.18539 0.64595 0.0
Co58 Co 0.05478 0.11134 0.6334 0.0
N59 N 0.96535 0.18485 0.63381 0.0
C60 C 0.97475 0.25581 0.63924 0.0
C61 C 0.90175 0.29259 0.63682 0.0
C62 C 0.84221 0.24209 0.62974 0.0
C63 C 0.88264 0.1773 0.62856 0.0
N64 N 0.96695 0.03716 0.62194 0.0
C65 C 0.88471 0.04385 0.62025 0.0
C66 C 0.84783 0.97808 0.61455 0.0
C67 C 0.90845 0.92844 0.6124 0.0
C68 C 0.97885 0.96625 0.61722 0.0
N69 N 0.14479 0.03798 0.63181 0.0
C70 C 0.1349 0.96714 0.6241 0.0
C71 C 0.2063 0.93051 0.62236 0.0
C72 C 0.26549 0.98094 0.62903 0.0
C73 C 0.22687 0.0459 0.6349 0.0
N74 N 0.05477 0.10813 0.66019 0.0
C75 C 0.04775 0.10209 0.69758 0.0
C76 C 0.07051 0.0427 0.68401 0.0
C77 C 0.07314 0.0467 0.66551 0.0
C78 C 0.0294 0.16473 0.69224 0.0
C79 C 0.03395 0.16678 0.67371 0.0
N80 N 0.05469 0.11462 0.60663 0.0
C81 C 0.04746 0.05514 0.57222 0.0
C82 C 0.06032 0.11873 0.5689 0.0
C83 C 0.06959 0.1803 0.58484 0.0
C84 C 0.06704 0.17703 0.60341 0.0
C85 C 0.04433 0.05437 0.59097 0.0
H86 H 0.07556 0.22573 0.61496 0.0
H87 H 0.03425 1.00424 0.59248 0.0
H88 H 0.08947 0.99914 0.65573 0.0
H89 H 0.01998 0.21645 0.67066 0.0
C90 C 0.05214 0.28619 0.64904 0.0
C91 C 0.26958 0.11391 0.64275 0.0
C92 C 0.84047 0.11135 0.62472 0.0
C93 C 0.05732 0.93676 0.61812 0.0
H94 H 0.32886 0.25389 0.66534 0.0
H95 H 0.20952 0.34958 0.66862 0.0
H96 H 0.89283 0.34942 0.64068 0.0
H97 H 0.77647 0.25201 0.62675 0.0
H98 H 0.78441 0.96625 0.61265 0.0
H99 H 0.90236 0.87158 0.60847 0.0
H100 H 0.21398 0.87402 0.61635 0.0
H101 H 0.32924 0.97022 0.62897 0.0
H102 H 0.08475 0.99287 0.68751 0.0
H103 H 0.0125 0.21233 0.70243 0.0
H104 H 0.04105 1.00569 0.56049 0.0
H105 H 0.07824 0.2312 0.58305 0.0
C106 C 0.14984 0.13231 0.9268 0.0
C107 C 0.22894 0.12983 0.93888 0.0
C108 C 0.28189 0.12153 0.92733 0.0
C109 C 0.23273 0.11803 0.90884 0.0
N110 N 0.15128 0.12456 0.90786 0.0
Co111 Co 0.05817 0.11051 0.88318 0.0
N112 N 0.13645 0.09026 0.86596 0.0
C113 C 0.21967 0.08971 0.87193 0.0
C114 C 0.25691 0.07641 0.8568 0.0
C115 C 0.19371 0.06944 0.84016 0.0
C116 C 0.12135 0.07932 0.84618 0.0
N117 N 0.96497 0.0944 0.85848 0.0
C118 C 0.96618 0.08216 0.83935 0.0
C119 C 0.88714 0.07626 0.82683 0.0
C120 C 0.83415 0.08544 0.83845 0.0
C121 C 0.88348 0.09663 0.85734 0.0
N122 N 0.97994 0.13281 0.90039 0.0
C123 C 0.89693 0.1377 0.89446 0.0
C124 C 0.85995 0.15731 0.90972 0.0
C125 C 0.92298 0.16413 0.9264 0.0
C126 C 0.99501 0.14701 0.92029 0.0
N127 N 0.05982 0.21277 0.88481 0.0
C128 C 0.06137 0.35578 0.88492 0.0
C129 C 0.98736 0.32027 0.88031 0.0
C130 C 0.98799 0.24969 0.88034 0.0
C131 C 0.13474 0.31857 0.88987 0.0
C132 C 0.13258 0.24786 0.88976 0.0
N133 N 0.05647 1.00827 0.88153 0.0
C134 C 0.98362 0.90578 0.87995 0.0
C135 C 0.05601 0.86508 0.88132 0.0
C136 C 0.1283 0.89729 0.88249 0.0
C137 C 0.12714 0.96805 0.88255 0.0
C138 C 0.98518 0.97645 0.88004 0.0
H139 H 0.18457 0.98918 0.88367 0.0
H140 H 0.92796 1.00445 0.87901 0.0
H141 H 0.92933 0.22607 0.87652 0.0
H142 H 0.19059 0.22241 0.89348 0.0
C143 C 0.261 0.10266 0.89188 0.0
C144 C 0.07504 0.13952 0.93372 0.0
C145 C 0.04019 0.08068 0.83265 0.0
C146 C 0.85521 0.11839 0.8744 0.0
H147 H 0.2474 0.13134 0.9543 0.0
H148 H 0.34818 0.1155 0.93171 0.0
H149 H 0.32222 0.07327 0.8578 0.0
H150 H 0.20014 0.0595 0.8253 0.0
H151 H 0.86923 0.06865 0.81103 0.0
H152 H 0.76754 0.08722 0.8338 0.0
H153 H 0.79476 0.16383 0.90879 0.0
H154 H 0.91634 0.17787 0.94134 0.0
H155 H 0.9287 0.34684 0.87676 0.0
H156 H 0.19388 0.34327 0.89342 0.0
H157 H 0.92561 0.88317 0.87869 0.0
H158 H 0.1863 0.86856 0.88379 0.0
C159 C 0.26079 0.20733 0.38553 0.0
C160 C 0.29926 0.27222 0.3954 0.0
C161 C 0.23828 0.32204 0.39684 0.0
C162 C 0.1664 0.28483 0.38809 0.0
N163 N 0.17778 0.21409 0.38144 0.0
Co164 Co 0.09057 0.13977 0.3693 0.0
N165 N 0.00109 0.21334 0.36991 0.0
C166 C 0.01015 0.28439 0.37543 0.0
C167 C 0.93705 0.32104 0.3732 0.0
C168 C 0.87774 0.27042 0.36621 0.0
C169 C 0.91842 0.20567 0.36488 0.0
N170 N 0.00277 0.06546 0.35782 0.0
C171 C 0.92053 0.07206 0.35611 0.0
C172 C 0.88352 1.0062 0.35008 0.0
C173 C 0.94398 0.95662 0.34768 0.0
C174 C 0.01445 0.99447 0.35268 0.0
N175 N 0.18057 0.06627 0.36805 0.0
C176 C 0.17091 0.99526 0.36079 0.0
C177 C 0.24252 0.95845 0.35946 0.0
C178 C 0.30169 1.00881 0.36599 0.0
C179 C 0.26281 0.07401 0.37134 0.0
N180 N 0.09113 0.13738 0.3962 0.0
C181 C 0.08636 0.13349 0.434 0.0
C182 C 0.09738 0.0716 0.4195 0.0
C183 C 0.09983 0.07475 0.4009 0.0
C184 C 0.07838 0.19742 0.42925 0.0
C185 C 0.0807 0.19813 0.41044 0.0
N186 N 0.08996 0.14225 0.34239 0.0
C187 C 0.08852 0.08157 0.30833 0.0
C188 C 0.09284 0.14576 0.30454 0.0
C189 C 0.09553 0.20817 0.31987 0.0
C190 C 0.09507 0.20519 0.3386 0.0
C191 C 0.08611 0.08106 0.32717 0.0
H192 H 0.09959 0.2545 0.3498 0.0
H193 H 0.0814 0.03052 0.32904 0.0
H194 H 0.10801 0.02567 0.39053 0.0
H195 H 0.0735 0.2485 0.40776 0.0
C196 C 0.08781 0.31513 0.3844 0.0
C197 C 0.30543 0.14201 0.37877 0.0
C198 C 0.87643 0.13949 0.36089 0.0
C199 C 0.0931 0.96488 0.35414 0.0
H200 H 0.3647 0.28271 0.40038 0.0
H201 H 0.24552 0.3788 0.40295 0.0
H202 H 0.92797 0.37785 0.37695 0.0
H203 H 0.81199 0.28021 0.36327 0.0
H204 H 0.8202 0.99415 0.3482 0.0
H205 H 0.93786 0.89972 0.34364 0.0
H206 H 0.25032 0.90187 0.35368 0.0
H207 H 0.36552 0.99779 0.36608 0.0
H208 H 0.10274 0.02053 0.4223 0.0
H209 H 0.07097 0.24705 0.44004 0.0
H210 H 0.08587 0.03202 0.29673 0.0
H211 H 0.09953 0.25902 0.31749 0.0
C212 C 0.04997 0.5002 0.12888 0.0
C213 C 0.10343 0.44951 0.12053 0.0
C214 C 0.05002 0.57096 0.12861 0.0
C215 C 0.10411 0.59158 0.11955 0.0
C216 C 0.15777 0.54049 0.11096 0.0
C217 C 0.1571 0.47034 0.11165 0.0
C218 C 0.99253 0.6238 0.13815 0.0
C219 C 0.21562 0.55985 0.10092 0.0
C220 C 0.05169 0.75904 0.10299 0.0
C221 C 0.10567 0.80858 0.11807 0.0
C222 C 0.05086 0.68833 0.10322 0.0
C223 C 0.10461 0.66655 0.11904 0.0
C224 C 0.15898 0.71643 0.13435 0.0
C225 C 0.15921 0.78659 0.13362 0.0
C226 C 0.9927 0.63679 0.08647 0.0
C227 C 0.21655 0.6958 0.15161 0.0
H228 H 0.0089 0.48474 0.13593 0.0
H229 H 0.19786 0.43133 0.10494 0.0
H230 H 0.02845 0.66793 0.14992 0.0
H231 H 0.95045 0.647 0.12703 0.0
H232 H 0.95491 0.59959 0.14476 0.0
H233 H 0.25275 0.51383 0.09474 0.0
H234 H 0.18006 0.58137 0.08872 0.0
H235 H 0.25817 0.60193 0.1116 0.0
H236 H 0.01073 0.77541 0.09083 0.0
H237 H 0.20037 0.82471 0.14544 0.0
H238 H 0.95025 0.61466 0.09233 0.0
H239 H 0.02802 0.59177 0.07917 0.0
H240 H 0.95546 0.6618 0.07516 0.0
H241 H 0.18068 0.6752 0.15936 0.0
H242 H 0.2543 0.74095 0.16244 0.0
H243 H 0.25851 0.65268 0.14622 0.0
C244 C 0.41942 0.08013 0.65076 0.0
C245 C 0.35547 0.11866 0.64162 0.0
C246 C 0.49868 0.07932 0.64813 0.0
C247 C 0.51576 0.12294 0.63755 0.0
C248 C 0.45289 0.16665 0.62974 0.0
C249 C 0.37279 0.16216 0.63129 0.0
C250 C 0.56321 0.03041 0.65623 0.0
C251 C 0.47018 0.21829 0.61983 0.0
C252 C 0.74274 0.15517 0.64592 0.0
C253 C 0.75656 0.1146 0.62779 0.0
C254 C 0.66389 0.16099 0.64904 0.0
C255 C 0.59861 0.12131 0.63413 0.0
C256 C 0.61265 0.07929 0.6159 0.0
C257 C 0.6907 0.07898 0.61266 0.0
C258 C 0.65132 0.2095 0.66831 0.0
C259 C 0.54597 0.03324 0.60002 0.0
H260 H 0.4066 0.04855 0.65936 0.0
H261 H 0.32354 0.19296 0.6245 0.0
H262 H 0.59475 1.00011 0.6448 0.0
H263 H 0.61049 0.06184 0.66897 0.0
H264 H 0.53645 0.99235 0.6613 0.0
H265 H 0.41796 0.25564 0.61731 0.0
H266 H 0.52628 0.24926 0.62902 0.0
H267 H 0.48176 0.18921 0.60533 0.0
H268 H 0.79363 0.18328 0.6576 0.0
H269 H 0.70079 0.0495 0.59842 0.0
H270 H 0.65698 0.17853 0.67892 0.0
H271 H 0.58945 0.23489 0.66623 0.0
H272 H 0.6986 0.25168 0.67511 0.0
H273 H 0.51828 1.00016 0.60644 0.0
H274 H 0.5697 0.99783 0.58772 0.0
H275 H 0.49609 0.06668 0.59378 0.0
C276 C 0.11876 0.47953 0.8987 0.0
C277 C 0.06159 0.43064 0.88437 0.0
C278 C 0.11885 0.55022 0.89838 0.0
C279 C 0.06025 0.57292 0.88341 0.0
C280 C 0.00255 0.52388 0.86888 0.0
C281 C 0.00406 0.45351 0.8695 0.0
C282 C 0.1815 0.60074 0.91414 0.0
C283 C 0.9391 0.54574 0.85264 0.0
C284 C 0.01004 0.76997 0.89241 0.0
C285 C 0.05648 0.79001 0.88171 0.0
C286 C 0.01078 0.69971 0.89312 0.0
C287 C 0.05925 0.64793 0.88291 0.0
C288 C 0.10623 0.66772 0.87208 0.0
C289 C 0.1042 0.7383 0.87159 0.0
C290 C 0.95978 0.68092 0.90484 0.0
C291 C 0.15859 0.61423 0.86095 0.0
H292 H 0.16281 0.46285 0.91039 0.0
H293 H 0.96051 0.41608 0.85814 0.0
H294 H 0.21907 0.62324 0.90717 0.0
H295 H 0.14968 0.64562 0.92261 0.0
H296 H 0.22342 0.57476 0.92465 0.0
H297 H 0.89821 0.5014 0.84253 0.0
H298 H 0.90049 0.58964 0.85918 0.0
H299 H 0.97017 0.56569 0.84381 0.0
H300 H 0.97394 0.80954 0.90053 0.0
H301 H 0.13942 0.75283 0.86305 0.0
H302 H 0.00011 0.65929 0.91653 0.0
H303 H 0.91505 0.63908 0.89501 0.0
H304 H 0.92534 0.72723 0.91193 0.0
H305 H 0.20409 0.58986 0.87128 0.0
H306 H 0.19223 0.63818 0.85341 0.0
H307 H 0.11935 0.571 0.84968 0.0
C308 C 0.40814 0.18865 0.36683 0.0
C309 C 0.39118 0.14625 0.37749 0.0
C310 C 0.48818 0.19323 0.36528 0.0
C311 C 0.55128 0.15022 0.37332 0.0
C312 C 0.5344 0.10713 0.38407 0.0
C313 C 0.45533 0.10841 0.38683 0.0
C314 C 0.50456 0.2437 0.3549 0.0
C315 C 0.59863 0.05754 0.39196 0.0
C316 C 0.72681 0.10661 0.34865 0.0
C317 C 0.79239 0.14234 0.36386 0.0
C318 C 0.6487 0.10643 0.35181 0.0
C319 C 0.63419 0.14852 0.36997 0.0
C320 C 0.69893 0.18876 0.38489 0.0
C321 C 0.77802 0.18304 0.38192 0.0
C322 C 0.58238 0.06035 0.33581 0.0
C323 C 0.68457 0.23877 0.4038 0.0
H324 H 0.35868 0.21869 0.35979 0.0
H325 H 0.44276 0.07756 0.39565 0.0
H326 H 0.56492 0.27009 0.36259 0.0
H327 H 0.50617 0.21411 0.33957 0.0
H328 H 0.45573 0.28503 0.3541 0.0
H329 H 0.57293 0.02257 0.39821 0.0
H330 H 0.62517 0.02392 0.37994 0.0
H331 H 0.64979 0.08815 0.4037 0.0
H332 H 0.7371 0.07746 0.33441 0.0
H333 H 0.82859 0.21158 0.39361 0.0
H334 H 0.53585 0.09382 0.32858 0.0
H335 H 0.55029 0.03052 0.34224 0.0
H336 H 0.60769 0.02195 0.32424 0.0
H337 H 0.62913 0.2721 0.40045 0.0
H338 H 0.73804 0.27397 0.41239 0.0
H339 H 0.6734 0.20834 0.41326 0.0
C340 C 0.03177 0.08408 0.95595 0.0
C341 C 0.07877 0.13479 0.95387 0.0
C342 C 0.03194 0.08014 0.97472 0.0
C343 C 0.08497 0.12459 0.99178 0.0
C344 C 0.13392 0.17491 0.98974 0.0
C345 C 0.12738 0.18147 0.97086 0.0
C346 C 0.97463 0.02901 0.97626 0.0
C347 C 0.19454 0.22075 0.00739 0.0
C348 C 0.05144 0.1608 0.04298 0.0
C349 C 0.09879 0.107 0.04971 0.0
C350 C 0.04386 0.1655 0.02387 0.0
C351 C 0.08941 0.11832 0.01174 0.0
C352 C 0.13894 0.06493 0.01867 0.0
C353 C 0.14007 0.05805 0.03722 0.0
C354 C 0.98585 0.22 0.01658 0.0
C355 C 0.19169 0.01569 0.00666 0.0
H356 H 0.99355 0.04828 0.94283 0.0
H357 H 0.16187 0.22211 0.96934 0.0
H358 H 0.01048 0.98428 0.98071 0.0
H359 H 0.9418 0.05555 0.98774 0.0
H360 H 0.92827 1.00711 0.96198 0.0
H361 H 0.23505 0.25059 0.00296 0.0
H362 H 0.16116 0.25928 0.01713 0.0
H363 H 0.23374 0.18763 0.01625 0.0
H364 H 0.01876 0.19832 0.05255 0.0
H365 H 0.17461 0.01506 0.04213 0.0
H366 H 0.94473 0.19485 0.00177 0.0
H367 H 0.02132 0.26134 0.01499 0.0
H368 H 0.94723 0.24615 0.02683 0.0
H369 H 0.15215 0.97807 0.9936 0.0
H370 H 0.23572 0.98468 0.0154 0.0
H371 H 0.22704 0.04619 1.00113 0.0
C372 C 0.13487 0.08571 0.46332 0.0
C373 C 0.08279 0.13136 0.45387 0.0
C374 C 0.13171 0.08283 0.48198 0.0
C375 C 0.07573 0.12717 0.49155 0.0
C376 C 0.0233 0.17362 0.48218 0.0
C377 C 0.02713 0.17488 0.46342 0.0
C378 C 0.18829 0.03228 0.49146 0.0
C379 C 0.96309 0.22201 0.49196 0.0
C380 C 0.01303 0.07753 0.53173 0.0
C381 C 0.06433 0.12081 0.54904 0.0
C382 C 0.01662 0.07861 0.51294 0.0
C383 C 0.07191 0.12489 0.51137 0.0
C384 C 0.12347 0.16907 0.52873 0.0
C385 C 0.11955 0.16609 0.54733 0.0
C386 C 0.96117 0.03022 0.49475 0.0
C387 C 0.18276 0.21957 0.52766 0.0
H388 H 0.17891 0.05265 0.45622 0.0
H389 H 0.98569 0.20947 0.45613 0.0
H390 H 0.22902 0.06211 0.5058 0.0
H391 H 0.15155 0.99558 0.49463 0.0
H392 H 0.22734 1.00055 0.48193 0.0
H393 H 0.92765 0.25593 0.48285 0.0
H394 H 0.91904 0.19025 0.49467 0.0
H395 H 0.99646 0.25664 0.50656 0.0
H396 H 0.9692 0.0432 0.53283 0.0
H397 H 0.16054 0.19884 0.56055 0.0
H398 H -0.00132 0.99577 0.48526 0.0
H399 H 0.91955 0.06201 0.48587 0.0
H400 H 0.92306 0.99612 0.4985 0.0
H401 H 0.22739 0.18971 0.51952 0.0
H402 H 0.21756 0.25129 0.54255 0.0
H403 H 0.14871 0.2563 0.51935 0.0
C404 C 0.03296 0.18394 0.27413 0.0
C405 C 0.09466 0.14771 0.28471 0.0
C406 C 0.03343 0.18574 0.25519 0.0
C407 C 0.09846 0.15214 0.24695 0.0
C408 C 0.16154 0.11625 0.25775 0.0
C409 C 0.15824 0.11365 0.27643 0.0
C410 C 0.964 0.22298 0.24393 0.0
C411 C 0.23288 0.08125 0.24967 0.0
C412 C 0.06792 0.1016 0.19129 0.0
C413 C 0.10386 0.15892 0.18921 0.0
C414 C 0.06478 0.09911 0.20998 0.0
C415 C 0.10037 0.15448 0.227 0.0
C416 C 0.13738 0.21225 0.22496 0.0
C417 C 0.13727 0.2144 0.20601 0.0
C418 C 0.02284 0.03758 0.21148 0.0
C419 C 0.17758 0.27148 0.24278 0.0
H420 H 0.98363 0.20987 0.28058 0.0
H421 H 0.20616 0.0861 0.28477 0.0
H422 H 0.98857 0.26719 0.24082 0.0
H423 H 0.93374 0.18574 0.22945 0.0
H424 H 0.91678 0.24452 0.25219 0.0
H425 H 0.27812 0.05736 0.26019 0.0
H426 H 0.20997 0.03917 0.23561 0.0
H427 H 0.26503 0.12063 0.24629 0.0
H428 H 0.0417 0.05897 0.17821 0.0
H429 H 0.16407 0.25908 0.20429 0.0
H430 H 0.97303 0.05732 0.21899 0.0
H431 H 0.06755 1.0083 0.22058 0.0
H432 H 0.99591 1.00008 0.19675 0.0
H433 H 0.13126 0.29891 0.25071 0.0
H434 H 0.20649 0.31106 0.2387 0.0
H435 H 0.22555 0.24958 0.25327 0.0
C436 C 0.10831 0.06861 0.72885 0.0
C437 C 0.04342 0.09878 0.7172 0.0
C438 C 0.10564 0.06597 0.74756 0.0
C439 C 0.03584 0.09327 0.75465 0.0
C440 C 0.9697 0.1231 0.74284 0.0
C441 C 0.97455 0.12595 0.72429 0.0
C442 C 0.17791 0.03469 0.75985 0.0
C443 C 0.89381 0.15185 0.74978 0.0
C444 C 0.00375 0.02832 0.79581 0.0
C445 C 0.03403 0.08521 0.81247 0.0
C446 C 0.00188 0.03096 0.77679 0.0
C447 C 0.03275 0.09134 0.77455 0.0
C448 C 0.06314 0.14904 0.79141 0.0
C449 C 0.06294 0.1454 0.81019 0.0
C450 C 0.96806 0.9688 0.75915 0.0
C451 C 0.09757 0.2139 0.78968 0.0
H452 H 0.16194 0.04821 0.72346 0.0
H453 H 0.92393 0.14862 0.7152 0.0
H454 H 0.20369 0.07474 0.77416 0.0
H455 H 0.15738 0.98937 0.76328 0.0
H456 H 0.2277 0.01611 0.75223 0.0
H457 H 0.84699 0.17182 0.73862 0.0
H458 H 0.86555 0.10992 0.75306 0.0
H459 H 0.91093 0.19568 0.7637 0.0
H460 H 0.98229 0.98157 0.79772 0.0
H461 H 0.08677 0.18908 0.8232 0.0
H462 H 0.01754 0.94437 0.75192 0.0
H463 H 0.91898 0.98692 0.74804 0.0
H464 H 0.94231 0.92766 0.76331 0.0
H465 H 0.15118 0.19872 0.78327 0.0
H466 H 0.11754 0.2546 0.80421 0.0
H467 H 0.05067 0.23782 0.7795 0.0
loop_
_geom_bond_atom_site_label_1
_geom_bond_atom_site_label_2
_geom_bond_distance
_geom_bond_site_symmetry_2
_ccdc_geom_bond_type
C0 C1 1.443 . S
C0 N4 1.376 . S
C0 C38 1.389 . S
C1 C0 1.443 . S
C1 C2 1.340 . S
C1 H41 0.951 . S
C2 C1 1.340 . S
C2 C3 1.439 . S
C2 H42 0.950 . S
C3 C2 1.439 . S
C3 N4 1.374 . S
C3 C37 1.395 . S
N4 C0 1.376 . S
N4 C3 1.374 . S
N4 Co5 2.008 . S
Co5 N4 2.008 . S
Co5 N6 1.995 . S
Co5 N11 2.008 . S
Co5 N16 1.995 . S
Co5 N21 2.282 . S
Co5 N27 2.282 . S
N6 Co5 1.995 . S
N6 C7 1.376 . S
N6 C10 1.383 . S
C7 N6 1.376 . S
C7 C8 1.446 . S
C7 C37 1.391 . S
C8 C7 1.446 . S
C8 C9 1.339 . S
C8 H43 0.949 . S
C9 C8 1.339 . S
C9 C10 1.439 . S
C9 H44 0.950 . S
C10 N6 1.383 . S
C10 C9 1.439 . S
C10 C39 1.392 . S
N11 Co5 2.008 . S
N11 C12 1.376 . S
N11 C15 1.374 1_455 S
C12 N11 1.376 . S
C12 C13 1.443 1_455 S
C12 C39 1.389 . S
C13 C12 1.443 1_655 S
C13 C14 1.340 . S
C13 H45 0.951 . S
C14 C13 1.340 . S
C14 C15 1.439 . S
C14 H46 0.950 . S
C15 N11 1.374 1_655 S
C15 C14 1.439 . S
C15 C40 1.395 . S
N16 Co5 1.995 . S
N16 C17 1.376 1_455 S
N16 C20 1.383 . S
C17 N16 1.376 1_655 S
C17 C18 1.446 . S
C17 C40 1.391 . S
C18 C17 1.446 . S
C18 C19 1.339 . S
C18 H47 0.949 . S
C19 C18 1.339 . S
C19 C20 1.439 1_655 S
C19 H48 0.950 . S
C20 N16 1.383 . S
C20 C19 1.439 1_455 S
C20 C38 1.392 . S
N21 Co5 2.282 . S
N21 C24 1.332 . S
N21 C26 1.332 . S
C22 C23 1.386 . S
C22 C25 1.388 . S
C23 C22 1.386 . S
C23 C24 1.382 . S
C23 H49 0.950 1_455 S
C24 N21 1.332 . S
C24 C23 1.382 . S
C24 H35 0.964 . S
C25 C22 1.388 . S
C25 C26 1.382 . S
C25 H50 0.950 . S
C26 N21 1.332 . S
C26 C25 1.382 . S
C26 H36 0.948 . S
N27 Co5 2.282 . S
N27 C31 1.332 1_545 S
N27 C32 1.332 1_545 S
C28 C29 1.388 . S
C28 C32 1.382 . S
C28 H51 0.950 1_455 S
C29 C28 1.388 . S
C29 C30 1.386 . S
C30 C29 1.386 . S
C30 C31 1.382 . S
C30 H52 0.950 . S
C31 N27 1.332 1_565 S
C31 C30 1.382 . S
C31 H33 0.952 . S
C32 N27 1.332 1_565 S
C32 C28 1.382 . S
C32 H34 0.947 1_465 S
H33 C31 0.952 . S
H34 C32 0.947 1_645 S
H35 C24 0.964 . S
H36 C26 0.948 . S
C37 C3 1.395 . S
C37 C7 1.391 . S
C38 C0 1.389 . S
C38 C20 1.392 . S
C39 C10 1.392 . S
C39 C12 1.389 . S
C40 C15 1.395 . S
C40 C17 1.391 . S
H41 C1 0.951 . S
H42 C2 0.950 . S
H43 C8 0.949 . S
H44 C9 0.950 . S
H45 C13 0.951 . S
H46 C14 0.950 . S
H47 C18 0.949 . S
H48 C19 0.950 . S
H49 C23 0.950 1_655 S
H50 C25 0.950 . S
H51 C28 0.950 1_655 S
H52 C30 0.950 . S
C53 C54 1.443 . S
C53 N57 1.376 . S
C53 C91 1.389 . S
C54 C53 1.443 . S
C54 C55 1.340 . S
C54 H94 0.951 . S
C55 C54 1.340 . S
C55 C56 1.439 . S
C55 H95 0.950 . S
C56 C55 1.439 . S
C56 N57 1.374 . S
C56 C90 1.395 . S
N57 C53 1.376 . S
N57 C56 1.374 . S
N57 Co58 2.008 . S
Co58 N57 2.008 . S
Co58 N59 1.995 1_455 S
Co58 N64 2.008 1_455 S
Co58 N69 1.995 . S
Co58 N74 2.282 . S
Co58 N80 2.282 . S
N59 Co58 1.995 1_655 S
N59 C60 1.376 . S
N59 C63 1.383 . S
C60 N59 1.376 . S
C60 C61 1.446 . S
C60 C90 1.391 1_655 S
C61 C60 1.446 . S
C61 C62 1.339 . S
C61 H96 0.949 . S
C62 C61 1.339 . S
C62 C63 1.439 . S
C62 H97 0.950 . S
C63 N59 1.383 . S
C63 C62 1.439 . S
C63 C92 1.392 . S
N64 Co58 2.008 1_655 S
N64 C65 1.376 . S
N64 C68 1.374 1_545 S
C65 N64 1.376 . S
C65 C66 1.443 1_545 S
C65 C92 1.389 . S
C66 C65 1.443 1_565 S
C66 C67 1.340 . S
C66 H98 0.951 . S
C67 C66 1.340 . S
C67 C68 1.439 . S
C67 H99 0.950 . S
C68 N64 1.374 1_565 S
C68 C67 1.439 . S
C68 C93 1.395 1_655 S
N69 Co58 1.995 . S
N69 C70 1.376 1_545 S
N69 C73 1.383 . S
C70 N69 1.376 1_565 S
C70 C71 1.446 . S
C70 C93 1.391 . S
C71 C70 1.446 . S
C71 C72 1.339 . S
C71 H100 0.949 . S
C72 C71 1.339 . S
C72 C73 1.439 1_565 S
C72 H101 0.950 . S
C73 N69 1.383 . S
C73 C72 1.439 1_545 S
C73 C91 1.392 . S
N74 Co58 2.282 . S
N74 C77 1.332 . S
N74 C79 1.332 . S
C75 C76 1.386 . S
C75 C78 1.388 . S
C76 C75 1.386 . S
C76 C77 1.382 . S
C76 H102 0.950 1_545 S
C77 N74 1.332 . S
C77 C76 1.382 . S
C77 H88 0.952 1_545 S
C78 C75 1.388 . S
C78 C79 1.382 . S
C78 H103 0.950 . S
C79 N74 1.332 . S
C79 C78 1.382 . S
C79 H89 0.948 . S
N80 Co58 2.282 . S
N80 C84 1.332 . S
N80 C85 1.332 . S
C81 C82 1.388 . S
C81 C85 1.382 . S
C81 H104 0.950 1_545 S
C82 C81 1.388 . S
C82 C83 1.386 . S
C83 C82 1.386 . S
C83 C84 1.382 . S
C83 H105 0.950 . S
C84 N80 1.332 . S
C84 C83 1.382 . S
C84 H86 0.952 . S
C85 N80 1.332 . S
C85 C81 1.382 . S
C85 H87 0.948 1_545 S
H86 C84 0.952 . S
H87 C85 0.948 1_565 S
H88 C77 0.952 1_565 S
H89 C79 0.948 . S
C90 C56 1.395 . S
C90 C60 1.391 1_455 S
C91 C53 1.389 . S
C91 C73 1.392 . S
C92 C63 1.392 . S
C92 C65 1.389 . S
C93 C68 1.395 1_455 S
C93 C70 1.391 . S
H94 C54 0.951 . S
H95 C55 0.950 . S
H96 C61 0.949 . S
H97 C62 0.950 . S
H98 C66 0.951 . S
H99 C67 0.950 . S
H100 C71 0.949 . S
H101 C72 0.950 . S
H102 C76 0.950 1_565 S
H103 C78 0.950 . S
H104 C81 0.950 1_565 S
H105 C83 0.950 . S
C106 C107 1.443 . S
C106 N110 1.376 . S
C106 C144 1.389 . S
C107 C106 1.443 . S
C107 C108 1.340 . S
C107 H147 0.951 . S
C108 C107 1.340 . S
C108 C109 1.439 . S
C108 H148 0.950 . S
C109 C108 1.439 . S
C109 N110 1.374 . S
C109 C143 1.395 . S
N110 C106 1.376 . S
N110 C109 1.374 . S
N110 Co111 2.008 . S
Co111 N110 2.008 . S
Co111 N112 1.995 . S
Co111 N117 2.008 1_455 S
Co111 N122 1.995 1_455 S
Co111 N127 2.282 . S
Co111 N133 2.282 1_545 S
N112 Co111 1.995 . S
N112 C113 1.376 . S
N112 C116 1.383 . S
C113 N112 1.376 . S
C113 C114 1.446 . S
C113 C143 1.391 . S
C114 C113 1.446 . S
C114 C115 1.339 . S
C114 H149 0.949 . S
C115 C114 1.339 . S
C115 C116 1.439 . S
C115 H150 0.950 . S
C116 N112 1.383 . S
C116 C115 1.439 . S
C116 C145 1.392 . S
N117 Co111 2.008 1_655 S
N117 C118 1.376 . S
N117 C121 1.374 . S
C118 N117 1.376 . S
C118 C119 1.443 . S
C118 C145 1.389 1_655 S
C119 C118 1.443 . S
C119 C120 1.340 . S
C119 H151 0.951 . S
C120 C119 1.340 . S
C120 C121 1.439 . S
C120 H152 0.950 . S
C121 N117 1.374 . S
C121 C120 1.439 . S
C121 C146 1.395 . S
N122 Co111 1.995 1_655 S
N122 C123 1.376 . S
N122 C126 1.383 . S
C123 N122 1.376 . S
C123 C124 1.446 . S
C123 C146 1.391 . S
C124 C123 1.446 . S
C124 C125 1.339 . S
C124 H153 0.949 . S
C125 C124 1.339 . S
C125 C126 1.439 . S
C125 H154 0.950 . S
C126 N122 1.383 . S
C126 C125 1.439 . S
C126 C144 1.392 1_655 S
N127 Co111 2.282 . S
N127 C130 1.332 1_455 S
N127 C132 1.332 . S
C128 C129 1.386 1_455 S
C128 C131 1.388 . S
C129 C128 1.386 1_655 S
C129 C130 1.382 . S
C129 H155 0.950 . S
C130 N127 1.332 1_655 S
C130 C129 1.382 . S
C130 H141 0.952 . S
C131 C128 1.388 . S
C131 C132 1.382 . S
C131 H156 0.950 . S
C132 N127 1.332 . S
C132 C131 1.382 . S
C132 H142 0.948 . S
N133 Co111 2.282 1_565 S
N133 C137 1.332 . S
N133 C138 1.332 1_455 S
C134 C135 1.388 1_655 S
C134 C138 1.382 . S
C134 H157 0.950 . S
C135 C134 1.388 1_455 S
C135 C136 1.386 . S
C136 C135 1.386 . S
C136 C137 1.382 . S
C136 H158 0.950 . S
C137 N133 1.332 . S
C137 C136 1.382 . S
C137 H139 0.952 . S
C138 N133 1.332 1_655 S
C138 C134 1.382 . S
C138 H140 0.948 . S
H139 C137 0.952 . S
H140 C138 0.948 . S
H141 C130 0.952 . S
H142 C132 0.948 . S
C143 C109 1.395 . S
C143 C113 1.391 . S
C144 C106 1.389 . S
C144 C126 1.392 1_455 S
C145 C116 1.392 . S
C145 C118 1.389 1_455 S
C146 C121 1.395 . S
C146 C123 1.391 . S
H147 C107 0.951 . S
H148 C108 0.950 . S
H149 C114 0.949 . S
H150 C115 0.950 . S
H151 C119 0.951 . S
H152 C120 0.950 . S
H153 C124 0.949 . S
H154 C125 0.950 . S
H155 C129 0.950 . S
H156 C131 0.950 . S
H157 C134 0.950 . S
H158 C136 0.950 . S
C159 C160 1.443 . S
C159 N163 1.376 . S
C159 C197 1.389 . S
C160 C159 1.443 . S
C160 C161 1.340 . S
C160 H200 0.951 . S
C161 C160 1.340 . S
C161 C162 1.439 . S
C161 H201 0.950 . S
C162 C161 1.439 . S
C162 N163 1.374 . S
C162 C196 1.395 . S
N163 C159 1.376 . S
N163 C162 1.374 . S
N163 Co164 2.008 . S
Co164 N163 2.008 . S
Co164 N165 1.995 . S
Co164 N170 2.008 . S
Co164 N175 1.995 . S
Co164 N180 2.282 . S
Co164 N186 2.282 . S
N165 Co164 1.995 . S
N165 C166 1.376 . S
N165 C169 1.383 1_455 S
C166 N165 1.376 . S
C166 C167 1.446 1_455 S
C166 C196 1.391 . S
C167 C166 1.446 1_655 S
C167 C168 1.339 . S
C167 H202 0.949 . S
C168 C167 1.339 . S
C168 C169 1.439 . S
C168 H203 0.950 . S
C169 N165 1.383 1_655 S
C169 C168 1.439 . S
C169 C198 1.392 . S
N170 Co164 2.008 . S
N170 C171 1.376 1_455 S
N170 C174 1.374 1_545 S
C171 N170 1.376 1_655 S
C171 C172 1.443 . S
C171 C198 1.389 . S
C172 C171 1.443 . S
C172 C173 1.340 1_545 S
C172 H204 0.951 1_545 S
C173 C172 1.340 1_565 S
C173 C174 1.439 1_655 S
C173 H205 0.950 . S
C174 N170 1.374 1_565 S
C174 C173 1.439 1_455 S
C174 C199 1.395 . S
N175 Co164 1.995 . S
N175 C176 1.376 1_545 S
N175 C179 1.383 . S
C176 N175 1.376 1_565 S
C176 C177 1.446 . S
C176 C199 1.391 . S
C177 C176 1.446 . S
C177 C178 1.339 1_565 S
C177 H206 0.949 . S
C178 C177 1.339 1_545 S
C178 C179 1.439 . S
C178 H207 0.950 1_545 S
C179 N175 1.383 . S
C179 C178 1.439 . S
C179 C197 1.392 . S
N180 Co164 2.282 . S
N180 C183 1.332 . S
N180 C185 1.332 . S
C181 C182 1.386 . S
C181 C184 1.388 . S
C182 C181 1.386 . S
C182 C183 1.382 . S
C182 H208 0.950 . S
C183 N180 1.332 . S
C183 C182 1.382 . S
C183 H194 0.952 . S
C184 C181 1.388 . S
C184 C185 1.382 . S
C184 H209 0.950 . S
C185 N180 1.332 . S
C185 C184 1.382 . S
C185 H195 0.948 . S
N186 Co164 2.282 . S
N186 C190 1.332 . S
N186 C191 1.332 . S
C187 C188 1.388 . S
C187 C191 1.382 . S
C187 H210 0.950 . S
C188 C187 1.388 . S
C188 C189 1.386 . S
C189 C188 1.386 . S
C189 C190 1.382 . S
C189 H211 0.950 . S
C190 N186 1.332 . S
C190 C189 1.382 . S
C190 H192 0.952 . S
C191 N186 1.332 . S
C191 C187 1.382 . S
C191 H193 0.948 . S
H192 C190 0.952 . S
H193 C191 0.948 . S
H194 C183 0.952 . S
H195 C185 0.948 . S
C196 C162 1.395 . S
C196 C166 1.391 . S
C197 C159 1.389 . S
C197 C179 1.392 . S
C198 C169 1.392 . S
C198 C171 1.389 . S
C199 C174 1.395 . S
C199 C176 1.391 . S
H200 C160 0.951 . S
H201 C161 0.950 . S
H202 C167 0.949 . S
H203 C168 0.950 . S
H204 C172 0.951 1_565 S
H205 C173 0.950 . S
H206 C177 0.949 . S
H207 C178 0.950 1_565 S
H208 C182 0.950 . S
H209 C184 0.950 . S
H210 C187 0.950 . S
H211 C189 0.950 . S
C212 C213 1.391 . S
C212 C214 1.394 . S
C212 H228 0.931 . S
C213 C212 1.391 . S
C213 C217 1.376 . S
C214 C212 1.394 . S
C214 C215 1.369 . S
C214 C218 1.531 1_455 S
C215 C214 1.369 . S
C215 C216 1.410 . S
C215 C223 1.503 . S
C216 C215 1.410 . S
C216 C217 1.392 . S
C216 C219 1.511 . S
C217 C213 1.376 . S
C217 C216 1.392 . S
C217 H229 0.929 . S
C218 C214 1.531 1_655 S
C218 H230 0.960 1_655 S
C218 H231 0.962 . S
C218 H232 0.960 . S
C219 C216 1.511 . S
C219 H233 0.961 . S
C219 H234 0.961 . S
C219 H235 0.961 . S
C220 C221 1.370 . S
C220 C222 1.363 . S
C220 H236 0.931 . S
C221 C220 1.370 . S
C221 C225 1.408 . S
C222 C220 1.363 . S
C222 C223 1.370 . S
C222 C226 1.524 . S
C223 C215 1.503 . S
C223 C222 1.370 . S
C223 C224 1.403 . S
C224 C223 1.403 . S
C224 C225 1.404 . S
C224 C227 1.539 . S
C225 C221 1.408 . S
C225 C224 1.404 . S
C225 H237 0.930 . S
C226 C222 1.524 . S
C226 H238 0.956 1_455 S
C226 H239 0.961 . S
C226 H240 0.961 . S
C227 C224 1.539 . S
C227 H241 0.958 . S
C227 H242 0.961 . S
C227 H243 0.960 . S
H228 C212 0.931 . S
H229 C217 0.929 . S
H230 C218 0.960 1_455 S
H231 C218 0.962 . S
H232 C218 0.960 . S
H233 C219 0.961 . S
H234 C219 0.961 . S
H235 C219 0.961 . S
H236 C220 0.931 . S
H237 C225 0.930 . S
H238 C226 0.956 1_655 S
H239 C226 0.961 . S
H240 C226 0.961 . S
H241 C227 0.958 . S
H242 C227 0.961 . S
H243 C227 0.960 . S
C244 C245 1.391 . S
C244 C246 1.394 . S
C244 H260 0.931 . S
C245 C244 1.391 . S
C245 C249 1.376 . S
C246 C244 1.394 . S
C246 C247 1.369 . S
C246 C250 1.531 1_545 S
C247 C246 1.369 . S
C247 C248 1.410 . S
C247 C255 1.503 . S
C248 C247 1.410 . S
C248 C249 1.392 . S
C248 C251 1.511 . S
C249 C245 1.376 . S
C249 C248 1.392 . S
C249 H261 0.929 . S
C250 C246 1.531 1_565 S
C250 H262 0.960 . S
C250 H263 0.962 1_565 S
C250 H264 0.960 . S
C251 C248 1.511 . S
C251 H265 0.961 . S
C251 H266 0.961 . S
C251 H267 0.961 . S
C252 C253 1.370 . S
C252 C254 1.363 . S
C252 H268 0.931 . S
C253 C252 1.370 . S
C253 C257 1.408 . S
C254 C252 1.363 . S
C254 C255 1.370 . S
C254 C258 1.524 . S
C255 C247 1.503 . S
C255 C254 1.370 . S
C255 C256 1.403 . S
C256 C255 1.403 . S
C256 C257 1.404 . S
C256 C259 1.539 1_545 S
C257 C253 1.408 . S
C257 C256 1.404 . S
C257 H269 0.930 . S
C258 C254 1.524 . S
C258 H270 0.956 . S
C258 H271 0.961 . S
C258 H272 0.961 . S
C259 C256 1.539 1_565 S
C259 H273 0.958 . S
C259 H274 0.961 . S
C259 H275 0.960 1_565 S
H260 C244 0.931 . S
H261 C249 0.929 . S
H262 C250 0.960 . S
H263 C250 0.962 1_545 S
H264 C250 0.960 . S
H265 C251 0.961 . S
H266 C251 0.961 . S
H267 C251 0.961 . S
H268 C252 0.931 . S
H269 C257 0.930 . S
H270 C258 0.956 . S
H271 C258 0.961 . S
H272 C258 0.961 . S
H273 C259 0.958 . S
H274 C259 0.961 . S
H275 C259 0.960 1_545 S
C276 C277 1.391 . S
C276 C278 1.394 . S
C276 H292 0.931 . S
C277 C276 1.391 . S
C277 C281 1.376 1_455 S
C278 C276 1.394 . S
C278 C279 1.369 . S
C278 C282 1.531 . S
C279 C278 1.369 . S
C279 C280 1.410 1_455 S
C279 C287 1.503 . S
C280 C279 1.410 1_655 S
C280 C281 1.392 . S
C280 C283 1.511 . S
C281 C277 1.376 1_655 S
C281 C280 1.392 . S
C281 H293 0.929 . S
C282 C278 1.531 . S
C282 H294 0.960 . S
C282 H295 0.962 . S
C282 H296 0.960 . S
C283 C280 1.511 . S
C283 H297 0.961 . S
C283 H298 0.961 . S
C283 H299 0.961 . S
C284 C285 1.370 . S
C284 C286 1.363 . S
C284 H300 0.931 1_455 S
C285 C284 1.370 . S
C285 C289 1.408 . S
C286 C284 1.363 . S
C286 C287 1.370 . S
C286 C290 1.524 1_455 S
C287 C279 1.503 . S
C287 C286 1.370 . S
C287 C288 1.403 . S
C288 C287 1.403 . S
C288 C289 1.404 . S
C288 C291 1.539 . S
C289 C285 1.408 . S
C289 C288 1.404 . S
C289 H301 0.930 . S
C290 C286 1.524 1_655 S
C290 H302 0.956 1_655 S
C290 H303 0.961 . S
C290 H304 0.961 . S
C291 C288 1.539 . S
C291 H305 0.958 . S
C291 H306 0.961 . S
C291 H307 0.960 . S
H292 C276 0.931 . S
H293 C281 0.929 . S
H294 C282 0.960 . S
H295 C282 0.962 . S
H296 C282 0.960 . S
H297 C283 0.961 . S
H298 C283 0.961 . S
H299 C283 0.961 . S
H300 C284 0.931 1_655 S
H301 C289 0.930 . S
H302 C290 0.956 1_455 S
H303 C290 0.961 . S
H304 C290 0.961 . S
H305 C291 0.958 . S
H306 C291 0.961 . S
H307 C291 0.960 . S
C308 C309 1.391 . S
C308 C310 1.394 . S
C308 H324 0.931 . S
C309 C308 1.391 . S
C309 C313 1.376 . S
C310 C308 1.394 . S
C310 C311 1.369 . S
C310 C314 1.531 . S
C311 C310 1.369 . S
C311 C312 1.410 . S
C311 C319 1.503 . S
C312 C311 1.410 . S
C312 C313 1.392 . S
C312 C315 1.511 . S
C313 C309 1.376 . S
C313 C312 1.392 . S
C313 H325 0.929 . S
C314 C310 1.531 . S
C314 H326 0.960 . S
C314 H327 0.962 . S
C314 H328 0.960 . S
C315 C312 1.511 . S
C315 H329 0.961 . S
C315 H330 0.961 . S
C315 H331 0.961 . S
C316 C317 1.370 . S
C316 C318 1.363 . S
C316 H332 0.931 . S
C317 C316 1.370 . S
C317 C321 1.408 . S
C318 C316 1.363 . S
C318 C319 1.370 . S
C318 C322 1.524 . S
C319 C311 1.503 . S
C319 C318 1.370 . S
C319 C320 1.403 . S
C320 C319 1.403 . S
C320 C321 1.404 . S
C320 C323 1.539 . S
C321 C317 1.408 . S
C321 C320 1.404 . S
C321 H333 0.930 . S
C322 C318 1.524 . S
C322 H334 0.956 . S
C322 H335 0.961 . S
C322 H336 0.961 1_545 S
C323 C320 1.539 . S
C323 H337 0.958 . S
C323 H338 0.961 . S
C323 H339 0.960 . S
H324 C308 0.931 . S
H325 C313 0.929 . S
H326 C314 0.960 . S
H327 C314 0.962 . S
H328 C314 0.960 . S
H329 C315 0.961 . S
H330 C315 0.961 . S
H331 C315 0.961 . S
H332 C316 0.931 . S
H333 C321 0.930 . S
H334 C322 0.956 . S
H335 C322 0.961 . S
H336 C322 0.961 1_565 S
H337 C323 0.958 . S
H338 C323 0.961 . S
H339 C323 0.960 . S
C340 C341 1.391 1_655 S
C340 C342 1.394 1_655 S
C340 H356 0.931 . S
C341 C340 1.391 1_455 S
C341 C345 1.376 . S
C342 C340 1.394 1_455 S
C342 C343 1.369 . S
C342 C346 1.531 1_455 S
C343 C342 1.369 . S
C343 C344 1.410 . S
C343 C351 1.503 1_556 S
C344 C343 1.410 . S
C344 C345 1.392 . S
C344 C347 1.511 . S
C345 C341 1.376 . S
C345 C344 1.392 . S
C345 H357 0.929 . S
C346 C342 1.531 1_655 S
C346 H358 0.960 . S
C346 H359 0.962 . S
C346 H360 0.960 . S
C347 C344 1.511 . S
C347 H361 0.961 . S
C347 H362 0.961 1_556 S
C347 H363 0.961 . S
C348 C349 1.370 . S
C348 C350 1.363 . S
C348 H364 0.931 . S
C349 C348 1.370 . S
C349 C353 1.408 . S
C350 C348 1.363 . S
C350 C351 1.370 . S
C350 C354 1.524 . S
C351 C343 1.503 1_554 S
C351 C350 1.370 . S
C351 C352 1.403 . S
C352 C351 1.403 . S
C352 C353 1.404 . S
C352 C355 1.539 1_545 S
C353 C349 1.408 . S
C353 C352 1.404 . S
C353 H365 0.930 . S
C354 C350 1.524 . S
C354 H366 0.956 1_455 S
C354 H367 0.961 . S
C354 H368 0.961 . S
C355 C352 1.539 1_565 S
C355 H369 0.958 1_554 S
C355 H370 0.961 . S
C355 H371 0.960 1_554 S
H356 C340 0.931 . S
H357 C345 0.929 . S
H358 C346 0.960 . S
H359 C346 0.962 . S
H360 C346 0.960 . S
H361 C347 0.961 . S
H362 C347 0.961 1_554 S
H363 C347 0.961 . S
H364 C348 0.931 . S
H365 C353 0.930 . S
H366 C354 0.956 1_655 S
H367 C354 0.961 . S
H368 C354 0.961 . S
H369 C355 0.958 1_556 S
H370 C355 0.961 . S
H371 C355 0.960 1_556 S
C372 C373 1.391 . S
C372 C374 1.394 . S
C372 H388 0.931 . S
C373 C372 1.391 . S
C373 C377 1.376 . S
C374 C372 1.394 . S
C374 C375 1.369 . S
C374 C378 1.531 . S
C375 C374 1.369 . S
C375 C376 1.410 . S
C375 C383 1.503 . S
C376 C375 1.410 . S
C376 C377 1.392 . S
C376 C379 1.511 1_455 S
C377 C373 1.376 . S
C377 C376 1.392 . S
C377 H389 0.929 1_455 S
C378 C374 1.531 . S
C378 H390 0.960 . S
C378 H391 0.962 . S
C378 H392 0.960 . S
C379 C376 1.511 1_655 S
C379 H393 0.961 . S
C379 H394 0.961 . S
C379 H395 0.961 . S
C380 C381 1.370 . S
C380 C382 1.363 . S
C380 H396 0.931 . S
C381 C380 1.370 . S
C381 C385 1.408 . S
C382 C380 1.363 . S
C382 C383 1.370 . S
C382 C386 1.524 1_545 S
C383 C375 1.503 . S
C383 C382 1.370 . S
C383 C384 1.403 . S
C384 C383 1.403 . S
C384 C385 1.404 . S
C384 C387 1.539 . S
C385 C381 1.408 . S
C385 C384 1.404 . S
C385 H397 0.930 . S
C386 C382 1.524 1_565 S
C386 H398 0.956 . S
C386 H399 0.961 1_565 S
C386 H400 0.961 . S
C387 C384 1.539 . S
C387 H401 0.958 . S
C387 H402 0.961 . S
C387 H403 0.960 . S
H388 C372 0.931 . S
H389 C377 0.929 1_655 S
H390 C378 0.960 . S
H391 C378 0.962 . S
H392 C378 0.960 . S
H393 C379 0.961 . S
H394 C379 0.961 . S
H395 C379 0.961 . S
H396 C380 0.931 . S
H397 C385 0.930 . S
H398 C386 0.956 . S
H399 C386 0.961 1_545 S
H400 C386 0.961 . S
H401 C387 0.958 . S
H402 C387 0.961 . S
H403 C387 0.960 . S
C404 C405 1.391 . S
C404 C406 1.394 . S
C404 H420 0.931 . S
C405 C404 1.391 . S
C405 C409 1.376 . S
C406 C404 1.394 . S
C406 C407 1.369 . S
C406 C410 1.531 . S
C407 C406 1.369 . S
C407 C408 1.410 . S
C407 C415 1.503 . S
C408 C407 1.410 . S
C408 C409 1.392 . S
C408 C411 1.511 . S
C409 C405 1.376 . S
C409 C408 1.392 . S
C409 H421 0.929 . S
C410 C406 1.531 . S
C410 H422 0.960 . S
C410 H423 0.962 1_455 S
C410 H424 0.960 1_455 S
C411 C408 1.511 . S
C411 H425 0.961 . S
C411 H426 0.961 . S
C411 H427 0.961 . S
C412 C413 1.370 . S
C412 C414 1.363 . S
C412 H428 0.931 . S
C413 C412 1.370 . S
C413 C417 1.408 . S
C414 C412 1.363 . S
C414 C415 1.370 . S
C414 C418 1.524 . S
C415 C407 1.503 . S
C415 C414 1.370 . S
C415 C416 1.403 . S
C416 C415 1.403 . S
C416 C417 1.404 . S
C416 C419 1.539 . S
C417 C413 1.408 . S
C417 C416 1.404 . S
C417 H429 0.930 . S
C418 C414 1.524 . S
C418 H430 0.956 1_455 S
C418 H431 0.961 . S
C418 H432 0.961 1_455 S
C419 C416 1.539 . S
C419 H433 0.958 . S
C419 H434 0.961 . S
C419 H435 0.960 . S
H420 C404 0.931 . S
H421 C409 0.929 . S
H422 C410 0.960 . S
H423 C410 0.962 1_655 S
H424 C410 0.960 1_655 S
H425 C411 0.961 . S
H426 C411 0.961 . S
H427 C411 0.961 . S
H428 C412 0.931 . S
H429 C417 0.930 . S
H430 C418 0.956 1_655 S
H431 C418 0.961 . S
H432 C418 0.961 1_655 S
H433 C419 0.958 . S
H434 C419 0.961 . S
H435 C419 0.960 . S
C436 C437 1.391 . S
C436 C438 1.394 . S
C436 H452 0.931 . S
C437 C436 1.391 . S
C437 C441 1.376 1_455 S
C438 C436 1.394 . S
C438 C439 1.369 . S
C438 C442 1.531 . S
C439 C438 1.369 . S
C439 C440 1.410 1_455 S
C439 C447 1.503 . S
C440 C439 1.410 1_655 S
C440 C441 1.392 . S
C440 C443 1.511 . S
C441 C437 1.376 1_655 S
C441 C440 1.392 . S
C441 H453 0.929 . S
C442 C438 1.531 . S
C442 H454 0.960 . S
C442 H455 0.962 . S
C442 H456 0.960 . S
C443 C440 1.511 . S
C443 H457 0.961 . S
C443 H458 0.961 . S
C443 H459 0.961 . S
C444 C445 1.370 . S
C444 C446 1.363 . S
C444 H460 0.931 . S
C445 C444 1.370 . S
C445 C449 1.408 . S
C446 C444 1.363 . S
C446 C447 1.370 . S
C446 C450 1.524 1_445 S
C447 C439 1.503 . S
C447 C446 1.370 . S
C447 C448 1.403 . S
C448 C447 1.403 . S
C448 C449 1.404 . S
C448 C451 1.539 . S
C449 C445 1.408 . S
C449 C448 1.404 . S
C449 H461 0.930 . S
C450 C446 1.524 1_665 S
C450 H462 0.956 1_655 S
C450 H463 0.961 . S
C450 H464 0.961 . S
C451 C448 1.539 . S
C451 H465 0.958 . S
C451 H466 0.961 . S
C451 H467 0.960 . S
H452 C436 0.931 . S
H453 C441 0.929 . S
H454 C442 0.960 . S
H455 C442 0.962 . S
H456 C442 0.960 . S
H457 C443 0.961 . S
H458 C443 0.961 . S
H459 C443 0.961 . S
H460 C444 0.931 . S
H461 C449 0.930 . S
H462 C450 0.956 1_455 S
H463 C450 0.961 . S
H464 C450 0.961 . S
H465 C451 0.958 . S
H466 C451 0.961 . S
H467 C451 0.960 . S
C213 C22 1.492 . S
C221 C29 1.500 . S
C245 C91 1.498 . S
C253 C92 1.497 . S
C277 C128 1.497 . S
C285 C135 1.498 . S
C309 C197 1.493 . S
C317 C198 1.499 . S
C341 C144 1.508 . S
C349 C39 1.511 . S
C373 C181 1.502 . S
C381 C82 1.503 . S
C405 C188 1.506 . S
C413 C38 1.505 . S
C437 C75 1.498 . S
C445 C145 1.507 . S
