# Generated by pormake.
# Topology fnr, (5)-cn, num edge types: 1
# Building blocks:
#     Node 0, Type 0, BuildingBlock: BEQFEK_clean_sbu_0, # of connection points: 5
#     Node 1, Type 0, BuildingBlock: BEQFEK_clean_sbu_0, # of connection points: 5
#     Node 2, Type 0, BuildingBlock: BEQFEK_clean_sbu_0, # of connection points: 5
#     Node 3, Type 0, BuildingBlock: BEQFEK_clean_sbu_0, # of connection points: 5
#     Node 4, Type 0, BuildingBlock: BEQFEK_clean_sbu_0, # of connection points: 5
#     Node 5, Type 0, BuildingBlock: BEQFEK_clean_sbu_0, # of connection points: 5
#     Node 6, Type 0, BuildingBlock: BEQFEK_clean_sbu_0, # of connection points: 5
#     Node 7, Type 0, BuildingBlock: BEQFEK_clean_sbu_0, # of connection points: 5
#     Node 8, Type 0, BuildingBlock: BEQFEK_clean_sbu_0, # of connection points: 5
#     Node 9, Type 0, BuildingBlock: BEQFEK_clean_sbu_0, # of connection points: 5
#     Node 10, Type 0, BuildingBlock: BEQFEK_clean_sbu_0, # of connection points: 5
#     Node 11, Type 0, BuildingBlock: BEQFEK_clean_sbu_0, # of connection points: 5
#     Edge 12, Type (0, 0), BuildingBlock: ZUJKAS_clean_linker_0, # of connection points: 2
#     Edge 13, Type (0, 0), BuildingBlock: ZUJKAS_clean_linker_0, # of connection points: 2
#     Edge 14, Type (0, 0), BuildingBlock: ZUJKAS_clean_linker_0, # of connection points: 2
#     Edge 15, Type (0, 0), BuildingBlock: ZUJKAS_clean_linker_0, # of connection points: 2
#     Edge 16, Type (0, 0), BuildingBlock: ZUJKAS_clean_linker_0, # of connection points: 2
#     Edge 17, Type (0, 0), BuildingBlock: ZUJKAS_clean_linker_0, # of connection points: 2
#     Edge 18, Type (0, 0), BuildingBlock: ZUJKAS_clean_linker_0, # of connection points: 2
#     Edge 19, Type (0, 0), BuildingBlock: ZUJKAS_clean_linker_0, # of connection points: 2
#     Edge 20, Type (0, 0), BuildingBlock: ZUJKAS_clean_linker_0, # of connection points: 2
#     Edge 21, Type (0, 0), BuildingBlock: ZUJKAS_clean_linker_0, # of connection points: 2
#     Edge 22, Type (0, 0), BuildingBlock: ZUJKAS_clean_linker_0, # of connection points: 2
#     Edge 23, Type (0, 0), BuildingBlock: ZUJKAS_clean_linker_0, # of connection points: 2
#     Edge 24, Type (0, 0), BuildingBlock: ZUJKAS_clean_linker_0, # of connection points: 2
#     Edge 25, Type (0, 0), BuildingBlock: ZUJKAS_clean_linker_0, # of connection points: 2
#     Edge 26, Type (0, 0), BuildingBlock: ZUJKAS_clean_linker_0, # of connection points: 2
#     Edge 27, Type (0, 0), BuildingBlock: ZUJKAS_clean_linker_0, # of connection points: 2
#     Edge 28, Type (0, 0), BuildingBlock: ZUJKAS_clean_linker_0, # of connection points: 2
#     Edge 29, Type (0, 0), BuildingBlock: ZUJKAS_clean_linker_0, # of connection points: 2
#     Edge 30, Type (0, 0), BuildingBlock: ZUJKAS_clean_linker_0, # of connection points: 2
#     Edge 31, Type (0, 0), BuildingBlock: ZUJKAS_clean_linker_0, # of connection points: 2
#     Edge 32, Type (0, 0), BuildingBlock: ZUJKAS_clean_linker_0, # of connection points: 2
#     Edge 33, Type (0, 0), BuildingBlock: ZUJKAS_clean_linker_0, # of connection points: 2
#     Edge 34, Type (0, 0), BuildingBlock: ZUJKAS_clean_linker_0, # of connection points: 2
#     Edge 35, Type (0, 0), BuildingBlock: ZUJKAS_clean_linker_0, # of connection points: 2
#     Edge 36, Type (0, 0), BuildingBlock: ZUJKAS_clean_linker_0, # of connection points: 2
#     Edge 37, Type (0, 0), BuildingBlock: ZUJKAS_clean_linker_0, # of connection points: 2
#     Edge 38, Type (0, 0), BuildingBlock: ZUJKAS_clean_linker_0, # of connection points: 2
#     Edge 39, Type (0, 0), BuildingBlock: ZUJKAS_clean_linker_0, # of connection points: 2
#     Edge 40, Type (0, 0), BuildingBlock: ZUJKAS_clean_linker_0, # of connection points: 2
#     Edge 41, Type (0, 0), BuildingBlock: ZUJKAS_clean_linker_0, # of connection points: 2
# Relax obj value: 0.136
# Max RMSD: 0.110
# Mean RMSD: 0.110
data_MOF--net-fnr--node1-BEQFEK_clean_sbu_0--edge1-ZUJKAS_clean_linker_0
_symmetry_space_group_name_H-M    P1
_symmetry_Int_Tables_number       1
_symmetry_cell_setting            triclinic
loop_
_symmetry_equiv_pos_as_xyz
'x, y, z'
_cell_length_a     56.180365
_cell_length_b     56.191194
_cell_length_c     60.893491
_cell_angle_alpha  89.971029
_cell_angle_beta   90.050876
_cell_angle_gamma 119.9828
loop_
_atom_site_label
_atom_site_type_symbol
_atom_site_fract_x
_atom_site_fract_y
_atom_site_fract_z
_atom_type_partial_charge
Co0 Co 0.45051 0.26284 0.10015 0.0
Co1 Co 0.40438 0.2017 0.09153 0.0
C2 C 0.46312 0.21902 0.08467 0.0
O3 O 0.46986 0.24319 0.09087 0.0
O4 O 0.43799 0.20034 0.08346 0.0
C5 C 0.49463 0.31053 0.0829 0.0
O6 O 0.48909 0.29325 0.06657 0.0
C7 C 0.37076 0.14996 0.06794 0.0
C8 C 0.33228 0.13054 0.08715 0.0
C9 C 0.34496 0.12655 0.06913 0.0
N10 N 0.37323 0.16681 0.08455 0.0
N11 N 0.35018 0.15505 0.096 0.0
C12 C 0.39209 0.1573 0.05053 0.0
H13 H 0.40435 0.17994 0.04855 0.0
H14 H 0.38245 0.14769 0.03461 0.0
H15 H 0.40619 0.14979 0.05552 0.0
C16 C 0.41441 0.27334 0.07108 0.0
N17 N 0.42123 0.25611 0.08094 0.0
N18 N 0.40223 0.23057 0.07671 0.0
C19 C 0.38293 0.23082 0.06362 0.0
C20 C 0.39 0.25793 0.05967 0.0
C21 C 0.4308 0.30398 0.07294 0.0
H22 H 0.43745 0.30992 0.0902 0.0
H23 H 0.44944 0.3117 0.06259 0.0
H24 H 0.41904 0.31387 0.06732 0.0
O25 O 0.43634 0.25052 0.13024 0.0
O26 O 0.40482 0.20685 0.12408 0.0
H27 H 0.34522 0.19443 0.07135 0.0
H28 H 0.34411 0.21078 0.04614 0.0
C29 C 0.3571 0.20565 0.0566 0.0
H30 H 0.3624 0.19192 0.04738 0.0
H31 H 0.34664 0.16381 0.10983 0.0
O32 O 0.47945 0.30234 0.09991 0.0
C33 C 0.41815 0.22694 0.13723 0.0
Co34 Co 0.19161 0.44822 0.59943 0.0
Co35 Co 0.20552 0.40114 0.59142 0.0
C36 C 0.24791 0.45996 0.58506 0.0
O37 O 0.23059 0.46727 0.59029 0.0
O38 O 0.24111 0.4347 0.58456 0.0
C39 C 0.18748 0.49208 0.58193 0.0
O40 O 0.1985 0.48616 0.5653 0.0
C41 C 0.22406 0.36744 0.56826 0.0
C42 C 0.2042 0.3288 0.58731 0.0
C43 C 0.22138 0.34152 0.56958 0.0
N44 N 0.20894 0.36976 0.58435 0.0
N45 N 0.19708 0.34657 0.59565 0.0
C46 C 0.24244 0.3907 0.55342 0.0
H47 H 0.26029 0.40608 0.56306 0.0
H48 H 0.23123 0.40093 0.54718 0.0
H49 H 0.25036 0.38402 0.53952 0.0
C50 C 0.14538 0.41286 0.56979 0.0
N51 N 0.16909 0.41918 0.58003 0.0
N52 N 0.17532 0.39994 0.57593 0.0
C53 C 0.15592 0.38097 0.56257 0.0
C54 C 0.13623 0.38849 0.55825 0.0
C55 C 0.13024 0.42822 0.57309 0.0
H56 H 0.13381 0.43683 0.58993 0.0
H57 H 0.13793 0.44541 0.56115 0.0
H58 H 0.10782 0.41471 0.57052 0.0
O59 O 0.1894 0.43388 0.62956 0.0
O60 O 0.1993 0.40067 0.62377 0.0
H61 H 0.15205 0.34158 0.5678 0.0
H62 H 0.14111 0.34584 0.54083 0.0
C63 C 0.1564 0.35621 0.5541 0.0
H64 H 0.1771 0.36245 0.54758 0.0
H65 H 0.18438 0.34301 0.6092 0.0
O66 O 0.18138 0.4774 0.59918 0.0
C67 C 0.19328 0.41474 0.63673 0.0
Co68 Co 0.74621 0.19046 0.09869 0.0
Co69 Co 0.80726 0.20456 0.09083 0.0
C70 C 0.79077 0.24666 0.08385 0.0
O71 O 0.7662 0.22936 0.08921 0.0
O72 O 0.8093 0.23996 0.08347 0.0
C73 C 0.69739 0.18373 0.08023 0.0
O74 O 0.71326 0.19148 0.06278 0.0
C75 C 0.85995 0.22356 0.0684 0.0
C76 C 0.87739 0.20158 0.08629 0.0
C77 C 0.88279 0.22014 0.06938 0.0
N78 N 0.8421 0.20794 0.08408 0.0
N79 N 0.85267 0.1949 0.09475 0.0
C80 C 0.85396 0.23951 0.0518 0.0
H81 H 0.83148 0.22964 0.04899 0.0
H82 H 0.86442 0.24091 0.036 0.0
H83 H 0.86138 0.26058 0.05813 0.0
C84 C 0.73553 0.14372 0.06964 0.0
N85 N 0.75278 0.16768 0.07962 0.0
N86 N 0.77831 0.17408 0.07552 0.0
C87 C 0.77805 0.15462 0.06235 0.0
C88 C 0.7509 0.13469 0.0582 0.0
C89 C 0.70509 0.12811 0.07322 0.0
H90 H 0.7 0.13275 0.08967 0.0
H91 H 0.69499 0.13424 0.06055 0.0
H92 H 0.69686 0.10564 0.07185 0.0
O93 O 0.75814 0.18827 0.1289 0.0
O94 O 0.80154 0.19905 0.12324 0.0
H95 H 0.81336 0.15039 0.06754 0.0
H96 H 0.79851 0.14021 0.04042 0.0
C97 C 0.80334 0.1552 0.05391 0.0
H98 H 0.81797 0.17603 0.04772 0.0
H99 H 0.84296 0.18135 0.10775 0.0
O100 O 0.70691 0.18066 0.09831 0.0
C101 C 0.78133 0.19272 0.13615 0.0
Co102 Co 0.56021 0.74406 0.59963 0.0
Co103 Co 0.60667 0.80532 0.59088 0.0
C104 C 0.54764 0.7881 0.5851 0.0
O105 O 0.54071 0.76369 0.59071 0.0
O106 O 0.5728 0.80672 0.58408 0.0
C107 C 0.51631 0.69594 0.58245 0.0
O108 O 0.52187 0.71288 0.56587 0.0
C109 C 0.64017 0.85928 0.56946 0.0
C110 C 0.68118 0.87325 0.58386 0.0
C111 C 0.66731 0.88063 0.56899 0.0
N112 N 0.6383 0.84003 0.58364 0.0
N113 N 0.66286 0.84861 0.59228 0.0
C114 C 0.61583 0.85793 0.55818 0.0
H115 H 0.60064 0.85578 0.57074 0.0
H116 H 0.60599 0.8395 0.54746 0.0
H117 H 0.62119 0.87661 0.54849 0.0
C118 C 0.59524 0.73339 0.5696 0.0
N119 N 0.58895 0.75073 0.57993 0.0
N120 N 0.60785 0.77622 0.57549 0.0
C121 C 0.62647 0.77584 0.5617 0.0
C122 C 0.61918 0.74867 0.55758 0.0
C123 C 0.5803 0.70296 0.5732 0.0
H124 H 0.57209 0.69808 0.59016 0.0
H125 H 0.56286 0.69311 0.5615 0.0
H126 H 0.594 0.6943 0.57049 0.0
O127 O 0.57514 0.75643 0.62956 0.0
O128 O 0.6072 0.7999 0.6233 0.0
H129 H 0.66684 0.81042 0.56519 0.0
H130 H 0.65914 0.79599 0.53788 0.0
C131 C 0.65061 0.80099 0.55245 0.0
H132 H 0.64438 0.8161 0.54763 0.0
H133 H 0.66715 0.83754 0.60383 0.0
O134 O 0.53125 0.70457 0.59958 0.0
C135 C 0.59385 0.77983 0.63646 0.0
Co136 Co 0.82002 0.55921 0.09905 0.0
Co137 Co 0.80544 0.60575 0.0909 0.0
C138 C 0.76349 0.54701 0.08451 0.0
O139 O 0.78095 0.53997 0.08996 0.0
O140 O 0.77003 0.57218 0.08383 0.0
C141 C 0.82432 0.51555 0.08145 0.0
O142 O 0.81321 0.52145 0.06485 0.0
C143 C 0.78608 0.63891 0.06816 0.0
C144 C 0.80773 0.67845 0.08587 0.0
C145 C 0.78924 0.66505 0.06896 0.0
N146 N 0.80177 0.63695 0.08395 0.0
N147 N 0.81461 0.66064 0.09451 0.0
C148 C 0.77034 0.61682 0.05163 0.0
H149 H 0.78037 0.60431 0.04903 0.0
H150 H 0.76897 0.62572 0.03573 0.0
H151 H 0.74925 0.6031 0.05789 0.0
C152 C 0.86608 0.59474 0.06947 0.0
N153 N 0.8423 0.58823 0.07963 0.0
N154 N 0.83585 0.6073 0.07548 0.0
C155 C 0.85516 0.62636 0.06214 0.0
C156 C 0.87504 0.61906 0.0579 0.0
C157 C 0.88147 0.57966 0.07294 0.0
H158 H 0.87785 0.57104 0.08978 0.0
H159 H 0.87404 0.56249 0.061 0.0
H160 H 0.90388 0.59336 0.07051 0.0
O161 O 0.82257 0.57371 0.12914 0.0
O162 O 0.81128 0.60594 0.12328 0.0
H163 H 0.85934 0.66589 0.0672 0.0
H164 H 0.86942 0.66111 0.04008 0.0
C165 C 0.8545 0.651 0.05362 0.0
H166 H 0.83363 0.64474 0.04746 0.0
H167 H 0.82817 0.66467 0.10756 0.0
O168 O 0.83041 0.53018 0.09873 0.0
C169 C 0.81796 0.59238 0.13626 0.0
Co170 Co 0.26332 0.81625 0.60007 0.0
Co171 Co 0.20248 0.8027 0.59216 0.0
C172 C 0.2187 0.76034 0.58493 0.0
O173 O 0.24332 0.77756 0.59026 0.0
O174 O 0.20018 0.76708 0.58477 0.0
C175 C 0.31127 0.82035 0.58258 0.0
O176 O 0.2944 0.80952 0.56587 0.0
C177 C 0.14966 0.78392 0.56994 0.0
C178 C 0.13371 0.80801 0.58662 0.0
C179 C 0.12754 0.78848 0.57039 0.0
N180 N 0.16792 0.79987 0.58528 0.0
N181 N 0.15822 0.81414 0.59525 0.0
C182 C 0.15464 0.7666 0.55402 0.0
H183 H 0.17696 0.77607 0.55062 0.0
H184 H 0.14348 0.76412 0.53838 0.0
H185 H 0.14738 0.74601 0.56134 0.0
C186 C 0.27448 0.86291 0.57086 0.0
N187 N 0.25702 0.83922 0.58107 0.0
N188 N 0.23158 0.83306 0.57689 0.0
C189 C 0.23209 0.85246 0.56347 0.0
C190 C 0.25933 0.87209 0.55923 0.0
C191 C 0.30498 0.87787 0.57413 0.0
H192 H 0.31003 0.87417 0.59093 0.0
H193 H 0.31436 0.87015 0.56211 0.0
H194 H 0.31396 0.9003 0.57164 0.0
O195 O 0.25112 0.81776 0.63029 0.0
O196 O 0.20809 0.80819 0.62459 0.0
H197 H 0.19722 0.85759 0.56797 0.0
H198 H 0.21196 0.86643 0.54075 0.0
C199 C 0.20697 0.85195 0.55467 0.0
H200 H 0.19206 0.83095 0.54897 0.0
H201 H 0.16846 0.82826 0.60781 0.0
O202 O 0.30264 0.82633 0.59986 0.0
C203 C 0.22811 0.81379 0.63753 0.0
Co204 Co 0.74622 0.55923 0.40639 0.0
Co205 Co 0.80739 0.60566 0.41524 0.0
C206 C 0.7902 0.54675 0.42137 0.0
O207 O 0.76584 0.53985 0.41559 0.0
O208 O 0.80884 0.5719 0.42234 0.0
C209 C 0.69847 0.51566 0.4239 0.0
O210 O 0.71553 0.52206 0.44053 0.0
C211 C 0.86073 0.63913 0.43741 0.0
C212 C 0.87588 0.67979 0.42198 0.0
C213 C 0.88244 0.66607 0.43763 0.0
N214 N 0.84206 0.63721 0.42258 0.0
N215 N 0.85132 0.66157 0.41336 0.0
C216 C 0.85846 0.61492 0.4496 0.0
H217 H 0.8573 0.5996 0.43756 0.0
H218 H 0.83919 0.60516 0.45934 0.0
H219 H 0.87631 0.62038 0.4604 0.0
C220 C 0.73537 0.59438 0.43611 0.0
N221 N 0.75275 0.58805 0.42592 0.0
N222 N 0.77823 0.60698 0.4304 0.0
C223 C 0.77779 0.6257 0.44405 0.0
C224 C 0.75059 0.61839 0.44807 0.0
C225 C 0.70493 0.57939 0.43245 0.0
H226 H 0.70008 0.57091 0.41557 0.0
H227 H 0.69506 0.56215 0.44431 0.0
H228 H 0.69628 0.59314 0.4349 0.0
O229 O 0.75868 0.57393 0.37644 0.0
O230 O 0.80216 0.60595 0.38278 0.0
H231 H 0.81269 0.66581 0.44029 0.0
H232 H 0.79785 0.65891 0.46747 0.0
C233 C 0.80291 0.64993 0.45324 0.0
H234 H 0.8178 0.6436 0.45859 0.0
H235 H 0.8408 0.66577 0.40124 0.0
O236 O 0.70683 0.53008 0.4065 0.0
C237 C 0.78213 0.59255 0.36957 0.0
Co238 Co 0.19265 0.7447 0.90916 0.0
Co239 Co 0.20548 0.80557 0.91587 0.0
C240 C 0.24866 0.7902 0.92287 0.0
O241 O 0.23166 0.76532 0.91812 0.0
O242 O 0.24141 0.80833 0.92287 0.0
C243 C 0.19093 0.69741 0.92623 0.0
O244 O 0.20428 0.71507 0.94201 0.0
C245 C 0.22339 0.85743 0.93896 0.0
C246 C 0.20396 0.87651 0.91973 0.0
C247 C 0.22091 0.88078 0.93764 0.0
N248 N 0.20881 0.84035 0.92253 0.0
N249 N 0.19729 0.85189 0.91105 0.0
C250 C 0.23772 0.85037 0.9563 0.0
H251 H 0.22739 0.82775 0.95846 0.0
H252 H 0.23796 0.8602 0.97217 0.0
H253 H 0.25923 0.8578 0.95109 0.0
C254 C 0.14635 0.73397 0.93859 0.0
N255 N 0.16999 0.75134 0.9283 0.0
N256 N 0.17561 0.77678 0.93166 0.0
C257 C 0.15579 0.77636 0.94446 0.0
C258 C 0.13657 0.74921 0.94924 0.0
C259 C 0.13318 0.70333 0.93776 0.0
H260 H 0.14598 0.69699 0.94719 0.0
H261 H 0.11227 0.69292 0.94495 0.0
H262 H 0.13223 0.69659 0.9205 0.0
O263 O 0.19013 0.7561 0.87875 0.0
O264 O 0.1991 0.79907 0.88368 0.0
H265 H 0.153 0.81141 0.93471 0.0
H266 H 0.13536 0.796 0.96006 0.0
C267 C 0.15384 0.80125 0.95007 0.0
H268 H 0.17247 0.81598 0.9593 0.0
H269 H 0.18485 0.84294 0.89732 0.0
O270 O 0.18254 0.70527 0.90984 0.0
C271 C 0.19346 0.77873 0.87112 0.0
Co272 Co 0.45161 0.18911 0.40828 0.0
Co273 Co 0.40481 0.20362 0.41615 0.0
C274 C 0.46382 0.24545 0.4228 0.0
O275 O 0.47095 0.22796 0.41774 0.0
O276 O 0.43864 0.23893 0.42298 0.0
C277 C 0.49356 0.18207 0.42655 0.0
O278 O 0.48563 0.19001 0.44401 0.0
C279 C 0.36954 0.22009 0.44034 0.0
C280 C 0.3345 0.20644 0.41754 0.0
C281 C 0.34472 0.21958 0.43745 0.0
N282 N 0.37361 0.20763 0.42301 0.0
N283 N 0.35249 0.19943 0.40952 0.0
C284 C 0.38977 0.23354 0.45863 0.0
H285 H 0.40993 0.23577 0.45451 0.0
H286 H 0.38213 0.22064 0.4736 0.0
H287 H 0.39214 0.25393 0.46243 0.0
C288 C 0.41535 0.14245 0.43726 0.0
N289 N 0.4222 0.1665 0.42739 0.0
N290 N 0.403 0.17287 0.43133 0.0
C291 C 0.38349 0.15315 0.44415 0.0
C292 C 0.39072 0.13323 0.4484 0.0
C293 C 0.43024 0.12687 0.43382 0.0
H294 H 0.43987 0.13133 0.41734 0.0
H295 H 0.44655 0.13319 0.44645 0.0
H296 H 0.41608 0.1044 0.43536 0.0
O297 O 0.4374 0.18711 0.37809 0.0
O298 O 0.40477 0.1979 0.38375 0.0
H299 H 0.34532 0.15159 0.4377 0.0
H300 H 0.34632 0.13653 0.46377 0.0
C301 C 0.35838 0.15338 0.45199 0.0
H302 H 0.36459 0.17315 0.46026 0.0
H303 H 0.3506 0.1895 0.39461 0.0
O304 O 0.48086 0.17895 0.40852 0.0
C305 C 0.41864 0.19155 0.37085 0.0
Co306 Co 0.26431 0.44825 0.90694 0.0
Co307 Co 0.20357 0.40108 0.91527 0.0
C308 C 0.21987 0.4597 0.92233 0.0
O309 O 0.24441 0.46701 0.91681 0.0
O310 O 0.20141 0.43445 0.92272 0.0
C311 C 0.31287 0.49099 0.92482 0.0
O312 O 0.29697 0.48318 0.94225 0.0
C313 C 0.15192 0.36743 0.93889 0.0
C314 C 0.13273 0.3287 0.92 0.0
C315 C 0.12856 0.34157 0.9378 0.0
N316 N 0.16889 0.36975 0.92243 0.0
N317 N 0.15729 0.34654 0.91117 0.0
C318 C 0.15909 0.38903 0.95605 0.0
H319 H 0.18173 0.40131 0.95814 0.0
H320 H 0.14935 0.37965 0.97199 0.0
H321 H 0.15167 0.40307 0.9507 0.0
C322 C 0.2757 0.41206 0.93533 0.0
N323 N 0.25822 0.41887 0.92586 0.0
N324 N 0.23279 0.39971 0.93025 0.0
C325 C 0.23337 0.38044 0.94315 0.0
C326 C 0.26057 0.38764 0.94676 0.0
C327 C 0.30628 0.42811 0.93276 0.0
H328 H 0.31173 0.4368 0.91596 0.0
H329 H 0.31489 0.44529 0.94472 0.0
H330 H 0.31579 0.41528 0.93601 0.0
O331 O 0.25181 0.43432 0.87678 0.0
O332 O 0.20885 0.40093 0.88281 0.0
H333 H 0.19754 0.34224 0.93544 0.0
H334 H 0.21381 0.34187 0.96093 0.0
C335 C 0.20842 0.35443 0.95018 0.0
H336 H 0.19429 0.35944 0.95909 0.0
H337 H 0.16613 0.34289 0.89746 0.0
O338 O 0.30351 0.47784 0.90694 0.0
C339 C 0.22872 0.41518 0.86972 0.0
Co340 Co 0.81977 0.26278 0.40689 0.0
Co341 Co 0.80544 0.20183 0.41544 0.0
C342 C 0.76347 0.21848 0.42213 0.0
O343 O 0.78074 0.24274 0.41602 0.0
O344 O 0.77018 0.19998 0.42335 0.0
C345 C 0.82254 0.31015 0.42401 0.0
O346 O 0.81068 0.29279 0.44027 0.0
C347 C 0.7875 0.14991 0.43872 0.0
C348 C 0.80825 0.13165 0.42024 0.0
C349 C 0.79075 0.12701 0.43778 0.0
N350 N 0.80223 0.16716 0.42243 0.0
N351 N 0.81453 0.15609 0.41139 0.0
C352 C 0.77234 0.1564 0.4557 0.0
H353 H 0.78237 0.17895 0.45813 0.0
H354 H 0.7716 0.1463 0.47155 0.0
H355 H 0.751 0.14884 0.44994 0.0
C356 C 0.86638 0.27376 0.4361 0.0
N357 N 0.84243 0.25635 0.42619 0.0
N358 N 0.83619 0.23089 0.43037 0.0
C359 C 0.85585 0.23135 0.44346 0.0
C360 C 0.87566 0.25853 0.44746 0.0
C361 C 0.88025 0.30439 0.43432 0.0
H362 H 0.8688 0.31177 0.44439 0.0
H363 H 0.90174 0.31457 0.44033 0.0
H364 H 0.87987 0.31035 0.41701 0.0
O365 O 0.82199 0.25066 0.37682 0.0
O366 O 0.81029 0.20708 0.3829 0.0
H367 H 0.87479 0.21154 0.46109 0.0
H368 H 0.83771 0.19209 0.45913 0.0
C369 C 0.85691 0.20633 0.45032 0.0
H370 H 0.85832 0.19564 0.43551 0.0
H371 H 0.82731 0.16528 0.39788 0.0
O372 O 0.82991 0.30214 0.40712 0.0
C373 C 0.81692 0.22719 0.3698 0.0
Co374 Co 0.56058 0.81931 0.9062 0.0
Co375 Co 0.60598 0.8034 0.9153 0.0
C376 C 0.54698 0.76223 0.92074 0.0
O377 O 0.54066 0.78002 0.91464 0.0
O378 O 0.57198 0.76838 0.92247 0.0
C379 C 0.51725 0.82424 0.92357 0.0
O380 O 0.52283 0.8128 0.94011 0.0
C381 C 0.63886 0.78378 0.93832 0.0
C382 C 0.67837 0.80511 0.92055 0.0
C383 C 0.66497 0.78684 0.93757 0.0
N384 N 0.63693 0.79935 0.92241 0.0
N385 N 0.66059 0.81199 0.91181 0.0
C386 C 0.61679 0.76827 0.95492 0.0
H387 H 0.60408 0.77813 0.95718 0.0
H388 H 0.62577 0.76738 0.97093 0.0
H389 H 0.60327 0.747 0.94893 0.0
C390 C 0.59594 0.86474 0.9364 0.0
N391 N 0.58928 0.84099 0.92612 0.0
N392 N 0.60796 0.83407 0.93054 0.0
C393 C 0.62691 0.85306 0.94417 0.0
C394 C 0.61994 0.87318 0.94833 0.0
C395 C 0.58134 0.88058 0.93282 0.0
H396 H 0.57311 0.87735 0.91586 0.0
H397 H 0.56394 0.87321 0.94451 0.0
H398 H 0.59527 0.90289 0.93554 0.0
O399 O 0.57563 0.82211 0.87637 0.0
O400 O 0.60652 0.80917 0.88281 0.0
H401 H 0.66612 0.85629 0.93961 0.0
H402 H 0.66132 0.86681 0.96655 0.0
C403 C 0.65113 0.85187 0.95304 0.0
H404 H 0.64436 0.83095 0.95933 0.0
H405 H 0.66465 0.82543 0.89869 0.0
O406 O 0.53194 0.83025 0.90633 0.0
C407 C 0.59383 0.81663 0.86957 0.0
H408 H 0.66508 0.183 0.11413 0.0
H409 H 0.62175 0.18316 0.11154 0.0
H410 H 0.62344 0.17708 0.04098 0.0
H411 H 0.66728 0.17795 0.04344 0.0
H412 H 0.61384 0.21629 0.05161 0.0
H413 H 0.544 0.12512 0.10072 0.0
H414 H 0.57391 0.14808 0.11623 0.0
H415 H 0.57743 0.13165 0.09202 0.0
C416 C 0.65598 0.18123 0.09809 0.0
C417 C 0.66963 0.18054 0.07899 0.0
C418 C 0.63107 0.18113 0.09663 0.0
C419 C 0.61902 0.17971 0.07607 0.0
C420 C 0.63225 0.17812 0.05703 0.0
H421 H 0.45788 0.17024 0.07012 0.0
H422 H 0.49462 0.15922 0.06516 0.0
C423 C 0.65732 0.17861 0.05846 0.0
C424 C 0.59407 0.18242 0.07429 0.0
H425 H 0.52962 0.1586 0.0951 0.0
C426 C 0.5953 0.20337 0.06089 0.0
C427 C 0.56961 0.16533 0.08604 0.0
C428 C 0.56603 0.1411 0.09936 0.0
C429 C 0.5733 0.20846 0.05968 0.0
C430 C 0.54967 0.19272 0.07272 0.0
C431 C 0.54788 0.17094 0.08533 0.0
C432 C 0.52741 0.19958 0.07451 0.0
C433 C 0.57568 0.23072 0.04441 0.0
C434 C 0.5336 0.22586 0.08146 0.0
C435 C 0.51278 0.23229 0.08409 0.0
C436 C 0.48515 0.21242 0.08019 0.0
C437 C 0.47893 0.18606 0.07318 0.0
C438 C 0.49989 0.1797 0.0704 0.0
H439 H 0.5897 0.23381 0.03048 0.0
H440 H 0.55534 0.22583 0.03771 0.0
H441 H 0.5844 0.2504 0.05356 0.0
H442 H 0.55454 0.24132 0.08533 0.0
H443 H 0.51838 0.25272 0.0897 0.0
H444 H 0.29343 0.4539 0.58241 0.0
H445 H 0.34168 0.49056 0.58137 0.0
H446 H 0.3162 0.55125 0.57843 0.0
H447 H 0.26815 0.515 0.57974 0.0
H448 H 0.37273 0.53368 0.5518 0.0
H449 H 0.36514 0.57339 0.63318 0.0
H450 H 0.33917 0.54034 0.62294 0.0
H451 H 0.33976 0.57118 0.61408 0.0
C452 C 0.29809 0.47503 0.58128 0.0
C453 C 0.27691 0.48152 0.58144 0.0
C454 C 0.32567 0.49595 0.58074 0.0
C455 C 0.33249 0.52362 0.58037 0.0
C456 C 0.31139 0.53005 0.57928 0.0
H457 H 0.47871 0.67352 0.5494 0.0
H458 H 0.43622 0.62937 0.54917 0.0
C459 C 0.28391 0.50925 0.57992 0.0
C460 C 0.36154 0.54597 0.58175 0.0
H461 H 0.40474 0.60266 0.61176 0.0
C462 C 0.37986 0.54863 0.56501 0.0
C463 C 0.37098 0.56508 0.59927 0.0
C464 C 0.35282 0.56225 0.61851 0.0
C465 C 0.40703 0.5707 0.56477 0.0
C466 C 0.41589 0.59084 0.58153 0.0
C467 C 0.39791 0.5874 0.59879 0.0
C468 C 0.44304 0.61645 0.58091 0.0
C469 C 0.42594 0.57224 0.54657 0.0
C470 C 0.46095 0.62418 0.59899 0.0
C471 C 0.48521 0.64969 0.59931 0.0
C472 C 0.49193 0.66799 0.58158 0.0
C473 C 0.47426 0.6599 0.5633 0.0
C474 C 0.45001 0.6345 0.56304 0.0
H475 H 0.41955 0.55153 0.53981 0.0
H476 H 0.42508 0.58497 0.53299 0.0
H477 H 0.44753 0.58168 0.55234 0.0
H478 H 0.45589 0.61066 0.61304 0.0
H479 H 0.49838 0.65529 0.61363 0.0
H480 H 0.84228 0.29216 0.08113 0.0
H481 H 0.85378 0.34037 0.07998 0.0
H482 H 0.76761 0.3148 0.07654 0.0
H483 H 0.75589 0.26677 0.07806 0.0
H484 H 0.84238 0.37161 0.05056 0.0
H485 H 0.79334 0.36336 0.13124 0.0
H486 H 0.8004 0.33734 0.1211 0.0
H487 H 0.77047 0.3383 0.11184 0.0
C488 C 0.82579 0.29679 0.07988 0.0
C489 C 0.79814 0.2756 0.08001 0.0
C490 C 0.83241 0.32435 0.07926 0.0
C491 C 0.81151 0.33113 0.07874 0.0
C492 C 0.78402 0.31001 0.07754 0.0
H493 H 0.80967 0.47857 0.048 0.0
H494 H 0.81093 0.43585 0.04757 0.0
C495 C 0.77738 0.28254 0.07829 0.0
C496 C 0.81819 0.36017 0.08015 0.0
H497 H 0.80433 0.40324 0.10995 0.0
C498 C 0.8343 0.37865 0.06364 0.0
C499 C 0.80819 0.36948 0.09751 0.0
C500 C 0.79239 0.35117 0.11655 0.0
C501 C 0.83959 0.40589 0.0635 0.0
C502 C 0.82804 0.41464 0.08009 0.0
C503 C 0.81298 0.39648 0.09711 0.0
C504 C 0.8299 0.44194 0.07958 0.0
C505 C 0.8575 0.42498 0.04558 0.0
C506 C 0.83983 0.45953 0.09785 0.0
C507 C 0.83883 0.48391 0.09827 0.0
C508 C 0.82774 0.49108 0.08045 0.0
C509 C 0.81845 0.47376 0.06197 0.0
C510 C 0.81937 0.44938 0.06161 0.0
H511 H 0.87181 0.41849 0.03898 0.0
H512 H 0.84429 0.42452 0.03184 0.0
H513 H 0.86969 0.44646 0.05159 0.0
H514 H 0.84788 0.4541 0.11198 0.0
H515 H 0.84616 0.4968 0.11275 0.0
H516 H 0.55287 0.83934 0.58316 0.0
H517 H 0.5158 0.85027 0.58205 0.0
H518 H 0.45602 0.76394 0.57796 0.0
H519 H 0.49276 0.75278 0.57934 0.0
H520 H 0.47345 0.83868 0.55227 0.0
H521 H 0.43211 0.78876 0.63261 0.0
H522 H 0.46542 0.79627 0.6227 0.0
H523 H 0.43482 0.76627 0.61314 0.0
C524 C 0.53188 0.82269 0.58173 0.0
C525 C 0.52579 0.79516 0.58156 0.0
C526 C 0.51071 0.82898 0.58117 0.0
C527 C 0.48316 0.80788 0.58045 0.0
C528 C 0.47712 0.7805 0.57909 0.0
H529 H 0.33367 0.80568 0.54921 0.0
H530 H 0.37761 0.80683 0.54893 0.0
C531 C 0.49819 0.77418 0.57976 0.0
C532 C 0.46058 0.81426 0.58174 0.0
H533 H 0.40334 0.79989 0.61129 0.0
C534 C 0.45824 0.83043 0.56526 0.0
C535 C 0.44113 0.80401 0.599 0.0
C536 C 0.4436 0.78811 0.618 0.0
C537 C 0.4362 0.83559 0.56505 0.0
C538 C 0.41579 0.82384 0.58155 0.0
C539 C 0.41884 0.80868 0.59853 0.0
C540 C 0.39034 0.82567 0.58099 0.0
C541 C 0.43504 0.85358 0.54718 0.0
C542 C 0.38261 0.83555 0.59924 0.0
C543 C 0.35725 0.83461 0.59958 0.0
C544 C 0.3391 0.82364 0.58168 0.0
C545 C 0.34719 0.81437 0.56324 0.0
C546 C 0.37246 0.81523 0.56296 0.0
H547 H 0.45585 0.86795 0.54063 0.0
H548 H 0.42235 0.84045 0.5334 0.0
H549 H 0.42571 0.86572 0.55322 0.0
H550 H 0.39602 0.84353 0.6134 0.0
H551 H 0.35163 0.84192 0.61403 0.0
H552 H 0.74401 0.49222 0.0786 0.0
H553 H 0.69619 0.45555 0.07663 0.0
H554 H 0.66957 0.51532 0.08073 0.0
H555 H 0.71756 0.55236 0.08225 0.0
H556 H 0.65827 0.44353 0.10885 0.0
H557 H 0.62236 0.46622 0.03074 0.0
H558 H 0.65832 0.48157 0.03766 0.0
H559 H 0.63775 0.49436 0.0498 0.0
C560 C 0.72804 0.49768 0.07874 0.0
C561 C 0.73463 0.52525 0.08066 0.0
C562 C 0.70069 0.47665 0.07765 0.0
C563 C 0.67929 0.48267 0.07845 0.0
C564 C 0.68574 0.51021 0.07971 0.0
H565 H 0.51303 0.35168 0.11372 0.0
H566 H 0.55621 0.39573 0.11308 0.0
C567 C 0.71319 0.53136 0.08065 0.0
C568 C 0.6504 0.45984 0.07948 0.0
H569 H 0.5888 0.43018 0.05256 0.0
C570 C 0.64304 0.44066 0.09658 0.0
C571 C 0.63062 0.4561 0.06342 0.0
C572 C 0.63762 0.47549 0.04424 0.0
C573 C 0.61664 0.41755 0.09786 0.0
C574 C 0.59678 0.41384 0.08187 0.0
C575 C 0.60398 0.43324 0.06493 0.0
C576 C 0.56923 0.38877 0.08146 0.0
C577 C 0.61063 0.39676 0.11582 0.0
C578 C 0.5617 0.37082 0.0635 0.0
C579 C 0.53702 0.34583 0.06373 0.0
C580 C 0.51933 0.33825 0.08195 0.0
C581 C 0.52632 0.3568 0.09953 0.0
C582 C 0.55104 0.38192 0.09924 0.0
H583 H 0.62973 0.39954 0.12364 0.0
H584 H 0.59806 0.39916 0.12874 0.0
H585 H 0.59886 0.37549 0.10931 0.0
H586 H 0.57538 0.37573 0.04958 0.0
H587 H 0.53222 0.33213 0.04985 0.0
H588 H 0.20253 0.52935 0.54863 0.0
H589 H 0.20178 0.57239 0.54843 0.0
H590 H 0.16415 0.55364 0.61252 0.0
H591 H 0.16533 0.51064 0.61309 0.0
H592 H 0.16059 0.58569 0.55221 0.0
H593 H 0.23399 0.62732 0.62207 0.0
H594 H 0.22693 0.59639 0.60774 0.0
H595 H 0.20296 0.59562 0.62765 0.0
C596 C 0.19389 0.53422 0.56266 0.0
C597 C 0.18432 0.51671 0.58102 0.0
C598 C 0.19341 0.55883 0.56247 0.0
C599 C 0.18335 0.56645 0.5806 0.0
C600 C 0.17252 0.54841 0.59853 0.0
H601 H 0.16734 0.71442 0.5833 0.0
H602 H 0.15642 0.66643 0.58133 0.0
C603 C 0.17311 0.52379 0.5988 0.0
C604 C 0.1857 0.59395 0.58107 0.0
H605 H 0.21782 0.65555 0.60782 0.0
C606 C 0.17296 0.60095 0.56443 0.0
C607 C 0.20216 0.61392 0.59687 0.0
C608 C 0.21752 0.60812 0.6145 0.0
C609 C 0.17647 0.62751 0.56304 0.0
C610 C 0.19283 0.64739 0.57891 0.0
C611 C 0.20521 0.64023 0.59571 0.0
C612 C 0.19872 0.67623 0.57794 0.0
C613 C 0.16344 0.63432 0.54421 0.0
C614 C 0.22607 0.69765 0.5766 0.0
C615 C 0.23238 0.72498 0.57793 0.0
C616 C 0.21144 0.73153 0.58064 0.0
C617 C 0.18393 0.71008 0.58109 0.0
C618 C 0.17764 0.68263 0.5799 0.0
H619 H 0.15697 0.61892 0.53079 0.0
H620 H 0.14494 0.63459 0.55021 0.0
H621 H 0.17786 0.65493 0.53737 0.0
H622 H 0.24266 0.69319 0.57503 0.0
H623 H 0.25377 0.74096 0.57739 0.0
H624 H 0.75463 0.49208 0.42754 0.0
H625 H 0.76547 0.45518 0.42971 0.0
H626 H 0.85195 0.51447 0.42527 0.0
H627 H 0.84131 0.5517 0.42342 0.0
H628 H 0.79142 0.4428 0.39749 0.0
H629 H 0.84954 0.46562 0.47584 0.0
H630 H 0.82894 0.48092 0.46875 0.0
H631 H 0.86235 0.49371 0.45673 0.0
C632 C 0.77601 0.49738 0.42735 0.0
C633 C 0.79711 0.52488 0.42529 0.0
C634 C 0.78216 0.47623 0.42857 0.0
C635 C 0.80951 0.48206 0.42777 0.0
C636 C 0.83072 0.50953 0.42632 0.0
H637 H 0.84544 0.3514 0.39329 0.0
H638 H 0.84602 0.3953 0.39382 0.0
C639 C 0.82459 0.53079 0.42522 0.0
C640 C 0.81541 0.45913 0.42693 0.0
H641 H 0.84713 0.42948 0.45418 0.0
C642 C 0.80368 0.43992 0.40984 0.0
C643 C 0.83133 0.4554 0.44312 0.0
C644 C 0.8436 0.47484 0.46227 0.0
C645 C 0.807 0.41682 0.40867 0.0
C646 C 0.82304 0.41314 0.42478 0.0
C647 C 0.8351 0.43253 0.44173 0.0
C648 C 0.8256 0.38812 0.42526 0.0
C649 C 0.79239 0.39603 0.39068 0.0
C650 C 0.81501 0.3701 0.44316 0.0
C651 C 0.81487 0.34518 0.443 0.0
C652 C 0.82532 0.33777 0.4249 0.0
C653 C 0.83701 0.35639 0.40738 0.0
C654 C 0.83724 0.38142 0.40761 0.0
H655 H 0.77613 0.3988 0.38273 0.0
H656 H 0.80747 0.39843 0.37787 0.0
H657 H 0.78286 0.37476 0.39721 0.0
H658 H 0.80601 0.3749 0.45698 0.0
H659 H 0.80584 0.33141 0.45683 0.0
H660 H 0.29353 0.84227 0.92485 0.0
H661 H 0.34208 0.85479 0.92548 0.0
H662 H 0.31831 0.76913 0.92968 0.0
H663 H 0.26999 0.7564 0.92875 0.0
H664 H 0.37447 0.84399 0.95502 0.0
H665 H 0.36572 0.79549 0.874 0.0
H666 H 0.33971 0.80238 0.88446 0.0
H667 H 0.34089 0.77248 0.89346 0.0
C668 C 0.29864 0.82611 0.92616 0.0
C669 C 0.27786 0.7983 0.92643 0.0
C670 C 0.32639 0.83331 0.92649 0.0
C671 C 0.33374 0.81284 0.92707 0.0
C672 C 0.31306 0.78521 0.92865 0.0
H673 H 0.48037 0.8101 0.95702 0.0
H674 H 0.43811 0.81222 0.95751 0.0
C675 C 0.28542 0.77799 0.92823 0.0
C676 C 0.36289 0.82 0.92532 0.0
H677 H 0.40581 0.80642 0.89506 0.0
C678 C 0.38146 0.83606 0.9418 0.0
C679 C 0.37213 0.81019 0.90777 0.0
C680 C 0.35365 0.79442 0.88879 0.0
C681 C 0.40871 0.84137 0.94179 0.0
C682 C 0.41737 0.82988 0.92506 0.0
C683 C 0.39914 0.81501 0.90801 0.0
C684 C 0.44452 0.83139 0.92556 0.0
C685 C 0.42789 0.85912 0.95973 0.0
C686 C 0.46212 0.84114 0.9073 0.0
C687 C 0.48624 0.83963 0.90684 0.0
C688 C 0.49311 0.8282 0.92461 0.0
C689 C 0.47579 0.81912 0.94308 0.0
C690 C 0.45168 0.82054 0.94349 0.0
H691 H 0.42158 0.87355 0.96635 0.0
H692 H 0.42727 0.84582 0.97346 0.0
H693 H 0.44939 0.87116 0.95375 0.0
H694 H 0.4569 0.84941 0.89321 0.0
H695 H 0.49915 0.84681 0.89237 0.0
H696 H 0.67704 0.47879 0.45749 0.0
H697 H 0.63389 0.43517 0.45794 0.0
H698 H 0.61402 0.45234 0.39358 0.0
H699 H 0.65763 0.49595 0.39275 0.0
H700 H 0.57931 0.42055 0.45428 0.0
H701 H 0.61176 0.37942 0.3846 0.0
H702 H 0.63525 0.41079 0.39862 0.0
H703 H 0.61148 0.4106 0.37873 0.0
C704 C 0.66345 0.47346 0.44345 0.0
C705 C 0.67096 0.4907 0.42495 0.0
C706 C 0.63873 0.44851 0.44378 0.0
C707 C 0.62097 0.44028 0.42565 0.0
C708 C 0.62772 0.45804 0.40757 0.0
H709 H 0.45828 0.29126 0.42454 0.0
H710 H 0.49517 0.33927 0.4261 0.0
C711 C 0.65257 0.483 0.40716 0.0
C712 C 0.59622 0.41249 0.42539 0.0
H713 H 0.56754 0.35069 0.399 0.0
C714 C 0.57661 0.40527 0.44214 0.0
C715 C 0.593 0.39251 0.40971 0.0
C716 C 0.61407 0.39854 0.392 0.0
C717 C 0.55395 0.37852 0.44374 0.0
C718 C 0.55065 0.35864 0.42794 0.0
C719 C 0.57009 0.36599 0.41106 0.0
C720 C 0.5279 0.32972 0.42896 0.0
C721 C 0.53432 0.37155 0.46272 0.0
C722 C 0.53401 0.3084 0.43006 0.0
C723 C 0.51306 0.28101 0.42894 0.0
C724 C 0.48548 0.27432 0.42669 0.0
C725 C 0.47928 0.29569 0.4264 0.0
C726 C 0.50034 0.32317 0.42737 0.0
H727 H 0.54339 0.38687 0.47618 0.0
H728 H 0.51549 0.37135 0.45691 0.0
H729 H 0.5282 0.3509 0.46943 0.0
H730 H 0.55512 0.31298 0.43133 0.0
H731 H 0.51858 0.2651 0.42931 0.0
H732 H 0.16375 0.65507 0.89693 0.0
H733 H 0.16051 0.60992 0.89768 0.0
H734 H 0.20691 0.63165 0.95804 0.0
H735 H 0.20975 0.67634 0.95768 0.0
H736 H 0.20273 0.6004 0.8955 0.0
H737 H 0.1458 0.55528 0.97248 0.0
H738 H 0.14718 0.58497 0.95974 0.0
H739 H 0.17494 0.58876 0.97697 0.0
C740 C 0.17289 0.65005 0.91053 0.0
C741 C 0.18702 0.66932 0.92723 0.0
C742 C 0.171 0.62424 0.91095 0.0
C743 C 0.18307 0.61719 0.92811 0.0
C744 C 0.19678 0.63626 0.94495 0.0
H745 H 0.25476 0.51496 0.92581 0.0
H746 H 0.24288 0.5511 0.92751 0.0
C747 C 0.19859 0.66197 0.9446 0.0
C748 C 0.18371 0.59109 0.92743 0.0
H749 H 0.17253 0.53573 0.95847 0.0
C750 C 0.19572 0.58607 0.90913 0.0
C751 C 0.17428 0.57215 0.9451 0.0
C752 C 0.15956 0.5754 0.96457 0.0
C753 C 0.19979 0.5634 0.90848 0.0
C754 C 0.19212 0.54556 0.92679 0.0
C755 C 0.17881 0.54971 0.94462 0.0
C756 C 0.19895 0.5233 0.92794 0.0
C757 C 0.21258 0.55893 0.88825 0.0
C758 C 0.17818 0.4956 0.92871 0.0
C759 C 0.18491 0.47473 0.92788 0.0
C760 C 0.21254 0.48129 0.92631 0.0
C761 C 0.23326 0.50911 0.92674 0.0
C762 C 0.22652 0.52985 0.92761 0.0
H763 H 0.21002 0.56933 0.87366 0.0
H764 H 0.23493 0.56761 0.89108 0.0
H765 H 0.20341 0.53669 0.88458 0.0
H766 H 0.15677 0.49015 0.92918 0.0
H767 H 0.16845 0.45353 0.92765 0.0
H768 H 0.52512 0.18145 0.3926 0.0
H769 H 0.56862 0.1816 0.39513 0.0
H770 H 0.5607 0.17501 0.46566 0.0
H771 H 0.51774 0.17591 0.46327 0.0
H772 H 0.60941 0.21433 0.45524 0.0
H773 H 0.58868 0.12376 0.40556 0.0
H774 H 0.58168 0.14678 0.39018 0.0
H775 H 0.56165 0.13009 0.4143 0.0
C776 C 0.53242 0.17955 0.40861 0.0
C777 C 0.51805 0.17875 0.42774 0.0
C778 C 0.55723 0.17944 0.41004 0.0
C779 C 0.56783 0.1779 0.43058 0.0
C780 C 0.55296 0.17615 0.44963 0.0
H781 H 0.72008 0.16937 0.43633 0.0
H782 H 0.67219 0.15795 0.44122 0.0
C783 C 0.52839 0.17667 0.44823 0.0
C784 C 0.59553 0.1807 0.43235 0.0
H785 H 0.63647 0.15737 0.41131 0.0
C786 C 0.61515 0.20157 0.44586 0.0
C787 C 0.60305 0.16381 0.42046 0.0
C788 C 0.58253 0.13967 0.40702 0.0
C789 C 0.64227 0.20677 0.44708 0.0
C790 C 0.65031 0.19124 0.43391 0.0
C791 C 0.63043 0.16955 0.42118 0.0
C792 C 0.67949 0.1983 0.43211 0.0
C793 C 0.66203 0.22892 0.46247 0.0
C794 C 0.69947 0.22469 0.4253 0.0
C795 C 0.72677 0.23134 0.42271 0.0
C796 C 0.73474 0.21159 0.42651 0.0
C797 C 0.7147 0.18511 0.43336 0.0
C798 C 0.68731 0.17852 0.43609 0.0
H799 H 0.65101 0.2318 0.47645 0.0
H800 H 0.67753 0.22406 0.46911 0.0
H801 H 0.67293 0.2487 0.45345 0.0
H802 H 0.69385 0.24008 0.42152 0.0
H803 H 0.74152 0.25187 0.41723 0.0
H804 H 0.34296 0.51661 0.96131 0.0
H805 H 0.38589 0.56056 0.96319 0.0
H806 H 0.38715 0.5665 0.89253 0.0
H807 H 0.34468 0.52202 0.89049 0.0
H808 H 0.43811 0.58482 0.90876 0.0
H809 H 0.38713 0.63216 0.95484 0.0
H810 H 0.38545 0.60307 0.9685 0.0
H811 H 0.36817 0.59852 0.94263 0.0
C812 C 0.35252 0.52716 0.94615 0.0
C813 C 0.34028 0.51603 0.92575 0.0
C814 C 0.37697 0.55236 0.94727 0.0
C815 C 0.38934 0.56721 0.92805 0.0
C816 C 0.37786 0.55551 0.9076 0.0
H817 H 0.49232 0.74076 0.91243 0.0
H818 H 0.45587 0.6931 0.9154 0.0
C819 C 0.35359 0.53009 0.90645 0.0
C820 C 0.41353 0.59538 0.92921 0.0
H821 H 0.43498 0.65963 0.94947 0.0
C822 C 0.43749 0.60119 0.9177 0.0
C823 C 0.41255 0.61681 0.94066 0.0
C824 C 0.38688 0.61247 0.95218 0.0
C825 C 0.46039 0.62787 0.91714 0.0
C826 C 0.45955 0.64918 0.92891 0.0
C827 C 0.43571 0.64324 0.94065 0.0
C828 C 0.48215 0.67822 0.92785 0.0
C829 C 0.48477 0.63317 0.90323 0.0
C830 C 0.5091 0.68593 0.93425 0.0
C831 C 0.53022 0.71331 0.93235 0.0
C832 C 0.52464 0.73352 0.92433 0.0
C833 C 0.49744 0.72581 0.91867 0.0
C834 C 0.4765 0.6985 0.92035 0.0
H835 H 0.47944 0.61647 0.8911 0.0
H836 H 0.49303 0.65293 0.89423 0.0
H837 H 0.50127 0.63433 0.91399 0.0
H838 H 0.51383 0.67078 0.94064 0.0
H839 H 0.55089 0.71859 0.93701 0.0
H840 H 0.38862 0.20998 0.34853 0.0
H841 H 0.38494 0.21326 0.30882 0.0
H842 H 0.43431 0.1751 0.2989 0.0
H843 H 0.43879 0.17247 0.33862 0.0
H844 H 0.45278 0.22028 0.27487 0.0
H845 H 0.34027 0.15712 0.26293 0.0
H846 H 0.34943 0.18401 0.28267 0.0
H847 H 0.35689 0.15694 0.28826 0.0
C848 C 0.39839 0.20191 0.33793 0.0
C849 C 0.41405 0.19099 0.3468 0.0
C850 C 0.3961 0.20365 0.31518 0.0
C851 C 0.40902 0.19408 0.30082 0.0
C852 C 0.4241 0.18256 0.30964 0.0
H853 H 0.38922 0.17785 0.15888 0.0
H854 H 0.38633 0.16998 0.19852 0.0
C855 C 0.42662 0.18105 0.33237 0.0
C856 C 0.40858 0.19792 0.27669 0.0
H857 H 0.36608 0.18547 0.23272 0.0
C858 C 0.4338 0.2125 0.26565 0.0
C859 C 0.38383 0.18754 0.26458 0.0
C860 C 0.35608 0.17029 0.27517 0.0
C861 C 0.435 0.21732 0.24296 0.0
C862 C 0.41028 0.20799 0.23101 0.0
C863 C 0.38502 0.19299 0.24194 0.0
C864 C 0.41032 0.21304 0.20705 0.0
C865 C 0.4628 0.23187 0.23197 0.0
C866 C 0.42403 0.23992 0.19867 0.0
C867 C 0.42595 0.2445 0.176 0.0
C868 C 0.41381 0.22229 0.16125 0.0
C869 C 0.39888 0.19544 0.16974 0.0
C870 C 0.3972 0.19088 0.19242 0.0
H871 H 0.47867 0.23055 0.24194 0.0
H872 H 0.46205 0.2231 0.21548 0.0
H873 H 0.46935 0.25393 0.22998 0.0
H874 H 0.43366 0.25737 0.20966 0.0
H875 H 0.43732 0.26545 0.17005 0.0
H876 H 0.19552 0.37295 0.65817 0.0
H877 H 0.19756 0.36704 0.6978 0.0
H878 H 0.1927 0.44023 0.70925 0.0
H879 H 0.18991 0.4459 0.6698 0.0
H880 H 0.23618 0.40037 0.72602 0.0
H881 H 0.13659 0.38834 0.75227 0.0
H882 H 0.14438 0.38617 0.72385 0.0
H883 H 0.15616 0.41913 0.73658 0.0
C884 C 0.19448 0.38758 0.66912 0.0
C885 C 0.19245 0.40986 0.66076 0.0
C886 C 0.19569 0.38418 0.69179 0.0
C887 C 0.19488 0.40295 0.70656 0.0
C888 C 0.19262 0.42506 0.69825 0.0
H889 H 0.26279 0.44653 0.83649 0.0
H890 H 0.25404 0.44074 0.79708 0.0
C891 C 0.19119 0.42836 0.67563 0.0
C892 C 0.19822 0.40053 0.73053 0.0
H893 H 0.17066 0.40044 0.78051 0.0
C894 C 0.22167 0.40004 0.73792 0.0
C895 C 0.17909 0.39962 0.7461 0.0
C896 C 0.1525 0.39804 0.73929 0.0
C897 C 0.22705 0.39978 0.76042 0.0
C898 C 0.20885 0.40074 0.77599 0.0
C899 C 0.18484 0.40009 0.7686 0.0
C900 C 0.21471 0.40335 0.79995 0.0
C901 C 0.25214 0.39837 0.76724 0.0
C902 C 0.19529 0.38458 0.8148 0.0
C903 C 0.20007 0.38804 0.83745 0.0
C904 C 0.2244 0.41039 0.8457 0.0
C905 C 0.24397 0.42893 0.83075 0.0
C906 C 0.23907 0.42557 0.80814 0.0
H907 H 0.25839 0.38866 0.7543 0.0
H908 H 0.26952 0.41951 0.76988 0.0
H909 H 0.24849 0.38659 0.78273 0.0
H910 H 0.17629 0.36735 0.80887 0.0
H911 H 0.18454 0.37336 0.84847 0.0
H912 H 0.83617 0.26585 0.33709 0.0
H913 H 0.83187 0.25795 0.29747 0.0
H914 H 0.79227 0.17053 0.30836 0.0
H915 H 0.79716 0.17823 0.34802 0.0
H916 H 0.82802 0.18639 0.27413 0.0
H917 H 0.75993 0.23086 0.26528 0.0
H918 H 0.79258 0.25434 0.27726 0.0
H919 H 0.76921 0.22338 0.29169 0.0
C920 C 0.82673 0.24493 0.33109 0.0
C921 C 0.81675 0.22266 0.34578 0.0
C922 C 0.82413 0.24045 0.30841 0.0
C923 C 0.81111 0.21362 0.29995 0.0
C924 C 0.80219 0.19141 0.31452 0.0
H925 H 0.7421 0.1734 0.16837 0.0
H926 H 0.7492 0.17589 0.20809 0.0
C927 C 0.80501 0.19587 0.33721 0.0
C928 C 0.8061 0.20866 0.27599 0.0
H929 H 0.77567 0.22092 0.23227 0.0
C930 C 0.81649 0.19384 0.26497 0.0
C931 C 0.79057 0.21791 0.26413 0.0
C932 C 0.77718 0.23225 0.27521 0.0
C933 C 0.81225 0.18849 0.24232 0.0
C934 C 0.79775 0.1988 0.2303 0.0
C935 C 0.78697 0.2132 0.24142 0.0
C936 C 0.79349 0.19509 0.20616 0.0
C937 C 0.8229 0.17142 0.23163 0.0
C938 C 0.81599 0.20483 0.1918 0.0
C939 C 0.81197 0.20317 0.16906 0.0
C940 C 0.78538 0.19215 0.16019 0.0
C941 C 0.76285 0.18205 0.17461 0.0
C942 C 0.76688 0.18348 0.19734 0.0
H943 H 0.82562 0.15823 0.24381 0.0
H944 H 0.8088 0.15811 0.21851 0.0
H945 H 0.84325 0.18528 0.22416 0.0
H946 H 0.83676 0.21451 0.19816 0.0
H947 H 0.82981 0.21136 0.15845 0.0
H948 H 0.62243 0.79607 0.84798 0.0
H949 H 0.62652 0.79246 0.80836 0.0
H950 H 0.58123 0.83472 0.79727 0.0
H951 H 0.57634 0.83773 0.83687 0.0
H952 H 0.56076 0.78891 0.77365 0.0
H953 H 0.67365 0.84726 0.76238 0.0
H954 H 0.66295 0.82035 0.78235 0.0
H955 H 0.65732 0.8487 0.78746 0.0
C956 C 0.61369 0.80499 0.83714 0.0
C957 C 0.59899 0.81715 0.84564 0.0
C958 C 0.61621 0.80305 0.81445 0.0
C959 C 0.6045 0.81363 0.79979 0.0
C960 C 0.59049 0.82645 0.80825 0.0
H961 H 0.62462 0.8287 0.65803 0.0
H962 H 0.62808 0.83664 0.69766 0.0
C963 C 0.58773 0.82818 0.83092 0.0
C964 C 0.60491 0.80944 0.77573 0.0
H965 H 0.64719 0.81959 0.7321 0.0
C966 C 0.57969 0.79578 0.76456 0.0
C967 C 0.62961 0.81861 0.76381 0.0
C968 C 0.65742 0.83479 0.77457 0.0
C969 C 0.57842 0.79075 0.74191 0.0
C970 C 0.60303 0.79892 0.73015 0.0
C971 C 0.62832 0.81297 0.74121 0.0
C972 C 0.60286 0.79371 0.70623 0.0
C973 C 0.5507 0.77724 0.73076 0.0
C974 C 0.58829 0.76686 0.69788 0.0
C975 C 0.58606 0.76224 0.67522 0.0
C976 C 0.5987 0.78439 0.66044 0.0
C977 C 0.61454 0.81115 0.66891 0.0
C978 C 0.61656 0.81576 0.69158 0.0
H979 H 0.5352 0.7793 0.74062 0.0
H980 H 0.55199 0.78625 0.71426 0.0
H981 H 0.54328 0.75499 0.72872 0.0
H982 H 0.57816 0.74947 0.7089 0.0
H983 H 0.57397 0.74134 0.6693 0.0
H984 H 0.799 0.62204 0.15835 0.0
H985 H 0.79574 0.62589 0.19803 0.0
H986 H 0.83514 0.57771 0.2083 0.0
H987 H 0.83776 0.57305 0.16861 0.0
H988 H 0.78982 0.55867 0.23221 0.0
H989 H 0.85155 0.6713 0.24391 0.0
H990 H 0.82462 0.6617 0.2241 0.0
H991 H 0.85206 0.65477 0.21865 0.0
C992 C 0.80736 0.61259 0.16903 0.0
C993 C 0.81861 0.59718 0.16026 0.0
C994 C 0.80562 0.61497 0.19175 0.0
C995 C 0.81553 0.60242 0.20619 0.0
C996 C 0.82741 0.58763 0.19748 0.0
H997 H 0.83119 0.62228 0.34806 0.0
H998 H 0.83917 0.62545 0.30845 0.0
C999 C 0.82892 0.58501 0.17477 0.0
C1000 C 0.81162 0.60286 0.23029 0.0
H1001 H 0.82327 0.64531 0.27411 0.0
C1002 C 0.7973 0.57764 0.24137 0.0
C1003 C 0.82161 0.6276 0.24232 0.0
C1004 C 0.83856 0.65537 0.23168 0.0
C1005 C 0.79238 0.57642 0.26404 0.0
C1006 C 0.80131 0.60112 0.27591 0.0
C1007 C 0.81605 0.62638 0.26493 0.0
C1008 C 0.79616 0.60105 0.29983 0.0
C1009 C 0.77814 0.54866 0.27509 0.0
C1010 C 0.76926 0.58704 0.30814 0.0
C1011 C 0.76462 0.58496 0.33079 0.0
C1012 C 0.78679 0.59723 0.34559 0.0
C1013 C 0.81363 0.61251 0.33716 0.0
C1014 C 0.81825 0.61435 0.3145 0.0
H1015 H 0.77973 0.5329 0.26519 0.0
H1016 H 0.78694 0.54959 0.29161 0.0
H1017 H 0.756 0.54182 0.27703 0.0
H1018 H 0.75185 0.57726 0.2971 0.0
H1019 H 0.74367 0.57332 0.33669 0.0
H1020 H 0.19224 0.7444 0.83869 0.0
H1021 H 0.19588 0.75252 0.79911 0.0
H1022 H 0.19606 0.82857 0.80918 0.0
H1023 H 0.19319 0.82103 0.84887 0.0
H1024 H 0.16408 0.75918 0.76921 0.0
H1025 H 0.2659 0.85423 0.77437 0.0
H1026 H 0.25049 0.83153 0.79747 0.0
H1027 H 0.23956 0.85557 0.79003 0.0
C1028 C 0.19288 0.76279 0.83252 0.0
C1029 C 0.19273 0.78221 0.84701 0.0
C1030 C 0.19497 0.7674 0.80986 0.0
C1031 C 0.19686 0.79145 0.8012 0.0
C1032 C 0.1954 0.81024 0.81552 0.0
H1033 H 0.18416 0.81124 0.65933 0.0
H1034 H 0.17593 0.80753 0.69896 0.0
C1035 C 0.19356 0.80579 0.83821 0.0
C1036 C 0.20091 0.79694 0.77723 0.0
H1037 H 0.24515 0.84224 0.73929 0.0
C1038 C 0.18176 0.77737 0.76265 0.0
C1039 C 0.2242 0.82053 0.76869 0.0
C1040 C 0.24637 0.84155 0.78342 0.0
C1041 C 0.18532 0.78062 0.7398 0.0
C1042 C 0.20834 0.80447 0.73127 0.0
C1043 C 0.22738 0.82412 0.74584 0.0
C1044 C 0.21393 0.80865 0.70731 0.0
C1045 C 0.16493 0.75798 0.72506 0.0
C1046 C 0.23859 0.8118 0.69889 0.0
C1047 C 0.24357 0.81436 0.67629 0.0
C1048 C 0.22393 0.81375 0.6616 0.0
C1049 C 0.19962 0.81153 0.67015 0.0
C1050 C 0.19477 0.80919 0.6928 0.0
H1051 H 0.15283 0.73835 0.73413 0.0
H1052 H 0.15031 0.76396 0.71832 0.0
H1053 H 0.17545 0.75441 0.7111 0.0
H1054 H 0.25375 0.8116 0.70978 0.0
H1055 H 0.26252 0.81606 0.67033 0.0
H1056 H 0.27284 0.90739 0.95518 0.0
H1057 H 0.29358 0.94888 0.9779 0.0
H1058 H 0.21906 0.95286 0.97342 0.0
H1059 H 0.198 0.91106 0.95093 0.0
H1060 H 0.29992 1.00208 0.96563 0.0
H1061 H 0.23661 0.95755 0.04069 0.0
H1062 H 0.24005 0.93661 0.01984 0.0
H1063 H 0.21802 0.95074 0.01525 0.0
C1064 C 0.26064 0.9167 0.95944 0.0
C1065 C 0.23353 0.90558 0.95174 0.0
C1066 C 0.27263 0.94058 0.97222 0.0
C1067 C 0.2577 0.95366 0.9776 0.0
C1068 C 0.23075 0.94279 0.96974 0.0
H1069 H 0.29179 0.09648 0.05579 0.0
H1070 H 0.27105 0.05515 0.03282 0.0
C1071 C 0.21882 0.91902 0.95684 0.0
C1072 C 0.27059 0.97913 0.99092 0.0
H1073 H 0.26659 0.00561 0.04031 0.0
C1074 C 0.29274 1.0029 0.98199 0.0
C1075 C 0.26103 0.98007 0.01218 0.0
C1076 C 0.23775 0.95488 0.02272 0.0
C1077 C 0.30535 0.02781 0.99364 0.0
C1078 C 0.29595 0.02874 0.01502 0.0
C1079 C 0.27377 0.0049 0.02393 0.0
C1080 C 0.30881 0.05421 0.02847 0.0
C1081 C 0.32812 0.05302 0.98269 0.0
C1082 C 0.33684 0.06724 0.0339 0.0
C1083 C 0.34874 0.09095 0.04687 0.0
C1084 C 0.33279 0.10197 0.05479 0.0
C1085 C 0.30463 0.08858 0.04973 0.0
C1086 C 0.29277 0.06498 0.03663 0.0
H1087 H 0.32736 0.05083 0.96453 0.0
H1088 H 0.32702 0.07167 0.98693 0.0
H1089 H 0.34824 0.05608 0.98835 0.0
H1090 H 0.34944 0.0588 0.02843 0.0
H1091 H 0.37025 0.10017 0.05117 0.0
H1092 H 0.24737 0.3145 0.58352 0.0
H1093 H 0.26868 0.29402 0.56099 0.0
H1094 H 0.24439 0.31937 0.50227 0.0
H1095 H 0.22296 0.3397 0.52476 0.0
H1096 H 0.24473 0.25284 0.52952 0.0
H1097 H 0.3266 0.34949 0.49234 0.0
H1098 H 0.30714 0.34917 0.51602 0.0
H1099 H 0.2925 0.34412 0.48899 0.0
C1100 C 0.24678 0.31583 0.5658 0.0
C1101 C 0.23435 0.32944 0.55585 0.0
C1102 C 0.25893 0.30415 0.55297 0.0
C1103 C 0.2587 0.30575 0.52997 0.0
C1104 C 0.24557 0.31866 0.52 0.0
H1105 H 0.3173 0.24534 0.4238 0.0
H1106 H 0.29589 0.26556 0.4464 0.0
C1107 C 0.23346 0.33037 0.53283 0.0
C1108 C 0.27151 0.29321 0.51642 0.0
H1109 H 0.32107 0.30782 0.47785 0.0
C1110 C 0.26151 0.26486 0.5183 0.0
C1111 C 0.29337 0.30895 0.50177 0.0
C1112 C 0.30575 0.33966 0.49974 0.0
C1113 C 0.27246 0.25173 0.50563 0.0
C1114 C 0.29429 0.26747 0.49096 0.0
C1115 C 0.3043 0.29581 0.48908 0.0
C1116 C 0.30706 0.25493 0.47738 0.0
C1117 C 0.26016 0.22104 0.50769 0.0
C1118 C 0.32053 0.24235 0.48729 0.0
C1119 C 0.33272 0.23074 0.47442 0.0
C1120 C 0.33196 0.23181 0.45138 0.0
C1121 C 0.31831 0.24428 0.44151 0.0
C1122 C 0.30616 0.25591 0.45439 0.0
H1123 H 0.23938 0.21118 0.51523 0.0
H1124 H 0.25863 0.2115 0.4914 0.0
H1125 H 0.27355 0.21665 0.51833 0.0
H1126 H 0.32169 0.24157 0.50501 0.0
H1127 H 0.3422 0.2205 0.48258 0.0
H1128 H 0.91196 0.19662 0.05476 0.0
H1129 H 0.95407 0.21781 0.03266 0.0
H1130 H 0.95274 0.29386 0.03132 0.0
H1131 H 0.91105 0.27301 0.05377 0.0
H1132 H 0.96188 0.24307 0.98983 0.0
H1133 H 0.03103 0.31583 0.0534 0.0
H1134 H 0.9981 0.28639 0.06 0.0
H1135 H 0.9999 0.3166 0.04833 0.0
C1136 C 0.92068 0.21786 0.04975 0.0
C1137 C 0.90792 0.233 0.05565 0.0
C1138 C 0.94466 0.2299 0.03711 0.0
C1139 C 0.95658 0.25743 0.03048 0.0
C1140 C 0.94397 0.27264 0.03642 0.0
H1141 H 0.1023 0.36718 0.95553 0.0
H1142 H 0.06059 0.34653 0.9779 0.0
C1143 C 0.91991 0.26057 0.04897 0.0
C1144 C 0.98203 0.2701 0.01712 0.0
H1145 H 0.04965 0.32013 0.01782 0.0
C1146 C 0.98112 0.25986 0.99594 0.0
C1147 C 0.00701 0.29206 0.02514 0.0
C1148 C 0.00929 0.3033 0.04802 0.0
C1149 C 1.00447 0.27129 0.9824 0.0
C1150 C 0.02956 0.29311 0.99048 0.0
C1151 C 0.03042 0.30338 0.01166 0.0
C1152 C 0.05516 0.3056 0.97722 0.0
C1153 C 1.00184 0.26031 0.95937 0.0
C1154 C 0.06622 0.28956 0.96965 0.0
C1155 C 0.09014 0.30136 0.95694 0.0
C1156 C 0.10376 0.32953 0.95191 0.0
C1157 C 0.0928 0.34561 0.95966 0.0
C1158 C 0.0688 0.33378 0.97229 0.0
H1159 H 0.98012 0.24941 0.95371 0.0
H1160 H 0.01427 0.27711 0.9476 0.0
H1161 H 0.00937 0.24544 0.95904 0.0
H1162 H 0.05639 0.2679 0.97363 0.0
H1163 H 0.09812 0.28847 0.95119 0.0
H1164 H 0.70636 0.9319 0.58174 0.0
H1165 H 0.72774 0.97399 0.5597 0.0
H1166 H 0.67836 0.9287 0.504 0.0
H1167 H 0.65827 0.88635 0.52557 0.0
H1168 H 0.72949 0.96231 0.49185 0.0
H1169 H 0.69496 0.02069 0.54318 0.0
H1170 H 0.71457 0.00908 0.55842 0.0
H1171 H 0.68193 0.98439 0.54683 0.0
C1172 C 0.70002 0.93099 0.56481 0.0
C1173 C 0.67984 0.90605 0.55562 0.0
C1174 C 0.71205 0.9551 0.55229 0.0
C1175 C 0.70402 0.95473 0.53038 0.0
C1176 C 0.68451 0.92963 0.52099 0.0
H1177 H 0.73797 0.0985 0.45314 0.0
H1178 H 0.71719 0.05665 0.4754 0.0
C1179 C 0.67271 0.90549 0.53343 0.0
C1180 C 0.71652 0.98028 0.51701 0.0
H1181 H 0.72816 0.04603 0.51563 0.0
C1182 C 0.72909 0.98058 0.49701 0.0
C1183 C 0.71563 0.00401 0.52355 0.0
C1184 C 0.7008 0.00451 0.54405 0.0
C1185 C 0.74106 0.00397 0.48351 0.0
C1186 C 0.74123 0.02808 0.49052 0.0
C1187 C 0.72835 0.02768 0.51038 0.0
C1188 C 0.75415 0.05376 0.47731 0.0
C1189 C 0.75276 1.00231 0.46163 0.0
C1190 C 0.78194 0.06631 0.4712 0.0
C1191 C 0.79379 0.09015 0.45837 0.0
C1192 C 0.77827 0.10227 0.4519 0.0
C1193 C 0.75061 0.08998 0.45832 0.0
C1194 C 0.73867 0.06597 0.47092 0.0
H1195 H 0.74369 0.98071 0.45593 0.0
H1196 H 0.74911 0.01423 0.44886 0.0
H1197 H 0.77525 0.01088 0.46331 0.0
H1198 H 0.79451 0.05772 0.47639 0.0
H1199 H 0.81519 0.09927 0.45369 0.0
H1200 H 0.73643 0.63993 0.05315 0.0
H1201 H 0.71539 0.66027 0.03028 0.0
H1202 H 0.7909 0.73811 0.03186 0.0
H1203 H 0.8123 0.7177 0.05432 0.0
H1204 H 0.70917 0.70638 0.04069 0.0
H1205 H 0.77216 0.72433 0.96567 0.0
H1206 H 0.76987 0.7012 0.98724 0.0
H1207 H 0.79142 0.73766 0.99062 0.0
C1208 C 0.74877 0.66118 0.0482 0.0
C1209 C 0.77627 0.67704 0.05502 0.0
C1210 C 0.73661 0.67286 0.03534 0.0
C1211 C 0.75174 0.70055 0.02905 0.0
C1212 C 0.77904 0.71655 0.03616 0.0
H1213 H 0.71773 0.80997 0.95196 0.0
H1214 H 0.73823 0.78892 0.97471 0.0
C1215 C 0.79117 0.70492 0.04909 0.0
C1216 C 0.73874 0.7129 0.01556 0.0
H1217 H 0.74294 0.74344 0.96612 0.0
C1218 C 0.71643 0.71438 0.02434 0.0
C1219 C 0.74834 0.72336 0.99428 0.0
C1220 C 0.77161 0.72141 0.98375 0.0
C1221 C 0.70379 0.72658 0.01257 0.0
C1222 C 0.71338 0.73704 0.99126 0.0
C1223 C 0.73565 0.73546 0.98246 0.0
C1224 C 0.70069 0.74979 0.97781 0.0
C1225 C 0.68075 0.72877 0.02329 0.0
C1226 C 0.67289 0.73467 0.97173 0.0
C1227 C 0.66113 0.74669 0.95881 0.0
C1228 C 0.67699 0.77404 0.95167 0.0
C1229 C 0.70495 0.78894 0.95739 0.0
C1230 C 0.71667 0.77695 0.97038 0.0
H1231 H 0.68091 0.72671 0.04143 0.0
H1232 H 0.6821 0.74871 0.01934 0.0
H1233 H 0.66078 0.71203 0.01709 0.0
H1234 H 0.66038 0.71341 0.97668 0.0
H1235 H 0.63983 0.73431 0.95397 0.0
H1236 H 0.9345 0.703 0.42496 0.0
H1237 H 0.97617 0.72405 0.44757 0.0
H1238 H 0.92854 0.67875 0.50392 0.0
H1239 H 0.88668 0.65896 0.48167 0.0
H1240 H 0.96383 0.73041 0.51457 0.0
H1241 H 0.01932 0.6886 0.46781 0.0
H1242 H 0.00925 0.70829 0.45099 0.0
H1243 H 0.98337 0.67691 0.46349 0.0
C1244 C 0.933 0.69749 0.44216 0.0
C1245 C 0.90754 0.67852 0.45137 0.0
C1246 C 0.95683 0.70932 0.45501 0.0
C1247 C 0.95565 0.70231 0.47729 0.0
C1248 C 0.93006 0.68407 0.48667 0.0
H1249 H 0.09648 0.73464 0.55805 0.0
H1250 H 0.05453 0.71384 0.53586 0.0
C1251 C 0.90621 0.67245 0.47387 0.0
C1252 C 0.98092 0.71452 0.491 0.0
H1253 H 0.04536 0.7229 0.49445 0.0
C1254 C 0.98162 0.72867 0.51022 0.0
C1255 C 1.00398 0.71187 0.48553 0.0
C1256 C 1.00391 0.69535 0.46596 0.0
C1257 C 1.00482 0.74054 0.52394 0.0
C1258 C 0.02832 0.73892 0.51795 0.0
C1259 C 0.02748 0.72444 0.4989 0.0
C1260 C 0.05384 0.75172 0.53136 0.0
C1261 C 1.00362 0.75412 0.54496 0.0
C1262 C 0.0676 0.77998 0.53604 0.0
C1263 C 0.0915 0.79185 0.54881 0.0
C1264 C 0.10246 0.77582 0.55666 0.0
C1265 C 0.08886 0.74761 0.55179 0.0
C1266 C 0.0648 0.73569 0.53922 0.0
H1267 H 0.98208 0.7464 0.55031 0.0
H1268 H 0.01485 0.75059 0.55843 0.0
H1269 H 0.01324 0.77658 0.54224 0.0
H1270 H 0.05996 0.79292 0.52971 0.0
H1271 H 0.10164 0.81366 0.55228 0.0
H1272 H 0.7104 0.11365 0.0274 0.0
H1273 H 0.69039 0.06883 0.00922 0.0
H1274 H 0.74785 0.052 0.0431 0.0
H1275 H 0.76721 0.09642 0.06193 0.0
H1276 H 0.71324 0.04681 0.98196 0.0
H1277 H 0.67429 0.98492 0.05818 0.0
H1278 H 0.68643 0.02132 0.05745 0.0
H1279 H 0.71051 0.00911 0.05843 0.0
C1280 C 0.71868 0.10032 0.03099 0.0
C1281 C 0.74031 0.10844 0.04606 0.0
C1282 C 0.70733 0.0748 0.02054 0.0
C1283 C 0.71734 0.05687 0.02504 0.0
C1284 C 0.73946 0.06527 0.03968 0.0
H1285 H 0.67467 0.91103 0.94534 0.0
H1286 H 0.69972 0.95523 0.96449 0.0
C1287 C 0.75074 0.09078 0.0502 0.0
C1288 C 0.70443 0.02939 0.01445 0.0
H1289 H 0.66976 0.96051 0.02531 0.0
C1290 C 0.70379 0.02793 0.99142 0.0
C1291 C 0.69177 0.00478 0.02683 0.0
C1292 C 0.69049 0.00498 0.05158 0.0
C1293 C 0.69087 1.00255 0.98043 0.0
C1294 C 0.67873 0.97793 0.99282 0.0
C1295 C 0.67933 0.97939 0.01584 0.0
C1296 C 0.66419 0.95047 0.98219 0.0
C1297 C 0.68962 1.00236 0.95567 0.0
C1298 C 0.63617 0.93265 0.98642 0.0
C1299 C 0.62199 0.90725 0.9758 0.0
C1300 C 0.63558 0.89915 0.96081 0.0
C1301 C 0.66377 0.91666 0.95699 0.0
C1302 C 0.678 0.94205 0.9677 0.0
H1303 H 0.6936 0.02245 0.94902 0.0
H1304 H 0.70552 0.99816 0.94898 0.0
H1305 H 0.66924 0.98608 0.94968 0.0
H1306 H 0.62513 0.93864 0.99763 0.0
H1307 H 0.6003 0.89402 0.97912 0.0
H1308 H 0.70965 0.59835 0.4785 0.0
H1309 H 0.68939 0.62288 0.49679 0.0
H1310 H 0.74752 0.69777 0.46408 0.0
H1311 H 0.7672 0.67305 0.4452 0.0
H1312 H 0.7121 0.66777 0.5246 0.0
H1313 H 0.67377 0.69092 0.44805 0.0
H1314 H 0.68583 0.66659 0.44892 0.0
H1315 H 0.70998 0.70285 0.44809 0.0
C1316 C 0.71804 0.62004 0.47522 0.0
C1317 C 0.73991 0.63381 0.46042 0.0
C1318 C 0.70655 0.63405 0.48572 0.0
C1319 C 0.71665 0.66206 0.48154 0.0
C1320 C 0.73906 0.67605 0.46724 0.0
H1321 H 0.67391 0.76558 0.56033 0.0
H1322 H 0.69878 0.74612 0.54137 0.0
C1323 C 0.75051 0.66201 0.45668 0.0
C1324 C 0.70351 0.67644 0.49204 0.0
H1325 H 0.66879 0.71056 0.48089 0.0
C1326 C 0.70268 0.67718 0.51506 0.0
C1327 C 0.69089 0.68837 0.47955 0.0
C1328 C 0.68987 0.68699 0.45479 0.0
C1329 C 0.68966 0.68962 0.52594 0.0
C1330 C 0.67758 0.70209 0.51345 0.0
C1331 C 0.67832 0.70125 0.49043 0.0
C1332 C 0.66309 0.71511 0.52396 0.0
C1333 C 0.6883 0.6886 0.5507 0.0
C1334 C 0.63504 0.70485 0.51983 0.0
C1335 C 0.62093 0.71621 0.53037 0.0
C1336 C 0.63466 0.73811 0.54517 0.0
C1337 C 0.6629 0.74887 0.54885 0.0
C1338 C 0.67703 0.73755 0.53825 0.0
H1339 H 0.69235 0.67258 0.55743 0.0
H1340 H 0.70409 0.70874 0.5574 0.0
H1341 H 0.66786 0.68444 0.55657 0.0
H1342 H 0.62391 0.68766 0.50876 0.0
H1343 H 0.59921 0.70771 0.52713 0.0
H1344 H 0.89626 0.59949 0.02734 0.0
H1345 H 0.94126 0.62432 0.00933 0.0
H1346 H 0.9579 0.69861 0.04291 0.0
H1347 H 0.91318 0.67369 0.06141 0.0
H1348 H 0.97013 0.70247 0.99432 0.0
H1349 H 0.01624 0.65276 0.04419 0.0
H1350 H 0.98328 0.63014 0.03204 0.0
H1351 H 0.98612 0.65398 0.05289 0.0
C1352 C 0.90953 0.62112 0.03085 0.0
C1353 C 0.90127 0.63469 0.04573 0.0
C1354 C 0.93517 0.63525 0.02057 0.0
C1355 C 0.95292 0.66321 0.02495 0.0
C1356 C 0.94444 0.67703 0.03933 0.0
H1357 H 0.12762 0.75724 0.99183 0.0
H1358 H 0.0831 0.73831 0.01076 0.0
C1359 C 0.91886 0.66284 0.04976 0.0
C1360 C 0.98057 0.67782 0.01482 0.0
H1361 H 0.04266 0.68053 0.01443 0.0
C1362 C 0.98606 0.69781 0.99875 0.0
C1363 C 1.00134 0.67185 0.02085 0.0
C1364 C 0.99668 0.65117 0.03855 0.0
C1365 C 0.01166 0.7115 0.98809 0.0
C1366 C 0.03214 0.7049 0.99363 0.0
C1367 C 0.02687 0.68544 0.01014 0.0
C1368 C 0.05891 0.71735 0.98207 0.0
C1369 C 0.01665 0.73295 0.97101 0.0
C1370 C 0.06 0.71173 0.95975 0.0
C1371 C 0.08529 0.72236 0.94905 0.0
C1372 C 0.10988 0.73873 0.9605 0.0
C1373 C 0.10884 0.74465 0.98274 0.0
C1374 C 0.08352 0.73386 0.9935 0.0
H1375 H 1.00161 0.74024 0.97235 0.0
H1376 H 0.03774 0.75086 0.97252 0.0
H1377 H 0.01459 0.72396 0.95441 0.0
H1378 H 0.04129 0.69873 0.95071 0.0
H1379 H 0.08568 0.71768 0.93184 0.0
H1380 H 0.29998 0.8925 0.52853 0.0
H1381 H 0.32026 0.93707 0.5099 0.0
H1382 H 0.26276 0.95464 0.54275 0.0
H1383 H 0.24324 0.91058 0.56211 0.0
H1384 H 0.29846 0.95901 0.482 0.0
H1385 H 0.33569 0.02179 0.55787 0.0
H1386 H 0.32332 0.98535 0.55765 0.0
H1387 H 0.29943 0.99783 0.55782 0.0
C1388 C 0.29178 0.90596 0.53181 0.0
C1389 C 0.27012 0.89817 0.54679 0.0
C1390 C 0.30326 0.93133 0.5211 0.0
C1391 C 0.29334 0.94942 0.52519 0.0
C1392 C 0.27114 0.94129 0.53967 0.0
H1393 H 0.33656 0.09407 0.44362 0.0
H1394 H 0.31159 0.04973 0.46259 0.0
C1395 C 0.25975 0.91597 0.55049 0.0
C1396 C 0.30641 0.97678 0.51436 0.0
H1397 H 0.34025 0.04577 0.52471 0.0
C1398 C 0.30757 0.97799 0.49133 0.0
C1399 C 0.31865 1.00154 0.52656 0.0
C1400 C 0.3195 1.00168 0.55134 0.0
C1401 C 0.32056 1.00325 0.48016 0.0
C1402 C 0.33218 0.02801 0.49235 0.0
C1403 C 0.33107 0.02679 0.51538 0.0
C1404 C 0.34667 0.0554 0.48157 0.0
C1405 C 0.32243 1.00315 0.45543 0.0
C1406 C 0.37437 0.07376 0.48653 0.0
C1407 C 0.38845 0.09926 0.47604 0.0
C1408 C 0.37508 0.10694 0.46047 0.0
C1409 C 0.34724 0.0888 0.45579 0.0
C1410 C 0.33309 0.06332 0.46638 0.0
H1411 H 0.31911 0.98315 0.44915 0.0
H1412 H 0.30635 0.00673 0.44822 0.0
H1413 H 0.34277 0.01968 0.44963 0.0
H1414 H 0.38525 0.06816 0.49826 0.0
H1415 H 0.40989 0.11294 0.47999 0.0
H1416 H 0.25913 0.37706 0.99047 0.0
H1417 H 0.27944 0.3527 0.00933 0.0
H1418 H 0.30493 0.33676 0.94685 0.0
H1419 H 0.28531 0.36173 0.92816 0.0
H1420 H 0.26994 0.30033 0.00675 0.0
H1421 H 0.37659 0.37289 0.98011 0.0
H1422 H 0.34896 0.38017 0.9767 0.0
H1423 H 0.35308 0.35807 0.95759 0.0
C1424 C 0.26909 0.36828 0.98088 0.0
C1425 C 0.2711 0.37146 0.95799 0.0
C1426 C 0.28064 0.35439 0.9916 0.0
C1427 C 0.29428 0.34344 0.97955 0.0
C1428 C 0.29524 0.34571 0.95655 0.0
H1429 H 0.37783 0.25346 0.01608 0.0
H1430 H 0.35298 0.27267 0.99632 0.0
C1431 C 0.28391 0.35978 0.94588 0.0
C1432 C 0.30764 0.3298 0.99104 0.0
H1433 H 0.36915 0.33202 0.99776 0.0
C1434 C 0.29165 0.30732 0.00484 0.0
C1435 C 0.33602 0.33899 0.98862 0.0
C1436 C 0.35474 0.36401 0.97513 0.0
C1437 C 0.30319 0.2936 0.01601 0.0
C1438 C 0.33144 0.30265 0.01338 0.0
C1439 C 0.34742 0.32502 0.99957 0.0
C1440 C 0.34508 0.28977 0.02538 0.0
C1441 C 0.2851 0.26934 0.0304 0.0
C1442 C 0.34884 0.2931 0.0482 0.0
C1443 C 0.36314 0.28236 0.05938 0.0
C1444 C 0.37384 0.26813 0.04793 0.0
C1445 C 0.36968 0.26437 0.02518 0.0
C1446 C 0.35557 0.27532 0.01394 0.0
H1447 H 0.26292 0.26162 0.02737 0.0
H1448 H 0.28942 0.25232 0.02764 0.0
H1449 H 0.28954 0.27556 0.04789 0.0
H1450 H 0.34118 0.30445 0.05727 0.0
H1451 H 0.36609 0.2854 0.07696 0.0
H1452 H 0.11556 0.40824 0.52731 0.0
H1453 H 0.07072 0.38365 0.50898 0.0
H1454 H 0.05297 0.30939 0.54322 0.0
H1455 H 0.09758 0.33406 0.56195 0.0
H1456 H 0.04069 0.30385 0.49573 0.0
H1457 H 0.99588 0.35761 0.54164 0.0
H1458 H 0.0287 0.3795 0.52906 0.0
H1459 H 0.02606 0.35691 0.55096 0.0
C1460 C 0.10206 0.38667 0.5309 0.0
C1461 C 0.11001 0.37302 0.546 0.0
C1462 C 0.0765 0.37267 0.52045 0.0
C1463 C 0.05846 0.34479 0.52492 0.0
C1464 C 0.06662 0.33091 0.53957 0.0
H1465 H 0.88394 0.25288 0.49074 0.0
H1466 H 0.92821 0.27191 0.51013 0.0
C1467 C 0.09214 0.34496 0.55013 0.0
C1468 C 0.03091 0.33027 0.51452 0.0
H1469 H 0.96964 0.32918 0.51202 0.0
C1470 C 0.02509 0.30927 0.49933 0.0
C1471 C 0.01052 0.33719 0.51949 0.0
C1472 C 0.01539 0.35887 0.53631 0.0
C1473 C 0.99959 0.29551 0.4885 0.0
C1474 C 0.97954 0.30306 0.49293 0.0
C1475 C 0.98511 0.32354 0.50857 0.0
C1476 C 0.95287 0.29047 0.48113 0.0
C1477 C 0.99424 0.27292 0.47245 0.0
C1478 C 0.95213 0.29468 0.45847 0.0
C1479 C 0.92698 0.28397 0.4475 0.0
C1480 C 0.90219 0.26894 0.459 0.0
C1481 C 0.90288 0.2644 0.4816 0.0
C1482 C 0.92806 0.27527 0.49262 0.0
H1483 H 0.00879 0.26516 0.4748 0.0
H1484 H 0.97291 0.25549 0.47413 0.0
H1485 H 0.99679 0.28102 0.45547 0.0
H1486 H 0.97101 0.30667 0.44936 0.0
H1487 H 0.92685 0.28759 0.43003 0.0
loop_
_geom_bond_atom_site_label_1
_geom_bond_atom_site_label_2
_geom_bond_distance
_geom_bond_site_symmetry_2
_ccdc_geom_bond_type
Co0 O3 1.970 . S
Co0 N17 1.989 . S
Co0 O25 1.967 . S
Co0 O32 1.920 . S
Co1 O4 1.966 . S
Co1 N10 2.022 . S
Co1 N18 1.993 . S
Co1 O26 1.941 . S
C2 O3 1.258 . S
C2 O4 1.263 . S
O3 Co0 1.970 . S
O3 C2 1.258 . S
O4 Co1 1.966 . S
O4 C2 1.263 . S
C5 O6 1.235 . S
C5 O32 1.289 . S
O6 C5 1.235 . S
C7 C9 1.400 . S
C7 N10 1.351 . S
C7 C12 1.501 . S
C8 C9 1.387 . S
C8 N11 1.341 . S
C9 C7 1.400 . S
C9 C8 1.387 . S
N10 Co1 2.022 . S
N10 C7 1.351 . S
N10 N11 1.365 . S
N11 C8 1.341 . S
N11 N10 1.365 . S
N11 H31 0.862 . S
C12 C7 1.501 . S
C12 H13 0.961 . S
C12 H14 0.961 . S
C12 H15 0.960 . S
H13 C12 0.961 . S
H14 C12 0.961 . S
H15 C12 0.960 . S
C16 N17 1.342 . S
C16 C20 1.401 . S
C16 C21 1.499 . S
N17 Co0 1.989 . S
N17 C16 1.342 . S
N17 N18 1.388 . S
N18 Co1 1.993 . S
N18 N17 1.388 . S
N18 C19 1.346 . S
C19 N18 1.346 . S
C19 C20 1.396 . S
C19 C29 1.510 . S
C20 C16 1.401 . S
C20 C19 1.396 . S
C21 C16 1.499 . S
C21 H22 0.959 . S
C21 H23 0.960 . S
C21 H24 0.961 . S
H22 C21 0.959 . S
H23 C21 0.960 . S
H24 C21 0.961 . S
O25 Co0 1.967 . S
O25 C33 1.258 . S
O26 Co1 1.941 . S
O26 C33 1.266 . S
H27 C29 0.959 . S
H28 C29 0.961 . S
C29 C19 1.510 . S
C29 H27 0.959 . S
C29 H28 0.961 . S
C29 H30 0.960 . S
H30 C29 0.960 . S
H31 N11 0.862 . S
O32 Co0 1.920 . S
O32 C5 1.289 . S
C33 O25 1.258 . S
C33 O26 1.266 . S
Co34 O37 1.970 . S
Co34 N51 1.989 . S
Co34 O59 1.967 . S
Co34 O66 1.920 . S
Co35 O38 1.966 . S
Co35 N44 2.022 . S
Co35 N52 1.993 . S
Co35 O60 1.941 . S
C36 O37 1.258 . S
C36 O38 1.263 . S
O37 Co34 1.970 . S
O37 C36 1.258 . S
O38 Co35 1.966 . S
O38 C36 1.263 . S
C39 O40 1.235 . S
C39 O66 1.289 . S
O40 C39 1.235 . S
C41 C43 1.400 . S
C41 N44 1.351 . S
C41 C46 1.501 . S
C42 C43 1.387 . S
C42 N45 1.341 . S
C43 C41 1.400 . S
C43 C42 1.387 . S
N44 Co35 2.022 . S
N44 C41 1.351 . S
N44 N45 1.365 . S
N45 C42 1.341 . S
N45 N44 1.365 . S
N45 H65 0.862 . S
C46 C41 1.501 . S
C46 H47 0.961 . S
C46 H48 0.961 . S
C46 H49 0.960 . S
H47 C46 0.961 . S
H48 C46 0.961 . S
H49 C46 0.960 . S
C50 N51 1.342 . S
C50 C54 1.401 . S
C50 C55 1.499 . S
N51 Co34 1.989 . S
N51 C50 1.342 . S
N51 N52 1.388 . S
N52 Co35 1.993 . S
N52 N51 1.388 . S
N52 C53 1.346 . S
C53 N52 1.346 . S
C53 C54 1.396 . S
C53 C63 1.510 . S
C54 C50 1.401 . S
C54 C53 1.396 . S
C55 C50 1.499 . S
C55 H56 0.959 . S
C55 H57 0.960 . S
C55 H58 0.961 . S
H56 C55 0.959 . S
H57 C55 0.960 . S
H58 C55 0.961 . S
O59 Co34 1.967 . S
O59 C67 1.258 . S
O60 Co35 1.941 . S
O60 C67 1.266 . S
H61 C63 0.959 . S
H62 C63 0.961 . S
C63 C53 1.510 . S
C63 H61 0.959 . S
C63 H62 0.961 . S
C63 H64 0.960 . S
H64 C63 0.960 . S
H65 N45 0.862 . S
O66 Co34 1.920 . S
O66 C39 1.289 . S
C67 O59 1.258 . S
C67 O60 1.266 . S
Co68 O71 1.970 . S
Co68 N85 1.989 . S
Co68 O93 1.967 . S
Co68 O100 1.920 . S
Co69 O72 1.966 . S
Co69 N78 2.022 . S
Co69 N86 1.993 . S
Co69 O94 1.941 . S
C70 O71 1.258 . S
C70 O72 1.263 . S
O71 Co68 1.970 . S
O71 C70 1.258 . S
O72 Co69 1.966 . S
O72 C70 1.263 . S
C73 O74 1.235 . S
C73 O100 1.289 . S
O74 C73 1.235 . S
C75 C77 1.400 . S
C75 N78 1.351 . S
C75 C80 1.501 . S
C76 C77 1.387 . S
C76 N79 1.341 . S
C77 C75 1.400 . S
C77 C76 1.387 . S
N78 Co69 2.022 . S
N78 C75 1.351 . S
N78 N79 1.365 . S
N79 C76 1.341 . S
N79 N78 1.365 . S
N79 H99 0.862 . S
C80 C75 1.501 . S
C80 H81 0.961 . S
C80 H82 0.961 . S
C80 H83 0.960 . S
H81 C80 0.961 . S
H82 C80 0.961 . S
H83 C80 0.960 . S
C84 N85 1.342 . S
C84 C88 1.401 . S
C84 C89 1.499 . S
N85 Co68 1.989 . S
N85 C84 1.342 . S
N85 N86 1.388 . S
N86 Co69 1.993 . S
N86 N85 1.388 . S
N86 C87 1.346 . S
C87 N86 1.346 . S
C87 C88 1.396 . S
C87 C97 1.510 . S
C88 C84 1.401 . S
C88 C87 1.396 . S
C89 C84 1.499 . S
C89 H90 0.959 . S
C89 H91 0.960 . S
C89 H92 0.961 . S
H90 C89 0.959 . S
H91 C89 0.960 . S
H92 C89 0.961 . S
O93 Co68 1.967 . S
O93 C101 1.258 . S
O94 Co69 1.941 . S
O94 C101 1.266 . S
H95 C97 0.959 . S
H96 C97 0.961 . S
C97 C87 1.510 . S
C97 H95 0.959 . S
C97 H96 0.961 . S
C97 H98 0.960 . S
H98 C97 0.960 . S
H99 N79 0.862 . S
O100 Co68 1.920 . S
O100 C73 1.289 . S
C101 O93 1.258 . S
C101 O94 1.266 . S
Co102 O105 1.970 . S
Co102 N119 1.989 . S
Co102 O127 1.967 . S
Co102 O134 1.920 . S
Co103 O106 1.966 . S
Co103 N112 2.022 . S
Co103 N120 1.993 . S
Co103 O128 1.941 . S
C104 O105 1.258 . S
C104 O106 1.263 . S
O105 Co102 1.970 . S
O105 C104 1.258 . S
O106 Co103 1.966 . S
O106 C104 1.263 . S
C107 O108 1.235 . S
C107 O134 1.289 . S
O108 C107 1.235 . S
C109 C111 1.400 . S
C109 N112 1.351 . S
C109 C114 1.501 . S
C110 C111 1.387 . S
C110 N113 1.341 . S
C111 C109 1.400 . S
C111 C110 1.387 . S
N112 Co103 2.022 . S
N112 C109 1.351 . S
N112 N113 1.365 . S
N113 C110 1.341 . S
N113 N112 1.365 . S
N113 H133 0.862 . S
C114 C109 1.501 . S
C114 H115 0.961 . S
C114 H116 0.961 . S
C114 H117 0.960 . S
H115 C114 0.961 . S
H116 C114 0.961 . S
H117 C114 0.960 . S
C118 N119 1.342 . S
C118 C122 1.401 . S
C118 C123 1.499 . S
N119 Co102 1.989 . S
N119 C118 1.342 . S
N119 N120 1.388 . S
N120 Co103 1.993 . S
N120 N119 1.388 . S
N120 C121 1.346 . S
C121 N120 1.346 . S
C121 C122 1.396 . S
C121 C131 1.510 . S
C122 C118 1.401 . S
C122 C121 1.396 . S
C123 C118 1.499 . S
C123 H124 0.959 . S
C123 H125 0.960 . S
C123 H126 0.961 . S
H124 C123 0.959 . S
H125 C123 0.960 . S
H126 C123 0.961 . S
O127 Co102 1.967 . S
O127 C135 1.258 . S
O128 Co103 1.941 . S
O128 C135 1.266 . S
H129 C131 0.959 . S
H130 C131 0.961 . S
C131 C121 1.510 . S
C131 H129 0.959 . S
C131 H130 0.961 . S
C131 H132 0.960 . S
H132 C131 0.960 . S
H133 N113 0.862 . S
O134 Co102 1.920 . S
O134 C107 1.289 . S
C135 O127 1.258 . S
C135 O128 1.266 . S
Co136 O139 1.970 . S
Co136 N153 1.989 . S
Co136 O161 1.967 . S
Co136 O168 1.920 . S
Co137 O140 1.966 . S
Co137 N146 2.022 . S
Co137 N154 1.993 . S
Co137 O162 1.941 . S
C138 O139 1.258 . S
C138 O140 1.263 . S
O139 Co136 1.970 . S
O139 C138 1.258 . S
O140 Co137 1.966 . S
O140 C138 1.263 . S
C141 O142 1.235 . S
C141 O168 1.289 . S
O142 C141 1.235 . S
C143 C145 1.400 . S
C143 N146 1.351 . S
C143 C148 1.501 . S
C144 C145 1.387 . S
C144 N147 1.341 . S
C145 C143 1.400 . S
C145 C144 1.387 . S
N146 Co137 2.022 . S
N146 C143 1.351 . S
N146 N147 1.365 . S
N147 C144 1.341 . S
N147 N146 1.365 . S
N147 H167 0.862 . S
C148 C143 1.501 . S
C148 H149 0.961 . S
C148 H150 0.961 . S
C148 H151 0.960 . S
H149 C148 0.961 . S
H150 C148 0.961 . S
H151 C148 0.960 . S
C152 N153 1.342 . S
C152 C156 1.401 . S
C152 C157 1.499 . S
N153 Co136 1.989 . S
N153 C152 1.342 . S
N153 N154 1.388 . S
N154 Co137 1.993 . S
N154 N153 1.388 . S
N154 C155 1.346 . S
C155 N154 1.346 . S
C155 C156 1.396 . S
C155 C165 1.510 . S
C156 C152 1.401 . S
C156 C155 1.396 . S
C157 C152 1.499 . S
C157 H158 0.959 . S
C157 H159 0.960 . S
C157 H160 0.961 . S
H158 C157 0.959 . S
H159 C157 0.960 . S
H160 C157 0.961 . S
O161 Co136 1.967 . S
O161 C169 1.258 . S
O162 Co137 1.941 . S
O162 C169 1.266 . S
H163 C165 0.959 . S
H164 C165 0.961 . S
C165 C155 1.510 . S
C165 H163 0.959 . S
C165 H164 0.961 . S
C165 H166 0.960 . S
H166 C165 0.960 . S
H167 N147 0.862 . S
O168 Co136 1.920 . S
O168 C141 1.289 . S
C169 O161 1.258 . S
C169 O162 1.266 . S
Co170 O173 1.970 . S
Co170 N187 1.989 . S
Co170 O195 1.967 . S
Co170 O202 1.920 . S
Co171 O174 1.966 . S
Co171 N180 2.022 . S
Co171 N188 1.993 . S
Co171 O196 1.941 . S
C172 O173 1.258 . S
C172 O174 1.263 . S
O173 Co170 1.970 . S
O173 C172 1.258 . S
O174 Co171 1.966 . S
O174 C172 1.263 . S
C175 O176 1.235 . S
C175 O202 1.289 . S
O176 C175 1.235 . S
C177 C179 1.400 . S
C177 N180 1.351 . S
C177 C182 1.501 . S
C178 C179 1.387 . S
C178 N181 1.341 . S
C179 C177 1.400 . S
C179 C178 1.387 . S
N180 Co171 2.022 . S
N180 C177 1.351 . S
N180 N181 1.365 . S
N181 C178 1.341 . S
N181 N180 1.365 . S
N181 H201 0.862 . S
C182 C177 1.501 . S
C182 H183 0.961 . S
C182 H184 0.961 . S
C182 H185 0.960 . S
H183 C182 0.961 . S
H184 C182 0.961 . S
H185 C182 0.960 . S
C186 N187 1.342 . S
C186 C190 1.401 . S
C186 C191 1.499 . S
N187 Co170 1.989 . S
N187 C186 1.342 . S
N187 N188 1.388 . S
N188 Co171 1.993 . S
N188 N187 1.388 . S
N188 C189 1.346 . S
C189 N188 1.346 . S
C189 C190 1.396 . S
C189 C199 1.510 . S
C190 C186 1.401 . S
C190 C189 1.396 . S
C191 C186 1.499 . S
C191 H192 0.959 . S
C191 H193 0.960 . S
C191 H194 0.961 . S
H192 C191 0.959 . S
H193 C191 0.960 . S
H194 C191 0.961 . S
O195 Co170 1.967 . S
O195 C203 1.258 . S
O196 Co171 1.941 . S
O196 C203 1.266 . S
H197 C199 0.959 . S
H198 C199 0.961 . S
C199 C189 1.510 . S
C199 H197 0.959 . S
C199 H198 0.961 . S
C199 H200 0.960 . S
H200 C199 0.960 . S
H201 N181 0.862 . S
O202 Co170 1.920 . S
O202 C175 1.289 . S
C203 O195 1.258 . S
C203 O196 1.266 . S
Co204 O207 1.970 . S
Co204 N221 1.989 . S
Co204 O229 1.967 . S
Co204 O236 1.920 . S
Co205 O208 1.966 . S
Co205 N214 2.022 . S
Co205 N222 1.993 . S
Co205 O230 1.941 . S
C206 O207 1.258 . S
C206 O208 1.263 . S
O207 Co204 1.970 . S
O207 C206 1.258 . S
O208 Co205 1.966 . S
O208 C206 1.263 . S
C209 O210 1.235 . S
C209 O236 1.289 . S
O210 C209 1.235 . S
C211 C213 1.400 . S
C211 N214 1.351 . S
C211 C216 1.501 . S
C212 C213 1.387 . S
C212 N215 1.341 . S
C213 C211 1.400 . S
C213 C212 1.387 . S
N214 Co205 2.022 . S
N214 C211 1.351 . S
N214 N215 1.365 . S
N215 C212 1.341 . S
N215 N214 1.365 . S
N215 H235 0.862 . S
C216 C211 1.501 . S
C216 H217 0.961 . S
C216 H218 0.961 . S
C216 H219 0.960 . S
H217 C216 0.961 . S
H218 C216 0.961 . S
H219 C216 0.960 . S
C220 N221 1.342 . S
C220 C224 1.401 . S
C220 C225 1.499 . S
N221 Co204 1.989 . S
N221 C220 1.342 . S
N221 N222 1.388 . S
N222 Co205 1.993 . S
N222 N221 1.388 . S
N222 C223 1.346 . S
C223 N222 1.346 . S
C223 C224 1.396 . S
C223 C233 1.510 . S
C224 C220 1.401 . S
C224 C223 1.396 . S
C225 C220 1.499 . S
C225 H226 0.959 . S
C225 H227 0.960 . S
C225 H228 0.961 . S
H226 C225 0.959 . S
H227 C225 0.960 . S
H228 C225 0.961 . S
O229 Co204 1.967 . S
O229 C237 1.258 . S
O230 Co205 1.941 . S
O230 C237 1.266 . S
H231 C233 0.959 . S
H232 C233 0.961 . S
C233 C223 1.510 . S
C233 H231 0.959 . S
C233 H232 0.961 . S
C233 H234 0.960 . S
H234 C233 0.960 . S
H235 N215 0.862 . S
O236 Co204 1.920 . S
O236 C209 1.289 . S
C237 O229 1.258 . S
C237 O230 1.266 . S
Co238 O241 1.970 . S
Co238 N255 1.989 . S
Co238 O263 1.967 . S
Co238 O270 1.920 . S
Co239 O242 1.966 . S
Co239 N248 2.022 . S
Co239 N256 1.993 . S
Co239 O264 1.941 . S
C240 O241 1.258 . S
C240 O242 1.263 . S
O241 Co238 1.970 . S
O241 C240 1.258 . S
O242 Co239 1.966 . S
O242 C240 1.263 . S
C243 O244 1.235 . S
C243 O270 1.289 . S
O244 C243 1.235 . S
C245 C247 1.400 . S
C245 N248 1.351 . S
C245 C250 1.501 . S
C246 C247 1.387 . S
C246 N249 1.341 . S
C247 C245 1.400 . S
C247 C246 1.387 . S
N248 Co239 2.022 . S
N248 C245 1.351 . S
N248 N249 1.365 . S
N249 C246 1.341 . S
N249 N248 1.365 . S
N249 H269 0.862 . S
C250 C245 1.501 . S
C250 H251 0.961 . S
C250 H252 0.961 . S
C250 H253 0.960 . S
H251 C250 0.961 . S
H252 C250 0.961 . S
H253 C250 0.960 . S
C254 N255 1.342 . S
C254 C258 1.401 . S
C254 C259 1.499 . S
N255 Co238 1.989 . S
N255 C254 1.342 . S
N255 N256 1.388 . S
N256 Co239 1.993 . S
N256 N255 1.388 . S
N256 C257 1.346 . S
C257 N256 1.346 . S
C257 C258 1.396 . S
C257 C267 1.510 . S
C258 C254 1.401 . S
C258 C257 1.396 . S
C259 C254 1.499 . S
C259 H260 0.959 . S
C259 H261 0.960 . S
C259 H262 0.961 . S
H260 C259 0.959 . S
H261 C259 0.960 . S
H262 C259 0.961 . S
O263 Co238 1.967 . S
O263 C271 1.258 . S
O264 Co239 1.941 . S
O264 C271 1.266 . S
H265 C267 0.959 . S
H266 C267 0.961 . S
C267 C257 1.510 . S
C267 H265 0.959 . S
C267 H266 0.961 . S
C267 H268 0.960 . S
H268 C267 0.960 . S
H269 N249 0.862 . S
O270 Co238 1.920 . S
O270 C243 1.289 . S
C271 O263 1.258 . S
C271 O264 1.266 . S
Co272 O275 1.970 . S
Co272 N289 1.989 . S
Co272 O297 1.967 . S
Co272 O304 1.920 . S
Co273 O276 1.966 . S
Co273 N282 2.022 . S
Co273 N290 1.993 . S
Co273 O298 1.941 . S
C274 O275 1.258 . S
C274 O276 1.263 . S
O275 Co272 1.970 . S
O275 C274 1.258 . S
O276 Co273 1.966 . S
O276 C274 1.263 . S
C277 O278 1.235 . S
C277 O304 1.289 . S
O278 C277 1.235 . S
C279 C281 1.400 . S
C279 N282 1.351 . S
C279 C284 1.501 . S
C280 C281 1.387 . S
C280 N283 1.341 . S
C281 C279 1.400 . S
C281 C280 1.387 . S
N282 Co273 2.022 . S
N282 C279 1.351 . S
N282 N283 1.365 . S
N283 C280 1.341 . S
N283 N282 1.365 . S
N283 H303 0.862 . S
C284 C279 1.501 . S
C284 H285 0.961 . S
C284 H286 0.961 . S
C284 H287 0.960 . S
H285 C284 0.961 . S
H286 C284 0.961 . S
H287 C284 0.960 . S
C288 N289 1.342 . S
C288 C292 1.401 . S
C288 C293 1.499 . S
N289 Co272 1.989 . S
N289 C288 1.342 . S
N289 N290 1.388 . S
N290 Co273 1.993 . S
N290 N289 1.388 . S
N290 C291 1.346 . S
C291 N290 1.346 . S
C291 C292 1.396 . S
C291 C301 1.510 . S
C292 C288 1.401 . S
C292 C291 1.396 . S
C293 C288 1.499 . S
C293 H294 0.959 . S
C293 H295 0.960 . S
C293 H296 0.961 . S
H294 C293 0.959 . S
H295 C293 0.960 . S
H296 C293 0.961 . S
O297 Co272 1.967 . S
O297 C305 1.258 . S
O298 Co273 1.941 . S
O298 C305 1.266 . S
H299 C301 0.959 . S
H300 C301 0.961 . S
C301 C291 1.510 . S
C301 H299 0.959 . S
C301 H300 0.961 . S
C301 H302 0.960 . S
H302 C301 0.960 . S
H303 N283 0.862 . S
O304 Co272 1.920 . S
O304 C277 1.289 . S
C305 O297 1.258 . S
C305 O298 1.266 . S
Co306 O309 1.970 . S
Co306 N323 1.989 . S
Co306 O331 1.967 . S
Co306 O338 1.920 . S
Co307 O310 1.966 . S
Co307 N316 2.022 . S
Co307 N324 1.993 . S
Co307 O332 1.941 . S
C308 O309 1.258 . S
C308 O310 1.263 . S
O309 Co306 1.970 . S
O309 C308 1.258 . S
O310 Co307 1.966 . S
O310 C308 1.263 . S
C311 O312 1.235 . S
C311 O338 1.289 . S
O312 C311 1.235 . S
C313 C315 1.400 . S
C313 N316 1.351 . S
C313 C318 1.501 . S
C314 C315 1.387 . S
C314 N317 1.341 . S
C315 C313 1.400 . S
C315 C314 1.387 . S
N316 Co307 2.022 . S
N316 C313 1.351 . S
N316 N317 1.365 . S
N317 C314 1.341 . S
N317 N316 1.365 . S
N317 H337 0.862 . S
C318 C313 1.501 . S
C318 H319 0.961 . S
C318 H320 0.961 . S
C318 H321 0.960 . S
H319 C318 0.961 . S
H320 C318 0.961 . S
H321 C318 0.960 . S
C322 N323 1.342 . S
C322 C326 1.401 . S
C322 C327 1.499 . S
N323 Co306 1.989 . S
N323 C322 1.342 . S
N323 N324 1.388 . S
N324 Co307 1.993 . S
N324 N323 1.388 . S
N324 C325 1.346 . S
C325 N324 1.346 . S
C325 C326 1.396 . S
C325 C335 1.510 . S
C326 C322 1.401 . S
C326 C325 1.396 . S
C327 C322 1.499 . S
C327 H328 0.959 . S
C327 H329 0.960 . S
C327 H330 0.961 . S
H328 C327 0.959 . S
H329 C327 0.960 . S
H330 C327 0.961 . S
O331 Co306 1.967 . S
O331 C339 1.258 . S
O332 Co307 1.941 . S
O332 C339 1.266 . S
H333 C335 0.959 . S
H334 C335 0.961 . S
C335 C325 1.510 . S
C335 H333 0.959 . S
C335 H334 0.961 . S
C335 H336 0.960 . S
H336 C335 0.960 . S
H337 N317 0.862 . S
O338 Co306 1.920 . S
O338 C311 1.289 . S
C339 O331 1.258 . S
C339 O332 1.266 . S
Co340 O343 1.970 . S
Co340 N357 1.989 . S
Co340 O365 1.967 . S
Co340 O372 1.920 . S
Co341 O344 1.966 . S
Co341 N350 2.022 . S
Co341 N358 1.993 . S
Co341 O366 1.941 . S
C342 O343 1.258 . S
C342 O344 1.263 . S
O343 Co340 1.970 . S
O343 C342 1.258 . S
O344 Co341 1.966 . S
O344 C342 1.263 . S
C345 O346 1.235 . S
C345 O372 1.289 . S
O346 C345 1.235 . S
C347 C349 1.400 . S
C347 N350 1.351 . S
C347 C352 1.501 . S
C348 C349 1.387 . S
C348 N351 1.341 . S
C349 C347 1.400 . S
C349 C348 1.387 . S
N350 Co341 2.022 . S
N350 C347 1.351 . S
N350 N351 1.365 . S
N351 C348 1.341 . S
N351 N350 1.365 . S
N351 H371 0.862 . S
C352 C347 1.501 . S
C352 H353 0.961 . S
C352 H354 0.961 . S
C352 H355 0.960 . S
H353 C352 0.961 . S
H354 C352 0.961 . S
H355 C352 0.960 . S
C356 N357 1.342 . S
C356 C360 1.401 . S
C356 C361 1.499 . S
N357 Co340 1.989 . S
N357 C356 1.342 . S
N357 N358 1.388 . S
N358 Co341 1.993 . S
N358 N357 1.388 . S
N358 C359 1.346 . S
C359 N358 1.346 . S
C359 C360 1.396 . S
C359 C369 1.510 . S
C360 C356 1.401 . S
C360 C359 1.396 . S
C361 C356 1.499 . S
C361 H362 0.959 . S
C361 H363 0.960 . S
C361 H364 0.961 . S
H362 C361 0.959 . S
H363 C361 0.960 . S
H364 C361 0.961 . S
O365 Co340 1.967 . S
O365 C373 1.258 . S
O366 Co341 1.941 . S
O366 C373 1.266 . S
H367 C369 0.959 . S
H368 C369 0.961 . S
C369 C359 1.510 . S
C369 H367 0.959 . S
C369 H368 0.961 . S
C369 H370 0.960 . S
H370 C369 0.960 . S
H371 N351 0.862 . S
O372 Co340 1.920 . S
O372 C345 1.289 . S
C373 O365 1.258 . S
C373 O366 1.266 . S
Co374 O377 1.970 . S
Co374 N391 1.989 . S
Co374 O399 1.967 . S
Co374 O406 1.920 . S
Co375 O378 1.966 . S
Co375 N384 2.022 . S
Co375 N392 1.993 . S
Co375 O400 1.941 . S
C376 O377 1.258 . S
C376 O378 1.263 . S
O377 Co374 1.970 . S
O377 C376 1.258 . S
O378 Co375 1.966 . S
O378 C376 1.263 . S
C379 O380 1.235 . S
C379 O406 1.289 . S
O380 C379 1.235 . S
C381 C383 1.400 . S
C381 N384 1.351 . S
C381 C386 1.501 . S
C382 C383 1.387 . S
C382 N385 1.341 . S
C383 C381 1.400 . S
C383 C382 1.387 . S
N384 Co375 2.022 . S
N384 C381 1.351 . S
N384 N385 1.365 . S
N385 C382 1.341 . S
N385 N384 1.365 . S
N385 H405 0.862 . S
C386 C381 1.501 . S
C386 H387 0.961 . S
C386 H388 0.961 . S
C386 H389 0.960 . S
H387 C386 0.961 . S
H388 C386 0.961 . S
H389 C386 0.960 . S
C390 N391 1.342 . S
C390 C394 1.401 . S
C390 C395 1.499 . S
N391 Co374 1.989 . S
N391 C390 1.342 . S
N391 N392 1.388 . S
N392 Co375 1.993 . S
N392 N391 1.388 . S
N392 C393 1.346 . S
C393 N392 1.346 . S
C393 C394 1.396 . S
C393 C403 1.510 . S
C394 C390 1.401 . S
C394 C393 1.396 . S
C395 C390 1.499 . S
C395 H396 0.959 . S
C395 H397 0.960 . S
C395 H398 0.961 . S
H396 C395 0.959 . S
H397 C395 0.960 . S
H398 C395 0.961 . S
O399 Co374 1.967 . S
O399 C407 1.258 . S
O400 Co375 1.941 . S
O400 C407 1.266 . S
H401 C403 0.959 . S
H402 C403 0.961 . S
C403 C393 1.510 . S
C403 H401 0.959 . S
C403 H402 0.961 . S
C403 H404 0.960 . S
H404 C403 0.960 . S
H405 N385 0.862 . S
O406 Co374 1.920 . S
O406 C379 1.289 . S
C407 O399 1.258 . S
C407 O400 1.266 . S
H408 C416 0.929 . S
H409 C418 0.930 . S
H410 C420 0.930 . S
H411 C423 0.929 . S
H412 C426 0.930 . S
H413 C428 0.960 . S
H414 C428 0.960 . S
H415 C428 0.960 . S
C416 H408 0.929 . S
C416 C417 1.377 . S
C416 C418 1.384 . S
C417 C416 1.377 . S
C417 C423 1.390 . S
C418 H409 0.930 . S
C418 C416 1.384 . S
C418 C419 1.372 . S
C419 C418 1.372 . S
C419 C420 1.400 . S
C419 C424 1.490 . S
C420 H410 0.930 . S
C420 C419 1.400 . S
C420 C423 1.386 . S
H421 C437 0.930 . S
H422 C438 0.931 . S
C423 H411 0.929 . S
C423 C417 1.390 . S
C423 C420 1.386 . S
C424 C419 1.490 . S
C424 C426 1.395 . S
C424 C427 1.403 . S
H425 C431 0.930 . S
C426 H412 0.930 . S
C426 C424 1.395 . S
C426 C429 1.403 . S
C427 C424 1.403 . S
C427 C428 1.524 . S
C427 C431 1.400 . S
C428 H413 0.960 . S
C428 H414 0.960 . S
C428 H415 0.960 . S
C428 C427 1.524 . S
C429 C426 1.403 . S
C429 C430 1.392 . S
C429 C433 1.495 . S
C430 C429 1.392 . S
C430 C431 1.385 . S
C430 C432 1.478 . S
C431 H425 0.930 . S
C431 C427 1.400 . S
C431 C430 1.385 . S
C432 C430 1.478 . S
C432 C434 1.381 . S
C432 C438 1.383 . S
C433 C429 1.495 . S
C433 H439 0.959 . S
C433 H440 0.961 . S
C433 H441 0.960 . S
C434 C432 1.381 . S
C434 C435 1.394 . S
C434 H442 0.930 . S
C435 C434 1.394 . S
C435 C436 1.383 . S
C435 H443 0.929 . S
C436 C435 1.383 . S
C436 C437 1.377 . S
C437 H421 0.930 . S
C437 C436 1.377 . S
C437 C438 1.379 . S
C438 H422 0.931 . S
C438 C432 1.383 . S
C438 C437 1.379 . S
H439 C433 0.959 . S
H440 C433 0.961 . S
H441 C433 0.960 . S
H442 C434 0.930 . S
H443 C435 0.929 . S
H444 C452 0.929 . S
H445 C454 0.930 . S
H446 C456 0.930 . S
H447 C459 0.929 . S
H448 C462 0.930 . S
H449 C464 0.960 . S
H450 C464 0.960 . S
H451 C464 0.960 . S
C452 H444 0.929 . S
C452 C453 1.377 . S
C452 C454 1.384 . S
C453 C452 1.377 . S
C453 C459 1.390 . S
C454 H445 0.930 . S
C454 C452 1.384 . S
C454 C455 1.372 . S
C455 C454 1.372 . S
C455 C456 1.400 . S
C455 C460 1.490 . S
C456 H446 0.930 . S
C456 C455 1.400 . S
C456 C459 1.386 . S
H457 C473 0.930 . S
H458 C474 0.931 . S
C459 H447 0.929 . S
C459 C453 1.390 . S
C459 C456 1.386 . S
C460 C455 1.490 . S
C460 C462 1.395 . S
C460 C463 1.403 . S
H461 C467 0.930 . S
C462 H448 0.930 . S
C462 C460 1.395 . S
C462 C465 1.403 . S
C463 C460 1.403 . S
C463 C464 1.524 . S
C463 C467 1.400 . S
C464 H449 0.960 . S
C464 H450 0.960 . S
C464 H451 0.960 . S
C464 C463 1.524 . S
C465 C462 1.403 . S
C465 C466 1.392 . S
C465 C469 1.495 . S
C466 C465 1.392 . S
C466 C467 1.385 . S
C466 C468 1.478 . S
C467 H461 0.930 . S
C467 C463 1.400 . S
C467 C466 1.385 . S
C468 C466 1.478 . S
C468 C470 1.381 . S
C468 C474 1.383 . S
C469 C465 1.495 . S
C469 H475 0.959 . S
C469 H476 0.961 . S
C469 H477 0.960 . S
C470 C468 1.381 . S
C470 C471 1.394 . S
C470 H478 0.930 . S
C471 C470 1.394 . S
C471 C472 1.383 . S
C471 H479 0.929 . S
C472 C471 1.383 . S
C472 C473 1.377 . S
C473 H457 0.930 . S
C473 C472 1.377 . S
C473 C474 1.379 . S
C474 H458 0.931 . S
C474 C468 1.383 . S
C474 C473 1.379 . S
H475 C469 0.959 . S
H476 C469 0.961 . S
H477 C469 0.960 . S
H478 C470 0.930 . S
H479 C471 0.929 . S
H480 C488 0.929 . S
H481 C490 0.930 . S
H482 C492 0.930 . S
H483 C495 0.929 . S
H484 C498 0.930 . S
H485 C500 0.960 . S
H486 C500 0.960 . S
H487 C500 0.960 . S
C488 H480 0.929 . S
C488 C489 1.377 . S
C488 C490 1.384 . S
C489 C488 1.377 . S
C489 C495 1.390 . S
C490 H481 0.930 . S
C490 C488 1.384 . S
C490 C491 1.372 . S
C491 C490 1.372 . S
C491 C492 1.400 . S
C491 C496 1.490 . S
C492 H482 0.930 . S
C492 C491 1.400 . S
C492 C495 1.386 . S
H493 C509 0.930 . S
H494 C510 0.931 . S
C495 H483 0.929 . S
C495 C489 1.390 . S
C495 C492 1.386 . S
C496 C491 1.490 . S
C496 C498 1.395 . S
C496 C499 1.403 . S
H497 C503 0.930 . S
C498 H484 0.930 . S
C498 C496 1.395 . S
C498 C501 1.403 . S
C499 C496 1.403 . S
C499 C500 1.524 . S
C499 C503 1.400 . S
C500 H485 0.960 . S
C500 H486 0.960 . S
C500 H487 0.960 . S
C500 C499 1.524 . S
C501 C498 1.403 . S
C501 C502 1.392 . S
C501 C505 1.495 . S
C502 C501 1.392 . S
C502 C503 1.385 . S
C502 C504 1.478 . S
C503 H497 0.930 . S
C503 C499 1.400 . S
C503 C502 1.385 . S
C504 C502 1.478 . S
C504 C506 1.381 . S
C504 C510 1.383 . S
C505 C501 1.495 . S
C505 H511 0.959 . S
C505 H512 0.961 . S
C505 H513 0.960 . S
C506 C504 1.381 . S
C506 C507 1.394 . S
C506 H514 0.930 . S
C507 C506 1.394 . S
C507 C508 1.383 . S
C507 H515 0.929 . S
C508 C507 1.383 . S
C508 C509 1.377 . S
C509 H493 0.930 . S
C509 C508 1.377 . S
C509 C510 1.379 . S
C510 H494 0.931 . S
C510 C504 1.383 . S
C510 C509 1.379 . S
H511 C505 0.959 . S
H512 C505 0.961 . S
H513 C505 0.960 . S
H514 C506 0.930 . S
H515 C507 0.929 . S
H516 C524 0.929 . S
H517 C526 0.930 . S
H518 C528 0.930 . S
H519 C531 0.929 . S
H520 C534 0.930 . S
H521 C536 0.960 . S
H522 C536 0.960 . S
H523 C536 0.960 . S
C524 H516 0.929 . S
C524 C525 1.377 . S
C524 C526 1.384 . S
C525 C524 1.377 . S
C525 C531 1.390 . S
C526 H517 0.930 . S
C526 C524 1.384 . S
C526 C527 1.372 . S
C527 C526 1.372 . S
C527 C528 1.400 . S
C527 C532 1.490 . S
C528 H518 0.930 . S
C528 C527 1.400 . S
C528 C531 1.386 . S
H529 C545 0.930 . S
H530 C546 0.931 . S
C531 H519 0.929 . S
C531 C525 1.390 . S
C531 C528 1.386 . S
C532 C527 1.490 . S
C532 C534 1.395 . S
C532 C535 1.403 . S
H533 C539 0.930 . S
C534 H520 0.930 . S
C534 C532 1.395 . S
C534 C537 1.403 . S
C535 C532 1.403 . S
C535 C536 1.524 . S
C535 C539 1.400 . S
C536 H521 0.960 . S
C536 H522 0.960 . S
C536 H523 0.960 . S
C536 C535 1.524 . S
C537 C534 1.403 . S
C537 C538 1.392 . S
C537 C541 1.495 . S
C538 C537 1.392 . S
C538 C539 1.385 . S
C538 C540 1.478 . S
C539 H533 0.930 . S
C539 C535 1.400 . S
C539 C538 1.385 . S
C540 C538 1.478 . S
C540 C542 1.381 . S
C540 C546 1.383 . S
C541 C537 1.495 . S
C541 H547 0.959 . S
C541 H548 0.961 . S
C541 H549 0.960 . S
C542 C540 1.381 . S
C542 C543 1.394 . S
C542 H550 0.930 . S
C543 C542 1.394 . S
C543 C544 1.383 . S
C543 H551 0.929 . S
C544 C543 1.383 . S
C544 C545 1.377 . S
C545 H529 0.930 . S
C545 C544 1.377 . S
C545 C546 1.379 . S
C546 H530 0.931 . S
C546 C540 1.383 . S
C546 C545 1.379 . S
H547 C541 0.959 . S
H548 C541 0.961 . S
H549 C541 0.960 . S
H550 C542 0.930 . S
H551 C543 0.929 . S
H552 C560 0.929 . S
H553 C562 0.930 . S
H554 C564 0.930 . S
H555 C567 0.929 . S
H556 C570 0.930 . S
H557 C572 0.960 . S
H558 C572 0.960 . S
H559 C572 0.960 . S
C560 H552 0.929 . S
C560 C561 1.377 . S
C560 C562 1.384 . S
C561 C560 1.377 . S
C561 C567 1.390 . S
C562 H553 0.930 . S
C562 C560 1.384 . S
C562 C563 1.372 . S
C563 C562 1.372 . S
C563 C564 1.400 . S
C563 C568 1.490 . S
C564 H554 0.930 . S
C564 C563 1.400 . S
C564 C567 1.386 . S
H565 C581 0.930 . S
H566 C582 0.931 . S
C567 H555 0.929 . S
C567 C561 1.390 . S
C567 C564 1.386 . S
C568 C563 1.490 . S
C568 C570 1.395 . S
C568 C571 1.403 . S
H569 C575 0.930 . S
C570 H556 0.930 . S
C570 C568 1.395 . S
C570 C573 1.403 . S
C571 C568 1.403 . S
C571 C572 1.524 . S
C571 C575 1.400 . S
C572 H557 0.960 . S
C572 H558 0.960 . S
C572 H559 0.960 . S
C572 C571 1.524 . S
C573 C570 1.403 . S
C573 C574 1.392 . S
C573 C577 1.495 . S
C574 C573 1.392 . S
C574 C575 1.385 . S
C574 C576 1.478 . S
C575 H569 0.930 . S
C575 C571 1.400 . S
C575 C574 1.385 . S
C576 C574 1.478 . S
C576 C578 1.381 . S
C576 C582 1.383 . S
C577 C573 1.495 . S
C577 H583 0.959 . S
C577 H584 0.961 . S
C577 H585 0.960 . S
C578 C576 1.381 . S
C578 C579 1.394 . S
C578 H586 0.930 . S
C579 C578 1.394 . S
C579 C580 1.383 . S
C579 H587 0.929 . S
C580 C579 1.383 . S
C580 C581 1.377 . S
C581 H565 0.930 . S
C581 C580 1.377 . S
C581 C582 1.379 . S
C582 H566 0.931 . S
C582 C576 1.383 . S
C582 C581 1.379 . S
H583 C577 0.959 . S
H584 C577 0.961 . S
H585 C577 0.960 . S
H586 C578 0.930 . S
H587 C579 0.929 . S
H588 C596 0.929 . S
H589 C598 0.930 . S
H590 C600 0.930 . S
H591 C603 0.929 . S
H592 C606 0.930 . S
H593 C608 0.960 . S
H594 C608 0.960 . S
H595 C608 0.960 . S
C596 H588 0.929 . S
C596 C597 1.377 . S
C596 C598 1.384 . S
C597 C596 1.377 . S
C597 C603 1.390 . S
C598 H589 0.930 . S
C598 C596 1.384 . S
C598 C599 1.372 . S
C599 C598 1.372 . S
C599 C600 1.400 . S
C599 C604 1.490 . S
C600 H590 0.930 . S
C600 C599 1.400 . S
C600 C603 1.386 . S
H601 C617 0.930 . S
H602 C618 0.931 . S
C603 H591 0.929 . S
C603 C597 1.390 . S
C603 C600 1.386 . S
C604 C599 1.490 . S
C604 C606 1.395 . S
C604 C607 1.403 . S
H605 C611 0.930 . S
C606 H592 0.930 . S
C606 C604 1.395 . S
C606 C609 1.403 . S
C607 C604 1.403 . S
C607 C608 1.524 . S
C607 C611 1.400 . S
C608 H593 0.960 . S
C608 H594 0.960 . S
C608 H595 0.960 . S
C608 C607 1.524 . S
C609 C606 1.403 . S
C609 C610 1.392 . S
C609 C613 1.495 . S
C610 C609 1.392 . S
C610 C611 1.385 . S
C610 C612 1.478 . S
C611 H605 0.930 . S
C611 C607 1.400 . S
C611 C610 1.385 . S
C612 C610 1.478 . S
C612 C614 1.381 . S
C612 C618 1.383 . S
C613 C609 1.495 . S
C613 H619 0.959 . S
C613 H620 0.961 . S
C613 H621 0.960 . S
C614 C612 1.381 . S
C614 C615 1.394 . S
C614 H622 0.930 . S
C615 C614 1.394 . S
C615 C616 1.383 . S
C615 H623 0.929 . S
C616 C615 1.383 . S
C616 C617 1.377 . S
C617 H601 0.930 . S
C617 C616 1.377 . S
C617 C618 1.379 . S
C618 H602 0.931 . S
C618 C612 1.383 . S
C618 C617 1.379 . S
H619 C613 0.959 . S
H620 C613 0.961 . S
H621 C613 0.960 . S
H622 C614 0.930 . S
H623 C615 0.929 . S
H624 C632 0.929 . S
H625 C634 0.930 . S
H626 C636 0.930 . S
H627 C639 0.929 . S
H628 C642 0.930 . S
H629 C644 0.960 . S
H630 C644 0.960 . S
H631 C644 0.960 . S
C632 H624 0.929 . S
C632 C633 1.377 . S
C632 C634 1.384 . S
C633 C632 1.377 . S
C633 C639 1.390 . S
C634 H625 0.930 . S
C634 C632 1.384 . S
C634 C635 1.372 . S
C635 C634 1.372 . S
C635 C636 1.400 . S
C635 C640 1.490 . S
C636 H626 0.930 . S
C636 C635 1.400 . S
C636 C639 1.386 . S
H637 C653 0.930 . S
H638 C654 0.931 . S
C639 H627 0.929 . S
C639 C633 1.390 . S
C639 C636 1.386 . S
C640 C635 1.490 . S
C640 C642 1.395 . S
C640 C643 1.403 . S
H641 C647 0.930 . S
C642 H628 0.930 . S
C642 C640 1.395 . S
C642 C645 1.403 . S
C643 C640 1.403 . S
C643 C644 1.524 . S
C643 C647 1.400 . S
C644 H629 0.960 . S
C644 H630 0.960 . S
C644 H631 0.960 . S
C644 C643 1.524 . S
C645 C642 1.403 . S
C645 C646 1.392 . S
C645 C649 1.495 . S
C646 C645 1.392 . S
C646 C647 1.385 . S
C646 C648 1.478 . S
C647 H641 0.930 . S
C647 C643 1.400 . S
C647 C646 1.385 . S
C648 C646 1.478 . S
C648 C650 1.381 . S
C648 C654 1.383 . S
C649 C645 1.495 . S
C649 H655 0.959 . S
C649 H656 0.961 . S
C649 H657 0.960 . S
C650 C648 1.381 . S
C650 C651 1.394 . S
C650 H658 0.930 . S
C651 C650 1.394 . S
C651 C652 1.383 . S
C651 H659 0.929 . S
C652 C651 1.383 . S
C652 C653 1.377 . S
C653 H637 0.930 . S
C653 C652 1.377 . S
C653 C654 1.379 . S
C654 H638 0.931 . S
C654 C648 1.383 . S
C654 C653 1.379 . S
H655 C649 0.959 . S
H656 C649 0.961 . S
H657 C649 0.960 . S
H658 C650 0.930 . S
H659 C651 0.929 . S
H660 C668 0.929 . S
H661 C670 0.930 . S
H662 C672 0.930 . S
H663 C675 0.929 . S
H664 C678 0.930 . S
H665 C680 0.960 . S
H666 C680 0.960 . S
H667 C680 0.960 . S
C668 H660 0.929 . S
C668 C669 1.377 . S
C668 C670 1.384 . S
C669 C668 1.377 . S
C669 C675 1.390 . S
C670 H661 0.930 . S
C670 C668 1.384 . S
C670 C671 1.372 . S
C671 C670 1.372 . S
C671 C672 1.400 . S
C671 C676 1.490 . S
C672 H662 0.930 . S
C672 C671 1.400 . S
C672 C675 1.386 . S
H673 C689 0.930 . S
H674 C690 0.931 . S
C675 H663 0.929 . S
C675 C669 1.390 . S
C675 C672 1.386 . S
C676 C671 1.490 . S
C676 C678 1.395 . S
C676 C679 1.403 . S
H677 C683 0.930 . S
C678 H664 0.930 . S
C678 C676 1.395 . S
C678 C681 1.403 . S
C679 C676 1.403 . S
C679 C680 1.524 . S
C679 C683 1.400 . S
C680 H665 0.960 . S
C680 H666 0.960 . S
C680 H667 0.960 . S
C680 C679 1.524 . S
C681 C678 1.403 . S
C681 C682 1.392 . S
C681 C685 1.495 . S
C682 C681 1.392 . S
C682 C683 1.385 . S
C682 C684 1.478 . S
C683 H677 0.930 . S
C683 C679 1.400 . S
C683 C682 1.385 . S
C684 C682 1.478 . S
C684 C686 1.381 . S
C684 C690 1.383 . S
C685 C681 1.495 . S
C685 H691 0.959 . S
C685 H692 0.961 . S
C685 H693 0.960 . S
C686 C684 1.381 . S
C686 C687 1.394 . S
C686 H694 0.930 . S
C687 C686 1.394 . S
C687 C688 1.383 . S
C687 H695 0.929 . S
C688 C687 1.383 . S
C688 C689 1.377 . S
C689 H673 0.930 . S
C689 C688 1.377 . S
C689 C690 1.379 . S
C690 H674 0.931 . S
C690 C684 1.383 . S
C690 C689 1.379 . S
H691 C685 0.959 . S
H692 C685 0.961 . S
H693 C685 0.960 . S
H694 C686 0.930 . S
H695 C687 0.929 . S
H696 C704 0.929 . S
H697 C706 0.930 . S
H698 C708 0.930 . S
H699 C711 0.929 . S
H700 C714 0.930 . S
H701 C716 0.960 . S
H702 C716 0.960 . S
H703 C716 0.960 . S
C704 H696 0.929 . S
C704 C705 1.377 . S
C704 C706 1.384 . S
C705 C704 1.377 . S
C705 C711 1.390 . S
C706 H697 0.930 . S
C706 C704 1.384 . S
C706 C707 1.372 . S
C707 C706 1.372 . S
C707 C708 1.400 . S
C707 C712 1.490 . S
C708 H698 0.930 . S
C708 C707 1.400 . S
C708 C711 1.386 . S
H709 C725 0.930 . S
H710 C726 0.931 . S
C711 H699 0.929 . S
C711 C705 1.390 . S
C711 C708 1.386 . S
C712 C707 1.490 . S
C712 C714 1.395 . S
C712 C715 1.403 . S
H713 C719 0.930 . S
C714 H700 0.930 . S
C714 C712 1.395 . S
C714 C717 1.403 . S
C715 C712 1.403 . S
C715 C716 1.524 . S
C715 C719 1.400 . S
C716 H701 0.960 . S
C716 H702 0.960 . S
C716 H703 0.960 . S
C716 C715 1.524 . S
C717 C714 1.403 . S
C717 C718 1.392 . S
C717 C721 1.495 . S
C718 C717 1.392 . S
C718 C719 1.385 . S
C718 C720 1.478 . S
C719 H713 0.930 . S
C719 C715 1.400 . S
C719 C718 1.385 . S
C720 C718 1.478 . S
C720 C722 1.381 . S
C720 C726 1.383 . S
C721 C717 1.495 . S
C721 H727 0.959 . S
C721 H728 0.961 . S
C721 H729 0.960 . S
C722 C720 1.381 . S
C722 C723 1.394 . S
C722 H730 0.930 . S
C723 C722 1.394 . S
C723 C724 1.383 . S
C723 H731 0.929 . S
C724 C723 1.383 . S
C724 C725 1.377 . S
C725 H709 0.930 . S
C725 C724 1.377 . S
C725 C726 1.379 . S
C726 H710 0.931 . S
C726 C720 1.383 . S
C726 C725 1.379 . S
H727 C721 0.959 . S
H728 C721 0.961 . S
H729 C721 0.960 . S
H730 C722 0.930 . S
H731 C723 0.929 . S
H732 C740 0.929 . S
H733 C742 0.930 . S
H734 C744 0.930 . S
H735 C747 0.929 . S
H736 C750 0.930 . S
H737 C752 0.960 . S
H738 C752 0.960 . S
H739 C752 0.960 . S
C740 H732 0.929 . S
C740 C741 1.377 . S
C740 C742 1.384 . S
C741 C740 1.377 . S
C741 C747 1.390 . S
C742 H733 0.930 . S
C742 C740 1.384 . S
C742 C743 1.372 . S
C743 C742 1.372 . S
C743 C744 1.400 . S
C743 C748 1.490 . S
C744 H734 0.930 . S
C744 C743 1.400 . S
C744 C747 1.386 . S
H745 C761 0.930 . S
H746 C762 0.931 . S
C747 H735 0.929 . S
C747 C741 1.390 . S
C747 C744 1.386 . S
C748 C743 1.490 . S
C748 C750 1.395 . S
C748 C751 1.403 . S
H749 C755 0.930 . S
C750 H736 0.930 . S
C750 C748 1.395 . S
C750 C753 1.403 . S
C751 C748 1.403 . S
C751 C752 1.524 . S
C751 C755 1.400 . S
C752 H737 0.960 . S
C752 H738 0.960 . S
C752 H739 0.960 . S
C752 C751 1.524 . S
C753 C750 1.403 . S
C753 C754 1.392 . S
C753 C757 1.495 . S
C754 C753 1.392 . S
C754 C755 1.385 . S
C754 C756 1.478 . S
C755 H749 0.930 . S
C755 C751 1.400 . S
C755 C754 1.385 . S
C756 C754 1.478 . S
C756 C758 1.381 . S
C756 C762 1.383 . S
C757 C753 1.495 . S
C757 H763 0.959 . S
C757 H764 0.961 . S
C757 H765 0.960 . S
C758 C756 1.381 . S
C758 C759 1.394 . S
C758 H766 0.930 . S
C759 C758 1.394 . S
C759 C760 1.383 . S
C759 H767 0.929 . S
C760 C759 1.383 . S
C760 C761 1.377 . S
C761 H745 0.930 . S
C761 C760 1.377 . S
C761 C762 1.379 . S
C762 H746 0.931 . S
C762 C756 1.383 . S
C762 C761 1.379 . S
H763 C757 0.959 . S
H764 C757 0.961 . S
H765 C757 0.960 . S
H766 C758 0.930 . S
H767 C759 0.929 . S
H768 C776 0.929 . S
H769 C778 0.930 . S
H770 C780 0.930 . S
H771 C783 0.929 . S
H772 C786 0.930 . S
H773 C788 0.960 . S
H774 C788 0.960 . S
H775 C788 0.960 . S
C776 H768 0.929 . S
C776 C777 1.377 . S
C776 C778 1.384 . S
C777 C776 1.377 . S
C777 C783 1.390 . S
C778 H769 0.930 . S
C778 C776 1.384 . S
C778 C779 1.372 . S
C779 C778 1.372 . S
C779 C780 1.400 . S
C779 C784 1.490 . S
C780 H770 0.930 . S
C780 C779 1.400 . S
C780 C783 1.386 . S
H781 C797 0.930 . S
H782 C798 0.931 . S
C783 H771 0.929 . S
C783 C777 1.390 . S
C783 C780 1.386 . S
C784 C779 1.490 . S
C784 C786 1.395 . S
C784 C787 1.403 . S
H785 C791 0.930 . S
C786 H772 0.930 . S
C786 C784 1.395 . S
C786 C789 1.403 . S
C787 C784 1.403 . S
C787 C788 1.524 . S
C787 C791 1.400 . S
C788 H773 0.960 . S
C788 H774 0.960 . S
C788 H775 0.960 . S
C788 C787 1.524 . S
C789 C786 1.403 . S
C789 C790 1.392 . S
C789 C793 1.495 . S
C790 C789 1.392 . S
C790 C791 1.385 . S
C790 C792 1.478 . S
C791 H785 0.930 . S
C791 C787 1.400 . S
C791 C790 1.385 . S
C792 C790 1.478 . S
C792 C794 1.381 . S
C792 C798 1.383 . S
C793 C789 1.495 . S
C793 H799 0.959 . S
C793 H800 0.961 . S
C793 H801 0.960 . S
C794 C792 1.381 . S
C794 C795 1.394 . S
C794 H802 0.930 . S
C795 C794 1.394 . S
C795 C796 1.383 . S
C795 H803 0.929 . S
C796 C795 1.383 . S
C796 C797 1.377 . S
C797 H781 0.930 . S
C797 C796 1.377 . S
C797 C798 1.379 . S
C798 H782 0.931 . S
C798 C792 1.383 . S
C798 C797 1.379 . S
H799 C793 0.959 . S
H800 C793 0.961 . S
H801 C793 0.960 . S
H802 C794 0.930 . S
H803 C795 0.929 . S
H804 C812 0.929 . S
H805 C814 0.930 . S
H806 C816 0.930 . S
H807 C819 0.929 . S
H808 C822 0.930 . S
H809 C824 0.960 . S
H810 C824 0.960 . S
H811 C824 0.960 . S
C812 H804 0.929 . S
C812 C813 1.377 . S
C812 C814 1.384 . S
C813 C812 1.377 . S
C813 C819 1.390 . S
C814 H805 0.930 . S
C814 C812 1.384 . S
C814 C815 1.372 . S
C815 C814 1.372 . S
C815 C816 1.400 . S
C815 C820 1.490 . S
C816 H806 0.930 . S
C816 C815 1.400 . S
C816 C819 1.386 . S
H817 C833 0.930 . S
H818 C834 0.931 . S
C819 H807 0.929 . S
C819 C813 1.390 . S
C819 C816 1.386 . S
C820 C815 1.490 . S
C820 C822 1.395 . S
C820 C823 1.403 . S
H821 C827 0.930 . S
C822 H808 0.930 . S
C822 C820 1.395 . S
C822 C825 1.403 . S
C823 C820 1.403 . S
C823 C824 1.524 . S
C823 C827 1.400 . S
C824 H809 0.960 . S
C824 H810 0.960 . S
C824 H811 0.960 . S
C824 C823 1.524 . S
C825 C822 1.403 . S
C825 C826 1.392 . S
C825 C829 1.495 . S
C826 C825 1.392 . S
C826 C827 1.385 . S
C826 C828 1.478 . S
C827 H821 0.930 . S
C827 C823 1.400 . S
C827 C826 1.385 . S
C828 C826 1.478 . S
C828 C830 1.381 . S
C828 C834 1.383 . S
C829 C825 1.495 . S
C829 H835 0.959 . S
C829 H836 0.961 . S
C829 H837 0.960 . S
C830 C828 1.381 . S
C830 C831 1.394 . S
C830 H838 0.930 . S
C831 C830 1.394 . S
C831 C832 1.383 . S
C831 H839 0.929 . S
C832 C831 1.383 . S
C832 C833 1.377 . S
C833 H817 0.930 . S
C833 C832 1.377 . S
C833 C834 1.379 . S
C834 H818 0.931 . S
C834 C828 1.383 . S
C834 C833 1.379 . S
H835 C829 0.959 . S
H836 C829 0.961 . S
H837 C829 0.960 . S
H838 C830 0.930 . S
H839 C831 0.929 . S
H840 C848 0.929 . S
H841 C850 0.930 . S
H842 C852 0.930 . S
H843 C855 0.929 . S
H844 C858 0.930 . S
H845 C860 0.960 . S
H846 C860 0.960 . S
H847 C860 0.960 . S
C848 H840 0.929 . S
C848 C849 1.377 . S
C848 C850 1.384 . S
C849 C848 1.377 . S
C849 C855 1.390 . S
C850 H841 0.930 . S
C850 C848 1.384 . S
C850 C851 1.372 . S
C851 C850 1.372 . S
C851 C852 1.400 . S
C851 C856 1.490 . S
C852 H842 0.930 . S
C852 C851 1.400 . S
C852 C855 1.386 . S
H853 C869 0.930 . S
H854 C870 0.931 . S
C855 H843 0.929 . S
C855 C849 1.390 . S
C855 C852 1.386 . S
C856 C851 1.490 . S
C856 C858 1.395 . S
C856 C859 1.403 . S
H857 C863 0.930 . S
C858 H844 0.930 . S
C858 C856 1.395 . S
C858 C861 1.403 . S
C859 C856 1.403 . S
C859 C860 1.524 . S
C859 C863 1.400 . S
C860 H845 0.960 . S
C860 H846 0.960 . S
C860 H847 0.960 . S
C860 C859 1.524 . S
C861 C858 1.403 . S
C861 C862 1.392 . S
C861 C865 1.495 . S
C862 C861 1.392 . S
C862 C863 1.385 . S
C862 C864 1.478 . S
C863 H857 0.930 . S
C863 C859 1.400 . S
C863 C862 1.385 . S
C864 C862 1.478 . S
C864 C866 1.381 . S
C864 C870 1.383 . S
C865 C861 1.495 . S
C865 H871 0.959 . S
C865 H872 0.961 . S
C865 H873 0.960 . S
C866 C864 1.381 . S
C866 C867 1.394 . S
C866 H874 0.930 . S
C867 C866 1.394 . S
C867 C868 1.383 . S
C867 H875 0.929 . S
C868 C867 1.383 . S
C868 C869 1.377 . S
C869 H853 0.930 . S
C869 C868 1.377 . S
C869 C870 1.379 . S
C870 H854 0.931 . S
C870 C864 1.383 . S
C870 C869 1.379 . S
H871 C865 0.959 . S
H872 C865 0.961 . S
H873 C865 0.960 . S
H874 C866 0.930 . S
H875 C867 0.929 . S
H876 C884 0.929 . S
H877 C886 0.930 . S
H878 C888 0.930 . S
H879 C891 0.929 . S
H880 C894 0.930 . S
H881 C896 0.960 . S
H882 C896 0.960 . S
H883 C896 0.960 . S
C884 H876 0.929 . S
C884 C885 1.377 . S
C884 C886 1.384 . S
C885 C884 1.377 . S
C885 C891 1.390 . S
C886 H877 0.930 . S
C886 C884 1.384 . S
C886 C887 1.372 . S
C887 C886 1.372 . S
C887 C888 1.400 . S
C887 C892 1.490 . S
C888 H878 0.930 . S
C888 C887 1.400 . S
C888 C891 1.386 . S
H889 C905 0.930 . S
H890 C906 0.931 . S
C891 H879 0.929 . S
C891 C885 1.390 . S
C891 C888 1.386 . S
C892 C887 1.490 . S
C892 C894 1.395 . S
C892 C895 1.403 . S
H893 C899 0.930 . S
C894 H880 0.930 . S
C894 C892 1.395 . S
C894 C897 1.403 . S
C895 C892 1.403 . S
C895 C896 1.524 . S
C895 C899 1.400 . S
C896 H881 0.960 . S
C896 H882 0.960 . S
C896 H883 0.960 . S
C896 C895 1.524 . S
C897 C894 1.403 . S
C897 C898 1.392 . S
C897 C901 1.495 . S
C898 C897 1.392 . S
C898 C899 1.385 . S
C898 C900 1.478 . S
C899 H893 0.930 . S
C899 C895 1.400 . S
C899 C898 1.385 . S
C900 C898 1.478 . S
C900 C902 1.381 . S
C900 C906 1.383 . S
C901 C897 1.495 . S
C901 H907 0.959 . S
C901 H908 0.961 . S
C901 H909 0.960 . S
C902 C900 1.381 . S
C902 C903 1.394 . S
C902 H910 0.930 . S
C903 C902 1.394 . S
C903 C904 1.383 . S
C903 H911 0.929 . S
C904 C903 1.383 . S
C904 C905 1.377 . S
C905 H889 0.930 . S
C905 C904 1.377 . S
C905 C906 1.379 . S
C906 H890 0.931 . S
C906 C900 1.383 . S
C906 C905 1.379 . S
H907 C901 0.959 . S
H908 C901 0.961 . S
H909 C901 0.960 . S
H910 C902 0.930 . S
H911 C903 0.929 . S
H912 C920 0.929 . S
H913 C922 0.930 . S
H914 C924 0.930 . S
H915 C927 0.929 . S
H916 C930 0.930 . S
H917 C932 0.960 . S
H918 C932 0.960 . S
H919 C932 0.960 . S
C920 H912 0.929 . S
C920 C921 1.377 . S
C920 C922 1.384 . S
C921 C920 1.377 . S
C921 C927 1.390 . S
C922 H913 0.930 . S
C922 C920 1.384 . S
C922 C923 1.372 . S
C923 C922 1.372 . S
C923 C924 1.400 . S
C923 C928 1.490 . S
C924 H914 0.930 . S
C924 C923 1.400 . S
C924 C927 1.386 . S
H925 C941 0.930 . S
H926 C942 0.931 . S
C927 H915 0.929 . S
C927 C921 1.390 . S
C927 C924 1.386 . S
C928 C923 1.490 . S
C928 C930 1.395 . S
C928 C931 1.403 . S
H929 C935 0.930 . S
C930 H916 0.930 . S
C930 C928 1.395 . S
C930 C933 1.403 . S
C931 C928 1.403 . S
C931 C932 1.524 . S
C931 C935 1.400 . S
C932 H917 0.960 . S
C932 H918 0.960 . S
C932 H919 0.960 . S
C932 C931 1.524 . S
C933 C930 1.403 . S
C933 C934 1.392 . S
C933 C937 1.495 . S
C934 C933 1.392 . S
C934 C935 1.385 . S
C934 C936 1.478 . S
C935 H929 0.930 . S
C935 C931 1.400 . S
C935 C934 1.385 . S
C936 C934 1.478 . S
C936 C938 1.381 . S
C936 C942 1.383 . S
C937 C933 1.495 . S
C937 H943 0.959 . S
C937 H944 0.961 . S
C937 H945 0.960 . S
C938 C936 1.381 . S
C938 C939 1.394 . S
C938 H946 0.930 . S
C939 C938 1.394 . S
C939 C940 1.383 . S
C939 H947 0.929 . S
C940 C939 1.383 . S
C940 C941 1.377 . S
C941 H925 0.930 . S
C941 C940 1.377 . S
C941 C942 1.379 . S
C942 H926 0.931 . S
C942 C936 1.383 . S
C942 C941 1.379 . S
H943 C937 0.959 . S
H944 C937 0.961 . S
H945 C937 0.960 . S
H946 C938 0.930 . S
H947 C939 0.929 . S
H948 C956 0.929 . S
H949 C958 0.930 . S
H950 C960 0.930 . S
H951 C963 0.929 . S
H952 C966 0.930 . S
H953 C968 0.960 . S
H954 C968 0.960 . S
H955 C968 0.960 . S
C956 H948 0.929 . S
C956 C957 1.377 . S
C956 C958 1.384 . S
C957 C956 1.377 . S
C957 C963 1.390 . S
C958 H949 0.930 . S
C958 C956 1.384 . S
C958 C959 1.372 . S
C959 C958 1.372 . S
C959 C960 1.400 . S
C959 C964 1.490 . S
C960 H950 0.930 . S
C960 C959 1.400 . S
C960 C963 1.386 . S
H961 C977 0.930 . S
H962 C978 0.931 . S
C963 H951 0.929 . S
C963 C957 1.390 . S
C963 C960 1.386 . S
C964 C959 1.490 . S
C964 C966 1.395 . S
C964 C967 1.403 . S
H965 C971 0.930 . S
C966 H952 0.930 . S
C966 C964 1.395 . S
C966 C969 1.403 . S
C967 C964 1.403 . S
C967 C968 1.524 . S
C967 C971 1.400 . S
C968 H953 0.960 . S
C968 H954 0.960 . S
C968 H955 0.960 . S
C968 C967 1.524 . S
C969 C966 1.403 . S
C969 C970 1.392 . S
C969 C973 1.495 . S
C970 C969 1.392 . S
C970 C971 1.385 . S
C970 C972 1.478 . S
C971 H965 0.930 . S
C971 C967 1.400 . S
C971 C970 1.385 . S
C972 C970 1.478 . S
C972 C974 1.381 . S
C972 C978 1.383 . S
C973 C969 1.495 . S
C973 H979 0.959 . S
C973 H980 0.961 . S
C973 H981 0.960 . S
C974 C972 1.381 . S
C974 C975 1.394 . S
C974 H982 0.930 . S
C975 C974 1.394 . S
C975 C976 1.383 . S
C975 H983 0.929 . S
C976 C975 1.383 . S
C976 C977 1.377 . S
C977 H961 0.930 . S
C977 C976 1.377 . S
C977 C978 1.379 . S
C978 H962 0.931 . S
C978 C972 1.383 . S
C978 C977 1.379 . S
H979 C973 0.959 . S
H980 C973 0.961 . S
H981 C973 0.960 . S
H982 C974 0.930 . S
H983 C975 0.929 . S
H984 C992 0.929 . S
H985 C994 0.930 . S
H986 C996 0.930 . S
H987 C999 0.929 . S
H988 C1002 0.930 . S
H989 C1004 0.960 . S
H990 C1004 0.960 . S
H991 C1004 0.960 . S
C992 H984 0.929 . S
C992 C993 1.377 . S
C992 C994 1.384 . S
C993 C992 1.377 . S
C993 C999 1.390 . S
C994 H985 0.930 . S
C994 C992 1.384 . S
C994 C995 1.372 . S
C995 C994 1.372 . S
C995 C996 1.400 . S
C995 C1000 1.490 . S
C996 H986 0.930 . S
C996 C995 1.400 . S
C996 C999 1.386 . S
H997 C1013 0.930 . S
H998 C1014 0.931 . S
C999 H987 0.929 . S
C999 C993 1.390 . S
C999 C996 1.386 . S
C1000 C995 1.490 . S
C1000 C1002 1.395 . S
C1000 C1003 1.403 . S
H1001 C1007 0.930 . S
C1002 H988 0.930 . S
C1002 C1000 1.395 . S
C1002 C1005 1.403 . S
C1003 C1000 1.403 . S
C1003 C1004 1.524 . S
C1003 C1007 1.400 . S
C1004 H989 0.960 . S
C1004 H990 0.960 . S
C1004 H991 0.960 . S
C1004 C1003 1.524 . S
C1005 C1002 1.403 . S
C1005 C1006 1.392 . S
C1005 C1009 1.495 . S
C1006 C1005 1.392 . S
C1006 C1007 1.385 . S
C1006 C1008 1.478 . S
C1007 H1001 0.930 . S
C1007 C1003 1.400 . S
C1007 C1006 1.385 . S
C1008 C1006 1.478 . S
C1008 C1010 1.381 . S
C1008 C1014 1.383 . S
C1009 C1005 1.495 . S
C1009 H1015 0.959 . S
C1009 H1016 0.961 . S
C1009 H1017 0.960 . S
C1010 C1008 1.381 . S
C1010 C1011 1.394 . S
C1010 H1018 0.930 . S
C1011 C1010 1.394 . S
C1011 C1012 1.383 . S
C1011 H1019 0.929 . S
C1012 C1011 1.383 . S
C1012 C1013 1.377 . S
C1013 H997 0.930 . S
C1013 C1012 1.377 . S
C1013 C1014 1.379 . S
C1014 H998 0.931 . S
C1014 C1008 1.383 . S
C1014 C1013 1.379 . S
H1015 C1009 0.959 . S
H1016 C1009 0.961 . S
H1017 C1009 0.960 . S
H1018 C1010 0.930 . S
H1019 C1011 0.929 . S
H1020 C1028 0.929 . S
H1021 C1030 0.930 . S
H1022 C1032 0.930 . S
H1023 C1035 0.929 . S
H1024 C1038 0.930 . S
H1025 C1040 0.960 . S
H1026 C1040 0.960 . S
H1027 C1040 0.960 . S
C1028 H1020 0.929 . S
C1028 C1029 1.377 . S
C1028 C1030 1.384 . S
C1029 C1028 1.377 . S
C1029 C1035 1.390 . S
C1030 H1021 0.930 . S
C1030 C1028 1.384 . S
C1030 C1031 1.372 . S
C1031 C1030 1.372 . S
C1031 C1032 1.400 . S
C1031 C1036 1.490 . S
C1032 H1022 0.930 . S
C1032 C1031 1.400 . S
C1032 C1035 1.386 . S
H1033 C1049 0.930 . S
H1034 C1050 0.931 . S
C1035 H1023 0.929 . S
C1035 C1029 1.390 . S
C1035 C1032 1.386 . S
C1036 C1031 1.490 . S
C1036 C1038 1.395 . S
C1036 C1039 1.403 . S
H1037 C1043 0.930 . S
C1038 H1024 0.930 . S
C1038 C1036 1.395 . S
C1038 C1041 1.403 . S
C1039 C1036 1.403 . S
C1039 C1040 1.524 . S
C1039 C1043 1.400 . S
C1040 H1025 0.960 . S
C1040 H1026 0.960 . S
C1040 H1027 0.960 . S
C1040 C1039 1.524 . S
C1041 C1038 1.403 . S
C1041 C1042 1.392 . S
C1041 C1045 1.495 . S
C1042 C1041 1.392 . S
C1042 C1043 1.385 . S
C1042 C1044 1.478 . S
C1043 H1037 0.930 . S
C1043 C1039 1.400 . S
C1043 C1042 1.385 . S
C1044 C1042 1.478 . S
C1044 C1046 1.381 . S
C1044 C1050 1.383 . S
C1045 C1041 1.495 . S
C1045 H1051 0.959 . S
C1045 H1052 0.961 . S
C1045 H1053 0.960 . S
C1046 C1044 1.381 . S
C1046 C1047 1.394 . S
C1046 H1054 0.930 . S
C1047 C1046 1.394 . S
C1047 C1048 1.383 . S
C1047 H1055 0.929 . S
C1048 C1047 1.383 . S
C1048 C1049 1.377 . S
C1049 H1033 0.930 . S
C1049 C1048 1.377 . S
C1049 C1050 1.379 . S
C1050 H1034 0.931 . S
C1050 C1044 1.383 . S
C1050 C1049 1.379 . S
H1051 C1045 0.959 . S
H1052 C1045 0.961 . S
H1053 C1045 0.960 . S
H1054 C1046 0.930 . S
H1055 C1047 0.929 . S
H1056 C1064 0.929 . S
H1057 C1066 0.930 . S
H1058 C1068 0.930 . S
H1059 C1071 0.929 . S
H1060 C1074 0.930 . S
H1061 C1076 0.960 . S
H1062 C1076 0.960 . S
H1063 C1076 0.960 . S
C1064 H1056 0.929 . S
C1064 C1065 1.377 . S
C1064 C1066 1.384 . S
C1065 C1064 1.377 . S
C1065 C1071 1.390 . S
C1066 H1057 0.930 . S
C1066 C1064 1.384 . S
C1066 C1067 1.372 . S
C1067 C1066 1.372 . S
C1067 C1068 1.400 . S
C1067 C1072 1.490 . S
C1068 H1058 0.930 . S
C1068 C1067 1.400 . S
C1068 C1071 1.386 . S
H1069 C1085 0.930 . S
H1070 C1086 0.931 . S
C1071 H1059 0.929 . S
C1071 C1065 1.390 . S
C1071 C1068 1.386 . S
C1072 C1067 1.490 . S
C1072 C1074 1.395 . S
C1072 C1075 1.403 1_556 S
H1073 C1079 0.930 . S
C1074 H1060 0.930 . S
C1074 C1072 1.395 . S
C1074 C1077 1.403 1_565 S
C1075 C1072 1.403 1_554 S
C1075 C1076 1.524 . S
C1075 C1079 1.400 1_565 S
C1076 H1061 0.960 . S
C1076 H1062 0.960 . S
C1076 H1063 0.960 . S
C1076 C1075 1.524 . S
C1077 C1074 1.403 1_545 S
C1077 C1078 1.392 1_556 S
C1077 C1081 1.495 . S
C1078 C1077 1.392 1_554 S
C1078 C1079 1.385 . S
C1078 C1080 1.478 . S
C1079 H1073 0.930 . S
C1079 C1075 1.400 1_545 S
C1079 C1078 1.385 . S
C1080 C1078 1.478 . S
C1080 C1082 1.381 . S
C1080 C1086 1.383 . S
C1081 C1077 1.495 . S
C1081 H1087 0.959 . S
C1081 H1088 0.961 . S
C1081 H1089 0.960 . S
C1082 C1080 1.381 . S
C1082 C1083 1.394 . S
C1082 H1090 0.930 . S
C1083 C1082 1.394 . S
C1083 C1084 1.383 . S
C1083 H1091 0.929 . S
C1084 C1083 1.383 . S
C1084 C1085 1.377 . S
C1085 H1069 0.930 . S
C1085 C1084 1.377 . S
C1085 C1086 1.379 . S
C1086 H1070 0.931 . S
C1086 C1080 1.383 . S
C1086 C1085 1.379 . S
H1087 C1081 0.959 . S
H1088 C1081 0.961 . S
H1089 C1081 0.960 . S
H1090 C1082 0.930 . S
H1091 C1083 0.929 . S
H1092 C1100 0.929 . S
H1093 C1102 0.930 . S
H1094 C1104 0.930 . S
H1095 C1107 0.929 . S
H1096 C1110 0.930 . S
H1097 C1112 0.960 . S
H1098 C1112 0.960 . S
H1099 C1112 0.960 . S
C1100 H1092 0.929 . S
C1100 C1101 1.377 . S
C1100 C1102 1.384 . S
C1101 C1100 1.377 . S
C1101 C1107 1.390 . S
C1102 H1093 0.930 . S
C1102 C1100 1.384 . S
C1102 C1103 1.372 . S
C1103 C1102 1.372 . S
C1103 C1104 1.400 . S
C1103 C1108 1.490 . S
C1104 H1094 0.930 . S
C1104 C1103 1.400 . S
C1104 C1107 1.386 . S
H1105 C1121 0.930 . S
H1106 C1122 0.931 . S
C1107 H1095 0.929 . S
C1107 C1101 1.390 . S
C1107 C1104 1.386 . S
C1108 C1103 1.490 . S
C1108 C1110 1.395 . S
C1108 C1111 1.403 . S
H1109 C1115 0.930 . S
C1110 H1096 0.930 . S
C1110 C1108 1.395 . S
C1110 C1113 1.403 . S
C1111 C1108 1.403 . S
C1111 C1112 1.524 . S
C1111 C1115 1.400 . S
C1112 H1097 0.960 . S
C1112 H1098 0.960 . S
C1112 H1099 0.960 . S
C1112 C1111 1.524 . S
C1113 C1110 1.403 . S
C1113 C1114 1.392 . S
C1113 C1117 1.495 . S
C1114 C1113 1.392 . S
C1114 C1115 1.385 . S
C1114 C1116 1.478 . S
C1115 H1109 0.930 . S
C1115 C1111 1.400 . S
C1115 C1114 1.385 . S
C1116 C1114 1.478 . S
C1116 C1118 1.381 . S
C1116 C1122 1.383 . S
C1117 C1113 1.495 . S
C1117 H1123 0.959 . S
C1117 H1124 0.961 . S
C1117 H1125 0.960 . S
C1118 C1116 1.381 . S
C1118 C1119 1.394 . S
C1118 H1126 0.930 . S
C1119 C1118 1.394 . S
C1119 C1120 1.383 . S
C1119 H1127 0.929 . S
C1120 C1119 1.383 . S
C1120 C1121 1.377 . S
C1121 H1105 0.930 . S
C1121 C1120 1.377 . S
C1121 C1122 1.379 . S
C1122 H1106 0.931 . S
C1122 C1116 1.383 . S
C1122 C1121 1.379 . S
H1123 C1117 0.959 . S
H1124 C1117 0.961 . S
H1125 C1117 0.960 . S
H1126 C1118 0.930 . S
H1127 C1119 0.929 . S
H1128 C1136 0.929 . S
H1129 C1138 0.930 . S
H1130 C1140 0.930 . S
H1131 C1143 0.929 . S
H1132 C1146 0.930 . S
H1133 C1148 0.960 . S
H1134 C1148 0.968 1_655 S
H1135 C1148 0.960 1_655 S
C1136 H1128 0.929 . S
C1136 C1137 1.377 . S
C1136 C1138 1.384 . S
C1137 C1136 1.377 . S
C1137 C1143 1.390 . S
C1138 H1129 0.930 . S
C1138 C1136 1.384 . S
C1138 C1139 1.372 . S
C1139 C1138 1.372 . S
C1139 C1140 1.400 . S
C1139 C1144 1.490 . S
C1140 H1130 0.930 . S
C1140 C1139 1.400 . S
C1140 C1143 1.386 . S
H1141 C1157 0.930 . S
H1142 C1158 0.931 . S
C1143 H1131 0.929 . S
C1143 C1137 1.390 . S
C1143 C1140 1.386 . S
C1144 C1139 1.490 . S
C1144 C1146 1.395 1_554 S
C1144 C1147 1.379 1_655 S
H1145 C1151 0.930 . S
C1146 H1132 0.930 . S
C1146 C1144 1.395 1_556 S
C1146 C1149 1.403 . S
C1147 C1144 1.379 1_455 S
C1147 C1148 1.524 . S
C1147 C1151 1.426 . S
C1148 H1133 0.960 . S
C1148 H1134 0.968 1_455 S
C1148 H1135 0.960 1_455 S
C1148 C1147 1.524 . S
C1149 C1146 1.403 . S
C1149 C1150 1.392 1_655 S
C1149 C1153 1.495 . S
C1150 C1149 1.392 1_455 S
C1150 C1151 1.385 1_556 S
C1150 C1152 1.478 . S
C1151 H1145 0.930 . S
C1151 C1147 1.426 . S
C1151 C1150 1.385 1_554 S
C1152 C1150 1.478 . S
C1152 C1154 1.381 . S
C1152 C1158 1.383 . S
C1153 C1149 1.495 . S
C1153 H1159 0.959 . S
C1153 H1160 0.958 . S
C1153 H1161 0.960 1_655 S
C1154 C1152 1.381 . S
C1154 C1155 1.394 . S
C1154 H1162 0.930 . S
C1155 C1154 1.394 . S
C1155 C1156 1.383 . S
C1155 H1163 0.929 . S
C1156 C1155 1.383 . S
C1156 C1157 1.377 . S
C1157 H1141 0.930 . S
C1157 C1156 1.377 . S
C1157 C1158 1.379 . S
C1158 H1142 0.931 . S
C1158 C1152 1.383 . S
C1158 C1157 1.379 . S
H1159 C1153 0.959 . S
H1160 C1153 0.958 . S
H1161 C1153 0.960 1_455 S
H1162 C1154 0.930 . S
H1163 C1155 0.929 . S
H1164 C1172 0.929 . S
H1165 C1174 0.930 . S
H1166 C1176 0.930 . S
H1167 C1179 0.929 . S
H1168 C1182 0.930 . S
H1169 C1184 0.960 1_545 S
H1170 C1184 0.960 . S
H1171 C1184 0.960 . S
C1172 H1164 0.929 . S
C1172 C1173 1.377 . S
C1172 C1174 1.384 . S
C1173 C1172 1.377 . S
C1173 C1179 1.390 . S
C1174 H1165 0.930 . S
C1174 C1172 1.384 . S
C1174 C1175 1.372 . S
C1175 C1174 1.372 . S
C1175 C1176 1.400 . S
C1175 C1180 1.490 . S
C1176 H1166 0.930 . S
C1176 C1175 1.400 . S
C1176 C1179 1.386 . S
H1177 C1193 0.930 . S
H1178 C1194 0.931 . S
C1179 H1167 0.929 . S
C1179 C1173 1.390 . S
C1179 C1176 1.386 . S
C1180 C1175 1.490 . S
C1180 C1182 1.395 . S
C1180 C1183 1.403 . S
H1181 C1187 0.930 . S
C1182 H1168 0.930 . S
C1182 C1180 1.395 . S
C1182 C1185 1.403 1_565 S
C1183 C1180 1.403 . S
C1183 C1184 1.524 . S
C1183 C1187 1.400 1_565 S
C1184 H1169 0.960 1_565 S
C1184 H1170 0.960 . S
C1184 H1171 0.960 . S
C1184 C1183 1.524 . S
C1185 C1182 1.403 1_545 S
C1185 C1186 1.392 . S
C1185 C1189 1.495 . S
C1186 C1185 1.392 . S
C1186 C1187 1.385 . S
C1186 C1188 1.478 . S
C1187 H1181 0.930 . S
C1187 C1183 1.400 1_545 S
C1187 C1186 1.385 . S
C1188 C1186 1.478 . S
C1188 C1190 1.381 . S
C1188 C1194 1.383 . S
C1189 C1185 1.495 . S
C1189 H1195 0.959 1_545 S
C1189 H1196 0.961 . S
C1189 H1197 0.960 . S
C1190 C1188 1.381 . S
C1190 C1191 1.394 . S
C1190 H1198 0.930 . S
C1191 C1190 1.394 . S
C1191 C1192 1.383 . S
C1191 H1199 0.929 . S
C1192 C1191 1.383 . S
C1192 C1193 1.377 . S
C1193 H1177 0.930 . S
C1193 C1192 1.377 . S
C1193 C1194 1.379 . S
C1194 H1178 0.931 . S
C1194 C1188 1.383 . S
C1194 C1193 1.379 . S
H1195 C1189 0.959 1_565 S
H1196 C1189 0.961 . S
H1197 C1189 0.960 . S
H1198 C1190 0.930 . S
H1199 C1191 0.929 . S
H1200 C1208 0.929 . S
H1201 C1210 0.930 . S
H1202 C1212 0.930 . S
H1203 C1215 0.929 . S
H1204 C1218 0.930 . S
H1205 C1220 0.960 . S
H1206 C1220 0.960 . S
H1207 C1220 0.960 . S
C1208 H1200 0.929 . S
C1208 C1209 1.377 . S
C1208 C1210 1.384 . S
C1209 C1208 1.377 . S
C1209 C1215 1.390 . S
C1210 H1201 0.930 . S
C1210 C1208 1.384 . S
C1210 C1211 1.372 . S
C1211 C1210 1.372 . S
C1211 C1212 1.400 . S
C1211 C1216 1.490 . S
C1212 H1202 0.930 . S
C1212 C1211 1.400 . S
C1212 C1215 1.386 . S
H1213 C1229 0.930 . S
H1214 C1230 0.931 . S
C1215 H1203 0.929 . S
C1215 C1209 1.390 . S
C1215 C1212 1.386 . S
C1216 C1211 1.490 . S
C1216 C1218 1.395 . S
C1216 C1219 1.403 1_554 S
H1217 C1223 0.930 . S
C1218 H1204 0.930 . S
C1218 C1216 1.395 . S
C1218 C1221 1.403 . S
C1219 C1216 1.403 1_556 S
C1219 C1220 1.524 . S
C1219 C1223 1.400 . S
C1220 H1205 0.960 . S
C1220 H1206 0.960 . S
C1220 H1207 0.960 . S
C1220 C1219 1.524 . S
C1221 C1218 1.403 . S
C1221 C1222 1.392 1_554 S
C1221 C1225 1.495 . S
C1222 C1221 1.392 1_556 S
C1222 C1223 1.385 . S
C1222 C1224 1.478 . S
C1223 H1217 0.930 . S
C1223 C1219 1.400 . S
C1223 C1222 1.385 . S
C1224 C1222 1.478 . S
C1224 C1226 1.381 . S
C1224 C1230 1.383 . S
C1225 C1221 1.495 . S
C1225 H1231 0.959 . S
C1225 H1232 0.961 . S
C1225 H1233 0.960 . S
C1226 C1224 1.381 . S
C1226 C1227 1.394 . S
C1226 H1234 0.930 . S
C1227 C1226 1.394 . S
C1227 C1228 1.383 . S
C1227 H1235 0.929 . S
C1228 C1227 1.383 . S
C1228 C1229 1.377 . S
C1229 H1213 0.930 . S
C1229 C1228 1.377 . S
C1229 C1230 1.379 . S
C1230 H1214 0.931 . S
C1230 C1224 1.383 . S
C1230 C1229 1.379 . S
H1231 C1225 0.959 . S
H1232 C1225 0.961 . S
H1233 C1225 0.960 . S
H1234 C1226 0.930 . S
H1235 C1227 0.929 . S
H1236 C1244 0.929 . S
H1237 C1246 0.930 . S
H1238 C1248 0.930 . S
H1239 C1251 0.929 . S
H1240 C1254 0.930 . S
H1241 C1256 0.960 . S
H1242 C1256 0.960 . S
H1243 C1256 0.960 . S
C1244 H1236 0.929 . S
C1244 C1245 1.377 . S
C1244 C1246 1.384 . S
C1245 C1244 1.377 . S
C1245 C1251 1.390 . S
C1246 H1237 0.930 . S
C1246 C1244 1.384 . S
C1246 C1247 1.372 . S
C1247 C1246 1.372 . S
C1247 C1248 1.400 . S
C1247 C1252 1.490 . S
C1248 H1238 0.930 . S
C1248 C1247 1.400 . S
C1248 C1251 1.386 . S
H1249 C1265 0.930 . S
H1250 C1266 0.931 . S
C1251 H1239 0.929 . S
C1251 C1245 1.390 . S
C1251 C1248 1.386 . S
C1252 C1247 1.490 . S
C1252 C1254 1.395 . S
C1252 C1255 1.403 . S
H1253 C1259 0.930 . S
C1254 H1240 0.930 . S
C1254 C1252 1.395 . S
C1254 C1257 1.403 1_655 S
C1255 C1252 1.403 . S
C1255 C1256 1.524 . S
C1255 C1259 1.400 1_655 S
C1256 H1241 0.960 . S
C1256 H1242 0.960 . S
C1256 H1243 0.960 . S
C1256 C1255 1.524 . S
C1257 C1254 1.403 1_455 S
C1257 C1258 1.392 . S
C1257 C1261 1.495 . S
C1258 C1257 1.392 . S
C1258 C1259 1.385 . S
C1258 C1260 1.478 . S
C1259 H1253 0.930 . S
C1259 C1255 1.400 1_455 S
C1259 C1258 1.385 . S
C1260 C1258 1.478 . S
C1260 C1262 1.381 . S
C1260 C1266 1.383 . S
C1261 C1257 1.495 . S
C1261 H1267 0.959 . S
C1261 H1268 0.961 . S
C1261 H1269 0.960 . S
C1262 C1260 1.381 . S
C1262 C1263 1.394 . S
C1262 H1270 0.930 . S
C1263 C1262 1.394 . S
C1263 C1264 1.383 . S
C1263 H1271 0.929 . S
C1264 C1263 1.383 . S
C1264 C1265 1.377 . S
C1265 H1249 0.930 . S
C1265 C1264 1.377 . S
C1265 C1266 1.379 . S
C1266 H1250 0.931 . S
C1266 C1260 1.383 . S
C1266 C1265 1.379 . S
H1267 C1261 0.959 . S
H1268 C1261 0.961 . S
H1269 C1261 0.960 . S
H1270 C1262 0.930 . S
H1271 C1263 0.929 . S
H1272 C1280 0.929 . S
H1273 C1282 0.930 . S
H1274 C1284 0.930 . S
H1275 C1287 0.929 . S
H1276 C1290 0.930 . S
H1277 C1292 0.960 1_565 S
H1278 C1292 0.960 . S
H1279 C1292 0.960 . S
C1280 H1272 0.929 . S
C1280 C1281 1.377 . S
C1280 C1282 1.384 . S
C1281 C1280 1.377 . S
C1281 C1287 1.390 . S
C1282 H1273 0.930 . S
C1282 C1280 1.384 . S
C1282 C1283 1.372 . S
C1283 C1282 1.372 . S
C1283 C1284 1.400 . S
C1283 C1288 1.490 . S
C1284 H1274 0.930 . S
C1284 C1283 1.400 . S
C1284 C1287 1.386 . S
H1285 C1301 0.930 . S
H1286 C1302 0.931 . S
C1287 H1275 0.929 . S
C1287 C1281 1.390 . S
C1287 C1284 1.386 . S
C1288 C1283 1.490 . S
C1288 C1290 1.395 1_554 S
C1288 C1291 1.403 . S
H1289 C1295 0.930 . S
C1290 H1276 0.930 . S
C1290 C1288 1.395 1_556 S
C1290 C1293 1.403 1_545 S
C1291 C1288 1.403 . S
C1291 C1292 1.524 . S
C1291 C1295 1.400 1_545 S
C1292 H1277 0.960 1_545 S
C1292 H1278 0.960 . S
C1292 H1279 0.960 . S
C1292 C1291 1.524 . S
C1293 C1290 1.403 1_565 S
C1293 C1294 1.392 . S
C1293 C1297 1.495 . S
C1294 C1293 1.392 . S
C1294 C1295 1.385 1_556 S
C1294 C1296 1.478 . S
C1295 H1289 0.930 . S
C1295 C1291 1.400 1_565 S
C1295 C1294 1.385 1_554 S
C1296 C1294 1.478 . S
C1296 C1298 1.381 . S
C1296 C1302 1.383 . S
C1297 C1293 1.495 . S
C1297 H1303 0.959 1_565 S
C1297 H1304 0.961 . S
C1297 H1305 0.960 . S
C1298 C1296 1.381 . S
C1298 C1299 1.394 . S
C1298 H1306 0.930 . S
C1299 C1298 1.394 . S
C1299 C1300 1.383 . S
C1299 H1307 0.929 . S
C1300 C1299 1.383 . S
C1300 C1301 1.377 . S
C1301 H1285 0.930 . S
C1301 C1300 1.377 . S
C1301 C1302 1.379 . S
C1302 H1286 0.931 . S
C1302 C1296 1.383 . S
C1302 C1301 1.379 . S
H1303 C1297 0.959 1_545 S
H1304 C1297 0.961 . S
H1305 C1297 0.960 . S
H1306 C1298 0.930 . S
H1307 C1299 0.929 . S
H1308 C1316 0.929 . S
H1309 C1318 0.930 . S
H1310 C1320 0.930 . S
H1311 C1323 0.929 . S
H1312 C1326 0.930 . S
H1313 C1328 0.960 . S
H1314 C1328 0.960 . S
H1315 C1328 0.960 . S
C1316 H1308 0.929 . S
C1316 C1317 1.377 . S
C1316 C1318 1.384 . S
C1317 C1316 1.377 . S
C1317 C1323 1.390 . S
C1318 H1309 0.930 . S
C1318 C1316 1.384 . S
C1318 C1319 1.372 . S
C1319 C1318 1.372 . S
C1319 C1320 1.400 . S
C1319 C1324 1.490 . S
C1320 H1310 0.930 . S
C1320 C1319 1.400 . S
C1320 C1323 1.386 . S
H1321 C1337 0.930 . S
H1322 C1338 0.931 . S
C1323 H1311 0.929 . S
C1323 C1317 1.390 . S
C1323 C1320 1.386 . S
C1324 C1319 1.490 . S
C1324 C1326 1.395 . S
C1324 C1327 1.403 . S
H1325 C1331 0.930 . S
C1326 H1312 0.930 . S
C1326 C1324 1.395 . S
C1326 C1329 1.403 . S
C1327 C1324 1.403 . S
C1327 C1328 1.524 . S
C1327 C1331 1.400 . S
C1328 H1313 0.960 . S
C1328 H1314 0.960 . S
C1328 H1315 0.960 . S
C1328 C1327 1.524 . S
C1329 C1326 1.403 . S
C1329 C1330 1.392 . S
C1329 C1333 1.495 . S
C1330 C1329 1.392 . S
C1330 C1331 1.385 . S
C1330 C1332 1.478 . S
C1331 H1325 0.930 . S
C1331 C1327 1.400 . S
C1331 C1330 1.385 . S
C1332 C1330 1.478 . S
C1332 C1334 1.381 . S
C1332 C1338 1.383 . S
C1333 C1329 1.495 . S
C1333 H1339 0.959 . S
C1333 H1340 0.961 . S
C1333 H1341 0.960 . S
C1334 C1332 1.381 . S
C1334 C1335 1.394 . S
C1334 H1342 0.930 . S
C1335 C1334 1.394 . S
C1335 C1336 1.383 . S
C1335 H1343 0.929 . S
C1336 C1335 1.383 . S
C1336 C1337 1.377 . S
C1337 H1321 0.930 . S
C1337 C1336 1.377 . S
C1337 C1338 1.379 . S
C1338 H1322 0.931 . S
C1338 C1332 1.383 . S
C1338 C1337 1.379 . S
H1339 C1333 0.959 . S
H1340 C1333 0.961 . S
H1341 C1333 0.960 . S
H1342 C1334 0.930 . S
H1343 C1335 0.929 . S
H1344 C1352 0.929 . S
H1345 C1354 0.914 1_556 S
H1346 C1356 0.930 . S
H1347 C1359 0.929 . S
H1348 C1362 0.930 . S
H1349 C1364 0.960 1_455 S
H1350 C1364 0.960 . S
H1351 C1364 0.960 . S
C1352 H1344 0.929 . S
C1352 C1353 1.377 . S
C1352 C1354 1.384 . S
C1353 C1352 1.377 . S
C1353 C1359 1.390 . S
C1354 H1345 0.914 1_554 S
C1354 C1352 1.384 . S
C1354 C1355 1.372 . S
C1355 C1354 1.372 . S
C1355 C1356 1.400 . S
C1355 C1360 1.490 . S
C1356 H1346 0.930 . S
C1356 C1355 1.400 . S
C1356 C1359 1.386 . S
H1357 C1373 0.930 . S
H1358 C1374 0.931 . S
C1359 H1347 0.929 . S
C1359 C1353 1.390 . S
C1359 C1356 1.386 . S
C1360 C1355 1.490 . S
C1360 C1362 1.395 1_554 S
C1360 C1363 1.403 . S
H1361 C1367 0.930 . S
C1362 H1348 0.930 . S
C1362 C1360 1.395 1_556 S
C1362 C1365 1.427 . S
C1363 C1360 1.403 . S
C1363 C1364 1.524 . S
C1363 C1367 1.400 1_655 S
C1364 H1349 0.960 1_655 S
C1364 H1350 0.960 . S
C1364 H1351 0.960 . S
C1364 C1363 1.524 . S
C1365 C1362 1.427 . S
C1365 C1366 1.360 1_655 S
C1365 C1369 1.493 . S
C1366 C1365 1.360 1_455 S
C1366 C1367 1.385 1_556 S
C1366 C1368 1.478 . S
C1367 H1361 0.930 . S
C1367 C1363 1.400 1_455 S
C1367 C1366 1.385 1_554 S
C1368 C1366 1.478 . S
C1368 C1370 1.381 . S
C1368 C1374 1.383 . S
C1369 C1365 1.493 . S
C1369 H1375 1.000 . S
C1369 H1376 0.953 1_655 S
C1369 H1377 0.941 1_655 S
C1370 C1368 1.381 . S
C1370 C1371 1.394 . S
C1370 H1378 0.930 . S
C1371 C1370 1.394 . S
C1371 C1372 1.383 . S
C1371 H1379 0.929 . S
C1372 C1371 1.383 . S
C1372 C1373 1.377 . S
C1373 H1357 0.930 . S
C1373 C1372 1.377 . S
C1373 C1374 1.379 . S
C1374 H1358 0.931 . S
C1374 C1368 1.383 . S
C1374 C1373 1.379 . S
H1375 C1369 1.000 . S
H1376 C1369 0.953 1_455 S
H1377 C1369 0.941 1_455 S
H1378 C1370 0.930 . S
H1379 C1371 0.929 . S
H1380 C1388 0.929 . S
H1381 C1390 0.930 . S
H1382 C1392 0.930 . S
H1383 C1395 0.929 . S
H1384 C1398 0.930 . S
H1385 C1400 0.960 1_545 S
H1386 C1400 0.960 . S
H1387 C1400 0.960 . S
C1388 H1380 0.929 . S
C1388 C1389 1.377 . S
C1388 C1390 1.384 . S
C1389 C1388 1.377 . S
C1389 C1395 1.390 . S
C1390 H1381 0.930 . S
C1390 C1388 1.384 . S
C1390 C1391 1.372 . S
C1391 C1390 1.372 . S
C1391 C1392 1.400 . S
C1391 C1396 1.490 . S
C1392 H1382 0.930 . S
C1392 C1391 1.400 . S
C1392 C1395 1.386 . S
H1393 C1409 0.930 . S
H1394 C1410 0.931 . S
C1395 H1383 0.929 . S
C1395 C1389 1.390 . S
C1395 C1392 1.386 . S
C1396 C1391 1.490 . S
C1396 C1398 1.395 . S
C1396 C1399 1.403 . S
H1397 C1403 0.930 . S
C1398 H1384 0.930 . S
C1398 C1396 1.395 . S
C1398 C1401 1.403 1_565 S
C1399 C1396 1.403 . S
C1399 C1400 1.524 . S
C1399 C1403 1.400 1_565 S
C1400 H1385 0.960 1_565 S
C1400 H1386 0.960 . S
C1400 H1387 0.960 . S
C1400 C1399 1.524 . S
C1401 C1398 1.403 1_545 S
C1401 C1402 1.392 . S
C1401 C1405 1.495 . S
C1402 C1401 1.392 . S
C1402 C1403 1.385 . S
C1402 C1404 1.478 . S
C1403 H1397 0.930 . S
C1403 C1399 1.400 1_545 S
C1403 C1402 1.385 . S
C1404 C1402 1.478 . S
C1404 C1406 1.381 . S
C1404 C1410 1.383 . S
C1405 C1401 1.495 . S
C1405 H1411 0.959 1_545 S
C1405 H1412 0.961 . S
C1405 H1413 0.960 . S
C1406 C1404 1.381 . S
C1406 C1407 1.394 . S
C1406 H1414 0.930 . S
C1407 C1406 1.394 . S
C1407 C1408 1.383 . S
C1407 H1415 0.929 . S
C1408 C1407 1.383 . S
C1408 C1409 1.377 . S
C1409 H1393 0.930 . S
C1409 C1408 1.377 . S
C1409 C1410 1.379 . S
C1410 H1394 0.931 . S
C1410 C1404 1.383 . S
C1410 C1409 1.379 . S
H1411 C1405 0.959 1_565 S
H1412 C1405 0.961 . S
H1413 C1405 0.960 . S
H1414 C1406 0.930 . S
H1415 C1407 0.929 . S
H1416 C1424 0.929 . S
H1417 C1426 0.930 1_554 S
H1418 C1428 0.930 . S
H1419 C1431 0.929 . S
H1420 C1434 0.928 1_556 S
H1421 C1436 0.960 . S
H1422 C1436 0.960 . S
H1423 C1436 0.960 . S
C1424 H1416 0.929 . S
C1424 C1425 1.377 . S
C1424 C1426 1.384 . S
C1425 C1424 1.377 . S
C1425 C1431 1.390 . S
C1426 H1417 0.930 1_556 S
C1426 C1424 1.384 . S
C1426 C1427 1.372 . S
C1427 C1426 1.372 . S
C1427 C1428 1.400 . S
C1427 C1432 1.490 . S
C1428 H1418 0.930 . S
C1428 C1427 1.400 . S
C1428 C1431 1.386 . S
H1429 C1445 0.930 . S
H1430 C1446 0.931 1_556 S
C1431 H1419 0.929 . S
C1431 C1425 1.390 . S
C1431 C1428 1.386 . S
C1432 C1427 1.490 . S
C1432 C1434 1.396 1_556 S
C1432 C1435 1.403 . S
H1433 C1439 0.930 . S
C1434 H1420 0.928 1_554 S
C1434 C1432 1.396 1_554 S
C1434 C1437 1.402 . S
C1435 C1432 1.403 . S
C1435 C1436 1.524 . S
C1435 C1439 1.400 1_556 S
C1436 H1421 0.960 . S
C1436 H1422 0.960 . S
C1436 H1423 0.960 . S
C1436 C1435 1.524 . S
C1437 C1434 1.402 . S
C1437 C1438 1.392 . S
C1437 C1441 1.495 . S
C1438 C1437 1.392 . S
C1438 C1439 1.385 . S
C1438 C1440 1.478 . S
C1439 H1433 0.930 . S
C1439 C1435 1.400 1_554 S
C1439 C1438 1.385 . S
C1440 C1438 1.478 . S
C1440 C1442 1.381 . S
C1440 C1446 1.383 . S
C1441 C1437 1.495 . S
C1441 H1447 0.959 . S
C1441 H1448 0.961 . S
C1441 H1449 0.960 . S
C1442 C1440 1.381 . S
C1442 C1443 1.394 . S
C1442 H1450 0.930 . S
C1443 C1442 1.394 . S
C1443 C1444 1.383 . S
C1443 H1451 0.929 . S
C1444 C1443 1.383 . S
C1444 C1445 1.377 . S
C1445 H1429 0.930 . S
C1445 C1444 1.377 . S
C1445 C1446 1.379 . S
C1446 H1430 0.931 1_554 S
C1446 C1440 1.383 . S
C1446 C1445 1.379 . S
H1447 C1441 0.959 . S
H1448 C1441 0.961 . S
H1449 C1441 0.960 . S
H1450 C1442 0.930 . S
H1451 C1443 0.929 . S
H1452 C1460 0.929 . S
H1453 C1462 0.930 . S
H1454 C1464 0.930 . S
H1455 C1467 0.929 . S
H1456 C1470 0.930 . S
H1457 C1472 0.960 . S
H1458 C1472 0.960 1_455 S
H1459 C1472 0.960 1_455 S
C1460 H1452 0.929 . S
C1460 C1461 1.377 . S
C1460 C1462 1.384 . S
C1461 C1460 1.377 . S
C1461 C1467 1.390 . S
C1462 H1453 0.930 . S
C1462 C1460 1.384 . S
C1462 C1463 1.372 . S
C1463 C1462 1.372 . S
C1463 C1464 1.400 . S
C1463 C1468 1.490 . S
C1464 H1454 0.930 . S
C1464 C1463 1.400 . S
C1464 C1467 1.386 . S
H1465 C1481 0.930 . S
H1466 C1482 0.931 . S
C1467 H1455 0.929 . S
C1467 C1461 1.390 . S
C1467 C1464 1.386 . S
C1468 C1463 1.490 . S
C1468 C1470 1.395 . S
C1468 C1471 1.444 . S
H1469 C1475 0.930 . S
C1470 H1456 0.930 . S
C1470 C1468 1.395 . S
C1470 C1473 1.403 . S
C1471 C1468 1.444 . S
C1471 C1472 1.512 1_455 S
C1471 C1475 1.370 1_455 S
C1472 H1457 0.960 . S
C1472 H1458 0.960 1_655 S
C1472 H1459 0.960 1_655 S
C1472 C1471 1.512 1_655 S
C1473 C1470 1.403 . S
C1473 C1474 1.392 1_455 S
C1473 C1477 1.495 . S
C1474 C1473 1.392 1_655 S
C1474 C1475 1.385 . S
C1474 C1476 1.478 . S
C1475 H1469 0.930 . S
C1475 C1471 1.370 1_655 S
C1475 C1474 1.385 . S
C1476 C1474 1.478 . S
C1476 C1478 1.381 . S
C1476 C1482 1.383 . S
C1477 C1473 1.495 . S
C1477 H1483 0.959 . S
C1477 H1484 0.961 1_455 S
C1477 H1485 0.960 1_455 S
C1478 C1476 1.381 . S
C1478 C1479 1.394 . S
C1478 H1486 0.930 . S
C1479 C1478 1.394 . S
C1479 C1480 1.383 . S
C1479 H1487 0.929 . S
C1480 C1479 1.383 . S
C1480 C1481 1.377 . S
C1481 H1465 0.930 . S
C1481 C1480 1.377 . S
C1481 C1482 1.379 . S
C1482 H1466 0.931 . S
C1482 C1476 1.383 . S
C1482 C1481 1.379 . S
H1483 C1477 0.959 . S
H1484 C1477 0.961 1_655 S
H1485 C1477 0.960 1_655 S
H1486 C1478 0.930 . S
H1487 C1479 0.929 . S
C417 C73 1.469 . S
C436 C2 1.531 . S
C453 C36 1.539 . S
C472 C107 1.443 . S
C489 C70 1.536 . S
C508 C141 1.489 . S
C525 C104 1.536 . S
C544 C175 1.484 . S
C561 C138 1.540 . S
C580 C5 1.436 . S
C597 C39 1.458 . S
C616 C172 1.544 . S
C633 C206 1.539 . S
C652 C345 1.452 . S
C669 C240 1.536 . S
C688 C379 1.478 . S
C705 C209 1.458 . S
C724 C274 1.544 . S
C741 C243 1.463 . S
C760 C308 1.534 . S
C777 C277 1.469 . S
C796 C342 1.531 . S
C813 C311 1.459 . S
C832 C376 1.541 . S
C849 C305 1.203 . S
C868 C33 1.200 . S
C885 C67 1.205 . S
C904 C339 1.211 . S
C921 C373 1.204 . S
C940 C101 1.211 . S
C957 C407 1.203 . S
C976 C135 1.196 . S
C993 C169 1.203 . S
C1012 C237 1.199 . S
C1029 C271 1.200 . S
C1048 C203 1.192 . S
C1065 C247 1.555 . S
C1084 C9 1.563 . S
C1101 C43 1.551 . S
C1120 C281 1.543 . S
C1137 C77 1.549 . S
C1156 C315 1.535 . S
C1173 C111 1.549 . S
C1192 C349 1.536 . S
C1209 C145 1.555 . S
C1228 C383 1.562 . S
C1245 C213 1.550 . S
C1264 C179 1.539 . S
C1281 C88 1.842 . S
C1300 C394 1.835 . S
C1317 C224 1.843 . S
C1336 C122 1.835 . S
C1353 C156 1.841 . S
C1372 C258 1.844 . S
C1389 C190 1.842 . S
C1408 C292 1.835 . S
C1425 C326 1.842 . S
C1444 C20 1.846 . S
C1461 C54 1.841 . S
C1480 C360 1.843 . S
