# Generated by pormake.
# Topology sml, (6)-cn, num edge types: 1
# Building blocks:
#     Node 0, Type 0, BuildingBlock: LEVNOQ01_clean_sbu_1, # of connection points: 6
#     Node 1, Type 0, BuildingBlock: LEVNOQ01_clean_sbu_1, # of connection points: 6
#     Node 2, Type 0, BuildingBlock: LEVNOQ01_clean_sbu_1, # of connection points: 6
#     Node 3, Type 0, BuildingBlock: LEVNOQ01_clean_sbu_1, # of connection points: 6
#     Node 4, Type 0, BuildingBlock: LEVNOQ01_clean_sbu_1, # of connection points: 6
#     Node 5, Type 0, BuildingBlock: LEVNOQ01_clean_sbu_1, # of connection points: 6
#     Edge 6, Type (0, 0), BuildingBlock: FUNLAD_clean_linker_1, # of connection points: 2
#     Edge 7, Type (0, 0), BuildingBlock: FUNLAD_clean_linker_1, # of connection points: 2
#     Edge 8, Type (0, 0), BuildingBlock: FUNLAD_clean_linker_1, # of connection points: 2
#     Edge 9, Type (0, 0), BuildingBlock: FUNLAD_clean_linker_1, # of connection points: 2
#     Edge 10, Type (0, 0), BuildingBlock: FUNLAD_clean_linker_1, # of connection points: 2
#     Edge 11, Type (0, 0), BuildingBlock: FUNLAD_clean_linker_1, # of connection points: 2
#     Edge 12, Type (0, 0), BuildingBlock: FUNLAD_clean_linker_1, # of connection points: 2
#     Edge 13, Type (0, 0), BuildingBlock: FUNLAD_clean_linker_1, # of connection points: 2
#     Edge 14, Type (0, 0), BuildingBlock: FUNLAD_clean_linker_1, # of connection points: 2
#     Edge 15, Type (0, 0), BuildingBlock: FUNLAD_clean_linker_1, # of connection points: 2
#     Edge 16, Type (0, 0), BuildingBlock: FUNLAD_clean_linker_1, # of connection points: 2
#     Edge 17, Type (0, 0), BuildingBlock: FUNLAD_clean_linker_1, # of connection points: 2
#     Edge 18, Type (0, 0), BuildingBlock: FUNLAD_clean_linker_1, # of connection points: 2
#     Edge 19, Type (0, 0), BuildingBlock: FUNLAD_clean_linker_1, # of connection points: 2
#     Edge 20, Type (0, 0), BuildingBlock: FUNLAD_clean_linker_1, # of connection points: 2
#     Edge 21, Type (0, 0), BuildingBlock: FUNLAD_clean_linker_1, # of connection points: 2
#     Edge 22, Type (0, 0), BuildingBlock: FUNLAD_clean_linker_1, # of connection points: 2
#     Edge 23, Type (0, 0), BuildingBlock: FUNLAD_clean_linker_1, # of connection points: 2
# Relax obj value: 0.144
# Max RMSD: 0.170
# Mean RMSD: 0.170
data_MOF--net-sml--node1-LEVNOQ01_clean_sbu_1--edge1-FUNLAD_clean_linker_1
_symmetry_space_group_name_H-M    P1
_symmetry_Int_Tables_number       1
_symmetry_cell_setting            triclinic
loop_
_symmetry_equiv_pos_as_xyz
'x, y, z'
_cell_length_a     41.862078
_cell_length_b     41.735774
_cell_length_c     16.062638
_cell_angle_alpha  89.659948
_cell_angle_beta   90.177702
_cell_angle_gamma 120.0261
loop_
_atom_site_label
_atom_site_type_symbol
_atom_site_fract_x
_atom_site_fract_y
_atom_site_fract_z
_atom_type_partial_charge
O0 O 0.14975 0.37102 0.80967 0.0
Mg1 Mg 0.15105 0.33781 0.90746 0.0
O2 O 0.19786 0.42148 0.86104 0.0
Mg3 Mg 0.20928 0.41487 -0.0018 0.0
O4 O 0.15299 0.36359 0.01627 0.0
O5 O 0.10581 0.30836 0.98382 0.0
O6 O 0.22201 0.40882 0.13439 0.0
O7 O 0.17923 0.44623 0.04332 0.0
Mg8 Mg 0.25394 0.49049 0.05716 0.0
O9 O 0.26812 0.46469 0.97074 0.0
O10 O 0.24628 0.46689 0.17696 0.0
O11 O 0.21544 0.50441 0.01188 0.0
O12 O 0.30656 0.52186 0.01795 0.0
C13 C 0.22848 0.3509 0.92951 0.0
C14 C 0.17506 0.40447 0.80253 0.0
C15 C 0.12072 0.33612 0.03378 0.0
C16 C 0.23454 0.43294 0.19172 0.0
C17 C 0.18423 0.4787 0.03466 0.0
C18 C 0.29978 0.49513 0.96786 0.0
O19 O 0.19607 0.32813 0.90468 0.0
O20 O 0.23655 0.3816 0.96241 0.0
O21 O 0.78338 0.18165 0.1228 0.0
Mg22 Mg 0.8086 0.16423 0.21496 0.0
O23 O 0.78381 0.22755 0.19424 0.0
Mg24 Mg 0.79012 0.21943 0.33347 0.0
O25 O 0.7814 0.16315 0.31791 0.0
O26 O 0.78162 0.11303 0.28146 0.0
O27 O 0.79664 0.20793 0.47207 0.0
O28 O 0.72763 0.19445 0.35085 0.0
Mg29 Mg 0.78216 0.26834 0.46518 0.0
O30 O 0.79858 0.27751 0.34503 0.0
O31 O 0.82035 0.26114 0.53654 0.0
O32 O 0.72567 0.22508 0.46198 0.0
O33 O 0.79648 0.32052 0.42168 0.0
C34 C 0.87522 0.23618 0.28233 0.0
C35 C 0.77935 0.20993 0.12682 0.0
C36 C 0.77128 0.12932 0.33369 0.0
C37 C 0.81367 0.2281 0.53397 0.0
C38 C 0.70964 0.1997 0.4078 0.0
C39 C 0.80339 0.31044 0.35143 0.0
O40 O 0.86389 0.20576 0.2437 0.0
O41 O 0.85303 0.24507 0.31524 0.0
O42 O 0.61978 0.78865 0.47171 0.0
Mg43 Mg 0.64811 0.81485 0.58119 0.0
O44 O 0.56686 0.78377 0.51262 0.0
Mg45 Mg 0.56977 0.79696 0.65556 0.0
O46 O 0.61722 0.78579 0.68015 0.0
O47 O 0.67209 0.79201 0.65207 0.0
O48 O 0.57116 0.80852 0.80146 0.0
O49 O 0.53091 0.73417 0.68243 0.0
Mg50 Mg 0.49257 0.784 0.73206 0.0
O51 O 0.52135 0.80587 0.62709 0.0
O52 O 0.52371 0.81631 0.83162 0.0
O53 O 0.47868 0.72817 0.73298 0.0
O54 O 0.46779 0.8032 0.65159 0.0
C55 C 0.64338 0.88287 0.61071 0.0
C56 C 0.58688 0.78064 0.4569 0.0
C57 C 0.64281 0.77806 0.69787 0.0
C58 C 0.55307 0.81686 0.85286 0.0
C59 C 0.49819 0.71424 0.71048 0.0
C60 C 0.49563 0.81239 0.60323 0.0
O61 O 0.66496 0.87067 0.59543 0.0
O62 O 0.60936 0.86123 0.6294 0.0
O63 O 0.82606 0.61172 0.80561 0.0
Mg64 Mg 0.83755 0.6515 0.8998 0.0
O65 O 0.7802 0.5636 0.87074 0.0
Mg66 Mg 0.77391 0.5792 0.00386 0.0
O67 O 0.83293 0.62455 0.00803 0.0
O68 O 0.88555 0.67328 0.971 0.0
O69 O 0.76719 0.59436 0.1373 0.0
O70 O 0.80115 0.54622 0.0592 0.0
Mg71 Mg 0.7337 0.51414 0.06724 0.0
O72 O 0.71066 0.53265 0.98447 0.0
O73 O 0.74374 0.53761 0.18675 0.0
O74 O 0.7638 0.49112 0.01535 0.0
O75 O 0.68029 0.47845 0.05496 0.0
C76 C 0.76583 0.65057 0.92726 0.0
C77 C 0.80047 0.57801 0.80697 0.0
C78 C 0.86719 0.64691 0.02346 0.0
C79 C 0.75566 0.57175 0.19811 0.0
C80 C 0.79462 0.51362 0.04562 0.0
C81 C 0.68092 0.50109 -0.00093 0.0
O82 O 0.79964 0.67079 0.90847 0.0
O83 O 0.75278 0.61769 0.95556 0.0
O84 O 0.19749 0.83332 0.15808 0.0
Mg85 Mg 0.17363 0.83522 0.27238 0.0
O86 O 0.20633 0.78711 0.19646 0.0
Mg87 Mg 0.19819 0.77735 0.33957 0.0
O88 O 0.20585 0.83398 0.36571 0.0
O89 O 0.19752 0.88195 0.34665 0.0
O90 O 0.19007 0.76953 0.48709 0.0
O91 O 0.26168 0.80464 0.35133 0.0
Mg92 Mg 0.20862 0.72781 0.42203 0.0
O93 O 0.19103 0.72054 0.30102 0.0
O94 O 0.16669 0.71048 0.51026 0.0
O95 O 0.262 0.77084 0.45619 0.0
O96 O 0.21152 0.68635 0.36625 0.0
C97 C 0.11007 0.75844 0.30591 0.0
C98 C 0.20628 0.80911 0.14098 0.0
C99 C 0.21282 0.86654 0.38762 0.0
C100 C 0.17428 0.74183 0.53664 0.0
C101 C 0.27895 0.79874 0.40901 0.0
C102 C 0.19677 0.69278 0.30231 0.0
O103 O 0.11875 0.79168 0.29004 0.0
O104 O 0.13454 0.74964 0.32271 0.0
O105 O 0.36732 0.19275 0.47923 0.0
Mg106 Mg 0.34939 0.17972 0.60054 0.0
O107 O 0.4253 0.21882 0.52046 0.0
Mg108 Mg 0.41815 0.20204 0.66131 0.0
O109 O 0.37476 0.22134 0.68607 0.0
O110 O 0.31987 0.20352 0.62295 0.0
O111 O 0.41289 0.18577 0.80265 0.0
O112 O 0.4582 0.26544 0.69978 0.0
Mg113 Mg 0.48467 0.22446 0.70101 0.0
O114 O 0.45919 0.17974 0.62869 0.0
O115 O 0.4724 0.21981 0.82829 0.0
O116 O 0.50773 0.27464 0.63695 0.0
O117 O 0.51556 0.201 0.68591 0.0
C118 C 0.34564 0.11486 0.62335 0.0
C119 C 0.40128 0.21048 0.46318 0.0
C120 C 0.34556 0.2244 0.67424 0.0
C121 C 0.43982 0.1994 0.85388 0.0
C122 C 0.49088 0.28785 0.67498 0.0
C123 C 0.48924 0.17815 0.63836 0.0
O124 O 0.32097 0.12362 0.62879 0.0
O125 O 0.37946 0.13962 0.629 0.0
H126 H 0.32324 0.26105 0.68448 0.0
C127 C 0.34137 0.25293 0.71527 0.0
H128 H 0.36726 0.25337 0.8292 0.0
H129 H 0.31804 0.38258 0.82828 0.0
H130 H 0.3831 0.42339 0.79993 0.0
H131 H 0.42564 0.3987 0.78965 0.0
H132 H 0.40297 0.33267 0.80782 0.0
C133 C 0.35171 0.26326 0.79384 0.0
C134 C 0.33191 0.27931 0.83661 0.0
C135 C 0.34581 0.31782 0.83089 0.0
C136 C 0.32141 0.33197 0.8386 0.0
C137 C 0.3355 0.37038 0.82614 0.0
C138 C 0.37278 0.39409 0.80903 0.0
C139 C 0.39672 0.38019 0.80302 0.0
C140 C 0.38347 0.34242 0.81332 0.0
H141 H 0.28034 0.35302 0.96467 0.0
C142 C 0.25768 0.34184 0.9203 0.0
H143 H 0.23442 0.30979 0.81272 0.0
H144 H 0.29812 0.20453 0.86046 0.0
H145 H 0.23256 0.16267 0.88318 0.0
H146 H 0.18971 0.18683 0.8961 0.0
H147 H 0.212 0.25263 0.8862 0.0
C148 C 0.25693 0.32069 0.85752 0.0
C149 C 0.28339 0.30724 0.85403 0.0
C150 C 0.26991 0.26887 0.86428 0.0
C151 C 0.29441 0.25499 0.85699 0.0
C152 C 0.28034 0.21637 0.86487 0.0
C153 C 0.2429 0.19213 0.87829 0.0
C154 C 0.21879 0.20572 0.88554 0.0
C155 C 0.232 0.24362 0.87946 0.0
H156 H 0.08915 0.31201 0.14632 0.0
C157 C 0.09946 0.33604 0.10551 0.0
H158 H 0.08927 0.3767 0.05531 0.0
H159 H 0.91906 0.26008 0.09268 0.0
H160 H 0.92553 0.27419 0.94508 0.0
H161 H 0.98626 0.31799 0.88482 0.0
H162 H 0.04074 0.34801 0.97178 0.0
C163 C 0.08135 0.35495 0.10171 0.0
C164 C 0.04417 0.33812 0.14055 0.0
C165 C 0.01248 0.32179 0.08856 0.0
C166 C 0.97756 0.2963 0.12298 0.0
C167 C 0.94637 0.27947 0.06969 0.0
C168 C 0.94965 0.28735 0.98479 0.0
C169 C 0.98383 0.312 0.95092 0.0
C170 C 0.01496 0.32903 0.00175 0.0
H171 H 0.92345 0.29199 0.29999 0.0
C172 C 0.91481 0.26403 0.27953 0.0
H173 H 0.9302 0.22943 0.21731 0.0
H174 H 0.09782 0.37108 0.25826 0.0
H175 H 0.09151 0.35673 0.40652 0.0
H176 H 0.03149 0.31005 0.46549 0.0
H177 H 0.97731 0.27799 0.37701 0.0
C178 C 0.93896 0.25699 0.24078 0.0
C179 C 0.97448 0.28741 0.20898 0.0
C180 C 0.00552 0.30584 0.26184 0.0
C181 C 0.04032 0.33181 0.22762 0.0
C182 C 0.07102 0.35031 0.28133 0.0
C183 C 0.06769 0.34248 0.36631 0.0
C184 C 0.03386 0.31626 0.39951 0.0
C185 C 0.003 0.29809 0.34818 0.0
H186 H 0.72653 0.11487 0.42498 0.0
C187 C 0.74804 0.10916 0.40578 0.0
H188 H 0.77099 0.07457 0.41655 0.0
H189 H 0.66388 0.97639 0.71097 0.0
H190 H 0.70933 0.02414 0.80107 0.0
H191 H 0.75801 0.08297 0.74216 0.0
H192 H 0.76175 0.09517 0.59325 0.0
C193 C 0.74915 0.07972 0.43638 0.0
C194 C 0.71634 0.04776 0.47448 0.0
C195 C 0.7144 0.04148 0.56135 0.0
C196 C 0.68683 0.00701 0.59491 0.0
C197 C 0.68507 0.00163 0.68219 0.0
C198 C 0.71076 0.02884 0.73449 0.0
C199 C 0.73825 0.06206 0.70133 0.0
C200 C 0.74011 0.06863 0.61587 0.0
H201 H 0.68929 0.93954 0.60667 0.0
C202 C 0.65937 0.92307 0.60194 0.0
H203 H 0.61146 0.92293 0.56059 0.0
H204 H 0.71063 0.05194 0.30496 0.0
H205 H 0.66968 0.00264 0.21412 0.0
H206 H 0.62577 0.94172 0.27064 0.0
H207 H 0.61991 0.92951 0.41916 0.0
C208 C 0.64086 0.93934 0.57298 0.0
C209 C 0.66247 0.97818 0.54108 0.0
C210 C 0.66357 0.98507 0.45423 0.0
C211 C 0.69019 0.02009 0.42118 0.0
C212 C 0.69139 0.02593 0.3339 0.0
C213 C 0.66798 -0.00215 0.2807 0.0
C214 C 0.64289 0.96346 0.31273 0.0
C215 C 0.64019 0.95694 0.39823 0.0
H216 H 0.6102 0.72951 0.77977 0.0
C217 C 0.63788 0.75088 0.76239 0.0
H218 H 0.69502 0.77062 0.76937 0.0
H219 H 0.68585 0.66075 0.05051 0.0
H220 H 0.67547 0.6998 0.14601 0.0
H221 H 0.65925 0.74549 0.09278 0.0
H222 H 0.6534 0.75249 0.94371 0.0
C223 C 0.6675 0.74906 0.78747 0.0
C224 C 0.66496 0.71481 0.82024 0.0
C225 C 0.66654 0.71005 0.90697 0.0
C226 C 0.67588 0.68383 0.93753 0.0
C227 C 0.67896 0.68052 0.02443 0.0
C228 C 0.67298 0.70264 0.07964 0.0
C229 C 0.66385 0.72837 0.04965 0.0
C230 C 0.66066 0.73219 0.96424 0.0
H231 H 0.7546 0.69532 0.89876 0.0
C232 C 0.74156 0.6659 0.91312 0.0
H233 H 0.69068 0.61526 0.91932 0.0
H234 H 0.65959 0.71419 0.64989 0.0
H235 H 0.67105 0.676 0.555 0.0
H236 H 0.68731 0.63041 0.60844 0.0
H237 H 0.69199 0.62271 0.75748 0.0
C238 C 0.70472 0.64503 0.90973 0.0
C239 C 0.68363 0.66274 0.88098 0.0
C240 C 0.67866 0.66506 0.79444 0.0
C241 C 0.66941 0.6913 0.76385 0.0
C242 C 0.66668 0.69471 0.67662 0.0
C243 C 0.6731 0.6729 0.62144 0.0
C244 C 0.68223 0.64722 0.65153 0.0
C245 C 0.68492 0.64315 0.73702 0.0
H246 H 0.0672 0.70079 0.28154 0.0
C247 C 0.072 0.72873 0.28923 0.0
H248 H 0.05043 0.76447 0.27507 0.0
H249 H 0.95255 0.68677 0.96484 0.0
H250 H -0.00264 0.7465 0.90985 0.0
H251 H 0.05027 0.79036 -0.00507 0.0
H252 H 0.0586 0.77443 0.13518 0.0
C253 C 0.04532 0.73636 0.26904 0.0
C254 C 0.01253 0.70992 0.21992 0.0
C255 C 0.00834 0.7198 0.13746 0.0
C256 C 0.97768 0.69477 0.08868 0.0
C257 C 0.97458 0.705 0.0059 0.0
C258 C 0.00039 0.73919 0.97301 0.0
C259 C 0.03017 0.76383 0.02086 0.0
C260 C 0.03445 0.75431 0.10173 0.0
H261 H 0.8845 0.65269 0.15335 0.0
C262 C 0.88658 0.6418 0.0936 0.0
H263 H 0.91809 0.62839 0.01527 0.0
H264 H 0.01118 0.6828 0.37668 0.0
H265 H 0.96686 0.6219 0.4293 0.0
H266 H 0.91487 0.5779 0.34213 0.0
H267 H 0.90656 0.59476 0.20173 0.0
C268 C 0.91584 0.63794 0.07669 0.0
C269 C 0.95061 0.6605 0.12335 0.0
C270 C 0.95536 0.65004 0.20422 0.0
C271 C 0.98615 0.67496 0.25318 0.0
C272 C 0.98926 0.66442 0.33536 0.0
C273 C 0.96379 0.62965 0.36662 0.0
C274 C 0.93442 0.6049 0.31763 0.0
C275 C 0.92992 0.61493 0.23747 0.0
H276 H 0.35754 0.06983 0.60538 0.0
C277 C 0.33634 0.07748 0.59893 0.0
H278 H 0.28405 0.06273 0.54863 0.0
H279 H 0.27688 0.94483 0.29601 0.0
H280 H 0.27852 0.99149 0.20336 0.0
H281 H 0.28993 0.0515 0.25747 0.0
H282 H 0.29882 0.06473 0.40534 0.0
C283 C 0.30432 0.05431 0.56132 0.0
C284 C 0.29772 0.01836 0.52851 0.0
C285 C 0.29308 0.0114 0.44173 0.0
C286 C 0.28753 0.97721 0.41031 0.0
C287 C 0.28168 0.97041 0.32364 0.0
C288 C 0.2826 -0.00296 0.26946 0.0
C289 C 0.28899 0.0308 0.29995 0.0
C290 C 0.29403 0.03801 0.38502 0.0
H291 H 0.22513 0.89292 0.50767 0.0
C292 C 0.23799 0.88713 0.45561 0.0
H293 H 0.28523 0.90763 0.38114 0.0
H294 H 0.30137 0.02053 0.69956 0.0
H295 H 0.31369 0.98076 0.78779 0.0
H296 H 0.31797 0.92898 0.7285 0.0
H297 H 0.30316 0.9123 0.58115 0.0
C298 C 0.27303 0.91201 0.43647 0.0
C299 C 0.28776 0.95064 0.46566 0.0
C300 C 0.29621 0.95941 0.55071 0.0
C301 C 0.29883 0.99217 0.58311 0.0
C302 C 0.30266 -0.00204 0.67022 0.0
C303 C 0.30917 0.97501 0.72184 0.0
C304 C 0.31075 0.94527 0.68845 0.0
C305 C 0.30279 0.93641 0.60437 0.0
H306 H 0.16111 0.41599 0.67839 0.0
C307 C 0.18367 0.41998 0.71888 0.0
H308 H 0.23813 0.42907 0.72451 0.0
H309 H 0.18951 0.35827 0.35757 0.0
H310 H 0.17995 0.30428 0.43542 0.0
H311 H 0.19002 0.30744 0.58735 0.0
H312 H 0.20897 0.36463 0.66232 0.0
C313 C 0.21657 0.42897 0.68632 0.0
C314 C 0.22064 0.43011 0.59522 0.0
C315 C 0.21155 0.39707 0.55226 0.0
C316 C 0.20737 0.39571 0.46453 0.0
C317 C 0.19503 0.36148 0.42367 0.0
C318 C 0.18904 0.33011 0.4678 0.0
C319 C 0.19457 0.33185 0.55335 0.0
C320 C 0.20539 0.36479 0.59557 0.0
H321 H 0.24993 0.41186 0.30163 0.0
C322 C 0.23178 0.42146 0.27821 0.0
H323 H 0.19297 0.438 0.30338 0.0
H324 H 0.24326 0.49836 0.66051 0.0
H325 H 0.25668 0.55392 0.58307 0.0
H326 H 0.25142 0.5527 0.4299 0.0
H327 H 0.233 0.49626 0.35342 0.0
C328 C 0.21022 0.42766 0.32903 0.0
C329 C 0.21443 0.42811 0.42032 0.0
C330 C 0.22576 0.46177 0.46334 0.0
C331 C 0.22884 0.46266 0.55121 0.0
C332 C 0.24009 0.49632 0.5935 0.0
C333 C 0.24804 0.52838 0.54985 0.0
C334 C 0.24511 0.52768 0.46364 0.0
C335 C 0.23428 0.49494 0.42052 0.0
H336 H 0.80176 0.25468 0.03681 0.0
C337 C 0.77824 0.2273 0.04839 0.0
H338 H 0.73467 0.17927 -0.00195 0.0
H339 H 0.84084 0.29442 0.68791 0.0
H340 H 0.82285 0.33783 0.73397 0.0
H341 H 0.78236 0.32407 0.85459 0.0
H342 H 0.76032 0.26667 0.93368 0.0
C343 C 0.75838 0.20626 0.98458 0.0
C344 C 0.77677 0.2121 0.90259 0.0
C345 C 0.78878 0.24547 0.85731 0.0
C346 C 0.81122 0.25288 0.78562 0.0
C347 C 0.82335 0.28673 0.74214 0.0
C348 C 0.8133 0.31215 0.76801 0.0
C349 C 0.79063 0.30445 0.83668 0.0
C350 C 0.77836 0.27156 0.88121 0.0
H351 H 0.79043 0.18369 0.62588 0.0
C352 C 0.81461 0.21039 0.61218 0.0
H353 H 0.86127 0.25708 0.65882 0.0
H354 H 0.75875 0.14474 0.97497 0.0
H355 H 0.7802 0.10353 0.93265 0.0
H356 H 0.82128 0.11824 0.81132 0.0
H357 H 0.83935 0.17373 0.72884 0.0
C358 C 0.83681 0.23091 0.67399 0.0
C359 C 0.82048 0.22634 0.75789 0.0
C360 C 0.80949 0.19361 0.80432 0.0
C361 C 0.78701 0.18604 0.87595 0.0
C362 C 0.77629 0.15274 0.92077 0.0
C363 C 0.78849 0.12864 0.89722 0.0
C364 C 0.81154 0.13688 0.82885 0.0
C365 C 0.82148 0.16861 0.7818 0.0
H366 H 0.59229 0.76682 0.32917 0.0
C367 C 0.57434 0.7714 0.37028 0.0
H368 H 0.53052 0.78246 0.37588 0.0
H369 H 0.6046 0.87331 0.0474 0.0
H370 H 0.59664 0.91705 0.13127 0.0
H371 H 0.56331 0.89759 0.26572 0.0
H372 H 0.54237 0.8362 0.32094 0.0
C373 C 0.54735 0.77571 0.33653 0.0
C374 C 0.54764 0.78066 0.24435 0.0
C375 C 0.55847 0.8162 0.21211 0.0
C376 C 0.57334 0.82597 0.13043 0.0
C377 C 0.58949 0.86344 0.10521 0.0
C378 C 0.5856 0.8889 0.15333 0.0
C379 C 0.56731 0.87813 0.22932 0.0
C380 C 0.55524 0.84271 0.26025 0.0
H381 H 0.54404 0.82918 0.97827 0.0
C382 C 0.56059 0.82065 0.94281 0.0
H383 H 0.59322 0.79547 0.94932 0.0
H384 H 0.51978 0.70805 0.28177 0.0
H385 H 0.51606 0.6603 0.1894 0.0
H386 H 0.53788 0.67525 0.04424 0.0
H387 H 0.56316 0.73749 0.99023 0.0
C388 C 0.5786 0.80636 0.98418 0.0
C389 C 0.57174 0.79845 0.07585 0.0
C390 C 0.55754 0.76166 0.10631 0.0
C391 C 0.54544 0.75291 0.19049 0.0
C392 C 0.53038 0.71603 0.21908 0.0
C393 C 0.52778 0.68842 0.16659 0.0
C394 C 0.53996 0.69685 0.08478 0.0
C395 C 0.55451 0.73288 0.05454 0.0
H396 H 0.76047 0.53443 0.72507 0.0
C397 C 0.78849 0.55779 0.72805 0.0
H398 H 0.83443 0.59734 0.66035 0.0
H399 H 0.72717 0.49668 0.34927 0.0
H400 H 0.73511 0.44649 0.39958 0.0
H401 H 0.7662 0.45127 0.5334 0.0
H402 H 0.7899 0.50682 0.61724 0.0
C403 C 0.80676 0.57344 0.65751 0.0
C404 C 0.78581 0.56877 0.58 0.0
C405 C 0.77162 0.5359 0.53298 0.0
C406 C 0.75345 0.53312 0.45636 0.0
C407 C 0.7407 0.50041 0.4087 0.0
C408 C 0.74516 0.47126 0.43675 0.0
C409 C 0.76268 0.47396 0.51205 0.0
C410 C 0.77602 0.50593 0.55966 0.0
H411 H 0.78555 0.60944 0.30077 0.0
C412 C 0.75979 0.58494 0.28364 0.0
H413 H 0.71057 0.53835 0.32309 0.0
H414 H 0.80542 0.6338 0.66199 0.0
H415 H 0.7943 0.68262 0.61581 0.0
H416 H 0.76191 0.67729 0.48354 0.0
H417 H 0.74039 0.62275 0.39695 0.0
C418 C 0.7363 0.56246 0.34202 0.0
C419 C 0.74955 0.56329 0.42778 0.0
C420 C 0.76143 0.59504 0.47776 0.0
C421 C 0.77984 0.59793 0.55389 0.0
C422 C 0.79156 0.63008 0.60296 0.0
C423 C 0.78523 0.65836 0.57736 0.0
C424 C 0.76702 0.65536 0.50291 0.0
C425 C 0.75507 0.62407 0.45355 0.0
H426 H 0.20892 0.74957 0.64393 0.0
C427 C 0.18337 0.74837 0.6249 0.0
H428 H 0.136 0.74949 0.66585 0.0
H429 H 0.16705 0.70245 0.02652 0.0
H430 H 0.11151 0.64636 0.98594 0.0
H431 H 0.08349 0.64133 0.84773 0.0
H432 H 0.11167 0.69202 0.74817 0.0
C433 C 0.16245 0.7522 0.68214 0.0
C434 C 0.17529 0.75795 0.77017 0.0
C435 C 0.15769 0.72875 0.82873 0.0
C436 C 0.17316 0.73218 0.90949 0.0
C437 C 0.15593 0.70188 0.96541 0.0
C438 C 0.12413 0.66939 0.94266 0.0
C439 C 0.10845 0.66648 0.86469 0.0
C440 C 0.12492 0.69572 0.8081 0.0
H441 H 0.20801 0.82217 0.00915 0.0
C442 C 0.21121 0.80387 0.0526 0.0
H443 H 0.21479 0.75544 0.06539 0.0
H444 H 0.21598 0.81955 0.67359 0.0
H445 H 0.27595 0.87023 0.70562 0.0
H446 H 0.30475 0.87543 0.84377 0.0
H447 H 0.27293 0.82717 0.94857 0.0
C448 C 0.21311 0.77483 0.02279 0.0
C449 C 0.20507 0.76565 0.93275 0.0
C450 C 0.22439 0.79334 0.8718 0.0
C451 C 0.20879 0.79016 0.79165 0.0
C452 C 0.22739 0.8195 0.73408 0.0
C453 C 0.26175 0.84947 0.75266 0.0
C454 C 0.27784 0.85203 0.82993 0.0
C455 C 0.25932 0.82441 0.88944 0.0
H456 H 0.39083 0.22159 0.33754 0.0
C457 C 0.41116 0.21944 0.37597 0.0
H458 H 0.45636 0.21035 0.37573 0.0
H459 H 0.39379 0.12383 0.03577 0.0
H460 H 0.39694 0.0781 0.1245 0.0
H461 H 0.41777 0.09261 0.27031 0.0
H462 H 0.43581 0.15281 0.3281 0.0
C463 C 0.43785 0.21596 0.33897 0.0
C464 C 0.43534 0.21079 0.24714 0.0
C465 C 0.42591 0.17569 0.21406 0.0
C466 C 0.41407 0.16732 0.12993 0.0
C467 C 0.4037 0.13176 0.09882 0.0
C468 C 0.40512 0.10521 0.14922 0.0
C469 C 0.41677 0.11336 0.23136 0.0
C470 C 0.427 0.14808 0.26382 0.0
H471 H 0.45941 0.19511 0.97669 0.0
C472 C 0.43526 0.1919 0.9435 0.0
H473 H 0.3836 0.18863 0.95701 0.0
H474 H 0.45769 0.28256 0.28668 0.0
H475 H 0.44976 0.3265 0.20178 0.0
H476 H 0.4233 0.30978 0.0605 0.0
H477 H 0.40655 0.24995 0.00176 0.0
C478 C 0.40672 0.18852 0.98766 0.0
C479 C 0.41183 0.19404 0.07913 0.0
C480 C 0.42083 0.2289 0.11259 0.0
C481 C 0.43413 0.23782 0.19541 0.0
C482 C 0.44554 0.2738 0.22553 0.0
C483 C 0.4414 0.2993 0.17731 0.0
C484 C 0.42656 0.2899 0.09776 0.0
C485 C 0.41714 0.25548 0.06472 0.0
H486 H 0.17231 0.49537 0.15075 0.0
C487 C 0.16292 0.48981 0.08649 0.0
H488 H 0.13827 0.50208 0.98815 0.0
H489 H 0.16112 0.60496 0.33565 0.0
H490 H 0.1236 0.54781 0.41081 0.0
H491 H 0.09763 0.48761 0.33978 0.0
H492 H 0.10924 0.4845 0.19253 0.0
C493 C 0.1469 0.50758 0.05274 0.0
C494 C 0.154 0.54303 0.09079 0.0
C495 C 0.14451 0.54425 0.1752 0.0
C496 C 0.1588 0.57883 0.21582 0.0
C497 C 0.15084 0.57942 0.30141 0.0
C498 C 0.12923 0.54678 0.34543 0.0
C499 C 0.11464 0.51293 0.30539 0.0
C500 C 0.12176 0.51152 0.2211 0.0
H501 H 0.16043 0.66239 0.19688 0.0
C502 C 0.18464 0.66718 0.23206 0.0
H503 H 0.22494 0.65188 0.25313 0.0
H504 H 0.17899 0.55178 0.92801 0.0
H505 H 0.21548 0.60926 0.85474 0.0
H506 H 0.23515 0.66905 0.92319 0.0
H507 H 0.21929 0.67123 0.06776 0.0
C508 C 0.20063 0.6469 0.21803 0.0
C509 C 0.18126 0.612 0.17132 0.0
C510 C 0.18843 0.61116 0.08583 0.0
C511 C 0.17554 0.57662 0.04563 0.0
C512 C 0.18635 0.57678 0.96185 0.0
C513 C 0.20764 0.60982 0.91866 0.0
C514 C 0.21884 0.64347 0.95728 0.0
C515 C 0.20959 0.64432 0.0401 0.0
H516 H 0.65523 0.17242 0.34605 0.0
C517 C 0.6691 0.17916 0.40605 0.0
H518 H 0.66457 0.18223 0.53554 0.0
H519 H 0.55194 0.23708 0.52745 0.0
H520 H 0.60872 0.29362 0.55816 0.0
H521 H 0.66878 0.29626 0.54839 0.0
H522 H 0.67227 0.2424 0.5082 0.0
C523 C 0.65014 0.17505 0.47615 0.0
C524 C 0.61392 0.1732 0.47375 0.0
C525 C 0.61252 0.20547 0.49433 0.0
C526 C 0.57799 0.20398 0.49933 0.0
C527 C 0.57735 0.23643 0.52247 0.0
C528 C 0.60981 0.26922 0.54018 0.0
C529 C 0.64359 0.27072 0.53474 0.0
C530 C 0.64514 0.23943 0.51174 0.0
H531 H 0.50752 0.13884 0.61854 0.0
C532 C 0.49701 0.15458 0.58587 0.0
H533 H 0.50161 0.18533 0.47827 0.0
H534 H 0.60736 0.10672 0.43183 0.0
H535 H 0.5501 0.04933 0.40534 0.0
H536 H 0.49007 0.04696 0.41331 0.0
H537 H 0.48689 0.10199 0.44768 0.0
C538 C 0.50932 0.16682 0.50876 0.0
C539 C 0.54495 0.17001 0.48474 0.0
C540 C 0.54647 0.13817 0.46148 0.0
C541 C 0.58108 0.1397 0.45605 0.0
C542 C 0.58176 0.10712 0.43578 0.0
C543 C 0.54914 0.07405 0.42064 0.0
C544 C 0.51531 0.07269 0.42522 0.0
C545 C 0.51383 0.10434 0.44525 0.0
H546 H 0.31915 0.50403 0.83969 0.0
C547 C 0.32708 0.50171 0.90297 0.0
H548 H 0.37002 0.5158 0.98756 0.0
H549 H 0.44916 0.60611 0.62964 0.0
H550 H 0.43388 0.54636 0.57197 0.0
H551 H 0.39821 0.489 0.65406 0.0
H552 H 0.37776 0.49106 0.79476 0.0
C553 C 0.36292 0.51875 0.92393 0.0
C554 C 0.38941 0.55285 0.87812 0.0
C555 C 0.4014 0.55108 0.79672 0.0
C556 C 0.42205 0.5841 0.74943 0.0
C557 C 0.43347 0.58176 0.66803 0.0
C558 C 0.42488 0.54769 0.63432 0.0
C559 C 0.40476 0.51538 0.68057 0.0
C560 C 0.39308 0.51689 0.76095 0.0
H561 H 0.50167 0.66435 0.74187 0.0
C562 C 0.48306 0.67442 0.72505 0.0
H563 H 0.42815 0.66293 0.71503 0.0
H564 H 0.37549 0.56727 0.03761 0.0
H565 H 0.38873 0.62635 0.09189 0.0
H566 H 0.42146 0.68303 0.0066 0.0
H567 H 0.44136 0.6806 0.86674 0.0
C568 C 0.44638 0.65233 0.73145 0.0
C569 C 0.42997 0.61848 0.78331 0.0
C570 C 0.41903 0.62049 0.86559 0.0
C571 C 0.39952 0.58776 0.91389 0.0
C572 C 0.38936 0.5908 -0.00353 0.0
C573 C 0.39709 0.62478 0.02903 0.0
C574 C 0.41554 0.65665 0.98113 0.0
C575 C 0.42671 0.65478 0.90067 0.0
H576 H 0.83531 0.34084 0.23951 0.0
C577 C 0.8117 0.3346 0.27846 0.0
H578 H 0.7682 0.34443 0.30561 0.0
H579 H 0.86342 0.51325 0.21688 0.0
H580 H 0.86714 0.51502 0.36811 0.0
H581 H 0.84408 0.45757 0.45006 0.0
H582 H 0.8177 0.39819 0.38199 0.0
C583 C 0.79187 0.35137 0.26607 0.0
C584 C 0.80572 0.38519 0.21452 0.0
C585 C 0.82272 0.4199 0.25492 0.0
C586 C 0.8347 0.45283 0.20788 0.0
C587 C 0.85224 0.4872 0.25004 0.0
C588 C 0.85498 0.48867 0.3366 0.0
C589 C 0.84203 0.45634 0.38282 0.0
C590 C 0.8268 0.42237 0.34276 0.0
H591 H 0.79716 0.49013 0.16302 0.0
C592 C 0.81037 0.49797 0.10228 0.0
H593 H 0.84197 0.48989 0.01304 0.0
H594 H 0.76855 0.3224 0.1222 0.0
H595 H 0.75022 0.31899 0.97795 0.0
H596 H 0.7704 0.37583 0.89437 0.0
H597 H 0.80692 0.43601 0.95587 0.0
C598 C 0.83048 0.48338 0.07546 0.0
C599 C 0.82746 0.45076 0.12093 0.0
C600 C 0.80945 0.41574 0.08095 0.0
C601 C 0.79846 0.3829 0.12813 0.0
C602 C 0.77789 0.34816 0.08877 0.0
C603 C 0.7674 0.34583 0.00578 0.0
C604 C 0.77849 0.37778 0.95906 0.0
C605 C 0.79955 0.41235 -0.00446 0.0
H606 H 0.33412 0.82551 0.35283 0.0
C607 C 0.31947 0.81934 0.41176 0.0
H608 H 0.32189 0.81568 0.54165 0.0
H609 H 0.4225 0.7449 0.53563 0.0
H610 H 0.36562 0.69632 0.59295 0.0
H611 H 0.31044 0.70294 0.60071 0.0
H612 H 0.312 0.7582 0.55093 0.0
C613 C 0.33708 0.82173 0.48343 0.0
C614 C 0.37157 0.81977 0.48303 0.0
C615 C 0.37012 0.78678 0.51134 0.0
C616 C 0.40185 0.7828 0.50522 0.0
C617 C 0.39944 0.74967 0.53608 0.0
C618 C 0.36681 0.72134 0.56996 0.0
C619 C 0.33578 0.72505 0.57446 0.0
C620 C 0.3372 0.75719 0.54556 0.0
H621 H 0.50271 0.85776 0.53288 0.0
C622 C 0.4965 0.82952 0.52314 0.0
H623 H 0.46589 0.782 0.45401 0.0
H624 H 0.38473 0.8881 0.43469 0.0
H625 H 0.44183 0.93772 0.37669 0.0
H626 H 0.49565 0.92942 0.35614 0.0
H627 H 0.49285 0.87174 0.39394 0.0
C628 C 0.46924 0.80878 0.46971 0.0
C629 C 0.43512 0.8119 0.47007 0.0
C630 C 0.43639 0.84491 0.4423 0.0
C631 C 0.40486 0.84914 0.45067 0.0
C632 C 0.40757 0.88313 0.42713 0.0
C633 C 0.44018 0.91184 0.39415 0.0
C634 C 0.47051 0.90722 0.38282 0.0
C635 C 0.46867 0.87408 0.40566 0.0
H636 H 0.63328 0.49979 0.93486 0.0
C637 C 0.65008 0.48679 0.94079 0.0
H638 H 0.65902 0.44302 0.908 0.0
H639 H 0.48658 0.33377 0.8863 0.0
H640 H 0.49484 0.3279 0.03444 0.0
H641 H 0.55281 0.37098 0.10502 0.0
H642 H 0.60363 0.41974 0.02785 0.0
C643 C 0.64145 0.45523 0.90148 0.0
C644 C 0.60572 0.43257 0.85967 0.0
C645 C 0.57552 0.40574 0.90678 0.0
C646 C 0.54209 0.38077 0.86614 0.0
C647 C 0.51278 0.35324 0.91412 0.0
C648 C 0.51695 0.34975 -0.00078 0.0
C649 C 0.54972 0.37396 0.03893 0.0
C650 C 0.57866 0.40187 -0.00624 0.0
H651 H 0.53928 0.32242 0.74906 0.0
C652 C 0.51445 0.32097 0.72349 0.0
H653 H 0.48621 0.35084 0.70652 0.0
H654 H 0.66046 0.4776 0.75163 0.0
H655 H 0.65643 0.47642 0.60063 0.0
H656 H 0.59814 0.43351 0.52965 0.0
H657 H 0.54361 0.3913 0.60925 0.0
C658 C 0.50928 0.34973 0.73457 0.0
C659 C 0.53926 0.3822 0.77832 0.0
C660 C 0.56982 0.40885 0.73132 0.0
C661 C 0.60327 0.43381 0.77208 0.0
C662 C 0.63427 0.4583 0.72352 0.0
C663 C 0.63233 0.45789 0.63691 0.0
C664 C 0.59953 0.43369 0.59696 0.0
C665 C 0.56849 0.40958 0.64329 0.0
loop_
_geom_bond_atom_site_label_1
_geom_bond_atom_site_label_2
_geom_bond_distance
_geom_bond_site_symmetry_2
_ccdc_geom_bond_type
O0 Mg1 1.990 . S
O0 C14 1.253 . S
Mg1 O0 1.990 . S
Mg1 O4 2.180 1_556 S
Mg1 O5 2.117 . S
Mg1 O19 2.030 . S
O2 Mg3 2.072 1_556 S
O2 C14 1.260 . S
Mg3 O2 2.072 1_554 S
Mg3 O4 2.099 . S
Mg3 O6 2.079 . S
Mg3 O7 2.072 . S
Mg3 O9 2.099 . S
Mg3 O20 2.079 1_554 S
O4 Mg1 2.180 1_554 S
O4 Mg3 2.099 . S
O4 C15 1.279 . S
O5 Mg1 2.117 . S
O5 C15 1.250 1_556 S
O6 Mg3 2.079 . S
O6 C16 1.264 . S
O7 Mg3 2.072 . S
O7 C17 1.260 . S
Mg8 O9 2.180 . S
Mg8 O10 2.030 . S
Mg8 O11 1.990 . S
Mg8 O12 2.117 . S
O9 Mg3 2.099 . S
O9 Mg8 2.180 . S
O9 C18 1.279 1_554 S
O10 Mg8 2.030 . S
O10 C16 1.248 . S
O11 Mg8 1.990 . S
O11 C17 1.253 . S
O12 Mg8 2.117 . S
O12 C18 1.250 1_554 S
C13 O19 1.248 . S
C13 O20 1.264 . S
C14 O0 1.253 . S
C14 O2 1.260 . S
C15 O4 1.279 . S
C15 O5 1.250 1_554 S
C16 O6 1.264 . S
C16 O10 1.248 . S
C17 O7 1.260 . S
C17 O11 1.253 . S
C18 O9 1.279 1_556 S
C18 O12 1.250 1_556 S
O19 Mg1 2.030 . S
O19 C13 1.248 . S
O20 Mg3 2.079 1_556 S
O20 C13 1.264 . S
O21 Mg22 1.990 . S
O21 C35 1.253 . S
Mg22 O21 1.990 . S
Mg22 O25 2.180 . S
Mg22 O26 2.117 . S
Mg22 O40 2.030 . S
O23 Mg24 2.072 . S
O23 C35 1.260 . S
Mg24 O23 2.072 . S
Mg24 O25 2.099 . S
Mg24 O27 2.079 . S
Mg24 O28 2.072 . S
Mg24 O30 2.099 . S
Mg24 O41 2.079 . S
O25 Mg22 2.180 . S
O25 Mg24 2.099 . S
O25 C36 1.279 . S
O26 Mg22 2.117 . S
O26 C36 1.250 . S
O27 Mg24 2.079 . S
O27 C37 1.264 . S
O28 Mg24 2.072 . S
O28 C38 1.260 . S
Mg29 O30 2.180 . S
Mg29 O31 2.030 . S
Mg29 O32 1.990 . S
Mg29 O33 2.117 . S
O30 Mg24 2.099 . S
O30 Mg29 2.180 . S
O30 C39 1.279 . S
O31 Mg29 2.030 . S
O31 C37 1.248 . S
O32 Mg29 1.990 . S
O32 C38 1.253 . S
O33 Mg29 2.117 . S
O33 C39 1.250 . S
C34 O40 1.248 . S
C34 O41 1.264 . S
C35 O21 1.253 . S
C35 O23 1.260 . S
C36 O25 1.279 . S
C36 O26 1.250 . S
C37 O27 1.264 . S
C37 O31 1.248 . S
C38 O28 1.260 . S
C38 O32 1.253 . S
C39 O30 1.279 . S
C39 O33 1.250 . S
O40 Mg22 2.030 . S
O40 C34 1.248 . S
O41 Mg24 2.079 . S
O41 C34 1.264 . S
O42 Mg43 1.990 . S
O42 C56 1.253 . S
Mg43 O42 1.990 . S
Mg43 O46 2.180 . S
Mg43 O47 2.117 . S
Mg43 O61 2.030 . S
O44 Mg45 2.072 . S
O44 C56 1.260 . S
Mg45 O44 2.072 . S
Mg45 O46 2.099 . S
Mg45 O48 2.079 . S
Mg45 O49 2.072 . S
Mg45 O51 2.099 . S
Mg45 O62 2.079 . S
O46 Mg43 2.180 . S
O46 Mg45 2.099 . S
O46 C57 1.279 . S
O47 Mg43 2.117 . S
O47 C57 1.250 . S
O48 Mg45 2.079 . S
O48 C58 1.264 . S
O49 Mg45 2.072 . S
O49 C59 1.260 . S
Mg50 O51 2.180 . S
Mg50 O52 2.030 . S
Mg50 O53 1.990 . S
Mg50 O54 2.117 . S
O51 Mg45 2.099 . S
O51 Mg50 2.180 . S
O51 C60 1.279 . S
O52 Mg50 2.030 . S
O52 C58 1.248 . S
O53 Mg50 1.990 . S
O53 C59 1.253 . S
O54 Mg50 2.117 . S
O54 C60 1.250 . S
C55 O61 1.248 . S
C55 O62 1.264 . S
C56 O42 1.253 . S
C56 O44 1.260 . S
C57 O46 1.279 . S
C57 O47 1.250 . S
C58 O48 1.264 . S
C58 O52 1.248 . S
C59 O49 1.260 . S
C59 O53 1.253 . S
C60 O51 1.279 . S
C60 O54 1.250 . S
O61 Mg43 2.030 . S
O61 C55 1.248 . S
O62 Mg45 2.079 . S
O62 C55 1.264 . S
O63 Mg64 1.990 . S
O63 C77 1.253 . S
Mg64 O63 1.990 . S
Mg64 O67 2.180 1_556 S
Mg64 O68 2.117 . S
Mg64 O82 2.030 . S
O65 Mg66 2.072 1_556 S
O65 C77 1.260 . S
Mg66 O65 2.072 1_554 S
Mg66 O67 2.099 . S
Mg66 O69 2.079 . S
Mg66 O70 2.072 . S
Mg66 O72 2.099 . S
Mg66 O83 2.079 1_554 S
O67 Mg64 2.180 1_554 S
O67 Mg66 2.099 . S
O67 C78 1.279 . S
O68 Mg64 2.117 . S
O68 C78 1.250 1_556 S
O69 Mg66 2.079 . S
O69 C79 1.264 . S
O70 Mg66 2.072 . S
O70 C80 1.260 . S
Mg71 O72 2.180 . S
Mg71 O73 2.030 . S
Mg71 O74 1.990 . S
Mg71 O75 2.117 . S
O72 Mg66 2.099 . S
O72 Mg71 2.180 . S
O72 C81 1.279 1_554 S
O73 Mg71 2.030 . S
O73 C79 1.248 . S
O74 Mg71 1.990 . S
O74 C80 1.253 . S
O75 Mg71 2.117 . S
O75 C81 1.250 1_554 S
C76 O82 1.248 . S
C76 O83 1.264 . S
C77 O63 1.253 . S
C77 O65 1.260 . S
C78 O67 1.279 . S
C78 O68 1.250 1_554 S
C79 O69 1.264 . S
C79 O73 1.248 . S
C80 O70 1.260 . S
C80 O74 1.253 . S
C81 O72 1.279 1_556 S
C81 O75 1.250 1_556 S
O82 Mg64 2.030 . S
O82 C76 1.248 . S
O83 Mg66 2.079 1_556 S
O83 C76 1.264 . S
O84 Mg85 1.990 . S
O84 C98 1.253 . S
Mg85 O84 1.990 . S
Mg85 O88 2.180 . S
Mg85 O89 2.117 . S
Mg85 O103 2.030 . S
O86 Mg87 2.072 . S
O86 C98 1.260 . S
Mg87 O86 2.072 . S
Mg87 O88 2.099 . S
Mg87 O90 2.079 . S
Mg87 O91 2.072 . S
Mg87 O93 2.099 . S
Mg87 O104 2.079 . S
O88 Mg85 2.180 . S
O88 Mg87 2.099 . S
O88 C99 1.279 . S
O89 Mg85 2.117 . S
O89 C99 1.250 . S
O90 Mg87 2.079 . S
O90 C100 1.264 . S
O91 Mg87 2.072 . S
O91 C101 1.260 . S
Mg92 O93 2.180 . S
Mg92 O94 2.030 . S
Mg92 O95 1.990 . S
Mg92 O96 2.117 . S
O93 Mg87 2.099 . S
O93 Mg92 2.180 . S
O93 C102 1.279 . S
O94 Mg92 2.030 . S
O94 C100 1.248 . S
O95 Mg92 1.990 . S
O95 C101 1.253 . S
O96 Mg92 2.117 . S
O96 C102 1.250 . S
C97 O103 1.248 . S
C97 O104 1.264 . S
C98 O84 1.253 . S
C98 O86 1.260 . S
C99 O88 1.279 . S
C99 O89 1.250 . S
C100 O90 1.264 . S
C100 O94 1.248 . S
C101 O91 1.260 . S
C101 O95 1.253 . S
C102 O93 1.279 . S
C102 O96 1.250 . S
O103 Mg85 2.030 . S
O103 C97 1.248 . S
O104 Mg87 2.079 . S
O104 C97 1.264 . S
O105 Mg106 1.990 . S
O105 C119 1.253 . S
Mg106 O105 1.990 . S
Mg106 O109 2.180 . S
Mg106 O110 2.117 . S
Mg106 O124 2.030 . S
O107 Mg108 2.072 . S
O107 C119 1.260 . S
Mg108 O107 2.072 . S
Mg108 O109 2.099 . S
Mg108 O111 2.079 . S
Mg108 O112 2.072 . S
Mg108 O114 2.099 . S
Mg108 O125 2.079 . S
O109 Mg106 2.180 . S
O109 Mg108 2.099 . S
O109 C120 1.279 . S
O110 Mg106 2.117 . S
O110 C120 1.250 . S
O111 Mg108 2.079 . S
O111 C121 1.264 . S
O112 Mg108 2.072 . S
O112 C122 1.260 . S
Mg113 O114 2.180 . S
Mg113 O115 2.030 . S
Mg113 O116 1.990 . S
Mg113 O117 2.117 . S
O114 Mg108 2.099 . S
O114 Mg113 2.180 . S
O114 C123 1.279 . S
O115 Mg113 2.030 . S
O115 C121 1.248 . S
O116 Mg113 1.990 . S
O116 C122 1.253 . S
O117 Mg113 2.117 . S
O117 C123 1.250 . S
C118 O124 1.248 . S
C118 O125 1.264 . S
C119 O105 1.253 . S
C119 O107 1.260 . S
C120 O109 1.279 . S
C120 O110 1.250 . S
C121 O111 1.264 . S
C121 O115 1.248 . S
C122 O112 1.260 . S
C122 O116 1.253 . S
C123 O114 1.279 . S
C123 O117 1.250 . S
O124 Mg106 2.030 . S
O124 C118 1.248 . S
O125 Mg108 2.079 . S
O125 C118 1.264 . S
H126 C127 0.951 . S
C127 H126 0.951 . S
C127 C133 1.265 . S
H128 C133 0.950 . S
H129 C137 0.949 . S
H130 C138 0.950 . S
H131 C139 0.951 . S
H132 C140 0.951 . S
C133 C127 1.265 . S
C133 H128 0.950 . S
C133 C134 1.478 . S
C134 C133 1.478 . S
C134 C135 1.397 . S
C134 C151 1.394 . S
C135 C134 1.397 . S
C135 C136 1.438 . S
C135 C140 1.429 . S
C136 C135 1.438 . S
C136 C137 1.428 . S
C136 C149 1.394 . S
C137 H129 0.949 . S
C137 C136 1.428 . S
C137 C138 1.345 . S
C138 H130 0.950 . S
C138 C137 1.345 . S
C138 C139 1.424 . S
C139 H131 0.951 . S
C139 C138 1.424 . S
C139 C140 1.347 . S
C140 H132 0.951 . S
C140 C135 1.429 . S
C140 C139 1.347 . S
H141 C142 0.951 . S
C142 H141 0.951 . S
C142 C148 1.265 . S
H143 C148 0.950 . S
H144 C152 0.949 . S
H145 C153 0.950 . S
H146 C154 0.951 . S
H147 C155 0.951 . S
C148 C142 1.265 . S
C148 H143 0.950 . S
C148 C149 1.478 . S
C149 C136 1.394 . S
C149 C148 1.478 . S
C149 C150 1.397 . S
C150 C149 1.397 . S
C150 C151 1.438 . S
C150 C155 1.429 . S
C151 C134 1.394 . S
C151 C150 1.438 . S
C151 C152 1.428 . S
C152 H144 0.949 . S
C152 C151 1.428 . S
C152 C153 1.345 . S
C153 H145 0.950 . S
C153 C152 1.345 . S
C153 C154 1.424 . S
C154 H146 0.951 . S
C154 C153 1.424 . S
C154 C155 1.347 . S
C155 H147 0.951 . S
C155 C150 1.429 . S
C155 C154 1.347 . S
H156 C157 0.951 . S
C157 H156 0.951 . S
C157 C163 1.265 . S
H158 C163 0.950 . S
H159 C167 0.949 . S
H160 C168 0.950 . S
H161 C169 0.951 . S
H162 C170 0.951 . S
C163 C157 1.265 . S
C163 H158 0.950 . S
C163 C164 1.478 . S
C164 C163 1.478 . S
C164 C165 1.397 . S
C164 C181 1.394 . S
C165 C164 1.397 . S
C165 C166 1.438 1_455 S
C165 C170 1.429 1_554 S
C166 C165 1.438 1_655 S
C166 C167 1.428 . S
C166 C179 1.394 . S
C167 H159 0.949 . S
C167 C166 1.428 . S
C167 C168 1.345 1_554 S
C168 H160 0.950 . S
C168 C167 1.345 1_556 S
C168 C169 1.424 . S
C169 H161 0.951 . S
C169 C168 1.424 . S
C169 C170 1.347 1_655 S
C170 H162 0.951 . S
C170 C165 1.429 1_556 S
C170 C169 1.347 1_455 S
H171 C172 0.951 . S
C172 H171 0.951 . S
C172 C178 1.265 . S
H173 C178 0.950 . S
H174 C182 0.949 . S
H175 C183 0.950 . S
H176 C184 0.951 . S
H177 C185 0.951 1_655 S
C178 C172 1.265 . S
C178 H173 0.950 . S
C178 C179 1.478 . S
C179 C166 1.394 . S
C179 C178 1.478 . S
C179 C180 1.397 1_655 S
C180 C179 1.397 1_455 S
C180 C181 1.438 . S
C180 C185 1.429 . S
C181 C164 1.394 . S
C181 C180 1.438 . S
C181 C182 1.428 . S
C182 H174 0.949 . S
C182 C181 1.428 . S
C182 C183 1.345 . S
C183 H175 0.950 . S
C183 C182 1.345 . S
C183 C184 1.424 . S
C184 H176 0.951 . S
C184 C183 1.424 . S
C184 C185 1.347 . S
C185 H177 0.951 1_455 S
C185 C180 1.429 . S
C185 C184 1.347 . S
H186 C187 0.951 . S
C187 H186 0.951 . S
C187 C193 1.265 . S
H188 C193 0.950 . S
H189 C197 0.949 . S
H190 C198 0.950 . S
H191 C199 0.951 . S
H192 C200 0.951 . S
C193 C187 1.265 . S
C193 H188 0.950 . S
C193 C194 1.478 . S
C194 C193 1.478 . S
C194 C195 1.397 . S
C194 C211 1.394 . S
C195 C194 1.397 . S
C195 C196 1.438 . S
C195 C200 1.429 . S
C196 C195 1.438 . S
C196 C197 1.428 1_545 S
C196 C209 1.394 1_545 S
C197 H189 0.949 . S
C197 C196 1.428 1_565 S
C197 C198 1.345 1_565 S
C198 H190 0.950 . S
C198 C197 1.345 1_545 S
C198 C199 1.424 . S
C199 H191 0.951 . S
C199 C198 1.424 . S
C199 C200 1.347 . S
C200 H192 0.951 . S
C200 C195 1.429 . S
C200 C199 1.347 . S
H201 C202 0.951 . S
C202 H201 0.951 . S
C202 C208 1.265 . S
H203 C208 0.950 . S
H204 C212 0.949 . S
H205 C213 0.950 . S
H206 C214 0.951 . S
H207 C215 0.951 . S
C208 C202 1.265 . S
C208 H203 0.950 . S
C208 C209 1.478 . S
C209 C196 1.394 1_565 S
C209 C208 1.478 . S
C209 C210 1.397 . S
C210 C209 1.397 . S
C210 C211 1.438 1_565 S
C210 C215 1.429 . S
C211 C194 1.394 . S
C211 C210 1.438 1_545 S
C211 C212 1.428 . S
C212 H204 0.949 . S
C212 C211 1.428 . S
C212 C213 1.345 . S
C213 H205 0.950 . S
C213 C212 1.345 . S
C213 C214 1.424 1_545 S
C214 H206 0.951 . S
C214 C213 1.424 1_565 S
C214 C215 1.347 . S
C215 H207 0.951 . S
C215 C210 1.429 . S
C215 C214 1.347 . S
H216 C217 0.951 . S
C217 H216 0.951 . S
C217 C223 1.265 . S
H218 C223 0.950 . S
H219 C227 0.949 . S
H220 C228 0.950 . S
H221 C229 0.951 . S
H222 C230 0.951 . S
C223 C217 1.265 . S
C223 H218 0.950 . S
C223 C224 1.478 . S
C224 C223 1.478 . S
C224 C225 1.397 . S
C224 C241 1.394 . S
C225 C224 1.397 . S
C225 C226 1.438 . S
C225 C230 1.429 . S
C226 C225 1.438 . S
C226 C227 1.428 1_556 S
C226 C239 1.394 . S
C227 H219 0.949 . S
C227 C226 1.428 1_554 S
C227 C228 1.345 . S
C228 H220 0.950 . S
C228 C227 1.345 . S
C228 C229 1.424 . S
C229 H221 0.951 . S
C229 C228 1.424 . S
C229 C230 1.347 1_554 S
C230 H222 0.951 . S
C230 C225 1.429 . S
C230 C229 1.347 1_556 S
H231 C232 0.951 . S
C232 H231 0.951 . S
C232 C238 1.265 . S
H233 C238 0.950 . S
H234 C242 0.949 . S
H235 C243 0.950 . S
H236 C244 0.951 . S
H237 C245 0.951 . S
C238 C232 1.265 . S
C238 H233 0.950 . S
C238 C239 1.478 . S
C239 C226 1.394 . S
C239 C238 1.478 . S
C239 C240 1.397 . S
C240 C239 1.397 . S
C240 C241 1.438 . S
C240 C245 1.429 . S
C241 C224 1.394 . S
C241 C240 1.438 . S
C241 C242 1.428 . S
C242 H234 0.949 . S
C242 C241 1.428 . S
C242 C243 1.345 . S
C243 H235 0.950 . S
C243 C242 1.345 . S
C243 C244 1.424 . S
C244 H236 0.951 . S
C244 C243 1.424 . S
C244 C245 1.347 . S
C245 H237 0.951 . S
C245 C240 1.429 . S
C245 C244 1.347 . S
H246 C247 0.951 . S
C247 H246 0.951 . S
C247 C253 1.265 . S
H248 C253 0.950 . S
H249 C257 0.949 1_556 S
H250 C258 0.950 . S
H251 C259 0.951 1_556 S
H252 C260 0.951 . S
C253 C247 1.265 . S
C253 H248 0.950 . S
C253 C254 1.478 . S
C254 C253 1.478 . S
C254 C255 1.397 . S
C254 C271 1.393 1_455 S
C255 C254 1.397 . S
C255 C256 1.438 1_455 S
C255 C260 1.429 . S
C256 C255 1.438 1_655 S
C256 C257 1.428 . S
C256 C269 1.394 . S
C257 H249 0.949 1_554 S
C257 C256 1.428 . S
C257 C258 1.345 1_554 S
C258 H250 0.950 . S
C258 C257 1.345 1_556 S
C258 C259 1.424 1_656 S
C259 H251 0.951 1_554 S
C259 C258 1.424 1_454 S
C259 C260 1.347 . S
C260 H252 0.951 . S
C260 C255 1.429 . S
C260 C259 1.347 . S
H261 C262 0.951 . S
C262 H261 0.951 . S
C262 C268 1.265 . S
H263 C268 0.950 . S
H264 C272 0.949 . S
H265 C273 0.950 . S
H266 C274 0.951 . S
H267 C275 0.951 . S
C268 C262 1.265 . S
C268 H263 0.950 . S
C268 C269 1.478 . S
C269 C256 1.394 . S
C269 C268 1.478 . S
C269 C270 1.397 . S
C270 C269 1.397 . S
C270 C271 1.441 . S
C270 C275 1.429 . S
C271 C254 1.393 1_655 S
C271 C270 1.441 . S
C271 C272 1.426 1_655 S
C272 H264 0.949 . S
C272 C271 1.426 1_455 S
C272 C273 1.345 1_455 S
C273 H265 0.950 . S
C273 C272 1.345 1_655 S
C273 C274 1.424 . S
C274 H266 0.951 . S
C274 C273 1.424 . S
C274 C275 1.347 . S
C275 H267 0.951 . S
C275 C270 1.429 . S
C275 C274 1.347 . S
H276 C277 0.951 . S
C277 H276 0.951 . S
C277 C283 1.265 . S
H278 C283 0.950 . S
H279 C287 0.949 . S
H280 C288 0.950 . S
H281 C289 0.951 . S
H282 C290 0.951 . S
C283 C277 1.265 . S
C283 H278 0.950 . S
C283 C284 1.478 . S
C284 C283 1.478 . S
C284 C285 1.397 . S
C284 C301 1.394 1_545 S
C285 C284 1.397 . S
C285 C286 1.438 1_545 S
C285 C290 1.429 . S
C286 C285 1.438 1_565 S
C286 C287 1.428 . S
C286 C299 1.394 . S
C287 H279 0.949 . S
C287 C286 1.428 . S
C287 C288 1.345 . S
C288 H280 0.950 . S
C288 C287 1.345 . S
C288 C289 1.424 1_565 S
C289 H281 0.951 . S
C289 C288 1.424 1_545 S
C289 C290 1.347 . S
C290 H282 0.951 . S
C290 C285 1.429 . S
C290 C289 1.347 . S
H291 C292 0.951 . S
C292 H291 0.951 . S
C292 C298 1.265 . S
H293 C298 0.950 . S
H294 C302 0.949 . S
H295 C303 0.950 . S
H296 C304 0.951 . S
H297 C305 0.951 . S
C298 C292 1.265 . S
C298 H293 0.950 . S
C298 C299 1.478 . S
C299 C286 1.394 . S
C299 C298 1.478 . S
C299 C300 1.397 . S
C300 C299 1.397 . S
C300 C301 1.438 . S
C300 C305 1.429 . S
C301 C284 1.394 1_565 S
C301 C300 1.438 . S
C301 C302 1.428 1_565 S
C302 H294 0.949 . S
C302 C301 1.428 1_545 S
C302 C303 1.345 1_545 S
C303 H295 0.950 . S
C303 C302 1.345 1_565 S
C303 C304 1.424 . S
C304 H296 0.951 . S
C304 C303 1.424 . S
C304 C305 1.347 . S
C305 H297 0.951 . S
C305 C300 1.429 . S
C305 C304 1.347 . S
H306 C307 0.951 . S
C307 H306 0.951 . S
C307 C313 1.265 . S
H308 C313 0.950 . S
H309 C317 0.949 . S
H310 C318 0.950 . S
H311 C319 0.951 . S
H312 C320 0.951 . S
C313 C307 1.265 . S
C313 H308 0.950 . S
C313 C314 1.478 . S
C314 C313 1.478 . S
C314 C315 1.397 . S
C314 C331 1.394 . S
C315 C314 1.397 . S
C315 C316 1.438 . S
C315 C320 1.429 . S
C316 C315 1.438 . S
C316 C317 1.428 . S
C316 C329 1.394 . S
C317 H309 0.949 . S
C317 C316 1.428 . S
C317 C318 1.345 . S
C318 H310 0.950 . S
C318 C317 1.345 . S
C318 C319 1.424 . S
C319 H311 0.951 . S
C319 C318 1.424 . S
C319 C320 1.347 . S
C320 H312 0.951 . S
C320 C315 1.429 . S
C320 C319 1.347 . S
H321 C322 0.951 . S
C322 H321 0.951 . S
C322 C328 1.265 . S
H323 C328 0.950 . S
H324 C332 0.949 . S
H325 C333 0.950 . S
H326 C334 0.951 . S
H327 C335 0.951 . S
C328 C322 1.265 . S
C328 H323 0.950 . S
C328 C329 1.478 . S
C329 C316 1.394 . S
C329 C328 1.478 . S
C329 C330 1.397 . S
C330 C329 1.397 . S
C330 C331 1.438 . S
C330 C335 1.429 . S
C331 C314 1.394 . S
C331 C330 1.438 . S
C331 C332 1.428 . S
C332 H324 0.949 . S
C332 C331 1.428 . S
C332 C333 1.345 . S
C333 H325 0.950 . S
C333 C332 1.345 . S
C333 C334 1.424 . S
C334 H326 0.951 . S
C334 C333 1.424 . S
C334 C335 1.347 . S
C335 H327 0.951 . S
C335 C330 1.429 . S
C335 C334 1.347 . S
H336 C337 0.951 . S
C337 H336 0.951 . S
C337 C343 1.265 . S
H338 C343 0.950 . S
H339 C347 0.949 . S
H340 C348 0.950 . S
H341 C349 0.951 . S
H342 C350 0.951 . S
C343 C337 1.265 . S
C343 H338 0.950 . S
C343 C344 1.478 1_554 S
C344 C343 1.478 1_556 S
C344 C345 1.397 . S
C344 C361 1.394 . S
C345 C344 1.397 . S
C345 C346 1.438 . S
C345 C350 1.429 . S
C346 C345 1.438 . S
C346 C347 1.428 . S
C346 C359 1.394 . S
C347 H339 0.949 . S
C347 C346 1.428 . S
C347 C348 1.345 . S
C348 H340 0.950 . S
C348 C347 1.345 . S
C348 C349 1.424 . S
C349 H341 0.951 . S
C349 C348 1.424 . S
C349 C350 1.347 . S
C350 H342 0.951 . S
C350 C345 1.429 . S
C350 C349 1.347 . S
H351 C352 0.951 . S
C352 H351 0.951 . S
C352 C358 1.265 . S
H353 C358 0.950 . S
H354 C362 0.949 . S
H355 C363 0.950 . S
H356 C364 0.951 . S
H357 C365 0.951 . S
C358 C352 1.265 . S
C358 H353 0.950 . S
C358 C359 1.478 . S
C359 C346 1.394 . S
C359 C358 1.478 . S
C359 C360 1.397 . S
C360 C359 1.397 . S
C360 C361 1.438 . S
C360 C365 1.429 . S
C361 C344 1.394 . S
C361 C360 1.438 . S
C361 C362 1.428 . S
C362 H354 0.949 . S
C362 C361 1.428 . S
C362 C363 1.345 . S
C363 H355 0.950 . S
C363 C362 1.345 . S
C363 C364 1.424 . S
C364 H356 0.951 . S
C364 C363 1.424 . S
C364 C365 1.347 . S
C365 H357 0.951 . S
C365 C360 1.429 . S
C365 C364 1.347 . S
H366 C367 0.951 . S
C367 H366 0.951 . S
C367 C373 1.265 . S
H368 C373 0.950 . S
H369 C377 0.949 . S
H370 C378 0.950 . S
H371 C379 0.951 . S
H372 C380 0.951 . S
C373 C367 1.265 . S
C373 H368 0.950 . S
C373 C374 1.478 . S
C374 C373 1.478 . S
C374 C375 1.397 . S
C374 C391 1.394 . S
C375 C374 1.397 . S
C375 C376 1.438 . S
C375 C380 1.429 . S
C376 C375 1.438 . S
C376 C377 1.428 . S
C376 C389 1.394 . S
C377 H369 0.949 . S
C377 C376 1.428 . S
C377 C378 1.345 . S
C378 H370 0.950 . S
C378 C377 1.345 . S
C378 C379 1.424 . S
C379 H371 0.951 . S
C379 C378 1.424 . S
C379 C380 1.347 . S
C380 H372 0.951 . S
C380 C375 1.429 . S
C380 C379 1.347 . S
H381 C382 0.951 . S
C382 H381 0.951 . S
C382 C388 1.265 1_556 S
H383 C388 0.950 1_556 S
H384 C392 0.949 . S
H385 C393 0.950 . S
H386 C394 0.951 . S
H387 C395 0.951 . S
C388 C382 1.265 1_554 S
C388 H383 0.950 1_554 S
C388 C389 1.478 . S
C389 C376 1.394 . S
C389 C388 1.478 . S
C389 C390 1.397 . S
C390 C389 1.397 . S
C390 C391 1.438 . S
C390 C395 1.429 . S
C391 C374 1.394 . S
C391 C390 1.438 . S
C391 C392 1.428 . S
C392 H384 0.949 . S
C392 C391 1.428 . S
C392 C393 1.345 . S
C393 H385 0.950 . S
C393 C392 1.345 . S
C393 C394 1.424 . S
C394 H386 0.951 . S
C394 C393 1.424 . S
C394 C395 1.347 . S
C395 H387 0.951 . S
C395 C390 1.429 . S
C395 C394 1.347 . S
H396 C397 0.951 . S
C397 H396 0.951 . S
C397 C403 1.265 . S
H398 C403 0.950 . S
H399 C407 0.949 . S
H400 C408 0.950 . S
H401 C409 0.951 . S
H402 C410 0.951 . S
C403 C397 1.265 . S
C403 H398 0.950 . S
C403 C404 1.478 . S
C404 C403 1.478 . S
C404 C405 1.397 . S
C404 C421 1.394 . S
C405 C404 1.397 . S
C405 C406 1.438 . S
C405 C410 1.429 . S
C406 C405 1.438 . S
C406 C407 1.428 . S
C406 C419 1.394 . S
C407 H399 0.949 . S
C407 C406 1.428 . S
C407 C408 1.345 . S
C408 H400 0.950 . S
C408 C407 1.345 . S
C408 C409 1.424 . S
C409 H401 0.951 . S
C409 C408 1.424 . S
C409 C410 1.347 . S
C410 H402 0.951 . S
C410 C405 1.429 . S
C410 C409 1.347 . S
H411 C412 0.951 . S
C412 H411 0.951 . S
C412 C418 1.265 . S
H413 C418 0.950 . S
H414 C422 0.949 . S
H415 C423 0.950 . S
H416 C424 0.951 . S
H417 C425 0.951 . S
C418 C412 1.265 . S
C418 H413 0.950 . S
C418 C419 1.478 . S
C419 C406 1.394 . S
C419 C418 1.478 . S
C419 C420 1.397 . S
C420 C419 1.397 . S
C420 C421 1.438 . S
C420 C425 1.429 . S
C421 C404 1.394 . S
C421 C420 1.438 . S
C421 C422 1.428 . S
C422 H414 0.949 . S
C422 C421 1.428 . S
C422 C423 1.345 . S
C423 H415 0.950 . S
C423 C422 1.345 . S
C423 C424 1.424 . S
C424 H416 0.951 . S
C424 C423 1.424 . S
C424 C425 1.347 . S
C425 H417 0.951 . S
C425 C420 1.429 . S
C425 C424 1.347 . S
H426 C427 0.951 . S
C427 H426 0.951 . S
C427 C433 1.265 . S
H428 C433 0.950 . S
H429 C437 0.949 1_554 S
H430 C438 0.950 . S
H431 C439 0.951 . S
H432 C440 0.951 . S
C433 C427 1.265 . S
C433 H428 0.950 . S
C433 C434 1.478 . S
C434 C433 1.478 . S
C434 C435 1.397 . S
C434 C451 1.394 . S
C435 C434 1.397 . S
C435 C436 1.438 . S
C435 C440 1.429 . S
C436 C435 1.438 . S
C436 C437 1.428 . S
C436 C449 1.394 . S
C437 H429 0.949 1_556 S
C437 C436 1.428 . S
C437 C438 1.345 . S
C438 H430 0.950 . S
C438 C437 1.345 . S
C438 C439 1.424 . S
C439 H431 0.951 . S
C439 C438 1.424 . S
C439 C440 1.347 . S
C440 H432 0.951 . S
C440 C435 1.429 . S
C440 C439 1.347 . S
H441 C442 0.951 . S
C442 H441 0.951 . S
C442 C448 1.265 . S
H443 C448 0.950 . S
H444 C452 0.949 . S
H445 C453 0.950 . S
H446 C454 0.951 . S
H447 C455 0.951 . S
C448 C442 1.265 . S
C448 H443 0.950 . S
C448 C449 1.478 1_554 S
C449 C436 1.394 . S
C449 C448 1.478 1_556 S
C449 C450 1.397 . S
C450 C449 1.397 . S
C450 C451 1.438 . S
C450 C455 1.429 . S
C451 C434 1.394 . S
C451 C450 1.438 . S
C451 C452 1.428 . S
C452 H444 0.949 . S
C452 C451 1.428 . S
C452 C453 1.345 . S
C453 H445 0.950 . S
C453 C452 1.345 . S
C453 C454 1.424 . S
C454 H446 0.951 . S
C454 C453 1.424 . S
C454 C455 1.347 . S
C455 H447 0.951 . S
C455 C450 1.429 . S
C455 C454 1.347 . S
H456 C457 0.951 . S
C457 H456 0.951 . S
C457 C463 1.265 . S
H458 C463 0.950 . S
H459 C467 0.949 . S
H460 C468 0.950 . S
H461 C469 0.951 . S
H462 C470 0.951 . S
C463 C457 1.265 . S
C463 H458 0.950 . S
C463 C464 1.478 . S
C464 C463 1.478 . S
C464 C465 1.397 . S
C464 C481 1.394 . S
C465 C464 1.397 . S
C465 C466 1.438 . S
C465 C470 1.429 . S
C466 C465 1.438 . S
C466 C467 1.428 . S
C466 C479 1.394 . S
C467 H459 0.949 . S
C467 C466 1.428 . S
C467 C468 1.345 . S
C468 H460 0.950 . S
C468 C467 1.345 . S
C468 C469 1.424 . S
C469 H461 0.951 . S
C469 C468 1.424 . S
C469 C470 1.347 . S
C470 H462 0.951 . S
C470 C465 1.429 . S
C470 C469 1.347 . S
H471 C472 0.951 . S
C472 H471 0.951 . S
C472 C478 1.265 1_556 S
H473 C478 0.950 1_556 S
H474 C482 0.949 . S
H475 C483 0.950 . S
H476 C484 0.951 . S
H477 C485 0.951 . S
C478 C472 1.265 1_554 S
C478 H473 0.950 1_554 S
C478 C479 1.478 . S
C479 C466 1.394 . S
C479 C478 1.478 . S
C479 C480 1.397 . S
C480 C479 1.397 . S
C480 C481 1.438 . S
C480 C485 1.429 . S
C481 C464 1.394 . S
C481 C480 1.438 . S
C481 C482 1.428 . S
C482 H474 0.949 . S
C482 C481 1.428 . S
C482 C483 1.345 . S
C483 H475 0.950 . S
C483 C482 1.345 . S
C483 C484 1.424 . S
C484 H476 0.951 . S
C484 C483 1.424 . S
C484 C485 1.347 . S
C485 H477 0.951 . S
C485 C480 1.429 . S
C485 C484 1.347 . S
H486 C487 0.951 . S
C487 H486 0.951 . S
C487 C493 1.265 . S
H488 C493 0.950 . S
H489 C497 0.949 . S
H490 C498 0.950 . S
H491 C499 0.951 . S
H492 C500 0.951 . S
C493 C487 1.265 . S
C493 H488 0.950 . S
C493 C494 1.478 . S
C494 C493 1.478 . S
C494 C495 1.397 . S
C494 C511 1.394 . S
C495 C494 1.397 . S
C495 C496 1.438 . S
C495 C500 1.429 . S
C496 C495 1.438 . S
C496 C497 1.428 . S
C496 C509 1.394 . S
C497 H489 0.949 . S
C497 C496 1.428 . S
C497 C498 1.345 . S
C498 H490 0.950 . S
C498 C497 1.345 . S
C498 C499 1.424 . S
C499 H491 0.951 . S
C499 C498 1.424 . S
C499 C500 1.347 . S
C500 H492 0.951 . S
C500 C495 1.429 . S
C500 C499 1.347 . S
H501 C502 0.951 . S
C502 H501 0.951 . S
C502 C508 1.265 . S
H503 C508 0.950 . S
H504 C512 0.949 1_556 S
H505 C513 0.950 . S
H506 C514 0.951 . S
H507 C515 0.951 . S
C508 C502 1.265 . S
C508 H503 0.950 . S
C508 C509 1.478 . S
C509 C496 1.394 . S
C509 C508 1.478 . S
C509 C510 1.397 . S
C510 C509 1.397 . S
C510 C511 1.438 . S
C510 C515 1.429 . S
C511 C494 1.394 . S
C511 C510 1.438 . S
C511 C512 1.428 . S
C512 H504 0.949 1_554 S
C512 C511 1.428 . S
C512 C513 1.345 1_554 S
C513 H505 0.950 . S
C513 C512 1.345 1_556 S
C513 C514 1.424 . S
C514 H506 0.951 . S
C514 C513 1.424 . S
C514 C515 1.347 1_556 S
C515 H507 0.951 . S
C515 C510 1.429 . S
C515 C514 1.347 1_554 S
H516 C517 0.951 . S
C517 H516 0.951 . S
C517 C523 1.265 . S
H518 C523 0.950 . S
H519 C527 0.949 . S
H520 C528 0.950 . S
H521 C529 0.951 . S
H522 C530 0.951 . S
C523 C517 1.265 . S
C523 H518 0.950 . S
C523 C524 1.478 . S
C524 C523 1.478 . S
C524 C525 1.397 . S
C524 C541 1.394 . S
C525 C524 1.397 . S
C525 C526 1.438 . S
C525 C530 1.429 . S
C526 C525 1.438 . S
C526 C527 1.428 . S
C526 C539 1.394 . S
C527 H519 0.949 . S
C527 C526 1.428 . S
C527 C528 1.345 . S
C528 H520 0.950 . S
C528 C527 1.345 . S
C528 C529 1.424 . S
C529 H521 0.951 . S
C529 C528 1.424 . S
C529 C530 1.347 . S
C530 H522 0.951 . S
C530 C525 1.429 . S
C530 C529 1.347 . S
H531 C532 0.951 . S
C532 H531 0.951 . S
C532 C538 1.265 . S
H533 C538 0.950 . S
H534 C542 0.949 . S
H535 C543 0.950 . S
H536 C544 0.951 . S
H537 C545 0.951 . S
C538 C532 1.265 . S
C538 H533 0.950 . S
C538 C539 1.478 . S
C539 C526 1.394 . S
C539 C538 1.478 . S
C539 C540 1.397 . S
C540 C539 1.397 . S
C540 C541 1.438 . S
C540 C545 1.429 . S
C541 C524 1.394 . S
C541 C540 1.438 . S
C541 C542 1.428 . S
C542 H534 0.949 . S
C542 C541 1.428 . S
C542 C543 1.345 . S
C543 H535 0.950 . S
C543 C542 1.345 . S
C543 C544 1.424 . S
C544 H536 0.951 . S
C544 C543 1.424 . S
C544 C545 1.347 . S
C545 H537 0.951 . S
C545 C540 1.429 . S
C545 C544 1.347 . S
H546 C547 0.951 . S
C547 H546 0.951 . S
C547 C553 1.265 . S
H548 C553 0.950 . S
H549 C557 0.949 . S
H550 C558 0.950 . S
H551 C559 0.951 . S
H552 C560 0.951 . S
C553 C547 1.265 . S
C553 H548 0.950 . S
C553 C554 1.478 . S
C554 C553 1.478 . S
C554 C555 1.397 . S
C554 C571 1.394 . S
C555 C554 1.397 . S
C555 C556 1.438 . S
C555 C560 1.429 . S
C556 C555 1.438 . S
C556 C557 1.428 . S
C556 C569 1.394 . S
C557 H549 0.949 . S
C557 C556 1.428 . S
C557 C558 1.345 . S
C558 H550 0.950 . S
C558 C557 1.345 . S
C558 C559 1.424 . S
C559 H551 0.951 . S
C559 C558 1.424 . S
C559 C560 1.347 . S
C560 H552 0.951 . S
C560 C555 1.429 . S
C560 C559 1.347 . S
H561 C562 0.951 . S
C562 H561 0.951 . S
C562 C568 1.265 . S
H563 C568 0.950 . S
H564 C572 0.949 1_554 S
H565 C573 0.950 . S
H566 C574 0.954 . S
H567 C575 0.951 . S
C568 C562 1.265 . S
C568 H563 0.950 . S
C568 C569 1.478 . S
C569 C556 1.394 . S
C569 C568 1.478 . S
C569 C570 1.397 . S
C570 C569 1.397 . S
C570 C571 1.438 . S
C570 C575 1.429 . S
C571 C554 1.394 . S
C571 C570 1.438 . S
C571 C572 1.428 . S
C572 H564 0.949 1_556 S
C572 C571 1.428 . S
C572 C573 1.345 1_556 S
C573 H565 0.950 . S
C573 C572 1.345 1_554 S
C573 C574 1.427 . S
C574 H566 0.954 . S
C574 C573 1.427 . S
C574 C575 1.341 1_554 S
C575 H567 0.951 . S
C575 C570 1.429 . S
C575 C574 1.341 1_556 S
H576 C577 0.951 . S
C577 H576 0.951 . S
C577 C583 1.265 . S
H578 C583 0.950 . S
H579 C587 0.949 . S
H580 C588 0.950 . S
H581 C589 0.951 . S
H582 C590 0.951 . S
C583 C577 1.265 . S
C583 H578 0.950 . S
C583 C584 1.478 . S
C584 C583 1.478 . S
C584 C585 1.397 . S
C584 C601 1.394 . S
C585 C584 1.397 . S
C585 C586 1.438 . S
C585 C590 1.429 . S
C586 C585 1.438 . S
C586 C587 1.428 . S
C586 C599 1.394 . S
C587 H579 0.949 . S
C587 C586 1.428 . S
C587 C588 1.345 . S
C588 H580 0.950 . S
C588 C587 1.345 . S
C588 C589 1.424 . S
C589 H581 0.951 . S
C589 C588 1.424 . S
C589 C590 1.347 . S
C590 H582 0.951 . S
C590 C585 1.429 . S
C590 C589 1.347 . S
H591 C592 0.951 . S
C592 H591 0.951 . S
C592 C598 1.265 . S
H593 C598 0.950 . S
H594 C602 0.949 . S
H595 C603 0.950 . S
H596 C604 0.951 . S
H597 C605 0.951 . S
C598 C592 1.265 . S
C598 H593 0.950 . S
C598 C599 1.478 . S
C599 C586 1.394 . S
C599 C598 1.478 . S
C599 C600 1.397 . S
C600 C599 1.397 . S
C600 C601 1.438 . S
C600 C605 1.429 1_554 S
C601 C584 1.394 . S
C601 C600 1.438 . S
C601 C602 1.428 . S
C602 H594 0.949 . S
C602 C601 1.428 . S
C602 C603 1.345 1_554 S
C603 H595 0.950 . S
C603 C602 1.345 1_556 S
C603 C604 1.424 . S
C604 H596 0.951 . S
C604 C603 1.424 . S
C604 C605 1.347 . S
C605 H597 0.951 . S
C605 C600 1.429 1_556 S
C605 C604 1.347 . S
H606 C607 0.951 . S
C607 H606 0.951 . S
C607 C613 1.265 . S
H608 C613 0.950 . S
H609 C617 0.949 . S
H610 C618 0.950 . S
H611 C619 0.951 . S
H612 C620 0.951 . S
C613 C607 1.265 . S
C613 H608 0.950 . S
C613 C614 1.478 . S
C614 C613 1.478 . S
C614 C615 1.397 . S
C614 C631 1.394 . S
C615 C614 1.397 . S
C615 C616 1.438 . S
C615 C620 1.429 . S
C616 C615 1.438 . S
C616 C617 1.428 . S
C616 C629 1.394 . S
C617 H609 0.949 . S
C617 C616 1.428 . S
C617 C618 1.345 . S
C618 H610 0.950 . S
C618 C617 1.345 . S
C618 C619 1.424 . S
C619 H611 0.951 . S
C619 C618 1.424 . S
C619 C620 1.347 . S
C620 H612 0.951 . S
C620 C615 1.429 . S
C620 C619 1.347 . S
H621 C622 0.951 . S
C622 H621 0.951 . S
C622 C628 1.265 . S
H623 C628 0.950 . S
H624 C632 0.949 . S
H625 C633 0.950 . S
H626 C634 0.951 . S
H627 C635 0.951 . S
C628 C622 1.265 . S
C628 H623 0.950 . S
C628 C629 1.478 . S
C629 C616 1.394 . S
C629 C628 1.478 . S
C629 C630 1.397 . S
C630 C629 1.397 . S
C630 C631 1.438 . S
C630 C635 1.429 . S
C631 C614 1.394 . S
C631 C630 1.438 . S
C631 C632 1.428 . S
C632 H624 0.949 . S
C632 C631 1.428 . S
C632 C633 1.345 . S
C633 H625 0.950 . S
C633 C632 1.345 . S
C633 C634 1.424 . S
C634 H626 0.951 . S
C634 C633 1.424 . S
C634 C635 1.347 . S
C635 H627 0.951 . S
C635 C630 1.429 . S
C635 C634 1.347 . S
H636 C637 0.951 . S
C637 H636 0.951 . S
C637 C643 1.265 . S
H638 C643 0.950 . S
H639 C647 0.949 . S
H640 C648 0.950 . S
H641 C649 0.951 . S
H642 C650 0.951 . S
C643 C637 1.265 . S
C643 H638 0.950 . S
C643 C644 1.478 . S
C644 C643 1.478 . S
C644 C645 1.397 . S
C644 C661 1.394 . S
C645 C644 1.397 . S
C645 C646 1.438 . S
C645 C650 1.429 1_556 S
C646 C645 1.438 . S
C646 C647 1.428 . S
C646 C659 1.394 . S
C647 H639 0.949 . S
C647 C646 1.428 . S
C647 C648 1.345 1_556 S
C648 H640 0.950 . S
C648 C647 1.345 1_554 S
C648 C649 1.424 . S
C649 H641 0.951 . S
C649 C648 1.424 . S
C649 C650 1.347 . S
C650 H642 0.951 . S
C650 C645 1.429 1_554 S
C650 C649 1.347 . S
H651 C652 0.951 . S
C652 H651 0.951 . S
C652 C658 1.265 . S
H653 C658 0.950 . S
H654 C662 0.949 . S
H655 C663 0.950 . S
H656 C664 0.951 . S
H657 C665 0.951 . S
C658 C652 1.265 . S
C658 H653 0.950 . S
C658 C659 1.478 . S
C659 C646 1.394 . S
C659 C658 1.478 . S
C659 C660 1.397 . S
C660 C659 1.397 . S
C660 C661 1.438 . S
C660 C665 1.429 . S
C661 C644 1.394 . S
C661 C660 1.438 . S
C661 C662 1.428 . S
C662 H654 0.949 . S
C662 C661 1.428 . S
C662 C663 1.345 . S
C663 H655 0.950 . S
C663 C662 1.345 . S
C663 C664 1.424 . S
C664 H656 0.951 . S
C664 C663 1.424 . S
C664 C665 1.347 . S
C665 H657 0.951 . S
C665 C660 1.429 . S
C665 C664 1.347 . S
C127 C120 1.280 . S
C142 C13 1.473 . S
C157 C15 1.332 . S
C172 C34 1.445 . S
C187 C36 1.385 . S
C202 C55 1.417 . S
C217 C57 1.377 . S
C232 C76 1.422 . S
C247 C97 1.448 . S
C262 C78 1.328 . S
C277 C118 1.461 . S
C292 C99 1.302 . S
C307 C14 1.165 . S
C322 C16 1.178 . S
C337 C35 1.123 . S
C352 C37 1.097 . S
C367 C56 1.122 . S
C382 C58 1.124 . S
C397 C77 1.165 . S
C412 C79 1.134 . S
C427 C100 1.099 . S
C442 C98 1.126 . S
C457 C119 1.117 . S
C472 C121 1.115 . S
C487 C17 1.241 . S
C502 C102 1.269 . S
C517 C38 1.330 . S
C532 C123 1.114 . S
C547 C18 1.163 . S
C562 C59 1.384 . S
C577 C39 1.297 . S
C592 C80 1.251 . S
C607 C101 1.317 . S
C622 C60 1.125 . S
C637 C81 1.290 . S
C652 C122 1.245 . S
