# Generated by pormake.
# Topology smb, (6)-cn, num edge types: 1
# Building blocks:
#     Node 0, Type 0, BuildingBlock: IZENUY_clean_sbu_0, # of connection points: 6
#     Node 1, Type 0, BuildingBlock: IZENUY_clean_sbu_0, # of connection points: 6
#     Node 2, Type 0, BuildingBlock: IZENUY_clean_sbu_0, # of connection points: 6
#     Node 3, Type 0, BuildingBlock: IZENUY_clean_sbu_0, # of connection points: 6
#     Node 4, Type 0, BuildingBlock: IZENUY_clean_sbu_0, # of connection points: 6
#     Node 5, Type 0, BuildingBlock: IZENUY_clean_sbu_0, # of connection points: 6
#     Node 6, Type 0, BuildingBlock: IZENUY_clean_sbu_0, # of connection points: 6
#     Node 7, Type 0, BuildingBlock: IZENUY_clean_sbu_0, # of connection points: 6
#     Node 8, Type 0, BuildingBlock: IZENUY_clean_sbu_0, # of connection points: 6
#     Edge 9, Type (0, 0), BuildingBlock: EZIPEK_clean_linker_0, # of connection points: 2
#     Edge 10, Type (0, 0), BuildingBlock: EZIPEK_clean_linker_0, # of connection points: 2
#     Edge 11, Type (0, 0), BuildingBlock: EZIPEK_clean_linker_0, # of connection points: 2
#     Edge 12, Type (0, 0), BuildingBlock: EZIPEK_clean_linker_0, # of connection points: 2
#     Edge 13, Type (0, 0), BuildingBlock: EZIPEK_clean_linker_0, # of connection points: 2
#     Edge 14, Type (0, 0), BuildingBlock: EZIPEK_clean_linker_0, # of connection points: 2
#     Edge 15, Type (0, 0), BuildingBlock: EZIPEK_clean_linker_0, # of connection points: 2
#     Edge 16, Type (0, 0), BuildingBlock: EZIPEK_clean_linker_0, # of connection points: 2
#     Edge 17, Type (0, 0), BuildingBlock: EZIPEK_clean_linker_0, # of connection points: 2
#     Edge 18, Type (0, 0), BuildingBlock: EZIPEK_clean_linker_0, # of connection points: 2
#     Edge 19, Type (0, 0), BuildingBlock: EZIPEK_clean_linker_0, # of connection points: 2
#     Edge 20, Type (0, 0), BuildingBlock: EZIPEK_clean_linker_0, # of connection points: 2
#     Edge 21, Type (0, 0), BuildingBlock: EZIPEK_clean_linker_0, # of connection points: 2
#     Edge 22, Type (0, 0), BuildingBlock: EZIPEK_clean_linker_0, # of connection points: 2
#     Edge 23, Type (0, 0), BuildingBlock: EZIPEK_clean_linker_0, # of connection points: 2
#     Edge 24, Type (0, 0), BuildingBlock: EZIPEK_clean_linker_0, # of connection points: 2
#     Edge 25, Type (0, 0), BuildingBlock: EZIPEK_clean_linker_0, # of connection points: 2
#     Edge 26, Type (0, 0), BuildingBlock: EZIPEK_clean_linker_0, # of connection points: 2
#     Edge 27, Type (0, 0), BuildingBlock: EZIPEK_clean_linker_0, # of connection points: 2
#     Edge 28, Type (0, 0), BuildingBlock: EZIPEK_clean_linker_0, # of connection points: 2
#     Edge 29, Type (0, 0), BuildingBlock: EZIPEK_clean_linker_0, # of connection points: 2
#     Edge 30, Type (0, 0), BuildingBlock: EZIPEK_clean_linker_0, # of connection points: 2
#     Edge 31, Type (0, 0), BuildingBlock: EZIPEK_clean_linker_0, # of connection points: 2
#     Edge 32, Type (0, 0), BuildingBlock: EZIPEK_clean_linker_0, # of connection points: 2
#     Edge 33, Type (0, 0), BuildingBlock: EZIPEK_clean_linker_0, # of connection points: 2
#     Edge 34, Type (0, 0), BuildingBlock: EZIPEK_clean_linker_0, # of connection points: 2
#     Edge 35, Type (0, 0), BuildingBlock: EZIPEK_clean_linker_0, # of connection points: 2
# Relax obj value: 0.326
# Max RMSD: 0.238
# Mean RMSD: 0.238
data_MOF--net-smb--node1-IZENUY_clean_sbu_0--edge1-EZIPEK_clean_linker_0
_symmetry_space_group_name_H-M    P1
_symmetry_Int_Tables_number       1
_symmetry_cell_setting            triclinic
loop_
_symmetry_equiv_pos_as_xyz
'x, y, z'
_cell_length_a     28.770507
_cell_length_b     28.804186
_cell_length_c     21.804694
_cell_angle_alpha  90.528342
_cell_angle_beta   89.627262
_cell_angle_gamma 119.76871
loop_
_atom_site_label
_atom_site_type_symbol
_atom_site_fract_x
_atom_site_fract_y
_atom_site_fract_z
_atom_type_partial_charge
Fe0 Fe 0.42264 0.19989 0.94241 0.0
Fe1 Fe 0.3474 0.16789 0.05525 0.0
O2 O 0.41301 0.19714 0.02317 0.0
Fe3 Fe 0.46944 0.22405 0.07148 0.0
O4 O 0.49619 0.28912 0.03794 0.0
O5 O 0.48698 0.26245 0.94226 0.0
O6 O 0.391 0.2402 0.93425 0.0
C7 C 0.34379 0.22598 0.95074 0.0
C8 C 0.49619 0.17278 0.97776 0.0
O9 O 0.32033 0.19029 0.99167 0.0
C10 C 0.40323 0.13377 0.13538 0.0
O11 O 0.36057 0.13794 0.92709 0.0
O12 O 0.32723 0.10367 0.01717 0.0
O13 O 0.50921 0.20646 0.02095 0.0
O14 O 0.45532 0.15982 0.94556 0.0
C15 C 0.4018 0.25617 0.13071 0.0
O16 O 0.36365 0.14078 0.12457 0.0
O17 O 0.44679 0.16063 0.1074 0.0
C18 C 0.33184 0.09789 0.96023 0.0
O19 O 0.36242 0.22994 0.09544 0.0
O20 O 0.44046 0.24704 0.13154 0.0
C21 C 0.50672 0.29926 0.98201 0.0
Fe22 Fe 0.83645 0.1743 0.05889 0.0
Fe23 Fe 0.76645 0.22618 0.0791 0.0
O24 O 0.79855 0.20223 0.02905 0.0
Fe25 Fe 0.79175 0.20547 0.94878 0.0
O26 O 0.75983 0.13339 0.94206 0.0
O27 O 0.81972 0.12519 0.99551 0.0
O28 O 0.77883 0.1229 0.10025 0.0
C29 C 0.75043 0.13206 0.13735 0.0
C30 C 0.90012 0.23026 0.96231 0.0
O31 O 0.75296 0.17709 0.13919 0.0
C32 C 0.80707 0.30271 0.98512 0.0
O33 O 0.86012 0.21877 0.12716 0.0
O34 O 0.82918 0.2742 0.11345 0.0
O35 O 0.85849 0.21475 0.92991 0.0
O36 O 0.89651 0.22353 0.01959 0.0
C37 C 0.68795 0.17421 0.99274 0.0
O38 O 0.77408 0.27963 0.02815 0.0
O39 O 0.82293 0.27774 0.95118 0.0
C40 C 0.86155 0.26283 0.1384 0.0
O41 O 0.70147 0.17961 0.04829 0.0
O42 O 0.72394 0.19691 0.95239 0.0
C43 C 0.78198 0.10677 0.95652 0.0
Fe44 Fe 0.79457 0.57719 0.95974 0.0
Fe45 Fe 0.83666 0.65952 0.06512 0.0
O46 O 0.80314 0.59192 0.03889 0.0
Fe47 Fe 0.77743 0.53917 0.09182 0.0
O48 O 0.79055 0.49471 0.04308 0.0
O49 O 0.83179 0.54173 0.96167 0.0
O50 O 0.85762 0.63603 0.93887 0.0
C51 C 0.90025 0.66528 0.96857 0.0
C52 C 0.69643 0.49676 1.00959 0.0
O53 O 0.89842 0.67358 0.02547 0.0
C54 C 0.74989 0.6123 0.14239 0.0
O55 O 0.75648 0.61153 0.95252 0.0
O56 O 0.81531 0.68512 0.99922 0.0
O57 O 0.70972 0.51187 0.064 0.0
O58 O 0.73054 0.51476 0.96683 0.0
C59 C 0.87056 0.60643 0.14874 0.0
O60 O 0.7765 0.64941 0.10485 0.0
O61 O 0.75999 0.5747 0.14972 0.0
C62 C 0.77659 0.66099 0.96181 0.0
O63 O 0.864 0.64589 0.13614 0.0
O64 O 0.84278 0.56219 0.12257 0.0
C65 C 0.81931 0.50247 0.99607 0.0
Fe66 Fe 0.08347 0.53764 0.29099 0.0
Fe67 Fe 0.0079 0.49644 0.40327 0.0
O68 O 0.0729 0.53 0.37167 0.0
Fe69 Fe 0.12857 0.55846 0.42052 0.0
O70 O 0.14585 0.6236 0.39204 0.0
O71 O 0.14696 0.60276 0.29619 0.0
O72 O 0.04779 0.57433 0.28535 0.0
C73 C 1.00046 0.55744 0.30387 0.0
C74 C 0.16061 0.51468 0.32296 0.0
O75 O 0.97938 0.52009 0.34339 0.0
C76 C 0.06839 0.46378 0.47743 0.0
O77 O 0.02285 0.47417 0.27177 0.0
O78 O 0.99227 0.43585 0.36116 0.0
O79 O 0.17228 0.54803 0.36641 0.0
O80 O 0.11952 0.50086 0.29095 0.0
C81 C 0.05656 0.5802 0.48388 0.0
O82 O 0.02682 0.46797 0.46872 0.0
O83 O 0.1122 0.49492 0.45191 0.0
C84 C 0.99456 0.43286 0.30367 0.0
O85 O 0.01856 0.55478 0.44713 0.0
O86 O 0.09635 0.57325 0.48411 0.0
C87 C 0.16407 0.63728 0.33918 0.0
Fe88 Fe 0.45218 0.5386 0.27177 0.0
Fe89 Fe 0.49751 0.50759 0.38277 0.0
O90 O 0.46028 0.53663 0.35271 0.0
Fe91 Fe 0.43139 0.56442 0.40289 0.0
O92 O 0.37248 0.54487 0.35493 0.0
O93 O 0.37956 0.49869 0.27791 0.0
O94 O 0.45293 0.47697 0.25469 0.0
C95 C 0.44475 0.43753 0.28688 0.0
C96 C 0.46714 0.63838 0.31057 0.0
O97 O 0.45473 0.44314 0.34383 0.0
C98 C 0.53247 0.59697 0.45907 0.0
O99 O 0.52402 0.57861 0.26029 0.0
O100 O 0.54658 0.53107 0.31919 0.0
O101 O 0.4675 0.62904 0.36669 0.0
O102 O 0.45017 0.6011 0.27151 0.0
C103 C 0.40938 0.47362 0.46656 0.0
O104 O 0.54425 0.56946 0.42342 0.0
O105 O 0.48518 0.58945 0.46046 0.0
C106 C 0.55765 0.56529 0.27707 0.0
O107 O 0.45468 0.47907 0.4519 0.0
O108 O 0.39243 0.50202 0.44284 0.0
C109 C 0.35169 0.5114 0.31156 0.0
Fe110 Fe 0.45421 0.87302 0.41591 0.0
Fe111 Fe 0.46394 0.91642 0.2852 0.0
O112 O 0.47468 0.92783 0.36572 0.0
Fe113 Fe 0.50635 0.99432 0.39656 0.0
O114 O 0.53951 0.9808 0.4617 0.0
O115 O 0.5206 0.89822 0.44396 0.0
O116 O 0.46942 0.83351 0.36259 0.0
C117 C 0.49327 0.84205 0.31182 0.0
C118 C 0.42447 0.94056 0.4791 0.0
O119 O 0.50094 0.88079 0.27914 0.0
C120 C 0.44409 0.99984 0.29755 0.0
O121 O 0.3856 0.84188 0.39095 0.0
O122 O 0.39974 0.85345 0.29154 0.0
O123 O 0.44728 0.97913 0.44237 0.0
O124 O 0.43536 0.90306 0.47909 0.0
C125 C 0.56888 0.00711 0.2941 0.0
O126 O 0.42636 0.95183 0.28124 0.0
O127 O 0.48004 0.02079 0.33827 0.0
C128 C 0.36943 0.82966 0.33654 0.0
O129 O 0.52643 0.97565 0.26577 0.0
O130 O 0.56705 0.01429 0.35128 0.0
C131 C 0.54834 0.9423 0.47014 0.0
Fe132 Fe 0.76793 0.87535 0.61368 0.0
Fe133 Fe 0.69024 0.83711 0.72541 0.0
O134 O 0.75698 0.86927 0.69468 0.0
Fe135 Fe 0.81359 0.89598 0.74493 0.0
O136 O 0.85664 0.95304 0.69653 0.0
O137 O 0.80691 0.9482 0.61829 0.0
O138 O 0.71153 0.88408 0.59714 0.0
C139 C 0.67716 0.89004 0.62658 0.0
C140 C 0.84992 0.85491 0.65504 0.0
O141 O 0.67058 0.87946 0.68319 0.0
C142 C 0.73966 0.80041 0.80486 0.0
O143 O 0.72791 0.80274 0.60094 0.0
O144 O 0.66199 0.78555 0.66556 0.0
O145 O 0.83879 0.85492 0.71104 0.0
O146 O 0.82842 0.86917 0.61456 0.0
C147 C 0.74905 0.92754 0.80431 0.0
O148 O 0.70145 0.78998 0.76911 0.0
O149 O 0.78196 0.84515 0.80421 0.0
C150 C 0.68052 0.77231 0.6201 0.0
O151 O 0.70709 0.88387 0.79115 0.0
O152 O 0.79404 0.93937 0.78246 0.0
C153 C 0.84658 0.97494 0.65263 0.0
Fe154 Fe 0.14268 0.87132 0.6308 0.0
Fe155 Fe 0.17385 0.82154 0.73628 0.0
O156 O 0.14371 0.85862 0.70998 0.0
Fe157 Fe 0.11462 0.88289 0.7633 0.0
O158 O 0.06144 0.87598 0.71134 0.0
O159 O 0.07035 0.83839 0.62824 0.0
O160 O 0.13508 0.80653 0.60761 0.0
C161 C 0.11387 0.76277 0.63685 0.0
C162 C 0.159 0.96812 0.68877 0.0
O163 O 0.12626 0.7631 0.69251 0.0
C164 C 0.21005 0.90355 0.82037 0.0
O165 O 0.21515 0.90491 0.62582 0.0
O166 O 0.22432 0.84315 0.67375 0.0
O167 O 0.15901 0.95082 0.74126 0.0
O168 O 0.14816 0.93783 0.64204 0.0
C169 C 0.08167 0.78573 0.81233 0.0
O170 O 0.22289 0.87937 0.78089 0.0
O171 O 0.16214 0.89354 0.82488 0.0
C172 C 0.2425 0.88297 0.63796 0.0
O173 O 0.12805 0.79162 0.80344 0.0
O174 O 0.06874 0.81706 0.78833 0.0
C175 C 0.04228 0.84962 0.66257 0.0
Fe176 Fe 0.17175 0.32957 0.73124 0.0
Fe177 Fe 0.11558 0.21059 0.75866 0.0
O178 O 0.14104 0.26254 0.7052 0.0
Fe179 Fe 0.13832 0.24705 0.62594 0.0
O180 O 0.21094 0.28414 0.62042 0.0
O181 O 0.22092 0.35643 0.66708 0.0
O182 O 0.22215 0.32231 0.77396 0.0
C183 C 0.21136 0.286 0.81266 0.0
C184 C 0.11645 0.3331 0.63215 0.0
O185 O 0.16402 0.24823 0.81881 0.0
C186 C 0.03957 0.17003 0.66123 0.0
O187 O 0.12699 0.31431 0.79961 0.0
O188 O 0.06833 0.22876 0.78806 0.0
O189 O 0.13204 0.3052 0.60219 0.0
O190 O 0.12375 0.34014 0.6893 0.0
C191 C 0.15877 0.16972 0.68147 0.0
O192 O 0.06103 0.16298 0.70807 0.0
O193 O 0.06587 0.20912 0.62634 0.0
C194 C 0.08118 0.27385 0.81069 0.0
O195 O 0.16318 0.1912 0.73268 0.0
O196 O 0.14212 0.18482 0.63622 0.0
C197 C 0.23818 0.33388 0.63017 0.0
C198 C 0.27982 0.04542 0.86879 0.0
C199 C 0.29944 0.04519 0.92825 0.0
C200 C 0.26376 0.94815 0.91631 0.0
C201 C 0.25102 0.95126 0.85427 0.0
N202 N 0.26697 0.00805 0.76713 0.0
N203 N 0.32023 0.99647 1.00299 0.0
C204 C 0.26598 0.00168 0.82905 0.0
C205 C 0.29427 0.9965 0.95085 0.0
N206 N 0.27097 0.08575 0.85129 0.0
N207 N 0.24671 0.89936 0.94214 0.0
H208 H 0.34512 0.03115 0.02764 0.0
H209 H 0.32118 0.96279 0.01829 0.0
H210 H 0.22688 0.86387 0.91682 0.0
H211 H 0.24994 0.89434 0.98889 0.0
H212 H 0.25341 0.08534 0.80941 0.0
H213 H 0.27414 0.1152 0.88195 0.0
H214 H 0.28114 0.04539 0.74686 0.0
H215 H 0.25839 0.97673 0.73664 0.0
C216 C 0.98179 0.22161 0.93983 0.0
C217 C 0.95273 0.24903 0.93109 0.0
C218 C 0.01541 0.30195 0.84887 0.0
C219 C 0.04471 0.27507 0.85875 0.0
N220 N 0.06617 0.22334 0.92712 0.0
N221 N 0.95107 0.32549 0.88959 0.0
C222 C 0.03128 0.23964 0.90889 0.0
C223 C 0.97245 0.29247 0.88936 0.0
N224 N 0.96077 0.17605 0.97408 0.0
N225 N 0.02694 0.33467 0.79945 0.0
H226 H 0.92126 0.32087 0.9204 0.0
H227 H 0.96672 0.3605 0.86411 0.0
H228 H 0.0593 0.34407 0.77046 0.0
H229 H 0.00277 0.35006 0.78543 0.0
H230 H 0.9777 0.15142 0.9757 0.0
H231 H 0.92382 0.15963 0.99608 0.0
H232 H 0.06087 0.20141 0.96687 0.0
H233 H 0.10343 0.23726 0.90646 0.0
C234 C 0.75483 0.72274 0.81744 0.0
C235 C 0.7388 0.75777 0.84356 0.0
C236 C 0.7433 0.7267 0.94682 0.0
C237 C 0.7607 0.69227 0.92097 0.0
N238 N 0.77447 0.65103 0.83004 0.0
N239 N 0.70488 0.7842 0.92967 0.0
C240 C 0.76319 0.68784 0.85581 0.0
C241 C 0.72924 0.75711 0.90738 0.0
N242 N 0.76511 0.72507 0.7559 0.0
N243 N 0.74022 0.73036 1.00911 0.0
H244 H 0.69246 0.80481 0.90106 0.0
H245 H 0.69244 0.7824 0.97491 0.0
H246 H 0.74563 0.70567 0.03931 0.0
H247 H 0.73435 0.75919 0.03126 0.0
H248 H 0.78364 0.70604 0.73472 0.0
H249 H 0.75748 0.74845 0.72592 0.0
H250 H 0.76753 0.63947 0.78413 0.0
H251 H 0.78912 0.63008 0.85412 0.0
C252 C 0.98715 0.7211 0.82934 0.0
C253 C 0.03989 0.7434 0.85158 0.0
C254 C 0.00183 0.70605 0.95269 0.0
C255 C 0.95054 0.69569 0.93205 0.0
N256 N 0.90331 0.71507 0.8537 0.0
N257 N 0.09806 0.76071 0.93864 0.0
C258 C 0.94555 0.70911 0.87104 0.0
C259 C 0.04775 0.73669 0.91455 0.0
N260 N 0.97705 0.71407 0.76803 0.0
N261 N 0.00683 0.68555 1.00681 0.0
H262 H 0.13237 0.78214 0.91212 0.0
H263 H 0.10521 0.76173 0.98557 0.0
H264 H 0.97417 0.66091 0.03431 0.0
H265 H 0.04278 0.68863 0.02102 0.0
H266 H 0.93802 0.69376 0.7511 0.0
H267 H 0.00731 0.72323 0.73582 0.0
H268 H 0.90033 0.7277 0.80991 0.0
H269 H 0.87613 0.71533 0.88536 0.0
C270 C 0.25382 0.28491 0.91261 0.0
C271 C 0.25385 0.28284 0.84757 0.0
C272 C 0.31209 0.24321 0.85003 0.0
C273 C 0.31363 0.24672 0.91536 0.0
N274 N 0.29683 0.28337 1.00725 0.0
N275 N 0.29275 0.27174 0.75408 0.0
C276 C 0.28754 0.27113 0.94627 0.0
C277 C 0.28659 0.2663 0.81631 0.0
N278 N 0.22102 0.29955 0.94221 0.0
N279 N 0.3317 0.21467 0.81988 0.0
H280 H 0.2733 0.28642 0.72709 0.0
H281 H 0.32099 0.26633 0.72974 0.0
H282 H 0.34998 0.19599 0.84165 0.0
H283 H 0.32513 0.20475 0.77348 0.0
H284 H 0.21365 0.29518 0.98922 0.0
H285 H 0.19918 0.31394 0.91899 0.0
H286 H 0.28317 0.30575 0.03114 0.0
H287 H 0.32275 0.27575 0.03273 0.0
C288 C 0.74437 0.01073 0.8204 0.0
C289 C 0.74697 0.96726 0.84624 0.0
C290 C 0.76467 0.01131 0.94717 0.0
C291 C 0.76978 0.05818 0.91928 0.0
N292 N 0.77955 0.10581 0.82448 0.0
N293 N 0.76676 0.92874 0.93279 0.0
C294 C 0.76303 0.05869 0.85465 0.0
C295 C 0.75887 0.96811 0.90937 0.0
N296 N 0.72627 0.00719 0.76191 0.0
N297 N 0.76414 0.00723 1.00955 0.0
H298 H 0.76203 0.89623 0.90662 0.0
H299 H 0.78172 0.93038 0.97662 0.0
H300 H 0.76876 0.0377 0.03918 0.0
H301 H 0.75451 0.97179 0.03201 0.0
H302 H 0.71754 0.03521 0.74332 0.0
H303 H 0.71732 0.97466 0.73338 0.0
H304 H 0.78 0.1085 0.77683 0.0
H305 H 0.79977 0.14316 0.8457 0.0
C306 C 0.95275 0.32547 0.18246 0.0
C307 C 0.89618 0.29881 0.18798 0.0
C308 C 0.90371 0.35415 0.27784 0.0
C309 C 0.96035 0.38126 0.27154 0.0
N310 N 0.03786 0.37907 0.23332 0.0
N311 N 0.81884 0.27689 0.25111 0.0
C312 C 0.98458 0.36258 0.22859 0.0
C313 C 0.87203 0.30968 0.23904 0.0
N314 N 0.97623 0.31764 0.13183 0.0
N315 N 0.87967 0.3722 0.31837 0.0
H316 H 0.79426 0.24414 0.22367 0.0
H317 H 0.80027 0.27885 0.29143 0.0
H318 H 0.90053 0.40351 0.34918 0.0
H319 H 0.83871 0.35868 0.31849 0.0
H320 H 0.01694 0.34083 0.12212 0.0
H321 H 0.95448 0.29076 0.09706 0.0
H322 H 0.05709 0.36356 0.20646 0.0
H323 H 0.06105 0.40319 0.26948 0.0
C324 C 0.60651 0.57544 0.17677 0.0
C325 C 0.6083 0.58433 0.2413 0.0
C326 C 0.70516 0.6165 0.24038 0.0
C327 C 0.70348 0.6097 0.17578 0.0
N328 N 0.65504 0.59378 0.08081 0.0
N329 N 0.66139 0.62561 0.33152 0.0
C330 C 0.65505 0.59328 0.14349 0.0
C331 C 0.65832 0.60846 0.27227 0.0
N332 N 0.55845 0.54636 0.14752 0.0
N333 N 0.75135 0.63 0.27137 0.0
H334 H 0.62837 0.62249 0.35514 0.0
H335 H 0.69733 0.64779 0.355 0.0
H336 H 0.78714 0.63923 0.24916 0.0
H337 H 0.75345 0.62918 0.31898 0.0
H338 H 0.55497 0.53263 0.1025 0.0
H339 H 0.52156 0.53105 0.16938 0.0
H340 H 0.62246 0.5888 0.0551 0.0
H341 H 0.68888 0.60361 0.05431 0.0
C342 C 0.36569 0.04619 0.19607 0.0
C343 C 0.40444 0.10095 0.18774 0.0
C344 C 0.46828 0.08869 0.24889 0.0
C345 C 0.42894 0.0349 0.26201 0.0
N346 N 0.33474 0.96876 0.26191 0.0
N347 N 0.48286 0.17711 0.22989 0.0
C348 C 0.37581 0.0154 0.2398 0.0
C349 C 0.45219 0.12303 0.2226 0.0
N350 N 0.32036 0.0229 0.16133 0.0
N351 N 0.5217 0.10656 0.25606 0.0
H352 H 0.47078 0.20341 0.21369 0.0
H353 H 0.51639 0.19466 0.25835 0.0
H354 H 0.5371 0.08182 0.26704 0.0
H355 H 0.55113 0.14452 0.24211 0.0
H356 H 0.29399 0.98177 0.16078 0.0
H357 H 0.31092 0.0442 0.13027 0.0
H358 H 0.2948 0.95483 0.25061 0.0
H359 H 0.34001 0.94755 0.29708 0.0
C360 C 0.71666 0.10039 0.24385 0.0
C361 C 0.71226 0.09038 0.17988 0.0
C362 C 0.61672 0.03108 0.19075 0.0
C363 C 0.61987 0.03731 0.25642 0.0
N364 N 0.68094 0.06781 0.3444 0.0
N365 N 0.66238 0.03021 0.09769 0.0
C366 C 0.67215 0.06878 0.28303 0.0
C367 C 0.66412 0.04895 0.15583 0.0
N368 N 0.76362 0.14034 0.26728 0.0
N369 N 0.5696 0.014 0.16001 0.0
H370 H 0.6958 0.04525 0.06922 0.0
H371 H 0.62878 0.99651 0.08025 0.0
H372 H 0.53826 0.01831 0.17786 0.0
H373 H 0.56544 0.00684 0.11291 0.0
H374 H 0.76728 0.15489 0.31198 0.0
H375 H 0.79825 0.16048 0.24069 0.0
H376 H 0.71922 0.08577 0.36324 0.0
H377 H 0.65204 0.04501 0.37645 0.0
C378 C 0.91139 0.5398 0.26171 0.0
C379 C 0.96662 0.57597 0.27172 0.0
C380 C 0.95854 0.64156 0.20701 0.0
C381 C 0.90273 0.6059 0.20186 0.0
N382 N 0.82507 0.53242 0.24843 0.0
N383 N 0.03814 0.6684 0.26795 0.0
C384 C 0.87898 0.55941 0.23849 0.0
C385 C 0.98895 0.62927 0.24887 0.0
N386 N 0.8905 0.48591 0.26716 0.0
N387 N 0.98302 0.68565 0.17067 0.0
H388 H 0.06024 0.66199 0.30101 0.0
H389 H 0.05407 0.70844 0.25612 0.0
H390 H 0.96187 0.69658 0.14105 0.0
H391 H 0.02452 0.70939 0.16759 0.0
H392 H 0.85075 0.4585 0.2565 0.0
H393 H 0.91445 0.46851 0.27164 0.0
H394 H 0.80663 0.49949 0.27746 0.0
H395 H 0.80055 0.54716 0.23354 0.0
C396 C 0.45168 0.35272 0.15932 0.0
C397 C 0.40664 0.30172 0.16908 0.0
C398 C 0.38194 0.34024 0.25594 0.0
C399 C 0.43297 0.38752 0.25294 0.0
N400 N 0.52135 0.43193 0.20765 0.0
N401 N 0.33006 0.24525 0.23177 0.0
C402 C 0.46953 0.39136 0.20673 0.0
C403 C 0.37198 0.29474 0.21912 0.0
N404 N 0.4747 0.36597 0.10277 0.0
N405 N 0.34199 0.33987 0.29021 0.0
H406 H 0.32134 0.2117 0.20499 0.0
H407 H 0.30654 0.23728 0.27107 0.0
H408 H 0.34685 0.37394 0.31309 0.0
H409 H 0.30285 0.30791 0.29017 0.0
H410 H 0.50609 0.40402 0.0923 0.0
H411 H 0.45582 0.34165 0.06488 0.0
H412 H 0.55002 0.43412 0.17645 0.0
H413 H 0.53667 0.45945 0.24359 0.0
C414 C 0.64991 0.67989 0.57199 0.0
C415 C 0.64222 0.72461 0.58241 0.0
C416 C 0.57336 0.68984 0.5036 0.0
C417 C 0.57435 0.64129 0.49876 0.0
N418 N 0.61001 0.58715 0.53783 0.0
N419 N 0.58059 0.75902 0.57088 0.0
C420 C 0.61197 0.63541 0.53536 0.0
C421 C 0.59852 0.72505 0.55312 0.0
N422 N 0.69242 0.67919 0.59824 0.0
N423 N 0.55307 0.7055 0.45724 0.0
H424 H 0.59656 0.78626 0.60679 0.0
H425 H 0.546 0.75651 0.55249 0.0
H426 H 0.5456 0.68624 0.41524 0.0
H427 H 0.55439 0.74237 0.45662 0.0
H428 H 0.70368 0.65086 0.58734 0.0
H429 H 0.71788 0.7088 0.62881 0.0
H430 H 0.63302 0.57915 0.56804 0.0
H431 H 0.58196 0.55358 0.51368 0.0
C432 C 0.38735 0.95506 0.57853 0.0
C433 C 0.37902 0.93414 0.51793 0.0
C434 C 0.28431 0.8747 0.54021 0.0
C435 C 0.29101 0.89747 0.59974 0.0
N436 N 0.34812 0.96153 0.67537 0.0
N437 N 0.3173 0.88762 0.43595 0.0
C438 C 0.34244 0.93854 0.61885 0.0
C439 C 0.3267 0.89827 0.49721 0.0
N440 N 0.43819 0.99031 0.59731 0.0
N441 N 0.23856 0.82857 0.52564 0.0
H442 H 0.34728 0.90685 0.4031 0.0
H443 H 0.27904 0.86496 0.41753 0.0
H444 H 0.20928 0.80696 0.55809 0.0
H445 H 0.23333 0.80794 0.48443 0.0
H446 H 0.44857 0.00282 0.64255 0.0
H447 H 0.47049 0.00642 0.56689 0.0
H448 H 0.38281 0.99541 0.6901 0.0
H449 H 0.31704 0.94716 0.70732 0.0
C450 C 0.05224 0.34066 0.56039 0.0
C451 C 0.09839 0.36574 0.59833 0.0
C452 C 0.10953 0.45296 0.57219 0.0
C453 C 0.07023 0.42874 0.52567 0.0
N454 N 0.00573 0.34898 0.4725 0.0
N455 N 0.17608 0.44735 0.63305 0.0
C456 C 0.04147 0.3723 0.51928 0.0
C457 C 0.12817 0.42232 0.60282 0.0
N458 N 0.01786 0.28696 0.565 0.0
N459 N 0.12891 0.50543 0.58747 0.0
H460 H 0.19262 0.4271 0.65506 0.0
H461 H 0.20211 0.48849 0.63115 0.0
H462 H 0.11528 0.52879 0.56682 0.0
H463 H 0.15363 0.52376 0.62515 0.0
H464 H 0.98117 0.2672 0.54246 0.0
H465 H 0.02343 0.26331 0.59664 0.0
H466 H 0.98848 0.30858 0.4611 0.0
H467 H 0.9958 0.37074 0.44268 0.0
C468 C 0.33319 0.41158 0.61551 0.0
C469 C 0.28625 0.36724 0.59054 0.0
C470 C 0.33267 0.38363 0.49145 0.0
C471 C 0.37418 0.43329 0.51277 0.0
N472 N 0.4135 0.49668 0.59552 0.0
N473 N 0.23848 0.3207 0.49795 0.0
C474 C 0.37443 0.44788 0.57511 0.0
C475 C 0.28526 0.35543 0.52672 0.0
N476 N 0.33942 0.41804 0.67759 0.0
N477 N 0.33855 0.36325 0.43726 0.0
H478 H 0.20121 0.30325 0.51934 0.0
H479 H 0.23584 0.31492 0.45055 0.0
H480 H 0.37432 0.38219 0.41267 0.0
H481 H 0.31107 0.32497 0.42164 0.0
H482 H 0.37471 0.44688 0.69824 0.0
H483 H 0.31157 0.39102 0.70851 0.0
H484 H 0.41247 0.51224 0.63851 0.0
H485 H 0.44556 0.52268 0.56789 0.0
C486 C 0.58257 0.94402 0.57709 0.0
C487 C 0.58989 0.94532 0.51264 0.0
C488 C 0.64354 0.90224 0.5242 0.0
C489 C 0.64311 0.90663 0.58987 0.0
N490 N 0.61409 0.9394 0.67777 0.0
N491 N 0.64032 0.94023 0.42737 0.0
C492 C 0.61358 0.93013 0.61621 0.0
C493 C 0.62592 0.93062 0.48769 0.0
N494 N 0.54357 0.95272 0.60101 0.0
N495 N 0.65516 0.86671 0.49558 0.0
H496 H 0.62527 0.9581 0.39825 0.0
H497 H 0.67054 0.93462 0.4083 0.0
H498 H 0.65957 0.83752 0.51808 0.0
H499 H 0.65199 0.86027 0.44833 0.0
H500 H 0.53096 0.9451 0.64655 0.0
H501 H 0.52141 0.96431 0.57409 0.0
H502 H 0.60035 0.96381 0.6965 0.0
H503 H 0.62946 0.92506 0.71061 0.0
C504 C 0.0574 0.61592 0.58945 0.0
C505 C 0.05739 0.62171 0.52491 0.0
C506 C 0.07117 0.71184 0.53866 0.0
C507 C 0.08306 0.71075 0.60174 0.0
N508 N 0.05895 0.65298 0.6902 0.0
N509 N 0.06775 0.67656 0.43711 0.0
C510 C 0.06803 0.66016 0.62849 0.0
C511 C 0.06441 0.6697 0.49927 0.0
N512 N 0.04803 0.56823 0.6131 0.0
N513 N 0.06172 0.75072 0.51717 0.0
H514 H 0.06226 0.64658 0.40608 0.0
H515 H 0.08021 0.71345 0.41658 0.0
H516 H 0.05821 0.77759 0.54615 0.0
H517 H 0.04866 0.75083 0.47273 0.0
H518 H 0.05495 0.56293 0.65859 0.0
H519 H 0.03492 0.53388 0.5861 0.0
H520 H 0.04509 0.61652 0.71212 0.0
H521 H 0.05768 0.68134 0.71887 0.0
C522 C 0.53884 0.12314 1.01505 0.0
C523 C 0.53176 0.15051 0.96619 0.0
C524 C 0.61421 0.16222 0.91933 0.0
C525 C 0.62961 0.15181 0.97722 0.0
N526 N 0.59983 0.10912 0.07594 0.0
N527 N 0.5593 0.19162 0.86704 0.0
C528 C 0.58946 0.12728 0.02339 0.0
C529 C 0.56785 0.1678 0.91611 0.0
N530 N 0.49669 0.09303 0.05309 0.0
N531 N 0.64209 0.16446 0.86754 0.0
H532 H 0.52469 0.19439 0.86259 0.0
H533 H 0.58776 0.21085 0.83273 0.0
H534 H 0.67151 0.15336 0.86727 0.0
H535 H 0.6306 0.16918 0.82387 0.0
H536 H 0.49781 0.06887 0.08766 0.0
H537 H 0.45871 0.08812 0.04533 0.0
H538 H 0.57775 0.1032 0.11605 0.0
H539 H 0.63054 0.10017 0.07869 0.0
C540 C 0.79496 0.42086 0.93335 0.0
C541 C 0.82969 0.45921 0.97683 0.0
C542 C 0.86395 0.3999 1.00589 0.0
C543 C 0.82217 0.3584 0.9715 0.0
N544 N 0.74884 0.32786 0.90059 0.0
N545 N 0.90005 0.48845 0.05151 0.0
C546 C 0.7886 0.36872 0.93359 0.0
C547 C 0.86578 0.44999 1.0115 0.0
N548 N 0.76757 0.43414 0.89269 0.0
N549 N 0.9012 0.39082 0.03352 0.0
H550 H 0.90424 0.52657 0.05359 0.0
H551 H 0.92305 0.4824 0.08367 0.0
H552 H 0.90056 0.35437 0.02939 0.0
H553 H 0.9349 0.42017 0.05612 0.0
H554 H 0.7447 0.40943 0.85682 0.0
H555 H 0.77162 0.47209 0.89112 0.0
H556 H 0.71834 0.33056 0.87844 0.0
H557 H 0.74503 0.28997 0.89745 0.0
C558 C 0.64578 0.39788 1.00489 0.0
C559 C 0.64602 0.44687 0.9984 0.0
C560 C 0.55282 0.39783 0.96465 0.0
C561 C 0.55503 0.34991 0.96784 0.0
N562 N 0.60962 0.30822 0.96581 0.0
N563 N 0.60321 0.49499 0.96134 0.0
C564 C 0.60395 0.35156 0.97852 0.0
C565 C 0.60064 0.4475 0.97432 0.0
N566 N 0.68262 0.3943 0.04052 0.0
N567 N 0.50501 0.39547 0.95401 0.0
H568 H 0.63757 0.53178 0.96921 0.0
H569 H 0.57265 0.49768 0.93926 0.0
H570 H 0.47033 0.35944 0.94395 0.0
H571 H 0.49946 0.42848 0.95768 0.0
H572 H 0.68217 0.3584 0.0482 0.0
H573 H 0.70692 0.42457 0.07086 0.0
H574 H 0.64601 0.30881 0.96993 0.0
H575 H 0.57971 0.27465 0.94355 0.0
C576 C 0.28236 0.51796 0.25021 0.0
C577 C 0.29474 0.49268 0.29765 0.0
C578 C 0.20642 0.46236 0.34363 0.0
C579 C 0.2001 0.49822 0.30522 0.0
N580 N 0.22997 0.55871 0.21957 0.0
N581 N 0.26693 0.43423 0.38449 0.0
C582 C 0.23677 0.5246 0.2567 0.0
C583 C 0.25566 0.46197 0.34226 0.0
N584 N 0.31477 0.53643 0.19983 0.0
N585 N 0.16526 0.42903 0.38117 0.0
H586 H 0.30115 0.43051 0.38112 0.0
H587 H 0.24344 0.41602 0.42292 0.0
H588 H 0.12836 0.42776 0.38097 0.0
H589 H 0.16568 0.39962 0.40813 0.0
H590 H 0.30576 0.55154 0.16131 0.0
H591 H 0.34846 0.53213 0.19438 0.0
H592 H 0.2589 0.58452 0.18877 0.0
H593 H 0.19618 0.56315 0.22168 0.0
C594 C 0.5402 0.78895 0.30456 0.0
C595 C 0.49843 0.79757 0.28512 0.0
C596 C 0.43979 0.70218 0.2682 0.0
C597 C 0.4802 0.69274 0.29174 0.0
N598 N 0.57449 0.72714 0.30807 0.0
N599 N 0.41963 0.76678 0.22328 0.0
C600 C 0.53254 0.73628 0.30189 0.0
C601 C 0.45232 0.75554 0.25742 0.0
N602 N 0.58605 0.8307 0.32745 0.0
N603 N 0.38858 0.6611 0.26088 0.0
H604 H 0.42956 0.80603 0.21358 0.0
H605 H 0.38676 0.73775 0.19904 0.0
H606 H 0.37713 0.62164 0.27095 0.0
H607 H 0.35656 0.66686 0.25018 0.0
H608 H 0.61607 0.82616 0.34808 0.0
H609 H 0.59288 0.86984 0.32673 0.0
H610 H 0.61421 0.75763 0.31115 0.0
H611 H 0.5696 0.68876 0.30491 0.0
C612 C 0.27464 0.77713 0.29464 0.0
C613 C 0.31832 0.77915 0.32677 0.0
C614 C 0.26028 0.69128 0.36961 0.0
C615 C 0.21674 0.68631 0.33392 0.0
N616 N 0.18472 0.72133 0.2546 0.0
N617 N 0.35472 0.72731 0.37034 0.0
C618 C 0.22471 0.72811 0.29339 0.0
C619 C 0.31173 0.73299 0.35668 0.0
N620 N 0.2802 0.82209 0.26744 0.0
N621 N 0.25405 0.65755 0.41675 0.0
H622 H 0.39265 0.75437 0.35553 0.0
H623 H 0.35143 0.69189 0.38677 0.0
H624 H 0.21842 0.62526 0.43112 0.0
H625 H 0.28505 0.66539 0.44709 0.0
H626 H 0.24825 0.82477 0.24921 0.0
H627 H 0.31657 0.85782 0.26631 0.0
H628 H 0.18985 0.74841 0.2203 0.0
H629 H 0.14738 0.68664 0.2539 0.0
C630 C 0.94308 0.7973 0.64249 0.0
C631 C 0.99252 0.84549 0.63856 0.0
C632 C 0.94719 0.89681 0.62619 0.0
C633 C 0.89748 0.84999 0.63843 0.0
N634 N 0.84579 0.75415 0.63694 0.0
N635 N 0.03988 0.93367 0.59655 0.0
C636 C 0.89463 0.79943 0.6398 0.0
C637 C 0.99403 0.89305 0.62098 0.0
N638 N 0.94299 0.7502 0.64852 0.0
N639 N 0.95017 0.94525 0.62136 0.0
H640 H 0.0725 0.92875 0.58604 0.0
H641 H 0.04296 0.96854 0.57882 0.0
H642 H 0.91637 0.94873 0.61703 0.0
H643 H 0.98592 0.98161 0.62281 0.0
H644 H 0.90873 0.71346 0.65569 0.0
H645 H 0.97823 0.74831 0.64553 0.0
H646 H 0.84005 0.71557 0.63502 0.0
H647 H 0.8107 0.75588 0.6318 0.0
C648 C 0.12304 0.02773 0.72248 0.0
C649 C 0.15903 0.01966 0.68479 0.0
C650 C 0.19005 0.1079 0.63811 0.0
C651 C 0.15781 0.1176 0.68029 0.0
N652 N 0.09952 0.08774 0.77065 0.0
N653 N 0.23193 0.05469 0.61235 0.0
C654 C 0.12616 0.078 0.72446 0.0
C655 C 0.19364 0.06029 0.6436 0.0
N656 N 0.08335 0.9869 0.75535 0.0
N657 N 0.21798 0.14453 0.5936 0.0
H658 H 0.2364 0.02105 0.61637 0.0
H659 H 0.26212 0.08494 0.58649 0.0
H660 H 0.21954 0.18138 0.59083 0.0
H661 H 0.23718 0.13724 0.55725 0.0
H662 H 0.04927 0.98762 0.77066 0.0
H663 H 0.08245 0.9518 0.76676 0.0
H664 H 0.08613 0.06449 0.81014 0.0
H665 H 0.09211 0.11932 0.77288 0.0
C666 C 0.8941 0.07113 0.68521 0.0
C667 C 0.88588 0.03213 0.63993 0.0
C668 C 0.97451 0.09169 0.59659 0.0
C669 C 0.98428 0.1285 0.64525 0.0
N670 N 0.94838 0.16252 0.72186 0.0
N671 N 0.90893 0.01393 0.53968 0.0
C672 C 0.94221 0.12121 0.685 0.0
C673 C 0.92284 0.04557 0.5909 0.0
N674 N 0.85615 0.05939 0.72923 0.0
N675 N 0.01537 0.09873 0.5585 0.0
H676 H 0.87149 0.97982 0.53469 0.0
H677 H 0.93252 0.02406 0.50028 0.0
H678 H 0.05337 0.13245 0.56038 0.0
H679 H 0.01246 0.06972 0.52743 0.0
H680 H 0.86199 0.08244 0.76852 0.0
H681 H 0.81878 0.02515 0.72611 0.0
H682 H 0.91803 0.16134 0.74922 0.0
H683 H 0.98266 0.2002 0.72021 0.0
loop_
_geom_bond_atom_site_label_1
_geom_bond_atom_site_label_2
_geom_bond_distance
_geom_bond_site_symmetry_2
_ccdc_geom_bond_type
Fe0 O2 1.918 1_556 S
Fe0 O5 1.997 . S
Fe0 O6 2.002 . S
Fe0 O11 1.976 . S
Fe0 O14 1.996 . S
Fe1 O2 1.918 . S
Fe1 O9 1.997 1_554 S
Fe1 O12 1.996 1_554 S
Fe1 O16 1.976 . S
Fe1 O19 2.002 . S
O2 Fe0 1.918 1_554 S
O2 Fe1 1.918 . S
O2 Fe3 1.918 . S
Fe3 O2 1.918 . S
Fe3 O4 2.002 . S
Fe3 O13 1.976 . S
Fe3 O17 1.996 . S
Fe3 O20 1.997 . S
O4 Fe3 2.002 . S
O4 C21 1.295 1_554 S
O5 Fe0 1.997 . S
O5 C21 1.235 . S
O6 Fe0 2.002 . S
O6 C7 1.295 . S
C7 O6 1.295 . S
C7 O9 1.235 . S
C8 O13 1.287 1_556 S
C8 O14 1.255 . S
O9 Fe1 1.997 1_556 S
O9 C7 1.235 . S
C10 O16 1.287 . S
C10 O17 1.255 . S
O11 Fe0 1.976 . S
O11 C18 1.287 . S
O12 Fe1 1.996 1_556 S
O12 C18 1.255 . S
O13 Fe3 1.976 . S
O13 C8 1.287 1_554 S
O14 Fe0 1.996 . S
O14 C8 1.255 . S
C15 O19 1.295 . S
C15 O20 1.235 . S
O16 Fe1 1.976 . S
O16 C10 1.287 . S
O17 Fe3 1.996 . S
O17 C10 1.255 . S
C18 O11 1.287 . S
C18 O12 1.255 . S
O19 Fe1 2.002 . S
O19 C15 1.295 . S
O20 Fe3 1.997 . S
O20 C15 1.235 . S
C21 O4 1.295 1_556 S
C21 O5 1.235 . S
Fe22 O24 1.918 . S
Fe22 O27 1.997 1_554 S
Fe22 O28 2.002 . S
Fe22 O33 1.976 . S
Fe22 O36 1.996 1_554 S
Fe23 O24 1.918 . S
Fe23 O31 1.997 . S
Fe23 O34 1.996 . S
Fe23 O38 1.976 . S
Fe23 O41 2.002 . S
O24 Fe22 1.918 . S
O24 Fe23 1.918 . S
O24 Fe25 1.918 1_554 S
Fe25 O24 1.918 1_556 S
Fe25 O26 2.002 . S
Fe25 O35 1.976 . S
Fe25 O39 1.996 . S
Fe25 O42 1.997 . S
O26 Fe25 2.002 . S
O26 C43 1.295 . S
O27 Fe22 1.997 1_556 S
O27 C43 1.235 . S
O28 Fe22 2.002 . S
O28 C29 1.295 . S
C29 O28 1.295 . S
C29 O31 1.235 . S
C30 O35 1.287 . S
C30 O36 1.255 . S
O31 Fe23 1.997 . S
O31 C29 1.235 . S
C32 O38 1.287 1_556 S
C32 O39 1.255 . S
O33 Fe22 1.976 . S
O33 C40 1.287 . S
O34 Fe23 1.996 . S
O34 C40 1.255 . S
O35 Fe25 1.976 . S
O35 C30 1.287 . S
O36 Fe22 1.996 1_556 S
O36 C30 1.255 . S
C37 O41 1.295 1_556 S
C37 O42 1.235 . S
O38 Fe23 1.976 . S
O38 C32 1.287 1_554 S
O39 Fe25 1.996 . S
O39 C32 1.255 . S
C40 O33 1.287 . S
C40 O34 1.255 . S
O41 Fe23 2.002 . S
O41 C37 1.295 1_554 S
O42 Fe25 1.997 . S
O42 C37 1.235 . S
C43 O26 1.295 . S
C43 O27 1.235 . S
Fe44 O46 1.918 1_556 S
Fe44 O49 1.997 . S
Fe44 O50 2.002 . S
Fe44 O55 1.976 . S
Fe44 O58 1.996 . S
Fe45 O46 1.918 . S
Fe45 O53 1.997 1_554 S
Fe45 O56 1.996 1_554 S
Fe45 O60 1.976 . S
Fe45 O63 2.002 . S
O46 Fe44 1.918 1_554 S
O46 Fe45 1.918 . S
O46 Fe47 1.918 . S
Fe47 O46 1.918 . S
Fe47 O48 2.002 . S
Fe47 O57 1.976 . S
Fe47 O61 1.996 . S
Fe47 O64 1.997 . S
O48 Fe47 2.002 . S
O48 C65 1.295 1_554 S
O49 Fe44 1.997 . S
O49 C65 1.235 . S
O50 Fe44 2.002 . S
O50 C51 1.295 . S
C51 O50 1.295 . S
C51 O53 1.235 . S
C52 O57 1.287 1_556 S
C52 O58 1.255 . S
O53 Fe45 1.997 1_556 S
O53 C51 1.235 . S
C54 O60 1.287 . S
C54 O61 1.255 . S
O55 Fe44 1.976 . S
O55 C62 1.287 . S
O56 Fe45 1.996 1_556 S
O56 C62 1.255 . S
O57 Fe47 1.976 . S
O57 C52 1.287 1_554 S
O58 Fe44 1.996 . S
O58 C52 1.255 . S
C59 O63 1.295 . S
C59 O64 1.235 . S
O60 Fe45 1.976 . S
O60 C54 1.287 . S
O61 Fe47 1.996 . S
O61 C54 1.255 . S
C62 O55 1.287 . S
C62 O56 1.255 . S
O63 Fe45 2.002 . S
O63 C59 1.295 . S
O64 Fe47 1.997 . S
O64 C59 1.235 . S
C65 O48 1.295 1_556 S
C65 O49 1.235 . S
Fe66 O68 1.918 . S
Fe66 O71 1.997 . S
Fe66 O72 2.002 . S
Fe66 O77 1.976 . S
Fe66 O80 1.996 . S
Fe67 O68 1.918 . S
Fe67 O75 1.997 1_455 S
Fe67 O78 1.996 1_455 S
Fe67 O82 1.976 . S
Fe67 O85 2.002 . S
O68 Fe66 1.918 . S
O68 Fe67 1.918 . S
O68 Fe69 1.918 . S
Fe69 O68 1.918 . S
Fe69 O70 2.002 . S
Fe69 O79 1.976 . S
Fe69 O83 1.996 . S
Fe69 O86 1.997 . S
O70 Fe69 2.002 . S
O70 C87 1.295 . S
O71 Fe66 1.997 . S
O71 C87 1.235 . S
O72 Fe66 2.002 . S
O72 C73 1.295 . S
C73 O72 1.295 . S
C73 O75 1.235 1_455 S
C74 O79 1.287 . S
C74 O80 1.255 . S
O75 Fe67 1.997 1_655 S
O75 C73 1.235 1_655 S
C76 O82 1.287 . S
C76 O83 1.255 . S
O77 Fe66 1.976 . S
O77 C84 1.287 . S
O78 Fe67 1.996 1_655 S
O78 C84 1.255 1_655 S
O79 Fe69 1.976 . S
O79 C74 1.287 . S
O80 Fe66 1.996 . S
O80 C74 1.255 . S
C81 O85 1.295 . S
C81 O86 1.235 . S
O82 Fe67 1.976 . S
O82 C76 1.287 . S
O83 Fe69 1.996 . S
O83 C76 1.255 . S
C84 O77 1.287 . S
C84 O78 1.255 1_455 S
O85 Fe67 2.002 . S
O85 C81 1.295 . S
O86 Fe69 1.997 . S
O86 C81 1.235 . S
C87 O70 1.295 . S
C87 O71 1.235 . S
Fe88 O90 1.918 . S
Fe88 O93 1.997 . S
Fe88 O94 2.002 . S
Fe88 O99 1.976 . S
Fe88 O102 1.996 . S
Fe89 O90 1.918 . S
Fe89 O97 1.997 . S
Fe89 O100 1.996 . S
Fe89 O104 1.976 . S
Fe89 O107 2.002 . S
O90 Fe88 1.918 . S
O90 Fe89 1.918 . S
O90 Fe91 1.918 . S
Fe91 O90 1.918 . S
Fe91 O92 2.002 . S
Fe91 O101 1.976 . S
Fe91 O105 1.996 . S
Fe91 O108 1.997 . S
O92 Fe91 2.002 . S
O92 C109 1.295 . S
O93 Fe88 1.997 . S
O93 C109 1.235 . S
O94 Fe88 2.002 . S
O94 C95 1.295 . S
C95 O94 1.295 . S
C95 O97 1.235 . S
C96 O101 1.287 . S
C96 O102 1.255 . S
O97 Fe89 1.997 . S
O97 C95 1.235 . S
C98 O104 1.287 . S
C98 O105 1.255 . S
O99 Fe88 1.976 . S
O99 C106 1.287 . S
O100 Fe89 1.996 . S
O100 C106 1.255 . S
O101 Fe91 1.976 . S
O101 C96 1.287 . S
O102 Fe88 1.996 . S
O102 C96 1.255 . S
C103 O107 1.295 . S
C103 O108 1.235 . S
O104 Fe89 1.976 . S
O104 C98 1.287 . S
O105 Fe91 1.996 . S
O105 C98 1.255 . S
C106 O99 1.287 . S
C106 O100 1.255 . S
O107 Fe89 2.002 . S
O107 C103 1.295 . S
O108 Fe91 1.997 . S
O108 C103 1.235 . S
C109 O92 1.295 . S
C109 O93 1.235 . S
Fe110 O112 1.918 . S
Fe110 O115 1.997 . S
Fe110 O116 2.002 . S
Fe110 O121 1.976 . S
Fe110 O124 1.996 . S
Fe111 O112 1.918 . S
Fe111 O119 1.997 . S
Fe111 O122 1.996 . S
Fe111 O126 1.976 . S
Fe111 O129 2.002 . S
O112 Fe110 1.918 . S
O112 Fe111 1.918 . S
O112 Fe113 1.918 . S
Fe113 O112 1.918 . S
Fe113 O114 2.002 . S
Fe113 O123 1.976 . S
Fe113 O127 1.996 1_565 S
Fe113 O130 1.997 1_565 S
O114 Fe113 2.002 . S
O114 C131 1.295 . S
O115 Fe110 1.997 . S
O115 C131 1.235 . S
O116 Fe110 2.002 . S
O116 C117 1.295 . S
C117 O116 1.295 . S
C117 O119 1.235 . S
C118 O123 1.287 . S
C118 O124 1.255 . S
O119 Fe111 1.997 . S
O119 C117 1.235 . S
C120 O126 1.287 . S
C120 O127 1.255 1_565 S
O121 Fe110 1.976 . S
O121 C128 1.287 . S
O122 Fe111 1.996 . S
O122 C128 1.255 . S
O123 Fe113 1.976 . S
O123 C118 1.287 . S
O124 Fe110 1.996 . S
O124 C118 1.255 . S
C125 O129 1.295 . S
C125 O130 1.235 1_565 S
O126 Fe111 1.976 . S
O126 C120 1.287 . S
O127 Fe113 1.996 1_545 S
O127 C120 1.255 1_545 S
C128 O121 1.287 . S
C128 O122 1.255 . S
O129 Fe111 2.002 . S
O129 C125 1.295 . S
O130 Fe113 1.997 1_545 S
O130 C125 1.235 1_545 S
C131 O114 1.295 . S
C131 O115 1.235 . S
Fe132 O134 1.918 . S
Fe132 O137 1.997 . S
Fe132 O138 2.002 . S
Fe132 O143 1.976 . S
Fe132 O146 1.996 . S
Fe133 O134 1.918 . S
Fe133 O141 1.997 . S
Fe133 O144 1.996 . S
Fe133 O148 1.976 . S
Fe133 O151 2.002 . S
O134 Fe132 1.918 . S
O134 Fe133 1.918 . S
O134 Fe135 1.918 . S
Fe135 O134 1.918 . S
Fe135 O136 2.002 . S
Fe135 O145 1.976 . S
Fe135 O149 1.996 . S
Fe135 O152 1.997 . S
O136 Fe135 2.002 . S
O136 C153 1.295 . S
O137 Fe132 1.997 . S
O137 C153 1.235 . S
O138 Fe132 2.002 . S
O138 C139 1.295 . S
C139 O138 1.295 . S
C139 O141 1.235 . S
C140 O145 1.287 . S
C140 O146 1.255 . S
O141 Fe133 1.997 . S
O141 C139 1.235 . S
C142 O148 1.287 . S
C142 O149 1.255 . S
O143 Fe132 1.976 . S
O143 C150 1.287 . S
O144 Fe133 1.996 . S
O144 C150 1.255 . S
O145 Fe135 1.976 . S
O145 C140 1.287 . S
O146 Fe132 1.996 . S
O146 C140 1.255 . S
C147 O151 1.295 . S
C147 O152 1.235 . S
O148 Fe133 1.976 . S
O148 C142 1.287 . S
O149 Fe135 1.996 . S
O149 C142 1.255 . S
C150 O143 1.287 . S
C150 O144 1.255 . S
O151 Fe133 2.002 . S
O151 C147 1.295 . S
O152 Fe135 1.997 . S
O152 C147 1.235 . S
C153 O136 1.295 . S
C153 O137 1.235 . S
Fe154 O156 1.918 . S
Fe154 O159 1.997 . S
Fe154 O160 2.002 . S
Fe154 O165 1.976 . S
Fe154 O168 1.996 . S
Fe155 O156 1.918 . S
Fe155 O163 1.997 . S
Fe155 O166 1.996 . S
Fe155 O170 1.976 . S
Fe155 O173 2.002 . S
O156 Fe154 1.918 . S
O156 Fe155 1.918 . S
O156 Fe157 1.918 . S
Fe157 O156 1.918 . S
Fe157 O158 2.002 . S
Fe157 O167 1.976 . S
Fe157 O171 1.996 . S
Fe157 O174 1.997 . S
O158 Fe157 2.002 . S
O158 C175 1.295 . S
O159 Fe154 1.997 . S
O159 C175 1.235 . S
O160 Fe154 2.002 . S
O160 C161 1.295 . S
C161 O160 1.295 . S
C161 O163 1.235 . S
C162 O167 1.287 . S
C162 O168 1.255 . S
O163 Fe155 1.997 . S
O163 C161 1.235 . S
C164 O170 1.287 . S
C164 O171 1.255 . S
O165 Fe154 1.976 . S
O165 C172 1.287 . S
O166 Fe155 1.996 . S
O166 C172 1.255 . S
O167 Fe157 1.976 . S
O167 C162 1.287 . S
O168 Fe154 1.996 . S
O168 C162 1.255 . S
C169 O173 1.295 . S
C169 O174 1.235 . S
O170 Fe155 1.976 . S
O170 C164 1.287 . S
O171 Fe157 1.996 . S
O171 C164 1.255 . S
C172 O165 1.287 . S
C172 O166 1.255 . S
O173 Fe155 2.002 . S
O173 C169 1.295 . S
O174 Fe157 1.997 . S
O174 C169 1.235 . S
C175 O158 1.295 . S
C175 O159 1.235 . S
Fe176 O178 1.918 . S
Fe176 O181 1.997 . S
Fe176 O182 2.002 . S
Fe176 O187 1.976 . S
Fe176 O190 1.996 . S
Fe177 O178 1.918 . S
Fe177 O185 1.997 . S
Fe177 O188 1.996 . S
Fe177 O192 1.976 . S
Fe177 O195 2.002 . S
O178 Fe176 1.918 . S
O178 Fe177 1.918 . S
O178 Fe179 1.918 . S
Fe179 O178 1.918 . S
Fe179 O180 2.002 . S
Fe179 O189 1.976 . S
Fe179 O193 1.996 . S
Fe179 O196 1.997 . S
O180 Fe179 2.002 . S
O180 C197 1.295 . S
O181 Fe176 1.997 . S
O181 C197 1.235 . S
O182 Fe176 2.002 . S
O182 C183 1.295 . S
C183 O182 1.295 . S
C183 O185 1.235 . S
C184 O189 1.287 . S
C184 O190 1.255 . S
O185 Fe177 1.997 . S
O185 C183 1.235 . S
C186 O192 1.287 . S
C186 O193 1.255 . S
O187 Fe176 1.976 . S
O187 C194 1.287 . S
O188 Fe177 1.996 . S
O188 C194 1.255 . S
O189 Fe179 1.976 . S
O189 C184 1.287 . S
O190 Fe176 1.996 . S
O190 C184 1.255 . S
C191 O195 1.295 . S
C191 O196 1.235 . S
O192 Fe177 1.976 . S
O192 C186 1.287 . S
O193 Fe179 1.996 . S
O193 C186 1.255 . S
C194 O187 1.287 . S
C194 O188 1.255 . S
O195 Fe177 2.002 . S
O195 C191 1.295 . S
O196 Fe179 1.997 . S
O196 C191 1.235 . S
C197 O180 1.295 . S
C197 O181 1.235 . S
C198 C199 1.363 . S
C198 C204 1.379 . S
C198 N206 1.356 . S
C199 C198 1.363 . S
C199 C205 1.363 . S
C200 C201 1.363 . S
C200 C205 1.379 1_565 S
C200 N207 1.356 . S
C201 C200 1.363 . S
C201 C204 1.363 1_565 S
N202 C204 1.356 1_565 S
N202 H214 0.984 1_565 S
N202 H215 0.985 . S
N203 C205 1.356 . S
N203 H208 0.984 . S
N203 H209 0.985 1_545 S
C204 C198 1.379 . S
C204 C201 1.363 1_545 S
C204 N202 1.356 1_545 S
C205 C199 1.363 . S
C205 C200 1.379 1_545 S
C205 N203 1.356 . S
N206 C198 1.356 . S
N206 H212 0.984 . S
N206 H213 0.984 . S
N207 C200 1.356 . S
N207 H210 0.984 . S
N207 H211 0.985 . S
H208 N203 0.984 . S
H209 N203 0.985 1_565 S
H210 N207 0.984 . S
H211 N207 0.985 . S
H212 N206 0.984 . S
H213 N206 0.984 . S
H214 N202 0.984 1_545 S
H215 N202 0.985 . S
C216 C217 1.363 . S
C216 C222 1.379 1_655 S
C216 N224 1.356 . S
C217 C216 1.363 . S
C217 C223 1.363 . S
C218 C219 1.363 . S
C218 C223 1.379 1_455 S
C218 N225 1.356 . S
C219 C218 1.363 . S
C219 C222 1.363 . S
N220 C222 1.356 . S
N220 H232 0.984 . S
N220 H233 0.985 . S
N221 C223 1.356 . S
N221 H226 0.984 . S
N221 H227 0.985 . S
C222 C216 1.379 1_455 S
C222 C219 1.363 . S
C222 N220 1.356 . S
C223 C217 1.363 . S
C223 C218 1.379 1_655 S
C223 N221 1.356 . S
N224 C216 1.356 . S
N224 H230 0.984 . S
N224 H231 0.984 . S
N225 C218 1.356 . S
N225 H228 0.984 . S
N225 H229 0.985 . S
H226 N221 0.984 . S
H227 N221 0.985 . S
H228 N225 0.984 . S
H229 N225 0.985 . S
H230 N224 0.984 . S
H231 N224 0.984 . S
H232 N220 0.984 . S
H233 N220 0.985 . S
C234 C235 1.363 . S
C234 C240 1.379 . S
C234 N242 1.356 . S
C235 C234 1.363 . S
C235 C241 1.363 . S
C236 C237 1.363 . S
C236 C241 1.379 . S
C236 N243 1.356 . S
C237 C236 1.363 . S
C237 C240 1.363 . S
N238 C240 1.356 . S
N238 H250 0.984 . S
N238 H251 0.985 . S
N239 C241 1.356 . S
N239 H244 0.984 . S
N239 H245 0.985 . S
C240 C234 1.379 . S
C240 C237 1.363 . S
C240 N238 1.356 . S
C241 C235 1.363 . S
C241 C236 1.379 . S
C241 N239 1.356 . S
N242 C234 1.356 . S
N242 H248 0.984 . S
N242 H249 0.984 . S
N243 C236 1.356 . S
N243 H246 0.984 . S
N243 H247 0.985 1_556 S
H244 N239 0.984 . S
H245 N239 0.985 . S
H246 N243 0.984 . S
H247 N243 0.985 1_554 S
H248 N242 0.984 . S
H249 N242 0.984 . S
H250 N238 0.984 . S
H251 N238 0.985 . S
C252 C253 1.363 1_655 S
C252 C258 1.379 . S
C252 N260 1.356 1_655 S
C253 C252 1.363 1_455 S
C253 C259 1.363 . S
C254 C255 1.351 1_455 S
C254 C259 1.387 . S
C254 N261 1.357 1_455 S
C255 C254 1.351 1_655 S
C255 C258 1.363 . S
N256 C258 1.356 . S
N256 H268 0.984 . S
N256 H269 0.985 . S
N257 C259 1.356 . S
N257 H262 0.984 . S
N257 H263 0.985 . S
C258 C252 1.379 . S
C258 C255 1.363 . S
C258 N256 1.356 . S
C259 C253 1.363 . S
C259 C254 1.387 . S
C259 N257 1.356 . S
N260 C252 1.356 1_455 S
N260 H266 0.984 1_455 S
N260 H267 0.984 . S
N261 C254 1.357 1_655 S
N261 H264 0.984 . S
N261 H265 0.985 1_655 S
H262 N257 0.984 . S
H263 N257 0.985 . S
H264 N261 0.984 . S
H265 N261 0.985 1_455 S
H266 N260 0.984 1_655 S
H267 N260 0.984 . S
H268 N256 0.984 . S
H269 N256 0.985 . S
C270 C271 1.363 . S
C270 C276 1.379 . S
C270 N278 1.356 . S
C271 C270 1.363 . S
C271 C277 1.363 . S
C272 C273 1.363 . S
C272 C277 1.379 . S
C272 N279 1.356 . S
C273 C272 1.363 . S
C273 C276 1.363 . S
N274 C276 1.356 . S
N274 H286 0.984 . S
N274 H287 0.985 . S
N275 C277 1.356 . S
N275 H280 0.984 . S
N275 H281 0.985 . S
C276 C270 1.379 . S
C276 C273 1.363 . S
C276 N274 1.356 . S
C277 C271 1.363 . S
C277 C272 1.379 . S
C277 N275 1.356 . S
N278 C270 1.356 . S
N278 H284 0.984 . S
N278 H285 0.984 . S
N279 C272 1.356 . S
N279 H282 0.984 . S
N279 H283 0.985 . S
H280 N275 0.984 . S
H281 N275 0.985 . S
H282 N279 0.984 . S
H283 N279 0.985 . S
H284 N278 0.984 . S
H285 N278 0.984 . S
H286 N274 0.984 . S
H287 N274 0.985 . S
C288 C289 1.363 1_545 S
C288 C294 1.379 . S
C288 N296 1.356 1_545 S
C289 C288 1.363 1_565 S
C289 C295 1.363 . S
C290 C291 1.366 . S
C290 C295 1.376 1_545 S
C290 N297 1.358 . S
C291 C290 1.366 . S
C291 C294 1.363 . S
N292 C294 1.356 . S
N292 H304 0.984 . S
N292 H305 0.985 . S
N293 C295 1.356 . S
N293 H298 0.984 . S
N293 H299 0.985 . S
C294 C288 1.379 . S
C294 C291 1.363 . S
C294 N292 1.356 . S
C295 C289 1.363 . S
C295 C290 1.376 1_565 S
C295 N293 1.356 . S
N296 C288 1.356 1_565 S
N296 H302 0.984 1_565 S
N296 H303 0.984 . S
N297 C290 1.358 . S
N297 H300 0.984 . S
N297 H301 0.985 1_545 S
H298 N293 0.984 . S
H299 N293 0.985 . S
H300 N297 0.984 . S
H301 N297 0.985 1_565 S
H302 N296 0.984 1_545 S
H303 N296 0.984 . S
H304 N292 0.984 . S
H305 N292 0.985 . S
C306 C307 1.363 . S
C306 C312 1.379 . S
C306 N314 1.356 . S
C307 C306 1.363 . S
C307 C313 1.363 . S
C308 C309 1.363 . S
C308 C313 1.379 . S
C308 N315 1.356 . S
C309 C308 1.363 . S
C309 C312 1.363 . S
N310 C312 1.356 1_455 S
N310 H322 0.984 . S
N310 H323 0.985 . S
N311 C313 1.356 . S
N311 H316 0.984 . S
N311 H317 0.985 . S
C312 C306 1.379 . S
C312 C309 1.363 . S
C312 N310 1.356 1_655 S
C313 C307 1.363 . S
C313 C308 1.379 . S
C313 N311 1.356 . S
N314 C306 1.356 . S
N314 H320 0.984 1_655 S
N314 H321 0.984 . S
N315 C308 1.356 . S
N315 H318 0.984 . S
N315 H319 0.985 . S
H316 N311 0.984 . S
H317 N311 0.985 . S
H318 N315 0.984 . S
H319 N315 0.985 . S
H320 N314 0.984 1_455 S
H321 N314 0.984 . S
H322 N310 0.984 . S
H323 N310 0.985 . S
C324 C325 1.363 . S
C324 C330 1.379 . S
C324 N332 1.356 . S
C325 C324 1.363 . S
C325 C331 1.363 . S
C326 C327 1.363 . S
C326 C331 1.379 . S
C326 N333 1.356 . S
C327 C326 1.363 . S
C327 C330 1.363 . S
N328 C330 1.356 . S
N328 H340 0.984 . S
N328 H341 0.985 . S
N329 C331 1.356 . S
N329 H334 0.984 . S
N329 H335 0.985 . S
C330 C324 1.379 . S
C330 C327 1.363 . S
C330 N328 1.356 . S
C331 C325 1.363 . S
C331 C326 1.379 . S
C331 N329 1.356 . S
N332 C324 1.356 . S
N332 H338 0.984 . S
N332 H339 0.984 . S
N333 C326 1.356 . S
N333 H336 0.984 . S
N333 H337 0.985 . S
H334 N329 0.984 . S
H335 N329 0.985 . S
H336 N333 0.984 . S
H337 N333 0.985 . S
H338 N332 0.984 . S
H339 N332 0.984 . S
H340 N328 0.984 . S
H341 N328 0.985 . S
C342 C343 1.363 . S
C342 C348 1.379 . S
C342 N350 1.356 . S
C343 C342 1.363 . S
C343 C349 1.363 . S
C344 C345 1.363 . S
C344 C349 1.379 . S
C344 N351 1.356 . S
C345 C344 1.363 . S
C345 C348 1.363 . S
N346 C348 1.356 1_565 S
N346 H358 0.984 . S
N346 H359 0.985 . S
N347 C349 1.356 . S
N347 H352 0.984 . S
N347 H353 0.985 . S
C348 C342 1.379 . S
C348 C345 1.363 . S
C348 N346 1.356 1_545 S
C349 C343 1.363 . S
C349 C344 1.379 . S
C349 N347 1.356 . S
N350 C342 1.356 . S
N350 H356 0.984 1_545 S
N350 H357 0.984 . S
N351 C344 1.356 . S
N351 H354 0.984 . S
N351 H355 0.985 . S
H352 N347 0.984 . S
H353 N347 0.985 . S
H354 N351 0.984 . S
H355 N351 0.985 . S
H356 N350 0.984 1_565 S
H357 N350 0.984 . S
H358 N346 0.984 . S
H359 N346 0.985 . S
C360 C361 1.363 . S
C360 C366 1.379 . S
C360 N368 1.356 . S
C361 C360 1.363 . S
C361 C367 1.363 . S
C362 C363 1.363 . S
C362 C367 1.379 . S
C362 N369 1.356 . S
C363 C362 1.363 . S
C363 C366 1.363 . S
N364 C366 1.356 . S
N364 H376 0.984 . S
N364 H377 0.985 1_545 S
N365 C367 1.356 . S
N365 H370 0.984 . S
N365 H371 0.985 . S
C366 C360 1.379 . S
C366 C363 1.363 . S
C366 N364 1.356 . S
C367 C361 1.363 . S
C367 C362 1.379 . S
C367 N365 1.356 . S
N368 C360 1.356 . S
N368 H374 0.984 . S
N368 H375 0.984 . S
N369 C362 1.356 . S
N369 H372 0.984 1_545 S
N369 H373 0.985 . S
H370 N365 0.984 . S
H371 N365 0.985 . S
H372 N369 0.984 1_565 S
H373 N369 0.985 . S
H374 N368 0.984 . S
H375 N368 0.984 . S
H376 N364 0.984 . S
H377 N364 0.985 1_565 S
C378 C379 1.363 . S
C378 C384 1.379 . S
C378 N386 1.356 . S
C379 C378 1.363 . S
C379 C385 1.363 . S
C380 C381 1.363 . S
C380 C385 1.383 . S
C380 N387 1.356 . S
C381 C380 1.363 . S
C381 C384 1.363 . S
N382 C384 1.356 . S
N382 H394 0.984 . S
N382 H395 0.985 . S
N383 C385 1.352 1_455 S
N383 H388 0.984 . S
N383 H389 0.985 . S
C384 C378 1.379 . S
C384 C381 1.363 . S
C384 N382 1.356 . S
C385 C379 1.363 . S
C385 C380 1.383 . S
C385 N383 1.352 1_655 S
N386 C378 1.356 . S
N386 H392 0.984 . S
N386 H393 0.984 . S
N387 C380 1.356 . S
N387 H390 0.984 . S
N387 H391 0.985 1_655 S
H388 N383 0.984 . S
H389 N383 0.985 . S
H390 N387 0.984 . S
H391 N387 0.985 1_455 S
H392 N386 0.984 . S
H393 N386 0.984 . S
H394 N382 0.984 . S
H395 N382 0.985 . S
C396 C397 1.363 . S
C396 C402 1.379 . S
C396 N404 1.356 . S
C397 C396 1.363 . S
C397 C403 1.363 . S
C398 C399 1.363 . S
C398 C403 1.379 . S
C398 N405 1.356 . S
C399 C398 1.363 . S
C399 C402 1.363 . S
N400 C402 1.356 . S
N400 H412 0.984 . S
N400 H413 0.985 . S
N401 C403 1.356 . S
N401 H406 0.984 . S
N401 H407 0.985 . S
C402 C396 1.379 . S
C402 C399 1.363 . S
C402 N400 1.356 . S
C403 C397 1.363 . S
C403 C398 1.379 . S
C403 N401 1.356 . S
N404 C396 1.356 . S
N404 H410 0.984 . S
N404 H411 0.984 . S
N405 C398 1.356 . S
N405 H408 0.984 . S
N405 H409 0.985 . S
H406 N401 0.984 . S
H407 N401 0.985 . S
H408 N405 0.984 . S
H409 N405 0.985 . S
H410 N404 0.984 . S
H411 N404 0.984 . S
H412 N400 0.984 . S
H413 N400 0.985 . S
C414 C415 1.363 . S
C414 C420 1.379 . S
C414 N422 1.356 . S
C415 C414 1.363 . S
C415 C421 1.363 . S
C416 C417 1.363 . S
C416 C421 1.379 . S
C416 N423 1.356 . S
C417 C416 1.363 . S
C417 C420 1.363 . S
N418 C420 1.356 . S
N418 H430 0.984 . S
N418 H431 0.985 . S
N419 C421 1.356 . S
N419 H424 0.984 . S
N419 H425 0.985 . S
C420 C414 1.379 . S
C420 C417 1.363 . S
C420 N418 1.356 . S
C421 C415 1.363 . S
C421 C416 1.379 . S
C421 N419 1.356 . S
N422 C414 1.356 . S
N422 H428 0.984 . S
N422 H429 0.984 . S
N423 C416 1.356 . S
N423 H426 0.984 . S
N423 H427 0.985 . S
H424 N419 0.984 . S
H425 N419 0.985 . S
H426 N423 0.984 . S
H427 N423 0.985 . S
H428 N422 0.984 . S
H429 N422 0.984 . S
H430 N418 0.984 . S
H431 N418 0.985 . S
C432 C433 1.363 . S
C432 C438 1.379 . S
C432 N440 1.356 1_565 S
C433 C432 1.363 . S
C433 C439 1.363 . S
C434 C435 1.363 . S
C434 C439 1.379 . S
C434 N441 1.356 . S
C435 C434 1.363 . S
C435 C438 1.363 . S
N436 C438 1.356 . S
N436 H448 0.984 1_565 S
N436 H449 0.985 . S
N437 C439 1.356 . S
N437 H442 0.984 . S
N437 H443 0.985 . S
C438 C432 1.379 . S
C438 C435 1.363 . S
C438 N436 1.356 . S
C439 C433 1.363 . S
C439 C434 1.379 . S
C439 N437 1.356 . S
N440 C432 1.356 1_545 S
N440 H446 0.984 . S
N440 H447 0.984 . S
N441 C434 1.356 . S
N441 H444 0.984 . S
N441 H445 0.985 . S
H442 N437 0.984 . S
H443 N437 0.985 . S
H444 N441 0.984 . S
H445 N441 0.985 . S
H446 N440 0.984 . S
H447 N440 0.984 . S
H448 N436 0.984 1_545 S
H449 N436 0.985 . S
C450 C451 1.363 . S
C450 C456 1.379 . S
C450 N458 1.356 . S
C451 C450 1.363 . S
C451 C457 1.363 . S
C452 C453 1.363 . S
C452 C457 1.379 . S
C452 N459 1.356 . S
C453 C452 1.363 . S
C453 C456 1.363 . S
N454 C456 1.356 1_655 S
N454 H466 0.984 . S
N454 H467 0.985 . S
N455 C457 1.356 . S
N455 H460 0.984 . S
N455 H461 0.985 . S
C456 C450 1.379 . S
C456 C453 1.363 . S
C456 N454 1.356 1_455 S
C457 C451 1.363 . S
C457 C452 1.379 . S
C457 N455 1.356 . S
N458 C450 1.356 . S
N458 H464 0.984 1_455 S
N458 H465 0.984 . S
N459 C452 1.356 . S
N459 H462 0.984 . S
N459 H463 0.985 . S
H460 N455 0.984 . S
H461 N455 0.985 . S
H462 N459 0.984 . S
H463 N459 0.985 . S
H464 N458 0.984 1_655 S
H465 N458 0.984 . S
H466 N454 0.984 . S
H467 N454 0.985 . S
C468 C469 1.363 . S
C468 C474 1.379 . S
C468 N476 1.356 . S
C469 C468 1.363 . S
C469 C475 1.363 . S
C470 C471 1.363 . S
C470 C475 1.379 . S
C470 N477 1.356 . S
C471 C470 1.363 . S
C471 C474 1.363 . S
N472 C474 1.356 . S
N472 H484 0.984 . S
N472 H485 0.985 . S
N473 C475 1.356 . S
N473 H478 0.984 . S
N473 H479 0.985 . S
C474 C468 1.379 . S
C474 C471 1.363 . S
C474 N472 1.356 . S
C475 C469 1.363 . S
C475 C470 1.379 . S
C475 N473 1.356 . S
N476 C468 1.356 . S
N476 H482 0.984 . S
N476 H483 0.984 . S
N477 C470 1.356 . S
N477 H480 0.984 . S
N477 H481 0.985 . S
H478 N473 0.984 . S
H479 N473 0.985 . S
H480 N477 0.984 . S
H481 N477 0.985 . S
H482 N476 0.984 . S
H483 N476 0.984 . S
H484 N472 0.984 . S
H485 N472 0.985 . S
C486 C487 1.363 . S
C486 C492 1.379 . S
C486 N494 1.356 1_565 S
C487 C486 1.363 . S
C487 C493 1.363 . S
C488 C489 1.363 . S
C488 C493 1.379 . S
C488 N495 1.356 . S
C489 C488 1.363 . S
C489 C492 1.363 . S
N490 C492 1.356 . S
N490 H502 0.984 1_565 S
N490 H503 0.985 . S
N491 C493 1.356 . S
N491 H496 0.984 . S
N491 H497 0.985 . S
C492 C486 1.379 . S
C492 C489 1.363 . S
C492 N490 1.356 . S
C493 C487 1.363 . S
C493 C488 1.379 . S
C493 N491 1.356 . S
N494 C486 1.356 1_545 S
N494 H500 0.984 . S
N494 H501 0.984 . S
N495 C488 1.356 . S
N495 H498 0.984 . S
N495 H499 0.985 . S
H496 N491 0.984 . S
H497 N491 0.985 . S
H498 N495 0.984 . S
H499 N495 0.985 . S
H500 N494 0.984 . S
H501 N494 0.984 . S
H502 N490 0.984 1_545 S
H503 N490 0.985 . S
C504 C505 1.363 . S
C504 C510 1.379 . S
C504 N512 1.356 . S
C505 C504 1.363 . S
C505 C511 1.363 . S
C506 C507 1.363 . S
C506 C511 1.379 . S
C506 N513 1.356 . S
C507 C506 1.363 . S
C507 C510 1.363 . S
N508 C510 1.356 . S
N508 H520 0.984 . S
N508 H521 0.985 . S
N509 C511 1.356 . S
N509 H514 0.984 . S
N509 H515 0.985 . S
C510 C504 1.379 . S
C510 C507 1.363 . S
C510 N508 1.356 . S
C511 C505 1.363 . S
C511 C506 1.379 . S
C511 N509 1.356 . S
N512 C504 1.356 . S
N512 H518 0.984 1_455 S
N512 H519 0.984 . S
N513 C506 1.356 . S
N513 H516 0.984 . S
N513 H517 0.985 . S
H514 N509 0.984 . S
H515 N509 0.985 . S
H516 N513 0.984 . S
H517 N513 0.985 . S
H518 N512 0.984 1_655 S
H519 N512 0.984 . S
H520 N508 0.984 . S
H521 N508 0.985 . S
C522 C523 1.363 1_554 S
C522 C528 1.379 . S
C522 N530 1.356 . S
C523 C522 1.363 1_556 S
C523 C529 1.363 . S
C524 C525 1.363 . S
C524 C529 1.379 . S
C524 N531 1.356 . S
C525 C524 1.363 . S
C525 C528 1.363 1_556 S
N526 C528 1.356 . S
N526 H538 0.984 . S
N526 H539 0.985 . S
N527 C529 1.356 . S
N527 H532 0.984 . S
N527 H533 0.985 . S
C528 C522 1.379 . S
C528 C525 1.363 1_554 S
C528 N526 1.356 . S
C529 C523 1.363 . S
C529 C524 1.379 . S
C529 N527 1.356 . S
N530 C522 1.356 . S
N530 H536 0.984 . S
N530 H537 0.984 . S
N531 C524 1.356 . S
N531 H534 0.984 . S
N531 H535 0.985 . S
H532 N527 0.984 . S
H533 N527 0.985 . S
H534 N531 0.984 . S
H535 N531 0.985 . S
H536 N530 0.984 . S
H537 N530 0.984 . S
H538 N526 0.984 . S
H539 N526 0.985 . S
C540 C541 1.363 . S
C540 C546 1.379 . S
C540 N548 1.356 . S
C541 C540 1.363 . S
C541 C547 1.363 1_556 S
C542 C543 1.363 1_554 S
C542 C547 1.379 . S
C542 N549 1.356 . S
C543 C542 1.363 1_556 S
C543 C546 1.363 . S
N544 C546 1.356 . S
N544 H556 0.984 . S
N544 H557 0.985 . S
N545 C547 1.356 . S
N545 H550 0.984 . S
N545 H551 0.985 . S
C546 C540 1.379 . S
C546 C543 1.363 . S
C546 N544 1.356 . S
C547 C541 1.363 1_554 S
C547 C542 1.379 . S
C547 N545 1.356 . S
N548 C540 1.356 . S
N548 H554 0.984 . S
N548 H555 0.984 . S
N549 C542 1.356 . S
N549 H552 0.984 . S
N549 H553 0.985 . S
H550 N545 0.984 . S
H551 N545 0.985 . S
H552 N549 0.984 . S
H553 N549 0.985 . S
H554 N548 0.984 . S
H555 N548 0.984 . S
H556 N544 0.984 . S
H557 N544 0.985 . S
C558 C559 1.363 1_554 S
C558 C564 1.379 . S
C558 N566 1.356 . S
C559 C558 1.363 1_556 S
C559 C565 1.363 . S
C560 C561 1.363 . S
C560 C565 1.379 . S
C560 N567 1.356 . S
C561 C560 1.363 . S
C561 C564 1.363 1_556 S
N562 C564 1.356 . S
N562 H574 0.984 . S
N562 H575 0.985 . S
N563 C565 1.356 . S
N563 H568 0.984 . S
N563 H569 0.985 . S
C564 C558 1.379 . S
C564 C561 1.363 1_554 S
C564 N562 1.356 . S
C565 C559 1.363 . S
C565 C560 1.379 . S
C565 N563 1.356 . S
N566 C558 1.356 . S
N566 H572 0.984 . S
N566 H573 0.984 . S
N567 C560 1.356 . S
N567 H570 0.984 . S
N567 H571 0.985 . S
H568 N563 0.984 . S
H569 N563 0.985 . S
H570 N567 0.984 . S
H571 N567 0.985 . S
H572 N566 0.984 . S
H573 N566 0.984 . S
H574 N562 0.984 . S
H575 N562 0.985 . S
C576 C577 1.363 . S
C576 C582 1.379 . S
C576 N584 1.356 . S
C577 C576 1.363 . S
C577 C583 1.363 . S
C578 C579 1.363 . S
C578 C583 1.379 . S
C578 N585 1.356 . S
C579 C578 1.363 . S
C579 C582 1.363 . S
N580 C582 1.356 . S
N580 H592 0.984 . S
N580 H593 0.985 . S
N581 C583 1.356 . S
N581 H586 0.984 . S
N581 H587 0.985 . S
C582 C576 1.379 . S
C582 C579 1.363 . S
C582 N580 1.356 . S
C583 C577 1.363 . S
C583 C578 1.379 . S
C583 N581 1.356 . S
N584 C576 1.356 . S
N584 H590 0.984 . S
N584 H591 0.984 . S
N585 C578 1.356 . S
N585 H588 0.984 . S
N585 H589 0.985 . S
H586 N581 0.984 . S
H587 N581 0.985 . S
H588 N585 0.984 . S
H589 N585 0.985 . S
H590 N584 0.984 . S
H591 N584 0.984 . S
H592 N580 0.984 . S
H593 N580 0.985 . S
C594 C595 1.363 . S
C594 C600 1.379 . S
C594 N602 1.356 . S
C595 C594 1.363 . S
C595 C601 1.363 . S
C596 C597 1.363 . S
C596 C601 1.379 . S
C596 N603 1.356 . S
C597 C596 1.363 . S
C597 C600 1.363 . S
N598 C600 1.356 . S
N598 H610 0.984 . S
N598 H611 0.985 . S
N599 C601 1.356 . S
N599 H604 0.984 . S
N599 H605 0.985 . S
C600 C594 1.379 . S
C600 C597 1.363 . S
C600 N598 1.356 . S
C601 C595 1.363 . S
C601 C596 1.379 . S
C601 N599 1.356 . S
N602 C594 1.356 . S
N602 H608 0.984 . S
N602 H609 0.984 . S
N603 C596 1.356 . S
N603 H606 0.984 . S
N603 H607 0.985 . S
H604 N599 0.984 . S
H605 N599 0.985 . S
H606 N603 0.984 . S
H607 N603 0.985 . S
H608 N602 0.984 . S
H609 N602 0.984 . S
H610 N598 0.984 . S
H611 N598 0.985 . S
C612 C613 1.363 . S
C612 C618 1.379 . S
C612 N620 1.356 . S
C613 C612 1.363 . S
C613 C619 1.363 . S
C614 C615 1.363 . S
C614 C619 1.379 . S
C614 N621 1.356 . S
C615 C614 1.363 . S
C615 C618 1.363 . S
N616 C618 1.356 . S
N616 H628 0.984 . S
N616 H629 0.985 . S
N617 C619 1.356 . S
N617 H622 0.984 . S
N617 H623 0.985 . S
C618 C612 1.379 . S
C618 C615 1.363 . S
C618 N616 1.356 . S
C619 C613 1.363 . S
C619 C614 1.379 . S
C619 N617 1.356 . S
N620 C612 1.356 . S
N620 H626 0.984 . S
N620 H627 0.984 . S
N621 C614 1.356 . S
N621 H624 0.984 . S
N621 H625 0.985 . S
H622 N617 0.984 . S
H623 N617 0.985 . S
H624 N621 0.984 . S
H625 N621 0.985 . S
H626 N620 0.984 . S
H627 N620 0.984 . S
H628 N616 0.984 . S
H629 N616 0.985 . S
C630 C631 1.363 . S
C630 C636 1.379 . S
C630 N638 1.356 . S
C631 C630 1.363 . S
C631 C637 1.363 . S
C632 C633 1.363 . S
C632 C637 1.379 . S
C632 N639 1.356 . S
C633 C632 1.363 . S
C633 C636 1.363 . S
N634 C636 1.356 . S
N634 H646 0.984 . S
N634 H647 0.985 . S
N635 C637 1.356 1_455 S
N635 H640 0.984 . S
N635 H641 0.985 . S
C636 C630 1.379 . S
C636 C633 1.363 . S
C636 N634 1.356 . S
C637 C631 1.363 . S
C637 C632 1.379 . S
C637 N635 1.356 1_655 S
N638 C630 1.356 . S
N638 H644 0.984 . S
N638 H645 0.984 . S
N639 C632 1.356 . S
N639 H642 0.984 . S
N639 H643 0.985 . S
H640 N635 0.984 . S
H641 N635 0.985 . S
H642 N639 0.984 . S
H643 N639 0.985 . S
H644 N638 0.984 . S
H645 N638 0.984 . S
H646 N634 0.984 . S
H647 N634 0.985 . S
C648 C649 1.363 . S
C648 C654 1.379 . S
C648 N656 1.356 1_545 S
C649 C648 1.363 . S
C649 C655 1.363 . S
C650 C651 1.363 . S
C650 C655 1.379 . S
C650 N657 1.356 . S
C651 C650 1.363 . S
C651 C654 1.363 . S
N652 C654 1.356 . S
N652 H664 0.984 . S
N652 H665 0.985 . S
N653 C655 1.356 . S
N653 H658 0.984 . S
N653 H659 0.985 . S
C654 C648 1.379 . S
C654 C651 1.363 . S
C654 N652 1.356 . S
C655 C649 1.363 . S
C655 C650 1.379 . S
C655 N653 1.356 . S
N656 C648 1.356 1_565 S
N656 H662 0.984 . S
N656 H663 0.984 . S
N657 C650 1.356 . S
N657 H660 0.984 . S
N657 H661 0.985 . S
H658 N653 0.984 . S
H659 N653 0.985 . S
H660 N657 0.984 . S
H661 N657 0.985 . S
H662 N656 0.984 . S
H663 N656 0.984 . S
H664 N652 0.984 . S
H665 N652 0.985 . S
C666 C667 1.363 . S
C666 C672 1.379 . S
C666 N674 1.356 . S
C667 C666 1.363 . S
C667 C673 1.363 . S
C668 C669 1.363 . S
C668 C673 1.379 . S
C668 N675 1.356 1_655 S
C669 C668 1.363 . S
C669 C672 1.363 . S
N670 C672 1.356 . S
N670 H682 0.984 . S
N670 H683 0.978 1_655 S
N671 C673 1.356 1_565 S
N671 H676 0.984 . S
N671 H677 0.985 . S
C672 C666 1.379 . S
C672 C669 1.363 . S
C672 N670 1.356 . S
C673 C667 1.363 . S
C673 C668 1.379 . S
C673 N671 1.356 1_545 S
N674 C666 1.356 . S
N674 H680 0.984 . S
N674 H681 0.984 . S
N675 C668 1.356 1_455 S
N675 H678 0.984 . S
N675 H679 0.985 . S
H676 N671 0.984 . S
H677 N671 0.985 . S
H678 N675 0.984 . S
H679 N675 0.985 . S
H680 N674 0.984 . S
H681 N674 0.984 . S
H682 N670 0.984 . S
H683 N670 0.978 1_455 S
C199 C18 1.394 . S
C201 C164 1.340 . S
C217 C30 1.394 . S
C219 C194 1.340 . S
C235 C142 1.340 . S
C237 C62 1.394 . S
C253 C169 1.438 . S
C255 C51 1.455 . S
C271 C183 1.438 . S
C273 C7 1.455 . S
C289 C147 1.438 . S
C291 C43 1.455 . S
C307 C40 1.340 . S
C309 C84 1.394 1_655 S
C325 C106 1.394 . S
C327 C54 1.340 . S
C343 C10 1.340 . S
C345 C120 1.394 1_545 S
C361 C29 1.438 . S
C363 C125 1.455 1_545 S
C379 C73 1.455 1_655 S
C381 C59 1.438 . S
C397 C15 1.438 . S
C399 C95 1.455 . S
C415 C150 1.394 . S
C417 C98 1.340 . S
C433 C118 1.340 . S
C435 C172 1.394 . S
C451 C184 1.394 . S
C453 C76 1.340 . S
C469 C197 1.455 . S
C471 C103 1.438 . S
C487 C131 1.438 . S
C489 C139 1.455 . S
C505 C81 1.438 . S
C507 C161 1.455 . S
C523 C8 1.080 . S
C525 C37 1.065 . S
C541 C65 1.065 . S
C543 C32 1.080 . S
C559 C52 1.080 . S
C561 C21 1.065 . S
C577 C109 1.065 . S
C579 C74 1.080 . S
C595 C117 1.065 . S
C597 C96 1.080 . S
C613 C128 1.080 . S
C615 C87 1.065 . S
C631 C175 1.065 1_655 S
C633 C140 1.080 . S
C649 C162 1.080 1_545 S
C651 C191 1.065 . S
C667 C153 1.065 1_545 S
C669 C186 1.080 1_655 S
