# Generated by pormake.
# Topology eci, (8)-cn, num edge types: 1
# Building blocks:
#     Node 0, Type 0, BuildingBlock: TAGTUT_clean_sbu_3, # of connection points: 8
#     Node 1, Type 0, BuildingBlock: TAGTUT_clean_sbu_3, # of connection points: 8
#     Node 2, Type 0, BuildingBlock: TAGTUT_clean_sbu_3, # of connection points: 8
#     Node 3, Type 0, BuildingBlock: TAGTUT_clean_sbu_3, # of connection points: 8
#     Edge 4, Type (0, 0), BuildingBlock: AJUNOK_clean_linker_0, # of connection points: 2
#     Edge 5, Type (0, 0), BuildingBlock: AJUNOK_clean_linker_0, # of connection points: 2
#     Edge 6, Type (0, 0), BuildingBlock: AJUNOK_clean_linker_0, # of connection points: 2
#     Edge 7, Type (0, 0), BuildingBlock: AJUNOK_clean_linker_0, # of connection points: 2
#     Edge 8, Type (0, 0), BuildingBlock: AJUNOK_clean_linker_0, # of connection points: 2
#     Edge 9, Type (0, 0), BuildingBlock: AJUNOK_clean_linker_0, # of connection points: 2
#     Edge 10, Type (0, 0), BuildingBlock: AJUNOK_clean_linker_0, # of connection points: 2
#     Edge 11, Type (0, 0), BuildingBlock: AJUNOK_clean_linker_0, # of connection points: 2
#     Edge 12, Type (0, 0), BuildingBlock: AJUNOK_clean_linker_0, # of connection points: 2
#     Edge 13, Type (0, 0), BuildingBlock: AJUNOK_clean_linker_0, # of connection points: 2
#     Edge 14, Type (0, 0), BuildingBlock: AJUNOK_clean_linker_0, # of connection points: 2
#     Edge 15, Type (0, 0), BuildingBlock: AJUNOK_clean_linker_0, # of connection points: 2
#     Edge 16, Type (0, 0), BuildingBlock: AJUNOK_clean_linker_0, # of connection points: 2
#     Edge 17, Type (0, 0), BuildingBlock: AJUNOK_clean_linker_0, # of connection points: 2
#     Edge 18, Type (0, 0), BuildingBlock: AJUNOK_clean_linker_0, # of connection points: 2
#     Edge 19, Type (0, 0), BuildingBlock: AJUNOK_clean_linker_0, # of connection points: 2
# Relax obj value: 0.321
# Max RMSD: 0.269
# Mean RMSD: 0.265
data_MOF--net-eci--node1-TAGTUT_clean_sbu_3--edge1-AJUNOK_clean_linker_0
_symmetry_space_group_name_H-M    P1
_symmetry_Int_Tables_number       1
_symmetry_cell_setting            triclinic
loop_
_symmetry_equiv_pos_as_xyz
'x, y, z'
_cell_length_a     24.405151
_cell_length_b     24.979435
_cell_length_c     12.128413
_cell_angle_alpha  89.87078
_cell_angle_beta   89.603019
_cell_angle_gamma 90.574502
loop_
_atom_site_label
_atom_site_type_symbol
_atom_site_fract_x
_atom_site_fract_y
_atom_site_fract_z
_atom_type_partial_charge
C0 C 0.72742 0.89549 0.09303 0.0
C1 C 0.58824 0.76072 -0.00112 0.0
C2 C 0.73293 0.6389 0.07204 0.0
Mg3 Mg 0.85359 0.90198 0.07246 0.0
Mg4 Mg 0.92192 0.84367 0.8727 0.0
O5 O 0.87326 0.83507 -0.00793 0.0
Mg6 Mg 0.79889 0.80005 -0.02047 0.0
O7 O 0.72272 0.77233 -0.01948 0.0
Mg8 Mg 0.70521 0.76852 0.14418 0.0
Mg9 Mg 0.69593 0.71816 0.89059 0.0
C10 C 0.88216 0.7292 0.84321 0.0
O11 O 0.7889 0.81312 0.788 0.0
O12 O 0.94517 0.90653 0.10462 0.0
O13 O 0.73454 0.74377 0.73825 0.0
O14 O 0.86397 0.95885 0.92964 0.0
O15 O 0.99103 0.85476 -0.01755 0.0
O16 O 0.90871 0.91911 0.79372 0.0
O17 O 0.7984 0.78086 0.16917 0.0
O18 O 0.84382 0.85283 0.22386 0.0
C19 C 0.8197 0.80895 0.24631 0.0
C20 C 0.98896 0.88386 0.06961 0.0
O21 O 0.8488 0.72431 0.92604 0.0
O22 O 0.6121 0.76572 0.09275 0.0
O23 O 0.88691 0.77377 0.79273 0.0
O24 O 0.72124 0.67445 0.14474 0.0
O25 O 0.61245 0.74107 0.91444 0.0
O26 O 0.72627 0.64769 0.96937 0.0
O27 O 0.76486 0.88002 0.0279 0.0
O28 O 0.69786 0.86187 0.14748 0.0
C29 C 0.88617 0.96016 0.83499 0.0
C30 C 0.76663 0.78304 0.71368 0.0
C31 C 0.61456 0.23459 0.28374 0.0
C32 C 0.77335 0.1179 0.18844 0.0
C33 C 0.88408 0.25364 0.29196 0.0
Mg34 Mg 0.59704 0.3571 0.28897 0.0
Mg35 Mg 0.65819 0.43536 0.10638 0.0
O36 O 0.66674 0.38746 0.22461 0.0
Mg37 Mg 0.71 0.32084 0.20213 0.0
O38 O 0.74685 0.25033 0.19154 0.0
Mg39 Mg 0.74664 0.22436 0.3474 0.0
Mg40 Mg 0.8057 0.23137 0.10376 0.0
C41 C 0.77768 0.42202 0.11125 0.0
O42 O 0.70455 0.31858 0.00799 0.0
O43 O 0.58506 0.44222 0.34174 0.0
O44 O 0.78001 0.27224 0.95933 0.0
O45 O 0.54385 0.37542 0.13907 0.0
O46 O 0.63056 0.49691 0.22264 0.0
O47 O 0.59752 0.40128 0.00211 0.0
O48 O 0.72422 0.31279 0.39039 0.0
O49 O 0.64373 0.34339 0.44665 0.0
C50 C 0.69122 0.32581 0.46799 0.0
C51 C 0.60313 0.48844 0.31207 0.0
O52 O 0.78312 0.3839 0.18245 0.0
O53 O 0.76013 0.13779 0.28233 0.0
O54 O 0.73885 0.41921 0.04253 0.0
O55 O 0.84389 0.24205 0.3578 0.0
O56 O 0.7924 0.14688 0.1098 0.0
O57 O 0.87731 0.25511 0.18806 0.0
O58 O 0.6278 0.27571 0.22705 0.0
O59 O 0.65148 0.20837 0.33517 0.0
C60 C 0.55009 0.39119 0.04015 0.0
C61 C 0.73787 0.29976 0.93463 0.0
C62 C 0.18923 0.16197 0.23006 0.0
C63 C 0.10122 -0.00441 0.37976 0.0
C64 C 0.04044 0.09229 0.65094 0.0
Mg65 Mg 0.24701 0.26289 0.34916 0.0
Mg66 Mg 0.3037 0.25566 0.59593 0.0
O67 O 0.24538 0.23692 0.50592 0.0
Mg68 Mg 0.20708 0.1664 0.496 0.0
O69 O 0.1622 0.09929 0.47547 0.0
Mg70 Mg 0.09453 0.1284 0.40748 0.0
Mg71 Mg 0.15201 0.04732 0.58727 0.0
C72 C 0.23397 0.18609 0.76362 0.0
O73 O 0.279 0.10486 0.51981 0.0
O74 O 0.26163 0.34999 0.4168 0.0
O75 O 0.23138 0.06658 0.65567 0.0
O76 O 0.34383 0.245 0.33903 0.0
O77 O 0.29146 0.34033 0.59023 0.0
O78 O 0.37538 0.23224 0.50956 0.0
O79 O 0.12612 0.21072 0.46902 0.0
O80 O 0.15201 0.2785 0.36145 0.0
C81 C 0.11439 0.25231 0.41366 0.0
C82 C 0.27423 0.36968 0.51134 0.0
O83 O 0.20034 0.16928 0.68911 0.0
O84 O 0.082 0.04165 0.35405 0.0
O85 O 0.27724 0.21374 0.74196 0.0
O86 O 0.04012 0.11385 0.55617 0.0
O87 O 0.12976 0.98696 0.46648 0.0
O88 O 0.08213 0.06749 0.68612 0.0
O89 O 0.22293 0.17419 0.30659 0.0
O90 O 0.14222 0.14256 0.25259 0.0
C91 C 0.38295 0.23307 0.40556 0.0
C92 C 0.27261 0.0666 0.59079 0.0
C93 C 0.32193 0.67217 0.47302 0.0
C94 C 0.4902 0.58732 0.63759 0.0
C95 C 0.3814 0.53353 0.89657 0.0
Mg96 Mg 0.21311 0.71768 0.59093 0.0
Mg97 Mg 0.21698 0.77198 0.8351 0.0
O98 O 0.23376 0.71244 0.75115 0.0
Mg99 Mg 0.30896 0.68458 0.74052 0.0
O100 O 0.38155 0.65032 0.71251 0.0
Mg101 Mg 0.35609 0.57958 0.6458 0.0
Mg102 Mg 0.42546 0.63703 0.83224 0.0
C103 C 0.28585 0.70642 0.00555 0.0
O104 O 0.35772 0.76186 0.79636 0.0
O105 O 0.12292 0.72495 0.66052 0.0
O106 O 0.4216 0.71591 0.89151 0.0
O107 O 0.23277 0.81201 0.58381 0.0
O108 O 0.13089 0.7593 0.8307 0.0
O109 O 0.24987 0.84001 0.75397 0.0
O110 O 0.27071 0.60392 0.69966 0.0
O111 O 0.20212 0.62447 0.58801 0.0
C112 C 0.23201 0.58972 0.63622 0.0
C113 C 0.10233 0.73704 0.75539 0.0
O114 O 0.30523 0.67336 0.93333 0.0
O115 O 0.44449 0.57099 0.5983 0.0
O116 O 0.25753 0.74711 -0.02088 0.0
O117 O 0.37286 0.52574 0.79482 0.0
O118 O 0.49451 0.61085 0.73107 0.0
O119 O 0.38187 0.58086 0.93289 0.0
O120 O 0.30504 0.70233 0.55161 0.0
O121 O 0.34274 0.62678 0.49302 0.0
C122 C 0.25045 0.84798 0.65058 0.0
C123 C 0.39695 0.75937 0.86761 0.0
C124 C 0.76496 0.76621 0.40065 0.0
C125 C 0.80954 0.79787 0.36522 0.0
C126 C 0.75106 0.76244 0.51311 0.0
C127 C 0.7809 0.79049 0.59474 0.0
H128 H 0.73974 0.74528 0.34129 0.0
H129 H 0.71613 0.73761 0.53587 0.0
S130 S 0.90422 0.87563 0.54471 0.0
N131 N 0.88633 0.85442 0.42148 0.0
N132 N 0.85844 0.8496 0.63049 0.0
C133 C 0.82609 0.82161 0.55999 0.0
C134 C 0.84096 0.8245 0.44616 0.0
C135 C 0.68113 0.35297 0.66508 0.0
C136 C 0.70606 0.31985 0.58543 0.0
C137 C 0.69158 0.34673 0.7779 0.0
C138 C 0.72713 0.3069 0.81536 0.0
H139 H 0.65322 0.38413 0.64005 0.0
H140 H 0.67179 0.37333 0.83584 0.0
S141 S 0.79973 0.20719 0.64076 0.0
N142 N 0.76651 0.24505 0.55267 0.0
N143 N 0.78533 0.2319 0.76331 0.0
C144 C 0.75203 0.27323 0.73631 0.0
C145 C 0.7418 0.28013 0.62175 0.0
C146 C 0.26405 0.16646 0.95548 0.0
C147 C 0.22139 0.17746 0.88117 0.0
C148 C 0.25426 0.16347 0.06951 0.0
C149 C 0.20155 0.17185 0.11253 0.0
H150 H 0.30531 0.15998 0.92506 0.0
H151 H 0.28769 0.15337 0.12376 0.0
S152 S 0.07817 0.21045 0.95414 0.0
N153 N 0.12609 0.20176 0.85933 0.0
N154 N 0.10745 0.19701 0.07316 0.0
C155 C 0.15904 0.18475 0.03913 0.0
C156 C 0.16894 0.1872 0.92345 0.0
C157 C 0.33573 0.6641 0.16238 0.0
C158 C 0.29527 0.69897 0.12504 0.0
C159 C 0.345 0.65742 0.27516 0.0
C160 C 0.31442 0.68552 0.35531 0.0
H161 H 0.3606 0.64197 0.10451 0.0
H162 H 0.37629 0.62941 0.29959 0.0
S163 S 0.20404 0.78261 0.30106 0.0
N164 N 0.22411 0.76254 0.17801 0.0
N165 N 0.24308 0.75036 0.38884 0.0
C166 C 0.27483 0.72147 0.31915 0.0
C167 C 0.26478 0.72798 0.20443 0.0
C168 C 0.46947 0.82143 0.84411 0.0
C169 C 0.42529 0.80656 0.91252 0.0
C170 C 0.52297 0.80757 0.8745 0.0
C171 C 0.53396 0.78557 -0.02047 0.0
H172 H 0.46211 0.83124 0.75841 0.0
H173 H 0.55521 0.81106 0.81296 0.0
S174 S 0.43453 0.77757 0.21108 0.0
N175 N 0.39763 0.79611 0.10399 0.0
N176 N 0.49835 0.77274 0.16568 0.0
C177 C 0.4918 0.7874 0.05876 0.0
C178 C 0.43738 0.80091 0.02562 0.0
C179 C 0.74743 0.02452 0.25042 0.0
C180 C 0.75908 0.06117 0.16445 0.0
C181 C 0.7325 0.97111 0.22784 0.0
C182 C 0.72807 0.95301 0.11863 0.0
H183 H 0.75118 0.03677 0.33567 0.0
H184 H 0.72719 0.9433 0.29587 0.0
S185 S 0.74771 0.03348 0.86396 0.0
N186 N 0.76065 0.07559 0.96526 0.0
N187 N 0.73211 0.97604 0.92434 0.0
C188 C 0.73689 0.9897 0.03244 0.0
C189 C 0.75264 0.0435 0.05486 0.0
C190 C 0.4591 0.24884 0.26696 0.0
C191 C 0.44014 0.22422 0.36455 0.0
C192 C 0.51518 0.24922 0.23868 0.0
C193 C 0.55483 0.225 0.30649 0.0
H194 H 0.43095 0.27039 0.21482 0.0
H195 H 0.52775 0.27028 0.16449 0.0
S196 S 0.52532 0.14768 0.56211 0.0
N197 N 0.46484 0.16915 0.52223 0.0
N198 N 0.56967 0.17043 0.46949 0.0
C199 C 0.53583 0.19685 0.39997 0.0
C200 C 0.47877 0.19646 0.4289 0.0
C201 C 0.2508 0.92561 0.51584 0.0
C202 C 0.27208 0.90071 0.61032 0.0
C203 C 0.26111 0.98042 0.49466 0.0
C204 C 0.29237 0.01206 0.56783 0.0
H205 H 0.22217 0.90419 0.46377 0.0
H206 H 0.23866 -0.00041 0.42897 0.0
S207 S 0.37006 0.96225 0.80735 0.0
N208 N 0.3366 0.90904 0.76185 0.0
N209 N 0.35355 0.01179 0.72392 0.0
C210 C 0.32004 0.98565 0.65249 0.0
C211 C 0.31013 0.93012 0.6738 0.0
C212 C 0.95379 0.6907 0.72878 0.0
C213 C 0.93294 0.69846 0.83631 0.0
C214 C 0.00894 0.70187 0.70306 0.0
C215 C 0.04546 0.71956 0.78478 0.0
H216 H 0.92568 0.68413 0.66119 0.0
H217 H 0.02195 0.70002 0.61763 0.0
S218 S 0.01461 0.72669 0.08569 0.0
N219 N 0.95539 0.71108 0.02865 0.0
N220 N 0.05927 0.73033 -0.01697 0.0
C221 C 0.0268 0.71842 0.89558 0.0
C222 C 0.97068 0.70703 0.92101 0.0
C223 C 0.75851 0.50494 0.21577 0.0
C224 C 0.79182 0.4783 0.13793 0.0
C225 C 0.74229 0.5586 0.19943 0.0
C226 C 0.75882 0.5872 0.10449 0.0
H227 H 0.73924 0.48226 0.28197 0.0
H228 H 0.71298 0.57598 0.25611 0.0
S229 S 0.85913 0.54087 0.89457 0.0
N230 N 0.84992 0.48863 -0.02343 0.0
N231 N 0.82061 0.58878 0.94619 0.0
C232 C 0.79831 0.5634 0.03534 0.0
C233 C 0.81491 0.50932 0.05261 0.0
C234 C 0.98292 0.27845 0.2579 0.0
C235 C 0.94141 0.26163 0.33279 0.0
C236 C 0.03856 0.27885 0.28671 0.0
C237 C 0.05539 0.2622 0.39163 0.0
H238 H 0.97273 0.28962 0.17423 0.0
H239 H 0.06871 0.28947 0.22421 0.0
S240 S 0.96376 0.22273 0.62449 0.0
N241 N 0.92158 0.23378 0.5212 0.0
N242 N 0.026 0.23471 0.57539 0.0
C243 C 0.01441 0.24876 0.46983 0.0
C244 C 0.95758 0.24853 0.44059 0.0
C245 C 0.25897 0.44217 0.64898 0.0
C246 C 0.26145 0.42653 0.53741 0.0
C247 C 0.2451 0.49418 0.67947 0.0
C248 C 0.23294 0.53327 0.60029 0.0
H249 H 0.26797 0.41409 0.7144 0.0
H250 H 0.24566 0.50443 0.76629 0.0
S251 S 0.23441 0.51463 0.29707 0.0
N252 N 0.25025 0.45515 0.34683 0.0
N253 N 0.22497 0.5537 0.40516 0.0
C254 C 0.23422 0.51854 0.48843 0.0
C255 C 0.24837 0.46509 0.45686 0.0
C256 C 0.06062 0.90773 0.3301 0.0
C257 C 0.09201 0.95271 0.29997 0.0
C258 C 0.03344 0.87796 0.24916 0.0
C259 C 0.03738 0.89258 0.13709 0.0
H260 H 0.05181 0.89943 0.41619 0.0
H261 H 1.00383 0.8478 0.27539 0.0
S262 S 0.12576 -0.00122 0.01658 0.0
N263 N 0.13454 0.00401 0.15111 0.0
N264 N 0.08291 0.9479 -0.00082 0.0
C265 C 0.07507 0.93228 0.1056 0.0
C266 C 0.1025 0.96269 0.18759 0.0
C267 C 0.60579 0.51868 0.50419 0.0
C268 C 0.59505 0.53101 0.39285 0.0
C269 C 0.5771 0.54376 0.58943 0.0
C270 C 0.53752 0.58186 0.56447 0.0
H271 H 0.63142 0.48493 0.52475 0.0
H272 H 0.58081 0.52848 0.67274 0.0
S273 S 0.50621 0.63848 0.28938 0.0
N274 N 0.55148 0.59122 0.26433 0.0
N275 N 0.49767 0.63934 0.42468 0.0
C276 C 0.53327 0.60059 0.45526 0.0
C277 C 0.56228 0.57485 0.3687 0.0
C278 C 0.9465 0.05675 0.63556 0.0
C279 C 0.98733 0.07989 0.7025 0.0
C280 C 0.90682 0.02227 0.68087 0.0
C281 C 0.9056 0.01225 0.79449 0.0
H282 H 0.94961 0.05925 0.5465 0.0
H283 H 0.88099 -0.00085 0.626 0.0
S284 S 0.99392 0.07524 0.00671 0.0
N285 N 0.01824 0.09813 0.8881 0.0
N286 N 0.94073 0.03703 -0.02486 0.0
C287 C 0.94017 0.04257 0.86355 0.0
C288 C 0.98208 0.07557 0.81693 0.0
C289 C 0.4531 0.40588 -0.02053 0.0
C290 C 0.50638 0.42535 -0.00114 0.0
C291 C 0.41105 0.44124 0.95008 0.0
C292 C 0.42084 0.49685 0.94612 0.0
H293 H 0.44426 0.36339 -0.01461 0.0
H294 H 0.371 0.42518 0.92967 0.0
S295 S 0.55336 0.56728 -0.00461 0.0
N296 N 0.56653 0.50332 0.01306 0.0
N297 N 0.48765 0.56935 0.96593 0.0
C298 C 0.47369 0.51646 0.96956 0.0
C299 C 0.51645 0.48077 -0.00589 0.0
loop_
_geom_bond_atom_site_label_1
_geom_bond_atom_site_label_2
_geom_bond_distance
_geom_bond_site_symmetry_2
_ccdc_geom_bond_type
C0 O27 1.312 . S
C0 O28 1.208 . S
C1 O22 1.339 . S
C1 O25 1.244 . S
C2 O24 1.264 . S
C2 O26 1.273 1_554 S
Mg3 O5 1.936 . S
Mg3 O12 2.081 . S
Mg3 O14 2.023 1_554 S
Mg3 O18 2.031 . S
Mg3 O27 2.291 . S
Mg4 O5 1.963 1_556 S
Mg4 O15 1.942 1_656 S
Mg4 O16 1.955 . S
Mg4 O23 1.986 . S
O5 Mg3 1.936 . S
O5 Mg4 1.963 1_554 S
O5 Mg6 1.915 1_554 S
Mg6 O5 1.915 1_556 S
Mg6 O7 1.915 . S
Mg6 O11 2.013 . S
Mg6 O17 2.114 1_556 S
Mg6 O21 2.013 . S
Mg6 O27 2.114 1_556 S
O7 Mg6 1.915 . S
O7 Mg8 1.936 1_556 S
O7 Mg9 1.963 . S
Mg8 O7 1.936 1_554 S
Mg8 O17 2.291 . S
Mg8 O22 2.076 1_554 S
Mg8 O24 2.023 . S
Mg8 O28 2.031 . S
Mg9 O7 1.963 . S
Mg9 O13 1.986 . S
Mg9 O25 1.942 . S
Mg9 O26 1.955 . S
C10 O21 1.191 . S
C10 O23 1.307 . S
O11 Mg6 2.013 . S
O11 C30 1.191 . S
O12 Mg3 2.081 . S
O12 C20 1.331 1_655 S
O13 Mg9 1.986 . S
O13 C30 1.307 . S
O14 Mg3 2.023 1_556 S
O14 C29 1.264 . S
O15 Mg4 1.942 1_454 S
O15 C20 1.244 . S
O16 Mg4 1.955 . S
O16 C29 1.273 . S
O17 Mg6 2.114 1_554 S
O17 Mg8 2.291 . S
O17 C19 1.312 . S
O18 Mg3 2.031 . S
O18 C19 1.208 . S
C19 O17 1.312 . S
C19 O18 1.208 . S
C20 O12 1.331 1_455 S
C20 O15 1.244 . S
O21 Mg6 2.013 . S
O21 C10 1.191 . S
O22 C1 1.339 . S
O22 Mg8 2.076 1_556 S
O23 Mg4 1.986 . S
O23 C10 1.307 . S
O24 C2 1.264 . S
O24 Mg8 2.023 . S
O25 C1 1.244 . S
O25 Mg9 1.942 . S
O26 C2 1.273 1_556 S
O26 Mg9 1.955 . S
O27 C0 1.312 . S
O27 Mg3 2.291 . S
O27 Mg6 2.114 1_554 S
O28 C0 1.208 . S
O28 Mg8 2.031 . S
C29 O14 1.264 . S
C29 O16 1.273 . S
C30 O11 1.191 . S
C30 O13 1.307 . S
C31 O58 1.312 . S
C31 O59 1.208 . S
C32 O53 1.331 . S
C32 O56 1.244 . S
C33 O55 1.264 . S
C33 O57 1.273 . S
Mg34 O36 1.936 . S
Mg34 O43 2.081 . S
Mg34 O45 2.023 . S
Mg34 O49 2.031 . S
Mg34 O58 2.291 . S
Mg35 O36 1.963 . S
Mg35 O46 1.942 . S
Mg35 O47 1.955 . S
Mg35 O54 1.986 . S
O36 Mg34 1.936 . S
O36 Mg35 1.963 . S
O36 Mg37 1.915 . S
Mg37 O36 1.915 . S
Mg37 O38 1.915 . S
Mg37 O42 2.013 . S
Mg37 O48 2.114 . S
Mg37 O52 2.013 . S
Mg37 O58 2.114 . S
O38 Mg37 1.915 . S
O38 Mg39 1.936 . S
O38 Mg40 1.963 . S
Mg39 O38 1.936 . S
Mg39 O48 2.291 . S
Mg39 O53 2.081 . S
Mg39 O55 2.023 . S
Mg39 O59 2.031 . S
Mg40 O38 1.963 . S
Mg40 O44 1.986 1_554 S
Mg40 O56 1.942 . S
Mg40 O57 1.955 . S
C41 O52 1.191 . S
C41 O54 1.307 . S
O42 Mg37 2.013 . S
O42 C61 1.191 1_554 S
O43 Mg34 2.081 . S
O43 C51 1.331 . S
O44 Mg40 1.986 1_556 S
O44 C61 1.307 . S
O45 Mg34 2.023 . S
O45 C60 1.264 . S
O46 Mg35 1.942 . S
O46 C51 1.244 . S
O47 Mg35 1.955 . S
O47 C60 1.273 . S
O48 Mg37 2.114 . S
O48 Mg39 2.291 . S
O48 C50 1.312 . S
O49 Mg34 2.031 . S
O49 C50 1.208 . S
C50 O48 1.312 . S
C50 O49 1.208 . S
C51 O43 1.331 . S
C51 O46 1.244 . S
O52 Mg37 2.013 . S
O52 C41 1.191 . S
O53 C32 1.331 . S
O53 Mg39 2.081 . S
O54 Mg35 1.986 . S
O54 C41 1.307 . S
O55 C33 1.264 . S
O55 Mg39 2.023 . S
O56 C32 1.244 . S
O56 Mg40 1.942 . S
O57 C33 1.273 . S
O57 Mg40 1.955 . S
O58 C31 1.312 . S
O58 Mg34 2.291 . S
O58 Mg37 2.114 . S
O59 C31 1.208 . S
O59 Mg39 2.031 . S
C60 O45 1.264 . S
C60 O47 1.273 . S
C61 O42 1.191 1_556 S
C61 O44 1.307 . S
C62 O89 1.312 . S
C62 O90 1.208 . S
C63 O84 1.331 1_565 S
C63 O87 1.244 . S
C64 O86 1.264 . S
C64 O88 1.273 . S
Mg65 O67 1.936 . S
Mg65 O74 2.081 . S
Mg65 O76 2.023 . S
Mg65 O80 2.031 . S
Mg65 O89 2.291 . S
Mg66 O67 1.963 . S
Mg66 O77 1.942 . S
Mg66 O78 1.955 . S
Mg66 O85 1.986 . S
O67 Mg65 1.936 . S
O67 Mg66 1.963 . S
O67 Mg68 1.915 . S
Mg68 O67 1.915 . S
Mg68 O69 1.915 . S
Mg68 O73 2.013 . S
Mg68 O79 2.114 . S
Mg68 O83 2.013 . S
Mg68 O89 2.114 . S
O69 Mg68 1.915 . S
O69 Mg70 1.936 . S
O69 Mg71 1.963 . S
Mg70 O69 1.936 . S
Mg70 O79 2.291 . S
Mg70 O84 2.081 . S
Mg70 O86 2.023 . S
Mg70 O90 2.031 . S
Mg71 O69 1.963 . S
Mg71 O75 1.986 . S
Mg71 O87 1.942 1_545 S
Mg71 O88 1.955 . S
C72 O83 1.191 . S
C72 O85 1.307 . S
O73 Mg68 2.013 . S
O73 C92 1.191 . S
O74 Mg65 2.081 . S
O74 C82 1.331 . S
O75 Mg71 1.986 . S
O75 C92 1.307 . S
O76 Mg65 2.023 . S
O76 C91 1.264 . S
O77 Mg66 1.942 . S
O77 C82 1.244 . S
O78 Mg66 1.955 . S
O78 C91 1.273 . S
O79 Mg68 2.114 . S
O79 Mg70 2.291 . S
O79 C81 1.312 . S
O80 Mg65 2.031 . S
O80 C81 1.208 . S
C81 O79 1.312 . S
C81 O80 1.208 . S
C82 O74 1.331 . S
C82 O77 1.244 . S
O83 Mg68 2.013 . S
O83 C72 1.191 . S
O84 C63 1.331 1_545 S
O84 Mg70 2.081 . S
O85 Mg66 1.986 . S
O85 C72 1.307 . S
O86 C64 1.264 . S
O86 Mg70 2.023 . S
O87 C63 1.244 . S
O87 Mg71 1.942 1_565 S
O88 C64 1.273 . S
O88 Mg71 1.955 . S
O89 C62 1.312 . S
O89 Mg65 2.291 . S
O89 Mg68 2.114 . S
O90 C62 1.208 . S
O90 Mg70 2.031 . S
C91 O76 1.264 . S
C91 O78 1.273 . S
C92 O73 1.191 . S
C92 O75 1.307 . S
C93 O120 1.312 . S
C93 O121 1.208 . S
C94 O115 1.331 . S
C94 O118 1.244 . S
C95 O117 1.264 . S
C95 O119 1.273 . S
Mg96 O98 1.936 . S
Mg96 O105 2.081 . S
Mg96 O107 2.023 . S
Mg96 O111 2.031 . S
Mg96 O120 2.291 . S
Mg97 O98 1.963 . S
Mg97 O108 1.942 . S
Mg97 O109 1.955 . S
Mg97 O116 1.986 1_556 S
O98 Mg96 1.936 . S
O98 Mg97 1.963 . S
O98 Mg99 1.915 . S
Mg99 O98 1.915 . S
Mg99 O100 1.915 . S
Mg99 O104 2.013 . S
Mg99 O110 2.114 . S
Mg99 O114 2.013 . S
Mg99 O120 2.114 . S
O100 Mg99 1.915 . S
O100 Mg101 1.936 . S
O100 Mg102 1.963 . S
Mg101 O100 1.936 . S
Mg101 O110 2.291 . S
Mg101 O115 2.081 . S
Mg101 O117 2.023 . S
Mg101 O121 2.031 . S
Mg102 O100 1.963 . S
Mg102 O106 1.986 . S
Mg102 O118 1.942 . S
Mg102 O119 1.955 . S
C103 O114 1.191 1_554 S
C103 O116 1.307 . S
O104 Mg99 2.013 . S
O104 C123 1.191 . S
O105 Mg96 2.081 . S
O105 C113 1.331 . S
O106 Mg102 1.986 . S
O106 C123 1.307 . S
O107 Mg96 2.023 . S
O107 C122 1.264 . S
O108 Mg97 1.942 . S
O108 C113 1.244 . S
O109 Mg97 1.955 . S
O109 C122 1.273 . S
O110 Mg99 2.114 . S
O110 Mg101 2.291 . S
O110 C112 1.312 . S
O111 Mg96 2.031 . S
O111 C112 1.208 . S
C112 O110 1.312 . S
C112 O111 1.208 . S
C113 O105 1.331 . S
C113 O108 1.244 . S
O114 Mg99 2.013 . S
O114 C103 1.191 1_556 S
O115 C94 1.331 . S
O115 Mg101 2.081 . S
O116 Mg97 1.986 1_554 S
O116 C103 1.307 . S
O117 C95 1.264 . S
O117 Mg101 2.023 . S
O118 C94 1.244 . S
O118 Mg102 1.942 . S
O119 C95 1.273 . S
O119 Mg102 1.955 . S
O120 C93 1.312 . S
O120 Mg96 2.291 . S
O120 Mg99 2.114 . S
O121 C93 1.208 . S
O121 Mg101 2.031 . S
C122 O107 1.264 . S
C122 O109 1.273 . S
C123 O104 1.191 . S
C123 O106 1.307 . S
C124 C125 1.369 . S
C124 C126 1.419 . S
C124 H128 0.930 . S
C125 C124 1.369 . S
C125 C134 1.429 . S
C126 C124 1.419 . S
C126 C127 1.363 . S
C126 H129 0.929 . S
C127 C126 1.363 . S
C127 C133 1.428 . S
H128 C124 0.930 . S
H129 C126 0.929 . S
S130 N131 1.613 . S
S130 N132 1.610 . S
N131 S130 1.613 . S
N131 C134 1.350 . S
N132 S130 1.610 . S
N132 C133 1.351 . S
C133 C127 1.428 . S
C133 N132 1.351 . S
C133 C134 1.434 . S
C134 C125 1.429 . S
C134 N131 1.350 . S
C134 C133 1.434 . S
C135 C136 1.369 . S
C135 C137 1.419 . S
C135 H139 0.930 . S
C136 C135 1.369 . S
C136 C145 1.429 . S
C137 C135 1.419 . S
C137 C138 1.363 . S
C137 H140 0.929 . S
C138 C137 1.363 . S
C138 C144 1.428 . S
H139 C135 0.930 . S
H140 C137 0.929 . S
S141 N142 1.613 . S
S141 N143 1.610 . S
N142 S141 1.613 . S
N142 C145 1.350 . S
N143 S141 1.610 . S
N143 C144 1.351 . S
C144 C138 1.428 . S
C144 N143 1.351 . S
C144 C145 1.434 . S
C145 C136 1.429 . S
C145 N142 1.350 . S
C145 C144 1.434 . S
C146 C147 1.369 . S
C146 C148 1.419 1_556 S
C146 H150 0.930 . S
C147 C146 1.369 . S
C147 C156 1.429 . S
C148 C146 1.419 1_554 S
C148 C149 1.363 . S
C148 H151 0.929 . S
C149 C148 1.363 . S
C149 C155 1.428 . S
H150 C146 0.930 . S
H151 C148 0.929 . S
S152 N153 1.613 1_554 S
S152 N154 1.610 . S
N153 S152 1.613 1_556 S
N153 C156 1.350 . S
N154 S152 1.610 . S
N154 C155 1.351 . S
C155 C149 1.428 . S
C155 N154 1.351 . S
C155 C156 1.434 1_554 S
C156 C147 1.429 . S
C156 N153 1.350 . S
C156 C155 1.434 1_556 S
C157 C158 1.369 . S
C157 C159 1.419 . S
C157 H161 0.930 . S
C158 C157 1.369 . S
C158 C167 1.429 . S
C159 C157 1.419 . S
C159 C160 1.363 . S
C159 H162 0.929 . S
C160 C159 1.363 . S
C160 C166 1.428 . S
H161 C157 0.930 . S
H162 C159 0.929 . S
S163 N164 1.613 . S
S163 N165 1.610 . S
N164 S163 1.613 . S
N164 C167 1.350 . S
N165 S163 1.610 . S
N165 C166 1.351 . S
C166 C160 1.428 . S
C166 N165 1.351 . S
C166 C167 1.434 . S
C167 C158 1.429 . S
C167 N164 1.350 . S
C167 C166 1.434 . S
C168 C169 1.369 . S
C168 C170 1.419 . S
C168 H172 0.930 . S
C169 C168 1.369 . S
C169 C178 1.429 . S
C170 C168 1.419 . S
C170 C171 1.363 . S
C170 H173 0.929 . S
C171 C170 1.363 . S
C171 C177 1.428 . S
H172 C168 0.930 . S
H173 C170 0.929 . S
S174 N175 1.613 . S
S174 N176 1.610 . S
N175 S174 1.613 . S
N175 C178 1.350 . S
N176 S174 1.610 . S
N176 C177 1.351 . S
C177 C171 1.428 . S
C177 N176 1.351 . S
C177 C178 1.434 . S
C178 C169 1.429 . S
C178 N175 1.350 . S
C178 C177 1.434 . S
C179 C180 1.369 . S
C179 C181 1.419 . S
C179 H183 0.930 . S
C180 C179 1.369 . S
C180 C189 1.429 1_554 S
C181 C179 1.419 . S
C181 C182 1.363 1_545 S
C181 H184 0.929 1_545 S
C182 C181 1.363 1_565 S
C182 C188 1.428 1_564 S
H183 C179 0.930 . S
H184 C181 0.929 1_565 S
S185 N186 1.613 . S
S185 N187 1.610 . S
N186 S185 1.613 . S
N186 C189 1.350 . S
N187 S185 1.610 . S
N187 C188 1.351 . S
C188 C182 1.428 1_546 S
C188 N187 1.351 . S
C188 C189 1.434 . S
C189 C180 1.429 1_556 S
C189 N186 1.350 . S
C189 C188 1.434 . S
C190 C191 1.369 . S
C190 C192 1.419 . S
C190 H194 0.930 . S
C191 C190 1.369 . S
C191 C200 1.429 . S
C192 C190 1.419 . S
C192 C193 1.363 . S
C192 H195 0.929 . S
C193 C192 1.363 . S
C193 C199 1.428 . S
H194 C190 0.930 . S
H195 C192 0.929 . S
S196 N197 1.613 . S
S196 N198 1.610 . S
N197 S196 1.613 . S
N197 C200 1.350 . S
N198 S196 1.610 . S
N198 C199 1.351 . S
C199 C193 1.428 . S
C199 N198 1.351 . S
C199 C200 1.434 . S
C200 C191 1.429 . S
C200 N197 1.350 . S
C200 C199 1.434 . S
C201 C202 1.369 . S
C201 C203 1.419 . S
C201 H205 0.930 . S
C202 C201 1.369 . S
C202 C211 1.429 . S
C203 C201 1.419 . S
C203 C204 1.363 1_565 S
C203 H206 0.929 . S
C204 C203 1.363 1_545 S
C204 C210 1.428 1_545 S
H205 C201 0.930 . S
H206 C203 0.929 . S
S207 N208 1.613 . S
S207 N209 1.610 . S
N208 S207 1.613 . S
N208 C211 1.350 . S
N209 S207 1.610 . S
N209 C210 1.351 . S
C210 C204 1.428 1_565 S
C210 N209 1.351 . S
C210 C211 1.434 . S
C211 C202 1.429 . S
C211 N208 1.350 . S
C211 C210 1.434 . S
C212 C213 1.369 1_455 S
C212 C214 1.419 . S
C212 H216 0.930 1_455 S
C213 C212 1.369 1_655 S
C213 C222 1.429 1_655 S
C214 C212 1.419 . S
C214 C215 1.363 . S
C214 H217 0.929 . S
C215 C214 1.363 . S
C215 C221 1.428 . S
H216 C212 0.930 1_655 S
H217 C214 0.929 . S
S218 N219 1.613 1_455 S
S218 N220 1.610 1_554 S
N219 S218 1.613 1_655 S
N219 C222 1.350 1_654 S
N220 S218 1.610 1_556 S
N220 C221 1.351 . S
C221 C215 1.428 . S
C221 N220 1.351 . S
C221 C222 1.434 . S
C222 C213 1.429 1_455 S
C222 N219 1.350 1_456 S
C222 C221 1.434 . S
C223 C224 1.369 . S
C223 C225 1.419 . S
C223 H227 0.930 . S
C224 C223 1.369 . S
C224 C233 1.429 . S
C225 C223 1.419 . S
C225 C226 1.363 . S
C225 H228 0.929 . S
C226 C225 1.363 . S
C226 C232 1.428 . S
H227 C223 0.930 . S
H228 C225 0.929 . S
S229 N230 1.613 . S
S229 N231 1.610 . S
N230 S229 1.613 . S
N230 C233 1.350 . S
N231 S229 1.610 . S
N231 C232 1.351 . S
C232 C226 1.428 . S
C232 N231 1.351 . S
C232 C233 1.434 . S
C233 C224 1.429 . S
C233 N230 1.350 . S
C233 C232 1.434 . S
C234 C235 1.369 . S
C234 C236 1.419 . S
C234 H238 0.930 . S
C235 C234 1.369 . S
C235 C244 1.429 . S
C236 C234 1.419 . S
C236 C237 1.363 1_655 S
C236 H239 0.929 1_655 S
C237 C236 1.363 1_455 S
C237 C243 1.428 1_455 S
H238 C234 0.930 . S
H239 C236 0.929 1_455 S
S240 N241 1.613 . S
S240 N242 1.610 . S
N241 S240 1.613 . S
N241 C244 1.350 . S
N242 S240 1.610 . S
N242 C243 1.351 . S
C243 C237 1.428 1_655 S
C243 N242 1.351 . S
C243 C244 1.434 . S
C244 C235 1.429 . S
C244 N241 1.350 . S
C244 C243 1.434 . S
C245 C246 1.369 . S
C245 C247 1.419 . S
C245 H249 0.930 . S
C246 C245 1.369 . S
C246 C255 1.429 . S
C247 C245 1.419 . S
C247 C248 1.363 . S
C247 H250 0.929 . S
C248 C247 1.363 . S
C248 C254 1.428 . S
H249 C245 0.930 . S
H250 C247 0.929 . S
S251 N252 1.613 . S
S251 N253 1.610 . S
N252 S251 1.613 . S
N252 C255 1.350 . S
N253 S251 1.610 . S
N253 C254 1.351 . S
C254 C248 1.428 . S
C254 N253 1.351 . S
C254 C255 1.434 . S
C255 C246 1.429 . S
C255 N252 1.350 . S
C255 C254 1.434 . S
C256 C257 1.369 . S
C256 C258 1.419 . S
C256 H260 0.930 . S
C257 C256 1.369 . S
C257 C266 1.429 1_565 S
C258 C256 1.419 . S
C258 C259 1.363 . S
C258 H261 0.929 . S
C259 C258 1.363 . S
C259 C265 1.428 . S
H260 C256 0.930 . S
H261 C258 0.929 . S
S262 N263 1.613 . S
S262 N264 1.610 . S
N263 S262 1.613 . S
N263 C266 1.350 . S
N264 S262 1.610 . S
N264 C265 1.351 1_545 S
C265 C259 1.428 . S
C265 N264 1.351 1_565 S
C265 C266 1.434 1_565 S
C266 C257 1.429 1_545 S
C266 N263 1.350 . S
C266 C265 1.434 1_545 S
C267 C268 1.369 . S
C267 C269 1.419 . S
C267 H271 0.930 . S
C268 C267 1.369 . S
C268 C277 1.429 . S
C269 C267 1.419 . S
C269 C270 1.363 . S
C269 H272 0.929 . S
C270 C269 1.363 . S
C270 C276 1.428 . S
H271 C267 0.930 . S
H272 C269 0.929 . S
S273 N274 1.613 . S
S273 N275 1.610 . S
N274 S273 1.613 . S
N274 C277 1.350 . S
N275 S273 1.610 . S
N275 C276 1.351 . S
C276 C270 1.428 . S
C276 N275 1.351 . S
C276 C277 1.434 . S
C277 C268 1.429 . S
C277 N274 1.350 . S
C277 C276 1.434 . S
C278 C279 1.369 . S
C278 C280 1.419 . S
C278 H282 0.930 . S
C279 C278 1.369 . S
C279 C288 1.429 1_655 S
C280 C278 1.419 . S
C280 C281 1.363 . S
C280 H283 0.929 . S
C281 C280 1.363 . S
C281 C287 1.428 . S
H282 C278 0.930 . S
H283 C280 0.929 . S
S284 N285 1.613 . S
S284 N286 1.610 1_455 S
N285 S284 1.613 . S
N285 C288 1.350 . S
N286 S284 1.610 1_655 S
N286 C287 1.351 . S
C287 C281 1.428 . S
C287 N286 1.351 . S
C287 C288 1.434 1_655 S
C288 C279 1.429 1_455 S
C288 N285 1.350 . S
C288 C287 1.434 1_455 S
C289 C290 1.369 . S
C289 C291 1.419 1_554 S
C289 H293 0.930 . S
C290 C289 1.369 . S
C290 C299 1.429 . S
C291 C289 1.419 1_556 S
C291 C292 1.363 . S
C291 H294 0.929 . S
C292 C291 1.363 . S
C292 C298 1.428 . S
H293 C289 0.930 . S
H294 C291 0.929 . S
S295 N296 1.613 1_556 S
S295 N297 1.610 . S
N296 S295 1.613 1_554 S
N296 C299 1.350 . S
N297 S295 1.610 . S
N297 C298 1.351 . S
C298 C292 1.428 . S
C298 N297 1.351 . S
C298 C299 1.434 1_556 S
C299 C290 1.429 . S
C299 N296 1.350 . S
C299 C298 1.434 1_554 S
C125 C19 1.377 . S
C127 C30 1.412 . S
C136 C50 1.386 . S
C138 C61 1.404 . S
C147 C72 1.410 . S
C149 C62 1.380 . S
C158 C103 1.409 . S
C160 C93 1.381 . S
C169 C123 1.462 . S
C171 C1 1.691 . S
C180 C32 1.809 . S
C182 C0 1.725 . S
C191 C91 2.026 . S
C193 C31 1.951 . S
C202 C122 1.904 . S
C204 C92 1.664 . S
C213 C10 1.462 . S
C215 C113 1.692 . S
C224 C41 1.676 . S
C226 C2 1.907 . S
C235 C33 2.029 . S
C237 C81 1.956 . S
C246 C82 1.805 . S
C248 C112 1.718 . S
C257 C63 0.542 . S
C259 C20 0.549 . S
C268 C51 0.556 . S
C270 C94 0.563 . S
C279 C64 0.760 1_655 S
C281 C29 0.757 1_545 S
C290 C60 0.754 . S
C292 C95 0.756 . S
