# Generated by pormake.
# Topology wje, (4)-cn, num edge types: 1
# Building blocks:
#     Node 0, Type 0, BuildingBlock: QUQFOY_clean_sbu_1, # of connection points: 4
#     Node 1, Type 0, BuildingBlock: QUQFOY_clean_sbu_1, # of connection points: 4
#     Node 2, Type 0, BuildingBlock: QUQFOY_clean_sbu_1, # of connection points: 4
#     Node 3, Type 0, BuildingBlock: QUQFOY_clean_sbu_1, # of connection points: 4
#     Node 4, Type 0, BuildingBlock: QUQFOY_clean_sbu_1, # of connection points: 4
#     Node 5, Type 0, BuildingBlock: QUQFOY_clean_sbu_1, # of connection points: 4
#     Node 6, Type 0, BuildingBlock: QUQFOY_clean_sbu_1, # of connection points: 4
#     Node 7, Type 0, BuildingBlock: QUQFOY_clean_sbu_1, # of connection points: 4
#     Node 8, Type 0, BuildingBlock: QUQFOY_clean_sbu_1, # of connection points: 4
#     Node 9, Type 0, BuildingBlock: QUQFOY_clean_sbu_1, # of connection points: 4
#     Node 10, Type 0, BuildingBlock: QUQFOY_clean_sbu_1, # of connection points: 4
#     Node 11, Type 0, BuildingBlock: QUQFOY_clean_sbu_1, # of connection points: 4
#     Edge 12, Type (0, 0), BuildingBlock: OJICUG_clean_linker_0, # of connection points: 2
#     Edge 13, Type (0, 0), BuildingBlock: OJICUG_clean_linker_0, # of connection points: 2
#     Edge 14, Type (0, 0), BuildingBlock: OJICUG_clean_linker_0, # of connection points: 2
#     Edge 15, Type (0, 0), BuildingBlock: OJICUG_clean_linker_0, # of connection points: 2
#     Edge 16, Type (0, 0), BuildingBlock: OJICUG_clean_linker_0, # of connection points: 2
#     Edge 17, Type (0, 0), BuildingBlock: OJICUG_clean_linker_0, # of connection points: 2
#     Edge 18, Type (0, 0), BuildingBlock: OJICUG_clean_linker_0, # of connection points: 2
#     Edge 19, Type (0, 0), BuildingBlock: OJICUG_clean_linker_0, # of connection points: 2
#     Edge 20, Type (0, 0), BuildingBlock: OJICUG_clean_linker_0, # of connection points: 2
#     Edge 21, Type (0, 0), BuildingBlock: OJICUG_clean_linker_0, # of connection points: 2
#     Edge 22, Type (0, 0), BuildingBlock: OJICUG_clean_linker_0, # of connection points: 2
#     Edge 23, Type (0, 0), BuildingBlock: OJICUG_clean_linker_0, # of connection points: 2
#     Edge 24, Type (0, 0), BuildingBlock: OJICUG_clean_linker_0, # of connection points: 2
#     Edge 25, Type (0, 0), BuildingBlock: OJICUG_clean_linker_0, # of connection points: 2
#     Edge 26, Type (0, 0), BuildingBlock: OJICUG_clean_linker_0, # of connection points: 2
#     Edge 27, Type (0, 0), BuildingBlock: OJICUG_clean_linker_0, # of connection points: 2
#     Edge 28, Type (0, 0), BuildingBlock: OJICUG_clean_linker_0, # of connection points: 2
#     Edge 29, Type (0, 0), BuildingBlock: OJICUG_clean_linker_0, # of connection points: 2
#     Edge 30, Type (0, 0), BuildingBlock: OJICUG_clean_linker_0, # of connection points: 2
#     Edge 31, Type (0, 0), BuildingBlock: OJICUG_clean_linker_0, # of connection points: 2
#     Edge 32, Type (0, 0), BuildingBlock: OJICUG_clean_linker_0, # of connection points: 2
#     Edge 33, Type (0, 0), BuildingBlock: OJICUG_clean_linker_0, # of connection points: 2
#     Edge 34, Type (0, 0), BuildingBlock: OJICUG_clean_linker_0, # of connection points: 2
#     Edge 35, Type (0, 0), BuildingBlock: OJICUG_clean_linker_0, # of connection points: 2
# Relax obj value: 0.087
# Max RMSD: 0.081
# Mean RMSD: 0.081
data_MOF--net-wje--node1-QUQFOY_clean_sbu_1--edge1-OJICUG_clean_linker_0
_symmetry_space_group_name_H-M    P1
_symmetry_Int_Tables_number       1
_symmetry_cell_setting            triclinic
loop_
_symmetry_equiv_pos_as_xyz
'x, y, z'
_cell_length_a     31.968718
_cell_length_b     31.802128
_cell_length_c     27.380895
_cell_angle_alpha  90.02479
_cell_angle_beta   89.987493
_cell_angle_gamma 120.07781
loop_
_atom_site_label
_atom_site_type_symbol
_atom_site_fract_x
_atom_site_fract_y
_atom_site_fract_z
_atom_type_partial_charge
O0 O 0.22712 0.97785 0.34823 0.0
Cd1 Cd 0.29224 0.04115 0.35076 0.0
Cd2 Cd 0.32864 0.98391 0.33862 0.0
O3 O 0.25809 0.93309 0.32363 0.0
O4 O 0.28569 0.09756 0.32772 0.0
O5 O 0.32693 0.06971 0.28736 0.0
C6 C 0.31048 0.09947 0.28961 0.0
C7 C 0.39452 0.98688 0.29787 0.0
C8 C 0.22191 0.93672 0.33708 0.0
C9 C 0.33201 0.02122 0.43978 0.0
O10 O 0.33862 0.99285 0.41251 0.0
O11 O 0.31883 0.04967 0.42156 0.0
O12 O 0.36431 0.94918 0.32222 0.0
O13 O 0.38575 0.02217 0.29391 0.0
O14 O 0.2591 0.23401 0.67425 0.0
Cd15 Cd 0.25418 0.29566 0.67864 0.0
Cd16 Cd 0.3498 0.33914 0.67293 0.0
O17 O 0.3376 0.2702 0.66146 0.0
O18 O 0.18733 0.27529 0.65495 0.0
O19 O 0.25321 0.33356 0.61951 0.0
C20 C 0.20667 0.30643 0.61998 0.0
C21 C 0.41355 0.40583 0.6335 0.0
C22 C 0.2974 0.23181 0.66914 0.0
C23 C 0.30688 0.33754 0.77117 0.0
O24 O 0.3446 0.35006 0.7459 0.0
O25 O 0.2654 0.31844 0.75091 0.0
O26 O 0.42088 0.37809 0.66201 0.0
O27 O 0.36941 0.39466 0.62533 0.0
O28 O 0.01364 0.25305 1.01109 0.0
Cd29 Cd 0.95009 0.25401 1.01403 0.0
Cd30 Cd 0.00643 0.34852 1.00466 0.0
O31 O 0.0581 0.32999 0.98949 0.0
O32 O 0.89465 0.19071 0.99034 0.0
O33 O 0.92097 0.26046 0.95117 0.0
C34 C 0.89196 0.21397 0.95287 0.0
C35 C 0.00204 0.41169 0.96546 0.0
C36 C 0.05462 0.28964 1.00132 0.0
C37 C 0.96788 0.31134 0.10467 0.0
O38 O -0.00388 0.34736 0.07844 0.0
O39 O 0.94044 0.26995 0.08529 0.0
O40 O 0.03959 0.41956 0.99003 0.0
O41 O 0.96784 0.36721 0.96031 0.0
O42 O 0.74899 0.01833 0.34615 0.0
Cd43 Cd 0.68485 0.95376 0.34749 0.0
Cd44 Cd 0.64643 0.00995 0.33842 0.0
O45 O 0.71665 0.06282 0.3251 0.0
O46 O 0.69483 0.8992 0.325 0.0
O47 O 0.65143 0.9238 0.28372 0.0
C48 C 0.66975 0.89568 0.28662 0.0
C49 C 0.58054 0.00736 0.29813 0.0
C50 C 0.75336 0.05954 0.33713 0.0
C51 C 0.64329 0.96942 0.43785 0.0
O52 O 0.63565 -0.00207 0.41196 0.0
O53 O 0.65796 0.94274 0.41825 0.0
O54 O 0.60989 0.04416 0.32407 0.0
O55 O 0.59008 0.97274 0.29246 0.0
O56 O 0.73566 0.7627 0.67506 0.0
Cd57 Cd 0.73742 0.69942 0.68033 0.0
Cd58 Cd 0.64272 0.659 0.67136 0.0
O59 O 0.65812 0.7287 0.65773 0.0
O60 O 0.80285 0.71552 0.6559 0.0
O61 O 0.73471 0.65997 0.62117 0.0
C62 C 0.78143 0.6847 0.62103 0.0
C63 C 0.57911 0.59243 0.6317 0.0
C64 C 0.69852 0.76632 0.66704 0.0
C65 C 0.68169 0.65884 0.77138 0.0
O66 O 0.64523 0.64845 0.74485 0.0
O67 O 0.7236 0.67607 0.75243 0.0
O68 O 0.57187 0.62144 0.65839 0.0
O69 O 0.62315 0.60251 0.62516 0.0
O70 O 0.96584 0.73057 1.01302 0.0
Cd71 Cd 0.02995 0.72981 1.01371 0.0
Cd72 Cd 0.96849 0.63765 1.00078 0.0
O73 O 0.92001 0.65836 0.98042 0.0
O74 O 0.08065 0.79648 0.99216 0.0
O75 O 0.06455 0.72969 0.95173 0.0
C76 C 0.08826 0.77659 0.95465 0.0
C77 C 0.97549 0.57523 0.96369 0.0
C78 C 0.92484 0.69761 0.99784 0.0
C79 C 0.00711 0.67165 0.10216 0.0
O80 O 0.9744 0.63953 0.07523 0.0
O81 O 0.04096 0.71068 0.08336 0.0
O82 O 0.93631 0.5669 0.98536 0.0
O83 O 0.01005 0.6198 0.96037 0.0
O84 O 0.01564 0.75865 0.39919 0.0
Cd85 Cd 0.95244 0.69265 0.39849 0.0
Cd86 Cd 0.01489 0.66465 0.41305 0.0
O87 O 0.0613 0.73416 0.435 0.0
O88 O 0.90079 0.70683 0.41975 0.0
O89 O 0.91907 0.65823 0.46096 0.0
C90 C 0.89447 0.6803 0.45782 0.0
C91 C 0.00734 0.5952 0.45027 0.0
C92 C 0.05629 0.76796 0.41631 0.0
C93 C 0.97753 0.65843 0.31106 0.0
O94 O 0.01079 0.66113 0.33845 0.0
O95 O 0.94244 0.66159 0.32932 0.0
O96 O 0.04716 0.62679 0.4299 0.0
O97 O 0.97246 0.60459 0.45232 0.0
O98 O 0.25866 0.02255 0.74154 0.0
Cd99 Cd 0.25359 0.95594 0.7361 0.0
Cd100 Cd 0.34916 0.00833 0.74167 0.0
O101 O 0.33728 0.0651 0.75369 0.0
O102 O 0.18692 0.90873 0.76022 0.0
O103 O 0.25314 0.9166 0.7946 0.0
C104 C 0.20659 0.89683 0.79465 0.0
C105 C 0.41271 0.00549 0.78116 0.0
C106 C 0.29713 0.06323 0.74654 0.0
C107 C 0.30621 0.9681 0.64313 0.0
O108 O 0.34402 0.99286 0.66851 0.0
O109 O 0.26471 0.94547 0.6634 0.0
O110 O 0.4202 0.04073 0.75273 0.0
O111 O 0.36852 0.97219 0.78909 0.0
O112 O 0.22794 0.2543 0.06788 0.0
Cd113 Cd 0.29281 0.25601 0.06551 0.0
Cd114 Cd 0.3297 0.35034 0.07556 0.0
O115 O 0.25924 0.3309 0.09042 0.0
O116 O 0.28537 0.19272 0.08894 0.0
O117 O 0.32761 0.26222 0.12884 0.0
C118 C 0.31058 0.21579 0.12684 0.0
C119 C 0.39667 0.41358 0.11522 0.0
C120 C 0.22287 0.29047 0.07801 0.0
C121 C 0.33243 0.31415 0.97538 0.0
O122 O 0.33931 0.34981 1.00178 0.0
O123 O 0.31907 0.27276 0.99452 0.0
O124 O 0.36672 0.42126 0.09088 0.0
O125 O 0.38694 0.36919 0.11994 0.0
O126 O 0.9617 0.2316 0.40759 0.0
Cd127 Cd 0.02804 0.29317 0.40189 0.0
Cd128 Cd 0.97611 0.33719 0.4071 0.0
O129 O 0.91951 0.26825 0.41924 0.0
O130 O 0.07488 0.27333 0.42582 0.0
O131 O 0.0673 0.33211 0.46035 0.0
C132 C 0.08685 0.30503 0.46029 0.0
C133 C 0.98038 0.40507 0.44565 0.0
C134 C 0.92129 0.22962 0.41255 0.0
C135 C 0.01666 0.33423 0.3089 0.0
O136 O -0.00814 0.34733 0.33412 0.0
O137 O 0.03885 0.31492 0.32926 0.0
O138 O 0.94485 0.37719 0.4177 0.0
O139 O 0.01284 0.39319 0.454 0.0
O140 O 0.7359 0.97765 0.7302 0.0
Cd141 Cd 0.7336 0.04084 0.72903 0.0
Cd142 Cd 0.64055 0.98288 0.74238 0.0
O143 O 0.66109 0.93253 0.75675 0.0
O144 O 0.79664 0.09721 0.75168 0.0
O145 O 0.72821 0.06876 0.7932 0.0
C146 C 0.77426 0.09868 0.79041 0.0
C147 C 0.57804 0.98542 0.78413 0.0
C148 C 0.7007 0.93645 0.74219 0.0
C149 C 0.67259 0.02137 0.64126 0.0
O150 O 0.63835 0.99211 0.66866 0.0
O151 O 0.71426 0.05006 0.65909 0.0
O152 O 0.57055 0.94774 0.75965 0.0
O153 O 0.62197 0.02087 0.78777 0.0
O154 O 0.75534 0.7369 0.0692 0.0
Cd155 Cd 0.69123 0.73684 0.06624 0.0
Cd156 Cd 0.65195 0.64187 0.07458 0.0
O157 O 0.72196 0.65933 0.08876 0.0
O158 O 0.69993 0.8008 0.0893 0.0
O159 O 0.65571 0.73158 0.12896 0.0
C160 C 0.67367 0.77814 0.12677 0.0
C161 C 0.58482 0.57851 0.11405 0.0
C162 C 0.75911 0.69965 0.07766 0.0
C163 C 0.65151 0.68017 0.97497 0.0
O164 O 0.64257 0.64356 1.00088 0.0
O165 O 0.66624 0.72157 0.99474 0.0
O166 O 0.61422 0.57074 0.08882 0.0
O167 O 0.595 0.62296 0.11954 0.0
C168 C 0.31716 0.17623 0.25611 0.0
C169 C 0.31644 0.13218 0.24815 0.0
H170 H 0.31754 0.23799 0.22392 0.0
C171 C 0.31741 0.11771 0.19981 0.0
H172 H 0.31638 0.1883 0.29292 0.0
C173 C 0.3166 0.1454 0.16032 0.0
C174 C 0.31646 0.18901 0.16827 0.0
H175 H 0.3165 0.08378 0.19249 0.0
H176 H 0.31539 0.13233 0.12351 0.0
C177 C 0.31799 0.20474 0.2166 0.0
C178 C 0.13963 0.26341 0.56015 0.0
C179 C 0.17639 0.30744 0.57947 0.0
H180 H 0.08386 0.22846 0.50639 0.0
C181 C 0.18409 0.35134 0.559 0.0
H182 H 0.13313 0.22905 0.57496 0.0
C183 C 0.15462 0.351 0.52062 0.0
C184 C 0.11851 0.30676 0.50077 0.0
H185 H 0.21225 0.38578 0.57322 0.0
H186 H 0.16057 0.38519 0.50593 0.0
C187 C 0.11166 0.26307 0.52071 0.0
C188 C 0.78664 0.11624 0.88028 0.0
C189 C 0.80145 0.13109 0.8319 0.0
H190 H 0.80413 0.13034 0.95649 0.0
C191 C 0.84452 0.17522 0.82384 0.0
H192 H 0.75383 0.08224 0.88767 0.0
C193 C 0.87257 0.20347 0.86329 0.0
C194 C 0.85899 0.18738 0.9116 0.0
H195 H 0.85688 0.18757 0.78698 0.0
H196 H 0.90605 0.23681 0.85588 0.0
C197 C 0.81551 0.14367 0.91968 0.0
C198 C 0.66667 0.84864 0.15833 0.0
C199 C 0.66724 0.80542 0.16742 0.0
H200 H 0.66529 0.91015 0.18892 0.0
C201 C 0.66529 0.79043 0.21609 0.0
H202 H 0.66818 0.86113 0.12122 0.0
C203 C 0.66517 0.81925 0.25487 0.0
C204 C 0.66525 0.86282 0.2458 0.0
H205 H 0.66606 0.75749 0.22426 0.0
H206 H 0.66556 0.80774 0.29201 0.0
C207 C 0.66483 0.87659 0.19708 0.0
C208 C 0.86924 0.72403 0.51544 0.0
C209 C 0.86406 0.67987 0.49889 0.0
H210 H 0.84828 0.75994 0.5681 0.0
C211 C 0.83134 0.63664 0.523 0.0
H212 H 0.89452 0.7579 0.49782 0.0
C213 C 0.80349 0.63765 0.56235 0.0
C214 C 0.80971 0.68213 0.57946 0.0
H215 H 0.82682 0.60215 0.51099 0.0
H216 H 0.77791 0.60393 0.57998 0.0
C217 C 0.84306 0.72523 0.55582 0.0
C218 C 0.14207 0.87387 0.85719 0.0
C219 C 0.17675 0.86517 0.83529 0.0
H220 H 0.08834 0.85367 0.91308 0.0
C221 C 0.18277 0.82711 0.85327 0.0
H222 H 0.13691 0.90317 0.84429 0.0
C223 C 0.15362 0.79753 0.89171 0.0
C224 C 0.11962 0.80705 0.91414 0.0
H225 H 0.20932 0.81971 0.83703 0.0
H226 H 0.15817 0.76782 0.90443 0.0
C227 C 0.11451 0.84577 0.89673 0.0
C228 C 0.48253 0.03842 0.27994 0.0
C229 C 0.44121 0.99207 0.28257 0.0
H230 H 0.55985 0.07965 0.28267 0.0
C231 C 0.44662 0.95089 0.2798 0.0
H232 H 0.4795 0.07081 0.28199 0.0
C233 C 0.49268 0.95597 0.27936 0.0
C234 C 0.53396 0.00228 0.28267 0.0
H235 H 0.41533 0.9147 0.28144 0.0
H236 H 0.49572 0.92357 0.28099 0.0
C237 C 0.52857 0.04348 0.28049 0.0
C238 C 0.49119 0.54008 0.61385 0.0
C239 C 0.53759 0.54554 0.61642 0.0
H240 H 0.41479 0.49065 0.61559 0.0
C241 C 0.54237 0.50407 0.61401 0.0
H242 H 0.48657 0.57155 0.61542 0.0
C243 C 0.50129 0.4578 0.61508 0.0
C244 C 0.45492 0.4524 0.61739 0.0
H245 H 0.57766 0.5072 0.61603 0.0
H246 H 0.50592 0.42637 0.61757 0.0
C247 C 0.4501 0.49378 0.61377 0.0
C248 C 0.94264 0.48693 0.94672 0.0
C249 C 0.9826 0.53423 0.95013 0.0
H250 H 0.91758 0.41059 0.94742 0.0
C251 C 0.02936 0.54064 0.94891 0.0
H252 H 0.90615 0.48092 0.94727 0.0
C253 C 0.03588 0.50032 0.94973 0.0
C254 C -0.00422 0.45296 0.95085 0.0
H255 H 0.06086 0.57662 0.95148 0.0
H256 H 0.07226 0.50628 0.95265 0.0
C257 C 0.94919 0.44662 0.94662 0.0
C258 C 0.95307 0.50621 0.46318 0.0
C259 C -0.00011 0.54685 0.46341 0.0
H260 H 0.91015 0.42878 0.45745 0.0
C261 C 0.0397 0.53962 0.46758 0.0
H262 H 0.92169 0.51059 0.46001 0.0
C263 C 0.03302 0.49266 0.46694 0.0
C264 C 0.9865 0.4523 0.46116 0.0
H265 H 0.07621 0.57032 0.46812 0.0
H266 H 0.06454 0.48831 0.46667 0.0
C267 C 0.94647 0.45934 0.46156 0.0
C268 C 0.54141 0.03698 0.80118 0.0
C269 C 0.53659 0.99064 0.79943 0.0
H270 H 0.50511 0.07802 0.79675 0.0
C271 C 0.49015 0.94943 0.80242 0.0
H272 H 0.57671 0.06938 0.79892 0.0
C273 C 0.4491 0.9544 0.80203 0.0
C274 C 0.454 0.00063 0.79763 0.0
H275 H 0.48544 0.91324 0.80141 0.0
H276 H 0.41377 0.92198 0.80046 0.0
C277 C 0.5004 0.04192 0.79974 0.0
C278 C 0.45047 0.5021 0.13214 0.0
C279 C 0.444 0.45503 0.12974 0.0
H280 H 0.50076 0.57864 0.1306 0.0
C281 C 0.48476 0.44934 0.13217 0.0
H282 H 0.41964 0.50754 0.13058 0.0
C283 C 0.53123 0.49008 0.13132 0.0
C284 C 0.53766 0.53713 0.12906 0.0
H285 H 0.48094 0.41355 0.13033 0.0
H286 H 0.56202 0.48463 0.12917 0.0
C287 C 0.49695 0.54284 0.13231 0.0
C288 C 0.09603 0.85386 0.38627 0.0
C289 C 0.09953 0.8133 0.40071 0.0
H290 H 0.13196 0.92484 0.35383 0.0
C291 C 0.14248 0.81287 0.39128 0.0
H292 H 0.06298 0.85474 0.39225 0.0
C293 C 0.18082 0.8517 0.36737 0.0
C294 C 0.17771 0.89255 0.35331 0.0
H295 H 0.14598 0.78171 0.40078 0.0
H296 H 0.21355 0.85022 0.36132 0.0
C297 C 0.13504 0.89345 0.36337 0.0
C298 C 0.25327 0.14514 0.6967 0.0
C299 C 0.29707 0.18715 0.68475 0.0
H300 H 0.21883 0.07367 0.72734 0.0
C301 C 0.34078 0.18892 0.69626 0.0
H302 H 0.21893 0.14285 0.68911 0.0
C303 C 0.34073 0.14984 0.71946 0.0
C304 C 0.29696 0.10772 0.7312 0.0
H305 H 0.37523 0.22103 0.68851 0.0
H306 H 0.37513 0.15225 0.72697 0.0
C307 C 0.25322 0.10585 0.71956 0.0
C308 C 0.13632 0.24522 0.05061 0.0
C309 C 0.17801 0.28936 0.06257 0.0
H310 H 0.06471 0.21051 1.02066 0.0
C311 C 0.17948 0.33318 0.05129 0.0
H312 H 0.13441 0.21084 0.05803 0.0
C313 C 0.14056 0.333 1.02819 0.0
C314 C 0.09863 0.28898 1.01664 0.0
H315 H 0.21136 0.3679 0.05894 0.0
H316 H 0.14291 0.36758 1.02079 0.0
C317 C 0.09683 0.24503 1.02829 0.0
C318 C 0.87799 0.14147 0.38961 0.0
C319 C 0.87694 0.1846 0.39787 0.0
H320 H 0.84036 0.06847 0.36255 0.0
C321 C 0.83587 0.18676 0.38345 0.0
H322 H 0.9094 0.13885 0.39956 0.0
C323 C 0.79709 0.14709 0.3608 0.0
C324 C 0.79798 0.10388 0.35266 0.0
H325 H 0.83414 0.21966 0.38828 0.0
H326 H 0.76586 0.15 0.35081 0.0
C327 C 0.83884 0.10147 0.36749 0.0
C328 C 0.74371 0.85444 0.69011 0.0
C329 C 0.69955 0.81153 0.68162 0.0
H330 H 0.77898 0.92755 0.71714 0.0
C331 C 0.65637 0.80955 0.69583 0.0
H332 H 0.77766 0.8568 0.68033 0.0
C333 C 0.65726 0.84916 0.71858 0.0
C334 C 0.70128 0.89223 0.72682 0.0
H335 H 0.62176 0.77676 0.69088 0.0
H336 H 0.62313 0.84636 0.72843 0.0
C337 C 0.74454 0.89458 0.71209 0.0
C338 C 0.84613 0.7436 0.05164 0.0
C339 C 0.80325 0.69975 0.06132 0.0
H340 H 0.91819 0.77751 1.02284 0.0
C341 C 0.80004 0.65579 0.04686 0.0
H342 H 0.8494 0.77811 0.0615 0.0
C343 C 0.83844 0.6556 1.02295 0.0
C344 C 0.88154 0.69928 1.01378 0.0
H345 H 0.76722 0.62136 0.05266 0.0
H346 H 0.83483 0.62092 1.01315 0.0
C347 C 0.88509 0.74332 1.0286 0.0
C348 C 0.35945 -0.00128 0.51597 0.0
C349 C 0.32835 0.01178 0.49286 0.0
H350 H 0.37671 0.97431 0.5821 0.0
C351 C 0.28806 0.00672 0.51859 0.0
H352 H 0.39013 0.00121 0.49652 0.0
C353 C 0.27889 0.98875 0.56639 0.0
C354 C 0.31048 0.9766 0.58988 0.0
H355 H 0.26269 0.01513 0.50119 0.0
H356 H 0.24803 0.98611 0.58562 0.0
C357 C 0.35119 0.98232 0.56441 0.0
C358 C 0.28835 0.28304 0.89688 0.0
C359 C 0.32881 0.31888 0.92216 0.0
H360 H 0.24827 0.26226 0.82989 0.0
C361 C 0.36018 0.3627 0.89827 0.0
H362 H 0.26279 0.24951 0.91487 0.0
C363 C 0.352 0.36991 0.84954 0.0
C364 C 0.31113 0.33432 0.82452 0.0
H365 H 0.39099 0.39136 0.91735 0.0
H366 H 0.3777 0.40319 0.83128 0.0
C367 C 0.27927 0.29092 0.84876 0.0
C368 C -0.00225 0.28767 0.2312 0.0
C369 C 0.00922 0.33104 0.25555 0.0
H370 H 0.97294 0.24643 0.16495 0.0
C371 C 0.00395 0.36674 0.23064 0.0
H372 H 9e-05 0.25894 0.24998 0.0
C373 C 0.98859 0.35965 0.18192 0.0
C374 C 0.97622 0.31588 0.1579 0.0
H375 H 0.01149 0.40001 0.24899 0.0
H376 H 0.98639 0.38838 0.16296 0.0
C377 C 0.98085 0.27993 0.18305 0.0
C378 C 0.61421 0.98613 0.51647 0.0
C379 C 0.64761 0.97786 0.49105 0.0
H380 H 0.59587 0.00643 0.58465 0.0
C381 C 0.69049 0.98725 0.51458 0.0
H382 H 0.58146 0.9803 0.49867 0.0
C383 C 0.70003 0.00498 0.56243 0.0
C384 C 0.66632 0.01244 0.5882 0.0
H385 H 0.71753 0.98262 0.49533 0.0
H386 H 0.7331 0.01124 0.57988 0.0
C387 C 0.62294 0.0021 0.56509 0.0
C388 C 0.62445 0.63334 0.89672 0.0
C389 C 0.65633 0.67619 0.92179 0.0
H390 H 0.60761 0.59406 0.82898 0.0
C391 C 0.69824 0.71143 0.89789 0.0
H392 H 0.59249 0.60512 0.91473 0.0
C393 C 0.70825 0.70387 0.84999 0.0
C394 C 0.67595 0.66147 0.82458 0.0
H395 H 0.72419 0.74415 0.91683 0.0
H396 H 0.74042 0.73205 0.8322 0.0
C397 C 0.63363 0.62654 0.84818 0.0
C398 C 0.03182 0.6831 0.2383 0.0
C399 C 0.98452 0.65897 0.25762 0.0
H400 H 0.0763 0.70698 0.17396 0.0
C401 C 0.94522 0.63803 0.22549 0.0
H402 H 0.06293 0.70021 0.26229 0.0
C403 C 0.95308 0.64087 0.17503 0.0
C404 C 0.00035 0.66599 0.15568 0.0
H405 H 0.90853 0.61951 0.23932 0.0
H406 H 0.92193 0.62465 0.15106 0.0
C407 C 0.03965 0.68723 0.18781 0.0
loop_
_geom_bond_atom_site_label_1
_geom_bond_atom_site_label_2
_geom_bond_distance
_geom_bond_site_symmetry_2
_ccdc_geom_bond_type
O0 Cd1 2.223 1_565 S
O0 C8 1.315 . S
Cd1 O0 2.223 1_545 S
Cd1 O4 2.297 . S
Cd1 O5 2.439 . S
Cd1 O11 2.240 . S
Cd2 O3 2.240 . S
Cd2 O10 2.223 . S
Cd2 O12 2.297 . S
Cd2 O13 2.439 1_565 S
O3 Cd2 2.240 . S
O3 C8 1.279 . S
O4 Cd1 2.297 . S
O4 C6 1.247 . S
O5 Cd1 2.439 . S
O5 C6 1.208 . S
C6 O4 1.247 . S
C6 O5 1.208 . S
C7 O12 1.247 1_545 S
C7 O13 1.208 . S
C8 O0 1.315 . S
C8 O3 1.279 . S
C9 O10 1.315 1_545 S
C9 O11 1.279 . S
O10 Cd2 2.223 . S
O10 C9 1.315 1_565 S
O11 Cd1 2.240 . S
O11 C9 1.279 . S
O12 Cd2 2.297 . S
O12 C7 1.247 1_565 S
O13 Cd2 2.439 1_545 S
O13 C7 1.208 . S
O14 Cd15 2.223 . S
O14 C22 1.315 . S
Cd15 O14 2.223 . S
Cd15 O18 2.297 . S
Cd15 O19 2.439 . S
Cd15 O25 2.240 . S
Cd16 O17 2.240 . S
Cd16 O24 2.223 . S
Cd16 O26 2.297 . S
Cd16 O27 2.439 . S
O17 Cd16 2.240 . S
O17 C22 1.279 . S
O18 Cd15 2.297 . S
O18 C20 1.247 . S
O19 Cd15 2.439 . S
O19 C20 1.208 . S
C20 O18 1.247 . S
C20 O19 1.208 . S
C21 O26 1.247 . S
C21 O27 1.208 . S
C22 O14 1.315 . S
C22 O17 1.279 . S
C23 O24 1.315 . S
C23 O25 1.279 . S
O24 Cd16 2.223 . S
O24 C23 1.315 . S
O25 Cd15 2.240 . S
O25 C23 1.279 . S
O26 Cd16 2.297 . S
O26 C21 1.247 . S
O27 Cd16 2.439 . S
O27 C21 1.208 . S
O28 Cd29 2.223 1_455 S
O28 C36 1.315 1_554 S
Cd29 O28 2.223 1_655 S
Cd29 O32 2.297 1_554 S
Cd29 O33 2.439 1_554 S
Cd29 O39 2.240 . S
Cd30 O31 2.240 1_554 S
Cd30 O38 2.223 . S
Cd30 O40 2.297 . S
Cd30 O41 2.439 1_454 S
O31 Cd30 2.240 1_556 S
O31 C36 1.279 . S
O32 Cd29 2.297 1_556 S
O32 C34 1.247 . S
O33 Cd29 2.439 1_556 S
O33 C34 1.208 . S
C34 O32 1.247 . S
C34 O33 1.208 . S
C35 O40 1.247 1_656 S
C35 O41 1.208 . S
C36 O28 1.315 1_556 S
C36 O31 1.279 . S
C37 O38 1.315 1_655 S
C37 O39 1.279 . S
O38 Cd30 2.223 . S
O38 C37 1.315 1_455 S
O39 Cd29 2.240 . S
O39 C37 1.279 . S
O40 Cd30 2.297 . S
O40 C35 1.247 1_454 S
O41 Cd30 2.439 1_656 S
O41 C35 1.208 . S
O42 Cd43 2.223 1_545 S
O42 C50 1.315 . S
Cd43 O42 2.223 1_565 S
Cd43 O46 2.297 . S
Cd43 O47 2.439 . S
Cd43 O53 2.240 . S
Cd44 O45 2.240 . S
Cd44 O52 2.223 . S
Cd44 O54 2.297 . S
Cd44 O55 2.439 1_545 S
O45 Cd44 2.240 . S
O45 C50 1.279 . S
O46 Cd43 2.297 . S
O46 C48 1.247 . S
O47 Cd43 2.439 . S
O47 C48 1.208 . S
C48 O46 1.247 . S
C48 O47 1.208 . S
C49 O54 1.247 1_565 S
C49 O55 1.208 . S
C50 O42 1.315 . S
C50 O45 1.279 . S
C51 O52 1.315 1_565 S
C51 O53 1.279 . S
O52 Cd44 2.223 . S
O52 C51 1.315 1_545 S
O53 Cd43 2.240 . S
O53 C51 1.279 . S
O54 Cd44 2.297 . S
O54 C49 1.247 1_545 S
O55 Cd44 2.439 1_565 S
O55 C49 1.208 . S
O56 Cd57 2.223 . S
O56 C64 1.315 . S
Cd57 O56 2.223 . S
Cd57 O60 2.297 . S
Cd57 O61 2.439 . S
Cd57 O67 2.240 . S
Cd58 O59 2.240 . S
Cd58 O66 2.223 . S
Cd58 O68 2.297 . S
Cd58 O69 2.439 . S
O59 Cd58 2.240 . S
O59 C64 1.279 . S
O60 Cd57 2.297 . S
O60 C62 1.247 . S
O61 Cd57 2.439 . S
O61 C62 1.208 . S
C62 O60 1.247 . S
C62 O61 1.208 . S
C63 O68 1.247 . S
C63 O69 1.208 . S
C64 O56 1.315 . S
C64 O59 1.279 . S
C65 O66 1.315 . S
C65 O67 1.279 . S
O66 Cd58 2.223 . S
O66 C65 1.315 . S
O67 Cd57 2.240 . S
O67 C65 1.279 . S
O68 Cd58 2.297 . S
O68 C63 1.247 . S
O69 Cd58 2.439 . S
O69 C63 1.208 . S
O70 Cd71 2.223 1_655 S
O70 C78 1.315 1_554 S
Cd71 O70 2.223 1_455 S
Cd71 O74 2.297 1_554 S
Cd71 O75 2.439 1_554 S
Cd71 O81 2.240 . S
Cd72 O73 2.240 1_554 S
Cd72 O80 2.223 . S
Cd72 O82 2.297 . S
Cd72 O83 2.439 1_654 S
O73 Cd72 2.240 1_556 S
O73 C78 1.279 . S
O74 Cd71 2.297 1_556 S
O74 C76 1.247 . S
O75 Cd71 2.439 1_556 S
O75 C76 1.208 . S
C76 O74 1.247 . S
C76 O75 1.208 . S
C77 O82 1.247 1_456 S
C77 O83 1.208 . S
C78 O70 1.315 1_556 S
C78 O73 1.279 . S
C79 O80 1.315 1_455 S
C79 O81 1.279 . S
O80 Cd72 2.223 . S
O80 C79 1.315 1_655 S
O81 Cd71 2.240 . S
O81 C79 1.279 . S
O82 Cd72 2.297 . S
O82 C77 1.247 1_654 S
O83 Cd72 2.439 1_456 S
O83 C77 1.208 . S
O84 Cd85 2.223 1_455 S
O84 C92 1.315 . S
Cd85 O84 2.223 1_655 S
Cd85 O88 2.297 . S
Cd85 O89 2.439 . S
Cd85 O95 2.240 . S
Cd86 O87 2.240 . S
Cd86 O94 2.223 . S
Cd86 O96 2.297 . S
Cd86 O97 2.439 1_455 S
O87 Cd86 2.240 . S
O87 C92 1.279 . S
O88 Cd85 2.297 . S
O88 C90 1.247 . S
O89 Cd85 2.439 . S
O89 C90 1.208 . S
C90 O88 1.247 . S
C90 O89 1.208 . S
C91 O96 1.247 1_655 S
C91 O97 1.208 . S
C92 O84 1.315 . S
C92 O87 1.279 . S
C93 O94 1.315 1_655 S
C93 O95 1.279 . S
O94 Cd86 2.223 . S
O94 C93 1.315 1_455 S
O95 Cd85 2.240 . S
O95 C93 1.279 . S
O96 Cd86 2.297 . S
O96 C91 1.247 1_455 S
O97 Cd86 2.439 1_655 S
O97 C91 1.208 . S
O98 Cd99 2.223 1_545 S
O98 C106 1.315 . S
Cd99 O98 2.223 1_565 S
Cd99 O102 2.297 . S
Cd99 O103 2.439 . S
Cd99 O109 2.240 . S
Cd100 O101 2.240 . S
Cd100 O108 2.223 . S
Cd100 O110 2.297 . S
Cd100 O111 2.439 1_545 S
O101 Cd100 2.240 . S
O101 C106 1.279 . S
O102 Cd99 2.297 . S
O102 C104 1.247 . S
O103 Cd99 2.439 . S
O103 C104 1.208 . S
C104 O102 1.247 . S
C104 O103 1.208 . S
C105 O110 1.247 1_565 S
C105 O111 1.208 . S
C106 O98 1.315 . S
C106 O101 1.279 . S
C107 O108 1.315 1_565 S
C107 O109 1.279 . S
O108 Cd100 2.223 . S
O108 C107 1.315 1_545 S
O109 Cd99 2.240 . S
O109 C107 1.279 . S
O110 Cd100 2.297 . S
O110 C105 1.247 1_545 S
O111 Cd100 2.439 1_565 S
O111 C105 1.208 . S
O112 Cd113 2.223 . S
O112 C120 1.315 1_556 S
Cd113 O112 2.223 . S
Cd113 O116 2.297 1_556 S
Cd113 O117 2.439 1_556 S
Cd113 O123 2.240 . S
Cd114 O115 2.240 1_556 S
Cd114 O122 2.223 . S
Cd114 O124 2.297 . S
Cd114 O125 2.439 1_556 S
O115 Cd114 2.240 1_554 S
O115 C120 1.279 . S
O116 Cd113 2.297 1_554 S
O116 C118 1.247 . S
O117 Cd113 2.439 1_554 S
O117 C118 1.208 . S
C118 O116 1.247 . S
C118 O117 1.208 . S
C119 O124 1.247 . S
C119 O125 1.208 1_556 S
C120 O112 1.315 1_554 S
C120 O115 1.279 . S
C121 O122 1.315 . S
C121 O123 1.279 . S
O122 Cd114 2.223 . S
O122 C121 1.315 . S
O123 Cd113 2.240 . S
O123 C121 1.279 . S
O124 Cd114 2.297 . S
O124 C119 1.247 . S
O125 Cd114 2.439 1_554 S
O125 C119 1.208 1_554 S
O126 Cd127 2.223 1_655 S
O126 C134 1.315 . S
Cd127 O126 2.223 1_455 S
Cd127 O130 2.297 . S
Cd127 O131 2.439 . S
Cd127 O137 2.240 . S
Cd128 O129 2.240 . S
Cd128 O136 2.223 . S
Cd128 O138 2.297 . S
Cd128 O139 2.439 1_655 S
O129 Cd128 2.240 . S
O129 C134 1.279 . S
O130 Cd127 2.297 . S
O130 C132 1.247 . S
O131 Cd127 2.439 . S
O131 C132 1.208 . S
C132 O130 1.247 . S
C132 O131 1.208 . S
C133 O138 1.247 1_455 S
C133 O139 1.208 . S
C134 O126 1.315 . S
C134 O129 1.279 . S
C135 O136 1.315 1_455 S
C135 O137 1.279 . S
O136 Cd128 2.223 . S
O136 C135 1.315 1_655 S
O137 Cd127 2.240 . S
O137 C135 1.279 . S
O138 Cd128 2.297 . S
O138 C133 1.247 1_655 S
O139 Cd128 2.439 1_455 S
O139 C133 1.208 . S
O140 Cd141 2.223 1_565 S
O140 C148 1.315 . S
Cd141 O140 2.223 1_545 S
Cd141 O144 2.297 . S
Cd141 O145 2.439 . S
Cd141 O151 2.240 . S
Cd142 O143 2.240 . S
Cd142 O150 2.223 . S
Cd142 O152 2.297 . S
Cd142 O153 2.439 1_565 S
O143 Cd142 2.240 . S
O143 C148 1.279 . S
O144 Cd141 2.297 . S
O144 C146 1.247 . S
O145 Cd141 2.439 . S
O145 C146 1.208 . S
C146 O144 1.247 . S
C146 O145 1.208 . S
C147 O152 1.247 1_545 S
C147 O153 1.208 . S
C148 O140 1.315 . S
C148 O143 1.279 . S
C149 O150 1.315 1_545 S
C149 O151 1.279 . S
O150 Cd142 2.223 . S
O150 C149 1.315 1_565 S
O151 Cd141 2.240 . S
O151 C149 1.279 . S
O152 Cd142 2.297 . S
O152 C147 1.247 1_565 S
O153 Cd142 2.439 1_545 S
O153 C147 1.208 . S
O154 Cd155 2.223 . S
O154 C162 1.315 1_556 S
Cd155 O154 2.223 . S
Cd155 O158 2.297 1_556 S
Cd155 O159 2.439 1_556 S
Cd155 O165 2.240 . S
Cd156 O157 2.240 1_556 S
Cd156 O164 2.223 . S
Cd156 O166 2.297 . S
Cd156 O167 2.439 1_556 S
O157 Cd156 2.240 1_554 S
O157 C162 1.279 . S
O158 Cd155 2.297 1_554 S
O158 C160 1.247 . S
O159 Cd155 2.439 1_554 S
O159 C160 1.208 . S
C160 O158 1.247 . S
C160 O159 1.208 . S
C161 O166 1.247 . S
C161 O167 1.208 1_556 S
C162 O154 1.315 1_554 S
C162 O157 1.279 . S
C163 O164 1.315 . S
C163 O165 1.279 . S
O164 Cd156 2.223 . S
O164 C163 1.315 . S
O165 Cd155 2.240 . S
O165 C163 1.279 . S
O166 Cd156 2.297 . S
O166 C161 1.247 . S
O167 Cd156 2.439 1_554 S
O167 C161 1.208 1_554 S
C168 C169 1.387 . S
C168 H172 0.950 . S
C168 C177 1.390 . S
C169 C168 1.387 . S
C169 C171 1.387 . S
H170 C177 0.950 . S
C171 C169 1.387 . S
C171 C173 1.390 . S
C171 H175 0.950 . S
H172 C168 0.950 . S
C173 C171 1.390 . S
C173 C174 1.387 . S
C173 H176 0.950 . S
C174 C173 1.387 . S
C174 C177 1.387 . S
H175 C171 0.950 . S
H176 C173 0.950 . S
C177 C168 1.390 . S
C177 H170 0.950 . S
C177 C174 1.387 . S
C178 C179 1.387 . S
C178 H182 0.950 . S
C178 C187 1.390 . S
C179 C178 1.387 . S
C179 C181 1.387 . S
H180 C187 0.950 . S
C181 C179 1.387 . S
C181 C183 1.390 . S
C181 H185 0.950 . S
H182 C178 0.950 . S
C183 C181 1.390 . S
C183 C184 1.387 . S
C183 H186 0.950 . S
C184 C183 1.387 . S
C184 C187 1.387 . S
H185 C181 0.950 . S
H186 C183 0.950 . S
C187 C178 1.390 . S
C187 H180 0.950 . S
C187 C184 1.387 . S
C188 C189 1.387 . S
C188 H192 0.950 . S
C188 C197 1.390 . S
C189 C188 1.387 . S
C189 C191 1.387 . S
H190 C197 0.950 . S
C191 C189 1.387 . S
C191 C193 1.390 . S
C191 H195 0.950 . S
H192 C188 0.950 . S
C193 C191 1.390 . S
C193 C194 1.387 . S
C193 H196 0.950 . S
C194 C193 1.387 . S
C194 C197 1.387 . S
H195 C191 0.950 . S
H196 C193 0.950 . S
C197 C188 1.390 . S
C197 H190 0.950 . S
C197 C194 1.387 . S
C198 C199 1.387 . S
C198 H202 0.950 . S
C198 C207 1.390 . S
C199 C198 1.387 . S
C199 C201 1.387 . S
H200 C207 0.950 . S
C201 C199 1.387 . S
C201 C203 1.390 . S
C201 H205 0.950 . S
H202 C198 0.950 . S
C203 C201 1.390 . S
C203 C204 1.387 . S
C203 H206 0.950 . S
C204 C203 1.387 . S
C204 C207 1.387 . S
H205 C201 0.950 . S
H206 C203 0.950 . S
C207 C198 1.390 . S
C207 H200 0.950 . S
C207 C204 1.387 . S
C208 C209 1.387 . S
C208 H212 0.950 . S
C208 C217 1.390 . S
C209 C208 1.387 . S
C209 C211 1.387 . S
H210 C217 0.950 . S
C211 C209 1.387 . S
C211 C213 1.390 . S
C211 H215 0.950 . S
H212 C208 0.950 . S
C213 C211 1.390 . S
C213 C214 1.387 . S
C213 H216 0.950 . S
C214 C213 1.387 . S
C214 C217 1.387 . S
H215 C211 0.950 . S
H216 C213 0.950 . S
C217 C208 1.390 . S
C217 H210 0.950 . S
C217 C214 1.387 . S
C218 C219 1.387 . S
C218 H222 0.950 . S
C218 C227 1.390 . S
C219 C218 1.387 . S
C219 C221 1.387 . S
H220 C227 0.950 . S
C221 C219 1.387 . S
C221 C223 1.390 . S
C221 H225 0.950 . S
H222 C218 0.950 . S
C223 C221 1.390 . S
C223 C224 1.387 . S
C223 H226 0.950 . S
C224 C223 1.387 . S
C224 C227 1.387 . S
H225 C221 0.950 . S
H226 C223 0.950 . S
C227 C218 1.390 . S
C227 H220 0.950 . S
C227 C224 1.387 . S
C228 C229 1.387 . S
C228 H232 0.950 . S
C228 C237 1.390 1_545 S
C229 C228 1.387 . S
C229 C231 1.387 . S
H230 C237 0.950 . S
C231 C229 1.387 . S
C231 C233 1.390 1_545 S
C231 H235 0.950 . S
H232 C228 0.950 . S
C233 C231 1.390 1_565 S
C233 C234 1.387 . S
C233 H236 0.950 . S
C234 C233 1.387 . S
C234 C237 1.387 . S
H235 C231 0.950 . S
H236 C233 0.950 . S
C237 C228 1.390 1_565 S
C237 H230 0.950 . S
C237 C234 1.387 . S
C238 C239 1.387 . S
C238 H242 0.950 . S
C238 C247 1.390 . S
C239 C238 1.387 . S
C239 C241 1.387 . S
H240 C247 0.950 . S
C241 C239 1.387 . S
C241 C243 1.390 . S
C241 H245 0.950 . S
H242 C238 0.950 . S
C243 C241 1.390 . S
C243 C244 1.387 . S
C243 H246 0.950 . S
C244 C243 1.387 . S
C244 C247 1.387 . S
H245 C241 0.950 . S
H246 C243 0.950 . S
C247 C238 1.390 . S
C247 H240 0.950 . S
C247 C244 1.387 . S
C248 C249 1.387 . S
C248 H252 0.950 . S
C248 C257 1.390 1_455 S
C249 C248 1.387 . S
C249 C251 1.387 1_556 S
H250 C257 0.950 . S
C251 C249 1.387 1_554 S
C251 C253 1.390 1_455 S
C251 H255 0.950 . S
H252 C248 0.950 . S
C253 C251 1.390 1_655 S
C253 C254 1.387 1_554 S
C253 H256 0.950 . S
C254 C253 1.387 1_556 S
C254 C257 1.387 . S
H255 C251 0.950 . S
H256 C253 0.950 . S
C257 C248 1.390 1_655 S
C257 H250 0.950 . S
C257 C254 1.387 . S
C258 C259 1.387 . S
C258 H262 0.950 . S
C258 C267 1.390 1_655 S
C259 C258 1.387 . S
C259 C261 1.387 . S
H260 C267 0.950 . S
C261 C259 1.387 . S
C261 C263 1.390 1_655 S
C261 H265 0.950 . S
H262 C258 0.950 . S
C263 C261 1.390 1_455 S
C263 C264 1.387 . S
C263 H266 0.950 . S
C264 C263 1.387 . S
C264 C267 1.387 . S
H265 C261 0.950 . S
H266 C263 0.950 . S
C267 C258 1.390 1_455 S
C267 H260 0.950 . S
C267 C264 1.387 . S
C268 C269 1.387 . S
C268 H272 0.950 . S
C268 C277 1.390 1_545 S
C269 C268 1.387 . S
C269 C271 1.387 . S
H270 C277 0.950 . S
C271 C269 1.387 . S
C271 C273 1.390 1_545 S
C271 H275 0.950 . S
H272 C268 0.950 . S
C273 C271 1.390 1_565 S
C273 C274 1.387 . S
C273 H276 0.950 . S
C274 C273 1.387 . S
C274 C277 1.387 . S
H275 C271 0.950 . S
H276 C273 0.950 . S
C277 C268 1.390 1_565 S
C277 H270 0.950 . S
C277 C274 1.387 . S
C278 C279 1.392 . S
C278 H282 0.950 . S
C278 C287 1.390 . S
C279 C278 1.392 . S
C279 C281 1.383 1_556 S
H280 C287 0.950 . S
C281 C279 1.383 1_554 S
C281 C283 1.390 . S
C281 H285 0.950 . S
H282 C278 0.950 . S
C283 C281 1.390 . S
C283 C284 1.383 1_554 S
C283 H286 0.950 . S
C284 C283 1.383 1_556 S
C284 C287 1.392 . S
H285 C281 0.950 . S
H286 C283 0.950 . S
C287 C278 1.390 . S
C287 H280 0.950 . S
C287 C284 1.392 . S
C288 C289 1.387 . S
C288 H292 0.950 . S
C288 C297 1.390 . S
C289 C288 1.387 . S
C289 C291 1.387 . S
H290 C297 0.950 . S
C291 C289 1.387 . S
C291 C293 1.390 . S
C291 H295 0.950 . S
H292 C288 0.950 . S
C293 C291 1.390 . S
C293 C294 1.387 . S
C293 H296 0.950 . S
C294 C293 1.387 . S
C294 C297 1.387 . S
H295 C291 0.950 . S
H296 C293 0.950 . S
C297 C288 1.390 . S
C297 H290 0.950 . S
C297 C294 1.387 . S
C298 C299 1.387 . S
C298 H302 0.950 . S
C298 C307 1.390 . S
C299 C298 1.387 . S
C299 C301 1.387 . S
H300 C307 0.950 . S
C301 C299 1.387 . S
C301 C303 1.390 . S
C301 H305 0.950 . S
H302 C298 0.950 . S
C303 C301 1.390 . S
C303 C304 1.387 . S
C303 H306 0.950 . S
C304 C303 1.387 . S
C304 C307 1.387 . S
H305 C301 0.950 . S
H306 C303 0.950 . S
C307 C298 1.390 . S
C307 H300 0.950 . S
C307 C304 1.387 . S
C308 C309 1.387 1_556 S
C308 H312 0.949 1_556 S
C308 C317 1.391 . S
C309 C308 1.387 1_554 S
C309 C311 1.387 1_554 S
H310 C317 0.950 . S
C311 C309 1.387 1_556 S
C311 C313 1.390 . S
C311 H315 0.949 1_556 S
H312 C308 0.949 1_554 S
C313 C311 1.390 . S
C313 C314 1.387 . S
C313 H316 0.950 . S
C314 C313 1.387 . S
C314 C317 1.387 . S
H315 C311 0.949 1_554 S
H316 C313 0.950 . S
C317 C308 1.391 . S
C317 H310 0.950 . S
C317 C314 1.387 . S
C318 C319 1.387 . S
C318 H322 0.950 . S
C318 C327 1.390 . S
C319 C318 1.387 . S
C319 C321 1.387 . S
H320 C327 0.950 . S
C321 C319 1.387 . S
C321 C323 1.390 . S
C321 H325 0.950 . S
H322 C318 0.950 . S
C323 C321 1.390 . S
C323 C324 1.387 . S
C323 H326 0.950 . S
C324 C323 1.387 . S
C324 C327 1.387 . S
H325 C321 0.950 . S
H326 C323 0.950 . S
C327 C318 1.390 . S
C327 H320 0.950 . S
C327 C324 1.387 . S
C328 C329 1.387 . S
C328 H332 0.950 . S
C328 C337 1.390 . S
C329 C328 1.387 . S
C329 C331 1.387 . S
H330 C337 0.950 . S
C331 C329 1.387 . S
C331 C333 1.390 . S
C331 H335 0.950 . S
H332 C328 0.950 . S
C333 C331 1.390 . S
C333 C334 1.387 . S
C333 H336 0.950 . S
C334 C333 1.387 . S
C334 C337 1.387 . S
H335 C331 0.950 . S
H336 C333 0.950 . S
C337 C328 1.390 . S
C337 H330 0.950 . S
C337 C334 1.387 . S
C338 C339 1.387 1_556 S
C338 H342 0.949 1_556 S
C338 C347 1.391 . S
C339 C338 1.387 1_554 S
C339 C341 1.387 1_554 S
H340 C347 0.950 . S
C341 C339 1.387 1_556 S
C341 C343 1.390 . S
C341 H345 0.949 1_556 S
H342 C338 0.949 1_554 S
C343 C341 1.390 . S
C343 C344 1.387 . S
C343 H346 0.950 . S
C344 C343 1.387 . S
C344 C347 1.387 . S
H345 C341 0.949 1_554 S
H346 C343 0.950 . S
C347 C338 1.391 . S
C347 H340 0.950 . S
C347 C344 1.387 . S
C348 C349 1.387 . S
C348 H352 0.950 . S
C348 C357 1.390 1_545 S
C349 C348 1.387 . S
C349 C351 1.387 . S
H350 C357 0.950 . S
C351 C349 1.387 . S
C351 C353 1.390 1_545 S
C351 H355 0.950 . S
H352 C348 0.950 . S
C353 C351 1.390 1_565 S
C353 C354 1.387 . S
C353 H356 0.950 . S
C354 C353 1.387 . S
C354 C357 1.387 . S
H355 C351 0.950 . S
H356 C353 0.950 . S
C357 C348 1.390 1_565 S
C357 H350 0.950 . S
C357 C354 1.387 . S
C358 C359 1.387 . S
C358 H362 0.950 . S
C358 C367 1.390 . S
C359 C358 1.387 . S
C359 C361 1.387 . S
H360 C367 0.950 . S
C361 C359 1.387 . S
C361 C363 1.390 . S
C361 H365 0.950 . S
H362 C358 0.950 . S
C363 C361 1.390 . S
C363 C364 1.387 . S
C363 H366 0.950 . S
C364 C363 1.387 . S
C364 C367 1.387 . S
H365 C361 0.950 . S
H366 C363 0.950 . S
C367 C358 1.390 . S
C367 H360 0.950 . S
C367 C364 1.387 . S
C368 C369 1.387 1_655 S
C368 H372 0.950 . S
C368 C377 1.390 . S
C369 C368 1.387 1_455 S
C369 C371 1.387 . S
H370 C377 0.950 . S
C371 C369 1.387 . S
C371 C373 1.390 . S
C371 H375 0.950 . S
H372 C368 0.950 . S
C373 C371 1.390 . S
C373 C374 1.387 1_455 S
C373 H376 0.950 . S
C374 C373 1.387 1_655 S
C374 C377 1.387 . S
H375 C371 0.950 . S
H376 C373 0.950 . S
C377 C368 1.390 . S
C377 H370 0.950 . S
C377 C374 1.387 . S
C378 C379 1.387 . S
C378 H382 0.950 . S
C378 C387 1.390 1_565 S
C379 C378 1.387 . S
C379 C381 1.387 . S
H380 C387 0.950 . S
C381 C379 1.387 . S
C381 C383 1.390 1_565 S
C381 H385 0.950 . S
H382 C378 0.950 . S
C383 C381 1.390 1_545 S
C383 C384 1.387 . S
C383 H386 0.950 . S
C384 C383 1.387 . S
C384 C387 1.387 . S
H385 C381 0.950 . S
H386 C383 0.950 . S
C387 C378 1.390 1_545 S
C387 H380 0.950 . S
C387 C384 1.387 . S
C388 C389 1.387 . S
C388 H392 0.950 . S
C388 C397 1.390 . S
C389 C388 1.387 . S
C389 C391 1.387 . S
H390 C397 0.950 . S
C391 C389 1.387 . S
C391 C393 1.390 . S
C391 H395 0.950 . S
H392 C388 0.950 . S
C393 C391 1.390 . S
C393 C394 1.387 . S
C393 H396 0.950 . S
C394 C393 1.387 . S
C394 C397 1.387 . S
H395 C391 0.950 . S
H396 C393 0.950 . S
C397 C388 1.390 . S
C397 H390 0.950 . S
C397 C394 1.387 . S
C398 C399 1.387 1_455 S
C398 H402 0.950 . S
C398 C407 1.390 . S
C399 C398 1.387 1_655 S
C399 C401 1.387 . S
H400 C407 0.950 . S
C401 C399 1.387 . S
C401 C403 1.390 . S
C401 H405 0.950 . S
H402 C398 0.950 . S
C403 C401 1.390 . S
C403 C404 1.387 1_655 S
C403 H406 0.950 . S
C404 C403 1.387 1_455 S
C404 C407 1.387 . S
H405 C401 0.950 . S
H406 C403 0.950 . S
C407 C398 1.390 . S
C407 H400 0.950 . S
C407 C404 1.387 . S
C169 C6 1.611 . S
C174 C118 1.611 . S
C179 C20 1.612 . S
C184 C132 1.612 . S
C189 C146 1.611 . S
C194 C34 1.611 . S
C199 C160 1.611 . S
C204 C48 1.611 . S
C209 C90 1.612 . S
C214 C62 1.612 . S
C219 C104 1.612 . S
C224 C76 1.612 . S
C229 C7 1.649 . S
C234 C49 1.649 . S
C239 C63 1.649 . S
C244 C21 1.649 . S
C249 C77 1.646 . S
C254 C35 1.646 . S
C259 C91 1.649 . S
C264 C133 1.649 . S
C269 C147 1.649 . S
C274 C105 1.649 . S
C279 C119 1.650 . S
C284 C161 1.650 . S
C289 C92 1.377 . S
C294 C8 1.377 . S
C299 C22 1.377 . S
C304 C106 1.378 . S
C309 C120 1.377 . S
C314 C36 1.377 . S
C319 C134 1.378 . S
C324 C50 1.377 . S
C329 C64 1.377 . S
C334 C148 1.378 . S
C339 C162 1.377 . S
C344 C78 1.377 . S
C349 C9 1.182 . S
C354 C107 1.182 . S
C359 C121 1.185 . S
C364 C23 1.186 . S
C369 C135 1.186 . S
C374 C37 1.184 . S
C379 C51 1.182 . S
C384 C149 1.182 . S
C389 C163 1.184 . S
C394 C65 1.182 . S
C399 C93 1.185 . S
C404 C79 1.183 . S
