# Generated by pormake.
# Topology srs, (3)-cn, num edge types: 1
# Building blocks:
#     Node 0, Type 0, BuildingBlock: OLANEW_clean_sbu_2, # of connection points: 3
#     Node 1, Type 0, BuildingBlock: OLANEW_clean_sbu_2, # of connection points: 3
#     Node 2, Type 0, BuildingBlock: OLANEW_clean_sbu_2, # of connection points: 3
#     Node 3, Type 0, BuildingBlock: OLANEW_clean_sbu_2, # of connection points: 3
#     Node 4, Type 0, BuildingBlock: OLANEW_clean_sbu_2, # of connection points: 3
#     Node 5, Type 0, BuildingBlock: OLANEW_clean_sbu_2, # of connection points: 3
#     Node 6, Type 0, BuildingBlock: OLANEW_clean_sbu_2, # of connection points: 3
#     Node 7, Type 0, BuildingBlock: OLANEW_clean_sbu_2, # of connection points: 3
#     Edge 8, Type (0, 0), BuildingBlock: FUNLAD_clean_linker_1, # of connection points: 2
#     Edge 9, Type (0, 0), BuildingBlock: FUNLAD_clean_linker_1, # of connection points: 2
#     Edge 10, Type (0, 0), BuildingBlock: FUNLAD_clean_linker_1, # of connection points: 2
#     Edge 11, Type (0, 0), BuildingBlock: FUNLAD_clean_linker_1, # of connection points: 2
#     Edge 12, Type (0, 0), BuildingBlock: FUNLAD_clean_linker_1, # of connection points: 2
#     Edge 13, Type (0, 0), BuildingBlock: FUNLAD_clean_linker_1, # of connection points: 2
#     Edge 14, Type (0, 0), BuildingBlock: FUNLAD_clean_linker_1, # of connection points: 2
#     Edge 15, Type (0, 0), BuildingBlock: FUNLAD_clean_linker_1, # of connection points: 2
#     Edge 16, Type (0, 0), BuildingBlock: FUNLAD_clean_linker_1, # of connection points: 2
#     Edge 17, Type (0, 0), BuildingBlock: FUNLAD_clean_linker_1, # of connection points: 2
#     Edge 18, Type (0, 0), BuildingBlock: FUNLAD_clean_linker_1, # of connection points: 2
#     Edge 19, Type (0, 0), BuildingBlock: FUNLAD_clean_linker_1, # of connection points: 2
# Relax obj value: 0.001
# Max RMSD: 0.084
# Mean RMSD: 0.072
data_MOF--net-srs--node1-OLANEW_clean_sbu_2--edge1-FUNLAD_clean_linker_1
_symmetry_space_group_name_H-M    P1
_symmetry_Int_Tables_number       1
_symmetry_cell_setting            triclinic
loop_
_symmetry_equiv_pos_as_xyz
'x, y, z'
_cell_length_a     39.271263
_cell_length_b     54.311882
_cell_length_c     47.577978
_cell_angle_alpha  101.38441
_cell_angle_beta   88.739755
_cell_angle_gamma 101.03257
loop_
_atom_site_label
_atom_site_type_symbol
_atom_site_fract_x
_atom_site_fract_y
_atom_site_fract_z
_atom_type_partial_charge
O0 O 0.09279 0.07842 0.11795 0.0
Cd1 Cd 0.06839 0.09126 0.16518 0.0
O2 O 0.12522 0.11662 0.11987 0.0
Cd3 Cd 0.10044 0.1356 0.15734 0.0
O4 O 0.07174 0.16607 0.17364 0.0
C5 C 0.08141 0.18646 0.164 0.0
O6 O 0.10812 0.18803 0.14686 0.0
C7 C 0.11588 0.09344 0.10713 0.0
C8 C 0.06244 0.05323 0.19773 0.0
O9 O 0.09054 0.06985 0.19828 0.0
O10 O 0.03719 0.05455 0.18186 0.0
O11 O 0.11714 0.89339 0.39483 0.0
Cd12 Cd 0.0791 0.87971 0.35227 0.0
O13 O 0.07409 0.89196 0.42528 0.0
Cd14 Cd 0.03521 0.87349 0.3918 0.0
O15 O 0.00036 0.83866 0.37093 0.0
C16 C 0.0138 0.81894 0.36301 0.0
O17 O 0.04744 0.82101 0.36597 0.0
C18 C 0.10638 0.89683 0.42047 0.0
C19 C 0.08527 0.91676 0.31841 0.0
O20 O 0.06237 0.91577 0.338 0.0
O21 O 0.10529 0.9004 0.3149 0.0
O22 O 0.4367 0.91513 0.66155 0.0
Cd23 Cd 0.47441 0.89272 0.62852 0.0
O24 O 0.3955 0.90272 0.62858 0.0
Cd25 Cd 0.34573 0.90483 0.61038 0.0
O26 O 0.30578 0.90751 0.58041 0.0
C27 C 0.31593 0.91159 0.55588 0.0
O28 O 0.3491 0.91415 0.55008 0.0
C29 C 0.40616 0.91514 0.65327 0.0
C30 C 0.48439 0.84637 0.64043 0.0
O31 O 0.50466 0.8674 0.65133 0.0
O32 O 0.45899 0.84727 0.62448 0.0
O33 O 0.3197 0.13826 0.81803 0.0
Cd34 Cd 0.27862 0.09847 0.81887 0.0
O35 O 0.3378 0.14625 0.86307 0.0
Cd36 Cd 0.30336 0.1146 0.87731 0.0
O37 O 0.27888 0.10044 0.91424 0.0
C38 C 0.24648 0.09237 0.91573 0.0
O39 O 0.22626 0.09089 0.89358 0.0
C40 C 0.33906 0.15211 0.83843 0.0
C41 C 0.30037 0.05872 0.7808 0.0
O42 O 0.28488 0.07444 0.77178 0.0
O43 O 0.30526 0.06143 0.80787 0.0
O44 O 0.60986 0.41507 0.90302 0.0
Cd45 Cd 0.56137 0.40212 0.86847 0.0
O46 O 0.62641 0.37793 0.89038 0.0
Cd47 Cd 0.58067 0.35903 0.86377 0.0
O48 O 0.53482 0.32869 0.85412 0.0
C49 C 0.5212 0.32038 0.87575 0.0
O50 O 0.53447 0.33089 0.90138 0.0
C51 C 0.63113 0.40054 0.90514 0.0
C52 C 0.55692 0.43964 0.837 0.0
O53 O 0.53949 0.43837 0.85991 0.0
O54 O 0.57649 0.42326 0.82893 0.0
O55 O 0.92406 0.4107 0.16193 0.0
Cd56 Cd 0.95253 0.38255 0.12652 0.0
O57 O 0.89321 0.41324 0.12523 0.0
Cd58 Cd 0.85336 0.42687 0.10439 0.0
O59 O 0.81469 0.43271 0.07525 0.0
C60 C 0.81689 0.45354 0.06636 0.0
O61 O 0.84263 0.47262 0.0754 0.0
C62 C 0.9004 0.4197 0.15188 0.0
C63 C -0.01737 0.34691 0.14697 0.0
O64 O 8e-05 0.36923 0.14613 0.0
O65 O 0.95067 0.34162 0.13891 0.0
O66 O 0.81558 0.63482 0.33571 0.0
Cd67 Cd 0.7851 0.59311 0.34361 0.0
O68 O 0.8552 0.63794 0.36896 0.0
Cd69 Cd 0.828 0.60567 0.38681 0.0
O70 O 0.80152 0.59135 0.42288 0.0
C71 C 0.7687 0.58807 0.42436 0.0
O72 O 0.75072 0.59154 0.40297 0.0
C73 C 0.84346 0.64668 0.34902 0.0
C74 C 0.81418 0.55406 0.31093 0.0
O75 O 0.78951 0.56225 0.30073 0.0
O76 O 0.82488 0.56408 0.33662 0.0
O77 O 0.59651 0.58902 0.61806 0.0
Cd78 Cd 0.57123 0.60342 0.66446 0.0
O79 O 0.64025 0.62178 0.62561 0.0
Cd80 Cd 0.61698 0.64318 0.66228 0.0
O81 O 0.59449 0.67697 0.6786 0.0
C82 C 0.57815 0.68422 0.65996 0.0
O83 O 0.57483 0.67062 0.63372 0.0
C84 C 0.62526 0.60071 0.6103 0.0
C85 C 0.57696 0.57113 0.70226 0.0
O86 O 0.54947 0.56775 0.68684 0.0
O87 O 0.60166 0.58975 0.69993 0.0
H88 H 0.10974 0.93666 0.2848 0.0
C89 C 0.08874 0.93603 0.30007 0.0
H90 H 0.04609 0.95231 0.31695 0.0
H91 H 0.09498 0.05852 0.27997 0.0
H92 H 0.1011 0.07066 0.3317 0.0
H93 H 0.09403 0.03786 0.36169 0.0
H94 H 0.08053 0.99272 0.34016 0.0
C95 C 0.06667 0.95231 0.30131 0.0
C96 C 0.07108 0.97193 0.28291 0.0
C97 C 0.07931 0.99825 0.29581 0.0
C98 C 0.08397 0.01716 0.27847 0.0
C99 C 0.09164 0.04332 0.29203 0.0
C100 C 0.09516 0.05058 0.32173 0.0
C101 C 0.09114 0.03212 0.33862 0.0
C102 C 0.08332 0.00625 0.32595 0.0
H103 H 0.03374 0.02031 0.21459 0.0
C104 C 0.05879 0.03302 0.21485 0.0
H105 H 0.11013 0.04276 0.23134 0.0
H106 H 0.05087 0.92337 0.25133 0.0
H107 H 0.04744 0.91111 0.19952 0.0
H108 H 0.06094 0.94365 0.16929 0.0
H109 H 0.0771 0.98866 0.19072 0.0
C110 C 0.08523 0.02977 0.23033 0.0
C111 C 0.08066 0.00974 0.24821 0.0
C112 C 0.073 0.98338 0.23524 0.0
C113 C 0.06719 0.9645 0.25264 0.0
C114 C 0.05721 0.93844 0.23918 0.0
C115 C 0.05488 0.93113 0.20943 0.0
C116 C 0.06232 0.94946 0.19241 0.0
C117 C 0.07132 0.97528 0.20503 0.0
H118 H 0.12052 0.90565 0.46646 0.0
C119 C 0.13105 0.90414 0.44499 0.0
H120 H 0.1762 0.90364 0.42017 0.0
H121 H 0.23958 0.95353 0.55277 0.0
H122 H 0.21365 0.9901 0.54975 0.0
H123 H 0.17675 0.98951 0.50822 0.0
H124 H 0.16539 0.95233 0.46954 0.0
C125 C 0.16547 0.90629 0.44157 0.0
C126 C 0.18888 0.90752 0.46621 0.0
C127 C 0.19548 0.92952 0.4885 0.0
C128 C 0.2172 0.93002 0.51224 0.0
C129 C 0.22335 0.95218 0.53423 0.0
C130 C 0.20866 0.9733 0.53275 0.0
C131 C 0.18784 0.97296 0.50938 0.0
C132 C 0.18135 0.95142 0.48741 0.0
H133 H 0.30126 0.91355 0.5121 0.0
C134 C 0.29112 0.91202 0.53327 0.0
H135 H 0.24613 0.90896 0.55863 0.0
H136 H 0.18124 0.86216 0.42731 0.0
H137 H 0.20688 0.82564 0.43059 0.0
H138 H 0.24404 0.82641 0.47199 0.0
H139 H 0.25586 0.86376 0.51031 0.0
C140 C 0.25684 0.90979 0.53751 0.0
C141 C 0.23277 0.90874 0.51338 0.0
C142 C 0.22591 0.88665 0.49124 0.0
C143 C 0.20419 0.88612 0.46753 0.0
C144 C 0.19769 0.86374 0.44577 0.0
C145 C 0.21216 0.84256 0.44741 0.0
C146 C 0.2331 0.843 0.4707 0.0
C147 C 0.23987 0.86467 0.49247 0.0
H148 H 0.35583 0.92275 0.67067 0.0
C149 C 0.38363 0.93005 0.67166 0.0
H150 H 0.42458 0.95985 0.68887 0.0
H151 H 0.27546 0.00262 0.72233 0.0
H152 H 0.26017 0.99091 0.67168 0.0
H153 H 0.29915 0.97098 0.63674 0.0
H154 H 0.35257 0.96155 0.65242 0.0
C155 C 0.39673 0.95272 0.68845 0.0
C156 C 0.37503 0.96792 0.70837 0.0
C157 C 0.34563 0.97556 0.69827 0.0
C158 C 0.32501 0.98948 0.71795 0.0
C159 C 0.29347 0.99395 0.70795 0.0
C160 C 0.28419 0.98707 0.67897 0.0
C161 C 0.306 0.97569 0.65935 0.0
C162 C 0.33644 0.97005 0.66874 0.0
H163 H 0.32104 0.04319 0.73914 0.0
C164 C 0.31402 0.03911 0.7602 0.0
H165 H 0.31083 0.01297 0.7878 0.0
H166 H 0.42766 0.9546 0.73563 0.0
H167 H 0.44513 0.96915 0.7855 0.0
H168 H 0.41397 0.9981 0.81821 0.0
H169 H 0.36476 0.01218 0.80141 0.0
C170 C 0.31829 0.01693 0.76678 0.0
C171 C 0.33616 0.99861 0.74699 0.0
C172 C 0.3657 0.99119 0.75704 0.0
C173 C 0.38459 0.97535 0.73789 0.0
C174 C 0.41301 0.96731 0.74888 0.0
C175 C 0.42328 0.97542 0.77756 0.0
C176 C 0.40568 0.99165 0.79598 0.0
C177 C 0.37729 0.99953 0.78599 0.0
H178 H 0.11835 0.06557 0.06671 0.0
C179 C 0.12974 0.08448 0.07861 0.0
H180 H 0.16451 0.11911 0.07777 0.0
H181 H 0.21589 0.04338 0.9639 0.0
H182 H 0.23124 0.0182 -0.00313 0.0
H183 H 0.21638 0.02766 0.04803 0.0
H184 H 0.1856 0.06201 0.06644 0.0
C185 C 0.15391 0.09987 0.0663 0.0
C186 C 0.16266 0.09335 0.03546 0.0
C187 C 0.18146 0.0736 0.02529 0.0
C188 C 0.1913 0.06882 -0.00398 0.0
C189 C 0.2089 0.04839 0.98613 0.0
C190 C 0.21767 0.0337 0.00478 0.0
C191 C 0.2092 0.03898 0.03357 0.0
C192 C 0.19137 0.05869 0.04383 0.0
H193 H 0.24956 0.09301 0.96202 0.0
C194 C 0.23184 0.08846 0.94368 0.0
H195 H 0.1795 0.07825 0.92975 0.0
H196 H 0.1242 0.13119 0.04742 0.0
H197 H 0.10981 0.15675 0.01467 0.0
H198 H 0.12915 0.14977 0.96455 0.0
H199 H 0.16272 0.11708 0.94682 0.0
C200 C 0.19759 0.08201 0.94774 0.0
C201 C 0.18351 0.08443 0.9773 0.0
C202 C 0.16385 0.10367 0.9873 0.0
C203 C 0.1533 0.10805 0.01635 0.0
C204 C 0.13348 0.12731 0.02571 0.0
C205 C 0.1249 0.1421 0.00711 0.0
C206 C 0.13575 0.13815 0.97889 0.0
C207 C 0.155 0.11923 0.96899 0.0
H208 H 0.02776 0.33247 0.15929 0.0
C209 C -6e-05 0.32744 0.15505 0.0
H210 H 0.95564 0.29792 0.1496 0.0
H211 H 0.04162 0.21097 0.1073 0.0
H212 H 0.00927 0.21046 0.0643 0.0
H213 H -0.02628 0.24306 0.06294 0.0
H214 H -0.02982 0.27627 0.10455 0.0
C215 C -0.0168 0.30338 0.15482 0.0
C216 C 0.00276 0.28279 0.15668 0.0
C217 C 0.00439 0.26343 0.13213 0.0
C218 C 0.02525 0.24485 0.13277 0.0
C219 C 0.0265 0.22576 0.10791 0.0
C220 C 0.008 0.22519 0.08308 0.0
C221 C -0.01205 0.24352 0.08233 0.0
C222 C -0.01389 0.26248 0.10645 0.0
H223 H 0.03747 0.20424 0.18224 0.0
C224 C 0.0607 0.20687 0.16947 0.0
H225 H 0.09092 0.22973 0.14348 0.0
H226 H 0.00146 0.31501 0.2086 0.0
H227 H 0.03405 0.31558 0.25159 0.0
H228 H 0.07219 0.28445 0.25203 0.0
H229 H 0.07767 0.25236 0.2096 0.0
C230 C 0.06853 0.22749 0.15723 0.0
C231 C 0.04444 0.24563 0.15792 0.0
C232 C 0.04196 0.26446 0.18277 0.0
C233 C 0.02075 0.28289 0.18226 0.0
C234 C 0.01799 0.30106 0.20758 0.0
C235 C 0.03639 0.3015 0.23243 0.0
C236 C 0.05781 0.28393 0.2327 0.0
C237 C 0.06068 0.26558 0.20822 0.0
H238 H 0.36404 0.17943 0.81183 0.0
C239 C 0.36291 0.17527 0.83331 0.0
H240 H 0.38094 0.18796 0.87621 0.0
H241 H 0.51071 0.25318 0.81621 0.0
H242 H 0.52522 0.21203 0.79565 0.0
H243 H 0.48542 0.17189 0.79976 0.0
H244 H 0.43084 0.17266 0.82438 0.0
C245 C 0.38272 0.19134 0.85442 0.0
C246 C 0.40551 0.21528 0.84955 0.0
C247 C 0.43723 0.21444 0.83488 0.0
C248 C 0.46033 0.2376 0.83273 0.0
C249 C 0.49214 0.23622 0.81844 0.0
C250 C 0.50083 0.21271 0.80655 0.0
C251 C 0.47841 0.19011 0.80885 0.0
C252 C 0.44705 0.19084 0.82294 0.0
H253 H 0.48274 0.29182 0.89215 0.0
C254 C 0.49225 0.2983 0.87269 0.0
H255 H 0.48833 0.29097 0.82747 0.0
H256 H 0.34562 0.22353 0.87712 0.0
H257 H 0.33007 0.26471 0.89605 0.0
H258 H 0.36946 0.30483 0.8912 0.0
H259 H 0.42479 0.304 0.8676 0.0
C260 C 0.47837 0.28538 0.84723 0.0
C261 C 0.45185 0.26148 0.84559 0.0
C262 C 0.4192 0.2623 0.85874 0.0
C263 C 0.39622 0.23917 0.86104 0.0
C264 C 0.36408 0.24053 0.8748 0.0
C265 C 0.35477 0.26403 0.88567 0.0
C266 C 0.37697 0.28662 0.88298 0.0
C267 C 0.40878 0.28588 0.8696 0.0
H268 H 0.00488 0.77694 0.35168 0.0
C269 C -0.008 0.79328 0.35471 0.0
H270 H 0.94395 0.80549 0.3577 0.0
H271 H 0.91429 0.67817 0.30555 0.0
H272 H 0.9443 0.68856 0.26306 0.0
H273 H -0.03021 0.73328 0.26064 0.0
H274 H -0.03412 0.76785 0.30094 0.0
C275 C 0.95717 0.78933 0.35376 0.0
C276 C 0.9363 0.76317 0.35266 0.0
C277 C 0.93754 0.74333 0.32849 0.0
C278 C 0.92171 0.71766 0.32949 0.0
C279 C 0.92497 0.69807 0.30566 0.0
C280 C 0.94224 0.70377 0.28116 0.0
C281 C 0.95668 0.72894 0.27982 0.0
C282 C 0.95445 0.74857 0.30315 0.0
H283 H 0.84901 0.67927 0.32665 0.0
C284 C 0.86089 0.67147 0.34248 0.0
H285 H 0.90077 0.67797 0.37359 0.0
H286 H 0.92658 0.79695 0.40195 0.0
H287 H 0.89361 0.78692 0.44316 0.0
H288 H 0.86432 0.74267 0.44412 0.0
H289 H 0.86806 0.70817 0.40388 0.0
C290 C 0.88953 0.6852 0.35694 0.0
C291 C 0.90368 0.71207 0.35431 0.0
C292 C 0.90061 0.73214 0.37774 0.0
C293 C 0.91699 0.7577 0.37697 0.0
C294 C 0.91431 0.77722 0.4011 0.0
C295 C 0.89548 0.77173 0.42499 0.0
C296 C 0.87903 0.74682 0.42555 0.0
C297 C 0.88149 0.72719 0.4023 0.0
H298 H 0.57083 0.72025 0.6885 0.0
C299 C 0.56599 0.70878 0.66701 0.0
H300 H 0.54758 0.70696 0.62515 0.0
H301 H 0.47316 0.8005 0.69306 0.0
H302 H 0.43752 0.76833 0.71558 0.0
H303 H 0.4499 0.72471 0.70897 0.0
H304 H 0.4982 0.71305 0.68009 0.0
C305 C 0.55124 0.71786 0.64698 0.0
C306 C 0.54422 0.74432 0.65234 0.0
C307 C 0.51558 0.75065 0.66896 0.0
C308 C 0.50784 0.7756 0.67211 0.0
C309 C 0.4796 0.78164 0.68935 0.0
C310 C 0.45906 0.7634 0.70251 0.0
C311 C 0.46608 0.73885 0.69884 0.0
C312 C 0.49395 0.73243 0.68226 0.0
H313 H 0.47359 0.80424 0.63378 0.0
C314 C 0.49093 0.82145 0.64454 0.0
H315 H 0.53716 0.83636 0.66895 0.0
H316 H 0.60224 0.73885 0.62053 0.0
H317 H 0.63766 0.77092 0.59787 0.0
H318 H 0.62349 0.81385 0.60241 0.0
H319 H 0.57392 0.82499 0.6297 0.0
C320 C 0.51883 0.81934 0.6591 0.0
C321 C 0.52832 0.79394 0.65813 0.0
C322 C 0.55754 0.78781 0.6422 0.0
C323 C 0.56547 0.76297 0.63929 0.0
C324 C 0.59477 0.75733 0.62318 0.0
C325 C 0.61539 0.77558 0.6101 0.0
C326 C 0.60744 0.79975 0.61269 0.0
C327 C 0.57889 0.8059 0.62847 0.0
H328 H 0.60588 0.55615 0.73223 0.0
C329 C 0.58072 0.55394 0.72195 0.0
H330 H 0.5293 0.53317 0.71679 0.0
H331 H 0.55687 0.43252 0.75039 0.0
H332 H 0.54085 0.41814 0.70011 0.0
H333 H 0.53362 0.44898 0.67002 0.0
H334 H 0.54203 0.49435 0.69009 0.0
C335 C 0.55432 0.53586 0.72743 0.0
C336 C 0.55917 0.51751 0.74587 0.0
C337 C 0.55465 0.49104 0.73369 0.0
C338 C 0.55956 0.47331 0.7509 0.0
C339 C 0.5541 0.44692 0.73826 0.0
C340 C 0.5448 0.43837 0.7094 0.0
C341 C 0.54069 0.45572 0.69248 0.0
C342 C 0.54552 0.48175 0.70433 0.0
H343 H 0.53434 0.47104 0.82661 0.0
C344 C 0.55387 0.45935 0.82034 0.0
H345 H 0.59338 0.45123 0.79119 0.0
H346 H 0.56502 0.56634 0.77723 0.0
H347 H 0.58411 0.58107 0.82681 0.0
H348 H 0.59869 0.551 0.85522 0.0
H349 H 0.59333 0.50594 0.83442 0.0
C350 C 0.57429 0.4632 0.79796 0.0
C351 C 0.56947 0.48208 0.7802 0.0
C352 C 0.57466 0.50863 0.79227 0.0
C353 C 0.56839 0.52624 0.77535 0.0
C354 C 0.5712 0.55233 0.78858 0.0
C355 C 0.58187 0.56103 0.81713 0.0
C356 C 0.58991 0.54408 0.83316 0.0
C357 C 0.58643 0.51819 0.821 0.0
H358 H 0.79491 0.474 0.03747 0.0
C359 C 0.79183 0.45603 0.04491 0.0
H360 H 0.76242 0.41865 0.04148 0.0
H361 H 0.62656 0.43605 0.98853 0.0
H362 H 0.60919 0.43749 0.03794 0.0
H363 H 0.65222 0.43983 0.07585 0.0
H364 H 0.71293 0.4406 0.06449 0.0
C365 C 0.76636 0.43649 0.03371 0.0
C366 C 0.74169 0.43859 0.01141 0.0
C367 C 0.70645 0.43867 0.01845 0.0
C368 C 0.68173 0.43765 -0.00335 0.0
C369 C 0.64653 0.43705 0.00423 0.0
C370 C 0.63618 0.43786 0.03253 0.0
C371 C 0.6604 0.43915 0.05387 0.0
C372 C 0.69514 0.43952 0.04705 0.0
H373 H 0.67729 0.3953 0.92685 0.0
C374 C 0.66044 0.40884 0.92582 0.0
H375 H 0.64825 0.44465 0.94466 0.0
H376 H 0.80732 0.4383 0.99037 0.0
H377 H 0.82522 0.43957 0.94154 0.0
H378 H 0.78291 0.44063 0.90443 0.0
H379 H 0.72223 0.43997 0.91593 0.0
C380 C 0.66565 0.43129 0.94453 0.0
C381 C 0.69235 0.43656 0.96782 0.0
C382 C 0.72799 0.43827 0.96112 0.0
C383 C 0.75261 0.43875 0.98281 0.0
C384 C 0.78765 0.43878 0.97505 0.0
C385 C 0.79829 0.43939 0.94702 0.0
C386 C 0.77445 0.43991 0.92611 0.0
C387 C 0.73968 0.43935 0.93295 0.0
H388 H 0.86158 0.44464 0.16077 0.0
C389 C 0.88174 0.43766 0.17046 0.0
H390 H 0.91036 0.44011 0.20834 0.0
H391 H 0.88192 0.55127 0.2599 0.0
H392 H 0.94229 0.56118 0.24699 0.0
H393 H -0.02861 0.52762 0.22003 0.0
H394 H 0.94015 0.48396 0.20564 0.0
C395 C 0.88942 0.44611 0.1985 0.0
C396 C 0.87207 0.46582 0.21613 0.0
C397 C 0.89096 0.49109 0.22508 0.0
C398 C 0.87436 0.51033 0.24113 0.0
C399 C 0.89345 0.53569 0.24854 0.0
C400 C 0.9281 0.54171 0.24105 0.0
C401 C 0.94448 0.52283 0.22584 0.0
C402 C 0.92623 0.49782 0.21778 0.0
H403 H 0.8513 0.52774 0.30352 0.0
C404 C 0.83062 0.534 0.29362 0.0
H405 H 0.80044 0.52951 0.25608 0.0
H406 H 0.82906 0.41886 0.20404 0.0
H407 H 0.76863 0.40885 0.21699 0.0
H408 H 0.73972 0.44224 0.24461 0.0
H409 H 0.77112 0.48582 0.25955 0.0
C410 C 0.82163 0.52394 0.26608 0.0
C411 C 0.83909 0.50407 0.24883 0.0
C412 C 0.82021 0.47878 0.23988 0.0
C413 C 0.83677 0.45959 0.22368 0.0
C414 C 0.81758 0.43431 0.2158 0.0
C415 C 0.78291 0.42827 0.22324 0.0
C416 C 0.76664 0.44706 0.23882 0.0
C417 C 0.78496 0.47202 0.2472 0.0
H418 H 0.76872 0.58525 0.46994 0.0
C419 C 0.75205 0.58464 0.45177 0.0
H420 H 0.7012 0.58406 0.43793 0.0
H421 H 0.68573 0.55848 0.57079 0.0
H422 H 0.70419 0.51861 0.55055 0.0
H423 H 0.72136 0.50941 0.49993 0.0
H424 H 0.72067 0.54021 0.46934 0.0
C425 C 0.71789 0.58374 0.45572 0.0
C426 C 0.70345 0.58744 0.48513 0.0
C427 C 0.70282 0.56885 0.5024 0.0
C428 C 0.69169 0.57377 0.53131 0.0
C429 C 0.6929 0.55541 0.54847 0.0
C430 C 0.70359 0.53249 0.53715 0.0
C431 C 0.71336 0.52734 0.50867 0.0
C432 C 0.71303 0.54523 0.4914 0.0
H433 H 0.62427 0.57451 0.56822 0.0
C434 C 0.63966 0.59088 0.5823 0.0
H435 H 0.6845 0.61988 0.58659 0.0
H436 H 0.70064 0.62699 0.45766 0.0
H437 H 0.67985 0.66593 0.47724 0.0
H438 H 0.65834 0.67365 0.52669 0.0
H439 H 0.65778 0.64254 0.5569 0.0
C440 C 0.6696 0.60297 0.57297 0.0
C441 C 0.68019 0.59692 0.54255 0.0
C442 C 0.67971 0.6151 0.52495 0.0
C443 C 0.69146 0.61042 0.49627 0.0
C444 C 0.69151 0.62928 0.47946 0.0
C445 C 0.67969 0.6518 0.49044 0.0
C446 C 0.66764 0.65616 0.51828 0.0
C447 C 0.66757 0.63813 0.53542 0.0
loop_
_geom_bond_atom_site_label_1
_geom_bond_atom_site_label_2
_geom_bond_distance
_geom_bond_site_symmetry_2
_ccdc_geom_bond_type
O0 Cd1 2.300 . S
O0 C7 1.275 . S
Cd1 O0 2.300 . S
Cd1 O9 2.381 . S
Cd1 O10 2.378 . S
O2 Cd3 2.385 . S
O2 C7 1.255 . S
Cd3 O2 2.385 . S
Cd3 O4 2.317 . S
O4 Cd3 2.317 . S
O4 C5 1.232 . S
C5 O4 1.232 . S
C5 O6 1.218 . S
O6 C5 1.218 . S
C7 O0 1.275 . S
C7 O2 1.255 . S
C8 O9 1.258 . S
C8 O10 1.256 . S
O9 Cd1 2.381 . S
O9 C8 1.258 . S
O10 Cd1 2.378 . S
O10 C8 1.256 . S
O11 Cd12 2.300 . S
O11 C18 1.275 . S
Cd12 O11 2.300 . S
Cd12 O20 2.381 . S
Cd12 O21 2.378 . S
O13 Cd14 2.385 . S
O13 C18 1.255 . S
Cd14 O13 2.385 . S
Cd14 O15 2.317 . S
O15 Cd14 2.317 . S
O15 C16 1.232 . S
C16 O15 1.232 . S
C16 O17 1.218 . S
O17 C16 1.218 . S
C18 O11 1.275 . S
C18 O13 1.255 . S
C19 O20 1.258 . S
C19 O21 1.256 . S
O20 Cd12 2.381 . S
O20 C19 1.258 . S
O21 Cd12 2.378 . S
O21 C19 1.256 . S
O22 Cd23 2.300 . S
O22 C29 1.275 . S
Cd23 O22 2.300 . S
Cd23 O31 2.381 . S
Cd23 O32 2.378 . S
O24 Cd25 2.385 . S
O24 C29 1.255 . S
Cd25 O24 2.385 . S
Cd25 O26 2.317 . S
O26 Cd25 2.317 . S
O26 C27 1.232 . S
C27 O26 1.232 . S
C27 O28 1.218 . S
O28 C27 1.218 . S
C29 O22 1.275 . S
C29 O24 1.255 . S
C30 O31 1.258 . S
C30 O32 1.256 . S
O31 Cd23 2.381 . S
O31 C30 1.258 . S
O32 Cd23 2.378 . S
O32 C30 1.256 . S
O33 Cd34 2.300 . S
O33 C40 1.275 . S
Cd34 O33 2.300 . S
Cd34 O42 2.381 . S
Cd34 O43 2.378 . S
O35 Cd36 2.385 . S
O35 C40 1.255 . S
Cd36 O35 2.385 . S
Cd36 O37 2.317 . S
O37 Cd36 2.317 . S
O37 C38 1.232 . S
C38 O37 1.232 . S
C38 O39 1.218 . S
O39 C38 1.218 . S
C40 O33 1.275 . S
C40 O35 1.255 . S
C41 O42 1.258 . S
C41 O43 1.256 . S
O42 Cd34 2.381 . S
O42 C41 1.258 . S
O43 Cd34 2.378 . S
O43 C41 1.256 . S
O44 Cd45 2.300 . S
O44 C51 1.275 . S
Cd45 O44 2.300 . S
Cd45 O53 2.381 . S
Cd45 O54 2.378 . S
O46 Cd47 2.385 . S
O46 C51 1.255 . S
Cd47 O46 2.385 . S
Cd47 O48 2.317 . S
O48 Cd47 2.317 . S
O48 C49 1.232 . S
C49 O48 1.232 . S
C49 O50 1.218 . S
O50 C49 1.218 . S
C51 O44 1.275 . S
C51 O46 1.255 . S
C52 O53 1.258 . S
C52 O54 1.256 . S
O53 Cd45 2.381 . S
O53 C52 1.258 . S
O54 Cd45 2.378 . S
O54 C52 1.256 . S
O55 Cd56 2.300 . S
O55 C62 1.275 . S
Cd56 O55 2.300 . S
Cd56 O64 2.381 . S
Cd56 O65 2.378 . S
O57 Cd58 2.385 . S
O57 C62 1.255 . S
Cd58 O57 2.385 . S
Cd58 O59 2.317 . S
O59 Cd58 2.317 . S
O59 C60 1.232 . S
C60 O59 1.232 . S
C60 O61 1.218 . S
O61 C60 1.218 . S
C62 O55 1.275 . S
C62 O57 1.255 . S
C63 O64 1.258 . S
C63 O65 1.256 . S
O64 Cd56 2.381 . S
O64 C63 1.258 . S
O65 Cd56 2.378 . S
O65 C63 1.256 . S
O66 Cd67 2.300 . S
O66 C73 1.275 . S
Cd67 O66 2.300 . S
Cd67 O75 2.381 . S
Cd67 O76 2.378 . S
O68 Cd69 2.385 . S
O68 C73 1.255 . S
Cd69 O68 2.385 . S
Cd69 O70 2.317 . S
O70 Cd69 2.317 . S
O70 C71 1.232 . S
C71 O70 1.232 . S
C71 O72 1.218 . S
O72 C71 1.218 . S
C73 O66 1.275 . S
C73 O68 1.255 . S
C74 O75 1.258 . S
C74 O76 1.256 . S
O75 Cd67 2.381 . S
O75 C74 1.258 . S
O76 Cd67 2.378 . S
O76 C74 1.256 . S
O77 Cd78 2.300 . S
O77 C84 1.275 . S
Cd78 O77 2.300 . S
Cd78 O86 2.381 . S
Cd78 O87 2.378 . S
O79 Cd80 2.385 . S
O79 C84 1.255 . S
Cd80 O79 2.385 . S
Cd80 O81 2.317 . S
O81 Cd80 2.317 . S
O81 C82 1.232 . S
C82 O81 1.232 . S
C82 O83 1.218 . S
O83 C82 1.218 . S
C84 O77 1.275 . S
C84 O79 1.255 . S
C85 O86 1.258 . S
C85 O87 1.256 . S
O86 Cd78 2.381 . S
O86 C85 1.258 . S
O87 Cd78 2.378 . S
O87 C85 1.256 . S
H88 C89 0.951 . S
C89 H88 0.951 . S
C89 C95 1.265 . S
H90 C95 0.950 . S
H91 C99 0.949 . S
H92 C100 0.950 . S
H93 C101 0.951 . S
H94 C102 0.951 . S
C95 C89 1.265 . S
C95 H90 0.950 . S
C95 C96 1.478 1_565 S
C96 C95 1.478 1_545 S
C96 C97 1.397 . S
C96 C113 1.394 1_545 S
C97 C96 1.397 . S
C97 C98 1.438 . S
C97 C102 1.429 . S
C98 C97 1.438 . S
C98 C99 1.428 . S
C98 C111 1.394 . S
C99 H91 0.949 . S
C99 C98 1.428 . S
C99 C100 1.345 . S
C100 H92 0.950 . S
C100 C99 1.345 . S
C100 C101 1.424 . S
C101 H93 0.951 . S
C101 C100 1.424 . S
C101 C102 1.347 . S
C102 H94 0.951 . S
C102 C97 1.429 . S
C102 C101 1.347 . S
H103 C104 0.951 . S
C104 H103 0.951 . S
C104 C110 1.265 . S
H105 C110 0.950 . S
H106 C114 0.949 . S
H107 C115 0.950 . S
H108 C116 0.951 . S
H109 C117 0.951 . S
C110 C104 1.265 . S
C110 H105 0.950 . S
C110 C111 1.478 . S
C111 C98 1.394 . S
C111 C110 1.478 . S
C111 C112 1.397 . S
C112 C111 1.397 . S
C112 C113 1.438 1_545 S
C112 C117 1.429 . S
C113 C96 1.394 1_565 S
C113 C112 1.438 1_565 S
C113 C114 1.428 . S
C114 H106 0.949 . S
C114 C113 1.428 . S
C114 C115 1.345 . S
C115 H107 0.950 . S
C115 C114 1.345 . S
C115 C116 1.424 . S
C116 H108 0.951 . S
C116 C115 1.424 . S
C116 C117 1.347 1_565 S
C117 H109 0.951 . S
C117 C112 1.429 . S
C117 C116 1.347 1_545 S
H118 C119 0.951 . S
C119 H118 0.951 . S
C119 C125 1.265 . S
H120 C125 0.950 . S
H121 C129 0.949 . S
H122 C130 0.950 . S
H123 C131 0.951 . S
H124 C132 0.951 . S
C125 C119 1.265 . S
C125 H120 0.950 . S
C125 C126 1.478 . S
C126 C125 1.478 . S
C126 C127 1.397 . S
C126 C143 1.394 . S
C127 C126 1.397 . S
C127 C128 1.438 . S
C127 C132 1.429 . S
C128 C127 1.438 . S
C128 C129 1.428 . S
C128 C141 1.394 . S
C129 H121 0.949 . S
C129 C128 1.428 . S
C129 C130 1.345 . S
C130 H122 0.950 . S
C130 C129 1.345 . S
C130 C131 1.424 . S
C131 H123 0.951 . S
C131 C130 1.424 . S
C131 C132 1.347 . S
C132 H124 0.951 . S
C132 C127 1.429 . S
C132 C131 1.347 . S
H133 C134 0.951 . S
C134 H133 0.951 . S
C134 C140 1.265 . S
H135 C140 0.950 . S
H136 C144 0.949 . S
H137 C145 0.950 . S
H138 C146 0.951 . S
H139 C147 0.951 . S
C140 C134 1.265 . S
C140 H135 0.950 . S
C140 C141 1.478 . S
C141 C128 1.394 . S
C141 C140 1.478 . S
C141 C142 1.397 . S
C142 C141 1.397 . S
C142 C143 1.438 . S
C142 C147 1.429 . S
C143 C126 1.394 . S
C143 C142 1.438 . S
C143 C144 1.428 . S
C144 H136 0.949 . S
C144 C143 1.428 . S
C144 C145 1.345 . S
C145 H137 0.950 . S
C145 C144 1.345 . S
C145 C146 1.424 . S
C146 H138 0.951 . S
C146 C145 1.424 . S
C146 C147 1.347 . S
C147 H139 0.951 . S
C147 C142 1.429 . S
C147 C146 1.347 . S
H148 C149 0.951 . S
C149 H148 0.951 . S
C149 C155 1.265 . S
H150 C155 0.950 . S
H151 C159 0.949 . S
H152 C160 0.950 . S
H153 C161 0.951 . S
H154 C162 0.951 . S
C155 C149 1.265 . S
C155 H150 0.950 . S
C155 C156 1.478 . S
C156 C155 1.478 . S
C156 C157 1.397 . S
C156 C173 1.394 . S
C157 C156 1.397 . S
C157 C158 1.438 . S
C157 C162 1.429 . S
C158 C157 1.438 . S
C158 C159 1.428 1_565 S
C158 C171 1.394 . S
C159 H151 0.949 . S
C159 C158 1.428 1_545 S
C159 C160 1.345 . S
C160 H152 0.950 . S
C160 C159 1.345 . S
C160 C161 1.424 1_545 S
C161 H153 0.951 . S
C161 C160 1.424 1_565 S
C161 C162 1.347 . S
C162 H154 0.951 . S
C162 C157 1.429 . S
C162 C161 1.347 . S
H163 C164 0.951 . S
C164 H163 0.951 . S
C164 C170 1.265 . S
H165 C170 0.950 1_565 S
H166 C174 0.949 . S
H167 C175 0.950 . S
H168 C176 0.951 . S
H169 C177 0.951 . S
C170 C164 1.265 . S
C170 H165 0.950 1_545 S
C170 C171 1.478 1_545 S
C171 C158 1.394 . S
C171 C170 1.478 1_565 S
C171 C172 1.397 . S
C172 C171 1.397 . S
C172 C173 1.438 . S
C172 C177 1.429 . S
C173 C156 1.394 . S
C173 C172 1.438 . S
C173 C174 1.428 . S
C174 H166 0.949 . S
C174 C173 1.428 . S
C174 C175 1.345 . S
C175 H167 0.950 . S
C175 C174 1.345 . S
C175 C176 1.424 . S
C176 H168 0.951 . S
C176 C175 1.424 . S
C176 C177 1.347 . S
C177 H169 0.951 . S
C177 C172 1.429 . S
C177 C176 1.347 . S
H178 C179 0.951 . S
C179 H178 0.951 . S
C179 C185 1.265 . S
H180 C185 0.950 . S
H181 C189 0.949 1_556 S
H182 C190 0.950 . S
H183 C191 0.951 . S
H184 C192 0.951 . S
C185 C179 1.265 . S
C185 H180 0.950 . S
C185 C186 1.478 . S
C186 C185 1.478 . S
C186 C187 1.397 . S
C186 C203 1.394 . S
C187 C186 1.397 . S
C187 C188 1.438 . S
C187 C192 1.429 . S
C188 C187 1.438 . S
C188 C189 1.428 . S
C188 C201 1.394 . S
C189 H181 0.949 1_554 S
C189 C188 1.428 . S
C189 C190 1.345 . S
C190 H182 0.950 . S
C190 C189 1.345 . S
C190 C191 1.424 . S
C191 H183 0.951 . S
C191 C190 1.424 . S
C191 C192 1.347 . S
C192 H184 0.951 . S
C192 C187 1.429 . S
C192 C191 1.347 . S
H193 C194 0.951 . S
C194 H193 0.951 . S
C194 C200 1.265 . S
H195 C200 0.950 . S
H196 C204 0.949 . S
H197 C205 0.950 . S
H198 C206 0.951 1_556 S
H199 C207 0.951 . S
C200 C194 1.265 . S
C200 H195 0.950 . S
C200 C201 1.478 1_556 S
C201 C188 1.394 . S
C201 C200 1.478 1_554 S
C201 C202 1.397 . S
C202 C201 1.397 . S
C202 C203 1.438 . S
C202 C207 1.429 1_554 S
C203 C186 1.394 . S
C203 C202 1.438 . S
C203 C204 1.428 . S
C204 H196 0.949 . S
C204 C203 1.428 . S
C204 C205 1.345 . S
C205 H197 0.950 . S
C205 C204 1.345 . S
C205 C206 1.424 . S
C206 H198 0.951 1_554 S
C206 C205 1.424 . S
C206 C207 1.347 1_554 S
C207 H199 0.951 . S
C207 C202 1.429 1_556 S
C207 C206 1.347 1_556 S
H208 C209 0.951 . S
C209 H208 0.951 . S
C209 C215 1.265 1_455 S
H210 C215 0.950 . S
H211 C219 0.949 . S
H212 C220 0.950 . S
H213 C221 0.951 . S
H214 C222 0.951 . S
C215 C209 1.265 1_655 S
C215 H210 0.950 . S
C215 C216 1.478 1_655 S
C216 C215 1.478 1_455 S
C216 C217 1.397 . S
C216 C233 1.394 . S
C217 C216 1.397 . S
C217 C218 1.438 . S
C217 C222 1.429 . S
C218 C217 1.438 . S
C218 C219 1.428 . S
C218 C231 1.394 . S
C219 H211 0.949 . S
C219 C218 1.428 . S
C219 C220 1.345 . S
C220 H212 0.950 . S
C220 C219 1.345 . S
C220 C221 1.424 . S
C221 H213 0.951 . S
C221 C220 1.424 . S
C221 C222 1.347 . S
C222 H214 0.951 . S
C222 C217 1.429 . S
C222 C221 1.347 . S
H223 C224 0.951 . S
C224 H223 0.951 . S
C224 C230 1.265 . S
H225 C230 0.950 . S
H226 C234 0.949 . S
H227 C235 0.950 . S
H228 C236 0.951 . S
H229 C237 0.951 . S
C230 C224 1.265 . S
C230 H225 0.950 . S
C230 C231 1.478 . S
C231 C218 1.394 . S
C231 C230 1.478 . S
C231 C232 1.397 . S
C232 C231 1.397 . S
C232 C233 1.438 . S
C232 C237 1.429 . S
C233 C216 1.394 . S
C233 C232 1.438 . S
C233 C234 1.428 . S
C234 H226 0.949 . S
C234 C233 1.428 . S
C234 C235 1.345 . S
C235 H227 0.950 . S
C235 C234 1.345 . S
C235 C236 1.424 . S
C236 H228 0.951 . S
C236 C235 1.424 . S
C236 C237 1.347 . S
C237 H229 0.951 . S
C237 C232 1.429 . S
C237 C236 1.347 . S
H238 C239 0.951 . S
C239 H238 0.951 . S
C239 C245 1.265 . S
H240 C245 0.950 . S
H241 C249 0.949 . S
H242 C250 0.950 . S
H243 C251 0.951 . S
H244 C252 0.951 . S
C245 C239 1.265 . S
C245 H240 0.950 . S
C245 C246 1.478 . S
C246 C245 1.478 . S
C246 C247 1.397 . S
C246 C263 1.394 . S
C247 C246 1.397 . S
C247 C248 1.438 . S
C247 C252 1.429 . S
C248 C247 1.438 . S
C248 C249 1.428 . S
C248 C261 1.394 . S
C249 H241 0.949 . S
C249 C248 1.428 . S
C249 C250 1.345 . S
C250 H242 0.950 . S
C250 C249 1.345 . S
C250 C251 1.424 . S
C251 H243 0.951 . S
C251 C250 1.424 . S
C251 C252 1.347 . S
C252 H244 0.951 . S
C252 C247 1.429 . S
C252 C251 1.347 . S
H253 C254 0.951 . S
C254 H253 0.951 . S
C254 C260 1.265 . S
H255 C260 0.950 . S
H256 C264 0.949 . S
H257 C265 0.950 . S
H258 C266 0.951 . S
H259 C267 0.951 . S
C260 C254 1.265 . S
C260 H255 0.950 . S
C260 C261 1.478 . S
C261 C248 1.394 . S
C261 C260 1.478 . S
C261 C262 1.397 . S
C262 C261 1.397 . S
C262 C263 1.438 . S
C262 C267 1.429 . S
C263 C246 1.394 . S
C263 C262 1.438 . S
C263 C264 1.428 . S
C264 H256 0.949 . S
C264 C263 1.428 . S
C264 C265 1.345 . S
C265 H257 0.950 . S
C265 C264 1.345 . S
C265 C266 1.424 . S
C266 H258 0.951 . S
C266 C265 1.424 . S
C266 C267 1.347 . S
C267 H259 0.951 . S
C267 C262 1.429 . S
C267 C266 1.347 . S
H268 C269 0.951 . S
C269 H268 0.951 . S
C269 C275 1.265 1_455 S
H270 C275 0.950 . S
H271 C279 0.949 . S
H272 C280 0.950 . S
H273 C281 0.951 . S
H274 C282 0.951 . S
C275 C269 1.265 1_655 S
C275 H270 0.950 . S
C275 C276 1.478 . S
C276 C275 1.478 . S
C276 C277 1.397 . S
C276 C293 1.394 . S
C277 C276 1.397 . S
C277 C278 1.438 . S
C277 C282 1.429 . S
C278 C277 1.438 . S
C278 C279 1.428 . S
C278 C291 1.394 . S
C279 H271 0.949 . S
C279 C278 1.428 . S
C279 C280 1.345 . S
C280 H272 0.950 . S
C280 C279 1.345 . S
C280 C281 1.424 . S
C281 H273 0.951 . S
C281 C280 1.424 . S
C281 C282 1.347 . S
C282 H274 0.951 . S
C282 C277 1.429 . S
C282 C281 1.347 . S
H283 C284 0.951 . S
C284 H283 0.951 . S
C284 C290 1.265 . S
H285 C290 0.950 . S
H286 C294 0.949 . S
H287 C295 0.950 . S
H288 C296 0.951 . S
H289 C297 0.951 . S
C290 C284 1.265 . S
C290 H285 0.950 . S
C290 C291 1.478 . S
C291 C278 1.394 . S
C291 C290 1.478 . S
C291 C292 1.397 . S
C292 C291 1.397 . S
C292 C293 1.438 . S
C292 C297 1.429 . S
C293 C276 1.394 . S
C293 C292 1.438 . S
C293 C294 1.428 . S
C294 H286 0.949 . S
C294 C293 1.428 . S
C294 C295 1.345 . S
C295 H287 0.950 . S
C295 C294 1.345 . S
C295 C296 1.424 . S
C296 H288 0.951 . S
C296 C295 1.424 . S
C296 C297 1.347 . S
C297 H289 0.951 . S
C297 C292 1.429 . S
C297 C296 1.347 . S
H298 C299 0.951 . S
C299 H298 0.951 . S
C299 C305 1.265 . S
H300 C305 0.950 . S
H301 C309 0.949 . S
H302 C310 0.950 . S
H303 C311 0.951 . S
H304 C312 0.951 . S
C305 C299 1.265 . S
C305 H300 0.950 . S
C305 C306 1.478 . S
C306 C305 1.478 . S
C306 C307 1.397 . S
C306 C323 1.394 . S
C307 C306 1.397 . S
C307 C308 1.438 . S
C307 C312 1.429 . S
C308 C307 1.438 . S
C308 C309 1.428 . S
C308 C321 1.394 . S
C309 H301 0.949 . S
C309 C308 1.428 . S
C309 C310 1.345 . S
C310 H302 0.950 . S
C310 C309 1.345 . S
C310 C311 1.424 . S
C311 H303 0.951 . S
C311 C310 1.424 . S
C311 C312 1.347 . S
C312 H304 0.951 . S
C312 C307 1.429 . S
C312 C311 1.347 . S
H313 C314 0.951 . S
C314 H313 0.951 . S
C314 C320 1.265 . S
H315 C320 0.950 . S
H316 C324 0.949 . S
H317 C325 0.950 . S
H318 C326 0.951 . S
H319 C327 0.951 . S
C320 C314 1.265 . S
C320 H315 0.950 . S
C320 C321 1.478 . S
C321 C308 1.394 . S
C321 C320 1.478 . S
C321 C322 1.397 . S
C322 C321 1.397 . S
C322 C323 1.438 . S
C322 C327 1.429 . S
C323 C306 1.394 . S
C323 C322 1.438 . S
C323 C324 1.428 . S
C324 H316 0.949 . S
C324 C323 1.428 . S
C324 C325 1.345 . S
C325 H317 0.950 . S
C325 C324 1.345 . S
C325 C326 1.424 . S
C326 H318 0.951 . S
C326 C325 1.424 . S
C326 C327 1.347 . S
C327 H319 0.951 . S
C327 C322 1.429 . S
C327 C326 1.347 . S
H328 C329 0.951 . S
C329 H328 0.951 . S
C329 C335 1.265 . S
H330 C335 0.950 . S
H331 C339 0.949 . S
H332 C340 0.950 . S
H333 C341 0.951 . S
H334 C342 0.951 . S
C335 C329 1.265 . S
C335 H330 0.950 . S
C335 C336 1.478 . S
C336 C335 1.478 . S
C336 C337 1.397 . S
C336 C353 1.394 . S
C337 C336 1.397 . S
C337 C338 1.438 . S
C337 C342 1.429 . S
C338 C337 1.438 . S
C338 C339 1.428 . S
C338 C351 1.394 . S
C339 H331 0.949 . S
C339 C338 1.428 . S
C339 C340 1.345 . S
C340 H332 0.950 . S
C340 C339 1.345 . S
C340 C341 1.424 . S
C341 H333 0.951 . S
C341 C340 1.424 . S
C341 C342 1.347 . S
C342 H334 0.951 . S
C342 C337 1.429 . S
C342 C341 1.347 . S
H343 C344 0.951 . S
C344 H343 0.951 . S
C344 C350 1.265 . S
H345 C350 0.950 . S
H346 C354 0.949 . S
H347 C355 0.950 . S
H348 C356 0.951 . S
H349 C357 0.951 . S
C350 C344 1.265 . S
C350 H345 0.950 . S
C350 C351 1.478 . S
C351 C338 1.394 . S
C351 C350 1.478 . S
C351 C352 1.397 . S
C352 C351 1.397 . S
C352 C353 1.438 . S
C352 C357 1.429 . S
C353 C336 1.394 . S
C353 C352 1.438 . S
C353 C354 1.428 . S
C354 H346 0.949 . S
C354 C353 1.428 . S
C354 C355 1.345 . S
C355 H347 0.950 . S
C355 C354 1.345 . S
C355 C356 1.424 . S
C356 H348 0.951 . S
C356 C355 1.424 . S
C356 C357 1.347 . S
C357 H349 0.951 . S
C357 C352 1.429 . S
C357 C356 1.347 . S
H358 C359 0.951 . S
C359 H358 0.951 . S
C359 C365 1.265 . S
H360 C365 0.950 . S
H361 C369 0.949 1_556 S
H362 C370 0.950 . S
H363 C371 0.951 . S
H364 C372 0.951 . S
C365 C359 1.265 . S
C365 H360 0.950 . S
C365 C366 1.478 . S
C366 C365 1.478 . S
C366 C367 1.397 . S
C366 C383 1.394 1_554 S
C367 C366 1.397 . S
C367 C368 1.438 1_554 S
C367 C372 1.429 . S
C368 C367 1.438 1_556 S
C368 C369 1.428 1_556 S
C368 C381 1.394 . S
C369 H361 0.949 1_554 S
C369 C368 1.428 1_554 S
C369 C370 1.345 . S
C370 H362 0.950 . S
C370 C369 1.345 . S
C370 C371 1.424 . S
C371 H363 0.951 . S
C371 C370 1.424 . S
C371 C372 1.347 . S
C372 H364 0.951 . S
C372 C367 1.429 . S
C372 C371 1.347 . S
H373 C374 0.951 . S
C374 H373 0.951 . S
C374 C380 1.265 . S
H375 C380 0.950 . S
H376 C384 0.949 . S
H377 C385 0.950 . S
H378 C386 0.951 . S
H379 C387 0.951 . S
C380 C374 1.265 . S
C380 H375 0.950 . S
C380 C381 1.478 . S
C381 C368 1.394 . S
C381 C380 1.478 . S
C381 C382 1.397 . S
C382 C381 1.397 . S
C382 C383 1.438 . S
C382 C387 1.429 . S
C383 C366 1.394 1_556 S
C383 C382 1.438 . S
C383 C384 1.428 . S
C384 H376 0.949 . S
C384 C383 1.428 . S
C384 C385 1.345 . S
C385 H377 0.950 . S
C385 C384 1.345 . S
C385 C386 1.424 . S
C386 H378 0.951 . S
C386 C385 1.424 . S
C386 C387 1.347 . S
C387 H379 0.951 . S
C387 C382 1.429 . S
C387 C386 1.347 . S
H388 C389 0.951 . S
C389 H388 0.951 . S
C389 C395 1.265 . S
H390 C395 0.950 . S
H391 C399 0.949 . S
H392 C400 0.950 . S
H393 C401 0.951 . S
H394 C402 0.951 . S
C395 C389 1.265 . S
C395 H390 0.950 . S
C395 C396 1.478 . S
C396 C395 1.478 . S
C396 C397 1.397 . S
C396 C413 1.394 . S
C397 C396 1.397 . S
C397 C398 1.438 . S
C397 C402 1.429 . S
C398 C397 1.438 . S
C398 C399 1.428 . S
C398 C411 1.394 . S
C399 H391 0.949 . S
C399 C398 1.428 . S
C399 C400 1.345 . S
C400 H392 0.950 . S
C400 C399 1.345 . S
C400 C401 1.424 . S
C401 H393 0.951 . S
C401 C400 1.424 . S
C401 C402 1.347 . S
C402 H394 0.951 . S
C402 C397 1.429 . S
C402 C401 1.347 . S
H403 C404 0.951 . S
C404 H403 0.951 . S
C404 C410 1.265 . S
H405 C410 0.950 . S
H406 C414 0.949 . S
H407 C415 0.950 . S
H408 C416 0.951 . S
H409 C417 0.951 . S
C410 C404 1.265 . S
C410 H405 0.950 . S
C410 C411 1.478 . S
C411 C398 1.394 . S
C411 C410 1.478 . S
C411 C412 1.397 . S
C412 C411 1.397 . S
C412 C413 1.438 . S
C412 C417 1.429 . S
C413 C396 1.394 . S
C413 C412 1.438 . S
C413 C414 1.428 . S
C414 H406 0.949 . S
C414 C413 1.428 . S
C414 C415 1.345 . S
C415 H407 0.950 . S
C415 C414 1.345 . S
C415 C416 1.424 . S
C416 H408 0.951 . S
C416 C415 1.424 . S
C416 C417 1.347 . S
C417 H409 0.951 . S
C417 C412 1.429 . S
C417 C416 1.347 . S
H418 C419 0.951 . S
C419 H418 0.951 . S
C419 C425 1.265 . S
H420 C425 0.950 . S
H421 C429 0.949 . S
H422 C430 0.950 . S
H423 C431 0.951 . S
H424 C432 0.951 . S
C425 C419 1.265 . S
C425 H420 0.950 . S
C425 C426 1.478 . S
C426 C425 1.478 . S
C426 C427 1.397 . S
C426 C443 1.394 . S
C427 C426 1.397 . S
C427 C428 1.438 . S
C427 C432 1.429 . S
C428 C427 1.438 . S
C428 C429 1.428 . S
C428 C441 1.394 . S
C429 H421 0.949 . S
C429 C428 1.428 . S
C429 C430 1.345 . S
C430 H422 0.950 . S
C430 C429 1.345 . S
C430 C431 1.424 . S
C431 H423 0.951 . S
C431 C430 1.424 . S
C431 C432 1.347 . S
C432 H424 0.951 . S
C432 C427 1.429 . S
C432 C431 1.347 . S
H433 C434 0.951 . S
C434 H433 0.951 . S
C434 C440 1.265 . S
H435 C440 0.950 . S
H436 C444 0.949 . S
H437 C445 0.950 . S
H438 C446 0.951 . S
H439 C447 0.951 . S
C440 C434 1.265 . S
C440 H435 0.950 . S
C440 C441 1.478 . S
C441 C428 1.394 . S
C441 C440 1.478 . S
C441 C442 1.397 . S
C442 C441 1.397 . S
C442 C443 1.438 . S
C442 C447 1.429 . S
C443 C426 1.394 . S
C443 C442 1.438 . S
C443 C444 1.428 . S
C444 H436 0.949 . S
C444 C443 1.428 . S
C444 C445 1.345 . S
C445 H437 0.950 . S
C445 C444 1.345 . S
C445 C446 1.424 . S
C446 H438 0.951 . S
C446 C445 1.424 . S
C446 C447 1.347 . S
C447 H439 0.951 . S
C447 C442 1.429 . S
C447 C446 1.347 . S
C89 C19 1.520 . S
C104 C8 1.580 . S
C119 C18 1.533 . S
C134 C27 1.359 . S
C149 C29 1.408 . S
C164 C41 1.499 . S
C179 C7 1.541 . S
C194 C38 1.198 . S
C209 C63 1.567 1_455 S
C224 C5 1.487 . S
C239 C40 1.530 . S
C254 C49 1.174 . S
C269 C16 1.198 . S
C284 C73 1.525 . S
C299 C82 1.340 . S
C314 C30 1.536 . S
C329 C85 1.574 . S
C344 C52 1.580 . S
C359 C60 1.352 . S
C374 C51 1.529 . S
C389 C62 1.460 . S
C404 C74 1.479 . S
C419 C71 1.201 . S
C434 C84 1.536 . S
