# Generated by pormake.
# Topology uni, (4)-cn, num edge types: 1
# Building blocks:
#     Node 0, Type 0, BuildingBlock: QUQFOY_clean_sbu_3, # of connection points: 4
#     Node 1, Type 0, BuildingBlock: QUQFOY_clean_sbu_3, # of connection points: 4
#     Node 2, Type 0, BuildingBlock: QUQFOY_clean_sbu_3, # of connection points: 4
#     Node 3, Type 0, BuildingBlock: QUQFOY_clean_sbu_3, # of connection points: 4
#     Node 4, Type 0, BuildingBlock: QUQFOY_clean_sbu_3, # of connection points: 4
#     Node 5, Type 0, BuildingBlock: QUQFOY_clean_sbu_3, # of connection points: 4
#     Edge 6, Type (0, 0), BuildingBlock: FUNLAD_clean_linker_0, # of connection points: 2
#     Edge 7, Type (0, 0), BuildingBlock: FUNLAD_clean_linker_0, # of connection points: 2
#     Edge 8, Type (0, 0), BuildingBlock: FUNLAD_clean_linker_0, # of connection points: 2
#     Edge 9, Type (0, 0), BuildingBlock: FUNLAD_clean_linker_0, # of connection points: 2
#     Edge 10, Type (0, 0), BuildingBlock: FUNLAD_clean_linker_0, # of connection points: 2
#     Edge 11, Type (0, 0), BuildingBlock: FUNLAD_clean_linker_0, # of connection points: 2
#     Edge 12, Type (0, 0), BuildingBlock: FUNLAD_clean_linker_0, # of connection points: 2
#     Edge 13, Type (0, 0), BuildingBlock: FUNLAD_clean_linker_0, # of connection points: 2
#     Edge 14, Type (0, 0), BuildingBlock: FUNLAD_clean_linker_0, # of connection points: 2
#     Edge 15, Type (0, 0), BuildingBlock: FUNLAD_clean_linker_0, # of connection points: 2
#     Edge 16, Type (0, 0), BuildingBlock: FUNLAD_clean_linker_0, # of connection points: 2
#     Edge 17, Type (0, 0), BuildingBlock: FUNLAD_clean_linker_0, # of connection points: 2
# Relax obj value: 0.064
# Max RMSD: 0.095
# Mean RMSD: 0.087
data_MOF--net-uni--node1-QUQFOY_clean_sbu_3--edge1-FUNLAD_clean_linker_0
_symmetry_space_group_name_H-M    P1
_symmetry_Int_Tables_number       1
_symmetry_cell_setting            triclinic
loop_
_symmetry_equiv_pos_as_xyz
'x, y, z'
_cell_length_a     45.595743
_cell_length_b     46.892567
_cell_length_c     27.184651
_cell_angle_alpha  89.820062
_cell_angle_beta   90.086739
_cell_angle_gamma 119.84887
loop_
_atom_site_label
_atom_site_type_symbol
_atom_site_fract_x
_atom_site_fract_y
_atom_site_fract_z
_atom_type_partial_charge
C0 C 0.71406 0.10082 0.11099 0.0
O1 O 0.69833 0.11389 0.13057 0.0
Cd2 Cd 0.64353 0.0854 0.16806 0.0
O3 O 0.70112 0.06967 0.11034 0.0
Cd4 Cd 0.64783 0.02075 0.13829 0.0
C5 C 0.59792 0.04003 0.06843 0.0
O6 O 0.64129 0.04211 0.21683 0.0
O7 O 0.59885 0.9963 0.19272 0.0
O8 O 0.67678 0.99197 0.16755 0.0
C9 C 0.61192 0.01826 0.22557 0.0
O10 O 0.60426 0.06258 0.09964 0.0
C11 C 0.66221 0.96796 0.13804 0.0
O12 O 0.6119 0.02235 0.07186 0.0
O13 O 0.6414 0.96882 0.10776 0.0
C14 C 0.71186 0.61684 0.13204 0.0
O15 O 0.69825 0.593 0.10203 0.0
Cd16 Cd 0.64762 0.57711 0.05572 0.0
O17 O 0.69994 0.63613 0.13748 0.0
Cd18 Cd 0.65293 0.6424 0.10275 0.0
C19 C 0.59606 0.56885 0.1532 0.0
O20 O 0.65204 0.62495 0.01769 0.0
O21 O 0.60914 0.62906 0.0415 0.0
O22 O 0.68765 0.70177 0.09154 0.0
C23 C 0.62429 0.62361 0.00691 0.0
O24 O 0.60359 0.5554 0.11854 0.0
C25 C 0.66985 0.70899 0.11914 0.0
O26 O 0.61122 0.60005 0.15751 0.0
O27 O 0.64495 0.68525 0.14083 0.0
C28 C 0.91769 0.6194 0.42739 0.0
O29 O 0.90649 0.59177 0.44872 0.0
Cd30 Cd 0.94098 0.57211 0.4863 0.0
O31 O 0.94935 0.63961 0.42591 0.0
Cd32 Cd 0.00116 0.64034 0.45513 0.0
C33 C 0.98599 0.57486 0.38488 0.0
O34 O 0.98381 0.61393 0.53667 0.0
O35 O 0.03009 0.61959 0.50599 0.0
O36 O 0.02758 0.69799 0.47978 0.0
C37 C 0.01027 0.61174 0.54245 0.0
O38 O 0.96537 0.55709 0.41828 0.0
C39 C 0.05403 0.70728 0.45398 0.0
O40 O 0.00056 0.60611 0.38698 0.0
O41 O 0.05493 0.68575 0.42679 0.0
C42 C 0.31062 0.93813 0.62196 0.0
O43 O 0.32607 0.92628 0.64591 0.0
Cd44 Cd 0.38194 0.95712 0.67979 0.0
O45 O 0.32428 0.96902 0.61485 0.0
Cd46 Cd 0.3782 0.01957 0.63488 0.0
C47 C 0.42441 0.99236 0.5725 0.0
O48 O 0.38656 0.00491 0.71797 0.0
O49 O 0.42809 0.04879 0.68662 0.0
O50 O 0.34902 0.05012 0.65258 0.0
C51 C 0.41604 0.02944 0.72306 0.0
O52 O 0.41858 0.97248 0.60806 0.0
C53 C 0.36388 0.07169 0.61933 0.0
O54 O 0.41155 0.01108 0.57174 0.0
O55 O 0.3851 0.06872 0.59272 0.0
C56 C 0.33013 0.42954 0.63984 0.0
O57 O 0.34568 0.45516 0.6133 0.0
Cd58 Cd 0.39506 0.47041 0.56445 0.0
O59 O 0.33986 0.40834 0.64149 0.0
Cd60 Cd 0.38587 0.40151 0.60423 0.0
C61 C 0.44765 0.4725 0.65599 0.0
O62 O 0.38591 0.42229 0.52187 0.0
O63 O 0.42731 0.4141 0.53848 0.0
O64 O 0.35106 0.34195 0.59221 0.0
C65 C 0.41247 0.42268 0.50726 0.0
O66 O 0.44099 0.48835 0.62397 0.0
C67 C 0.36827 0.33472 0.62125 0.0
O68 O 0.43034 0.44124 0.65825 0.0
O69 O 0.39304 0.35846 0.6429 0.0
C70 C 0.11417 0.41515 0.92546 0.0
O71 O 0.12564 0.44198 0.94892 0.0
Cd72 Cd 0.09204 0.46152 0.98821 0.0
O73 O 0.08241 0.3954 0.92302 0.0
Cd74 Cd 0.03079 0.39424 0.95539 0.0
C75 C 0.04519 0.46127 0.88954 0.0
O76 O 0.04941 0.41854 0.03748 0.0
O77 O 0.00443 0.41666 0.00855 0.0
O78 O 0.00251 0.3361 0.97894 0.0
C79 C 0.02426 0.42263 0.04461 0.0
O80 O 0.06735 0.47809 0.92185 0.0
C81 C 0.97666 0.32781 0.95216 0.0
O82 O 0.02967 0.42997 0.89092 0.0
O83 O 0.97685 0.35013 0.92537 0.0
C84 C 0.55981 0.99116 0.27741 0.0
C85 C 0.59205 0.01822 0.26848 0.0
C86 C 0.54024 0.99154 0.31656 0.0
C87 C 0.55258 0.01901 0.34779 0.0
C88 C 0.58473 0.0461 0.33872 0.0
C89 C 0.60442 0.04565 0.29966 0.0
C90 C 0.53198 0.02052 0.38887 0.0
C91 C 0.50876 0.99351 0.41283 0.0
C92 C 0.48788 0.9945 0.45385 0.0
C93 C 0.47578 0.96935 0.48919 0.0
C94 C 0.45543 0.96886 0.52782 0.0
C95 C 0.44624 0.9933 0.53154 0.0
H96 H 0.48678 0.03823 0.42995 0.0
C97 C 0.45799 0.01831 0.49579 0.0
C98 C 0.47868 0.01896 0.45734 0.0
H99 H 0.45124 0.03741 0.49749 0.0
H100 H 0.54946 0.96977 0.25377 0.0
H101 H 0.51516 0.9706 0.32141 0.0
H102 H 0.59469 0.06766 0.36197 0.0
H103 H 0.62908 0.06699 0.29348 0.0
H104 H 0.53729 0.04467 0.40106 0.0
H105 H 0.50596 0.96973 0.40384 0.0
H106 H 0.48223 0.95004 0.48708 0.0
H107 H 0.44666 0.9491 0.55451 0.0
C108 C 0.56003 0.56151 0.22721 0.0
C109 C 0.57043 0.54772 0.19004 0.0
C110 C 0.53732 0.54156 0.26354 0.0
C111 C 0.52453 0.50735 0.26339 0.0
C112 C 0.53465 0.49359 0.22597 0.0
C113 C 0.55713 0.51346 0.1895 0.0
C114 C 0.50281 0.48568 0.30359 0.0
C115 C 0.48266 0.49252 0.33132 0.0
C116 C 0.46339 0.47211 0.37418 0.0
C117 C 0.43399 0.47215 0.38925 0.0
C118 C 0.41664 0.45506 0.43153 0.0
C119 C 0.42873 0.43802 0.46002 0.0
H120 H 0.49818 0.45461 0.39265 0.0
C121 C 0.45789 0.4376 0.44461 0.0
C122 C 0.47508 0.45447 0.4022 0.0
H123 H 0.46793 0.42484 0.46595 0.0
H124 H 0.56989 0.58781 0.22882 0.0
H125 H 0.53084 0.55321 0.29254 0.0
H126 H 0.52541 0.46737 0.22521 0.0
H127 H 0.56464 0.50197 0.16153 0.0
H128 H 0.50311 0.46294 0.30988 0.0
H129 H 0.47966 0.51347 0.32205 0.0
H130 H 0.42462 0.48576 0.36857 0.0
H131 H 0.39433 0.456 0.44263 0.0
C132 C 0.05569 0.51278 0.84627 0.0
C133 C 0.03709 0.47833 0.85045 0.0
C134 C 0.04805 0.52895 0.80954 0.0
C135 C 0.02166 0.511 0.77603 0.0
C136 C 0.00264 0.47668 0.78083 0.0
C137 C 0.01038 0.46046 0.81741 0.0
C138 C 0.01325 0.5273 0.73596 0.0
C139 C 0.0366 0.55545 0.7146 0.0
C140 C 0.02914 0.57041 0.67171 0.0
C141 C 0.05497 0.58821 0.63757 0.0
C142 C 0.04879 0.60178 0.59583 0.0
C143 C 0.01675 0.59837 0.58781 0.0
H144 H 0.97699 0.55472 0.69068 0.0
C145 C 0.99112 0.58151 0.62277 0.0
C146 C -0.0028 0.56752 0.66433 0.0
H147 H 0.96624 0.57868 0.61765 0.0
H148 H 0.0762 0.52735 0.8714 0.0
H149 H 0.06261 0.55552 0.80796 0.0
H150 H 0.982 0.4623 0.75574 0.0
H151 H -0.00465 0.43393 0.81983 0.0
H152 H 0.98774 0.51436 0.72116 0.0
H153 H 0.06285 0.56658 0.72607 0.0
H154 H 0.07987 0.59105 0.64266 0.0
H155 H 0.06915 0.6149 0.56974 0.0
C156 C 0.56004 0.05534 0.02286 0.0
C157 C 0.57391 0.03458 0.02792 0.0
C158 C 0.53745 0.0506 0.98491 0.0
C159 C 0.52826 0.02504 0.95083 0.0
C160 C 0.54151 0.00384 0.95638 0.0
C161 C 0.56429 0.00866 -0.00565 0.0
C162 C 0.50449 0.01966 0.90985 0.0
C163 C 0.50204 0.04447 0.88887 0.0
C164 C 0.47916 0.03988 0.84708 0.0
C165 C 0.48825 0.06604 0.81412 0.0
C166 C 0.46757 0.06271 0.7741 0.0
C167 C 0.43701 0.03329 0.76672 0.0
H168 H 0.44002 0.99024 0.86577 0.0
C169 C 0.42736 0.00736 0.80047 0.0
C170 C 0.44828 0.01057 0.84024 0.0
H171 H 0.40387 0.98443 0.79579 0.0
H172 H 0.56655 0.07535 0.04831 0.0
H173 H 0.52689 0.06676 0.9829 0.0
H174 H 0.53455 0.98374 0.9309 0.0
H175 H 0.57429 0.99207 -0.0026 0.0
H176 H 0.49015 0.99501 0.89486 0.0
H177 H 0.51896 0.06957 0.90062 0.0
H178 H 0.51171 0.089 0.81889 0.0
H179 H 0.47559 0.08318 0.74886 0.0
C180 C 0.61922 0.59649 0.92558 0.0
C181 C 0.60808 0.6122 0.95841 0.0
C182 C 0.60194 0.5834 0.88144 0.0
C183 C 0.57336 0.58604 0.86931 0.0
C184 C 0.56326 0.60303 0.90114 0.0
C185 C 0.58022 0.61571 0.94545 0.0
C186 C 0.55313 0.57104 0.82431 0.0
C187 C 0.54906 0.54296 0.80469 0.0
C188 C 0.52485 0.52561 0.76414 0.0
C189 C 0.50876 0.49119 0.7619 0.0
C190 C 0.48401 0.4739 0.72638 0.0
C191 C 0.47518 0.49076 0.69192 0.0
H192 H 0.52968 0.56917 0.72812 0.0
C193 C 0.49238 0.52533 0.69287 0.0
C194 C 0.51697 0.54258 0.72854 0.0
H195 H 0.48652 0.53915 0.66651 0.0
H196 H 0.64076 0.5936 0.93451 0.0
H197 H 0.61096 0.57124 0.85703 0.0
H198 H 0.54153 0.60568 0.8924 0.0
H199 H 0.57125 0.62797 0.96982 0.0
H200 H 0.53836 0.58164 0.81017 0.0
H201 H 0.56111 0.53051 0.82199 0.0
H202 H 0.51463 0.47755 0.78861 0.0
H203 H 0.47151 0.44729 0.72642 0.0
C204 C -0.00208 0.44989 0.09123 0.0
C205 C 0.02072 0.43796 0.08991 0.0
C206 C -0.00472 0.46557 0.13311 0.0
C207 C 0.01526 0.46948 0.17473 0.0
C208 C 0.0373 0.4567 0.17403 0.0
C209 C 0.04032 0.44138 0.13177 0.0
C210 C 0.01271 0.48599 0.21958 0.0
C211 C 0.00706 0.51154 0.21741 0.0
C212 C 0.00314 0.5277 0.26168 0.0
C213 C 0.01237 0.56102 0.25917 0.0
C214 C 0.00749 0.57659 0.29952 0.0
C215 C 0.99258 0.55888 0.34286 0.0
H216 H 0.98035 0.48409 0.30797 0.0
C217 C 0.98324 0.52546 0.34531 0.0
C218 C 0.98857 0.51003 0.30522 0.0
H219 H 0.97163 0.51111 0.37816 0.0
H220 H 0.98231 0.44745 0.05967 0.0
H221 H 0.97728 0.47427 0.13301 0.0
H222 H 0.05264 0.45908 0.20592 0.0
H223 H 0.05793 0.43222 0.13189 0.0
H224 H 0.017 0.47778 0.25491 0.0
H225 H 0.00634 0.5218 0.18182 0.0
H226 H 0.02335 0.57506 0.22584 0.0
H227 H 0.01477 0.60231 0.29636 0.0
C228 C 0.6584 0.75115 0.15687 0.0
C229 C 0.67602 0.74302 0.12249 0.0
C230 C 0.66142 0.78233 0.15637 0.0
C231 C 0.68201 0.80593 0.12122 0.0
C232 C 0.70015 0.798 0.08761 0.0
C233 C 0.69749 0.767 0.08853 0.0
C234 C 0.6827 0.83777 0.11596 0.0
C235 C 0.67807 0.85343 0.15395 0.0
C236 C 0.67593 0.88378 0.1476 0.0
C237 C 0.68701 0.90695 0.1857 0.0
C238 C 0.6835 0.93485 0.1819 0.0
C239 C 0.66808 0.9397 0.14036 0.0
H240 H 0.65143 0.87109 0.07611 0.0
C241 C 0.65701 0.91653 0.10217 0.0
C242 C 0.66103 0.88891 0.10562 0.0
H243 H 0.64491 0.91953 0.06982 0.0
H244 H 0.64154 0.73313 0.18333 0.0
H245 H 0.64644 0.7873 0.18212 0.0
H246 H 0.716 0.81566 0.05998 0.0
H247 H 0.71126 0.76143 0.06137 0.0
H248 H 0.68766 0.84886 0.07955 0.0
H249 H 0.67651 0.84421 0.19114 0.0
H250 H 0.69827 0.90339 0.21859 0.0
H251 H 0.69207 0.95216 0.2121 0.0
C252 C 0.86015 0.60216 0.39361 0.0
C253 C 0.89408 0.62672 0.39996 0.0
C254 C 0.83889 0.60739 0.36249 0.0
C255 C 0.85106 0.63734 0.33708 0.0
C256 C 0.88424 0.66265 0.3458 0.0
C257 C 0.90569 0.65733 0.37662 0.0
C258 C 0.82976 0.64225 0.30048 0.0
C259 C 0.80843 0.61768 0.27075 0.0
C260 C 0.78663 0.62071 0.23284 0.0
C261 C 0.77404 0.59749 0.19479 0.0
C262 C 0.75099 0.59725 0.16076 0.0
C263 C 0.73965 0.6201 0.16422 0.0
H264 H 0.78493 0.66232 0.26474 0.0
C265 C 0.75305 0.64408 0.20139 0.0
C266 C 0.7763 0.64439 0.23544 0.0
H267 H 0.74474 0.66195 0.20527 0.0
H268 H 0.85022 0.57842 0.41137 0.0
H269 H 0.81304 0.58776 0.35786 0.0
H270 H 0.89403 0.68611 0.32717 0.0
H271 H 0.9316 0.67689 0.38106 0.0
H272 H 0.83359 0.66686 0.29568 0.0
H273 H 0.80762 0.59415 0.27305 0.0
H274 H 0.78153 0.57895 0.19191 0.0
H275 H 0.74127 0.57842 0.13266 0.0
C276 C 0.08389 0.76244 0.4946 0.0
C277 C 0.08403 0.74029 0.46001 0.0
C278 C 0.11393 0.79094 0.50708 0.0
C279 C 0.1447 0.79786 0.48496 0.0
C280 C 0.14436 0.7767 0.44827 0.0
C281 C 0.11435 0.7483 0.43573 0.0
C282 C 0.1779 0.82415 0.50336 0.0
C283 C 0.18227 0.85003 0.5303 0.0
C284 C 0.21513 0.87257 0.55395 0.0
C285 C 0.22568 0.9061 0.55864 0.0
C286 C 0.25667 0.92754 0.58092 0.0
C287 C 0.27724 0.9156 0.59996 0.0
H288 H 0.22752 0.83466 0.57211 0.0
C289 C 0.26608 0.88183 0.59652 0.0
C290 C 0.23545 0.86058 0.57369 0.0
H291 H 0.28121 0.87177 0.61091 0.0
H292 H 0.06092 0.75692 0.51401 0.0
H293 H 0.1131 0.80624 0.5361 0.0
H294 H 0.16767 0.78141 0.43066 0.0
H295 H 0.11532 0.7318 0.40882 0.0
H296 H 0.19978 0.82151 0.49531 0.0
H297 H 0.1617 0.85515 0.53494 0.0
H298 H 0.2102 0.9158 0.54434 0.0
H299 H 0.26447 0.95341 0.58326 0.0
C300 C 0.34055 0.27599 0.59401 0.0
C301 C 0.36097 0.30051 0.62788 0.0
C302 C 0.33611 0.24432 0.59803 0.0
C303 C 0.35176 0.23657 0.63633 0.0
C304 C 0.37086 0.26067 0.67138 0.0
C305 C 0.37575 0.29243 0.66693 0.0
C306 C 0.34911 0.20382 0.64047 0.0
C307 C 0.34801 0.18612 0.60089 0.0
C308 C 0.34997 0.15554 0.60499 0.0
C309 C 0.36671 0.14823 0.56812 0.0
C310 C 0.37089 0.12075 0.57239 0.0
C311 C 0.35778 0.09965 0.61323 0.0
H312 H 0.32207 0.13833 0.67352 0.0
C313 C 0.33976 0.10619 0.64911 0.0
C314 C 0.33596 0.13391 0.64514 0.0
H315 H 0.32915 0.09026 0.68084 0.0
H316 H 0.32872 0.28147 0.56366 0.0
H317 H 0.3205 0.22602 0.57114 0.0
H318 H 0.3829 0.2552 0.70148 0.0
H319 H 0.39141 0.31075 0.69381 0.0
H320 H 0.35165 0.19574 0.67694 0.0
H321 H 0.34912 0.19594 0.56424 0.0
H322 H 0.37745 0.16436 0.53661 0.0
H323 H 0.38467 0.11622 0.54395 0.0
C324 C 0.17265 0.43147 0.89727 0.0
C325 C 0.1379 0.40834 0.89751 0.0
C326 C 0.19472 0.4273 0.86659 0.0
C327 C 0.18255 0.39992 0.8353 0.0
C328 C 0.14826 0.37575 0.83767 0.0
C329 C 0.12604 0.38 0.86825 0.0
C330 C 0.20512 0.39675 0.79911 0.0
C331 C 0.22963 0.42328 0.77571 0.0
C332 C 0.25287 0.42225 0.73849 0.0
C333 C 0.26915 0.44887 0.70589 0.0
C334 C 0.29326 0.45054 0.67274 0.0
C335 C 0.30203 0.42574 0.6717 0.0
H336 H 0.24932 0.37627 0.76191 0.0
C337 C 0.2852 0.39863 0.70358 0.0
C338 C 0.26084 0.39687 0.73671 0.0
H339 H 0.29145 0.37917 0.70389 0.0
H340 H 0.1828 0.45336 0.9198 0.0
H341 H 0.22126 0.4458 0.86698 0.0
H342 H 0.13839 0.3542 0.81441 0.0
H343 H 0.09947 0.36156 0.86786 0.0
H344 H 0.19986 0.37224 0.78922 0.0
H345 H 0.2321 0.4472 0.78273 0.0
H346 H 0.26357 0.46879 0.70653 0.0
H347 H 0.30566 0.47181 0.6488 0.0
C348 C 0.9445 0.27223 0.99155 0.0
C349 C 0.94618 0.29493 0.9562 0.0
C350 C 0.91382 0.2437 0.00155 0.0
C351 C 0.88423 0.23726 0.97608 0.0
C352 C 0.8865 0.25898 0.93868 0.0
C353 C 0.91713 0.28745 0.92872 0.0
C354 C 0.85008 0.21095 0.99153 0.0
C355 C 0.84416 0.18531 0.02059 0.0
C356 C 0.81034 0.16344 0.04231 0.0
C357 C 0.79987 0.13028 0.05172 0.0
C358 C 0.76847 0.10971 0.0737 0.0
C359 C 0.74732 0.12218 0.08765 0.0
H360 H 0.79697 0.20159 0.05134 0.0
C361 C 0.75815 0.15552 0.07889 0.0
C362 C 0.78923 0.17589 0.05648 0.0
H363 H 0.74258 0.16599 0.08929 0.0
H364 H 0.96647 0.27732 0.01339 0.0
H365 H 0.9132 0.22798 0.03119 0.0
H366 H 0.86416 0.25468 0.91849 0.0
H367 H 0.9176 0.30437 0.90108 0.0
H368 H 0.82877 0.21361 0.97973 0.0
H369 H 0.86433 0.18016 0.02911 0.0
H370 H 0.81592 0.12024 0.04179 0.0
H371 H 0.76093 0.08416 0.08019 0.0
loop_
_geom_bond_atom_site_label_1
_geom_bond_atom_site_label_2
_geom_bond_distance
_geom_bond_site_symmetry_2
_ccdc_geom_bond_type
C0 O1 1.306 . S
C0 O3 1.160 . S
O1 C0 1.306 . S
O1 Cd2 2.228 . S
Cd2 O1 2.228 . S
Cd2 O6 2.273 . S
Cd2 O10 2.277 . S
O3 C0 1.160 . S
O3 Cd4 2.203 . S
Cd4 O3 2.203 . S
Cd4 O6 2.411 . S
Cd4 O7 2.333 1_545 S
Cd4 O8 2.352 1_545 S
Cd4 O12 2.277 1_554 S
Cd4 O13 2.356 1_545 S
C5 O10 1.209 1_556 S
C5 O12 1.226 . S
O6 Cd2 2.273 . S
O6 Cd4 2.411 . S
O6 C9 1.320 . S
O7 Cd4 2.333 1_565 S
O7 C9 1.214 1_565 S
O8 Cd4 2.352 1_565 S
O8 C11 1.258 . S
C9 O6 1.320 . S
C9 O7 1.214 1_545 S
O10 Cd2 2.277 . S
O10 C5 1.209 1_554 S
C11 O8 1.258 . S
C11 O13 1.282 . S
O12 Cd4 2.277 1_556 S
O12 C5 1.226 . S
O13 Cd4 2.356 1_565 S
O13 C11 1.282 . S
C14 O15 1.306 . S
C14 O17 1.160 . S
O15 C14 1.306 . S
O15 Cd16 2.228 . S
Cd16 O15 2.228 . S
Cd16 O20 2.273 . S
Cd16 O24 2.277 . S
O17 C14 1.160 . S
O17 Cd18 2.203 . S
Cd18 O17 2.203 . S
Cd18 O20 2.411 . S
Cd18 O21 2.333 . S
Cd18 O22 2.352 . S
Cd18 O26 2.277 . S
Cd18 O27 2.356 . S
C19 O24 1.209 . S
C19 O26 1.226 . S
O20 Cd16 2.273 . S
O20 Cd18 2.411 . S
O20 C23 1.320 . S
O21 Cd18 2.333 . S
O21 C23 1.214 . S
O22 Cd18 2.352 . S
O22 C25 1.258 . S
C23 O20 1.320 . S
C23 O21 1.214 . S
O24 Cd16 2.277 . S
O24 C19 1.209 . S
C25 O22 1.258 . S
C25 O27 1.282 . S
O26 Cd18 2.277 . S
O26 C19 1.226 . S
O27 Cd18 2.356 . S
O27 C25 1.282 . S
C28 O29 1.306 . S
C28 O31 1.160 . S
O29 C28 1.306 . S
O29 Cd30 2.228 . S
Cd30 O29 2.228 . S
Cd30 O34 2.258 1_655 S
Cd30 O38 2.277 . S
O31 C28 1.160 . S
O31 Cd32 2.203 1_655 S
Cd32 O31 2.203 1_455 S
Cd32 O34 2.418 . S
Cd32 O35 2.333 . S
Cd32 O36 2.352 . S
Cd32 O40 2.277 . S
Cd32 O41 2.356 . S
C33 O38 1.209 1_455 S
C33 O40 1.226 . S
O34 Cd30 2.258 1_455 S
O34 Cd32 2.418 . S
O34 C37 1.348 . S
O35 Cd32 2.333 . S
O35 C37 1.214 . S
O36 Cd32 2.352 . S
O36 C39 1.258 . S
C37 O34 1.348 . S
C37 O35 1.214 . S
O38 Cd30 2.277 . S
O38 C33 1.209 1_655 S
C39 O36 1.258 . S
C39 O41 1.282 . S
O40 Cd32 2.277 . S
O40 C33 1.226 . S
O41 Cd32 2.356 . S
O41 C39 1.282 . S
C42 O43 1.306 . S
C42 O45 1.160 1_565 S
O43 C42 1.306 . S
O43 Cd44 2.228 . S
Cd44 O43 2.228 . S
Cd44 O48 2.273 1_565 S
Cd44 O52 2.277 . S
O45 C42 1.160 1_545 S
O45 Cd46 2.203 . S
Cd46 O45 2.203 . S
Cd46 O48 2.411 . S
Cd46 O49 2.333 . S
Cd46 O50 2.352 . S
Cd46 O54 2.277 . S
Cd46 O55 2.356 . S
C47 O52 1.209 1_545 S
C47 O54 1.226 . S
O48 Cd44 2.273 1_545 S
O48 Cd46 2.411 . S
O48 C51 1.320 . S
O49 Cd46 2.333 . S
O49 C51 1.214 . S
O50 Cd46 2.352 . S
O50 C53 1.258 . S
C51 O48 1.320 . S
C51 O49 1.214 . S
O52 Cd44 2.277 . S
O52 C47 1.209 1_565 S
C53 O50 1.258 . S
C53 O55 1.282 . S
O54 Cd46 2.277 . S
O54 C47 1.226 . S
O55 Cd46 2.356 . S
O55 C53 1.282 . S
C56 O57 1.306 . S
C56 O59 1.160 . S
O57 C56 1.306 . S
O57 Cd58 2.228 . S
Cd58 O57 2.228 . S
Cd58 O62 2.273 . S
Cd58 O66 2.277 . S
O59 C56 1.160 . S
O59 Cd60 2.203 . S
Cd60 O59 2.203 . S
Cd60 O62 2.411 . S
Cd60 O63 2.333 . S
Cd60 O64 2.352 . S
Cd60 O68 2.277 . S
Cd60 O69 2.356 . S
C61 O66 1.209 . S
C61 O68 1.226 . S
O62 Cd58 2.273 . S
O62 Cd60 2.411 . S
O62 C65 1.320 . S
O63 Cd60 2.333 . S
O63 C65 1.214 . S
O64 Cd60 2.352 . S
O64 C67 1.258 . S
C65 O62 1.320 . S
C65 O63 1.214 . S
O66 Cd58 2.277 . S
O66 C61 1.209 . S
C67 O64 1.258 . S
C67 O69 1.282 . S
O68 Cd60 2.277 . S
O68 C61 1.226 . S
O69 Cd60 2.356 . S
O69 C67 1.282 . S
C70 O71 1.306 . S
C70 O73 1.160 . S
O71 C70 1.306 . S
O71 Cd72 2.228 . S
Cd72 O71 2.228 . S
Cd72 O76 2.273 . S
Cd72 O80 2.277 . S
O73 C70 1.160 . S
O73 Cd74 2.203 . S
Cd74 O73 2.203 . S
Cd74 O76 2.411 . S
Cd74 O77 2.333 1_455 S
Cd74 O78 2.352 1_455 S
Cd74 O82 2.271 1_455 S
Cd74 O83 2.356 1_455 S
C75 O80 1.209 . S
C75 O82 1.220 1_455 S
O76 Cd72 2.273 . S
O76 Cd74 2.411 . S
O76 C79 1.320 . S
O77 Cd74 2.333 1_655 S
O77 C79 1.214 1_655 S
O78 Cd74 2.352 1_655 S
O78 C81 1.258 . S
C79 O76 1.320 . S
C79 O77 1.214 1_455 S
O80 Cd72 2.277 . S
O80 C75 1.209 . S
C81 O78 1.258 . S
C81 O83 1.282 . S
O82 Cd74 2.271 1_655 S
O82 C75 1.220 1_655 S
O83 Cd74 2.356 1_655 S
O83 C81 1.282 . S
C84 C85 1.386 1_565 S
C84 C86 1.392 . S
C84 H100 0.951 . S
C85 C84 1.386 1_545 S
C85 C89 1.383 . S
C86 C84 1.392 . S
C86 C87 1.381 1_565 S
C86 H101 0.963 . S
C87 C86 1.381 1_545 S
C87 C88 1.375 . S
C87 C90 1.481 . S
C88 C87 1.375 . S
C88 C89 1.367 . S
C88 H102 0.951 . S
C89 C85 1.383 . S
C89 C88 1.367 . S
C89 H103 0.950 . S
C90 C87 1.481 . S
C90 C91 1.297 . S
C90 H104 0.950 . S
C91 C90 1.297 . S
C91 C92 1.479 . S
C91 H105 0.950 1_545 S
C92 C91 1.479 . S
C92 C93 1.375 1_545 S
C92 C98 1.404 . S
C93 C92 1.375 1_565 S
C93 C94 1.369 . S
C93 H106 0.950 . S
C94 C93 1.369 . S
C94 C95 1.392 1_565 S
C94 H107 0.951 . S
C95 C94 1.392 1_545 S
C95 C97 1.384 . S
H96 C98 0.949 . S
C97 C95 1.384 . S
C97 C98 1.385 . S
C97 H99 0.950 . S
C98 C92 1.404 . S
C98 H96 0.949 . S
C98 C97 1.385 . S
H99 C97 0.950 . S
H100 C84 0.951 . S
H101 C86 0.963 . S
H102 C88 0.951 . S
H103 C89 0.950 . S
H104 C90 0.950 . S
H105 C91 0.950 1_565 S
H106 C93 0.950 . S
H107 C94 0.951 . S
C108 C109 1.386 . S
C108 C110 1.383 . S
C108 H124 0.951 . S
C109 C108 1.386 . S
C109 C113 1.383 . S
C110 C108 1.383 . S
C110 C111 1.402 . S
C110 H125 0.951 . S
C111 C110 1.402 . S
C111 C112 1.375 . S
C111 C114 1.481 . S
C112 C111 1.375 . S
C112 C113 1.367 . S
C112 H126 0.951 . S
C113 C109 1.383 . S
C113 C112 1.367 . S
C113 H127 0.950 . S
C114 C111 1.481 . S
C114 C115 1.297 . S
C114 H128 0.950 . S
C115 C114 1.297 . S
C115 C116 1.479 . S
C115 H129 0.950 . S
C116 C115 1.479 . S
C116 C117 1.375 . S
C116 C122 1.404 . S
C117 C116 1.375 . S
C117 C118 1.369 . S
C117 H130 0.950 . S
C118 C117 1.369 . S
C118 C119 1.392 . S
C118 H131 0.951 . S
C119 C118 1.392 . S
C119 C121 1.384 . S
H120 C122 0.949 . S
C121 C119 1.384 . S
C121 C122 1.385 . S
C121 H123 0.950 . S
C122 C116 1.404 . S
C122 H120 0.949 . S
C122 C121 1.385 . S
H123 C121 0.950 . S
H124 C108 0.951 . S
H125 C110 0.951 . S
H126 C112 0.951 . S
H127 C113 0.950 . S
H128 C114 0.950 . S
H129 C115 0.950 . S
H130 C117 0.950 . S
H131 C118 0.951 . S
C132 C133 1.386 . S
C132 C134 1.383 . S
C132 H148 0.951 . S
C133 C132 1.386 . S
C133 C137 1.383 1_455 S
C134 C132 1.383 . S
C134 C135 1.402 . S
C134 H149 0.951 . S
C135 C134 1.402 . S
C135 C136 1.375 1_455 S
C135 C138 1.481 . S
C136 C135 1.375 1_655 S
C136 C137 1.367 . S
C136 H150 0.951 . S
C137 C133 1.383 1_655 S
C137 C136 1.367 . S
C137 H151 0.950 . S
C138 C135 1.481 . S
C138 C139 1.297 . S
C138 H152 0.950 1_455 S
C139 C138 1.297 . S
C139 C140 1.479 . S
C139 H153 0.950 . S
C140 C139 1.479 . S
C140 C141 1.375 . S
C140 C146 1.404 . S
C141 C140 1.375 . S
C141 C142 1.369 . S
C141 H154 0.950 . S
C142 C141 1.369 . S
C142 C143 1.392 . S
C142 H155 0.951 . S
C143 C142 1.392 . S
C143 C145 1.384 . S
H144 C146 0.949 1_655 S
C145 C143 1.384 . S
C145 C146 1.385 . S
C145 H147 0.950 1_455 S
C146 C140 1.404 . S
C146 H144 0.949 1_455 S
C146 C145 1.385 . S
H147 C145 0.950 1_655 S
H148 C132 0.951 . S
H149 C134 0.951 . S
H150 C136 0.951 . S
H151 C137 0.950 . S
H152 C138 0.950 1_655 S
H153 C139 0.950 . S
H154 C141 0.950 . S
H155 C142 0.951 . S
C156 C157 1.386 . S
C156 C158 1.383 . S
C156 H172 0.951 . S
C157 C156 1.386 . S
C157 C161 1.383 1_545 S
C158 C156 1.383 . S
C158 C159 1.402 . S
C158 H173 0.951 . S
C159 C158 1.402 . S
C159 C160 1.375 1_545 S
C159 C162 1.481 . S
C160 C159 1.375 1_565 S
C160 C161 1.367 . S
C160 H174 0.951 . S
C161 C157 1.383 1_565 S
C161 C160 1.367 . S
C161 H175 0.950 . S
C162 C159 1.481 . S
C162 C163 1.297 . S
C162 H176 0.950 1_545 S
C163 C162 1.297 . S
C163 C164 1.479 . S
C163 H177 0.950 . S
C164 C163 1.479 . S
C164 C165 1.375 . S
C164 C170 1.389 1_545 S
C165 C164 1.375 . S
C165 C166 1.369 . S
C165 H178 0.950 . S
C166 C165 1.369 . S
C166 C167 1.392 . S
C166 H179 0.951 . S
C167 C166 1.392 . S
C167 C169 1.384 1_545 S
H168 C170 0.975 . S
C169 C167 1.384 1_565 S
C169 C170 1.375 . S
C169 H171 0.950 . S
C170 C164 1.389 1_565 S
C170 H168 0.975 . S
C170 C169 1.375 . S
H171 C169 0.950 . S
H172 C156 0.951 . S
H173 C158 0.951 . S
H174 C160 0.951 . S
H175 C161 0.950 . S
H176 C162 0.950 1_565 S
H177 C163 0.950 . S
H178 C165 0.950 . S
H179 C166 0.951 . S
C180 C181 1.386 . S
C180 C182 1.383 . S
C180 H196 0.951 . S
C181 C180 1.386 . S
C181 C185 1.383 . S
C182 C180 1.383 . S
C182 C183 1.402 . S
C182 H197 0.951 . S
C183 C182 1.402 . S
C183 C184 1.375 . S
C183 C186 1.481 . S
C184 C183 1.375 . S
C184 C185 1.367 . S
C184 H198 0.951 . S
C185 C181 1.383 . S
C185 C184 1.367 . S
C185 H199 0.950 . S
C186 C183 1.481 . S
C186 C187 1.297 1_554 S
C186 H200 0.950 . S
C187 C186 1.297 1_556 S
C187 C188 1.479 . S
C187 H201 0.950 . S
C188 C187 1.479 . S
C188 C189 1.375 . S
C188 C194 1.404 . S
C189 C188 1.375 . S
C189 C190 1.369 . S
C189 H202 0.950 . S
C190 C189 1.369 . S
C190 C191 1.392 . S
C190 H203 0.951 . S
C191 C190 1.392 . S
C191 C193 1.384 . S
H192 C194 0.949 . S
C193 C191 1.384 . S
C193 C194 1.385 . S
C193 H195 0.950 . S
C194 C188 1.404 . S
C194 H192 0.949 . S
C194 C193 1.385 . S
H195 C193 0.950 . S
H196 C180 0.951 . S
H197 C182 0.951 . S
H198 C184 0.951 . S
H199 C185 0.950 . S
H200 C186 0.950 . S
H201 C187 0.950 . S
H202 C189 0.950 . S
H203 C190 0.951 . S
C204 C205 1.386 . S
C204 C206 1.395 . S
C204 H220 0.951 1_454 S
C205 C204 1.386 . S
C205 C209 1.383 . S
C206 C204 1.395 . S
C206 C207 1.421 . S
C206 H221 0.920 1_455 S
C207 C206 1.421 . S
C207 C208 1.375 . S
C207 C210 1.481 . S
C208 C207 1.375 . S
C208 C209 1.367 . S
C208 H222 0.951 . S
C209 C205 1.383 . S
C209 C208 1.367 . S
C209 H223 0.950 . S
C210 C207 1.481 . S
C210 C211 1.274 1_455 S
C210 H224 0.950 . S
C211 C210 1.274 1_655 S
C211 C212 1.487 1_655 S
C211 H225 0.968 . S
C212 C211 1.487 1_455 S
C212 C213 1.375 1_455 S
C212 C218 1.404 . S
C213 C212 1.375 1_655 S
C213 C214 1.369 . S
C213 H226 0.950 . S
C214 C213 1.369 . S
C214 C215 1.392 1_655 S
C214 H227 0.951 . S
C215 C214 1.392 1_455 S
C215 C217 1.384 . S
H216 C218 0.949 . S
C217 C215 1.384 . S
C217 C218 1.385 . S
C217 H219 0.950 . S
C218 C212 1.404 . S
C218 H216 0.949 . S
C218 C217 1.385 . S
H219 C217 0.950 . S
H220 C204 0.951 1_656 S
H221 C206 0.920 1_655 S
H222 C208 0.951 . S
H223 C209 0.950 . S
H224 C210 0.950 . S
H225 C211 0.968 . S
H226 C213 0.950 . S
H227 C214 0.951 . S
C228 C229 1.386 . S
C228 C230 1.383 . S
C228 H244 0.951 . S
C229 C228 1.386 . S
C229 C233 1.383 . S
C230 C228 1.383 . S
C230 C231 1.402 . S
C230 H245 0.951 . S
C231 C230 1.402 . S
C231 C232 1.375 . S
C231 C234 1.481 . S
C232 C231 1.375 . S
C232 C233 1.367 . S
C232 H246 0.951 . S
C233 C229 1.383 . S
C233 C232 1.367 . S
C233 H247 0.950 . S
C234 C231 1.481 . S
C234 C235 1.297 . S
C234 H248 0.950 . S
C235 C234 1.297 . S
C235 C236 1.479 . S
C235 H249 0.950 . S
C236 C235 1.479 . S
C236 C237 1.375 . S
C236 C242 1.404 . S
C237 C236 1.375 . S
C237 C238 1.369 . S
C237 H250 0.950 . S
C238 C237 1.369 . S
C238 C239 1.392 . S
C238 H251 0.951 . S
C239 C238 1.392 . S
C239 C241 1.384 . S
H240 C242 0.949 . S
C241 C239 1.384 . S
C241 C242 1.385 . S
C241 H243 0.950 . S
C242 C236 1.404 . S
C242 H240 0.949 . S
C242 C241 1.385 . S
H243 C241 0.950 . S
H244 C228 0.951 . S
H245 C230 0.951 . S
H246 C232 0.951 . S
H247 C233 0.950 . S
H248 C234 0.950 . S
H249 C235 0.950 . S
H250 C237 0.950 . S
H251 C238 0.951 . S
C252 C253 1.386 . S
C252 C254 1.383 . S
C252 H268 0.951 . S
C253 C252 1.386 . S
C253 C257 1.383 . S
C254 C252 1.383 . S
C254 C255 1.402 . S
C254 H269 0.951 . S
C255 C254 1.402 . S
C255 C256 1.375 . S
C255 C258 1.481 . S
C256 C255 1.375 . S
C256 C257 1.367 . S
C256 H270 0.951 . S
C257 C253 1.383 . S
C257 C256 1.367 . S
C257 H271 0.950 . S
C258 C255 1.481 . S
C258 C259 1.297 . S
C258 H272 0.950 . S
C259 C258 1.297 . S
C259 C260 1.479 . S
C259 H273 0.950 . S
C260 C259 1.479 . S
C260 C261 1.375 . S
C260 C266 1.404 . S
C261 C260 1.375 . S
C261 C262 1.369 . S
C261 H274 0.950 . S
C262 C261 1.369 . S
C262 C263 1.392 . S
C262 H275 0.951 . S
C263 C262 1.392 . S
C263 C265 1.384 . S
H264 C266 0.949 . S
C265 C263 1.384 . S
C265 C266 1.385 . S
C265 H267 0.950 . S
C266 C260 1.404 . S
C266 H264 0.949 . S
C266 C265 1.385 . S
H267 C265 0.950 . S
H268 C252 0.951 . S
H269 C254 0.951 . S
H270 C256 0.951 . S
H271 C257 0.950 . S
H272 C258 0.950 . S
H273 C259 0.950 . S
H274 C261 0.950 . S
H275 C262 0.951 . S
C276 C277 1.386 . S
C276 C278 1.383 . S
C276 H292 0.951 . S
C277 C276 1.386 . S
C277 C281 1.383 . S
C278 C276 1.383 . S
C278 C279 1.402 . S
C278 H293 0.951 . S
C279 C278 1.402 . S
C279 C280 1.375 . S
C279 C282 1.481 . S
C280 C279 1.375 . S
C280 C281 1.367 . S
C280 H294 0.951 . S
C281 C277 1.383 . S
C281 C280 1.367 . S
C281 H295 0.950 . S
C282 C279 1.481 . S
C282 C283 1.297 . S
C282 H296 0.950 . S
C283 C282 1.297 . S
C283 C284 1.479 . S
C283 H297 0.950 . S
C284 C283 1.479 . S
C284 C285 1.375 . S
C284 C290 1.404 . S
C285 C284 1.375 . S
C285 C286 1.369 . S
C285 H298 0.950 . S
C286 C285 1.369 . S
C286 C287 1.392 . S
C286 H299 0.951 . S
C287 C286 1.392 . S
C287 C289 1.384 . S
H288 C290 0.949 . S
C289 C287 1.384 . S
C289 C290 1.385 . S
C289 H291 0.950 . S
C290 C284 1.404 . S
C290 H288 0.949 . S
C290 C289 1.385 . S
H291 C289 0.950 . S
H292 C276 0.951 . S
H293 C278 0.951 . S
H294 C280 0.951 . S
H295 C281 0.950 . S
H296 C282 0.950 . S
H297 C283 0.950 . S
H298 C285 0.950 . S
H299 C286 0.951 . S
C300 C301 1.386 . S
C300 C302 1.383 . S
C300 H316 0.951 . S
C301 C300 1.386 . S
C301 C305 1.383 . S
C302 C300 1.383 . S
C302 C303 1.402 . S
C302 H317 0.951 . S
C303 C302 1.402 . S
C303 C304 1.375 . S
C303 C306 1.481 . S
C304 C303 1.375 . S
C304 C305 1.367 . S
C304 H318 0.951 . S
C305 C301 1.383 . S
C305 C304 1.367 . S
C305 H319 0.950 . S
C306 C303 1.481 . S
C306 C307 1.297 . S
C306 H320 0.950 . S
C307 C306 1.297 . S
C307 C308 1.479 . S
C307 H321 0.950 . S
C308 C307 1.479 . S
C308 C309 1.375 . S
C308 C314 1.404 . S
C309 C308 1.375 . S
C309 C310 1.369 . S
C309 H322 0.950 . S
C310 C309 1.369 . S
C310 C311 1.392 . S
C310 H323 0.951 . S
C311 C310 1.392 . S
C311 C313 1.384 . S
H312 C314 0.949 . S
C313 C311 1.384 . S
C313 C314 1.385 . S
C313 H315 0.950 . S
C314 C308 1.404 . S
C314 H312 0.949 . S
C314 C313 1.385 . S
H315 C313 0.950 . S
H316 C300 0.951 . S
H317 C302 0.951 . S
H318 C304 0.951 . S
H319 C305 0.950 . S
H320 C306 0.950 . S
H321 C307 0.950 . S
H322 C309 0.950 . S
H323 C310 0.951 . S
C324 C325 1.386 . S
C324 C326 1.383 . S
C324 H340 0.951 . S
C325 C324 1.386 . S
C325 C329 1.383 . S
C326 C324 1.383 . S
C326 C327 1.402 . S
C326 H341 0.951 . S
C327 C326 1.402 . S
C327 C328 1.375 . S
C327 C330 1.481 . S
C328 C327 1.375 . S
C328 C329 1.367 . S
C328 H342 0.951 . S
C329 C325 1.383 . S
C329 C328 1.367 . S
C329 H343 0.950 . S
C330 C327 1.481 . S
C330 C331 1.297 . S
C330 H344 0.950 . S
C331 C330 1.297 . S
C331 C332 1.479 . S
C331 H345 0.950 . S
C332 C331 1.479 . S
C332 C333 1.375 . S
C332 C338 1.404 . S
C333 C332 1.375 . S
C333 C334 1.369 . S
C333 H346 0.950 . S
C334 C333 1.369 . S
C334 C335 1.392 . S
C334 H347 0.951 . S
C335 C334 1.392 . S
C335 C337 1.384 . S
H336 C338 0.949 . S
C337 C335 1.384 . S
C337 C338 1.385 . S
C337 H339 0.950 . S
C338 C332 1.404 . S
C338 H336 0.949 . S
C338 C337 1.385 . S
H339 C337 0.950 . S
H340 C324 0.951 . S
H341 C326 0.951 . S
H342 C328 0.951 . S
H343 C329 0.950 . S
H344 C330 0.950 . S
H345 C331 0.950 . S
H346 C333 0.950 . S
H347 C334 0.951 . S
C348 C349 1.386 . S
C348 C350 1.383 . S
C348 H364 0.951 1_556 S
C349 C348 1.386 . S
C349 C353 1.383 . S
C350 C348 1.383 . S
C350 C351 1.402 . S
C350 H365 0.951 1_556 S
C351 C350 1.402 . S
C351 C352 1.375 . S
C351 C354 1.481 . S
C352 C351 1.375 . S
C352 C353 1.367 . S
C352 H366 0.951 . S
C353 C349 1.383 . S
C353 C352 1.367 . S
C353 H367 0.950 . S
C354 C351 1.481 . S
C354 C355 1.297 1_556 S
C354 H368 0.950 . S
C355 C354 1.297 1_554 S
C355 C356 1.479 . S
C355 H369 0.950 . S
C356 C355 1.479 . S
C356 C357 1.375 . S
C356 C362 1.404 1_554 S
C357 C356 1.375 . S
C357 C358 1.369 . S
C357 H370 0.950 . S
C358 C357 1.369 . S
C358 C359 1.392 . S
C358 H371 0.951 . S
C359 C358 1.392 . S
C359 C361 1.384 1_554 S
H360 C362 0.949 . S
C361 C359 1.384 1_556 S
C361 C362 1.385 . S
C361 H363 0.950 . S
C362 C356 1.404 1_556 S
C362 H360 0.949 . S
C362 C361 1.385 . S
H363 C361 0.950 . S
H364 C348 0.951 1_554 S
H365 C350 0.951 1_554 S
H366 C352 0.951 . S
H367 C353 0.950 . S
H368 C354 0.950 . S
H369 C355 0.950 . S
H370 C357 0.950 . S
H371 C358 0.951 . S
C85 C9 1.655 . S
C95 C47 1.640 . S
C109 C19 1.680 . S
C119 C65 1.674 . S
C133 C75 1.714 . S
C143 C37 1.694 . S
C157 C5 1.652 . S
C167 C51 1.643 . S
C181 C23 1.676 . S
C191 C61 1.676 . S
C205 C79 1.709 1_554 S
C215 C33 1.703 . S
C229 C25 1.335 . S
C239 C11 1.340 . S
C253 C28 1.394 . S
C263 C14 1.393 . S
C277 C39 1.343 . S
C287 C42 1.341 . S
C301 C67 1.315 . S
C311 C53 1.291 . S
C325 C70 1.390 . S
C335 C56 1.368 . S
C349 C81 1.333 . S
C359 C0 1.301 . S
