# Generated by pormake.
# Topology gsi, (4)-cn, num edge types: 1
# Building blocks:
#     Node 0, Type 0, BuildingBlock: QUQFOY_clean_sbu_3, # of connection points: 4
#     Node 1, Type 0, BuildingBlock: QUQFOY_clean_sbu_3, # of connection points: 4
#     Node 2, Type 0, BuildingBlock: QUQFOY_clean_sbu_3, # of connection points: 4
#     Node 3, Type 0, BuildingBlock: QUQFOY_clean_sbu_3, # of connection points: 4
#     Node 4, Type 0, BuildingBlock: QUQFOY_clean_sbu_3, # of connection points: 4
#     Node 5, Type 0, BuildingBlock: QUQFOY_clean_sbu_3, # of connection points: 4
#     Node 6, Type 0, BuildingBlock: QUQFOY_clean_sbu_3, # of connection points: 4
#     Node 7, Type 0, BuildingBlock: QUQFOY_clean_sbu_3, # of connection points: 4
#     Node 8, Type 0, BuildingBlock: QUQFOY_clean_sbu_3, # of connection points: 4
#     Node 9, Type 0, BuildingBlock: QUQFOY_clean_sbu_3, # of connection points: 4
#     Node 10, Type 0, BuildingBlock: QUQFOY_clean_sbu_3, # of connection points: 4
#     Node 11, Type 0, BuildingBlock: QUQFOY_clean_sbu_3, # of connection points: 4
#     Node 12, Type 0, BuildingBlock: QUQFOY_clean_sbu_3, # of connection points: 4
#     Node 13, Type 0, BuildingBlock: QUQFOY_clean_sbu_3, # of connection points: 4
#     Node 14, Type 0, BuildingBlock: QUQFOY_clean_sbu_3, # of connection points: 4
#     Node 15, Type 0, BuildingBlock: QUQFOY_clean_sbu_3, # of connection points: 4
#     Edge 16, Type (0, 0), BuildingBlock: XUDNAN_clean_linker_2, # of connection points: 2
#     Edge 17, Type (0, 0), BuildingBlock: XUDNAN_clean_linker_2, # of connection points: 2
#     Edge 18, Type (0, 0), BuildingBlock: XUDNAN_clean_linker_2, # of connection points: 2
#     Edge 19, Type (0, 0), BuildingBlock: XUDNAN_clean_linker_2, # of connection points: 2
#     Edge 20, Type (0, 0), BuildingBlock: XUDNAN_clean_linker_2, # of connection points: 2
#     Edge 21, Type (0, 0), BuildingBlock: XUDNAN_clean_linker_2, # of connection points: 2
#     Edge 22, Type (0, 0), BuildingBlock: XUDNAN_clean_linker_2, # of connection points: 2
#     Edge 23, Type (0, 0), BuildingBlock: XUDNAN_clean_linker_2, # of connection points: 2
#     Edge 24, Type (0, 0), BuildingBlock: XUDNAN_clean_linker_2, # of connection points: 2
#     Edge 25, Type (0, 0), BuildingBlock: XUDNAN_clean_linker_2, # of connection points: 2
#     Edge 26, Type (0, 0), BuildingBlock: XUDNAN_clean_linker_2, # of connection points: 2
#     Edge 27, Type (0, 0), BuildingBlock: XUDNAN_clean_linker_2, # of connection points: 2
#     Edge 28, Type (0, 0), BuildingBlock: XUDNAN_clean_linker_2, # of connection points: 2
#     Edge 29, Type (0, 0), BuildingBlock: XUDNAN_clean_linker_2, # of connection points: 2
#     Edge 30, Type (0, 0), BuildingBlock: XUDNAN_clean_linker_2, # of connection points: 2
#     Edge 31, Type (0, 0), BuildingBlock: XUDNAN_clean_linker_2, # of connection points: 2
#     Edge 32, Type (0, 0), BuildingBlock: XUDNAN_clean_linker_2, # of connection points: 2
#     Edge 33, Type (0, 0), BuildingBlock: XUDNAN_clean_linker_2, # of connection points: 2
#     Edge 34, Type (0, 0), BuildingBlock: XUDNAN_clean_linker_2, # of connection points: 2
#     Edge 35, Type (0, 0), BuildingBlock: XUDNAN_clean_linker_2, # of connection points: 2
#     Edge 36, Type (0, 0), BuildingBlock: XUDNAN_clean_linker_2, # of connection points: 2
#     Edge 37, Type (0, 0), BuildingBlock: XUDNAN_clean_linker_2, # of connection points: 2
#     Edge 38, Type (0, 0), BuildingBlock: XUDNAN_clean_linker_2, # of connection points: 2
#     Edge 39, Type (0, 0), BuildingBlock: XUDNAN_clean_linker_2, # of connection points: 2
#     Edge 40, Type (0, 0), BuildingBlock: XUDNAN_clean_linker_2, # of connection points: 2
#     Edge 41, Type (0, 0), BuildingBlock: XUDNAN_clean_linker_2, # of connection points: 2
#     Edge 42, Type (0, 0), BuildingBlock: XUDNAN_clean_linker_2, # of connection points: 2
#     Edge 43, Type (0, 0), BuildingBlock: XUDNAN_clean_linker_2, # of connection points: 2
#     Edge 44, Type (0, 0), BuildingBlock: XUDNAN_clean_linker_2, # of connection points: 2
#     Edge 45, Type (0, 0), BuildingBlock: XUDNAN_clean_linker_2, # of connection points: 2
#     Edge 46, Type (0, 0), BuildingBlock: XUDNAN_clean_linker_2, # of connection points: 2
#     Edge 47, Type (0, 0), BuildingBlock: XUDNAN_clean_linker_2, # of connection points: 2
# Relax obj value: 0.139
# Max RMSD: 0.122
# Mean RMSD: 0.120
data_MOF--net-gsi--node1-QUQFOY_clean_sbu_3--edge1-XUDNAN_clean_linker_2
_symmetry_space_group_name_H-M    P1
_symmetry_Int_Tables_number       1
_symmetry_cell_setting            triclinic
loop_
_symmetry_equiv_pos_as_xyz
'x, y, z'
_cell_length_a     46.240024
_cell_length_b     37.446813
_cell_length_c     45.414017
_cell_angle_alpha  90.069234
_cell_angle_beta   89.894685
_cell_angle_gamma 89.989334
loop_
_atom_site_label
_atom_site_type_symbol
_atom_site_fract_x
_atom_site_fract_y
_atom_site_fract_z
_atom_type_partial_charge
C0 C 0.05885 0.1547 0.1517 0.0
O1 O 0.05933 0.15639 0.17964 0.0
Cd2 Cd 0.10014 0.15333 0.21143 0.0
O3 O 0.08165 0.14704 0.13707 0.0
Cd4 Cd 0.13152 0.12835 0.15292 0.0
C5 C 0.1143 0.06567 0.20561 0.0
O6 O 0.1372 0.18126 0.18305 0.0
O7 O 0.17269 0.1443 0.18538 0.0
O8 O 0.15523 0.14713 0.10702 0.0
C9 C 0.16246 0.17466 0.19202 0.0
O10 O 0.10849 0.091 0.22331 0.0
C11 C 0.16618 0.11679 0.10127 0.0
O12 O 0.12058 0.07215 0.17882 0.0
O13 O 0.15989 0.09152 0.11872 0.0
C14 C 0.86938 0.26045 0.12621 0.0
O15 O 0.85434 0.24834 0.1474 0.0
Cd16 Cd 0.80815 0.26666 0.16451 0.0
O17 O 0.86 0.28607 0.11024 0.0
Cd18 Cd 0.81434 0.32305 0.10742 0.0
C19 C 0.82316 0.3567 0.17655 0.0
O20 O 0.7828 0.27448 0.12034 0.0
O21 O 0.76183 0.32528 0.11754 0.0
O22 O 0.81944 0.31697 0.05453 0.0
C23 C 0.75971 0.29224 0.12293 0.0
O24 O 0.81623 0.3256 0.18549 0.0
C25 C 0.80979 0.34776 0.04825 0.0
O26 O 0.82598 0.36335 0.14908 0.0
O27 O 0.80427 0.36851 0.06969 0.0
C28 C 0.09455 0.7372 0.36118 0.0
O29 O 0.10717 0.72604 0.33807 0.0
Cd30 Cd 0.15086 0.74858 0.31734 0.0
O31 O 0.10557 0.76228 0.37655 0.0
Cd32 Cd 0.15072 0.79902 0.3762 0.0
C33 C 0.13286 0.83843 0.31158 0.0
O34 O 0.18293 0.75312 0.35752 0.0
O35 O 0.20099 0.80594 0.36006 0.0
O36 O 0.15293 0.78471 0.42786 0.0
C37 C 0.20461 0.77326 0.3539 0.0
O38 O 0.1391 0.80828 0.30018 0.0
C39 C 0.1603 0.81556 0.43663 0.0
O40 O 0.13349 0.8429 0.33947 0.0
O41 O 0.16129 0.8401 0.41732 0.0
C42 C 0.89906 0.65262 0.34946 0.0
O43 O 0.89714 0.65763 0.32188 0.0
Cd44 Cd 0.8548 0.66247 0.29278 0.0
O45 O 0.87661 0.64644 0.36505 0.0
Cd46 Cd 0.82461 0.63645 0.35158 0.0
C47 C 0.83528 0.57598 0.29544 0.0
O48 O 0.82134 0.69184 0.32461 0.0
O49 O 0.78384 0.65837 0.321 0.0
O50 O 0.8056 0.656 0.39951 0.0
C51 C 0.79567 0.68822 0.31574 0.0
O52 O 0.84214 0.60197 0.27886 0.0
C53 C 0.79206 0.62722 0.40485 0.0
O54 O 0.83025 0.58101 0.32274 0.0
O55 O 0.79471 0.60228 0.38611 0.0
C56 C 0.38795 0.85226 0.61625 0.0
O57 O 0.36422 0.84165 0.60583 0.0
Cd58 Cd 0.33642 0.87049 0.64683 0.0
O59 O 0.38626 0.87279 0.63826 0.0
Cd60 Cd 0.33087 0.87522 0.64794 0.0
C61 C 0.34752 0.94266 0.67565 0.0
O62 O 0.33138 0.82403 0.68161 0.0
O63 O 0.30511 0.86784 0.6965 0.0
O64 O 0.30468 0.83324 0.61489 0.0
C65 C 0.31447 0.83636 0.70095 0.0
O66 O 0.36247 0.91489 0.67979 0.0
C67 C 0.29068 0.85688 0.60103 0.0
O68 O 0.32656 0.9399 0.65803 0.0
O69 O 0.2962 0.88911 0.60745 0.0
C70 C 0.90448 0.80992 0.85552 0.0
O71 O 0.88804 0.7833 0.85128 0.0
Cd72 Cd 0.83839 0.79089 0.83799 0.0
O73 O 0.8959 0.84145 0.84964 0.0
Cd74 Cd 0.85376 0.87172 0.82706 0.0
C75 C 0.81581 0.85507 0.88843 0.0
O76 O 0.83568 0.82482 0.79381 0.0
O77 O 0.80706 0.86897 0.80389 0.0
O78 O 0.88582 0.89655 0.79024 0.0
C79 C 0.8122 0.84124 0.78874 0.0
O80 O 0.81613 0.8232 0.87858 0.0
C81 C 0.87771 0.92874 0.79293 0.0
O82 O 0.82903 0.88 0.8748 0.0
O83 O 0.85962 0.93536 0.81338 0.0
C84 C 0.10432 0.74039 0.89379 0.0
O85 O 0.12507 0.7613 0.89984 0.0
Cd86 Cd 0.17475 0.74802 0.89341 0.0
O87 O 0.10922 0.70893 0.8841 0.0
Cd88 Cd 0.15229 0.67091 0.87208 0.0
C89 C 0.18482 0.67564 0.93893 0.0
O90 O 0.17724 0.71861 0.84711 0.0
O91 O 0.20251 0.67084 0.85351 0.0
O92 O 0.13494 0.64503 0.82606 0.0
C93 C 0.20049 0.70177 0.84231 0.0
O94 O 0.1884 0.70854 0.93302 0.0
C95 C 0.13019 0.61407 0.83616 0.0
O96 O 0.17168 0.65502 0.92106 0.0
O97 O 0.13502 0.60931 0.86339 0.0
C98 C 0.89657 0.24063 0.58211 0.0
O99 O 0.87645 0.26274 0.57667 0.0
Cd100 Cd 0.82684 0.25618 0.58835 0.0
O101 O 0.89107 0.21042 0.59402 0.0
Cd102 Cd 0.84766 0.17611 0.61196 0.0
C103 C 0.80894 0.18106 0.54801 0.0
O104 O 0.82976 0.22872 0.63503 0.0
O105 O 0.80117 0.18365 0.63923 0.0
O106 O 0.86888 0.15004 0.65632 0.0
C107 C 0.8066 0.21603 0.64538 0.0
O108 O 0.80802 0.21459 0.5525 0.0
C109 C 0.86976 0.11828 0.64673 0.0
O110 O 0.82211 0.16033 0.56576 0.0
O111 O 0.8612 0.11322 0.62051 0.0
C112 C 0.09534 0.30403 0.62264 0.0
O113 O 0.11129 0.2769 0.62671 0.0
Cd114 Cd 0.15693 0.27885 0.65032 0.0
O115 O 0.10268 0.33474 0.63238 0.0
Cd116 Cd 0.14293 0.36078 0.66242 0.0
C117 C 0.19089 0.34348 0.60818 0.0
O118 O 0.14624 0.30975 0.69469 0.0
O119 O 0.18141 0.34713 0.69856 0.0
O120 O 0.10718 0.39269 0.69172 0.0
C121 C 0.16833 0.32003 0.70867 0.0
O122 O 0.18828 0.31118 0.61648 0.0
C123 C 0.12032 0.42241 0.69183 0.0
O124 O 0.17591 0.36807 0.62023 0.0
O125 O 0.14307 0.42449 0.67618 0.0
C126 C 0.58118 0.211 0.37646 0.0
O127 O 0.59968 0.23587 0.37414 0.0
Cd128 Cd 0.64256 0.23316 0.34536 0.0
O129 O 0.58523 0.18104 0.36368 0.0
Cd130 Cd 0.62445 0.15466 0.33276 0.0
C131 C 0.67824 0.1668 0.38201 0.0
O132 O 0.62878 0.206 0.30013 0.0
O133 O 0.66225 0.16626 0.29596 0.0
O134 O 0.58864 0.12523 0.30198 0.0
C135 C 0.64984 0.19364 0.28554 0.0
O136 O 0.67709 0.19913 0.37354 0.0
C137 C 0.6006 0.09477 0.30226 0.0
O138 O 0.65991 0.14407 0.37264 0.0
O139 O 0.6223 0.09109 0.3191 0.0
C140 C 0.57024 0.72936 0.63179 0.0
O141 O 0.57608 0.73562 0.65863 0.0
Cd142 Cd 0.61761 0.71857 0.68554 0.0
O143 O 0.58691 0.70996 0.61595 0.0
Cd144 Cd 0.63409 0.6788 0.62665 0.0
C145 C 0.60991 0.62883 0.68478 0.0
O146 O 0.6531 0.73128 0.64916 0.0
O147 O 0.68102 0.68613 0.6544 0.0
O148 O 0.6523 0.68749 0.57639 0.0
C149 C 0.67738 0.71955 0.65696 0.0
O150 O 0.61256 0.65636 0.70095 0.0
C151 C 0.65936 0.65509 0.57237 0.0
O152 O 0.61408 0.63065 0.6571 0.0
O153 O 0.65321 0.63341 0.5929 0.0
C154 C 0.57917 0.29748 0.84714 0.0
O155 O 0.58022 0.28659 0.82071 0.0
Cd156 Cd 0.6111 0.30968 0.78334 0.0
O157 O 0.59708 0.3208 0.85644 0.0
Cd158 Cd 0.64093 0.35089 0.83537 0.0
C159 C 0.60282 0.4016 0.78849 0.0
O160 O 0.65948 0.3069 0.79983 0.0
O161 O 0.67293 0.36178 0.79426 0.0
O162 O 0.67609 0.32822 0.86941 0.0
C163 C 0.67567 0.3293 0.78685 0.0
O164 O 0.59937 0.37218 0.77481 0.0
C165 C 0.68279 0.35774 0.8812 0.0
O166 O 0.61613 0.40252 0.81309 0.0
O167 O 0.66844 0.38508 0.8733 0.0
C168 C 0.38923 0.21968 0.88559 0.0
O169 O 0.37875 0.23936 0.86555 0.0
Cd170 Cd 0.33608 0.22821 0.83761 0.0
O171 O 0.37599 0.19187 0.8946 0.0
Cd172 Cd 0.32734 0.16432 0.8858 0.0
C173 C 0.3474 0.13951 0.81699 0.0
O174 O 0.29903 0.21647 0.87163 0.0
O175 O 0.28029 0.16507 0.86204 0.0
O176 O 0.31358 0.16881 0.93699 0.0
C177 C 0.27786 0.19876 0.86162 0.0
O178 O 0.34468 0.17265 0.81124 0.0
C179 C 0.30682 0.13622 0.94033 0.0
O180 O 0.34409 0.12791 0.84326 0.0
O181 O 0.31216 0.11535 0.91885 0.0
C182 C 0.38104 0.2725 0.38903 0.0
O183 O 0.36263 0.24752 0.38698 0.0
Cd184 Cd 0.31316 0.26061 0.37658 0.0
O185 O 0.3745 0.30439 0.38189 0.0
Cd186 Cd 0.33435 0.33882 0.35949 0.0
C187 C 0.30055 0.33197 0.42442 0.0
O188 O 0.31177 0.29144 0.33082 0.0
O189 O 0.28605 0.33885 0.33811 0.0
O190 O 0.36664 0.35534 0.31985 0.0
C191 C 0.28891 0.30891 0.32535 0.0
O192 O 0.29776 0.29939 0.41679 0.0
C193 C 0.36302 0.38881 0.32183 0.0
O194 O 0.31392 0.35408 0.40797 0.0
O195 O 0.34683 0.39983 0.34265 0.0
C196 C 0.40719 0.70915 0.11879 0.0
O197 O 0.38746 0.73235 0.12227 0.0
Cd198 Cd 0.34412 0.72589 0.14987 0.0
O199 O 0.40446 0.67782 0.12956 0.0
Cd200 Cd 0.36491 0.64622 0.15699 0.0
C201 C 0.3104 0.66197 0.10862 0.0
O202 O 0.35732 0.69352 0.19273 0.0
O203 O 0.32489 0.65219 0.19234 0.0
O204 O 0.39425 0.61208 0.19144 0.0
C205 C 0.33569 0.67924 0.20506 0.0
O206 O 0.31074 0.69366 0.11875 0.0
C207 C 0.38698 0.58164 0.18178 0.0
O208 O 0.3291 0.63917 0.11705 0.0
O209 O 0.37109 0.58095 0.15902 0.0
C210 C 0.60456 0.78444 0.09644 0.0
O211 O 0.62372 0.76025 0.09792 0.0
Cd212 Cd 0.67251 0.77271 0.1119 0.0
O213 O 0.61032 0.81653 0.10379 0.0
Cd214 Cd 0.65104 0.85173 0.12448 0.0
C215 C 0.694 0.84072 0.06505 0.0
O216 O 0.6692 0.80539 0.1568 0.0
O217 O 0.69691 0.85141 0.15118 0.0
O218 O 0.62342 0.87717 0.16475 0.0
C219 C 0.69158 0.82245 0.16462 0.0
O220 O 0.69528 0.80832 0.07346 0.0
C221 C 0.62383 0.90908 0.1556 0.0
O222 O 0.67833 0.86323 0.07884 0.0
O223 O 0.63613 0.91479 0.13101 0.0
H224 H 0.21565 0.16642 0.21809 0.0
H225 H 0.14365 0.2402 0.20977 0.0
H226 H 0.16831 0.28261 0.24276 0.0
H227 H 0.22956 0.18296 0.29454 0.0
H228 H 0.2683 0.17985 0.29091 0.0
H229 H 0.24526 0.15534 0.26616 0.0
H230 H 0.27042 0.18523 0.22148 0.0
H231 H 0.29358 0.20978 0.2461 0.0
H232 H 0.272 0.23327 0.21938 0.0
H233 H 0.20022 0.31672 0.27695 0.0
H234 H 0.23784 0.3406 0.31006 0.0
H235 H 0.28908 0.24479 0.29626 0.0
C236 C 0.20514 0.19153 0.22316 0.0
C237 C 0.17775 0.2 0.2114 0.0
C238 C 0.16464 0.23312 0.21856 0.0
C239 C 0.17846 0.25742 0.23727 0.0
C240 C 0.20536 0.24821 0.24861 0.0
C241 C 0.21862 0.21613 0.24184 0.0
C242 C 0.24753 0.21277 0.25718 0.0
C243 C 0.24765 0.18084 0.27846 0.0
C244 C 0.27234 0.21012 0.23469 0.0
C245 C 0.24834 0.24791 0.27368 0.0
C246 C 0.22382 0.26795 0.2684 0.0
C247 C 0.21956 0.30132 0.28126 0.0
C248 C 0.24102 0.31464 0.30003 0.0
C249 C 0.26634 0.29455 0.30573 0.0
C250 C 0.26995 0.26077 0.29233 0.0
H251 H 0.75717 0.22903 0.15252 0.0
H252 H 0.70793 0.32507 0.134 0.0
H253 H 0.67137 0.30683 0.17076 0.0
H254 H 0.69439 0.16917 0.16913 0.0
H255 H 0.71399 0.14729 0.19826 0.0
H256 H 0.73314 0.16456 0.16673 0.0
H257 H 0.76586 0.20169 0.20149 0.0
H258 H 0.74659 0.18509 0.23304 0.0
H259 H 0.74948 0.23253 0.22707 0.0
H260 H 0.64421 0.28265 0.21401 0.0
H261 H 0.62713 0.25296 0.2593 0.0
H262 H 0.69502 0.17357 0.25021 0.0
C263 C 0.73822 0.24566 0.15546 0.0
C264 C 0.73527 0.27839 0.14037 0.0
C265 C 0.71049 0.29979 0.14527 0.0
C266 C 0.68963 0.28965 0.16607 0.0
C267 C 0.69389 0.258 0.18158 0.0
C268 C 0.71741 0.23611 0.17629 0.0
C269 C 0.71861 0.20546 0.19792 0.0
C270 C 0.71479 0.16949 0.18206 0.0
C271 C 0.7468 0.20628 0.21594 0.0
C272 C 0.69265 0.21419 0.21686 0.0
C273 C 0.67846 0.24431 0.20685 0.0
C274 C 0.65485 0.25871 0.22178 0.0
C275 C 0.64543 0.24178 0.24756 0.0
C276 C 0.65978 0.21098 0.25822 0.0
C277 C 0.68355 0.19697 0.24251 0.0
H278 H 0.28663 0.65754 0.23385 0.0
H279 H 0.35403 0.73825 0.23497 0.0
H280 H 0.33021 0.76769 0.27712 0.0
H281 H 0.22903 0.71525 0.24813 0.0
H282 H 0.20926 0.68461 0.27119 0.0
H283 H 0.2332 0.66774 0.24319 0.0
H284 H 0.26086 0.6311 0.28253 0.0
H285 H 0.23697 0.64794 0.31071 0.0
H286 H 0.27552 0.6535 0.31434 0.0
H287 H 0.29692 0.79154 0.31562 0.0
H288 H 0.25599 0.80836 0.3478 0.0
H289 H 0.21079 0.7116 0.32231 0.0
C290 C 0.29659 0.68111 0.24324 0.0
C291 C 0.32215 0.69563 0.23118 0.0
C292 C 0.33443 0.72667 0.2439 0.0
C293 C 0.32115 0.7435 0.26791 0.0
C294 C 0.29577 0.72876 0.27906 0.0
C295 C 0.28365 0.6982 0.26725 0.0
C296 C 0.25528 0.68918 0.28211 0.0
C297 C 0.23022 0.68922 0.25983 0.0
C298 C 0.25729 0.6533 0.29839 0.0
C299 C 0.25293 0.72005 0.30349 0.0
C300 C 0.27665 0.74238 0.3016 0.0
C301 C 0.27843 0.774 0.31767 0.0
C302 C 0.25509 0.78336 0.33581 0.0
C303 C 0.23039 0.76115 0.33764 0.0
C304 C 0.22963 0.72877 0.32172 0.0
H305 H 0.7451 0.68256 0.28459 0.0
H306 H 0.81701 0.75401 0.30213 0.0
H307 H 0.79738 0.7972 0.26643 0.0
H308 H 0.74216 0.69749 0.20804 0.0
H309 H 0.70328 0.69573 0.20566 0.0
H310 H 0.72174 0.67147 0.2342 0.0
H311 H 0.69109 0.70388 0.27393 0.0
H312 H 0.67236 0.72806 0.24548 0.0
H313 H 0.69025 0.752 0.27468 0.0
H314 H 0.77154 0.83104 0.2269 0.0
H315 H 0.74026 0.85395 0.18707 0.0
H316 H 0.68553 0.76025 0.19534 0.0
C317 C 0.75649 0.70751 0.28122 0.0
C318 C 0.78254 0.71498 0.29611 0.0
C319 C 0.79698 0.74776 0.29093 0.0
C320 C 0.78601 0.77247 0.27072 0.0
C321 C 0.76057 0.76402 0.25598 0.0
C322 C 0.74588 0.73245 0.26108 0.0
C323 C 0.71956 0.7293 0.24154 0.0
C324 C 0.72184 0.69656 0.22115 0.0
C325 C 0.69166 0.72826 0.26002 0.0
C326 C 0.722 0.76378 0.2244 0.0
C327 C 0.74572 0.78351 0.23313 0.0
C328 C 0.75277 0.81597 0.21998 0.0
C329 C 0.73496 0.82869 0.19735 0.0
C330 C 0.71052 0.80888 0.18815 0.0
C331 C 0.70404 0.77605 0.20193 0.0
H332 H 0.26919 0.84894 0.73834 0.0
H333 H 0.33802 0.77352 0.71939 0.0
H334 H 0.31903 0.733 0.75761 0.0
H335 H 0.26411 0.83121 0.81886 0.0
H336 H 0.22528 0.83538 0.81863 0.0
H337 H 0.24681 0.8607 0.79295 0.0
H338 H 0.21744 0.83399 0.74963 0.0
H339 H 0.19601 0.80844 0.77508 0.0
H340 H 0.21507 0.78616 0.74567 0.0
H341 H 0.28966 0.69796 0.79389 0.0
H342 H 0.25187 0.67115 0.82554 0.0
H343 H 0.20206 0.76918 0.81995 0.0
C344 C 0.28069 0.82434 0.7428 0.0
C345 C 0.30513 0.81441 0.7261 0.0
C346 C 0.31927 0.78165 0.73206 0.0
C347 C 0.30872 0.75852 0.75377 0.0
C348 C 0.28408 0.76862 0.76933 0.0
C349 C 0.27032 0.80084 0.76424 0.0
C350 C 0.24278 0.80394 0.78204 0.0
C351 C 0.24489 0.83463 0.80446 0.0
C352 C 0.21627 0.80838 0.7619 0.0
C353 C 0.24275 0.76802 0.7972 0.0
C354 C 0.26693 0.7482 0.78995 0.0
C355 C 0.27081 0.71339 0.80008 0.0
C356 C 0.24924 0.69836 0.81795 0.0
C357 C 0.22411 0.71811 0.82519 0.0
C358 C 0.22111 0.75348 0.81492 0.0
H359 H 0.72693 0.70172 0.68777 0.0
H360 H 0.67368 0.79147 0.66074 0.0
H361 H 0.7043 0.83221 0.68928 0.0
H362 H 0.73794 0.73026 0.76068 0.0
H363 H 0.77509 0.71597 0.76315 0.0
H364 H 0.75067 0.69349 0.73849 0.0
H365 H 0.78528 0.70597 0.69476 0.0
H366 H 0.80992 0.72831 0.71935 0.0
H367 H 0.79649 0.75116 0.68725 0.0
H368 H 0.7366 0.86243 0.72391 0.0
H369 H 0.77186 0.88167 0.76127 0.0
H370 H 0.80621 0.77387 0.76542 0.0
C371 C 0.7221 0.73002 0.68749 0.0
C372 C 0.69789 0.7434 0.67212 0.0
C373 C 0.69204 0.78056 0.67246 0.0
C374 C 0.70934 0.804 0.68854 0.0
C375 C 0.73259 0.78998 0.70399 0.0
C376 C 0.73931 0.75401 0.70346 0.0
C377 C 0.76498 0.74612 0.72316 0.0
C378 C 0.75666 0.71991 0.74783 0.0
C379 C 0.79069 0.73206 0.70504 0.0
C380 C 0.77101 0.78313 0.73527 0.0
C381 C 0.75202 0.80793 0.7238 0.0
C382 C 0.75194 0.84346 0.73278 0.0
C383 C 0.77191 0.85407 0.7541 0.0
C384 C 0.79178 0.82928 0.76601 0.0
C385 C 0.79148 0.79342 0.7563 0.0
H386 H 0.68611 0.26174 0.76563 0.0
H387 H 0.70981 0.37309 0.75393 0.0
H388 H 0.74359 0.35599 0.71439 0.0
H389 H 0.75653 0.22617 0.75537 0.0
H390 H 0.74472 0.18698 0.73568 0.0
H391 H 0.72102 0.20796 0.76201 0.0
H392 H 0.68153 0.21422 0.72191 0.0
H393 H 0.70516 0.19328 0.69543 0.0
H394 H 0.69003 0.23667 0.68789 0.0
H395 H 0.77633 0.32736 0.6785 0.0
H396 H 0.80688 0.2884 0.6478 0.0
H397 H 0.76203 0.19518 0.68172 0.0
C398 C 0.69824 0.28252 0.75457 0.0
C399 C 0.69531 0.31875 0.76278 0.0
C400 C 0.71168 0.34517 0.74796 0.0
C401 C 0.73087 0.33576 0.72543 0.0
C402 C 0.73334 0.29986 0.71794 0.0
C403 C 0.71752 0.2736 0.73196 0.0
C404 C 0.72518 0.23686 0.72026 0.0
C405 C 0.73761 0.21311 0.74479 0.0
C406 C 0.69891 0.21923 0.70549 0.0
C407 C 0.74811 0.24663 0.69781 0.0
C408 C 0.75231 0.28316 0.69682 0.0
C409 C 0.77312 0.29874 0.67884 0.0
C410 C 0.79039 0.27636 0.66157 0.0
C411 C 0.7867 0.23883 0.66236 0.0
C412 C 0.76503 0.22382 0.68045 0.0
H413 H 0.21667 0.33321 0.74215 0.0
H414 H 0.14371 0.26103 0.73308 0.0
H415 H 0.1614 0.22581 0.77508 0.0
H416 H 0.26841 0.26744 0.75834 0.0
H417 H 0.28806 0.29395 0.78473 0.0
H418 H 0.26833 0.31548 0.75562 0.0
H419 H 0.23995 0.35268 0.79423 0.0
H420 H 0.25955 0.33108 0.8235 0.0
H421 H 0.22057 0.33012 0.82323 0.0
H422 H 0.1888 0.19538 0.81454 0.0
H423 H 0.22496 0.17114 0.84909 0.0
H424 H 0.27955 0.26358 0.83398 0.0
C425 C 0.20428 0.31025 0.74924 0.0
C426 C 0.17884 0.29985 0.73437 0.0
C427 C 0.16328 0.26949 0.74414 0.0
C428 C 0.17306 0.2494 0.76807 0.0
C429 C 0.19828 0.26017 0.78213 0.0
C430 C 0.21369 0.28988 0.77319 0.0
C431 C 0.24105 0.29433 0.7911 0.0
C432 C 0.26805 0.29269 0.77126 0.0
C433 C 0.24021 0.32912 0.80908 0.0
C434 C 0.23895 0.26192 0.8109 0.0
C435 C 0.21397 0.24277 0.8055 0.0
C436 C 0.20821 0.21039 0.81937 0.0
C437 C 0.22885 0.19683 0.83888 0.0
C438 C 0.25478 0.21571 0.84435 0.0
C439 C 0.25958 0.24903 0.83068 0.0
H440 H 0.12569 0.90991 0.32536 0.0
H441 H 0.12518 0.83514 0.2521 0.0
H442 H 0.11806 0.88482 0.2176 0.0
H443 H 0.071 0.97119 0.29484 0.0
H444 H 0.08907 0.01042 0.30864 0.0
H445 H 0.09212 0.96869 0.32811 0.0
H446 H 0.14797 0.97283 0.32498 0.0
H447 H 0.1451 0.01443 0.30538 0.0
H448 H 0.16507 0.97779 0.28951 0.0
H449 H 0.11498 0.9423 0.19047 0.0
H450 H 0.11381 0.00449 0.17263 0.0
H451 H 0.11512 0.04251 0.26302 0.0
C452 C 0.12361 0.90394 0.30213 0.0
C453 C 0.12603 0.86852 0.29154 0.0
C454 C 0.12348 0.86197 0.26087 0.0
C455 C 0.11938 0.89003 0.24101 0.0
C456 C 0.11766 0.92459 0.25206 0.0
C457 C 0.11944 0.93173 0.28188 0.0
C458 C 0.11793 0.97157 0.2877 0.0
C459 C 0.09092 0.98101 0.3059 0.0
C460 C 0.14567 0.98493 0.30278 0.0
C461 C 0.11557 0.98558 0.25647 0.0
C462 C 0.11541 0.95798 0.23629 0.0
C463 C 0.11474 0.96418 0.20605 0.0
C464 C 0.1142 -0.0004 0.19613 0.0
C465 C 0.11421 0.02838 0.21639 0.0
C466 C 0.11473 0.02111 0.24697 0.0
H467 H 0.83249 0.42886 0.16748 0.0
H468 H 0.82157 0.34945 0.23633 0.0
H469 H 0.82425 0.39661 0.27387 0.0
H470 H 0.8832 0.48537 0.20791 0.0
H471 H 0.86815 0.52631 0.19379 0.0
H472 H 0.86653 0.48607 0.17206 0.0
H473 H 0.8109 0.49283 0.16802 0.0
H474 H 0.81234 0.53295 0.18986 0.0
H475 H 0.78951 0.4964 0.20113 0.0
H476 H 0.82572 0.45217 0.3041 0.0
H477 H 0.828 0.51291 0.3251 0.0
H478 H 0.83859 0.55655 0.23713 0.0
C479 C 0.83098 0.42134 0.19045 0.0
C480 C 0.8268 0.38535 0.19883 0.0
C481 C 0.82474 0.37676 0.2292 0.0
C482 C 0.82624 0.40338 0.2508 0.0
C483 C 0.82992 0.43855 0.2418 0.0
C484 C 0.83247 0.44765 0.21241 0.0
C485 C 0.8358 0.48768 0.20881 0.0
C486 C 0.86517 0.49689 0.19482 0.0
C487 C 0.81063 0.50338 0.1909 0.0
C488 C 0.83445 0.49953 0.24073 0.0
C489 C 0.83104 0.47074 0.25937 0.0
C490 C 0.82858 0.47496 0.28976 0.0
C491 C 0.82982 0.50958 0.30147 0.0
C492 C 0.83356 0.53954 0.28283 0.0
C493 C 0.83588 0.53424 0.25204 0.0
H494 H 0.28062 0.17904 0.98083 0.0
H495 H 0.29307 0.06772 0.95743 0.0
H496 H 0.25892 0.05007 -0.00304 0.0
H497 H 0.27227 0.16715 0.06025 0.0
H498 H 0.24476 0.20113 0.06275 0.0
H499 H 0.27238 0.2041 0.03484 0.0
H500 H 0.23269 0.20793 0.99473 0.0
H501 H 0.20496 0.2044 0.02243 0.0
H502 H 0.20588 0.17311 0.99225 0.0
H503 H 0.22157 0.04527 0.03814 0.0
H504 H 0.1847 0.05361 0.07716 0.0
H505 H 0.19514 0.16846 0.07063 0.0
C506 C 0.27676 0.15085 0.98441 0.0
C507 C 0.28982 0.12469 0.9663 0.0
C508 C 0.28355 0.08817 0.97127 0.0
C509 C 0.26413 0.07794 0.9936 0.0
C510 C 0.25102 0.10459 0.01052 0.0
C511 C 0.25718 0.1403 0.00616 0.0
C512 C 0.23904 0.16397 0.02593 0.0
C513 C 0.25826 0.18534 0.04721 0.0
C514 C 0.21949 0.1888 0.00774 0.0
C515 C 0.22151 0.13608 0.04206 0.0
C516 C 0.22886 0.10195 0.03311 0.0
C517 C 0.21567 0.07189 0.04526 0.0
C518 C 0.19471 0.07688 0.06734 0.0
C519 C 0.18688 0.11168 0.07673 0.0
C520 C 0.20038 0.14154 0.06367 0.0
H521 H 0.76708 0.39347 0.0305 0.0
H522 H 0.83124 0.31873 -0.00215 0.0
H523 H 0.80892 0.32095 0.94867 0.0
H524 H 0.70992 0.35554 -0.00272 0.0
H525 H 0.69044 0.39563 0.98787 0.0
H526 H 0.71501 0.39579 0.01848 0.0
H527 H 0.74336 0.44854 0.99562 0.0
H528 H 0.7185 0.44908 0.96508 0.0
H529 H 0.75681 0.445 0.95845 0.0
H530 H 0.77477 0.32055 0.90751 0.0
H531 H 0.73261 0.32155 0.87451 0.0
H532 H 0.68983 0.39762 0.932 0.0
C533 C 0.77722 0.37899 0.01259 0.0
C534 C 0.80112 0.35628 0.0178 0.0
C535 C 0.81314 0.33655 0.9942 0.0
C536 C 0.8006 0.33768 0.96619 0.0
C537 C 0.77612 0.35878 0.96212 0.0
C538 C 0.76474 0.37961 0.98447 0.0
C539 C 0.73622 0.39632 0.9752 0.0
C540 C 0.71145 0.38513 0.99594 0.0
C541 C 0.73889 0.43717 0.97348 0.0
C542 C 0.73263 0.38008 0.9448 0.0
C543 C 0.75614 0.35887 0.93768 0.0
C544 C 0.75662 0.33783 0.91242 0.0
C545 C 0.73248 0.33832 0.89397 0.0
C546 C 0.7082 0.35988 0.90067 0.0
C547 C 0.70845 0.38155 0.92613 0.0
H548 H 0.26951 0.8958 0.55438 0.0
H549 H 0.25975 0.79541 0.60098 0.0
H550 H 0.22003 0.77837 0.56771 0.0
H551 H 0.19276 0.90972 0.53607 0.0
H552 H 0.20059 0.92653 0.49974 0.0
H553 H 0.22617 0.93311 0.52918 0.0
H554 H 0.26626 0.90261 0.4981 0.0
H555 H 0.24093 0.89641 0.46852 0.0
H556 H 0.26003 0.85854 0.48337 0.0
H557 H 0.18326 0.77072 0.52884 0.0
H558 H 0.15613 0.7689 0.48231 0.0
H559 H 0.19065 0.87284 0.45868 0.0
C560 C 0.25873 0.87044 0.55769 0.0
C561 C 0.26751 0.84697 0.58031 0.0
C562 C 0.25337 0.81371 0.58371 0.0
C563 C 0.2306 0.80395 0.56513 0.0
C564 C 0.22238 0.82762 0.54307 0.0
C565 C 0.23625 0.85994 0.53891 0.0
C566 C 0.22505 0.87864 0.5116 0.0
C567 C 0.21026 0.91411 0.51964 0.0
C568 C 0.24952 0.88436 0.48907 0.0
C569 C 0.20323 0.8514 0.50079 0.0
C570 C 0.20162 0.8226 0.51973 0.0
C571 C 0.18415 0.79319 0.5139 0.0
C572 C 0.16878 0.79245 0.48742 0.0
C573 C 0.17122 0.82075 0.46689 0.0
C574 C 0.18798 0.85109 0.47414 0.0
H575 H 0.68993 0.69739 0.53438 0.0
H576 H 0.66771 0.58694 0.5522 0.0
H577 H 0.69934 0.56757 0.5112 0.0
H578 H 0.6947 0.69026 0.45468 0.0
H579 H 0.72522 0.72006 0.45228 0.0
H580 H 0.69939 0.72505 0.48173 0.0
H581 H 0.74085 0.71998 0.51983 0.0
H582 H 0.76676 0.71457 0.49052 0.0
H583 H 0.76419 0.68142 0.51915 0.0
H584 H 0.73394 0.56036 0.46853 0.0
H585 H 0.76898 0.56584 0.42758 0.0
H586 H 0.77046 0.6808 0.43963 0.0
C587 C 0.69133 0.66917 0.52934 0.0
C588 C 0.67613 0.64366 0.54625 0.0
C589 C 0.67903 0.60692 0.53939 0.0
C590 C 0.69697 0.59568 0.51619 0.0
C591 C 0.71207 0.6215 0.50029 0.0
C592 C 0.70945 0.65747 0.50658 0.0
C593 C 0.72889 0.67971 0.48696 0.0
C594 C 0.71098 0.70527 0.46777 0.0
C595 C 0.75151 0.70011 0.50521 0.0
C596 C 0.74285 0.65064 0.46861 0.0
C597 C 0.73275 0.61726 0.47651 0.0
C598 C 0.74207 0.58636 0.46222 0.0
C599 C 0.76201 0.58972 0.43904 0.0
C600 C 0.77261 0.62369 0.43059 0.0
C601 C 0.76303 0.65443 0.44582 0.0
H602 H 0.89517 0.20811 0.15827 0.0
H603 H 0.90916 0.2764 0.08241 0.0
H604 H 0.95802 0.25005 0.07597 0.0
H605 H 0.96341 0.21747 0.18794 0.0
H606 H 0.96552 0.1723 0.20145 0.0
H607 H 0.93089 0.19339 0.19721 0.0
H608 H 0.91413 0.14125 0.16366 0.0
H609 H 0.94891 0.1201 0.16763 0.0
H610 H 0.93504 0.12985 0.13145 0.0
H611 H 0.00735 0.21868 0.08087 0.0
H612 H 0.05236 0.19013 0.09906 0.0
H613 H 0.00447 0.14433 0.17188 0.0
C614 C 0.90819 0.21731 0.13994 0.0
C615 C 0.89822 0.24429 0.12077 0.0
C616 C 0.91628 0.25568 0.09735 0.0
C617 C 0.94399 0.24071 0.09344 0.0
C618 C 0.95317 0.21431 0.11303 0.0
C619 C 0.93566 0.20287 0.13584 0.0
C620 C 0.95101 0.17663 0.1556 0.0
C621 C 0.95282 0.19082 0.18741 0.0
C622 C 0.9364 0.13977 0.1545 0.0
C623 C 0.98033 0.17577 0.141 0.0
C624 C 0.98119 0.19701 0.11611 0.0
C625 C 0.00675 0.20167 0.10011 0.0
C626 C 0.03217 0.18521 0.11046 0.0
C627 C 0.03176 0.16499 0.13678 0.0
C628 C 0.00533 0.15947 0.15158 0.0
H629 H 0.95042 0.63483 0.32531 0.0
H630 H 0.91212 0.68266 0.40301 0.0
H631 H 0.9606 0.70346 0.41885 0.0
H632 H 0.02211 0.60976 0.35996 0.0
H633 H 0.04092 0.62027 0.32627 0.0
H634 H 0.00457 0.60294 0.32499 0.0
H635 H 0.9889 0.65766 0.29397 0.0
H636 H 0.02488 0.6755 0.29558 0.0
H637 H -0.00521 0.702 0.30829 0.0
H638 H 0.01158 0.72906 0.42034 0.0
H639 H 0.06048 0.75268 0.40953 0.0
H640 H 0.06437 0.68653 0.33107 0.0
C641 C 0.95242 0.6485 0.34624 0.0
C642 C 0.92773 0.65708 0.36305 0.0
C643 C 0.93095 0.6754 0.3901 0.0
C644 C 0.95836 0.68741 0.39915 0.0
C645 C 0.98219 0.68011 0.38117 0.0
C646 C 0.97947 0.6603 0.35559 0.0
C647 C 0.00748 0.65897 0.33846 0.0
C648 C 0.01948 0.62071 0.33737 0.0
C649 C 0.00376 0.67447 0.30726 0.0
C650 C 0.02605 0.68277 0.35745 0.0
C651 C 0.01137 0.69442 0.38221 0.0
C652 C 0.02349 0.71938 0.4014 0.0
C653 C 0.05121 0.73281 0.395 0.0
C654 C 0.06634 0.72138 0.3695 0.0
C655 C 0.05362 0.69558 0.35093 0.0
H656 H 0.54597 0.79091 0.65061 0.0
H657 H 0.53653 0.70782 0.58475 0.0
H658 H 0.49095 0.73624 0.56772 0.0
H659 H 0.47525 0.79555 0.67183 0.0
H660 H 0.47471 0.84322 0.67736 0.0
H661 H 0.50807 0.8191 0.68089 0.0
H662 H 0.53178 0.86022 0.64177 0.0
H663 H 0.49831 0.88447 0.63803 0.0
H664 H 0.51521 0.86484 0.60608 0.0
H665 H 0.44291 0.76953 0.56336 0.0
H666 H 0.39779 0.80352 0.57203 0.0
H667 H 0.44093 0.86539 0.63972 0.0
C668 C 0.53459 0.77888 0.63228 0.0
C669 C 0.54457 0.74703 0.6191 0.0
C670 C 0.5292 0.73229 0.59508 0.0
C671 C 0.5034 0.74832 0.58526 0.0
C672 C 0.49382 0.7794 0.59932 0.0
C673 C 0.50926 0.79467 0.6221 0.0
C674 C 0.49369 0.82639 0.63522 0.0
C675 C 0.48756 0.82069 0.66826 0.0
C676 C 0.51077 0.86103 0.62995 0.0
C677 C 0.46626 0.82572 0.6173 0.0
C678 C 0.46677 0.79884 0.59636 0.0
C679 C 0.44256 0.7911 0.57923 0.0
C680 C 0.41703 0.81058 0.58429 0.0
C681 C 0.41593 0.83727 0.60642 0.0
C682 C 0.4412 0.8456 0.62231 0.0
H683 H 0.86055 0.11175 0.70575 0.0
H684 H 0.89762 0.05701 0.63047 0.0
H685 H 0.90987 0.00549 0.66224 0.0
H686 H 0.90952 0.07635 0.76318 0.0
H687 H 0.88063 0.0715 0.78957 0.0
H688 H 0.87895 0.10621 0.76215 0.0
H689 H 0.82916 0.08253 0.74478 0.0
H690 H 0.83064 0.04791 0.77215 0.0
H691 H 0.8257 0.03639 0.73394 0.0
H692 H 0.91557 0.95903 0.70131 0.0
H693 H 0.90889 0.91758 0.74278 0.0
H694 H 0.86441 0.00056 0.79202 0.0
C695 C 0.87191 0.08923 0.69618 0.0
C696 C 0.87869 0.08844 0.66584 0.0
C697 C 0.89254 0.05812 0.65374 0.0
C698 C 0.89971 0.02891 0.67165 0.0
C699 C 0.89245 0.03032 0.70147 0.0
C700 C 0.87852 0.05952 0.71359 0.0
C701 C 0.86992 0.05255 0.74531 0.0
C702 C 0.8857 0.07818 0.76629 0.0
C703 C 0.8369 0.05497 0.74926 0.0
C704 C 0.88063 0.01457 0.74898 0.0
C705 C 0.89423 0.00266 0.72366 0.0
C706 C 0.90511 0.96812 0.7213 0.0
C707 C 0.90124 0.94478 0.74506 0.0
C708 C 0.88611 0.95579 0.77071 0.0
C709 C 0.87626 0.99144 0.77285 0.0
H710 H 0.14572 0.60372 0.779 0.0
H711 H 0.09509 0.55768 0.84982 0.0
H712 H 0.08142 0.50729 0.81727 0.0
H713 H 0.10058 0.57448 0.71653 0.0
H714 H 0.13152 0.56431 0.69382 0.0
H715 H 0.1337 0.59929 0.72103 0.0
H716 H 0.17825 0.56848 0.74447 0.0
H717 H 0.17631 0.53361 0.71728 0.0
H718 H 0.17559 0.52249 0.75588 0.0
H719 H 0.07518 0.46091 0.77782 0.0
H720 H 0.08225 0.41757 0.73756 0.0
H721 H 0.14049 0.49145 0.69388 0.0
C722 C 0.13123 0.58339 0.78738 0.0
C723 C 0.12097 0.58472 0.81667 0.0
C724 C 0.10291 0.55714 0.82733 0.0
C725 C 0.09492 0.52864 0.80895 0.0
C726 C 0.10557 0.52795 0.78018 0.0
C727 C 0.12369 0.55434 0.7696 0.0
C728 C 0.13505 0.54516 0.73919 0.0
C729 C 0.12458 0.57244 0.71629 0.0
C730 C 0.16826 0.54225 0.73923 0.0
C731 C 0.12094 0.50912 0.73451 0.0
C732 C 0.10341 0.50015 0.75807 0.0
C733 C 0.08874 0.46772 0.7592 0.0
C734 C 0.09282 0.44331 0.73613 0.0
C735 C 0.11192 0.45113 0.71255 0.0
C736 C 0.12561 0.48483 0.71149 0.0
H737 H 0.72534 0.79757 0.02871 0.0
H738 H 0.70234 0.90868 0.04278 0.0
H739 H 0.73275 0.9258 1e-05 0.0
H740 H 0.79908 0.81215 0.00752 0.0
H741 H 0.79876 0.77688 0.98048 0.0
H742 H 0.77568 0.7741 0.01237 0.0
H743 H 0.73086 0.7667 0.97862 0.0
H744 H 0.75381 0.76926 0.94666 0.0
H745 H 0.72378 0.7996 0.95059 0.0
H746 H 0.76647 0.92991 0.95472 0.0
H747 H 0.79738 0.92007 0.91066 0.0
H748 H 0.79658 0.80613 0.92798 0.0
C749 C 0.72663 0.82559 0.02297 0.0
C750 C 0.71146 0.85179 0.03919 0.0
C751 C 0.71374 0.8881 0.03067 0.0
C752 C 0.73104 0.89807 0.00648 0.0
C753 C 0.74584 0.87141 0.9911 0.0
C754 C 0.7436 0.8359 -0.00094 0.0
C755 C 0.76091 0.81201 0.97886 0.0
C756 C 0.78504 0.79266 0.99583 0.0
C757 C 0.74116 0.78534 0.96273 0.0
C758 C 0.77317 0.83948 0.95802 0.0
C759 C 0.76456 0.87368 0.96538 0.0
C760 C 0.77331 0.9032 0.94882 0.0
C761 C 0.79093 0.8974 0.92391 0.0
C762 C 0.79931 0.86234 0.91578 0.0
C763 C 0.79047 0.83328 0.93341 0.0
H764 H 0.19421 0.71266 0.98916 0.0
H765 H 0.20576 0.60807 0.94992 0.0
H766 H 0.23546 0.58969 0.99278 0.0
H767 H 0.26303 0.72374 0.01316 0.0
H768 H 0.25397 0.74643 0.04697 0.0
H769 H 0.22985 0.74882 0.01609 0.0
H770 H 0.18793 0.72405 0.0481 0.0
H771 H 0.21189 0.72197 0.07931 0.0
H772 H 0.19266 0.68258 0.06762 0.0
H773 H 0.27031 0.58685 0.03662 0.0
H774 H 0.30419 0.59871 0.07774 0.0
H775 H 0.26792 0.70502 0.08732 0.0
C776 C 0.20233 0.68554 0.98993 0.0
C777 C 0.19774 0.66175 0.96633 0.0
C778 C 0.20881 0.62656 0.968 0.0
C779 C 0.22575 0.61597 0.9922 0.0
C780 C 0.23083 0.64072 0.01465 0.0
C781 C 0.21892 0.67459 0.01386 0.0
C782 C 0.22918 0.69735 0.03923 0.0
C783 C 0.24495 0.73104 0.02819 0.0
C784 C 0.20391 0.70704 0.05978 0.0
C785 C 0.24977 0.67165 0.05382 0.0
C786 C 0.25034 0.63895 0.03969 0.0
C787 C 0.26958 0.61213 0.04817 0.0
C788 C 0.2888 0.61913 0.07149 0.0
C789 C 0.28871 0.65277 0.08584 0.0
C790 C 0.26851 0.67891 0.07705 0.0
H791 H 0.72287 0.20793 0.40087 0.0
H792 H 0.68314 0.10421 0.41407 0.0
H793 H 0.71717 0.09248 0.45514 0.0
H794 H 0.79759 0.18268 0.42042 0.0
H795 H 0.80371 0.22498 0.43835 0.0
H796 H 0.77933 0.22221 0.40752 0.0
H797 H 0.73858 0.25042 0.43926 0.0
H798 H 0.76272 0.25318 0.47011 0.0
H799 H 0.72881 0.22987 0.47376 0.0
H800 H 0.75281 0.09576 0.49869 0.0
H801 H 0.78436 0.11451 0.54016 0.0
H802 H 0.79849 0.21638 0.49726 0.0
C803 C 0.72156 0.18236 0.41191 0.0
C804 C 0.70031 0.15698 0.40421 0.0
C805 C 0.69936 0.124 0.41946 0.0
C806 C 0.71863 0.11712 0.44279 0.0
C807 C 0.73881 0.14334 0.4503 0.0
C808 C 0.74038 0.17522 0.43506 0.0
C809 C 0.76188 0.20062 0.44868 0.0
C810 C 0.78713 0.20804 0.42748 0.0
C811 C 0.7471 0.23555 0.45854 0.0
C812 C 0.77158 0.17869 0.47468 0.0
C813 C 0.75858 0.14544 0.47515 0.0
C814 C 0.76334 0.12156 0.49826 0.0
C815 C 0.78132 0.13235 0.52167 0.0
C816 C 0.79376 0.1669 0.52188 0.0
C817 C 0.78926 0.1898 0.49772 0.0
H818 H 0.22289 0.29588 0.57655 0.0
H819 H 0.20215 0.40875 0.58207 0.0
H820 H 0.23157 0.41976 0.53728 0.0
H821 H 0.29671 0.30528 0.54873 0.0
H822 H 0.29319 0.26677 0.52515 0.0
H823 H 0.27316 0.26905 0.55917 0.0
H824 H 0.22538 0.25892 0.53052 0.0
H825 H 0.2452 0.25674 0.49647 0.0
H826 H 0.21617 0.28848 0.50066 0.0
H827 H 0.26129 0.41692 0.48926 0.0
H828 H 0.28648 0.40017 0.44291 0.0
H829 H 0.28551 0.28917 0.47012 0.0
C830 C 0.22481 0.3231 0.56876 0.0
C831 C 0.21026 0.35147 0.58296 0.0
C832 C 0.21321 0.38657 0.57166 0.0
C833 C 0.22991 0.39308 0.54626 0.0
C834 C 0.24352 0.36422 0.53253 0.0
C835 C 0.24111 0.32996 0.54356 0.0
C836 C 0.25601 0.30298 0.52401 0.0
C837 C 0.28127 0.28497 0.54024 0.0
C838 C 0.23439 0.27516 0.51222 0.0
C839 C 0.26675 0.32718 0.49982 0.0
C840 C 0.25979 0.3625 0.50512 0.0
C841 C 0.26699 0.38934 0.48506 0.0
C842 C 0.28131 0.37963 0.45883 0.0
C843 C 0.28783 0.34337 0.45285 0.0
C844 C 0.28073 0.31712 0.47392 0.0
H845 H 0.05399 0.70753 0.87595 0.0
H846 H 0.08703 0.80493 0.91565 0.0
H847 H 0.03844 0.83145 0.91351 0.0
H848 H 0.00847 0.74825 0.82554 0.0
H849 H 0.97952 0.71619 0.82828 0.0
H850 H 0.01608 0.70279 0.83605 0.0
H851 H 0.00046 0.68051 0.88767 0.0
H852 H 0.96371 0.69354 0.87997 0.0
H853 H 0.98172 0.71047 0.91227 0.0
H854 H 0.98841 0.85034 0.9015 0.0
H855 H 0.93856 0.85878 0.88347 0.0
H856 H 0.93707 0.74882 0.8531 0.0
C857 C 0.05088 0.73411 0.88483 0.0
C858 C 0.07438 0.75411 0.89593 0.0
C859 C 0.06943 0.78902 0.907 0.0
C860 C 0.04187 0.80436 0.90595 0.0
C861 C 0.01939 0.78437 0.89407 0.0
C862 C 0.02342 0.74984 0.88407 0.0
C863 C -0.00413 0.73498 0.87084 0.0
C864 C 0.00027 0.72498 0.83825 0.0
C865 C 0.98478 0.70298 0.88876 0.0
C866 C 0.97607 0.76697 0.87415 0.0
C867 C -0.00993 0.79511 0.88771 0.0
C868 C 0.97699 0.82833 0.89134 0.0
C869 C 0.94877 0.83293 0.88088 0.0
C870 C 0.93393 0.80439 0.86711 0.0
C871 C 0.94773 0.77093 0.86399 0.0
H872 H 0.06313 0.24327 0.62093 0.0
H873 H 0.06335 0.35403 0.59303 0.0
H874 H 0.01438 0.34617 0.57212 0.0
H875 H 0.01928 0.20607 0.55936 0.0
H876 H 0.00019 0.17615 0.58363 0.0
H877 H 0.03703 0.18857 0.59158 0.0
H878 H 0.0214 0.21068 0.64333 0.0
H879 H 0.98465 0.1983 0.63557 0.0
H880 H -0.00702 0.24345 0.64645 0.0
H881 H 0.9643 0.32801 0.55861 0.0
H882 H 0.91503 0.30342 0.55789 0.0
H883 H 0.94652 0.2051 0.5971 0.0
C884 C 0.05319 0.26561 0.60969 0.0
C885 C 0.06709 0.29914 0.60818 0.0
C886 C 0.05307 0.32808 0.59421 0.0
C887 C 0.0254 0.32377 0.58211 0.0
C888 C 0.0121 0.29044 0.58437 0.0
C889 C 0.02546 0.26191 0.598 0.0
C890 C 0.00518 0.23035 0.60096 0.0
C891 C 0.01607 0.1984 0.58279 0.0
C892 C 0.00079 0.22013 0.6335 0.0
C893 C 0.97796 0.24599 0.58779 0.0
C894 C 0.98266 0.28033 0.57766 0.0
C895 C 0.96042 0.30104 0.56619 0.0
C896 C 0.93245 0.28677 0.56593 0.0
C897 C 0.92683 0.2523 0.57755 0.0
C898 C 0.95011 0.23134 0.58781 0.0
H899 H 0.53022 0.17406 0.37178 0.0
H900 H 0.5691 0.26697 0.41297 0.0
H901 H 0.52094 0.28777 0.42839 0.0
H902 H 0.47493 0.21661 0.34038 0.0
H903 H 0.44758 0.18292 0.34567 0.0
H904 H 0.48501 0.17031 0.3441 0.0
H905 H 0.48083 0.13983 0.3951 0.0
H906 H 0.44311 0.15192 0.3967 0.0
H907 H 0.46711 0.16482 0.42607 0.0
H908 H 0.46964 0.30551 0.42903 0.0
H909 H 0.41802 0.31633 0.41848 0.0
H910 H 0.41143 0.2113 0.3788 0.0
C911 C 0.52868 0.19795 0.38514 0.0
C912 C 0.55339 0.21887 0.39118 0.0
C913 C 0.55046 0.2505 0.40807 0.0
C914 C 0.52318 0.26248 0.41706 0.0
C915 C 0.49908 0.2423 0.40936 0.0
C916 C 0.50154 0.21032 0.39428 0.0
C917 C 0.4721 0.19608 0.38556 0.0
C918 C 0.46979 0.19123 0.35195 0.0
C919 C 0.46539 0.16108 0.40184 0.0
C920 C 0.45295 0.22617 0.39641 0.0
C921 C 0.46892 0.25231 0.41047 0.0
C922 C 0.45671 0.28477 0.41895 0.0
C923 C 0.42748 0.29081 0.41268 0.0
C924 C 0.41082 0.26443 0.39823 0.0
C925 C 0.42357 0.23145 0.39063 0.0
H926 H 0.62343 0.6042 0.73992 0.0
H927 H 0.57873 0.57539 0.65943 0.0
H928 H 0.56619 0.51681 0.68087 0.0
H929 H 0.65585 0.52048 0.75007 0.0
H930 H 0.6535 0.52082 0.78969 0.0
H931 H 0.65537 0.56228 0.76982 0.0
H932 H 0.6079 0.58318 0.79491 0.0
H933 H 0.6058 0.54158 0.81474 0.0
H934 H 0.57593 0.55584 0.79218 0.0
H935 H 0.56107 0.46066 0.70924 0.0
H936 H 0.56828 0.40763 0.74019 0.0
H937 H 0.61859 0.47092 0.8018 0.0
C938 C 0.61051 0.58577 0.7271 0.0
C939 C 0.60173 0.59436 0.69816 0.0
C940 C 0.58557 0.56928 0.68167 0.0
C941 C 0.57816 0.53611 0.69374 0.0
C942 C 0.58731 0.5283 0.72224 0.0
C943 C 0.6034 0.55219 0.73863 0.0
C944 C 0.61323 0.53557 0.76739 0.0
C945 C 0.64645 0.53473 0.76934 0.0
C946 C 0.59991 0.55522 0.79387 0.0
C947 C 0.60074 0.49832 0.76424 0.0
C948 C 0.58532 0.49507 0.73831 0.0
C949 C 0.57292 0.4629 0.72969 0.0
C950 C 0.57717 0.43289 0.74747 0.0
C951 C 0.59404 0.43502 0.77347 0.0
C952 C 0.60527 0.46848 0.78232 0.0
H953 H 0.35589 0.06608 0.81829 0.0
H954 H 0.35012 0.15661 0.75876 0.0
H955 H 0.35392 0.11621 0.71644 0.0
H956 H 0.40779 0.01414 0.7722 0.0
H957 H 0.3911 0.97204 0.78123 0.0
H958 H 0.39042 0.00824 0.80743 0.0
H959 H 0.33457 0.00392 0.81016 0.0
H960 H 0.33507 0.96783 0.78396 0.0
H961 H 0.31371 0.00712 0.77676 0.0
H962 H 0.35141 0.06657 0.68059 0.0
H963 H 0.34699 0.00972 0.65318 0.0
H964 H 0.35836 0.95073 0.73439 0.0
C965 C 0.35595 0.07743 0.79638 0.0
C966 C 0.35264 0.11463 0.79203 0.0
C967 C 0.35265 0.1283 0.76289 0.0
C968 C 0.35483 0.10556 0.73856 0.0
C969 C 0.35747 0.0691 0.74354 0.0
C970 C 0.3585 0.05502 0.77165 0.0
C971 C 0.3604 0.01457 0.77058 0.0
C972 C 0.38915 0.00148 0.78364 0.0
C973 C 0.33439 0.99736 0.78629 0.0
C974 C 0.3593 0.00826 0.73757 0.0
C975 C 0.35758 0.04018 0.72244 0.0
C976 C 0.3535 0.04139 0.69205 0.0
C977 C 0.35095 0.00908 0.67668 0.0
C978 C 0.35301 0.97614 0.69165 0.0
C979 C 0.35765 0.9757 0.72239 0.0
H980 H 0.43756 0.18639 0.86761 0.0
H981 H 0.40662 0.2731 0.92209 0.0
H982 H 0.45669 0.29576 0.9272 0.0
H983 H 0.51362 0.1776 0.9011 0.0
H984 H 0.52879 0.16999 0.86504 0.0
H985 H 0.49281 0.15445 0.8735 0.0
H986 H 0.47303 0.18926 0.82857 0.0
H987 H 0.50866 0.2052 0.82019 0.0
H988 H 0.47963 0.23661 0.82588 0.0
H989 H 0.50772 0.31537 0.9182 0.0
H990 H 0.55359 0.33208 0.8937 0.0
H991 H 0.55027 0.23456 0.84231 0.0
C992 C 0.44176 0.2089 0.88199 0.0
C993 C 0.41875 0.22736 0.89541 0.0
C994 C 0.42434 0.25808 0.91254 0.0
C995 C 0.45267 0.27106 0.9155 0.0
C996 C 0.47498 0.25315 0.90091 0.0
C997 C 0.4698 0.22255 0.88455 0.0
C998 C 0.49602 0.21213 0.86649 0.0
C999 C 0.50855 0.17642 0.87719 0.0
C1000 C 0.48889 0.21076 0.83335 0.0
C1001 C 0.51609 0.24278 0.87373 0.0
C1002 C 0.50405 0.26551 0.8944 0.0
C1003 C 0.51761 0.29736 0.90249 0.0
C1004 C 0.54366 0.30666 0.88848 0.0
C1005 C 0.55539 0.2846 0.86614 0.0
C1006 C 0.54183 0.25182 0.85945 0.0
H1007 H 0.38434 0.57515 0.241 0.0
H1008 H 0.39961 0.51472 0.16108 0.0
H1009 H 0.40215 0.45895 0.19034 0.0
H1010 H 0.42677 0.51885 0.2932 0.0
H1011 H 0.39983 0.52346 0.32168 0.0
H1012 H 0.40536 0.559 0.29552 0.0
H1013 H 0.35102 0.5569 0.28183 0.0
H1014 H 0.34534 0.52131 0.30773 0.0
H1015 H 0.33535 0.51534 0.26969 0.0
H1016 H 0.39891 0.4098 0.22757 0.0
H1017 H 0.38511 0.37002 0.26841 0.0
H1018 H 0.36684 0.46222 0.32339 0.0
C1019 C 0.38932 0.55029 0.22987 0.0
C1020 C 0.39265 0.5491 0.19897 0.0
C1021 C 0.39761 0.51604 0.18482 0.0
C1022 C 0.39914 0.48437 0.20128 0.0
C1023 C 0.39509 0.48631 0.23172 0.0
C1024 C 0.39 0.51842 0.24584 0.0
C1025 C 0.38207 0.51279 0.27791 0.0
C1026 C 0.40487 0.52952 0.29828 0.0
C1027 C 0.35164 0.52744 0.28466 0.0
C1028 C 0.3828 0.47243 0.27951 0.0
C1029 C 0.39114 0.45776 0.25284 0.0
C1030 C 0.39256 0.42099 0.24859 0.0
C1031 C 0.38469 0.39862 0.27198 0.0
C1032 C 0.37487 0.41304 0.2991 0.0
C1033 C 0.37437 0.45045 0.30297 0.0
H1034 H 0.61603 0.02397 0.30168 0.0
H1035 H 0.56945 0.1044 0.25204 0.0
H1036 H 0.56635 0.06329 0.20976 0.0
H1037 H 0.65852 0.99294 0.24611 0.0
H1038 H 0.65713 0.94627 0.25567 0.0
H1039 H 0.652 0.97964 0.28369 0.0
H1040 H 0.60255 0.95191 0.29773 0.0
H1041 H 0.60772 0.91796 0.27004 0.0
H1042 H 0.57557 0.94518 0.26966 0.0
H1043 H 0.5774 0.01862 0.16988 0.0
H1044 H 0.59449 0.96895 0.13805 0.0
H1045 H 0.62932 0.91536 0.21469 0.0
C1046 C 0.6043 0.03243 0.28228 0.0
C1047 C 0.59297 0.06734 0.28017 0.0
C1048 C 0.57807 0.07765 0.25428 0.0
C1049 C 0.5763 0.05453 0.23006 0.0
C1050 C 0.58885 0.02085 0.23234 0.0
C1051 C 0.60177 0.00938 0.25811 0.0
C1052 C 0.61475 0.97253 0.25437 0.0
C1053 C 0.64753 0.97291 0.2603 0.0
C1054 C 0.59921 0.94528 0.27412 0.0
C1055 C 0.60833 0.96586 0.22215 0.0
C1056 C 0.59348 0.99409 0.20975 0.0
C1057 C 0.58818 0.9958 0.17951 0.0
C1058 C 0.59809 0.96772 0.16159 0.0
C1059 C 0.61259 0.93823 0.17412 0.0
C1060 C 0.61748 0.93721 0.20477 0.0
H1061 H 0.5772 0.72132 0.10717 0.0
H1062 H 0.56415 0.82675 0.07014 0.0
H1063 H 0.51227 0.8134 0.06342 0.0
H1064 H 0.5199 0.6728 0.06333 0.0
H1065 H 0.5096 0.6464 0.09482 0.0
H1066 H 0.54657 0.66084 0.09049 0.0
H1067 H 0.5448 0.69014 0.14218 0.0
H1068 H 0.50795 0.67596 0.14661 0.0
H1069 H 0.51704 0.72257 0.15024 0.0
H1070 H 0.46174 0.79267 0.06736 0.0
H1071 H 0.41543 0.7679 0.08445 0.0
H1072 H 0.46042 0.67643 0.12108 0.0
C1073 C 0.56357 0.74103 0.09662 0.0
C1074 C 0.57462 0.77484 0.08871 0.0
C1075 C 0.55605 0.80058 0.07608 0.0
C1076 C 0.52664 0.79313 0.07201 0.0
C1077 C 0.51618 0.7599 0.08085 0.0
C1078 C 0.53406 0.73423 0.09295 0.0
C1079 C 0.51676 0.70291 0.10467 0.0
C1080 C 0.52362 0.66871 0.08728 0.0
C1081 C 0.52194 0.69762 0.13788 0.0
C1082 C 0.48631 0.71575 0.09854 0.0
C1083 C 0.48655 0.74823 0.08407 0.0
C1084 C 0.46123 0.76697 0.07823 0.0
C1085 C 0.43503 0.75272 0.08817 0.0
C1086 C 0.43431 0.7202 0.1041 0.0
C1087 C 0.46023 0.701 0.10853 0.0
loop_
_geom_bond_atom_site_label_1
_geom_bond_atom_site_label_2
_geom_bond_distance
_geom_bond_site_symmetry_2
_ccdc_geom_bond_type
C0 O1 1.306 . S
C0 O3 1.160 . S
O1 C0 1.306 . S
O1 Cd2 2.228 . S
Cd2 O1 2.228 . S
Cd2 O6 2.273 . S
Cd2 O10 2.277 . S
O3 C0 1.160 . S
O3 Cd4 2.203 . S
Cd4 O3 2.203 . S
Cd4 O6 2.411 . S
Cd4 O7 2.333 . S
Cd4 O8 2.352 . S
Cd4 O12 2.277 . S
Cd4 O13 2.356 . S
C5 O10 1.209 . S
C5 O12 1.226 . S
O6 Cd2 2.273 . S
O6 Cd4 2.411 . S
O6 C9 1.320 . S
O7 Cd4 2.333 . S
O7 C9 1.214 . S
O8 Cd4 2.352 . S
O8 C11 1.258 . S
C9 O6 1.320 . S
C9 O7 1.214 . S
O10 Cd2 2.277 . S
O10 C5 1.209 . S
C11 O8 1.258 . S
C11 O13 1.282 . S
O12 Cd4 2.277 . S
O12 C5 1.226 . S
O13 Cd4 2.356 . S
O13 C11 1.282 . S
C14 O15 1.306 . S
C14 O17 1.160 . S
O15 C14 1.306 . S
O15 Cd16 2.228 . S
Cd16 O15 2.228 . S
Cd16 O20 2.273 . S
Cd16 O24 2.277 . S
O17 C14 1.160 . S
O17 Cd18 2.203 . S
Cd18 O17 2.203 . S
Cd18 O20 2.411 . S
Cd18 O21 2.333 . S
Cd18 O22 2.352 . S
Cd18 O26 2.277 . S
Cd18 O27 2.356 . S
C19 O24 1.209 . S
C19 O26 1.226 . S
O20 Cd16 2.273 . S
O20 Cd18 2.411 . S
O20 C23 1.320 . S
O21 Cd18 2.333 . S
O21 C23 1.214 . S
O22 Cd18 2.352 . S
O22 C25 1.258 . S
C23 O20 1.320 . S
C23 O21 1.214 . S
O24 Cd16 2.277 . S
O24 C19 1.209 . S
C25 O22 1.258 . S
C25 O27 1.282 . S
O26 Cd18 2.277 . S
O26 C19 1.226 . S
O27 Cd18 2.356 . S
O27 C25 1.282 . S
C28 O29 1.306 . S
C28 O31 1.160 . S
O29 C28 1.306 . S
O29 Cd30 2.228 . S
Cd30 O29 2.228 . S
Cd30 O34 2.273 . S
Cd30 O38 2.277 . S
O31 C28 1.160 . S
O31 Cd32 2.203 . S
Cd32 O31 2.203 . S
Cd32 O34 2.411 . S
Cd32 O35 2.333 . S
Cd32 O36 2.352 . S
Cd32 O40 2.277 . S
Cd32 O41 2.356 . S
C33 O38 1.209 . S
C33 O40 1.226 . S
O34 Cd30 2.273 . S
O34 Cd32 2.411 . S
O34 C37 1.320 . S
O35 Cd32 2.333 . S
O35 C37 1.214 . S
O36 Cd32 2.352 . S
O36 C39 1.258 . S
C37 O34 1.320 . S
C37 O35 1.214 . S
O38 Cd30 2.277 . S
O38 C33 1.209 . S
C39 O36 1.258 . S
C39 O41 1.282 . S
O40 Cd32 2.277 . S
O40 C33 1.226 . S
O41 Cd32 2.356 . S
O41 C39 1.282 . S
C42 O43 1.306 . S
C42 O45 1.160 . S
O43 C42 1.306 . S
O43 Cd44 2.228 . S
Cd44 O43 2.228 . S
Cd44 O48 2.273 . S
Cd44 O52 2.277 . S
O45 C42 1.160 . S
O45 Cd46 2.203 . S
Cd46 O45 2.203 . S
Cd46 O48 2.411 . S
Cd46 O49 2.333 . S
Cd46 O50 2.352 . S
Cd46 O54 2.277 . S
Cd46 O55 2.356 . S
C47 O52 1.209 . S
C47 O54 1.226 . S
O48 Cd44 2.273 . S
O48 Cd46 2.411 . S
O48 C51 1.320 . S
O49 Cd46 2.333 . S
O49 C51 1.214 . S
O50 Cd46 2.352 . S
O50 C53 1.258 . S
C51 O48 1.320 . S
C51 O49 1.214 . S
O52 Cd44 2.277 . S
O52 C47 1.209 . S
C53 O50 1.258 . S
C53 O55 1.282 . S
O54 Cd46 2.277 . S
O54 C47 1.226 . S
O55 Cd46 2.356 . S
O55 C53 1.282 . S
C56 O57 1.306 . S
C56 O59 1.160 . S
O57 C56 1.306 . S
O57 Cd58 2.228 . S
Cd58 O57 2.228 . S
Cd58 O62 2.273 . S
Cd58 O66 2.277 . S
O59 C56 1.160 . S
O59 Cd60 2.203 . S
Cd60 O59 2.203 . S
Cd60 O62 2.411 . S
Cd60 O63 2.333 . S
Cd60 O64 2.352 . S
Cd60 O68 2.277 . S
Cd60 O69 2.356 . S
C61 O66 1.209 . S
C61 O68 1.226 . S
O62 Cd58 2.273 . S
O62 Cd60 2.411 . S
O62 C65 1.320 . S
O63 Cd60 2.333 . S
O63 C65 1.214 . S
O64 Cd60 2.352 . S
O64 C67 1.258 . S
C65 O62 1.320 . S
C65 O63 1.214 . S
O66 Cd58 2.277 . S
O66 C61 1.209 . S
C67 O64 1.258 . S
C67 O69 1.282 . S
O68 Cd60 2.277 . S
O68 C61 1.226 . S
O69 Cd60 2.356 . S
O69 C67 1.282 . S
C70 O71 1.306 . S
C70 O73 1.160 . S
O71 C70 1.306 . S
O71 Cd72 2.228 . S
Cd72 O71 2.228 . S
Cd72 O76 2.273 . S
Cd72 O80 2.277 . S
O73 C70 1.160 . S
O73 Cd74 2.203 . S
Cd74 O73 2.203 . S
Cd74 O76 2.411 . S
Cd74 O77 2.333 . S
Cd74 O78 2.352 . S
Cd74 O82 2.277 . S
Cd74 O83 2.356 . S
C75 O80 1.209 . S
C75 O82 1.226 . S
O76 Cd72 2.273 . S
O76 Cd74 2.411 . S
O76 C79 1.320 . S
O77 Cd74 2.333 . S
O77 C79 1.214 . S
O78 Cd74 2.352 . S
O78 C81 1.258 . S
C79 O76 1.320 . S
C79 O77 1.214 . S
O80 Cd72 2.277 . S
O80 C75 1.209 . S
C81 O78 1.258 . S
C81 O83 1.282 . S
O82 Cd74 2.277 . S
O82 C75 1.226 . S
O83 Cd74 2.356 . S
O83 C81 1.282 . S
C84 O85 1.306 . S
C84 O87 1.160 . S
O85 C84 1.306 . S
O85 Cd86 2.228 . S
Cd86 O85 2.228 . S
Cd86 O90 2.273 . S
Cd86 O94 2.277 . S
O87 C84 1.160 . S
O87 Cd88 2.203 . S
Cd88 O87 2.203 . S
Cd88 O90 2.411 . S
Cd88 O91 2.333 . S
Cd88 O92 2.352 . S
Cd88 O96 2.277 . S
Cd88 O97 2.356 . S
C89 O94 1.209 . S
C89 O96 1.226 . S
O90 Cd86 2.273 . S
O90 Cd88 2.411 . S
O90 C93 1.320 . S
O91 Cd88 2.333 . S
O91 C93 1.214 . S
O92 Cd88 2.352 . S
O92 C95 1.258 . S
C93 O90 1.320 . S
C93 O91 1.214 . S
O94 Cd86 2.277 . S
O94 C89 1.209 . S
C95 O92 1.258 . S
C95 O97 1.282 . S
O96 Cd88 2.277 . S
O96 C89 1.226 . S
O97 Cd88 2.356 . S
O97 C95 1.282 . S
C98 O99 1.306 . S
C98 O101 1.160 . S
O99 C98 1.306 . S
O99 Cd100 2.228 . S
Cd100 O99 2.228 . S
Cd100 O104 2.273 . S
Cd100 O108 2.277 . S
O101 C98 1.160 . S
O101 Cd102 2.203 . S
Cd102 O101 2.203 . S
Cd102 O104 2.411 . S
Cd102 O105 2.333 . S
Cd102 O106 2.352 . S
Cd102 O110 2.277 . S
Cd102 O111 2.356 . S
C103 O108 1.209 . S
C103 O110 1.226 . S
O104 Cd100 2.273 . S
O104 Cd102 2.411 . S
O104 C107 1.320 . S
O105 Cd102 2.333 . S
O105 C107 1.214 . S
O106 Cd102 2.352 . S
O106 C109 1.258 . S
C107 O104 1.320 . S
C107 O105 1.214 . S
O108 Cd100 2.277 . S
O108 C103 1.209 . S
C109 O106 1.258 . S
C109 O111 1.282 . S
O110 Cd102 2.277 . S
O110 C103 1.226 . S
O111 Cd102 2.356 . S
O111 C109 1.282 . S
C112 O113 1.306 . S
C112 O115 1.160 . S
O113 C112 1.306 . S
O113 Cd114 2.228 . S
Cd114 O113 2.228 . S
Cd114 O118 2.273 . S
Cd114 O122 2.277 . S
O115 C112 1.160 . S
O115 Cd116 2.203 . S
Cd116 O115 2.203 . S
Cd116 O118 2.411 . S
Cd116 O119 2.333 . S
Cd116 O120 2.352 . S
Cd116 O124 2.277 . S
Cd116 O125 2.356 . S
C117 O122 1.209 . S
C117 O124 1.226 . S
O118 Cd114 2.273 . S
O118 Cd116 2.411 . S
O118 C121 1.320 . S
O119 Cd116 2.333 . S
O119 C121 1.214 . S
O120 Cd116 2.352 . S
O120 C123 1.258 . S
C121 O118 1.320 . S
C121 O119 1.214 . S
O122 Cd114 2.277 . S
O122 C117 1.209 . S
C123 O120 1.258 . S
C123 O125 1.282 . S
O124 Cd116 2.277 . S
O124 C117 1.226 . S
O125 Cd116 2.356 . S
O125 C123 1.282 . S
C126 O127 1.306 . S
C126 O129 1.160 . S
O127 C126 1.306 . S
O127 Cd128 2.228 . S
Cd128 O127 2.228 . S
Cd128 O132 2.273 . S
Cd128 O136 2.277 . S
O129 C126 1.160 . S
O129 Cd130 2.203 . S
Cd130 O129 2.203 . S
Cd130 O132 2.411 . S
Cd130 O133 2.333 . S
Cd130 O134 2.352 . S
Cd130 O138 2.277 . S
Cd130 O139 2.356 . S
C131 O136 1.209 . S
C131 O138 1.226 . S
O132 Cd128 2.273 . S
O132 Cd130 2.411 . S
O132 C135 1.320 . S
O133 Cd130 2.333 . S
O133 C135 1.214 . S
O134 Cd130 2.352 . S
O134 C137 1.258 . S
C135 O132 1.320 . S
C135 O133 1.214 . S
O136 Cd128 2.277 . S
O136 C131 1.209 . S
C137 O134 1.258 . S
C137 O139 1.282 . S
O138 Cd130 2.277 . S
O138 C131 1.226 . S
O139 Cd130 2.356 . S
O139 C137 1.282 . S
C140 O141 1.306 . S
C140 O143 1.160 . S
O141 C140 1.306 . S
O141 Cd142 2.228 . S
Cd142 O141 2.228 . S
Cd142 O146 2.273 . S
Cd142 O150 2.277 . S
O143 C140 1.160 . S
O143 Cd144 2.203 . S
Cd144 O143 2.203 . S
Cd144 O146 2.411 . S
Cd144 O147 2.333 . S
Cd144 O148 2.352 . S
Cd144 O152 2.277 . S
Cd144 O153 2.356 . S
C145 O150 1.209 . S
C145 O152 1.226 . S
O146 Cd142 2.273 . S
O146 Cd144 2.411 . S
O146 C149 1.320 . S
O147 Cd144 2.333 . S
O147 C149 1.214 . S
O148 Cd144 2.352 . S
O148 C151 1.258 . S
C149 O146 1.320 . S
C149 O147 1.214 . S
O150 Cd142 2.277 . S
O150 C145 1.209 . S
C151 O148 1.258 . S
C151 O153 1.282 . S
O152 Cd144 2.277 . S
O152 C145 1.226 . S
O153 Cd144 2.356 . S
O153 C151 1.282 . S
C154 O155 1.306 . S
C154 O157 1.160 . S
O155 C154 1.306 . S
O155 Cd156 2.228 . S
Cd156 O155 2.228 . S
Cd156 O160 2.273 . S
Cd156 O164 2.277 . S
O157 C154 1.160 . S
O157 Cd158 2.203 . S
Cd158 O157 2.203 . S
Cd158 O160 2.411 . S
Cd158 O161 2.333 . S
Cd158 O162 2.352 . S
Cd158 O166 2.277 . S
Cd158 O167 2.356 . S
C159 O164 1.209 . S
C159 O166 1.226 . S
O160 Cd156 2.273 . S
O160 Cd158 2.411 . S
O160 C163 1.320 . S
O161 Cd158 2.333 . S
O161 C163 1.214 . S
O162 Cd158 2.352 . S
O162 C165 1.258 . S
C163 O160 1.320 . S
C163 O161 1.214 . S
O164 Cd156 2.277 . S
O164 C159 1.209 . S
C165 O162 1.258 . S
C165 O167 1.282 . S
O166 Cd158 2.277 . S
O166 C159 1.226 . S
O167 Cd158 2.356 . S
O167 C165 1.282 . S
C168 O169 1.306 . S
C168 O171 1.160 . S
O169 C168 1.306 . S
O169 Cd170 2.228 . S
Cd170 O169 2.228 . S
Cd170 O174 2.273 . S
Cd170 O178 2.277 . S
O171 C168 1.160 . S
O171 Cd172 2.203 . S
Cd172 O171 2.203 . S
Cd172 O174 2.411 . S
Cd172 O175 2.333 . S
Cd172 O176 2.352 . S
Cd172 O180 2.277 . S
Cd172 O181 2.356 . S
C173 O178 1.209 . S
C173 O180 1.226 . S
O174 Cd170 2.273 . S
O174 Cd172 2.411 . S
O174 C177 1.320 . S
O175 Cd172 2.333 . S
O175 C177 1.214 . S
O176 Cd172 2.352 . S
O176 C179 1.258 . S
C177 O174 1.320 . S
C177 O175 1.214 . S
O178 Cd170 2.277 . S
O178 C173 1.209 . S
C179 O176 1.258 . S
C179 O181 1.282 . S
O180 Cd172 2.277 . S
O180 C173 1.226 . S
O181 Cd172 2.356 . S
O181 C179 1.282 . S
C182 O183 1.306 . S
C182 O185 1.160 . S
O183 C182 1.306 . S
O183 Cd184 2.228 . S
Cd184 O183 2.228 . S
Cd184 O188 2.273 . S
Cd184 O192 2.277 . S
O185 C182 1.160 . S
O185 Cd186 2.203 . S
Cd186 O185 2.203 . S
Cd186 O188 2.411 . S
Cd186 O189 2.333 . S
Cd186 O190 2.352 . S
Cd186 O194 2.277 . S
Cd186 O195 2.356 . S
C187 O192 1.209 . S
C187 O194 1.226 . S
O188 Cd184 2.273 . S
O188 Cd186 2.411 . S
O188 C191 1.320 . S
O189 Cd186 2.333 . S
O189 C191 1.214 . S
O190 Cd186 2.352 . S
O190 C193 1.258 . S
C191 O188 1.320 . S
C191 O189 1.214 . S
O192 Cd184 2.277 . S
O192 C187 1.209 . S
C193 O190 1.258 . S
C193 O195 1.282 . S
O194 Cd186 2.277 . S
O194 C187 1.226 . S
O195 Cd186 2.356 . S
O195 C193 1.282 . S
C196 O197 1.306 . S
C196 O199 1.160 . S
O197 C196 1.306 . S
O197 Cd198 2.228 . S
Cd198 O197 2.228 . S
Cd198 O202 2.273 . S
Cd198 O206 2.277 . S
O199 C196 1.160 . S
O199 Cd200 2.203 . S
Cd200 O199 2.203 . S
Cd200 O202 2.411 . S
Cd200 O203 2.333 . S
Cd200 O204 2.352 . S
Cd200 O208 2.277 . S
Cd200 O209 2.356 . S
C201 O206 1.209 . S
C201 O208 1.226 . S
O202 Cd198 2.273 . S
O202 Cd200 2.411 . S
O202 C205 1.320 . S
O203 Cd200 2.333 . S
O203 C205 1.214 . S
O204 Cd200 2.352 . S
O204 C207 1.258 . S
C205 O202 1.320 . S
C205 O203 1.214 . S
O206 Cd198 2.277 . S
O206 C201 1.209 . S
C207 O204 1.258 . S
C207 O209 1.282 . S
O208 Cd200 2.277 . S
O208 C201 1.226 . S
O209 Cd200 2.356 . S
O209 C207 1.282 . S
C210 O211 1.306 . S
C210 O213 1.160 . S
O211 C210 1.306 . S
O211 Cd212 2.228 . S
Cd212 O211 2.228 . S
Cd212 O216 2.273 . S
Cd212 O220 2.277 . S
O213 C210 1.160 . S
O213 Cd214 2.203 . S
Cd214 O213 2.203 . S
Cd214 O216 2.411 . S
Cd214 O217 2.333 . S
Cd214 O218 2.352 . S
Cd214 O222 2.277 . S
Cd214 O223 2.356 . S
C215 O220 1.209 . S
C215 O222 1.226 . S
O216 Cd212 2.273 . S
O216 Cd214 2.411 . S
O216 C219 1.320 . S
O217 Cd214 2.333 . S
O217 C219 1.214 . S
O218 Cd214 2.352 . S
O218 C221 1.258 . S
C219 O216 1.320 . S
C219 O217 1.214 . S
O220 Cd212 2.277 . S
O220 C215 1.209 . S
C221 O218 1.258 . S
C221 O223 1.282 . S
O222 Cd214 2.277 . S
O222 C215 1.226 . S
O223 Cd214 2.356 . S
O223 C221 1.282 . S
H224 C236 0.930 . S
H225 C238 0.930 . S
H226 C239 0.930 . S
H227 C243 0.959 . S
H228 C243 0.959 . S
H229 C243 0.961 . S
H230 C244 0.960 . S
H231 C244 0.961 . S
H232 C244 0.959 . S
H233 C247 0.929 . S
H234 C248 0.931 . S
H235 C250 0.930 . S
C236 H224 0.930 . S
C236 C237 1.399 . S
C236 C241 1.399 . S
C237 C236 1.399 . S
C237 C238 1.376 . S
C238 H225 0.930 . S
C238 C237 1.376 . S
C238 C239 1.388 . S
C239 H226 0.930 . S
C239 C238 1.388 . S
C239 C240 1.390 . S
C240 C239 1.390 . S
C240 C241 1.394 . S
C240 C246 1.465 . S
C241 C236 1.399 . S
C241 C240 1.394 . S
C241 C242 1.516 . S
C242 C241 1.516 . S
C242 C243 1.502 . S
C242 C244 1.561 . S
C242 C245 1.526 . S
C243 H227 0.959 . S
C243 H228 0.959 . S
C243 H229 0.961 . S
C243 C242 1.502 . S
C244 H230 0.960 . S
C244 H231 0.961 . S
C244 H232 0.959 . S
C244 C242 1.561 . S
C245 C242 1.526 . S
C245 C246 1.396 . S
C245 C250 1.390 . S
C246 C240 1.465 . S
C246 C245 1.396 . S
C246 C247 1.399 . S
C247 H233 0.929 . S
C247 C246 1.399 . S
C247 C248 1.385 . S
C248 H234 0.931 . S
C248 C247 1.385 . S
C248 C249 1.389 . S
C249 C248 1.389 . S
C249 C250 1.387 . S
C250 H235 0.930 . S
C250 C245 1.390 . S
C250 C249 1.387 . S
H251 C263 0.930 . S
H252 C265 0.930 . S
H253 C266 0.930 . S
H254 C270 0.959 . S
H255 C270 0.959 . S
H256 C270 0.961 . S
H257 C271 0.960 . S
H258 C271 0.961 . S
H259 C271 0.959 . S
H260 C274 0.929 . S
H261 C275 0.931 . S
H262 C277 0.930 . S
C263 H251 0.930 . S
C263 C264 1.399 . S
C263 C268 1.399 . S
C264 C263 1.399 . S
C264 C265 1.376 . S
C265 H252 0.930 . S
C265 C264 1.376 . S
C265 C266 1.388 . S
C266 H253 0.930 . S
C266 C265 1.388 . S
C266 C267 1.390 . S
C267 C266 1.390 . S
C267 C268 1.394 . S
C267 C273 1.465 . S
C268 C263 1.399 . S
C268 C267 1.394 . S
C268 C269 1.516 . S
C269 C268 1.516 . S
C269 C270 1.502 . S
C269 C271 1.561 . S
C269 C272 1.526 . S
C270 H254 0.959 . S
C270 H255 0.959 . S
C270 H256 0.961 . S
C270 C269 1.502 . S
C271 H257 0.960 . S
C271 H258 0.961 . S
C271 H259 0.959 . S
C271 C269 1.561 . S
C272 C269 1.526 . S
C272 C273 1.396 . S
C272 C277 1.390 . S
C273 C267 1.465 . S
C273 C272 1.396 . S
C273 C274 1.399 . S
C274 H260 0.929 . S
C274 C273 1.399 . S
C274 C275 1.385 . S
C275 H261 0.931 . S
C275 C274 1.385 . S
C275 C276 1.389 . S
C276 C275 1.389 . S
C276 C277 1.387 . S
C277 H262 0.930 . S
C277 C272 1.390 . S
C277 C276 1.387 . S
H278 C290 0.930 . S
H279 C292 0.930 . S
H280 C293 0.930 . S
H281 C297 0.959 . S
H282 C297 0.959 . S
H283 C297 0.961 . S
H284 C298 0.960 . S
H285 C298 0.961 . S
H286 C298 0.959 . S
H287 C301 0.929 . S
H288 C302 0.931 . S
H289 C304 0.930 . S
C290 H278 0.930 . S
C290 C291 1.399 . S
C290 C295 1.399 . S
C291 C290 1.399 . S
C291 C292 1.376 . S
C292 H279 0.930 . S
C292 C291 1.376 . S
C292 C293 1.388 . S
C293 H280 0.930 . S
C293 C292 1.388 . S
C293 C294 1.390 . S
C294 C293 1.390 . S
C294 C295 1.394 . S
C294 C300 1.465 . S
C295 C290 1.399 . S
C295 C294 1.394 . S
C295 C296 1.516 . S
C296 C295 1.516 . S
C296 C297 1.502 . S
C296 C298 1.561 . S
C296 C299 1.526 . S
C297 H281 0.959 . S
C297 H282 0.959 . S
C297 H283 0.961 . S
C297 C296 1.502 . S
C298 H284 0.960 . S
C298 H285 0.961 . S
C298 H286 0.959 . S
C298 C296 1.561 . S
C299 C296 1.526 . S
C299 C300 1.396 . S
C299 C304 1.390 . S
C300 C294 1.465 . S
C300 C299 1.396 . S
C300 C301 1.399 . S
C301 H287 0.929 . S
C301 C300 1.399 . S
C301 C302 1.385 . S
C302 H288 0.931 . S
C302 C301 1.385 . S
C302 C303 1.389 . S
C303 C302 1.389 . S
C303 C304 1.387 . S
C304 H289 0.930 . S
C304 C299 1.390 . S
C304 C303 1.387 . S
H305 C317 0.930 . S
H306 C319 0.930 . S
H307 C320 0.930 . S
H308 C324 0.959 . S
H309 C324 0.959 . S
H310 C324 0.961 . S
H311 C325 0.960 . S
H312 C325 0.961 . S
H313 C325 0.959 . S
H314 C328 0.929 . S
H315 C329 0.931 . S
H316 C331 0.930 . S
C317 H305 0.930 . S
C317 C318 1.399 . S
C317 C322 1.399 . S
C318 C317 1.399 . S
C318 C319 1.376 . S
C319 H306 0.930 . S
C319 C318 1.376 . S
C319 C320 1.388 . S
C320 H307 0.930 . S
C320 C319 1.388 . S
C320 C321 1.390 . S
C321 C320 1.390 . S
C321 C322 1.394 . S
C321 C327 1.465 . S
C322 C317 1.399 . S
C322 C321 1.394 . S
C322 C323 1.516 . S
C323 C322 1.516 . S
C323 C324 1.502 . S
C323 C325 1.561 . S
C323 C326 1.526 . S
C324 H308 0.959 . S
C324 H309 0.959 . S
C324 H310 0.961 . S
C324 C323 1.502 . S
C325 H311 0.960 . S
C325 H312 0.961 . S
C325 H313 0.959 . S
C325 C323 1.561 . S
C326 C323 1.526 . S
C326 C327 1.396 . S
C326 C331 1.390 . S
C327 C321 1.465 . S
C327 C326 1.396 . S
C327 C328 1.399 . S
C328 H314 0.929 . S
C328 C327 1.399 . S
C328 C329 1.385 . S
C329 H315 0.931 . S
C329 C328 1.385 . S
C329 C330 1.389 . S
C330 C329 1.389 . S
C330 C331 1.387 . S
C331 H316 0.930 . S
C331 C326 1.390 . S
C331 C330 1.387 . S
H332 C344 0.930 . S
H333 C346 0.930 . S
H334 C347 0.930 . S
H335 C351 0.959 . S
H336 C351 0.959 . S
H337 C351 0.961 . S
H338 C352 0.960 . S
H339 C352 0.961 . S
H340 C352 0.959 . S
H341 C355 0.929 . S
H342 C356 0.931 . S
H343 C358 0.930 . S
C344 H332 0.930 . S
C344 C345 1.399 . S
C344 C349 1.399 . S
C345 C344 1.399 . S
C345 C346 1.376 . S
C346 H333 0.930 . S
C346 C345 1.376 . S
C346 C347 1.388 . S
C347 H334 0.930 . S
C347 C346 1.388 . S
C347 C348 1.390 . S
C348 C347 1.390 . S
C348 C349 1.394 . S
C348 C354 1.465 . S
C349 C344 1.399 . S
C349 C348 1.394 . S
C349 C350 1.516 . S
C350 C349 1.516 . S
C350 C351 1.502 . S
C350 C352 1.561 . S
C350 C353 1.526 . S
C351 H335 0.959 . S
C351 H336 0.959 . S
C351 H337 0.961 . S
C351 C350 1.502 . S
C352 H338 0.960 . S
C352 H339 0.961 . S
C352 H340 0.959 . S
C352 C350 1.561 . S
C353 C350 1.526 . S
C353 C354 1.396 . S
C353 C358 1.390 . S
C354 C348 1.465 . S
C354 C353 1.396 . S
C354 C355 1.399 . S
C355 H341 0.929 . S
C355 C354 1.399 . S
C355 C356 1.385 . S
C356 H342 0.931 . S
C356 C355 1.385 . S
C356 C357 1.389 . S
C357 C356 1.389 . S
C357 C358 1.387 . S
C358 H343 0.930 . S
C358 C353 1.390 . S
C358 C357 1.387 . S
H359 C371 0.930 . S
H360 C373 0.930 . S
H361 C374 0.930 . S
H362 C378 0.959 . S
H363 C378 0.959 . S
H364 C378 0.961 . S
H365 C379 0.960 . S
H366 C379 0.961 . S
H367 C379 0.959 . S
H368 C382 0.929 . S
H369 C383 0.931 . S
H370 C385 0.930 . S
C371 H359 0.930 . S
C371 C372 1.399 . S
C371 C376 1.399 . S
C372 C371 1.399 . S
C372 C373 1.376 . S
C373 H360 0.930 . S
C373 C372 1.376 . S
C373 C374 1.388 . S
C374 H361 0.930 . S
C374 C373 1.388 . S
C374 C375 1.390 . S
C375 C374 1.390 . S
C375 C376 1.394 . S
C375 C381 1.465 . S
C376 C371 1.399 . S
C376 C375 1.394 . S
C376 C377 1.516 . S
C377 C376 1.516 . S
C377 C378 1.502 . S
C377 C379 1.561 . S
C377 C380 1.526 . S
C378 H362 0.959 . S
C378 H363 0.959 . S
C378 H364 0.961 . S
C378 C377 1.502 . S
C379 H365 0.960 . S
C379 H366 0.961 . S
C379 H367 0.959 . S
C379 C377 1.561 . S
C380 C377 1.526 . S
C380 C381 1.396 . S
C380 C385 1.390 . S
C381 C375 1.465 . S
C381 C380 1.396 . S
C381 C382 1.399 . S
C382 H368 0.929 . S
C382 C381 1.399 . S
C382 C383 1.385 . S
C383 H369 0.931 . S
C383 C382 1.385 . S
C383 C384 1.389 . S
C384 C383 1.389 . S
C384 C385 1.387 . S
C385 H370 0.930 . S
C385 C380 1.390 . S
C385 C384 1.387 . S
H386 C398 0.930 . S
H387 C400 0.930 . S
H388 C401 0.930 . S
H389 C405 0.959 . S
H390 C405 0.959 . S
H391 C405 0.961 . S
H392 C406 0.960 . S
H393 C406 0.961 . S
H394 C406 0.959 . S
H395 C409 0.929 . S
H396 C410 0.931 . S
H397 C412 0.930 . S
C398 H386 0.930 . S
C398 C399 1.399 . S
C398 C403 1.399 . S
C399 C398 1.399 . S
C399 C400 1.376 . S
C400 H387 0.930 . S
C400 C399 1.376 . S
C400 C401 1.388 . S
C401 H388 0.930 . S
C401 C400 1.388 . S
C401 C402 1.390 . S
C402 C401 1.390 . S
C402 C403 1.394 . S
C402 C408 1.465 . S
C403 C398 1.399 . S
C403 C402 1.394 . S
C403 C404 1.516 . S
C404 C403 1.516 . S
C404 C405 1.502 . S
C404 C406 1.561 . S
C404 C407 1.526 . S
C405 H389 0.959 . S
C405 H390 0.959 . S
C405 H391 0.961 . S
C405 C404 1.502 . S
C406 H392 0.960 . S
C406 H393 0.961 . S
C406 H394 0.959 . S
C406 C404 1.561 . S
C407 C404 1.526 . S
C407 C408 1.396 . S
C407 C412 1.390 . S
C408 C402 1.465 . S
C408 C407 1.396 . S
C408 C409 1.399 . S
C409 H395 0.929 . S
C409 C408 1.399 . S
C409 C410 1.385 . S
C410 H396 0.931 . S
C410 C409 1.385 . S
C410 C411 1.389 . S
C411 C410 1.389 . S
C411 C412 1.387 . S
C412 H397 0.930 . S
C412 C407 1.390 . S
C412 C411 1.387 . S
H413 C425 0.930 . S
H414 C427 0.930 . S
H415 C428 0.930 . S
H416 C432 0.959 . S
H417 C432 0.959 . S
H418 C432 0.961 . S
H419 C433 0.960 . S
H420 C433 0.961 . S
H421 C433 0.959 . S
H422 C436 0.929 . S
H423 C437 0.931 . S
H424 C439 0.930 . S
C425 H413 0.930 . S
C425 C426 1.399 . S
C425 C430 1.399 . S
C426 C425 1.399 . S
C426 C427 1.376 . S
C427 H414 0.930 . S
C427 C426 1.376 . S
C427 C428 1.388 . S
C428 H415 0.930 . S
C428 C427 1.388 . S
C428 C429 1.390 . S
C429 C428 1.390 . S
C429 C430 1.394 . S
C429 C435 1.465 . S
C430 C425 1.399 . S
C430 C429 1.394 . S
C430 C431 1.516 . S
C431 C430 1.516 . S
C431 C432 1.502 . S
C431 C433 1.561 . S
C431 C434 1.526 . S
C432 H416 0.959 . S
C432 H417 0.959 . S
C432 H418 0.961 . S
C432 C431 1.502 . S
C433 H419 0.960 . S
C433 H420 0.961 . S
C433 H421 0.959 . S
C433 C431 1.561 . S
C434 C431 1.526 . S
C434 C435 1.396 . S
C434 C439 1.390 . S
C435 C429 1.465 . S
C435 C434 1.396 . S
C435 C436 1.399 . S
C436 H422 0.929 . S
C436 C435 1.399 . S
C436 C437 1.385 . S
C437 H423 0.931 . S
C437 C436 1.385 . S
C437 C438 1.389 . S
C438 C437 1.389 . S
C438 C439 1.387 . S
C439 H424 0.930 . S
C439 C434 1.390 . S
C439 C438 1.387 . S
H440 C452 0.930 . S
H441 C454 0.930 . S
H442 C455 0.930 . S
H443 C459 0.959 . S
H444 C459 0.959 . S
H445 C459 0.961 . S
H446 C460 0.960 . S
H447 C460 0.961 . S
H448 C460 0.959 . S
H449 C463 0.943 . S
H450 C464 0.931 . S
H451 C466 0.930 . S
C452 H440 0.930 . S
C452 C453 1.399 . S
C452 C457 1.399 . S
C453 C452 1.399 . S
C453 C454 1.376 . S
C454 H441 0.930 . S
C454 C453 1.376 . S
C454 C455 1.388 . S
C455 H442 0.930 . S
C455 C454 1.388 . S
C455 C456 1.390 . S
C456 C455 1.390 . S
C456 C457 1.394 . S
C456 C462 1.465 1_565 S
C457 C452 1.399 . S
C457 C456 1.394 . S
C457 C458 1.516 1_565 S
C458 C457 1.516 1_545 S
C458 C459 1.502 . S
C458 C460 1.561 . S
C458 C461 1.526 . S
C459 H443 0.959 . S
C459 H444 0.959 . S
C459 H445 0.961 . S
C459 C458 1.502 . S
C460 H446 0.960 . S
C460 H447 0.961 . S
C460 H448 0.959 . S
C460 C458 1.561 . S
C461 C458 1.526 . S
C461 C462 1.396 . S
C461 C466 1.390 . S
C462 C456 1.465 1_545 S
C462 C461 1.396 . S
C462 C463 1.399 . S
C463 H449 0.943 . S
C463 C462 1.399 . S
C463 C464 1.385 . S
C464 H450 0.931 . S
C464 C463 1.385 . S
C464 C465 1.389 . S
C465 C464 1.389 . S
C465 C466 1.387 . S
C466 H451 0.930 . S
C466 C461 1.390 . S
C466 C465 1.387 . S
H467 C479 0.930 . S
H468 C481 0.930 . S
H469 C482 0.930 . S
H470 C486 0.959 . S
H471 C486 0.959 . S
H472 C486 0.961 . S
H473 C487 0.960 . S
H474 C487 0.961 . S
H475 C487 0.959 . S
H476 C490 0.929 . S
H477 C491 0.931 . S
H478 C493 0.930 . S
C479 H467 0.930 . S
C479 C480 1.399 . S
C479 C484 1.399 . S
C480 C479 1.399 . S
C480 C481 1.376 . S
C481 H468 0.930 . S
C481 C480 1.376 . S
C481 C482 1.388 . S
C482 H469 0.930 . S
C482 C481 1.388 . S
C482 C483 1.390 . S
C483 C482 1.390 . S
C483 C484 1.394 . S
C483 C489 1.465 . S
C484 C479 1.399 . S
C484 C483 1.394 . S
C484 C485 1.516 . S
C485 C484 1.516 . S
C485 C486 1.502 . S
C485 C487 1.561 . S
C485 C488 1.526 . S
C486 H470 0.959 . S
C486 H471 0.959 . S
C486 H472 0.961 . S
C486 C485 1.502 . S
C487 H473 0.960 . S
C487 H474 0.961 . S
C487 H475 0.959 . S
C487 C485 1.561 . S
C488 C485 1.526 . S
C488 C489 1.396 . S
C488 C493 1.390 . S
C489 C483 1.465 . S
C489 C488 1.396 . S
C489 C490 1.399 . S
C490 H476 0.929 . S
C490 C489 1.399 . S
C490 C491 1.385 . S
C491 H477 0.931 . S
C491 C490 1.385 . S
C491 C492 1.389 . S
C492 C491 1.389 . S
C492 C493 1.387 . S
C493 H478 0.930 . S
C493 C488 1.390 . S
C493 C492 1.387 . S
H494 C506 0.930 . S
H495 C508 0.930 . S
H496 C509 0.930 . S
H497 C513 0.959 1_554 S
H498 C513 0.959 1_554 S
H499 C513 0.961 . S
H500 C514 0.960 . S
H501 C514 0.961 . S
H502 C514 0.959 . S
H503 C517 0.929 . S
H504 C518 0.931 . S
H505 C520 0.930 . S
C506 H494 0.930 . S
C506 C507 1.399 . S
C506 C511 1.399 . S
C507 C506 1.399 . S
C507 C508 1.376 . S
C508 H495 0.930 . S
C508 C507 1.376 . S
C508 C509 1.388 . S
C509 H496 0.930 . S
C509 C508 1.388 . S
C509 C510 1.390 . S
C510 C509 1.390 . S
C510 C511 1.394 . S
C510 C516 1.465 1_556 S
C511 C506 1.399 . S
C511 C510 1.394 . S
C511 C512 1.516 . S
C512 C511 1.516 . S
C512 C513 1.502 . S
C512 C514 1.561 . S
C512 C515 1.526 1_556 S
C513 H497 0.959 1_556 S
C513 H498 0.959 1_556 S
C513 H499 0.961 . S
C513 C512 1.502 . S
C514 H500 0.960 . S
C514 H501 0.961 . S
C514 H502 0.959 . S
C514 C512 1.561 . S
C515 C512 1.526 1_554 S
C515 C516 1.396 . S
C515 C520 1.390 . S
C516 C510 1.465 1_554 S
C516 C515 1.396 . S
C516 C517 1.399 . S
C517 H503 0.929 . S
C517 C516 1.399 . S
C517 C518 1.385 . S
C518 H504 0.931 . S
C518 C517 1.385 . S
C518 C519 1.389 . S
C519 C518 1.389 . S
C519 C520 1.387 . S
C520 H505 0.930 . S
C520 C515 1.390 . S
C520 C519 1.387 . S
H521 C533 0.930 . S
H522 C535 0.930 . S
H523 C536 0.930 . S
H524 C540 0.959 . S
H525 C540 0.959 . S
H526 C540 0.961 . S
H527 C541 0.960 1_554 S
H528 C541 0.961 . S
H529 C541 0.959 . S
H530 C544 0.929 . S
H531 C545 0.931 . S
H532 C547 0.930 . S
C533 H521 0.930 . S
C533 C534 1.399 . S
C533 C538 1.399 . S
C534 C533 1.399 . S
C534 C535 1.376 . S
C535 H522 0.930 . S
C535 C534 1.376 . S
C535 C536 1.388 . S
C536 H523 0.930 . S
C536 C535 1.388 . S
C536 C537 1.390 . S
C537 C536 1.390 . S
C537 C538 1.394 . S
C537 C543 1.465 1_554 S
C538 C533 1.399 . S
C538 C537 1.394 . S
C538 C539 1.516 . S
C539 C538 1.516 . S
C539 C540 1.502 . S
C539 C541 1.561 1_554 S
C539 C542 1.526 1_554 S
C540 H524 0.959 . S
C540 H525 0.959 . S
C540 H526 0.961 . S
C540 C539 1.502 . S
C541 H527 0.960 1_556 S
C541 H528 0.961 . S
C541 H529 0.959 . S
C541 C539 1.561 1_556 S
C542 C539 1.526 1_556 S
C542 C543 1.396 . S
C542 C547 1.390 . S
C543 C537 1.465 1_556 S
C543 C542 1.396 . S
C543 C544 1.399 . S
C544 H530 0.929 . S
C544 C543 1.399 . S
C544 C545 1.385 . S
C545 H531 0.931 . S
C545 C544 1.385 . S
C545 C546 1.389 . S
C546 C545 1.389 . S
C546 C547 1.387 . S
C547 H532 0.930 . S
C547 C542 1.390 . S
C547 C546 1.387 . S
H548 C560 0.930 . S
H549 C562 0.930 . S
H550 C563 0.930 . S
H551 C567 0.959 . S
H552 C567 0.959 . S
H553 C567 0.961 . S
H554 C568 0.960 . S
H555 C568 0.961 . S
H556 C568 0.959 . S
H557 C571 0.929 . S
H558 C572 0.931 . S
H559 C574 0.930 . S
C560 H548 0.930 . S
C560 C561 1.399 . S
C560 C565 1.399 . S
C561 C560 1.399 . S
C561 C562 1.376 . S
C562 H549 0.930 . S
C562 C561 1.376 . S
C562 C563 1.388 . S
C563 H550 0.930 . S
C563 C562 1.388 . S
C563 C564 1.390 . S
C564 C563 1.390 . S
C564 C565 1.394 . S
C564 C570 1.465 . S
C565 C560 1.399 . S
C565 C564 1.394 . S
C565 C566 1.516 . S
C566 C565 1.516 . S
C566 C567 1.502 . S
C566 C568 1.561 . S
C566 C569 1.526 . S
C567 H551 0.959 . S
C567 H552 0.959 . S
C567 H553 0.961 . S
C567 C566 1.502 . S
C568 H554 0.960 . S
C568 H555 0.961 . S
C568 H556 0.959 . S
C568 C566 1.561 . S
C569 C566 1.526 . S
C569 C570 1.396 . S
C569 C574 1.390 . S
C570 C564 1.465 . S
C570 C569 1.396 . S
C570 C571 1.399 . S
C571 H557 0.929 . S
C571 C570 1.399 . S
C571 C572 1.385 . S
C572 H558 0.931 . S
C572 C571 1.385 . S
C572 C573 1.389 . S
C573 C572 1.389 . S
C573 C574 1.387 . S
C574 H559 0.930 . S
C574 C569 1.390 . S
C574 C573 1.387 . S
H575 C587 0.930 . S
H576 C589 0.930 . S
H577 C590 0.930 . S
H578 C594 0.959 . S
H579 C594 0.959 . S
H580 C594 0.961 . S
H581 C595 0.960 . S
H582 C595 0.961 . S
H583 C595 0.959 . S
H584 C598 0.929 . S
H585 C599 0.931 . S
H586 C601 0.930 . S
C587 H575 0.930 . S
C587 C588 1.399 . S
C587 C592 1.399 . S
C588 C587 1.399 . S
C588 C589 1.376 . S
C589 H576 0.930 . S
C589 C588 1.376 . S
C589 C590 1.388 . S
C590 H577 0.930 . S
C590 C589 1.388 . S
C590 C591 1.390 . S
C591 C590 1.390 . S
C591 C592 1.394 . S
C591 C597 1.465 . S
C592 C587 1.399 . S
C592 C591 1.394 . S
C592 C593 1.516 . S
C593 C592 1.516 . S
C593 C594 1.502 . S
C593 C595 1.561 . S
C593 C596 1.526 . S
C594 H578 0.959 . S
C594 H579 0.959 . S
C594 H580 0.961 . S
C594 C593 1.502 . S
C595 H581 0.960 . S
C595 H582 0.961 . S
C595 H583 0.959 . S
C595 C593 1.561 . S
C596 C593 1.526 . S
C596 C597 1.396 . S
C596 C601 1.390 . S
C597 C591 1.465 . S
C597 C596 1.396 . S
C597 C598 1.399 . S
C598 H584 0.929 . S
C598 C597 1.399 . S
C598 C599 1.385 . S
C599 H585 0.931 . S
C599 C598 1.385 . S
C599 C600 1.389 . S
C600 C599 1.389 . S
C600 C601 1.387 . S
C601 H586 0.930 . S
C601 C596 1.390 . S
C601 C600 1.387 . S
H602 C614 0.930 . S
H603 C616 0.930 . S
H604 C617 0.930 . S
H605 C621 0.959 . S
H606 C621 0.959 . S
H607 C621 0.961 . S
H608 C622 0.960 1_655 S
H609 C622 0.961 . S
H610 C622 0.959 . S
H611 C625 0.929 . S
H612 C626 0.931 . S
H613 C628 0.930 . S
C614 H602 0.930 . S
C614 C615 1.399 . S
C614 C619 1.399 . S
C615 C614 1.399 . S
C615 C616 1.376 . S
C616 H603 0.930 . S
C616 C615 1.376 . S
C616 C617 1.388 . S
C617 H604 0.930 . S
C617 C616 1.388 . S
C617 C618 1.390 . S
C618 C617 1.390 . S
C618 C619 1.394 . S
C618 C624 1.465 1_655 S
C619 C614 1.399 . S
C619 C618 1.394 . S
C619 C620 1.516 . S
C620 C619 1.516 . S
C620 C621 1.502 . S
C620 C622 1.561 1_655 S
C620 C623 1.526 1_655 S
C621 H605 0.959 . S
C621 H606 0.959 . S
C621 H607 0.961 . S
C621 C620 1.502 . S
C622 H608 0.960 1_455 S
C622 H609 0.961 . S
C622 H610 0.959 . S
C622 C620 1.561 1_455 S
C623 C620 1.526 1_455 S
C623 C624 1.396 . S
C623 C628 1.390 . S
C624 C618 1.465 1_455 S
C624 C623 1.396 . S
C624 C625 1.399 . S
C625 H611 0.929 . S
C625 C624 1.399 . S
C625 C626 1.385 . S
C626 H612 0.931 . S
C626 C625 1.385 . S
C626 C627 1.389 . S
C627 C626 1.389 . S
C627 C628 1.387 . S
C628 H613 0.930 . S
C628 C623 1.390 . S
C628 C627 1.387 . S
H629 C641 0.930 . S
H630 C643 0.930 . S
H631 C644 0.930 . S
H632 C648 0.959 . S
H633 C648 0.959 . S
H634 C648 0.961 . S
H635 C649 0.960 1_655 S
H636 C649 0.961 . S
H637 C649 0.959 . S
H638 C652 0.929 . S
H639 C653 0.931 . S
H640 C655 0.930 . S
C641 H629 0.930 . S
C641 C642 1.399 . S
C641 C646 1.399 . S
C642 C641 1.399 . S
C642 C643 1.376 . S
C643 H630 0.930 . S
C643 C642 1.376 . S
C643 C644 1.388 . S
C644 H631 0.930 . S
C644 C643 1.388 . S
C644 C645 1.390 . S
C645 C644 1.390 . S
C645 C646 1.394 . S
C645 C651 1.465 1_655 S
C646 C641 1.399 . S
C646 C645 1.394 . S
C646 C647 1.516 . S
C647 C646 1.516 . S
C647 C648 1.502 . S
C647 C649 1.561 1_655 S
C647 C650 1.526 1_655 S
C648 H632 0.959 . S
C648 H633 0.959 . S
C648 H634 0.961 . S
C648 C647 1.502 . S
C649 H635 0.960 1_455 S
C649 H636 0.961 . S
C649 H637 0.959 . S
C649 C647 1.561 1_455 S
C650 C647 1.526 1_455 S
C650 C651 1.396 . S
C650 C655 1.390 . S
C651 C645 1.465 1_455 S
C651 C650 1.396 . S
C651 C652 1.399 . S
C652 H638 0.929 . S
C652 C651 1.399 . S
C652 C653 1.385 . S
C653 H639 0.931 . S
C653 C652 1.385 . S
C653 C654 1.389 . S
C654 C653 1.389 . S
C654 C655 1.387 . S
C655 H640 0.930 . S
C655 C650 1.390 . S
C655 C654 1.387 . S
H656 C668 0.930 . S
H657 C670 0.930 . S
H658 C671 0.930 . S
H659 C675 0.959 . S
H660 C675 0.959 . S
H661 C675 0.961 . S
H662 C676 0.960 . S
H663 C676 0.961 . S
H664 C676 0.959 . S
H665 C679 0.929 . S
H666 C680 0.931 . S
H667 C682 0.930 . S
C668 H656 0.930 . S
C668 C669 1.399 . S
C668 C673 1.399 . S
C669 C668 1.399 . S
C669 C670 1.376 . S
C670 H657 0.930 . S
C670 C669 1.376 . S
C670 C671 1.388 . S
C671 H658 0.930 . S
C671 C670 1.388 . S
C671 C672 1.390 . S
C672 C671 1.390 . S
C672 C673 1.394 . S
C672 C678 1.465 . S
C673 C668 1.399 . S
C673 C672 1.394 . S
C673 C674 1.516 . S
C674 C673 1.516 . S
C674 C675 1.502 . S
C674 C676 1.561 . S
C674 C677 1.526 . S
C675 H659 0.959 . S
C675 H660 0.959 . S
C675 H661 0.961 . S
C675 C674 1.502 . S
C676 H662 0.960 . S
C676 H663 0.961 . S
C676 H664 0.959 . S
C676 C674 1.561 . S
C677 C674 1.526 . S
C677 C678 1.396 . S
C677 C682 1.390 . S
C678 C672 1.465 . S
C678 C677 1.396 . S
C678 C679 1.399 . S
C679 H665 0.929 . S
C679 C678 1.399 . S
C679 C680 1.385 . S
C680 H666 0.931 . S
C680 C679 1.385 . S
C680 C681 1.389 . S
C681 C680 1.389 . S
C681 C682 1.387 . S
C682 H667 0.930 . S
C682 C677 1.390 . S
C682 C681 1.387 . S
H683 C695 0.930 . S
H684 C697 0.930 . S
H685 C698 0.930 1_565 S
H686 C702 0.959 . S
H687 C702 0.959 . S
H688 C702 0.961 . S
H689 C703 0.960 . S
H690 C703 0.961 . S
H691 C703 0.959 . S
H692 C706 0.929 . S
H693 C707 0.931 . S
H694 C709 0.930 . S
C695 H683 0.930 . S
C695 C696 1.399 . S
C695 C700 1.399 . S
C696 C695 1.399 . S
C696 C697 1.376 . S
C697 H684 0.930 . S
C697 C696 1.376 . S
C697 C698 1.388 . S
C698 H685 0.930 1_545 S
C698 C697 1.388 . S
C698 C699 1.390 . S
C699 C698 1.390 . S
C699 C700 1.394 . S
C699 C705 1.465 1_545 S
C700 C695 1.399 . S
C700 C699 1.394 . S
C700 C701 1.516 . S
C701 C700 1.516 . S
C701 C702 1.502 . S
C701 C703 1.561 . S
C701 C704 1.526 1_545 S
C702 H686 0.959 . S
C702 H687 0.959 . S
C702 H688 0.961 . S
C702 C701 1.502 . S
C703 H689 0.960 . S
C703 H690 0.961 . S
C703 H691 0.959 . S
C703 C701 1.561 . S
C704 C701 1.526 1_565 S
C704 C705 1.396 . S
C704 C709 1.390 . S
C705 C699 1.465 1_565 S
C705 C704 1.396 . S
C705 C706 1.399 . S
C706 H692 0.929 . S
C706 C705 1.399 . S
C706 C707 1.385 . S
C707 H693 0.931 . S
C707 C706 1.385 . S
C707 C708 1.389 . S
C708 C707 1.389 . S
C708 C709 1.387 . S
C709 H694 0.930 . S
C709 C704 1.390 . S
C709 C708 1.387 . S
H710 C722 0.930 . S
H711 C724 0.930 . S
H712 C725 0.930 . S
H713 C729 0.959 . S
H714 C729 0.959 . S
H715 C729 0.961 . S
H716 C730 0.960 . S
H717 C730 0.961 . S
H718 C730 0.959 . S
H719 C733 0.929 . S
H720 C734 0.931 . S
H721 C736 0.930 . S
C722 H710 0.930 . S
C722 C723 1.399 . S
C722 C727 1.399 . S
C723 C722 1.399 . S
C723 C724 1.376 . S
C724 H711 0.930 . S
C724 C723 1.376 . S
C724 C725 1.388 . S
C725 H712 0.930 . S
C725 C724 1.388 . S
C725 C726 1.390 . S
C726 C725 1.390 . S
C726 C727 1.394 . S
C726 C732 1.465 . S
C727 C722 1.399 . S
C727 C726 1.394 . S
C727 C728 1.516 . S
C728 C727 1.516 . S
C728 C729 1.502 . S
C728 C730 1.561 . S
C728 C731 1.526 . S
C729 H713 0.959 . S
C729 H714 0.959 . S
C729 H715 0.961 . S
C729 C728 1.502 . S
C730 H716 0.960 . S
C730 H717 0.961 . S
C730 H718 0.959 . S
C730 C728 1.561 . S
C731 C728 1.526 . S
C731 C732 1.396 . S
C731 C736 1.390 . S
C732 C726 1.465 . S
C732 C731 1.396 . S
C732 C733 1.399 . S
C733 H719 0.929 . S
C733 C732 1.399 . S
C733 C734 1.385 . S
C734 H720 0.931 . S
C734 C733 1.385 . S
C734 C735 1.389 . S
C735 C734 1.389 . S
C735 C736 1.387 . S
C736 H721 0.930 . S
C736 C731 1.390 . S
C736 C735 1.387 . S
H737 C749 0.930 . S
H738 C751 0.930 . S
H739 C752 0.930 . S
H740 C756 0.959 . S
H741 C756 0.959 . S
H742 C756 0.961 . S
H743 C757 0.960 . S
H744 C757 0.961 . S
H745 C757 0.974 . S
H746 C760 0.929 1_554 S
H747 C761 0.931 . S
H748 C763 0.930 . S
C749 H737 0.930 . S
C749 C750 1.399 . S
C749 C754 1.399 . S
C750 C749 1.399 . S
C750 C751 1.376 . S
C751 H738 0.930 . S
C751 C750 1.376 . S
C751 C752 1.388 . S
C752 H739 0.930 . S
C752 C751 1.388 . S
C752 C753 1.390 . S
C753 C752 1.390 . S
C753 C754 1.394 . S
C753 C759 1.465 1_554 S
C754 C749 1.399 . S
C754 C753 1.394 . S
C754 C755 1.516 1_554 S
C755 C754 1.516 1_556 S
C755 C756 1.502 . S
C755 C757 1.561 . S
C755 C758 1.526 . S
C756 H740 0.959 . S
C756 H741 0.959 . S
C756 H742 0.961 . S
C756 C755 1.502 . S
C757 H743 0.960 . S
C757 H744 0.961 . S
C757 H745 0.974 . S
C757 C755 1.561 . S
C758 C755 1.526 . S
C758 C759 1.396 . S
C758 C763 1.390 . S
C759 C753 1.465 1_556 S
C759 C758 1.396 . S
C759 C760 1.399 . S
C760 H746 0.929 1_556 S
C760 C759 1.399 . S
C760 C761 1.385 . S
C761 H747 0.931 . S
C761 C760 1.385 . S
C761 C762 1.389 . S
C762 C761 1.389 . S
C762 C763 1.387 . S
C763 H748 0.930 . S
C763 C758 1.390 . S
C763 C762 1.387 . S
H764 C776 0.930 . S
H765 C778 0.930 . S
H766 C779 0.930 . S
H767 C783 0.959 . S
H768 C783 0.959 . S
H769 C783 0.961 . S
H770 C784 0.960 1_556 S
H771 C784 0.961 . S
H772 C784 0.959 . S
H773 C787 0.929 . S
H774 C788 0.931 . S
H775 C790 0.930 . S
C776 H764 0.930 . S
C776 C777 1.399 . S
C776 C781 1.399 . S
C777 C776 1.399 . S
C777 C778 1.376 . S
C778 H765 0.930 . S
C778 C777 1.376 . S
C778 C779 1.388 . S
C779 H766 0.930 . S
C779 C778 1.388 . S
C779 C780 1.390 . S
C780 C779 1.390 . S
C780 C781 1.394 . S
C780 C786 1.465 1_556 S
C781 C776 1.399 . S
C781 C780 1.394 . S
C781 C782 1.516 . S
C782 C781 1.516 . S
C782 C783 1.502 . S
C782 C784 1.561 1_556 S
C782 C785 1.526 1_556 S
C783 H767 0.959 . S
C783 H768 0.959 . S
C783 H769 0.961 . S
C783 C782 1.502 . S
C784 H770 0.960 1_554 S
C784 H771 0.961 . S
C784 H772 0.959 . S
C784 C782 1.561 1_554 S
C785 C782 1.526 1_554 S
C785 C786 1.396 . S
C785 C790 1.390 . S
C786 C780 1.465 1_554 S
C786 C785 1.396 . S
C786 C787 1.399 . S
C787 H773 0.929 . S
C787 C786 1.399 . S
C787 C788 1.385 . S
C788 H774 0.931 . S
C788 C787 1.385 . S
C788 C789 1.389 . S
C789 C788 1.389 . S
C789 C790 1.387 . S
C790 H775 0.930 . S
C790 C785 1.390 . S
C790 C789 1.387 . S
H791 C803 0.930 . S
H792 C805 0.930 . S
H793 C806 0.930 . S
H794 C810 0.959 . S
H795 C810 0.959 . S
H796 C810 0.961 . S
H797 C811 0.960 . S
H798 C811 0.961 . S
H799 C811 0.959 . S
H800 C814 0.929 . S
H801 C815 0.931 . S
H802 C817 0.930 . S
C803 H791 0.930 . S
C803 C804 1.399 . S
C803 C808 1.399 . S
C804 C803 1.399 . S
C804 C805 1.376 . S
C805 H792 0.930 . S
C805 C804 1.376 . S
C805 C806 1.388 . S
C806 H793 0.930 . S
C806 C805 1.388 . S
C806 C807 1.390 . S
C807 C806 1.390 . S
C807 C808 1.394 . S
C807 C813 1.465 . S
C808 C803 1.399 . S
C808 C807 1.394 . S
C808 C809 1.516 . S
C809 C808 1.516 . S
C809 C810 1.502 . S
C809 C811 1.561 . S
C809 C812 1.526 . S
C810 H794 0.959 . S
C810 H795 0.959 . S
C810 H796 0.961 . S
C810 C809 1.502 . S
C811 H797 0.960 . S
C811 H798 0.961 . S
C811 H799 0.959 . S
C811 C809 1.561 . S
C812 C809 1.526 . S
C812 C813 1.396 . S
C812 C817 1.390 . S
C813 C807 1.465 . S
C813 C812 1.396 . S
C813 C814 1.399 . S
C814 H800 0.929 . S
C814 C813 1.399 . S
C814 C815 1.385 . S
C815 H801 0.931 . S
C815 C814 1.385 . S
C815 C816 1.389 . S
C816 C815 1.389 . S
C816 C817 1.387 . S
C817 H802 0.930 . S
C817 C812 1.390 . S
C817 C816 1.387 . S
H818 C830 0.930 . S
H819 C832 0.930 . S
H820 C833 0.930 . S
H821 C837 0.959 . S
H822 C837 0.959 . S
H823 C837 0.961 . S
H824 C838 0.960 . S
H825 C838 0.961 . S
H826 C838 0.959 . S
H827 C841 0.929 . S
H828 C842 0.931 . S
H829 C844 0.930 . S
C830 H818 0.930 . S
C830 C831 1.399 . S
C830 C835 1.399 . S
C831 C830 1.399 . S
C831 C832 1.376 . S
C832 H819 0.930 . S
C832 C831 1.376 . S
C832 C833 1.388 . S
C833 H820 0.930 . S
C833 C832 1.388 . S
C833 C834 1.390 . S
C834 C833 1.390 . S
C834 C835 1.394 . S
C834 C840 1.465 . S
C835 C830 1.399 . S
C835 C834 1.394 . S
C835 C836 1.516 . S
C836 C835 1.516 . S
C836 C837 1.502 . S
C836 C838 1.561 . S
C836 C839 1.526 . S
C837 H821 0.959 . S
C837 H822 0.959 . S
C837 H823 0.961 . S
C837 C836 1.502 . S
C838 H824 0.960 . S
C838 H825 0.961 . S
C838 H826 0.959 . S
C838 C836 1.561 . S
C839 C836 1.526 . S
C839 C840 1.396 . S
C839 C844 1.390 . S
C840 C834 1.465 . S
C840 C839 1.396 . S
C840 C841 1.399 . S
C841 H827 0.929 . S
C841 C840 1.399 . S
C841 C842 1.385 . S
C842 H828 0.931 . S
C842 C841 1.385 . S
C842 C843 1.389 . S
C843 C842 1.389 . S
C843 C844 1.387 . S
C844 H829 0.930 . S
C844 C839 1.390 . S
C844 C843 1.387 . S
H845 C857 0.930 . S
H846 C859 0.930 . S
H847 C860 0.930 . S
H848 C864 0.959 . S
H849 C864 0.959 . S
H850 C864 0.961 . S
H851 C865 0.960 . S
H852 C865 0.961 . S
H853 C865 0.959 . S
H854 C868 0.929 . S
H855 C869 0.931 . S
H856 C871 0.930 . S
C857 H845 0.930 . S
C857 C858 1.399 . S
C857 C862 1.399 . S
C858 C857 1.399 . S
C858 C859 1.376 . S
C859 H846 0.930 . S
C859 C858 1.376 . S
C859 C860 1.388 . S
C860 H847 0.930 . S
C860 C859 1.388 . S
C860 C861 1.390 . S
C861 C860 1.390 . S
C861 C862 1.394 . S
C861 C867 1.465 1_455 S
C862 C857 1.399 . S
C862 C861 1.394 . S
C862 C863 1.516 1_455 S
C863 C862 1.516 1_655 S
C863 C864 1.502 . S
C863 C865 1.561 . S
C863 C866 1.526 . S
C864 H848 0.959 . S
C864 H849 0.959 . S
C864 H850 0.961 . S
C864 C863 1.502 . S
C865 H851 0.960 . S
C865 H852 0.961 . S
C865 H853 0.959 . S
C865 C863 1.561 . S
C866 C863 1.526 . S
C866 C867 1.396 . S
C866 C871 1.390 . S
C867 C861 1.465 1_655 S
C867 C866 1.396 . S
C867 C868 1.399 . S
C868 H854 0.929 . S
C868 C867 1.399 . S
C868 C869 1.385 . S
C869 H855 0.931 . S
C869 C868 1.385 . S
C869 C870 1.389 . S
C870 C869 1.389 . S
C870 C871 1.387 . S
C871 H856 0.930 . S
C871 C866 1.390 . S
C871 C870 1.387 . S
H872 C884 0.930 . S
H873 C886 0.930 . S
H874 C887 0.930 . S
H875 C891 0.959 . S
H876 C891 0.959 . S
H877 C891 0.961 . S
H878 C892 0.960 1_455 S
H879 C892 0.961 . S
H880 C892 0.959 . S
H881 C895 0.929 . S
H882 C896 0.931 . S
H883 C898 0.930 . S
C884 H872 0.930 . S
C884 C885 1.399 . S
C884 C889 1.399 . S
C885 C884 1.399 . S
C885 C886 1.376 . S
C886 H873 0.930 . S
C886 C885 1.376 . S
C886 C887 1.388 . S
C887 H874 0.930 . S
C887 C886 1.388 . S
C887 C888 1.390 . S
C888 C887 1.390 . S
C888 C889 1.394 . S
C888 C894 1.465 1_455 S
C889 C884 1.399 . S
C889 C888 1.394 . S
C889 C890 1.516 . S
C890 C889 1.516 . S
C890 C891 1.502 . S
C890 C892 1.561 1_455 S
C890 C893 1.526 1_455 S
C891 H875 0.959 . S
C891 H876 0.959 . S
C891 H877 0.961 . S
C891 C890 1.502 . S
C892 H878 0.960 1_655 S
C892 H879 0.961 . S
C892 H880 0.959 . S
C892 C890 1.561 1_655 S
C893 C890 1.526 1_655 S
C893 C894 1.396 . S
C893 C898 1.390 . S
C894 C888 1.465 1_655 S
C894 C893 1.396 . S
C894 C895 1.399 . S
C895 H881 0.929 . S
C895 C894 1.399 . S
C895 C896 1.385 . S
C896 H882 0.931 . S
C896 C895 1.385 . S
C896 C897 1.389 . S
C897 C896 1.389 . S
C897 C898 1.387 . S
C898 H883 0.930 . S
C898 C893 1.390 . S
C898 C897 1.387 . S
H899 C911 0.930 . S
H900 C913 0.930 . S
H901 C914 0.930 . S
H902 C918 0.959 . S
H903 C918 0.959 . S
H904 C918 0.961 . S
H905 C919 0.960 . S
H906 C919 0.961 . S
H907 C919 0.959 . S
H908 C922 0.929 . S
H909 C923 0.931 . S
H910 C925 0.930 . S
C911 H899 0.930 . S
C911 C912 1.399 . S
C911 C916 1.399 . S
C912 C911 1.399 . S
C912 C913 1.376 . S
C913 H900 0.930 . S
C913 C912 1.376 . S
C913 C914 1.388 . S
C914 H901 0.930 . S
C914 C913 1.388 . S
C914 C915 1.390 . S
C915 C914 1.390 . S
C915 C916 1.394 . S
C915 C921 1.465 . S
C916 C911 1.399 . S
C916 C915 1.394 . S
C916 C917 1.516 . S
C917 C916 1.516 . S
C917 C918 1.502 . S
C917 C919 1.561 . S
C917 C920 1.526 . S
C918 H902 0.959 . S
C918 H903 0.959 . S
C918 H904 0.961 . S
C918 C917 1.502 . S
C919 H905 0.960 . S
C919 H906 0.961 . S
C919 H907 0.959 . S
C919 C917 1.561 . S
C920 C917 1.526 . S
C920 C921 1.396 . S
C920 C925 1.390 . S
C921 C915 1.465 . S
C921 C920 1.396 . S
C921 C922 1.399 . S
C922 H908 0.929 . S
C922 C921 1.399 . S
C922 C923 1.385 . S
C923 H909 0.931 . S
C923 C922 1.385 . S
C923 C924 1.389 . S
C924 C923 1.389 . S
C924 C925 1.387 . S
C925 H910 0.930 . S
C925 C920 1.390 . S
C925 C924 1.387 . S
H926 C938 0.930 . S
H927 C940 0.930 . S
H928 C941 0.930 . S
H929 C945 0.959 . S
H930 C945 0.959 . S
H931 C945 0.961 . S
H932 C946 0.960 . S
H933 C946 0.961 . S
H934 C946 0.959 . S
H935 C949 0.929 . S
H936 C950 0.931 . S
H937 C952 0.930 . S
C938 H926 0.930 . S
C938 C939 1.399 . S
C938 C943 1.399 . S
C939 C938 1.399 . S
C939 C940 1.376 . S
C940 H927 0.930 . S
C940 C939 1.376 . S
C940 C941 1.388 . S
C941 H928 0.930 . S
C941 C940 1.388 . S
C941 C942 1.390 . S
C942 C941 1.390 . S
C942 C943 1.394 . S
C942 C948 1.465 . S
C943 C938 1.399 . S
C943 C942 1.394 . S
C943 C944 1.516 . S
C944 C943 1.516 . S
C944 C945 1.502 . S
C944 C946 1.561 . S
C944 C947 1.526 . S
C945 H929 0.959 . S
C945 H930 0.959 . S
C945 H931 0.961 . S
C945 C944 1.502 . S
C946 H932 0.960 . S
C946 H933 0.961 . S
C946 H934 0.959 . S
C946 C944 1.561 . S
C947 C944 1.526 . S
C947 C948 1.396 . S
C947 C952 1.390 . S
C948 C942 1.465 . S
C948 C947 1.396 . S
C948 C949 1.399 . S
C949 H935 0.929 . S
C949 C948 1.399 . S
C949 C950 1.385 . S
C950 H936 0.931 . S
C950 C949 1.385 . S
C950 C951 1.389 . S
C951 C950 1.389 . S
C951 C952 1.387 . S
C952 H937 0.930 . S
C952 C947 1.390 . S
C952 C951 1.387 . S
H953 C965 0.930 . S
H954 C967 0.930 . S
H955 C968 0.930 . S
H956 C972 0.959 . S
H957 C972 0.959 . S
H958 C972 0.961 . S
H959 C973 0.960 . S
H960 C973 0.961 . S
H961 C973 0.959 . S
H962 C976 0.929 1_545 S
H963 C977 0.931 . S
H964 C979 0.930 . S
C965 H953 0.930 . S
C965 C966 1.399 . S
C965 C970 1.399 . S
C966 C965 1.399 . S
C966 C967 1.376 . S
C967 H954 0.930 . S
C967 C966 1.376 . S
C967 C968 1.388 . S
C968 H955 0.930 . S
C968 C967 1.388 . S
C968 C969 1.390 . S
C969 C968 1.390 . S
C969 C970 1.394 . S
C969 C975 1.465 1_545 S
C970 C965 1.399 . S
C970 C969 1.394 . S
C970 C971 1.516 1_545 S
C971 C970 1.516 1_565 S
C971 C972 1.502 . S
C971 C973 1.561 . S
C971 C974 1.526 . S
C972 H956 0.959 . S
C972 H957 0.959 . S
C972 H958 0.961 . S
C972 C971 1.502 . S
C973 H959 0.960 . S
C973 H960 0.961 . S
C973 H961 0.959 . S
C973 C971 1.561 . S
C974 C971 1.526 . S
C974 C975 1.396 . S
C974 C979 1.390 . S
C975 C969 1.465 1_565 S
C975 C974 1.396 . S
C975 C976 1.399 . S
C976 H962 0.929 1_565 S
C976 C975 1.399 . S
C976 C977 1.385 . S
C977 H963 0.931 . S
C977 C976 1.385 . S
C977 C978 1.389 . S
C978 C977 1.389 . S
C978 C979 1.387 . S
C979 H964 0.930 . S
C979 C974 1.390 . S
C979 C978 1.387 . S
H980 C992 0.930 . S
H981 C994 0.930 . S
H982 C995 0.930 . S
H983 C999 0.959 . S
H984 C999 0.959 . S
H985 C999 0.961 . S
H986 C1000 0.960 . S
H987 C1000 0.961 . S
H988 C1000 0.959 . S
H989 C1003 0.929 . S
H990 C1004 0.931 . S
H991 C1006 0.930 . S
C992 H980 0.930 . S
C992 C993 1.399 . S
C992 C997 1.399 . S
C993 C992 1.399 . S
C993 C994 1.376 . S
C994 H981 0.930 . S
C994 C993 1.376 . S
C994 C995 1.388 . S
C995 H982 0.930 . S
C995 C994 1.388 . S
C995 C996 1.390 . S
C996 C995 1.390 . S
C996 C997 1.394 . S
C996 C1002 1.465 . S
C997 C992 1.399 . S
C997 C996 1.394 . S
C997 C998 1.516 . S
C998 C997 1.516 . S
C998 C999 1.502 . S
C998 C1000 1.561 . S
C998 C1001 1.526 . S
C999 H983 0.959 . S
C999 H984 0.959 . S
C999 H985 0.961 . S
C999 C998 1.502 . S
C1000 H986 0.960 . S
C1000 H987 0.961 . S
C1000 H988 0.959 . S
C1000 C998 1.561 . S
C1001 C998 1.526 . S
C1001 C1002 1.396 . S
C1001 C1006 1.390 . S
C1002 C996 1.465 . S
C1002 C1001 1.396 . S
C1002 C1003 1.399 . S
C1003 H989 0.929 . S
C1003 C1002 1.399 . S
C1003 C1004 1.385 . S
C1004 H990 0.931 . S
C1004 C1003 1.385 . S
C1004 C1005 1.389 . S
C1005 C1004 1.389 . S
C1005 C1006 1.387 . S
C1006 H991 0.930 . S
C1006 C1001 1.390 . S
C1006 C1005 1.387 . S
H1007 C1019 0.930 . S
H1008 C1021 0.930 . S
H1009 C1022 0.930 . S
H1010 C1026 0.959 . S
H1011 C1026 0.959 . S
H1012 C1026 0.961 . S
H1013 C1027 0.960 . S
H1014 C1027 0.961 . S
H1015 C1027 0.959 . S
H1016 C1030 0.929 . S
H1017 C1031 0.931 . S
H1018 C1033 0.930 . S
C1019 H1007 0.930 . S
C1019 C1020 1.399 . S
C1019 C1024 1.399 . S
C1020 C1019 1.399 . S
C1020 C1021 1.376 . S
C1021 H1008 0.930 . S
C1021 C1020 1.376 . S
C1021 C1022 1.388 . S
C1022 H1009 0.930 . S
C1022 C1021 1.388 . S
C1022 C1023 1.390 . S
C1023 C1022 1.390 . S
C1023 C1024 1.394 . S
C1023 C1029 1.465 . S
C1024 C1019 1.399 . S
C1024 C1023 1.394 . S
C1024 C1025 1.516 . S
C1025 C1024 1.516 . S
C1025 C1026 1.502 . S
C1025 C1027 1.561 . S
C1025 C1028 1.526 . S
C1026 H1010 0.959 . S
C1026 H1011 0.959 . S
C1026 H1012 0.961 . S
C1026 C1025 1.502 . S
C1027 H1013 0.960 . S
C1027 H1014 0.961 . S
C1027 H1015 0.959 . S
C1027 C1025 1.561 . S
C1028 C1025 1.526 . S
C1028 C1029 1.396 . S
C1028 C1033 1.390 . S
C1029 C1023 1.465 . S
C1029 C1028 1.396 . S
C1029 C1030 1.399 . S
C1030 H1016 0.929 . S
C1030 C1029 1.399 . S
C1030 C1031 1.385 . S
C1031 H1017 0.931 . S
C1031 C1030 1.385 . S
C1031 C1032 1.389 . S
C1032 C1031 1.389 . S
C1032 C1033 1.387 . S
C1033 H1018 0.930 . S
C1033 C1028 1.390 . S
C1033 C1032 1.387 . S
H1034 C1046 0.930 . S
H1035 C1048 0.930 . S
H1036 C1049 0.930 . S
H1037 C1053 0.959 1_565 S
H1038 C1053 0.959 1_565 S
H1039 C1053 0.961 . S
H1040 C1054 0.960 . S
H1041 C1054 0.961 . S
H1042 C1054 0.959 . S
H1043 C1057 0.929 . S
H1044 C1058 0.931 . S
H1045 C1060 0.930 . S
C1046 H1034 0.930 . S
C1046 C1047 1.399 . S
C1046 C1051 1.399 . S
C1047 C1046 1.399 . S
C1047 C1048 1.376 . S
C1048 H1035 0.930 . S
C1048 C1047 1.376 . S
C1048 C1049 1.388 . S
C1049 H1036 0.930 . S
C1049 C1048 1.388 . S
C1049 C1050 1.390 . S
C1050 C1049 1.390 . S
C1050 C1051 1.394 . S
C1050 C1056 1.465 1_545 S
C1051 C1046 1.399 . S
C1051 C1050 1.394 . S
C1051 C1052 1.516 . S
C1052 C1051 1.516 . S
C1052 C1053 1.502 . S
C1052 C1054 1.561 . S
C1052 C1055 1.526 1_545 S
C1053 H1037 0.959 1_545 S
C1053 H1038 0.959 1_545 S
C1053 H1039 0.961 . S
C1053 C1052 1.502 . S
C1054 H1040 0.960 . S
C1054 H1041 0.961 . S
C1054 H1042 0.959 . S
C1054 C1052 1.561 . S
C1055 C1052 1.526 1_565 S
C1055 C1056 1.396 . S
C1055 C1060 1.390 . S
C1056 C1050 1.465 1_565 S
C1056 C1055 1.396 . S
C1056 C1057 1.399 . S
C1057 H1043 0.929 . S
C1057 C1056 1.399 . S
C1057 C1058 1.385 . S
C1058 H1044 0.931 . S
C1058 C1057 1.385 . S
C1058 C1059 1.389 . S
C1059 C1058 1.389 . S
C1059 C1060 1.387 . S
C1060 H1045 0.930 . S
C1060 C1055 1.390 . S
C1060 C1059 1.387 . S
H1061 C1073 0.930 . S
H1062 C1075 0.930 . S
H1063 C1076 0.930 . S
H1064 C1080 0.959 . S
H1065 C1080 0.959 . S
H1066 C1080 0.961 . S
H1067 C1081 0.960 . S
H1068 C1081 0.961 . S
H1069 C1081 0.959 . S
H1070 C1084 0.929 . S
H1071 C1085 0.931 . S
H1072 C1087 0.930 . S
C1073 H1061 0.930 . S
C1073 C1074 1.399 . S
C1073 C1078 1.399 . S
C1074 C1073 1.399 . S
C1074 C1075 1.376 . S
C1075 H1062 0.930 . S
C1075 C1074 1.376 . S
C1075 C1076 1.388 . S
C1076 H1063 0.930 . S
C1076 C1075 1.388 . S
C1076 C1077 1.390 . S
C1077 C1076 1.390 . S
C1077 C1078 1.394 . S
C1077 C1083 1.465 . S
C1078 C1073 1.399 . S
C1078 C1077 1.394 . S
C1078 C1079 1.516 . S
C1079 C1078 1.516 . S
C1079 C1080 1.502 . S
C1079 C1081 1.561 . S
C1079 C1082 1.526 . S
C1080 H1064 0.959 . S
C1080 H1065 0.959 . S
C1080 H1066 0.961 . S
C1080 C1079 1.502 . S
C1081 H1067 0.960 . S
C1081 H1068 0.961 . S
C1081 H1069 0.959 . S
C1081 C1079 1.561 . S
C1082 C1079 1.526 . S
C1082 C1083 1.396 . S
C1082 C1087 1.390 . S
C1083 C1077 1.465 . S
C1083 C1082 1.396 . S
C1083 C1084 1.399 . S
C1084 H1070 0.929 . S
C1084 C1083 1.399 . S
C1084 C1085 1.385 . S
C1085 H1071 0.931 . S
C1085 C1084 1.385 . S
C1085 C1086 1.389 . S
C1086 C1085 1.389 . S
C1086 C1087 1.387 . S
C1087 H1072 0.930 . S
C1087 C1082 1.390 . S
C1087 C1086 1.387 . S
C237 C9 1.070 . S
C249 C191 1.077 . S
C264 C23 1.058 . S
C276 C135 1.089 . S
C291 C205 1.081 . S
C303 C37 1.058 . S
C318 C51 1.080 . S
C330 C219 1.028 . S
C345 C65 1.076 . S
C357 C93 1.029 . S
C372 C149 1.080 . S
C384 C79 1.028 . S
C399 C163 1.062 . S
C411 C107 1.059 . S
C426 C121 1.090 . S
C438 C177 1.059 . S
C453 C33 1.626 . S
C465 C5 1.633 . S
C480 C19 1.628 . S
C492 C47 1.639 . S
C507 C179 1.728 . S
C519 C11 1.724 . S
C534 C25 1.763 . S
C546 C165 1.744 . S
C561 C67 1.763 . S
C573 C39 1.744 . S
C588 C151 1.717 . S
C600 C53 1.739 . S
C615 C14 1.393 . S
C627 C0 1.375 . S
C642 C42 1.394 . S
C654 C28 1.375 . S
C669 C140 1.395 . S
C681 C56 1.374 . S
C696 C109 1.572 . S
C708 C81 1.575 . S
C723 C95 1.568 . S
C735 C123 1.572 . S
C750 C215 1.789 . S
C762 C75 1.824 . S
C777 C89 1.814 . S
C789 C201 1.794 . S
C804 C131 1.814 . S
C816 C103 1.794 . S
C831 C117 1.797 . S
C843 C187 1.818 . S
C858 C84 1.464 . S
C870 C70 1.494 . S
C885 C112 1.494 . S
C897 C98 1.467 . S
C912 C126 1.489 . S
C924 C182 1.478 . S
C939 C145 1.651 . S
C951 C159 1.646 . S
C966 C173 1.627 . S
C978 C61 1.637 . S
C993 C168 1.405 . S
C1005 C154 1.434 . S
C1020 C207 1.558 . S
C1032 C193 1.562 . S
C1047 C137 1.552 . S
C1059 C221 1.554 . S
C1074 C210 1.491 . S
C1086 C196 1.474 . S
