# Generated by pormake.
# Topology acs-a, (4)-cn, num edge types: 1
# Building blocks:
#     Node 0, Type 0, BuildingBlock: GALJAG_clean_sbu_0, # of connection points: 4
#     Node 1, Type 0, BuildingBlock: GALJAG_clean_sbu_0, # of connection points: 4
#     Node 2, Type 0, BuildingBlock: GALJAG_clean_sbu_0, # of connection points: 4
#     Node 3, Type 0, BuildingBlock: GALJAG_clean_sbu_0, # of connection points: 4
#     Node 4, Type 0, BuildingBlock: GALJAG_clean_sbu_0, # of connection points: 4
#     Node 5, Type 0, BuildingBlock: GALJAG_clean_sbu_0, # of connection points: 4
#     Node 6, Type 0, BuildingBlock: GALJAG_clean_sbu_0, # of connection points: 4
#     Node 7, Type 0, BuildingBlock: GALJAG_clean_sbu_0, # of connection points: 4
#     Node 8, Type 0, BuildingBlock: GALJAG_clean_sbu_0, # of connection points: 4
#     Node 9, Type 0, BuildingBlock: GALJAG_clean_sbu_0, # of connection points: 4
#     Node 10, Type 0, BuildingBlock: GALJAG_clean_sbu_0, # of connection points: 4
#     Node 11, Type 0, BuildingBlock: GALJAG_clean_sbu_0, # of connection points: 4
#     Edge 12, Type (0, 0), BuildingBlock: KIFKEQ_clean_linker_1, # of connection points: 2
#     Edge 13, Type (0, 0), BuildingBlock: KIFKEQ_clean_linker_1, # of connection points: 2
#     Edge 14, Type (0, 0), BuildingBlock: KIFKEQ_clean_linker_1, # of connection points: 2
#     Edge 15, Type (0, 0), BuildingBlock: KIFKEQ_clean_linker_1, # of connection points: 2
#     Edge 16, Type (0, 0), BuildingBlock: KIFKEQ_clean_linker_1, # of connection points: 2
#     Edge 17, Type (0, 0), BuildingBlock: KIFKEQ_clean_linker_1, # of connection points: 2
#     Edge 18, Type (0, 0), BuildingBlock: KIFKEQ_clean_linker_1, # of connection points: 2
#     Edge 19, Type (0, 0), BuildingBlock: KIFKEQ_clean_linker_1, # of connection points: 2
#     Edge 20, Type (0, 0), BuildingBlock: KIFKEQ_clean_linker_1, # of connection points: 2
#     Edge 21, Type (0, 0), BuildingBlock: KIFKEQ_clean_linker_1, # of connection points: 2
#     Edge 22, Type (0, 0), BuildingBlock: KIFKEQ_clean_linker_1, # of connection points: 2
#     Edge 23, Type (0, 0), BuildingBlock: KIFKEQ_clean_linker_1, # of connection points: 2
#     Edge 24, Type (0, 0), BuildingBlock: KIFKEQ_clean_linker_1, # of connection points: 2
#     Edge 25, Type (0, 0), BuildingBlock: KIFKEQ_clean_linker_1, # of connection points: 2
#     Edge 26, Type (0, 0), BuildingBlock: KIFKEQ_clean_linker_1, # of connection points: 2
#     Edge 27, Type (0, 0), BuildingBlock: KIFKEQ_clean_linker_1, # of connection points: 2
#     Edge 28, Type (0, 0), BuildingBlock: KIFKEQ_clean_linker_1, # of connection points: 2
#     Edge 29, Type (0, 0), BuildingBlock: KIFKEQ_clean_linker_1, # of connection points: 2
#     Edge 30, Type (0, 0), BuildingBlock: KIFKEQ_clean_linker_1, # of connection points: 2
#     Edge 31, Type (0, 0), BuildingBlock: KIFKEQ_clean_linker_1, # of connection points: 2
#     Edge 32, Type (0, 0), BuildingBlock: KIFKEQ_clean_linker_1, # of connection points: 2
#     Edge 33, Type (0, 0), BuildingBlock: KIFKEQ_clean_linker_1, # of connection points: 2
#     Edge 34, Type (0, 0), BuildingBlock: KIFKEQ_clean_linker_1, # of connection points: 2
#     Edge 35, Type (0, 0), BuildingBlock: KIFKEQ_clean_linker_1, # of connection points: 2
# Relax obj value: 0.468
# Max RMSD: 0.202
# Mean RMSD: 0.201
data_MOF--net-acs-a--node1-GALJAG_clean_sbu_0--edge1-KIFKEQ_clean_linker_1
_symmetry_space_group_name_H-M    P1
_symmetry_Int_Tables_number       1
_symmetry_cell_setting            triclinic
loop_
_symmetry_equiv_pos_as_xyz
'x, y, z'
_cell_length_a     53.150536
_cell_length_b     53.370338
_cell_length_c     30.102425
_cell_angle_alpha  89.938142
_cell_angle_beta   90.073649
_cell_angle_gamma 119.84493
loop_
_atom_site_label
_atom_site_type_symbol
_atom_site_fract_x
_atom_site_fract_y
_atom_site_fract_z
_atom_type_partial_charge
In0 In 0.58899 0.15915 0.0111 0.0
O1 O 0.61345 0.1841 0.0732 0.0
O2 O 0.56804 0.16742 0.07145 0.0
C3 C 0.64267 0.18173 0.97625 0.0
C4 C 0.56726 0.10169 0.01451 0.0
C5 C 0.55681 0.17565 0.96343 0.0
O6 O 0.63512 0.16654 0.01105 0.0
O7 O 0.62281 0.18461 0.95829 0.0
O8 O 0.54701 0.14977 0.97549 0.0
O9 O 0.58256 0.1928 0.97525 0.0
C10 C 0.59124 0.18082 0.09331 0.0
O11 O 0.56963 0.11672 0.04808 0.0
O12 O 0.5757 0.1156 0.97854 0.0
In13 In 0.43814 0.59876 0.4603 0.0
O14 O 0.41574 0.60243 0.52281 0.0
O15 O 0.4435 0.58471 0.52952 0.0
C16 C 0.45991 0.65489 0.43977 0.0
C17 C 0.47578 0.58115 0.43659 0.0
C18 C 0.38439 0.5666 0.42616 0.0
O19 O 0.46105 0.64625 0.47832 0.0
O20 O 0.44876 0.63521 0.41083 0.0
O21 O 0.39432 0.55743 0.45619 0.0
O22 O 0.40202 0.59158 0.41206 0.0
C23 C 0.42666 0.59162 0.54831 0.0
O24 O 0.44944 0.56776 0.42541 0.0
O25 O 0.48347 0.60438 0.45713 0.0
In26 In 0.81799 0.41254 0.04546 0.0
O27 O 0.86519 0.42504 0.0378 0.0
O28 O 0.8544 0.45794 0.0276 0.0
C29 C 0.80612 0.36028 0.01501 0.0
C30 C 0.81288 0.40908 0.13459 0.0
C31 C 0.77693 0.4231 0.01148 0.0
O32 O 0.80649 0.36594 0.05573 0.0
O33 O 0.81245 0.38131 0.98931 0.0
O34 O 0.78563 0.42888 0.05105 0.0
O35 O 0.78957 0.41292 0.98868 0.0
C36 C 0.87404 0.45125 0.02948 0.0
O37 O 0.79434 0.38996 0.10921 0.0
O38 O 0.83352 0.43018 0.11494 0.0
In39 In 0.38291 0.83659 0.47701 0.0
O40 O 0.41769 0.87856 0.4462 0.0
O41 O 0.37995 0.87766 0.47081 0.0
C42 C 0.40985 0.80646 0.45949 0.0
C43 C 0.39035 0.84055 0.56598 0.0
C44 C 0.33006 0.80197 0.44108 0.0
O45 O 0.41074 0.82512 0.43265 0.0
O46 O 0.39498 0.80277 0.49402 0.0
O47 O 0.33365 0.81467 0.47776 0.0
O48 O 0.35324 0.80775 0.42138 0.0
C49 C 0.40473 0.89244 0.45385 0.0
O50 O 0.36556 0.8274 0.5482 0.0
O51 O 0.4112 0.85191 0.53896 0.0
In52 In 0.51975 0.35875 0.99845 0.0
O53 O 0.51347 0.34217 0.07003 0.0
O54 O 0.54198 0.38686 0.05853 0.0
C55 C 0.49245 0.30646 0.95954 0.0
C56 C 0.48699 0.38317 0.9814 0.0
C57 C 0.57512 0.3785 0.9732 0.0
O58 O 0.4919 0.31003 1.0009 0.0
O59 O 0.5056 0.32957 0.93737 0.0
O60 O 0.56382 0.39445 0.97326 0.0
O61 O 0.55836 0.35272 0.98485 0.0
C62 C 0.53064 0.3666 0.0864 0.0
O63 O 0.5093 0.389 0.959 0.0
O64 O 0.48069 0.36427 0.01097 0.0
In65 In 0.15596 0.54887 0.50246 0.0
O66 O 0.10986 0.53521 0.48032 0.0
O67 O 0.11723 0.50374 0.51128 0.0
C68 C 0.18241 0.60353 0.47199 0.0
C69 C 0.15613 0.55945 0.5898 0.0
C70 C 0.18979 0.52923 0.46817 0.0
O71 O 0.16377 0.58285 0.44882 0.0
O72 O 0.18786 0.59637 0.50908 0.0
O73 O 0.18603 0.53039 0.50927 0.0
O74 O 0.17574 0.53725 0.44385 0.0
C75 C 0.09903 0.50995 0.49568 0.0
O76 O 0.16944 0.54737 0.57399 0.0
O77 O 0.14287 0.5661 0.56156 0.0
In78 In 0.83213 0.38551 0.55281 0.0
O79 O 0.87577 0.42108 0.57957 0.0
O80 O 0.87227 0.38123 0.56107 0.0
C81 C 0.8087 0.41827 0.57655 0.0
C82 C 0.82481 0.3842 0.46383 0.0
C83 C 0.8013 0.33162 0.58564 0.0
O84 O 0.80475 0.39653 0.59877 0.0
O85 O 0.82567 0.42425 0.54402 0.0
O86 O 0.81215 0.33689 0.54719 0.0
O87 O 0.80638 0.35363 0.60808 0.0
C88 C 0.8885 0.40672 0.57403 0.0
O89 O 0.80365 0.37281 0.49034 0.0
O90 O 0.84935 0.39554 0.48217 0.0
In91 In 0.42427 0.83243 0.98427 0.0
O92 O 0.43536 0.87338 0.0229 0.0
O93 O 0.46922 0.87214 0.98776 0.0
C94 C 0.36829 0.80958 0.00749 0.0
C95 C 0.41962 0.83619 0.89554 0.0
C96 C 0.44163 0.79573 0.01496 0.0
O97 O 0.38862 0.82379 0.03475 0.0
O98 O 0.37634 0.80661 0.96939 0.0
O99 O 0.45482 0.81382 0.98462 0.0
O100 O 0.41997 0.79642 0.03032 0.0
C101 C 0.46164 0.88657 0.01161 0.0
O102 O 0.42435 0.81746 0.91323 0.0
O103 O 0.41736 0.85302 0.92254 0.0
In104 In 0.58384 0.42189 0.49864 0.0
O105 O 0.5537 0.43894 0.51837 0.0
O106 O 0.59322 0.46795 0.48677 0.0
C107 C 0.5551 0.37175 0.54427 0.0
C108 C 0.57338 0.40749 0.41226 0.0
C109 C 0.63859 0.43797 0.52313 0.0
O110 O 0.57085 0.39554 0.56349 0.0
O111 O 0.55352 0.37354 0.50281 0.0
O112 O 0.62835 0.42766 0.48539 0.0
O113 O 0.62126 0.44059 0.5488 0.0
C114 C 0.56947 0.46374 0.50224 0.0
O115 O 0.59878 0.42158 0.42783 0.0
O116 O 0.55336 0.40066 0.44032 0.0
In117 In 0.14489 0.60802 0.00202 0.0
O118 O 0.1054 0.58245 0.04666 0.0
O119 O 0.10011 0.60163 0.98827 0.0
C120 C 0.1778 0.5857 0.02996 0.0
C121 C 0.14919 0.59913 0.91479 0.0
C122 C 0.17175 0.66217 0.0343 0.0
O123 O 0.15057 0.57048 0.02638 0.0
O124 O 0.18809 0.61203 0.0205 0.0
O125 O 0.16266 0.65619 0.99483 0.0
O126 O 0.16591 0.64052 0.05833 0.0
C127 C 0.08838 0.58619 0.02191 0.0
O128 O 0.15856 0.62403 0.93085 0.0
O129 O 0.13752 0.57886 0.94257 0.0
In130 In 0.56723 0.16022 0.50994 0.0
O131 O 0.5644 0.18402 0.44812 0.0
O132 O 0.58479 0.15869 0.44187 0.0
C133 C 0.55541 0.19689 0.55448 0.0
C134 C 0.52584 0.10406 0.50896 0.0
C135 C 0.61709 0.17008 0.54834 0.0
O136 O 0.53663 0.1706 0.54942 0.0
O137 O 0.57968 0.20438 0.53703 0.0
O138 O 0.59496 0.16461 0.57107 0.0
O139 O 0.61344 0.16936 0.50687 0.0
C140 C 0.57717 0.17496 0.4231 0.0
O141 O 0.54934 0.11312 0.52992 0.0
O142 O 0.52276 0.12344 0.49019 0.0
In143 In 0.38685 0.55437 0.96541 0.0
O144 O 0.42246 0.54372 0.98 0.0
O145 O 0.37897 0.50913 0.98054 0.0
C146 C 0.42349 0.60796 0.9962 0.0
C147 C 0.38654 0.5582 0.87616 0.0
C148 C 0.33369 0.54035 0.99641 0.0
O149 O 0.40636 0.58768 0.02131 0.0
O150 O 0.42292 0.60081 0.95617 0.0
O151 O 0.33849 0.53815 0.95603 0.0
O152 O 0.35544 0.54863 0.02136 0.0
C153 C 0.40551 0.51694 0.98409 0.0
O154 O 0.38431 0.57589 0.90138 0.0
O155 O 0.38822 0.53823 0.89599 0.0
H156 H 0.60967 0.1629 0.36701 0.0
H157 H 0.55596 0.20256 0.37138 0.0
H158 H 0.61548 0.17091 0.28724 0.0
H159 H 0.56195 0.21078 0.29099 0.0
H160 H 0.54576 0.17402 0.14409 0.0
H161 H 0.54489 0.1784 0.22468 0.0
H162 H 0.63691 0.20902 0.22994 0.0
H163 H 0.63772 0.20435 0.14938 0.0
C164 C 0.59935 0.17363 0.35094 0.0
C165 C 0.58222 0.18195 0.37533 0.0
C166 C 0.60289 0.17845 0.30526 0.0
C167 C 0.58924 0.19156 0.28284 0.0
C168 C 0.5726 0.2005 0.30739 0.0
C169 C 0.56925 0.19588 0.35333 0.0
C170 C 0.5659 0.18224 0.16237 0.0
C171 C 0.59173 0.18849 0.14054 0.0
C172 C 0.56543 0.18489 0.20851 0.0
C173 C 0.59077 0.19372 0.23367 0.0
C174 C 0.61696 0.20173 0.21146 0.0
C175 C 0.61745 0.19919 0.16533 0.0
H176 H 0.38886 0.602 0.59535 0.0
H177 H 0.44905 0.57028 0.60912 0.0
H178 H 0.37679 0.59273 0.67416 0.0
H179 H 0.43755 0.56164 0.68788 0.0
H180 H 0.39006 0.52212 0.81577 0.0
H181 H 0.39816 0.52967 0.73602 0.0
H182 H 0.39806 0.61035 0.74708 0.0
H183 H 0.38925 0.60241 0.82678 0.0
C184 C 0.39961 0.5932 0.61529 0.0
C185 C 0.41985 0.58681 0.59613 0.0
C186 C 0.39279 0.58799 0.66043 0.0
C187 C 0.4061 0.57631 0.68725 0.0
C188 C 0.42651 0.57016 0.668 0.0
C189 C 0.43327 0.57531 0.62293 0.0
C190 C 0.39149 0.54132 0.80108 0.0
C191 C 0.38912 0.56172 0.82747 0.0
C192 C 0.39634 0.54576 0.75545 0.0
C193 C 0.39904 0.57075 0.73525 0.0
C194 C 0.39585 0.59076 0.76153 0.0
C195 C 0.39091 0.58627 0.8072 0.0
H196 H 0.77397 0.36314 0.18418 0.0
H197 H 0.84975 0.44792 0.19499 0.0
H198 H 0.77558 0.35622 0.26418 0.0
H199 H 0.85101 0.4413 0.27485 0.0
H200 H 0.86748 0.40606 0.40171 0.0
H201 H 0.86279 0.41192 0.32253 0.0
H202 H 0.76994 0.37307 0.33742 0.0
H203 H 0.77463 0.36664 0.41692 0.0
C204 C 0.7907 0.38044 0.20376 0.0
C205 C 0.81186 0.40598 0.18336 0.0
C206 C 0.79157 0.37651 0.24956 0.0
C207 C 0.81362 0.39807 0.27575 0.0
C208 C 0.8341 0.42403 0.25544 0.0
C209 C 0.83326 0.42792 0.20975 0.0
C210 C 0.84604 0.3986 0.38807 0.0
C211 C 0.82143 0.38594 0.41547 0.0
C212 C 0.84337 0.40219 0.34276 0.0
C213 C 0.81603 0.39329 0.32378 0.0
C214 C 0.79128 0.38001 0.35103 0.0
C215 C 0.79397 0.37638 0.3965 0.0
H216 H 0.43479 0.81114 0.8298 0.0
H217 H 0.39576 0.86425 0.85248 0.0
H218 H 0.42789 0.81306 0.74969 0.0
H219 H 0.38846 0.86572 0.77244 0.0
H220 H 0.35017 0.82731 0.6315 0.0
H221 H 0.3576 0.82696 0.71181 0.0
H222 H 0.44783 0.85413 0.68967 0.0
H223 H 0.4406 0.85496 0.60958 0.0
C224 C 0.42474 0.82319 0.81764 0.0
C225 C 0.41587 0.83761 0.84723 0.0
C226 C 0.42089 0.82436 0.77191 0.0
C227 C 0.40763 0.83952 0.75509 0.0
C228 C 0.39858 0.85377 0.78469 0.0
C229 C 0.40291 0.85304 0.83035 0.0
C230 C 0.3716 0.83337 0.64387 0.0
C231 C 0.39482 0.84122 0.61442 0.0
C232 C 0.37585 0.83324 0.6897 0.0
C233 C 0.40326 0.84044 0.70672 0.0
C234 C 0.42646 0.8483 0.67727 0.0
C235 C 0.42234 0.84893 0.63155 0.0
H236 H 0.61263 0.42278 0.34494 0.0
H237 H 0.52073 0.37483 0.37271 0.0
H238 H 0.60262 0.41136 0.26611 0.0
H239 H 0.51072 0.36366 0.29385 0.0
H240 H 0.50659 0.32742 0.15392 0.0
H241 H 0.51749 0.33589 0.23329 0.0
H242 H 0.58018 0.42511 0.20587 0.0
H243 H 0.56954 0.41662 0.12681 0.0
C244 C 0.59031 0.40975 0.3342 0.0
C245 C 0.56745 0.3998 0.36487 0.0
C246 C 0.58458 0.40332 0.28909 0.0
C247 C 0.55588 0.38671 0.27384 0.0
C248 C 0.53306 0.37628 0.30469 0.0
C249 C 0.53879 0.38283 0.34977 0.0
C250 C 0.52273 0.34879 0.16493 0.0
C251 C 0.53718 0.37137 0.13427 0.0
C252 C 0.52888 0.35367 0.21031 0.0
C253 C 0.54972 0.38115 0.22573 0.0
C254 C 0.5643 0.40362 0.19492 0.0
C255 C 0.55805 0.39879 0.14969 0.0
H256 H 0.13486 0.59102 0.62876 0.0
H257 H 0.17787 0.54232 0.65826 0.0
H258 H 0.1346 0.60132 0.70763 0.0
H259 H 0.17764 0.55273 0.73735 0.0
H260 H 0.13669 0.54829 0.87557 0.0
H261 H 0.13975 0.53932 0.79681 0.0
H262 H 0.17031 0.62925 0.76812 0.0
H263 H 0.16721 0.63826 0.84701 0.0
C264 C 0.14431 0.58257 0.65212 0.0
C265 C 0.15633 0.56581 0.63747 0.0
C266 C 0.14432 0.58863 0.6972 0.0
C267 C 0.15613 0.57785 0.72853 0.0
C268 C 0.1682 0.56111 0.71388 0.0
C269 C 0.16842 0.55526 0.66869 0.0
C270 C 0.14412 0.56615 0.85244 0.0
C271 C 0.15161 0.59395 0.86731 0.0
C272 C 0.14605 0.56104 0.80745 0.0
C273 C 0.15525 0.58358 0.77643 0.0
C274 C 0.1629 0.61144 0.79133 0.0
C275 C 0.16123 0.61661 0.83642 0.0
H276 H 0.561 0.06445 0.94778 0.0
H277 H 0.5462 0.06813 0.08817 0.0
H278 H 0.53864 0.01197 0.95269 0.0
H279 H 0.52417 0.01578 0.09312 0.0
H280 H 0.44963 0.92225 0.0604 0.0
H281 H 0.47838 0.97475 0.06459 0.0
H282 H 0.54574 0.97322 0.98646 0.0
H283 H 0.51684 0.92067 0.98188 0.0
C284 C 0.5532 0.05405 0.97969 0.0
C285 C 0.55511 0.07025 0.01749 0.0
C286 C 0.54064 0.02409 0.9826 0.0
C287 C 0.52972 0.00988 0.02333 0.0
C288 C 0.5322 0.02619 0.06128 0.0
C289 C 0.54485 0.05612 0.05841 0.0
C290 C 0.4708 0.93309 0.04484 0.0
C291 C 0.48093 0.91748 0.0205 0.0
C292 C 0.4873 0.96312 0.04735 0.0
C293 C 0.51414 0.97801 0.02544 0.0
C294 C 0.52492 0.96225 0.00307 0.0
C295 C 0.50848 0.93221 1.00074 0.0
H296 H 0.46076 0.52745 0.40642 0.0
H297 H 0.53174 0.60397 0.46495 0.0
H298 H 0.48615 0.50086 0.42149 0.0
H299 H 0.55709 0.57723 0.48009 0.0
H300 H 0.5994 0.51825 0.46781 0.0
H301 H 0.57947 0.54898 0.4453 0.0
H302 H 0.49578 0.48577 0.49688 0.0
H303 H 0.51555 0.45515 0.51938 0.0
C304 C 0.4821 0.53879 0.42144 0.0
C305 C 0.49413 0.56766 0.43501 0.0
C306 C 0.49648 0.5235 0.43046 0.0
C307 C 0.52321 0.53687 0.45286 0.0
C308 C 0.53643 0.56641 0.46296 0.0
C309 C 0.52194 0.5817 0.45419 0.0
C310 C 0.57687 0.51118 0.47495 0.0
C311 C 0.55897 0.4843 0.49524 0.0
C312 C 0.56549 0.5287 0.46193 0.0
C313 C 0.53601 0.51942 0.46858 0.0
C314 C 0.51846 0.4931 0.49049 0.0
C315 C 0.52986 0.47576 0.50385 0.0
H316 H 0.04815 0.59066 0.97172 0.0
H317 H 0.05721 0.54658 0.08586 0.0
H318 H -0.00438 0.55947 0.97444 0.0
H319 H 0.0046 0.51565 0.08892 0.0
H320 H 0.91912 0.44119 0.03702 0.0
H321 H 0.97061 0.47657 0.03882 0.0
H322 H 0.95097 0.54521 0.01896 0.0
H323 H 0.89914 0.50958 0.01672 0.0
C324 C 0.03886 0.57469 0.99794 0.0
C325 C 0.05673 0.57081 0.02834 0.0
C326 C 0.00879 0.55691 0.99954 0.0
C327 C -0.00389 0.5349 0.03149 0.0
C328 C 0.0139 0.53212 0.06342 0.0
C329 C 0.04395 0.54995 0.0619 0.0
C330 C 0.92576 0.4638 0.03275 0.0
C331 C 0.90516 0.47267 0.02673 0.0
C332 C 0.95522 0.48408 0.03427 0.0
C333 C 0.96473 0.51366 0.02971 0.0
C334 C 0.94419 0.52253 0.02257 0.0
C335 C 0.9146 0.50218 0.02123 0.0
H336 H 0.4729 0.07967 0.46846 0.0
H337 H 0.53274 0.05878 0.53331 0.0
H338 H 0.4417 0.02873 0.44918 0.0
H339 H 0.50164 0.00807 0.51398 0.0
H340 H 0.46034 0.92884 0.42838 0.0
H341 H 0.48812 0.98084 0.44058 0.0
H342 H 0.41098 0.97983 0.48794 0.0
H343 H 0.38301 0.92765 0.47572 0.0
C344 C 0.47918 0.06415 0.47903 0.0
C345 C 0.50526 0.07312 0.50226 0.0
C346 C 0.46137 0.03509 0.46794 0.0
C347 C 0.46957 0.01467 0.47946 0.0
C348 C 0.49515 0.02353 0.50395 0.0
C349 C 0.51278 0.05247 0.5154 0.0
C350 C 0.44915 0.93978 0.44043 0.0
C351 C 0.4196 0.92419 0.45154 0.0
C352 C 0.4651 0.96947 0.44778 0.0
C353 C 0.45176 0.98412 0.46604 0.0
C354 C 0.42175 0.96896 0.47396 0.0
C355 C 0.40579 0.93916 0.46688 0.0
H356 H 0.37329 0.45812 0.98805 0.0
H357 H 0.4616 0.52901 0.98626 0.0
H358 H 0.39104 0.42382 0.98455 0.0
H359 H 0.47929 0.4948 0.98332 0.0
H360 H 0.5003 0.42898 0.92701 0.0
H361 H 0.47909 0.46035 0.92821 0.0
H362 H 0.41855 0.40655 0.02929 0.0
H363 H 0.43948 0.37496 0.02767 0.0
C364 C 0.39647 0.46633 0.98751 0.0
C365 C 0.41608 0.4962 0.98732 0.0
C366 C 0.40661 0.44672 0.98548 0.0
C367 C 0.43652 0.45667 0.98305 0.0
C368 C 0.4561 0.48653 0.98422 0.0
C369 C 0.44598 0.5061 0.98638 0.0
C370 C 0.48217 0.42361 0.94894 0.0
C371 C 0.47163 0.39965 0.9774 0.0
C372 C 0.47021 0.4417 0.94994 0.0
C373 C 0.44746 0.4361 0.97932 0.0
C374 C 0.43601 0.41134 0.00624 0.0
C375 C 0.44803 0.3933 0.00533 0.0
H376 H 0.92864 0.46357 0.58592 0.0
H377 H 0.92008 0.38037 0.55717 0.0
H378 H 0.97999 0.48704 0.56668 0.0
H379 H 0.97119 0.40384 0.53708 0.0
H380 H 0.07145 0.45801 0.53827 0.0
H381 H 0.02114 0.43228 0.5632 0.0
H382 H 0.00549 0.49473 0.49568 0.0
H383 H 0.05593 0.52077 0.47151 0.0
C384 C 0.93786 0.45027 0.57642 0.0
C385 C 0.92034 0.42018 0.57274 0.0
C386 C 0.96715 0.46371 0.5648 0.0
C387 C 0.97943 0.44731 0.54937 0.0
C388 C 0.96236 0.41707 0.54876 0.0
C389 C 0.93308 0.40363 0.56036 0.0
C390 C 0.05712 0.46594 0.5281 0.0
C391 C 0.06761 0.49144 0.50306 0.0
C392 C 0.02834 0.45126 0.54252 0.0
C393 C 0.00953 0.46182 0.53215 0.0
C394 C 0.01969 0.48651 0.50519 0.0
C395 C 0.04845 0.50118 0.49079 0.0
H396 H 0.57593 0.22545 0.91751 0.0
H397 H 0.49758 0.14978 0.96107 0.0
H398 H 0.54826 0.2487 0.89784 0.0
H399 H 0.46946 0.17316 0.94111 0.0
H400 H 0.46479 0.25423 1.00093 0.0
H401 H 0.4711 0.21343 0.98297 0.0
H402 H 0.51075 0.25354 0.85809 0.0
H403 H 0.50488 0.29482 0.8766 0.0
C404 C 0.55259 0.21345 0.92157 0.0
C405 C 0.53896 0.18613 0.94167 0.0
C406 C 0.53658 0.22664 0.90979 0.0
C407 C 0.50662 0.21289 0.91832 0.0
C408 C 0.49255 0.18436 0.93449 0.0
C409 C 0.50862 0.17099 0.94587 0.0
C410 C 0.47373 0.25381 0.96879 0.0
C411 C 0.4853 0.27811 0.94089 0.0
C412 C 0.47719 0.23025 0.95828 0.0
C413 C 0.4923 0.2307 0.9197 0.0
C414 C 0.49965 0.25296 0.88857 0.0
C415 C 0.49618 0.27656 0.89911 0.0
H416 H 0.3558 0.58749 0.37703 0.0
H417 H 0.34264 0.51234 0.45042 0.0
H418 H 0.30381 0.56901 0.37621 0.0
H419 H 0.29033 0.49319 0.44825 0.0
H420 H 0.22012 0.50939 0.51453 0.0
H421 H 0.26394 0.50984 0.49129 0.0
H422 H 0.25397 0.53537 0.359 0.0
H423 H 0.21013 0.5356 0.38296 0.0
C424 C 0.34169 0.56648 0.39155 0.0
C425 C 0.35327 0.55167 0.41471 0.0
C426 C 0.31177 0.55573 0.39085 0.0
C427 C 0.29288 0.52986 0.41303 0.0
C428 C 0.30435 0.51353 0.43182 0.0
C429 C 0.3343 0.52442 0.43287 0.0
C430 C 0.22685 0.51442 0.48019 0.0
C431 C 0.21204 0.52299 0.4508 0.0
C432 C 0.25192 0.51443 0.46664 0.0
C433 C 0.26275 0.52298 0.42332 0.0
C434 C 0.24646 0.52913 0.39279 0.0
C435 C 0.22129 0.52911 0.40642 0.0
H436 H 0.79657 0.34093 0.92902 0.0
H437 H 0.78875 0.31212 0.06499 0.0
H438 H 0.76521 0.29108 0.9051 0.0
H439 H 0.75675 0.26294 0.04184 0.0
H440 H 0.68955 0.17959 0.00907 0.0
H441 H 0.7398 0.21862 0.00559 0.0
H442 H 0.7146 0.26435 0.91319 0.0
H443 H 0.66513 0.22491 0.91508 0.0
C444 C 0.78878 0.32386 0.95362 0.0
C445 C 0.79436 0.33041 0.99899 0.0
C446 C 0.7707 0.29531 0.93998 0.0
C447 C 0.75769 0.27297 0.97157 0.0
C448 C 0.76625 0.27934 0.01632 0.0
C449 C 0.78446 0.30775 0.02982 0.0
C450 C 0.69508 0.1975 0.98669 0.0
C451 C 0.67336 0.19972 0.96344 0.0
C452 C 0.72384 0.21997 0.98486 0.0
C453 C 0.73115 0.2452 0.96046 0.0
C454 C 0.70999 0.24544 0.93257 0.0
C455 C 0.68138 0.22281 0.93388 0.0
H456 H 0.4192 0.77447 0.51981 0.0
H457 H 0.43481 0.80158 0.38252 0.0
H458 H 0.44122 0.74474 0.50811 0.0
H459 H 0.45725 0.77149 0.37062 0.0
H460 H 0.44148 0.67434 0.37004 0.0
H461 H 0.4374 0.71788 0.36981 0.0
H462 H 0.48693 0.74581 0.49154 0.0
H463 H 0.4903 0.70191 0.4924 0.0
C464 C 0.42766 0.77429 0.48715 0.0
C465 C 0.42507 0.7901 0.45196 0.0
C466 C 0.44064 0.75751 0.48055 0.0
C467 C 0.45125 0.75598 0.43851 0.0
C468 C 0.44929 0.77233 0.40337 0.0
C469 C 0.43648 0.78948 0.41016 0.0
C470 C 0.45238 0.69028 0.39586 0.0
C471 C 0.46559 0.6845 0.43182 0.0
C472 C 0.45011 0.71528 0.39567 0.0
C473 C 0.46121 0.73484 0.43129 0.0
C474 C 0.47757 0.73071 0.46422 0.0
C475 C 0.4796 0.70566 0.46463 0.0
H476 H 0.61934 0.43446 0.97622 0.0
H477 H 0.60099 0.34711 0.95313 0.0
H478 H 0.67145 0.45115 0.97577 0.0
H479 H 0.65278 0.36372 0.95231 0.0
H480 H 0.74775 0.40155 0.93369 0.0
H481 H 0.70049 0.39542 0.91336 0.0
H482 H 0.70094 0.4408 0.0323 0.0
H483 H 0.74811 0.44687 0.05272 0.0
C484 C 0.62647 0.41899 0.96994 0.0
C485 C 0.60622 0.38948 0.96506 0.0
C486 C 0.65622 0.42851 0.96988 0.0
C487 C 0.66612 0.40872 0.96414 0.0
C488 C 0.64582 0.37952 0.95636 0.0
C489 C 0.61617 0.36997 0.9571 0.0
C490 C 0.73807 0.41082 0.95494 0.0
C491 C 0.75141 0.42439 0.99506 0.0
C492 C 0.71101 0.40723 0.94335 0.0
C493 C 0.69698 0.41744 0.97142 0.0
C494 C 0.71134 0.4329 0.00985 0.0
C495 C 0.73827 0.43623 0.02168 0.0
H496 H 0.19242 0.62594 0.38733 0.0
H497 H 0.20481 0.64973 0.526 0.0
H498 H 0.22165 0.67729 0.36678 0.0
H499 H 0.23336 0.70022 0.50594 0.0
H500 H 0.27707 0.7889 0.47322 0.0
H501 H 0.23324 0.7417 0.46972 0.0
H502 H 0.27532 0.71251 0.37738 0.0
H503 H 0.31889 0.75995 0.37996 0.0
C504 C 0.20089 0.64217 0.41325 0.0
C505 C 0.19673 0.63401 0.4582 0.0
C506 C 0.21755 0.67142 0.40155 0.0
C507 C 0.2296 0.69279 0.43472 0.0
C508 C 0.22398 0.68444 0.47951 0.0
C509 C 0.2079 0.65543 0.49107 0.0
C510 C 0.27656 0.77276 0.45084 0.0
C511 C 0.30156 0.77779 0.42775 0.0
C512 C 0.25149 0.74573 0.4489 0.0
C513 C 0.25118 0.72322 0.42425 0.0
C514 C 0.27492 0.72941 0.39673 0.0
C515 C 0.29995 0.75658 0.39837 0.0
H516 H 0.81307 0.46468 0.5319 0.0
H517 H 0.76274 0.40187 0.63263 0.0
H518 H 0.77561 0.47816 0.52574 0.0
H519 H 0.72506 0.41503 0.62592 0.0
H520 H 0.66108 0.44644 0.60727 0.0
H521 H 0.70745 0.45058 0.62936 0.0
H522 H 0.72781 0.44753 0.49125 0.0
H523 H 0.68193 0.44349 0.46945 0.0
C524 C 0.7944 0.45433 0.55364 0.0
C525 C 0.79055 0.43183 0.58212 0.0
C526 C 0.77289 0.46197 0.54995 0.0
C527 C 0.74713 0.44721 0.57462 0.0
C528 C 0.74468 0.42683 0.60649 0.0
C529 C 0.76625 0.41922 0.61024 0.0
C530 C 0.67581 0.44725 0.58173 0.0
C531 C 0.66789 0.44442 0.53668 0.0
C532 C 0.70225 0.44953 0.59437 0.0
C533 C 0.7213 0.44944 0.56207 0.0
C534 C 0.71388 0.44813 0.51695 0.0
C535 C 0.68744 0.44554 0.50443 0.0
H536 H 0.3438 0.80225 0.09015 0.0
H537 H 0.32298 0.78718 0.95051 0.0
H538 H 0.29195 0.77481 0.1082 0.0
H539 H 0.27188 0.7598 0.96815 0.0
H540 H 0.18268 0.7124 0.99442 0.0
H541 H 0.22873 0.7576 0.99736 0.0
H542 H 0.25733 0.72314 0.10358 0.0
H543 H 0.21094 0.67857 0.1018 0.0
C544 C 0.32813 0.79351 0.06337 0.0
C545 C 0.33734 0.7964 0.01899 0.0
C546 C 0.29852 0.77784 0.07367 0.0
C547 C 0.27773 0.76512 0.03967 0.0
C548 C 0.28712 0.76967 0.99523 0.0
C549 C 0.31653 0.78506 0.98506 0.0
C550 C 0.19834 0.71503 0.0197 0.0
C551 C 0.19363 0.69179 0.04706 0.0
C552 C 0.22478 0.74083 0.02122 0.0
C553 C 0.24706 0.74353 0.04956 0.0
C554 C 0.24073 0.72176 0.08117 0.0
C555 C 0.21409 0.6961 0.08008 0.0
H556 H 0.5944 0.24968 0.58592 0.0
H557 H 0.50242 0.19223 0.56898 0.0
H558 H 0.58568 0.28904 0.60349 0.0
H559 H 0.4935 0.23192 0.58684 0.0
H560 H 0.51338 0.31978 0.5136 0.0
H561 H 0.50615 0.27301 0.53628 0.0
H562 H 0.56434 0.31293 0.64714 0.0
H563 H 0.57176 0.36008 0.62398 0.0
C564 C 0.5722 0.24531 0.58725 0.0
C565 C 0.54914 0.21817 0.57514 0.0
C566 C 0.56713 0.2678 0.59787 0.0
C567 C 0.53888 0.26368 0.59613 0.0
C568 C 0.51551 0.23575 0.58809 0.0
C569 C 0.5206 0.21308 0.57788 0.0
C570 C 0.52378 0.31842 0.54378 0.0
C571 C 0.54369 0.34354 0.5664 0.0
C572 C 0.51944 0.29154 0.55706 0.0
C573 C 0.53516 0.28937 0.593 0.0
C574 C 0.55228 0.31407 0.61891 0.0
C575 C 0.55646 0.34102 0.60575 0.0
H576 H 0.16471 0.52951 0.02188 0.0
H577 H 0.23377 0.61454 0.05768 0.0
H578 H 0.19904 0.51146 0.0236 0.0
H579 H 0.26783 0.59655 0.0598 0.0
H580 H 0.32274 0.55641 0.07677 0.0
H581 H 0.28099 0.56167 0.09627 0.0
H582 H 0.24117 0.52437 0.97021 0.0
H583 H 0.28289 0.51921 0.9506 0.0
C584 C 0.18702 0.54411 0.03131 0.0
C585 C 0.19672 0.57346 0.03929 0.0
C586 C 0.20663 0.53382 0.03211 0.0
C587 C 0.23606 0.55263 0.0417 0.0
C588 C 0.24522 0.58148 0.05275 0.0
C589 C 0.22577 0.59184 0.05126 0.0
C590 C 0.30472 0.54862 0.05374 0.0
C591 C 0.30617 0.53774 0.01192 0.0
C592 C 0.2809 0.55172 0.06487 0.0
C593 C 0.258 0.54364 0.03461 0.0
C594 C 0.25841 0.53058 0.99432 0.0
C595 C 0.28237 0.52778 0.98298 0.0
H596 H 0.63399 0.18575 0.63478 0.0
H597 H 0.66638 0.18182 0.50504 0.0
H598 H 0.68358 0.2179 0.66008 0.0
H599 H 0.71521 0.21464 0.52899 0.0
H600 H 0.7995 0.2818 0.56064 0.0
H601 H 0.75812 0.23313 0.56764 0.0
H602 H 0.71342 0.26697 0.64581 0.0
H603 H 0.75559 0.3149 0.64138 0.0
C604 C 0.65176 0.1911 0.61207 0.0
C605 C 0.64635 0.18193 0.56764 0.0
C606 C 0.68018 0.20975 0.6264 0.0
C607 C 0.70353 0.2197 0.59635 0.0
C608 C 0.6981 0.20763 0.55343 0.0
C609 C 0.66987 0.18888 0.53936 0.0
C610 C 0.78117 0.27848 0.58067 0.0
C611 C 0.78035 0.30203 0.5997 0.0
C612 C 0.75734 0.25066 0.58446 0.0
C613 C 0.73186 0.24611 0.60588 0.0
C614 C 0.73249 0.26936 0.62903 0.0
C615 C 0.75667 0.29703 0.62628 0.0
H616 H 0.42385 0.62975 0.07857 0.0
H617 H 0.45691 0.65508 0.94531 0.0
H618 H 0.43813 0.67978 0.09581 0.0
H619 H 0.47009 0.70451 0.96168 0.0
H620 H 0.4889 0.79169 0.99024 0.0
H621 H 0.49516 0.74959 0.99805 0.0
H622 H 0.41531 0.70618 0.07309 0.0
H623 H 0.40987 0.74854 0.06681 0.0
C624 C 0.43483 0.64612 0.05333 0.0
C625 C 0.43872 0.63846 0.01032 0.0
C626 C 0.44283 0.67475 0.06309 0.0
C627 C 0.45463 0.69612 0.02987 0.0
C628 C 0.46119 0.6888 0.98826 0.0
C629 C 0.45341 0.6603 0.97867 0.0
C630 C 0.47315 0.77339 0.0094 0.0
C631 C 0.4486 0.7731 0.02717 0.0
C632 C 0.47666 0.74923 0.01375 0.0
C633 C 0.45547 0.72422 0.03543 0.0
C634 C 0.43224 0.72503 0.05645 0.0
C635 C 0.42893 0.74929 0.05253 0.0
loop_
_geom_bond_atom_site_label_1
_geom_bond_atom_site_label_2
_geom_bond_distance
_geom_bond_site_symmetry_2
_ccdc_geom_bond_type
In0 O1 2.296 . S
In0 O2 2.328 . S
In0 O6 2.266 1_554 S
In0 O7 2.324 1_554 S
In0 O8 2.265 1_554 S
In0 O9 2.326 . S
In0 O11 2.293 1_554 S
In0 O12 2.326 . S
O1 In0 2.296 . S
O1 C10 1.240 . S
O2 In0 2.328 . S
O2 C10 1.252 . S
C3 O6 1.252 . S
C3 O7 1.260 . S
C4 O11 1.240 . S
C4 O12 1.252 1_556 S
C5 O8 1.252 . S
C5 O9 1.260 1_556 S
O6 In0 2.266 1_556 S
O6 C3 1.252 . S
O7 In0 2.324 1_556 S
O7 C3 1.260 . S
O8 In0 2.265 1_556 S
O8 C5 1.252 . S
O9 In0 2.326 . S
O9 C5 1.260 1_554 S
C10 O1 1.240 . S
C10 O2 1.252 . S
O11 In0 2.293 1_556 S
O11 C4 1.240 . S
O12 In0 2.326 . S
O12 C4 1.252 1_554 S
In13 O14 2.294 . S
In13 O15 2.326 . S
In13 O19 2.266 . S
In13 O20 2.326 . S
In13 O21 2.266 . S
In13 O22 2.326 . S
In13 O24 2.294 . S
In13 O25 2.326 . S
O14 In13 2.294 . S
O14 C23 1.240 . S
O15 In13 2.326 . S
O15 C23 1.252 . S
C16 O19 1.252 . S
C16 O20 1.260 . S
C17 O24 1.240 . S
C17 O25 1.252 . S
C18 O21 1.252 . S
C18 O22 1.260 . S
O19 In13 2.266 . S
O19 C16 1.252 . S
O20 In13 2.326 . S
O20 C16 1.260 . S
O21 In13 2.266 . S
O21 C18 1.252 . S
O22 In13 2.326 . S
O22 C18 1.260 . S
C23 O14 1.240 . S
C23 O15 1.252 . S
O24 In13 2.294 . S
O24 C17 1.240 . S
O25 In13 2.326 . S
O25 C17 1.252 . S
In26 O27 2.293 1_554 S
In26 O28 2.326 . S
In26 O32 2.265 1_554 S
In26 O33 2.326 . S
In26 O34 2.266 1_554 S
In26 O35 2.324 1_554 S
In26 O37 2.296 . S
In26 O38 2.328 . S
O27 In26 2.293 1_556 S
O27 C36 1.240 . S
O28 In26 2.326 . S
O28 C36 1.252 1_554 S
C29 O32 1.252 . S
C29 O33 1.260 1_556 S
C30 O37 1.240 . S
C30 O38 1.252 . S
C31 O34 1.252 . S
C31 O35 1.260 . S
O32 In26 2.265 1_556 S
O32 C29 1.252 . S
O33 In26 2.326 . S
O33 C29 1.260 1_554 S
O34 In26 2.266 1_556 S
O34 C31 1.252 . S
O35 In26 2.324 1_556 S
O35 C31 1.260 . S
C36 O27 1.240 . S
C36 O28 1.252 1_556 S
O37 In26 2.296 . S
O37 C30 1.240 . S
O38 In26 2.328 . S
O38 C30 1.252 . S
In39 O40 2.294 . S
In39 O41 2.326 . S
In39 O45 2.266 . S
In39 O46 2.326 . S
In39 O47 2.266 . S
In39 O48 2.326 . S
In39 O50 2.294 . S
In39 O51 2.326 . S
O40 In39 2.294 . S
O40 C49 1.240 . S
O41 In39 2.326 . S
O41 C49 1.252 . S
C42 O45 1.252 . S
C42 O46 1.260 . S
C43 O50 1.240 . S
C43 O51 1.252 . S
C44 O47 1.252 . S
C44 O48 1.260 . S
O45 In39 2.266 . S
O45 C42 1.252 . S
O46 In39 2.326 . S
O46 C42 1.260 . S
O47 In39 2.266 . S
O47 C44 1.252 . S
O48 In39 2.326 . S
O48 C44 1.260 . S
C49 O40 1.240 . S
C49 O41 1.252 . S
O50 In39 2.294 . S
O50 C43 1.240 . S
O51 In39 2.326 . S
O51 C43 1.252 . S
In52 O53 2.296 . S
In52 O54 2.328 . S
In52 O58 2.266 1_554 S
In52 O59 2.324 1_554 S
In52 O60 2.265 1_554 S
In52 O61 2.326 . S
In52 O63 2.293 1_554 S
In52 O64 2.326 . S
O53 In52 2.296 . S
O53 C62 1.240 . S
O54 In52 2.328 . S
O54 C62 1.252 . S
C55 O58 1.252 . S
C55 O59 1.260 . S
C56 O63 1.240 . S
C56 O64 1.252 1_556 S
C57 O60 1.252 . S
C57 O61 1.260 1_556 S
O58 In52 2.266 1_556 S
O58 C55 1.252 . S
O59 In52 2.324 1_556 S
O59 C55 1.260 . S
O60 In52 2.265 1_556 S
O60 C57 1.252 . S
O61 In52 2.326 . S
O61 C57 1.260 1_554 S
C62 O53 1.240 . S
C62 O54 1.252 . S
O63 In52 2.293 1_556 S
O63 C56 1.240 . S
O64 In52 2.326 . S
O64 C56 1.252 1_554 S
In65 O66 2.294 . S
In65 O67 2.326 . S
In65 O71 2.266 . S
In65 O72 2.326 . S
In65 O73 2.266 . S
In65 O74 2.326 . S
In65 O76 2.294 . S
In65 O77 2.326 . S
O66 In65 2.294 . S
O66 C75 1.240 . S
O67 In65 2.326 . S
O67 C75 1.252 . S
C68 O71 1.252 . S
C68 O72 1.260 . S
C69 O76 1.240 . S
C69 O77 1.252 . S
C70 O73 1.252 . S
C70 O74 1.260 . S
O71 In65 2.266 . S
O71 C68 1.252 . S
O72 In65 2.326 . S
O72 C68 1.260 . S
O73 In65 2.266 . S
O73 C70 1.252 . S
O74 In65 2.326 . S
O74 C70 1.260 . S
C75 O66 1.240 . S
C75 O67 1.252 . S
O76 In65 2.294 . S
O76 C69 1.240 . S
O77 In65 2.326 . S
O77 C69 1.252 . S
In78 O79 2.294 . S
In78 O80 2.326 . S
In78 O84 2.266 . S
In78 O85 2.326 . S
In78 O86 2.266 . S
In78 O87 2.326 . S
In78 O89 2.294 . S
In78 O90 2.326 . S
O79 In78 2.294 . S
O79 C88 1.240 . S
O80 In78 2.326 . S
O80 C88 1.252 . S
C81 O84 1.252 . S
C81 O85 1.260 . S
C82 O89 1.240 . S
C82 O90 1.252 . S
C83 O86 1.252 . S
C83 O87 1.260 . S
O84 In78 2.266 . S
O84 C81 1.252 . S
O85 In78 2.326 . S
O85 C81 1.260 . S
O86 In78 2.266 . S
O86 C83 1.252 . S
O87 In78 2.326 . S
O87 C83 1.260 . S
C88 O79 1.240 . S
C88 O80 1.252 . S
O89 In78 2.294 . S
O89 C82 1.240 . S
O90 In78 2.326 . S
O90 C82 1.252 . S
In91 O92 2.293 1_556 S
In91 O93 2.326 . S
In91 O97 2.265 1_556 S
In91 O98 2.326 . S
In91 O99 2.266 1_556 S
In91 O100 2.324 1_556 S
In91 O102 2.296 . S
In91 O103 2.328 . S
O92 In91 2.293 1_554 S
O92 C101 1.240 . S
O93 In91 2.326 . S
O93 C101 1.252 1_556 S
C94 O97 1.252 . S
C94 O98 1.260 1_554 S
C95 O102 1.240 . S
C95 O103 1.252 . S
C96 O99 1.252 . S
C96 O100 1.260 . S
O97 In91 2.265 1_554 S
O97 C94 1.252 . S
O98 In91 2.326 . S
O98 C94 1.260 1_556 S
O99 In91 2.266 1_554 S
O99 C96 1.252 . S
O100 In91 2.324 1_554 S
O100 C96 1.260 . S
C101 O92 1.240 . S
C101 O93 1.252 1_554 S
O102 In91 2.296 . S
O102 C95 1.240 . S
O103 In91 2.328 . S
O103 C95 1.252 . S
In104 O105 2.294 . S
In104 O106 2.326 . S
In104 O110 2.266 . S
In104 O111 2.326 . S
In104 O112 2.266 . S
In104 O113 2.326 . S
In104 O115 2.294 . S
In104 O116 2.326 . S
O105 In104 2.294 . S
O105 C114 1.240 . S
O106 In104 2.326 . S
O106 C114 1.252 . S
C107 O110 1.252 . S
C107 O111 1.260 . S
C108 O115 1.240 . S
C108 O116 1.252 . S
C109 O112 1.252 . S
C109 O113 1.260 . S
O110 In104 2.266 . S
O110 C107 1.252 . S
O111 In104 2.326 . S
O111 C107 1.260 . S
O112 In104 2.266 . S
O112 C109 1.252 . S
O113 In104 2.326 . S
O113 C109 1.260 . S
C114 O105 1.240 . S
C114 O106 1.252 . S
O115 In104 2.294 . S
O115 C108 1.240 . S
O116 In104 2.326 . S
O116 C108 1.252 . S
In117 O118 2.293 1_556 S
In117 O119 2.326 . S
In117 O123 2.265 1_556 S
In117 O124 2.326 . S
In117 O125 2.266 1_556 S
In117 O126 2.324 1_556 S
In117 O128 2.296 . S
In117 O129 2.328 . S
O118 In117 2.293 1_554 S
O118 C127 1.240 . S
O119 In117 2.326 . S
O119 C127 1.252 1_556 S
C120 O123 1.252 . S
C120 O124 1.260 1_554 S
C121 O128 1.240 . S
C121 O129 1.252 . S
C122 O125 1.252 . S
C122 O126 1.260 . S
O123 In117 2.265 1_554 S
O123 C120 1.252 . S
O124 In117 2.326 . S
O124 C120 1.260 1_556 S
O125 In117 2.266 1_554 S
O125 C122 1.252 . S
O126 In117 2.324 1_554 S
O126 C122 1.260 . S
C127 O118 1.240 . S
C127 O119 1.252 1_554 S
O128 In117 2.296 . S
O128 C121 1.240 . S
O129 In117 2.328 . S
O129 C121 1.252 . S
In130 O131 2.294 . S
In130 O132 2.326 . S
In130 O136 2.266 . S
In130 O137 2.326 . S
In130 O138 2.266 . S
In130 O139 2.326 . S
In130 O141 2.294 . S
In130 O142 2.326 . S
O131 In130 2.294 . S
O131 C140 1.240 . S
O132 In130 2.326 . S
O132 C140 1.252 . S
C133 O136 1.252 . S
C133 O137 1.260 . S
C134 O141 1.240 . S
C134 O142 1.252 . S
C135 O138 1.252 . S
C135 O139 1.260 . S
O136 In130 2.266 . S
O136 C133 1.252 . S
O137 In130 2.326 . S
O137 C133 1.260 . S
O138 In130 2.266 . S
O138 C135 1.252 . S
O139 In130 2.326 . S
O139 C135 1.260 . S
C140 O131 1.240 . S
C140 O132 1.252 . S
O141 In130 2.294 . S
O141 C134 1.240 . S
O142 In130 2.326 . S
O142 C134 1.252 . S
In143 O144 2.293 1_556 S
In143 O145 2.326 . S
In143 O149 2.265 1_556 S
In143 O150 2.326 . S
In143 O151 2.266 1_556 S
In143 O152 2.324 1_556 S
In143 O154 2.296 . S
In143 O155 2.328 . S
O144 In143 2.293 1_554 S
O144 C153 1.240 . S
O145 In143 2.326 . S
O145 C153 1.252 1_556 S
C146 O149 1.252 . S
C146 O150 1.260 1_554 S
C147 O154 1.240 . S
C147 O155 1.252 . S
C148 O151 1.252 . S
C148 O152 1.260 . S
O149 In143 2.265 1_554 S
O149 C146 1.252 . S
O150 In143 2.326 . S
O150 C146 1.260 1_556 S
O151 In143 2.266 1_554 S
O151 C148 1.252 . S
O152 In143 2.324 1_554 S
O152 C148 1.260 . S
C153 O144 1.240 . S
C153 O145 1.252 1_554 S
O154 In143 2.296 . S
O154 C147 1.240 . S
O155 In143 2.328 . S
O155 C147 1.252 . S
H156 C164 0.950 . S
H157 C169 0.950 . S
H158 C166 0.950 . S
H159 C168 0.950 . S
H160 C170 0.950 . S
H161 C172 0.950 . S
H162 C174 0.950 . S
H163 C175 0.950 . S
C164 H156 0.950 . S
C164 C165 1.386 . S
C164 C166 1.391 . S
C165 C164 1.386 . S
C165 C169 1.393 . S
C166 H158 0.950 . S
C166 C164 1.391 . S
C166 C167 1.400 . S
C167 C166 1.400 . S
C167 C168 1.398 . S
C167 C173 1.491 . S
C168 H159 0.950 . S
C168 C167 1.398 . S
C168 C169 1.391 . S
C169 H157 0.950 . S
C169 C165 1.393 . S
C169 C168 1.391 . S
C170 H160 0.950 . S
C170 C171 1.386 . S
C170 C172 1.391 . S
C171 C170 1.386 . S
C171 C175 1.393 . S
C172 H161 0.950 . S
C172 C170 1.391 . S
C172 C173 1.400 . S
C173 C167 1.491 . S
C173 C172 1.400 . S
C173 C174 1.398 . S
C174 H162 0.950 . S
C174 C173 1.398 . S
C174 C175 1.391 . S
C175 H163 0.950 . S
C175 C171 1.393 . S
C175 C174 1.391 . S
H176 C184 0.950 . S
H177 C189 0.950 . S
H178 C186 0.950 . S
H179 C188 0.950 . S
H180 C190 0.950 . S
H181 C192 0.950 . S
H182 C194 0.950 . S
H183 C195 0.950 . S
C184 H176 0.950 . S
C184 C185 1.386 . S
C184 C186 1.391 . S
C185 C184 1.386 . S
C185 C189 1.393 . S
C186 H178 0.950 . S
C186 C184 1.391 . S
C186 C187 1.400 . S
C187 C186 1.400 . S
C187 C188 1.398 . S
C187 C193 1.491 . S
C188 H179 0.950 . S
C188 C187 1.398 . S
C188 C189 1.391 . S
C189 H177 0.950 . S
C189 C185 1.393 . S
C189 C188 1.391 . S
C190 H180 0.950 . S
C190 C191 1.386 . S
C190 C192 1.391 . S
C191 C190 1.386 . S
C191 C195 1.393 . S
C192 H181 0.950 . S
C192 C190 1.391 . S
C192 C193 1.400 . S
C193 C187 1.491 . S
C193 C192 1.400 . S
C193 C194 1.398 . S
C194 H182 0.950 . S
C194 C193 1.398 . S
C194 C195 1.391 . S
C195 H183 0.950 . S
C195 C191 1.393 . S
C195 C194 1.391 . S
H196 C204 0.950 . S
H197 C209 0.950 . S
H198 C206 0.950 . S
H199 C208 0.950 . S
H200 C210 0.950 . S
H201 C212 0.950 . S
H202 C214 0.950 . S
H203 C215 0.950 . S
C204 H196 0.950 . S
C204 C205 1.386 . S
C204 C206 1.391 . S
C205 C204 1.386 . S
C205 C209 1.393 . S
C206 H198 0.950 . S
C206 C204 1.391 . S
C206 C207 1.400 . S
C207 C206 1.400 . S
C207 C208 1.398 . S
C207 C213 1.491 . S
C208 H199 0.950 . S
C208 C207 1.398 . S
C208 C209 1.391 . S
C209 H197 0.950 . S
C209 C205 1.393 . S
C209 C208 1.391 . S
C210 H200 0.950 . S
C210 C211 1.386 . S
C210 C212 1.391 . S
C211 C210 1.386 . S
C211 C215 1.393 . S
C212 H201 0.950 . S
C212 C210 1.391 . S
C212 C213 1.400 . S
C213 C207 1.491 . S
C213 C212 1.400 . S
C213 C214 1.398 . S
C214 H202 0.950 . S
C214 C213 1.398 . S
C214 C215 1.391 . S
C215 H203 0.950 . S
C215 C211 1.393 . S
C215 C214 1.391 . S
H216 C224 0.950 . S
H217 C229 0.950 . S
H218 C226 0.950 . S
H219 C228 0.950 . S
H220 C230 0.950 . S
H221 C232 0.950 . S
H222 C234 0.950 . S
H223 C235 0.950 . S
C224 H216 0.950 . S
C224 C225 1.386 . S
C224 C226 1.391 . S
C225 C224 1.386 . S
C225 C229 1.393 . S
C226 H218 0.950 . S
C226 C224 1.391 . S
C226 C227 1.400 . S
C227 C226 1.400 . S
C227 C228 1.398 . S
C227 C233 1.491 . S
C228 H219 0.950 . S
C228 C227 1.398 . S
C228 C229 1.391 . S
C229 H217 0.950 . S
C229 C225 1.393 . S
C229 C228 1.391 . S
C230 H220 0.950 . S
C230 C231 1.386 . S
C230 C232 1.391 . S
C231 C230 1.386 . S
C231 C235 1.393 . S
C232 H221 0.950 . S
C232 C230 1.391 . S
C232 C233 1.400 . S
C233 C227 1.491 . S
C233 C232 1.400 . S
C233 C234 1.398 . S
C234 H222 0.950 . S
C234 C233 1.398 . S
C234 C235 1.391 . S
C235 H223 0.950 . S
C235 C231 1.393 . S
C235 C234 1.391 . S
H236 C244 0.950 . S
H237 C249 0.950 . S
H238 C246 0.950 . S
H239 C248 0.950 . S
H240 C250 0.950 . S
H241 C252 0.950 . S
H242 C254 0.950 . S
H243 C255 0.950 . S
C244 H236 0.950 . S
C244 C245 1.386 . S
C244 C246 1.391 . S
C245 C244 1.386 . S
C245 C249 1.393 . S
C246 H238 0.950 . S
C246 C244 1.391 . S
C246 C247 1.400 . S
C247 C246 1.400 . S
C247 C248 1.398 . S
C247 C253 1.491 . S
C248 H239 0.950 . S
C248 C247 1.398 . S
C248 C249 1.391 . S
C249 H237 0.950 . S
C249 C245 1.393 . S
C249 C248 1.391 . S
C250 H240 0.950 . S
C250 C251 1.386 . S
C250 C252 1.391 . S
C251 C250 1.386 . S
C251 C255 1.393 . S
C252 H241 0.950 . S
C252 C250 1.391 . S
C252 C253 1.400 . S
C253 C247 1.491 . S
C253 C252 1.400 . S
C253 C254 1.398 . S
C254 H242 0.950 . S
C254 C253 1.398 . S
C254 C255 1.391 . S
C255 H243 0.950 . S
C255 C251 1.393 . S
C255 C254 1.391 . S
H256 C264 0.950 . S
H257 C269 0.950 . S
H258 C266 0.950 . S
H259 C268 0.950 . S
H260 C270 0.950 . S
H261 C272 0.950 . S
H262 C274 0.950 . S
H263 C275 0.950 . S
C264 H256 0.950 . S
C264 C265 1.386 . S
C264 C266 1.391 . S
C265 C264 1.386 . S
C265 C269 1.393 . S
C266 H258 0.950 . S
C266 C264 1.391 . S
C266 C267 1.400 . S
C267 C266 1.400 . S
C267 C268 1.398 . S
C267 C273 1.491 . S
C268 H259 0.950 . S
C268 C267 1.398 . S
C268 C269 1.391 . S
C269 H257 0.950 . S
C269 C265 1.393 . S
C269 C268 1.391 . S
C270 H260 0.950 . S
C270 C271 1.386 . S
C270 C272 1.391 . S
C271 C270 1.386 . S
C271 C275 1.393 . S
C272 H261 0.950 . S
C272 C270 1.391 . S
C272 C273 1.400 . S
C273 C267 1.491 . S
C273 C272 1.400 . S
C273 C274 1.398 . S
C274 H262 0.950 . S
C274 C273 1.398 . S
C274 C275 1.391 . S
C275 H263 0.950 . S
C275 C271 1.393 . S
C275 C274 1.391 . S
H276 C284 0.950 . S
H277 C289 0.950 . S
H278 C286 0.950 . S
H279 C288 0.950 . S
H280 C290 0.950 . S
H281 C292 0.950 . S
H282 C294 0.950 . S
H283 C295 0.950 . S
C284 H276 0.950 . S
C284 C285 1.386 . S
C284 C286 1.391 . S
C285 C284 1.386 . S
C285 C289 1.393 1_556 S
C286 H278 0.950 . S
C286 C284 1.391 . S
C286 C287 1.400 . S
C287 C286 1.400 . S
C287 C288 1.398 1_556 S
C287 C293 1.491 1_546 S
C288 H279 0.950 . S
C288 C287 1.398 1_554 S
C288 C289 1.391 . S
C289 H277 0.950 . S
C289 C285 1.393 1_554 S
C289 C288 1.391 . S
C290 H280 0.950 . S
C290 C291 1.386 . S
C290 C292 1.391 . S
C291 C290 1.386 . S
C291 C295 1.393 1_554 S
C292 H281 0.950 . S
C292 C290 1.391 . S
C292 C293 1.400 . S
C293 C287 1.491 1_564 S
C293 C292 1.400 . S
C293 C294 1.398 1_554 S
C294 H282 0.950 . S
C294 C293 1.398 1_556 S
C294 C295 1.391 . S
C295 H283 0.950 . S
C295 C291 1.393 1_556 S
C295 C294 1.391 . S
H296 C304 0.950 . S
H297 C309 0.950 . S
H298 C306 0.950 . S
H299 C308 0.950 . S
H300 C310 0.950 . S
H301 C312 0.950 . S
H302 C314 0.950 . S
H303 C315 0.950 . S
C304 H296 0.950 . S
C304 C305 1.386 . S
C304 C306 1.391 . S
C305 C304 1.386 . S
C305 C309 1.393 . S
C306 H298 0.950 . S
C306 C304 1.391 . S
C306 C307 1.400 . S
C307 C306 1.400 . S
C307 C308 1.398 . S
C307 C313 1.491 . S
C308 H299 0.950 . S
C308 C307 1.398 . S
C308 C309 1.391 . S
C309 H297 0.950 . S
C309 C305 1.393 . S
C309 C308 1.391 . S
C310 H300 0.950 . S
C310 C311 1.386 . S
C310 C312 1.391 . S
C311 C310 1.386 . S
C311 C315 1.393 . S
C312 H301 0.950 . S
C312 C310 1.391 . S
C312 C313 1.400 . S
C313 C307 1.491 . S
C313 C312 1.400 . S
C313 C314 1.398 . S
C314 H302 0.950 . S
C314 C313 1.398 . S
C314 C315 1.391 . S
C315 H303 0.950 . S
C315 C311 1.393 . S
C315 C314 1.391 . S
H316 C324 0.950 . S
H317 C329 0.950 . S
H318 C326 0.950 1_556 S
H319 C328 0.950 . S
H320 C330 0.950 . S
H321 C332 0.950 1_554 S
H322 C334 0.950 . S
H323 C335 0.950 . S
C324 H316 0.950 . S
C324 C325 1.386 . S
C324 C326 1.391 . S
C325 C324 1.386 . S
C325 C329 1.393 . S
C326 H318 0.950 1_554 S
C326 C324 1.391 . S
C326 C327 1.400 . S
C327 C326 1.400 . S
C327 C328 1.398 . S
C327 C333 1.491 1_454 S
C328 H319 0.950 . S
C328 C327 1.398 . S
C328 C329 1.391 . S
C329 H317 0.950 . S
C329 C325 1.393 . S
C329 C328 1.391 . S
C330 H320 0.950 . S
C330 C331 1.386 . S
C330 C332 1.391 . S
C331 C330 1.386 . S
C331 C335 1.393 . S
C332 H321 0.950 1_556 S
C332 C330 1.391 . S
C332 C333 1.400 . S
C333 C327 1.491 1_656 S
C333 C332 1.400 . S
C333 C334 1.398 . S
C334 H322 0.950 . S
C334 C333 1.398 . S
C334 C335 1.391 . S
C335 H323 0.950 . S
C335 C331 1.393 . S
C335 C334 1.391 . S
H336 C344 0.950 . S
H337 C349 0.950 . S
H338 C346 0.950 . S
H339 C348 0.950 . S
H340 C350 0.950 . S
H341 C352 0.950 . S
H342 C354 0.950 . S
H343 C355 0.950 . S
C344 H336 0.950 . S
C344 C345 1.386 . S
C344 C346 1.391 . S
C345 C344 1.386 . S
C345 C349 1.393 . S
C346 H338 0.950 . S
C346 C344 1.391 . S
C346 C347 1.400 . S
C347 C346 1.400 . S
C347 C348 1.398 . S
C347 C353 1.491 1_545 S
C348 H339 0.950 . S
C348 C347 1.398 . S
C348 C349 1.391 . S
C349 H337 0.950 . S
C349 C345 1.393 . S
C349 C348 1.391 . S
C350 H340 0.950 . S
C350 C351 1.386 . S
C350 C352 1.391 . S
C351 C350 1.386 . S
C351 C355 1.393 . S
C352 H341 0.950 . S
C352 C350 1.391 . S
C352 C353 1.400 . S
C353 C347 1.491 1_565 S
C353 C352 1.400 . S
C353 C354 1.398 . S
C354 H342 0.950 . S
C354 C353 1.398 . S
C354 C355 1.391 . S
C355 H343 0.950 . S
C355 C351 1.393 . S
C355 C354 1.391 . S
H356 C364 0.950 . S
H357 C369 0.950 . S
H358 C366 0.950 . S
H359 C368 0.950 . S
H360 C370 0.950 . S
H361 C372 0.950 . S
H362 C374 0.950 . S
H363 C375 0.950 . S
C364 H356 0.950 . S
C364 C365 1.386 1_556 S
C364 C366 1.391 . S
C365 C364 1.386 1_554 S
C365 C369 1.393 . S
C366 H358 0.950 . S
C366 C364 1.391 . S
C366 C367 1.400 1_556 S
C367 C366 1.400 1_554 S
C367 C368 1.398 . S
C367 C373 1.491 1_554 S
C368 H359 0.950 . S
C368 C367 1.398 . S
C368 C369 1.391 . S
C369 H357 0.950 . S
C369 C365 1.393 . S
C369 C368 1.391 . S
C370 H360 0.950 . S
C370 C371 1.386 1_554 S
C370 C372 1.391 . S
C371 C370 1.386 1_556 S
C371 C375 1.393 . S
C372 H361 0.950 . S
C372 C370 1.391 . S
C372 C373 1.400 1_554 S
C373 C367 1.491 1_556 S
C373 C372 1.400 1_556 S
C373 C374 1.398 . S
C374 H362 0.950 . S
C374 C373 1.398 . S
C374 C375 1.391 . S
C375 H363 0.950 . S
C375 C371 1.393 . S
C375 C374 1.391 . S
H376 C384 0.950 . S
H377 C389 0.950 . S
H378 C386 0.950 . S
H379 C388 0.950 . S
H380 C390 0.950 . S
H381 C392 0.950 . S
H382 C394 0.950 . S
H383 C395 0.950 . S
C384 H376 0.950 . S
C384 C385 1.386 . S
C384 C386 1.391 . S
C385 C384 1.386 . S
C385 C389 1.393 . S
C386 H378 0.950 . S
C386 C384 1.391 . S
C386 C387 1.400 . S
C387 C386 1.400 . S
C387 C388 1.398 . S
C387 C393 1.491 1_655 S
C388 H379 0.950 . S
C388 C387 1.398 . S
C388 C389 1.391 . S
C389 H377 0.950 . S
C389 C385 1.393 . S
C389 C388 1.391 . S
C390 H380 0.950 . S
C390 C391 1.386 . S
C390 C392 1.391 . S
C391 C390 1.386 . S
C391 C395 1.393 . S
C392 H381 0.950 . S
C392 C390 1.391 . S
C392 C393 1.400 . S
C393 C387 1.491 1_455 S
C393 C392 1.400 . S
C393 C394 1.398 . S
C394 H382 0.950 . S
C394 C393 1.398 . S
C394 C395 1.391 . S
C395 H383 0.950 . S
C395 C391 1.393 . S
C395 C394 1.391 . S
H396 C404 0.950 1_554 S
H397 C409 0.950 . S
H398 C406 0.950 1_554 S
H399 C408 0.950 . S
H400 C410 0.950 . S
H401 C412 0.950 . S
H402 C414 0.950 . S
H403 C415 0.950 . S
C404 H396 0.950 1_556 S
C404 C405 1.386 . S
C404 C406 1.391 . S
C405 C404 1.386 . S
C405 C409 1.393 . S
C406 H398 0.950 1_556 S
C406 C404 1.391 . S
C406 C407 1.400 . S
C407 C406 1.400 . S
C407 C408 1.398 . S
C407 C413 1.491 . S
C408 H399 0.950 . S
C408 C407 1.398 . S
C408 C409 1.391 . S
C409 H397 0.950 . S
C409 C405 1.393 . S
C409 C408 1.391 . S
C410 H400 0.950 . S
C410 C411 1.386 . S
C410 C412 1.391 . S
C411 C410 1.386 . S
C411 C415 1.393 . S
C412 H401 0.950 . S
C412 C410 1.391 . S
C412 C413 1.400 . S
C413 C407 1.491 . S
C413 C412 1.400 . S
C413 C414 1.398 . S
C414 H402 0.950 . S
C414 C413 1.398 . S
C414 C415 1.391 . S
C415 H403 0.950 . S
C415 C411 1.393 . S
C415 C414 1.391 . S
H416 C424 0.950 . S
H417 C429 0.950 . S
H418 C426 0.950 . S
H419 C428 0.950 . S
H420 C430 0.950 . S
H421 C432 0.950 . S
H422 C434 0.950 . S
H423 C435 0.950 . S
C424 H416 0.950 . S
C424 C425 1.386 . S
C424 C426 1.391 . S
C425 C424 1.386 . S
C425 C429 1.393 . S
C426 H418 0.950 . S
C426 C424 1.391 . S
C426 C427 1.400 . S
C427 C426 1.400 . S
C427 C428 1.398 . S
C427 C433 1.491 . S
C428 H419 0.950 . S
C428 C427 1.398 . S
C428 C429 1.391 . S
C429 H417 0.950 . S
C429 C425 1.393 . S
C429 C428 1.391 . S
C430 H420 0.950 . S
C430 C431 1.386 . S
C430 C432 1.391 . S
C431 C430 1.386 . S
C431 C435 1.393 . S
C432 H421 0.950 . S
C432 C430 1.391 . S
C432 C433 1.400 . S
C433 C427 1.491 . S
C433 C432 1.400 . S
C433 C434 1.398 . S
C434 H422 0.950 . S
C434 C433 1.398 . S
C434 C435 1.391 . S
C435 H423 0.950 . S
C435 C431 1.393 . S
C435 C434 1.391 . S
H436 C444 0.950 . S
H437 C449 0.950 1_554 S
H438 C446 0.950 . S
H439 C448 0.944 1_554 S
H440 C450 0.950 . S
H441 C452 0.950 . S
H442 C454 0.950 . S
H443 C455 0.950 . S
C444 H436 0.950 . S
C444 C445 1.386 . S
C444 C446 1.391 . S
C445 C444 1.386 . S
C445 C449 1.393 . S
C446 H438 0.950 . S
C446 C444 1.391 . S
C446 C447 1.400 . S
C447 C446 1.400 . S
C447 C448 1.398 . S
C447 C453 1.491 . S
C448 H439 0.944 1_556 S
C448 C447 1.398 . S
C448 C449 1.391 . S
C449 H437 0.950 1_556 S
C449 C445 1.393 . S
C449 C448 1.391 . S
C450 H440 0.950 . S
C450 C451 1.386 . S
C450 C452 1.391 . S
C451 C450 1.386 . S
C451 C455 1.393 . S
C452 H441 0.950 . S
C452 C450 1.391 . S
C452 C453 1.400 . S
C453 C447 1.491 . S
C453 C452 1.400 . S
C453 C454 1.398 . S
C454 H442 0.950 . S
C454 C453 1.398 . S
C454 C455 1.391 . S
C455 H443 0.950 . S
C455 C451 1.393 . S
C455 C454 1.391 . S
H456 C464 0.950 . S
H457 C469 0.950 . S
H458 C466 0.950 . S
H459 C468 0.950 . S
H460 C470 0.950 . S
H461 C472 0.950 . S
H462 C474 0.950 . S
H463 C475 0.950 . S
C464 H456 0.950 . S
C464 C465 1.386 . S
C464 C466 1.391 . S
C465 C464 1.386 . S
C465 C469 1.393 . S
C466 H458 0.950 . S
C466 C464 1.391 . S
C466 C467 1.400 . S
C467 C466 1.400 . S
C467 C468 1.398 . S
C467 C473 1.491 . S
C468 H459 0.950 . S
C468 C467 1.398 . S
C468 C469 1.391 . S
C469 H457 0.950 . S
C469 C465 1.393 . S
C469 C468 1.391 . S
C470 H460 0.950 . S
C470 C471 1.386 . S
C470 C472 1.391 . S
C471 C470 1.386 . S
C471 C475 1.393 . S
C472 H461 0.950 . S
C472 C470 1.391 . S
C472 C473 1.400 . S
C473 C467 1.491 . S
C473 C472 1.400 . S
C473 C474 1.398 . S
C474 H462 0.950 . S
C474 C473 1.398 . S
C474 C475 1.391 . S
C475 H463 0.950 . S
C475 C471 1.393 . S
C475 C474 1.391 . S
H476 C484 0.950 . S
H477 C489 0.950 . S
H478 C486 0.950 . S
H479 C488 0.950 . S
H480 C490 0.950 . S
H481 C492 0.950 . S
H482 C494 0.950 . S
H483 C495 0.950 . S
C484 H476 0.950 . S
C484 C485 1.386 . S
C484 C486 1.391 . S
C485 C484 1.386 . S
C485 C489 1.393 . S
C486 H478 0.950 . S
C486 C484 1.391 . S
C486 C487 1.400 . S
C487 C486 1.400 . S
C487 C488 1.398 . S
C487 C493 1.491 . S
C488 H479 0.950 . S
C488 C487 1.398 . S
C488 C489 1.391 . S
C489 H477 0.950 . S
C489 C485 1.393 . S
C489 C488 1.391 . S
C490 H480 0.950 . S
C490 C491 1.386 . S
C490 C492 1.391 . S
C491 C490 1.386 . S
C491 C495 1.393 . S
C492 H481 0.950 . S
C492 C490 1.391 . S
C492 C493 1.400 . S
C493 C487 1.491 . S
C493 C492 1.400 . S
C493 C494 1.398 . S
C494 H482 0.950 . S
C494 C493 1.398 . S
C494 C495 1.391 . S
C495 H483 0.950 . S
C495 C491 1.393 . S
C495 C494 1.391 . S
H496 C504 0.950 . S
H497 C509 0.950 . S
H498 C506 0.950 . S
H499 C508 0.950 . S
H500 C510 0.950 . S
H501 C512 0.950 . S
H502 C514 0.950 . S
H503 C515 0.950 . S
C504 H496 0.950 . S
C504 C505 1.386 . S
C504 C506 1.391 . S
C505 C504 1.386 . S
C505 C509 1.393 . S
C506 H498 0.950 . S
C506 C504 1.391 . S
C506 C507 1.400 . S
C507 C506 1.400 . S
C507 C508 1.398 . S
C507 C513 1.491 . S
C508 H499 0.950 . S
C508 C507 1.398 . S
C508 C509 1.391 . S
C509 H497 0.950 . S
C509 C505 1.393 . S
C509 C508 1.391 . S
C510 H500 0.950 . S
C510 C511 1.386 . S
C510 C512 1.391 . S
C511 C510 1.386 . S
C511 C515 1.393 . S
C512 H501 0.950 . S
C512 C510 1.391 . S
C512 C513 1.400 . S
C513 C507 1.491 . S
C513 C512 1.400 . S
C513 C514 1.398 . S
C514 H502 0.950 . S
C514 C513 1.398 . S
C514 C515 1.391 . S
C515 H503 0.950 . S
C515 C511 1.393 . S
C515 C514 1.391 . S
H516 C524 0.950 . S
H517 C529 0.950 . S
H518 C526 0.950 . S
H519 C528 0.950 . S
H520 C530 0.950 . S
H521 C532 0.950 . S
H522 C534 0.950 . S
H523 C535 0.950 . S
C524 H516 0.950 . S
C524 C525 1.386 . S
C524 C526 1.391 . S
C525 C524 1.386 . S
C525 C529 1.393 . S
C526 H518 0.950 . S
C526 C524 1.391 . S
C526 C527 1.400 . S
C527 C526 1.400 . S
C527 C528 1.398 . S
C527 C533 1.491 . S
C528 H519 0.950 . S
C528 C527 1.398 . S
C528 C529 1.391 . S
C529 H517 0.950 . S
C529 C525 1.393 . S
C529 C528 1.391 . S
C530 H520 0.950 . S
C530 C531 1.386 . S
C530 C532 1.391 . S
C531 C530 1.386 . S
C531 C535 1.393 . S
C532 H521 0.950 . S
C532 C530 1.391 . S
C532 C533 1.400 . S
C533 C527 1.491 . S
C533 C532 1.400 . S
C533 C534 1.398 . S
C534 H522 0.950 . S
C534 C533 1.398 . S
C534 C535 1.391 . S
C535 H523 0.950 . S
C535 C531 1.393 . S
C535 C534 1.391 . S
H536 C544 0.950 . S
H537 C549 0.950 . S
H538 C546 0.950 . S
H539 C548 0.950 1_556 S
H540 C550 0.950 1_556 S
H541 C552 0.950 1_556 S
H542 C554 0.950 . S
H543 C555 0.950 . S
C544 H536 0.950 . S
C544 C545 1.386 . S
C544 C546 1.391 . S
C545 C544 1.386 . S
C545 C549 1.393 1_554 S
C546 H538 0.950 . S
C546 C544 1.391 . S
C546 C547 1.400 . S
C547 C546 1.400 . S
C547 C548 1.398 . S
C547 C553 1.491 . S
C548 H539 0.950 1_554 S
C548 C547 1.398 . S
C548 C549 1.391 1_554 S
C549 H537 0.950 . S
C549 C545 1.393 1_556 S
C549 C548 1.391 1_556 S
C550 H540 0.950 1_554 S
C550 C551 1.386 . S
C550 C552 1.391 . S
C551 C550 1.386 . S
C551 C555 1.393 . S
C552 H541 0.950 1_554 S
C552 C550 1.391 . S
C552 C553 1.400 . S
C553 C547 1.491 . S
C553 C552 1.400 . S
C553 C554 1.398 . S
C554 H542 0.950 . S
C554 C553 1.398 . S
C554 C555 1.391 . S
C555 H543 0.950 . S
C555 C551 1.393 . S
C555 C554 1.391 . S
H556 C564 0.950 . S
H557 C569 0.950 . S
H558 C566 0.950 . S
H559 C568 0.950 . S
H560 C570 0.950 . S
H561 C572 0.950 . S
H562 C574 0.950 . S
H563 C575 0.950 . S
C564 H556 0.950 . S
C564 C565 1.386 . S
C564 C566 1.391 . S
C565 C564 1.386 . S
C565 C569 1.393 . S
C566 H558 0.950 . S
C566 C564 1.391 . S
C566 C567 1.400 . S
C567 C566 1.400 . S
C567 C568 1.398 . S
C567 C573 1.491 . S
C568 H559 0.950 . S
C568 C567 1.398 . S
C568 C569 1.391 . S
C569 H557 0.950 . S
C569 C565 1.393 . S
C569 C568 1.391 . S
C570 H560 0.950 . S
C570 C571 1.386 . S
C570 C572 1.391 . S
C571 C570 1.386 . S
C571 C575 1.393 . S
C572 H561 0.950 . S
C572 C570 1.391 . S
C572 C573 1.400 . S
C573 C567 1.491 . S
C573 C572 1.400 . S
C573 C574 1.398 . S
C574 H562 0.950 . S
C574 C573 1.398 . S
C574 C575 1.391 . S
C575 H563 0.950 . S
C575 C571 1.393 . S
C575 C574 1.391 . S
H576 C584 0.950 . S
H577 C589 0.950 . S
H578 C586 0.950 . S
H579 C588 0.950 . S
H580 C590 0.950 . S
H581 C592 0.950 . S
H582 C594 0.950 . S
H583 C595 0.950 . S
C584 H576 0.950 . S
C584 C585 1.386 . S
C584 C586 1.391 . S
C585 C584 1.386 . S
C585 C589 1.393 . S
C586 H578 0.950 . S
C586 C584 1.391 . S
C586 C587 1.400 . S
C587 C586 1.400 . S
C587 C588 1.398 . S
C587 C593 1.491 . S
C588 H579 0.950 . S
C588 C587 1.398 . S
C588 C589 1.391 . S
C589 H577 0.950 . S
C589 C585 1.393 . S
C589 C588 1.391 . S
C590 H580 0.950 . S
C590 C591 1.386 . S
C590 C592 1.391 . S
C591 C590 1.386 . S
C591 C595 1.393 . S
C592 H581 0.950 . S
C592 C590 1.391 . S
C592 C593 1.400 . S
C593 C587 1.491 . S
C593 C592 1.400 . S
C593 C594 1.398 . S
C594 H582 0.950 . S
C594 C593 1.398 . S
C594 C595 1.391 . S
C595 H583 0.950 . S
C595 C591 1.393 . S
C595 C594 1.391 . S
H596 C604 0.950 . S
H597 C609 0.950 . S
H598 C606 0.950 . S
H599 C608 0.950 . S
H600 C610 0.950 . S
H601 C612 0.950 . S
H602 C614 0.950 . S
H603 C615 0.950 . S
C604 H596 0.950 . S
C604 C605 1.386 . S
C604 C606 1.391 . S
C605 C604 1.386 . S
C605 C609 1.393 . S
C606 H598 0.950 . S
C606 C604 1.391 . S
C606 C607 1.400 . S
C607 C606 1.400 . S
C607 C608 1.398 . S
C607 C613 1.491 . S
C608 H599 0.950 . S
C608 C607 1.398 . S
C608 C609 1.391 . S
C609 H597 0.950 . S
C609 C605 1.393 . S
C609 C608 1.391 . S
C610 H600 0.950 . S
C610 C611 1.386 . S
C610 C612 1.391 . S
C611 C610 1.386 . S
C611 C615 1.393 . S
C612 H601 0.950 . S
C612 C610 1.391 . S
C612 C613 1.400 . S
C613 C607 1.491 . S
C613 C612 1.400 . S
C613 C614 1.398 . S
C614 H602 0.950 . S
C614 C613 1.398 . S
C614 C615 1.391 . S
C615 H603 0.950 . S
C615 C611 1.393 . S
C615 C614 1.391 . S
H616 C624 0.950 . S
H617 C629 0.950 1_556 S
H618 C626 0.950 . S
H619 C628 0.950 . S
H620 C630 0.950 . S
H621 C632 0.950 . S
H622 C634 0.950 . S
H623 C635 0.950 . S
C624 H616 0.950 . S
C624 C625 1.386 . S
C624 C626 1.391 . S
C625 C624 1.386 . S
C625 C629 1.393 . S
C626 H618 0.950 . S
C626 C624 1.391 . S
C626 C627 1.400 . S
C627 C626 1.400 . S
C627 C628 1.398 . S
C627 C633 1.491 . S
C628 H619 0.950 . S
C628 C627 1.398 . S
C628 C629 1.391 . S
C629 H617 0.950 1_554 S
C629 C625 1.393 . S
C629 C628 1.391 . S
C630 H620 0.950 . S
C630 C631 1.386 . S
C630 C632 1.391 . S
C631 C630 1.386 . S
C631 C635 1.393 . S
C632 H621 0.950 . S
C632 C630 1.391 . S
C632 C633 1.400 . S
C633 C627 1.491 . S
C633 C632 1.400 . S
C633 C634 1.398 . S
C634 H622 0.950 . S
C634 C633 1.398 . S
C634 C635 1.391 . S
C635 H623 0.950 . S
C635 C631 1.393 . S
C635 C634 1.391 . S
C165 C140 1.687 . S
C171 C10 1.671 . S
C185 C23 1.687 . S
C191 C147 1.681 . S
C205 C30 1.685 . S
C211 C82 1.683 . S
C225 C95 1.674 . S
C231 C43 1.684 . S
C245 C108 1.674 . S
C251 C62 1.678 . S
C265 C69 1.681 . S
C271 C121 1.669 . S
C285 C4 1.039 . S
C291 C101 1.030 . S
C305 C17 1.081 . S
C311 C114 1.072 . S
C325 C127 1.021 . S
C331 C36 1.024 . S
C345 C134 1.051 . S
C351 C49 1.048 . S
C365 C153 1.024 . S
C371 C56 1.033 . S
C385 C88 1.086 . S
C391 C75 1.089 . S
C405 C5 1.180 . S
C411 C55 1.105 . S
C425 C18 1.226 . S
C431 C70 1.132 . S
C445 C29 1.187 . S
C451 C3 1.093 . S
C465 C42 1.216 . S
C471 C16 1.163 . S
C485 C57 1.175 . S
C491 C31 1.136 . S
C505 C68 1.229 . S
C511 C44 1.133 . S
C525 C81 1.218 . S
C531 C109 1.154 . S
C545 C94 1.187 . S
C551 C122 1.095 . S
C565 C133 1.133 . S
C571 C107 1.229 . S
C585 C120 1.178 . S
C591 C148 1.133 . S
C605 C135 1.228 . S
C611 C83 1.142 . S
C625 C146 1.187 . S
C631 C96 1.094 . S
