# Generated by pormake.
# Topology bmn, (3)-cn, num edge types: 1
# Building blocks:
#     Node 0, Type 0, BuildingBlock: OLANEW_clean_sbu_2, # of connection points: 3
#     Node 1, Type 0, BuildingBlock: OLANEW_clean_sbu_2, # of connection points: 3
#     Node 2, Type 0, BuildingBlock: OLANEW_clean_sbu_2, # of connection points: 3
#     Node 3, Type 0, BuildingBlock: OLANEW_clean_sbu_2, # of connection points: 3
#     Node 4, Type 0, BuildingBlock: OLANEW_clean_sbu_2, # of connection points: 3
#     Node 5, Type 0, BuildingBlock: OLANEW_clean_sbu_2, # of connection points: 3
#     Node 6, Type 0, BuildingBlock: OLANEW_clean_sbu_2, # of connection points: 3
#     Node 7, Type 0, BuildingBlock: OLANEW_clean_sbu_2, # of connection points: 3
#     Node 8, Type 0, BuildingBlock: OLANEW_clean_sbu_2, # of connection points: 3
#     Node 9, Type 0, BuildingBlock: OLANEW_clean_sbu_2, # of connection points: 3
#     Node 10, Type 0, BuildingBlock: OLANEW_clean_sbu_2, # of connection points: 3
#     Node 11, Type 0, BuildingBlock: OLANEW_clean_sbu_2, # of connection points: 3
#     Node 12, Type 0, BuildingBlock: OLANEW_clean_sbu_2, # of connection points: 3
#     Node 13, Type 0, BuildingBlock: OLANEW_clean_sbu_2, # of connection points: 3
#     Node 14, Type 0, BuildingBlock: OLANEW_clean_sbu_2, # of connection points: 3
#     Node 15, Type 0, BuildingBlock: OLANEW_clean_sbu_2, # of connection points: 3
#     Node 16, Type 0, BuildingBlock: OLANEW_clean_sbu_2, # of connection points: 3
#     Node 17, Type 0, BuildingBlock: OLANEW_clean_sbu_2, # of connection points: 3
#     Node 18, Type 0, BuildingBlock: OLANEW_clean_sbu_2, # of connection points: 3
#     Node 19, Type 0, BuildingBlock: OLANEW_clean_sbu_2, # of connection points: 3
#     Node 20, Type 0, BuildingBlock: OLANEW_clean_sbu_2, # of connection points: 3
#     Node 21, Type 0, BuildingBlock: OLANEW_clean_sbu_2, # of connection points: 3
#     Node 22, Type 0, BuildingBlock: OLANEW_clean_sbu_2, # of connection points: 3
#     Node 23, Type 0, BuildingBlock: OLANEW_clean_sbu_2, # of connection points: 3
#     Edge 24, Type (0, 0), BuildingBlock: EZIPEK_clean_linker_0, # of connection points: 2
#     Edge 25, Type (0, 0), BuildingBlock: EZIPEK_clean_linker_0, # of connection points: 2
#     Edge 26, Type (0, 0), BuildingBlock: EZIPEK_clean_linker_0, # of connection points: 2
#     Edge 27, Type (0, 0), BuildingBlock: EZIPEK_clean_linker_0, # of connection points: 2
#     Edge 28, Type (0, 0), BuildingBlock: EZIPEK_clean_linker_0, # of connection points: 2
#     Edge 29, Type (0, 0), BuildingBlock: EZIPEK_clean_linker_0, # of connection points: 2
#     Edge 30, Type (0, 0), BuildingBlock: EZIPEK_clean_linker_0, # of connection points: 2
#     Edge 31, Type (0, 0), BuildingBlock: EZIPEK_clean_linker_0, # of connection points: 2
#     Edge 32, Type (0, 0), BuildingBlock: EZIPEK_clean_linker_0, # of connection points: 2
#     Edge 33, Type (0, 0), BuildingBlock: EZIPEK_clean_linker_0, # of connection points: 2
#     Edge 34, Type (0, 0), BuildingBlock: EZIPEK_clean_linker_0, # of connection points: 2
#     Edge 35, Type (0, 0), BuildingBlock: EZIPEK_clean_linker_0, # of connection points: 2
#     Edge 36, Type (0, 0), BuildingBlock: EZIPEK_clean_linker_0, # of connection points: 2
#     Edge 37, Type (0, 0), BuildingBlock: EZIPEK_clean_linker_0, # of connection points: 2
#     Edge 38, Type (0, 0), BuildingBlock: EZIPEK_clean_linker_0, # of connection points: 2
#     Edge 39, Type (0, 0), BuildingBlock: EZIPEK_clean_linker_0, # of connection points: 2
#     Edge 40, Type (0, 0), BuildingBlock: EZIPEK_clean_linker_0, # of connection points: 2
#     Edge 41, Type (0, 0), BuildingBlock: EZIPEK_clean_linker_0, # of connection points: 2
#     Edge 42, Type (0, 0), BuildingBlock: EZIPEK_clean_linker_0, # of connection points: 2
#     Edge 43, Type (0, 0), BuildingBlock: EZIPEK_clean_linker_0, # of connection points: 2
#     Edge 44, Type (0, 0), BuildingBlock: EZIPEK_clean_linker_0, # of connection points: 2
#     Edge 45, Type (0, 0), BuildingBlock: EZIPEK_clean_linker_0, # of connection points: 2
#     Edge 46, Type (0, 0), BuildingBlock: EZIPEK_clean_linker_0, # of connection points: 2
#     Edge 47, Type (0, 0), BuildingBlock: EZIPEK_clean_linker_0, # of connection points: 2
#     Edge 48, Type (0, 0), BuildingBlock: EZIPEK_clean_linker_0, # of connection points: 2
#     Edge 49, Type (0, 0), BuildingBlock: EZIPEK_clean_linker_0, # of connection points: 2
#     Edge 50, Type (0, 0), BuildingBlock: EZIPEK_clean_linker_0, # of connection points: 2
#     Edge 51, Type (0, 0), BuildingBlock: EZIPEK_clean_linker_0, # of connection points: 2
#     Edge 52, Type (0, 0), BuildingBlock: EZIPEK_clean_linker_0, # of connection points: 2
#     Edge 53, Type (0, 0), BuildingBlock: EZIPEK_clean_linker_0, # of connection points: 2
#     Edge 54, Type (0, 0), BuildingBlock: EZIPEK_clean_linker_0, # of connection points: 2
#     Edge 55, Type (0, 0), BuildingBlock: EZIPEK_clean_linker_0, # of connection points: 2
#     Edge 56, Type (0, 0), BuildingBlock: EZIPEK_clean_linker_0, # of connection points: 2
#     Edge 57, Type (0, 0), BuildingBlock: EZIPEK_clean_linker_0, # of connection points: 2
#     Edge 58, Type (0, 0), BuildingBlock: EZIPEK_clean_linker_0, # of connection points: 2
#     Edge 59, Type (0, 0), BuildingBlock: EZIPEK_clean_linker_0, # of connection points: 2
# Relax obj value: 0.028
# Max RMSD: 0.069
# Mean RMSD: 0.034
data_MOF--net-bmn--node1-OLANEW_clean_sbu_2--edge1-EZIPEK_clean_linker_0
_symmetry_space_group_name_H-M    P1
_symmetry_Int_Tables_number       1
_symmetry_cell_setting            triclinic
loop_
_symmetry_equiv_pos_as_xyz
'x, y, z'
_cell_length_a     47.640347
_cell_length_b     47.516983
_cell_length_c     47.588483
_cell_angle_alpha  102.41556
_cell_angle_beta   96.82802
_cell_angle_gamma 97.346309
loop_
_atom_site_label
_atom_site_type_symbol
_atom_site_fract_x
_atom_site_fract_y
_atom_site_fract_z
_atom_type_partial_charge
O0 O 0.18306 0.50101 0.3052 0.0
Cd1 Cd 0.15049 0.50969 0.34107 0.0
O2 O 0.19273 0.54713 0.30302 0.0
Cd3 Cd 0.16276 0.56437 0.33085 0.0
O4 O 0.13336 0.59602 0.33679 0.0
C5 C 0.14352 0.6227 0.33947 0.0
O6 O 0.17121 0.63038 0.34082 0.0
C7 C 0.19644 0.52074 0.29529 0.0
C8 C 0.14258 0.46273 0.36735 0.0
O9 O 0.12618 0.46322 0.34413 0.0
O10 O 0.16253 0.48448 0.37835 0.0
O11 O 0.94103 0.93814 0.53914 0.0
Cd12 Cd 0.93293 0.90958 0.57517 0.0
O13 O 0.92271 0.97654 0.55927 0.0
Cd14 Cd 0.90002 0.95073 0.58487 0.0
O15 O 0.86423 0.92005 0.591 0.0
C16 C 0.84794 0.92714 0.60975 0.0
O17 O 0.85347 0.95319 0.62744 0.0
C18 C 0.93672 0.9642 0.54037 0.0
C19 C 0.98666 0.89711 0.5938 0.0
O20 O 0.97801 0.92035 0.60646 0.0
O21 O 0.96938 0.87888 0.57331 0.0
O22 O 0.4881 0.67177 0.76671 0.0
Cd23 Cd 0.5146 0.66769 0.81267 0.0
O24 O 0.47483 0.71306 0.7878 0.0
Cd25 Cd 0.4969 0.71938 0.83202 0.0
O26 O 0.50959 0.75602 0.86987 0.0
C27 C 0.51286 0.78069 0.86336 0.0
O28 O 0.50922 0.78179 0.83584 0.0
C29 C 0.47479 0.69309 0.76524 0.0
C30 C 0.5376 0.61607 0.80836 0.0
O31 O 0.51266 0.61763 0.81555 0.0
O32 O 0.55159 0.63868 0.80294 0.0
O33 O 0.7742 0.28514 0.08963 0.0
Cd34 Cd 0.81146 0.29937 0.13213 0.0
O35 O 0.74471 0.3048 0.11714 0.0
Cd36 Cd 0.7023 0.31485 0.12428 0.0
O37 O 0.66149 0.31999 0.13965 0.0
C38 C 0.64743 0.29829 0.1461 0.0
O39 O 0.65738 0.27343 0.14263 0.0
C40 C 0.74945 0.29159 0.09239 0.0
C41 C 0.85075 0.34479 0.12508 0.0
O42 O 0.85482 0.31826 0.11732 0.0
O43 O 0.82852 0.34992 0.13684 0.0
O44 O 0.98294 0.01182 0.4311 0.0
Cd45 Cd 0.01067 0.01996 0.39273 0.0
O46 O 0.01978 0.00244 0.45832 0.0
Cd47 Cd 0.04575 -0.0028 0.42341 0.0
O48 O 0.04981 0.95528 0.39585 0.0
C49 C 0.03083 0.93505 0.39855 0.0
O50 O 0.01169 0.94159 0.41557 0.0
C51 C -0.00629 0.00592 0.45451 0.0
C52 C 0.03571 0.07799 0.40197 0.0
O53 O 0.01091 0.06886 0.38668 0.0
O54 O 0.04856 0.05988 0.41297 0.0
O55 O 0.43538 0.7574 0.67005 0.0
Cd56 Cd 0.42587 0.7873 0.63532 0.0
O57 O 0.39722 0.72359 0.65427 0.0
Cd58 Cd 0.37654 0.75094 0.62929 0.0
O59 O 0.348 0.78182 0.6209 0.0
C60 C 0.32544 0.77402 0.60218 0.0
O61 O 0.3197 0.74716 0.5862 0.0
C62 C 0.42102 0.7332 0.67084 0.0
C63 C 0.47739 0.7997 0.61491 0.0
O64 O 0.45931 0.77681 0.60227 0.0
O65 O 0.47064 0.81752 0.6364 0.0
O66 O 0.64067 0.26407 0.98554 0.0
Cd67 Cd 0.60504 0.24515 0.94178 0.0
O68 O 0.6686 0.23146 0.97226 0.0
Cd69 Cd 0.63799 0.20472 0.93565 0.0
O70 O 0.61171 0.1617 0.92178 0.0
C71 C 0.62421 0.14035 0.92527 0.0
O72 O 0.65187 0.14502 0.93457 0.0
C73 C 0.66366 0.2537 0.99004 0.0
C74 C 0.60378 0.28401 0.90545 0.0
O75 O 0.6206 0.2649 0.90296 0.0
O76 O 0.58745 0.28483 0.92506 0.0
O77 O 0.30034 0.50836 0.21887 0.0
Cd78 Cd 0.33323 0.49995 0.18345 0.0
O79 O 0.26509 0.4824 0.18582 0.0
Cd80 Cd 0.21941 0.46567 0.17286 0.0
O81 O 0.17116 0.45717 0.15904 0.0
C82 C 0.16074 0.47363 0.14395 0.0
O83 O 0.17007 0.45607 0.15931 0.0
C84 C 0.27403 0.49745 0.21155 0.0
C85 C 0.3599 0.45277 0.19042 0.0
O86 O 0.37114 0.47878 0.20415 0.0
O87 O 0.33638 0.44905 0.17296 0.0
O88 O 0.28657 0.25893 0.54156 0.0
Cd89 Cd 0.33061 0.2445 0.56184 0.0
O90 O 0.28516 0.29389 0.57998 0.0
Cd91 Cd 0.31563 0.2762 0.60672 0.0
O92 O 0.32564 0.24624 0.63411 0.0
C93 C 0.34414 0.25337 0.65698 0.0
O94 O 0.35937 0.27962 0.66446 0.0
C95 C 0.27538 0.28029 0.5539 0.0
C96 C 0.35751 0.21842 0.51635 0.0
O97 O 0.36093 0.24623 0.52535 0.0
O98 O 0.34185 0.20285 0.52924 0.0
O99 O 0.3195 0.07881 0.72804 0.0
Cd100 Cd 0.34467 0.12523 0.75903 0.0
O101 O 0.27673 0.08881 0.73599 0.0
Cd102 Cd 0.29438 0.126 0.77206 0.0
O103 O 0.31189 0.13898 0.81823 0.0
C104 C 0.31601 0.11728 0.82891 0.0
O105 O 0.31028 0.09092 0.81183 0.0
C106 C 0.29237 0.07216 0.72295 0.0
C107 C 0.34771 0.16805 0.72718 0.0
O108 O 0.32649 0.16358 0.74074 0.0
O109 O 0.36776 0.15264 0.72896 0.0
O110 O 0.36259 0.0212 0.00644 0.0
Cd111 Cd 0.32748 0.05334 0.01876 0.0
O112 O 0.39364 0.05806 0.00217 0.0
Cd113 Cd 0.36179 0.08622 -0.00375 0.0
O114 O 0.34218 0.10044 0.95897 0.0
C115 C 0.35839 0.11635 0.94723 0.0
O116 O 0.38501 0.12607 0.95968 0.0
C117 C 0.38762 0.03146 0.00308 0.0
C118 C 0.34395 0.08287 0.07684 0.0
O119 O 0.32783 0.05794 0.06986 0.0
O120 O 0.35137 0.09452 0.05639 0.0
O121 O 0.45054 0.18049 0.34319 0.0
Cd122 Cd 0.43192 0.1433 0.36749 0.0
O123 O 0.41682 0.15941 0.30642 0.0
Cd124 Cd 0.39494 0.15664 0.26262 0.0
O125 O 0.37713 0.14734 0.21655 0.0
C126 C 0.38588 0.12691 0.19959 0.0
O127 O 0.40525 0.11311 0.21026 0.0
C128 C 0.43781 0.17954 0.3179 0.0
C129 C 0.40862 0.16729 0.41652 0.0
O130 O 0.43424 0.16153 0.41897 0.0
O131 O 0.39409 0.16171 0.39097 0.0
O132 O 0.48758 0.28043 0.25275 0.0
Cd133 Cd 0.49584 0.31712 0.22432 0.0
O134 O 0.44136 0.26961 0.23595 0.0
Cd135 Cd 0.4414 0.30414 0.21234 0.0
O136 O 0.42932 0.34339 0.20082 0.0
C137 C 0.40644 0.35072 0.20931 0.0
O138 O 0.39209 0.33461 0.22371 0.0
C139 C 0.46324 0.26536 0.25154 0.0
C140 C 0.54451 0.31133 0.19792 0.0
O141 O 0.54615 0.32764 0.22347 0.0
O142 O 0.51989 0.29785 0.18467 0.0
O143 O 0.97587 0.47158 0.03446 0.0
Cd144 Cd 0.98305 0.44382 0.07178 0.0
O145 O 0.96923 0.51178 0.06436 0.0
Cd146 Cd 0.96751 0.48935 0.09957 0.0
O147 O 0.94676 0.4542 0.11628 0.0
C148 C 0.92261 0.44199 0.10157 0.0
O149 O 0.91274 0.45144 0.07891 0.0
C150 C 0.97162 0.49797 0.03895 0.0
C151 C 0.04026 0.45396 0.09704 0.0
O152 O 0.03109 0.43363 0.07409 0.0
O153 O 0.02247 0.46939 0.10829 0.0
O154 O 0.98551 0.71078 0.29214 0.0
Cd155 Cd 0.02924 0.7437 0.31664 0.0
O156 O 0.96973 0.70921 0.33353 0.0
Cd157 Cd -0.00115 0.74917 0.35574 0.0
O158 O 0.01428 0.79603 0.36976 0.0
C159 C 0.01452 0.81119 0.35077 0.0
O160 O 0.00707 0.79824 0.32308 0.0
C161 C 0.96762 0.69972 0.30615 0.0
C162 C 0.06921 0.70782 0.32659 0.0
O163 O 0.05292 0.71558 0.34546 0.0
O164 O 0.06751 0.718 0.3037 0.0
O165 O 0.70557 0.75705 0.56195 0.0
Cd166 Cd 0.69672 0.80222 0.5928 0.0
O167 O 0.66087 0.7422 0.54019 0.0
Cd168 Cd 0.64104 0.77583 0.5659 0.0
O169 O 0.60251 0.7865 0.58377 0.0
C170 C 0.58781 0.80476 0.57594 0.0
O171 O 0.59688 0.81998 0.55786 0.0
C172 C 0.687 0.73878 0.54321 0.0
C173 C 0.74556 0.84419 0.60225 0.0
O174 O 0.72598 0.84126 0.58043 0.0
O175 O 0.74188 0.82777 0.62005 0.0
O176 O 0.16447 0.31617 0.47891 0.0
Cd177 Cd 0.12174 0.31535 0.44458 0.0
O178 O 0.16355 0.26851 0.46592 0.0
Cd179 Cd 0.12297 0.25624 0.43656 0.0
O180 O 0.0903 0.21745 0.42138 0.0
C181 C 0.09931 0.19413 0.42463 0.0
O182 O 0.12615 0.19539 0.43577 0.0
C183 C 0.17545 0.29355 0.48091 0.0
C184 C 0.12782 0.36322 0.41945 0.0
O185 O 0.11725 0.36479 0.44317 0.0
O186 O 0.13535 0.33908 0.40748 0.0
O187 O 0.23805 0.94653 0.63151 0.0
Cd188 Cd 0.21104 0.89966 0.60361 0.0
O189 O 0.20328 0.96002 0.65573 0.0
Cd190 Cd 0.16882 0.92485 0.63272 0.0
O191 O 0.1228 0.91248 0.61766 0.0
C192 C 0.10663 0.89444 0.62719 0.0
O193 O 0.11783 0.88029 0.64547 0.0
C194 C 0.22885 0.96461 0.65065 0.0
C195 C 0.24697 0.85744 0.59992 0.0
O196 O 0.23265 0.86261 0.6211 0.0
O197 O 0.24397 0.87176 0.5801 0.0
O198 O 0.64825 0.45992 0.76305 0.0
Cd199 Cd 0.61538 0.46167 0.79891 0.0
O200 O 0.65955 0.41661 0.76497 0.0
Cd201 Cd 0.63615 0.40809 0.79989 0.0
O202 O 0.62834 0.38254 0.83218 0.0
C203 C 0.60642 0.36301 0.82809 0.0
O204 O 0.58699 0.35941 0.80505 0.0
C205 C 0.66162 0.43898 0.75427 0.0
C206 C 0.58888 0.51115 0.80231 0.0
O207 O 0.61202 0.51174 0.81933 0.0
O208 O 0.57802 0.48722 0.78391 0.0
O209 O 0.72476 0.42229 0.63905 0.0
Cd210 Cd 0.76037 0.4226 0.60604 0.0
O211 O 0.75841 0.45364 0.6693 0.0
Cd212 Cd 0.77762 0.48143 0.71172 0.0
O213 O 0.80905 0.50681 0.74839 0.0
C214 C 0.82251 0.4938 0.76506 0.0
O215 O 0.81635 0.46532 0.76086 0.0
C216 C 0.7335 0.43869 0.66424 0.0
C217 C 0.75116 0.45662 0.56585 0.0
O218 O 0.74443 0.42877 0.55829 0.0
O219 O 0.76187 0.46832 0.59244 0.0
O220 O 0.97546 0.5625 0.93032 0.0
Cd221 Cd 0.96508 0.58771 0.89171 0.0
O222 O 0.93 0.5589 0.93549 0.0
Cd223 Cd 0.89679 0.54552 0.96 0.0
O224 O 0.87639 0.53881 -0.00278 0.0
C225 C 0.88223 0.55998 0.01948 0.0
O226 O 0.89862 0.58397 0.01824 0.0
C227 C 0.95514 0.55429 0.94321 0.0
C228 C 0.9182 0.55727 0.85143 0.0
O229 O 0.94364 0.55266 0.84804 0.0
O230 O 0.91479 0.57629 0.87381 0.0
O231 O 0.88014 0.57982 0.23831 0.0
Cd232 Cd 0.83891 0.54264 0.21535 0.0
O233 O 0.85881 0.61395 0.22405 0.0
Cd234 Cd 0.83013 0.58259 0.18894 0.0
O235 O 0.82808 0.56708 0.14208 0.0
C236 C 0.85249 0.5664 0.13393 0.0
O237 O 0.87551 0.57245 0.15366 0.0
C238 C 0.87916 0.60663 0.2393 0.0
C239 C 0.80021 0.54895 0.25459 0.0
O240 O 0.81805 0.53105 0.2556 0.0
O241 O 0.79973 0.56291 0.23437 0.0
O242 O 0.72187 0.6154 0.47732 0.0
Cd243 Cd 0.72611 0.5679 0.44749 0.0
O244 O 0.70975 0.63471 0.44032 0.0
Cd245 Cd 0.72058 0.59937 0.4079 0.0
O246 O 0.742 0.57919 0.37249 0.0
C247 C 0.73274 0.57966 0.34646 0.0
O248 O 0.7094 0.59078 0.34094 0.0
C249 C 0.71367 0.63635 0.46755 0.0
C250 C 0.73473 0.52987 0.48381 0.0
O251 O 0.70973 0.53564 0.47654 0.0
O252 O 0.75564 0.54157 0.47337 0.0
O253 O 0.50227 0.9674 0.99006 0.0
Cd254 Cd 0.54571 0.95242 0.97301 0.0
O255 O 0.48722 0.97897 0.94897 0.0
Cd256 Cd 0.52693 0.97605 0.93098 0.0
O257 O 0.56047 0.00776 0.92296 0.0
C258 C 0.55231 0.03189 0.92135 0.0
O259 O 0.52546 0.03476 0.92296 0.0
C260 C 0.48345 0.9763 0.97432 0.0
C261 C 0.53544 0.89491 0.9409 0.0
O262 O 0.54398 0.90088 0.96839 0.0
O263 O 0.53176 0.91593 0.92863 0.0
C264 C 0.25824 0.49339 0.25922 0.0
C265 C 0.25381 0.50261 0.23278 0.0
C266 C 0.20924 0.51882 0.24556 0.0
C267 C 0.21555 0.51301 0.27346 0.0
N268 N 0.24805 0.49851 0.30861 0.0
N269 N 0.22775 0.52872 0.2029 0.0
C270 C 0.24056 0.5012 0.28078 0.0
C271 C 0.22998 0.51654 0.22646 0.0
N272 N 0.27866 0.47628 0.26332 0.0
N273 N 0.18303 0.52559 0.2369 0.0
H274 H 0.24278 0.52806 0.18863 0.0
H275 H 0.21245 0.5418 0.19902 0.0
H276 H 0.167 0.5269 0.25007 0.0
H277 H 0.17615 0.52699 0.2157 0.0
H278 H 0.2808 0.46636 0.28079 0.0
H279 H 0.29177 0.46971 0.24789 0.0
H280 H 0.26768 0.49315 0.31602 0.0
H281 H 0.2357 0.50401 0.32504 0.0
C282 C 0.98276 0.01457 0.50558 0.0
C283 C 0.9753 -0.00071 0.47598 0.0
C284 C 0.93669 0.96751 0.48894 0.0
C285 C 0.94741 0.97937 0.51875 0.0
N286 N 0.98152 0.01337 0.55612 0.0
N287 N 0.9471 0.95861 0.43968 0.0
C288 C 0.97044 0.00301 0.52734 0.0
C289 C 0.95247 0.97533 0.46756 0.0
N290 N 0.0014 0.04028 0.51273 0.0
N291 N 0.91128 0.94882 0.48109 0.0
H292 H 0.95833 0.96286 0.42317 0.0
H293 H 0.93309 0.93889 0.43342 0.0
H294 H 0.89911 0.94284 0.49633 0.0
H295 H 0.9009 0.94172 0.45969 0.0
H296 H 0.00573 0.05388 0.53356 0.0
H297 H 0.01047 0.04936 0.49714 0.0
H298 H 0.00041 0.02817 0.56347 0.0
H299 H 0.97283 0.00572 0.57269 0.0
C300 C 0.47478 0.70136 0.71475 0.0
C301 C 0.45938 0.69581 0.73727 0.0
C302 C 0.417 0.71097 0.71401 0.0
C303 C 0.4324 0.71661 0.6915 0.0
N304 N 0.47257 0.70934 0.66593 0.0
N305 N 0.41408 0.68704 0.75399 0.0
C306 C 0.46023 0.70918 0.69041 0.0
C307 C 0.42983 0.69781 0.73535 0.0
N308 N 0.50361 0.70099 0.7174 0.0
N309 N 0.39105 0.71994 0.71627 0.0
H310 H 0.42298 0.67703 0.76965 0.0
H311 H 0.39188 0.68532 0.752 0.0
H312 H 0.38092 0.73003 0.70143 0.0
H313 H 0.38052 0.71949 0.73418 0.0
H314 H 0.51652 0.70843 0.70348 0.0
H315 H 0.5151 0.6951 0.73468 0.0
H316 H 0.49167 0.70151 0.6627 0.0
H317 H 0.46223 0.71456 0.64758 0.0
C318 C 0.67858 0.25854 0.04323 0.0
C319 C 0.68422 0.26621 0.01701 0.0
C320 C 0.73056 0.2944 0.04176 0.0
C321 C 0.72645 0.28372 0.0669 0.0
N322 N 0.69836 0.2523 0.09038 0.0
N323 N 0.7161 0.2894 0.99007 0.0
C324 C 0.70081 0.26512 0.06747 0.0
C325 C 0.71038 0.28358 0.01592 0.0
N326 N 0.652 0.24483 0.04494 0.0
N327 N 0.75313 0.31576 0.04297 0.0
H328 H 0.7012 0.28316 0.97105 0.0
H329 H 0.73612 0.29885 0.98703 0.0
H330 H 0.76802 0.32472 0.0617 0.0
H331 H 0.75569 0.32655 0.02636 0.0
H332 H 0.64561 0.24176 0.06439 0.0
H333 H 0.63546 0.2386 0.02733 0.0
H334 H 0.68157 0.23602 0.09055 0.0
H335 H 0.71434 0.25601 0.10833 0.0
C336 C 0.2286 0.30502 0.49614 0.0
C337 C 0.20112 0.29549 0.50243 0.0
C338 C 0.2228 0.28225 0.54623 0.0
C339 C 0.25019 0.2884 0.53795 0.0
N340 N 0.28001 0.3059 0.50583 0.0
N341 N 0.17113 0.27557 0.53304 0.0
C342 C 0.25335 0.30012 0.51324 0.0
C343 C 0.19798 0.28459 0.5276 0.0
N344 N 0.2309 0.31871 0.47381 0.0
N345 N 0.22053 0.27391 0.57177 0.0
H346 H 0.15252 0.27878 0.52101 0.0
H347 H 0.16698 0.26391 0.54865 0.0
H348 H 0.23792 0.27017 0.58517 0.0
H349 H 0.20171 0.27225 0.58079 0.0
H350 H 0.25016 0.32862 0.46949 0.0
H351 H 0.21314 0.32199 0.46054 0.0
H352 H 0.28379 0.31118 0.48637 0.0
H353 H 0.2987 0.30434 0.51887 0.0
C354 C 0.2655 0.04347 0.6747 0.0
C355 C 0.27883 0.04403 0.70315 0.0
C356 C 0.26115 -0.00815 0.6963 0.0
C357 C 0.24805 -0.00878 0.66776 0.0
N358 N 0.24131 0.01433 0.62763 0.0
N359 N 0.2936 0.01864 0.73978 0.0
C360 C 0.25141 0.01642 0.65626 0.0
C361 C 0.27806 0.01811 0.71351 0.0
N362 N 0.2658 0.06894 0.66566 0.0
N363 N 0.25666 0.96752 0.7072 0.0
H364 H 0.30532 0.03767 0.75354 0.0
H365 H 0.29655 4e-05 0.74725 0.0
H366 H 0.24557 0.94752 0.69473 0.0
H367 H 0.26254 0.96732 0.72891 0.0
H368 H 0.2538 0.07079 0.64659 0.0
H369 H 0.27708 0.08887 0.6781 0.0
H370 H 0.24542 0.03103 0.61697 0.0
H371 H 0.23034 -0.00501 0.61374 0.0
C372 C 0.43618 0.02095 0.01882 0.0
C373 C 0.41003 0.01263 -0.00058 0.0
C374 C 0.43039 0.97379 0.96975 0.0
C375 C 0.45784 0.9859 0.98588 0.0
N376 N 0.48753 0.02318 0.02457 0.0
N377 N 0.38234 0.98209 0.95499 0.0
C378 C 0.46094 0.00976 0.01045 0.0
C379 C 0.40693 -0.01105 0.97472 0.0
N380 N 0.43723 0.03945 0.04536 0.0
N381 N 0.42683 0.9477 0.94982 0.0
H382 H 0.36462 -0.00737 0.95762 0.0
H383 H 0.38027 0.96738 0.9349 0.0
H384 H 0.44364 0.93598 0.94605 0.0
H385 H 0.40687 0.93638 0.93927 0.0
H386 H 0.45501 0.04422 0.06159 0.0
H387 H 0.41919 0.0475 0.05222 0.0
H388 H 0.49099 0.04275 0.04031 0.0
H389 H 0.50645 0.01626 0.01906 0.0
C390 C 0.45535 0.19304 0.27415 0.0
C391 C 0.44695 0.20186 0.30196 0.0
C392 C 0.45492 0.25297 0.29857 0.0
C393 C 0.45981 0.2437 0.26945 0.0
N394 N 0.46263 0.20513 0.22825 0.0
N395 N 0.43477 0.23967 0.33915 0.0
C396 C 0.45949 0.21376 0.25687 0.0
C397 C 0.44595 0.23174 0.31396 0.0
N398 N 0.46026 0.16507 0.26471 0.0
N399 N 0.45886 0.2821 0.31151 0.0
H400 H 0.42737 0.22483 0.35089 0.0
H401 H 0.43044 0.26059 0.34715 0.0
H402 H 0.46462 0.29832 0.30064 0.0
H403 H 0.45875 0.29017 0.33364 0.0
H404 H 0.46902 0.15796 0.24591 0.0
H405 H 0.45794 0.14945 0.27703 0.0
H406 H 0.45933 0.1834 0.21683 0.0
H407 H 0.4669 0.21985 0.2153 0.0
C408 C 0.94513 0.5113 0.9651 0.0
C409 C 0.96054 0.53946 0.96725 0.0
C410 C 0.98598 0.53866 0.01492 0.0
C411 C 0.96811 0.51215 0.0142 0.0
N412 N 0.92657 0.47631 -0.00894 0.0
N413 N -0.00792 0.58232 -0.00362 0.0
C414 C 0.94658 0.49922 0.98992 0.0
C415 C 0.98009 0.55381 -0.00727 0.0
N416 N 0.92971 0.49572 0.9391 0.0
N417 N 0.0092 0.54885 0.03619 0.0
H418 H 0.988 0.5944 0.98089 0.0
H419 H 0.00398 0.59478 0.01586 0.0
H420 H 0.01456 0.53808 0.05251 0.0
H421 H 0.02466 0.56641 0.03603 0.0
H422 H 0.92048 0.47392 0.93557 0.0
H423 H 0.92846 0.50361 0.92023 0.0
H424 H 0.90861 0.46819 0.97524 0.0
H425 H 0.92616 0.46734 0.0092 0.0
C426 C 0.91568 0.67713 0.29223 0.0
C427 C 0.94494 0.67516 0.29053 0.0
C428 C 0.93103 0.6288 0.25421 0.0
C429 C 0.90195 0.62951 0.25777 0.0
N430 N 0.86737 0.65097 0.28525 0.0
N431 N 0.98056 0.64553 0.27574 0.0
C432 C 0.89447 0.65269 0.27831 0.0
C433 C 0.95266 0.64991 0.27323 0.0
N434 N 0.90795 0.70271 0.30592 0.0
N435 N 0.93802 0.60893 0.23182 0.0
H436 H -0.00315 0.65992 0.2904 0.0
H437 H 0.98697 0.62616 0.2657 0.0
H438 H 0.92284 0.5936 0.21672 0.0
H439 H 0.95865 0.60956 0.22652 0.0
H440 H 0.88675 0.70622 0.30507 0.0
H441 H 0.92271 0.7214 0.3158 0.0
H442 H 0.86159 0.66584 0.30223 0.0
H443 H 0.8514 0.63309 0.27605 0.0
C444 C 0.72327 0.69041 0.48866 0.0
C445 C 0.70797 0.66253 0.48793 0.0
C446 C 0.68285 0.68455 0.52702 0.0
C447 C 0.69545 0.71267 0.52516 0.0
N448 N 0.72468 0.74281 0.50142 0.0
N449 N 0.66974 0.63341 0.50298 0.0
C450 C 0.71499 0.71578 0.50531 0.0
C451 C 0.68689 0.65963 0.50627 0.0
N452 N 0.74632 0.69261 0.47422 0.0
N453 N 0.66775 0.68157 0.5492 0.0
H454 H 0.67152 0.61467 0.48765 0.0
H455 H 0.65197 0.63086 0.51354 0.0
H456 H 0.66473 0.69929 0.56515 0.0
H457 H 0.66067 0.66145 0.55345 0.0
H458 H 0.76012 0.71208 0.47645 0.0
H459 H 0.7533 0.6745 0.46213 0.0
H460 H 0.73637 0.7461 0.48492 0.0
H461 H 0.71904 0.76194 0.51308 0.0
C462 C 0.6873 0.4468 0.68296 0.0
C463 C 0.7153 0.43974 0.68755 0.0
C464 C 0.70943 0.4374 0.7375 0.0
C465 C 0.68025 0.44059 0.73162 0.0
N466 N 0.63998 0.44349 0.69694 0.0
N467 N 0.75103 0.42272 0.71743 0.0
C468 C 0.66876 0.44408 0.70387 0.0
C469 C 0.72589 0.43357 0.71438 0.0
N470 N 0.67872 0.45713 0.65918 0.0
N471 N 0.72176 0.43902 0.76537 0.0
H472 H 0.7634 0.41867 0.70078 0.0
H473 H 0.75817 0.41503 0.7355 0.0
H474 H 0.71063 0.44257 0.78308 0.0
H475 H 0.74369 0.43991 0.77131 0.0
H476 H 0.65967 0.46548 0.65635 0.0
H477 H 0.69187 0.46008 0.64369 0.0
H478 H 0.6301 0.44272 0.67599 0.0
H479 H 0.62552 0.441 0.71138 0.0
C480 C 0.10934 0.69147 0.35527 0.0
C481 C 0.08825 0.68609 0.3302 0.0
C482 C 0.10494 0.64024 0.31042 0.0
C483 C 0.1241 0.64422 0.33667 0.0
N484 N 0.14172 0.67121 0.38594 0.0
N485 N 0.06203 0.65253 0.28669 0.0
C486 C 0.12553 0.66919 0.35965 0.0
C487 C 0.08494 0.65969 0.30853 0.0
N488 N 0.11474 0.71827 0.37423 0.0
N489 N 0.10668 0.61871 0.28675 0.0
H490 H 0.04664 0.66595 0.28447 0.0
H491 H 0.05676 0.63206 0.27237 0.0
H492 H 0.12139 0.60425 0.28686 0.0
H493 H 0.09543 0.61696 0.26613 0.0
H494 H 0.13186 0.72452 0.3912 0.0
H495 H 0.10366 0.73529 0.37149 0.0
H496 H 0.14125 0.68733 0.40448 0.0
H497 H 0.15382 0.65527 0.38991 0.0
C498 C 0.79925 0.85673 0.6082 0.0
C499 C 0.77196 0.86585 0.60644 0.0
C500 C 0.79441 0.91511 0.60602 0.0
C501 C 0.82185 0.90661 0.6102 0.0
N502 N 0.85056 0.87118 0.6218 0.0
N503 N 0.74425 0.90525 0.61061 0.0
C504 C 0.82432 0.87795 0.61327 0.0
C505 C 0.76975 0.89553 0.60744 0.0
N506 N 0.80129 0.8277 0.6035 0.0
N507 N 0.79164 0.9412 0.59909 0.0
H508 H 0.72583 0.89172 0.61241 0.0
H509 H 0.74213 0.92725 0.61446 0.0
H510 H 0.80897 0.95592 0.5969 0.0
H511 H 0.77191 0.94697 0.59269 0.0
H512 H 0.82049 0.81972 0.60137 0.0
H513 H 0.78352 0.81129 0.59892 0.0
H514 H 0.85329 0.85152 0.62727 0.0
H515 H 0.86935 0.88631 0.62625 0.0
C516 C 0.55524 0.57781 0.83193 0.0
C517 C 0.55014 0.58885 0.80665 0.0
C518 C 0.57239 0.55013 0.77911 0.0
C519 C 0.5752 0.53766 0.80367 0.0
N520 N 0.56456 0.53642 0.85173 0.0
N521 N 0.54894 0.58266 0.75484 0.0
C522 C 0.56531 0.55061 0.82963 0.0
C523 C 0.55736 0.57422 0.77984 0.0
N524 N 0.55163 0.59387 0.8584 0.0
N525 N 0.58512 0.53978 0.75552 0.0
H526 H 0.53762 0.6 0.75442 0.0
H527 H 0.55082 0.57087 0.73419 0.0
H528 H 0.5966 0.52239 0.75422 0.0
H529 H 0.58653 0.55005 0.73838 0.0
H530 H 0.55805 0.58849 0.87801 0.0
H531 H 0.5446 0.61405 0.86111 0.0
H532 H 0.55467 0.5432 0.86985 0.0
H533 H 0.57149 0.51633 0.85078 0.0
C534 C 0.89747 0.39042 0.08653 0.0
C535 C 0.90623 0.41643 0.1086 0.0
C536 C 0.88283 0.39324 0.14286 0.0
C537 C 0.87068 0.36896 0.11966 0.0
N538 N 0.86211 0.34709 0.06797 0.0
N539 N 0.90348 0.44441 0.15674 0.0
C540 C 0.8769 0.36815 0.09108 0.0
C541 C 0.89804 0.41835 0.13659 0.0
N542 N 0.90944 0.38654 0.06152 0.0
N543 N 0.88065 0.39202 0.17096 0.0
H544 H 0.91404 0.4635 0.15288 0.0
H545 H 0.89521 0.44771 0.17628 0.0
H546 H 0.8703 0.37372 0.17649 0.0
H547 H 0.89155 0.40792 0.18888 0.0
H548 H 0.90585 0.3668 0.04599 0.0
H549 H 0.92533 0.40194 0.05775 0.0
H550 H 0.86376 0.34745 0.0464 0.0
H551 H 0.84602 0.33092 0.07001 0.0
C552 C 0.00422 0.89079 0.36281 0.0
C553 C 0.02933 0.90442 0.38254 0.0
C554 C 0.04722 0.85766 0.3763 0.0
C555 C 0.02031 0.84345 0.3601 0.0
N556 N 0.97158 0.84599 0.34099 0.0
N557 N 0.074 0.9009 0.41032 0.0
C558 C -0.00157 0.85988 0.35386 0.0
C559 C 0.05085 0.88796 0.38968 0.0
N560 N 0.98608 0.9075 0.35233 0.0
N561 N 0.06944 0.84228 0.37837 0.0
H562 H 0.07763 0.92309 0.42035 0.0
H563 H 0.0886 0.8893 0.41898 0.0
H564 H 0.06752 0.82009 0.36869 0.0
H565 H 0.09035 0.85197 0.38737 0.0
H566 H 0.96892 0.89901 0.33565 0.0
H567 H -0.01011 0.93027 0.35828 0.0
H568 H 0.95403 0.85681 0.33898 0.0
H569 H 0.96607 0.82336 0.33465 0.0
C570 C 0.53423 0.80184 0.56556 0.0
C571 C 0.55973 0.80727 0.58601 0.0
C572 C 0.53124 0.808 0.62569 0.0
C573 C 0.50585 0.80459 0.60549 0.0
N574 N 0.48384 0.80566 0.55749 0.0
N575 N 0.58266 0.82289 0.63597 0.0
C576 C 0.50756 0.80384 0.5758 0.0
C577 C 0.55826 0.8127 0.61624 0.0
N578 N 0.53511 0.79303 0.53642 0.0
N579 N 0.52972 0.80498 0.65343 0.0
H580 H 0.60278 0.82716 0.62981 0.0
H581 H 0.58253 0.82996 0.65825 0.0
H582 H 0.51048 0.80049 0.66117 0.0
H583 H 0.54759 0.80407 0.66793 0.0
H584 H 0.5168 0.78568 0.52092 0.0
H585 H 0.55397 0.79034 0.52782 0.0
H586 H 0.4845 0.80814 0.53634 0.0
H587 H 0.46407 0.80778 0.5644 0.0
C588 C 0.6081 0.335 0.89739 0.0
C589 C 0.60303 0.30435 0.88576 0.0
C590 C 0.60184 0.31224 0.83643 0.0
C591 C 0.60425 0.34278 0.84784 0.0
N592 N 0.60376 0.38277 0.88866 0.0
N593 N 0.58835 0.26387 0.84394 0.0
C594 C 0.60565 0.35405 0.8782 0.0
C595 C 0.59791 0.29297 0.85518 0.0
N596 N 0.6166 0.34603 0.92659 0.0
N597 N 0.60481 0.30158 0.80805 0.0
H598 H 0.58447 0.24909 0.8569 0.0
H599 H 0.58145 0.25494 0.82182 0.0
H600 H 0.60874 0.31487 0.79369 0.0
H601 H 0.60631 0.2798 0.79956 0.0
H602 H 0.62357 0.36815 0.93581 0.0
H603 H 0.61933 0.33291 0.94136 0.0
H604 H 0.60168 0.3915 0.91021 0.0
H605 H 0.60145 0.39728 0.87523 0.0
C606 C 0.12127 0.47166 0.10378 0.0
C607 C 0.12971 0.47038 0.13305 0.0
C608 C 0.07947 0.45761 0.13852 0.0
C609 C 0.07097 0.4601 0.10968 0.0
N610 N 0.08313 0.47589 0.06712 0.0
N611 N 0.1164 0.47152 0.18068 0.0
C612 C 0.09169 0.46894 0.09291 0.0
C613 C 0.10871 0.46598 0.15119 0.0
N614 N 0.14151 0.47458 0.08604 0.0
N615 N 0.05982 0.44636 0.15354 0.0
H616 H 0.13728 0.47982 0.19101 0.0
H617 H 0.1016 0.47128 0.19511 0.0
H618 H 0.03819 0.4398 0.14499 0.0
H619 H 0.06543 0.44112 0.17341 0.0
H620 H 0.13656 0.47199 0.06363 0.0
H621 H 0.16347 0.4776 0.09333 0.0
H622 H 0.09719 0.4855 0.05547 0.0
H623 H 0.06167 0.47459 0.05861 0.0
C624 C 0.3467 0.21963 0.72289 0.0
C625 C 0.34878 0.19037 0.70966 0.0
C626 C 0.3533 0.20416 0.66343 0.0
C627 C 0.34736 0.23235 0.67566 0.0
N628 N 0.33337 0.26535 0.71587 0.0
N629 N 0.34917 0.15352 0.66597 0.0
C630 C 0.34284 0.23977 0.70514 0.0
C631 C 0.35091 0.18227 0.67957 0.0
N632 N 0.34928 0.22845 0.7525 0.0
N633 N 0.362 0.19852 0.6367 0.0
H634 H 0.34666 0.13664 0.67673 0.0
H635 H 0.34745 0.14616 0.64349 0.0
H636 H 0.36454 0.21419 0.62446 0.0
H637 H 0.36942 0.17931 0.628 0.0
H638 H 0.35091 0.25021 0.76348 0.0
H639 H 0.35273 0.2145 0.76631 0.0
H640 H 0.32671 0.27029 0.73619 0.0
H641 H 0.32951 0.28048 0.70351 0.0
C642 C 0.35481 0.11114 0.86598 0.0
C643 C 0.32856 0.12118 0.85973 0.0
C644 C 0.32485 0.13327 0.9118 0.0
C645 C 0.34891 0.11942 0.91741 0.0
N646 N 0.38402 0.09065 0.89896 0.0
N647 N 0.28679 0.13934 0.87602 0.0
C648 C 0.36334 0.10734 0.89432 0.0
C649 C 0.31316 0.13188 0.88248 0.0
N650 N 0.37188 0.10575 0.8449 0.0
N651 N 0.31357 0.14823 0.93452 0.0
H652 H 0.27759 0.13882 0.85487 0.0
H653 H 0.27311 0.14402 0.89131 0.0
H654 H 0.32168 0.14969 0.95623 0.0
H655 H 0.29791 0.16127 0.93197 0.0
H656 H 0.39261 0.10126 0.84902 0.0
H657 H 0.36646 0.10874 0.82396 0.0
H658 H 0.3929 0.07868 0.8822 0.0
H659 H 0.39039 0.08631 0.91911 0.0
C660 C 0.38441 0.10492 0.1179 0.0
C661 C 0.35452 0.0972 0.10788 0.0
C662 C 0.34491 0.10921 0.15822 0.0
C663 C 0.37465 0.11861 0.16803 0.0
N664 N 0.42175 0.13234 0.15668 0.0
N665 N 0.30619 0.09885 0.11774 0.0
C666 C 0.39412 0.1186 0.14768 0.0
C667 C 0.33471 0.10145 0.12783 0.0
N668 N 0.40368 0.09775 0.09948 0.0
N669 N 0.32653 0.10617 0.17774 0.0
H670 H 0.29802 0.09389 0.09561 0.0
H671 H 0.29109 0.10454 0.1312 0.0
H672 H 0.33309 0.11103 0.20017 0.0
H673 H 0.30522 0.0963 0.17156 0.0
H674 H 0.42556 0.09982 0.10653 0.0
H675 H 0.39773 0.08722 0.07761 0.0
H676 H 0.43607 0.13565 0.14234 0.0
H677 H 0.42951 0.14309 0.17825 0.0
C678 C 0.36807 0.16773 0.44591 0.0
C679 C 0.39594 0.17989 0.44256 0.0
C680 C 0.40017 0.214 0.49005 0.0
C681 C 0.3709 0.2047 0.49126 0.0
N682 N 0.3252 0.17707 0.46627 0.0
N683 N 0.43601 0.21924 0.45883 0.0
C684 C 0.3543 0.18273 0.46808 0.0
C685 C 0.41138 0.20431 0.46392 0.0
N686 N 0.35509 0.14129 0.42875 0.0
N687 N 0.41765 0.23116 0.5141 0.0
H688 H 0.44432 0.21391 0.43942 0.0
H689 H 0.44644 0.23887 0.47259 0.0
H690 H 0.41069 0.23764 0.53411 0.0
H691 H 0.43974 0.23618 0.51504 0.0
H692 H 0.33591 0.13033 0.43229 0.0
H693 H 0.36493 0.12877 0.41318 0.0
H694 H 0.31205 0.16323 0.44822 0.0
H695 H 0.31387 0.18856 0.48108 0.0
C696 C 0.57305 0.31537 0.15739 0.0
C697 C 0.57063 0.30768 0.18432 0.0
C698 C 0.61956 0.29654 0.18735 0.0
C699 C 0.62096 0.30149 0.15914 0.0
N700 N 0.59726 0.31053 0.11499 0.0
N701 N 0.58922 0.28527 0.22206 0.0
C702 C 0.59721 0.30952 0.14348 0.0
C703 C 0.59324 0.29668 0.19853 0.0
N704 N 0.55291 0.32935 0.14565 0.0
N705 N 0.64368 0.29296 0.20403 0.0
H706 H 0.57005 0.28438 0.23062 0.0
H707 H 0.60387 0.27409 0.23132 0.0
H708 H 0.66359 0.29335 0.19696 0.0
H709 H 0.64457 0.29245 0.22589 0.0
H710 H 0.55517 0.33831 0.12775 0.0
H711 H 0.53511 0.33441 0.15535 0.0
H712 H 0.57934 0.31316 0.10157 0.0
H713 H 0.61441 0.30605 0.10393 0.0
C714 C 0.0705 0.15017 0.3893 0.0
C715 C 0.07961 0.16609 0.41848 0.0
C716 C 0.05508 0.12623 0.43618 0.0
C717 C 0.04919 0.10889 0.40728 0.0
N718 N 0.05332 0.10288 0.35636 0.0
N719 N 0.08178 0.16962 0.47004 0.0
C720 C 0.05709 0.12056 0.38374 0.0
C721 C 0.07216 0.15423 0.44203 0.0
N722 N 0.07486 0.16328 0.36693 0.0
N723 N 0.04342 0.11629 0.45784 0.0
H724 H 0.09257 0.19104 0.47525 0.0
H725 H 0.08036 0.16077 0.48811 0.0
H726 H 0.03047 0.09604 0.45425 0.0
H727 H 0.0444 0.12898 0.47879 0.0
H728 H 0.06603 0.15399 0.34532 0.0
H729 H 0.08554 0.18456 0.37018 0.0
H730 H 0.06159 0.10906 0.33891 0.0
H731 H 0.04376 0.08106 0.35139 0.0
C732 C 0.03495 0.88825 0.5805 0.0
C733 C 0.01647 0.89237 0.60188 0.0
C734 C 0.05705 0.89681 0.64027 0.0
C735 C 0.07514 0.89092 0.61873 0.0
N736 N 0.07962 0.87343 0.56827 0.0
N737 N 0.00846 0.89298 0.65107 0.0
C738 C 0.06351 0.88419 0.58879 0.0
C739 C 0.02708 0.89424 0.63146 0.0
N740 N 0.02598 0.89008 0.55265 0.0
N741 N 0.06849 0.90662 0.66901 0.0
H742 H 0.98631 0.89049 0.64523 0.0
H743 H 0.01475 0.89134 0.67231 0.0
H744 H 0.09036 0.90971 0.67654 0.0
H745 H 0.05652 0.91432 0.68515 0.0
H746 H 0.03969 0.89048 0.53718 0.0
H747 H 0.00562 0.89406 0.54564 0.0
H748 H 0.07131 0.86544 0.54631 0.0
H749 H 0.10046 0.86963 0.57362 0.0
C750 C 0.50081 0.85265 0.90975 0.0
C751 C 0.5292 0.86436 0.92361 0.0
C752 C 0.54534 0.81835 0.90288 0.0
C753 C 0.51781 0.80816 0.88616 0.0
N754 N 0.4693 0.81533 0.87248 0.0
N755 N 0.57922 0.85991 0.93182 0.0
C756 C 0.4955 0.82523 0.88932 0.0
C757 C 0.55164 0.8475 0.9201 0.0
N758 N 0.4788 0.86732 0.91696 0.0
N759 N 0.56548 0.80023 0.90213 0.0
H760 H 0.58473 0.88119 0.94447 0.0
H761 H 0.59696 0.85001 0.9273 0.0
H762 H 0.56194 0.77915 0.88893 0.0
H763 H 0.58487 0.80516 0.91613 0.0
H764 H 0.45728 0.85868 0.90995 0.0
H765 H 0.48187 0.8873 0.93214 0.0
H766 H 0.45334 0.82821 0.87088 0.0
H767 H 0.46387 0.79447 0.85885 0.0
C768 C 0.1077 0.40242 0.39919 0.0
C769 C 0.13157 0.38884 0.40633 0.0
C770 C 0.16195 0.42196 0.38528 0.0
C771 C 0.13882 0.43742 0.38093 0.0
N772 N 0.09121 0.44586 0.38906 0.0
N773 N 0.18273 0.38957 0.41171 0.0
C774 C 0.11208 0.42863 0.38935 0.0
C775 C 0.1591 0.39967 0.40091 0.0
N776 N 0.08066 0.38968 0.40062 0.0
N777 N 0.18623 0.42763 0.37344 0.0
H778 H 0.18172 0.37377 0.42392 0.0
H779 H 0.20359 0.39891 0.41107 0.0
H780 H 0.18899 0.44326 0.3612 0.0
H781 H 0.20247 0.41486 0.37329 0.0
H782 H 0.06226 0.39696 0.39271 0.0
H783 H 0.07642 0.37015 0.4071 0.0
H784 H 0.07249 0.4421 0.39789 0.0
H785 H 0.09377 0.46555 0.3826 0.0
C786 C 0.59136 0.09511 0.89657 0.0
C787 C 0.60714 0.11157 0.92353 0.0
C788 C 0.59117 0.07277 0.94739 0.0
C789 C 0.57309 0.05774 0.92119 0.0
N790 N 0.55388 0.05504 0.87132 0.0
N791 N 0.61843 0.11871 0.97567 0.0
C792 C 0.5726 0.06904 0.89587 0.0
C793 C 0.60632 0.101 0.94921 0.0
N794 N 0.59502 0.10396 0.87156 0.0
N795 N 0.59363 0.06024 0.97072 0.0
H796 H 0.62907 0.13988 0.97821 0.0
H797 H 0.61568 0.11357 -0.00454 0.0
H798 H 0.58178 0.04029 0.97094 0.0
H799 H 0.60904 0.06851 0.9891 0.0
H800 H 0.58646 0.09146 0.85082 0.0
H801 H 0.60861 0.12294 0.87135 0.0
H802 H 0.54993 0.06388 0.8533 0.0
H803 H 0.54101 0.03504 0.86951 0.0
C804 C 0.38092 0.40789 0.17145 0.0
C805 C 0.37327 0.42743 0.19529 0.0
C806 C 0.39235 0.3993 0.22854 0.0
C807 C 0.3965 0.37776 0.20434 0.0
N808 N 0.39078 0.35928 0.15224 0.0
N809 N 0.36694 0.43893 0.24591 0.0
C810 C 0.38986 0.38147 0.1756 0.0
C811 C 0.37778 0.42248 0.22373 0.0
N812 N 0.38052 0.415 0.14507 0.0
N813 N 0.40315 0.39818 0.25614 0.0
H814 H 0.35545 0.45568 0.24326 0.0
H815 H 0.36691 0.43412 0.26626 0.0
H816 H 0.41463 0.38195 0.26055 0.0
H817 H 0.40332 0.41493 0.27436 0.0
H818 H 0.38872 0.40306 0.12776 0.0
H819 H 0.37452 0.43438 0.14131 0.0
H820 H 0.3831 0.35957 0.13089 0.0
H821 H 0.39687 0.33942 0.15428 0.0
C822 C 0.29613 0.84386 0.59701 0.0
C823 C 0.26675 0.83561 0.59866 0.0
C824 C 0.27613 0.78735 0.60404 0.0
C825 C 0.30492 0.79472 0.59978 0.0
N826 N 0.34063 0.82773 0.58592 0.0
N827 N 0.22756 0.79738 0.59698 0.0
C828 C 0.31443 0.82233 0.59439 0.0
C829 C 0.25637 0.8067 0.60017 0.0
N830 N 0.30698 0.87249 0.59944 0.0
N831 N 0.2679 0.76265 0.61327 0.0
H832 H 0.21234 0.81068 0.59339 0.0
H833 H 0.21873 0.77568 0.59488 0.0
H834 H 0.28181 0.74825 0.61731 0.0
H835 H 0.24803 0.75795 0.61973 0.0
H836 H 0.3288 0.88012 0.60156 0.0
H837 H 0.29458 0.88916 0.60219 0.0
H838 H 0.34744 0.84636 0.57879 0.0
H839 H 0.35443 0.81232 0.58322 0.0
C840 C 0.8464 0.51017 0.81711 0.0
C841 C 0.84675 0.51028 0.78736 0.0
C842 C 0.89228 0.54385 0.8003 0.0
C843 C 0.89337 0.54138 0.82958 0.0
N844 N 0.87399 0.51832 0.86514 0.0
N845 N 0.8728 0.5223 0.74984 0.0
C846 C 0.87108 0.52352 0.83786 0.0
C847 C 0.87044 0.5258 0.7787 0.0
N848 N 0.82216 0.49819 0.82571 0.0
N849 N 0.91146 0.5642 0.79325 0.0
H850 H 0.85767 0.5087 0.73323 0.0
H851 H 0.89112 0.53058 0.74245 0.0
H852 H 0.92752 0.57826 0.80852 0.0
H853 H 0.90973 0.56911 0.77287 0.0
H854 H 0.81958 0.50023 0.84744 0.0
H855 H 0.80358 0.48842 0.81118 0.0
H856 H 0.85988 0.50301 0.87138 0.0
H857 H 0.89191 0.52736 0.88083 0.0
C858 C 0.84748 0.58193 0.08656 0.0
C859 C 0.8557 0.56168 0.10277 0.0
C860 C 0.87964 0.53845 0.06315 0.0
C861 C 0.87068 0.55817 0.04666 0.0
N862 N 0.84013 0.59342 0.03928 0.0
N863 N 0.87357 0.51674 0.1042 0.0
C864 C 0.85265 0.57822 0.05731 0.0
C865 C 0.86986 0.53864 0.09027 0.0
N866 N 0.83645 0.60577 0.09955 0.0
N867 N 0.8987 0.52068 0.05371 0.0
H868 H 0.8664 0.51616 0.12399 0.0
H869 H 0.88122 0.49786 0.09493 0.0
H870 H 0.90641 0.51991 0.03401 0.0
H871 H 0.90855 0.5083 0.06636 0.0
H872 H 0.83332 0.62298 0.08979 0.0
H873 H 0.83261 0.60974 0.12104 0.0
H874 H 0.82448 0.60614 0.04485 0.0
H875 H 0.8433 0.59101 0.01761 0.0
C876 C 0.75422 0.54198 0.27489 0.0
C877 C 0.78294 0.55594 0.2782 0.0
C878 C 0.778 0.58677 0.32514 0.0
C879 C 0.75005 0.57116 0.32306 0.0
N880 N 0.71277 0.53134 0.2982 0.0
N881 N 0.82386 0.58856 0.30783 0.0
C882 C 0.73842 0.54809 0.29848 0.0
C883 C 0.79536 0.57735 0.3038 0.0
N884 N 0.74199 0.52326 0.24907 0.0
N885 N 0.78738 0.61161 0.34658 0.0
H886 H 0.83714 0.58306 0.29225 0.0
H887 H 0.83489 0.60163 0.32744 0.0
H888 H 0.77512 0.61979 0.36227 0.0
H889 H 0.8062 0.62572 0.34727 0.0
H890 H 0.72025 0.51485 0.24404 0.0
H891 H 0.7533 0.51762 0.23175 0.0
H892 H 0.70448 0.51235 0.28237 0.0
H893 H 0.70072 0.53508 0.31517 0.0
C894 C 0.72156 0.46936 0.52404 0.0
C895 C 0.74715 0.47489 0.54435 0.0
C896 C 0.76295 0.51848 0.52721 0.0
C897 C 0.73935 0.51063 0.50428 0.0
N898 N 0.70033 0.47363 0.47678 0.0
N899 N 0.79579 0.50045 0.55906 0.0
C900 C 0.71982 0.4846 0.50145 0.0
C901 C 0.76895 0.4982 0.54415 0.0
N902 N 0.69834 0.45071 0.52695 0.0
N903 N 0.77886 0.54574 0.53397 0.0
H904 H 0.80183 0.48503 0.57022 0.0
H905 H 0.81292 0.51569 0.55735 0.0
H906 H 0.77415 0.56216 0.52362 0.0
H907 H 0.7946 0.55307 0.55223 0.0
H908 H 0.67845 0.44816 0.51412 0.0
H909 H 0.69788 0.44043 0.54419 0.0
H910 H 0.68741 0.45333 0.47279 0.0
H911 H 0.69941 0.48303 0.45888 0.0
loop_
_geom_bond_atom_site_label_1
_geom_bond_atom_site_label_2
_geom_bond_distance
_geom_bond_site_symmetry_2
_ccdc_geom_bond_type
O0 Cd1 2.300 . S
O0 C7 1.275 . S
Cd1 O0 2.300 . S
Cd1 O9 2.381 . S
Cd1 O10 2.378 . S
O2 Cd3 2.385 . S
O2 C7 1.255 . S
Cd3 O2 2.385 . S
Cd3 O4 2.317 . S
O4 Cd3 2.317 . S
O4 C5 1.232 . S
C5 O4 1.232 . S
C5 O6 1.218 . S
O6 C5 1.218 . S
C7 O0 1.275 . S
C7 O2 1.255 . S
C8 O9 1.258 . S
C8 O10 1.256 . S
O9 Cd1 2.381 . S
O9 C8 1.258 . S
O10 Cd1 2.378 . S
O10 C8 1.256 . S
O11 Cd12 2.300 . S
O11 C18 1.275 . S
Cd12 O11 2.300 . S
Cd12 O20 2.381 . S
Cd12 O21 2.378 . S
O13 Cd14 2.385 . S
O13 C18 1.255 1_655 S
Cd14 O13 2.385 . S
Cd14 O15 2.317 . S
O15 Cd14 2.317 . S
O15 C16 1.232 . S
C16 O15 1.232 . S
C16 O17 1.218 . S
O17 C16 1.218 . S
C18 O11 1.275 . S
C18 O13 1.255 1_455 S
C19 O20 1.258 . S
C19 O21 1.256 . S
O20 Cd12 2.381 . S
O20 C19 1.258 . S
O21 Cd12 2.378 . S
O21 C19 1.256 . S
O22 Cd23 2.300 . S
O22 C29 1.275 . S
Cd23 O22 2.300 . S
Cd23 O31 2.381 . S
Cd23 O32 2.378 . S
O24 Cd25 2.385 . S
O24 C29 1.255 . S
Cd25 O24 2.385 . S
Cd25 O26 2.317 . S
O26 Cd25 2.317 . S
O26 C27 1.232 . S
C27 O26 1.232 . S
C27 O28 1.218 . S
O28 C27 1.218 . S
C29 O22 1.275 . S
C29 O24 1.255 . S
C30 O31 1.258 . S
C30 O32 1.256 . S
O31 Cd23 2.381 . S
O31 C30 1.258 . S
O32 Cd23 2.378 . S
O32 C30 1.256 . S
O33 Cd34 2.300 . S
O33 C40 1.275 . S
Cd34 O33 2.300 . S
Cd34 O42 2.381 . S
Cd34 O43 2.378 . S
O35 Cd36 2.385 . S
O35 C40 1.255 . S
Cd36 O35 2.385 . S
Cd36 O37 2.317 . S
O37 Cd36 2.317 . S
O37 C38 1.232 . S
C38 O37 1.232 . S
C38 O39 1.218 . S
O39 C38 1.218 . S
C40 O33 1.275 . S
C40 O35 1.255 . S
C41 O42 1.258 . S
C41 O43 1.256 . S
O42 Cd34 2.381 . S
O42 C41 1.258 . S
O43 Cd34 2.378 . S
O43 C41 1.256 . S
O44 Cd45 2.300 1_655 S
O44 C51 1.275 1_545 S
Cd45 O44 2.300 1_455 S
Cd45 O53 2.381 . S
Cd45 O54 2.378 . S
O46 Cd47 2.385 . S
O46 C51 1.255 1_455 S
Cd47 O46 2.385 . S
Cd47 O48 2.317 . S
O48 Cd47 2.317 . S
O48 C49 1.232 . S
C49 O48 1.232 . S
C49 O50 1.218 . S
O50 C49 1.218 . S
C51 O44 1.275 1_565 S
C51 O46 1.255 1_655 S
C52 O53 1.258 . S
C52 O54 1.256 . S
O53 Cd45 2.381 . S
O53 C52 1.258 . S
O54 Cd45 2.378 . S
O54 C52 1.256 . S
O55 Cd56 2.300 . S
O55 C62 1.275 . S
Cd56 O55 2.300 . S
Cd56 O64 2.381 . S
Cd56 O65 2.378 . S
O57 Cd58 2.385 . S
O57 C62 1.255 . S
Cd58 O57 2.385 . S
Cd58 O59 2.317 . S
O59 Cd58 2.317 . S
O59 C60 1.232 . S
C60 O59 1.232 . S
C60 O61 1.218 . S
O61 C60 1.218 . S
C62 O55 1.275 . S
C62 O57 1.255 . S
C63 O64 1.258 . S
C63 O65 1.256 . S
O64 Cd56 2.381 . S
O64 C63 1.258 . S
O65 Cd56 2.378 . S
O65 C63 1.256 . S
O66 Cd67 2.300 . S
O66 C73 1.275 . S
Cd67 O66 2.300 . S
Cd67 O75 2.381 . S
Cd67 O76 2.378 . S
O68 Cd69 2.385 . S
O68 C73 1.255 . S
Cd69 O68 2.385 . S
Cd69 O70 2.317 . S
O70 Cd69 2.317 . S
O70 C71 1.232 . S
C71 O70 1.232 . S
C71 O72 1.218 . S
O72 C71 1.218 . S
C73 O66 1.275 . S
C73 O68 1.255 . S
C74 O75 1.258 . S
C74 O76 1.256 . S
O75 Cd67 2.381 . S
O75 C74 1.258 . S
O76 Cd67 2.378 . S
O76 C74 1.256 . S
O77 Cd78 2.300 . S
O77 C84 1.275 . S
Cd78 O77 2.300 . S
Cd78 O86 2.381 . S
Cd78 O87 2.378 . S
O79 Cd80 2.385 . S
O79 C84 1.255 . S
Cd80 O79 2.385 . S
Cd80 O81 2.317 . S
O81 Cd80 2.317 . S
O81 C82 1.232 . S
C82 O81 1.232 . S
C82 O83 1.218 . S
O83 C82 1.218 . S
C84 O77 1.275 . S
C84 O79 1.255 . S
C85 O86 1.258 . S
C85 O87 1.256 . S
O86 Cd78 2.381 . S
O86 C85 1.258 . S
O87 Cd78 2.378 . S
O87 C85 1.256 . S
O88 Cd89 2.300 . S
O88 C95 1.275 . S
Cd89 O88 2.300 . S
Cd89 O97 2.381 . S
Cd89 O98 2.378 . S
O90 Cd91 2.385 . S
O90 C95 1.255 . S
Cd91 O90 2.385 . S
Cd91 O92 2.317 . S
O92 Cd91 2.317 . S
O92 C93 1.232 . S
C93 O92 1.232 . S
C93 O94 1.218 . S
O94 C93 1.218 . S
C95 O88 1.275 . S
C95 O90 1.255 . S
C96 O97 1.258 . S
C96 O98 1.256 . S
O97 Cd89 2.381 . S
O97 C96 1.258 . S
O98 Cd89 2.378 . S
O98 C96 1.256 . S
O99 Cd100 2.300 . S
O99 C106 1.275 . S
Cd100 O99 2.300 . S
Cd100 O108 2.381 . S
Cd100 O109 2.378 . S
O101 Cd102 2.385 . S
O101 C106 1.255 . S
Cd102 O101 2.385 . S
Cd102 O103 2.317 . S
O103 Cd102 2.317 . S
O103 C104 1.232 . S
C104 O103 1.232 . S
C104 O105 1.218 . S
O105 C104 1.218 . S
C106 O99 1.275 . S
C106 O101 1.255 . S
C107 O108 1.258 . S
C107 O109 1.256 . S
O108 Cd100 2.381 . S
O108 C107 1.258 . S
O109 Cd100 2.378 . S
O109 C107 1.256 . S
O110 Cd111 2.300 . S
O110 C117 1.275 1_554 S
Cd111 O110 2.300 . S
Cd111 O119 2.381 . S
Cd111 O120 2.378 . S
O112 Cd113 2.385 . S
O112 C117 1.255 . S
Cd113 O112 2.385 . S
Cd113 O114 2.317 . S
O114 Cd113 2.317 . S
O114 C115 1.232 . S
C115 O114 1.232 . S
C115 O116 1.218 . S
O116 C115 1.218 . S
C117 O110 1.275 1_556 S
C117 O112 1.255 . S
C118 O119 1.258 . S
C118 O120 1.256 . S
O119 Cd111 2.381 . S
O119 C118 1.258 . S
O120 Cd111 2.378 . S
O120 C118 1.256 . S
O121 Cd122 2.300 . S
O121 C128 1.275 . S
Cd122 O121 2.300 . S
Cd122 O130 2.381 . S
Cd122 O131 2.378 . S
O123 Cd124 2.385 . S
O123 C128 1.255 . S
Cd124 O123 2.385 . S
Cd124 O125 2.317 . S
O125 Cd124 2.317 . S
O125 C126 1.232 . S
C126 O125 1.232 . S
C126 O127 1.218 . S
O127 C126 1.218 . S
C128 O121 1.275 . S
C128 O123 1.255 . S
C129 O130 1.258 . S
C129 O131 1.256 . S
O130 Cd122 2.381 . S
O130 C129 1.258 . S
O131 Cd122 2.378 . S
O131 C129 1.256 . S
O132 Cd133 2.300 . S
O132 C139 1.275 . S
Cd133 O132 2.300 . S
Cd133 O141 2.381 . S
Cd133 O142 2.378 . S
O134 Cd135 2.385 . S
O134 C139 1.255 . S
Cd135 O134 2.385 . S
Cd135 O136 2.317 . S
O136 Cd135 2.317 . S
O136 C137 1.232 . S
C137 O136 1.232 . S
C137 O138 1.218 . S
O138 C137 1.218 . S
C139 O132 1.275 . S
C139 O134 1.255 . S
C140 O141 1.258 . S
C140 O142 1.256 . S
O141 Cd133 2.381 . S
O141 C140 1.258 . S
O142 Cd133 2.378 . S
O142 C140 1.256 . S
O143 Cd144 2.300 . S
O143 C150 1.275 1_455 S
Cd144 O143 2.300 . S
Cd144 O152 2.381 . S
Cd144 O153 2.378 . S
O145 Cd146 2.385 . S
O145 C150 1.255 . S
Cd146 O145 2.385 . S
Cd146 O147 2.317 . S
O147 Cd146 2.317 . S
O147 C148 1.232 . S
C148 O147 1.232 . S
C148 O149 1.218 . S
O149 C148 1.218 . S
C150 O143 1.275 1_655 S
C150 O145 1.255 . S
C151 O152 1.258 . S
C151 O153 1.256 . S
O152 Cd144 2.381 . S
O152 C151 1.258 . S
O153 Cd144 2.378 . S
O153 C151 1.256 . S
O154 Cd155 2.300 . S
O154 C161 1.275 . S
Cd155 O154 2.300 . S
Cd155 O163 2.381 . S
Cd155 O164 2.378 . S
O156 Cd157 2.385 . S
O156 C161 1.255 . S
Cd157 O156 2.385 . S
Cd157 O158 2.317 . S
O158 Cd157 2.317 . S
O158 C159 1.232 . S
C159 O158 1.232 . S
C159 O160 1.218 . S
O160 C159 1.218 . S
C161 O154 1.275 . S
C161 O156 1.255 . S
C162 O163 1.258 . S
C162 O164 1.256 . S
O163 Cd155 2.381 . S
O163 C162 1.258 . S
O164 Cd155 2.378 . S
O164 C162 1.256 . S
O165 Cd166 2.300 . S
O165 C172 1.275 . S
Cd166 O165 2.300 . S
Cd166 O174 2.381 . S
Cd166 O175 2.378 . S
O167 Cd168 2.385 . S
O167 C172 1.255 . S
Cd168 O167 2.385 . S
Cd168 O169 2.317 . S
O169 Cd168 2.317 . S
O169 C170 1.232 . S
C170 O169 1.232 . S
C170 O171 1.218 . S
O171 C170 1.218 . S
C172 O165 1.275 . S
C172 O167 1.255 . S
C173 O174 1.258 . S
C173 O175 1.256 . S
O174 Cd166 2.381 . S
O174 C173 1.258 . S
O175 Cd166 2.378 . S
O175 C173 1.256 . S
O176 Cd177 2.300 . S
O176 C183 1.275 . S
Cd177 O176 2.300 . S
Cd177 O185 2.381 . S
Cd177 O186 2.378 . S
O178 Cd179 2.385 . S
O178 C183 1.255 . S
Cd179 O178 2.385 . S
Cd179 O180 2.317 . S
O180 Cd179 2.317 . S
O180 C181 1.232 . S
C181 O180 1.232 . S
C181 O182 1.218 . S
O182 C181 1.218 . S
C183 O176 1.275 . S
C183 O178 1.255 . S
C184 O185 1.258 . S
C184 O186 1.256 . S
O185 Cd177 2.381 . S
O185 C184 1.258 . S
O186 Cd177 2.378 . S
O186 C184 1.256 . S
O187 Cd188 2.300 . S
O187 C194 1.275 . S
Cd188 O187 2.300 . S
Cd188 O196 2.381 . S
Cd188 O197 2.378 . S
O189 Cd190 2.385 . S
O189 C194 1.255 . S
Cd190 O189 2.385 . S
Cd190 O191 2.317 . S
O191 Cd190 2.317 . S
O191 C192 1.232 . S
C192 O191 1.232 . S
C192 O193 1.218 . S
O193 C192 1.218 . S
C194 O187 1.275 . S
C194 O189 1.255 . S
C195 O196 1.258 . S
C195 O197 1.256 . S
O196 Cd188 2.381 . S
O196 C195 1.258 . S
O197 Cd188 2.378 . S
O197 C195 1.256 . S
O198 Cd199 2.300 . S
O198 C205 1.275 . S
Cd199 O198 2.300 . S
Cd199 O207 2.381 . S
Cd199 O208 2.378 . S
O200 Cd201 2.385 . S
O200 C205 1.255 . S
Cd201 O200 2.385 . S
Cd201 O202 2.317 . S
O202 Cd201 2.317 . S
O202 C203 1.232 . S
C203 O202 1.232 . S
C203 O204 1.218 . S
O204 C203 1.218 . S
C205 O198 1.275 . S
C205 O200 1.255 . S
C206 O207 1.258 . S
C206 O208 1.256 . S
O207 Cd199 2.381 . S
O207 C206 1.258 . S
O208 Cd199 2.378 . S
O208 C206 1.256 . S
O209 Cd210 2.300 . S
O209 C216 1.275 . S
Cd210 O209 2.300 . S
Cd210 O218 2.381 . S
Cd210 O219 2.378 . S
O211 Cd212 2.385 . S
O211 C216 1.255 . S
Cd212 O211 2.385 . S
Cd212 O213 2.317 . S
O213 Cd212 2.317 . S
O213 C214 1.232 . S
C214 O213 1.232 . S
C214 O215 1.218 . S
O215 C214 1.218 . S
C216 O209 1.275 . S
C216 O211 1.255 . S
C217 O218 1.258 . S
C217 O219 1.256 . S
O218 Cd210 2.381 . S
O218 C217 1.258 . S
O219 Cd210 2.378 . S
O219 C217 1.256 . S
O220 Cd221 2.300 . S
O220 C227 1.275 1_556 S
Cd221 O220 2.300 . S
Cd221 O229 2.381 . S
Cd221 O230 2.378 . S
O222 Cd223 2.385 . S
O222 C227 1.255 . S
Cd223 O222 2.385 . S
Cd223 O224 2.317 . S
O224 Cd223 2.317 . S
O224 C225 1.232 . S
C225 O224 1.232 . S
C225 O226 1.218 . S
O226 C225 1.218 . S
C227 O220 1.275 1_554 S
C227 O222 1.255 . S
C228 O229 1.258 . S
C228 O230 1.256 . S
O229 Cd221 2.381 . S
O229 C228 1.258 . S
O230 Cd221 2.378 . S
O230 C228 1.256 . S
O231 Cd232 2.300 . S
O231 C238 1.275 . S
Cd232 O231 2.300 . S
Cd232 O240 2.381 . S
Cd232 O241 2.378 . S
O233 Cd234 2.385 . S
O233 C238 1.255 . S
Cd234 O233 2.385 . S
Cd234 O235 2.317 . S
O235 Cd234 2.317 . S
O235 C236 1.232 . S
C236 O235 1.232 . S
C236 O237 1.218 . S
O237 C236 1.218 . S
C238 O231 1.275 . S
C238 O233 1.255 . S
C239 O240 1.258 . S
C239 O241 1.256 . S
O240 Cd232 2.381 . S
O240 C239 1.258 . S
O241 Cd232 2.378 . S
O241 C239 1.256 . S
O242 Cd243 2.300 . S
O242 C249 1.275 . S
Cd243 O242 2.300 . S
Cd243 O251 2.381 . S
Cd243 O252 2.378 . S
O244 Cd245 2.385 . S
O244 C249 1.255 . S
Cd245 O244 2.385 . S
Cd245 O246 2.317 . S
O246 Cd245 2.317 . S
O246 C247 1.232 . S
C247 O246 1.232 . S
C247 O248 1.218 . S
O248 C247 1.218 . S
C249 O242 1.275 . S
C249 O244 1.255 . S
C250 O251 1.258 . S
C250 O252 1.256 . S
O251 Cd243 2.381 . S
O251 C250 1.258 . S
O252 Cd243 2.378 . S
O252 C250 1.256 . S
O253 Cd254 2.300 . S
O253 C260 1.275 1_565 S
Cd254 O253 2.300 . S
Cd254 O262 2.381 . S
Cd254 O263 2.378 . S
O255 Cd256 2.385 . S
O255 C260 1.255 . S
Cd256 O255 2.385 . S
Cd256 O257 2.317 . S
O257 Cd256 2.317 . S
O257 C258 1.232 . S
C258 O257 1.232 . S
C258 O259 1.218 . S
O259 C258 1.218 . S
C260 O253 1.275 1_545 S
C260 O255 1.255 . S
C261 O262 1.258 . S
C261 O263 1.256 . S
O262 Cd254 2.381 . S
O262 C261 1.258 . S
O263 Cd254 2.378 . S
O263 C261 1.256 . S
C264 C265 1.363 . S
C264 C270 1.379 . S
C264 N272 1.356 . S
C265 C264 1.363 . S
C265 C271 1.363 . S
C266 C267 1.363 . S
C266 C271 1.379 . S
C266 N273 1.356 . S
C267 C266 1.363 . S
C267 C270 1.363 . S
N268 C270 1.356 . S
N268 H280 0.984 . S
N268 H281 0.985 . S
N269 C271 1.356 . S
N269 H274 0.984 . S
N269 H275 0.985 . S
C270 C264 1.379 . S
C270 C267 1.363 . S
C270 N268 1.356 . S
C271 C265 1.363 . S
C271 C266 1.379 . S
C271 N269 1.356 . S
N272 C264 1.356 . S
N272 H278 0.984 . S
N272 H279 0.984 . S
N273 C266 1.356 . S
N273 H276 0.984 . S
N273 H277 0.985 . S
H274 N269 0.984 . S
H275 N269 0.985 . S
H276 N273 0.984 . S
H277 N273 0.985 . S
H278 N272 0.984 . S
H279 N272 0.984 . S
H280 N268 0.984 . S
H281 N268 0.985 . S
C282 C283 1.363 1_455 S
C282 C288 1.379 . S
C282 N290 1.356 1_565 S
C283 C282 1.363 1_655 S
C283 C289 1.363 . S
C284 C285 1.363 . S
C284 C289 1.379 . S
C284 N291 1.356 . S
C285 C284 1.363 . S
C285 C288 1.363 1_655 S
N286 C288 1.355 1_545 S
N286 H298 0.993 . S
N286 H299 0.978 1_545 S
N287 C289 1.356 . S
N287 H292 0.984 . S
N287 H293 0.985 . S
C288 C282 1.379 . S
C288 C285 1.363 1_455 S
C288 N286 1.355 1_565 S
C289 C283 1.363 . S
C289 C284 1.379 . S
C289 N287 1.356 . S
N290 C282 1.356 1_545 S
N290 H296 0.984 . S
N290 H297 0.984 . S
N291 C284 1.356 . S
N291 H294 0.984 . S
N291 H295 0.985 . S
H292 N287 0.984 . S
H293 N287 0.985 . S
H294 N291 0.984 . S
H295 N291 0.985 . S
H296 N290 0.984 . S
H297 N290 0.984 . S
H298 N286 0.993 . S
H299 N286 0.978 1_565 S
C300 C301 1.363 . S
C300 C306 1.379 . S
C300 N308 1.356 . S
C301 C300 1.363 . S
C301 C307 1.363 . S
C302 C303 1.363 . S
C302 C307 1.379 . S
C302 N309 1.356 . S
C303 C302 1.363 . S
C303 C306 1.363 . S
N304 C306 1.356 . S
N304 H316 0.984 . S
N304 H317 0.985 . S
N305 C307 1.356 . S
N305 H310 0.984 . S
N305 H311 0.985 . S
C306 C300 1.379 . S
C306 C303 1.363 . S
C306 N304 1.356 . S
C307 C301 1.363 . S
C307 C302 1.379 . S
C307 N305 1.356 . S
N308 C300 1.356 . S
N308 H314 0.984 . S
N308 H315 0.984 . S
N309 C302 1.356 . S
N309 H312 0.984 . S
N309 H313 0.985 . S
H310 N305 0.984 . S
H311 N305 0.985 . S
H312 N309 0.984 . S
H313 N309 0.985 . S
H314 N308 0.984 . S
H315 N308 0.984 . S
H316 N304 0.984 . S
H317 N304 0.985 . S
C318 C319 1.363 . S
C318 C324 1.379 1_556 S
C318 N326 1.356 . S
C319 C318 1.363 . S
C319 C325 1.363 . S
C320 C321 1.363 . S
C320 C325 1.379 1_554 S
C320 N327 1.356 . S
C321 C320 1.363 . S
C321 C324 1.363 . S
N322 C324 1.356 . S
N322 H334 0.984 . S
N322 H335 0.985 . S
N323 C325 1.356 . S
N323 H328 0.984 . S
N323 H329 0.985 . S
C324 C318 1.379 1_554 S
C324 C321 1.363 . S
C324 N322 1.356 . S
C325 C319 1.363 . S
C325 C320 1.379 1_556 S
C325 N323 1.356 . S
N326 C318 1.356 . S
N326 H332 0.984 . S
N326 H333 0.984 . S
N327 C320 1.356 . S
N327 H330 0.984 . S
N327 H331 0.985 . S
H328 N323 0.984 . S
H329 N323 0.985 . S
H330 N327 0.984 . S
H331 N327 0.985 . S
H332 N326 0.984 . S
H333 N326 0.984 . S
H334 N322 0.984 . S
H335 N322 0.985 . S
C336 C337 1.363 . S
C336 C342 1.379 . S
C336 N344 1.356 . S
C337 C336 1.363 . S
C337 C343 1.363 . S
C338 C339 1.363 . S
C338 C343 1.379 . S
C338 N345 1.356 . S
C339 C338 1.363 . S
C339 C342 1.363 . S
N340 C342 1.356 . S
N340 H352 0.984 . S
N340 H353 0.985 . S
N341 C343 1.356 . S
N341 H346 0.984 . S
N341 H347 0.985 . S
C342 C336 1.379 . S
C342 C339 1.363 . S
C342 N340 1.356 . S
C343 C337 1.363 . S
C343 C338 1.379 . S
C343 N341 1.356 . S
N344 C336 1.356 . S
N344 H350 0.984 . S
N344 H351 0.984 . S
N345 C338 1.356 . S
N345 H348 0.984 . S
N345 H349 0.985 . S
H346 N341 0.984 . S
H347 N341 0.985 . S
H348 N345 0.984 . S
H349 N345 0.985 . S
H350 N344 0.984 . S
H351 N344 0.984 . S
H352 N340 0.984 . S
H353 N340 0.985 . S
C354 C355 1.363 . S
C354 C360 1.379 1_545 S
C354 N362 1.356 . S
C355 C354 1.363 . S
C355 C361 1.363 . S
C356 C357 1.363 . S
C356 C361 1.379 1_565 S
C356 N363 1.356 . S
C357 C356 1.363 . S
C357 C360 1.363 . S
N358 C360 1.356 . S
N358 H370 0.984 . S
N358 H371 0.985 . S
N359 C361 1.356 . S
N359 H364 0.984 . S
N359 H365 0.985 . S
C360 C354 1.379 1_565 S
C360 C357 1.363 . S
C360 N358 1.356 . S
C361 C355 1.363 . S
C361 C356 1.379 1_545 S
C361 N359 1.356 . S
N362 C354 1.356 . S
N362 H368 0.984 . S
N362 H369 0.984 . S
N363 C356 1.356 . S
N363 H366 0.984 . S
N363 H367 0.985 . S
H364 N359 0.984 . S
H365 N359 0.985 . S
H366 N363 0.984 . S
H367 N363 0.985 . S
H368 N362 0.984 . S
H369 N362 0.984 . S
H370 N358 0.984 . S
H371 N358 0.985 . S
C372 C373 1.363 . S
C372 C378 1.379 . S
C372 N380 1.356 1_556 S
C373 C372 1.363 . S
C373 C379 1.363 . S
C374 C375 1.363 . S
C374 C379 1.379 . S
C374 N381 1.356 . S
C375 C374 1.363 . S
C375 C378 1.363 . S
N376 C378 1.356 1_554 S
N376 H388 0.984 . S
N376 H389 0.985 . S
N377 C379 1.356 . S
N377 H382 0.984 . S
N377 H383 0.985 . S
C378 C372 1.379 . S
C378 C375 1.363 . S
C378 N376 1.356 1_556 S
C379 C373 1.363 . S
C379 C374 1.379 . S
C379 N377 1.356 . S
N380 C372 1.356 1_554 S
N380 H386 0.984 . S
N380 H387 0.984 . S
N381 C374 1.356 . S
N381 H384 0.984 . S
N381 H385 0.985 . S
H382 N377 0.984 . S
H383 N377 0.985 . S
H384 N381 0.984 . S
H385 N381 0.985 . S
H386 N380 0.984 . S
H387 N380 0.984 . S
H388 N376 0.984 . S
H389 N376 0.985 . S
C390 C391 1.363 . S
C390 C396 1.379 . S
C390 N398 1.356 . S
C391 C390 1.363 . S
C391 C397 1.363 . S
C392 C393 1.363 . S
C392 C397 1.379 . S
C392 N399 1.356 . S
C393 C392 1.363 . S
C393 C396 1.363 . S
N394 C396 1.356 . S
N394 H406 0.984 . S
N394 H407 0.985 . S
N395 C397 1.356 . S
N395 H400 0.984 . S
N395 H401 0.985 . S
C396 C390 1.379 . S
C396 C393 1.363 . S
C396 N394 1.356 . S
C397 C391 1.363 . S
C397 C392 1.379 . S
C397 N395 1.356 . S
N398 C390 1.356 . S
N398 H404 0.984 . S
N398 H405 0.984 . S
N399 C392 1.356 . S
N399 H402 0.984 . S
N399 H403 0.985 . S
H400 N395 0.984 . S
H401 N395 0.985 . S
H402 N399 0.984 . S
H403 N399 0.985 . S
H404 N398 0.984 . S
H405 N398 0.984 . S
H406 N394 0.984 . S
H407 N394 0.985 . S
C408 C409 1.363 . S
C408 C414 1.379 . S
C408 N416 1.356 1_554 S
C409 C408 1.363 . S
C409 C415 1.363 . S
C410 C411 1.363 . S
C410 C415 1.379 . S
C410 N417 1.379 . S
C411 C410 1.363 . S
C411 C414 1.363 . S
N412 C414 1.356 1_556 S
N412 H424 0.984 . S
N412 H425 0.985 1_556 S
N413 C415 1.356 . S
N413 H418 0.984 . S
N413 H419 0.985 . S
C414 C408 1.379 . S
C414 C411 1.363 . S
C414 N412 1.356 1_554 S
C415 C409 1.363 . S
C415 C410 1.379 . S
C415 N413 1.356 . S
N416 C408 1.356 1_556 S
N416 H422 0.984 . S
N416 H423 0.984 . S
N417 C410 1.379 . S
N417 H420 0.974 1_655 S
N417 H421 0.974 1_655 S
H418 N413 0.984 . S
H419 N413 0.985 . S
H420 N417 0.974 1_455 S
H421 N417 0.974 1_455 S
H422 N416 0.984 . S
H423 N416 0.984 . S
H424 N412 0.984 . S
H425 N412 0.985 1_554 S
C426 C427 1.363 . S
C426 C432 1.379 . S
C426 N434 1.356 . S
C427 C426 1.363 . S
C427 C433 1.363 . S
C428 C429 1.363 . S
C428 C433 1.379 . S
C428 N435 1.356 . S
C429 C428 1.363 . S
C429 C432 1.363 . S
N430 C432 1.356 . S
N430 H442 0.984 . S
N430 H443 0.985 . S
N431 C433 1.356 . S
N431 H436 0.984 1_655 S
N431 H437 0.985 . S
C432 C426 1.379 . S
C432 C429 1.363 . S
C432 N430 1.356 . S
C433 C427 1.363 . S
C433 C428 1.379 . S
C433 N431 1.356 . S
N434 C426 1.356 . S
N434 H440 0.984 . S
N434 H441 0.984 1_655 S
N435 C428 1.356 . S
N435 H438 0.984 . S
N435 H439 0.985 . S
H436 N431 0.984 1_455 S
H437 N431 0.985 . S
H438 N435 0.984 . S
H439 N435 0.985 . S
H440 N434 0.984 . S
H441 N434 0.984 1_455 S
H442 N430 0.984 . S
H443 N430 0.985 . S
C444 C445 1.363 . S
C444 C450 1.379 . S
C444 N452 1.356 . S
C445 C444 1.363 . S
C445 C451 1.363 . S
C446 C447 1.363 . S
C446 C451 1.379 . S
C446 N453 1.356 . S
C447 C446 1.363 . S
C447 C450 1.363 . S
N448 C450 1.356 . S
N448 H460 0.984 . S
N448 H461 0.985 . S
N449 C451 1.356 . S
N449 H454 0.984 . S
N449 H455 0.985 . S
C450 C444 1.379 . S
C450 C447 1.363 . S
C450 N448 1.356 . S
C451 C445 1.363 . S
C451 C446 1.379 . S
C451 N449 1.356 . S
N452 C444 1.356 . S
N452 H458 0.984 . S
N452 H459 0.984 . S
N453 C446 1.356 . S
N453 H456 0.984 . S
N453 H457 0.985 . S
H454 N449 0.984 . S
H455 N449 0.985 . S
H456 N453 0.984 . S
H457 N453 0.985 . S
H458 N452 0.984 . S
H459 N452 0.984 . S
H460 N448 0.984 . S
H461 N448 0.985 . S
C462 C463 1.363 . S
C462 C468 1.379 . S
C462 N470 1.356 . S
C463 C462 1.363 . S
C463 C469 1.363 . S
C464 C465 1.363 . S
C464 C469 1.379 . S
C464 N471 1.356 . S
C465 C464 1.363 . S
C465 C468 1.363 . S
N466 C468 1.356 . S
N466 H478 0.984 . S
N466 H479 0.985 . S
N467 C469 1.356 . S
N467 H472 0.984 . S
N467 H473 0.985 . S
C468 C462 1.379 . S
C468 C465 1.363 . S
C468 N466 1.356 . S
C469 C463 1.363 . S
C469 C464 1.379 . S
C469 N467 1.356 . S
N470 C462 1.356 . S
N470 H476 0.984 . S
N470 H477 0.984 . S
N471 C464 1.356 . S
N471 H474 0.984 . S
N471 H475 0.985 . S
H472 N467 0.984 . S
H473 N467 0.985 . S
H474 N471 0.984 . S
H475 N471 0.985 . S
H476 N470 0.984 . S
H477 N470 0.984 . S
H478 N466 0.984 . S
H479 N466 0.985 . S
C480 C481 1.363 . S
C480 C486 1.379 . S
C480 N488 1.356 . S
C481 C480 1.363 . S
C481 C487 1.363 . S
C482 C483 1.363 . S
C482 C487 1.379 . S
C482 N489 1.356 . S
C483 C482 1.363 . S
C483 C486 1.363 . S
N484 C486 1.356 . S
N484 H496 0.984 . S
N484 H497 0.985 . S
N485 C487 1.356 . S
N485 H490 0.984 . S
N485 H491 0.985 . S
C486 C480 1.379 . S
C486 C483 1.363 . S
C486 N484 1.356 . S
C487 C481 1.363 . S
C487 C482 1.379 . S
C487 N485 1.356 . S
N488 C480 1.356 . S
N488 H494 0.984 . S
N488 H495 0.984 . S
N489 C482 1.356 . S
N489 H492 0.984 . S
N489 H493 0.985 . S
H490 N485 0.984 . S
H491 N485 0.985 . S
H492 N489 0.984 . S
H493 N489 0.985 . S
H494 N488 0.984 . S
H495 N488 0.984 . S
H496 N484 0.984 . S
H497 N484 0.985 . S
C498 C499 1.363 . S
C498 C504 1.379 . S
C498 N506 1.356 . S
C499 C498 1.363 . S
C499 C505 1.363 . S
C500 C501 1.363 . S
C500 C505 1.379 . S
C500 N507 1.356 . S
C501 C500 1.363 . S
C501 C504 1.363 . S
N502 C504 1.356 . S
N502 H514 0.984 . S
N502 H515 0.985 . S
N503 C505 1.356 . S
N503 H508 0.984 . S
N503 H509 0.985 . S
C504 C498 1.379 . S
C504 C501 1.363 . S
C504 N502 1.356 . S
C505 C499 1.363 . S
C505 C500 1.379 . S
C505 N503 1.356 . S
N506 C498 1.356 . S
N506 H512 0.984 . S
N506 H513 0.984 . S
N507 C500 1.356 . S
N507 H510 0.984 . S
N507 H511 0.985 . S
H508 N503 0.984 . S
H509 N503 0.985 . S
H510 N507 0.984 . S
H511 N507 0.985 . S
H512 N506 0.984 . S
H513 N506 0.984 . S
H514 N502 0.984 . S
H515 N502 0.985 . S
C516 C517 1.363 . S
C516 C522 1.379 . S
C516 N524 1.356 . S
C517 C516 1.363 . S
C517 C523 1.363 . S
C518 C519 1.363 . S
C518 C523 1.379 . S
C518 N525 1.356 . S
C519 C518 1.363 . S
C519 C522 1.363 . S
N520 C522 1.356 . S
N520 H532 0.984 . S
N520 H533 0.985 . S
N521 C523 1.356 . S
N521 H526 0.984 . S
N521 H527 0.985 . S
C522 C516 1.379 . S
C522 C519 1.363 . S
C522 N520 1.356 . S
C523 C517 1.363 . S
C523 C518 1.379 . S
C523 N521 1.356 . S
N524 C516 1.356 . S
N524 H530 0.984 . S
N524 H531 0.984 . S
N525 C518 1.356 . S
N525 H528 0.984 . S
N525 H529 0.985 . S
H526 N521 0.984 . S
H527 N521 0.985 . S
H528 N525 0.984 . S
H529 N525 0.985 . S
H530 N524 0.984 . S
H531 N524 0.984 . S
H532 N520 0.984 . S
H533 N520 0.985 . S
C534 C535 1.363 . S
C534 C540 1.379 . S
C534 N542 1.356 . S
C535 C534 1.363 . S
C535 C541 1.363 . S
C536 C537 1.363 . S
C536 C541 1.379 . S
C536 N543 1.356 . S
C537 C536 1.363 . S
C537 C540 1.363 . S
N538 C540 1.356 . S
N538 H550 0.984 . S
N538 H551 0.985 . S
N539 C541 1.356 . S
N539 H544 0.984 . S
N539 H545 0.985 . S
C540 C534 1.379 . S
C540 C537 1.363 . S
C540 N538 1.356 . S
C541 C535 1.363 . S
C541 C536 1.379 . S
C541 N539 1.356 . S
N542 C534 1.356 . S
N542 H548 0.984 . S
N542 H549 0.984 . S
N543 C536 1.356 . S
N543 H546 0.984 . S
N543 H547 0.985 . S
H544 N539 0.984 . S
H545 N539 0.985 . S
H546 N543 0.984 . S
H547 N543 0.985 . S
H548 N542 0.984 . S
H549 N542 0.984 . S
H550 N538 0.984 . S
H551 N538 0.985 . S
C552 C553 1.363 . S
C552 C558 1.379 . S
C552 N560 1.356 1_455 S
C553 C552 1.363 . S
C553 C559 1.363 . S
C554 C555 1.363 . S
C554 C559 1.379 . S
C554 N561 1.356 . S
C555 C554 1.363 . S
C555 C558 1.363 . S
N556 C558 1.356 . S
N556 H568 0.984 . S
N556 H569 0.985 . S
N557 C559 1.356 . S
N557 H562 0.984 . S
N557 H563 0.985 . S
C558 C552 1.379 . S
C558 C555 1.363 . S
C558 N556 1.356 . S
C559 C553 1.363 . S
C559 C554 1.379 . S
C559 N557 1.356 . S
N560 C552 1.356 1_655 S
N560 H566 0.984 . S
N560 H567 0.984 . S
N561 C554 1.356 . S
N561 H564 0.984 . S
N561 H565 0.985 . S
H562 N557 0.984 . S
H563 N557 0.985 . S
H564 N561 0.984 . S
H565 N561 0.985 . S
H566 N560 0.984 . S
H567 N560 0.984 . S
H568 N556 0.984 . S
H569 N556 0.985 . S
C570 C571 1.363 . S
C570 C576 1.379 . S
C570 N578 1.356 . S
C571 C570 1.363 . S
C571 C577 1.363 . S
C572 C573 1.363 . S
C572 C577 1.379 . S
C572 N579 1.356 . S
C573 C572 1.363 . S
C573 C576 1.363 . S
N574 C576 1.356 . S
N574 H586 0.984 . S
N574 H587 0.985 . S
N575 C577 1.356 . S
N575 H580 0.984 . S
N575 H581 0.985 . S
C576 C570 1.379 . S
C576 C573 1.363 . S
C576 N574 1.356 . S
C577 C571 1.363 . S
C577 C572 1.379 . S
C577 N575 1.356 . S
N578 C570 1.356 . S
N578 H584 0.984 . S
N578 H585 0.984 . S
N579 C572 1.356 . S
N579 H582 0.984 . S
N579 H583 0.985 . S
H580 N575 0.984 . S
H581 N575 0.985 . S
H582 N579 0.984 . S
H583 N579 0.985 . S
H584 N578 0.984 . S
H585 N578 0.984 . S
H586 N574 0.984 . S
H587 N574 0.985 . S
C588 C589 1.363 . S
C588 C594 1.379 . S
C588 N596 1.356 . S
C589 C588 1.363 . S
C589 C595 1.363 . S
C590 C591 1.363 . S
C590 C595 1.379 . S
C590 N597 1.356 . S
C591 C590 1.363 . S
C591 C594 1.363 . S
N592 C594 1.356 . S
N592 H604 0.984 . S
N592 H605 0.985 . S
N593 C595 1.356 . S
N593 H598 0.984 . S
N593 H599 0.985 . S
C594 C588 1.379 . S
C594 C591 1.363 . S
C594 N592 1.356 . S
C595 C589 1.363 . S
C595 C590 1.379 . S
C595 N593 1.356 . S
N596 C588 1.356 . S
N596 H602 0.984 . S
N596 H603 0.984 . S
N597 C590 1.356 . S
N597 H600 0.984 . S
N597 H601 0.985 . S
H598 N593 0.984 . S
H599 N593 0.985 . S
H600 N597 0.984 . S
H601 N597 0.985 . S
H602 N596 0.984 . S
H603 N596 0.984 . S
H604 N592 0.984 . S
H605 N592 0.985 . S
C606 C607 1.363 . S
C606 C612 1.379 . S
C606 N614 1.356 . S
C607 C606 1.363 . S
C607 C613 1.363 . S
C608 C609 1.363 . S
C608 C613 1.379 . S
C608 N615 1.356 . S
C609 C608 1.363 . S
C609 C612 1.363 . S
N610 C612 1.356 . S
N610 H622 0.984 . S
N610 H623 0.985 . S
N611 C613 1.356 . S
N611 H616 0.984 . S
N611 H617 0.985 . S
C612 C606 1.379 . S
C612 C609 1.363 . S
C612 N610 1.356 . S
C613 C607 1.363 . S
C613 C608 1.379 . S
C613 N611 1.356 . S
N614 C606 1.356 . S
N614 H620 0.984 . S
N614 H621 0.984 . S
N615 C608 1.356 . S
N615 H618 0.984 . S
N615 H619 0.985 . S
H616 N611 0.984 . S
H617 N611 0.985 . S
H618 N615 0.984 . S
H619 N615 0.985 . S
H620 N614 0.984 . S
H621 N614 0.984 . S
H622 N610 0.984 . S
H623 N610 0.985 . S
C624 C625 1.363 . S
C624 C630 1.379 . S
C624 N632 1.356 . S
C625 C624 1.363 . S
C625 C631 1.363 . S
C626 C627 1.363 . S
C626 C631 1.379 . S
C626 N633 1.356 . S
C627 C626 1.363 . S
C627 C630 1.363 . S
N628 C630 1.356 . S
N628 H640 0.984 . S
N628 H641 0.985 . S
N629 C631 1.356 . S
N629 H634 0.984 . S
N629 H635 0.985 . S
C630 C624 1.379 . S
C630 C627 1.363 . S
C630 N628 1.356 . S
C631 C625 1.363 . S
C631 C626 1.379 . S
C631 N629 1.356 . S
N632 C624 1.356 . S
N632 H638 0.984 . S
N632 H639 0.984 . S
N633 C626 1.356 . S
N633 H636 0.984 . S
N633 H637 0.985 . S
H634 N629 0.984 . S
H635 N629 0.985 . S
H636 N633 0.984 . S
H637 N633 0.985 . S
H638 N632 0.984 . S
H639 N632 0.984 . S
H640 N628 0.984 . S
H641 N628 0.985 . S
C642 C643 1.363 . S
C642 C648 1.379 . S
C642 N650 1.356 . S
C643 C642 1.363 . S
C643 C649 1.363 . S
C644 C645 1.363 . S
C644 C649 1.379 . S
C644 N651 1.356 . S
C645 C644 1.363 . S
C645 C648 1.363 . S
N646 C648 1.356 . S
N646 H658 0.984 . S
N646 H659 0.985 . S
N647 C649 1.356 . S
N647 H652 0.984 . S
N647 H653 0.985 . S
C648 C642 1.379 . S
C648 C645 1.363 . S
C648 N646 1.356 . S
C649 C643 1.363 . S
C649 C644 1.379 . S
C649 N647 1.356 . S
N650 C642 1.356 . S
N650 H656 0.984 . S
N650 H657 0.984 . S
N651 C644 1.356 . S
N651 H654 0.984 . S
N651 H655 0.985 . S
H652 N647 0.984 . S
H653 N647 0.985 . S
H654 N651 0.984 . S
H655 N651 0.985 . S
H656 N650 0.984 . S
H657 N650 0.984 . S
H658 N646 0.984 . S
H659 N646 0.985 . S
C660 C661 1.363 . S
C660 C666 1.379 . S
C660 N668 1.356 . S
C661 C660 1.363 . S
C661 C667 1.363 . S
C662 C663 1.363 . S
C662 C667 1.379 . S
C662 N669 1.356 . S
C663 C662 1.363 . S
C663 C666 1.363 . S
N664 C666 1.356 . S
N664 H676 0.984 . S
N664 H677 0.985 . S
N665 C667 1.356 . S
N665 H670 0.984 . S
N665 H671 0.985 . S
C666 C660 1.379 . S
C666 C663 1.363 . S
C666 N664 1.356 . S
C667 C661 1.363 . S
C667 C662 1.379 . S
C667 N665 1.356 . S
N668 C660 1.356 . S
N668 H674 0.984 . S
N668 H675 0.984 . S
N669 C662 1.356 . S
N669 H672 0.984 . S
N669 H673 0.985 . S
H670 N665 0.984 . S
H671 N665 0.985 . S
H672 N669 0.984 . S
H673 N669 0.985 . S
H674 N668 0.984 . S
H675 N668 0.984 . S
H676 N664 0.984 . S
H677 N664 0.985 . S
C678 C679 1.363 . S
C678 C684 1.379 . S
C678 N686 1.356 . S
C679 C678 1.363 . S
C679 C685 1.363 . S
C680 C681 1.363 . S
C680 C685 1.379 . S
C680 N687 1.356 . S
C681 C680 1.363 . S
C681 C684 1.363 . S
N682 C684 1.356 . S
N682 H694 0.984 . S
N682 H695 0.985 . S
N683 C685 1.356 . S
N683 H688 0.984 . S
N683 H689 0.985 . S
C684 C678 1.379 . S
C684 C681 1.363 . S
C684 N682 1.356 . S
C685 C679 1.363 . S
C685 C680 1.379 . S
C685 N683 1.356 . S
N686 C678 1.356 . S
N686 H692 0.984 . S
N686 H693 0.984 . S
N687 C680 1.356 . S
N687 H690 0.984 . S
N687 H691 0.985 . S
H688 N683 0.984 . S
H689 N683 0.985 . S
H690 N687 0.984 . S
H691 N687 0.985 . S
H692 N686 0.984 . S
H693 N686 0.984 . S
H694 N682 0.984 . S
H695 N682 0.985 . S
C696 C697 1.363 . S
C696 C702 1.379 . S
C696 N704 1.356 . S
C697 C696 1.363 . S
C697 C703 1.363 . S
C698 C699 1.363 . S
C698 C703 1.379 . S
C698 N705 1.356 . S
C699 C698 1.363 . S
C699 C702 1.363 . S
N700 C702 1.356 . S
N700 H712 0.984 . S
N700 H713 0.985 . S
N701 C703 1.356 . S
N701 H706 0.984 . S
N701 H707 0.985 . S
C702 C696 1.379 . S
C702 C699 1.363 . S
C702 N700 1.356 . S
C703 C697 1.363 . S
C703 C698 1.379 . S
C703 N701 1.356 . S
N704 C696 1.356 . S
N704 H710 0.984 . S
N704 H711 0.984 . S
N705 C698 1.356 . S
N705 H708 0.984 . S
N705 H709 0.985 . S
H706 N701 0.984 . S
H707 N701 0.985 . S
H708 N705 0.984 . S
H709 N705 0.985 . S
H710 N704 0.984 . S
H711 N704 0.984 . S
H712 N700 0.984 . S
H713 N700 0.985 . S
C714 C715 1.363 . S
C714 C720 1.379 . S
C714 N722 1.356 . S
C715 C714 1.363 . S
C715 C721 1.363 . S
C716 C717 1.363 . S
C716 C721 1.379 . S
C716 N723 1.356 . S
C717 C716 1.363 . S
C717 C720 1.363 . S
N718 C720 1.356 . S
N718 H730 0.984 1_455 S
N718 H731 0.985 . S
N719 C721 1.356 . S
N719 H724 0.984 . S
N719 H725 0.985 . S
C720 C714 1.379 . S
C720 C717 1.363 . S
C720 N718 1.356 . S
C721 C715 1.363 . S
C721 C716 1.379 . S
C721 N719 1.356 . S
N722 C714 1.356 . S
N722 H728 0.984 . S
N722 H729 0.984 . S
N723 C716 1.356 . S
N723 H726 0.984 . S
N723 H727 0.985 . S
H724 N719 0.984 . S
H725 N719 0.985 . S
H726 N723 0.984 . S
H727 N723 0.985 . S
H728 N722 0.984 . S
H729 N722 0.984 . S
H730 N718 0.984 1_655 S
H731 N718 0.985 . S
C732 C733 1.363 . S
C732 C738 1.379 . S
C732 N740 1.356 . S
C733 C732 1.363 . S
C733 C739 1.363 . S
C734 C735 1.363 . S
C734 C739 1.379 . S
C734 N741 1.356 . S
C735 C734 1.363 . S
C735 C738 1.363 . S
N736 C738 1.356 . S
N736 H748 0.984 . S
N736 H749 0.985 . S
N737 C739 1.356 . S
N737 H742 0.984 . S
N737 H743 0.985 . S
C738 C732 1.379 . S
C738 C735 1.363 . S
C738 N736 1.356 . S
C739 C733 1.363 . S
C739 C734 1.379 . S
C739 N737 1.356 . S
N740 C732 1.356 . S
N740 H746 0.984 . S
N740 H747 0.984 . S
N741 C734 1.356 . S
N741 H744 0.984 . S
N741 H745 0.985 . S
H742 N737 0.984 . S
H743 N737 0.985 . S
H744 N741 0.984 . S
H745 N741 0.985 . S
H746 N740 0.984 . S
H747 N740 0.984 . S
H748 N736 0.984 . S
H749 N736 0.985 . S
C750 C751 1.363 . S
C750 C756 1.379 . S
C750 N758 1.356 . S
C751 C750 1.363 . S
C751 C757 1.363 . S
C752 C753 1.363 . S
C752 C757 1.379 . S
C752 N759 1.356 . S
C753 C752 1.363 . S
C753 C756 1.363 . S
N754 C756 1.356 . S
N754 H766 0.984 . S
N754 H767 0.985 . S
N755 C757 1.356 . S
N755 H760 0.984 . S
N755 H761 0.985 . S
C756 C750 1.379 . S
C756 C753 1.363 . S
C756 N754 1.356 . S
C757 C751 1.363 . S
C757 C752 1.379 . S
C757 N755 1.356 . S
N758 C750 1.356 . S
N758 H764 0.984 . S
N758 H765 0.984 . S
N759 C752 1.356 . S
N759 H762 0.984 . S
N759 H763 0.985 . S
H760 N755 0.984 . S
H761 N755 0.985 . S
H762 N759 0.984 . S
H763 N759 0.985 . S
H764 N758 0.984 . S
H765 N758 0.984 . S
H766 N754 0.984 . S
H767 N754 0.985 . S
C768 C769 1.363 . S
C768 C774 1.379 . S
C768 N776 1.356 . S
C769 C768 1.363 . S
C769 C775 1.363 . S
C770 C771 1.363 . S
C770 C775 1.379 . S
C770 N777 1.356 . S
C771 C770 1.363 . S
C771 C774 1.363 . S
N772 C774 1.356 . S
N772 H784 0.984 . S
N772 H785 0.985 . S
N773 C775 1.356 . S
N773 H778 0.984 . S
N773 H779 0.985 . S
C774 C768 1.379 . S
C774 C771 1.363 . S
C774 N772 1.356 . S
C775 C769 1.363 . S
C775 C770 1.379 . S
C775 N773 1.356 . S
N776 C768 1.356 . S
N776 H782 0.984 . S
N776 H783 0.984 . S
N777 C770 1.356 . S
N777 H780 0.984 . S
N777 H781 0.985 . S
H778 N773 0.984 . S
H779 N773 0.985 . S
H780 N777 0.984 . S
H781 N777 0.985 . S
H782 N776 0.984 . S
H783 N776 0.984 . S
H784 N772 0.984 . S
H785 N772 0.985 . S
C786 C787 1.363 . S
C786 C792 1.379 . S
C786 N794 1.356 . S
C787 C786 1.363 . S
C787 C793 1.363 . S
C788 C789 1.363 . S
C788 C793 1.379 . S
C788 N795 1.356 . S
C789 C788 1.363 . S
C789 C792 1.363 . S
N790 C792 1.356 . S
N790 H802 0.984 . S
N790 H803 0.985 . S
N791 C793 1.356 . S
N791 H796 0.984 . S
N791 H797 0.985 . S
C792 C786 1.379 . S
C792 C789 1.363 . S
C792 N790 1.356 . S
C793 C787 1.363 . S
C793 C788 1.379 . S
C793 N791 1.356 . S
N794 C786 1.356 . S
N794 H800 0.984 . S
N794 H801 0.984 . S
N795 C788 1.356 . S
N795 H798 0.984 . S
N795 H799 0.985 . S
H796 N791 0.984 . S
H797 N791 0.985 . S
H798 N795 0.984 . S
H799 N795 0.985 . S
H800 N794 0.984 . S
H801 N794 0.984 . S
H802 N790 0.984 . S
H803 N790 0.985 . S
C804 C805 1.363 . S
C804 C810 1.379 . S
C804 N812 1.356 . S
C805 C804 1.363 . S
C805 C811 1.363 . S
C806 C807 1.363 . S
C806 C811 1.379 . S
C806 N813 1.356 . S
C807 C806 1.363 . S
C807 C810 1.363 . S
N808 C810 1.356 . S
N808 H820 0.984 . S
N808 H821 0.985 . S
N809 C811 1.356 . S
N809 H814 0.984 . S
N809 H815 0.985 . S
C810 C804 1.379 . S
C810 C807 1.363 . S
C810 N808 1.356 . S
C811 C805 1.363 . S
C811 C806 1.379 . S
C811 N809 1.356 . S
N812 C804 1.356 . S
N812 H818 0.984 . S
N812 H819 0.984 . S
N813 C806 1.356 . S
N813 H816 0.984 . S
N813 H817 0.985 . S
H814 N809 0.984 . S
H815 N809 0.985 . S
H816 N813 0.984 . S
H817 N813 0.985 . S
H818 N812 0.984 . S
H819 N812 0.984 . S
H820 N808 0.984 . S
H821 N808 0.985 . S
C822 C823 1.363 . S
C822 C828 1.379 . S
C822 N830 1.356 . S
C823 C822 1.363 . S
C823 C829 1.363 . S
C824 C825 1.363 . S
C824 C829 1.379 . S
C824 N831 1.356 . S
C825 C824 1.363 . S
C825 C828 1.363 . S
N826 C828 1.356 . S
N826 H838 0.984 . S
N826 H839 0.985 . S
N827 C829 1.356 . S
N827 H832 0.984 . S
N827 H833 0.985 . S
C828 C822 1.379 . S
C828 C825 1.363 . S
C828 N826 1.356 . S
C829 C823 1.363 . S
C829 C824 1.379 . S
C829 N827 1.356 . S
N830 C822 1.356 . S
N830 H836 0.984 . S
N830 H837 0.984 . S
N831 C824 1.356 . S
N831 H834 0.984 . S
N831 H835 0.985 . S
H832 N827 0.984 . S
H833 N827 0.985 . S
H834 N831 0.984 . S
H835 N831 0.985 . S
H836 N830 0.984 . S
H837 N830 0.984 . S
H838 N826 0.984 . S
H839 N826 0.985 . S
C840 C841 1.363 . S
C840 C846 1.379 . S
C840 N848 1.356 . S
C841 C840 1.363 . S
C841 C847 1.363 . S
C842 C843 1.363 . S
C842 C847 1.379 . S
C842 N849 1.356 . S
C843 C842 1.363 . S
C843 C846 1.363 . S
N844 C846 1.356 . S
N844 H856 0.984 . S
N844 H857 0.985 . S
N845 C847 1.356 . S
N845 H850 0.984 . S
N845 H851 0.985 . S
C846 C840 1.379 . S
C846 C843 1.363 . S
C846 N844 1.356 . S
C847 C841 1.363 . S
C847 C842 1.379 . S
C847 N845 1.356 . S
N848 C840 1.356 . S
N848 H854 0.984 . S
N848 H855 0.984 . S
N849 C842 1.356 . S
N849 H852 0.984 . S
N849 H853 0.985 . S
H850 N845 0.984 . S
H851 N845 0.985 . S
H852 N849 0.984 . S
H853 N849 0.985 . S
H854 N848 0.984 . S
H855 N848 0.984 . S
H856 N844 0.984 . S
H857 N844 0.985 . S
C858 C859 1.363 . S
C858 C864 1.379 . S
C858 N866 1.356 . S
C859 C858 1.363 . S
C859 C865 1.363 . S
C860 C861 1.363 . S
C860 C865 1.379 . S
C860 N867 1.356 . S
C861 C860 1.363 . S
C861 C864 1.363 . S
N862 C864 1.356 . S
N862 H874 0.984 . S
N862 H875 0.985 . S
N863 C865 1.356 . S
N863 H868 0.984 . S
N863 H869 0.985 . S
C864 C858 1.379 . S
C864 C861 1.363 . S
C864 N862 1.356 . S
C865 C859 1.363 . S
C865 C860 1.379 . S
C865 N863 1.356 . S
N866 C858 1.356 . S
N866 H872 0.984 . S
N866 H873 0.984 . S
N867 C860 1.356 . S
N867 H870 0.984 . S
N867 H871 0.985 . S
H868 N863 0.984 . S
H869 N863 0.985 . S
H870 N867 0.984 . S
H871 N867 0.985 . S
H872 N866 0.984 . S
H873 N866 0.984 . S
H874 N862 0.984 . S
H875 N862 0.985 . S
C876 C877 1.363 . S
C876 C882 1.379 . S
C876 N884 1.356 . S
C877 C876 1.363 . S
C877 C883 1.363 . S
C878 C879 1.363 . S
C878 C883 1.379 . S
C878 N885 1.356 . S
C879 C878 1.363 . S
C879 C882 1.363 . S
N880 C882 1.356 . S
N880 H892 0.984 . S
N880 H893 0.985 . S
N881 C883 1.356 . S
N881 H886 0.984 . S
N881 H887 0.985 . S
C882 C876 1.379 . S
C882 C879 1.363 . S
C882 N880 1.356 . S
C883 C877 1.363 . S
C883 C878 1.379 . S
C883 N881 1.356 . S
N884 C876 1.356 . S
N884 H890 0.984 . S
N884 H891 0.984 . S
N885 C878 1.356 . S
N885 H888 0.984 . S
N885 H889 0.985 . S
H886 N881 0.984 . S
H887 N881 0.985 . S
H888 N885 0.984 . S
H889 N885 0.985 . S
H890 N884 0.984 . S
H891 N884 0.984 . S
H892 N880 0.984 . S
H893 N880 0.985 . S
C894 C895 1.363 . S
C894 C900 1.379 . S
C894 N902 1.356 . S
C895 C894 1.363 . S
C895 C901 1.363 . S
C896 C897 1.363 . S
C896 C901 1.379 . S
C896 N903 1.356 . S
C897 C896 1.363 . S
C897 C900 1.363 . S
N898 C900 1.356 . S
N898 H910 0.984 . S
N898 H911 0.985 . S
N899 C901 1.356 . S
N899 H904 0.984 . S
N899 H905 0.985 . S
C900 C894 1.379 . S
C900 C897 1.363 . S
C900 N898 1.356 . S
C901 C895 1.363 . S
C901 C896 1.379 . S
C901 N899 1.356 . S
N902 C894 1.356 . S
N902 H908 0.984 . S
N902 H909 0.984 . S
N903 C896 1.356 . S
N903 H906 0.984 . S
N903 H907 0.985 . S
H904 N899 0.984 . S
H905 N899 0.985 . S
H906 N903 0.984 . S
H907 N903 0.985 . S
H908 N902 0.984 . S
H909 N902 0.984 . S
H910 N898 0.984 . S
H911 N898 0.985 . S
C265 C84 1.512 . S
C267 C7 1.623 . S
C283 C51 1.333 . S
C285 C18 1.495 1_655 S
C301 C29 1.331 . S
C303 C62 1.468 . S
C319 C73 1.496 . S
C321 C40 1.368 . S
C337 C183 1.379 . S
C339 C95 1.523 . S
C355 C106 1.429 . S
C357 C194 1.430 . S
C373 C117 1.278 . S
C375 C260 1.280 . S
C391 C128 1.374 . S
C393 C139 1.350 . S
C409 C227 1.385 . S
C411 C150 1.394 . S
C427 C161 1.585 1_655 S
C429 C238 1.594 . S
C445 C249 1.543 . S
C447 C172 1.538 . S
C463 C216 1.427 . S
C465 C205 1.575 . S
C481 C162 1.756 . S
C483 C5 1.583 . S
C499 C173 1.684 . S
C501 C16 1.504 . S
C517 C30 1.502 . S
C519 C206 1.561 . S
C535 C148 1.244 . S
C537 C41 1.530 . S
C553 C49 1.317 . S
C555 C159 1.625 . S
C571 C170 1.478 . S
C573 C63 1.674 . S
C589 C74 1.482 . S
C591 C203 1.307 . S
C607 C82 1.309 . S
C609 C151 1.681 . S
C625 C107 1.543 . S
C627 C93 1.372 . S
C643 C104 1.275 . S
C645 C115 1.122 . S
C661 C118 1.553 . S
C663 C126 1.250 . S
C679 C129 1.505 . S
C681 C96 1.542 . S
C697 C140 1.675 . S
C699 C38 1.324 . S
C715 C181 1.458 . S
C717 C52 1.837 . S
C733 C19 1.536 . S
C735 C192 1.326 . S
C751 C261 1.620 . S
C753 C27 1.239 . S
C769 C184 1.710 . S
C771 C8 1.822 . S
C787 C71 1.305 . S
C789 C258 1.127 . S
C805 C85 1.709 . S
C807 C137 1.405 . S
C823 C195 1.664 . S
C825 C60 1.469 . S
C841 C214 1.423 . S
C843 C228 1.843 . S
C859 C236 1.498 . S
C861 C225 1.287 . S
C877 C239 1.748 . S
C879 C247 1.541 . S
C895 C217 1.782 . S
C897 C250 1.879 . S
