# Generated by pormake.
# Topology sol, (6)-cn, num edge types: 1
# Building blocks:
#     Node 0, Type 0, BuildingBlock: OJICUG_clean_sbu_0, # of connection points: 6
#     Node 1, Type 0, BuildingBlock: OJICUG_clean_sbu_0, # of connection points: 6
#     Node 2, Type 0, BuildingBlock: OJICUG_clean_sbu_0, # of connection points: 6
#     Node 3, Type 0, BuildingBlock: OJICUG_clean_sbu_0, # of connection points: 6
#     Node 4, Type 0, BuildingBlock: OJICUG_clean_sbu_0, # of connection points: 6
#     Node 5, Type 0, BuildingBlock: OJICUG_clean_sbu_0, # of connection points: 6
#     Node 6, Type 0, BuildingBlock: OJICUG_clean_sbu_0, # of connection points: 6
#     Node 7, Type 0, BuildingBlock: OJICUG_clean_sbu_0, # of connection points: 6
#     Edge 8, Type (0, 0), BuildingBlock: EZIPEK_clean_linker_0, # of connection points: 2
#     Edge 9, Type (0, 0), BuildingBlock: EZIPEK_clean_linker_0, # of connection points: 2
#     Edge 10, Type (0, 0), BuildingBlock: EZIPEK_clean_linker_0, # of connection points: 2
#     Edge 11, Type (0, 0), BuildingBlock: EZIPEK_clean_linker_0, # of connection points: 2
#     Edge 12, Type (0, 0), BuildingBlock: EZIPEK_clean_linker_0, # of connection points: 2
#     Edge 13, Type (0, 0), BuildingBlock: EZIPEK_clean_linker_0, # of connection points: 2
#     Edge 14, Type (0, 0), BuildingBlock: EZIPEK_clean_linker_0, # of connection points: 2
#     Edge 15, Type (0, 0), BuildingBlock: EZIPEK_clean_linker_0, # of connection points: 2
#     Edge 16, Type (0, 0), BuildingBlock: EZIPEK_clean_linker_0, # of connection points: 2
#     Edge 17, Type (0, 0), BuildingBlock: EZIPEK_clean_linker_0, # of connection points: 2
#     Edge 18, Type (0, 0), BuildingBlock: EZIPEK_clean_linker_0, # of connection points: 2
#     Edge 19, Type (0, 0), BuildingBlock: EZIPEK_clean_linker_0, # of connection points: 2
#     Edge 20, Type (0, 0), BuildingBlock: EZIPEK_clean_linker_0, # of connection points: 2
#     Edge 21, Type (0, 0), BuildingBlock: EZIPEK_clean_linker_0, # of connection points: 2
#     Edge 22, Type (0, 0), BuildingBlock: EZIPEK_clean_linker_0, # of connection points: 2
#     Edge 23, Type (0, 0), BuildingBlock: EZIPEK_clean_linker_0, # of connection points: 2
#     Edge 24, Type (0, 0), BuildingBlock: EZIPEK_clean_linker_0, # of connection points: 2
#     Edge 25, Type (0, 0), BuildingBlock: EZIPEK_clean_linker_0, # of connection points: 2
#     Edge 26, Type (0, 0), BuildingBlock: EZIPEK_clean_linker_0, # of connection points: 2
#     Edge 27, Type (0, 0), BuildingBlock: EZIPEK_clean_linker_0, # of connection points: 2
#     Edge 28, Type (0, 0), BuildingBlock: EZIPEK_clean_linker_0, # of connection points: 2
#     Edge 29, Type (0, 0), BuildingBlock: EZIPEK_clean_linker_0, # of connection points: 2
#     Edge 30, Type (0, 0), BuildingBlock: EZIPEK_clean_linker_0, # of connection points: 2
#     Edge 31, Type (0, 0), BuildingBlock: EZIPEK_clean_linker_0, # of connection points: 2
# Relax obj value: 0.163
# Max RMSD: 0.156
# Mean RMSD: 0.156
data_MOF--net-sol--node1-OJICUG_clean_sbu_0--edge1-EZIPEK_clean_linker_0
_symmetry_space_group_name_H-M    P1
_symmetry_Int_Tables_number       1
_symmetry_cell_setting            triclinic
loop_
_symmetry_equiv_pos_as_xyz
'x, y, z'
_cell_length_a     25.945719
_cell_length_b     21.633291
_cell_length_c     22.713115
_cell_angle_alpha  90.032939
_cell_angle_beta   89.686959
_cell_angle_gamma 90.215987
loop_
_atom_site_label
_atom_site_type_symbol
_atom_site_fract_x
_atom_site_fract_y
_atom_site_fract_z
_atom_type_partial_charge
Sc0 Sc 0.23824 0.21871 0.04164 0.0
Sc1 Sc 0.10282 0.22308 0.02412 0.0
Sc2 Sc 0.15837 0.1319 0.13612 0.0
O3 O 0.16648 0.19086 0.06687 0.0
C4 C 0.257 0.07782 0.07118 0.0
C5 C 0.18095 0.20538 0.91643 0.0
C6 C 0.07109 0.08228 0.04941 0.0
C7 C 0.17426 0.34206 0.02895 0.0
C8 C 0.25002 0.21869 0.18205 0.0
C9 C 0.06661 0.22652 0.15853 0.0
O10 O 0.26819 0.12659 0.0427 0.0
O11 O 0.13523 0.20531 0.93736 0.0
O12 O 0.10359 0.07389 0.09036 0.0
O13 O 0.21548 0.31276 0.03897 0.0
O14 O 0.21168 0.18302 0.19082 0.0
O15 O 0.06448 0.24722 0.10616 0.0
O16 O 0.26492 0.23493 0.13089 0.0
O17 O 0.1309 0.31648 0.02039 0.0
O18 O 0.09763 0.18456 0.17418 0.0
O19 O 0.22095 0.20888 0.94863 0.0
O20 O 0.21877 0.07287 0.10589 0.0
O21 O 0.06623 0.13325 0.02219 0.0
Sc22 Sc 0.34029 0.33761 0.62845 0.0
Sc23 Sc 0.40076 0.24095 0.52444 0.0
Sc24 Sc 0.26492 0.23788 0.54155 0.0
O25 O 0.33533 0.27227 0.56449 0.0
C26 C 0.2527 0.24638 0.68048 0.0
C27 C 0.43342 0.24857 0.65999 0.0
C28 C 0.33461 0.11776 0.53173 0.0
C29 C 0.42916 0.38383 0.54156 0.0
C30 C 0.23945 0.38007 0.56303 0.0
C31 C 0.32222 0.25329 0.41643 0.0
O32 O 0.28544 0.29007 0.68504 0.0
O33 O 0.43774 0.22483 0.60879 0.0
O34 O 0.29174 0.14485 0.53757 0.0
O35 O 0.39596 0.39356 0.58171 0.0
O36 O 0.22735 0.32651 0.54475 0.0
O37 O 0.36785 0.25265 0.43729 0.0
O38 O 0.28096 0.39183 0.5901 0.0
O39 O 0.43505 0.33173 0.51671 0.0
O40 O 0.28175 0.25034 0.44859 0.0
O41 O 0.40062 0.29001 0.67248 0.0
O42 O 0.242 0.22032 0.63184 0.0
O43 O 0.3773 0.14576 0.52634 0.0
Sc44 Sc 0.66206 0.33582 0.88181 0.0
Sc45 Sc 0.60449 0.24254 0.99122 0.0
Sc46 Sc 0.73895 0.23682 0.96558 0.0
O47 O 0.66842 0.27174 0.94645 0.0
C48 C 0.74861 0.24552 0.82789 0.0
C49 C 0.56612 0.24983 0.85663 0.0
C50 C 0.66508 0.11813 0.97656 0.0
C51 C 0.57791 0.38412 0.97466 0.0
C52 C 0.76296 0.37972 0.94575 0.0
C53 C 0.69027 0.25036 0.09333 0.0
O54 O 0.71732 0.29046 0.82451 0.0
O55 O 0.56063 0.23248 0.91002 0.0
O56 O 0.70891 0.14418 0.97188 0.0
O57 O 0.60545 0.39012 0.9286 0.0
O58 O 0.77676 0.32576 0.96101 0.0
O59 O 0.64344 0.24576 0.07656 0.0
O60 O 0.72091 0.39146 0.91991 0.0
O61 O 0.57642 0.33501 1.00522 0.0
O62 O 0.72827 0.25165 0.05796 0.0
O63 O 0.60239 0.28519 0.8396 0.0
O64 O 0.75825 0.21751 0.87551 0.0
O65 O 0.62309 0.14704 0.98206 0.0
Sc66 Sc 0.85416 0.12399 0.38572 0.0
Sc67 Sc 0.90761 0.22222 0.49195 0.0
Sc68 Sc 0.77394 0.22229 0.46727 0.0
O69 O 0.8451 0.18885 0.44873 0.0
C70 C 0.7669 0.20697 0.32791 0.0
C71 C 0.94488 0.22001 0.35943 0.0
C72 C 0.83954 0.34217 0.47677 0.0
C73 C 0.93993 0.08064 0.47437 0.0
C74 C 0.75187 0.08062 0.45285 0.0
C75 C 0.82716 0.2116 0.59476 0.0
O76 O 0.8065 0.17282 0.32461 0.0
O77 O 0.94367 0.24712 0.40921 0.0
O78 O 0.80007 0.3146 0.45728 0.0
O79 O 0.904 0.06737 0.43876 0.0
O80 O 0.7424 0.13174 0.47794 0.0
O81 O 0.87282 0.20088 0.57637 0.0
O82 O 0.78952 0.07148 0.41787 0.0
O83 O 0.94751 0.13478 0.49413 0.0
O84 O 0.78992 0.22453 0.56062 0.0
O85 O 0.91846 0.17201 0.34757 0.0
O86 O 0.74829 0.22551 0.37663 0.0
O87 O 0.87889 0.31498 0.49671 0.0
Sc88 Sc 0.76745 0.74117 0.96975 0.0
Sc89 Sc 0.90094 0.74195 0.99488 0.0
Sc90 Sc 0.84762 0.84211 0.89027 0.0
O91 O 0.83857 0.7756 0.95207 0.0
C92 C 0.7624 0.75908 0.82973 0.0
C93 C 0.83332 0.62094 0.97516 0.0
C94 C 0.94102 0.75093 0.86362 0.0
C95 C 0.81974 0.74698 0.09817 0.0
C96 C 0.74402 0.88259 0.95629 0.0
C97 C 0.93074 0.88562 0.98225 0.0
O98 O 0.74321 0.74073 0.87837 0.0
O99 O 0.87297 0.64803 0.9952 0.0
O100 O 0.91399 0.79841 0.85301 0.0
O101 O 0.78252 0.7353 0.06342 0.0
O102 O 0.78091 0.89167 0.92024 0.0
O103 O 0.93904 0.83098 1.00042 0.0
O104 O 0.73573 0.8317 0.98262 0.0
O105 O 0.86539 0.75869 0.08003 0.0
O106 O 0.89497 0.89891 0.94647 0.0
O107 O 0.7934 0.64881 0.95762 0.0
O108 O 0.80261 0.7925 0.82649 0.0
O109 O 0.93889 0.72133 0.91203 0.0
Sc110 Sc 0.73833 0.72052 0.47433 0.0
Sc111 Sc 0.60261 0.7226 0.49278 0.0
Sc112 Sc 0.66036 0.62211 0.38972 0.0
O113 O 0.66708 0.68817 0.45266 0.0
C114 C 0.74992 0.70817 0.33551 0.0
C115 C 0.67242 0.84272 0.48112 0.0
C116 C 0.56835 0.71364 0.35867 0.0
C117 C 0.68078 0.71133 0.59997 0.0
C118 C 0.76051 0.57833 0.45741 0.0
C119 C 0.57153 0.57987 0.47803 0.0
O120 O 0.76333 0.73201 0.38419 0.0
O121 O 0.62934 0.81695 0.4913 0.0
O122 O 0.59925 0.6699 0.34688 0.0
O123 O 0.72081 0.71469 0.56733 0.0
O124 O 0.72072 0.56789 0.42666 0.0
O125 O 0.56546 0.63326 0.50029 0.0
O126 O 0.77255 0.63109 0.47727 0.0
O127 O 0.63494 0.7101 0.57993 0.0
O128 O 0.60571 0.56774 0.43954 0.0
O129 O 0.71386 0.81352 0.47244 0.0
O130 O 0.71382 0.66854 0.33095 0.0
O131 O 0.56596 0.73989 0.40883 0.0
Sc132 Sc 0.34971 0.62178 0.12851 0.0
Sc133 Sc 0.40699 0.72202 0.02481 0.0
Sc134 Sc 0.27239 0.72322 0.04728 0.0
O135 O 0.34303 0.68862 0.06656 0.0
C136 C 0.24983 0.58068 0.05758 0.0
C137 C 0.43679 0.57942 0.03896 0.0
C138 C 0.32733 0.71569 0.9199 0.0
C139 C 0.44237 0.71344 0.15822 0.0
C140 C 0.26202 0.70528 0.18638 0.0
C141 C 0.34027 0.84291 0.04355 0.0
O142 O 0.28719 0.56995 0.09196 0.0
O143 O 0.44384 0.63306 0.01773 0.0
O144 O 0.28902 0.72518 0.95398 0.0
O145 O 0.41231 0.6686 0.17004 0.0
O146 O 0.24636 0.72762 0.138 0.0
O147 O 0.381 0.81616 0.02632 0.0
O148 O 0.29923 0.66761 0.18962 0.0
O149 O 0.44406 0.74025 0.10829 0.0
O150 O 0.29894 0.81514 0.0572 0.0
O151 O 0.4021 0.56693 0.07674 0.0
O152 O 0.23988 0.63318 0.03573 0.0
O153 O 0.37304 0.70729 0.93867 0.0
Sc154 Sc 0.23802 0.73328 0.54742 0.0
Sc155 Sc 0.10295 0.74132 0.5268 0.0
Sc156 Sc 0.16392 0.83628 0.63219 0.0
O157 O 0.16829 0.77042 0.56853 0.0
C158 C 0.25088 0.7468 0.6857 0.0
C159 C 0.163 0.61564 0.54178 0.0
C160 C 0.0677 0.75076 0.66233 0.0
C161 C 0.18517 0.74639 0.42101 0.0
C162 C 0.26443 0.87635 0.56236 0.0
C163 C 0.07881 0.88466 0.54188 0.0
O164 O 0.26128 0.71963 0.63758 0.0
O165 O 0.12194 0.64554 0.53328 0.0
O166 O 0.10269 0.78914 0.67642 0.0
O167 O 0.22395 0.74166 0.45458 0.0
O168 O 0.22448 0.88865 0.59254 0.0
O169 O 0.07346 0.83346 0.51529 0.0
O170 O 0.27607 0.82231 0.54472 0.0
O171 O 0.13871 0.74714 0.43982 0.0
O172 O 0.10933 0.89246 0.5848 0.0
O173 O 0.20693 0.64086 0.54865 0.0
O174 O 0.21775 0.7898 0.68986 0.0
O175 O 0.06245 0.72971 0.61024 0.0
C176 C 0.0573 0.26405 0.26081 0.0
C177 C 0.03343 0.25206 0.20594 0.0
C178 C 0.94975 0.25395 0.2553 0.0
C179 C 0.97504 0.24652 0.31009 0.0
N180 N 0.0542 0.24643 0.36581 0.0
N181 N 0.955 0.23934 0.14993 0.0
C182 C 0.02916 0.2539 0.31356 0.0
C183 C 0.97891 0.24982 0.20242 0.0
N184 N 0.10734 0.2835 0.26188 0.0
N185 N 0.89784 0.26421 0.25428 0.0
H186 H 0.97445 0.23793 0.10979 0.0
H187 H 0.91585 0.22909 0.14662 0.0
H188 H 0.87618 0.26903 0.29289 0.0
H189 H 0.8777 0.27452 0.21598 0.0
H190 H 0.12601 0.29732 0.30022 0.0
H191 H 0.12784 0.29193 0.22304 0.0
H192 H 0.09419 0.24412 0.36899 0.0
H193 H 0.0352 0.23853 0.40561 0.0
C194 C 0.5213 0.22347 0.70288 0.0
C195 C 0.46698 0.22817 0.70917 0.0
C196 C 0.47568 0.23229 0.81655 0.0
C197 C 0.53004 0.22838 0.81009 0.0
N198 N 0.60054 0.19251 0.74979 0.0
N199 N 0.39319 0.20997 0.77199 0.0
C200 C 0.55133 0.21413 0.754 0.0
C201 C 0.44448 0.22308 0.76618 0.0
N202 N 0.54508 0.23278 0.64979 0.0
N203 N 0.45353 0.24911 0.86882 0.0
H204 H 0.36993 0.20109 0.73561 0.0
H205 H 0.37559 0.20106 0.81249 0.0
H206 H 0.47411 0.25755 0.90713 0.0
H207 H 0.41446 0.25946 0.87283 0.0
H208 H 0.58501 0.23628 0.64542 0.0
H209 H 0.52564 0.24258 0.61103 0.0
H210 H 0.61674 0.17712 0.71033 0.0
H211 H 0.62251 0.18338 0.7871 0.0
C212 C 0.02721 0.72411 0.81866 0.0
C213 C 0.973 0.72821 0.81412 0.0
C214 C 0.97895 0.73012 0.70655 0.0
C215 C 0.03355 0.72911 0.711 0.0
N216 N 0.10692 0.69864 0.76867 0.0
N217 N 0.89757 0.70882 0.75564 0.0
C218 C 0.05669 0.7169 0.76639 0.0
C219 C 0.94905 0.72192 0.75846 0.0
N220 N 0.05094 0.73124 0.87177 0.0
N221 N 0.95534 0.74335 0.65446 0.0
H222 H 0.87534 0.70115 0.79342 0.0
H223 H 0.87862 0.69884 0.7164 0.0
H224 H 0.97493 0.74978 0.6149 0.0
H225 H 0.916 0.75218 0.65135 0.0
H226 H 0.09072 0.73612 0.876 0.0
H227 H 0.03084 0.73633 0.91128 0.0
H228 H 0.12478 0.68453 0.80737 0.0
H229 H 0.1286 0.69111 0.73056 0.0
C230 C 0.55935 0.74314 0.2536 0.0
C231 C 0.53556 0.73493 0.30949 0.0
C232 C 0.45148 0.7444 0.26278 0.0
C233 C 0.47521 0.73523 0.20704 0.0
N234 N 0.55323 0.72371 0.1492 0.0
N235 N 0.45717 0.72526 0.36725 0.0
C236 C 0.52965 0.73551 0.20195 0.0
C237 C 0.48105 0.7364 0.31454 0.0
N238 N 0.61056 0.7574 0.25023 0.0
N239 N 0.40049 0.75971 0.26591 0.0
H240 H 0.4769 0.71777 0.40635 0.0
H241 H 0.41749 0.71873 0.37128 0.0
H242 H 0.37835 0.7669 0.22827 0.0
H243 H 0.38202 0.77168 0.30513 0.0
H244 H 0.62922 0.76882 0.21094 0.0
H245 H 0.63267 0.76421 0.28789 0.0
H246 H 0.59273 0.71611 0.14513 0.0
H247 H 0.53327 0.71692 0.11009 0.0
C248 C 0.98282 0.03408 0.05108 0.0
C249 C 0.03557 0.03087 0.03398 0.0
C250 C 0.01881 0.9341 0.98082 0.0
C251 C 0.96674 0.93545 1.00067 0.0
N252 N 0.90039 -0.01885 0.06092 0.0
N253 N 0.10583 0.97473 0.98952 0.0
C254 C 0.94899 -0.0159 0.03736 0.0
C255 C 0.05422 0.97972 1.00116 0.0
N256 N 0.96511 0.08513 0.08032 0.0
N257 N 0.03375 0.89099 0.9401 0.0
H258 H 0.13259 0.00868 1.00101 0.0
H259 H 0.1228 0.93521 0.97202 0.0
H260 H 0.00893 0.85729 0.92349 0.0
H261 H 0.06942 0.89144 0.91892 0.0
H262 H 0.92625 0.09415 0.0878 0.0
H263 H 0.98926 0.12061 0.09474 0.0
H264 H 0.88659 0.01149 0.09283 0.0
H265 H 0.87467 0.94525 0.05181 0.0
C266 C 0.54099 0.49829 0.54883 0.0
C267 C 0.53471 0.53025 0.49484 0.0
C268 C 0.45666 0.46945 0.47364 0.0
C269 C 0.46506 0.43466 0.52558 0.0
N270 N 0.51792 0.40966 0.6092 0.0
N271 N 0.4897 0.54443 0.40318 0.0
C272 C 0.5079 0.44751 0.56241 0.0
C273 C 0.49341 0.51521 0.45641 0.0
N274 N 0.57826 0.51705 0.58736 0.0
N275 N 0.41268 0.45987 0.44189 0.0
H276 H 0.51416 0.58038 0.3903 0.0
H277 H 0.4643 0.53109 0.3702 0.0
H278 H 0.38546 0.42608 0.45284 0.0
H279 H 0.40113 0.48779 0.40713 0.0
H280 H 0.58132 0.50054 0.63022 0.0
H281 H 0.60445 0.55243 0.57784 0.0
H282 H 0.5515 0.41197 0.63396 0.0
H283 H 0.49421 0.37258 0.62102 0.0
C284 C 0.46591 0.49718 0.96867 0.0
C285 C 0.47324 0.53 0.02199 0.0
C286 C 0.55207 0.47104 0.04167 0.0
C287 C 0.54251 0.43505 0.99068 0.0
N288 N 0.4872 0.40727 0.90965 0.0
N289 N 0.51994 0.54609 0.11233 0.0
C290 C 0.49866 0.44649 0.95506 0.0
C291 C 0.51538 0.51625 0.05946 0.0
N292 N 0.42803 0.51508 0.93071 0.0
N293 N 0.59714 0.46339 0.07176 0.0
H294 H 0.49529 0.58147 0.12567 0.0
H295 H 0.54617 0.53359 0.14467 0.0
H296 H 0.62469 0.43058 0.05991 0.0
H297 H 0.60926 0.49228 0.10565 0.0
H298 H 0.42418 0.4977 0.88822 0.0
H299 H 0.40234 0.55077 0.94013 0.0
H300 H 0.4528 0.40859 0.88633 0.0
H301 H 0.51041 0.36998 0.89784 0.0
C302 C 0.02416 0.02515 0.46295 0.0
C303 C 0.97594 0.03119 0.49235 0.0
C304 C 0.99495 0.94046 0.55304 0.0
C305 C 0.04414 0.93607 0.52557 0.0
N306 N 0.10909 0.97785 0.46064 0.0
N307 N 0.91859 0.00226 0.57141 0.0
C308 C 0.05981 0.97957 0.48231 0.0
C309 C 0.96216 -0.00912 0.53908 0.0
N310 N 0.0352 0.06203 0.41558 0.0
N311 N 0.97933 0.89573 0.59185 0.0
H312 H 0.89397 0.03904 0.56248 0.0
H313 H 0.90883 0.97864 0.60981 0.0
H314 H 1.00319 0.85982 0.60538 0.0
H315 H 0.94183 0.89183 0.608 0.0
H316 H 0.06709 0.05597 0.38824 0.0
H317 H 0.01054 0.09674 0.40102 0.0
H318 H 0.12498 0.01189 0.43369 0.0
H319 H 0.13563 0.94418 0.47296 0.0
C320 C 0.31848 0.94065 0.99663 0.0
C321 C 0.33867 0.91009 0.04607 0.0
C322 C 0.31657 -0.00287 0.10932 0.0
C323 C 0.28856 0.02269 0.06164 0.0
N324 N 0.25575 0.01413 0.96283 0.0
N325 N 0.36119 0.90759 0.14838 0.0
C326 C 0.28849 -0.00594 1.00555 0.0
C327 C 0.34005 0.93859 0.10199 0.0
N328 N 0.32623 0.91677 0.94165 0.0
N329 N 0.31971 0.02829 0.16152 0.0
H330 H 0.38079 0.86588 0.14286 0.0
H331 H 0.35823 0.92175 0.19205 0.0
H332 H 0.29989 0.06923 0.16946 0.0
H333 H 0.34363 0.0154 0.19599 0.0
H334 H 0.31585 0.93959 0.90314 0.0
H335 H 0.34777 0.87679 0.93477 0.0
H336 H 0.24993 -0.00915 0.92326 0.0
H337 H 0.23012 0.05033 0.96978 0.0
C338 C 0.16781 0.52409 0.60605 0.0
C339 C 0.15972 0.54841 0.54953 0.0
C340 C 0.18332 0.45107 0.50341 0.0
C341 C 0.20183 0.43087 0.55899 0.0
N342 N 0.20262 0.44116 0.66514 0.0
N343 N 0.13304 0.52758 0.45079 0.0
C344 C 0.19002 0.4647 0.61124 0.0
C345 C 0.15874 0.50935 0.49998 0.0
N346 N 0.15319 0.55801 0.65402 0.0
N347 N 0.19253 0.41734 0.45364 0.0
H348 H 0.11226 0.56876 0.44979 0.0
H349 H 0.12733 0.49941 0.4142 0.0
H350 H 0.20919 0.37371 0.45408 0.0
H351 H 0.18566 0.43379 0.41135 0.0
H352 H 0.15431 0.54218 0.69719 0.0
H353 H 0.13563 0.60114 0.64969 0.0
H354 H 0.19994 0.4655 0.70452 0.0
H355 H 0.21694 0.39665 0.67059 0.0
C356 C 0.80155 0.45628 0.01452 0.0
C357 C 0.79742 0.43244 0.95658 0.0
C358 C 0.83845 0.52528 0.91652 0.0
C359 C 0.83255 0.55338 0.97223 0.0
N360 N 0.81097 0.54784 0.07533 0.0
N361 N 0.81323 0.44142 0.85212 0.0
C362 C 0.8161 0.51905 0.02202 0.0
C363 C 0.81732 0.46565 0.90752 0.0
N364 N 0.7898 0.4197 0.06184 0.0
N365 N 0.86342 0.55643 0.87235 0.0
H366 H 0.7991 0.39704 0.84426 0.0
H367 H 0.82132 0.46604 0.81379 0.0
H368 H 0.87903 0.60053 0.8784 0.0
H369 H 0.87261 0.53697 0.83174 0.0
H370 H 0.79623 0.43267 0.10532 0.0
H371 H 0.77731 0.37409 0.0577 0.0
H372 H 0.79337 0.52784 0.11196 0.0
H373 H 0.8223 0.59355 0.0822 0.0
C374 C 0.67825 0.00948 0.43496 0.0
C375 C 0.72112 0.02682 0.46967 0.0
C376 C 0.71295 0.93281 0.52741 0.0
C377 C 0.67762 0.90996 0.48535 0.0
N378 N 0.62516 0.92497 0.39931 0.0
N379 N 0.78208 0.00479 0.54668 0.0
C380 C 0.6587 0.94833 0.4399 0.0
C381 C 0.73861 -0.01089 0.51623 0.0
N382 N 0.65727 0.05105 0.39677 0.0
N383 N 0.72313 0.89918 0.57686 0.0
H384 H 0.80269 0.04543 0.53883 0.0
H385 H 0.79998 0.97553 0.5766 0.0
H386 H 0.70618 0.85621 0.58461 0.0
H387 H 0.74462 0.916 0.61206 0.0
H388 H 0.62343 0.04291 0.37355 0.0
H389 H 0.67157 0.09595 0.39204 0.0
H390 H 0.61483 0.94818 0.36104 0.0
H391 H 0.60936 0.8807 0.40258 0.0
C392 C 0.66142 0.01868 0.92174 0.0
C393 C 0.66391 0.05057 0.97589 0.0
C394 C 0.70967 0.96629 0.02132 0.0
C395 C 0.70905 0.93449 0.96693 0.0
N396 N 0.6672 0.91891 0.8737 0.0
N397 N 0.66522 0.04172 0.08109 0.0
C398 C 0.67901 0.95686 0.91965 0.0
C399 C 0.67921 0.01962 0.02726 0.0
N400 N 0.64438 0.04809 0.87244 0.0
N401 N 0.74284 0.94983 0.06487 0.0
H402 H 0.6417 0.08059 0.08537 0.0
H403 H 0.67283 0.01794 0.12002 0.0
H404 H 0.77043 0.91549 0.05896 0.0
H405 H 0.74674 0.9752 0.10367 0.0
H406 H 0.64712 0.02899 0.83041 0.0
H407 H 0.62942 0.09281 0.87379 0.0
H408 H 0.64285 0.93178 0.83955 0.0
H409 H 0.6773 0.87224 0.87386 0.0
C410 C 0.81659 0.49685 0.41473 0.0
C411 C 0.79641 0.52689 0.46549 0.0
C412 C 0.82245 0.44113 0.52784 0.0
C413 C 0.83835 0.40941 0.47646 0.0
N414 N 0.86658 0.41128 0.3757 0.0
N415 N 0.79481 0.53756 0.5715 0.0
C416 C 0.84123 0.43921 0.42141 0.0
C417 C 0.80486 0.5027 0.52263 0.0
N418 N 0.80995 0.52214 0.36013 0.0
N419 N 0.82044 0.41074 0.58057 0.0
H420 H 0.78039 0.58231 0.56957 0.0
H421 H 0.80509 0.52426 0.61387 0.0
H422 H 0.83419 0.36589 0.5858 0.0
H423 H 0.80291 0.42848 0.61826 0.0
H424 H 0.81828 0.49921 0.32095 0.0
H425 H 0.79371 0.56556 0.35375 0.0
H426 H 0.87353 0.43229 0.33521 0.0
H427 H 0.88483 0.36863 0.3804 0.0
C428 C 0.1567 0.44899 0.06564 0.0
C429 C 0.17932 0.40917 0.02326 0.0
C430 C 0.24107 0.48834 0.99427 0.0
C431 C 0.21987 0.52746 0.03797 0.0
N432 N 0.14955 0.55388 0.10272 0.0
N433 N 0.22953 0.39683 0.93457 0.0
C434 C 0.17449 0.51091 0.06905 0.0
C435 C 0.21664 0.43136 0.9828 0.0
N436 N 0.12149 0.42661 0.10527 0.0
N437 N 0.28642 0.50356 0.96682 0.0
H438 H 0.21232 0.35416 0.92585 0.0
H439 H 0.2533 0.41301 0.90078 0.0
H440 H 0.306 0.54491 0.97474 0.0
H441 H 0.30659 0.47335 0.93948 0.0
H442 H 0.10857 0.4516 0.14163 0.0
H443 H 0.10715 0.38158 0.10379 0.0
H444 H 0.11401 0.54584 0.12288 0.0
H445 H 0.16232 0.59956 0.10592 0.0
C446 C 0.30024 0.95369 0.492 0.0
C447 C 0.29915 0.9286 0.54958 0.0
C448 C 0.34301 0.02043 0.58781 0.0
C449 C 0.33384 0.04999 0.53342 0.0
N450 N 0.3053 0.04675 0.43278 0.0
N451 N 0.31974 0.9362 0.65283 0.0
C452 C 0.31394 0.01677 0.48473 0.0
C453 C 0.32174 0.9609 0.59747 0.0
N454 N 0.28655 0.91797 0.44492 0.0
N455 N 0.37042 0.05021 0.63064 0.0
H456 H 0.30502 0.89223 0.66125 0.0
H457 H 0.32969 0.96032 0.69079 0.0
H458 H 0.38533 0.09468 0.62515 0.0
H459 H 0.38221 0.02917 0.66948 0.0
H460 H 0.29073 0.93206 0.40133 0.0
H461 H 0.27511 0.87196 0.44907 0.0
H462 H 0.28526 0.02751 0.39763 0.0
H463 H 0.31603 0.09269 0.42602 0.0
C464 C 0.17118 0.2593 0.81811 0.0
C465 C 0.18874 0.2077 0.85117 0.0
C466 C 0.24129 0.17399 0.76666 0.0
C467 C 0.22501 0.22664 0.73481 0.0
N468 N 0.16034 0.30433 0.72116 0.0
N469 N 0.22507 0.10595 0.84965 0.0
C470 C 0.18536 0.26454 0.75773 0.0
C471 C 0.21927 0.16192 0.82312 0.0
N472 N 0.14338 0.30512 0.84471 0.0
N473 N 0.27824 0.1362 0.74343 0.0
H474 H 0.20489 0.09513 0.88804 0.0
H475 H 0.24393 0.06862 0.83034 0.0
H476 H 0.29296 0.14199 0.70093 0.0
H477 H 0.29608 0.10123 0.76722 0.0
H478 H 0.13525 0.34705 0.82431 0.0
H479 H 0.13167 0.3036 0.88861 0.0
H480 H 0.12808 0.32966 0.7339 0.0
H481 H 0.16835 0.30627 0.67611 0.0
C482 C 0.26247 0.29069 0.26832 0.0
C483 C 0.27959 0.23968 0.23448 0.0
C484 C 0.33521 0.20621 0.31507 0.0
C485 C 0.31498 0.25432 0.35119 0.0
N486 N 0.27398 0.35367 0.35614 0.0
N487 N 0.34736 0.16705 0.21582 0.0
C488 C 0.28305 0.30026 0.3258 0.0
C489 C 0.32097 0.2033 0.25474 0.0
N490 N 0.22652 0.32962 0.24537 0.0
N491 N 0.36545 0.16106 0.33865 0.0
H492 H 0.33889 0.16664 0.17096 0.0
H493 H 0.38089 0.14334 0.22655 0.0
H494 H 0.37789 0.16111 0.3821 0.0
H495 H 0.37537 0.12091 0.31598 0.0
H496 H 0.20802 0.36399 0.2695 0.0
H497 H 0.2143 0.32616 0.20176 0.0
H498 H 0.25451 0.39137 0.33873 0.0
H499 H 0.29051 0.36244 0.39712 0.0
C500 C 0.73018 0.16932 0.23367 0.0
C501 C 0.73917 0.21968 0.27204 0.0
C502 C 0.70378 0.28985 0.19711 0.0
C503 C 0.70311 0.24026 0.15621 0.0
N504 N 0.73031 0.13613 0.13299 0.0
N505 N 0.74029 0.33021 0.28773 0.0
C506 C 0.72031 0.18092 0.17374 0.0
C507 C 0.72693 0.28079 0.25352 0.0
N508 N 0.73012 0.11006 0.25454 0.0
N509 N 0.68348 0.34561 0.1816 0.0
H510 H 0.75842 0.32562 0.32832 0.0
H511 H 0.73725 0.37589 0.27378 0.0
H512 H 0.66782 0.35365 0.14009 0.0
H513 H 0.67866 0.382 0.21114 0.0
H514 H 0.71947 0.07226 0.22872 0.0
H515 H 0.73476 0.09956 0.29903 0.0
H516 H 0.74919 0.09515 0.14358 0.0
H517 H 0.72425 0.14194 0.0881 0.0
C518 C 0.83923 0.25375 0.69723 0.0
C519 C 0.8156 0.21004 0.65895 0.0
C520 C 0.75635 0.17824 0.73851 0.0
C521 C 0.77627 0.22652 0.77374 0.0
N522 N 0.84713 0.29381 0.79673 0.0
N523 N 0.75422 0.1277 0.64309 0.0
C524 C 0.82107 0.25922 0.75617 0.0
C525 C 0.77533 0.17071 0.68001 0.0
N526 N 0.87634 0.29319 0.67627 0.0
N527 N 0.72053 0.13869 0.76202 0.0
H528 H 0.76922 0.11873 0.60139 0.0
H529 H 0.72127 0.10197 0.65246 0.0
H530 H 0.7074 0.14256 0.80536 0.0
H531 H 0.70638 0.09956 0.74091 0.0
H532 H 0.8898 0.33139 0.69954 0.0
H533 H 0.89165 0.29064 0.63389 0.0
H534 H 0.88283 0.31435 0.78878 0.0
H535 H 0.83545 0.29661 0.84069 0.0
C536 C 0.83449 0.70142 0.19922 0.0
C537 C 0.80879 0.74512 0.16278 0.0
C538 C 0.75504 0.77677 0.24724 0.0
C539 C 0.77629 0.72832 0.28067 0.0
N540 N 0.84747 0.66055 0.29784 0.0
N541 N 0.74278 0.82283 0.15151 0.0
C542 C 0.81956 0.69546 0.25946 0.0
C543 C 0.76898 0.78295 0.18691 0.0
N544 N 0.87029 0.66232 0.17539 0.0
N545 N 0.72327 0.81848 0.2742 0.0
H546 H 0.75267 0.83021 0.10772 0.0
H547 H 0.70927 0.84567 0.16419 0.0
H548 H 0.71356 0.81549 0.31877 0.0
H549 H 0.71035 0.85887 0.25434 0.0
H550 H 0.88542 0.62449 0.19756 0.0
H551 H 0.88254 0.66448 0.13172 0.0
H552 H 0.88224 0.63938 0.2872 0.0
H553 H 0.83847 0.65836 0.34262 0.0
C554 C 0.70987 0.79064 0.74241 0.0
C555 C 0.73549 0.74335 0.77407 0.0
C556 C 0.71477 0.66916 0.6954 0.0
C557 C 0.68908 0.71683 0.66448 0.0
N558 N 0.64675 0.81581 0.66844 0.0
N559 N 0.75712 0.63563 0.78533 0.0
C560 C 0.68142 0.77513 0.69138 0.0
C561 C 0.73579 0.68166 0.75227 0.0
N562 N 0.71464 0.85108 0.75919 0.0
N563 N 0.71941 0.61236 0.66967 0.0
H564 H 0.77533 0.64384 0.82542 0.0
H565 H 0.75496 0.58891 0.77477 0.0
H566 H 0.70106 0.60135 0.63021 0.0
H567 H 0.7418 0.5767 0.68632 0.0
H568 H 0.70177 0.88786 0.73365 0.0
H569 H 0.73557 0.86518 0.79582 0.0
H570 H 0.6358 0.85635 0.68984 0.0
H571 H 0.62527 0.80651 0.63084 0.0
C572 C 0.32306 0.76119 0.75741 0.0
C573 C 0.27862 0.72806 0.73993 0.0
C574 C 0.27774 0.67272 0.83418 0.0
C575 C 0.31664 0.71364 0.85542 0.0
N576 N 0.37605 0.79814 0.83746 0.0
N577 N 0.22286 0.64058 0.75278 0.0
C578 C 0.34006 0.75739 0.81675 0.0
C579 C 0.25874 0.68002 0.77576 0.0
N580 N 0.35011 0.7943 0.71635 0.0
N581 N 0.25856 0.62777 0.8706 0.0
H582 H 0.21062 0.64398 0.70929 0.0
H583 H 0.20698 0.60288 0.77471 0.0
H584 H 0.27396 0.6191 0.91198 0.0
H585 H 0.22769 0.5989 0.86081 0.0
H586 H 0.38553 0.81529 0.72452 0.0
H587 H 0.33978 0.7947 0.67202 0.0
H588 H 0.38911 0.83627 0.81365 0.0
H589 H 0.39073 0.79657 0.87997 0.0
C590 C 0.19577 0.67871 0.33256 0.0
C591 C 0.19533 0.7391 0.35699 0.0
C592 C 0.23501 0.77999 0.26651 0.0
C593 C 0.23379 0.71961 0.24174 0.0
N594 N 0.20079 0.61536 0.24489 0.0
N595 N 0.20525 0.84882 0.34437 0.0
C596 C 0.21007 0.67028 0.2728 0.0
C597 C 0.21179 0.7904 0.32281 0.0
N598 N 0.18565 0.62876 0.36754 0.0
N599 N 0.26075 0.82639 0.23786 0.0
H600 H 0.18859 0.85729 0.38553 0.0
H601 H 0.2123 0.88866 0.31988 0.0
H602 H 0.27793 0.82048 0.19663 0.0
H603 H 0.26808 0.86951 0.25644 0.0
H604 H 0.19163 0.58327 0.35417 0.0
H605 H 0.17559 0.63303 0.41177 0.0
H606 H 0.17884 0.57987 0.26341 0.0
H607 H 0.21075 0.60754 0.20096 0.0
loop_
_geom_bond_atom_site_label_1
_geom_bond_atom_site_label_2
_geom_bond_distance
_geom_bond_site_symmetry_2
_ccdc_geom_bond_type
Sc0 O3 2.025 . S
Sc0 O10 2.105 . S
Sc0 O13 2.105 . S
Sc0 O16 2.105 . S
Sc0 O19 2.105 . S
Sc1 O3 2.025 . S
Sc1 O11 2.105 1_554 S
Sc1 O15 2.105 . S
Sc1 O17 2.105 . S
Sc1 O21 2.105 . S
Sc2 O3 2.025 . S
Sc2 O12 2.105 . S
Sc2 O14 2.105 . S
Sc2 O18 2.105 . S
Sc2 O20 2.105 . S
O3 Sc0 2.025 . S
O3 Sc1 2.025 . S
O3 Sc2 2.025 . S
C4 O10 1.268 . S
C4 O20 1.268 . S
C5 O11 1.268 . S
C5 O19 1.268 1_556 S
C6 O12 1.268 . S
C6 O21 1.268 . S
C7 O13 1.268 . S
C7 O17 1.268 . S
C8 O14 1.268 . S
C8 O16 1.268 . S
C9 O15 1.268 . S
C9 O18 1.268 . S
O10 Sc0 2.105 . S
O10 C4 1.268 . S
O11 Sc1 2.105 1_556 S
O11 C5 1.268 . S
O12 Sc2 2.105 . S
O12 C6 1.268 . S
O13 Sc0 2.105 . S
O13 C7 1.268 . S
O14 Sc2 2.105 . S
O14 C8 1.268 . S
O15 Sc1 2.105 . S
O15 C9 1.268 . S
O16 Sc0 2.105 . S
O16 C8 1.268 . S
O17 Sc1 2.105 . S
O17 C7 1.268 . S
O18 Sc2 2.105 . S
O18 C9 1.268 . S
O19 Sc0 2.105 . S
O19 C5 1.268 1_554 S
O20 Sc2 2.105 . S
O20 C4 1.268 . S
O21 Sc1 2.105 . S
O21 C6 1.268 . S
Sc22 O25 2.025 . S
Sc22 O32 2.105 . S
Sc22 O35 2.105 . S
Sc22 O38 2.105 . S
Sc22 O41 2.105 . S
Sc23 O25 2.025 . S
Sc23 O33 2.105 . S
Sc23 O37 2.105 . S
Sc23 O39 2.105 . S
Sc23 O43 2.105 . S
Sc24 O25 2.025 . S
Sc24 O34 2.105 . S
Sc24 O36 2.105 . S
Sc24 O40 2.105 . S
Sc24 O42 2.105 . S
O25 Sc22 2.025 . S
O25 Sc23 2.025 . S
O25 Sc24 2.025 . S
C26 O32 1.268 . S
C26 O42 1.268 . S
C27 O33 1.268 . S
C27 O41 1.268 . S
C28 O34 1.268 . S
C28 O43 1.268 . S
C29 O35 1.268 . S
C29 O39 1.268 . S
C30 O36 1.268 . S
C30 O38 1.268 . S
C31 O37 1.268 . S
C31 O40 1.268 . S
O32 Sc22 2.105 . S
O32 C26 1.268 . S
O33 Sc23 2.105 . S
O33 C27 1.268 . S
O34 Sc24 2.105 . S
O34 C28 1.268 . S
O35 Sc22 2.105 . S
O35 C29 1.268 . S
O36 Sc24 2.105 . S
O36 C30 1.268 . S
O37 Sc23 2.105 . S
O37 C31 1.268 . S
O38 Sc22 2.105 . S
O38 C30 1.268 . S
O39 Sc23 2.105 . S
O39 C29 1.268 . S
O40 Sc24 2.105 . S
O40 C31 1.268 . S
O41 Sc22 2.105 . S
O41 C27 1.268 . S
O42 Sc24 2.105 . S
O42 C26 1.268 . S
O43 Sc23 2.105 . S
O43 C28 1.268 . S
Sc44 O47 2.025 . S
Sc44 O54 2.105 . S
Sc44 O57 2.105 . S
Sc44 O60 2.105 . S
Sc44 O63 2.105 . S
Sc45 O47 2.025 . S
Sc45 O55 2.105 . S
Sc45 O59 2.105 1_556 S
Sc45 O61 2.105 . S
Sc45 O65 2.105 . S
Sc46 O47 2.025 . S
Sc46 O56 2.105 . S
Sc46 O58 2.105 . S
Sc46 O62 2.105 . S
Sc46 O64 2.105 . S
O47 Sc44 2.025 . S
O47 Sc45 2.025 . S
O47 Sc46 2.025 . S
C48 O54 1.268 . S
C48 O64 1.268 . S
C49 O55 1.268 . S
C49 O63 1.268 . S
C50 O56 1.268 . S
C50 O65 1.268 . S
C51 O57 1.268 . S
C51 O61 1.268 . S
C52 O58 1.268 . S
C52 O60 1.268 . S
C53 O59 1.268 . S
C53 O62 1.268 1_554 S
O54 Sc44 2.105 . S
O54 C48 1.268 . S
O55 Sc45 2.105 . S
O55 C49 1.268 . S
O56 Sc46 2.105 . S
O56 C50 1.268 . S
O57 Sc44 2.105 . S
O57 C51 1.268 . S
O58 Sc46 2.105 . S
O58 C52 1.268 . S
O59 Sc45 2.105 1_554 S
O59 C53 1.268 . S
O60 Sc44 2.105 . S
O60 C52 1.268 . S
O61 Sc45 2.105 . S
O61 C51 1.268 . S
O62 Sc46 2.105 . S
O62 C53 1.268 1_556 S
O63 Sc44 2.105 . S
O63 C49 1.268 . S
O64 Sc46 2.105 . S
O64 C48 1.268 . S
O65 Sc45 2.105 . S
O65 C50 1.268 . S
Sc66 O69 2.025 . S
Sc66 O76 2.105 . S
Sc66 O79 2.105 . S
Sc66 O82 2.105 . S
Sc66 O85 2.105 . S
Sc67 O69 2.025 . S
Sc67 O77 2.105 . S
Sc67 O81 2.105 . S
Sc67 O83 2.105 . S
Sc67 O87 2.105 . S
Sc68 O69 2.025 . S
Sc68 O78 2.105 . S
Sc68 O80 2.105 . S
Sc68 O84 2.105 . S
Sc68 O86 2.105 . S
O69 Sc66 2.025 . S
O69 Sc67 2.025 . S
O69 Sc68 2.025 . S
C70 O76 1.268 . S
C70 O86 1.268 . S
C71 O77 1.268 . S
C71 O85 1.268 . S
C72 O78 1.268 . S
C72 O87 1.268 . S
C73 O79 1.268 . S
C73 O83 1.268 . S
C74 O80 1.268 . S
C74 O82 1.268 . S
C75 O81 1.268 . S
C75 O84 1.268 . S
O76 Sc66 2.105 . S
O76 C70 1.268 . S
O77 Sc67 2.105 . S
O77 C71 1.268 . S
O78 Sc68 2.105 . S
O78 C72 1.268 . S
O79 Sc66 2.105 . S
O79 C73 1.268 . S
O80 Sc68 2.105 . S
O80 C74 1.268 . S
O81 Sc67 2.105 . S
O81 C75 1.268 . S
O82 Sc66 2.105 . S
O82 C74 1.268 . S
O83 Sc67 2.105 . S
O83 C73 1.268 . S
O84 Sc68 2.105 . S
O84 C75 1.268 . S
O85 Sc66 2.105 . S
O85 C71 1.268 . S
O86 Sc68 2.105 . S
O86 C70 1.268 . S
O87 Sc67 2.105 . S
O87 C72 1.268 . S
Sc88 O91 2.025 . S
Sc88 O98 2.105 . S
Sc88 O101 2.105 . S
Sc88 O104 2.105 . S
Sc88 O107 2.105 . S
Sc89 O91 2.025 . S
Sc89 O99 2.105 . S
Sc89 O103 2.105 . S
Sc89 O105 2.105 1_556 S
Sc89 O109 2.105 . S
Sc90 O91 2.025 . S
Sc90 O100 2.105 . S
Sc90 O102 2.105 . S
Sc90 O106 2.105 . S
Sc90 O108 2.105 . S
O91 Sc88 2.025 . S
O91 Sc89 2.025 . S
O91 Sc90 2.025 . S
C92 O98 1.268 . S
C92 O108 1.268 . S
C93 O99 1.268 . S
C93 O107 1.268 . S
C94 O100 1.268 . S
C94 O109 1.268 . S
C95 O101 1.268 1_554 S
C95 O105 1.268 . S
C96 O102 1.268 . S
C96 O104 1.268 . S
C97 O103 1.268 . S
C97 O106 1.268 . S
O98 Sc88 2.105 . S
O98 C92 1.268 . S
O99 Sc89 2.105 . S
O99 C93 1.268 . S
O100 Sc90 2.105 . S
O100 C94 1.268 . S
O101 Sc88 2.105 . S
O101 C95 1.268 1_556 S
O102 Sc90 2.105 . S
O102 C96 1.268 . S
O103 Sc89 2.105 . S
O103 C97 1.268 . S
O104 Sc88 2.105 . S
O104 C96 1.268 . S
O105 Sc89 2.105 1_554 S
O105 C95 1.268 . S
O106 Sc90 2.105 . S
O106 C97 1.268 . S
O107 Sc88 2.105 . S
O107 C93 1.268 . S
O108 Sc90 2.105 . S
O108 C92 1.268 . S
O109 Sc89 2.105 . S
O109 C94 1.268 . S
Sc110 O113 2.025 . S
Sc110 O120 2.105 . S
Sc110 O123 2.105 . S
Sc110 O126 2.105 . S
Sc110 O129 2.105 . S
Sc111 O113 2.025 . S
Sc111 O121 2.105 . S
Sc111 O125 2.105 . S
Sc111 O127 2.105 . S
Sc111 O131 2.105 . S
Sc112 O113 2.025 . S
Sc112 O122 2.105 . S
Sc112 O124 2.105 . S
Sc112 O128 2.105 . S
Sc112 O130 2.105 . S
O113 Sc110 2.025 . S
O113 Sc111 2.025 . S
O113 Sc112 2.025 . S
C114 O120 1.268 . S
C114 O130 1.268 . S
C115 O121 1.268 . S
C115 O129 1.268 . S
C116 O122 1.268 . S
C116 O131 1.268 . S
C117 O123 1.268 . S
C117 O127 1.268 . S
C118 O124 1.268 . S
C118 O126 1.268 . S
C119 O125 1.268 . S
C119 O128 1.268 . S
O120 Sc110 2.105 . S
O120 C114 1.268 . S
O121 Sc111 2.105 . S
O121 C115 1.268 . S
O122 Sc112 2.105 . S
O122 C116 1.268 . S
O123 Sc110 2.105 . S
O123 C117 1.268 . S
O124 Sc112 2.105 . S
O124 C118 1.268 . S
O125 Sc111 2.105 . S
O125 C119 1.268 . S
O126 Sc110 2.105 . S
O126 C118 1.268 . S
O127 Sc111 2.105 . S
O127 C117 1.268 . S
O128 Sc112 2.105 . S
O128 C119 1.268 . S
O129 Sc110 2.105 . S
O129 C115 1.268 . S
O130 Sc112 2.105 . S
O130 C114 1.268 . S
O131 Sc111 2.105 . S
O131 C116 1.268 . S
Sc132 O135 2.025 . S
Sc132 O142 2.105 . S
Sc132 O145 2.105 . S
Sc132 O148 2.105 . S
Sc132 O151 2.105 . S
Sc133 O135 2.025 . S
Sc133 O143 2.105 . S
Sc133 O147 2.105 . S
Sc133 O149 2.105 . S
Sc133 O153 2.105 1_554 S
Sc134 O135 2.025 . S
Sc134 O144 2.105 . S
Sc134 O146 2.105 . S
Sc134 O150 2.105 . S
Sc134 O152 2.105 . S
O135 Sc132 2.025 . S
O135 Sc133 2.025 . S
O135 Sc134 2.025 . S
C136 O142 1.268 . S
C136 O152 1.268 . S
C137 O143 1.268 . S
C137 O151 1.268 . S
C138 O144 1.268 1_556 S
C138 O153 1.268 . S
C139 O145 1.268 . S
C139 O149 1.268 . S
C140 O146 1.268 . S
C140 O148 1.268 . S
C141 O147 1.268 . S
C141 O150 1.268 . S
O142 Sc132 2.105 . S
O142 C136 1.268 . S
O143 Sc133 2.105 . S
O143 C137 1.268 . S
O144 Sc134 2.105 . S
O144 C138 1.268 1_554 S
O145 Sc132 2.105 . S
O145 C139 1.268 . S
O146 Sc134 2.105 . S
O146 C140 1.268 . S
O147 Sc133 2.105 . S
O147 C141 1.268 . S
O148 Sc132 2.105 . S
O148 C140 1.268 . S
O149 Sc133 2.105 . S
O149 C139 1.268 . S
O150 Sc134 2.105 . S
O150 C141 1.268 . S
O151 Sc132 2.105 . S
O151 C137 1.268 . S
O152 Sc134 2.105 . S
O152 C136 1.268 . S
O153 Sc133 2.105 1_556 S
O153 C138 1.268 . S
Sc154 O157 2.025 . S
Sc154 O164 2.105 . S
Sc154 O167 2.105 . S
Sc154 O170 2.105 . S
Sc154 O173 2.105 . S
Sc155 O157 2.025 . S
Sc155 O165 2.105 . S
Sc155 O169 2.105 . S
Sc155 O171 2.105 . S
Sc155 O175 2.105 . S
Sc156 O157 2.025 . S
Sc156 O166 2.105 . S
Sc156 O168 2.105 . S
Sc156 O172 2.105 . S
Sc156 O174 2.105 . S
O157 Sc154 2.025 . S
O157 Sc155 2.025 . S
O157 Sc156 2.025 . S
C158 O164 1.268 . S
C158 O174 1.268 . S
C159 O165 1.268 . S
C159 O173 1.268 . S
C160 O166 1.268 . S
C160 O175 1.268 . S
C161 O167 1.268 . S
C161 O171 1.268 . S
C162 O168 1.268 . S
C162 O170 1.268 . S
C163 O169 1.268 . S
C163 O172 1.268 . S
O164 Sc154 2.105 . S
O164 C158 1.268 . S
O165 Sc155 2.105 . S
O165 C159 1.268 . S
O166 Sc156 2.105 . S
O166 C160 1.268 . S
O167 Sc154 2.105 . S
O167 C161 1.268 . S
O168 Sc156 2.105 . S
O168 C162 1.268 . S
O169 Sc155 2.105 . S
O169 C163 1.268 . S
O170 Sc154 2.105 . S
O170 C162 1.268 . S
O171 Sc155 2.105 . S
O171 C161 1.268 . S
O172 Sc156 2.105 . S
O172 C163 1.268 . S
O173 Sc154 2.105 . S
O173 C159 1.268 . S
O174 Sc156 2.105 . S
O174 C158 1.268 . S
O175 Sc155 2.105 . S
O175 C160 1.268 . S
C176 C177 1.363 . S
C176 C182 1.379 . S
C176 N184 1.356 . S
C177 C176 1.363 . S
C177 C183 1.363 1_455 S
C178 C179 1.363 . S
C178 C183 1.379 . S
C178 N185 1.356 . S
C179 C178 1.363 . S
C179 C182 1.363 1_655 S
N180 C182 1.354 1_655 S
N180 H192 0.975 1_655 S
N180 H193 0.997 . S
N181 C183 1.354 1_455 S
N181 H186 0.997 . S
N181 H187 0.975 1_455 S
C182 C176 1.379 . S
C182 C179 1.363 1_455 S
C182 N180 1.354 1_455 S
C183 C177 1.363 1_655 S
C183 C178 1.379 . S
C183 N181 1.354 1_655 S
N184 C176 1.356 . S
N184 H190 0.984 . S
N184 H191 0.984 . S
N185 C178 1.356 . S
N185 H188 0.984 . S
N185 H189 0.985 . S
H186 N181 0.997 . S
H187 N181 0.975 1_655 S
H188 N185 0.984 . S
H189 N185 0.985 . S
H190 N184 0.984 . S
H191 N184 0.984 . S
H192 N180 0.975 1_455 S
H193 N180 0.997 . S
C194 C195 1.363 . S
C194 C200 1.379 . S
C194 N202 1.356 . S
C195 C194 1.363 . S
C195 C201 1.363 . S
C196 C197 1.363 . S
C196 C201 1.379 . S
C196 N203 1.356 . S
C197 C196 1.363 . S
C197 C200 1.363 . S
N198 C200 1.356 . S
N198 H210 0.984 . S
N198 H211 0.985 . S
N199 C201 1.356 . S
N199 H204 0.984 . S
N199 H205 0.985 . S
C200 C194 1.379 . S
C200 C197 1.363 . S
C200 N198 1.356 . S
C201 C195 1.363 . S
C201 C196 1.379 . S
C201 N199 1.356 . S
N202 C194 1.356 . S
N202 H208 0.984 . S
N202 H209 0.984 . S
N203 C196 1.356 . S
N203 H206 0.984 . S
N203 H207 0.985 . S
H204 N199 0.984 . S
H205 N199 0.985 . S
H206 N203 0.984 . S
H207 N203 0.985 . S
H208 N202 0.984 . S
H209 N202 0.984 . S
H210 N198 0.984 . S
H211 N198 0.985 . S
C212 C213 1.363 1_455 S
C212 C218 1.379 . S
C212 N220 1.354 1_455 S
C213 C212 1.363 1_655 S
C213 C219 1.363 . S
C214 C215 1.363 1_655 S
C214 C219 1.379 . S
C214 N221 1.354 1_655 S
C215 C214 1.363 1_455 S
C215 C218 1.363 . S
N216 C218 1.356 . S
N216 H228 0.984 . S
N216 H229 0.985 . S
N217 C219 1.356 . S
N217 H222 0.984 . S
N217 H223 0.985 . S
C218 C212 1.379 . S
C218 C215 1.363 . S
C218 N216 1.356 . S
C219 C213 1.363 . S
C219 C214 1.379 . S
C219 N217 1.356 . S
N220 C212 1.354 1_655 S
N220 H226 0.975 1_655 S
N220 H227 0.997 . S
N221 C214 1.354 1_455 S
N221 H224 0.997 . S
N221 H225 0.975 1_455 S
H222 N217 0.984 . S
H223 N217 0.985 . S
H224 N221 0.997 . S
H225 N221 0.975 1_655 S
H226 N220 0.975 1_455 S
H227 N220 0.997 . S
H228 N216 0.984 . S
H229 N216 0.985 . S
C230 C231 1.363 . S
C230 C236 1.379 . S
C230 N238 1.356 . S
C231 C230 1.363 . S
C231 C237 1.363 . S
C232 C233 1.363 . S
C232 C237 1.379 . S
C232 N239 1.356 . S
C233 C232 1.363 . S
C233 C236 1.363 . S
N234 C236 1.356 . S
N234 H246 0.984 . S
N234 H247 0.985 . S
N235 C237 1.356 . S
N235 H240 0.984 . S
N235 H241 0.985 . S
C236 C230 1.379 . S
C236 C233 1.363 . S
C236 N234 1.356 . S
C237 C231 1.363 . S
C237 C232 1.379 . S
C237 N235 1.356 . S
N238 C230 1.356 . S
N238 H244 0.984 . S
N238 H245 0.984 . S
N239 C232 1.356 . S
N239 H242 0.984 . S
N239 H243 0.985 . S
H240 N235 0.984 . S
H241 N235 0.985 . S
H242 N239 0.984 . S
H243 N239 0.985 . S
H244 N238 0.984 . S
H245 N238 0.984 . S
H246 N234 0.984 . S
H247 N234 0.985 . S
C248 C249 1.363 1_656 S
C248 C254 1.379 . S
C248 N256 1.356 . S
C249 C248 1.363 1_454 S
C249 C255 1.363 1_545 S
C250 C251 1.363 1_454 S
C250 C255 1.379 . S
C250 N257 1.356 . S
C251 C250 1.363 1_656 S
C251 C254 1.363 1_565 S
N252 C254 1.356 1_565 S
N252 H264 0.984 1_565 S
N252 H265 0.985 . S
N253 C255 1.356 1_545 S
N253 H258 0.984 . S
N253 H259 0.985 1_545 S
C254 C248 1.379 . S
C254 C251 1.363 1_545 S
C254 N252 1.356 1_545 S
C255 C249 1.363 1_565 S
C255 C250 1.379 . S
C255 N253 1.356 1_565 S
N256 C248 1.356 . S
N256 H262 0.984 . S
N256 H263 0.984 1_655 S
N257 C250 1.356 . S
N257 H260 0.984 1_455 S
N257 H261 0.985 . S
H258 N253 0.984 . S
H259 N253 0.985 1_565 S
H260 N257 0.984 1_655 S
H261 N257 0.985 . S
H262 N256 0.984 . S
H263 N256 0.984 1_455 S
H264 N252 0.984 1_545 S
H265 N252 0.985 . S
C266 C267 1.363 . S
C266 C272 1.379 . S
C266 N274 1.356 . S
C267 C266 1.363 . S
C267 C273 1.363 . S
C268 C269 1.363 . S
C268 C273 1.379 . S
C268 N275 1.356 . S
C269 C268 1.363 . S
C269 C272 1.363 . S
N270 C272 1.356 . S
N270 H282 0.984 . S
N270 H283 0.985 . S
N271 C273 1.356 . S
N271 H276 0.984 . S
N271 H277 0.985 . S
C272 C266 1.379 . S
C272 C269 1.363 . S
C272 N270 1.356 . S
C273 C267 1.363 . S
C273 C268 1.379 . S
C273 N271 1.356 . S
N274 C266 1.356 . S
N274 H280 0.984 . S
N274 H281 0.984 . S
N275 C268 1.356 . S
N275 H278 0.984 . S
N275 H279 0.985 . S
H276 N271 0.984 . S
H277 N271 0.985 . S
H278 N275 0.984 . S
H279 N275 0.985 . S
H280 N274 0.984 . S
H281 N274 0.984 . S
H282 N270 0.984 . S
H283 N270 0.985 . S
C284 C285 1.363 1_556 S
C284 C290 1.379 . S
C284 N292 1.356 . S
C285 C284 1.363 1_554 S
C285 C291 1.363 . S
C286 C287 1.363 1_554 S
C286 C291 1.379 . S
C286 N293 1.356 . S
C287 C286 1.363 1_556 S
C287 C290 1.363 . S
N288 C290 1.356 . S
N288 H300 0.984 . S
N288 H301 0.985 . S
N289 C291 1.356 . S
N289 H294 0.984 . S
N289 H295 0.985 . S
C290 C284 1.379 . S
C290 C287 1.363 . S
C290 N288 1.356 . S
C291 C285 1.363 . S
C291 C286 1.379 . S
C291 N289 1.356 . S
N292 C284 1.356 . S
N292 H298 0.984 . S
N292 H299 0.984 . S
N293 C286 1.356 . S
N293 H296 0.984 . S
N293 H297 0.985 . S
H294 N289 0.984 . S
H295 N289 0.985 . S
H296 N293 0.984 . S
H297 N293 0.985 . S
H298 N292 0.984 . S
H299 N292 0.984 . S
H300 N288 0.984 . S
H301 N288 0.985 . S
C302 C303 1.363 1_455 S
C302 C308 1.379 . S
C302 N310 1.356 . S
C303 C302 1.363 1_655 S
C303 C309 1.363 1_545 S
C304 C305 1.363 1_655 S
C304 C309 1.379 . S
C304 N311 1.356 . S
C305 C304 1.363 1_455 S
C305 C308 1.363 1_565 S
N306 C308 1.356 1_565 S
N306 H318 0.984 1_565 S
N306 H319 0.985 . S
N307 C309 1.356 1_545 S
N307 H312 0.984 . S
N307 H313 0.985 1_545 S
C308 C302 1.379 . S
C308 C305 1.363 1_545 S
C308 N306 1.356 1_545 S
C309 C303 1.363 1_565 S
C309 C304 1.379 . S
C309 N307 1.356 1_565 S
N310 C302 1.356 . S
N310 H316 0.984 . S
N310 H317 0.984 1_455 S
N311 C304 1.356 . S
N311 H314 0.984 1_655 S
N311 H315 0.985 . S
H312 N307 0.984 . S
H313 N307 0.985 1_565 S
H314 N311 0.984 1_455 S
H315 N311 0.985 . S
H316 N310 0.984 . S
H317 N310 0.984 1_655 S
H318 N306 0.984 1_545 S
H319 N306 0.985 . S
C320 C321 1.363 . S
C320 C326 1.379 1_565 S
C320 N328 1.356 . S
C321 C320 1.363 . S
C321 C327 1.363 . S
C322 C323 1.363 1_565 S
C322 C327 1.379 . S
C322 N329 1.356 1_565 S
C323 C322 1.363 1_545 S
C323 C326 1.363 . S
N324 C326 1.356 . S
N324 H336 0.984 1_554 S
N324 H337 0.985 . S
N325 C327 1.356 . S
N325 H330 0.984 . S
N325 H331 0.985 . S
C326 C320 1.379 1_545 S
C326 C323 1.363 . S
C326 N324 1.356 . S
C327 C321 1.363 . S
C327 C322 1.379 . S
C327 N325 1.356 . S
N328 C320 1.356 . S
N328 H334 0.984 1_554 S
N328 H335 0.984 . S
N329 C322 1.356 1_545 S
N329 H332 0.984 . S
N329 H333 0.985 . S
H330 N325 0.984 . S
H331 N325 0.985 . S
H332 N329 0.984 . S
H333 N329 0.985 . S
H334 N328 0.984 1_556 S
H335 N328 0.984 . S
H336 N324 0.984 1_556 S
H337 N324 0.985 . S
C338 C339 1.363 . S
C338 C344 1.379 . S
C338 N346 1.356 . S
C339 C338 1.363 . S
C339 C345 1.363 . S
C340 C341 1.363 . S
C340 C345 1.379 . S
C340 N347 1.356 . S
C341 C340 1.363 . S
C341 C344 1.363 . S
N342 C344 1.356 . S
N342 H354 0.984 . S
N342 H355 0.985 . S
N343 C345 1.356 . S
N343 H348 0.984 . S
N343 H349 0.985 . S
C344 C338 1.379 . S
C344 C341 1.363 . S
C344 N342 1.356 . S
C345 C339 1.363 . S
C345 C340 1.379 . S
C345 N343 1.356 . S
N346 C338 1.356 . S
N346 H352 0.984 . S
N346 H353 0.984 . S
N347 C340 1.356 . S
N347 H350 0.984 . S
N347 H351 0.985 . S
H348 N343 0.984 . S
H349 N343 0.985 . S
H350 N347 0.984 . S
H351 N347 0.985 . S
H352 N346 0.984 . S
H353 N346 0.984 . S
H354 N342 0.984 . S
H355 N342 0.985 . S
C356 C357 1.363 . S
C356 C362 1.379 . S
C356 N364 1.356 . S
C357 C356 1.363 . S
C357 C363 1.363 . S
C358 C359 1.363 . S
C358 C363 1.379 . S
C358 N365 1.356 . S
C359 C358 1.363 . S
C359 C362 1.363 . S
N360 C362 1.356 . S
N360 H372 0.980 1_556 S
N360 H373 0.985 . S
N361 C363 1.356 . S
N361 H366 0.984 . S
N361 H367 0.985 . S
C362 C356 1.379 . S
C362 C359 1.363 . S
C362 N360 1.356 . S
C363 C357 1.363 . S
C363 C358 1.379 . S
C363 N361 1.356 . S
N364 C356 1.356 . S
N364 H370 0.984 1_556 S
N364 H371 0.984 . S
N365 C358 1.356 . S
N365 H368 0.984 . S
N365 H369 0.985 . S
H366 N361 0.984 . S
H367 N361 0.985 . S
H368 N365 0.984 . S
H369 N365 0.985 . S
H370 N364 0.984 1_554 S
H371 N364 0.984 . S
H372 N360 0.980 1_554 S
H373 N360 0.985 . S
C374 C375 1.363 . S
C374 C380 1.379 1_545 S
C374 N382 1.356 . S
C375 C374 1.363 . S
C375 C381 1.363 1_545 S
C376 C377 1.363 . S
C376 C381 1.379 . S
C376 N383 1.356 . S
C377 C376 1.363 . S
C377 C380 1.363 . S
N378 C380 1.356 . S
N378 H390 0.984 . S
N378 H391 0.985 . S
N379 C381 1.356 1_545 S
N379 H384 0.984 . S
N379 H385 0.985 1_545 S
C380 C374 1.379 1_565 S
C380 C377 1.363 . S
C380 N378 1.356 . S
C381 C375 1.363 1_565 S
C381 C376 1.379 . S
C381 N379 1.356 1_565 S
N382 C374 1.356 . S
N382 H388 0.984 . S
N382 H389 0.984 . S
N383 C376 1.356 . S
N383 H386 0.984 . S
N383 H387 0.985 . S
H384 N379 0.984 . S
H385 N379 0.985 1_565 S
H386 N383 0.984 . S
H387 N383 0.985 . S
H388 N382 0.984 . S
H389 N382 0.984 . S
H390 N378 0.984 . S
H391 N378 0.985 . S
C392 C393 1.363 . S
C392 C398 1.379 1_545 S
C392 N400 1.356 . S
C393 C392 1.363 . S
C393 C399 1.363 . S
C394 C395 1.363 1_545 S
C394 C399 1.379 . S
C394 N401 1.356 1_545 S
C395 C394 1.363 1_565 S
C395 C398 1.363 . S
N396 C398 1.356 . S
N396 H408 0.984 . S
N396 H409 0.985 . S
N397 C399 1.356 . S
N397 H402 0.984 . S
N397 H403 0.985 1_556 S
C398 C392 1.379 1_565 S
C398 C395 1.363 . S
C398 N396 1.356 . S
C399 C393 1.363 . S
C399 C394 1.379 . S
C399 N397 1.356 . S
N400 C392 1.356 . S
N400 H406 0.984 . S
N400 H407 0.984 . S
N401 C394 1.356 1_565 S
N401 H404 0.984 . S
N401 H405 0.985 1_566 S
H402 N397 0.984 . S
H403 N397 0.985 1_554 S
H404 N401 0.984 . S
H405 N401 0.985 1_544 S
H406 N400 0.984 . S
H407 N400 0.984 . S
H408 N396 0.984 . S
H409 N396 0.985 . S
C410 C411 1.363 . S
C410 C416 1.379 . S
C410 N418 1.356 . S
C411 C410 1.363 . S
C411 C417 1.363 . S
C412 C413 1.363 . S
C412 C417 1.379 . S
C412 N419 1.356 . S
C413 C412 1.363 . S
C413 C416 1.363 . S
N414 C416 1.356 . S
N414 H426 0.984 . S
N414 H427 0.985 . S
N415 C417 1.356 . S
N415 H420 0.984 . S
N415 H421 0.985 . S
C416 C410 1.379 . S
C416 C413 1.363 . S
C416 N414 1.356 . S
C417 C411 1.363 . S
C417 C412 1.379 . S
C417 N415 1.356 . S
N418 C410 1.356 . S
N418 H424 0.984 . S
N418 H425 0.984 . S
N419 C412 1.356 . S
N419 H422 0.984 . S
N419 H423 0.985 . S
H420 N415 0.984 . S
H421 N415 0.985 . S
H422 N419 0.984 . S
H423 N419 0.985 . S
H424 N418 0.984 . S
H425 N418 0.984 . S
H426 N414 0.984 . S
H427 N414 0.985 . S
C428 C429 1.363 . S
C428 C434 1.379 . S
C428 N436 1.356 . S
C429 C428 1.363 . S
C429 C435 1.363 . S
C430 C431 1.363 . S
C430 C435 1.379 . S
C430 N437 1.356 . S
C431 C430 1.363 . S
C431 C434 1.363 . S
N432 C434 1.356 . S
N432 H444 0.984 . S
N432 H445 0.985 . S
N433 C435 1.356 . S
N433 H438 0.984 . S
N433 H439 0.998 . S
C434 C428 1.379 . S
C434 C431 1.363 . S
C434 N432 1.356 . S
C435 C429 1.363 . S
C435 C430 1.379 . S
C435 N433 1.356 . S
N436 C428 1.356 . S
N436 H442 0.984 . S
N436 H443 0.984 . S
N437 C430 1.356 . S
N437 H440 0.984 . S
N437 H441 0.985 1_554 S
H438 N433 0.984 . S
H439 N433 0.998 . S
H440 N437 0.984 . S
H441 N437 0.985 1_556 S
H442 N436 0.984 . S
H443 N436 0.984 . S
H444 N432 0.984 . S
H445 N432 0.985 . S
C446 C447 1.363 . S
C446 C452 1.379 1_565 S
C446 N454 1.356 . S
C447 C446 1.363 . S
C447 C453 1.363 1_565 S
C448 C449 1.363 . S
C448 C453 1.379 . S
C448 N455 1.356 . S
C449 C448 1.363 . S
C449 C452 1.363 . S
N450 C452 1.356 . S
N450 H462 0.984 . S
N450 H463 0.985 . S
N451 C453 1.356 1_565 S
N451 H456 0.984 . S
N451 H457 0.985 . S
C452 C446 1.379 1_545 S
C452 C449 1.363 . S
C452 N450 1.356 . S
C453 C447 1.363 1_545 S
C453 C448 1.379 . S
C453 N451 1.356 1_545 S
N454 C446 1.356 . S
N454 H460 0.984 . S
N454 H461 0.984 . S
N455 C448 1.356 . S
N455 H458 0.984 . S
N455 H459 0.985 . S
H456 N451 0.984 . S
H457 N451 0.985 . S
H458 N455 0.984 . S
H459 N455 0.985 . S
H460 N454 0.984 . S
H461 N454 0.984 . S
H462 N450 0.984 . S
H463 N450 0.985 . S
C464 C465 1.363 . S
C464 C470 1.379 . S
C464 N472 1.356 . S
C465 C464 1.363 . S
C465 C471 1.363 . S
C466 C467 1.363 . S
C466 C471 1.379 . S
C466 N473 1.356 . S
C467 C466 1.363 . S
C467 C470 1.363 . S
N468 C470 1.356 . S
N468 H480 0.984 . S
N468 H481 0.985 . S
N469 C471 1.356 . S
N469 H474 0.984 . S
N469 H475 0.985 . S
C470 C464 1.379 . S
C470 C467 1.363 . S
C470 N468 1.356 . S
C471 C465 1.363 . S
C471 C466 1.379 . S
C471 N469 1.356 . S
N472 C464 1.356 . S
N472 H478 0.984 . S
N472 H479 0.984 . S
N473 C466 1.356 . S
N473 H476 0.984 . S
N473 H477 0.985 . S
H474 N469 0.984 . S
H475 N469 0.985 . S
H476 N473 0.984 . S
H477 N473 0.985 . S
H478 N472 0.984 . S
H479 N472 0.984 . S
H480 N468 0.984 . S
H481 N468 0.985 . S
C482 C483 1.363 . S
C482 C488 1.379 . S
C482 N490 1.356 . S
C483 C482 1.363 . S
C483 C489 1.363 . S
C484 C485 1.363 . S
C484 C489 1.379 . S
C484 N491 1.356 . S
C485 C484 1.363 . S
C485 C488 1.363 . S
N486 C488 1.356 . S
N486 H498 0.984 . S
N486 H499 0.985 . S
N487 C489 1.356 . S
N487 H492 0.984 . S
N487 H493 0.985 . S
C488 C482 1.379 . S
C488 C485 1.363 . S
C488 N486 1.356 . S
C489 C483 1.363 . S
C489 C484 1.379 . S
C489 N487 1.356 . S
N490 C482 1.356 . S
N490 H496 0.984 . S
N490 H497 0.984 . S
N491 C484 1.356 . S
N491 H494 0.984 . S
N491 H495 0.985 . S
H492 N487 0.984 . S
H493 N487 0.985 . S
H494 N491 0.984 . S
H495 N491 0.985 . S
H496 N490 0.984 . S
H497 N490 0.984 . S
H498 N486 0.984 . S
H499 N486 0.985 . S
C500 C501 1.363 . S
C500 C506 1.379 . S
C500 N508 1.356 . S
C501 C500 1.363 . S
C501 C507 1.363 . S
C502 C503 1.363 . S
C502 C507 1.379 . S
C502 N509 1.356 . S
C503 C502 1.363 . S
C503 C506 1.363 . S
N504 C506 1.356 . S
N504 H516 0.984 . S
N504 H517 0.985 . S
N505 C507 1.356 . S
N505 H510 0.984 . S
N505 H511 0.985 . S
C506 C500 1.379 . S
C506 C503 1.363 . S
C506 N504 1.356 . S
C507 C501 1.363 . S
C507 C502 1.379 . S
C507 N505 1.356 . S
N508 C500 1.356 . S
N508 H514 0.984 . S
N508 H515 0.984 . S
N509 C502 1.356 . S
N509 H512 0.984 . S
N509 H513 0.985 . S
H510 N505 0.984 . S
H511 N505 0.985 . S
H512 N509 0.984 . S
H513 N509 0.985 . S
H514 N508 0.984 . S
H515 N508 0.984 . S
H516 N504 0.984 . S
H517 N504 0.985 . S
C518 C519 1.363 . S
C518 C524 1.379 . S
C518 N526 1.356 . S
C519 C518 1.363 . S
C519 C525 1.363 . S
C520 C521 1.363 . S
C520 C525 1.379 . S
C520 N527 1.356 . S
C521 C520 1.363 . S
C521 C524 1.363 . S
N522 C524 1.356 . S
N522 H534 0.984 . S
N522 H535 0.985 . S
N523 C525 1.356 . S
N523 H528 0.984 . S
N523 H529 0.985 . S
C524 C518 1.379 . S
C524 C521 1.363 . S
C524 N522 1.356 . S
C525 C519 1.363 . S
C525 C520 1.379 . S
C525 N523 1.356 . S
N526 C518 1.356 . S
N526 H532 0.984 . S
N526 H533 0.984 . S
N527 C520 1.356 . S
N527 H530 0.984 . S
N527 H531 0.985 . S
H528 N523 0.984 . S
H529 N523 0.985 . S
H530 N527 0.984 . S
H531 N527 0.985 . S
H532 N526 0.984 . S
H533 N526 0.984 . S
H534 N522 0.984 . S
H535 N522 0.985 . S
C536 C537 1.363 . S
C536 C542 1.379 . S
C536 N544 1.356 . S
C537 C536 1.363 . S
C537 C543 1.363 . S
C538 C539 1.363 . S
C538 C543 1.379 . S
C538 N545 1.356 . S
C539 C538 1.363 . S
C539 C542 1.363 . S
N540 C542 1.356 . S
N540 H552 0.984 . S
N540 H553 0.985 . S
N541 C543 1.356 . S
N541 H546 0.984 . S
N541 H547 0.985 . S
C542 C536 1.379 . S
C542 C539 1.363 . S
C542 N540 1.356 . S
C543 C537 1.363 . S
C543 C538 1.379 . S
C543 N541 1.356 . S
N544 C536 1.356 . S
N544 H550 0.984 . S
N544 H551 0.984 . S
N545 C538 1.356 . S
N545 H548 0.984 . S
N545 H549 0.985 . S
H546 N541 0.984 . S
H547 N541 0.985 . S
H548 N545 0.984 . S
H549 N545 0.985 . S
H550 N544 0.984 . S
H551 N544 0.984 . S
H552 N540 0.984 . S
H553 N540 0.985 . S
C554 C555 1.363 . S
C554 C560 1.379 . S
C554 N562 1.356 . S
C555 C554 1.363 . S
C555 C561 1.363 . S
C556 C557 1.363 . S
C556 C561 1.379 . S
C556 N563 1.356 . S
C557 C556 1.363 . S
C557 C560 1.363 . S
N558 C560 1.356 . S
N558 H570 0.984 . S
N558 H571 0.985 . S
N559 C561 1.356 . S
N559 H564 0.984 . S
N559 H565 0.985 . S
C560 C554 1.379 . S
C560 C557 1.363 . S
C560 N558 1.356 . S
C561 C555 1.363 . S
C561 C556 1.379 . S
C561 N559 1.356 . S
N562 C554 1.356 . S
N562 H568 0.984 . S
N562 H569 0.984 . S
N563 C556 1.356 . S
N563 H566 0.984 . S
N563 H567 0.985 . S
H564 N559 0.984 . S
H565 N559 0.985 . S
H566 N563 0.984 . S
H567 N563 0.985 . S
H568 N562 0.984 . S
H569 N562 0.984 . S
H570 N558 0.984 . S
H571 N558 0.985 . S
C572 C573 1.363 . S
C572 C578 1.379 . S
C572 N580 1.356 . S
C573 C572 1.363 . S
C573 C579 1.363 . S
C574 C575 1.363 . S
C574 C579 1.379 . S
C574 N581 1.356 . S
C575 C574 1.363 . S
C575 C578 1.363 . S
N576 C578 1.356 . S
N576 H588 0.984 . S
N576 H589 0.985 . S
N577 C579 1.356 . S
N577 H582 0.984 . S
N577 H583 0.985 . S
C578 C572 1.379 . S
C578 C575 1.363 . S
C578 N576 1.356 . S
C579 C573 1.363 . S
C579 C574 1.379 . S
C579 N577 1.356 . S
N580 C572 1.356 . S
N580 H586 0.984 . S
N580 H587 0.984 . S
N581 C574 1.356 . S
N581 H584 0.984 . S
N581 H585 0.985 . S
H582 N577 0.984 . S
H583 N577 0.985 . S
H584 N581 0.984 . S
H585 N581 0.985 . S
H586 N580 0.984 . S
H587 N580 0.984 . S
H588 N576 0.984 . S
H589 N576 0.985 . S
C590 C591 1.363 . S
C590 C596 1.379 . S
C590 N598 1.356 . S
C591 C590 1.363 . S
C591 C597 1.363 . S
C592 C593 1.363 . S
C592 C597 1.379 . S
C592 N599 1.356 . S
C593 C592 1.363 . S
C593 C596 1.363 . S
N594 C596 1.356 . S
N594 H606 0.984 . S
N594 H607 0.985 . S
N595 C597 1.356 . S
N595 H600 0.984 . S
N595 H601 0.985 . S
C596 C590 1.379 . S
C596 C593 1.363 . S
C596 N594 1.356 . S
C597 C591 1.363 . S
C597 C592 1.379 . S
C597 N595 1.356 . S
N598 C590 1.356 . S
N598 H604 0.984 . S
N598 H605 0.984 . S
N599 C592 1.356 . S
N599 H602 0.984 . S
N599 H603 0.985 . S
H600 N595 0.984 . S
H601 N595 0.985 . S
H602 N599 0.984 . S
H603 N599 0.985 . S
H604 N598 0.984 . S
H605 N598 0.984 . S
H606 N594 0.984 . S
H607 N594 0.985 . S
C177 C9 0.978 . S
C179 C71 0.978 . S
C195 C27 0.978 . S
C197 C49 0.978 . S
C213 C94 0.978 . S
C215 C160 0.978 . S
C231 C116 0.978 . S
C233 C139 0.978 . S
C249 C6 1.886 . S
C251 C97 1.886 . S
C267 C119 1.886 . S
C269 C29 1.886 . S
C285 C137 1.886 . S
C287 C51 1.886 . S
C303 C73 1.886 . S
C305 C163 1.886 . S
C321 C141 1.089 . S
C323 C4 1.107 . S
C339 C159 1.089 . S
C341 C30 1.107 . S
C357 C52 1.107 . S
C359 C93 1.089 . S
C375 C74 1.107 . S
C377 C115 1.089 . S
C393 C50 1.089 . S
C395 C96 1.107 . S
C411 C118 1.107 . S
C413 C72 1.089 . S
C429 C7 1.089 . S
C431 C136 1.107 . S
C447 C162 1.107 . S
C449 C28 1.089 . S
C465 C5 1.590 . S
C467 C26 1.628 . S
C483 C8 1.628 . S
C485 C31 1.590 . S
C501 C70 1.628 . S
C503 C53 1.590 . S
C519 C75 1.590 . S
C521 C48 1.628 . S
C537 C95 1.590 . S
C539 C114 1.628 . S
C555 C92 1.628 . S
C557 C117 1.590 . S
C573 C158 1.628 . S
C575 C138 1.590 . S
C591 C161 1.590 . S
C593 C140 1.628 . S
