# Generated by pormake.
# Topology lta, (4)-cn, num edge types: 1
# Building blocks:
#     Node 0, Type 0, BuildingBlock: TATPOV_clean_sbu_0, # of connection points: 4
#     Node 1, Type 0, BuildingBlock: TATPOV_clean_sbu_0, # of connection points: 4
#     Node 2, Type 0, BuildingBlock: TATPOV_clean_sbu_0, # of connection points: 4
#     Node 3, Type 0, BuildingBlock: TATPOV_clean_sbu_0, # of connection points: 4
#     Node 4, Type 0, BuildingBlock: TATPOV_clean_sbu_0, # of connection points: 4
#     Node 5, Type 0, BuildingBlock: TATPOV_clean_sbu_0, # of connection points: 4
#     Node 6, Type 0, BuildingBlock: TATPOV_clean_sbu_0, # of connection points: 4
#     Node 7, Type 0, BuildingBlock: TATPOV_clean_sbu_0, # of connection points: 4
#     Node 8, Type 0, BuildingBlock: TATPOV_clean_sbu_0, # of connection points: 4
#     Node 9, Type 0, BuildingBlock: TATPOV_clean_sbu_0, # of connection points: 4
#     Node 10, Type 0, BuildingBlock: TATPOV_clean_sbu_0, # of connection points: 4
#     Node 11, Type 0, BuildingBlock: TATPOV_clean_sbu_0, # of connection points: 4
#     Node 12, Type 0, BuildingBlock: TATPOV_clean_sbu_0, # of connection points: 4
#     Node 13, Type 0, BuildingBlock: TATPOV_clean_sbu_0, # of connection points: 4
#     Node 14, Type 0, BuildingBlock: TATPOV_clean_sbu_0, # of connection points: 4
#     Node 15, Type 0, BuildingBlock: TATPOV_clean_sbu_0, # of connection points: 4
#     Node 16, Type 0, BuildingBlock: TATPOV_clean_sbu_0, # of connection points: 4
#     Node 17, Type 0, BuildingBlock: TATPOV_clean_sbu_0, # of connection points: 4
#     Node 18, Type 0, BuildingBlock: TATPOV_clean_sbu_0, # of connection points: 4
#     Node 19, Type 0, BuildingBlock: TATPOV_clean_sbu_0, # of connection points: 4
#     Node 20, Type 0, BuildingBlock: TATPOV_clean_sbu_0, # of connection points: 4
#     Node 21, Type 0, BuildingBlock: TATPOV_clean_sbu_0, # of connection points: 4
#     Node 22, Type 0, BuildingBlock: TATPOV_clean_sbu_0, # of connection points: 4
#     Node 23, Type 0, BuildingBlock: TATPOV_clean_sbu_0, # of connection points: 4
#     Edge 24, Type (0, 0), BuildingBlock: UVAHIK_clean_linker_0, # of connection points: 2
#     Edge 25, Type (0, 0), BuildingBlock: UVAHIK_clean_linker_0, # of connection points: 2
#     Edge 26, Type (0, 0), BuildingBlock: UVAHIK_clean_linker_0, # of connection points: 2
#     Edge 27, Type (0, 0), BuildingBlock: UVAHIK_clean_linker_0, # of connection points: 2
#     Edge 28, Type (0, 0), BuildingBlock: UVAHIK_clean_linker_0, # of connection points: 2
#     Edge 29, Type (0, 0), BuildingBlock: UVAHIK_clean_linker_0, # of connection points: 2
#     Edge 30, Type (0, 0), BuildingBlock: UVAHIK_clean_linker_0, # of connection points: 2
#     Edge 31, Type (0, 0), BuildingBlock: UVAHIK_clean_linker_0, # of connection points: 2
#     Edge 32, Type (0, 0), BuildingBlock: UVAHIK_clean_linker_0, # of connection points: 2
#     Edge 33, Type (0, 0), BuildingBlock: UVAHIK_clean_linker_0, # of connection points: 2
#     Edge 34, Type (0, 0), BuildingBlock: UVAHIK_clean_linker_0, # of connection points: 2
#     Edge 35, Type (0, 0), BuildingBlock: UVAHIK_clean_linker_0, # of connection points: 2
#     Edge 36, Type (0, 0), BuildingBlock: UVAHIK_clean_linker_0, # of connection points: 2
#     Edge 37, Type (0, 0), BuildingBlock: UVAHIK_clean_linker_0, # of connection points: 2
#     Edge 38, Type (0, 0), BuildingBlock: UVAHIK_clean_linker_0, # of connection points: 2
#     Edge 39, Type (0, 0), BuildingBlock: UVAHIK_clean_linker_0, # of connection points: 2
#     Edge 40, Type (0, 0), BuildingBlock: UVAHIK_clean_linker_0, # of connection points: 2
#     Edge 41, Type (0, 0), BuildingBlock: UVAHIK_clean_linker_0, # of connection points: 2
#     Edge 42, Type (0, 0), BuildingBlock: UVAHIK_clean_linker_0, # of connection points: 2
#     Edge 43, Type (0, 0), BuildingBlock: UVAHIK_clean_linker_0, # of connection points: 2
#     Edge 44, Type (0, 0), BuildingBlock: UVAHIK_clean_linker_0, # of connection points: 2
#     Edge 45, Type (0, 0), BuildingBlock: UVAHIK_clean_linker_0, # of connection points: 2
#     Edge 46, Type (0, 0), BuildingBlock: UVAHIK_clean_linker_0, # of connection points: 2
#     Edge 47, Type (0, 0), BuildingBlock: UVAHIK_clean_linker_0, # of connection points: 2
#     Edge 48, Type (0, 0), BuildingBlock: UVAHIK_clean_linker_0, # of connection points: 2
#     Edge 49, Type (0, 0), BuildingBlock: UVAHIK_clean_linker_0, # of connection points: 2
#     Edge 50, Type (0, 0), BuildingBlock: UVAHIK_clean_linker_0, # of connection points: 2
#     Edge 51, Type (0, 0), BuildingBlock: UVAHIK_clean_linker_0, # of connection points: 2
#     Edge 52, Type (0, 0), BuildingBlock: UVAHIK_clean_linker_0, # of connection points: 2
#     Edge 53, Type (0, 0), BuildingBlock: UVAHIK_clean_linker_0, # of connection points: 2
#     Edge 54, Type (0, 0), BuildingBlock: UVAHIK_clean_linker_0, # of connection points: 2
#     Edge 55, Type (0, 0), BuildingBlock: UVAHIK_clean_linker_0, # of connection points: 2
#     Edge 56, Type (0, 0), BuildingBlock: UVAHIK_clean_linker_0, # of connection points: 2
#     Edge 57, Type (0, 0), BuildingBlock: UVAHIK_clean_linker_0, # of connection points: 2
#     Edge 58, Type (0, 0), BuildingBlock: UVAHIK_clean_linker_0, # of connection points: 2
#     Edge 59, Type (0, 0), BuildingBlock: UVAHIK_clean_linker_0, # of connection points: 2
#     Edge 60, Type (0, 0), BuildingBlock: UVAHIK_clean_linker_0, # of connection points: 2
#     Edge 61, Type (0, 0), BuildingBlock: UVAHIK_clean_linker_0, # of connection points: 2
#     Edge 62, Type (0, 0), BuildingBlock: UVAHIK_clean_linker_0, # of connection points: 2
#     Edge 63, Type (0, 0), BuildingBlock: UVAHIK_clean_linker_0, # of connection points: 2
#     Edge 64, Type (0, 0), BuildingBlock: UVAHIK_clean_linker_0, # of connection points: 2
#     Edge 65, Type (0, 0), BuildingBlock: UVAHIK_clean_linker_0, # of connection points: 2
#     Edge 66, Type (0, 0), BuildingBlock: UVAHIK_clean_linker_0, # of connection points: 2
#     Edge 67, Type (0, 0), BuildingBlock: UVAHIK_clean_linker_0, # of connection points: 2
#     Edge 68, Type (0, 0), BuildingBlock: UVAHIK_clean_linker_0, # of connection points: 2
#     Edge 69, Type (0, 0), BuildingBlock: UVAHIK_clean_linker_0, # of connection points: 2
#     Edge 70, Type (0, 0), BuildingBlock: UVAHIK_clean_linker_0, # of connection points: 2
#     Edge 71, Type (0, 0), BuildingBlock: UVAHIK_clean_linker_0, # of connection points: 2
# Relax obj value: 0.190
# Max RMSD: 0.074
# Mean RMSD: 0.074
data_MOF--net-lta--node1-TATPOV_clean_sbu_0--edge1-UVAHIK_clean_linker_0
_symmetry_space_group_name_H-M    P1
_symmetry_Int_Tables_number       1
_symmetry_cell_setting            triclinic
loop_
_symmetry_equiv_pos_as_xyz
'x, y, z'
_cell_length_a     72.495577
_cell_length_b     72.452301
_cell_length_c     72.476966
_cell_angle_alpha  89.963372
_cell_angle_beta   90.005807
_cell_angle_gamma 89.937146
loop_
_atom_site_label
_atom_site_type_symbol
_atom_site_fract_x
_atom_site_fract_y
_atom_site_fract_z
_atom_type_partial_charge
Zn0 Zn 0.07669 0.32322 0.50663 0.0
Zn1 Zn 0.109 0.30756 0.51153 0.0
O2 O 0.11132 0.31971 0.48576 0.0
O3 O 0.08287 0.32882 0.48016 0.0
O4 O 0.13342 0.29472 0.51495 0.0
O5 O 0.08216 0.34114 0.52697 0.0
O6 O 0.10806 0.32645 0.53298 0.0
C7 C 0.09938 0.32671 0.47492 0.0
C8 C 0.07301 0.28524 0.51455 0.0
O9 O 0.09055 0.28561 0.51345 0.0
O10 O 0.0637 0.29991 0.51295 0.0
C11 C 0.14072 0.2864 0.50134 0.0
O12 O 0.13229 0.2867 0.48529 0.0
C13 C 0.09645 0.33912 0.53681 0.0
Zn14 Zn 0.66639 0.08341 0.48823 0.0
Zn15 Zn 0.6874 0.11294 0.49511 0.0
O16 O 0.67473 0.11882 0.47013 0.0
O17 O 0.65915 0.0936 0.46357 0.0
O18 O 0.70374 0.13494 0.49885 0.0
O19 O 0.65145 0.09017 0.51096 0.0
O20 O 0.66973 0.11363 0.51719 0.0
C21 C 0.66438 0.10968 0.45925 0.0
C22 C 0.70448 0.07415 0.49285 0.0
O23 O 0.70615 0.09143 0.4955 0.0
O24 O 0.68884 0.06717 0.48952 0.0
C25 C 0.71352 0.14035 0.48535 0.0
O26 O 0.7125 0.13146 0.46959 0.0
C27 C 0.65581 0.10368 0.52117 0.0
Zn28 Zn 0.91509 0.66324 0.5097 0.0
Zn29 Zn 0.88456 0.68256 0.51385 0.0
O30 O 0.88035 0.6695 0.48891 0.0
O31 O 0.90705 0.65583 0.48417 0.0
O32 O 0.86161 0.69787 0.51686 0.0
O33 O 0.90882 0.64795 0.53177 0.0
O34 O 0.88417 0.66506 0.53655 0.0
C35 C 0.89097 0.65992 0.4787 0.0
C36 C 0.92262 0.70134 0.51405 0.0
O37 O 0.90509 0.70258 0.51356 0.0
O38 O 0.93043 0.68575 0.51338 0.0
C39 C 0.85562 0.70688 0.50306 0.0
O40 O 0.86449 0.70577 0.48729 0.0
C41 C 0.89482 0.65191 0.54142 0.0
Zn42 Zn 0.33002 0.91955 0.50771 0.0
Zn43 Zn 0.30947 0.88902 0.50871 0.0
O44 O 0.32414 0.88574 0.48472 0.0
O45 O 0.33961 0.91177 0.48256 0.0
O46 O 0.29319 0.86668 0.50902 0.0
O47 O 0.3426 0.91125 0.53104 0.0
O48 O 0.32518 0.88637 0.53233 0.0
C49 C 0.33525 0.89617 0.47598 0.0
C50 C 0.29169 0.92773 0.50984 0.0
O51 O 0.29031 0.91025 0.5087 0.0
O52 O 0.30738 0.93533 0.51014 0.0
C53 C 0.28034 0.86589 0.49712 0.0
O54 O 0.27859 0.87939 0.48513 0.0
C55 C 0.33782 0.89651 0.53914 0.0
Zn56 Zn 0.09929 0.6654 0.47789 0.0
Zn57 Zn 0.1257 0.69033 0.47988 0.0
O58 O 0.13042 0.67419 0.50279 0.0
O59 O 0.1112 0.65107 0.49864 0.0
O60 O 0.14588 0.70908 0.48155 0.0
O61 O 0.10629 0.66004 0.45147 0.0
O62 O 0.13085 0.67749 0.45503 0.0
C63 C 0.12401 0.65861 0.50781 0.0
C64 C 0.08541 0.70188 0.48401 0.0
O65 O 0.10217 0.70635 0.4814 0.0
O66 O 0.08064 0.68508 0.48415 0.0
C67 C 0.14573 0.72061 0.49474 0.0
O68 O 0.13235 0.7199 0.50695 0.0
C69 C 0.12136 0.66635 0.44531 0.0
Zn70 Zn 0.3174 0.08936 0.47852 0.0
Zn71 Zn 0.30103 0.12113 0.48685 0.0
O72 O 0.31876 0.11827 0.50885 0.0
O73 O 0.33154 0.09141 0.50257 0.0
O74 O 0.28776 0.14504 0.49126 0.0
O75 O 0.32741 0.09984 0.45502 0.0
O76 O 0.3139 0.12619 0.46183 0.0
C77 C 0.3298 0.10525 0.51313 0.0
C78 C 0.27865 0.08525 0.48269 0.0
O79 O 0.27956 0.10223 0.48713 0.0
O80 O 0.29298 0.07652 0.47793 0.0
C81 C 0.28243 0.15063 0.50699 0.0
O82 O 0.28608 0.14064 0.52168 0.0
C83 C 0.32371 0.11642 0.45098 0.0
Zn84 Zn 0.90472 0.33162 0.49642 0.0
Zn85 Zn 0.87689 0.30894 0.49096 0.0
O86 O 0.86885 0.3243 0.51358 0.0
O87 O 0.89018 0.3458 0.51535 0.0
O88 O 0.8557 0.29147 0.48779 0.0
O89 O 0.90346 0.3392 0.46966 0.0
O90 O 0.87772 0.32344 0.46645 0.0
C91 C 0.87518 0.3389 0.52102 0.0
C92 C 0.91479 0.29383 0.50168 0.0
O93 O 0.89865 0.29109 0.49535 0.0
O94 O 0.92047 0.3101 0.50451 0.0
C95 C 0.8496 0.28329 0.50205 0.0
O96 O 0.85729 0.28665 0.51812 0.0
C97 C 0.88976 0.33446 0.45992 0.0
Zn98 Zn 0.67529 0.9066 0.48954 0.0
Zn99 Zn 0.69484 0.87574 0.49307 0.0
O100 O 0.67831 0.87499 0.51616 0.0
O101 O 0.66332 0.90135 0.51414 0.0
O102 O 0.71 0.8526 0.49487 0.0
O103 O 0.66443 0.89751 0.46585 0.0
O104 O 0.68097 0.87212 0.46833 0.0
C105 C 0.66681 0.88653 0.52276 0.0
C106 C 0.71393 0.91354 0.49087 0.0
O107 O 0.71488 0.89619 0.49355 0.0
O108 O 0.69853 0.92132 0.48827 0.0
C109 C 0.71599 0.84644 0.51017 0.0
O110 O 0.71196 0.85527 0.52547 0.0
C111 C 0.66945 0.88205 0.45947 0.0
Zn112 Zn 0.49289 0.09932 0.33258 0.0
Zn113 Zn 0.49632 0.12563 0.30708 0.0
O114 O 0.47127 0.13157 0.31964 0.0
O115 O 0.46769 0.10844 0.33907 0.0
O116 O 0.4985 0.14551 0.2879 0.0
O117 O 0.51533 0.10945 0.34555 0.0
O118 O 0.5192 0.12988 0.32338 0.0
C119 C 0.46165 0.12304 0.33163 0.0
C120 C 0.49594 0.08475 0.29602 0.0
O121 O 0.49671 0.10172 0.29148 0.0
O122 O 0.49467 0.08007 0.31279 0.0
C123 C 0.48449 0.15037 0.27852 0.0
O124 O 0.46861 0.14217 0.28147 0.0
C125 C 0.52446 0.12256 0.33848 0.0
Zn126 Zn 0.91339 0.51027 0.32732 0.0
Zn127 Zn 0.88247 0.50874 0.3079 0.0
O128 O 0.88177 0.48392 0.32188 0.0
O129 O 0.9083 0.48454 0.33666 0.0
O130 O 0.85917 0.50928 0.29293 0.0
O131 O 0.90466 0.53262 0.3409 0.0
O132 O 0.87919 0.53189 0.32438 0.0
C133 C 0.89351 0.47623 0.3325 0.0
C134 C 0.92002 0.51302 0.28873 0.0
O135 O 0.9027 0.51028 0.28767 0.0
O136 O 0.92789 0.51411 0.30425 0.0
C137 C 0.85137 0.49506 0.28631 0.0
O138 O 0.85852 0.47869 0.28947 0.0
C139 C 0.88919 0.5395 0.33668 0.0
Zn140 Zn 0.5002 0.90158 0.33589 0.0
Zn141 Zn 0.49781 0.87449 0.31257 0.0
O142 O 0.52304 0.86996 0.32511 0.0
O143 O 0.52703 0.896 0.34017 0.0
O144 O 0.49589 0.85373 0.29427 0.0
O145 O 0.48097 0.88996 0.35207 0.0
O146 O 0.47506 0.87053 0.3295 0.0
C147 C 0.53315 0.88054 0.33483 0.0
C148 C 0.49353 0.91439 0.29956 0.0
O149 O 0.49676 0.89755 0.29573 0.0
O150 O 0.49266 0.91962 0.31619 0.0
C151 C 0.50997 0.84814 0.28543 0.0
O152 O 0.52602 0.85596 0.28848 0.0
C153 C 0.47118 0.8772 0.34531 0.0
Zn154 Zn 0.09345 0.49993 0.33303 0.0
Zn155 Zn 0.11967 0.49005 0.31015 0.0
O156 O 0.12989 0.51373 0.32261 0.0
O157 O 0.10956 0.51916 0.34452 0.0
O158 O 0.13986 0.48369 0.29233 0.0
O159 O 0.09344 0.4744 0.34384 0.0
O160 O 0.11762 0.46711 0.32701 0.0
C161 C 0.12458 0.52302 0.33656 0.0
C162 C 0.08185 0.50159 0.29543 0.0
O163 O 0.09746 0.49399 0.29278 0.0
O164 O 0.0771 0.50654 0.31149 0.0
C165 C 0.14389 0.49617 0.2807 0.0
O166 O 0.13484 0.51189 0.28122 0.0
C167 C 0.10589 0.46295 0.33945 0.0
Zn168 Zn 0.50882 0.91198 0.67698 0.0
Zn169 Zn 0.50887 0.8797 0.69379 0.0
O170 O 0.48456 0.87842 0.67903 0.0
O171 O 0.48351 0.90629 0.66696 0.0
O172 O 0.51021 0.85548 0.70725 0.0
O173 O 0.53154 0.90557 0.66281 0.0
O174 O 0.5325 0.87904 0.67758 0.0
C175 C 0.47623 0.8906 0.66944 0.0
C176 C 0.51032 0.91599 0.71584 0.0
O177 O 0.50841 0.89852 0.71545 0.0
O178 O 0.51163 0.92509 0.70102 0.0
C179 C 0.49602 0.84792 0.71423 0.0
O180 O 0.47987 0.85591 0.71223 0.0
C181 C 0.53942 0.89031 0.66597 0.0
Zn182 Zn 0.08024 0.52457 0.66986 0.0
Zn183 Zn 0.11179 0.5185 0.68789 0.0
O184 O 0.11048 0.49531 0.67187 0.0
O185 O 0.08374 0.49928 0.65801 0.0
O186 O 0.13514 0.51553 0.70246 0.0
O187 O 0.0908 0.54727 0.65802 0.0
O188 O 0.11684 0.54219 0.67281 0.0
C189 C 0.09804 0.48958 0.66089 0.0
C190 C 0.07488 0.52329 0.70863 0.0
O191 O 0.09196 0.51912 0.70844 0.0
O192 O 0.06651 0.52703 0.69379 0.0
C193 C 0.14034 0.50003 0.70882 0.0
O194 O 0.13037 0.48527 0.7055 0.0
C195 C 0.10724 0.55184 0.66165 0.0
Zn196 Zn 0.49429 0.07238 0.6685 0.0
Zn197 Zn 0.49008 0.10516 0.68496 0.0
O198 O 0.51418 0.10824 0.66991 0.0
O199 O 0.51816 0.08088 0.65727 0.0
O200 O 0.48749 0.12931 0.69842 0.0
O201 O 0.47003 0.07672 0.65536 0.0
O202 O 0.4669 0.10388 0.66862 0.0
C203 C 0.52362 0.09725 0.65991 0.0
C204 C 0.49331 0.06917 0.70759 0.0
O205 O 0.49099 0.08658 0.70676 0.0
O206 O 0.4952 0.05976 0.69303 0.0
C207 C 0.50168 0.13686 0.70541 0.0
O208 O 0.51786 0.12896 0.70319 0.0
C209 C 0.46096 0.09151 0.65762 0.0
Zn210 Zn 0.90921 0.47089 0.67597 0.0
Zn211 Zn 0.8794 0.47746 0.6963 0.0
O212 O 0.8793 0.5004 0.67986 0.0
O213 O 0.9048 0.49595 0.66396 0.0
O214 O 0.85737 0.48041 0.71274 0.0
O215 O 0.89791 0.4479 0.66558 0.0
O216 O 0.87308 0.45351 0.68214 0.0
C217 C 0.89086 0.50582 0.66781 0.0
C218 C 0.91803 0.47317 0.71398 0.0
O219 O 0.90097 0.47729 0.71511 0.0
O220 O 0.92502 0.46894 0.69856 0.0
C221 C 0.85138 0.49583 0.71857 0.0
O222 O 0.85966 0.51113 0.71349 0.0
C223 C 0.88179 0.44352 0.67059 0.0
Zn224 Zn 0.32543 0.51492 0.08425 0.0
Zn225 Zn 0.30558 0.50569 0.1137 0.0
O226 O 0.32283 0.48326 0.11197 0.0
O227 O 0.33846 0.49025 0.08687 0.0
O228 O 0.28909 0.50105 0.13542 0.0
O229 O 0.33476 0.53762 0.09688 0.0
O230 O 0.31858 0.52996 0.12144 0.0
C231 C 0.33503 0.47919 0.09999 0.0
C232 C 0.28735 0.51236 0.07572 0.0
O233 O 0.28644 0.5071 0.09248 0.0
O234 O 0.30264 0.51713 0.06882 0.0
C235 C 0.28593 0.48576 0.14341 0.0
O236 O 0.29443 0.47076 0.1378 0.0
C237 C 0.32954 0.54096 0.1132 0.0
Zn238 Zn 0.3229 0.49135 0.90865 0.0
Zn239 Zn 0.30292 0.48906 0.8777 0.0
O240 O 0.31837 0.51271 0.87365 0.0
O241 O 0.33472 0.51461 0.89919 0.0
O242 O 0.28758 0.48738 0.85472 0.0
O243 O 0.33362 0.46619 0.9032 0.0
O244 O 0.31792 0.46495 0.87722 0.0
C245 C 0.33021 0.52105 0.88359 0.0
C246 C 0.28415 0.49288 0.91556 0.0
O247 O 0.283 0.49079 0.89815 0.0
O248 O 0.2997 0.49375 0.92342 0.0
C249 C 0.28024 0.5018 0.84796 0.0
O250 O 0.28301 0.51777 0.85606 0.0
C251 C 0.32933 0.45776 0.88851 0.0
Zn252 Zn 0.50325 0.32686 0.89693 0.0
Zn253 Zn 0.50145 0.30627 0.86778 0.0
O254 O 0.47594 0.31908 0.86764 0.0
O255 O 0.47609 0.33215 0.89503 0.0
O256 O 0.50117 0.28996 0.84538 0.0
O257 O 0.52122 0.34398 0.88483 0.0
O258 O 0.52363 0.3236 0.86246 0.0
C259 C 0.46768 0.32813 0.88026 0.0
C260 C 0.51018 0.28943 0.90553 0.0
O261 O 0.50479 0.28734 0.88893 0.0
O262 O 0.5123 0.30545 0.9121 0.0
C263 C 0.48692 0.28112 0.84029 0.0
O264 O 0.47154 0.28291 0.8497 0.0
C265 C 0.52884 0.33856 0.8701 0.0
Zn266 Zn 0.66891 0.49245 0.91866 0.0
Zn267 Zn 0.68813 0.50018 0.88815 0.0
O268 O 0.67401 0.47622 0.88171 0.0
O269 O 0.65844 0.46962 0.90693 0.0
O270 O 0.70369 0.50419 0.86559 0.0
O271 O 0.65632 0.51732 0.9154 0.0
O272 O 0.67141 0.52295 0.88962 0.0
C273 C 0.66297 0.46575 0.89052 0.0
C274 C 0.70755 0.494 0.92551 0.0
O275 O 0.70806 0.49868 0.90858 0.0
O276 O 0.69237 0.49008 0.93315 0.0
C277 C 0.71297 0.49032 0.86018 0.0
O278 O 0.71157 0.47471 0.86932 0.0
C279 C 0.65953 0.52771 0.90167 0.0
Zn280 Zn 0.48099 0.66902 0.91261 0.0
Zn281 Zn 0.48723 0.68626 0.88113 0.0
O282 O 0.51035 0.66978 0.88293 0.0
O283 O 0.50575 0.65649 0.90986 0.0
O284 O 0.49001 0.70023 0.85735 0.0
O285 O 0.458 0.65746 0.90292 0.0
O286 O 0.46282 0.67189 0.87663 0.0
C287 C 0.51571 0.65893 0.8957 0.0
C288 C 0.48271 0.70778 0.91753 0.0
O289 O 0.48686 0.70747 0.90045 0.0
O290 O 0.4789 0.693 0.92597 0.0
C291 C 0.50529 0.7063 0.85128 0.0
O292 O 0.52049 0.70297 0.86058 0.0
C293 C 0.45306 0.66117 0.8866 0.0
Zn294 Zn 0.67551 0.4861 0.08489 0.0
Zn295 Zn 0.69185 0.49123 0.11702 0.0
O296 O 0.67498 0.5141 0.1158 0.0
O297 O 0.66374 0.51127 0.08768 0.0
O298 O 0.70527 0.49334 0.1411 0.0
O299 O 0.66317 0.46314 0.09408 0.0
O300 O 0.67767 0.4667 0.12053 0.0
C301 C 0.66516 0.52029 0.10259 0.0
C302 C 0.71433 0.48717 0.08113 0.0
O303 O 0.71356 0.49129 0.0982 0.0
O304 O 0.69978 0.48349 0.07227 0.0
C305 C 0.71192 0.50835 0.1472 0.0
O306 O 0.7095 0.52364 0.13774 0.0
C307 C 0.66683 0.4575 0.11019 0.0
Zn308 Zn 0.48584 0.66595 0.08587 0.0
Zn309 Zn 0.49628 0.68595 0.11482 0.0
O310 O 0.47133 0.67419 0.12274 0.0
O311 O 0.46195 0.65943 0.09791 0.0
O312 O 0.50211 0.70222 0.13651 0.0
O313 O 0.50852 0.65018 0.09006 0.0
O314 O 0.51777 0.66742 0.11331 0.0
C315 C 0.45926 0.66454 0.11436 0.0
C316 C 0.49113 0.70371 0.07647 0.0
O317 O 0.49558 0.70496 0.09342 0.0
O318 O 0.48637 0.68835 0.06969 0.0
C319 C 0.48914 0.71282 0.14176 0.0
O320 O 0.47332 0.71235 0.13294 0.0
C321 C 0.5202 0.65369 0.10259 0.0
Zn322 Zn 0.50321 0.32915 0.07457 0.0
Zn323 Zn 0.49635 0.30881 0.10433 0.0
O324 O 0.52045 0.32261 0.1111 0.0
O325 O 0.52596 0.33939 0.08637 0.0
O326 O 0.49185 0.29297 0.12662 0.0
O327 O 0.47844 0.34149 0.07771 0.0
O328 O 0.4733 0.32545 0.103 0.0
C329 C 0.53049 0.33411 0.10239 0.0
C330 C 0.50315 0.29065 0.06657 0.0
O331 O 0.49874 0.28926 0.08353 0.0
O332 O 0.50603 0.3063 0.05941 0.0
C333 C 0.50533 0.28404 0.13345 0.0
O334 O 0.52169 0.2856 0.12582 0.0
C335 C 0.46822 0.33762 0.09135 0.0
C336 C 0.09398 0.44127 0.36333 0.0
C337 C 0.10685 0.44508 0.34935 0.0
C338 C 0.09491 0.4249 0.37332 0.0
C339 C 0.12643 0.38791 0.38767 0.0
H340 H 0.08037 0.36637 0.40408 0.0
C341 C 0.09302 0.33028 0.44147 0.0
C342 C 0.10466 0.33352 0.45656 0.0
C343 C 0.09588 0.33948 0.42481 0.0
C344 C 0.09347 0.37176 0.39939 0.0
H345 H 0.13079 0.4345 0.33482 0.0
H346 H 0.13228 0.40553 0.3523 0.0
H347 H 0.07994 0.39042 0.38106 0.0
H348 H 0.12898 0.34797 0.46597 0.0
H349 H 0.13341 0.36501 0.43726 0.0
H350 H 0.13998 0.36902 0.40596 0.0
C351 C 0.12156 0.41543 0.35555 0.0
C352 C 0.09316 0.38587 0.38634 0.0
C353 C 0.12065 0.43196 0.34549 0.0
C354 C 0.11989 0.34523 0.45443 0.0
C355 C 0.12244 0.35491 0.4379 0.0
C356 C 0.12678 0.37355 0.40062 0.0
C357 C 0.10865 0.41174 0.36957 0.0
C358 C 0.10954 0.39462 0.38086 0.0
C359 C 0.11001 0.35269 0.4231 0.0
C360 C 0.11023 0.36569 0.40711 0.0
H361 H 0.08323 0.45106 0.3668 0.0
H362 H 0.08501 0.42275 0.3843 0.0
H363 H 0.13931 0.39435 0.38371 0.0
H364 H 0.08131 0.32109 0.44278 0.0
H365 H 0.08642 0.33684 0.41355 0.0
C366 C 0.65409 0.13708 0.44074 0.0
C367 C 0.65727 0.11799 0.44207 0.0
C368 C 0.64402 0.14426 0.42586 0.0
C369 C 0.60774 0.14858 0.40478 0.0
H370 H 0.60804 0.1278 0.35547 0.0
C371 C 0.54305 0.12635 0.36708 0.0
C372 C 0.54119 0.12921 0.34802 0.0
C373 C 0.55917 0.13143 0.3762 0.0
C374 C 0.60794 0.13412 0.36901 0.0
H375 H 0.65403 0.09172 0.42817 0.0
H376 H 0.63676 0.10416 0.40228 0.0
H377 H 0.63546 0.12504 0.37492 0.0
H378 H 0.55456 0.14007 0.32357 0.0
H379 H 0.58326 0.14848 0.33956 0.0
H380 H 0.57981 0.15653 0.39933 0.0
C381 C 0.64188 0.11365 0.41263 0.0
C382 C 0.62358 0.13244 0.38018 0.0
C383 C 0.65162 0.10647 0.42757 0.0
C384 C 0.55565 0.13773 0.33829 0.0
C385 C 0.57202 0.14251 0.3474 0.0
C386 C 0.59209 0.15013 0.39367 0.0
C387 C 0.63733 0.13249 0.41196 0.0
C388 C 0.6233 0.13886 0.39849 0.0
C389 C 0.57394 0.13926 0.36643 0.0
C390 C 0.59175 0.14212 0.37603 0.0
H391 H 0.65831 0.14627 0.45174 0.0
H392 H 0.64076 0.15885 0.42564 0.0
H393 H 0.60705 0.1536 0.41884 0.0
H394 H 0.5321 0.11993 0.37497 0.0
H395 H 0.56036 0.12848 0.39081 0.0
C396 C 0.89799 0.64902 0.44695 0.0
C397 C 0.88479 0.65341 0.46042 0.0
C398 C 0.89262 0.64164 0.43007 0.0
C399 C 0.85851 0.61176 0.41041 0.0
H400 H 0.88493 0.62357 0.3654 0.0
C401 C 0.8645 0.56043 0.34927 0.0
C402 C 0.88323 0.5566 0.34597 0.0
C403 C 0.85942 0.5759 0.35976 0.0
C404 C 0.87719 0.62026 0.37775 0.0
H405 H 0.85554 0.65403 0.46661 0.0
H406 H 0.84611 0.64044 0.43699 0.0
H407 H 0.88539 0.64524 0.39117 0.0
H408 H 0.91119 0.56637 0.35001 0.0
H409 H 0.9024 0.59329 0.36787 0.0
H410 H 0.85145 0.58615 0.39742 0.0
C411 C 0.86061 0.64299 0.43956 0.0
C412 C 0.87746 0.63264 0.39248 0.0
C413 C 0.86599 0.65075 0.45644 0.0
C414 C 0.89666 0.56891 0.35246 0.0
C415 C 0.89161 0.58445 0.36253 0.0
C416 C 0.85824 0.59934 0.39563 0.0
C417 C 0.87393 0.63823 0.42629 0.0
C418 C 0.869 0.62803 0.40929 0.0
C419 C 0.873 0.58795 0.3666 0.0
C420 C 0.86845 0.60306 0.37957 0.0
H421 H 0.91256 0.65103 0.44956 0.0
H422 H 0.90323 0.63783 0.42025 0.0
H423 H 0.85191 0.60785 0.42323 0.0
H424 H 0.85389 0.55111 0.34441 0.0
H425 H 0.84499 0.57828 0.36279 0.0
C426 C 0.35248 0.90257 0.44681 0.0
C427 C 0.34387 0.88982 0.4586 0.0
C428 C 0.3622 0.89656 0.43132 0.0
C429 C 0.37671 0.88036 0.39541 0.0
H430 H 0.41522 0.8453 0.40784 0.0
C431 C 0.43832 0.86647 0.34677 0.0
C432 C 0.45491 0.87091 0.35575 0.0
C433 C 0.42217 0.86365 0.35703 0.0
C434 C 0.40435 0.85484 0.40405 0.0
H435 H 0.33811 0.86077 0.46299 0.0
H436 H 0.35555 0.85022 0.43603 0.0
H437 H 0.39017 0.85099 0.42966 0.0
H438 H 0.46801 0.87458 0.38236 0.0
H439 H 0.4401 0.86919 0.40021 0.0
H440 H 0.39147 0.88495 0.37022 0.0
C441 C 0.35461 0.86488 0.43879 0.0
C442 C 0.38997 0.85804 0.41648 0.0
C443 C 0.34462 0.87093 0.45417 0.0
C444 C 0.45538 0.87124 0.37511 0.0
C445 C 0.43942 0.86803 0.38532 0.0
C446 C 0.39098 0.87701 0.38287 0.0
C447 C 0.36374 0.87763 0.42739 0.0
C448 C 0.37644 0.87139 0.41261 0.0
C449 C 0.42255 0.86476 0.3764 0.0
C450 C 0.40534 0.86479 0.38743 0.0
H451 H 0.35207 0.91722 0.44978 0.0
H452 H 0.36927 0.9067 0.42292 0.0
H453 H 0.36635 0.89061 0.39203 0.0
H454 H 0.43761 0.86624 0.33184 0.0
H455 H 0.40931 0.86116 0.34985 0.0
C456 C 0.13448 0.56795 0.64769 0.0
C457 C 0.1155 0.56752 0.65161 0.0
C458 C 0.14156 0.58098 0.6353 0.0
C459 C 0.13038 0.62395 0.60959 0.0
H460 H 0.1542 0.59966 0.56829 0.0
C461 C 0.12751 0.63072 0.52768 0.0
C462 C 0.13064 0.64964 0.52489 0.0
C463 C 0.13179 0.62247 0.54453 0.0
C464 C 0.14782 0.60671 0.57982 0.0
H465 H 0.08933 0.58124 0.64689 0.0
H466 H 0.10165 0.60402 0.62556 0.0
H467 H 0.15017 0.58303 0.59731 0.0
H468 H 0.14141 0.67463 0.53731 0.0
H469 H 0.14854 0.66018 0.56708 0.0
H470 H 0.12699 0.64723 0.5917 0.0
C471 C 0.1111 0.59432 0.63192 0.0
C472 C 0.14565 0.59726 0.59648 0.0
C473 C 0.104 0.58117 0.64403 0.0
C474 C 0.13886 0.66 0.53907 0.0
C475 C 0.14289 0.65178 0.5561 0.0
C476 C 0.13268 0.63346 0.59297 0.0
C477 C 0.12981 0.59398 0.62692 0.0
C478 C 0.13618 0.6055 0.61126 0.0
C479 C 0.13909 0.63299 0.55907 0.0
C480 C 0.14069 0.62463 0.57768 0.0
H481 H 0.14365 0.55756 0.65332 0.0
H482 H 0.15606 0.58046 0.63172 0.0
H483 H 0.12316 0.63067 0.62082 0.0
H484 H 0.12128 0.62235 0.51698 0.0
H485 H 0.12848 0.60802 0.54647 0.0
C486 C 0.34976 0.08998 0.53672 0.0
C487 C 0.34047 0.10587 0.53056 0.0
C488 C 0.35988 0.09025 0.55307 0.0
C489 C 0.38553 0.12058 0.58373 0.0
H490 H 0.38351 0.07831 0.61654 0.0
C491 C 0.43553 0.11203 0.64574 0.0
C492 C 0.44393 0.09455 0.64671 0.0
C493 C 0.42035 0.115 0.63413 0.0
C494 C 0.38425 0.09021 0.60752 0.0
H495 H 0.33453 0.13455 0.5368 0.0
H496 H 0.3526 0.13506 0.56543 0.0
H497 H 0.36159 0.08077 0.59114 0.0
H498 H 0.44255 0.06634 0.63673 0.0
H499 H 0.41633 0.0715 0.6166 0.0
H500 H 0.4087 0.12964 0.59969 0.0
C501 C 0.35189 0.1224 0.55752 0.0
C502 C 0.37169 0.09163 0.593 0.0
C503 C 0.34154 0.12208 0.54118 0.0
C504 C 0.43646 0.08 0.63631 0.0
C505 C 0.4213 0.08292 0.62485 0.0
C506 C 0.39818 0.11913 0.59826 0.0
C507 C 0.36111 0.10644 0.56364 0.0
C508 C 0.37255 0.10653 0.58062 0.0
C509 C 0.41318 0.10049 0.62343 0.0
C510 C 0.39803 0.10362 0.60996 0.0
H511 H 0.34922 0.07724 0.52893 0.0
H512 H 0.36706 0.07782 0.55726 0.0
H513 H 0.38657 0.13217 0.57435 0.0
H514 H 0.44095 0.12354 0.65358 0.0
H515 H 0.41431 0.12866 0.63342 0.0
C516 C 0.88372 0.4131 0.65487 0.0
C517 C 0.87282 0.4276 0.66165 0.0
C518 C 0.87611 0.39976 0.64333 0.0
C519 C 0.84268 0.39801 0.60713 0.0
H520 H 0.86035 0.34762 0.6031 0.0
C521 C 0.85524 0.33675 0.54922 0.0
C522 C 0.86574 0.34744 0.5369 0.0
C523 C 0.84871 0.34449 0.56569 0.0
C524 C 0.85484 0.36149 0.60414 0.0
H525 H 0.84515 0.43889 0.66274 0.0
H526 H 0.83185 0.41567 0.64202 0.0
H527 H 0.86248 0.36372 0.63261 0.0
H528 H 0.87648 0.3748 0.5314 0.0
H529 H 0.8649 0.38831 0.55982 0.0
H530 H 0.83631 0.39622 0.57833 0.0
C531 C 0.84625 0.4146 0.64583 0.0
C532 C 0.85618 0.37074 0.621 0.0
C533 C 0.85384 0.42782 0.65771 0.0
C534 C 0.86853 0.36622 0.5407 0.0
C535 C 0.86174 0.374 0.55691 0.0
C536 C 0.84148 0.38881 0.59025 0.0
C537 C 0.85748 0.40078 0.63808 0.0
C538 C 0.85099 0.38938 0.6224 0.0
C539 C 0.85223 0.36311 0.56983 0.0
C540 C 0.84842 0.3708 0.58838 0.0
H541 H 0.89837 0.41257 0.6578 0.0
H542 H 0.88518 0.38944 0.63744 0.0
H543 H 0.83863 0.41239 0.60775 0.0
H544 H 0.85292 0.32222 0.54661 0.0
H545 H 0.84144 0.33581 0.57544 0.0
C546 C 0.56674 0.90031 0.64782 0.0
C547 C 0.55662 0.88592 0.65593 0.0
C548 C 0.58225 0.89656 0.63716 0.0
C549 C 0.60141 0.86185 0.60682 0.0
H550 H 0.64292 0.89559 0.6068 0.0
C551 C 0.65645 0.86514 0.54808 0.0
C552 C 0.65766 0.88304 0.54064 0.0
C553 C 0.64715 0.8621 0.56477 0.0
C554 C 0.63153 0.88592 0.60675 0.0
H555 H 0.55511 0.85626 0.65961 0.0
H556 H 0.58235 0.84962 0.6405 0.0
H557 H 0.62115 0.896 0.63246 0.0
H558 H 0.65058 0.9118 0.54509 0.0
H559 H 0.63472 0.90655 0.57414 0.0
H560 H 0.61144 0.8524 0.58061 0.0
C561 C 0.57818 0.86383 0.64258 0.0
C562 C 0.61907 0.88616 0.6214 0.0
C563 C 0.56267 0.86763 0.65353 0.0
C564 C 0.64981 0.89784 0.55039 0.0
C565 C 0.64086 0.89486 0.56712 0.0
C566 C 0.61397 0.86155 0.59215 0.0
C567 C 0.58803 0.8783 0.63419 0.0
C568 C 0.60341 0.87475 0.62117 0.0
C569 C 0.63933 0.87699 0.57444 0.0
C570 C 0.62866 0.87418 0.59163 0.0
H571 H 0.56251 0.91456 0.64947 0.0
H572 H 0.58932 0.90801 0.63065 0.0
H573 H 0.58943 0.85294 0.60623 0.0
H574 H 0.66236 0.85347 0.54085 0.0
H575 H 0.64609 0.84819 0.57014 0.0
C576 C 0.33608 0.11236 0.41927 0.0
C577 C 0.33135 0.12425 0.43379 0.0
C578 C 0.34528 0.11902 0.40379 0.0
C579 C 0.37908 0.15328 0.39182 0.0
H580 H 0.37332 0.13069 0.34366 0.0
C581 C 0.4394 0.14832 0.33985 0.0
C582 C 0.44312 0.12954 0.33679 0.0
C583 C 0.4224 0.15375 0.34737 0.0
C584 C 0.37495 0.13744 0.3569 0.0
H585 H 0.33178 0.15265 0.44318 0.0
H586 H 0.34842 0.16434 0.41605 0.0
H587 H 0.34794 0.12953 0.36577 0.0
H588 H 0.43182 0.1019 0.33783 0.0
H589 H 0.4022 0.11131 0.35038 0.0
H590 H 0.40658 0.16001 0.38336 0.0
C591 C 0.3448 0.14985 0.41669 0.0
C592 C 0.36047 0.13673 0.36956 0.0
C593 C 0.33527 0.14318 0.43215 0.0
C594 C 0.42929 0.11646 0.34017 0.0
C595 C 0.41228 0.12188 0.3472 0.0
C596 C 0.39357 0.15404 0.37909 0.0
C597 C 0.35018 0.13774 0.40251 0.0
C598 C 0.36281 0.14365 0.38753 0.0
C599 C 0.4088 0.14049 0.35134 0.0
C600 C 0.39198 0.14516 0.36195 0.0
H601 H 0.33312 0.09772 0.42009 0.0
H602 H 0.34946 0.10925 0.39328 0.0
H603 H 0.38131 0.1587 0.40556 0.0
H604 H 0.44993 0.15863 0.33738 0.0
H605 H 0.42005 0.16817 0.35054 0.0
C606 C 0.90271 0.35074 0.43256 0.0
C607 C 0.88744 0.34279 0.44143 0.0
C608 C 0.90046 0.3607 0.41626 0.0
C609 C 0.86689 0.38988 0.39342 0.0
H610 H 0.90445 0.3912 0.35535 0.0
C611 C 0.87237 0.44983 0.34048 0.0
C612 C 0.89014 0.45761 0.34018 0.0
C613 C 0.86936 0.43268 0.34893 0.0
C614 C 0.89376 0.39092 0.36579 0.0
H615 H 0.85791 0.33836 0.43976 0.0
H616 H 0.85393 0.35612 0.4112 0.0
H617 H 0.90389 0.36566 0.37731 0.0
H618 H 0.91876 0.45316 0.3478 0.0
H619 H 0.91355 0.42348 0.36234 0.0
H620 H 0.85736 0.41566 0.38246 0.0
C621 C 0.86764 0.35455 0.41694 0.0
C622 C 0.89344 0.37631 0.37835 0.0
C623 C 0.86994 0.34432 0.4332 0.0
C624 C 0.90488 0.44763 0.34788 0.0
C625 C 0.90193 0.4305 0.35606 0.0
C626 C 0.86721 0.40452 0.38083 0.0
C627 C 0.88286 0.36311 0.40849 0.0
C628 C 0.88051 0.37605 0.39278 0.0
C629 C 0.88413 0.42291 0.3569 0.0
C630 C 0.88115 0.40557 0.3674 0.0
H631 H 0.91639 0.34973 0.4385 0.0
H632 H 0.91244 0.36732 0.41026 0.0
H633 H 0.85682 0.39012 0.40446 0.0
H634 H 0.86074 0.45719 0.33464 0.0
H635 H 0.8555 0.42713 0.34938 0.0
C636 C 0.55635 0.85611 0.3431 0.0
C637 C 0.55183 0.87482 0.34056 0.0
C638 C 0.57333 0.85116 0.35096 0.0
C639 C 0.60139 0.84968 0.38297 0.0
H640 H 0.64592 0.87772 0.37348 0.0
C641 C 0.65604 0.88925 0.4288 0.0
C642 C 0.66178 0.87593 0.44164 0.0
C643 C 0.64713 0.88403 0.41263 0.0
C644 C 0.63371 0.86955 0.37616 0.0
H645 H 0.56189 0.90288 0.34298 0.0
H646 H 0.59139 0.8943 0.35633 0.0
H647 H 0.62118 0.87753 0.35063 0.0
H648 H 0.66334 0.84662 0.44737 0.0
H649 H 0.64708 0.8374 0.41903 0.0
H650 H 0.61338 0.84281 0.40911 0.0
C651 C 0.58194 0.88342 0.35239 0.0
C652 C 0.61957 0.86944 0.3631 0.0
C653 C 0.56495 0.88836 0.3449 0.0
C654 C 0.65905 0.85715 0.43766 0.0
C655 C 0.64975 0.85189 0.42152 0.0
C656 C 0.61556 0.84979 0.39607 0.0
C657 C 0.58615 0.86482 0.35594 0.0
C658 C 0.60287 0.86036 0.36684 0.0
C659 C 0.64351 0.86535 0.40897 0.0
C660 C 0.6314 0.86058 0.3932 0.0
H661 H 0.54645 0.84541 0.33987 0.0
H662 H 0.57624 0.83672 0.35358 0.0
H663 H 0.58864 0.84261 0.38625 0.0
H664 H 0.65808 0.90383 0.43144 0.0
H665 H 0.64224 0.89475 0.40341 0.0
C666 C 0.14764 0.65781 0.42451 0.0
C667 C 0.12855 0.65916 0.42765 0.0
C668 C 0.15435 0.64753 0.40957 0.0
C669 C 0.14032 0.62267 0.36681 0.0
H670 H 0.17009 0.58275 0.38645 0.0
C671 C 0.13606 0.5422 0.36238 0.0
C672 C 0.13528 0.53888 0.34334 0.0
C673 C 0.14307 0.55878 0.36908 0.0
C674 C 0.16213 0.59398 0.38057 0.0
H675 H 0.10155 0.6524 0.41677 0.0
H676 H 0.11316 0.63474 0.39076 0.0
H677 H 0.16684 0.61126 0.40399 0.0
H678 H 0.14202 0.54972 0.31633 0.0
H679 H 0.15379 0.5793 0.3281 0.0
H680 H 0.13438 0.60473 0.34413 0.0
C681 C 0.12301 0.64148 0.39974 0.0
C682 C 0.16035 0.61037 0.39056 0.0
C683 C 0.11633 0.65146 0.41476 0.0
C684 C 0.14261 0.55199 0.33109 0.0
C685 C 0.14926 0.56887 0.3378 0.0
C686 C 0.1422 0.60631 0.35676 0.0
C687 C 0.14207 0.63876 0.3974 0.0
C688 C 0.14855 0.62444 0.38428 0.0
C689 C 0.1491 0.57257 0.35685 0.0
C690 C 0.15224 0.59142 0.3641 0.0
H691 H 0.15738 0.66361 0.43424 0.0
H692 H 0.16911 0.64571 0.40805 0.0
H693 H 0.13131 0.63339 0.36155 0.0
H694 H 0.13051 0.53227 0.37208 0.0
H695 H 0.14251 0.5613 0.3838 0.0
C696 C 0.35506 0.90543 0.56738 0.0
C697 C 0.34705 0.89149 0.5566 0.0
C698 C 0.36486 0.90104 0.5833 0.0
C699 C 0.39412 0.86597 0.60254 0.0
H700 H 0.39106 0.89715 0.64592 0.0
C701 C 0.45194 0.86854 0.65805 0.0
C702 C 0.45809 0.88671 0.66097 0.0
C703 C 0.43531 0.86525 0.64872 0.0
C704 C 0.392 0.88819 0.63399 0.0
H705 H 0.34267 0.862 0.55422 0.0
H706 H 0.36046 0.85421 0.58208 0.0
H707 H 0.36655 0.89824 0.62288 0.0
H708 H 0.45128 0.91564 0.65714 0.0
H709 H 0.42249 0.90995 0.64113 0.0
H710 H 0.42018 0.8568 0.61312 0.0
C711 C 0.35887 0.86856 0.57818 0.0
C712 C 0.37797 0.88879 0.62084 0.0
C713 C 0.34869 0.87301 0.56232 0.0
C714 C 0.447 0.90147 0.65503 0.0
C715 C 0.43038 0.89821 0.646 0.0
C716 C 0.40823 0.86539 0.61572 0.0
C717 C 0.36711 0.88258 0.58875 0.0
C718 C 0.37932 0.87834 0.60459 0.0
C719 C 0.42444 0.8801 0.64251 0.0
C720 C 0.40769 0.87717 0.63113 0.0
H721 H 0.35395 0.9198 0.56339 0.0
H722 H 0.37129 0.91212 0.591 0.0
H723 H 0.39553 0.85782 0.59009 0.0
H724 H 0.46022 0.85689 0.66248 0.0
H725 H 0.43105 0.85116 0.6462 0.0
C726 C 0.08509 0.46381 0.64205 0.0
C727 C 0.10014 0.4716 0.65142 0.0
C728 C 0.08693 0.447 0.63287 0.0
C729 C 0.12039 0.41755 0.60974 0.0
H730 H 0.08041 0.38207 0.6117 0.0
C731 C 0.11628 0.35297 0.56184 0.0
C732 C 0.09915 0.35149 0.55284 0.0
C733 C 0.11852 0.36531 0.57658 0.0
C734 C 0.09173 0.3918 0.61106 0.0
H735 H 0.12897 0.46777 0.65857 0.0
H736 H 0.13222 0.43836 0.64219 0.0
H737 H 0.08044 0.40827 0.63279 0.0
H738 H 0.07088 0.36144 0.55256 0.0
H739 H 0.07478 0.38268 0.57803 0.0
H740 H 0.13125 0.4014 0.58743 0.0
C741 C 0.11899 0.44533 0.64207 0.0
C742 C 0.09173 0.4068 0.62311 0.0
C743 C 0.1171 0.46212 0.65147 0.0
C744 C 0.08429 0.36226 0.5591 0.0
C745 C 0.08647 0.37434 0.57386 0.0
C746 C 0.12037 0.4025 0.59761 0.0
C747 C 0.10389 0.43761 0.63271 0.0
C748 C 0.1057 0.42018 0.62213 0.0
C749 C 0.10359 0.3761 0.58273 0.0
C750 C 0.10566 0.38987 0.59772 0.0
H751 H 0.07183 0.4707 0.64175 0.0
H752 H 0.07511 0.44154 0.62553 0.0
H753 H 0.13131 0.42768 0.60867 0.0
H754 H 0.12798 0.34486 0.55731 0.0
H755 H 0.13187 0.3664 0.58319 0.0
C756 C 0.55433 0.09055 0.64612 0.0
C757 C 0.54064 0.1035 0.65066 0.0
C758 C 0.5694 0.09565 0.63533 0.0
C759 C 0.60343 0.11196 0.61676 0.0
H760 H 0.58727 0.13078 0.56932 0.0
C761 C 0.65127 0.11824 0.55234 0.0
C762 C 0.64422 0.10811 0.53736 0.0
C763 C 0.64017 0.12191 0.56774 0.0
C764 C 0.59203 0.12581 0.58259 0.0
H765 H 0.53235 0.13214 0.64819 0.0
H766 H 0.5586 0.14098 0.62867 0.0
H767 H 0.56566 0.13002 0.5952 0.0
H768 H 0.61994 0.09439 0.52653 0.0
H769 H 0.60057 0.10113 0.55315 0.0
H770 H 0.62959 0.107 0.60384 0.0
C771 C 0.55768 0.12693 0.63372 0.0
C772 C 0.57973 0.12549 0.59742 0.0
C773 C 0.54273 0.1219 0.64489 0.0
C774 C 0.62581 0.10212 0.5379 0.0
C775 C 0.61466 0.10611 0.55305 0.0
C776 C 0.61583 0.11254 0.60198 0.0
C777 C 0.57096 0.11374 0.62857 0.0
C778 C 0.58511 0.11791 0.61443 0.0
C779 C 0.62175 0.11591 0.56816 0.0
C780 C 0.61 0.11881 0.5846 0.0
H781 H 0.55312 0.0763 0.65049 0.0
H782 H 0.5793 0.08515 0.63141 0.0
H783 H 0.60791 0.1061 0.62976 0.0
H784 H 0.66542 0.123 0.55229 0.0
H785 H 0.64593 0.12944 0.57929 0.0
C786 C 0.87125 0.53302 0.65873 0.0
C787 C 0.88834 0.52378 0.65842 0.0
C788 C 0.86904 0.54988 0.64948 0.0
C789 C 0.89547 0.58915 0.63133 0.0
H790 H 0.8577 0.59322 0.59363 0.0
C791 C 0.90591 0.63098 0.56624 0.0
C792 C 0.89137 0.64115 0.55841 0.0
C793 C 0.90297 0.61993 0.58165 0.0
C794 C 0.86803 0.59253 0.60441 0.0
H795 H 0.91654 0.52513 0.64848 0.0
H796 H 0.91273 0.55447 0.63265 0.0
H797 H 0.85717 0.56718 0.61519 0.0
H798 H 0.86235 0.64796 0.56085 0.0
H799 H 0.85709 0.62814 0.58792 0.0
H800 H 0.90681 0.61399 0.62017 0.0
C801 C 0.90106 0.54874 0.64 0.0
C802 C 0.86775 0.57762 0.61671 0.0
C803 C 0.90319 0.53184 0.64895 0.0
C804 C 0.87381 0.64028 0.56662 0.0
C805 C 0.8708 0.62893 0.58203 0.0
C806 C 0.89571 0.60404 0.61914 0.0
C807 C 0.88398 0.5579 0.64011 0.0
C808 C 0.88193 0.57541 0.62975 0.0
C809 C 0.88539 0.61861 0.58963 0.0
C810 C 0.88248 0.60544 0.60503 0.0
H811 H 0.85954 0.52713 0.6659 0.0
H812 H 0.85573 0.55668 0.64973 0.0
H813 H 0.90637 0.58794 0.64149 0.0
H814 H 0.91963 0.6314 0.56034 0.0
H815 H 0.91443 0.61191 0.58695 0.0
C816 C 0.34486 0.45052 0.11705 0.0
C817 C 0.34519 0.46148 0.10102 0.0
C818 C 0.35496 0.43402 0.11785 0.0
C819 C 0.38876 0.40786 0.11802 0.0
H820 H 0.39004 0.37599 0.07505 0.0
C821 C 0.44378 0.35867 0.07928 0.0
C822 C 0.45067 0.3478 0.09379 0.0
C823 C 0.42798 0.36936 0.08168 0.0
C824 C 0.3898 0.38472 0.08718 0.0
H825 H 0.35604 0.46352 0.07318 0.0
H826 H 0.37341 0.4349 0.07456 0.0
H827 H 0.36747 0.40092 0.07665 0.0
H828 H 0.44607 0.33929 0.12212 0.0
H829 H 0.41833 0.35823 0.12635 0.0
H830 H 0.41168 0.39214 0.12817 0.0
C831 C 0.36535 0.43895 0.08649 0.0
C832 C 0.37688 0.39896 0.0881 0.0
C833 C 0.35551 0.45546 0.08576 0.0
C834 C 0.44109 0.34752 0.11067 0.0
C835 C 0.42528 0.35841 0.11313 0.0
C836 C 0.40176 0.39359 0.11708 0.0
C837 C 0.36526 0.42808 0.10253 0.0
C838 C 0.37665 0.41108 0.10322 0.0
C839 C 0.41866 0.36955 0.09867 0.0
C840 C 0.40284 0.3823 0.10134 0.0
H841 H 0.33704 0.4548 0.12904 0.0
H842 H 0.35466 0.42588 0.13039 0.0
H843 H 0.38893 0.41704 0.12981 0.0
H844 H 0.45076 0.35918 0.06608 0.0
H845 H 0.42343 0.378 0.07035 0.0
C846 C 0.43402 0.64808 0.86069 0.0
C847 C 0.43603 0.65264 0.87944 0.0
C848 C 0.41882 0.63766 0.85479 0.0
C849 C 0.37274 0.62078 0.8699 0.0
H850 H 0.38688 0.5746 0.84684 0.0
C851 C 0.3439 0.55158 0.89088 0.0
C852 C 0.33831 0.53873 0.87753 0.0
C853 C 0.3521 0.56813 0.88565 0.0
C854 C 0.38256 0.58761 0.85281 0.0
H855 H 0.42322 0.65105 0.90641 0.0
H856 H 0.39687 0.63324 0.89622 0.0
H857 H 0.40856 0.60045 0.84712 0.0
H858 H 0.33672 0.53315 0.84819 0.0
H859 H 0.35197 0.56213 0.839 0.0
H860 H 0.3474 0.60739 0.87699 0.0
C861 C 0.40688 0.63756 0.886 0.0
C862 C 0.39494 0.60242 0.85296 0.0
C863 C 0.42211 0.64762 0.8919 0.0
C864 C 0.3409 0.54287 0.85874 0.0
C865 C 0.34958 0.55936 0.8535 0.0
C866 C 0.36046 0.60597 0.86987 0.0
C867 C 0.40525 0.63206 0.86749 0.0
C868 C 0.39051 0.61879 0.86241 0.0
C869 C 0.35522 0.57211 0.86696 0.0
C870 C 0.36565 0.58897 0.86216 0.0
H871 H 0.44461 0.65177 0.85081 0.0
H872 H 0.4179 0.6336 0.84044 0.0
H873 H 0.36882 0.63335 0.87698 0.0
H874 H 0.34196 0.54883 0.90545 0.0
H875 H 0.35657 0.57761 0.89632 0.0
C876 C 0.44089 0.33688 0.86 0.0
C877 C 0.4486 0.33485 0.87768 0.0
C878 C 0.42371 0.3455 0.85777 0.0
C879 C 0.39667 0.37811 0.85846 0.0
H880 H 0.35801 0.37373 0.8952 0.0
C881 C 0.34637 0.42968 0.8988 0.0
C882 C 0.33802 0.43974 0.88448 0.0
C883 C 0.35575 0.41331 0.89508 0.0
C884 C 0.36859 0.375 0.88472 0.0
H885 H 0.44388 0.33914 0.90693 0.0
H886 H 0.41419 0.35404 0.90309 0.0
H887 H 0.3821 0.35024 0.89348 0.0
H888 H 0.33251 0.44026 0.85508 0.0
H889 H 0.34937 0.41163 0.8485 0.0
H890 H 0.38361 0.40337 0.85031 0.0
C891 C 0.42124 0.34901 0.89091 0.0
C892 C 0.38238 0.36158 0.88374 0.0
C893 C 0.43839 0.34062 0.8931 0.0
C894 C 0.33881 0.43279 0.86639 0.0
C895 C 0.34848 0.41647 0.86261 0.0
C896 C 0.38281 0.39152 0.8594 0.0
C897 C 0.41388 0.35196 0.87322 0.0
C898 C 0.39703 0.36345 0.87118 0.0
C899 C 0.35718 0.40667 0.87693 0.0
C900 C 0.36912 0.39051 0.87309 0.0
H901 H 0.44845 0.33254 0.84786 0.0
H902 H 0.41832 0.34752 0.84398 0.0
H903 H 0.40782 0.38 0.8487 0.0
H904 H 0.34592 0.43461 0.9129 0.0
H905 H 0.36254 0.40622 0.90637 0.0
C906 C 0.64812 0.43485 0.89262 0.0
C907 C 0.65481 0.44934 0.88163 0.0
C908 C 0.63855 0.42019 0.88469 0.0
C909 C 0.62331 0.38738 0.86381 0.0
H910 H 0.58012 0.4048 0.83745 0.0
C911 C 0.5594 0.34119 0.85403 0.0
C912 C 0.54408 0.34961 0.86241 0.0
C913 C 0.57503 0.35169 0.84961 0.0
C914 C 0.59228 0.39964 0.84446 0.0
H915 H 0.65746 0.45947 0.85361 0.0
H916 H 0.64013 0.43391 0.8397 0.0
H917 H 0.60582 0.42584 0.843 0.0
H918 H 0.53242 0.37564 0.87143 0.0
H919 H 0.55936 0.39391 0.86342 0.0
H920 H 0.60921 0.36157 0.8664 0.0
C921 C 0.64252 0.4339 0.85446 0.0
C922 C 0.60703 0.41164 0.84754 0.0
C923 C 0.65243 0.44847 0.8624 0.0
C924 C 0.54411 0.36879 0.86508 0.0
C925 C 0.55948 0.37928 0.86034 0.0
C926 C 0.60862 0.37533 0.86058 0.0
C927 C 0.63522 0.41979 0.8656 0.0
C928 C 0.62227 0.40589 0.85805 0.0
C929 C 0.57532 0.37079 0.85309 0.0
C930 C 0.59258 0.38164 0.8517 0.0
H931 H 0.64985 0.43508 0.90746 0.0
H932 H 0.63289 0.40967 0.89367 0.0
H933 H 0.63498 0.38256 0.87181 0.0
H934 H 0.55971 0.3264 0.85189 0.0
H935 H 0.58709 0.34482 0.84406 0.0
C936 C 0.64845 0.55453 0.88259 0.0
C937 C 0.64888 0.54502 0.89952 0.0
C938 C 0.63718 0.57009 0.88037 0.0
C939 C 0.61118 0.60537 0.90667 0.0
H940 H 0.57742 0.60513 0.86514 0.0
C941 C 0.54054 0.63969 0.90981 0.0
C942 C 0.53358 0.6491 0.89434 0.0
C943 C 0.55711 0.63 0.90877 0.0
C944 C 0.58699 0.60564 0.87661 0.0
H945 H 0.63833 0.54478 0.92754 0.0
H946 H 0.61883 0.57178 0.92368 0.0
H947 H 0.60258 0.58266 0.86638 0.0
H948 H 0.53874 0.65588 0.86564 0.0
H949 H 0.56783 0.63863 0.86379 0.0
H950 H 0.59523 0.62785 0.91725 0.0
C951 C 0.62722 0.56732 0.91214 0.0
C952 C 0.6014 0.59277 0.87732 0.0
C953 C 0.6383 0.55173 0.9143 0.0
C954 C 0.54373 0.64875 0.8778 0.0
C955 C 0.56033 0.63886 0.87672 0.0
C956 C 0.59683 0.6182 0.90595 0.0
C957 C 0.62634 0.57655 0.8951 0.0
C958 C 0.61323 0.59211 0.89268 0.0
C959 C 0.56716 0.62938 0.89223 0.0
C960 C 0.58419 0.61804 0.89125 0.0
H961 H 0.65645 0.54969 0.87093 0.0
H962 H 0.63682 0.57699 0.86711 0.0
H963 H 0.62031 0.60543 0.9185 0.0
H964 H 0.53313 0.63968 0.92278 0.0
H965 H 0.56182 0.62259 0.92088 0.0
C966 C 0.64627 0.54236 0.12133 0.0
C967 C 0.65468 0.53762 0.10454 0.0
C968 C 0.63394 0.55724 0.12218 0.0
C969 C 0.60378 0.58386 0.09058 0.0
H970 H 0.59314 0.61264 0.13438 0.0
C971 C 0.55233 0.6473 0.11421 0.0
C972 C 0.53651 0.64156 0.10458 0.0
C973 C 0.56796 0.6359 0.11506 0.0
C974 C 0.59608 0.60488 0.12196 0.0
H975 H 0.65824 0.54556 0.07596 0.0
H976 H 0.6377 0.57204 0.07761 0.0
H977 H 0.61961 0.59171 0.13417 0.0
H978 H 0.52434 0.61901 0.08913 0.0
H979 H 0.55109 0.59906 0.09111 0.0
H980 H 0.58075 0.59727 0.07814 0.0
C981 C 0.63976 0.56385 0.08994 0.0
C982 C 0.61113 0.59271 0.12191 0.0
C983 C 0.65166 0.54876 0.089 0.0
C984 C 0.53641 0.624 0.09639 0.0
C985 C 0.55184 0.61258 0.09743 0.0
C986 C 0.58896 0.59611 0.09057 0.0
C987 C 0.63011 0.56785 0.10632 0.0
C988 C 0.61504 0.58187 0.10627 0.0
C989 C 0.56795 0.61849 0.10644 0.0
C990 C 0.58466 0.60651 0.10635 0.0
H991 H 0.64836 0.53392 0.1335 0.0
H992 H 0.62673 0.55979 0.135 0.0
H993 H 0.60603 0.57558 0.07836 0.0
H994 H 0.55281 0.66077 0.12067 0.0
H995 H 0.58016 0.64092 0.12205 0.0
C996 C 0.34157 0.5577 0.14104 0.0
C997 C 0.33642 0.55775 0.12234 0.0
C998 C 0.35074 0.57297 0.14861 0.0
C999 C 0.36261 0.62203 0.13987 0.0
H1000 H 0.41222 0.60834 0.15448 0.0
C1001 C 0.4259 0.65739 0.11304 0.0
C1002 C 0.44206 0.65888 0.12356 0.0
C1003 C 0.41013 0.6494 0.12049 0.0
C1004 C 0.39829 0.61255 0.15104 0.0
H1005 H 0.33548 0.57406 0.09731 0.0
H1006 H 0.35095 0.60068 0.1105 0.0
H1007 H 0.38799 0.58502 0.1541 0.0
H1008 H 0.45424 0.65409 0.15042 0.0
H1009 H 0.42655 0.63939 0.16345 0.0
H1010 H 0.37326 0.64921 0.13537 0.0
C1011 C 0.34811 0.58897 0.11936 0.0
C1012 C 0.3844 0.59917 0.15082 0.0
C1013 C 0.3394 0.57365 0.11173 0.0
C1014 C 0.44189 0.65312 0.14207 0.0
C1015 C 0.42611 0.6447 0.14948 0.0
C1016 C 0.37647 0.63539 0.14013 0.0
C1017 C 0.35435 0.58862 0.1377 0.0
C1018 C 0.36675 0.60356 0.1441 0.0
C1019 C 0.41021 0.64241 0.13858 0.0
C1020 C 0.3947 0.63049 0.14456 0.0
H1021 H 0.33945 0.54553 0.14946 0.0
H1022 H 0.3555 0.57235 0.16276 0.0
H1023 H 0.34903 0.62583 0.1349 0.0
H1024 H 0.42567 0.66181 0.09875 0.0
H1025 H 0.39824 0.6476 0.11162 0.0
C1026 C 0.65371 0.42655 0.10379 0.0
C1027 C 0.65831 0.44021 0.1167 0.0
C1028 C 0.64402 0.41089 0.10921 0.0
C1029 C 0.6086 0.39726 0.14066 0.0
H1030 H 0.61667 0.34988 0.1171 0.0
C1031 C 0.54994 0.34388 0.12943 0.0
C1032 C 0.54788 0.34099 0.11036 0.0
C1033 C 0.56606 0.35207 0.13633 0.0
C1034 C 0.61435 0.36289 0.1241 0.0
H1035 H 0.65696 0.44799 0.14554 0.0
H1036 H 0.63927 0.42059 0.155 0.0
H1037 H 0.64178 0.37226 0.11855 0.0
H1038 H 0.5613 0.34331 0.08374 0.0
H1039 H 0.58933 0.3571 0.09571 0.0
H1040 H 0.58072 0.38837 0.14491 0.0
C1041 C 0.64349 0.422 0.14073 0.0
C1042 C 0.62869 0.37568 0.12491 0.0
C1043 C 0.65359 0.4376 0.13534 0.0
C1044 C 0.56246 0.34551 0.09848 0.0
C1045 C 0.5786 0.35323 0.10536 0.0
C1046 C 0.59421 0.38441 0.13986 0.0
C1047 C 0.63844 0.40862 0.12763 0.0
C1048 C 0.62561 0.39338 0.1322 0.0
C1049 C 0.58047 0.35691 0.12428 0.0
C1050 C 0.5967 0.36757 0.13059 0.0
H1051 H 0.65727 0.42816 0.08936 0.0
H1052 H 0.64008 0.40099 0.09873 0.0
H1053 H 0.60583 0.41081 0.14632 0.0
H1054 H 0.53885 0.3405 0.13886 0.0
H1055 H 0.56717 0.35488 0.15097 0.0
C1056 C 0.06085 0.25556 0.50256 0.0
C1057 C 0.06281 0.268 0.51724 0.0
C1058 C 0.04555 0.24376 0.5019 0.0
C1059 C 0.00098 0.23353 0.5269 0.0
H1060 H 0.98007 0.24981 0.48045 0.0
C1061 C 0.93932 0.27916 0.52051 0.0
C1062 C 0.92739 0.27829 0.50531 0.0
C1063 C 0.95347 0.2663 0.52254 0.0
C1064 C 0.98559 0.24455 0.49331 0.0
H1065 H 0.05203 0.27644 0.5437 0.0
H1066 H 0.02563 0.25613 0.54277 0.0
H1067 H 0.01311 0.2463 0.48324 0.0
H1068 H 0.92008 0.26277 0.48087 0.0
H1069 H 0.94561 0.24058 0.48396 0.0
H1070 H 0.97337 0.23405 0.53745 0.0
C1071 C 0.03562 0.25507 0.53172 0.0
C1072 C 0.00467 0.24247 0.49495 0.0
C1073 C 0.05079 0.26684 0.53231 0.0
C1074 C 0.92912 0.26365 0.49273 0.0
C1075 C 0.94366 0.25098 0.49451 0.0
C1076 C 0.9819 0.23587 0.52532 0.0
C1077 C 0.03203 0.24442 0.51587 0.0
C1078 C 0.01269 0.23845 0.5122 0.0
C1079 C 0.95627 0.25254 0.50917 0.0
C1080 C 0.97423 0.24275 0.50889 0.0
H1081 H 0.06993 0.25637 0.49072 0.0
H1082 H 0.04341 0.23547 0.48966 0.0
H1083 H 0.00666 0.2298 0.54021 0.0
H1084 H 0.93817 0.29029 0.53043 0.0
H1085 H 0.96311 0.26807 0.53383 0.0
C1086 C 0.7232 0.04945 0.47869 0.0
C1087 C 0.7206 0.06186 0.49326 0.0
C1088 C 0.73598 0.03517 0.48025 0.0
C1089 C 0.74976 0.00417 0.51532 0.0
H1090 H 0.77282 0.98017 0.47347 0.0
C1091 C 0.74023 0.92786 0.50769 0.0
C1092 C 0.73041 0.92527 0.49122 0.0
C1093 C 0.75139 0.94351 0.5099 0.0
C1094 C 0.76678 0.98669 0.48548 0.0
H1095 H 0.72989 0.06999 0.52044 0.0
H1096 H 0.75193 0.04431 0.52356 0.0
H1097 H 0.76953 0.0137 0.47376 0.0
H1098 H 0.72593 0.93545 0.46355 0.0
H1099 H 0.74537 0.96238 0.46712 0.0
H1100 H 0.74508 0.97721 0.52614 0.0
C1101 C 0.74437 0.04592 0.51077 0.0
C1102 C 0.76494 0.0059 0.48566 0.0
C1103 C 0.73181 0.06056 0.509 0.0
C1104 C 0.73349 0.93719 0.47634 0.0
C1105 C 0.74476 0.95261 0.47842 0.0
C1106 C 0.75147 0.98497 0.51508 0.0
C1107 C 0.74612 0.03274 0.49661 0.0
C1108 C 0.7551 0.01463 0.4999 0.0
C1109 C 0.75288 0.95661 0.4956 0.0
C1110 C 0.75861 0.97595 0.49944 0.0
H1111 H 0.71466 0.05024 0.46644 0.0
H1112 H 0.73673 0.02512 0.46921 0.0
H1113 H 0.74216 0.01049 0.52653 0.0
H1114 H 0.73788 0.91886 0.51939 0.0
H1115 H 0.75758 0.94612 0.52324 0.0
C1116 C 0.94873 0.71836 0.52753 0.0
C1117 C 0.93445 0.71776 0.51455 0.0
C1118 C 0.96375 0.73003 0.52489 0.0
C1119 C 0.98977 0.74394 0.48524 0.0
H1120 H 0.02479 0.75587 0.52382 0.0
C1121 C 0.06664 0.72955 0.47524 0.0
C1122 C 0.07143 0.71594 0.48817 0.0
C1123 C 0.05096 0.74054 0.4781 0.0
C1124 C 0.01515 0.75304 0.51276 0.0
H1125 H 0.92358 0.72993 0.48955 0.0
H1126 H 0.95012 0.75038 0.48468 0.0
H1127 H 0.99176 0.75749 0.53022 0.0
H1128 H 0.06479 0.7039 0.51465 0.0
H1129 H 0.03787 0.72327 0.51993 0.0
H1130 H 0.01314 0.73804 0.46824 0.0
C1131 C 0.94967 0.7419 0.49699 0.0
C1132 C 0.99624 0.75392 0.51642 0.0
C1133 C 0.93444 0.73033 0.49982 0.0
C1134 C 0.0613 0.71436 0.50453 0.0
C1135 C 0.046 0.72558 0.5076 0.0
C1136 C 0.00867 0.74321 0.48153 0.0
C1137 C 0.96496 0.74109 0.50897 0.0
C1138 C 0.98342 0.74791 0.50315 0.0
C1139 C 0.04024 0.73832 0.49414 0.0
C1140 C 0.0215 0.74637 0.4957 0.0
H1141 H 0.94901 0.70868 0.53894 0.0
H1142 H 0.97525 0.72883 0.53435 0.0
H1143 H 0.98034 0.73925 0.47464 0.0
H1144 H 0.07428 0.73085 0.46246 0.0
H1145 H 0.04673 0.75017 0.46746 0.0
C1146 C 0.25289 0.06659 0.47022 0.0
C1147 C 0.26172 0.07456 0.48544 0.0
C1148 C 0.24171 0.05104 0.47257 0.0
C1149 C 0.22893 0.01534 0.50869 0.0
H1150 H 0.24887 0.98276 0.4713 0.0
C1151 C 0.27478 0.95477 0.52208 0.0
C1152 C 0.27522 0.93957 0.51014 0.0
C1153 C 0.26149 0.96851 0.51988 0.0
C1154 C 0.24262 0.99151 0.48169 0.0
H1155 H 0.26463 0.07396 0.51508 0.0
H1156 H 0.24617 0.04648 0.51925 0.0
H1157 H 0.24559 0.01511 0.46464 0.0
H1158 H 0.26146 0.92593 0.48742 0.0
H1159 H 0.23855 0.95058 0.48294 0.0
H1160 H 0.2283 0.99161 0.52641 0.0
C1161 C 0.24704 0.05224 0.50551 0.0
C1162 C 0.24068 0.01028 0.47788 0.0
C1163 C 0.25774 0.06808 0.50318 0.0
C1164 C 0.2613 0.93755 0.49683 0.0
C1165 C 0.24822 0.95159 0.49429 0.0
C1166 C 0.23126 0.99657 0.51262 0.0
C1167 C 0.23997 0.04271 0.49007 0.0
C1168 C 0.23513 0.02271 0.49179 0.0
C1169 C 0.24869 0.96754 0.50536 0.0
C1170 C 0.23931 0.98476 0.49952 0.0
H1171 H 0.25585 0.07142 0.45639 0.0
H1172 H 0.23591 0.04461 0.46041 0.0
H1173 H 0.22383 0.02428 0.51951 0.0
H1174 H 0.28537 0.95654 0.53248 0.0
H1175 H 0.26239 0.98071 0.52847 0.0
C1176 C 0.4777 0.94163 0.28638 0.0
C1177 C 0.49169 0.92836 0.28497 0.0
C1178 C 0.47801 0.95733 0.27529 0.0
C1179 C 0.51194 0.98846 0.25926 0.0
H1180 H 0.46859 0.01609 0.24441 0.0
C1181 C 0.50964 0.06628 0.27023 0.0
C1182 C 0.49479 0.0702 0.282 0.0
C1183 C 0.50981 0.04983 0.26002 0.0
C1184 C 0.48095 0.00856 0.24817 0.0
H1185 H 0.51643 0.92037 0.27027 0.0
H1186 H 0.51743 0.94844 0.25119 0.0
H1187 H 0.46745 0.98242 0.24536 0.0
H1188 H 0.46797 0.06117 0.2914 0.0
H1189 H 0.46802 0.03285 0.2736 0.0
H1190 H 0.52485 0.01452 0.26398 0.0
C1191 C 0.50599 0.94643 0.26059 0.0
C1192 C 0.4803 0.98929 0.24865 0.0
C1193 C 0.5054 0.9304 0.27144 0.0
C1194 C 0.47954 0.05838 0.28233 0.0
C1195 C 0.47954 0.04221 0.27198 0.0
C1196 C 0.51255 0.00774 0.25891 0.0
C1197 C 0.4926 0.9603 0.26287 0.0
C1198 C 0.49538 0.97916 0.25543 0.0
C1199 C 0.49498 0.03733 0.26129 0.0
C1200 C 0.49662 0.01798 0.25467 0.0
H1201 H 0.46703 0.94032 0.29678 0.0
H1202 H 0.46764 0.96787 0.27758 0.0
H1203 H 0.52378 0.98102 0.26456 0.0
H1204 H 0.5216 0.07523 0.26992 0.0
H1205 H 0.52188 0.04643 0.2519 0.0
C1206 C 0.94411 0.52905 0.27097 0.0
C1207 C 0.93164 0.51437 0.2722 0.0
C1208 C 0.95942 0.52784 0.25943 0.0
C1209 C 0.99018 0.49089 0.24775 0.0
H1210 H 0.02089 0.53298 0.23579 0.0
C1211 C 0.06635 0.49032 0.26665 0.0
C1212 C 0.06867 0.50404 0.28014 0.0
C1213 C 0.05135 0.49114 0.25446 0.0
C1214 C 0.01251 0.52094 0.23863 0.0
H1215 H 0.92409 0.48771 0.26113 0.0
H1216 H 0.95113 0.48539 0.24089 0.0
H1217 H 0.98745 0.53535 0.23258 0.0
H1218 H 0.05843 0.53017 0.29039 0.0
H1219 H 0.03266 0.53186 0.26902 0.0
H1220 H 0.0151 0.47698 0.25521 0.0
C1221 C 0.94907 0.4979 0.2488 0.0
C1222 C 0.99336 0.52229 0.23685 0.0
C1223 C 0.93354 0.49925 0.26027 0.0
C1224 C 0.05684 0.51936 0.2802 0.0
C1225 C 0.0422 0.5204 0.2678 0.0
C1226 C 0.00933 0.48949 0.24936 0.0
C1227 C 0.96275 0.5117 0.24914 0.0
C1228 C 0.98194 0.50782 0.24293 0.0
C1229 C 0.03882 0.50596 0.25531 0.0
C1230 C 0.02052 0.50499 0.24624 0.0
H1231 H 0.94289 0.54081 0.28013 0.0
H1232 H 0.96961 0.53872 0.26025 0.0
H1233 H 0.98191 0.4794 0.2525 0.0
H1234 H 0.07532 0.47835 0.26638 0.0
H1235 H 0.04901 0.47979 0.24503 0.0
C1236 C 0.49376 0.9267 0.74395 0.0
C1237 C 0.50986 0.9264 0.73321 0.0
C1238 C 0.49049 0.94143 0.75605 0.0
C1239 C 0.51052 0.98654 0.77215 0.0
H1240 H 0.46671 0.00626 0.74871 0.0
C1241 C 0.5107 0.05004 0.72967 0.0
C1242 C 0.49441 0.05949 0.72533 0.0
C1243 C 0.5107 0.03634 0.74317 0.0
C1244 C 0.47868 0.00111 0.75603 0.0
H1245 H 0.53608 0.93962 0.72816 0.0
H1246 H 0.53069 0.96498 0.74926 0.0
H1247 H 0.47063 0.97328 0.75109 0.0
H1248 H 0.46572 0.06334 0.73249 0.0
H1249 H 0.46555 0.03906 0.75614 0.0
H1250 H 0.51931 0.01456 0.7754 0.0
C1251 C 0.52048 0.9541 0.7486 0.0
C1252 C 0.48095 0.98202 0.75742 0.0
C1253 C 0.5236 0.93959 0.73639 0.0
C1254 C 0.47847 0.05627 0.7358 0.0
C1255 C 0.47838 0.04233 0.74923 0.0
C1256 C 0.50824 0.00567 0.77077 0.0
C1257 C 0.50335 0.95592 0.75757 0.0
C1258 C 0.49761 0.97456 0.76401 0.0
C1259 C 0.49427 0.03155 0.75234 0.0
C1260 C 0.49303 0.01307 0.76123 0.0
H1261 H 0.48292 0.91669 0.74157 0.0
H1262 H 0.47724 0.94235 0.76289 0.0
H1263 H 0.52329 0.98119 0.77778 0.0
H1264 H 0.52309 0.05227 0.72162 0.0
H1265 H 0.52315 0.02826 0.74495 0.0
C1266 C 0.94671 0.46517 0.73093 0.0
C1267 C 0.93056 0.4758 0.72977 0.0
C1268 C 0.96139 0.47094 0.74195 0.0
C1269 C 0.9813 0.51463 0.75014 0.0
H1270 H 0.02121 0.4853 0.77033 0.0
C1271 C 0.05325 0.53589 0.73199 0.0
C1272 C 0.06383 0.5211 0.72544 0.0
C1273 C 0.03843 0.53269 0.74392 0.0
C1274 C 0.01025 0.49376 0.7647 0.0
H1275 H 0.91619 0.49963 0.74072 0.0
H1276 H 0.94214 0.51004 0.75968 0.0
H1277 H 0.98972 0.47344 0.77115 0.0
H1278 H 0.06841 0.49169 0.7271 0.0
H1279 H 0.04203 0.48578 0.74675 0.0
H1280 H 0.00153 0.53395 0.74167 0.0
C1281 C 0.94337 0.49716 0.75219 0.0
C1282 C 0.99217 0.48702 0.7654 0.0
C1283 C 0.92852 0.49118 0.74138 0.0
C1284 C 0.06048 0.50331 0.73218 0.0
C1285 C 0.04529 0.49999 0.74358 0.0
C1286 C -0.00066 0.52119 0.74909 0.0
C1287 C 0.9603 0.48764 0.75173 0.0
C1288 C 0.97769 0.49694 0.75716 0.0
C1289 C 0.03336 0.51452 0.7487 0.0
C1290 C 0.01425 0.51033 0.75531 0.0
H1291 H 0.94856 0.45318 0.72219 0.0
H1292 H 0.97424 0.46334 0.74119 0.0
H1293 H 0.97049 0.52259 0.74355 0.0
H1294 H 0.05569 0.54976 0.72695 0.0
H1295 H 0.03013 0.54437 0.74815 0.0
C1296 C 0.26515 0.51166 0.93651 0.0
C1297 C 0.26765 0.49502 0.92704 0.0
C1298 C 0.25343 0.51251 0.95172 0.0
C1299 C 0.24305 0.48154 0.98895 0.0
H1300 H 0.22587 0.52747 0.01029 0.0
C1301 C 0.25928 0.4964 0.06357 0.0
C1302 C 0.2711 0.51174 0.06355 0.0
C1303 C 0.24712 0.49356 0.04879 0.0
C1304 C 0.23022 0.51436 0.00457 0.0
H1305 H 0.25895 0.46658 0.92482 0.0
H1306 H 0.23834 0.46793 0.95165 0.0
H1307 H 0.22474 0.52318 0.9769 0.0
H1308 H 0.27812 0.53714 0.0495 0.0
H1309 H 0.25689 0.53245 0.02407 0.0
H1310 H 0.25001 0.47331 0.01635 0.0
C1311 C 0.24535 0.48038 0.94729 0.0
C1312 C 0.22962 0.51191 0.98544 0.0
C1313 C 0.25702 0.47961 0.93189 0.0
C1314 C 0.2692 0.52515 0.04973 0.0
C1315 C 0.25687 0.52251 0.03523 0.0
C1316 C 0.24356 0.48395 0.00805 0.0
C1317 C 0.24423 0.49659 0.95798 0.0
C1318 C 0.23746 0.49609 0.97736 0.0
C1319 C 0.24643 0.5062 0.03405 0.0
C1320 C 0.23854 0.50096 0.01589 0.0
H1321 H 0.2734 0.52364 0.93305 0.0
H1322 H 0.25316 0.52518 0.95964 0.0
H1323 H 0.24915 0.46912 0.98328 0.0
H1324 H 0.26055 0.48586 0.0741 0.0
H1325 H 0.23921 0.48089 0.04827 0.0
C1326 C 0.52639 0.27375 0.93122 0.0
C1327 C 0.51227 0.27354 0.91802 0.0
C1328 C 0.52589 0.26169 0.9462 0.0
C1329 C 0.49069 0.24555 0.97588 0.0
H1330 H 0.53324 0.23136 0.005 0.0
C1331 C 0.49067 0.26207 0.0518 0.0
C1332 C 0.50536 0.2743 0.05481 0.0
C1333 C 0.49119 0.24987 0.03678 0.0
C1334 C 0.52108 0.2349 0.99706 0.0
H1335 H 0.48737 0.25968 0.90912 0.0
H1336 H 0.48611 0.23886 0.93584 0.0
H1337 H 0.53535 0.23156 0.97139 0.0
H1338 H 0.53273 0.28222 0.04607 0.0
H1339 H 0.53385 0.26108 0.02024 0.0
H1340 H 0.47704 0.25092 0.00138 0.0
C1341 C 0.49773 0.24814 0.9344 0.0
C1342 C 0.52229 0.23496 0.97781 0.0
C1343 C 0.49847 0.26 0.91913 0.0
C1344 C 0.52125 0.27289 0.04394 0.0
C1345 C 0.52191 0.26061 0.0292 0.0
C1346 C 0.48953 0.24562 0.99511 0.0
C1347 C 0.51102 0.24946 0.94849 0.0
C1348 C 0.50756 0.2417 0.96713 0.0
C1349 C 0.5065 0.24968 0.02479 0.0
C1350 C 0.50521 0.24178 0.00588 0.0
H1351 H 0.53717 0.28408 0.93062 0.0
H1352 H 0.53624 0.26325 0.95687 0.0
H1353 H 0.47907 0.25076 0.96805 0.0
H1354 H 0.47824 0.26303 0.06004 0.0
H1355 H 0.47915 0.24156 0.0338 0.0
C1356 C 0.72731 0.47849 0.94861 0.0
C1357 C 0.72438 0.49353 0.93681 0.0
C1358 C 0.74053 0.47947 0.96252 0.0
C1359 C 0.75454 0.51382 0.99409 0.0
H1360 H 0.7768 0.47113 0.01743 0.0
C1361 C 0.74179 0.5041 0.06925 0.0
C1362 C 0.73174 0.48763 0.07078 0.0
C1363 C 0.75394 0.50664 0.05441 0.0
C1364 C 0.77099 0.48338 0.01112 0.0
H1365 H 0.73371 0.52086 0.92924 0.0
H1366 H 0.75655 0.52293 0.95424 0.0
H1367 H 0.77404 0.47227 0.98389 0.0
H1368 H 0.72806 0.46016 0.0598 0.0
H1369 H 0.74915 0.46431 0.03428 0.0
H1370 H 0.74946 0.52402 0.02118 0.0
C1371 C 0.74887 0.51024 0.95245 0.0
C1372 C 0.76946 0.48405 0.99189 0.0
C1373 C 0.73586 0.50907 0.93818 0.0
C1374 C 0.73571 0.47298 0.05884 0.0
C1375 C 0.74794 0.47539 0.04423 0.0
C1376 C 0.75592 0.51309 0.0133 0.0
C1377 C 0.75079 0.49571 0.96521 0.0
C1378 C 0.75983 0.49857 0.98336 0.0
C1379 C 0.75619 0.49269 0.04105 0.0
C1380 C 0.76267 0.4971 0.02206 0.0
H1381 H 0.71859 0.46638 0.94777 0.0
H1382 H 0.74142 0.46812 0.97223 0.0
H1383 H 0.74713 0.52527 0.98795 0.0
H1384 H 0.73883 0.51562 0.07831 0.0
H1385 H 0.76027 0.52004 0.0525 0.0
C1386 C 0.46933 0.72861 0.94088 0.0
C1387 C 0.48361 0.72486 0.92841 0.0
C1388 C 0.47221 0.74059 0.95562 0.0
C1389 C 0.51035 0.74809 0.98585 0.0
H1390 H 0.47079 0.76816 0.01569 0.0
C1391 C 0.50741 0.73041 0.06185 0.0
C1392 C 0.49133 0.71992 0.06427 0.0
C1393 C 0.5088 0.74268 0.04693 0.0
C1394 C 0.48221 0.76299 0.00755 0.0
H1395 H 0.51141 0.73196 0.92026 0.0
H1396 H 0.51667 0.75283 0.94637 0.0
H1397 H 0.46895 0.7701 0.98211 0.0
H1398 H 0.46358 0.71512 0.05445 0.0
H1399 H 0.46574 0.73664 0.02886 0.0
H1400 H 0.52278 0.73945 0.01113 0.0
C1401 C 0.50319 0.74661 0.94469 0.0
C1402 C 0.48115 0.76408 0.98831 0.0
C1403 C 0.50017 0.73477 0.9297 0.0
C1404 C 0.47612 0.72309 0.05279 0.0
C1405 C 0.47734 0.73557 0.03822 0.0
C1406 C 0.51144 0.74707 0.00506 0.0
C1407 C 0.48959 0.74876 0.95841 0.0
C1408 C 0.49444 0.75521 0.97728 0.0
C1409 C 0.49398 0.74483 0.03456 0.0
C1410 C 0.49663 0.75313 0.01601 0.0
H1411 H 0.45646 0.72106 0.94013 0.0
H1412 H 0.46142 0.74173 0.9659 0.0
H1413 H 0.52091 0.74118 0.97784 0.0
H1414 H 0.51935 0.72805 0.07053 0.0
H1415 H 0.5218 0.74961 0.04441 0.0
C1416 C 0.16504 0.272 0.52134 0.0
C1417 C 0.15796 0.27573 0.50366 0.0
C1418 C 0.18067 0.26087 0.52347 0.0
C1419 C 0.22093 0.24208 0.4986 0.0
H1420 H 0.21685 0.20108 0.53276 0.0
C1421 C 0.26576 0.17709 0.49239 0.0
C1422 C 0.27109 0.16757 0.50842 0.0
C1423 C 0.254 0.1923 0.49346 0.0
C1424 C 0.21843 0.21265 0.52343 0.0
H1425 H 0.16206 0.27124 0.47435 0.0
H1426 H 0.18934 0.25193 0.47808 0.0
H1427 H 0.1926 0.22437 0.5317 0.0
H1428 H 0.26878 0.16698 0.53825 0.0
H1429 H 0.24841 0.19379 0.54015 0.0
H1430 H 0.24663 0.2303 0.49014 0.0
C1431 C 0.18284 0.25762 0.49028 0.0
C1432 C 0.20449 0.22597 0.52281 0.0
C1433 C 0.16714 0.26858 0.48816 0.0
C1434 C 0.26484 0.17395 0.52563 0.0
C1435 C 0.2531 0.18925 0.52671 0.0
C1436 C 0.23493 0.22884 0.49931 0.0
C1437 C 0.18963 0.25345 0.50796 0.0
C1438 C 0.20541 0.24059 0.51009 0.0
C1439 C 0.24734 0.19845 0.5106 0.0
C1440 C 0.23363 0.21372 0.51142 0.0
H1441 H 0.15828 0.27732 0.53355 0.0
H1442 H 0.18569 0.25796 0.53725 0.0
H1443 H 0.22212 0.25337 0.48886 0.0
H1444 H 0.2703 0.17254 0.47889 0.0
H1445 H 0.24963 0.19884 0.48074 0.0
C1446 C 0.73527 0.16349 0.4719 0.0
C1447 C 0.72615 0.1562 0.48738 0.0
C1448 C 0.74754 0.17819 0.47382 0.0
C1449 C 0.77796 0.20019 0.50742 0.0
H1450 H 0.77751 0.24126 0.47309 0.0
C1451 C 0.82614 0.26262 0.51659 0.0
C1452 C 0.83435 0.26987 0.5006 0.0
C1453 C 0.81205 0.24958 0.51528 0.0
C1454 C 0.77795 0.2298 0.48267 0.0
H1455 H 0.72262 0.15874 0.51701 0.0
H1456 H 0.74419 0.18438 0.52035 0.0
H1457 H 0.75448 0.21689 0.47021 0.0
H1458 H 0.83415 0.26922 0.47067 0.0
H1459 H 0.80986 0.24614 0.46838 0.0
H1460 H 0.80164 0.21275 0.51964 0.0
C1461 C 0.74185 0.17864 0.50675 0.0
C1462 C 0.76473 0.21588 0.48104 0.0
C1463 C 0.72945 0.16403 0.50481 0.0
C1464 C 0.82805 0.26394 0.48326 0.0
C1465 C 0.81404 0.25079 0.48195 0.0
C1466 C 0.79125 0.21402 0.50897 0.0
C1467 C 0.75106 0.18582 0.49128 0.0
C1468 C 0.76465 0.20091 0.49336 0.0
C1469 C 0.80593 0.24338 0.49795 0.0
C1470 C 0.79146 0.22896 0.49657 0.0
H1471 H 0.73301 0.15778 0.45828 0.0
H1472 H 0.75459 0.18334 0.46169 0.0
H1473 H 0.77838 0.18867 0.51695 0.0
H1474 H 0.83059 0.26702 0.53016 0.0
H1475 H 0.80589 0.24441 0.52787 0.0
C1476 C 0.83148 0.72266 0.52217 0.0
C1477 C 0.83926 0.71895 0.50479 0.0
C1478 C 0.81653 0.73475 0.52381 0.0
C1479 C 0.7788 0.75639 0.49743 0.0
H1480 H 0.7822 0.79527 0.53402 0.0
C1481 C 0.73412 0.82192 0.494 0.0
C1482 C 0.72806 0.82998 0.51056 0.0
C1483 C 0.74622 0.80693 0.49428 0.0
C1484 C 0.78083 0.78432 0.52395 0.0
H1485 H 0.83717 0.72465 0.47547 0.0
H1486 H 0.81108 0.74568 0.47834 0.0
H1487 H 0.8059 0.77143 0.53281 0.0
H1488 H 0.72951 0.82829 0.5404 0.0
H1489 H 0.75041 0.80188 0.54088 0.0
H1490 H 0.75381 0.76929 0.48847 0.0
C1491 C 0.8165 0.7392 0.49068 0.0
C1492 C 0.79444 0.77068 0.52324 0.0
C1493 C 0.83153 0.72725 0.48906 0.0
C1494 C 0.73403 0.82246 0.52741 0.0
C1495 C 0.74608 0.80738 0.52768 0.0
C1496 C 0.76512 0.76995 0.49821 0.0
C1497 C 0.80896 0.74321 0.50808 0.0
C1498 C 0.79372 0.75675 0.50979 0.0
C1499 C 0.75246 0.79956 0.51111 0.0
C1500 C 0.76614 0.78426 0.51127 0.0
H1501 H 0.83712 0.71647 0.53456 0.0
H1502 H 0.81089 0.73749 0.53737 0.0
H1503 H 0.77776 0.74565 0.48709 0.0
H1504 H 0.72983 0.82741 0.48078 0.0
H1505 H 0.75107 0.80145 0.48125 0.0
C1506 C 0.17554 0.73446 0.48423 0.0
C1507 C 0.16021 0.73487 0.49609 0.0
C1508 C 0.18901 0.74818 0.48522 0.0
C1509 C 0.1956 0.79615 0.49929 0.0
H1510 H 0.24773 0.78415 0.49702 0.0
C1511 C 0.25144 0.85094 0.48579 0.0
C1512 C 0.26714 0.85038 0.49715 0.0
C1513 C 0.23863 0.83658 0.48617 0.0
C1514 C 0.23322 0.78768 0.49777 0.0
H1515 H 0.14709 0.74987 0.51844 0.0
H1516 H 0.1706 0.77389 0.52007 0.0
H1517 H 0.2249 0.75932 0.49728 0.0
H1518 H 0.28185 0.83421 0.51763 0.0
H1519 H 0.25947 0.80904 0.51817 0.0
H1520 H 0.20389 0.82449 0.49974 0.0
C1521 C 0.17212 0.76299 0.50997 0.0
C1522 C 0.22018 0.77351 0.49777 0.0
C1523 C 0.15871 0.74919 0.50908 0.0
C1524 C 0.26988 0.83504 0.50872 0.0
C1525 C 0.25713 0.8206 0.50898 0.0
C1526 C 0.20863 0.81031 0.49914 0.0
C1527 C 0.18735 0.76266 0.498 0.0
C1528 C 0.20124 0.77761 0.49849 0.0
C1529 C 0.24131 0.82131 0.4978 0.0
C1530 C 0.22756 0.80622 0.49831 0.0
H1531 H 0.1771 0.7236 0.47409 0.0
H1532 H 0.20052 0.74769 0.4757 0.0
H1533 H 0.18109 0.79972 0.49969 0.0
H1534 H 0.24892 0.86255 0.47671 0.0
H1535 H 0.22667 0.83737 0.47724 0.0
C1536 C 0.50343 0.17216 0.25956 0.0
C1537 C 0.48608 0.16505 0.26444 0.0
C1538 C 0.50494 0.18586 0.2461 0.0
C1539 C 0.47965 0.20653 0.20686 0.0
H1540 H 0.51598 0.24544 0.21203 0.0
C1541 C 0.48475 0.26762 0.15585 0.0
C1542 C 0.50259 0.27169 0.14944 0.0
C1543 C 0.48222 0.25541 0.17057 0.0
C1544 C 0.50584 0.2346 0.21037 0.0
H1545 H 0.45667 0.16696 0.25923 0.0
H1546 H 0.45927 0.19114 0.23601 0.0
H1547 H 0.51239 0.22267 0.23657 0.0
H1548 H 0.53177 0.26642 0.15366 0.0
H1549 H 0.5273 0.24518 0.17938 0.0
H1550 H 0.47308 0.21857 0.18069 0.0
C1551 C 0.47176 0.18586 0.24231 0.0
C1552 C 0.50381 0.22152 0.22439 0.0
C1553 C 0.47025 0.17206 0.25569 0.0
C1554 C 0.51784 0.26355 0.15825 0.0
C1555 C 0.51531 0.25148 0.17305 0.0
C1556 C 0.48159 0.21969 0.19292 0.0
C1557 C 0.48913 0.19288 0.23729 0.0
C1558 C 0.4908 0.20722 0.22273 0.0
C1559 C 0.49747 0.24717 0.17926 0.0
C1560 C 0.49482 0.23375 0.19446 0.0
H1561 H 0.5159 0.16699 0.26599 0.0
H1562 H 0.51856 0.19073 0.24237 0.0
H1563 H 0.4697 0.19556 0.20499 0.0
H1564 H 0.47272 0.27368 0.14937 0.0
H1565 H 0.46832 0.25245 0.17519 0.0
C1566 C 0.82583 0.48157 0.26729 0.0
C1567 C 0.83492 0.49714 0.27442 0.0
C1568 C 0.81082 0.48365 0.25535 0.0
C1569 C 0.79127 0.51635 0.22215 0.0
H1570 H 0.74771 0.48552 0.22543 0.0
C1571 C 0.73094 0.52465 0.17106 0.0
C1572 C 0.7235 0.5082 0.164 0.0
C1573 C 0.74294 0.52423 0.18616 0.0
C1574 C 0.75984 0.49415 0.22425 0.0
H1575 H 0.83507 0.52711 0.27494 0.0
H1576 H 0.80894 0.53067 0.25411 0.0
H1577 H 0.77185 0.48277 0.24877 0.0
H1578 H 0.72243 0.47847 0.16759 0.0
H1579 H 0.74357 0.47773 0.19358 0.0
H1580 H 0.77962 0.52739 0.1974 0.0
C1581 C 0.81352 0.51688 0.25764 0.0
C1582 C 0.77364 0.49258 0.23762 0.0
C1583 C 0.82844 0.51481 0.26964 0.0
C1584 C 0.7279 0.49141 0.17268 0.0
C1585 C 0.73995 0.49099 0.1877 0.0
C1586 C 0.77754 0.51786 0.20873 0.0
C1587 C 0.80467 0.50133 0.25023 0.0
C1588 C 0.78957 0.50356 0.23661 0.0
C1589 C 0.74781 0.50736 0.19447 0.0
C1590 C 0.76173 0.50665 0.20951 0.0
H1591 H 0.83046 0.46777 0.27073 0.0
H1592 H 0.80437 0.47141 0.24972 0.0
H1593 H 0.80351 0.52483 0.22086 0.0
H1594 H 0.72773 0.53782 0.16476 0.0
H1595 H 0.74853 0.53713 0.19122 0.0
C1596 C 0.47651 0.73513 0.16474 0.0
C1597 C 0.49175 0.72575 0.1573 0.0
C1598 C 0.47884 0.74778 0.17905 0.0
C1599 C 0.51166 0.76278 0.21529 0.0
H1600 H 0.48198 0.80735 0.21422 0.0
C1601 C 0.52398 0.82554 0.26334 0.0
C1602 C 0.50821 0.83337 0.27148 0.0
C1603 C 0.52228 0.81191 0.24981 0.0
C1604 C 0.49025 0.7949 0.21479 0.0
H1605 H 0.5214 0.72217 0.15911 0.0
H1606 H 0.52555 0.74464 0.18384 0.0
H1607 H 0.47868 0.78464 0.18972 0.0
H1608 H 0.47828 0.83289 0.27194 0.0
H1609 H 0.47535 0.8092 0.24822 0.0
H1610 H 0.52344 0.77337 0.24027 0.0
C1611 C 0.51173 0.74196 0.17884 0.0
C1612 C 0.48834 0.78184 0.20078 0.0
C1613 C 0.50938 0.72915 0.1646 0.0
C1614 C 0.4907 0.82717 0.26592 0.0
C1615 C 0.48901 0.81367 0.25228 0.0
C1616 C 0.51368 0.77595 0.22924 0.0
C1617 C 0.49649 0.75152 0.18615 0.0
C1618 C 0.49891 0.76555 0.20092 0.0
C1619 C 0.50478 0.80597 0.24404 0.0
C1620 C 0.5029 0.79207 0.22918 0.0
H1621 H 0.46272 0.73269 0.15954 0.0
H1622 H 0.46674 0.75458 0.1846 0.0
H1623 H 0.51986 0.7503 0.21597 0.0
H1624 H 0.53766 0.83 0.26735 0.0
H1625 H 0.53466 0.80629 0.24359 0.0
C1626 C 0.1678 0.47621 0.26549 0.0
C1627 C 0.15842 0.49317 0.26671 0.0
C1628 C 0.1814 0.47351 0.25206 0.0
C1629 C 0.19741 0.49216 0.20737 0.0
H1630 H 0.24392 0.46869 0.21972 0.0
C1631 C 0.26142 0.50074 0.16237 0.0
C1632 C 0.27185 0.48494 0.15816 0.0
C1633 C 0.24747 0.50001 0.17556 0.0
C1634 C 0.2309 0.47505 0.21603 0.0
H1635 H 0.15609 0.52062 0.25494 0.0
H1636 H 0.17986 0.516 0.23179 0.0
H1637 H 0.21947 0.47059 0.24294 0.0
H1638 H 0.2761 0.45605 0.16485 0.0
H1639 H 0.25164 0.45486 0.18816 0.0
H1640 H 0.20892 0.49701 0.18066 0.0
C1641 C 0.17652 0.50466 0.24095 0.0
C1642 C 0.21691 0.47612 0.22929 0.0
C1643 C 0.16297 0.50736 0.25432 0.0
C1644 C 0.26828 0.46845 0.16776 0.0
C1645 C 0.25433 0.46777 0.18112 0.0
C1646 C 0.21137 0.49116 0.1942 0.0
C1647 C 0.18583 0.48769 0.23958 0.0
C1648 C 0.20015 0.48503 0.22519 0.0
C1649 C 0.24365 0.4835 0.18494 0.0
C1650 C 0.22838 0.48293 0.1985 0.0
H1651 H 0.16459 0.465 0.27484 0.0
H1652 H 0.18825 0.46024 0.25127 0.0
H1653 H 0.18449 0.49871 0.20363 0.0
H1654 H 0.26383 0.5137 0.15531 0.0
H1655 H 0.23967 0.51244 0.17845 0.0
C1656 C 0.48905 0.7233 0.82598 0.0
C1657 C 0.50563 0.71807 0.83459 0.0
C1658 C 0.48916 0.73541 0.811 0.0
C1659 C 0.51767 0.77173 0.78979 0.0
H1660 H 0.48202 0.76774 0.75009 0.0
C1661 C 0.51545 0.82381 0.72964 0.0
C1662 C 0.4979 0.83096 0.72546 0.0
C1663 C 0.5173 0.80851 0.74124 0.0
C1664 C 0.49201 0.76905 0.76112 0.0
H1665 H 0.5354 0.72092 0.83375 0.0
H1666 H 0.53561 0.74184 0.80735 0.0
H1667 H 0.48396 0.74338 0.77329 0.0
H1668 H 0.46851 0.82729 0.72969 0.0
H1669 H 0.47176 0.80057 0.74993 0.0
H1670 H 0.52561 0.79747 0.77769 0.0
C1671 C 0.52249 0.73685 0.81244 0.0
C1672 C 0.49311 0.75513 0.77443 0.0
C1673 C 0.52237 0.72478 0.82751 0.0
C1674 C 0.48223 0.82215 0.73267 0.0
C1675 C 0.48408 0.80677 0.74418 0.0
C1676 C 0.51664 0.78559 0.77643 0.0
C1677 C 0.50586 0.7425 0.80416 0.0
C1678 C 0.50576 0.75644 0.78909 0.0
C1679 C 0.50164 0.79995 0.74878 0.0
C1680 C 0.50362 0.78453 0.76211 0.0
H1681 H 0.47589 0.71842 0.83109 0.0
H1682 H 0.47608 0.73966 0.80516 0.0
H1683 H 0.52737 0.77336 0.80104 0.0
H1684 H 0.52782 0.83024 0.72426 0.0
H1685 H 0.531 0.80343 0.74438 0.0
C1686 C 0.26299 0.48322 0.8245 0.0
C1687 C 0.26813 0.50051 0.8316 0.0
C1688 C 0.25084 0.48202 0.80958 0.0
C1689 C 0.23136 0.50856 0.77081 0.0
H1690 H 0.18985 0.47519 0.77564 0.0
C1691 C 0.16621 0.51503 0.726 0.0
C1692 C 0.1569 0.49889 0.72068 0.0
C1693 C 0.18121 0.51413 0.73803 0.0
C1694 C 0.20153 0.48434 0.77388 0.0
H1695 H 0.26494 0.53012 0.82835 0.0
H1696 H 0.24376 0.528 0.80231 0.0
H1697 H 0.21367 0.47558 0.79934 0.0
H1698 H 0.15642 0.46907 0.72334 0.0
H1699 H 0.18285 0.46747 0.74412 0.0
H1700 H 0.2192 0.51741 0.74541 0.0
C1701 C 0.24918 0.51538 0.80823 0.0
C1702 C 0.21515 0.48458 0.78749 0.0
C1703 C 0.26122 0.51658 0.82322 0.0
C1704 C 0.16322 0.48177 0.72728 0.0
C1705 C 0.17831 0.48086 0.73926 0.0
C1706 C 0.2178 0.50824 0.75713 0.0
C1707 C 0.24372 0.49809 0.80139 0.0
C1708 C 0.23006 0.49689 0.78623 0.0
C1709 C 0.18734 0.49706 0.74494 0.0
C1710 C 0.20256 0.49633 0.75865 0.0
H1711 H 0.26811 0.47057 0.83062 0.0
H1712 H 0.24699 0.46851 0.80448 0.0
H1713 H 0.24285 0.51799 0.76936 0.0
H1714 H 0.16167 0.52845 0.7212 0.0
H1715 H 0.18765 0.52691 0.74233 0.0
C1716 C 0.51576 0.16298 0.72297 0.0
C1717 C 0.49993 0.1536 0.71694 0.0
C1718 C 0.51425 0.17808 0.73484 0.0
C1719 C 0.48101 0.21226 0.75382 0.0
H1720 H 0.51671 0.21503 0.79357 0.0
C1721 C 0.47224 0.25882 0.81829 0.0
C1722 C 0.48802 0.26819 0.82453 0.0
C1723 C 0.47354 0.24591 0.80402 0.0
C1724 C 0.50677 0.21457 0.78243 0.0
H1725 H 0.47005 0.15295 0.71829 0.0
H1726 H 0.46742 0.17904 0.73934 0.0
H1727 H 0.51927 0.19059 0.77072 0.0
H1728 H 0.51747 0.27168 0.82036 0.0
H1729 H 0.5197 0.24915 0.79553 0.0
H1730 H 0.4683 0.23609 0.76593 0.0
C1731 C 0.48101 0.17495 0.73466 0.0
C1732 C 0.50825 0.20059 0.76928 0.0
C1733 C 0.48251 0.15992 0.72266 0.0
C1734 C 0.50505 0.26465 0.81595 0.0
C1735 C 0.50636 0.25168 0.80178 0.0
C1736 C 0.47946 0.2262 0.76708 0.0
C1737 C 0.49688 0.18406 0.74109 0.0
C1738 C 0.49541 0.19925 0.7548 0.0
C1739 C 0.49067 0.24204 0.79579 0.0
C1740 C 0.49234 0.22749 0.78151 0.0
H1741 H 0.52938 0.15857 0.71867 0.0
H1742 H 0.52674 0.18501 0.7392 0.0
H1743 H 0.47102 0.21178 0.74272 0.0
H1744 H 0.45892 0.26126 0.8246 0.0
H1745 H 0.46124 0.23858 0.79977 0.0
C1746 C 0.73419 0.47582 0.83731 0.0
C1747 C 0.72575 0.49177 0.84438 0.0
C1748 C 0.747 0.47708 0.82303 0.0
C1749 C 0.76441 0.50771 0.78606 0.0
H1750 H 0.80752 0.47616 0.78981 0.0
C1751 C 0.82871 0.51316 0.73823 0.0
C1752 C 0.83584 0.4963 0.73178 0.0
C1753 C 0.81463 0.51339 0.75143 0.0
C1754 C 0.79548 0.48495 0.78849 0.0
H1755 H 0.72379 0.52153 0.84174 0.0
H1756 H 0.7465 0.52377 0.81694 0.0
H1757 H 0.78418 0.47521 0.81388 0.0
H1758 H 0.83344 0.46649 0.73375 0.0
H1759 H 0.809 0.46695 0.75671 0.0
H1760 H 0.77602 0.51756 0.76067 0.0
C1761 C 0.74302 0.51026 0.82231 0.0
C1762 C 0.78208 0.48438 0.80226 0.0
C1763 C 0.73008 0.50899 0.83657 0.0
C1764 C 0.82835 0.47972 0.73849 0.0
C1765 C 0.8144 0.47997 0.75171 0.0
C1766 C 0.77793 0.50836 0.7723 0.0
C1767 C 0.7518 0.49432 0.81555 0.0
C1768 C 0.76627 0.49557 0.80111 0.0
C1769 C 0.80755 0.49678 0.75849 0.0
C1770 C 0.79348 0.4968 0.77329 0.0
H1771 H 0.73101 0.46232 0.84289 0.0
H1772 H 0.75319 0.46449 0.81786 0.0
H1773 H 0.75233 0.51641 0.7847 0.0
H1774 H 0.83416 0.52616 0.73329 0.0
H1775 H 0.80963 0.52655 0.75648 0.0
loop_
_geom_bond_atom_site_label_1
_geom_bond_atom_site_label_2
_geom_bond_distance
_geom_bond_site_symmetry_2
_ccdc_geom_bond_type
Zn0 O3 2.031 . S
Zn0 O5 2.049 . S
Zn0 O10 2.067 . S
Zn1 O2 1.962 . S
Zn1 O4 1.986 . S
Zn1 O6 1.996 . S
Zn1 O9 1.943 . S
O2 Zn1 1.962 . S
O2 C7 1.254 . S
O3 Zn0 2.031 . S
O3 C7 1.269 . S
O4 Zn1 1.986 . S
O4 C11 1.262 . S
O5 Zn0 2.049 . S
O5 C13 1.260 . S
O6 Zn1 1.996 . S
O6 C13 1.257 . S
C7 O2 1.254 . S
C7 O3 1.269 . S
C8 O9 1.249 . S
C8 O10 1.270 . S
O9 Zn1 1.943 . S
O9 C8 1.249 . S
O10 Zn0 2.067 . S
O10 C8 1.270 . S
C11 O4 1.262 . S
C11 O12 1.232 . S
O12 C11 1.232 . S
C13 O5 1.260 . S
C13 O6 1.257 . S
Zn14 O17 2.031 . S
Zn14 O19 2.049 . S
Zn14 O24 2.067 . S
Zn15 O16 1.962 . S
Zn15 O18 1.986 . S
Zn15 O20 1.996 . S
Zn15 O23 1.943 . S
O16 Zn15 1.962 . S
O16 C21 1.254 . S
O17 Zn14 2.031 . S
O17 C21 1.269 . S
O18 Zn15 1.986 . S
O18 C25 1.262 . S
O19 Zn14 2.049 . S
O19 C27 1.260 . S
O20 Zn15 1.996 . S
O20 C27 1.257 . S
C21 O16 1.254 . S
C21 O17 1.269 . S
C22 O23 1.249 . S
C22 O24 1.270 . S
O23 Zn15 1.943 . S
O23 C22 1.249 . S
O24 Zn14 2.067 . S
O24 C22 1.270 . S
C25 O18 1.262 . S
C25 O26 1.232 . S
O26 C25 1.232 . S
C27 O19 1.260 . S
C27 O20 1.257 . S
Zn28 O31 2.031 . S
Zn28 O33 2.049 . S
Zn28 O38 2.067 . S
Zn29 O30 1.962 . S
Zn29 O32 1.986 . S
Zn29 O34 1.996 . S
Zn29 O37 1.943 . S
O30 Zn29 1.962 . S
O30 C35 1.254 . S
O31 Zn28 2.031 . S
O31 C35 1.269 . S
O32 Zn29 1.986 . S
O32 C39 1.262 . S
O33 Zn28 2.049 . S
O33 C41 1.260 . S
O34 Zn29 1.996 . S
O34 C41 1.257 . S
C35 O30 1.254 . S
C35 O31 1.269 . S
C36 O37 1.249 . S
C36 O38 1.270 . S
O37 Zn29 1.943 . S
O37 C36 1.249 . S
O38 Zn28 2.067 . S
O38 C36 1.270 . S
C39 O32 1.262 . S
C39 O40 1.232 . S
O40 C39 1.232 . S
C41 O33 1.260 . S
C41 O34 1.257 . S
Zn42 O45 2.031 . S
Zn42 O47 2.049 . S
Zn42 O52 2.067 . S
Zn43 O44 1.962 . S
Zn43 O46 1.986 . S
Zn43 O48 1.996 . S
Zn43 O51 1.943 . S
O44 Zn43 1.962 . S
O44 C49 1.254 . S
O45 Zn42 2.031 . S
O45 C49 1.269 . S
O46 Zn43 1.986 . S
O46 C53 1.262 . S
O47 Zn42 2.049 . S
O47 C55 1.260 . S
O48 Zn43 1.996 . S
O48 C55 1.257 . S
C49 O44 1.254 . S
C49 O45 1.269 . S
C50 O51 1.249 . S
C50 O52 1.270 . S
O51 Zn43 1.943 . S
O51 C50 1.249 . S
O52 Zn42 2.067 . S
O52 C50 1.270 . S
C53 O46 1.262 . S
C53 O54 1.232 . S
O54 C53 1.232 . S
C55 O47 1.260 . S
C55 O48 1.257 . S
Zn56 O59 2.031 . S
Zn56 O61 2.049 . S
Zn56 O66 2.067 . S
Zn57 O58 1.962 . S
Zn57 O60 1.986 . S
Zn57 O62 1.996 . S
Zn57 O65 1.943 . S
O58 Zn57 1.962 . S
O58 C63 1.254 . S
O59 Zn56 2.031 . S
O59 C63 1.269 . S
O60 Zn57 1.986 . S
O60 C67 1.262 . S
O61 Zn56 2.049 . S
O61 C69 1.260 . S
O62 Zn57 1.996 . S
O62 C69 1.257 . S
C63 O58 1.254 . S
C63 O59 1.269 . S
C64 O65 1.249 . S
C64 O66 1.270 . S
O65 Zn57 1.943 . S
O65 C64 1.249 . S
O66 Zn56 2.067 . S
O66 C64 1.270 . S
C67 O60 1.262 . S
C67 O68 1.232 . S
O68 C67 1.232 . S
C69 O61 1.260 . S
C69 O62 1.257 . S
Zn70 O73 2.031 . S
Zn70 O75 2.049 . S
Zn70 O80 2.067 . S
Zn71 O72 1.962 . S
Zn71 O74 1.986 . S
Zn71 O76 1.996 . S
Zn71 O79 1.943 . S
O72 Zn71 1.962 . S
O72 C77 1.254 . S
O73 Zn70 2.031 . S
O73 C77 1.269 . S
O74 Zn71 1.986 . S
O74 C81 1.262 . S
O75 Zn70 2.049 . S
O75 C83 1.260 . S
O76 Zn71 1.996 . S
O76 C83 1.257 . S
C77 O72 1.254 . S
C77 O73 1.269 . S
C78 O79 1.249 . S
C78 O80 1.270 . S
O79 Zn71 1.943 . S
O79 C78 1.249 . S
O80 Zn70 2.067 . S
O80 C78 1.270 . S
C81 O74 1.262 . S
C81 O82 1.232 . S
O82 C81 1.232 . S
C83 O75 1.260 . S
C83 O76 1.257 . S
Zn84 O87 2.031 . S
Zn84 O89 2.049 . S
Zn84 O94 2.067 . S
Zn85 O86 1.962 . S
Zn85 O88 1.986 . S
Zn85 O90 1.996 . S
Zn85 O93 1.943 . S
O86 Zn85 1.962 . S
O86 C91 1.254 . S
O87 Zn84 2.031 . S
O87 C91 1.269 . S
O88 Zn85 1.986 . S
O88 C95 1.262 . S
O89 Zn84 2.049 . S
O89 C97 1.260 . S
O90 Zn85 1.996 . S
O90 C97 1.257 . S
C91 O86 1.254 . S
C91 O87 1.269 . S
C92 O93 1.249 . S
C92 O94 1.270 . S
O93 Zn85 1.943 . S
O93 C92 1.249 . S
O94 Zn84 2.067 . S
O94 C92 1.270 . S
C95 O88 1.262 . S
C95 O96 1.232 . S
O96 C95 1.232 . S
C97 O89 1.260 . S
C97 O90 1.257 . S
Zn98 O101 2.031 . S
Zn98 O103 2.049 . S
Zn98 O108 2.067 . S
Zn99 O100 1.962 . S
Zn99 O102 1.986 . S
Zn99 O104 1.996 . S
Zn99 O107 1.943 . S
O100 Zn99 1.962 . S
O100 C105 1.254 . S
O101 Zn98 2.031 . S
O101 C105 1.269 . S
O102 Zn99 1.986 . S
O102 C109 1.262 . S
O103 Zn98 2.049 . S
O103 C111 1.260 . S
O104 Zn99 1.996 . S
O104 C111 1.257 . S
C105 O100 1.254 . S
C105 O101 1.269 . S
C106 O107 1.249 . S
C106 O108 1.270 . S
O107 Zn99 1.943 . S
O107 C106 1.249 . S
O108 Zn98 2.067 . S
O108 C106 1.270 . S
C109 O102 1.262 . S
C109 O110 1.232 . S
O110 C109 1.232 . S
C111 O103 1.260 . S
C111 O104 1.257 . S
Zn112 O115 2.031 . S
Zn112 O117 2.049 . S
Zn112 O122 2.067 . S
Zn113 O114 1.962 . S
Zn113 O116 1.986 . S
Zn113 O118 1.996 . S
Zn113 O121 1.943 . S
O114 Zn113 1.962 . S
O114 C119 1.254 . S
O115 Zn112 2.031 . S
O115 C119 1.269 . S
O116 Zn113 1.986 . S
O116 C123 1.262 . S
O117 Zn112 2.049 . S
O117 C125 1.260 . S
O118 Zn113 1.996 . S
O118 C125 1.257 . S
C119 O114 1.254 . S
C119 O115 1.269 . S
C120 O121 1.249 . S
C120 O122 1.270 . S
O121 Zn113 1.943 . S
O121 C120 1.249 . S
O122 Zn112 2.067 . S
O122 C120 1.270 . S
C123 O116 1.262 . S
C123 O124 1.232 . S
O124 C123 1.232 . S
C125 O117 1.260 . S
C125 O118 1.257 . S
Zn126 O129 2.031 . S
Zn126 O131 2.049 . S
Zn126 O136 2.067 . S
Zn127 O128 1.962 . S
Zn127 O130 1.986 . S
Zn127 O132 1.996 . S
Zn127 O135 1.943 . S
O128 Zn127 1.962 . S
O128 C133 1.254 . S
O129 Zn126 2.031 . S
O129 C133 1.269 . S
O130 Zn127 1.986 . S
O130 C137 1.262 . S
O131 Zn126 2.049 . S
O131 C139 1.260 . S
O132 Zn127 1.996 . S
O132 C139 1.257 . S
C133 O128 1.254 . S
C133 O129 1.269 . S
C134 O135 1.249 . S
C134 O136 1.270 . S
O135 Zn127 1.943 . S
O135 C134 1.249 . S
O136 Zn126 2.067 . S
O136 C134 1.270 . S
C137 O130 1.262 . S
C137 O138 1.232 . S
O138 C137 1.232 . S
C139 O131 1.260 . S
C139 O132 1.257 . S
Zn140 O143 2.031 . S
Zn140 O145 2.049 . S
Zn140 O150 2.067 . S
Zn141 O142 1.962 . S
Zn141 O144 1.986 . S
Zn141 O146 1.996 . S
Zn141 O149 1.943 . S
O142 Zn141 1.962 . S
O142 C147 1.254 . S
O143 Zn140 2.031 . S
O143 C147 1.269 . S
O144 Zn141 1.986 . S
O144 C151 1.262 . S
O145 Zn140 2.049 . S
O145 C153 1.260 . S
O146 Zn141 1.996 . S
O146 C153 1.257 . S
C147 O142 1.254 . S
C147 O143 1.269 . S
C148 O149 1.249 . S
C148 O150 1.270 . S
O149 Zn141 1.943 . S
O149 C148 1.249 . S
O150 Zn140 2.067 . S
O150 C148 1.270 . S
C151 O144 1.262 . S
C151 O152 1.232 . S
O152 C151 1.232 . S
C153 O145 1.260 . S
C153 O146 1.257 . S
Zn154 O157 2.031 . S
Zn154 O159 2.049 . S
Zn154 O164 2.067 . S
Zn155 O156 1.962 . S
Zn155 O158 1.986 . S
Zn155 O160 1.996 . S
Zn155 O163 1.943 . S
O156 Zn155 1.962 . S
O156 C161 1.254 . S
O157 Zn154 2.031 . S
O157 C161 1.269 . S
O158 Zn155 1.986 . S
O158 C165 1.262 . S
O159 Zn154 2.049 . S
O159 C167 1.260 . S
O160 Zn155 1.996 . S
O160 C167 1.257 . S
C161 O156 1.254 . S
C161 O157 1.269 . S
C162 O163 1.249 . S
C162 O164 1.270 . S
O163 Zn155 1.943 . S
O163 C162 1.249 . S
O164 Zn154 2.067 . S
O164 C162 1.270 . S
C165 O158 1.262 . S
C165 O166 1.232 . S
O166 C165 1.232 . S
C167 O159 1.260 . S
C167 O160 1.257 . S
Zn168 O171 2.031 . S
Zn168 O173 2.049 . S
Zn168 O178 2.067 . S
Zn169 O170 1.962 . S
Zn169 O172 1.986 . S
Zn169 O174 1.996 . S
Zn169 O177 1.943 . S
O170 Zn169 1.962 . S
O170 C175 1.254 . S
O171 Zn168 2.031 . S
O171 C175 1.269 . S
O172 Zn169 1.986 . S
O172 C179 1.262 . S
O173 Zn168 2.049 . S
O173 C181 1.260 . S
O174 Zn169 1.996 . S
O174 C181 1.257 . S
C175 O170 1.254 . S
C175 O171 1.269 . S
C176 O177 1.249 . S
C176 O178 1.270 . S
O177 Zn169 1.943 . S
O177 C176 1.249 . S
O178 Zn168 2.067 . S
O178 C176 1.270 . S
C179 O172 1.262 . S
C179 O180 1.232 . S
O180 C179 1.232 . S
C181 O173 1.260 . S
C181 O174 1.257 . S
Zn182 O185 2.031 . S
Zn182 O187 2.049 . S
Zn182 O192 2.067 . S
Zn183 O184 1.962 . S
Zn183 O186 1.986 . S
Zn183 O188 1.996 . S
Zn183 O191 1.943 . S
O184 Zn183 1.962 . S
O184 C189 1.254 . S
O185 Zn182 2.031 . S
O185 C189 1.269 . S
O186 Zn183 1.986 . S
O186 C193 1.262 . S
O187 Zn182 2.049 . S
O187 C195 1.260 . S
O188 Zn183 1.996 . S
O188 C195 1.257 . S
C189 O184 1.254 . S
C189 O185 1.269 . S
C190 O191 1.249 . S
C190 O192 1.270 . S
O191 Zn183 1.943 . S
O191 C190 1.249 . S
O192 Zn182 2.067 . S
O192 C190 1.270 . S
C193 O186 1.262 . S
C193 O194 1.232 . S
O194 C193 1.232 . S
C195 O187 1.260 . S
C195 O188 1.257 . S
Zn196 O199 2.031 . S
Zn196 O201 2.049 . S
Zn196 O206 2.067 . S
Zn197 O198 1.962 . S
Zn197 O200 1.986 . S
Zn197 O202 1.996 . S
Zn197 O205 1.943 . S
O198 Zn197 1.962 . S
O198 C203 1.254 . S
O199 Zn196 2.031 . S
O199 C203 1.269 . S
O200 Zn197 1.986 . S
O200 C207 1.262 . S
O201 Zn196 2.049 . S
O201 C209 1.260 . S
O202 Zn197 1.996 . S
O202 C209 1.257 . S
C203 O198 1.254 . S
C203 O199 1.269 . S
C204 O205 1.249 . S
C204 O206 1.270 . S
O205 Zn197 1.943 . S
O205 C204 1.249 . S
O206 Zn196 2.067 . S
O206 C204 1.270 . S
C207 O200 1.262 . S
C207 O208 1.232 . S
O208 C207 1.232 . S
C209 O201 1.260 . S
C209 O202 1.257 . S
Zn210 O213 2.031 . S
Zn210 O215 2.049 . S
Zn210 O220 2.067 . S
Zn211 O212 1.962 . S
Zn211 O214 1.986 . S
Zn211 O216 1.996 . S
Zn211 O219 1.943 . S
O212 Zn211 1.962 . S
O212 C217 1.254 . S
O213 Zn210 2.031 . S
O213 C217 1.269 . S
O214 Zn211 1.986 . S
O214 C221 1.262 . S
O215 Zn210 2.049 . S
O215 C223 1.260 . S
O216 Zn211 1.996 . S
O216 C223 1.257 . S
C217 O212 1.254 . S
C217 O213 1.269 . S
C218 O219 1.249 . S
C218 O220 1.270 . S
O219 Zn211 1.943 . S
O219 C218 1.249 . S
O220 Zn210 2.067 . S
O220 C218 1.270 . S
C221 O214 1.262 . S
C221 O222 1.232 . S
O222 C221 1.232 . S
C223 O215 1.260 . S
C223 O216 1.257 . S
Zn224 O227 2.031 . S
Zn224 O229 2.049 . S
Zn224 O234 2.067 . S
Zn225 O226 1.962 . S
Zn225 O228 1.986 . S
Zn225 O230 1.996 . S
Zn225 O233 1.943 . S
O226 Zn225 1.962 . S
O226 C231 1.254 . S
O227 Zn224 2.031 . S
O227 C231 1.269 . S
O228 Zn225 1.986 . S
O228 C235 1.262 . S
O229 Zn224 2.049 . S
O229 C237 1.260 . S
O230 Zn225 1.996 . S
O230 C237 1.257 . S
C231 O226 1.254 . S
C231 O227 1.269 . S
C232 O233 1.249 . S
C232 O234 1.270 . S
O233 Zn225 1.943 . S
O233 C232 1.249 . S
O234 Zn224 2.067 . S
O234 C232 1.270 . S
C235 O228 1.262 . S
C235 O236 1.232 . S
O236 C235 1.232 . S
C237 O229 1.260 . S
C237 O230 1.257 . S
Zn238 O241 2.031 . S
Zn238 O243 2.049 . S
Zn238 O248 2.067 . S
Zn239 O240 1.962 . S
Zn239 O242 1.986 . S
Zn239 O244 1.996 . S
Zn239 O247 1.943 . S
O240 Zn239 1.962 . S
O240 C245 1.254 . S
O241 Zn238 2.031 . S
O241 C245 1.269 . S
O242 Zn239 1.986 . S
O242 C249 1.262 . S
O243 Zn238 2.049 . S
O243 C251 1.260 . S
O244 Zn239 1.996 . S
O244 C251 1.257 . S
C245 O240 1.254 . S
C245 O241 1.269 . S
C246 O247 1.249 . S
C246 O248 1.270 . S
O247 Zn239 1.943 . S
O247 C246 1.249 . S
O248 Zn238 2.067 . S
O248 C246 1.270 . S
C249 O242 1.262 . S
C249 O250 1.232 . S
O250 C249 1.232 . S
C251 O243 1.260 . S
C251 O244 1.257 . S
Zn252 O255 2.031 . S
Zn252 O257 2.049 . S
Zn252 O262 2.067 . S
Zn253 O254 1.962 . S
Zn253 O256 1.986 . S
Zn253 O258 1.996 . S
Zn253 O261 1.943 . S
O254 Zn253 1.962 . S
O254 C259 1.254 . S
O255 Zn252 2.031 . S
O255 C259 1.269 . S
O256 Zn253 1.986 . S
O256 C263 1.262 . S
O257 Zn252 2.049 . S
O257 C265 1.260 . S
O258 Zn253 1.996 . S
O258 C265 1.257 . S
C259 O254 1.254 . S
C259 O255 1.269 . S
C260 O261 1.249 . S
C260 O262 1.270 . S
O261 Zn253 1.943 . S
O261 C260 1.249 . S
O262 Zn252 2.067 . S
O262 C260 1.270 . S
C263 O256 1.262 . S
C263 O264 1.232 . S
O264 C263 1.232 . S
C265 O257 1.260 . S
C265 O258 1.257 . S
Zn266 O269 2.031 . S
Zn266 O271 2.049 . S
Zn266 O276 2.067 . S
Zn267 O268 1.962 . S
Zn267 O270 1.986 . S
Zn267 O272 1.996 . S
Zn267 O275 1.943 . S
O268 Zn267 1.962 . S
O268 C273 1.254 . S
O269 Zn266 2.031 . S
O269 C273 1.269 . S
O270 Zn267 1.986 . S
O270 C277 1.262 . S
O271 Zn266 2.049 . S
O271 C279 1.260 . S
O272 Zn267 1.996 . S
O272 C279 1.257 . S
C273 O268 1.254 . S
C273 O269 1.269 . S
C274 O275 1.249 . S
C274 O276 1.270 . S
O275 Zn267 1.943 . S
O275 C274 1.249 . S
O276 Zn266 2.067 . S
O276 C274 1.270 . S
C277 O270 1.262 . S
C277 O278 1.232 . S
O278 C277 1.232 . S
C279 O271 1.260 . S
C279 O272 1.257 . S
Zn280 O283 2.031 . S
Zn280 O285 2.049 . S
Zn280 O290 2.067 . S
Zn281 O282 1.962 . S
Zn281 O284 1.986 . S
Zn281 O286 1.996 . S
Zn281 O289 1.943 . S
O282 Zn281 1.962 . S
O282 C287 1.254 . S
O283 Zn280 2.031 . S
O283 C287 1.269 . S
O284 Zn281 1.986 . S
O284 C291 1.262 . S
O285 Zn280 2.049 . S
O285 C293 1.260 . S
O286 Zn281 1.996 . S
O286 C293 1.257 . S
C287 O282 1.254 . S
C287 O283 1.269 . S
C288 O289 1.249 . S
C288 O290 1.270 . S
O289 Zn281 1.943 . S
O289 C288 1.249 . S
O290 Zn280 2.067 . S
O290 C288 1.270 . S
C291 O284 1.262 . S
C291 O292 1.232 . S
O292 C291 1.232 . S
C293 O285 1.260 . S
C293 O286 1.257 . S
Zn294 O297 2.031 . S
Zn294 O299 2.049 . S
Zn294 O304 2.067 . S
Zn295 O296 1.962 . S
Zn295 O298 1.986 . S
Zn295 O300 1.996 . S
Zn295 O303 1.943 . S
O296 Zn295 1.962 . S
O296 C301 1.254 . S
O297 Zn294 2.031 . S
O297 C301 1.269 . S
O298 Zn295 1.986 . S
O298 C305 1.262 . S
O299 Zn294 2.049 . S
O299 C307 1.260 . S
O300 Zn295 1.996 . S
O300 C307 1.257 . S
C301 O296 1.254 . S
C301 O297 1.269 . S
C302 O303 1.249 . S
C302 O304 1.270 . S
O303 Zn295 1.943 . S
O303 C302 1.249 . S
O304 Zn294 2.067 . S
O304 C302 1.270 . S
C305 O298 1.262 . S
C305 O306 1.232 . S
O306 C305 1.232 . S
C307 O299 1.260 . S
C307 O300 1.257 . S
Zn308 O311 2.031 . S
Zn308 O313 2.049 . S
Zn308 O318 2.067 . S
Zn309 O310 1.962 . S
Zn309 O312 1.986 . S
Zn309 O314 1.996 . S
Zn309 O317 1.943 . S
O310 Zn309 1.962 . S
O310 C315 1.254 . S
O311 Zn308 2.031 . S
O311 C315 1.269 . S
O312 Zn309 1.986 . S
O312 C319 1.262 . S
O313 Zn308 2.049 . S
O313 C321 1.260 . S
O314 Zn309 1.996 . S
O314 C321 1.257 . S
C315 O310 1.254 . S
C315 O311 1.269 . S
C316 O317 1.249 . S
C316 O318 1.270 . S
O317 Zn309 1.943 . S
O317 C316 1.249 . S
O318 Zn308 2.067 . S
O318 C316 1.270 . S
C319 O312 1.262 . S
C319 O320 1.232 . S
O320 C319 1.232 . S
C321 O313 1.260 . S
C321 O314 1.257 . S
Zn322 O325 2.031 . S
Zn322 O327 2.049 . S
Zn322 O332 2.067 . S
Zn323 O324 1.962 . S
Zn323 O326 1.986 . S
Zn323 O328 1.996 . S
Zn323 O331 1.943 . S
O324 Zn323 1.962 . S
O324 C329 1.254 . S
O325 Zn322 2.031 . S
O325 C329 1.269 . S
O326 Zn323 1.986 . S
O326 C333 1.262 . S
O327 Zn322 2.049 . S
O327 C335 1.260 . S
O328 Zn323 1.996 . S
O328 C335 1.257 . S
C329 O324 1.254 . S
C329 O325 1.269 . S
C330 O331 1.249 . S
C330 O332 1.270 . S
O331 Zn323 1.943 . S
O331 C330 1.249 . S
O332 Zn322 2.067 . S
O332 C330 1.270 . S
C333 O326 1.262 . S
C333 O334 1.232 . S
O334 C333 1.232 . S
C335 O327 1.260 . S
C335 O328 1.257 . S
C336 C337 1.349 . S
C336 C338 1.327 . S
C336 H361 0.950 . S
C337 C336 1.349 . S
C337 C353 1.349 . S
C338 C336 1.327 . S
C338 C357 1.429 . S
C338 H362 0.950 . S
C339 C356 1.574 . S
C339 C358 1.368 . S
C339 H363 0.949 . S
H340 C344 0.949 . S
C341 C342 1.349 . S
C341 C343 1.327 . S
C341 H364 0.950 . S
C342 C341 1.349 . S
C342 C354 1.349 . S
C343 C341 1.327 . S
C343 C359 1.429 . S
C343 H365 0.950 . S
C344 H340 0.949 . S
C344 C352 1.574 . S
C344 C360 1.368 . S
H345 C353 0.950 . S
H346 C351 0.950 . S
H347 C352 0.949 . S
H348 C354 0.950 . S
H349 C355 0.950 . S
H350 C356 0.949 . S
C351 H346 0.950 . S
C351 C353 1.327 . S
C351 C357 1.429 . S
C352 C344 1.574 . S
C352 H347 0.949 . S
C352 C358 1.368 . S
C353 C337 1.349 . S
C353 H345 0.950 . S
C353 C351 1.327 . S
C354 C342 1.349 . S
C354 H348 0.950 . S
C354 C355 1.327 . S
C355 H349 0.950 . S
C355 C354 1.327 . S
C355 C359 1.429 . S
C356 C339 1.574 . S
C356 H350 0.949 . S
C356 C360 1.368 . S
C357 C338 1.429 . S
C357 C351 1.429 . S
C357 C358 1.523 . S
C358 C339 1.368 . S
C358 C352 1.368 . S
C358 C357 1.523 . S
C359 C343 1.429 . S
C359 C355 1.429 . S
C359 C360 1.523 . S
C360 C344 1.368 . S
C360 C356 1.368 . S
C360 C359 1.523 . S
H361 C336 0.950 . S
H362 C338 0.950 . S
H363 C339 0.949 . S
H364 C341 0.950 . S
H365 C343 0.950 . S
C366 C367 1.349 . S
C366 C368 1.327 . S
C366 H391 0.950 . S
C367 C366 1.349 . S
C367 C383 1.349 . S
C368 C366 1.327 . S
C368 C387 1.429 . S
C368 H392 0.950 . S
C369 C386 1.574 . S
C369 C388 1.368 . S
C369 H393 0.949 . S
H370 C374 0.949 . S
C371 C372 1.349 . S
C371 C373 1.327 . S
C371 H394 0.950 . S
C372 C371 1.349 . S
C372 C384 1.349 . S
C373 C371 1.327 . S
C373 C389 1.429 . S
C373 H395 0.950 . S
C374 H370 0.949 . S
C374 C382 1.574 . S
C374 C390 1.368 . S
H375 C383 0.950 . S
H376 C381 0.950 . S
H377 C382 0.949 . S
H378 C384 0.950 . S
H379 C385 0.950 . S
H380 C386 0.949 . S
C381 H376 0.950 . S
C381 C383 1.327 . S
C381 C387 1.429 . S
C382 C374 1.574 . S
C382 H377 0.949 . S
C382 C388 1.368 . S
C383 C367 1.349 . S
C383 H375 0.950 . S
C383 C381 1.327 . S
C384 C372 1.349 . S
C384 H378 0.950 . S
C384 C385 1.327 . S
C385 H379 0.950 . S
C385 C384 1.327 . S
C385 C389 1.429 . S
C386 C369 1.574 . S
C386 H380 0.949 . S
C386 C390 1.368 . S
C387 C368 1.429 . S
C387 C381 1.429 . S
C387 C388 1.523 . S
C388 C369 1.368 . S
C388 C382 1.368 . S
C388 C387 1.523 . S
C389 C373 1.429 . S
C389 C385 1.429 . S
C389 C390 1.523 . S
C390 C374 1.368 . S
C390 C386 1.368 . S
C390 C389 1.523 . S
H391 C366 0.950 . S
H392 C368 0.950 . S
H393 C369 0.949 . S
H394 C371 0.950 . S
H395 C373 0.950 . S
C396 C397 1.349 . S
C396 C398 1.327 . S
C396 H421 0.950 . S
C397 C396 1.349 . S
C397 C413 1.349 . S
C398 C396 1.327 . S
C398 C417 1.429 . S
C398 H422 0.950 . S
C399 C416 1.574 . S
C399 C418 1.368 . S
C399 H423 0.949 . S
H400 C404 0.949 . S
C401 C402 1.349 . S
C401 C403 1.327 . S
C401 H424 0.950 . S
C402 C401 1.349 . S
C402 C414 1.349 . S
C403 C401 1.327 . S
C403 C419 1.429 . S
C403 H425 0.950 . S
C404 H400 0.949 . S
C404 C412 1.574 . S
C404 C420 1.368 . S
H405 C413 0.950 . S
H406 C411 0.950 . S
H407 C412 0.949 . S
H408 C414 0.950 . S
H409 C415 0.950 . S
H410 C416 0.949 . S
C411 H406 0.950 . S
C411 C413 1.327 . S
C411 C417 1.429 . S
C412 C404 1.574 . S
C412 H407 0.949 . S
C412 C418 1.368 . S
C413 C397 1.349 . S
C413 H405 0.950 . S
C413 C411 1.327 . S
C414 C402 1.349 . S
C414 H408 0.950 . S
C414 C415 1.327 . S
C415 H409 0.950 . S
C415 C414 1.327 . S
C415 C419 1.429 . S
C416 C399 1.574 . S
C416 H410 0.949 . S
C416 C420 1.368 . S
C417 C398 1.429 . S
C417 C411 1.429 . S
C417 C418 1.523 . S
C418 C399 1.368 . S
C418 C412 1.368 . S
C418 C417 1.523 . S
C419 C403 1.429 . S
C419 C415 1.429 . S
C419 C420 1.523 . S
C420 C404 1.368 . S
C420 C416 1.368 . S
C420 C419 1.523 . S
H421 C396 0.950 . S
H422 C398 0.950 . S
H423 C399 0.949 . S
H424 C401 0.950 . S
H425 C403 0.950 . S
C426 C427 1.349 . S
C426 C428 1.327 . S
C426 H451 0.950 . S
C427 C426 1.349 . S
C427 C443 1.349 . S
C428 C426 1.327 . S
C428 C447 1.429 . S
C428 H452 0.950 . S
C429 C446 1.574 . S
C429 C448 1.368 . S
C429 H453 0.949 . S
H430 C434 0.949 . S
C431 C432 1.349 . S
C431 C433 1.327 . S
C431 H454 0.950 . S
C432 C431 1.349 . S
C432 C444 1.349 . S
C433 C431 1.327 . S
C433 C449 1.429 . S
C433 H455 0.950 . S
C434 H430 0.949 . S
C434 C442 1.574 . S
C434 C450 1.368 . S
H435 C443 0.950 . S
H436 C441 0.950 . S
H437 C442 0.949 . S
H438 C444 0.950 . S
H439 C445 0.950 . S
H440 C446 0.949 . S
C441 H436 0.950 . S
C441 C443 1.327 . S
C441 C447 1.429 . S
C442 C434 1.574 . S
C442 H437 0.949 . S
C442 C448 1.368 . S
C443 C427 1.349 . S
C443 H435 0.950 . S
C443 C441 1.327 . S
C444 C432 1.349 . S
C444 H438 0.950 . S
C444 C445 1.327 . S
C445 H439 0.950 . S
C445 C444 1.327 . S
C445 C449 1.429 . S
C446 C429 1.574 . S
C446 H440 0.949 . S
C446 C450 1.368 . S
C447 C428 1.429 . S
C447 C441 1.429 . S
C447 C448 1.523 . S
C448 C429 1.368 . S
C448 C442 1.368 . S
C448 C447 1.523 . S
C449 C433 1.429 . S
C449 C445 1.429 . S
C449 C450 1.523 . S
C450 C434 1.368 . S
C450 C446 1.368 . S
C450 C449 1.523 . S
H451 C426 0.950 . S
H452 C428 0.950 . S
H453 C429 0.949 . S
H454 C431 0.950 . S
H455 C433 0.950 . S
C456 C457 1.349 . S
C456 C458 1.327 . S
C456 H481 0.950 . S
C457 C456 1.349 . S
C457 C473 1.349 . S
C458 C456 1.327 . S
C458 C477 1.429 . S
C458 H482 0.950 . S
C459 C476 1.574 . S
C459 C478 1.368 . S
C459 H483 0.949 . S
H460 C464 0.949 . S
C461 C462 1.349 . S
C461 C463 1.327 . S
C461 H484 0.950 . S
C462 C461 1.349 . S
C462 C474 1.349 . S
C463 C461 1.327 . S
C463 C479 1.429 . S
C463 H485 0.950 . S
C464 H460 0.949 . S
C464 C472 1.574 . S
C464 C480 1.368 . S
H465 C473 0.950 . S
H466 C471 0.950 . S
H467 C472 0.949 . S
H468 C474 0.950 . S
H469 C475 0.950 . S
H470 C476 0.949 . S
C471 H466 0.950 . S
C471 C473 1.327 . S
C471 C477 1.429 . S
C472 C464 1.574 . S
C472 H467 0.949 . S
C472 C478 1.368 . S
C473 C457 1.349 . S
C473 H465 0.950 . S
C473 C471 1.327 . S
C474 C462 1.349 . S
C474 H468 0.950 . S
C474 C475 1.327 . S
C475 H469 0.950 . S
C475 C474 1.327 . S
C475 C479 1.429 . S
C476 C459 1.574 . S
C476 H470 0.949 . S
C476 C480 1.368 . S
C477 C458 1.429 . S
C477 C471 1.429 . S
C477 C478 1.523 . S
C478 C459 1.368 . S
C478 C472 1.368 . S
C478 C477 1.523 . S
C479 C463 1.429 . S
C479 C475 1.429 . S
C479 C480 1.523 . S
C480 C464 1.368 . S
C480 C476 1.368 . S
C480 C479 1.523 . S
H481 C456 0.950 . S
H482 C458 0.950 . S
H483 C459 0.949 . S
H484 C461 0.950 . S
H485 C463 0.950 . S
C486 C487 1.349 . S
C486 C488 1.327 . S
C486 H511 0.950 . S
C487 C486 1.349 . S
C487 C503 1.349 . S
C488 C486 1.327 . S
C488 C507 1.429 . S
C488 H512 0.950 . S
C489 C506 1.574 . S
C489 C508 1.368 . S
C489 H513 0.949 . S
H490 C494 0.949 . S
C491 C492 1.349 . S
C491 C493 1.327 . S
C491 H514 0.950 . S
C492 C491 1.349 . S
C492 C504 1.349 . S
C493 C491 1.327 . S
C493 C509 1.429 . S
C493 H515 0.950 . S
C494 H490 0.949 . S
C494 C502 1.574 . S
C494 C510 1.368 . S
H495 C503 0.950 . S
H496 C501 0.950 . S
H497 C502 0.949 . S
H498 C504 0.950 . S
H499 C505 0.950 . S
H500 C506 0.949 . S
C501 H496 0.950 . S
C501 C503 1.327 . S
C501 C507 1.429 . S
C502 C494 1.574 . S
C502 H497 0.949 . S
C502 C508 1.368 . S
C503 C487 1.349 . S
C503 H495 0.950 . S
C503 C501 1.327 . S
C504 C492 1.349 . S
C504 H498 0.950 . S
C504 C505 1.327 . S
C505 H499 0.950 . S
C505 C504 1.327 . S
C505 C509 1.429 . S
C506 C489 1.574 . S
C506 H500 0.949 . S
C506 C510 1.368 . S
C507 C488 1.429 . S
C507 C501 1.429 . S
C507 C508 1.523 . S
C508 C489 1.368 . S
C508 C502 1.368 . S
C508 C507 1.523 . S
C509 C493 1.429 . S
C509 C505 1.429 . S
C509 C510 1.523 . S
C510 C494 1.368 . S
C510 C506 1.368 . S
C510 C509 1.523 . S
H511 C486 0.950 . S
H512 C488 0.950 . S
H513 C489 0.949 . S
H514 C491 0.950 . S
H515 C493 0.950 . S
C516 C517 1.349 . S
C516 C518 1.327 . S
C516 H541 0.950 . S
C517 C516 1.349 . S
C517 C533 1.349 . S
C518 C516 1.327 . S
C518 C537 1.429 . S
C518 H542 0.950 . S
C519 C536 1.574 . S
C519 C538 1.368 . S
C519 H543 0.949 . S
H520 C524 0.949 . S
C521 C522 1.349 . S
C521 C523 1.327 . S
C521 H544 0.950 . S
C522 C521 1.349 . S
C522 C534 1.349 . S
C523 C521 1.327 . S
C523 C539 1.429 . S
C523 H545 0.950 . S
C524 H520 0.949 . S
C524 C532 1.574 . S
C524 C540 1.368 . S
H525 C533 0.950 . S
H526 C531 0.950 . S
H527 C532 0.949 . S
H528 C534 0.950 . S
H529 C535 0.950 . S
H530 C536 0.949 . S
C531 H526 0.950 . S
C531 C533 1.327 . S
C531 C537 1.429 . S
C532 C524 1.574 . S
C532 H527 0.949 . S
C532 C538 1.368 . S
C533 C517 1.349 . S
C533 H525 0.950 . S
C533 C531 1.327 . S
C534 C522 1.349 . S
C534 H528 0.950 . S
C534 C535 1.327 . S
C535 H529 0.950 . S
C535 C534 1.327 . S
C535 C539 1.429 . S
C536 C519 1.574 . S
C536 H530 0.949 . S
C536 C540 1.368 . S
C537 C518 1.429 . S
C537 C531 1.429 . S
C537 C538 1.523 . S
C538 C519 1.368 . S
C538 C532 1.368 . S
C538 C537 1.523 . S
C539 C523 1.429 . S
C539 C535 1.429 . S
C539 C540 1.523 . S
C540 C524 1.368 . S
C540 C536 1.368 . S
C540 C539 1.523 . S
H541 C516 0.950 . S
H542 C518 0.950 . S
H543 C519 0.949 . S
H544 C521 0.950 . S
H545 C523 0.950 . S
C546 C547 1.349 . S
C546 C548 1.327 . S
C546 H571 0.950 . S
C547 C546 1.349 . S
C547 C563 1.349 . S
C548 C546 1.327 . S
C548 C567 1.429 . S
C548 H572 0.950 . S
C549 C566 1.574 . S
C549 C568 1.368 . S
C549 H573 0.949 . S
H550 C554 0.949 . S
C551 C552 1.349 . S
C551 C553 1.327 . S
C551 H574 0.950 . S
C552 C551 1.349 . S
C552 C564 1.349 . S
C553 C551 1.327 . S
C553 C569 1.429 . S
C553 H575 0.950 . S
C554 H550 0.949 . S
C554 C562 1.574 . S
C554 C570 1.368 . S
H555 C563 0.950 . S
H556 C561 0.950 . S
H557 C562 0.949 . S
H558 C564 0.950 . S
H559 C565 0.950 . S
H560 C566 0.949 . S
C561 H556 0.950 . S
C561 C563 1.327 . S
C561 C567 1.429 . S
C562 C554 1.574 . S
C562 H557 0.949 . S
C562 C568 1.368 . S
C563 C547 1.349 . S
C563 H555 0.950 . S
C563 C561 1.327 . S
C564 C552 1.349 . S
C564 H558 0.950 . S
C564 C565 1.327 . S
C565 H559 0.950 . S
C565 C564 1.327 . S
C565 C569 1.429 . S
C566 C549 1.574 . S
C566 H560 0.949 . S
C566 C570 1.368 . S
C567 C548 1.429 . S
C567 C561 1.429 . S
C567 C568 1.523 . S
C568 C549 1.368 . S
C568 C562 1.368 . S
C568 C567 1.523 . S
C569 C553 1.429 . S
C569 C565 1.429 . S
C569 C570 1.523 . S
C570 C554 1.368 . S
C570 C566 1.368 . S
C570 C569 1.523 . S
H571 C546 0.950 . S
H572 C548 0.950 . S
H573 C549 0.949 . S
H574 C551 0.950 . S
H575 C553 0.950 . S
C576 C577 1.349 . S
C576 C578 1.327 . S
C576 H601 0.950 . S
C577 C576 1.349 . S
C577 C593 1.349 . S
C578 C576 1.327 . S
C578 C597 1.429 . S
C578 H602 0.950 . S
C579 C596 1.574 . S
C579 C598 1.368 . S
C579 H603 0.949 . S
H580 C584 0.949 . S
C581 C582 1.349 . S
C581 C583 1.327 . S
C581 H604 0.950 . S
C582 C581 1.349 . S
C582 C594 1.349 . S
C583 C581 1.327 . S
C583 C599 1.429 . S
C583 H605 0.950 . S
C584 H580 0.949 . S
C584 C592 1.574 . S
C584 C600 1.368 . S
H585 C593 0.950 . S
H586 C591 0.950 . S
H587 C592 0.949 . S
H588 C594 0.950 . S
H589 C595 0.950 . S
H590 C596 0.949 . S
C591 H586 0.950 . S
C591 C593 1.327 . S
C591 C597 1.429 . S
C592 C584 1.574 . S
C592 H587 0.949 . S
C592 C598 1.368 . S
C593 C577 1.349 . S
C593 H585 0.950 . S
C593 C591 1.327 . S
C594 C582 1.349 . S
C594 H588 0.950 . S
C594 C595 1.327 . S
C595 H589 0.950 . S
C595 C594 1.327 . S
C595 C599 1.429 . S
C596 C579 1.574 . S
C596 H590 0.949 . S
C596 C600 1.368 . S
C597 C578 1.429 . S
C597 C591 1.429 . S
C597 C598 1.523 . S
C598 C579 1.368 . S
C598 C592 1.368 . S
C598 C597 1.523 . S
C599 C583 1.429 . S
C599 C595 1.429 . S
C599 C600 1.523 . S
C600 C584 1.368 . S
C600 C596 1.368 . S
C600 C599 1.523 . S
H601 C576 0.950 . S
H602 C578 0.950 . S
H603 C579 0.949 . S
H604 C581 0.950 . S
H605 C583 0.950 . S
C606 C607 1.349 . S
C606 C608 1.327 . S
C606 H631 0.950 . S
C607 C606 1.349 . S
C607 C623 1.349 . S
C608 C606 1.327 . S
C608 C627 1.429 . S
C608 H632 0.950 . S
C609 C626 1.574 . S
C609 C628 1.368 . S
C609 H633 0.949 . S
H610 C614 0.949 . S
C611 C612 1.349 . S
C611 C613 1.327 . S
C611 H634 0.950 . S
C612 C611 1.349 . S
C612 C624 1.349 . S
C613 C611 1.327 . S
C613 C629 1.429 . S
C613 H635 0.950 . S
C614 H610 0.949 . S
C614 C622 1.574 . S
C614 C630 1.368 . S
H615 C623 0.950 . S
H616 C621 0.950 . S
H617 C622 0.949 . S
H618 C624 0.950 . S
H619 C625 0.950 . S
H620 C626 0.949 . S
C621 H616 0.950 . S
C621 C623 1.327 . S
C621 C627 1.429 . S
C622 C614 1.574 . S
C622 H617 0.949 . S
C622 C628 1.368 . S
C623 C607 1.349 . S
C623 H615 0.950 . S
C623 C621 1.327 . S
C624 C612 1.349 . S
C624 H618 0.950 . S
C624 C625 1.327 . S
C625 H619 0.950 . S
C625 C624 1.327 . S
C625 C629 1.429 . S
C626 C609 1.574 . S
C626 H620 0.949 . S
C626 C630 1.368 . S
C627 C608 1.429 . S
C627 C621 1.429 . S
C627 C628 1.523 . S
C628 C609 1.368 . S
C628 C622 1.368 . S
C628 C627 1.523 . S
C629 C613 1.429 . S
C629 C625 1.429 . S
C629 C630 1.523 . S
C630 C614 1.368 . S
C630 C626 1.368 . S
C630 C629 1.523 . S
H631 C606 0.950 . S
H632 C608 0.950 . S
H633 C609 0.949 . S
H634 C611 0.950 . S
H635 C613 0.950 . S
C636 C637 1.349 . S
C636 C638 1.327 . S
C636 H661 0.950 . S
C637 C636 1.349 . S
C637 C653 1.349 . S
C638 C636 1.327 . S
C638 C657 1.429 . S
C638 H662 0.950 . S
C639 C656 1.574 . S
C639 C658 1.368 . S
C639 H663 0.949 . S
H640 C644 0.949 . S
C641 C642 1.349 . S
C641 C643 1.327 . S
C641 H664 0.950 . S
C642 C641 1.349 . S
C642 C654 1.349 . S
C643 C641 1.327 . S
C643 C659 1.429 . S
C643 H665 0.950 . S
C644 H640 0.949 . S
C644 C652 1.574 . S
C644 C660 1.368 . S
H645 C653 0.950 . S
H646 C651 0.950 . S
H647 C652 0.949 . S
H648 C654 0.950 . S
H649 C655 0.950 . S
H650 C656 0.949 . S
C651 H646 0.950 . S
C651 C653 1.327 . S
C651 C657 1.429 . S
C652 C644 1.574 . S
C652 H647 0.949 . S
C652 C658 1.368 . S
C653 C637 1.349 . S
C653 H645 0.950 . S
C653 C651 1.327 . S
C654 C642 1.349 . S
C654 H648 0.950 . S
C654 C655 1.327 . S
C655 H649 0.950 . S
C655 C654 1.327 . S
C655 C659 1.429 . S
C656 C639 1.574 . S
C656 H650 0.949 . S
C656 C660 1.368 . S
C657 C638 1.429 . S
C657 C651 1.429 . S
C657 C658 1.523 . S
C658 C639 1.368 . S
C658 C652 1.368 . S
C658 C657 1.523 . S
C659 C643 1.429 . S
C659 C655 1.429 . S
C659 C660 1.523 . S
C660 C644 1.368 . S
C660 C656 1.368 . S
C660 C659 1.523 . S
H661 C636 0.950 . S
H662 C638 0.950 . S
H663 C639 0.949 . S
H664 C641 0.950 . S
H665 C643 0.950 . S
C666 C667 1.349 . S
C666 C668 1.327 . S
C666 H691 0.950 . S
C667 C666 1.349 . S
C667 C683 1.349 . S
C668 C666 1.327 . S
C668 C687 1.429 . S
C668 H692 0.950 . S
C669 C686 1.574 . S
C669 C688 1.368 . S
C669 H693 0.949 . S
H670 C674 0.949 . S
C671 C672 1.349 . S
C671 C673 1.327 . S
C671 H694 0.950 . S
C672 C671 1.349 . S
C672 C684 1.349 . S
C673 C671 1.327 . S
C673 C689 1.429 . S
C673 H695 0.950 . S
C674 H670 0.949 . S
C674 C682 1.574 . S
C674 C690 1.368 . S
H675 C683 0.950 . S
H676 C681 0.950 . S
H677 C682 0.949 . S
H678 C684 0.950 . S
H679 C685 0.950 . S
H680 C686 0.949 . S
C681 H676 0.950 . S
C681 C683 1.327 . S
C681 C687 1.429 . S
C682 C674 1.574 . S
C682 H677 0.949 . S
C682 C688 1.368 . S
C683 C667 1.349 . S
C683 H675 0.950 . S
C683 C681 1.327 . S
C684 C672 1.349 . S
C684 H678 0.950 . S
C684 C685 1.327 . S
C685 H679 0.950 . S
C685 C684 1.327 . S
C685 C689 1.429 . S
C686 C669 1.574 . S
C686 H680 0.949 . S
C686 C690 1.368 . S
C687 C668 1.429 . S
C687 C681 1.429 . S
C687 C688 1.523 . S
C688 C669 1.368 . S
C688 C682 1.368 . S
C688 C687 1.523 . S
C689 C673 1.429 . S
C689 C685 1.429 . S
C689 C690 1.523 . S
C690 C674 1.368 . S
C690 C686 1.368 . S
C690 C689 1.523 . S
H691 C666 0.950 . S
H692 C668 0.950 . S
H693 C669 0.949 . S
H694 C671 0.950 . S
H695 C673 0.950 . S
C696 C697 1.349 . S
C696 C698 1.327 . S
C696 H721 0.950 . S
C697 C696 1.349 . S
C697 C713 1.349 . S
C698 C696 1.327 . S
C698 C717 1.429 . S
C698 H722 0.950 . S
C699 C716 1.574 . S
C699 C718 1.368 . S
C699 H723 0.949 . S
H700 C704 0.949 . S
C701 C702 1.349 . S
C701 C703 1.327 . S
C701 H724 0.950 . S
C702 C701 1.349 . S
C702 C714 1.349 . S
C703 C701 1.327 . S
C703 C719 1.429 . S
C703 H725 0.950 . S
C704 H700 0.949 . S
C704 C712 1.574 . S
C704 C720 1.368 . S
H705 C713 0.950 . S
H706 C711 0.950 . S
H707 C712 0.949 . S
H708 C714 0.950 . S
H709 C715 0.950 . S
H710 C716 0.949 . S
C711 H706 0.950 . S
C711 C713 1.327 . S
C711 C717 1.429 . S
C712 C704 1.574 . S
C712 H707 0.949 . S
C712 C718 1.368 . S
C713 C697 1.349 . S
C713 H705 0.950 . S
C713 C711 1.327 . S
C714 C702 1.349 . S
C714 H708 0.950 . S
C714 C715 1.327 . S
C715 H709 0.950 . S
C715 C714 1.327 . S
C715 C719 1.429 . S
C716 C699 1.574 . S
C716 H710 0.949 . S
C716 C720 1.368 . S
C717 C698 1.429 . S
C717 C711 1.429 . S
C717 C718 1.523 . S
C718 C699 1.368 . S
C718 C712 1.368 . S
C718 C717 1.523 . S
C719 C703 1.429 . S
C719 C715 1.429 . S
C719 C720 1.523 . S
C720 C704 1.368 . S
C720 C716 1.368 . S
C720 C719 1.523 . S
H721 C696 0.950 . S
H722 C698 0.950 . S
H723 C699 0.949 . S
H724 C701 0.950 . S
H725 C703 0.950 . S
C726 C727 1.349 . S
C726 C728 1.327 . S
C726 H751 0.950 . S
C727 C726 1.349 . S
C727 C743 1.349 . S
C728 C726 1.327 . S
C728 C747 1.429 . S
C728 H752 0.950 . S
C729 C746 1.574 . S
C729 C748 1.368 . S
C729 H753 0.949 . S
H730 C734 0.949 . S
C731 C732 1.349 . S
C731 C733 1.327 . S
C731 H754 0.950 . S
C732 C731 1.349 . S
C732 C744 1.349 . S
C733 C731 1.327 . S
C733 C749 1.429 . S
C733 H755 0.950 . S
C734 H730 0.949 . S
C734 C742 1.574 . S
C734 C750 1.368 . S
H735 C743 0.950 . S
H736 C741 0.950 . S
H737 C742 0.949 . S
H738 C744 0.950 . S
H739 C745 0.950 . S
H740 C746 0.949 . S
C741 H736 0.950 . S
C741 C743 1.327 . S
C741 C747 1.429 . S
C742 C734 1.574 . S
C742 H737 0.949 . S
C742 C748 1.368 . S
C743 C727 1.349 . S
C743 H735 0.950 . S
C743 C741 1.327 . S
C744 C732 1.349 . S
C744 H738 0.950 . S
C744 C745 1.327 . S
C745 H739 0.950 . S
C745 C744 1.327 . S
C745 C749 1.429 . S
C746 C729 1.574 . S
C746 H740 0.949 . S
C746 C750 1.368 . S
C747 C728 1.429 . S
C747 C741 1.429 . S
C747 C748 1.523 . S
C748 C729 1.368 . S
C748 C742 1.368 . S
C748 C747 1.523 . S
C749 C733 1.429 . S
C749 C745 1.429 . S
C749 C750 1.523 . S
C750 C734 1.368 . S
C750 C746 1.368 . S
C750 C749 1.523 . S
H751 C726 0.950 . S
H752 C728 0.950 . S
H753 C729 0.949 . S
H754 C731 0.950 . S
H755 C733 0.950 . S
C756 C757 1.349 . S
C756 C758 1.327 . S
C756 H781 0.950 . S
C757 C756 1.349 . S
C757 C773 1.349 . S
C758 C756 1.327 . S
C758 C777 1.429 . S
C758 H782 0.950 . S
C759 C776 1.574 . S
C759 C778 1.368 . S
C759 H783 0.949 . S
H760 C764 0.949 . S
C761 C762 1.349 . S
C761 C763 1.327 . S
C761 H784 0.950 . S
C762 C761 1.349 . S
C762 C774 1.349 . S
C763 C761 1.327 . S
C763 C779 1.429 . S
C763 H785 0.950 . S
C764 H760 0.949 . S
C764 C772 1.574 . S
C764 C780 1.368 . S
H765 C773 0.950 . S
H766 C771 0.950 . S
H767 C772 0.949 . S
H768 C774 0.950 . S
H769 C775 0.950 . S
H770 C776 0.949 . S
C771 H766 0.950 . S
C771 C773 1.327 . S
C771 C777 1.429 . S
C772 C764 1.574 . S
C772 H767 0.949 . S
C772 C778 1.368 . S
C773 C757 1.349 . S
C773 H765 0.950 . S
C773 C771 1.327 . S
C774 C762 1.349 . S
C774 H768 0.950 . S
C774 C775 1.327 . S
C775 H769 0.950 . S
C775 C774 1.327 . S
C775 C779 1.429 . S
C776 C759 1.574 . S
C776 H770 0.949 . S
C776 C780 1.368 . S
C777 C758 1.429 . S
C777 C771 1.429 . S
C777 C778 1.523 . S
C778 C759 1.368 . S
C778 C772 1.368 . S
C778 C777 1.523 . S
C779 C763 1.429 . S
C779 C775 1.429 . S
C779 C780 1.523 . S
C780 C764 1.368 . S
C780 C776 1.368 . S
C780 C779 1.523 . S
H781 C756 0.950 . S
H782 C758 0.950 . S
H783 C759 0.949 . S
H784 C761 0.950 . S
H785 C763 0.950 . S
C786 C787 1.349 . S
C786 C788 1.327 . S
C786 H811 0.950 . S
C787 C786 1.349 . S
C787 C803 1.349 . S
C788 C786 1.327 . S
C788 C807 1.429 . S
C788 H812 0.950 . S
C789 C806 1.574 . S
C789 C808 1.368 . S
C789 H813 0.949 . S
H790 C794 0.949 . S
C791 C792 1.349 . S
C791 C793 1.327 . S
C791 H814 0.950 . S
C792 C791 1.349 . S
C792 C804 1.349 . S
C793 C791 1.327 . S
C793 C809 1.429 . S
C793 H815 0.950 . S
C794 H790 0.949 . S
C794 C802 1.574 . S
C794 C810 1.368 . S
H795 C803 0.950 . S
H796 C801 0.950 . S
H797 C802 0.949 . S
H798 C804 0.950 . S
H799 C805 0.950 . S
H800 C806 0.949 . S
C801 H796 0.950 . S
C801 C803 1.327 . S
C801 C807 1.429 . S
C802 C794 1.574 . S
C802 H797 0.949 . S
C802 C808 1.368 . S
C803 C787 1.349 . S
C803 H795 0.950 . S
C803 C801 1.327 . S
C804 C792 1.349 . S
C804 H798 0.950 . S
C804 C805 1.327 . S
C805 H799 0.950 . S
C805 C804 1.327 . S
C805 C809 1.429 . S
C806 C789 1.574 . S
C806 H800 0.949 . S
C806 C810 1.368 . S
C807 C788 1.429 . S
C807 C801 1.429 . S
C807 C808 1.523 . S
C808 C789 1.368 . S
C808 C802 1.368 . S
C808 C807 1.523 . S
C809 C793 1.429 . S
C809 C805 1.429 . S
C809 C810 1.523 . S
C810 C794 1.368 . S
C810 C806 1.368 . S
C810 C809 1.523 . S
H811 C786 0.950 . S
H812 C788 0.950 . S
H813 C789 0.949 . S
H814 C791 0.950 . S
H815 C793 0.950 . S
C816 C817 1.349 . S
C816 C818 1.327 . S
C816 H841 0.950 . S
C817 C816 1.349 . S
C817 C833 1.349 . S
C818 C816 1.327 . S
C818 C837 1.429 . S
C818 H842 0.950 . S
C819 C836 1.574 . S
C819 C838 1.368 . S
C819 H843 0.949 . S
H820 C824 0.949 . S
C821 C822 1.349 . S
C821 C823 1.327 . S
C821 H844 0.950 . S
C822 C821 1.349 . S
C822 C834 1.349 . S
C823 C821 1.327 . S
C823 C839 1.429 . S
C823 H845 0.950 . S
C824 H820 0.949 . S
C824 C832 1.574 . S
C824 C840 1.368 . S
H825 C833 0.950 . S
H826 C831 0.950 . S
H827 C832 0.949 . S
H828 C834 0.950 . S
H829 C835 0.950 . S
H830 C836 0.949 . S
C831 H826 0.950 . S
C831 C833 1.327 . S
C831 C837 1.429 . S
C832 C824 1.574 . S
C832 H827 0.949 . S
C832 C838 1.368 . S
C833 C817 1.349 . S
C833 H825 0.950 . S
C833 C831 1.327 . S
C834 C822 1.349 . S
C834 H828 0.950 . S
C834 C835 1.327 . S
C835 H829 0.950 . S
C835 C834 1.327 . S
C835 C839 1.429 . S
C836 C819 1.574 . S
C836 H830 0.949 . S
C836 C840 1.368 . S
C837 C818 1.429 . S
C837 C831 1.429 . S
C837 C838 1.523 . S
C838 C819 1.368 . S
C838 C832 1.368 . S
C838 C837 1.523 . S
C839 C823 1.429 . S
C839 C835 1.429 . S
C839 C840 1.523 . S
C840 C824 1.368 . S
C840 C836 1.368 . S
C840 C839 1.523 . S
H841 C816 0.950 . S
H842 C818 0.950 . S
H843 C819 0.949 . S
H844 C821 0.950 . S
H845 C823 0.950 . S
C846 C847 1.349 . S
C846 C848 1.327 . S
C846 H871 0.950 . S
C847 C846 1.349 . S
C847 C863 1.349 . S
C848 C846 1.327 . S
C848 C867 1.429 . S
C848 H872 0.950 . S
C849 C866 1.574 . S
C849 C868 1.368 . S
C849 H873 0.949 . S
H850 C854 0.949 . S
C851 C852 1.349 . S
C851 C853 1.327 . S
C851 H874 0.950 . S
C852 C851 1.349 . S
C852 C864 1.349 . S
C853 C851 1.327 . S
C853 C869 1.429 . S
C853 H875 0.950 . S
C854 H850 0.949 . S
C854 C862 1.574 . S
C854 C870 1.368 . S
H855 C863 0.950 . S
H856 C861 0.950 . S
H857 C862 0.949 . S
H858 C864 0.950 . S
H859 C865 0.950 . S
H860 C866 0.949 . S
C861 H856 0.950 . S
C861 C863 1.327 . S
C861 C867 1.429 . S
C862 C854 1.574 . S
C862 H857 0.949 . S
C862 C868 1.368 . S
C863 C847 1.349 . S
C863 H855 0.950 . S
C863 C861 1.327 . S
C864 C852 1.349 . S
C864 H858 0.950 . S
C864 C865 1.327 . S
C865 H859 0.950 . S
C865 C864 1.327 . S
C865 C869 1.429 . S
C866 C849 1.574 . S
C866 H860 0.949 . S
C866 C870 1.368 . S
C867 C848 1.429 . S
C867 C861 1.429 . S
C867 C868 1.523 . S
C868 C849 1.368 . S
C868 C862 1.368 . S
C868 C867 1.523 . S
C869 C853 1.429 . S
C869 C865 1.429 . S
C869 C870 1.523 . S
C870 C854 1.368 . S
C870 C866 1.368 . S
C870 C869 1.523 . S
H871 C846 0.950 . S
H872 C848 0.950 . S
H873 C849 0.949 . S
H874 C851 0.950 . S
H875 C853 0.950 . S
C876 C877 1.349 . S
C876 C878 1.327 . S
C876 H901 0.950 . S
C877 C876 1.349 . S
C877 C893 1.349 . S
C878 C876 1.327 . S
C878 C897 1.429 . S
C878 H902 0.950 . S
C879 C896 1.574 . S
C879 C898 1.368 . S
C879 H903 0.949 . S
H880 C884 0.949 . S
C881 C882 1.349 . S
C881 C883 1.327 . S
C881 H904 0.950 . S
C882 C881 1.349 . S
C882 C894 1.349 . S
C883 C881 1.327 . S
C883 C899 1.429 . S
C883 H905 0.950 . S
C884 H880 0.949 . S
C884 C892 1.574 . S
C884 C900 1.368 . S
H885 C893 0.950 . S
H886 C891 0.950 . S
H887 C892 0.949 . S
H888 C894 0.950 . S
H889 C895 0.950 . S
H890 C896 0.949 . S
C891 H886 0.950 . S
C891 C893 1.327 . S
C891 C897 1.429 . S
C892 C884 1.574 . S
C892 H887 0.949 . S
C892 C898 1.368 . S
C893 C877 1.349 . S
C893 H885 0.950 . S
C893 C891 1.327 . S
C894 C882 1.349 . S
C894 H888 0.950 . S
C894 C895 1.327 . S
C895 H889 0.950 . S
C895 C894 1.327 . S
C895 C899 1.429 . S
C896 C879 1.574 . S
C896 H890 0.949 . S
C896 C900 1.368 . S
C897 C878 1.429 . S
C897 C891 1.429 . S
C897 C898 1.523 . S
C898 C879 1.368 . S
C898 C892 1.368 . S
C898 C897 1.523 . S
C899 C883 1.429 . S
C899 C895 1.429 . S
C899 C900 1.523 . S
C900 C884 1.368 . S
C900 C896 1.368 . S
C900 C899 1.523 . S
H901 C876 0.950 . S
H902 C878 0.950 . S
H903 C879 0.949 . S
H904 C881 0.950 . S
H905 C883 0.950 . S
C906 C907 1.349 . S
C906 C908 1.327 . S
C906 H931 0.950 . S
C907 C906 1.349 . S
C907 C923 1.349 . S
C908 C906 1.327 . S
C908 C927 1.429 . S
C908 H932 0.950 . S
C909 C926 1.574 . S
C909 C928 1.368 . S
C909 H933 0.949 . S
H910 C914 0.949 . S
C911 C912 1.349 . S
C911 C913 1.327 . S
C911 H934 0.950 . S
C912 C911 1.349 . S
C912 C924 1.349 . S
C913 C911 1.327 . S
C913 C929 1.429 . S
C913 H935 0.950 . S
C914 H910 0.949 . S
C914 C922 1.574 . S
C914 C930 1.368 . S
H915 C923 0.950 . S
H916 C921 0.950 . S
H917 C922 0.949 . S
H918 C924 0.950 . S
H919 C925 0.950 . S
H920 C926 0.949 . S
C921 H916 0.950 . S
C921 C923 1.327 . S
C921 C927 1.429 . S
C922 C914 1.574 . S
C922 H917 0.949 . S
C922 C928 1.368 . S
C923 C907 1.349 . S
C923 H915 0.950 . S
C923 C921 1.327 . S
C924 C912 1.349 . S
C924 H918 0.950 . S
C924 C925 1.327 . S
C925 H919 0.950 . S
C925 C924 1.327 . S
C925 C929 1.429 . S
C926 C909 1.574 . S
C926 H920 0.949 . S
C926 C930 1.368 . S
C927 C908 1.429 . S
C927 C921 1.429 . S
C927 C928 1.523 . S
C928 C909 1.368 . S
C928 C922 1.368 . S
C928 C927 1.523 . S
C929 C913 1.429 . S
C929 C925 1.429 . S
C929 C930 1.523 . S
C930 C914 1.368 . S
C930 C926 1.368 . S
C930 C929 1.523 . S
H931 C906 0.950 . S
H932 C908 0.950 . S
H933 C909 0.949 . S
H934 C911 0.950 . S
H935 C913 0.950 . S
C936 C937 1.349 . S
C936 C938 1.327 . S
C936 H961 0.950 . S
C937 C936 1.349 . S
C937 C953 1.349 . S
C938 C936 1.327 . S
C938 C957 1.429 . S
C938 H962 0.950 . S
C939 C956 1.574 . S
C939 C958 1.368 . S
C939 H963 0.949 . S
H940 C944 0.949 . S
C941 C942 1.349 . S
C941 C943 1.327 . S
C941 H964 0.950 . S
C942 C941 1.349 . S
C942 C954 1.349 . S
C943 C941 1.327 . S
C943 C959 1.429 . S
C943 H965 0.950 . S
C944 H940 0.949 . S
C944 C952 1.574 . S
C944 C960 1.368 . S
H945 C953 0.950 . S
H946 C951 0.950 . S
H947 C952 0.949 . S
H948 C954 0.950 . S
H949 C955 0.950 . S
H950 C956 0.949 . S
C951 H946 0.950 . S
C951 C953 1.327 . S
C951 C957 1.429 . S
C952 C944 1.574 . S
C952 H947 0.949 . S
C952 C958 1.368 . S
C953 C937 1.349 . S
C953 H945 0.950 . S
C953 C951 1.327 . S
C954 C942 1.349 . S
C954 H948 0.950 . S
C954 C955 1.327 . S
C955 H949 0.950 . S
C955 C954 1.327 . S
C955 C959 1.429 . S
C956 C939 1.574 . S
C956 H950 0.949 . S
C956 C960 1.368 . S
C957 C938 1.429 . S
C957 C951 1.429 . S
C957 C958 1.523 . S
C958 C939 1.368 . S
C958 C952 1.368 . S
C958 C957 1.523 . S
C959 C943 1.429 . S
C959 C955 1.429 . S
C959 C960 1.523 . S
C960 C944 1.368 . S
C960 C956 1.368 . S
C960 C959 1.523 . S
H961 C936 0.950 . S
H962 C938 0.950 . S
H963 C939 0.949 . S
H964 C941 0.950 . S
H965 C943 0.950 . S
C966 C967 1.349 . S
C966 C968 1.327 . S
C966 H991 0.950 . S
C967 C966 1.349 . S
C967 C983 1.349 . S
C968 C966 1.327 . S
C968 C987 1.429 . S
C968 H992 0.950 . S
C969 C986 1.574 . S
C969 C988 1.368 . S
C969 H993 0.949 . S
H970 C974 0.949 . S
C971 C972 1.349 . S
C971 C973 1.327 . S
C971 H994 0.950 . S
C972 C971 1.349 . S
C972 C984 1.349 . S
C973 C971 1.327 . S
C973 C989 1.429 . S
C973 H995 0.950 . S
C974 H970 0.949 . S
C974 C982 1.574 . S
C974 C990 1.368 . S
H975 C983 0.950 . S
H976 C981 0.950 . S
H977 C982 0.949 . S
H978 C984 0.950 . S
H979 C985 0.950 . S
H980 C986 0.949 . S
C981 H976 0.950 . S
C981 C983 1.327 . S
C981 C987 1.429 . S
C982 C974 1.574 . S
C982 H977 0.949 . S
C982 C988 1.368 . S
C983 C967 1.349 . S
C983 H975 0.950 . S
C983 C981 1.327 . S
C984 C972 1.349 . S
C984 H978 0.950 . S
C984 C985 1.327 . S
C985 H979 0.950 . S
C985 C984 1.327 . S
C985 C989 1.429 . S
C986 C969 1.574 . S
C986 H980 0.949 . S
C986 C990 1.368 . S
C987 C968 1.429 . S
C987 C981 1.429 . S
C987 C988 1.523 . S
C988 C969 1.368 . S
C988 C982 1.368 . S
C988 C987 1.523 . S
C989 C973 1.429 . S
C989 C985 1.429 . S
C989 C990 1.523 . S
C990 C974 1.368 . S
C990 C986 1.368 . S
C990 C989 1.523 . S
H991 C966 0.950 . S
H992 C968 0.950 . S
H993 C969 0.949 . S
H994 C971 0.950 . S
H995 C973 0.950 . S
C996 C997 1.349 . S
C996 C998 1.327 . S
C996 H1021 0.950 . S
C997 C996 1.349 . S
C997 C1013 1.349 . S
C998 C996 1.327 . S
C998 C1017 1.429 . S
C998 H1022 0.950 . S
C999 C1016 1.574 . S
C999 C1018 1.368 . S
C999 H1023 0.949 . S
H1000 C1004 0.949 . S
C1001 C1002 1.349 . S
C1001 C1003 1.327 . S
C1001 H1024 0.950 . S
C1002 C1001 1.349 . S
C1002 C1014 1.349 . S
C1003 C1001 1.327 . S
C1003 C1019 1.429 . S
C1003 H1025 0.950 . S
C1004 H1000 0.949 . S
C1004 C1012 1.574 . S
C1004 C1020 1.368 . S
H1005 C1013 0.950 . S
H1006 C1011 0.950 . S
H1007 C1012 0.949 . S
H1008 C1014 0.950 . S
H1009 C1015 0.950 . S
H1010 C1016 0.949 . S
C1011 H1006 0.950 . S
C1011 C1013 1.327 . S
C1011 C1017 1.429 . S
C1012 C1004 1.574 . S
C1012 H1007 0.949 . S
C1012 C1018 1.368 . S
C1013 C997 1.349 . S
C1013 H1005 0.950 . S
C1013 C1011 1.327 . S
C1014 C1002 1.349 . S
C1014 H1008 0.950 . S
C1014 C1015 1.327 . S
C1015 H1009 0.950 . S
C1015 C1014 1.327 . S
C1015 C1019 1.429 . S
C1016 C999 1.574 . S
C1016 H1010 0.949 . S
C1016 C1020 1.368 . S
C1017 C998 1.429 . S
C1017 C1011 1.429 . S
C1017 C1018 1.523 . S
C1018 C999 1.368 . S
C1018 C1012 1.368 . S
C1018 C1017 1.523 . S
C1019 C1003 1.429 . S
C1019 C1015 1.429 . S
C1019 C1020 1.523 . S
C1020 C1004 1.368 . S
C1020 C1016 1.368 . S
C1020 C1019 1.523 . S
H1021 C996 0.950 . S
H1022 C998 0.950 . S
H1023 C999 0.949 . S
H1024 C1001 0.950 . S
H1025 C1003 0.950 . S
C1026 C1027 1.349 . S
C1026 C1028 1.327 . S
C1026 H1051 0.950 . S
C1027 C1026 1.349 . S
C1027 C1043 1.349 . S
C1028 C1026 1.327 . S
C1028 C1047 1.429 . S
C1028 H1052 0.950 . S
C1029 C1046 1.574 . S
C1029 C1048 1.368 . S
C1029 H1053 0.949 . S
H1030 C1034 0.949 . S
C1031 C1032 1.349 . S
C1031 C1033 1.327 . S
C1031 H1054 0.950 . S
C1032 C1031 1.349 . S
C1032 C1044 1.349 . S
C1033 C1031 1.327 . S
C1033 C1049 1.429 . S
C1033 H1055 0.950 . S
C1034 H1030 0.949 . S
C1034 C1042 1.574 . S
C1034 C1050 1.368 . S
H1035 C1043 0.950 . S
H1036 C1041 0.950 . S
H1037 C1042 0.949 . S
H1038 C1044 0.950 . S
H1039 C1045 0.950 . S
H1040 C1046 0.949 . S
C1041 H1036 0.950 . S
C1041 C1043 1.327 . S
C1041 C1047 1.429 . S
C1042 C1034 1.574 . S
C1042 H1037 0.949 . S
C1042 C1048 1.368 . S
C1043 C1027 1.349 . S
C1043 H1035 0.950 . S
C1043 C1041 1.327 . S
C1044 C1032 1.349 . S
C1044 H1038 0.950 . S
C1044 C1045 1.327 . S
C1045 H1039 0.950 . S
C1045 C1044 1.327 . S
C1045 C1049 1.429 . S
C1046 C1029 1.574 . S
C1046 H1040 0.949 . S
C1046 C1050 1.368 . S
C1047 C1028 1.429 . S
C1047 C1041 1.429 . S
C1047 C1048 1.523 . S
C1048 C1029 1.368 . S
C1048 C1042 1.368 . S
C1048 C1047 1.523 . S
C1049 C1033 1.429 . S
C1049 C1045 1.429 . S
C1049 C1050 1.523 . S
C1050 C1034 1.368 . S
C1050 C1046 1.368 . S
C1050 C1049 1.523 . S
H1051 C1026 0.950 . S
H1052 C1028 0.950 . S
H1053 C1029 0.949 . S
H1054 C1031 0.950 . S
H1055 C1033 0.950 . S
C1056 C1057 1.349 . S
C1056 C1058 1.327 . S
C1056 H1081 0.950 . S
C1057 C1056 1.349 . S
C1057 C1073 1.349 . S
C1058 C1056 1.327 . S
C1058 C1077 1.429 . S
C1058 H1082 0.950 . S
C1059 C1076 1.574 1_455 S
C1059 C1078 1.368 . S
C1059 H1083 0.949 . S
H1060 C1064 0.949 . S
C1061 C1062 1.349 . S
C1061 C1063 1.327 . S
C1061 H1084 0.950 . S
C1062 C1061 1.349 . S
C1062 C1074 1.349 . S
C1063 C1061 1.327 . S
C1063 C1079 1.429 . S
C1063 H1085 0.950 . S
C1064 H1060 0.949 . S
C1064 C1072 1.574 1_655 S
C1064 C1080 1.368 . S
H1065 C1073 0.950 . S
H1066 C1071 0.950 . S
H1067 C1072 0.949 . S
H1068 C1074 0.950 . S
H1069 C1075 0.950 . S
H1070 C1076 0.949 . S
C1071 H1066 0.950 . S
C1071 C1073 1.327 . S
C1071 C1077 1.429 . S
C1072 C1064 1.574 1_455 S
C1072 H1067 0.949 . S
C1072 C1078 1.368 . S
C1073 C1057 1.349 . S
C1073 H1065 0.950 . S
C1073 C1071 1.327 . S
C1074 C1062 1.349 . S
C1074 H1068 0.950 . S
C1074 C1075 1.327 . S
C1075 H1069 0.950 . S
C1075 C1074 1.327 . S
C1075 C1079 1.429 . S
C1076 C1059 1.574 1_655 S
C1076 H1070 0.949 . S
C1076 C1080 1.368 . S
C1077 C1058 1.429 . S
C1077 C1071 1.429 . S
C1077 C1078 1.523 . S
C1078 C1059 1.368 . S
C1078 C1072 1.368 . S
C1078 C1077 1.523 . S
C1079 C1063 1.429 . S
C1079 C1075 1.429 . S
C1079 C1080 1.523 . S
C1080 C1064 1.368 . S
C1080 C1076 1.368 . S
C1080 C1079 1.523 . S
H1081 C1056 0.950 . S
H1082 C1058 0.950 . S
H1083 C1059 0.949 . S
H1084 C1061 0.950 . S
H1085 C1063 0.950 . S
C1086 C1087 1.349 . S
C1086 C1088 1.327 . S
C1086 H1111 0.950 . S
C1087 C1086 1.349 . S
C1087 C1103 1.349 . S
C1088 C1086 1.327 . S
C1088 C1107 1.429 . S
C1088 H1112 0.950 . S
C1089 C1106 1.574 1_545 S
C1089 C1108 1.368 . S
C1089 H1113 0.949 . S
H1090 C1094 0.949 . S
C1091 C1092 1.349 . S
C1091 C1093 1.327 . S
C1091 H1114 0.950 . S
C1092 C1091 1.349 . S
C1092 C1104 1.349 . S
C1093 C1091 1.327 . S
C1093 C1109 1.429 . S
C1093 H1115 0.950 . S
C1094 H1090 0.949 . S
C1094 C1102 1.574 1_565 S
C1094 C1110 1.368 . S
H1095 C1103 0.950 . S
H1096 C1101 0.950 . S
H1097 C1102 0.949 . S
H1098 C1104 0.950 . S
H1099 C1105 0.950 . S
H1100 C1106 0.949 . S
C1101 H1096 0.950 . S
C1101 C1103 1.327 . S
C1101 C1107 1.429 . S
C1102 C1094 1.574 1_545 S
C1102 H1097 0.949 . S
C1102 C1108 1.368 . S
C1103 C1087 1.349 . S
C1103 H1095 0.950 . S
C1103 C1101 1.327 . S
C1104 C1092 1.349 . S
C1104 H1098 0.950 . S
C1104 C1105 1.327 . S
C1105 H1099 0.950 . S
C1105 C1104 1.327 . S
C1105 C1109 1.429 . S
C1106 C1089 1.574 1_565 S
C1106 H1100 0.949 . S
C1106 C1110 1.368 . S
C1107 C1088 1.429 . S
C1107 C1101 1.429 . S
C1107 C1108 1.523 . S
C1108 C1089 1.368 . S
C1108 C1102 1.368 . S
C1108 C1107 1.523 . S
C1109 C1093 1.429 . S
C1109 C1105 1.429 . S
C1109 C1110 1.523 . S
C1110 C1094 1.368 . S
C1110 C1106 1.368 . S
C1110 C1109 1.523 . S
H1111 C1086 0.950 . S
H1112 C1088 0.950 . S
H1113 C1089 0.949 . S
H1114 C1091 0.950 . S
H1115 C1093 0.950 . S
C1116 C1117 1.349 . S
C1116 C1118 1.327 . S
C1116 H1141 0.950 . S
C1117 C1116 1.349 . S
C1117 C1133 1.349 . S
C1118 C1116 1.327 . S
C1118 C1137 1.429 . S
C1118 H1142 0.950 . S
C1119 C1136 1.574 1_655 S
C1119 C1138 1.368 . S
C1119 H1143 0.949 . S
H1120 C1124 0.949 . S
C1121 C1122 1.349 . S
C1121 C1123 1.327 . S
C1121 H1144 0.950 . S
C1122 C1121 1.349 . S
C1122 C1134 1.349 . S
C1123 C1121 1.327 . S
C1123 C1139 1.429 . S
C1123 H1145 0.950 . S
C1124 H1120 0.949 . S
C1124 C1132 1.574 1_455 S
C1124 C1140 1.368 . S
H1125 C1133 0.950 . S
H1126 C1131 0.950 . S
H1127 C1132 0.949 . S
H1128 C1134 0.950 . S
H1129 C1135 0.950 . S
H1130 C1136 0.949 . S
C1131 H1126 0.950 . S
C1131 C1133 1.327 . S
C1131 C1137 1.429 . S
C1132 C1124 1.574 1_655 S
C1132 H1127 0.949 . S
C1132 C1138 1.368 . S
C1133 C1117 1.349 . S
C1133 H1125 0.950 . S
C1133 C1131 1.327 . S
C1134 C1122 1.349 . S
C1134 H1128 0.950 . S
C1134 C1135 1.327 . S
C1135 H1129 0.950 . S
C1135 C1134 1.327 . S
C1135 C1139 1.429 . S
C1136 C1119 1.574 1_455 S
C1136 H1130 0.949 . S
C1136 C1140 1.368 . S
C1137 C1118 1.429 . S
C1137 C1131 1.429 . S
C1137 C1138 1.523 . S
C1138 C1119 1.368 . S
C1138 C1132 1.368 . S
C1138 C1137 1.523 . S
C1139 C1123 1.429 . S
C1139 C1135 1.429 . S
C1139 C1140 1.523 . S
C1140 C1124 1.368 . S
C1140 C1136 1.368 . S
C1140 C1139 1.523 . S
H1141 C1116 0.950 . S
H1142 C1118 0.950 . S
H1143 C1119 0.949 . S
H1144 C1121 0.950 . S
H1145 C1123 0.950 . S
C1146 C1147 1.349 . S
C1146 C1148 1.327 . S
C1146 H1171 0.950 . S
C1147 C1146 1.349 . S
C1147 C1163 1.349 . S
C1148 C1146 1.327 . S
C1148 C1167 1.429 . S
C1148 H1172 0.950 . S
C1149 C1166 1.574 1_545 S
C1149 C1168 1.368 . S
C1149 H1173 0.949 . S
H1150 C1154 0.949 . S
C1151 C1152 1.349 . S
C1151 C1153 1.327 . S
C1151 H1174 0.950 . S
C1152 C1151 1.349 . S
C1152 C1164 1.349 . S
C1153 C1151 1.327 . S
C1153 C1169 1.429 . S
C1153 H1175 0.950 . S
C1154 H1150 0.949 . S
C1154 C1162 1.574 1_565 S
C1154 C1170 1.368 . S
H1155 C1163 0.950 . S
H1156 C1161 0.950 . S
H1157 C1162 0.949 . S
H1158 C1164 0.950 . S
H1159 C1165 0.950 . S
H1160 C1166 0.949 . S
C1161 H1156 0.950 . S
C1161 C1163 1.327 . S
C1161 C1167 1.429 . S
C1162 C1154 1.574 1_545 S
C1162 H1157 0.949 . S
C1162 C1168 1.368 . S
C1163 C1147 1.349 . S
C1163 H1155 0.950 . S
C1163 C1161 1.327 . S
C1164 C1152 1.349 . S
C1164 H1158 0.950 . S
C1164 C1165 1.327 . S
C1165 H1159 0.950 . S
C1165 C1164 1.327 . S
C1165 C1169 1.429 . S
C1166 C1149 1.574 1_565 S
C1166 H1160 0.949 . S
C1166 C1170 1.368 . S
C1167 C1148 1.429 . S
C1167 C1161 1.429 . S
C1167 C1168 1.523 . S
C1168 C1149 1.368 . S
C1168 C1162 1.368 . S
C1168 C1167 1.523 . S
C1169 C1153 1.429 . S
C1169 C1165 1.429 . S
C1169 C1170 1.523 . S
C1170 C1154 1.368 . S
C1170 C1166 1.368 . S
C1170 C1169 1.523 . S
H1171 C1146 0.950 . S
H1172 C1148 0.950 . S
H1173 C1149 0.949 . S
H1174 C1151 0.950 . S
H1175 C1153 0.950 . S
C1176 C1177 1.349 . S
C1176 C1178 1.327 . S
C1176 H1201 0.950 . S
C1177 C1176 1.349 . S
C1177 C1193 1.349 . S
C1178 C1176 1.327 . S
C1178 C1197 1.429 . S
C1178 H1202 0.950 . S
C1179 C1196 1.574 1_565 S
C1179 C1198 1.368 . S
C1179 H1203 0.949 . S
H1180 C1184 0.949 . S
C1181 C1182 1.349 . S
C1181 C1183 1.327 . S
C1181 H1204 0.950 . S
C1182 C1181 1.349 . S
C1182 C1194 1.349 . S
C1183 C1181 1.327 . S
C1183 C1199 1.429 . S
C1183 H1205 0.950 . S
C1184 H1180 0.949 . S
C1184 C1192 1.574 1_545 S
C1184 C1200 1.368 . S
H1185 C1193 0.950 . S
H1186 C1191 0.950 . S
H1187 C1192 0.949 . S
H1188 C1194 0.950 . S
H1189 C1195 0.950 . S
H1190 C1196 0.949 . S
C1191 H1186 0.950 . S
C1191 C1193 1.327 . S
C1191 C1197 1.429 . S
C1192 C1184 1.574 1_565 S
C1192 H1187 0.949 . S
C1192 C1198 1.368 . S
C1193 C1177 1.349 . S
C1193 H1185 0.950 . S
C1193 C1191 1.327 . S
C1194 C1182 1.349 . S
C1194 H1188 0.950 . S
C1194 C1195 1.327 . S
C1195 H1189 0.950 . S
C1195 C1194 1.327 . S
C1195 C1199 1.429 . S
C1196 C1179 1.574 1_545 S
C1196 H1190 0.949 . S
C1196 C1200 1.368 . S
C1197 C1178 1.429 . S
C1197 C1191 1.429 . S
C1197 C1198 1.523 . S
C1198 C1179 1.368 . S
C1198 C1192 1.368 . S
C1198 C1197 1.523 . S
C1199 C1183 1.429 . S
C1199 C1195 1.429 . S
C1199 C1200 1.523 . S
C1200 C1184 1.368 . S
C1200 C1196 1.368 . S
C1200 C1199 1.523 . S
H1201 C1176 0.950 . S
H1202 C1178 0.950 . S
H1203 C1179 0.949 . S
H1204 C1181 0.950 . S
H1205 C1183 0.950 . S
C1206 C1207 1.349 . S
C1206 C1208 1.327 . S
C1206 H1231 0.950 . S
C1207 C1206 1.349 . S
C1207 C1223 1.349 . S
C1208 C1206 1.327 . S
C1208 C1227 1.429 . S
C1208 H1232 0.950 . S
C1209 C1226 1.574 1_655 S
C1209 C1228 1.368 . S
C1209 H1233 0.949 . S
H1210 C1214 0.949 . S
C1211 C1212 1.349 . S
C1211 C1213 1.327 . S
C1211 H1234 0.950 . S
C1212 C1211 1.349 . S
C1212 C1224 1.349 . S
C1213 C1211 1.327 . S
C1213 C1229 1.429 . S
C1213 H1235 0.950 . S
C1214 H1210 0.949 . S
C1214 C1222 1.574 1_455 S
C1214 C1230 1.368 . S
H1215 C1223 0.950 . S
H1216 C1221 0.950 . S
H1217 C1222 0.949 . S
H1218 C1224 0.950 . S
H1219 C1225 0.950 . S
H1220 C1226 0.949 . S
C1221 H1216 0.950 . S
C1221 C1223 1.327 . S
C1221 C1227 1.429 . S
C1222 C1214 1.574 1_655 S
C1222 H1217 0.949 . S
C1222 C1228 1.368 . S
C1223 C1207 1.349 . S
C1223 H1215 0.950 . S
C1223 C1221 1.327 . S
C1224 C1212 1.349 . S
C1224 H1218 0.950 . S
C1224 C1225 1.327 . S
C1225 H1219 0.950 . S
C1225 C1224 1.327 . S
C1225 C1229 1.429 . S
C1226 C1209 1.574 1_455 S
C1226 H1220 0.949 . S
C1226 C1230 1.368 . S
C1227 C1208 1.429 . S
C1227 C1221 1.429 . S
C1227 C1228 1.523 . S
C1228 C1209 1.368 . S
C1228 C1222 1.368 . S
C1228 C1227 1.523 . S
C1229 C1213 1.429 . S
C1229 C1225 1.429 . S
C1229 C1230 1.523 . S
C1230 C1214 1.368 . S
C1230 C1226 1.368 . S
C1230 C1229 1.523 . S
H1231 C1206 0.950 . S
H1232 C1208 0.950 . S
H1233 C1209 0.949 . S
H1234 C1211 0.950 . S
H1235 C1213 0.950 . S
C1236 C1237 1.349 . S
C1236 C1238 1.327 . S
C1236 H1261 0.950 . S
C1237 C1236 1.349 . S
C1237 C1253 1.349 . S
C1238 C1236 1.327 . S
C1238 C1257 1.429 . S
C1238 H1262 0.950 . S
C1239 C1256 1.574 1_565 S
C1239 C1258 1.368 . S
C1239 H1263 0.949 . S
H1240 C1244 0.949 . S
C1241 C1242 1.349 . S
C1241 C1243 1.327 . S
C1241 H1264 0.950 . S
C1242 C1241 1.349 . S
C1242 C1254 1.349 . S
C1243 C1241 1.327 . S
C1243 C1259 1.429 . S
C1243 H1265 0.950 . S
C1244 H1240 0.949 . S
C1244 C1252 1.574 1_545 S
C1244 C1260 1.368 . S
H1245 C1253 0.950 . S
H1246 C1251 0.950 . S
H1247 C1252 0.949 . S
H1248 C1254 0.950 . S
H1249 C1255 0.950 . S
H1250 C1256 0.949 . S
C1251 H1246 0.950 . S
C1251 C1253 1.327 . S
C1251 C1257 1.429 . S
C1252 C1244 1.574 1_565 S
C1252 H1247 0.949 . S
C1252 C1258 1.368 . S
C1253 C1237 1.349 . S
C1253 H1245 0.950 . S
C1253 C1251 1.327 . S
C1254 C1242 1.349 . S
C1254 H1248 0.950 . S
C1254 C1255 1.327 . S
C1255 H1249 0.950 . S
C1255 C1254 1.327 . S
C1255 C1259 1.429 . S
C1256 C1239 1.574 1_545 S
C1256 H1250 0.949 . S
C1256 C1260 1.368 . S
C1257 C1238 1.429 . S
C1257 C1251 1.429 . S
C1257 C1258 1.523 . S
C1258 C1239 1.368 . S
C1258 C1252 1.368 . S
C1258 C1257 1.523 . S
C1259 C1243 1.429 . S
C1259 C1255 1.429 . S
C1259 C1260 1.523 . S
C1260 C1244 1.368 . S
C1260 C1256 1.368 . S
C1260 C1259 1.523 . S
H1261 C1236 0.950 . S
H1262 C1238 0.950 . S
H1263 C1239 0.949 . S
H1264 C1241 0.950 . S
H1265 C1243 0.950 . S
C1266 C1267 1.349 . S
C1266 C1268 1.327 . S
C1266 H1291 0.950 . S
C1267 C1266 1.349 . S
C1267 C1283 1.349 . S
C1268 C1266 1.327 . S
C1268 C1287 1.429 . S
C1268 H1292 0.950 . S
C1269 C1286 1.574 1_655 S
C1269 C1288 1.368 . S
C1269 H1293 0.949 . S
H1270 C1274 0.949 . S
C1271 C1272 1.349 . S
C1271 C1273 1.327 . S
C1271 H1294 0.950 . S
C1272 C1271 1.349 . S
C1272 C1284 1.349 . S
C1273 C1271 1.327 . S
C1273 C1289 1.429 . S
C1273 H1295 0.950 . S
C1274 H1270 0.949 . S
C1274 C1282 1.574 1_455 S
C1274 C1290 1.368 . S
H1275 C1283 0.950 . S
H1276 C1281 0.950 . S
H1277 C1282 0.949 . S
H1278 C1284 0.950 . S
H1279 C1285 0.950 . S
H1280 C1286 0.949 . S
C1281 H1276 0.950 . S
C1281 C1283 1.327 . S
C1281 C1287 1.429 . S
C1282 C1274 1.574 1_655 S
C1282 H1277 0.949 . S
C1282 C1288 1.368 . S
C1283 C1267 1.349 . S
C1283 H1275 0.950 . S
C1283 C1281 1.327 . S
C1284 C1272 1.349 . S
C1284 H1278 0.950 . S
C1284 C1285 1.327 . S
C1285 H1279 0.950 . S
C1285 C1284 1.327 . S
C1285 C1289 1.429 . S
C1286 C1269 1.574 1_455 S
C1286 H1280 0.949 . S
C1286 C1290 1.368 . S
C1287 C1268 1.429 . S
C1287 C1281 1.429 . S
C1287 C1288 1.523 . S
C1288 C1269 1.368 . S
C1288 C1282 1.368 . S
C1288 C1287 1.523 . S
C1289 C1273 1.429 . S
C1289 C1285 1.429 . S
C1289 C1290 1.523 . S
C1290 C1274 1.368 . S
C1290 C1286 1.368 . S
C1290 C1289 1.523 . S
H1291 C1266 0.950 . S
H1292 C1268 0.950 . S
H1293 C1269 0.949 . S
H1294 C1271 0.950 . S
H1295 C1273 0.950 . S
C1296 C1297 1.349 . S
C1296 C1298 1.327 . S
C1296 H1321 0.950 . S
C1297 C1296 1.349 . S
C1297 C1313 1.349 . S
C1298 C1296 1.327 . S
C1298 C1317 1.429 . S
C1298 H1322 0.950 . S
C1299 C1316 1.574 1_556 S
C1299 C1318 1.368 . S
C1299 H1323 0.949 . S
H1300 C1304 0.949 . S
C1301 C1302 1.349 . S
C1301 C1303 1.327 . S
C1301 H1324 0.950 . S
C1302 C1301 1.349 . S
C1302 C1314 1.349 . S
C1303 C1301 1.327 . S
C1303 C1319 1.429 . S
C1303 H1325 0.950 . S
C1304 H1300 0.949 . S
C1304 C1312 1.574 1_554 S
C1304 C1320 1.368 . S
H1305 C1313 0.950 . S
H1306 C1311 0.950 . S
H1307 C1312 0.949 . S
H1308 C1314 0.950 . S
H1309 C1315 0.950 . S
H1310 C1316 0.949 . S
C1311 H1306 0.950 . S
C1311 C1313 1.327 . S
C1311 C1317 1.429 . S
C1312 C1304 1.574 1_556 S
C1312 H1307 0.949 . S
C1312 C1318 1.368 . S
C1313 C1297 1.349 . S
C1313 H1305 0.950 . S
C1313 C1311 1.327 . S
C1314 C1302 1.349 . S
C1314 H1308 0.950 . S
C1314 C1315 1.327 . S
C1315 H1309 0.950 . S
C1315 C1314 1.327 . S
C1315 C1319 1.429 . S
C1316 C1299 1.574 1_554 S
C1316 H1310 0.949 . S
C1316 C1320 1.368 . S
C1317 C1298 1.429 . S
C1317 C1311 1.429 . S
C1317 C1318 1.523 . S
C1318 C1299 1.368 . S
C1318 C1312 1.368 . S
C1318 C1317 1.523 . S
C1319 C1303 1.429 . S
C1319 C1315 1.429 . S
C1319 C1320 1.523 . S
C1320 C1304 1.368 . S
C1320 C1316 1.368 . S
C1320 C1319 1.523 . S
H1321 C1296 0.950 . S
H1322 C1298 0.950 . S
H1323 C1299 0.949 . S
H1324 C1301 0.950 . S
H1325 C1303 0.950 . S
C1326 C1327 1.349 . S
C1326 C1328 1.327 . S
C1326 H1351 0.950 . S
C1327 C1326 1.349 . S
C1327 C1343 1.349 . S
C1328 C1326 1.327 . S
C1328 C1347 1.429 . S
C1328 H1352 0.950 . S
C1329 C1346 1.574 1_556 S
C1329 C1348 1.368 . S
C1329 H1353 0.949 . S
H1330 C1334 0.949 . S
C1331 C1332 1.349 . S
C1331 C1333 1.327 . S
C1331 H1354 0.950 . S
C1332 C1331 1.349 . S
C1332 C1344 1.349 . S
C1333 C1331 1.327 . S
C1333 C1349 1.429 . S
C1333 H1355 0.950 . S
C1334 H1330 0.949 . S
C1334 C1342 1.574 1_554 S
C1334 C1350 1.368 . S
H1335 C1343 0.950 . S
H1336 C1341 0.950 . S
H1337 C1342 0.949 . S
H1338 C1344 0.950 . S
H1339 C1345 0.950 . S
H1340 C1346 0.949 . S
C1341 H1336 0.950 . S
C1341 C1343 1.327 . S
C1341 C1347 1.429 . S
C1342 C1334 1.574 1_556 S
C1342 H1337 0.949 . S
C1342 C1348 1.368 . S
C1343 C1327 1.349 . S
C1343 H1335 0.950 . S
C1343 C1341 1.327 . S
C1344 C1332 1.349 . S
C1344 H1338 0.950 . S
C1344 C1345 1.327 . S
C1345 H1339 0.950 . S
C1345 C1344 1.327 . S
C1345 C1349 1.429 . S
C1346 C1329 1.574 1_554 S
C1346 H1340 0.949 . S
C1346 C1350 1.368 . S
C1347 C1328 1.429 . S
C1347 C1341 1.429 . S
C1347 C1348 1.523 . S
C1348 C1329 1.368 . S
C1348 C1342 1.368 . S
C1348 C1347 1.523 . S
C1349 C1333 1.429 . S
C1349 C1345 1.429 . S
C1349 C1350 1.523 . S
C1350 C1334 1.368 . S
C1350 C1346 1.368 . S
C1350 C1349 1.523 . S
H1351 C1326 0.950 . S
H1352 C1328 0.950 . S
H1353 C1329 0.949 . S
H1354 C1331 0.950 . S
H1355 C1333 0.950 . S
C1356 C1357 1.349 . S
C1356 C1358 1.327 . S
C1356 H1381 0.950 . S
C1357 C1356 1.349 . S
C1357 C1373 1.349 . S
C1358 C1356 1.327 . S
C1358 C1377 1.429 . S
C1358 H1382 0.950 . S
C1359 C1376 1.574 1_556 S
C1359 C1378 1.368 . S
C1359 H1383 0.949 . S
H1360 C1364 0.949 . S
C1361 C1362 1.349 . S
C1361 C1363 1.327 . S
C1361 H1384 0.950 . S
C1362 C1361 1.349 . S
C1362 C1374 1.349 . S
C1363 C1361 1.327 . S
C1363 C1379 1.429 . S
C1363 H1385 0.950 . S
C1364 H1360 0.949 . S
C1364 C1372 1.574 1_554 S
C1364 C1380 1.368 . S
H1365 C1373 0.950 . S
H1366 C1371 0.950 . S
H1367 C1372 0.949 . S
H1368 C1374 0.950 . S
H1369 C1375 0.950 . S
H1370 C1376 0.949 . S
C1371 H1366 0.950 . S
C1371 C1373 1.327 . S
C1371 C1377 1.429 . S
C1372 C1364 1.574 1_556 S
C1372 H1367 0.949 . S
C1372 C1378 1.368 . S
C1373 C1357 1.349 . S
C1373 H1365 0.950 . S
C1373 C1371 1.327 . S
C1374 C1362 1.349 . S
C1374 H1368 0.950 . S
C1374 C1375 1.327 . S
C1375 H1369 0.950 . S
C1375 C1374 1.327 . S
C1375 C1379 1.429 . S
C1376 C1359 1.574 1_554 S
C1376 H1370 0.949 . S
C1376 C1380 1.368 . S
C1377 C1358 1.429 . S
C1377 C1371 1.429 . S
C1377 C1378 1.523 . S
C1378 C1359 1.368 . S
C1378 C1372 1.368 . S
C1378 C1377 1.523 . S
C1379 C1363 1.429 . S
C1379 C1375 1.429 . S
C1379 C1380 1.523 . S
C1380 C1364 1.368 . S
C1380 C1376 1.368 . S
C1380 C1379 1.523 . S
H1381 C1356 0.950 . S
H1382 C1358 0.950 . S
H1383 C1359 0.949 . S
H1384 C1361 0.950 . S
H1385 C1363 0.950 . S
C1386 C1387 1.349 . S
C1386 C1388 1.327 . S
C1386 H1411 0.950 . S
C1387 C1386 1.349 . S
C1387 C1403 1.349 . S
C1388 C1386 1.327 . S
C1388 C1407 1.429 . S
C1388 H1412 0.950 . S
C1389 C1406 1.574 1_556 S
C1389 C1408 1.368 . S
C1389 H1413 0.949 . S
H1390 C1394 0.949 . S
C1391 C1392 1.349 . S
C1391 C1393 1.327 . S
C1391 H1414 0.950 . S
C1392 C1391 1.349 . S
C1392 C1404 1.349 . S
C1393 C1391 1.327 . S
C1393 C1409 1.429 . S
C1393 H1415 0.950 . S
C1394 H1390 0.949 . S
C1394 C1402 1.574 1_554 S
C1394 C1410 1.368 . S
H1395 C1403 0.950 . S
H1396 C1401 0.950 . S
H1397 C1402 0.949 . S
H1398 C1404 0.950 . S
H1399 C1405 0.950 . S
H1400 C1406 0.949 . S
C1401 H1396 0.950 . S
C1401 C1403 1.327 . S
C1401 C1407 1.429 . S
C1402 C1394 1.574 1_556 S
C1402 H1397 0.949 . S
C1402 C1408 1.368 . S
C1403 C1387 1.349 . S
C1403 H1395 0.950 . S
C1403 C1401 1.327 . S
C1404 C1392 1.349 . S
C1404 H1398 0.950 . S
C1404 C1405 1.327 . S
C1405 H1399 0.950 . S
C1405 C1404 1.327 . S
C1405 C1409 1.429 . S
C1406 C1389 1.574 1_554 S
C1406 H1400 0.949 . S
C1406 C1410 1.368 . S
C1407 C1388 1.429 . S
C1407 C1401 1.429 . S
C1407 C1408 1.523 . S
C1408 C1389 1.368 . S
C1408 C1402 1.368 . S
C1408 C1407 1.523 . S
C1409 C1393 1.429 . S
C1409 C1405 1.429 . S
C1409 C1410 1.523 . S
C1410 C1394 1.368 . S
C1410 C1406 1.368 . S
C1410 C1409 1.523 . S
H1411 C1386 0.950 . S
H1412 C1388 0.950 . S
H1413 C1389 0.949 . S
H1414 C1391 0.950 . S
H1415 C1393 0.950 . S
C1416 C1417 1.349 . S
C1416 C1418 1.327 . S
C1416 H1441 0.950 . S
C1417 C1416 1.349 . S
C1417 C1433 1.349 . S
C1418 C1416 1.327 . S
C1418 C1437 1.429 . S
C1418 H1442 0.950 . S
C1419 C1436 1.574 . S
C1419 C1438 1.368 . S
C1419 H1443 0.949 . S
H1420 C1424 0.949 . S
C1421 C1422 1.349 . S
C1421 C1423 1.327 . S
C1421 H1444 0.950 . S
C1422 C1421 1.349 . S
C1422 C1434 1.349 . S
C1423 C1421 1.327 . S
C1423 C1439 1.429 . S
C1423 H1445 0.950 . S
C1424 H1420 0.949 . S
C1424 C1432 1.574 . S
C1424 C1440 1.368 . S
H1425 C1433 0.950 . S
H1426 C1431 0.950 . S
H1427 C1432 0.949 . S
H1428 C1434 0.950 . S
H1429 C1435 0.950 . S
H1430 C1436 0.949 . S
C1431 H1426 0.950 . S
C1431 C1433 1.327 . S
C1431 C1437 1.429 . S
C1432 C1424 1.574 . S
C1432 H1427 0.949 . S
C1432 C1438 1.368 . S
C1433 C1417 1.349 . S
C1433 H1425 0.950 . S
C1433 C1431 1.327 . S
C1434 C1422 1.349 . S
C1434 H1428 0.950 . S
C1434 C1435 1.327 . S
C1435 H1429 0.950 . S
C1435 C1434 1.327 . S
C1435 C1439 1.429 . S
C1436 C1419 1.574 . S
C1436 H1430 0.949 . S
C1436 C1440 1.368 . S
C1437 C1418 1.429 . S
C1437 C1431 1.429 . S
C1437 C1438 1.523 . S
C1438 C1419 1.368 . S
C1438 C1432 1.368 . S
C1438 C1437 1.523 . S
C1439 C1423 1.429 . S
C1439 C1435 1.429 . S
C1439 C1440 1.523 . S
C1440 C1424 1.368 . S
C1440 C1436 1.368 . S
C1440 C1439 1.523 . S
H1441 C1416 0.950 . S
H1442 C1418 0.950 . S
H1443 C1419 0.949 . S
H1444 C1421 0.950 . S
H1445 C1423 0.950 . S
C1446 C1447 1.349 . S
C1446 C1448 1.327 . S
C1446 H1471 0.950 . S
C1447 C1446 1.349 . S
C1447 C1463 1.349 . S
C1448 C1446 1.327 . S
C1448 C1467 1.429 . S
C1448 H1472 0.950 . S
C1449 C1466 1.574 . S
C1449 C1468 1.368 . S
C1449 H1473 0.949 . S
H1450 C1454 0.949 . S
C1451 C1452 1.349 . S
C1451 C1453 1.327 . S
C1451 H1474 0.950 . S
C1452 C1451 1.349 . S
C1452 C1464 1.349 . S
C1453 C1451 1.327 . S
C1453 C1469 1.429 . S
C1453 H1475 0.950 . S
C1454 H1450 0.949 . S
C1454 C1462 1.574 . S
C1454 C1470 1.368 . S
H1455 C1463 0.950 . S
H1456 C1461 0.950 . S
H1457 C1462 0.949 . S
H1458 C1464 0.950 . S
H1459 C1465 0.950 . S
H1460 C1466 0.949 . S
C1461 H1456 0.950 . S
C1461 C1463 1.327 . S
C1461 C1467 1.429 . S
C1462 C1454 1.574 . S
C1462 H1457 0.949 . S
C1462 C1468 1.368 . S
C1463 C1447 1.349 . S
C1463 H1455 0.950 . S
C1463 C1461 1.327 . S
C1464 C1452 1.349 . S
C1464 H1458 0.950 . S
C1464 C1465 1.327 . S
C1465 H1459 0.950 . S
C1465 C1464 1.327 . S
C1465 C1469 1.429 . S
C1466 C1449 1.574 . S
C1466 H1460 0.949 . S
C1466 C1470 1.368 . S
C1467 C1448 1.429 . S
C1467 C1461 1.429 . S
C1467 C1468 1.523 . S
C1468 C1449 1.368 . S
C1468 C1462 1.368 . S
C1468 C1467 1.523 . S
C1469 C1453 1.429 . S
C1469 C1465 1.429 . S
C1469 C1470 1.523 . S
C1470 C1454 1.368 . S
C1470 C1466 1.368 . S
C1470 C1469 1.523 . S
H1471 C1446 0.950 . S
H1472 C1448 0.950 . S
H1473 C1449 0.949 . S
H1474 C1451 0.950 . S
H1475 C1453 0.950 . S
C1476 C1477 1.349 . S
C1476 C1478 1.327 . S
C1476 H1501 0.950 . S
C1477 C1476 1.349 . S
C1477 C1493 1.349 . S
C1478 C1476 1.327 . S
C1478 C1497 1.429 . S
C1478 H1502 0.950 . S
C1479 C1496 1.574 . S
C1479 C1498 1.368 . S
C1479 H1503 0.949 . S
H1480 C1484 0.949 . S
C1481 C1482 1.349 . S
C1481 C1483 1.327 . S
C1481 H1504 0.950 . S
C1482 C1481 1.349 . S
C1482 C1494 1.349 . S
C1483 C1481 1.327 . S
C1483 C1499 1.429 . S
C1483 H1505 0.950 . S
C1484 H1480 0.949 . S
C1484 C1492 1.574 . S
C1484 C1500 1.368 . S
H1485 C1493 0.950 . S
H1486 C1491 0.950 . S
H1487 C1492 0.949 . S
H1488 C1494 0.950 . S
H1489 C1495 0.950 . S
H1490 C1496 0.949 . S
C1491 H1486 0.950 . S
C1491 C1493 1.327 . S
C1491 C1497 1.429 . S
C1492 C1484 1.574 . S
C1492 H1487 0.949 . S
C1492 C1498 1.368 . S
C1493 C1477 1.349 . S
C1493 H1485 0.950 . S
C1493 C1491 1.327 . S
C1494 C1482 1.349 . S
C1494 H1488 0.950 . S
C1494 C1495 1.327 . S
C1495 H1489 0.950 . S
C1495 C1494 1.327 . S
C1495 C1499 1.429 . S
C1496 C1479 1.574 . S
C1496 H1490 0.949 . S
C1496 C1500 1.368 . S
C1497 C1478 1.429 . S
C1497 C1491 1.429 . S
C1497 C1498 1.523 . S
C1498 C1479 1.368 . S
C1498 C1492 1.368 . S
C1498 C1497 1.523 . S
C1499 C1483 1.429 . S
C1499 C1495 1.429 . S
C1499 C1500 1.523 . S
C1500 C1484 1.368 . S
C1500 C1496 1.368 . S
C1500 C1499 1.523 . S
H1501 C1476 0.950 . S
H1502 C1478 0.950 . S
H1503 C1479 0.949 . S
H1504 C1481 0.950 . S
H1505 C1483 0.950 . S
C1506 C1507 1.349 . S
C1506 C1508 1.327 . S
C1506 H1531 0.950 . S
C1507 C1506 1.349 . S
C1507 C1523 1.349 . S
C1508 C1506 1.327 . S
C1508 C1527 1.429 . S
C1508 H1532 0.950 . S
C1509 C1526 1.574 . S
C1509 C1528 1.368 . S
C1509 H1533 0.949 . S
H1510 C1514 0.949 . S
C1511 C1512 1.349 . S
C1511 C1513 1.327 . S
C1511 H1534 0.950 . S
C1512 C1511 1.349 . S
C1512 C1524 1.349 . S
C1513 C1511 1.327 . S
C1513 C1529 1.429 . S
C1513 H1535 0.950 . S
C1514 H1510 0.949 . S
C1514 C1522 1.574 . S
C1514 C1530 1.368 . S
H1515 C1523 0.950 . S
H1516 C1521 0.950 . S
H1517 C1522 0.949 . S
H1518 C1524 0.950 . S
H1519 C1525 0.950 . S
H1520 C1526 0.949 . S
C1521 H1516 0.950 . S
C1521 C1523 1.327 . S
C1521 C1527 1.429 . S
C1522 C1514 1.574 . S
C1522 H1517 0.949 . S
C1522 C1528 1.368 . S
C1523 C1507 1.349 . S
C1523 H1515 0.950 . S
C1523 C1521 1.327 . S
C1524 C1512 1.349 . S
C1524 H1518 0.950 . S
C1524 C1525 1.327 . S
C1525 H1519 0.950 . S
C1525 C1524 1.327 . S
C1525 C1529 1.429 . S
C1526 C1509 1.574 . S
C1526 H1520 0.949 . S
C1526 C1530 1.368 . S
C1527 C1508 1.429 . S
C1527 C1521 1.429 . S
C1527 C1528 1.523 . S
C1528 C1509 1.368 . S
C1528 C1522 1.368 . S
C1528 C1527 1.523 . S
C1529 C1513 1.429 . S
C1529 C1525 1.429 . S
C1529 C1530 1.523 . S
C1530 C1514 1.368 . S
C1530 C1526 1.368 . S
C1530 C1529 1.523 . S
H1531 C1506 0.950 . S
H1532 C1508 0.950 . S
H1533 C1509 0.949 . S
H1534 C1511 0.950 . S
H1535 C1513 0.950 . S
C1536 C1537 1.349 . S
C1536 C1538 1.327 . S
C1536 H1561 0.950 . S
C1537 C1536 1.349 . S
C1537 C1553 1.349 . S
C1538 C1536 1.327 . S
C1538 C1557 1.429 . S
C1538 H1562 0.950 . S
C1539 C1556 1.574 . S
C1539 C1558 1.368 . S
C1539 H1563 0.949 . S
H1540 C1544 0.949 . S
C1541 C1542 1.349 . S
C1541 C1543 1.327 . S
C1541 H1564 0.950 . S
C1542 C1541 1.349 . S
C1542 C1554 1.349 . S
C1543 C1541 1.327 . S
C1543 C1559 1.429 . S
C1543 H1565 0.950 . S
C1544 H1540 0.949 . S
C1544 C1552 1.574 . S
C1544 C1560 1.368 . S
H1545 C1553 0.950 . S
H1546 C1551 0.950 . S
H1547 C1552 0.949 . S
H1548 C1554 0.950 . S
H1549 C1555 0.950 . S
H1550 C1556 0.949 . S
C1551 H1546 0.950 . S
C1551 C1553 1.327 . S
C1551 C1557 1.429 . S
C1552 C1544 1.574 . S
C1552 H1547 0.949 . S
C1552 C1558 1.368 . S
C1553 C1537 1.349 . S
C1553 H1545 0.950 . S
C1553 C1551 1.327 . S
C1554 C1542 1.349 . S
C1554 H1548 0.950 . S
C1554 C1555 1.327 . S
C1555 H1549 0.950 . S
C1555 C1554 1.327 . S
C1555 C1559 1.429 . S
C1556 C1539 1.574 . S
C1556 H1550 0.949 . S
C1556 C1560 1.368 . S
C1557 C1538 1.429 . S
C1557 C1551 1.429 . S
C1557 C1558 1.523 . S
C1558 C1539 1.368 . S
C1558 C1552 1.368 . S
C1558 C1557 1.523 . S
C1559 C1543 1.429 . S
C1559 C1555 1.429 . S
C1559 C1560 1.523 . S
C1560 C1544 1.368 . S
C1560 C1556 1.368 . S
C1560 C1559 1.523 . S
H1561 C1536 0.950 . S
H1562 C1538 0.950 . S
H1563 C1539 0.949 . S
H1564 C1541 0.950 . S
H1565 C1543 0.950 . S
C1566 C1567 1.349 . S
C1566 C1568 1.327 . S
C1566 H1591 0.950 . S
C1567 C1566 1.349 . S
C1567 C1583 1.349 . S
C1568 C1566 1.327 . S
C1568 C1587 1.429 . S
C1568 H1592 0.950 . S
C1569 C1586 1.574 . S
C1569 C1588 1.368 . S
C1569 H1593 0.949 . S
H1570 C1574 0.949 . S
C1571 C1572 1.349 . S
C1571 C1573 1.327 . S
C1571 H1594 0.950 . S
C1572 C1571 1.349 . S
C1572 C1584 1.349 . S
C1573 C1571 1.327 . S
C1573 C1589 1.429 . S
C1573 H1595 0.950 . S
C1574 H1570 0.949 . S
C1574 C1582 1.574 . S
C1574 C1590 1.368 . S
H1575 C1583 0.950 . S
H1576 C1581 0.950 . S
H1577 C1582 0.949 . S
H1578 C1584 0.950 . S
H1579 C1585 0.950 . S
H1580 C1586 0.949 . S
C1581 H1576 0.950 . S
C1581 C1583 1.327 . S
C1581 C1587 1.429 . S
C1582 C1574 1.574 . S
C1582 H1577 0.949 . S
C1582 C1588 1.368 . S
C1583 C1567 1.349 . S
C1583 H1575 0.950 . S
C1583 C1581 1.327 . S
C1584 C1572 1.349 . S
C1584 H1578 0.950 . S
C1584 C1585 1.327 . S
C1585 H1579 0.950 . S
C1585 C1584 1.327 . S
C1585 C1589 1.429 . S
C1586 C1569 1.574 . S
C1586 H1580 0.949 . S
C1586 C1590 1.368 . S
C1587 C1568 1.429 . S
C1587 C1581 1.429 . S
C1587 C1588 1.523 . S
C1588 C1569 1.368 . S
C1588 C1582 1.368 . S
C1588 C1587 1.523 . S
C1589 C1573 1.429 . S
C1589 C1585 1.429 . S
C1589 C1590 1.523 . S
C1590 C1574 1.368 . S
C1590 C1586 1.368 . S
C1590 C1589 1.523 . S
H1591 C1566 0.950 . S
H1592 C1568 0.950 . S
H1593 C1569 0.949 . S
H1594 C1571 0.950 . S
H1595 C1573 0.950 . S
C1596 C1597 1.349 . S
C1596 C1598 1.327 . S
C1596 H1621 0.950 . S
C1597 C1596 1.349 . S
C1597 C1613 1.349 . S
C1598 C1596 1.327 . S
C1598 C1617 1.429 . S
C1598 H1622 0.950 . S
C1599 C1616 1.574 . S
C1599 C1618 1.368 . S
C1599 H1623 0.949 . S
H1600 C1604 0.949 . S
C1601 C1602 1.349 . S
C1601 C1603 1.327 . S
C1601 H1624 0.950 . S
C1602 C1601 1.349 . S
C1602 C1614 1.349 . S
C1603 C1601 1.327 . S
C1603 C1619 1.429 . S
C1603 H1625 0.950 . S
C1604 H1600 0.949 . S
C1604 C1612 1.574 . S
C1604 C1620 1.368 . S
H1605 C1613 0.950 . S
H1606 C1611 0.950 . S
H1607 C1612 0.949 . S
H1608 C1614 0.950 . S
H1609 C1615 0.950 . S
H1610 C1616 0.949 . S
C1611 H1606 0.950 . S
C1611 C1613 1.327 . S
C1611 C1617 1.429 . S
C1612 C1604 1.574 . S
C1612 H1607 0.949 . S
C1612 C1618 1.368 . S
C1613 C1597 1.349 . S
C1613 H1605 0.950 . S
C1613 C1611 1.327 . S
C1614 C1602 1.349 . S
C1614 H1608 0.950 . S
C1614 C1615 1.327 . S
C1615 H1609 0.950 . S
C1615 C1614 1.327 . S
C1615 C1619 1.429 . S
C1616 C1599 1.574 . S
C1616 H1610 0.949 . S
C1616 C1620 1.368 . S
C1617 C1598 1.429 . S
C1617 C1611 1.429 . S
C1617 C1618 1.523 . S
C1618 C1599 1.368 . S
C1618 C1612 1.368 . S
C1618 C1617 1.523 . S
C1619 C1603 1.429 . S
C1619 C1615 1.429 . S
C1619 C1620 1.523 . S
C1620 C1604 1.368 . S
C1620 C1616 1.368 . S
C1620 C1619 1.523 . S
H1621 C1596 0.950 . S
H1622 C1598 0.950 . S
H1623 C1599 0.949 . S
H1624 C1601 0.950 . S
H1625 C1603 0.950 . S
C1626 C1627 1.349 . S
C1626 C1628 1.327 . S
C1626 H1651 0.950 . S
C1627 C1626 1.349 . S
C1627 C1643 1.349 . S
C1628 C1626 1.327 . S
C1628 C1647 1.429 . S
C1628 H1652 0.950 . S
C1629 C1646 1.574 . S
C1629 C1648 1.368 . S
C1629 H1653 0.949 . S
H1630 C1634 0.949 . S
C1631 C1632 1.349 . S
C1631 C1633 1.327 . S
C1631 H1654 0.950 . S
C1632 C1631 1.349 . S
C1632 C1644 1.349 . S
C1633 C1631 1.327 . S
C1633 C1649 1.429 . S
C1633 H1655 0.950 . S
C1634 H1630 0.949 . S
C1634 C1642 1.574 . S
C1634 C1650 1.368 . S
H1635 C1643 0.950 . S
H1636 C1641 0.950 . S
H1637 C1642 0.949 . S
H1638 C1644 0.950 . S
H1639 C1645 0.950 . S
H1640 C1646 0.949 . S
C1641 H1636 0.950 . S
C1641 C1643 1.327 . S
C1641 C1647 1.429 . S
C1642 C1634 1.574 . S
C1642 H1637 0.949 . S
C1642 C1648 1.368 . S
C1643 C1627 1.349 . S
C1643 H1635 0.950 . S
C1643 C1641 1.327 . S
C1644 C1632 1.349 . S
C1644 H1638 0.950 . S
C1644 C1645 1.327 . S
C1645 H1639 0.950 . S
C1645 C1644 1.327 . S
C1645 C1649 1.429 . S
C1646 C1629 1.574 . S
C1646 H1640 0.949 . S
C1646 C1650 1.368 . S
C1647 C1628 1.429 . S
C1647 C1641 1.429 . S
C1647 C1648 1.523 . S
C1648 C1629 1.368 . S
C1648 C1642 1.368 . S
C1648 C1647 1.523 . S
C1649 C1633 1.429 . S
C1649 C1645 1.429 . S
C1649 C1650 1.523 . S
C1650 C1634 1.368 . S
C1650 C1646 1.368 . S
C1650 C1649 1.523 . S
H1651 C1626 0.950 . S
H1652 C1628 0.950 . S
H1653 C1629 0.949 . S
H1654 C1631 0.950 . S
H1655 C1633 0.950 . S
C1656 C1657 1.349 . S
C1656 C1658 1.327 . S
C1656 H1681 0.950 . S
C1657 C1656 1.349 . S
C1657 C1673 1.349 . S
C1658 C1656 1.327 . S
C1658 C1677 1.429 . S
C1658 H1682 0.950 . S
C1659 C1676 1.574 . S
C1659 C1678 1.368 . S
C1659 H1683 0.949 . S
H1660 C1664 0.949 . S
C1661 C1662 1.349 . S
C1661 C1663 1.327 . S
C1661 H1684 0.950 . S
C1662 C1661 1.349 . S
C1662 C1674 1.349 . S
C1663 C1661 1.327 . S
C1663 C1679 1.429 . S
C1663 H1685 0.950 . S
C1664 H1660 0.949 . S
C1664 C1672 1.574 . S
C1664 C1680 1.368 . S
H1665 C1673 0.950 . S
H1666 C1671 0.950 . S
H1667 C1672 0.949 . S
H1668 C1674 0.950 . S
H1669 C1675 0.950 . S
H1670 C1676 0.949 . S
C1671 H1666 0.950 . S
C1671 C1673 1.327 . S
C1671 C1677 1.429 . S
C1672 C1664 1.574 . S
C1672 H1667 0.949 . S
C1672 C1678 1.368 . S
C1673 C1657 1.349 . S
C1673 H1665 0.950 . S
C1673 C1671 1.327 . S
C1674 C1662 1.349 . S
C1674 H1668 0.950 . S
C1674 C1675 1.327 . S
C1675 H1669 0.950 . S
C1675 C1674 1.327 . S
C1675 C1679 1.429 . S
C1676 C1659 1.574 . S
C1676 H1670 0.949 . S
C1676 C1680 1.368 . S
C1677 C1658 1.429 . S
C1677 C1671 1.429 . S
C1677 C1678 1.523 . S
C1678 C1659 1.368 . S
C1678 C1672 1.368 . S
C1678 C1677 1.523 . S
C1679 C1663 1.429 . S
C1679 C1675 1.429 . S
C1679 C1680 1.523 . S
C1680 C1664 1.368 . S
C1680 C1676 1.368 . S
C1680 C1679 1.523 . S
H1681 C1656 0.950 . S
H1682 C1658 0.950 . S
H1683 C1659 0.949 . S
H1684 C1661 0.950 . S
H1685 C1663 0.950 . S
C1686 C1687 1.349 . S
C1686 C1688 1.327 . S
C1686 H1711 0.950 . S
C1687 C1686 1.349 . S
C1687 C1703 1.349 . S
C1688 C1686 1.327 . S
C1688 C1707 1.429 . S
C1688 H1712 0.950 . S
C1689 C1706 1.574 . S
C1689 C1708 1.368 . S
C1689 H1713 0.949 . S
H1690 C1694 0.949 . S
C1691 C1692 1.349 . S
C1691 C1693 1.327 . S
C1691 H1714 0.950 . S
C1692 C1691 1.349 . S
C1692 C1704 1.349 . S
C1693 C1691 1.327 . S
C1693 C1709 1.429 . S
C1693 H1715 0.950 . S
C1694 H1690 0.949 . S
C1694 C1702 1.574 . S
C1694 C1710 1.368 . S
H1695 C1703 0.950 . S
H1696 C1701 0.950 . S
H1697 C1702 0.949 . S
H1698 C1704 0.950 . S
H1699 C1705 0.950 . S
H1700 C1706 0.949 . S
C1701 H1696 0.950 . S
C1701 C1703 1.327 . S
C1701 C1707 1.429 . S
C1702 C1694 1.574 . S
C1702 H1697 0.949 . S
C1702 C1708 1.368 . S
C1703 C1687 1.349 . S
C1703 H1695 0.950 . S
C1703 C1701 1.327 . S
C1704 C1692 1.349 . S
C1704 H1698 0.950 . S
C1704 C1705 1.327 . S
C1705 H1699 0.950 . S
C1705 C1704 1.327 . S
C1705 C1709 1.429 . S
C1706 C1689 1.574 . S
C1706 H1700 0.949 . S
C1706 C1710 1.368 . S
C1707 C1688 1.429 . S
C1707 C1701 1.429 . S
C1707 C1708 1.523 . S
C1708 C1689 1.368 . S
C1708 C1702 1.368 . S
C1708 C1707 1.523 . S
C1709 C1693 1.429 . S
C1709 C1705 1.429 . S
C1709 C1710 1.523 . S
C1710 C1694 1.368 . S
C1710 C1706 1.368 . S
C1710 C1709 1.523 . S
H1711 C1686 0.950 . S
H1712 C1688 0.950 . S
H1713 C1689 0.949 . S
H1714 C1691 0.950 . S
H1715 C1693 0.950 . S
C1716 C1717 1.349 . S
C1716 C1718 1.327 . S
C1716 H1741 0.950 . S
C1717 C1716 1.349 . S
C1717 C1733 1.349 . S
C1718 C1716 1.327 . S
C1718 C1737 1.429 . S
C1718 H1742 0.950 . S
C1719 C1736 1.574 . S
C1719 C1738 1.368 . S
C1719 H1743 0.949 . S
H1720 C1724 0.949 . S
C1721 C1722 1.349 . S
C1721 C1723 1.327 . S
C1721 H1744 0.950 . S
C1722 C1721 1.349 . S
C1722 C1734 1.349 . S
C1723 C1721 1.327 . S
C1723 C1739 1.429 . S
C1723 H1745 0.950 . S
C1724 H1720 0.949 . S
C1724 C1732 1.574 . S
C1724 C1740 1.368 . S
H1725 C1733 0.950 . S
H1726 C1731 0.950 . S
H1727 C1732 0.949 . S
H1728 C1734 0.950 . S
H1729 C1735 0.950 . S
H1730 C1736 0.949 . S
C1731 H1726 0.950 . S
C1731 C1733 1.327 . S
C1731 C1737 1.429 . S
C1732 C1724 1.574 . S
C1732 H1727 0.949 . S
C1732 C1738 1.368 . S
C1733 C1717 1.349 . S
C1733 H1725 0.950 . S
C1733 C1731 1.327 . S
C1734 C1722 1.349 . S
C1734 H1728 0.950 . S
C1734 C1735 1.327 . S
C1735 H1729 0.950 . S
C1735 C1734 1.327 . S
C1735 C1739 1.429 . S
C1736 C1719 1.574 . S
C1736 H1730 0.949 . S
C1736 C1740 1.368 . S
C1737 C1718 1.429 . S
C1737 C1731 1.429 . S
C1737 C1738 1.523 . S
C1738 C1719 1.368 . S
C1738 C1732 1.368 . S
C1738 C1737 1.523 . S
C1739 C1723 1.429 . S
C1739 C1735 1.429 . S
C1739 C1740 1.523 . S
C1740 C1724 1.368 . S
C1740 C1736 1.368 . S
C1740 C1739 1.523 . S
H1741 C1716 0.950 . S
H1742 C1718 0.950 . S
H1743 C1719 0.949 . S
H1744 C1721 0.950 . S
H1745 C1723 0.950 . S
C1746 C1747 1.349 . S
C1746 C1748 1.327 . S
C1746 H1771 0.950 . S
C1747 C1746 1.349 . S
C1747 C1763 1.349 . S
C1748 C1746 1.327 . S
C1748 C1767 1.429 . S
C1748 H1772 0.950 . S
C1749 C1766 1.574 . S
C1749 C1768 1.368 . S
C1749 H1773 0.949 . S
H1750 C1754 0.949 . S
C1751 C1752 1.349 . S
C1751 C1753 1.327 . S
C1751 H1774 0.950 . S
C1752 C1751 1.349 . S
C1752 C1764 1.349 . S
C1753 C1751 1.327 . S
C1753 C1769 1.429 . S
C1753 H1775 0.950 . S
C1754 H1750 0.949 . S
C1754 C1762 1.574 . S
C1754 C1770 1.368 . S
H1755 C1763 0.950 . S
H1756 C1761 0.950 . S
H1757 C1762 0.949 . S
H1758 C1764 0.950 . S
H1759 C1765 0.950 . S
H1760 C1766 0.949 . S
C1761 H1756 0.950 . S
C1761 C1763 1.327 . S
C1761 C1767 1.429 . S
C1762 C1754 1.574 . S
C1762 H1757 0.949 . S
C1762 C1768 1.368 . S
C1763 C1747 1.349 . S
C1763 H1755 0.950 . S
C1763 C1761 1.327 . S
C1764 C1752 1.349 . S
C1764 H1758 0.950 . S
C1764 C1765 1.327 . S
C1765 H1759 0.950 . S
C1765 C1764 1.327 . S
C1765 C1769 1.429 . S
C1766 C1749 1.574 . S
C1766 H1760 0.949 . S
C1766 C1770 1.368 . S
C1767 C1748 1.429 . S
C1767 C1761 1.429 . S
C1767 C1768 1.523 . S
C1768 C1749 1.368 . S
C1768 C1762 1.368 . S
C1768 C1767 1.523 . S
C1769 C1753 1.429 . S
C1769 C1765 1.429 . S
C1769 C1770 1.523 . S
C1770 C1754 1.368 . S
C1770 C1766 1.368 . S
C1770 C1769 1.523 . S
H1771 C1746 0.950 . S
H1772 C1748 0.950 . S
H1773 C1749 0.949 . S
H1774 C1751 0.950 . S
H1775 C1753 0.950 . S
C337 C167 1.285 . S
C342 C7 1.429 . S
C367 C21 1.429 . S
C372 C125 1.285 . S
C397 C35 1.429 . S
C402 C139 1.285 . S
C427 C49 1.429 . S
C432 C153 1.285 . S
C457 C195 1.285 . S
C462 C63 1.429 . S
C487 C77 1.429 . S
C492 C209 1.285 . S
C517 C223 1.285 . S
C522 C91 1.429 . S
C547 C181 1.285 . S
C552 C105 1.429 . S
C577 C83 1.285 . S
C582 C119 1.429 . S
C607 C97 1.285 . S
C612 C133 1.429 . S
C637 C147 1.429 . S
C642 C111 1.285 . S
C667 C69 1.285 . S
C672 C161 1.429 . S
C697 C55 1.285 . S
C702 C175 1.429 . S
C727 C189 1.429 . S
C732 C13 1.285 . S
C757 C203 1.429 . S
C762 C27 1.285 . S
C787 C217 1.429 . S
C792 C41 1.285 . S
C817 C231 1.429 . S
C822 C335 1.285 . S
C847 C293 1.285 . S
C852 C245 1.429 . S
C877 C259 1.429 . S
C882 C251 1.285 . S
C907 C273 1.429 . S
C912 C265 1.285 . S
C937 C279 1.285 . S
C942 C287 1.429 . S
C967 C301 1.429 . S
C972 C321 1.285 . S
C997 C237 1.285 . S
C1002 C315 1.429 . S
C1027 C307 1.285 . S
C1032 C329 1.429 . S
C1057 C8 1.150 . S
C1062 C92 1.150 . S
C1087 C22 1.150 . S
C1092 C106 1.150 . S
C1117 C36 1.150 . S
C1122 C64 1.150 . S
C1147 C78 1.150 . S
C1152 C50 1.150 . S
C1177 C148 1.150 . S
C1182 C120 1.150 . S
C1207 C134 1.150 . S
C1212 C162 1.150 . S
C1237 C176 1.150 . S
C1242 C204 1.150 . S
C1267 C218 1.150 . S
C1272 C190 1.150 . S
C1297 C246 1.150 . S
C1302 C232 1.150 . S
C1327 C260 1.150 . S
C1332 C330 1.150 . S
C1357 C274 1.150 . S
C1362 C302 1.150 . S
C1387 C288 1.150 . S
C1392 C316 1.150 . S
C1417 C11 0.884 . S
C1422 C81 0.884 . S
C1447 C25 0.884 . S
C1452 C95 0.884 . S
C1477 C39 0.884 . S
C1482 C109 0.884 . S
C1507 C67 0.884 . S
C1512 C53 0.884 . S
C1537 C123 0.884 . S
C1542 C333 0.884 . S
C1567 C137 0.884 . S
C1572 C305 0.884 . S
C1597 C319 0.884 . S
C1602 C151 0.884 . S
C1627 C165 0.884 . S
C1632 C235 0.884 . S
C1657 C291 0.884 . S
C1662 C179 0.884 . S
C1687 C249 0.884 . S
C1692 C193 0.884 . S
C1717 C207 0.884 . S
C1722 C263 0.884 . S
C1747 C277 0.884 . S
C1752 C221 0.884 . S
