# Generated by pormake.
# Topology sml, (6)-cn, num edge types: 1
# Building blocks:
#     Node 0, Type 0, BuildingBlock: JUFBIX_clean_sbu_0, # of connection points: 6
#     Node 1, Type 0, BuildingBlock: JUFBIX_clean_sbu_0, # of connection points: 6
#     Node 2, Type 0, BuildingBlock: JUFBIX_clean_sbu_0, # of connection points: 6
#     Node 3, Type 0, BuildingBlock: JUFBIX_clean_sbu_0, # of connection points: 6
#     Node 4, Type 0, BuildingBlock: JUFBIX_clean_sbu_0, # of connection points: 6
#     Node 5, Type 0, BuildingBlock: JUFBIX_clean_sbu_0, # of connection points: 6
#     Edge 6, Type (0, 0), BuildingBlock: ZUJKAS_clean_linker_0, # of connection points: 2
#     Edge 7, Type (0, 0), BuildingBlock: ZUJKAS_clean_linker_0, # of connection points: 2
#     Edge 8, Type (0, 0), BuildingBlock: ZUJKAS_clean_linker_0, # of connection points: 2
#     Edge 9, Type (0, 0), BuildingBlock: ZUJKAS_clean_linker_0, # of connection points: 2
#     Edge 10, Type (0, 0), BuildingBlock: ZUJKAS_clean_linker_0, # of connection points: 2
#     Edge 11, Type (0, 0), BuildingBlock: ZUJKAS_clean_linker_0, # of connection points: 2
#     Edge 12, Type (0, 0), BuildingBlock: ZUJKAS_clean_linker_0, # of connection points: 2
#     Edge 13, Type (0, 0), BuildingBlock: ZUJKAS_clean_linker_0, # of connection points: 2
#     Edge 14, Type (0, 0), BuildingBlock: ZUJKAS_clean_linker_0, # of connection points: 2
#     Edge 15, Type (0, 0), BuildingBlock: ZUJKAS_clean_linker_0, # of connection points: 2
#     Edge 16, Type (0, 0), BuildingBlock: ZUJKAS_clean_linker_0, # of connection points: 2
#     Edge 17, Type (0, 0), BuildingBlock: ZUJKAS_clean_linker_0, # of connection points: 2
#     Edge 18, Type (0, 0), BuildingBlock: ZUJKAS_clean_linker_0, # of connection points: 2
#     Edge 19, Type (0, 0), BuildingBlock: ZUJKAS_clean_linker_0, # of connection points: 2
#     Edge 20, Type (0, 0), BuildingBlock: ZUJKAS_clean_linker_0, # of connection points: 2
#     Edge 21, Type (0, 0), BuildingBlock: ZUJKAS_clean_linker_0, # of connection points: 2
#     Edge 22, Type (0, 0), BuildingBlock: ZUJKAS_clean_linker_0, # of connection points: 2
#     Edge 23, Type (0, 0), BuildingBlock: ZUJKAS_clean_linker_0, # of connection points: 2
# Relax obj value: 0.281
# Max RMSD: 0.197
# Mean RMSD: 0.197
data_MOF--net-sml--node1-JUFBIX_clean_sbu_0--edge1-ZUJKAS_clean_linker_0
_symmetry_space_group_name_H-M    P1
_symmetry_Int_Tables_number       1
_symmetry_cell_setting            triclinic
loop_
_symmetry_equiv_pos_as_xyz
'x, y, z'
_cell_length_a     56.239544
_cell_length_b     56.108427
_cell_length_c     18.795279
_cell_angle_alpha  89.955363
_cell_angle_beta   89.944245
_cell_angle_gamma 119.98932
loop_
_atom_site_label
_atom_site_type_symbol
_atom_site_fract_x
_atom_site_fract_y
_atom_site_fract_z
_atom_type_partial_charge
Co0 Co 0.29001 0.4815 0.01881 0.0
C1 C 0.24705 0.49004 0.06403 0.0
Co2 Co 0.2493 0.44353 0.0301 0.0
C3 C 0.349 0.52442 0.01033 0.0
C4 C 0.32071 0.5372 0.9767 0.0
N5 N 0.32181 0.51526 0.0023 0.0
N6 N 0.36441 0.5513 -0.00776 0.0
C7 C 0.34665 0.55927 0.97117 0.0
H8 H 0.35727 0.51182 0.02931 0.0
H9 H 0.3021 0.53719 0.96213 0.0
C10 C 0.29287 0.43545 -0.01454 0.0
N11 N 0.21663 0.41035 0.04652 0.0
C12 C 0.19095 0.40611 0.05677 0.0
C13 C 0.21432 0.38558 0.05907 0.0
N14 N 0.1729 0.37983 0.07545 0.0
C15 C 0.1876 0.36687 0.07642 0.0
C16 C 0.25673 0.46406 0.89682 0.0
O17 O 0.30751 0.46156 -0.01065 0.0
O18 O 0.26744 0.42393 0.00091 0.0
O19 O 0.23926 0.44424 0.93473 0.0
O20 O 0.27931 0.48196 0.92414 0.0
O21 O 0.23195 0.4641 0.05906 0.0
H22 H 0.23116 0.38148 0.05912 0.0
H23 H 0.18565 0.42211 0.05237 0.0
O24 O 0.2723 0.50087 0.04895 0.0
O25 O 0.30012 0.4806 0.11403 0.0
O26 O 0.25977 0.44306 0.12488 0.0
C27 C 0.2825 0.46086 0.15202 0.0
H28 H 0.3522 0.57957 0.95162 0.0
H29 H 0.17996 0.34573 0.09242 0.0
Co30 Co 0.7827 0.22088 0.40575 0.0
C31 C 0.82265 0.2744 0.36969 0.0
Co32 Co 0.82533 0.22854 0.4104 0.0
C33 C 0.72771 0.20915 0.44807 0.0
C34 C 0.73734 0.22116 0.33909 0.0
N35 N 0.74738 0.2157 0.39809 0.0
N36 N 0.70585 0.21046 0.42249 0.0
C37 C 0.71203 0.21796 0.35372 0.0
H38 H 0.72982 0.20428 0.50256 0.0
H39 H 0.74828 0.2283 0.28921 0.0
C40 C 0.78502 0.17489 0.44689 0.0
N41 N 0.86088 0.23462 0.416 0.0
C42 C 0.88164 0.24888 0.36965 0.0
C43 C 0.87186 0.2265 0.46768 0.0
N44 N 0.90525 0.25009 0.39026 0.0
C45 C 0.89907 0.23594 0.45205 0.0
C46 C 0.80663 0.2387 0.53605 0.0
O47 O 0.76868 0.18403 0.43593 0.0
O48 O 0.81072 0.19085 0.43791 0.0
O49 O 0.82675 0.23844 0.50613 0.0
O50 O 0.7849 0.23194 0.50094 0.0
O51 O 0.83933 0.26597 0.38345 0.0
H52 H 0.86086 0.21475 0.51414 0.0
H53 H 0.87932 0.25807 0.32143 0.0
O54 O 0.79704 0.25782 0.3755 0.0
O55 O 0.78106 0.20977 0.31084 0.0
O56 O 0.82366 0.21863 0.31439 0.0
C57 C 0.80157 0.2107 0.28004 0.0
H58 H 0.69989 0.22233 0.31704 0.0
H59 H 0.91329 0.23305 0.48464 0.0
Co60 Co 0.60173 0.85069 0.73857 0.0
C61 C 0.58652 0.79714 0.77413 0.0
Co62 Co 0.63648 0.84273 0.73385 0.0
C63 C 0.55004 0.84893 0.70837 0.0
C64 C 0.57467 0.87957 0.78503 0.0
N65 N 0.57374 0.85909 0.74538 0.0
N66 N 0.53637 0.8625 0.72295 0.0
C67 C 0.55181 0.88167 0.77156 0.0
H68 H 0.54358 0.83275 0.66916 0.0
H69 H 0.59141 0.89285 0.81983 0.0
C70 C 0.65124 0.89637 0.69797 0.0
N71 N 0.6649 0.83514 0.72665 0.0
C72 C 0.67115 0.82006 0.77076 0.0
C73 C 0.68374 0.84343 0.67418 0.0
N74 N 0.69322 0.81864 0.74794 0.0
C75 C 0.70116 0.83337 0.68712 0.0
C76 C 0.60763 0.83335 0.60783 0.0
O77 O 0.62604 0.88747 0.71113 0.0
O78 O 0.66073 0.8801 0.70472 0.0
O79 O 0.62726 0.83243 0.63842 0.0
O80 O 0.59332 0.8411 0.64247 0.0
O81 O 0.61186 0.80564 0.76295 0.0
H82 H 0.68459 0.85579 0.629 0.0
H83 H 0.65982 0.81051 0.81899 0.0
O84 O 0.57744 0.81368 0.76585 0.0
O85 O 0.61064 0.86017 0.83463 0.0
O86 O 0.6455 0.85296 0.82931 0.0
C87 C 0.63073 0.85995 0.86459 0.0
H88 H 0.54715 0.89646 0.79508 0.0
H89 H 0.71803 0.83626 0.65346 0.0
Co90 Co 0.86127 0.59253 0.06183 0.0
C91 C 0.80738 0.57665 0.02359 0.0
Co92 Co 0.85157 0.62617 0.06529 0.0
C93 C 0.87554 0.55126 0.10383 0.0
C94 C 0.8633 0.54799 -0.00508 0.0
N95 N 0.86811 0.56352 0.0536 0.0
N96 N 0.87527 0.52846 0.07896 0.0
C97 C 0.86766 0.52659 0.01018 0.0
H98 H 0.88016 0.55851 0.1581 0.0
H99 H 0.85575 0.55121 0.94501 0.0
C100 C 0.9056 0.64145 0.10398 0.0
N101 N 0.84416 0.65475 0.07279 0.0
C102 C 0.82913 0.66116 0.02899 0.0
C103 C 0.85247 0.67354 0.12537 0.0
N104 N 0.82776 0.68325 0.05215 0.0
C105 C 0.84248 0.69107 0.11284 0.0
C106 C 0.84214 0.59713 0.19139 0.0
O107 O 0.89761 0.61626 0.09193 0.0
O108 O 0.88886 0.65025 0.09492 0.0
O109 O 0.84104 0.61668 0.1606 0.0
O110 O 0.85038 0.58314 0.15709 0.0
O111 O 0.81457 0.60166 0.03572 0.0
H112 H 0.86477 0.67426 0.17041 0.0
H113 H 0.81957 0.64989 0.9808 0.0
O114 O 0.82479 0.56879 0.03198 0.0
O115 O 0.87217 0.60248 0.96673 0.0
O116 O 0.86203 0.63544 0.96991 0.0
C117 C 0.87064 0.62176 0.93576 0.0
H118 H 0.8639 0.5101 0.97399 0.0
H119 H 0.84538 0.7079 0.14671 0.0
Co120 Co 0.22523 0.77544 0.40312 0.0
C121 C 0.27918 0.81292 0.44021 0.0
Co122 Co 0.2353 0.81906 0.3991 0.0
C123 C 0.21155 0.71977 0.36071 0.0
C124 C 0.22032 0.72761 0.47174 0.0
N125 N 0.21768 0.73913 0.4114 0.0
N126 N 0.21061 0.69687 0.38715 0.0
C127 C 0.21593 0.70177 0.45712 0.0
H128 H 0.2092 0.72293 0.30493 0.0
H129 H 0.2262 0.73772 0.52288 0.0
C130 C 0.18106 0.7806 0.36192 0.0
N131 N 0.24354 0.85551 0.39189 0.0
C132 C 0.25858 0.87676 0.43637 0.0
C133 C 0.23641 0.86661 0.33819 0.0
N134 N 0.26129 0.90073 0.41223 0.0
C135 C 0.24728 0.89432 0.35042 0.0
C136 C 0.24409 0.79896 0.27295 0.0
O137 O 0.18903 0.76339 0.374 0.0
O138 O 0.19792 0.80624 0.36998 0.0
O139 O 0.24552 0.81981 0.3035 0.0
O140 O 0.23576 0.77676 0.30762 0.0
O141 O 0.27224 0.83094 0.42818 0.0
H142 H 0.22428 0.8553 0.29263 0.0
H143 H 0.26789 0.87477 0.48471 0.0
O144 O 0.26156 0.78765 0.43218 0.0
O145 O 0.2147 0.77488 0.49858 0.0
O146 O 0.22512 0.81809 0.49459 0.0
C147 C 0.21647 0.79585 0.5292 0.0
H148 H 0.21724 0.68792 0.49495 0.0
H149 H 0.24487 0.90857 0.31656 0.0
Co150 Co 0.48151 0.2947 0.73353 0.0
C151 C 0.49801 0.2573 0.70081 0.0
Co152 Co 0.44727 0.25156 0.73958 0.0
C153 C 0.53332 0.34483 0.76122 0.0
C154 C 0.50757 0.35091 0.68848 0.0
N155 N 0.50908 0.33131 0.72651 0.0
N156 N 0.54682 0.37211 0.74679 0.0
C157 C 0.53066 0.3759 0.70069 0.0
H158 H 0.54039 0.335 0.79848 0.0
H159 H 0.49039 0.34739 0.65541 0.0
C160 C 0.43154 0.29007 0.77244 0.0
N161 N 0.41931 0.21505 0.74676 0.0
C162 C 0.41354 0.19371 0.70291 0.0
C163 C 0.40085 0.20399 0.79999 0.0
N164 N 0.39233 0.16973 0.72703 0.0
C165 C 0.38432 0.17623 0.78812 0.0
C166 C 0.47587 0.27189 0.86498 0.0
O167 O 0.45682 0.30642 0.76044 0.0
O168 O 0.42214 0.26424 0.76629 0.0
O169 O 0.45614 0.25114 0.8353 0.0
O170 O 0.4901 0.2938 0.82955 0.0
O171 O 0.4729 0.23982 0.71331 0.0
H172 H 0.39967 0.21537 0.845 0.0
H173 H 0.42511 0.19566 0.65508 0.0
O174 O 0.50623 0.28284 0.70641 0.0
O175 O 0.47246 0.29498 0.6378 0.0
O176 O 0.43871 0.25223 0.64359 0.0
C177 C 0.45285 0.27413 0.6081 0.0
H178 H 0.53505 0.39538 0.67776 0.0
H179 H 0.36757 0.16198 0.82175 0.0
H180 H 0.3763 0.26281 0.80725 0.0
H181 H 0.34838 0.28371 0.84048 0.0
H182 H 0.41947 0.36451 0.81858 0.0
H183 H 0.44715 0.34418 0.78512 0.0
H184 H 0.35629 0.32069 0.95496 0.0
H185 H 0.36226 0.36921 0.69397 0.0
H186 H 0.3705 0.34218 0.70516 0.0
H187 H 0.3953 0.37717 0.72738 0.0
C188 C 0.38588 0.28501 0.80923 0.0
C189 C 0.41393 0.30176 0.79299 0.0
C190 C 0.36994 0.29692 0.82829 0.0
C191 C 0.38174 0.3257 0.83069 0.0
C192 C 0.40975 0.34231 0.81552 0.0
H193 H 0.34601 0.45291 0.94506 0.0
H194 H 0.3657 0.42451 0.90835 0.0
C195 C 0.4256 0.33054 0.79672 0.0
C196 C 0.36538 0.33888 0.85052 0.0
H197 H 0.34888 0.38663 0.79321 0.0
C198 C 0.35425 0.33478 0.91932 0.0
C199 C 0.36282 0.35732 0.80397 0.0
C200 C 0.37312 0.36156 0.72826 0.0
C201 C 0.34173 0.34958 0.94384 0.0
C202 C 0.34001 0.3687 0.89798 0.0
C203 C 0.35043 0.37217 0.82854 0.0
C204 C 0.32795 0.38572 0.92128 0.0
C205 C 0.33143 0.34545 0.01951 0.0
C206 C 0.30013 0.37338 0.94001 0.0
C207 C 0.2888 0.38954 0.96087 0.0
C208 C 0.30506 0.41844 0.96327 0.0
C209 C 0.33291 0.43075 0.94403 0.0
C210 C 0.3442 0.41455 0.92298 0.0
H211 H 0.33968 0.33475 0.05233 0.0
H212 H 0.33712 0.36549 0.04481 0.0
H213 H 0.3087 0.33272 0.01958 0.0
H214 H 0.28707 0.35124 0.9378 0.0
H215 H 0.26724 0.37934 0.97491 0.0
H216 H 0.14961 0.40721 0.13647 0.0
H217 H 0.103 0.38705 0.18447 0.0
H218 H 0.08592 0.30662 0.11683 0.0
H219 H 0.13224 0.32667 0.06728 0.0
H220 H 0.04269 0.31791 0.08934 0.0
H221 H 0.07937 0.34049 0.36908 0.0
H222 H 0.09387 0.36951 0.30965 0.0
H223 H 0.10119 0.34211 0.29652 0.0
C224 C 0.13583 0.38531 0.1307 0.0
C225 C 0.14477 0.36852 0.09842 0.0
C226 C 0.10927 0.37378 0.15886 0.0
C227 C 0.09116 0.34528 0.15525 0.0
C228 C 0.09963 0.32864 0.12064 0.0
H229 H 0.94715 0.2394 0.40351 0.0
H230 H 0.99187 0.2633 0.3448 0.0
C231 C 0.12617 0.34011 0.09272 0.0
C232 C 0.06365 0.33255 0.18927 0.0
H233 H 0.03162 0.3201 0.35077 0.0
C234 C 0.04022 0.31848 0.14644 0.0
C235 C 0.06055 0.33303 0.26389 0.0
C236 C 0.08503 0.34688 0.31277 0.0
C237 C 1.01373 0.30493 0.17626 0.0
C238 C 1.01062 0.30568 0.2508 0.0
C239 C 0.03406 0.31972 0.2936 0.0
C240 C 0.98328 0.29124 0.2858 0.0
C241 C 0.98931 0.28932 0.12802 0.0
C242 C 0.96366 0.29918 0.27264 0.0
C243 C 0.93806 0.28565 0.30657 0.0
C244 C 0.93158 0.26394 0.35459 0.0
C245 C 0.95142 0.25617 0.36767 0.0
C246 C 0.977 0.26974 0.33385 0.0
H247 H 0.99545 0.28576 0.07464 0.0
H248 H 0.97442 0.26913 0.15176 0.0
H249 H 0.97871 0.30135 0.12092 0.0
H250 H 0.96827 0.31607 0.23678 0.0
H251 H 0.92359 0.29259 0.29603 0.0
H252 H 0.81377 0.14825 0.47468 0.0
H253 H 0.79529 0.10035 0.51261 0.0
H254 H 0.71345 0.08862 0.51136 0.0
H255 H 0.73157 0.13613 0.4727 0.0
H256 H 0.76499 0.07348 0.63387 0.0
H257 H 0.70503 0.0246 0.39035 0.0
H258 H 0.73115 0.06048 0.39368 0.0
H259 H 0.69725 0.04933 0.4277 0.0
C260 C 0.79182 0.13542 0.48212 0.0
C261 C 0.77413 0.14599 0.47008 0.0
C262 C 0.78132 0.10807 0.50389 0.0
C263 C 0.75295 0.09077 0.51355 0.0
C264 C 0.73534 0.1014 0.5026 0.0
H265 H 0.63548 0.9343 0.67359 0.0
H266 H 0.66314 0.98103 0.62831 0.0
C267 C 0.74577 0.12865 0.48085 0.0
C268 C 0.7416 0.06176 0.53675 0.0
H269 H 0.69352 0.99581 0.49371 0.0
C270 C 0.74968 0.05642 0.6028 0.0
C271 C 0.72178 0.03952 0.49587 0.0
C272 C 0.71349 0.0437 0.42263 0.0
C273 C 0.73735 0.02957 0.63072 0.0
C274 C 0.71662 1.00757 0.59122 0.0
C275 C 0.70933 1.01278 0.52403 0.0
C276 C 0.70064 0.97936 0.62081 0.0
C277 C 0.74561 0.02502 0.70355 0.0
C278 C 0.7126 0.96287 0.63165 0.0
C279 C 0.69675 0.93591 0.65752 0.0
C280 C 0.66871 0.92511 0.67296 0.0
C281 C 0.657 0.94189 0.66244 0.0
C282 C 0.67276 0.96865 0.63642 0.0
H283 H 0.75945 0.04469 0.73107 0.0
H284 H 0.72713 1.01282 0.73712 0.0
H285 H 0.75643 1.01312 0.69841 0.0
H286 H 0.73405 0.9707 0.61915 0.0
H287 H 0.70637 0.92349 0.66478 0.0
H288 H 0.6685 0.77357 0.83354 0.0
H289 H 0.68958 0.74871 0.88644 0.0
H290 H 0.76696 0.80577 0.78901 0.0
H291 H 0.74614 0.83076 0.7363 0.0
H292 H 0.75266 0.75106 0.77028 0.0
H293 H 0.74334 0.77325 0.05378 0.0
H294 H 0.71176 0.7579 0.00452 0.0
H295 H 0.73886 0.7918 0.98139 0.0
C296 C 0.69008 0.78104 0.8241 0.0
C297 C 0.70562 0.80421 0.78067 0.0
C298 C 0.70209 0.76679 0.85435 0.0
C299 C 0.72991 0.77556 0.84224 0.0
C300 C 0.74545 0.79863 0.79897 0.0
H301 H 0.83977 0.73625 0.06466 0.0
H302 H 0.81487 0.75724 0.01252 0.0
C303 C 0.73347 0.81283 0.76864 0.0
C304 C 0.7429 0.76054 0.87343 0.0
H305 H 0.76018 0.7429 0.03103 0.0
C306 C 0.75426 0.7492 0.82729 0.0
C307 C 0.74516 0.75838 0.94781 0.0
C308 C 0.73437 0.77116 -7e-05 0.0
C309 C 0.76791 0.73581 0.85349 0.0
C310 C 0.76989 0.73335 0.92787 0.0
C311 C 0.75846 0.74463 0.97402 0.0
C312 C 0.78478 0.72024 0.95901 0.0
C313 C 0.78079 0.72513 0.80137 0.0
C314 C 0.77605 0.69239 0.9466 0.0
C315 C 0.79026 0.68028 0.97651 0.0
C316 C 0.81335 0.69575 0.01989 0.0
C317 C 0.82191 0.72362 0.03232 0.0
C318 C 0.80775 0.7357 0.00233 0.0
H319 H 0.78302 0.73426 0.74759 0.0
H320 H 0.80134 0.72958 0.82006 0.0
H321 H 0.76758 0.70248 0.79656 0.0
H322 H 0.75804 0.67993 0.91446 0.0
H323 H 0.78282 0.65868 0.96679 0.0
H324 H 0.15603 0.81066 0.3284 0.0
H325 H 0.10833 0.79279 0.28963 0.0
H326 H 0.09416 0.70995 0.30205 0.0
H327 H 0.14121 0.72736 0.34115 0.0
H328 H 0.08085 0.75978 0.16983 0.0
H329 H 0.03115 0.70587 0.42018 0.0
H330 H 0.06707 0.7317 0.41529 0.0
H331 H 0.0557 0.69685 0.3883 0.0
C332 C 0.14267 0.78864 0.32323 0.0
C333 C 0.1524 0.77045 0.33846 0.0
C334 C 0.11547 0.77848 0.30101 0.0
C335 C 0.09757 0.75002 0.2943 0.0
C336 C 0.1074 0.73195 0.3085 0.0
H337 H 0.94433 0.62764 0.13771 0.0
H338 H 0.99041 0.65743 0.18429 0.0
C339 C 0.13443 0.742 0.33053 0.0
C340 C 0.06874 0.73876 0.27063 0.0
H341 H 1.00292 0.69098 0.31522 0.0
C342 C 0.06371 0.74516 0.20204 0.0
C343 C 0.04641 0.7198 0.31294 0.0
C344 C 0.05029 0.71336 0.38855 0.0
C345 C 0.03709 0.73175 0.17307 0.0
C346 C 1.01507 0.71165 0.21402 0.0
C347 C 1.01992 0.70627 0.28377 0.0
C348 C 0.98728 0.6943 0.18374 0.0
C349 C 0.03283 0.73806 0.0977 0.0
C350 C 0.97021 0.7052 0.1681 0.0
C351 C 0.94368 0.68816 0.14155 0.0
C352 C 0.93387 0.65995 0.13014 0.0
C353 C 0.95119 0.64925 0.14558 0.0
C354 C 0.97755 0.66623 0.17234 0.0
H355 H 0.05252 0.75197 0.07035 0.0
H356 H 0.02162 0.71872 0.06663 0.0
H357 H 0.02009 0.74807 0.09806 0.0
H358 H 0.97727 0.72678 0.17729 0.0
H359 H 0.93082 0.69702 0.13044 0.0
H360 H 0.39085 0.15732 0.58672 0.0
H361 H 0.3695 0.11129 0.53359 0.0
H362 H 0.34676 0.07488 0.7425 0.0
H363 H 0.36774 0.12064 0.79561 0.0
H364 H 0.37945 0.06862 0.54976 0.0
H365 H 0.27381 0.03611 0.64123 0.0
H366 H 0.3013 0.07137 0.64577 0.0
H367 H 0.29815 0.04697 0.71263 0.0
C368 C 0.3814 0.13951 0.62131 0.0
C369 C 0.38072 0.14271 0.6954 0.0
C370 C 0.36912 0.11319 0.59087 0.0
C371 C 0.35594 0.08955 0.63387 0.0
C372 C 0.35602 0.09273 0.70796 0.0
H373 H 0.27102 0.91268 0.55298 0.0
H374 H 0.29533 0.95855 0.60721 0.0
C375 C 0.36809 0.11897 0.73832 0.0
C376 C 0.3423 0.06157 0.6015 0.0
H377 H 0.28103 1.00125 0.59175 0.0
C378 C 0.3579 0.05395 0.55866 0.0
C379 C 0.31413 0.04236 0.61301 0.0
C380 C 0.29579 0.04966 0.65507 0.0
C381 C 0.34625 0.02758 0.52814 0.0
C382 C 0.3182 1.00837 0.54022 0.0
C383 C 0.30259 0.01594 0.58301 0.0
C384 C 0.3044 0.98057 0.50726 0.0
C385 C 0.36416 0.0203 0.48411 0.0
C386 C 0.30131 0.9777 0.43318 0.0
C387 C 0.2874 0.95157 0.40215 0.0
C388 C 0.27626 0.92767 0.44451 0.0
C389 C 0.27958 0.93061 0.51878 0.0
C390 C 0.29334 0.95681 0.54985 0.0
H391 H 0.38634 0.0347 0.49369 0.0
H392 H 0.35957 0.99901 0.49583 0.0
H393 H 0.35998 0.02139 0.42686 0.0
H394 H 0.30934 0.99573 0.39932 0.0
H395 H 0.2855 0.95012 0.34482 0.0
H396 H 0.28338 0.50818 0.80958 0.0
H397 H 0.28614 0.50735 0.68034 0.0
H398 H 0.22562 0.42089 0.6799 0.0
H399 H 0.22287 0.42147 0.81001 0.0
H400 H 0.27679 0.43479 0.61624 0.0
H401 H 0.23615 0.50015 0.51292 0.0
H402 H 0.26036 0.51548 0.58426 0.0
H403 H 0.22795 0.48492 0.60066 0.0
C404 C 0.27006 0.48915 0.78187 0.0
C405 C 0.25307 0.46481 0.81965 0.0
C406 C 0.27158 0.48876 0.70803 0.0
C407 C 0.25604 0.46409 0.67092 0.0
C408 C 0.23767 0.44013 0.708 0.0
H409 H 0.2558 0.41675 0.23928 0.0
H410 H 0.25322 0.41757 0.36858 0.0
C411 C 0.23602 0.44053 0.78209 0.0
C412 C 0.2618 0.46273 0.59509 0.0
H413 H 0.26276 0.49011 0.43262 0.0
C414 C 0.2735 0.44666 0.57583 0.0
C415 C 0.25785 0.47861 0.54319 0.0
C416 C 0.24467 0.4956 0.56101 0.0
C417 C 0.28169 0.4463 0.50567 0.0
C418 C 0.27774 0.46217 0.45377 0.0
C419 C 0.26605 0.47825 0.47303 0.0
C420 C 0.28346 0.46078 0.37793 0.0
C421 C 0.29485 0.42929 0.4878 0.0
C422 C 0.30185 0.48472 0.34079 0.0
C423 C 0.30341 0.48433 0.26668 0.0
C424 C 0.28622 0.46007 0.22916 0.0
C425 C 0.26921 0.43575 0.26698 0.0
C426 C 0.2678 0.43613 0.34083 0.0
H427 H 0.30333 0.42468 0.53588 0.0
H428 H 0.27916 0.40943 0.46444 0.0
H429 H 0.31159 0.43998 0.44822 0.0
H430 H 0.31399 0.50394 0.36889 0.0
H431 H 0.31657 0.50337 0.23874 0.0
H432 H 0.84424 0.21991 0.1933 0.0
H433 H 0.84503 0.2236 0.06362 0.0
H434 H 0.75853 0.19668 0.06338 0.0
H435 H 0.75735 0.19265 0.19272 0.0
H436 H 0.77841 0.17629 0.94778 0.0
H437 H 0.83734 0.28984 -0.01295 0.0
H438 H 0.85142 0.27065 0.02811 0.0
H439 H 0.81912 0.26608 0.05851 0.0
C440 C 0.82523 0.21406 0.16552 0.0
C441 C 0.80084 0.20654 0.20295 0.0
C442 C 0.82578 0.2163 0.0917 0.0
C443 C 0.80198 0.21102 0.05502 0.0
C444 C 0.7771 0.20106 0.09148 0.0
H445 H 0.76409 0.23083 0.62164 0.0
H446 H 0.76289 0.22746 0.75143 0.0
C447 C 0.7765 0.19881 0.1652 0.0
C448 C 0.80347 0.21851 0.97989 0.0
H449 H 0.82885 0.27383 0.86839 0.0
C450 C 0.78938 0.19756 0.93015 0.0
C451 C 0.81762 0.24637 0.95814 0.0
C452 C 0.83208 0.26962 0.01065 0.0
C453 C 0.78957 0.20376 0.85807 0.0
C454 C 0.80381 0.23161 0.83629 0.0
C455 C 0.81783 0.25257 0.88605 0.0
C456 C 0.80566 0.23904 0.76106 0.0
C457 C 0.77506 0.18053 0.80553 0.0
C458 C 0.83054 0.24827 0.72511 0.0
C459 C 0.83136 0.25027 0.65134 0.0
C460 C 0.80725 0.24304 0.61303 0.0
C461 C 0.78292 0.23628 0.64987 0.0
C462 C 0.78214 0.23424 0.72375 0.0
H463 H 0.76928 0.16022 0.82943 0.0
H464 H 0.75604 0.17991 0.78693 0.0
H465 H 0.78826 0.18381 0.75832 0.0
H466 H 0.84889 0.25224 0.7537 0.0
H467 H 0.85046 0.25586 0.62426 0.0
H468 H 0.57421 0.84262 0.52115 0.0
H469 H 0.57624 0.84504 0.39126 0.0
H470 H 0.63546 0.81753 0.39134 0.0
H471 H 0.63345 0.81478 0.5207 0.0
H472 H 0.62798 0.88163 0.32835 0.0
H473 H 0.58401 0.7751 0.22492 0.0
H474 H 0.57617 0.78254 0.31256 0.0
H475 H 0.60812 0.78348 0.29631 0.0
C476 C 0.58703 0.83629 0.49338 0.0
C477 C 0.60399 0.8289 0.53084 0.0
C478 C 0.58817 0.83772 0.4194 0.0
C479 C 0.60598 0.83145 0.38237 0.0
C480 C 0.62134 0.82209 0.41928 0.0
H481 H 0.66396 0.85026 0.95082 0.0
H482 H 0.66205 0.84781 0.08073 0.0
C483 C 0.62028 0.8207 0.49314 0.0
C484 C 0.61161 0.83847 0.3068 0.0
H485 H 0.61061 0.81155 0.14407 0.0
C486 C 0.624 0.86634 0.28776 0.0
C487 C 0.60668 0.8184 0.2549 0.0
C488 C 0.5928 0.78816 0.2729 0.0
C489 C 0.63193 0.87478 0.21753 0.0
C490 C 0.62699 0.85471 0.1656 0.0
C491 C 0.6146 0.82684 0.18466 0.0
C492 C 0.63258 0.86173 0.09001 0.0
C493 C 0.64583 0.90502 0.19958 0.0
C494 C 0.61733 0.87128 0.05331 0.0
C495 C 0.61835 0.8727 0.97946 0.0
C496 C 0.63447 0.86435 0.94156 0.0
C497 C 0.65131 0.85675 0.97878 0.0
C498 C 0.65022 0.85529 0.05276 0.0
H499 H 0.65478 0.91806 0.24753 0.0
H500 H 0.66235 0.91063 0.15959 0.0
H501 H 0.63048 0.90977 0.17666 0.0
H502 H 0.60332 0.87595 0.08142 0.0
H503 H 0.60528 0.8788 0.95206 0.0
H504 H 0.85883 0.65314 0.84779 0.0
H505 H 0.85498 0.64938 0.71825 0.0
H506 H 0.88731 0.59403 0.72001 0.0
H507 H 0.89115 0.59745 0.84939 0.0
H508 H 0.89349 0.65523 0.60197 0.0
H509 H 0.80588 0.54912 0.64433 0.0
H510 H 0.81952 0.57445 0.71446 0.0
H511 H 0.83756 0.55712 0.68733 0.0
C512 C 0.86583 0.64076 0.82047 0.0
C513 C 0.87478 0.62514 0.85856 0.0
C514 C 0.86356 0.63862 0.74668 0.0
C515 C 0.87029 0.62095 0.71065 0.0
C516 C 0.88162 0.60738 0.7477 0.0
H517 H 0.85353 0.56543 0.27936 0.0
H518 H 0.85716 0.56901 0.40896 0.0
C519 C 0.88386 0.60944 0.82139 0.0
C520 C 0.86294 0.61461 0.63557 0.0
H521 H 0.81882 0.5633 0.52519 0.0
C522 C 0.87717 0.63521 0.58493 0.0
C523 C 0.84151 0.58843 0.61449 0.0
C524 C 0.82502 0.56601 0.66789 0.0
C525 C 0.8708 0.63011 0.51267 0.0
C526 C 0.84937 0.60392 0.49158 0.0
C527 C 0.83513 0.58332 0.54223 0.0
C528 C 0.84204 0.5976 0.41648 0.0
C529 C 0.88731 0.65254 0.4593 0.0
C530 C 0.83086 0.6113 0.37935 0.0
C531 C 0.82879 0.60937 0.30563 0.0
C532 C 0.83785 0.59364 0.26851 0.0
C533 C 0.84658 0.57785 0.30664 0.0
C534 C 0.84871 0.57988 0.38047 0.0
H535 H 0.90649 0.66937 0.48284 0.0
H536 H 0.89275 0.64408 0.41262 0.0
H537 H 0.87482 0.6615 0.44004 0.0
H538 H 0.8252 0.62468 0.40702 0.0
H539 H 0.82164 0.62148 0.27758 0.0
H540 H 0.19649 0.75134 0.61685 0.0
H541 H 0.19975 0.75214 0.74613 0.0
H542 H 0.23058 0.83967 0.7456 0.0
H543 H 0.22774 0.83922 0.61583 0.0
H544 H 0.26558 0.8229 0.80839 0.0
H545 H 0.15915 0.76323 0.9133 0.0
H546 H 0.16673 0.7466 0.8424 0.0
H547 H 0.16685 0.77817 0.82521 0.0
C548 C 0.20326 0.77065 0.64428 0.0
C549 C 0.21223 0.79529 0.60636 0.0
C550 C 0.20495 0.77102 0.71813 0.0
C551 C 0.21537 0.79595 0.75487 0.0
C552 C 0.22245 0.82026 0.71767 0.0
H553 H 0.26361 0.84346 0.18538 0.0
H554 H 0.26056 0.84268 0.05604 0.0
C555 C 0.22075 0.81993 0.64372 0.0
C556 C 0.22238 0.79713 0.83043 0.0
H557 H 0.19527 0.77196 -0.00626 0.0
C558 C 0.25024 0.81198 0.84919 0.0
C559 C 0.20225 0.78251 0.88271 0.0
C560 C 0.17204 0.7669 0.86518 0.0
C561 C 0.25859 0.81236 0.91942 0.0
C562 C 0.23846 0.79774 0.97169 0.0
C563 C 0.2106 0.78288 0.95293 0.0
C564 C 0.24546 0.79897 0.04726 0.0
C565 C 0.28879 0.82802 0.93704 0.0
C566 C 0.23862 0.77472 0.08443 0.0
C567 C 0.24025 0.77504 0.1584 0.0
C568 C 0.24841 0.7996 0.1958 0.0
C569 C 0.25712 0.82421 0.15791 0.0
C570 C 0.25555 0.82385 0.08405 0.0
H571 H 0.30171 0.83189 0.88891 0.0
H572 H 0.29401 0.84823 0.9603 0.0
H573 H 0.29401 0.81668 0.9767 0.0
H574 H 0.23074 0.75535 0.05643 0.0
H575 H 0.23346 0.75578 0.18624 0.0
H576 H 0.42105 0.23044 0.52243 0.0
H577 H 0.42364 0.22977 0.39262 0.0
H578 H 0.47914 0.31749 0.39095 0.0
H579 H 0.47656 0.31853 0.52032 0.0
H580 H 0.43858 0.29526 0.27648 0.0
H581 H 0.49939 0.24263 0.31511 0.0
H582 H 0.46611 0.22669 0.35659 0.0
H583 H 0.49251 0.25982 0.3866 0.0
C584 C 0.4332 0.24968 0.49427 0.0
C585 C 0.44909 0.27445 0.53119 0.0
C586 C 0.43472 0.24922 0.42044 0.0
C587 C 0.45206 0.27348 0.38336 0.0
C588 C 0.46588 0.29858 0.4194 0.0
H589 H 0.50881 0.31523 0.95047 0.0
H590 H 0.50677 0.31589 0.0804 0.0
C591 C 0.46441 0.29909 0.4931 0.0
C592 C 0.45821 0.27245 0.30828 0.0
H593 H 0.49131 0.25075 0.19665 0.0
C594 C 0.45007 0.28556 0.25872 0.0
C595 C 0.47351 0.25999 0.28647 0.0
C596 C 0.48363 0.24664 0.33887 0.0
C597 C 0.45643 0.28608 0.18671 0.0
C598 C 0.47168 0.27356 0.16489 0.0
C599 C 0.47985 0.26048 0.21443 0.0
C600 C 0.4776 0.27237 0.08973 0.0
C601 C 0.44637 0.29947 0.1343 0.0
C602 C 0.4631 0.24734 0.05366 0.0
C603 C 0.46418 0.24684 0.97989 0.0
C604 C 0.47982 0.27142 0.94178 0.0
C605 C 0.49638 0.29605 0.97865 0.0
C606 C 0.49521 0.2965 0.05256 0.0
H607 H 0.43091 0.30388 0.15828 0.0
H608 H 0.464 0.31921 0.11578 0.0
H609 H 0.43714 0.28612 0.08703 0.0
H610 H 0.44958 0.22854 0.08219 0.0
H611 H 0.45152 0.22751 0.95272 0.0
H612 H 0.27641 0.54502 0.08826 0.0
H613 H 0.26031 0.57503 0.13282 0.0
H614 H 0.17732 0.50668 0.13908 0.0
H615 H 0.19357 0.47591 0.09577 0.0
H616 H 0.22448 0.58905 0.07887 0.0
H617 H 0.18724 0.53644 0.34017 0.0
H618 H 0.20776 0.52874 0.28101 0.0
H619 H 0.17203 0.51572 0.26245 0.0
C620 C 0.25468 0.53619 0.09895 0.0
C621 C 0.23629 0.50794 0.08878 0.0
C622 C 0.24549 0.55349 0.12428 0.0
C623 C 0.21765 0.54315 0.13999 0.0
C624 C 0.19899 0.51505 0.12852 0.0
H625 H 0.18131 0.67433 0.26637 0.0
H626 H 0.17731 0.63453 0.20111 0.0
C627 C 0.20826 0.49752 0.10345 0.0
C628 C 0.20903 0.5622 0.16983 0.0
H629 H 0.18671 0.57752 0.32288 0.0
C630 C 0.21582 0.58638 0.13184 0.0
C631 C 0.19785 0.55871 0.23907 0.0
C632 C 0.19093 0.53364 0.28351 0.0
C633 C 0.21327 0.60782 0.16257 0.0
C634 C 0.20289 0.60469 0.23267 0.0
C635 C 0.19461 0.57986 0.26912 0.0
C636 C 0.20374 0.628 0.27249 0.0
C637 C 0.2234 0.63428 0.1214 0.0
C638 C 0.21931 0.63716 0.33507 0.0
C639 C 0.22136 0.65955 0.37251 0.0
C640 C 0.20791 0.67346 0.34833 0.0
C641 C 0.19213 0.66422 0.28584 0.0
C642 C 0.18987 0.64152 0.24852 0.0
H643 H 0.2358 0.63527 0.07425 0.0
H644 H 0.20555 0.63582 0.10239 0.0
H645 H 0.2361 0.65236 0.15573 0.0
H646 H 0.23036 0.62723 0.35443 0.0
H647 H 0.23405 0.66634 0.41969 0.0
H648 H 0.69967 0.21205 0.56653 0.0
H649 H 0.66147 0.21181 0.62905 0.0
H650 H 0.62121 0.20471 0.42857 0.0
H651 H 0.65796 0.20284 0.3665 0.0
H652 H 0.64638 0.24785 0.62523 0.0
H653 H 0.55686 0.15105 0.53798 0.0
H654 H 0.59151 0.15827 0.52253 0.0
H655 H 0.57518 0.17037 0.46111 0.0
C656 C 0.68238 0.20964 0.53572 0.0
C657 C 0.68227 0.20773 0.46097 0.0
C658 C 0.66055 0.20969 0.57169 0.0
C659 C 0.63814 0.20787 0.53384 0.0
C660 C 0.63775 0.20536 0.45953 0.0
H661 H 0.54683 0.28745 0.63252 0.0
H662 H 0.57992 0.27342 0.59928 0.0
C663 C 0.65925 0.20486 0.42375 0.0
C664 C 0.61651 0.2113 0.57051 0.0
H665 H 0.54748 0.18748 0.57212 0.0
C666 C 0.62472 0.2343 0.61461 0.0
C667 C 0.58811 0.19338 0.55848 0.0
C668 C 0.57745 0.16674 0.51811 0.0
C669 C 0.60557 0.24076 0.64334 0.0
C670 C 0.57746 0.22442 0.62516 0.0
C671 C 0.56905 0.20046 0.58477 0.0
C672 C 0.5568 0.23253 0.64463 0.0
C673 C 0.61582 0.26508 0.69288 0.0
C674 C 0.53193 0.21379 0.67785 0.0
C675 C 0.51251 0.22156 0.69518 0.0
C676 C 0.51773 0.24831 0.68016 0.0
C677 C 0.54239 0.26684 0.64587 0.0
C678 C 0.56148 0.25891 0.62743 0.0
H679 H 0.63447 0.26847 0.72187 0.0
H680 H 0.62155 0.28392 0.66134 0.0
H681 H 0.59996 0.26228 0.73249 0.0
H682 H 0.52765 0.19321 0.69101 0.0
H683 H 0.49366 0.20683 0.72147 0.0
H684 H 0.40069 0.54371 0.91575 0.0
H685 H 0.44747 0.58018 0.88432 0.0
H686 H 0.43949 0.63557 0.02854 0.0
H687 H 0.39316 0.59928 0.05941 0.0
H688 H 0.45445 0.62665 0.81887 0.0
H689 H 0.51892 0.65698 0.05996 0.0
H690 H 0.4877 0.62414 0.0523 0.0
H691 H 0.4864 0.65442 0.07771 0.0
C692 C 0.40961 0.56329 0.94302 0.0
C693 C 0.39367 0.56877 -0.00953 0.0
C694 C 0.43616 0.58417 0.92473 0.0
C695 C 0.44715 0.6106 0.95455 0.0
C696 C 0.43185 0.61527 0.00603 0.0
H697 H 0.53075 0.77109 0.78825 0.0
H698 H 0.49984 0.72397 0.82778 0.0
C699 C 0.40537 0.59457 0.02366 0.0
C700 C 0.47206 0.63449 0.92397 0.0
H701 H 0.53095 0.69299 0.97133 0.0
C702 C 0.47152 0.64081 0.85187 0.0
C703 C 0.49446 0.65297 0.96668 0.0
C704 C 0.49706 0.64662 0.04329 0.0
C705 C 0.4917 0.6659 0.82273 0.0
C706 C 0.5128 0.68533 0.86699 0.0
C707 C 0.5145 0.67824 0.9377 0.0
C708 C 0.5319 0.71378 0.84223 0.0
C709 C 0.48979 0.67178 0.74525 0.0
C710 C 0.56027 0.72387 0.83846 0.0
C711 C 0.57807 0.75089 0.81569 0.0
C712 C 0.5678 0.76837 0.7972 0.0
C713 C 0.53936 0.7582 0.80181 0.0
C714 C 0.52163 0.7312 0.82407 0.0
H715 H 0.47772 0.65248 0.71447 0.0
H716 H 0.47931 0.68402 0.74065 0.0
H717 H 0.51051 0.68381 0.72099 0.0
H718 H 0.56861 0.7108 0.85275 0.0
H719 H 0.59988 0.75813 0.81312 0.0
H720 H 0.87368 0.31927 0.39027 0.0
H721 H 0.88908 0.36719 0.35782 0.0
H722 H 0.81006 0.34175 0.26327 0.0
H723 H 0.79424 0.29432 0.29842 0.0
H724 H 0.89605 0.39245 0.23712 0.0
H725 H 0.81695 0.40262 0.38482 0.0
H726 H 0.82194 0.37353 0.3969 0.0
H727 H 0.80082 0.37399 0.32528 0.0
C728 C 0.85959 0.32401 0.3629 0.0
C729 C 0.83265 0.30315 0.34767 0.0
C730 C 0.8684 0.35137 0.34445 0.0
C731 C 0.85048 0.35825 0.3099 0.0
C732 C 0.82393 0.3372 0.29238 0.0
H733 H 0.88292 0.48771 0.0255 0.0
H734 H 0.8811 0.44955 0.09021 0.0
C735 C 0.81497 0.31002 0.31193 0.0
C736 C 0.85963 0.38719 0.28961 0.0
H737 H 0.83837 0.43445 0.28696 0.0
C738 C 0.88369 0.40183 0.24907 0.0
C739 C 0.84409 0.39993 0.30699 0.0
C740 C 0.81972 0.38678 0.35663 0.0
C741 C 0.8916 0.42805 0.22161 0.0
C742 C 0.87443 0.43949 0.23271 0.0
C743 C 0.85136 0.4256 0.27713 0.0
C744 C 0.87851 0.4645 0.19448 0.0
C745 C 0.91825 0.44308 0.18089 0.0
C746 C 0.87717 0.48564 0.23097 0.0
C747 C 0.87713 0.5072 0.19356 0.0
C748 C 0.87854 0.50816 0.11867 0.0
C749 C 0.88123 0.4876 0.08279 0.0
C750 C 0.88078 0.46587 0.12007 0.0
H751 H 0.93348 0.4377 0.2016 0.0
H752 H 0.91449 0.43672 0.12424 0.0
H753 H 0.92728 0.46574 0.18393 0.0
H754 H 0.87529 0.48502 0.2884 0.0
H755 H 0.87493 0.52242 0.22352 0.0
H756 H 0.29995 0.77886 0.46131 0.0
H757 H 0.34533 0.7907 0.50474 0.0
H758 H 0.3676 0.87611 0.51698 0.0
H759 H 0.32181 0.86441 0.47376 0.0
H760 H 0.39765 0.82788 0.44591 0.0
H761 H 0.38384 0.85774 0.71857 0.0
H762 H 0.35534 0.83842 0.65917 0.0
H763 H 0.37743 0.87472 0.64613 0.0
C764 C 0.31443 0.80021 0.47312 0.0
C765 C 0.30719 0.8207 0.46436 0.0
C766 C 0.3404 0.80692 0.49782 0.0
C767 C 0.35969 0.83419 0.51475 0.0
C768 C 0.35281 0.85485 0.50512 0.0
H769 H 0.52182 0.90137 0.70346 0.0
H770 H 0.47968 0.89525 0.6496 0.0
C771 C 0.32673 0.84816 0.48013 0.0
C772 C 0.38685 0.84062 0.54286 0.0
H773 H 0.42646 0.86129 0.69246 0.0
C774 C 0.40405 0.8353 0.49971 0.0
C775 C 0.39505 0.85026 0.61305 0.0
C776 C 0.37694 0.85546 0.66236 0.0
C777 C 0.42931 0.83937 0.52489 0.0
C778 C 0.43727 0.84846 0.59561 0.0
C779 C 0.42026 0.85423 0.63834 0.0
C780 C 0.46309 0.85203 0.62662 0.0
C781 C 0.44736 0.83421 0.47529 0.0
C782 C 0.4677 0.82969 0.63211 0.0
C783 C 0.49183 0.83312 0.66311 0.0
C784 C 0.51163 0.85888 0.68996 0.0
C785 C 0.50685 0.88116 0.68442 0.0
C786 C 0.48283 0.87775 0.65323 0.0
H787 H 0.44211 0.8349 0.41863 0.0
H788 H 0.46938 0.84956 0.4835 0.0
H789 H 0.44442 0.81345 0.48598 0.0
H790 H 0.45245 0.8095 0.61339 0.0
H791 H 0.49473 0.8155 0.6674 0.0
H792 H 0.76528 0.58612 -0.01118 0.0
H793 H 0.71921 0.55226 0.94649 0.0
H794 H 0.74034 0.48837 0.96019 0.0
H795 H 0.786 0.52168 0.00257 0.0
H796 H 0.70607 0.51793 0.82314 0.0
H797 H 0.66737 0.45614 0.07039 0.0
H798 H 0.69683 0.49045 0.06925 0.0
H799 H 0.70019 0.4616 0.04163 0.0
C800 C 0.76001 0.56481 -0.0167 0.0
C801 C 0.77928 0.55659 -0.0006 0.0
C802 C 0.73373 0.54553 0.95906 0.0
C803 C 0.72626 0.51775 0.95134 0.0
C804 C 0.74548 0.50958 0.96717 0.0
H805 H 0.58894 0.36629 0.79671 0.0
H806 H 0.63232 0.40243 0.8467 0.0
C807 C 0.77167 0.52875 -0.00896 0.0
C808 C 0.69881 0.49726 0.92404 0.0
H809 H 0.64154 0.43618 0.96487 0.0
C810 C 0.69178 0.5002 0.85429 0.0
C811 C 0.68035 0.47409 0.96476 0.0
C812 C 0.68639 0.47042 0.0409 0.0
C813 C 0.66713 0.4801 0.82329 0.0
C814 C 0.6488 0.45673 0.86372 0.0
C815 C 0.65567 0.45403 0.93387 0.0
C816 C 0.62241 0.43483 0.83416 0.0
C817 C 0.66136 0.48362 0.74676 0.0
C818 C 0.60229 0.44096 0.81176 0.0
C819 C 0.57755 0.4204 0.78328 0.0
C820 C 0.57229 0.39318 0.77711 0.0
C821 C 0.59227 0.38698 0.80101 0.0
C822 C 0.6171 0.40762 0.82934 0.0
H823 H 0.68032 0.49856 0.7181 0.0
H824 H 0.6519 0.46368 0.71803 0.0
H825 H 0.64679 0.49152 0.74515 0.0
H826 H 0.60564 0.46165 0.81674 0.0
H827 H 0.5624 0.4258 0.76703 0.0
loop_
_geom_bond_atom_site_label_1
_geom_bond_atom_site_label_2
_geom_bond_distance
_geom_bond_site_symmetry_2
_ccdc_geom_bond_type
Co0 N5 2.057 . S
Co0 O17 2.021 . S
Co0 O20 2.062 . S
Co0 O24 2.117 1_556 S
Co0 O25 2.020 1_556 S
C1 O21 1.259 . S
C1 O24 1.258 . S
Co2 N11 2.057 . S
Co2 O18 2.117 1_554 S
Co2 O19 2.020 1_554 S
Co2 O21 2.021 . S
Co2 O26 2.062 . S
C3 N5 1.316 . S
C3 N6 1.347 . S
C3 H8 0.931 . S
C4 N5 1.375 . S
C4 C7 1.350 . S
C4 H9 0.929 1_556 S
N5 Co0 2.057 . S
N5 C3 1.316 . S
N5 C4 1.375 . S
N6 C3 1.347 . S
N6 C7 1.373 . S
C7 C4 1.350 . S
C7 N6 1.373 . S
C7 H28 0.931 . S
H8 C3 0.931 . S
H9 C4 0.929 1_554 S
C10 O17 1.259 . S
C10 O18 1.258 . S
N11 Co2 2.057 . S
N11 C12 1.316 . S
N11 C13 1.375 . S
C12 N11 1.316 . S
C12 N14 1.347 . S
C12 H23 0.931 . S
C13 N11 1.375 . S
C13 C15 1.350 . S
C13 H22 0.933 . S
N14 C12 1.347 . S
N14 C15 1.373 . S
C15 C13 1.350 . S
C15 N14 1.373 . S
C15 H29 0.931 . S
C16 O19 1.256 . S
C16 O20 1.255 . S
O17 Co0 2.021 . S
O17 C10 1.259 . S
O18 Co2 2.117 1_556 S
O18 C10 1.258 . S
O19 Co2 2.020 1_556 S
O19 C16 1.256 . S
O20 Co0 2.062 . S
O20 C16 1.255 . S
O21 C1 1.259 . S
O21 Co2 2.021 . S
H22 C13 0.933 . S
H23 C12 0.931 . S
O24 Co0 2.117 1_554 S
O24 C1 1.258 . S
O25 Co0 2.020 1_554 S
O25 C27 1.256 . S
O26 Co2 2.062 . S
O26 C27 1.255 . S
C27 O25 1.256 . S
C27 O26 1.255 . S
H28 C7 0.931 . S
H29 C15 0.931 . S
Co30 N35 2.057 . S
Co30 O47 2.021 . S
Co30 O50 2.062 . S
Co30 O54 2.117 . S
Co30 O55 2.020 . S
C31 O51 1.259 . S
C31 O54 1.258 . S
Co32 N41 2.057 . S
Co32 O48 2.117 . S
Co32 O49 2.020 . S
Co32 O51 2.021 . S
Co32 O56 2.062 . S
C33 N35 1.316 . S
C33 N36 1.347 . S
C33 H38 0.931 . S
C34 N35 1.375 . S
C34 C37 1.350 . S
C34 H39 0.930 . S
N35 Co30 2.057 . S
N35 C33 1.316 . S
N35 C34 1.375 . S
N36 C33 1.347 . S
N36 C37 1.373 . S
C37 C34 1.350 . S
C37 N36 1.373 . S
C37 H58 0.931 . S
H38 C33 0.931 . S
H39 C34 0.930 . S
C40 O47 1.259 . S
C40 O48 1.258 . S
N41 Co32 2.057 . S
N41 C42 1.316 . S
N41 C43 1.375 . S
C42 N41 1.316 . S
C42 N44 1.347 . S
C42 H53 0.931 . S
C43 N41 1.375 . S
C43 C45 1.350 . S
C43 H52 0.930 . S
N44 C42 1.347 . S
N44 C45 1.373 . S
C45 C43 1.350 . S
C45 N44 1.373 . S
C45 H59 0.931 . S
C46 O49 1.256 . S
C46 O50 1.255 . S
O47 Co30 2.021 . S
O47 C40 1.259 . S
O48 Co32 2.117 . S
O48 C40 1.258 . S
O49 Co32 2.020 . S
O49 C46 1.256 . S
O50 Co30 2.062 . S
O50 C46 1.255 . S
O51 C31 1.259 . S
O51 Co32 2.021 . S
H52 C43 0.930 . S
H53 C42 0.931 . S
O54 Co30 2.117 . S
O54 C31 1.258 . S
O55 Co30 2.020 . S
O55 C57 1.256 . S
O56 Co32 2.062 . S
O56 C57 1.255 . S
C57 O55 1.256 . S
C57 O56 1.255 . S
H58 C37 0.931 . S
H59 C45 0.931 . S
Co60 N65 2.057 . S
Co60 O77 2.021 . S
Co60 O80 2.062 . S
Co60 O84 2.117 . S
Co60 O85 2.020 . S
C61 O81 1.259 . S
C61 O84 1.258 . S
Co62 N71 2.057 . S
Co62 O78 2.117 . S
Co62 O79 2.020 . S
Co62 O81 2.021 . S
Co62 O86 2.062 . S
C63 N65 1.316 . S
C63 N66 1.347 . S
C63 H68 0.931 . S
C64 N65 1.375 . S
C64 C67 1.350 . S
C64 H69 0.930 . S
N65 Co60 2.057 . S
N65 C63 1.316 . S
N65 C64 1.375 . S
N66 C63 1.347 . S
N66 C67 1.373 . S
C67 C64 1.350 . S
C67 N66 1.373 . S
C67 H88 0.931 . S
H68 C63 0.931 . S
H69 C64 0.930 . S
C70 O77 1.259 . S
C70 O78 1.258 . S
N71 Co62 2.057 . S
N71 C72 1.316 . S
N71 C73 1.375 . S
C72 N71 1.316 . S
C72 N74 1.347 . S
C72 H83 0.931 . S
C73 N71 1.375 . S
C73 C75 1.350 . S
C73 H82 0.930 . S
N74 C72 1.347 . S
N74 C75 1.373 . S
C75 C73 1.350 . S
C75 N74 1.373 . S
C75 H89 0.931 . S
C76 O79 1.256 . S
C76 O80 1.255 . S
O77 Co60 2.021 . S
O77 C70 1.259 . S
O78 Co62 2.117 . S
O78 C70 1.258 . S
O79 Co62 2.020 . S
O79 C76 1.256 . S
O80 Co60 2.062 . S
O80 C76 1.255 . S
O81 C61 1.259 . S
O81 Co62 2.021 . S
H82 C73 0.930 . S
H83 C72 0.931 . S
O84 Co60 2.117 . S
O84 C61 1.258 . S
O85 Co60 2.020 . S
O85 C87 1.256 . S
O86 Co62 2.062 . S
O86 C87 1.255 . S
C87 O85 1.256 . S
C87 O86 1.255 . S
H88 C67 0.931 . S
H89 C75 0.931 . S
Co90 N95 2.057 . S
Co90 O107 2.021 . S
Co90 O110 2.062 . S
Co90 O114 2.117 . S
Co90 O115 2.020 . S
C91 O111 1.259 . S
C91 O114 1.258 . S
Co92 N101 2.057 . S
Co92 O108 2.117 . S
Co92 O109 2.020 . S
Co92 O111 2.021 . S
Co92 O116 2.062 . S
C93 N95 1.316 . S
C93 N96 1.347 . S
C93 H98 0.931 . S
C94 N95 1.375 . S
C94 C97 1.350 . S
C94 H99 0.930 . S
N95 Co90 2.057 . S
N95 C93 1.316 . S
N95 C94 1.375 . S
N96 C93 1.347 . S
N96 C97 1.373 . S
C97 C94 1.350 . S
C97 N96 1.373 . S
C97 H118 0.931 . S
H98 C93 0.931 . S
H99 C94 0.930 . S
C100 O107 1.259 . S
C100 O108 1.258 . S
N101 Co92 2.057 . S
N101 C102 1.316 . S
N101 C103 1.375 . S
C102 N101 1.316 . S
C102 N104 1.347 . S
C102 H113 0.931 . S
C103 N101 1.375 . S
C103 C105 1.350 . S
C103 H112 0.930 . S
N104 C102 1.347 . S
N104 C105 1.373 . S
C105 C103 1.350 . S
C105 N104 1.373 . S
C105 H119 0.931 . S
C106 O109 1.256 . S
C106 O110 1.255 . S
O107 Co90 2.021 . S
O107 C100 1.259 . S
O108 Co92 2.117 . S
O108 C100 1.258 . S
O109 Co92 2.020 . S
O109 C106 1.256 . S
O110 Co90 2.062 . S
O110 C106 1.255 . S
O111 C91 1.259 . S
O111 Co92 2.021 . S
H112 C103 0.930 . S
H113 C102 0.931 . S
O114 Co90 2.117 . S
O114 C91 1.258 . S
O115 Co90 2.020 . S
O115 C117 1.256 . S
O116 Co92 2.062 . S
O116 C117 1.255 . S
C117 O115 1.256 . S
C117 O116 1.255 . S
H118 C97 0.931 . S
H119 C105 0.931 . S
Co120 N125 2.057 . S
Co120 O137 2.021 . S
Co120 O140 2.062 . S
Co120 O144 2.117 . S
Co120 O145 2.020 . S
C121 O141 1.259 . S
C121 O144 1.258 . S
Co122 N131 2.057 . S
Co122 O138 2.117 . S
Co122 O139 2.020 . S
Co122 O141 2.021 . S
Co122 O146 2.062 . S
C123 N125 1.316 . S
C123 N126 1.347 . S
C123 H128 0.931 . S
C124 N125 1.375 . S
C124 C127 1.350 . S
C124 H129 0.930 . S
N125 Co120 2.057 . S
N125 C123 1.316 . S
N125 C124 1.375 . S
N126 C123 1.347 . S
N126 C127 1.373 . S
C127 C124 1.350 . S
C127 N126 1.373 . S
C127 H148 0.931 . S
H128 C123 0.931 . S
H129 C124 0.930 . S
C130 O137 1.259 . S
C130 O138 1.258 . S
N131 Co122 2.057 . S
N131 C132 1.316 . S
N131 C133 1.375 . S
C132 N131 1.316 . S
C132 N134 1.347 . S
C132 H143 0.931 . S
C133 N131 1.375 . S
C133 C135 1.350 . S
C133 H142 0.930 . S
N134 C132 1.347 . S
N134 C135 1.373 . S
C135 C133 1.350 . S
C135 N134 1.373 . S
C135 H149 0.931 . S
C136 O139 1.256 . S
C136 O140 1.255 . S
O137 Co120 2.021 . S
O137 C130 1.259 . S
O138 Co122 2.117 . S
O138 C130 1.258 . S
O139 Co122 2.020 . S
O139 C136 1.256 . S
O140 Co120 2.062 . S
O140 C136 1.255 . S
O141 C121 1.259 . S
O141 Co122 2.021 . S
H142 C133 0.930 . S
H143 C132 0.931 . S
O144 Co120 2.117 . S
O144 C121 1.258 . S
O145 Co120 2.020 . S
O145 C147 1.256 . S
O146 Co122 2.062 . S
O146 C147 1.255 . S
C147 O145 1.256 . S
C147 O146 1.255 . S
H148 C127 0.931 . S
H149 C135 0.931 . S
Co150 N155 2.057 . S
Co150 O167 2.021 . S
Co150 O170 2.062 . S
Co150 O174 2.117 . S
Co150 O175 2.020 . S
C151 O171 1.259 . S
C151 O174 1.258 . S
Co152 N161 2.057 . S
Co152 O168 2.117 . S
Co152 O169 2.020 . S
Co152 O171 2.021 . S
Co152 O176 2.062 . S
C153 N155 1.316 . S
C153 N156 1.347 . S
C153 H158 0.931 . S
C154 N155 1.375 . S
C154 C157 1.350 . S
C154 H159 0.930 . S
N155 Co150 2.057 . S
N155 C153 1.316 . S
N155 C154 1.375 . S
N156 C153 1.347 . S
N156 C157 1.373 . S
C157 C154 1.350 . S
C157 N156 1.373 . S
C157 H178 0.931 . S
H158 C153 0.931 . S
H159 C154 0.930 . S
C160 O167 1.259 . S
C160 O168 1.258 . S
N161 Co152 2.057 . S
N161 C162 1.316 . S
N161 C163 1.375 . S
C162 N161 1.316 . S
C162 N164 1.347 . S
C162 H173 0.931 . S
C163 N161 1.375 . S
C163 C165 1.350 . S
C163 H172 0.930 . S
N164 C162 1.347 . S
N164 C165 1.373 . S
C165 C163 1.350 . S
C165 N164 1.373 . S
C165 H179 0.931 . S
C166 O169 1.256 . S
C166 O170 1.255 . S
O167 Co150 2.021 . S
O167 C160 1.259 . S
O168 Co152 2.117 . S
O168 C160 1.258 . S
O169 Co152 2.020 . S
O169 C166 1.256 . S
O170 Co150 2.062 . S
O170 C166 1.255 . S
O171 C151 1.259 . S
O171 Co152 2.021 . S
H172 C163 0.930 . S
H173 C162 0.931 . S
O174 Co150 2.117 . S
O174 C151 1.258 . S
O175 Co150 2.020 . S
O175 C177 1.256 . S
O176 Co152 2.062 . S
O176 C177 1.255 . S
C177 O175 1.256 . S
C177 O176 1.255 . S
H178 C157 0.931 . S
H179 C165 0.931 . S
H180 C188 0.929 . S
H181 C190 0.930 . S
H182 C192 0.930 . S
H183 C195 0.929 . S
H184 C198 0.930 . S
H185 C200 0.960 . S
H186 C200 0.960 . S
H187 C200 0.960 . S
C188 H180 0.929 . S
C188 C189 1.377 . S
C188 C190 1.384 . S
C189 C188 1.377 . S
C189 C195 1.390 . S
C190 H181 0.930 . S
C190 C188 1.384 . S
C190 C191 1.372 . S
C191 C190 1.372 . S
C191 C192 1.400 . S
C191 C196 1.490 . S
C192 H182 0.930 . S
C192 C191 1.400 . S
C192 C195 1.386 . S
H193 C209 0.930 . S
H194 C210 0.931 1_554 S
C195 H183 0.929 . S
C195 C189 1.390 . S
C195 C192 1.386 . S
C196 C191 1.490 . S
C196 C198 1.395 . S
C196 C199 1.403 . S
H197 C203 0.930 . S
C198 H184 0.930 . S
C198 C196 1.395 . S
C198 C201 1.403 . S
C199 C196 1.403 . S
C199 C200 1.524 . S
C199 C203 1.400 . S
C200 H185 0.960 . S
C200 H186 0.960 . S
C200 H187 0.960 . S
C200 C199 1.524 . S
C201 C198 1.403 . S
C201 C202 1.392 . S
C201 C205 1.495 . S
C202 C201 1.392 . S
C202 C203 1.385 . S
C202 C204 1.478 . S
C203 H197 0.930 . S
C203 C199 1.400 . S
C203 C202 1.385 . S
C204 C202 1.478 . S
C204 C206 1.381 . S
C204 C210 1.383 . S
C205 C201 1.495 . S
C205 H211 0.959 1_556 S
C205 H212 0.961 1_556 S
C205 H213 0.960 . S
C206 C204 1.381 . S
C206 C207 1.394 . S
C206 H214 0.930 . S
C207 C206 1.394 . S
C207 C208 1.383 . S
C207 H215 0.929 . S
C208 C207 1.383 . S
C208 C209 1.377 1_556 S
C209 H193 0.930 . S
C209 C208 1.377 1_554 S
C209 C210 1.379 1_554 S
C210 H194 0.931 1_556 S
C210 C204 1.383 . S
C210 C209 1.379 1_556 S
H211 C205 0.959 1_554 S
H212 C205 0.961 1_554 S
H213 C205 0.960 . S
H214 C206 0.930 . S
H215 C207 0.929 . S
H216 C224 0.929 . S
H217 C226 0.930 . S
H218 C228 0.930 . S
H219 C231 0.929 . S
H220 C234 0.930 . S
H221 C236 0.960 . S
H222 C236 0.960 . S
H223 C236 0.960 . S
C224 H216 0.929 . S
C224 C225 1.377 . S
C224 C226 1.384 . S
C225 C224 1.377 . S
C225 C231 1.390 . S
C226 H217 0.930 . S
C226 C224 1.384 . S
C226 C227 1.372 . S
C227 C226 1.372 . S
C227 C228 1.400 . S
C227 C232 1.490 . S
C228 H218 0.930 . S
C228 C227 1.400 . S
C228 C231 1.386 . S
H229 C245 0.930 . S
H230 C246 0.931 . S
C231 H219 0.929 . S
C231 C225 1.390 . S
C231 C228 1.386 . S
C232 C227 1.490 . S
C232 C234 1.395 . S
C232 C235 1.403 . S
H233 C239 0.930 . S
C234 H220 0.930 . S
C234 C232 1.395 . S
C234 C237 1.403 . S
C235 C232 1.403 . S
C235 C236 1.524 . S
C235 C239 1.400 . S
C236 H221 0.960 . S
C236 H222 0.960 . S
C236 H223 0.960 . S
C236 C235 1.524 . S
C237 C234 1.403 . S
C237 C238 1.392 1_455 S
C237 C241 1.495 1_455 S
C238 C237 1.392 1_655 S
C238 C239 1.385 1_655 S
C238 C240 1.478 . S
C239 H233 0.930 . S
C239 C235 1.400 . S
C239 C238 1.385 1_455 S
C240 C238 1.478 . S
C240 C242 1.381 . S
C240 C246 1.383 . S
C241 C237 1.495 1_655 S
C241 H247 0.961 . S
C241 H248 0.961 . S
C241 H249 0.960 . S
C242 C240 1.381 . S
C242 C243 1.394 . S
C242 H250 0.930 . S
C243 C242 1.394 . S
C243 C244 1.383 . S
C243 H251 0.929 . S
C244 C243 1.383 . S
C244 C245 1.377 . S
C245 H229 0.930 . S
C245 C244 1.377 . S
C245 C246 1.379 . S
C246 H230 0.931 . S
C246 C240 1.383 . S
C246 C245 1.379 . S
H247 C241 0.961 . S
H248 C241 0.961 . S
H249 C241 0.960 . S
H250 C242 0.930 . S
H251 C243 0.929 . S
H252 C260 0.929 . S
H253 C262 0.930 . S
H254 C264 0.930 . S
H255 C267 0.929 . S
H256 C270 0.930 . S
H257 C272 0.960 . S
H258 C272 0.960 . S
H259 C272 0.960 . S
C260 H252 0.929 . S
C260 C261 1.377 . S
C260 C262 1.384 . S
C261 C260 1.377 . S
C261 C267 1.390 . S
C262 H253 0.930 . S
C262 C260 1.384 . S
C262 C263 1.372 . S
C263 C262 1.372 . S
C263 C264 1.400 . S
C263 C268 1.490 . S
C264 H254 0.930 . S
C264 C263 1.400 . S
C264 C267 1.386 . S
H265 C281 0.930 . S
H266 C282 0.931 . S
C267 H255 0.929 . S
C267 C261 1.390 . S
C267 C264 1.386 . S
C268 C263 1.490 . S
C268 C270 1.395 . S
C268 C271 1.403 . S
H269 C275 0.930 1_565 S
C270 H256 0.930 . S
C270 C268 1.395 . S
C270 C273 1.403 . S
C271 C268 1.403 . S
C271 C272 1.524 . S
C271 C275 1.400 . S
C272 H257 0.960 . S
C272 H258 0.960 . S
C272 H259 0.960 . S
C272 C271 1.524 . S
C273 C270 1.403 . S
C273 C274 1.392 1_545 S
C273 C277 1.496 1_545 S
C274 C273 1.392 1_565 S
C274 C275 1.385 1_565 S
C274 C276 1.478 . S
C275 H269 0.930 1_545 S
C275 C271 1.400 . S
C275 C274 1.385 1_545 S
C276 C274 1.478 . S
C276 C278 1.381 . S
C276 C282 1.383 . S
C277 C273 1.496 1_565 S
C277 H283 0.959 1_565 S
C277 H284 0.961 . S
C277 H285 0.959 . S
C278 C276 1.381 . S
C278 C279 1.394 . S
C278 H286 0.930 . S
C279 C278 1.394 . S
C279 C280 1.383 . S
C279 H287 0.929 . S
C280 C279 1.383 . S
C280 C281 1.377 . S
C281 H265 0.930 . S
C281 C280 1.377 . S
C281 C282 1.379 . S
C282 H266 0.931 . S
C282 C276 1.383 . S
C282 C281 1.379 . S
H283 C277 0.959 1_545 S
H284 C277 0.961 . S
H285 C277 0.959 . S
H286 C278 0.930 . S
H287 C279 0.929 . S
H288 C296 0.929 . S
H289 C298 0.930 . S
H290 C300 0.930 . S
H291 C303 0.929 . S
H292 C306 0.930 . S
H293 C308 0.960 . S
H294 C308 0.960 1_556 S
H295 C308 0.960 . S
C296 H288 0.929 . S
C296 C297 1.377 . S
C296 C298 1.384 . S
C297 C296 1.377 . S
C297 C303 1.390 . S
C298 H289 0.930 . S
C298 C296 1.384 . S
C298 C299 1.372 . S
C299 C298 1.372 . S
C299 C300 1.400 . S
C299 C304 1.490 . S
C300 H290 0.930 . S
C300 C299 1.400 . S
C300 C303 1.386 . S
H301 C317 0.930 . S
H302 C318 0.931 . S
C303 H291 0.929 . S
C303 C297 1.390 . S
C303 C300 1.386 . S
C304 C299 1.490 . S
C304 C306 1.395 . S
C304 C307 1.403 . S
H305 C311 0.930 1_554 S
C306 H292 0.930 . S
C306 C304 1.395 . S
C306 C309 1.403 . S
C307 C304 1.403 . S
C307 C308 1.524 1_556 S
C307 C311 1.400 . S
C308 H293 0.960 . S
C308 H294 0.960 1_554 S
C308 H295 0.960 . S
C308 C307 1.524 1_554 S
C309 C306 1.403 . S
C309 C310 1.392 . S
C309 C313 1.495 . S
C310 C309 1.392 . S
C310 C311 1.385 . S
C310 C312 1.478 . S
C311 H305 0.930 1_556 S
C311 C307 1.400 . S
C311 C310 1.385 . S
C312 C310 1.478 . S
C312 C314 1.381 . S
C312 C318 1.383 1_556 S
C313 C309 1.495 . S
C313 H319 0.959 . S
C313 H320 0.961 . S
C313 H321 0.960 . S
C314 C312 1.381 . S
C314 C315 1.394 1_556 S
C314 H322 0.930 . S
C315 C314 1.394 1_554 S
C315 C316 1.383 . S
C315 H323 0.929 1_554 S
C316 C315 1.383 . S
C316 C317 1.377 . S
C317 H301 0.930 . S
C317 C316 1.377 . S
C317 C318 1.379 . S
C318 H302 0.931 . S
C318 C312 1.383 1_554 S
C318 C317 1.379 . S
H319 C313 0.959 . S
H320 C313 0.961 . S
H321 C313 0.960 . S
H322 C314 0.930 . S
H323 C315 0.929 1_556 S
H324 C332 0.929 . S
H325 C334 0.930 . S
H326 C336 0.930 . S
H327 C339 0.929 . S
H328 C342 0.930 . S
H329 C344 0.960 . S
H330 C344 0.960 . S
H331 C344 0.960 . S
C332 H324 0.929 . S
C332 C333 1.377 . S
C332 C334 1.384 . S
C333 C332 1.377 . S
C333 C339 1.390 . S
C334 H325 0.930 . S
C334 C332 1.384 . S
C334 C335 1.372 . S
C335 C334 1.372 . S
C335 C336 1.400 . S
C335 C340 1.490 . S
C336 H326 0.930 . S
C336 C335 1.400 . S
C336 C339 1.386 . S
H337 C353 0.930 . S
H338 C354 0.931 . S
C339 H327 0.929 . S
C339 C333 1.390 . S
C339 C336 1.386 . S
C340 C335 1.490 . S
C340 C342 1.395 . S
C340 C343 1.403 . S
H341 C347 0.930 1_655 S
C342 H328 0.930 . S
C342 C340 1.395 . S
C342 C345 1.403 . S
C343 C340 1.403 . S
C343 C344 1.524 . S
C343 C347 1.400 . S
C344 H329 0.960 . S
C344 H330 0.960 . S
C344 H331 0.960 . S
C344 C343 1.524 . S
C345 C342 1.403 . S
C345 C346 1.392 1_455 S
C345 C349 1.500 . S
C346 C345 1.392 1_655 S
C346 C347 1.385 1_655 S
C346 C348 1.478 . S
C347 H341 0.930 1_455 S
C347 C343 1.400 . S
C347 C346 1.385 1_455 S
C348 C346 1.478 . S
C348 C350 1.381 . S
C348 C354 1.383 . S
C349 C345 1.500 . S
C349 H355 0.962 . S
C349 H356 0.960 1_455 S
C349 H357 0.953 1_455 S
C350 C348 1.381 . S
C350 C351 1.394 . S
C350 H358 0.930 . S
C351 C350 1.394 . S
C351 C352 1.383 . S
C351 H359 0.929 . S
C352 C351 1.383 . S
C352 C353 1.377 . S
C353 H337 0.930 . S
C353 C352 1.377 . S
C353 C354 1.379 . S
C354 H338 0.931 . S
C354 C348 1.383 . S
C354 C353 1.379 . S
H355 C349 0.962 . S
H356 C349 0.960 1_655 S
H357 C349 0.953 1_655 S
H358 C350 0.930 . S
H359 C351 0.929 . S
H360 C368 0.929 . S
H361 C370 0.930 . S
H362 C372 0.930 . S
H363 C375 0.929 . S
H364 C378 0.930 . S
H365 C380 0.960 . S
H366 C380 0.960 . S
H367 C380 0.960 . S
C368 H360 0.929 . S
C368 C369 1.377 . S
C368 C370 1.384 . S
C369 C368 1.377 . S
C369 C375 1.390 . S
C370 H361 0.930 . S
C370 C368 1.384 . S
C370 C371 1.372 . S
C371 C370 1.372 . S
C371 C372 1.400 . S
C371 C376 1.490 . S
C372 H362 0.930 . S
C372 C371 1.400 . S
C372 C375 1.386 . S
H373 C389 0.930 . S
H374 C390 0.931 . S
C375 H363 0.929 . S
C375 C369 1.390 . S
C375 C372 1.386 . S
C376 C371 1.490 . S
C376 C378 1.395 . S
C376 C379 1.403 . S
H377 C383 0.933 . S
C378 H364 0.930 . S
C378 C376 1.395 . S
C378 C381 1.403 . S
C379 C376 1.403 . S
C379 C380 1.524 . S
C379 C383 1.395 1_545 S
C380 H365 0.960 . S
C380 H366 0.960 . S
C380 H367 0.960 . S
C380 C379 1.524 . S
C381 C378 1.403 . S
C381 C382 1.392 1_545 S
C381 C385 1.495 . S
C382 C381 1.392 1_565 S
C382 C383 1.387 . S
C382 C384 1.478 . S
C383 H377 0.933 . S
C383 C379 1.395 1_565 S
C383 C382 1.387 . S
C384 C382 1.478 . S
C384 C386 1.381 . S
C384 C390 1.383 . S
C385 C381 1.495 . S
C385 H391 0.959 . S
C385 H392 0.961 . S
C385 H393 0.960 . S
C386 C384 1.381 . S
C386 C387 1.394 . S
C386 H394 0.930 . S
C387 C386 1.394 . S
C387 C388 1.383 . S
C387 H395 0.929 . S
C388 C387 1.383 . S
C388 C389 1.377 . S
C389 H373 0.930 . S
C389 C388 1.377 . S
C389 C390 1.379 . S
C390 H374 0.931 . S
C390 C384 1.383 . S
C390 C389 1.379 . S
H391 C385 0.959 . S
H392 C385 0.961 . S
H393 C385 0.960 . S
H394 C386 0.930 . S
H395 C387 0.929 . S
H396 C404 0.929 . S
H397 C406 0.930 . S
H398 C408 0.930 . S
H399 C411 0.929 . S
H400 C414 0.930 . S
H401 C416 0.960 . S
H402 C416 0.960 . S
H403 C416 0.960 . S
C404 H396 0.929 . S
C404 C405 1.377 . S
C404 C406 1.384 . S
C405 C404 1.377 . S
C405 C411 1.390 . S
C406 H397 0.930 . S
C406 C404 1.384 . S
C406 C407 1.372 . S
C407 C406 1.372 . S
C407 C408 1.400 . S
C407 C412 1.490 . S
C408 H398 0.930 . S
C408 C407 1.400 . S
C408 C411 1.386 . S
H409 C425 0.930 . S
H410 C426 0.931 . S
C411 H399 0.929 . S
C411 C405 1.390 . S
C411 C408 1.386 . S
C412 C407 1.490 . S
C412 C414 1.395 . S
C412 C415 1.403 . S
H413 C419 0.930 . S
C414 H400 0.930 . S
C414 C412 1.395 . S
C414 C417 1.403 . S
C415 C412 1.403 . S
C415 C416 1.524 . S
C415 C419 1.400 . S
C416 H401 0.960 . S
C416 H402 0.960 . S
C416 H403 0.960 . S
C416 C415 1.524 . S
C417 C414 1.403 . S
C417 C418 1.392 . S
C417 C421 1.495 . S
C418 C417 1.392 . S
C418 C419 1.385 . S
C418 C420 1.478 . S
C419 H413 0.930 . S
C419 C415 1.400 . S
C419 C418 1.385 . S
C420 C418 1.478 . S
C420 C422 1.381 . S
C420 C426 1.383 . S
C421 C417 1.495 . S
C421 H427 0.959 . S
C421 H428 0.961 . S
C421 H429 0.960 . S
C422 C420 1.381 . S
C422 C423 1.394 . S
C422 H430 0.930 . S
C423 C422 1.394 . S
C423 C424 1.383 . S
C423 H431 0.929 . S
C424 C423 1.383 . S
C424 C425 1.377 . S
C425 H409 0.930 . S
C425 C424 1.377 . S
C425 C426 1.379 . S
C426 H410 0.931 . S
C426 C420 1.383 . S
C426 C425 1.379 . S
H427 C421 0.959 . S
H428 C421 0.961 . S
H429 C421 0.960 . S
H430 C422 0.930 . S
H431 C423 0.929 . S
H432 C440 0.929 . S
H433 C442 0.930 . S
H434 C444 0.930 . S
H435 C447 0.929 . S
H436 C450 0.930 . S
H437 C452 0.960 . S
H438 C452 0.960 . S
H439 C452 0.960 . S
C440 H432 0.929 . S
C440 C441 1.377 . S
C440 C442 1.384 . S
C441 C440 1.377 . S
C441 C447 1.390 . S
C442 H433 0.930 . S
C442 C440 1.384 . S
C442 C443 1.372 . S
C443 C442 1.372 . S
C443 C444 1.400 . S
C443 C448 1.490 . S
C444 H434 0.930 . S
C444 C443 1.400 . S
C444 C447 1.386 . S
H445 C461 0.930 . S
H446 C462 0.931 . S
C447 H435 0.929 . S
C447 C441 1.390 . S
C447 C444 1.386 . S
C448 C443 1.490 . S
C448 C450 1.395 . S
C448 C451 1.403 . S
H449 C455 0.930 . S
C450 H436 0.930 . S
C450 C448 1.395 . S
C450 C453 1.403 1_554 S
C451 C448 1.403 . S
C451 C452 1.524 . S
C451 C455 1.400 1_554 S
C452 H437 0.960 . S
C452 H438 0.960 . S
C452 H439 0.960 . S
C452 C451 1.524 . S
C453 C450 1.403 1_556 S
C453 C454 1.392 . S
C453 C457 1.495 . S
C454 C453 1.392 . S
C454 C455 1.385 . S
C454 C456 1.478 . S
C455 H449 0.930 . S
C455 C451 1.400 1_556 S
C455 C454 1.385 . S
C456 C454 1.478 . S
C456 C458 1.381 . S
C456 C462 1.383 . S
C457 C453 1.495 . S
C457 H463 0.959 . S
C457 H464 0.961 . S
C457 H465 0.960 . S
C458 C456 1.381 . S
C458 C459 1.394 . S
C458 H466 0.930 . S
C459 C458 1.394 . S
C459 C460 1.383 . S
C459 H467 0.929 . S
C460 C459 1.383 . S
C460 C461 1.377 . S
C461 H445 0.930 . S
C461 C460 1.377 . S
C461 C462 1.379 . S
C462 H446 0.931 . S
C462 C456 1.383 . S
C462 C461 1.379 . S
H463 C457 0.959 . S
H464 C457 0.961 . S
H465 C457 0.960 . S
H466 C458 0.930 . S
H467 C459 0.929 . S
H468 C476 0.929 . S
H469 C478 0.930 . S
H470 C480 0.930 . S
H471 C483 0.929 . S
H472 C486 0.930 . S
H473 C488 0.960 . S
H474 C488 0.960 . S
H475 C488 0.960 . S
C476 H468 0.929 . S
C476 C477 1.377 . S
C476 C478 1.384 . S
C477 C476 1.377 . S
C477 C483 1.390 . S
C478 H469 0.930 . S
C478 C476 1.384 . S
C478 C479 1.372 . S
C479 C478 1.372 . S
C479 C480 1.400 . S
C479 C484 1.490 . S
C480 H470 0.930 . S
C480 C479 1.400 . S
C480 C483 1.386 . S
H481 C497 0.930 . S
H482 C498 0.931 1_554 S
C483 H471 0.929 . S
C483 C477 1.390 . S
C483 C480 1.386 . S
C484 C479 1.490 . S
C484 C486 1.395 . S
C484 C487 1.403 . S
H485 C491 0.930 . S
C486 H472 0.930 . S
C486 C484 1.395 . S
C486 C489 1.403 . S
C487 C484 1.403 . S
C487 C488 1.524 . S
C487 C491 1.400 . S
C488 H473 0.960 . S
C488 H474 0.960 . S
C488 H475 0.960 . S
C488 C487 1.524 . S
C489 C486 1.403 . S
C489 C490 1.392 . S
C489 C493 1.495 . S
C490 C489 1.392 . S
C490 C491 1.385 . S
C490 C492 1.478 . S
C491 H485 0.930 . S
C491 C487 1.400 . S
C491 C490 1.385 . S
C492 C490 1.478 . S
C492 C494 1.381 1_554 S
C492 C498 1.383 1_554 S
C493 C489 1.495 . S
C493 H499 0.959 . S
C493 H500 0.961 . S
C493 H501 0.960 . S
C494 C492 1.381 1_556 S
C494 C495 1.394 . S
C494 H502 0.930 . S
C495 C494 1.394 . S
C495 C496 1.383 . S
C495 H503 0.929 . S
C496 C495 1.383 . S
C496 C497 1.377 . S
C497 H481 0.930 . S
C497 C496 1.377 . S
C497 C498 1.379 . S
C498 H482 0.931 1_556 S
C498 C492 1.383 1_556 S
C498 C497 1.379 . S
H499 C493 0.959 . S
H500 C493 0.961 . S
H501 C493 0.960 . S
H502 C494 0.930 . S
H503 C495 0.929 . S
H504 C512 0.929 . S
H505 C514 0.930 . S
H506 C516 0.930 . S
H507 C519 0.929 . S
H508 C522 0.930 . S
H509 C524 0.960 . S
H510 C524 0.960 . S
H511 C524 0.960 . S
C512 H504 0.929 . S
C512 C513 1.377 . S
C512 C514 1.384 . S
C513 C512 1.377 . S
C513 C519 1.390 . S
C514 H505 0.930 . S
C514 C512 1.384 . S
C514 C515 1.372 . S
C515 C514 1.372 . S
C515 C516 1.400 . S
C515 C520 1.490 . S
C516 H506 0.930 . S
C516 C515 1.400 . S
C516 C519 1.386 . S
H517 C533 0.930 . S
H518 C534 0.931 . S
C519 H507 0.929 . S
C519 C513 1.390 . S
C519 C516 1.386 . S
C520 C515 1.490 . S
C520 C522 1.395 . S
C520 C523 1.403 . S
H521 C527 0.930 . S
C522 H508 0.930 . S
C522 C520 1.395 . S
C522 C525 1.403 . S
C523 C520 1.403 . S
C523 C524 1.524 . S
C523 C527 1.400 . S
C524 H509 0.960 . S
C524 H510 0.960 . S
C524 H511 0.960 . S
C524 C523 1.524 . S
C525 C522 1.403 . S
C525 C526 1.392 . S
C525 C529 1.495 . S
C526 C525 1.392 . S
C526 C527 1.385 . S
C526 C528 1.478 . S
C527 H521 0.930 . S
C527 C523 1.400 . S
C527 C526 1.385 . S
C528 C526 1.478 . S
C528 C530 1.381 . S
C528 C534 1.383 . S
C529 C525 1.495 . S
C529 H535 0.959 . S
C529 H536 0.961 . S
C529 H537 0.960 . S
C530 C528 1.381 . S
C530 C531 1.394 . S
C530 H538 0.930 . S
C531 C530 1.394 . S
C531 C532 1.383 . S
C531 H539 0.929 . S
C532 C531 1.383 . S
C532 C533 1.377 . S
C533 H517 0.930 . S
C533 C532 1.377 . S
C533 C534 1.379 . S
C534 H518 0.931 . S
C534 C528 1.383 . S
C534 C533 1.379 . S
H535 C529 0.959 . S
H536 C529 0.961 . S
H537 C529 0.960 . S
H538 C530 0.930 . S
H539 C531 0.929 . S
H540 C548 0.929 . S
H541 C550 0.930 . S
H542 C552 0.930 . S
H543 C555 0.929 . S
H544 C558 0.930 . S
H545 C560 0.960 . S
H546 C560 0.960 . S
H547 C560 0.960 . S
C548 H540 0.929 . S
C548 C549 1.377 . S
C548 C550 1.384 . S
C549 C548 1.377 . S
C549 C555 1.390 . S
C550 H541 0.930 . S
C550 C548 1.384 . S
C550 C551 1.372 . S
C551 C550 1.372 . S
C551 C552 1.400 . S
C551 C556 1.490 . S
C552 H542 0.930 . S
C552 C551 1.400 . S
C552 C555 1.386 . S
H553 C569 0.930 . S
H554 C570 0.931 . S
C555 H543 0.929 . S
C555 C549 1.390 . S
C555 C552 1.386 . S
C556 C551 1.490 . S
C556 C558 1.395 . S
C556 C559 1.403 . S
H557 C563 0.930 . S
C558 H544 0.930 . S
C558 C556 1.395 . S
C558 C561 1.403 . S
C559 C556 1.403 . S
C559 C560 1.524 . S
C559 C563 1.400 . S
C560 H545 0.960 . S
C560 H546 0.960 . S
C560 H547 0.960 . S
C560 C559 1.524 . S
C561 C558 1.403 . S
C561 C562 1.392 . S
C561 C565 1.495 . S
C562 C561 1.392 . S
C562 C563 1.385 . S
C562 C564 1.478 . S
C563 H557 0.930 . S
C563 C559 1.400 . S
C563 C562 1.385 . S
C564 C562 1.478 . S
C564 C566 1.381 1_556 S
C564 C570 1.383 1_556 S
C565 C561 1.495 . S
C565 H571 0.959 . S
C565 H572 0.961 . S
C565 H573 0.960 . S
C566 C564 1.381 1_554 S
C566 C567 1.394 . S
C566 H574 0.931 1_554 S
C567 C566 1.394 . S
C567 C568 1.383 . S
C567 H575 0.929 . S
C568 C567 1.383 . S
C568 C569 1.377 . S
C569 H553 0.930 . S
C569 C568 1.377 . S
C569 C570 1.379 . S
C570 H554 0.931 . S
C570 C564 1.383 1_554 S
C570 C569 1.379 . S
H571 C565 0.959 . S
H572 C565 0.961 . S
H573 C565 0.960 . S
H574 C566 0.931 1_556 S
H575 C567 0.929 . S
H576 C584 0.929 . S
H577 C586 0.930 . S
H578 C588 0.930 . S
H579 C591 0.929 . S
H580 C594 0.930 . S
H581 C596 0.960 . S
H582 C596 0.960 . S
H583 C596 0.960 . S
C584 H576 0.929 . S
C584 C585 1.377 . S
C584 C586 1.384 . S
C585 C584 1.377 . S
C585 C591 1.390 . S
C586 H577 0.930 . S
C586 C584 1.384 . S
C586 C587 1.372 . S
C587 C586 1.372 . S
C587 C588 1.400 . S
C587 C592 1.490 . S
C588 H578 0.930 . S
C588 C587 1.400 . S
C588 C591 1.386 . S
H589 C605 0.930 . S
H590 C606 0.931 . S
C591 H579 0.929 . S
C591 C585 1.390 . S
C591 C588 1.386 . S
C592 C587 1.490 . S
C592 C594 1.395 . S
C592 C595 1.403 . S
H593 C599 0.930 . S
C594 H580 0.930 . S
C594 C592 1.395 . S
C594 C597 1.403 . S
C595 C592 1.403 . S
C595 C596 1.524 . S
C595 C599 1.400 . S
C596 H581 0.960 . S
C596 H582 0.960 . S
C596 H583 0.960 . S
C596 C595 1.524 . S
C597 C594 1.403 . S
C597 C598 1.392 . S
C597 C601 1.495 . S
C598 C597 1.392 . S
C598 C599 1.385 . S
C598 C600 1.478 . S
C599 H593 0.930 . S
C599 C595 1.400 . S
C599 C598 1.385 . S
C600 C598 1.478 . S
C600 C602 1.381 . S
C600 C606 1.383 . S
C601 C597 1.495 . S
C601 H607 0.959 . S
C601 H608 0.961 . S
C601 H609 0.960 . S
C602 C600 1.381 . S
C602 C603 1.394 . S
C602 H610 0.930 . S
C603 C602 1.394 . S
C603 C604 1.383 . S
C603 H611 0.929 . S
C604 C603 1.383 . S
C604 C605 1.377 . S
C605 H589 0.930 . S
C605 C604 1.377 . S
C605 C606 1.379 . S
C606 H590 0.931 . S
C606 C600 1.383 . S
C606 C605 1.379 . S
H607 C601 0.959 . S
H608 C601 0.961 . S
H609 C601 0.960 . S
H610 C602 0.930 . S
H611 C603 0.929 . S
H612 C620 0.929 . S
H613 C622 0.930 . S
H614 C624 0.930 1_556 S
H615 C627 0.929 . S
H616 C630 0.930 . S
H617 C632 0.960 . S
H618 C632 0.960 . S
H619 C632 0.960 . S
C620 H612 0.929 . S
C620 C621 1.377 . S
C620 C622 1.384 . S
C621 C620 1.377 . S
C621 C627 1.390 1_554 S
C622 H613 0.930 . S
C622 C620 1.384 . S
C622 C623 1.372 . S
C623 C622 1.372 . S
C623 C624 1.400 . S
C623 C628 1.490 . S
C624 H614 0.930 1_554 S
C624 C623 1.400 . S
C624 C627 1.386 1_554 S
H625 C641 0.930 . S
H626 C642 0.931 . S
C627 H615 0.929 . S
C627 C621 1.390 1_556 S
C627 C624 1.386 1_556 S
C628 C623 1.490 . S
C628 C630 1.395 . S
C628 C631 1.403 . S
H629 C635 0.930 . S
C630 H616 0.930 . S
C630 C628 1.395 . S
C630 C633 1.403 . S
C631 C628 1.403 . S
C631 C632 1.524 . S
C631 C635 1.400 . S
C632 H617 0.960 . S
C632 H618 0.960 . S
C632 H619 0.960 . S
C632 C631 1.524 . S
C633 C630 1.403 . S
C633 C634 1.392 . S
C633 C637 1.495 . S
C634 C633 1.392 . S
C634 C635 1.385 . S
C634 C636 1.478 . S
C635 H629 0.930 . S
C635 C631 1.400 . S
C635 C634 1.385 . S
C636 C634 1.478 . S
C636 C638 1.381 . S
C636 C642 1.383 . S
C637 C633 1.495 . S
C637 H643 0.959 . S
C637 H644 0.961 . S
C637 H645 0.960 . S
C638 C636 1.381 . S
C638 C639 1.394 . S
C638 H646 0.930 . S
C639 C638 1.394 . S
C639 C640 1.383 . S
C639 H647 0.929 . S
C640 C639 1.383 . S
C640 C641 1.377 . S
C641 H625 0.930 . S
C641 C640 1.377 . S
C641 C642 1.379 . S
C642 H626 0.931 . S
C642 C636 1.383 . S
C642 C641 1.379 . S
H643 C637 0.959 . S
H644 C637 0.961 . S
H645 C637 0.960 . S
H646 C638 0.930 . S
H647 C639 0.929 . S
H648 C656 0.929 . S
H649 C658 0.930 . S
H650 C660 0.930 . S
H651 C663 0.929 . S
H652 C666 0.930 . S
H653 C668 0.960 . S
H654 C668 0.960 . S
H655 C668 0.960 . S
C656 H648 0.929 . S
C656 C657 1.377 . S
C656 C658 1.384 . S
C657 C656 1.377 . S
C657 C663 1.390 . S
C658 H649 0.930 . S
C658 C656 1.384 . S
C658 C659 1.372 . S
C659 C658 1.372 . S
C659 C660 1.400 . S
C659 C664 1.490 . S
C660 H650 0.930 . S
C660 C659 1.400 . S
C660 C663 1.386 . S
H661 C677 0.930 . S
H662 C678 0.931 . S
C663 H651 0.929 . S
C663 C657 1.390 . S
C663 C660 1.386 . S
C664 C659 1.490 . S
C664 C666 1.395 . S
C664 C667 1.403 . S
H665 C671 0.930 . S
C666 H652 0.930 . S
C666 C664 1.395 . S
C666 C669 1.403 . S
C667 C664 1.403 . S
C667 C668 1.524 . S
C667 C671 1.400 . S
C668 H653 0.960 . S
C668 H654 0.960 . S
C668 H655 0.960 . S
C668 C667 1.524 . S
C669 C666 1.403 . S
C669 C670 1.392 . S
C669 C673 1.495 . S
C670 C669 1.392 . S
C670 C671 1.385 . S
C670 C672 1.478 . S
C671 H665 0.930 . S
C671 C667 1.400 . S
C671 C670 1.385 . S
C672 C670 1.478 . S
C672 C674 1.381 . S
C672 C678 1.383 . S
C673 C669 1.495 . S
C673 H679 0.959 . S
C673 H680 0.961 . S
C673 H681 0.960 . S
C674 C672 1.381 . S
C674 C675 1.394 . S
C674 H682 0.930 . S
C675 C674 1.394 . S
C675 C676 1.383 . S
C675 H683 0.929 . S
C676 C675 1.383 . S
C676 C677 1.377 . S
C677 H661 0.930 . S
C677 C676 1.377 . S
C677 C678 1.379 . S
C678 H662 0.931 . S
C678 C672 1.383 . S
C678 C677 1.379 . S
H679 C673 0.959 . S
H680 C673 0.961 . S
H681 C673 0.960 . S
H682 C674 0.930 . S
H683 C675 0.929 . S
H684 C692 0.929 . S
H685 C694 0.930 . S
H686 C696 0.930 . S
H687 C699 0.929 . S
H688 C702 0.930 . S
H689 C704 0.960 . S
H690 C704 0.960 . S
H691 C704 0.960 . S
C692 H684 0.929 . S
C692 C693 1.377 . S
C692 C694 1.384 . S
C693 C692 1.377 . S
C693 C699 1.390 . S
C694 H685 0.930 . S
C694 C692 1.384 . S
C694 C695 1.372 . S
C695 C694 1.372 . S
C695 C696 1.400 . S
C695 C700 1.490 . S
C696 H686 0.930 . S
C696 C695 1.400 . S
C696 C699 1.386 . S
H697 C713 0.930 . S
H698 C714 0.931 . S
C699 H687 0.929 . S
C699 C693 1.390 . S
C699 C696 1.386 . S
C700 C695 1.490 . S
C700 C702 1.395 . S
C700 C703 1.403 . S
H701 C707 0.930 . S
C702 H688 0.930 . S
C702 C700 1.395 . S
C702 C705 1.403 . S
C703 C700 1.403 . S
C703 C704 1.524 . S
C703 C707 1.400 . S
C704 H689 0.960 . S
C704 H690 0.960 . S
C704 H691 0.960 . S
C704 C703 1.524 . S
C705 C702 1.403 . S
C705 C706 1.392 . S
C705 C709 1.495 . S
C706 C705 1.392 . S
C706 C707 1.385 . S
C706 C708 1.478 . S
C707 H701 0.930 . S
C707 C703 1.400 . S
C707 C706 1.385 . S
C708 C706 1.478 . S
C708 C710 1.381 . S
C708 C714 1.383 . S
C709 C705 1.495 . S
C709 H715 0.959 . S
C709 H716 0.961 . S
C709 H717 0.960 . S
C710 C708 1.381 . S
C710 C711 1.394 . S
C710 H718 0.930 . S
C711 C710 1.394 . S
C711 C712 1.383 . S
C711 H719 0.929 . S
C712 C711 1.383 . S
C712 C713 1.377 . S
C713 H697 0.930 . S
C713 C712 1.377 . S
C713 C714 1.379 . S
C714 H698 0.931 . S
C714 C708 1.383 . S
C714 C713 1.379 . S
H715 C709 0.959 . S
H716 C709 0.961 . S
H717 C709 0.960 . S
H718 C710 0.930 . S
H719 C711 0.929 . S
H720 C728 0.929 . S
H721 C730 0.930 . S
H722 C732 0.930 . S
H723 C735 0.929 . S
H724 C738 0.930 . S
H725 C740 0.960 . S
H726 C740 0.960 . S
H727 C740 0.960 . S
C728 H720 0.929 . S
C728 C729 1.377 . S
C728 C730 1.384 . S
C729 C728 1.377 . S
C729 C735 1.390 . S
C730 H721 0.930 . S
C730 C728 1.384 . S
C730 C731 1.372 . S
C731 C730 1.372 . S
C731 C732 1.400 . S
C731 C736 1.490 . S
C732 H722 0.930 . S
C732 C731 1.400 . S
C732 C735 1.386 . S
H733 C749 0.930 . S
H734 C750 0.931 . S
C735 H723 0.929 . S
C735 C729 1.390 . S
C735 C732 1.386 . S
C736 C731 1.490 . S
C736 C738 1.395 . S
C736 C739 1.403 . S
H737 C743 0.930 . S
C738 H724 0.930 . S
C738 C736 1.395 . S
C738 C741 1.403 . S
C739 C736 1.403 . S
C739 C740 1.524 . S
C739 C743 1.400 . S
C740 H725 0.960 . S
C740 H726 0.960 . S
C740 H727 0.960 . S
C740 C739 1.524 . S
C741 C738 1.403 . S
C741 C742 1.392 . S
C741 C745 1.495 . S
C742 C741 1.392 . S
C742 C743 1.385 . S
C742 C744 1.478 . S
C743 H737 0.930 . S
C743 C739 1.400 . S
C743 C742 1.385 . S
C744 C742 1.478 . S
C744 C746 1.381 . S
C744 C750 1.383 . S
C745 C741 1.495 . S
C745 H751 0.959 . S
C745 H752 0.961 . S
C745 H753 0.960 . S
C746 C744 1.381 . S
C746 C747 1.394 . S
C746 H754 0.930 . S
C747 C746 1.394 . S
C747 C748 1.383 . S
C747 H755 0.929 . S
C748 C747 1.383 . S
C748 C749 1.377 . S
C749 H733 0.930 . S
C749 C748 1.377 . S
C749 C750 1.379 . S
C750 H734 0.931 . S
C750 C744 1.383 . S
C750 C749 1.379 . S
H751 C745 0.959 . S
H752 C745 0.961 . S
H753 C745 0.960 . S
H754 C746 0.930 . S
H755 C747 0.929 . S
H756 C764 0.929 . S
H757 C766 0.930 . S
H758 C768 0.930 . S
H759 C771 0.929 . S
H760 C774 0.930 . S
H761 C776 0.960 . S
H762 C776 0.960 . S
H763 C776 0.960 . S
C764 H756 0.929 . S
C764 C765 1.377 . S
C764 C766 1.384 . S
C765 C764 1.377 . S
C765 C771 1.390 . S
C766 H757 0.930 . S
C766 C764 1.384 . S
C766 C767 1.372 . S
C767 C766 1.372 . S
C767 C768 1.400 . S
C767 C772 1.490 . S
C768 H758 0.930 . S
C768 C767 1.400 . S
C768 C771 1.386 . S
H769 C785 0.930 . S
H770 C786 0.931 . S
C771 H759 0.929 . S
C771 C765 1.390 . S
C771 C768 1.386 . S
C772 C767 1.490 . S
C772 C774 1.395 . S
C772 C775 1.403 . S
H773 C779 0.930 . S
C774 H760 0.930 . S
C774 C772 1.395 . S
C774 C777 1.403 . S
C775 C772 1.403 . S
C775 C776 1.524 . S
C775 C779 1.400 . S
C776 H761 0.960 . S
C776 H762 0.960 . S
C776 H763 0.960 . S
C776 C775 1.524 . S
C777 C774 1.403 . S
C777 C778 1.392 . S
C777 C781 1.495 . S
C778 C777 1.392 . S
C778 C779 1.385 . S
C778 C780 1.478 . S
C779 H773 0.930 . S
C779 C775 1.400 . S
C779 C778 1.385 . S
C780 C778 1.478 . S
C780 C782 1.381 . S
C780 C786 1.383 . S
C781 C777 1.495 . S
C781 H787 0.959 . S
C781 H788 0.961 . S
C781 H789 0.960 . S
C782 C780 1.381 . S
C782 C783 1.394 . S
C782 H790 0.930 . S
C783 C782 1.394 . S
C783 C784 1.383 . S
C783 H791 0.929 . S
C784 C783 1.383 . S
C784 C785 1.377 . S
C785 H769 0.930 . S
C785 C784 1.377 . S
C785 C786 1.379 . S
C786 H770 0.931 . S
C786 C780 1.383 . S
C786 C785 1.379 . S
H787 C781 0.959 . S
H788 C781 0.961 . S
H789 C781 0.960 . S
H790 C782 0.930 . S
H791 C783 0.929 . S
H792 C800 0.929 . S
H793 C802 0.930 1_556 S
H794 C804 0.930 . S
H795 C807 0.929 . S
H796 C810 0.930 . S
H797 C812 0.960 . S
H798 C812 0.960 . S
H799 C812 0.960 . S
C800 H792 0.929 . S
C800 C801 1.377 . S
C800 C802 1.384 . S
C801 C800 1.377 . S
C801 C807 1.390 . S
C802 H793 0.930 1_554 S
C802 C800 1.384 . S
C802 C803 1.372 . S
C803 C802 1.372 . S
C803 C804 1.400 . S
C803 C808 1.490 . S
C804 H794 0.930 . S
C804 C803 1.400 . S
C804 C807 1.386 . S
H805 C821 0.930 1_554 S
H806 C822 0.931 . S
C807 H795 0.929 . S
C807 C801 1.390 . S
C807 C804 1.386 . S
C808 C803 1.490 . S
C808 C810 1.395 1_554 S
C808 C811 1.403 . S
H809 C815 0.930 . S
C810 H796 0.930 . S
C810 C808 1.395 1_556 S
C810 C813 1.403 . S
C811 C808 1.403 . S
C811 C812 1.524 . S
C811 C815 1.400 . S
C812 H797 0.960 . S
C812 H798 0.960 . S
C812 H799 0.960 . S
C812 C811 1.524 . S
C813 C810 1.403 . S
C813 C814 1.392 . S
C813 C817 1.495 . S
C814 C813 1.392 . S
C814 C815 1.385 1_556 S
C814 C816 1.478 . S
C815 H809 0.930 . S
C815 C811 1.400 . S
C815 C814 1.385 1_554 S
C816 C814 1.478 . S
C816 C818 1.381 . S
C816 C822 1.383 1_556 S
C817 C813 1.495 . S
C817 H823 0.959 . S
C817 H824 0.961 . S
C817 H825 0.960 . S
C818 C816 1.381 . S
C818 C819 1.394 . S
C818 H826 0.930 . S
C819 C818 1.394 . S
C819 C820 1.383 . S
C819 H827 0.929 . S
C820 C819 1.383 . S
C820 C821 1.377 . S
C821 H805 0.930 1_556 S
C821 C820 1.377 . S
C821 C822 1.379 1_556 S
C822 H806 0.931 . S
C822 C816 1.383 1_554 S
C822 C821 1.379 1_554 S
H823 C817 0.959 . S
H824 C817 0.961 . S
H825 C817 0.960 . S
H826 C818 0.930 . S
H827 C819 0.929 . S
C189 C160 1.558 . S
C208 C10 1.568 . S
C225 N14 1.400 . S
C244 N44 1.402 . S
C261 C40 1.558 . S
C280 C70 1.568 . S
C297 N74 1.401 . S
C316 N104 1.396 . S
C333 C130 1.558 . S
C352 C100 1.567 . S
C369 N164 1.399 . S
C388 N134 1.400 . S
C405 C16 0.858 . S
C424 C27 0.871 . S
C441 C57 0.862 . S
C460 C46 0.853 . S
C477 C76 0.863 . S
C496 C87 0.867 . S
C513 C117 0.855 1_556 S
C532 C106 0.844 . S
C549 C147 0.857 . S
C568 C136 0.866 . S
C585 C177 0.861 . S
C604 C166 0.846 1_554 S
C621 C1 1.545 . S
C640 N126 1.403 . S
C657 N36 1.448 . S
C676 C151 1.548 . S
C693 N6 1.446 . S
C712 C61 1.549 . S
C729 C31 1.547 . S
C748 N96 1.470 . S
C765 C121 1.545 . S
C784 N66 1.431 . S
C801 C91 1.546 . S
C820 N156 1.408 . S
