# Generated by pormake.
# Topology lll, (7)-cn, num edge types: 1
# Building blocks:
#     Node 0, Type 0, BuildingBlock: NUHQUE_clean_sbu_2, # of connection points: 7
#     Node 1, Type 0, BuildingBlock: NUHQUE_clean_sbu_2, # of connection points: 7
#     Node 2, Type 0, BuildingBlock: NUHQUE_clean_sbu_2, # of connection points: 7
#     Node 3, Type 0, BuildingBlock: NUHQUE_clean_sbu_2, # of connection points: 7
#     Node 4, Type 0, BuildingBlock: NUHQUE_clean_sbu_2, # of connection points: 7
#     Node 5, Type 0, BuildingBlock: NUHQUE_clean_sbu_2, # of connection points: 7
#     Node 6, Type 0, BuildingBlock: NUHQUE_clean_sbu_2, # of connection points: 7
#     Node 7, Type 0, BuildingBlock: NUHQUE_clean_sbu_2, # of connection points: 7
#     Node 8, Type 0, BuildingBlock: NUHQUE_clean_sbu_2, # of connection points: 7
#     Node 9, Type 0, BuildingBlock: NUHQUE_clean_sbu_2, # of connection points: 7
#     Node 10, Type 0, BuildingBlock: NUHQUE_clean_sbu_2, # of connection points: 7
#     Node 11, Type 0, BuildingBlock: NUHQUE_clean_sbu_2, # of connection points: 7
#     Node 12, Type 0, BuildingBlock: NUHQUE_clean_sbu_2, # of connection points: 7
#     Node 13, Type 0, BuildingBlock: NUHQUE_clean_sbu_2, # of connection points: 7
#     Node 14, Type 0, BuildingBlock: NUHQUE_clean_sbu_2, # of connection points: 7
#     Node 15, Type 0, BuildingBlock: NUHQUE_clean_sbu_2, # of connection points: 7
#     Edge 16, Type (0, 0), BuildingBlock: MIFKUJ_clean_linker_0, # of connection points: 2
#     Edge 17, Type (0, 0), BuildingBlock: MIFKUJ_clean_linker_0, # of connection points: 2
#     Edge 18, Type (0, 0), BuildingBlock: MIFKUJ_clean_linker_0, # of connection points: 2
#     Edge 19, Type (0, 0), BuildingBlock: MIFKUJ_clean_linker_0, # of connection points: 2
#     Edge 20, Type (0, 0), BuildingBlock: MIFKUJ_clean_linker_0, # of connection points: 2
#     Edge 21, Type (0, 0), BuildingBlock: MIFKUJ_clean_linker_0, # of connection points: 2
#     Edge 22, Type (0, 0), BuildingBlock: MIFKUJ_clean_linker_0, # of connection points: 2
#     Edge 23, Type (0, 0), BuildingBlock: MIFKUJ_clean_linker_0, # of connection points: 2
#     Edge 24, Type (0, 0), BuildingBlock: MIFKUJ_clean_linker_0, # of connection points: 2
#     Edge 25, Type (0, 0), BuildingBlock: MIFKUJ_clean_linker_0, # of connection points: 2
#     Edge 26, Type (0, 0), BuildingBlock: MIFKUJ_clean_linker_0, # of connection points: 2
#     Edge 27, Type (0, 0), BuildingBlock: MIFKUJ_clean_linker_0, # of connection points: 2
#     Edge 28, Type (0, 0), BuildingBlock: MIFKUJ_clean_linker_0, # of connection points: 2
#     Edge 29, Type (0, 0), BuildingBlock: MIFKUJ_clean_linker_0, # of connection points: 2
#     Edge 30, Type (0, 0), BuildingBlock: MIFKUJ_clean_linker_0, # of connection points: 2
#     Edge 31, Type (0, 0), BuildingBlock: MIFKUJ_clean_linker_0, # of connection points: 2
#     Edge 32, Type (0, 0), BuildingBlock: MIFKUJ_clean_linker_0, # of connection points: 2
#     Edge 33, Type (0, 0), BuildingBlock: MIFKUJ_clean_linker_0, # of connection points: 2
#     Edge 34, Type (0, 0), BuildingBlock: MIFKUJ_clean_linker_0, # of connection points: 2
#     Edge 35, Type (0, 0), BuildingBlock: MIFKUJ_clean_linker_0, # of connection points: 2
#     Edge 36, Type (0, 0), BuildingBlock: MIFKUJ_clean_linker_0, # of connection points: 2
#     Edge 37, Type (0, 0), BuildingBlock: MIFKUJ_clean_linker_0, # of connection points: 2
#     Edge 38, Type (0, 0), BuildingBlock: MIFKUJ_clean_linker_0, # of connection points: 2
#     Edge 39, Type (0, 0), BuildingBlock: MIFKUJ_clean_linker_0, # of connection points: 2
#     Edge 40, Type (0, 0), BuildingBlock: MIFKUJ_clean_linker_0, # of connection points: 2
#     Edge 41, Type (0, 0), BuildingBlock: MIFKUJ_clean_linker_0, # of connection points: 2
#     Edge 42, Type (0, 0), BuildingBlock: MIFKUJ_clean_linker_0, # of connection points: 2
#     Edge 43, Type (0, 0), BuildingBlock: MIFKUJ_clean_linker_0, # of connection points: 2
#     Edge 44, Type (0, 0), BuildingBlock: MIFKUJ_clean_linker_0, # of connection points: 2
#     Edge 45, Type (0, 0), BuildingBlock: MIFKUJ_clean_linker_0, # of connection points: 2
#     Edge 46, Type (0, 0), BuildingBlock: MIFKUJ_clean_linker_0, # of connection points: 2
#     Edge 47, Type (0, 0), BuildingBlock: MIFKUJ_clean_linker_0, # of connection points: 2
#     Edge 48, Type (0, 0), BuildingBlock: MIFKUJ_clean_linker_0, # of connection points: 2
#     Edge 49, Type (0, 0), BuildingBlock: MIFKUJ_clean_linker_0, # of connection points: 2
#     Edge 50, Type (0, 0), BuildingBlock: MIFKUJ_clean_linker_0, # of connection points: 2
#     Edge 51, Type (0, 0), BuildingBlock: MIFKUJ_clean_linker_0, # of connection points: 2
#     Edge 52, Type (0, 0), BuildingBlock: MIFKUJ_clean_linker_0, # of connection points: 2
#     Edge 53, Type (0, 0), BuildingBlock: MIFKUJ_clean_linker_0, # of connection points: 2
#     Edge 54, Type (0, 0), BuildingBlock: MIFKUJ_clean_linker_0, # of connection points: 2
#     Edge 55, Type (0, 0), BuildingBlock: MIFKUJ_clean_linker_0, # of connection points: 2
#     Edge 56, Type (0, 0), BuildingBlock: MIFKUJ_clean_linker_0, # of connection points: 2
#     Edge 57, Type (0, 0), BuildingBlock: MIFKUJ_clean_linker_0, # of connection points: 2
#     Edge 58, Type (0, 0), BuildingBlock: MIFKUJ_clean_linker_0, # of connection points: 2
#     Edge 59, Type (0, 0), BuildingBlock: MIFKUJ_clean_linker_0, # of connection points: 2
#     Edge 60, Type (0, 0), BuildingBlock: MIFKUJ_clean_linker_0, # of connection points: 2
#     Edge 61, Type (0, 0), BuildingBlock: MIFKUJ_clean_linker_0, # of connection points: 2
#     Edge 62, Type (0, 0), BuildingBlock: MIFKUJ_clean_linker_0, # of connection points: 2
#     Edge 63, Type (0, 0), BuildingBlock: MIFKUJ_clean_linker_0, # of connection points: 2
#     Edge 64, Type (0, 0), BuildingBlock: MIFKUJ_clean_linker_0, # of connection points: 2
#     Edge 65, Type (0, 0), BuildingBlock: MIFKUJ_clean_linker_0, # of connection points: 2
#     Edge 66, Type (0, 0), BuildingBlock: MIFKUJ_clean_linker_0, # of connection points: 2
#     Edge 67, Type (0, 0), BuildingBlock: MIFKUJ_clean_linker_0, # of connection points: 2
#     Edge 68, Type (0, 0), BuildingBlock: MIFKUJ_clean_linker_0, # of connection points: 2
#     Edge 69, Type (0, 0), BuildingBlock: MIFKUJ_clean_linker_0, # of connection points: 2
#     Edge 70, Type (0, 0), BuildingBlock: MIFKUJ_clean_linker_0, # of connection points: 2
#     Edge 71, Type (0, 0), BuildingBlock: MIFKUJ_clean_linker_0, # of connection points: 2
# Relax obj value: 0.447
# Max RMSD: 0.287
# Mean RMSD: 0.287
data_MOF--net-lll--node1-NUHQUE_clean_sbu_2--edge1-MIFKUJ_clean_linker_0
_symmetry_space_group_name_H-M    P1
_symmetry_Int_Tables_number       1
_symmetry_cell_setting            triclinic
loop_
_symmetry_equiv_pos_as_xyz
'x, y, z'
_cell_length_a     59.232615
_cell_length_b     59.266902
_cell_length_c     59.747435
_cell_angle_alpha  90.057411
_cell_angle_beta   90.094695
_cell_angle_gamma 89.840884
loop_
_atom_site_label
_atom_site_type_symbol
_atom_site_fract_x
_atom_site_fract_y
_atom_site_fract_z
_atom_type_partial_charge
O0 O 0.71964 0.11768 1.00289 0.0
Tb1 Tb 0.69578 0.13387 0.02561 0.0
Eu2 Eu 0.6564 0.15345 0.06028 0.0
C3 C 0.71259 0.1073 0.98469 0.0
O4 O 0.69116 0.10196 0.98295 0.0
C5 C 0.64993 0.14668 1.00738 0.0
O6 O 0.64079 0.18758 0.06743 0.0
C7 C 0.62984 0.12212 0.07471 0.0
C8 C 0.63882 0.19819 0.08674 0.0
O9 O 0.62628 0.2165 0.0874 0.0
C10 C 0.70446 0.13401 0.0767 0.0
C11 C 0.62693 0.10485 0.09212 0.0
C12 C 0.61229 0.0869 0.08768 0.0
C13 C 0.60579 0.07205 0.10477 0.0
C14 C 0.61486 0.07497 0.12632 0.0
C15 C 0.62971 0.09284 0.13109 0.0
C16 C 0.6358 0.10771 0.11377 0.0
O17 O 0.66352 0.12912 1.0088 0.0
O18 O 0.64892 0.16119 0.02399 0.0
O19 O 0.7128 0.16039 1.00731 0.0
O20 O 0.69255 0.16953 0.03519 0.0
C21 C 0.70496 0.17709 0.01894 0.0
O22 O 0.69035 0.15116 0.07751 0.0
O23 O 0.70592 0.12113 0.05867 0.0
O24 O 0.62881 0.14321 0.08147 0.0
O25 O 0.64493 0.11845 0.05893 0.0
H26 H 0.60518 0.08508 0.07104 0.0
H27 H 0.60905 0.06428 0.13984 0.0
H28 H 0.64673 0.12193 0.1173 0.0
O29 O 0.85754 0.19879 0.27729 0.0
Tb30 Tb 0.83923 0.17829 0.30142 0.0
Eu31 Eu 0.82943 0.13777 0.34115 0.0
C32 C 0.86632 0.18937 0.25932 0.0
O33 O 0.86885 0.16736 0.25891 0.0
C34 C 0.8203 0.13399 0.28966 0.0
O35 O 0.81179 0.11938 0.36881 0.0
C36 C 0.86935 0.11979 0.34252 0.0
C37 C 0.81454 0.125 0.3899 0.0
O38 O 0.8249 0.1438 0.39519 0.0
C39 C 0.84432 0.18878 0.35265 0.0
C40 C 0.88381 0.11182 0.36108 0.0
C41 C 0.89986 0.09501 0.35666 0.0
C42 C 0.91227 0.08513 0.37413 0.0
C43 C 0.90872 0.09249 0.39618 0.0
C44 C 0.89248 0.10909 0.40113 0.0
C45 C 0.87998 0.11872 0.3834 0.0
O46 O 0.84008 0.14384 0.28981 0.0
O47 O 0.80963 0.13297 0.30887 0.0
O48 O 0.81241 0.19009 0.27986 0.0
O49 O 0.80524 0.18625 0.31424 0.0
C50 C 0.79677 0.1918 0.29488 0.0
O51 O 0.82962 0.1726 0.35703 0.0
O52 O 0.85413 0.19041 0.33279 0.0
O53 O 0.85087 0.10805 0.3395 0.0
O54 O 0.86611 0.14165 0.34066 0.0
H55 H 0.90229 0.0892 0.33961 0.0
H56 H 0.91773 0.08427 0.40973 0.0
H57 H 0.86716 0.13125 0.38695 0.0
O58 O 0.78409 0.42223 0.51607 0.0
Tb59 Tb 0.7902 0.39172 0.53551 0.0
Eu60 Eu 0.82767 0.36838 0.57741 0.0
C61 C 0.79659 0.4265 0.49834 0.0
O62 O 0.8159 0.41582 0.4961 0.0
C63 C 0.82798 0.35732 0.5255 0.0
O64 O 0.84102 0.35243 0.60907 0.0
C65 C 0.84899 0.40631 0.57812 0.0
C66 C 0.85227 0.33345 0.61148 0.0
O67 O 0.86087 0.32898 0.63129 0.0
C68 C 0.77709 0.38587 0.58638 0.0
C69 C 0.86099 0.41712 0.59697 0.0
C70 C 0.87792 0.43307 0.5926 0.0
C71 C 0.89196 0.44079 0.60997 0.0
C72 C 0.88857 0.43275 0.63177 0.0
C73 C 0.87207 0.41654 0.63649 0.0
C74 C 0.85799 0.40902 0.61902 0.0
O75 O 0.82275 0.37886 0.52331 0.0
O76 O 0.8279 0.34816 0.54549 0.0
O77 O 0.76625 0.38242 0.50944 0.0
O78 O 0.77211 0.35983 0.53606 0.0
C79 C 0.76093 0.36291 0.51757 0.0
O80 O 0.79169 0.36931 0.58899 0.0
O81 O 0.77788 0.40011 0.56929 0.0
O82 O 0.85829 0.38741 0.57117 0.0
O83 O 0.82686 0.40514 0.57964 0.0
H84 H 0.88087 0.43861 0.57557 0.0
H85 H 0.89916 0.43897 0.64525 0.0
H86 H 0.84553 0.39612 0.62234 0.0
O87 O 0.60392 0.26623 0.74589 0.0
Tb88 Tb 0.60986 0.28433 0.77691 0.0
Eu89 Eu 0.61342 0.32521 0.81774 0.0
C90 C 0.58959 0.27437 0.7311 0.0
O91 O 0.57724 0.29201 0.73649 0.0
C92 C 0.6267 0.33163 0.76544 0.0
O93 O 0.64179 0.31211 0.83852 0.0
C94 C 0.59905 0.3612 0.83773 0.0
C95 C 0.63871 0.3017 0.85766 0.0
O96 O 0.61856 0.30083 0.86675 0.0
C97 C 0.58338 0.27708 0.82002 0.0
C98 C 0.58858 0.37017 0.85831 0.0
C99 C 0.57313 0.3879 0.85593 0.0
C100 C 0.56505 0.39968 0.87465 0.0
C101 C 0.57177 0.3927 0.89612 0.0
C102 C 0.58709 0.37476 0.89897 0.0
C103 C 0.59571 0.36366 0.87993 0.0
O104 O 0.61105 0.31689 0.7606 0.0
O105 O 0.63318 0.33449 0.78631 0.0
O106 O 0.63887 0.26153 0.77931 0.0
O107 O 0.63395 0.28607 0.80438 0.0
C108 C 0.64648 0.26917 0.7983 0.0
O109 O 0.59414 0.29416 0.82941 0.0
O110 O 0.58238 0.27418 0.79817 0.0
O111 O 0.6198 0.35355 0.83953 0.0
O112 O 0.58639 0.34978 0.82349 0.0
H113 H 0.56802 0.39307 0.83926 0.0
H114 H 0.56607 0.40202 0.91069 0.0
H115 H 0.60808 0.3503 0.88196 0.0
O116 O 0.72342 0.43813 0.26254 0.0
Tb117 Tb 0.72682 0.41053 0.23859 0.0
Eu118 Eu 0.67727 0.38381 0.20839 0.0
C119 C 0.70855 0.43713 0.27888 0.0
O120 O 0.69098 0.42391 0.27654 0.0
C121 C 0.68989 0.37754 0.26046 0.0
O122 O 0.68087 0.34682 0.19988 0.0
C123 C 0.64212 0.4023 0.18982 0.0
C124 C 0.69118 0.33303 0.21384 0.0
O125 O 0.6979 0.34063 0.23328 0.0
C126 C 0.72228 0.40638 0.18776 0.0
C127 C 0.63038 0.41003 0.16929 0.0
C128 C 0.61422 0.42734 0.17148 0.0
C129 C 0.6012 0.43436 0.15308 0.0
C130 C 0.60436 0.42368 0.13236 0.0
C131 C 0.62026 0.40623 0.12976 0.0
C132 C 0.63353 0.39959 0.14827 0.0
O133 O 0.71133 0.38246 0.25698 0.0
O134 O 0.67387 0.38303 0.24612 0.0
O135 O 0.76104 0.41453 0.25191 0.0
O136 O 0.75532 0.39099 0.22637 0.0
C137 C 0.77064 0.39931 0.23948 0.0
O138 O 0.70872 0.3889 0.18811 0.0
O139 O 0.72163 0.42149 0.20404 0.0
O140 O 0.64417 0.38043 0.19307 0.0
O141 O 0.6594 0.41412 0.19727 0.0
H142 H 0.61168 0.43528 0.18765 0.0
H143 H 0.59409 0.42871 0.11816 0.0
H144 H 0.64564 0.38597 0.1465 0.0
O145 O 0.63604 0.19813 0.49447 0.0
Tb146 Tb 0.65518 0.17912 0.46964 0.0
Eu147 Eu 0.66333 0.14227 0.42623 0.0
C148 C 0.62679 0.18751 0.51147 0.0
O149 O 0.62747 0.16537 0.51183 0.0
C150 C 0.66959 0.13254 0.47741 0.0
O151 O 0.67647 0.12506 0.39532 0.0
C152 C 0.62164 0.12977 0.42432 0.0
C153 C 0.68259 0.10377 0.39541 0.0
O154 O 0.68631 0.09348 0.37629 0.0
C155 C 0.65865 0.19668 0.42079 0.0
C156 C 0.60993 0.11839 0.40567 0.0
C157 C 0.59466 0.10098 0.41045 0.0
C158 C 0.58692 0.08659 0.39338 0.0
C159 C 0.59427 0.09022 0.37132 0.0
C160 C 0.60974 0.10736 0.36622 0.0
C161 C 0.61732 0.1216 0.38347 0.0
O162 O 0.6505 0.14388 0.47753 0.0
O163 O 0.68109 0.13289 0.45862 0.0
O164 O 0.68295 0.18815 0.49164 0.0
O165 O 0.69034 0.17691 0.45866 0.0
C166 C 0.69894 0.18278 0.47775 0.0
O167 O 0.67049 0.17844 0.41568 0.0
O168 O 0.64621 0.19751 0.43914 0.0
O169 O 0.63751 0.11743 0.43353 0.0
O170 O 0.62778 0.15085 0.42123 0.0
H171 H 0.58995 0.09778 0.42768 0.0
H172 H 0.58811 0.07945 0.35798 0.0
H173 H 0.62997 0.13426 0.37985 0.0
O174 O 0.82086 0.10338 0.75212 0.0
Tb175 Tb 0.79494 0.12656 0.74 0.0
Eu176 Eu 0.84297 0.13628 0.70851 0.0
C177 C 0.8243 0.09705 0.77308 0.0
O178 O 0.84085 0.08287 0.77721 0.0
C179 C 0.83184 0.16056 0.75578 0.0
O180 O 0.85591 0.16088 0.68325 0.0
C181 C 0.86461 0.09982 0.69806 0.0
C182 C 0.84378 0.17866 0.67812 0.0
O183 O 0.8275 0.18495 0.69171 0.0
C184 C 0.7931 0.12879 0.68719 0.0
C185 C 0.87139 0.08898 0.67677 0.0
C186 C 0.88783 0.07185 0.67734 0.0
C187 C 0.89605 0.06226 0.65743 0.0
C188 C 0.88747 0.06977 0.63686 0.0
C189 C 0.87152 0.08731 0.6358 0.0
C190 C 0.86356 0.09705 0.65587 0.0
O191 O 0.81029 0.15817 0.75087 0.0
O192 O 0.84749 0.1502 0.74385 0.0
O193 O 0.77018 0.11066 0.76224 0.0
O194 O 0.76317 0.14287 0.74832 0.0
C195 C 0.75551 0.12702 0.76117 0.0
O196 O 0.81184 0.14056 0.687 0.0
O197 O 0.78607 0.1184 0.70536 0.0
O198 O 0.87467 0.11912 0.70227 0.0
O199 O 0.84293 0.09981 0.70323 0.0
H200 H 0.89455 0.06625 0.6933 0.0
H201 H 0.89422 0.06278 0.62146 0.0
H202 H 0.85162 0.11093 0.65523 0.0
O203 O 0.86146 0.29812 0.02857 0.0
Tb204 Tb 0.85872 0.31941 0.99869 0.0
Eu205 Eu 0.8751 0.35477 0.9536 0.0
C206 C 0.8569 0.30735 0.0482 0.0
O207 O 0.85142 0.3288 0.04877 0.0
C208 C 0.87353 0.36623 1.00597 0.0
O209 O 0.84229 0.34725 0.93673 0.0
C210 C 0.8971 0.38355 0.92949 0.0
C211 C 0.8425 0.33676 0.9174 0.0
O212 O 0.86191 0.33193 0.90791 0.0
C213 C 0.8759 0.29937 0.95202 0.0
C214 C 0.90912 0.39061 0.9091 0.0
C215 C 0.92658 0.40623 0.91178 0.0
C216 C 0.93699 0.416 0.8932 0.0
C217 C 0.9302 0.40971 0.87161 0.0
C218 C 0.91244 0.39422 0.8684 0.0
C219 C 0.90191 0.38469 0.88737 0.0
O220 O 0.88191 0.34585 1.00787 0.0
O221 O 0.86612 0.37242 0.98617 0.0
O222 O 0.82497 0.32484 1.01214 0.0
O223 O 0.83355 0.34035 0.98149 0.0
C224 C 0.81795 0.33836 0.99656 0.0
O225 O 0.88688 0.31839 0.9476 0.0
O226 O 0.86348 0.29667 0.97024 0.0
O227 O 0.87511 0.38098 0.92837 0.0
O228 O 0.90721 0.37011 0.94396 0.0
H229 H 0.93155 0.41151 0.92847 0.0
H230 H 0.93789 0.41794 0.85734 0.0
H231 H 0.88798 0.37305 0.88527 0.0
O232 O 0.21141 0.63156 0.49714 0.0
Tb233 Tb 0.18971 0.6461 0.52273 0.0
Eu234 Eu 0.14514 0.64054 0.56158 0.0
C235 C 0.21037 0.6394 0.4766 0.0
O236 O 0.19729 0.65683 0.47251 0.0
C237 C 0.14159 0.63784 0.50803 0.0
O238 O 0.15984 0.67522 0.56341 0.0
C239 C 0.1111 0.63574 0.58843 0.0
C240 C 0.17558 0.6796 0.57814 0.0
O241 O 0.18037 0.66475 0.59372 0.0
C242 C 0.19566 0.62423 0.57142 0.0
C243 C 0.10252 0.62344 0.60822 0.0
C244 C 0.08517 0.6077 0.60494 0.0
C245 C 0.07538 0.59638 0.62304 0.0
C246 C 0.08328 0.60078 0.64476 0.0
C247 C 0.1004 0.61677 0.64856 0.0
C248 C 0.10992 0.62817 0.63017 0.0
O249 O 0.1611 0.62742 0.50982 0.0
O250 O 0.13215 0.64587 0.52629 0.0
O251 O 0.2033 0.67997 0.51701 0.0
O252 O 0.16792 0.67588 0.52024 0.0
C253 C 0.18391 0.69037 0.51718 0.0
O254 O 0.17429 0.6178 0.57197 0.0
O255 O 0.20341 0.63764 0.55558 0.0
O256 O 0.12666 0.65127 0.59132 0.0
O257 O 0.11374 0.62392 0.56994 0.0
H258 H 0.07911 0.60433 0.58813 0.0
H259 H 0.07538 0.59244 0.65885 0.0
H260 H 0.12298 0.64062 0.633 0.0
O261 O 0.34433 0.71301 0.7649 0.0
Tb262 Tb 0.33982 0.69158 0.79418 0.0
Eu263 Eu 0.34609 0.64366 0.82377 0.0
C264 C 0.36113 0.70857 0.75116 0.0
O265 O 0.3761 0.69331 0.75711 0.0
C266 C 0.32858 0.64597 0.77343 0.0
O267 O 0.33094 0.62923 0.85489 0.0
C268 C 0.38636 0.62719 0.82379 0.0
C269 C 0.31126 0.63631 0.862 0.0
O270 O 0.29696 0.64486 0.84746 0.0
C271 C 0.35838 0.694 0.84119 0.0
C272 C 0.40202 0.62419 0.84274 0.0
C273 C 0.41915 0.60783 0.84149 0.0
C274 C 0.43156 0.60194 0.8607 0.0
C275 C 0.42743 0.61336 0.88088 0.0
C276 C 0.41007 0.62937 0.88256 0.0
C277 C 0.39735 0.63471 0.86339 0.0
O278 O 0.34322 0.66252 0.77224 0.0
O279 O 0.32413 0.637 0.79308 0.0
O280 O 0.30846 0.70978 0.8008 0.0
O281 O 0.3113 0.67555 0.81075 0.0
C282 C 0.29813 0.69305 0.81049 0.0
O283 O 0.34635 0.67567 0.84483 0.0
O284 O 0.36318 0.70033 0.82065 0.0
O285 O 0.3682 0.61451 0.82502 0.0
O286 O 0.38205 0.64816 0.81764 0.0
H287 H 0.42168 0.5986 0.82601 0.0
H288 H 0.43679 0.60865 0.89578 0.0
H289 H 0.38326 0.64634 0.86474 0.0
O290 O 0.29644 0.87253 0.01691 0.0
Tb291 Tb 0.31214 0.8575 0.04608 0.0
Eu292 Eu 0.34982 0.8487 0.0891 0.0
C293 C 0.30805 0.88527 1.00313 0.0
O294 O 0.32906 0.89032 1.00802 0.0
C295 C 0.3562 0.83568 0.03805 0.0
O296 O 0.35384 0.83122 0.12232 0.0
C297 C 0.37746 0.88258 0.09089 0.0
C298 C 0.34592 0.84152 0.14029 0.0
O299 O 0.33637 0.86144 0.1381 0.0
C300 C 0.29822 0.86894 0.09314 0.0
C301 C 0.38896 0.89548 0.10864 0.0
C302 C 0.40522 0.91161 0.10279 0.0
C303 C 0.41971 0.92063 0.11917 0.0
C304 C 0.41726 0.91388 0.14158 0.0
C305 C 0.40113 0.89776 0.14767 0.0
C306 C 0.38701 0.88872 0.13109 0.0
O307 O 0.34682 0.85555 0.03548 0.0
O308 O 0.35587 0.8267 0.05824 0.0
O309 O 0.29142 0.82837 0.03687 0.0
O310 O 0.31221 0.82652 0.06568 0.0
C311 C 0.29798 0.81562 0.05337 0.0
O312 O 0.31328 0.85403 0.09992 0.0
O313 O 0.29988 0.87828 0.07328 0.0
O314 O 0.38392 0.86141 0.08971 0.0
O315 O 0.35547 0.88524 0.08842 0.0
H316 H 0.40758 0.916 0.08534 0.0
H317 H 0.42823 0.92096 0.1543 0.0
H318 H 0.37564 0.87532 0.13541 0.0
O319 O 0.10502 0.75677 0.24182 0.0
Tb320 Tb 0.11434 0.78277 0.26584 0.0
Eu321 Eu 0.11926 0.83135 0.29727 0.0
C322 C 0.08638 0.75895 0.22996 0.0
O323 O 0.07228 0.77534 0.235 0.0
C324 C 0.116 0.82919 0.24205 0.0
O325 O 0.1563 0.83958 0.30104 0.0
C326 C 0.09616 0.86203 0.31814 0.0
C327 C 0.17074 0.83951 0.28421 0.0
O328 O 0.16454 0.83317 0.2641 0.0
C329 C 0.10543 0.7809 0.31599 0.0
C330 C 0.0854 0.86782 0.33967 0.0
C331 C 0.06763 0.88348 0.33934 0.0
C332 C 0.05832 0.89174 0.35933 0.0
C333 C 0.06663 0.88371 0.37983 0.0
C334 C 0.08454 0.8682 0.38055 0.0
C335 C 0.09398 0.86022 0.3604 0.0
O336 O 0.1061 0.80943 0.24249 0.0
O337 O 0.1219 0.83982 0.26046 0.0
O338 O 0.14733 0.76623 0.26419 0.0
O339 O 0.14398 0.79699 0.28193 0.0
C340 C 0.15793 0.7811 0.27627 0.0
O341 O 0.11798 0.79921 0.31808 0.0
O342 O 0.09645 0.77511 0.29656 0.0
O343 O 0.11831 0.8613 0.31797 0.0
O344 O 0.08658 0.84652 0.30547 0.0
H345 H 0.06145 0.88979 0.32342 0.0
H346 H 0.05995 0.89044 0.39537 0.0
H347 H 0.10823 0.84871 0.36089 0.0
O348 O 0.2254 0.88197 0.76617 0.0
Tb349 Tb 0.2073 0.87338 0.7357 0.0
Eu350 Eu 0.16677 0.87123 0.69294 0.0
C351 C 0.21739 0.89617 0.78112 0.0
O352 O 0.19871 0.90736 0.77682 0.0
C353 C 0.15902 0.86461 0.74592 0.0
O354 O 0.18541 0.84726 0.6699 0.0
C355 C 0.1294 0.88192 0.67273 0.0
C356 C 0.20755 0.84493 0.66939 0.0
O357 O 0.22003 0.85389 0.6851 0.0
C358 C 0.21414 0.90019 0.69028 0.0
C359 C 0.11943 0.89199 0.65232 0.0
C360 C 0.10202 0.90789 0.65492 0.0
C361 C 0.09043 0.91657 0.63628 0.0
C362 C 0.09683 0.90953 0.61474 0.0
C363 C 0.11399 0.89339 0.61182 0.0
C364 C 0.12525 0.88459 0.63064 0.0
O365 O 0.17387 0.88077 0.74819 0.0
O366 O 0.15646 0.85523 0.7261 0.0
O367 O 0.22508 0.84164 0.74208 0.0
O368 O 0.19652 0.8415 0.72074 0.0
C369 C 0.21198 0.82909 0.72988 0.0
O370 O 0.19236 0.89882 0.68542 0.0
O371 O 0.22297 0.89217 0.70894 0.0
O372 O 0.13916 0.86207 0.67085 0.0
O373 O 0.1396 0.89549 0.68696 0.0
H374 H 0.09712 0.91315 0.67162 0.0
H375 H 0.08763 0.91567 0.60025 0.0
H376 H 0.13815 0.87178 0.62839 0.0
O377 O 0.09361 0.6869 0.99196 0.0
Tb378 Tb 0.12725 0.69914 0.98444 0.0
Eu379 Eu 0.15687 0.6677 0.94598 0.0
C380 C 0.09179 0.67032 1.00648 0.0
O381 O 0.10293 0.65158 1.00239 0.0
C382 C 0.16747 0.66695 0.99755 0.0
O383 O 0.17428 0.65385 0.91533 0.0
C384 C 0.11849 0.64715 0.94434 0.0
C385 C 0.19097 0.66254 0.90363 0.0
O386 O 0.1966 0.65215 0.885 0.0
C387 C 0.13957 0.71788 0.93576 0.0
C388 C 0.1069 0.6372 0.92481 0.0
C389 C 0.09108 0.61986 0.92796 0.0
C390 C 0.08199 0.60829 0.90946 0.0
C391 C 0.08912 0.61418 0.88784 0.0
C392 C 0.105 0.63131 0.88436 0.0
C393 C 0.11365 0.64305 0.90291 0.0
O394 O 0.14559 0.67045 0.99901 0.0
O395 O 0.17715 0.66682 0.9779 0.0
O396 O 0.11697 0.71958 0.01304 0.0
O397 O 0.14999 0.72335 1.00004 0.0
C398 C 0.13609 0.72985 0.01565 0.0
O399 O 0.15627 0.70341 0.9341 0.0
O400 O 0.12409 0.7163 0.95167 0.0
O401 O 0.13739 0.63694 0.94994 0.0
O402 O 0.1201 0.66927 0.94469 0.0
H403 H 0.08619 0.61517 0.94479 0.0
H404 H 0.08276 0.60491 0.8735 0.0
H405 H 0.12636 0.65593 0.90039 0.0
O406 O 0.30169 0.57238 0.26218 0.0
Tb407 Tb 0.2993 0.60673 0.25015 0.0
Eu408 Eu 0.33831 0.64083 0.19363 0.0
C409 C 0.3174 0.56829 0.27714 0.0
O410 O 0.33728 0.57752 0.27387 0.0
C411 C 0.33473 0.64542 0.24518 0.0
O412 O 0.31274 0.65666 0.17074 0.0
C413 C 0.37688 0.63015 0.17585 0.0
C414 C 0.30141 0.67452 0.1773 0.0
O415 O 0.28323 0.68072 0.16634 0.0
C416 C 0.29422 0.61106 0.19919 0.0
C417 C 0.38861 0.62004 0.1564 0.0
C418 C 0.40635 0.60471 0.16049 0.0
C419 C 0.41931 0.59586 0.14281 0.0
C420 C 0.41412 0.60255 0.12085 0.0
C421 C 0.39664 0.61798 0.11641 0.0
C422 C 0.38366 0.62649 0.13424 0.0
O423 O 0.33063 0.62383 0.24161 0.0
O424 O 0.34105 0.65744 0.22776 0.0
O425 O 0.29686 0.62211 0.28319 0.0
O426 O 0.26876 0.6241 0.26101 0.0
C427 C 0.27622 0.62916 0.28085 0.0
O428 O 0.31639 0.61076 0.20096 0.0
O429 O 0.2825 0.60695 0.21745 0.0
O430 O 0.36744 0.65018 0.17352 0.0
O431 O 0.36541 0.61643 0.18882 0.0
H432 H 0.41048 0.60024 0.1776 0.0
H433 H 0.42365 0.59563 0.10695 0.0
H434 H 0.3703 0.63858 0.13091 0.0
O435 O 0.35846 0.78187 0.50757 0.0
Tb436 Tb 0.35415 0.80426 0.47895 0.0
Eu437 Eu 0.3553 0.85 0.44546 0.0
C438 C 0.37453 0.7852 0.52246 0.0
O439 O 0.39049 0.79989 0.51808 0.0
C440 C 0.34976 0.85103 0.49932 0.0
O441 O 0.32756 0.87279 0.43271 0.0
C442 C 0.39336 0.86976 0.43715 0.0
C443 C 0.32388 0.87971 0.41208 0.0
O444 O 0.30939 0.89627 0.40913 0.0
C445 C 0.36416 0.79839 0.42971 0.0
C446 C 0.41071 0.87132 0.41971 0.0
C447 C 0.4279 0.8873 0.42253 0.0
C448 C 0.44171 0.89347 0.40449 0.0
C449 C 0.43872 0.88262 0.38379 0.0
C450 C 0.42139 0.86676 0.38051 0.0
C451 C 0.40749 0.86103 0.39873 0.0
O452 O 0.3625 0.83294 0.50005 0.0
O453 O 0.34218 0.85844 0.48002 0.0
O454 O 0.32192 0.7868 0.4765 0.0
O455 O 0.32379 0.82105 0.46618 0.0
C456 C 0.31061 0.80376 0.46839 0.0
O457 O 0.35205 0.81686 0.42652 0.0
O458 O 0.37314 0.79409 0.44948 0.0
O459 O 0.37363 0.87778 0.43114 0.0
O460 O 0.3921 0.85121 0.44925 0.0
H461 H 0.42925 0.89626 0.4383 0.0
H462 H 0.44906 0.88769 0.36974 0.0
H463 H 0.39345 0.84957 0.39635 0.0
H464 H 0.71239 0.19214 0.97718 0.0
H465 H 0.71685 0.23103 0.96498 0.0
H466 H 0.70702 0.25398 0.03294 0.0
H467 H 0.70084 0.21483 0.04492 0.0
H468 H 0.6912 0.28469 1.00588 0.0
H469 H 0.76372 0.24598 1.0111 0.0
H470 H 0.79073 0.21502 1.00383 0.0
H471 H 0.78168 0.22366 0.93301 0.0
H472 H 0.75423 0.25414 0.94002 0.0
H473 H 0.78635 0.3415 0.02899 0.0
H474 H 0.74736 0.33104 0.02262 0.0
H475 H 0.75672 0.33898 0.95154 0.0
H476 H 0.79605 0.34935 0.95793 0.0
H477 H 0.76515 0.29526 0.96869 0.0
H478 H 0.70499 0.34723 0.96999 0.0
H479 H 0.68512 0.3811 0.9835 0.0
H480 H 0.67668 0.35044 0.04796 0.0
H481 H 0.69586 0.316 0.03465 0.0
C482 C 0.71109 0.20551 0.98949 0.0
C483 C 0.70691 0.20066 1.01207 0.0
C484 C 0.71365 0.22771 0.98251 0.0
C485 C 0.71296 0.24536 0.99816 0.0
C486 C 0.70766 0.2406 0.02059 0.0
C487 C 0.7044 0.21831 0.02748 0.0
C488 C 0.72035 0.26821 0.99161 0.0
C489 C 0.7073 0.28713 0.99764 0.0
C490 C 0.74109 0.27132 0.98034 0.0
C491 C 0.75709 0.25249 0.97604 0.0
C492 C 0.76747 0.2412 0.994 0.0
C493 C 0.78281 0.22369 0.98994 0.0
C494 C 0.78799 0.21742 0.96797 0.0
C495 C 0.77776 0.22859 0.95002 0.0
C496 C 0.76236 0.24604 0.95403 0.0
C497 C 0.77971 0.34232 1.01209 0.0
C498 C 0.79425 0.34475 0.99379 0.0
C499 C 0.75723 0.33665 1.00843 0.0
C500 C 0.74967 0.33277 0.98648 0.0
C501 C 0.76262 0.34093 0.96856 0.0
C502 C 0.78516 0.34674 0.97221 0.0
C503 C 0.73626 0.31206 0.98318 0.0
C504 C 0.74843 0.29311 0.97579 0.0
C505 C 0.71508 0.30914 0.99355 0.0
C506 C 0.70179 0.32894 1.00123 0.0
C507 C 0.69858 0.34754 0.98695 0.0
C508 C 0.68739 0.36683 0.99456 0.0
C509 C 0.67961 0.36788 0.01658 0.0
C510 C 0.68248 0.34944 0.03084 0.0
C511 C 0.69335 0.32994 0.02319 0.0
H512 H 0.67166 0.38311 0.02267 0.0
H513 H 0.79988 0.20389 0.96487 0.0
H514 H 0.79856 0.37259 0.21477 0.0
H515 H 0.8043 0.33363 0.22713 0.0
H516 H 0.786 0.35325 0.29428 0.0
H517 H 0.78281 0.39212 0.28247 0.0
H518 H 0.80506 0.31601 0.29668 0.0
H519 H 0.74737 0.34542 0.24351 0.0
H520 H 0.73564 0.35935 0.20628 0.0
H521 H 0.76059 0.29907 0.17557 0.0
H522 H 0.77338 0.28502 0.21243 0.0
H523 H 0.77 0.21363 0.32587 0.0
H524 H 0.75669 0.25194 0.31822 0.0
H525 H 0.76823 0.24119 0.24769 0.0
H526 H 0.77865 0.20264 0.25502 0.0
H527 H 0.74911 0.27618 0.24923 0.0
H528 H 0.81245 0.24901 0.29701 0.0
H529 H 0.82554 0.23159 0.33209 0.0
H530 H 0.79525 0.28538 0.36994 0.0
H531 H 0.78049 0.30217 0.33507 0.0
C532 C 0.79767 0.36881 0.23248 0.0
C533 C 0.78897 0.38484 0.24749 0.0
C534 C 0.80032 0.34646 0.23943 0.0
C535 C 0.79358 0.34035 0.26112 0.0
C536 C 0.79033 0.35739 0.27716 0.0
C537 C 0.78876 0.37981 0.27041 0.0
C538 C 0.78571 0.31721 0.26622 0.0
C539 C 0.79282 0.30729 0.28627 0.0
C540 C 0.76967 0.30575 0.25265 0.0
C541 C 0.76177 0.31439 0.23066 0.0
C542 C 0.75074 0.3353 0.22878 0.0
C543 C 0.74417 0.34333 0.20773 0.0
C544 C 0.74792 0.33039 0.18857 0.0
C545 C 0.75809 0.30923 0.1904 0.0
C546 C 0.76514 0.3013 0.2113 0.0
C547 C 0.76797 0.21896 0.30864 0.0
C548 C 0.77682 0.20598 0.29106 0.0
C549 C 0.76075 0.24105 0.30429 0.0
C550 C 0.76367 0.25014 0.28273 0.0
C551 C 0.76693 0.23517 0.26475 0.0
C552 C 0.77296 0.21291 0.26896 0.0
C553 C 0.76916 0.2744 0.27925 0.0
C554 C 0.76134 0.28483 0.25965 0.0
C555 C 0.78514 0.28602 0.29281 0.0
C556 C 0.79493 0.27648 0.31355 0.0
C557 C 0.80852 0.25703 0.31284 0.0
C558 C 0.81608 0.24719 0.33272 0.0
C559 C 0.81104 0.25724 0.3533 0.0
C560 C 0.79886 0.27744 0.35401 0.0
C561 C 0.79062 0.28694 0.33423 0.0
H562 H 0.81638 0.24936 0.36873 0.0
H563 H 0.74258 0.33658 0.17237 0.0
H564 H 0.72876 0.33101 0.52469 0.0
H565 H 0.7311 0.29254 0.50966 0.0
H566 H 0.78579 0.31301 0.46679 0.0
H567 H 0.78198 0.35153 0.47996 0.0
H568 H 0.76049 0.27545 0.45033 0.0
H569 H 0.79278 0.30475 0.51907 0.0
H570 H 0.78694 0.32309 0.55554 0.0
H571 H 0.74881 0.26617 0.57801 0.0
H572 H 0.75412 0.24758 0.54159 0.0
H573 H 0.73514 0.1735 0.4503 0.0
H574 H 0.77232 0.19098 0.45449 0.0
H575 H 0.75306 0.21415 0.52032 0.0
H576 H 0.71751 0.19597 0.51651 0.0
H577 H 0.78651 0.23253 0.51667 0.0
H578 H 0.72842 0.23397 0.44435 0.0
H579 H 0.72097 0.21527 0.40811 0.0
H580 H 0.79224 0.21048 0.39579 0.0
H581 H 0.79998 0.22897 0.4322 0.0
C582 C 0.74003 0.32752 0.51084 0.0
C583 C 0.75511 0.34395 0.50329 0.0
C584 C 0.74149 0.30562 0.50237 0.0
C585 C 0.75894 0.30002 0.48741 0.0
C586 C 0.77201 0.3171 0.4779 0.0
C587 C 0.76987 0.33911 0.4856 0.0
C588 C 0.76686 0.27656 0.48564 0.0
C589 C 0.76597 0.26594 0.46484 0.0
C590 C 0.77504 0.26462 0.50453 0.0
C591 C 0.77426 0.27459 0.52746 0.0
C592 C 0.78349 0.29596 0.53184 0.0
C593 C 0.77995 0.30656 0.55244 0.0
C594 C 0.76767 0.29573 0.56914 0.0
C595 C 0.75863 0.27438 0.56516 0.0
C596 C 0.76192 0.2638 0.54449 0.0
C597 C 0.73934 0.18194 0.46584 0.0
C598 C 0.72298 0.18533 0.48245 0.0
C599 C 0.76046 0.1922 0.46816 0.0
C600 C 0.76415 0.20721 0.48609 0.0
C601 C 0.75022 0.20477 0.50508 0.0
C602 C 0.72946 0.19434 0.50301 0.0
C603 C 0.77466 0.22991 0.48258 0.0
C604 C 0.78095 0.24184 0.50202 0.0
C605 C 0.76944 0.2427 0.46302 0.0
C606 C 0.7648 0.23242 0.44097 0.0
C607 C 0.74245 0.22891 0.43386 0.0
C608 C 0.73819 0.21822 0.41342 0.0
C609 C 0.75614 0.21144 0.39979 0.0
C610 C 0.77839 0.21549 0.40651 0.0
C611 C 0.78274 0.22599 0.42704 0.0
H612 H 0.75281 0.20329 0.38391 0.0
H613 H 0.76511 0.30394 0.58509 0.0
H614 H 0.63253 0.25734 0.83963 0.0
H615 H 0.64422 0.22347 0.86004 0.0
H616 H 0.6985 0.21363 0.81305 0.0
H617 H 0.68621 0.24691 0.79211 0.0
H618 H 0.64208 0.18537 0.82552 0.0
H619 H 0.73931 0.18208 0.86008 0.0
H620 H 0.75782 0.19402 0.89477 0.0
H621 H 0.69475 0.21843 0.92047 0.0
H622 H 0.67526 0.20515 0.8867 0.0
H623 H 0.72294 0.15841 0.75622 0.0
H624 H 0.69397 0.16852 0.78318 0.0
H625 H 0.71239 0.11146 0.824 0.0
H626 H 0.74192 0.10121 0.79686 0.0
H627 H 0.71742 0.15511 0.84537 0.0
H628 H 0.66065 0.11267 0.8175 0.0
H629 H 0.63594 0.09162 0.79175 0.0
H630 H 0.61284 0.15376 0.7627 0.0
H631 H 0.63773 0.17522 0.78782 0.0
C632 C 0.64761 0.24853 0.8343 0.0
C633 C 0.65847 0.25458 0.81429 0.0
C634 C 0.6543 0.22924 0.84607 0.0
C635 C 0.6722 0.21607 0.83811 0.0
C636 C 0.68484 0.2238 0.81972 0.0
C637 C 0.67775 0.2427 0.80761 0.0
C638 C 0.67316 0.19169 0.84299 0.0
C639 C 0.65833 0.17841 0.8303 0.0
C640 C 0.69323 0.18196 0.85131 0.0
C641 C 0.70562 0.19246 0.87046 0.0
C642 C 0.72916 0.18986 0.87301 0.0
C643 C 0.7399 0.19685 0.89267 0.0
C644 C 0.72751 0.20711 0.90975 0.0
C645 C 0.70434 0.2105 0.90719 0.0
C646 C 0.69341 0.2032 0.88775 0.0
C647 C 0.72051 0.14765 0.77066 0.0
C648 C 0.73502 0.12941 0.77483 0.0
C649 C 0.7038 0.15333 0.78599 0.0
C650 C 0.70133 0.14092 0.80582 0.0
C651 C 0.71442 0.12146 0.80906 0.0
C652 C 0.73118 0.11562 0.79354 0.0
C653 C 0.68839 0.15147 0.82421 0.0
C654 C 0.70089 0.16179 0.84136 0.0
C655 C 0.66584 0.15822 0.82054 0.0
C656 C 0.65105 0.14561 0.80478 0.0
C657 C 0.65046 0.12188 0.80551 0.0
C658 C 0.63637 0.10986 0.79101 0.0
C659 C 0.62278 0.12135 0.77565 0.0
C660 C 0.6233 0.14489 0.77469 0.0
C661 C 0.63738 0.157 0.78912 0.0
H662 H 0.61186 0.11201 0.76446 0.0
H663 H 0.73586 0.21247 0.92496 0.0
H664 H 0.28359 0.76734 0.46623 0.0
H665 H 0.24264 0.76679 0.46361 0.0
H666 H 0.24131 0.83951 0.45927 0.0
H667 H 0.28284 0.84006 0.46155 0.0
H668 H 0.21275 0.82384 0.49144 0.0
H669 H 0.22382 0.81314 0.41863 0.0
H670 H 0.24062 0.8018 0.38297 0.0
H671 H 0.21402 0.73515 0.39049 0.0
H672 H 0.19892 0.74512 0.42731 0.0
H673 H 0.14576 0.71081 0.50142 0.0
H674 H 0.14308 0.74916 0.48582 0.0
H675 H 0.21131 0.76222 0.50766 0.0
H676 H 0.21443 0.72386 0.52182 0.0
H677 H 0.1755 0.76127 0.45083 0.0
H678 H 0.20856 0.8159 0.52894 0.0
H679 H 0.19215 0.82759 0.56492 0.0
H680 H 0.12612 0.80966 0.54139 0.0
H681 H 0.14199 0.79835 0.50507 0.0
C682 C 0.27463 0.78318 0.46426 0.0
C683 C 0.28623 0.80371 0.46415 0.0
C684 C 0.25125 0.78288 0.4626 0.0
C685 C 0.23898 0.80312 0.46093 0.0
C686 C 0.25053 0.82373 0.46026 0.0
C687 C 0.27414 0.824 0.46155 0.0
C688 C 0.21414 0.80198 0.46268 0.0
C689 C 0.20439 0.81038 0.48241 0.0
C690 C 0.20199 0.78638 0.44933 0.0
C691 C 0.2102 0.78 0.4264 0.0
C692 C 0.2217 0.79591 0.41308 0.0
C693 C 0.23106 0.78967 0.39254 0.0
C694 C 0.22825 0.76782 0.38442 0.0
C695 C 0.21621 0.75207 0.3969 0.0
C696 C 0.20741 0.75799 0.41782 0.0
C697 C 0.1599 0.7222 0.5034 0.0
C698 C 0.18043 0.71446 0.51251 0.0
C699 C 0.15828 0.74406 0.49459 0.0
C700 C 0.17685 0.75862 0.4958 0.0
C701 C 0.1966 0.75141 0.50685 0.0
C702 C 0.19848 0.72944 0.51482 0.0
C703 C 0.17839 0.77913 0.48183 0.0
C704 C 0.18357 0.77527 0.45925 0.0
C705 C 0.186 0.79915 0.49208 0.0
C706 C 0.17659 0.80629 0.51408 0.0
C707 C 0.19054 0.81468 0.53124 0.0
C708 C 0.18131 0.82122 0.55179 0.0
C709 C 0.15811 0.81944 0.55544 0.0
C710 C 0.14409 0.81107 0.53857 0.0
C711 C 0.15323 0.80456 0.518 0.0
H712 H 0.151 0.82451 0.57135 0.0
H713 H 0.23549 0.76306 0.36851 0.0
H714 H 0.24588 0.80179 0.74362 0.0
H715 H 0.24391 0.76122 0.74976 0.0
H716 H 0.17629 0.76013 0.72272 0.0
H717 H 0.17836 0.801 0.71624 0.0
H718 H 0.17848 0.74208 0.76436 0.0
H719 H 0.21497 0.73112 0.69714 0.0
H720 H 0.24161 0.73817 0.66645 0.0
H721 H 0.29693 0.71744 0.70809 0.0
H722 H 0.27108 0.712 0.73966 0.0
H723 H 0.27173 0.65644 0.80362 0.0
H724 H 0.23363 0.65905 0.7885 0.0
H725 H 0.231 0.72941 0.80693 0.0
H726 H 0.26936 0.72702 0.82124 0.0
H727 H 0.2427 0.68966 0.7536 0.0
H728 H 0.17297 0.7462 0.80167 0.0
H729 H 0.14763 0.74047 0.83344 0.0
H730 H 0.16139 0.66941 0.83245 0.0
H731 H 0.18566 0.67422 0.79953 0.0
C732 C 0.23086 0.7928 0.7384 0.0
C733 C 0.21225 0.80438 0.72962 0.0
C734 C 0.22976 0.76961 0.74176 0.0
C735 C 0.20999 0.75766 0.7365 0.0
C736 C 0.19173 0.76905 0.72668 0.0
C737 C 0.19296 0.7923 0.72301 0.0
C738 C 0.20782 0.73427 0.74465 0.0
C739 C 0.19238 0.7304 0.76207 0.0
C740 C 0.22486 0.71817 0.74011 0.0
C741 C 0.24078 0.7209 0.72092 0.0
C742 C 0.2328 0.72815 0.6999 0.0
C743 C 0.24784 0.73197 0.68231 0.0
C744 C 0.2709 0.72795 0.6852 0.0
C745 C 0.27903 0.72041 0.70582 0.0
C746 C 0.26415 0.71707 0.72365 0.0
C747 C 0.26249 0.67212 0.80562 0.0
C748 C 0.27356 0.69182 0.81266 0.0
C749 C 0.24061 0.67355 0.79702 0.0
C750 C 0.22983 0.69461 0.79576 0.0
C751 C 0.23911 0.71299 0.80747 0.0
C752 C 0.26118 0.71175 0.81547 0.0
C753 C 0.2162 0.70031 0.77582 0.0
C754 C 0.22834 0.70083 0.75564 0.0
C755 C 0.19644 0.71342 0.77802 0.0
C756 C 0.18137 0.71061 0.79782 0.0
C757 C 0.1704 0.72921 0.80777 0.0
C758 C 0.15615 0.72613 0.82612 0.0
C759 C 0.15296 0.70464 0.83507 0.0
C760 C 0.16386 0.68609 0.82553 0.0
C761 C 0.17781 0.68897 0.80692 0.0
H762 H 0.14203 0.70237 0.8494 0.0
H763 H 0.28247 0.73082 0.6715 0.0
H764 H 0.30333 0.79346 0.09275 0.0
H765 H 0.27871 0.76379 0.10733 0.0
H766 H 0.24479 0.76032 0.04343 0.0
H767 H 0.26865 0.79045 0.0292 0.0
H768 H 0.23328 0.77658 0.10754 0.0
H769 H 0.22243 0.70847 0.03615 0.0
H770 H 0.24792 0.68688 1.01188 0.0
H771 H 0.30161 0.69464 0.05949 0.0
H772 H 0.27612 0.71505 0.08493 0.0
H773 H 0.16148 0.76687 0.02351 0.0
H774 H 0.18637 0.7717 0.05567 0.0
H775 H 0.15645 0.71366 0.08739 0.0
H776 H 0.1304 0.70981 0.05574 0.0
H777 H 0.20219 0.70919 0.06951 0.0
H778 H 0.16773 0.75258 0.12735 0.0
H779 H 0.14364 0.78208 0.14379 0.0
H780 H 0.18019 0.83309 0.1082 0.0
H781 H 0.20503 0.80394 0.09202 0.0
C782 C 0.29113 0.78575 0.08161 0.0
C783 C 0.28759 0.79426 0.05993 0.0
C784 C 0.27723 0.76875 0.08994 0.0
C785 C 0.26011 0.75979 0.07643 0.0
C786 C 0.25821 0.76673 0.05401 0.0
C787 C 0.27174 0.78402 0.04587 0.0
C788 C 0.24076 0.74803 0.08648 0.0
C789 C 0.22657 0.76147 0.09973 0.0
C790 C 0.23242 0.72787 0.07694 0.0
C791 C 0.24717 0.71336 0.06268 0.0
C792 C 0.23945 0.7051 0.04189 0.0
C793 C 0.25397 0.69304 0.02785 0.0
C794 C 0.27634 0.68927 0.03423 0.0
C795 C 0.28419 0.69733 0.05474 0.0
C796 C 0.26966 0.70904 0.06905 0.0
C797 C 0.15922 0.75615 0.03801 0.0
C798 C 0.14417 0.73806 0.03731 0.0
C799 C 0.17335 0.7589 0.05645 0.0
C800 C 0.17321 0.74302 0.07394 0.0
C801 C 0.15655 0.72628 0.07429 0.0
C802 C 0.14175 0.7241 0.05617 0.0
C803 C 0.19438 0.74017 0.08665 0.0
C804 C 0.20916 0.72358 0.07831 0.0
C805 C 0.20318 0.75837 0.09908 0.0
C806 C 0.18821 0.77603 0.1085 0.0
C807 C 0.17054 0.77007 0.12292 0.0
C808 C 0.15672 0.78676 0.13216 0.0
C809 C 0.16004 0.80944 0.1267 0.0
C810 C 0.17753 0.81552 0.11232 0.0
C811 C 0.19163 0.79893 0.10327 0.0
H812 H 0.14915 0.82232 0.1337 0.0
H813 H 0.28769 0.68028 0.02326 0.0
H814 H 0.16955 0.79392 0.31833 0.0
H815 H 0.198 0.77517 0.34169 0.0
H816 H 0.22263 0.73937 0.28377 0.0
H817 H 0.19344 0.75691 0.26078 0.0
H818 H 0.19169 0.72819 0.34234 0.0
H819 H 0.27573 0.72401 0.29162 0.0
H820 H 0.30279 0.74965 0.27393 0.0
H821 H 0.28036 0.80358 0.31632 0.0
H822 H 0.25334 0.77835 0.33463 0.0
H823 H 0.23478 0.64815 0.27624 0.0
H824 H 0.21739 0.67546 0.30144 0.0
H825 H 0.27088 0.66532 0.34926 0.0
H826 H 0.28918 0.63844 0.32334 0.0
H827 H 0.27116 0.70701 0.32773 0.0
H828 H 0.22309 0.66392 0.36907 0.0
H829 H 0.1957 0.63478 0.37984 0.0
H830 H 0.14372 0.66891 0.34289 0.0
H831 H 0.17079 0.69769 0.33091 0.0
C832 C 0.18172 0.7828 0.31044 0.0
C833 C 0.17929 0.77655 0.28785 0.0
C834 C 0.19799 0.77224 0.3238 0.0
C835 C 0.21246 0.75607 0.31445 0.0
C836 C 0.21184 0.75209 0.29127 0.0
C837 C 0.19511 0.76201 0.27811 0.0
C838 C 0.22348 0.73895 0.32869 0.0
C839 C 0.2091 0.72345 0.33931 0.0
C840 C 0.24652 0.73355 0.32588 0.0
C841 C 0.26246 0.74917 0.31465 0.0
C842 C 0.2766 0.74134 0.29732 0.0
C843 C 0.29186 0.7559 0.28702 0.0
C844 C 0.29306 0.77843 0.29366 0.0
C845 C 0.27917 0.78632 0.31087 0.0
C846 C 0.26386 0.77187 0.32127 0.0
C847 C 0.24264 0.6514 0.2923 0.0
C848 C 0.26371 0.64206 0.29765 0.0
C849 C 0.23247 0.66663 0.30691 0.0
C850 C 0.24325 0.67258 0.32701 0.0
C851 C 0.26284 0.66113 0.33355 0.0
C852 C 0.27324 0.64613 0.31877 0.0
C853 C 0.23816 0.69492 0.33652 0.0
C854 C 0.25383 0.71177 0.33129 0.0
C855 C 0.21587 0.7009 0.34238 0.0
C856 C 0.1992 0.68334 0.3492 0.0
C857 C 0.20593 0.66517 0.36293 0.0
C858 C 0.19041 0.64863 0.36926 0.0
C859 C 0.168 0.65005 0.36213 0.0
C860 C 0.16109 0.6679 0.34848 0.0
C861 C 0.17656 0.68437 0.34192 0.0
H862 H 0.15598 0.63731 0.36717 0.0
H863 H 0.30475 0.78971 0.2855 0.0
H864 H 0.59737 0.23405 0.813 0.0
H865 H 0.60667 0.20704 0.84215 0.0
H866 H 0.57162 0.24842 0.89056 0.0
H867 H 0.5644 0.27655 0.8616 0.0
H868 H 0.6077 0.24083 0.90727 0.0
H869 H 0.55815 0.18777 0.86908 0.0
H870 H 0.54469 0.16556 0.83678 0.0
H871 H 0.60964 0.13378 0.83118 0.0
H872 H 0.62369 0.15619 0.86307 0.0
H873 H 0.61252 0.17258 1.00188 0.0
H874 H 0.59833 0.18959 0.96745 0.0
H875 H 0.64905 0.15403 0.92953 0.0
H876 H 0.66319 0.1365 0.96416 0.0
H877 H 0.60963 0.15725 0.90595 0.0
H878 H 0.65674 0.20867 0.94723 0.0
H879 H 0.66796 0.22934 0.98128 0.0
H880 H 0.60463 0.26443 0.9817 0.0
H881 H 0.59246 0.24332 0.94824 0.0
C882 C 0.59071 0.23688 0.82966 0.0
C883 C 0.57994 0.25739 0.83492 0.0
C884 C 0.59616 0.22132 0.84653 0.0
C885 C 0.59006 0.22541 0.86897 0.0
C886 C 0.57705 0.24482 0.87363 0.0
C887 C 0.57245 0.26079 0.85694 0.0
C888 C 0.59916 0.21127 0.88794 0.0
C889 C 0.60747 0.22254 0.90699 0.0
C890 C 0.60045 0.18729 0.88749 0.0
C891 C 0.59201 0.17382 0.86833 0.0
C892 C 0.56961 0.17618 0.86084 0.0
C893 C 0.5619 0.16358 0.84258 0.0
C894 C 0.57637 0.14839 0.83184 0.0
C895 C 0.59854 0.14569 0.83939 0.0
C896 C 0.60638 0.15833 0.85756 0.0
C897 C 0.62045 0.16802 0.98618 0.0
C898 C 0.63907 0.15325 0.98584 0.0
C899 C 0.61239 0.17789 0.96646 0.0
C900 C 0.62302 0.17368 0.94587 0.0
C901 C 0.64073 0.1578 0.94521 0.0
C902 C 0.64871 0.14766 0.96502 0.0
C903 C 0.61638 0.18693 0.92554 0.0
C904 C 0.60928 0.17555 0.90614 0.0
C905 C 0.61583 0.21084 0.92571 0.0
C906 C 0.62359 0.22419 0.94532 0.0
C907 C 0.64513 0.22068 0.95464 0.0
C908 C 0.65166 0.23245 0.97385 0.0
C909 C 0.63707 0.24812 0.98366 0.0
C910 C 0.61589 0.25219 0.97417 0.0
C911 C 0.60913 0.24028 0.95511 0.0
H912 H 0.64224 0.2572 0.99853 0.0
H913 H 0.57037 0.13863 0.81772 0.0
H914 H 0.82897 0.15413 0.24926 0.0
H915 H 0.80733 0.15175 0.21458 0.0
H916 H 0.76089 0.10582 0.24586 0.0
H917 H 0.78227 0.10866 0.28116 0.0
H918 H 0.7902 0.09969 0.19454 0.0
H919 H 0.73143 0.13486 0.23952 0.0
H920 H 0.71547 0.16283 0.26566 0.0
H921 H 0.73561 0.21649 0.22195 0.0
H922 H 0.75164 0.18882 0.19546 0.0
H923 H 0.71166 0.09534 0.10131 0.0
H924 H 0.7305 0.09269 0.13802 0.0
H925 H 0.74877 0.16296 0.1337 0.0
H926 H 0.73 0.16551 0.09726 0.0
H927 H 0.73065 0.15472 0.17343 0.0
H928 H 0.7887 0.11997 0.12843 0.0
H929 H 0.80405 0.09234 0.1015 0.0
H930 H 0.78435 0.03798 0.14468 0.0
H931 H 0.76863 0.06531 0.17175 0.0
C932 C 0.81425 0.14343 0.24889 0.0
C933 C 0.80754 0.13148 0.26813 0.0
C934 C 0.8017 0.14228 0.22901 0.0
C935 C 0.7822 0.12897 0.22765 0.0
C936 C 0.77563 0.11658 0.2466 0.0
C937 C 0.78796 0.11809 0.26673 0.0
C938 C 0.76967 0.12736 0.20596 0.0
C939 C 0.77684 0.11142 0.19008 0.0
C940 C 0.75262 0.14301 0.19986 0.0
C941 C 0.74357 0.15978 0.21595 0.0
C942 C 0.73298 0.15264 0.23574 0.0
C943 C 0.72366 0.16844 0.25048 0.0
C944 C 0.72464 0.19144 0.2455 0.0
C945 C 0.73488 0.19867 0.22574 0.0
C946 C 0.74413 0.18294 0.21089 0.0
C947 C 0.72025 0.10999 0.10798 0.0
C948 C 0.71941 0.13063 0.09643 0.0
C949 C 0.7309 0.10855 0.12904 0.0
C950 C 0.74108 0.12767 0.13883 0.0
C951 C 0.74095 0.14799 0.12676 0.0
C952 C 0.73031 0.14942 0.10585 0.0
C953 C 0.75116 0.12696 0.16188 0.0
C954 C 0.74376 0.14272 0.17794 0.0
C955 C 0.7679 0.11105 0.16819 0.0
C956 C 0.7773 0.09464 0.15197 0.0
C957 C 0.78748 0.10211 0.13208 0.0
C958 C 0.79628 0.08651 0.11682 0.0
C959 C 0.79511 0.06342 0.12135 0.0
C960 C 0.7852 0.05587 0.14118 0.0
C961 C 0.77637 0.0714 0.15649 0.0
H962 H 0.80194 0.05137 0.10951 0.0
H963 H 0.71741 0.20366 0.25692 0.0
H964 H 0.83435 0.36912 0.48081 0.0
H965 H 0.84236 0.34382 0.44936 0.0
H966 H 0.83725 0.28653 0.49364 0.0
H967 H 0.8326 0.31175 0.52498 0.0
H968 H 0.86897 0.27818 0.47052 0.0
H969 H 0.78945 0.29427 0.43017 0.0
H970 H 0.76182 0.32152 0.41482 0.0
H971 H 0.81605 0.36348 0.39198 0.0
H972 H 0.84384 0.33652 0.40752 0.0
H973 H 0.83313 0.18779 0.39729 0.0
H974 H 0.83763 0.21767 0.42513 0.0
H975 H 0.86971 0.2597 0.37585 0.0
H976 H 0.86647 0.22935 0.34813 0.0
H977 H 0.83059 0.2793 0.39692 0.0
H978 H 0.89885 0.24169 0.41579 0.0
H979 H 0.92445 0.21124 0.42782 0.0
H980 H 0.89081 0.20794 0.49131 0.0
H981 H 0.86425 0.23756 0.47932 0.0
C982 C 0.83512 0.35111 0.48377 0.0
C983 C 0.83268 0.34256 0.50562 0.0
C984 C 0.83915 0.33645 0.46552 0.0
C985 C 0.83989 0.31281 0.46849 0.0
C986 C 0.83704 0.30451 0.49038 0.0
C987 C 0.83417 0.31909 0.50855 0.0
C988 C 0.84518 0.29632 0.44986 0.0
C989 C 0.86011 0.27833 0.45462 0.0
C990 C 0.83495 0.29675 0.4283 0.0
C991 C 0.81857 0.31412 0.42117 0.0
C992 C 0.79536 0.30969 0.42252 0.0
C993 C 0.77971 0.3249 0.41354 0.0
C994 C 0.78718 0.34431 0.40259 0.0
C995 C 0.81029 0.34856 0.40068 0.0
C996 C 0.82597 0.33337 0.40966 0.0
C997 C 0.84149 0.2032 0.39237 0.0
C998 C 0.84904 0.20619 0.37021 0.0
C999 C 0.84402 0.22034 0.40838 0.0
C1000 C 0.85365 0.24113 0.40255 0.0
C1001 C 0.86213 0.24385 0.38076 0.0
C1002 C 0.86021 0.22644 0.36489 0.0
C1003 C 0.85284 0.26059 0.41849 0.0
C1004 C 0.83909 0.2791 0.41302 0.0
C1005 C 0.8638 0.26035 0.43956 0.0
C1006 C 0.87924 0.24174 0.44644 0.0
C1007 C 0.89651 0.23416 0.43212 0.0
C1008 C 0.91126 0.21704 0.43897 0.0
C1009 C 0.90919 0.20757 0.46027 0.0
C1010 C 0.89237 0.21523 0.47478 0.0
C1011 C 0.87738 0.23211 0.4679 0.0
H1012 H 0.92067 0.19437 0.46557 0.0
H1013 H 0.77507 0.35596 0.39544 0.0
H1014 H 0.66655 0.35526 0.76728 0.0
H1015 H 0.68902 0.36917 0.73595 0.0
H1016 H 0.63758 0.34706 0.68974 0.0
H1017 H 0.61541 0.33246 0.72093 0.0
H1018 H 0.67575 0.33442 0.67432 0.0
H1019 H 0.64891 0.40502 0.70183 0.0
H1020 H 0.64108 0.43476 0.72966 0.0
H1021 H 0.71206 0.44162 0.74258 0.0
H1022 H 0.72031 0.41169 0.71504 0.0
H1023 H 0.73113 0.38704 0.58076 0.0
H1024 H 0.70241 0.38222 0.61019 0.0
H1025 H 0.75465 0.38331 0.6605 0.0
H1026 H 0.78327 0.38737 0.63122 0.0
H1027 H 0.71344 0.40901 0.67164 0.0
H1028 H 0.73863 0.33454 0.64826 0.0
H1029 H 0.74625 0.30429 0.62096 0.0
H1030 H 0.67704 0.30614 0.59948 0.0
H1031 H 0.66899 0.33633 0.62688 0.0
C1032 C 0.65983 0.35366 0.75049 0.0
C1033 C 0.6391 0.34273 0.74673 0.0
C1034 C 0.67271 0.36173 0.7325 0.0
C1035 C 0.66502 0.35944 0.71029 0.0
C1036 C 0.64402 0.34906 0.7066 0.0
C1037 C 0.63126 0.34079 0.72454 0.0
C1038 C 0.67941 0.36656 0.69091 0.0
C1039 C 0.68353 0.35095 0.67361 0.0
C1040 C 0.69008 0.38796 0.6899 0.0
C1041 C 0.68521 0.40596 0.7065 0.0
C1042 C 0.66284 0.41274 0.71073 0.0
C1043 C 0.65833 0.42966 0.72643 0.0
C1044 C 0.67606 0.44004 0.73792 0.0
C1045 C 0.69835 0.43355 0.73368 0.0
C1046 C 0.70295 0.41662 0.71801 0.0
C1047 C 0.73635 0.38686 0.59815 0.0
C1048 C 0.75937 0.38784 0.60376 0.0
C1049 C 0.71999 0.38392 0.61493 0.0
C1050 C 0.72638 0.38236 0.63758 0.0
C1051 C 0.74928 0.38456 0.6432 0.0
C1052 C 0.76561 0.38694 0.62646 0.0
C1053 C 0.70961 0.37687 0.65536 0.0
C1054 C 0.70522 0.39269 0.67232 0.0
C1055 C 0.69851 0.35578 0.65602 0.0
C1056 C 0.70331 0.3379 0.63935 0.0
C1057 C 0.7251 0.32865 0.63755 0.0
C1058 C 0.72948 0.31147 0.6221 0.0
C1059 C 0.7122 0.30345 0.6083 0.0
C1060 C 0.69044 0.31244 0.6101 0.0
C1061 C 0.68594 0.32953 0.62564 0.0
H1062 H 0.71567 0.29023 0.59628 0.0
H1063 H 0.67253 0.45313 0.75006 0.0
H1064 H 0.65711 0.34506 0.26182 0.0
H1065 H 0.65076 0.31679 0.29076 0.0
H1066 H 0.70287 0.34717 0.33135 0.0
H1067 H 0.71042 0.37434 0.30149 0.0
H1068 H 0.70839 0.3073 0.33649 0.0
H1069 H 0.64071 0.34946 0.34204 0.0
H1070 H 0.60584 0.36858 0.32966 0.0
H1071 H 0.57882 0.3053 0.30724 0.0
H1072 H 0.61367 0.28583 0.31922 0.0
H1073 H 0.63762 0.23824 0.42497 0.0
H1074 H 0.64183 0.27149 0.40086 0.0
H1075 H 0.68804 0.23448 0.35886 0.0
H1076 H 0.68412 0.20148 0.3828 0.0
H1077 H 0.63241 0.28061 0.35872 0.0
H1078 H 0.72438 0.25932 0.34101 0.0
H1079 H 0.76015 0.25003 0.36041 0.0
H1080 H 0.73728 0.28545 0.4189 0.0
H1081 H 0.70117 0.29404 0.40013 0.0
C1082 C 0.66703 0.34589 0.27705 0.0
C1083 C 0.68421 0.36208 0.27935 0.0
C1084 C 0.66328 0.3297 0.29377 0.0
C1085 C 0.67597 0.32977 0.31375 0.0
C1086 C 0.69279 0.3464 0.31623 0.0
C1087 C 0.69704 0.36213 0.29917 0.0
C1088 C 0.67257 0.31193 0.33145 0.0
C1089 C 0.69165 0.30169 0.34121 0.0
C1090 C 0.65088 0.30463 0.33861 0.0
C1091 C 0.62989 0.31623 0.33135 0.0
C1092 C 0.6274 0.33965 0.33433 0.0
C1093 C 0.60763 0.35054 0.32741 0.0
C1094 C 0.59015 0.33817 0.31762 0.0
C1095 C 0.59239 0.31487 0.31479 0.0
C1096 C 0.61213 0.30389 0.32167 0.0
C1097 C 0.6487 0.23716 0.41061 0.0
C1098 C 0.66054 0.21702 0.40597 0.0
C1099 C 0.6511 0.25625 0.39679 0.0
C1100 C 0.66556 0.2558 0.37811 0.0
C1101 C 0.67718 0.23563 0.37338 0.0
C1102 C 0.67474 0.21659 0.38707 0.0
C1103 C 0.66819 0.27598 0.36311 0.0
C1104 C 0.64901 0.28648 0.35386 0.0
C1105 C 0.68967 0.28448 0.35728 0.0
C1106 C 0.71029 0.2773 0.3692 0.0
C1107 C 0.72708 0.26495 0.35805 0.0
C1108 C 0.74737 0.25987 0.36891 0.0
C1109 C 0.75124 0.26766 0.39068 0.0
C1110 C 0.73441 0.27963 0.40198 0.0
C1111 C 0.71392 0.28436 0.39134 0.0
H1112 H 0.76719 0.26425 0.39885 0.0
H1113 H 0.57486 0.34664 0.31227 0.0
H1114 H 0.6516 0.12712 0.51941 0.0
H1115 H 0.6717 0.12421 0.55516 0.0
H1116 H 0.73532 0.12712 0.5205 0.0
H1117 H 0.71538 0.12905 0.48462 0.0
H1118 H 0.73833 0.09691 0.55386 0.0
H1119 H 0.71749 0.17544 0.55025 0.0
H1120 H 0.69049 0.20666 0.54291 0.0
H1121 H 0.64633 0.18091 0.59356 0.0
H1122 H 0.67294 0.14969 0.60113 0.0
H1123 H 0.80751 0.13647 0.64433 0.0
H1124 H 0.78565 0.13439 0.6096 0.0
H1125 H 0.72626 0.11651 0.64711 0.0
H1126 H 0.74819 0.11803 0.68204 0.0
H1127 H 0.72054 0.15282 0.61324 0.0
H1128 H 0.74693 0.07627 0.62029 0.0
H1129 H 0.77555 0.04646 0.62587 0.0
H1130 H 0.81125 0.06926 0.56769 0.0
H1131 H 0.78355 0.10001 0.56276 0.0
C1132 C 0.66987 0.12691 0.51934 0.0
C1133 C 0.68176 0.1284 0.49903 0.0
C1134 C 0.68141 0.12535 0.53987 0.0
C1135 C 0.70518 0.12559 0.54071 0.0
C1136 C 0.71707 0.12654 0.52039 0.0
C1137 C 0.70556 0.12773 0.49983 0.0
C1138 C 0.71758 0.12547 0.56271 0.0
C1139 C 0.73448 0.10924 0.56674 0.0
C1140 C 0.71268 0.14131 0.57984 0.0
C1141 C 0.69692 0.16019 0.57592 0.0
C1142 C 0.70186 0.17642 0.55957 0.0
C1143 C 0.6867 0.19399 0.55535 0.0
C1144 C 0.66662 0.19541 0.56739 0.0
C1145 C 0.66175 0.17954 0.58398 0.0
C1146 C 0.67692 0.162 0.58834 0.0
C1147 C 0.7898 0.13204 0.64527 0.0
C1148 C 0.77964 0.12737 0.66607 0.0
C1149 C 0.77733 0.13082 0.62534 0.0
C1150 C 0.7543 0.12524 0.62569 0.0
C1151 C 0.744 0.12083 0.64641 0.0
C1152 C 0.75659 0.12161 0.66636 0.0
C1153 C 0.74106 0.12417 0.6044 0.0
C1154 C 0.72414 0.14029 0.60047 0.0
C1155 C 0.74612 0.10832 0.58738 0.0
C1156 C 0.76315 0.09032 0.59097 0.0
C1157 C 0.76107 0.07509 0.60888 0.0
C1158 C 0.77719 0.05811 0.61203 0.0
C1159 C 0.79532 0.05602 0.59722 0.0
C1160 C 0.79738 0.07099 0.5793 0.0
C1161 C 0.78149 0.08819 0.57631 0.0
H1162 H 0.80772 0.04279 0.59959 0.0
H1163 H 0.65515 0.20919 0.56419 0.0
H1164 H 0.84483 0.26555 0.94701 0.0
H1165 H 0.83912 0.24111 0.91504 0.0
H1166 H 0.90126 0.26524 0.88593 0.0
H1167 H 0.90529 0.29197 0.9168 0.0
H1168 H 0.87878 0.26155 0.85435 0.0
H1169 H 0.88614 0.20429 0.91053 0.0
H1170 H 0.87875 0.18429 0.94596 0.0
H1171 H 0.80908 0.17651 0.92761 0.0
H1172 H 0.81602 0.19647 0.89219 0.0
H1173 H 0.87429 0.17446 0.7693 0.0
H1174 H 0.88447 0.19555 0.80322 0.0
H1175 H 0.81439 0.19818 0.82231 0.0
H1176 H 0.80408 0.17761 0.78845 0.0
H1177 H 0.84304 0.18617 0.85805 0.0
H1178 H 0.841 0.24556 0.7996 0.0
H1179 H 0.85409 0.26147 0.76388 0.0
H1180 H 0.92272 0.25807 0.78687 0.0
H1181 H 0.90996 0.24272 0.82304 0.0
C1182 C 0.8576 0.26538 0.93406 0.0
C1183 C 0.87555 0.28095 0.93467 0.0
C1184 C 0.85444 0.25096 0.91559 0.0
C1185 C 0.86988 0.25049 0.89761 0.0
C1186 C 0.88866 0.26513 0.89902 0.0
C1187 C 0.89122 0.28035 0.91699 0.0
C1188 C 0.86579 0.23611 0.87684 0.0
C1189 C 0.87139 0.2449 0.85558 0.0
C1190 C 0.85585 0.21421 0.87748 0.0
C1191 C 0.85158 0.20211 0.89878 0.0
C1192 C 0.86923 0.1984 0.91411 0.0
C1193 C 0.86512 0.18703 0.93419 0.0
C1194 C 0.84345 0.1792 0.93907 0.0
C1195 C 0.82585 0.18264 0.92385 0.0
C1196 C 0.82988 0.19394 0.90373 0.0
C1197 C 0.861 0.17972 0.78059 0.0
C1198 C 0.8383 0.17443 0.77584 0.0
C1199 C 0.86686 0.19182 0.80006 0.0
C1200 C 0.85022 0.19876 0.81544 0.0
C1201 C 0.82762 0.19327 0.81082 0.0
C1202 C 0.82171 0.18155 0.79124 0.0
C1203 C 0.85618 0.21177 0.83627 0.0
C1204 C 0.85077 0.20274 0.85732 0.0
C1205 C 0.86712 0.23296 0.83554 0.0
C1206 C 0.87451 0.24302 0.81408 0.0
C1207 C 0.85885 0.24838 0.79717 0.0
C1208 C 0.86622 0.25736 0.77683 0.0
C1209 C 0.88922 0.2609 0.77314 0.0
C1210 C 0.90489 0.25555 0.78982 0.0
C1211 C 0.89759 0.24686 0.8103 0.0
H1212 H 0.89491 0.26777 0.75735 0.0
H1213 H 0.8403 0.17042 0.95462 0.0
H1214 H 0.83482 0.39144 1.00825 0.0
H1215 H 0.81438 0.40314 0.04165 0.0
H1216 H 0.86813 0.37703 0.08308 0.0
H1217 H 0.88852 0.36474 0.04946 0.0
H1218 H 0.83041 0.36182 0.09755 0.0
H1219 H 0.85538 0.43547 0.0791 0.0
H1220 H 0.86218 0.46848 0.05497 0.0
H1221 H 0.79084 0.47609 0.04442 0.0
H1222 H 0.78361 0.44293 0.06824 0.0
H1223 H 0.75881 0.43539 0.18279 0.0
H1224 H 0.78964 0.43238 0.15528 0.0
H1225 H 0.75806 0.37363 0.12656 0.0
H1226 H 0.72761 0.37649 0.15347 0.0
H1227 H 0.79081 0.43448 0.11042 0.0
H1228 H 0.79635 0.33659 0.10684 0.0
H1229 H 0.79608 0.30318 0.13118 0.0
H1230 H 0.81245 0.34448 0.18792 0.0
H1231 H 0.8127 0.37832 0.1639 0.0
C1232 C 0.84265 0.38869 0.02442 0.0
C1233 C 0.86336 0.37706 0.02614 0.0
C1234 C 0.83088 0.39547 0.04362 0.0
C1235 C 0.83966 0.39119 0.06507 0.0
C1236 C 0.86091 0.38059 0.06679 0.0
C1237 C 0.87264 0.37365 0.04755 0.0
C1238 C 0.82566 0.39565 0.08551 0.0
C1239 C 0.82185 0.37777 0.10038 0.0
C1240 C 0.81472 0.41658 0.0896 0.0
C1241 C 0.81897 0.43662 0.07536 0.0
C1242 C 0.84114 0.44409 0.07152 0.0
C1243 C 0.84508 0.46285 0.05791 0.0
C1244 C 0.82696 0.47435 0.04814 0.0
C1245 C 0.80486 0.46716 0.052 0.0
C1246 C 0.80084 0.4484 0.06559 0.0
C1247 C 0.75838 0.42195 0.17051 0.0
C1248 C 0.74057 0.40626 0.17047 0.0
C1249 C 0.77609 0.42016 0.15483 0.0
C1250 C 0.77652 0.40249 0.13901 0.0
C1251 C 0.75856 0.38711 0.13881 0.0
C1252 C 0.74093 0.38895 0.15424 0.0
C1253 C 0.79502 0.40034 0.12202 0.0
C1254 C 0.79955 0.41861 0.10772 0.0
C1255 C 0.80683 0.37977 0.1185 0.0
C1256 C 0.80439 0.36003 0.13357 0.0
C1257 C 0.79965 0.33861 0.12457 0.0
C1258 C 0.79953 0.31958 0.13832 0.0
C1259 C 0.80427 0.32169 0.16113 0.0
C1260 C 0.80865 0.34293 0.17029 0.0
C1261 C 0.80867 0.36208 0.15663 0.0
H1262 H 0.8046 0.30687 0.17169 0.0
H1263 H 0.83004 0.48886 0.03761 0.0
H1264 H 0.09035 0.73675 0.31726 0.0
H1265 H 0.09477 0.70967 0.34809 0.0
H1266 H 0.12491 0.76157 0.38887 0.0
H1267 H 0.12063 0.78851 0.35846 0.0
H1268 H 0.14986 0.7241 0.39009 0.0
H1269 H 0.07125 0.74319 0.39852 0.0
H1270 H 0.0317 0.74712 0.3861 0.0
H1271 H 0.02876 0.67603 0.37245 0.0
H1272 H 0.06841 0.67174 0.38454 0.0
H1273 H 0.10841 0.66909 0.50005 0.0
H1274 H 0.10168 0.69059 0.46598 0.0
H1275 H 0.15309 0.65211 0.4319 0.0
H1276 H 0.1599 0.63028 0.46617 0.0
H1277 H 0.08785 0.68084 0.42525 0.0
H1278 H 0.17866 0.69144 0.39153 0.0
H1279 H 0.21839 0.69155 0.40411 0.0
H1280 H 0.19718 0.70902 0.47035 0.0
H1281 H 0.15721 0.70878 0.45813 0.0
C1282 C 0.09757 0.74248 0.33291 0.0
C1283 C 0.10512 0.76488 0.33526 0.0
C1284 C 0.10015 0.72695 0.35053 0.0
C1285 C 0.11026 0.73352 0.37085 0.0
C1286 C 0.11723 0.75599 0.37336 0.0
C1287 C 0.11464 0.77145 0.35589 0.0
C1288 C 0.11427 0.7171 0.38943 0.0
C1289 C 0.13633 0.71448 0.39769 0.0
C1290 C 0.09665 0.70464 0.39946 0.0
C1291 C 0.07285 0.70719 0.39218 0.0
C1292 C 0.06222 0.72843 0.39268 0.0
C1293 C 0.03978 0.73072 0.38574 0.0
C1294 C 0.02775 0.71185 0.37842 0.0
C1295 C 0.03812 0.69064 0.37809 0.0
C1296 C 0.06056 0.68827 0.38499 0.0
C1297 C 0.1181 0.66484 0.48528 0.0
C1298 C 0.13492 0.64802 0.48607 0.0
C1299 C 0.11425 0.67728 0.46573 0.0
C1300 C 0.1271 0.67333 0.44635 0.0
C1301 C 0.1432 0.65583 0.4467 0.0
C1302 C 0.147 0.64325 0.46631 0.0
C1303 C 0.12354 0.68784 0.42613 0.0
C1304 C 0.10152 0.69012 0.4175 0.0
C1305 C 0.14124 0.70019 0.4159 0.0
C1306 C 0.16495 0.69938 0.42401 0.0
C1307 C 0.18249 0.69488 0.40885 0.0
C1308 C 0.20499 0.69507 0.41591 0.0
C1309 C 0.21021 0.7 0.43815 0.0
C1310 C 0.19294 0.70487 0.45329 0.0
C1311 C 0.17038 0.70458 0.44632 0.0
H1312 H 0.22764 0.70026 0.44362 0.0
H1313 H 0.01037 0.71365 0.37307 0.0
H1314 H 0.32753 0.66783 0.73315 0.0
H1315 H 0.30401 0.65995 0.70064 0.0
H1316 H 0.27494 0.60288 0.73473 0.0
H1317 H 0.29798 0.61128 0.76786 0.0
H1318 H 0.3039 0.62541 0.67389 0.0
H1319 H 0.22956 0.58672 0.71233 0.0
H1320 H 0.20482 0.58613 0.74554 0.0
H1321 H 0.21386 0.65727 0.75399 0.0
H1322 H 0.23963 0.65825 0.72139 0.0
H1323 H 0.1885 0.5972 0.60869 0.0
H1324 H 0.21166 0.59509 0.6427 0.0
H1325 H 0.25775 0.64364 0.61442 0.0
H1326 H 0.23676 0.64323 0.57988 0.0
H1327 H 0.22053 0.6191 0.67369 0.0
H1328 H 0.30823 0.64705 0.63717 0.0
H1329 H 0.33188 0.63998 0.60396 0.0
H1330 H 0.29548 0.57894 0.59049 0.0
H1331 H 0.27213 0.58515 0.62406 0.0
C1332 C 0.31619 0.65355 0.73384 0.0
C1333 C 0.31489 0.64007 0.75319 0.0
C1334 C 0.3026 0.64909 0.71515 0.0
C1335 C 0.28734 0.63094 0.71507 0.0
C1336 C 0.28606 0.61733 0.73435 0.0
C1337 C 0.29953 0.62196 0.75325 0.0
C1338 C 0.27401 0.62589 0.69424 0.0
C1339 C 0.28562 0.62431 0.67381 0.0
C1340 C 0.25029 0.62283 0.69403 0.0
C1341 C 0.23672 0.62246 0.71473 0.0
C1342 C 0.22661 0.60219 0.72157 0.0
C1343 C 0.21256 0.60179 0.74033 0.0
C1344 C 0.2082 0.62166 0.75213 0.0
C1345 C 0.21799 0.6419 0.74525 0.0
C1346 C 0.23242 0.64236 0.72673 0.0
C1347 C 0.20398 0.60685 0.60952 0.0
C1348 C 0.21056 0.62045 0.59138 0.0
C1349 C 0.21717 0.60588 0.62916 0.0
C1350 C 0.23695 0.61895 0.63143 0.0
C1351 C 0.2433 0.63258 0.61326 0.0
C1352 C 0.23082 0.6327 0.5934 0.0
C1353 C 0.25033 0.6194 0.65294 0.0
C1354 C 0.23881 0.62009 0.67353 0.0
C1355 C 0.27432 0.62052 0.65337 0.0
C1356 C 0.28827 0.61669 0.63307 0.0
C1357 C 0.30533 0.63205 0.62721 0.0
C1358 C 0.31868 0.62821 0.6083 0.0
C1359 C 0.31505 0.60915 0.59502 0.0
C1360 C 0.29819 0.59376 0.60073 0.0
C1361 C 0.28492 0.59741 0.61973 0.0
H1362 H 0.32537 0.60625 0.58036 0.0
H1363 H 0.19699 0.62146 0.76642 0.0
H1364 H 0.35722 0.74031 0.84195 0.0
H1365 H 0.35925 0.76489 0.875 0.0
H1366 H 0.37109 0.70667 0.91673 0.0
H1367 H 0.36939 0.68234 0.88383 0.0
H1368 H 0.33978 0.73187 0.93486 0.0
H1369 H 0.41335 0.74542 0.90567 0.0
H1370 H 0.44155 0.75565 0.87712 0.0
H1371 H 0.41168 0.82146 0.87096 0.0
H1372 H 0.38311 0.81151 0.89929 0.0
H1373 H 0.36494 0.79002 0.03584 0.0
H1374 H 0.36706 0.76632 1.00225 0.0
H1375 H 0.35658 0.82497 0.96081 0.0
H1376 H 0.35483 0.84872 0.99416 0.0
H1377 H 0.38811 0.79942 0.94281 0.0
H1378 H 0.31269 0.78583 0.96887 0.0
H1379 H 0.28191 0.77504 0.99435 0.0
H1380 H 0.31305 0.7104 1.00483 0.0
H1381 H 0.3437 0.72058 0.97883 0.0
C1382 C 0.36072 0.73286 0.85814 0.0
C1383 C 0.36285 0.70933 0.86036 0.0
C1384 C 0.36183 0.74691 0.87706 0.0
C1385 C 0.36533 0.73773 0.89851 0.0
C1386 C 0.36821 0.71428 0.90052 0.0
C1387 C 0.36709 0.7003 0.88167 0.0
C1388 C 0.36501 0.75229 0.91899 0.0
C1389 C 0.35029 0.74665 0.93648 0.0
C1390 C 0.37883 0.7716 0.9214 0.0
C1391 C 0.39596 0.77764 0.9044 0.0
C1392 C 0.41269 0.76201 0.89808 0.0
C1393 C 0.42876 0.76777 0.88198 0.0
C1394 C 0.42837 0.78917 0.87219 0.0
C1395 C 0.41194 0.80488 0.87853 0.0
C1396 C 0.39582 0.7992 0.89462 0.0
C1397 C 0.36334 0.79792 0.01958 0.0
C1398 C 0.35976 0.82134 0.0178 0.0
C1399 C 0.36431 0.78429 1.00035 0.0
C1400 C 0.36166 0.79374 0.97889 0.0
C1401 C 0.35866 0.81719 0.97709 0.0
C1402 C 0.35767 0.83079 0.99626 0.0
C1403 C 0.3622 0.77934 0.9583 0.0
C1404 C 0.37717 0.7849 0.9409 0.0
C1405 C 0.3484 0.76001 0.95582 0.0
C1406 C 0.33065 0.75413 0.97224 0.0
C1407 C 0.31307 0.7694 0.97679 0.0
C1408 C 0.29557 0.76333 0.99122 0.0
C1409 C 0.29559 0.74211 1.0014 0.0
C1410 C 0.31305 0.72683 0.99698 0.0
C1411 C 0.33043 0.7327 0.98231 0.0
H1412 H 0.28204 0.73747 0.01261 0.0
H1413 H 0.44082 0.7936 0.85972 0.0
H1414 H 0.12186 0.80519 0.20321 0.0
H1415 H 0.1489 0.81349 0.17374 0.0
H1416 H 0.16184 0.87861 0.20318 0.0
H1417 H 0.13494 0.87035 0.23299 0.0
H1418 H 0.1635 0.8808 0.15758 0.0
H1419 H 0.19207 0.83094 0.21573 0.0
H1420 H 0.19284 0.79591 0.23793 0.0
H1421 H 0.20426 0.75708 0.17837 0.0
H1422 H 0.20284 0.79171 0.15568 0.0
H1423 H 0.27585 0.90168 0.11727 0.0
H1424 H 0.24059 0.89693 0.13853 0.0
H1425 H 0.23518 0.82856 0.1141 0.0
H1426 H 0.27058 0.8331 0.09379 0.0
H1427 H 0.22822 0.82767 0.15545 0.0
H1428 H 0.19876 0.87354 0.09693 0.0
H1429 H 0.19631 0.90641 0.07176 0.0
H1430 H 0.18629 0.95016 0.12824 0.0
H1431 H 0.18896 0.91756 0.15378 0.0
C1432 C 0.1298 0.82163 0.20305 0.0
C1433 C 0.12629 0.83701 0.2207 0.0
C1434 C 0.14546 0.82631 0.18616 0.0
C1435 C 0.15781 0.84653 0.18636 0.0
C1436 C 0.1527 0.86281 0.20269 0.0
C1437 C 0.1372 0.85808 0.21973 0.0
C1438 C 0.17735 0.85002 0.17096 0.0
C1439 C 0.17775 0.86927 0.15725 0.0
C1440 C 0.19576 0.83468 0.17001 0.0
C1441 C 0.1968 0.81392 0.18389 0.0
C1442 C 0.19443 0.81492 0.2073 0.0
C1443 C 0.19509 0.79513 0.22001 0.0
C1444 C 0.19859 0.77431 0.2096 0.0
C1445 C 0.20145 0.7732 0.18643 0.0
C1446 C 0.20062 0.79289 0.17362 0.0
C1447 C 0.26684 0.88583 0.11626 0.0
C1448 C 0.27579 0.86778 0.10388 0.0
C1449 C 0.24666 0.88309 0.12833 0.0
C1450 C 0.23496 0.86239 0.12788 0.0
C1451 C 0.24375 0.84467 0.11488 0.0
C1452 C 0.26396 0.84729 0.10317 0.0
C1453 C 0.21448 0.85847 0.14201 0.0
C1454 C 0.21396 0.83917 0.15564 0.0
C1455 C 0.19585 0.8735 0.14255 0.0
C1456 C 0.19429 0.89314 0.12728 0.0
C1457 C 0.19622 0.8902 0.104 0.0
C1458 C 0.19475 0.90877 0.08966 0.0
C1459 C 0.19121 0.93037 0.0984 0.0
C1460 C 0.18906 0.93342 0.12149 0.0
C1461 C 0.19053 0.9149 0.13591 0.0
H1462 H 0.19007 0.94473 0.08727 0.0
H1463 H 0.19915 0.75902 0.21946 0.0
H1464 H 0.15314 0.81919 0.74991 0.0
H1465 H 0.14635 0.79755 0.78379 0.0
H1466 H 0.14211 0.85931 0.82197 0.0
H1467 H 0.15067 0.88099 0.78807 0.0
H1468 H 0.16325 0.8324 0.84581 0.0
H1469 H 0.09354 0.82295 0.8074 0.0
H1470 H 0.06808 0.81442 0.77582 0.0
H1471 H 0.09342 0.7465 0.7734 0.0
H1472 H 0.11919 0.75469 0.80477 0.0
H1473 H 0.11081 0.75492 0.93272 0.0
H1474 H 0.10985 0.78355 0.90272 0.0
H1475 H 0.16442 0.74941 0.86915 0.0
H1476 H 0.16558 0.72113 0.89836 0.0
H1477 H 0.11213 0.76624 0.84656 0.0
H1478 H 0.18706 0.78248 0.88338 0.0
H1479 H 0.20747 0.79262 0.91791 0.0
H1480 H 0.16628 0.85189 0.92511 0.0
H1481 H 0.14479 0.8414 0.89122 0.0
C1482 C 0.15038 0.82823 0.76543 0.0
C1483 C 0.15206 0.85188 0.7662 0.0
C1484 C 0.14636 0.81579 0.78491 0.0
C1485 C 0.14302 0.82665 0.80562 0.0
C1486 C 0.14447 0.85037 0.80633 0.0
C1487 C 0.14918 0.86282 0.7869 0.0
C1488 C 0.13913 0.81315 0.82652 0.0
C1489 C 0.15179 0.81816 0.84588 0.0
C1490 C 0.12401 0.79458 0.82717 0.0
C1491 C 0.1084 0.78949 0.80838 0.0
C1492 C 0.09375 0.80623 0.80006 0.0
C1493 C 0.07926 0.80145 0.7822 0.0
C1494 C 0.07915 0.77994 0.77259 0.0
C1495 C 0.09351 0.76315 0.78086 0.0
C1496 C 0.10804 0.76784 0.79872 0.0
C1497 C 0.12257 0.75354 0.91892 0.0
C1498 C 0.13827 0.73565 0.91811 0.0
C1499 C 0.12202 0.76991 0.90183 0.0
C1500 C 0.13709 0.76858 0.88371 0.0
C1501 C 0.15257 0.75073 0.88287 0.0
C1502 C 0.15324 0.73458 0.8998 0.0
C1503 C 0.13671 0.78522 0.8651 0.0
C1504 C 0.12326 0.78074 0.8463 0.0
C1505 C 0.15071 0.80447 0.86508 0.0
C1506 C 0.16403 0.81091 0.88506 0.0
C1507 C 0.18209 0.79744 0.89253 0.0
C1508 C 0.19392 0.80331 0.91194 0.0
C1509 C 0.18821 0.8229 0.92368 0.0
C1510 C 0.17064 0.83667 0.91604 0.0
C1511 C 0.15856 0.83071 0.89681 0.0
H1512 H 0.1974 0.82744 0.93869 0.0
H1513 H 0.06792 0.77628 0.75875 0.0
H1514 H 0.20967 0.64759 1.00013 0.0
H1515 H 0.23142 0.63833 0.03374 0.0
H1516 H 0.17839 0.66621 0.07486 0.0
H1517 H 0.15612 0.67436 0.04137 0.0
H1518 H 0.25022 0.65987 0.06535 0.0
H1519 H 0.17645 0.6425 0.12589 0.0
H1520 H 0.13701 0.62953 0.12455 0.0
H1521 H 0.15063 0.59299 0.06394 0.0
H1522 H 0.19036 0.60534 0.06521 0.0
H1523 H 0.25292 0.63135 0.19488 0.0
H1524 H 0.23293 0.64181 0.16059 0.0
H1525 H 0.28795 0.6152 0.12125 0.0
H1526 H 0.30838 0.60557 0.15569 0.0
H1527 H 0.21542 0.61964 0.12917 0.0
H1528 H 0.2912 0.63473 0.07226 0.0
H1529 H 0.32966 0.65055 0.07349 0.0
H1530 H 0.31029 0.69482 0.12699 0.0
H1531 H 0.27138 0.67979 0.12539 0.0
C1532 C 0.20249 0.65147 0.01634 0.0
C1533 C 0.18085 0.66124 0.018 0.0
C1534 C 0.21504 0.64627 0.03563 0.0
C1535 C 0.20646 0.65094 0.05711 0.0
C1536 C 0.1852 0.66156 0.05869 0.0
C1537 C 0.17245 0.66634 0.03944 0.0
C1538 C 0.21972 0.64473 0.07772 0.0
C1539 C 0.24257 0.6509 0.07916 0.0
C1540 C 0.20996 0.63322 0.09613 0.0
C1541 C 0.18632 0.62503 0.09555 0.0
C1542 C 0.17107 0.63157 0.11236 0.0
C1543 C 0.14864 0.62437 0.11158 0.0
C1544 C 0.14124 0.61057 0.09408 0.0
C1545 C 0.15635 0.60376 0.07743 0.0
C1546 C 0.17884 0.61084 0.07819 0.0
C1547 C 0.26085 0.62787 0.17892 0.0
C1548 C 0.28237 0.61778 0.17809 0.0
C1549 C 0.24936 0.63386 0.15922 0.0
C1550 C 0.25887 0.6297 0.13801 0.0
C1551 C 0.28032 0.61933 0.13719 0.0
C1552 C 0.29197 0.61359 0.15695 0.0
C1553 C 0.24582 0.63529 0.11701 0.0
C1554 C 0.22302 0.62879 0.11541 0.0
C1555 C 0.25555 0.64663 0.0985 0.0
C1556 C 0.27875 0.65566 0.09931 0.0
C1557 C 0.29524 0.6477 0.0844 0.0
C1558 C 0.3171 0.6565 0.08514 0.0
C1559 C 0.32261 0.67327 0.10065 0.0
C1560 C 0.30613 0.68155 0.11524 0.0
C1561 C 0.28422 0.67288 0.11448 0.0
H1562 H 0.33955 0.68006 0.10115 0.0
H1563 H 0.12384 0.60508 0.09345 0.0
H1564 H 0.35672 0.63155 0.28327 0.0
H1565 H 0.36326 0.65378 0.31742 0.0
H1566 H 0.31835 0.70542 0.29252 0.0
H1567 H 0.31278 0.68362 0.25816 0.0
H1568 H 0.35664 0.72403 0.3036 0.0
H1569 H 0.30865 0.66898 0.34561 0.0
H1570 H 0.29817 0.63276 0.36388 0.0
H1571 H 0.36542 0.62667 0.39006 0.0
H1572 H 0.37575 0.66286 0.37245 0.0
H1573 H 0.32869 0.78813 0.40297 0.0
H1574 H 0.32606 0.75885 0.37429 0.0
H1575 H 0.39474 0.73884 0.38768 0.0
H1576 H 0.39716 0.76772 0.41747 0.0
H1577 H 0.35109 0.70325 0.38358 0.0
H1578 H 0.39983 0.73841 0.31407 0.0
H1579 H 0.42115 0.77277 0.30471 0.0
H1580 H 0.37043 0.81355 0.33641 0.0
H1581 H 0.34778 0.77973 0.34396 0.0
C1582 C 0.34782 0.6474 0.28539 0.0
C1583 C 0.33434 0.65596 0.2679 0.0
C1584 C 0.35153 0.66015 0.30503 0.0
C1585 C 0.34148 0.68157 0.30777 0.0
C1586 C 0.32663 0.68917 0.29092 0.0
C1587 C 0.32338 0.67671 0.27119 0.0
C1588 C 0.34806 0.69731 0.32653 0.0
C1589 C 0.35511 0.71933 0.32099 0.0
C1590 C 0.3481 0.69121 0.34953 0.0
C1591 C 0.34284 0.66826 0.35748 0.0
C1592 C 0.32106 0.65955 0.35499 0.0
C1593 C 0.31517 0.63926 0.36539 0.0
C1594 C 0.33116 0.62747 0.37807 0.0
C1595 C 0.35307 0.63582 0.38023 0.0
C1596 C 0.35889 0.65622 0.37011 0.0
C1597 C 0.34331 0.77758 0.39982 0.0
C1598 C 0.36326 0.78045 0.4123 0.0
C1599 C 0.34173 0.76078 0.38346 0.0
C1600 C 0.36035 0.747 0.37845 0.0
C1601 C 0.38027 0.74953 0.39104 0.0
C1602 C 0.38165 0.76599 0.40802 0.0
C1603 C 0.35831 0.72982 0.36032 0.0
C1604 C 0.3525 0.70768 0.36601 0.0
C1605 C 0.36092 0.73534 0.33746 0.0
C1606 C 0.3725 0.75635 0.33045 0.0
C1607 C 0.39304 0.75474 0.31877 0.0
C1608 C 0.40529 0.77415 0.31358 0.0
C1609 C 0.39729 0.79529 0.32021 0.0
C1610 C 0.37673 0.79712 0.33149 0.0
C1611 C 0.36407 0.77781 0.33609 0.0
H1612 H 0.40698 0.8102 0.31645 0.0
H1613 H 0.32661 0.61188 0.38626 0.0
H1614 H 0.36323 0.84469 0.54317 0.0
H1615 H 0.34353 0.85735 0.57711 0.0
H1616 H 0.29209 0.88856 0.53618 0.0
H1617 H 0.31214 0.87719 0.50269 0.0
H1618 H 0.29811 0.91437 0.56786 0.0
H1619 H 0.29137 0.83492 0.56269 0.0
H1620 H 0.29837 0.79399 0.563 0.0
H1621 H 0.32353 0.79835 0.63012 0.0
H1622 H 0.3174 0.83953 0.6301 0.0
H1623 H 0.20466 0.90902 0.64594 0.0
H1624 H 0.2309 0.90522 0.61456 0.0
H1625 H 0.2862 0.89664 0.66071 0.0
H1626 H 0.26038 0.9009 0.69215 0.0
H1627 H 0.28029 0.86064 0.6287 0.0
H1628 H 0.2864 0.94173 0.63131 0.0
H1629 H 0.27129 0.98054 0.63139 0.0
H1630 H 0.24079 0.96927 0.56711 0.0
H1631 H 0.25546 0.93027 0.56679 0.0
C1632 C 0.34791 0.85458 0.54149 0.0
C1633 C 0.33941 0.86005 0.52017 0.0
C1634 C 0.33652 0.86164 0.56091 0.0
C1635 C 0.31603 0.87371 0.55937 0.0
C1636 C 0.30785 0.87943 0.53803 0.0
C1637 C 0.31942 0.87286 0.51877 0.0
C1638 C 0.30268 0.88023 0.57965 0.0
C1639 C 0.29413 0.9024 0.58098 0.0
C1640 C 0.29761 0.86486 0.59719 0.0
C1641 C 0.30383 0.8405 0.59635 0.0
C1642 C 0.29876 0.82731 0.57741 0.0
C1643 C 0.30261 0.80403 0.57754 0.0
C1644 C 0.31129 0.79362 0.59665 0.0
C1645 C 0.31686 0.80654 0.61537 0.0
C1646 C 0.31328 0.82987 0.61526 0.0
C1647 C 0.2225 0.9072 0.64951 0.0
C1648 C 0.23025 0.90518 0.67174 0.0
C1649 C 0.23748 0.90483 0.63148 0.0
C1650 C 0.26047 0.90036 0.63531 0.0
C1651 C 0.2685 0.8999 0.65738 0.0
C1652 C 0.25365 0.90255 0.67537 0.0
C1653 C 0.27577 0.89436 0.61646 0.0
C1654 C 0.28459 0.87238 0.61549 0.0
C1655 C 0.28062 0.90956 0.59898 0.0
C1656 C 0.27187 0.93303 0.59912 0.0
C1657 C 0.27631 0.94747 0.61728 0.0
C1658 C 0.26786 0.96952 0.61735 0.0
C1659 C 0.25505 0.97736 0.59929 0.0
C1660 C 0.2507 0.96318 0.5811 0.0
C1661 C 0.2591 0.94111 0.58095 0.0
H1662 H 0.24852 0.99443 0.59938 0.0
H1663 H 0.31346 0.77553 0.59709 0.0
H1664 H 0.70466 0.29864 0.24107 0.0
H1665 H 0.71361 0.25977 0.23027 0.0
H1666 H 0.70191 0.27674 0.16101 0.0
H1667 H 0.69244 0.31539 0.17169 0.0
H1668 H 0.68333 0.23298 0.2129 0.0
H1669 H 0.73572 0.24596 0.12857 0.0
H1670 H 0.77355 0.25975 0.1183 0.0
H1671 H 0.79406 0.25737 0.18714 0.0
H1672 H 0.75648 0.24346 0.19791 0.0
H1673 H 0.62334 0.19791 0.12931 0.0
H1674 H 0.646 0.20083 0.16255 0.0
H1675 H 0.70559 0.18505 0.1237 0.0
H1676 H 0.68312 0.18815 0.09006 0.0
H1677 H 0.7219 0.21009 0.14321 0.0
H1678 H 0.69495 0.16671 0.20127 0.0
H1679 H 0.67543 0.14613 0.23141 0.0
H1680 H 0.62167 0.19464 0.23064 0.0
H1681 H 0.64192 0.21679 0.20211 0.0
C1682 C 0.70413 0.29409 0.22351 0.0
C1683 C 0.69726 0.30984 0.20723 0.0
C1684 C 0.70958 0.272 0.21739 0.0
C1685 C 0.70874 0.26547 0.19485 0.0
C1686 C 0.70309 0.28154 0.17848 0.0
C1687 C 0.69719 0.30348 0.18462 0.0
C1688 C 0.7086 0.2414 0.18855 0.0
C1689 C 0.69165 0.22785 0.19754 0.0
C1690 C 0.72128 0.23325 0.17038 0.0
C1691 C 0.74316 0.24364 0.16405 0.0
C1692 C 0.74825 0.24841 0.14156 0.0
C1693 C 0.76969 0.25622 0.13564 0.0
C1694 C 0.78624 0.25925 0.15205 0.0
C1695 C 0.78127 0.25486 0.17445 0.0
C1696 C 0.75984 0.24716 0.18048 0.0
C1697 C 0.64129 0.19451 0.12808 0.0
C1698 C 0.65141 0.19176 0.10707 0.0
C1699 C 0.6545 0.19572 0.14746 0.0
C1700 C 0.67824 0.19352 0.14647 0.0
C1701 C 0.68769 0.18758 0.12557 0.0
C1702 C 0.67465 0.18807 0.10605 0.0
C1703 C 0.69282 0.2037 0.16459 0.0
C1704 C 0.71304 0.2147 0.1583 0.0
C1705 C 0.68434 0.20844 0.18633 0.0
C1706 C 0.66959 0.19298 0.199 0.0
C1707 C 0.67864 0.17262 0.20703 0.0
C1708 C 0.66766 0.16089 0.22411 0.0
C1709 C 0.64713 0.16877 0.23254 0.0
C1710 C 0.6375 0.18845 0.22396 0.0
C1711 C 0.64886 0.20077 0.20757 0.0
H1712 H 0.63894 0.15988 0.24604 0.0
H1713 H 0.80291 0.26503 0.14744 0.0
H1714 H 0.66943 0.06244 0.41094 0.0
H1715 H 0.68888 0.04049 0.43996 0.0
H1716 H 0.73137 0.09806 0.45394 0.0
H1717 H 0.71131 0.11981 0.42613 0.0
H1718 H 0.7358 0.06767 0.48896 0.0
H1719 H 0.71918 0.00176 0.448 0.0
H1720 H 0.69814 0.97854 0.42072 0.0
H1721 H 0.71745 0.02346 0.36779 0.0
H1722 H 0.73851 0.04695 0.39477 0.0
H1723 H 0.82319 0.0802 0.39083 0.0
H1724 H 0.80962 0.05266 0.41803 0.0
H1725 H 0.77662 0.10667 0.45438 0.0
H1726 H 0.79225 0.13399 0.42857 0.0
H1727 H 0.77315 0.03904 0.42062 0.0
H1728 H 0.75551 0.10129 0.49724 0.0
H1729 H 0.77855 0.11984 0.52619 0.0
H1730 H 0.83338 0.07434 0.51267 0.0
H1731 H 0.81062 0.05547 0.48358 0.0
C1732 C 0.68234 0.07049 0.42101 0.0
C1733 C 0.68914 0.09264 0.41633 0.0
C1734 C 0.6935 0.05796 0.43756 0.0
C1735 C 0.71237 0.06709 0.44863 0.0
C1736 C 0.71706 0.09023 0.44576 0.0
C1737 C 0.70568 0.10278 0.42962 0.0
C1738 C 0.73123 0.05241 0.45659 0.0
C1739 C 0.74431 0.0608 0.47442 0.0
C1740 C 0.74272 0.04007 0.43981 0.0
C1741 C 0.73045 0.02599 0.42336 0.0
C1742 C 0.71897 0.0066 0.43052 0.0
C1743 C 0.70702 0.99343 0.41513 0.0
C1744 C 0.70648 -0.00049 0.39253 0.0
C1745 C 0.71793 0.01874 0.38528 0.0
C1746 C 0.72993 0.03194 0.40059 0.0
C1747 C 0.81343 0.08603 0.40504 0.0
C1748 C 0.80804 0.10898 0.4074 0.0
C1749 C 0.80584 0.07034 0.42071 0.0
C1750 C 0.7918 0.07719 0.43844 0.0
C1751 C 0.78784 0.10052 0.44147 0.0
C1752 C 0.79629 0.11629 0.42634 0.0
C1753 C 0.77673 0.06057 0.44972 0.0
C1754 C 0.76549 0.04494 0.436 0.0
C1755 C 0.76743 0.06521 0.47103 0.0
C1756 C 0.7811 0.07664 0.48854 0.0
C1757 C 0.77229 0.09496 0.5007 0.0
C1758 C 0.78539 0.10565 0.51699 0.0
C1759 C 0.80727 0.09801 0.52148 0.0
C1760 C 0.81633 0.08007 0.50929 0.0
C1761 C 0.80337 0.06945 0.49281 0.0
H1762 H 0.81718 0.10603 0.53444 0.0
H1763 H 0.69718 0.98932 0.38065 0.0
H1764 H 0.88629 0.30371 0.60535 0.0
H1765 H 0.88415 0.26848 0.58552 0.0
H1766 H 0.82055 0.28874 0.55667 0.0
H1767 H 0.82132 0.32315 0.57928 0.0
H1768 H 0.81011 0.25395 0.56563 0.0
H1769 H 0.8684 0.25616 0.52346 0.0
H1770 H 0.90309 0.26359 0.50223 0.0
H1771 H 0.94262 0.23166 0.55352 0.0
H1772 H 0.90838 0.22448 0.57545 0.0
H1773 H 0.86475 0.16003 0.64166 0.0
H1774 H 0.86216 0.17254 0.60264 0.0
H1775 H 0.82135 0.22919 0.62375 0.0
H1776 H 0.82329 0.21639 0.66217 0.0
H1777 H 0.87595 0.20445 0.58 0.0
H1778 H 0.78527 0.24592 0.59625 0.0
H1779 H 0.74705 0.23133 0.60355 0.0
H1780 H 0.76756 0.16546 0.58151 0.0
H1781 H 0.80589 0.17964 0.57393 0.0
C1782 C 0.87205 0.30093 0.59427 0.0
C1783 C 0.85395 0.31619 0.5938 0.0
C1784 C 0.87093 0.28069 0.58242 0.0
C1785 C 0.85176 0.27534 0.56942 0.0
C1786 C 0.83508 0.29204 0.56688 0.0
C1787 C 0.83581 0.31202 0.57938 0.0
C1788 C 0.84664 0.25113 0.56416 0.0
C1789 C 0.82462 0.2432 0.56833 0.0
C1790 C 0.8643 0.23499 0.56372 0.0
C1791 C 0.88553 0.23955 0.55114 0.0
C1792 C 0.88446 0.25081 0.53039 0.0
C1793 C 0.90411 0.255 0.51819 0.0
C1794 C 0.92503 0.24801 0.52648 0.0
C1795 C 0.92636 0.23693 0.54705 0.0
C1796 C 0.90677 0.2327 0.55937 0.0
C1797 C 0.85523 0.17515 0.63784 0.0
C1798 C 0.84428 0.18732 0.65497 0.0
C1799 C 0.85355 0.18211 0.6155 0.0
C1800 C 0.84089 0.20135 0.60994 0.0
C1801 C 0.83037 0.21367 0.62723 0.0
C1802 C 0.83187 0.20664 0.64939 0.0
C1803 C 0.84084 0.21091 0.58695 0.0
C1804 C 0.86162 0.21526 0.57653 0.0
C1805 C 0.82152 0.22245 0.57913 0.0
C1806 C 0.79846 0.21397 0.58422 0.0
C1807 C 0.7816 0.2284 0.59267 0.0
C1808 C 0.75993 0.22016 0.59698 0.0
C1809 C 0.75485 0.19753 0.59289 0.0
C1810 C 0.77151 0.183 0.58467 0.0
C1811 C 0.79324 0.19112 0.58044 0.0
H1812 H 0.73804 0.19125 0.59616 0.0
H1813 H 0.94022 0.25123 0.51697 0.0
H1814 H 0.839 0.29356 0.90446 0.0
H1815 H 0.80469 0.27109 0.90445 0.0
H1816 H 0.7653 0.33258 0.90935 0.0
H1817 H 0.80004 0.35397 0.91467 0.0
H1818 H 0.74525 0.30728 0.93174 0.0
H1819 H 0.77442 0.29329 0.8569 0.0
H1820 H 0.80181 0.28058 0.82837 0.0
H1821 H 0.80392 0.21492 0.85855 0.0
H1822 H 0.77755 0.22765 0.88785 0.0
H1823 H 0.68136 0.30147 0.8422 0.0
H1824 H 0.71425 0.2856 0.85959 0.0
H1825 H 0.6731 0.25695 0.91196 0.0
H1826 H 0.6394 0.27393 0.8947 0.0
H1827 H 0.73249 0.24646 0.87651 0.0
H1828 H 0.69361 0.267 0.94909 0.0
H1829 H 0.66127 0.28556 0.9677 0.0
H1830 H 0.67338 0.34609 0.93035 0.0
H1831 H 0.70598 0.32801 0.91178 0.0
C1832 C 0.82293 0.30196 0.90602 0.0
C1833 C 0.82199 0.32512 0.91035 0.0
C1834 C 0.8032 0.28925 0.90541 0.0
C1835 C 0.78203 0.29994 0.90669 0.0
C1836 C 0.78126 0.32362 0.90894 0.0
C1837 C 0.80106 0.336 0.91147 0.0
C1838 C 0.76065 0.28682 0.90602 0.0
C1839 C 0.74276 0.29378 0.91984 0.0
C1840 C 0.75713 0.26847 0.89119 0.0
C1841 C 0.77404 0.26133 0.87446 0.0
C1842 C 0.781 0.27623 0.85757 0.0
C1843 C 0.79643 0.26908 0.84135 0.0
C1844 C 0.80468 0.24698 0.84174 0.0
C1845 C 0.79771 0.23206 0.85841 0.0
C1846 C 0.78255 0.23922 0.87481 0.0
C1847 C 0.67909 0.29176 0.85737 0.0
C1848 C 0.65797 0.28989 0.86772 0.0
C1849 C 0.69795 0.28218 0.86707 0.0
C1850 C 0.69623 0.27056 0.88741 0.0
C1851 C 0.67484 0.26648 0.89663 0.0
C1852 C 0.65571 0.27634 0.8869 0.0
C1853 C 0.71718 0.26863 0.90054 0.0
C1854 C 0.73565 0.25881 0.88957 0.0
C1855 C 0.72107 0.28498 0.91728 0.0
C1856 C 0.70219 0.2962 0.92916 0.0
C1857 C 0.68943 0.28432 0.945 0.0
C1858 C 0.67101 0.2947 0.95544 0.0
C1859 C 0.6652 0.31692 0.95014 0.0
C1860 C 0.67787 0.32887 0.93443 0.0
C1861 C 0.6964 0.31862 0.92405 0.0
H1862 H 0.65096 0.32491 0.95828 0.0
H1863 H 0.81634 0.24136 0.82906 0.0
H1864 H 0.25273 0.83773 0.66301 0.0
H1865 H 0.27057 0.81675 0.63252 0.0
H1866 H 0.20525 0.80553 0.60259 0.0
H1867 H 0.18728 0.82616 0.63294 0.0
H1868 H 0.25973 0.7726 0.62674 0.0
H1869 H 0.23391 0.84011 0.585 0.0
H1870 H 0.24048 0.87176 0.56026 0.0
H1871 H 0.26475 0.82715 0.50914 0.0
H1872 H 0.25905 0.79469 0.53372 0.0
H1873 H 0.16426 0.72377 0.57327 0.0
H1874 H 0.19048 0.75572 0.57227 0.0
H1875 H 0.24691 0.70943 0.57082 0.0
H1876 H 0.22069 0.67775 0.57315 0.0
H1877 H 0.22791 0.77374 0.55 0.0
H1878 H 0.28406 0.72798 0.60999 0.0
H1879 H 0.28574 0.6924 0.63166 0.0
H1880 H 0.21411 0.6953 0.64199 0.0
H1881 H 0.2121 0.73099 0.62078 0.0
C1882 C 0.2422 0.83104 0.64975 0.0
C1883 C 0.21853 0.83328 0.65052 0.0
C1884 C 0.25252 0.81945 0.63215 0.0
C1885 C 0.2394 0.81034 0.61486 0.0
C1886 C 0.21581 0.8131 0.61537 0.0
C1887 C 0.2055 0.82459 0.63293 0.0
C1888 C 0.2489 0.79359 0.59925 0.0
C1889 C 0.25402 0.77289 0.60946 0.0
C1890 C 0.24288 0.79389 0.57626 0.0
C1891 C 0.24568 0.81425 0.56161 0.0
C1892 C 0.24079 0.83646 0.56877 0.0
C1893 C 0.24433 0.85484 0.55455 0.0
C1894 C 0.25281 0.85149 0.53304 0.0
C1895 C 0.25792 0.82974 0.52571 0.0
C1896 C 0.25446 0.81129 0.53982 0.0
C1897 C 0.18226 0.72057 0.57252 0.0
C1898 C 0.19073 0.6986 0.57436 0.0
C1899 C 0.1972 0.73871 0.57156 0.0
C1900 C 0.22064 0.73486 0.57195 0.0
C1901 C 0.2289 0.71272 0.57088 0.0
C1902 C 0.214 0.69469 0.57258 0.0
C1903 C 0.23555 0.75347 0.57888 0.0
C1904 C 0.23529 0.77362 0.56663 0.0
C1905 C 0.24678 0.75272 0.59981 0.0
C1906 C 0.24793 0.73192 0.61357 0.0
C1907 C 0.26873 0.72103 0.617 0.0
C1908 C 0.26973 0.70087 0.62916 0.0
C1909 C 0.25005 0.69155 0.63806 0.0
C1910 C 0.22933 0.70246 0.63498 0.0
C1911 C 0.22826 0.72269 0.62297 0.0
H1912 H 0.25087 0.67595 0.64743 0.0
H1913 H 0.25554 0.86576 0.5221 0.0
H1914 H 0.34522 0.65242 0.88742 0.0
H1915 H 0.34158 0.67588 0.92092 0.0
H1916 H 0.27013 0.66208 0.92199 0.0
H1917 H 0.2738 0.63911 0.88831 0.0
H1918 H 0.31264 0.71403 0.91259 0.0
H1919 H 0.25681 0.65913 0.97496 0.0
H1920 H 0.26455 0.62931 1.00252 0.0
H1921 H 0.335 0.64613 1.00205 0.0
H1922 H 0.32778 0.6762 0.97456 0.0
H1923 H 0.22235 0.68517 0.8796 0.0
H1924 H 0.25246 0.70754 0.89401 0.0
H1925 H 0.22031 0.70903 0.95905 0.0
H1926 H 0.19202 0.68341 0.94485 0.0
H1927 H 0.25535 0.69828 0.97016 0.0
H1928 H 0.25235 0.76052 0.92957 0.0
H1929 H 0.24442 0.78984 0.90142 0.0
H1930 H 0.29011 0.75831 0.85552 0.0
H1931 H 0.29746 0.72813 0.88229 0.0
C1932 C 0.32901 0.65343 0.89558 0.0
C1933 C 0.30982 0.64393 0.88541 0.0
C1934 C 0.32698 0.6669 0.91467 0.0
C1935 C 0.30571 0.67066 0.92404 0.0
C1936 C 0.28687 0.65908 0.91531 0.0
C1937 C 0.28886 0.64607 0.89593 0.0
C1938 C 0.30137 0.691 0.93767 0.0
C1939 C 0.29992 0.71096 0.92518 0.0
C1940 C 0.28744 0.68876 0.95652 0.0
C1941 C 0.29166 0.67032 0.97288 0.0
C1942 C 0.27394 0.65672 0.98084 0.0
C1943 C 0.27827 0.6396 0.99638 0.0
C1944 C 0.30025 0.63583 1.00407 0.0
C1945 C 0.318 0.64902 0.99606 0.0
C1946 C 0.31379 0.66608 0.98045 0.0
C1947 C 0.22141 0.69054 0.89692 0.0
C1948 C 0.20487 0.68187 0.91128 0.0
C1949 C 0.23863 0.70413 0.90524 0.0
C1950 C 0.23943 0.71013 0.92813 0.0
C1951 C 0.22081 0.70436 0.94154 0.0
C1952 C 0.20424 0.68975 0.93337 0.0
C1953 C 0.26179 0.71534 0.93872 0.0
C1954 C 0.26769 0.70188 0.95734 0.0
C1955 C 0.2797 0.72349 0.9252 0.0
C1956 C 0.27594 0.74204 0.90859 0.0
C1957 C 0.2608 0.75973 0.91353 0.0
C1958 C 0.2563 0.77652 0.89769 0.0
C1959 C 0.267 0.77614 0.87692 0.0
C1960 C 0.28205 0.75878 0.87177 0.0
C1961 C 0.28643 0.74176 0.88736 0.0
H1962 H 0.26348 0.78921 0.86475 0.0
H1963 H 0.30352 0.6227 0.01624 0.0
H1964 H 0.34317 0.6916 0.18086 0.0
H1965 H 0.35431 0.72354 0.20347 0.0
H1966 H 0.29025 0.72119 0.23813 0.0
H1967 H 0.27839 0.69037 0.21351 0.0
H1968 H 0.29231 0.75848 0.22741 0.0
H1969 H 0.3478 0.72143 0.26433 0.0
H1970 H 0.37868 0.69568 0.27524 0.0
H1971 H 0.42439 0.73166 0.23268 0.0
H1972 H 0.39379 0.75705 0.22097 0.0
H1973 H 0.33245 0.85929 0.18051 0.0
H1974 H 0.32933 0.83957 0.21633 0.0
H1975 H 0.35665 0.77944 0.18567 0.0
H1976 H 0.3605 0.79915 0.1503 0.0
H1977 H 0.37087 0.78609 0.23213 0.0
H1978 H 0.28315 0.78442 0.19167 0.0
H1979 H 0.25011 0.80913 0.18573 0.0
H1980 H 0.26858 0.8485 0.24325 0.0
H1981 H 0.30161 0.82375 0.2497 0.0
C1982 C 0.33182 0.69746 0.19385 0.0
C1983 C 0.30994 0.68882 0.19542 0.0
C1984 C 0.3383 0.71566 0.20715 0.0
C1985 C 0.32324 0.72512 0.22284 0.0
C1986 C 0.30214 0.71467 0.22597 0.0
C1987 C 0.29537 0.69697 0.21203 0.0
C1988 C 0.32734 0.7485 0.23125 0.0
C1989 C 0.3096 0.76417 0.22903 0.0
C1990 C 0.34945 0.75676 0.23544 0.0
C1991 C 0.36833 0.74144 0.24208 0.0
C1992 C 0.36441 0.7238 0.25726 0.0
C1993 C 0.38188 0.70921 0.26354 0.0
C1994 C 0.40351 0.71212 0.25478 0.0
C1995 C 0.40765 0.72952 0.2396 0.0
C1996 C 0.3902 0.74408 0.23319 0.0
C1997 C 0.33819 0.84196 0.18157 0.0
C1998 C 0.34647 0.83062 0.16249 0.0
C1999 C 0.33635 0.83075 0.20209 0.0
C2000 C 0.34265 0.80802 0.20375 0.0
C2001 C 0.35192 0.79711 0.18494 0.0
C2002 C 0.35397 0.80832 0.16459 0.0
C2003 C 0.3367 0.79392 0.22328 0.0
C2004 C 0.35374 0.77979 0.23167 0.0
C2005 C 0.31408 0.78702 0.22548 0.0
C2006 C 0.29496 0.80249 0.22096 0.0
C2007 C 0.2802 0.79842 0.20297 0.0
C2008 C 0.26146 0.8124 0.19955 0.0
C2009 C 0.2573 0.83046 0.21404 0.0
C2010 C 0.27189 0.83457 0.23199 0.0
C2011 C 0.29064 0.82061 0.23551 0.0
H2012 H 0.24273 0.8412 0.21139 0.0
H2013 H 0.41704 0.70084 0.25968 0.0
H2014 H 0.32337 0.8348 0.40529 0.0
H2015 H 0.31907 0.8168 0.36932 0.0
H2016 H 0.33045 0.88056 0.33691 0.0
H2017 H 0.33873 0.89773 0.37302 0.0
H2018 H 0.28188 0.84257 0.36673 0.0
H2019 H 0.3165 0.87256 0.27882 0.0
H2020 H 0.34536 0.86274 0.25078 0.0
H2021 H 0.36052 0.8017 0.28624 0.0
H2022 H 0.33184 0.81128 0.31472 0.0
H2023 H 0.18765 0.87351 0.30925 0.0
H2024 H 0.22707 0.87839 0.32064 0.0
H2025 H 0.24601 0.82035 0.28106 0.0
H2026 H 0.2069 0.8164 0.2686 0.0
H2027 H 0.28051 0.84915 0.28413 0.0
H2028 H 0.22623 0.8148 0.33289 0.0
H2029 H 0.19079 0.81374 0.35457 0.0
H2030 H 0.21374 0.86889 0.39512 0.0
H2031 H 0.24892 0.87086 0.37328 0.0
C2032 C 0.32818 0.84421 0.39061 0.0
C2033 C 0.33191 0.86748 0.39212 0.0
C2034 C 0.32523 0.83401 0.36972 0.0
C2035 C 0.32296 0.84767 0.3506 0.0
C2036 C 0.33136 0.86977 0.35152 0.0
C2037 C 0.3357 0.87972 0.37233 0.0
C2038 C 0.30242 0.84435 0.33682 0.0
C2039 C 0.28186 0.84363 0.3486 0.0
C2040 C 0.30202 0.84603 0.31321 0.0
C2041 C 0.32242 0.84292 0.29924 0.0
C2042 C 0.32649 0.85738 0.28105 0.0
C2043 C 0.3427 0.85179 0.265 0.0
C2044 C 0.35489 0.8317 0.26689 0.0
C2045 C 0.35134 0.81746 0.28512 0.0
C2046 C 0.33528 0.82309 0.30135 0.0
C2047 C 0.20041 0.86224 0.30257 0.0
C2048 C 0.19446 0.84435 0.28847 0.0
C2049 C 0.22284 0.86511 0.3089 0.0
C2050 C 0.23922 0.84939 0.30207 0.0
C2051 C 0.23357 0.83262 0.2865 0.0
C2052 C 0.21125 0.83025 0.27957 0.0
C2053 C 0.26079 0.84785 0.31422 0.0
C2054 C 0.2811 0.84807 0.30223 0.0
C2055 C 0.26112 0.84485 0.33766 0.0
C2056 C 0.24016 0.84314 0.35126 0.0
C2057 C 0.22364 0.82684 0.34629 0.0
C2058 C 0.20358 0.82608 0.35859 0.0
C2059 C 0.20005 0.84118 0.37621 0.0
C2060 C 0.21651 0.85714 0.38152 0.0
C2061 C 0.23649 0.85814 0.36914 0.0
H2062 H 0.18456 0.84048 0.38578 0.0
H2063 H 0.36683 0.82698 0.25405 0.0
H2064 H 0.82911 0.13416 0.79948 0.0
H2065 H 0.81014 0.1418 0.83532 0.0
H2066 H 0.77087 0.08119 0.82704 0.0
H2067 H 0.7895 0.07398 0.79112 0.0
H2068 H 0.74563 0.11832 0.84487 0.0
H2069 H 0.81945 0.08045 0.85747 0.0
H2070 H 0.86101 0.0799 0.85439 0.0
H2071 H 0.86466 0.14353 0.88872 0.0
H2072 H 0.82312 0.14444 0.89181 0.0
H2073 H 0.70689 0.0811 0.94756 0.0
H2074 H 0.72683 0.08389 0.91196 0.0
H2075 H 0.77004 0.13537 0.93964 0.0
H2076 H 0.75063 0.13201 0.97566 0.0
H2077 H 0.79396 0.11125 0.91233 0.0
H2078 H 0.72523 0.14945 0.90576 0.0
H2079 H 0.68451 0.15739 0.90828 0.0
H2080 H 0.67074 0.10315 0.86261 0.0
H2081 H 0.71145 0.09439 0.86043 0.0
C2082 C 0.81564 0.12317 0.80486 0.0
C2083 C 0.80994 0.10414 0.79205 0.0
C2084 C 0.80509 0.12727 0.82552 0.0
C2085 C 0.789 0.11207 0.83392 0.0
C2086 C 0.78303 0.09328 0.82085 0.0
C2087 C 0.79359 0.08922 0.80029 0.0
C2088 C 0.77953 0.11442 0.85695 0.0
C2089 C 0.75609 0.11651 0.8596 0.0
C2090 C 0.79334 0.11351 0.8763 0.0
C2091 C 0.81826 0.11258 0.87477 0.0
C2092 C 0.82915 0.09432 0.8643 0.0
C2093 C 0.85269 0.09394 0.86256 0.0
C2094 C 0.86548 0.11167 0.87134 0.0
C2095 C 0.85476 0.12979 0.88194 0.0
C2096 C 0.83124 0.13023 0.88372 0.0
C2097 C 0.72091 0.09272 0.94622 0.0
C2098 C 0.72711 0.10634 0.96446 0.0
C2099 C 0.73219 0.09447 0.92575 0.0
C2100 C 0.74959 0.1103 0.92282 0.0
C2101 C 0.75661 0.12312 0.94136 0.0
C2102 C 0.74553 0.12112 0.962 0.0
C2103 C 0.75974 0.1138 0.9002 0.0
C2104 C 0.78331 0.11306 0.89764 0.0
C2105 C 0.74606 0.11682 0.88093 0.0
C2106 C 0.72144 0.12139 0.88276 0.0
C2107 C 0.71352 0.13907 0.8964 0.0
C2108 C 0.69042 0.14367 0.89784 0.0
C2109 C 0.67501 0.13081 0.88558 0.0
C2110 C 0.68269 0.11314 0.87206 0.0
C2111 C 0.70579 0.10835 0.87072 0.0
H2112 H 0.65714 0.13455 0.88655 0.0
H2113 H 0.88369 0.11135 0.86994 0.0
H2114 H 0.8461 0.32272 0.08978 0.0
H2115 H 0.84727 0.30249 0.12516 0.0
H2116 H 0.86948 0.24234 0.09093 0.0
H2117 H 0.86815 0.2626 0.05501 0.0
H2118 H 0.83631 0.23414 0.12404 0.0
H2119 H 0.90766 0.27373 0.11836 0.0
H2120 H 0.93094 0.30762 0.11233 0.0
H2121 H 0.89853 0.34048 0.16778 0.0
H2122 H 0.87487 0.30686 0.17397 0.0
H2123 H 0.87725 0.17352 0.21771 0.0
H2124 H 0.87513 0.19365 0.18213 0.0
H2125 H 0.85696 0.25478 0.21698 0.0
H2126 H 0.859 0.23472 0.25278 0.0
H2127 H 0.88691 0.26307 0.18375 0.0
H2128 H 0.81864 0.22362 0.19278 0.0
H2129 H 0.79268 0.192 0.19897 0.0
H2130 H 0.81492 0.16083 0.13796 0.0
H2131 H 0.84167 0.192 0.1317 0.0
C2132 C 0.85123 0.30517 0.08963 0.0
C2133 C 0.85728 0.29435 0.06948 0.0
C2134 C 0.85189 0.29362 0.10997 0.0
C2135 C 0.85875 0.27097 0.11079 0.0
C2136 C 0.8642 0.25985 0.09069 0.0
C2137 C 0.86354 0.27146 0.0702 0.0
C2138 C 0.86087 0.2593 0.13277 0.0
C2139 C 0.84769 0.24012 0.13697 0.0
C2140 C 0.87495 0.26779 0.15 0.0
C2141 C 0.88944 0.28784 0.14655 0.0
C2142 C 0.90545 0.28822 0.1292 0.0
C2143 C 0.91871 0.30738 0.12576 0.0
C2144 C 0.9162 0.3262 0.13964 0.0
C2145 C 0.90046 0.32589 0.15704 0.0
C2146 C 0.88715 0.30677 0.16055 0.0
C2147 C 0.87312 0.19133 0.21791 0.0
C2148 C 0.8683 0.20247 0.23818 0.0
C2149 C 0.87174 0.20278 0.19749 0.0
C2150 C 0.86554 0.22565 0.19681 0.0
C2151 C 0.86169 0.23711 0.21706 0.0
C2152 C 0.86293 0.22562 0.23754 0.0
C2153 C 0.86276 0.23744 0.17495 0.0
C2154 C 0.87567 0.25681 0.17081 0.0
C2155 C 0.84815 0.22926 0.15793 0.0
C2156 C 0.8324 0.21015 0.16187 0.0
C2157 C 0.81824 0.20994 0.18077 0.0
C2158 C 0.80329 0.19211 0.18426 0.0
C2159 C 0.80208 0.17444 0.16882 0.0
C2160 C 0.81589 0.17454 0.1499 0.0
C2161 C 0.83099 0.19229 0.14639 0.0
H2162 H 0.7905 0.16066 0.17151 0.0
H2163 H 0.92647 0.34102 0.13694 0.0
H2164 H 0.75185 0.43532 0.49017 0.0
H2165 H 0.73475 0.44457 0.45401 0.0
H2166 H 0.80091 0.45089 0.42476 0.0
H2167 H 0.81816 0.44151 0.46082 0.0
H2168 H 0.76919 0.48252 0.40749 0.0
H2169 H 0.77648 0.40304 0.42166 0.0
H2170 H 0.77115 0.36834 0.44356 0.0
H2171 H 0.69923 0.37524 0.43753 0.0
H2172 H 0.70412 0.41052 0.41617 0.0
H2173 H 0.74916 0.45435 0.29294 0.0
H2174 H 0.76179 0.45956 0.3315 0.0
H2175 H 0.69523 0.44267 0.35527 0.0
H2176 H 0.68261 0.43692 0.31674 0.0
H2177 H 0.72527 0.41848 0.37653 0.0
H2178 H 0.71812 0.49719 0.3601 0.0
H2179 H 0.72398 0.5322 0.33864 0.0
H2180 H 0.79562 0.52637 0.34819 0.0
H2181 H 0.79022 0.49115 0.36946 0.0
C2182 C 0.76281 0.43934 0.47625 0.0
C2183 C 0.78641 0.43749 0.47837 0.0
C2184 C 0.75298 0.44452 0.45553 0.0
C2185 C 0.76655 0.44811 0.4366 0.0
C2186 C 0.79011 0.44815 0.43912 0.0
C2187 C 0.79994 0.44274 0.45976 0.0
C2188 C 0.75634 0.44923 0.41383 0.0
C2189 C 0.75966 0.46852 0.40064 0.0
C2190 C 0.74367 0.43104 0.40501 0.0
C2191 C 0.74067 0.40964 0.41759 0.0
C2192 C 0.75951 0.39736 0.42524 0.0
C2193 C 0.75657 0.37757 0.43759 0.0
C2194 C 0.73487 0.36959 0.442 0.0
C2195 C 0.71604 0.38146 0.43413 0.0
C2196 C 0.71889 0.4014 0.42196 0.0
C2197 C 0.73701 0.4523 0.3063 0.0
C2198 C 0.71484 0.44516 0.30166 0.0
C2199 C 0.74428 0.45531 0.32844 0.0
C2200 C 0.72949 0.45156 0.34644 0.0
C2201 C 0.70702 0.44559 0.34175 0.0
C2202 C 0.69978 0.44245 0.31964 0.0
C2203 C 0.73788 0.45193 0.37004 0.0
C2204 C 0.73444 0.43273 0.3834 0.0
C2205 C 0.75046 0.4702 0.37894 0.0
C2206 C 0.75377 0.49142 0.36622 0.0
C2207 C 0.73514 0.50328 0.35748 0.0
C2208 C 0.73838 0.52318 0.34538 0.0
C2209 C 0.76016 0.53148 0.34202 0.0
C2210 C 0.77876 0.51992 0.3508 0.0
C2211 C 0.77561 0.5 0.3629 0.0
H2212 H 0.76264 0.54689 0.33264 0.0
H2213 H 0.73264 0.35419 0.45146 0.0
H2214 H 0.56465 0.28978 0.69562 0.0
H2215 H 0.5681 0.27872 0.65633 0.0
H2216 H 0.61849 0.22924 0.67431 0.0
H2217 H 0.61535 0.24036 0.71357 0.0
H2218 H 0.63218 0.25456 0.63975 0.0
H2219 H 0.56499 0.21371 0.65996 0.0
H2220 H 0.52631 0.20965 0.67461 0.0
H2221 H 0.50143 0.25463 0.6239 0.0
H2222 H 0.54004 0.25918 0.60912 0.0
H2223 H 0.61093 0.1698 0.55047 0.0
H2224 H 0.60242 0.18972 0.58516 0.0
H2225 H 0.61441 0.25337 0.55255 0.0
H2226 H 0.62408 0.23347 0.51781 0.0
H2227 H 0.56928 0.227 0.59227 0.0
H2228 H 0.64121 0.26964 0.5752 0.0
H2229 H 0.68104 0.2712 0.56338 0.0
H2230 H 0.69831 0.22091 0.61218 0.0
H2231 H 0.65835 0.21835 0.62357 0.0
C2232 C 0.57627 0.27635 0.69127 0.0
C2233 C 0.58975 0.26596 0.70775 0.0
C2234 C 0.5782 0.27004 0.66878 0.0
C2235 C 0.59355 0.25316 0.66238 0.0
C2236 C 0.60662 0.2424 0.67887 0.0
C2237 C 0.6047 0.24869 0.70133 0.0
C2238 C 0.59666 0.24713 0.63845 0.0
C2239 C 0.6184 0.24861 0.62933 0.0
C2240 C 0.57862 0.23974 0.62477 0.0
C2241 C 0.55543 0.23699 0.63361 0.0
C2242 C 0.5513 0.22288 0.65206 0.0
C2243 C 0.52938 0.22046 0.66036 0.0
C2244 C 0.51144 0.23193 0.65024 0.0
C2245 C 0.51536 0.24579 0.63175 0.0
C2246 C 0.53725 0.24829 0.6234 0.0
C2247 C 0.61175 0.18806 0.55055 0.0
C2248 C 0.61862 0.20001 0.53142 0.0
C2249 C 0.60695 0.19942 0.57047 0.0
C2250 C 0.60885 0.22296 0.57175 0.0
C2251 C 0.61407 0.23513 0.55229 0.0
C2252 C 0.61921 0.22374 0.53233 0.0
C2253 C 0.60486 0.23427 0.59356 0.0
C2254 C 0.58294 0.23356 0.60247 0.0
C2255 C 0.62281 0.24227 0.60713 0.0
C2256 C 0.64658 0.24302 0.59944 0.0
C2257 C 0.65332 0.2583 0.5828 0.0
C2258 C 0.67597 0.25951 0.57633 0.0
C2259 C 0.69215 0.24595 0.58682 0.0
C2260 C 0.68575 0.2313 0.60396 0.0
C2261 C 0.66307 0.22986 0.61031 0.0
H2262 H 0.70966 0.24691 0.58179 0.0
H2263 H 0.49448 0.23003 0.65669 0.0
H2264 H 0.23608 0.60074 0.47809 0.0
H2265 H 0.25451 0.58151 0.44669 0.0
H2266 H 0.23113 0.63371 0.40195 0.0
H2267 H 0.21153 0.65198 0.43282 0.0
H2268 H 0.22498 0.59556 0.3829 0.0
H2269 H 0.28762 0.63008 0.42053 0.0
H2270 H 0.31294 0.63876 0.45219 0.0
H2271 H 0.32909 0.56842 0.45903 0.0
H2272 H 0.30367 0.55932 0.42751 0.0
H2273 H 0.33412 0.58935 0.31397 0.0
H2274 H 0.31599 0.59331 0.34983 0.0
H2275 H 0.26495 0.54535 0.3302 0.0
H2276 H 0.28236 0.54266 0.29301 0.0
H2277 H 0.30595 0.57438 0.38397 0.0
H2278 H 0.21323 0.55899 0.35885 0.0
H2279 H 0.18855 0.55736 0.32558 0.0
H2280 H 0.23417 0.60027 0.28978 0.0
H2281 H 0.25898 0.60227 0.32301 0.0
C2282 C 0.2349 0.60811 0.46155 0.0
C2283 C 0.22254 0.6281 0.45801 0.0
C2284 C 0.24552 0.59714 0.44361 0.0
C2285 C 0.24433 0.60618 0.42188 0.0
C2286 C 0.23215 0.62623 0.41845 0.0
C2287 C 0.2212 0.63691 0.43623 0.0
C2288 C 0.25545 0.59484 0.40254 0.0
C2289 C 0.24271 0.59089 0.3831 0.0
C2290 C 0.27852 0.58867 0.40277 0.0
C2291 C 0.2935 0.59399 0.42193 0.0
C2292 C 0.29638 0.61645 0.42896 0.0
C2293 C 0.3108 0.62145 0.44682 0.0
C2294 C 0.32254 0.60414 0.45768 0.0
C2295 C 0.31993 0.5818 0.45065 0.0
C2296 C 0.30554 0.57671 0.43278 0.0
C2297 C 0.31929 0.57923 0.31731 0.0
C2298 C 0.30955 0.56583 0.30051 0.0
C2299 C 0.3088 0.58159 0.33801 0.0
C2300 C 0.28853 0.57029 0.34277 0.0
C2301 C 0.28006 0.55499 0.3268 0.0
C2302 C 0.29017 0.5532 0.30564 0.0
C2303 C 0.27588 0.57633 0.36361 0.0
C2304 C 0.28819 0.57888 0.38363 0.0
C2305 C 0.25257 0.58213 0.36356 0.0
C2306 C 0.23808 0.58066 0.34331 0.0
C2307 C 0.21799 0.5681 0.34388 0.0
C2308 C 0.20396 0.56712 0.32506 0.0
C2309 C 0.20981 0.57872 0.30558 0.0
C2310 C 0.22966 0.59136 0.30491 0.0
C2311 C 0.24367 0.59247 0.32373 0.0
H2312 H 0.19896 0.57791 0.29101 0.0
H2313 H 0.3337 0.60804 0.4715 0.0
H2314 H 0.38917 0.69643 0.71712 0.0
H2315 H 0.38882 0.70964 0.67851 0.0
H2316 H 0.334 0.75505 0.69384 0.0
H2317 H 0.33397 0.74159 0.73277 0.0
H2318 H 0.35282 0.70797 0.64729 0.0
H2319 H 0.34646 0.80363 0.6615 0.0
H2320 H 0.35645 0.83199 0.69 0.0
H2321 H 0.41117 0.79011 0.7126 0.0
H2322 H 0.40168 0.76165 0.68398 0.0
H2323 H 0.33988 0.76009 0.53978 0.0
H2324 H 0.33529 0.74728 0.57827 0.0
H2325 H 0.40025 0.77532 0.59537 0.0
H2326 H 0.40477 0.78844 0.55695 0.0
H2327 H 0.3728 0.78638 0.6264 0.0
H2328 H 0.38775 0.7148 0.58818 0.0
H2329 H 0.38004 0.68542 0.55987 0.0
H2330 H 0.31287 0.67743 0.58563 0.0
H2331 H 0.32033 0.70667 0.61411 0.0
C2332 C 0.37709 0.70933 0.71243 0.0
C2333 C 0.36167 0.71803 0.72814 0.0
C2334 C 0.37683 0.71675 0.69026 0.0
C2335 C 0.36139 0.73328 0.68328 0.0
C2336 C 0.34612 0.74231 0.69892 0.0
C2337 C 0.34617 0.73466 0.72115 0.0
C2338 C 0.36158 0.74094 0.6596 0.0
C2339 C 0.35707 0.72515 0.64268 0.0
C2340 C 0.36722 0.76329 0.65362 0.0
C2341 C 0.37317 0.7804 0.67073 0.0
C2342 C 0.36065 0.8005 0.67247 0.0
C2343 C 0.36623 0.8166 0.68867 0.0
C2344 C 0.38438 0.81282 0.70316 0.0
C2345 C 0.39705 0.79298 0.70143 0.0
C2346 C 0.39155 0.77684 0.68525 0.0
C2347 C 0.35333 0.76329 0.55165 0.0
C2348 C 0.37275 0.77524 0.5452 0.0
C2349 C 0.35067 0.75597 0.57377 0.0
C2350 C 0.36738 0.76032 0.58996 0.0
C2351 C 0.38696 0.77188 0.58337 0.0
C2352 C 0.38962 0.77925 0.56129 0.0
C2353 C 0.36455 0.75324 0.61381 0.0
C2354 C 0.36838 0.76922 0.63086 0.0
C2355 C 0.35861 0.73092 0.61992 0.0
C2356 C 0.35448 0.71304 0.60308 0.0
C2357 C 0.37134 0.70679 0.58774 0.0
C2358 C 0.36704 0.69014 0.5717 0.0
C2359 C 0.34597 0.6796 0.57091 0.0
C2360 C 0.32918 0.68561 0.58622 0.0
C2361 C 0.33346 0.70214 0.60236 0.0
H2362 H 0.34266 0.66673 0.55847 0.0
H2363 H 0.38867 0.8253 0.71569 0.0
H2364 H 0.20419 0.92192 0.81689 0.0
H2365 H 0.22066 0.92242 0.85444 0.0
H2366 H 0.27135 0.8745 0.83348 0.0
H2367 H 0.25487 0.87369 0.79599 0.0
H2368 H 0.25371 0.86246 0.87303 0.0
H2369 H 0.28484 0.92947 0.84074 0.0
H2370 H 0.28397 0.96608 0.82119 0.0
H2371 H 0.24316 0.99421 0.87365 0.0
H2372 H 0.24353 0.95765 0.89338 0.0
H2373 H 0.32938 0.90547 0.96783 0.0
H2374 H 0.31465 0.91054 0.92984 0.0
H2375 H 0.25036 0.88387 0.95062 0.0
H2376 H 0.26496 0.87843 0.98847 0.0
H2377 H 0.27755 0.93333 0.91059 0.0
H2378 H 0.23418 0.84886 0.91708 0.0
H2379 H 0.23891 0.81363 0.93876 0.0
H2380 H 0.31093 0.82068 0.93587 0.0
H2381 H 0.30661 0.85627 0.91477 0.0
C2382 C 0.21896 0.91163 0.8202 0.0
C2383 C 0.22825 0.89782 0.80341 0.0
C2384 C 0.22836 0.91195 0.84168 0.0
C2385 C 0.2473 0.89857 0.84674 0.0
C2386 C 0.2567 0.88491 0.82996 0.0
C2387 C 0.24732 0.88458 0.80849 0.0
C2388 C 0.25711 0.89858 0.86961 0.0
C2389 C 0.25892 0.87799 0.88114 0.0
C2390 C 0.26425 0.91874 0.88021 0.0
C2391 C 0.26404 0.94076 0.86843 0.0
C2392 C 0.27553 0.94341 0.84802 0.0
C2393 C 0.27516 0.96416 0.83692 0.0
C2394 C 0.26347 0.98244 0.84614 0.0
C2395 C 0.25218 0.98002 0.86651 0.0
C2396 C 0.25249 0.9593 0.87767 0.0
C2397 C 0.312 0.90099 0.9644 0.0
C2398 C 0.29841 0.8913 0.98109 0.0
C2399 C 0.30362 0.90396 0.9427 0.0
C2400 C 0.28156 0.89727 0.93741 0.0
C2401 C 0.26756 0.88882 0.95434 0.0
C2402 C 0.27593 0.88576 0.97596 0.0
C2403 C 0.27366 0.89741 0.9139 0.0
C2404 C 0.27226 0.91791 0.90233 0.0
C2405 C 0.26737 0.87718 0.90304 0.0
C2406 C 0.27006 0.85506 0.91426 0.0
C2407 C 0.251 0.84275 0.92091 0.0
C2408 C 0.2536 0.82289 0.93329 0.0
C2409 C 0.27518 0.81489 0.93859 0.0
C2410 C 0.29423 0.82685 0.9317 0.0
C2411 C 0.29171 0.84694 0.91967 0.0
H2412 H 0.2771 0.79943 0.94803 0.0
H2413 H 0.2632 -0.0015 0.83752 0.0
H2414 H 0.11233 0.65332 0.04394 0.0
H2415 H 0.10847 0.66644 0.08239 0.0
H2416 H 0.05776 0.71446 0.06135 0.0
H2417 H 0.06254 0.70209 0.0225 0.0
H2418 H 0.08297 0.73448 0.08831 0.0
H2419 H 0.04671 0.66355 0.09174 0.0
H2420 H 0.04142 0.62258 0.08717 0.0
H2421 H 0.09632 0.60988 0.13247 0.0
H2422 H 0.10224 0.6508 0.13698 0.0
H2423 H 0.05159 0.76217 0.19993 0.0
H2424 H 0.04897 0.74461 0.163 0.0
H2425 H 0.11123 0.70881 0.17522 0.0
H2426 H 0.114 0.72627 0.21228 0.0
H2427 H 0.07761 0.68268 0.15322 0.0
H2428 H 0.1098 0.75795 0.14948 0.0
H2429 H 0.10819 0.79917 0.15517 0.0
H2430 H 0.05207 0.80385 0.10992 0.0
H2431 H 0.05259 0.76258 0.10477 0.0
C2432 C 0.10007 0.66641 0.04752 0.0
C2433 C 0.0875 0.6765 0.03018 0.0
C2434 C 0.09782 0.6739 0.06962 0.0
C2435 C 0.0825 0.69124 0.07504 0.0
C2436 C 0.0697 0.70107 0.05773 0.0
C2437 C 0.07229 0.6939 0.03553 0.0
C2438 C 0.08052 0.69969 0.09855 0.0
C2439 C 0.08139 0.72309 0.10241 0.0
C2440 C 0.07861 0.68496 0.11717 0.0
C2441 C 0.07515 0.66029 0.11444 0.0
C2442 C 0.05783 0.65204 0.10054 0.0
C2443 C 0.05469 0.62881 0.09799 0.0
C2444 C 0.06859 0.61363 0.10944 0.0
C2445 C 0.0856 0.62166 0.12355 0.0
C2446 C 0.08888 0.64487 0.12609 0.0
C2447 C 0.06458 0.7503 0.19496 0.0
C2448 C 0.08313 0.74579 0.20904 0.0
C2449 C 0.06305 0.74031 0.17378 0.0
C2450 C 0.08008 0.72567 0.16622 0.0
C2451 C 0.09795 0.72013 0.1807 0.0
C2452 C 0.09952 0.73016 0.20188 0.0
C2453 C 0.08008 0.71726 0.14276 0.0
C2454 C 0.07899 0.69393 0.13898 0.0
C2455 C 0.0809 0.7321 0.12419 0.0
C2456 C 0.0811 0.75705 0.12692 0.0
C2457 C 0.09697 0.76771 0.1409 0.0
C2458 C 0.09624 0.7911 0.14405 0.0
C2459 C 0.08011 0.8041 0.13286 0.0
C2460 C 0.06458 0.79375 0.11858 0.0
C2461 C 0.06501 0.77035 0.11562 0.0
H2462 H 0.07965 0.8222 0.13525 0.0
H2463 H 0.06613 0.59565 0.10745 0.0
H2464 H 0.61378 0.14522 0.34006 0.0
H2465 H 0.62471 0.14685 0.3004 0.0
H2466 H 0.63691 0.07508 0.30068 0.0
H2467 H 0.62622 0.07342 0.34014 0.0
H2468 H 0.6684 0.09799 0.27503 0.0
H2469 H 0.58728 0.09456 0.28417 0.0
H2470 H 0.55055 0.10789 0.29844 0.0
H2471 H 0.55956 0.17117 0.2647 0.0
H2472 H 0.59649 0.15831 0.25047 0.0
H2473 H 0.64386 0.0624 0.16263 0.0
H2474 H 0.64785 0.06873 0.20292 0.0
H2475 H 0.63397 0.13956 0.19333 0.0
H2476 H 0.62965 0.1333 0.15316 0.0
H2477 H 0.60661 0.12127 0.22388 0.0
H2478 H 0.6848 0.11784 0.20609 0.0
H2479 H 0.72085 0.10278 0.19273 0.0
H2480 H 0.71848 0.05026 0.24194 0.0
H2481 H 0.68177 0.06435 0.25525 0.0
C2482 C 0.61918 0.1299 0.33172 0.0
C2483 C 0.61878 0.10914 0.34307 0.0
C2484 C 0.62538 0.13082 0.30908 0.0
C2485 C 0.6314 0.11102 0.2975 0.0
C2486 C 0.63232 0.09055 0.30922 0.0
C2487 C 0.62598 0.0896 0.33171 0.0
C2488 C 0.63459 0.11104 0.27279 0.0
C2489 C 0.65494 0.10292 0.26371 0.0
C2490 C 0.61709 0.1179 0.25816 0.0
C2491 C 0.5948 0.12559 0.26654 0.0
C2492 C 0.58151 0.11139 0.27996 0.0
C2493 C 0.56064 0.11885 0.28801 0.0
C2494 C 0.55276 0.1404 0.28256 0.0
C2495 C 0.56571 0.1545 0.26897 0.0
C2496 C 0.58662 0.14714 0.26091 0.0
C2497 C 0.64205 0.07939 0.16909 0.0
C2498 C 0.63631 0.09731 0.15471 0.0
C2499 C 0.64446 0.08301 0.1921 0.0
C2500 C 0.64126 0.10463 0.20118 0.0
C2501 C 0.63662 0.12275 0.18672 0.0
C2502 C 0.6343 0.11916 0.1637 0.0
C2503 C 0.64044 0.10791 0.22583 0.0
C2504 C 0.62035 0.1165 0.23497 0.0
C2505 C 0.65819 0.10115 0.24037 0.0
C2506 C 0.68023 0.09232 0.23185 0.0
C2507 C 0.69169 0.10302 0.21413 0.0
C2508 C 0.71237 0.09463 0.20651 0.0
C2509 C 0.72208 0.07573 0.21659 0.0
C2510 C 0.71099 0.06499 0.23419 0.0
C2511 C 0.69017 0.07315 0.24176 0.0
H2512 H 0.73816 0.06937 0.2107 0.0
H2513 H 0.53659 0.14614 0.2888 0.0
H2514 H 0.8516 0.11124 0.42234 0.0
H2515 H 0.84444 0.11393 0.46272 0.0
H2516 H 0.91593 0.12131 0.47444 0.0
H2517 H 0.92295 0.11846 0.43422 0.0
H2518 H 0.89858 0.08845 0.49952 0.0
H2519 H 0.87725 0.16294 0.47729 0.0
H2520 H 0.85472 0.1907 0.45625 0.0
H2521 H 0.79576 0.17236 0.49358 0.0
H2522 H 0.81727 0.14351 0.51353 0.0
H2523 H 0.87838 0.12949 0.61856 0.0
H2524 H 0.87772 0.13996 0.57873 0.0
H2525 H 0.85148 0.07428 0.56223 0.0
H2526 H 0.85194 0.06392 0.60185 0.0
H2527 H 0.84783 0.14059 0.54075 0.0
H2528 H 0.88397 0.0521 0.52236 0.0
H2529 H 0.90428 0.02185 0.54247 0.0
H2530 H 0.93357 0.07084 0.58676 0.0
H2531 H 0.91384 0.10139 0.56661 0.0
C2532 C 0.86563 0.11403 0.43351 0.0
C2533 C 0.88776 0.11461 0.42506 0.0
C2534 C 0.86158 0.11546 0.45662 0.0
C2535 C 0.87966 0.1178 0.47172 0.0
C2536 C 0.9017 0.11939 0.46319 0.0
C2537 C 0.9057 0.11782 0.44017 0.0
C2538 C 0.87607 0.11692 0.49644 0.0
C2539 C 0.8874 0.0999 0.50839 0.0
C2540 C 0.86164 0.13202 0.50822 0.0
C2541 C 0.8489 0.15036 0.49661 0.0
C2542 C 0.85937 0.16443 0.48074 0.0
C2543 C 0.84675 0.18051 0.46898 0.0
C2544 C 0.82384 0.18345 0.47358 0.0
C2545 C 0.81346 0.17015 0.48983 0.0
C2546 C 0.82584 0.15371 0.50124 0.0
C2547 C 0.87144 0.11775 0.60652 0.0
C2548 C 0.86507 0.09596 0.6133 0.0
C2549 C 0.87119 0.12368 0.58374 0.0
C2550 C 0.86473 0.10783 0.56744 0.0
C2551 C 0.85656 0.08677 0.57447 0.0
C2552 C 0.8568 0.08087 0.59712 0.0
C2553 C 0.86963 0.11167 0.54325 0.0
C2554 C 0.85886 0.12927 0.53158 0.0
C2555 C 0.88447 0.09715 0.5315 0.0
C2556 C 0.89728 0.079 0.54307 0.0
C2557 C 0.89491 0.05642 0.53625 0.0
C2558 C 0.9063 0.03923 0.54768 0.0
C2559 C 0.92016 0.04442 0.56592 0.0
C2560 C 0.92281 0.06684 0.57265 0.0
C2561 C 0.91154 0.0841 0.56123 0.0
H2562 H 0.92888 0.03107 0.57481 0.0
H2563 H 0.81419 0.19607 0.46459 0.0
H2564 H 0.83499 0.41027 0.66371 0.0
H2565 H 0.83523 0.39923 0.70344 0.0
H2566 H 0.90752 0.39052 0.70068 0.0
H2567 H 0.90723 0.40085 0.66125 0.0
H2568 H 0.89026 0.35913 0.72647 0.0
H2569 H 0.88178 0.4405 0.71921 0.0
H2570 H 0.86242 0.4752 0.70676 0.0
H2571 H 0.80304 0.45598 0.74313 0.0
H2572 H 0.822 0.42101 0.75558 0.0
H2573 H 0.93758 0.38658 0.83077 0.0
H2574 H 0.92446 0.38391 0.79215 0.0
H2575 H 0.85543 0.38869 0.81454 0.0
H2576 H 0.86856 0.39205 0.85338 0.0
H2577 H 0.86314 0.41706 0.78012 0.0
H2578 H 0.87616 0.33868 0.79339 0.0
H2579 H 0.89817 0.30616 0.80719 0.0
H2580 H 0.95073 0.3207 0.75999 0.0
H2581 H 0.92919 0.35349 0.7461 0.0
C2582 C 0.85081 0.40554 0.67154 0.0
C2583 C 0.87113 0.4068 0.65947 0.0
C2584 C 0.85098 0.39939 0.69427 0.0
C2585 C 0.87148 0.39442 0.70526 0.0
C2586 C 0.8915 0.39435 0.69275 0.0
C2587 C 0.89133 0.40044 0.67019 0.0
C2588 C 0.87275 0.39084 0.72999 0.0
C2589 C 0.88426 0.37178 0.73819 0.0
C2590 C 0.86452 0.40702 0.74547 0.0
C2591 C 0.85318 0.42804 0.73808 0.0
C2592 C 0.86454 0.44362 0.72442 0.0
C2593 C 0.85365 0.46333 0.71738 0.0
C2594 C 0.83148 0.46776 0.72409 0.0
C2595 C 0.82019 0.4525 0.7379 0.0
C2596 C 0.83099 0.43274 0.74496 0.0
C2597 C 0.91959 0.3869 0.82754 0.0
C2598 C 0.90415 0.38958 0.84522 0.0
C2599 C 0.91207 0.38518 0.80541 0.0
C2600 C 0.8889 0.38587 0.80034 0.0
C2601 C 0.87337 0.38802 0.81799 0.0
C2602 C 0.88091 0.38972 0.84022 0.0
C2603 C 0.88125 0.3857 0.77651 0.0
C2604 C 0.86858 0.40407 0.76849 0.0
C2605 C 0.88856 0.36897 0.76119 0.0
C2606 C 0.9011 0.34864 0.7688 0.0
C2607 C 0.89243 0.33497 0.78598 0.0
C2608 C 0.90484 0.31651 0.79384 0.0
C2609 C 0.92589 0.31146 0.78455 0.0
C2610 C 0.93444 0.32467 0.76719 0.0
C2611 C 0.92211 0.34317 0.75928 0.0
H2612 H 0.93562 0.29734 0.79082 0.0
H2613 H 0.82308 0.48303 0.71862 0.0
H2614 H 0.5868 0.38511 0.1069 0.0
H2615 H 0.58726 0.37233 0.06796 0.0
H2616 H 0.65762 0.39019 0.06306 0.0
H2617 H 0.65719 0.40287 0.10232 0.0
H2618 H 0.63129 0.40926 0.02964 0.0
H2619 H 0.64199 0.33597 0.06137 0.0
H2620 H 0.63428 0.30339 0.08565 0.0
H2621 H 0.5691 0.29545 0.05516 0.0
H2622 H 0.57631 0.3282 0.03083 0.0
H2623 H 0.63043 0.37437 0.91514 0.0
H2624 H 0.64211 0.37263 0.95466 0.0
H2625 H 0.57296 0.36148 0.9741 0.0
H2626 H 0.56125 0.36361 0.93483 0.0
H2627 H 0.6048 0.33588 0.99961 0.0
H2628 H 0.59052 0.41206 0.97433 0.0
H2629 H 0.59612 0.445 0.94981 0.0
H2630 H 0.66594 0.44785 0.96907 0.0
H2631 H 0.66078 0.41476 0.99353 0.0
C2632 C 0.6025 0.38579 0.09765 0.0
C2633 C 0.62198 0.39491 0.10761 0.0
C2634 C 0.60277 0.37844 0.07541 0.0
C2635 C 0.62249 0.38019 0.06253 0.0
C2636 C 0.64223 0.38858 0.07267 0.0
C2637 C 0.64203 0.39569 0.09511 0.0
C2638 C 0.62168 0.37528 0.03805 0.0
C2639 C 0.62602 0.39302 0.02309 0.0
C2640 C 0.61418 0.35428 0.02945 0.0
C2641 C 0.6097 0.33468 0.04427 0.0
C2642 C 0.62596 0.32741 0.05989 0.0
C2643 C 0.62168 0.30887 0.07367 0.0
C2644 C 0.6012 0.29736 0.07196 0.0
C2645 C 0.58497 0.30437 0.05646 0.0
C2646 C 0.58917 0.32291 0.04264 0.0
C2647 C 0.61786 0.37097 0.92784 0.0
C2648 C 0.59492 0.36919 0.92198 0.0
C2649 C 0.62452 0.37008 0.95038 0.0
C2650 C 0.60837 0.36708 0.96735 0.0
C2651 C 0.58571 0.36374 0.96132 0.0
C2652 C 0.57902 0.36501 0.9389 0.0
C2653 C 0.61439 0.36983 0.99141 0.0
C2654 C 0.61066 0.35187 1.00624 0.0
C2655 C 0.62228 0.39064 0.99998 0.0
C2656 C 0.62538 0.41065 0.98541 0.0
C2657 C 0.60713 0.41955 0.97314 0.0
C2658 C 0.6102 0.43829 0.9593 0.0
C2659 C 0.63141 0.44843 0.95778 0.0
C2660 C 0.64955 0.43991 0.97018 0.0
C2661 C 0.64656 0.42115 0.98403 0.0
H2662 H 0.63376 0.46295 0.94707 0.0
H2663 H 0.59792 0.283 0.08263 0.0
H2664 H 0.10466 0.65825 0.66857 0.0
H2665 H 0.11053 0.66609 0.70851 0.0
H2666 H 0.11744 0.59473 0.72115 0.0
H2667 H 0.11123 0.58689 0.68148 0.0
H2668 H 0.08703 0.61303 0.74804 0.0
H2669 H 0.16305 0.63235 0.72464 0.0
H2670 H 0.18953 0.65357 0.70086 0.0
H2671 H 0.16348 0.71601 0.72668 0.0
H2672 H 0.13709 0.69517 0.7509 0.0
H2673 H 0.12386 0.60098 0.85611 0.0
H2674 H 0.12873 0.60467 0.8157 0.0
H2675 H 0.10819 0.67441 0.81937 0.0
H2676 H 0.10342 0.67078 0.8602 0.0
H2677 H 0.14366 0.66264 0.78429 0.0
H2678 H 0.07024 0.6422 0.81091 0.0
H2679 H 0.04279 0.62053 0.83308 0.0
H2680 H 0.0613 0.5601 0.79785 0.0
H2681 H 0.0899 0.58101 0.77664 0.0
C2682 C 0.10792 0.64431 0.67984 0.0
C2683 C 0.10733 0.62194 0.67195 0.0
C2684 C 0.11127 0.6488 0.70267 0.0
C2685 C 0.1144 0.631 0.71792 0.0
C2686 C 0.1149 0.60875 0.70979 0.0
C2687 C 0.11136 0.60427 0.68711 0.0
C2688 C 0.11529 0.63505 0.74253 0.0
C2689 C 0.09961 0.62368 0.75594 0.0
C2690 C 0.13107 0.64972 0.75283 0.0
C2691 C 0.148 0.6622 0.73947 0.0
C2692 C 0.16305 0.65061 0.72533 0.0
C2693 C 0.1781 0.66258 0.71183 0.0
C2694 C 0.17836 0.68613 0.71244 0.0
C2695 C 0.16354 0.69776 0.72652 0.0
C2696 C 0.14858 0.68589 0.7402 0.0
C2697 C 0.12101 0.61729 0.8484 0.0
C2698 C 0.11299 0.63552 0.86119 0.0
C2699 C 0.12384 0.61939 0.82533 0.0
C2700 C 0.11854 0.63972 0.81448 0.0
C2701 C 0.11238 0.65858 0.82742 0.0
C2702 C 0.10965 0.6565 0.8507 0.0
C2703 C 0.11603 0.63976 0.78972 0.0
C2704 C 0.13114 0.65202 0.77634 0.0
C2705 C 0.09967 0.62587 0.7793 0.0
C2706 C 0.08255 0.61317 0.7924 0.0
C2707 C 0.06885 0.62419 0.80826 0.0
C2708 C 0.05309 0.612 0.82073 0.0
C2709 C 0.05046 0.58887 0.81711 0.0
C2710 C 0.06358 0.57791 0.80099 0.0
C2711 C 0.07966 0.58991 0.7888 0.0
H2712 H 0.03816 0.57947 0.82667 0.0
H2713 H 0.18997 0.69536 0.70192 0.0
H2714 H 0.35741 0.61749 0.09189 0.0
H2715 H 0.3532 0.62604 0.05178 0.0
H2716 H 0.42366 0.64389 0.04849 0.0
H2717 H 0.42789 0.63533 0.08824 0.0
H2718 H 0.39975 0.67245 0.02428 0.0
H2719 H 0.40298 0.59135 0.03345 0.0
H2720 H 0.38995 0.55464 0.04779 0.0
H2721 H 0.32599 0.56409 0.01511 0.0
H2722 H 0.33861 0.60095 1.00073 0.0
H2723 H 0.43698 0.64905 0.91412 0.0
H2724 H 0.42822 0.65467 0.95367 0.0
H2725 H 0.35961 0.63339 0.94159 0.0
H2726 H 0.36915 0.6258 0.90248 0.0
H2727 H 0.37499 0.6109 0.97377 0.0
H2728 H 0.37668 0.69085 0.95913 0.0
H2729 H 0.39264 0.72667 0.94534 0.0
H2730 H 0.45026 0.71855 0.98794 0.0
H2731 H 0.43515 0.68246 1.00174 0.0
C2732 C 0.37184 0.62361 0.08261 0.0
C2733 C 0.393 0.62565 0.09306 0.0
C2734 C 0.36946 0.62842 0.05974 0.0
C2735 C 0.38812 0.63554 0.04708 0.0
C2736 C 0.40898 0.63851 0.05785 0.0
C2737 C 0.41142 0.63351 0.08054 0.0
C2738 C 0.3866 0.63871 0.02242 0.0
C2739 C 0.39436 0.65901 0.01316 0.0
C2740 C 0.37904 0.62139 1.00794 0.0
C2741 C 0.37156 0.59912 0.0164 0.0
C2742 C 0.38606 0.58569 0.0295 0.0
C2743 C 0.37877 0.56483 0.03759 0.0
C2744 C 0.35711 0.55709 0.03247 0.0
C2745 C 0.34273 0.57015 0.01915 0.0
C2746 C 0.34994 0.59103 1.01104 0.0
C2747 C 0.41989 0.64616 0.91985 0.0
C2748 C 0.40352 0.6376 0.9051 0.0
C2749 C 0.41478 0.64959 0.94246 0.0
C2750 C 0.39307 0.64489 0.95074 0.0
C2751 C 0.37642 0.6374 0.93569 0.0
C2752 C 0.38169 0.63351 0.91319 0.0
C2753 C 0.38878 0.64454 0.97535 0.0
C2754 C 0.37989 0.62468 0.98469 0.0
C2755 C 0.39569 0.66216 0.98987 0.0
C2756 C 0.40479 0.68385 0.98141 0.0
C2757 C 0.39284 0.69659 0.96545 0.0
C2758 C 0.40169 0.71697 0.95766 0.0
C2759 C 0.42232 0.72489 0.96575 0.0
C2760 C 0.43424 0.71242 0.98169 0.0
C2761 C 0.42556 0.69201 0.98952 0.0
H2762 H 0.42906 0.74068 0.95964 0.0
H2763 H 0.35149 0.54093 0.03875 0.0
H2764 H 0.43649 0.88477 0.17399 0.0
H2765 H 0.43554 0.87234 0.21296 0.0
H2766 H 0.36299 0.87871 0.21321 0.0
H2767 H 0.36386 0.89129 0.17404 0.0
H2768 H 0.38316 0.89985 0.24917 0.0
H2769 H 0.38642 0.82861 0.21325 0.0
H2770 H 0.40008 0.79824 0.18846 0.0
H2771 H 0.46289 0.79609 0.22423 0.0
H2772 H 0.44989 0.8268 0.24892 0.0
H2773 H 0.37976 0.8632 0.36075 0.0
H2774 H 0.37178 0.86074 0.32062 0.0
H2775 H 0.44291 0.85279 0.30736 0.0
H2776 H 0.45083 0.85414 0.34743 0.0
H2777 H 0.41845 0.82948 0.27767 0.0
H2778 H 0.41757 0.90443 0.30936 0.0
H2779 H 0.40393 0.93334 0.3358 0.0
H2780 H 0.33722 0.9283 0.30802 0.0
H2781 H 0.35048 0.89931 0.28148 0.0
C2782 C 0.42033 0.88353 0.18234 0.0
C2783 C 0.40026 0.88924 0.17105 0.0
C2784 C 0.41979 0.8762 0.20454 0.0
C2785 C 0.39919 0.87448 0.21596 0.0
C2786 C 0.37906 0.87988 0.20468 0.0
C2787 C 0.37957 0.88699 0.18233 0.0
C2788 C 0.399 0.86841 0.24006 0.0
C2789 C 0.3905 0.88426 0.25537 0.0
C2790 C 0.40905 0.84828 0.24816 0.0
C2791 C 0.41719 0.83021 0.23286 0.0
C2792 C 0.40324 0.82188 0.21568 0.0
C2793 C 0.41084 0.80455 0.20167 0.0
C2794 C 0.43229 0.79524 0.20478 0.0
C2795 C 0.44625 0.80331 0.22184 0.0
C2796 C 0.43878 0.8207 0.23584 0.0
C2797 C 0.39359 0.86013 0.34937 0.0
C2798 C 0.41598 0.85942 0.35726 0.0
C2799 C 0.38904 0.859 0.3264 0.0
C2800 C 0.40683 0.85737 0.31096 0.0
C2801 C 0.42893 0.85439 0.31893 0.0
C2802 C 0.43345 0.8553 0.34186 0.0
C2803 C 0.40296 0.86105 0.28667 0.0
C2804 C 0.41091 0.84492 0.27138 0.0
C2805 C 0.3926 0.88102 0.27854 0.0
C2806 C 0.38488 0.89927 0.29377 0.0
C2807 C 0.39996 0.90938 0.30897 0.0
C2808 C 0.39231 0.92582 0.32396 0.0
C2809 C 0.36968 0.93254 0.3237 0.0
C2810 C 0.35471 0.92299 0.3083 0.0
C2811 C 0.36228 0.90653 0.29329 0.0
H2812 H 0.36377 0.94524 0.33534 0.0
H2813 H 0.43809 0.78176 0.19397 0.0
H2814 H 0.11919 0.88901 0.40167 0.0
H2815 H 0.12957 0.88576 0.44123 0.0
H2816 H 0.0812 0.83202 0.44917 0.0
H2817 H 0.07036 0.83591 0.40965 0.0
H2818 H 0.07473 0.86206 0.47985 0.0
H2819 H 0.14008 0.82503 0.45172 0.0
H2820 H 0.17313 0.82106 0.42705 0.0
H2821 H 0.20449 0.87792 0.45881 0.0
H2822 H 0.1711 0.88313 0.4828 0.0
H2823 H 0.10089 0.85296 0.59502 0.0
H2824 H 0.10138 0.84109 0.55564 0.0
H2825 H 0.13679 0.90201 0.53805 0.0
H2826 H 0.13563 0.91421 0.57739 0.0
H2827 H 0.15142 0.86185 0.51339 0.0
H2828 H 0.08372 0.90365 0.53332 0.0
H2829 H 0.04993 0.91085 0.55632 0.0
H2830 H 0.02425 0.84522 0.53973 0.0
H2831 H 0.05813 0.83751 0.51691 0.0
C2832 C 0.11135 0.87604 0.41175 0.0
C2833 C 0.09429 0.86244 0.40264 0.0
C2834 C 0.11726 0.87416 0.43438 0.0
C2835 C 0.10636 0.85847 0.44831 0.0
C2836 C 0.08994 0.8442 0.43885 0.0
C2837 C 0.08388 0.84625 0.41625 0.0
C2838 C 0.11033 0.85866 0.47303 0.0
C2839 C 0.09153 0.86146 0.4871 0.0
C2840 C 0.13227 0.85838 0.48269 0.0
C2841 C 0.15284 0.85467 0.46891 0.0
C2842 C 0.15387 0.8369 0.45328 0.0
C2843 C 0.17263 0.8345 0.43932 0.0
C2844 C 0.19082 0.84931 0.4413 0.0
C2845 C 0.19031 0.86654 0.45723 0.0
C2846 C 0.17141 0.8693 0.47094 0.0
C2847 C 0.10928 0.86348 0.58279 0.0
C2848 C 0.11832 0.88441 0.5891 0.0
C2849 C 0.10957 0.85671 0.56033 0.0
C2850 C 0.11918 0.87062 0.5439 0.0
C2851 C 0.12948 0.89091 0.55047 0.0
C2852 C 0.12878 0.8979 0.57287 0.0
C2853 C 0.11589 0.86559 0.51971 0.0
C2854 C 0.13472 0.86196 0.50592 0.0
C2855 C 0.09403 0.86519 0.51016 0.0
C2856 C 0.07356 0.8699 0.52364 0.0
C2857 C 0.07095 0.89069 0.53473 0.0
C2858 C 0.05177 0.89488 0.54771 0.0
C2859 C 0.03498 0.87848 0.54954 0.0
C2860 C 0.0373 0.85789 0.53833 0.0
C2861 C 0.05648 0.8536 0.52538 0.0
H2862 H 0.02013 0.88174 0.55959 0.0
H2863 H 0.20542 0.84734 0.43065 0.0
H2864 H 0.56678 0.07748 0.08073 0.0
H2865 H 0.53541 0.05113 0.07722 0.0
H2866 H 0.5716 0.00259 0.11744 0.0
H2867 H 0.60352 0.02858 0.12031 0.0
H2868 H 0.54937 0.98217 0.08344 0.0
H2869 H 0.53208 0.03702 0.14059 0.0
H2870 H 0.52672 0.07536 0.15579 0.0
H2871 H 0.47439 0.08798 0.10753 0.0
H2872 H 0.47967 0.04979 0.09183 0.0
H2873 H 0.4635 0.91716 0.13246 0.0
H2874 H 0.49466 0.94252 0.12395 0.0
H2875 H 0.45041 0.98304 0.08288 0.0
H2876 H 0.41884 0.95771 0.09168 0.0
H2877 H 0.4753 0.00843 0.11233 0.0
H2878 H 0.48995 0.95104 0.05831 0.0
H2879 H 0.49525 0.91218 0.04448 0.0
H2880 H 0.55242 0.90372 0.08798 0.0
H2881 H 0.54727 0.94242 0.10233 0.0
C2882 C 0.56835 0.06099 0.08838 0.0
C2883 C 0.58768 0.05515 0.10086 0.0
C2884 C 0.55027 0.04604 0.08655 0.0
C2885 C 0.55101 0.02504 0.09736 0.0
C2886 C 0.57063 0.01876 0.10904 0.0
C2887 C 0.58878 0.03368 0.11081 0.0
C2888 C 0.53094 0.01013 0.09753 0.0
C2889 C 0.53321 0.98785 0.08987 0.0
C2890 C 0.5097 0.01773 0.10541 0.0
C2891 C 0.50645 0.04066 0.11487 0.0
C2892 C 0.51956 0.04804 0.1331 0.0
C2893 C 0.51651 0.06973 0.14183 0.0
C2894 C 0.50027 0.08412 0.13259 0.0
C2895 C 0.487 0.07683 0.11464 0.0
C2896 C 0.49 0.05516 0.10583 0.0
C2897 C 0.46037 0.93149 0.12163 0.0
C2898 C 0.43869 0.9356 0.11289 0.0
C2899 C 0.47826 0.94583 0.11659 0.0
C2900 C 0.47491 0.96454 0.10261 0.0
C2901 C 0.45335 0.96862 0.09363 0.0
C2902 C 0.43539 0.95413 0.09858 0.0
C2903 C 0.4938 0.98037 0.09853 0.0
C2904 C 0.49134 0.00283 0.10552 0.0
C2905 C 0.51488 0.97288 0.09017 0.0
C2906 C 0.51812 0.94961 0.0815 0.0
C2907 C 0.50356 0.94084 0.06505 0.0
C2908 C 0.50655 0.91885 0.0571 0.0
C2909 C 0.52414 0.90548 0.06537 0.0
C2910 C 0.5388 0.91409 0.08159 0.0
C2911 C 0.53587 0.93607 0.08962 0.0
H2912 H 0.52643 0.88845 0.0592 0.0
H2913 H 0.49794 0.1009 0.13937 0.0
H2914 H 0.90342 0.04761 0.34918 0.0
H2915 H 0.9269 0.01382 0.34524 0.0
H2916 H 0.97891 0.04507 0.38523 0.0
H2917 H 0.95523 0.0787 0.38962 0.0
H2918 H 0.96612 0.00402 0.32823 0.0
H2919 H 0.00475 0.00637 0.41761 0.0
H2920 H 0.99464 0.02011 0.4553 0.0
H2921 H 0.92423 0.01511 0.4389 0.0
H2922 H 0.9339 0.00102 0.40125 0.0
H2923 H 0.05998 0.93063 0.33516 0.0
H2924 H 0.03359 0.96232 0.33616 0.0
H2925 H 0.99214 0.92645 0.38356 0.0
H2926 H 0.01892 0.89485 0.383 0.0
H2927 H 0.99639 0.9676 0.39677 0.0
H2928 H 0.97636 0.93348 0.32743 0.0
H2929 H 0.98257 0.91715 0.28996 0.0
H2930 H 0.00853 0.9805 0.26671 0.0
H2931 H 0.00276 0.99713 0.30414 0.0
C2932 C 0.92 0.04737 0.35686 0.0
C2933 C 0.92749 0.06572 0.36979 0.0
C2934 C 0.93338 0.02804 0.35464 0.0
C2935 C 0.95451 0.02673 0.36525 0.0
C2936 C 0.96244 0.04547 0.37732 0.0
C2937 C 0.94897 0.0647 0.37976 0.0
C2938 C 0.96794 0.00555 0.36421 0.0
C2939 C 0.97275 0.99605 0.34321 0.0
C2940 C 0.97607 0.99477 0.38378 0.0
C2941 C 0.97008 0.00285 0.40654 0.0
C2942 C 0.98711 0.0081 0.42209 0.0
C2943 C 0.98146 0.01597 0.44344 0.0
C2944 C 0.95881 0.01855 0.44946 0.0
C2945 C 0.94176 0.01318 0.43418 0.0
C2946 C 0.94732 0.00527 0.41284 0.0
C2947 C 0.04506 0.92936 0.34553 0.0
C2948 C 0.04139 0.91021 0.35888 0.0
C2949 C 0.02996 0.94749 0.34609 0.0
C2950 C 0.01067 0.94669 0.3597 0.0
C2951 C 0.00689 0.92747 0.37292 0.0
C2952 C 0.02215 0.90943 0.37257 0.0
C2953 C 0.99496 0.96627 0.36075 0.0
C2954 C 0.98974 0.9755 0.38177 0.0
C2955 C 0.98588 0.97639 0.34123 0.0
C2956 C 0.98929 0.96649 0.31865 0.0
C2957 C 0.98354 0.94388 0.31437 0.0
C2958 C 0.98696 0.93458 0.29313 0.0
C2959 C 0.99599 0.94777 0.27598 0.0
C2960 C 0.00156 0.9703 0.28002 0.0
C2961 C 0.99819 0.97968 0.30124 0.0
H2962 H -0.00137 0.94053 0.25955 0.0
H2963 H 0.95447 0.02468 0.46598 0.0
H2964 H 0.03834 0.60274 0.59648 0.0
H2965 H 0.00717 0.57658 0.58978 0.0
H2966 H 0.03804 0.5283 0.63438 0.0
H2967 H 0.06949 0.55432 0.64093 0.0
H2968 H 0.02276 0.50897 0.59473 0.0
H2969 H 0.99472 0.55912 0.65209 0.0
H2970 H 0.9853 0.59619 0.66842 0.0
H2971 H 0.93987 0.60956 0.61392 0.0
H2972 H 0.94927 0.57268 0.59708 0.0
H2973 H 0.93503 0.43626 0.62503 0.0
H2974 H 0.96581 0.46316 0.622 0.0
H2975 H 0.92382 0.50672 0.58164 0.0
H2976 H 0.89242 0.4799 0.58529 0.0
H2977 H 0.94405 0.52999 0.61416 0.0
H2978 H 0.96893 0.47822 0.55864 0.0
H2979 H 0.97813 0.44114 0.54224 0.0
H2980 H 0.02928 0.43081 0.59222 0.0
H2981 H 0.02018 0.46769 0.60914 0.0
C2982 C 0.03857 0.58648 0.60473 0.0
C2983 C 0.05637 0.58054 0.61921 0.0
C2984 C 0.02068 0.57163 0.60099 0.0
C2985 C 0.02025 0.55056 0.61166 0.0
C2986 C 0.03808 0.54449 0.62598 0.0
C2987 C 0.05592 0.55941 0.62984 0.0
C2988 C 0.00111 0.5349 0.60806 0.0
C2989 C 0.00556 0.51345 0.59913 0.0
C2990 C 0.97859 0.54111 0.61307 0.0
C2991 C 0.9729 0.56326 0.6232 0.0
C2992 C 0.98287 0.57005 0.64348 0.0
C2993 C 0.97751 0.59101 0.65285 0.0
C2994 C 0.96205 0.60525 0.64218 0.0
C2995 C 0.95187 0.59853 0.62214 0.0
C2996 C 0.9572 0.5776 0.61269 0.0
C2997 C 0.93234 0.45152 0.61542 0.0
C2998 C 0.91123 0.45612 0.60561 0.0
C2999 C 0.95006 0.46679 0.61349 0.0
C3000 C 0.94724 0.48689 0.60141 0.0
C3001 C 0.92638 0.49127 0.59099 0.0
C3002 C 0.90853 0.47592 0.59295 0.0
C3003 C 0.96569 0.50381 0.60117 0.0
C3004 C 0.96116 0.52554 0.6094 0.0
C3005 C 0.98813 0.49788 0.59542 0.0
C3006 C 0.99376 0.47569 0.58524 0.0
C3007 C 0.98204 0.46798 0.56624 0.0
C3008 C 0.98725 0.447 0.55683 0.0
C3009 C 0.00425 0.43361 0.56621 0.0
C3010 C 0.01611 0.4412 0.58498 0.0
C3011 C 0.01095 0.46216 0.59446 0.0
H3012 H 0.00826 0.41737 0.5589 0.0
H3013 H 0.95791 0.62147 0.64946 0.0
H3014 H 0.46439 0.59042 0.83025 0.0
H3015 H 0.48882 0.55683 0.83096 0.0
H3016 H 0.45631 0.53461 0.89162 0.0
H3017 H 0.43221 0.56793 0.89108 0.0
H3018 H 0.50048 0.52971 0.89524 0.0
H3019 H 0.44356 0.51172 0.8401 0.0
H3020 H 0.42144 0.51776 0.8056 0.0
H3021 H 0.48223 0.51551 0.76658 0.0
H3022 H 0.50474 0.50975 0.80092 0.0
H3023 H 0.5286 0.41367 0.89941 0.0
H3024 H 0.50732 0.44892 0.89547 0.0
H3025 H 0.54866 0.46761 0.83914 0.0
H3026 H 0.57035 0.4328 0.84327 0.0
H3027 H 0.50286 0.47555 0.8319 0.0
H3028 H 0.55937 0.49083 0.88734 0.0
H3029 H 0.58084 0.48337 0.92196 0.0
H3030 H 0.52017 0.49004 0.96067 0.0
H3031 H 0.49825 0.49715 0.92622 0.0
C3032 C 0.46253 0.57831 0.84368 0.0
C3033 C 0.44661 0.5819 0.86073 0.0
C3034 C 0.47643 0.55916 0.84408 0.0
C3035 C 0.47433 0.54318 0.86134 0.0
C3036 C 0.45839 0.54679 0.87828 0.0
C3037 C 0.44466 0.56589 0.87796 0.0
C3038 C 0.48847 0.52249 0.86191 0.0
C3039 C 0.50084 0.5178 0.88145 0.0
C3040 C 0.48936 0.50718 0.84373 0.0
C3041 C 0.47585 0.51057 0.82309 0.0
C3042 C 0.45222 0.51269 0.82418 0.0
C3043 C 0.43961 0.51603 0.80466 0.0
C3044 C 0.45043 0.51709 0.78392 0.0
C3045 C 0.47388 0.51473 0.78266 0.0
C3046 C 0.48657 0.51142 0.80214 0.0
C3047 C 0.53321 0.42531 0.88624 0.0
C3048 C 0.55116 0.42037 0.87165 0.0
C3049 C 0.521 0.44538 0.88396 0.0
C3050 C 0.52655 0.46087 0.86709 0.0
C3051 C 0.54407 0.4558 0.85219 0.0
C3052 C 0.55636 0.43582 0.85453 0.0
C3053 C 0.51444 0.48266 0.86534 0.0
C3054 C 0.50256 0.48757 0.8456 0.0
C3055 C 0.51392 0.49814 0.88336 0.0
C3056 C 0.52713 0.49432 0.90417 0.0
C3057 C 0.55058 0.49056 0.90322 0.0
C3058 C 0.56283 0.4864 0.92281 0.0
C3059 C 0.55187 0.48618 0.9435 0.0
C3060 C 0.52864 0.49019 0.94463 0.0
C3061 C 0.51629 0.4943 0.92508 0.0
H3062 H 0.56138 0.48293 0.95864 0.0
H3063 H 0.44064 0.51967 0.76882 0.0
H3064 H 0.59397 0.47065 0.12582 0.0
H3065 H 0.56369 0.49876 0.12815 0.0
H3066 H 0.53827 0.46654 0.18764 0.0
H3067 H 0.56861 0.4383 0.18537 0.0
H3068 H 0.50469 0.47558 0.15568 0.0
H3069 H 0.56422 0.51527 0.19302 0.0
H3070 H 0.60262 0.53059 0.19747 0.0
H3071 H 0.5935 0.57127 0.1387 0.0
H3072 H 0.55514 0.55594 0.1337 0.0
H3073 H 0.42222 0.56137 0.17362 0.0
H3074 H 0.45356 0.53502 0.17944 0.0
H3075 H 0.49105 0.5677 0.12686 0.0
H3076 H 0.46045 0.59476 0.12182 0.0
H3077 H 0.51855 0.55801 0.15917 0.0
H3078 H 0.46159 0.51665 0.11914 0.0
H3079 H 0.42365 0.50093 0.11252 0.0
H3080 H 0.42832 0.4631 0.17363 0.0
H3081 H 0.46619 0.47884 0.18075 0.0
C3082 C 0.58199 0.46963 0.13946 0.0
C3083 C 0.58368 0.45228 0.15543 0.0
C3084 C 0.56476 0.48576 0.14083 0.0
C3085 C 0.54877 0.48483 0.15813 0.0
C3086 C 0.55046 0.46761 0.17418 0.0
C3087 C 0.56788 0.45159 0.17296 0.0
C3088 C 0.5299 0.50146 0.15892 0.0
C3089 C 0.50766 0.49359 0.15687 0.0
C3090 C 0.53383 0.52498 0.15988 0.0
C3091 C 0.55686 0.5343 0.16288 0.0
C3092 C 0.57046 0.52734 0.18094 0.0
C3093 C 0.59221 0.53606 0.18358 0.0
C3094 C 0.60051 0.55186 0.16835 0.0
C3095 C 0.58705 0.55902 0.15048 0.0
C3096 C 0.5653 0.55034 0.14774 0.0
C3097 C 0.43725 0.56316 0.1635 0.0
C3098 C 0.43861 0.5801 0.14706 0.0
C3099 C 0.4551 0.54789 0.16668 0.0
C3100 C 0.4746 0.54904 0.15331 0.0
C3101 C 0.4762 0.56631 0.13733 0.0
C3102 C 0.4585 0.58165 0.13428 0.0
C3103 C 0.49324 0.5322 0.15561 0.0
C3104 C 0.51548 0.54 0.15821 0.0
C3105 C 0.48934 0.50861 0.15486 0.0
C3106 C 0.4666 0.49912 0.15061 0.0
C3107 C 0.45445 0.50511 0.13125 0.0
C3108 C 0.43297 0.49618 0.1274 0.0
C3109 C 0.42355 0.48108 0.14268 0.0
C3110 C 0.43562 0.47483 0.16183 0.0
C3111 C 0.45709 0.48374 0.16578 0.0
H3112 H 0.40692 0.47417 0.13966 0.0
H3113 H 0.61735 0.55859 0.17043 0.0
H3114 H 0.59064 0.04392 0.37651 0.0
H3115 H 0.56595 0.01183 0.38302 0.0
H3116 H 0.5268 0.05141 0.42964 0.0
H3117 H 0.55097 0.08411 0.42237 0.0
H3118 H 0.55569 0.98686 0.4175 0.0
H3119 H 0.47151 0.03498 0.42581 0.0
H3120 H 0.45423 0.07107 0.41414 0.0
H3121 H 0.49793 0.07339 0.3569 0.0
H3122 H 0.51523 0.0372 0.36809 0.0
H3123 H 0.46966 0.90507 0.43954 0.0
H3124 H 0.49387 0.93844 0.44256 0.0
H3125 H 0.47299 0.9595 0.37657 0.0
H3126 H 0.44807 0.92709 0.37392 0.0
H3127 H 0.47358 0.99438 0.40279 0.0
H3128 H 0.52466 0.93289 0.38683 0.0
H3129 H 0.54274 0.89594 0.39345 0.0
H3130 H 0.56668 0.91885 0.45741 0.0
H3131 H 0.54849 0.95586 0.45126 0.0
C3132 C 0.57663 0.04594 0.38797 0.0
C3133 C 0.57251 0.06675 0.39858 0.0
C3134 C 0.5627 0.02744 0.39192 0.0
C3135 C 0.54436 0.02922 0.40664 0.0
C3136 C 0.54067 0.04971 0.41796 0.0
C3137 C 0.55457 0.06834 0.41391 0.0
C3138 C 0.52871 0.00984 0.40917 0.0
C3139 C 0.5377 0.98855 0.41449 0.0
C3140 C 0.50527 0.01192 0.40498 0.0
C3141 C 0.49484 0.03356 0.39796 0.0
C3142 C 0.47738 0.04319 0.41072 0.0
C3143 C 0.46759 0.06365 0.40418 0.0
C3144 C 0.47504 0.07455 0.38484 0.0
C3145 C 0.49223 0.06497 0.37193 0.0
C3146 C 0.50205 0.0445 0.37838 0.0
C3147 C 0.47017 0.91689 0.42574 0.0
C3148 C 0.45717 0.91317 0.40635 0.0
C3149 C 0.48412 0.93588 0.42742 0.0
C3150 C 0.48544 0.95139 0.40969 0.0
C3151 C 0.47231 0.94779 0.39047 0.0
C3152 C 0.4583 0.929 0.38884 0.0
C3153 C 0.50061 0.97131 0.41076 0.0
C3154 C 0.49151 0.99274 0.40621 0.0
C3155 C 0.52404 0.96923 0.415 0.0
C3156 C 0.535 0.94702 0.4187 0.0
C3157 C 0.53364 0.92997 0.40237 0.0
C3158 C 0.54392 0.90904 0.40603 0.0
C3159 C 0.55579 0.90503 0.42587 0.0
C3160 C 0.55744 0.92197 0.44207 0.0
C3161 C 0.54716 0.94293 0.43851 0.0
H3162 H 0.56374 0.88881 0.42867 0.0
H3163 H 0.46746 0.0904 0.37982 0.0
H3164 H 0.05542 0.91107 0.66535 0.0
H3165 H 0.02193 0.93481 0.6697 0.0
H3166 H 0.04713 0.98 0.619 0.0
H3167 H 0.08045 0.95588 0.6142 0.0
H3168 H 0.01439 0.97526 0.68271 0.0
H3169 H 0.00434 0.0035 0.59005 0.0
H3170 H 0.01264 0.98876 0.5523 0.0
H3171 H 0.00955 0.9209 0.57719 0.0
H3172 H 0.00095 0.93521 0.61498 0.0
H3173 H 0.93679 0.06625 0.67828 0.0
H3174 H 0.96932 0.04091 0.67543 0.0
H3175 H 0.93022 0.99548 0.63431 0.0
H3176 H 0.89804 0.02143 0.63632 0.0
H3177 H 0.9687 -0.00172 0.6169 0.0
H3178 H 0.94465 0.98476 0.69177 0.0
H3179 H 0.9334 0.99431 0.73036 0.0
H3180 H -0.00144 0.0235 0.74244 0.0
H3181 H 0.0101 0.01439 0.7038 0.0
C3182 C 0.0539 0.92617 0.65524 0.0
C3183 C 0.07057 0.93163 0.63943 0.0
C3184 C 0.03472 0.93973 0.65773 0.0
C3185 C 0.0318 0.95911 0.64453 0.0
C3186 C 0.04871 0.96489 0.62907 0.0
C3187 C 0.06778 0.95115 0.62637 0.0
C3188 C 0.01097 0.9731 0.64687 0.0
C3189 C 0.00441 0.9803 0.66831 0.0
C3190 C 0.99753 0.97922 0.6282 0.0
C3191 C 0.00225 0.97046 0.6054 0.0
C3192 C 0.00534 0.98543 0.58744 0.0
C3193 C 0.01012 0.97715 0.56603 0.0
C3194 C 0.01172 0.9539 0.56236 0.0
C3195 C 0.00841 0.93889 0.58006 0.0
C3196 C 0.00361 0.94709 0.60148 0.0
C3197 C 0.93508 0.05067 0.66893 0.0
C3198 C 0.91486 0.04567 0.6577 0.0
C3199 C 0.95368 0.03615 0.66731 0.0
C3200 C 0.95225 0.01601 0.6549 0.0
C3201 C 0.93187 0.01088 0.64395 0.0
C3202 C 0.91342 0.02562 0.64521 0.0
C3203 C 0.97217 0.00066 0.65277 0.0
C3204 C 0.97863 0.99325 0.63134 0.0
C3205 C 0.98501 0.9936 0.67156 0.0
C3206 C 0.97816 -0.00093 0.69482 0.0
C3207 C 0.95652 0.99336 0.7026 0.0
C3208 C 0.9501 -0.00133 0.72449 0.0
C3209 C 0.96524 0.00955 0.73882 0.0
C3210 C 0.98685 0.0151 0.73131 0.0
C3211 C 0.99335 0.00984 0.70943 0.0
H3212 H 0.96023 0.01365 0.75577 0.0
H3213 H 0.01547 0.94752 0.5458 0.0
H3214 H 0.08406 0.57391 0.94025 0.0
H3215 H 0.06112 0.53954 0.94098 0.0
H3216 H 0.02194 0.56433 0.88525 0.0
H3217 H 0.04435 0.5988 0.88471 0.0
H3218 H 0.01605 0.52942 0.94539 0.0
H3219 H 0.01614 0.51998 0.84757 0.0
H3220 H 0.04143 0.52768 0.81582 0.0
H3221 H 0.09841 0.52937 0.86031 0.0
H3222 H 0.07359 0.52087 0.89223 0.0
H3223 H 0.92887 0.4567 0.91207 0.0
H3224 H 0.95543 0.48765 0.91788 0.0
H3225 H 0.00872 0.44729 0.88883 0.0
H3226 H 0.98161 0.41677 0.88184 0.0
H3227 H 0.01325 0.48627 0.87422 0.0
H3228 H 0.00384 0.4587 0.94774 0.0
H3229 H 0.98368 0.44578 0.98143 0.0
H3230 H 0.95392 0.51145 0.98926 0.0
H3231 H 0.97364 0.52469 0.95543 0.0
C3232 C 0.0702 0.57229 0.92852 0.0
C3233 C 0.0662 0.589 0.91225 0.0
C3234 C 0.05719 0.55258 0.92889 0.0
C3235 C 0.04012 0.54922 0.91291 0.0
C3236 C 0.03531 0.56641 0.89748 0.0
C3237 C 0.04817 0.58609 0.89717 0.0
C3238 C 0.02794 0.52742 0.91145 0.0
C3239 C 0.01541 0.51993 0.92987 0.0
C3240 C 0.0279 0.51455 0.89148 0.0
C3241 C 0.0429 0.52006 0.87236 0.0
C3242 C 0.03406 0.52193 0.85059 0.0
C3243 C 0.04835 0.52638 0.83254 0.0
C3244 C 0.07152 0.52911 0.83606 0.0
C3245 C 0.08045 0.52734 0.85763 0.0
C3246 C 0.06627 0.52269 0.8757 0.0
C3247 C 0.94629 0.45452 0.90696 0.0
C3248 C 0.95334 0.43446 0.89659 0.0
C3249 C 0.96153 0.4721 0.91048 0.0
C3250 C 0.9843 0.46971 0.90431 0.0
C3251 C 0.9913 0.44958 0.89383 0.0
C3252 C 0.97589 0.43216 0.88985 0.0
C3253 C 0.00046 0.48862 0.90789 0.0
C3254 C 0.01385 0.4956 0.88983 0.0
C3255 C 0.00195 0.50047 0.92849 0.0
C3256 C 0.99011 0.49264 0.94894 0.0
C3257 C 0.99288 0.47035 0.95656 0.0
C3258 C 0.98155 0.46297 0.9757 0.0
C3259 C 0.9675 0.47777 0.98746 0.0
C3260 C 0.9648 0.5 0.98013 0.0
C3261 C 0.97608 0.50746 0.96099 0.0
H3262 H 0.95873 0.47203 1.00227 0.0
H3263 H 0.08258 0.53249 0.82207 0.0
loop_
_geom_bond_atom_site_label_1
_geom_bond_atom_site_label_2
_geom_bond_distance
_geom_bond_site_symmetry_2
_ccdc_geom_bond_type
O0 Tb1 2.292 . S
O0 C3 1.255 1_554 S
Tb1 O0 2.292 . S
Tb1 O17 2.326 . S
Tb1 O19 2.500 . S
Tb1 O20 2.473 . S
Tb1 O23 2.324 . S
Eu2 O6 2.292 . S
Eu2 C7 2.852 . S
Eu2 O18 2.324 . S
Eu2 O22 2.326 . S
Eu2 O24 2.500 . S
Eu2 O25 2.473 . S
C3 O0 1.255 1_556 S
C3 O4 1.247 1_556 S
O4 C3 1.247 1_554 S
C5 O17 1.242 . S
C5 O18 1.258 . S
O6 Eu2 2.292 . S
O6 C8 1.255 . S
C7 Eu2 2.852 . S
C7 C11 1.503 . S
C7 O24 1.273 . S
C7 O25 1.257 . S
C8 O6 1.255 . S
C8 O9 1.247 . S
O9 C8 1.247 . S
C10 O22 1.242 . S
C10 O23 1.258 . S
C11 C7 1.503 . S
C11 C12 1.379 . S
C11 C16 1.392 . S
C12 C11 1.379 . S
C12 C13 1.404 . S
C12 H26 0.929 . S
C13 C12 1.404 . S
C13 C14 1.389 . S
C14 C13 1.389 . S
C14 C15 1.399 . S
C14 H27 0.931 . S
C15 C14 1.399 . S
C15 C16 1.390 . S
C16 C11 1.392 . S
C16 C15 1.390 . S
C16 H28 0.929 . S
O17 Tb1 2.326 . S
O17 C5 1.242 . S
O18 Eu2 2.324 . S
O18 C5 1.258 . S
O19 Tb1 2.500 . S
O19 C21 1.273 . S
O20 Tb1 2.473 . S
O20 C21 1.257 . S
C21 O19 1.273 . S
C21 O20 1.257 . S
O22 Eu2 2.326 . S
O22 C10 1.242 . S
O23 Tb1 2.324 . S
O23 C10 1.258 . S
O24 Eu2 2.500 . S
O24 C7 1.273 . S
O25 Eu2 2.473 . S
O25 C7 1.257 . S
H26 C12 0.929 . S
H27 C14 0.931 . S
H28 C16 0.929 . S
O29 Tb30 2.292 . S
O29 C32 1.255 . S
Tb30 O29 2.292 . S
Tb30 O46 2.326 . S
Tb30 O48 2.500 . S
Tb30 O49 2.473 . S
Tb30 O52 2.324 . S
Eu31 O35 2.292 . S
Eu31 C36 2.852 . S
Eu31 O47 2.324 . S
Eu31 O51 2.326 . S
Eu31 O53 2.500 . S
Eu31 O54 2.473 . S
C32 O29 1.255 . S
C32 O33 1.247 . S
O33 C32 1.247 . S
C34 O46 1.242 . S
C34 O47 1.258 . S
O35 Eu31 2.292 . S
O35 C37 1.255 . S
C36 Eu31 2.852 . S
C36 C40 1.503 . S
C36 O53 1.273 . S
C36 O54 1.257 . S
C37 O35 1.255 . S
C37 O38 1.247 . S
O38 C37 1.247 . S
C39 O51 1.242 . S
C39 O52 1.258 . S
C40 C36 1.503 . S
C40 C41 1.379 . S
C40 C45 1.392 . S
C41 C40 1.379 . S
C41 C42 1.404 . S
C41 H55 0.929 . S
C42 C41 1.404 . S
C42 C43 1.389 . S
C43 C42 1.389 . S
C43 C44 1.399 . S
C43 H56 0.931 . S
C44 C43 1.399 . S
C44 C45 1.390 . S
C45 C40 1.392 . S
C45 C44 1.390 . S
C45 H57 0.929 . S
O46 Tb30 2.326 . S
O46 C34 1.242 . S
O47 Eu31 2.324 . S
O47 C34 1.258 . S
O48 Tb30 2.500 . S
O48 C50 1.273 . S
O49 Tb30 2.473 . S
O49 C50 1.257 . S
C50 O48 1.273 . S
C50 O49 1.257 . S
O51 Eu31 2.326 . S
O51 C39 1.242 . S
O52 Tb30 2.324 . S
O52 C39 1.258 . S
O53 Eu31 2.500 . S
O53 C36 1.273 . S
O54 Eu31 2.473 . S
O54 C36 1.257 . S
H55 C41 0.929 . S
H56 C43 0.931 . S
H57 C45 0.929 . S
O58 Tb59 2.292 . S
O58 C61 1.255 . S
Tb59 O58 2.292 . S
Tb59 O75 2.326 . S
Tb59 O77 2.500 . S
Tb59 O78 2.473 . S
Tb59 O81 2.324 . S
Eu60 O64 2.292 . S
Eu60 C65 2.852 . S
Eu60 O76 2.324 . S
Eu60 O80 2.326 . S
Eu60 O82 2.500 . S
Eu60 O83 2.473 . S
C61 O58 1.255 . S
C61 O62 1.247 . S
O62 C61 1.247 . S
C63 O75 1.242 . S
C63 O76 1.258 . S
O64 Eu60 2.292 . S
O64 C66 1.255 . S
C65 Eu60 2.852 . S
C65 C69 1.503 . S
C65 O82 1.273 . S
C65 O83 1.257 . S
C66 O64 1.255 . S
C66 O67 1.247 . S
O67 C66 1.247 . S
C68 O80 1.242 . S
C68 O81 1.258 . S
C69 C65 1.503 . S
C69 C70 1.379 . S
C69 C74 1.392 . S
C70 C69 1.379 . S
C70 C71 1.404 . S
C70 H84 0.929 . S
C71 C70 1.404 . S
C71 C72 1.389 . S
C72 C71 1.389 . S
C72 C73 1.399 . S
C72 H85 0.931 . S
C73 C72 1.399 . S
C73 C74 1.390 . S
C74 C69 1.392 . S
C74 C73 1.390 . S
C74 H86 0.929 . S
O75 Tb59 2.326 . S
O75 C63 1.242 . S
O76 Eu60 2.324 . S
O76 C63 1.258 . S
O77 Tb59 2.500 . S
O77 C79 1.273 . S
O78 Tb59 2.473 . S
O78 C79 1.257 . S
C79 O77 1.273 . S
C79 O78 1.257 . S
O80 Eu60 2.326 . S
O80 C68 1.242 . S
O81 Tb59 2.324 . S
O81 C68 1.258 . S
O82 Eu60 2.500 . S
O82 C65 1.273 . S
O83 Eu60 2.473 . S
O83 C65 1.257 . S
H84 C70 0.929 . S
H85 C72 0.931 . S
H86 C74 0.929 . S
O87 Tb88 2.292 . S
O87 C90 1.255 . S
Tb88 O87 2.292 . S
Tb88 O104 2.326 . S
Tb88 O106 2.500 . S
Tb88 O107 2.473 . S
Tb88 O110 2.324 . S
Eu89 O93 2.292 . S
Eu89 C94 2.852 . S
Eu89 O105 2.324 . S
Eu89 O109 2.326 . S
Eu89 O111 2.500 . S
Eu89 O112 2.473 . S
C90 O87 1.255 . S
C90 O91 1.247 . S
O91 C90 1.247 . S
C92 O104 1.242 . S
C92 O105 1.258 . S
O93 Eu89 2.292 . S
O93 C95 1.255 . S
C94 Eu89 2.852 . S
C94 C98 1.503 . S
C94 O111 1.273 . S
C94 O112 1.257 . S
C95 O93 1.255 . S
C95 O96 1.247 . S
O96 C95 1.247 . S
C97 O109 1.242 . S
C97 O110 1.258 . S
C98 C94 1.503 . S
C98 C99 1.379 . S
C98 C103 1.392 . S
C99 C98 1.379 . S
C99 C100 1.404 . S
C99 H113 0.929 . S
C100 C99 1.404 . S
C100 C101 1.389 . S
C101 C100 1.389 . S
C101 C102 1.399 . S
C101 H114 0.931 . S
C102 C101 1.399 . S
C102 C103 1.390 . S
C103 C98 1.392 . S
C103 C102 1.390 . S
C103 H115 0.929 . S
O104 Tb88 2.326 . S
O104 C92 1.242 . S
O105 Eu89 2.324 . S
O105 C92 1.258 . S
O106 Tb88 2.500 . S
O106 C108 1.273 . S
O107 Tb88 2.473 . S
O107 C108 1.257 . S
C108 O106 1.273 . S
C108 O107 1.257 . S
O109 Eu89 2.326 . S
O109 C97 1.242 . S
O110 Tb88 2.324 . S
O110 C97 1.258 . S
O111 Eu89 2.500 . S
O111 C94 1.273 . S
O112 Eu89 2.473 . S
O112 C94 1.257 . S
H113 C99 0.929 . S
H114 C101 0.931 . S
H115 C103 0.929 . S
O116 Tb117 2.292 . S
O116 C119 1.255 . S
Tb117 O116 2.292 . S
Tb117 O133 2.326 . S
Tb117 O135 2.500 . S
Tb117 O136 2.473 . S
Tb117 O139 2.324 . S
Eu118 O122 2.292 . S
Eu118 C123 2.852 . S
Eu118 O134 2.324 . S
Eu118 O138 2.326 . S
Eu118 O140 2.500 . S
Eu118 O141 2.473 . S
C119 O116 1.255 . S
C119 O120 1.247 . S
O120 C119 1.247 . S
C121 O133 1.242 . S
C121 O134 1.258 . S
O122 Eu118 2.292 . S
O122 C124 1.255 . S
C123 Eu118 2.852 . S
C123 C127 1.503 . S
C123 O140 1.273 . S
C123 O141 1.257 . S
C124 O122 1.255 . S
C124 O125 1.247 . S
O125 C124 1.247 . S
C126 O138 1.242 . S
C126 O139 1.258 . S
C127 C123 1.503 . S
C127 C128 1.379 . S
C127 C132 1.392 . S
C128 C127 1.379 . S
C128 C129 1.404 . S
C128 H142 0.929 . S
C129 C128 1.404 . S
C129 C130 1.389 . S
C130 C129 1.389 . S
C130 C131 1.399 . S
C130 H143 0.931 . S
C131 C130 1.399 . S
C131 C132 1.390 . S
C132 C127 1.392 . S
C132 C131 1.390 . S
C132 H144 0.929 . S
O133 Tb117 2.326 . S
O133 C121 1.242 . S
O134 Eu118 2.324 . S
O134 C121 1.258 . S
O135 Tb117 2.500 . S
O135 C137 1.273 . S
O136 Tb117 2.473 . S
O136 C137 1.257 . S
C137 O135 1.273 . S
C137 O136 1.257 . S
O138 Eu118 2.326 . S
O138 C126 1.242 . S
O139 Tb117 2.324 . S
O139 C126 1.258 . S
O140 Eu118 2.500 . S
O140 C123 1.273 . S
O141 Eu118 2.473 . S
O141 C123 1.257 . S
H142 C128 0.929 . S
H143 C130 0.931 . S
H144 C132 0.929 . S
O145 Tb146 2.292 . S
O145 C148 1.255 . S
Tb146 O145 2.292 . S
Tb146 O162 2.326 . S
Tb146 O164 2.500 . S
Tb146 O165 2.473 . S
Tb146 O168 2.324 . S
Eu147 O151 2.292 . S
Eu147 C152 2.852 . S
Eu147 O163 2.324 . S
Eu147 O167 2.326 . S
Eu147 O169 2.500 . S
Eu147 O170 2.473 . S
C148 O145 1.255 . S
C148 O149 1.247 . S
O149 C148 1.247 . S
C150 O162 1.242 . S
C150 O163 1.258 . S
O151 Eu147 2.292 . S
O151 C153 1.255 . S
C152 Eu147 2.852 . S
C152 C156 1.503 . S
C152 O169 1.273 . S
C152 O170 1.257 . S
C153 O151 1.255 . S
C153 O154 1.247 . S
O154 C153 1.247 . S
C155 O167 1.242 . S
C155 O168 1.258 . S
C156 C152 1.503 . S
C156 C157 1.379 . S
C156 C161 1.392 . S
C157 C156 1.379 . S
C157 C158 1.404 . S
C157 H171 0.929 . S
C158 C157 1.404 . S
C158 C159 1.389 . S
C159 C158 1.389 . S
C159 C160 1.399 . S
C159 H172 0.931 . S
C160 C159 1.399 . S
C160 C161 1.390 . S
C161 C156 1.392 . S
C161 C160 1.390 . S
C161 H173 0.929 . S
O162 Tb146 2.326 . S
O162 C150 1.242 . S
O163 Eu147 2.324 . S
O163 C150 1.258 . S
O164 Tb146 2.500 . S
O164 C166 1.273 . S
O165 Tb146 2.473 . S
O165 C166 1.257 . S
C166 O164 1.273 . S
C166 O165 1.257 . S
O167 Eu147 2.326 . S
O167 C155 1.242 . S
O168 Tb146 2.324 . S
O168 C155 1.258 . S
O169 Eu147 2.500 . S
O169 C152 1.273 . S
O170 Eu147 2.473 . S
O170 C152 1.257 . S
H171 C157 0.929 . S
H172 C159 0.931 . S
H173 C161 0.929 . S
O174 Tb175 2.292 . S
O174 C177 1.255 . S
Tb175 O174 2.292 . S
Tb175 O191 2.326 . S
Tb175 O193 2.500 . S
Tb175 O194 2.473 . S
Tb175 O197 2.324 . S
Eu176 O180 2.292 . S
Eu176 C181 2.852 . S
Eu176 O192 2.324 . S
Eu176 O196 2.326 . S
Eu176 O198 2.500 . S
Eu176 O199 2.473 . S
C177 O174 1.255 . S
C177 O178 1.247 . S
O178 C177 1.247 . S
C179 O191 1.242 . S
C179 O192 1.258 . S
O180 Eu176 2.292 . S
O180 C182 1.255 . S
C181 Eu176 2.852 . S
C181 C185 1.503 . S
C181 O198 1.273 . S
C181 O199 1.257 . S
C182 O180 1.255 . S
C182 O183 1.247 . S
O183 C182 1.247 . S
C184 O196 1.242 . S
C184 O197 1.258 . S
C185 C181 1.503 . S
C185 C186 1.379 . S
C185 C190 1.392 . S
C186 C185 1.379 . S
C186 C187 1.404 . S
C186 H200 0.929 . S
C187 C186 1.404 . S
C187 C188 1.389 . S
C188 C187 1.389 . S
C188 C189 1.399 . S
C188 H201 0.931 . S
C189 C188 1.399 . S
C189 C190 1.390 . S
C190 C185 1.392 . S
C190 C189 1.390 . S
C190 H202 0.929 . S
O191 Tb175 2.326 . S
O191 C179 1.242 . S
O192 Eu176 2.324 . S
O192 C179 1.258 . S
O193 Tb175 2.500 . S
O193 C195 1.273 . S
O194 Tb175 2.473 . S
O194 C195 1.257 . S
C195 O193 1.273 . S
C195 O194 1.257 . S
O196 Eu176 2.326 . S
O196 C184 1.242 . S
O197 Tb175 2.324 . S
O197 C184 1.258 . S
O198 Eu176 2.500 . S
O198 C181 1.273 . S
O199 Eu176 2.473 . S
O199 C181 1.257 . S
H200 C186 0.929 . S
H201 C188 0.931 . S
H202 C190 0.929 . S
O203 Tb204 2.292 . S
O203 C206 1.255 1_556 S
Tb204 O203 2.292 . S
Tb204 O220 2.326 . S
Tb204 O222 2.500 . S
Tb204 O223 2.473 . S
Tb204 O226 2.324 . S
Eu205 O209 2.292 . S
Eu205 C210 2.852 . S
Eu205 O221 2.324 . S
Eu205 O225 2.326 . S
Eu205 O227 2.500 . S
Eu205 O228 2.473 . S
C206 O203 1.255 1_554 S
C206 O207 1.247 1_554 S
O207 C206 1.247 1_556 S
C208 O220 1.242 . S
C208 O221 1.258 . S
O209 Eu205 2.292 . S
O209 C211 1.255 . S
C210 Eu205 2.852 . S
C210 C214 1.503 . S
C210 O227 1.273 . S
C210 O228 1.257 . S
C211 O209 1.255 . S
C211 O212 1.247 . S
O212 C211 1.247 . S
C213 O225 1.242 . S
C213 O226 1.258 . S
C214 C210 1.503 . S
C214 C215 1.379 . S
C214 C219 1.392 . S
C215 C214 1.379 . S
C215 C216 1.404 . S
C215 H229 0.929 . S
C216 C215 1.404 . S
C216 C217 1.389 . S
C217 C216 1.389 . S
C217 C218 1.399 . S
C217 H230 0.931 . S
C218 C217 1.399 . S
C218 C219 1.390 . S
C219 C214 1.392 . S
C219 C218 1.390 . S
C219 H231 0.929 . S
O220 Tb204 2.326 . S
O220 C208 1.242 . S
O221 Eu205 2.324 . S
O221 C208 1.258 . S
O222 Tb204 2.500 . S
O222 C224 1.273 . S
O223 Tb204 2.473 . S
O223 C224 1.257 . S
C224 O222 1.273 . S
C224 O223 1.257 . S
O225 Eu205 2.326 . S
O225 C213 1.242 . S
O226 Tb204 2.324 . S
O226 C213 1.258 . S
O227 Eu205 2.500 . S
O227 C210 1.273 . S
O228 Eu205 2.473 . S
O228 C210 1.257 . S
H229 C215 0.929 . S
H230 C217 0.931 . S
H231 C219 0.929 . S
O232 Tb233 2.292 . S
O232 C235 1.255 . S
Tb233 O232 2.292 . S
Tb233 O249 2.326 . S
Tb233 O251 2.500 . S
Tb233 O252 2.473 . S
Tb233 O255 2.324 . S
Eu234 O238 2.292 . S
Eu234 C239 2.852 . S
Eu234 O250 2.324 . S
Eu234 O254 2.326 . S
Eu234 O256 2.500 . S
Eu234 O257 2.473 . S
C235 O232 1.255 . S
C235 O236 1.247 . S
O236 C235 1.247 . S
C237 O249 1.242 . S
C237 O250 1.258 . S
O238 Eu234 2.292 . S
O238 C240 1.255 . S
C239 Eu234 2.852 . S
C239 C243 1.503 . S
C239 O256 1.273 . S
C239 O257 1.257 . S
C240 O238 1.255 . S
C240 O241 1.247 . S
O241 C240 1.247 . S
C242 O254 1.242 . S
C242 O255 1.258 . S
C243 C239 1.503 . S
C243 C244 1.379 . S
C243 C248 1.392 . S
C244 C243 1.379 . S
C244 C245 1.404 . S
C244 H258 0.929 . S
C245 C244 1.404 . S
C245 C246 1.389 . S
C246 C245 1.389 . S
C246 C247 1.399 . S
C246 H259 0.931 . S
C247 C246 1.399 . S
C247 C248 1.390 . S
C248 C243 1.392 . S
C248 C247 1.390 . S
C248 H260 0.929 . S
O249 Tb233 2.326 . S
O249 C237 1.242 . S
O250 Eu234 2.324 . S
O250 C237 1.258 . S
O251 Tb233 2.500 . S
O251 C253 1.273 . S
O252 Tb233 2.473 . S
O252 C253 1.257 . S
C253 O251 1.273 . S
C253 O252 1.257 . S
O254 Eu234 2.326 . S
O254 C242 1.242 . S
O255 Tb233 2.324 . S
O255 C242 1.258 . S
O256 Eu234 2.500 . S
O256 C239 1.273 . S
O257 Eu234 2.473 . S
O257 C239 1.257 . S
H258 C244 0.929 . S
H259 C246 0.931 . S
H260 C248 0.929 . S
O261 Tb262 2.292 . S
O261 C264 1.255 . S
Tb262 O261 2.292 . S
Tb262 O278 2.326 . S
Tb262 O280 2.500 . S
Tb262 O281 2.473 . S
Tb262 O284 2.324 . S
Eu263 O267 2.292 . S
Eu263 C268 2.852 . S
Eu263 O279 2.324 . S
Eu263 O283 2.326 . S
Eu263 O285 2.500 . S
Eu263 O286 2.473 . S
C264 O261 1.255 . S
C264 O265 1.247 . S
O265 C264 1.247 . S
C266 O278 1.242 . S
C266 O279 1.258 . S
O267 Eu263 2.292 . S
O267 C269 1.255 . S
C268 Eu263 2.852 . S
C268 C272 1.503 . S
C268 O285 1.273 . S
C268 O286 1.257 . S
C269 O267 1.255 . S
C269 O270 1.247 . S
O270 C269 1.247 . S
C271 O283 1.242 . S
C271 O284 1.258 . S
C272 C268 1.503 . S
C272 C273 1.379 . S
C272 C277 1.392 . S
C273 C272 1.379 . S
C273 C274 1.404 . S
C273 H287 0.929 . S
C274 C273 1.404 . S
C274 C275 1.389 . S
C275 C274 1.389 . S
C275 C276 1.399 . S
C275 H288 0.931 . S
C276 C275 1.399 . S
C276 C277 1.390 . S
C277 C272 1.392 . S
C277 C276 1.390 . S
C277 H289 0.929 . S
O278 Tb262 2.326 . S
O278 C266 1.242 . S
O279 Eu263 2.324 . S
O279 C266 1.258 . S
O280 Tb262 2.500 . S
O280 C282 1.273 . S
O281 Tb262 2.473 . S
O281 C282 1.257 . S
C282 O280 1.273 . S
C282 O281 1.257 . S
O283 Eu263 2.326 . S
O283 C271 1.242 . S
O284 Tb262 2.324 . S
O284 C271 1.258 . S
O285 Eu263 2.500 . S
O285 C268 1.273 . S
O286 Eu263 2.473 . S
O286 C268 1.257 . S
H287 C273 0.929 . S
H288 C275 0.931 . S
H289 C277 0.929 . S
O290 Tb291 2.292 . S
O290 C293 1.255 1_554 S
Tb291 O290 2.292 . S
Tb291 O307 2.326 . S
Tb291 O309 2.500 . S
Tb291 O310 2.473 . S
Tb291 O313 2.324 . S
Eu292 O296 2.292 . S
Eu292 C297 2.852 . S
Eu292 O308 2.324 . S
Eu292 O312 2.326 . S
Eu292 O314 2.500 . S
Eu292 O315 2.473 . S
C293 O290 1.255 1_556 S
C293 O294 1.247 1_556 S
O294 C293 1.247 1_554 S
C295 O307 1.242 . S
C295 O308 1.258 . S
O296 Eu292 2.292 . S
O296 C298 1.255 . S
C297 Eu292 2.852 . S
C297 C301 1.503 . S
C297 O314 1.273 . S
C297 O315 1.257 . S
C298 O296 1.255 . S
C298 O299 1.247 . S
O299 C298 1.247 . S
C300 O312 1.242 . S
C300 O313 1.258 . S
C301 C297 1.503 . S
C301 C302 1.379 . S
C301 C306 1.392 . S
C302 C301 1.379 . S
C302 C303 1.404 . S
C302 H316 0.929 . S
C303 C302 1.404 . S
C303 C304 1.389 . S
C304 C303 1.389 . S
C304 C305 1.399 . S
C304 H317 0.931 . S
C305 C304 1.399 . S
C305 C306 1.390 . S
C306 C301 1.392 . S
C306 C305 1.390 . S
C306 H318 0.929 . S
O307 Tb291 2.326 . S
O307 C295 1.242 . S
O308 Eu292 2.324 . S
O308 C295 1.258 . S
O309 Tb291 2.500 . S
O309 C311 1.273 . S
O310 Tb291 2.473 . S
O310 C311 1.257 . S
C311 O309 1.273 . S
C311 O310 1.257 . S
O312 Eu292 2.326 . S
O312 C300 1.242 . S
O313 Tb291 2.324 . S
O313 C300 1.258 . S
O314 Eu292 2.500 . S
O314 C297 1.273 . S
O315 Eu292 2.473 . S
O315 C297 1.257 . S
H316 C302 0.929 . S
H317 C304 0.931 . S
H318 C306 0.929 . S
O319 Tb320 2.292 . S
O319 C322 1.255 . S
Tb320 O319 2.292 . S
Tb320 O336 2.326 . S
Tb320 O338 2.500 . S
Tb320 O339 2.473 . S
Tb320 O342 2.324 . S
Eu321 O325 2.292 . S
Eu321 C326 2.852 . S
Eu321 O337 2.324 . S
Eu321 O341 2.326 . S
Eu321 O343 2.500 . S
Eu321 O344 2.473 . S
C322 O319 1.255 . S
C322 O323 1.247 . S
O323 C322 1.247 . S
C324 O336 1.242 . S
C324 O337 1.258 . S
O325 Eu321 2.292 . S
O325 C327 1.255 . S
C326 Eu321 2.852 . S
C326 C330 1.503 . S
C326 O343 1.273 . S
C326 O344 1.257 . S
C327 O325 1.255 . S
C327 O328 1.247 . S
O328 C327 1.247 . S
C329 O341 1.242 . S
C329 O342 1.258 . S
C330 C326 1.503 . S
C330 C331 1.379 . S
C330 C335 1.392 . S
C331 C330 1.379 . S
C331 C332 1.404 . S
C331 H345 0.929 . S
C332 C331 1.404 . S
C332 C333 1.389 . S
C333 C332 1.389 . S
C333 C334 1.399 . S
C333 H346 0.931 . S
C334 C333 1.399 . S
C334 C335 1.390 . S
C335 C330 1.392 . S
C335 C334 1.390 . S
C335 H347 0.929 . S
O336 Tb320 2.326 . S
O336 C324 1.242 . S
O337 Eu321 2.324 . S
O337 C324 1.258 . S
O338 Tb320 2.500 . S
O338 C340 1.273 . S
O339 Tb320 2.473 . S
O339 C340 1.257 . S
C340 O338 1.273 . S
C340 O339 1.257 . S
O341 Eu321 2.326 . S
O341 C329 1.242 . S
O342 Tb320 2.324 . S
O342 C329 1.258 . S
O343 Eu321 2.500 . S
O343 C326 1.273 . S
O344 Eu321 2.473 . S
O344 C326 1.257 . S
H345 C331 0.929 . S
H346 C333 0.931 . S
H347 C335 0.929 . S
O348 Tb349 2.292 . S
O348 C351 1.255 . S
Tb349 O348 2.292 . S
Tb349 O365 2.326 . S
Tb349 O367 2.500 . S
Tb349 O368 2.473 . S
Tb349 O371 2.324 . S
Eu350 O354 2.292 . S
Eu350 C355 2.852 . S
Eu350 O366 2.324 . S
Eu350 O370 2.326 . S
Eu350 O372 2.500 . S
Eu350 O373 2.473 . S
C351 O348 1.255 . S
C351 O352 1.247 . S
O352 C351 1.247 . S
C353 O365 1.242 . S
C353 O366 1.258 . S
O354 Eu350 2.292 . S
O354 C356 1.255 . S
C355 Eu350 2.852 . S
C355 C359 1.503 . S
C355 O372 1.273 . S
C355 O373 1.257 . S
C356 O354 1.255 . S
C356 O357 1.247 . S
O357 C356 1.247 . S
C358 O370 1.242 . S
C358 O371 1.258 . S
C359 C355 1.503 . S
C359 C360 1.379 . S
C359 C364 1.392 . S
C360 C359 1.379 . S
C360 C361 1.404 . S
C360 H374 0.929 . S
C361 C360 1.404 . S
C361 C362 1.389 . S
C362 C361 1.389 . S
C362 C363 1.399 . S
C362 H375 0.931 . S
C363 C362 1.399 . S
C363 C364 1.390 . S
C364 C359 1.392 . S
C364 C363 1.390 . S
C364 H376 0.929 . S
O365 Tb349 2.326 . S
O365 C353 1.242 . S
O366 Eu350 2.324 . S
O366 C353 1.258 . S
O367 Tb349 2.500 . S
O367 C369 1.273 . S
O368 Tb349 2.473 . S
O368 C369 1.257 . S
C369 O367 1.273 . S
C369 O368 1.257 . S
O370 Eu350 2.326 . S
O370 C358 1.242 . S
O371 Tb349 2.324 . S
O371 C358 1.258 . S
O372 Eu350 2.500 . S
O372 C355 1.273 . S
O373 Eu350 2.473 . S
O373 C355 1.257 . S
H374 C360 0.929 . S
H375 C362 0.931 . S
H376 C364 0.929 . S
O377 Tb378 2.292 . S
O377 C380 1.255 1_556 S
Tb378 O377 2.292 . S
Tb378 O394 2.326 . S
Tb378 O396 2.500 . S
Tb378 O397 2.473 . S
Tb378 O400 2.324 . S
Eu379 O383 2.292 . S
Eu379 C384 2.852 . S
Eu379 O395 2.324 . S
Eu379 O399 2.326 . S
Eu379 O401 2.500 . S
Eu379 O402 2.473 . S
C380 O377 1.255 1_554 S
C380 O381 1.247 1_554 S
O381 C380 1.247 1_556 S
C382 O394 1.242 . S
C382 O395 1.258 . S
O383 Eu379 2.292 . S
O383 C385 1.255 . S
C384 Eu379 2.852 . S
C384 C388 1.503 . S
C384 O401 1.273 . S
C384 O402 1.257 . S
C385 O383 1.255 . S
C385 O386 1.247 . S
O386 C385 1.247 . S
C387 O399 1.242 . S
C387 O400 1.258 . S
C388 C384 1.503 . S
C388 C389 1.379 . S
C388 C393 1.392 . S
C389 C388 1.379 . S
C389 C390 1.404 . S
C389 H403 0.929 . S
C390 C389 1.404 . S
C390 C391 1.389 . S
C391 C390 1.389 . S
C391 C392 1.399 . S
C391 H404 0.931 . S
C392 C391 1.399 . S
C392 C393 1.390 . S
C393 C388 1.392 . S
C393 C392 1.390 . S
C393 H405 0.929 . S
O394 Tb378 2.326 . S
O394 C382 1.242 . S
O395 Eu379 2.324 . S
O395 C382 1.258 . S
O396 Tb378 2.500 . S
O396 C398 1.273 . S
O397 Tb378 2.473 . S
O397 C398 1.257 . S
C398 O396 1.273 . S
C398 O397 1.257 . S
O399 Eu379 2.326 . S
O399 C387 1.242 . S
O400 Tb378 2.324 . S
O400 C387 1.258 . S
O401 Eu379 2.500 . S
O401 C384 1.273 . S
O402 Eu379 2.473 . S
O402 C384 1.257 . S
H403 C389 0.929 . S
H404 C391 0.931 . S
H405 C393 0.929 . S
O406 Tb407 2.292 . S
O406 C409 1.255 . S
Tb407 O406 2.292 . S
Tb407 O423 2.326 . S
Tb407 O425 2.500 . S
Tb407 O426 2.473 . S
Tb407 O429 2.324 . S
Eu408 O412 2.292 . S
Eu408 C413 2.852 . S
Eu408 O424 2.324 . S
Eu408 O428 2.326 . S
Eu408 O430 2.500 . S
Eu408 O431 2.473 . S
C409 O406 1.255 . S
C409 O410 1.247 . S
O410 C409 1.247 . S
C411 O423 1.242 . S
C411 O424 1.258 . S
O412 Eu408 2.292 . S
O412 C414 1.255 . S
C413 Eu408 2.852 . S
C413 C417 1.503 . S
C413 O430 1.273 . S
C413 O431 1.257 . S
C414 O412 1.255 . S
C414 O415 1.247 . S
O415 C414 1.247 . S
C416 O428 1.242 . S
C416 O429 1.258 . S
C417 C413 1.503 . S
C417 C418 1.379 . S
C417 C422 1.392 . S
C418 C417 1.379 . S
C418 C419 1.404 . S
C418 H432 0.929 . S
C419 C418 1.404 . S
C419 C420 1.389 . S
C420 C419 1.389 . S
C420 C421 1.399 . S
C420 H433 0.931 . S
C421 C420 1.399 . S
C421 C422 1.390 . S
C422 C417 1.392 . S
C422 C421 1.390 . S
C422 H434 0.929 . S
O423 Tb407 2.326 . S
O423 C411 1.242 . S
O424 Eu408 2.324 . S
O424 C411 1.258 . S
O425 Tb407 2.500 . S
O425 C427 1.273 . S
O426 Tb407 2.473 . S
O426 C427 1.257 . S
C427 O425 1.273 . S
C427 O426 1.257 . S
O428 Eu408 2.326 . S
O428 C416 1.242 . S
O429 Tb407 2.324 . S
O429 C416 1.258 . S
O430 Eu408 2.500 . S
O430 C413 1.273 . S
O431 Eu408 2.473 . S
O431 C413 1.257 . S
H432 C418 0.929 . S
H433 C420 0.931 . S
H434 C422 0.929 . S
O435 Tb436 2.292 . S
O435 C438 1.255 . S
Tb436 O435 2.292 . S
Tb436 O452 2.326 . S
Tb436 O454 2.500 . S
Tb436 O455 2.473 . S
Tb436 O458 2.324 . S
Eu437 O441 2.292 . S
Eu437 C442 2.852 . S
Eu437 O453 2.324 . S
Eu437 O457 2.326 . S
Eu437 O459 2.500 . S
Eu437 O460 2.473 . S
C438 O435 1.255 . S
C438 O439 1.247 . S
O439 C438 1.247 . S
C440 O452 1.242 . S
C440 O453 1.258 . S
O441 Eu437 2.292 . S
O441 C443 1.255 . S
C442 Eu437 2.852 . S
C442 C446 1.503 . S
C442 O459 1.273 . S
C442 O460 1.257 . S
C443 O441 1.255 . S
C443 O444 1.247 . S
O444 C443 1.247 . S
C445 O457 1.242 . S
C445 O458 1.258 . S
C446 C442 1.503 . S
C446 C447 1.379 . S
C446 C451 1.392 . S
C447 C446 1.379 . S
C447 C448 1.404 . S
C447 H461 0.929 . S
C448 C447 1.404 . S
C448 C449 1.389 . S
C449 C448 1.389 . S
C449 C450 1.399 . S
C449 H462 0.931 . S
C450 C449 1.399 . S
C450 C451 1.390 . S
C451 C446 1.392 . S
C451 C450 1.390 . S
C451 H463 0.929 . S
O452 Tb436 2.326 . S
O452 C440 1.242 . S
O453 Eu437 2.324 . S
O453 C440 1.258 . S
O454 Tb436 2.500 . S
O454 C456 1.273 . S
O455 Tb436 2.473 . S
O455 C456 1.257 . S
C456 O454 1.273 . S
C456 O455 1.257 . S
O457 Eu437 2.326 . S
O457 C445 1.242 . S
O458 Tb436 2.324 . S
O458 C445 1.258 . S
O459 Eu437 2.500 . S
O459 C442 1.273 . S
O460 Eu437 2.473 . S
O460 C442 1.257 . S
H461 C447 0.929 . S
H462 C449 0.931 . S
H463 C451 0.929 . S
H464 C482 0.951 . S
H465 C484 0.951 . S
H466 C486 0.950 . S
H467 C487 0.950 . S
H468 C489 0.950 . S
H469 C492 0.950 1_554 S
H470 C493 0.950 . S
H471 C495 0.950 . S
H472 C496 0.950 . S
H473 C497 0.951 . S
H474 C499 0.951 . S
H475 C501 0.950 . S
H476 C502 0.950 . S
H477 C504 0.950 . S
H478 C507 0.950 1_556 S
H479 C508 0.950 . S
H480 C510 0.950 . S
H481 C511 0.950 . S
C482 H464 0.951 . S
C482 C483 1.366 1_556 S
C482 C484 1.388 . S
C483 C482 1.366 1_554 S
C483 C487 1.385 . S
C484 H465 0.951 . S
C484 C482 1.388 . S
C484 C485 1.366 1_556 S
C485 C484 1.366 1_554 S
C485 C486 1.414 . S
C485 C488 1.499 . S
C486 H466 0.950 . S
C486 C485 1.414 . S
C486 C487 1.374 . S
C487 H467 0.950 . S
C487 C483 1.385 . S
C487 C486 1.374 . S
C488 C485 1.499 . S
C488 C489 1.373 . S
C488 C490 1.389 1_554 S
C489 H468 0.950 . S
C489 C488 1.373 . S
C489 C505 1.377 . S
C490 C488 1.389 1_556 S
C490 C491 1.524 . S
C490 C504 1.377 . S
C491 C490 1.524 . S
C491 C492 1.397 . S
C491 C496 1.363 . S
C492 H469 0.950 1_556 S
C492 C491 1.397 . S
C492 C493 1.334 . S
C493 H470 0.950 . S
C493 C492 1.334 . S
C493 C494 1.287 . S
C494 C493 1.287 . S
C494 C495 1.524 . S
C494 H513 0.913 . S
C495 H471 0.950 . S
C495 C494 1.524 . S
C495 C496 1.415 . S
C496 H472 0.950 . S
C496 C491 1.363 . S
C496 C495 1.415 . S
C497 H473 0.951 . S
C497 C498 1.366 1_554 S
C497 C499 1.388 . S
C498 C497 1.366 1_556 S
C498 C502 1.385 . S
C499 H474 0.951 . S
C499 C497 1.388 . S
C499 C500 1.366 1_554 S
C500 C499 1.366 1_556 S
C500 C501 1.414 . S
C500 C503 1.499 . S
C501 H475 0.950 . S
C501 C500 1.414 . S
C501 C502 1.374 . S
C502 H476 0.950 . S
C502 C498 1.385 . S
C502 C501 1.374 . S
C503 C500 1.499 . S
C503 C504 1.373 . S
C503 C505 1.389 1_556 S
C504 H477 0.950 . S
C504 C490 1.377 . S
C504 C503 1.373 . S
C505 C489 1.377 . S
C505 C503 1.389 1_554 S
C505 C506 1.524 . S
C506 C505 1.524 . S
C506 C507 1.397 . S
C506 C511 1.363 . S
C507 H478 0.950 1_554 S
C507 C506 1.397 . S
C507 C508 1.334 . S
C508 H479 0.950 . S
C508 C507 1.334 . S
C508 C509 1.287 . S
C509 C508 1.287 . S
C509 C510 1.524 . S
C509 H512 0.999 . S
C510 H480 0.950 . S
C510 C509 1.524 . S
C510 C511 1.415 . S
C511 H481 0.950 . S
C511 C506 1.363 . S
C511 C510 1.415 . S
H512 C509 0.999 . S
H513 C494 0.913 . S
H514 C532 0.951 . S
H515 C534 0.951 . S
H516 C536 0.950 . S
H517 C537 0.950 . S
H518 C539 0.950 . S
H519 C542 0.950 . S
H520 C543 0.950 . S
H521 C545 0.950 . S
H522 C546 0.950 . S
H523 C547 0.951 . S
H524 C549 0.951 . S
H525 C551 0.950 . S
H526 C552 0.950 . S
H527 C554 0.950 . S
H528 C557 0.950 . S
H529 C558 0.950 . S
H530 C560 0.950 . S
H531 C561 0.950 . S
C532 H514 0.951 . S
C532 C533 1.366 . S
C532 C534 1.388 . S
C533 C532 1.366 . S
C533 C537 1.385 . S
C534 H515 0.951 . S
C534 C532 1.388 . S
C534 C535 1.366 . S
C535 C534 1.366 . S
C535 C536 1.414 . S
C535 C538 1.499 . S
C536 H516 0.950 . S
C536 C535 1.414 . S
C536 C537 1.374 . S
C537 H517 0.950 . S
C537 C533 1.385 . S
C537 C536 1.374 . S
C538 C535 1.499 . S
C538 C539 1.373 . S
C538 C540 1.389 . S
C539 H518 0.950 . S
C539 C538 1.373 . S
C539 C555 1.377 . S
C540 C538 1.389 . S
C540 C541 1.524 . S
C540 C554 1.377 . S
C541 C540 1.524 . S
C541 C542 1.397 . S
C541 C546 1.363 . S
C542 H519 0.950 . S
C542 C541 1.397 . S
C542 C543 1.334 . S
C543 H520 0.950 . S
C543 C542 1.334 . S
C543 C544 1.287 . S
C544 C543 1.287 . S
C544 C545 1.524 . S
C544 H563 0.913 . S
C545 H521 0.950 . S
C545 C544 1.524 . S
C545 C546 1.415 . S
C546 H522 0.950 . S
C546 C541 1.363 . S
C546 C545 1.415 . S
C547 H523 0.951 . S
C547 C548 1.366 . S
C547 C549 1.388 . S
C548 C547 1.366 . S
C548 C552 1.385 . S
C549 H524 0.951 . S
C549 C547 1.388 . S
C549 C550 1.366 . S
C550 C549 1.366 . S
C550 C551 1.414 . S
C550 C553 1.499 . S
C551 H525 0.950 . S
C551 C550 1.414 . S
C551 C552 1.374 . S
C552 H526 0.950 . S
C552 C548 1.385 . S
C552 C551 1.374 . S
C553 C550 1.499 . S
C553 C554 1.373 . S
C553 C555 1.389 . S
C554 H527 0.950 . S
C554 C540 1.377 . S
C554 C553 1.373 . S
C555 C539 1.377 . S
C555 C553 1.389 . S
C555 C556 1.524 . S
C556 C555 1.524 . S
C556 C557 1.397 . S
C556 C561 1.363 . S
C557 H528 0.950 . S
C557 C556 1.397 . S
C557 C558 1.334 . S
C558 H529 0.950 . S
C558 C557 1.334 . S
C558 C559 1.287 . S
C559 C558 1.287 . S
C559 C560 1.524 . S
C559 H562 0.999 . S
C560 H530 0.950 . S
C560 C559 1.524 . S
C560 C561 1.415 . S
C561 H531 0.950 . S
C561 C556 1.363 . S
C561 C560 1.415 . S
H562 C559 0.999 . S
H563 C544 0.913 . S
H564 C582 0.951 . S
H565 C584 0.951 . S
H566 C586 0.950 . S
H567 C587 0.950 . S
H568 C589 0.950 . S
H569 C592 0.950 . S
H570 C593 0.950 . S
H571 C595 0.950 . S
H572 C596 0.950 . S
H573 C597 0.951 . S
H574 C599 0.951 . S
H575 C601 0.950 . S
H576 C602 0.950 . S
H577 C604 0.950 . S
H578 C607 0.950 . S
H579 C608 0.950 . S
H580 C610 0.950 . S
H581 C611 0.950 . S
C582 H564 0.951 . S
C582 C583 1.366 . S
C582 C584 1.388 . S
C583 C582 1.366 . S
C583 C587 1.385 . S
C584 H565 0.951 . S
C584 C582 1.388 . S
C584 C585 1.366 . S
C585 C584 1.366 . S
C585 C586 1.414 . S
C585 C588 1.499 . S
C586 H566 0.950 . S
C586 C585 1.414 . S
C586 C587 1.374 . S
C587 H567 0.950 . S
C587 C583 1.385 . S
C587 C586 1.374 . S
C588 C585 1.499 . S
C588 C589 1.373 . S
C588 C590 1.389 . S
C589 H568 0.950 . S
C589 C588 1.373 . S
C589 C605 1.377 . S
C590 C588 1.389 . S
C590 C591 1.524 . S
C590 C604 1.377 . S
C591 C590 1.524 . S
C591 C592 1.397 . S
C591 C596 1.363 . S
C592 H569 0.950 . S
C592 C591 1.397 . S
C592 C593 1.334 . S
C593 H570 0.950 . S
C593 C592 1.334 . S
C593 C594 1.287 . S
C594 C593 1.287 . S
C594 C595 1.524 . S
C594 H613 0.913 . S
C595 H571 0.950 . S
C595 C594 1.524 . S
C595 C596 1.415 . S
C596 H572 0.950 . S
C596 C591 1.363 . S
C596 C595 1.415 . S
C597 H573 0.951 . S
C597 C598 1.366 . S
C597 C599 1.388 . S
C598 C597 1.366 . S
C598 C602 1.385 . S
C599 H574 0.951 . S
C599 C597 1.388 . S
C599 C600 1.366 . S
C600 C599 1.366 . S
C600 C601 1.414 . S
C600 C603 1.499 . S
C601 H575 0.950 . S
C601 C600 1.414 . S
C601 C602 1.374 . S
C602 H576 0.950 . S
C602 C598 1.385 . S
C602 C601 1.374 . S
C603 C600 1.499 . S
C603 C604 1.373 . S
C603 C605 1.389 . S
C604 H577 0.950 . S
C604 C590 1.377 . S
C604 C603 1.373 . S
C605 C589 1.377 . S
C605 C603 1.389 . S
C605 C606 1.524 . S
C606 C605 1.524 . S
C606 C607 1.397 . S
C606 C611 1.363 . S
C607 H578 0.950 . S
C607 C606 1.397 . S
C607 C608 1.334 . S
C608 H579 0.950 . S
C608 C607 1.334 . S
C608 C609 1.287 . S
C609 C608 1.287 . S
C609 C610 1.524 . S
C609 H612 0.999 . S
C610 H580 0.950 . S
C610 C609 1.524 . S
C610 C611 1.415 . S
C611 H581 0.950 . S
C611 C606 1.363 . S
C611 C610 1.415 . S
H612 C609 0.999 . S
H613 C594 0.913 . S
H614 C632 0.951 . S
H615 C634 0.951 . S
H616 C636 0.950 . S
H617 C637 0.950 . S
H618 C639 0.950 . S
H619 C642 0.950 . S
H620 C643 0.950 . S
H621 C645 0.950 . S
H622 C646 0.950 . S
H623 C647 0.951 . S
H624 C649 0.951 . S
H625 C651 0.950 . S
H626 C652 0.950 . S
H627 C654 0.950 . S
H628 C657 0.950 . S
H629 C658 0.950 . S
H630 C660 0.950 . S
H631 C661 0.950 . S
C632 H614 0.951 . S
C632 C633 1.366 . S
C632 C634 1.388 . S
C633 C632 1.366 . S
C633 C637 1.385 . S
C634 H615 0.951 . S
C634 C632 1.388 . S
C634 C635 1.366 . S
C635 C634 1.366 . S
C635 C636 1.414 . S
C635 C638 1.499 . S
C636 H616 0.950 . S
C636 C635 1.414 . S
C636 C637 1.374 . S
C637 H617 0.950 . S
C637 C633 1.385 . S
C637 C636 1.374 . S
C638 C635 1.499 . S
C638 C639 1.373 . S
C638 C640 1.389 . S
C639 H618 0.950 . S
C639 C638 1.373 . S
C639 C655 1.377 . S
C640 C638 1.389 . S
C640 C641 1.524 . S
C640 C654 1.377 . S
C641 C640 1.524 . S
C641 C642 1.397 . S
C641 C646 1.363 . S
C642 H619 0.950 . S
C642 C641 1.397 . S
C642 C643 1.334 . S
C643 H620 0.950 . S
C643 C642 1.334 . S
C643 C644 1.287 . S
C644 C643 1.287 . S
C644 C645 1.524 . S
C644 H663 0.913 . S
C645 H621 0.950 . S
C645 C644 1.524 . S
C645 C646 1.415 . S
C646 H622 0.950 . S
C646 C641 1.363 . S
C646 C645 1.415 . S
C647 H623 0.951 . S
C647 C648 1.366 . S
C647 C649 1.388 . S
C648 C647 1.366 . S
C648 C652 1.385 . S
C649 H624 0.951 . S
C649 C647 1.388 . S
C649 C650 1.366 . S
C650 C649 1.366 . S
C650 C651 1.414 . S
C650 C653 1.499 . S
C651 H625 0.950 . S
C651 C650 1.414 . S
C651 C652 1.374 . S
C652 H626 0.950 . S
C652 C648 1.385 . S
C652 C651 1.374 . S
C653 C650 1.499 . S
C653 C654 1.373 . S
C653 C655 1.389 . S
C654 H627 0.950 . S
C654 C640 1.377 . S
C654 C653 1.373 . S
C655 C639 1.377 . S
C655 C653 1.389 . S
C655 C656 1.524 . S
C656 C655 1.524 . S
C656 C657 1.397 . S
C656 C661 1.363 . S
C657 H628 0.950 . S
C657 C656 1.397 . S
C657 C658 1.334 . S
C658 H629 0.950 . S
C658 C657 1.334 . S
C658 C659 1.287 . S
C659 C658 1.287 . S
C659 C660 1.524 . S
C659 H662 0.999 . S
C660 H630 0.950 . S
C660 C659 1.524 . S
C660 C661 1.415 . S
C661 H631 0.950 . S
C661 C656 1.363 . S
C661 C660 1.415 . S
H662 C659 0.999 . S
H663 C644 0.913 . S
H664 C682 0.951 . S
H665 C684 0.951 . S
H666 C686 0.950 . S
H667 C687 0.950 . S
H668 C689 0.950 . S
H669 C692 0.950 . S
H670 C693 0.950 . S
H671 C695 0.950 . S
H672 C696 0.950 . S
H673 C697 0.951 . S
H674 C699 0.951 . S
H675 C701 0.950 . S
H676 C702 0.950 . S
H677 C704 0.950 . S
H678 C707 0.950 . S
H679 C708 0.950 . S
H680 C710 0.950 . S
H681 C711 0.950 . S
C682 H664 0.951 . S
C682 C683 1.366 . S
C682 C684 1.388 . S
C683 C682 1.366 . S
C683 C687 1.385 . S
C684 H665 0.951 . S
C684 C682 1.388 . S
C684 C685 1.366 . S
C685 C684 1.366 . S
C685 C686 1.414 . S
C685 C688 1.499 . S
C686 H666 0.950 . S
C686 C685 1.414 . S
C686 C687 1.374 . S
C687 H667 0.950 . S
C687 C683 1.385 . S
C687 C686 1.374 . S
C688 C685 1.499 . S
C688 C689 1.373 . S
C688 C690 1.389 . S
C689 H668 0.950 . S
C689 C688 1.373 . S
C689 C705 1.377 . S
C690 C688 1.389 . S
C690 C691 1.524 . S
C690 C704 1.377 . S
C691 C690 1.524 . S
C691 C692 1.397 . S
C691 C696 1.363 . S
C692 H669 0.950 . S
C692 C691 1.397 . S
C692 C693 1.334 . S
C693 H670 0.950 . S
C693 C692 1.334 . S
C693 C694 1.287 . S
C694 C693 1.287 . S
C694 C695 1.524 . S
C694 H713 0.913 . S
C695 H671 0.950 . S
C695 C694 1.524 . S
C695 C696 1.415 . S
C696 H672 0.950 . S
C696 C691 1.363 . S
C696 C695 1.415 . S
C697 H673 0.951 . S
C697 C698 1.366 . S
C697 C699 1.388 . S
C698 C697 1.366 . S
C698 C702 1.385 . S
C699 H674 0.951 . S
C699 C697 1.388 . S
C699 C700 1.366 . S
C700 C699 1.366 . S
C700 C701 1.414 . S
C700 C703 1.499 . S
C701 H675 0.950 . S
C701 C700 1.414 . S
C701 C702 1.374 . S
C702 H676 0.950 . S
C702 C698 1.385 . S
C702 C701 1.374 . S
C703 C700 1.499 . S
C703 C704 1.373 . S
C703 C705 1.389 . S
C704 H677 0.950 . S
C704 C690 1.377 . S
C704 C703 1.373 . S
C705 C689 1.377 . S
C705 C703 1.389 . S
C705 C706 1.524 . S
C706 C705 1.524 . S
C706 C707 1.397 . S
C706 C711 1.363 . S
C707 H678 0.950 . S
C707 C706 1.397 . S
C707 C708 1.334 . S
C708 H679 0.950 . S
C708 C707 1.334 . S
C708 C709 1.287 . S
C709 C708 1.287 . S
C709 C710 1.524 . S
C709 H712 0.999 . S
C710 H680 0.950 . S
C710 C709 1.524 . S
C710 C711 1.415 . S
C711 H681 0.950 . S
C711 C706 1.363 . S
C711 C710 1.415 . S
H712 C709 0.999 . S
H713 C694 0.913 . S
H714 C732 0.951 . S
H715 C734 0.951 . S
H716 C736 0.950 . S
H717 C737 0.950 . S
H718 C739 0.950 . S
H719 C742 0.950 . S
H720 C743 0.950 . S
H721 C745 0.950 . S
H722 C746 0.950 . S
H723 C747 0.951 . S
H724 C749 0.951 . S
H725 C751 0.950 . S
H726 C752 0.950 . S
H727 C754 0.950 . S
H728 C757 0.950 . S
H729 C758 0.950 . S
H730 C760 0.950 . S
H731 C761 0.950 . S
C732 H714 0.951 . S
C732 C733 1.366 . S
C732 C734 1.388 . S
C733 C732 1.366 . S
C733 C737 1.385 . S
C734 H715 0.951 . S
C734 C732 1.388 . S
C734 C735 1.366 . S
C735 C734 1.366 . S
C735 C736 1.414 . S
C735 C738 1.499 . S
C736 H716 0.950 . S
C736 C735 1.414 . S
C736 C737 1.374 . S
C737 H717 0.950 . S
C737 C733 1.385 . S
C737 C736 1.374 . S
C738 C735 1.499 . S
C738 C739 1.373 . S
C738 C740 1.389 . S
C739 H718 0.950 . S
C739 C738 1.373 . S
C739 C755 1.377 . S
C740 C738 1.389 . S
C740 C741 1.524 . S
C740 C754 1.377 . S
C741 C740 1.524 . S
C741 C742 1.397 . S
C741 C746 1.363 . S
C742 H719 0.950 . S
C742 C741 1.397 . S
C742 C743 1.334 . S
C743 H720 0.950 . S
C743 C742 1.334 . S
C743 C744 1.287 . S
C744 C743 1.287 . S
C744 C745 1.524 . S
C744 H763 0.913 . S
C745 H721 0.950 . S
C745 C744 1.524 . S
C745 C746 1.415 . S
C746 H722 0.950 . S
C746 C741 1.363 . S
C746 C745 1.415 . S
C747 H723 0.951 . S
C747 C748 1.366 . S
C747 C749 1.388 . S
C748 C747 1.366 . S
C748 C752 1.385 . S
C749 H724 0.951 . S
C749 C747 1.388 . S
C749 C750 1.366 . S
C750 C749 1.366 . S
C750 C751 1.414 . S
C750 C753 1.499 . S
C751 H725 0.950 . S
C751 C750 1.414 . S
C751 C752 1.374 . S
C752 H726 0.950 . S
C752 C748 1.385 . S
C752 C751 1.374 . S
C753 C750 1.499 . S
C753 C754 1.373 . S
C753 C755 1.389 . S
C754 H727 0.950 . S
C754 C740 1.377 . S
C754 C753 1.373 . S
C755 C739 1.377 . S
C755 C753 1.389 . S
C755 C756 1.524 . S
C756 C755 1.524 . S
C756 C757 1.397 . S
C756 C761 1.363 . S
C757 H728 0.950 . S
C757 C756 1.397 . S
C757 C758 1.334 . S
C758 H729 0.950 . S
C758 C757 1.334 . S
C758 C759 1.287 . S
C759 C758 1.287 . S
C759 C760 1.524 . S
C759 H762 0.999 . S
C760 H730 0.950 . S
C760 C759 1.524 . S
C760 C761 1.415 . S
C761 H731 0.950 . S
C761 C756 1.363 . S
C761 C760 1.415 . S
H762 C759 0.999 . S
H763 C744 0.913 . S
H764 C782 0.951 . S
H765 C784 0.951 . S
H766 C786 0.950 . S
H767 C787 0.950 . S
H768 C789 0.950 . S
H769 C792 0.950 . S
H770 C793 0.950 . S
H771 C795 0.950 . S
H772 C796 0.950 . S
H773 C797 0.951 . S
H774 C799 0.951 . S
H775 C801 0.950 . S
H776 C802 0.950 . S
H777 C804 0.950 . S
H778 C807 0.950 . S
H779 C808 0.950 . S
H780 C810 0.950 . S
H781 C811 0.950 . S
C782 H764 0.951 . S
C782 C783 1.366 . S
C782 C784 1.388 . S
C783 C782 1.366 . S
C783 C787 1.385 . S
C784 H765 0.951 . S
C784 C782 1.388 . S
C784 C785 1.366 . S
C785 C784 1.366 . S
C785 C786 1.414 . S
C785 C788 1.499 . S
C786 H766 0.950 . S
C786 C785 1.414 . S
C786 C787 1.374 . S
C787 H767 0.950 . S
C787 C783 1.385 . S
C787 C786 1.374 . S
C788 C785 1.499 . S
C788 C789 1.373 . S
C788 C790 1.389 1_554 S
C789 H768 0.950 . S
C789 C788 1.373 . S
C789 C805 1.377 . S
C790 C788 1.389 1_556 S
C790 C791 1.524 . S
C790 C804 1.377 . S
C791 C790 1.524 . S
C791 C792 1.397 . S
C791 C796 1.363 . S
C792 H769 0.950 . S
C792 C791 1.397 . S
C792 C793 1.334 . S
C793 H770 0.950 . S
C793 C792 1.334 . S
C793 C794 1.287 . S
C794 C793 1.287 . S
C794 C795 1.524 . S
C794 H813 0.913 . S
C795 H771 0.950 . S
C795 C794 1.524 . S
C795 C796 1.415 . S
C796 H772 0.950 . S
C796 C791 1.363 . S
C796 C795 1.415 . S
C797 H773 0.951 . S
C797 C798 1.366 . S
C797 C799 1.388 . S
C798 C797 1.366 . S
C798 C802 1.385 . S
C799 H774 0.951 . S
C799 C797 1.388 . S
C799 C800 1.366 . S
C800 C799 1.366 . S
C800 C801 1.414 . S
C800 C803 1.499 . S
C801 H775 0.950 . S
C801 C800 1.414 . S
C801 C802 1.374 . S
C802 H776 0.950 . S
C802 C798 1.385 . S
C802 C801 1.374 . S
C803 C800 1.499 . S
C803 C804 1.373 . S
C803 C805 1.389 1_556 S
C804 H777 0.950 . S
C804 C790 1.377 . S
C804 C803 1.373 . S
C805 C789 1.377 . S
C805 C803 1.389 1_554 S
C805 C806 1.524 . S
C806 C805 1.524 . S
C806 C807 1.397 . S
C806 C811 1.363 . S
C807 H778 0.950 . S
C807 C806 1.397 . S
C807 C808 1.334 . S
C808 H779 0.950 . S
C808 C807 1.334 . S
C808 C809 1.287 . S
C809 C808 1.287 . S
C809 C810 1.524 . S
C809 H812 0.999 . S
C810 H780 0.950 . S
C810 C809 1.524 . S
C810 C811 1.415 . S
C811 H781 0.950 . S
C811 C806 1.363 . S
C811 C810 1.415 . S
H812 C809 0.999 . S
H813 C794 0.913 . S
H814 C832 0.951 . S
H815 C834 0.951 . S
H816 C836 0.950 . S
H817 C837 0.950 . S
H818 C839 0.950 . S
H819 C842 0.950 . S
H820 C843 0.950 . S
H821 C845 0.950 . S
H822 C846 0.950 . S
H823 C847 0.951 . S
H824 C849 0.951 . S
H825 C851 0.950 . S
H826 C852 0.950 . S
H827 C854 0.950 . S
H828 C857 0.950 . S
H829 C858 0.950 . S
H830 C860 0.950 . S
H831 C861 0.950 . S
C832 H814 0.951 . S
C832 C833 1.366 . S
C832 C834 1.388 . S
C833 C832 1.366 . S
C833 C837 1.385 . S
C834 H815 0.951 . S
C834 C832 1.388 . S
C834 C835 1.366 . S
C835 C834 1.366 . S
C835 C836 1.414 . S
C835 C838 1.499 . S
C836 H816 0.950 . S
C836 C835 1.414 . S
C836 C837 1.374 . S
C837 H817 0.950 . S
C837 C833 1.385 . S
C837 C836 1.374 . S
C838 C835 1.499 . S
C838 C839 1.373 . S
C838 C840 1.389 . S
C839 H818 0.950 . S
C839 C838 1.373 . S
C839 C855 1.377 . S
C840 C838 1.389 . S
C840 C841 1.524 . S
C840 C854 1.377 . S
C841 C840 1.524 . S
C841 C842 1.397 . S
C841 C846 1.363 . S
C842 H819 0.950 . S
C842 C841 1.397 . S
C842 C843 1.334 . S
C843 H820 0.950 . S
C843 C842 1.334 . S
C843 C844 1.287 . S
C844 C843 1.287 . S
C844 C845 1.524 . S
C844 H863 0.913 . S
C845 H821 0.950 . S
C845 C844 1.524 . S
C845 C846 1.415 . S
C846 H822 0.950 . S
C846 C841 1.363 . S
C846 C845 1.415 . S
C847 H823 0.951 . S
C847 C848 1.366 . S
C847 C849 1.388 . S
C848 C847 1.366 . S
C848 C852 1.385 . S
C849 H824 0.951 . S
C849 C847 1.388 . S
C849 C850 1.366 . S
C850 C849 1.366 . S
C850 C851 1.414 . S
C850 C853 1.499 . S
C851 H825 0.950 . S
C851 C850 1.414 . S
C851 C852 1.374 . S
C852 H826 0.950 . S
C852 C848 1.385 . S
C852 C851 1.374 . S
C853 C850 1.499 . S
C853 C854 1.373 . S
C853 C855 1.389 . S
C854 H827 0.950 . S
C854 C840 1.377 . S
C854 C853 1.373 . S
C855 C839 1.377 . S
C855 C853 1.389 . S
C855 C856 1.524 . S
C856 C855 1.524 . S
C856 C857 1.397 . S
C856 C861 1.363 . S
C857 H828 0.950 . S
C857 C856 1.397 . S
C857 C858 1.334 . S
C858 H829 0.950 . S
C858 C857 1.334 . S
C858 C859 1.287 . S
C859 C858 1.287 . S
C859 C860 1.524 . S
C859 H862 0.999 . S
C860 H830 0.950 . S
C860 C859 1.524 . S
C860 C861 1.415 . S
C861 H831 0.950 . S
C861 C856 1.363 . S
C861 C860 1.415 . S
H862 C859 0.999 . S
H863 C844 0.913 . S
H864 C882 0.951 . S
H865 C884 0.951 . S
H866 C886 0.950 . S
H867 C887 0.950 . S
H868 C889 0.950 . S
H869 C892 0.950 . S
H870 C893 0.950 . S
H871 C895 0.950 . S
H872 C896 0.950 . S
H873 C897 0.951 1_554 S
H874 C899 0.951 . S
H875 C901 0.950 . S
H876 C902 0.950 . S
H877 C904 0.950 . S
H878 C907 0.950 . S
H879 C908 0.950 . S
H880 C910 0.950 . S
H881 C911 0.950 . S
C882 H864 0.951 . S
C882 C883 1.366 . S
C882 C884 1.388 . S
C883 C882 1.366 . S
C883 C887 1.385 . S
C884 H865 0.951 . S
C884 C882 1.388 . S
C884 C885 1.366 . S
C885 C884 1.366 . S
C885 C886 1.414 . S
C885 C888 1.499 . S
C886 H866 0.950 . S
C886 C885 1.414 . S
C886 C887 1.374 . S
C887 H867 0.950 . S
C887 C883 1.385 . S
C887 C886 1.374 . S
C888 C885 1.499 . S
C888 C889 1.373 . S
C888 C890 1.389 . S
C889 H868 0.950 . S
C889 C888 1.373 . S
C889 C905 1.377 . S
C890 C888 1.389 . S
C890 C891 1.524 . S
C890 C904 1.377 . S
C891 C890 1.524 . S
C891 C892 1.397 . S
C891 C896 1.363 . S
C892 H869 0.950 . S
C892 C891 1.397 . S
C892 C893 1.334 . S
C893 H870 0.950 . S
C893 C892 1.334 . S
C893 C894 1.287 . S
C894 C893 1.287 . S
C894 C895 1.524 . S
C894 H913 0.913 . S
C895 H871 0.950 . S
C895 C894 1.524 . S
C895 C896 1.415 . S
C896 H872 0.950 . S
C896 C891 1.363 . S
C896 C895 1.415 . S
C897 H873 0.951 1_556 S
C897 C898 1.366 . S
C897 C899 1.388 . S
C898 C897 1.366 . S
C898 C902 1.385 . S
C899 H874 0.951 . S
C899 C897 1.388 . S
C899 C900 1.366 . S
C900 C899 1.366 . S
C900 C901 1.414 . S
C900 C903 1.499 . S
C901 H875 0.950 . S
C901 C900 1.414 . S
C901 C902 1.374 . S
C902 H876 0.950 . S
C902 C898 1.385 . S
C902 C901 1.374 . S
C903 C900 1.499 . S
C903 C904 1.373 . S
C903 C905 1.389 . S
C904 H877 0.950 . S
C904 C890 1.377 . S
C904 C903 1.373 . S
C905 C889 1.377 . S
C905 C903 1.389 . S
C905 C906 1.524 . S
C906 C905 1.524 . S
C906 C907 1.397 . S
C906 C911 1.363 . S
C907 H878 0.950 . S
C907 C906 1.397 . S
C907 C908 1.334 . S
C908 H879 0.950 . S
C908 C907 1.334 . S
C908 C909 1.287 . S
C909 C908 1.287 . S
C909 C910 1.524 . S
C909 H912 1.007 . S
C910 H880 0.950 . S
C910 C909 1.524 . S
C910 C911 1.415 . S
C911 H881 0.950 . S
C911 C906 1.363 . S
C911 C910 1.415 . S
H912 C909 1.007 . S
H913 C894 0.913 . S
H914 C932 0.951 . S
H915 C934 0.951 . S
H916 C936 0.950 . S
H917 C937 0.950 . S
H918 C939 0.950 . S
H919 C942 0.950 . S
H920 C943 0.950 . S
H921 C945 0.950 . S
H922 C946 0.950 . S
H923 C947 0.951 . S
H924 C949 0.951 . S
H925 C951 0.950 . S
H926 C952 0.950 . S
H927 C954 0.950 . S
H928 C957 0.950 . S
H929 C958 0.950 . S
H930 C960 0.950 . S
H931 C961 0.950 . S
C932 H914 0.951 . S
C932 C933 1.366 . S
C932 C934 1.388 . S
C933 C932 1.366 . S
C933 C937 1.385 . S
C934 H915 0.951 . S
C934 C932 1.388 . S
C934 C935 1.366 . S
C935 C934 1.366 . S
C935 C936 1.414 . S
C935 C938 1.499 . S
C936 H916 0.950 . S
C936 C935 1.414 . S
C936 C937 1.374 . S
C937 H917 0.950 . S
C937 C933 1.385 . S
C937 C936 1.374 . S
C938 C935 1.499 . S
C938 C939 1.373 . S
C938 C940 1.389 . S
C939 H918 0.950 . S
C939 C938 1.373 . S
C939 C955 1.377 . S
C940 C938 1.389 . S
C940 C941 1.524 . S
C940 C954 1.377 . S
C941 C940 1.524 . S
C941 C942 1.397 . S
C941 C946 1.363 . S
C942 H919 0.950 . S
C942 C941 1.397 . S
C942 C943 1.334 . S
C943 H920 0.950 . S
C943 C942 1.334 . S
C943 C944 1.287 . S
C944 C943 1.287 . S
C944 C945 1.524 . S
C944 H963 0.913 . S
C945 H921 0.950 . S
C945 C944 1.524 . S
C945 C946 1.415 . S
C946 H922 0.950 . S
C946 C941 1.363 . S
C946 C945 1.415 . S
C947 H923 0.951 . S
C947 C948 1.366 . S
C947 C949 1.388 . S
C948 C947 1.366 . S
C948 C952 1.385 . S
C949 H924 0.951 . S
C949 C947 1.388 . S
C949 C950 1.366 . S
C950 C949 1.366 . S
C950 C951 1.414 . S
C950 C953 1.499 . S
C951 H925 0.950 . S
C951 C950 1.414 . S
C951 C952 1.374 . S
C952 H926 0.950 . S
C952 C948 1.385 . S
C952 C951 1.374 . S
C953 C950 1.499 . S
C953 C954 1.373 . S
C953 C955 1.389 . S
C954 H927 0.950 . S
C954 C940 1.377 . S
C954 C953 1.373 . S
C955 C939 1.377 . S
C955 C953 1.389 . S
C955 C956 1.524 . S
C956 C955 1.524 . S
C956 C957 1.397 . S
C956 C961 1.363 . S
C957 H928 0.950 . S
C957 C956 1.397 . S
C957 C958 1.334 . S
C958 H929 0.950 . S
C958 C957 1.334 . S
C958 C959 1.287 . S
C959 C958 1.287 . S
C959 C960 1.524 . S
C959 H962 0.999 . S
C960 H930 0.950 . S
C960 C959 1.524 . S
C960 C961 1.415 . S
C961 H931 0.950 . S
C961 C956 1.363 . S
C961 C960 1.415 . S
H962 C959 0.999 . S
H963 C944 0.913 . S
H964 C982 0.951 . S
H965 C984 0.951 . S
H966 C986 0.950 . S
H967 C987 0.950 . S
H968 C989 0.950 . S
H969 C992 0.950 . S
H970 C993 0.950 . S
H971 C995 0.950 . S
H972 C996 0.950 . S
H973 C997 0.951 . S
H974 C999 0.951 . S
H975 C1001 0.950 . S
H976 C1002 0.950 . S
H977 C1004 0.950 . S
H978 C1007 0.950 . S
H979 C1008 0.950 . S
H980 C1010 0.950 . S
H981 C1011 0.950 . S
C982 H964 0.951 . S
C982 C983 1.366 . S
C982 C984 1.388 . S
C983 C982 1.366 . S
C983 C987 1.385 . S
C984 H965 0.951 . S
C984 C982 1.388 . S
C984 C985 1.366 . S
C985 C984 1.366 . S
C985 C986 1.414 . S
C985 C988 1.499 . S
C986 H966 0.950 . S
C986 C985 1.414 . S
C986 C987 1.374 . S
C987 H967 0.950 . S
C987 C983 1.385 . S
C987 C986 1.374 . S
C988 C985 1.499 . S
C988 C989 1.373 . S
C988 C990 1.389 . S
C989 H968 0.950 . S
C989 C988 1.373 . S
C989 C1005 1.377 . S
C990 C988 1.389 . S
C990 C991 1.524 . S
C990 C1004 1.377 . S
C991 C990 1.524 . S
C991 C992 1.397 . S
C991 C996 1.363 . S
C992 H969 0.950 . S
C992 C991 1.397 . S
C992 C993 1.334 . S
C993 H970 0.950 . S
C993 C992 1.334 . S
C993 C994 1.287 . S
C994 C993 1.287 . S
C994 C995 1.524 . S
C994 H1013 0.913 . S
C995 H971 0.950 . S
C995 C994 1.524 . S
C995 C996 1.415 . S
C996 H972 0.950 . S
C996 C991 1.363 . S
C996 C995 1.415 . S
C997 H973 0.951 . S
C997 C998 1.366 . S
C997 C999 1.388 . S
C998 C997 1.366 . S
C998 C1002 1.385 . S
C999 H974 0.951 . S
C999 C997 1.388 . S
C999 C1000 1.366 . S
C1000 C999 1.366 . S
C1000 C1001 1.414 . S
C1000 C1003 1.499 . S
C1001 H975 0.950 . S
C1001 C1000 1.414 . S
C1001 C1002 1.374 . S
C1002 H976 0.950 . S
C1002 C998 1.385 . S
C1002 C1001 1.374 . S
C1003 C1000 1.499 . S
C1003 C1004 1.373 . S
C1003 C1005 1.389 . S
C1004 H977 0.950 . S
C1004 C990 1.377 . S
C1004 C1003 1.373 . S
C1005 C989 1.377 . S
C1005 C1003 1.389 . S
C1005 C1006 1.524 . S
C1006 C1005 1.524 . S
C1006 C1007 1.397 . S
C1006 C1011 1.363 . S
C1007 H978 0.950 . S
C1007 C1006 1.397 . S
C1007 C1008 1.334 . S
C1008 H979 0.950 . S
C1008 C1007 1.334 . S
C1008 C1009 1.287 . S
C1009 C1008 1.287 . S
C1009 C1010 1.524 . S
C1009 H1012 0.999 . S
C1010 H980 0.950 . S
C1010 C1009 1.524 . S
C1010 C1011 1.415 . S
C1011 H981 0.950 . S
C1011 C1006 1.363 . S
C1011 C1010 1.415 . S
H1012 C1009 0.999 . S
H1013 C994 0.913 . S
H1014 C1032 0.951 . S
H1015 C1034 0.951 . S
H1016 C1036 0.950 . S
H1017 C1037 0.950 . S
H1018 C1039 0.950 . S
H1019 C1042 0.950 . S
H1020 C1043 0.950 . S
H1021 C1045 0.950 . S
H1022 C1046 0.950 . S
H1023 C1047 0.951 . S
H1024 C1049 0.951 . S
H1025 C1051 0.950 . S
H1026 C1052 0.950 . S
H1027 C1054 0.950 . S
H1028 C1057 0.950 . S
H1029 C1058 0.950 . S
H1030 C1060 0.950 . S
H1031 C1061 0.950 . S
C1032 H1014 0.951 . S
C1032 C1033 1.366 . S
C1032 C1034 1.388 . S
C1033 C1032 1.366 . S
C1033 C1037 1.385 . S
C1034 H1015 0.951 . S
C1034 C1032 1.388 . S
C1034 C1035 1.366 . S
C1035 C1034 1.366 . S
C1035 C1036 1.414 . S
C1035 C1038 1.499 . S
C1036 H1016 0.950 . S
C1036 C1035 1.414 . S
C1036 C1037 1.374 . S
C1037 H1017 0.950 . S
C1037 C1033 1.385 . S
C1037 C1036 1.374 . S
C1038 C1035 1.499 . S
C1038 C1039 1.373 . S
C1038 C1040 1.389 . S
C1039 H1018 0.950 . S
C1039 C1038 1.373 . S
C1039 C1055 1.377 . S
C1040 C1038 1.389 . S
C1040 C1041 1.524 . S
C1040 C1054 1.377 . S
C1041 C1040 1.524 . S
C1041 C1042 1.397 . S
C1041 C1046 1.363 . S
C1042 H1019 0.950 . S
C1042 C1041 1.397 . S
C1042 C1043 1.334 . S
C1043 H1020 0.950 . S
C1043 C1042 1.334 . S
C1043 C1044 1.287 . S
C1044 C1043 1.287 . S
C1044 C1045 1.524 . S
C1044 H1063 0.913 . S
C1045 H1021 0.950 . S
C1045 C1044 1.524 . S
C1045 C1046 1.415 . S
C1046 H1022 0.950 . S
C1046 C1041 1.363 . S
C1046 C1045 1.415 . S
C1047 H1023 0.951 . S
C1047 C1048 1.366 . S
C1047 C1049 1.388 . S
C1048 C1047 1.366 . S
C1048 C1052 1.385 . S
C1049 H1024 0.951 . S
C1049 C1047 1.388 . S
C1049 C1050 1.366 . S
C1050 C1049 1.366 . S
C1050 C1051 1.414 . S
C1050 C1053 1.499 . S
C1051 H1025 0.950 . S
C1051 C1050 1.414 . S
C1051 C1052 1.374 . S
C1052 H1026 0.950 . S
C1052 C1048 1.385 . S
C1052 C1051 1.374 . S
C1053 C1050 1.499 . S
C1053 C1054 1.373 . S
C1053 C1055 1.389 . S
C1054 H1027 0.950 . S
C1054 C1040 1.377 . S
C1054 C1053 1.373 . S
C1055 C1039 1.377 . S
C1055 C1053 1.389 . S
C1055 C1056 1.524 . S
C1056 C1055 1.524 . S
C1056 C1057 1.397 . S
C1056 C1061 1.363 . S
C1057 H1028 0.950 . S
C1057 C1056 1.397 . S
C1057 C1058 1.334 . S
C1058 H1029 0.950 . S
C1058 C1057 1.334 . S
C1058 C1059 1.287 . S
C1059 C1058 1.287 . S
C1059 C1060 1.524 . S
C1059 H1062 0.999 . S
C1060 H1030 0.950 . S
C1060 C1059 1.524 . S
C1060 C1061 1.415 . S
C1061 H1031 0.950 . S
C1061 C1056 1.363 . S
C1061 C1060 1.415 . S
H1062 C1059 0.999 . S
H1063 C1044 0.913 . S
H1064 C1082 0.951 . S
H1065 C1084 0.951 . S
H1066 C1086 0.950 . S
H1067 C1087 0.950 . S
H1068 C1089 0.950 . S
H1069 C1092 0.950 . S
H1070 C1093 0.950 . S
H1071 C1095 0.950 . S
H1072 C1096 0.950 . S
H1073 C1097 0.951 . S
H1074 C1099 0.951 . S
H1075 C1101 0.950 . S
H1076 C1102 0.950 . S
H1077 C1104 0.950 . S
H1078 C1107 0.950 . S
H1079 C1108 0.950 . S
H1080 C1110 0.950 . S
H1081 C1111 0.950 . S
C1082 H1064 0.951 . S
C1082 C1083 1.366 . S
C1082 C1084 1.388 . S
C1083 C1082 1.366 . S
C1083 C1087 1.385 . S
C1084 H1065 0.951 . S
C1084 C1082 1.388 . S
C1084 C1085 1.366 . S
C1085 C1084 1.366 . S
C1085 C1086 1.414 . S
C1085 C1088 1.499 . S
C1086 H1066 0.950 . S
C1086 C1085 1.414 . S
C1086 C1087 1.374 . S
C1087 H1067 0.950 . S
C1087 C1083 1.385 . S
C1087 C1086 1.374 . S
C1088 C1085 1.499 . S
C1088 C1089 1.373 . S
C1088 C1090 1.389 . S
C1089 H1068 0.950 . S
C1089 C1088 1.373 . S
C1089 C1105 1.377 . S
C1090 C1088 1.389 . S
C1090 C1091 1.524 . S
C1090 C1104 1.377 . S
C1091 C1090 1.524 . S
C1091 C1092 1.397 . S
C1091 C1096 1.363 . S
C1092 H1069 0.950 . S
C1092 C1091 1.397 . S
C1092 C1093 1.334 . S
C1093 H1070 0.950 . S
C1093 C1092 1.334 . S
C1093 C1094 1.287 . S
C1094 C1093 1.287 . S
C1094 C1095 1.524 . S
C1094 H1113 0.913 . S
C1095 H1071 0.950 . S
C1095 C1094 1.524 . S
C1095 C1096 1.415 . S
C1096 H1072 0.950 . S
C1096 C1091 1.363 . S
C1096 C1095 1.415 . S
C1097 H1073 0.951 . S
C1097 C1098 1.366 . S
C1097 C1099 1.388 . S
C1098 C1097 1.366 . S
C1098 C1102 1.385 . S
C1099 H1074 0.951 . S
C1099 C1097 1.388 . S
C1099 C1100 1.366 . S
C1100 C1099 1.366 . S
C1100 C1101 1.414 . S
C1100 C1103 1.499 . S
C1101 H1075 0.950 . S
C1101 C1100 1.414 . S
C1101 C1102 1.374 . S
C1102 H1076 0.950 . S
C1102 C1098 1.385 . S
C1102 C1101 1.374 . S
C1103 C1100 1.499 . S
C1103 C1104 1.373 . S
C1103 C1105 1.389 . S
C1104 H1077 0.950 . S
C1104 C1090 1.377 . S
C1104 C1103 1.373 . S
C1105 C1089 1.377 . S
C1105 C1103 1.389 . S
C1105 C1106 1.524 . S
C1106 C1105 1.524 . S
C1106 C1107 1.397 . S
C1106 C1111 1.363 . S
C1107 H1078 0.950 . S
C1107 C1106 1.397 . S
C1107 C1108 1.334 . S
C1108 H1079 0.950 . S
C1108 C1107 1.334 . S
C1108 C1109 1.287 . S
C1109 C1108 1.287 . S
C1109 C1110 1.524 . S
C1109 H1112 0.999 . S
C1110 H1080 0.950 . S
C1110 C1109 1.524 . S
C1110 C1111 1.415 . S
C1111 H1081 0.950 . S
C1111 C1106 1.363 . S
C1111 C1110 1.415 . S
H1112 C1109 0.999 . S
H1113 C1094 0.913 . S
H1114 C1132 0.951 . S
H1115 C1134 0.951 . S
H1116 C1136 0.950 . S
H1117 C1137 0.950 . S
H1118 C1139 0.950 . S
H1119 C1142 0.950 . S
H1120 C1143 0.950 . S
H1121 C1145 0.950 . S
H1122 C1146 0.950 . S
H1123 C1147 0.951 . S
H1124 C1149 0.951 . S
H1125 C1151 0.950 . S
H1126 C1152 0.950 . S
H1127 C1154 0.950 . S
H1128 C1157 0.950 . S
H1129 C1158 0.950 . S
H1130 C1160 0.950 . S
H1131 C1161 0.950 . S
C1132 H1114 0.951 . S
C1132 C1133 1.366 . S
C1132 C1134 1.388 . S
C1133 C1132 1.366 . S
C1133 C1137 1.385 . S
C1134 H1115 0.951 . S
C1134 C1132 1.388 . S
C1134 C1135 1.366 . S
C1135 C1134 1.366 . S
C1135 C1136 1.414 . S
C1135 C1138 1.499 . S
C1136 H1116 0.950 . S
C1136 C1135 1.414 . S
C1136 C1137 1.374 . S
C1137 H1117 0.950 . S
C1137 C1133 1.385 . S
C1137 C1136 1.374 . S
C1138 C1135 1.499 . S
C1138 C1139 1.373 . S
C1138 C1140 1.389 . S
C1139 H1118 0.950 . S
C1139 C1138 1.373 . S
C1139 C1155 1.377 . S
C1140 C1138 1.389 . S
C1140 C1141 1.524 . S
C1140 C1154 1.377 . S
C1141 C1140 1.524 . S
C1141 C1142 1.397 . S
C1141 C1146 1.363 . S
C1142 H1119 0.950 . S
C1142 C1141 1.397 . S
C1142 C1143 1.334 . S
C1143 H1120 0.950 . S
C1143 C1142 1.334 . S
C1143 C1144 1.287 . S
C1144 C1143 1.287 . S
C1144 C1145 1.524 . S
C1144 H1163 0.913 . S
C1145 H1121 0.950 . S
C1145 C1144 1.524 . S
C1145 C1146 1.415 . S
C1146 H1122 0.950 . S
C1146 C1141 1.363 . S
C1146 C1145 1.415 . S
C1147 H1123 0.951 . S
C1147 C1148 1.366 . S
C1147 C1149 1.388 . S
C1148 C1147 1.366 . S
C1148 C1152 1.385 . S
C1149 H1124 0.951 . S
C1149 C1147 1.388 . S
C1149 C1150 1.366 . S
C1150 C1149 1.366 . S
C1150 C1151 1.414 . S
C1150 C1153 1.499 . S
C1151 H1125 0.950 . S
C1151 C1150 1.414 . S
C1151 C1152 1.374 . S
C1152 H1126 0.950 . S
C1152 C1148 1.385 . S
C1152 C1151 1.374 . S
C1153 C1150 1.499 . S
C1153 C1154 1.373 . S
C1153 C1155 1.389 . S
C1154 H1127 0.950 . S
C1154 C1140 1.377 . S
C1154 C1153 1.373 . S
C1155 C1139 1.377 . S
C1155 C1153 1.389 . S
C1155 C1156 1.524 . S
C1156 C1155 1.524 . S
C1156 C1157 1.397 . S
C1156 C1161 1.363 . S
C1157 H1128 0.950 . S
C1157 C1156 1.397 . S
C1157 C1158 1.334 . S
C1158 H1129 0.950 . S
C1158 C1157 1.334 . S
C1158 C1159 1.287 . S
C1159 C1158 1.287 . S
C1159 C1160 1.524 . S
C1159 H1162 0.999 . S
C1160 H1130 0.950 . S
C1160 C1159 1.524 . S
C1160 C1161 1.415 . S
C1161 H1131 0.950 . S
C1161 C1156 1.363 . S
C1161 C1160 1.415 . S
H1162 C1159 0.999 . S
H1163 C1144 0.913 . S
H1164 C1182 0.951 . S
H1165 C1184 0.951 . S
H1166 C1186 0.950 . S
H1167 C1187 0.950 . S
H1168 C1189 0.950 . S
H1169 C1192 0.950 . S
H1170 C1193 0.950 . S
H1171 C1195 0.950 . S
H1172 C1196 0.950 . S
H1173 C1197 0.951 . S
H1174 C1199 0.951 . S
H1175 C1201 0.950 . S
H1176 C1202 0.950 . S
H1177 C1204 0.950 . S
H1178 C1207 0.950 . S
H1179 C1208 0.950 . S
H1180 C1210 0.950 . S
H1181 C1211 0.950 . S
C1182 H1164 0.951 . S
C1182 C1183 1.366 . S
C1182 C1184 1.388 . S
C1183 C1182 1.366 . S
C1183 C1187 1.385 . S
C1184 H1165 0.951 . S
C1184 C1182 1.388 . S
C1184 C1185 1.366 . S
C1185 C1184 1.366 . S
C1185 C1186 1.414 . S
C1185 C1188 1.499 . S
C1186 H1166 0.950 . S
C1186 C1185 1.414 . S
C1186 C1187 1.374 . S
C1187 H1167 0.950 . S
C1187 C1183 1.385 . S
C1187 C1186 1.374 . S
C1188 C1185 1.499 . S
C1188 C1189 1.373 . S
C1188 C1190 1.389 . S
C1189 H1168 0.950 . S
C1189 C1188 1.373 . S
C1189 C1205 1.377 . S
C1190 C1188 1.389 . S
C1190 C1191 1.524 . S
C1190 C1204 1.377 . S
C1191 C1190 1.524 . S
C1191 C1192 1.397 . S
C1191 C1196 1.363 . S
C1192 H1169 0.950 . S
C1192 C1191 1.397 . S
C1192 C1193 1.334 . S
C1193 H1170 0.950 . S
C1193 C1192 1.334 . S
C1193 C1194 1.287 . S
C1194 C1193 1.287 . S
C1194 C1195 1.524 . S
C1194 H1213 0.913 . S
C1195 H1171 0.950 . S
C1195 C1194 1.524 . S
C1195 C1196 1.415 . S
C1196 H1172 0.950 . S
C1196 C1191 1.363 . S
C1196 C1195 1.415 . S
C1197 H1173 0.951 . S
C1197 C1198 1.366 . S
C1197 C1199 1.388 . S
C1198 C1197 1.366 . S
C1198 C1202 1.385 . S
C1199 H1174 0.951 . S
C1199 C1197 1.388 . S
C1199 C1200 1.366 . S
C1200 C1199 1.366 . S
C1200 C1201 1.414 . S
C1200 C1203 1.499 . S
C1201 H1175 0.950 . S
C1201 C1200 1.414 . S
C1201 C1202 1.374 . S
C1202 H1176 0.950 . S
C1202 C1198 1.385 . S
C1202 C1201 1.374 . S
C1203 C1200 1.499 . S
C1203 C1204 1.373 . S
C1203 C1205 1.389 . S
C1204 H1177 0.950 . S
C1204 C1190 1.377 . S
C1204 C1203 1.373 . S
C1205 C1189 1.377 . S
C1205 C1203 1.389 . S
C1205 C1206 1.524 . S
C1206 C1205 1.524 . S
C1206 C1207 1.397 . S
C1206 C1211 1.363 . S
C1207 H1178 0.950 . S
C1207 C1206 1.397 . S
C1207 C1208 1.334 . S
C1208 H1179 0.950 . S
C1208 C1207 1.334 . S
C1208 C1209 1.287 . S
C1209 C1208 1.287 . S
C1209 C1210 1.524 . S
C1209 H1212 0.999 . S
C1210 H1180 0.950 . S
C1210 C1209 1.524 . S
C1210 C1211 1.415 . S
C1211 H1181 0.950 . S
C1211 C1206 1.363 . S
C1211 C1210 1.415 . S
H1212 C1209 0.999 . S
H1213 C1194 0.913 . S
H1214 C1232 0.951 1_556 S
H1215 C1234 0.951 . S
H1216 C1236 0.950 . S
H1217 C1237 0.950 . S
H1218 C1239 0.950 . S
H1219 C1242 0.950 . S
H1220 C1243 0.950 . S
H1221 C1245 0.950 1_556 S
H1222 C1246 0.950 . S
H1223 C1247 0.951 . S
H1224 C1249 0.951 . S
H1225 C1251 0.950 . S
H1226 C1252 0.950 . S
H1227 C1254 0.950 . S
H1228 C1257 0.950 . S
H1229 C1258 0.950 . S
H1230 C1260 0.950 . S
H1231 C1261 0.950 . S
C1232 H1214 0.951 1_554 S
C1232 C1233 1.366 . S
C1232 C1234 1.388 . S
C1233 C1232 1.366 . S
C1233 C1237 1.385 . S
C1234 H1215 0.951 . S
C1234 C1232 1.388 . S
C1234 C1235 1.366 . S
C1235 C1234 1.366 . S
C1235 C1236 1.414 . S
C1235 C1238 1.499 . S
C1236 H1216 0.950 . S
C1236 C1235 1.414 . S
C1236 C1237 1.374 . S
C1237 H1217 0.950 . S
C1237 C1233 1.385 . S
C1237 C1236 1.374 . S
C1238 C1235 1.499 . S
C1238 C1239 1.373 . S
C1238 C1240 1.389 . S
C1239 H1218 0.950 . S
C1239 C1238 1.373 . S
C1239 C1255 1.377 . S
C1240 C1238 1.389 . S
C1240 C1241 1.524 . S
C1240 C1254 1.377 . S
C1241 C1240 1.524 . S
C1241 C1242 1.397 . S
C1241 C1246 1.363 . S
C1242 H1219 0.950 . S
C1242 C1241 1.397 . S
C1242 C1243 1.334 . S
C1243 H1220 0.950 . S
C1243 C1242 1.334 . S
C1243 C1244 1.287 . S
C1244 C1243 1.287 . S
C1244 C1245 1.524 . S
C1244 H1263 0.913 1_554 S
C1245 H1221 0.950 1_554 S
C1245 C1244 1.524 . S
C1245 C1246 1.415 . S
C1246 H1222 0.950 . S
C1246 C1241 1.363 . S
C1246 C1245 1.415 . S
C1247 H1223 0.951 . S
C1247 C1248 1.366 . S
C1247 C1249 1.388 . S
C1248 C1247 1.366 . S
C1248 C1252 1.385 . S
C1249 H1224 0.951 . S
C1249 C1247 1.388 . S
C1249 C1250 1.366 . S
C1250 C1249 1.366 . S
C1250 C1251 1.414 . S
C1250 C1253 1.499 . S
C1251 H1225 0.950 . S
C1251 C1250 1.414 . S
C1251 C1252 1.374 . S
C1252 H1226 0.950 . S
C1252 C1248 1.385 . S
C1252 C1251 1.374 . S
C1253 C1250 1.499 . S
C1253 C1254 1.373 . S
C1253 C1255 1.389 . S
C1254 H1227 0.950 . S
C1254 C1240 1.377 . S
C1254 C1253 1.373 . S
C1255 C1239 1.377 . S
C1255 C1253 1.389 . S
C1255 C1256 1.524 . S
C1256 C1255 1.524 . S
C1256 C1257 1.397 . S
C1256 C1261 1.363 . S
C1257 H1228 0.950 . S
C1257 C1256 1.397 . S
C1257 C1258 1.334 . S
C1258 H1229 0.950 . S
C1258 C1257 1.334 . S
C1258 C1259 1.287 . S
C1259 C1258 1.287 . S
C1259 C1260 1.524 . S
C1259 H1262 0.999 . S
C1260 H1230 0.950 . S
C1260 C1259 1.524 . S
C1260 C1261 1.415 . S
C1261 H1231 0.950 . S
C1261 C1256 1.363 . S
C1261 C1260 1.415 . S
H1262 C1259 0.999 . S
H1263 C1244 0.913 1_556 S
H1264 C1282 0.951 . S
H1265 C1284 0.951 . S
H1266 C1286 0.950 . S
H1267 C1287 0.950 . S
H1268 C1289 0.950 . S
H1269 C1292 0.950 . S
H1270 C1293 0.950 . S
H1271 C1295 0.950 . S
H1272 C1296 0.950 . S
H1273 C1297 0.951 . S
H1274 C1299 0.951 . S
H1275 C1301 0.950 . S
H1276 C1302 0.950 . S
H1277 C1304 0.950 . S
H1278 C1307 0.950 . S
H1279 C1308 0.950 . S
H1280 C1310 0.950 . S
H1281 C1311 0.950 . S
C1282 H1264 0.951 . S
C1282 C1283 1.366 . S
C1282 C1284 1.388 . S
C1283 C1282 1.366 . S
C1283 C1287 1.385 . S
C1284 H1265 0.951 . S
C1284 C1282 1.388 . S
C1284 C1285 1.366 . S
C1285 C1284 1.366 . S
C1285 C1286 1.414 . S
C1285 C1288 1.499 . S
C1286 H1266 0.950 . S
C1286 C1285 1.414 . S
C1286 C1287 1.374 . S
C1287 H1267 0.950 . S
C1287 C1283 1.385 . S
C1287 C1286 1.374 . S
C1288 C1285 1.499 . S
C1288 C1289 1.373 . S
C1288 C1290 1.389 . S
C1289 H1268 0.950 . S
C1289 C1288 1.373 . S
C1289 C1305 1.377 . S
C1290 C1288 1.389 . S
C1290 C1291 1.524 . S
C1290 C1304 1.377 . S
C1291 C1290 1.524 . S
C1291 C1292 1.397 . S
C1291 C1296 1.363 . S
C1292 H1269 0.950 . S
C1292 C1291 1.397 . S
C1292 C1293 1.334 . S
C1293 H1270 0.950 . S
C1293 C1292 1.334 . S
C1293 C1294 1.287 . S
C1294 C1293 1.287 . S
C1294 C1295 1.524 . S
C1294 H1313 0.913 . S
C1295 H1271 0.950 . S
C1295 C1294 1.524 . S
C1295 C1296 1.415 . S
C1296 H1272 0.950 . S
C1296 C1291 1.363 . S
C1296 C1295 1.415 . S
C1297 H1273 0.951 . S
C1297 C1298 1.366 . S
C1297 C1299 1.388 . S
C1298 C1297 1.366 . S
C1298 C1302 1.385 . S
C1299 H1274 0.951 . S
C1299 C1297 1.388 . S
C1299 C1300 1.366 . S
C1300 C1299 1.366 . S
C1300 C1301 1.414 . S
C1300 C1303 1.499 . S
C1301 H1275 0.950 . S
C1301 C1300 1.414 . S
C1301 C1302 1.374 . S
C1302 H1276 0.950 . S
C1302 C1298 1.385 . S
C1302 C1301 1.374 . S
C1303 C1300 1.499 . S
C1303 C1304 1.373 . S
C1303 C1305 1.389 . S
C1304 H1277 0.950 . S
C1304 C1290 1.377 . S
C1304 C1303 1.373 . S
C1305 C1289 1.377 . S
C1305 C1303 1.389 . S
C1305 C1306 1.524 . S
C1306 C1305 1.524 . S
C1306 C1307 1.397 . S
C1306 C1311 1.363 . S
C1307 H1278 0.950 . S
C1307 C1306 1.397 . S
C1307 C1308 1.334 . S
C1308 H1279 0.950 . S
C1308 C1307 1.334 . S
C1308 C1309 1.287 . S
C1309 C1308 1.287 . S
C1309 C1310 1.524 . S
C1309 H1312 0.999 . S
C1310 H1280 0.950 . S
C1310 C1309 1.524 . S
C1310 C1311 1.415 . S
C1311 H1281 0.950 . S
C1311 C1306 1.363 . S
C1311 C1310 1.415 . S
H1312 C1309 0.999 . S
H1313 C1294 0.913 . S
H1314 C1332 0.951 . S
H1315 C1334 0.951 . S
H1316 C1336 0.950 . S
H1317 C1337 0.950 . S
H1318 C1339 0.950 . S
H1319 C1342 0.950 . S
H1320 C1343 0.950 . S
H1321 C1345 0.950 . S
H1322 C1346 0.950 . S
H1323 C1347 0.951 . S
H1324 C1349 0.951 . S
H1325 C1351 0.950 . S
H1326 C1352 0.950 . S
H1327 C1354 0.950 . S
H1328 C1357 0.950 . S
H1329 C1358 0.950 . S
H1330 C1360 0.950 . S
H1331 C1361 0.950 . S
C1332 H1314 0.951 . S
C1332 C1333 1.366 . S
C1332 C1334 1.388 . S
C1333 C1332 1.366 . S
C1333 C1337 1.385 . S
C1334 H1315 0.951 . S
C1334 C1332 1.388 . S
C1334 C1335 1.366 . S
C1335 C1334 1.366 . S
C1335 C1336 1.414 . S
C1335 C1338 1.499 . S
C1336 H1316 0.950 . S
C1336 C1335 1.414 . S
C1336 C1337 1.374 . S
C1337 H1317 0.950 . S
C1337 C1333 1.385 . S
C1337 C1336 1.374 . S
C1338 C1335 1.499 . S
C1338 C1339 1.373 . S
C1338 C1340 1.389 . S
C1339 H1318 0.950 . S
C1339 C1338 1.373 . S
C1339 C1355 1.377 . S
C1340 C1338 1.389 . S
C1340 C1341 1.524 . S
C1340 C1354 1.377 . S
C1341 C1340 1.524 . S
C1341 C1342 1.397 . S
C1341 C1346 1.363 . S
C1342 H1319 0.950 . S
C1342 C1341 1.397 . S
C1342 C1343 1.334 . S
C1343 H1320 0.950 . S
C1343 C1342 1.334 . S
C1343 C1344 1.287 . S
C1344 C1343 1.287 . S
C1344 C1345 1.524 . S
C1344 H1363 0.913 . S
C1345 H1321 0.950 . S
C1345 C1344 1.524 . S
C1345 C1346 1.415 . S
C1346 H1322 0.950 . S
C1346 C1341 1.363 . S
C1346 C1345 1.415 . S
C1347 H1323 0.951 . S
C1347 C1348 1.366 . S
C1347 C1349 1.388 . S
C1348 C1347 1.366 . S
C1348 C1352 1.385 . S
C1349 H1324 0.951 . S
C1349 C1347 1.388 . S
C1349 C1350 1.366 . S
C1350 C1349 1.366 . S
C1350 C1351 1.414 . S
C1350 C1353 1.499 . S
C1351 H1325 0.950 . S
C1351 C1350 1.414 . S
C1351 C1352 1.374 . S
C1352 H1326 0.950 . S
C1352 C1348 1.385 . S
C1352 C1351 1.374 . S
C1353 C1350 1.499 . S
C1353 C1354 1.373 . S
C1353 C1355 1.389 . S
C1354 H1327 0.950 . S
C1354 C1340 1.377 . S
C1354 C1353 1.373 . S
C1355 C1339 1.377 . S
C1355 C1353 1.389 . S
C1355 C1356 1.524 . S
C1356 C1355 1.524 . S
C1356 C1357 1.397 . S
C1356 C1361 1.363 . S
C1357 H1328 0.950 . S
C1357 C1356 1.397 . S
C1357 C1358 1.334 . S
C1358 H1329 0.950 . S
C1358 C1357 1.334 . S
C1358 C1359 1.287 . S
C1359 C1358 1.287 . S
C1359 C1360 1.524 . S
C1359 H1362 0.999 . S
C1360 H1330 0.950 . S
C1360 C1359 1.524 . S
C1360 C1361 1.415 . S
C1361 H1331 0.950 . S
C1361 C1356 1.363 . S
C1361 C1360 1.415 . S
H1362 C1359 0.999 . S
H1363 C1344 0.913 . S
H1364 C1382 0.951 . S
H1365 C1384 0.951 . S
H1366 C1386 0.950 . S
H1367 C1387 0.950 . S
H1368 C1389 0.950 . S
H1369 C1392 0.950 . S
H1370 C1393 0.950 . S
H1371 C1395 0.950 . S
H1372 C1396 0.950 . S
H1373 C1397 0.951 1_554 S
H1374 C1399 0.951 . S
H1375 C1401 0.950 . S
H1376 C1402 0.950 . S
H1377 C1404 0.950 . S
H1378 C1407 0.950 . S
H1379 C1408 0.950 1_554 S
H1380 C1410 0.948 1_554 S
H1381 C1411 0.950 . S
C1382 H1364 0.951 . S
C1382 C1383 1.366 . S
C1382 C1384 1.388 . S
C1383 C1382 1.366 . S
C1383 C1387 1.385 . S
C1384 H1365 0.951 . S
C1384 C1382 1.388 . S
C1384 C1385 1.366 . S
C1385 C1384 1.366 . S
C1385 C1386 1.414 . S
C1385 C1388 1.499 . S
C1386 H1366 0.950 . S
C1386 C1385 1.414 . S
C1386 C1387 1.374 . S
C1387 H1367 0.950 . S
C1387 C1383 1.385 . S
C1387 C1386 1.374 . S
C1388 C1385 1.499 . S
C1388 C1389 1.373 . S
C1388 C1390 1.389 . S
C1389 H1368 0.950 . S
C1389 C1388 1.373 . S
C1389 C1405 1.377 . S
C1390 C1388 1.389 . S
C1390 C1391 1.524 . S
C1390 C1404 1.377 . S
C1391 C1390 1.524 . S
C1391 C1392 1.397 . S
C1391 C1396 1.363 . S
C1392 H1369 0.950 . S
C1392 C1391 1.397 . S
C1392 C1393 1.334 . S
C1393 H1370 0.950 . S
C1393 C1392 1.334 . S
C1393 C1394 1.287 . S
C1394 C1393 1.287 . S
C1394 C1395 1.524 . S
C1394 H1413 0.913 . S
C1395 H1371 0.950 . S
C1395 C1394 1.524 . S
C1395 C1396 1.415 . S
C1396 H1372 0.950 . S
C1396 C1391 1.363 . S
C1396 C1395 1.415 . S
C1397 H1373 0.951 1_556 S
C1397 C1398 1.366 . S
C1397 C1399 1.388 . S
C1398 C1397 1.366 . S
C1398 C1402 1.385 . S
C1399 H1374 0.951 . S
C1399 C1397 1.388 . S
C1399 C1400 1.366 . S
C1400 C1399 1.366 . S
C1400 C1401 1.414 . S
C1400 C1403 1.499 . S
C1401 H1375 0.950 . S
C1401 C1400 1.414 . S
C1401 C1402 1.374 . S
C1402 H1376 0.950 . S
C1402 C1398 1.385 . S
C1402 C1401 1.374 . S
C1403 C1400 1.499 . S
C1403 C1404 1.373 . S
C1403 C1405 1.389 . S
C1404 H1377 0.950 . S
C1404 C1390 1.377 . S
C1404 C1403 1.373 . S
C1405 C1389 1.377 . S
C1405 C1403 1.389 . S
C1405 C1406 1.524 . S
C1406 C1405 1.524 . S
C1406 C1407 1.397 . S
C1406 C1411 1.363 . S
C1407 H1378 0.950 . S
C1407 C1406 1.397 . S
C1407 C1408 1.334 . S
C1408 H1379 0.950 1_556 S
C1408 C1407 1.334 . S
C1408 C1409 1.287 1_556 S
C1409 C1408 1.287 1_554 S
C1409 C1410 1.523 1_554 S
C1409 H1412 0.999 . S
C1410 H1380 0.948 1_556 S
C1410 C1409 1.523 1_556 S
C1410 C1411 1.418 . S
C1411 H1381 0.950 . S
C1411 C1406 1.363 . S
C1411 C1410 1.418 . S
H1412 C1409 0.999 . S
H1413 C1394 0.913 . S
H1414 C1432 0.951 . S
H1415 C1434 0.951 . S
H1416 C1436 0.950 . S
H1417 C1437 0.950 . S
H1418 C1439 0.950 . S
H1419 C1442 0.950 . S
H1420 C1443 0.950 . S
H1421 C1445 0.950 . S
H1422 C1446 0.950 . S
H1423 C1447 0.951 . S
H1424 C1449 0.951 . S
H1425 C1451 0.950 . S
H1426 C1452 0.950 . S
H1427 C1454 0.950 . S
H1428 C1457 0.950 . S
H1429 C1458 0.950 . S
H1430 C1460 0.950 . S
H1431 C1461 0.950 . S
C1432 H1414 0.951 . S
C1432 C1433 1.366 . S
C1432 C1434 1.388 . S
C1433 C1432 1.366 . S
C1433 C1437 1.385 . S
C1434 H1415 0.951 . S
C1434 C1432 1.388 . S
C1434 C1435 1.366 . S
C1435 C1434 1.366 . S
C1435 C1436 1.414 . S
C1435 C1438 1.499 . S
C1436 H1416 0.950 . S
C1436 C1435 1.414 . S
C1436 C1437 1.374 . S
C1437 H1417 0.950 . S
C1437 C1433 1.385 . S
C1437 C1436 1.374 . S
C1438 C1435 1.499 . S
C1438 C1439 1.373 . S
C1438 C1440 1.389 . S
C1439 H1418 0.950 . S
C1439 C1438 1.373 . S
C1439 C1455 1.377 . S
C1440 C1438 1.389 . S
C1440 C1441 1.524 . S
C1440 C1454 1.377 . S
C1441 C1440 1.524 . S
C1441 C1442 1.397 . S
C1441 C1446 1.363 . S
C1442 H1419 0.950 . S
C1442 C1441 1.397 . S
C1442 C1443 1.334 . S
C1443 H1420 0.950 . S
C1443 C1442 1.334 . S
C1443 C1444 1.287 . S
C1444 C1443 1.287 . S
C1444 C1445 1.524 . S
C1444 H1463 0.913 . S
C1445 H1421 0.950 . S
C1445 C1444 1.524 . S
C1445 C1446 1.415 . S
C1446 H1422 0.950 . S
C1446 C1441 1.363 . S
C1446 C1445 1.415 . S
C1447 H1423 0.951 . S
C1447 C1448 1.366 . S
C1447 C1449 1.388 . S
C1448 C1447 1.366 . S
C1448 C1452 1.385 . S
C1449 H1424 0.951 . S
C1449 C1447 1.388 . S
C1449 C1450 1.366 . S
C1450 C1449 1.366 . S
C1450 C1451 1.414 . S
C1450 C1453 1.499 . S
C1451 H1425 0.950 . S
C1451 C1450 1.414 . S
C1451 C1452 1.374 . S
C1452 H1426 0.950 . S
C1452 C1448 1.385 . S
C1452 C1451 1.374 . S
C1453 C1450 1.499 . S
C1453 C1454 1.373 . S
C1453 C1455 1.389 . S
C1454 H1427 0.950 . S
C1454 C1440 1.377 . S
C1454 C1453 1.373 . S
C1455 C1439 1.377 . S
C1455 C1453 1.389 . S
C1455 C1456 1.524 . S
C1456 C1455 1.524 . S
C1456 C1457 1.397 . S
C1456 C1461 1.363 . S
C1457 H1428 0.950 . S
C1457 C1456 1.397 . S
C1457 C1458 1.334 . S
C1458 H1429 0.950 . S
C1458 C1457 1.334 . S
C1458 C1459 1.287 . S
C1459 C1458 1.287 . S
C1459 C1460 1.524 . S
C1459 H1462 0.999 . S
C1460 H1430 0.950 . S
C1460 C1459 1.524 . S
C1460 C1461 1.415 . S
C1461 H1431 0.950 . S
C1461 C1456 1.363 . S
C1461 C1460 1.415 . S
H1462 C1459 0.999 . S
H1463 C1444 0.913 . S
H1464 C1482 0.951 . S
H1465 C1484 0.951 . S
H1466 C1486 0.950 . S
H1467 C1487 0.950 . S
H1468 C1489 0.950 . S
H1469 C1492 0.950 . S
H1470 C1493 0.950 . S
H1471 C1495 0.950 . S
H1472 C1496 0.950 . S
H1473 C1497 0.951 . S
H1474 C1499 0.951 . S
H1475 C1501 0.950 . S
H1476 C1502 0.950 . S
H1477 C1504 0.950 . S
H1478 C1507 0.950 . S
H1479 C1508 0.950 . S
H1480 C1510 0.950 . S
H1481 C1511 0.950 . S
C1482 H1464 0.951 . S
C1482 C1483 1.366 . S
C1482 C1484 1.388 . S
C1483 C1482 1.366 . S
C1483 C1487 1.385 . S
C1484 H1465 0.951 . S
C1484 C1482 1.388 . S
C1484 C1485 1.366 . S
C1485 C1484 1.366 . S
C1485 C1486 1.414 . S
C1485 C1488 1.499 . S
C1486 H1466 0.950 . S
C1486 C1485 1.414 . S
C1486 C1487 1.374 . S
C1487 H1467 0.950 . S
C1487 C1483 1.385 . S
C1487 C1486 1.374 . S
C1488 C1485 1.499 . S
C1488 C1489 1.373 . S
C1488 C1490 1.389 . S
C1489 H1468 0.950 . S
C1489 C1488 1.373 . S
C1489 C1505 1.377 . S
C1490 C1488 1.389 . S
C1490 C1491 1.524 . S
C1490 C1504 1.377 . S
C1491 C1490 1.524 . S
C1491 C1492 1.397 . S
C1491 C1496 1.363 . S
C1492 H1469 0.950 . S
C1492 C1491 1.397 . S
C1492 C1493 1.334 . S
C1493 H1470 0.950 . S
C1493 C1492 1.334 . S
C1493 C1494 1.287 . S
C1494 C1493 1.287 . S
C1494 C1495 1.524 . S
C1494 H1513 0.913 . S
C1495 H1471 0.950 . S
C1495 C1494 1.524 . S
C1495 C1496 1.415 . S
C1496 H1472 0.950 . S
C1496 C1491 1.363 . S
C1496 C1495 1.415 . S
C1497 H1473 0.951 . S
C1497 C1498 1.366 . S
C1497 C1499 1.388 . S
C1498 C1497 1.366 . S
C1498 C1502 1.385 . S
C1499 H1474 0.951 . S
C1499 C1497 1.388 . S
C1499 C1500 1.366 . S
C1500 C1499 1.366 . S
C1500 C1501 1.414 . S
C1500 C1503 1.499 . S
C1501 H1475 0.950 . S
C1501 C1500 1.414 . S
C1501 C1502 1.374 . S
C1502 H1476 0.950 . S
C1502 C1498 1.385 . S
C1502 C1501 1.374 . S
C1503 C1500 1.499 . S
C1503 C1504 1.373 . S
C1503 C1505 1.389 . S
C1504 H1477 0.950 . S
C1504 C1490 1.377 . S
C1504 C1503 1.373 . S
C1505 C1489 1.377 . S
C1505 C1503 1.389 . S
C1505 C1506 1.524 . S
C1506 C1505 1.524 . S
C1506 C1507 1.397 . S
C1506 C1511 1.363 . S
C1507 H1478 0.950 . S
C1507 C1506 1.397 . S
C1507 C1508 1.334 . S
C1508 H1479 0.950 . S
C1508 C1507 1.334 . S
C1508 C1509 1.287 . S
C1509 C1508 1.287 . S
C1509 C1510 1.524 . S
C1509 H1512 0.999 . S
C1510 H1480 0.950 . S
C1510 C1509 1.524 . S
C1510 C1511 1.415 . S
C1511 H1481 0.950 . S
C1511 C1506 1.363 . S
C1511 C1510 1.415 . S
H1512 C1509 0.999 . S
H1513 C1494 0.913 . S
H1514 C1532 0.951 1_556 S
H1515 C1534 0.951 . S
H1516 C1536 0.950 . S
H1517 C1537 0.950 . S
H1518 C1539 0.950 . S
H1519 C1542 0.950 . S
H1520 C1543 0.950 . S
H1521 C1545 0.950 . S
H1522 C1546 0.950 . S
H1523 C1547 0.951 . S
H1524 C1549 0.951 . S
H1525 C1551 0.950 . S
H1526 C1552 0.950 . S
H1527 C1554 0.950 . S
H1528 C1557 0.950 . S
H1529 C1558 0.950 . S
H1530 C1560 0.950 . S
H1531 C1561 0.950 . S
C1532 H1514 0.951 1_554 S
C1532 C1533 1.366 . S
C1532 C1534 1.388 . S
C1533 C1532 1.366 . S
C1533 C1537 1.385 . S
C1534 H1515 0.951 . S
C1534 C1532 1.388 . S
C1534 C1535 1.366 . S
C1535 C1534 1.366 . S
C1535 C1536 1.414 . S
C1535 C1538 1.499 . S
C1536 H1516 0.950 . S
C1536 C1535 1.414 . S
C1536 C1537 1.374 . S
C1537 H1517 0.950 . S
C1537 C1533 1.385 . S
C1537 C1536 1.374 . S
C1538 C1535 1.499 . S
C1538 C1539 1.373 . S
C1538 C1540 1.389 . S
C1539 H1518 0.950 . S
C1539 C1538 1.373 . S
C1539 C1555 1.377 . S
C1540 C1538 1.389 . S
C1540 C1541 1.524 . S
C1540 C1554 1.377 . S
C1541 C1540 1.524 . S
C1541 C1542 1.397 . S
C1541 C1546 1.363 . S
C1542 H1519 0.950 . S
C1542 C1541 1.397 . S
C1542 C1543 1.334 . S
C1543 H1520 0.950 . S
C1543 C1542 1.334 . S
C1543 C1544 1.287 . S
C1544 C1543 1.287 . S
C1544 C1545 1.524 . S
C1544 H1563 0.913 . S
C1545 H1521 0.950 . S
C1545 C1544 1.524 . S
C1545 C1546 1.415 . S
C1546 H1522 0.950 . S
C1546 C1541 1.363 . S
C1546 C1545 1.415 . S
C1547 H1523 0.951 . S
C1547 C1548 1.366 . S
C1547 C1549 1.388 . S
C1548 C1547 1.366 . S
C1548 C1552 1.385 . S
C1549 H1524 0.951 . S
C1549 C1547 1.388 . S
C1549 C1550 1.366 . S
C1550 C1549 1.366 . S
C1550 C1551 1.414 . S
C1550 C1553 1.499 . S
C1551 H1525 0.950 . S
C1551 C1550 1.414 . S
C1551 C1552 1.374 . S
C1552 H1526 0.950 . S
C1552 C1548 1.385 . S
C1552 C1551 1.374 . S
C1553 C1550 1.499 . S
C1553 C1554 1.373 . S
C1553 C1555 1.389 . S
C1554 H1527 0.950 . S
C1554 C1540 1.377 . S
C1554 C1553 1.373 . S
C1555 C1539 1.377 . S
C1555 C1553 1.389 . S
C1555 C1556 1.524 . S
C1556 C1555 1.524 . S
C1556 C1557 1.397 . S
C1556 C1561 1.363 . S
C1557 H1528 0.950 . S
C1557 C1556 1.397 . S
C1557 C1558 1.334 . S
C1558 H1529 0.950 . S
C1558 C1557 1.334 . S
C1558 C1559 1.287 . S
C1559 C1558 1.287 . S
C1559 C1560 1.524 . S
C1559 H1562 0.999 . S
C1560 H1530 0.950 . S
C1560 C1559 1.524 . S
C1560 C1561 1.415 . S
C1561 H1531 0.950 . S
C1561 C1556 1.363 . S
C1561 C1560 1.415 . S
H1562 C1559 0.999 . S
H1563 C1544 0.913 . S
H1564 C1582 0.951 . S
H1565 C1584 0.951 . S
H1566 C1586 0.950 . S
H1567 C1587 0.950 . S
H1568 C1589 0.950 . S
H1569 C1592 0.950 . S
H1570 C1593 0.950 . S
H1571 C1595 0.950 . S
H1572 C1596 0.950 . S
H1573 C1597 0.951 . S
H1574 C1599 0.951 . S
H1575 C1601 0.950 . S
H1576 C1602 0.950 . S
H1577 C1604 0.950 . S
H1578 C1607 0.950 . S
H1579 C1608 0.950 . S
H1580 C1610 0.950 . S
H1581 C1611 0.950 . S
C1582 H1564 0.951 . S
C1582 C1583 1.366 . S
C1582 C1584 1.388 . S
C1583 C1582 1.366 . S
C1583 C1587 1.385 . S
C1584 H1565 0.951 . S
C1584 C1582 1.388 . S
C1584 C1585 1.366 . S
C1585 C1584 1.366 . S
C1585 C1586 1.414 . S
C1585 C1588 1.499 . S
C1586 H1566 0.950 . S
C1586 C1585 1.414 . S
C1586 C1587 1.374 . S
C1587 H1567 0.950 . S
C1587 C1583 1.385 . S
C1587 C1586 1.374 . S
C1588 C1585 1.499 . S
C1588 C1589 1.373 . S
C1588 C1590 1.389 . S
C1589 H1568 0.950 . S
C1589 C1588 1.373 . S
C1589 C1605 1.377 . S
C1590 C1588 1.389 . S
C1590 C1591 1.524 . S
C1590 C1604 1.377 . S
C1591 C1590 1.524 . S
C1591 C1592 1.397 . S
C1591 C1596 1.363 . S
C1592 H1569 0.950 . S
C1592 C1591 1.397 . S
C1592 C1593 1.334 . S
C1593 H1570 0.950 . S
C1593 C1592 1.334 . S
C1593 C1594 1.287 . S
C1594 C1593 1.287 . S
C1594 C1595 1.524 . S
C1594 H1613 0.913 . S
C1595 H1571 0.950 . S
C1595 C1594 1.524 . S
C1595 C1596 1.415 . S
C1596 H1572 0.950 . S
C1596 C1591 1.363 . S
C1596 C1595 1.415 . S
C1597 H1573 0.951 . S
C1597 C1598 1.366 . S
C1597 C1599 1.388 . S
C1598 C1597 1.366 . S
C1598 C1602 1.385 . S
C1599 H1574 0.951 . S
C1599 C1597 1.388 . S
C1599 C1600 1.366 . S
C1600 C1599 1.366 . S
C1600 C1601 1.414 . S
C1600 C1603 1.499 . S
C1601 H1575 0.950 . S
C1601 C1600 1.414 . S
C1601 C1602 1.374 . S
C1602 H1576 0.950 . S
C1602 C1598 1.385 . S
C1602 C1601 1.374 . S
C1603 C1600 1.499 . S
C1603 C1604 1.373 . S
C1603 C1605 1.389 . S
C1604 H1577 0.950 . S
C1604 C1590 1.377 . S
C1604 C1603 1.373 . S
C1605 C1589 1.377 . S
C1605 C1603 1.389 . S
C1605 C1606 1.524 . S
C1606 C1605 1.524 . S
C1606 C1607 1.397 . S
C1606 C1611 1.363 . S
C1607 H1578 0.950 . S
C1607 C1606 1.397 . S
C1607 C1608 1.334 . S
C1608 H1579 0.950 . S
C1608 C1607 1.334 . S
C1608 C1609 1.287 . S
C1609 C1608 1.287 . S
C1609 C1610 1.524 . S
C1609 H1612 0.999 . S
C1610 H1580 0.950 . S
C1610 C1609 1.524 . S
C1610 C1611 1.415 . S
C1611 H1581 0.950 . S
C1611 C1606 1.363 . S
C1611 C1610 1.415 . S
H1612 C1609 0.999 . S
H1613 C1594 0.913 . S
H1614 C1632 0.951 . S
H1615 C1634 0.951 . S
H1616 C1636 0.950 . S
H1617 C1637 0.950 . S
H1618 C1639 0.950 . S
H1619 C1642 0.950 . S
H1620 C1643 0.950 . S
H1621 C1645 0.950 . S
H1622 C1646 0.950 . S
H1623 C1647 0.951 . S
H1624 C1649 0.951 . S
H1625 C1651 0.950 . S
H1626 C1652 0.950 . S
H1627 C1654 0.950 . S
H1628 C1657 0.950 . S
H1629 C1658 0.950 . S
H1630 C1660 0.950 . S
H1631 C1661 0.950 . S
C1632 H1614 0.951 . S
C1632 C1633 1.366 . S
C1632 C1634 1.388 . S
C1633 C1632 1.366 . S
C1633 C1637 1.385 . S
C1634 H1615 0.951 . S
C1634 C1632 1.388 . S
C1634 C1635 1.366 . S
C1635 C1634 1.366 . S
C1635 C1636 1.414 . S
C1635 C1638 1.499 . S
C1636 H1616 0.950 . S
C1636 C1635 1.414 . S
C1636 C1637 1.374 . S
C1637 H1617 0.950 . S
C1637 C1633 1.385 . S
C1637 C1636 1.374 . S
C1638 C1635 1.499 . S
C1638 C1639 1.373 . S
C1638 C1640 1.389 . S
C1639 H1618 0.950 . S
C1639 C1638 1.373 . S
C1639 C1655 1.377 . S
C1640 C1638 1.389 . S
C1640 C1641 1.524 . S
C1640 C1654 1.377 . S
C1641 C1640 1.524 . S
C1641 C1642 1.397 . S
C1641 C1646 1.363 . S
C1642 H1619 0.950 . S
C1642 C1641 1.397 . S
C1642 C1643 1.334 . S
C1643 H1620 0.950 . S
C1643 C1642 1.334 . S
C1643 C1644 1.287 . S
C1644 C1643 1.287 . S
C1644 C1645 1.524 . S
C1644 H1663 0.913 . S
C1645 H1621 0.950 . S
C1645 C1644 1.524 . S
C1645 C1646 1.415 . S
C1646 H1622 0.950 . S
C1646 C1641 1.363 . S
C1646 C1645 1.415 . S
C1647 H1623 0.951 . S
C1647 C1648 1.366 . S
C1647 C1649 1.388 . S
C1648 C1647 1.366 . S
C1648 C1652 1.385 . S
C1649 H1624 0.951 . S
C1649 C1647 1.388 . S
C1649 C1650 1.366 . S
C1650 C1649 1.366 . S
C1650 C1651 1.414 . S
C1650 C1653 1.499 . S
C1651 H1625 0.950 . S
C1651 C1650 1.414 . S
C1651 C1652 1.374 . S
C1652 H1626 0.950 . S
C1652 C1648 1.385 . S
C1652 C1651 1.374 . S
C1653 C1650 1.499 . S
C1653 C1654 1.373 . S
C1653 C1655 1.389 . S
C1654 H1627 0.950 . S
C1654 C1640 1.377 . S
C1654 C1653 1.373 . S
C1655 C1639 1.377 . S
C1655 C1653 1.389 . S
C1655 C1656 1.524 . S
C1656 C1655 1.524 . S
C1656 C1657 1.397 . S
C1656 C1661 1.363 . S
C1657 H1628 0.950 . S
C1657 C1656 1.397 . S
C1657 C1658 1.334 . S
C1658 H1629 0.950 . S
C1658 C1657 1.334 . S
C1658 C1659 1.287 . S
C1659 C1658 1.287 . S
C1659 C1660 1.524 . S
C1659 H1662 0.999 . S
C1660 H1630 0.950 . S
C1660 C1659 1.524 . S
C1660 C1661 1.415 . S
C1661 H1631 0.950 . S
C1661 C1656 1.363 . S
C1661 C1660 1.415 . S
H1662 C1659 0.999 . S
H1663 C1644 0.913 . S
H1664 C1682 0.951 . S
H1665 C1684 0.951 . S
H1666 C1686 0.950 . S
H1667 C1687 0.950 . S
H1668 C1689 0.950 . S
H1669 C1692 0.950 . S
H1670 C1693 0.950 . S
H1671 C1695 0.950 . S
H1672 C1696 0.950 . S
H1673 C1697 0.951 . S
H1674 C1699 0.951 . S
H1675 C1701 0.950 . S
H1676 C1702 0.950 . S
H1677 C1704 0.950 . S
H1678 C1707 0.950 . S
H1679 C1708 0.950 . S
H1680 C1710 0.950 . S
H1681 C1711 0.950 . S
C1682 H1664 0.951 . S
C1682 C1683 1.366 . S
C1682 C1684 1.388 . S
C1683 C1682 1.366 . S
C1683 C1687 1.385 . S
C1684 H1665 0.951 . S
C1684 C1682 1.388 . S
C1684 C1685 1.366 . S
C1685 C1684 1.366 . S
C1685 C1686 1.414 . S
C1685 C1688 1.499 . S
C1686 H1666 0.950 . S
C1686 C1685 1.414 . S
C1686 C1687 1.374 . S
C1687 H1667 0.950 . S
C1687 C1683 1.385 . S
C1687 C1686 1.374 . S
C1688 C1685 1.499 . S
C1688 C1689 1.373 . S
C1688 C1690 1.389 . S
C1689 H1668 0.950 . S
C1689 C1688 1.373 . S
C1689 C1705 1.377 . S
C1690 C1688 1.389 . S
C1690 C1691 1.524 . S
C1690 C1704 1.377 . S
C1691 C1690 1.524 . S
C1691 C1692 1.397 . S
C1691 C1696 1.363 . S
C1692 H1669 0.950 . S
C1692 C1691 1.397 . S
C1692 C1693 1.334 . S
C1693 H1670 0.950 . S
C1693 C1692 1.334 . S
C1693 C1694 1.287 . S
C1694 C1693 1.287 . S
C1694 C1695 1.524 . S
C1694 H1713 0.913 . S
C1695 H1671 0.950 . S
C1695 C1694 1.524 . S
C1695 C1696 1.415 . S
C1696 H1672 0.950 . S
C1696 C1691 1.363 . S
C1696 C1695 1.415 . S
C1697 H1673 0.951 . S
C1697 C1698 1.366 . S
C1697 C1699 1.388 . S
C1698 C1697 1.366 . S
C1698 C1702 1.385 . S
C1699 H1674 0.951 . S
C1699 C1697 1.388 . S
C1699 C1700 1.366 . S
C1700 C1699 1.366 . S
C1700 C1701 1.414 . S
C1700 C1703 1.499 . S
C1701 H1675 0.950 . S
C1701 C1700 1.414 . S
C1701 C1702 1.374 . S
C1702 H1676 0.950 . S
C1702 C1698 1.385 . S
C1702 C1701 1.374 . S
C1703 C1700 1.499 . S
C1703 C1704 1.373 . S
C1703 C1705 1.389 . S
C1704 H1677 0.950 . S
C1704 C1690 1.377 . S
C1704 C1703 1.373 . S
C1705 C1689 1.377 . S
C1705 C1703 1.389 . S
C1705 C1706 1.524 . S
C1706 C1705 1.524 . S
C1706 C1707 1.397 . S
C1706 C1711 1.363 . S
C1707 H1678 0.950 . S
C1707 C1706 1.397 . S
C1707 C1708 1.334 . S
C1708 H1679 0.950 . S
C1708 C1707 1.334 . S
C1708 C1709 1.287 . S
C1709 C1708 1.287 . S
C1709 C1710 1.524 . S
C1709 H1712 0.999 . S
C1710 H1680 0.950 . S
C1710 C1709 1.524 . S
C1710 C1711 1.415 . S
C1711 H1681 0.950 . S
C1711 C1706 1.363 . S
C1711 C1710 1.415 . S
H1712 C1709 0.999 . S
H1713 C1694 0.913 . S
H1714 C1732 0.951 . S
H1715 C1734 0.951 . S
H1716 C1736 0.950 . S
H1717 C1737 0.950 . S
H1718 C1739 0.950 . S
H1719 C1742 0.950 . S
H1720 C1743 0.950 . S
H1721 C1745 0.950 . S
H1722 C1746 0.950 . S
H1723 C1747 0.951 . S
H1724 C1749 0.951 . S
H1725 C1751 0.950 . S
H1726 C1752 0.950 . S
H1727 C1754 0.950 . S
H1728 C1757 0.950 . S
H1729 C1758 0.950 . S
H1730 C1760 0.950 . S
H1731 C1761 0.950 . S
C1732 H1714 0.951 . S
C1732 C1733 1.366 . S
C1732 C1734 1.388 . S
C1733 C1732 1.366 . S
C1733 C1737 1.385 . S
C1734 H1715 0.951 . S
C1734 C1732 1.388 . S
C1734 C1735 1.366 . S
C1735 C1734 1.366 . S
C1735 C1736 1.414 . S
C1735 C1738 1.499 . S
C1736 H1716 0.950 . S
C1736 C1735 1.414 . S
C1736 C1737 1.374 . S
C1737 H1717 0.950 . S
C1737 C1733 1.385 . S
C1737 C1736 1.374 . S
C1738 C1735 1.499 . S
C1738 C1739 1.373 . S
C1738 C1740 1.389 . S
C1739 H1718 0.950 . S
C1739 C1738 1.373 . S
C1739 C1755 1.377 . S
C1740 C1738 1.389 . S
C1740 C1741 1.524 . S
C1740 C1754 1.377 . S
C1741 C1740 1.524 . S
C1741 C1742 1.397 . S
C1741 C1746 1.363 . S
C1742 H1719 0.950 . S
C1742 C1741 1.397 . S
C1742 C1743 1.334 . S
C1743 H1720 0.950 . S
C1743 C1742 1.334 . S
C1743 C1744 1.287 . S
C1744 C1743 1.287 . S
C1744 C1745 1.524 . S
C1744 H1763 0.913 . S
C1745 H1721 0.950 . S
C1745 C1744 1.524 . S
C1745 C1746 1.415 . S
C1746 H1722 0.950 . S
C1746 C1741 1.363 . S
C1746 C1745 1.415 . S
C1747 H1723 0.951 . S
C1747 C1748 1.366 . S
C1747 C1749 1.388 . S
C1748 C1747 1.366 . S
C1748 C1752 1.385 . S
C1749 H1724 0.951 . S
C1749 C1747 1.388 . S
C1749 C1750 1.366 . S
C1750 C1749 1.366 . S
C1750 C1751 1.414 . S
C1750 C1753 1.499 . S
C1751 H1725 0.950 . S
C1751 C1750 1.414 . S
C1751 C1752 1.374 . S
C1752 H1726 0.950 . S
C1752 C1748 1.385 . S
C1752 C1751 1.374 . S
C1753 C1750 1.499 . S
C1753 C1754 1.373 . S
C1753 C1755 1.389 . S
C1754 H1727 0.950 . S
C1754 C1740 1.377 . S
C1754 C1753 1.373 . S
C1755 C1739 1.377 . S
C1755 C1753 1.389 . S
C1755 C1756 1.524 . S
C1756 C1755 1.524 . S
C1756 C1757 1.397 . S
C1756 C1761 1.363 . S
C1757 H1728 0.950 . S
C1757 C1756 1.397 . S
C1757 C1758 1.334 . S
C1758 H1729 0.950 . S
C1758 C1757 1.334 . S
C1758 C1759 1.287 . S
C1759 C1758 1.287 . S
C1759 C1760 1.524 . S
C1759 H1762 0.999 . S
C1760 H1730 0.950 . S
C1760 C1759 1.524 . S
C1760 C1761 1.415 . S
C1761 H1731 0.950 . S
C1761 C1756 1.363 . S
C1761 C1760 1.415 . S
H1762 C1759 0.999 . S
H1763 C1744 0.913 . S
H1764 C1782 0.951 . S
H1765 C1784 0.951 . S
H1766 C1786 0.950 . S
H1767 C1787 0.950 . S
H1768 C1789 0.950 . S
H1769 C1792 0.950 . S
H1770 C1793 0.950 . S
H1771 C1795 0.950 . S
H1772 C1796 0.950 . S
H1773 C1797 0.951 . S
H1774 C1799 0.951 . S
H1775 C1801 0.950 . S
H1776 C1802 0.950 . S
H1777 C1804 0.950 . S
H1778 C1807 0.950 . S
H1779 C1808 0.950 . S
H1780 C1810 0.950 . S
H1781 C1811 0.950 . S
C1782 H1764 0.951 . S
C1782 C1783 1.366 . S
C1782 C1784 1.388 . S
C1783 C1782 1.366 . S
C1783 C1787 1.385 . S
C1784 H1765 0.951 . S
C1784 C1782 1.388 . S
C1784 C1785 1.366 . S
C1785 C1784 1.366 . S
C1785 C1786 1.414 . S
C1785 C1788 1.499 . S
C1786 H1766 0.950 . S
C1786 C1785 1.414 . S
C1786 C1787 1.374 . S
C1787 H1767 0.950 . S
C1787 C1783 1.385 . S
C1787 C1786 1.374 . S
C1788 C1785 1.499 . S
C1788 C1789 1.373 . S
C1788 C1790 1.389 . S
C1789 H1768 0.950 . S
C1789 C1788 1.373 . S
C1789 C1805 1.377 . S
C1790 C1788 1.389 . S
C1790 C1791 1.524 . S
C1790 C1804 1.377 . S
C1791 C1790 1.524 . S
C1791 C1792 1.397 . S
C1791 C1796 1.363 . S
C1792 H1769 0.950 . S
C1792 C1791 1.397 . S
C1792 C1793 1.334 . S
C1793 H1770 0.950 . S
C1793 C1792 1.334 . S
C1793 C1794 1.287 . S
C1794 C1793 1.287 . S
C1794 C1795 1.524 . S
C1794 H1813 0.913 . S
C1795 H1771 0.950 . S
C1795 C1794 1.524 . S
C1795 C1796 1.415 . S
C1796 H1772 0.950 . S
C1796 C1791 1.363 . S
C1796 C1795 1.415 . S
C1797 H1773 0.951 . S
C1797 C1798 1.366 . S
C1797 C1799 1.388 . S
C1798 C1797 1.366 . S
C1798 C1802 1.385 . S
C1799 H1774 0.951 . S
C1799 C1797 1.388 . S
C1799 C1800 1.366 . S
C1800 C1799 1.366 . S
C1800 C1801 1.414 . S
C1800 C1803 1.499 . S
C1801 H1775 0.950 . S
C1801 C1800 1.414 . S
C1801 C1802 1.374 . S
C1802 H1776 0.950 . S
C1802 C1798 1.385 . S
C1802 C1801 1.374 . S
C1803 C1800 1.499 . S
C1803 C1804 1.373 . S
C1803 C1805 1.389 . S
C1804 H1777 0.950 . S
C1804 C1790 1.377 . S
C1804 C1803 1.373 . S
C1805 C1789 1.377 . S
C1805 C1803 1.389 . S
C1805 C1806 1.524 . S
C1806 C1805 1.524 . S
C1806 C1807 1.397 . S
C1806 C1811 1.363 . S
C1807 H1778 0.950 . S
C1807 C1806 1.397 . S
C1807 C1808 1.334 . S
C1808 H1779 0.950 . S
C1808 C1807 1.334 . S
C1808 C1809 1.287 . S
C1809 C1808 1.287 . S
C1809 C1810 1.524 . S
C1809 H1812 0.999 . S
C1810 H1780 0.950 . S
C1810 C1809 1.524 . S
C1810 C1811 1.415 . S
C1811 H1781 0.950 . S
C1811 C1806 1.363 . S
C1811 C1810 1.415 . S
H1812 C1809 0.999 . S
H1813 C1794 0.913 . S
H1814 C1832 0.951 . S
H1815 C1834 0.951 . S
H1816 C1836 0.950 . S
H1817 C1837 0.950 . S
H1818 C1839 0.950 . S
H1819 C1842 0.950 . S
H1820 C1843 0.950 . S
H1821 C1845 0.950 . S
H1822 C1846 0.950 . S
H1823 C1847 0.951 . S
H1824 C1849 0.951 . S
H1825 C1851 0.950 . S
H1826 C1852 0.950 . S
H1827 C1854 0.950 . S
H1828 C1857 0.950 . S
H1829 C1858 0.950 . S
H1830 C1860 0.950 . S
H1831 C1861 0.950 . S
C1832 H1814 0.951 . S
C1832 C1833 1.366 . S
C1832 C1834 1.388 . S
C1833 C1832 1.366 . S
C1833 C1837 1.385 . S
C1834 H1815 0.951 . S
C1834 C1832 1.388 . S
C1834 C1835 1.366 . S
C1835 C1834 1.366 . S
C1835 C1836 1.414 . S
C1835 C1838 1.499 . S
C1836 H1816 0.950 . S
C1836 C1835 1.414 . S
C1836 C1837 1.374 . S
C1837 H1817 0.950 . S
C1837 C1833 1.385 . S
C1837 C1836 1.374 . S
C1838 C1835 1.499 . S
C1838 C1839 1.373 . S
C1838 C1840 1.389 . S
C1839 H1818 0.950 . S
C1839 C1838 1.373 . S
C1839 C1855 1.377 . S
C1840 C1838 1.389 . S
C1840 C1841 1.524 . S
C1840 C1854 1.377 . S
C1841 C1840 1.524 . S
C1841 C1842 1.397 . S
C1841 C1846 1.363 . S
C1842 H1819 0.950 . S
C1842 C1841 1.397 . S
C1842 C1843 1.334 . S
C1843 H1820 0.950 . S
C1843 C1842 1.334 . S
C1843 C1844 1.287 . S
C1844 C1843 1.287 . S
C1844 C1845 1.524 . S
C1844 H1863 0.913 . S
C1845 H1821 0.950 . S
C1845 C1844 1.524 . S
C1845 C1846 1.415 . S
C1846 H1822 0.950 . S
C1846 C1841 1.363 . S
C1846 C1845 1.415 . S
C1847 H1823 0.951 . S
C1847 C1848 1.366 . S
C1847 C1849 1.388 . S
C1848 C1847 1.366 . S
C1848 C1852 1.385 . S
C1849 H1824 0.951 . S
C1849 C1847 1.388 . S
C1849 C1850 1.366 . S
C1850 C1849 1.366 . S
C1850 C1851 1.414 . S
C1850 C1853 1.499 . S
C1851 H1825 0.950 . S
C1851 C1850 1.414 . S
C1851 C1852 1.374 . S
C1852 H1826 0.950 . S
C1852 C1848 1.385 . S
C1852 C1851 1.374 . S
C1853 C1850 1.499 . S
C1853 C1854 1.373 . S
C1853 C1855 1.389 . S
C1854 H1827 0.950 . S
C1854 C1840 1.377 . S
C1854 C1853 1.373 . S
C1855 C1839 1.377 . S
C1855 C1853 1.389 . S
C1855 C1856 1.524 . S
C1856 C1855 1.524 . S
C1856 C1857 1.397 . S
C1856 C1861 1.363 . S
C1857 H1828 0.950 . S
C1857 C1856 1.397 . S
C1857 C1858 1.334 . S
C1858 H1829 0.950 . S
C1858 C1857 1.334 . S
C1858 C1859 1.287 . S
C1859 C1858 1.287 . S
C1859 C1860 1.524 . S
C1859 H1862 0.999 . S
C1860 H1830 0.950 . S
C1860 C1859 1.524 . S
C1860 C1861 1.415 . S
C1861 H1831 0.950 . S
C1861 C1856 1.363 . S
C1861 C1860 1.415 . S
H1862 C1859 0.999 . S
H1863 C1844 0.913 . S
H1864 C1882 0.951 . S
H1865 C1884 0.951 . S
H1866 C1886 0.950 . S
H1867 C1887 0.950 . S
H1868 C1889 0.950 . S
H1869 C1892 0.950 . S
H1870 C1893 0.950 . S
H1871 C1895 0.950 . S
H1872 C1896 0.950 . S
H1873 C1897 0.951 . S
H1874 C1899 0.951 . S
H1875 C1901 0.950 . S
H1876 C1902 0.950 . S
H1877 C1904 0.950 . S
H1878 C1907 0.950 . S
H1879 C1908 0.950 . S
H1880 C1910 0.950 . S
H1881 C1911 0.950 . S
C1882 H1864 0.951 . S
C1882 C1883 1.366 . S
C1882 C1884 1.388 . S
C1883 C1882 1.366 . S
C1883 C1887 1.385 . S
C1884 H1865 0.951 . S
C1884 C1882 1.388 . S
C1884 C1885 1.366 . S
C1885 C1884 1.366 . S
C1885 C1886 1.414 . S
C1885 C1888 1.499 . S
C1886 H1866 0.950 . S
C1886 C1885 1.414 . S
C1886 C1887 1.374 . S
C1887 H1867 0.950 . S
C1887 C1883 1.385 . S
C1887 C1886 1.374 . S
C1888 C1885 1.499 . S
C1888 C1889 1.373 . S
C1888 C1890 1.389 . S
C1889 H1868 0.950 . S
C1889 C1888 1.373 . S
C1889 C1905 1.377 . S
C1890 C1888 1.389 . S
C1890 C1891 1.524 . S
C1890 C1904 1.377 . S
C1891 C1890 1.524 . S
C1891 C1892 1.397 . S
C1891 C1896 1.363 . S
C1892 H1869 0.950 . S
C1892 C1891 1.397 . S
C1892 C1893 1.334 . S
C1893 H1870 0.950 . S
C1893 C1892 1.334 . S
C1893 C1894 1.287 . S
C1894 C1893 1.287 . S
C1894 C1895 1.524 . S
C1894 H1913 0.913 . S
C1895 H1871 0.950 . S
C1895 C1894 1.524 . S
C1895 C1896 1.415 . S
C1896 H1872 0.950 . S
C1896 C1891 1.363 . S
C1896 C1895 1.415 . S
C1897 H1873 0.951 . S
C1897 C1898 1.366 . S
C1897 C1899 1.388 . S
C1898 C1897 1.366 . S
C1898 C1902 1.385 . S
C1899 H1874 0.951 . S
C1899 C1897 1.388 . S
C1899 C1900 1.366 . S
C1900 C1899 1.366 . S
C1900 C1901 1.414 . S
C1900 C1903 1.499 . S
C1901 H1875 0.950 . S
C1901 C1900 1.414 . S
C1901 C1902 1.374 . S
C1902 H1876 0.950 . S
C1902 C1898 1.385 . S
C1902 C1901 1.374 . S
C1903 C1900 1.499 . S
C1903 C1904 1.373 . S
C1903 C1905 1.389 . S
C1904 H1877 0.950 . S
C1904 C1890 1.377 . S
C1904 C1903 1.373 . S
C1905 C1889 1.377 . S
C1905 C1903 1.389 . S
C1905 C1906 1.524 . S
C1906 C1905 1.524 . S
C1906 C1907 1.397 . S
C1906 C1911 1.363 . S
C1907 H1878 0.950 . S
C1907 C1906 1.397 . S
C1907 C1908 1.334 . S
C1908 H1879 0.950 . S
C1908 C1907 1.334 . S
C1908 C1909 1.287 . S
C1909 C1908 1.287 . S
C1909 C1910 1.524 . S
C1909 H1912 0.999 . S
C1910 H1880 0.950 . S
C1910 C1909 1.524 . S
C1910 C1911 1.415 . S
C1911 H1881 0.950 . S
C1911 C1906 1.363 . S
C1911 C1910 1.415 . S
H1912 C1909 0.999 . S
H1913 C1894 0.913 . S
H1914 C1932 0.951 . S
H1915 C1934 0.951 . S
H1916 C1936 0.950 . S
H1917 C1937 0.950 . S
H1918 C1939 0.950 . S
H1919 C1942 0.950 . S
H1920 C1943 0.950 . S
H1921 C1945 0.950 . S
H1922 C1946 0.950 . S
H1923 C1947 0.951 . S
H1924 C1949 0.951 . S
H1925 C1951 0.950 . S
H1926 C1952 0.950 . S
H1927 C1954 0.950 . S
H1928 C1957 0.950 . S
H1929 C1958 0.950 . S
H1930 C1960 0.950 . S
H1931 C1961 0.950 . S
C1932 H1914 0.951 . S
C1932 C1933 1.366 . S
C1932 C1934 1.388 . S
C1933 C1932 1.366 . S
C1933 C1937 1.385 . S
C1934 H1915 0.951 . S
C1934 C1932 1.388 . S
C1934 C1935 1.366 . S
C1935 C1934 1.366 . S
C1935 C1936 1.414 . S
C1935 C1938 1.499 . S
C1936 H1916 0.950 . S
C1936 C1935 1.414 . S
C1936 C1937 1.374 . S
C1937 H1917 0.950 . S
C1937 C1933 1.385 . S
C1937 C1936 1.374 . S
C1938 C1935 1.499 . S
C1938 C1939 1.373 . S
C1938 C1940 1.389 . S
C1939 H1918 0.950 . S
C1939 C1938 1.373 . S
C1939 C1955 1.377 . S
C1940 C1938 1.389 . S
C1940 C1941 1.524 . S
C1940 C1954 1.377 . S
C1941 C1940 1.524 . S
C1941 C1942 1.397 . S
C1941 C1946 1.363 . S
C1942 H1919 0.950 . S
C1942 C1941 1.397 . S
C1942 C1943 1.334 . S
C1943 H1920 0.950 . S
C1943 C1942 1.334 . S
C1943 C1944 1.287 . S
C1944 C1943 1.287 . S
C1944 C1945 1.524 . S
C1944 H1963 0.913 . S
C1945 H1921 0.950 . S
C1945 C1944 1.524 . S
C1945 C1946 1.415 . S
C1946 H1922 0.950 . S
C1946 C1941 1.363 . S
C1946 C1945 1.415 . S
C1947 H1923 0.951 . S
C1947 C1948 1.366 . S
C1947 C1949 1.388 . S
C1948 C1947 1.366 . S
C1948 C1952 1.385 . S
C1949 H1924 0.951 . S
C1949 C1947 1.388 . S
C1949 C1950 1.366 . S
C1950 C1949 1.366 . S
C1950 C1951 1.414 . S
C1950 C1953 1.499 . S
C1951 H1925 0.950 . S
C1951 C1950 1.414 . S
C1951 C1952 1.374 . S
C1952 H1926 0.950 . S
C1952 C1948 1.385 . S
C1952 C1951 1.374 . S
C1953 C1950 1.499 . S
C1953 C1954 1.373 . S
C1953 C1955 1.389 . S
C1954 H1927 0.950 . S
C1954 C1940 1.377 . S
C1954 C1953 1.373 . S
C1955 C1939 1.377 . S
C1955 C1953 1.389 . S
C1955 C1956 1.524 . S
C1956 C1955 1.524 . S
C1956 C1957 1.397 . S
C1956 C1961 1.363 . S
C1957 H1928 0.950 . S
C1957 C1956 1.397 . S
C1957 C1958 1.334 . S
C1958 H1929 0.950 . S
C1958 C1957 1.334 . S
C1958 C1959 1.287 . S
C1959 C1958 1.287 . S
C1959 C1960 1.524 . S
C1959 H1962 0.999 . S
C1960 H1930 0.950 . S
C1960 C1959 1.524 . S
C1960 C1961 1.415 . S
C1961 H1931 0.950 . S
C1961 C1956 1.363 . S
C1961 C1960 1.415 . S
H1962 C1959 0.999 . S
H1963 C1944 0.913 . S
H1964 C1982 0.951 . S
H1965 C1984 0.951 . S
H1966 C1986 0.950 . S
H1967 C1987 0.950 . S
H1968 C1989 0.950 . S
H1969 C1992 0.950 . S
H1970 C1993 0.950 . S
H1971 C1995 0.950 . S
H1972 C1996 0.950 . S
H1973 C1997 0.951 . S
H1974 C1999 0.951 . S
H1975 C2001 0.950 . S
H1976 C2002 0.950 . S
H1977 C2004 0.950 . S
H1978 C2007 0.950 . S
H1979 C2008 0.950 . S
H1980 C2010 0.950 . S
H1981 C2011 0.950 . S
C1982 H1964 0.951 . S
C1982 C1983 1.366 . S
C1982 C1984 1.388 . S
C1983 C1982 1.366 . S
C1983 C1987 1.385 . S
C1984 H1965 0.951 . S
C1984 C1982 1.388 . S
C1984 C1985 1.366 . S
C1985 C1984 1.366 . S
C1985 C1986 1.414 . S
C1985 C1988 1.499 . S
C1986 H1966 0.950 . S
C1986 C1985 1.414 . S
C1986 C1987 1.374 . S
C1987 H1967 0.950 . S
C1987 C1983 1.385 . S
C1987 C1986 1.374 . S
C1988 C1985 1.499 . S
C1988 C1989 1.373 . S
C1988 C1990 1.389 . S
C1989 H1968 0.950 . S
C1989 C1988 1.373 . S
C1989 C2005 1.377 . S
C1990 C1988 1.389 . S
C1990 C1991 1.524 . S
C1990 C2004 1.377 . S
C1991 C1990 1.524 . S
C1991 C1992 1.397 . S
C1991 C1996 1.363 . S
C1992 H1969 0.950 . S
C1992 C1991 1.397 . S
C1992 C1993 1.334 . S
C1993 H1970 0.950 . S
C1993 C1992 1.334 . S
C1993 C1994 1.287 . S
C1994 C1993 1.287 . S
C1994 C1995 1.524 . S
C1994 H2013 0.913 . S
C1995 H1971 0.950 . S
C1995 C1994 1.524 . S
C1995 C1996 1.415 . S
C1996 H1972 0.950 . S
C1996 C1991 1.363 . S
C1996 C1995 1.415 . S
C1997 H1973 0.951 . S
C1997 C1998 1.366 . S
C1997 C1999 1.388 . S
C1998 C1997 1.366 . S
C1998 C2002 1.385 . S
C1999 H1974 0.951 . S
C1999 C1997 1.388 . S
C1999 C2000 1.366 . S
C2000 C1999 1.366 . S
C2000 C2001 1.414 . S
C2000 C2003 1.499 . S
C2001 H1975 0.950 . S
C2001 C2000 1.414 . S
C2001 C2002 1.374 . S
C2002 H1976 0.950 . S
C2002 C1998 1.385 . S
C2002 C2001 1.374 . S
C2003 C2000 1.499 . S
C2003 C2004 1.373 . S
C2003 C2005 1.389 . S
C2004 H1977 0.950 . S
C2004 C1990 1.377 . S
C2004 C2003 1.373 . S
C2005 C1989 1.377 . S
C2005 C2003 1.389 . S
C2005 C2006 1.524 . S
C2006 C2005 1.524 . S
C2006 C2007 1.397 . S
C2006 C2011 1.363 . S
C2007 H1978 0.950 . S
C2007 C2006 1.397 . S
C2007 C2008 1.334 . S
C2008 H1979 0.950 . S
C2008 C2007 1.334 . S
C2008 C2009 1.287 . S
C2009 C2008 1.287 . S
C2009 C2010 1.524 . S
C2009 H2012 0.999 . S
C2010 H1980 0.950 . S
C2010 C2009 1.524 . S
C2010 C2011 1.415 . S
C2011 H1981 0.950 . S
C2011 C2006 1.363 . S
C2011 C2010 1.415 . S
H2012 C2009 0.999 . S
H2013 C1994 0.913 . S
H2014 C2032 0.951 . S
H2015 C2034 0.951 . S
H2016 C2036 0.950 . S
H2017 C2037 0.950 . S
H2018 C2039 0.950 . S
H2019 C2042 0.950 . S
H2020 C2043 0.950 . S
H2021 C2045 0.950 . S
H2022 C2046 0.950 . S
H2023 C2047 0.951 . S
H2024 C2049 0.951 . S
H2025 C2051 0.950 . S
H2026 C2052 0.950 . S
H2027 C2054 0.950 . S
H2028 C2057 0.950 . S
H2029 C2058 0.950 . S
H2030 C2060 0.950 . S
H2031 C2061 0.950 . S
C2032 H2014 0.951 . S
C2032 C2033 1.366 . S
C2032 C2034 1.388 . S
C2033 C2032 1.366 . S
C2033 C2037 1.385 . S
C2034 H2015 0.951 . S
C2034 C2032 1.388 . S
C2034 C2035 1.366 . S
C2035 C2034 1.366 . S
C2035 C2036 1.414 . S
C2035 C2038 1.499 . S
C2036 H2016 0.950 . S
C2036 C2035 1.414 . S
C2036 C2037 1.374 . S
C2037 H2017 0.950 . S
C2037 C2033 1.385 . S
C2037 C2036 1.374 . S
C2038 C2035 1.499 . S
C2038 C2039 1.373 . S
C2038 C2040 1.389 . S
C2039 H2018 0.950 . S
C2039 C2038 1.373 . S
C2039 C2055 1.377 . S
C2040 C2038 1.389 . S
C2040 C2041 1.524 . S
C2040 C2054 1.377 . S
C2041 C2040 1.524 . S
C2041 C2042 1.397 . S
C2041 C2046 1.363 . S
C2042 H2019 0.950 . S
C2042 C2041 1.397 . S
C2042 C2043 1.334 . S
C2043 H2020 0.950 . S
C2043 C2042 1.334 . S
C2043 C2044 1.287 . S
C2044 C2043 1.287 . S
C2044 C2045 1.524 . S
C2044 H2063 0.913 . S
C2045 H2021 0.950 . S
C2045 C2044 1.524 . S
C2045 C2046 1.415 . S
C2046 H2022 0.950 . S
C2046 C2041 1.363 . S
C2046 C2045 1.415 . S
C2047 H2023 0.951 . S
C2047 C2048 1.366 . S
C2047 C2049 1.388 . S
C2048 C2047 1.366 . S
C2048 C2052 1.385 . S
C2049 H2024 0.951 . S
C2049 C2047 1.388 . S
C2049 C2050 1.366 . S
C2050 C2049 1.366 . S
C2050 C2051 1.414 . S
C2050 C2053 1.499 . S
C2051 H2025 0.950 . S
C2051 C2050 1.414 . S
C2051 C2052 1.374 . S
C2052 H2026 0.950 . S
C2052 C2048 1.385 . S
C2052 C2051 1.374 . S
C2053 C2050 1.499 . S
C2053 C2054 1.373 . S
C2053 C2055 1.389 . S
C2054 H2027 0.950 . S
C2054 C2040 1.377 . S
C2054 C2053 1.373 . S
C2055 C2039 1.377 . S
C2055 C2053 1.389 . S
C2055 C2056 1.524 . S
C2056 C2055 1.524 . S
C2056 C2057 1.397 . S
C2056 C2061 1.363 . S
C2057 H2028 0.950 . S
C2057 C2056 1.397 . S
C2057 C2058 1.334 . S
C2058 H2029 0.950 . S
C2058 C2057 1.334 . S
C2058 C2059 1.287 . S
C2059 C2058 1.287 . S
C2059 C2060 1.524 . S
C2059 H2062 0.999 . S
C2060 H2030 0.950 . S
C2060 C2059 1.524 . S
C2060 C2061 1.415 . S
C2061 H2031 0.950 . S
C2061 C2056 1.363 . S
C2061 C2060 1.415 . S
H2062 C2059 0.999 . S
H2063 C2044 0.913 . S
H2064 C2082 0.951 . S
H2065 C2084 0.951 . S
H2066 C2086 0.950 . S
H2067 C2087 0.950 . S
H2068 C2089 0.950 . S
H2069 C2092 0.950 . S
H2070 C2093 0.950 1_565 S
H2071 C2095 0.950 . S
H2072 C2096 0.950 . S
H2073 C2097 0.951 . S
H2074 C2099 0.951 . S
H2075 C2101 0.950 . S
H2076 C2102 0.950 . S
H2077 C2104 0.950 . S
H2078 C2107 0.950 . S
H2079 C2108 0.950 . S
H2080 C2110 0.950 . S
H2081 C2111 0.950 . S
C2082 H2064 0.951 . S
C2082 C2083 1.366 . S
C2082 C2084 1.388 . S
C2083 C2082 1.366 . S
C2083 C2087 1.385 . S
C2084 H2065 0.951 . S
C2084 C2082 1.388 . S
C2084 C2085 1.366 . S
C2085 C2084 1.366 . S
C2085 C2086 1.414 . S
C2085 C2088 1.499 . S
C2086 H2066 0.950 . S
C2086 C2085 1.414 . S
C2086 C2087 1.374 . S
C2087 H2067 0.950 . S
C2087 C2083 1.385 . S
C2087 C2086 1.374 . S
C2088 C2085 1.499 . S
C2088 C2089 1.373 . S
C2088 C2090 1.389 . S
C2089 H2068 0.950 . S
C2089 C2088 1.373 . S
C2089 C2105 1.377 . S
C2090 C2088 1.389 . S
C2090 C2091 1.524 . S
C2090 C2104 1.377 . S
C2091 C2090 1.524 . S
C2091 C2092 1.397 . S
C2091 C2096 1.363 . S
C2092 H2069 0.950 . S
C2092 C2091 1.397 . S
C2092 C2093 1.334 . S
C2093 H2070 0.950 1_545 S
C2093 C2092 1.334 . S
C2093 C2094 1.287 . S
C2094 C2093 1.287 . S
C2094 C2095 1.524 . S
C2094 H2113 0.913 1_545 S
C2095 H2071 0.950 . S
C2095 C2094 1.524 . S
C2095 C2096 1.415 . S
C2096 H2072 0.950 . S
C2096 C2091 1.363 . S
C2096 C2095 1.415 . S
C2097 H2073 0.951 . S
C2097 C2098 1.366 . S
C2097 C2099 1.388 . S
C2098 C2097 1.366 . S
C2098 C2102 1.385 . S
C2099 H2074 0.951 . S
C2099 C2097 1.388 . S
C2099 C2100 1.366 . S
C2100 C2099 1.366 . S
C2100 C2101 1.414 . S
C2100 C2103 1.499 . S
C2101 H2075 0.950 . S
C2101 C2100 1.414 . S
C2101 C2102 1.374 . S
C2102 H2076 0.950 . S
C2102 C2098 1.385 . S
C2102 C2101 1.374 . S
C2103 C2100 1.499 . S
C2103 C2104 1.373 . S
C2103 C2105 1.389 . S
C2104 H2077 0.950 . S
C2104 C2090 1.377 . S
C2104 C2103 1.373 . S
C2105 C2089 1.377 . S
C2105 C2103 1.389 . S
C2105 C2106 1.524 . S
C2106 C2105 1.524 . S
C2106 C2107 1.397 . S
C2106 C2111 1.363 . S
C2107 H2078 0.950 . S
C2107 C2106 1.397 . S
C2107 C2108 1.334 . S
C2108 H2079 0.950 . S
C2108 C2107 1.334 . S
C2108 C2109 1.287 . S
C2109 C2108 1.287 . S
C2109 C2110 1.524 . S
C2109 H2112 0.999 . S
C2110 H2080 0.950 . S
C2110 C2109 1.524 . S
C2110 C2111 1.415 . S
C2111 H2081 0.950 . S
C2111 C2106 1.363 . S
C2111 C2110 1.415 . S
H2112 C2109 0.999 . S
H2113 C2094 0.913 1_565 S
H2114 C2132 0.951 . S
H2115 C2134 0.951 . S
H2116 C2136 0.950 . S
H2117 C2137 0.950 . S
H2118 C2139 0.950 . S
H2119 C2142 0.950 . S
H2120 C2143 0.950 . S
H2121 C2145 0.950 . S
H2122 C2146 0.950 . S
H2123 C2147 0.951 . S
H2124 C2149 0.951 . S
H2125 C2151 0.950 . S
H2126 C2152 0.950 . S
H2127 C2154 0.950 . S
H2128 C2157 0.950 . S
H2129 C2158 0.950 . S
H2130 C2160 0.950 . S
H2131 C2161 0.950 . S
C2132 H2114 0.951 . S
C2132 C2133 1.366 . S
C2132 C2134 1.388 . S
C2133 C2132 1.366 . S
C2133 C2137 1.385 . S
C2134 H2115 0.951 . S
C2134 C2132 1.388 . S
C2134 C2135 1.366 . S
C2135 C2134 1.366 . S
C2135 C2136 1.414 . S
C2135 C2138 1.499 . S
C2136 H2116 0.950 . S
C2136 C2135 1.414 . S
C2136 C2137 1.374 . S
C2137 H2117 0.950 . S
C2137 C2133 1.385 . S
C2137 C2136 1.374 . S
C2138 C2135 1.499 . S
C2138 C2139 1.373 . S
C2138 C2140 1.389 . S
C2139 H2118 0.950 . S
C2139 C2138 1.373 . S
C2139 C2155 1.377 . S
C2140 C2138 1.389 . S
C2140 C2141 1.524 . S
C2140 C2154 1.377 . S
C2141 C2140 1.524 . S
C2141 C2142 1.397 . S
C2141 C2146 1.363 . S
C2142 H2119 0.950 . S
C2142 C2141 1.397 . S
C2142 C2143 1.334 1_655 S
C2143 H2120 0.950 . S
C2143 C2142 1.334 1_455 S
C2143 C2144 1.287 . S
C2144 C2143 1.287 . S
C2144 C2145 1.524 . S
C2144 H2163 0.913 . S
C2145 H2121 0.950 . S
C2145 C2144 1.524 . S
C2145 C2146 1.415 1_455 S
C2146 H2122 0.950 . S
C2146 C2141 1.363 . S
C2146 C2145 1.415 1_655 S
C2147 H2123 0.951 . S
C2147 C2148 1.366 . S
C2147 C2149 1.388 . S
C2148 C2147 1.366 . S
C2148 C2152 1.385 . S
C2149 H2124 0.951 . S
C2149 C2147 1.388 . S
C2149 C2150 1.366 . S
C2150 C2149 1.366 . S
C2150 C2151 1.414 . S
C2150 C2153 1.499 . S
C2151 H2125 0.950 . S
C2151 C2150 1.414 . S
C2151 C2152 1.374 . S
C2152 H2126 0.950 . S
C2152 C2148 1.385 . S
C2152 C2151 1.374 . S
C2153 C2150 1.499 . S
C2153 C2154 1.373 . S
C2153 C2155 1.389 . S
C2154 H2127 0.950 . S
C2154 C2140 1.377 . S
C2154 C2153 1.373 . S
C2155 C2139 1.377 . S
C2155 C2153 1.389 . S
C2155 C2156 1.524 . S
C2156 C2155 1.524 . S
C2156 C2157 1.397 . S
C2156 C2161 1.363 . S
C2157 H2128 0.950 . S
C2157 C2156 1.397 . S
C2157 C2158 1.334 . S
C2158 H2129 0.950 . S
C2158 C2157 1.334 . S
C2158 C2159 1.287 . S
C2159 C2158 1.287 . S
C2159 C2160 1.524 . S
C2159 H2162 0.999 . S
C2160 H2130 0.950 . S
C2160 C2159 1.524 . S
C2160 C2161 1.415 . S
C2161 H2131 0.950 . S
C2161 C2156 1.363 . S
C2161 C2160 1.415 . S
H2162 C2159 0.999 . S
H2163 C2144 0.913 . S
H2164 C2182 0.951 . S
H2165 C2184 0.951 . S
H2166 C2186 0.950 . S
H2167 C2187 0.950 . S
H2168 C2189 0.950 . S
H2169 C2192 0.950 . S
H2170 C2193 0.950 . S
H2171 C2195 0.950 . S
H2172 C2196 0.950 . S
H2173 C2197 0.951 . S
H2174 C2199 0.951 . S
H2175 C2201 0.950 . S
H2176 C2202 0.950 . S
H2177 C2204 0.950 . S
H2178 C2207 0.950 . S
H2179 C2208 0.950 . S
H2180 C2210 0.950 . S
H2181 C2211 0.950 . S
C2182 H2164 0.951 . S
C2182 C2183 1.366 . S
C2182 C2184 1.388 . S
C2183 C2182 1.366 . S
C2183 C2187 1.385 . S
C2184 H2165 0.951 . S
C2184 C2182 1.388 . S
C2184 C2185 1.366 . S
C2185 C2184 1.366 . S
C2185 C2186 1.414 . S
C2185 C2188 1.499 . S
C2186 H2166 0.950 . S
C2186 C2185 1.414 . S
C2186 C2187 1.374 . S
C2187 H2167 0.950 . S
C2187 C2183 1.385 . S
C2187 C2186 1.374 . S
C2188 C2185 1.499 . S
C2188 C2189 1.373 . S
C2188 C2190 1.389 . S
C2189 H2168 0.950 . S
C2189 C2188 1.373 . S
C2189 C2205 1.377 . S
C2190 C2188 1.389 . S
C2190 C2191 1.524 . S
C2190 C2204 1.377 . S
C2191 C2190 1.524 . S
C2191 C2192 1.397 . S
C2191 C2196 1.363 . S
C2192 H2169 0.950 . S
C2192 C2191 1.397 . S
C2192 C2193 1.334 . S
C2193 H2170 0.950 . S
C2193 C2192 1.334 . S
C2193 C2194 1.287 . S
C2194 C2193 1.287 . S
C2194 C2195 1.524 . S
C2194 H2213 0.913 . S
C2195 H2171 0.950 . S
C2195 C2194 1.524 . S
C2195 C2196 1.415 . S
C2196 H2172 0.950 . S
C2196 C2191 1.363 . S
C2196 C2195 1.415 . S
C2197 H2173 0.951 . S
C2197 C2198 1.366 . S
C2197 C2199 1.388 . S
C2198 C2197 1.366 . S
C2198 C2202 1.385 . S
C2199 H2174 0.951 . S
C2199 C2197 1.388 . S
C2199 C2200 1.366 . S
C2200 C2199 1.366 . S
C2200 C2201 1.414 . S
C2200 C2203 1.499 . S
C2201 H2175 0.950 . S
C2201 C2200 1.414 . S
C2201 C2202 1.374 . S
C2202 H2176 0.950 . S
C2202 C2198 1.385 . S
C2202 C2201 1.374 . S
C2203 C2200 1.499 . S
C2203 C2204 1.373 . S
C2203 C2205 1.389 . S
C2204 H2177 0.950 . S
C2204 C2190 1.377 . S
C2204 C2203 1.373 . S
C2205 C2189 1.377 . S
C2205 C2203 1.389 . S
C2205 C2206 1.524 . S
C2206 C2205 1.524 . S
C2206 C2207 1.397 . S
C2206 C2211 1.363 . S
C2207 H2178 0.950 . S
C2207 C2206 1.397 . S
C2207 C2208 1.334 . S
C2208 H2179 0.950 . S
C2208 C2207 1.334 . S
C2208 C2209 1.287 . S
C2209 C2208 1.287 . S
C2209 C2210 1.524 . S
C2209 H2212 0.999 . S
C2210 H2180 0.950 . S
C2210 C2209 1.524 . S
C2210 C2211 1.415 . S
C2211 H2181 0.950 . S
C2211 C2206 1.363 . S
C2211 C2210 1.415 . S
H2212 C2209 0.999 . S
H2213 C2194 0.913 . S
H2214 C2232 0.951 . S
H2215 C2234 0.951 . S
H2216 C2236 0.950 . S
H2217 C2237 0.950 . S
H2218 C2239 0.950 . S
H2219 C2242 0.950 . S
H2220 C2243 0.950 . S
H2221 C2245 0.950 . S
H2222 C2246 0.950 . S
H2223 C2247 0.951 . S
H2224 C2249 0.951 . S
H2225 C2251 0.950 . S
H2226 C2252 0.950 . S
H2227 C2254 0.950 . S
H2228 C2257 0.950 . S
H2229 C2258 0.950 . S
H2230 C2260 0.950 . S
H2231 C2261 0.950 . S
C2232 H2214 0.951 . S
C2232 C2233 1.366 . S
C2232 C2234 1.388 . S
C2233 C2232 1.366 . S
C2233 C2237 1.385 . S
C2234 H2215 0.951 . S
C2234 C2232 1.388 . S
C2234 C2235 1.366 . S
C2235 C2234 1.366 . S
C2235 C2236 1.414 . S
C2235 C2238 1.499 . S
C2236 H2216 0.950 . S
C2236 C2235 1.414 . S
C2236 C2237 1.374 . S
C2237 H2217 0.950 . S
C2237 C2233 1.385 . S
C2237 C2236 1.374 . S
C2238 C2235 1.499 . S
C2238 C2239 1.373 . S
C2238 C2240 1.389 . S
C2239 H2218 0.950 . S
C2239 C2238 1.373 . S
C2239 C2255 1.377 . S
C2240 C2238 1.389 . S
C2240 C2241 1.524 . S
C2240 C2254 1.377 . S
C2241 C2240 1.524 . S
C2241 C2242 1.397 . S
C2241 C2246 1.363 . S
C2242 H2219 0.950 . S
C2242 C2241 1.397 . S
C2242 C2243 1.334 . S
C2243 H2220 0.950 . S
C2243 C2242 1.334 . S
C2243 C2244 1.287 . S
C2244 C2243 1.287 . S
C2244 C2245 1.524 . S
C2244 H2263 0.913 . S
C2245 H2221 0.950 . S
C2245 C2244 1.524 . S
C2245 C2246 1.415 . S
C2246 H2222 0.950 . S
C2246 C2241 1.363 . S
C2246 C2245 1.415 . S
C2247 H2223 0.951 . S
C2247 C2248 1.366 . S
C2247 C2249 1.388 . S
C2248 C2247 1.366 . S
C2248 C2252 1.385 . S
C2249 H2224 0.951 . S
C2249 C2247 1.388 . S
C2249 C2250 1.366 . S
C2250 C2249 1.366 . S
C2250 C2251 1.414 . S
C2250 C2253 1.499 . S
C2251 H2225 0.950 . S
C2251 C2250 1.414 . S
C2251 C2252 1.374 . S
C2252 H2226 0.950 . S
C2252 C2248 1.385 . S
C2252 C2251 1.374 . S
C2253 C2250 1.499 . S
C2253 C2254 1.373 . S
C2253 C2255 1.389 . S
C2254 H2227 0.950 . S
C2254 C2240 1.377 . S
C2254 C2253 1.373 . S
C2255 C2239 1.377 . S
C2255 C2253 1.389 . S
C2255 C2256 1.524 . S
C2256 C2255 1.524 . S
C2256 C2257 1.397 . S
C2256 C2261 1.363 . S
C2257 H2228 0.950 . S
C2257 C2256 1.397 . S
C2257 C2258 1.334 . S
C2258 H2229 0.950 . S
C2258 C2257 1.334 . S
C2258 C2259 1.287 . S
C2259 C2258 1.287 . S
C2259 C2260 1.524 . S
C2259 H2262 0.999 . S
C2260 H2230 0.950 . S
C2260 C2259 1.524 . S
C2260 C2261 1.415 . S
C2261 H2231 0.950 . S
C2261 C2256 1.363 . S
C2261 C2260 1.415 . S
H2262 C2259 0.999 . S
H2263 C2244 0.913 . S
H2264 C2282 0.951 . S
H2265 C2284 0.951 . S
H2266 C2286 0.950 . S
H2267 C2287 0.950 . S
H2268 C2289 0.950 . S
H2269 C2292 0.950 . S
H2270 C2293 0.950 . S
H2271 C2295 0.950 . S
H2272 C2296 0.950 . S
H2273 C2297 0.951 . S
H2274 C2299 0.951 . S
H2275 C2301 0.950 . S
H2276 C2302 0.950 . S
H2277 C2304 0.950 . S
H2278 C2307 0.950 . S
H2279 C2308 0.950 . S
H2280 C2310 0.950 . S
H2281 C2311 0.950 . S
C2282 H2264 0.951 . S
C2282 C2283 1.366 . S
C2282 C2284 1.388 . S
C2283 C2282 1.366 . S
C2283 C2287 1.385 . S
C2284 H2265 0.951 . S
C2284 C2282 1.388 . S
C2284 C2285 1.366 . S
C2285 C2284 1.366 . S
C2285 C2286 1.414 . S
C2285 C2288 1.499 . S
C2286 H2266 0.950 . S
C2286 C2285 1.414 . S
C2286 C2287 1.374 . S
C2287 H2267 0.950 . S
C2287 C2283 1.385 . S
C2287 C2286 1.374 . S
C2288 C2285 1.499 . S
C2288 C2289 1.373 . S
C2288 C2290 1.389 . S
C2289 H2268 0.950 . S
C2289 C2288 1.373 . S
C2289 C2305 1.377 . S
C2290 C2288 1.389 . S
C2290 C2291 1.524 . S
C2290 C2304 1.377 . S
C2291 C2290 1.524 . S
C2291 C2292 1.397 . S
C2291 C2296 1.363 . S
C2292 H2269 0.950 . S
C2292 C2291 1.397 . S
C2292 C2293 1.334 . S
C2293 H2270 0.950 . S
C2293 C2292 1.334 . S
C2293 C2294 1.287 . S
C2294 C2293 1.287 . S
C2294 C2295 1.524 . S
C2294 H2313 0.913 . S
C2295 H2271 0.950 . S
C2295 C2294 1.524 . S
C2295 C2296 1.415 . S
C2296 H2272 0.950 . S
C2296 C2291 1.363 . S
C2296 C2295 1.415 . S
C2297 H2273 0.951 . S
C2297 C2298 1.366 . S
C2297 C2299 1.388 . S
C2298 C2297 1.366 . S
C2298 C2302 1.385 . S
C2299 H2274 0.951 . S
C2299 C2297 1.388 . S
C2299 C2300 1.366 . S
C2300 C2299 1.366 . S
C2300 C2301 1.414 . S
C2300 C2303 1.499 . S
C2301 H2275 0.950 . S
C2301 C2300 1.414 . S
C2301 C2302 1.374 . S
C2302 H2276 0.950 . S
C2302 C2298 1.385 . S
C2302 C2301 1.374 . S
C2303 C2300 1.499 . S
C2303 C2304 1.373 . S
C2303 C2305 1.389 . S
C2304 H2277 0.950 . S
C2304 C2290 1.377 . S
C2304 C2303 1.373 . S
C2305 C2289 1.377 . S
C2305 C2303 1.389 . S
C2305 C2306 1.524 . S
C2306 C2305 1.524 . S
C2306 C2307 1.397 . S
C2306 C2311 1.363 . S
C2307 H2278 0.950 . S
C2307 C2306 1.397 . S
C2307 C2308 1.334 . S
C2308 H2279 0.950 . S
C2308 C2307 1.334 . S
C2308 C2309 1.287 . S
C2309 C2308 1.287 . S
C2309 C2310 1.524 . S
C2309 H2312 0.999 . S
C2310 H2280 0.950 . S
C2310 C2309 1.524 . S
C2310 C2311 1.415 . S
C2311 H2281 0.950 . S
C2311 C2306 1.363 . S
C2311 C2310 1.415 . S
H2312 C2309 0.999 . S
H2313 C2294 0.913 . S
H2314 C2332 0.951 . S
H2315 C2334 0.951 . S
H2316 C2336 0.950 . S
H2317 C2337 0.950 . S
H2318 C2339 0.950 . S
H2319 C2342 0.950 . S
H2320 C2343 0.950 . S
H2321 C2345 0.950 . S
H2322 C2346 0.950 . S
H2323 C2347 0.951 . S
H2324 C2349 0.951 . S
H2325 C2351 0.950 . S
H2326 C2352 0.950 . S
H2327 C2354 0.950 . S
H2328 C2357 0.950 . S
H2329 C2358 0.950 . S
H2330 C2360 0.950 . S
H2331 C2361 0.950 . S
C2332 H2314 0.951 . S
C2332 C2333 1.366 . S
C2332 C2334 1.388 . S
C2333 C2332 1.366 . S
C2333 C2337 1.385 . S
C2334 H2315 0.951 . S
C2334 C2332 1.388 . S
C2334 C2335 1.366 . S
C2335 C2334 1.366 . S
C2335 C2336 1.414 . S
C2335 C2338 1.499 . S
C2336 H2316 0.950 . S
C2336 C2335 1.414 . S
C2336 C2337 1.374 . S
C2337 H2317 0.950 . S
C2337 C2333 1.385 . S
C2337 C2336 1.374 . S
C2338 C2335 1.499 . S
C2338 C2339 1.373 . S
C2338 C2340 1.389 . S
C2339 H2318 0.950 . S
C2339 C2338 1.373 . S
C2339 C2355 1.377 . S
C2340 C2338 1.389 . S
C2340 C2341 1.524 . S
C2340 C2354 1.377 . S
C2341 C2340 1.524 . S
C2341 C2342 1.397 . S
C2341 C2346 1.363 . S
C2342 H2319 0.950 . S
C2342 C2341 1.397 . S
C2342 C2343 1.334 . S
C2343 H2320 0.950 . S
C2343 C2342 1.334 . S
C2343 C2344 1.287 . S
C2344 C2343 1.287 . S
C2344 C2345 1.524 . S
C2344 H2363 0.913 . S
C2345 H2321 0.950 . S
C2345 C2344 1.524 . S
C2345 C2346 1.415 . S
C2346 H2322 0.950 . S
C2346 C2341 1.363 . S
C2346 C2345 1.415 . S
C2347 H2323 0.951 . S
C2347 C2348 1.366 . S
C2347 C2349 1.388 . S
C2348 C2347 1.366 . S
C2348 C2352 1.385 . S
C2349 H2324 0.951 . S
C2349 C2347 1.388 . S
C2349 C2350 1.366 . S
C2350 C2349 1.366 . S
C2350 C2351 1.414 . S
C2350 C2353 1.499 . S
C2351 H2325 0.950 . S
C2351 C2350 1.414 . S
C2351 C2352 1.374 . S
C2352 H2326 0.950 . S
C2352 C2348 1.385 . S
C2352 C2351 1.374 . S
C2353 C2350 1.499 . S
C2353 C2354 1.373 . S
C2353 C2355 1.389 . S
C2354 H2327 0.950 . S
C2354 C2340 1.377 . S
C2354 C2353 1.373 . S
C2355 C2339 1.377 . S
C2355 C2353 1.389 . S
C2355 C2356 1.524 . S
C2356 C2355 1.524 . S
C2356 C2357 1.397 . S
C2356 C2361 1.363 . S
C2357 H2328 0.950 . S
C2357 C2356 1.397 . S
C2357 C2358 1.334 . S
C2358 H2329 0.950 . S
C2358 C2357 1.334 . S
C2358 C2359 1.287 . S
C2359 C2358 1.287 . S
C2359 C2360 1.524 . S
C2359 H2362 0.999 . S
C2360 H2330 0.950 . S
C2360 C2359 1.524 . S
C2360 C2361 1.415 . S
C2361 H2331 0.950 . S
C2361 C2356 1.363 . S
C2361 C2360 1.415 . S
H2362 C2359 0.999 . S
H2363 C2344 0.913 . S
H2364 C2382 0.951 . S
H2365 C2384 0.951 . S
H2366 C2386 0.950 . S
H2367 C2387 0.950 . S
H2368 C2389 0.950 . S
H2369 C2392 0.950 . S
H2370 C2393 0.950 . S
H2371 C2395 0.948 1_545 S
H2372 C2396 0.950 . S
H2373 C2397 0.951 . S
H2374 C2399 0.951 . S
H2375 C2401 0.950 . S
H2376 C2402 0.950 . S
H2377 C2404 0.950 . S
H2378 C2407 0.950 . S
H2379 C2408 0.950 . S
H2380 C2410 0.950 . S
H2381 C2411 0.950 . S
C2382 H2364 0.951 . S
C2382 C2383 1.366 . S
C2382 C2384 1.388 . S
C2383 C2382 1.366 . S
C2383 C2387 1.385 . S
C2384 H2365 0.951 . S
C2384 C2382 1.388 . S
C2384 C2385 1.366 . S
C2385 C2384 1.366 . S
C2385 C2386 1.414 . S
C2385 C2388 1.499 . S
C2386 H2366 0.950 . S
C2386 C2385 1.414 . S
C2386 C2387 1.374 . S
C2387 H2367 0.950 . S
C2387 C2383 1.385 . S
C2387 C2386 1.374 . S
C2388 C2385 1.499 . S
C2388 C2389 1.373 . S
C2388 C2390 1.389 . S
C2389 H2368 0.950 . S
C2389 C2388 1.373 . S
C2389 C2405 1.377 . S
C2390 C2388 1.389 . S
C2390 C2391 1.524 . S
C2390 C2404 1.377 . S
C2391 C2390 1.524 . S
C2391 C2392 1.397 . S
C2391 C2396 1.363 . S
C2392 H2369 0.950 . S
C2392 C2391 1.397 . S
C2392 C2393 1.334 . S
C2393 H2370 0.950 . S
C2393 C2392 1.334 . S
C2393 C2394 1.287 . S
C2394 C2393 1.287 . S
C2394 C2395 1.525 . S
C2394 H2413 0.913 . S
C2395 H2371 0.948 1_565 S
C2395 C2394 1.525 . S
C2395 C2396 1.416 . S
C2396 H2372 0.950 . S
C2396 C2391 1.363 . S
C2396 C2395 1.416 . S
C2397 H2373 0.951 . S
C2397 C2398 1.366 . S
C2397 C2399 1.388 . S
C2398 C2397 1.366 . S
C2398 C2402 1.385 . S
C2399 H2374 0.951 . S
C2399 C2397 1.388 . S
C2399 C2400 1.366 . S
C2400 C2399 1.366 . S
C2400 C2401 1.414 . S
C2400 C2403 1.499 . S
C2401 H2375 0.950 . S
C2401 C2400 1.414 . S
C2401 C2402 1.374 . S
C2402 H2376 0.950 . S
C2402 C2398 1.385 . S
C2402 C2401 1.374 . S
C2403 C2400 1.499 . S
C2403 C2404 1.373 . S
C2403 C2405 1.389 . S
C2404 H2377 0.950 . S
C2404 C2390 1.377 . S
C2404 C2403 1.373 . S
C2405 C2389 1.377 . S
C2405 C2403 1.389 . S
C2405 C2406 1.524 . S
C2406 C2405 1.524 . S
C2406 C2407 1.397 . S
C2406 C2411 1.363 . S
C2407 H2378 0.950 . S
C2407 C2406 1.397 . S
C2407 C2408 1.334 . S
C2408 H2379 0.950 . S
C2408 C2407 1.334 . S
C2408 C2409 1.287 . S
C2409 C2408 1.287 . S
C2409 C2410 1.524 . S
C2409 H2412 0.999 . S
C2410 H2380 0.950 . S
C2410 C2409 1.524 . S
C2410 C2411 1.415 . S
C2411 H2381 0.950 . S
C2411 C2406 1.363 . S
C2411 C2410 1.415 . S
H2412 C2409 0.999 . S
H2413 C2394 0.913 . S
H2414 C2432 0.951 . S
H2415 C2434 0.951 . S
H2416 C2436 0.950 . S
H2417 C2437 0.950 . S
H2418 C2439 0.950 . S
H2419 C2442 0.950 . S
H2420 C2443 0.959 . S
H2421 C2445 0.950 . S
H2422 C2446 0.950 . S
H2423 C2447 0.951 . S
H2424 C2449 0.951 . S
H2425 C2451 0.950 . S
H2426 C2452 0.950 . S
H2427 C2454 0.950 . S
H2428 C2457 0.950 . S
H2429 C2458 0.950 . S
H2430 C2460 0.950 . S
H2431 C2461 0.950 . S
C2432 H2414 0.951 . S
C2432 C2433 1.366 . S
C2432 C2434 1.388 . S
C2433 C2432 1.366 . S
C2433 C2437 1.385 . S
C2434 H2415 0.951 . S
C2434 C2432 1.388 . S
C2434 C2435 1.366 . S
C2435 C2434 1.366 . S
C2435 C2436 1.414 . S
C2435 C2438 1.499 . S
C2436 H2416 0.950 . S
C2436 C2435 1.414 . S
C2436 C2437 1.374 . S
C2437 H2417 0.950 . S
C2437 C2433 1.385 . S
C2437 C2436 1.374 . S
C2438 C2435 1.499 . S
C2438 C2439 1.373 . S
C2438 C2440 1.389 . S
C2439 H2418 0.950 . S
C2439 C2438 1.373 . S
C2439 C2455 1.377 . S
C2440 C2438 1.389 . S
C2440 C2441 1.524 . S
C2440 C2454 1.377 . S
C2441 C2440 1.524 . S
C2441 C2442 1.397 . S
C2441 C2446 1.363 . S
C2442 H2419 0.950 . S
C2442 C2441 1.397 . S
C2442 C2443 1.334 . S
C2443 H2420 0.959 . S
C2443 C2442 1.334 . S
C2443 C2444 1.287 . S
C2444 C2443 1.287 . S
C2444 C2445 1.524 . S
C2444 H2463 0.913 . S
C2445 H2421 0.950 . S
C2445 C2444 1.524 . S
C2445 C2446 1.415 . S
C2446 H2422 0.950 . S
C2446 C2441 1.363 . S
C2446 C2445 1.415 . S
C2447 H2423 0.951 . S
C2447 C2448 1.366 . S
C2447 C2449 1.388 . S
C2448 C2447 1.366 . S
C2448 C2452 1.385 . S
C2449 H2424 0.951 . S
C2449 C2447 1.388 . S
C2449 C2450 1.366 . S
C2450 C2449 1.366 . S
C2450 C2451 1.414 . S
C2450 C2453 1.499 . S
C2451 H2425 0.950 . S
C2451 C2450 1.414 . S
C2451 C2452 1.374 . S
C2452 H2426 0.950 . S
C2452 C2448 1.385 . S
C2452 C2451 1.374 . S
C2453 C2450 1.499 . S
C2453 C2454 1.373 . S
C2453 C2455 1.389 . S
C2454 H2427 0.950 . S
C2454 C2440 1.377 . S
C2454 C2453 1.373 . S
C2455 C2439 1.377 . S
C2455 C2453 1.389 . S
C2455 C2456 1.524 . S
C2456 C2455 1.524 . S
C2456 C2457 1.397 . S
C2456 C2461 1.363 . S
C2457 H2428 0.950 . S
C2457 C2456 1.397 . S
C2457 C2458 1.334 . S
C2458 H2429 0.950 . S
C2458 C2457 1.334 . S
C2458 C2459 1.287 . S
C2459 C2458 1.287 . S
C2459 C2460 1.524 . S
C2459 H2462 0.999 . S
C2460 H2430 0.950 . S
C2460 C2459 1.524 . S
C2460 C2461 1.415 . S
C2461 H2431 0.950 . S
C2461 C2456 1.363 . S
C2461 C2460 1.415 . S
H2462 C2459 0.999 . S
H2463 C2444 0.913 . S
H2464 C2482 0.951 . S
H2465 C2484 0.951 . S
H2466 C2486 0.950 . S
H2467 C2487 0.950 . S
H2468 C2489 0.950 . S
H2469 C2492 0.950 . S
H2470 C2493 0.950 . S
H2471 C2495 0.950 . S
H2472 C2496 0.950 . S
H2473 C2497 0.951 . S
H2474 C2499 0.951 . S
H2475 C2501 0.950 . S
H2476 C2502 0.950 . S
H2477 C2504 0.950 . S
H2478 C2507 0.950 . S
H2479 C2508 0.950 . S
H2480 C2510 0.971 . S
H2481 C2511 0.950 . S
C2482 H2464 0.951 . S
C2482 C2483 1.366 . S
C2482 C2484 1.388 . S
C2483 C2482 1.366 . S
C2483 C2487 1.385 . S
C2484 H2465 0.951 . S
C2484 C2482 1.388 . S
C2484 C2485 1.366 . S
C2485 C2484 1.366 . S
C2485 C2486 1.414 . S
C2485 C2488 1.499 . S
C2486 H2466 0.950 . S
C2486 C2485 1.414 . S
C2486 C2487 1.374 . S
C2487 H2467 0.950 . S
C2487 C2483 1.385 . S
C2487 C2486 1.374 . S
C2488 C2485 1.499 . S
C2488 C2489 1.373 . S
C2488 C2490 1.389 . S
C2489 H2468 0.950 . S
C2489 C2488 1.373 . S
C2489 C2505 1.377 . S
C2490 C2488 1.389 . S
C2490 C2491 1.524 . S
C2490 C2504 1.377 . S
C2491 C2490 1.524 . S
C2491 C2492 1.397 . S
C2491 C2496 1.363 . S
C2492 H2469 0.950 . S
C2492 C2491 1.397 . S
C2492 C2493 1.334 . S
C2493 H2470 0.950 . S
C2493 C2492 1.334 . S
C2493 C2494 1.287 . S
C2494 C2493 1.287 . S
C2494 C2495 1.524 . S
C2494 H2513 0.913 . S
C2495 H2471 0.950 . S
C2495 C2494 1.524 . S
C2495 C2496 1.415 . S
C2496 H2472 0.950 . S
C2496 C2491 1.363 . S
C2496 C2495 1.415 . S
C2497 H2473 0.951 . S
C2497 C2498 1.366 . S
C2497 C2499 1.388 . S
C2498 C2497 1.366 . S
C2498 C2502 1.385 . S
C2499 H2474 0.951 . S
C2499 C2497 1.388 . S
C2499 C2500 1.366 . S
C2500 C2499 1.366 . S
C2500 C2501 1.414 . S
C2500 C2503 1.499 . S
C2501 H2475 0.950 . S
C2501 C2500 1.414 . S
C2501 C2502 1.374 . S
C2502 H2476 0.950 . S
C2502 C2498 1.385 . S
C2502 C2501 1.374 . S
C2503 C2500 1.499 . S
C2503 C2504 1.373 . S
C2503 C2505 1.389 . S
C2504 H2477 0.950 . S
C2504 C2490 1.377 . S
C2504 C2503 1.373 . S
C2505 C2489 1.377 . S
C2505 C2503 1.389 . S
C2505 C2506 1.524 . S
C2506 C2505 1.524 . S
C2506 C2507 1.397 . S
C2506 C2511 1.363 . S
C2507 H2478 0.950 . S
C2507 C2506 1.397 . S
C2507 C2508 1.334 . S
C2508 H2479 0.950 . S
C2508 C2507 1.334 . S
C2508 C2509 1.287 . S
C2509 C2508 1.287 . S
C2509 C2510 1.524 . S
C2509 H2512 0.999 . S
C2510 H2480 0.971 . S
C2510 C2509 1.524 . S
C2510 C2511 1.415 . S
C2511 H2481 0.950 . S
C2511 C2506 1.363 . S
C2511 C2510 1.415 . S
H2512 C2509 0.999 . S
H2513 C2494 0.913 . S
H2514 C2532 0.951 . S
H2515 C2534 0.951 . S
H2516 C2536 0.950 . S
H2517 C2537 0.950 . S
H2518 C2539 0.950 . S
H2519 C2542 0.950 . S
H2520 C2543 0.950 . S
H2521 C2545 0.950 . S
H2522 C2546 0.950 . S
H2523 C2547 0.951 . S
H2524 C2549 0.951 . S
H2525 C2551 0.950 . S
H2526 C2552 0.950 . S
H2527 C2554 0.950 . S
H2528 C2557 0.950 . S
H2529 C2558 0.950 . S
H2530 C2560 0.950 1_455 S
H2531 C2561 0.950 . S
C2532 H2514 0.951 . S
C2532 C2533 1.366 . S
C2532 C2534 1.388 . S
C2533 C2532 1.366 . S
C2533 C2537 1.385 . S
C2534 H2515 0.951 . S
C2534 C2532 1.388 . S
C2534 C2535 1.366 . S
C2535 C2534 1.366 . S
C2535 C2536 1.414 . S
C2535 C2538 1.499 . S
C2536 H2516 0.950 . S
C2536 C2535 1.414 . S
C2536 C2537 1.374 . S
C2537 H2517 0.950 . S
C2537 C2533 1.385 . S
C2537 C2536 1.374 . S
C2538 C2535 1.499 . S
C2538 C2539 1.373 . S
C2538 C2540 1.389 . S
C2539 H2518 0.950 . S
C2539 C2538 1.373 . S
C2539 C2555 1.377 . S
C2540 C2538 1.389 . S
C2540 C2541 1.524 . S
C2540 C2554 1.377 . S
C2541 C2540 1.524 . S
C2541 C2542 1.397 . S
C2541 C2546 1.363 . S
C2542 H2519 0.950 . S
C2542 C2541 1.397 . S
C2542 C2543 1.334 . S
C2543 H2520 0.950 . S
C2543 C2542 1.334 . S
C2543 C2544 1.287 . S
C2544 C2543 1.287 . S
C2544 C2545 1.524 . S
C2544 H2563 0.913 . S
C2545 H2521 0.950 . S
C2545 C2544 1.524 . S
C2545 C2546 1.415 . S
C2546 H2522 0.950 . S
C2546 C2541 1.363 . S
C2546 C2545 1.415 . S
C2547 H2523 0.951 . S
C2547 C2548 1.366 . S
C2547 C2549 1.388 . S
C2548 C2547 1.366 . S
C2548 C2552 1.385 . S
C2549 H2524 0.951 . S
C2549 C2547 1.388 . S
C2549 C2550 1.366 . S
C2550 C2549 1.366 . S
C2550 C2551 1.414 . S
C2550 C2553 1.499 . S
C2551 H2525 0.950 . S
C2551 C2550 1.414 . S
C2551 C2552 1.374 . S
C2552 H2526 0.950 . S
C2552 C2548 1.385 . S
C2552 C2551 1.374 . S
C2553 C2550 1.499 . S
C2553 C2554 1.373 . S
C2553 C2555 1.389 . S
C2554 H2527 0.950 . S
C2554 C2540 1.377 . S
C2554 C2553 1.373 . S
C2555 C2539 1.377 . S
C2555 C2553 1.389 . S
C2555 C2556 1.524 . S
C2556 C2555 1.524 . S
C2556 C2557 1.397 . S
C2556 C2561 1.363 . S
C2557 H2528 0.950 . S
C2557 C2556 1.397 . S
C2557 C2558 1.334 . S
C2558 H2529 0.950 . S
C2558 C2557 1.334 . S
C2558 C2559 1.287 . S
C2559 C2558 1.287 . S
C2559 C2560 1.524 . S
C2559 H2562 0.999 . S
C2560 H2530 0.950 1_655 S
C2560 C2559 1.524 . S
C2560 C2561 1.415 . S
C2561 H2531 0.950 . S
C2561 C2556 1.363 . S
C2561 C2560 1.415 . S
H2562 C2559 0.999 . S
H2563 C2544 0.913 . S
H2564 C2582 0.951 . S
H2565 C2584 0.951 . S
H2566 C2586 0.950 . S
H2567 C2587 0.950 . S
H2568 C2589 0.950 . S
H2569 C2592 0.950 . S
H2570 C2593 0.950 . S
H2571 C2595 0.950 . S
H2572 C2596 0.950 . S
H2573 C2597 0.951 . S
H2574 C2599 0.951 . S
H2575 C2601 0.950 . S
H2576 C2602 0.950 . S
H2577 C2604 0.950 . S
H2578 C2607 0.950 . S
H2579 C2608 0.950 . S
H2580 C2610 0.950 1_455 S
H2581 C2611 0.950 . S
C2582 H2564 0.951 . S
C2582 C2583 1.366 . S
C2582 C2584 1.388 . S
C2583 C2582 1.366 . S
C2583 C2587 1.385 . S
C2584 H2565 0.951 . S
C2584 C2582 1.388 . S
C2584 C2585 1.366 . S
C2585 C2584 1.366 . S
C2585 C2586 1.414 . S
C2585 C2588 1.499 . S
C2586 H2566 0.950 . S
C2586 C2585 1.414 . S
C2586 C2587 1.374 . S
C2587 H2567 0.950 . S
C2587 C2583 1.385 . S
C2587 C2586 1.374 . S
C2588 C2585 1.499 . S
C2588 C2589 1.373 . S
C2588 C2590 1.389 . S
C2589 H2568 0.950 . S
C2589 C2588 1.373 . S
C2589 C2605 1.377 . S
C2590 C2588 1.389 . S
C2590 C2591 1.524 . S
C2590 C2604 1.377 . S
C2591 C2590 1.524 . S
C2591 C2592 1.397 . S
C2591 C2596 1.363 . S
C2592 H2569 0.950 . S
C2592 C2591 1.397 . S
C2592 C2593 1.334 . S
C2593 H2570 0.950 . S
C2593 C2592 1.334 . S
C2593 C2594 1.287 . S
C2594 C2593 1.287 . S
C2594 C2595 1.524 . S
C2594 H2613 0.913 . S
C2595 H2571 0.950 . S
C2595 C2594 1.524 . S
C2595 C2596 1.415 . S
C2596 H2572 0.950 . S
C2596 C2591 1.363 . S
C2596 C2595 1.415 . S
C2597 H2573 0.951 . S
C2597 C2598 1.366 . S
C2597 C2599 1.388 . S
C2598 C2597 1.366 . S
C2598 C2602 1.385 . S
C2599 H2574 0.951 . S
C2599 C2597 1.388 . S
C2599 C2600 1.366 . S
C2600 C2599 1.366 . S
C2600 C2601 1.414 . S
C2600 C2603 1.499 . S
C2601 H2575 0.950 . S
C2601 C2600 1.414 . S
C2601 C2602 1.374 . S
C2602 H2576 0.950 . S
C2602 C2598 1.385 . S
C2602 C2601 1.374 . S
C2603 C2600 1.499 . S
C2603 C2604 1.373 . S
C2603 C2605 1.389 . S
C2604 H2577 0.950 . S
C2604 C2590 1.377 . S
C2604 C2603 1.373 . S
C2605 C2589 1.377 . S
C2605 C2603 1.389 . S
C2605 C2606 1.524 . S
C2606 C2605 1.524 . S
C2606 C2607 1.397 . S
C2606 C2611 1.363 . S
C2607 H2578 0.950 . S
C2607 C2606 1.397 . S
C2607 C2608 1.334 . S
C2608 H2579 0.950 . S
C2608 C2607 1.334 . S
C2608 C2609 1.287 . S
C2609 C2608 1.287 . S
C2609 C2610 1.524 . S
C2609 H2612 0.999 1_655 S
C2610 H2580 0.950 1_655 S
C2610 C2609 1.524 . S
C2610 C2611 1.415 . S
C2611 H2581 0.950 . S
C2611 C2606 1.363 . S
C2611 C2610 1.415 . S
H2612 C2609 0.999 1_455 S
H2613 C2594 0.913 . S
H2614 C2632 0.951 . S
H2615 C2634 0.951 . S
H2616 C2636 0.950 . S
H2617 C2637 0.950 . S
H2618 C2639 0.950 . S
H2619 C2642 0.950 . S
H2620 C2643 0.950 . S
H2621 C2645 0.950 . S
H2622 C2646 0.950 . S
H2623 C2647 0.951 . S
H2624 C2649 0.951 . S
H2625 C2651 0.950 . S
H2626 C2652 0.950 . S
H2627 C2654 0.950 . S
H2628 C2657 0.950 . S
H2629 C2658 0.950 . S
H2630 C2660 0.950 . S
H2631 C2661 0.950 . S
C2632 H2614 0.951 . S
C2632 C2633 1.366 . S
C2632 C2634 1.388 . S
C2633 C2632 1.366 . S
C2633 C2637 1.385 . S
C2634 H2615 0.951 . S
C2634 C2632 1.388 . S
C2634 C2635 1.366 . S
C2635 C2634 1.366 . S
C2635 C2636 1.414 . S
C2635 C2638 1.499 . S
C2636 H2616 0.950 . S
C2636 C2635 1.414 . S
C2636 C2637 1.374 . S
C2637 H2617 0.950 . S
C2637 C2633 1.385 . S
C2637 C2636 1.374 . S
C2638 C2635 1.499 . S
C2638 C2639 1.373 . S
C2638 C2640 1.389 . S
C2639 H2618 0.950 . S
C2639 C2638 1.373 . S
C2639 C2655 1.377 1_554 S
C2640 C2638 1.389 . S
C2640 C2641 1.524 . S
C2640 C2654 1.377 1_554 S
C2641 C2640 1.524 . S
C2641 C2642 1.397 . S
C2641 C2646 1.363 . S
C2642 H2619 0.950 . S
C2642 C2641 1.397 . S
C2642 C2643 1.334 . S
C2643 H2620 0.950 . S
C2643 C2642 1.334 . S
C2643 C2644 1.287 . S
C2644 C2643 1.287 . S
C2644 C2645 1.524 . S
C2644 H2663 0.913 . S
C2645 H2621 0.950 . S
C2645 C2644 1.524 . S
C2645 C2646 1.415 . S
C2646 H2622 0.950 . S
C2646 C2641 1.363 . S
C2646 C2645 1.415 . S
C2647 H2623 0.951 . S
C2647 C2648 1.366 . S
C2647 C2649 1.388 . S
C2648 C2647 1.366 . S
C2648 C2652 1.385 . S
C2649 H2624 0.951 . S
C2649 C2647 1.388 . S
C2649 C2650 1.366 . S
C2650 C2649 1.366 . S
C2650 C2651 1.414 . S
C2650 C2653 1.499 . S
C2651 H2625 0.950 . S
C2651 C2650 1.414 . S
C2651 C2652 1.374 . S
C2652 H2626 0.950 . S
C2652 C2648 1.385 . S
C2652 C2651 1.374 . S
C2653 C2650 1.499 . S
C2653 C2654 1.373 . S
C2653 C2655 1.389 . S
C2654 H2627 0.950 . S
C2654 C2640 1.377 1_556 S
C2654 C2653 1.373 . S
C2655 C2639 1.377 1_556 S
C2655 C2653 1.389 . S
C2655 C2656 1.524 . S
C2656 C2655 1.524 . S
C2656 C2657 1.397 . S
C2656 C2661 1.363 . S
C2657 H2628 0.950 . S
C2657 C2656 1.397 . S
C2657 C2658 1.334 . S
C2658 H2629 0.950 . S
C2658 C2657 1.334 . S
C2658 C2659 1.287 . S
C2659 C2658 1.287 . S
C2659 C2660 1.524 . S
C2659 H2662 0.999 . S
C2660 H2630 0.950 . S
C2660 C2659 1.524 . S
C2660 C2661 1.415 . S
C2661 H2631 0.950 . S
C2661 C2656 1.363 . S
C2661 C2660 1.415 . S
H2662 C2659 0.999 . S
H2663 C2644 0.913 . S
H2664 C2682 0.951 . S
H2665 C2684 0.951 . S
H2666 C2686 0.950 . S
H2667 C2687 0.950 . S
H2668 C2689 0.950 . S
H2669 C2692 0.950 . S
H2670 C2693 0.950 . S
H2671 C2695 0.950 . S
H2672 C2696 0.950 . S
H2673 C2697 0.951 . S
H2674 C2699 0.951 . S
H2675 C2701 0.950 . S
H2676 C2702 0.950 . S
H2677 C2704 0.950 . S
H2678 C2707 0.950 . S
H2679 C2708 0.950 1_655 S
H2680 C2710 0.950 . S
H2681 C2711 0.950 . S
C2682 H2664 0.951 . S
C2682 C2683 1.366 . S
C2682 C2684 1.388 . S
C2683 C2682 1.366 . S
C2683 C2687 1.385 . S
C2684 H2665 0.951 . S
C2684 C2682 1.388 . S
C2684 C2685 1.366 . S
C2685 C2684 1.366 . S
C2685 C2686 1.414 . S
C2685 C2688 1.499 . S
C2686 H2666 0.950 . S
C2686 C2685 1.414 . S
C2686 C2687 1.374 . S
C2687 H2667 0.950 . S
C2687 C2683 1.385 . S
C2687 C2686 1.374 . S
C2688 C2685 1.499 . S
C2688 C2689 1.373 . S
C2688 C2690 1.389 . S
C2689 H2668 0.950 . S
C2689 C2688 1.373 . S
C2689 C2705 1.377 . S
C2690 C2688 1.389 . S
C2690 C2691 1.524 . S
C2690 C2704 1.377 . S
C2691 C2690 1.524 . S
C2691 C2692 1.397 . S
C2691 C2696 1.363 . S
C2692 H2669 0.950 . S
C2692 C2691 1.397 . S
C2692 C2693 1.334 . S
C2693 H2670 0.950 . S
C2693 C2692 1.334 . S
C2693 C2694 1.287 . S
C2694 C2693 1.287 . S
C2694 C2695 1.524 . S
C2694 H2713 0.913 . S
C2695 H2671 0.950 . S
C2695 C2694 1.524 . S
C2695 C2696 1.415 . S
C2696 H2672 0.950 . S
C2696 C2691 1.363 . S
C2696 C2695 1.415 . S
C2697 H2673 0.951 . S
C2697 C2698 1.366 . S
C2697 C2699 1.388 . S
C2698 C2697 1.366 . S
C2698 C2702 1.385 . S
C2699 H2674 0.951 . S
C2699 C2697 1.388 . S
C2699 C2700 1.366 . S
C2700 C2699 1.366 . S
C2700 C2701 1.414 . S
C2700 C2703 1.499 . S
C2701 H2675 0.950 . S
C2701 C2700 1.414 . S
C2701 C2702 1.374 . S
C2702 H2676 0.950 . S
C2702 C2698 1.385 . S
C2702 C2701 1.374 . S
C2703 C2700 1.499 . S
C2703 C2704 1.373 . S
C2703 C2705 1.389 . S
C2704 H2677 0.950 . S
C2704 C2690 1.377 . S
C2704 C2703 1.373 . S
C2705 C2689 1.377 . S
C2705 C2703 1.389 . S
C2705 C2706 1.524 . S
C2706 C2705 1.524 . S
C2706 C2707 1.397 . S
C2706 C2711 1.363 . S
C2707 H2678 0.950 . S
C2707 C2706 1.397 . S
C2707 C2708 1.334 . S
C2708 H2679 0.950 1_455 S
C2708 C2707 1.334 . S
C2708 C2709 1.287 . S
C2709 C2708 1.287 . S
C2709 C2710 1.524 . S
C2709 H2712 0.999 1_455 S
C2710 H2680 0.950 . S
C2710 C2709 1.524 . S
C2710 C2711 1.415 . S
C2711 H2681 0.950 . S
C2711 C2706 1.363 . S
C2711 C2710 1.415 . S
H2712 C2709 0.999 1_655 S
H2713 C2694 0.913 . S
H2714 C2732 0.951 . S
H2715 C2734 0.951 . S
H2716 C2736 0.950 . S
H2717 C2737 0.950 . S
H2718 C2739 0.950 . S
H2719 C2742 0.950 . S
H2720 C2743 0.950 . S
H2721 C2745 0.967 . S
H2722 C2746 0.950 . S
H2723 C2747 0.951 . S
H2724 C2749 0.951 . S
H2725 C2751 0.950 . S
H2726 C2752 0.950 . S
H2727 C2754 0.950 . S
H2728 C2757 0.950 . S
H2729 C2758 0.950 . S
H2730 C2760 0.967 . S
H2731 C2761 0.950 . S
C2732 H2714 0.951 . S
C2732 C2733 1.366 . S
C2732 C2734 1.388 . S
C2733 C2732 1.366 . S
C2733 C2737 1.385 . S
C2734 H2715 0.951 . S
C2734 C2732 1.388 . S
C2734 C2735 1.366 . S
C2735 C2734 1.366 . S
C2735 C2736 1.414 . S
C2735 C2738 1.499 . S
C2736 H2716 0.950 . S
C2736 C2735 1.414 . S
C2736 C2737 1.374 . S
C2737 H2717 0.950 . S
C2737 C2733 1.385 . S
C2737 C2736 1.374 . S
C2738 C2735 1.499 . S
C2738 C2739 1.373 . S
C2738 C2740 1.389 . S
C2739 H2718 0.950 . S
C2739 C2738 1.373 . S
C2739 C2755 1.377 1_554 S
C2740 C2738 1.389 . S
C2740 C2741 1.524 . S
C2740 C2754 1.377 1_554 S
C2741 C2740 1.524 . S
C2741 C2742 1.397 . S
C2741 C2746 1.363 1_554 S
C2742 H2719 0.950 . S
C2742 C2741 1.397 . S
C2742 C2743 1.334 . S
C2743 H2720 0.950 . S
C2743 C2742 1.334 . S
C2743 C2744 1.287 . S
C2744 C2743 1.287 . S
C2744 C2745 1.502 1_554 S
C2744 H2763 0.913 . S
C2745 H2721 0.967 . S
C2745 C2744 1.502 1_556 S
C2745 C2746 1.419 . S
C2746 H2722 0.950 . S
C2746 C2741 1.363 1_556 S
C2746 C2745 1.419 . S
C2747 H2723 0.951 . S
C2747 C2748 1.366 . S
C2747 C2749 1.388 . S
C2748 C2747 1.366 . S
C2748 C2752 1.385 . S
C2749 H2724 0.951 . S
C2749 C2747 1.388 . S
C2749 C2750 1.366 . S
C2750 C2749 1.366 . S
C2750 C2751 1.414 . S
C2750 C2753 1.499 . S
C2751 H2725 0.950 . S
C2751 C2750 1.414 . S
C2751 C2752 1.374 . S
C2752 H2726 0.950 . S
C2752 C2748 1.385 . S
C2752 C2751 1.374 . S
C2753 C2750 1.499 . S
C2753 C2754 1.373 . S
C2753 C2755 1.389 . S
C2754 H2727 0.950 . S
C2754 C2740 1.377 1_556 S
C2754 C2753 1.373 . S
C2755 C2739 1.377 1_556 S
C2755 C2753 1.389 . S
C2755 C2756 1.524 . S
C2756 C2755 1.524 . S
C2756 C2757 1.397 . S
C2756 C2761 1.363 1_556 S
C2757 H2728 0.950 . S
C2757 C2756 1.397 . S
C2757 C2758 1.334 . S
C2758 H2729 0.950 . S
C2758 C2757 1.334 . S
C2758 C2759 1.287 . S
C2759 C2758 1.287 . S
C2759 C2760 1.502 1_556 S
C2759 H2762 0.999 . S
C2760 H2730 0.967 . S
C2760 C2759 1.502 1_554 S
C2760 C2761 1.419 . S
C2761 H2731 0.950 . S
C2761 C2756 1.363 1_554 S
C2761 C2760 1.419 . S
H2762 C2759 0.999 . S
H2763 C2744 0.913 . S
H2764 C2782 0.951 . S
H2765 C2784 0.951 . S
H2766 C2786 0.950 . S
H2767 C2787 0.950 . S
H2768 C2789 0.950 . S
H2769 C2792 0.950 . S
H2770 C2793 0.950 . S
H2771 C2795 0.950 . S
H2772 C2796 0.950 . S
H2773 C2797 0.951 . S
H2774 C2799 0.951 . S
H2775 C2801 0.950 . S
H2776 C2802 0.950 . S
H2777 C2804 0.950 . S
H2778 C2807 0.950 . S
H2779 C2808 0.950 . S
H2780 C2810 0.950 . S
H2781 C2811 0.950 . S
C2782 H2764 0.951 . S
C2782 C2783 1.366 . S
C2782 C2784 1.388 . S
C2783 C2782 1.366 . S
C2783 C2787 1.385 . S
C2784 H2765 0.951 . S
C2784 C2782 1.388 . S
C2784 C2785 1.366 . S
C2785 C2784 1.366 . S
C2785 C2786 1.414 . S
C2785 C2788 1.499 . S
C2786 H2766 0.950 . S
C2786 C2785 1.414 . S
C2786 C2787 1.374 . S
C2787 H2767 0.950 . S
C2787 C2783 1.385 . S
C2787 C2786 1.374 . S
C2788 C2785 1.499 . S
C2788 C2789 1.373 . S
C2788 C2790 1.389 . S
C2789 H2768 0.950 . S
C2789 C2788 1.373 . S
C2789 C2805 1.377 . S
C2790 C2788 1.389 . S
C2790 C2791 1.524 . S
C2790 C2804 1.377 . S
C2791 C2790 1.524 . S
C2791 C2792 1.397 . S
C2791 C2796 1.363 . S
C2792 H2769 0.950 . S
C2792 C2791 1.397 . S
C2792 C2793 1.334 . S
C2793 H2770 0.950 . S
C2793 C2792 1.334 . S
C2793 C2794 1.287 . S
C2794 C2793 1.287 . S
C2794 C2795 1.524 . S
C2794 H2813 0.913 . S
C2795 H2771 0.950 . S
C2795 C2794 1.524 . S
C2795 C2796 1.415 . S
C2796 H2772 0.950 . S
C2796 C2791 1.363 . S
C2796 C2795 1.415 . S
C2797 H2773 0.951 . S
C2797 C2798 1.366 . S
C2797 C2799 1.388 . S
C2798 C2797 1.366 . S
C2798 C2802 1.385 . S
C2799 H2774 0.951 . S
C2799 C2797 1.388 . S
C2799 C2800 1.366 . S
C2800 C2799 1.366 . S
C2800 C2801 1.414 . S
C2800 C2803 1.499 . S
C2801 H2775 0.950 . S
C2801 C2800 1.414 . S
C2801 C2802 1.374 . S
C2802 H2776 0.950 . S
C2802 C2798 1.385 . S
C2802 C2801 1.374 . S
C2803 C2800 1.499 . S
C2803 C2804 1.373 . S
C2803 C2805 1.389 . S
C2804 H2777 0.950 . S
C2804 C2790 1.377 . S
C2804 C2803 1.373 . S
C2805 C2789 1.377 . S
C2805 C2803 1.389 . S
C2805 C2806 1.524 . S
C2806 C2805 1.524 . S
C2806 C2807 1.397 . S
C2806 C2811 1.363 . S
C2807 H2778 0.950 . S
C2807 C2806 1.397 . S
C2807 C2808 1.334 . S
C2808 H2779 0.950 . S
C2808 C2807 1.334 . S
C2808 C2809 1.287 . S
C2809 C2808 1.287 . S
C2809 C2810 1.524 . S
C2809 H2812 0.999 . S
C2810 H2780 0.950 . S
C2810 C2809 1.524 . S
C2810 C2811 1.415 . S
C2811 H2781 0.950 . S
C2811 C2806 1.363 . S
C2811 C2810 1.415 . S
H2812 C2809 0.999 . S
H2813 C2794 0.913 . S
H2814 C2832 0.951 . S
H2815 C2834 0.951 . S
H2816 C2836 0.950 . S
H2817 C2837 0.950 . S
H2818 C2839 0.950 . S
H2819 C2842 0.950 . S
H2820 C2843 0.950 . S
H2821 C2845 0.950 . S
H2822 C2846 0.950 . S
H2823 C2847 0.951 . S
H2824 C2849 0.951 . S
H2825 C2851 0.950 . S
H2826 C2852 0.950 . S
H2827 C2854 0.950 . S
H2828 C2857 0.950 . S
H2829 C2858 0.950 . S
H2830 C2860 0.950 . S
H2831 C2861 0.950 . S
C2832 H2814 0.951 . S
C2832 C2833 1.366 . S
C2832 C2834 1.388 . S
C2833 C2832 1.366 . S
C2833 C2837 1.385 . S
C2834 H2815 0.951 . S
C2834 C2832 1.388 . S
C2834 C2835 1.366 . S
C2835 C2834 1.366 . S
C2835 C2836 1.414 . S
C2835 C2838 1.499 . S
C2836 H2816 0.950 . S
C2836 C2835 1.414 . S
C2836 C2837 1.374 . S
C2837 H2817 0.950 . S
C2837 C2833 1.385 . S
C2837 C2836 1.374 . S
C2838 C2835 1.499 . S
C2838 C2839 1.373 . S
C2838 C2840 1.389 . S
C2839 H2818 0.950 . S
C2839 C2838 1.373 . S
C2839 C2855 1.377 . S
C2840 C2838 1.389 . S
C2840 C2841 1.524 . S
C2840 C2854 1.377 . S
C2841 C2840 1.524 . S
C2841 C2842 1.397 . S
C2841 C2846 1.363 . S
C2842 H2819 0.950 . S
C2842 C2841 1.397 . S
C2842 C2843 1.334 . S
C2843 H2820 0.950 . S
C2843 C2842 1.334 . S
C2843 C2844 1.287 . S
C2844 C2843 1.287 . S
C2844 C2845 1.524 . S
C2844 H2863 0.913 . S
C2845 H2821 0.950 . S
C2845 C2844 1.524 . S
C2845 C2846 1.415 . S
C2846 H2822 0.950 . S
C2846 C2841 1.363 . S
C2846 C2845 1.415 . S
C2847 H2823 0.951 . S
C2847 C2848 1.366 . S
C2847 C2849 1.388 . S
C2848 C2847 1.366 . S
C2848 C2852 1.385 . S
C2849 H2824 0.951 . S
C2849 C2847 1.388 . S
C2849 C2850 1.366 . S
C2850 C2849 1.366 . S
C2850 C2851 1.414 . S
C2850 C2853 1.499 . S
C2851 H2825 0.950 . S
C2851 C2850 1.414 . S
C2851 C2852 1.374 . S
C2852 H2826 0.950 . S
C2852 C2848 1.385 . S
C2852 C2851 1.374 . S
C2853 C2850 1.499 . S
C2853 C2854 1.373 . S
C2853 C2855 1.389 . S
C2854 H2827 0.950 . S
C2854 C2840 1.377 . S
C2854 C2853 1.373 . S
C2855 C2839 1.377 . S
C2855 C2853 1.389 . S
C2855 C2856 1.524 . S
C2856 C2855 1.524 . S
C2856 C2857 1.397 . S
C2856 C2861 1.363 . S
C2857 H2828 0.950 . S
C2857 C2856 1.397 . S
C2857 C2858 1.334 . S
C2858 H2829 0.950 . S
C2858 C2857 1.334 . S
C2858 C2859 1.287 . S
C2859 C2858 1.287 . S
C2859 C2860 1.524 . S
C2859 H2862 0.999 1_455 S
C2860 H2830 0.950 . S
C2860 C2859 1.524 . S
C2860 C2861 1.415 . S
C2861 H2831 0.950 . S
C2861 C2856 1.363 . S
C2861 C2860 1.415 . S
H2862 C2859 0.999 1_655 S
H2863 C2844 0.913 . S
H2864 C2882 0.951 . S
H2865 C2884 0.951 . S
H2866 C2886 0.950 . S
H2867 C2887 0.950 1_565 S
H2868 C2889 0.950 . S
H2869 C2892 0.950 . S
H2870 C2893 0.950 . S
H2871 C2895 0.950 . S
H2872 C2896 0.950 . S
H2873 C2897 0.951 . S
H2874 C2899 0.951 . S
H2875 C2901 0.950 . S
H2876 C2902 0.950 1_545 S
H2877 C2904 0.950 . S
H2878 C2907 0.950 . S
H2879 C2908 0.950 . S
H2880 C2910 0.950 . S
H2881 C2911 0.950 . S
C2882 H2864 0.951 . S
C2882 C2883 1.366 . S
C2882 C2884 1.388 . S
C2883 C2882 1.366 . S
C2883 C2887 1.385 . S
C2884 H2865 0.951 . S
C2884 C2882 1.388 . S
C2884 C2885 1.366 . S
C2885 C2884 1.366 . S
C2885 C2886 1.414 1_545 S
C2885 C2888 1.499 . S
C2886 H2866 0.950 . S
C2886 C2885 1.414 1_565 S
C2886 C2887 1.374 1_565 S
C2887 H2867 0.950 1_545 S
C2887 C2883 1.385 . S
C2887 C2886 1.374 1_545 S
C2888 C2885 1.499 . S
C2888 C2889 1.373 1_545 S
C2888 C2890 1.389 . S
C2889 H2868 0.950 . S
C2889 C2888 1.373 1_565 S
C2889 C2905 1.377 . S
C2890 C2888 1.389 . S
C2890 C2891 1.524 . S
C2890 C2904 1.377 . S
C2891 C2890 1.524 . S
C2891 C2892 1.397 . S
C2891 C2896 1.363 . S
C2892 H2869 0.950 . S
C2892 C2891 1.397 . S
C2892 C2893 1.334 . S
C2893 H2870 0.950 . S
C2893 C2892 1.334 . S
C2893 C2894 1.287 . S
C2894 C2893 1.287 . S
C2894 C2895 1.524 . S
C2894 H2913 0.913 . S
C2895 H2871 0.950 . S
C2895 C2894 1.524 . S
C2895 C2896 1.415 . S
C2896 H2872 0.950 . S
C2896 C2891 1.363 . S
C2896 C2895 1.415 . S
C2897 H2873 0.951 . S
C2897 C2898 1.366 . S
C2897 C2899 1.388 . S
C2898 C2897 1.366 . S
C2898 C2902 1.385 . S
C2899 H2874 0.951 . S
C2899 C2897 1.388 . S
C2899 C2900 1.366 . S
C2900 C2899 1.366 . S
C2900 C2901 1.414 1_565 S
C2900 C2903 1.499 . S
C2901 H2875 0.950 . S
C2901 C2900 1.414 1_545 S
C2901 C2902 1.374 1_545 S
C2902 H2876 0.950 1_565 S
C2902 C2898 1.385 . S
C2902 C2901 1.374 1_565 S
C2903 C2900 1.499 . S
C2903 C2904 1.373 1_565 S
C2903 C2905 1.389 . S
C2904 H2877 0.950 . S
C2904 C2890 1.377 . S
C2904 C2903 1.373 1_545 S
C2905 C2889 1.377 . S
C2905 C2903 1.389 . S
C2905 C2906 1.524 . S
C2906 C2905 1.524 . S
C2906 C2907 1.397 . S
C2906 C2911 1.363 . S
C2907 H2878 0.950 . S
C2907 C2906 1.397 . S
C2907 C2908 1.334 . S
C2908 H2879 0.950 . S
C2908 C2907 1.334 . S
C2908 C2909 1.287 . S
C2909 C2908 1.287 . S
C2909 C2910 1.524 . S
C2909 H2912 0.999 . S
C2910 H2880 0.950 . S
C2910 C2909 1.524 . S
C2910 C2911 1.415 . S
C2911 H2881 0.950 . S
C2911 C2906 1.363 . S
C2911 C2910 1.415 . S
H2912 C2909 0.999 . S
H2913 C2894 0.913 . S
H2914 C2932 0.951 . S
H2915 C2934 0.951 . S
H2916 C2936 0.950 . S
H2917 C2937 0.950 1_455 S
H2918 C2939 0.950 . S
H2919 C2942 0.950 . S
H2920 C2943 0.950 . S
H2921 C2945 0.950 . S
H2922 C2946 0.950 1_565 S
H2923 C2947 0.951 . S
H2924 C2949 0.951 . S
H2925 C2951 0.950 . S
H2926 C2952 0.950 1_655 S
H2927 C2954 0.950 . S
H2928 C2957 0.950 . S
H2929 C2958 0.950 . S
H2930 C2960 0.950 . S
H2931 C2961 0.950 1_545 S
C2932 H2914 0.951 . S
C2932 C2933 1.366 . S
C2932 C2934 1.388 . S
C2933 C2932 1.366 . S
C2933 C2937 1.385 . S
C2934 H2915 0.951 . S
C2934 C2932 1.388 . S
C2934 C2935 1.366 . S
C2935 C2934 1.366 . S
C2935 C2936 1.414 1_655 S
C2935 C2938 1.499 . S
C2936 H2916 0.950 . S
C2936 C2935 1.414 1_455 S
C2936 C2937 1.374 1_455 S
C2937 H2917 0.950 1_655 S
C2937 C2933 1.385 . S
C2937 C2936 1.374 1_655 S
C2938 C2935 1.499 . S
C2938 C2939 1.373 1_655 S
C2938 C2940 1.389 . S
C2939 H2918 0.950 . S
C2939 C2938 1.373 1_455 S
C2939 C2955 1.377 1_545 S
C2940 C2938 1.389 . S
C2940 C2941 1.524 . S
C2940 C2954 1.377 1_545 S
C2941 C2940 1.524 . S
C2941 C2942 1.397 . S
C2941 C2946 1.363 . S
C2942 H2919 0.950 . S
C2942 C2941 1.397 . S
C2942 C2943 1.334 . S
C2943 H2920 0.950 . S
C2943 C2942 1.334 . S
C2943 C2944 1.287 . S
C2944 C2943 1.287 . S
C2944 C2945 1.524 . S
C2944 H2963 0.913 . S
C2945 H2921 0.950 . S
C2945 C2944 1.524 . S
C2945 C2946 1.415 . S
C2946 H2922 0.950 1_545 S
C2946 C2941 1.363 . S
C2946 C2945 1.415 . S
C2947 H2923 0.951 . S
C2947 C2948 1.366 . S
C2947 C2949 1.388 . S
C2948 C2947 1.366 . S
C2948 C2952 1.385 . S
C2949 H2924 0.951 . S
C2949 C2947 1.388 . S
C2949 C2950 1.366 . S
C2950 C2949 1.366 . S
C2950 C2951 1.414 1_455 S
C2950 C2953 1.499 . S
C2951 H2925 0.950 . S
C2951 C2950 1.414 1_655 S
C2951 C2952 1.374 1_655 S
C2952 H2926 0.950 1_455 S
C2952 C2948 1.385 . S
C2952 C2951 1.374 1_455 S
C2953 C2950 1.499 . S
C2953 C2954 1.373 1_455 S
C2953 C2955 1.389 . S
C2954 H2927 0.950 . S
C2954 C2940 1.377 1_565 S
C2954 C2953 1.373 1_655 S
C2955 C2939 1.377 1_565 S
C2955 C2953 1.389 . S
C2955 C2956 1.524 . S
C2956 C2955 1.524 . S
C2956 C2957 1.397 . S
C2956 C2961 1.363 . S
C2957 H2928 0.950 . S
C2957 C2956 1.397 . S
C2957 C2958 1.334 . S
C2958 H2929 0.950 . S
C2958 C2957 1.334 . S
C2958 C2959 1.287 . S
C2959 C2958 1.287 . S
C2959 C2960 1.524 . S
C2959 H2962 0.999 . S
C2960 H2930 0.950 . S
C2960 C2959 1.524 . S
C2960 C2961 1.415 . S
C2961 H2931 0.950 1_565 S
C2961 C2956 1.363 . S
C2961 C2960 1.415 . S
H2962 C2959 0.999 . S
H2963 C2944 0.913 . S
H2964 C2982 0.951 . S
H2965 C2984 0.951 . S
H2966 C2986 0.950 . S
H2967 C2987 0.950 . S
H2968 C2989 0.950 . S
H2969 C2992 0.950 . S
H2970 C2993 0.950 . S
H2971 C2995 0.950 1_655 S
H2972 C2996 0.928 1_655 S
H2973 C2997 0.951 . S
H2974 C2999 0.951 . S
H2975 C3001 0.950 . S
H2976 C3002 0.950 . S
H2977 C3004 0.950 . S
H2978 C3007 0.950 . S
H2979 C3008 0.950 . S
H2980 C3010 0.950 1_455 S
H2981 C3011 0.928 1_455 S
C2982 H2964 0.951 . S
C2982 C2983 1.366 . S
C2982 C2984 1.388 . S
C2983 C2982 1.366 . S
C2983 C2987 1.385 . S
C2984 H2965 0.951 . S
C2984 C2982 1.388 . S
C2984 C2985 1.366 . S
C2985 C2984 1.366 . S
C2985 C2986 1.414 . S
C2985 C2988 1.499 . S
C2986 H2966 0.950 . S
C2986 C2985 1.414 . S
C2986 C2987 1.374 . S
C2987 H2967 0.950 . S
C2987 C2983 1.385 . S
C2987 C2986 1.374 . S
C2988 C2985 1.499 . S
C2988 C2989 1.373 . S
C2988 C2990 1.389 . S
C2989 H2968 0.950 . S
C2989 C2988 1.373 . S
C2989 C3005 1.377 1_455 S
C2990 C2988 1.389 . S
C2990 C2991 1.524 . S
C2990 C3004 1.377 1_455 S
C2991 C2990 1.524 . S
C2991 C2992 1.397 . S
C2991 C2996 1.379 . S
C2992 H2969 0.950 . S
C2992 C2991 1.397 . S
C2992 C2993 1.334 . S
C2993 H2970 0.950 . S
C2993 C2992 1.334 . S
C2993 C2994 1.287 . S
C2994 C2993 1.287 . S
C2994 C2995 1.524 . S
C2994 H3013 0.913 . S
C2995 H2971 0.950 1_455 S
C2995 C2994 1.524 . S
C2995 C2996 1.421 . S
C2996 H2972 0.928 1_455 S
C2996 C2991 1.379 . S
C2996 C2995 1.421 . S
C2997 H2973 0.951 . S
C2997 C2998 1.366 . S
C2997 C2999 1.388 . S
C2998 C2997 1.366 . S
C2998 C3002 1.385 . S
C2999 H2974 0.951 . S
C2999 C2997 1.388 . S
C2999 C3000 1.366 . S
C3000 C2999 1.366 . S
C3000 C3001 1.414 . S
C3000 C3003 1.499 . S
C3001 H2975 0.950 . S
C3001 C3000 1.414 . S
C3001 C3002 1.374 . S
C3002 H2976 0.950 . S
C3002 C2998 1.385 . S
C3002 C3001 1.374 . S
C3003 C3000 1.499 . S
C3003 C3004 1.373 . S
C3003 C3005 1.389 . S
C3004 H2977 0.950 . S
C3004 C2990 1.377 1_655 S
C3004 C3003 1.373 . S
C3005 C2989 1.377 1_655 S
C3005 C3003 1.389 . S
C3005 C3006 1.524 . S
C3006 C3005 1.524 . S
C3006 C3007 1.397 . S
C3006 C3011 1.379 . S
C3007 H2978 0.950 . S
C3007 C3006 1.397 . S
C3007 C3008 1.334 . S
C3008 H2979 0.950 . S
C3008 C3007 1.334 . S
C3008 C3009 1.287 . S
C3009 C3008 1.287 . S
C3009 C3010 1.524 . S
C3009 H3012 0.999 . S
C3010 H2980 0.950 1_655 S
C3010 C3009 1.524 . S
C3010 C3011 1.421 . S
C3011 H2981 0.928 1_655 S
C3011 C3006 1.379 . S
C3011 C3010 1.421 . S
H3012 C3009 0.999 . S
H3013 C2994 0.913 . S
H3014 C3032 0.951 . S
H3015 C3034 0.951 . S
H3016 C3036 0.950 . S
H3017 C3037 0.950 . S
H3018 C3039 0.950 . S
H3019 C3042 0.950 . S
H3020 C3043 0.950 . S
H3021 C3045 0.950 . S
H3022 C3046 0.950 . S
H3023 C3047 0.951 . S
H3024 C3049 0.951 . S
H3025 C3051 0.950 . S
H3026 C3052 0.950 . S
H3027 C3054 0.950 . S
H3028 C3057 0.950 . S
H3029 C3058 0.950 . S
H3030 C3060 0.950 . S
H3031 C3061 0.950 . S
C3032 H3014 0.951 . S
C3032 C3033 1.366 . S
C3032 C3034 1.388 . S
C3033 C3032 1.366 . S
C3033 C3037 1.385 . S
C3034 H3015 0.951 . S
C3034 C3032 1.388 . S
C3034 C3035 1.366 . S
C3035 C3034 1.366 . S
C3035 C3036 1.414 . S
C3035 C3038 1.499 . S
C3036 H3016 0.950 . S
C3036 C3035 1.414 . S
C3036 C3037 1.374 . S
C3037 H3017 0.950 . S
C3037 C3033 1.385 . S
C3037 C3036 1.374 . S
C3038 C3035 1.499 . S
C3038 C3039 1.373 . S
C3038 C3040 1.389 . S
C3039 H3018 0.950 . S
C3039 C3038 1.373 . S
C3039 C3055 1.377 . S
C3040 C3038 1.389 . S
C3040 C3041 1.524 . S
C3040 C3054 1.377 . S
C3041 C3040 1.524 . S
C3041 C3042 1.397 . S
C3041 C3046 1.363 . S
C3042 H3019 0.950 . S
C3042 C3041 1.397 . S
C3042 C3043 1.334 . S
C3043 H3020 0.950 . S
C3043 C3042 1.334 . S
C3043 C3044 1.287 . S
C3044 C3043 1.287 . S
C3044 C3045 1.524 . S
C3044 H3063 0.913 . S
C3045 H3021 0.950 . S
C3045 C3044 1.524 . S
C3045 C3046 1.415 . S
C3046 H3022 0.950 . S
C3046 C3041 1.363 . S
C3046 C3045 1.415 . S
C3047 H3023 0.951 . S
C3047 C3048 1.366 . S
C3047 C3049 1.388 . S
C3048 C3047 1.366 . S
C3048 C3052 1.385 . S
C3049 H3024 0.951 . S
C3049 C3047 1.388 . S
C3049 C3050 1.366 . S
C3050 C3049 1.366 . S
C3050 C3051 1.414 . S
C3050 C3053 1.499 . S
C3051 H3025 0.950 . S
C3051 C3050 1.414 . S
C3051 C3052 1.374 . S
C3052 H3026 0.950 . S
C3052 C3048 1.385 . S
C3052 C3051 1.374 . S
C3053 C3050 1.499 . S
C3053 C3054 1.373 . S
C3053 C3055 1.389 . S
C3054 H3027 0.950 . S
C3054 C3040 1.377 . S
C3054 C3053 1.373 . S
C3055 C3039 1.377 . S
C3055 C3053 1.389 . S
C3055 C3056 1.524 . S
C3056 C3055 1.524 . S
C3056 C3057 1.397 . S
C3056 C3061 1.363 . S
C3057 H3028 0.950 . S
C3057 C3056 1.397 . S
C3057 C3058 1.334 . S
C3058 H3029 0.950 . S
C3058 C3057 1.334 . S
C3058 C3059 1.287 . S
C3059 C3058 1.287 . S
C3059 C3060 1.524 . S
C3059 H3062 0.999 . S
C3060 H3030 0.950 . S
C3060 C3059 1.524 . S
C3060 C3061 1.415 . S
C3061 H3031 0.950 . S
C3061 C3056 1.363 . S
C3061 C3060 1.415 . S
H3062 C3059 0.999 . S
H3063 C3044 0.913 . S
H3064 C3082 0.951 . S
H3065 C3084 0.951 . S
H3066 C3086 0.950 . S
H3067 C3087 0.950 . S
H3068 C3089 0.950 . S
H3069 C3092 0.950 . S
H3070 C3093 0.950 . S
H3071 C3095 0.950 . S
H3072 C3096 0.950 . S
H3073 C3097 0.951 . S
H3074 C3099 0.951 . S
H3075 C3101 0.950 . S
H3076 C3102 0.950 . S
H3077 C3104 0.950 . S
H3078 C3107 0.950 . S
H3079 C3108 0.950 . S
H3080 C3110 0.950 . S
H3081 C3111 0.950 . S
C3082 H3064 0.951 . S
C3082 C3083 1.366 . S
C3082 C3084 1.388 . S
C3083 C3082 1.366 . S
C3083 C3087 1.385 . S
C3084 H3065 0.951 . S
C3084 C3082 1.388 . S
C3084 C3085 1.366 . S
C3085 C3084 1.366 . S
C3085 C3086 1.414 . S
C3085 C3088 1.499 . S
C3086 H3066 0.950 . S
C3086 C3085 1.414 . S
C3086 C3087 1.374 . S
C3087 H3067 0.950 . S
C3087 C3083 1.385 . S
C3087 C3086 1.374 . S
C3088 C3085 1.499 . S
C3088 C3089 1.373 . S
C3088 C3090 1.389 . S
C3089 H3068 0.950 . S
C3089 C3088 1.373 . S
C3089 C3105 1.377 . S
C3090 C3088 1.389 . S
C3090 C3091 1.524 . S
C3090 C3104 1.377 . S
C3091 C3090 1.524 . S
C3091 C3092 1.397 . S
C3091 C3096 1.363 . S
C3092 H3069 0.950 . S
C3092 C3091 1.397 . S
C3092 C3093 1.334 . S
C3093 H3070 0.950 . S
C3093 C3092 1.334 . S
C3093 C3094 1.287 . S
C3094 C3093 1.287 . S
C3094 C3095 1.524 . S
C3094 H3113 0.913 . S
C3095 H3071 0.950 . S
C3095 C3094 1.524 . S
C3095 C3096 1.415 . S
C3096 H3072 0.950 . S
C3096 C3091 1.363 . S
C3096 C3095 1.415 . S
C3097 H3073 0.951 . S
C3097 C3098 1.366 . S
C3097 C3099 1.388 . S
C3098 C3097 1.366 . S
C3098 C3102 1.385 . S
C3099 H3074 0.951 . S
C3099 C3097 1.388 . S
C3099 C3100 1.366 . S
C3100 C3099 1.366 . S
C3100 C3101 1.414 . S
C3100 C3103 1.499 . S
C3101 H3075 0.950 . S
C3101 C3100 1.414 . S
C3101 C3102 1.374 . S
C3102 H3076 0.950 . S
C3102 C3098 1.385 . S
C3102 C3101 1.374 . S
C3103 C3100 1.499 . S
C3103 C3104 1.373 . S
C3103 C3105 1.389 . S
C3104 H3077 0.950 . S
C3104 C3090 1.377 . S
C3104 C3103 1.373 . S
C3105 C3089 1.377 . S
C3105 C3103 1.389 . S
C3105 C3106 1.524 . S
C3106 C3105 1.524 . S
C3106 C3107 1.397 . S
C3106 C3111 1.363 . S
C3107 H3078 0.950 . S
C3107 C3106 1.397 . S
C3107 C3108 1.334 . S
C3108 H3079 0.950 . S
C3108 C3107 1.334 . S
C3108 C3109 1.287 . S
C3109 C3108 1.287 . S
C3109 C3110 1.524 . S
C3109 H3112 0.999 . S
C3110 H3080 0.950 . S
C3110 C3109 1.524 . S
C3110 C3111 1.415 . S
C3111 H3081 0.950 . S
C3111 C3106 1.363 . S
C3111 C3110 1.415 . S
H3112 C3109 0.999 . S
H3113 C3094 0.913 . S
H3114 C3132 0.951 . S
H3115 C3134 0.951 . S
H3116 C3136 0.950 . S
H3117 C3137 0.950 . S
H3118 C3139 0.950 . S
H3119 C3142 0.950 . S
H3120 C3143 0.950 . S
H3121 C3145 0.950 . S
H3122 C3146 0.950 . S
H3123 C3147 0.951 . S
H3124 C3149 0.951 . S
H3125 C3151 0.950 . S
H3126 C3152 0.950 . S
H3127 C3154 0.950 . S
H3128 C3157 0.950 . S
H3129 C3158 0.950 . S
H3130 C3160 0.950 . S
H3131 C3161 0.950 . S
C3132 H3114 0.951 . S
C3132 C3133 1.366 . S
C3132 C3134 1.388 . S
C3133 C3132 1.366 . S
C3133 C3137 1.385 . S
C3134 H3115 0.951 . S
C3134 C3132 1.388 . S
C3134 C3135 1.366 . S
C3135 C3134 1.366 . S
C3135 C3136 1.414 . S
C3135 C3138 1.499 . S
C3136 H3116 0.950 . S
C3136 C3135 1.414 . S
C3136 C3137 1.374 . S
C3137 H3117 0.950 . S
C3137 C3133 1.385 . S
C3137 C3136 1.374 . S
C3138 C3135 1.499 . S
C3138 C3139 1.373 . S
C3138 C3140 1.389 . S
C3139 H3118 0.950 . S
C3139 C3138 1.373 . S
C3139 C3155 1.377 1_545 S
C3140 C3138 1.389 . S
C3140 C3141 1.524 . S
C3140 C3154 1.377 1_545 S
C3141 C3140 1.524 . S
C3141 C3142 1.397 . S
C3141 C3146 1.363 . S
C3142 H3119 0.950 . S
C3142 C3141 1.397 . S
C3142 C3143 1.334 . S
C3143 H3120 0.950 . S
C3143 C3142 1.334 . S
C3143 C3144 1.287 . S
C3144 C3143 1.287 . S
C3144 C3145 1.524 . S
C3144 H3163 0.913 . S
C3145 H3121 0.950 . S
C3145 C3144 1.524 . S
C3145 C3146 1.415 . S
C3146 H3122 0.950 . S
C3146 C3141 1.363 . S
C3146 C3145 1.415 . S
C3147 H3123 0.951 . S
C3147 C3148 1.366 . S
C3147 C3149 1.388 . S
C3148 C3147 1.366 . S
C3148 C3152 1.385 . S
C3149 H3124 0.951 . S
C3149 C3147 1.388 . S
C3149 C3150 1.366 . S
C3150 C3149 1.366 . S
C3150 C3151 1.414 . S
C3150 C3153 1.499 . S
C3151 H3125 0.950 . S
C3151 C3150 1.414 . S
C3151 C3152 1.374 . S
C3152 H3126 0.950 . S
C3152 C3148 1.385 . S
C3152 C3151 1.374 . S
C3153 C3150 1.499 . S
C3153 C3154 1.373 . S
C3153 C3155 1.389 . S
C3154 H3127 0.950 . S
C3154 C3140 1.377 1_565 S
C3154 C3153 1.373 . S
C3155 C3139 1.377 1_565 S
C3155 C3153 1.389 . S
C3155 C3156 1.524 . S
C3156 C3155 1.524 . S
C3156 C3157 1.397 . S
C3156 C3161 1.363 . S
C3157 H3128 0.950 . S
C3157 C3156 1.397 . S
C3157 C3158 1.334 . S
C3158 H3129 0.950 . S
C3158 C3157 1.334 . S
C3158 C3159 1.287 . S
C3159 C3158 1.287 . S
C3159 C3160 1.524 . S
C3159 H3162 0.999 . S
C3160 H3130 0.950 . S
C3160 C3159 1.524 . S
C3160 C3161 1.415 . S
C3161 H3131 0.950 . S
C3161 C3156 1.363 . S
C3161 C3160 1.415 . S
H3162 C3159 0.999 . S
H3163 C3144 0.913 . S
H3164 C3182 0.951 . S
H3165 C3184 0.951 . S
H3166 C3186 0.950 . S
H3167 C3187 0.950 1_545 S
H3168 C3189 0.950 . S
H3169 C3192 0.950 . S
H3170 C3193 0.950 . S
H3171 C3195 0.950 . S
H3172 C3196 0.950 1_655 S
H3173 C3197 0.951 . S
H3174 C3199 0.951 . S
H3175 C3201 0.950 . S
H3176 C3202 0.950 1_565 S
H3177 C3204 0.950 . S
H3178 C3207 0.950 . S
H3179 C3208 0.950 . S
H3180 C3210 0.950 . S
H3181 C3211 0.950 1_455 S
C3182 H3164 0.951 . S
C3182 C3183 1.366 . S
C3182 C3184 1.388 . S
C3183 C3182 1.366 . S
C3183 C3187 1.385 . S
C3184 H3165 0.951 . S
C3184 C3182 1.388 . S
C3184 C3185 1.366 . S
C3185 C3184 1.366 . S
C3185 C3186 1.414 1_565 S
C3185 C3188 1.499 . S
C3186 H3166 0.950 . S
C3186 C3185 1.414 1_545 S
C3186 C3187 1.374 1_545 S
C3187 H3167 0.950 1_565 S
C3187 C3183 1.385 . S
C3187 C3186 1.374 1_565 S
C3188 C3185 1.499 . S
C3188 C3189 1.373 1_565 S
C3188 C3190 1.389 . S
C3189 H3168 0.950 . S
C3189 C3188 1.373 1_545 S
C3189 C3205 1.377 1_455 S
C3190 C3188 1.389 . S
C3190 C3191 1.524 . S
C3190 C3204 1.377 1_455 S
C3191 C3190 1.524 . S
C3191 C3192 1.397 . S
C3191 C3196 1.363 . S
C3192 H3169 0.950 . S
C3192 C3191 1.397 . S
C3192 C3193 1.334 . S
C3193 H3170 0.950 . S
C3193 C3192 1.334 . S
C3193 C3194 1.287 . S
C3194 C3193 1.287 . S
C3194 C3195 1.524 . S
C3194 H3213 0.913 . S
C3195 H3171 0.950 . S
C3195 C3194 1.524 . S
C3195 C3196 1.415 . S
C3196 H3172 0.950 1_455 S
C3196 C3191 1.363 . S
C3196 C3195 1.415 . S
C3197 H3173 0.951 . S
C3197 C3198 1.366 . S
C3197 C3199 1.388 . S
C3198 C3197 1.366 . S
C3198 C3202 1.385 . S
C3199 H3174 0.951 . S
C3199 C3197 1.388 . S
C3199 C3200 1.366 . S
C3200 C3199 1.366 . S
C3200 C3201 1.414 1_545 S
C3200 C3203 1.499 . S
C3201 H3175 0.950 . S
C3201 C3200 1.414 1_565 S
C3201 C3202 1.374 1_565 S
C3202 H3176 0.950 1_545 S
C3202 C3198 1.385 . S
C3202 C3201 1.374 1_545 S
C3203 C3200 1.499 . S
C3203 C3204 1.373 1_545 S
C3203 C3205 1.389 . S
C3204 H3177 0.950 . S
C3204 C3190 1.377 1_655 S
C3204 C3203 1.373 1_565 S
C3205 C3189 1.377 1_655 S
C3205 C3203 1.389 . S
C3205 C3206 1.524 . S
C3206 C3205 1.524 . S
C3206 C3207 1.397 . S
C3206 C3211 1.363 . S
C3207 H3178 0.950 . S
C3207 C3206 1.397 . S
C3207 C3208 1.334 . S
C3208 H3179 0.950 . S
C3208 C3207 1.334 . S
C3208 C3209 1.287 . S
C3209 C3208 1.287 . S
C3209 C3210 1.524 . S
C3209 H3212 0.999 . S
C3210 H3180 0.950 . S
C3210 C3209 1.524 . S
C3210 C3211 1.415 . S
C3211 H3181 0.950 1_655 S
C3211 C3206 1.363 . S
C3211 C3210 1.415 . S
H3212 C3209 0.999 . S
H3213 C3194 0.913 . S
H3214 C3232 0.951 . S
H3215 C3234 0.951 . S
H3216 C3236 0.950 . S
H3217 C3237 0.950 1_655 S
H3218 C3239 0.954 . S
H3219 C3242 0.950 . S
H3220 C3243 0.950 . S
H3221 C3245 0.950 . S
H3222 C3246 0.950 . S
H3223 C3247 0.951 . S
H3224 C3249 0.951 . S
H3225 C3251 0.950 . S
H3226 C3252 0.950 1_455 S
H3227 C3254 0.954 . S
H3228 C3257 0.950 . S
H3229 C3258 0.950 . S
H3230 C3260 0.950 1_554 S
H3231 C3261 0.950 . S
C3232 H3214 0.951 . S
C3232 C3233 1.366 . S
C3232 C3234 1.388 . S
C3233 C3232 1.366 . S
C3233 C3237 1.385 . S
C3234 H3215 0.951 . S
C3234 C3232 1.388 . S
C3234 C3235 1.366 . S
C3235 C3234 1.366 . S
C3235 C3236 1.414 1_455 S
C3235 C3238 1.499 . S
C3236 H3216 0.950 . S
C3236 C3235 1.414 1_655 S
C3236 C3237 1.374 1_655 S
C3237 H3217 0.950 1_455 S
C3237 C3233 1.385 . S
C3237 C3236 1.374 1_455 S
C3238 C3235 1.499 . S
C3238 C3239 1.362 1_455 S
C3238 C3240 1.389 . S
C3239 H3218 0.954 . S
C3239 C3238 1.362 1_655 S
C3239 C3255 1.387 . S
C3240 C3238 1.389 . S
C3240 C3241 1.524 . S
C3240 C3254 1.387 . S
C3241 C3240 1.524 . S
C3241 C3242 1.397 1_455 S
C3241 C3246 1.363 . S
C3242 H3219 0.950 . S
C3242 C3241 1.397 1_655 S
C3242 C3243 1.334 . S
C3243 H3220 0.950 . S
C3243 C3242 1.334 . S
C3243 C3244 1.287 1_655 S
C3244 C3243 1.287 1_455 S
C3244 C3245 1.524 . S
C3244 H3263 0.913 . S
C3245 H3221 0.950 . S
C3245 C3244 1.524 . S
C3245 C3246 1.415 . S
C3246 H3222 0.950 . S
C3246 C3241 1.363 . S
C3246 C3245 1.415 . S
C3247 H3223 0.951 . S
C3247 C3248 1.366 . S
C3247 C3249 1.388 . S
C3248 C3247 1.366 . S
C3248 C3252 1.385 . S
C3249 H3224 0.951 . S
C3249 C3247 1.388 . S
C3249 C3250 1.366 . S
C3250 C3249 1.366 . S
C3250 C3251 1.414 1_655 S
C3250 C3253 1.499 . S
C3251 H3225 0.950 . S
C3251 C3250 1.414 1_455 S
C3251 C3252 1.374 1_455 S
C3252 H3226 0.950 1_655 S
C3252 C3248 1.385 . S
C3252 C3251 1.374 1_655 S
C3253 C3250 1.499 . S
C3253 C3254 1.362 1_655 S
C3253 C3255 1.389 . S
C3254 H3227 0.954 . S
C3254 C3240 1.387 . S
C3254 C3253 1.362 1_455 S
C3255 C3239 1.387 . S
C3255 C3253 1.389 . S
C3255 C3256 1.524 . S
C3256 C3255 1.524 . S
C3256 C3257 1.397 1_655 S
C3256 C3261 1.363 . S
C3257 H3228 0.950 . S
C3257 C3256 1.397 1_455 S
C3257 C3258 1.334 . S
C3258 H3229 0.950 . S
C3258 C3257 1.334 . S
C3258 C3259 1.316 1_455 S
C3259 C3258 1.316 1_655 S
C3259 C3260 1.533 . S
C3259 H3262 0.959 1_556 S
C3260 H3230 0.950 1_556 S
C3260 C3259 1.533 . S
C3260 C3261 1.415 . S
C3261 H3231 0.950 . S
C3261 C3256 1.363 . S
C3261 C3260 1.415 . S
H3262 C3259 0.959 1_554 S
H3263 C3244 0.913 . S
C483 C21 0.380 . S
C498 C224 0.378 . S
C533 C137 0.380 . S
C548 C50 0.380 . S
C583 C79 0.380 . S
C598 C166 0.380 . S
C633 C108 0.378 . S
C648 C195 0.381 . S
C683 C456 0.380 . S
C698 C253 0.380 . S
C733 C369 0.381 . S
C748 C282 0.379 . S
C783 C311 0.378 . S
C798 C398 0.379 . S
C833 C340 0.378 . S
C848 C427 0.381 . S
C883 C97 2.051 . S
C898 C5 2.032 1_556 S
C933 C34 2.032 . S
C948 C10 2.050 . S
C983 C63 2.032 . S
C998 C39 2.050 . S
C1033 C92 2.032 . S
C1048 C68 2.051 . S
C1083 C121 2.032 . S
C1098 C155 2.051 . S
C1133 C150 2.032 . S
C1148 C184 2.050 . S
C1183 C213 2.051 . S
C1198 C179 2.033 . S
C1233 C208 2.032 1_554 S
C1248 C126 2.051 . S
C1283 C329 2.050 . S
C1298 C237 2.032 . S
C1333 C266 2.033 . S
C1348 C242 2.051 . S
C1383 C271 2.051 . S
C1398 C295 2.032 1_556 S
C1433 C324 2.032 . S
C1448 C300 2.050 . S
C1483 C353 2.032 . S
C1498 C387 2.051 . S
C1533 C382 2.032 1_554 S
C1548 C416 2.050 . S
C1583 C411 2.032 . S
C1598 C445 2.050 . S
C1633 C440 2.032 . S
C1648 C358 2.050 . S
C1683 C124 1.129 . S
C1698 C8 1.129 . S
C1733 C153 1.128 . S
C1748 C37 1.129 . S
C1783 C66 1.129 . S
C1798 C182 1.130 . S
C1833 C211 1.128 . S
C1848 C95 1.128 . S
C1883 C356 1.128 . S
C1898 C240 1.128 . S
C1933 C269 1.129 . S
C1948 C385 1.129 . S
C1983 C414 1.129 . S
C1998 C298 1.129 . S
C2033 C443 1.128 . S
C2048 C327 1.129 . S
C2083 C177 2.336 . S
C2098 C3 2.336 . S
C2133 C206 2.336 . S
C2148 C32 2.336 . S
C2183 C61 2.336 . S
C2198 C119 2.336 . S
C2233 C90 2.336 . S
C2248 C148 2.336 . S
C2283 C235 2.336 . S
C2298 C409 2.336 . S
C2333 C264 2.336 . S
C2348 C438 2.336 . S
C2383 C351 2.336 . S
C2398 C293 2.336 . S
C2433 C380 2.336 . S
C2448 C322 2.336 . S
C2483 C160 2.315 . S
C2498 C15 2.315 . S
C2533 C44 2.316 . S
C2548 C189 2.315 . S
C2583 C73 2.315 . S
C2598 C218 2.315 . S
C2633 C131 2.316 . S
C2648 C102 2.316 . S
C2683 C247 2.316 . S
C2698 C392 2.315 . S
C2733 C421 2.315 . S
C2748 C276 2.316 . S
C2783 C305 2.316 . S
C2798 C450 2.316 . S
C2833 C334 2.316 . S
C2848 C363 2.316 . S
C2883 C13 1.872 . S
C2898 C303 1.871 . S
C2933 C42 1.871 . S
C2948 C332 1.870 . S
C2983 C245 1.872 . S
C2998 C71 1.871 . S
C3033 C274 1.871 . S
C3048 C100 1.872 . S
C3083 C129 1.870 . S
C3098 C419 1.871 . S
C3133 C158 1.870 . S
C3148 C448 1.870 . S
C3183 C361 1.871 . S
C3198 C187 1.870 . S
C3233 C390 1.871 . S
C3248 C216 1.870 . S
