# Generated by pormake.
# Topology wkj, (6)-cn, num edge types: 1
# Building blocks:
#     Node 0, Type 0, BuildingBlock: BETDAH_clean_sbu_0, # of connection points: 6
#     Node 1, Type 0, BuildingBlock: BETDAH_clean_sbu_0, # of connection points: 6
#     Node 2, Type 0, BuildingBlock: BETDAH_clean_sbu_0, # of connection points: 6
#     Node 3, Type 0, BuildingBlock: BETDAH_clean_sbu_0, # of connection points: 6
#     Node 4, Type 0, BuildingBlock: BETDAH_clean_sbu_0, # of connection points: 6
#     Node 5, Type 0, BuildingBlock: BETDAH_clean_sbu_0, # of connection points: 6
#     Node 6, Type 0, BuildingBlock: BETDAH_clean_sbu_0, # of connection points: 6
#     Node 7, Type 0, BuildingBlock: BETDAH_clean_sbu_0, # of connection points: 6
#     Node 8, Type 0, BuildingBlock: BETDAH_clean_sbu_0, # of connection points: 6
#     Node 9, Type 0, BuildingBlock: BETDAH_clean_sbu_0, # of connection points: 6
#     Node 10, Type 0, BuildingBlock: BETDAH_clean_sbu_0, # of connection points: 6
#     Node 11, Type 0, BuildingBlock: BETDAH_clean_sbu_0, # of connection points: 6
#     Edge 12, Type (0, 0), BuildingBlock: AJUNOK_clean_linker_0, # of connection points: 2
#     Edge 13, Type (0, 0), BuildingBlock: AJUNOK_clean_linker_0, # of connection points: 2
#     Edge 14, Type (0, 0), BuildingBlock: AJUNOK_clean_linker_0, # of connection points: 2
#     Edge 15, Type (0, 0), BuildingBlock: AJUNOK_clean_linker_0, # of connection points: 2
#     Edge 16, Type (0, 0), BuildingBlock: AJUNOK_clean_linker_0, # of connection points: 2
#     Edge 17, Type (0, 0), BuildingBlock: AJUNOK_clean_linker_0, # of connection points: 2
#     Edge 18, Type (0, 0), BuildingBlock: AJUNOK_clean_linker_0, # of connection points: 2
#     Edge 19, Type (0, 0), BuildingBlock: AJUNOK_clean_linker_0, # of connection points: 2
#     Edge 20, Type (0, 0), BuildingBlock: AJUNOK_clean_linker_0, # of connection points: 2
#     Edge 21, Type (0, 0), BuildingBlock: AJUNOK_clean_linker_0, # of connection points: 2
#     Edge 22, Type (0, 0), BuildingBlock: AJUNOK_clean_linker_0, # of connection points: 2
#     Edge 23, Type (0, 0), BuildingBlock: AJUNOK_clean_linker_0, # of connection points: 2
#     Edge 24, Type (0, 0), BuildingBlock: AJUNOK_clean_linker_0, # of connection points: 2
#     Edge 25, Type (0, 0), BuildingBlock: AJUNOK_clean_linker_0, # of connection points: 2
#     Edge 26, Type (0, 0), BuildingBlock: AJUNOK_clean_linker_0, # of connection points: 2
#     Edge 27, Type (0, 0), BuildingBlock: AJUNOK_clean_linker_0, # of connection points: 2
#     Edge 28, Type (0, 0), BuildingBlock: AJUNOK_clean_linker_0, # of connection points: 2
#     Edge 29, Type (0, 0), BuildingBlock: AJUNOK_clean_linker_0, # of connection points: 2
#     Edge 30, Type (0, 0), BuildingBlock: AJUNOK_clean_linker_0, # of connection points: 2
#     Edge 31, Type (0, 0), BuildingBlock: AJUNOK_clean_linker_0, # of connection points: 2
#     Edge 32, Type (0, 0), BuildingBlock: AJUNOK_clean_linker_0, # of connection points: 2
#     Edge 33, Type (0, 0), BuildingBlock: AJUNOK_clean_linker_0, # of connection points: 2
#     Edge 34, Type (0, 0), BuildingBlock: AJUNOK_clean_linker_0, # of connection points: 2
#     Edge 35, Type (0, 0), BuildingBlock: AJUNOK_clean_linker_0, # of connection points: 2
#     Edge 36, Type (0, 0), BuildingBlock: AJUNOK_clean_linker_0, # of connection points: 2
#     Edge 37, Type (0, 0), BuildingBlock: AJUNOK_clean_linker_0, # of connection points: 2
#     Edge 38, Type (0, 0), BuildingBlock: AJUNOK_clean_linker_0, # of connection points: 2
#     Edge 39, Type (0, 0), BuildingBlock: AJUNOK_clean_linker_0, # of connection points: 2
#     Edge 40, Type (0, 0), BuildingBlock: AJUNOK_clean_linker_0, # of connection points: 2
#     Edge 41, Type (0, 0), BuildingBlock: AJUNOK_clean_linker_0, # of connection points: 2
#     Edge 42, Type (0, 0), BuildingBlock: AJUNOK_clean_linker_0, # of connection points: 2
#     Edge 43, Type (0, 0), BuildingBlock: AJUNOK_clean_linker_0, # of connection points: 2
#     Edge 44, Type (0, 0), BuildingBlock: AJUNOK_clean_linker_0, # of connection points: 2
#     Edge 45, Type (0, 0), BuildingBlock: AJUNOK_clean_linker_0, # of connection points: 2
#     Edge 46, Type (0, 0), BuildingBlock: AJUNOK_clean_linker_0, # of connection points: 2
#     Edge 47, Type (0, 0), BuildingBlock: AJUNOK_clean_linker_0, # of connection points: 2
# Relax obj value: 1.090
# Max RMSD: 0.172
# Mean RMSD: 0.172
data_MOF--net-wkj--node1-BETDAH_clean_sbu_0--edge1-AJUNOK_clean_linker_0
_symmetry_space_group_name_H-M    P1
_symmetry_Int_Tables_number       1
_symmetry_cell_setting            triclinic
loop_
_symmetry_equiv_pos_as_xyz
'x, y, z'
_cell_length_a     37.969756
_cell_length_b     37.828614
_cell_length_c     22.393703
_cell_angle_alpha  89.394818
_cell_angle_beta   90.732498
_cell_angle_gamma 120.93194
loop_
_atom_site_label
_atom_site_type_symbol
_atom_site_fract_x
_atom_site_fract_y
_atom_site_fract_z
_atom_type_partial_charge
Ho0 Ho 0.42255 0.0649 0.44301 0.0
Ho1 Ho 0.50178 0.11764 0.38735 0.0
C2 C 0.50682 0.10678 0.53885 0.0
C3 C 0.35702 0.01893 0.50375 0.0
C4 C 0.32763 0.02505 0.5378 0.0
C5 C 0.33895 0.04458 0.59347 0.0
C6 C 0.30933 0.04296 0.63101 0.0
C7 C 0.26758 0.02176 0.61389 0.0
C8 C 0.25719 0.00712 0.555 0.0
C9 C 0.28694 0.00818 0.51751 0.0
C10 C 0.43184 0.13969 0.40617 0.0
C11 C 0.42734 0.03487 0.30259 0.0
C12 C 0.54394 0.17445 0.31076 0.0
C13 C 0.526 0.18424 0.25837 0.0
C14 C 0.52593 0.23263 0.25841 0.0
C15 C 0.49751 0.24404 0.20271 0.0
C16 C 0.46475 0.20148 1.14231 0.0
C17 C 0.46863 0.15133 1.14002 0.0
C18 C 0.49813 0.14445 0.19992 0.0
C19 C 0.49349 0.04995 0.42831 0.0
O20 O 0.46569 0.08213 0.53047 0.0
O21 O 0.52867 0.1266 0.48867 0.0
O22 O 0.35674 0.02322 0.44586 0.0
O23 O 0.39412 0.0351 0.52611 0.0
O24 O 0.3987 0.10414 0.40348 0.0
O25 O 0.45906 0.13387 0.42989 0.0
O26 O 0.46301 0.07218 0.30408 0.0
O27 O 0.40727 0.02387 0.35515 0.0
O28 O 0.54175 0.13881 0.31034 0.0
O29 O 0.53434 0.18238 0.36263 0.0
O30 O 0.52999 0.08352 0.42692 0.0
O31 O 0.46667 0.05417 0.40164 0.0
H32 H 0.37019 0.05864 0.61011 0.0
H33 H 0.31896 0.05476 0.67582 0.0
H34 H 0.22561 -0.00811 0.5396 0.0
H35 H 0.27764 -0.00631 0.4741 0.0
H36 H 0.54235 0.25471 0.29346 0.0
H37 H 0.49471 0.27094 0.20746 0.0
H38 H 0.44958 0.12625 1.11 0.0
H39 H 0.49868 0.1165 0.20289 0.0
Ho40 Ho 0.33518 0.43513 0.76991 0.0
Ho41 Ho 0.36317 0.51327 0.71805 0.0
C42 C 0.36559 0.51377 0.8711 0.0
C43 C 0.31495 0.36752 0.82445 0.0
C44 C 0.30356 0.32914 0.85567 0.0
C45 C 0.32304 0.33081 0.90968 0.0
C46 C 0.31173 0.29476 0.94125 0.0
C47 C 0.28044 0.25637 0.91956 0.0
C48 C 0.26138 0.25463 0.86465 0.0
C49 C 0.27323 0.29095 0.83247 0.0
C50 C 0.27005 0.43884 0.71648 0.0
C51 C 0.37862 0.44618 0.6355 0.0
C52 C 0.36506 0.5646 0.63916 0.0
C53 C 0.34062 0.55544 0.58323 0.0
C54 C 0.2953 0.5599 0.58806 0.0
C55 C 0.25403 0.53781 0.53226 0.0
C56 C 0.25978 0.50797 0.46452 0.0
C57 C 0.3116 0.50815 0.45662 0.0
C58 C 0.34936 0.53077 0.51795 0.0
C59 C 0.42049 0.51492 0.78488 0.0
O60 O 0.3524 0.47357 0.86116 0.0
O61 O 0.36831 0.53607 0.82094 0.0
O62 O 0.3137 0.39768 0.85018 0.0
O63 O 0.3281 0.37444 0.7697 0.0
O64 O 0.27606 0.40834 0.7145 0.0
O65 O 0.29963 0.4668 0.74656 0.0
O66 O 0.3734 0.47889 0.63577 0.0
O67 O 0.36901 0.42546 0.68767 0.0
O68 O 0.39215 0.55323 0.64131 0.0
O69 O 0.34385 0.55548 0.68844 0.0
O70 O 0.41888 0.54787 0.77323 0.0
O71 O 0.39676 0.48499 0.75138 0.0
H72 H 0.34667 0.3601 0.92781 0.0
H73 H 0.32633 0.29714 0.98413 0.0
H74 H 0.23696 0.22547 0.84745 0.0
H75 H 0.25796 0.28939 0.79052 0.0
H76 H 0.29595 0.58022 0.62188 0.0
H77 H 0.22616 0.53845 0.53859 0.0
H78 H 0.31532 0.49103 0.42152 0.0
H79 H 0.376 0.52744 0.51771 0.0
Ho80 Ho 0.87549 0.34018 1.13977 0.0
Ho81 Ho 0.81694 0.36328 1.10685 0.0
C82 C 0.83943 0.37463 0.25623 0.0
C83 C 0.9254 0.31839 1.18156 0.0
C84 C 0.92224 0.28014 0.2039 0.0
C85 C 0.89756 0.25933 0.25301 0.0
C86 C 0.90201 0.22941 0.28275 0.0
C87 C 0.93128 0.21943 0.26401 0.0
C88 C 0.95066 0.23543 0.20881 0.0
C89 C 0.94689 0.26627 1.17969 0.0
C90 C 0.80276 0.27605 1.09211 0.0
C91 C 0.89289 0.37874 1.0022 0.0
C92 C 0.74573 0.34466 1.06661 0.0
C93 C 0.72581 0.32543 1.00995 0.0
C94 C 0.69082 0.32636 0.99207 0.0
C95 C 0.69143 0.34435 0.93675 0.0
C96 C 0.7297 0.36665 0.90774 0.0
C97 C 0.75589 0.35036 0.91505 0.0
C98 C 0.75226 0.3274 0.96575 0.0
C99 C 0.88777 0.42581 1.14124 0.0
O100 O 0.86433 0.36068 0.23802 0.0
O101 O 0.81561 0.37631 0.21183 0.0
O102 O 0.91877 0.32 1.12471 0.0
O103 O 0.90886 0.33438 0.21425 0.0
O104 O 0.83907 0.28407 1.07965 0.0
O105 O 0.80704 0.30214 1.13114 0.0
O106 O 0.85419 0.37264 1.01166 0.0
O107 O 0.91033 0.37353 1.0514 0.0
O108 O 0.77853 0.38181 1.06171 0.0
O109 O 0.75142 0.32084 1.10291 0.0
O110 O 0.85346 0.42466 1.15241 0.0
O111 O 0.88165 0.39682 1.10825 0.0
H112 H 0.87706 0.26829 0.2715 0.0
H113 H 0.88542 0.21772 0.32411 0.0
H114 H -0.02877 0.22664 1.19035 0.0
H115 H -0.0349 0.28095 1.14033 0.0
H116 H 0.66884 0.32361 1.02484 0.0
H117 H 0.66819 0.35235 0.9284 0.0
H118 H 0.78242 0.35904 0.88817 0.0
H119 H 0.77681 0.32172 0.97662 0.0
Ho120 Ho 0.50778 0.89107 0.43883 0.0
Ho121 Ho 0.42737 0.84734 0.40237 0.0
C122 C 0.43534 0.85253 0.5527 0.0
C123 C 0.58134 0.92581 0.4836 0.0
C124 C 0.60807 0.94861 0.53418 0.0
C125 C 0.59406 0.94024 0.59328 0.0
C126 C 0.62131 0.96078 0.64046 0.0
C127 C 0.66294 -0.01084 0.62908 0.0
C128 C 0.6766 -0.00205 0.56991 0.0
C129 C 0.64928 0.97791 0.52281 0.0
C130 C 0.49213 0.82228 0.37308 0.0
C131 C 0.4947 0.92291 0.30332 0.0
C132 C 0.36178 0.78904 0.35213 0.0
C133 C 0.35786 0.7548 0.31654 0.0
C134 C 0.38324 0.73879 0.32982 0.0
C135 C 0.38789 0.71423 0.28866 0.0
C136 C 0.36689 0.70484 0.23409 0.0
C137 C 0.33794 0.71693 0.22363 0.0
C138 C 0.33381 0.74223 0.26454 0.0
C139 C 0.43993 0.91147 0.46524 0.0
O140 O 0.47538 0.87671 0.5367 0.0
O141 O 0.40993 0.83319 0.50607 0.0
O142 O 0.55312 0.88742 0.49303 0.0
O143 O 0.56871 0.94499 0.44873 0.0
O144 O 0.52045 0.85984 0.36298 0.0
O145 O 0.47022 0.82339 0.41501 0.0
O146 O 0.45719 0.88832 0.31176 0.0
O147 O 0.51985 0.93271 0.35137 0.0
O148 O 0.38372 0.82571 0.32835 0.0
O149 O 0.37125 0.78836 0.40802 0.0
O150 O 0.40393 0.87898 0.45854 0.0
O151 O 0.465 0.91211 0.42833 0.0
H152 H 0.56231 0.9177 0.60292 0.0
H153 H 0.61013 0.95367 0.68587 0.0
H154 H 0.70839 0.02027 0.56009 0.0
H155 H 0.66051 -0.01527 0.47741 0.0
H156 H 0.40198 0.74787 0.36993 0.0
H157 H 0.41096 0.70601 0.29666 0.0
H158 H 0.32219 0.71097 1.18092 0.0
H159 H 0.31458 0.75474 0.25346 0.0
Ho160 Ho 0.59431 0.5316 0.77094 0.0
Ho161 Ho 0.55816 0.4476 0.72082 0.0
C162 C 0.54821 0.44925 0.87308 0.0
C163 C 0.61252 0.59665 0.83163 0.0
C164 C 0.63837 0.62693 0.87725 0.0
C165 C 0.63631 0.61486 0.93727 0.0
C166 C 0.65049 0.64424 0.98241 0.0
C167 C 0.66737 0.68611 0.96829 0.0
C168 C 0.67275 0.69857 0.90825 0.0
C169 C 0.65808 0.66907 0.86297 0.0
C170 C 0.65496 0.51548 0.73948 0.0
C171 C 0.55582 0.52086 0.62548 0.0
C172 C 0.57009 0.40489 0.64479 0.0
C173 C 0.5955 0.42443 0.59076 0.0
C174 C 0.64907 0.43644 0.59154 0.0
C175 C 0.68678 0.47132 0.53652 0.0
C176 C 0.66858 0.49755 0.47662 0.0
C177 C 0.60967 0.48066 0.47371 0.0
C178 C 0.57623 0.44563 0.53246 0.0
C179 C 0.50542 0.46581 0.7572 0.0
O180 O 0.56851 0.49048 0.86126 0.0
O181 O 0.5415 0.42469 0.82428 0.0
O182 O 0.62725 0.59853 0.77841 0.0
O183 O 0.58684 0.55903 0.84959 0.0
O184 O 0.65806 0.55106 0.74033 0.0
O185 O 0.61994 0.49 0.76162 0.0
O186 O 0.5499 0.48242 0.63371 0.0
O187 O 0.57246 0.54552 0.67434 0.0
O188 O 0.53499 0.40363 0.64754 0.0
O189 O 0.59049 0.41675 0.69518 0.0
O190 O 0.49693 0.42736 0.75982 0.0
O191 O 0.53789 0.48906 0.72974 0.0
H192 H 0.62114 0.5826 0.94976 0.0
H193 H 0.64625 0.63404 1.02856 0.0
H194 H 0.68534 0.73068 0.89643 0.0
H195 H 0.65944 0.67901 0.81706 0.0
H196 H 0.65845 0.42242 0.62536 0.0
H197 H 0.71884 0.48083 0.54149 0.0
H198 H 0.59877 0.49564 0.44366 0.0
H199 H 0.54472 0.43808 0.53461 0.0
Ho200 Ho 0.04056 0.59745 1.15684 0.0
Ho201 Ho 0.09078 0.5709 1.12367 0.0
C202 C 0.08537 0.57219 0.27156 0.0
C203 C -0.00531 0.62371 0.19839 0.0
C204 C -0.00319 0.6603 0.22452 0.0
C205 C 0.01309 0.67328 0.28197 0.0
C206 C 0.00538 0.70022 0.31287 0.0
C207 C -0.01867 0.71509 0.28701 0.0
C208 C -0.03038 0.70615 0.22667 0.0
C209 C -0.02319 0.67847 0.19591 0.0
C210 C 0.11553 0.65928 1.10983 0.0
C211 C 0.01315 0.55459 1.02347 0.0
C212 C 0.15321 0.57938 1.06936 0.0
C213 C 0.16095 0.58369 1.00582 0.0
C214 C 0.20103 0.60005 0.98559 0.0
C215 C 0.20715 0.58192 0.93611 0.0
C216 C 0.17307 0.5459 0.91257 0.0
C217 C 0.13366 0.53923 0.92178 0.0
C218 C 0.12788 0.55932 0.96779 0.0
C219 C 0.0308 0.51204 1.18434 0.0
O220 O 0.05868 0.58442 0.25538 0.0
O221 O 0.10614 0.56885 0.22596 0.0
O222 O 0.00328 0.62519 1.14209 0.0
O223 O 0.00916 0.60496 0.23028 0.0
O224 O 0.07986 0.64972 1.08949 0.0
O225 O 0.10895 0.63352 1.15067 0.0
O226 O 0.05105 0.55984 1.03169 0.0
O227 O -0.0012 0.56216 1.07299 0.0
O228 O 0.12274 0.5433 1.08643 0.0
O229 O 0.15305 0.6103 1.09374 0.0
O230 O 0.06672 0.51581 1.18109 0.0
O231 O 0.0255 0.53413 1.14602 0.0
H232 H 0.02905 0.66021 0.30509 0.0
H233 H 0.01504 0.70595 0.35922 0.0
H234 H 0.95241 0.71815 0.20451 0.0
H235 H -0.03561 0.66924 1.15118 0.0
H236 H 0.22708 0.62076 1.01325 0.0
H237 H 0.2381 0.58908 0.92706 0.0
H238 H 0.10626 0.51375 0.90276 0.0
H239 H 0.09674 0.5477 0.98107 0.0
Ho240 Ho 0.87678 0.51728 0.63705 0.0
Ho241 Ho 0.82824 0.43409 0.6791 0.0
C242 C 0.84204 0.43928 0.52847 0.0
C243 C 0.91692 0.5882 0.5845 0.0
C244 C 0.90734 0.61729 0.55514 0.0
C245 C 0.88439 0.60653 0.50203 0.0
C246 C 0.88377 0.63674 0.46695 0.0
C247 C 0.90575 0.67853 0.48444 0.0
C248 C 0.92369 0.688 0.54189 0.0
C249 C 0.92504 0.65771 0.57654 0.0
C250 C 0.80156 0.50276 0.67458 0.0
C251 C 0.90507 0.50426 0.77732 0.0
C252 C 0.77211 0.38123 0.74931 0.0
C253 C 0.76277 0.39569 0.80499 0.0
C254 C 0.71694 0.4011 0.8035 0.0
C255 C 0.71513 0.44178 0.84569 0.0
C256 C 0.76479 0.48131 0.89072 0.0
C257 C 0.81144 0.47159 0.89673 0.0
C258 C 0.80816 0.42938 0.85241 0.0
C259 C 0.89988 0.45251 0.63996 0.0
O260 O 0.86407 0.48016 0.54292 0.0
O261 O 0.82254 0.41363 0.57568 0.0
O262 O 0.91219 0.584 0.64219 0.0
O263 O 0.90484 0.55325 0.55743 0.0
O264 O 0.8367 0.53477 0.68542 0.0
O265 O 0.8078 0.47761 0.64535 0.0
O266 O 0.87005 0.46725 0.7682 0.0
O267 O 0.91595 0.5291 0.72864 0.0
O268 O 0.80864 0.38595 0.74673 0.0
O269 O 0.76347 0.39462 0.70049 0.0
O270 O 0.86809 0.41512 0.63384 0.0
O271 O 0.89212 0.47449 0.67163 0.0
H272 H 0.86961 0.57539 0.48491 0.0
H273 H 0.86978 0.62738 0.4232 0.0
H274 H 0.94004 0.71948 0.55768 0.0
H275 H 0.94227 0.6665 0.61815 0.0
H276 H 0.69213 0.38249 0.77273 0.0
H277 H 0.6898 0.4469 0.83965 0.0
H278 H 0.83957 0.49338 0.91942 0.0
H279 H 0.83392 0.42476 0.85212 0.0
Ho280 Ho 0.32547 0.86243 0.94913 0.0
Ho281 Ho 0.35439 0.86075 0.9495 0.0
C282 C 0.36858 0.85085 0.81926 0.0
C283 C 0.26716 0.87806 0.92245 0.0
C284 C 0.25963 0.90904 0.89517 0.0
C285 C 0.28572 0.93584 0.85091 0.0
C286 C 0.27364 0.95854 0.81617 0.0
C287 C 0.23515 0.95452 0.82471 0.0
C288 C 0.20998 0.92961 0.87108 0.0
C289 C 0.22241 0.90719 0.90658 0.0
C290 C 0.27664 0.79029 1.00991 0.0
C291 C 0.35412 0.90636 1.08497 0.0
C292 C 0.40386 0.83616 0.98244 0.0
C293 C 0.39932 0.79524 0.98095 0.0
C294 C 0.36214 0.76016 0.99707 0.0
C295 C 0.36068 0.7232 1.00816 0.0
C296 C 0.39708 0.72185 1.00635 0.0
C297 C 0.4304 0.75321 0.97437 0.0
C298 C 0.43229 0.79075 0.96418 0.0
C299 C 0.38068 0.93896 0.90505 0.0
O300 O 0.33162 0.83868 0.84411 0.0
O301 O 0.39295 0.8675 0.86447 0.0
O302 O 0.27994 0.86033 0.88706 0.0
O303 O 0.28586 0.88612 0.97347 0.0
O304 O 0.29298 0.82606 1.03389 0.0
O305 O 0.29351 0.79659 0.95925 0.0
O306 O 0.3709 0.90671 1.03188 0.0
O307 O 0.36874 0.90471 1.03086 0.0
O308 O 0.38063 0.8412 1.01994 0.0
O309 O 0.40501 0.85186 0.9303 0.0
O310 O 0.35699 0.90639 0.8754 0.0
O311 O 0.37869 0.92603 0.95651 0.0
H312 H 0.31409 0.93727 0.84034 0.0
H313 H 0.29304 0.97694 0.77954 0.0
H314 H 0.17998 0.92576 0.87758 0.0
H315 H 0.20177 0.88638 0.94035 0.0
H316 H 0.33531 0.76209 1.00644 0.0
H317 H 0.33315 0.69864 1.02874 0.0
H318 H 0.45799 0.7519 0.96846 0.0
H319 H 0.4605 0.81697 0.94792 0.0
Ho320 Ho 0.41691 0.34944 0.26531 0.0
Ho321 Ho 0.50103 0.38034 0.29875 0.0
C322 C 0.48791 0.3866 1.14805 0.0
C323 C 0.34353 0.32356 0.22546 0.0
C324 C 0.30981 0.28288 0.20838 0.0
C325 C 0.31442 0.24841 0.21196 0.0
C326 C 0.28887 0.21343 1.17801 0.0
C327 C 0.25979 0.21358 1.13851 0.0
C328 C 0.25075 0.24528 1.14432 0.0
C329 C 0.27596 0.2799 1.17861 0.0
C330 C 0.42893 0.28902 0.31731 0.0
C331 C 0.43771 0.39172 0.40129 0.0
C332 C 0.55713 0.36905 0.34286 0.0
C333 C 0.55465 0.34592 0.39754 0.0
C334 C 0.58771 0.34108 0.41452 0.0
C335 C 0.60589 0.3563 0.47103 0.0
C336 C 0.59347 0.38096 0.50097 0.0
C337 C 0.5503 0.36372 0.49747 0.0
C338 C 0.53072 0.34713 0.44335 0.0
C339 C 0.48729 0.43708 0.25826 0.0
O340 O 0.44826 0.36977 1.16646 0.0
O341 O 0.51478 0.39211 1.19288 0.0
O342 O 0.35315 0.32858 0.28196 0.0
O343 O 0.37571 0.33855 1.19112 0.0
O344 O 0.39768 0.2931 0.32403 0.0
O345 O 0.45151 0.3162 0.27897 0.0
O346 O 0.4726 0.38977 0.39264 0.0
O347 O 0.41351 0.38196 0.35255 0.0
O348 O 0.55675 0.40332 0.35103 0.0
O349 O 0.53296 0.34685 0.29941 0.0
O350 O 0.5225 0.43973 0.2487 0.0
O351 O 0.46556 0.40837 0.29315 0.0
H352 H 0.34019 0.25007 0.23595 0.0
H353 H 0.29588 0.18909 1.17608 0.0
H354 H 0.22844 0.24687 1.11571 0.0
H355 H 0.27164 0.30607 1.17649 0.0
H356 H 0.60485 0.33567 0.38126 0.0
H357 H 0.63652 0.36171 0.47861 0.0
H358 H 0.53293 0.36861 0.53066 0.0
H359 H 0.5011 0.34378 0.43417 0.0
Ho360 Ho 0.03414 0.41943 0.62804 0.0
Ho361 Ho 0.08976 0.49805 0.6818 0.0
C362 C 0.0866 0.5002 0.53027 0.0
C363 C -0.0156 0.35241 0.57162 0.0
C364 C -0.01131 0.32129 0.53879 0.0
C365 C 0.00993 0.33152 0.48469 0.0
C366 C 0.01021 0.30119 0.45063 0.0
C367 C -0.01023 0.25975 0.47 0.0
C368 C -0.02924 0.25006 0.52616 0.0
C369 C -0.02996 0.28056 0.5601 0.0
C370 C 0.10812 0.42591 0.66473 0.0
C371 C 0.00433 0.43156 0.76461 0.0
C372 C 0.14519 0.5381 0.76263 0.0
C373 C 0.16007 0.5184 0.80595 0.0
C374 C 0.21604 0.54043 0.81835 0.0
C375 C 0.23623 0.51419 0.86549 0.0
C376 C 0.19582 0.45968 0.9 0.0
C377 C 0.13592 0.4392 0.89054 0.0
C378 C 0.1213 0.46933 0.84216 0.0
C379 C 0.03397 0.50269 0.6215 0.0
O380 O 0.05942 0.45955 0.53891 0.0
O381 O 0.10621 0.5226 0.5801 0.0
O382 O -0.00951 0.3537 0.62919 0.0
O383 O 0.001 0.38908 0.54766 0.0
O384 O 0.07218 0.39353 0.67056 0.0
O385 O 0.10222 0.45271 0.64056 0.0
O386 O 0.04235 0.46531 0.76283 0.0
O387 O -0.00721 0.40971 0.71359 0.0
O388 O 0.10701 0.52795 0.76851 0.0
O389 O 0.15402 0.53783 0.70674 0.0
O390 O 0.06895 0.53565 0.63596 0.0
O391 O 0.02693 0.47095 0.6519 0.0
H392 H 0.02483 0.36263 0.46699 0.0
H393 H 0.02397 0.31016 0.40691 0.0
H394 H 0.95464 0.21858 0.54241 0.0
H395 H 0.95367 0.27201 0.60202 0.0
H396 H 0.23753 0.56951 0.79757 0.0
H397 H 0.26889 0.52604 0.86853 0.0
H398 H 0.11289 0.40921 0.90717 0.0
H399 H 0.0891 0.45704 0.83329 0.0
Ho400 Ho 0.59968 0.05776 0.92144 0.0
Ho401 Ho 0.57093 0.11054 0.95595 0.0
C402 C 0.57386 0.10459 0.80603 0.0
C403 C 0.62341 0.01146 0.8736 0.0
C404 C 0.65782 0.02036 0.83457 0.0
C405 C 0.68043 0.0616 0.80417 0.0
C406 C 0.73962 0.08664 0.72069 0.0
C407 C 0.73773 0.04818 0.78131 0.0
C408 C 0.70193 -0.0066 0.7986 0.0
C409 C 0.66634 -0.0126 0.82816 0.0
C410 C 0.65927 0.13039 0.9758 0.0
C411 C 0.55495 0.03232 1.05671 0.0
C412 C 0.5792 0.17538 1.00448 0.0
C413 C 0.59264 0.19295 1.06389 0.0
C414 C 0.61037 0.23537 1.07383 0.0
C415 C 0.60412 0.24826 1.12971 0.0
C416 C 0.57332 0.21706 1.1662 0.0
C417 C 0.57814 0.18217 1.16755 0.0
C418 C 0.58197 0.16707 1.11349 0.0
C419 C 0.51602 0.04472 0.89814 0.0
O420 O 0.58873 0.07976 0.82282 0.0
O421 O 0.56651 0.12271 0.852 0.0
O422 O 0.63381 0.02639 0.92727 0.0
O423 O 0.59529 0.01748 0.85008 0.0
O424 O 0.65296 0.09417 0.98732 0.0
O425 O 0.63388 0.12612 0.93509 0.0
O426 O 0.55914 0.07022 1.04804 0.0
O427 O 0.5646 0.01821 1.00809 0.0
O428 O 0.54381 0.14038 1.0017 0.0
O429 O 0.60774 0.17588 0.972 0.0
O430 O 0.51637 0.07936 0.89496 0.0
O431 O 0.53953 0.04549 0.93894 0.0
H432 H 0.66855 0.07933 0.82604 0.0
H433 H 0.76628 0.11629 0.70735 0.0
H434 H 0.71172 0.97123 0.80431 0.0
H435 H 0.64671 0.95793 0.84966 0.0
H436 H 0.62181 0.25666 1.03678 0.0
H437 H 0.6107 0.27964 1.13296 0.0
H438 H 0.57201 0.16275 0.20617 0.0
H439 H 0.57416 0.13534 1.10998 0.0
Ho440 Ho 0.51452 0.61501 0.24289 0.0
Ho441 Ho 0.43714 0.59046 0.28159 0.0
C442 C 0.44019 0.58674 1.13195 0.0
C443 C 0.58481 0.63986 1.19332 0.0
C444 C 0.61469 0.67791 1.16226 0.0
C445 C 0.59913 0.70104 1.12675 0.0
C446 C 0.64081 0.76161 1.04553 0.0
C447 C 0.67241 0.75977 1.11392 0.0
C448 C 0.68949 0.7244 1.13912 0.0
C449 C 0.65694 0.68774 1.16479 0.0
C450 C 0.50704 0.67937 0.2894 0.0
C451 C 0.49972 0.57429 0.37962 0.0
C452 C 0.38915 0.60665 0.33801 0.0
C453 C 0.3957 0.62611 0.39649 0.0
C454 C 0.37833 0.64999 0.41138 0.0
C455 C 0.36309 0.64571 0.46996 0.0
C456 C 0.35936 0.61167 0.50253 0.0
C457 C 0.39765 0.61371 0.5003 0.0
C458 C 0.41222 0.61442 0.44359 0.0
C459 C 0.43434 0.52924 0.22521 0.0
O460 O 0.47999 0.60044 1.14657 0.0
O461 O 0.41644 0.58324 1.17876 0.0
O462 O 0.58068 0.64313 0.25018 0.0
O463 O 0.54961 0.61769 1.16635 0.0
O464 O 0.53529 0.6716 0.30378 0.0
O465 O 0.48435 0.65218 0.25195 0.0
O466 O 0.46706 0.57963 0.37251 0.0
O467 O 0.52119 0.58141 0.32913 0.0
O468 O 0.38448 0.56969 0.33807 0.0
O469 O 0.41337 0.6307 0.29614 0.0
O470 O 0.40234 0.53323 0.22966 0.0
O471 O 0.46374 0.55284 0.26034 0.0
H472 H 0.568 0.6892 1.14431 0.0
H473 H 0.63929 0.78826 1.02916 0.0
H474 H 0.72109 0.73471 1.15086 0.0
H475 H 0.66467 0.66771 1.18919 0.0
H476 H 0.36789 0.6628 0.37735 0.0
H477 H 0.34187 0.6562 0.47804 0.0
H478 H 0.41045 0.60554 0.5376 0.0
H479 H 0.43236 0.60269 0.43671 0.0
C480 C 0.46895 0.21722 0.37555 0.0
C481 C 0.43299 0.18036 0.39261 0.0
C482 C 0.46783 0.25142 0.34977 0.0
C483 C 0.43098 0.25194 0.34235 0.0
H484 H 0.49824 0.21933 0.38 0.0
H485 H 0.49631 0.27746 0.33555 0.0
S486 S 0.3283 0.16587 0.38887 0.0
N487 N 0.35941 0.1487 0.40511 0.0
N488 N 0.35762 0.21247 0.36068 0.0
C489 C 0.39521 0.2163 0.36347 0.0
C490 C 0.39617 0.18118 0.38794 0.0
C491 C 0.19172 0.39649 0.69523 0.0
C492 C 0.22865 0.43535 0.70116 0.0
C493 C 0.15296 0.39278 0.68193 0.0
C494 C 0.14949 0.42749 0.66804 0.0
H495 H 0.19235 0.36862 0.70395 0.0
H496 H 0.12552 0.36251 0.68328 0.0
S497 S 0.2324 0.53449 0.68333 0.0
N498 N 0.25522 0.50867 0.70165 0.0
N499 N 0.18683 0.50078 0.65728 0.0
C500 C 0.18683 0.46546 0.66603 0.0
C501 C 0.22487 0.46982 0.68863 0.0
C502 C 0.7639 0.23166 1.00144 0.0
C503 C 0.76357 0.24171 1.06225 0.0
C504 C 0.72967 0.19743 0.97304 0.0
C505 C 0.69332 0.17033 1.00416 0.0
H506 H 0.79131 0.25032 0.97539 0.0
H507 H 0.7324 0.19124 0.92675 0.0
S508 S 0.67595 0.18126 1.16427 0.0
N509 N 0.72239 0.22116 1.15186 0.0
N510 N 0.65986 0.15616 1.10035 0.0
C511 C 0.6925 0.18001 1.06488 0.0
C512 C 0.72686 0.21568 1.09325 0.0
C513 C 0.48211 0.714 0.36285 0.0
C514 C 0.50369 0.71605 0.3106 0.0
C515 C 0.47716 0.74713 0.38207 0.0
C516 C 0.49558 0.7855 0.35175 0.0
H517 H 0.46994 0.68679 0.39021 0.0
H518 H 0.45963 0.7429 0.42203 0.0
S519 S 0.5675 0.81218 0.22433 0.0
N520 N 0.55018 0.76275 0.23596 0.0
N521 N 0.54402 0.82537 0.27316 0.0
C522 C 0.5207 0.78917 0.30267 0.0
C523 C 0.52423 0.75481 0.28209 0.0
C524 C 0.68971 0.47194 0.71974 0.0
C525 C 0.6912 0.51014 0.72195 0.0
C526 C 0.72368 0.46859 0.69958 0.0
C527 C 0.76182 0.50345 0.68367 0.0
H528 H 0.66213 0.44417 0.73348 0.0
H529 H 0.72037 0.43851 0.69804 0.0
S530 S 0.78294 0.61099 0.67999 0.0
N531 N 0.7353 0.58371 0.70385 0.0
N532 N 0.79771 0.57751 0.66944 0.0
C533 C 0.76345 0.54159 0.68532 0.0
C534 C 0.72898 0.54493 0.70405 0.0
C535 C 0.20172 0.73021 0.99715 0.0
C536 C 0.23721 0.75284 1.03337 0.0
C537 C 0.1628 0.70047 1.02164 0.0
C538 C 0.15734 0.6909 1.08353 0.0
H539 H 0.20353 0.73679 0.94974 0.0
H540 H 0.13668 0.68483 0.99166 0.0
S541 S 0.23991 0.74023 0.19789 0.0
N542 N 0.2633 0.76293 1.13504 0.0
N543 N 0.19188 0.70642 1.17958 0.0
C544 C 0.19283 0.71234 1.1196 0.0
C545 C 0.232 0.74331 1.09508 0.0
C546 C 0.52691 0.22968 1.10126 0.0
C547 C 0.52827 0.21105 1.16305 0.0
C548 C 0.48029 0.22088 1.091 0.0
C549 C 0.43559 0.19922 1.12667 0.0
H550 H 0.54942 0.24495 1.06681 0.0
H551 H 0.47853 0.23351 1.0469 0.0
S552 S 0.39882 0.13255 0.27054 0.0
N553 N 0.4489 0.14962 0.277 0.0
N554 N 0.39059 0.15511 0.21251 0.0
C555 C 0.42888 0.1786 1.19047 0.0
C556 C 0.46376 0.17631 0.22964 0.0
C557 C 0.29851 0.57306 0.43286 0.0
C558 C 0.31821 0.56782 0.49154 0.0
C559 C 0.25756 0.52867 0.41739 0.0
C560 C 0.23083 0.48138 0.44592 0.0
H561 H 0.30564 0.59889 0.40443 0.0
H562 H 0.2433 0.53178 0.37575 0.0
S563 S 0.25577 0.429 0.57577 0.0
N564 N 0.29177 0.47772 0.5904 0.0
N565 N 0.22551 0.42774 0.52065 0.0
C566 C 0.2432 0.46809 0.50612 0.0
C567 C 0.28222 0.49798 0.54813 0.0
C568 C 0.77838 0.46271 0.80777 0.0
C569 C 0.74734 0.41376 0.8972 0.0
C570 C 0.7839 0.50562 0.83097 0.0
C571 C 0.77207 0.51356 0.89574 0.0
H572 H 0.78838 0.46069 0.76362 0.0
H573 H 0.79742 0.5316 0.80015 0.0
S574 S 0.73043 0.45078 1.04858 0.0
N575 N 0.72809 0.41194 1.01138 0.0
N576 N 0.74701 0.49119 1.00293 0.0
C577 C 0.7532 0.47817 0.9495 0.0
C578 C 0.74059 0.42964 0.95713 0.0
C579 C 0.37229 0.66661 1.08325 0.0
C580 C 0.40527 0.70359 1.06014 0.0
C581 C 0.36141 0.66406 1.14354 0.0
C582 C 0.38527 0.69704 1.18224 0.0
H583 H 0.35025 0.64345 1.0529 0.0
H584 H 0.33208 0.63862 1.15806 0.0
S585 S 0.48261 0.79311 1.14785 0.0
N586 N 0.46849 0.76749 1.08465 0.0
N587 N 0.44808 0.76269 0.19691 0.0
C588 C 0.42321 0.72941 1.16243 0.0
C589 C 0.43401 0.73205 1.10144 0.0
C590 C 0.64265 0.43601 0.43317 0.0
C591 C 0.62295 0.42944 0.49589 0.0
C592 C 0.67475 0.48546 0.42423 0.0
C593 C 0.69141 0.52936 0.46112 0.0
H594 H 0.63857 0.41499 0.39819 0.0
H595 H 0.68936 0.4908 0.37991 0.0
S596 S 0.6566 0.55239 0.6105 0.0
N597 N 0.62958 0.50097 0.61448 0.0
N598 N 0.68572 0.56757 0.55011 0.0
C599 C 0.67535 0.53108 0.5252 0.0
C600 C 0.64224 0.49156 0.56359 0.0
C601 C 0.17906 0.46969 0.81228 0.0
C602 C 0.17795 0.50872 0.90298 0.0
C603 C 0.19415 0.43964 0.84163 0.0
C604 C 0.20513 0.43709 0.91137 0.0
H605 H 0.16962 0.4674 0.76688 0.0
H606 H 0.1959 0.41819 0.81172 0.0
S607 S 0.20233 0.48937 1.06284 0.0
N608 N 0.18722 0.51515 1.01971 0.0
N609 N 0.21018 0.45819 1.02037 0.0
C610 C 0.20122 0.46482 0.96372 0.0
C611 C 0.18794 0.49951 0.96604 0.0
C612 C 0.35791 0.9343 0.19586 0.0
C613 C 0.37642 0.94081 1.13787 0.0
C614 C 0.37397 0.96342 0.24582 0.0
C615 C 0.41085 0.00334 0.24473 0.0
H616 H 0.32954 0.90544 0.20326 0.0
H617 H 0.35649 0.95403 0.2867 0.0
S618 S 0.47243 0.04024 1.10397 0.0
N619 N 0.4349 -0.00597 1.08409 0.0
N620 N 0.46486 0.04606 1.1747 0.0
C621 C 0.42989 0.0103 1.18677 0.0
C622 C 0.4132 -0.01945 1.13538 0.0
C623 C 0.43928 0.40829 0.52286 0.0
C624 C 0.4247 0.40679 0.4624 0.0
C625 C 0.42481 0.41993 0.57631 0.0
C626 C 0.39474 0.4327 0.5762 0.0
H627 H 0.46213 0.39964 0.5298 0.0
H628 H 0.43823 0.41931 0.61896 0.0
S629 S 0.34493 0.43521 0.43232 0.0
N630 N 0.37621 0.41992 0.4101 0.0
N631 N 0.35162 0.44201 0.50521 0.0
C632 C 0.3806 0.43192 0.51611 0.0
C633 C 0.39451 0.4192 0.46215 0.0
C634 C -0.01066 0.43256 0.88409 0.0
C635 C -0.02538 0.4186 0.82423 0.0
C636 C -0.03635 0.4203 0.93801 0.0
C637 C 0.91949 0.39368 0.93948 0.0
H638 H 0.02206 0.45313 0.8902 0.0
H639 H -0.02068 0.43253 0.98017 0.0
S640 S 0.86178 0.34768 0.79704 0.0
N641 N 0.90961 0.375 0.77328 0.0
N642 N 0.86333 0.35456 0.87 0.0
C643 C 0.9041 0.38031 0.87975 0.0
C644 C 0.93046 0.39183 0.82482 0.0
C645 C 0.5012 0.93517 1.17993 0.0
C646 C 0.50911 0.95113 0.24029 0.0
C647 C 0.51566 0.96015 1.12418 0.0
C648 C 0.53887 0.00482 1.12029 0.0
H649 H 0.48388 0.902 1.17506 0.0
H650 H 0.50773 0.94342 1.08251 0.0
S651 S 0.56766 0.06584 0.26215 0.0
N652 N 0.54312 0.01808 0.28814 0.0
N653 N 0.56701 0.06258 1.18857 0.0
C654 C 0.54605 0.02121 1.18022 0.0
C655 C 0.53246 -0.00424 0.23712 0.0
C656 C 0.53476 0.51588 0.50501 0.0
C657 C 0.5412 0.53499 0.56304 0.0
C658 C 0.52243 0.52822 0.4492 0.0
C659 C 0.51277 0.56044 0.44348 0.0
H660 H 0.5397 0.49051 0.50154 0.0
H661 H 0.51978 0.5111 0.40927 0.0
S662 S 0.52093 0.62166 0.57924 0.0
N663 N 0.53489 0.58991 0.6067 0.0
N664 N 0.5105 0.6105 0.50763 0.0
C665 C 0.51782 0.57923 0.50138 0.0
C666 C 0.53187 0.56753 0.55794 0.0
C667 C 0.94348 0.51044 0.95427 0.0
C668 C -0.01334 0.54088 0.95956 0.0
C669 C 0.91905 0.49842 0.89829 0.0
C670 C 0.93345 0.51666 0.83987 0.0
H671 H 0.92777 0.49445 0.99468 0.0
H672 H 0.88764 0.47399 0.90205 0.0
S673 S 0.04488 0.59696 0.82217 0.0
N674 N 0.04252 0.58698 0.89453 0.0
N675 N -0.00202 0.56748 0.79493 0.0
C676 C -0.02318 0.54702 0.84444 0.0
C677 C 0.00226 0.55807 0.90118 0.0
C678 C 0.43857 -0.0075 0.48392 0.0
C679 C 0.48088 0.01783 0.47205 0.0
C680 C 0.42409 0.95531 0.51346 0.0
C681 C 0.45042 0.94007 0.51492 0.0
H682 H 0.41616 -0.00142 0.4644 0.0
H683 H 0.3911 0.93442 0.51491 0.0
S684 S 0.56274 0.00405 0.53563 0.0
N685 N 0.54958 0.03389 0.49969 0.0
N686 N 0.5197 0.95974 0.54743 0.0
C687 C 0.49231 0.96877 0.52343 0.0
C688 C 0.50827 0.00838 0.49859 0.0
C689 C 0.4315 0.47227 0.85496 0.0
C690 C 0.4419 0.51233 0.83817 0.0
C691 C 0.45448 0.4568 0.83136 0.0
C692 C 0.48848 0.48309 0.79634 0.0
H693 H 0.40182 0.45073 0.87348 0.0
H694 H 0.44325 0.42411 0.83488 0.0
S695 S 0.53447 0.59685 0.77879 0.0
N696 N 0.49641 0.58201 0.8258 0.0
N697 N 0.53479 0.5545 0.76299 0.0
C698 C 0.50395 0.52618 0.79757 0.0
C699 C 0.48282 0.54101 0.8303 0.0
C700 C 0.94807 0.4254 1.18015 0.0
C701 C 0.92251 0.4424 1.18141 0.0
C702 C -0.01457 0.44439 0.20976 0.0
C703 C 0.0005 0.48464 0.2275 0.0
H704 H 0.94125 0.39951 1.15259 0.0
H705 H 0.00618 0.43326 0.20152 0.0
S706 S 0.93618 0.52424 0.28374 0.0
N707 N 0.90641 0.48758 0.23598 0.0
N708 N -0.01946 0.52577 0.28521 0.0
C709 C -0.02808 0.49508 0.24634 0.0
C710 C 0.93224 0.47442 0.22076 0.0
C711 C -0.0173 0.46333 0.54453 0.0
C712 C 0.01256 0.50225 0.56589 0.0
C713 C 0.943 0.44633 0.56554 0.0
C714 C 0.93414 0.47132 0.59995 0.0
H715 H -0.00924 0.44452 0.51951 0.0
H716 H 0.92112 0.41378 0.55944 0.0
S717 S 0.0004 0.58547 0.61653 0.0
N718 N 0.02782 0.57154 0.57793 0.0
N719 N 0.95627 0.54248 0.62833 0.0
C720 C 0.96173 0.51466 0.59895 0.0
C721 C 0.00038 0.53047 0.57231 0.0
C722 C 0.45075 0.9534 0.89954 0.0
C723 C 0.42055 0.96266 0.88102 0.0
C724 C 0.49 0.97597 0.87649 0.0
C725 C 0.50002 0.0136 0.85083 0.0
H726 H 0.44467 0.93016 0.933 0.0
H727 H 0.51362 0.9712 0.89564 0.0
S728 S 0.42918 0.02515 0.7491 0.0
N729 N 0.39944 -0.00869 0.80009 0.0
N730 N 0.47663 0.03724 0.76604 0.0
C731 C 0.46952 0.01335 0.81478 0.0
C732 C 0.42849 -0.01132 0.8325 0.0
C733 C 0.40812 0.45913 0.20613 0.0
C734 C 0.43459 0.49904 1.18619 0.0
C735 C 0.42534 0.43658 0.22579 0.0
C736 C 0.46782 0.45245 0.21911 0.0
H737 H 0.37739 0.44974 0.22081 0.0
H738 H 0.40625 0.40943 0.25217 0.0
S739 S 0.53501 0.53518 1.1149 0.0
N740 N 0.49398 0.53934 1.12239 0.0
N741 N 0.52757 0.49651 1.15862 0.0
C742 C 0.48975 0.48491 1.17971 0.0
C743 C 0.47204 0.50805 1.1612 0.0
C744 C 0.23781 0.01299 0.77045 0.0
C745 C 0.21971 0.97022 0.77713 0.0
C746 C 0.24483 0.03075 0.71336 0.0
C747 C 0.23642 0.00616 0.66214 0.0
H748 H 0.2517 0.03298 0.80865 0.0
H749 H 0.26364 0.064 0.70978 0.0
S750 S 0.17416 0.89186 0.65813 0.0
N751 N 0.18119 0.90339 0.72984 0.0
N752 N 0.19655 0.93644 0.62235 0.0
C753 C 0.21019 0.96322 0.66883 0.0
C754 C 0.20178 0.94525 0.72693 0.0
C755 C 0.28733 0.19962 1.04874 0.0
C756 C 0.25216 0.19316 1.07925 0.0
C757 C 0.29398 0.21371 0.98966 0.0
C758 C 0.26509 0.22023 0.95963 0.0
H759 H 0.31332 0.20193 1.0729 0.0
H760 H 0.32432 0.22574 0.97113 0.0
S761 S 0.15913 0.18393 1.00928 0.0
N762 N 0.18128 0.17539 1.06709 0.0
N763 N 0.19411 0.20352 0.95631 0.0
C764 C 0.2257 0.20273 0.98413 0.0
C765 C 0.21884 0.18777 1.04406 0.0
C766 C 0.92416 0.18193 0.35943 0.0
C767 C 0.9486 0.203 0.30955 0.0
C768 C 0.93966 0.19529 0.41724 0.0
C769 C -0.01923 0.22701 0.42564 0.0
H770 H 0.89125 0.16198 0.35403 0.0
H771 H 0.91784 0.18552 0.45332 0.0
S772 S 0.06267 0.2648 0.3127 0.0
N773 N 0.01941 0.239 0.27421 0.0
N774 N 0.04912 0.25988 0.38345 0.0
C775 C 0.00766 0.23565 0.37791 0.0
C776 C -0.0085 0.22418 0.31893 0.0
C777 C 0.76821 0.03232 0.72194 0.0
C778 C 0.7726 0.05428 0.77812 0.0
C779 C 0.73247 0.01175 0.67919 0.0
C780 C 0.69198 0.00908 0.67905 0.0
H781 H 0.79478 0.03051 0.71006 0.0
H782 H 0.73754 -0.00334 0.6423 0.0
S783 S 0.71014 0.12533 0.7513 0.0
N784 N 0.74591 0.11168 0.81161 0.0
N785 N 0.6743 0.06822 0.70566 0.0
C786 C 0.68182 0.02959 0.72392 0.0
C787 C 0.73815 0.06189 0.80436 0.0
C788 C 0.724 0.79161 1.06179 0.0
C789 C 0.70193 0.795 1.11313 0.0
C790 C 0.7119 0.75625 1.01992 0.0
C791 C 0.67372 0.71524 1.01613 0.0
H792 H 0.75363 0.81879 1.05333 0.0
H793 H 0.73493 0.76207 0.98699 0.0
S794 S 0.5697 0.7303 1.06377 0.0
N795 N 0.61465 0.76625 1.13072 0.0
N796 N 0.5944 0.69587 1.02702 0.0
C797 C 0.63921 0.70424 1.05454 0.0
C798 C 0.65726 0.75961 1.13363 0.0
C799 C -0.01738 0.75098 0.38019 0.0
C800 C 0.96146 0.7306 0.32764 0.0
C801 C 0.96209 0.74071 0.43485 0.0
C802 C 0.91975 0.71117 0.43727 0.0
H803 H 0.01589 0.7685 0.38099 0.0
H804 H -0.01913 0.75048 0.47495 0.0
S805 S 0.84807 0.67409 0.30836 0.0
N806 N 0.89422 0.69608 0.27856 0.0
N807 N 0.85568 0.68114 0.38111 0.0
C808 C 0.89739 0.70289 0.38354 0.0
C809 C 0.91831 0.71138 0.32808 0.0
C810 C 0.51112 0.11513 0.66091 0.0
C811 C 0.52751 0.11005 0.60601 0.0
C812 C 0.5277 0.11652 0.72145 0.0
C813 C 0.56025 0.10863 0.73646 0.0
H814 H 0.48471 0.11879 0.6574 0.0
H815 H 0.51249 0.1215 0.75816 0.0
S816 S 0.62081 0.09996 0.61282 0.0
N817 N 0.58552 0.10443 0.57519 0.0
N818 N 0.61099 0.10022 0.68442 0.0
C819 C 0.57764 0.10442 0.68202 0.0
C820 C 0.56287 0.10643 0.6198 0.0
C821 C 0.37519 0.51012 0.99191 0.0
C822 C 0.38349 0.53406 0.93772 0.0
C823 C 0.39215 0.52679 1.05152 0.0
C824 C 0.42081 0.56952 1.06484 0.0
H825 H 0.35473 0.47712 0.98859 0.0
H826 H 0.38284 0.505 1.08815 0.0
S827 S 0.45576 0.64849 0.94257 0.0
N828 N 0.42439 0.60558 0.90614 0.0
N829 N 0.45606 0.63527 1.01308 0.0
C830 C 0.42986 0.59391 1.01115 0.0
C831 C 0.41175 0.57704 0.95048 0.0
C832 C 0.84804 0.3753 0.3807 0.0
C833 C 0.83968 0.39082 0.32608 0.0
C834 C 0.84775 0.38942 0.44248 0.0
C835 C 0.8408 0.4224 0.45881 0.0
H836 H 0.85453 0.35075 0.37615 0.0
H837 H 0.85411 0.3742 0.47857 0.0
S838 S 0.81873 0.47741 0.33699 0.0
N839 N 0.82361 0.4432 0.29838 0.0
N840 N 0.82625 0.47041 0.4079 0.0
C841 C 0.83346 0.43889 0.40458 0.0
C842 C 0.83206 0.42337 0.3419 0.0
C843 C 0.37528 0.82854 0.63874 0.0
C844 C 0.41807 0.85103 0.62122 0.0
C845 C 0.35942 0.82815 0.69917 0.0
C846 C 0.38432 0.85012 0.75048 0.0
H847 H 0.35284 0.81061 0.6046 0.0
H848 H 0.32655 0.80986 0.70538 0.0
S849 S 0.4987 0.91677 0.73405 0.0
N850 N 0.48438 0.89781 0.66608 0.0
N851 N 0.45636 0.8969 0.77396 0.0
C852 C 0.42707 0.87296 0.7333 0.0
C853 C 0.44309 0.87352 0.6719 0.0
C854 C 0.55579 0.45044 0.99707 0.0
C855 C 0.53248 0.43156 0.94286 0.0
C856 C 0.54241 0.43596 1.05928 0.0
C857 C 0.50286 0.40149 1.07713 0.0
H858 H 0.58605 0.4774 0.99168 0.0
H859 H 0.56394 0.45332 1.09469 0.0
S860 S 0.42575 0.33994 0.95732 0.0
N861 N 0.46489 0.37426 0.91707 0.0
N862 N 0.44004 0.34999 1.02813 0.0
C863 C 0.47871 0.38291 1.0235 0.0
C864 C 0.49297 0.39675 0.95989 0.0
C865 C 0.08677 0.55678 0.45346 0.0
C866 C 0.08954 0.52067 0.46451 0.0
C867 C 0.08498 0.57269 0.39391 0.0
C868 C 0.08742 0.55533 0.33833 0.0
H869 H 0.08473 0.57279 0.49178 0.0
H870 H 0.08196 0.59962 0.3918 0.0
S871 S 0.09474 0.4603 0.33733 0.0
N872 N 0.09322 0.4679 0.40952 0.0
N873 N 0.09281 0.498 0.3025 0.0
C874 C 0.09081 0.51962 0.34895 0.0
C875 C 0.09103 0.50259 0.40935 0.0
loop_
_geom_bond_atom_site_label_1
_geom_bond_atom_site_label_2
_geom_bond_distance
_geom_bond_site_symmetry_2
_ccdc_geom_bond_type
Ho0 C3 2.811 . S
Ho0 O20 2.322 . S
Ho0 O22 2.378 . S
Ho0 O23 2.524 . S
Ho0 O24 2.381 . S
Ho0 O25 2.669 . S
Ho0 O27 2.346 . S
Ho0 O31 2.305 . S
Ho1 C12 2.811 . S
Ho1 O21 2.346 . S
Ho1 O25 2.305 . S
Ho1 O26 2.322 . S
Ho1 O28 2.378 . S
Ho1 O29 2.524 . S
Ho1 O30 2.381 . S
Ho1 O31 2.669 . S
C2 O20 1.259 . S
C2 O21 1.268 . S
C3 Ho0 2.811 . S
C3 C4 1.488 . S
C3 O22 1.215 . S
C3 O23 1.289 . S
C4 C3 1.488 . S
C4 C5 1.348 . S
C4 C9 1.413 . S
C5 C4 1.348 . S
C5 C6 1.442 . S
C5 H32 0.930 . S
C6 C5 1.442 . S
C6 C7 1.381 . S
C6 H33 0.931 . S
C7 C6 1.381 . S
C7 C8 1.321 . S
C8 C7 1.321 . S
C8 C9 1.403 . S
C8 H34 0.934 . S
C9 C4 1.413 . S
C9 C8 1.403 . S
C9 H35 0.930 . S
C10 O24 1.275 . S
C10 O25 1.256 . S
C11 O26 1.259 . S
C11 O27 1.268 . S
C12 Ho1 2.811 . S
C12 C13 1.488 . S
C12 O28 1.215 . S
C12 O29 1.289 . S
C13 C12 1.488 . S
C13 C14 1.348 . S
C13 C18 1.413 . S
C14 C13 1.348 . S
C14 C15 1.442 . S
C14 H36 0.930 . S
C15 C14 1.442 . S
C15 C16 1.381 1_554 S
C15 H37 0.931 1_554 S
C16 C15 1.381 1_556 S
C16 C17 1.321 1_556 S
C17 C16 1.321 1_554 S
C17 C18 1.403 . S
C17 H38 0.934 . S
C18 C13 1.413 . S
C18 C17 1.403 . S
C18 H39 0.930 . S
C19 O30 1.275 . S
C19 O31 1.256 . S
O20 Ho0 2.322 . S
O20 C2 1.259 . S
O21 Ho1 2.346 . S
O21 C2 1.268 . S
O22 Ho0 2.378 . S
O22 C3 1.215 . S
O23 Ho0 2.524 . S
O23 C3 1.289 . S
O24 Ho0 2.381 . S
O24 C10 1.275 . S
O25 Ho0 2.669 . S
O25 Ho1 2.305 . S
O25 C10 1.256 . S
O26 Ho1 2.322 . S
O26 C11 1.259 . S
O27 Ho0 2.346 . S
O27 C11 1.268 . S
O28 Ho1 2.378 . S
O28 C12 1.215 . S
O29 Ho1 2.524 . S
O29 C12 1.289 . S
O30 Ho1 2.381 . S
O30 C19 1.275 . S
O31 Ho0 2.305 . S
O31 Ho1 2.669 . S
O31 C19 1.256 . S
H32 C5 0.930 . S
H33 C6 0.931 . S
H34 C8 0.934 . S
H35 C9 0.930 . S
H36 C14 0.930 . S
H37 C15 0.931 1_556 S
H38 C17 0.934 . S
H39 C18 0.930 . S
Ho40 C43 2.811 . S
Ho40 O60 2.322 . S
Ho40 O62 2.378 . S
Ho40 O63 2.524 . S
Ho40 O64 2.381 . S
Ho40 O65 2.669 . S
Ho40 O67 2.346 . S
Ho40 O71 2.305 . S
Ho41 C52 2.811 . S
Ho41 O61 2.346 . S
Ho41 O65 2.305 . S
Ho41 O66 2.322 . S
Ho41 O68 2.378 . S
Ho41 O69 2.524 . S
Ho41 O70 2.381 . S
Ho41 O71 2.669 . S
C42 O60 1.259 . S
C42 O61 1.268 . S
C43 Ho40 2.811 . S
C43 C44 1.488 . S
C43 O62 1.215 . S
C43 O63 1.289 . S
C44 C43 1.488 . S
C44 C45 1.348 . S
C44 C49 1.413 . S
C45 C44 1.348 . S
C45 C46 1.442 . S
C45 H72 0.930 . S
C46 C45 1.442 . S
C46 C47 1.381 . S
C46 H73 0.931 . S
C47 C46 1.381 . S
C47 C48 1.321 . S
C48 C47 1.321 . S
C48 C49 1.403 . S
C48 H74 0.934 . S
C49 C44 1.413 . S
C49 C48 1.403 . S
C49 H75 0.930 . S
C50 O64 1.275 . S
C50 O65 1.256 . S
C51 O66 1.259 . S
C51 O67 1.268 . S
C52 Ho41 2.811 . S
C52 C53 1.488 . S
C52 O68 1.215 . S
C52 O69 1.289 . S
C53 C52 1.488 . S
C53 C54 1.348 . S
C53 C58 1.413 . S
C54 C53 1.348 . S
C54 C55 1.442 . S
C54 H76 0.930 . S
C55 C54 1.442 . S
C55 C56 1.381 . S
C55 H77 0.931 . S
C56 C55 1.381 . S
C56 C57 1.321 . S
C57 C56 1.321 . S
C57 C58 1.403 . S
C57 H78 0.934 . S
C58 C53 1.413 . S
C58 C57 1.403 . S
C58 H79 0.930 . S
C59 O70 1.275 . S
C59 O71 1.256 . S
O60 Ho40 2.322 . S
O60 C42 1.259 . S
O61 Ho41 2.346 . S
O61 C42 1.268 . S
O62 Ho40 2.378 . S
O62 C43 1.215 . S
O63 Ho40 2.524 . S
O63 C43 1.289 . S
O64 Ho40 2.381 . S
O64 C50 1.275 . S
O65 Ho40 2.669 . S
O65 Ho41 2.305 . S
O65 C50 1.256 . S
O66 Ho41 2.322 . S
O66 C51 1.259 . S
O67 Ho40 2.346 . S
O67 C51 1.268 . S
O68 Ho41 2.378 . S
O68 C52 1.215 . S
O69 Ho41 2.524 . S
O69 C52 1.289 . S
O70 Ho41 2.381 . S
O70 C59 1.275 . S
O71 Ho40 2.305 . S
O71 Ho41 2.669 . S
O71 C59 1.256 . S
H72 C45 0.930 . S
H73 C46 0.931 . S
H74 C48 0.934 . S
H75 C49 0.930 . S
H76 C54 0.930 . S
H77 C55 0.931 . S
H78 C57 0.934 . S
H79 C58 0.930 . S
Ho80 C83 2.811 1_556 S
Ho80 O100 2.322 . S
Ho80 O102 2.378 1_556 S
Ho80 O103 2.524 1_556 S
Ho80 O104 2.381 . S
Ho80 O105 2.669 . S
Ho80 O107 2.346 . S
Ho80 O111 2.305 . S
Ho81 C92 2.811 . S
Ho81 O101 2.346 . S
Ho81 O105 2.305 . S
Ho81 O106 2.322 . S
Ho81 O108 2.378 . S
Ho81 O109 2.524 . S
Ho81 O110 2.381 . S
Ho81 O111 2.669 . S
C82 O100 1.259 . S
C82 O101 1.268 . S
C83 Ho80 2.811 1_554 S
C83 C84 1.488 . S
C83 O102 1.215 . S
C83 O103 1.289 . S
C84 C83 1.488 . S
C84 C85 1.348 . S
C84 C89 1.413 . S
C85 C84 1.348 . S
C85 C86 1.442 . S
C85 H112 0.930 . S
C86 C85 1.442 . S
C86 C87 1.381 . S
C86 H113 0.931 . S
C87 C86 1.381 . S
C87 C88 1.321 . S
C88 C87 1.321 . S
C88 C89 1.403 . S
C88 H114 0.934 . S
C89 C84 1.413 . S
C89 C88 1.403 . S
C89 H115 0.930 . S
C90 O104 1.275 . S
C90 O105 1.256 . S
C91 O106 1.259 . S
C91 O107 1.268 . S
C92 Ho81 2.811 . S
C92 C93 1.488 . S
C92 O108 1.215 . S
C92 O109 1.289 . S
C93 C92 1.488 . S
C93 C94 1.348 . S
C93 C98 1.413 . S
C94 C93 1.348 . S
C94 C95 1.442 . S
C94 H116 0.930 . S
C95 C94 1.442 . S
C95 C96 1.381 . S
C95 H117 0.931 . S
C96 C95 1.381 . S
C96 C97 1.321 . S
C97 C96 1.321 . S
C97 C98 1.403 . S
C97 H118 0.934 . S
C98 C93 1.413 . S
C98 C97 1.403 . S
C98 H119 0.930 . S
C99 O110 1.275 . S
C99 O111 1.256 . S
O100 Ho80 2.322 . S
O100 C82 1.259 . S
O101 Ho81 2.346 . S
O101 C82 1.268 . S
O102 Ho80 2.378 1_554 S
O102 C83 1.215 . S
O103 Ho80 2.524 1_554 S
O103 C83 1.289 . S
O104 Ho80 2.381 . S
O104 C90 1.275 . S
O105 Ho80 2.669 . S
O105 Ho81 2.305 . S
O105 C90 1.256 . S
O106 Ho81 2.322 . S
O106 C91 1.259 . S
O107 Ho80 2.346 . S
O107 C91 1.268 . S
O108 Ho81 2.378 . S
O108 C92 1.215 . S
O109 Ho81 2.524 . S
O109 C92 1.289 . S
O110 Ho81 2.381 . S
O110 C99 1.275 . S
O111 Ho80 2.305 . S
O111 Ho81 2.669 . S
O111 C99 1.256 . S
H112 C85 0.930 . S
H113 C86 0.931 . S
H114 C88 0.934 . S
H115 C89 0.930 . S
H116 C94 0.930 . S
H117 C95 0.931 . S
H118 C97 0.934 . S
H119 C98 0.930 . S
Ho120 C123 2.811 . S
Ho120 O140 2.322 . S
Ho120 O142 2.378 . S
Ho120 O143 2.524 . S
Ho120 O144 2.381 . S
Ho120 O145 2.669 . S
Ho120 O147 2.346 . S
Ho120 O151 2.305 . S
Ho121 C132 2.811 . S
Ho121 O141 2.346 . S
Ho121 O145 2.305 . S
Ho121 O146 2.322 . S
Ho121 O148 2.378 . S
Ho121 O149 2.524 . S
Ho121 O150 2.381 . S
Ho121 O151 2.669 . S
C122 O140 1.259 . S
C122 O141 1.268 . S
C123 Ho120 2.811 . S
C123 C124 1.488 . S
C123 O142 1.215 . S
C123 O143 1.289 . S
C124 C123 1.488 . S
C124 C125 1.348 . S
C124 C129 1.413 . S
C125 C124 1.348 . S
C125 C126 1.442 . S
C125 H152 0.930 . S
C126 C125 1.442 . S
C126 C127 1.381 . S
C126 H153 0.931 . S
C127 C126 1.381 . S
C127 C128 1.321 . S
C128 C127 1.321 . S
C128 C129 1.403 . S
C128 H154 0.934 . S
C129 C124 1.413 . S
C129 C128 1.403 . S
C129 H155 0.930 . S
C130 O144 1.275 . S
C130 O145 1.256 . S
C131 O146 1.259 . S
C131 O147 1.268 . S
C132 Ho121 2.811 . S
C132 C133 1.488 . S
C132 O148 1.215 . S
C132 O149 1.289 . S
C133 C132 1.488 . S
C133 C134 1.348 . S
C133 C138 1.413 . S
C134 C133 1.348 . S
C134 C135 1.442 . S
C134 H156 0.930 . S
C135 C134 1.442 . S
C135 C136 1.381 1_554 S
C135 H157 0.931 1_554 S
C136 C135 1.381 1_556 S
C136 C137 1.321 1_556 S
C137 C136 1.321 1_554 S
C137 C138 1.403 . S
C137 H158 0.934 . S
C138 C133 1.413 . S
C138 C137 1.403 . S
C138 H159 0.930 . S
C139 O150 1.275 . S
C139 O151 1.256 . S
O140 Ho120 2.322 . S
O140 C122 1.259 . S
O141 Ho121 2.346 . S
O141 C122 1.268 . S
O142 Ho120 2.378 . S
O142 C123 1.215 . S
O143 Ho120 2.524 . S
O143 C123 1.289 . S
O144 Ho120 2.381 . S
O144 C130 1.275 . S
O145 Ho120 2.669 . S
O145 Ho121 2.305 . S
O145 C130 1.256 . S
O146 Ho121 2.322 . S
O146 C131 1.259 . S
O147 Ho120 2.346 . S
O147 C131 1.268 . S
O148 Ho121 2.378 . S
O148 C132 1.215 . S
O149 Ho121 2.524 . S
O149 C132 1.289 . S
O150 Ho121 2.381 . S
O150 C139 1.275 . S
O151 Ho120 2.305 . S
O151 Ho121 2.669 . S
O151 C139 1.256 . S
H152 C125 0.930 . S
H153 C126 0.931 . S
H154 C128 0.934 . S
H155 C129 0.930 . S
H156 C134 0.930 . S
H157 C135 0.931 1_556 S
H158 C137 0.934 . S
H159 C138 0.930 . S
Ho160 C163 2.811 . S
Ho160 O180 2.322 . S
Ho160 O182 2.378 . S
Ho160 O183 2.524 . S
Ho160 O184 2.381 . S
Ho160 O185 2.669 . S
Ho160 O187 2.346 . S
Ho160 O191 2.305 . S
Ho161 C172 2.811 . S
Ho161 O181 2.346 . S
Ho161 O185 2.305 . S
Ho161 O186 2.322 . S
Ho161 O188 2.378 . S
Ho161 O189 2.524 . S
Ho161 O190 2.381 . S
Ho161 O191 2.669 . S
C162 O180 1.259 . S
C162 O181 1.268 . S
C163 Ho160 2.811 . S
C163 C164 1.488 . S
C163 O182 1.215 . S
C163 O183 1.289 . S
C164 C163 1.488 . S
C164 C165 1.348 . S
C164 C169 1.413 . S
C165 C164 1.348 . S
C165 C166 1.442 . S
C165 H192 0.930 . S
C166 C165 1.442 . S
C166 C167 1.381 . S
C166 H193 0.931 . S
C167 C166 1.381 . S
C167 C168 1.321 . S
C168 C167 1.321 . S
C168 C169 1.403 . S
C168 H194 0.934 . S
C169 C164 1.413 . S
C169 C168 1.403 . S
C169 H195 0.930 . S
C170 O184 1.275 . S
C170 O185 1.256 . S
C171 O186 1.259 . S
C171 O187 1.268 . S
C172 Ho161 2.811 . S
C172 C173 1.488 . S
C172 O188 1.215 . S
C172 O189 1.289 . S
C173 C172 1.488 . S
C173 C174 1.348 . S
C173 C178 1.413 . S
C174 C173 1.348 . S
C174 C175 1.442 . S
C174 H196 0.930 . S
C175 C174 1.442 . S
C175 C176 1.381 . S
C175 H197 0.931 . S
C176 C175 1.381 . S
C176 C177 1.321 . S
C177 C176 1.321 . S
C177 C178 1.403 . S
C177 H198 0.934 . S
C178 C173 1.413 . S
C178 C177 1.403 . S
C178 H199 0.930 . S
C179 O190 1.275 . S
C179 O191 1.256 . S
O180 Ho160 2.322 . S
O180 C162 1.259 . S
O181 Ho161 2.346 . S
O181 C162 1.268 . S
O182 Ho160 2.378 . S
O182 C163 1.215 . S
O183 Ho160 2.524 . S
O183 C163 1.289 . S
O184 Ho160 2.381 . S
O184 C170 1.275 . S
O185 Ho160 2.669 . S
O185 Ho161 2.305 . S
O185 C170 1.256 . S
O186 Ho161 2.322 . S
O186 C171 1.259 . S
O187 Ho160 2.346 . S
O187 C171 1.268 . S
O188 Ho161 2.378 . S
O188 C172 1.215 . S
O189 Ho161 2.524 . S
O189 C172 1.289 . S
O190 Ho161 2.381 . S
O190 C179 1.275 . S
O191 Ho160 2.305 . S
O191 Ho161 2.669 . S
O191 C179 1.256 . S
H192 C165 0.930 . S
H193 C166 0.931 . S
H194 C168 0.934 . S
H195 C169 0.930 . S
H196 C174 0.930 . S
H197 C175 0.931 . S
H198 C177 0.934 . S
H199 C178 0.930 . S
Ho200 C203 2.811 1_556 S
Ho200 O220 2.322 . S
Ho200 O222 2.378 1_556 S
Ho200 O223 2.524 1_556 S
Ho200 O224 2.381 . S
Ho200 O225 2.669 . S
Ho200 O227 2.346 . S
Ho200 O231 2.305 . S
Ho201 C212 2.811 . S
Ho201 O221 2.346 . S
Ho201 O225 2.305 . S
Ho201 O226 2.322 . S
Ho201 O228 2.378 . S
Ho201 O229 2.524 . S
Ho201 O230 2.381 . S
Ho201 O231 2.669 . S
C202 O220 1.259 . S
C202 O221 1.268 . S
C203 Ho200 2.811 1_554 S
C203 C204 1.488 . S
C203 O222 1.215 . S
C203 O223 1.289 . S
C204 C203 1.488 . S
C204 C205 1.348 . S
C204 C209 1.413 . S
C205 C204 1.348 . S
C205 C206 1.442 . S
C205 H232 0.930 . S
C206 C205 1.442 . S
C206 C207 1.381 . S
C206 H233 0.931 . S
C207 C206 1.381 . S
C207 C208 1.321 . S
C208 C207 1.321 . S
C208 C209 1.403 . S
C208 H234 0.934 . S
C209 C204 1.413 . S
C209 C208 1.403 . S
C209 H235 0.930 . S
C210 O224 1.275 . S
C210 O225 1.256 . S
C211 O226 1.259 . S
C211 O227 1.268 . S
C212 Ho201 2.811 . S
C212 C213 1.488 . S
C212 O228 1.215 . S
C212 O229 1.289 . S
C213 C212 1.488 . S
C213 C214 1.348 . S
C213 C218 1.413 . S
C214 C213 1.348 . S
C214 C215 1.442 . S
C214 H236 0.930 . S
C215 C214 1.442 . S
C215 C216 1.381 . S
C215 H237 0.931 . S
C216 C215 1.381 . S
C216 C217 1.321 . S
C217 C216 1.321 . S
C217 C218 1.403 . S
C217 H238 0.934 . S
C218 C213 1.413 . S
C218 C217 1.403 . S
C218 H239 0.930 . S
C219 O230 1.275 . S
C219 O231 1.256 . S
O220 Ho200 2.322 . S
O220 C202 1.259 . S
O221 Ho201 2.346 . S
O221 C202 1.268 . S
O222 Ho200 2.378 1_554 S
O222 C203 1.215 . S
O223 Ho200 2.524 1_554 S
O223 C203 1.289 . S
O224 Ho200 2.381 . S
O224 C210 1.275 . S
O225 Ho200 2.669 . S
O225 Ho201 2.305 . S
O225 C210 1.256 . S
O226 Ho201 2.322 . S
O226 C211 1.259 . S
O227 Ho200 2.346 . S
O227 C211 1.268 . S
O228 Ho201 2.378 . S
O228 C212 1.215 . S
O229 Ho201 2.524 . S
O229 C212 1.289 . S
O230 Ho201 2.381 . S
O230 C219 1.275 . S
O231 Ho200 2.305 . S
O231 Ho201 2.669 . S
O231 C219 1.256 . S
H232 C205 0.930 . S
H233 C206 0.931 . S
H234 C208 0.934 . S
H235 C209 0.930 . S
H236 C214 0.930 . S
H237 C215 0.931 . S
H238 C217 0.934 . S
H239 C218 0.930 . S
Ho240 C243 2.811 . S
Ho240 O260 2.322 . S
Ho240 O262 2.378 . S
Ho240 O263 2.524 . S
Ho240 O264 2.381 . S
Ho240 O265 2.669 . S
Ho240 O267 2.346 . S
Ho240 O271 2.305 . S
Ho241 C252 2.811 . S
Ho241 O261 2.346 . S
Ho241 O265 2.305 . S
Ho241 O266 2.322 . S
Ho241 O268 2.378 . S
Ho241 O269 2.524 . S
Ho241 O270 2.381 . S
Ho241 O271 2.669 . S
C242 O260 1.259 . S
C242 O261 1.268 . S
C243 Ho240 2.811 . S
C243 C244 1.488 . S
C243 O262 1.215 . S
C243 O263 1.289 . S
C244 C243 1.488 . S
C244 C245 1.348 . S
C244 C249 1.413 . S
C245 C244 1.348 . S
C245 C246 1.442 . S
C245 H272 0.930 . S
C246 C245 1.442 . S
C246 C247 1.381 . S
C246 H273 0.931 . S
C247 C246 1.381 . S
C247 C248 1.321 . S
C248 C247 1.321 . S
C248 C249 1.403 . S
C248 H274 0.934 . S
C249 C244 1.413 . S
C249 C248 1.403 . S
C249 H275 0.930 . S
C250 O264 1.275 . S
C250 O265 1.256 . S
C251 O266 1.259 . S
C251 O267 1.268 . S
C252 Ho241 2.811 . S
C252 C253 1.488 . S
C252 O268 1.215 . S
C252 O269 1.289 . S
C253 C252 1.488 . S
C253 C254 1.348 . S
C253 C258 1.413 . S
C254 C253 1.348 . S
C254 C255 1.442 . S
C254 H276 0.930 . S
C255 C254 1.442 . S
C255 C256 1.381 . S
C255 H277 0.931 . S
C256 C255 1.381 . S
C256 C257 1.321 . S
C257 C256 1.321 . S
C257 C258 1.403 . S
C257 H278 0.934 . S
C258 C253 1.413 . S
C258 C257 1.403 . S
C258 H279 0.930 . S
C259 O270 1.275 . S
C259 O271 1.256 . S
O260 Ho240 2.322 . S
O260 C242 1.259 . S
O261 Ho241 2.346 . S
O261 C242 1.268 . S
O262 Ho240 2.378 . S
O262 C243 1.215 . S
O263 Ho240 2.524 . S
O263 C243 1.289 . S
O264 Ho240 2.381 . S
O264 C250 1.275 . S
O265 Ho240 2.669 . S
O265 Ho241 2.305 . S
O265 C250 1.256 . S
O266 Ho241 2.322 . S
O266 C251 1.259 . S
O267 Ho240 2.346 . S
O267 C251 1.268 . S
O268 Ho241 2.378 . S
O268 C252 1.215 . S
O269 Ho241 2.524 . S
O269 C252 1.289 . S
O270 Ho241 2.381 . S
O270 C259 1.275 . S
O271 Ho240 2.305 . S
O271 Ho241 2.669 . S
O271 C259 1.256 . S
H272 C245 0.930 . S
H273 C246 0.931 . S
H274 C248 0.934 . S
H275 C249 0.930 . S
H276 C254 0.930 . S
H277 C255 0.931 . S
H278 C257 0.934 . S
H279 C258 0.930 . S
Ho280 C283 2.811 . S
Ho280 O300 2.322 . S
Ho280 O302 2.378 . S
Ho280 O303 2.524 . S
Ho280 O304 2.381 . S
Ho280 O305 2.669 . S
Ho280 O307 2.346 . S
Ho280 O311 2.305 . S
Ho281 C292 2.811 . S
Ho281 O301 2.346 . S
Ho281 O305 2.305 . S
Ho281 O306 2.322 . S
Ho281 O308 2.378 . S
Ho281 O309 2.524 . S
Ho281 O310 2.381 . S
Ho281 O311 2.669 . S
C282 O300 1.259 . S
C282 O301 1.268 . S
C283 Ho280 2.811 . S
C283 C284 1.488 . S
C283 O302 1.215 . S
C283 O303 1.289 . S
C284 C283 1.488 . S
C284 C285 1.348 . S
C284 C289 1.413 . S
C285 C284 1.348 . S
C285 C286 1.442 . S
C285 H312 0.930 . S
C286 C285 1.442 . S
C286 C287 1.381 . S
C286 H313 0.931 . S
C287 C286 1.381 . S
C287 C288 1.321 . S
C288 C287 1.321 . S
C288 C289 1.403 . S
C288 H314 0.934 . S
C289 C284 1.413 . S
C289 C288 1.403 . S
C289 H315 0.930 . S
C290 O304 1.275 . S
C290 O305 1.256 . S
C291 O306 1.259 . S
C291 O307 1.268 . S
C292 Ho281 2.811 . S
C292 C293 1.488 . S
C292 O308 1.215 . S
C292 O309 1.289 . S
C293 C292 1.488 . S
C293 C294 1.348 . S
C293 C298 1.413 . S
C294 C293 1.348 . S
C294 C295 1.442 . S
C294 H316 0.930 . S
C295 C294 1.442 . S
C295 C296 1.381 1_556 S
C295 H317 0.931 1_556 S
C296 C295 1.381 1_554 S
C296 C297 1.321 1_554 S
C297 C296 1.321 1_556 S
C297 C298 1.403 . S
C297 H318 0.934 . S
C298 C293 1.413 . S
C298 C297 1.403 . S
C298 H319 0.930 . S
C299 O310 1.275 . S
C299 O311 1.256 . S
O300 Ho280 2.322 . S
O300 C282 1.259 . S
O301 Ho281 2.346 . S
O301 C282 1.268 . S
O302 Ho280 2.378 . S
O302 C283 1.215 . S
O303 Ho280 2.524 . S
O303 C283 1.289 . S
O304 Ho280 2.381 . S
O304 C290 1.275 . S
O305 Ho280 2.669 . S
O305 Ho281 2.305 . S
O305 C290 1.256 . S
O306 Ho281 2.322 . S
O306 C291 1.259 . S
O307 Ho280 2.346 . S
O307 C291 1.268 . S
O308 Ho281 2.378 . S
O308 C292 1.215 . S
O309 Ho281 2.524 . S
O309 C292 1.289 . S
O310 Ho281 2.381 . S
O310 C299 1.275 . S
O311 Ho280 2.305 . S
O311 Ho281 2.669 . S
O311 C299 1.256 . S
H312 C285 0.930 . S
H313 C286 0.931 . S
H314 C288 0.934 . S
H315 C289 0.930 . S
H316 C294 0.930 . S
H317 C295 0.931 1_554 S
H318 C297 0.934 . S
H319 C298 0.930 . S
Ho320 C323 2.811 1_554 S
Ho320 O340 2.322 . S
Ho320 O342 2.378 1_554 S
Ho320 O343 2.524 1_554 S
Ho320 O344 2.381 . S
Ho320 O345 2.669 . S
Ho320 O347 2.346 . S
Ho320 O351 2.305 . S
Ho321 C332 2.811 . S
Ho321 O341 2.346 . S
Ho321 O345 2.305 . S
Ho321 O346 2.322 . S
Ho321 O348 2.378 . S
Ho321 O349 2.524 . S
Ho321 O350 2.381 . S
Ho321 O351 2.669 . S
C322 O340 1.259 . S
C322 O341 1.268 . S
C323 Ho320 2.811 1_556 S
C323 C324 1.488 . S
C323 O342 1.215 . S
C323 O343 1.289 . S
C324 C323 1.488 . S
C324 C325 1.348 . S
C324 C329 1.413 . S
C325 C324 1.348 . S
C325 C326 1.442 . S
C325 H352 0.930 . S
C326 C325 1.442 . S
C326 C327 1.381 . S
C326 H353 0.931 . S
C327 C326 1.381 . S
C327 C328 1.321 . S
C328 C327 1.321 . S
C328 C329 1.403 . S
C328 H354 0.934 . S
C329 C324 1.413 . S
C329 C328 1.403 . S
C329 H355 0.930 . S
C330 O344 1.275 . S
C330 O345 1.256 . S
C331 O346 1.259 . S
C331 O347 1.268 . S
C332 Ho321 2.811 . S
C332 C333 1.488 . S
C332 O348 1.215 . S
C332 O349 1.289 . S
C333 C332 1.488 . S
C333 C334 1.348 . S
C333 C338 1.413 . S
C334 C333 1.348 . S
C334 C335 1.442 . S
C334 H356 0.930 . S
C335 C334 1.442 . S
C335 C336 1.381 . S
C335 H357 0.931 . S
C336 C335 1.381 . S
C336 C337 1.321 . S
C337 C336 1.321 . S
C337 C338 1.403 . S
C337 H358 0.934 . S
C338 C333 1.413 . S
C338 C337 1.403 . S
C338 H359 0.930 . S
C339 O350 1.275 . S
C339 O351 1.256 . S
O340 Ho320 2.322 . S
O340 C322 1.259 . S
O341 Ho321 2.346 . S
O341 C322 1.268 . S
O342 Ho320 2.378 1_556 S
O342 C323 1.215 . S
O343 Ho320 2.524 1_556 S
O343 C323 1.289 . S
O344 Ho320 2.381 . S
O344 C330 1.275 . S
O345 Ho320 2.669 . S
O345 Ho321 2.305 . S
O345 C330 1.256 . S
O346 Ho321 2.322 . S
O346 C331 1.259 . S
O347 Ho320 2.346 . S
O347 C331 1.268 . S
O348 Ho321 2.378 . S
O348 C332 1.215 . S
O349 Ho321 2.524 . S
O349 C332 1.289 . S
O350 Ho321 2.381 . S
O350 C339 1.275 . S
O351 Ho320 2.305 . S
O351 Ho321 2.669 . S
O351 C339 1.256 . S
H352 C325 0.930 . S
H353 C326 0.931 . S
H354 C328 0.934 . S
H355 C329 0.930 . S
H356 C334 0.930 . S
H357 C335 0.931 . S
H358 C337 0.934 . S
H359 C338 0.930 . S
Ho360 C363 2.811 . S
Ho360 O380 2.322 . S
Ho360 O382 2.378 . S
Ho360 O383 2.524 . S
Ho360 O384 2.381 . S
Ho360 O385 2.669 . S
Ho360 O387 2.346 . S
Ho360 O391 2.305 . S
Ho361 C372 2.811 . S
Ho361 O381 2.346 . S
Ho361 O385 2.305 . S
Ho361 O386 2.322 . S
Ho361 O388 2.378 . S
Ho361 O389 2.524 . S
Ho361 O390 2.381 . S
Ho361 O391 2.669 . S
C362 O380 1.259 . S
C362 O381 1.268 . S
C363 Ho360 2.811 . S
C363 C364 1.488 . S
C363 O382 1.215 . S
C363 O383 1.289 . S
C364 C363 1.488 . S
C364 C365 1.348 . S
C364 C369 1.413 . S
C365 C364 1.348 . S
C365 C366 1.442 . S
C365 H392 0.930 . S
C366 C365 1.442 . S
C366 C367 1.381 . S
C366 H393 0.931 . S
C367 C366 1.381 . S
C367 C368 1.321 . S
C368 C367 1.321 . S
C368 C369 1.403 . S
C368 H394 0.934 . S
C369 C364 1.413 . S
C369 C368 1.403 . S
C369 H395 0.930 . S
C370 O384 1.275 . S
C370 O385 1.256 . S
C371 O386 1.259 . S
C371 O387 1.268 . S
C372 Ho361 2.811 . S
C372 C373 1.488 . S
C372 O388 1.215 . S
C372 O389 1.289 . S
C373 C372 1.488 . S
C373 C374 1.348 . S
C373 C378 1.413 . S
C374 C373 1.348 . S
C374 C375 1.442 . S
C374 H396 0.930 . S
C375 C374 1.442 . S
C375 C376 1.381 . S
C375 H397 0.931 . S
C376 C375 1.381 . S
C376 C377 1.321 . S
C377 C376 1.321 . S
C377 C378 1.403 . S
C377 H398 0.934 . S
C378 C373 1.413 . S
C378 C377 1.403 . S
C378 H399 0.930 . S
C379 O390 1.275 . S
C379 O391 1.256 . S
O380 Ho360 2.322 . S
O380 C362 1.259 . S
O381 Ho361 2.346 . S
O381 C362 1.268 . S
O382 Ho360 2.378 . S
O382 C363 1.215 . S
O383 Ho360 2.524 . S
O383 C363 1.289 . S
O384 Ho360 2.381 . S
O384 C370 1.275 . S
O385 Ho360 2.669 . S
O385 Ho361 2.305 . S
O385 C370 1.256 . S
O386 Ho361 2.322 . S
O386 C371 1.259 . S
O387 Ho360 2.346 . S
O387 C371 1.268 . S
O388 Ho361 2.378 . S
O388 C372 1.215 . S
O389 Ho361 2.524 . S
O389 C372 1.289 . S
O390 Ho361 2.381 . S
O390 C379 1.275 . S
O391 Ho360 2.305 . S
O391 Ho361 2.669 . S
O391 C379 1.256 . S
H392 C365 0.930 . S
H393 C366 0.931 . S
H394 C368 0.934 . S
H395 C369 0.930 . S
H396 C374 0.930 . S
H397 C375 0.931 . S
H398 C377 0.934 . S
H399 C378 0.930 . S
Ho400 C403 2.811 . S
Ho400 O420 2.322 . S
Ho400 O422 2.378 . S
Ho400 O423 2.524 . S
Ho400 O424 2.381 . S
Ho400 O425 2.669 . S
Ho400 O427 2.346 . S
Ho400 O431 2.305 . S
Ho401 C412 2.811 . S
Ho401 O421 2.346 . S
Ho401 O425 2.305 . S
Ho401 O426 2.322 . S
Ho401 O428 2.378 . S
Ho401 O429 2.524 . S
Ho401 O430 2.381 . S
Ho401 O431 2.669 . S
C402 O420 1.259 . S
C402 O421 1.268 . S
C403 Ho400 2.811 . S
C403 C404 1.488 . S
C403 O422 1.215 . S
C403 O423 1.289 . S
C404 C403 1.488 . S
C404 C405 1.348 . S
C404 C409 1.413 . S
C405 C404 1.348 . S
C405 C406 1.442 . S
C405 H432 0.930 . S
C406 C405 1.442 . S
C406 C407 1.381 . S
C406 H433 0.931 . S
C407 C406 1.381 . S
C407 C408 1.321 . S
C408 C407 1.321 . S
C408 C409 1.403 . S
C408 H434 0.934 . S
C409 C404 1.413 . S
C409 C408 1.403 . S
C409 H435 0.930 . S
C410 O424 1.275 . S
C410 O425 1.256 . S
C411 O426 1.259 . S
C411 O427 1.268 . S
C412 Ho401 2.811 . S
C412 C413 1.488 . S
C412 O428 1.215 . S
C412 O429 1.289 . S
C413 C412 1.488 . S
C413 C414 1.348 . S
C413 C418 1.413 . S
C414 C413 1.348 . S
C414 C415 1.442 . S
C414 H436 0.930 . S
C415 C414 1.442 . S
C415 C416 1.381 1_556 S
C415 H437 0.931 1_556 S
C416 C415 1.381 1_554 S
C416 C417 1.321 1_554 S
C417 C416 1.321 1_556 S
C417 C418 1.403 . S
C417 H438 0.934 . S
C418 C413 1.413 . S
C418 C417 1.403 . S
C418 H439 0.930 . S
C419 O430 1.275 . S
C419 O431 1.256 . S
O420 Ho400 2.322 . S
O420 C402 1.259 . S
O421 Ho401 2.346 . S
O421 C402 1.268 . S
O422 Ho400 2.378 . S
O422 C403 1.215 . S
O423 Ho400 2.524 . S
O423 C403 1.289 . S
O424 Ho400 2.381 . S
O424 C410 1.275 . S
O425 Ho400 2.669 . S
O425 Ho401 2.305 . S
O425 C410 1.256 . S
O426 Ho401 2.322 . S
O426 C411 1.259 . S
O427 Ho400 2.346 . S
O427 C411 1.268 . S
O428 Ho401 2.378 . S
O428 C412 1.215 . S
O429 Ho401 2.524 . S
O429 C412 1.289 . S
O430 Ho401 2.381 . S
O430 C419 1.275 . S
O431 Ho400 2.305 . S
O431 Ho401 2.669 . S
O431 C419 1.256 . S
H432 C405 0.930 . S
H433 C406 0.931 . S
H434 C408 0.934 . S
H435 C409 0.930 . S
H436 C414 0.930 . S
H437 C415 0.931 1_554 S
H438 C417 0.934 . S
H439 C418 0.930 . S
Ho440 C443 2.811 1_554 S
Ho440 O460 2.322 . S
Ho440 O462 2.378 1_554 S
Ho440 O463 2.524 1_554 S
Ho440 O464 2.381 . S
Ho440 O465 2.669 . S
Ho440 O467 2.346 . S
Ho440 O471 2.305 . S
Ho441 C452 2.811 . S
Ho441 O461 2.346 . S
Ho441 O465 2.305 . S
Ho441 O466 2.322 . S
Ho441 O468 2.378 . S
Ho441 O469 2.524 . S
Ho441 O470 2.381 . S
Ho441 O471 2.669 . S
C442 O460 1.259 . S
C442 O461 1.268 . S
C443 Ho440 2.811 1_556 S
C443 C444 1.488 . S
C443 O462 1.215 . S
C443 O463 1.289 . S
C444 C443 1.488 . S
C444 C445 1.348 . S
C444 C449 1.413 . S
C445 C444 1.348 . S
C445 C446 1.442 . S
C445 H472 0.930 . S
C446 C445 1.442 . S
C446 C447 1.381 . S
C446 H473 0.931 . S
C447 C446 1.381 . S
C447 C448 1.321 . S
C448 C447 1.321 . S
C448 C449 1.403 . S
C448 H474 0.934 . S
C449 C444 1.413 . S
C449 C448 1.403 . S
C449 H475 0.930 . S
C450 O464 1.275 . S
C450 O465 1.256 . S
C451 O466 1.259 . S
C451 O467 1.268 . S
C452 Ho441 2.811 . S
C452 C453 1.488 . S
C452 O468 1.215 . S
C452 O469 1.289 . S
C453 C452 1.488 . S
C453 C454 1.348 . S
C453 C458 1.413 . S
C454 C453 1.348 . S
C454 C455 1.442 . S
C454 H476 0.930 . S
C455 C454 1.442 . S
C455 C456 1.381 . S
C455 H477 0.931 . S
C456 C455 1.381 . S
C456 C457 1.321 . S
C457 C456 1.321 . S
C457 C458 1.403 . S
C457 H478 0.934 . S
C458 C453 1.413 . S
C458 C457 1.403 . S
C458 H479 0.930 . S
C459 O470 1.275 . S
C459 O471 1.256 . S
O460 Ho440 2.322 . S
O460 C442 1.259 . S
O461 Ho441 2.346 . S
O461 C442 1.268 . S
O462 Ho440 2.378 1_556 S
O462 C443 1.215 . S
O463 Ho440 2.524 1_556 S
O463 C443 1.289 . S
O464 Ho440 2.381 . S
O464 C450 1.275 . S
O465 Ho440 2.669 . S
O465 Ho441 2.305 . S
O465 C450 1.256 . S
O466 Ho441 2.322 . S
O466 C451 1.259 . S
O467 Ho440 2.346 . S
O467 C451 1.268 . S
O468 Ho441 2.378 . S
O468 C452 1.215 . S
O469 Ho441 2.524 . S
O469 C452 1.289 . S
O470 Ho441 2.381 . S
O470 C459 1.275 . S
O471 Ho440 2.305 . S
O471 Ho441 2.669 . S
O471 C459 1.256 . S
H472 C445 0.930 . S
H473 C446 0.931 . S
H474 C448 0.934 . S
H475 C449 0.930 . S
H476 C454 0.930 . S
H477 C455 0.931 . S
H478 C457 0.934 . S
H479 C458 0.930 . S
C480 C481 1.369 . S
C480 C482 1.419 . S
C480 H484 0.930 . S
C481 C480 1.369 . S
C481 C490 1.429 . S
C482 C480 1.419 . S
C482 C483 1.363 . S
C482 H485 0.929 . S
C483 C482 1.363 . S
C483 C489 1.428 . S
H484 C480 0.930 . S
H485 C482 0.929 . S
S486 N487 1.613 . S
S486 N488 1.610 . S
N487 S486 1.613 . S
N487 C490 1.350 . S
N488 S486 1.610 . S
N488 C489 1.351 . S
C489 C483 1.428 . S
C489 N488 1.351 . S
C489 C490 1.434 . S
C490 C481 1.429 . S
C490 N487 1.350 . S
C490 C489 1.434 . S
C491 C492 1.369 . S
C491 C493 1.419 . S
C491 H495 0.930 . S
C492 C491 1.369 . S
C492 C501 1.429 . S
C493 C491 1.419 . S
C493 C494 1.363 . S
C493 H496 0.929 . S
C494 C493 1.363 . S
C494 C500 1.428 . S
H495 C491 0.930 . S
H496 C493 0.929 . S
S497 N498 1.613 . S
S497 N499 1.610 . S
N498 S497 1.613 . S
N498 C501 1.350 . S
N499 S497 1.610 . S
N499 C500 1.351 . S
C500 C494 1.428 . S
C500 N499 1.351 . S
C500 C501 1.434 . S
C501 C492 1.429 . S
C501 N498 1.350 . S
C501 C500 1.434 . S
C502 C503 1.369 . S
C502 C504 1.419 . S
C502 H506 0.930 . S
C503 C502 1.369 . S
C503 C512 1.429 . S
C504 C502 1.419 . S
C504 C505 1.363 . S
C504 H507 0.929 . S
C505 C504 1.363 . S
C505 C511 1.428 . S
H506 C502 0.930 . S
H507 C504 0.929 . S
S508 N509 1.613 . S
S508 N510 1.610 . S
N509 S508 1.613 . S
N509 C512 1.350 . S
N510 S508 1.610 . S
N510 C511 1.351 . S
C511 C505 1.428 . S
C511 N510 1.351 . S
C511 C512 1.434 . S
C512 C503 1.429 . S
C512 N509 1.350 . S
C512 C511 1.434 . S
C513 C514 1.369 . S
C513 C515 1.419 . S
C513 H517 0.930 . S
C514 C513 1.369 . S
C514 C523 1.429 . S
C515 C513 1.419 . S
C515 C516 1.363 . S
C515 H518 0.929 . S
C516 C515 1.363 . S
C516 C522 1.428 . S
H517 C513 0.930 . S
H518 C515 0.929 . S
S519 N520 1.613 . S
S519 N521 1.610 . S
N520 S519 1.613 . S
N520 C523 1.350 . S
N521 S519 1.610 . S
N521 C522 1.351 . S
C522 C516 1.428 . S
C522 N521 1.351 . S
C522 C523 1.434 . S
C523 C514 1.429 . S
C523 N520 1.350 . S
C523 C522 1.434 . S
C524 C525 1.369 . S
C524 C526 1.419 . S
C524 H528 0.930 . S
C525 C524 1.369 . S
C525 C534 1.429 . S
C526 C524 1.419 . S
C526 C527 1.363 . S
C526 H529 0.929 . S
C527 C526 1.363 . S
C527 C533 1.428 . S
H528 C524 0.930 . S
H529 C526 0.929 . S
S530 N531 1.613 . S
S530 N532 1.610 . S
N531 S530 1.613 . S
N531 C534 1.350 . S
N532 S530 1.610 . S
N532 C533 1.351 . S
C533 C527 1.428 . S
C533 N532 1.351 . S
C533 C534 1.434 . S
C534 C525 1.429 . S
C534 N531 1.350 . S
C534 C533 1.434 . S
C535 C536 1.369 . S
C535 C537 1.419 . S
C535 H539 0.930 . S
C536 C535 1.369 . S
C536 C545 1.429 . S
C537 C535 1.419 . S
C537 C538 1.363 . S
C537 H540 0.929 . S
C538 C537 1.363 . S
C538 C544 1.428 . S
H539 C535 0.930 . S
H540 C537 0.929 . S
S541 N542 1.613 . S
S541 N543 1.610 . S
N542 S541 1.613 . S
N542 C545 1.350 . S
N543 S541 1.610 . S
N543 C544 1.351 . S
C544 C538 1.428 . S
C544 N543 1.351 . S
C544 C545 1.434 . S
C545 C536 1.429 . S
C545 N542 1.350 . S
C545 C544 1.434 . S
C546 C547 1.369 . S
C546 C548 1.419 1_554 S
C546 H550 0.930 . S
C547 C546 1.369 . S
C547 C556 1.429 . S
C548 C546 1.419 1_556 S
C548 C549 1.363 . S
C548 H551 0.929 . S
C549 C548 1.363 . S
C549 C555 1.428 . S
H550 C546 0.930 . S
H551 C548 0.929 . S
S552 N553 1.613 . S
S552 N554 1.610 1_554 S
N553 S552 1.613 . S
N553 C556 1.350 . S
N554 S552 1.610 1_556 S
N554 C555 1.351 . S
C555 C549 1.428 . S
C555 N554 1.351 . S
C555 C556 1.434 1_556 S
C556 C547 1.429 . S
C556 N553 1.350 . S
C556 C555 1.434 1_554 S
C557 C558 1.369 . S
C557 C559 1.419 . S
C557 H561 0.930 . S
C558 C557 1.369 . S
C558 C567 1.429 . S
C559 C557 1.419 . S
C559 C560 1.363 . S
C559 H562 0.929 . S
C560 C559 1.363 . S
C560 C566 1.428 . S
H561 C557 0.930 . S
H562 C559 0.929 . S
S563 N564 1.613 . S
S563 N565 1.610 . S
N564 S563 1.613 . S
N564 C567 1.350 . S
N565 S563 1.610 . S
N565 C566 1.351 . S
C566 C560 1.428 . S
C566 N565 1.351 . S
C566 C567 1.434 . S
C567 C558 1.429 . S
C567 N564 1.350 . S
C567 C566 1.434 . S
C568 C569 1.369 . S
C568 C570 1.419 . S
C568 H572 0.930 . S
C569 C568 1.369 . S
C569 C578 1.429 . S
C570 C568 1.419 . S
C570 C571 1.363 . S
C570 H573 0.929 . S
C571 C570 1.363 . S
C571 C577 1.428 . S
H572 C568 0.930 . S
H573 C570 0.929 . S
S574 N575 1.613 . S
S574 N576 1.610 . S
N575 S574 1.613 . S
N575 C578 1.350 . S
N576 S574 1.610 . S
N576 C577 1.351 . S
C577 C571 1.428 . S
C577 N576 1.351 . S
C577 C578 1.434 . S
C578 C569 1.429 . S
C578 N575 1.350 . S
C578 C577 1.434 . S
C579 C580 1.369 . S
C579 C581 1.419 1_554 S
C579 H583 0.930 . S
C580 C579 1.369 . S
C580 C589 1.429 . S
C581 C579 1.419 1_556 S
C581 C582 1.363 . S
C581 H584 0.929 . S
C582 C581 1.363 . S
C582 C588 1.428 . S
H583 C579 0.930 . S
H584 C581 0.929 . S
S585 N586 1.613 . S
S585 N587 1.610 1_554 S
N586 S585 1.613 . S
N586 C589 1.350 . S
N587 S585 1.610 1_556 S
N587 C588 1.351 . S
C588 C582 1.428 . S
C588 N587 1.351 . S
C588 C589 1.434 1_556 S
C589 C580 1.429 . S
C589 N586 1.350 . S
C589 C588 1.434 1_554 S
C590 C591 1.369 . S
C590 C592 1.419 . S
C590 H594 0.930 . S
C591 C590 1.369 . S
C591 C600 1.429 . S
C592 C590 1.419 . S
C592 C593 1.363 . S
C592 H595 0.929 . S
C593 C592 1.363 . S
C593 C599 1.428 . S
H594 C590 0.930 . S
H595 C592 0.929 . S
S596 N597 1.613 . S
S596 N598 1.610 . S
N597 S596 1.613 . S
N597 C600 1.350 . S
N598 S596 1.610 . S
N598 C599 1.351 . S
C599 C593 1.428 . S
C599 N598 1.351 . S
C599 C600 1.434 . S
C600 C591 1.429 . S
C600 N597 1.350 . S
C600 C599 1.434 . S
C601 C602 1.369 . S
C601 C603 1.419 . S
C601 H605 0.930 . S
C602 C601 1.369 . S
C602 C611 1.429 . S
C603 C601 1.419 . S
C603 C604 1.363 . S
C603 H606 0.929 . S
C604 C603 1.363 . S
C604 C610 1.428 . S
H605 C601 0.930 . S
H606 C603 0.929 . S
S607 N608 1.613 . S
S607 N609 1.610 . S
N608 S607 1.613 . S
N608 C611 1.350 . S
N609 S607 1.610 . S
N609 C610 1.351 . S
C610 C604 1.428 . S
C610 N609 1.351 . S
C610 C611 1.434 . S
C611 C602 1.429 . S
C611 N608 1.350 . S
C611 C610 1.434 . S
C612 C613 1.369 . S
C612 C614 1.419 1_566 S
C612 H616 0.930 . S
C613 C612 1.369 . S
C613 C622 1.429 . S
C614 C612 1.419 1_544 S
C614 C615 1.363 . S
C614 H617 0.929 . S
C615 C614 1.363 . S
C615 C621 1.428 . S
H616 C612 0.930 . S
H617 C614 0.929 . S
S618 N619 1.613 1_554 S
S618 N620 1.610 1_565 S
N619 S618 1.613 1_556 S
N619 C622 1.350 . S
N620 S618 1.610 1_545 S
N620 C621 1.351 . S
C621 C615 1.428 . S
C621 N620 1.351 . S
C621 C622 1.434 1_544 S
C622 C613 1.429 . S
C622 N619 1.350 . S
C622 C621 1.434 1_566 S
C623 C624 1.369 . S
C623 C625 1.419 . S
C623 H627 0.930 . S
C624 C623 1.369 . S
C624 C633 1.429 . S
C625 C623 1.419 . S
C625 C626 1.363 . S
C625 H628 0.929 . S
C626 C625 1.363 . S
C626 C632 1.428 . S
H627 C623 0.930 . S
H628 C625 0.929 . S
S629 N630 1.613 . S
S629 N631 1.610 . S
N630 S629 1.613 . S
N630 C633 1.350 . S
N631 S629 1.610 . S
N631 C632 1.351 . S
C632 C626 1.428 . S
C632 N631 1.351 . S
C632 C633 1.434 . S
C633 C624 1.429 . S
C633 N630 1.350 . S
C633 C632 1.434 . S
C634 C635 1.369 . S
C634 C636 1.419 1_455 S
C634 H638 0.930 . S
C635 C634 1.369 . S
C635 C644 1.429 . S
C636 C634 1.419 1_655 S
C636 C637 1.363 . S
C636 H639 0.929 . S
C637 C636 1.363 . S
C637 C643 1.428 . S
H638 C634 0.930 . S
H639 C636 0.929 . S
S640 N641 1.613 1_655 S
S640 N642 1.610 . S
N641 S640 1.613 1_455 S
N641 C644 1.350 . S
N642 S640 1.610 . S
N642 C643 1.351 . S
C643 C637 1.428 . S
C643 N642 1.351 . S
C643 C644 1.434 1_655 S
C644 C635 1.429 . S
C644 N641 1.350 . S
C644 C643 1.434 1_455 S
C645 C646 1.369 . S
C645 C647 1.419 1_554 S
C645 H649 0.930 . S
C646 C645 1.369 . S
C646 C655 1.429 1_565 S
C647 C645 1.419 1_556 S
C647 C648 1.363 1_565 S
C647 H650 0.929 . S
C648 C647 1.363 1_545 S
C648 C654 1.428 . S
H649 C645 0.930 . S
H650 C647 0.929 . S
S651 N652 1.613 . S
S651 N653 1.610 1_554 S
N652 S651 1.613 . S
N652 C655 1.350 . S
N653 S651 1.610 1_556 S
N653 C654 1.351 . S
C654 C648 1.428 . S
C654 N653 1.351 . S
C654 C655 1.434 1_556 S
C655 C646 1.429 1_545 S
C655 N652 1.350 . S
C655 C654 1.434 1_554 S
C656 C657 1.369 . S
C656 C658 1.419 . S
C656 H660 0.930 . S
C657 C656 1.369 . S
C657 C666 1.429 . S
C658 C656 1.419 . S
C658 C659 1.363 . S
C658 H661 0.929 . S
C659 C658 1.363 . S
C659 C665 1.428 . S
H660 C656 0.930 . S
H661 C658 0.929 . S
S662 N663 1.613 . S
S662 N664 1.610 . S
N663 S662 1.613 . S
N663 C666 1.350 . S
N664 S662 1.610 . S
N664 C665 1.351 . S
C665 C659 1.428 . S
C665 N664 1.351 . S
C665 C666 1.434 . S
C666 C657 1.429 . S
C666 N663 1.350 . S
C666 C665 1.434 . S
C667 C668 1.369 1_655 S
C667 C669 1.419 . S
C667 H671 0.930 . S
C668 C667 1.369 1_455 S
C668 C677 1.429 . S
C669 C667 1.419 . S
C669 C670 1.363 . S
C669 H672 0.929 . S
C670 C669 1.363 . S
C670 C676 1.428 1_655 S
H671 C667 0.930 . S
H672 C669 0.929 . S
S673 N674 1.613 . S
S673 N675 1.610 . S
N674 S673 1.613 . S
N674 C677 1.350 . S
N675 S673 1.610 . S
N675 C676 1.351 . S
C676 C670 1.428 1_455 S
C676 N675 1.351 . S
C676 C677 1.434 . S
C677 C668 1.429 . S
C677 N674 1.350 . S
C677 C676 1.434 . S
C678 C679 1.369 1_565 S
C678 C680 1.419 . S
C678 H682 0.930 . S
C679 C678 1.369 1_545 S
C679 C688 1.429 . S
C680 C678 1.419 . S
C680 C681 1.363 . S
C680 H683 0.929 . S
C681 C680 1.363 . S
C681 C687 1.428 1_565 S
H682 C678 0.930 . S
H683 C680 0.929 . S
S684 N685 1.613 . S
S684 N686 1.610 . S
N685 S684 1.613 . S
N685 C688 1.350 . S
N686 S684 1.610 . S
N686 C687 1.351 . S
C687 C681 1.428 1_545 S
C687 N686 1.351 . S
C687 C688 1.434 . S
C688 C679 1.429 . S
C688 N685 1.350 . S
C688 C687 1.434 . S
C689 C690 1.369 . S
C689 C691 1.419 . S
C689 H693 0.930 . S
C690 C689 1.369 . S
C690 C699 1.429 . S
C691 C689 1.419 . S
C691 C692 1.363 . S
C691 H694 0.929 . S
C692 C691 1.363 . S
C692 C698 1.428 . S
H693 C689 0.930 . S
H694 C691 0.929 . S
S695 N696 1.613 . S
S695 N697 1.610 . S
N696 S695 1.613 . S
N696 C699 1.350 . S
N697 S695 1.610 . S
N697 C698 1.351 . S
C698 C692 1.428 . S
C698 N697 1.351 . S
C698 C699 1.434 . S
C699 C690 1.429 . S
C699 N696 1.350 . S
C699 C698 1.434 . S
C700 C701 1.369 1_455 S
C700 C702 1.419 . S
C700 H704 0.930 . S
C701 C700 1.369 1_655 S
C701 C710 1.429 . S
C702 C700 1.419 . S
C702 C703 1.363 . S
C702 H705 0.929 . S
C703 C702 1.363 . S
C703 C709 1.428 1_455 S
H704 C700 0.930 . S
H705 C702 0.929 . S
S706 N707 1.613 1_554 S
S706 N708 1.610 1_554 S
N707 S706 1.613 1_556 S
N707 C710 1.350 . S
N708 S706 1.610 1_556 S
N708 C709 1.351 . S
C709 C703 1.428 1_655 S
C709 N708 1.351 . S
C709 C710 1.434 . S
C710 C701 1.429 . S
C710 N707 1.350 . S
C710 C709 1.434 . S
C711 C712 1.369 1_655 S
C711 C713 1.419 . S
C711 H715 0.930 . S
C712 C711 1.369 1_455 S
C712 C721 1.429 . S
C713 C711 1.419 . S
C713 C714 1.363 . S
C713 H716 0.929 . S
C714 C713 1.363 . S
C714 C720 1.428 1_655 S
H715 C711 0.930 . S
H716 C713 0.929 . S
S717 N718 1.613 . S
S717 N719 1.610 . S
N718 S717 1.613 . S
N718 C721 1.350 . S
N719 S717 1.610 . S
N719 C720 1.351 . S
C720 C714 1.428 1_455 S
C720 N719 1.351 . S
C720 C721 1.434 . S
C721 C712 1.429 . S
C721 N718 1.350 . S
C721 C720 1.434 . S
C722 C723 1.369 . S
C722 C724 1.419 1_565 S
C722 H726 0.930 . S
C723 C722 1.369 . S
C723 C732 1.429 . S
C724 C722 1.419 1_545 S
C724 C725 1.363 . S
C724 H727 0.929 . S
C725 C724 1.363 . S
C725 C731 1.428 . S
H726 C722 0.930 . S
H727 C724 0.929 . S
S728 N729 1.613 1_545 S
S728 N730 1.610 . S
N729 S728 1.613 1_565 S
N729 C732 1.350 . S
N730 S728 1.610 . S
N730 C731 1.351 . S
C731 C725 1.428 . S
C731 N730 1.351 . S
C731 C732 1.434 1_545 S
C732 C723 1.429 . S
C732 N729 1.350 . S
C732 C731 1.434 1_565 S
C733 C734 1.369 . S
C733 C735 1.419 . S
C733 H737 0.930 . S
C734 C733 1.369 . S
C734 C743 1.429 . S
C735 C733 1.419 . S
C735 C736 1.363 . S
C735 H738 0.929 . S
C736 C735 1.363 . S
C736 C742 1.428 . S
H737 C733 0.930 . S
H738 C735 0.929 . S
S739 N740 1.613 1_556 S
S739 N741 1.610 1_556 S
N740 S739 1.613 1_554 S
N740 C743 1.350 . S
N741 S739 1.610 1_554 S
N741 C742 1.351 . S
C742 C736 1.428 . S
C742 N741 1.351 . S
C742 C743 1.434 . S
C743 C734 1.429 . S
C743 N740 1.350 . S
C743 C742 1.434 . S
C744 C745 1.369 . S
C744 C746 1.419 1_565 S
C744 H748 0.930 . S
C745 C744 1.369 . S
C745 C754 1.429 . S
C746 C744 1.419 1_545 S
C746 C747 1.363 . S
C746 H749 0.929 . S
C747 C746 1.363 . S
C747 C753 1.428 . S
H748 C744 0.930 . S
H749 C746 0.929 . S
S750 N751 1.613 1_545 S
S750 N752 1.610 . S
N751 S750 1.613 1_565 S
N751 C754 1.350 . S
N752 S750 1.610 . S
N752 C753 1.351 . S
C753 C747 1.428 . S
C753 N752 1.351 . S
C753 C754 1.434 1_545 S
C754 C745 1.429 . S
C754 N751 1.350 . S
C754 C753 1.434 1_565 S
C755 C756 1.369 . S
C755 C757 1.419 . S
C755 H759 0.930 . S
C756 C755 1.369 . S
C756 C765 1.429 . S
C757 C755 1.419 . S
C757 C758 1.363 . S
C757 H760 0.929 . S
C758 C757 1.363 . S
C758 C764 1.428 . S
H759 C755 0.930 . S
H760 C757 0.929 . S
S761 N762 1.613 . S
S761 N763 1.610 . S
N762 S761 1.613 . S
N762 C765 1.350 . S
N763 S761 1.610 . S
N763 C764 1.351 . S
C764 C758 1.428 . S
C764 N763 1.351 . S
C764 C765 1.434 . S
C765 C756 1.429 . S
C765 N762 1.350 . S
C765 C764 1.434 . S
C766 C767 1.369 . S
C766 C768 1.419 1_655 S
C766 H770 0.930 . S
C767 C766 1.369 . S
C767 C776 1.429 . S
C768 C766 1.419 1_455 S
C768 C769 1.363 . S
C768 H771 0.929 . S
C769 C768 1.363 . S
C769 C775 1.428 . S
H770 C766 0.930 . S
H771 C768 0.929 . S
S772 N773 1.613 . S
S772 N774 1.610 1_655 S
N773 S772 1.613 . S
N773 C776 1.350 . S
N774 S772 1.610 1_455 S
N774 C775 1.351 . S
C775 C769 1.428 . S
C775 N774 1.351 . S
C775 C776 1.434 1_455 S
C776 C767 1.429 . S
C776 N773 1.350 . S
C776 C775 1.434 1_655 S
C777 C778 1.369 . S
C777 C779 1.419 1_545 S
C777 H781 0.930 . S
C778 C777 1.369 . S
C778 C787 1.429 . S
C779 C777 1.419 1_565 S
C779 C780 1.363 . S
C779 H782 0.929 . S
C780 C779 1.363 . S
C780 C786 1.428 . S
H781 C777 0.930 . S
H782 C779 0.929 . S
S783 N784 1.613 . S
S783 N785 1.610 1_545 S
N784 S783 1.613 . S
N784 C787 1.350 . S
N785 S783 1.610 1_565 S
N785 C786 1.351 . S
C786 C780 1.428 . S
C786 N785 1.351 . S
C786 C787 1.434 1_565 S
C787 C778 1.429 . S
C787 N784 1.350 . S
C787 C786 1.434 1_545 S
C788 C789 1.369 . S
C788 C790 1.419 . S
C788 H792 0.930 . S
C789 C788 1.369 . S
C789 C798 1.429 . S
C790 C788 1.419 . S
C790 C791 1.363 . S
C790 H793 0.929 . S
C791 C790 1.363 . S
C791 C797 1.428 . S
H792 C788 0.930 . S
H793 C790 0.929 . S
S794 N795 1.613 . S
S794 N796 1.610 . S
N795 S794 1.613 . S
N795 C798 1.350 . S
N796 S794 1.610 . S
N796 C797 1.351 . S
C797 C791 1.428 . S
C797 N796 1.351 . S
C797 C798 1.434 . S
C798 C789 1.429 . S
C798 N795 1.350 . S
C798 C797 1.434 . S
C799 C800 1.369 . S
C799 C801 1.419 1_455 S
C799 H803 0.930 . S
C800 C799 1.369 . S
C800 C809 1.429 . S
C801 C799 1.419 1_655 S
C801 C802 1.363 . S
C801 H804 0.929 . S
C802 C801 1.363 . S
C802 C808 1.428 . S
H803 C799 0.930 . S
H804 C801 0.929 . S
S805 N806 1.613 . S
S805 N807 1.610 1_455 S
N806 S805 1.613 . S
N806 C809 1.350 . S
N807 S805 1.610 1_655 S
N807 C808 1.351 . S
C808 C802 1.428 . S
C808 N807 1.351 . S
C808 C809 1.434 1_655 S
C809 C800 1.429 . S
C809 N806 1.350 . S
C809 C808 1.434 1_455 S
C810 C811 1.369 . S
C810 C812 1.419 . S
C810 H814 0.930 . S
C811 C810 1.369 . S
C811 C820 1.429 . S
C812 C810 1.419 . S
C812 C813 1.363 . S
C812 H815 0.929 . S
C813 C812 1.363 . S
C813 C819 1.428 . S
H814 C810 0.930 . S
H815 C812 0.929 . S
S816 N817 1.613 . S
S816 N818 1.610 . S
N817 S816 1.613 . S
N817 C820 1.350 . S
N818 S816 1.610 . S
N818 C819 1.351 . S
C819 C813 1.428 . S
C819 N818 1.351 . S
C819 C820 1.434 . S
C820 C811 1.429 . S
C820 N817 1.350 . S
C820 C819 1.434 . S
C821 C822 1.369 . S
C821 C823 1.419 . S
C821 H825 0.930 . S
C822 C821 1.369 . S
C822 C831 1.429 . S
C823 C821 1.419 . S
C823 C824 1.363 . S
C823 H826 0.929 . S
C824 C823 1.363 . S
C824 C830 1.428 . S
H825 C821 0.930 . S
H826 C823 0.929 . S
S827 N828 1.613 . S
S827 N829 1.610 . S
N828 S827 1.613 . S
N828 C831 1.350 . S
N829 S827 1.610 . S
N829 C830 1.351 . S
C830 C824 1.428 . S
C830 N829 1.351 . S
C830 C831 1.434 . S
C831 C822 1.429 . S
C831 N828 1.350 . S
C831 C830 1.434 . S
C832 C833 1.369 . S
C832 C834 1.419 . S
C832 H836 0.930 . S
C833 C832 1.369 . S
C833 C842 1.429 . S
C834 C832 1.419 . S
C834 C835 1.363 . S
C834 H837 0.929 . S
C835 C834 1.363 . S
C835 C841 1.428 . S
H836 C832 0.930 . S
H837 C834 0.929 . S
S838 N839 1.613 . S
S838 N840 1.610 . S
N839 S838 1.613 . S
N839 C842 1.350 . S
N840 S838 1.610 . S
N840 C841 1.351 . S
C841 C835 1.428 . S
C841 N840 1.351 . S
C841 C842 1.434 . S
C842 C833 1.429 . S
C842 N839 1.350 . S
C842 C841 1.434 . S
C843 C844 1.369 . S
C843 C845 1.419 . S
C843 H847 0.930 . S
C844 C843 1.369 . S
C844 C853 1.429 . S
C845 C843 1.419 . S
C845 C846 1.363 . S
C845 H848 0.929 . S
C846 C845 1.363 . S
C846 C852 1.428 . S
H847 C843 0.930 . S
H848 C845 0.929 . S
S849 N850 1.613 . S
S849 N851 1.610 . S
N850 S849 1.613 . S
N850 C853 1.350 . S
N851 S849 1.610 . S
N851 C852 1.351 . S
C852 C846 1.428 . S
C852 N851 1.351 . S
C852 C853 1.434 . S
C853 C844 1.429 . S
C853 N850 1.350 . S
C853 C852 1.434 . S
C854 C855 1.369 . S
C854 C856 1.419 . S
C854 H858 0.930 . S
C855 C854 1.369 . S
C855 C864 1.429 . S
C856 C854 1.419 . S
C856 C857 1.363 . S
C856 H859 0.929 . S
C857 C856 1.363 . S
C857 C863 1.428 . S
H858 C854 0.930 . S
H859 C856 0.929 . S
S860 N861 1.613 . S
S860 N862 1.610 . S
N861 S860 1.613 . S
N861 C864 1.350 . S
N862 S860 1.610 . S
N862 C863 1.351 . S
C863 C857 1.428 . S
C863 N862 1.351 . S
C863 C864 1.434 . S
C864 C855 1.429 . S
C864 N861 1.350 . S
C864 C863 1.434 . S
C865 C866 1.369 . S
C865 C867 1.419 . S
C865 H869 0.930 . S
C866 C865 1.369 . S
C866 C875 1.429 . S
C867 C865 1.419 . S
C867 C868 1.363 . S
C867 H870 0.929 . S
C868 C867 1.363 . S
C868 C874 1.428 . S
H869 C865 0.930 . S
H870 C867 0.929 . S
S871 N872 1.613 . S
S871 N873 1.610 . S
N872 S871 1.613 . S
N872 C875 1.350 . S
N873 S871 1.610 . S
N873 C874 1.351 . S
C874 C868 1.428 . S
C874 N873 1.351 . S
C874 C875 1.434 . S
C875 C866 1.429 . S
C875 N872 1.350 . S
C875 C874 1.434 . S
C481 C10 1.304 . S
C483 C330 1.315 . S
C492 C50 1.317 . S
C494 C370 1.309 . S
C503 C90 1.318 . S
C505 C410 1.306 . S
C514 C450 1.315 . S
C516 C130 1.305 . S
C525 C170 1.311 . S
C527 C250 1.307 . S
C536 C290 1.318 . S
C538 C210 1.309 . S
C547 C416 1.375 . S
C549 C16 1.372 . S
C558 C456 1.377 . S
C560 C56 1.371 . S
C569 C96 1.376 . S
C571 C256 1.378 . S
C580 C296 1.372 . S
C582 C136 1.374 . S
C591 C336 1.373 . S
C593 C176 1.373 . S
C602 C216 1.376 . S
C604 C376 1.379 . S
C613 C291 4.397 . S
C615 C11 4.396 . S
C624 C331 4.396 . S
C626 C51 4.397 . S
C635 C371 4.397 . S
C637 C91 4.398 . S
C646 C131 4.396 . S
C648 C411 4.397 . S
C657 C171 4.397 . S
C659 C451 4.398 . S
C668 C211 4.399 . S
C670 C251 4.397 . S
C679 C19 1.156 . S
C681 C139 1.166 . S
C690 C59 1.153 . S
C692 C179 1.163 . S
C701 C99 1.157 . S
C703 C219 1.166 . S
C712 C379 1.153 . S
C714 C259 1.163 . S
C723 C299 1.163 . S
C725 C419 1.164 . S
C734 C459 1.166 . S
C736 C339 1.161 . S
C745 C287 0.808 . S
C747 C7 0.784 . S
C756 C327 0.807 . S
C758 C47 0.796 . S
C767 C87 0.784 . S
C769 C367 0.809 . S
C778 C407 0.780 . S
C780 C127 0.805 . S
C789 C447 0.780 . S
C791 C167 0.805 . S
C800 C207 0.780 . S
C802 C247 0.807 . S
C811 C2 4.810 . S
C813 C402 4.811 . S
C822 C42 4.811 . S
C824 C442 4.811 1_556 S
C833 C82 4.811 1_554 S
C835 C242 4.811 . S
C844 C122 4.811 . S
C846 C282 4.811 . S
C855 C162 4.811 . S
C857 C322 4.811 1_556 S
C866 C362 4.811 . S
C868 C202 4.811 1_554 S
