# Generated by pormake.
# Topology wjd, (6)-cn, num edge types: 1
# Building blocks:
#     Node 0, Type 0, BuildingBlock: BETDIP_clean_sbu_0, # of connection points: 6
#     Node 1, Type 0, BuildingBlock: BETDIP_clean_sbu_0, # of connection points: 6
#     Node 2, Type 0, BuildingBlock: BETDIP_clean_sbu_0, # of connection points: 6
#     Node 3, Type 0, BuildingBlock: BETDIP_clean_sbu_0, # of connection points: 6
#     Node 4, Type 0, BuildingBlock: BETDIP_clean_sbu_0, # of connection points: 6
#     Node 5, Type 0, BuildingBlock: BETDIP_clean_sbu_0, # of connection points: 6
#     Node 6, Type 0, BuildingBlock: BETDIP_clean_sbu_0, # of connection points: 6
#     Node 7, Type 0, BuildingBlock: BETDIP_clean_sbu_0, # of connection points: 6
#     Node 8, Type 0, BuildingBlock: BETDIP_clean_sbu_0, # of connection points: 6
#     Node 9, Type 0, BuildingBlock: BETDIP_clean_sbu_0, # of connection points: 6
#     Node 10, Type 0, BuildingBlock: BETDIP_clean_sbu_0, # of connection points: 6
#     Node 11, Type 0, BuildingBlock: BETDIP_clean_sbu_0, # of connection points: 6
#     Edge 12, Type (0, 0), BuildingBlock: MIFKUJ_clean_linker_0, # of connection points: 2
#     Edge 13, Type (0, 0), BuildingBlock: MIFKUJ_clean_linker_0, # of connection points: 2
#     Edge 14, Type (0, 0), BuildingBlock: MIFKUJ_clean_linker_0, # of connection points: 2
#     Edge 15, Type (0, 0), BuildingBlock: MIFKUJ_clean_linker_0, # of connection points: 2
#     Edge 16, Type (0, 0), BuildingBlock: MIFKUJ_clean_linker_0, # of connection points: 2
#     Edge 17, Type (0, 0), BuildingBlock: MIFKUJ_clean_linker_0, # of connection points: 2
#     Edge 18, Type (0, 0), BuildingBlock: MIFKUJ_clean_linker_0, # of connection points: 2
#     Edge 19, Type (0, 0), BuildingBlock: MIFKUJ_clean_linker_0, # of connection points: 2
#     Edge 20, Type (0, 0), BuildingBlock: MIFKUJ_clean_linker_0, # of connection points: 2
#     Edge 21, Type (0, 0), BuildingBlock: MIFKUJ_clean_linker_0, # of connection points: 2
#     Edge 22, Type (0, 0), BuildingBlock: MIFKUJ_clean_linker_0, # of connection points: 2
#     Edge 23, Type (0, 0), BuildingBlock: MIFKUJ_clean_linker_0, # of connection points: 2
#     Edge 24, Type (0, 0), BuildingBlock: MIFKUJ_clean_linker_0, # of connection points: 2
#     Edge 25, Type (0, 0), BuildingBlock: MIFKUJ_clean_linker_0, # of connection points: 2
#     Edge 26, Type (0, 0), BuildingBlock: MIFKUJ_clean_linker_0, # of connection points: 2
#     Edge 27, Type (0, 0), BuildingBlock: MIFKUJ_clean_linker_0, # of connection points: 2
#     Edge 28, Type (0, 0), BuildingBlock: MIFKUJ_clean_linker_0, # of connection points: 2
#     Edge 29, Type (0, 0), BuildingBlock: MIFKUJ_clean_linker_0, # of connection points: 2
#     Edge 30, Type (0, 0), BuildingBlock: MIFKUJ_clean_linker_0, # of connection points: 2
#     Edge 31, Type (0, 0), BuildingBlock: MIFKUJ_clean_linker_0, # of connection points: 2
#     Edge 32, Type (0, 0), BuildingBlock: MIFKUJ_clean_linker_0, # of connection points: 2
#     Edge 33, Type (0, 0), BuildingBlock: MIFKUJ_clean_linker_0, # of connection points: 2
#     Edge 34, Type (0, 0), BuildingBlock: MIFKUJ_clean_linker_0, # of connection points: 2
#     Edge 35, Type (0, 0), BuildingBlock: MIFKUJ_clean_linker_0, # of connection points: 2
#     Edge 36, Type (0, 0), BuildingBlock: MIFKUJ_clean_linker_0, # of connection points: 2
#     Edge 37, Type (0, 0), BuildingBlock: MIFKUJ_clean_linker_0, # of connection points: 2
#     Edge 38, Type (0, 0), BuildingBlock: MIFKUJ_clean_linker_0, # of connection points: 2
#     Edge 39, Type (0, 0), BuildingBlock: MIFKUJ_clean_linker_0, # of connection points: 2
#     Edge 40, Type (0, 0), BuildingBlock: MIFKUJ_clean_linker_0, # of connection points: 2
#     Edge 41, Type (0, 0), BuildingBlock: MIFKUJ_clean_linker_0, # of connection points: 2
#     Edge 42, Type (0, 0), BuildingBlock: MIFKUJ_clean_linker_0, # of connection points: 2
#     Edge 43, Type (0, 0), BuildingBlock: MIFKUJ_clean_linker_0, # of connection points: 2
#     Edge 44, Type (0, 0), BuildingBlock: MIFKUJ_clean_linker_0, # of connection points: 2
#     Edge 45, Type (0, 0), BuildingBlock: MIFKUJ_clean_linker_0, # of connection points: 2
#     Edge 46, Type (0, 0), BuildingBlock: MIFKUJ_clean_linker_0, # of connection points: 2
#     Edge 47, Type (0, 0), BuildingBlock: MIFKUJ_clean_linker_0, # of connection points: 2
# Relax obj value: 0.099
# Max RMSD: 0.201
# Mean RMSD: 0.201
data_MOF--net-wjd--node1-BETDIP_clean_sbu_0--edge1-MIFKUJ_clean_linker_0
_symmetry_space_group_name_H-M    P1
_symmetry_Int_Tables_number       1
_symmetry_cell_setting            triclinic
loop_
_symmetry_equiv_pos_as_xyz
'x, y, z'
_cell_length_a     49.528604
_cell_length_b     49.55349
_cell_length_c     69.847138
_cell_angle_alpha  89.900814
_cell_angle_beta   89.940012
_cell_angle_gamma 120.04248
loop_
_atom_site_label
_atom_site_type_symbol
_atom_site_fract_x
_atom_site_fract_y
_atom_site_fract_z
_atom_type_partial_charge
Tb0 Tb 0.36488 0.17165 0.11703 0.0
Tb1 Tb 0.32805 0.10402 0.12967 0.0
C2 C 0.40369 0.22821 0.11014 0.0
C3 C 0.43579 0.25497 0.11241 0.0
C4 C 0.45178 0.26304 0.13 0.0
C5 C 0.48038 0.29113 0.13178 0.0
C6 C 0.49303 0.31167 0.1161 0.0
C7 C 0.47753 0.30286 0.09845 0.0
C8 C 0.4494 0.27479 0.09661 0.0
C9 C 0.33844 0.12827 0.08944 0.0
C10 C 0.40109 0.1365 0.12797 0.0
C11 C 0.2873 0.04812 0.12452 0.0
C12 C 0.25327 0.02879 0.1283 0.0
C13 C 0.23165 0.02947 0.11551 0.0
C14 C 0.1997 1.00882 0.11763 0.0
C15 C 0.18833 0.98705 0.13271 0.0
C16 C 0.20986 0.98764 0.14614 0.0
C17 C 0.24195 1.00808 0.14387 0.0
C18 C 0.3421 0.13719 0.16136 0.0
C19 C 0.29561 0.1467 0.12577 0.0
O20 O 0.38492 0.21872 0.12497 0.0
O21 O 0.39974 0.20522 0.09911 0.0
O22 O 0.352 0.12733 0.10443 0.0
O23 O 0.33936 0.15488 0.08939 0.0
O24 O 0.40088 0.16302 0.12759 0.0
O25 O 0.37483 0.10896 0.12756 0.0
O26 O 0.29517 0.07015 0.11174 0.0
O27 O 0.30661 0.05725 0.13913 0.0
O28 O 0.34949 0.1482 0.14434 0.0
O29 O 0.32757 0.10704 0.16052 0.0
O30 O 0.29258 0.11862 0.12749 0.0
O31 O 0.32272 0.17197 0.12301 0.0
H32 H 0.44177 0.24821 0.14245 0.0
H33 H 0.49187 0.29745 0.14557 0.0
H34 H 0.48686 0.31813 0.08612 0.0
H35 H 0.43757 0.26913 0.08292 0.0
H36 H 0.23938 0.04501 0.10326 0.0
H37 H 0.18418 1.00898 0.10678 0.0
H38 H 0.20204 0.97191 0.15828 0.0
H39 H 0.25792 1.00718 0.15408 0.0
Tb40 Tb 0.79704 0.69929 0.39606 0.0
Tb41 Tb 0.82612 0.66061 0.40898 0.0
C42 C 0.78246 0.74055 0.40067 0.0
C43 C 0.79714 0.77445 0.39656 0.0
C44 C 0.82217 0.79636 0.40777 0.0
C45 C 0.83334 0.82827 0.40569 0.0
C46 C 0.81985 0.83928 0.39235 0.0
C47 C 0.79615 0.81744 0.38031 0.0
C48 C 0.78481 0.78541 0.38248 0.0
C49 C 0.81682 0.6849 0.36468 0.0
C50 C 0.8716 0.73016 0.40074 0.0
C51 C 0.84391 0.62167 0.41528 0.0
C52 C 0.83791 0.58937 0.41245 0.0
C53 C 0.84239 0.57909 0.39457 0.0
C54 C 0.84241 0.55085 0.39306 0.0
C55 C 0.83762 0.5322 0.40932 0.0
C56 C 0.83175 0.54171 0.42699 0.0
C57 C 0.8321 0.57008 0.42855 0.0
C58 C 0.81 0.68801 0.43642 0.0
C59 C 0.75462 0.62629 0.3981 0.0
O60 O 0.79675 0.73299 0.4135 0.0
O61 O 0.77204 0.72087 0.38626 0.0
O62 O 0.81922 0.67694 0.38175 0.0
O63 O 0.8027 0.7009 0.36522 0.0
O64 O 0.84695 0.73389 0.39955 0.0
O65 O 0.86899 0.70258 0.40278 0.0
O66 O 0.85315 0.6408 0.40062 0.0
O67 O 0.82526 0.62575 0.42667 0.0
O68 O 0.79564 0.67498 0.4213 0.0
O69 O 0.83487 0.68556 0.43681 0.0
O70 O 0.78039 0.62478 0.39958 0.0
O71 O 0.75458 0.65317 0.39798 0.0
H72 H 0.83243 0.78894 0.41879 0.0
H73 H 0.85141 0.84409 0.41534 0.0
H74 H 0.78583 0.82499 0.36941 0.0
H75 H 0.76579 0.76918 0.37349 0.0
H76 H 0.84715 0.59339 0.38189 0.0
H77 H 0.84699 0.54395 0.37928 0.0
H78 H 0.8284 0.52792 0.43976 0.0
H79 H 0.82917 0.5776 0.44257 0.0
Tb80 Tb 0.8562 0.20038 0.11819 0.0
Tb81 Tb 0.92317 0.23008 0.12827 0.0
C82 C 0.79986 0.18386 0.11137 0.0
C83 C 0.77314 0.18894 0.11501 0.0
C84 C 0.75825 0.18294 0.13294 0.0
C85 C 0.72994 0.18274 0.135 0.0
C86 C 0.71575 0.18836 0.11917 0.0
C87 C 0.73142 0.1956 0.10146 0.0
C88 C 0.75967 0.19584 0.09943 0.0
C89 C 0.89729 0.21649 0.08919 0.0
C90 C 0.89196 0.27119 0.12939 0.0
C91 C 0.97871 0.24509 0.12144 0.0
C92 C 0.99867 0.23097 0.1246 0.0
C93 C 1.00475 0.21679 0.10905 0.0
C94 C 0.02582 0.20604 0.11076 0.0
C95 C 0.04102 0.20866 0.12817 0.0
C96 C 0.0336 0.22102 0.14413 0.0
C97 C 1.01273 0.2323 0.14234 0.0
C98 C 0.89456 0.21361 0.16159 0.0
C99 C 0.88023 0.15518 0.12573 0.0
O100 O 0.8087 0.17166 0.12491 0.0
O101 O 0.82342 0.20494 0.10144 0.0
O102 O 0.899 0.23156 0.10395 0.0
O103 O 0.87163 0.19002 0.09042 0.0
O104 O 0.86541 0.24451 0.13044 0.0
O105 O 0.91882 0.27203 0.12614 0.0
O106 O 0.95565 0.2298 0.10952 0.0
O107 O 0.97063 0.25606 0.13615 0.0
O108 O 0.88028 0.20868 0.14549 0.0
O109 O 0.92434 0.22841 0.1587 0.0
O110 O 0.90847 0.18013 0.12598 0.0
O111 O 0.85501 0.15744 0.12443 0.0
H112 H 0.76791 0.17743 0.14524 0.0
H113 H 0.71887 0.17762 0.14894 0.0
H114 H 0.72121 0.19977 0.0889 0.0
H115 H 0.77037 0.20015 0.08538 0.0
H116 H 0.99416 0.21516 0.09521 0.0
H117 H 0.03075 0.19623 0.09829 0.0
H118 H 0.04492 0.22316 0.15776 0.0
H119 H 1.00821 0.24266 0.15469 0.0
Tb120 Tb 0.3277 0.10311 0.39629 0.0
Tb121 Tb 0.36663 0.1712 0.40853 0.0
C122 C 0.28715 0.04678 0.4009 0.0
C123 C 0.25299 0.02717 0.39776 0.0
C124 C 0.23186 0.02537 0.41197 0.0
C125 C 0.19986 1.00491 0.41005 0.0
C126 C 0.18826 0.98543 0.39405 0.0
C127 C 0.20902 0.98762 0.37959 0.0
C128 C 0.24111 1.00846 0.38137 0.0
C129 C 0.34321 0.13656 0.3645 0.0
C130 C 0.29703 0.14718 0.40023 0.0
C131 C 0.40639 0.22749 0.41519 0.0
C132 C 0.43891 0.25354 0.41282 0.0
C133 C 0.45377 0.26275 0.39491 0.0
C134 C 0.48293 0.29014 0.39315 0.0
C135 C 0.49773 0.30921 0.40921 0.0
C136 C 0.48302 0.29908 0.42717 0.0
C137 C 0.4542 0.27163 0.42892 0.0
C138 C 0.33794 0.12838 0.43619 0.0
C139 C 0.40055 0.13356 0.39784 0.0
O140 O 0.29541 0.06822 0.414 0.0
O141 O 0.30582 0.05681 0.38596 0.0
O142 O 0.35058 0.14734 0.38151 0.0
O143 O 0.3277 0.10643 0.36542 0.0
O144 O 0.29313 0.11874 0.39867 0.0
O145 O 0.32453 0.17218 0.40274 0.0
O146 O 0.38769 0.21832 0.40035 0.0
O147 O 0.40173 0.20433 0.42636 0.0
O148 O 0.35159 0.12655 0.42148 0.0
O149 O 0.34098 0.15588 0.43623 0.0
O150 O 0.40204 0.1609 0.39844 0.0
O151 O 0.37368 0.10674 0.39882 0.0
H152 H 0.24003 0.03909 0.42491 0.0
H153 H 0.18431 1.00332 0.42148 0.0
H154 H 0.20045 0.97276 0.36711 0.0
H155 H 0.25666 1.00925 0.37019 0.0
H156 H 0.44258 0.24924 0.38222 0.0
H157 H 0.49358 0.29651 0.37911 0.0
H158 H 0.49296 0.31297 0.4399 0.0
H159 H 0.44316 0.26519 0.44288 0.0
Tb160 Tb 0.82775 0.66206 0.11775 0.0
Tb161 Tb 0.79638 0.69878 0.13003 0.0
C162 C 0.84488 0.62285 0.11049 0.0
C163 C 0.83908 0.59052 0.11312 0.0
C164 C 0.84041 0.57841 0.13112 0.0
C165 C 0.83975 0.54972 0.13252 0.0
C166 C 0.83789 0.53254 0.11597 0.0
C167 C 0.83511 0.54422 0.09813 0.0
C168 C 0.83584 0.57276 0.09675 0.0
C169 C 0.81208 0.68951 0.09015 0.0
C170 C 0.75666 0.62575 0.12963 0.0
C171 C 0.77926 0.73828 0.12523 0.0
C172 C 0.79336 0.77258 0.12718 0.0
C173 C 0.79744 0.79019 0.11055 0.0
C174 C 0.8094 0.82232 0.11152 0.0
C175 C 0.81757 0.83786 0.1292 0.0
C176 C 0.81477 0.82057 0.14586 0.0
C177 C 0.80269 0.78815 0.14488 0.0
C178 C 0.81638 0.68511 0.16169 0.0
C179 C 0.8714 0.73115 0.12641 0.0
O180 O 0.85552 0.64238 0.12488 0.0
O181 O 0.8252 0.62667 0.09995 0.0
O182 O 0.7966 0.67519 0.10476 0.0
O183 O 0.83787 0.68882 0.0905 0.0
O184 O 0.78371 0.6266 0.12943 0.0
O185 O 0.75491 0.65169 0.12833 0.0
O186 O 0.79169 0.72955 0.11185 0.0
O187 O 0.77239 0.72087 0.14067 0.0
O188 O 0.81943 0.67767 0.14466 0.0
O189 O 0.8014 0.70025 0.16101 0.0
O190 O 0.84625 0.73427 0.12612 0.0
O191 O 0.86955 0.70378 0.12544 0.0
H192 H 0.84303 0.59154 0.14404 0.0
H193 H 0.84207 0.54173 0.14653 0.0
H194 H 0.83289 0.53156 0.08506 0.0
H195 H 0.83493 0.58152 0.08268 0.0
H196 H 0.79093 0.77895 0.09668 0.0
H197 H 0.81189 0.835 0.09838 0.0
H198 H 0.8209 0.8319 0.1597 0.0
H199 H 0.80025 0.7753 0.15795 0.0
Tb200 Tb 0.92421 0.23102 0.39745 0.0
Tb201 Tb 0.85645 0.19981 0.40799 0.0
C202 C 0.98091 0.24832 0.40272 0.0
C203 C 1.0012 0.23428 0.40019 0.0
C204 C 1.006 0.21914 0.41577 0.0
C205 C 0.02644 0.20752 0.41435 0.0
C206 C 0.04331 0.21115 0.39741 0.0
C207 C 0.03781 0.22539 0.38154 0.0
C208 C 0.01698 0.23683 0.38292 0.0
C209 C 0.89437 0.21422 0.36441 0.0
C210 C 0.88162 0.156 0.39989 0.0
C211 C 0.7999 0.18283 0.41501 0.0
C212 C 0.77317 0.18836 0.41226 0.0
C213 C 0.7582 0.18426 0.3945 0.0
C214 C 0.73009 0.1848 0.39319 0.0
C215 C 0.71613 0.18933 0.4096 0.0
C216 C 0.73195 0.19462 0.42716 0.0
C217 C 0.75988 0.19402 0.42846 0.0
C218 C 0.89788 0.2145 0.43662 0.0
C219 C 0.89128 0.2709 0.39762 0.0
O220 O 0.95917 0.23506 0.41572 0.0
O221 O 0.97088 0.25628 0.38754 0.0
O222 O 0.881 0.20918 0.38084 0.0
O223 O 0.9242 0.22892 0.36685 0.0
O224 O 0.90984 0.1811 0.40078 0.0
O225 O 0.85621 0.15803 0.40025 0.0
O226 O 0.80893 0.17196 0.40081 0.0
O227 O 0.82335 0.20274 0.42543 0.0
O228 O 0.89957 0.23053 0.42224 0.0
O229 O 0.87182 0.18841 0.43538 0.0
O230 O 0.86529 0.24385 0.39635 0.0
O231 O 0.91876 0.27249 0.39974 0.0
H232 H 0.99433 0.21667 0.42932 0.0
H233 H 0.02927 0.19599 0.42673 0.0
H234 H 0.05039 0.22874 0.36826 0.0
H235 H 1.01383 0.24828 0.37061 0.0
H236 H 0.76758 0.17959 0.38174 0.0
H237 H 0.7187 0.18038 0.3794 0.0
H238 H 0.72256 0.19885 0.44008 0.0
H239 H 0.77064 0.197 0.44238 0.0
Tb240 Tb 0.10757 0.32148 0.63053 0.0
Tb241 Tb 0.17548 0.36106 0.61759 0.0
C242 C 0.05182 0.27987 0.62595 0.0
C243 C 0.033 0.24585 0.62969 0.0
C244 C 0.03732 0.22461 0.61854 0.0
C245 C 0.01691 0.19256 0.6202 0.0
C246 C 0.99168 0.18093 0.63299 0.0
C247 C 0.98842 0.20192 0.64497 0.0
C248 C 1.00883 0.23411 0.64327 0.0
C249 C 0.14206 0.3365 0.66182 0.0
C250 C 0.15204 0.29148 0.62559 0.0
C251 C 0.23202 0.40082 0.61126 0.0
C252 C 0.25804 0.43322 0.61417 0.0
C253 C 0.26904 0.44572 0.63245 0.0
C254 C 0.29669 0.47452 0.63448 0.0
C255 C 0.31418 0.49137 0.6183 0.0
C256 C 0.3023 0.47919 0.60006 0.0
C257 C 0.27464 0.45061 0.59805 0.0
C258 C 0.13194 0.33367 0.59011 0.0
C259 C 0.13758 0.39437 0.62911 0.0
O260 O 0.07359 0.28812 0.61294 0.0
O261 O 0.06105 0.29904 0.64061 0.0
O262 O 0.15205 0.34412 0.64466 0.0
O263 O 0.11188 0.32074 0.66145 0.0
O264 O 0.12351 0.2874 0.62696 0.0
O265 O 0.17686 0.31923 0.62347 0.0
O266 O 0.22246 0.38147 0.62582 0.0
O267 O 0.20911 0.39662 0.60004 0.0
O268 O 0.13044 0.34633 0.60537 0.0
O269 O 0.15944 0.33655 0.5896 0.0
O270 O 0.16503 0.39618 0.62776 0.0
O271 O 0.11078 0.36736 0.62871 0.0
H272 H 0.05577 0.23264 0.60796 0.0
H273 H 0.02028 0.1769 0.61101 0.0
H274 H 0.9692 0.19356 0.65502 0.0
H275 H 1.00503 0.24985 0.65211 0.0
H276 H 0.25682 0.4329 0.64518 0.0
H277 H 0.3046 0.48328 0.64878 0.0
H278 H 0.31505 0.49095 0.58722 0.0
H279 H 0.26691 0.4414 0.58379 0.0
Tb280 Tb 0.2068 0.85092 0.90811 0.0
Tb281 Tb 0.23604 0.91946 0.89599 0.0
C282 C 0.18905 0.79404 0.91415 0.0
C283 C 0.19515 0.76763 0.91208 0.0
C284 C 0.19446 0.75417 0.89422 0.0
C285 C 0.19504 0.7261 0.89314 0.0
C286 C 0.19611 0.71067 0.90989 0.0
C287 C 0.19804 0.72495 0.92764 0.0
C288 C 0.19748 0.7529 0.9287 0.0
C289 C 0.22122 0.89361 0.93581 0.0
C290 C 0.27857 0.88891 0.89737 0.0
C291 C 0.25266 0.97596 0.90073 0.0
C292 C 0.23852 0.99607 0.89843 0.0
C293 C 0.22933 1.00575 0.9149 0.0
C294 C 0.21814 0.02654 0.91356 0.0
C295 C 0.21556 0.03788 0.89569 0.0
C296 C 0.2236 0.02753 0.87908 0.0
C297 C 0.23505 1.00677 0.88042 0.0
C298 C 0.21738 0.88567 0.8643 0.0
C299 C 0.16148 0.87537 0.90018 0.0
O300 O 0.18116 0.80424 0.89903 0.0
O301 O 0.2065 0.81653 0.92599 0.0
O302 O 0.23664 0.89557 0.92102 0.0
O303 O 0.19648 0.8662 0.9358 0.0
O304 O 0.25293 0.86144 0.89879 0.0
O305 O 0.27839 0.91569 0.89778 0.0
O306 O 0.24001 0.95464 0.91404 0.0
O307 O 0.25994 0.96561 0.8854 0.0
O308 O 0.21442 0.87537 0.8814 0.0
O309 O 0.2317 0.9158 0.865 0.0
O310 O 0.18608 0.90398 0.90001 0.0
O311 O 0.16423 0.85032 0.9012 0.0
H312 H 0.19236 0.76468 0.88111 0.0
H313 H 0.19329 0.71583 0.8792 0.0
H314 H 0.19948 0.71426 0.94084 0.0
H315 H 0.19775 0.76247 0.94268 0.0
H316 H 0.23162 0.99788 0.92898 0.0
H317 H 0.21219 0.03437 0.92653 0.0
H318 H 0.22182 0.03618 0.86515 0.0
H319 H 0.2417 0.99964 0.86744 0.0
Tb320 Tb 0.70399 0.79039 0.63121 0.0
Tb321 Tb 0.66732 0.82226 0.61745 0.0
C322 C 0.74288 0.77215 0.62777 0.0
C323 C 0.77722 0.78626 0.62946 0.0
C324 C 0.79431 0.78826 0.61293 0.0
C325 C 0.82644 0.80002 0.61383 0.0
C326 C 0.84242 0.81011 0.6313 0.0
C327 C 0.82568 0.80939 0.64778 0.0
C328 C 0.79327 0.79746 0.64689 0.0
C329 C 0.68846 0.81054 0.66196 0.0
C330 C 0.73723 0.8652 0.62623 0.0
C331 C 0.62911 0.84126 0.61179 0.0
C332 C 0.59634 0.83474 0.61372 0.0
C333 C 0.58323 0.83512 0.63155 0.0
C334 C 0.55438 0.83418 0.63257 0.0
C335 C 0.53795 0.83301 0.6158 0.0
C336 C 0.55061 0.83134 0.59807 0.0
C337 C 0.57935 0.83228 0.59707 0.0
C338 C 0.69661 0.80741 0.59065 0.0
C339 C 0.63089 0.74972 0.62735 0.0
O340 O 0.73369 0.78296 0.6137 0.0
O341 O 0.72613 0.76739 0.6433 0.0
O342 O 0.682 0.81344 0.64462 0.0
O343 O 0.70349 0.79542 0.66206 0.0
O344 O 0.73996 0.84002 0.62827 0.0
O345 O 0.71046 0.8641 0.6233 0.0
O346 O 0.64647 0.84776 0.62716 0.0
O347 O 0.63474 0.82489 0.59938 0.0
O348 O 0.6823 0.79208 0.60537 0.0
O349 O 0.69283 0.83146 0.58983 0.0
O350 O 0.63032 0.77585 0.62474 0.0
O351 O 0.6572 0.74888 0.62941 0.0
H352 H 0.78267 0.78019 0.59927 0.0
H353 H 0.83879 0.80077 0.60085 0.0
H354 H 0.83744 0.817 0.66143 0.0
H355 H 0.78082 0.79656 0.65985 0.0
H356 H 0.59573 0.83727 0.64469 0.0
H357 H 0.54568 0.83575 0.6465 0.0
H358 H 0.53856 0.8298 0.58484 0.0
H359 H 0.58886 0.83222 0.5831 0.0
Tb360 Tb 0.17576 0.36052 0.90857 0.0
Tb361 Tb 0.10771 0.32231 0.89684 0.0
C362 C 0.2319 0.40012 0.91575 0.0
C363 C 0.2585 0.43202 0.91222 0.0
C364 C 0.27289 0.44146 0.89418 0.0
C365 C 0.30111 0.46968 0.8921 0.0
C366 C 0.31575 0.48902 0.90802 0.0
C367 C 0.3005 0.48002 0.92587 0.0
C368 C 0.2723 0.45194 0.92791 0.0
C369 C 0.13313 0.33315 0.93639 0.0
C370 C 0.13937 0.39502 0.89695 0.0
C371 C 0.05153 0.28199 0.90214 0.0
C372 C 0.03207 0.24775 0.89928 0.0
C373 C 0.03363 0.22685 0.91233 0.0
C374 C 1.01317 0.19477 0.91089 0.0
C375 C 0.99038 0.1826 0.89645 0.0
C376 C 0.98964 0.20339 0.88294 0.0
C377 C 1.01023 0.23557 0.88436 0.0
C378 C 0.14086 0.33667 0.86485 0.0
C379 C 0.1514 0.29116 0.90046 0.0
O380 O 0.22326 0.37937 0.90206 0.0
O381 O 0.20824 0.39738 0.9257 0.0
O382 O 0.13159 0.34695 0.92172 0.0
O383 O 0.1597 0.33409 0.936 0.0
O384 O 0.16625 0.39544 0.8966 0.0
O385 O 0.1123 0.36871 0.89919 0.0
O386 O 0.0732 0.29076 0.9152 0.0
O387 O 0.06116 0.3002 0.88698 0.0
O388 O 0.15163 0.34423 0.8818 0.0
O389 O 0.1107 0.32162 0.86579 0.0
O390 O 0.12291 0.28746 0.90021 0.0
O391 O 0.17656 0.31883 0.90163 0.0
H392 H 0.26292 0.42665 0.88178 0.0
H393 H 0.31173 0.47604 0.87804 0.0
H394 H 0.31103 0.4939 0.93854 0.0
H395 H 0.26194 0.44512 0.94203 0.0
H396 H 0.05011 0.23522 0.92406 0.0
H397 H 1.01495 0.17956 0.92133 0.0
H398 H 0.97233 0.19498 0.87169 0.0
H399 H 1.00843 0.25101 0.8741 0.0
Tb400 Tb 0.23537 0.91836 0.62943 0.0
Tb401 Tb 0.20601 0.84993 0.61786 0.0
C402 C 0.25002 0.97402 0.62348 0.0
C403 C 0.23606 0.99408 0.62692 0.0
C404 C 0.21657 0.99602 0.61294 0.0
C405 C 0.2054 0.01673 0.61504 0.0
C406 C 0.21382 0.03635 0.63101 0.0
C407 C 0.23261 0.03406 0.64525 0.0
C408 C 0.2435 0.01296 0.64329 0.0
C409 C 0.2171 0.88542 0.6615 0.0
C410 C 0.16047 0.87405 0.62569 0.0
C411 C 0.18931 0.79359 0.61127 0.0
C412 C 0.19485 0.767 0.61387 0.0
C413 C 0.1983 0.75664 0.63196 0.0
C414 C 0.19919 0.72881 0.63378 0.0
C415 C 0.19633 0.71051 0.61757 0.0
C416 C 0.19377 0.72167 0.59948 0.0
C417 C 0.19319 0.7495 0.59769 0.0
C418 C 0.22205 0.89265 0.58983 0.0
C419 C 0.27732 0.88748 0.62884 0.0
O420 O 0.23489 0.95134 0.61129 0.0
O421 O 0.26075 0.96546 0.63812 0.0
O422 O 0.21377 0.87454 0.64454 0.0
O423 O 0.23186 0.91558 0.66042 0.0
O424 O 0.18518 0.90251 0.62661 0.0
O425 O 0.16302 0.84898 0.62391 0.0
O426 O 0.17915 0.80276 0.62581 0.0
O427 O 0.20874 0.81681 0.60041 0.0
O428 O 0.23653 0.89422 0.60489 0.0
O429 O 0.1968 0.86565 0.58987 0.0
O430 O 0.25113 0.86031 0.62911 0.0
O431 O 0.27758 0.91435 0.62677 0.0
H432 H 0.21057 0.98211 0.60003 0.0
H433 H 0.19124 0.01838 0.60378 0.0
H434 H 0.23932 0.04901 0.65771 0.0
H435 H 0.2584 0.01207 0.65431 0.0
H436 H 0.19959 0.76961 0.64473 0.0
H437 H 0.20179 0.72152 0.64794 0.0
H438 H 0.19089 0.70832 0.58663 0.0
H439 H 0.19018 0.75676 0.58359 0.0
Tb440 Tb 0.66733 0.82259 0.90834 0.0
Tb441 Tb 0.70417 0.79064 0.89643 0.0
C442 C 0.62868 0.84093 0.91423 0.0
C443 C 0.59619 0.83487 0.91239 0.0
C444 C 0.579 0.82499 0.89529 0.0
C445 C 0.54975 0.8232 0.89384 0.0
C446 C 0.53716 0.83174 0.90936 0.0
C447 C 0.55455 0.84103 0.92649 0.0
C448 C 0.5833 0.84226 0.92799 0.0
C449 C 0.694 0.80642 0.93622 0.0
C450 C 0.63107 0.75043 0.8986 0.0
C451 C 0.74456 0.77499 0.90193 0.0
C452 C 0.77877 0.78933 0.89868 0.0
C453 C 0.79985 0.80791 0.91304 0.0
C454 C 0.83186 0.81937 0.91106 0.0
C455 C 0.84381 0.81248 0.8947 0.0
C456 C 0.82291 0.79486 0.88 0.0
C457 C 0.79076 0.78337 0.88199 0.0
C458 C 0.69061 0.81052 0.86467 0.0
C459 C 0.73675 0.86568 0.89977 0.0
O460 O 0.64617 0.84793 0.89887 0.0
O461 O 0.63392 0.82394 0.92636 0.0
O462 O 0.68029 0.79143 0.9214 0.0
O463 O 0.69307 0.83212 0.93594 0.0
O464 O 0.63119 0.77714 0.89896 0.0
O465 O 0.6573 0.74909 0.89876 0.0
O466 O 0.73651 0.78902 0.91465 0.0
O467 O 0.72571 0.7654 0.88709 0.0
O468 O 0.68322 0.81366 0.8817 0.0
O469 O 0.70566 0.79541 0.86542 0.0
O470 O 0.73967 0.84049 0.89948 0.0
O471 O 0.70974 0.86446 0.90132 0.0
H472 H 0.58836 0.81916 0.88296 0.0
H473 H 0.53724 0.81532 0.88046 0.0
H474 H 0.54677 0.84865 0.93874 0.0
H475 H 0.59616 0.85024 0.94129 0.0
H476 H 0.79157 0.81296 0.92616 0.0
H477 H 0.84706 0.83255 0.92277 0.0
H478 H 0.83134 0.78956 0.86704 0.0
H479 H 0.77528 0.76929 0.87062 0.0
H480 H 0.08999 0.22738 0.10385 0.0
H481 H 0.13108 0.21398 0.10456 0.0
H482 H 0.08934 0.1572 0.15481 0.0
H483 H 0.04869 0.17184 0.15457 0.0
H484 H 0.14869 0.18622 0.15907 0.0
H485 H 0.08331 0.12465 0.10805 0.0
H486 H 0.05241 0.11387 0.0785 0.0
H487 H 0.13494 0.1775 0.0473 0.0
H488 H 0.16627 0.18889 0.07674 0.0
H489 H 0.2408 0.11086 0.14524 0.0
H490 H 0.19558 0.11875 0.1469 0.0
H491 H 0.24239 0.19827 0.10935 0.0
H492 H 0.28772 0.19109 0.10802 0.0
H493 H 0.17768 0.15251 0.09942 0.0
H494 H 0.24159 0.2145 0.15223 0.0
H495 H 0.2708 0.22339 0.18233 0.0
H496 H 0.18765 0.15404 0.21055 0.0
H497 H 0.15809 0.14426 0.18047 0.0
C498 C 0.08951 0.21193 0.11502 0.0
C499 C 0.06598 0.20039 0.12905 0.0
C500 C 0.11293 0.20411 0.11536 0.0
C501 C 0.11298 0.18383 0.12943 0.0
C502 C 0.08977 0.1727 0.14371 0.0
C503 C 0.06655 0.18103 0.14358 0.0
C504 C 0.13757 0.17483 0.12928 0.0
C505 C 0.15451 0.17824 0.14609 0.0
C506 C 0.14568 0.16472 0.11235 0.0
C507 C 0.12706 0.15775 0.09459 0.0
C508 C 0.09482 0.13644 0.09489 0.0
C509 C 0.07724 0.13021 0.07817 0.0
C510 C 0.0917 0.14502 0.06103 0.0
C511 C 0.12378 0.16604 0.06058 0.0
C512 C 0.14147 0.17235 0.07727 0.0
C513 C 0.24132 0.12992 0.1373 0.0
C514 C 0.26773 0.15032 0.12649 0.0
C515 C 0.2156 0.13447 0.13832 0.0
C516 C 0.2157 0.15908 0.12823 0.0
C517 C 0.24185 0.17913 0.11721 0.0
C518 C 0.26775 0.17503 0.11652 0.0
C519 C 0.18866 0.16416 0.1291 0.0
C520 C 0.1714 0.16006 0.11241 0.0
C521 C 0.17993 0.17306 0.14618 0.0
C522 C 0.19775 0.17843 0.1641 0.0
C523 C 0.22965 0.20086 0.1648 0.0
C524 C 0.24625 0.2061 0.18184 0.0
C525 C 0.2311 0.18927 0.19831 0.0
C526 C 0.19936 0.16701 0.19776 0.0
C527 C 0.18268 0.1616 0.18072 0.0
H528 H 0.24397 0.19372 0.21151 0.0
H529 H 0.07804 0.14019 0.0481 0.0
H530 H 0.13712 0.99282 0.39438 0.0
H531 H 0.08212 0.95169 0.39422 0.0
H532 H 0.11019 0.88198 0.39406 0.0
H533 H 0.16484 0.92309 0.39271 0.0
H534 H 0.06539 0.86335 0.37203 0.0
H535 H 0.08139 0.90814 0.43586 0.0
H536 H 0.09474 0.95042 0.45912 0.0
H537 H 0.02237 0.9648 0.43637 0.0
H538 H 1.00895 0.92298 0.4128 0.0
H539 H 0.92724 0.73123 0.40307 0.0
H540 H 0.9796 0.77625 0.40141 0.0
H541 H 0.94108 0.8368 0.39442 0.0
H542 H 0.88828 0.79173 0.39653 0.0
H543 H 0.9889 0.86185 0.41849 0.0
H544 H 0.97124 0.81619 0.35618 0.0
H545 H 0.95701 0.7741 0.3327 0.0
H546 H 0.03209 0.76159 0.35253 0.0
H547 H 0.04642 0.80325 0.37636 0.0
C548 C 0.13132 0.96865 0.39411 0.0
C549 C 0.15501 0.96097 0.39339 0.0
C550 C 0.09992 0.94512 0.39427 0.0
C551 C 0.09173 0.9135 0.39455 0.0
C552 C 0.11565 0.90605 0.39382 0.0
C553 C 0.14691 0.92952 0.39305 0.0
C554 C 0.05849 0.88794 0.39522 0.0
C555 C 0.04891 0.86294 0.38243 0.0
C556 C 0.0363 0.88766 0.40823 0.0
C557 C 0.04441 0.91269 0.42246 0.0
C558 C 0.06848 0.92048 0.43575 0.0
C559 C 0.07605 0.94435 0.44899 0.0
C560 C 0.05948 0.96034 0.44919 0.0
C561 C 0.03524 0.95246 0.43618 0.0
C562 C 0.02765 0.92869 0.42289 0.0
C563 C 0.92975 0.75407 0.40119 0.0
C564 C 0.90343 0.75779 0.39981 0.0
C565 C 0.95982 0.77984 0.40015 0.0
C566 C 0.96433 0.80989 0.39745 0.0
C567 C 0.93816 0.8138 0.39641 0.0
C568 C 0.90798 0.788 0.39754 0.0
C569 C 0.99638 0.83714 0.39572 0.0
C570 C 1.00557 0.8624 0.40818 0.0
C571 C 0.01828 0.8377 0.38246 0.0
C572 C 1.00972 0.81265 0.36815 0.0
C573 C 0.98456 0.80429 0.35563 0.0
C574 C 0.97649 0.78053 0.34225 0.0
C575 C 0.9936 0.76514 0.34115 0.0
C576 C 0.01883 0.7735 0.35341 0.0
C577 C 0.02694 0.79719 0.36685 0.0
H578 H 0.98733 0.74677 0.33076 0.0
H579 H 0.06536 0.97881 0.45945 0.0
H580 H 0.922 0.13848 0.13894 0.0
H581 H 0.91476 0.08597 0.14114 0.0
H582 H 0.82369 0.04831 0.11544 0.0
H583 H 0.83011 0.10034 0.11431 0.0
H584 H 0.81864 0.01276 0.14241 0.0
H585 H 0.89471 0.05855 0.0913 0.0
H586 H 0.94466 0.09833 0.07715 0.0
H587 H 0.99486 0.07905 0.12001 0.0
H588 H 0.94517 0.03939 0.13454 0.0
H589 H 0.79015 0.86653 0.11106 0.0
H590 H 0.80501 0.92143 0.11174 0.0
H591 H 0.88088 0.94078 0.14995 0.0
H592 H 0.86619 0.88537 0.1492 0.0
H593 H 0.89695 0.98581 0.11929 0.0
H594 H 0.82122 0.93904 0.16935 0.0
H595 H 0.77144 0.89945 0.18371 0.0
H596 H 0.72091 0.92097 0.14229 0.0
H597 H 0.77046 0.96048 0.12755 0.0
C598 C 0.90047 0.11897 0.13374 0.0
C599 C 0.87663 0.12361 0.1265 0.0
C600 C 0.89642 0.08891 0.13485 0.0
C601 C 0.86885 0.06295 0.12816 0.0
C602 C 0.84518 0.06775 0.12076 0.0
C603 C 0.84891 0.09762 0.12008 0.0
C604 C 0.86392 0.03065 0.12934 0.0
C605 C 0.83572 1.007 0.13708 0.0
C606 C 0.88646 0.02288 0.12306 0.0
C607 C 0.91626 0.04622 0.11408 0.0
C608 C 0.91641 0.06289 0.09774 0.0
C609 C 0.94467 0.0854 0.08965 0.0
C610 C 0.97292 0.09126 0.0977 0.0
C611 C 0.97296 0.07451 0.1138 0.0
C612 C 0.94477 0.05198 0.12195 0.0
C613 C 0.81019 0.88243 0.1195 0.0
C614 C 0.82702 0.87154 0.13004 0.0
C615 C 0.81857 0.91383 0.11994 0.0
C616 C 0.84397 0.93521 0.13094 0.0
C617 C 0.8612 0.92465 0.14134 0.0
C618 C 0.85263 0.89299 0.14104 0.0
C619 C 0.85151 0.96827 0.13188 0.0
C620 C 0.88008 0.99187 0.1246 0.0
C621 C 0.82932 0.97611 0.13848 0.0
C622 C 0.79949 0.95252 0.14729 0.0
C623 C 0.79948 0.93516 0.16323 0.0
C624 C 0.77132 0.91278 0.17145 0.0
C625 C 0.74302 0.90766 0.1639 0.0
C626 C 0.74284 0.92496 0.14812 0.0
C627 C 0.77096 0.94738 0.13985 0.0
H628 H 0.72124 0.89032 0.17029 0.0
H629 H 0.99477 0.10875 0.09145 0.0
H630 H 0.24864 0.12156 0.37491 0.0
H631 H 0.20403 0.13047 0.37319 0.0
H632 H 0.2387 0.19044 0.42251 0.0
H633 H 0.2839 0.18267 0.42377 0.0
H634 H 0.16959 0.13831 0.42171 0.0
H635 H 0.24994 0.22762 0.38688 0.0
H636 H 0.28997 0.25241 0.36169 0.0
H637 H 0.22131 0.20143 0.3186 0.0
H638 H 0.18097 0.176 0.3436 0.0
H639 H 0.08301 0.21543 0.4261 0.0
H640 H 0.12271 0.20032 0.4255 0.0
H641 H 0.09987 0.17093 0.36681 0.0
H642 H 0.05937 0.18557 0.36735 0.0
H643 H 0.16098 0.20358 0.3708 0.0
H644 H 0.08009 0.11649 0.40307 0.0
H645 H 0.03833 0.0871 0.42665 0.0
H646 H 0.1043 0.12751 0.47252 0.0
H647 H 0.14641 0.15742 0.4492 0.0
C648 C 0.24658 0.13653 0.38539 0.0
C649 C 0.26953 0.15135 0.3995 0.0
C650 C 0.22124 0.14168 0.38437 0.0
C651 C 0.2181 0.16107 0.39775 0.0
C652 C 0.24072 0.17541 0.41206 0.0
C653 C 0.2665 0.171 0.41274 0.0
C654 C 0.19126 0.16652 0.3968 0.0
C655 C 0.16781 0.15285 0.41073 0.0
C656 C 0.1884 0.18448 0.38206 0.0
C657 C 0.21259 0.19965 0.36708 0.0
C658 C 0.24348 0.22145 0.37204 0.0
C659 C 0.2662 0.23568 0.3578 0.0
C660 C 0.25822 0.22842 0.33856 0.0
C661 C 0.22748 0.20698 0.33351 0.0
C662 C 0.20469 0.19267 0.34771 0.0
C663 C 0.08584 0.20519 0.41311 0.0
C664 C 0.06754 0.20149 0.39682 0.0
C665 C 0.10875 0.1966 0.4128 0.0
C666 C 0.11409 0.184 0.39621 0.0
C667 C 0.09616 0.1805 0.37982 0.0
C668 C 0.07307 0.18903 0.38013 0.0
C669 C 0.13922 0.17572 0.39593 0.0
C670 C 0.16247 0.18886 0.38177 0.0
C671 C 0.14158 0.15675 0.41029 0.0
C672 C 0.11631 0.13942 0.42441 0.0
C673 C 0.08562 0.11935 0.4182 0.0
C674 C 0.06191 0.10254 0.43151 0.0
C675 C 0.06864 0.1055 0.45107 0.0
C676 C 0.09911 0.12527 0.45736 0.0
C677 C 0.12292 0.14214 0.44411 0.0
H678 H 0.05026 0.09241 0.46135 0.0
H679 H 0.27583 0.23948 0.32755 0.0
H680 H 0.16258 0.92645 0.14513 0.0
H681 H 0.10807 0.88579 0.14491 0.0
H682 H 0.08266 0.95003 0.12064 0.0
H683 H 0.13703 0.99174 0.12213 0.0
H684 H 0.03993 0.91316 0.14615 0.0
H685 H 0.08967 0.89692 0.09208 0.0
H686 H 0.13088 0.89126 0.07594 0.0
H687 H 0.10785 0.8104 0.11012 0.0
H688 H 0.06674 0.81582 0.12663 0.0
H689 H 0.88896 0.79187 0.1179 0.0
H690 H 0.9418 0.83701 0.1182 0.0
H691 H 0.97759 0.7785 0.13824 0.0
H692 H 0.92535 0.73329 0.13694 0.0
H693 H 1.01485 0.81477 0.11311 0.0
H694 H 0.96562 0.83262 0.16805 0.0
H695 H 0.92407 0.83863 0.18344 0.0
H696 H 0.94569 0.91677 0.14695 0.0
H697 H 0.98717 0.911 0.13122 0.0
C698 C 0.14549 0.93238 0.14019 0.0
C699 C 0.15456 0.96263 0.13362 0.0
C700 C 0.11424 0.90883 0.1398 0.0
C701 C 0.09129 0.91463 0.13237 0.0
C702 C 0.09996 0.94492 0.12632 0.0
C703 C 0.13122 0.96869 0.12698 0.0
C704 C 0.05852 0.88877 0.13039 0.0
C705 C 0.03438 0.89177 0.13874 0.0
C706 C 0.0512 0.86073 0.12086 0.0
C707 C 0.07529 0.85688 0.11064 0.0
C708 C 0.09348 0.87799 0.09618 0.0
C709 C 0.11681 0.87483 0.08697 0.0
C710 C 0.12201 0.85051 0.09202 0.0
C711 C 0.10379 0.82922 0.10623 0.0
C712 C 0.08044 0.83229 0.11549 0.0
C713 C 0.90812 0.78873 0.12245 0.0
C714 C 0.90292 0.75904 0.12747 0.0
C715 C 0.93835 0.81459 0.12272 0.0
C716 C 0.96381 0.81142 0.1286 0.0
C717 C 0.95849 0.78171 0.13365 0.0
C718 C 0.92849 0.75583 0.13298 0.0
C719 C 0.99612 0.83871 0.1293 0.0
C720 C 0.02026 0.83608 0.12058 0.0
C721 C 1.00336 0.86706 0.13846 0.0
C722 C 0.9793 0.87125 0.1484 0.0
C723 C 0.96147 0.85106 0.16332 0.0
C724 C 0.93793 0.85441 0.17208 0.0
C725 C 0.9322 0.87803 0.16615 0.0
C726 C 0.95015 0.89849 0.15152 0.0
C727 C 0.9737 0.89522 0.14271 0.0
H728 H 0.91389 0.88052 0.17289 0.0
H729 H 0.14013 0.84814 0.0849 0.0
H730 H 0.78247 0.86444 0.38525 0.0
H731 H 0.79645 0.91896 0.38591 0.0
H732 H 0.89116 0.9455 0.40035 0.0
H733 H 0.87767 0.89091 0.39922 0.0
H734 H 0.87193 0.97642 0.42204 0.0
H735 H 0.87313 0.95941 0.35516 0.0
H736 H 0.85372 0.93288 0.3242 0.0
H737 H 0.77479 0.9465 0.32802 0.0
H738 H 0.79359 0.97281 0.35914 0.0
H739 H 0.92645 0.13916 0.40445 0.0
H740 H 0.91908 0.08638 0.40323 0.0
H741 H 0.82095 0.04875 0.39246 0.0
H742 H 0.82802 0.10099 0.39349 0.0
H743 H 0.8462 0.02499 0.36819 0.0
H744 H 0.84664 0.04163 0.43648 0.0
H745 H 0.86887 0.06933 0.46681 0.0
H746 H 0.94876 0.05813 0.45914 0.0
H747 H 0.92714 0.03068 0.42865 0.0
C748 C 0.80649 0.88177 0.38814 0.0
C749 C 0.82894 0.87297 0.39196 0.0
C750 C 0.8144 0.91306 0.38864 0.0
C751 C 0.84497 0.93645 0.39295 0.0
C752 C 0.86743 0.92788 0.39696 0.0
C753 C 0.85959 0.89654 0.39635 0.0
C754 C 0.8532 0.96974 0.3935 0.0
C755 C 0.86677 0.98718 0.41013 0.0
C756 C 0.8462 0.98382 0.37811 0.0
C757 C 0.83462 0.96781 0.35952 0.0
C758 C 0.8515 0.95651 0.34946 0.0
C759 C 0.84064 0.94157 0.33188 0.0
C760 C 0.813 0.93795 0.32417 0.0
C761 C 0.79618 0.9493 0.33402 0.0
C762 C 0.80694 0.96426 0.35162 0.0
C763 C 0.90334 0.11964 0.40177 0.0
C764 C 0.87789 0.12438 0.39901 0.0
C765 C 0.89912 0.08948 0.40121 0.0
C766 C 0.86941 0.06359 0.39786 0.0
C767 C 0.84407 0.06835 0.39504 0.0
C768 C 0.84821 0.09832 0.39568 0.0
C769 C 0.86451 0.0315 0.3968 0.0
C770 C 0.85153 0.01427 0.38005 0.0
C771 C 0.87244 0.01783 0.41198 0.0
C772 C 0.88545 0.03443 0.43022 0.0
C773 C 0.86907 0.04533 0.44119 0.0
C774 C 0.88153 0.06092 0.45842 0.0
C775 C 0.91025 0.06556 0.46487 0.0
C776 C 0.92655 0.05456 0.45412 0.0
C777 C 0.91419 0.03897 0.43688 0.0
H778 H 0.91985 0.07762 0.47822 0.0
H779 H 0.80464 0.9264 0.31054 0.0
H780 H 0.15535 0.02916 0.63179 0.0
H781 H 0.14168 0.07038 0.63225 0.0
H782 H 0.23961 0.13993 0.63065 0.0
H783 H 0.25301 0.09874 0.63172 0.0
H784 H 0.21449 0.15929 0.6531 0.0
H785 H 0.18252 0.11274 0.5898 0.0
H786 H 0.15229 0.06984 0.56717 0.0
H787 H 0.06677 0.0563 0.59164 0.0
H788 H 0.09649 0.09876 0.6146 0.0
H789 H 0.20684 0.29084 0.62266 0.0
H790 H 0.21452 0.24603 0.62414 0.0
H791 H 0.11561 0.18503 0.63213 0.0
H792 H 0.10753 0.22982 0.63018 0.0
H793 H 0.13748 0.1597 0.60798 0.0
H794 H 0.16784 0.20634 0.66981 0.0
H795 H 0.19645 0.24877 0.69298 0.0
H796 H 0.28351 0.26143 0.67179 0.0
H797 H 0.25541 0.21942 0.64827 0.0
C798 C 0.17382 0.05332 0.63174 0.0
C799 C 0.2052 0.06092 0.63188 0.0
C800 C 0.16605 0.0769 0.63174 0.0
C801 C 0.18955 0.10851 0.63104 0.0
C802 C 0.22093 0.11588 0.63122 0.0
C803 C 0.22865 0.09237 0.63182 0.0
C804 C 0.18194 0.13413 0.63048 0.0
C805 C 0.19797 0.15946 0.64298 0.0
C806 C 0.15945 0.13411 0.61789 0.0
C807 C 0.14173 0.10868 0.60403 0.0
C808 C 0.15728 0.10046 0.59043 0.0
C809 C 0.14023 0.07623 0.57754 0.0
C810 C 0.10763 0.0603 0.578 0.0
C811 C 0.09201 0.0686 0.59132 0.0
C812 C 0.10894 0.09273 0.60427 0.0
C813 C 0.18662 0.26793 0.62473 0.0
C814 C 0.15653 0.26402 0.62642 0.0
C815 C 0.19112 0.24229 0.62567 0.0
C816 C 0.16572 0.21215 0.62859 0.0
C817 C 0.13559 0.20807 0.62996 0.0
C818 C 0.13103 0.23374 0.62892 0.0
C819 C 0.1707 0.18498 0.63017 0.0
C820 C 0.15407 0.15941 0.61799 0.0
C821 C 0.19258 0.18469 0.64306 0.0
C822 C 0.20953 0.20994 0.65718 0.0
C823 C 0.1931 0.21835 0.67 0.0
C824 C 0.20922 0.2423 0.6832 0.0
C825 C 0.24178 0.25783 0.68383 0.0
C826 C 0.25829 0.24941 0.67127 0.0
C827 C 0.24228 0.22553 0.65801 0.0
H828 H 0.25422 0.27635 0.69408 0.0
H829 H 0.09448 0.04156 0.56801 0.0
H830 H 0.14326 0.91859 0.90673 0.0
H831 H 0.09013 0.91036 0.90571 0.0
H832 H 0.05447 0.81393 0.8909 0.0
H833 H 0.10721 0.82183 0.89197 0.0
H834 H 0.03144 0.84374 0.86766 0.0
H835 H 0.04444 0.83169 0.93536 0.0
H836 H 0.0706 0.8487 0.96665 0.0
H837 H 0.05891 0.92891 0.96516 0.0
H838 H 0.03302 0.91254 0.93375 0.0
H839 H 0.86951 0.77875 0.88071 0.0
H840 H 0.92402 0.79229 0.88099 0.0
H841 H 0.94943 0.88089 0.90685 0.0
H842 H 0.8947 0.86726 0.90682 0.0
H843 H 0.97939 0.85857 0.92409 0.0
H844 H 0.96711 0.87387 0.85836 0.0
H845 H 0.94345 0.86195 0.82622 0.0
H846 H 0.95679 0.7829 0.82238 0.0
H847 H 0.98024 0.79418 0.85461 0.0
C848 C 0.12411 0.89566 0.90322 0.0
C849 C 0.12954 0.87091 0.89941 0.0
C850 C 0.09375 0.89095 0.90275 0.0
C851 C 0.06832 0.86148 0.89832 0.0
C852 C 0.07373 0.83685 0.89436 0.0
C853 C 0.10394 0.84143 0.89503 0.0
C854 C 0.03607 0.85628 0.89743 0.0
C855 C 0.0199 0.84663 0.88005 0.0
C856 C 0.02144 0.86121 0.91336 0.0
C857 C 0.0371 0.87107 0.93216 0.0
C858 C 0.04771 0.85309 0.94165 0.0
C859 C 0.06242 0.86258 0.95941 0.0
C860 C 0.06649 0.88991 0.96787 0.0
C861 C 0.05579 0.90778 0.95859 0.0
C862 C 0.04108 0.89839 0.94082 0.0
C863 C 0.88669 0.80138 0.88613 0.0
C864 C 0.87756 0.82196 0.89361 0.0
C865 C 0.918 0.80913 0.8863 0.0
C866 C 0.94113 0.83786 0.89368 0.0
C867 C 0.93214 0.85858 0.90106 0.0
C868 C 0.90076 0.85074 0.90102 0.0
C869 C 0.97443 0.84571 0.89428 0.0
C870 C 0.99085 0.85581 0.91162 0.0
C871 C 0.98959 0.84189 0.87817 0.0
C872 C 0.97514 0.8347 0.85894 0.0
C873 C 0.96474 0.85379 0.85072 0.0
C874 C 0.95143 0.84719 0.83248 0.0
C875 C 0.94855 0.82164 0.82228 0.0
C876 C 0.95901 0.80266 0.83031 0.0
C877 C 0.97234 0.80917 0.84855 0.0
H878 H 0.93828 0.81659 0.80815 0.0
H879 H 0.07787 0.89721 0.98164 0.0
H880 H 0.76039 0.90878 0.59816 0.0
H881 H 0.8059 0.96162 0.59995 0.0
H882 H 0.82094 0.94475 0.65852 0.0
H883 H 0.77605 0.89143 0.65649 0.0
H884 H 0.82088 1.00307 0.651 0.0
H885 H 0.86721 0.94384 0.62948 0.0
H886 H 0.87331 0.90721 0.60861 0.0
H887 H 0.89064 0.96771 0.5604 0.0
H888 H 0.8839 1.00439 0.58092 0.0
H889 H 0.9656 0.14166 0.6636 0.0
H890 H 0.92454 0.08678 0.66308 0.0
H891 H 0.92164 0.09005 0.60139 0.0
H892 H 0.96351 0.1444 0.60185 0.0
H893 H 0.91579 0.03727 0.61134 0.0
H894 H 0.86689 0.09521 0.63199 0.0
H895 H 0.86067 0.13218 0.65254 0.0
H896 H 0.84749 0.07453 0.70165 0.0
H897 H 0.85411 0.03748 0.68143 0.0
C898 C 0.77374 0.91635 0.6113 0.0
C899 C 0.76529 0.89617 0.62711 0.0
C900 C 0.79957 0.94642 0.61233 0.0
C901 C 0.8168 0.95695 0.62934 0.0
C902 C 0.80799 0.93693 0.64525 0.0
C903 C 0.78262 0.90655 0.64406 0.0
C904 C 0.84385 0.989 0.63051 0.0
C905 C 0.84183 1.01051 0.64254 0.0
C906 C 0.87078 0.99876 0.6191 0.0
C907 C 0.87464 0.97667 0.60669 0.0
C908 C 0.87191 0.94915 0.61438 0.0
C909 C 0.87555 0.9284 0.60262 0.0
C910 C 0.88226 0.93508 0.58317 0.0
C911 C 0.88536 0.96253 0.57545 0.0
C912 C 0.88161 0.9833 0.58714 0.0
C913 C 0.95622 0.13058 0.64996 0.0
C914 C 0.96765 0.14734 0.6328 0.0
C915 C 0.93267 0.09926 0.64965 0.0
C916 C 0.91946 0.08434 0.63221 0.0
C917 C 0.93136 0.10094 0.61504 0.0
C918 C 0.95528 0.13205 0.61532 0.0
C919 C 0.89292 0.05167 0.6318 0.0
C920 C 0.89492 0.02997 0.61985 0.0
C921 C 0.8658 0.04178 0.64316 0.0
C922 C 0.86125 0.06374 0.65524 0.0
C923 C 0.86281 0.09052 0.64719 0.0
C924 C 0.85922 0.11148 0.65877 0.0
C925 C 0.85375 0.10574 0.67839 0.0
C926 C 0.85176 0.07897 0.68646 0.0
C927 C 0.85541 0.05797 0.67494 0.0
H928 H 0.851 0.12201 0.68734 0.0
H929 H 0.88515 0.91902 0.5741 0.0
H930 H 0.10687 0.22964 0.89496 0.0
H931 H 0.11486 0.18476 0.89319 0.0
H932 H 0.21332 0.24522 0.90305 0.0
H933 H 0.20576 0.29005 0.90423 0.0
H934 H 0.20561 0.20668 0.87557 0.0
H935 H 0.16039 0.19475 0.93882 0.0
H936 H 0.11982 0.18968 0.96145 0.0
H937 H 0.05159 0.10741 0.93226 0.0
H938 H 0.09173 0.1122 0.90934 0.0
H939 H 0.2536 0.09962 0.90099 0.0
H940 H 0.23969 0.14063 0.90106 0.0
H941 H 0.14398 0.07207 0.88887 0.0
H942 H 0.15804 0.03088 0.88902 0.0
H943 H 0.14674 0.1121 0.91579 0.0
H944 H 0.18984 0.12172 0.85356 0.0
H945 H 0.22834 0.12587 0.8296 0.0
H946 H 0.29809 0.21125 0.85525 0.0
H947 H 0.26003 0.2074 0.87949 0.0
C948 C 0.13022 0.23336 0.89676 0.0
C949 C 0.15563 0.26352 0.8997 0.0
C950 C 0.13474 0.20763 0.89586 0.0
C951 C 0.16468 0.21146 0.8982 0.0
C952 C 0.19001 0.24156 0.90117 0.0
C953 C 0.18558 0.26724 0.90189 0.0
C954 C 0.17005 0.18444 0.89718 0.0
C955 C 0.19297 0.18621 0.88457 0.0
C956 C 0.15288 0.15712 0.90836 0.0
C957 C 0.12895 0.15396 0.92231 0.0
C958 C 0.1367 0.17566 0.9372 0.0
C959 C 0.11379 0.17283 0.95007 0.0
C960 C 0.08313 0.14828 0.94827 0.0
C961 C 0.07534 0.12643 0.93363 0.0
C962 C 0.09815 0.12916 0.92072 0.0
C963 C 0.22968 0.09347 0.89818 0.0
C964 C 0.20692 0.06238 0.89474 0.0
C965 C 0.22172 0.11684 0.89819 0.0
C966 C 0.19084 0.10955 0.8947 0.0
C967 C 0.16796 0.07828 0.8915 0.0
C968 C 0.17598 0.05485 0.89145 0.0
C969 C 0.18271 0.13472 0.89446 0.0
C970 C 0.1593 0.13258 0.90679 0.0
C971 C 0.19921 0.16164 0.8829 0.0
C972 C 0.22219 0.16415 0.86839 0.0
C973 C 0.21345 0.14127 0.85415 0.0
C974 C 0.23517 0.14358 0.84051 0.0
C975 C 0.26567 0.16878 0.84092 0.0
C976 C 0.27447 0.19174 0.85495 0.0
C977 C 0.25282 0.18954 0.86863 0.0
H978 H 0.28246 0.17053 0.83034 0.0
H979 H 0.06542 0.14615 0.95824 0.0
H980 H 0.10519 0.82193 0.61671 0.0
H981 H 0.05284 0.815 0.61794 0.0
H982 H 0.09088 0.90965 0.63753 0.0
H983 H 0.14354 0.91681 0.63641 0.0
H984 H 0.03981 0.87016 0.65794 0.0
H985 H 0.06639 0.89081 0.59193 0.0
H986 H 0.08404 0.88464 0.56007 0.0
H987 H 1.00759 0.79056 0.55715 0.0
H988 H 0.9898 0.79598 0.58916 0.0
H989 H 0.89154 0.86297 0.64691 0.0
H990 H 0.947 0.8783 0.6463 0.0
H991 H 0.92357 0.7919 0.61794 0.0
H992 H 0.86887 0.77763 0.61762 0.0
H993 H 0.97021 0.83345 0.6014 0.0
H994 H 0.94579 0.8128 0.66939 0.0
H995 H 0.92934 0.82101 0.70117 0.0
H996 H 1.00259 0.91679 0.70025 0.0
H997 H 0.01911 0.90926 0.66834 0.0
C998 C 0.10252 0.84134 0.62131 0.0
C999 C 0.12866 0.87 0.62644 0.0
C1000 C 0.07251 0.83735 0.62189 0.0
C1001 C 0.0679 0.8619 0.62763 0.0
C1002 C 0.09387 0.89041 0.63299 0.0
C1003 C 0.12398 0.89451 0.63227 0.0
C1004 C 0.03591 0.85759 0.62821 0.0
C1005 C 0.02465 0.86246 0.64552 0.0
C1006 C 1.016 0.84727 0.6121 0.0
C1007 C 0.02696 0.84371 0.59302 0.0
C1008 C 0.05355 0.86869 0.58459 0.0
C1009 C 0.06354 0.86535 0.56648 0.0
C1010 C 0.04699 0.83721 0.55661 0.0
C1011 C 0.02042 0.81233 0.56482 0.0
C1012 C 1.01037 0.81552 0.58295 0.0
C1013 C 0.89838 0.8473 0.64066 0.0
C1014 C 0.87592 0.81917 0.63224 0.0
C1015 C 0.93008 0.85595 0.6404 0.0
C1016 C 0.93976 0.83614 0.63228 0.0
C1017 C 0.91704 0.8078 0.62422 0.0
C1018 C 0.88566 0.79957 0.62407 0.0
C1019 C 0.97336 0.84479 0.6314 0.0
C1020 C 0.98515 0.84099 0.61391 0.0
C1021 C 0.9937 0.8561 0.64738 0.0
C1022 C 0.98341 0.86056 0.66641 0.0
C1023 C 0.95818 0.83567 0.6759 0.0
C1024 C 0.94887 0.8402 0.69394 0.0
C1025 C 0.96484 0.86943 0.7027 0.0
C1026 C 0.99017 0.89419 0.69344 0.0
C1027 C 0.9995 0.88981 0.67538 0.0
H1028 H 0.95764 0.87287 0.71668 0.0
H1029 H 0.05472 0.8347 0.54257 0.0
H1030 H 0.96428 0.1445 0.86515 0.0
H1031 H 0.92304 0.08975 0.86491 0.0
H1032 H 0.92156 0.08877 0.92662 0.0
H1033 H 0.96211 0.14354 0.92706 0.0
H1034 H 0.91871 0.03561 0.91123 0.0
H1035 H 0.86805 0.09653 0.90277 0.0
H1036 H 0.8594 0.13598 0.88681 0.0
H1037 H 0.83725 0.08416 0.83435 0.0
H1038 H 0.84634 0.04468 0.84992 0.0
H1039 H 0.77271 0.90014 0.92929 0.0
H1040 H 0.81737 0.95344 0.92794 0.0
H1041 H 0.80752 0.95405 0.86654 0.0
H1042 H 0.76227 0.90103 0.86808 0.0
H1043 H 0.81755 1.00704 0.88057 0.0
H1044 H 0.86527 0.945 0.88813 0.0
H1045 H 0.87426 0.90501 0.90288 0.0
H1046 H 0.90343 0.95779 0.95501 0.0
H1047 H 0.89382 0.99777 0.94072 0.0
C1048 C 0.95511 0.13276 0.87869 0.0
C1049 C 0.96656 0.14868 0.89612 0.0
C1050 C 0.93163 0.10138 0.87852 0.0
C1051 C 0.91907 0.08524 0.89575 0.0
C1052 C 0.93099 0.10072 0.91315 0.0
C1053 C 0.95432 0.1321 0.91335 0.0
C1054 C 0.89268 0.05259 0.8957 0.0
C1055 C 0.89647 0.02937 0.9047 0.0
C1056 C 0.86397 0.04431 0.88673 0.0
C1057 C 0.85819 0.06785 0.87744 0.0
C1058 C 0.86158 0.09369 0.88779 0.0
C1059 C 0.85658 0.11604 0.87882 0.0
C1060 C 0.84786 0.11262 0.85956 0.0
C1061 C 0.84406 0.08681 0.84925 0.0
C1062 C 0.84914 0.06444 0.85814 0.0
C1063 C 0.78046 0.91167 0.91554 0.0
C1064 C 0.76477 0.8966 0.89874 0.0
C1065 C 0.80591 0.94203 0.91474 0.0
C1066 C 0.81622 0.95763 0.89709 0.0
C1067 C 0.80016 0.94248 0.8803 0.0
C1068 C 0.77456 0.9122 0.88114 0.0
C1069 C 0.84342 0.98989 0.89617 0.0
C1070 C 0.83979 0.01311 0.88702 0.0
C1071 C 0.8724 0.99806 0.90481 0.0
C1072 C 0.87855 0.97425 0.9134 0.0
C1073 C 0.87336 0.94797 0.90279 0.0
C1074 C 0.87858 0.9253 0.91107 0.0
C1075 C 0.88939 0.92882 0.92988 0.0
C1076 C 0.89502 0.95506 0.94044 0.0
C1077 C 0.88966 0.97773 0.93227 0.0
H1078 H 0.89346 0.91125 0.93625 0.0
H1079 H 0.84398 0.12994 0.85264 0.0
H1080 H 0.3752 0.12405 0.33872 0.0
H1081 H 0.37833 0.13332 0.30448 0.0
H1082 H 0.33701 0.19133 0.31177 0.0
H1083 H 0.332 0.18008 0.34649 0.0
H1084 H 0.31156 0.15657 0.28207 0.0
H1085 H 0.41989 0.22057 0.29811 0.0
H1086 H 0.46906 0.23178 0.31374 0.0
H1087 H 0.46893 0.15704 0.28261 0.0
H1088 H 0.41961 0.14522 0.26693 0.0
H1089 H 0.32839 0.17886 0.1795 0.0
H1090 H 0.33342 0.19024 0.21411 0.0
H1091 H 0.38006 0.137 0.22107 0.0
H1092 H 0.37663 0.1275 0.18684 0.0
H1093 H 0.40516 0.17917 0.24409 0.0
H1094 H 0.295 0.11205 0.22991 0.0
H1095 H 0.24384 0.0979 0.21597 0.0
H1096 H 0.24546 0.17541 0.24447 0.0
H1097 H 0.29706 0.19063 0.25802 0.0
C1098 C 0.3679 0.13985 0.33319 0.0
C1099 C 0.35451 0.1523 0.34557 0.0
C1100 C 0.36963 0.14514 0.31341 0.0
C1101 C 0.35876 0.16384 0.30515 0.0
C1102 C 0.34604 0.17715 0.31758 0.0
C1103 C 0.34381 0.17133 0.33755 0.0
C1104 C 0.35946 0.16782 0.28359 0.0
C1105 C 0.33227 0.16214 0.27381 0.0
C1106 C 0.38605 0.17442 0.27241 0.0
C1107 C 0.41611 0.18204 0.28139 0.0
C1108 C 0.43038 0.20655 0.29462 0.0
C1109 C 0.45824 0.21298 0.30349 0.0
C1110 C 0.47211 0.19513 0.29918 0.0
C1111 C 0.45819 0.17088 0.28592 0.0
C1112 C 0.43034 0.16436 0.27699 0.0
C1113 C 0.34102 0.17095 0.18835 0.0
C1114 C 0.35299 0.15308 0.18024 0.0
C1115 C 0.34317 0.17671 0.20832 0.0
C1116 C 0.35658 0.16398 0.22071 0.0
C1117 C 0.36967 0.14737 0.21225 0.0
C1118 C 0.36794 0.1421 0.19247 0.0
C1119 C 0.35693 0.16694 0.24236 0.0
C1120 C 0.38444 0.17394 0.25224 0.0
C1121 C 0.33051 0.1613 0.25352 0.0
C1122 C 0.30008 0.15273 0.24474 0.0
C1123 C 0.28465 0.12634 0.23295 0.0
C1124 C 0.25557 0.11813 0.22512 0.0
C1125 C 0.24149 0.13583 0.22924 0.0
C1126 C 0.25648 0.16183 0.24117 0.0
C1127 C 0.28568 0.17034 0.24886 0.0
H1128 H 0.21887 0.12926 0.22329 0.0
H1129 H 0.49365 0.2001 0.3061 0.0
H1130 H 0.79427 0.62992 0.34456 0.0
H1131 H 0.79925 0.62582 0.30976 0.0
H1132 H 0.86623 0.72416 0.30718 0.0
H1133 H 0.86074 0.72814 0.34164 0.0
H1134 H 0.82549 0.71304 0.28167 0.0
H1135 H 0.88405 0.6638 0.29747 0.0
H1136 H 0.89556 0.62575 0.31264 0.0
H1137 H 0.81732 0.5509 0.28394 0.0
H1138 H 0.80502 0.58851 0.26884 0.0
H1139 H 0.86263 0.72732 0.18405 0.0
H1140 H 0.86828 0.72348 0.21858 0.0
H1141 H 0.79611 0.62684 0.2173 0.0
H1142 H 0.79108 0.63064 0.18246 0.0
H1143 H 0.83845 0.63509 0.24454 0.0
H1144 H 0.78088 0.68702 0.22903 0.0
H1145 H 0.77261 0.72695 0.21337 0.0
H1146 H 0.85327 0.79925 0.24177 0.0
H1147 H 0.86226 0.75975 0.25739 0.0
C1148 C 0.81121 0.65027 0.33669 0.0
C1149 C 0.82794 0.67916 0.34608 0.0
C1150 C 0.81381 0.64805 0.31664 0.0
C1151 C 0.83316 0.6747 0.30548 0.0
C1152 C 0.85104 0.70314 0.31515 0.0
C1153 C 0.84834 0.70533 0.33504 0.0
C1154 C 0.83303 0.67394 0.28377 0.0
C1155 C 0.82884 0.69619 0.27368 0.0
C1156 C 0.83648 0.65162 0.27292 0.0
C1157 C 0.84338 0.62892 0.28223 0.0
C1158 C 0.86908 0.63919 0.29457 0.0
C1159 C 0.87579 0.61772 0.30312 0.0
C1160 C 0.85712 0.58592 0.29931 0.0
C1161 C 0.83171 0.57553 0.28692 0.0
C1162 C 0.82485 0.59691 0.27837 0.0
C1163 C 0.849 0.70484 0.19097 0.0
C1164 C 0.82712 0.67905 0.18031 0.0
C1165 C 0.85178 0.70278 0.21087 0.0
C1166 C 0.8321 0.67505 0.22092 0.0
C1167 C 0.8116 0.6486 0.21011 0.0
C1168 C 0.80899 0.65064 0.19007 0.0
C1169 C 0.83147 0.67448 0.24259 0.0
C1170 C 0.83522 0.65191 0.25263 0.0
C1171 C 0.82795 0.69673 0.25348 0.0
C1172 C 0.82239 0.72045 0.24423 0.0
C1173 C 0.79695 0.71144 0.23184 0.0
C1174 C 0.79212 0.734 0.22298 0.0
C1175 C 0.81244 0.76562 0.22654 0.0
C1176 C 0.83758 0.77476 0.23901 0.0
C1177 C 0.84253 0.7523 0.24787 0.0
H1178 H 0.80868 0.78305 0.21966 0.0
H1179 H 0.86241 0.56933 0.3059 0.0
H1180 H 0.83266 0.18128 0.17656 0.0
H1181 H 0.818 0.1722 0.21102 0.0
H1182 H 0.91529 0.2243 0.22632 0.0
H1183 H 0.92965 0.23271 0.19316 0.0
H1184 H 0.88931 0.17239 0.24524 0.0
H1185 H 0.862 0.25196 0.22997 0.0
H1186 H 0.83092 0.27174 0.214 0.0
H1187 H 0.74731 0.1982 0.23948 0.0
H1188 H 0.77786 0.17768 0.25532 0.0
H1189 H 0.92716 0.24189 0.33281 0.0
H1190 H 0.91269 0.23204 0.29959 0.0
H1191 H 0.81844 0.16466 0.31553 0.0
H1192 H 0.83316 0.17447 0.34995 0.0
H1193 H 0.8271 0.20837 0.28147 0.0
H1194 H 0.85698 0.13383 0.30024 0.0
H1195 H 0.88915 0.11524 0.3161 0.0
H1196 H 0.96908 0.18071 0.28361 0.0
H1197 H 0.93747 0.19993 0.26773 0.0
C1198 C 0.85075 0.19075 0.18735 0.0
C1199 C 0.88241 0.20755 0.18182 0.0
C1200 C 0.84239 0.18566 0.20708 0.0
C1201 C 0.86556 0.19736 0.22153 0.0
C1202 C 0.8968 0.21457 0.21576 0.0
C1203 C 0.90499 0.21944 0.19648 0.0
C1204 C 0.85898 0.19164 0.24272 0.0
C1205 C 0.87545 0.18011 0.25304 0.0
C1206 C 0.84026 0.20071 0.25323 0.0
C1207 C 0.8221 0.21301 0.24357 0.0
C1208 C 0.83694 0.23981 0.23198 0.0
C1209 C 0.81943 0.25119 0.22299 0.0
C1210 C 0.78714 0.23616 0.22566 0.0
C1211 C 0.7723 0.20976 0.23736 0.0
C1212 C 0.78969 0.19823 0.24634 0.0
C1213 C 0.90312 0.22499 0.32958 0.0
C1214 C 0.88148 0.20879 0.34438 0.0
C1215 C 0.89489 0.21943 0.31033 0.0
C1216 C 0.8646 0.19735 0.30481 0.0
C1217 C 0.8421 0.18183 0.31937 0.0
C1218 C 0.85048 0.18743 0.33906 0.0
C1219 C 0.85839 0.19024 0.28377 0.0
C1220 C 0.84001 0.19967 0.27356 0.0
C1221 C 0.87559 0.17948 0.27319 0.0
C1222 C 0.89485 0.16835 0.28286 0.0
C1223 C 0.88147 0.14441 0.2966 0.0
C1224 C 0.8996 0.13373 0.30556 0.0
C1225 C 0.93114 0.1468 0.30087 0.0
C1226 C 0.94464 0.17059 0.28722 0.0
C1227 C 0.92661 0.18135 0.27821 0.0
H1228 H 0.94512 0.13846 0.30781 0.0
H1229 H 0.77363 0.24503 0.21871 0.0
H1230 H 0.17486 0.31355 0.68092 0.0
H1231 H 0.18524 0.31772 0.71553 0.0
H1232 H 0.1515 0.38257 0.72028 0.0
H1233 H 0.14257 0.37934 0.68578 0.0
H1234 H 0.19432 0.39935 0.74466 0.0
H1235 H 0.10627 0.29641 0.73005 0.0
H1236 H 0.08111 0.24461 0.71475 0.0
H1237 H 0.14681 0.2243 0.74176 0.0
H1238 H 0.17251 0.27609 0.75706 0.0
H1239 H 0.14102 0.37918 0.84068 0.0
H1240 H 0.15039 0.3829 0.80624 0.0
H1241 H 0.18312 0.31721 0.8108 0.0
H1242 H 0.17242 0.3127 0.84544 0.0
H1243 H 0.14704 0.30092 0.78195 0.0
H1244 H 0.23276 0.40003 0.79835 0.0
H1245 H 0.26009 0.45159 0.81384 0.0
H1246 H 0.2023 0.47918 0.78359 0.0
H1247 H 0.17437 0.42762 0.7681 0.0
C1248 C 0.17119 0.32988 0.68924 0.0
C1249 C 0.15896 0.347 0.68039 0.0
C1250 C 0.17631 0.33164 0.70921 0.0
C1251 C 0.16843 0.34987 0.72098 0.0
C1252 C 0.15785 0.36824 0.71186 0.0
C1253 C 0.15308 0.36671 0.69197 0.0
C1254 C 0.16991 0.34931 0.74267 0.0
C1255 C 0.18366 0.37771 0.75272 0.0
C1256 C 0.15711 0.32132 0.75362 0.0
C1257 C 0.1415 0.2902 0.7445 0.0
C1258 C 0.11543 0.28094 0.73263 0.0
C1259 C 0.10107 0.25159 0.72398 0.0
C1260 C 0.11242 0.23122 0.72723 0.0
C1261 C 0.13808 0.24011 0.73922 0.0
C1262 C 0.15253 0.26944 0.74788 0.0
C1263 C 0.15156 0.3666 0.83448 0.0
C1264 C 0.15723 0.34669 0.84603 0.0
C1265 C 0.15678 0.36857 0.81462 0.0
C1266 C 0.16809 0.35079 0.80553 0.0
C1267 C 0.17466 0.33148 0.8172 0.0
C1268 C 0.16919 0.32937 0.83716 0.0
C1269 C 0.171 0.351 0.78389 0.0
C1270 C 0.15795 0.32257 0.77389 0.0
C1271 C 0.1847 0.37894 0.77294 0.0
C1272 C 0.20138 0.40994 0.78217 0.0
C1273 C 0.22577 0.41705 0.7951 0.0
C1274 C 0.24138 0.44627 0.80386 0.0
C1275 C 0.23291 0.46863 0.79973 0.0
C1276 C 0.20883 0.46183 0.78679 0.0
C1277 C 0.19314 0.43263 0.77799 0.0
H1278 H 0.24503 0.49125 0.80652 0.0
H1279 H 0.10128 0.20852 0.72051 0.0
H1280 H 0.26173 0.89314 0.83927 0.0
H1281 H 0.25576 0.88374 0.80483 0.0
H1282 H 0.15581 0.83601 0.81116 0.0
H1283 H 0.16191 0.8456 0.84601 0.0
H1284 H 0.1745 0.80947 0.78159 0.0
H1285 H 0.19056 0.90911 0.79766 0.0
H1286 H 0.21498 0.96056 0.81327 0.0
H1287 H 0.3013 0.98701 0.78433 0.0
H1288 H 0.27749 0.93549 0.76875 0.0
H1289 H 0.16224 0.84339 0.67994 0.0
H1290 H 0.15628 0.83359 0.71478 0.0
H1291 H 0.25622 0.88613 0.72115 0.0
H1292 H 0.26199 0.89579 0.68674 0.0
H1293 H 0.2301 0.90809 0.74464 0.0
H1294 H 0.21038 0.80476 0.72844 0.0
H1295 H 0.18215 0.7534 0.71277 0.0
H1296 H 0.0977 0.7344 0.74151 0.0
H1297 H 0.12532 0.7859 0.75709 0.0
C1298 C 0.23841 0.87937 0.8335 0.0
C1299 C 0.21234 0.86936 0.84558 0.0
C1300 C 0.235 0.8744 0.81366 0.0
C1301 C 0.20533 0.85954 0.80512 0.0
C1302 C 0.17901 0.8475 0.81726 0.0
C1303 C 0.18247 0.85261 0.83728 0.0
C1304 C 0.20255 0.85937 0.78357 0.0
C1305 C 0.18632 0.83108 0.77353 0.0
C1306 C 0.21776 0.88742 0.77278 0.0
C1307 C 0.23234 0.91834 0.7822 0.0
C1308 C 0.21484 0.9258 0.79477 0.0
C1309 C 0.22855 0.95499 0.80358 0.0
C1310 C 0.25969 0.97701 0.79984 0.0
C1311 C 0.27718 0.9699 0.78724 0.0
C1312 C 0.26359 0.94072 0.77841 0.0
C1313 C 0.1829 0.85149 0.68869 0.0
C1314 C 0.21267 0.86964 0.68041 0.0
C1315 C 0.17951 0.84624 0.70872 0.0
C1316 C 0.20581 0.85919 0.72089 0.0
C1317 C 0.23546 0.87585 0.71234 0.0
C1318 C 0.23879 0.881 0.69251 0.0
C1319 C 0.20312 0.85809 0.74248 0.0
C1320 C 0.21823 0.88638 0.75261 0.0
C1321 C 0.1864 0.83008 0.75322 0.0
C1322 C 0.16982 0.7993 0.74374 0.0
C1323 C 0.18572 0.78976 0.73126 0.0
C1324 C 0.16984 0.7606 0.72242 0.0
C1325 C 0.13813 0.74068 0.7261 0.0
C1326 C 0.12224 0.74987 0.73864 0.0
C1327 C 0.13799 0.77904 0.74747 0.0
H1328 H 0.12589 0.71809 0.71927 0.0
H1329 H 0.27026 0.99962 0.80666 0.0
H1330 H 0.73002 0.85842 0.68356 0.0
H1331 H 0.7269 0.86388 0.71818 0.0
H1332 H 0.63111 0.78962 0.71774 0.0
H1333 H 0.63425 0.78453 0.68288 0.0
H1334 H 0.63917 0.83238 0.74498 0.0
H1335 H 0.69231 0.77641 0.7284 0.0
H1336 H 0.73251 0.76883 0.71248 0.0
H1337 H 0.80448 0.84956 0.74101 0.0
H1338 H 0.76471 0.85786 0.75687 0.0
H1339 H 0.63563 0.78844 0.84466 0.0
H1340 H 0.63125 0.79357 0.80992 0.0
H1341 H 0.72982 0.85985 0.80704 0.0
H1342 H 0.7341 0.85396 0.84145 0.0
H1343 H 0.7186 0.82044 0.78118 0.0
H1344 H 0.66845 0.87779 0.79791 0.0
H1345 H 0.63023 0.8887 0.81344 0.0
H1346 H 0.55542 0.81014 0.78494 0.0
H1347 H 0.5932 0.79847 0.76947 0.0
C1348 C 0.70778 0.84436 0.69067 0.0
C1349 C 0.68205 0.82183 0.68023 0.0
C1350 C 0.70618 0.84701 0.71063 0.0
C1351 C 0.67895 0.82672 0.72092 0.0
C1352 C 0.65247 0.80562 0.71034 0.0
C1353 C 0.65409 0.80302 0.69028 0.0
C1354 C 0.67894 0.82608 0.74258 0.0
C1355 C 0.65634 0.8294 0.75288 0.0
C1356 C 0.70167 0.82292 0.75319 0.0
C1357 C 0.72555 0.81792 0.74366 0.0
C1358 C 0.71672 0.79267 0.73116 0.0
C1359 C 0.73943 0.78823 0.72216 0.0
C1360 C 0.77103 0.80875 0.72569 0.0
C1361 C 0.78 0.83372 0.73826 0.0
C1362 C 0.75739 0.83829 0.74726 0.0
C1363 C 0.65601 0.80521 0.83673 0.0
C1364 C 0.68504 0.82163 0.84602 0.0
C1365 C 0.65361 0.80795 0.81672 0.0
C1366 C 0.68021 0.8272 0.80548 0.0
C1367 C 0.70883 0.84474 0.81506 0.0
C1368 C 0.71121 0.84182 0.83492 0.0
C1369 C 0.67914 0.82734 0.78377 0.0
C1370 C 0.70145 0.82361 0.7734 0.0
C1371 C 0.65641 0.83053 0.77317 0.0
C1372 C 0.63361 0.83704 0.78273 0.0
C1373 C 0.64382 0.86263 0.79513 0.0
C1374 C 0.62224 0.869 0.80389 0.0
C1375 C 0.5904 0.85007 0.80023 0.0
C1376 C 0.58008 0.82474 0.7878 0.0
C1377 C 0.60156 0.81823 0.77904 0.0
H1378 H 0.57374 0.85508 0.80699 0.0
H1379 H 0.78858 0.80527 0.71872 0.0
H1380 H 0.20215 0.93544 0.94535 0.0
H1381 H 0.22257 0.97533 0.97064 0.0
H1382 H 0.28489 0.94337 0.98889 0.0
H1383 H 0.26565 0.90461 0.96292 0.0
H1384 H 0.25313 0.95337 0.02013 0.0
H1385 H 0.31452 1.00945 0.96538 0.0
H1386 H 0.32198 0.02806 0.93198 0.0
H1387 H 0.27129 0.07558 0.94372 0.0
H1388 H 0.26297 0.05669 0.97712 0.0
H1389 H 0.34309 0.07531 0.08623 0.0
H1390 H 0.32383 0.03625 0.06082 0.0
H1391 H 0.28547 0.08615 0.03154 0.0
H1392 H 0.30586 0.12592 0.05676 0.0
H1393 H 0.30479 0.06636 1.00539 0.0
H1394 H 0.23639 1.00689 0.0569 0.0
H1395 H 0.2204 0.98364 0.08904 0.0
H1396 H 0.27807 0.94217 0.08358 0.0
H1397 H 0.29332 0.96401 0.05096 0.0
C1398 C 0.22029 0.93698 0.95471 0.0
C1399 C 0.23234 0.91683 0.95197 0.0
C1400 C 0.23203 0.9599 0.96923 0.0
C1401 C 0.25553 0.96278 0.98188 0.0
C1402 C 0.2669 0.94198 0.97946 0.0
C1403 C 0.25585 0.91972 0.96456 0.0
C1404 C 0.2682 0.98734 0.99753 0.0
C1405 C 0.26482 0.97809 0.01683 0.0
C1406 C 0.28265 0.01978 0.99362 0.0
C1407 C 0.28794 0.03149 0.97368 0.0
C1408 C 0.30479 0.0237 0.9608 0.0
C1409 C 0.30922 0.03434 0.94189 0.0
C1410 C 0.29724 0.05311 0.93576 0.0
C1411 C 0.28071 0.06119 0.94853 0.0
C1412 C 0.27609 0.05048 0.96744 0.0
C1413 C 0.33045 0.07797 0.07442 0.0
C1414 C 0.32593 0.1039 0.07379 0.0
C1415 C 0.319 0.05522 0.05983 0.0
C1416 C 0.30219 0.05717 0.04406 0.0
C1417 C 0.29807 0.08341 0.04334 0.0
C1418 C 0.30971 0.1063 0.05791 0.0
C1419 C 0.28965 0.03252 0.02824 0.0
C1420 C 0.29311 0.04171 1.00883 0.0
C1421 C 0.27465 0.99991 0.03204 0.0
C1422 C 0.26635 0.98746 0.05171 0.0
C1423 C 0.24585 0.99303 0.06264 0.0
C1424 C 0.23688 0.98008 0.08092 0.0
C1425 C 0.24871 0.96203 0.08855 0.0
C1426 C 0.26911 0.95637 0.07773 0.0
C1427 C 0.2777 0.96878 0.05928 0.0
H1428 H 0.24183 0.95219 0.10277 0.0
H1429 H 0.30058 0.06123 0.92109 0.0
H1430 H 0.75619 0.69175 0.43742 0.0
H1431 H 0.73772 0.71294 0.46261 0.0
H1432 H 0.81718 0.73176 0.49724 0.0
H1433 H 0.8364 0.71168 0.47165 0.0
H1434 H 0.76673 0.70769 0.51956 0.0
H1435 H 0.81213 0.79386 0.47682 0.0
H1436 H 0.82347 0.82355 0.44677 0.0
H1437 H 0.72633 0.79408 0.44032 0.0
H1438 H 0.71454 0.76464 0.47069 0.0
H1439 H 0.75567 0.81689 0.58422 0.0
H1440 H 0.7733 0.79512 0.55872 0.0
H1441 H 0.68201 0.75247 0.53323 0.0
H1442 H 0.66365 0.77228 0.55963 0.0
H1443 H 0.73785 0.78845 0.50653 0.0
H1444 H 0.69527 0.7048 0.55248 0.0
H1445 H 0.68925 0.6823 0.58478 0.0
H1446 H 0.78688 0.71179 0.58596 0.0
H1447 H 0.79353 0.73487 0.55374 0.0
C1448 C 0.77011 0.70087 0.45024 0.0
C1449 C 0.79831 0.70054 0.45216 0.0
C1450 C 0.7594 0.71302 0.46477 0.0
C1451 C 0.77604 0.72455 0.48203 0.0
C1452 C 0.80376 0.72335 0.48418 0.0
C1453 C 0.81485 0.71185 0.46944 0.0
C1454 C 0.76429 0.73724 0.49781 0.0
C1455 C 0.76078 0.72558 0.51662 0.0
C1456 C 0.7559 0.76039 0.4944 0.0
C1457 C 0.76242 0.77676 0.47582 0.0
C1458 C 0.79315 0.79344 0.46887 0.0
C1459 C 0.79967 0.81034 0.45183 0.0
C1460 C 0.77558 0.81048 0.4415 0.0
C1461 C 0.74494 0.79385 0.44829 0.0
C1462 C 0.73834 0.77719 0.46547 0.0
C1463 C 0.73908 0.80223 0.57347 0.0
C1464 C 0.70789 0.79554 0.57441 0.0
C1465 C 0.74933 0.79003 0.5587 0.0
C1466 C 0.72907 0.77183 0.54392 0.0
C1467 C 0.69821 0.76622 0.5444 0.0
C1468 C 0.68768 0.77757 0.55955 0.0
C1469 C 0.74014 0.75873 0.52811 0.0
C1470 C 0.74358 0.77037 0.50936 0.0
C1471 C 0.74887 0.73592 0.53163 0.0
C1472 C 0.74495 0.72184 0.55084 0.0
C1473 C 0.7155 0.70672 0.55971 0.0
C1474 C 0.71196 0.69381 0.57798 0.0
C1475 C 0.73769 0.6957 0.58744 0.0
C1476 C 0.76698 0.71039 0.57863 0.0
C1477 C 0.77064 0.72336 0.56036 0.0
H1478 H 0.73491 0.68571 0.6016 0.0
H1479 H 0.78064 0.82366 0.42832 0.0
H1480 H 0.09924 0.27299 0.94991 0.0
H1481 H 0.05883 0.25255 0.97508 0.0
H1482 H 0.07369 0.34498 0.98427 0.0
H1483 H 0.11293 0.36506 0.9585 0.0
H1484 H 0.07109 0.3132 0.01898 0.0
H1485 H 1.01083 0.29502 0.96185 0.0
H1486 H 0.99286 0.27439 0.92939 0.0
H1487 H 0.9593 0.18121 0.94996 0.0
H1488 H 0.97768 0.20135 0.98248 0.0
H1489 H 0.94514 0.27586 0.08263 0.0
H1490 H 0.98394 0.29516 0.05708 0.0
H1491 H 0.94469 0.20175 0.03491 0.0
H1492 H 0.90424 0.1829 0.05983 0.0
H1493 H 0.96089 0.23391 1.00627 0.0
H1494 H 0.02576 0.25071 0.06214 0.0
H1495 H 0.0492 0.271 0.09389 0.0
H1496 H 0.07559 0.36384 0.07618 0.0
H1497 H 0.05354 0.34449 0.04412 0.0
C1498 C 0.09394 0.28893 0.95737 0.0
C1499 C 0.1095 0.32072 0.95228 0.0
C1500 C 0.07067 0.2772 0.97172 0.0
C1501 C 0.06295 0.2971 0.98178 0.0
C1502 C 0.07899 0.32899 0.97687 0.0
C1503 C 0.10148 0.3405 0.9621 0.0
C1504 C 0.03839 0.28486 0.99739 0.0
C1505 C 0.04692 0.29606 0.01614 0.0
C1506 C 1.00687 0.26186 0.99406 0.0
C1507 C 0.99583 0.24971 0.97455 0.0
C1508 C 0.99987 0.27015 0.95941 0.0
C1509 C 0.98956 0.25855 0.94101 0.0
C1510 C 0.97485 0.2265 0.93763 0.0
C1511 C 0.97063 0.20602 0.95261 0.0
C1512 C 0.98099 0.21751 0.97103 0.0
C1513 C 0.94469 0.25937 0.07228 0.0
C1514 C 0.92138 0.22772 0.07341 0.0
C1515 C 0.96746 0.27042 0.0577 0.0
C1516 C 0.96859 0.25009 0.04397 0.0
C1517 C 0.94503 0.21835 0.0451 0.0
C1518 C 0.92175 0.20741 0.05948 0.0
C1519 C 0.99345 0.26192 0.02826 0.0
C1520 C 0.98502 0.2508 1.00935 0.0
C1521 C 0.02531 0.28468 0.03151 0.0
C1522 C 0.03762 0.29612 0.05089 0.0
C1523 C 0.03633 0.2754 0.0651 0.0
C1524 C 0.04938 0.2867 0.0831 0.0
C1525 C 0.06326 0.31848 0.08715 0.0
C1526 C 0.06463 0.33919 0.07308 0.0
C1527 C 0.0521 0.32814 0.05495 0.0
H1528 H 0.07322 0.32707 0.10113 0.0
H1529 H 0.96674 0.21755 0.9234 0.0
H1530 H 0.27734 0.08373 0.44369 0.0
H1531 H 0.25787 0.04187 0.46723 0.0
H1532 H 0.35013 0.08256 0.49176 0.0
H1533 H 0.37034 0.12055 0.46552 0.0
H1534 H 0.33071 0.03013 0.49873 0.0
H1535 H 0.2708 0.08228 0.51003 0.0
H1536 H 0.2355 0.10177 0.50079 0.0
H1537 H 0.16552 1.00934 0.4843 0.0
H1538 H 0.2005 0.9894 0.49331 0.0
H1539 H 0.27823 0.94735 0.58738 0.0
H1540 H 0.29697 0.98731 0.56234 0.0
H1541 H 0.2113 0.93297 0.53118 0.0
H1542 H 0.19197 0.89352 0.55675 0.0
H1543 H 0.22649 0.99086 0.52805 0.0
H1544 H 0.28665 0.93954 0.51887 0.0
H1545 H 0.32199 0.92064 0.52903 0.0
H1546 H 0.39224 0.01405 0.54346 0.0
H1547 H 0.35716 0.03343 0.53357 0.0
C1548 C 0.29358 0.08318 0.45381 0.0
C1549 C 0.32554 0.10512 0.45234 0.0
C1550 C 0.28219 0.05961 0.46792 0.0
C1551 C 0.3018 0.05889 0.48239 0.0
C1552 C 0.33385 0.0817 0.48112 0.0
C1553 C 0.34556 0.10395 0.46615 0.0
C1554 C 0.28946 0.03447 0.49848 0.0
C1555 C 0.30813 0.02235 0.50526 0.0
C1556 C 0.25948 0.02255 0.50718 0.0
C1557 C 0.2383 0.03445 0.50222 0.0
C1558 C 0.24788 0.06617 0.50444 0.0
C1559 C 0.22795 0.07728 0.49922 0.0
C1560 C 0.19831 0.05682 0.49194 0.0
C1561 C 0.18847 0.02517 0.48994 0.0
C1562 C 0.2083 0.01394 0.49512 0.0
C1563 C 0.26327 0.94388 0.57522 0.0
C1564 C 0.23347 0.917 0.5742 0.0
C1565 C 0.2742 0.96678 0.5607 0.0
C1566 C 0.25606 0.96332 0.54434 0.0
C1567 C 0.2261 0.93655 0.54343 0.0
C1568 C 0.21502 0.91377 0.55809 0.0
C1569 C 0.26806 0.98746 0.52834 0.0
C1570 C 0.24924 0.99923 0.52156 0.0
C1571 C 0.29805 0.99945 0.5199 0.0
C1572 C 0.31923 0.98786 0.52561 0.0
C1573 C 0.30959 0.956 0.52429 0.0
C1574 C 0.32957 0.94521 0.52999 0.0
C1575 C 0.35932 0.96612 0.53692 0.0
C1576 C 0.36919 0.99788 0.5381 0.0
C1577 C 0.34929 1.00878 0.53243 0.0
H1578 H 0.37475 0.95772 0.54134 0.0
H1579 H 0.18295 0.06548 0.48786 0.0
H1580 H 0.76515 0.65652 0.06433 0.0
H1581 H 0.74657 0.67648 0.0382 0.0
H1582 H 0.81387 0.7706 0.05416 0.0
H1583 H 0.83333 0.75052 0.07973 0.0
H1584 H 0.75621 0.76469 0.0471 0.0
H1585 H 0.82478 0.73876 0.01432 0.0
H1586 H 0.846 0.70577 1.00347 0.0
H1587 H 0.7584 0.64261 0.97714 0.0
H1588 H 0.73648 0.67499 0.98811 0.0
H1589 H 0.732 0.83952 0.96649 0.0
H1590 H 0.75332 0.8213 0.99175 0.0
H1591 H 0.7055 0.72885 0.96758 0.0
H1592 H 0.68583 0.7477 0.94172 0.0
H1593 H 0.75427 0.7342 0.97937 0.0
H1594 H 0.68433 0.75849 0.01308 0.0
H1595 H 0.66268 0.79101 0.02424 0.0
H1596 H 0.75085 0.85563 0.04941 0.0
H1597 H 0.77312 0.82371 0.03816 0.0
C1598 C 0.77613 0.68147 0.06217 0.0
C1599 C 0.80089 0.70185 0.07412 0.0
C1600 C 0.7655 0.69295 0.04715 0.0
C1601 C 0.77876 0.72526 0.04387 0.0
C1602 C 0.80315 0.74563 0.05611 0.0
C1603 C 0.8144 0.73411 0.07075 0.0
C1604 C 0.76715 0.73774 0.02787 0.0
C1605 C 0.75612 0.75824 0.03226 0.0
C1606 C 0.76609 0.72905 1.0084 0.0
C1607 C 0.77889 0.70909 1.00223 0.0
C1608 C 0.80992 0.71762 1.00642 0.0
C1609 C 0.8221 0.69908 1.0002 0.0
C1610 C 0.80353 0.67206 0.98967 0.0
C1611 C 0.77273 0.66351 0.98534 0.0
C1612 C 0.76041 0.68195 0.99156 0.0
C1613 C 0.726 0.81529 0.96656 0.0
C1614 C 0.70694 0.79517 0.95199 0.0
C1615 C 0.738 0.80462 0.98127 0.0
C1616 C 0.73063 0.77312 0.98236 0.0
C1617 C 0.71179 0.75316 0.96756 0.0
C1618 C 0.70028 0.76397 0.95267 0.0
C1619 C 0.74272 0.76103 0.9985 0.0
C1620 C 0.75399 0.74059 0.99417 0.0
C1621 C 0.74368 0.76953 0.01809 0.0
C1622 C 0.73044 0.7889 0.02461 0.0
C1623 C 0.69914 0.77977 0.02086 0.0
C1624 C 0.68676 0.79807 0.02722 0.0
C1625 C 0.7054 0.82541 0.03748 0.0
C1626 C 0.73645 0.83449 0.04142 0.0
C1627 C 0.74896 0.8163 0.03507 0.0
H1628 H 0.69575 0.83952 0.04242 0.0
H1629 H 0.81305 0.65779 0.98481 0.0
H1630 H 0.07407 0.32932 0.58926 0.0
H1631 H 0.03435 0.30798 0.56411 0.0
H1632 H 0.09555 0.29041 0.52911 0.0
H1633 H 0.13491 0.3106 0.55468 0.0
H1634 H 0.06839 0.31404 0.50696 0.0
H1635 H 0.02846 0.22723 0.54953 0.0
H1636 H 1.01043 0.19754 0.57963 0.0
H1637 H 0.9426 0.22666 0.58658 0.0
H1638 H 0.95989 0.25604 0.55617 0.0
H1639 H 0.941 0.19698 0.44601 0.0
H1640 H 0.98111 0.21842 0.47123 0.0
H1641 H 0.94466 0.27624 0.49086 0.0
H1642 H 0.90623 0.25672 0.46465 0.0
H1643 H 0.95919 0.23196 0.52025 0.0
H1644 H 1.00013 0.31722 0.47457 0.0
H1645 H 1.01626 0.33953 0.44221 0.0
H1646 H 0.08377 0.30933 0.4404 0.0
H1647 H 0.06743 0.28612 0.4726 0.0
C1648 C 0.07898 0.32044 0.57637 0.0
C1649 C 0.10769 0.32113 0.57436 0.0
C1650 C 0.05609 0.3082 0.56185 0.0
C1651 C 0.06133 0.29696 0.54451 0.0
C1652 C 0.09043 0.29857 0.54224 0.0
C1653 C 0.11306 0.31014 0.55697 0.0
C1654 C 0.03677 0.28408 0.52878 0.0
C1655 C 0.04464 0.29592 0.50998 0.0
C1656 C 1.00536 0.26051 0.53223 0.0
C1657 C 0.99573 0.24412 0.5508 0.0
C1658 C 1.00993 0.22755 0.55761 0.0
C1659 C 0.99974 0.21067 0.57467 0.0
C1660 C 0.97558 0.21048 0.58516 0.0
C1661 C 0.9614 0.22696 0.57849 0.0
C1662 C 0.97126 0.24359 0.56129 0.0
C1663 C 0.94168 0.21445 0.45561 0.0
C1664 C 0.92054 0.22537 0.45309 0.0
C1665 C 0.96465 0.22668 0.4701 0.0
C1666 C 0.96628 0.24921 0.48307 0.0
C1667 C 0.94428 0.25914 0.48106 0.0
C1668 C 0.92219 0.24788 0.46606 0.0
C1669 C 0.99079 0.26225 0.49867 0.0
C1670 C 0.98291 0.25029 0.51736 0.0
C1671 C 0.02221 0.28544 0.49506 0.0
C1672 C 0.03217 0.29945 0.47581 0.0
C1673 C 0.01807 0.31491 0.46714 0.0
C1674 C 0.02732 0.32781 0.44886 0.0
C1675 C 0.05092 0.32572 0.43921 0.0
C1676 C 0.0654 0.31082 0.44786 0.0
C1677 C 0.05613 0.29776 0.46611 0.0
H1678 H 0.05809 0.33576 0.42506 0.0
H1679 H 0.96767 0.19743 0.59838 0.0
H1680 H 0.66523 0.14457 0.13948 0.0
H1681 H 0.61268 0.13722 0.14086 0.0
H1682 H 0.64104 0.21643 0.10366 0.0
H1683 H 0.69397 0.22423 0.10231 0.0
H1684 H 0.60327 0.21487 0.13467 0.0
H1685 H 0.59961 0.15098 0.08376 0.0
H1686 H 0.60815 0.1124 0.06667 0.0
H1687 H 0.55021 0.04201 0.10747 0.0
H1688 H 0.54162 0.08036 0.12494 0.0
H1689 H 0.45216 0.18399 0.11161 0.0
H1690 H 0.50483 0.19304 0.11023 0.0
H1691 H 0.47557 0.10648 0.14019 0.0
H1692 H 0.42147 0.09647 0.14091 0.0
H1693 H 0.5151 0.11378 0.11278 0.0
H1694 H 0.5166 0.18441 0.16163 0.0
H1695 H 0.50826 0.22647 0.17365 0.0
H1696 H 0.57158 0.28911 0.13126 0.0
H1697 H 0.57979 0.24731 0.11874 0.0
C1698 C 0.66056 0.16079 0.1318 0.0
C1699 C 0.68405 0.18506 0.12081 0.0
C1700 C 0.63035 0.15637 0.13249 0.0
C1701 C 0.62281 0.17615 0.12229 0.0
C1702 C 0.64629 0.20088 0.11167 0.0
C1703 C 0.67651 0.20515 0.11081 0.0
C1704 C 0.59015 0.17022 0.1224 0.0
C1705 C 0.58397 0.19289 0.12976 0.0
C1706 C 0.56496 0.14163 0.11596 0.0
C1707 C 0.57031 0.11857 0.10577 0.0
C1708 C 0.58897 0.12735 0.0892 0.0
C1709 C 0.59374 0.10552 0.07941 0.0
C1710 C 0.57982 0.0748 0.08602 0.0
C1711 C 0.56103 0.06584 0.1024 0.0
C1712 C 0.55618 0.0876 0.11224 0.0
C1713 C 0.45671 0.16674 0.11803 0.0
C1714 C 0.43255 0.13969 0.12675 0.0
C1715 C 0.48713 0.17217 0.11732 0.0
C1716 C 0.49472 0.15116 0.12576 0.0
C1717 C 0.47048 0.12341 0.13386 0.0
C1718 C 0.43956 0.11761 0.13427 0.0
C1719 C 0.5278 0.15805 0.12559 0.0
C1720 C 0.5342 0.13562 0.11802 0.0
C1721 C 0.55323 0.18734 0.13136 0.0
C1722 C 0.54863 0.21261 0.13917 0.0
C1723 C 0.52861 0.2071 0.15481 0.0
C1724 C 0.52388 0.23091 0.1617 0.0
C1725 C 0.53928 0.26042 0.15318 0.0
C1726 C 0.55956 0.26623 0.13781 0.0
C1727 C 0.56428 0.24249 0.13083 0.0
H1728 H 0.53556 0.27881 0.15852 0.0
H1729 H 0.58351 0.0579 0.07841 0.0
H1730 H 0.71109 0.59495 0.37025 0.0
H1731 H 0.66949 0.54003 0.37144 0.0
H1732 H 0.69274 0.53417 0.43028 0.0
H1733 H 0.73491 0.58848 0.42873 0.0
H1734 H 0.68355 0.48426 0.41266 0.0
H1735 H 0.62496 0.53785 0.41682 0.0
H1736 H 0.6111 0.57666 0.40574 0.0
H1737 H 0.58233 0.53012 0.35151 0.0
H1738 H 0.59632 0.49122 0.36224 0.0
H1739 H 0.54554 0.34012 0.43547 0.0
H1740 H 0.58955 0.39304 0.43356 0.0
H1741 H 0.56286 0.40158 0.37609 0.0
H1742 H 0.51722 0.34992 0.37852 0.0
H1743 H 0.57502 0.45042 0.39313 0.0
H1744 H 0.63044 0.39375 0.39026 0.0
H1745 H 0.6487 0.35797 0.40055 0.0
H1746 H 0.68605 0.41089 0.45206 0.0
H1747 H 0.6675 0.44666 0.44226 0.0
C1748 C 0.70659 0.58209 0.38354 0.0
C1749 C 0.72542 0.5961 0.39957 0.0
C1750 C 0.68299 0.55063 0.38423 0.0
C1751 C 0.67752 0.53281 0.40107 0.0
C1752 C 0.69626 0.54718 0.41714 0.0
C1753 C 0.72003 0.57837 0.41635 0.0
C1754 C 0.65241 0.49927 0.40203 0.0
C1755 C 0.65969 0.47684 0.4086 0.0
C1756 C 0.62141 0.4893 0.39642 0.0
C1757 C 0.61173 0.51177 0.39029 0.0
C1758 C 0.61563 0.53592 0.40255 0.0
C1759 C 0.60781 0.55794 0.39632 0.0
C1760 C 0.59586 0.55587 0.37793 0.0
C1761 C 0.59155 0.53168 0.36576 0.0
C1762 C 0.59935 0.5096 0.37191 0.0
C1763 C 0.5487 0.35321 0.42243 0.0
C1764 C 0.52719 0.34031 0.40722 0.0
C1765 C 0.57446 0.38352 0.42123 0.0
C1766 C 0.58005 0.40158 0.40458 0.0
C1767 C 0.55928 0.38837 0.38915 0.0
C1768 C 0.5332 0.35838 0.39048 0.0
C1769 C 0.60597 0.43489 0.40359 0.0
C1770 C 0.59881 0.45749 0.39713 0.0
C1771 C 0.63706 0.44486 0.40939 0.0
C1772 C 0.64723 0.42268 0.41561 0.0
C1773 C 0.64218 0.39753 0.40389 0.0
C1774 C 0.65266 0.37729 0.40962 0.0
C1775 C 0.66845 0.38211 0.42697 0.0
C1776 C 0.67374 0.40714 0.43865 0.0
C1777 C 0.66323 0.42738 0.43302 0.0
H1778 H 0.67666 0.36649 0.43134 0.0
H1779 H 0.58991 0.57301 0.37311 0.0
H1780 H 0.85585 0.28344 0.15292 0.0
H1781 H 0.84511 0.32633 0.15075 0.0
H1782 H 0.9087 0.36434 0.10289 0.0
H1783 H 0.92117 0.32249 0.10612 0.0
H1784 H 0.91557 0.40926 0.12138 0.0
H1785 H 0.82028 0.3189 0.10098 0.0
H1786 H 0.77451 0.26603 0.10365 0.0
H1787 H 0.74404 0.29339 0.15379 0.0
H1788 H 0.78978 0.3463 0.15155 0.0
H1789 H 0.86696 0.51292 0.09056 0.0
H1790 H 0.87267 0.46703 0.09233 0.0
H1791 H 0.82263 0.44094 0.14591 0.0
H1792 H 0.8152 0.48621 0.14374 0.0
H1793 H 0.80707 0.38948 0.12424 0.0
H1794 H 0.90362 0.47886 0.14462 0.0
H1795 H 0.94847 0.53208 0.14098 0.0
H1796 H 0.97512 0.50515 0.08905 0.0
H1797 H 0.93021 0.45185 0.0923 0.0
C1798 C 0.86807 0.30141 0.14222 0.0
C1799 C 0.88973 0.29991 0.12989 0.0
C1800 C 0.8614 0.32565 0.14069 0.0
C1801 C 0.87518 0.34836 0.12622 0.0
C1802 C 0.8975 0.34723 0.11417 0.0
C1803 C 0.9049 0.32344 0.11609 0.0
C1804 C 0.86721 0.37377 0.12402 0.0
C1805 C 0.89171 0.40457 0.12166 0.0
C1806 C 0.83615 0.36835 0.12487 0.0
C1807 C 0.80862 0.3365 0.12618 0.0
C1808 C 0.80392 0.31358 0.11264 0.0
C1809 C 0.77796 0.2836 0.11407 0.0
C1810 C 0.75645 0.27634 0.12892 0.0
C1811 C 0.76076 0.29904 0.14232 0.0
C1812 C 0.78666 0.32903 0.14096 0.0
C1813 C 0.85649 0.49722 0.10258 0.0
C1814 C 0.84057 0.50362 0.11702 0.0
C1815 C 0.86015 0.47101 0.10367 0.0
C1816 C 0.84863 0.45064 0.11943 0.0
C1817 C 0.83194 0.45632 0.13364 0.0
C1818 C 0.82802 0.48251 0.13248 0.0
C1819 C 0.85544 0.42449 0.12143 0.0
C1820 C 0.8308 0.39377 0.12382 0.0
C1821 C 0.88627 0.42976 0.12041 0.0
C1822 C 0.91353 0.46153 0.11864 0.0
C1823 C 0.91901 0.48437 0.1324 0.0
C1824 C 0.94443 0.51452 0.1304 0.0
C1825 C 0.96461 0.52201 0.11478 0.0
C1826 C 0.95947 0.49932 0.10114 0.0
C1827 C 0.93408 0.46914 0.10307 0.0
H1828 H 0.98425 0.54538 0.11324 0.0
H1829 H 0.73641 0.25317 0.13006 0.0
H1830 H 0.42748 0.11991 0.42734 0.0
H1831 H 0.48233 0.13321 0.42969 0.0
H1832 H 0.49759 0.16613 0.37127 0.0
H1833 H 0.44294 0.15308 0.36908 0.0
H1834 H 0.52569 0.13443 0.3768 0.0
H1835 H 0.52349 0.21669 0.4081 0.0
H1836 H 0.50778 0.24478 0.43045 0.0
H1837 H 0.53527 0.20918 0.47812 0.0
H1838 H 0.55061 0.18036 0.45604 0.0
H1839 H 0.69131 0.20819 0.3805 0.0
H1840 H 0.63919 0.20197 0.37856 0.0
H1841 H 0.61727 0.1598 0.43461 0.0
H1842 H 0.66901 0.16542 0.4366 0.0
H1843 H 0.59379 0.19973 0.42964 0.0
H1844 H 0.59381 0.11526 0.39292 0.0
H1845 H 0.61361 0.09575 0.36714 0.0
H1846 H 0.5938 0.14745 0.32557 0.0
H1847 H 0.57427 0.16754 0.35115 0.0
C1848 C 0.44239 0.12905 0.41485 0.0
C1849 C 0.43082 0.13449 0.3978 0.0
C1850 C 0.47388 0.13723 0.4163 0.0
C1851 C 0.49436 0.15098 0.40071 0.0
C1852 C 0.4824 0.15553 0.3835 0.0
C1853 C 0.4511 0.14775 0.38216 0.0
C1854 C 0.52808 0.1602 0.40213 0.0
C1855 C 0.54053 0.14899 0.38829 0.0
C1856 C 0.54786 0.17948 0.41697 0.0
C1857 C 0.53776 0.19593 0.4304 0.0
C1858 C 0.52576 0.21444 0.42336 0.0
C1859 C 0.51702 0.2306 0.43598 0.0
C1860 C 0.52041 0.22867 0.4557 0.0
C1861 C 0.53256 0.21057 0.46283 0.0
C1862 C 0.54126 0.1943 0.45027 0.0
C1863 C 0.67546 0.19745 0.39242 0.0
C1864 C 0.6847 0.18717 0.40866 0.0
C1865 C 0.64558 0.19405 0.39132 0.0
C1866 C 0.62395 0.18004 0.40635 0.0
C1867 C 0.6334 0.17073 0.42282 0.0
C1868 C 0.66323 0.17408 0.42393 0.0
C1869 C 0.59099 0.17337 0.40452 0.0
C1870 C 0.57873 0.18508 0.41826 0.0
C1871 C 0.57157 0.15552 0.38919 0.0
C1872 C 0.58284 0.14302 0.37391 0.0
C1873 C 0.59382 0.12253 0.37828 0.0
C1874 C 0.60499 0.11138 0.36371 0.0
C1875 C 0.60502 0.1204 0.34473 0.0
C1876 C 0.59379 0.1405 0.34027 0.0
C1877 C 0.58266 0.15175 0.35478 0.0
H1878 H 0.6137 0.11176 0.33347 0.0
H1879 H 0.51373 0.24128 0.46545 0.0
H1880 H 0.4962 0.36708 0.10951 0.0
H1881 H 0.54128 0.4194 0.1121 0.0
H1882 H 0.59843 0.38017 0.12878 0.0
H1883 H 0.55238 0.32762 0.12738 0.0
H1884 H 0.61764 0.42775 0.14785 0.0
H1885 H 0.60286 0.41461 0.08212 0.0
H1886 H 0.57654 0.40096 0.05079 0.0
H1887 H 0.55155 0.47181 0.05764 0.0
H1888 H 0.57744 0.48565 0.08916 0.0
H1889 H 0.75605 0.57075 0.13225 0.0
H1890 H 0.71283 0.51851 0.12915 0.0
H1891 H 0.64935 0.55391 0.12451 0.0
H1892 H 0.6937 0.60771 0.12644 0.0
H1893 H 0.63601 0.50771 0.09878 0.0
H1894 H 0.6606 0.51792 0.16809 0.0
H1895 H 0.69875 0.53018 0.19409 0.0
H1896 H 0.71883 0.46071 0.17303 0.0
H1897 H 0.68103 0.44825 0.14685 0.0
C1898 C 0.5184 0.36968 0.11379 0.0
C1899 C 0.52084 0.34332 0.11819 0.0
C1900 C 0.54436 0.39965 0.11506 0.0
C1901 C 0.5738 0.40413 0.12016 0.0
C1902 C 0.57617 0.37766 0.12477 0.0
C1903 C 0.54988 0.34757 0.12395 0.0
C1904 C 0.6016 0.43646 0.12111 0.0
C1905 C 0.62163 0.445 0.13696 0.0
C1906 C 0.60777 0.45931 0.10686 0.0
C1907 C 0.59176 0.45091 0.08808 0.0
C1908 C 0.59149 0.42708 0.07703 0.0
C1909 C 0.57672 0.41936 0.05922 0.0
C1910 C 0.56229 0.43545 0.05226 0.0
C1911 C 0.56268 0.45934 0.06308 0.0
C1912 C 0.57743 0.46716 0.0809 0.0
C1913 C 0.733 0.56789 0.13073 0.0
C1914 C 0.72855 0.59388 0.12984 0.0
C1915 C 0.70807 0.53758 0.12909 0.0
C1916 C 0.67752 0.53189 0.1272 0.0
C1917 C 0.67269 0.55762 0.12625 0.0
C1918 C 0.698 0.58839 0.12752 0.0
C1919 C 0.65101 0.49907 0.12581 0.0
C1920 C 0.63149 0.49041 0.10974 0.0
C1921 C 0.64656 0.47565 0.13925 0.0
C1922 C 0.668 0.48217 0.15558 0.0
C1923 C 0.67309 0.50521 0.16908 0.0
C1924 C 0.6947 0.51223 0.1838 0.0
C1925 C 0.71118 0.49622 0.18521 0.0
C1926 C 0.706 0.47304 0.17195 0.0
C1927 C 0.68443 0.46593 0.15721 0.0
H1928 H 0.72798 0.50178 0.19658 0.0
H1929 H 0.55088 0.42945 0.03846 0.0
H1930 H 0.79355 0.47078 0.41485 0.0
H1931 H 0.80069 0.42531 0.41259 0.0
H1932 H 0.89861 0.48642 0.40061 0.0
H1933 H 0.89071 0.5313 0.4014 0.0
H1934 H 0.88021 0.44068 0.37879 0.0
H1935 H 0.85853 0.44383 0.44806 0.0
H1936 H 0.82475 0.44014 0.47516 0.0
H1937 H 0.75348 0.35032 0.45555 0.0
H1938 H 0.78665 0.35367 0.42826 0.0
H1939 H 0.93602 0.33408 0.3955 0.0
H1940 H 0.92662 0.3784 0.39792 0.0
H1941 H 0.82808 0.31436 0.40471 0.0
H1942 H 0.83695 0.27086 0.40241 0.0
H1943 H 0.84441 0.35916 0.42905 0.0
H1944 H 0.85484 0.35024 0.36303 0.0
H1945 H 0.87845 0.34585 0.33298 0.0
H1946 H 0.95764 0.43698 0.34195 0.0
H1947 H 0.93466 0.44167 0.37228 0.0
C1948 C 0.8165 0.47428 0.41165 0.0
C1949 C 0.84157 0.50443 0.4082 0.0
C1950 C 0.82074 0.44832 0.4106 0.0
C1951 C 0.85045 0.45215 0.40686 0.0
C1952 C 0.87543 0.48252 0.40352 0.0
C1953 C 0.87098 0.50825 0.404 0.0
C1954 C 0.85591 0.425 0.40576 0.0
C1955 C 0.8729 0.42333 0.39007 0.0
C1956 C 0.84474 0.40082 0.41969 0.0
C1957 C 0.82496 0.39916 0.43607 0.0
C1958 C 0.83559 0.42341 0.44949 0.0
C1959 C 0.81654 0.42135 0.46488 0.0
C1960 C 0.78697 0.39505 0.46705 0.0
C1961 C 0.77636 0.37071 0.45385 0.0
C1962 C 0.79526 0.37268 0.43843 0.0
C1963 C 0.91242 0.32957 0.39743 0.0
C1964 C 0.88735 0.2988 0.39848 0.0
C1965 C 0.90702 0.35486 0.39883 0.0
C1966 C 0.87654 0.34975 0.40148 0.0
C1967 C 0.85176 0.31908 0.40276 0.0
C1968 C 0.85702 0.29408 0.40122 0.0
C1969 C 0.86987 0.37595 0.40261 0.0
C1970 C 0.85229 0.37705 0.41806 0.0
C1971 C 0.87922 0.39879 0.3881 0.0
C1972 C 0.89328 0.39614 0.37001 0.0
C1973 C 0.87745 0.36921 0.35869 0.0
C1974 C 0.89067 0.36668 0.3416 0.0
C1975 C 0.91959 0.39108 0.3356 0.0
C1976 C 0.93529 0.41808 0.34666 0.0
C1977 C 0.92219 0.42068 0.3638 0.0
H1978 H 0.92978 0.38911 0.32234 0.0
H1979 H 0.77229 0.3935 0.47898 0.0
H1980 H 0.21729 0.68197 0.59232 0.0
H1981 H 0.2095 0.62937 0.59397 0.0
H1982 H 0.16416 0.61535 0.64872 0.0
H1983 H 0.17085 0.66754 0.647 0.0
H1984 H 0.2051 0.59179 0.64758 0.0
H1985 H 0.12219 0.58759 0.60574 0.0
H1986 H 0.10493 0.60325 0.57675 0.0
H1987 H 0.15733 0.57478 0.54152 0.0
H1988 H 0.17514 0.5593 0.5703 0.0
H1989 H 0.12787 0.42721 0.6573 0.0
H1990 H 0.14071 0.48202 0.65537 0.0
H1991 H 0.16619 0.48496 0.59595 0.0
H1992 H 0.15263 0.43039 0.59785 0.0
H1993 H 0.13899 0.51556 0.59816 0.0
H1994 H 0.22149 0.51882 0.63179 0.0
H1995 H 0.25075 0.50726 0.65578 0.0
H1996 H 0.21645 0.54185 0.70037 0.0
H1997 H 0.18653 0.55315 0.67665 0.0
C1998 C 0.20541 0.66778 0.6047 0.0
C1999 C 0.19439 0.67931 0.61941 0.0
C2000 C 0.20113 0.6376 0.60565 0.0
C2001 C 0.18578 0.61807 0.62134 0.0
C2002 C 0.17599 0.62988 0.63643 0.0
C2003 C 0.18004 0.65997 0.63544 0.0
C2004 C 0.17876 0.585 0.6218 0.0
C2005 C 0.19023 0.57496 0.63696 0.0
C2006 C 0.16109 0.56337 0.6073 0.0
C2007 C 0.15012 0.57253 0.59013 0.0
C2008 C 0.13012 0.58484 0.59181 0.0
C2009 C 0.12024 0.59366 0.57542 0.0
C2010 C 0.13007 0.59007 0.55731 0.0
C2011 C 0.14975 0.57758 0.55554 0.0
C2012 C 0.15971 0.56876 0.57187 0.0
C2013 C 0.13521 0.43941 0.64373 0.0
C2014 C 0.13837 0.42444 0.62757 0.0
C2015 C 0.14315 0.47089 0.64268 0.0
C2016 C 0.1548 0.48799 0.62553 0.0
C2017 C 0.15714 0.47252 0.60932 0.0
C2018 C 0.14915 0.44122 0.61036 0.0
C2019 C 0.16447 0.52184 0.62433 0.0
C2020 C 0.15368 0.53213 0.60895 0.0
C2021 C 0.18431 0.54403 0.63802 0.0
C2022 C 0.20136 0.53638 0.65248 0.0
C2023 C 0.21982 0.52355 0.64674 0.0
C2024 C 0.23661 0.51715 0.66029 0.0
C2025 C 0.23535 0.5237 0.67961 0.0
C2026 C 0.21731 0.53669 0.68541 0.0
C2027 C 0.20041 0.54309 0.67192 0.0
H2028 H 0.24845 0.51881 0.69007 0.0
H2029 H 0.12239 0.59691 0.54464 0.0
H2030 H 0.3062 0.88387 0.92916 0.0
H2031 H 0.34752 0.87066 0.93125 0.0
H2032 H 0.35679 0.87619 0.86971 0.0
H2033 H 0.31427 0.88823 0.86769 0.0
H2034 H 0.35742 0.82562 0.88296 0.0
H2035 H 0.41184 0.93548 0.90175 0.0
H2036 H 0.41662 0.97862 0.9218 0.0
H2037 H 0.41771 0.92997 0.97248 0.0
H2038 H 0.41263 0.88644 0.95273 0.0
H2039 H 0.50924 0.83967 0.87684 0.0
H2040 H 0.46292 0.84491 0.87493 0.0
H2041 H 0.45072 0.83287 0.93598 0.0
H2042 H 0.4953 0.82512 0.93805 0.0
H2043 H 0.45046 0.88512 0.92399 0.0
H2044 H 0.39939 0.77892 0.9096 0.0
H2045 H 0.38574 0.72891 0.89438 0.0
H2046 H 0.3705 0.76196 0.84088 0.0
H2047 H 0.38469 0.8125 0.8557 0.0
C2048 C 0.31779 0.88322 0.91614 0.0
C2049 C 0.30805 0.88836 0.89832 0.0
C2050 C 0.34131 0.87547 0.91731 0.0
C2051 C 0.35598 0.87305 0.90067 0.0
C2052 C 0.34619 0.87824 0.88279 0.0
C2053 C 0.32232 0.88567 0.88162 0.0
C2054 C 0.38117 0.86474 0.90195 0.0
C2055 C 0.37813 0.83907 0.89157 0.0
C2056 C 0.40739 0.88103 0.91406 0.0
C2057 C 0.41183 0.90777 0.92579 0.0
C2058 C 0.41315 0.93406 0.91717 0.0
C2059 C 0.41585 0.95853 0.92848 0.0
C2060 C 0.41745 0.95703 0.9484 0.0
C2061 C 0.41651 0.93113 0.95705 0.0
C2062 C 0.4138 0.90659 0.94581 0.0
C2063 C 0.49646 0.83722 0.8899 0.0
C2064 C 0.50702 0.83242 0.90769 0.0
C2065 C 0.46987 0.84046 0.88874 0.0
C2066 C 0.45336 0.83957 0.90533 0.0
C2067 C 0.46318 0.83398 0.92298 0.0
C2068 C 0.4892 0.82995 0.92411 0.0
C2069 C 0.4273 0.84659 0.90449 0.0
C2070 C 0.43006 0.8719 0.91508 0.0
C2071 C 0.40044 0.82937 0.89301 0.0
C2072 C 0.39369 0.79977 0.88369 0.0
C2073 C 0.39375 0.7758 0.89449 0.0
C2074 C 0.38575 0.74727 0.88596 0.0
C2075 C 0.3774 0.74231 0.86665 0.0
C2076 C 0.3771 0.76589 0.85582 0.0
C2077 C 0.38516 0.79451 0.86428 0.0
H2078 H 0.37103 0.72013 0.8601 0.0
H2079 H 0.41944 0.97596 0.95713 0.0
H2080 H 0.60497 0.69727 0.65046 0.0
H2081 H 0.55042 0.65445 0.64984 0.0
H2082 H 0.53335 0.69538 0.6 0.0
H2083 H 0.58691 0.73832 0.60114 0.0
H2084 H 0.48702 0.6781 0.62208 0.0
H2085 H 0.54019 0.62732 0.59785 0.0
H2086 H 0.58076 0.61235 0.5983 0.0
H2087 H 0.54429 0.56352 0.6514 0.0
H2088 H 0.50368 0.57852 0.65134 0.0
H2089 H 0.34164 0.5437 0.59501 0.0
H2090 H 0.39469 0.58799 0.59667 0.0
H2091 H 0.41084 0.55007 0.64816 0.0
H2092 H 0.35867 0.50486 0.64598 0.0
H2093 H 0.45747 0.56672 0.62518 0.0
H2094 H 0.39947 0.61666 0.64577 0.0
H2095 H 0.36192 0.63539 0.64322 0.0
H2096 H 0.40886 0.68793 0.59288 0.0
H2097 H 0.44633 0.66906 0.59491 0.0
C2098 C 0.58962 0.69666 0.63923 0.0
C2099 C 0.60016 0.72095 0.62581 0.0
C2100 C 0.55841 0.67228 0.63887 0.0
C2101 C 0.53754 0.67145 0.62479 0.0
C2102 C 0.54861 0.69541 0.61112 0.0
C2103 C 0.5794 0.71984 0.61168 0.0
C2104 C 0.50415 0.64592 0.62417 0.0
C2105 C 0.48057 0.65371 0.62255 0.0
C2106 C 0.49547 0.61408 0.62487 0.0
C2107 C 0.51909 0.60415 0.62465 0.0
C2108 C 0.54088 0.61342 0.60963 0.0
C2109 C 0.56388 0.60496 0.60982 0.0
C2110 C 0.56513 0.58703 0.62489 0.0
C2111 C 0.54328 0.5774 0.63974 0.0
C2112 C 0.52024 0.58582 0.63962 0.0
C2113 C 0.35643 0.54462 0.60669 0.0
C2114 C 0.34553 0.52033 0.62033 0.0
C2115 C 0.38677 0.57033 0.60776 0.0
C2116 C 0.40692 0.57274 0.62266 0.0
C2117 C 0.39586 0.54894 0.63652 0.0
C2118 C 0.36571 0.52312 0.63537 0.0
C2119 C 0.44008 0.59877 0.62331 0.0
C2120 C 0.46375 0.59106 0.62479 0.0
C2121 C 0.44876 0.6307 0.62195 0.0
C2122 C 0.42549 0.64111 0.62038 0.0
C2123 C 0.40154 0.63186 0.63401 0.0
C2124 C 0.38031 0.64258 0.63269 0.0
C2125 C 0.38294 0.66276 0.61787 0.0
C2126 C 0.40678 0.67223 0.60432 0.0
C2127 C 0.428 0.6615 0.60555 0.0
H2128 H 0.36657 0.67114 0.61693 0.0
H2129 H 0.58301 0.58056 0.62504 0.0
H2130 H 0.22176 0.6886 0.88335 0.0
H2131 H 0.21555 0.6365 0.88136 0.0
H2132 H 0.15859 0.60897 0.9323 0.0
H2133 H 0.16477 0.66089 0.93444 0.0
H2134 H 0.19663 0.58475 0.93272 0.0
H2135 H 0.12777 0.59135 0.8843 0.0
H2136 H 0.11849 0.6146 0.85556 0.0
H2137 H 0.18261 0.59777 0.82345 0.0
H2138 H 0.1925 0.57479 0.85207 0.0
H2139 H 0.11491 0.41864 0.92265 0.0
H2140 H 0.12815 0.47346 0.92556 0.0
H2141 H 0.18393 0.49607 0.87423 0.0
H2142 H 0.17117 0.44169 0.87156 0.0
H2143 H 0.15022 0.52377 0.87357 0.0
H2144 H 0.21893 0.5161 0.91584 0.0
H2145 H 0.23854 0.49728 0.94204 0.0
H2146 H 0.18848 0.52024 0.98299 0.0
H2147 H 0.16801 0.53864 0.95695 0.0
C2148 C 0.20782 0.67149 0.89412 0.0
C2149 C 0.19365 0.67919 0.90899 0.0
C2150 C 0.2043 0.64159 0.89298 0.0
C2151 C 0.18608 0.61837 0.90649 0.0
C2152 C 0.17273 0.62628 0.92166 0.0
C2153 C 0.17638 0.65618 0.92288 0.0
C2154 C 0.17969 0.58554 0.90447 0.0
C2155 C 0.186 0.57125 0.91991 0.0
C2156 C 0.16735 0.56817 0.88743 0.0
C2157 C 0.161 0.58161 0.8703 0.0
C2158 C 0.13994 0.59275 0.87112 0.0
C2159 C 0.13459 0.60587 0.85486 0.0
C2160 C 0.14999 0.60771 0.8377 0.0
C2161 C 0.17072 0.59636 0.83674 0.0
C2162 C 0.17618 0.58328 0.85296 0.0
C2163 C 0.12924 0.43522 0.91173 0.0
C2164 C 0.14137 0.42583 0.89659 0.0
C2165 C 0.13726 0.46662 0.91357 0.0
C2166 C 0.15727 0.48907 0.90019 0.0
C2167 C 0.16847 0.47933 0.88474 0.0
C2168 C 0.16095 0.44819 0.88311 0.0
C2169 C 0.16625 0.52262 0.902 0.0
C2170 C 0.16057 0.53707 0.8865 0.0
C2171 C 0.18028 0.54038 0.9187 0.0
C2172 C 0.19147 0.52825 0.93439 0.0
C2173 C 0.21164 0.51665 0.93039 0.0
C2174 C 0.22303 0.50618 0.94522 0.0
C2175 C 0.21465 0.50744 0.96416 0.0
C2176 C 0.19485 0.51917 0.9683 0.0
C2177 C 0.18332 0.5296 0.9535 0.0
H2178 H 0.22358 0.49944 0.97564 0.0
H2179 H 0.14583 0.61789 0.82513 0.0
H2180 H 0.32493 0.91152 0.60267 0.0
H2181 H 0.36684 0.89873 0.59975 0.0
H2182 H 0.33521 0.84484 0.65188 0.0
H2183 H 0.29329 0.85718 0.65458 0.0
H2184 H 0.39639 0.87845 0.65198 0.0
H2185 H 0.3196 0.80848 0.6105 0.0
H2186 H 0.28074 0.78807 0.58459 0.0
H2187 H 0.35306 0.83759 0.54301 0.0
H2188 H 0.39236 0.85883 0.56874 0.0
H2189 H 0.4902 0.8074 0.64248 0.0
H2190 H 0.44412 0.81331 0.64449 0.0
H2191 H 0.47294 0.86937 0.59318 0.0
H2192 H 0.51893 0.86358 0.59104 0.0
H2193 H 0.41052 0.83099 0.59313 0.0
H2194 H 0.48646 0.90102 0.64095 0.0
H2195 H 0.5193 0.91091 0.66957 0.0
H2196 H 0.43866 0.84712 0.70221 0.0
H2197 H 0.40548 0.83663 0.67372 0.0
C2198 C 0.32761 0.89775 0.61377 0.0
C2199 C 0.30644 0.88604 0.62915 0.0
C2200 C 0.35118 0.88995 0.61192 0.0
C2201 C 0.35415 0.87058 0.62553 0.0
C2202 C 0.33356 0.85982 0.64121 0.0
C2203 C 0.30977 0.86712 0.64285 0.0
C2204 C 0.37887 0.86177 0.62371 0.0
C2205 C 0.39924 0.86787 0.63912 0.0
C2206 C 0.38248 0.84742 0.60712 0.0
C2207 C 0.3589 0.83571 0.5916 0.0
C2208 C 0.32719 0.81546 0.59586 0.0
C2209 C 0.30508 0.80363 0.5812 0.0
C2210 C 0.31441 0.81164 0.56217 0.0
C2211 C 0.34587 0.83151 0.55777 0.0
C2212 C 0.36808 0.84348 0.57239 0.0
C2213 C 0.48687 0.82109 0.63163 0.0
C2214 C 0.50869 0.83514 0.61666 0.0
C2215 C 0.46036 0.82442 0.63278 0.0
C2216 C 0.45513 0.84231 0.61918 0.0
C2217 C 0.47629 0.85549 0.6039 0.0
C2218 C 0.50269 0.85205 0.60268 0.0
C2219 C 0.42857 0.84857 0.62121 0.0
C2220 C 0.40775 0.84184 0.60588 0.0
C2221 C 0.42365 0.86119 0.63818 0.0
C2222 C 0.44362 0.86792 0.65523 0.0
C2223 C 0.47582 0.88906 0.65423 0.0
C2224 C 0.49447 0.89475 0.67041 0.0
C2225 C 0.48109 0.87961 0.68768 0.0
C2226 C 0.44901 0.85881 0.68883 0.0
C2227 C 0.43028 0.85301 0.67268 0.0
H2228 H 0.49557 0.88404 0.7002 0.0
H2229 H 0.29727 0.80236 0.55083 0.0
H2230 H 0.57995 0.74723 0.91456 0.0
H2231 H 0.52722 0.7036 0.916 0.0
H2232 H 0.55688 0.64518 0.88815 0.0
H2233 H 0.61075 0.68979 0.88628 0.0
H2234 H 0.50135 0.64129 0.87274 0.0
H2235 H 0.54124 0.63971 0.93737 0.0
H2236 H 0.56588 0.66656 0.96755 0.0
H2237 H 0.49328 0.68871 0.97612 0.0
H2238 H 0.46842 0.66229 0.94592 0.0
H2239 H 0.36506 0.49699 0.88582 0.0
H2240 H 0.41752 0.54183 0.88427 0.0
H2241 H 0.39185 0.59034 0.92511 0.0
H2242 H 0.33911 0.54541 0.92674 0.0
H2243 H 0.44524 0.60151 0.9344 0.0
H2244 H 0.4056 0.6125 0.87698 0.0
H2245 H 0.37831 0.60015 0.846 0.0
H2246 H 0.44459 0.57739 0.82248 0.0
H2247 H 0.47204 0.58919 0.85347 0.0
C2248 C 0.57553 0.72518 0.90865 0.0
C2249 C 0.59969 0.72212 0.90012 0.0
C2250 C 0.54521 0.70009 0.90967 0.0
C2251 C 0.53803 0.67094 0.90244 0.0
C2252 C 0.56199 0.6675 0.89396 0.0
C2253 C 0.59273 0.69286 0.89297 0.0
C2254 C 0.50525 0.64458 0.90339 0.0
C2255 C 0.48929 0.63193 0.88621 0.0
C2256 C 0.48862 0.63432 0.92091 0.0
C2257 C 0.503 0.64903 0.93941 0.0
C2258 C 0.53055 0.6503 0.94571 0.0
C2259 C 0.54457 0.66548 0.9628 0.0
C2260 C 0.53115 0.67932 0.97375 0.0
C2261 C 0.50362 0.67793 0.96766 0.0
C2262 C 0.48952 0.66279 0.95059 0.0
C2263 C 0.37025 0.51735 0.89423 0.0
C2264 C 0.34751 0.5174 0.90633 0.0
C2265 C 0.40047 0.5431 0.89336 0.0
C2266 C 0.40886 0.56986 0.9044 0.0
C2267 C 0.38621 0.57008 0.91646 0.0
C2268 C 0.35594 0.54424 0.91739 0.0
C2269 C 0.44146 0.59701 0.90368 0.0
C2270 C 0.45729 0.6102 0.92086 0.0
C2271 C 0.45739 0.6093 0.88613 0.0
C2272 C 0.44061 0.60129 0.86761 0.0
C2273 C 0.41413 0.60447 0.86527 0.0
C2274 C 0.39869 0.59767 0.8477 0.0
C2275 C 0.40964 0.58788 0.8323 0.0
C2276 C 0.43608 0.5849 0.83445 0.0
C2277 C 0.45161 0.59164 0.85201 0.0
H2278 H 0.39769 0.58269 0.81868 0.0
H2279 H 0.54209 0.69113 0.98695 0.0
loop_
_geom_bond_atom_site_label_1
_geom_bond_atom_site_label_2
_geom_bond_distance
_geom_bond_site_symmetry_2
_ccdc_geom_bond_type
Tb0 C2 2.809 . S
Tb0 O20 2.484 . S
Tb0 O21 2.440 . S
Tb0 O22 2.658 . S
Tb0 O23 2.409 . S
Tb0 O24 2.378 . S
Tb0 O28 2.325 . S
Tb0 O31 2.341 . S
Tb1 C11 2.809 . S
Tb1 O22 2.325 . S
Tb1 O25 2.341 . S
Tb1 O26 2.484 . S
Tb1 O27 2.440 . S
Tb1 O28 2.658 . S
Tb1 O29 2.409 . S
Tb1 O30 2.378 . S
C2 Tb0 2.809 . S
C2 C3 1.514 . S
C2 O20 1.248 . S
C2 O21 1.266 . S
C3 C2 1.514 . S
C3 C4 1.359 . S
C3 C8 1.348 . S
C4 C3 1.359 . S
C4 C5 1.380 . S
C4 H32 0.929 . S
C5 C4 1.380 . S
C5 C6 1.347 . S
C5 H33 0.931 . S
C6 C5 1.347 . S
C6 C7 1.369 . S
C7 C6 1.369 . S
C7 C8 1.408 . S
C7 H34 0.930 . S
C8 C3 1.348 . S
C8 C7 1.408 . S
C8 H35 0.930 . S
C9 O22 1.281 . S
C9 O23 1.254 . S
C10 O24 1.236 . S
C10 O25 1.266 . S
C11 Tb1 2.809 . S
C11 C12 1.514 . S
C11 O26 1.248 . S
C11 O27 1.266 . S
C12 C11 1.514 . S
C12 C13 1.359 . S
C12 C17 1.348 . S
C13 C12 1.359 . S
C13 C14 1.380 1_545 S
C13 H36 0.929 . S
C14 C13 1.380 1_565 S
C14 C15 1.347 . S
C14 H37 0.931 . S
C15 C14 1.347 . S
C15 C16 1.369 . S
C16 C15 1.369 . S
C16 C17 1.408 1_565 S
C16 H38 0.930 . S
C17 C12 1.348 . S
C17 C16 1.408 1_545 S
C17 H39 0.930 . S
C18 O28 1.281 . S
C18 O29 1.254 . S
C19 O30 1.236 . S
C19 O31 1.266 . S
O20 Tb0 2.484 . S
O20 C2 1.248 . S
O21 Tb0 2.440 . S
O21 C2 1.266 . S
O22 Tb0 2.658 . S
O22 Tb1 2.325 . S
O22 C9 1.281 . S
O23 Tb0 2.409 . S
O23 C9 1.254 . S
O24 Tb0 2.378 . S
O24 C10 1.236 . S
O25 Tb1 2.341 . S
O25 C10 1.266 . S
O26 Tb1 2.484 . S
O26 C11 1.248 . S
O27 Tb1 2.440 . S
O27 C11 1.266 . S
O28 Tb0 2.325 . S
O28 Tb1 2.658 . S
O28 C18 1.281 . S
O29 Tb1 2.409 . S
O29 C18 1.254 . S
O30 Tb1 2.378 . S
O30 C19 1.236 . S
O31 Tb0 2.341 . S
O31 C19 1.266 . S
H32 C4 0.929 . S
H33 C5 0.931 . S
H34 C7 0.930 . S
H35 C8 0.930 . S
H36 C13 0.929 . S
H37 C14 0.931 . S
H38 C16 0.930 . S
H39 C17 0.930 . S
Tb40 C42 2.809 . S
Tb40 O60 2.484 . S
Tb40 O61 2.440 . S
Tb40 O62 2.658 . S
Tb40 O63 2.409 . S
Tb40 O64 2.378 . S
Tb40 O68 2.325 . S
Tb40 O71 2.341 . S
Tb41 C51 2.809 . S
Tb41 O62 2.325 . S
Tb41 O65 2.341 . S
Tb41 O66 2.484 . S
Tb41 O67 2.440 . S
Tb41 O68 2.658 . S
Tb41 O69 2.409 . S
Tb41 O70 2.378 . S
C42 Tb40 2.809 . S
C42 C43 1.514 . S
C42 O60 1.248 . S
C42 O61 1.266 . S
C43 C42 1.514 . S
C43 C44 1.359 . S
C43 C48 1.348 . S
C44 C43 1.359 . S
C44 C45 1.380 . S
C44 H72 0.929 . S
C45 C44 1.380 . S
C45 C46 1.347 . S
C45 H73 0.931 . S
C46 C45 1.347 . S
C46 C47 1.369 . S
C47 C46 1.369 . S
C47 C48 1.408 . S
C47 H74 0.930 . S
C48 C43 1.348 . S
C48 C47 1.408 . S
C48 H75 0.930 . S
C49 O62 1.281 . S
C49 O63 1.254 . S
C50 O64 1.236 . S
C50 O65 1.266 . S
C51 Tb41 2.809 . S
C51 C52 1.514 . S
C51 O66 1.248 . S
C51 O67 1.266 . S
C52 C51 1.514 . S
C52 C53 1.359 . S
C52 C57 1.348 . S
C53 C52 1.359 . S
C53 C54 1.380 . S
C53 H76 0.929 . S
C54 C53 1.380 . S
C54 C55 1.347 . S
C54 H77 0.931 . S
C55 C54 1.347 . S
C55 C56 1.369 . S
C56 C55 1.369 . S
C56 C57 1.408 . S
C56 H78 0.930 . S
C57 C52 1.348 . S
C57 C56 1.408 . S
C57 H79 0.930 . S
C58 O68 1.281 . S
C58 O69 1.254 . S
C59 O70 1.236 . S
C59 O71 1.266 . S
O60 Tb40 2.484 . S
O60 C42 1.248 . S
O61 Tb40 2.440 . S
O61 C42 1.266 . S
O62 Tb40 2.658 . S
O62 Tb41 2.325 . S
O62 C49 1.281 . S
O63 Tb40 2.409 . S
O63 C49 1.254 . S
O64 Tb40 2.378 . S
O64 C50 1.236 . S
O65 Tb41 2.341 . S
O65 C50 1.266 . S
O66 Tb41 2.484 . S
O66 C51 1.248 . S
O67 Tb41 2.440 . S
O67 C51 1.266 . S
O68 Tb40 2.325 . S
O68 Tb41 2.658 . S
O68 C58 1.281 . S
O69 Tb41 2.409 . S
O69 C58 1.254 . S
O70 Tb41 2.378 . S
O70 C59 1.236 . S
O71 Tb40 2.341 . S
O71 C59 1.266 . S
H72 C44 0.929 . S
H73 C45 0.931 . S
H74 C47 0.930 . S
H75 C48 0.930 . S
H76 C53 0.929 . S
H77 C54 0.931 . S
H78 C56 0.930 . S
H79 C57 0.930 . S
Tb80 C82 2.809 . S
Tb80 O100 2.484 . S
Tb80 O101 2.440 . S
Tb80 O102 2.658 . S
Tb80 O103 2.409 . S
Tb80 O104 2.378 . S
Tb80 O108 2.325 . S
Tb80 O111 2.341 . S
Tb81 C91 2.809 . S
Tb81 O102 2.325 . S
Tb81 O105 2.341 . S
Tb81 O106 2.484 . S
Tb81 O107 2.440 . S
Tb81 O108 2.658 . S
Tb81 O109 2.409 . S
Tb81 O110 2.378 . S
C82 Tb80 2.809 . S
C82 C83 1.514 . S
C82 O100 1.248 . S
C82 O101 1.266 . S
C83 C82 1.514 . S
C83 C84 1.359 . S
C83 C88 1.348 . S
C84 C83 1.359 . S
C84 C85 1.380 . S
C84 H112 0.929 . S
C85 C84 1.380 . S
C85 C86 1.347 . S
C85 H113 0.931 . S
C86 C85 1.347 . S
C86 C87 1.369 . S
C87 C86 1.369 . S
C87 C88 1.408 . S
C87 H114 0.930 . S
C88 C83 1.348 . S
C88 C87 1.408 . S
C88 H115 0.930 . S
C89 O102 1.281 . S
C89 O103 1.254 . S
C90 O104 1.236 . S
C90 O105 1.266 . S
C91 Tb81 2.809 . S
C91 C92 1.514 . S
C91 O106 1.248 . S
C91 O107 1.266 . S
C92 C91 1.514 . S
C92 C93 1.359 . S
C92 C97 1.348 . S
C93 C92 1.359 . S
C93 C94 1.380 1_655 S
C93 H116 0.929 . S
C94 C93 1.380 1_455 S
C94 C95 1.347 . S
C94 H117 0.931 . S
C95 C94 1.347 . S
C95 C96 1.369 . S
C96 C95 1.369 . S
C96 C97 1.408 1_455 S
C96 H118 0.930 . S
C97 C92 1.348 . S
C97 C96 1.408 1_655 S
C97 H119 0.930 . S
C98 O108 1.281 . S
C98 O109 1.254 . S
C99 O110 1.236 . S
C99 O111 1.266 . S
O100 Tb80 2.484 . S
O100 C82 1.248 . S
O101 Tb80 2.440 . S
O101 C82 1.266 . S
O102 Tb80 2.658 . S
O102 Tb81 2.325 . S
O102 C89 1.281 . S
O103 Tb80 2.409 . S
O103 C89 1.254 . S
O104 Tb80 2.378 . S
O104 C90 1.236 . S
O105 Tb81 2.341 . S
O105 C90 1.266 . S
O106 Tb81 2.484 . S
O106 C91 1.248 . S
O107 Tb81 2.440 . S
O107 C91 1.266 . S
O108 Tb80 2.325 . S
O108 Tb81 2.658 . S
O108 C98 1.281 . S
O109 Tb81 2.409 . S
O109 C98 1.254 . S
O110 Tb81 2.378 . S
O110 C99 1.236 . S
O111 Tb80 2.341 . S
O111 C99 1.266 . S
H112 C84 0.929 . S
H113 C85 0.931 . S
H114 C87 0.930 . S
H115 C88 0.930 . S
H116 C93 0.929 . S
H117 C94 0.931 . S
H118 C96 0.930 . S
H119 C97 0.930 . S
Tb120 C122 2.809 . S
Tb120 O140 2.484 . S
Tb120 O141 2.440 . S
Tb120 O142 2.658 . S
Tb120 O143 2.409 . S
Tb120 O144 2.378 . S
Tb120 O148 2.325 . S
Tb120 O151 2.341 . S
Tb121 C131 2.809 . S
Tb121 O142 2.325 . S
Tb121 O145 2.341 . S
Tb121 O146 2.484 . S
Tb121 O147 2.440 . S
Tb121 O148 2.658 . S
Tb121 O149 2.409 . S
Tb121 O150 2.378 . S
C122 Tb120 2.809 . S
C122 C123 1.514 . S
C122 O140 1.248 . S
C122 O141 1.266 . S
C123 C122 1.514 . S
C123 C124 1.359 . S
C123 C128 1.348 . S
C124 C123 1.359 . S
C124 C125 1.380 1_545 S
C124 H152 0.929 . S
C125 C124 1.380 1_565 S
C125 C126 1.347 . S
C125 H153 0.931 . S
C126 C125 1.347 . S
C126 C127 1.369 . S
C127 C126 1.369 . S
C127 C128 1.408 1_565 S
C127 H154 0.930 . S
C128 C123 1.348 . S
C128 C127 1.408 1_545 S
C128 H155 0.930 . S
C129 O142 1.281 . S
C129 O143 1.254 . S
C130 O144 1.236 . S
C130 O145 1.266 . S
C131 Tb121 2.809 . S
C131 C132 1.514 . S
C131 O146 1.248 . S
C131 O147 1.266 . S
C132 C131 1.514 . S
C132 C133 1.359 . S
C132 C137 1.348 . S
C133 C132 1.359 . S
C133 C134 1.380 . S
C133 H156 0.929 . S
C134 C133 1.380 . S
C134 C135 1.347 . S
C134 H157 0.931 . S
C135 C134 1.347 . S
C135 C136 1.369 . S
C136 C135 1.369 . S
C136 C137 1.408 . S
C136 H158 0.930 . S
C137 C132 1.348 . S
C137 C136 1.408 . S
C137 H159 0.930 . S
C138 O148 1.281 . S
C138 O149 1.254 . S
C139 O150 1.236 . S
C139 O151 1.266 . S
O140 Tb120 2.484 . S
O140 C122 1.248 . S
O141 Tb120 2.440 . S
O141 C122 1.266 . S
O142 Tb120 2.658 . S
O142 Tb121 2.325 . S
O142 C129 1.281 . S
O143 Tb120 2.409 . S
O143 C129 1.254 . S
O144 Tb120 2.378 . S
O144 C130 1.236 . S
O145 Tb121 2.341 . S
O145 C130 1.266 . S
O146 Tb121 2.484 . S
O146 C131 1.248 . S
O147 Tb121 2.440 . S
O147 C131 1.266 . S
O148 Tb120 2.325 . S
O148 Tb121 2.658 . S
O148 C138 1.281 . S
O149 Tb121 2.409 . S
O149 C138 1.254 . S
O150 Tb121 2.378 . S
O150 C139 1.236 . S
O151 Tb120 2.341 . S
O151 C139 1.266 . S
H152 C124 0.929 . S
H153 C125 0.931 . S
H154 C127 0.930 . S
H155 C128 0.930 . S
H156 C133 0.929 . S
H157 C134 0.931 . S
H158 C136 0.930 . S
H159 C137 0.930 . S
Tb160 C162 2.809 . S
Tb160 O180 2.484 . S
Tb160 O181 2.440 . S
Tb160 O182 2.658 . S
Tb160 O183 2.409 . S
Tb160 O184 2.378 . S
Tb160 O188 2.325 . S
Tb160 O191 2.341 . S
Tb161 C171 2.809 . S
Tb161 O182 2.325 . S
Tb161 O185 2.341 . S
Tb161 O186 2.484 . S
Tb161 O187 2.440 . S
Tb161 O188 2.658 . S
Tb161 O189 2.409 . S
Tb161 O190 2.378 . S
C162 Tb160 2.809 . S
C162 C163 1.514 . S
C162 O180 1.248 . S
C162 O181 1.266 . S
C163 C162 1.514 . S
C163 C164 1.359 . S
C163 C168 1.348 . S
C164 C163 1.359 . S
C164 C165 1.380 . S
C164 H192 0.929 . S
C165 C164 1.380 . S
C165 C166 1.347 . S
C165 H193 0.931 . S
C166 C165 1.347 . S
C166 C167 1.369 . S
C167 C166 1.369 . S
C167 C168 1.408 . S
C167 H194 0.930 . S
C168 C163 1.348 . S
C168 C167 1.408 . S
C168 H195 0.930 . S
C169 O182 1.281 . S
C169 O183 1.254 . S
C170 O184 1.236 . S
C170 O185 1.266 . S
C171 Tb161 2.809 . S
C171 C172 1.514 . S
C171 O186 1.248 . S
C171 O187 1.266 . S
C172 C171 1.514 . S
C172 C173 1.359 . S
C172 C177 1.348 . S
C173 C172 1.359 . S
C173 C174 1.380 . S
C173 H196 0.929 . S
C174 C173 1.380 . S
C174 C175 1.347 . S
C174 H197 0.931 . S
C175 C174 1.347 . S
C175 C176 1.369 . S
C176 C175 1.369 . S
C176 C177 1.408 . S
C176 H198 0.930 . S
C177 C172 1.348 . S
C177 C176 1.408 . S
C177 H199 0.930 . S
C178 O188 1.281 . S
C178 O189 1.254 . S
C179 O190 1.236 . S
C179 O191 1.266 . S
O180 Tb160 2.484 . S
O180 C162 1.248 . S
O181 Tb160 2.440 . S
O181 C162 1.266 . S
O182 Tb160 2.658 . S
O182 Tb161 2.325 . S
O182 C169 1.281 . S
O183 Tb160 2.409 . S
O183 C169 1.254 . S
O184 Tb160 2.378 . S
O184 C170 1.236 . S
O185 Tb161 2.341 . S
O185 C170 1.266 . S
O186 Tb161 2.484 . S
O186 C171 1.248 . S
O187 Tb161 2.440 . S
O187 C171 1.266 . S
O188 Tb160 2.325 . S
O188 Tb161 2.658 . S
O188 C178 1.281 . S
O189 Tb161 2.409 . S
O189 C178 1.254 . S
O190 Tb161 2.378 . S
O190 C179 1.236 . S
O191 Tb160 2.341 . S
O191 C179 1.266 . S
H192 C164 0.929 . S
H193 C165 0.931 . S
H194 C167 0.930 . S
H195 C168 0.930 . S
H196 C173 0.929 . S
H197 C174 0.931 . S
H198 C176 0.930 . S
H199 C177 0.930 . S
Tb200 C202 2.809 . S
Tb200 O220 2.484 . S
Tb200 O221 2.440 . S
Tb200 O222 2.658 . S
Tb200 O223 2.409 . S
Tb200 O224 2.378 . S
Tb200 O228 2.325 . S
Tb200 O231 2.341 . S
Tb201 C211 2.809 . S
Tb201 O222 2.325 . S
Tb201 O225 2.341 . S
Tb201 O226 2.484 . S
Tb201 O227 2.440 . S
Tb201 O228 2.658 . S
Tb201 O229 2.409 . S
Tb201 O230 2.378 . S
C202 Tb200 2.809 . S
C202 C203 1.514 . S
C202 O220 1.248 . S
C202 O221 1.266 . S
C203 C202 1.514 . S
C203 C204 1.359 . S
C203 C208 1.348 . S
C204 C203 1.359 . S
C204 C205 1.380 1_655 S
C204 H232 0.929 . S
C205 C204 1.380 1_455 S
C205 C206 1.347 . S
C205 H233 0.931 . S
C206 C205 1.347 . S
C206 C207 1.369 . S
C207 C206 1.369 . S
C207 C208 1.408 1_455 S
C207 H234 0.930 . S
C208 C203 1.348 . S
C208 C207 1.408 1_655 S
C208 H235 0.930 . S
C209 O222 1.281 . S
C209 O223 1.254 . S
C210 O224 1.236 . S
C210 O225 1.266 . S
C211 Tb201 2.809 . S
C211 C212 1.514 . S
C211 O226 1.248 . S
C211 O227 1.266 . S
C212 C211 1.514 . S
C212 C213 1.359 . S
C212 C217 1.348 . S
C213 C212 1.359 . S
C213 C214 1.380 . S
C213 H236 0.929 . S
C214 C213 1.380 . S
C214 C215 1.347 . S
C214 H237 0.931 . S
C215 C214 1.347 . S
C215 C216 1.369 . S
C216 C215 1.369 . S
C216 C217 1.408 . S
C216 H238 0.930 . S
C217 C212 1.348 . S
C217 C216 1.408 . S
C217 H239 0.930 . S
C218 O228 1.281 . S
C218 O229 1.254 . S
C219 O230 1.236 . S
C219 O231 1.266 . S
O220 Tb200 2.484 . S
O220 C202 1.248 . S
O221 Tb200 2.440 . S
O221 C202 1.266 . S
O222 Tb200 2.658 . S
O222 Tb201 2.325 . S
O222 C209 1.281 . S
O223 Tb200 2.409 . S
O223 C209 1.254 . S
O224 Tb200 2.378 . S
O224 C210 1.236 . S
O225 Tb201 2.341 . S
O225 C210 1.266 . S
O226 Tb201 2.484 . S
O226 C211 1.248 . S
O227 Tb201 2.440 . S
O227 C211 1.266 . S
O228 Tb200 2.325 . S
O228 Tb201 2.658 . S
O228 C218 1.281 . S
O229 Tb201 2.409 . S
O229 C218 1.254 . S
O230 Tb201 2.378 . S
O230 C219 1.236 . S
O231 Tb200 2.341 . S
O231 C219 1.266 . S
H232 C204 0.929 . S
H233 C205 0.931 . S
H234 C207 0.930 . S
H235 C208 0.930 . S
H236 C213 0.929 . S
H237 C214 0.931 . S
H238 C216 0.930 . S
H239 C217 0.930 . S
Tb240 C242 2.809 . S
Tb240 O260 2.484 . S
Tb240 O261 2.440 . S
Tb240 O262 2.658 . S
Tb240 O263 2.409 . S
Tb240 O264 2.378 . S
Tb240 O268 2.325 . S
Tb240 O271 2.341 . S
Tb241 C251 2.809 . S
Tb241 O262 2.325 . S
Tb241 O265 2.341 . S
Tb241 O266 2.484 . S
Tb241 O267 2.440 . S
Tb241 O268 2.658 . S
Tb241 O269 2.409 . S
Tb241 O270 2.378 . S
C242 Tb240 2.809 . S
C242 C243 1.514 . S
C242 O260 1.248 . S
C242 O261 1.266 . S
C243 C242 1.514 . S
C243 C244 1.359 . S
C243 C248 1.348 . S
C244 C243 1.359 . S
C244 C245 1.380 1_455 S
C244 H272 0.929 . S
C245 C244 1.380 1_655 S
C245 C246 1.347 . S
C245 H273 0.931 . S
C246 C245 1.347 . S
C246 C247 1.369 . S
C247 C246 1.369 . S
C247 C248 1.408 1_655 S
C247 H274 0.930 . S
C248 C243 1.348 . S
C248 C247 1.408 1_455 S
C248 H275 0.930 . S
C249 O262 1.281 . S
C249 O263 1.254 . S
C250 O264 1.236 . S
C250 O265 1.266 . S
C251 Tb241 2.809 . S
C251 C252 1.514 . S
C251 O266 1.248 . S
C251 O267 1.266 . S
C252 C251 1.514 . S
C252 C253 1.359 . S
C252 C257 1.348 . S
C253 C252 1.359 . S
C253 C254 1.380 . S
C253 H276 0.929 . S
C254 C253 1.380 . S
C254 C255 1.347 . S
C254 H277 0.931 . S
C255 C254 1.347 . S
C255 C256 1.369 . S
C256 C255 1.369 . S
C256 C257 1.408 . S
C256 H278 0.930 . S
C257 C252 1.348 . S
C257 C256 1.408 . S
C257 H279 0.930 . S
C258 O268 1.281 . S
C258 O269 1.254 . S
C259 O270 1.236 . S
C259 O271 1.266 . S
O260 Tb240 2.484 . S
O260 C242 1.248 . S
O261 Tb240 2.440 . S
O261 C242 1.266 . S
O262 Tb240 2.658 . S
O262 Tb241 2.325 . S
O262 C249 1.281 . S
O263 Tb240 2.409 . S
O263 C249 1.254 . S
O264 Tb240 2.378 . S
O264 C250 1.236 . S
O265 Tb241 2.341 . S
O265 C250 1.266 . S
O266 Tb241 2.484 . S
O266 C251 1.248 . S
O267 Tb241 2.440 . S
O267 C251 1.266 . S
O268 Tb240 2.325 . S
O268 Tb241 2.658 . S
O268 C258 1.281 . S
O269 Tb241 2.409 . S
O269 C258 1.254 . S
O270 Tb241 2.378 . S
O270 C259 1.236 . S
O271 Tb240 2.341 . S
O271 C259 1.266 . S
H272 C244 0.929 . S
H273 C245 0.931 . S
H274 C247 0.930 . S
H275 C248 0.930 . S
H276 C253 0.929 . S
H277 C254 0.931 . S
H278 C256 0.930 . S
H279 C257 0.930 . S
Tb280 C282 2.809 . S
Tb280 O300 2.484 . S
Tb280 O301 2.440 . S
Tb280 O302 2.658 . S
Tb280 O303 2.409 . S
Tb280 O304 2.378 . S
Tb280 O308 2.325 . S
Tb280 O311 2.341 . S
Tb281 C291 2.809 . S
Tb281 O302 2.325 . S
Tb281 O305 2.341 . S
Tb281 O306 2.484 . S
Tb281 O307 2.440 . S
Tb281 O308 2.658 . S
Tb281 O309 2.409 . S
Tb281 O310 2.378 . S
C282 Tb280 2.809 . S
C282 C283 1.514 . S
C282 O300 1.248 . S
C282 O301 1.266 . S
C283 C282 1.514 . S
C283 C284 1.359 . S
C283 C288 1.348 . S
C284 C283 1.359 . S
C284 C285 1.380 . S
C284 H312 0.929 . S
C285 C284 1.380 . S
C285 C286 1.347 . S
C285 H313 0.931 . S
C286 C285 1.347 . S
C286 C287 1.369 . S
C287 C286 1.369 . S
C287 C288 1.408 . S
C287 H314 0.930 . S
C288 C283 1.348 . S
C288 C287 1.408 . S
C288 H315 0.930 . S
C289 O302 1.281 . S
C289 O303 1.254 . S
C290 O304 1.236 . S
C290 O305 1.266 . S
C291 Tb281 2.809 . S
C291 C292 1.514 . S
C291 O306 1.248 . S
C291 O307 1.266 . S
C292 C291 1.514 . S
C292 C293 1.359 . S
C292 C297 1.348 . S
C293 C292 1.359 . S
C293 C294 1.380 1_565 S
C293 H316 0.929 . S
C294 C293 1.380 1_545 S
C294 C295 1.347 . S
C294 H317 0.931 . S
C295 C294 1.347 . S
C295 C296 1.369 . S
C296 C295 1.369 . S
C296 C297 1.408 1_545 S
C296 H318 0.930 . S
C297 C292 1.348 . S
C297 C296 1.408 1_565 S
C297 H319 0.930 . S
C298 O308 1.281 . S
C298 O309 1.254 . S
C299 O310 1.236 . S
C299 O311 1.266 . S
O300 Tb280 2.484 . S
O300 C282 1.248 . S
O301 Tb280 2.440 . S
O301 C282 1.266 . S
O302 Tb280 2.658 . S
O302 Tb281 2.325 . S
O302 C289 1.281 . S
O303 Tb280 2.409 . S
O303 C289 1.254 . S
O304 Tb280 2.378 . S
O304 C290 1.236 . S
O305 Tb281 2.341 . S
O305 C290 1.266 . S
O306 Tb281 2.484 . S
O306 C291 1.248 . S
O307 Tb281 2.440 . S
O307 C291 1.266 . S
O308 Tb280 2.325 . S
O308 Tb281 2.658 . S
O308 C298 1.281 . S
O309 Tb281 2.409 . S
O309 C298 1.254 . S
O310 Tb281 2.378 . S
O310 C299 1.236 . S
O311 Tb280 2.341 . S
O311 C299 1.266 . S
H312 C284 0.929 . S
H313 C285 0.931 . S
H314 C287 0.930 . S
H315 C288 0.930 . S
H316 C293 0.929 . S
H317 C294 0.931 . S
H318 C296 0.930 . S
H319 C297 0.930 . S
Tb320 C322 2.809 . S
Tb320 O340 2.484 . S
Tb320 O341 2.440 . S
Tb320 O342 2.658 . S
Tb320 O343 2.409 . S
Tb320 O344 2.378 . S
Tb320 O348 2.325 . S
Tb320 O351 2.341 . S
Tb321 C331 2.809 . S
Tb321 O342 2.325 . S
Tb321 O345 2.341 . S
Tb321 O346 2.484 . S
Tb321 O347 2.440 . S
Tb321 O348 2.658 . S
Tb321 O349 2.409 . S
Tb321 O350 2.378 . S
C322 Tb320 2.809 . S
C322 C323 1.514 . S
C322 O340 1.248 . S
C322 O341 1.266 . S
C323 C322 1.514 . S
C323 C324 1.359 . S
C323 C328 1.348 . S
C324 C323 1.359 . S
C324 C325 1.380 . S
C324 H352 0.929 . S
C325 C324 1.380 . S
C325 C326 1.347 . S
C325 H353 0.931 . S
C326 C325 1.347 . S
C326 C327 1.369 . S
C327 C326 1.369 . S
C327 C328 1.408 . S
C327 H354 0.930 . S
C328 C323 1.348 . S
C328 C327 1.408 . S
C328 H355 0.930 . S
C329 O342 1.281 . S
C329 O343 1.254 . S
C330 O344 1.236 . S
C330 O345 1.266 . S
C331 Tb321 2.809 . S
C331 C332 1.514 . S
C331 O346 1.248 . S
C331 O347 1.266 . S
C332 C331 1.514 . S
C332 C333 1.359 . S
C332 C337 1.348 . S
C333 C332 1.359 . S
C333 C334 1.380 . S
C333 H356 0.929 . S
C334 C333 1.380 . S
C334 C335 1.347 . S
C334 H357 0.931 . S
C335 C334 1.347 . S
C335 C336 1.369 . S
C336 C335 1.369 . S
C336 C337 1.408 . S
C336 H358 0.930 . S
C337 C332 1.348 . S
C337 C336 1.408 . S
C337 H359 0.930 . S
C338 O348 1.281 . S
C338 O349 1.254 . S
C339 O350 1.236 . S
C339 O351 1.266 . S
O340 Tb320 2.484 . S
O340 C322 1.248 . S
O341 Tb320 2.440 . S
O341 C322 1.266 . S
O342 Tb320 2.658 . S
O342 Tb321 2.325 . S
O342 C329 1.281 . S
O343 Tb320 2.409 . S
O343 C329 1.254 . S
O344 Tb320 2.378 . S
O344 C330 1.236 . S
O345 Tb321 2.341 . S
O345 C330 1.266 . S
O346 Tb321 2.484 . S
O346 C331 1.248 . S
O347 Tb321 2.440 . S
O347 C331 1.266 . S
O348 Tb320 2.325 . S
O348 Tb321 2.658 . S
O348 C338 1.281 . S
O349 Tb321 2.409 . S
O349 C338 1.254 . S
O350 Tb321 2.378 . S
O350 C339 1.236 . S
O351 Tb320 2.341 . S
O351 C339 1.266 . S
H352 C324 0.929 . S
H353 C325 0.931 . S
H354 C327 0.930 . S
H355 C328 0.930 . S
H356 C333 0.929 . S
H357 C334 0.931 . S
H358 C336 0.930 . S
H359 C337 0.930 . S
Tb360 C362 2.809 . S
Tb360 O380 2.484 . S
Tb360 O381 2.440 . S
Tb360 O382 2.658 . S
Tb360 O383 2.409 . S
Tb360 O384 2.378 . S
Tb360 O388 2.325 . S
Tb360 O391 2.341 . S
Tb361 C371 2.809 . S
Tb361 O382 2.325 . S
Tb361 O385 2.341 . S
Tb361 O386 2.484 . S
Tb361 O387 2.440 . S
Tb361 O388 2.658 . S
Tb361 O389 2.409 . S
Tb361 O390 2.378 . S
C362 Tb360 2.809 . S
C362 C363 1.514 . S
C362 O380 1.248 . S
C362 O381 1.266 . S
C363 C362 1.514 . S
C363 C364 1.359 . S
C363 C368 1.348 . S
C364 C363 1.359 . S
C364 C365 1.380 . S
C364 H392 0.929 . S
C365 C364 1.380 . S
C365 C366 1.347 . S
C365 H393 0.931 . S
C366 C365 1.347 . S
C366 C367 1.369 . S
C367 C366 1.369 . S
C367 C368 1.408 . S
C367 H394 0.930 . S
C368 C363 1.348 . S
C368 C367 1.408 . S
C368 H395 0.930 . S
C369 O382 1.281 . S
C369 O383 1.254 . S
C370 O384 1.236 . S
C370 O385 1.266 . S
C371 Tb361 2.809 . S
C371 C372 1.514 . S
C371 O386 1.248 . S
C371 O387 1.266 . S
C372 C371 1.514 . S
C372 C373 1.359 . S
C372 C377 1.348 . S
C373 C372 1.359 . S
C373 C374 1.380 1_455 S
C373 H396 0.929 . S
C374 C373 1.380 1_655 S
C374 C375 1.347 . S
C374 H397 0.931 . S
C375 C374 1.347 . S
C375 C376 1.369 . S
C376 C375 1.369 . S
C376 C377 1.408 1_655 S
C376 H398 0.930 . S
C377 C372 1.348 . S
C377 C376 1.408 1_455 S
C377 H399 0.930 . S
C378 O388 1.281 . S
C378 O389 1.254 . S
C379 O390 1.236 . S
C379 O391 1.266 . S
O380 Tb360 2.484 . S
O380 C362 1.248 . S
O381 Tb360 2.440 . S
O381 C362 1.266 . S
O382 Tb360 2.658 . S
O382 Tb361 2.325 . S
O382 C369 1.281 . S
O383 Tb360 2.409 . S
O383 C369 1.254 . S
O384 Tb360 2.378 . S
O384 C370 1.236 . S
O385 Tb361 2.341 . S
O385 C370 1.266 . S
O386 Tb361 2.484 . S
O386 C371 1.248 . S
O387 Tb361 2.440 . S
O387 C371 1.266 . S
O388 Tb360 2.325 . S
O388 Tb361 2.658 . S
O388 C378 1.281 . S
O389 Tb361 2.409 . S
O389 C378 1.254 . S
O390 Tb361 2.378 . S
O390 C379 1.236 . S
O391 Tb360 2.341 . S
O391 C379 1.266 . S
H392 C364 0.929 . S
H393 C365 0.931 . S
H394 C367 0.930 . S
H395 C368 0.930 . S
H396 C373 0.929 . S
H397 C374 0.931 . S
H398 C376 0.930 . S
H399 C377 0.930 . S
Tb400 C402 2.809 . S
Tb400 O420 2.484 . S
Tb400 O421 2.440 . S
Tb400 O422 2.658 . S
Tb400 O423 2.409 . S
Tb400 O424 2.378 . S
Tb400 O428 2.325 . S
Tb400 O431 2.341 . S
Tb401 C411 2.809 . S
Tb401 O422 2.325 . S
Tb401 O425 2.341 . S
Tb401 O426 2.484 . S
Tb401 O427 2.440 . S
Tb401 O428 2.658 . S
Tb401 O429 2.409 . S
Tb401 O430 2.378 . S
C402 Tb400 2.809 . S
C402 C403 1.514 . S
C402 O420 1.248 . S
C402 O421 1.266 . S
C403 C402 1.514 . S
C403 C404 1.359 . S
C403 C408 1.348 . S
C404 C403 1.359 . S
C404 C405 1.380 1_565 S
C404 H432 0.929 . S
C405 C404 1.380 1_545 S
C405 C406 1.347 . S
C405 H433 0.931 . S
C406 C405 1.347 . S
C406 C407 1.369 . S
C407 C406 1.369 . S
C407 C408 1.408 1_545 S
C407 H434 0.930 . S
C408 C403 1.348 . S
C408 C407 1.408 1_565 S
C408 H435 0.930 . S
C409 O422 1.281 . S
C409 O423 1.254 . S
C410 O424 1.236 . S
C410 O425 1.266 . S
C411 Tb401 2.809 . S
C411 C412 1.514 . S
C411 O426 1.248 . S
C411 O427 1.266 . S
C412 C411 1.514 . S
C412 C413 1.359 . S
C412 C417 1.348 . S
C413 C412 1.359 . S
C413 C414 1.380 . S
C413 H436 0.929 . S
C414 C413 1.380 . S
C414 C415 1.347 . S
C414 H437 0.931 . S
C415 C414 1.347 . S
C415 C416 1.369 . S
C416 C415 1.369 . S
C416 C417 1.408 . S
C416 H438 0.930 . S
C417 C412 1.348 . S
C417 C416 1.408 . S
C417 H439 0.930 . S
C418 O428 1.281 . S
C418 O429 1.254 . S
C419 O430 1.236 . S
C419 O431 1.266 . S
O420 Tb400 2.484 . S
O420 C402 1.248 . S
O421 Tb400 2.440 . S
O421 C402 1.266 . S
O422 Tb400 2.658 . S
O422 Tb401 2.325 . S
O422 C409 1.281 . S
O423 Tb400 2.409 . S
O423 C409 1.254 . S
O424 Tb400 2.378 . S
O424 C410 1.236 . S
O425 Tb401 2.341 . S
O425 C410 1.266 . S
O426 Tb401 2.484 . S
O426 C411 1.248 . S
O427 Tb401 2.440 . S
O427 C411 1.266 . S
O428 Tb400 2.325 . S
O428 Tb401 2.658 . S
O428 C418 1.281 . S
O429 Tb401 2.409 . S
O429 C418 1.254 . S
O430 Tb401 2.378 . S
O430 C419 1.236 . S
O431 Tb400 2.341 . S
O431 C419 1.266 . S
H432 C404 0.929 . S
H433 C405 0.931 . S
H434 C407 0.930 . S
H435 C408 0.930 . S
H436 C413 0.929 . S
H437 C414 0.931 . S
H438 C416 0.930 . S
H439 C417 0.930 . S
Tb440 C442 2.809 . S
Tb440 O460 2.484 . S
Tb440 O461 2.440 . S
Tb440 O462 2.658 . S
Tb440 O463 2.409 . S
Tb440 O464 2.378 . S
Tb440 O468 2.325 . S
Tb440 O471 2.341 . S
Tb441 C451 2.809 . S
Tb441 O462 2.325 . S
Tb441 O465 2.341 . S
Tb441 O466 2.484 . S
Tb441 O467 2.440 . S
Tb441 O468 2.658 . S
Tb441 O469 2.409 . S
Tb441 O470 2.378 . S
C442 Tb440 2.809 . S
C442 C443 1.514 . S
C442 O460 1.248 . S
C442 O461 1.266 . S
C443 C442 1.514 . S
C443 C444 1.359 . S
C443 C448 1.348 . S
C444 C443 1.359 . S
C444 C445 1.380 . S
C444 H472 0.929 . S
C445 C444 1.380 . S
C445 C446 1.347 . S
C445 H473 0.931 . S
C446 C445 1.347 . S
C446 C447 1.369 . S
C447 C446 1.369 . S
C447 C448 1.408 . S
C447 H474 0.930 . S
C448 C443 1.348 . S
C448 C447 1.408 . S
C448 H475 0.930 . S
C449 O462 1.281 . S
C449 O463 1.254 . S
C450 O464 1.236 . S
C450 O465 1.266 . S
C451 Tb441 2.809 . S
C451 C452 1.514 . S
C451 O466 1.248 . S
C451 O467 1.266 . S
C452 C451 1.514 . S
C452 C453 1.359 . S
C452 C457 1.348 . S
C453 C452 1.359 . S
C453 C454 1.380 . S
C453 H476 0.929 . S
C454 C453 1.380 . S
C454 C455 1.347 . S
C454 H477 0.931 . S
C455 C454 1.347 . S
C455 C456 1.369 . S
C456 C455 1.369 . S
C456 C457 1.408 . S
C456 H478 0.930 . S
C457 C452 1.348 . S
C457 C456 1.408 . S
C457 H479 0.930 . S
C458 O468 1.281 . S
C458 O469 1.254 . S
C459 O470 1.236 . S
C459 O471 1.266 . S
O460 Tb440 2.484 . S
O460 C442 1.248 . S
O461 Tb440 2.440 . S
O461 C442 1.266 . S
O462 Tb440 2.658 . S
O462 Tb441 2.325 . S
O462 C449 1.281 . S
O463 Tb440 2.409 . S
O463 C449 1.254 . S
O464 Tb440 2.378 . S
O464 C450 1.236 . S
O465 Tb441 2.341 . S
O465 C450 1.266 . S
O466 Tb441 2.484 . S
O466 C451 1.248 . S
O467 Tb441 2.440 . S
O467 C451 1.266 . S
O468 Tb440 2.325 . S
O468 Tb441 2.658 . S
O468 C458 1.281 . S
O469 Tb441 2.409 . S
O469 C458 1.254 . S
O470 Tb441 2.378 . S
O470 C459 1.236 . S
O471 Tb440 2.341 . S
O471 C459 1.266 . S
H472 C444 0.929 . S
H473 C445 0.931 . S
H474 C447 0.930 . S
H475 C448 0.930 . S
H476 C453 0.929 . S
H477 C454 0.931 . S
H478 C456 0.930 . S
H479 C457 0.930 . S
H480 C498 0.951 . S
H481 C500 0.951 . S
H482 C502 0.950 . S
H483 C503 0.950 . S
H484 C505 0.950 . S
H485 C508 0.950 . S
H486 C509 0.950 . S
H487 C511 0.950 . S
H488 C512 0.950 . S
H489 C513 0.951 . S
H490 C515 0.951 . S
H491 C517 0.950 . S
H492 C518 0.950 . S
H493 C520 0.950 . S
H494 C523 0.950 . S
H495 C524 0.950 . S
H496 C526 0.950 . S
H497 C527 0.950 . S
C498 H480 0.951 . S
C498 C499 1.366 . S
C498 C500 1.388 . S
C499 C498 1.366 . S
C499 C503 1.385 . S
C500 H481 0.951 . S
C500 C498 1.388 . S
C500 C501 1.366 . S
C501 C500 1.366 . S
C501 C502 1.414 . S
C501 C504 1.499 . S
C502 H482 0.950 . S
C502 C501 1.414 . S
C502 C503 1.374 . S
C503 H483 0.950 . S
C503 C499 1.385 . S
C503 C502 1.374 . S
C504 C501 1.499 . S
C504 C505 1.373 . S
C504 C506 1.389 . S
C505 H484 0.950 . S
C505 C504 1.373 . S
C505 C521 1.377 . S
C506 C504 1.389 . S
C506 C507 1.524 . S
C506 C520 1.377 . S
C507 C506 1.524 . S
C507 C508 1.397 . S
C507 C512 1.363 . S
C508 H485 0.950 . S
C508 C507 1.397 . S
C508 C509 1.334 . S
C509 H486 0.950 . S
C509 C508 1.334 . S
C509 C510 1.287 . S
C510 C509 1.287 . S
C510 C511 1.524 . S
C510 H529 0.913 . S
C511 H487 0.950 . S
C511 C510 1.524 . S
C511 C512 1.415 . S
C512 H488 0.950 . S
C512 C507 1.363 . S
C512 C511 1.415 . S
C513 H489 0.951 . S
C513 C514 1.366 . S
C513 C515 1.388 . S
C514 C513 1.366 . S
C514 C518 1.385 . S
C515 H490 0.951 . S
C515 C513 1.388 . S
C515 C516 1.366 . S
C516 C515 1.366 . S
C516 C517 1.414 . S
C516 C519 1.499 . S
C517 H491 0.950 . S
C517 C516 1.414 . S
C517 C518 1.374 . S
C518 H492 0.950 . S
C518 C514 1.385 . S
C518 C517 1.374 . S
C519 C516 1.499 . S
C519 C520 1.373 . S
C519 C521 1.389 . S
C520 H493 0.950 . S
C520 C506 1.377 . S
C520 C519 1.373 . S
C521 C505 1.377 . S
C521 C519 1.389 . S
C521 C522 1.524 . S
C522 C521 1.524 . S
C522 C523 1.397 . S
C522 C527 1.363 . S
C523 H494 0.950 . S
C523 C522 1.397 . S
C523 C524 1.334 . S
C524 H495 0.950 . S
C524 C523 1.334 . S
C524 C525 1.287 . S
C525 C524 1.287 . S
C525 C526 1.524 . S
C525 H528 0.999 . S
C526 H496 0.950 . S
C526 C525 1.524 . S
C526 C527 1.415 . S
C527 H497 0.950 . S
C527 C522 1.363 . S
C527 C526 1.415 . S
H528 C525 0.999 . S
H529 C510 0.913 . S
H530 C548 0.951 . S
H531 C550 0.951 . S
H532 C552 0.950 . S
H533 C553 0.950 . S
H534 C555 0.950 . S
H535 C558 0.950 . S
H536 C559 0.950 . S
H537 C561 0.950 1_655 S
H538 C562 0.950 1_655 S
H539 C563 0.951 . S
H540 C565 0.951 . S
H541 C567 0.950 . S
H542 C568 0.950 . S
H543 C570 0.950 . S
H544 C573 0.950 . S
H545 C574 0.950 . S
H546 C576 0.950 . S
H547 C577 0.950 . S
C548 H530 0.951 . S
C548 C549 1.366 . S
C548 C550 1.388 . S
C549 C548 1.366 . S
C549 C553 1.385 . S
C550 H531 0.951 . S
C550 C548 1.388 . S
C550 C551 1.366 . S
C551 C550 1.366 . S
C551 C552 1.414 . S
C551 C554 1.499 . S
C552 H532 0.950 . S
C552 C551 1.414 . S
C552 C553 1.374 . S
C553 H533 0.950 . S
C553 C549 1.385 . S
C553 C552 1.374 . S
C554 C551 1.499 . S
C554 C555 1.373 . S
C554 C556 1.389 . S
C555 H534 0.950 . S
C555 C554 1.373 . S
C555 C571 1.377 1_455 S
C556 C554 1.389 . S
C556 C557 1.524 . S
C556 C570 1.377 1_455 S
C557 C556 1.524 . S
C557 C558 1.397 . S
C557 C562 1.363 . S
C558 H535 0.950 . S
C558 C557 1.397 . S
C558 C559 1.334 . S
C559 H536 0.950 . S
C559 C558 1.334 . S
C559 C560 1.287 . S
C560 C559 1.287 . S
C560 C561 1.524 . S
C560 H579 0.913 . S
C561 H537 0.950 1_455 S
C561 C560 1.524 . S
C561 C562 1.415 . S
C562 H538 0.950 1_455 S
C562 C557 1.363 . S
C562 C561 1.415 . S
C563 H539 0.951 . S
C563 C564 1.366 . S
C563 C565 1.388 . S
C564 C563 1.366 . S
C564 C568 1.385 . S
C565 H540 0.951 . S
C565 C563 1.388 . S
C565 C566 1.366 . S
C566 C565 1.366 . S
C566 C567 1.414 . S
C566 C569 1.499 . S
C567 H541 0.950 . S
C567 C566 1.414 . S
C567 C568 1.374 . S
C568 H542 0.950 . S
C568 C564 1.385 . S
C568 C567 1.374 . S
C569 C566 1.499 . S
C569 C570 1.373 . S
C569 C571 1.389 . S
C570 H543 0.950 . S
C570 C556 1.377 1_655 S
C570 C569 1.373 . S
C571 C555 1.377 1_655 S
C571 C569 1.389 . S
C571 C572 1.524 . S
C572 C571 1.524 . S
C572 C573 1.397 . S
C572 C577 1.363 1_655 S
C573 H544 0.950 . S
C573 C572 1.397 . S
C573 C574 1.334 . S
C574 H545 0.950 . S
C574 C573 1.334 . S
C574 C575 1.287 . S
C575 C574 1.287 . S
C575 C576 1.524 1_655 S
C575 H578 0.999 . S
C576 H546 0.950 . S
C576 C575 1.524 1_455 S
C576 C577 1.415 . S
C577 H547 0.950 . S
C577 C572 1.363 1_455 S
C577 C576 1.415 . S
H578 C575 0.999 . S
H579 C560 0.913 . S
H580 C598 0.951 . S
H581 C600 0.951 . S
H582 C602 0.950 . S
H583 C603 0.950 . S
H584 C605 0.974 . S
H585 C608 0.950 . S
H586 C609 0.950 . S
H587 C611 0.950 . S
H588 C612 0.950 . S
H589 C613 0.951 . S
H590 C615 0.951 . S
H591 C617 0.950 . S
H592 C618 0.950 . S
H593 C620 0.950 . S
H594 C623 0.950 . S
H595 C624 0.950 . S
H596 C626 0.950 . S
H597 C627 0.950 . S
C598 H580 0.951 . S
C598 C599 1.366 . S
C598 C600 1.388 . S
C599 C598 1.366 . S
C599 C603 1.385 . S
C600 H581 0.951 . S
C600 C598 1.388 . S
C600 C601 1.366 . S
C601 C600 1.366 . S
C601 C602 1.414 . S
C601 C604 1.499 . S
C602 H582 0.950 . S
C602 C601 1.414 . S
C602 C603 1.374 . S
C603 H583 0.950 . S
C603 C599 1.385 . S
C603 C602 1.374 . S
C604 C601 1.499 . S
C604 C605 1.385 . S
C604 C606 1.389 . S
C605 H584 0.974 . S
C605 C604 1.385 . S
C605 C621 1.342 1_545 S
C606 C604 1.389 . S
C606 C607 1.524 . S
C606 C620 1.377 1_545 S
C607 C606 1.524 . S
C607 C608 1.397 . S
C607 C612 1.363 . S
C608 H585 0.950 . S
C608 C607 1.397 . S
C608 C609 1.334 . S
C609 H586 0.950 . S
C609 C608 1.334 . S
C609 C610 1.287 . S
C610 C609 1.287 . S
C610 C611 1.524 . S
C610 H629 0.913 . S
C611 H587 0.950 . S
C611 C610 1.524 . S
C611 C612 1.415 . S
C612 H588 0.950 . S
C612 C607 1.363 . S
C612 C611 1.415 . S
C613 H589 0.951 . S
C613 C614 1.366 . S
C613 C615 1.388 . S
C614 C613 1.366 . S
C614 C618 1.385 . S
C615 H590 0.951 . S
C615 C613 1.388 . S
C615 C616 1.366 . S
C616 C615 1.366 . S
C616 C617 1.414 . S
C616 C619 1.499 . S
C617 H591 0.950 . S
C617 C616 1.414 . S
C617 C618 1.374 . S
C618 H592 0.950 . S
C618 C614 1.385 . S
C618 C617 1.374 . S
C619 C616 1.499 . S
C619 C620 1.373 . S
C619 C621 1.389 . S
C620 H593 0.950 . S
C620 C606 1.377 1_565 S
C620 C619 1.373 . S
C621 C605 1.342 1_565 S
C621 C619 1.389 . S
C621 C622 1.524 . S
C622 C621 1.524 . S
C622 C623 1.397 . S
C622 C627 1.363 . S
C623 H594 0.950 . S
C623 C622 1.397 . S
C623 C624 1.334 . S
C624 H595 0.950 . S
C624 C623 1.334 . S
C624 C625 1.287 . S
C625 C624 1.287 . S
C625 C626 1.524 . S
C625 H628 0.999 . S
C626 H596 0.950 . S
C626 C625 1.524 . S
C626 C627 1.415 . S
C627 H597 0.950 . S
C627 C622 1.363 . S
C627 C626 1.415 . S
H628 C625 0.999 . S
H629 C610 0.913 . S
H630 C648 0.951 . S
H631 C650 0.951 . S
H632 C652 0.950 . S
H633 C653 0.950 . S
H634 C655 0.950 . S
H635 C658 0.950 . S
H636 C659 0.950 . S
H637 C661 0.950 . S
H638 C662 0.950 . S
H639 C663 0.951 . S
H640 C665 0.951 . S
H641 C667 0.950 . S
H642 C668 0.950 . S
H643 C670 0.950 . S
H644 C673 0.950 . S
H645 C674 0.950 . S
H646 C676 0.950 . S
H647 C677 0.950 . S
C648 H630 0.951 . S
C648 C649 1.366 . S
C648 C650 1.388 . S
C649 C648 1.366 . S
C649 C653 1.385 . S
C650 H631 0.951 . S
C650 C648 1.388 . S
C650 C651 1.366 . S
C651 C650 1.366 . S
C651 C652 1.414 . S
C651 C654 1.499 . S
C652 H632 0.950 . S
C652 C651 1.414 . S
C652 C653 1.374 . S
C653 H633 0.950 . S
C653 C649 1.385 . S
C653 C652 1.374 . S
C654 C651 1.499 . S
C654 C655 1.373 . S
C654 C656 1.389 . S
C655 H634 0.950 . S
C655 C654 1.373 . S
C655 C671 1.377 . S
C656 C654 1.389 . S
C656 C657 1.524 . S
C656 C670 1.377 . S
C657 C656 1.524 . S
C657 C658 1.397 . S
C657 C662 1.363 . S
C658 H635 0.950 . S
C658 C657 1.397 . S
C658 C659 1.334 . S
C659 H636 0.950 . S
C659 C658 1.334 . S
C659 C660 1.287 . S
C660 C659 1.287 . S
C660 C661 1.524 . S
C660 H679 0.913 . S
C661 H637 0.950 . S
C661 C660 1.524 . S
C661 C662 1.415 . S
C662 H638 0.950 . S
C662 C657 1.363 . S
C662 C661 1.415 . S
C663 H639 0.951 . S
C663 C664 1.366 . S
C663 C665 1.388 . S
C664 C663 1.366 . S
C664 C668 1.385 . S
C665 H640 0.951 . S
C665 C663 1.388 . S
C665 C666 1.366 . S
C666 C665 1.366 . S
C666 C667 1.414 . S
C666 C669 1.499 . S
C667 H641 0.950 . S
C667 C666 1.414 . S
C667 C668 1.374 . S
C668 H642 0.950 . S
C668 C664 1.385 . S
C668 C667 1.374 . S
C669 C666 1.499 . S
C669 C670 1.373 . S
C669 C671 1.389 . S
C670 H643 0.950 . S
C670 C656 1.377 . S
C670 C669 1.373 . S
C671 C655 1.377 . S
C671 C669 1.389 . S
C671 C672 1.524 . S
C672 C671 1.524 . S
C672 C673 1.397 . S
C672 C677 1.363 . S
C673 H644 0.950 . S
C673 C672 1.397 . S
C673 C674 1.334 . S
C674 H645 0.950 . S
C674 C673 1.334 . S
C674 C675 1.287 . S
C675 C674 1.287 . S
C675 C676 1.524 . S
C675 H678 0.999 . S
C676 H646 0.950 . S
C676 C675 1.524 . S
C676 C677 1.415 . S
C677 H647 0.950 . S
C677 C672 1.363 . S
C677 C676 1.415 . S
H678 C675 0.999 . S
H679 C660 0.913 . S
H680 C698 0.951 . S
H681 C700 0.951 . S
H682 C702 0.950 . S
H683 C703 0.950 . S
H684 C705 0.950 . S
H685 C708 0.950 . S
H686 C709 0.950 . S
H687 C711 0.950 . S
H688 C712 0.950 . S
H689 C713 0.951 . S
H690 C715 0.951 . S
H691 C717 0.950 . S
H692 C718 0.950 . S
H693 C720 0.950 . S
H694 C723 0.950 . S
H695 C724 0.950 . S
H696 C726 0.950 . S
H697 C727 0.950 . S
C698 H680 0.951 . S
C698 C699 1.366 . S
C698 C700 1.388 . S
C699 C698 1.366 . S
C699 C703 1.385 . S
C700 H681 0.951 . S
C700 C698 1.388 . S
C700 C701 1.366 . S
C701 C700 1.366 . S
C701 C702 1.414 . S
C701 C704 1.499 . S
C702 H682 0.950 . S
C702 C701 1.414 . S
C702 C703 1.374 . S
C703 H683 0.950 . S
C703 C699 1.385 . S
C703 C702 1.374 . S
C704 C701 1.499 . S
C704 C705 1.373 . S
C704 C706 1.389 . S
C705 H684 0.950 . S
C705 C704 1.373 . S
C705 C721 1.377 1_455 S
C706 C704 1.389 . S
C706 C707 1.524 . S
C706 C720 1.376 1_455 S
C707 C706 1.524 . S
C707 C708 1.397 . S
C707 C712 1.363 . S
C708 H685 0.950 . S
C708 C707 1.397 . S
C708 C709 1.334 . S
C709 H686 0.950 . S
C709 C708 1.334 . S
C709 C710 1.287 . S
C710 C709 1.287 . S
C710 C711 1.524 . S
C710 H729 0.913 . S
C711 H687 0.950 . S
C711 C710 1.524 . S
C711 C712 1.415 . S
C712 H688 0.950 . S
C712 C707 1.363 . S
C712 C711 1.415 . S
C713 H689 0.951 . S
C713 C714 1.366 . S
C713 C715 1.388 . S
C714 C713 1.366 . S
C714 C718 1.385 . S
C715 H690 0.951 . S
C715 C713 1.388 . S
C715 C716 1.366 . S
C716 C715 1.366 . S
C716 C717 1.414 . S
C716 C719 1.499 . S
C717 H691 0.950 . S
C717 C716 1.414 . S
C717 C718 1.374 . S
C718 H692 0.950 . S
C718 C714 1.385 . S
C718 C717 1.374 . S
C719 C716 1.499 . S
C719 C720 1.375 . S
C719 C721 1.389 . S
C720 H693 0.950 . S
C720 C706 1.376 1_655 S
C720 C719 1.375 . S
C721 C705 1.377 1_655 S
C721 C719 1.389 . S
C721 C722 1.524 . S
C722 C721 1.524 . S
C722 C723 1.397 . S
C722 C727 1.363 . S
C723 H694 0.950 . S
C723 C722 1.397 . S
C723 C724 1.334 . S
C724 H695 0.950 . S
C724 C723 1.334 . S
C724 C725 1.287 . S
C725 C724 1.287 . S
C725 C726 1.524 . S
C725 H728 0.999 . S
C726 H696 0.950 . S
C726 C725 1.524 . S
C726 C727 1.415 . S
C727 H697 0.950 . S
C727 C722 1.363 . S
C727 C726 1.415 . S
H728 C725 0.999 . S
H729 C710 0.913 . S
H730 C748 0.951 . S
H731 C750 0.951 . S
H732 C752 0.950 . S
H733 C753 0.950 . S
H734 C755 0.950 . S
H735 C758 0.950 . S
H736 C759 0.950 . S
H737 C761 0.950 . S
H738 C762 0.950 . S
H739 C763 0.951 . S
H740 C765 0.951 . S
H741 C767 0.950 . S
H742 C768 0.950 . S
H743 C770 0.950 . S
H744 C773 0.950 . S
H745 C774 0.950 . S
H746 C776 0.950 . S
H747 C777 0.950 . S
C748 H730 0.951 . S
C748 C749 1.366 . S
C748 C750 1.388 . S
C749 C748 1.366 . S
C749 C753 1.385 . S
C750 H731 0.951 . S
C750 C748 1.388 . S
C750 C751 1.366 . S
C751 C750 1.366 . S
C751 C752 1.414 . S
C751 C754 1.499 . S
C752 H732 0.950 . S
C752 C751 1.414 . S
C752 C753 1.374 . S
C753 H733 0.950 . S
C753 C749 1.385 . S
C753 C752 1.374 . S
C754 C751 1.499 . S
C754 C755 1.373 . S
C754 C756 1.389 . S
C755 H734 0.950 . S
C755 C754 1.373 . S
C755 C771 1.377 1_565 S
C756 C754 1.389 . S
C756 C757 1.524 . S
C756 C770 1.377 1_565 S
C757 C756 1.524 . S
C757 C758 1.397 . S
C757 C762 1.363 . S
C758 H735 0.950 . S
C758 C757 1.397 . S
C758 C759 1.334 . S
C759 H736 0.950 . S
C759 C758 1.334 . S
C759 C760 1.287 . S
C760 C759 1.287 . S
C760 C761 1.524 . S
C760 H779 0.913 . S
C761 H737 0.950 . S
C761 C760 1.524 . S
C761 C762 1.415 . S
C762 H738 0.950 . S
C762 C757 1.363 . S
C762 C761 1.415 . S
C763 H739 0.951 . S
C763 C764 1.366 . S
C763 C765 1.388 . S
C764 C763 1.366 . S
C764 C768 1.385 . S
C765 H740 0.951 . S
C765 C763 1.388 . S
C765 C766 1.366 . S
C766 C765 1.366 . S
C766 C767 1.414 . S
C766 C769 1.499 . S
C767 H741 0.950 . S
C767 C766 1.414 . S
C767 C768 1.374 . S
C768 H742 0.950 . S
C768 C764 1.385 . S
C768 C767 1.374 . S
C769 C766 1.499 . S
C769 C770 1.373 . S
C769 C771 1.389 . S
C770 H743 0.950 . S
C770 C756 1.377 1_545 S
C770 C769 1.373 . S
C771 C755 1.377 1_545 S
C771 C769 1.389 . S
C771 C772 1.524 . S
C772 C771 1.524 . S
C772 C773 1.397 . S
C772 C777 1.363 . S
C773 H744 0.950 . S
C773 C772 1.397 . S
C773 C774 1.334 . S
C774 H745 0.950 . S
C774 C773 1.334 . S
C774 C775 1.287 . S
C775 C774 1.287 . S
C775 C776 1.524 . S
C775 H778 0.999 . S
C776 H746 0.950 . S
C776 C775 1.524 . S
C776 C777 1.415 . S
C777 H747 0.950 . S
C777 C772 1.363 . S
C777 C776 1.415 . S
H778 C775 0.999 . S
H779 C760 0.913 . S
H780 C798 0.951 . S
H781 C800 0.951 . S
H782 C802 0.950 . S
H783 C803 0.950 . S
H784 C805 0.950 . S
H785 C808 0.950 . S
H786 C809 0.950 . S
H787 C811 0.950 . S
H788 C812 0.950 . S
H789 C813 0.951 . S
H790 C815 0.951 . S
H791 C817 0.950 . S
H792 C818 0.950 . S
H793 C820 0.950 . S
H794 C823 0.950 . S
H795 C824 0.950 . S
H796 C826 0.950 . S
H797 C827 0.950 . S
C798 H780 0.951 . S
C798 C799 1.366 . S
C798 C800 1.388 . S
C799 C798 1.366 . S
C799 C803 1.385 . S
C800 H781 0.951 . S
C800 C798 1.388 . S
C800 C801 1.366 . S
C801 C800 1.366 . S
C801 C802 1.414 . S
C801 C804 1.499 . S
C802 H782 0.950 . S
C802 C801 1.414 . S
C802 C803 1.374 . S
C803 H783 0.950 . S
C803 C799 1.385 . S
C803 C802 1.374 . S
C804 C801 1.499 . S
C804 C805 1.373 . S
C804 C806 1.389 . S
C805 H784 0.950 . S
C805 C804 1.373 . S
C805 C821 1.377 . S
C806 C804 1.389 . S
C806 C807 1.524 . S
C806 C820 1.377 . S
C807 C806 1.524 . S
C807 C808 1.397 . S
C807 C812 1.363 . S
C808 H785 0.950 . S
C808 C807 1.397 . S
C808 C809 1.334 . S
C809 H786 0.950 . S
C809 C808 1.334 . S
C809 C810 1.287 . S
C810 C809 1.287 . S
C810 C811 1.524 . S
C810 H829 0.913 . S
C811 H787 0.950 . S
C811 C810 1.524 . S
C811 C812 1.415 . S
C812 H788 0.950 . S
C812 C807 1.363 . S
C812 C811 1.415 . S
C813 H789 0.951 . S
C813 C814 1.366 . S
C813 C815 1.388 . S
C814 C813 1.366 . S
C814 C818 1.385 . S
C815 H790 0.951 . S
C815 C813 1.388 . S
C815 C816 1.366 . S
C816 C815 1.366 . S
C816 C817 1.414 . S
C816 C819 1.499 . S
C817 H791 0.950 . S
C817 C816 1.414 . S
C817 C818 1.374 . S
C818 H792 0.950 . S
C818 C814 1.385 . S
C818 C817 1.374 . S
C819 C816 1.499 . S
C819 C820 1.373 . S
C819 C821 1.389 . S
C820 H793 0.950 . S
C820 C806 1.377 . S
C820 C819 1.373 . S
C821 C805 1.377 . S
C821 C819 1.389 . S
C821 C822 1.524 . S
C822 C821 1.524 . S
C822 C823 1.397 . S
C822 C827 1.363 . S
C823 H794 0.950 . S
C823 C822 1.397 . S
C823 C824 1.334 . S
C824 H795 0.950 . S
C824 C823 1.334 . S
C824 C825 1.287 . S
C825 C824 1.287 . S
C825 C826 1.524 . S
C825 H828 0.999 . S
C826 H796 0.950 . S
C826 C825 1.524 . S
C826 C827 1.415 . S
C827 H797 0.950 . S
C827 C822 1.363 . S
C827 C826 1.415 . S
H828 C825 0.999 . S
H829 C810 0.913 . S
H830 C848 0.951 . S
H831 C850 0.951 . S
H832 C852 0.950 . S
H833 C853 0.950 . S
H834 C855 0.950 . S
H835 C858 0.950 . S
H836 C859 0.950 . S
H837 C861 0.950 . S
H838 C862 0.950 . S
H839 C863 0.951 . S
H840 C865 0.951 . S
H841 C867 0.950 . S
H842 C868 0.950 . S
H843 C870 0.950 . S
H844 C873 0.950 . S
H845 C874 0.950 . S
H846 C876 0.950 . S
H847 C877 0.950 . S
C848 H830 0.951 . S
C848 C849 1.366 . S
C848 C850 1.388 . S
C849 C848 1.366 . S
C849 C853 1.385 . S
C850 H831 0.951 . S
C850 C848 1.388 . S
C850 C851 1.366 . S
C851 C850 1.366 . S
C851 C852 1.414 . S
C851 C854 1.499 . S
C852 H832 0.950 . S
C852 C851 1.414 . S
C852 C853 1.374 . S
C853 H833 0.950 . S
C853 C849 1.385 . S
C853 C852 1.374 . S
C854 C851 1.499 . S
C854 C855 1.373 . S
C854 C856 1.389 . S
C855 H834 0.950 . S
C855 C854 1.373 . S
C855 C871 1.377 1_455 S
C856 C854 1.389 . S
C856 C857 1.524 . S
C856 C870 1.377 1_455 S
C857 C856 1.524 . S
C857 C858 1.397 . S
C857 C862 1.363 . S
C858 H835 0.950 . S
C858 C857 1.397 . S
C858 C859 1.334 . S
C859 H836 0.950 . S
C859 C858 1.334 . S
C859 C860 1.287 . S
C860 C859 1.287 . S
C860 C861 1.524 . S
C860 H879 0.913 . S
C861 H837 0.950 . S
C861 C860 1.524 . S
C861 C862 1.415 . S
C862 H838 0.950 . S
C862 C857 1.363 . S
C862 C861 1.415 . S
C863 H839 0.951 . S
C863 C864 1.366 . S
C863 C865 1.388 . S
C864 C863 1.366 . S
C864 C868 1.385 . S
C865 H840 0.951 . S
C865 C863 1.388 . S
C865 C866 1.366 . S
C866 C865 1.366 . S
C866 C867 1.414 . S
C866 C869 1.499 . S
C867 H841 0.950 . S
C867 C866 1.414 . S
C867 C868 1.374 . S
C868 H842 0.950 . S
C868 C864 1.385 . S
C868 C867 1.374 . S
C869 C866 1.499 . S
C869 C870 1.373 . S
C869 C871 1.389 . S
C870 H843 0.950 . S
C870 C856 1.377 1_655 S
C870 C869 1.373 . S
C871 C855 1.377 1_655 S
C871 C869 1.389 . S
C871 C872 1.524 . S
C872 C871 1.524 . S
C872 C873 1.397 . S
C872 C877 1.363 . S
C873 H844 0.950 . S
C873 C872 1.397 . S
C873 C874 1.334 . S
C874 H845 0.950 . S
C874 C873 1.334 . S
C874 C875 1.287 . S
C875 C874 1.287 . S
C875 C876 1.524 . S
C875 H878 0.999 . S
C876 H846 0.950 . S
C876 C875 1.524 . S
C876 C877 1.415 . S
C877 H847 0.950 . S
C877 C872 1.363 . S
C877 C876 1.415 . S
H878 C875 0.999 . S
H879 C860 0.913 . S
H880 C898 0.951 . S
H881 C900 0.951 . S
H882 C902 0.950 . S
H883 C903 0.950 . S
H884 C905 0.950 . S
H885 C908 0.950 . S
H886 C909 0.950 . S
H887 C911 0.950 . S
H888 C912 0.950 . S
H889 C913 0.951 . S
H890 C915 0.951 . S
H891 C917 0.950 . S
H892 C918 0.950 . S
H893 C920 0.950 . S
H894 C923 0.950 . S
H895 C924 0.950 . S
H896 C926 0.950 . S
H897 C927 0.950 . S
C898 H880 0.951 . S
C898 C899 1.366 . S
C898 C900 1.388 . S
C899 C898 1.366 . S
C899 C903 1.385 . S
C900 H881 0.951 . S
C900 C898 1.388 . S
C900 C901 1.366 . S
C901 C900 1.366 . S
C901 C902 1.414 . S
C901 C904 1.499 . S
C902 H882 0.950 . S
C902 C901 1.414 . S
C902 C903 1.374 . S
C903 H883 0.950 . S
C903 C899 1.385 . S
C903 C902 1.374 . S
C904 C901 1.499 . S
C904 C905 1.373 . S
C904 C906 1.389 . S
C905 H884 0.950 . S
C905 C904 1.373 . S
C905 C921 1.377 1_565 S
C906 C904 1.389 . S
C906 C907 1.524 . S
C906 C920 1.377 1_565 S
C907 C906 1.524 . S
C907 C908 1.397 . S
C907 C912 1.363 . S
C908 H885 0.950 . S
C908 C907 1.397 . S
C908 C909 1.334 . S
C909 H886 0.950 . S
C909 C908 1.334 . S
C909 C910 1.287 . S
C910 C909 1.287 . S
C910 C911 1.524 . S
C910 H929 0.913 . S
C911 H887 0.950 . S
C911 C910 1.524 . S
C911 C912 1.415 . S
C912 H888 0.950 . S
C912 C907 1.363 . S
C912 C911 1.415 . S
C913 H889 0.951 . S
C913 C914 1.366 . S
C913 C915 1.388 . S
C914 C913 1.366 . S
C914 C918 1.385 . S
C915 H890 0.951 . S
C915 C913 1.388 . S
C915 C916 1.366 . S
C916 C915 1.366 . S
C916 C917 1.414 . S
C916 C919 1.499 . S
C917 H891 0.950 . S
C917 C916 1.414 . S
C917 C918 1.374 . S
C918 H892 0.950 . S
C918 C914 1.385 . S
C918 C917 1.374 . S
C919 C916 1.499 . S
C919 C920 1.373 . S
C919 C921 1.389 . S
C920 H893 0.950 . S
C920 C906 1.377 1_545 S
C920 C919 1.373 . S
C921 C905 1.377 1_545 S
C921 C919 1.389 . S
C921 C922 1.524 . S
C922 C921 1.524 . S
C922 C923 1.397 . S
C922 C927 1.363 . S
C923 H894 0.950 . S
C923 C922 1.397 . S
C923 C924 1.334 . S
C924 H895 0.950 . S
C924 C923 1.334 . S
C924 C925 1.287 . S
C925 C924 1.287 . S
C925 C926 1.524 . S
C925 H928 0.999 . S
C926 H896 0.950 . S
C926 C925 1.524 . S
C926 C927 1.415 . S
C927 H897 0.950 . S
C927 C922 1.363 . S
C927 C926 1.415 . S
H928 C925 0.999 . S
H929 C910 0.913 . S
H930 C948 0.951 . S
H931 C950 0.951 . S
H932 C952 0.950 . S
H933 C953 0.950 . S
H934 C955 0.950 . S
H935 C958 0.950 . S
H936 C959 0.950 . S
H937 C961 0.950 . S
H938 C962 0.950 . S
H939 C963 0.951 . S
H940 C965 0.951 . S
H941 C967 0.950 . S
H942 C968 0.950 . S
H943 C970 0.950 . S
H944 C973 0.950 . S
H945 C974 0.950 . S
H946 C976 0.950 . S
H947 C977 0.950 . S
C948 H930 0.951 . S
C948 C949 1.366 . S
C948 C950 1.388 . S
C949 C948 1.366 . S
C949 C953 1.385 . S
C950 H931 0.951 . S
C950 C948 1.388 . S
C950 C951 1.366 . S
C951 C950 1.366 . S
C951 C952 1.414 . S
C951 C954 1.499 . S
C952 H932 0.950 . S
C952 C951 1.414 . S
C952 C953 1.374 . S
C953 H933 0.950 . S
C953 C949 1.385 . S
C953 C952 1.374 . S
C954 C951 1.499 . S
C954 C955 1.373 . S
C954 C956 1.389 . S
C955 H934 0.950 . S
C955 C954 1.373 . S
C955 C971 1.377 . S
C956 C954 1.389 . S
C956 C957 1.524 . S
C956 C970 1.377 . S
C957 C956 1.524 . S
C957 C958 1.397 . S
C957 C962 1.363 . S
C958 H935 0.950 . S
C958 C957 1.397 . S
C958 C959 1.334 . S
C959 H936 0.950 . S
C959 C958 1.334 . S
C959 C960 1.287 . S
C960 C959 1.287 . S
C960 C961 1.524 . S
C960 H979 0.913 . S
C961 H937 0.950 . S
C961 C960 1.524 . S
C961 C962 1.415 . S
C962 H938 0.950 . S
C962 C957 1.363 . S
C962 C961 1.415 . S
C963 H939 0.951 . S
C963 C964 1.366 . S
C963 C965 1.388 . S
C964 C963 1.366 . S
C964 C968 1.385 . S
C965 H940 0.951 . S
C965 C963 1.388 . S
C965 C966 1.366 . S
C966 C965 1.366 . S
C966 C967 1.414 . S
C966 C969 1.499 . S
C967 H941 0.950 . S
C967 C966 1.414 . S
C967 C968 1.374 . S
C968 H942 0.950 . S
C968 C964 1.385 . S
C968 C967 1.374 . S
C969 C966 1.499 . S
C969 C970 1.373 . S
C969 C971 1.389 . S
C970 H943 0.950 . S
C970 C956 1.377 . S
C970 C969 1.373 . S
C971 C955 1.377 . S
C971 C969 1.389 . S
C971 C972 1.524 . S
C972 C971 1.524 . S
C972 C973 1.397 . S
C972 C977 1.363 . S
C973 H944 0.950 . S
C973 C972 1.397 . S
C973 C974 1.334 . S
C974 H945 0.950 . S
C974 C973 1.334 . S
C974 C975 1.287 . S
C975 C974 1.287 . S
C975 C976 1.524 . S
C975 H978 0.999 . S
C976 H946 0.950 . S
C976 C975 1.524 . S
C976 C977 1.415 . S
C977 H947 0.950 . S
C977 C972 1.363 . S
C977 C976 1.415 . S
H978 C975 0.999 . S
H979 C960 0.913 . S
H980 C998 0.951 . S
H981 C1000 0.951 . S
H982 C1002 0.950 . S
H983 C1003 0.950 . S
H984 C1005 0.950 . S
H985 C1008 0.950 . S
H986 C1009 0.950 . S
H987 C1011 0.950 1_655 S
H988 C1012 0.950 . S
H989 C1013 0.951 . S
H990 C1015 0.951 . S
H991 C1017 0.950 . S
H992 C1018 0.950 . S
H993 C1020 0.950 . S
H994 C1023 0.950 . S
H995 C1024 0.950 . S
H996 C1026 0.950 . S
H997 C1027 0.950 1_455 S
C998 H980 0.951 . S
C998 C999 1.366 . S
C998 C1000 1.388 . S
C999 C998 1.366 . S
C999 C1003 1.385 . S
C1000 H981 0.951 . S
C1000 C998 1.388 . S
C1000 C1001 1.366 . S
C1001 C1000 1.366 . S
C1001 C1002 1.414 . S
C1001 C1004 1.499 . S
C1002 H982 0.950 . S
C1002 C1001 1.414 . S
C1002 C1003 1.374 . S
C1003 H983 0.950 . S
C1003 C999 1.385 . S
C1003 C1002 1.374 . S
C1004 C1001 1.499 . S
C1004 C1005 1.373 . S
C1004 C1006 1.389 . S
C1005 H984 0.950 . S
C1005 C1004 1.373 . S
C1005 C1021 1.377 1_455 S
C1006 C1004 1.389 . S
C1006 C1007 1.524 . S
C1006 C1020 1.377 1_455 S
C1007 C1006 1.524 . S
C1007 C1008 1.397 . S
C1007 C1012 1.363 1_455 S
C1008 H985 0.950 . S
C1008 C1007 1.397 . S
C1008 C1009 1.334 . S
C1009 H986 0.950 . S
C1009 C1008 1.334 . S
C1009 C1010 1.287 . S
C1010 C1009 1.287 . S
C1010 C1011 1.524 . S
C1010 H1029 0.913 . S
C1011 H987 0.950 1_455 S
C1011 C1010 1.524 . S
C1011 C1012 1.415 1_455 S
C1012 H988 0.950 . S
C1012 C1007 1.363 1_655 S
C1012 C1011 1.415 1_655 S
C1013 H989 0.951 . S
C1013 C1014 1.366 . S
C1013 C1015 1.388 . S
C1014 C1013 1.366 . S
C1014 C1018 1.385 . S
C1015 H990 0.951 . S
C1015 C1013 1.388 . S
C1015 C1016 1.366 . S
C1016 C1015 1.366 . S
C1016 C1017 1.414 . S
C1016 C1019 1.499 . S
C1017 H991 0.950 . S
C1017 C1016 1.414 . S
C1017 C1018 1.374 . S
C1018 H992 0.950 . S
C1018 C1014 1.385 . S
C1018 C1017 1.374 . S
C1019 C1016 1.499 . S
C1019 C1020 1.373 . S
C1019 C1021 1.389 . S
C1020 H993 0.950 . S
C1020 C1006 1.377 1_655 S
C1020 C1019 1.373 . S
C1021 C1005 1.377 1_655 S
C1021 C1019 1.389 . S
C1021 C1022 1.524 . S
C1022 C1021 1.524 . S
C1022 C1023 1.397 . S
C1022 C1027 1.363 . S
C1023 H994 0.950 . S
C1023 C1022 1.397 . S
C1023 C1024 1.334 . S
C1024 H995 0.950 . S
C1024 C1023 1.334 . S
C1024 C1025 1.287 . S
C1025 C1024 1.287 . S
C1025 C1026 1.524 . S
C1025 H1028 0.999 . S
C1026 H996 0.950 . S
C1026 C1025 1.524 . S
C1026 C1027 1.415 . S
C1027 H997 0.950 1_655 S
C1027 C1022 1.363 . S
C1027 C1026 1.415 . S
H1028 C1025 0.999 . S
H1029 C1010 0.913 . S
H1030 C1048 0.951 . S
H1031 C1050 0.951 . S
H1032 C1052 0.950 . S
H1033 C1053 0.950 . S
H1034 C1055 0.950 . S
H1035 C1058 0.950 . S
H1036 C1059 0.950 . S
H1037 C1061 0.950 . S
H1038 C1062 0.950 . S
H1039 C1063 0.951 . S
H1040 C1065 0.951 . S
H1041 C1067 0.950 . S
H1042 C1068 0.950 . S
H1043 C1070 0.950 . S
H1044 C1073 0.950 . S
H1045 C1074 0.950 . S
H1046 C1076 0.950 . S
H1047 C1077 0.950 . S
C1048 H1030 0.951 . S
C1048 C1049 1.366 . S
C1048 C1050 1.388 . S
C1049 C1048 1.366 . S
C1049 C1053 1.385 . S
C1050 H1031 0.951 . S
C1050 C1048 1.388 . S
C1050 C1051 1.366 . S
C1051 C1050 1.366 . S
C1051 C1052 1.414 . S
C1051 C1054 1.499 . S
C1052 H1032 0.950 . S
C1052 C1051 1.414 . S
C1052 C1053 1.374 . S
C1053 H1033 0.950 . S
C1053 C1049 1.385 . S
C1053 C1052 1.374 . S
C1054 C1051 1.499 . S
C1054 C1055 1.373 . S
C1054 C1056 1.389 . S
C1055 H1034 0.950 . S
C1055 C1054 1.373 . S
C1055 C1071 1.377 1_545 S
C1056 C1054 1.389 . S
C1056 C1057 1.524 . S
C1056 C1070 1.377 1_545 S
C1057 C1056 1.524 . S
C1057 C1058 1.397 . S
C1057 C1062 1.363 . S
C1058 H1035 0.950 . S
C1058 C1057 1.397 . S
C1058 C1059 1.334 . S
C1059 H1036 0.950 . S
C1059 C1058 1.334 . S
C1059 C1060 1.287 . S
C1060 C1059 1.287 . S
C1060 C1061 1.524 . S
C1060 H1079 0.913 . S
C1061 H1037 0.950 . S
C1061 C1060 1.524 . S
C1061 C1062 1.415 . S
C1062 H1038 0.950 . S
C1062 C1057 1.363 . S
C1062 C1061 1.415 . S
C1063 H1039 0.951 . S
C1063 C1064 1.366 . S
C1063 C1065 1.388 . S
C1064 C1063 1.366 . S
C1064 C1068 1.385 . S
C1065 H1040 0.951 . S
C1065 C1063 1.388 . S
C1065 C1066 1.366 . S
C1066 C1065 1.366 . S
C1066 C1067 1.414 . S
C1066 C1069 1.499 . S
C1067 H1041 0.950 . S
C1067 C1066 1.414 . S
C1067 C1068 1.374 . S
C1068 H1042 0.950 . S
C1068 C1064 1.385 . S
C1068 C1067 1.374 . S
C1069 C1066 1.499 . S
C1069 C1070 1.373 . S
C1069 C1071 1.389 . S
C1070 H1043 0.950 . S
C1070 C1056 1.377 1_565 S
C1070 C1069 1.373 . S
C1071 C1055 1.377 1_565 S
C1071 C1069 1.389 . S
C1071 C1072 1.524 . S
C1072 C1071 1.524 . S
C1072 C1073 1.397 . S
C1072 C1077 1.363 . S
C1073 H1044 0.950 . S
C1073 C1072 1.397 . S
C1073 C1074 1.334 . S
C1074 H1045 0.950 . S
C1074 C1073 1.334 . S
C1074 C1075 1.287 . S
C1075 C1074 1.287 . S
C1075 C1076 1.524 . S
C1075 H1078 0.999 . S
C1076 H1046 0.950 . S
C1076 C1075 1.524 . S
C1076 C1077 1.415 . S
C1077 H1047 0.950 . S
C1077 C1072 1.363 . S
C1077 C1076 1.415 . S
H1078 C1075 0.999 . S
H1079 C1060 0.913 . S
H1080 C1098 0.951 . S
H1081 C1100 0.951 . S
H1082 C1102 0.950 . S
H1083 C1103 0.950 . S
H1084 C1105 0.950 . S
H1085 C1108 0.950 . S
H1086 C1109 0.950 . S
H1087 C1111 0.950 . S
H1088 C1112 0.950 . S
H1089 C1113 0.951 . S
H1090 C1115 0.951 . S
H1091 C1117 0.950 . S
H1092 C1118 0.950 . S
H1093 C1120 0.950 . S
H1094 C1123 0.950 . S
H1095 C1124 0.950 . S
H1096 C1126 0.950 . S
H1097 C1127 0.950 . S
C1098 H1080 0.951 . S
C1098 C1099 1.366 . S
C1098 C1100 1.388 . S
C1099 C1098 1.366 . S
C1099 C1103 1.385 . S
C1100 H1081 0.951 . S
C1100 C1098 1.388 . S
C1100 C1101 1.366 . S
C1101 C1100 1.366 . S
C1101 C1102 1.414 . S
C1101 C1104 1.499 . S
C1102 H1082 0.950 . S
C1102 C1101 1.414 . S
C1102 C1103 1.374 . S
C1103 H1083 0.950 . S
C1103 C1099 1.385 . S
C1103 C1102 1.374 . S
C1104 C1101 1.499 . S
C1104 C1105 1.373 . S
C1104 C1106 1.389 . S
C1105 H1084 0.950 . S
C1105 C1104 1.373 . S
C1105 C1121 1.377 . S
C1106 C1104 1.389 . S
C1106 C1107 1.524 . S
C1106 C1120 1.377 . S
C1107 C1106 1.524 . S
C1107 C1108 1.397 . S
C1107 C1112 1.363 . S
C1108 H1085 0.950 . S
C1108 C1107 1.397 . S
C1108 C1109 1.334 . S
C1109 H1086 0.950 . S
C1109 C1108 1.334 . S
C1109 C1110 1.287 . S
C1110 C1109 1.287 . S
C1110 C1111 1.524 . S
C1110 H1129 0.913 . S
C1111 H1087 0.950 . S
C1111 C1110 1.524 . S
C1111 C1112 1.415 . S
C1112 H1088 0.950 . S
C1112 C1107 1.363 . S
C1112 C1111 1.415 . S
C1113 H1089 0.951 . S
C1113 C1114 1.366 . S
C1113 C1115 1.388 . S
C1114 C1113 1.366 . S
C1114 C1118 1.385 . S
C1115 H1090 0.951 . S
C1115 C1113 1.388 . S
C1115 C1116 1.366 . S
C1116 C1115 1.366 . S
C1116 C1117 1.414 . S
C1116 C1119 1.499 . S
C1117 H1091 0.950 . S
C1117 C1116 1.414 . S
C1117 C1118 1.374 . S
C1118 H1092 0.950 . S
C1118 C1114 1.385 . S
C1118 C1117 1.374 . S
C1119 C1116 1.499 . S
C1119 C1120 1.373 . S
C1119 C1121 1.389 . S
C1120 H1093 0.950 . S
C1120 C1106 1.377 . S
C1120 C1119 1.373 . S
C1121 C1105 1.377 . S
C1121 C1119 1.389 . S
C1121 C1122 1.524 . S
C1122 C1121 1.524 . S
C1122 C1123 1.397 . S
C1122 C1127 1.363 . S
C1123 H1094 0.950 . S
C1123 C1122 1.397 . S
C1123 C1124 1.334 . S
C1124 H1095 0.950 . S
C1124 C1123 1.334 . S
C1124 C1125 1.287 . S
C1125 C1124 1.287 . S
C1125 C1126 1.524 . S
C1125 H1128 0.999 . S
C1126 H1096 0.950 . S
C1126 C1125 1.524 . S
C1126 C1127 1.415 . S
C1127 H1097 0.950 . S
C1127 C1122 1.363 . S
C1127 C1126 1.415 . S
H1128 C1125 0.999 . S
H1129 C1110 0.913 . S
H1130 C1148 0.951 . S
H1131 C1150 0.951 . S
H1132 C1152 0.950 . S
H1133 C1153 0.950 . S
H1134 C1155 0.950 . S
H1135 C1158 0.950 . S
H1136 C1159 0.950 . S
H1137 C1161 0.950 . S
H1138 C1162 0.950 . S
H1139 C1163 0.951 . S
H1140 C1165 0.951 . S
H1141 C1167 0.950 . S
H1142 C1168 0.950 . S
H1143 C1170 0.950 . S
H1144 C1173 0.950 . S
H1145 C1174 0.950 . S
H1146 C1176 0.950 . S
H1147 C1177 0.950 . S
C1148 H1130 0.951 . S
C1148 C1149 1.366 . S
C1148 C1150 1.388 . S
C1149 C1148 1.366 . S
C1149 C1153 1.385 . S
C1150 H1131 0.951 . S
C1150 C1148 1.388 . S
C1150 C1151 1.366 . S
C1151 C1150 1.366 . S
C1151 C1152 1.414 . S
C1151 C1154 1.499 . S
C1152 H1132 0.950 . S
C1152 C1151 1.414 . S
C1152 C1153 1.374 . S
C1153 H1133 0.950 . S
C1153 C1149 1.385 . S
C1153 C1152 1.374 . S
C1154 C1151 1.499 . S
C1154 C1155 1.373 . S
C1154 C1156 1.389 . S
C1155 H1134 0.950 . S
C1155 C1154 1.373 . S
C1155 C1171 1.377 . S
C1156 C1154 1.389 . S
C1156 C1157 1.524 . S
C1156 C1170 1.377 . S
C1157 C1156 1.524 . S
C1157 C1158 1.397 . S
C1157 C1162 1.363 . S
C1158 H1135 0.950 . S
C1158 C1157 1.397 . S
C1158 C1159 1.334 . S
C1159 H1136 0.950 . S
C1159 C1158 1.334 . S
C1159 C1160 1.287 . S
C1160 C1159 1.287 . S
C1160 C1161 1.524 . S
C1160 H1179 0.913 . S
C1161 H1137 0.950 . S
C1161 C1160 1.524 . S
C1161 C1162 1.415 . S
C1162 H1138 0.950 . S
C1162 C1157 1.363 . S
C1162 C1161 1.415 . S
C1163 H1139 0.951 . S
C1163 C1164 1.366 . S
C1163 C1165 1.388 . S
C1164 C1163 1.366 . S
C1164 C1168 1.385 . S
C1165 H1140 0.951 . S
C1165 C1163 1.388 . S
C1165 C1166 1.366 . S
C1166 C1165 1.366 . S
C1166 C1167 1.414 . S
C1166 C1169 1.499 . S
C1167 H1141 0.950 . S
C1167 C1166 1.414 . S
C1167 C1168 1.374 . S
C1168 H1142 0.950 . S
C1168 C1164 1.385 . S
C1168 C1167 1.374 . S
C1169 C1166 1.499 . S
C1169 C1170 1.373 . S
C1169 C1171 1.389 . S
C1170 H1143 0.950 . S
C1170 C1156 1.377 . S
C1170 C1169 1.373 . S
C1171 C1155 1.377 . S
C1171 C1169 1.389 . S
C1171 C1172 1.524 . S
C1172 C1171 1.524 . S
C1172 C1173 1.397 . S
C1172 C1177 1.363 . S
C1173 H1144 0.950 . S
C1173 C1172 1.397 . S
C1173 C1174 1.334 . S
C1174 H1145 0.950 . S
C1174 C1173 1.334 . S
C1174 C1175 1.287 . S
C1175 C1174 1.287 . S
C1175 C1176 1.524 . S
C1175 H1178 0.999 . S
C1176 H1146 0.950 . S
C1176 C1175 1.524 . S
C1176 C1177 1.415 . S
C1177 H1147 0.950 . S
C1177 C1172 1.363 . S
C1177 C1176 1.415 . S
H1178 C1175 0.999 . S
H1179 C1160 0.913 . S
H1180 C1198 0.951 . S
H1181 C1200 0.951 . S
H1182 C1202 0.950 . S
H1183 C1203 0.950 . S
H1184 C1205 0.950 . S
H1185 C1208 0.950 . S
H1186 C1209 0.950 . S
H1187 C1211 0.950 . S
H1188 C1212 0.950 . S
H1189 C1213 0.951 . S
H1190 C1215 0.951 . S
H1191 C1217 0.950 . S
H1192 C1218 0.950 . S
H1193 C1220 0.950 . S
H1194 C1223 0.950 . S
H1195 C1224 0.950 . S
H1196 C1226 0.950 . S
H1197 C1227 0.950 . S
C1198 H1180 0.951 . S
C1198 C1199 1.366 . S
C1198 C1200 1.388 . S
C1199 C1198 1.366 . S
C1199 C1203 1.385 . S
C1200 H1181 0.951 . S
C1200 C1198 1.388 . S
C1200 C1201 1.366 . S
C1201 C1200 1.366 . S
C1201 C1202 1.414 . S
C1201 C1204 1.499 . S
C1202 H1182 0.950 . S
C1202 C1201 1.414 . S
C1202 C1203 1.374 . S
C1203 H1183 0.950 . S
C1203 C1199 1.385 . S
C1203 C1202 1.374 . S
C1204 C1201 1.499 . S
C1204 C1205 1.373 . S
C1204 C1206 1.389 . S
C1205 H1184 0.950 . S
C1205 C1204 1.373 . S
C1205 C1221 1.377 . S
C1206 C1204 1.389 . S
C1206 C1207 1.524 . S
C1206 C1220 1.377 . S
C1207 C1206 1.524 . S
C1207 C1208 1.397 . S
C1207 C1212 1.363 . S
C1208 H1185 0.950 . S
C1208 C1207 1.397 . S
C1208 C1209 1.334 . S
C1209 H1186 0.950 . S
C1209 C1208 1.334 . S
C1209 C1210 1.287 . S
C1210 C1209 1.287 . S
C1210 C1211 1.524 . S
C1210 H1229 0.913 . S
C1211 H1187 0.950 . S
C1211 C1210 1.524 . S
C1211 C1212 1.415 . S
C1212 H1188 0.950 . S
C1212 C1207 1.363 . S
C1212 C1211 1.415 . S
C1213 H1189 0.951 . S
C1213 C1214 1.366 . S
C1213 C1215 1.388 . S
C1214 C1213 1.366 . S
C1214 C1218 1.385 . S
C1215 H1190 0.951 . S
C1215 C1213 1.388 . S
C1215 C1216 1.366 . S
C1216 C1215 1.366 . S
C1216 C1217 1.414 . S
C1216 C1219 1.499 . S
C1217 H1191 0.950 . S
C1217 C1216 1.414 . S
C1217 C1218 1.374 . S
C1218 H1192 0.950 . S
C1218 C1214 1.385 . S
C1218 C1217 1.374 . S
C1219 C1216 1.499 . S
C1219 C1220 1.373 . S
C1219 C1221 1.389 . S
C1220 H1193 0.950 . S
C1220 C1206 1.377 . S
C1220 C1219 1.373 . S
C1221 C1205 1.377 . S
C1221 C1219 1.389 . S
C1221 C1222 1.524 . S
C1222 C1221 1.524 . S
C1222 C1223 1.397 . S
C1222 C1227 1.363 . S
C1223 H1194 0.950 . S
C1223 C1222 1.397 . S
C1223 C1224 1.334 . S
C1224 H1195 0.950 . S
C1224 C1223 1.334 . S
C1224 C1225 1.287 . S
C1225 C1224 1.287 . S
C1225 C1226 1.524 . S
C1225 H1228 0.999 . S
C1226 H1196 0.950 . S
C1226 C1225 1.524 . S
C1226 C1227 1.415 . S
C1227 H1197 0.950 . S
C1227 C1222 1.363 . S
C1227 C1226 1.415 . S
H1228 C1225 0.999 . S
H1229 C1210 0.913 . S
H1230 C1248 0.951 . S
H1231 C1250 0.951 . S
H1232 C1252 0.950 . S
H1233 C1253 0.950 . S
H1234 C1255 0.950 . S
H1235 C1258 0.950 . S
H1236 C1259 0.950 . S
H1237 C1261 0.950 . S
H1238 C1262 0.950 . S
H1239 C1263 0.951 . S
H1240 C1265 0.951 . S
H1241 C1267 0.950 . S
H1242 C1268 0.950 . S
H1243 C1270 0.950 . S
H1244 C1273 0.950 . S
H1245 C1274 0.950 . S
H1246 C1276 0.950 . S
H1247 C1277 0.950 . S
C1248 H1230 0.951 . S
C1248 C1249 1.366 . S
C1248 C1250 1.388 . S
C1249 C1248 1.366 . S
C1249 C1253 1.385 . S
C1250 H1231 0.951 . S
C1250 C1248 1.388 . S
C1250 C1251 1.366 . S
C1251 C1250 1.366 . S
C1251 C1252 1.414 . S
C1251 C1254 1.499 . S
C1252 H1232 0.950 . S
C1252 C1251 1.414 . S
C1252 C1253 1.374 . S
C1253 H1233 0.950 . S
C1253 C1249 1.385 . S
C1253 C1252 1.374 . S
C1254 C1251 1.499 . S
C1254 C1255 1.373 . S
C1254 C1256 1.389 . S
C1255 H1234 0.950 . S
C1255 C1254 1.373 . S
C1255 C1271 1.377 . S
C1256 C1254 1.389 . S
C1256 C1257 1.524 . S
C1256 C1270 1.377 . S
C1257 C1256 1.524 . S
C1257 C1258 1.397 . S
C1257 C1262 1.363 . S
C1258 H1235 0.950 . S
C1258 C1257 1.397 . S
C1258 C1259 1.334 . S
C1259 H1236 0.950 . S
C1259 C1258 1.334 . S
C1259 C1260 1.287 . S
C1260 C1259 1.287 . S
C1260 C1261 1.524 . S
C1260 H1279 0.913 . S
C1261 H1237 0.950 . S
C1261 C1260 1.524 . S
C1261 C1262 1.415 . S
C1262 H1238 0.950 . S
C1262 C1257 1.363 . S
C1262 C1261 1.415 . S
C1263 H1239 0.951 . S
C1263 C1264 1.366 . S
C1263 C1265 1.388 . S
C1264 C1263 1.366 . S
C1264 C1268 1.385 . S
C1265 H1240 0.951 . S
C1265 C1263 1.388 . S
C1265 C1266 1.366 . S
C1266 C1265 1.366 . S
C1266 C1267 1.414 . S
C1266 C1269 1.499 . S
C1267 H1241 0.950 . S
C1267 C1266 1.414 . S
C1267 C1268 1.374 . S
C1268 H1242 0.950 . S
C1268 C1264 1.385 . S
C1268 C1267 1.374 . S
C1269 C1266 1.499 . S
C1269 C1270 1.373 . S
C1269 C1271 1.389 . S
C1270 H1243 0.950 . S
C1270 C1256 1.377 . S
C1270 C1269 1.373 . S
C1271 C1255 1.377 . S
C1271 C1269 1.389 . S
C1271 C1272 1.524 . S
C1272 C1271 1.524 . S
C1272 C1273 1.397 . S
C1272 C1277 1.363 . S
C1273 H1244 0.950 . S
C1273 C1272 1.397 . S
C1273 C1274 1.334 . S
C1274 H1245 0.950 . S
C1274 C1273 1.334 . S
C1274 C1275 1.287 . S
C1275 C1274 1.287 . S
C1275 C1276 1.524 . S
C1275 H1278 0.999 . S
C1276 H1246 0.950 . S
C1276 C1275 1.524 . S
C1276 C1277 1.415 . S
C1277 H1247 0.950 . S
C1277 C1272 1.363 . S
C1277 C1276 1.415 . S
H1278 C1275 0.999 . S
H1279 C1260 0.913 . S
H1280 C1298 0.951 . S
H1281 C1300 0.951 . S
H1282 C1302 0.950 . S
H1283 C1303 0.950 . S
H1284 C1305 0.950 . S
H1285 C1308 0.950 . S
H1286 C1309 0.950 . S
H1287 C1311 0.950 . S
H1288 C1312 0.950 . S
H1289 C1313 0.951 . S
H1290 C1315 0.951 . S
H1291 C1317 0.950 . S
H1292 C1318 0.950 . S
H1293 C1320 0.950 . S
H1294 C1323 0.950 . S
H1295 C1324 0.950 . S
H1296 C1326 0.950 . S
H1297 C1327 0.950 . S
C1298 H1280 0.951 . S
C1298 C1299 1.366 . S
C1298 C1300 1.388 . S
C1299 C1298 1.366 . S
C1299 C1303 1.385 . S
C1300 H1281 0.951 . S
C1300 C1298 1.388 . S
C1300 C1301 1.366 . S
C1301 C1300 1.366 . S
C1301 C1302 1.414 . S
C1301 C1304 1.499 . S
C1302 H1282 0.950 . S
C1302 C1301 1.414 . S
C1302 C1303 1.374 . S
C1303 H1283 0.950 . S
C1303 C1299 1.385 . S
C1303 C1302 1.374 . S
C1304 C1301 1.499 . S
C1304 C1305 1.373 . S
C1304 C1306 1.389 . S
C1305 H1284 0.950 . S
C1305 C1304 1.373 . S
C1305 C1321 1.377 . S
C1306 C1304 1.389 . S
C1306 C1307 1.524 . S
C1306 C1320 1.377 . S
C1307 C1306 1.524 . S
C1307 C1308 1.397 . S
C1307 C1312 1.363 . S
C1308 H1285 0.950 . S
C1308 C1307 1.397 . S
C1308 C1309 1.334 . S
C1309 H1286 0.950 . S
C1309 C1308 1.334 . S
C1309 C1310 1.287 . S
C1310 C1309 1.287 . S
C1310 C1311 1.524 . S
C1310 H1329 0.913 . S
C1311 H1287 0.950 . S
C1311 C1310 1.524 . S
C1311 C1312 1.415 . S
C1312 H1288 0.950 . S
C1312 C1307 1.363 . S
C1312 C1311 1.415 . S
C1313 H1289 0.951 . S
C1313 C1314 1.366 . S
C1313 C1315 1.388 . S
C1314 C1313 1.366 . S
C1314 C1318 1.385 . S
C1315 H1290 0.951 . S
C1315 C1313 1.388 . S
C1315 C1316 1.366 . S
C1316 C1315 1.366 . S
C1316 C1317 1.414 . S
C1316 C1319 1.499 . S
C1317 H1291 0.950 . S
C1317 C1316 1.414 . S
C1317 C1318 1.374 . S
C1318 H1292 0.950 . S
C1318 C1314 1.385 . S
C1318 C1317 1.374 . S
C1319 C1316 1.499 . S
C1319 C1320 1.373 . S
C1319 C1321 1.389 . S
C1320 H1293 0.950 . S
C1320 C1306 1.377 . S
C1320 C1319 1.373 . S
C1321 C1305 1.377 . S
C1321 C1319 1.389 . S
C1321 C1322 1.524 . S
C1322 C1321 1.524 . S
C1322 C1323 1.397 . S
C1322 C1327 1.363 . S
C1323 H1294 0.950 . S
C1323 C1322 1.397 . S
C1323 C1324 1.334 . S
C1324 H1295 0.950 . S
C1324 C1323 1.334 . S
C1324 C1325 1.287 . S
C1325 C1324 1.287 . S
C1325 C1326 1.524 . S
C1325 H1328 0.999 . S
C1326 H1296 0.950 . S
C1326 C1325 1.524 . S
C1326 C1327 1.415 . S
C1327 H1297 0.950 . S
C1327 C1322 1.363 . S
C1327 C1326 1.415 . S
H1328 C1325 0.999 . S
H1329 C1310 0.913 . S
H1330 C1348 0.951 . S
H1331 C1350 0.951 . S
H1332 C1352 0.950 . S
H1333 C1353 0.950 . S
H1334 C1355 0.950 . S
H1335 C1358 0.950 . S
H1336 C1359 0.950 . S
H1337 C1361 0.950 . S
H1338 C1362 0.950 . S
H1339 C1363 0.951 . S
H1340 C1365 0.951 . S
H1341 C1367 0.950 . S
H1342 C1368 0.950 . S
H1343 C1370 0.950 . S
H1344 C1373 0.950 . S
H1345 C1374 0.950 . S
H1346 C1376 0.950 . S
H1347 C1377 0.950 . S
C1348 H1330 0.951 . S
C1348 C1349 1.366 . S
C1348 C1350 1.388 . S
C1349 C1348 1.366 . S
C1349 C1353 1.385 . S
C1350 H1331 0.951 . S
C1350 C1348 1.388 . S
C1350 C1351 1.366 . S
C1351 C1350 1.366 . S
C1351 C1352 1.414 . S
C1351 C1354 1.499 . S
C1352 H1332 0.950 . S
C1352 C1351 1.414 . S
C1352 C1353 1.374 . S
C1353 H1333 0.950 . S
C1353 C1349 1.385 . S
C1353 C1352 1.374 . S
C1354 C1351 1.499 . S
C1354 C1355 1.373 . S
C1354 C1356 1.389 . S
C1355 H1334 0.950 . S
C1355 C1354 1.373 . S
C1355 C1371 1.377 . S
C1356 C1354 1.389 . S
C1356 C1357 1.524 . S
C1356 C1370 1.377 . S
C1357 C1356 1.524 . S
C1357 C1358 1.397 . S
C1357 C1362 1.363 . S
C1358 H1335 0.950 . S
C1358 C1357 1.397 . S
C1358 C1359 1.334 . S
C1359 H1336 0.950 . S
C1359 C1358 1.334 . S
C1359 C1360 1.287 . S
C1360 C1359 1.287 . S
C1360 C1361 1.524 . S
C1360 H1379 0.913 . S
C1361 H1337 0.950 . S
C1361 C1360 1.524 . S
C1361 C1362 1.415 . S
C1362 H1338 0.950 . S
C1362 C1357 1.363 . S
C1362 C1361 1.415 . S
C1363 H1339 0.951 . S
C1363 C1364 1.366 . S
C1363 C1365 1.388 . S
C1364 C1363 1.366 . S
C1364 C1368 1.385 . S
C1365 H1340 0.951 . S
C1365 C1363 1.388 . S
C1365 C1366 1.366 . S
C1366 C1365 1.366 . S
C1366 C1367 1.414 . S
C1366 C1369 1.499 . S
C1367 H1341 0.950 . S
C1367 C1366 1.414 . S
C1367 C1368 1.374 . S
C1368 H1342 0.950 . S
C1368 C1364 1.385 . S
C1368 C1367 1.374 . S
C1369 C1366 1.499 . S
C1369 C1370 1.373 . S
C1369 C1371 1.389 . S
C1370 H1343 0.950 . S
C1370 C1356 1.377 . S
C1370 C1369 1.373 . S
C1371 C1355 1.377 . S
C1371 C1369 1.389 . S
C1371 C1372 1.524 . S
C1372 C1371 1.524 . S
C1372 C1373 1.397 . S
C1372 C1377 1.363 . S
C1373 H1344 0.950 . S
C1373 C1372 1.397 . S
C1373 C1374 1.334 . S
C1374 H1345 0.950 . S
C1374 C1373 1.334 . S
C1374 C1375 1.287 . S
C1375 C1374 1.287 . S
C1375 C1376 1.524 . S
C1375 H1378 0.999 . S
C1376 H1346 0.950 . S
C1376 C1375 1.524 . S
C1376 C1377 1.415 . S
C1377 H1347 0.950 . S
C1377 C1372 1.363 . S
C1377 C1376 1.415 . S
H1378 C1375 0.999 . S
H1379 C1360 0.913 . S
H1380 C1398 0.951 . S
H1381 C1400 0.951 . S
H1382 C1402 0.950 . S
H1383 C1403 0.950 . S
H1384 C1405 0.950 . S
H1385 C1408 0.950 1_565 S
H1386 C1409 0.950 . S
H1387 C1411 0.950 . S
H1388 C1412 0.950 . S
H1389 C1413 0.951 . S
H1390 C1415 0.951 . S
H1391 C1417 0.950 . S
H1392 C1418 0.950 . S
H1393 C1420 0.950 . S
H1394 C1423 0.950 1_545 S
H1395 C1424 0.950 . S
H1396 C1426 0.950 . S
H1397 C1427 0.950 . S
C1398 H1380 0.951 . S
C1398 C1399 1.366 . S
C1398 C1400 1.388 . S
C1399 C1398 1.366 . S
C1399 C1403 1.385 . S
C1400 H1381 0.951 . S
C1400 C1398 1.388 . S
C1400 C1401 1.366 . S
C1401 C1400 1.366 . S
C1401 C1402 1.414 . S
C1401 C1404 1.499 . S
C1402 H1382 0.950 . S
C1402 C1401 1.414 . S
C1402 C1403 1.374 . S
C1403 H1383 0.950 . S
C1403 C1399 1.385 . S
C1403 C1402 1.374 . S
C1404 C1401 1.499 . S
C1404 C1405 1.373 1_556 S
C1404 C1406 1.389 1_565 S
C1405 H1384 0.950 . S
C1405 C1404 1.373 1_554 S
C1405 C1421 1.377 . S
C1406 C1404 1.389 1_545 S
C1406 C1407 1.524 . S
C1406 C1420 1.377 . S
C1407 C1406 1.524 . S
C1407 C1408 1.397 . S
C1407 C1412 1.363 . S
C1408 H1385 0.950 1_545 S
C1408 C1407 1.397 . S
C1408 C1409 1.334 . S
C1409 H1386 0.950 . S
C1409 C1408 1.334 . S
C1409 C1410 1.287 . S
C1410 C1409 1.287 . S
C1410 C1411 1.524 . S
C1410 H1429 0.913 . S
C1411 H1387 0.950 . S
C1411 C1410 1.524 . S
C1411 C1412 1.415 . S
C1412 H1388 0.950 . S
C1412 C1407 1.363 . S
C1412 C1411 1.415 . S
C1413 H1389 0.951 . S
C1413 C1414 1.366 . S
C1413 C1415 1.388 . S
C1414 C1413 1.366 . S
C1414 C1418 1.385 . S
C1415 H1390 0.951 . S
C1415 C1413 1.388 . S
C1415 C1416 1.366 . S
C1416 C1415 1.366 . S
C1416 C1417 1.414 . S
C1416 C1419 1.499 . S
C1417 H1391 0.950 . S
C1417 C1416 1.414 . S
C1417 C1418 1.374 . S
C1418 H1392 0.950 . S
C1418 C1414 1.385 . S
C1418 C1417 1.374 . S
C1419 C1416 1.499 . S
C1419 C1420 1.373 1_554 S
C1419 C1421 1.389 1_545 S
C1420 H1393 0.950 . S
C1420 C1406 1.377 . S
C1420 C1419 1.373 1_556 S
C1421 C1405 1.377 . S
C1421 C1419 1.389 1_565 S
C1421 C1422 1.524 . S
C1422 C1421 1.524 . S
C1422 C1423 1.397 . S
C1422 C1427 1.363 . S
C1423 H1394 0.950 1_565 S
C1423 C1422 1.397 . S
C1423 C1424 1.334 . S
C1424 H1395 0.950 . S
C1424 C1423 1.334 . S
C1424 C1425 1.287 . S
C1425 C1424 1.287 . S
C1425 C1426 1.524 . S
C1425 H1428 0.999 . S
C1426 H1396 0.950 . S
C1426 C1425 1.524 . S
C1426 C1427 1.415 . S
C1427 H1397 0.950 . S
C1427 C1422 1.363 . S
C1427 C1426 1.415 . S
H1428 C1425 0.999 . S
H1429 C1410 0.913 . S
H1430 C1448 0.951 . S
H1431 C1450 0.951 . S
H1432 C1452 0.950 . S
H1433 C1453 0.950 . S
H1434 C1455 0.950 . S
H1435 C1458 0.950 . S
H1436 C1459 0.950 . S
H1437 C1461 0.950 . S
H1438 C1462 0.950 . S
H1439 C1463 0.951 . S
H1440 C1465 0.951 . S
H1441 C1467 0.950 . S
H1442 C1468 0.950 . S
H1443 C1470 0.950 . S
H1444 C1473 0.950 . S
H1445 C1474 0.950 . S
H1446 C1476 0.950 . S
H1447 C1477 0.950 . S
C1448 H1430 0.951 . S
C1448 C1449 1.366 . S
C1448 C1450 1.388 . S
C1449 C1448 1.366 . S
C1449 C1453 1.385 . S
C1450 H1431 0.951 . S
C1450 C1448 1.388 . S
C1450 C1451 1.366 . S
C1451 C1450 1.366 . S
C1451 C1452 1.414 . S
C1451 C1454 1.499 . S
C1452 H1432 0.950 . S
C1452 C1451 1.414 . S
C1452 C1453 1.374 . S
C1453 H1433 0.950 . S
C1453 C1449 1.385 . S
C1453 C1452 1.374 . S
C1454 C1451 1.499 . S
C1454 C1455 1.373 . S
C1454 C1456 1.389 . S
C1455 H1434 0.950 . S
C1455 C1454 1.373 . S
C1455 C1471 1.377 . S
C1456 C1454 1.389 . S
C1456 C1457 1.524 . S
C1456 C1470 1.377 . S
C1457 C1456 1.524 . S
C1457 C1458 1.397 . S
C1457 C1462 1.363 . S
C1458 H1435 0.950 . S
C1458 C1457 1.397 . S
C1458 C1459 1.334 . S
C1459 H1436 0.950 . S
C1459 C1458 1.334 . S
C1459 C1460 1.287 . S
C1460 C1459 1.287 . S
C1460 C1461 1.524 . S
C1460 H1479 0.913 . S
C1461 H1437 0.950 . S
C1461 C1460 1.524 . S
C1461 C1462 1.415 . S
C1462 H1438 0.950 . S
C1462 C1457 1.363 . S
C1462 C1461 1.415 . S
C1463 H1439 0.951 . S
C1463 C1464 1.366 . S
C1463 C1465 1.388 . S
C1464 C1463 1.366 . S
C1464 C1468 1.385 . S
C1465 H1440 0.951 . S
C1465 C1463 1.388 . S
C1465 C1466 1.366 . S
C1466 C1465 1.366 . S
C1466 C1467 1.414 . S
C1466 C1469 1.499 . S
C1467 H1441 0.950 . S
C1467 C1466 1.414 . S
C1467 C1468 1.374 . S
C1468 H1442 0.950 . S
C1468 C1464 1.385 . S
C1468 C1467 1.374 . S
C1469 C1466 1.499 . S
C1469 C1470 1.373 . S
C1469 C1471 1.389 . S
C1470 H1443 0.950 . S
C1470 C1456 1.377 . S
C1470 C1469 1.373 . S
C1471 C1455 1.377 . S
C1471 C1469 1.389 . S
C1471 C1472 1.524 . S
C1472 C1471 1.524 . S
C1472 C1473 1.397 . S
C1472 C1477 1.363 . S
C1473 H1444 0.950 . S
C1473 C1472 1.397 . S
C1473 C1474 1.334 . S
C1474 H1445 0.950 . S
C1474 C1473 1.334 . S
C1474 C1475 1.287 . S
C1475 C1474 1.287 . S
C1475 C1476 1.524 . S
C1475 H1478 0.999 . S
C1476 H1446 0.950 . S
C1476 C1475 1.524 . S
C1476 C1477 1.415 . S
C1477 H1447 0.950 . S
C1477 C1472 1.363 . S
C1477 C1476 1.415 . S
H1478 C1475 0.999 . S
H1479 C1460 0.913 . S
H1480 C1498 0.951 . S
H1481 C1500 0.951 . S
H1482 C1502 0.950 . S
H1483 C1503 0.950 . S
H1484 C1505 0.950 . S
H1485 C1508 0.950 . S
H1486 C1509 0.950 . S
H1487 C1511 0.950 . S
H1488 C1512 0.950 . S
H1489 C1513 0.951 . S
H1490 C1515 0.951 . S
H1491 C1517 0.950 . S
H1492 C1518 0.950 . S
H1493 C1520 0.950 . S
H1494 C1523 0.950 . S
H1495 C1524 0.950 . S
H1496 C1526 0.950 . S
H1497 C1527 0.950 . S
C1498 H1480 0.951 . S
C1498 C1499 1.366 . S
C1498 C1500 1.388 . S
C1499 C1498 1.366 . S
C1499 C1503 1.385 . S
C1500 H1481 0.951 . S
C1500 C1498 1.388 . S
C1500 C1501 1.366 . S
C1501 C1500 1.366 . S
C1501 C1502 1.414 . S
C1501 C1504 1.499 . S
C1502 H1482 0.950 . S
C1502 C1501 1.414 . S
C1502 C1503 1.374 . S
C1503 H1483 0.950 . S
C1503 C1499 1.385 . S
C1503 C1502 1.374 . S
C1504 C1501 1.499 . S
C1504 C1505 1.373 1_556 S
C1504 C1506 1.389 1_455 S
C1505 H1484 0.950 . S
C1505 C1504 1.373 1_554 S
C1505 C1521 1.377 . S
C1506 C1504 1.389 1_655 S
C1506 C1507 1.524 . S
C1506 C1520 1.377 . S
C1507 C1506 1.524 . S
C1507 C1508 1.397 . S
C1507 C1512 1.363 . S
C1508 H1485 0.950 . S
C1508 C1507 1.397 . S
C1508 C1509 1.334 . S
C1509 H1486 0.950 . S
C1509 C1508 1.334 . S
C1509 C1510 1.287 . S
C1510 C1509 1.287 . S
C1510 C1511 1.524 . S
C1510 H1529 0.913 . S
C1511 H1487 0.950 . S
C1511 C1510 1.524 . S
C1511 C1512 1.415 . S
C1512 H1488 0.950 . S
C1512 C1507 1.363 . S
C1512 C1511 1.415 . S
C1513 H1489 0.951 . S
C1513 C1514 1.366 . S
C1513 C1515 1.388 . S
C1514 C1513 1.366 . S
C1514 C1518 1.385 . S
C1515 H1490 0.951 . S
C1515 C1513 1.388 . S
C1515 C1516 1.366 . S
C1516 C1515 1.366 . S
C1516 C1517 1.414 . S
C1516 C1519 1.499 . S
C1517 H1491 0.950 . S
C1517 C1516 1.414 . S
C1517 C1518 1.374 . S
C1518 H1492 0.950 . S
C1518 C1514 1.385 . S
C1518 C1517 1.374 . S
C1519 C1516 1.499 . S
C1519 C1520 1.373 1_554 S
C1519 C1521 1.389 1_655 S
C1520 H1493 0.950 . S
C1520 C1506 1.377 . S
C1520 C1519 1.373 1_556 S
C1521 C1505 1.377 . S
C1521 C1519 1.389 1_455 S
C1521 C1522 1.524 . S
C1522 C1521 1.524 . S
C1522 C1523 1.397 . S
C1522 C1527 1.363 . S
C1523 H1494 0.950 . S
C1523 C1522 1.397 . S
C1523 C1524 1.334 . S
C1524 H1495 0.950 . S
C1524 C1523 1.334 . S
C1524 C1525 1.287 . S
C1525 C1524 1.287 . S
C1525 C1526 1.524 . S
C1525 H1528 0.999 . S
C1526 H1496 0.950 . S
C1526 C1525 1.524 . S
C1526 C1527 1.415 . S
C1527 H1497 0.950 . S
C1527 C1522 1.363 . S
C1527 C1526 1.415 . S
H1528 C1525 0.999 . S
H1529 C1510 0.913 . S
H1530 C1548 0.951 . S
H1531 C1550 0.951 . S
H1532 C1552 0.950 . S
H1533 C1553 0.950 . S
H1534 C1555 0.950 . S
H1535 C1558 0.950 . S
H1536 C1559 0.950 . S
H1537 C1561 0.950 1_565 S
H1538 C1562 0.941 1_565 S
H1539 C1563 0.951 . S
H1540 C1565 0.951 . S
H1541 C1567 0.950 . S
H1542 C1568 0.950 . S
H1543 C1570 0.950 . S
H1544 C1573 0.950 . S
H1545 C1574 0.950 . S
H1546 C1576 0.950 1_545 S
H1547 C1577 0.941 1_545 S
C1548 H1530 0.951 . S
C1548 C1549 1.366 . S
C1548 C1550 1.388 . S
C1549 C1548 1.366 . S
C1549 C1553 1.385 . S
C1550 H1531 0.951 . S
C1550 C1548 1.388 . S
C1550 C1551 1.366 . S
C1551 C1550 1.366 . S
C1551 C1552 1.414 . S
C1551 C1554 1.499 . S
C1552 H1532 0.950 . S
C1552 C1551 1.414 . S
C1552 C1553 1.374 . S
C1553 H1533 0.950 . S
C1553 C1549 1.385 . S
C1553 C1552 1.374 . S
C1554 C1551 1.499 . S
C1554 C1555 1.373 . S
C1554 C1556 1.389 . S
C1555 H1534 0.950 . S
C1555 C1554 1.373 . S
C1555 C1571 1.377 1_545 S
C1556 C1554 1.389 . S
C1556 C1557 1.524 . S
C1556 C1570 1.377 1_545 S
C1557 C1556 1.524 . S
C1557 C1558 1.397 . S
C1557 C1562 1.365 . S
C1558 H1535 0.950 . S
C1558 C1557 1.397 . S
C1558 C1559 1.334 . S
C1559 H1536 0.950 . S
C1559 C1558 1.334 . S
C1559 C1560 1.287 . S
C1560 C1559 1.287 . S
C1560 C1561 1.524 . S
C1560 H1579 0.913 . S
C1561 H1537 0.950 1_545 S
C1561 C1560 1.524 . S
C1561 C1562 1.422 . S
C1562 H1538 0.941 1_545 S
C1562 C1557 1.365 . S
C1562 C1561 1.422 . S
C1563 H1539 0.951 . S
C1563 C1564 1.366 . S
C1563 C1565 1.388 . S
C1564 C1563 1.366 . S
C1564 C1568 1.385 . S
C1565 H1540 0.951 . S
C1565 C1563 1.388 . S
C1565 C1566 1.366 . S
C1566 C1565 1.366 . S
C1566 C1567 1.414 . S
C1566 C1569 1.499 . S
C1567 H1541 0.950 . S
C1567 C1566 1.414 . S
C1567 C1568 1.374 . S
C1568 H1542 0.950 . S
C1568 C1564 1.385 . S
C1568 C1567 1.374 . S
C1569 C1566 1.499 . S
C1569 C1570 1.373 . S
C1569 C1571 1.389 . S
C1570 H1543 0.950 . S
C1570 C1556 1.377 1_565 S
C1570 C1569 1.373 . S
C1571 C1555 1.377 1_565 S
C1571 C1569 1.389 . S
C1571 C1572 1.524 . S
C1572 C1571 1.524 . S
C1572 C1573 1.397 . S
C1572 C1577 1.365 . S
C1573 H1544 0.950 . S
C1573 C1572 1.397 . S
C1573 C1574 1.334 . S
C1574 H1545 0.950 . S
C1574 C1573 1.334 . S
C1574 C1575 1.287 . S
C1575 C1574 1.287 . S
C1575 C1576 1.524 . S
C1575 H1578 0.999 . S
C1576 H1546 0.950 1_565 S
C1576 C1575 1.524 . S
C1576 C1577 1.422 . S
C1577 H1547 0.941 1_565 S
C1577 C1572 1.365 . S
C1577 C1576 1.422 . S
H1578 C1575 0.999 . S
H1579 C1560 0.913 . S
H1580 C1598 0.951 . S
H1581 C1600 0.951 . S
H1582 C1602 0.950 . S
H1583 C1603 0.950 . S
H1584 C1605 0.950 . S
H1585 C1608 0.950 . S
H1586 C1609 0.950 . S
H1587 C1611 0.950 . S
H1588 C1612 0.950 . S
H1589 C1613 0.951 . S
H1590 C1615 0.951 . S
H1591 C1617 0.950 . S
H1592 C1618 0.950 . S
H1593 C1620 0.950 . S
H1594 C1623 0.950 . S
H1595 C1624 0.950 . S
H1596 C1626 0.950 . S
H1597 C1627 0.950 . S
C1598 H1580 0.951 . S
C1598 C1599 1.366 . S
C1598 C1600 1.388 . S
C1599 C1598 1.366 . S
C1599 C1603 1.385 . S
C1600 H1581 0.951 . S
C1600 C1598 1.388 . S
C1600 C1601 1.366 . S
C1601 C1600 1.366 . S
C1601 C1602 1.414 . S
C1601 C1604 1.499 . S
C1602 H1582 0.950 . S
C1602 C1601 1.414 . S
C1602 C1603 1.374 . S
C1603 H1583 0.950 . S
C1603 C1599 1.385 . S
C1603 C1602 1.374 . S
C1604 C1601 1.499 . S
C1604 C1605 1.373 . S
C1604 C1606 1.389 1_554 S
C1605 H1584 0.950 . S
C1605 C1604 1.373 . S
C1605 C1621 1.377 . S
C1606 C1604 1.389 1_556 S
C1606 C1607 1.524 . S
C1606 C1620 1.377 . S
C1607 C1606 1.524 . S
C1607 C1608 1.397 . S
C1607 C1612 1.363 . S
C1608 H1585 0.950 . S
C1608 C1607 1.397 . S
C1608 C1609 1.334 . S
C1609 H1586 0.950 . S
C1609 C1608 1.334 . S
C1609 C1610 1.287 . S
C1610 C1609 1.287 . S
C1610 C1611 1.524 . S
C1610 H1629 0.913 . S
C1611 H1587 0.950 . S
C1611 C1610 1.524 . S
C1611 C1612 1.415 . S
C1612 H1588 0.950 . S
C1612 C1607 1.363 . S
C1612 C1611 1.415 . S
C1613 H1589 0.951 . S
C1613 C1614 1.366 . S
C1613 C1615 1.388 . S
C1614 C1613 1.366 . S
C1614 C1618 1.385 . S
C1615 H1590 0.951 . S
C1615 C1613 1.388 . S
C1615 C1616 1.366 . S
C1616 C1615 1.366 . S
C1616 C1617 1.414 . S
C1616 C1619 1.499 . S
C1617 H1591 0.950 . S
C1617 C1616 1.414 . S
C1617 C1618 1.374 . S
C1618 H1592 0.950 . S
C1618 C1614 1.385 . S
C1618 C1617 1.374 . S
C1619 C1616 1.499 . S
C1619 C1620 1.373 . S
C1619 C1621 1.389 1_556 S
C1620 H1593 0.950 . S
C1620 C1606 1.377 . S
C1620 C1619 1.373 . S
C1621 C1605 1.377 . S
C1621 C1619 1.389 1_554 S
C1621 C1622 1.524 . S
C1622 C1621 1.524 . S
C1622 C1623 1.397 . S
C1622 C1627 1.363 . S
C1623 H1594 0.950 . S
C1623 C1622 1.397 . S
C1623 C1624 1.334 . S
C1624 H1595 0.950 . S
C1624 C1623 1.334 . S
C1624 C1625 1.287 . S
C1625 C1624 1.287 . S
C1625 C1626 1.524 . S
C1625 H1628 0.999 . S
C1626 H1596 0.950 . S
C1626 C1625 1.524 . S
C1626 C1627 1.415 . S
C1627 H1597 0.950 . S
C1627 C1622 1.363 . S
C1627 C1626 1.415 . S
H1628 C1625 0.999 . S
H1629 C1610 0.913 . S
H1630 C1648 0.951 . S
H1631 C1650 0.951 . S
H1632 C1652 0.950 . S
H1633 C1653 0.950 . S
H1634 C1655 0.950 . S
H1635 C1658 0.950 1_455 S
H1636 C1659 0.950 1_455 S
H1637 C1661 0.950 . S
H1638 C1662 0.950 . S
H1639 C1663 0.951 . S
H1640 C1665 0.951 . S
H1641 C1667 0.950 . S
H1642 C1668 0.950 . S
H1643 C1670 0.950 . S
H1644 C1673 0.950 1_655 S
H1645 C1674 0.950 1_655 S
H1646 C1676 0.950 . S
H1647 C1677 0.950 . S
C1648 H1630 0.951 . S
C1648 C1649 1.366 . S
C1648 C1650 1.388 . S
C1649 C1648 1.366 . S
C1649 C1653 1.385 . S
C1650 H1631 0.951 . S
C1650 C1648 1.388 . S
C1650 C1651 1.366 . S
C1651 C1650 1.366 . S
C1651 C1652 1.414 . S
C1651 C1654 1.499 . S
C1652 H1632 0.950 . S
C1652 C1651 1.414 . S
C1652 C1653 1.374 . S
C1653 H1633 0.950 . S
C1653 C1649 1.385 . S
C1653 C1652 1.374 . S
C1654 C1651 1.499 . S
C1654 C1655 1.373 . S
C1654 C1656 1.389 1_455 S
C1655 H1634 0.950 . S
C1655 C1654 1.373 . S
C1655 C1671 1.377 . S
C1656 C1654 1.389 1_655 S
C1656 C1657 1.524 . S
C1656 C1670 1.377 . S
C1657 C1656 1.524 . S
C1657 C1658 1.397 . S
C1657 C1662 1.363 . S
C1658 H1635 0.950 1_655 S
C1658 C1657 1.397 . S
C1658 C1659 1.334 . S
C1659 H1636 0.950 1_655 S
C1659 C1658 1.334 . S
C1659 C1660 1.287 . S
C1660 C1659 1.287 . S
C1660 C1661 1.524 . S
C1660 H1679 0.913 . S
C1661 H1637 0.950 . S
C1661 C1660 1.524 . S
C1661 C1662 1.415 . S
C1662 H1638 0.950 . S
C1662 C1657 1.363 . S
C1662 C1661 1.415 . S
C1663 H1639 0.951 . S
C1663 C1664 1.366 . S
C1663 C1665 1.388 . S
C1664 C1663 1.366 . S
C1664 C1668 1.385 . S
C1665 H1640 0.951 . S
C1665 C1663 1.388 . S
C1665 C1666 1.366 . S
C1666 C1665 1.366 . S
C1666 C1667 1.414 . S
C1666 C1669 1.499 . S
C1667 H1641 0.950 . S
C1667 C1666 1.414 . S
C1667 C1668 1.374 . S
C1668 H1642 0.950 . S
C1668 C1664 1.385 . S
C1668 C1667 1.374 . S
C1669 C1666 1.499 . S
C1669 C1670 1.373 . S
C1669 C1671 1.389 1_655 S
C1670 H1643 0.950 . S
C1670 C1656 1.377 . S
C1670 C1669 1.373 . S
C1671 C1655 1.377 . S
C1671 C1669 1.389 1_455 S
C1671 C1672 1.524 . S
C1672 C1671 1.524 . S
C1672 C1673 1.397 . S
C1672 C1677 1.363 . S
C1673 H1644 0.950 1_455 S
C1673 C1672 1.397 . S
C1673 C1674 1.334 . S
C1674 H1645 0.950 1_455 S
C1674 C1673 1.334 . S
C1674 C1675 1.287 . S
C1675 C1674 1.287 . S
C1675 C1676 1.524 . S
C1675 H1678 0.999 . S
C1676 H1646 0.950 . S
C1676 C1675 1.524 . S
C1676 C1677 1.415 . S
C1677 H1647 0.950 . S
C1677 C1672 1.363 . S
C1677 C1676 1.415 . S
H1678 C1675 0.999 . S
H1679 C1660 0.913 . S
H1680 C1698 0.951 . S
H1681 C1700 0.951 . S
H1682 C1702 0.950 . S
H1683 C1703 0.950 . S
H1684 C1705 0.950 . S
H1685 C1708 0.950 . S
H1686 C1709 0.950 . S
H1687 C1711 0.950 . S
H1688 C1712 0.950 . S
H1689 C1713 0.951 . S
H1690 C1715 0.951 . S
H1691 C1717 0.950 . S
H1692 C1718 0.950 . S
H1693 C1720 0.950 . S
H1694 C1723 0.950 . S
H1695 C1724 0.950 . S
H1696 C1726 0.950 . S
H1697 C1727 0.950 . S
C1698 H1680 0.951 . S
C1698 C1699 1.366 . S
C1698 C1700 1.388 . S
C1699 C1698 1.366 . S
C1699 C1703 1.385 . S
C1700 H1681 0.951 . S
C1700 C1698 1.388 . S
C1700 C1701 1.366 . S
C1701 C1700 1.366 . S
C1701 C1702 1.414 . S
C1701 C1704 1.499 . S
C1702 H1682 0.950 . S
C1702 C1701 1.414 . S
C1702 C1703 1.374 . S
C1703 H1683 0.950 . S
C1703 C1699 1.385 . S
C1703 C1702 1.374 . S
C1704 C1701 1.499 . S
C1704 C1705 1.373 . S
C1704 C1706 1.389 . S
C1705 H1684 0.950 . S
C1705 C1704 1.373 . S
C1705 C1721 1.377 . S
C1706 C1704 1.389 . S
C1706 C1707 1.524 . S
C1706 C1720 1.377 . S
C1707 C1706 1.524 . S
C1707 C1708 1.397 . S
C1707 C1712 1.363 . S
C1708 H1685 0.950 . S
C1708 C1707 1.397 . S
C1708 C1709 1.334 . S
C1709 H1686 0.950 . S
C1709 C1708 1.334 . S
C1709 C1710 1.287 . S
C1710 C1709 1.287 . S
C1710 C1711 1.524 . S
C1710 H1729 0.913 . S
C1711 H1687 0.950 . S
C1711 C1710 1.524 . S
C1711 C1712 1.415 . S
C1712 H1688 0.950 . S
C1712 C1707 1.363 . S
C1712 C1711 1.415 . S
C1713 H1689 0.951 . S
C1713 C1714 1.366 . S
C1713 C1715 1.388 . S
C1714 C1713 1.366 . S
C1714 C1718 1.385 . S
C1715 H1690 0.951 . S
C1715 C1713 1.388 . S
C1715 C1716 1.366 . S
C1716 C1715 1.366 . S
C1716 C1717 1.414 . S
C1716 C1719 1.499 . S
C1717 H1691 0.950 . S
C1717 C1716 1.414 . S
C1717 C1718 1.374 . S
C1718 H1692 0.950 . S
C1718 C1714 1.385 . S
C1718 C1717 1.374 . S
C1719 C1716 1.499 . S
C1719 C1720 1.373 . S
C1719 C1721 1.389 . S
C1720 H1693 0.950 . S
C1720 C1706 1.377 . S
C1720 C1719 1.373 . S
C1721 C1705 1.377 . S
C1721 C1719 1.389 . S
C1721 C1722 1.524 . S
C1722 C1721 1.524 . S
C1722 C1723 1.397 . S
C1722 C1727 1.363 . S
C1723 H1694 0.950 . S
C1723 C1722 1.397 . S
C1723 C1724 1.334 . S
C1724 H1695 0.950 . S
C1724 C1723 1.334 . S
C1724 C1725 1.287 . S
C1725 C1724 1.287 . S
C1725 C1726 1.524 . S
C1725 H1728 0.999 . S
C1726 H1696 0.950 . S
C1726 C1725 1.524 . S
C1726 C1727 1.415 . S
C1727 H1697 0.950 . S
C1727 C1722 1.363 . S
C1727 C1726 1.415 . S
H1728 C1725 0.999 . S
H1729 C1710 0.913 . S
H1730 C1748 0.951 . S
H1731 C1750 0.951 . S
H1732 C1752 0.950 . S
H1733 C1753 0.950 . S
H1734 C1755 0.950 . S
H1735 C1758 0.950 . S
H1736 C1759 0.950 . S
H1737 C1761 0.950 . S
H1738 C1762 0.950 . S
H1739 C1763 0.951 . S
H1740 C1765 0.951 . S
H1741 C1767 0.950 . S
H1742 C1768 0.950 . S
H1743 C1770 0.950 . S
H1744 C1773 0.950 . S
H1745 C1774 0.950 . S
H1746 C1776 0.950 . S
H1747 C1777 0.950 . S
C1748 H1730 0.951 . S
C1748 C1749 1.366 . S
C1748 C1750 1.388 . S
C1749 C1748 1.366 . S
C1749 C1753 1.385 . S
C1750 H1731 0.951 . S
C1750 C1748 1.388 . S
C1750 C1751 1.366 . S
C1751 C1750 1.366 . S
C1751 C1752 1.414 . S
C1751 C1754 1.499 . S
C1752 H1732 0.950 . S
C1752 C1751 1.414 . S
C1752 C1753 1.374 . S
C1753 H1733 0.950 . S
C1753 C1749 1.385 . S
C1753 C1752 1.374 . S
C1754 C1751 1.499 . S
C1754 C1755 1.373 . S
C1754 C1756 1.389 . S
C1755 H1734 0.950 . S
C1755 C1754 1.373 . S
C1755 C1771 1.377 . S
C1756 C1754 1.389 . S
C1756 C1757 1.524 . S
C1756 C1770 1.377 . S
C1757 C1756 1.524 . S
C1757 C1758 1.397 . S
C1757 C1762 1.363 . S
C1758 H1735 0.950 . S
C1758 C1757 1.397 . S
C1758 C1759 1.334 . S
C1759 H1736 0.950 . S
C1759 C1758 1.334 . S
C1759 C1760 1.287 . S
C1760 C1759 1.287 . S
C1760 C1761 1.524 . S
C1760 H1779 0.913 . S
C1761 H1737 0.950 . S
C1761 C1760 1.524 . S
C1761 C1762 1.415 . S
C1762 H1738 0.950 . S
C1762 C1757 1.363 . S
C1762 C1761 1.415 . S
C1763 H1739 0.951 . S
C1763 C1764 1.366 . S
C1763 C1765 1.388 . S
C1764 C1763 1.366 . S
C1764 C1768 1.385 . S
C1765 H1740 0.951 . S
C1765 C1763 1.388 . S
C1765 C1766 1.366 . S
C1766 C1765 1.366 . S
C1766 C1767 1.414 . S
C1766 C1769 1.499 . S
C1767 H1741 0.950 . S
C1767 C1766 1.414 . S
C1767 C1768 1.374 . S
C1768 H1742 0.950 . S
C1768 C1764 1.385 . S
C1768 C1767 1.374 . S
C1769 C1766 1.499 . S
C1769 C1770 1.373 . S
C1769 C1771 1.389 . S
C1770 H1743 0.950 . S
C1770 C1756 1.377 . S
C1770 C1769 1.373 . S
C1771 C1755 1.377 . S
C1771 C1769 1.389 . S
C1771 C1772 1.524 . S
C1772 C1771 1.524 . S
C1772 C1773 1.397 . S
C1772 C1777 1.363 . S
C1773 H1744 0.950 . S
C1773 C1772 1.397 . S
C1773 C1774 1.334 . S
C1774 H1745 0.950 . S
C1774 C1773 1.334 . S
C1774 C1775 1.287 . S
C1775 C1774 1.287 . S
C1775 C1776 1.524 . S
C1775 H1778 0.999 . S
C1776 H1746 0.950 . S
C1776 C1775 1.524 . S
C1776 C1777 1.415 . S
C1777 H1747 0.950 . S
C1777 C1772 1.363 . S
C1777 C1776 1.415 . S
H1778 C1775 0.999 . S
H1779 C1760 0.913 . S
H1780 C1798 0.951 . S
H1781 C1800 0.951 . S
H1782 C1802 0.950 . S
H1783 C1803 0.950 . S
H1784 C1805 0.950 . S
H1785 C1808 0.950 . S
H1786 C1809 0.950 . S
H1787 C1811 0.950 . S
H1788 C1812 0.950 . S
H1789 C1813 0.951 . S
H1790 C1815 0.951 . S
H1791 C1817 0.950 . S
H1792 C1818 0.950 . S
H1793 C1820 0.950 . S
H1794 C1823 0.950 . S
H1795 C1824 0.950 . S
H1796 C1826 0.950 . S
H1797 C1827 0.950 . S
C1798 H1780 0.951 . S
C1798 C1799 1.366 . S
C1798 C1800 1.388 . S
C1799 C1798 1.366 . S
C1799 C1803 1.385 . S
C1800 H1781 0.951 . S
C1800 C1798 1.388 . S
C1800 C1801 1.366 . S
C1801 C1800 1.366 . S
C1801 C1802 1.414 . S
C1801 C1804 1.499 . S
C1802 H1782 0.950 . S
C1802 C1801 1.414 . S
C1802 C1803 1.374 . S
C1803 H1783 0.950 . S
C1803 C1799 1.385 . S
C1803 C1802 1.374 . S
C1804 C1801 1.499 . S
C1804 C1805 1.373 . S
C1804 C1806 1.389 . S
C1805 H1784 0.950 . S
C1805 C1804 1.373 . S
C1805 C1821 1.377 . S
C1806 C1804 1.389 . S
C1806 C1807 1.524 . S
C1806 C1820 1.377 . S
C1807 C1806 1.524 . S
C1807 C1808 1.397 . S
C1807 C1812 1.363 . S
C1808 H1785 0.950 . S
C1808 C1807 1.397 . S
C1808 C1809 1.334 . S
C1809 H1786 0.950 . S
C1809 C1808 1.334 . S
C1809 C1810 1.287 . S
C1810 C1809 1.287 . S
C1810 C1811 1.524 . S
C1810 H1829 0.913 . S
C1811 H1787 0.950 . S
C1811 C1810 1.524 . S
C1811 C1812 1.415 . S
C1812 H1788 0.950 . S
C1812 C1807 1.363 . S
C1812 C1811 1.415 . S
C1813 H1789 0.951 . S
C1813 C1814 1.366 . S
C1813 C1815 1.388 . S
C1814 C1813 1.366 . S
C1814 C1818 1.385 . S
C1815 H1790 0.951 . S
C1815 C1813 1.388 . S
C1815 C1816 1.366 . S
C1816 C1815 1.366 . S
C1816 C1817 1.414 . S
C1816 C1819 1.499 . S
C1817 H1791 0.950 . S
C1817 C1816 1.414 . S
C1817 C1818 1.374 . S
C1818 H1792 0.950 . S
C1818 C1814 1.385 . S
C1818 C1817 1.374 . S
C1819 C1816 1.499 . S
C1819 C1820 1.373 . S
C1819 C1821 1.389 . S
C1820 H1793 0.950 . S
C1820 C1806 1.377 . S
C1820 C1819 1.373 . S
C1821 C1805 1.377 . S
C1821 C1819 1.389 . S
C1821 C1822 1.524 . S
C1822 C1821 1.524 . S
C1822 C1823 1.397 . S
C1822 C1827 1.363 . S
C1823 H1794 0.950 . S
C1823 C1822 1.397 . S
C1823 C1824 1.334 . S
C1824 H1795 0.950 . S
C1824 C1823 1.334 . S
C1824 C1825 1.287 . S
C1825 C1824 1.287 . S
C1825 C1826 1.524 . S
C1825 H1828 0.999 . S
C1826 H1796 0.950 . S
C1826 C1825 1.524 . S
C1826 C1827 1.415 . S
C1827 H1797 0.950 . S
C1827 C1822 1.363 . S
C1827 C1826 1.415 . S
H1828 C1825 0.999 . S
H1829 C1810 0.913 . S
H1830 C1848 0.951 . S
H1831 C1850 0.951 . S
H1832 C1852 0.950 . S
H1833 C1853 0.950 . S
H1834 C1855 0.950 . S
H1835 C1858 0.950 . S
H1836 C1859 0.950 . S
H1837 C1861 0.950 . S
H1838 C1862 0.950 . S
H1839 C1863 0.951 . S
H1840 C1865 0.951 . S
H1841 C1867 0.950 . S
H1842 C1868 0.950 . S
H1843 C1870 0.950 . S
H1844 C1873 0.950 . S
H1845 C1874 0.950 . S
H1846 C1876 0.950 . S
H1847 C1877 0.950 . S
C1848 H1830 0.951 . S
C1848 C1849 1.366 . S
C1848 C1850 1.388 . S
C1849 C1848 1.366 . S
C1849 C1853 1.385 . S
C1850 H1831 0.951 . S
C1850 C1848 1.388 . S
C1850 C1851 1.366 . S
C1851 C1850 1.366 . S
C1851 C1852 1.414 . S
C1851 C1854 1.499 . S
C1852 H1832 0.950 . S
C1852 C1851 1.414 . S
C1852 C1853 1.374 . S
C1853 H1833 0.950 . S
C1853 C1849 1.385 . S
C1853 C1852 1.374 . S
C1854 C1851 1.499 . S
C1854 C1855 1.373 . S
C1854 C1856 1.389 . S
C1855 H1834 0.950 . S
C1855 C1854 1.373 . S
C1855 C1871 1.377 . S
C1856 C1854 1.389 . S
C1856 C1857 1.524 . S
C1856 C1870 1.377 . S
C1857 C1856 1.524 . S
C1857 C1858 1.397 . S
C1857 C1862 1.363 . S
C1858 H1835 0.950 . S
C1858 C1857 1.397 . S
C1858 C1859 1.334 . S
C1859 H1836 0.950 . S
C1859 C1858 1.334 . S
C1859 C1860 1.287 . S
C1860 C1859 1.287 . S
C1860 C1861 1.524 . S
C1860 H1879 0.913 . S
C1861 H1837 0.950 . S
C1861 C1860 1.524 . S
C1861 C1862 1.415 . S
C1862 H1838 0.950 . S
C1862 C1857 1.363 . S
C1862 C1861 1.415 . S
C1863 H1839 0.951 . S
C1863 C1864 1.366 . S
C1863 C1865 1.388 . S
C1864 C1863 1.366 . S
C1864 C1868 1.385 . S
C1865 H1840 0.951 . S
C1865 C1863 1.388 . S
C1865 C1866 1.366 . S
C1866 C1865 1.366 . S
C1866 C1867 1.414 . S
C1866 C1869 1.499 . S
C1867 H1841 0.950 . S
C1867 C1866 1.414 . S
C1867 C1868 1.374 . S
C1868 H1842 0.950 . S
C1868 C1864 1.385 . S
C1868 C1867 1.374 . S
C1869 C1866 1.499 . S
C1869 C1870 1.373 . S
C1869 C1871 1.389 . S
C1870 H1843 0.950 . S
C1870 C1856 1.377 . S
C1870 C1869 1.373 . S
C1871 C1855 1.377 . S
C1871 C1869 1.389 . S
C1871 C1872 1.524 . S
C1872 C1871 1.524 . S
C1872 C1873 1.397 . S
C1872 C1877 1.363 . S
C1873 H1844 0.950 . S
C1873 C1872 1.397 . S
C1873 C1874 1.334 . S
C1874 H1845 0.950 . S
C1874 C1873 1.334 . S
C1874 C1875 1.287 . S
C1875 C1874 1.287 . S
C1875 C1876 1.524 . S
C1875 H1878 0.999 . S
C1876 H1846 0.950 . S
C1876 C1875 1.524 . S
C1876 C1877 1.415 . S
C1877 H1847 0.950 . S
C1877 C1872 1.363 . S
C1877 C1876 1.415 . S
H1878 C1875 0.999 . S
H1879 C1860 0.913 . S
H1880 C1898 0.951 . S
H1881 C1900 0.951 . S
H1882 C1902 0.950 . S
H1883 C1903 0.950 . S
H1884 C1905 0.950 . S
H1885 C1908 0.950 . S
H1886 C1909 0.950 . S
H1887 C1911 0.950 . S
H1888 C1912 0.950 . S
H1889 C1913 0.951 . S
H1890 C1915 0.951 . S
H1891 C1917 0.950 . S
H1892 C1918 0.950 . S
H1893 C1920 0.950 . S
H1894 C1923 0.950 . S
H1895 C1924 0.950 . S
H1896 C1926 0.950 . S
H1897 C1927 0.950 . S
C1898 H1880 0.951 . S
C1898 C1899 1.366 . S
C1898 C1900 1.388 . S
C1899 C1898 1.366 . S
C1899 C1903 1.385 . S
C1900 H1881 0.951 . S
C1900 C1898 1.388 . S
C1900 C1901 1.366 . S
C1901 C1900 1.366 . S
C1901 C1902 1.414 . S
C1901 C1904 1.499 . S
C1902 H1882 0.950 . S
C1902 C1901 1.414 . S
C1902 C1903 1.374 . S
C1903 H1883 0.950 . S
C1903 C1899 1.385 . S
C1903 C1902 1.374 . S
C1904 C1901 1.499 . S
C1904 C1905 1.373 . S
C1904 C1906 1.389 . S
C1905 H1884 0.950 . S
C1905 C1904 1.373 . S
C1905 C1921 1.377 . S
C1906 C1904 1.389 . S
C1906 C1907 1.524 . S
C1906 C1920 1.377 . S
C1907 C1906 1.524 . S
C1907 C1908 1.397 . S
C1907 C1912 1.363 . S
C1908 H1885 0.950 . S
C1908 C1907 1.397 . S
C1908 C1909 1.334 . S
C1909 H1886 0.950 . S
C1909 C1908 1.334 . S
C1909 C1910 1.287 . S
C1910 C1909 1.287 . S
C1910 C1911 1.524 . S
C1910 H1929 0.913 . S
C1911 H1887 0.950 . S
C1911 C1910 1.524 . S
C1911 C1912 1.415 . S
C1912 H1888 0.950 . S
C1912 C1907 1.363 . S
C1912 C1911 1.415 . S
C1913 H1889 0.951 . S
C1913 C1914 1.366 . S
C1913 C1915 1.388 . S
C1914 C1913 1.366 . S
C1914 C1918 1.385 . S
C1915 H1890 0.951 . S
C1915 C1913 1.388 . S
C1915 C1916 1.366 . S
C1916 C1915 1.366 . S
C1916 C1917 1.414 . S
C1916 C1919 1.499 . S
C1917 H1891 0.950 . S
C1917 C1916 1.414 . S
C1917 C1918 1.374 . S
C1918 H1892 0.950 . S
C1918 C1914 1.385 . S
C1918 C1917 1.374 . S
C1919 C1916 1.499 . S
C1919 C1920 1.373 . S
C1919 C1921 1.389 . S
C1920 H1893 0.950 . S
C1920 C1906 1.377 . S
C1920 C1919 1.373 . S
C1921 C1905 1.377 . S
C1921 C1919 1.389 . S
C1921 C1922 1.524 . S
C1922 C1921 1.524 . S
C1922 C1923 1.397 . S
C1922 C1927 1.363 . S
C1923 H1894 0.950 . S
C1923 C1922 1.397 . S
C1923 C1924 1.334 . S
C1924 H1895 0.950 . S
C1924 C1923 1.334 . S
C1924 C1925 1.287 . S
C1925 C1924 1.287 . S
C1925 C1926 1.524 . S
C1925 H1928 0.999 . S
C1926 H1896 0.950 . S
C1926 C1925 1.524 . S
C1926 C1927 1.415 . S
C1927 H1897 0.950 . S
C1927 C1922 1.363 . S
C1927 C1926 1.415 . S
H1928 C1925 0.999 . S
H1929 C1910 0.913 . S
H1930 C1948 0.951 . S
H1931 C1950 0.951 . S
H1932 C1952 0.950 . S
H1933 C1953 0.950 . S
H1934 C1955 0.950 . S
H1935 C1958 0.950 . S
H1936 C1959 0.950 . S
H1937 C1961 0.950 . S
H1938 C1962 0.950 . S
H1939 C1963 0.951 . S
H1940 C1965 0.951 . S
H1941 C1967 0.950 . S
H1942 C1968 0.950 . S
H1943 C1970 0.950 . S
H1944 C1973 0.950 . S
H1945 C1974 0.950 . S
H1946 C1976 0.950 . S
H1947 C1977 0.950 . S
C1948 H1930 0.951 . S
C1948 C1949 1.366 . S
C1948 C1950 1.388 . S
C1949 C1948 1.366 . S
C1949 C1953 1.385 . S
C1950 H1931 0.951 . S
C1950 C1948 1.388 . S
C1950 C1951 1.366 . S
C1951 C1950 1.366 . S
C1951 C1952 1.414 . S
C1951 C1954 1.499 . S
C1952 H1932 0.950 . S
C1952 C1951 1.414 . S
C1952 C1953 1.374 . S
C1953 H1933 0.950 . S
C1953 C1949 1.385 . S
C1953 C1952 1.374 . S
C1954 C1951 1.499 . S
C1954 C1955 1.373 . S
C1954 C1956 1.389 . S
C1955 H1934 0.950 . S
C1955 C1954 1.373 . S
C1955 C1971 1.377 . S
C1956 C1954 1.389 . S
C1956 C1957 1.524 . S
C1956 C1970 1.377 . S
C1957 C1956 1.524 . S
C1957 C1958 1.397 . S
C1957 C1962 1.363 . S
C1958 H1935 0.950 . S
C1958 C1957 1.397 . S
C1958 C1959 1.334 . S
C1959 H1936 0.950 . S
C1959 C1958 1.334 . S
C1959 C1960 1.287 . S
C1960 C1959 1.287 . S
C1960 C1961 1.524 . S
C1960 H1979 0.913 . S
C1961 H1937 0.950 . S
C1961 C1960 1.524 . S
C1961 C1962 1.415 . S
C1962 H1938 0.950 . S
C1962 C1957 1.363 . S
C1962 C1961 1.415 . S
C1963 H1939 0.951 . S
C1963 C1964 1.366 . S
C1963 C1965 1.388 . S
C1964 C1963 1.366 . S
C1964 C1968 1.385 . S
C1965 H1940 0.951 . S
C1965 C1963 1.388 . S
C1965 C1966 1.366 . S
C1966 C1965 1.366 . S
C1966 C1967 1.414 . S
C1966 C1969 1.499 . S
C1967 H1941 0.950 . S
C1967 C1966 1.414 . S
C1967 C1968 1.374 . S
C1968 H1942 0.950 . S
C1968 C1964 1.385 . S
C1968 C1967 1.374 . S
C1969 C1966 1.499 . S
C1969 C1970 1.373 . S
C1969 C1971 1.389 . S
C1970 H1943 0.950 . S
C1970 C1956 1.377 . S
C1970 C1969 1.373 . S
C1971 C1955 1.377 . S
C1971 C1969 1.389 . S
C1971 C1972 1.524 . S
C1972 C1971 1.524 . S
C1972 C1973 1.397 . S
C1972 C1977 1.363 . S
C1973 H1944 0.950 . S
C1973 C1972 1.397 . S
C1973 C1974 1.334 . S
C1974 H1945 0.950 . S
C1974 C1973 1.334 . S
C1974 C1975 1.287 . S
C1975 C1974 1.287 . S
C1975 C1976 1.524 . S
C1975 H1978 0.999 . S
C1976 H1946 0.950 . S
C1976 C1975 1.524 . S
C1976 C1977 1.415 . S
C1977 H1947 0.950 . S
C1977 C1972 1.363 . S
C1977 C1976 1.415 . S
H1978 C1975 0.999 . S
H1979 C1960 0.913 . S
H1980 C1998 0.951 . S
H1981 C2000 0.951 . S
H1982 C2002 0.950 . S
H1983 C2003 0.950 . S
H1984 C2005 0.950 . S
H1985 C2008 0.950 . S
H1986 C2009 0.950 . S
H1987 C2011 0.950 . S
H1988 C2012 0.950 . S
H1989 C2013 0.951 . S
H1990 C2015 0.951 . S
H1991 C2017 0.950 . S
H1992 C2018 0.950 . S
H1993 C2020 0.950 . S
H1994 C2023 0.950 . S
H1995 C2024 0.950 . S
H1996 C2026 0.950 . S
H1997 C2027 0.950 . S
C1998 H1980 0.951 . S
C1998 C1999 1.366 . S
C1998 C2000 1.388 . S
C1999 C1998 1.366 . S
C1999 C2003 1.385 . S
C2000 H1981 0.951 . S
C2000 C1998 1.388 . S
C2000 C2001 1.366 . S
C2001 C2000 1.366 . S
C2001 C2002 1.414 . S
C2001 C2004 1.499 . S
C2002 H1982 0.950 . S
C2002 C2001 1.414 . S
C2002 C2003 1.374 . S
C2003 H1983 0.950 . S
C2003 C1999 1.385 . S
C2003 C2002 1.374 . S
C2004 C2001 1.499 . S
C2004 C2005 1.373 . S
C2004 C2006 1.389 . S
C2005 H1984 0.950 . S
C2005 C2004 1.373 . S
C2005 C2021 1.377 . S
C2006 C2004 1.389 . S
C2006 C2007 1.524 . S
C2006 C2020 1.377 . S
C2007 C2006 1.524 . S
C2007 C2008 1.397 . S
C2007 C2012 1.363 . S
C2008 H1985 0.950 . S
C2008 C2007 1.397 . S
C2008 C2009 1.334 . S
C2009 H1986 0.950 . S
C2009 C2008 1.334 . S
C2009 C2010 1.287 . S
C2010 C2009 1.287 . S
C2010 C2011 1.524 . S
C2010 H2029 0.913 . S
C2011 H1987 0.950 . S
C2011 C2010 1.524 . S
C2011 C2012 1.415 . S
C2012 H1988 0.950 . S
C2012 C2007 1.363 . S
C2012 C2011 1.415 . S
C2013 H1989 0.951 . S
C2013 C2014 1.366 . S
C2013 C2015 1.388 . S
C2014 C2013 1.366 . S
C2014 C2018 1.385 . S
C2015 H1990 0.951 . S
C2015 C2013 1.388 . S
C2015 C2016 1.366 . S
C2016 C2015 1.366 . S
C2016 C2017 1.414 . S
C2016 C2019 1.499 . S
C2017 H1991 0.950 . S
C2017 C2016 1.414 . S
C2017 C2018 1.374 . S
C2018 H1992 0.950 . S
C2018 C2014 1.385 . S
C2018 C2017 1.374 . S
C2019 C2016 1.499 . S
C2019 C2020 1.373 . S
C2019 C2021 1.389 . S
C2020 H1993 0.950 . S
C2020 C2006 1.377 . S
C2020 C2019 1.373 . S
C2021 C2005 1.377 . S
C2021 C2019 1.389 . S
C2021 C2022 1.524 . S
C2022 C2021 1.524 . S
C2022 C2023 1.397 . S
C2022 C2027 1.363 . S
C2023 H1994 0.950 . S
C2023 C2022 1.397 . S
C2023 C2024 1.334 . S
C2024 H1995 0.950 . S
C2024 C2023 1.334 . S
C2024 C2025 1.287 . S
C2025 C2024 1.287 . S
C2025 C2026 1.524 . S
C2025 H2028 0.999 . S
C2026 H1996 0.950 . S
C2026 C2025 1.524 . S
C2026 C2027 1.415 . S
C2027 H1997 0.950 . S
C2027 C2022 1.363 . S
C2027 C2026 1.415 . S
H2028 C2025 0.999 . S
H2029 C2010 0.913 . S
H2030 C2048 0.951 . S
H2031 C2050 0.951 . S
H2032 C2052 0.950 . S
H2033 C2053 0.950 . S
H2034 C2055 0.950 . S
H2035 C2058 0.950 . S
H2036 C2059 0.950 . S
H2037 C2061 0.950 . S
H2038 C2062 0.950 . S
H2039 C2063 0.951 . S
H2040 C2065 0.951 . S
H2041 C2067 0.950 . S
H2042 C2068 0.950 . S
H2043 C2070 0.950 . S
H2044 C2073 0.950 . S
H2045 C2074 0.950 . S
H2046 C2076 0.950 . S
H2047 C2077 0.950 . S
C2048 H2030 0.951 . S
C2048 C2049 1.366 . S
C2048 C2050 1.388 . S
C2049 C2048 1.366 . S
C2049 C2053 1.385 . S
C2050 H2031 0.951 . S
C2050 C2048 1.388 . S
C2050 C2051 1.366 . S
C2051 C2050 1.366 . S
C2051 C2052 1.414 . S
C2051 C2054 1.499 . S
C2052 H2032 0.950 . S
C2052 C2051 1.414 . S
C2052 C2053 1.374 . S
C2053 H2033 0.950 . S
C2053 C2049 1.385 . S
C2053 C2052 1.374 . S
C2054 C2051 1.499 . S
C2054 C2055 1.373 . S
C2054 C2056 1.389 . S
C2055 H2034 0.950 . S
C2055 C2054 1.373 . S
C2055 C2071 1.377 . S
C2056 C2054 1.389 . S
C2056 C2057 1.524 . S
C2056 C2070 1.377 . S
C2057 C2056 1.524 . S
C2057 C2058 1.397 . S
C2057 C2062 1.363 . S
C2058 H2035 0.950 . S
C2058 C2057 1.397 . S
C2058 C2059 1.334 . S
C2059 H2036 0.950 . S
C2059 C2058 1.334 . S
C2059 C2060 1.287 . S
C2060 C2059 1.287 . S
C2060 C2061 1.524 . S
C2060 H2079 0.913 . S
C2061 H2037 0.950 . S
C2061 C2060 1.524 . S
C2061 C2062 1.415 . S
C2062 H2038 0.950 . S
C2062 C2057 1.363 . S
C2062 C2061 1.415 . S
C2063 H2039 0.951 . S
C2063 C2064 1.366 . S
C2063 C2065 1.388 . S
C2064 C2063 1.366 . S
C2064 C2068 1.385 . S
C2065 H2040 0.951 . S
C2065 C2063 1.388 . S
C2065 C2066 1.366 . S
C2066 C2065 1.366 . S
C2066 C2067 1.414 . S
C2066 C2069 1.499 . S
C2067 H2041 0.950 . S
C2067 C2066 1.414 . S
C2067 C2068 1.374 . S
C2068 H2042 0.950 . S
C2068 C2064 1.385 . S
C2068 C2067 1.374 . S
C2069 C2066 1.499 . S
C2069 C2070 1.373 . S
C2069 C2071 1.389 . S
C2070 H2043 0.950 . S
C2070 C2056 1.377 . S
C2070 C2069 1.373 . S
C2071 C2055 1.377 . S
C2071 C2069 1.389 . S
C2071 C2072 1.524 . S
C2072 C2071 1.524 . S
C2072 C2073 1.397 . S
C2072 C2077 1.363 . S
C2073 H2044 0.950 . S
C2073 C2072 1.397 . S
C2073 C2074 1.334 . S
C2074 H2045 0.950 . S
C2074 C2073 1.334 . S
C2074 C2075 1.287 . S
C2075 C2074 1.287 . S
C2075 C2076 1.524 . S
C2075 H2078 0.999 . S
C2076 H2046 0.950 . S
C2076 C2075 1.524 . S
C2076 C2077 1.415 . S
C2077 H2047 0.950 . S
C2077 C2072 1.363 . S
C2077 C2076 1.415 . S
H2078 C2075 0.999 . S
H2079 C2060 0.913 . S
H2080 C2098 0.951 . S
H2081 C2100 0.951 . S
H2082 C2102 0.950 . S
H2083 C2103 0.950 . S
H2084 C2105 0.950 . S
H2085 C2108 0.950 . S
H2086 C2109 0.950 . S
H2087 C2111 0.950 . S
H2088 C2112 0.950 . S
H2089 C2113 0.951 . S
H2090 C2115 0.951 . S
H2091 C2117 0.950 . S
H2092 C2118 0.950 . S
H2093 C2120 0.950 . S
H2094 C2123 0.950 . S
H2095 C2124 0.950 . S
H2096 C2126 0.950 . S
H2097 C2127 0.950 . S
C2098 H2080 0.951 . S
C2098 C2099 1.366 . S
C2098 C2100 1.388 . S
C2099 C2098 1.366 . S
C2099 C2103 1.385 . S
C2100 H2081 0.951 . S
C2100 C2098 1.388 . S
C2100 C2101 1.366 . S
C2101 C2100 1.366 . S
C2101 C2102 1.414 . S
C2101 C2104 1.499 . S
C2102 H2082 0.950 . S
C2102 C2101 1.414 . S
C2102 C2103 1.374 . S
C2103 H2083 0.950 . S
C2103 C2099 1.385 . S
C2103 C2102 1.374 . S
C2104 C2101 1.499 . S
C2104 C2105 1.373 . S
C2104 C2106 1.389 . S
C2105 H2084 0.950 . S
C2105 C2104 1.373 . S
C2105 C2121 1.377 . S
C2106 C2104 1.389 . S
C2106 C2107 1.524 . S
C2106 C2120 1.377 . S
C2107 C2106 1.524 . S
C2107 C2108 1.397 . S
C2107 C2112 1.363 . S
C2108 H2085 0.950 . S
C2108 C2107 1.397 . S
C2108 C2109 1.334 . S
C2109 H2086 0.950 . S
C2109 C2108 1.334 . S
C2109 C2110 1.287 . S
C2110 C2109 1.287 . S
C2110 C2111 1.524 . S
C2110 H2129 0.913 . S
C2111 H2087 0.950 . S
C2111 C2110 1.524 . S
C2111 C2112 1.415 . S
C2112 H2088 0.950 . S
C2112 C2107 1.363 . S
C2112 C2111 1.415 . S
C2113 H2089 0.951 . S
C2113 C2114 1.366 . S
C2113 C2115 1.388 . S
C2114 C2113 1.366 . S
C2114 C2118 1.385 . S
C2115 H2090 0.951 . S
C2115 C2113 1.388 . S
C2115 C2116 1.366 . S
C2116 C2115 1.366 . S
C2116 C2117 1.414 . S
C2116 C2119 1.499 . S
C2117 H2091 0.950 . S
C2117 C2116 1.414 . S
C2117 C2118 1.374 . S
C2118 H2092 0.950 . S
C2118 C2114 1.385 . S
C2118 C2117 1.374 . S
C2119 C2116 1.499 . S
C2119 C2120 1.373 . S
C2119 C2121 1.389 . S
C2120 H2093 0.950 . S
C2120 C2106 1.377 . S
C2120 C2119 1.373 . S
C2121 C2105 1.377 . S
C2121 C2119 1.389 . S
C2121 C2122 1.524 . S
C2122 C2121 1.524 . S
C2122 C2123 1.397 . S
C2122 C2127 1.363 . S
C2123 H2094 0.950 . S
C2123 C2122 1.397 . S
C2123 C2124 1.334 . S
C2124 H2095 0.950 . S
C2124 C2123 1.334 . S
C2124 C2125 1.287 . S
C2125 C2124 1.287 . S
C2125 C2126 1.524 . S
C2125 H2128 0.999 . S
C2126 H2096 0.950 . S
C2126 C2125 1.524 . S
C2126 C2127 1.415 . S
C2127 H2097 0.950 . S
C2127 C2122 1.363 . S
C2127 C2126 1.415 . S
H2128 C2125 0.999 . S
H2129 C2110 0.913 . S
H2130 C2148 0.951 . S
H2131 C2150 0.951 . S
H2132 C2152 0.950 . S
H2133 C2153 0.950 . S
H2134 C2155 0.950 . S
H2135 C2158 0.950 . S
H2136 C2159 0.950 . S
H2137 C2161 0.950 . S
H2138 C2162 0.950 . S
H2139 C2163 0.951 . S
H2140 C2165 0.951 . S
H2141 C2167 0.950 . S
H2142 C2168 0.950 . S
H2143 C2170 0.950 . S
H2144 C2173 0.950 . S
H2145 C2174 0.950 . S
H2146 C2176 0.950 . S
H2147 C2177 0.950 . S
C2148 H2130 0.951 . S
C2148 C2149 1.366 . S
C2148 C2150 1.388 . S
C2149 C2148 1.366 . S
C2149 C2153 1.385 . S
C2150 H2131 0.951 . S
C2150 C2148 1.388 . S
C2150 C2151 1.366 . S
C2151 C2150 1.366 . S
C2151 C2152 1.414 . S
C2151 C2154 1.499 . S
C2152 H2132 0.950 . S
C2152 C2151 1.414 . S
C2152 C2153 1.374 . S
C2153 H2133 0.950 . S
C2153 C2149 1.385 . S
C2153 C2152 1.374 . S
C2154 C2151 1.499 . S
C2154 C2155 1.373 . S
C2154 C2156 1.389 . S
C2155 H2134 0.950 . S
C2155 C2154 1.373 . S
C2155 C2171 1.377 . S
C2156 C2154 1.389 . S
C2156 C2157 1.524 . S
C2156 C2170 1.377 . S
C2157 C2156 1.524 . S
C2157 C2158 1.397 . S
C2157 C2162 1.363 . S
C2158 H2135 0.950 . S
C2158 C2157 1.397 . S
C2158 C2159 1.334 . S
C2159 H2136 0.950 . S
C2159 C2158 1.334 . S
C2159 C2160 1.287 . S
C2160 C2159 1.287 . S
C2160 C2161 1.524 . S
C2160 H2179 0.913 . S
C2161 H2137 0.950 . S
C2161 C2160 1.524 . S
C2161 C2162 1.415 . S
C2162 H2138 0.950 . S
C2162 C2157 1.363 . S
C2162 C2161 1.415 . S
C2163 H2139 0.951 . S
C2163 C2164 1.366 . S
C2163 C2165 1.388 . S
C2164 C2163 1.366 . S
C2164 C2168 1.385 . S
C2165 H2140 0.951 . S
C2165 C2163 1.388 . S
C2165 C2166 1.366 . S
C2166 C2165 1.366 . S
C2166 C2167 1.414 . S
C2166 C2169 1.499 . S
C2167 H2141 0.950 . S
C2167 C2166 1.414 . S
C2167 C2168 1.374 . S
C2168 H2142 0.950 . S
C2168 C2164 1.385 . S
C2168 C2167 1.374 . S
C2169 C2166 1.499 . S
C2169 C2170 1.373 . S
C2169 C2171 1.389 . S
C2170 H2143 0.950 . S
C2170 C2156 1.377 . S
C2170 C2169 1.373 . S
C2171 C2155 1.377 . S
C2171 C2169 1.389 . S
C2171 C2172 1.524 . S
C2172 C2171 1.524 . S
C2172 C2173 1.397 . S
C2172 C2177 1.363 . S
C2173 H2144 0.950 . S
C2173 C2172 1.397 . S
C2173 C2174 1.334 . S
C2174 H2145 0.950 . S
C2174 C2173 1.334 . S
C2174 C2175 1.287 . S
C2175 C2174 1.287 . S
C2175 C2176 1.524 . S
C2175 H2178 0.999 . S
C2176 H2146 0.950 . S
C2176 C2175 1.524 . S
C2176 C2177 1.415 . S
C2177 H2147 0.950 . S
C2177 C2172 1.363 . S
C2177 C2176 1.415 . S
H2178 C2175 0.999 . S
H2179 C2160 0.913 . S
H2180 C2198 0.951 . S
H2181 C2200 0.951 . S
H2182 C2202 0.950 . S
H2183 C2203 0.950 . S
H2184 C2205 0.950 . S
H2185 C2208 0.950 . S
H2186 C2209 0.950 . S
H2187 C2211 0.950 . S
H2188 C2212 0.950 . S
H2189 C2213 0.951 . S
H2190 C2215 0.951 . S
H2191 C2217 0.950 . S
H2192 C2218 0.950 . S
H2193 C2220 0.950 . S
H2194 C2223 0.950 . S
H2195 C2224 0.950 . S
H2196 C2226 0.950 . S
H2197 C2227 0.950 . S
C2198 H2180 0.951 . S
C2198 C2199 1.366 . S
C2198 C2200 1.388 . S
C2199 C2198 1.366 . S
C2199 C2203 1.385 . S
C2200 H2181 0.951 . S
C2200 C2198 1.388 . S
C2200 C2201 1.366 . S
C2201 C2200 1.366 . S
C2201 C2202 1.414 . S
C2201 C2204 1.499 . S
C2202 H2182 0.950 . S
C2202 C2201 1.414 . S
C2202 C2203 1.374 . S
C2203 H2183 0.950 . S
C2203 C2199 1.385 . S
C2203 C2202 1.374 . S
C2204 C2201 1.499 . S
C2204 C2205 1.373 . S
C2204 C2206 1.389 . S
C2205 H2184 0.950 . S
C2205 C2204 1.373 . S
C2205 C2221 1.377 . S
C2206 C2204 1.389 . S
C2206 C2207 1.524 . S
C2206 C2220 1.377 . S
C2207 C2206 1.524 . S
C2207 C2208 1.397 . S
C2207 C2212 1.363 . S
C2208 H2185 0.950 . S
C2208 C2207 1.397 . S
C2208 C2209 1.334 . S
C2209 H2186 0.950 . S
C2209 C2208 1.334 . S
C2209 C2210 1.287 . S
C2210 C2209 1.287 . S
C2210 C2211 1.524 . S
C2210 H2229 0.913 . S
C2211 H2187 0.950 . S
C2211 C2210 1.524 . S
C2211 C2212 1.415 . S
C2212 H2188 0.950 . S
C2212 C2207 1.363 . S
C2212 C2211 1.415 . S
C2213 H2189 0.951 . S
C2213 C2214 1.366 . S
C2213 C2215 1.388 . S
C2214 C2213 1.366 . S
C2214 C2218 1.385 . S
C2215 H2190 0.951 . S
C2215 C2213 1.388 . S
C2215 C2216 1.366 . S
C2216 C2215 1.366 . S
C2216 C2217 1.414 . S
C2216 C2219 1.499 . S
C2217 H2191 0.950 . S
C2217 C2216 1.414 . S
C2217 C2218 1.374 . S
C2218 H2192 0.950 . S
C2218 C2214 1.385 . S
C2218 C2217 1.374 . S
C2219 C2216 1.499 . S
C2219 C2220 1.373 . S
C2219 C2221 1.389 . S
C2220 H2193 0.950 . S
C2220 C2206 1.377 . S
C2220 C2219 1.373 . S
C2221 C2205 1.377 . S
C2221 C2219 1.389 . S
C2221 C2222 1.524 . S
C2222 C2221 1.524 . S
C2222 C2223 1.397 . S
C2222 C2227 1.363 . S
C2223 H2194 0.950 . S
C2223 C2222 1.397 . S
C2223 C2224 1.334 . S
C2224 H2195 0.950 . S
C2224 C2223 1.334 . S
C2224 C2225 1.287 . S
C2225 C2224 1.287 . S
C2225 C2226 1.524 . S
C2225 H2228 0.999 . S
C2226 H2196 0.950 . S
C2226 C2225 1.524 . S
C2226 C2227 1.415 . S
C2227 H2197 0.950 . S
C2227 C2222 1.363 . S
C2227 C2226 1.415 . S
H2228 C2225 0.999 . S
H2229 C2210 0.913 . S
H2230 C2248 0.951 . S
H2231 C2250 0.951 . S
H2232 C2252 0.950 . S
H2233 C2253 0.950 . S
H2234 C2255 0.950 . S
H2235 C2258 0.950 . S
H2236 C2259 0.950 . S
H2237 C2261 0.950 . S
H2238 C2262 0.950 . S
H2239 C2263 0.951 . S
H2240 C2265 0.951 . S
H2241 C2267 0.950 . S
H2242 C2268 0.950 . S
H2243 C2270 0.950 . S
H2244 C2273 0.950 . S
H2245 C2274 0.950 . S
H2246 C2276 0.950 . S
H2247 C2277 0.950 . S
C2248 H2230 0.951 . S
C2248 C2249 1.366 . S
C2248 C2250 1.388 . S
C2249 C2248 1.366 . S
C2249 C2253 1.385 . S
C2250 H2231 0.951 . S
C2250 C2248 1.388 . S
C2250 C2251 1.366 . S
C2251 C2250 1.366 . S
C2251 C2252 1.414 . S
C2251 C2254 1.499 . S
C2252 H2232 0.950 . S
C2252 C2251 1.414 . S
C2252 C2253 1.374 . S
C2253 H2233 0.950 . S
C2253 C2249 1.385 . S
C2253 C2252 1.374 . S
C2254 C2251 1.499 . S
C2254 C2255 1.373 . S
C2254 C2256 1.389 . S
C2255 H2234 0.950 . S
C2255 C2254 1.373 . S
C2255 C2271 1.377 . S
C2256 C2254 1.389 . S
C2256 C2257 1.524 . S
C2256 C2270 1.377 . S
C2257 C2256 1.524 . S
C2257 C2258 1.397 . S
C2257 C2262 1.363 . S
C2258 H2235 0.950 . S
C2258 C2257 1.397 . S
C2258 C2259 1.334 . S
C2259 H2236 0.950 . S
C2259 C2258 1.334 . S
C2259 C2260 1.287 . S
C2260 C2259 1.287 . S
C2260 C2261 1.524 . S
C2260 H2279 0.913 . S
C2261 H2237 0.950 . S
C2261 C2260 1.524 . S
C2261 C2262 1.415 . S
C2262 H2238 0.950 . S
C2262 C2257 1.363 . S
C2262 C2261 1.415 . S
C2263 H2239 0.951 . S
C2263 C2264 1.366 . S
C2263 C2265 1.388 . S
C2264 C2263 1.366 . S
C2264 C2268 1.385 . S
C2265 H2240 0.951 . S
C2265 C2263 1.388 . S
C2265 C2266 1.366 . S
C2266 C2265 1.366 . S
C2266 C2267 1.414 . S
C2266 C2269 1.499 . S
C2267 H2241 0.950 . S
C2267 C2266 1.414 . S
C2267 C2268 1.374 . S
C2268 H2242 0.950 . S
C2268 C2264 1.385 . S
C2268 C2267 1.374 . S
C2269 C2266 1.499 . S
C2269 C2270 1.373 . S
C2269 C2271 1.389 . S
C2270 H2243 0.950 . S
C2270 C2256 1.377 . S
C2270 C2269 1.373 . S
C2271 C2255 1.377 . S
C2271 C2269 1.389 . S
C2271 C2272 1.524 . S
C2272 C2271 1.524 . S
C2272 C2273 1.397 . S
C2272 C2277 1.363 . S
C2273 H2244 0.950 . S
C2273 C2272 1.397 . S
C2273 C2274 1.334 . S
C2274 H2245 0.950 . S
C2274 C2273 1.334 . S
C2274 C2275 1.287 . S
C2275 C2274 1.287 . S
C2275 C2276 1.524 . S
C2275 H2278 0.999 . S
C2276 H2246 0.950 . S
C2276 C2275 1.524 . S
C2276 C2277 1.415 . S
C2277 H2247 0.950 . S
C2277 C2272 1.363 . S
C2277 C2276 1.415 . S
H2278 C2275 0.999 . S
H2279 C2260 0.913 . S
C499 C95 1.229 . S
C514 C19 1.205 . S
C549 C126 1.229 . S
C564 C50 1.205 . S
C599 C99 1.204 . S
C614 C175 1.228 . S
C649 C130 1.205 . S
C664 C206 1.229 . S
C699 C15 1.228 . S
C714 C179 1.204 . S
C749 C46 1.228 . S
C764 C210 1.204 . S
C799 C406 1.229 . S
C814 C250 1.205 . S
C849 C299 1.204 . S
C864 C455 1.228 . S
C899 C330 1.204 . S
C914 C246 1.228 . S
C949 C379 1.204 . S
C964 C295 1.228 . S
C999 C410 1.204 . S
C1014 C326 1.228 . S
C1049 C375 1.228 . S
C1064 C459 1.204 . S
C1099 C129 1.739 . S
C1114 C18 1.740 . S
C1149 C49 1.739 . S
C1164 C178 1.740 . S
C1199 C98 1.739 . S
C1214 C209 1.740 . S
C1249 C249 1.740 . S
C1264 C378 1.739 . S
C1299 C298 1.740 . S
C1314 C409 1.739 . S
C1349 C329 1.740 . S
C1364 C458 1.739 . S
C1399 C289 2.256 . S
C1414 C9 2.256 . S
C1449 C58 2.256 . S
C1464 C338 2.256 . S
C1499 C369 2.256 . S
C1514 C89 2.256 . S
C1549 C138 2.256 . S
C1564 C418 2.256 . S
C1599 C169 2.256 . S
C1614 C449 2.256 . S
C1649 C258 2.256 . S
C1664 C218 2.256 . S
C1699 C86 1.749 . S
C1714 C10 1.760 . S
C1749 C59 1.760 . S
C1764 C135 1.749 . S
C1799 C90 1.760 . S
C1814 C166 1.750 . S
C1849 C139 1.760 . S
C1864 C215 1.749 . S
C1899 C6 1.749 . S
C1914 C170 1.760 . S
C1949 C55 1.749 . S
C1964 C219 1.760 . S
C1999 C415 1.749 . S
C2014 C259 1.760 . S
C2049 C290 1.760 . S
C2064 C446 1.749 . S
C2099 C339 1.760 . S
C2114 C255 1.749 . S
C2149 C286 1.749 . S
C2164 C370 1.760 . S
C2199 C419 1.760 . S
C2214 C335 1.749 . S
C2249 C450 1.760 . S
C2264 C366 1.749 . S
