# Generated by pormake.
# Topology upc, (4)-cn, num edge types: 1
# Building blocks:
#     Node 0, Type 0, BuildingBlock: QUQFOY_clean_sbu_3, # of connection points: 4
#     Node 1, Type 0, BuildingBlock: QUQFOY_clean_sbu_3, # of connection points: 4
#     Node 2, Type 0, BuildingBlock: QUQFOY_clean_sbu_3, # of connection points: 4
#     Node 3, Type 0, BuildingBlock: QUQFOY_clean_sbu_3, # of connection points: 4
#     Node 4, Type 0, BuildingBlock: QUQFOY_clean_sbu_3, # of connection points: 4
#     Node 5, Type 0, BuildingBlock: QUQFOY_clean_sbu_3, # of connection points: 4
#     Node 6, Type 0, BuildingBlock: QUQFOY_clean_sbu_3, # of connection points: 4
#     Node 7, Type 0, BuildingBlock: QUQFOY_clean_sbu_3, # of connection points: 4
#     Node 8, Type 0, BuildingBlock: QUQFOY_clean_sbu_3, # of connection points: 4
#     Node 9, Type 0, BuildingBlock: QUQFOY_clean_sbu_3, # of connection points: 4
#     Node 10, Type 0, BuildingBlock: QUQFOY_clean_sbu_3, # of connection points: 4
#     Node 11, Type 0, BuildingBlock: QUQFOY_clean_sbu_3, # of connection points: 4
#     Node 12, Type 0, BuildingBlock: QUQFOY_clean_sbu_3, # of connection points: 4
#     Node 13, Type 0, BuildingBlock: QUQFOY_clean_sbu_3, # of connection points: 4
#     Node 14, Type 0, BuildingBlock: QUQFOY_clean_sbu_3, # of connection points: 4
#     Node 15, Type 0, BuildingBlock: QUQFOY_clean_sbu_3, # of connection points: 4
#     Edge 16, Type (0, 0), BuildingBlock: OJICUG_clean_linker_0, # of connection points: 2
#     Edge 17, Type (0, 0), BuildingBlock: OJICUG_clean_linker_0, # of connection points: 2
#     Edge 18, Type (0, 0), BuildingBlock: OJICUG_clean_linker_0, # of connection points: 2
#     Edge 19, Type (0, 0), BuildingBlock: OJICUG_clean_linker_0, # of connection points: 2
#     Edge 20, Type (0, 0), BuildingBlock: OJICUG_clean_linker_0, # of connection points: 2
#     Edge 21, Type (0, 0), BuildingBlock: OJICUG_clean_linker_0, # of connection points: 2
#     Edge 22, Type (0, 0), BuildingBlock: OJICUG_clean_linker_0, # of connection points: 2
#     Edge 23, Type (0, 0), BuildingBlock: OJICUG_clean_linker_0, # of connection points: 2
#     Edge 24, Type (0, 0), BuildingBlock: OJICUG_clean_linker_0, # of connection points: 2
#     Edge 25, Type (0, 0), BuildingBlock: OJICUG_clean_linker_0, # of connection points: 2
#     Edge 26, Type (0, 0), BuildingBlock: OJICUG_clean_linker_0, # of connection points: 2
#     Edge 27, Type (0, 0), BuildingBlock: OJICUG_clean_linker_0, # of connection points: 2
#     Edge 28, Type (0, 0), BuildingBlock: OJICUG_clean_linker_0, # of connection points: 2
#     Edge 29, Type (0, 0), BuildingBlock: OJICUG_clean_linker_0, # of connection points: 2
#     Edge 30, Type (0, 0), BuildingBlock: OJICUG_clean_linker_0, # of connection points: 2
#     Edge 31, Type (0, 0), BuildingBlock: OJICUG_clean_linker_0, # of connection points: 2
#     Edge 32, Type (0, 0), BuildingBlock: OJICUG_clean_linker_0, # of connection points: 2
#     Edge 33, Type (0, 0), BuildingBlock: OJICUG_clean_linker_0, # of connection points: 2
#     Edge 34, Type (0, 0), BuildingBlock: OJICUG_clean_linker_0, # of connection points: 2
#     Edge 35, Type (0, 0), BuildingBlock: OJICUG_clean_linker_0, # of connection points: 2
#     Edge 36, Type (0, 0), BuildingBlock: OJICUG_clean_linker_0, # of connection points: 2
#     Edge 37, Type (0, 0), BuildingBlock: OJICUG_clean_linker_0, # of connection points: 2
#     Edge 38, Type (0, 0), BuildingBlock: OJICUG_clean_linker_0, # of connection points: 2
#     Edge 39, Type (0, 0), BuildingBlock: OJICUG_clean_linker_0, # of connection points: 2
#     Edge 40, Type (0, 0), BuildingBlock: OJICUG_clean_linker_0, # of connection points: 2
#     Edge 41, Type (0, 0), BuildingBlock: OJICUG_clean_linker_0, # of connection points: 2
#     Edge 42, Type (0, 0), BuildingBlock: OJICUG_clean_linker_0, # of connection points: 2
#     Edge 43, Type (0, 0), BuildingBlock: OJICUG_clean_linker_0, # of connection points: 2
#     Edge 44, Type (0, 0), BuildingBlock: OJICUG_clean_linker_0, # of connection points: 2
#     Edge 45, Type (0, 0), BuildingBlock: OJICUG_clean_linker_0, # of connection points: 2
#     Edge 46, Type (0, 0), BuildingBlock: OJICUG_clean_linker_0, # of connection points: 2
#     Edge 47, Type (0, 0), BuildingBlock: OJICUG_clean_linker_0, # of connection points: 2
# Relax obj value: 0.240
# Max RMSD: 0.293
# Mean RMSD: 0.293
data_MOF--net-upc--node1-QUQFOY_clean_sbu_3--edge1-OJICUG_clean_linker_0
_symmetry_space_group_name_H-M    P1
_symmetry_Int_Tables_number       1
_symmetry_cell_setting            triclinic
loop_
_symmetry_equiv_pos_as_xyz
'x, y, z'
_cell_length_a     25.005304
_cell_length_b     25.001183
_cell_length_c     33.466616
_cell_angle_alpha  89.749933
_cell_angle_beta   90.279603
_cell_angle_gamma 89.999586
loop_
_atom_site_label
_atom_site_type_symbol
_atom_site_fract_x
_atom_site_fract_y
_atom_site_fract_z
_atom_type_partial_charge
C0 C 0.16601 0.66534 0.09538 0.0
O1 O 0.16934 0.62498 0.11833 0.0
Cd2 Cd 0.10527 0.64021 0.16898 0.0
O3 O 0.11989 0.68437 0.08714 0.0
Cd4 Cd 0.0265 0.64658 0.09871 0.0
C5 C 0.01849 0.73361 0.15255 0.0
O6 O 0.03868 0.57745 0.1525 0.0
O7 O 0.96009 0.61146 0.1443 0.0
O8 O 0.05521 0.58781 0.04948 0.0
C9 C 0.99047 0.58051 0.16403 0.0
O10 O 0.06558 0.72187 0.14258 0.0
C11 C 0.0118 0.5868 0.02995 0.0
O12 O 0.98347 0.7297 0.12513 0.0
O13 O 0.97488 0.6191 0.04022 0.0
C14 C 0.82262 0.16097 0.09511 0.0
O15 O 0.85915 0.1659 0.12132 0.0
Cd16 Cd 0.84769 0.09952 0.17074 0.0
O17 O 0.80593 0.1145 0.08545 0.0
Cd18 Cd 0.83881 0.01931 0.09702 0.0
C19 C 0.75329 0.01519 0.15253 0.0
O20 O 0.90862 0.03488 0.14906 0.0
O21 O 0.87988 0.95434 0.14154 0.0
O22 O 0.89042 0.04936 0.04371 0.0
C23 C 0.90865 0.98671 0.16112 0.0
O24 O 0.76762 0.06117 0.14149 0.0
C25 C 0.89553 0.00439 0.02702 0.0
O26 O 0.75522 0.97911 0.12601 0.0
O27 O 0.86714 0.96579 0.04008 0.0
C28 C 0.33288 0.82044 0.11586 0.0
O29 O 0.32875 0.8509 0.14616 0.0
Cd30 Cd 0.40124 0.88951 0.18213 0.0
O31 O 0.37677 0.81577 0.09671 0.0
Cd32 Cd 0.47048 0.85271 0.09063 0.0
C33 C 0.48309 0.7803 0.15471 0.0
O34 O 0.45875 0.9298 0.13672 0.0
O35 O 0.53872 0.90007 0.12974 0.0
O36 O 0.43262 0.89104 0.03309 0.0
C37 C 0.50702 0.93032 0.14861 0.0
O38 O 0.45593 0.82241 0.15553 0.0
C39 C 0.47662 0.89544 0.01476 0.0
O40 O 0.50494 0.76733 0.1219 0.0
O41 O 0.51691 0.87048 0.02904 0.0
C42 C 0.66331 0.32447 0.09326 0.0
O43 O 0.62584 0.3183 0.11827 0.0
Cd44 Cd 0.64165 0.38117 0.16952 0.0
O45 O 0.6805 0.37145 0.0858 0.0
Cd46 Cd 0.64361 0.46372 0.10056 0.0
C47 C 0.73318 0.46947 0.1528 0.0
O48 O 0.57665 0.44608 0.15417 0.0
O49 O 0.60507 0.52706 0.14753 0.0
O50 O 0.58701 0.43421 0.04974 0.0
C51 C 0.5769 0.49383 0.16685 0.0
O52 O 0.72149 0.42268 0.14192 0.0
C53 C 0.58473 0.47818 0.031 0.0
O54 O 0.72791 0.50551 0.12626 0.0
O55 O 0.61492 0.51615 0.04283 0.0
C56 C 0.15301 0.81522 0.3478 0.0
O57 O 0.15399 0.84894 0.31923 0.0
Cd58 Cd 0.07684 0.88066 0.28518 0.0
O59 O 0.10991 0.80548 0.36687 0.0
Cd60 Cd 0.01655 0.8427 0.37325 0.0
C61 C -0.00575 0.76473 0.3095 0.0
O62 O 0.02361 0.92322 0.33036 0.0
O63 O 0.94602 0.88732 0.33517 0.0
O64 O 0.05321 0.88255 0.43076 0.0
C65 C 0.97527 0.92247 0.31886 0.0
O66 O 0.02293 0.80456 0.30034 0.0
C67 C 0.00862 0.8882 0.44805 0.0
O68 O 0.97991 0.75825 0.34562 0.0
O69 O 0.96913 0.86163 0.4344 0.0
C70 C 0.6678 0.15423 0.34756 0.0
O71 O 0.63296 0.15706 0.31981 0.0
Cd72 Cd 0.60477 0.08156 0.28265 0.0
O73 O 0.67804 0.10993 0.36521 0.0
Cd74 Cd 0.63665 0.01779 0.37052 0.0
C75 C 0.71725 -0.00427 0.30996 0.0
O76 O 0.559 0.02645 0.32488 0.0
O77 O 0.59199 0.94771 0.33101 0.0
O78 O 0.59293 0.05497 0.4262 0.0
C79 C 0.55936 0.97837 0.31299 0.0
O80 O 0.67821 0.02546 0.30061 0.0
C81 C 0.59041 0.01133 0.44547 0.0
O82 O 0.72185 0.97924 0.3458 0.0
O83 O 0.61801 0.97216 0.4327 0.0
C84 C 0.32517 0.66294 0.35371 0.0
O85 O 0.3209 0.62716 0.32687 0.0
Cd86 Cd 0.39383 0.59243 0.28979 0.0
O87 O 0.36986 0.67272 0.37102 0.0
Cd88 Cd 0.46413 0.63549 0.37812 0.0
C89 C 0.47433 0.70521 0.31211 0.0
O90 O 0.4551 0.55531 0.3342 0.0
O91 O 0.53337 0.59003 0.33953 0.0
O92 O 0.42869 0.59654 0.43599 0.0
C93 C 0.50336 0.55609 0.32257 0.0
O94 O 0.44707 0.66315 0.31287 0.0
C95 C 0.47345 0.5923 0.45364 0.0
O96 O 0.49725 0.71976 0.34433 0.0
O97 O 0.51268 0.61869 0.43939 0.0
C98 C 0.81494 0.33121 0.34757 0.0
O99 O 0.84924 0.3308 0.31962 0.0
Cd100 Cd 0.87945 0.40827 0.28552 0.0
O101 O 0.80439 0.3741 0.36667 0.0
Cd102 Cd 0.84205 0.46756 0.37381 0.0
C103 C 0.76382 0.49016 0.31077 0.0
O104 O 0.9224 0.46158 0.33071 0.0
O105 O 0.88511 0.53856 0.3355 0.0
O106 O 0.88279 0.43088 0.43132 0.0
C107 C 0.92062 0.50993 0.31925 0.0
O108 O 0.80402 0.4618 0.30228 0.0
C109 C 0.88847 0.47545 0.4487 0.0
O110 O 0.75695 0.50466 0.34676 0.0
O111 O 0.86166 0.51489 0.43506 0.0
C112 C 0.82302 0.32492 0.87106 0.0
O113 O 0.81915 0.3623 0.84539 0.0
Cd114 Cd 0.88393 0.34931 0.79509 0.0
O115 O 0.86896 0.30648 0.88047 0.0
Cd116 Cd 0.96311 0.34033 0.86931 0.0
C117 C 0.96792 0.25439 0.81377 0.0
O118 O 0.95006 0.40936 0.81644 0.0
O119 O 0.02974 0.37843 0.82515 0.0
O120 O 0.93291 0.3972 0.91932 0.0
C121 C -0.00169 0.40776 0.80495 0.0
O122 O 0.92154 0.26857 0.82373 0.0
C123 C 0.97621 0.39823 0.93897 0.0
O124 O 0.00323 0.25653 0.8411 0.0
O125 O 0.01358 0.36661 0.92838 0.0
C126 C 0.17095 0.83566 0.8455 0.0
O127 O 0.14313 0.83386 0.81353 0.0
Cd128 Cd 0.10986 0.90907 0.77773 0.0
O129 O 0.17548 0.87865 0.86577 0.0
Cd130 Cd 0.13959 0.97208 0.87121 0.0
C131 C 0.21831 -0.00712 0.81019 0.0
O132 O 0.06426 0.95951 0.82401 0.0
O133 O 0.08925 0.04043 0.8339 0.0
O134 O 0.09731 0.93251 0.92694 0.0
C135 C 0.06041 0.00829 0.81404 0.0
O136 O 0.17751 0.96444 0.80441 0.0
C137 C 0.09292 0.97595 0.94596 0.0
O138 O 0.22628 0.01081 0.84517 0.0
O139 O 0.11935 0.0161 0.93327 0.0
C140 C 0.65265 0.17302 0.86875 0.0
O141 O 0.65553 0.13908 0.84087 0.0
Cd142 Cd 0.58707 0.164 0.79635 0.0
O143 O 0.60682 0.18972 0.87984 0.0
Cd144 Cd 0.51155 0.15553 0.86671 0.0
C145 C 0.50269 0.25178 0.81847 0.0
O146 O 0.53281 0.09081 0.81314 0.0
O147 O 0.44926 0.10644 0.82402 0.0
O148 O 0.54483 0.10345 0.91958 0.0
C149 C 0.48448 0.083 0.80354 0.0
O150 O 0.54787 0.23943 0.83243 0.0
C151 C 0.50012 0.09567 0.93608 0.0
O152 O 0.4636 0.23757 0.8399 0.0
O153 O 0.46037 0.12288 0.92339 0.0
C154 C 0.31727 0.66312 0.87395 0.0
O155 O 0.35785 0.66628 0.85154 0.0
Cd156 Cd 0.34012 0.60496 0.79907 0.0
O157 O 0.29796 0.61704 0.8817 0.0
Cd158 Cd 0.33636 0.5243 0.86945 0.0
C159 C 0.2488 0.51674 0.81507 0.0
O160 O 0.40456 0.54032 0.81635 0.0
O161 O 0.37641 0.45928 0.82501 0.0
O162 O 0.3931 0.55421 0.91994 0.0
C163 C 0.40537 0.49172 0.80571 0.0
O164 O 0.25999 0.56367 0.82583 0.0
C165 C 0.3958 0.51022 0.93864 0.0
O166 O 0.25397 0.48087 0.84174 0.0
O167 O 0.36499 0.47241 0.92746 0.0
C168 C 0.83566 0.1686 0.61922 0.0
O169 O 0.83444 0.13854 0.65001 0.0
Cd170 Cd 0.91023 0.10535 0.68484 0.0
O171 O 0.87851 0.17534 0.59918 0.0
Cd172 Cd 0.9719 0.13939 0.59358 0.0
C173 C -0.00643 0.21786 0.65596 0.0
O174 O 0.96198 0.06175 0.63883 0.0
O175 O 0.04128 0.09309 0.6322 0.0
O176 O 0.93377 0.09762 0.53711 0.0
C177 C 0.01029 0.06117 0.65033 0.0
O178 O 0.96489 0.17762 0.6636 0.0
C179 C 0.97777 0.09246 0.51894 0.0
O180 O 0.00923 0.22509 0.62025 0.0
O181 O 0.01753 0.11922 0.53196 0.0
C182 C 0.3169 0.82155 0.59307 0.0
O183 O 0.35713 0.81831 0.61616 0.0
Cd184 Cd 0.34148 0.88034 0.66822 0.0
O185 O 0.29808 0.86763 0.58437 0.0
Cd186 Cd 0.33487 0.96156 0.59539 0.0
C187 C 0.2494 0.96786 0.65117 0.0
O188 O 0.40396 0.9446 0.64779 0.0
O189 O 0.37723 0.02611 0.6395 0.0
O190 O 0.38885 0.9324 0.54324 0.0
C191 C 0.4059 -0.00694 0.65865 0.0
O192 O 0.26151 0.92116 0.64051 0.0
C193 C 0.39365 0.97758 0.52648 0.0
O194 O 0.2528 0.00372 0.62433 0.0
O195 O 0.36382 0.01548 0.53864 0.0
C196 C 0.65735 0.31012 0.59708 0.0
O197 O 0.65827 0.34832 0.62168 0.0
Cd198 Cd 0.59211 0.31948 0.66699 0.0
O199 O 0.61205 0.29072 0.58699 0.0
Cd200 Cd 0.51762 0.32887 0.59905 0.0
C201 C 0.50494 0.23262 0.64629 0.0
O202 O 0.53634 0.39325 0.6543 0.0
O203 O 0.45363 0.37372 0.64245 0.0
O204 O 0.54956 0.38632 0.54891 0.0
C205 C 0.48759 0.39872 0.66333 0.0
O206 O 0.55081 0.24288 0.63292 0.0
C207 C 0.50541 0.39148 0.53072 0.0
O208 O 0.46683 0.24786 0.62398 0.0
O209 O 0.467 0.3612 0.5414 0.0
C210 C 0.17065 0.64868 0.61933 0.0
O211 O 0.14221 0.64998 0.65081 0.0
Cd212 Cd 0.10806 0.57392 0.68501 0.0
O213 O 0.17591 0.60592 0.59894 0.0
Cd214 Cd 0.14195 0.51204 0.5923 0.0
C215 C 0.21905 0.49193 0.65522 0.0
O216 O 0.06429 0.5231 0.63748 0.0
O217 O 0.09374 0.44326 0.62939 0.0
O218 O 0.10105 0.55031 0.53517 0.0
C219 C 0.06206 0.47426 0.64753 0.0
O220 O 0.1777 0.51975 0.66023 0.0
C221 C 0.0949 0.50601 0.51751 0.0
O222 O 0.22841 0.47468 0.62027 0.0
O223 O 0.12141 0.46618 0.53083 0.0
C224 C 0.23514 0.72609 0.06456 0.0
C225 C 0.21005 0.70375 0.09815 0.0
H226 H 0.29557 0.78094 0.04374 0.0
C227 C 0.22446 0.72109 0.13647 0.0
H228 H 0.22391 0.71352 0.03474 0.0
C229 C 0.26313 0.76017 0.14148 0.0
C230 C 0.28926 0.78223 0.10834 0.0
H231 H 0.20497 0.70492 0.16276 0.0
H232 H 0.27348 0.77225 0.17161 0.0
C233 C 0.27557 0.7646 0.0697 0.0
C234 C 0.76426 0.2253 0.12789 0.0
C235 C 0.78431 0.20495 0.09203 0.0
H236 H 0.70892 0.27767 0.15574 0.0
C237 C 0.76298 0.22271 0.05538 0.0
H238 H 0.77925 0.21125 0.15653 0.0
C239 C 0.72271 0.2619 0.05493 0.0
C240 C 0.70234 0.28116 0.09116 0.0
H241 H 0.77758 0.20666 0.02748 0.0
H242 H 0.70725 0.27663 0.02666 0.0
C243 C 0.7234 0.26252 0.12746 0.0
C244 C 0.21613 0.75777 0.38912 0.0
C245 C 0.1993 0.7791 0.35211 0.0
H246 H 0.27133 0.70445 0.41924 0.0
C247 C 0.22499 0.76277 0.31709 0.0
H248 H 0.19679 0.76985 0.41653 0.0
C249 C 0.26537 0.7249 0.31852 0.0
C250 C 0.28224 0.70306 0.35506 0.0
H251 H 0.21258 0.77793 0.28811 0.0
H252 H 0.2837 0.71267 0.29072 0.0
C253 C 0.2584 0.72053 0.39068 0.0
C254 C 0.7626 0.26092 0.31455 0.0
C255 C 0.77887 0.28472 0.35043 0.0
H256 H 0.71438 0.20218 0.28609 0.0
C257 C 0.75842 0.26514 0.38682 0.0
H258 H 0.777 0.27554 0.28603 0.0
C259 C 0.72267 0.22151 0.38687 0.0
C260 C 0.7058 0.19901 0.35044 0.0
H261 H 0.77035 0.2831 0.41487 0.0
H262 H 0.70745 0.20627 0.41495 0.0
C263 C 0.72623 0.21918 0.31454 0.0
C264 C 0.75764 0.26915 0.83682 0.0
C265 C 0.77798 0.2879 0.87318 0.0
H266 H 0.7033 0.21707 0.80753 0.0
C267 C 0.75853 0.267 0.90935 0.0
H268 H 0.77298 0.28378 0.80856 0.0
C269 C 0.71739 0.22871 0.90879 0.0
C270 C 0.69776 0.2099 0.87205 0.0
H271 H 0.77466 0.28055 0.93765 0.0
H272 H 0.70139 0.21361 0.93666 0.0
C273 C 0.71844 0.23029 0.83626 0.0
C274 C 0.25951 0.7367 0.90158 0.0
C275 C 0.27865 0.70661 0.8694 0.0
H276 H 0.20964 0.80269 0.91923 0.0
C277 C 0.2599 0.71712 0.83066 0.0
H278 H 0.27327 0.72852 0.93174 0.0
C279 C 0.2233 0.75766 0.8237 0.0
C280 C 0.2051 0.7894 0.85525 0.0
H281 H 0.27384 0.69385 0.8055 0.0
H282 H 0.2107 0.76527 0.79317 0.0
C283 C 0.22325 0.77866 0.89442 0.0
C284 C 0.73149 0.25534 0.56682 0.0
C285 C 0.70261 0.27319 0.60003 0.0
H286 H 0.79801 0.20777 0.5468 0.0
C287 C 0.71654 0.25507 0.63837 0.0
H288 H 0.72096 0.26885 0.537 0.0
C289 C 0.75874 0.21998 0.64382 0.0
C290 C 0.78879 0.20262 0.61113 0.0
H291 H 0.69449 0.26809 0.6644 0.0
H292 H 0.76872 0.20757 0.67402 0.0
C293 C 0.77517 0.22063 0.57244 0.0
C294 C 0.22316 0.70609 0.57132 0.0
C295 C 0.2045 0.6953 0.61021 0.0
H296 H 0.27364 0.7562 0.53475 0.0
C297 C 0.22207 0.72715 0.64202 0.0
H298 H 0.21004 0.68197 0.54632 0.0
C299 C 0.2587 0.76779 0.63559 0.0
C300 C 0.27803 0.77825 0.59713 0.0
H301 H 0.20904 0.71949 0.67235 0.0
H302 H 0.27227 0.79111 0.66093 0.0
C303 C 0.25941 0.7481 0.56469 0.0
C304 C 0.90241 0.54751 0.25185 0.0
C305 C 0.93899 0.52468 0.27893 0.0
H306 H 0.88957 0.58121 0.19389 0.0
C307 C 0.99164 0.51509 0.26661 0.0
H308 H 0.86106 0.55374 0.26021 0.0
C309 C 0.00827 0.53127 0.22845 0.0
C310 C 0.97213 0.55633 0.20198 0.0
H311 H 0.0202 0.49671 0.28686 0.0
H312 H 0.0497 0.52564 0.22016 0.0
C313 C 0.91867 0.56281 0.21372 0.0
C314 C 0.95189 0.00869 0.22704 0.0
C315 C 0.93206 0.97053 0.19993 0.0
H316 H 0.98135 0.02328 0.2866 0.0
C317 C 0.92967 0.91663 0.21177 0.0
H318 H 0.95413 0.05054 0.21871 0.0
C319 C 0.94384 0.9016 0.25048 0.0
C320 C 0.96157 0.9399 0.27807 0.0
H321 H 0.91527 0.88611 0.1915 0.0
H322 H 0.94065 0.85985 0.25893 0.0
C323 C 0.96704 -0.00667 0.26585 0.0
C324 C 0.514 0.00244 0.24802 0.0
C325 C 0.54069 0.96451 0.27215 0.0
H326 H 0.48249 0.02142 0.18968 0.0
C327 C 0.5549 0.91512 0.25528 0.0
H328 H 0.50271 0.04095 0.26003 0.0
C329 C 0.54485 0.90487 0.21496 0.0
C330 C 0.51934 0.94324 0.19068 0.0
H331 H 0.57524 0.88482 0.27291 0.0
H332 H 0.55668 0.86659 0.20283 0.0
C333 C 0.50289 0.99162 0.20772 0.0
C334 C 0.53745 0.46989 0.23343 0.0
C335 C 0.55161 0.50902 0.20501 0.0
H336 H 0.51099 0.45422 0.2935 0.0
C337 C 0.54605 0.56327 0.21487 0.0
H338 H 0.54174 0.42777 0.22673 0.0
C339 C 0.52918 0.57808 0.25293 0.0
C340 C 0.51711 0.53905 0.28182 0.0
H341 H 0.5561 0.59437 0.19354 0.0
H342 H 0.52643 0.62017 0.26003 0.0
C343 C 0.52013 0.48486 0.2716 0.0
C344 C 0.08222 0.43538 0.71402 0.0
C345 C 0.04514 0.45966 0.6881 0.0
H346 H 0.09704 0.4018 0.77171 0.0
C347 C -0.0063 0.47154 0.70196 0.0
H348 H 0.12273 0.42735 0.70434 0.0
C349 C 0.97861 0.45639 0.74067 0.0
C350 C 0.01525 0.43024 0.76615 0.0
H351 H 0.96489 0.49114 0.68255 0.0
H352 H 0.93803 0.46398 0.75029 0.0
C353 C 0.06761 0.42123 0.75273 0.0
C354 C 0.01578 0.98611 0.74877 0.0
C355 C 0.04234 0.0233 0.77334 0.0
H356 H 0.98486 0.96893 0.6901 0.0
C357 C 0.05728 0.07296 0.75703 0.0
H358 H 0.00389 0.94746 0.76048 0.0
C359 C 0.0481 0.08423 0.71676 0.0
C360 C 0.02271 0.04665 0.69203 0.0
H361 H 0.07762 0.10266 0.77503 0.0
H362 H 0.06033 0.12279 0.70507 0.0
C363 C 0.00545 -0.002 0.70851 0.0
C364 C 0.49242 0.06953 0.73057 0.0
C365 C 0.46997 0.05401 0.76717 0.0
H366 H 0.48839 0.06271 0.66669 0.0
C367 C 0.4301 0.01461 0.768 0.0
H368 H 0.52276 0.10047 0.72944 0.0
C369 C 0.41225 0.99155 0.73241 0.0
C370 C 0.43244 0.00934 0.69568 0.0
H371 H 0.41215 0.00246 0.79601 0.0
H372 H 0.38078 0.9619 0.73339 0.0
C373 C 0.47292 0.04809 0.69488 0.0
C374 C 0.49439 0.41507 0.73614 0.0
C375 C 0.47142 0.4282 0.69903 0.0
H376 H 0.49022 0.42452 0.79981 0.0
C377 C 0.43002 0.46595 0.69706 0.0
H378 H 0.52596 0.38545 0.73818 0.0
C379 C 0.4113 0.48977 0.73199 0.0
C380 C 0.43223 0.47444 0.76924 0.0
H381 H 0.4117 0.47635 0.66866 0.0
H382 H 0.37878 0.51821 0.73013 0.0
C383 C 0.47412 0.43727 0.77119 0.0
C384 C 0.95213 0.73459 0.20948 0.0
C385 C 0.00381 0.72472 0.19492 0.0
H386 H 0.9059 0.75187 0.26181 0.0
C387 C 0.04399 0.7093 0.22222 0.0
H388 H 0.92016 0.74625 0.18931 0.0
C389 C 0.03379 0.70592 0.26279 0.0
C390 C 0.9858 0.72601 0.27772 0.0
H391 H 0.08501 0.70436 0.21315 0.0
H392 H 0.0675 0.69912 0.28274 0.0
C393 C 0.94335 0.73589 0.25092 0.0
C394 C 0.74994 0.95072 0.21115 0.0
C395 C 0.75978 0.00199 0.19544 0.0
H396 H 0.73162 0.90611 0.2644 0.0
C397 C 0.77363 0.04335 0.22194 0.0
H398 H 0.73949 0.91789 0.19161 0.0
C399 C 0.77609 0.03457 0.26274 0.0
C400 C 0.75626 0.98682 0.27857 0.0
H401 H 0.77825 0.08415 0.21186 0.0
H402 H 0.78201 0.06901 0.28191 0.0
C403 C 0.74742 0.94337 0.25277 0.0
C404 C 0.52939 0.73896 0.25566 0.0
C405 C 0.47933 0.73133 0.27357 0.0
H406 H 0.57059 0.7577 0.20101 0.0
C407 C 0.43275 0.73277 0.25021 0.0
H408 H 0.56584 0.73585 0.27314 0.0
C409 C 0.43578 0.74066 0.20949 0.0
C410 C 0.48526 0.74969 0.19139 0.0
H411 H 0.39382 0.72576 0.26341 0.0
H412 H 0.39889 0.74333 0.19238 0.0
C413 C 0.5323 0.74861 0.21445 0.0
C414 C 0.7331 0.53402 0.21088 0.0
C415 C 0.72483 0.48247 0.19544 0.0
H416 H 0.74901 0.57928 0.26407 0.0
C417 C 0.71115 0.44096 0.22201 0.0
H418 H 0.74356 0.56694 0.19129 0.0
C419 C 0.70703 0.45 0.26265 0.0
C420 C 0.72544 0.49822 0.27848 0.0
H421 H 0.70803 0.39999 0.2123 0.0
H422 H 0.70121 0.41556 0.28201 0.0
C423 C 0.73422 0.54167 0.25246 0.0
C424 C 0.95222 0.27568 0.70288 0.0
C425 C 0.00057 0.25582 0.68843 0.0
H426 H 0.90136 0.28076 0.75267 0.0
C427 C 0.04293 0.24678 0.71545 0.0
H428 H 0.91856 0.28158 0.68275 0.0
C429 C 0.03413 0.24979 0.75683 0.0
C430 C 0.98252 0.26058 0.77116 0.0
H431 H 0.08049 0.23068 0.7049 0.0
H432 H 0.06613 0.23907 0.77725 0.0
C433 C 0.94226 0.27474 0.74354 0.0
C434 C 0.26922 0.93961 0.72088 0.0
C435 C 0.25704 0.98121 0.69388 0.0
H436 H 0.27619 0.91446 0.78133 0.0
C437 C 0.24963 0.03311 0.70888 0.0
H438 H 0.27299 0.89865 0.71118 0.0
C439 C 0.24796 0.0413 0.75038 0.0
C440 C 0.2551 -0.00203 0.77681 0.0
H441 H 0.24051 0.06608 0.6889 0.0
H442 H 0.23438 0.07956 0.76152 0.0
C443 C 0.2716 0.94876 0.76161 0.0
C444 C 0.44994 0.24584 0.75278 0.0
C445 C 0.49842 0.25073 0.7742 0.0
H446 H 0.41312 0.23747 0.69451 0.0
C447 C 0.54654 0.24963 0.7529 0.0
H448 H 0.41205 0.24676 0.76829 0.0
C449 C 0.5472 0.23816 0.71276 0.0
C450 C 0.49969 0.23556 0.69044 0.0
H451 H 0.58489 0.25478 0.76762 0.0
H452 H 0.58603 0.23331 0.69903 0.0
C453 C 0.45057 0.2396 0.7108 0.0
C454 C 0.26839 0.54558 0.74557 0.0
C455 C 0.25662 0.50373 0.77237 0.0
H456 H 0.27509 0.57111 0.68524 0.0
C457 C 0.24964 0.45185 0.75715 0.0
H458 H 0.27182 0.58652 0.75541 0.0
C459 C 0.24817 0.44382 0.71562 0.0
C460 C 0.25511 0.48731 0.68935 0.0
H461 H 0.24073 0.41871 0.77697 0.0
H462 H 0.23502 0.40548 0.70426 0.0
C463 C 0.27081 0.53668 0.70482 0.0
C464 C 0.95005 0.52316 -0.00309 0.0
C465 C 0.00219 0.54187 0.00309 0.0
H466 H 0.90107 0.46049 0.97378 0.0
C467 C 0.04585 0.51098 -0.00963 0.0
H468 H 0.9158 0.5456 0.00733 0.0
C469 C 0.03759 0.46174 0.97223 0.0
C470 C 0.98549 0.44302 0.96602 0.0
H471 H 0.08657 0.52442 -0.00481 0.0
H472 H 0.07187 0.43937 0.9618 0.0
C473 C 0.94177 0.47391 0.9787 0.0
C474 C 0.01631 0.93832 -0.01633 0.0
C475 C 0.04604 0.98319 0.97139 0.0
H476 H 0.94337 0.90956 0.00915 0.0
C477 C 0.02365 0.03434 0.97475 0.0
H478 H 0.03232 0.89828 0.98065 0.0
C479 C 0.9722 0.0405 -0.01057 0.0
C480 C 0.94259 -0.00421 0.00206 0.0
H481 H 0.0449 0.06953 0.96448 0.0
H482 H 0.95615 0.08061 -0.00804 0.0
C483 C 0.96485 0.94456 -0.00121 0.0
C484 C 0.53402 0.96652 -0.01317 0.0
C485 C 0.48367 0.942 -0.01125 0.0
H486 H 0.57806 0.03663 0.97146 0.0
C487 C 0.43826 0.97004 0.97529 0.0
H488 H 0.56954 0.94646 -0.00203 0.0
C489 C 0.44289 0.02227 0.96123 0.0
C490 C 0.49315 0.04695 0.95977 0.0
H491 H 0.3988 0.95229 0.97704 0.0
H492 H 0.40741 0.0426 0.95035 0.0
C493 C 0.53864 0.01872 0.97283 0.0
C494 C 0.46183 0.44973 0.97064 0.0
C495 C 0.44118 0.50136 0.96548 0.0
H496 H 0.52608 0.40223 -0.00657 0.0
C497 C 0.47044 0.54566 0.97929 0.0
H498 H 0.44077 0.41509 0.95924 0.0
C499 C 0.51979 0.53852 -0.00215 0.0
C500 C 0.54021 0.48689 0.00335 0.0
H501 H 0.45557 0.58602 0.97514 0.0
H502 H 0.54083 0.57318 0.00923 0.0
C503 C 0.51119 0.44258 -0.01077 0.0
C504 C 0.04436 0.96906 0.48123 0.0
C505 C 1e-05 0.93733 0.47094 0.0
H506 H 0.07237 0.04481 0.50164 0.0
C507 C 0.94848 0.95932 0.47318 0.0
H508 H 0.08469 0.9535 0.4791 0.0
C509 C 0.94156 0.01219 0.48503 0.0
C510 C 0.98595 0.04381 0.49545 0.0
H511 H 0.91361 0.93641 0.46441 0.0
H512 H 0.90126 0.02779 0.48728 0.0
C513 C 0.03746 0.02192 0.49292 0.0
C514 C 0.51402 0.04655 0.48434 0.0
C515 C 0.54443 0.00254 0.47159 0.0
H516 H 0.4406 0.07345 0.50996 0.0
C517 C 0.52317 0.95087 0.475 0.0
H518 H 0.52926 0.08695 0.48146 0.0
C519 C 0.47189 0.94343 0.4898 0.0
C520 C 0.44132 0.98736 0.50234 0.0
H521 H 0.54504 0.91631 0.46449 0.0
H522 H 0.45658 0.90299 0.49218 0.0
C523 C 0.46273 0.03904 0.49948 0.0
C524 C 0.54085 0.47055 0.4949 0.0
C525 C 0.49659 0.43994 0.50696 0.0
H526 H 0.5686 0.54466 0.47082 0.0
C527 C 0.44518 0.46197 0.50441 0.0
H528 H 0.58107 0.4546 0.497 0.0
C529 C 0.43823 0.51413 0.49069 0.0
C530 C 0.48245 0.5448 0.47854 0.0
H531 H 0.41052 0.4397 0.51439 0.0
H532 H 0.39795 0.52986 0.48837 0.0
C533 C 0.5339 0.52266 0.48106 0.0
C534 C 0.96937 0.43981 0.48235 0.0
C535 C 0.93792 0.48419 0.4715 0.0
H536 H 0.04534 0.41153 0.50256 0.0
C537 C 0.96049 0.53556 0.47287 0.0
H538 H 0.95331 0.3996 0.48097 0.0
C539 C 0.01375 0.54224 0.48417 0.0
C540 C 0.04523 0.49778 0.49487 0.0
H541 H 0.93774 0.57043 0.4637 0.0
H542 H 0.02986 0.58242 0.48564 0.0
C543 C 0.02262 0.44646 0.49348 0.0
loop_
_geom_bond_atom_site_label_1
_geom_bond_atom_site_label_2
_geom_bond_distance
_geom_bond_site_symmetry_2
_ccdc_geom_bond_type
C0 O1 1.306 . S
C0 O3 1.160 . S
O1 C0 1.306 . S
O1 Cd2 2.228 . S
Cd2 O1 2.228 . S
Cd2 O6 2.273 . S
Cd2 O10 2.277 . S
O3 C0 1.160 . S
O3 Cd4 2.203 . S
Cd4 O3 2.203 . S
Cd4 O6 2.411 . S
Cd4 O7 2.333 1_455 S
Cd4 O8 2.352 . S
Cd4 O12 2.277 1_455 S
Cd4 O13 2.356 1_455 S
C5 O10 1.209 . S
C5 O12 1.226 1_455 S
O6 Cd2 2.273 . S
O6 Cd4 2.411 . S
O6 C9 1.301 1_455 S
O7 Cd4 2.333 1_655 S
O7 C9 1.227 . S
O8 Cd4 2.352 . S
O8 C11 1.258 . S
C9 O6 1.301 1_655 S
C9 O7 1.227 . S
O10 Cd2 2.277 . S
O10 C5 1.209 . S
C11 O8 1.258 . S
C11 O13 1.282 1_455 S
O12 Cd4 2.277 1_655 S
O12 C5 1.226 1_655 S
O13 Cd4 2.356 1_655 S
O13 C11 1.282 1_655 S
C14 O15 1.306 . S
C14 O17 1.160 . S
O15 C14 1.306 . S
O15 Cd16 2.228 . S
Cd16 O15 2.228 . S
Cd16 O20 2.273 . S
Cd16 O24 2.277 . S
O17 C14 1.160 . S
O17 Cd18 2.203 . S
Cd18 O17 2.203 . S
Cd18 O20 2.411 . S
Cd18 O21 2.333 1_545 S
Cd18 O22 2.352 . S
Cd18 O26 2.277 1_545 S
Cd18 O27 2.356 1_545 S
C19 O24 1.209 . S
C19 O26 1.226 1_545 S
O20 Cd16 2.273 . S
O20 Cd18 2.411 . S
O20 C23 1.301 1_545 S
O21 Cd18 2.333 1_565 S
O21 C23 1.227 . S
O22 Cd18 2.352 . S
O22 C25 1.258 . S
C23 O20 1.301 1_565 S
C23 O21 1.227 . S
O24 Cd16 2.277 . S
O24 C19 1.209 . S
C25 O22 1.258 . S
C25 O27 1.282 1_545 S
O26 Cd18 2.277 1_565 S
O26 C19 1.226 1_565 S
O27 Cd18 2.356 1_565 S
O27 C25 1.282 1_565 S
C28 O29 1.306 . S
C28 O31 1.160 . S
O29 C28 1.306 . S
O29 Cd30 2.228 . S
Cd30 O29 2.228 . S
Cd30 O34 2.273 . S
Cd30 O38 2.277 . S
O31 C28 1.160 . S
O31 Cd32 2.203 . S
Cd32 O31 2.203 . S
Cd32 O34 2.411 . S
Cd32 O35 2.333 . S
Cd32 O36 2.352 . S
Cd32 O40 2.277 . S
Cd32 O41 2.356 . S
C33 O38 1.209 . S
C33 O40 1.226 . S
O34 Cd30 2.273 . S
O34 Cd32 2.411 . S
O34 C37 1.320 . S
O35 Cd32 2.333 . S
O35 C37 1.214 . S
O36 Cd32 2.352 . S
O36 C39 1.258 . S
C37 O34 1.320 . S
C37 O35 1.214 . S
O38 Cd30 2.277 . S
O38 C33 1.209 . S
C39 O36 1.258 . S
C39 O41 1.282 . S
O40 Cd32 2.277 . S
O40 C33 1.226 . S
O41 Cd32 2.356 . S
O41 C39 1.282 . S
C42 O43 1.306 . S
C42 O45 1.160 . S
O43 C42 1.306 . S
O43 Cd44 2.228 . S
Cd44 O43 2.228 . S
Cd44 O48 2.273 . S
Cd44 O52 2.277 . S
O45 C42 1.160 . S
O45 Cd46 2.203 . S
Cd46 O45 2.203 . S
Cd46 O48 2.411 . S
Cd46 O49 2.333 . S
Cd46 O50 2.352 . S
Cd46 O54 2.277 . S
Cd46 O55 2.356 . S
C47 O52 1.209 . S
C47 O54 1.226 . S
O48 Cd44 2.273 . S
O48 Cd46 2.411 . S
O48 C51 1.320 . S
O49 Cd46 2.333 . S
O49 C51 1.214 . S
O50 Cd46 2.352 . S
O50 C53 1.258 . S
C51 O48 1.320 . S
C51 O49 1.214 . S
O52 Cd44 2.277 . S
O52 C47 1.209 . S
C53 O50 1.258 . S
C53 O55 1.282 . S
O54 Cd46 2.277 . S
O54 C47 1.226 . S
O55 Cd46 2.356 . S
O55 C53 1.282 . S
C56 O57 1.306 . S
C56 O59 1.160 . S
O57 C56 1.306 . S
O57 Cd58 2.228 . S
Cd58 O57 2.228 . S
Cd58 O62 2.273 . S
Cd58 O66 2.277 . S
O59 C56 1.160 . S
O59 Cd60 2.203 . S
Cd60 O59 2.203 . S
Cd60 O62 2.411 . S
Cd60 O63 2.333 1_455 S
Cd60 O64 2.352 . S
Cd60 O68 2.277 1_455 S
Cd60 O69 2.356 1_455 S
C61 O66 1.209 . S
C61 O68 1.226 1_455 S
O62 Cd58 2.273 . S
O62 Cd60 2.411 . S
O62 C65 1.301 1_455 S
O63 Cd60 2.333 1_655 S
O63 C65 1.227 . S
O64 Cd60 2.352 . S
O64 C67 1.258 . S
C65 O62 1.301 1_655 S
C65 O63 1.227 . S
O66 Cd58 2.277 . S
O66 C61 1.209 . S
C67 O64 1.258 . S
C67 O69 1.282 1_455 S
O68 Cd60 2.277 1_655 S
O68 C61 1.226 1_655 S
O69 Cd60 2.356 1_655 S
O69 C67 1.282 1_655 S
C70 O71 1.306 . S
C70 O73 1.160 . S
O71 C70 1.306 . S
O71 Cd72 2.228 . S
Cd72 O71 2.228 . S
Cd72 O76 2.273 . S
Cd72 O80 2.277 . S
O73 C70 1.160 . S
O73 Cd74 2.203 . S
Cd74 O73 2.203 . S
Cd74 O76 2.411 . S
Cd74 O77 2.333 1_545 S
Cd74 O78 2.352 . S
Cd74 O82 2.277 1_545 S
Cd74 O83 2.356 1_545 S
C75 O80 1.209 . S
C75 O82 1.226 1_545 S
O76 Cd72 2.273 . S
O76 Cd74 2.411 . S
O76 C79 1.301 1_545 S
O77 Cd74 2.333 1_565 S
O77 C79 1.227 . S
O78 Cd74 2.352 . S
O78 C81 1.258 . S
C79 O76 1.301 1_565 S
C79 O77 1.227 . S
O80 Cd72 2.277 . S
O80 C75 1.209 . S
C81 O78 1.258 . S
C81 O83 1.282 1_545 S
O82 Cd74 2.277 1_565 S
O82 C75 1.226 1_565 S
O83 Cd74 2.356 1_565 S
O83 C81 1.282 1_565 S
C84 O85 1.306 . S
C84 O87 1.160 . S
O85 C84 1.306 . S
O85 Cd86 2.228 . S
Cd86 O85 2.228 . S
Cd86 O90 2.273 . S
Cd86 O94 2.277 . S
O87 C84 1.160 . S
O87 Cd88 2.203 . S
Cd88 O87 2.203 . S
Cd88 O90 2.411 . S
Cd88 O91 2.333 . S
Cd88 O92 2.352 . S
Cd88 O96 2.277 . S
Cd88 O97 2.356 . S
C89 O94 1.209 . S
C89 O96 1.226 . S
O90 Cd86 2.273 . S
O90 Cd88 2.411 . S
O90 C93 1.320 . S
O91 Cd88 2.333 . S
O91 C93 1.214 . S
O92 Cd88 2.352 . S
O92 C95 1.258 . S
C93 O90 1.320 . S
C93 O91 1.214 . S
O94 Cd86 2.277 . S
O94 C89 1.209 . S
C95 O92 1.258 . S
C95 O97 1.282 . S
O96 Cd88 2.277 . S
O96 C89 1.226 . S
O97 Cd88 2.356 . S
O97 C95 1.282 . S
C98 O99 1.306 . S
C98 O101 1.160 . S
O99 C98 1.306 . S
O99 Cd100 2.228 . S
Cd100 O99 2.228 . S
Cd100 O104 2.273 . S
Cd100 O108 2.277 . S
O101 C98 1.160 . S
O101 Cd102 2.203 . S
Cd102 O101 2.203 . S
Cd102 O104 2.411 . S
Cd102 O105 2.333 . S
Cd102 O106 2.352 . S
Cd102 O110 2.277 . S
Cd102 O111 2.356 . S
C103 O108 1.209 . S
C103 O110 1.226 . S
O104 Cd100 2.273 . S
O104 Cd102 2.411 . S
O104 C107 1.320 . S
O105 Cd102 2.333 . S
O105 C107 1.214 . S
O106 Cd102 2.352 . S
O106 C109 1.258 . S
C107 O104 1.320 . S
C107 O105 1.214 . S
O108 Cd100 2.277 . S
O108 C103 1.209 . S
C109 O106 1.258 . S
C109 O111 1.282 . S
O110 Cd102 2.277 . S
O110 C103 1.226 . S
O111 Cd102 2.356 . S
O111 C109 1.282 . S
C112 O113 1.306 . S
C112 O115 1.160 . S
O113 C112 1.306 . S
O113 Cd114 2.228 . S
Cd114 O113 2.228 . S
Cd114 O118 2.273 . S
Cd114 O122 2.277 . S
O115 C112 1.160 . S
O115 Cd116 2.203 . S
Cd116 O115 2.203 . S
Cd116 O118 2.411 . S
Cd116 O119 2.333 1_655 S
Cd116 O120 2.352 . S
Cd116 O124 2.277 1_655 S
Cd116 O125 2.356 1_655 S
C117 O122 1.209 . S
C117 O124 1.226 1_655 S
O118 Cd114 2.273 . S
O118 Cd116 2.411 . S
O118 C121 1.301 1_655 S
O119 Cd116 2.333 1_455 S
O119 C121 1.227 . S
O120 Cd116 2.352 . S
O120 C123 1.258 . S
C121 O118 1.301 1_455 S
C121 O119 1.227 . S
O122 Cd114 2.277 . S
O122 C117 1.209 . S
C123 O120 1.258 . S
C123 O125 1.282 1_655 S
O124 Cd116 2.277 1_455 S
O124 C117 1.226 1_455 S
O125 Cd116 2.356 1_455 S
O125 C123 1.282 1_455 S
C126 O127 1.306 . S
C126 O129 1.160 . S
O127 C126 1.306 . S
O127 Cd128 2.228 . S
Cd128 O127 2.228 . S
Cd128 O132 2.273 . S
Cd128 O136 2.277 . S
O129 C126 1.160 . S
O129 Cd130 2.203 . S
Cd130 O129 2.203 . S
Cd130 O132 2.411 . S
Cd130 O133 2.333 1_565 S
Cd130 O134 2.352 . S
Cd130 O138 2.277 1_565 S
Cd130 O139 2.356 1_565 S
C131 O136 1.209 . S
C131 O138 1.226 1_565 S
O132 Cd128 2.273 . S
O132 Cd130 2.411 . S
O132 C135 1.301 1_565 S
O133 Cd130 2.333 1_545 S
O133 C135 1.227 . S
O134 Cd130 2.352 . S
O134 C137 1.258 . S
C135 O132 1.301 1_545 S
C135 O133 1.227 . S
O136 Cd128 2.277 . S
O136 C131 1.209 . S
C137 O134 1.258 . S
C137 O139 1.282 1_565 S
O138 Cd130 2.277 1_545 S
O138 C131 1.226 1_545 S
O139 Cd130 2.356 1_545 S
O139 C137 1.282 1_545 S
C140 O141 1.306 . S
C140 O143 1.160 . S
O141 C140 1.306 . S
O141 Cd142 2.228 . S
Cd142 O141 2.228 . S
Cd142 O146 2.273 . S
Cd142 O150 2.277 . S
O143 C140 1.160 . S
O143 Cd144 2.203 . S
Cd144 O143 2.203 . S
Cd144 O146 2.411 . S
Cd144 O147 2.333 . S
Cd144 O148 2.352 . S
Cd144 O152 2.277 . S
Cd144 O153 2.356 . S
C145 O150 1.209 . S
C145 O152 1.226 . S
O146 Cd142 2.273 . S
O146 Cd144 2.411 . S
O146 C149 1.320 . S
O147 Cd144 2.333 . S
O147 C149 1.214 . S
O148 Cd144 2.352 . S
O148 C151 1.258 . S
C149 O146 1.320 . S
C149 O147 1.214 . S
O150 Cd142 2.277 . S
O150 C145 1.209 . S
C151 O148 1.258 . S
C151 O153 1.282 . S
O152 Cd144 2.277 . S
O152 C145 1.226 . S
O153 Cd144 2.356 . S
O153 C151 1.282 . S
C154 O155 1.306 . S
C154 O157 1.160 . S
O155 C154 1.306 . S
O155 Cd156 2.228 . S
Cd156 O155 2.228 . S
Cd156 O160 2.273 . S
Cd156 O164 2.277 . S
O157 C154 1.160 . S
O157 Cd158 2.203 . S
Cd158 O157 2.203 . S
Cd158 O160 2.411 . S
Cd158 O161 2.333 . S
Cd158 O162 2.352 . S
Cd158 O166 2.277 . S
Cd158 O167 2.356 . S
C159 O164 1.209 . S
C159 O166 1.226 . S
O160 Cd156 2.273 . S
O160 Cd158 2.411 . S
O160 C163 1.320 . S
O161 Cd158 2.333 . S
O161 C163 1.214 . S
O162 Cd158 2.352 . S
O162 C165 1.258 . S
C163 O160 1.320 . S
C163 O161 1.214 . S
O164 Cd156 2.277 . S
O164 C159 1.209 . S
C165 O162 1.258 . S
C165 O167 1.282 . S
O166 Cd158 2.277 . S
O166 C159 1.226 . S
O167 Cd158 2.356 . S
O167 C165 1.282 . S
C168 O169 1.306 . S
C168 O171 1.160 . S
O169 C168 1.306 . S
O169 Cd170 2.228 . S
Cd170 O169 2.228 . S
Cd170 O174 2.273 . S
Cd170 O178 2.277 . S
O171 C168 1.160 . S
O171 Cd172 2.203 . S
Cd172 O171 2.203 . S
Cd172 O174 2.411 . S
Cd172 O175 2.333 1_655 S
Cd172 O176 2.352 . S
Cd172 O180 2.277 1_655 S
Cd172 O181 2.356 1_655 S
C173 O178 1.209 . S
C173 O180 1.226 1_655 S
O174 Cd170 2.273 . S
O174 Cd172 2.411 . S
O174 C177 1.301 1_655 S
O175 Cd172 2.333 1_455 S
O175 C177 1.227 . S
O176 Cd172 2.352 . S
O176 C179 1.258 . S
C177 O174 1.301 1_455 S
C177 O175 1.227 . S
O178 Cd170 2.277 . S
O178 C173 1.209 . S
C179 O176 1.258 . S
C179 O181 1.282 1_655 S
O180 Cd172 2.277 1_455 S
O180 C173 1.226 1_455 S
O181 Cd172 2.356 1_455 S
O181 C179 1.282 1_455 S
C182 O183 1.306 . S
C182 O185 1.160 . S
O183 C182 1.306 . S
O183 Cd184 2.228 . S
Cd184 O183 2.228 . S
Cd184 O188 2.273 . S
Cd184 O192 2.277 . S
O185 C182 1.160 . S
O185 Cd186 2.203 . S
Cd186 O185 2.203 . S
Cd186 O188 2.411 . S
Cd186 O189 2.333 1_565 S
Cd186 O190 2.352 . S
Cd186 O194 2.277 1_565 S
Cd186 O195 2.356 1_565 S
C187 O192 1.209 . S
C187 O194 1.226 1_565 S
O188 Cd184 2.273 . S
O188 Cd186 2.411 . S
O188 C191 1.301 1_565 S
O189 Cd186 2.333 1_545 S
O189 C191 1.227 . S
O190 Cd186 2.352 . S
O190 C193 1.258 . S
C191 O188 1.301 1_545 S
C191 O189 1.227 . S
O192 Cd184 2.277 . S
O192 C187 1.209 . S
C193 O190 1.258 . S
C193 O195 1.282 1_565 S
O194 Cd186 2.277 1_545 S
O194 C187 1.226 1_545 S
O195 Cd186 2.356 1_545 S
O195 C193 1.282 1_545 S
C196 O197 1.306 . S
C196 O199 1.160 . S
O197 C196 1.306 . S
O197 Cd198 2.228 . S
Cd198 O197 2.228 . S
Cd198 O202 2.273 . S
Cd198 O206 2.277 . S
O199 C196 1.160 . S
O199 Cd200 2.203 . S
Cd200 O199 2.203 . S
Cd200 O202 2.411 . S
Cd200 O203 2.333 . S
Cd200 O204 2.352 . S
Cd200 O208 2.277 . S
Cd200 O209 2.356 . S
C201 O206 1.209 . S
C201 O208 1.226 . S
O202 Cd198 2.273 . S
O202 Cd200 2.411 . S
O202 C205 1.320 . S
O203 Cd200 2.333 . S
O203 C205 1.214 . S
O204 Cd200 2.352 . S
O204 C207 1.258 . S
C205 O202 1.320 . S
C205 O203 1.214 . S
O206 Cd198 2.277 . S
O206 C201 1.209 . S
C207 O204 1.258 . S
C207 O209 1.282 . S
O208 Cd200 2.277 . S
O208 C201 1.226 . S
O209 Cd200 2.356 . S
O209 C207 1.282 . S
C210 O211 1.306 . S
C210 O213 1.160 . S
O211 C210 1.306 . S
O211 Cd212 2.228 . S
Cd212 O211 2.228 . S
Cd212 O216 2.273 . S
Cd212 O220 2.277 . S
O213 C210 1.160 . S
O213 Cd214 2.203 . S
Cd214 O213 2.203 . S
Cd214 O216 2.411 . S
Cd214 O217 2.333 . S
Cd214 O218 2.352 . S
Cd214 O222 2.277 . S
Cd214 O223 2.356 . S
C215 O220 1.209 . S
C215 O222 1.226 . S
O216 Cd212 2.273 . S
O216 Cd214 2.411 . S
O216 C219 1.320 . S
O217 Cd214 2.333 . S
O217 C219 1.214 . S
O218 Cd214 2.352 . S
O218 C221 1.258 . S
C219 O216 1.320 . S
C219 O217 1.214 . S
O220 Cd212 2.277 . S
O220 C215 1.209 . S
C221 O218 1.258 . S
C221 O223 1.282 . S
O222 Cd214 2.277 . S
O222 C215 1.226 . S
O223 Cd214 2.356 . S
O223 C221 1.282 . S
C224 C225 1.387 . S
C224 H228 0.950 . S
C224 C233 1.390 . S
C225 C224 1.387 . S
C225 C227 1.387 . S
H226 C233 0.950 . S
C227 C225 1.387 . S
C227 C229 1.390 . S
C227 H231 0.950 . S
H228 C224 0.950 . S
C229 C227 1.390 . S
C229 C230 1.387 . S
C229 H232 0.950 . S
C230 C229 1.387 . S
C230 C233 1.387 . S
H231 C227 0.950 . S
H232 C229 0.950 . S
C233 C224 1.390 . S
C233 H226 0.950 . S
C233 C230 1.387 . S
C234 C235 1.387 . S
C234 H238 0.950 . S
C234 C243 1.390 . S
C235 C234 1.387 . S
C235 C237 1.387 . S
H236 C243 0.950 . S
C237 C235 1.387 . S
C237 C239 1.390 . S
C237 H241 0.950 . S
H238 C234 0.950 . S
C239 C237 1.390 . S
C239 C240 1.387 . S
C239 H242 0.950 . S
C240 C239 1.387 . S
C240 C243 1.387 . S
H241 C237 0.950 . S
H242 C239 0.950 . S
C243 C234 1.390 . S
C243 H236 0.950 . S
C243 C240 1.387 . S
C244 C245 1.387 . S
C244 H248 0.950 . S
C244 C253 1.390 . S
C245 C244 1.387 . S
C245 C247 1.387 . S
H246 C253 0.950 . S
C247 C245 1.387 . S
C247 C249 1.390 . S
C247 H251 0.950 . S
H248 C244 0.950 . S
C249 C247 1.390 . S
C249 C250 1.387 . S
C249 H252 0.950 . S
C250 C249 1.387 . S
C250 C253 1.387 . S
H251 C247 0.950 . S
H252 C249 0.950 . S
C253 C244 1.390 . S
C253 H246 0.950 . S
C253 C250 1.387 . S
C254 C255 1.387 . S
C254 H258 0.950 . S
C254 C263 1.390 . S
C255 C254 1.387 . S
C255 C257 1.387 . S
H256 C263 0.950 . S
C257 C255 1.387 . S
C257 C259 1.390 . S
C257 H261 0.950 . S
H258 C254 0.950 . S
C259 C257 1.390 . S
C259 C260 1.387 . S
C259 H262 0.950 . S
C260 C259 1.387 . S
C260 C263 1.387 . S
H261 C257 0.950 . S
H262 C259 0.950 . S
C263 C254 1.390 . S
C263 H256 0.950 . S
C263 C260 1.387 . S
C264 C265 1.387 . S
C264 H268 0.950 . S
C264 C273 1.390 . S
C265 C264 1.387 . S
C265 C267 1.387 . S
H266 C273 0.950 . S
C267 C265 1.387 . S
C267 C269 1.390 . S
C267 H271 0.950 . S
H268 C264 0.950 . S
C269 C267 1.390 . S
C269 C270 1.387 . S
C269 H272 0.950 . S
C270 C269 1.387 . S
C270 C273 1.387 . S
H271 C267 0.950 . S
H272 C269 0.950 . S
C273 C264 1.390 . S
C273 H266 0.950 . S
C273 C270 1.387 . S
C274 C275 1.387 . S
C274 H278 0.950 . S
C274 C283 1.390 . S
C275 C274 1.387 . S
C275 C277 1.387 . S
H276 C283 0.950 . S
C277 C275 1.387 . S
C277 C279 1.390 . S
C277 H281 0.950 . S
H278 C274 0.950 . S
C279 C277 1.390 . S
C279 C280 1.387 . S
C279 H282 0.950 . S
C280 C279 1.387 . S
C280 C283 1.387 . S
H281 C277 0.950 . S
H282 C279 0.950 . S
C283 C274 1.390 . S
C283 H276 0.950 . S
C283 C280 1.387 . S
C284 C285 1.387 . S
C284 H288 0.950 . S
C284 C293 1.390 . S
C285 C284 1.387 . S
C285 C287 1.387 . S
H286 C293 0.950 . S
C287 C285 1.387 . S
C287 C289 1.390 . S
C287 H291 0.950 . S
H288 C284 0.950 . S
C289 C287 1.390 . S
C289 C290 1.387 . S
C289 H292 0.950 . S
C290 C289 1.387 . S
C290 C293 1.387 . S
H291 C287 0.950 . S
H292 C289 0.950 . S
C293 C284 1.390 . S
C293 H286 0.950 . S
C293 C290 1.387 . S
C294 C295 1.387 . S
C294 H298 0.950 . S
C294 C303 1.390 . S
C295 C294 1.387 . S
C295 C297 1.387 . S
H296 C303 0.950 . S
C297 C295 1.387 . S
C297 C299 1.390 . S
C297 H301 0.950 . S
H298 C294 0.950 . S
C299 C297 1.390 . S
C299 C300 1.387 . S
C299 H302 0.950 . S
C300 C299 1.387 . S
C300 C303 1.387 . S
H301 C297 0.950 . S
H302 C299 0.950 . S
C303 C294 1.390 . S
C303 H296 0.950 . S
C303 C300 1.387 . S
C304 C305 1.387 . S
C304 H308 0.950 . S
C304 C313 1.390 . S
C305 C304 1.387 . S
C305 C307 1.387 . S
H306 C313 0.950 . S
C307 C305 1.387 . S
C307 C309 1.390 1_655 S
C307 H311 0.950 1_655 S
H308 C304 0.950 . S
C309 C307 1.390 1_455 S
C309 C310 1.387 1_455 S
C309 H312 0.950 . S
C310 C309 1.387 1_655 S
C310 C313 1.387 . S
H311 C307 0.950 1_455 S
H312 C309 0.950 . S
C313 C304 1.390 . S
C313 H306 0.950 . S
C313 C310 1.387 . S
C314 C315 1.387 1_545 S
C314 H318 0.950 . S
C314 C323 1.390 1_545 S
C315 C314 1.387 1_565 S
C315 C317 1.387 . S
H316 C323 0.950 1_545 S
C317 C315 1.387 . S
C317 C319 1.390 . S
C317 H321 0.950 . S
H318 C314 0.950 . S
C319 C317 1.390 . S
C319 C320 1.387 . S
C319 H322 0.950 . S
C320 C319 1.387 . S
C320 C323 1.387 . S
H321 C317 0.950 . S
H322 C319 0.950 . S
C323 C314 1.390 1_565 S
C323 H316 0.950 1_565 S
C323 C320 1.387 . S
C324 C325 1.387 1_545 S
C324 H328 0.950 . S
C324 C333 1.390 1_545 S
C325 C324 1.387 1_565 S
C325 C327 1.387 . S
H326 C333 0.950 1_545 S
C327 C325 1.387 . S
C327 C329 1.390 . S
C327 H331 0.950 . S
H328 C324 0.950 . S
C329 C327 1.390 . S
C329 C330 1.387 . S
C329 H332 0.950 . S
C330 C329 1.387 . S
C330 C333 1.387 . S
H331 C327 0.950 . S
H332 C329 0.950 . S
C333 C324 1.390 1_565 S
C333 H326 0.950 1_565 S
C333 C330 1.387 . S
C334 C335 1.387 . S
C334 H338 0.950 . S
C334 C343 1.390 . S
C335 C334 1.387 . S
C335 C337 1.387 . S
H336 C343 0.950 . S
C337 C335 1.387 . S
C337 C339 1.390 . S
C337 H341 0.950 . S
H338 C334 0.950 . S
C339 C337 1.390 . S
C339 C340 1.387 . S
C339 H342 0.950 . S
C340 C339 1.387 . S
C340 C343 1.387 . S
H341 C337 0.950 . S
H342 C339 0.950 . S
C343 C334 1.390 . S
C343 H336 0.950 . S
C343 C340 1.387 . S
C344 C345 1.387 . S
C344 H348 0.950 . S
C344 C353 1.390 . S
C345 C344 1.387 . S
C345 C347 1.387 . S
H346 C353 0.950 . S
C347 C345 1.387 . S
C347 C349 1.390 1_455 S
C347 H351 0.950 1_455 S
H348 C344 0.950 . S
C349 C347 1.390 1_655 S
C349 C350 1.387 1_655 S
C349 H352 0.950 . S
C350 C349 1.387 1_455 S
C350 C353 1.387 . S
H351 C347 0.950 1_655 S
H352 C349 0.950 . S
C353 C344 1.390 . S
C353 H346 0.950 . S
C353 C350 1.387 . S
C354 C355 1.387 1_565 S
C354 H358 0.950 . S
C354 C363 1.390 1_565 S
C355 C354 1.387 1_545 S
C355 C357 1.387 . S
H356 C363 0.950 1_665 S
C357 C355 1.387 . S
C357 C359 1.390 . S
C357 H361 0.950 . S
H358 C354 0.950 . S
C359 C357 1.390 . S
C359 C360 1.387 . S
C359 H362 0.950 . S
C360 C359 1.387 . S
C360 C363 1.387 . S
H361 C357 0.950 . S
H362 C359 0.950 . S
C363 C354 1.390 1_545 S
C363 H356 0.950 1_445 S
C363 C360 1.387 . S
C364 C365 1.387 . S
C364 H368 0.950 . S
C364 C373 1.390 . S
C365 C364 1.387 . S
C365 C367 1.387 . S
H366 C373 0.950 . S
C367 C365 1.387 . S
C367 C369 1.387 1_545 S
C367 H371 0.950 . S
H368 C364 0.950 . S
C369 C367 1.387 1_565 S
C369 C370 1.385 1_565 S
C369 H372 0.956 . S
C370 C369 1.385 1_545 S
C370 C373 1.387 . S
H371 C367 0.950 . S
H372 C369 0.956 . S
C373 C364 1.390 . S
C373 H366 0.950 . S
C373 C370 1.387 . S
C374 C375 1.387 . S
C374 H378 0.950 . S
C374 C383 1.390 . S
C375 C374 1.387 . S
C375 C377 1.387 . S
H376 C383 0.950 . S
C377 C375 1.387 . S
C377 C379 1.390 . S
C377 H381 0.950 . S
H378 C374 0.950 . S
C379 C377 1.390 . S
C379 C380 1.387 . S
C379 H382 0.950 . S
C380 C379 1.387 . S
C380 C383 1.387 . S
H381 C377 0.950 . S
H382 C379 0.950 . S
C383 C374 1.390 . S
C383 H376 0.950 . S
C383 C380 1.387 . S
C384 C385 1.387 1_655 S
C384 H388 0.950 . S
C384 C393 1.390 . S
C385 C384 1.387 1_455 S
C385 C387 1.387 . S
H386 C393 0.950 . S
C387 C385 1.387 . S
C387 C389 1.390 . S
C387 H391 0.950 . S
H388 C384 0.950 . S
C389 C387 1.390 . S
C389 C390 1.387 . S
C389 H392 0.950 . S
C390 C389 1.387 . S
C390 C393 1.387 1_455 S
H391 C387 0.950 . S
H392 C389 0.950 . S
C393 C384 1.390 . S
C393 H386 0.950 . S
C393 C390 1.387 1_655 S
C394 C395 1.387 1_565 S
C394 H398 0.950 . S
C394 C403 1.390 . S
C395 C394 1.387 1_545 S
C395 C397 1.387 . S
H396 C403 0.950 . S
C397 C395 1.387 . S
C397 C399 1.390 . S
C397 H401 0.950 . S
H398 C394 0.950 . S
C399 C397 1.390 . S
C399 C400 1.387 . S
C399 H402 0.950 . S
C400 C399 1.387 . S
C400 C403 1.387 1_545 S
H401 C397 0.950 . S
H402 C399 0.950 . S
C403 C394 1.390 . S
C403 H396 0.950 . S
C403 C400 1.387 1_565 S
C404 C405 1.387 . S
C404 H408 0.950 . S
C404 C413 1.390 . S
C405 C404 1.387 . S
C405 C407 1.387 . S
H406 C413 0.950 . S
C407 C405 1.387 . S
C407 C409 1.390 . S
C407 H411 0.950 . S
H408 C404 0.950 . S
C409 C407 1.390 . S
C409 C410 1.387 . S
C409 H412 0.950 . S
C410 C409 1.387 . S
C410 C413 1.387 . S
H411 C407 0.950 . S
H412 C409 0.950 . S
C413 C404 1.390 . S
C413 H406 0.950 . S
C413 C410 1.387 . S
C414 C415 1.387 . S
C414 H418 0.950 . S
C414 C423 1.390 . S
C415 C414 1.387 . S
C415 C417 1.387 . S
H416 C423 0.950 . S
C417 C415 1.387 . S
C417 C419 1.390 . S
C417 H421 0.950 . S
H418 C414 0.950 . S
C419 C417 1.390 . S
C419 C420 1.387 . S
C419 H422 0.950 . S
C420 C419 1.387 . S
C420 C423 1.387 . S
H421 C417 0.950 . S
H422 C419 0.950 . S
C423 C414 1.390 . S
C423 H416 0.950 . S
C423 C420 1.387 . S
C424 C425 1.387 . S
C424 H428 0.950 . S
C424 C433 1.390 . S
C425 C424 1.387 . S
C425 C427 1.387 1_655 S
H426 C433 0.950 . S
C427 C425 1.387 1_455 S
C427 C429 1.390 . S
C427 H431 0.950 . S
H428 C424 0.950 . S
C429 C427 1.390 . S
C429 C430 1.387 1_455 S
C429 H432 0.950 . S
C430 C429 1.387 1_655 S
C430 C433 1.387 . S
H431 C427 0.950 . S
H432 C429 0.950 . S
C433 C424 1.390 . S
C433 H426 0.950 . S
C433 C430 1.387 . S
C434 C435 1.387 . S
C434 H438 0.950 . S
C434 C443 1.390 . S
C435 C434 1.387 . S
C435 C437 1.387 1_565 S
H436 C443 0.950 . S
C437 C435 1.387 1_545 S
C437 C439 1.390 . S
C437 H441 0.950 . S
H438 C434 0.950 . S
C439 C437 1.390 . S
C439 C440 1.387 1_545 S
C439 H442 0.950 . S
C440 C439 1.387 1_565 S
C440 C443 1.387 . S
H441 C437 0.950 . S
H442 C439 0.950 . S
C443 C434 1.390 . S
C443 H436 0.950 . S
C443 C440 1.387 . S
C444 C445 1.387 . S
C444 H448 0.950 . S
C444 C453 1.390 . S
C445 C444 1.387 . S
C445 C447 1.387 . S
H446 C453 0.950 . S
C447 C445 1.387 . S
C447 C449 1.390 . S
C447 H451 0.950 . S
H448 C444 0.950 . S
C449 C447 1.390 . S
C449 C450 1.387 . S
C449 H452 0.950 . S
C450 C449 1.387 . S
C450 C453 1.387 . S
H451 C447 0.950 . S
H452 C449 0.950 . S
C453 C444 1.390 . S
C453 H446 0.950 . S
C453 C450 1.387 . S
C454 C455 1.387 . S
C454 H458 0.950 . S
C454 C463 1.390 . S
C455 C454 1.387 . S
C455 C457 1.387 . S
H456 C463 0.950 . S
C457 C455 1.387 . S
C457 C459 1.390 . S
C457 H461 0.950 . S
H458 C454 0.950 . S
C459 C457 1.390 . S
C459 C460 1.387 . S
C459 H462 0.950 . S
C460 C459 1.387 . S
C460 C463 1.387 . S
H461 C457 0.950 . S
H462 C459 0.950 . S
C463 C454 1.390 . S
C463 H456 0.950 . S
C463 C460 1.387 . S
C464 C465 1.390 . S
C464 H468 0.950 . S
C464 C473 1.390 1_554 S
C465 C464 1.390 . S
C465 C467 1.385 1_655 S
H466 C473 0.950 . S
C467 C465 1.385 1_455 S
C467 C469 1.390 1_554 S
C467 H471 0.950 . S
H468 C464 0.950 . S
C469 C467 1.390 1_556 S
C469 C470 1.390 . S
C469 H472 0.950 . S
C470 C469 1.390 . S
C470 C473 1.385 1_455 S
H471 C467 0.950 . S
H472 C469 0.950 . S
C473 C464 1.390 1_556 S
C473 H466 0.950 . S
C473 C470 1.385 1_655 S
C474 C475 1.385 1_565 S
C474 H478 0.950 . S
C474 C483 1.390 1_456 S
C475 C474 1.385 1_545 S
C475 C477 1.390 . S
H476 C483 0.950 . S
C477 C475 1.390 . S
C477 C479 1.390 1_456 S
C477 H481 0.950 . S
H478 C474 0.950 . S
C479 C477 1.390 1_654 S
C479 C480 1.385 1_545 S
C479 H482 0.950 . S
C480 C479 1.385 1_565 S
C480 C483 1.390 . S
H481 C477 0.950 . S
H482 C479 0.950 . S
C483 C474 1.390 1_654 S
C483 H476 0.950 . S
C483 C480 1.390 . S
C484 C485 1.387 . S
C484 H488 0.950 . S
C484 C493 1.390 1_564 S
C485 C484 1.387 . S
C485 C487 1.387 . S
H486 C493 0.950 . S
C487 C485 1.387 . S
C487 C489 1.390 1_564 S
C487 H491 0.950 . S
H488 C484 0.950 . S
C489 C487 1.390 1_546 S
C489 C490 1.387 . S
C489 H492 0.950 . S
C490 C489 1.387 . S
C490 C493 1.387 . S
H491 C487 0.950 . S
H492 C489 0.950 . S
C493 C484 1.390 1_546 S
C493 H486 0.950 . S
C493 C490 1.387 . S
C494 C495 1.387 . S
C494 H498 0.950 . S
C494 C503 1.390 1_556 S
C495 C494 1.387 . S
C495 C497 1.387 . S
H496 C503 0.950 . S
C497 C495 1.387 . S
C497 C499 1.390 1_556 S
C497 H501 0.950 . S
H498 C494 0.950 . S
C499 C497 1.390 1_554 S
C499 C500 1.387 . S
C499 H502 0.950 . S
C500 C499 1.387 . S
C500 C503 1.387 . S
H501 C497 0.950 . S
H502 C499 0.950 . S
C503 C494 1.390 1_554 S
C503 H496 0.950 . S
C503 C500 1.387 . S
C504 C505 1.385 1_455 S
C504 H508 0.950 . S
C504 C513 1.390 1_565 S
C505 C504 1.385 1_655 S
C505 C507 1.390 . S
H506 C513 0.950 . S
C507 C505 1.390 . S
C507 C509 1.390 1_565 S
C507 H511 0.950 . S
H508 C504 0.950 . S
C509 C507 1.390 1_545 S
C509 C510 1.385 1_655 S
C509 H512 0.950 . S
C510 C509 1.385 1_455 S
C510 C513 1.390 . S
H511 C507 0.950 . S
H512 C509 0.950 . S
C513 C504 1.390 1_545 S
C513 H506 0.950 . S
C513 C510 1.390 . S
C514 C515 1.385 1_545 S
C514 H518 0.950 . S
C514 C523 1.390 . S
C515 C514 1.385 1_565 S
C515 C517 1.390 . S
H516 C523 0.950 . S
C517 C515 1.390 . S
C517 C519 1.390 . S
C517 H521 0.950 . S
H518 C514 0.950 . S
C519 C517 1.390 . S
C519 C520 1.385 1_565 S
C519 H522 0.950 . S
C520 C519 1.385 1_545 S
C520 C523 1.390 . S
H521 C517 0.950 . S
H522 C519 0.950 . S
C523 C514 1.390 . S
C523 H516 0.950 . S
C523 C520 1.390 . S
C524 C525 1.387 . S
C524 H528 0.950 . S
C524 C533 1.390 . S
C525 C524 1.387 . S
C525 C527 1.387 . S
H526 C533 0.950 . S
C527 C525 1.387 . S
C527 C529 1.390 . S
C527 H531 0.950 . S
H528 C524 0.950 . S
C529 C527 1.390 . S
C529 C530 1.387 . S
C529 H532 0.950 . S
C530 C529 1.387 . S
C530 C533 1.387 . S
H531 C527 0.950 . S
H532 C529 0.950 . S
C533 C524 1.390 . S
C533 H526 0.950 . S
C533 C530 1.387 . S
C534 C535 1.387 . S
C534 H538 0.950 . S
C534 C543 1.390 1_655 S
C535 C534 1.387 . S
C535 C537 1.387 . S
H536 C543 0.950 . S
C537 C535 1.387 . S
C537 C539 1.390 1_655 S
C537 H541 0.950 . S
H538 C534 0.950 . S
C539 C537 1.390 1_455 S
C539 C540 1.387 . S
C539 H542 0.950 . S
C540 C539 1.387 . S
C540 C543 1.387 . S
H541 C537 0.950 . S
H542 C539 0.950 . S
C543 C534 1.390 1_455 S
C543 H536 0.950 . S
C543 C540 1.387 . S
C225 C0 1.633 . S
C230 C28 1.633 . S
C235 C14 1.631 . S
C240 C42 1.631 . S
C245 C56 1.633 . S
C250 C84 1.633 . S
C255 C98 1.631 . S
C260 C70 1.631 . S
C265 C112 1.633 . S
C270 C140 1.633 . S
C275 C154 1.631 . S
C280 C126 1.631 . S
C285 C196 1.631 . S
C290 C168 1.631 . S
C295 C210 1.631 . S
C300 C182 1.631 . S
C305 C107 1.345 . S
C310 C9 1.350 . S
C315 C23 1.352 . S
C320 C65 1.351 . S
C325 C79 1.352 . S
C330 C37 1.345 . S
C335 C51 1.346 . S
C340 C93 1.345 . S
C345 C219 1.345 . S
C350 C121 1.352 . S
C355 C135 1.350 . S
C360 C177 1.351 . S
C365 C149 1.344 . S
C370 C191 1.352 . S
C375 C205 1.344 . S
C380 C163 1.346 . S
C385 C5 1.248 . S
C390 C61 1.248 . S
C395 C19 1.248 . S
C400 C75 1.248 . S
C405 C89 1.248 . S
C410 C33 1.248 . S
C415 C47 1.248 . S
C420 C103 1.248 . S
C425 C173 1.248 . S
C430 C117 1.248 . S
C435 C187 1.248 . S
C440 C131 1.248 . S
C445 C145 1.242 . S
C450 C201 1.242 . S
C455 C159 1.248 . S
C460 C215 1.248 . S
C465 C11 1.829 1_655 S
C470 C123 1.829 1_455 S
C475 C137 1.829 1_545 S
C480 C25 1.829 1_565 S
C485 C39 1.829 . S
C490 C151 1.829 . S
C495 C165 1.832 . S
C500 C53 1.832 . S
C505 C67 1.832 1_655 S
C510 C179 1.832 1_455 S
C515 C81 1.832 1_565 S
C520 C193 1.832 1_545 S
C525 C207 1.829 . S
C530 C95 1.829 . S
C535 C109 1.832 . S
C540 C221 1.832 . S
