# Generated by pormake.
# Topology tfs, (6)-cn, num edge types: 1
# Building blocks:
#     Node 0, Type 0, BuildingBlock: LEVNOQ01_clean_sbu_1, # of connection points: 6
#     Node 1, Type 0, BuildingBlock: LEVNOQ01_clean_sbu_1, # of connection points: 6
#     Node 2, Type 0, BuildingBlock: LEVNOQ01_clean_sbu_1, # of connection points: 6
#     Node 3, Type 0, BuildingBlock: LEVNOQ01_clean_sbu_1, # of connection points: 6
#     Node 4, Type 0, BuildingBlock: LEVNOQ01_clean_sbu_1, # of connection points: 6
#     Node 5, Type 0, BuildingBlock: LEVNOQ01_clean_sbu_1, # of connection points: 6
#     Edge 6, Type (0, 0), BuildingBlock: OJICUG_clean_linker_0, # of connection points: 2
#     Edge 7, Type (0, 0), BuildingBlock: OJICUG_clean_linker_0, # of connection points: 2
#     Edge 8, Type (0, 0), BuildingBlock: OJICUG_clean_linker_0, # of connection points: 2
#     Edge 9, Type (0, 0), BuildingBlock: OJICUG_clean_linker_0, # of connection points: 2
#     Edge 10, Type (0, 0), BuildingBlock: OJICUG_clean_linker_0, # of connection points: 2
#     Edge 11, Type (0, 0), BuildingBlock: OJICUG_clean_linker_0, # of connection points: 2
#     Edge 12, Type (0, 0), BuildingBlock: OJICUG_clean_linker_0, # of connection points: 2
#     Edge 13, Type (0, 0), BuildingBlock: OJICUG_clean_linker_0, # of connection points: 2
#     Edge 14, Type (0, 0), BuildingBlock: OJICUG_clean_linker_0, # of connection points: 2
#     Edge 15, Type (0, 0), BuildingBlock: OJICUG_clean_linker_0, # of connection points: 2
#     Edge 16, Type (0, 0), BuildingBlock: OJICUG_clean_linker_0, # of connection points: 2
#     Edge 17, Type (0, 0), BuildingBlock: OJICUG_clean_linker_0, # of connection points: 2
#     Edge 18, Type (0, 0), BuildingBlock: OJICUG_clean_linker_0, # of connection points: 2
#     Edge 19, Type (0, 0), BuildingBlock: OJICUG_clean_linker_0, # of connection points: 2
#     Edge 20, Type (0, 0), BuildingBlock: OJICUG_clean_linker_0, # of connection points: 2
#     Edge 21, Type (0, 0), BuildingBlock: OJICUG_clean_linker_0, # of connection points: 2
#     Edge 22, Type (0, 0), BuildingBlock: OJICUG_clean_linker_0, # of connection points: 2
#     Edge 23, Type (0, 0), BuildingBlock: OJICUG_clean_linker_0, # of connection points: 2
# Relax obj value: 0.217
# Max RMSD: 0.175
# Mean RMSD: 0.175
data_MOF--net-tfs--node1-LEVNOQ01_clean_sbu_1--edge1-OJICUG_clean_linker_0
_symmetry_space_group_name_H-M    P1
_symmetry_Int_Tables_number       1
_symmetry_cell_setting            triclinic
loop_
_symmetry_equiv_pos_as_xyz
'x, y, z'
_cell_length_a     31.429856
_cell_length_b     31.485603
_cell_length_c     12.028129
_cell_angle_alpha  89.473215
_cell_angle_beta   90.444854
_cell_angle_gamma 120.33035
loop_
_atom_site_label
_atom_site_type_symbol
_atom_site_fract_x
_atom_site_fract_y
_atom_site_fract_z
_atom_type_partial_charge
O0 O 0.32356 0.48317 0.08833 0.0
Mg1 Mg 0.28756 0.40737 0.11971 0.0
O2 O 0.26162 0.48504 0.00465 0.0
Mg3 Mg 0.19066 0.40634 0.00942 0.0
O4 O 0.2284 0.3618 0.02169 0.0
O5 O 0.29926 0.36726 -0.00331 0.0
O6 O 0.11883 0.32824 0.00367 0.0
O7 O 0.18913 0.40363 0.81884 0.0
Mg8 Mg 0.08885 0.40158 0.9271 0.0
O9 O 0.15297 0.45055 -0.0027 0.0
O10 O 0.05979 0.34324 0.04497 0.0
O11 O 0.11485 0.39109 0.76904 0.0
O12 O 0.09702 0.47089 0.96058 0.0
C13 C 0.21029 0.39657 0.28536 0.0
C14 C 0.30581 0.50678 0.04111 0.0
C15 C 0.25367 0.3471 0.96825 0.0
C16 C 0.07435 0.31276 0.03171 0.0
C17 C 0.15659 0.39591 0.74451 0.0
C18 C 0.14088 0.48386 -0.00573 0.0
O19 O 0.24695 0.39063 0.26837 0.0
O20 O 0.18859 0.40579 0.20556 0.0
O21 O 0.84622 0.33551 -0.00577 0.0
Mg22 Mg 0.87207 0.29374 0.07284 0.0
O23 O 0.77194 0.26982 0.00322 0.0
Mg24 Mg 0.77954 0.19861 0.98842 0.0
O25 O 0.8633 0.23543 0.98366 0.0
O26 O 0.93697 0.29995 0.02089 0.0
O27 O 0.78621 0.12632 0.97099 0.0
O28 O 0.78065 0.2067 0.79743 0.0
Mg29 Mg 0.6992 0.10933 0.90778 0.0
O30 O 0.69432 0.16182 -0.0021 0.0
O31 O 0.71343 0.0683 0.02446 0.0
O32 O 0.73776 0.12841 0.75299 0.0
O33 O 0.63696 0.11214 0.8768 0.0
C34 C 0.80786 0.22355 0.25851 0.0
C35 C 0.79996 0.31634 -0.00632 0.0
C36 C 0.91079 0.25622 0.98089 0.0
C37 C 0.75793 0.08207 0.00382 0.0
C38 C 0.76521 0.17297 0.72451 0.0
C39 C 0.65525 0.15046 0.93918 0.0
O40 O 0.84417 0.26583 0.2346 0.0
O41 O 0.78131 0.19326 0.18239 0.0
O42 O 0.50694 0.85358 0.05653 0.0
Mg43 Mg 0.58005 0.87664 0.09304 0.0
O44 O 0.49501 0.78182 -0.00017 0.0
Mg45 Mg 0.57152 0.7833 -0.00531 0.0
O46 O 0.62364 0.86769 0.98188 0.0
O47 O 0.63357 0.94091 0.02826 0.0
O48 O 0.64698 0.78334 0.98257 0.0
O49 O 0.56818 0.78288 0.80361 0.0
Mg50 Mg 0.57157 0.69073 0.91747 0.0
O51 O 0.5206 0.69903 0.00559 0.0
O52 O 0.62736 0.70916 0.0373 0.0
O53 O 0.59245 0.72987 0.76276 0.0
O54 O 0.49974 0.63559 0.89556 0.0
C55 C 0.58666 0.81461 0.27027 0.0
C56 C 0.47833 0.81011 0.02454 0.0
C57 C 0.64962 0.91545 0.97905 0.0
C58 C 0.66022 0.75313 0.01604 0.0
C59 C 0.58224 0.76249 0.73308 0.0
C60 C 0.48671 0.66199 0.95074 0.0
O61 O 0.59201 0.85659 0.25027 0.0
O62 O 0.5776 0.78389 0.19158 0.0
O63 O 0.65644 0.51102 0.09546 0.0
Mg64 Mg 0.69618 0.58736 0.10839 0.0
O65 O 0.71333 0.50419 0.00484 0.0
Mg66 Mg 0.78612 0.58165 0.00181 0.0
O67 O 0.75372 0.63191 0.00467 0.0
O68 O 0.68045 0.62206 0.97912 0.0
O69 O 0.85978 0.65839 0.98912 0.0
O70 O 0.78599 0.58202 0.81115 0.0
Mg71 Mg 0.88347 0.58295 0.92911 0.0
O72 O 0.819 0.53189 -0.00313 0.0
O73 O 0.91553 0.64116 0.04545 0.0
O74 O 0.8604 0.59449 0.76676 0.0
O75 O 0.87833 0.51556 0.96402 0.0
C76 C 0.77102 0.59748 0.27648 0.0
C77 C 0.67079 0.4848 0.04899 0.0
C78 C 0.72635 0.64534 0.95326 0.0
C79 C 0.90345 0.67294 0.02298 0.0
C80 C 0.81891 0.58976 0.73887 0.0
C81 C 0.83391 0.50055 -0.00395 0.0
O82 O 0.73694 0.60723 0.25696 0.0
O83 O 0.7899 0.58457 0.19853 0.0
O84 O 0.13349 0.64705 0.01723 0.0
Mg85 Mg 0.10132 0.68542 0.08027 0.0
O86 O 0.20703 0.71436 -0.00091 0.0
Mg87 Mg 0.1967 0.784 0.98649 0.0
O88 O 0.11319 0.74206 0.97982 0.0
O89 O 0.03806 0.68007 0.01313 0.0
O90 O 0.187 0.85374 0.9694 0.0
O91 O 0.19717 0.78038 0.79549 0.0
Mg92 Mg 0.28691 0.88454 0.89685 0.0
O93 O 0.28075 0.82801 -0.00608 0.0
O94 O 0.26023 0.91569 0.01191 0.0
O95 O 0.24586 0.85831 0.74481 0.0
O96 O 0.34548 0.87168 0.88808 0.0
C97 C 0.16653 0.7594 0.25873 0.0
C98 C 0.17961 0.66754 0.00406 0.0
C99 C 0.06608 0.72335 0.97155 0.0
C100 C 0.21457 0.89884 -0.0041 0.0
C101 C 0.21527 0.8138 0.72047 0.0
C102 C 0.31934 0.83237 0.94573 0.0
O103 O 0.12827 0.7181 0.23814 0.0
O104 O 0.19454 0.78735 0.18071 0.0
O105 O 0.45247 0.11616 0.02132 0.0
Mg106 Mg 0.38424 0.10653 0.06092 0.0
O107 O 0.47052 0.19063 0.97061 0.0
Mg108 Mg 0.39835 0.19669 0.96492 0.0
O109 O 0.33657 0.11306 0.95393 0.0
O110 O 0.32833 0.04139 0.01478 0.0
O111 O 0.32661 0.20353 0.95177 0.0
O112 O 0.40099 0.19692 0.77404 0.0
Mg113 Mg 0.41269 0.29326 0.88765 0.0
O114 O 0.46066 0.27901 0.9703 0.0
O115 O 0.35211 0.28122 0.98236 0.0
O116 O 0.4021 0.26549 0.72347 0.0
O117 O 0.47781 0.35488 0.92066 0.0
C118 C 0.38656 0.16877 0.24023 0.0
C119 C 0.48379 0.15924 -0.00822 0.0
C120 C 0.31102 0.06523 0.96153 0.0
C121 C 0.31716 0.23747 0.97283 0.0
C122 C 0.40033 0.2255 0.69879 0.0
C123 C 0.49115 0.32618 0.96634 0.0
O124 O 0.37866 0.12594 0.22174 0.0
O125 O 0.39498 0.19893 0.15999 0.0
C126 C 0.24087 0.23263 0.03756 0.0
C127 C 0.26867 0.23166 0.9482 0.0
H128 H 0.2067 0.2699 0.10785 0.0
C129 C 0.26487 0.25103 0.84517 0.0
H130 H 0.24244 0.21728 0.11746 0.0
C131 C 0.24698 0.28367 0.84134 0.0
C132 C 0.2312 0.29484 0.9397 0.0
H133 H 0.28517 0.24974 0.77406 0.0
H134 H 0.25445 0.30672 0.76824 0.0
C135 C 0.22032 0.26301 0.03159 0.0
C136 C 0.01816 0.25997 0.88965 0.0
C137 C 0.03536 0.26326 -0.00061 0.0
H138 H 0.95733 0.25232 0.79267 0.0
C139 C 0.00119 0.23449 0.08143 0.0
H140 H 0.0439 0.28051 0.82364 0.0
C141 C 0.95086 0.21534 0.06113 0.0
C142 C 0.93609 0.22853 0.96233 0.0
H143 H 0.01336 0.23503 0.1662 0.0
H144 H 0.92607 0.20165 0.13159 0.0
C145 C 0.96818 0.24352 0.87135 0.0
C146 C 0.74736 0.02309 0.86282 0.0
C147 C 0.76661 0.04253 0.96838 0.0
H148 H 0.69016 0.96 0.77961 0.0
C149 C 0.7657 0.01034 0.0508 0.0
H150 H 0.74897 0.04728 0.79626 0.0
C151 C 0.73441 0.95958 0.03781 0.0
C152 C 0.70172 0.94227 0.94677 0.0
H153 H 0.78136 0.02422 0.13216 0.0
H154 H 0.72726 0.9362 0.11024 0.0
C155 C 0.71363 0.97268 0.85265 0.0
C156 C 0.72607 0.71249 0.84854 0.0
C157 C 0.74572 0.6983 0.93669 0.0
H158 H 0.68529 0.74771 0.80548 0.0
C159 C 0.75901 0.72614 0.03502 0.0
H160 H 0.71649 0.69249 0.7709 0.0
C161 C 0.73799 0.75507 0.05786 0.0
C162 C 0.70735 0.75914 0.97853 0.0
H163 H 0.77555 0.71692 0.10356 0.0
H164 H 0.73891 0.76702 0.14248 0.0
C165 C 0.70782 0.74402 0.86907 0.0
C166 C 0.02964 0.76848 0.04311 0.0
C167 C 0.04293 0.75286 0.94701 0.0
H168 H 0.96852 0.75171 0.14896 0.0
C169 C 0.00993 0.73692 0.85703 0.0
H170 H 0.05528 0.78322 0.11227 0.0
C171 C 0.96025 0.72134 0.87601 0.0
C172 C 0.94431 0.72069 0.98533 0.0
H173 H 0.01974 0.72655 0.7799 0.0
H174 H 0.93372 0.7 0.8119 0.0
C175 C 0.97962 0.75033 0.06464 0.0
C176 C 0.21845 0.95507 0.8519 0.0
C177 C 0.20179 0.93565 0.95903 0.0
H178 H 0.27005 0.0199 0.76333 0.0
C179 C 0.20036 0.96673 0.03971 0.0
H180 H 0.21854 0.93156 0.78675 0.0
C181 C 0.22717 0.01772 0.02261 0.0
C182 C 0.25876 0.03664 0.93033 0.0
H183 H 0.18657 0.95271 0.12226 0.0
H184 H 0.23306 0.04115 0.09344 0.0
C185 C 0.24787 0.00606 0.83781 0.0
C186 C 0.19349 0.60872 0.10875 0.0
C187 C 0.19996 0.63466 0.00849 0.0
H188 H 0.16912 0.53796 0.18316 0.0
C189 C 0.20381 0.61409 0.90905 0.0
H190 H 0.19001 0.62387 0.18643 0.0
C191 C 0.19233 0.56499 0.90754 0.0
C192 C 0.17686 0.53643 0.00528 0.0
H193 H 0.20827 0.63318 0.83076 0.0
H194 H 0.18885 0.54763 0.82795 0.0
C195 C 0.18133 0.55945 0.10708 0.0
C196 C 0.56363 0.19097 0.89199 0.0
C197 C 0.53581 0.17256 -0.01075 0.0
H198 H 0.62531 0.19842 0.79993 0.0
C199 C 0.5549 0.15846 0.07919 0.0
H200 H 0.54955 0.20211 0.82198 0.0
C201 C 0.5987 0.15779 0.06797 0.0
C202 C 0.62312 0.17008 0.96577 0.0
H203 H 0.53403 0.14451 0.15541 0.0
H204 H 0.61043 0.14267 0.13482 0.0
C205 C 0.60686 0.18901 0.87969 0.0
C206 C 0.41783 0.6283 0.08562 0.0
C207 C 0.43388 0.63964 0.97538 0.0
H208 H 0.36186 0.57556 0.1936 0.0
C209 C 0.39983 0.61606 0.88858 0.0
H210 H 0.44342 0.64589 0.15379 0.0
C211 C 0.35282 0.57631 0.91127 0.0
C212 C 0.34006 0.55946 0.02085 0.0
H213 H 0.41154 0.62449 0.80272 0.0
H214 H 0.32954 0.55486 0.84266 0.0
C215 C 0.37117 0.58798 0.10824 0.0
C216 C 0.80007 0.42404 0.1073 0.0
C217 C 0.80015 0.44741 0.00772 0.0
H218 H 0.79637 0.36015 0.18103 0.0
C219 C 0.78301 0.41955 0.9099 0.0
H220 H 0.81375 0.44504 0.18325 0.0
C221 C 0.77381 0.37118 0.90804 0.0
C222 C 0.78117 0.35037 0.00441 0.0
H223 H 0.78331 0.4372 0.83188 0.0
H224 H 0.76756 0.3528 0.82882 0.0
C225 C 0.79005 0.37543 0.10581 0.0
C226 C 0.36169 0.80899 0.08579 0.0
C227 C 0.34249 0.80357 0.9781 0.0
H228 H 0.42132 0.81499 0.18497 0.0
C229 C 0.36048 0.78624 0.89362 0.0
H230 H 0.34886 0.82293 0.15174 0.0
C231 C 0.40162 0.781 0.91281 0.0
C232 C 0.42555 0.7941 0.01608 0.0
H233 H 0.34631 0.78221 0.80959 0.0
H234 H 0.41811 0.77283 0.84359 0.0
C235 C 0.40339 0.80481 0.10438 0.0
C236 C 0.60102 0.40916 0.12896 0.0
C237 C 0.6348 0.43174 0.0414 0.0
H238 H 0.52725 0.35484 0.1737 0.0
C239 C 0.62546 0.40747 0.93932 0.0
H240 H 0.60788 0.42693 0.20916 0.0
C241 C 0.5792 0.36591 0.91954 0.0
C242 C 0.54261 0.34829 0.00205 0.0
H243 H 0.651 0.424 0.87086 0.0
H244 H 0.57001 0.35152 0.83582 0.0
C245 C 0.55503 0.36763 0.10928 0.0
C246 C 0.21117 0.39278 0.59944 0.0
C247 C 0.16837 0.3938 0.6265 0.0
H248 H 0.25763 0.3927 0.47191 0.0
C249 C 0.13817 0.39431 0.53989 0.0
H250 H 0.23519 0.39217 0.66374 0.0
C251 C 0.15125 0.39485 0.42852 0.0
C252 C 0.1945 0.39445 0.40195 0.0
H253 H 0.10489 0.39512 0.558 0.0
H254 H 0.12769 0.39581 0.36355 0.0
C255 C 0.22397 0.39297 0.48887 0.0
C256 C 0.80699 0.23481 0.57187 0.0
C257 C 0.77699 0.18562 0.60544 0.0
H258 H 0.84 0.28524 0.43654 0.0
C259 C 0.75696 0.14875 0.52366 0.0
H260 H 0.82275 0.26413 0.63244 0.0
C261 C 0.76651 0.16089 0.41083 0.0
C262 C 0.79666 0.2101 0.37746 0.0
H263 H 0.73356 0.11044 0.5466 0.0
H264 H 0.75064 0.13171 0.34992 0.0
C265 C 0.81684 0.24687 0.45934 0.0
C266 C 0.59347 0.82251 0.58392 0.0
C267 C 0.58595 0.77623 0.61455 0.0
H268 H 0.60071 0.87117 0.45204 0.0
C269 C 0.58112 0.74301 0.53101 0.0
H270 H 0.59797 0.84905 0.64646 0.0
C271 C 0.58213 0.75539 0.41852 0.0
C272 C 0.58864 0.80146 0.38796 0.0
H273 H 0.57525 0.70696 0.55258 0.0
H274 H 0.57709 0.72873 0.35589 0.0
C275 C 0.59518 0.83512 0.47213 0.0
C276 C 0.76759 0.59784 0.59037 0.0
C277 C 0.80842 0.59337 0.62003 0.0
H278 H 0.72433 0.60315 0.46004 0.0
C279 C 0.83832 0.59186 0.53528 0.0
H280 H 0.74391 0.59938 0.65323 0.0
C281 C 0.82686 0.59375 0.42311 0.0
C282 C 0.78567 0.59781 0.39393 0.0
H283 H 0.8701 0.58843 0.55548 0.0
H284 H 0.85001 0.59179 0.35952 0.0
C285 C 0.75653 0.60027 0.47906 0.0
C286 C 0.15441 0.73942 0.46193 0.0
C287 C 0.17872 0.77417 0.37656 0.0
H288 H 0.14681 0.72451 0.63664 0.0
C289 C 0.21449 0.82243 0.40539 0.0
H290 H 0.12673 0.70181 0.44286 0.0
C291 C 0.22578 0.83554 0.51715 0.0
C292 C 0.20186 0.80054 0.60236 0.0
H293 H 0.2337 0.85011 0.34174 0.0
H294 H 0.2537 0.87302 0.53657 0.0
C295 C 0.16595 0.75239 0.57334 0.0
C296 C 0.4055 0.2458 0.49571 0.0
C297 C 0.39635 0.21141 0.58117 0.0
H298 H 0.4096 0.25938 0.32005 0.0
C299 C 0.38268 0.16302 0.55341 0.0
H300 H 0.4162 0.28346 0.51482 0.0
C301 C 0.3785 0.14925 0.4426 0.0
C302 C 0.38828 0.18365 0.3568 0.0
H303 H 0.37494 0.13558 0.61727 0.0
H304 H 0.36799 0.11155 0.4245 0.0
C305 C 0.40162 0.23205 0.3843 0.0
loop_
_geom_bond_atom_site_label_1
_geom_bond_atom_site_label_2
_geom_bond_distance
_geom_bond_site_symmetry_2
_ccdc_geom_bond_type
O0 Mg1 1.990 . S
O0 C14 1.253 . S
Mg1 O0 1.990 . S
Mg1 O4 2.180 . S
Mg1 O5 2.117 . S
Mg1 O19 2.030 . S
O2 Mg3 2.072 . S
O2 C14 1.260 . S
Mg3 O2 2.072 . S
Mg3 O4 2.099 . S
Mg3 O6 2.079 . S
Mg3 O7 2.072 1_554 S
Mg3 O9 2.099 1_554 S
Mg3 O20 2.079 . S
O4 Mg1 2.180 . S
O4 Mg3 2.099 . S
O4 C15 1.279 . S
O5 Mg1 2.117 . S
O5 C15 1.250 . S
O6 Mg3 2.079 . S
O6 C16 1.264 1_554 S
O7 Mg3 2.072 1_556 S
O7 C17 1.260 . S
Mg8 O9 2.180 . S
Mg8 O10 2.030 . S
Mg8 O11 1.990 . S
Mg8 O12 2.117 . S
O9 Mg3 2.099 1_556 S
O9 Mg8 2.180 . S
O9 C18 1.279 . S
O10 Mg8 2.030 . S
O10 C16 1.248 . S
O11 Mg8 1.990 . S
O11 C17 1.253 . S
O12 Mg8 2.117 . S
O12 C18 1.250 . S
C13 O19 1.248 . S
C13 O20 1.264 . S
C14 O0 1.253 . S
C14 O2 1.260 . S
C15 O4 1.279 . S
C15 O5 1.250 . S
C16 O6 1.264 1_556 S
C16 O10 1.248 . S
C17 O7 1.260 . S
C17 O11 1.253 . S
C18 O9 1.279 . S
C18 O12 1.250 . S
O19 Mg1 2.030 . S
O19 C13 1.248 . S
O20 Mg3 2.079 . S
O20 C13 1.264 . S
O21 Mg22 1.990 . S
O21 C35 1.253 . S
Mg22 O21 1.990 . S
Mg22 O25 2.180 . S
Mg22 O26 2.117 . S
Mg22 O40 2.030 . S
O23 Mg24 2.072 . S
O23 C35 1.260 . S
Mg24 O23 2.072 . S
Mg24 O25 2.099 . S
Mg24 O27 2.079 . S
Mg24 O28 2.072 1_554 S
Mg24 O30 2.099 1_554 S
Mg24 O41 2.079 . S
O25 Mg22 2.180 . S
O25 Mg24 2.099 . S
O25 C36 1.279 . S
O26 Mg22 2.117 . S
O26 C36 1.250 . S
O27 Mg24 2.079 . S
O27 C37 1.264 1_554 S
O28 Mg24 2.072 1_556 S
O28 C38 1.260 . S
Mg29 O30 2.180 . S
Mg29 O31 2.030 . S
Mg29 O32 1.990 . S
Mg29 O33 2.117 . S
O30 Mg24 2.099 1_556 S
O30 Mg29 2.180 . S
O30 C39 1.279 . S
O31 Mg29 2.030 . S
O31 C37 1.248 . S
O32 Mg29 1.990 . S
O32 C38 1.253 . S
O33 Mg29 2.117 . S
O33 C39 1.250 . S
C34 O40 1.248 . S
C34 O41 1.264 . S
C35 O21 1.253 . S
C35 O23 1.260 . S
C36 O25 1.279 . S
C36 O26 1.250 . S
C37 O27 1.264 1_556 S
C37 O31 1.248 . S
C38 O28 1.260 . S
C38 O32 1.253 . S
C39 O30 1.279 . S
C39 O33 1.250 . S
O40 Mg22 2.030 . S
O40 C34 1.248 . S
O41 Mg24 2.079 . S
O41 C34 1.264 . S
O42 Mg43 1.990 . S
O42 C56 1.253 . S
Mg43 O42 1.990 . S
Mg43 O46 2.180 . S
Mg43 O47 2.117 . S
Mg43 O61 2.030 . S
O44 Mg45 2.072 . S
O44 C56 1.260 . S
Mg45 O44 2.072 . S
Mg45 O46 2.099 . S
Mg45 O48 2.079 . S
Mg45 O49 2.072 1_554 S
Mg45 O51 2.099 1_554 S
Mg45 O62 2.079 . S
O46 Mg43 2.180 . S
O46 Mg45 2.099 . S
O46 C57 1.279 . S
O47 Mg43 2.117 . S
O47 C57 1.250 . S
O48 Mg45 2.079 . S
O48 C58 1.264 1_554 S
O49 Mg45 2.072 1_556 S
O49 C59 1.260 . S
Mg50 O51 2.180 . S
Mg50 O52 2.030 . S
Mg50 O53 1.990 . S
Mg50 O54 2.117 . S
O51 Mg45 2.099 1_556 S
O51 Mg50 2.180 . S
O51 C60 1.279 . S
O52 Mg50 2.030 . S
O52 C58 1.248 . S
O53 Mg50 1.990 . S
O53 C59 1.253 . S
O54 Mg50 2.117 . S
O54 C60 1.250 . S
C55 O61 1.248 . S
C55 O62 1.264 . S
C56 O42 1.253 . S
C56 O44 1.260 . S
C57 O46 1.279 . S
C57 O47 1.250 . S
C58 O48 1.264 1_556 S
C58 O52 1.248 . S
C59 O49 1.260 . S
C59 O53 1.253 . S
C60 O51 1.279 . S
C60 O54 1.250 . S
O61 Mg43 2.030 . S
O61 C55 1.248 . S
O62 Mg45 2.079 . S
O62 C55 1.264 . S
O63 Mg64 1.990 . S
O63 C77 1.253 . S
Mg64 O63 1.990 . S
Mg64 O67 2.180 . S
Mg64 O68 2.117 . S
Mg64 O82 2.030 . S
O65 Mg66 2.072 . S
O65 C77 1.260 . S
Mg66 O65 2.072 . S
Mg66 O67 2.099 . S
Mg66 O69 2.079 . S
Mg66 O70 2.072 1_554 S
Mg66 O72 2.099 1_554 S
Mg66 O83 2.079 . S
O67 Mg64 2.180 . S
O67 Mg66 2.099 . S
O67 C78 1.279 . S
O68 Mg64 2.117 . S
O68 C78 1.250 . S
O69 Mg66 2.079 . S
O69 C79 1.264 1_554 S
O70 Mg66 2.072 1_556 S
O70 C80 1.260 . S
Mg71 O72 2.180 . S
Mg71 O73 2.030 . S
Mg71 O74 1.990 . S
Mg71 O75 2.117 . S
O72 Mg66 2.099 1_556 S
O72 Mg71 2.180 . S
O72 C81 1.279 . S
O73 Mg71 2.030 . S
O73 C79 1.248 . S
O74 Mg71 1.990 . S
O74 C80 1.253 . S
O75 Mg71 2.117 . S
O75 C81 1.250 . S
C76 O82 1.248 . S
C76 O83 1.264 . S
C77 O63 1.253 . S
C77 O65 1.260 . S
C78 O67 1.279 . S
C78 O68 1.250 . S
C79 O69 1.264 1_556 S
C79 O73 1.248 . S
C80 O70 1.260 . S
C80 O74 1.253 . S
C81 O72 1.279 . S
C81 O75 1.250 . S
O82 Mg64 2.030 . S
O82 C76 1.248 . S
O83 Mg66 2.079 . S
O83 C76 1.264 . S
O84 Mg85 1.990 . S
O84 C98 1.253 . S
Mg85 O84 1.990 . S
Mg85 O88 2.180 . S
Mg85 O89 2.117 . S
Mg85 O103 2.030 . S
O86 Mg87 2.072 . S
O86 C98 1.260 . S
Mg87 O86 2.072 . S
Mg87 O88 2.099 . S
Mg87 O90 2.079 . S
Mg87 O91 2.072 1_554 S
Mg87 O93 2.099 1_554 S
Mg87 O104 2.079 . S
O88 Mg85 2.180 . S
O88 Mg87 2.099 . S
O88 C99 1.279 . S
O89 Mg85 2.117 . S
O89 C99 1.250 . S
O90 Mg87 2.079 . S
O90 C100 1.264 1_554 S
O91 Mg87 2.072 1_556 S
O91 C101 1.260 . S
Mg92 O93 2.180 . S
Mg92 O94 2.030 . S
Mg92 O95 1.990 . S
Mg92 O96 2.117 . S
O93 Mg87 2.099 1_556 S
O93 Mg92 2.180 . S
O93 C102 1.279 . S
O94 Mg92 2.030 . S
O94 C100 1.248 . S
O95 Mg92 1.990 . S
O95 C101 1.253 . S
O96 Mg92 2.117 . S
O96 C102 1.250 . S
C97 O103 1.248 . S
C97 O104 1.264 . S
C98 O84 1.253 . S
C98 O86 1.260 . S
C99 O88 1.279 . S
C99 O89 1.250 . S
C100 O90 1.264 1_556 S
C100 O94 1.248 . S
C101 O91 1.260 . S
C101 O95 1.253 . S
C102 O93 1.279 . S
C102 O96 1.250 . S
O103 Mg85 2.030 . S
O103 C97 1.248 . S
O104 Mg87 2.079 . S
O104 C97 1.264 . S
O105 Mg106 1.990 . S
O105 C119 1.253 . S
Mg106 O105 1.990 . S
Mg106 O109 2.180 . S
Mg106 O110 2.117 . S
Mg106 O124 2.030 . S
O107 Mg108 2.072 . S
O107 C119 1.260 . S
Mg108 O107 2.072 . S
Mg108 O109 2.099 . S
Mg108 O111 2.079 . S
Mg108 O112 2.072 1_554 S
Mg108 O114 2.099 1_554 S
Mg108 O125 2.079 . S
O109 Mg106 2.180 . S
O109 Mg108 2.099 . S
O109 C120 1.279 . S
O110 Mg106 2.117 . S
O110 C120 1.250 . S
O111 Mg108 2.079 . S
O111 C121 1.264 1_554 S
O112 Mg108 2.072 1_556 S
O112 C122 1.260 . S
Mg113 O114 2.180 . S
Mg113 O115 2.030 . S
Mg113 O116 1.990 . S
Mg113 O117 2.117 . S
O114 Mg108 2.099 1_556 S
O114 Mg113 2.180 . S
O114 C123 1.279 . S
O115 Mg113 2.030 . S
O115 C121 1.248 . S
O116 Mg113 1.990 . S
O116 C122 1.253 . S
O117 Mg113 2.117 . S
O117 C123 1.250 . S
C118 O124 1.248 . S
C118 O125 1.264 . S
C119 O105 1.253 . S
C119 O107 1.260 . S
C120 O109 1.279 . S
C120 O110 1.250 . S
C121 O111 1.264 1_556 S
C121 O115 1.248 . S
C122 O112 1.260 . S
C122 O116 1.253 . S
C123 O114 1.279 . S
C123 O117 1.250 . S
O124 Mg106 2.030 . S
O124 C118 1.248 . S
O125 Mg108 2.079 . S
O125 C118 1.264 . S
C126 C127 1.387 1_554 S
C126 H130 0.950 . S
C126 C135 1.390 . S
C127 C126 1.387 1_556 S
C127 C129 1.387 . S
H128 C135 0.950 . S
C129 C127 1.387 . S
C129 C131 1.390 . S
C129 H133 0.950 . S
H130 C126 0.950 . S
C131 C129 1.390 . S
C131 C132 1.387 . S
C131 H134 0.950 . S
C132 C131 1.387 . S
C132 C135 1.387 1_556 S
H133 C129 0.950 . S
H134 C131 0.950 . S
C135 C126 1.390 . S
C135 H128 0.950 . S
C135 C132 1.387 1_554 S
C136 C137 1.387 . S
C136 H140 0.950 . S
C136 C145 1.390 1_455 S
C137 C136 1.387 . S
C137 C139 1.387 1_556 S
H138 C145 0.950 . S
C139 C137 1.387 1_554 S
C139 C141 1.390 1_455 S
C139 H143 0.950 . S
H140 C136 0.950 . S
C141 C139 1.390 1_655 S
C141 C142 1.387 1_554 S
C141 H144 0.950 . S
C142 C141 1.387 1_556 S
C142 C145 1.387 . S
H143 C139 0.950 . S
H144 C141 0.950 . S
C145 C136 1.390 1_655 S
C145 H138 0.950 . S
C145 C142 1.387 . S
C146 C147 1.387 . S
C146 H150 0.950 . S
C146 C155 1.390 1_545 S
C147 C146 1.387 . S
C147 C149 1.387 1_556 S
H148 C155 0.950 . S
C149 C147 1.387 1_554 S
C149 C151 1.390 1_545 S
C149 H153 0.950 . S
H150 C146 0.950 . S
C151 C149 1.390 1_565 S
C151 C152 1.387 1_554 S
C151 H154 0.950 . S
C152 C151 1.387 1_556 S
C152 C155 1.387 . S
H153 C149 0.950 . S
H154 C151 0.950 . S
C155 C146 1.390 1_565 S
C155 H148 0.950 . S
C155 C152 1.387 . S
C156 C157 1.387 . S
C156 H160 0.950 . S
C156 C165 1.390 . S
C157 C156 1.387 . S
C157 C159 1.387 1_556 S
H158 C165 0.950 . S
C159 C157 1.387 1_554 S
C159 C161 1.390 . S
C159 H163 0.950 . S
H160 C156 0.950 . S
C161 C159 1.390 . S
C161 C162 1.387 1_554 S
C161 H164 0.950 . S
C162 C161 1.387 1_556 S
C162 C165 1.387 . S
H163 C159 0.950 . S
H164 C161 0.950 . S
C165 C156 1.390 . S
C165 H158 0.950 . S
C165 C162 1.387 . S
C166 C167 1.387 1_554 S
C166 H170 0.950 . S
C166 C175 1.390 1_455 S
C167 C166 1.387 1_556 S
C167 C169 1.387 . S
H168 C175 0.950 . S
C169 C167 1.387 . S
C169 C171 1.390 1_455 S
C169 H173 0.950 . S
H170 C166 0.950 . S
C171 C169 1.390 1_655 S
C171 C172 1.387 . S
C171 H174 0.950 . S
C172 C171 1.387 . S
C172 C175 1.387 1_556 S
H173 C169 0.950 . S
H174 C171 0.950 . S
C175 C166 1.390 1_655 S
C175 H168 0.950 . S
C175 C172 1.387 1_554 S
C176 C177 1.387 . S
C176 H180 0.950 . S
C176 C185 1.390 1_565 S
C177 C176 1.387 . S
C177 C179 1.387 1_556 S
H178 C185 0.950 . S
C179 C177 1.387 1_554 S
C179 C181 1.390 1_565 S
C179 H183 0.950 . S
H180 C176 0.950 . S
C181 C179 1.390 1_545 S
C181 C182 1.387 1_554 S
C181 H184 0.950 . S
C182 C181 1.387 1_556 S
C182 C185 1.387 . S
H183 C179 0.950 . S
H184 C181 0.950 . S
C185 C176 1.390 1_545 S
C185 H178 0.950 . S
C185 C182 1.387 . S
C186 C187 1.387 . S
C186 H190 0.950 . S
C186 C195 1.390 . S
C187 C186 1.387 . S
C187 C189 1.387 1_554 S
H188 C195 0.950 . S
C189 C187 1.387 1_556 S
C189 C191 1.390 . S
C189 H193 0.950 . S
H190 C186 0.950 . S
C191 C189 1.390 . S
C191 C192 1.387 1_556 S
C191 H194 0.950 . S
C192 C191 1.387 1_554 S
C192 C195 1.387 . S
H193 C189 0.950 . S
H194 C191 0.950 . S
C195 C186 1.390 . S
C195 H188 0.950 . S
C195 C192 1.387 . S
C196 C197 1.387 . S
C196 H200 0.950 . S
C196 C205 1.390 . S
C197 C196 1.387 . S
C197 C199 1.387 . S
H198 C205 0.950 . S
C199 C197 1.387 . S
C199 C201 1.390 . S
C199 H203 0.950 . S
H200 C196 0.950 . S
C201 C199 1.390 . S
C201 C202 1.387 . S
C201 H204 0.950 . S
C202 C201 1.387 . S
C202 C205 1.387 . S
H203 C199 0.950 . S
H204 C201 0.950 . S
C205 C196 1.390 . S
C205 H198 0.950 . S
C205 C202 1.387 . S
C206 C207 1.387 . S
C206 H210 0.950 . S
C206 C215 1.390 . S
C207 C206 1.387 . S
C207 C209 1.387 1_554 S
H208 C215 0.950 . S
C209 C207 1.387 1_556 S
C209 C211 1.390 . S
C209 H213 0.950 . S
H210 C206 0.950 . S
C211 C209 1.390 . S
C211 C212 1.387 1_556 S
C211 H214 0.950 . S
C212 C211 1.387 1_554 S
C212 C215 1.387 . S
H213 C209 0.950 . S
H214 C211 0.950 . S
C215 C206 1.390 . S
C215 H208 0.950 . S
C215 C212 1.387 . S
C216 C217 1.387 . S
C216 H220 0.950 . S
C216 C225 1.390 . S
C217 C216 1.387 . S
C217 C219 1.387 1_554 S
H218 C225 0.950 . S
C219 C217 1.387 1_556 S
C219 C221 1.390 . S
C219 H223 0.950 . S
H220 C216 0.950 . S
C221 C219 1.390 . S
C221 C222 1.387 1_556 S
C221 H224 0.950 . S
C222 C221 1.387 1_554 S
C222 C225 1.387 . S
H223 C219 0.950 . S
H224 C221 0.950 . S
C225 C216 1.390 . S
C225 H218 0.950 . S
C225 C222 1.387 . S
C226 C227 1.387 . S
C226 H230 0.950 . S
C226 C235 1.390 . S
C227 C226 1.387 . S
C227 C229 1.387 . S
H228 C235 0.950 . S
C229 C227 1.387 . S
C229 C231 1.390 . S
C229 H233 0.950 . S
H230 C226 0.950 . S
C231 C229 1.390 . S
C231 C232 1.387 . S
C231 H234 0.950 . S
C232 C231 1.387 . S
C232 C235 1.387 . S
H233 C229 0.950 . S
H234 C231 0.950 . S
C235 C226 1.390 . S
C235 H228 0.950 . S
C235 C232 1.387 . S
C236 C237 1.387 . S
C236 H240 0.950 . S
C236 C245 1.390 . S
C237 C236 1.387 . S
C237 C239 1.387 1_554 S
H238 C245 0.950 . S
C239 C237 1.387 1_556 S
C239 C241 1.390 . S
C239 H243 0.950 . S
H240 C236 0.950 . S
C241 C239 1.390 . S
C241 C242 1.387 1_556 S
C241 H244 0.950 . S
C242 C241 1.387 1_554 S
C242 C245 1.387 . S
H243 C239 0.950 . S
H244 C241 0.950 . S
C245 C236 1.390 . S
C245 H238 0.950 . S
C245 C242 1.387 . S
C246 C247 1.387 . S
C246 H250 0.950 . S
C246 C255 1.390 . S
C247 C246 1.387 . S
C247 C249 1.387 . S
H248 C255 0.950 . S
C249 C247 1.387 . S
C249 C251 1.390 . S
C249 H253 0.950 . S
H250 C246 0.950 . S
C251 C249 1.390 . S
C251 C252 1.387 . S
C251 H254 0.950 . S
C252 C251 1.387 . S
C252 C255 1.387 . S
H253 C249 0.950 . S
H254 C251 0.950 . S
C255 C246 1.390 . S
C255 H248 0.950 . S
C255 C252 1.387 . S
C256 C257 1.387 . S
C256 H260 0.950 . S
C256 C265 1.390 . S
C257 C256 1.387 . S
C257 C259 1.387 . S
H258 C265 0.950 . S
C259 C257 1.387 . S
C259 C261 1.390 . S
C259 H263 0.950 . S
H260 C256 0.950 . S
C261 C259 1.390 . S
C261 C262 1.387 . S
C261 H264 0.950 . S
C262 C261 1.387 . S
C262 C265 1.387 . S
H263 C259 0.950 . S
H264 C261 0.950 . S
C265 C256 1.390 . S
C265 H258 0.950 . S
C265 C262 1.387 . S
C266 C267 1.387 . S
C266 H270 0.950 . S
C266 C275 1.390 . S
C267 C266 1.387 . S
C267 C269 1.387 . S
H268 C275 0.950 . S
C269 C267 1.387 . S
C269 C271 1.390 . S
C269 H273 0.950 . S
H270 C266 0.950 . S
C271 C269 1.390 . S
C271 C272 1.387 . S
C271 H274 0.950 . S
C272 C271 1.387 . S
C272 C275 1.387 . S
H273 C269 0.950 . S
H274 C271 0.950 . S
C275 C266 1.390 . S
C275 H268 0.950 . S
C275 C272 1.387 . S
C276 C277 1.387 . S
C276 H280 0.950 . S
C276 C285 1.390 . S
C277 C276 1.387 . S
C277 C279 1.387 . S
H278 C285 0.950 . S
C279 C277 1.387 . S
C279 C281 1.390 . S
C279 H283 0.950 . S
H280 C276 0.950 . S
C281 C279 1.390 . S
C281 C282 1.387 . S
C281 H284 0.950 . S
C282 C281 1.387 . S
C282 C285 1.387 . S
H283 C279 0.950 . S
H284 C281 0.950 . S
C285 C276 1.390 . S
C285 H278 0.950 . S
C285 C282 1.387 . S
C286 C287 1.387 . S
C286 H290 0.950 . S
C286 C295 1.390 . S
C287 C286 1.387 . S
C287 C289 1.387 . S
H288 C295 0.950 . S
C289 C287 1.387 . S
C289 C291 1.390 . S
C289 H293 0.950 . S
H290 C286 0.950 . S
C291 C289 1.390 . S
C291 C292 1.387 . S
C291 H294 0.950 . S
C292 C291 1.387 . S
C292 C295 1.387 . S
H293 C289 0.950 . S
H294 C291 0.950 . S
C295 C286 1.390 . S
C295 H288 0.950 . S
C295 C292 1.387 . S
C296 C297 1.387 . S
C296 H300 0.950 . S
C296 C305 1.390 . S
C297 C296 1.387 . S
C297 C299 1.387 . S
H298 C305 0.950 . S
C299 C297 1.387 . S
C299 C301 1.390 . S
C299 H303 0.950 . S
H300 C296 0.950 . S
C301 C299 1.390 . S
C301 C302 1.387 . S
C301 H304 0.950 . S
C302 C301 1.387 . S
C302 C305 1.387 . S
H303 C299 0.950 . S
H304 C301 0.950 . S
C305 C296 1.390 . S
C305 H298 0.950 . S
C305 C302 1.387 . S
C127 C121 1.367 . S
C132 C15 1.163 1_556 S
C137 C16 1.363 . S
C142 C36 1.169 1_556 S
C147 C37 1.363 . S
C152 C57 1.168 1_556 S
C157 C78 1.169 1_556 S
C162 C58 1.363 . S
C167 C99 1.163 1_556 S
C172 C79 1.367 . S
C177 C100 1.363 . S
C182 C120 1.169 1_556 S
C187 C98 1.543 . S
C192 C18 1.408 1_554 S
C197 C119 1.542 . S
C202 C39 1.412 1_554 S
C207 C60 1.408 1_554 S
C212 C14 1.543 . S
C217 C81 1.408 1_554 S
C222 C35 1.543 . S
C227 C102 1.408 1_554 S
C232 C56 1.542 . S
C237 C77 1.543 . S
C242 C123 1.408 1_554 S
C247 C17 1.470 . S
C252 C13 1.504 . S
C257 C38 1.470 . S
C262 C34 1.504 . S
C267 C59 1.472 . S
C272 C55 1.506 . S
C277 C80 1.470 . S
C282 C76 1.504 . S
C287 C97 1.504 . S
C292 C101 1.470 . S
C297 C122 1.473 . S
C302 C118 1.506 . S
