# Generated by pormake.
# Topology unf, (4)-cn, num edge types: 1
# Building blocks:
#     Node 0, Type 0, BuildingBlock: QUQFOY_clean_sbu_1, # of connection points: 4
#     Node 1, Type 0, BuildingBlock: QUQFOY_clean_sbu_1, # of connection points: 4
#     Node 2, Type 0, BuildingBlock: QUQFOY_clean_sbu_1, # of connection points: 4
#     Node 3, Type 0, BuildingBlock: QUQFOY_clean_sbu_1, # of connection points: 4
#     Node 4, Type 0, BuildingBlock: QUQFOY_clean_sbu_1, # of connection points: 4
#     Node 5, Type 0, BuildingBlock: QUQFOY_clean_sbu_1, # of connection points: 4
#     Node 6, Type 0, BuildingBlock: QUQFOY_clean_sbu_1, # of connection points: 4
#     Node 7, Type 0, BuildingBlock: QUQFOY_clean_sbu_1, # of connection points: 4
#     Node 8, Type 0, BuildingBlock: QUQFOY_clean_sbu_1, # of connection points: 4
#     Node 9, Type 0, BuildingBlock: QUQFOY_clean_sbu_1, # of connection points: 4
#     Node 10, Type 0, BuildingBlock: QUQFOY_clean_sbu_1, # of connection points: 4
#     Node 11, Type 0, BuildingBlock: QUQFOY_clean_sbu_1, # of connection points: 4
#     Edge 12, Type (0, 0), BuildingBlock: UVAHIK_clean_linker_0, # of connection points: 2
#     Edge 13, Type (0, 0), BuildingBlock: UVAHIK_clean_linker_0, # of connection points: 2
#     Edge 14, Type (0, 0), BuildingBlock: UVAHIK_clean_linker_0, # of connection points: 2
#     Edge 15, Type (0, 0), BuildingBlock: UVAHIK_clean_linker_0, # of connection points: 2
#     Edge 16, Type (0, 0), BuildingBlock: UVAHIK_clean_linker_0, # of connection points: 2
#     Edge 17, Type (0, 0), BuildingBlock: UVAHIK_clean_linker_0, # of connection points: 2
#     Edge 18, Type (0, 0), BuildingBlock: UVAHIK_clean_linker_0, # of connection points: 2
#     Edge 19, Type (0, 0), BuildingBlock: UVAHIK_clean_linker_0, # of connection points: 2
#     Edge 20, Type (0, 0), BuildingBlock: UVAHIK_clean_linker_0, # of connection points: 2
#     Edge 21, Type (0, 0), BuildingBlock: UVAHIK_clean_linker_0, # of connection points: 2
#     Edge 22, Type (0, 0), BuildingBlock: UVAHIK_clean_linker_0, # of connection points: 2
#     Edge 23, Type (0, 0), BuildingBlock: UVAHIK_clean_linker_0, # of connection points: 2
#     Edge 24, Type (0, 0), BuildingBlock: UVAHIK_clean_linker_0, # of connection points: 2
#     Edge 25, Type (0, 0), BuildingBlock: UVAHIK_clean_linker_0, # of connection points: 2
#     Edge 26, Type (0, 0), BuildingBlock: UVAHIK_clean_linker_0, # of connection points: 2
#     Edge 27, Type (0, 0), BuildingBlock: UVAHIK_clean_linker_0, # of connection points: 2
#     Edge 28, Type (0, 0), BuildingBlock: UVAHIK_clean_linker_0, # of connection points: 2
#     Edge 29, Type (0, 0), BuildingBlock: UVAHIK_clean_linker_0, # of connection points: 2
#     Edge 30, Type (0, 0), BuildingBlock: UVAHIK_clean_linker_0, # of connection points: 2
#     Edge 31, Type (0, 0), BuildingBlock: UVAHIK_clean_linker_0, # of connection points: 2
#     Edge 32, Type (0, 0), BuildingBlock: UVAHIK_clean_linker_0, # of connection points: 2
#     Edge 33, Type (0, 0), BuildingBlock: UVAHIK_clean_linker_0, # of connection points: 2
#     Edge 34, Type (0, 0), BuildingBlock: UVAHIK_clean_linker_0, # of connection points: 2
#     Edge 35, Type (0, 0), BuildingBlock: UVAHIK_clean_linker_0, # of connection points: 2
# Relax obj value: 0.138
# Max RMSD: 0.165
# Mean RMSD: 0.165
data_MOF--net-unf--node1-QUQFOY_clean_sbu_1--edge1-UVAHIK_clean_linker_0
_symmetry_space_group_name_H-M    P1
_symmetry_Int_Tables_number       1
_symmetry_cell_setting            triclinic
loop_
_symmetry_equiv_pos_as_xyz
'x, y, z'
_cell_length_a     51.305338
_cell_length_b     51.335303
_cell_length_c     51.537763
_cell_angle_alpha  90.016436
_cell_angle_beta   89.981011
_cell_angle_gamma 120.05678
loop_
_atom_site_label
_atom_site_type_symbol
_atom_site_fract_x
_atom_site_fract_y
_atom_site_fract_z
_atom_type_partial_charge
O0 O 0.13786 0.37829 0.05631 0.0
Cd1 Cd 0.10609 0.38226 0.0778 0.0
Cd2 Cd 0.11341 0.41746 0.03633 0.0
O3 O 0.1521 0.41622 0.02918 0.0
O4 O 0.10467 0.36053 0.11013 0.0
O5 O 0.121 0.40934 0.10935 0.0
C6 C 0.11638 0.38583 0.12225 0.0
C7 C 0.1078 0.45934 0.03301 0.0
C8 C 0.15543 0.39522 0.03861 0.0
C9 C 0.05471 0.36071 0.04157 0.0
O10 O 0.07378 0.3801 0.0261 0.0
O11 O 0.06197 0.35964 0.06495 0.0
O12 O 0.11382 0.44826 0.01297 0.0
O13 O 0.10839 0.44863 0.05558 0.0
O14 O 0.61276 0.75788 0.06177 0.0
Cd15 Cd 0.60759 0.7241 0.08662 0.0
Cd16 Cd 0.57375 0.69172 0.04329 0.0
O17 O 0.57784 0.73212 0.03245 0.0
O18 O 0.62844 0.74717 0.11836 0.0
O19 O 0.57967 0.71448 0.11739 0.0
C20 C 0.60289 0.7342 0.13014 0.0
C21 C 0.53123 0.64529 0.03531 0.0
C22 C 0.59776 0.75712 0.04186 0.0
C23 C 0.62964 0.68951 0.05651 0.0
O24 O 0.61089 0.68701 0.03927 0.0
O25 O 0.63034 0.70136 0.07833 0.0
O26 O 0.54704 0.66275 0.01665 0.0
O27 O 0.53774 0.65562 0.05872 0.0
O28 O 0.24051 0.86039 0.06349 0.0
Cd29 Cd 0.2761 0.88743 0.08743 0.0
Cd30 Cd 0.3049 0.88554 0.04229 0.0
O31 O 0.26357 0.84961 0.03281 0.0
O32 O 0.25439 0.88421 0.12022 0.0
O33 O 0.28545 0.86644 0.11615 0.0
C34 C 0.26622 0.8695 0.13008 0.0
C35 C 0.35028 0.88858 0.03154 0.0
C36 C 0.23948 0.84551 0.04343 0.0
C37 C 0.31009 0.94434 0.05807 0.0
O38 O 0.31035 0.92784 0.03986 0.0
O39 O 0.29987 0.9332 0.0803 0.0
O40 O 0.33193 0.88747 0.01396 0.0
O41 O 0.34141 0.88476 0.05542 0.0
O42 O 0.6304 0.86723 0.44264 0.0
Cd43 Cd 0.62775 0.89528 0.41552 0.0
Cd44 Cd 0.5862 0.89008 0.44941 0.0
O45 O 0.58547 0.85097 0.45959 0.0
O46 O 0.64629 0.88993 0.38364 0.0
O47 O 0.59806 0.87643 0.38629 0.0
C48 C 0.61999 0.87749 0.37304 0.0
C49 C 0.54413 0.89578 0.45368 0.0
C50 C 0.60913 0.84911 0.45735 0.0
C51 C 0.64539 0.9484 0.44663 0.0
O52 O 0.62327 0.92996 0.46039 0.0
O53 O 0.65001 0.94039 0.4246 0.0
O54 O 0.55612 0.89042 0.47336 0.0
O55 O 0.5542 0.89491 0.43091 0.0
O56 O 0.13009 0.7564 0.42866 0.0
Cd57 Cd 0.09822 0.7217 0.406 0.0
Cd58 Cd 0.0929 0.69458 0.45359 0.0
O59 O 0.13405 0.73107 0.46147 0.0
O60 O 0.10408 0.74284 0.37238 0.0
O61 O 0.114 0.706 0.37749 0.0
C62 C 0.11403 0.72637 0.36277 0.0
C63 C 0.07994 0.64616 0.46648 0.0
C64 C 0.14322 0.75563 0.44933 0.0
C65 C 0.04207 0.70229 0.43567 0.0
O66 O 0.05683 0.70133 0.45502 0.0
O67 O 0.05291 0.70589 0.41293 0.0
O68 O 0.08455 0.66674 0.48315 0.0
O69 O 0.08471 0.65366 0.44228 0.0
O70 O 0.22352 0.35698 0.43687 0.0
Cd71 Cd 0.25263 0.36019 0.40808 0.0
Cd72 Cd 0.2946 0.39615 0.44968 0.0
O73 O 0.25472 0.38873 0.46619 0.0
O74 O 0.22591 0.34287 0.37742 0.0
O75 O 0.26242 0.39034 0.37922 0.0
C76 C 0.24024 0.36897 0.36662 0.0
C77 C 0.3403 0.43679 0.46342 0.0
C78 C 0.22811 0.37065 0.45842 0.0
C79 C 0.29262 0.33895 0.42868 0.0
O80 O 0.30192 0.36069 0.44453 0.0
O81 O 0.27293 0.33446 0.41169 0.0
O82 O 0.32286 0.41566 0.47902 0.0
O83 O 0.33052 0.43647 0.44028 0.0
O84 O 0.85632 0.62387 0.94361 0.0
Cd85 Cd 0.886 0.61823 0.92018 0.0
Cd86 Cd 0.88575 0.59093 0.9645 0.0
O87 O 0.84437 0.58655 0.97083 0.0
O88 O 0.88394 0.63776 0.88763 0.0
O89 O 0.8682 0.58917 0.89006 0.0
C90 C 0.87144 0.61181 0.87658 0.0
C91 C 0.8981 0.55394 0.97188 0.0
C92 C 0.8396 0.60671 0.96163 0.0
C93 C 0.94042 0.64761 0.95212 0.0
O94 O 0.92264 0.63272 0.97043 0.0
O95 O 0.93147 0.64177 0.92877 0.0
O96 O 0.89145 0.56604 0.99077 0.0
O97 O 0.89479 0.56079 0.94843 0.0
O98 O 0.37143 0.23001 0.9384 0.0
Cd99 Cd 0.37595 0.26314 0.91269 0.0
Cd100 Cd 0.40325 0.29338 0.95664 0.0
O101 O 0.40952 0.2578 0.96426 0.0
O102 O 0.3567 0.23892 0.88105 0.0
O103 O 0.40502 0.27303 0.88276 0.0
C104 C 0.38265 0.25219 0.86994 0.0
C105 C 0.43771 0.34316 0.96663 0.0
C106 C 0.38932 0.23209 0.9564 0.0
C107 C 0.34553 0.28821 0.94255 0.0
O108 O 0.36036 0.28598 0.96123 0.0
O109 O 0.35193 0.28506 0.9194 0.0
O110 O 0.42479 0.32321 0.98452 0.0
O111 O 0.43325 0.3342 0.94276 0.0
O112 O 0.76104 0.13062 0.92262 0.0
Cd113 Cd 0.72181 0.10205 0.90273 0.0
Cd114 Cd 0.70096 0.10356 0.94745 0.0
O115 O 0.73881 0.14493 0.95108 0.0
O116 O 0.73319 0.10732 0.86549 0.0
O117 O 0.7038 0.12289 0.88284 0.0
C118 C 0.71836 0.12135 0.86297 0.0
C119 C 0.65228 0.09156 0.95739 0.0
C120 C 0.76271 0.14858 0.94041 0.0
C121 C 0.70052 0.04819 0.93379 0.0
O122 O 0.70613 0.06673 0.95213 0.0
O123 O 0.70049 0.05636 0.91054 0.0
O124 O 0.67226 0.09857 0.97532 0.0
O125 O 0.66091 0.09444 0.93345 0.0
O126 O 0.36555 0.12872 0.55983 0.0
Cd127 Cd 0.37239 0.10072 0.58431 0.0
Cd128 Cd 0.40495 0.10457 0.54298 0.0
O129 O 0.40735 0.14522 0.53735 0.0
O130 O 0.35443 0.1032 0.61771 0.0
O131 O 0.4031 0.11985 0.61295 0.0
C132 C 0.3811 0.1164 0.62754 0.0
C133 C 0.44355 0.09499 0.53323 0.0
C134 C 0.38448 0.14718 0.54362 0.0
C135 C 0.34774 0.04785 0.55159 0.0
O136 O 0.36447 0.06686 0.53469 0.0
O137 O 0.35059 0.05543 0.57531 0.0
O138 O 0.43066 0.10215 0.51543 0.0
O139 O 0.4366 0.09629 0.55712 0.0
O140 O 0.86684 0.23104 0.58574 0.0
Cd141 Cd 0.89486 0.26891 0.60739 0.0
Cd142 Cd 0.89486 0.29412 0.56367 0.0
O143 O 0.85481 0.25536 0.55748 0.0
O144 O 0.88736 0.25596 0.64422 0.0
O145 O 0.87408 0.28719 0.627 0.0
C146 C 0.87412 0.27157 0.64665 0.0
C147 C 0.90298 0.34123 0.55166 0.0
C148 C 0.85038 0.23074 0.56716 0.0
C149 C 0.95026 0.29282 0.57798 0.0
O150 O 0.93322 0.29139 0.55953 0.0
O151 O 0.94078 0.28904 0.6012 0.0
O152 O 0.89873 0.32113 0.53461 0.0
O153 O 0.90038 0.33378 0.57587 0.0
O154 O 0.76229 0.63848 0.56382 0.0
Cd155 Cd 0.73143 0.63199 0.59211 0.0
Cd156 Cd 0.69193 0.59878 0.54783 0.0
O157 O 0.73317 0.60907 0.53231 0.0
O158 O 0.75689 0.64857 0.62353 0.0
O159 O 0.72207 0.60063 0.61983 0.0
C160 C 0.74319 0.62193 0.63335 0.0
C161 C 0.64791 0.55827 0.53133 0.0
C162 C 0.75918 0.62689 0.54144 0.0
C163 C 0.69038 0.65264 0.5726 0.0
O164 O 0.68252 0.63248 0.55533 0.0
O165 O 0.70963 0.65637 0.58979 0.0
O166 O 0.66538 0.581 0.51716 0.0
O167 O 0.65679 0.55707 0.55451 0.0
C168 C 0.19012 0.39863 0.00277 0.0
C169 C 0.17781 0.38828 0.02756 0.0
C170 C 0.20777 0.38824 0.99095 0.0
C171 C 0.22004 0.32337 0.99397 0.0
H172 H 0.29246 0.37375 0.95435 0.0
C173 C 0.30954 0.29108 0.9731 0.0
C174 C 0.32223 0.29621 0.94818 0.0
C175 C 0.28964 0.30102 0.9796 0.0
C176 C 0.27198 0.35936 0.965 0.0
H177 H 0.17602 0.36062 0.0601 0.0
H178 H 0.20729 0.34321 0.03986 0.0
H179 H 0.26375 0.39563 0.97285 0.0
H180 H 0.32369 0.31531 0.91032 0.0
H181 H 0.28893 0.33323 0.92193 0.0
H182 H 0.22875 0.28738 0.98687 0.0
C183 C 0.20256 0.35853 0.02915 0.0
C184 C 0.2556 0.37186 0.97563 0.0
C185 C 0.18483 0.36871 0.04084 0.0
C186 C 0.31408 0.31092 0.92963 0.0
C187 C 0.29443 0.32133 0.9363 0.0
C188 C 0.23645 0.31098 0.98352 0.0
C189 C 0.21348 0.36744 0.00379 0.0
C190 C 0.22984 0.35411 0.99073 0.0
C191 C 0.28224 0.31664 0.96142 0.0
C192 C 0.26289 0.32897 0.96941 0.0
H193 H 0.18502 0.41367 0.99204 0.0
H194 H 0.21588 0.39552 0.9714 0.0
H195 H 0.19981 0.30888 0.00489 0.0
H196 H 0.31537 0.27976 0.98778 0.0
H197 H 0.2808 0.29737 0.99918 0.0
C198 C 0.59437 0.7857 0.00366 0.0
C199 C 0.60548 0.78564 0.0286 0.0
C200 C 0.60454 0.81276 0.99017 0.0
C201 C 0.66937 0.89004 0.98839 0.0
H202 H 0.61617 0.90967 0.95051 0.0
C203 C 0.70015 0.01064 0.96451 0.0
C204 C 0.69272 0.01706 0.94003 0.0
C205 C 0.6908 0.9811 0.97166 0.0
C206 C 0.63135 0.90424 0.96062 0.0
H207 H 0.63476 0.81405 0.05943 0.0
H208 H 0.65198 0.86099 0.03618 0.0
H209 H 0.59575 0.86011 0.97078 0.0
H210 H 0.67014 -0.00235 0.90361 0.0
H211 H 0.65336 0.94554 0.91637 0.0
H212 H 0.70475 0.93438 0.97896 0.0
C213 C 0.63605 0.84015 0.02674 0.0
C214 C 0.61967 0.87594 0.97226 0.0
C215 C 0.62598 0.81322 0.04015 0.0
C216 C 0.67628 0.99333 0.92256 0.0
C217 C 0.66654 0.96357 0.92989 0.0
C218 C 0.68097 0.91825 0.97687 0.0
C219 C 0.62599 0.84019 0.0014 0.0
C220 C 0.63847 0.86888 0.98684 0.0
C221 C 0.67356 0.95723 0.9546 0.0
C222 C 0.66196 0.9259 0.96343 0.0
H223 H 0.57859 0.76481 0.99422 0.0
H224 H 0.59639 0.81211 0.97067 0.0
H225 H 0.68457 0.88498 0.99891 0.0
H226 H 0.71284 0.02845 0.97837 0.0
H227 H 0.69624 0.97685 0.99093 0.0
C228 C 0.20737 0.81351 0.00658 0.0
C229 C 0.20985 0.82435 0.03204 0.0
C230 C 0.17901 0.79547 0.99537 0.0
C231 C 0.09979 0.77691 0.00292 0.0
H232 H 0.08129 0.7072 0.9607 0.0
C233 C 0.9794 0.68187 0.98365 0.0
C234 C 0.9717 0.67077 0.95822 0.0
C235 C 0.00914 0.70257 0.99 0.0
C236 C 0.08632 0.72687 0.97216 0.0
H237 H 0.18461 0.82363 0.0661 0.0
H238 H 0.13547 0.79173 0.0469 0.0
H239 H 0.13244 0.73884 0.9773 0.0
H240 H 0.98907 0.67275 0.91944 0.0
H241 H 0.04145 0.70885 0.93077 0.0
H242 H 0.05349 0.76437 0.99851 0.0
C243 C 0.15529 0.79786 0.03524 0.0
C244 C 0.11555 0.74497 0.98165 0.0
C245 C 0.1835 0.81598 0.04633 0.0
C246 C 0.99435 0.68104 0.93917 0.0
C247 C 0.02427 0.7015 0.94565 0.0
C248 C 0.07062 0.75873 0.99364 0.0
C249 C 0.15267 0.78786 0.00948 0.0
C250 C 0.12243 0.76985 0.99758 0.0
C251 C 0.03188 0.71237 0.97115 0.0
C252 C 0.06349 0.73326 0.97857 0.0
H253 H 0.22729 0.81965 0.99507 0.0
H254 H 0.17774 0.78819 0.97545 0.0
H255 H 0.10452 0.79637 0.01456 0.0
H256 H 0.96246 0.67441 0.99874 0.0
H257 H 0.01447 0.71037 0.00987 0.0
C258 C 0.64661 0.65984 0.56585 0.0
C259 C 0.67729 0.6723 0.57158 0.0
C260 C 0.63479 0.67842 0.56019 0.0
C261 C 0.6542 0.75917 0.55625 0.0
H262 H 0.59885 0.729 0.49803 0.0
C263 C 0.6424 0.8334 0.47907 0.0
C264 C 0.6132 0.8277 0.47348 0.0
C265 C 0.64673 0.81424 0.49536 0.0
C266 C 0.61391 0.73752 0.51455 0.0
H267 H 0.71951 0.71363 0.57721 0.0
H268 H 0.69946 0.74633 0.5659 0.0
H269 H 0.61276 0.69586 0.51991 0.0
H270 H 0.56561 0.79739 0.48036 0.0
H271 H 0.57328 0.76298 0.50817 0.0
H272 H 0.65682 0.80161 0.54922 0.0
C273 C 0.68408 0.72229 0.5666 0.0
C274 C 0.62181 0.71852 0.52728 0.0
C275 C 0.69571 0.70362 0.57299 0.0
C276 C 0.58835 0.80226 0.48432 0.0
C277 C 0.59269 0.78268 0.50022 0.0
C278 C 0.64671 0.77834 0.54313 0.0
C279 C 0.65365 0.70986 0.55926 0.0
C280 C 0.64251 0.72921 0.54802 0.0
C281 C 0.62194 0.78871 0.50599 0.0
C282 C 0.62692 0.76775 0.52192 0.0
H283 H 0.63195 0.63565 0.56495 0.0
H284 H 0.61108 0.66801 0.55553 0.0
H285 H 0.66967 0.76807 0.57244 0.0
H286 H 0.662 0.85297 0.47118 0.0
H287 H 0.66947 0.81907 0.49929 0.0
C288 C 0.18057 0.8104 0.44533 0.0
C289 C 0.16747 0.78404 0.46035 0.0
C290 C 0.20074 0.83803 0.45647 0.0
C291 C 0.24897 0.8744 0.5138 0.0
H292 H 0.23831 0.94104 0.49281 0.0
C293 C 0.31184 0.99331 0.56123 0.0
C294 C 0.32553 0.01703 0.54327 0.0
C295 C 0.29186 0.96401 0.55274 0.0
C296 C 0.24158 0.92265 0.4988 0.0
H297 H 0.16623 0.76576 0.49859 0.0
H298 H 0.20113 0.81423 0.51819 0.0
H299 H 0.20598 0.89133 0.47447 0.0
H300 H 0.32872 0.02876 0.50245 0.0
H301 H 0.29378 0.97796 0.48784 0.0
H302 H 0.2846 0.90609 0.53831 0.0
C303 C 0.19604 0.81345 0.49772 0.0
C304 C 0.22322 0.89422 0.48819 0.0
C305 C 0.176 0.78569 0.48649 0.0
C306 C 0.31856 0.011 0.5168 0.0
C307 C 0.29844 0.98193 0.50841 0.0
C308 C 0.26727 0.90293 0.52458 0.0
C309 C 0.20805 0.84001 0.48296 0.0
C310 C 0.22703 0.86987 0.4952 0.0
C311 C 0.28497 0.95814 0.52624 0.0
C312 C 0.26402 0.92738 0.51682 0.0
H313 H 0.17475 0.80981 0.42505 0.0
H314 H 0.21023 0.85796 0.44439 0.0
H315 H 0.25255 0.85613 0.51952 0.0
H316 H 0.31689 -0.00271 0.58174 0.0
H317 H 0.28163 0.94601 0.56686 0.0
C318 C 0.98661 0.29157 0.54693 0.0
C319 C 0.98073 0.29844 0.57185 0.0
C320 C 0.01542 0.29779 0.54018 0.0
C321 C 0.09379 0.34912 0.55188 0.0
H322 H 0.10407 0.2901 0.51312 0.0
C323 C 0.20581 0.37545 0.50044 0.0
C324 C 0.20196 0.36391 0.47507 0.0
C325 C 0.18083 0.36705 0.51654 0.0
C326 C 0.10158 0.30685 0.52391 0.0
H327 H 0.00032 0.31704 0.60937 0.0
H328 H 0.05145 0.32875 0.59716 0.0
H329 H 0.05628 0.27501 0.53465 0.0
H330 H 0.16877 0.33529 0.44652 0.0
H331 H 0.12559 0.32109 0.47431 0.0
H332 H 0.13869 0.38133 0.53999 0.0
C333 C 0.03343 0.31821 0.58309 0.0
C334 C 0.07432 0.29816 0.53632 0.0
C335 C 0.00427 0.31143 0.59005 0.0
C336 C 0.17265 0.34443 0.466 0.0
C337 C 0.14785 0.33606 0.48202 0.0
C338 C 0.12115 0.35791 0.53929 0.0
C339 C 0.03915 0.31139 0.55806 0.0
C340 C 0.06982 0.31941 0.54965 0.0
C341 C 0.15164 0.34688 0.50758 0.0
C342 C 0.12486 0.33704 0.52439 0.0
H343 H 0.96892 0.28145 0.53251 0.0
H344 H 0.01931 0.29266 0.52065 0.0
H345 H 0.09075 0.36594 0.56196 0.0
H346 H 0.2281 0.3905 0.50803 0.0
H347 H 0.1844 0.37577 0.53615 0.0
C348 C 0.67575 0.68608 0.06648 0.0
C349 C 0.65037 0.67808 0.05089 0.0
C350 C 0.69572 0.67594 0.06025 0.0
C351 C 0.70247 0.61841 0.0227 0.0
H352 H 0.78702 0.67892 0.0175 0.0
C353 C 0.79622 0.59244 0.99201 0.0
C354 C 0.81623 0.61198 0.9731 0.0
C355 C 0.77549 0.59878 0.00389 0.0
C356 C 0.76348 0.66178 0.01895 0.0
H357 H 0.62549 0.6524 0.01709 0.0
H358 H 0.6602 0.63478 0.00636 0.0
H359 H 0.75131 0.69266 0.03503 0.0
H360 H 0.82981 0.65319 0.95155 0.0
H361 H 0.79381 0.66415 0.97232 0.0
H362 H 0.7146 0.58773 0.00595 0.0
C363 C 0.66466 0.64879 0.02338 0.0
C364 C 0.74313 0.66956 0.02921 0.0
C365 C 0.64494 0.65915 0.02941 0.0
C366 C 0.81477 0.63767 0.96606 0.0
C367 C 0.79432 0.64412 0.97809 0.0
C368 C 0.72289 0.61055 0.01265 0.0
C369 C 0.6904 0.65732 0.03856 0.0
C370 C 0.71235 0.64811 0.03068 0.0
C371 C 0.77469 0.62491 0.99728 0.0
C372 C 0.75347 0.63234 0.01016 0.0
H373 H 0.68048 0.70059 0.08318 0.0
H374 H 0.71538 0.68274 0.07232 0.0
H375 H 0.67886 0.6014 0.0238 0.0
H376 H 0.79677 0.57246 0.99784 0.0
H377 H 0.76056 0.58361 0.01865 0.0
C378 C 0.40526 0.20574 0.98831 0.0
C379 C 0.38476 0.20453 0.96956 0.0
C380 C 0.39966 0.17975 0.00173 0.0
C381 C 0.33788 0.10553 0.02113 0.0
H382 H 0.39873 0.08195 0.02487 0.0
C383 C 0.31515 0.99431 0.06926 0.0
C384 C 0.32214 0.97669 0.05298 0.0
C385 C 0.32548 0.02453 0.06323 0.0
C386 C 0.38162 0.08841 0.02415 0.0
H387 H 0.34252 0.17501 0.95002 0.0
H388 H 0.33284 0.12993 0.97345 0.0
H389 H 0.41133 0.13048 0.00571 0.0
H390 H 0.34645 0.97719 0.01831 0.0
H391 H 0.36444 0.02966 0.00798 0.0
H392 H 0.30788 0.0631 0.03876 0.0
C393 C 0.35307 0.15098 0.9779 0.0
C394 C 0.38888 0.1162 0.01335 0.0
C395 C 0.35879 0.17678 0.96432 0.0
C396 C 0.34046 0.99009 0.03114 0.0
C397 C 0.35104 0.02025 0.02534 0.0
C398 C 0.33071 0.0779 0.03215 0.0
C399 C 0.3733 0.15224 0.99686 0.0
C400 C 0.36682 0.12462 0.01111 0.0
C401 C 0.34335 0.03767 0.0411 0.0
C402 C 0.35229 0.06874 0.03314 0.0
H403 H 0.42546 0.22678 0.99278 0.0
H404 H 0.41562 0.18127 0.01626 0.0
H405 H 0.32057 0.11168 0.01989 0.0
H406 H 0.30112 0.98459 0.08624 0.0
H407 H 0.31931 0.03755 0.07573 0.0
C408 C 0.01462 0.34507 0.00801 0.0
C409 C 0.024 0.33977 0.03206 0.0
C410 C 0.98594 0.32532 0.99849 0.0
C411 C 0.91033 0.26438 0.01785 0.0
H412 H 0.90279 0.24656 0.94419 0.0
C413 C 0.7947 0.19334 0.96842 0.0
C414 C 0.79245 0.17233 0.94977 0.0
C415 C 0.82276 0.21465 0.9783 0.0
C416 C 0.9045 0.25109 0.96483 0.0
H417 H 0.0105 0.30971 0.06517 0.0
H418 H 0.96043 0.27464 0.04821 0.0
H419 H 0.95197 0.28092 0.96237 0.0
H420 H 0.8179 0.15738 0.92668 0.0
H421 H 0.86665 0.1941 0.94421 0.0
H422 H 0.86293 0.23363 0.02039 0.0
C423 C 0.97517 0.29443 0.03692 0.0
C424 C 0.93267 0.27111 0.97521 0.0
C425 C 0.00389 0.31441 0.04658 0.0
C426 C 0.81885 0.17336 0.94093 0.0
C427 C 0.84685 0.19452 0.95091 0.0
C428 C 0.88213 0.24417 0.00747 0.0
C429 C 0.96598 0.29958 0.01266 0.0
C430 C 0.93593 0.27805 0.00183 0.0
C431 C 0.84913 0.21531 0.96982 0.0
C432 C 0.87892 0.23727 0.98083 0.0
H433 H 0.02942 0.36462 0.99647 0.0
H434 H 0.97937 0.33034 0.98002 0.0
H435 H 0.91201 0.26946 0.03838 0.0
H436 H 0.77477 0.19321 0.97555 0.0
H437 H 0.8238 0.23067 0.99253 0.0
C438 C 0.40082 0.19354 0.51681 0.0
C439 C 0.37795 0.16849 0.52992 0.0
C440 C 0.39393 0.21239 0.50239 0.0
C441 C 0.33424 0.21313 0.46566 0.0
H442 H 0.37127 0.29763 0.48338 0.0
C443 C 0.28538 0.28735 0.43264 0.0
C444 C 0.30472 0.31853 0.43115 0.0
C445 C 0.29653 0.26867 0.44044 0.0
C446 C 0.3612 0.2743 0.47758 0.0
H447 H 0.33002 0.14346 0.53818 0.0
H448 H 0.31805 0.17606 0.51255 0.0
H449 H 0.38719 0.26617 0.50557 0.0
H450 H 0.35095 0.35463 0.43425 0.0
H451 H 0.37085 0.32205 0.44605 0.0
H452 H 0.30853 0.22108 0.43739 0.0
C453 C 0.34123 0.18114 0.51361 0.0
C454 C 0.37024 0.25628 0.49051 0.0
C455 C 0.34816 0.16271 0.52844 0.0
C456 C 0.33562 0.33057 0.43553 0.0
C457 C 0.34689 0.31191 0.4426 0.0
C458 C 0.32559 0.23127 0.4523 0.0
C459 C 0.36402 0.20601 0.50041 0.0
C460 C 0.35642 0.22549 0.485 0.0
C461 C 0.32733 0.28088 0.44631 0.0
C462 C 0.33855 0.26201 0.45842 0.0
H463 H 0.42396 0.19849 0.51761 0.0
H464 H 0.41184 0.23157 0.49238 0.0
H465 H 0.32348 0.18939 0.461 0.0
H466 H 0.2614 0.27769 0.42956 0.0
H467 H 0.28065 0.24499 0.44327 0.0
C468 C 0.80955 0.20142 0.53486 0.0
C469 C 0.82758 0.20187 0.55558 0.0
C470 C 0.78951 0.17435 0.52271 0.0
C471 C 0.76377 0.11722 0.49049 0.0
H472 H 0.71693 0.04509 0.53143 0.0
C473 C 0.69383 -0.00202 0.44547 0.0
C474 C 0.6658 0.97881 0.45703 0.0
C475 C 0.71359 0.02589 0.4567 0.0
C476 C 0.72968 0.06508 0.51971 0.0
H477 H 0.83839 0.17416 0.58004 0.0
H478 H 0.80364 0.12701 0.55869 0.0
H479 H 0.75042 0.09235 0.55313 0.0
H480 H 0.63593 0.97445 0.48872 0.0
H481 H 0.66999 0.02301 0.50787 0.0
H482 H 0.74241 0.08993 0.45709 0.0
C483 C 0.80474 0.14754 0.55201 0.0
C484 C 0.74914 0.09209 0.53214 0.0
C485 C 0.82474 0.17459 0.5642 0.0
C486 C 0.65754 0.98848 0.47949 0.0
C487 C 0.67713 0.01628 0.49058 0.0
C488 C 0.74423 0.09015 0.47803 0.0
C489 C 0.78709 0.14715 0.531 0.0
C490 C 0.76637 0.11848 0.5177 0.0
C491 C 0.70557 0.0351 0.4796 0.0
C492 C 0.72687 0.06382 0.49254 0.0
H493 H 0.81112 0.22203 0.5278 0.0
H494 H 0.77585 0.17472 0.50686 0.0
H495 H 0.77704 0.13711 0.4788 0.0
H496 H 0.70081 0.99114 0.42816 0.0
H497 H 0.73544 0.03986 0.44786 0.0
C498 C 0.00523 0.70596 0.46451 0.0
C499 C 0.01213 0.69891 0.44007 0.0
C500 C 0.97654 0.70117 0.46971 0.0
C501 C 0.89866 0.65226 0.45383 0.0
H502 H 0.88771 0.71074 0.49279 0.0
C503 C 0.78417 0.6252 0.49993 0.0
C504 C 0.78638 0.63537 0.52563 0.0
C505 C 0.81012 0.63454 0.48492 0.0
C506 C 0.89038 0.69415 0.48193 0.0
H507 H 0.9946 0.68176 0.40171 0.0
H508 H 0.94369 0.67258 0.41114 0.0
H509 H 0.93672 0.72541 0.47384 0.0
H510 H 0.81766 0.66292 0.55579 0.0
H511 H 0.86254 0.67868 0.52991 0.0
H512 H 0.85272 0.62053 0.46311 0.0
C513 C 0.96081 0.68213 0.42608 0.0
C514 C 0.91836 0.70261 0.47098 0.0
C515 C 0.98986 0.68747 0.42069 0.0
C516 C 0.81504 0.65475 0.53604 0.0
C517 C 0.84082 0.66404 0.5211 0.0
C518 C 0.87062 0.6437 0.46495 0.0
C519 C 0.95395 0.68885 0.4507 0.0
C520 C 0.92303 0.68149 0.4576 0.0
C521 C 0.8387 0.65429 0.49532 0.0
C522 C 0.86656 0.66431 0.47991 0.0
H523 H 0.02198 0.71493 0.47979 0.0
H524 H 0.97175 0.7062 0.48895 0.0
H525 H 0.90178 0.63552 0.44371 0.0
H526 H 0.76242 0.61031 0.49131 0.0
H527 H 0.80781 0.62667 0.46509 0.0
C528 C 0.24233 0.40306 0.33057 0.0
C529 C 0.23062 0.37397 0.34093 0.0
C530 C 0.23171 0.40736 0.3068 0.0
C531 C 0.1926 0.36662 0.24722 0.0
H532 H 0.16911 0.42728 0.23999 0.0
C533 C 0.11799 0.36116 0.16334 0.0
C534 C 0.1266 0.38775 0.14938 0.0
C535 C 0.13114 0.36205 0.18722 0.0
C536 C 0.17588 0.41047 0.24165 0.0
H537 H 0.19887 0.32661 0.33437 0.0
H538 H 0.18058 0.33407 0.29322 0.0
H539 H 0.19319 0.4245 0.28018 0.0
H540 H 0.15455 0.43636 0.15024 0.0
H541 H 0.17775 0.43792 0.19222 0.0
H542 H 0.1752 0.35231 0.20901 0.0
C543 C 0.19805 0.35358 0.30324 0.0
C544 C 0.18972 0.40892 0.2646 0.0
C545 C 0.20846 0.34932 0.32694 0.0
C546 C 0.14743 0.41549 0.16057 0.0
C547 C 0.16072 0.41638 0.18458 0.0
C548 C 0.17885 0.36815 0.22442 0.0
C549 C 0.20946 0.3826 0.2929 0.0
C550 C 0.19765 0.38655 0.26779 0.0
C551 C 0.15336 0.38955 0.19773 0.0
C552 C 0.16972 0.38964 0.22155 0.0
H553 H 0.25935 0.42251 0.34096 0.0
H554 H 0.24103 0.42997 0.29922 0.0
H555 H 0.19905 0.34956 0.24886 0.0
H556 H 0.10175 0.33943 0.15541 0.0
H557 H 0.12439 0.34104 0.1972 0.0
C558 C 0.5726 0.73582 0.1679 0.0
C559 C 0.60057 0.74314 0.15696 0.0
C560 C 0.5712 0.74706 0.19235 0.0
C561 C 0.61584 0.78045 0.25203 0.0
H562 H 0.56829 0.8196 0.2595 0.0
C563 C 0.63957 0.86487 0.33351 0.0
C564 C 0.61503 0.86294 0.34728 0.0
C565 C 0.63504 0.84853 0.31069 0.0
C566 C 0.58136 0.80841 0.25783 0.0
H567 H 0.64885 0.76713 0.16341 0.0
H568 H 0.6464 0.78645 0.20578 0.0
H569 H 0.56462 0.79206 0.2196 0.0
H570 H 0.56647 0.84317 0.34732 0.0
H571 H 0.55853 0.81452 0.30721 0.0
H572 H 0.633 0.79711 0.28992 0.0
C573 C 0.62553 0.77201 0.19566 0.0
C574 C 0.57921 0.79258 0.23503 0.0
C575 C 0.62694 0.76106 0.17126 0.0
C576 C 0.58586 0.84516 0.33713 0.0
C577 C 0.5813 0.82877 0.31417 0.0
C578 C 0.61799 0.79622 0.27473 0.0
C579 C 0.59772 0.76548 0.20638 0.0
C580 C 0.59696 0.77902 0.23167 0.0
C581 C 0.60583 0.82979 0.30103 0.0
C582 C 0.60134 0.81099 0.27767 0.0
H583 H 0.55191 0.72214 0.15728 0.0
H584 H 0.54943 0.74148 0.20021 0.0
H585 H 0.62935 0.76974 0.25024 0.0
H586 H 0.66237 0.87851 0.34065 0.0
H587 H 0.65448 0.85039 0.30071 0.0
C588 C 0.23375 0.85776 0.16921 0.0
C589 C 0.25533 0.85414 0.15537 0.0
C590 C 0.21947 0.83997 0.19081 0.0
C591 C 0.22305 0.79315 0.24208 0.0
H592 H 0.13615 0.7576 0.24121 0.0
C593 C 0.14704 0.72307 0.32834 0.0
C594 C 0.12687 0.73252 0.3363 0.0
C595 C 0.16218 0.73277 0.30454 0.0
C596 C 0.16038 0.76733 0.24178 0.0
H597 H 0.2801 0.83014 0.15429 0.0
H598 H 0.25521 0.79914 0.19265 0.0
H599 H 0.16568 0.78631 0.20389 0.0
H600 H 0.10571 0.75831 0.32515 0.0
H601 H 0.13175 0.77496 0.28397 0.0
H602 H 0.21773 0.77511 0.28051 0.0
C603 C 0.24932 0.81569 0.18644 0.0
C604 C 0.17727 0.78377 0.22042 0.0
C605 C 0.26357 0.83346 0.16456 0.0
C606 C 0.12112 0.75064 0.31959 0.0
C607 C 0.13595 0.76006 0.29586 0.0
C608 C 0.20607 0.77676 0.26363 0.0
C609 C 0.22648 0.8182 0.19923 0.0
C610 C 0.20882 0.79763 0.22066 0.0
C611 C 0.15705 0.75171 0.28821 0.0
C612 C 0.17462 0.76449 0.26399 0.0
H613 H 0.22701 0.87363 0.16284 0.0
H614 H 0.20241 0.84283 0.20066 0.0
H615 H 0.24734 0.80358 0.24271 0.0
H616 H 0.15202 0.70921 0.34091 0.0
H617 H 0.17818 0.72583 0.29908 0.0
C618 C 0.8392 0.57978 0.83961 0.0
C619 C 0.85921 0.60831 0.85 0.0
C620 C 0.82449 0.57725 0.816 0.0
C621 C 0.80005 0.62065 0.77671 0.0
H622 H 0.79225 0.56802 0.7196 0.0
C623 C 0.7726 0.64095 0.67426 0.0
C624 C 0.75223 0.6164 0.65909 0.0
C625 C 0.78239 0.63638 0.69813 0.0
C626 C 0.79382 0.58245 0.73558 0.0
H627 H 0.88099 0.6564 0.84299 0.0
H628 H 0.85571 0.65194 0.80205 0.0
H629 H 0.81684 0.56646 0.75996 0.0
H630 H 0.72612 0.56769 0.6571 0.0
H631 H 0.74347 0.55967 0.69916 0.0
H632 H 0.77762 0.63705 0.7525 0.0
C633 C 0.85081 0.63156 0.81231 0.0
C634 C 0.80794 0.5816 0.75861 0.0
C635 C 0.86543 0.63409 0.83572 0.0
C636 C 0.74173 0.58705 0.66842 0.0
C637 C 0.75178 0.58245 0.69238 0.0
C638 C 0.78599 0.62146 0.75386 0.0
C639 C 0.82953 0.6032 0.80256 0.0
C640 C 0.81193 0.60134 0.7791 0.0
C641 C 0.77218 0.60714 0.70747 0.0
C642 C 0.78345 0.60301 0.73278 0.0
H643 H 0.83396 0.55951 0.8502 0.0
H644 H 0.80826 0.5551 0.80886 0.0
H645 H 0.8021 0.63558 0.79244 0.0
H646 H 0.78121 0.66386 0.66765 0.0
H647 H 0.79848 0.65587 0.70908 0.0
C648 C 0.41527 0.25255 0.83321 0.0
C649 C 0.38656 0.24187 0.84415 0.0
C650 C 0.41867 0.23986 0.81025 0.0
C651 C 0.37976 0.1693 0.77297 0.0
H652 H 0.42837 0.21597 0.71458 0.0
C653 C 0.36121 0.12066 0.6705 0.0
C654 C 0.38605 0.12855 0.65425 0.0
C655 C 0.36504 0.13402 0.69481 0.0
C656 C 0.41514 0.20261 0.73091 0.0
H657 H 0.33882 0.21054 0.83887 0.0
H658 H 0.34474 0.18878 0.79905 0.0
H659 H 0.42807 0.24167 0.75455 0.0
H660 H 0.43458 0.15622 0.65102 0.0
H661 H 0.44132 0.17972 0.6938 0.0
H662 H 0.36635 0.13034 0.7494 0.0
C663 C 0.36469 0.20649 0.80838 0.0
C664 C 0.41492 0.21733 0.75374 0.0
C665 C 0.3613 0.21915 0.83114 0.0
C666 C 0.41501 0.14961 0.66316 0.0
C667 C 0.41884 0.16322 0.68753 0.0
C668 C 0.38002 0.15464 0.75027 0.0
C669 C 0.39341 0.21619 0.79797 0.0
C670 C 0.39655 0.20085 0.77473 0.0
C671 C 0.39382 0.15572 0.70351 0.0
C672 C 0.39705 0.17115 0.72872 0.0
H673 H 0.43517 0.27001 0.8428 0.0
H674 H 0.44108 0.24782 0.80261 0.0
H675 H 0.36595 0.15592 0.78905 0.0
H676 H 0.33859 0.10455 0.66423 0.0
H677 H 0.34524 0.12801 0.70645 0.0
C678 C 0.7279 0.1288 0.81543 0.0
C679 C 0.72143 0.13823 0.83892 0.0
C680 C 0.73727 0.14774 0.79382 0.0
C681 C 0.78362 0.22572 0.78012 0.0
H682 H 0.76102 0.20185 0.70851 0.0
C683 C 0.82934 0.26849 0.66883 0.0
C684 C 0.85673 0.26856 0.67036 0.0
C685 C 0.8096 0.25893 0.69003 0.0
C686 C 0.76726 0.20912 0.72841 0.0
H687 H 0.7182 0.17415 0.85796 0.0
H688 H 0.7356 0.20779 0.82022 0.0
H689 H 0.7283 0.17015 0.7436 0.0
H690 H 0.88604 0.26102 0.69563 0.0
H691 H 0.85212 0.24547 0.7329 0.0
H692 H 0.82375 0.26342 0.76495 0.0
C693 C 0.7329 0.18553 0.81851 0.0
C694 C 0.74863 0.19094 0.74842 0.0
C695 C 0.7228 0.16624 0.83999 0.0
C696 C 0.86507 0.2612 0.69398 0.0
C697 C 0.84572 0.2524 0.7153 0.0
C698 C 0.80252 0.2436 0.76011 0.0
C699 C 0.74099 0.17672 0.79547 0.0
C700 C 0.75707 0.19866 0.77445 0.0
C701 C 0.81736 0.25013 0.71323 0.0
C702 C 0.7949 0.235 0.7341 0.0
H703 H 0.72708 0.10733 0.81413 0.0
H704 H 0.74361 0.1405 0.77636 0.0
H705 H 0.79079 0.23202 0.80003 0.0
H706 H 0.82227 0.27379 0.65075 0.0
H707 H 0.78782 0.25733 0.68799 0.0
C708 C 0.094 0.4897 0.00443 0.0
C709 C 0.09464 0.47894 0.02936 0.0
C710 C 0.07426 0.50017 0.99877 0.0
C711 C 0.02214 0.52288 0.02664 0.0
H712 H 0.97564 0.48528 0.96449 0.0
C713 C 0.91626 0.52922 0.00293 0.0
C714 C 0.91389 0.53709 0.97728 0.0
C715 C 0.93695 0.52013 0.00931 0.0
C716 C 0.98855 0.49618 0.98176 0.0
H717 H 0.07725 0.47355 0.06855 0.0
H718 H 0.04285 0.49204 0.05868 0.0
H719 H 0.01775 0.47822 0.97589 0.0
H720 H 0.92984 0.53957 0.9379 0.0
H721 H 0.96608 0.52391 0.94902 0.0
H722 H 0.99305 0.541 0.03244 0.0
C723 C 0.05752 0.49222 0.04347 0.0
C724 C 0.01278 0.49225 0.98825 0.0
C725 C 0.07733 0.48172 0.04916 0.0
C726 C 0.93102 0.53352 0.95782 0.0
C727 C 0.95187 0.52458 0.96423 0.0
C728 C -0.00204 0.52694 0.02008 0.0
C729 C 0.05478 0.50018 0.01793 0.0
C730 C 0.02988 0.5056 0.01073 0.0
C731 C 0.95583 0.51886 0.99021 0.0
C732 C 0.98085 0.5136 0.99757 0.0
H733 H 0.10728 0.48813 0.9888 0.0
H734 H 0.0732 0.50692 0.97906 0.0
H735 H 0.03499 0.53357 0.04399 0.0
H736 H 0.9032 0.53152 0.01835 0.0
H737 H 0.93886 0.51508 0.02939 0.0
C738 C 0.50389 0.60288 0.00426 0.0
C739 C 0.51074 0.61297 0.03005 0.0
C740 C 0.49239 0.57254 0.99828 0.0
C741 C 0.49675 0.50846 0.02387 0.0
H742 H 0.4424 0.46497 0.9673 0.0
C743 C 0.45746 0.38428 0.9996 0.0
C744 C 0.45291 0.37549 0.97339 0.0
C745 C 0.46541 0.41359 0.00667 0.0
C746 C 0.45795 0.47701 0.98292 0.0
H747 H 0.50811 0.59873 0.07004 0.0
H748 H 0.48754 0.54558 0.0596 0.0
H749 H 0.44933 0.51368 0.98056 0.0
H750 H 0.45508 0.39111 0.93394 0.0
H751 H 0.4695 0.44255 0.9463 0.0
H752 H 0.50559 0.47197 0.0261 0.0
C753 C 0.49171 0.56129 0.04397 0.0
C754 C 0.46174 0.50481 0.99063 0.0
C755 C 0.50313 0.59168 0.04997 0.0
C756 C 0.45844 0.39718 0.95429 0.0
C757 C 0.46631 0.42653 0.96139 0.0
C758 C 0.49296 0.48069 0.01616 0.0
C759 C 0.48751 0.55165 0.01797 0.0
C760 C 0.48128 0.52093 0.01113 0.0
C761 C 0.46896 0.43478 0.98771 0.0
C762 C 0.47365 0.4647 0.9955 0.0
H763 H 0.50939 0.61873 0.98848 0.0
H764 H 0.48942 0.56592 0.97806 0.0
H765 H 0.5125 0.52058 0.03935 0.0
H766 H 0.45338 0.3681 0.0148 0.0
H767 H 0.46718 0.41914 0.02711 0.0
C768 C 0.40475 0.91416 0.04347 0.0
C769 C 0.38211 0.89986 0.02467 0.0
C770 C 0.43473 0.93278 0.03594 0.0
C771 C 0.47589 0.98035 0.98035 0.0
H772 H 0.54678 0.99339 0.01802 0.0
C773 C 0.59793 0.06021 0.9453 0.0
C774 C 0.61998 0.07585 0.96431 0.0
C775 C 0.56834 0.03952 0.95253 0.0
C776 C 0.52714 0.99027 0.00751 0.0
H777 H 0.37347 0.89106 0.98349 0.0
H778 H 0.42579 0.92281 0.97044 0.0
H779 H 0.49737 0.95216 0.03065 0.0
H780 H 0.62774 0.08397 0.00567 0.0
H781 H 0.57606 0.0484 0.01818 0.0
H782 H 0.50559 0.01852 0.95729 0.0
C783 C 0.42032 0.92051 0.99092 0.0
C784 C 0.49887 0.96655 0.01467 0.0
C785 C 0.3904 0.90205 0.99842 0.0
C786 C 0.61133 0.0721 0.99054 0.0
C787 C 0.58179 0.05148 0.99775 0.0
C788 C 0.50413 0.00405 0.97318 0.0
C789 C 0.44256 0.93724 0.00949 0.0
C790 C 0.47291 0.96132 0.00118 0.0
C791 C 0.56024 0.03416 0.97888 0.0
C792 C 0.53007 0.00936 0.98674 0.0
H793 H 0.39906 0.91301 0.06384 0.0
H794 H 0.45132 0.94532 0.05075 0.0
H795 H 0.45627 0.9774 0.96991 0.0
H796 H 0.60388 0.06249 0.92493 0.0
H797 H 0.55227 0.02652 0.93751 0.0
C798 C 0.52091 0.92597 0.43885 0.0
C799 C 0.52393 0.90812 0.45794 0.0
C800 C 0.50946 0.94479 0.44537 0.0
C801 C 0.47157 0.96357 0.49788 0.0
H802 H 0.52186 0.04523 0.47292 0.0
C803 C 0.46506 0.06201 0.54367 0.0
C804 C 0.4612 0.08055 0.5259 0.0
C805 C 0.47433 0.04208 0.53507 0.0
C806 C 0.50752 0.0225 0.47994 0.0
H807 H 0.51453 0.89366 0.49807 0.0
H808 H 0.49468 0.92627 0.50939 0.0
H809 H 0.52981 0.00516 0.45653 0.0
H810 H 0.46657 0.0947 0.48565 0.0
H811 H 0.48307 0.06027 0.47077 0.0
H812 H 0.4496 0.98105 0.52157 0.0
C813 C 0.50116 0.92598 0.48944 0.0
C814 C 0.51187 -0.00053 0.47039 0.0
C815 C 0.51262 0.90727 0.48295 0.0
C816 C 0.46927 0.08064 0.49981 0.0
C817 C 0.47872 0.06089 0.49126 0.0
C818 C 0.46733 0.98661 0.50751 0.0
C819 C 0.50071 0.94594 0.47103 0.0
C820 C 0.49406 0.96975 0.47937 0.0
C821 C 0.48017 0.04055 0.50861 0.0
C822 C 0.4854 0.01637 0.49879 0.0
H823 H 0.52943 0.92712 0.4194 0.0
H824 H 0.50877 0.95943 0.4306 0.0
H825 H 0.45723 0.94088 0.50498 0.0
H826 H 0.45899 0.06138 0.56388 0.0
H827 H 0.47584 0.02707 0.54896 0.0
C828 C 0.91633 0.37968 0.51693 0.0
C829 C 0.91448 0.37272 0.54348 0.0
C830 C 0.9327 0.40948 0.50854 0.0
C831 C 0.96922 0.48892 0.52963 0.0
H832 H 0.02371 0.50149 0.47258 0.0
C833 C 0.06276 0.60747 0.50148 0.0
C834 C 0.06617 0.61447 0.47488 0.0
C835 C 0.0452 0.57775 0.50979 0.0
C836 C 0.00844 0.49836 0.48834 0.0
H837 H 0.92662 0.39166 0.58217 0.0
H838 H 0.95528 0.44382 0.56748 0.0
H839 H 0.98851 0.45049 0.48707 0.0
H840 H 0.05508 0.59563 0.43611 0.0
H841 H 0.02424 0.54364 0.45062 0.0
H842 H 0.98915 0.53679 0.53089 0.0
C843 C 0.94402 0.4262 0.55316 0.0
C844 C 0.9882 0.46914 0.49661 0.0
C845 C 0.92758 0.39631 0.56158 0.0
C846 C 0.053 0.59094 0.45673 0.0
C847 C 0.0353 0.56114 0.46507 0.0
C848 C 0.98944 0.51815 0.52132 0.0
C849 C 0.94759 0.43298 0.5265 0.0
C850 C 0.96836 0.46409 0.51734 0.0
C851 C 0.03055 0.55434 0.4917 0.0
C852 C 0.00935 0.52322 0.50063 0.0
H853 H 0.90627 0.36202 0.50249 0.0
H854 H 0.93444 0.41406 0.4879 0.0
H855 H 0.95403 0.48574 0.54547 0.0
H856 H 0.07281 0.62509 0.51596 0.0
H857 H 0.0426 0.57318 0.53043 0.0
C858 C 0.39433 0.47094 0.45159 0.0
C859 C 0.37206 0.45698 0.47076 0.0
C860 C 0.42477 0.48297 0.45791 0.0
C861 C 0.47049 0.47061 0.50573 0.0
H862 H 0.53716 0.54288 0.47661 0.0
C863 C 0.59372 0.52208 0.54079 0.0
C864 C 0.61678 0.53768 0.52259 0.0
C865 C 0.56354 0.50959 0.53346 0.0
C866 C 0.5188 0.52234 0.48457 0.0
H867 H 0.3643 0.4473 0.51191 0.0
H868 H 0.41727 0.4688 0.52296 0.0
H869 H 0.48566 0.53015 0.46661 0.0
H870 H 0.62637 0.54979 0.48198 0.0
H871 H 0.57381 0.52722 0.46906 0.0
H872 H 0.50355 0.46272 0.52364 0.0
C873 C 0.41125 0.46968 0.50296 0.0
C874 C 0.4893 0.51518 0.47894 0.0
C875 C 0.38093 0.45766 0.49666 0.0
C876 C 0.60907 0.53814 0.4965 0.0
C877 C 0.57896 0.52551 0.48915 0.0
C878 C 0.49997 0.47771 0.51129 0.0
C879 C 0.43337 0.48128 0.4835 0.0
C880 C 0.46482 0.48934 0.4896 0.0
C881 C 0.55592 0.5123 0.50776 0.0
C882 C 0.52449 0.50371 0.50085 0.0
H883 H 0.38818 0.47062 0.43144 0.0
H884 H 0.44132 0.49182 0.44248 0.0
H885 H 0.45208 0.45016 0.51379 0.0
H886 H 0.59897 0.52152 0.56107 0.0
H887 H 0.54635 0.49957 0.5483 0.0
loop_
_geom_bond_atom_site_label_1
_geom_bond_atom_site_label_2
_geom_bond_distance
_geom_bond_site_symmetry_2
_ccdc_geom_bond_type
O0 Cd1 2.223 . S
O0 C8 1.315 . S
Cd1 O0 2.223 . S
Cd1 O4 2.297 . S
Cd1 O5 2.439 . S
Cd1 O11 2.240 . S
Cd2 O3 2.240 . S
Cd2 O10 2.223 . S
Cd2 O12 2.297 . S
Cd2 O13 2.439 . S
O3 Cd2 2.240 . S
O3 C8 1.279 . S
O4 Cd1 2.297 . S
O4 C6 1.247 . S
O5 Cd1 2.439 . S
O5 C6 1.208 . S
C6 O4 1.247 . S
C6 O5 1.208 . S
C7 O12 1.247 . S
C7 O13 1.208 . S
C8 O0 1.315 . S
C8 O3 1.279 . S
C9 O10 1.315 . S
C9 O11 1.279 . S
O10 Cd2 2.223 . S
O10 C9 1.315 . S
O11 Cd1 2.240 . S
O11 C9 1.279 . S
O12 Cd2 2.297 . S
O12 C7 1.247 . S
O13 Cd2 2.439 . S
O13 C7 1.208 . S
O14 Cd15 2.223 . S
O14 C22 1.315 . S
Cd15 O14 2.223 . S
Cd15 O18 2.297 . S
Cd15 O19 2.439 . S
Cd15 O25 2.240 . S
Cd16 O17 2.240 . S
Cd16 O24 2.223 . S
Cd16 O26 2.297 . S
Cd16 O27 2.439 . S
O17 Cd16 2.240 . S
O17 C22 1.279 . S
O18 Cd15 2.297 . S
O18 C20 1.247 . S
O19 Cd15 2.439 . S
O19 C20 1.208 . S
C20 O18 1.247 . S
C20 O19 1.208 . S
C21 O26 1.247 . S
C21 O27 1.208 . S
C22 O14 1.315 . S
C22 O17 1.279 . S
C23 O24 1.315 . S
C23 O25 1.279 . S
O24 Cd16 2.223 . S
O24 C23 1.315 . S
O25 Cd15 2.240 . S
O25 C23 1.279 . S
O26 Cd16 2.297 . S
O26 C21 1.247 . S
O27 Cd16 2.439 . S
O27 C21 1.208 . S
O28 Cd29 2.223 . S
O28 C36 1.315 . S
Cd29 O28 2.223 . S
Cd29 O32 2.297 . S
Cd29 O33 2.439 . S
Cd29 O39 2.240 . S
Cd30 O31 2.240 . S
Cd30 O38 2.223 . S
Cd30 O40 2.297 . S
Cd30 O41 2.439 . S
O31 Cd30 2.240 . S
O31 C36 1.279 . S
O32 Cd29 2.297 . S
O32 C34 1.247 . S
O33 Cd29 2.439 . S
O33 C34 1.208 . S
C34 O32 1.247 . S
C34 O33 1.208 . S
C35 O40 1.247 . S
C35 O41 1.208 . S
C36 O28 1.315 . S
C36 O31 1.279 . S
C37 O38 1.315 . S
C37 O39 1.279 . S
O38 Cd30 2.223 . S
O38 C37 1.315 . S
O39 Cd29 2.240 . S
O39 C37 1.279 . S
O40 Cd30 2.297 . S
O40 C35 1.247 . S
O41 Cd30 2.439 . S
O41 C35 1.208 . S
O42 Cd43 2.223 . S
O42 C50 1.315 . S
Cd43 O42 2.223 . S
Cd43 O46 2.297 . S
Cd43 O47 2.439 . S
Cd43 O53 2.240 . S
Cd44 O45 2.240 . S
Cd44 O52 2.223 . S
Cd44 O54 2.297 . S
Cd44 O55 2.439 . S
O45 Cd44 2.240 . S
O45 C50 1.279 . S
O46 Cd43 2.297 . S
O46 C48 1.247 . S
O47 Cd43 2.439 . S
O47 C48 1.208 . S
C48 O46 1.247 . S
C48 O47 1.208 . S
C49 O54 1.247 . S
C49 O55 1.208 . S
C50 O42 1.315 . S
C50 O45 1.279 . S
C51 O52 1.315 . S
C51 O53 1.279 . S
O52 Cd44 2.223 . S
O52 C51 1.315 . S
O53 Cd43 2.240 . S
O53 C51 1.279 . S
O54 Cd44 2.297 . S
O54 C49 1.247 . S
O55 Cd44 2.439 . S
O55 C49 1.208 . S
O56 Cd57 2.223 . S
O56 C64 1.315 . S
Cd57 O56 2.223 . S
Cd57 O60 2.297 . S
Cd57 O61 2.439 . S
Cd57 O67 2.240 . S
Cd58 O59 2.240 . S
Cd58 O66 2.223 . S
Cd58 O68 2.297 . S
Cd58 O69 2.439 . S
O59 Cd58 2.240 . S
O59 C64 1.279 . S
O60 Cd57 2.297 . S
O60 C62 1.247 . S
O61 Cd57 2.439 . S
O61 C62 1.208 . S
C62 O60 1.247 . S
C62 O61 1.208 . S
C63 O68 1.247 . S
C63 O69 1.208 . S
C64 O56 1.315 . S
C64 O59 1.279 . S
C65 O66 1.315 . S
C65 O67 1.279 . S
O66 Cd58 2.223 . S
O66 C65 1.315 . S
O67 Cd57 2.240 . S
O67 C65 1.279 . S
O68 Cd58 2.297 . S
O68 C63 1.247 . S
O69 Cd58 2.439 . S
O69 C63 1.208 . S
O70 Cd71 2.223 . S
O70 C78 1.315 . S
Cd71 O70 2.223 . S
Cd71 O74 2.297 . S
Cd71 O75 2.439 . S
Cd71 O81 2.240 . S
Cd72 O73 2.240 . S
Cd72 O80 2.223 . S
Cd72 O82 2.297 . S
Cd72 O83 2.439 . S
O73 Cd72 2.240 . S
O73 C78 1.279 . S
O74 Cd71 2.297 . S
O74 C76 1.247 . S
O75 Cd71 2.439 . S
O75 C76 1.208 . S
C76 O74 1.247 . S
C76 O75 1.208 . S
C77 O82 1.247 . S
C77 O83 1.208 . S
C78 O70 1.315 . S
C78 O73 1.279 . S
C79 O80 1.315 . S
C79 O81 1.279 . S
O80 Cd72 2.223 . S
O80 C79 1.315 . S
O81 Cd71 2.240 . S
O81 C79 1.279 . S
O82 Cd72 2.297 . S
O82 C77 1.247 . S
O83 Cd72 2.439 . S
O83 C77 1.208 . S
O84 Cd85 2.223 . S
O84 C92 1.315 . S
Cd85 O84 2.223 . S
Cd85 O88 2.297 . S
Cd85 O89 2.439 . S
Cd85 O95 2.240 . S
Cd86 O87 2.240 . S
Cd86 O94 2.223 . S
Cd86 O96 2.297 . S
Cd86 O97 2.439 . S
O87 Cd86 2.240 . S
O87 C92 1.279 . S
O88 Cd85 2.297 . S
O88 C90 1.247 . S
O89 Cd85 2.439 . S
O89 C90 1.208 . S
C90 O88 1.247 . S
C90 O89 1.208 . S
C91 O96 1.247 . S
C91 O97 1.208 . S
C92 O84 1.315 . S
C92 O87 1.279 . S
C93 O94 1.315 . S
C93 O95 1.279 . S
O94 Cd86 2.223 . S
O94 C93 1.315 . S
O95 Cd85 2.240 . S
O95 C93 1.279 . S
O96 Cd86 2.297 . S
O96 C91 1.247 . S
O97 Cd86 2.439 . S
O97 C91 1.208 . S
O98 Cd99 2.223 . S
O98 C106 1.315 . S
Cd99 O98 2.223 . S
Cd99 O102 2.297 . S
Cd99 O103 2.439 . S
Cd99 O109 2.240 . S
Cd100 O101 2.240 . S
Cd100 O108 2.223 . S
Cd100 O110 2.297 . S
Cd100 O111 2.439 . S
O101 Cd100 2.240 . S
O101 C106 1.279 . S
O102 Cd99 2.297 . S
O102 C104 1.247 . S
O103 Cd99 2.439 . S
O103 C104 1.208 . S
C104 O102 1.247 . S
C104 O103 1.208 . S
C105 O110 1.247 . S
C105 O111 1.208 . S
C106 O98 1.315 . S
C106 O101 1.279 . S
C107 O108 1.315 . S
C107 O109 1.279 . S
O108 Cd100 2.223 . S
O108 C107 1.315 . S
O109 Cd99 2.240 . S
O109 C107 1.279 . S
O110 Cd100 2.297 . S
O110 C105 1.247 . S
O111 Cd100 2.439 . S
O111 C105 1.208 . S
O112 Cd113 2.223 . S
O112 C120 1.315 . S
Cd113 O112 2.223 . S
Cd113 O116 2.297 . S
Cd113 O117 2.439 . S
Cd113 O123 2.240 . S
Cd114 O115 2.240 . S
Cd114 O122 2.223 . S
Cd114 O124 2.297 . S
Cd114 O125 2.439 . S
O115 Cd114 2.240 . S
O115 C120 1.279 . S
O116 Cd113 2.297 . S
O116 C118 1.247 . S
O117 Cd113 2.439 . S
O117 C118 1.208 . S
C118 O116 1.247 . S
C118 O117 1.208 . S
C119 O124 1.247 . S
C119 O125 1.208 . S
C120 O112 1.315 . S
C120 O115 1.279 . S
C121 O122 1.315 . S
C121 O123 1.279 . S
O122 Cd114 2.223 . S
O122 C121 1.315 . S
O123 Cd113 2.240 . S
O123 C121 1.279 . S
O124 Cd114 2.297 . S
O124 C119 1.247 . S
O125 Cd114 2.439 . S
O125 C119 1.208 . S
O126 Cd127 2.223 . S
O126 C134 1.315 . S
Cd127 O126 2.223 . S
Cd127 O130 2.297 . S
Cd127 O131 2.439 . S
Cd127 O137 2.240 . S
Cd128 O129 2.240 . S
Cd128 O136 2.223 . S
Cd128 O138 2.297 . S
Cd128 O139 2.439 . S
O129 Cd128 2.240 . S
O129 C134 1.279 . S
O130 Cd127 2.297 . S
O130 C132 1.247 . S
O131 Cd127 2.439 . S
O131 C132 1.208 . S
C132 O130 1.247 . S
C132 O131 1.208 . S
C133 O138 1.247 . S
C133 O139 1.208 . S
C134 O126 1.315 . S
C134 O129 1.279 . S
C135 O136 1.315 . S
C135 O137 1.279 . S
O136 Cd128 2.223 . S
O136 C135 1.315 . S
O137 Cd127 2.240 . S
O137 C135 1.279 . S
O138 Cd128 2.297 . S
O138 C133 1.247 . S
O139 Cd128 2.439 . S
O139 C133 1.208 . S
O140 Cd141 2.223 . S
O140 C148 1.315 . S
Cd141 O140 2.223 . S
Cd141 O144 2.297 . S
Cd141 O145 2.439 . S
Cd141 O151 2.240 . S
Cd142 O143 2.240 . S
Cd142 O150 2.223 . S
Cd142 O152 2.297 . S
Cd142 O153 2.439 . S
O143 Cd142 2.240 . S
O143 C148 1.279 . S
O144 Cd141 2.297 . S
O144 C146 1.247 . S
O145 Cd141 2.439 . S
O145 C146 1.208 . S
C146 O144 1.247 . S
C146 O145 1.208 . S
C147 O152 1.247 . S
C147 O153 1.208 . S
C148 O140 1.315 . S
C148 O143 1.279 . S
C149 O150 1.315 . S
C149 O151 1.279 . S
O150 Cd142 2.223 . S
O150 C149 1.315 . S
O151 Cd141 2.240 . S
O151 C149 1.279 . S
O152 Cd142 2.297 . S
O152 C147 1.247 . S
O153 Cd142 2.439 . S
O153 C147 1.208 . S
O154 Cd155 2.223 . S
O154 C162 1.315 . S
Cd155 O154 2.223 . S
Cd155 O158 2.297 . S
Cd155 O159 2.439 . S
Cd155 O165 2.240 . S
Cd156 O157 2.240 . S
Cd156 O164 2.223 . S
Cd156 O166 2.297 . S
Cd156 O167 2.439 . S
O157 Cd156 2.240 . S
O157 C162 1.279 . S
O158 Cd155 2.297 . S
O158 C160 1.247 . S
O159 Cd155 2.439 . S
O159 C160 1.208 . S
C160 O158 1.247 . S
C160 O159 1.208 . S
C161 O166 1.247 . S
C161 O167 1.208 . S
C162 O154 1.315 . S
C162 O157 1.279 . S
C163 O164 1.315 . S
C163 O165 1.279 . S
O164 Cd156 2.223 . S
O164 C163 1.315 . S
O165 Cd155 2.240 . S
O165 C163 1.279 . S
O166 Cd156 2.297 . S
O166 C161 1.247 . S
O167 Cd156 2.439 . S
O167 C161 1.208 . S
C168 C169 1.349 . S
C168 C170 1.327 . S
C168 H193 0.950 . S
C169 C168 1.349 . S
C169 C185 1.349 . S
C170 C168 1.327 . S
C170 C189 1.429 . S
C170 H194 0.950 . S
C171 C188 1.588 . S
C171 C190 1.368 . S
C171 H195 0.949 . S
H172 C176 0.949 . S
C173 C174 1.349 . S
C173 C175 1.327 . S
C173 H196 0.950 . S
C174 C173 1.349 . S
C174 C186 1.349 . S
C175 C173 1.327 . S
C175 C191 1.429 . S
C175 H197 0.950 . S
C176 H172 0.949 . S
C176 C184 1.574 1_556 S
C176 C192 1.368 . S
H177 C185 0.950 . S
H178 C183 0.950 . S
H179 C184 0.949 . S
H180 C186 0.950 . S
H181 C187 0.950 . S
H182 C188 0.949 . S
C183 H178 0.950 . S
C183 C185 1.327 . S
C183 C189 1.429 . S
C184 C176 1.574 1_554 S
C184 H179 0.949 . S
C184 C190 1.368 . S
C185 C169 1.349 . S
C185 H177 0.950 . S
C185 C183 1.327 . S
C186 C174 1.349 . S
C186 H180 0.950 . S
C186 C187 1.327 . S
C187 H181 0.950 . S
C187 C186 1.327 . S
C187 C191 1.429 . S
C188 C171 1.588 . S
C188 H182 0.949 . S
C188 C192 1.356 1_554 S
C189 C170 1.429 . S
C189 C183 1.429 . S
C189 C190 1.523 . S
C190 C171 1.368 . S
C190 C184 1.368 . S
C190 C189 1.523 . S
C191 C175 1.429 . S
C191 C187 1.429 . S
C191 C192 1.523 . S
C192 C176 1.368 . S
C192 C188 1.356 1_556 S
C192 C191 1.523 . S
H193 C168 0.950 . S
H194 C170 0.950 . S
H195 C171 0.949 . S
H196 C173 0.950 . S
H197 C175 0.950 . S
C198 C199 1.349 . S
C198 C200 1.327 . S
C198 H223 0.950 . S
C199 C198 1.349 . S
C199 C215 1.349 . S
C200 C198 1.327 . S
C200 C219 1.429 . S
C200 H224 0.950 1_554 S
C201 C218 1.574 . S
C201 C220 1.368 . S
C201 H225 0.949 . S
H202 C206 0.949 . S
C203 C204 1.349 . S
C203 C205 1.327 1_545 S
C203 H226 0.950 . S
C204 C203 1.349 . S
C204 C216 1.349 1_545 S
C205 C203 1.327 1_565 S
C205 C221 1.429 . S
C205 H227 0.950 1_556 S
C206 H202 0.949 . S
C206 C214 1.574 . S
C206 C222 1.368 . S
H207 C215 0.950 . S
H208 C213 0.950 . S
H209 C214 0.949 . S
H210 C216 0.950 . S
H211 C217 0.950 . S
H212 C218 0.949 . S
C213 H208 0.950 . S
C213 C215 1.327 . S
C213 C219 1.429 . S
C214 C206 1.574 . S
C214 H209 0.949 . S
C214 C220 1.368 1_556 S
C215 C199 1.349 . S
C215 H207 0.950 . S
C215 C213 1.327 . S
C216 C204 1.349 1_565 S
C216 H210 0.950 . S
C216 C217 1.327 . S
C217 H211 0.950 . S
C217 C216 1.327 . S
C217 C221 1.429 . S
C218 C201 1.574 . S
C218 H212 0.949 . S
C218 C222 1.368 1_554 S
C219 C200 1.429 . S
C219 C213 1.429 . S
C219 C220 1.523 . S
C220 C201 1.368 . S
C220 C214 1.368 1_554 S
C220 C219 1.523 . S
C221 C205 1.429 . S
C221 C217 1.429 . S
C221 C222 1.523 . S
C222 C206 1.368 . S
C222 C218 1.368 1_556 S
C222 C221 1.523 . S
H223 C198 0.950 . S
H224 C200 0.950 1_556 S
H225 C201 0.949 . S
H226 C203 0.950 . S
H227 C205 0.950 1_554 S
C228 C229 1.349 . S
C228 C230 1.327 . S
C228 H253 0.950 . S
C229 C228 1.349 . S
C229 C245 1.349 . S
C230 C228 1.327 . S
C230 C249 1.429 . S
C230 H254 0.927 1_554 S
C231 C248 1.574 . S
C231 C250 1.368 . S
C231 H255 0.949 . S
H232 C236 0.949 . S
C233 C234 1.349 . S
C233 C235 1.327 1_655 S
C233 H256 0.950 . S
C234 C233 1.349 . S
C234 C246 1.349 1_655 S
C235 C233 1.327 1_455 S
C235 C251 1.429 . S
C235 H257 0.950 1_556 S
C236 H232 0.949 . S
C236 C244 1.574 . S
C236 C252 1.368 . S
H237 C245 0.950 . S
H238 C243 0.950 . S
H239 C244 0.949 . S
H240 C246 0.950 . S
H241 C247 0.950 . S
H242 C248 0.949 . S
C243 H238 0.950 . S
C243 C245 1.327 . S
C243 C249 1.429 . S
C244 C236 1.574 . S
C244 H239 0.949 . S
C244 C250 1.368 1_556 S
C245 C229 1.349 . S
C245 H237 0.950 . S
C245 C243 1.327 . S
C246 C234 1.349 1_455 S
C246 H240 0.950 . S
C246 C247 1.327 . S
C247 H241 0.950 . S
C247 C246 1.327 . S
C247 C251 1.429 . S
C248 C231 1.574 . S
C248 H242 0.949 . S
C248 C252 1.368 1_554 S
C249 C230 1.429 . S
C249 C243 1.429 . S
C249 C250 1.523 . S
C250 C231 1.368 . S
C250 C244 1.368 1_554 S
C250 C249 1.523 . S
C251 C235 1.429 . S
C251 C247 1.429 . S
C251 C252 1.523 . S
C252 C236 1.368 . S
C252 C248 1.368 1_556 S
C252 C251 1.523 . S
H253 C228 0.950 . S
H254 C230 0.927 1_556 S
H255 C231 0.949 . S
H256 C233 0.950 . S
H257 C235 0.950 1_554 S
C258 C259 1.349 . S
C258 C260 1.327 . S
C258 H283 0.950 . S
C259 C258 1.349 . S
C259 C275 1.349 . S
C260 C258 1.327 . S
C260 C279 1.429 . S
C260 H284 0.950 . S
C261 C278 1.574 . S
C261 C280 1.368 . S
C261 H285 0.949 . S
H262 C266 0.949 . S
C263 C264 1.349 . S
C263 C265 1.327 . S
C263 H286 0.950 . S
C264 C263 1.349 . S
C264 C276 1.349 . S
C265 C263 1.327 . S
C265 C281 1.429 . S
C265 H287 0.950 . S
C266 H262 0.949 . S
C266 C274 1.574 . S
C266 C282 1.368 . S
H267 C275 0.950 . S
H268 C273 0.950 . S
H269 C274 0.949 . S
H270 C276 0.950 . S
H271 C277 0.950 . S
H272 C278 0.949 . S
C273 H268 0.950 . S
C273 C275 1.327 . S
C273 C279 1.429 . S
C274 C266 1.574 . S
C274 H269 0.949 . S
C274 C280 1.368 . S
C275 C259 1.349 . S
C275 H267 0.950 . S
C275 C273 1.327 . S
C276 C264 1.349 . S
C276 H270 0.950 . S
C276 C277 1.327 . S
C277 H271 0.950 . S
C277 C276 1.327 . S
C277 C281 1.429 . S
C278 C261 1.574 . S
C278 H272 0.949 . S
C278 C282 1.368 . S
C279 C260 1.429 . S
C279 C273 1.429 . S
C279 C280 1.523 . S
C280 C261 1.368 . S
C280 C274 1.368 . S
C280 C279 1.523 . S
C281 C265 1.429 . S
C281 C277 1.429 . S
C281 C282 1.523 . S
C282 C266 1.368 . S
C282 C278 1.368 . S
C282 C281 1.523 . S
H283 C258 0.950 . S
H284 C260 0.950 . S
H285 C261 0.949 . S
H286 C263 0.950 . S
H287 C265 0.950 . S
C288 C289 1.349 . S
C288 C290 1.327 . S
C288 H313 0.950 . S
C289 C288 1.349 . S
C289 C305 1.349 . S
C290 C288 1.327 . S
C290 C309 1.429 . S
C290 H314 0.950 . S
C291 C308 1.574 . S
C291 C310 1.368 . S
C291 H315 0.949 . S
H292 C296 0.949 . S
C293 C294 1.349 1_565 S
C293 C295 1.327 . S
C293 H316 0.950 . S
C294 C293 1.349 1_545 S
C294 C306 1.349 . S
C295 C293 1.327 . S
C295 C311 1.429 . S
C295 H317 0.950 . S
C296 H292 0.949 . S
C296 C304 1.574 . S
C296 C312 1.368 . S
H297 C305 0.950 . S
H298 C303 0.950 . S
H299 C304 0.949 . S
H300 C306 0.950 . S
H301 C307 0.950 . S
H302 C308 0.949 . S
C303 H298 0.950 . S
C303 C305 1.327 . S
C303 C309 1.429 . S
C304 C296 1.574 . S
C304 H299 0.949 . S
C304 C310 1.368 . S
C305 C289 1.349 . S
C305 H297 0.950 . S
C305 C303 1.327 . S
C306 C294 1.349 . S
C306 H300 0.950 . S
C306 C307 1.327 1_545 S
C307 H301 0.950 . S
C307 C306 1.327 1_565 S
C307 C311 1.429 . S
C308 C291 1.574 . S
C308 H302 0.949 . S
C308 C312 1.368 . S
C309 C290 1.429 . S
C309 C303 1.429 . S
C309 C310 1.523 . S
C310 C291 1.368 . S
C310 C304 1.368 . S
C310 C309 1.523 . S
C311 C295 1.429 . S
C311 C307 1.429 . S
C311 C312 1.523 . S
C312 C296 1.368 . S
C312 C308 1.368 . S
C312 C311 1.523 . S
H313 C288 0.950 . S
H314 C290 0.950 . S
H315 C291 0.949 . S
H316 C293 0.950 . S
H317 C295 0.950 . S
C318 C319 1.349 . S
C318 C320 1.327 1_655 S
C318 H343 0.950 . S
C319 C318 1.349 . S
C319 C335 1.349 1_655 S
C320 C318 1.327 1_455 S
C320 C339 1.429 . S
C320 H344 0.950 . S
C321 C338 1.574 . S
C321 C340 1.368 . S
C321 H345 0.949 . S
H322 C326 0.949 . S
C323 C324 1.349 . S
C323 C325 1.327 . S
C323 H346 0.950 . S
C324 C323 1.349 . S
C324 C336 1.349 . S
C325 C323 1.327 . S
C325 C341 1.429 . S
C325 H347 0.950 . S
C326 H322 0.949 . S
C326 C334 1.574 . S
C326 C342 1.368 . S
H327 C335 0.950 . S
H328 C333 0.950 . S
H329 C334 0.949 . S
H330 C336 0.950 . S
H331 C337 0.950 . S
H332 C338 0.949 . S
C333 H328 0.950 . S
C333 C335 1.327 . S
C333 C339 1.429 . S
C334 C326 1.574 . S
C334 H329 0.949 . S
C334 C340 1.368 . S
C335 C319 1.349 1_455 S
C335 H327 0.950 . S
C335 C333 1.327 . S
C336 C324 1.349 . S
C336 H330 0.950 . S
C336 C337 1.327 . S
C337 H331 0.950 . S
C337 C336 1.327 . S
C337 C341 1.429 . S
C338 C321 1.574 . S
C338 H332 0.949 . S
C338 C342 1.368 . S
C339 C320 1.429 . S
C339 C333 1.429 . S
C339 C340 1.523 . S
C340 C321 1.368 . S
C340 C334 1.368 . S
C340 C339 1.523 . S
C341 C325 1.429 . S
C341 C337 1.429 . S
C341 C342 1.523 . S
C342 C326 1.368 . S
C342 C338 1.368 . S
C342 C341 1.523 . S
H343 C318 0.950 . S
H344 C320 0.950 . S
H345 C321 0.949 . S
H346 C323 0.950 . S
H347 C325 0.950 . S
C348 C349 1.349 . S
C348 C350 1.327 . S
C348 H373 0.950 . S
C349 C348 1.349 . S
C349 C365 1.349 . S
C350 C348 1.327 . S
C350 C369 1.429 . S
C350 H374 0.950 . S
C351 C368 1.574 . S
C351 C370 1.368 1_556 S
C351 H375 0.949 . S
H352 C356 0.949 . S
C353 C354 1.349 . S
C353 C355 1.327 . S
C353 H376 0.950 . S
C354 C353 1.349 . S
C354 C366 1.349 . S
C355 C353 1.327 . S
C355 C371 1.429 . S
C355 H377 0.950 . S
C356 H352 0.949 . S
C356 C364 1.574 . S
C356 C372 1.368 1_554 S
H357 C365 0.950 . S
H358 C363 0.950 1_556 S
H359 C364 0.949 . S
H360 C366 0.950 . S
H361 C367 0.950 1_554 S
H362 C368 0.949 . S
C363 H358 0.950 1_554 S
C363 C365 1.327 . S
C363 C369 1.429 . S
C364 C356 1.574 . S
C364 H359 0.949 . S
C364 C370 1.368 . S
C365 C349 1.349 . S
C365 H357 0.950 . S
C365 C363 1.327 . S
C366 C354 1.349 . S
C366 H360 0.950 . S
C366 C367 1.327 . S
C367 H361 0.950 1_556 S
C367 C366 1.327 . S
C367 C371 1.429 . S
C368 C351 1.574 . S
C368 H362 0.949 . S
C368 C372 1.368 . S
C369 C350 1.429 . S
C369 C363 1.429 . S
C369 C370 1.523 . S
C370 C351 1.368 1_554 S
C370 C364 1.368 . S
C370 C369 1.523 . S
C371 C355 1.429 . S
C371 C367 1.429 . S
C371 C372 1.523 . S
C372 C356 1.368 1_556 S
C372 C368 1.368 . S
C372 C371 1.523 . S
H373 C348 0.950 . S
H374 C350 0.950 . S
H375 C351 0.949 . S
H376 C353 0.950 . S
H377 C355 0.950 . S
C378 C379 1.349 . S
C378 C380 1.327 . S
C378 H403 0.950 . S
C379 C378 1.349 . S
C379 C395 1.349 . S
C380 C378 1.327 . S
C380 C399 1.429 . S
C380 H404 0.950 . S
C381 C398 1.574 . S
C381 C400 1.368 1_554 S
C381 H405 0.949 . S
H382 C386 0.949 . S
C383 C384 1.349 1_545 S
C383 C385 1.327 . S
C383 H406 0.950 1_545 S
C384 C383 1.349 1_565 S
C384 C396 1.349 . S
C385 C383 1.327 . S
C385 C401 1.429 . S
C385 H407 0.950 . S
C386 H382 0.949 . S
C386 C394 1.574 . S
C386 C402 1.368 1_556 S
H387 C395 0.950 . S
H388 C393 0.950 1_554 S
H389 C394 0.949 . S
H390 C396 0.950 . S
H391 C397 0.950 1_556 S
H392 C398 0.949 . S
C393 H388 0.950 1_556 S
C393 C395 1.327 . S
C393 C399 1.429 . S
C394 C386 1.574 . S
C394 H389 0.949 . S
C394 C400 1.368 . S
C395 C379 1.349 . S
C395 H387 0.950 . S
C395 C393 1.327 . S
C396 C384 1.349 . S
C396 H390 0.950 . S
C396 C397 1.327 1_565 S
C397 H391 0.950 1_554 S
C397 C396 1.327 1_545 S
C397 C401 1.429 . S
C398 C381 1.574 . S
C398 H392 0.949 . S
C398 C402 1.368 . S
C399 C380 1.429 . S
C399 C393 1.429 . S
C399 C400 1.523 . S
C400 C381 1.368 1_556 S
C400 C394 1.368 . S
C400 C399 1.523 . S
C401 C385 1.429 . S
C401 C397 1.429 . S
C401 C402 1.523 . S
C402 C386 1.368 1_554 S
C402 C398 1.368 . S
C402 C401 1.523 . S
H403 C378 0.950 . S
H404 C380 0.950 . S
H405 C381 0.949 . S
H406 C383 0.950 1_565 S
H407 C385 0.950 . S
C408 C409 1.349 . S
C408 C410 1.327 1_455 S
C408 H433 0.950 . S
C409 C408 1.349 . S
C409 C425 1.349 1_455 S
C410 C408 1.327 1_655 S
C410 C429 1.429 . S
C410 H434 0.950 1_554 S
C411 C428 1.574 . S
C411 C430 1.368 . S
C411 H435 0.949 . S
H412 C416 0.949 . S
C413 C414 1.349 . S
C413 C415 1.327 . S
C413 H436 0.950 . S
C414 C413 1.349 . S
C414 C426 1.349 . S
C415 C413 1.327 . S
C415 C431 1.429 . S
C415 H437 0.950 1_556 S
C416 H412 0.949 . S
C416 C424 1.574 . S
C416 C432 1.368 . S
H417 C425 0.950 . S
H418 C423 0.950 . S
H419 C424 0.949 . S
H420 C426 0.950 . S
H421 C427 0.950 . S
H422 C428 0.949 . S
C423 H418 0.950 . S
C423 C425 1.327 . S
C423 C429 1.429 . S
C424 C416 1.574 . S
C424 H419 0.949 . S
C424 C430 1.368 1_556 S
C425 C409 1.349 1_655 S
C425 H417 0.950 . S
C425 C423 1.327 . S
C426 C414 1.349 . S
C426 H420 0.950 . S
C426 C427 1.327 . S
C427 H421 0.950 . S
C427 C426 1.327 . S
C427 C431 1.429 . S
C428 C411 1.574 . S
C428 H422 0.949 . S
C428 C432 1.368 1_554 S
C429 C410 1.429 . S
C429 C423 1.429 . S
C429 C430 1.523 . S
C430 C411 1.368 . S
C430 C424 1.368 1_554 S
C430 C429 1.523 . S
C431 C415 1.429 . S
C431 C427 1.429 . S
C431 C432 1.523 . S
C432 C416 1.368 . S
C432 C428 1.368 1_556 S
C432 C431 1.523 . S
H433 C408 0.950 . S
H434 C410 0.950 1_556 S
H435 C411 0.949 . S
H436 C413 0.950 . S
H437 C415 0.950 1_554 S
C438 C439 1.349 . S
C438 C440 1.327 . S
C438 H463 0.950 . S
C439 C438 1.349 . S
C439 C455 1.349 . S
C440 C438 1.327 . S
C440 C459 1.429 . S
C440 H464 0.950 . S
C441 C458 1.574 . S
C441 C460 1.368 . S
C441 H465 0.949 . S
H442 C446 0.949 . S
C443 C444 1.349 . S
C443 C445 1.327 . S
C443 H466 0.950 . S
C444 C443 1.349 . S
C444 C456 1.349 . S
C445 C443 1.327 . S
C445 C461 1.429 . S
C445 H467 0.950 . S
C446 H442 0.949 . S
C446 C454 1.574 . S
C446 C462 1.368 . S
H447 C455 0.950 . S
H448 C453 0.950 . S
H449 C454 0.949 . S
H450 C456 0.950 . S
H451 C457 0.950 . S
H452 C458 0.949 . S
C453 H448 0.950 . S
C453 C455 1.327 . S
C453 C459 1.429 . S
C454 C446 1.574 . S
C454 H449 0.949 . S
C454 C460 1.368 . S
C455 C439 1.349 . S
C455 H447 0.950 . S
C455 C453 1.327 . S
C456 C444 1.349 . S
C456 H450 0.950 . S
C456 C457 1.327 . S
C457 H451 0.950 . S
C457 C456 1.327 . S
C457 C461 1.429 . S
C458 C441 1.574 . S
C458 H452 0.949 . S
C458 C462 1.368 . S
C459 C440 1.429 . S
C459 C453 1.429 . S
C459 C460 1.523 . S
C460 C441 1.368 . S
C460 C454 1.368 . S
C460 C459 1.523 . S
C461 C445 1.429 . S
C461 C457 1.429 . S
C461 C462 1.523 . S
C462 C446 1.368 . S
C462 C458 1.368 . S
C462 C461 1.523 . S
H463 C438 0.950 . S
H464 C440 0.950 . S
H465 C441 0.949 . S
H466 C443 0.950 . S
H467 C445 0.950 . S
C468 C469 1.349 . S
C468 C470 1.327 . S
C468 H493 0.950 . S
C469 C468 1.349 . S
C469 C485 1.349 . S
C470 C468 1.327 . S
C470 C489 1.429 . S
C470 H494 0.950 . S
C471 C488 1.574 . S
C471 C490 1.368 . S
C471 H495 0.949 . S
H472 C476 0.949 . S
C473 C474 1.349 1_545 S
C473 C475 1.327 . S
C473 H496 0.950 1_545 S
C474 C473 1.349 1_565 S
C474 C486 1.349 . S
C475 C473 1.327 . S
C475 C491 1.429 . S
C475 H497 0.950 . S
C476 H472 0.949 . S
C476 C484 1.574 . S
C476 C492 1.368 . S
H477 C485 0.950 . S
H478 C483 0.950 . S
H479 C484 0.949 . S
H480 C486 0.950 . S
H481 C487 0.950 . S
H482 C488 0.949 . S
C483 H478 0.950 . S
C483 C485 1.327 . S
C483 C489 1.429 . S
C484 C476 1.574 . S
C484 H479 0.949 . S
C484 C490 1.368 . S
C485 C469 1.349 . S
C485 H477 0.950 . S
C485 C483 1.327 . S
C486 C474 1.349 . S
C486 H480 0.950 . S
C486 C487 1.327 1_565 S
C487 H481 0.950 . S
C487 C486 1.327 1_545 S
C487 C491 1.429 . S
C488 C471 1.574 . S
C488 H482 0.949 . S
C488 C492 1.368 . S
C489 C470 1.429 . S
C489 C483 1.429 . S
C489 C490 1.523 . S
C490 C471 1.368 . S
C490 C484 1.368 . S
C490 C489 1.523 . S
C491 C475 1.429 . S
C491 C487 1.429 . S
C491 C492 1.523 . S
C492 C476 1.368 . S
C492 C488 1.368 . S
C492 C491 1.523 . S
H493 C468 0.950 . S
H494 C470 0.950 . S
H495 C471 0.949 . S
H496 C473 0.950 1_565 S
H497 C475 0.950 . S
C498 C499 1.349 . S
C498 C500 1.327 1_455 S
C498 H523 0.950 . S
C499 C498 1.349 . S
C499 C515 1.349 1_455 S
C500 C498 1.327 1_655 S
C500 C519 1.429 . S
C500 H524 0.950 . S
C501 C518 1.574 . S
C501 C520 1.368 . S
C501 H525 0.949 . S
H502 C506 0.949 . S
C503 C504 1.349 . S
C503 C505 1.327 . S
C503 H526 0.950 . S
C504 C503 1.349 . S
C504 C516 1.349 . S
C505 C503 1.327 . S
C505 C521 1.429 . S
C505 H527 0.950 . S
C506 H502 0.949 . S
C506 C514 1.574 . S
C506 C522 1.368 . S
H507 C515 0.950 . S
H508 C513 0.950 . S
H509 C514 0.949 . S
H510 C516 0.950 . S
H511 C517 0.950 . S
H512 C518 0.949 . S
C513 H508 0.950 . S
C513 C515 1.327 . S
C513 C519 1.429 . S
C514 C506 1.574 . S
C514 H509 0.949 . S
C514 C520 1.368 . S
C515 C499 1.349 1_655 S
C515 H507 0.950 . S
C515 C513 1.327 . S
C516 C504 1.349 . S
C516 H510 0.950 . S
C516 C517 1.327 . S
C517 H511 0.950 . S
C517 C516 1.327 . S
C517 C521 1.429 . S
C518 C501 1.574 . S
C518 H512 0.949 . S
C518 C522 1.368 . S
C519 C500 1.429 . S
C519 C513 1.429 . S
C519 C520 1.523 . S
C520 C501 1.368 . S
C520 C514 1.368 . S
C520 C519 1.523 . S
C521 C505 1.429 . S
C521 C517 1.429 . S
C521 C522 1.523 . S
C522 C506 1.368 . S
C522 C518 1.368 . S
C522 C521 1.523 . S
H523 C498 0.950 . S
H524 C500 0.950 . S
H525 C501 0.949 . S
H526 C503 0.950 . S
H527 C505 0.950 . S
C528 C529 1.349 . S
C528 C530 1.327 . S
C528 H553 0.950 . S
C529 C528 1.349 . S
C529 C545 1.349 . S
C530 C528 1.327 . S
C530 C549 1.429 . S
C530 H554 0.950 . S
C531 C548 1.574 . S
C531 C550 1.368 . S
C531 H555 0.949 . S
H532 C536 0.949 . S
C533 C534 1.349 . S
C533 C535 1.327 . S
C533 H556 0.950 . S
C534 C533 1.349 . S
C534 C546 1.349 . S
C535 C533 1.327 . S
C535 C551 1.429 . S
C535 H557 0.950 . S
C536 H532 0.949 . S
C536 C544 1.574 . S
C536 C552 1.368 . S
H537 C545 0.950 . S
H538 C543 0.950 . S
H539 C544 0.949 . S
H540 C546 0.950 . S
H541 C547 0.950 . S
H542 C548 0.949 . S
C543 H538 0.950 . S
C543 C545 1.327 . S
C543 C549 1.429 . S
C544 C536 1.574 . S
C544 H539 0.949 . S
C544 C550 1.368 . S
C545 C529 1.349 . S
C545 H537 0.950 . S
C545 C543 1.327 . S
C546 C534 1.349 . S
C546 H540 0.950 . S
C546 C547 1.327 . S
C547 H541 0.950 . S
C547 C546 1.327 . S
C547 C551 1.429 . S
C548 C531 1.574 . S
C548 H542 0.949 . S
C548 C552 1.368 . S
C549 C530 1.429 . S
C549 C543 1.429 . S
C549 C550 1.523 . S
C550 C531 1.368 . S
C550 C544 1.368 . S
C550 C549 1.523 . S
C551 C535 1.429 . S
C551 C547 1.429 . S
C551 C552 1.523 . S
C552 C536 1.368 . S
C552 C548 1.368 . S
C552 C551 1.523 . S
H553 C528 0.950 . S
H554 C530 0.950 . S
H555 C531 0.949 . S
H556 C533 0.950 . S
H557 C535 0.950 . S
C558 C559 1.349 . S
C558 C560 1.327 . S
C558 H583 0.950 . S
C559 C558 1.349 . S
C559 C575 1.349 . S
C560 C558 1.327 . S
C560 C579 1.429 . S
C560 H584 0.950 . S
C561 C578 1.574 . S
C561 C580 1.368 . S
C561 H585 0.949 . S
H562 C566 0.949 . S
C563 C564 1.349 . S
C563 C565 1.327 . S
C563 H586 0.950 . S
C564 C563 1.349 . S
C564 C576 1.349 . S
C565 C563 1.327 . S
C565 C581 1.429 . S
C565 H587 0.950 . S
C566 H562 0.949 . S
C566 C574 1.574 . S
C566 C582 1.368 . S
H567 C575 0.950 . S
H568 C573 0.950 . S
H569 C574 0.949 . S
H570 C576 0.950 . S
H571 C577 0.950 . S
H572 C578 0.949 . S
C573 H568 0.950 . S
C573 C575 1.327 . S
C573 C579 1.429 . S
C574 C566 1.574 . S
C574 H569 0.949 . S
C574 C580 1.368 . S
C575 C559 1.349 . S
C575 H567 0.950 . S
C575 C573 1.327 . S
C576 C564 1.349 . S
C576 H570 0.950 . S
C576 C577 1.327 . S
C577 H571 0.950 . S
C577 C576 1.327 . S
C577 C581 1.429 . S
C578 C561 1.574 . S
C578 H572 0.949 . S
C578 C582 1.368 . S
C579 C560 1.429 . S
C579 C573 1.429 . S
C579 C580 1.523 . S
C580 C561 1.368 . S
C580 C574 1.368 . S
C580 C579 1.523 . S
C581 C565 1.429 . S
C581 C577 1.429 . S
C581 C582 1.523 . S
C582 C566 1.368 . S
C582 C578 1.368 . S
C582 C581 1.523 . S
H583 C558 0.950 . S
H584 C560 0.950 . S
H585 C561 0.949 . S
H586 C563 0.950 . S
H587 C565 0.950 . S
C588 C589 1.349 . S
C588 C590 1.327 . S
C588 H613 0.950 . S
C589 C588 1.349 . S
C589 C605 1.349 . S
C590 C588 1.327 . S
C590 C609 1.429 . S
C590 H614 0.950 . S
C591 C608 1.574 . S
C591 C610 1.368 . S
C591 H615 0.949 . S
H592 C596 0.949 . S
C593 C594 1.349 . S
C593 C595 1.327 . S
C593 H616 0.950 . S
C594 C593 1.349 . S
C594 C606 1.349 . S
C595 C593 1.327 . S
C595 C611 1.429 . S
C595 H617 0.950 . S
C596 H592 0.949 . S
C596 C604 1.574 . S
C596 C612 1.368 . S
H597 C605 0.950 . S
H598 C603 0.950 . S
H599 C604 0.949 . S
H600 C606 0.950 . S
H601 C607 0.950 . S
H602 C608 0.949 . S
C603 H598 0.950 . S
C603 C605 1.327 . S
C603 C609 1.429 . S
C604 C596 1.574 . S
C604 H599 0.949 . S
C604 C610 1.368 . S
C605 C589 1.349 . S
C605 H597 0.950 . S
C605 C603 1.327 . S
C606 C594 1.349 . S
C606 H600 0.950 . S
C606 C607 1.327 . S
C607 H601 0.950 . S
C607 C606 1.327 . S
C607 C611 1.429 . S
C608 C591 1.574 . S
C608 H602 0.949 . S
C608 C612 1.368 . S
C609 C590 1.429 . S
C609 C603 1.429 . S
C609 C610 1.523 . S
C610 C591 1.368 . S
C610 C604 1.368 . S
C610 C609 1.523 . S
C611 C595 1.429 . S
C611 C607 1.429 . S
C611 C612 1.523 . S
C612 C596 1.368 . S
C612 C608 1.368 . S
C612 C611 1.523 . S
H613 C588 0.950 . S
H614 C590 0.950 . S
H615 C591 0.949 . S
H616 C593 0.950 . S
H617 C595 0.950 . S
C618 C619 1.349 . S
C618 C620 1.327 . S
C618 H643 0.950 . S
C619 C618 1.349 . S
C619 C635 1.349 . S
C620 C618 1.327 . S
C620 C639 1.429 . S
C620 H644 0.950 . S
C621 C638 1.574 . S
C621 C640 1.368 . S
C621 H645 0.949 . S
H622 C626 0.949 . S
C623 C624 1.349 . S
C623 C625 1.327 . S
C623 H646 0.950 . S
C624 C623 1.349 . S
C624 C636 1.349 . S
C625 C623 1.327 . S
C625 C641 1.429 . S
C625 H647 0.950 . S
C626 H622 0.949 . S
C626 C634 1.574 . S
C626 C642 1.368 . S
H627 C635 0.950 . S
H628 C633 0.950 . S
H629 C634 0.949 . S
H630 C636 0.950 . S
H631 C637 0.950 . S
H632 C638 0.949 . S
C633 H628 0.950 . S
C633 C635 1.327 . S
C633 C639 1.429 . S
C634 C626 1.574 . S
C634 H629 0.949 . S
C634 C640 1.368 . S
C635 C619 1.349 . S
C635 H627 0.950 . S
C635 C633 1.327 . S
C636 C624 1.349 . S
C636 H630 0.950 . S
C636 C637 1.327 . S
C637 H631 0.950 . S
C637 C636 1.327 . S
C637 C641 1.429 . S
C638 C621 1.574 . S
C638 H632 0.949 . S
C638 C642 1.368 . S
C639 C620 1.429 . S
C639 C633 1.429 . S
C639 C640 1.523 . S
C640 C621 1.368 . S
C640 C634 1.368 . S
C640 C639 1.523 . S
C641 C625 1.429 . S
C641 C637 1.429 . S
C641 C642 1.523 . S
C642 C626 1.368 . S
C642 C638 1.368 . S
C642 C641 1.523 . S
H643 C618 0.950 . S
H644 C620 0.950 . S
H645 C621 0.949 . S
H646 C623 0.950 . S
H647 C625 0.950 . S
C648 C649 1.349 . S
C648 C650 1.327 . S
C648 H673 0.950 . S
C649 C648 1.349 . S
C649 C665 1.349 . S
C650 C648 1.327 . S
C650 C669 1.429 . S
C650 H674 0.950 . S
C651 C668 1.574 . S
C651 C670 1.368 . S
C651 H675 0.949 . S
H652 C656 0.949 . S
C653 C654 1.349 . S
C653 C655 1.327 . S
C653 H676 0.950 . S
C654 C653 1.349 . S
C654 C666 1.349 . S
C655 C653 1.327 . S
C655 C671 1.429 . S
C655 H677 0.950 . S
C656 H652 0.949 . S
C656 C664 1.574 . S
C656 C672 1.368 . S
H657 C665 0.950 . S
H658 C663 0.950 . S
H659 C664 0.949 . S
H660 C666 0.950 . S
H661 C667 0.950 . S
H662 C668 0.949 . S
C663 H658 0.950 . S
C663 C665 1.327 . S
C663 C669 1.429 . S
C664 C656 1.574 . S
C664 H659 0.949 . S
C664 C670 1.368 . S
C665 C649 1.349 . S
C665 H657 0.950 . S
C665 C663 1.327 . S
C666 C654 1.349 . S
C666 H660 0.950 . S
C666 C667 1.327 . S
C667 H661 0.950 . S
C667 C666 1.327 . S
C667 C671 1.429 . S
C668 C651 1.574 . S
C668 H662 0.949 . S
C668 C672 1.368 . S
C669 C650 1.429 . S
C669 C663 1.429 . S
C669 C670 1.523 . S
C670 C651 1.368 . S
C670 C664 1.368 . S
C670 C669 1.523 . S
C671 C655 1.429 . S
C671 C667 1.429 . S
C671 C672 1.523 . S
C672 C656 1.368 . S
C672 C668 1.368 . S
C672 C671 1.523 . S
H673 C648 0.950 . S
H674 C650 0.950 . S
H675 C651 0.949 . S
H676 C653 0.950 . S
H677 C655 0.950 . S
C678 C679 1.349 . S
C678 C680 1.327 . S
C678 H703 0.950 . S
C679 C678 1.349 . S
C679 C695 1.349 . S
C680 C678 1.327 . S
C680 C699 1.429 . S
C680 H704 0.950 . S
C681 C698 1.574 . S
C681 C700 1.368 . S
C681 H705 0.949 . S
H682 C686 0.949 . S
C683 C684 1.349 . S
C683 C685 1.327 . S
C683 H706 0.950 . S
C684 C683 1.349 . S
C684 C696 1.349 . S
C685 C683 1.327 . S
C685 C701 1.429 . S
C685 H707 0.950 . S
C686 H682 0.949 . S
C686 C694 1.574 . S
C686 C702 1.368 . S
H687 C695 0.950 . S
H688 C693 0.950 . S
H689 C694 0.949 . S
H690 C696 0.950 . S
H691 C697 0.950 . S
H692 C698 0.949 . S
C693 H688 0.950 . S
C693 C695 1.327 . S
C693 C699 1.429 . S
C694 C686 1.574 . S
C694 H689 0.949 . S
C694 C700 1.368 . S
C695 C679 1.349 . S
C695 H687 0.950 . S
C695 C693 1.327 . S
C696 C684 1.349 . S
C696 H690 0.950 . S
C696 C697 1.327 . S
C697 H691 0.950 . S
C697 C696 1.327 . S
C697 C701 1.429 . S
C698 C681 1.574 . S
C698 H692 0.949 . S
C698 C702 1.368 . S
C699 C680 1.429 . S
C699 C693 1.429 . S
C699 C700 1.523 . S
C700 C681 1.368 . S
C700 C694 1.368 . S
C700 C699 1.523 . S
C701 C685 1.429 . S
C701 C697 1.429 . S
C701 C702 1.523 . S
C702 C686 1.368 . S
C702 C698 1.368 . S
C702 C701 1.523 . S
H703 C678 0.950 . S
H704 C680 0.950 . S
H705 C681 0.949 . S
H706 C683 0.950 . S
H707 C685 0.950 . S
C708 C709 1.349 . S
C708 C710 1.327 . S
C708 H733 0.950 . S
C709 C708 1.349 . S
C709 C725 1.349 . S
C710 C708 1.327 . S
C710 C729 1.429 . S
C710 H734 0.950 . S
C711 C728 1.574 . S
C711 C730 1.368 1_655 S
C711 H735 0.949 . S
H712 C716 0.949 . S
C713 C714 1.349 . S
C713 C715 1.327 . S
C713 H736 0.950 . S
C714 C713 1.349 . S
C714 C726 1.349 . S
C715 C713 1.327 . S
C715 C731 1.429 . S
C715 H737 0.950 . S
C716 H712 0.949 . S
C716 C724 1.574 . S
C716 C732 1.368 1_455 S
H717 C725 0.950 . S
H718 C723 0.950 1_655 S
H719 C724 0.949 . S
H720 C726 0.950 . S
H721 C727 0.950 1_455 S
H722 C728 0.949 . S
C723 H718 0.950 1_455 S
C723 C725 1.327 . S
C723 C729 1.429 . S
C724 C716 1.574 . S
C724 H719 0.949 . S
C724 C730 1.368 1_556 S
C725 C709 1.349 . S
C725 H717 0.950 . S
C725 C723 1.327 . S
C726 C714 1.349 . S
C726 H720 0.950 . S
C726 C727 1.327 . S
C727 H721 0.950 1_655 S
C727 C726 1.327 . S
C727 C731 1.429 . S
C728 C711 1.574 . S
C728 H722 0.949 . S
C728 C732 1.368 1_554 S
C729 C710 1.429 . S
C729 C723 1.429 . S
C729 C730 1.523 . S
C730 C711 1.368 1_455 S
C730 C724 1.368 1_554 S
C730 C729 1.523 . S
C731 C715 1.429 . S
C731 C727 1.429 . S
C731 C732 1.523 . S
C732 C716 1.368 1_655 S
C732 C728 1.368 1_556 S
C732 C731 1.523 . S
H733 C708 0.950 . S
H734 C710 0.950 . S
H735 C711 0.949 . S
H736 C713 0.950 . S
H737 C715 0.950 . S
C738 C739 1.349 . S
C738 C740 1.327 . S
C738 H763 0.950 . S
C739 C738 1.349 . S
C739 C755 1.349 . S
C740 C738 1.327 . S
C740 C759 1.429 . S
C740 H764 0.950 1_554 S
C741 C758 1.574 . S
C741 C760 1.368 . S
C741 H765 0.949 . S
H742 C746 0.949 . S
C743 C744 1.349 . S
C743 C745 1.327 . S
C743 H766 0.950 . S
C744 C743 1.349 . S
C744 C756 1.349 . S
C745 C743 1.327 . S
C745 C761 1.429 . S
C745 H767 0.950 1_556 S
C746 H742 0.949 . S
C746 C754 1.574 . S
C746 C762 1.368 . S
H747 C755 0.950 . S
H748 C753 0.950 . S
H749 C754 0.949 . S
H750 C756 0.950 . S
H751 C757 0.950 . S
H752 C758 0.949 . S
C753 H748 0.950 . S
C753 C755 1.327 . S
C753 C759 1.429 . S
C754 C746 1.574 . S
C754 H749 0.949 . S
C754 C760 1.368 1_556 S
C755 C739 1.349 . S
C755 H747 0.950 . S
C755 C753 1.327 . S
C756 C744 1.349 . S
C756 H750 0.950 . S
C756 C757 1.327 . S
C757 H751 0.950 . S
C757 C756 1.327 . S
C757 C761 1.429 . S
C758 C741 1.574 . S
C758 H752 0.949 . S
C758 C762 1.368 1_554 S
C759 C740 1.429 . S
C759 C753 1.429 . S
C759 C760 1.523 . S
C760 C741 1.368 . S
C760 C754 1.368 1_554 S
C760 C759 1.523 . S
C761 C745 1.429 . S
C761 C757 1.429 . S
C761 C762 1.523 . S
C762 C746 1.368 . S
C762 C758 1.368 1_556 S
C762 C761 1.523 . S
H763 C738 0.950 . S
H764 C740 0.950 1_556 S
H765 C741 0.949 . S
H766 C743 0.950 . S
H767 C745 0.950 1_554 S
C768 C769 1.349 . S
C768 C770 1.327 . S
C768 H793 0.950 . S
C769 C768 1.349 . S
C769 C785 1.349 . S
C770 C768 1.327 . S
C770 C789 1.429 . S
C770 H794 0.950 . S
C771 C788 1.574 . S
C771 C790 1.368 1_546 S
C771 H795 0.949 . S
H772 C776 0.949 . S
C773 C774 1.349 . S
C773 C775 1.327 . S
C773 H796 0.950 . S
C774 C773 1.349 . S
C774 C786 1.349 . S
C775 C773 1.327 . S
C775 C791 1.429 . S
C775 H797 0.950 . S
C776 H772 0.949 . S
C776 C784 1.574 . S
C776 C792 1.368 1_564 S
H777 C785 0.950 . S
H778 C783 0.950 1_545 S
H779 C784 0.949 . S
H780 C786 0.950 . S
H781 C787 0.950 1_565 S
H782 C788 0.949 . S
C783 H778 0.950 1_565 S
C783 C785 1.327 . S
C783 C789 1.429 . S
C784 C776 1.574 . S
C784 H779 0.949 . S
C784 C790 1.368 . S
C785 C769 1.349 . S
C785 H777 0.950 . S
C785 C783 1.327 . S
C786 C774 1.349 . S
C786 H780 0.950 . S
C786 C787 1.327 . S
C787 H781 0.950 1_545 S
C787 C786 1.327 . S
C787 C791 1.429 . S
C788 C771 1.574 . S
C788 H782 0.949 . S
C788 C792 1.368 . S
C789 C770 1.429 . S
C789 C783 1.429 . S
C789 C790 1.523 . S
C790 C771 1.368 1_564 S
C790 C784 1.368 . S
C790 C789 1.523 . S
C791 C775 1.429 . S
C791 C787 1.429 . S
C791 C792 1.523 . S
C792 C776 1.368 1_546 S
C792 C788 1.368 . S
C792 C791 1.523 . S
H793 C768 0.950 . S
H794 C770 0.950 . S
H795 C771 0.949 . S
H796 C773 0.950 . S
H797 C775 0.950 . S
C798 C799 1.349 . S
C798 C800 1.327 . S
C798 H823 0.950 . S
C799 C798 1.349 . S
C799 C815 1.349 . S
C800 C798 1.327 . S
C800 C819 1.429 . S
C800 H824 0.950 . S
C801 C818 1.562 1_565 S
C801 C820 1.368 . S
C801 H825 0.949 . S
H802 C806 0.949 . S
C803 C804 1.349 . S
C803 C805 1.327 . S
C803 H826 0.950 . S
C804 C803 1.349 . S
C804 C816 1.349 . S
C805 C803 1.327 . S
C805 C821 1.429 . S
C805 H827 0.950 . S
C806 H802 0.949 . S
C806 C814 1.562 1_545 S
C806 C822 1.368 . S
H807 C815 0.950 . S
H808 C813 0.950 . S
H809 C814 0.947 . S
H810 C816 0.950 . S
H811 C817 0.950 . S
H812 C818 0.947 . S
C813 H808 0.950 . S
C813 C815 1.327 . S
C813 C819 1.429 . S
C814 C806 1.562 1_565 S
C814 H809 0.947 . S
C814 C820 1.378 . S
C815 C799 1.349 . S
C815 H807 0.950 . S
C815 C813 1.327 . S
C816 C804 1.349 . S
C816 H810 0.950 . S
C816 C817 1.327 . S
C817 H811 0.950 . S
C817 C816 1.327 . S
C817 C821 1.429 . S
C818 C801 1.562 1_545 S
C818 H812 0.947 . S
C818 C822 1.378 . S
C819 C800 1.429 . S
C819 C813 1.429 . S
C819 C820 1.523 . S
C820 C801 1.368 . S
C820 C814 1.378 . S
C820 C819 1.523 . S
C821 C805 1.429 . S
C821 C817 1.429 . S
C821 C822 1.523 . S
C822 C806 1.368 . S
C822 C818 1.378 . S
C822 C821 1.523 . S
H823 C798 0.950 . S
H824 C800 0.950 . S
H825 C801 0.949 . S
H826 C803 0.950 . S
H827 C805 0.950 . S
C828 C829 1.349 . S
C828 C830 1.327 . S
C828 H853 0.950 . S
C829 C828 1.349 . S
C829 C845 1.349 . S
C830 C828 1.327 . S
C830 C849 1.429 . S
C830 H854 0.950 . S
C831 C848 1.574 . S
C831 C850 1.368 1_455 S
C831 H855 0.949 . S
H832 C836 0.949 . S
C833 C834 1.349 . S
C833 C835 1.327 . S
C833 H856 0.950 . S
C834 C833 1.349 . S
C834 C846 1.349 . S
C835 C833 1.327 . S
C835 C851 1.429 . S
C835 H857 0.950 . S
C836 H832 0.949 . S
C836 C844 1.574 . S
C836 C852 1.368 1_655 S
H837 C845 0.950 . S
H838 C843 0.950 1_455 S
H839 C844 0.949 . S
H840 C846 0.950 . S
H841 C847 0.950 1_655 S
H842 C848 0.949 . S
C843 H838 0.950 1_655 S
C843 C845 1.327 . S
C843 C849 1.429 . S
C844 C836 1.574 . S
C844 H839 0.949 . S
C844 C850 1.368 . S
C845 C829 1.349 . S
C845 H837 0.950 . S
C845 C843 1.327 . S
C846 C834 1.349 . S
C846 H840 0.950 . S
C846 C847 1.327 . S
C847 H841 0.950 1_455 S
C847 C846 1.327 . S
C847 C851 1.429 . S
C848 C831 1.574 . S
C848 H842 0.949 . S
C848 C852 1.368 . S
C849 C830 1.429 . S
C849 C843 1.429 . S
C849 C850 1.523 . S
C850 C831 1.368 1_655 S
C850 C844 1.368 . S
C850 C849 1.523 . S
C851 C835 1.429 . S
C851 C847 1.429 . S
C851 C852 1.523 . S
C852 C836 1.368 1_455 S
C852 C848 1.368 . S
C852 C851 1.523 . S
H853 C828 0.950 . S
H854 C830 0.950 . S
H855 C831 0.949 . S
H856 C833 0.950 . S
H857 C835 0.950 . S
C858 C859 1.349 . S
C858 C860 1.327 . S
C858 H883 0.950 . S
C859 C858 1.349 . S
C859 C875 1.349 . S
C860 C858 1.327 . S
C860 C879 1.429 . S
C860 H884 0.950 . S
C861 C878 1.574 . S
C861 C880 1.368 . S
C861 H885 0.949 . S
H862 C866 0.949 . S
C863 C864 1.349 . S
C863 C865 1.327 . S
C863 H886 0.950 . S
C864 C863 1.349 . S
C864 C876 1.349 . S
C865 C863 1.327 . S
C865 C881 1.429 . S
C865 H887 0.950 . S
C866 H862 0.949 . S
C866 C874 1.574 . S
C866 C882 1.368 . S
H867 C875 0.950 . S
H868 C873 0.950 . S
H869 C874 0.949 . S
H870 C876 0.950 . S
H871 C877 0.950 . S
H872 C878 0.949 . S
C873 H868 0.950 . S
C873 C875 1.327 . S
C873 C879 1.429 . S
C874 C866 1.574 . S
C874 H869 0.949 . S
C874 C880 1.368 . S
C875 C859 1.349 . S
C875 H867 0.950 . S
C875 C873 1.327 . S
C876 C864 1.349 . S
C876 H870 0.950 . S
C876 C877 1.327 . S
C877 H871 0.950 . S
C877 C876 1.327 . S
C877 C881 1.429 . S
C878 C861 1.574 . S
C878 H872 0.949 . S
C878 C882 1.368 . S
C879 C860 1.429 . S
C879 C873 1.429 . S
C879 C880 1.523 . S
C880 C861 1.368 . S
C880 C874 1.368 . S
C880 C879 1.523 . S
C881 C865 1.429 . S
C881 C877 1.429 . S
C881 C882 1.523 . S
C882 C866 1.368 . S
C882 C878 1.368 . S
C882 C881 1.523 . S
H883 C858 0.950 . S
H884 C860 0.950 . S
H885 C861 0.949 . S
H886 C863 0.950 . S
H887 C865 0.950 . S
C169 C8 0.926 . S
C174 C107 0.925 . S
C199 C22 0.926 . S
C204 C121 0.926 . S
C229 C36 0.926 . S
C234 C93 0.926 . S
C259 C163 0.925 . S
C264 C50 0.926 . S
C289 C64 0.926 . S
C294 C135 0.925 . S
C319 C149 0.926 . S
C324 C78 0.926 . S
C349 C23 0.925 . S
C354 C92 0.926 . S
C379 C106 0.926 . S
C384 C37 0.926 . S
C409 C9 0.926 . S
C414 C120 0.926 . S
C439 C134 0.926 . S
C444 C79 0.925 . S
C469 C148 0.926 . S
C474 C51 0.925 . S
C499 C65 0.926 . S
C504 C162 0.926 . S
C529 C76 1.461 . S
C534 C6 1.461 . S
C559 C20 1.461 . S
C564 C48 1.461 . S
C589 C34 1.461 . S
C594 C62 1.461 . S
C619 C90 1.461 . S
C624 C160 1.461 . S
C649 C104 1.461 . S
C654 C132 1.461 . S
C679 C118 1.461 . S
C684 C146 1.461 . S
C709 C7 1.682 . S
C714 C91 1.682 . S
C739 C21 1.681 . S
C744 C105 1.681 . S
C769 C35 1.682 . S
C774 C119 1.682 . S
C799 C49 1.682 . S
C804 C133 1.682 . S
C829 C147 1.682 . S
C834 C63 1.682 . S
C859 C77 1.681 . S
C864 C161 1.681 . S
