# Generated by pormake.
# Topology wjh, (4)-cn, num edge types: 1
# Building blocks:
#     Node 0, Type 0, BuildingBlock: QUQFOY_clean_sbu_3, # of connection points: 4
#     Node 1, Type 0, BuildingBlock: QUQFOY_clean_sbu_3, # of connection points: 4
#     Node 2, Type 0, BuildingBlock: QUQFOY_clean_sbu_3, # of connection points: 4
#     Node 3, Type 0, BuildingBlock: QUQFOY_clean_sbu_3, # of connection points: 4
#     Node 4, Type 0, BuildingBlock: QUQFOY_clean_sbu_3, # of connection points: 4
#     Node 5, Type 0, BuildingBlock: QUQFOY_clean_sbu_3, # of connection points: 4
#     Node 6, Type 0, BuildingBlock: QUQFOY_clean_sbu_3, # of connection points: 4
#     Node 7, Type 0, BuildingBlock: QUQFOY_clean_sbu_3, # of connection points: 4
#     Node 8, Type 0, BuildingBlock: QUQFOY_clean_sbu_3, # of connection points: 4
#     Node 9, Type 0, BuildingBlock: QUQFOY_clean_sbu_3, # of connection points: 4
#     Node 10, Type 0, BuildingBlock: QUQFOY_clean_sbu_3, # of connection points: 4
#     Node 11, Type 0, BuildingBlock: QUQFOY_clean_sbu_3, # of connection points: 4
#     Edge 12, Type (0, 0), BuildingBlock: XUDNAN_clean_linker_2, # of connection points: 2
#     Edge 13, Type (0, 0), BuildingBlock: XUDNAN_clean_linker_2, # of connection points: 2
#     Edge 14, Type (0, 0), BuildingBlock: XUDNAN_clean_linker_2, # of connection points: 2
#     Edge 15, Type (0, 0), BuildingBlock: XUDNAN_clean_linker_2, # of connection points: 2
#     Edge 16, Type (0, 0), BuildingBlock: XUDNAN_clean_linker_2, # of connection points: 2
#     Edge 17, Type (0, 0), BuildingBlock: XUDNAN_clean_linker_2, # of connection points: 2
#     Edge 18, Type (0, 0), BuildingBlock: XUDNAN_clean_linker_2, # of connection points: 2
#     Edge 19, Type (0, 0), BuildingBlock: XUDNAN_clean_linker_2, # of connection points: 2
#     Edge 20, Type (0, 0), BuildingBlock: XUDNAN_clean_linker_2, # of connection points: 2
#     Edge 21, Type (0, 0), BuildingBlock: XUDNAN_clean_linker_2, # of connection points: 2
#     Edge 22, Type (0, 0), BuildingBlock: XUDNAN_clean_linker_2, # of connection points: 2
#     Edge 23, Type (0, 0), BuildingBlock: XUDNAN_clean_linker_2, # of connection points: 2
#     Edge 24, Type (0, 0), BuildingBlock: XUDNAN_clean_linker_2, # of connection points: 2
#     Edge 25, Type (0, 0), BuildingBlock: XUDNAN_clean_linker_2, # of connection points: 2
#     Edge 26, Type (0, 0), BuildingBlock: XUDNAN_clean_linker_2, # of connection points: 2
#     Edge 27, Type (0, 0), BuildingBlock: XUDNAN_clean_linker_2, # of connection points: 2
#     Edge 28, Type (0, 0), BuildingBlock: XUDNAN_clean_linker_2, # of connection points: 2
#     Edge 29, Type (0, 0), BuildingBlock: XUDNAN_clean_linker_2, # of connection points: 2
#     Edge 30, Type (0, 0), BuildingBlock: XUDNAN_clean_linker_2, # of connection points: 2
#     Edge 31, Type (0, 0), BuildingBlock: XUDNAN_clean_linker_2, # of connection points: 2
#     Edge 32, Type (0, 0), BuildingBlock: XUDNAN_clean_linker_2, # of connection points: 2
#     Edge 33, Type (0, 0), BuildingBlock: XUDNAN_clean_linker_2, # of connection points: 2
#     Edge 34, Type (0, 0), BuildingBlock: XUDNAN_clean_linker_2, # of connection points: 2
#     Edge 35, Type (0, 0), BuildingBlock: XUDNAN_clean_linker_2, # of connection points: 2
# Relax obj value: 0.075
# Max RMSD: 0.098
# Mean RMSD: 0.098
data_MOF--net-wjh--node1-QUQFOY_clean_sbu_3--edge1-XUDNAN_clean_linker_2
_symmetry_space_group_name_H-M    P1
_symmetry_Int_Tables_number       1
_symmetry_cell_setting            triclinic
loop_
_symmetry_equiv_pos_as_xyz
'x, y, z'
_cell_length_a     63.026303
_cell_length_b     62.940964
_cell_length_c     27.021205
_cell_angle_alpha  89.884651
_cell_angle_beta   90.003133
_cell_angle_gamma 120.12734
loop_
_atom_site_label
_atom_site_type_symbol
_atom_site_fract_x
_atom_site_fract_y
_atom_site_fract_z
_atom_type_partial_charge
C0 C 0.54953 0.15709 0.94985 0.0
O1 O 0.56115 0.14695 0.96627 0.0
Cd2 Cd 0.55035 0.12135 0.03679 0.0
O3 O 0.53087 0.15488 0.97297 0.0
Cd4 Cd 0.51045 0.13537 0.05334 0.0
C5 C 0.48978 0.07836 0.01321 0.0
O6 O 0.54571 0.14333 0.10297 0.0
O7 O 0.51119 0.11249 0.12644 0.0
O8 O 0.51159 0.17112 0.08828 0.0
C9 C 0.53349 0.12761 0.13595 0.0
O10 O 0.51191 0.08353 0.01931 0.0
C11 C 0.48866 0.16163 0.09456 0.0
O12 O 0.48373 0.09466 0.0195 0.0
O13 O 0.47513 0.13993 0.07852 0.0
C14 C 0.39315 0.54968 0.08616 0.0
O15 O 0.41506 0.55804 0.10084 0.0
Cd16 Cd 0.42909 0.54745 0.17258 0.0
O17 O 0.37501 0.53366 0.1115 0.0
Cd18 Cd 0.3702 0.51371 0.19451 0.0
C19 C 0.40033 0.48403 0.16286 0.0
O20 O 0.40363 0.5492 0.23378 0.0
O21 O 0.38803 0.51572 0.27635 0.0
O22 O 0.33855 0.52188 0.22231 0.0
C23 C 0.40312 0.53856 0.27377 0.0
O24 O 0.41951 0.50522 0.16283 0.0
C25 C 0.32263 0.49974 0.23182 0.0
O26 O 0.37924 0.48141 0.17121 0.0
O27 O 0.32807 0.48347 0.22048 0.0
C28 C 0.84663 0.38951 0.24593 0.0
O29 O 0.85691 0.41177 0.25964 0.0
Cd30 Cd 0.88005 0.4285 0.33242 0.0
O31 O 0.84707 0.37315 0.27312 0.0
Cd32 Cd 0.86138 0.37194 0.35871 0.0
C33 C 0.92084 0.40676 0.32798 0.0
O34 O 0.85323 0.40257 0.39421 0.0
O35 O 0.87372 0.3912 0.44028 0.0
O36 O 0.82143 0.33821 0.37798 0.0
C37 C 0.86294 0.4035 0.43563 0.0
O38 O 0.91604 0.42412 0.32573 0.0
C39 C 0.82834 0.32379 0.39445 0.0
O40 O 0.90407 0.38485 0.33777 0.0
O41 O 0.85108 0.33096 0.3912 0.0
C42 C 0.42822 0.86263 0.51631 0.0
O43 O 0.41987 0.86872 0.55301 0.0
Cd44 Cd 0.4352 0.87471 0.63502 0.0
O45 O 0.44627 0.85891 0.5215 0.0
Cd46 Cd 0.4723 0.85894 0.59204 0.0
C47 C 0.49543 0.91921 0.61635 0.0
O48 O 0.43821 0.83899 0.64878 0.0
O49 O 0.47367 0.85212 0.68174 0.0
O50 O 0.47124 0.8228 0.55834 0.0
C51 C 0.45057 0.83986 0.68628 0.0
O52 O 0.47432 0.91307 0.6336 0.0
C53 C 0.49363 0.8299 0.56686 0.0
O54 O 0.49967 0.90331 0.59691 0.0
O55 O 0.50685 0.85179 0.58209 0.0
C56 C 0.58019 0.44387 0.61348 0.0
O57 O 0.55961 0.434 0.63552 0.0
Cd58 Cd 0.55148 0.43418 0.72095 0.0
O59 O 0.60019 0.45654 0.63731 0.0
Cd60 Cd 0.60965 0.4671 0.72704 0.0
C61 C 0.57734 0.49611 0.74186 0.0
O62 O 0.58071 0.42584 0.75626 0.0
O63 O 0.5967 0.45368 0.81247 0.0
O64 O 0.64497 0.46153 0.72854 0.0
C65 C 0.58411 0.43111 0.80166 0.0
O66 O 0.55856 0.47466 0.74209 0.0
C67 C 0.65918 0.48181 0.74955 0.0
O68 O 0.59856 0.49923 0.73295 0.0
O69 O 0.65123 0.49658 0.75533 0.0
C70 C 0.13666 0.59962 0.80071 0.0
O71 O 0.13161 0.58062 0.82605 0.0
Cd72 Cd 0.12592 0.57646 0.91353 0.0
O73 O 0.1391 0.61895 0.82144 0.0
Cd74 Cd 0.13697 0.63212 0.9074 0.0
C75 C 0.07781 0.58706 0.92389 0.0
O76 O 0.16021 0.61385 0.94159 0.0
O77 O 0.14768 0.63114 -0.00645 0.0
O78 O 0.16654 0.67445 0.88247 0.0
C79 C 0.16023 0.62097 0.98527 0.0
O80 O 0.08566 0.57203 0.92768 0.0
C81 C 0.15764 0.68391 0.91134 0.0
O82 O 0.09245 0.60963 0.91447 0.0
O83 O 0.13832 0.66933 0.93486 0.0
C84 C 0.8343 0.42109 0.90934 0.0
O85 O 0.84464 0.41551 0.87553 0.0
Cd86 Cd 0.86475 0.44159 0.80694 0.0
O87 O 0.83279 0.44056 0.90624 0.0
Cd88 Cd 0.84141 0.47581 0.85085 0.0
C89 C 0.90131 0.4968 0.87106 0.0
O90 O 0.8349 0.45104 0.78025 0.0
O91 O 0.84772 0.48892 0.76295 0.0
O92 O 0.80121 0.46558 0.88005 0.0
C93 C 0.84116 0.4675 0.74762 0.0
O94 O 0.89798 0.47806 0.8466 0.0
C95 C 0.80404 0.48684 0.87404 0.0
O96 O 0.8837 0.50082 0.87938 0.0
O97 O 0.82505 0.50374 0.85994 0.0
C98 C 0.37923 0.84786 0.16779 0.0
O99 O 0.39783 0.85141 0.14279 0.0
Cd100 Cd 0.40333 0.85286 0.05548 0.0
O101 O 0.35965 0.84442 0.14643 0.0
Cd102 Cd 0.34648 0.84241 0.05831 0.0
C103 C 0.39277 0.90032 0.0308 0.0
O104 O 0.3655 0.81932 0.02979 0.0
O105 O 0.34975 0.83087 0.97313 0.0
O106 O 0.30343 0.81185 0.07425 0.0
C107 C 0.36075 0.81939 0.98446 0.0
O108 O 0.40749 0.89199 0.03011 0.0
C109 C 0.2951 0.82281 0.04789 0.0
O110 O 0.37035 0.88658 0.0428 0.0
O111 O 0.31061 0.84379 0.03099 0.0
C112 C 0.54085 0.39121 0.26881 0.0
O113 O 0.55027 0.40416 0.23025 0.0
Cd114 Cd 0.53411 0.39398 0.14875 0.0
O115 O 0.52147 0.37006 0.26628 0.0
Cd116 Cd 0.49327 0.34125 0.20151 0.0
C117 C 0.47418 0.38097 0.17208 0.0
O118 O 0.52503 0.35311 0.14108 0.0
O119 O 0.48864 0.33064 0.11269 0.0
O120 O 0.49594 0.30817 0.24046 0.0
C121 C 0.51151 0.34199 0.10457 0.0
O122 O 0.49541 0.39386 0.15289 0.0
C123 C 0.47364 0.29193 0.23375 0.0
O124 O 0.46835 0.36108 0.19517 0.0
O125 O 0.45956 0.29937 0.21747 0.0
C126 C 0.14809 0.56307 0.452 0.0
O127 O 0.14289 0.57208 0.41505 0.0
Cd128 Cd 0.14148 0.56087 0.33141 0.0
O129 O 0.15334 0.54605 0.44636 0.0
Cd130 Cd 0.15752 0.52431 0.37179 0.0
C131 C 0.09836 0.49944 0.33856 0.0
O132 O 0.17889 0.56092 0.32221 0.0
O133 O 0.16435 0.52764 0.28058 0.0
O134 O 0.19409 0.52497 0.4023 0.0
C135 C 0.17799 0.55079 0.28149 0.0
O136 O 0.10463 0.52076 0.32208 0.0
C137 C 0.18718 0.50291 0.39063 0.0
O138 O 0.11368 0.4956 0.36183 0.0
O139 O 0.16523 0.48993 0.3757 0.0
C140 C 0.59391 0.16916 0.61276 0.0
O141 O 0.57746 0.16062 0.57961 0.0
Cd142 Cd 0.57806 0.13622 0.51338 0.0
O143 O 0.61314 0.16738 0.60844 0.0
Cd144 Cd 0.63306 0.15382 0.54572 0.0
C145 C 0.59254 0.09648 0.57649 0.0
O146 O 0.6156 0.15927 0.47044 0.0
O147 O 0.62811 0.13309 0.46673 0.0
O148 O 0.66807 0.19447 0.54495 0.0
C149 C 0.61977 0.14506 0.44438 0.0
O150 O 0.57762 0.10097 0.55313 0.0
C151 C 0.68429 0.1882 0.54709 0.0
O152 O 0.6149 0.11304 0.5824 0.0
O153 O 0.67671 0.1654 0.55229 0.0
C154 C 0.43191 0.596 0.75246 0.0
O155 O 0.425 0.57805 0.72297 0.0
Cd156 Cd 0.44956 0.57641 0.6585 0.0
O157 O 0.45221 0.61598 0.74577 0.0
Cd158 Cd 0.48549 0.63528 0.68166 0.0
C159 C 0.5058 0.59826 0.71996 0.0
O160 O 0.46117 0.61222 0.6127 0.0
O161 O 0.50017 0.63201 0.59913 0.0
O162 O 0.47616 0.66748 0.67168 0.0
C163 C 0.47868 0.61837 0.58265 0.0
O164 O 0.48606 0.58153 0.70029 0.0
C165 C 0.49806 0.68523 0.67339 0.0
O166 O 0.51108 0.62065 0.72004 0.0
O167 O 0.51464 0.68004 0.68374 0.0
H168 H 0.56691 0.16436 0.19309 0.0
H169 H 0.52695 0.08516 0.17721 0.0
H170 H 0.54851 0.08134 0.25049 0.0
H171 H 0.62454 0.17186 0.2388 0.0
H172 H 0.6289 0.19522 0.28274 0.0
H173 H 0.61239 0.19183 0.22613 0.0
H174 H 0.57504 0.18674 0.27635 0.0
H175 H 0.59151 0.19034 0.33298 0.0
H176 H 0.56185 0.16343 0.32372 0.0
H177 H 0.57451 0.08647 0.32514 0.0
H178 H 0.59778 0.09934 0.40366 0.0
H179 H 0.61728 0.17478 0.37465 0.0
C180 C 0.56298 0.14627 0.20488 0.0
C181 C 0.54565 0.12504 0.17971 0.0
C182 C 0.54031 0.10157 0.1964 0.0
C183 C 0.55257 0.09928 0.23754 0.0
C184 C 0.56968 0.12064 0.26169 0.0
C185 C 0.5745 0.14364 0.24655 0.0
C186 C 0.59169 0.16347 0.28174 0.0
C187 C 0.61581 0.18166 0.25579 0.0
C188 C 0.57927 0.17676 0.30508 0.0
C189 C 0.59565 0.14801 0.31934 0.0
C190 C 0.58333 0.12344 0.30646 0.0
C191 C 0.58423 0.10564 0.33565 0.0
C192 C 0.59756 0.11311 0.37992 0.0
C193 C 0.6092 0.138 0.39476 0.0
C194 C 0.6085 0.15565 0.36383 0.0
H195 H 0.3962 0.52782 0.3718 0.0
H196 H 0.44816 0.57966 0.26586 0.0
H197 H 0.47596 0.60356 0.33431 0.0
H198 H 0.40201 0.57194 0.45593 0.0
H199 H 0.39862 0.55394 0.51044 0.0
H200 H 0.38483 0.53886 0.45314 0.0
H201 H 0.40798 0.51454 0.45796 0.0
H202 H 0.42184 0.52957 0.51547 0.0
H203 H 0.44089 0.53095 0.46439 0.0
H204 H 0.49673 0.62305 0.41444 0.0
H205 H 0.50703 0.63868 0.50035 0.0
H206 H 0.43984 0.57546 0.55246 0.0
C207 C 0.4137 0.54387 0.36309 0.0
C208 C 0.4203 0.55185 0.31392 0.0
C209 C 0.44295 0.57331 0.30359 0.0
C210 C 0.45887 0.58686 0.34208 0.0
C211 C 0.45167 0.57874 0.39043 0.0
C212 C 0.42953 0.55784 0.40103 0.0
C213 C 0.42475 0.55458 0.45603 0.0
C214 C 0.40117 0.55487 0.46965 0.0
C215 C 0.42382 0.53101 0.47454 0.0
C216 C 0.44736 0.57722 0.47463 0.0
C217 C 0.46298 0.59063 0.43644 0.0
C218 C 0.48473 0.61265 0.44473 0.0
C219 C 0.49044 0.62137 0.49342 0.0
C220 C 0.47411 0.60828 0.53249 0.0
C221 C 0.45254 0.58583 0.52301 0.0
H222 H 0.84865 0.43112 0.715 0.0
H223 H 0.84275 0.49349 0.6649 0.0
H224 H 0.84915 0.48482 0.57834 0.0
H225 H 0.89707 0.44062 0.63046 0.0
H226 H 0.88541 0.40819 0.62239 0.0
H227 H 0.88026 0.41943 0.67976 0.0
H228 H 0.83337 0.3901 0.67063 0.0
H229 H 0.83836 0.37874 0.61333 0.0
H230 H 0.81816 0.39125 0.61503 0.0
H231 H 0.85336 0.46725 0.49733 0.0
H232 H 0.85783 0.44393 0.4284 0.0
H233 H 0.86425 0.39548 0.53401 0.0
C234 C 0.84868 0.44297 0.68585 0.0
C235 C 0.84502 0.46283 0.69621 0.0
C236 C 0.84549 0.47814 0.65734 0.0
C237 C 0.84911 0.47336 0.60829 0.0
C238 C 0.85267 0.45355 0.59937 0.0
C239 C 0.85278 0.43881 0.6372 0.0
C240 C 0.85733 0.4189 0.61827 0.0
C241 C 0.88146 0.42199 0.63895 0.0
C242 C 0.8355 0.39324 0.63 0.0
C243 C 0.85929 0.42438 0.56357 0.0
C244 C 0.85641 0.44433 0.55328 0.0
C245 C 0.856 0.45184 0.50496 0.0
C246 C 0.85847 0.4385 0.46618 0.0
C247 C 0.86165 0.41818 0.47627 0.0
C248 C 0.86233 0.41126 0.5255 0.0
H249 H 0.40359 0.82568 0.7109 0.0
H250 H 0.47082 0.83277 0.77001 0.0
H251 H 0.45124 0.8198 0.85238 0.0
H252 H 0.39266 0.85312 0.80716 0.0
H253 H 0.3597 0.83429 0.80628 0.0
H254 H 0.37693 0.83856 0.75061 0.0
H255 H 0.35719 0.79135 0.74161 0.0
H256 H 0.33985 0.78693 0.79757 0.0
H257 H 0.35927 0.77364 0.79194 0.0
H258 H 0.42643 0.81166 0.92963 0.0
H259 H 0.40033 0.81302 -0.00378 0.0
H260 H 0.35019 0.81308 0.88636 0.0
C261 C 0.41396 0.82379 0.74082 0.0
C262 C 0.4386 0.83 0.73425 0.0
C263 C 0.45185 0.82797 0.77446 0.0
C264 C 0.44081 0.82042 0.82116 0.0
C265 C 0.41659 0.81498 0.82672 0.0
C266 C 0.40336 0.81664 0.78756 0.0
C267 C 0.37907 0.81346 0.80433 0.0
C268 C 0.377 0.83621 0.79135 0.0
C269 C 0.35757 0.78994 0.78257 0.0
C270 C 0.38119 0.81101 0.85945 0.0
C271 C 0.40258 0.81113 0.87156 0.0
C272 C 0.40944 0.81111 0.92058 0.0
C273 C 0.3945 0.81187 0.95813 0.0
C274 C 0.37332 0.81319 0.94618 0.0
C275 C 0.36621 0.8119 0.89637 0.0
H276 H 0.55515 0.38058 0.07565 0.0
H277 H 0.48915 0.31749 0.01942 0.0
H278 H 0.50333 0.33124 0.9337 0.0
H279 H 0.55432 0.42182 -0.00537 0.0
H280 H 0.5871 0.44047 0.98745 0.0
H281 H 0.57447 0.42324 0.0435 0.0
H282 H 0.59999 0.40168 0.03169 0.0
H283 H 0.61297 0.41908 0.97574 0.0
H284 H 0.59773 0.38601 0.97445 0.0
H285 H 0.52263 0.35414 0.85517 0.0
H286 H 0.54454 0.38515 0.7899 0.0
H287 H 0.59613 0.43445 0.89917 0.0
C288 C 0.54403 0.36921 0.04534 0.0
C289 C 0.5212 0.34786 0.05388 0.0
C290 C 0.5068 0.33384 0.01337 0.0
C291 C 0.51474 0.34145 0.96471 0.0
C292 C 0.537 0.36313 0.95757 0.0
C293 C 0.55143 0.37679 -0.00317 0.0
C294 C 0.57292 0.4009 0.9798 0.0
C295 C 0.57213 0.42289 0.0027 0.0
C296 C 0.59735 0.40196 -0.00892 0.0
C297 C 0.56794 0.39904 0.92491 0.0
C298 C 0.54748 0.3769 0.91262 0.0
C299 C 0.53881 0.37142 0.86425 0.0
C300 C 0.55131 0.38914 0.82754 0.0
C301 C 0.57188 0.41214 0.83981 0.0
C302 C 0.58038 0.41701 0.88896 0.0
H303 H 0.16682 0.53495 0.18555 0.0
H304 H 0.20748 0.6003 0.27529 0.0
H305 H 0.21431 0.6262 0.20206 0.0
H306 H 0.2034 0.563 0.06522 0.0
H307 H 0.17584 0.54645 0.02896 0.0
H308 H 0.17955 0.53305 0.08503 0.0
H309 H 0.13847 0.52748 0.11795 0.0
H310 H 0.13477 0.5411 0.06262 0.0
H311 H 0.13448 0.55387 0.12211 0.0
H312 H 0.20711 0.6442 0.12814 0.0
H313 H 0.19015 0.65338 0.05396 0.0
H314 H 0.15671 0.57738 0.00831 0.0
C315 C 0.17805 0.55469 0.18922 0.0
C316 C 0.18653 0.56565 0.23596 0.0
C317 C 0.20075 0.59154 0.23975 0.0
C318 C 0.20486 0.60642 0.1983 0.0
C319 C 0.19503 0.59512 0.1532 0.0
C320 C 0.1824 0.56983 0.148 0.0
C321 C 0.17106 0.56236 0.09702 0.0
C322 C 0.1832 0.55052 0.0673 0.0
C323 C 0.14305 0.54521 0.10017 0.0
C324 C 0.17768 0.58724 0.07594 0.0
C325 C 0.19183 0.60593 0.10874 0.0
C326 C 0.19692 0.62996 0.1012 0.0
C327 C 0.18709 0.63498 0.05935 0.0
C328 C 0.17271 0.61612 0.0255 0.0
C329 C 0.16845 0.59216 0.03311 0.0
H330 H 0.50265 0.27244 0.25254 0.0
H331 H 0.42899 0.25264 0.2074 0.0
H332 H 0.42222 0.21263 0.17763 0.0
H333 H 0.51694 0.25484 0.14984 0.0
H334 H 0.53552 0.24328 0.17592 0.0
H335 H 0.53225 0.26632 0.2083 0.0
H336 H 0.51605 0.2386 0.28613 0.0
H337 H 0.51997 0.21558 0.25457 0.0
H338 H 0.49058 0.20769 0.28063 0.0
H339 H 0.42678 0.17893 0.1367 0.0
H340 H 0.44181 0.15452 0.09228 0.0
H341 H 0.51336 0.19877 0.15937 0.0
C342 C 0.48464 0.25922 0.23875 0.0
C343 C 0.46633 0.26563 0.23249 0.0
C344 C 0.44322 0.24802 0.2131 0.0
C345 C 0.43924 0.22525 0.1959 0.0
C346 C 0.45849 0.22036 0.19877 0.0
C347 C 0.48063 0.23676 0.2206 0.0
C348 C 0.49976 0.22936 0.21218 0.0
C349 C 0.52242 0.24965 0.18493 0.0
C350 C 0.507 0.22238 0.2613 0.0
C351 C 0.48544 0.20711 0.1798 0.0
C352 C 0.46148 0.20169 0.17347 0.0
C353 C 0.44538 0.18276 0.14221 0.0
C354 C 0.45407 0.16911 0.1169 0.0
C355 C 0.47877 0.17497 0.12212 0.0
C356 C 0.49442 0.19399 0.15443 0.0
H357 H 0.31406 0.53115 0.28519 0.0
H358 H 0.28037 0.45483 0.24071 0.0
H359 H 0.243 0.4455 0.28835 0.0
H360 H 0.28849 0.5192 0.41073 0.0
H361 H 0.2848 0.54581 0.40997 0.0
H362 H 0.30919 0.54589 0.37499 0.0
H363 H 0.29361 0.55635 0.29477 0.0
H364 H 0.26957 0.55676 0.32971 0.0
H365 H 0.26206 0.53705 0.27648 0.0
H366 H 0.20791 0.44596 0.33383 0.0
H367 H 0.17823 0.4564 0.36991 0.0
H368 H 0.23676 0.5317 0.38945 0.0
C369 C 0.29885 0.51243 0.28546 0.0
C370 C 0.29995 0.49374 0.2589 0.0
C371 C 0.2798 0.46944 0.26069 0.0
C372 C 0.25862 0.46396 0.28789 0.0
C373 C 0.25821 0.4829 0.31389 0.0
C374 C 0.27791 0.50661 0.31304 0.0
C375 C 0.27271 0.52397 0.34212 0.0
C376 C 0.28981 0.53432 0.38712 0.0
C377 C 0.27458 0.54474 0.30877 0.0
C378 C 0.24658 0.50658 0.35794 0.0
C379 C 0.23853 0.48289 0.34181 0.0
C380 C 0.21417 0.46431 0.34756 0.0
C381 C 0.19745 0.47037 0.36831 0.0
C382 C 0.20524 0.49479 0.38307 0.0
C383 C 0.23033 0.51274 0.37976 0.0
H384 H 0.70336 0.23694 0.53099 0.0
H385 H 0.72342 0.18038 0.53686 0.0
H386 H 0.76453 0.20998 0.50339 0.0
H387 H 0.7283 0.25942 0.41749 0.0
H388 H 0.73845 0.29113 0.43105 0.0
H389 H 0.71271 0.26716 0.46379 0.0
H390 H 0.7341 0.28501 0.54782 0.0
H391 H 0.75978 0.30942 0.51539 0.0
H392 H 0.76463 0.29031 0.55832 0.0
H393 H 0.80234 0.24552 0.46093 0.0
H394 H 0.83247 0.28299 0.41527 0.0
H395 H 0.78484 0.31365 0.43375 0.0
C396 C 0.71658 0.23088 0.5267 0.0
C397 C 0.71025 0.20641 0.53683 0.0
C398 C 0.728 0.19915 0.52983 0.0
C399 C 0.75135 0.21582 0.51069 0.0
C400 C 0.75655 0.23957 0.49895 0.0
C401 C 0.73963 0.24705 0.50719 0.0
C402 C 0.74842 0.27258 0.48747 0.0
C403 C 0.73093 0.27254 0.44759 0.0
C404 C 0.75195 0.29038 0.52977 0.0
C405 C 0.77266 0.27816 0.46548 0.0
C406 C 0.77741 0.25922 0.47304 0.0
C407 C 0.7988 0.26048 0.45508 0.0
C408 C 0.81573 0.28171 0.42905 0.0
C409 C 0.81079 0.30101 0.42048 0.0
C410 C 0.78899 0.29906 0.43908 0.0
H411 H 0.46627 0.78054 0.55392 0.0
H412 H 0.53984 0.83865 0.58994 0.0
H413 H 0.5505 0.80752 0.61644 0.0
H414 H 0.45815 0.74686 0.65697 0.0
H415 H 0.44061 0.71705 0.62872 0.0
H416 H 0.44026 0.74306 0.60218 0.0
H417 H 0.45498 0.73565 0.51776 0.0
H418 H 0.45468 0.70908 0.54355 0.0
H419 H 0.48221 0.73312 0.51516 0.0
H420 H 0.55104 0.76974 0.64972 0.0
H421 H 0.5419 0.72898 0.68173 0.0
H422 H 0.46718 0.69732 0.62829 0.0
C423 C 0.48494 0.78676 0.56545 0.0
C424 C 0.50227 0.81201 0.5695 0.0
C425 C 0.52633 0.81936 0.586 0.0
C426 C 0.53252 0.80181 0.60136 0.0
C427 C 0.51444 0.77706 0.59981 0.0
C428 C 0.49124 0.76958 0.58155 0.0
C429 C 0.47423 0.74233 0.58853 0.0
C430 C 0.45202 0.73704 0.62103 0.0
C431 C 0.46605 0.72928 0.53826 0.0
C432 C 0.49121 0.7357 0.61497 0.0
C433 C 0.51444 0.75577 0.62059 0.0
C434 C 0.53295 0.75387 0.64508 0.0
C435 C 0.52757 0.73075 0.66347 0.0
C436 C 0.50378 0.71007 0.65796 0.0
C437 C 0.48548 0.7128 0.63362 0.0
H438 H 0.7091 0.51267 0.737 0.0
H439 H 0.65417 0.45546 0.83044 0.0
H440 H 0.68665 0.4568 0.88347 0.0
H441 H 0.74877 0.48945 0.73604 0.0
H442 H 0.77683 0.5187 0.73675 0.0
H443 H 0.7494 0.5164 0.71135 0.0
H444 H 0.75361 0.55035 0.77149 0.0
H445 H 0.78097 0.55249 0.79751 0.0
H446 H 0.75554 0.54649 0.83715 0.0
H447 H 0.72371 0.45987 0.9192 0.0
H448 H 0.76356 0.4622 0.93171 0.0
H449 H 0.79571 0.51759 0.81663 0.0
C450 C 0.70413 0.50088 0.76925 0.0
C451 C 0.67936 0.48404 0.78017 0.0
C452 C 0.6732 0.46845 0.82185 0.0
C453 C 0.69146 0.46925 0.85237 0.0
C454 C 0.71581 0.48579 0.84064 0.0
C455 C 0.72229 0.50126 0.79999 0.0
C456 C 0.74986 0.51501 0.79247 0.0
C457 C 0.7566 0.50954 0.74113 0.0
C458 C 0.76063 0.54273 0.80012 0.0
C459 C 0.75762 0.50395 0.83371 0.0
C460 C 0.73769 0.48758 0.86173 0.0
C461 C 0.7396 0.47304 0.89839 0.0
C462 C 0.76228 0.47448 0.90529 0.0
C463 C 0.78268 0.49035 0.87572 0.0
C464 C 0.78056 0.50593 0.84083 0.0
H465 H 0.17277 0.69973 0.00332 0.0
H466 H 0.17723 0.72521 0.8528 0.0
H467 H 0.20715 0.76768 0.87939 0.0
H468 H 0.18641 0.75772 0.07169 0.0
H469 H 0.20547 0.75338 0.11552 0.0
H470 H 0.17936 0.72711 0.08838 0.0
H471 H 0.20755 0.71078 0.05807 0.0
H472 H 0.23359 0.73684 0.08506 0.0
H473 H 0.23385 0.73027 0.02023 0.0
H474 H 0.24005 0.80563 0.91999 0.0
H475 H 0.27798 0.83359 0.96472 0.0
H476 H 0.2556 0.78163 0.0863 0.0
C477 C 0.17925 0.71455 0.97656 0.0
C478 C 0.17223 0.70966 0.92652 0.0
C479 C 0.18204 0.72895 0.89155 0.0
C480 C 0.19888 0.75304 0.90648 0.0
C481 C 0.20598 0.75724 0.95617 0.0
C482 C 0.19669 0.73837 -0.00946 0.0
C483 C 0.21086 0.74626 0.03867 0.0
C484 C 0.19455 0.74611 0.08107 0.0
C485 C 0.22213 0.73009 0.05118 0.0
C486 C 0.23035 0.77219 0.02541 0.0
C487 C 0.22654 0.77854 0.97852 0.0
C488 C 0.24303 0.80097 0.95691 0.0
C489 C 0.26452 0.81679 0.98278 0.0
C490 C 0.2697 0.80973 0.02902 0.0
C491 C 0.25195 0.78758 0.0513 0.0
H492 H 0.61866 0.1781 0.70015 0.0
H493 H 0.5574 0.17971 0.63089 0.0
H494 H 0.54408 0.18622 0.71236 0.0
H495 H 0.58741 0.14218 0.7936 0.0
H496 H 0.61061 0.15632 0.84073 0.0
H497 H 0.61944 0.15905 0.77696 0.0
H498 H 0.64324 0.20652 0.78419 0.0
H499 H 0.63461 0.20395 0.8485 0.0
H500 H 0.62777 0.2221 0.80683 0.0
H501 H 0.53223 0.18308 0.80124 0.0
H502 H 0.52309 0.17034 0.88888 0.0
H503 H 0.59198 0.1708 0.90015 0.0
C504 C 0.60308 0.18091 0.70184 0.0
C505 C 0.58913 0.17845 0.65919 0.0
C506 C 0.56844 0.18159 0.66309 0.0
C507 C 0.56079 0.18544 0.70923 0.0
C508 C 0.57418 0.18641 0.75105 0.0
C509 C 0.59513 0.18457 0.74765 0.0
C510 C 0.60405 0.18227 0.79823 0.0
C511 C 0.60542 0.15855 0.8026 0.0
C512 C 0.62889 0.20507 0.81013 0.0
C513 C 0.58387 0.18123 0.83025 0.0
C514 C 0.56718 0.18439 0.80269 0.0
C515 C 0.5455 0.18125 0.82348 0.0
C516 C 0.54043 0.17397 0.87327 0.0
C517 C 0.55681 0.16955 0.90126 0.0
C518 C 0.57917 0.17419 0.8798 0.0
H519 H 0.44806 0.62018 0.84011 0.0
H520 H 0.38359 0.56219 0.76784 0.0
H521 H 0.36235 0.54952 0.84825 0.0
H522 H 0.44861 0.58646 0.9324 0.0
H523 H 0.45878 0.60923 0.98066 0.0
H524 H 0.4661 0.61873 0.91741 0.0
H525 H 0.44555 0.64537 0.92516 0.0
H526 H 0.43832 0.6361 0.989 0.0
H527 H 0.41431 0.6316 0.94666 0.0
H528 H 0.3518 0.53722 0.9364 0.0
H529 H 0.3535 0.52631 0.02377 0.0
H530 H 0.42498 0.59175 0.03863 0.0
C531 C 0.42906 0.60561 0.84097 0.0
C532 C 0.41742 0.59228 0.79786 0.0
C533 C 0.39282 0.57273 0.80052 0.0
C534 C 0.38054 0.56549 0.84602 0.0
C535 C 0.39304 0.57808 0.88846 0.0
C536 C 0.4167 0.59797 0.88623 0.0
C537 C 0.42766 0.60568 0.93733 0.0
C538 C 0.45167 0.60495 0.94219 0.0
C539 C 0.43168 0.6312 0.9503 0.0
C540 C 0.40726 0.58591 0.96819 0.0
C541 C 0.38709 0.57063 0.93972 0.0
C542 C 0.3672 0.54943 0.95937 0.0
C543 C 0.36831 0.54333 0.00897 0.0
C544 C 0.3894 0.55816 0.03774 0.0
C545 C 0.40859 0.58012 0.01747 0.0
H546 H 0.82027 0.43243 -0.00398 0.0
H547 H 0.83128 0.37666 0.92641 0.0
H548 H 0.82587 0.35629 0.00719 0.0
H549 H 0.85617 0.44179 0.09156 0.0
H550 H 0.8385 0.4468 0.13771 0.0
H551 H 0.83566 0.45264 0.07384 0.0
H552 H 0.78871 0.42274 0.07777 0.0
H553 H 0.79136 0.4169 0.14219 0.0
H554 H 0.77705 0.39169 0.09924 0.0
H555 H 0.82846 0.34742 0.09624 0.0
H556 H 0.84001 0.35188 0.18474 0.0
H557 H 0.8282 0.41386 0.19581 0.0
C558 C 0.82052 0.41536 -0.00262 0.0
C559 C 0.82616 0.40613 0.95499 0.0
C560 C 0.82693 0.38406 0.95846 0.0
C561 C 0.8237 0.37224 0.00417 0.0
C562 C 0.81947 0.38258 0.04588 0.0
C563 C 0.81759 0.40354 0.04273 0.0
C564 C 0.81715 0.41343 0.09339 0.0
C565 C 0.83812 0.44022 0.09943 0.0
C566 C 0.79207 0.41103 0.10375 0.0
C567 C 0.82105 0.39596 0.12533 0.0
C568 C 0.82146 0.37774 0.09758 0.0
C569 C 0.82754 0.36119 0.11856 0.0
C570 C 0.83412 0.36386 0.16877 0.0
C571 C 0.83505 0.38327 0.19676 0.0
C572 C 0.82754 0.39882 0.17514 0.0
H573 H 0.44453 0.85698 0.42553 0.0
H574 H 0.38494 0.86115 0.49675 0.0
H575 H 0.36494 0.85611 0.41587 0.0
H576 H 0.44759 0.8915 0.31834 0.0
H577 H 0.45436 0.87337 0.27659 0.0
H578 H 0.46345 0.87618 0.34048 0.0
H579 H 0.43969 0.82874 0.3493 0.0
H580 H 0.43049 0.8258 0.2854 0.0
H581 H 0.40761 0.81165 0.33322 0.0
H582 H 0.35158 0.85119 0.32683 0.0
H583 H 0.34698 0.84846 0.23573 0.0
H584 H 0.41561 0.84826 0.2234 0.0
C585 C 0.42721 0.85668 0.42419 0.0
C586 C 0.41632 0.85942 0.46753 0.0
C587 C 0.39372 0.85914 0.46406 0.0
C588 C 0.38213 0.8562 0.4183 0.0
C589 C 0.39338 0.85362 0.37629 0.0
C590 C 0.41545 0.85392 0.37877 0.0
C591 C 0.4241 0.85166 0.32789 0.0
C592 C 0.44883 0.87454 0.31508 0.0
C593 C 0.42555 0.82805 0.32373 0.0
C594 C 0.40354 0.85022 0.2965 0.0
C595 C 0.38588 0.85118 0.32504 0.0
C596 C 0.36527 0.85038 0.30403 0.0
C597 C 0.36279 0.84879 0.25232 0.0
C598 C 0.38094 0.84822 0.22239 0.0
C599 C 0.40142 0.84875 0.24511 0.0
H600 H 0.54307 0.40803 0.55985 0.0
H601 H 0.6176 0.46913 0.54624 0.0
H602 H 0.61645 0.46119 0.45611 0.0
H603 H 0.54905 0.36837 0.47114 0.0
H604 H 0.51817 0.35607 0.44855 0.0
H605 H 0.52538 0.36631 0.51171 0.0
H606 H 0.50812 0.3956 0.49826 0.0
H607 H 0.50084 0.38545 0.43514 0.0
H608 H 0.52002 0.41769 0.44848 0.0
H609 H 0.60575 0.44777 0.36673 0.0
H610 H 0.58725 0.42937 0.28613 0.0
H611 H 0.52033 0.37625 0.3607 0.0
C612 C 0.55923 0.41981 0.53808 0.0
C613 C 0.58039 0.43935 0.55993 0.0
C614 C 0.6012 0.45409 0.53016 0.0
C615 C 0.60069 0.4497 0.47906 0.0
C616 C 0.57938 0.43034 0.45877 0.0
C617 C 0.55912 0.41554 0.48754 0.0
C618 C 0.53835 0.39606 0.45714 0.0
C619 C 0.5324 0.37017 0.47309 0.0
C620 C 0.51549 0.39889 0.45992 0.0
C621 C 0.54984 0.40244 0.40633 0.0
C622 C 0.57351 0.42224 0.40794 0.0
C623 C 0.58735 0.43211 0.36514 0.0
C624 C 0.57664 0.42157 0.31956 0.0
C625 C 0.55238 0.40129 0.31721 0.0
C626 C 0.539 0.39151 0.36133 0.0
H627 H 0.14592 0.5424 0.54344 0.0
H628 H 0.15043 0.6065 0.47229 0.0
H629 H 0.14926 0.6233 0.55364 0.0
H630 H 0.10339 0.53656 0.63696 0.0
H631 H 0.11685 0.52713 0.68483 0.0
H632 H 0.11944 0.52055 0.62103 0.0
H633 H 0.16678 0.54294 0.62935 0.0
H634 H 0.16433 0.54953 0.69326 0.0
H635 H 0.18307 0.5742 0.65121 0.0
H636 H 0.14675 0.63298 0.64196 0.0
H637 H 0.14215 0.63434 0.73245 0.0
H638 H 0.13828 0.56369 0.74649 0.0
C639 C 0.14692 0.56007 0.54507 0.0
C640 C 0.1483 0.57312 0.5015 0.0
C641 C 0.14927 0.59608 0.50514 0.0
C642 C 0.1487 0.60586 0.55119 0.0
C643 C 0.14706 0.59246 0.59337 0.0
C644 C 0.14614 0.57006 0.59088 0.0
C645 C 0.14347 0.55904 0.64196 0.0
C646 C 0.11935 0.53436 0.64644 0.0
C647 C 0.16574 0.55628 0.65469 0.0
C648 C 0.1429 0.5787 0.67326 0.0
C649 C 0.14517 0.59788 0.64452 0.0
C650 C 0.145 0.6181 0.665 0.0
C651 C 0.14238 0.61871 0.7164 0.0
C652 C 0.1398 0.59913 0.74659 0.0
C653 C 0.14013 0.57893 0.72449 0.0
H654 H 0.49662 0.03929 -0.00148 0.0
H655 H 0.43983 0.05894 0.00795 0.0
H656 H 0.40816 0.01499 0.00435 0.0
H657 H 0.46263 0.98482 0.91664 0.0
H658 H 0.47491 0.96821 0.94865 0.0
H659 H 0.49274 0.00121 0.94402 0.0
H660 H 0.49707 0.00414 0.03952 0.0
H661 H 0.47909 0.97127 0.04454 0.0
H662 H 0.46983 0.99017 0.07746 0.0
H663 H 0.38308 0.96884 0.01114 0.0
H664 H 0.36666 0.92448 0.02499 0.0
H665 H 0.44022 0.93561 0.01113 0.0
C666 C 0.47753 0.03446 -0.00146 0.0
C667 C 0.47072 0.05259 0.00344 0.0
C668 C 0.44551 0.0454 0.00394 0.0
C669 C 0.42738 0.02047 0.00189 0.0
C670 C 0.4348 0.00304 -0.00117 0.0
C671 C 0.45929 0.00977 -0.00344 0.0
C672 C 0.46261 0.98759 -0.00243 0.0
C673 C 0.47389 0.98533 0.94881 0.0
C674 C 0.47805 0.98835 0.04244 0.0
C675 C 0.43621 0.96734 0.00267 0.0
C676 C 0.42039 0.97653 0.00272 0.0
C677 C 0.39526 0.96139 0.01031 0.0
C678 C 0.38613 0.93623 0.01836 0.0
C679 C 0.40213 0.92652 0.01905 0.0
C680 C 0.42743 0.94235 0.01038 0.0
H681 H 0.48238 0.42367 0.12941 0.0
H682 H 0.4265 0.35918 0.20661 0.0
H683 H 0.39869 0.37632 0.20317 0.0
H684 H 0.4732 0.46604 0.19259 0.0
H685 H 0.47912 0.48596 0.14006 0.0
H686 H 0.49292 0.46701 0.14323 0.0
H687 H 0.47388 0.44789 0.05819 0.0
H688 H 0.45989 0.46677 0.05487 0.0
H689 H 0.44121 0.43387 0.04943 0.0
H690 H 0.37848 0.40271 0.19703 0.0
H691 H 0.36914 0.43654 0.19362 0.0
H692 H 0.43904 0.48302 0.12142 0.0
C693 C 0.46416 0.41283 0.14495 0.0
C694 C 0.45661 0.39001 0.16815 0.0
C695 C 0.43268 0.37668 0.1885 0.0
C696 C 0.41673 0.38622 0.1865 0.0
C697 C 0.42498 0.40899 0.16381 0.0
C698 C 0.44818 0.42205 0.14343 0.0
C699 C 0.45369 0.44696 0.12492 0.0
C700 C 0.47604 0.4677 0.15183 0.0
C701 C 0.45737 0.44898 0.0685 0.0
C702 C 0.43023 0.44628 0.13931 0.0
C703 C 0.41364 0.42413 0.16091 0.0
C704 C 0.39123 0.42 0.17961 0.0
C705 C 0.38604 0.43926 0.17737 0.0
C706 C 0.40338 0.46237 0.15725 0.0
C707 C 0.42538 0.46554 0.13688 0.0
H708 H 0.06112 0.50228 0.29357 0.0
H709 H 0.07725 0.45147 0.37072 0.0
H710 H 0.03339 0.41949 0.36629 0.0
H711 H 0.00777 0.48673 0.35573 0.0
H712 H 0.99202 0.49013 0.30331 0.0
H713 H 0.02493 0.5074 0.30596 0.0
H714 H 0.02736 0.48948 0.22117 0.0
H715 H -0.00566 0.47209 0.21829 0.0
H716 H 0.01179 0.45664 0.21288 0.0
H717 H 0.98682 0.39462 0.36117 0.0
H718 H 0.94231 0.38021 0.35901 0.0
H719 H 0.95783 0.44796 0.2859 0.0
C720 C 0.05562 0.4843 0.30868 0.0
C721 C 0.07266 0.47939 0.33238 0.0
C722 C 0.06454 0.45565 0.3522 0.0
C723 C 0.03968 0.43734 0.34968 0.0
C724 C 0.02328 0.44302 0.32689 0.0
C725 C 0.03102 0.46594 0.30658 0.0
C726 C 0.00969 0.46837 0.28826 0.0
C727 C 0.00854 0.48939 0.31493 0.0
C728 C 0.01087 0.47184 0.23179 0.0
C729 C 0.98861 0.44356 0.30306 0.0
C730 C -0.0033 0.42893 0.32445 0.0
C731 C 0.9803 0.40579 0.34382 0.0
C732 C 0.95507 0.39773 0.34236 0.0
C733 C 0.94665 0.41298 0.32233 0.0
C734 C 0.96369 0.43584 0.30135 0.0
H735 H 0.48917 0.95885 0.62299 0.0
H736 H 0.54531 0.93851 0.61047 0.0
H737 H 0.5773 0.98253 0.60906 0.0
H738 H 0.51559 0.00696 0.53786 0.0
H739 H 0.50644 0.02615 0.56996 0.0
H740 H 0.48861 0.99332 0.57651 0.0
H741 H 0.49355 -0.00231 0.67185 0.0
H742 H 0.51153 0.03061 0.66555 0.0
H743 H 0.52385 0.01424 0.69835 0.0
H744 H 0.6029 0.02906 0.60482 0.0
H745 H 0.6193 0.07342 0.58923 0.0
H746 H 0.54571 0.0622 0.60041 0.0
C747 C 0.50822 0.96361 0.62094 0.0
C748 C 0.51482 0.94532 0.61741 0.0
C749 C 0.5399 0.9523 0.61341 0.0
C750 C 0.55817 0.97722 0.61291 0.0
C751 C 0.55099 0.99483 0.61611 0.0
C752 C 0.52656 0.98827 0.61962 0.0
C753 C 0.52332 0.01047 0.61759 0.0
C754 C 0.50757 0.00914 0.57281 0.0
C755 C 0.51242 0.01342 0.66624 0.0
C756 C 0.54969 0.03057 0.61137 0.0
C757 C 0.56549 0.02133 0.61166 0.0
C758 C 0.5907 0.03651 0.60486 0.0
C759 C 0.59987 0.06166 0.59625 0.0
C760 C 0.58373 0.07114 0.5936 0.0
C761 C 0.55846 0.05543 0.60229 0.0
H762 H 0.53583 0.49484 0.77366 0.0
H763 H 0.61069 0.54536 0.72797 0.0
H764 H 0.60242 0.57983 0.73318 0.0
H765 H 0.50885 0.51836 0.70191 0.0
H766 H 0.48515 0.51363 0.74536 0.0
H767 H 0.49859 0.4944 0.74794 0.0
H768 H 0.51018 0.50624 0.83995 0.0
H769 H 0.49677 0.52567 0.83756 0.0
H770 H 0.52818 0.53817 0.85687 0.0
H771 H 0.58372 0.60746 0.73092 0.0
H772 H 0.55618 0.62442 0.71704 0.0
H773 H 0.49408 0.55516 0.76362 0.0
C774 C 0.55073 0.51322 0.76585 0.0
C775 C 0.57389 0.5174 0.75035 0.0
C776 C 0.59281 0.54173 0.74017 0.0
C777 C 0.5883 0.56143 0.74326 0.0
C778 C 0.56493 0.55649 0.75729 0.0
C779 C 0.54655 0.53291 0.76876 0.0
C780 C 0.52224 0.53163 0.77701 0.0
C781 C 0.50258 0.51346 0.74089 0.0
C782 C 0.51386 0.52504 0.83107 0.0
C783 C 0.52939 0.55787 0.76558 0.0
C784 C 0.5542 0.57221 0.75561 0.0
C785 C 0.5644 0.59653 0.73968 0.0
C786 C 0.54868 0.60607 0.73207 0.0
C787 C 0.5231 0.59105 0.73947 0.0
C788 C 0.51362 0.56706 0.75814 0.0
H789 H 0.04083 0.53939 0.91866 0.0
H790 H 0.05459 0.61387 0.93428 0.0
H791 H 0.00993 0.59829 0.93142 0.0
H792 H -0.00452 0.52142 0.83032 0.0
H793 H 0.97714 0.49033 0.85248 0.0
H794 H 0.00966 0.50687 0.86331 0.0
H795 H 0.00217 0.49915 0.95766 0.0
H796 H 0.96954 0.48243 0.9471 0.0
H797 H 0.98266 0.50812 0.98905 0.0
H798 H 0.96375 0.57461 0.92001 0.0
H799 H 0.92065 0.54531 0.89699 0.0
H800 H 0.93833 0.48715 0.88581 0.0
C801 C 0.03448 0.5524 0.92271 0.0
C802 C 0.05117 0.57781 0.92709 0.0
C803 C 0.0421 0.59429 0.93109 0.0
C804 C 0.01678 0.5856 0.92971 0.0
C805 C 0.00084 0.56044 0.92426 0.0
C806 C 0.00939 0.54411 0.92084 0.0
C807 C 0.98885 0.51832 0.91048 0.0
C808 C -0.00696 0.50869 0.86122 0.0
C809 C 0.98562 0.50099 0.95366 0.0
C810 C 0.96746 0.52276 0.90716 0.0
C811 C 0.97456 0.54703 0.91615 0.0
C812 C 0.95795 0.55551 0.91333 0.0
C813 C 0.93354 0.53877 0.90026 0.0
C814 C 0.92622 0.51403 0.88939 0.0
C815 C 0.9434 0.50599 0.8937 0.0
loop_
_geom_bond_atom_site_label_1
_geom_bond_atom_site_label_2
_geom_bond_distance
_geom_bond_site_symmetry_2
_ccdc_geom_bond_type
C0 O1 1.306 . S
C0 O3 1.160 . S
O1 C0 1.306 . S
O1 Cd2 2.228 1_556 S
Cd2 O1 2.228 1_554 S
Cd2 O6 2.273 . S
Cd2 O10 2.277 . S
O3 C0 1.160 . S
O3 Cd4 2.203 1_556 S
Cd4 O3 2.203 1_554 S
Cd4 O6 2.411 . S
Cd4 O7 2.333 . S
Cd4 O8 2.352 . S
Cd4 O12 2.277 . S
Cd4 O13 2.356 . S
C5 O10 1.209 . S
C5 O12 1.226 . S
O6 Cd2 2.273 . S
O6 Cd4 2.411 . S
O6 C9 1.320 . S
O7 Cd4 2.333 . S
O7 C9 1.214 . S
O8 Cd4 2.352 . S
O8 C11 1.258 . S
C9 O6 1.320 . S
C9 O7 1.214 . S
O10 Cd2 2.277 . S
O10 C5 1.209 . S
C11 O8 1.258 . S
C11 O13 1.282 . S
O12 Cd4 2.277 . S
O12 C5 1.226 . S
O13 Cd4 2.356 . S
O13 C11 1.282 . S
C14 O15 1.306 . S
C14 O17 1.160 . S
O15 C14 1.306 . S
O15 Cd16 2.228 . S
Cd16 O15 2.228 . S
Cd16 O20 2.273 . S
Cd16 O24 2.277 . S
O17 C14 1.160 . S
O17 Cd18 2.203 . S
Cd18 O17 2.203 . S
Cd18 O20 2.411 . S
Cd18 O21 2.333 . S
Cd18 O22 2.352 . S
Cd18 O26 2.277 . S
Cd18 O27 2.356 . S
C19 O24 1.209 . S
C19 O26 1.226 . S
O20 Cd16 2.273 . S
O20 Cd18 2.411 . S
O20 C23 1.320 . S
O21 Cd18 2.333 . S
O21 C23 1.214 . S
O22 Cd18 2.352 . S
O22 C25 1.258 . S
C23 O20 1.320 . S
C23 O21 1.214 . S
O24 Cd16 2.277 . S
O24 C19 1.209 . S
C25 O22 1.258 . S
C25 O27 1.282 . S
O26 Cd18 2.277 . S
O26 C19 1.226 . S
O27 Cd18 2.356 . S
O27 C25 1.282 . S
C28 O29 1.306 . S
C28 O31 1.160 . S
O29 C28 1.306 . S
O29 Cd30 2.228 . S
Cd30 O29 2.228 . S
Cd30 O34 2.273 . S
Cd30 O38 2.277 . S
O31 C28 1.160 . S
O31 Cd32 2.203 . S
Cd32 O31 2.203 . S
Cd32 O34 2.411 . S
Cd32 O35 2.333 . S
Cd32 O36 2.352 . S
Cd32 O40 2.277 . S
Cd32 O41 2.356 . S
C33 O38 1.209 . S
C33 O40 1.226 . S
O34 Cd30 2.273 . S
O34 Cd32 2.411 . S
O34 C37 1.320 . S
O35 Cd32 2.333 . S
O35 C37 1.214 . S
O36 Cd32 2.352 . S
O36 C39 1.258 . S
C37 O34 1.320 . S
C37 O35 1.214 . S
O38 Cd30 2.277 . S
O38 C33 1.209 . S
C39 O36 1.258 . S
C39 O41 1.282 . S
O40 Cd32 2.277 . S
O40 C33 1.226 . S
O41 Cd32 2.356 . S
O41 C39 1.282 . S
C42 O43 1.306 . S
C42 O45 1.160 . S
O43 C42 1.306 . S
O43 Cd44 2.228 . S
Cd44 O43 2.228 . S
Cd44 O48 2.273 . S
Cd44 O52 2.277 . S
O45 C42 1.160 . S
O45 Cd46 2.203 . S
Cd46 O45 2.203 . S
Cd46 O48 2.411 . S
Cd46 O49 2.333 . S
Cd46 O50 2.352 . S
Cd46 O54 2.277 . S
Cd46 O55 2.356 . S
C47 O52 1.209 . S
C47 O54 1.226 . S
O48 Cd44 2.273 . S
O48 Cd46 2.411 . S
O48 C51 1.320 . S
O49 Cd46 2.333 . S
O49 C51 1.214 . S
O50 Cd46 2.352 . S
O50 C53 1.258 . S
C51 O48 1.320 . S
C51 O49 1.214 . S
O52 Cd44 2.277 . S
O52 C47 1.209 . S
C53 O50 1.258 . S
C53 O55 1.282 . S
O54 Cd46 2.277 . S
O54 C47 1.226 . S
O55 Cd46 2.356 . S
O55 C53 1.282 . S
C56 O57 1.306 . S
C56 O59 1.160 . S
O57 C56 1.306 . S
O57 Cd58 2.228 . S
Cd58 O57 2.228 . S
Cd58 O62 2.273 . S
Cd58 O66 2.277 . S
O59 C56 1.160 . S
O59 Cd60 2.203 . S
Cd60 O59 2.203 . S
Cd60 O62 2.411 . S
Cd60 O63 2.333 . S
Cd60 O64 2.352 . S
Cd60 O68 2.277 . S
Cd60 O69 2.356 . S
C61 O66 1.209 . S
C61 O68 1.226 . S
O62 Cd58 2.273 . S
O62 Cd60 2.411 . S
O62 C65 1.320 . S
O63 Cd60 2.333 . S
O63 C65 1.214 . S
O64 Cd60 2.352 . S
O64 C67 1.258 . S
C65 O62 1.320 . S
C65 O63 1.214 . S
O66 Cd58 2.277 . S
O66 C61 1.209 . S
C67 O64 1.258 . S
C67 O69 1.282 . S
O68 Cd60 2.277 . S
O68 C61 1.226 . S
O69 Cd60 2.356 . S
O69 C67 1.282 . S
C70 O71 1.306 . S
C70 O73 1.160 . S
O71 C70 1.306 . S
O71 Cd72 2.228 . S
Cd72 O71 2.228 . S
Cd72 O76 2.273 . S
Cd72 O80 2.277 . S
O73 C70 1.160 . S
O73 Cd74 2.203 . S
Cd74 O73 2.203 . S
Cd74 O76 2.411 . S
Cd74 O77 2.333 . S
Cd74 O78 2.352 . S
Cd74 O82 2.277 . S
Cd74 O83 2.356 . S
C75 O80 1.209 . S
C75 O82 1.226 . S
O76 Cd72 2.273 . S
O76 Cd74 2.411 . S
O76 C79 1.320 . S
O77 Cd74 2.333 . S
O77 C79 1.214 . S
O78 Cd74 2.352 . S
O78 C81 1.258 . S
C79 O76 1.320 . S
C79 O77 1.214 . S
O80 Cd72 2.277 . S
O80 C75 1.209 . S
C81 O78 1.258 . S
C81 O83 1.282 . S
O82 Cd74 2.277 . S
O82 C75 1.226 . S
O83 Cd74 2.356 . S
O83 C81 1.282 . S
C84 O85 1.306 . S
C84 O87 1.160 . S
O85 C84 1.306 . S
O85 Cd86 2.228 . S
Cd86 O85 2.228 . S
Cd86 O90 2.273 . S
Cd86 O94 2.277 . S
O87 C84 1.160 . S
O87 Cd88 2.203 . S
Cd88 O87 2.203 . S
Cd88 O90 2.411 . S
Cd88 O91 2.333 . S
Cd88 O92 2.352 . S
Cd88 O96 2.277 . S
Cd88 O97 2.356 . S
C89 O94 1.209 . S
C89 O96 1.226 . S
O90 Cd86 2.273 . S
O90 Cd88 2.411 . S
O90 C93 1.320 . S
O91 Cd88 2.333 . S
O91 C93 1.214 . S
O92 Cd88 2.352 . S
O92 C95 1.258 . S
C93 O90 1.320 . S
C93 O91 1.214 . S
O94 Cd86 2.277 . S
O94 C89 1.209 . S
C95 O92 1.258 . S
C95 O97 1.282 . S
O96 Cd88 2.277 . S
O96 C89 1.226 . S
O97 Cd88 2.356 . S
O97 C95 1.282 . S
C98 O99 1.306 . S
C98 O101 1.160 . S
O99 C98 1.306 . S
O99 Cd100 2.228 . S
Cd100 O99 2.228 . S
Cd100 O104 2.268 1_554 S
Cd100 O108 2.277 . S
O101 C98 1.160 . S
O101 Cd102 2.203 . S
Cd102 O101 2.203 . S
Cd102 O104 2.407 1_554 S
Cd102 O105 2.333 1_554 S
Cd102 O106 2.352 . S
Cd102 O110 2.277 . S
Cd102 O111 2.356 . S
C103 O108 1.209 . S
C103 O110 1.226 . S
O104 Cd100 2.268 1_556 S
O104 Cd102 2.407 1_556 S
O104 C107 1.328 . S
O105 Cd102 2.333 1_556 S
O105 C107 1.214 . S
O106 Cd102 2.352 . S
O106 C109 1.258 . S
C107 O104 1.328 . S
C107 O105 1.214 . S
O108 Cd100 2.277 . S
O108 C103 1.209 . S
C109 O106 1.258 . S
C109 O111 1.282 . S
O110 Cd102 2.277 . S
O110 C103 1.226 . S
O111 Cd102 2.356 . S
O111 C109 1.282 . S
C112 O113 1.306 . S
C112 O115 1.160 . S
O113 C112 1.306 . S
O113 Cd114 2.228 . S
Cd114 O113 2.228 . S
Cd114 O118 2.273 . S
Cd114 O122 2.277 . S
O115 C112 1.160 . S
O115 Cd116 2.203 . S
Cd116 O115 2.203 . S
Cd116 O118 2.411 . S
Cd116 O119 2.333 . S
Cd116 O120 2.352 . S
Cd116 O124 2.277 . S
Cd116 O125 2.356 . S
C117 O122 1.209 . S
C117 O124 1.226 . S
O118 Cd114 2.273 . S
O118 Cd116 2.411 . S
O118 C121 1.320 . S
O119 Cd116 2.333 . S
O119 C121 1.214 . S
O120 Cd116 2.352 . S
O120 C123 1.258 . S
C121 O118 1.320 . S
C121 O119 1.214 . S
O122 Cd114 2.277 . S
O122 C117 1.209 . S
C123 O120 1.258 . S
C123 O125 1.282 . S
O124 Cd116 2.277 . S
O124 C117 1.226 . S
O125 Cd116 2.356 . S
O125 C123 1.282 . S
C126 O127 1.306 . S
C126 O129 1.160 . S
O127 C126 1.306 . S
O127 Cd128 2.228 . S
Cd128 O127 2.228 . S
Cd128 O132 2.273 . S
Cd128 O136 2.277 . S
O129 C126 1.160 . S
O129 Cd130 2.203 . S
Cd130 O129 2.203 . S
Cd130 O132 2.411 . S
Cd130 O133 2.333 . S
Cd130 O134 2.352 . S
Cd130 O138 2.277 . S
Cd130 O139 2.356 . S
C131 O136 1.209 . S
C131 O138 1.226 . S
O132 Cd128 2.273 . S
O132 Cd130 2.411 . S
O132 C135 1.320 . S
O133 Cd130 2.333 . S
O133 C135 1.214 . S
O134 Cd130 2.352 . S
O134 C137 1.258 . S
C135 O132 1.320 . S
C135 O133 1.214 . S
O136 Cd128 2.277 . S
O136 C131 1.209 . S
C137 O134 1.258 . S
C137 O139 1.282 . S
O138 Cd130 2.277 . S
O138 C131 1.226 . S
O139 Cd130 2.356 . S
O139 C137 1.282 . S
C140 O141 1.306 . S
C140 O143 1.160 . S
O141 C140 1.306 . S
O141 Cd142 2.228 . S
Cd142 O141 2.228 . S
Cd142 O146 2.273 . S
Cd142 O150 2.277 . S
O143 C140 1.160 . S
O143 Cd144 2.203 . S
Cd144 O143 2.203 . S
Cd144 O146 2.411 . S
Cd144 O147 2.333 . S
Cd144 O148 2.352 . S
Cd144 O152 2.277 . S
Cd144 O153 2.356 . S
C145 O150 1.209 . S
C145 O152 1.226 . S
O146 Cd142 2.273 . S
O146 Cd144 2.411 . S
O146 C149 1.320 . S
O147 Cd144 2.333 . S
O147 C149 1.214 . S
O148 Cd144 2.352 . S
O148 C151 1.258 . S
C149 O146 1.320 . S
C149 O147 1.214 . S
O150 Cd142 2.277 . S
O150 C145 1.209 . S
C151 O148 1.258 . S
C151 O153 1.282 . S
O152 Cd144 2.277 . S
O152 C145 1.226 . S
O153 Cd144 2.356 . S
O153 C151 1.282 . S
C154 O155 1.306 . S
C154 O157 1.160 . S
O155 C154 1.306 . S
O155 Cd156 2.228 . S
Cd156 O155 2.228 . S
Cd156 O160 2.273 . S
Cd156 O164 2.277 . S
O157 C154 1.160 . S
O157 Cd158 2.203 . S
Cd158 O157 2.203 . S
Cd158 O160 2.411 . S
Cd158 O161 2.333 . S
Cd158 O162 2.352 . S
Cd158 O166 2.277 . S
Cd158 O167 2.356 . S
C159 O164 1.209 . S
C159 O166 1.226 . S
O160 Cd156 2.273 . S
O160 Cd158 2.411 . S
O160 C163 1.320 . S
O161 Cd158 2.333 . S
O161 C163 1.214 . S
O162 Cd158 2.352 . S
O162 C165 1.258 . S
C163 O160 1.320 . S
C163 O161 1.214 . S
O164 Cd156 2.277 . S
O164 C159 1.209 . S
C165 O162 1.258 . S
C165 O167 1.282 . S
O166 Cd158 2.277 . S
O166 C159 1.226 . S
O167 Cd158 2.356 . S
O167 C165 1.282 . S
H168 C180 0.930 . S
H169 C182 0.930 . S
H170 C183 0.930 . S
H171 C187 0.959 . S
H172 C187 0.959 . S
H173 C187 0.961 . S
H174 C188 0.960 . S
H175 C188 0.961 . S
H176 C188 0.959 . S
H177 C191 0.929 . S
H178 C192 0.931 . S
H179 C194 0.930 . S
C180 H168 0.930 . S
C180 C181 1.399 . S
C180 C185 1.399 . S
C181 C180 1.399 . S
C181 C182 1.376 . S
C182 H169 0.930 . S
C182 C181 1.376 . S
C182 C183 1.388 . S
C183 H170 0.930 . S
C183 C182 1.388 . S
C183 C184 1.390 . S
C184 C183 1.390 . S
C184 C185 1.394 . S
C184 C190 1.465 . S
C185 C180 1.399 . S
C185 C184 1.394 . S
C185 C186 1.516 . S
C186 C185 1.516 . S
C186 C187 1.502 . S
C186 C188 1.561 . S
C186 C189 1.526 . S
C187 H171 0.959 . S
C187 H172 0.959 . S
C187 H173 0.961 . S
C187 C186 1.502 . S
C188 H174 0.960 . S
C188 H175 0.961 . S
C188 H176 0.959 . S
C188 C186 1.561 . S
C189 C186 1.526 . S
C189 C190 1.396 . S
C189 C194 1.390 . S
C190 C184 1.465 . S
C190 C189 1.396 . S
C190 C191 1.399 . S
C191 H177 0.929 . S
C191 C190 1.399 . S
C191 C192 1.385 . S
C192 H178 0.931 . S
C192 C191 1.385 . S
C192 C193 1.389 . S
C193 C192 1.389 . S
C193 C194 1.387 . S
C194 H179 0.930 . S
C194 C189 1.390 . S
C194 C193 1.387 . S
H195 C207 0.930 . S
H196 C209 0.930 . S
H197 C210 0.930 . S
H198 C214 0.959 . S
H199 C214 0.959 . S
H200 C214 0.961 . S
H201 C215 0.960 . S
H202 C215 0.961 . S
H203 C215 0.959 . S
H204 C218 0.929 . S
H205 C219 0.931 . S
H206 C221 0.930 . S
C207 H195 0.930 . S
C207 C208 1.399 . S
C207 C212 1.399 . S
C208 C207 1.399 . S
C208 C209 1.376 . S
C209 H196 0.930 . S
C209 C208 1.376 . S
C209 C210 1.388 . S
C210 H197 0.930 . S
C210 C209 1.388 . S
C210 C211 1.390 . S
C211 C210 1.390 . S
C211 C212 1.394 . S
C211 C217 1.465 . S
C212 C207 1.399 . S
C212 C211 1.394 . S
C212 C213 1.516 . S
C213 C212 1.516 . S
C213 C214 1.502 . S
C213 C215 1.561 . S
C213 C216 1.526 . S
C214 H198 0.959 . S
C214 H199 0.959 . S
C214 H200 0.961 . S
C214 C213 1.502 . S
C215 H201 0.960 . S
C215 H202 0.961 . S
C215 H203 0.959 . S
C215 C213 1.561 . S
C216 C213 1.526 . S
C216 C217 1.396 . S
C216 C221 1.390 . S
C217 C211 1.465 . S
C217 C216 1.396 . S
C217 C218 1.399 . S
C218 H204 0.929 . S
C218 C217 1.399 . S
C218 C219 1.385 . S
C219 H205 0.931 . S
C219 C218 1.385 . S
C219 C220 1.389 . S
C220 C219 1.389 . S
C220 C221 1.387 . S
C221 H206 0.930 . S
C221 C216 1.390 . S
C221 C220 1.387 . S
H222 C234 0.930 . S
H223 C236 0.930 . S
H224 C237 0.930 . S
H225 C241 0.959 . S
H226 C241 0.959 . S
H227 C241 0.961 . S
H228 C242 0.960 . S
H229 C242 0.961 . S
H230 C242 0.959 . S
H231 C245 0.929 . S
H232 C246 0.931 . S
H233 C248 0.930 . S
C234 H222 0.930 . S
C234 C235 1.399 . S
C234 C239 1.399 . S
C235 C234 1.399 . S
C235 C236 1.376 . S
C236 H223 0.930 . S
C236 C235 1.376 . S
C236 C237 1.388 . S
C237 H224 0.930 . S
C237 C236 1.388 . S
C237 C238 1.390 . S
C238 C237 1.390 . S
C238 C239 1.394 . S
C238 C244 1.465 . S
C239 C234 1.399 . S
C239 C238 1.394 . S
C239 C240 1.516 . S
C240 C239 1.516 . S
C240 C241 1.502 . S
C240 C242 1.561 . S
C240 C243 1.526 . S
C241 H225 0.959 . S
C241 H226 0.959 . S
C241 H227 0.961 . S
C241 C240 1.502 . S
C242 H228 0.960 . S
C242 H229 0.961 . S
C242 H230 0.959 . S
C242 C240 1.561 . S
C243 C240 1.526 . S
C243 C244 1.396 . S
C243 C248 1.390 . S
C244 C238 1.465 . S
C244 C243 1.396 . S
C244 C245 1.399 . S
C245 H231 0.929 . S
C245 C244 1.399 . S
C245 C246 1.385 . S
C246 H232 0.931 . S
C246 C245 1.385 . S
C246 C247 1.389 . S
C247 C246 1.389 . S
C247 C248 1.387 . S
C248 H233 0.930 . S
C248 C243 1.390 . S
C248 C247 1.387 . S
H249 C261 0.930 . S
H250 C263 0.930 . S
H251 C264 0.930 . S
H252 C268 0.959 . S
H253 C268 0.959 . S
H254 C268 0.961 . S
H255 C269 0.960 . S
H256 C269 0.961 . S
H257 C269 0.959 . S
H258 C272 0.929 . S
H259 C273 0.931 . S
H260 C275 0.930 . S
C261 H249 0.930 . S
C261 C262 1.399 . S
C261 C266 1.399 . S
C262 C261 1.399 . S
C262 C263 1.376 . S
C263 H250 0.930 . S
C263 C262 1.376 . S
C263 C264 1.388 . S
C264 H251 0.930 . S
C264 C263 1.388 . S
C264 C265 1.390 . S
C265 C264 1.390 . S
C265 C266 1.394 . S
C265 C271 1.465 . S
C266 C261 1.399 . S
C266 C265 1.394 . S
C266 C267 1.516 . S
C267 C266 1.516 . S
C267 C268 1.502 . S
C267 C269 1.561 . S
C267 C270 1.526 . S
C268 H252 0.959 . S
C268 H253 0.959 . S
C268 H254 0.961 . S
C268 C267 1.502 . S
C269 H255 0.960 . S
C269 H256 0.961 . S
C269 H257 0.959 . S
C269 C267 1.561 . S
C270 C267 1.526 . S
C270 C271 1.396 . S
C270 C275 1.390 . S
C271 C265 1.465 . S
C271 C270 1.396 . S
C271 C272 1.399 . S
C272 H258 0.929 . S
C272 C271 1.399 . S
C272 C273 1.385 . S
C273 H259 0.931 . S
C273 C272 1.385 . S
C273 C274 1.389 . S
C274 C273 1.389 . S
C274 C275 1.387 . S
C275 H260 0.930 . S
C275 C270 1.390 . S
C275 C274 1.387 . S
H276 C288 0.930 . S
H277 C290 0.930 . S
H278 C291 0.930 . S
H279 C295 0.959 . S
H280 C295 0.959 . S
H281 C295 0.961 . S
H282 C296 0.960 . S
H283 C296 0.961 . S
H284 C296 0.959 . S
H285 C299 0.929 . S
H286 C300 0.931 . S
H287 C302 0.930 . S
C288 H276 0.930 . S
C288 C289 1.399 . S
C288 C293 1.409 . S
C289 C288 1.399 . S
C289 C290 1.376 . S
C290 H277 0.930 . S
C290 C289 1.376 . S
C290 C291 1.388 . S
C291 H278 0.930 . S
C291 C290 1.388 . S
C291 C292 1.390 . S
C292 C291 1.390 . S
C292 C293 1.394 . S
C292 C298 1.465 1_554 S
C293 C288 1.409 . S
C293 C292 1.394 . S
C293 C294 1.504 1_554 S
C294 C293 1.504 1_556 S
C294 C295 1.502 . S
C294 C296 1.561 . S
C294 C297 1.526 . S
C295 H279 0.959 . S
C295 H280 0.959 . S
C295 H281 0.961 . S
C295 C294 1.502 . S
C296 H282 0.960 . S
C296 H283 0.961 . S
C296 H284 0.959 . S
C296 C294 1.561 . S
C297 C294 1.526 . S
C297 C298 1.396 . S
C297 C302 1.390 . S
C298 C292 1.465 1_556 S
C298 C297 1.396 . S
C298 C299 1.399 . S
C299 H285 0.929 . S
C299 C298 1.399 . S
C299 C300 1.385 . S
C300 H286 0.931 . S
C300 C299 1.385 . S
C300 C301 1.389 . S
C301 C300 1.389 . S
C301 C302 1.387 . S
C302 H287 0.930 . S
C302 C297 1.390 . S
C302 C301 1.387 . S
H303 C315 0.930 . S
H304 C317 0.930 . S
H305 C318 0.930 . S
H306 C322 0.959 . S
H307 C322 0.959 . S
H308 C322 0.961 . S
H309 C323 0.960 . S
H310 C323 0.961 . S
H311 C323 0.959 . S
H312 C326 0.929 . S
H313 C327 0.931 . S
H314 C329 0.930 . S
C315 H303 0.930 . S
C315 C316 1.399 . S
C315 C320 1.399 . S
C316 C315 1.399 . S
C316 C317 1.376 . S
C317 H304 0.930 . S
C317 C316 1.376 . S
C317 C318 1.388 . S
C318 H305 0.930 . S
C318 C317 1.388 . S
C318 C319 1.390 . S
C319 C318 1.390 . S
C319 C320 1.394 . S
C319 C325 1.465 . S
C320 C315 1.399 . S
C320 C319 1.394 . S
C320 C321 1.516 . S
C321 C320 1.516 . S
C321 C322 1.502 . S
C321 C323 1.561 . S
C321 C324 1.526 . S
C322 H306 0.959 . S
C322 H307 0.959 . S
C322 H308 0.961 . S
C322 C321 1.502 . S
C323 H309 0.960 . S
C323 H310 0.961 . S
C323 H311 0.959 . S
C323 C321 1.561 . S
C324 C321 1.526 . S
C324 C325 1.396 . S
C324 C329 1.390 . S
C325 C319 1.465 . S
C325 C324 1.396 . S
C325 C326 1.399 . S
C326 H312 0.929 . S
C326 C325 1.399 . S
C326 C327 1.385 . S
C327 H313 0.931 . S
C327 C326 1.385 . S
C327 C328 1.389 . S
C328 C327 1.389 . S
C328 C329 1.387 . S
C329 H314 0.930 . S
C329 C324 1.390 . S
C329 C328 1.387 . S
H330 C342 0.930 . S
H331 C344 0.930 . S
H332 C345 0.930 . S
H333 C349 0.959 . S
H334 C349 0.959 . S
H335 C349 0.961 . S
H336 C350 0.960 . S
H337 C350 0.961 . S
H338 C350 0.959 . S
H339 C353 0.929 . S
H340 C354 0.931 . S
H341 C356 0.930 . S
C342 H330 0.930 . S
C342 C343 1.399 . S
C342 C347 1.399 . S
C343 C342 1.399 . S
C343 C344 1.376 . S
C344 H331 0.930 . S
C344 C343 1.376 . S
C344 C345 1.388 . S
C345 H332 0.930 . S
C345 C344 1.388 . S
C345 C346 1.390 . S
C346 C345 1.390 . S
C346 C347 1.394 . S
C346 C352 1.465 . S
C347 C342 1.399 . S
C347 C346 1.394 . S
C347 C348 1.516 . S
C348 C347 1.516 . S
C348 C349 1.502 . S
C348 C350 1.561 . S
C348 C351 1.526 . S
C349 H333 0.959 . S
C349 H334 0.959 . S
C349 H335 0.961 . S
C349 C348 1.502 . S
C350 H336 0.960 . S
C350 H337 0.961 . S
C350 H338 0.959 . S
C350 C348 1.561 . S
C351 C348 1.526 . S
C351 C352 1.396 . S
C351 C356 1.390 . S
C352 C346 1.465 . S
C352 C351 1.396 . S
C352 C353 1.399 . S
C353 H339 0.929 . S
C353 C352 1.399 . S
C353 C354 1.385 . S
C354 H340 0.931 . S
C354 C353 1.385 . S
C354 C355 1.389 . S
C355 C354 1.389 . S
C355 C356 1.387 . S
C356 H341 0.930 . S
C356 C351 1.390 . S
C356 C355 1.387 . S
H357 C369 0.930 . S
H358 C371 0.930 . S
H359 C372 0.930 . S
H360 C376 0.959 . S
H361 C376 0.959 . S
H362 C376 0.961 . S
H363 C377 0.960 . S
H364 C377 0.961 . S
H365 C377 0.959 . S
H366 C380 0.929 . S
H367 C381 0.931 . S
H368 C383 0.930 . S
C369 H357 0.930 . S
C369 C370 1.399 . S
C369 C374 1.399 . S
C370 C369 1.399 . S
C370 C371 1.376 . S
C371 H358 0.930 . S
C371 C370 1.376 . S
C371 C372 1.388 . S
C372 H359 0.930 . S
C372 C371 1.388 . S
C372 C373 1.390 . S
C373 C372 1.390 . S
C373 C374 1.394 . S
C373 C379 1.465 . S
C374 C369 1.399 . S
C374 C373 1.394 . S
C374 C375 1.516 . S
C375 C374 1.516 . S
C375 C376 1.502 . S
C375 C377 1.561 . S
C375 C378 1.526 . S
C376 H360 0.959 . S
C376 H361 0.959 . S
C376 H362 0.961 . S
C376 C375 1.502 . S
C377 H363 0.960 . S
C377 H364 0.961 . S
C377 H365 0.959 . S
C377 C375 1.561 . S
C378 C375 1.526 . S
C378 C379 1.396 . S
C378 C383 1.390 . S
C379 C373 1.465 . S
C379 C378 1.396 . S
C379 C380 1.399 . S
C380 H366 0.929 . S
C380 C379 1.399 . S
C380 C381 1.385 . S
C381 H367 0.931 . S
C381 C380 1.385 . S
C381 C382 1.389 . S
C382 C381 1.389 . S
C382 C383 1.387 . S
C383 H368 0.930 . S
C383 C378 1.390 . S
C383 C382 1.387 . S
H384 C396 0.930 . S
H385 C398 0.930 . S
H386 C399 0.930 . S
H387 C403 0.959 . S
H388 C403 0.959 . S
H389 C403 0.961 . S
H390 C404 0.960 . S
H391 C404 0.961 . S
H392 C404 0.959 . S
H393 C407 0.929 . S
H394 C408 0.931 . S
H395 C410 0.930 . S
C396 H384 0.930 . S
C396 C397 1.399 . S
C396 C401 1.399 . S
C397 C396 1.399 . S
C397 C398 1.376 . S
C398 H385 0.930 . S
C398 C397 1.376 . S
C398 C399 1.388 . S
C399 H386 0.930 . S
C399 C398 1.388 . S
C399 C400 1.390 . S
C400 C399 1.390 . S
C400 C401 1.394 . S
C400 C406 1.465 . S
C401 C396 1.399 . S
C401 C400 1.394 . S
C401 C402 1.516 . S
C402 C401 1.516 . S
C402 C403 1.502 . S
C402 C404 1.561 . S
C402 C405 1.526 . S
C403 H387 0.959 . S
C403 H388 0.959 . S
C403 H389 0.961 . S
C403 C402 1.502 . S
C404 H390 0.960 . S
C404 H391 0.961 . S
C404 H392 0.959 . S
C404 C402 1.561 . S
C405 C402 1.526 . S
C405 C406 1.396 . S
C405 C410 1.390 . S
C406 C400 1.465 . S
C406 C405 1.396 . S
C406 C407 1.399 . S
C407 H393 0.929 . S
C407 C406 1.399 . S
C407 C408 1.385 . S
C408 H394 0.931 . S
C408 C407 1.385 . S
C408 C409 1.389 . S
C409 C408 1.389 . S
C409 C410 1.387 . S
C410 H395 0.930 . S
C410 C405 1.390 . S
C410 C409 1.387 . S
H411 C423 0.930 . S
H412 C425 0.930 . S
H413 C426 0.930 . S
H414 C430 0.959 . S
H415 C430 0.959 . S
H416 C430 0.961 . S
H417 C431 0.960 . S
H418 C431 0.961 . S
H419 C431 0.959 . S
H420 C434 0.929 . S
H421 C435 0.931 . S
H422 C437 0.930 . S
C423 H411 0.930 . S
C423 C424 1.399 . S
C423 C428 1.399 . S
C424 C423 1.399 . S
C424 C425 1.376 . S
C425 H412 0.930 . S
C425 C424 1.376 . S
C425 C426 1.388 . S
C426 H413 0.930 . S
C426 C425 1.388 . S
C426 C427 1.390 . S
C427 C426 1.390 . S
C427 C428 1.394 . S
C427 C433 1.465 . S
C428 C423 1.399 . S
C428 C427 1.394 . S
C428 C429 1.516 . S
C429 C428 1.516 . S
C429 C430 1.502 . S
C429 C431 1.561 . S
C429 C432 1.526 . S
C430 H414 0.959 . S
C430 H415 0.959 . S
C430 H416 0.961 . S
C430 C429 1.502 . S
C431 H417 0.960 . S
C431 H418 0.961 . S
C431 H419 0.959 . S
C431 C429 1.561 . S
C432 C429 1.526 . S
C432 C433 1.396 . S
C432 C437 1.390 . S
C433 C427 1.465 . S
C433 C432 1.396 . S
C433 C434 1.399 . S
C434 H420 0.929 . S
C434 C433 1.399 . S
C434 C435 1.385 . S
C435 H421 0.931 . S
C435 C434 1.385 . S
C435 C436 1.389 . S
C436 C435 1.389 . S
C436 C437 1.387 . S
C437 H422 0.930 . S
C437 C432 1.390 . S
C437 C436 1.387 . S
H438 C450 0.930 . S
H439 C452 0.930 . S
H440 C453 0.930 . S
H441 C457 0.959 . S
H442 C457 0.959 . S
H443 C457 0.961 . S
H444 C458 0.960 . S
H445 C458 0.961 . S
H446 C458 0.959 . S
H447 C461 0.929 . S
H448 C462 0.931 . S
H449 C464 0.930 . S
C450 H438 0.930 . S
C450 C451 1.399 . S
C450 C455 1.399 . S
C451 C450 1.399 . S
C451 C452 1.376 . S
C452 H439 0.930 . S
C452 C451 1.376 . S
C452 C453 1.388 . S
C453 H440 0.930 . S
C453 C452 1.388 . S
C453 C454 1.390 . S
C454 C453 1.390 . S
C454 C455 1.394 . S
C454 C460 1.465 . S
C455 C450 1.399 . S
C455 C454 1.394 . S
C455 C456 1.516 . S
C456 C455 1.516 . S
C456 C457 1.502 . S
C456 C458 1.561 . S
C456 C459 1.526 . S
C457 H441 0.959 . S
C457 H442 0.959 . S
C457 H443 0.961 . S
C457 C456 1.502 . S
C458 H444 0.960 . S
C458 H445 0.961 . S
C458 H446 0.959 . S
C458 C456 1.561 . S
C459 C456 1.526 . S
C459 C460 1.396 . S
C459 C464 1.390 . S
C460 C454 1.465 . S
C460 C459 1.396 . S
C460 C461 1.399 . S
C461 H447 0.929 . S
C461 C460 1.399 . S
C461 C462 1.385 . S
C462 H448 0.931 . S
C462 C461 1.385 . S
C462 C463 1.389 . S
C463 C462 1.389 . S
C463 C464 1.387 . S
C464 H449 0.930 . S
C464 C459 1.390 . S
C464 C463 1.387 . S
H465 C477 0.930 . S
H466 C479 0.930 . S
H467 C480 0.930 . S
H468 C484 0.959 . S
H469 C484 0.959 . S
H470 C484 0.961 . S
H471 C485 0.960 . S
H472 C485 0.961 . S
H473 C485 0.959 . S
H474 C488 0.929 . S
H475 C489 0.931 . S
H476 C491 0.930 . S
C477 H465 0.930 . S
C477 C478 1.399 . S
C477 C482 1.399 . S
C478 C477 1.399 . S
C478 C479 1.376 . S
C479 H466 0.930 . S
C479 C478 1.376 . S
C479 C480 1.388 . S
C480 H467 0.930 . S
C480 C479 1.388 . S
C480 C481 1.390 . S
C481 C480 1.390 . S
C481 C482 1.394 . S
C481 C487 1.465 . S
C482 C477 1.399 . S
C482 C481 1.394 . S
C482 C483 1.516 1_556 S
C483 C482 1.516 1_554 S
C483 C484 1.502 . S
C483 C485 1.561 . S
C483 C486 1.526 . S
C484 H468 0.959 . S
C484 H469 0.959 . S
C484 H470 0.961 . S
C484 C483 1.502 . S
C485 H471 0.960 . S
C485 H472 0.961 . S
C485 H473 0.959 . S
C485 C483 1.561 . S
C486 C483 1.526 . S
C486 C487 1.396 1_554 S
C486 C491 1.390 . S
C487 C481 1.465 . S
C487 C486 1.396 1_556 S
C487 C488 1.399 . S
C488 H474 0.929 . S
C488 C487 1.399 . S
C488 C489 1.385 . S
C489 H475 0.931 . S
C489 C488 1.385 . S
C489 C490 1.389 1_556 S
C490 C489 1.389 1_554 S
C490 C491 1.387 . S
C491 H476 0.930 . S
C491 C486 1.390 . S
C491 C490 1.387 . S
H492 C504 0.930 . S
H493 C506 0.930 . S
H494 C507 0.930 . S
H495 C511 0.959 . S
H496 C511 0.959 . S
H497 C511 0.961 . S
H498 C512 0.960 . S
H499 C512 0.961 . S
H500 C512 0.959 . S
H501 C515 0.929 . S
H502 C516 0.931 . S
H503 C518 0.930 . S
C504 H492 0.930 . S
C504 C505 1.399 . S
C504 C509 1.399 . S
C505 C504 1.399 . S
C505 C506 1.376 . S
C506 H493 0.930 . S
C506 C505 1.376 . S
C506 C507 1.388 . S
C507 H494 0.930 . S
C507 C506 1.388 . S
C507 C508 1.390 . S
C508 C507 1.390 . S
C508 C509 1.394 . S
C508 C514 1.465 . S
C509 C504 1.399 . S
C509 C508 1.394 . S
C509 C510 1.516 . S
C510 C509 1.516 . S
C510 C511 1.502 . S
C510 C512 1.561 . S
C510 C513 1.526 . S
C511 H495 0.959 . S
C511 H496 0.959 . S
C511 H497 0.961 . S
C511 C510 1.502 . S
C512 H498 0.960 . S
C512 H499 0.961 . S
C512 H500 0.959 . S
C512 C510 1.561 . S
C513 C510 1.526 . S
C513 C514 1.396 . S
C513 C518 1.390 . S
C514 C508 1.465 . S
C514 C513 1.396 . S
C514 C515 1.399 . S
C515 H501 0.929 . S
C515 C514 1.399 . S
C515 C516 1.385 . S
C516 H502 0.931 . S
C516 C515 1.385 . S
C516 C517 1.389 . S
C517 C516 1.389 . S
C517 C518 1.387 . S
C518 H503 0.930 . S
C518 C513 1.390 . S
C518 C517 1.387 . S
H519 C531 0.930 . S
H520 C533 0.930 . S
H521 C534 0.930 . S
H522 C538 0.959 1_556 S
H523 C538 0.959 . S
H524 C538 0.961 1_556 S
H525 C539 0.960 . S
H526 C539 0.961 . S
H527 C539 0.959 . S
H528 C542 0.919 1_556 S
H529 C543 0.931 . S
H530 C545 0.930 . S
C531 H519 0.930 . S
C531 C532 1.399 . S
C531 C536 1.399 . S
C532 C531 1.399 . S
C532 C533 1.376 . S
C533 H520 0.930 . S
C533 C532 1.376 . S
C533 C534 1.388 . S
C534 H521 0.930 . S
C534 C533 1.388 . S
C534 C535 1.390 . S
C535 C534 1.390 . S
C535 C536 1.394 . S
C535 C541 1.465 . S
C536 C531 1.399 . S
C536 C535 1.394 . S
C536 C537 1.516 . S
C537 C536 1.516 . S
C537 C538 1.502 1_556 S
C537 C539 1.561 1_556 S
C537 C540 1.526 1_556 S
C538 H522 0.959 1_554 S
C538 H523 0.959 . S
C538 H524 0.961 1_554 S
C538 C537 1.502 1_554 S
C539 H525 0.960 . S
C539 H526 0.961 . S
C539 H527 0.959 . S
C539 C537 1.561 1_554 S
C540 C537 1.526 1_554 S
C540 C541 1.396 1_554 S
C540 C545 1.390 . S
C541 C535 1.465 . S
C541 C540 1.396 1_556 S
C541 C542 1.394 1_556 S
C542 H528 0.919 1_554 S
C542 C541 1.394 1_554 S
C542 C543 1.401 . S
C543 H529 0.931 . S
C543 C542 1.401 . S
C543 C544 1.389 . S
C544 C543 1.389 . S
C544 C545 1.387 . S
C545 H530 0.930 . S
C545 C540 1.390 . S
C545 C544 1.387 . S
H546 C558 0.930 . S
H547 C560 0.930 1_556 S
H548 C561 0.930 . S
H549 C565 0.959 . S
H550 C565 0.959 . S
H551 C565 0.961 . S
H552 C566 0.960 . S
H553 C566 0.961 . S
H554 C566 0.959 . S
H555 C569 0.929 . S
H556 C570 0.931 . S
H557 C572 0.930 . S
C558 H546 0.930 . S
C558 C559 1.399 . S
C558 C563 1.399 . S
C559 C558 1.399 . S
C559 C560 1.376 . S
C560 H547 0.930 1_554 S
C560 C559 1.376 . S
C560 C561 1.388 . S
C561 H548 0.930 . S
C561 C560 1.388 . S
C561 C562 1.390 . S
C562 C561 1.390 . S
C562 C563 1.394 . S
C562 C568 1.465 . S
C563 C558 1.399 . S
C563 C562 1.394 . S
C563 C564 1.516 . S
C564 C563 1.516 . S
C564 C565 1.502 . S
C564 C566 1.561 . S
C564 C567 1.526 . S
C565 H549 0.959 . S
C565 H550 0.959 . S
C565 H551 0.961 . S
C565 C564 1.502 . S
C566 H552 0.960 . S
C566 H553 0.961 . S
C566 H554 0.959 . S
C566 C564 1.561 . S
C567 C564 1.526 . S
C567 C568 1.396 . S
C567 C572 1.390 . S
C568 C562 1.465 . S
C568 C567 1.396 . S
C568 C569 1.399 . S
C569 H555 0.929 . S
C569 C568 1.399 . S
C569 C570 1.385 . S
C570 H556 0.931 . S
C570 C569 1.385 . S
C570 C571 1.389 . S
C571 C570 1.389 . S
C571 C572 1.387 . S
C572 H557 0.930 . S
C572 C567 1.390 . S
C572 C571 1.387 . S
H573 C585 0.930 . S
H574 C587 0.930 . S
H575 C588 0.930 . S
H576 C592 0.959 . S
H577 C592 0.959 . S
H578 C592 0.961 . S
H579 C593 0.960 . S
H580 C593 0.961 . S
H581 C593 0.959 . S
H582 C596 0.929 . S
H583 C597 0.931 . S
H584 C599 0.930 . S
C585 H573 0.930 . S
C585 C586 1.399 . S
C585 C590 1.399 . S
C586 C585 1.399 . S
C586 C587 1.376 . S
C587 H574 0.930 . S
C587 C586 1.376 . S
C587 C588 1.388 . S
C588 H575 0.930 . S
C588 C587 1.388 . S
C588 C589 1.390 . S
C589 C588 1.390 . S
C589 C590 1.394 . S
C589 C595 1.465 . S
C590 C585 1.399 . S
C590 C589 1.394 . S
C590 C591 1.516 . S
C591 C590 1.516 . S
C591 C592 1.502 . S
C591 C593 1.561 . S
C591 C594 1.526 . S
C592 H576 0.959 . S
C592 H577 0.959 . S
C592 H578 0.961 . S
C592 C591 1.502 . S
C593 H579 0.960 . S
C593 H580 0.961 . S
C593 H581 0.959 . S
C593 C591 1.561 . S
C594 C591 1.526 . S
C594 C595 1.396 . S
C594 C599 1.390 . S
C595 C589 1.465 . S
C595 C594 1.396 . S
C595 C596 1.399 . S
C596 H582 0.929 . S
C596 C595 1.399 . S
C596 C597 1.385 . S
C597 H583 0.931 . S
C597 C596 1.385 . S
C597 C598 1.389 . S
C598 C597 1.389 . S
C598 C599 1.387 . S
C599 H584 0.930 . S
C599 C594 1.390 . S
C599 C598 1.387 . S
H600 C612 0.930 . S
H601 C614 0.930 . S
H602 C615 0.930 . S
H603 C619 0.959 . S
H604 C619 0.959 . S
H605 C619 0.961 . S
H606 C620 0.960 . S
H607 C620 0.961 . S
H608 C620 0.959 . S
H609 C623 0.929 . S
H610 C624 0.931 . S
H611 C626 0.930 . S
C612 H600 0.930 . S
C612 C613 1.399 . S
C612 C617 1.399 . S
C613 C612 1.399 . S
C613 C614 1.376 . S
C614 H601 0.930 . S
C614 C613 1.376 . S
C614 C615 1.388 . S
C615 H602 0.930 . S
C615 C614 1.388 . S
C615 C616 1.390 . S
C616 C615 1.390 . S
C616 C617 1.394 . S
C616 C622 1.465 . S
C617 C612 1.399 . S
C617 C616 1.394 . S
C617 C618 1.516 . S
C618 C617 1.516 . S
C618 C619 1.502 . S
C618 C620 1.561 . S
C618 C621 1.526 . S
C619 H603 0.959 . S
C619 H604 0.959 . S
C619 H605 0.961 . S
C619 C618 1.502 . S
C620 H606 0.960 . S
C620 H607 0.961 . S
C620 H608 0.959 . S
C620 C618 1.561 . S
C621 C618 1.526 . S
C621 C622 1.396 . S
C621 C626 1.390 . S
C622 C616 1.465 . S
C622 C621 1.396 . S
C622 C623 1.399 . S
C623 H609 0.929 . S
C623 C622 1.399 . S
C623 C624 1.385 . S
C624 H610 0.931 . S
C624 C623 1.385 . S
C624 C625 1.389 . S
C625 C624 1.389 . S
C625 C626 1.387 . S
C626 H611 0.930 . S
C626 C621 1.390 . S
C626 C625 1.387 . S
H627 C639 0.930 . S
H628 C641 0.930 . S
H629 C642 0.930 . S
H630 C646 0.959 . S
H631 C646 0.959 . S
H632 C646 0.961 . S
H633 C647 0.960 . S
H634 C647 0.961 . S
H635 C647 0.959 . S
H636 C650 0.929 . S
H637 C651 0.931 . S
H638 C653 0.930 . S
C639 H627 0.930 . S
C639 C640 1.399 . S
C639 C644 1.399 . S
C640 C639 1.399 . S
C640 C641 1.376 . S
C641 H628 0.930 . S
C641 C640 1.376 . S
C641 C642 1.388 . S
C642 H629 0.930 . S
C642 C641 1.388 . S
C642 C643 1.390 . S
C643 C642 1.390 . S
C643 C644 1.394 . S
C643 C649 1.465 . S
C644 C639 1.399 . S
C644 C643 1.394 . S
C644 C645 1.516 . S
C645 C644 1.516 . S
C645 C646 1.502 . S
C645 C647 1.561 . S
C645 C648 1.526 . S
C646 H630 0.959 . S
C646 H631 0.959 . S
C646 H632 0.961 . S
C646 C645 1.502 . S
C647 H633 0.960 . S
C647 H634 0.961 . S
C647 H635 0.959 . S
C647 C645 1.561 . S
C648 C645 1.526 . S
C648 C649 1.396 . S
C648 C653 1.390 . S
C649 C643 1.465 . S
C649 C648 1.396 . S
C649 C650 1.399 . S
C650 H636 0.929 . S
C650 C649 1.399 . S
C650 C651 1.385 . S
C651 H637 0.931 . S
C651 C650 1.385 . S
C651 C652 1.389 . S
C652 C651 1.389 . S
C652 C653 1.387 . S
C653 H638 0.930 . S
C653 C648 1.390 . S
C653 C652 1.387 . S
H654 C666 0.930 1_556 S
H655 C668 0.930 . S
H656 C669 0.930 . S
H657 C673 0.961 1_565 S
H658 C673 0.955 1_565 S
H659 C673 0.966 . S
H660 C674 0.999 . S
H661 C674 0.933 1_565 S
H662 C674 0.912 1_565 S
H663 C677 0.929 . S
H664 C678 0.931 . S
H665 C680 0.930 1_556 S
C666 H654 0.930 1_554 S
C666 C667 1.399 . S
C666 C671 1.399 . S
C667 C666 1.399 . S
C667 C668 1.376 . S
C668 H655 0.930 . S
C668 C667 1.376 . S
C668 C669 1.388 . S
C669 H656 0.930 . S
C669 C668 1.388 . S
C669 C670 1.390 . S
C670 C669 1.390 . S
C670 C671 1.394 . S
C670 C676 1.465 1_545 S
C671 C666 1.399 . S
C671 C670 1.394 . S
C671 C672 1.525 1_554 S
C672 C671 1.525 1_556 S
C672 C673 1.506 . S
C672 C674 1.573 . S
C672 C675 1.514 1_546 S
C673 H657 0.961 1_545 S
C673 H658 0.955 1_545 S
C673 H659 0.966 . S
C673 C672 1.506 . S
C674 H660 0.999 . S
C674 H661 0.933 1_545 S
C674 H662 0.912 1_545 S
C674 C672 1.573 . S
C675 C672 1.514 1_564 S
C675 C676 1.396 . S
C675 C680 1.390 . S
C676 C670 1.465 1_565 S
C676 C675 1.396 . S
C676 C677 1.399 . S
C677 H663 0.929 . S
C677 C676 1.399 . S
C677 C678 1.385 . S
C678 H664 0.931 . S
C678 C677 1.385 . S
C678 C679 1.389 . S
C679 C678 1.389 . S
C679 C680 1.387 . S
C680 H665 0.930 1_554 S
C680 C675 1.390 . S
C680 C679 1.387 . S
H681 C693 0.930 . S
H682 C695 0.930 . S
H683 C696 0.930 . S
H684 C700 0.959 . S
H685 C700 0.959 . S
H686 C700 0.961 . S
H687 C701 0.960 . S
H688 C701 0.961 . S
H689 C701 0.959 . S
H690 C704 0.929 . S
H691 C705 0.931 . S
H692 C707 0.930 . S
C693 H681 0.930 . S
C693 C694 1.399 . S
C693 C698 1.399 . S
C694 C693 1.399 . S
C694 C695 1.376 . S
C695 H682 0.930 . S
C695 C694 1.376 . S
C695 C696 1.388 . S
C696 H683 0.930 . S
C696 C695 1.388 . S
C696 C697 1.390 . S
C697 C696 1.390 . S
C697 C698 1.394 . S
C697 C703 1.465 . S
C698 C693 1.399 . S
C698 C697 1.394 . S
C698 C699 1.516 . S
C699 C698 1.516 . S
C699 C700 1.502 . S
C699 C701 1.561 . S
C699 C702 1.526 . S
C700 H684 0.959 . S
C700 H685 0.959 . S
C700 H686 0.961 . S
C700 C699 1.502 . S
C701 H687 0.960 . S
C701 H688 0.961 . S
C701 H689 0.959 . S
C701 C699 1.561 . S
C702 C699 1.526 . S
C702 C703 1.396 . S
C702 C707 1.390 . S
C703 C697 1.465 . S
C703 C702 1.396 . S
C703 C704 1.399 . S
C704 H690 0.929 . S
C704 C703 1.399 . S
C704 C705 1.385 . S
C705 H691 0.931 . S
C705 C704 1.385 . S
C705 C706 1.389 . S
C706 C705 1.389 . S
C706 C707 1.387 . S
C707 H692 0.930 . S
C707 C702 1.390 . S
C707 C706 1.387 . S
H708 C720 0.930 . S
H709 C722 0.930 . S
H710 C723 0.930 . S
H711 C727 0.959 . S
H712 C727 0.959 . S
H713 C727 0.961 1_455 S
H714 C728 0.960 1_455 S
H715 C728 0.961 . S
H716 C728 0.959 . S
H717 C731 0.929 . S
H718 C732 0.931 . S
H719 C734 0.930 . S
C720 H708 0.930 . S
C720 C721 1.399 . S
C720 C725 1.399 . S
C721 C720 1.399 . S
C721 C722 1.376 . S
C722 H709 0.930 . S
C722 C721 1.376 . S
C722 C723 1.388 . S
C723 H710 0.930 . S
C723 C722 1.388 . S
C723 C724 1.390 . S
C724 C723 1.390 . S
C724 C725 1.394 . S
C724 C730 1.465 1_455 S
C725 C720 1.399 . S
C725 C724 1.394 . S
C725 C726 1.494 1_455 S
C726 C725 1.494 1_655 S
C726 C727 1.516 . S
C726 C728 1.556 . S
C726 C729 1.539 . S
C727 H711 0.959 . S
C727 H712 0.959 . S
C727 H713 0.961 1_655 S
C727 C726 1.516 . S
C728 H714 0.960 1_655 S
C728 H715 0.961 . S
C728 H716 0.959 . S
C728 C726 1.556 . S
C729 C726 1.539 . S
C729 C730 1.396 . S
C729 C734 1.390 . S
C730 C724 1.465 1_655 S
C730 C729 1.396 . S
C730 C731 1.399 . S
C731 H717 0.929 . S
C731 C730 1.399 . S
C731 C732 1.385 . S
C732 H718 0.931 . S
C732 C731 1.385 . S
C732 C733 1.389 . S
C733 C732 1.389 . S
C733 C734 1.387 . S
C734 H719 0.930 . S
C734 C729 1.390 . S
C734 C733 1.387 . S
H735 C747 0.930 . S
H736 C749 0.930 . S
H737 C750 0.930 . S
H738 C754 0.959 . S
H739 C754 0.959 . S
H740 C754 0.961 1_565 S
H741 C755 0.960 1_565 S
H742 C755 0.961 . S
H743 C755 0.959 . S
H744 C758 0.929 . S
H745 C759 0.931 . S
H746 C761 0.930 . S
C747 H735 0.930 . S
C747 C748 1.399 . S
C747 C752 1.399 . S
C748 C747 1.399 . S
C748 C749 1.376 . S
C749 H736 0.930 . S
C749 C748 1.376 . S
C749 C750 1.388 . S
C750 H737 0.930 . S
C750 C749 1.388 . S
C750 C751 1.390 . S
C751 C750 1.390 . S
C751 C752 1.394 . S
C751 C757 1.465 1_565 S
C752 C747 1.399 . S
C752 C751 1.394 . S
C752 C753 1.496 1_565 S
C753 C752 1.496 1_545 S
C753 C754 1.514 . S
C753 C755 1.555 . S
C753 C756 1.539 . S
C754 H738 0.959 . S
C754 H739 0.959 . S
C754 H740 0.961 1_545 S
C754 C753 1.514 . S
C755 H741 0.960 1_545 S
C755 H742 0.961 . S
C755 H743 0.959 . S
C755 C753 1.555 . S
C756 C753 1.539 . S
C756 C757 1.396 . S
C756 C761 1.390 . S
C757 C751 1.465 1_545 S
C757 C756 1.396 . S
C757 C758 1.399 . S
C758 H744 0.929 . S
C758 C757 1.399 . S
C758 C759 1.385 . S
C759 H745 0.931 . S
C759 C758 1.385 . S
C759 C760 1.389 . S
C760 C759 1.389 . S
C760 C761 1.387 . S
C761 H746 0.930 . S
C761 C756 1.390 . S
C761 C760 1.387 . S
H762 C774 0.930 . S
H763 C776 0.930 . S
H764 C777 0.930 . S
H765 C781 0.959 . S
H766 C781 0.959 . S
H767 C781 0.961 . S
H768 C782 0.960 . S
H769 C782 0.961 . S
H770 C782 0.959 . S
H771 C785 0.929 . S
H772 C786 0.931 . S
H773 C788 0.930 . S
C774 H762 0.930 . S
C774 C775 1.399 . S
C774 C779 1.399 . S
C775 C774 1.399 . S
C775 C776 1.376 . S
C776 H763 0.930 . S
C776 C775 1.376 . S
C776 C777 1.388 . S
C777 H764 0.930 . S
C777 C776 1.388 . S
C777 C778 1.390 . S
C778 C777 1.390 . S
C778 C779 1.394 . S
C778 C784 1.465 . S
C779 C774 1.399 . S
C779 C778 1.394 . S
C779 C780 1.516 . S
C780 C779 1.516 . S
C780 C781 1.502 . S
C780 C782 1.561 . S
C780 C783 1.526 . S
C781 H765 0.959 . S
C781 H766 0.959 . S
C781 H767 0.961 . S
C781 C780 1.502 . S
C782 H768 0.960 . S
C782 H769 0.961 . S
C782 H770 0.959 . S
C782 C780 1.561 . S
C783 C780 1.526 . S
C783 C784 1.396 . S
C783 C788 1.390 . S
C784 C778 1.465 . S
C784 C783 1.396 . S
C784 C785 1.399 . S
C785 H771 0.929 . S
C785 C784 1.399 . S
C785 C786 1.385 . S
C786 H772 0.931 . S
C786 C785 1.385 . S
C786 C787 1.389 . S
C787 C786 1.389 . S
C787 C788 1.387 . S
C788 H773 0.930 . S
C788 C783 1.390 . S
C788 C787 1.387 . S
H789 C801 0.930 . S
H790 C803 0.930 . S
H791 C804 0.930 . S
H792 C808 0.943 1_655 S
H793 C808 0.959 1_655 S
H794 C808 0.961 . S
H795 C809 0.960 . S
H796 C809 0.961 1_655 S
H797 C809 0.962 1_655 S
H798 C812 0.929 . S
H799 C813 0.931 . S
H800 C815 0.930 . S
C801 H789 0.930 . S
C801 C802 1.399 . S
C801 C806 1.399 . S
C802 C801 1.399 . S
C802 C803 1.376 . S
C803 H790 0.930 . S
C803 C802 1.376 . S
C803 C804 1.388 . S
C804 H791 0.930 . S
C804 C803 1.388 . S
C804 C805 1.390 . S
C805 C804 1.390 . S
C805 C806 1.394 . S
C805 C811 1.465 1_455 S
C806 C801 1.399 . S
C806 C805 1.394 . S
C806 C807 1.516 . S
C807 C806 1.516 . S
C807 C808 1.502 . S
C807 C809 1.561 . S
C807 C810 1.526 1_455 S
C808 H792 0.943 1_455 S
C808 H793 0.959 1_455 S
C808 H794 0.961 . S
C808 C807 1.502 . S
C809 H795 0.960 . S
C809 H796 0.961 1_455 S
C809 H797 0.962 1_455 S
C809 C807 1.561 . S
C810 C807 1.526 1_655 S
C810 C811 1.396 . S
C810 C815 1.390 . S
C811 C805 1.465 1_655 S
C811 C810 1.396 . S
C811 C812 1.399 . S
C812 H798 0.929 . S
C812 C811 1.399 . S
C812 C813 1.385 . S
C813 H799 0.931 . S
C813 C812 1.385 . S
C813 C814 1.389 . S
C814 C813 1.389 . S
C814 C815 1.387 . S
C815 H800 0.930 . S
C815 C810 1.390 . S
C815 C814 1.387 . S
C181 C9 1.125 . S
C193 C149 1.138 . S
C208 C23 1.147 . S
C220 C163 1.115 . S
C235 C93 1.115 . S
C247 C37 1.147 . S
C262 C51 1.125 . S
C274 C107 1.135 . S
C289 C121 1.140 . S
C301 C65 1.124 . S
C316 C135 1.147 . S
C328 C79 1.115 1_554 S
C343 C123 1.347 . S
C355 C11 1.366 . S
C370 C25 1.357 . S
C382 C137 1.356 . S
C397 C151 1.339 . S
C409 C39 1.371 . S
C424 C53 1.341 . S
C436 C165 1.370 . S
C451 C67 1.330 . S
C463 C95 1.356 . S
C478 C81 1.368 . S
C490 C109 1.324 . S
C505 C140 1.579 . S
C517 C0 1.602 . S
C532 C154 1.607 . S
C544 C14 1.622 . S
C559 C84 1.610 1_554 S
C571 C28 1.622 . S
C586 C42 1.594 . S
C598 C98 1.618 . S
C613 C56 1.586 . S
C625 C112 1.577 . S
C640 C126 1.576 . S
C652 C70 1.589 . S
C667 C5 1.304 . S
C679 C103 1.313 . S
C694 C117 1.335 . S
C706 C19 1.328 . S
C721 C131 1.336 . S
C733 C33 1.329 . S
C748 C47 1.335 . S
C760 C145 1.327 . S
C775 C61 1.337 . S
C787 C159 1.333 . S
C802 C75 1.306 . S
C814 C89 1.315 . S
