# Generated by pormake.
# Topology umg, (4)-cn, num edge types: 1
# Building blocks:
#     Node 0, Type 0, BuildingBlock: GALJAG_clean_sbu_0, # of connection points: 4
#     Node 1, Type 0, BuildingBlock: GALJAG_clean_sbu_0, # of connection points: 4
#     Node 2, Type 0, BuildingBlock: GALJAG_clean_sbu_0, # of connection points: 4
#     Node 3, Type 0, BuildingBlock: GALJAG_clean_sbu_0, # of connection points: 4
#     Node 4, Type 0, BuildingBlock: GALJAG_clean_sbu_0, # of connection points: 4
#     Node 5, Type 0, BuildingBlock: GALJAG_clean_sbu_0, # of connection points: 4
#     Node 6, Type 0, BuildingBlock: GALJAG_clean_sbu_0, # of connection points: 4
#     Node 7, Type 0, BuildingBlock: GALJAG_clean_sbu_0, # of connection points: 4
#     Node 8, Type 0, BuildingBlock: GALJAG_clean_sbu_0, # of connection points: 4
#     Node 9, Type 0, BuildingBlock: GALJAG_clean_sbu_0, # of connection points: 4
#     Node 10, Type 0, BuildingBlock: GALJAG_clean_sbu_0, # of connection points: 4
#     Node 11, Type 0, BuildingBlock: GALJAG_clean_sbu_0, # of connection points: 4
#     Edge 12, Type (0, 0), BuildingBlock: OJICUG_clean_linker_0, # of connection points: 2
#     Edge 13, Type (0, 0), BuildingBlock: OJICUG_clean_linker_0, # of connection points: 2
#     Edge 14, Type (0, 0), BuildingBlock: OJICUG_clean_linker_0, # of connection points: 2
#     Edge 15, Type (0, 0), BuildingBlock: OJICUG_clean_linker_0, # of connection points: 2
#     Edge 16, Type (0, 0), BuildingBlock: OJICUG_clean_linker_0, # of connection points: 2
#     Edge 17, Type (0, 0), BuildingBlock: OJICUG_clean_linker_0, # of connection points: 2
#     Edge 18, Type (0, 0), BuildingBlock: OJICUG_clean_linker_0, # of connection points: 2
#     Edge 19, Type (0, 0), BuildingBlock: OJICUG_clean_linker_0, # of connection points: 2
#     Edge 20, Type (0, 0), BuildingBlock: OJICUG_clean_linker_0, # of connection points: 2
#     Edge 21, Type (0, 0), BuildingBlock: OJICUG_clean_linker_0, # of connection points: 2
#     Edge 22, Type (0, 0), BuildingBlock: OJICUG_clean_linker_0, # of connection points: 2
#     Edge 23, Type (0, 0), BuildingBlock: OJICUG_clean_linker_0, # of connection points: 2
#     Edge 24, Type (0, 0), BuildingBlock: OJICUG_clean_linker_0, # of connection points: 2
#     Edge 25, Type (0, 0), BuildingBlock: OJICUG_clean_linker_0, # of connection points: 2
#     Edge 26, Type (0, 0), BuildingBlock: OJICUG_clean_linker_0, # of connection points: 2
#     Edge 27, Type (0, 0), BuildingBlock: OJICUG_clean_linker_0, # of connection points: 2
#     Edge 28, Type (0, 0), BuildingBlock: OJICUG_clean_linker_0, # of connection points: 2
#     Edge 29, Type (0, 0), BuildingBlock: OJICUG_clean_linker_0, # of connection points: 2
#     Edge 30, Type (0, 0), BuildingBlock: OJICUG_clean_linker_0, # of connection points: 2
#     Edge 31, Type (0, 0), BuildingBlock: OJICUG_clean_linker_0, # of connection points: 2
#     Edge 32, Type (0, 0), BuildingBlock: OJICUG_clean_linker_0, # of connection points: 2
#     Edge 33, Type (0, 0), BuildingBlock: OJICUG_clean_linker_0, # of connection points: 2
#     Edge 34, Type (0, 0), BuildingBlock: OJICUG_clean_linker_0, # of connection points: 2
#     Edge 35, Type (0, 0), BuildingBlock: OJICUG_clean_linker_0, # of connection points: 2
# Relax obj value: 0.078
# Max RMSD: 0.206
# Mean RMSD: 0.205
data_MOF--net-umg--node1-GALJAG_clean_sbu_0--edge1-OJICUG_clean_linker_0
_symmetry_space_group_name_H-M    P1
_symmetry_Int_Tables_number       1
_symmetry_cell_setting            triclinic
loop_
_symmetry_equiv_pos_as_xyz
'x, y, z'
_cell_length_a     21.014276
_cell_length_b     20.855356
_cell_length_c     63.769353
_cell_angle_alpha  90.018625
_cell_angle_beta   89.944415
_cell_angle_gamma 120.28745
loop_
_atom_site_label
_atom_site_type_symbol
_atom_site_fract_x
_atom_site_fract_y
_atom_site_fract_z
_atom_type_partial_charge
In0 In 0.30492 0.60855 0.07576 0.0
O1 O 0.35077 0.70133 0.05073 0.0
O2 O 0.29944 0.58693 0.04154 0.0
C3 C 0.33548 0.6496 0.1158 0.0
C4 C 0.39945 0.55869 0.0741 0.0
C5 C 0.15944 0.55826 0.07729 0.0
O6 O 0.34964 0.69738 0.10146 0.0
O7 O 0.30599 0.58305 0.10971 0.0
O8 O 0.18491 0.51458 0.07672 0.0
O9 O 0.20742 0.62656 0.07688 0.0
C10 C 0.33263 0.65421 0.03599 0.0
O11 O 0.33013 0.51471 0.07411 0.0
O12 O 0.42013 0.62711 0.07504 0.0
In13 In 0.69987 0.30884 0.40609 0.0
O14 O 0.81824 0.33187 0.40617 0.0
O15 O 0.79926 0.42259 0.41062 0.0
C16 C 0.60673 0.16301 0.40005 0.0
C17 C 0.68466 0.35531 0.36842 0.0
C18 C 0.67352 0.31603 0.44672 0.0
O19 O 0.676 0.19023 0.40098 0.0
O20 O 0.58541 0.20966 0.40183 0.0
O21 O 0.66632 0.3572 0.43342 0.0
O22 O 0.69205 0.27168 0.43937 0.0
C23 C 0.84559 0.40113 0.40905 0.0
O24 O 0.64548 0.35425 0.38373 0.0
O25 O 0.72889 0.33271 0.37235 0.0
In26 In 0.39892 0.70313 0.73917 0.0
O27 O 0.29862 0.65516 0.71695 0.0
O28 O 0.40374 0.67793 0.70543 0.0
C29 C 0.36051 0.69996 0.77936 0.0
C30 C 0.45228 0.84851 0.73213 0.0
C31 C 0.4522 0.61023 0.74299 0.0
O32 O 0.31326 0.6615 0.76548 0.0
O33 O 0.42575 0.73915 0.7728 0.0
O34 O 0.49408 0.67938 0.73995 0.0
O35 O 0.38441 0.58904 0.74445 0.0
C36 C 0.33662 0.65426 0.70161 0.0
O37 O 0.49434 0.82158 0.73387 0.0
O38 O 0.38428 0.80184 0.73356 0.0
In39 In 0.70272 0.40633 0.076 0.0
O40 O 0.65743 0.31787 0.04975 0.0
O41 O 0.73372 0.43199 0.04254 0.0
C42 C 0.66643 0.35925 0.11545 0.0
C43 C 0.60935 0.45744 0.07268 0.0
C44 C 0.84752 0.45668 0.07962 0.0
O45 O 0.65662 0.31399 0.10072 0.0
O46 O 0.6943 0.42633 0.11002 0.0
O47 O 0.82212 0.50037 0.07832 0.0
O48 O 0.79957 0.38826 0.07958 0.0
C49 C 0.69496 0.3663 0.03591 0.0
O50 O 0.67824 0.50084 0.07483 0.0
O51 O 0.58865 0.38906 0.07185 0.0
In52 In 0.30452 0.70181 0.40654 0.0
O53 O 0.1862 0.67891 0.40631 0.0
O54 O 0.20496 0.58824 0.41117 0.0
C55 C 0.39842 0.84736 0.40027 0.0
C56 C 0.31927 0.65361 0.36907 0.0
C57 C 0.32947 0.69562 0.44731 0.0
O58 O 0.32917 0.82041 0.40102 0.0
O59 O 0.41944 0.80056 0.40233 0.0
O60 O 0.33781 0.65463 0.43419 0.0
O61 O 0.31053 0.7393 0.43971 0.0
C62 C 0.15872 0.60971 0.40935 0.0
O63 O 0.35776 0.65414 0.38448 0.0
O64 O 0.27622 0.67786 0.37278 0.0
In65 In 0.61101 0.30881 0.73857 0.0
O66 O 0.51604 0.19015 0.73338 0.0
O67 O 0.62623 0.2102 0.73339 0.0
C68 C 0.55743 0.40143 0.74245 0.0
C69 C 0.67275 0.35722 0.7009 0.0
C70 C 0.64962 0.31392 0.77878 0.0
O71 O 0.51557 0.33221 0.73952 0.0
O72 O 0.62529 0.42279 0.7437 0.0
O73 O 0.69671 0.35209 0.7648 0.0
O74 O 0.5845 0.27367 0.77228 0.0
C75 C 0.5583 0.16336 0.73187 0.0
O76 O 0.71103 0.35671 0.71619 0.0
O77 O 0.60562 0.33333 0.70481 0.0
In78 In 0.39717 0.70302 0.57717 0.0
O79 O 0.49259 0.68013 0.57715 0.0
O80 O 0.3829 0.58937 0.57261 0.0
C81 C 0.44927 0.84871 0.58324 0.0
C82 C 0.33543 0.65579 0.61482 0.0
C83 C 0.36433 0.69599 0.53651 0.0
O84 O 0.49153 0.82177 0.58231 0.0
O85 O 0.38131 0.80183 0.58145 0.0
O86 O 0.3156 0.655 0.54978 0.0
O87 O 0.42722 0.74009 0.5439 0.0
C88 C 0.45068 0.61086 0.57425 0.0
O89 O 0.29704 0.65622 0.59951 0.0
O90 O 0.40255 0.67959 0.61091 0.0
In91 In 0.70464 0.41009 0.90688 0.0
O92 O 0.82381 0.50413 0.908 0.0
O93 O 0.80131 0.39169 0.90813 0.0
C94 C 0.60911 0.45983 0.90514 0.0
C95 C 0.68859 0.36883 0.947 0.0
C96 C 0.69319 0.36531 0.86719 0.0
O97 O 0.6783 0.50365 0.90519 0.0
O98 O 0.58888 0.39162 0.90606 0.0
O99 O 0.65973 0.3189 0.88185 0.0
O100 O 0.73047 0.43242 0.87278 0.0
C101 C 0.84913 0.46018 0.9086 0.0
O102 O 0.6594 0.32001 0.93268 0.0
O103 O 0.72166 0.43547 0.94085 0.0
In104 In 0.30118 0.69653 0.24468 0.0
O105 O 0.32419 0.81492 0.24992 0.0
O106 O 0.41466 0.7954 0.25005 0.0
C107 C 0.15502 0.60359 0.24069 0.0
C108 C 0.31496 0.64838 0.28233 0.0
C109 C 0.33602 0.69312 0.20449 0.0
O110 O 0.18226 0.67271 0.24377 0.0
O111 O 0.20166 0.58243 0.23935 0.0
O112 O 0.3443 0.6542 0.21833 0.0
O113 O 0.31085 0.73296 0.2111 0.0
C114 C 0.39328 0.84199 0.25151 0.0
O115 O 0.35407 0.64951 0.26701 0.0
O116 O 0.271 0.67135 0.27843 0.0
In117 In 0.60827 0.30985 0.57677 0.0
O118 O 0.70943 0.35651 0.59866 0.0
O119 O 0.60466 0.33387 0.61057 0.0
C120 C 0.6389 0.31621 0.53594 0.0
C121 C 0.55494 0.40221 0.5742 0.0
C122 C 0.55632 0.16424 0.58296 0.0
O123 O 0.68843 0.35714 0.54901 0.0
O124 O 0.57633 0.27249 0.54362 0.0
O125 O 0.51408 0.19125 0.58233 0.0
O126 O 0.62416 0.21099 0.58079 0.0
C127 C 0.67188 0.3573 0.61417 0.0
O128 O 0.51305 0.33299 0.5772 0.0
O129 O 0.62264 0.42359 0.57233 0.0
In130 In 0.30477 0.6122 0.90772 0.0
O131 O 0.18571 0.51781 0.90957 0.0
O132 O 0.20806 0.62981 0.91158 0.0
C133 C 0.39866 0.56122 0.90403 0.0
C134 C 0.33986 0.65661 0.94744 0.0
C135 C 0.31455 0.65584 0.86795 0.0
O136 O 0.32967 0.51777 0.90596 0.0
O137 O 0.41926 0.62964 0.90358 0.0
O138 O 0.35069 0.7023 0.88236 0.0
O139 O 0.27496 0.58934 0.87385 0.0
C140 C 0.16028 0.56138 0.91123 0.0
O141 O 0.34887 0.70328 0.93325 0.0
O142 O 0.31331 0.59036 0.94136 0.0
In143 In 0.69452 0.30227 0.24394 0.0
O144 O 0.67098 0.18374 0.24919 0.0
O145 O 0.58079 0.20365 0.24943 0.0
C146 C 0.84084 0.39484 0.2401 0.0
C147 C 0.68207 0.3514 0.28158 0.0
C148 C 0.66034 0.30704 0.20376 0.0
O149 O 0.81334 0.32559 0.24301 0.0
O150 O 0.79439 0.41622 0.23878 0.0
O151 O 0.65115 0.34485 0.21777 0.0
O152 O 0.68592 0.26736 0.2102 0.0
C153 C 0.60196 0.15691 0.2509 0.0
O154 O 0.64314 0.35089 0.26632 0.0
O155 O 0.72488 0.32704 0.27766 0.0
C156 C 0.37981 0.63224 0.98121 0.0
C157 C 0.35692 0.67447 0.96981 0.0
H158 H 0.39112 0.59449 0.01128 0.0
C159 C 0.33867 0.72187 0.9806 0.0
H160 H 0.39479 0.59579 0.97325 0.0
C161 C 0.33665 0.72118 0.00267 0.0
C162 C 0.35286 0.67307 0.01384 0.0
H163 H 0.32032 0.7545 0.97206 0.0
H164 H 0.3169 0.75334 0.01083 0.0
C165 C 0.3777 0.63148 0.00296 0.0
C166 C 0.61182 0.34276 0.33614 0.0
C167 C 0.67931 0.37732 0.34692 0.0
H168 H 0.55948 0.30821 0.30596 0.0
C169 C 0.74505 0.41823 0.33564 0.0
H170 H 0.56059 0.31004 0.34459 0.0
C171 C 0.74444 0.41709 0.31384 0.0
C172 C 0.67806 0.37516 0.30297 0.0
H173 H 0.79768 0.44522 0.34368 0.0
H174 H 0.79659 0.44324 0.30553 0.0
C175 C 0.6112 0.3417 0.3141 0.0
C176 C 0.33292 0.59031 0.66893 0.0
C177 C 0.30867 0.63167 0.68019 0.0
H178 H 0.35796 0.56402 0.6388 0.0
C179 C 0.27543 0.66594 0.66942 0.0
H180 H 0.3588 0.56356 0.67695 0.0
C181 C 0.27503 0.66631 0.64739 0.0
C182 C 0.30779 0.63231 0.63623 0.0
H183 H 0.25734 0.69901 0.67787 0.0
H184 H 0.25671 0.69969 0.63924 0.0
C185 C 0.33241 0.59055 0.64713 0.0
C186 C 0.75853 0.39819 0.00188 0.0
C187 C 0.69487 0.35103 0.01336 0.0
H188 H 0.80583 0.43921 0.97181 0.0
C189 C 0.63076 0.2995 0.00261 0.0
H190 H 0.80896 0.43776 0.00976 0.0
C191 C 0.62903 0.30024 0.98054 0.0
C192 C 0.69136 0.35262 0.96931 0.0
H193 H 0.58093 0.26282 0.0112 0.0
H194 H 0.57797 0.26405 0.97242 0.0
C195 C 0.75674 0.39907 0.98015 0.0
C196 C 0.38863 0.66186 0.31447 0.0
C197 C 0.32088 0.62672 0.30382 0.0
H198 H 0.44165 0.69724 0.34454 0.0
C199 C 0.25551 0.58542 0.31522 0.0
H200 H 0.43959 0.69489 0.30592 0.0
C201 C 0.2567 0.5866 0.33701 0.0
C202 C 0.32326 0.62921 0.34777 0.0
H203 H 0.2027 0.55802 0.30728 0.0
H204 H 0.20475 0.56011 0.34543 0.0
C205 C 0.38982 0.66317 0.3365 0.0
C206 C 0.73271 0.34528 0.66845 0.0
C207 C 0.70053 0.38014 0.67947 0.0
H208 H 0.75004 0.31154 0.63808 0.0
C209 C 0.67692 0.42249 0.66845 0.0
H210 H 0.75024 0.31144 0.6767 0.0
C211 C 0.67698 0.4227 0.64665 0.0
C212 C 0.70048 0.38042 0.63551 0.0
H213 H 0.65182 0.44965 0.67668 0.0
H214 H 0.65184 0.44998 0.63852 0.0
C215 C 0.73265 0.34538 0.64641 0.0
C216 C 0.34988 0.74142 0.16795 0.0
C217 C 0.34811 0.68827 0.18191 0.0
H218 H 0.34872 0.77161 0.13584 0.0
C219 C 0.35075 0.62711 0.17389 0.0
H220 H 0.34835 0.78944 0.17376 0.0
C221 C 0.35001 0.6166 0.15226 0.0
C222 C 0.34784 0.66767 0.13829 0.0
H223 H 0.34951 0.58542 0.18429 0.0
H224 H 0.34872 0.56711 0.14646 0.0
C225 C 0.35037 0.73151 0.14627 0.0
C226 C 0.62342 0.25109 0.48031 0.0
C227 C 0.6621 0.31824 0.46933 0.0
H228 H 0.58543 0.19845 0.51013 0.0
C229 C 0.69535 0.38563 0.4804 0.0
H230 H 0.59802 0.19852 0.47204 0.0
C231 C 0.69074 0.38547 0.50234 0.0
C232 C 0.651 0.31803 0.51323 0.0
H233 H 0.72649 0.43792 0.47216 0.0
H234 H 0.7166 0.43776 0.51074 0.0
C235 C 0.61677 0.25105 0.50203 0.0
C236 C 0.27774 0.63595 0.8098 0.0
C237 C 0.34321 0.69546 0.80191 0.0
H238 H 0.21749 0.57705 0.83711 0.0
C239 C 0.39547 0.7472 0.81599 0.0
H240 H 0.23652 0.59541 0.79933 0.0
C241 C 0.38425 0.73727 0.83764 0.0
C242 C 0.32111 0.67484 0.8455 0.0
H243 H 0.44631 0.79398 0.81028 0.0
H244 H 0.42672 0.77605 0.84816 0.0
C245 C 0.26704 0.62544 0.83142 0.0
C246 C 0.65155 0.27483 0.14525 0.0
C247 C 0.65195 0.33816 0.13773 0.0
H248 H 0.65409 0.21543 0.17232 0.0
C249 C 0.64617 0.38631 0.15205 0.0
H250 H 0.65602 0.23696 0.13455 0.0
C251 C 0.64424 0.37372 0.1736 0.0
C252 C 0.64918 0.31335 0.1812 0.0
H253 H 0.64577 0.43533 0.14661 0.0
H254 H 0.64283 0.41339 0.18428 0.0
C255 C 0.65074 0.26282 0.16685 0.0
C256 C 0.31573 0.62636 0.50287 0.0
C257 C 0.35103 0.69384 0.51388 0.0
H258 H 0.2838 0.57403 0.47258 0.0
C259 C 0.3807 0.76098 0.50285 0.0
H260 H 0.29359 0.57405 0.51115 0.0
C261 C 0.37406 0.76094 0.48113 0.0
C262 C 0.34006 0.69384 0.46999 0.0
H263 H 0.40875 0.81361 0.51107 0.0
H264 H 0.39615 0.81354 0.47298 0.0
C265 C 0.31123 0.6264 0.48093 0.0
C266 C 0.74064 0.39471 0.83063 0.0
C267 C 0.68727 0.34511 0.84485 0.0
H268 H 0.77132 0.42285 0.79845 0.0
C269 C 0.62572 0.28067 0.83722 0.0
H270 H 0.78903 0.4446 0.83615 0.0
C271 C 0.61521 0.26875 0.81561 0.0
C272 C 0.66672 0.32049 0.80136 0.0
H273 H 0.58386 0.24166 0.84786 0.0
H274 H 0.56546 0.22037 0.81004 0.0
C275 C 0.73076 0.3822 0.80906 0.0
C276 C 0.97956 0.55912 0.07931 0.0
C277 C 0.92739 0.48294 0.07996 0.0
H278 H 0.09377 0.64257 0.07795 0.0
C279 C 0.95218 0.43161 0.08009 0.0
H280 H 0.96219 0.59998 0.07916 0.0
C281 C 0.02753 0.45593 0.07931 0.0
C282 C 0.07966 0.53208 0.07841 0.0
H283 H 0.9133 0.37247 0.08055 0.0
H284 H 0.04489 0.41506 0.07928 0.0
C285 C 0.05491 0.58344 0.07857 0.0
C286 C 0.47753 0.05563 0.39783 0.0
C287 C 0.5538 0.0823 0.39833 0.0
H288 H 0.36858 0.96052 0.39794 0.0
C289 C 0.57845 0.03101 0.39825 0.0
H290 H 0.45676 0.09377 0.39784 0.0
C291 C 0.52785 0.95465 0.39831 0.0
C292 C 0.45156 0.928 0.39844 0.0
H293 H 0.6368 0.0498 0.39861 0.0
H294 H 0.54859 0.9165 0.3987 0.0
C295 C 0.42695 0.97929 0.39788 0.0
C296 C 0.58032 0.53152 0.74367 0.0
C297 C 0.53019 0.45454 0.74348 0.0
H298 H 0.59515 0.6411 0.74357 0.0
C299 C 0.45436 0.42934 0.74374 0.0
H300 H 0.63917 0.55276 0.74344 0.0
C301 C 0.42922 0.48004 0.74398 0.0
C302 C 0.47936 0.55703 0.74379 0.0
H303 H 0.41441 0.37045 0.74361 0.0
H304 H 0.37037 0.45882 0.74398 0.0
C305 C 0.55518 0.58221 0.74372 0.0
C306 C 0.57851 0.05711 0.58496 0.0
C307 C 0.52879 0.08362 0.58479 0.0
H308 H 0.59247 0.96213 0.58472 0.0
C309 C 0.45285 0.03221 0.58533 0.0
H310 H 0.63742 0.09534 0.5846 0.0
C311 C 0.42716 0.95589 0.5854 0.0
C312 C 0.47686 0.92937 0.58494 0.0
H313 H 0.41319 0.05088 0.58524 0.0
H314 H 0.36823 0.91764 0.58536 0.0
C315 C 0.55282 0.98079 0.58505 0.0
C316 C 0.52824 0.58612 0.9024 0.0
C317 C 0.45214 0.53485 0.90339 0.0
H318 H 0.63755 0.60271 0.90222 0.0
C319 C 0.42814 0.45876 0.90452 0.0
H320 H 0.5485 0.6452 0.90154 0.0
C321 C 0.47923 0.43449 0.90491 0.0
C322 C 0.55535 0.48582 0.90422 0.0
H323 H 0.36992 0.41795 0.90531 0.0
H324 H 0.45901 0.37545 0.90593 0.0
C325 C 0.57932 0.56186 0.90284 0.0
C326 C 0.02406 0.57562 0.23947 0.0
C327 C 0.07466 0.55043 0.23962 0.0
H328 H 0.9106 0.54618 0.23929 0.0
C329 C 0.04775 0.47345 0.23932 0.0
H330 H 0.04304 0.63451 0.23968 0.0
C331 C 0.97186 0.42275 0.23925 0.0
C332 C 0.92126 0.44795 0.23929 0.0
H333 H 0.08535 0.45222 0.23947 0.0
H334 H 0.95286 0.36386 0.23931 0.0
C335 C 0.94819 0.52494 0.23921 0.0
C336 C 0.47997 0.43249 0.07108 0.0
C337 C 0.55601 0.48377 0.07219 0.0
H338 H 0.37072 0.41592 0.07087 0.0
C339 C 0.5801 0.55981 0.07355 0.0
H340 H 0.45972 0.37344 0.07004 0.0
C341 C 0.52908 0.58404 0.07402 0.0
C342 C 0.45301 0.53269 0.07318 0.0
H343 H 0.6383 0.60056 0.07446 0.0
H344 H 0.5493 0.64305 0.07521 0.0
C345 C 0.42895 0.45672 0.07159 0.0
C346 C 0.97624 0.42901 0.41 0.0
C347 C 0.9257 0.4542 0.40979 0.0
H348 H 0.08966 0.45865 0.4102 0.0
C349 C 0.95232 0.53111 0.40987 0.0
H350 H 0.95734 0.37014 0.40996 0.0
C351 C 0.02805 0.58186 0.40985 0.0
C352 C 0.07859 0.55667 0.40994 0.0
H353 H 0.91462 0.55222 0.40967 0.0
H354 H 0.04695 0.64073 0.40968 0.0
C355 C 0.05196 0.47976 0.41017 0.0
C356 C 0.581 0.05671 0.72975 0.0
C357 C 0.53102 0.08291 0.72994 0.0
H358 H 0.59541 0.962 0.73022 0.0
C359 C 0.45517 0.03138 0.72944 0.0
H360 H 0.63989 0.0951 0.73008 0.0
C361 C 0.4298 0.95517 0.72947 0.0
C362 C 0.47976 0.92896 0.73005 0.0
H363 H 0.41536 0.04985 0.72952 0.0
H364 H 0.3709 0.91678 0.72957 0.0
C365 C 0.55563 0.98049 0.72983 0.0
C366 C 0.4273 0.4809 0.57354 0.0
C367 C 0.47768 0.5578 0.5736 0.0
H368 H 0.41216 0.37126 0.5738 0.0
C369 C 0.55344 0.58297 0.57348 0.0
H370 H 0.36847 0.4598 0.57369 0.0
C371 C 0.57834 0.53219 0.57338 0.0
C372 C 0.52796 0.4553 0.57361 0.0
H373 H 0.59349 0.64184 0.57351 0.0
H374 H 0.63717 0.55328 0.57339 0.0
C375 C 0.4522 0.43013 0.57364 0.0
C376 C 0.05591 0.58654 0.91187 0.0
C377 C 0.08058 0.53514 0.91151 0.0
H378 H 0.96332 0.6032 0.91115 0.0
C379 C 0.02854 0.45903 0.91056 0.0
H380 H 0.09478 0.64566 0.91257 0.0
C381 C 0.9533 0.43481 0.90974 0.0
C382 C 0.92868 0.48625 0.90981 0.0
H383 H 0.04592 0.41818 0.91022 0.0
H384 H 0.91446 0.37572 0.90888 0.0
C385 C 0.98068 0.56233 0.91101 0.0
C386 C 0.42185 0.97393 0.25362 0.0
C387 C 0.44627 0.92251 0.25339 0.0
H388 H 0.4521 0.08848 0.25316 0.0
C389 C 0.52251 0.94887 0.25374 0.0
H390 H 0.36353 0.95532 0.2534 0.0
C391 C 0.57331 0.02509 0.25354 0.0
C392 C 0.54889 0.0765 0.25305 0.0
H393 H 0.54309 0.91057 0.25362 0.0
H394 H 0.63163 0.04367 0.25328 0.0
C395 C 0.47267 0.05017 0.25347 0.0
loop_
_geom_bond_atom_site_label_1
_geom_bond_atom_site_label_2
_geom_bond_distance
_geom_bond_site_symmetry_2
_ccdc_geom_bond_type
In0 O1 2.294 . S
In0 O2 2.326 . S
In0 O6 2.266 . S
In0 O7 2.326 . S
In0 O8 2.266 . S
In0 O9 2.326 . S
In0 O11 2.294 . S
In0 O12 2.326 . S
O1 In0 2.294 . S
O1 C10 1.240 . S
O2 In0 2.326 . S
O2 C10 1.252 . S
C3 O6 1.252 . S
C3 O7 1.260 . S
C4 O11 1.240 . S
C4 O12 1.252 . S
C5 O8 1.252 . S
C5 O9 1.260 . S
O6 In0 2.266 . S
O6 C3 1.252 . S
O7 In0 2.326 . S
O7 C3 1.260 . S
O8 In0 2.266 . S
O8 C5 1.252 . S
O9 In0 2.326 . S
O9 C5 1.260 . S
C10 O1 1.240 . S
C10 O2 1.252 . S
O11 In0 2.294 . S
O11 C4 1.240 . S
O12 In0 2.326 . S
O12 C4 1.252 . S
In13 O14 2.294 . S
In13 O15 2.326 . S
In13 O19 2.266 . S
In13 O20 2.326 . S
In13 O21 2.266 . S
In13 O22 2.326 . S
In13 O24 2.294 . S
In13 O25 2.326 . S
O14 In13 2.294 . S
O14 C23 1.240 . S
O15 In13 2.326 . S
O15 C23 1.252 . S
C16 O19 1.252 . S
C16 O20 1.260 . S
C17 O24 1.240 . S
C17 O25 1.252 . S
C18 O21 1.252 . S
C18 O22 1.260 . S
O19 In13 2.266 . S
O19 C16 1.252 . S
O20 In13 2.326 . S
O20 C16 1.260 . S
O21 In13 2.266 . S
O21 C18 1.252 . S
O22 In13 2.326 . S
O22 C18 1.260 . S
C23 O14 1.240 . S
C23 O15 1.252 . S
O24 In13 2.294 . S
O24 C17 1.240 . S
O25 In13 2.326 . S
O25 C17 1.252 . S
In26 O27 2.294 . S
In26 O28 2.326 . S
In26 O32 2.266 . S
In26 O33 2.326 . S
In26 O34 2.266 . S
In26 O35 2.326 . S
In26 O37 2.294 . S
In26 O38 2.326 . S
O27 In26 2.294 . S
O27 C36 1.240 . S
O28 In26 2.326 . S
O28 C36 1.252 . S
C29 O32 1.252 . S
C29 O33 1.260 . S
C30 O37 1.240 . S
C30 O38 1.252 . S
C31 O34 1.252 . S
C31 O35 1.260 . S
O32 In26 2.266 . S
O32 C29 1.252 . S
O33 In26 2.326 . S
O33 C29 1.260 . S
O34 In26 2.266 . S
O34 C31 1.252 . S
O35 In26 2.326 . S
O35 C31 1.260 . S
C36 O27 1.240 . S
C36 O28 1.252 . S
O37 In26 2.294 . S
O37 C30 1.240 . S
O38 In26 2.326 . S
O38 C30 1.252 . S
In39 O40 2.294 . S
In39 O41 2.326 . S
In39 O45 2.266 . S
In39 O46 2.326 . S
In39 O47 2.266 . S
In39 O48 2.326 . S
In39 O50 2.294 . S
In39 O51 2.326 . S
O40 In39 2.294 . S
O40 C49 1.240 . S
O41 In39 2.326 . S
O41 C49 1.252 . S
C42 O45 1.252 . S
C42 O46 1.260 . S
C43 O50 1.240 . S
C43 O51 1.252 . S
C44 O47 1.252 . S
C44 O48 1.260 . S
O45 In39 2.266 . S
O45 C42 1.252 . S
O46 In39 2.326 . S
O46 C42 1.260 . S
O47 In39 2.266 . S
O47 C44 1.252 . S
O48 In39 2.326 . S
O48 C44 1.260 . S
C49 O40 1.240 . S
C49 O41 1.252 . S
O50 In39 2.294 . S
O50 C43 1.240 . S
O51 In39 2.326 . S
O51 C43 1.252 . S
In52 O53 2.294 . S
In52 O54 2.326 . S
In52 O58 2.266 . S
In52 O59 2.326 . S
In52 O60 2.266 . S
In52 O61 2.326 . S
In52 O63 2.294 . S
In52 O64 2.326 . S
O53 In52 2.294 . S
O53 C62 1.240 . S
O54 In52 2.326 . S
O54 C62 1.252 . S
C55 O58 1.252 . S
C55 O59 1.260 . S
C56 O63 1.240 . S
C56 O64 1.252 . S
C57 O60 1.252 . S
C57 O61 1.260 . S
O58 In52 2.266 . S
O58 C55 1.252 . S
O59 In52 2.326 . S
O59 C55 1.260 . S
O60 In52 2.266 . S
O60 C57 1.252 . S
O61 In52 2.326 . S
O61 C57 1.260 . S
C62 O53 1.240 . S
C62 O54 1.252 . S
O63 In52 2.294 . S
O63 C56 1.240 . S
O64 In52 2.326 . S
O64 C56 1.252 . S
In65 O66 2.294 . S
In65 O67 2.326 . S
In65 O71 2.266 . S
In65 O72 2.326 . S
In65 O73 2.266 . S
In65 O74 2.326 . S
In65 O76 2.294 . S
In65 O77 2.326 . S
O66 In65 2.294 . S
O66 C75 1.240 . S
O67 In65 2.326 . S
O67 C75 1.252 . S
C68 O71 1.252 . S
C68 O72 1.260 . S
C69 O76 1.240 . S
C69 O77 1.252 . S
C70 O73 1.252 . S
C70 O74 1.260 . S
O71 In65 2.266 . S
O71 C68 1.252 . S
O72 In65 2.326 . S
O72 C68 1.260 . S
O73 In65 2.266 . S
O73 C70 1.252 . S
O74 In65 2.326 . S
O74 C70 1.260 . S
C75 O66 1.240 . S
C75 O67 1.252 . S
O76 In65 2.294 . S
O76 C69 1.240 . S
O77 In65 2.326 . S
O77 C69 1.252 . S
In78 O79 2.294 . S
In78 O80 2.326 . S
In78 O84 2.266 . S
In78 O85 2.326 . S
In78 O86 2.266 . S
In78 O87 2.326 . S
In78 O89 2.294 . S
In78 O90 2.326 . S
O79 In78 2.294 . S
O79 C88 1.240 . S
O80 In78 2.326 . S
O80 C88 1.252 . S
C81 O84 1.252 . S
C81 O85 1.260 . S
C82 O89 1.240 . S
C82 O90 1.252 . S
C83 O86 1.252 . S
C83 O87 1.260 . S
O84 In78 2.266 . S
O84 C81 1.252 . S
O85 In78 2.326 . S
O85 C81 1.260 . S
O86 In78 2.266 . S
O86 C83 1.252 . S
O87 In78 2.326 . S
O87 C83 1.260 . S
C88 O79 1.240 . S
C88 O80 1.252 . S
O89 In78 2.294 . S
O89 C82 1.240 . S
O90 In78 2.326 . S
O90 C82 1.252 . S
In91 O92 2.294 . S
In91 O93 2.326 . S
In91 O97 2.266 . S
In91 O98 2.326 . S
In91 O99 2.266 . S
In91 O100 2.326 . S
In91 O102 2.294 . S
In91 O103 2.326 . S
O92 In91 2.294 . S
O92 C101 1.240 . S
O93 In91 2.326 . S
O93 C101 1.252 . S
C94 O97 1.252 . S
C94 O98 1.260 . S
C95 O102 1.240 . S
C95 O103 1.252 . S
C96 O99 1.252 . S
C96 O100 1.260 . S
O97 In91 2.266 . S
O97 C94 1.252 . S
O98 In91 2.326 . S
O98 C94 1.260 . S
O99 In91 2.266 . S
O99 C96 1.252 . S
O100 In91 2.326 . S
O100 C96 1.260 . S
C101 O92 1.240 . S
C101 O93 1.252 . S
O102 In91 2.294 . S
O102 C95 1.240 . S
O103 In91 2.326 . S
O103 C95 1.252 . S
In104 O105 2.294 . S
In104 O106 2.326 . S
In104 O110 2.266 . S
In104 O111 2.326 . S
In104 O112 2.266 . S
In104 O113 2.326 . S
In104 O115 2.294 . S
In104 O116 2.326 . S
O105 In104 2.294 . S
O105 C114 1.240 . S
O106 In104 2.326 . S
O106 C114 1.252 . S
C107 O110 1.252 . S
C107 O111 1.260 . S
C108 O115 1.240 . S
C108 O116 1.252 . S
C109 O112 1.252 . S
C109 O113 1.260 . S
O110 In104 2.266 . S
O110 C107 1.252 . S
O111 In104 2.326 . S
O111 C107 1.260 . S
O112 In104 2.266 . S
O112 C109 1.252 . S
O113 In104 2.326 . S
O113 C109 1.260 . S
C114 O105 1.240 . S
C114 O106 1.252 . S
O115 In104 2.294 . S
O115 C108 1.240 . S
O116 In104 2.326 . S
O116 C108 1.252 . S
In117 O118 2.294 . S
In117 O119 2.326 . S
In117 O123 2.266 . S
In117 O124 2.326 . S
In117 O125 2.266 . S
In117 O126 2.326 . S
In117 O128 2.294 . S
In117 O129 2.326 . S
O118 In117 2.294 . S
O118 C127 1.240 . S
O119 In117 2.326 . S
O119 C127 1.252 . S
C120 O123 1.252 . S
C120 O124 1.260 . S
C121 O128 1.240 . S
C121 O129 1.252 . S
C122 O125 1.252 . S
C122 O126 1.260 . S
O123 In117 2.266 . S
O123 C120 1.252 . S
O124 In117 2.326 . S
O124 C120 1.260 . S
O125 In117 2.266 . S
O125 C122 1.252 . S
O126 In117 2.326 . S
O126 C122 1.260 . S
C127 O118 1.240 . S
C127 O119 1.252 . S
O128 In117 2.294 . S
O128 C121 1.240 . S
O129 In117 2.326 . S
O129 C121 1.252 . S
In130 O131 2.294 . S
In130 O132 2.326 . S
In130 O136 2.266 . S
In130 O137 2.326 . S
In130 O138 2.266 . S
In130 O139 2.326 . S
In130 O141 2.294 . S
In130 O142 2.326 . S
O131 In130 2.294 . S
O131 C140 1.240 . S
O132 In130 2.326 . S
O132 C140 1.252 . S
C133 O136 1.252 . S
C133 O137 1.260 . S
C134 O141 1.240 . S
C134 O142 1.252 . S
C135 O138 1.252 . S
C135 O139 1.260 . S
O136 In130 2.266 . S
O136 C133 1.252 . S
O137 In130 2.326 . S
O137 C133 1.260 . S
O138 In130 2.266 . S
O138 C135 1.252 . S
O139 In130 2.326 . S
O139 C135 1.260 . S
C140 O131 1.240 . S
C140 O132 1.252 . S
O141 In130 2.294 . S
O141 C134 1.240 . S
O142 In130 2.326 . S
O142 C134 1.252 . S
In143 O144 2.294 . S
In143 O145 2.326 . S
In143 O149 2.266 . S
In143 O150 2.326 . S
In143 O151 2.266 . S
In143 O152 2.326 . S
In143 O154 2.294 . S
In143 O155 2.326 . S
O144 In143 2.294 . S
O144 C153 1.240 . S
O145 In143 2.326 . S
O145 C153 1.252 . S
C146 O149 1.252 . S
C146 O150 1.260 . S
C147 O154 1.240 . S
C147 O155 1.252 . S
C148 O151 1.252 . S
C148 O152 1.260 . S
O149 In143 2.266 . S
O149 C146 1.252 . S
O150 In143 2.326 . S
O150 C146 1.260 . S
O151 In143 2.266 . S
O151 C148 1.252 . S
O152 In143 2.326 . S
O152 C148 1.260 . S
C153 O144 1.240 . S
C153 O145 1.252 . S
O154 In143 2.294 . S
O154 C147 1.240 . S
O155 In143 2.326 . S
O155 C147 1.252 . S
C156 C157 1.387 . S
C156 H160 0.950 . S
C156 C165 1.390 1_556 S
C157 C156 1.387 . S
C157 C159 1.387 . S
H158 C165 0.950 . S
C159 C157 1.387 . S
C159 C161 1.390 1_556 S
C159 H163 0.950 . S
H160 C156 0.950 . S
C161 C159 1.390 1_554 S
C161 C162 1.387 . S
C161 H164 0.950 . S
C162 C161 1.387 . S
C162 C165 1.387 . S
H163 C159 0.950 . S
H164 C161 0.950 . S
C165 C156 1.390 1_554 S
C165 H158 0.950 . S
C165 C162 1.387 . S
C166 C167 1.387 . S
C166 H170 0.950 . S
C166 C175 1.390 . S
C167 C166 1.387 . S
C167 C169 1.387 . S
H168 C175 0.950 . S
C169 C167 1.387 . S
C169 C171 1.390 . S
C169 H173 0.950 . S
H170 C166 0.950 . S
C171 C169 1.390 . S
C171 C172 1.387 . S
C171 H174 0.950 . S
C172 C171 1.387 . S
C172 C175 1.387 . S
H173 C169 0.950 . S
H174 C171 0.950 . S
C175 C166 1.390 . S
C175 H168 0.950 . S
C175 C172 1.387 . S
C176 C177 1.387 . S
C176 H180 0.950 . S
C176 C185 1.390 . S
C177 C176 1.387 . S
C177 C179 1.387 . S
H178 C185 0.950 . S
C179 C177 1.387 . S
C179 C181 1.390 . S
C179 H183 0.950 . S
H180 C176 0.950 . S
C181 C179 1.390 . S
C181 C182 1.387 . S
C181 H184 0.950 . S
C182 C181 1.387 . S
C182 C185 1.387 . S
H183 C179 0.950 . S
H184 C181 0.950 . S
C185 C176 1.390 . S
C185 H178 0.950 . S
C185 C182 1.387 . S
C186 C187 1.387 . S
C186 H190 0.950 . S
C186 C195 1.390 1_554 S
C187 C186 1.387 . S
C187 C189 1.387 . S
H188 C195 0.950 . S
C189 C187 1.387 . S
C189 C191 1.390 1_554 S
C189 H193 0.950 . S
H190 C186 0.950 . S
C191 C189 1.390 1_556 S
C191 C192 1.387 . S
C191 H194 0.950 . S
C192 C191 1.387 . S
C192 C195 1.387 . S
H193 C189 0.950 . S
H194 C191 0.950 . S
C195 C186 1.390 1_556 S
C195 H188 0.950 . S
C195 C192 1.387 . S
C196 C197 1.387 . S
C196 H200 0.950 . S
C196 C205 1.390 . S
C197 C196 1.387 . S
C197 C199 1.387 . S
H198 C205 0.950 . S
C199 C197 1.387 . S
C199 C201 1.390 . S
C199 H203 0.950 . S
H200 C196 0.950 . S
C201 C199 1.390 . S
C201 C202 1.387 . S
C201 H204 0.950 . S
C202 C201 1.387 . S
C202 C205 1.387 . S
H203 C199 0.950 . S
H204 C201 0.950 . S
C205 C196 1.390 . S
C205 H198 0.950 . S
C205 C202 1.387 . S
C206 C207 1.387 . S
C206 H210 0.950 . S
C206 C215 1.390 . S
C207 C206 1.387 . S
C207 C209 1.387 . S
H208 C215 0.950 . S
C209 C207 1.387 . S
C209 C211 1.390 . S
C209 H213 0.950 . S
H210 C206 0.950 . S
C211 C209 1.390 . S
C211 C212 1.387 . S
C211 H214 0.950 . S
C212 C211 1.387 . S
C212 C215 1.387 . S
H213 C209 0.950 . S
H214 C211 0.950 . S
C215 C206 1.390 . S
C215 H208 0.950 . S
C215 C212 1.387 . S
C216 C217 1.387 . S
C216 H220 0.950 . S
C216 C225 1.390 . S
C217 C216 1.387 . S
C217 C219 1.387 . S
H218 C225 0.950 . S
C219 C217 1.387 . S
C219 C221 1.390 . S
C219 H223 0.950 . S
H220 C216 0.950 . S
C221 C219 1.390 . S
C221 C222 1.387 . S
C221 H224 0.950 . S
C222 C221 1.387 . S
C222 C225 1.387 . S
H223 C219 0.950 . S
H224 C221 0.950 . S
C225 C216 1.390 . S
C225 H218 0.950 . S
C225 C222 1.387 . S
C226 C227 1.387 . S
C226 H230 0.950 . S
C226 C235 1.390 . S
C227 C226 1.387 . S
C227 C229 1.387 . S
H228 C235 0.950 . S
C229 C227 1.387 . S
C229 C231 1.390 . S
C229 H233 0.950 . S
H230 C226 0.950 . S
C231 C229 1.390 . S
C231 C232 1.387 . S
C231 H234 0.950 . S
C232 C231 1.387 . S
C232 C235 1.387 . S
H233 C229 0.950 . S
H234 C231 0.950 . S
C235 C226 1.390 . S
C235 H228 0.950 . S
C235 C232 1.387 . S
C236 C237 1.387 . S
C236 H240 0.950 . S
C236 C245 1.390 . S
C237 C236 1.387 . S
C237 C239 1.387 . S
H238 C245 0.950 . S
C239 C237 1.387 . S
C239 C241 1.390 . S
C239 H243 0.950 . S
H240 C236 0.950 . S
C241 C239 1.390 . S
C241 C242 1.387 . S
C241 H244 0.950 . S
C242 C241 1.387 . S
C242 C245 1.387 . S
H243 C239 0.950 . S
H244 C241 0.950 . S
C245 C236 1.390 . S
C245 H238 0.950 . S
C245 C242 1.387 . S
C246 C247 1.387 . S
C246 H250 0.950 . S
C246 C255 1.390 . S
C247 C246 1.387 . S
C247 C249 1.387 . S
H248 C255 0.950 . S
C249 C247 1.387 . S
C249 C251 1.390 . S
C249 H253 0.950 . S
H250 C246 0.950 . S
C251 C249 1.390 . S
C251 C252 1.387 . S
C251 H254 0.950 . S
C252 C251 1.387 . S
C252 C255 1.387 . S
H253 C249 0.950 . S
H254 C251 0.950 . S
C255 C246 1.390 . S
C255 H248 0.950 . S
C255 C252 1.387 . S
C256 C257 1.387 . S
C256 H260 0.950 . S
C256 C265 1.390 . S
C257 C256 1.387 . S
C257 C259 1.387 . S
H258 C265 0.950 . S
C259 C257 1.387 . S
C259 C261 1.390 . S
C259 H263 0.950 . S
H260 C256 0.950 . S
C261 C259 1.390 . S
C261 C262 1.387 . S
C261 H264 0.950 . S
C262 C261 1.387 . S
C262 C265 1.387 . S
H263 C259 0.950 . S
H264 C261 0.950 . S
C265 C256 1.390 . S
C265 H258 0.950 . S
C265 C262 1.387 . S
C266 C267 1.387 . S
C266 H270 0.950 . S
C266 C275 1.390 . S
C267 C266 1.387 . S
C267 C269 1.387 . S
H268 C275 0.950 . S
C269 C267 1.387 . S
C269 C271 1.390 . S
C269 H273 0.950 . S
H270 C266 0.950 . S
C271 C269 1.390 . S
C271 C272 1.387 . S
C271 H274 0.950 . S
C272 C271 1.387 . S
C272 C275 1.387 . S
H273 C269 0.950 . S
H274 C271 0.950 . S
C275 C266 1.390 . S
C275 H268 0.950 . S
C275 C272 1.387 . S
C276 C277 1.387 . S
C276 H280 0.950 . S
C276 C285 1.390 1_655 S
C277 C276 1.387 . S
C277 C279 1.387 . S
H278 C285 0.950 . S
C279 C277 1.387 . S
C279 C281 1.390 1_655 S
C279 H283 0.950 . S
H280 C276 0.950 . S
C281 C279 1.390 1_455 S
C281 C282 1.387 . S
C281 H284 0.950 . S
C282 C281 1.387 . S
C282 C285 1.387 . S
H283 C279 0.950 . S
H284 C281 0.950 . S
C285 C276 1.390 1_455 S
C285 H278 0.950 . S
C285 C282 1.387 . S
C286 C287 1.387 . S
C286 H290 0.950 . S
C286 C295 1.390 1_545 S
C287 C286 1.387 . S
C287 C289 1.387 . S
H288 C295 0.950 . S
C289 C287 1.387 . S
C289 C291 1.390 1_545 S
C289 H293 0.950 . S
H290 C286 0.950 . S
C291 C289 1.390 1_565 S
C291 C292 1.387 . S
C291 H294 0.950 . S
C292 C291 1.387 . S
C292 C295 1.387 . S
H293 C289 0.950 . S
H294 C291 0.950 . S
C295 C286 1.390 1_565 S
C295 H288 0.950 . S
C295 C292 1.387 . S
C296 C297 1.387 . S
C296 H300 0.950 . S
C296 C305 1.390 . S
C297 C296 1.387 . S
C297 C299 1.387 . S
H298 C305 0.950 . S
C299 C297 1.387 . S
C299 C301 1.390 . S
C299 H303 0.950 . S
H300 C296 0.950 . S
C301 C299 1.390 . S
C301 C302 1.387 . S
C301 H304 0.950 . S
C302 C301 1.387 . S
C302 C305 1.387 . S
H303 C299 0.950 . S
H304 C301 0.950 . S
C305 C296 1.390 . S
C305 H298 0.950 . S
C305 C302 1.387 . S
C306 C307 1.387 . S
C306 H310 0.950 . S
C306 C315 1.390 1_545 S
C307 C306 1.387 . S
C307 C309 1.387 . S
H308 C315 0.950 . S
C309 C307 1.387 . S
C309 C311 1.390 1_545 S
C309 H313 0.950 . S
H310 C306 0.950 . S
C311 C309 1.390 1_565 S
C311 C312 1.387 . S
C311 H314 0.950 . S
C312 C311 1.387 . S
C312 C315 1.387 . S
H313 C309 0.950 . S
H314 C311 0.950 . S
C315 C306 1.390 1_565 S
C315 H308 0.950 . S
C315 C312 1.387 . S
C316 C317 1.387 . S
C316 H320 0.950 . S
C316 C325 1.390 . S
C317 C316 1.387 . S
C317 C319 1.387 . S
H318 C325 0.950 . S
C319 C317 1.387 . S
C319 C321 1.390 . S
C319 H323 0.950 . S
H320 C316 0.950 . S
C321 C319 1.390 . S
C321 C322 1.387 . S
C321 H324 0.950 . S
C322 C321 1.387 . S
C322 C325 1.387 . S
H323 C319 0.950 . S
H324 C321 0.950 . S
C325 C316 1.390 . S
C325 H318 0.950 . S
C325 C322 1.387 . S
C326 C327 1.387 . S
C326 H330 0.950 . S
C326 C335 1.390 1_455 S
C327 C326 1.387 . S
C327 C329 1.387 . S
H328 C335 0.950 . S
C329 C327 1.387 . S
C329 C331 1.390 1_455 S
C329 H333 0.950 . S
H330 C326 0.950 . S
C331 C329 1.390 1_655 S
C331 C332 1.387 . S
C331 H334 0.950 . S
C332 C331 1.387 . S
C332 C335 1.387 . S
H333 C329 0.950 . S
H334 C331 0.950 . S
C335 C326 1.390 1_655 S
C335 H328 0.950 . S
C335 C332 1.387 . S
C336 C337 1.387 . S
C336 H340 0.950 . S
C336 C345 1.390 . S
C337 C336 1.387 . S
C337 C339 1.387 . S
H338 C345 0.950 . S
C339 C337 1.387 . S
C339 C341 1.390 . S
C339 H343 0.950 . S
H340 C336 0.950 . S
C341 C339 1.390 . S
C341 C342 1.387 . S
C341 H344 0.950 . S
C342 C341 1.387 . S
C342 C345 1.387 . S
H343 C339 0.950 . S
H344 C341 0.950 . S
C345 C336 1.390 . S
C345 H338 0.950 . S
C345 C342 1.387 . S
C346 C347 1.387 . S
C346 H350 0.950 . S
C346 C355 1.390 1_655 S
C347 C346 1.387 . S
C347 C349 1.387 . S
H348 C355 0.950 . S
C349 C347 1.387 . S
C349 C351 1.390 1_655 S
C349 H353 0.950 . S
H350 C346 0.950 . S
C351 C349 1.390 1_455 S
C351 C352 1.387 . S
C351 H354 0.950 . S
C352 C351 1.387 . S
C352 C355 1.387 . S
H353 C349 0.950 . S
H354 C351 0.950 . S
C355 C346 1.390 1_455 S
C355 H348 0.950 . S
C355 C352 1.387 . S
C356 C357 1.387 . S
C356 H360 0.950 . S
C356 C365 1.390 1_545 S
C357 C356 1.387 . S
C357 C359 1.387 . S
H358 C365 0.950 . S
C359 C357 1.387 . S
C359 C361 1.390 1_545 S
C359 H363 0.950 . S
H360 C356 0.950 . S
C361 C359 1.390 1_565 S
C361 C362 1.387 . S
C361 H364 0.950 . S
C362 C361 1.387 . S
C362 C365 1.387 . S
H363 C359 0.950 . S
H364 C361 0.950 . S
C365 C356 1.390 1_565 S
C365 H358 0.950 . S
C365 C362 1.387 . S
C366 C367 1.387 . S
C366 H370 0.950 . S
C366 C375 1.390 . S
C367 C366 1.387 . S
C367 C369 1.387 . S
H368 C375 0.950 . S
C369 C367 1.387 . S
C369 C371 1.390 . S
C369 H373 0.950 . S
H370 C366 0.950 . S
C371 C369 1.390 . S
C371 C372 1.387 . S
C371 H374 0.950 . S
C372 C371 1.387 . S
C372 C375 1.387 . S
H373 C369 0.950 . S
H374 C371 0.950 . S
C375 C366 1.390 . S
C375 H368 0.950 . S
C375 C372 1.387 . S
C376 C377 1.387 . S
C376 H380 0.950 . S
C376 C385 1.390 1_455 S
C377 C376 1.387 . S
C377 C379 1.387 . S
H378 C385 0.950 . S
C379 C377 1.387 . S
C379 C381 1.390 1_455 S
C379 H383 0.950 . S
H380 C376 0.950 . S
C381 C379 1.390 1_655 S
C381 C382 1.387 . S
C381 H384 0.950 . S
C382 C381 1.387 . S
C382 C385 1.387 . S
H383 C379 0.950 . S
H384 C381 0.950 . S
C385 C376 1.390 1_655 S
C385 H378 0.950 . S
C385 C382 1.387 . S
C386 C387 1.387 . S
C386 H390 0.950 . S
C386 C395 1.390 1_565 S
C387 C386 1.387 . S
C387 C389 1.387 . S
H388 C395 0.950 . S
C389 C387 1.387 . S
C389 C391 1.390 1_565 S
C389 H393 0.950 . S
H390 C386 0.950 . S
C391 C389 1.390 1_545 S
C391 C392 1.387 . S
C391 H394 0.950 . S
C392 C391 1.387 . S
C392 C395 1.387 . S
H393 C389 0.950 . S
H394 C391 0.950 . S
C395 C386 1.390 1_545 S
C395 H388 0.950 . S
C395 C392 1.387 . S
C157 C134 1.422 . S
C162 C10 1.423 . S
C167 C17 1.421 . S
C172 C147 1.423 . S
C177 C36 1.421 . S
C182 C82 1.423 . S
C187 C49 1.422 . S
C192 C95 1.422 . S
C197 C108 1.422 . S
C202 C56 1.420 . S
C207 C69 1.423 . S
C212 C127 1.420 . S
C217 C109 1.447 . S
C222 C3 1.448 . S
C227 C18 1.451 . S
C232 C120 1.451 . S
C237 C29 1.450 . S
C242 C135 1.449 . S
C247 C42 1.450 . S
C252 C148 1.449 . S
C257 C83 1.446 . S
C262 C57 1.446 . S
C267 C96 1.449 . S
C272 C70 1.449 . S
C277 C44 1.320 . S
C282 C5 1.320 . S
C287 C16 1.318 . S
C292 C55 1.318 . S
C297 C68 1.318 . S
C302 C31 1.318 . S
C307 C122 1.320 . S
C312 C81 1.320 . S
C317 C133 1.320 . S
C322 C94 1.320 . S
C327 C107 1.318 . S
C332 C146 1.318 . S
C337 C43 1.594 . S
C342 C4 1.594 . S
C347 C23 1.594 . S
C352 C62 1.594 . S
C357 C75 1.592 . S
C362 C30 1.592 . S
C367 C88 1.592 . S
C372 C121 1.592 . S
C377 C140 1.594 . S
C382 C101 1.594 . S
C387 C114 1.592 . S
C392 C153 1.592 . S
